# Generated by pormake.
# Topology wbl, (4,4)-cn, num edge types: 1
# Building blocks:
#     Node 0, Type 0, BuildingBlock: MUDLON_clean_linker_0, # of connection points: 4
#     Node 1, Type 0, BuildingBlock: MUDLON_clean_linker_0, # of connection points: 4
#     Node 2, Type 0, BuildingBlock: MUDLON_clean_linker_0, # of connection points: 4
#     Node 3, Type 0, BuildingBlock: MUDLON_clean_linker_0, # of connection points: 4
#     Node 4, Type 0, BuildingBlock: MUDLON_clean_linker_0, # of connection points: 4
#     Node 5, Type 0, BuildingBlock: MUDLON_clean_linker_0, # of connection points: 4
#     Node 6, Type 0, BuildingBlock: MUDLON_clean_linker_0, # of connection points: 4
#     Node 7, Type 0, BuildingBlock: MUDLON_clean_linker_0, # of connection points: 4
#     Node 8, Type 1, BuildingBlock: NAHDIM_clean_sbu_0, # of connection points: 4
#     Node 9, Type 1, BuildingBlock: NAHDIM_clean_sbu_0, # of connection points: 4
#     Node 10, Type 1, BuildingBlock: NAHDIM_clean_sbu_0, # of connection points: 4
#     Node 11, Type 1, BuildingBlock: NAHDIM_clean_sbu_0, # of connection points: 4
#     Node 12, Type 1, BuildingBlock: NAHDIM_clean_sbu_0, # of connection points: 4
#     Node 13, Type 1, BuildingBlock: NAHDIM_clean_sbu_0, # of connection points: 4
#     Node 14, Type 1, BuildingBlock: NAHDIM_clean_sbu_0, # of connection points: 4
#     Node 15, Type 1, BuildingBlock: NAHDIM_clean_sbu_0, # of connection points: 4
#     Edge 16, Type (0, 1), BuildingBlock: OJICUG_clean_linker_0, # of connection points: 2
#     Edge 17, Type (0, 1), BuildingBlock: OJICUG_clean_linker_0, # of connection points: 2
#     Edge 18, Type (0, 1), BuildingBlock: OJICUG_clean_linker_0, # of connection points: 2
#     Edge 19, Type (0, 1), BuildingBlock: OJICUG_clean_linker_0, # of connection points: 2
#     Edge 20, Type (0, 1), BuildingBlock: OJICUG_clean_linker_0, # of connection points: 2
#     Edge 21, Type (0, 1), BuildingBlock: OJICUG_clean_linker_0, # of connection points: 2
#     Edge 22, Type (0, 1), BuildingBlock: OJICUG_clean_linker_0, # of connection points: 2
#     Edge 23, Type (0, 1), BuildingBlock: OJICUG_clean_linker_0, # of connection points: 2
#     Edge 24, Type (0, 1), BuildingBlock: OJICUG_clean_linker_0, # of connection points: 2
#     Edge 25, Type (0, 1), BuildingBlock: OJICUG_clean_linker_0, # of connection points: 2
#     Edge 26, Type (0, 1), BuildingBlock: OJICUG_clean_linker_0, # of connection points: 2
#     Edge 27, Type (0, 1), BuildingBlock: OJICUG_clean_linker_0, # of connection points: 2
#     Edge 28, Type (0, 1), BuildingBlock: OJICUG_clean_linker_0, # of connection points: 2
#     Edge 29, Type (0, 1), BuildingBlock: OJICUG_clean_linker_0, # of connection points: 2
#     Edge 30, Type (0, 1), BuildingBlock: OJICUG_clean_linker_0, # of connection points: 2
#     Edge 31, Type (0, 1), BuildingBlock: OJICUG_clean_linker_0, # of connection points: 2
#     Edge 32, Type (0, 1), BuildingBlock: OJICUG_clean_linker_0, # of connection points: 2
#     Edge 33, Type (0, 1), BuildingBlock: OJICUG_clean_linker_0, # of connection points: 2
#     Edge 34, Type (0, 1), BuildingBlock: OJICUG_clean_linker_0, # of connection points: 2
#     Edge 35, Type (0, 1), BuildingBlock: OJICUG_clean_linker_0, # of connection points: 2
#     Edge 36, Type (0, 1), BuildingBlock: OJICUG_clean_linker_0, # of connection points: 2
#     Edge 37, Type (0, 1), BuildingBlock: OJICUG_clean_linker_0, # of connection points: 2
#     Edge 38, Type (0, 1), BuildingBlock: OJICUG_clean_linker_0, # of connection points: 2
#     Edge 39, Type (0, 1), BuildingBlock: OJICUG_clean_linker_0, # of connection points: 2
#     Edge 40, Type (0, 1), BuildingBlock: OJICUG_clean_linker_0, # of connection points: 2
#     Edge 41, Type (0, 1), BuildingBlock: OJICUG_clean_linker_0, # of connection points: 2
#     Edge 42, Type (0, 1), BuildingBlock: OJICUG_clean_linker_0, # of connection points: 2
#     Edge 43, Type (0, 1), BuildingBlock: OJICUG_clean_linker_0, # of connection points: 2
#     Edge 44, Type (0, 1), BuildingBlock: OJICUG_clean_linker_0, # of connection points: 2
#     Edge 45, Type (0, 1), BuildingBlock: OJICUG_clean_linker_0, # of connection points: 2
#     Edge 46, Type (0, 1), BuildingBlock: OJICUG_clean_linker_0, # of connection points: 2
#     Edge 47, Type (0, 1), BuildingBlock: OJICUG_clean_linker_0, # of connection points: 2
# Relax obj value: 0.106
# Max RMSD: 0.126
# Mean RMSD: 0.114
data_MOF--net-wbl--node1-NAHDIM_clean_sbu_0--node2-MUDLON_clean_linker_0--edge1-OJICUG_clean_linker_0
_symmetry_space_group_name_H-M    P1
_symmetry_Int_Tables_number       1
_symmetry_cell_setting            triclinic
loop_
_symmetry_equiv_pos_as_xyz
'x, y, z'
_cell_length_a     44.026717
_cell_length_b     42.694844
_cell_length_c     59.299618
_cell_angle_alpha  89.973288
_cell_angle_beta   89.96172
_cell_angle_gamma 89.994867
loop_
_atom_site_label
_atom_site_type_symbol
_atom_site_fract_x
_atom_site_fract_y
_atom_site_fract_z
_atom_type_partial_charge
H0 H 0.12547 0.92619 0.33847 0.0
N1 N 0.07487 0.90869 0.31478 0.0
H2 H 0.13708 0.91328 0.37748 0.0
H3 H 0.04065 0.8763 0.34349 0.0
H4 H 0.05275 0.86178 0.38242 0.0
H5 H 0.08336 0.85041 0.30086 0.0
H6 H 0.12741 0.82933 0.28064 0.0
H7 H 0.12011 0.94367 0.29406 0.0
H8 H 0.16362 0.92279 0.27392 0.0
H9 H 0.09658 0.96761 0.32453 0.0
H10 H 0.01995 0.91738 0.29741 0.0
H11 H 0.06888 0.01643 0.3215 0.0
H12 H 0.99106 0.96629 0.29554 0.0
H13 H 0.95581 0.16161 0.33793 0.0
H14 H 0.93785 0.17541 0.37574 0.0
H15 H 0.91302 0.07877 0.38731 0.0
H16 H 0.93029 0.06544 0.34947 0.0
H17 H 0.90508 0.06447 0.3143 0.0
H18 H 0.85564 0.07506 0.29749 0.0
H19 H 0.8885 0.16447 0.27354 0.0
H20 H 0.93786 0.15394 0.29104 0.0
H21 H 0.99901 0.08762 0.34411 0.0
H22 H 0.02969 0.04097 0.34097 0.0
H23 H 0.98397 0.01678 0.27893 0.0
N24 N 0.95237 0.10605 0.3176 0.0
H25 H 0.95219 0.06292 0.2825 0.0
C26 C 0.08199 0.9023 0.33808 0.0
C27 C 0.10919 0.91261 0.34802 0.0
C28 C 0.11599 0.90485 0.37033 0.0
C29 C 0.09597 0.88626 0.38313 0.0
C30 C 0.06853 0.87645 0.37322 0.0
C31 C 0.06163 0.8845 0.35094 0.0
C32 C 0.09813 0.89855 0.29916 0.0
C33 C 0.10045 0.86642 0.29453 0.0
C34 C 0.12566 0.8544 0.28313 0.0
C35 C 0.14899 0.87443 0.27585 0.0
C36 C 0.14585 0.90684 0.2792 0.0
C37 C 0.12081 0.91882 0.29088 0.0
C38 C 0.06043 0.9386 0.31096 0.0
C39 C 0.07389 0.967 0.31764 0.0
C40 C 0.05776 0.99506 0.31618 0.0
C41 C 0.02749 0.9954 0.30858 0.0
C42 C 0.01441 0.9671 0.30124 0.0
C43 C 0.03081 0.93906 0.30237 0.0
C44 C 0.94441 0.11265 0.34082 0.0
C45 C 0.9468 0.14344 0.34878 0.0
C46 C 0.93664 0.15119 0.3704 0.0
C47 C 0.92387 0.1282 0.38452 0.0
C48 C 0.92226 0.09714 0.37674 0.0
C49 C 0.93225 0.08945 0.35511 0.0
C50 C 0.92528 0.10852 0.30392 0.0
C51 C 0.90186 0.08611 0.30511 0.0
C52 C 0.87358 0.09215 0.29537 0.0
C53 C 0.86801 0.12076 0.28433 0.0
C54 C 0.89192 0.14242 0.2822 0.0
C55 C 0.92022 0.13631 0.29192 0.0
C56 C 0.97114 0.07813 0.31467 0.0
C57 C 0.99484 0.07205 0.33004 0.0
C58 C 0.01298 0.04546 0.32798 0.0
C59 C 0.00906 0.02465 0.30987 0.0
C60 C 0.98694 0.03169 0.29353 0.0
C61 C 0.96849 0.05825 0.29572 0.0
H62 H 0.93485 0.37508 0.59151 0.0
N63 N 0.91855 0.43013 0.57099 0.0
H64 H 0.92412 0.35991 0.63022 0.0
H65 H 0.89333 0.46514 0.60307 0.0
H66 H 0.88173 0.44972 0.642 0.0
H67 H 0.86048 0.42894 0.55944 0.0
H68 H 0.83312 0.38578 0.54144 0.0
H69 H 0.94518 0.38059 0.54817 0.0
H70 H 0.91817 0.33755 0.53083 0.0
H71 H 0.97488 0.40263 0.57523 0.0
H72 H 0.92884 0.48754 0.55579 0.0
H73 H 0.02354 0.42794 0.56999 0.0
H74 H 0.97776 0.5141 0.55215 0.0
H75 H 0.16795 0.54088 0.59253 0.0
H76 H 0.17784 0.55778 0.63139 0.0
H77 H 0.08381 0.58516 0.63822 0.0
H78 H 0.0741 0.56807 0.59963 0.0
H79 H 0.08191 0.59808 0.56602 0.0
H80 H 0.09784 0.6465 0.54776 0.0
H81 H 0.17876 0.60035 0.5233 0.0
H82 H 0.16283 0.55194 0.54217 0.0
H83 H 0.09956 0.49289 0.59233 0.0
H84 H 0.05274 0.46348 0.58956 0.0
H85 H 0.02454 0.52146 0.53357 0.0
N86 N 0.11583 0.54448 0.56981 0.0
H87 H 0.07071 0.55185 0.53701 0.0
C88 C 0.91481 0.42139 0.59434 0.0
C89 C 0.92374 0.39181 0.60242 0.0
C90 C 0.91733 0.38301 0.62457 0.0
C91 C 0.90181 0.40349 0.63911 0.0
C92 C 0.89392 0.4335 0.63127 0.0
C93 C 0.90038 0.4423 0.60906 0.0
C94 C 0.90485 0.40822 0.55545 0.0
C95 C 0.87326 0.4095 0.55254 0.0
C96 C 0.85765 0.38468 0.54249 0.0
C97 C 0.87341 0.35799 0.53505 0.0
C98 C 0.90531 0.3578 0.53629 0.0
C99 C 0.9209 0.38261 0.54639 0.0
C100 C 0.94793 0.44308 0.56554 0.0
C101 C 0.9751 0.4266 0.56944 0.0
C102 C 0.00316 0.4414 0.56681 0.0
C103 C 0.0048 0.47331 0.56095 0.0
C104 C 0.97759 0.48943 0.55637 0.0
C105 C 0.94953 0.47436 0.55854 0.0
C106 C 0.1204 0.55304 0.59318 0.0
C107 C 0.1495 0.55029 0.60254 0.0
C108 C 0.1551 0.5601 0.62463 0.0
C109 C 0.13158 0.57276 0.63783 0.0
C110 C 0.1023 0.57514 0.62856 0.0
C111 C 0.09677 0.56555 0.60644 0.0
C112 C 0.12128 0.57128 0.55546 0.0
C113 C 0.10278 0.59816 0.55639 0.0
C114 C 0.11186 0.62584 0.5458 0.0
C115 C 0.1397 0.62735 0.5342 0.0
C116 C 0.15736 0.60003 0.53233 0.0
C117 C 0.14819 0.5723 0.54287 0.0
C118 C 0.08846 0.52605 0.56596 0.0
C119 C 0.08323 0.49959 0.57955 0.0
C120 C 0.05646 0.48238 0.5777 0.0
C121 C 0.03443 0.49027 0.56151 0.0
C122 C 0.04049 0.51531 0.54674 0.0
C123 C 0.06719 0.53291 0.54882 0.0
H124 H 0.62822 0.43469 0.82821 0.0
N125 N 0.57538 0.4197 0.80615 0.0
H126 H 0.64472 0.41479 0.86459 0.0
H127 H 0.54324 0.38527 0.83512 0.0
H128 H 0.55982 0.36524 0.87201 0.0
H129 H 0.58255 0.36387 0.78741 0.0
H130 H 0.62746 0.34474 0.76739 0.0
H131 H 0.62027 0.45711 0.78766 0.0
H132 H 0.66515 0.43814 0.76834 0.0
H133 H 0.59602 0.47749 0.81992 0.0
H134 H 0.52051 0.42961 0.78911 0.0
H135 H 0.56742 0.52608 0.81993 0.0
H136 H 0.49097 0.47818 0.78994 0.0
H137 H 0.45655 0.67057 0.83894 0.0
H138 H 0.43802 0.68397 0.87671 0.0
H139 H 0.40856 0.58831 0.88616 0.0
H140 H 0.42687 0.57525 0.84848 0.0
H141 H 0.40429 0.57429 0.81274 0.0
H142 H 0.35534 0.5851 0.79506 0.0
H143 H 0.38802 0.67592 0.77402 0.0
H144 H 0.43707 0.66493 0.79192 0.0
H145 H 0.49559 0.59376 0.84518 0.0
H146 H 0.52649 0.54747 0.84038 0.0
H147 H 0.48495 0.53062 0.77557 0.0
N148 N 0.45129 0.61594 0.81758 0.0
H149 H 0.4531 0.57643 0.78059 0.0
C150 C 0.58443 0.41119 0.82875 0.0
C151 C 0.61288 0.41987 0.83762 0.0
C152 C 0.62241 0.40835 0.85843 0.0
C153 C 0.60368 0.38821 0.87095 0.0
C154 C 0.57466 0.38079 0.86268 0.0
C155 C 0.56521 0.39212 0.84168 0.0
C156 C 0.59788 0.41178 0.78932 0.0
C157 C 0.60004 0.38039 0.78255 0.0
C158 C 0.62588 0.36945 0.77137 0.0
C159 C 0.65017 0.38979 0.76667 0.0
C160 C 0.64685 0.42182 0.77163 0.0
C161 C 0.62098 0.43275 0.78282 0.0
C162 C 0.56043 0.4497 0.80436 0.0
C163 C 0.57339 0.47739 0.81291 0.0
C164 C 0.55678 0.50526 0.81314 0.0
C165 C 0.52669 0.50607 0.80519 0.0
C166 C 0.51416 0.47858 0.79599 0.0
C167 C 0.53094 0.45075 0.79556 0.0
C168 C 0.44307 0.62208 0.84082 0.0
C169 C 0.44646 0.65248 0.84933 0.0
C170 C 0.43593 0.66002 0.8709 0.0
C171 C 0.42166 0.63722 0.88437 0.0
C172 C 0.41901 0.60651 0.87606 0.0
C173 C 0.42954 0.599 0.85452 0.0
C174 C 0.4244 0.61898 0.80374 0.0
C175 C 0.40112 0.59635 0.80409 0.0
C176 C 0.3731 0.6026 0.79403 0.0
C177 C 0.36773 0.63151 0.78339 0.0
C178 C 0.39153 0.65336 0.78197 0.0
C179 C 0.41954 0.64714 0.79214 0.0
C180 C 0.46973 0.58785 0.81424 0.0
C181 C 0.49226 0.57983 0.83014 0.0
C182 C 0.51056 0.55348 0.82717 0.0
C183 C 0.50792 0.53489 0.80773 0.0
C184 C 0.4869 0.5438 0.7911 0.0
C185 C 0.46839 0.57014 0.79412 0.0
H186 H 0.41553 0.88439 0.09869 0.0
N187 N 0.40523 0.94132 0.07857 0.0
H188 H 0.40287 0.86975 0.13697 0.0
H189 H 0.38448 0.97857 0.11116 0.0
H190 H 0.37348 0.96466 0.1504 0.0
H191 H 0.34778 0.93793 0.06541 0.0
H192 H 0.32312 0.8945 0.04568 0.0
H193 H 0.43478 0.8932 0.05619 0.0
H194 H 0.41041 0.84984 0.03711 0.0
H195 H 0.46103 0.91497 0.08686 0.0
H196 H 0.41644 0.99746 0.06122 0.0
H197 H 0.51012 0.94028 0.08261 0.0
H198 H 0.46552 0.02395 0.0582 0.0
H199 H 0.6567 0.05064 0.09853 0.0
H200 H 0.669 0.07019 0.13633 0.0
H201 H 0.57658 0.10253 0.14403 0.0
H202 H 0.56444 0.08266 0.10653 0.0
H203 H 0.57001 0.10832 0.07113 0.0
H204 H 0.58602 0.15544 0.05122 0.0
H205 H 0.66666 0.10739 0.02813 0.0
H206 H 0.65077 0.06045 0.0488 0.0
H207 H 0.58506 0.0076 0.1031 0.0
H208 H 0.53795 0.97857 0.10113 0.0
H209 H 0.51353 0.02866 0.04045 0.0
N210 N 0.60388 0.05499 0.07681 0.0
H211 H 0.56005 0.05874 0.04292 0.0
C212 C 0.40036 0.93259 0.10185 0.0
C213 C 0.40629 0.90212 0.10975 0.0
C214 C 0.39935 0.89384 0.13192 0.0
C215 C 0.38701 0.91595 0.14696 0.0
C216 C 0.38233 0.94678 0.13924 0.0
C217 C 0.38881 0.9549 0.11689 0.0
C218 C 0.39307 0.91906 0.06254 0.0
C219 C 0.36166 0.91921 0.05864 0.0
C220 C 0.34759 0.89422 0.04759 0.0
C221 C 0.36474 0.86845 0.04013 0.0
C222 C 0.3965 0.86937 0.04251 0.0
C223 C 0.41056 0.89437 0.05359 0.0
C224 C 0.43492 0.95427 0.07409 0.0
C225 C 0.46178 0.93844 0.08002 0.0
C226 C 0.48995 0.9532 0.07788 0.0
C227 C 0.49194 0.98441 0.07032 0.0
C228 C 0.46506 0.99982 0.06379 0.0
C229 C 0.43693 0.9848 0.06559 0.0
C230 C 0.60977 0.06503 0.09971 0.0
C231 C 0.63911 0.06169 0.10851 0.0
C232 C 0.6461 0.07305 0.12999 0.0
C233 C 0.62375 0.08793 0.14313 0.0
C234 C 0.5942 0.09087 0.13443 0.0
C235 C 0.58728 0.0797 0.11291 0.0
C236 C 0.60931 0.08077 0.06149 0.0
C237 C 0.59087 0.10772 0.0615 0.0
C238 C 0.6 0.13465 0.04994 0.0
C239 C 0.62779 0.13531 0.03822 0.0
C240 C 0.64536 0.10782 0.03727 0.0
C241 C 0.63618 0.08088 0.04883 0.0
C242 C 0.57583 0.03717 0.07418 0.0
C243 C 0.56943 0.01287 0.08952 0.0
C244 C 0.54252 0.99577 0.08815 0.0
C245 C 0.52152 0.00148 0.07079 0.0
C246 C 0.52867 0.02429 0.05449 0.0
C247 C 0.55553 0.04175 0.05602 0.0
H248 H 0.07139 0.5542 0.9082 0.0
N249 N 0.0555 0.59617 0.9411 0.0
H250 H 0.0848 0.5667 0.86921 0.0
H251 H 0.04989 0.65122 0.92044 0.0
H252 H 0.06332 0.66397 0.88139 0.0
H253 H 0.06618 0.64003 0.97204 0.0
H254 H 0.11512 0.65328 0.98951 0.0
H255 H 0.10864 0.56306 0.9371 0.0
H256 H 0.15718 0.57616 0.95419 0.0
H257 H 0.07098 0.54128 0.96424 0.0
H258 H 0.99754 0.58862 0.92993 0.0
H259 H 0.03936 0.4956 0.96912 0.0
H260 H 0.96604 0.54211 0.93413 0.0
H261 H 0.93625 0.34531 0.92915 0.0
H262 H 0.92612 0.32852 0.89038 0.0
H263 H 0.90494 0.42408 0.8722 0.0
H264 H 0.91451 0.44048 0.91092 0.0
H265 H 0.87295 0.42803 0.93769 0.0
H266 H 0.82496 0.41298 0.95478 0.0
H267 H 0.87232 0.34987 -0.00044 0.0
H268 H 0.92079 0.36556 0.98244 0.0
H269 H 0.98877 0.40673 0.94579 0.0
H270 H 0.01963 0.45413 0.94725 0.0
H271 H 0.93861 0.50914 0.95862 0.0
N272 N 0.92881 0.4022 0.94655 0.0
H273 H 0.90798 0.46213 0.95615 0.0
C274 C 0.05978 0.60194 0.91729 0.0
C275 C 0.0692 0.57814 0.90242 0.0
C276 C 0.07694 0.58532 0.88016 0.0
C277 C 0.07529 0.61635 0.87229 0.0
C278 C 0.06454 0.63981 0.88688 0.0
C279 C 0.05696 0.63263 0.90918 0.0
C280 C 0.08351 0.60044 0.95347 0.0
C281 C 0.08588 0.62565 0.96849 0.0
C282 C 0.11385 0.63335 0.97826 0.0
C283 C 0.13999 0.61574 0.97323 0.0
C284 C 0.13741 0.58993 0.95866 0.0
C285 C 0.1096 0.58249 0.94876 0.0
C286 C 0.03707 0.56878 0.94607 0.0
C287 C 0.04826 0.54214 0.95748 0.0
C288 C 0.02999 0.51562 0.96032 0.0
C289 C 1.00019 0.51485 0.95181 0.0
C290 C 0.98872 0.54181 0.94117 0.0
C291 C 0.00683 0.56842 0.93856 0.0
C292 C 0.92619 0.394 0.923 0.0
C293 C 0.92988 0.36263 0.91666 0.0
C294 C 0.92419 0.35314 0.89451 0.0
C295 C 0.91457 0.37496 0.87824 0.0
C296 C 0.91191 0.40664 0.88441 0.0
C297 C 0.91761 0.41609 0.90655 0.0
C298 C 0.90071 0.3979 0.95881 0.0
C299 C 0.87328 0.41146 0.95147 0.0
C300 C 0.84571 0.4026 0.96115 0.0
C301 C 0.84478 0.37986 0.97828 0.0
C302 C 0.87229 0.36754 0.98644 0.0
C303 C 0.89997 0.37647 0.97672 0.0
C304 C 0.94605 0.43045 0.9508 0.0
C305 C 0.97776 0.429 0.94892 0.0
C306 C 0.99537 0.45618 0.94986 0.0
C307 C 0.98166 0.48564 0.95294 0.0
C308 C 0.94994 0.48698 0.95579 0.0
C309 C 0.93229 0.45979 0.95458 0.0
H310 H 0.58918 0.3851 0.16791 0.0
N311 N 0.59801 0.44192 0.18861 0.0
H312 H 0.6021 0.37148 0.12953 0.0
H313 H 0.62043 0.47962 0.1568 0.0
H314 H 0.63223 0.46644 0.11749 0.0
H315 H 0.65473 0.43918 0.2034 0.0
H316 H 0.67925 0.39507 0.22242 0.0
H317 H 0.56805 0.39285 0.20954 0.0
H318 H 0.59232 0.34871 0.22781 0.0
H319 H 0.54346 0.41466 0.17742 0.0
H320 H 0.58404 0.49673 0.20717 0.0
H321 H 0.49383 0.43947 0.17881 0.0
H322 H 0.53414 0.52222 0.20813 0.0
H323 H 0.3492 0.53553 0.15604 0.0
H324 H 0.33729 0.55484 0.11798 0.0
H325 H 0.42075 0.60785 0.11761 0.0
H326 H 0.43311 0.58759 0.15507 0.0
H327 H 0.43127 0.60181 0.19252 0.0
H328 H 0.41299 0.64849 0.21183 0.0
H329 H 0.32692 0.6029 0.22405 0.0
H330 H 0.34523 0.55636 0.20405 0.0
H331 H 0.42389 0.50938 0.15279 0.0
H332 H 0.47131 0.48161 0.1575 0.0
H333 H 0.48183 0.52166 0.22385 0.0
N334 N 0.39704 0.55021 0.18148 0.0
H335 H 0.43434 0.54991 0.21924 0.0
C336 C 0.60421 0.43348 0.16544 0.0
C337 C 0.59864 0.40311 0.15719 0.0
C338 C 0.60575 0.39538 0.13499 0.0
C339 C 0.61814 0.41786 0.12028 0.0
C340 C 0.62311 0.44841 0.12841 0.0
C341 C 0.61624 0.45606 0.15079 0.0
C342 C 0.60965 0.4195 0.20474 0.0
C343 C 0.64087 0.41995 0.2094 0.0
C344 C 0.65487 0.39456 0.22002 0.0
C345 C 0.63785 0.36807 0.22623 0.0
C346 C 0.60615 0.36875 0.22332 0.0
C347 C 0.59215 0.39419 0.21273 0.0
C348 C 0.56771 0.4539 0.19221 0.0
C349 C 0.54173 0.43785 0.1846 0.0
C350 C 0.51326 0.45222 0.18521 0.0
C351 C 0.51008 0.48301 0.19327 0.0
C352 C 0.53577 0.49841 0.20194 0.0
C353 C 0.56429 0.48394 0.20138 0.0
C354 C 0.39172 0.56039 0.15854 0.0
C355 C 0.36502 0.55102 0.1476 0.0
C356 C 0.35831 0.56199 0.12595 0.0
C357 C 0.37804 0.58297 0.11506 0.0
C358 C 0.40504 0.59197 0.12582 0.0
C359 C 0.41202 0.58054 0.14726 0.0
C360 C 0.3895 0.57546 0.19676 0.0
C361 C 0.40863 0.60161 0.1996 0.0
C362 C 0.3982 0.62827 0.21084 0.0
C363 C 0.36839 0.62952 0.21932 0.0
C364 C 0.34987 0.60282 0.21745 0.0
C365 C 0.36036 0.57611 0.20627 0.0
C366 C 0.42599 0.53414 0.18479 0.0
C367 C 0.43652 0.51306 0.16823 0.0
C368 C 0.46356 0.49657 0.17109 0.0
C369 C 0.48062 0.49975 0.19094 0.0
C370 C 0.4696 0.51939 0.20809 0.0
C371 C 0.44237 0.53591 0.20526 0.0
H372 H 0.37817 0.92709 0.42614 0.0
N373 N 0.42941 0.91311 0.45048 0.0
H374 H 0.36646 0.90989 0.38808 0.0
H375 H 0.46427 0.87907 0.42314 0.0
H376 H 0.45231 0.86105 0.38485 0.0
H377 H 0.42076 0.85771 0.46965 0.0
H378 H 0.37582 0.83994 0.49037 0.0
H379 H 0.38342 0.95108 0.46691 0.0
H380 H 0.3387 0.93348 0.48694 0.0
H381 H 0.40909 0.97048 0.43559 0.0
H382 H 0.48332 0.92378 0.469 0.0
H383 H 0.43679 0.01946 0.43655 0.0
H384 H 0.51229 0.97272 0.46884 0.0
H385 H 0.54628 0.16709 0.42193 0.0
H386 H 0.56575 0.18149 0.38463 0.0
H387 H 0.59435 0.08579 0.37396 0.0
H388 H 0.57538 0.07182 0.41124 0.0
H389 H 0.59867 0.07134 0.44678 0.0
H390 H 0.64729 0.08323 0.46466 0.0
H391 H 0.61139 0.17155 0.48803 0.0
H392 H 0.56278 0.15975 0.46965 0.0
H393 H 0.50737 0.08945 0.41408 0.0
H394 H 0.47752 0.04233 0.41776 0.0
H395 H 0.51762 0.02475 0.48301 0.0
N396 N 0.55059 0.11175 0.44249 0.0
H397 H 0.54875 0.07125 0.47895 0.0
C398 C 0.4222 0.90421 0.42761 0.0
C399 C 0.39466 0.91289 0.41731 0.0
C400 C 0.38785 0.90283 0.39553 0.0
C401 C 0.40833 0.88386 0.38352 0.0
C402 C 0.43616 0.87581 0.39361 0.0
C403 C 0.44296 0.88591 0.41547 0.0
C404 C 0.40573 0.90561 0.46652 0.0
C405 C 0.40328 0.87453 0.47397 0.0
C406 C 0.37748 0.86437 0.4856 0.0
C407 C 0.3535 0.8852 0.49006 0.0
C408 C 0.35683 0.91684 0.48395 0.0
C409 C 0.38261 0.92697 0.4723 0.0
C410 C 0.44403 0.94326 0.45247 0.0
C411 C 0.43127 0.97071 0.44336 0.0
C412 C 0.44742 0.99882 0.44364 0.0
C413 C 0.47703 1.00011 0.45251 0.0
C414 C 0.48944 0.97279 0.46211 0.0
C415 C 0.47301 0.94474 0.46213 0.0
C416 C 0.55933 0.11853 0.41944 0.0
C417 C 0.55641 0.14923 0.41137 0.0
C418 C 0.56747 0.15733 0.39006 0.0
C419 C 0.58175 0.1348 0.37637 0.0
C420 C 0.58394 0.10382 0.38423 0.0
C421 C 0.57299 0.09576 0.40554 0.0
C422 C 0.57709 0.1149 0.45672 0.0
C423 C 0.60106 0.09307 0.45597 0.0
C424 C 0.62885 0.09989 0.46617 0.0
C425 C 0.63316 0.12846 0.47747 0.0
C426 C 0.60862 0.1493 0.4795 0.0
C427 C 0.58089 0.1426 0.46908 0.0
C428 C 0.53262 0.08324 0.44527 0.0
C429 C 0.51064 0.07518 0.42898 0.0
C430 C 0.49291 0.04833 0.43131 0.0
C431 C 0.49541 0.0293 0.45056 0.0
C432 C 0.51582 0.03824 0.4676 0.0
C433 C 0.53389 0.06501 0.46515 0.0
H434 H 0.06731 0.87081 0.67097 0.0
N435 N 0.08173 0.92536 0.69275 0.0
H436 H 0.08002 0.85708 0.63222 0.0
H437 H 0.10982 0.96098 0.66237 0.0
H438 H 0.12345 0.94708 0.62353 0.0
H439 H 0.13882 0.9175 0.70563 0.0
H440 H 0.1602 0.87345 0.72684 0.0
H441 H 0.0488 0.8799 0.71565 0.0
H442 H 0.07001 0.83642 0.73687 0.0
H443 H 0.02526 0.90113 0.68346 0.0
H444 H 0.07192 0.98231 0.7092 0.0
H445 H 0.97717 0.92873 0.68575 0.0
H446 H 0.0238 0.01096 0.71045 0.0
H447 H 0.83688 0.04247 0.6628 0.0
H448 H 0.82783 0.06258 0.62466 0.0
H449 H 0.92053 0.09567 0.62179 0.0
H450 H 0.9295 0.07489 0.65953 0.0
H451 H 0.92262 0.09865 0.69522 0.0
H452 H 0.90588 0.14624 0.71421 0.0
H453 H 0.8213 0.10104 0.73176 0.0
H454 H 0.83809 0.05353 0.7122 0.0
H455 H 0.90702 0.99901 0.66139 0.0
H456 H 0.95292 0.96829 0.66529 0.0
H457 H 0.9745 0.01747 0.72688 0.0
N458 N 0.88763 0.04671 0.68707 0.0
H459 H 0.9291 0.04905 0.72264 0.0
C460 C 0.08773 0.91703 0.66959 0.0
C461 C 0.07924 0.88777 0.66069 0.0
C462 C 0.08675 0.87984 0.63855 0.0
C463 C 0.10295 0.90089 0.62481 0.0
C464 C 0.11072 0.93044 0.63358 0.0
C465 C 0.10314 0.93837 0.65576 0.0
C466 C 0.09226 0.90233 0.70886 0.0
C467 C 0.12361 0.90026 0.71286 0.0
C468 C 0.1358 0.87503 0.72481 0.0
C469 C 0.11675 0.85147 0.73335 0.0
C470 C 0.08519 0.85439 0.73058 0.0
C471 C 0.07302 0.87941 0.71831 0.0
C472 C 0.05238 0.93961 0.69637 0.0
C473 C 0.0252 0.9248 0.68989 0.0
C474 C 0.9976 0.94084 0.69095 0.0
C475 C 0.99652 0.9723 0.69799 0.0
C476 C 0.02361 0.98669 0.70518 0.0
C477 C 0.05118 0.97042 0.70441 0.0
C478 C 0.88373 0.05711 0.66401 0.0
C479 C 0.85524 0.0538 0.65378 0.0
C480 C 0.8501 0.0655 0.63211 0.0
C481 C 0.87344 0.08082 0.62022 0.0
C482 C 0.90217 0.0837 0.63037 0.0
C483 C 0.90727 0.07205 0.65205 0.0
C484 C 0.88151 0.07241 0.70228 0.0
C485 C 0.90075 0.09871 0.70353 0.0
C486 C 0.89119 0.1259 0.71454 0.0
C487 C 0.86213 0.12752 0.72434 0.0
C488 C 0.84366 0.10065 0.72414 0.0
C489 C 0.85331 0.07341 0.7132 0.0
C490 C 0.91499 0.02813 0.69074 0.0
C491 C 0.92178 0.00371 0.67559 0.0
C492 C 0.94795 0.98566 0.67806 0.0
C493 C 0.96776 0.99059 0.69627 0.0
C494 C 0.96024 0.01366 0.71226 0.0
C495 C 0.93407 0.032 0.70969 0.0
C496 C 0.26239 0.64904 0.99909 0.0
O497 O 0.28155 0.62667 0.00442 0.0
O498 O 0.33304 0.66368 0.02856 0.0
Zn499 Zn 0.31759 0.6845 0.00022 0.0
O500 O 0.33922 0.66734 0.97301 0.0
C501 C 0.31395 0.7478 0.01711 0.0
O502 O 0.29282 0.7355 0.03004 0.0
O503 O 0.27239 0.67679 0.99662 0.0
C504 C 0.36649 0.67509 0.9687 0.0
O505 O 0.3808 0.69398 0.98258 0.0
C506 C 0.34377 0.63604 0.0292 0.0
O507 O 0.34532 0.61949 0.01056 0.0
O508 O 0.32698 0.73059 0.00256 0.0
C509 C 0.26796 0.83296 0.24815 0.0
O510 O 0.27974 0.84026 0.22848 0.0
O511 O 0.34927 0.83986 0.23656 0.0
Zn512 Zn 0.3304 0.81532 0.262 0.0
O513 O 0.34709 0.82995 0.29166 0.0
C514 C 0.32418 0.75141 0.24641 0.0
O515 O 0.29856 0.76207 0.23805 0.0
O516 O 0.28487 0.82164 0.26351 0.0
C517 C 0.37425 0.83889 0.29498 0.0
O518 O 0.39365 0.83868 0.27814 0.0
C519 C 0.34422 0.86866 0.23263 0.0
O520 O 0.32565 0.88437 0.24578 0.0
O521 O 0.34107 0.76981 0.25763 0.0
C522 C 0.23176 0.84821 0.51459 0.0
O523 O 0.21486 0.86715 0.52672 0.0
O524 O 0.15573 0.83655 0.53343 0.0
Zn525 Zn 0.17386 0.81834 0.50511 0.0
O526 O 0.15706 0.83771 0.47682 0.0
C527 C 0.18223 0.75184 0.51276 0.0
O528 O 0.20917 0.7608 0.51976 0.0
O529 O 0.21929 0.82529 0.50449 0.0
C530 C 0.12922 0.84252 0.47235 0.0
O531 O 0.10844 0.83538 0.48741 0.0
C532 C 0.1447 0.86382 0.53606 0.0
O533 O 0.14443 0.88344 0.51899 0.0
O534 O 0.16385 0.77227 0.50522 0.0
C535 C 0.24665 0.6649 0.75376 0.0
O536 O 0.24153 0.67458 0.73307 0.0
O537 O 0.17297 0.64443 0.72958 0.0
Zn538 Zn 0.1807 0.66799 0.7585 0.0
O539 O 0.15522 0.65112 0.7841 0.0
C540 C 0.16074 0.73287 0.76696 0.0
O541 O 0.15528 0.72337 0.78764 0.0
O542 O 0.2244 0.66145 0.76721 0.0
C543 C 0.12714 0.65632 0.78746 0.0
O544 O 0.11194 0.67378 0.77312 0.0
C545 C 0.15231 0.624 0.72679 0.0
O546 O 0.13442 0.6167 0.74372 0.0
O547 O 0.17191 0.71381 0.75271 0.0
C548 C 0.75332 0.16518 0.5066 0.0
O549 O 0.75953 0.16897 0.52809 0.0
O550 O 0.82785 0.15252 0.52918 0.0
Zn551 Zn 0.81856 0.17429 0.49979 0.0
O552 O 0.84301 0.15617 0.47425 0.0
C553 C 0.81756 0.23817 0.5171 0.0
O554 O 0.79702 0.22709 0.53106 0.0
O555 O 0.77452 0.16746 0.49212 0.0
C556 C 0.86865 0.16728 0.46848 0.0
O557 O 0.88045 0.19037 0.4802 0.0
C558 C 0.8522 0.13736 0.53284 0.0
O559 O 0.87277 0.13545 0.51685 0.0
O560 O 0.82895 0.22012 0.50233 0.0
C561 C 0.77233 0.34891 0.74647 0.0
O562 O 0.78984 0.36615 0.73352 0.0
O563 O 0.84752 0.33522 0.72838 0.0
Zn564 Zn 0.82921 0.31752 0.75672 0.0
O565 O 0.84819 0.33688 0.78421 0.0
C566 C 0.82011 0.25186 0.74674 0.0
O567 O 0.79487 0.26228 0.73761 0.0
O568 O 0.78403 0.32642 0.75758 0.0
C569 C 0.87392 0.32836 0.79174 0.0
O570 O 0.88922 0.30658 0.78097 0.0
C571 C 0.86063 0.36164 0.72679 0.0
O572 O 0.86289 0.37957 0.74471 0.0
O573 O 0.83772 0.27112 0.75651 0.0
C574 C 0.72723 0.33549 0.00855 0.0
O575 O 0.72079 0.33267 0.03009 0.0
O576 O 0.6467 0.3466 0.02655 0.0
Zn577 Zn 0.66164 0.32354 0.99916 0.0
O578 O 0.63954 0.3394 0.97178 0.0
C579 C 0.6709 0.25724 0.01003 0.0
O580 O 0.69903 0.26572 0.01413 0.0
O581 O 0.70637 0.33171 0.99398 0.0
C582 C 0.65176 0.33399 0.95276 0.0
O583 O 0.67712 0.3178 0.95204 0.0
C584 C 0.65639 0.37327 0.03278 0.0
O585 O 0.6774 0.3875 0.02083 0.0
O586 O 0.65198 0.27763 0.0032 0.0
C587 C 0.74329 0.14933 0.26124 0.0
O588 O 0.72546 0.1271 0.25355 0.0
O589 O 0.67485 0.16067 0.23193 0.0
Zn590 Zn 0.68692 0.1822 0.2609 0.0
O591 O 0.66457 0.1643 0.28762 0.0
C592 C 0.6901 0.24673 0.24545 0.0
O593 O 0.71304 0.23631 0.23341 0.0
O594 O 0.7319 0.17602 0.26567 0.0
C595 C 0.63842 0.1745 0.29301 0.0
O596 O 0.62558 0.1961 0.28043 0.0
C597 C 0.65196 0.14277 0.22989 0.0
O598 O 0.63445 0.13757 0.24743 0.0
O599 O 0.67628 0.22797 0.25853 0.0
C600 C 0.19271 0.83733 0.27874 0.0
C601 C 0.17784 0.86143 0.26696 0.0
H602 H 0.23288 0.80949 0.28203 0.0
C603 C 0.19189 0.87445 0.24785 0.0
H604 H 0.18256 0.8271 0.29367 0.0
C605 C 0.22065 0.86413 0.24102 0.0
C606 C 0.23608 0.84103 0.25346 0.0
H607 H 0.18086 0.89298 0.23844 0.0
H608 H 0.23128 0.87515 0.22658 0.0
C609 C 0.2216 0.82739 0.27215 0.0
C610 C 0.13192 0.67992 0.51594 0.0
C611 C 0.15143 0.65798 0.52606 0.0
H612 H 0.12638 0.72667 0.50357 0.0
C613 C 0.18181 0.66647 0.53007 0.0
H614 H 0.10849 0.67398 0.5124 0.0
C615 C 0.1921 0.69662 0.525 0.0
C616 C 0.17225 0.71897 0.51577 0.0
H617 H 0.19736 0.65026 0.53809 0.0
H618 H 0.21538 0.70265 0.52898 0.0
C619 C 0.14223 0.71008 0.51081 0.0
C620 C 0.33235 0.65467 0.75451 0.0
C621 C 0.3368 0.6397 0.77536 0.0
H622 H 0.30033 0.67426 0.73121 0.0
C623 C 0.31146 0.6334 0.78904 0.0
H624 H 0.35147 0.65975 0.74359 0.0
C625 C 0.28232 0.64185 0.78208 0.0
C626 C 0.27776 0.65665 0.76117 0.0
H627 H 0.3142 0.62237 0.80537 0.0
H628 H 0.26335 0.63664 0.7931 0.0
C629 C 0.30308 0.66292 0.74742 0.0
C630 C 0.36192 0.82151 0.01451 0.0
C631 C 0.34951 0.83938 0.03216 0.0
H632 H 0.36028 0.77873 0.99572 0.0
C633 C 0.32377 0.82789 0.04355 0.0
H634 H 0.38152 0.82985 0.00523 0.0
C635 C 0.31155 0.79866 0.03808 0.0
C636 C 0.32475 0.78021 0.0211 0.0
H637 H 0.31386 0.84081 0.05743 0.0
H638 H 0.29233 0.79013 0.0477 0.0
C639 C 0.34965 0.79227 0.00901 0.0
C640 C 0.19061 0.602 0.98982 0.0
C641 C 0.17025 0.62494 0.98209 0.0
H642 H 0.23542 0.59165 0.00141 0.0
C643 C 0.17981 0.65636 0.98143 0.0
H644 H 0.18379 0.57766 0.99079 0.0
C645 C 0.20951 0.66446 0.98751 0.0
C646 C 0.23019 0.64129 0.99445 0.0
H647 H 0.1647 0.67454 0.97537 0.0
H648 H 0.21647 0.68873 0.98622 0.0
C649 C 0.22019 0.61008 0.99596 0.0
C650 C 0.37379 0.67905 0.24194 0.0
C651 C 0.35597 0.65941 0.22829 0.0
H652 H 0.37767 0.72335 0.25856 0.0
C653 C 0.32683 0.66955 0.22187 0.0
H654 H 0.39619 0.67177 0.24737 0.0
C655 C 0.31618 0.69906 0.2283 0.0
C656 C 0.33441 0.71912 0.24131 0.0
H657 H 0.31266 0.65519 0.21111 0.0
H658 H 0.29395 0.70643 0.22256 0.0
C659 C 0.36311 0.70855 0.24842 0.0
C660 C 0.3113 0.84574 0.49034 0.0
C661 C 0.32393 0.87359 0.49886 0.0
H662 H 0.27242 0.8158 0.48867 0.0
C663 C 0.30687 0.8915 0.5142 0.0
H664 H 0.32365 0.83157 0.47828 0.0
C665 C 0.27735 0.88256 0.52005 0.0
C666 C 0.26421 0.85553 0.51064 0.0
H667 H 0.3161 0.91285 0.52129 0.0
H668 H 0.26451 0.89739 0.5314 0.0
C669 C 0.2818 0.83681 0.49617 0.0
C670 C 0.11842 0.81005 0.76345 0.0
C671 C 0.12984 0.82256 0.74324 0.0
H672 H 0.11972 0.77207 0.78709 0.0
C673 C 0.15271 0.80623 0.73162 0.0
H674 H 0.10084 0.82223 0.77275 0.0
C675 C 0.16322 0.77742 0.73962 0.0
C676 C 0.15142 0.76456 0.75959 0.0
H677 H 0.16169 0.81518 0.71587 0.0
H678 H 0.18029 0.765 0.72996 0.0
C679 C 0.12933 0.78144 0.77168 0.0
C680 C 0.69188 0.34994 0.76915 0.0
C681 C 0.68004 0.37726 0.75919 0.0
H682 H 0.73016 0.31953 0.77294 0.0
C683 C 0.69812 0.39381 0.74369 0.0
H684 H 0.67878 0.33687 0.78142 0.0
C685 C 0.72774 0.38395 0.73894 0.0
C686 C 0.73998 0.3574 0.74966 0.0
H687 H 0.68957 0.41475 0.73556 0.0
H688 H 0.7413 0.39769 0.72734 0.0
C689 C 0.72149 0.34012 0.76443 0.0
C690 C 0.67012 0.17367 0.03161 0.0
C691 C 0.63947 0.16526 0.02873 0.0
H692 H 0.7041 0.20915 0.02793 0.0
C693 C 0.61976 0.18665 0.01821 0.0
H694 H 0.68587 0.15796 0.03991 0.0
C695 C 0.63018 0.21616 0.0115 0.0
C696 C 0.66057 0.22497 0.01515 0.0
H697 H 0.59612 0.18077 0.01546 0.0
H698 H 0.61421 0.23231 0.00389 0.0
C699 C 0.68055 0.20316 0.02488 0.0
C700 C 0.81816 0.1061 0.26656 0.0
C701 C 0.83682 0.12882 0.27664 0.0
H702 H 0.77413 0.09478 0.25369 0.0
C703 C 0.82484 0.15887 0.28061 0.0
H704 H 0.82679 0.08285 0.26303 0.0
C705 C 0.79467 0.16577 0.27518 0.0
C706 C 0.77578 0.14277 0.26569 0.0
H707 H 0.83845 0.17681 0.28863 0.0
H708 H 0.78599 0.18894 0.2789 0.0
C709 C 0.78799 0.11299 0.26114 0.0
C710 C 0.86724 0.31016 0.51071 0.0
C711 C 0.85673 0.32916 0.52842 0.0
H712 H 0.86295 0.26667 0.49308 0.0
C713 C 0.83166 0.31898 0.5412 0.0
H714 H 0.88629 0.31748 0.50042 0.0
C715 C 0.81824 0.28991 0.537 0.0
C716 C 0.82958 0.27033 0.51992 0.0
H717 H 0.82323 0.33283 0.55516 0.0
H718 H 0.79961 0.28239 0.54763 0.0
C719 C 0.85377 0.28109 0.50648 0.0
C720 C 0.68877 0.13471 0.47073 0.0
C721 C 0.66382 0.1376 0.48535 0.0
H722 H 0.73639 0.14154 0.46585 0.0
C723 C 0.66834 0.1501 0.507 0.0
H724 H 0.68584 0.12559 0.45382 0.0
C725 C 0.69743 0.15911 0.514 0.0
C726 C 0.72237 0.15629 0.4993 0.0
H727 H 0.64944 0.15259 0.51857 0.0
H728 H 0.70035 0.16842 0.53084 0.0
C729 C 0.71767 0.14412 0.47757 0.0
C730 C 0.8688 0.17865 0.74483 0.0
C731 C 0.85016 0.15795 0.73267 0.0
H732 H 0.87383 0.22441 0.75908 0.0
C733 C 0.82065 0.1676 0.72683 0.0
H734 H 0.89152 0.17178 0.74978 0.0
C735 C 0.81049 0.19772 0.73214 0.0
C736 C 0.82958 0.21887 0.74346 0.0
H737 H 0.80582 0.15239 0.71723 0.0
H738 H 0.78799 0.20471 0.72673 0.0
C739 C 0.85859 0.20875 0.75023 0.0
C740 C 0.80958 0.36234 0.00942 0.0
C741 C 0.81508 0.36768 0.98637 0.0
H742 H 0.77743 0.34803 0.0346 0.0
C743 C 0.79193 0.36111 0.97078 0.0
H744 H 0.82697 0.36723 0.02183 0.0
C745 C 0.76374 0.3501 0.97802 0.0
C746 C 0.7579 0.3454 0.00108 0.0
H747 H 0.79564 0.36431 0.95286 0.0
H748 H 0.74642 0.34559 0.96547 0.0
C749 C 0.7812 0.3514 0.01671 0.0
C750 C 0.64046 0.31908 0.24982 0.0
C751 C 0.65326 0.33863 0.23328 0.0
H752 H 0.64214 0.27486 0.2668 0.0
C753 C 0.67963 0.32853 0.22198 0.0
H754 H 0.62036 0.32628 0.25901 0.0
C755 C 0.69219 0.29914 0.22649 0.0
C756 C 0.67866 0.27908 0.24236 0.0
H757 H 0.68986 0.34275 0.20889 0.0
H758 H 0.71196 0.29177 0.21699 0.0
C759 C 0.65302 0.28965 0.25433 0.0
C760 C 0.13457 0.86792 0.41132 0.0
C761 C 0.10436 0.87605 0.40632 0.0
H762 H 0.16603 0.85123 0.43593 0.0
C763 C 0.08236 0.87359 0.42347 0.0
H764 H 0.15204 0.86888 0.39848 0.0
C765 C 0.09036 0.86295 0.445 0.0
C766 C 0.12056 0.85472 0.44988 0.0
H767 H 0.05896 0.88003 0.42031 0.0
H768 H 0.07289 0.86116 0.4578 0.0
C769 C 0.14258 0.85756 0.43282 0.0
C770 C 0.16338 0.60303 0.66526 0.0
C771 C 0.13767 0.58449 0.66093 0.0
H772 H 0.18812 0.63012 0.68938 0.0
C773 C 0.11734 0.57815 0.67864 0.0
H774 H 0.17928 0.60858 0.65189 0.0
C775 C 0.12239 0.59048 0.70015 0.0
C776 C 0.14775 0.60959 0.70435 0.0
H777 H 0.0975 0.56367 0.67586 0.0
H778 H 0.10614 0.5854 0.71338 0.0
C779 C 0.16832 0.61552 0.68671 0.0
C780 C 0.37945 0.63456 0.91271 0.0
C781 C 0.40831 0.64576 0.90654 0.0
H782 H 0.34365 0.63497 0.93709 0.0
C783 C 0.42375 0.6659 0.92136 0.0
H784 H 0.36678 0.61934 0.90154 0.0
C785 C 0.41043 0.67497 0.94176 0.0
C786 C 0.38133 0.66422 0.9477 0.0
H787 H 0.44615 0.67466 0.9172 0.0
H788 H 0.42281 0.69075 0.95271 0.0
C789 C 0.3661 0.64369 0.93304 0.0
C790 C 0.39405 0.88285 0.18176 0.0
C791 C 0.37783 0.90629 0.17017 0.0
H792 H 0.396 0.8525 0.21048 0.0
C793 C 0.3517 0.91898 0.18042 0.0
H794 H 0.41472 0.87308 0.17481 0.0
C795 C 0.34151 0.90774 0.20125 0.0
C796 C 0.35688 0.88318 0.21208 0.0
H797 H 0.33832 0.93672 0.17197 0.0
H798 H 0.32082 0.9173 0.20836 0.0
C799 C 0.38348 0.87118 0.20232 0.0
C800 C 0.11503 0.61263 0.84225 0.0
C801 C 0.08703 0.62468 0.8496 0.0
H802 H 0.14959 0.61315 0.81693 0.0
C803 C 0.07146 0.64603 0.83573 0.0
H804 H 0.12776 0.59644 0.85267 0.0
C805 C 0.08398 0.65563 0.81516 0.0
C806 C 0.11248 0.64433 0.8082 0.0
H807 H 0.04973 0.65553 0.8409 0.0
H808 H 0.07172 0.67253 0.80502 0.0
C809 C 0.12765 0.62241 0.82183 0.0
C810 C 0.36949 0.62897 0.08984 0.0
C811 C 0.36997 0.59636 0.09286 0.0
H812 H 0.36045 0.6671 0.06737 0.0
C813 C 0.36228 0.5768 0.07472 0.0
H814 H 0.37517 0.64451 0.10365 0.0
C815 C 0.35436 0.58967 0.05384 0.0
C816 C 0.35334 0.62233 0.05093 0.0
H817 H 0.36259 0.55157 0.07668 0.0
H818 H 0.34847 0.57407 0.04013 0.0
C819 C 0.36096 0.64185 0.06914 0.0
C820 C 0.37052 0.86094 0.3567 0.0
C821 C 0.4001 0.87187 0.36083 0.0
H822 H 0.33927 0.84195 0.33285 0.0
C823 C 0.42144 0.87133 0.34318 0.0
H824 H 0.3537 0.86051 0.37003 0.0
C825 C 0.41319 0.86049 0.32176 0.0
C826 C 0.38348 0.84988 0.31763 0.0
H827 H 0.44435 0.8798 0.34581 0.0
H828 H 0.43003 0.86063 0.30844 0.0
C829 C 0.36231 0.8501 0.33538 0.0
C830 C 0.12417 0.86114 0.59803 0.0
C831 C 0.11285 0.89146 0.60183 0.0
H832 H 0.14301 0.82872 0.57446 0.0
C833 C 0.11172 0.91265 0.58367 0.0
H834 H 0.12584 0.8444 0.6117 0.0
C835 C 0.1218 0.9037 0.56222 0.0
C836 C 0.13328 0.8734 0.55852 0.0
H837 H 0.10286 0.93609 0.58601 0.0
H838 H 0.1207 0.92055 0.54859 0.0
C839 C 0.13422 0.85222 0.57667 0.0
C840 C 0.59786 0.37361 0.91177 0.0
C841 C 0.61529 0.37373 0.89193 0.0
H842 H 0.59586 0.36116 0.94678 0.0
C843 C 0.64426 0.35999 0.89212 0.0
H844 H 0.57548 0.38413 0.91205 0.0
C845 C 0.65578 0.34665 0.9118 0.0
C846 C 0.63871 0.34704 0.93181 0.0
H847 H 0.658 0.3594 0.87696 0.0
H848 H 0.67829 0.33642 0.91136 0.0
C849 C 0.60957 0.36058 0.93162 0.0
C850 C 0.65827 0.11833 0.16863 0.0
C851 C 0.63137 0.10114 0.16557 0.0
H852 H 0.6858 0.14506 0.19126 0.0
C853 C 0.6115 0.09735 0.18393 0.0
H854 H 0.67386 0.12197 0.15474 0.0
C855 C 0.6183 0.11062 0.20487 0.0
C856 C 0.64503 0.12813 0.20786 0.0
H857 H 0.59074 0.08397 0.18213 0.0
H858 H 0.60247 0.10733 0.21866 0.0
C859 C 0.66499 0.13174 0.18953 0.0
C860 C 0.88314 0.1238 0.41393 0.0
C861 C 0.91085 0.13685 0.40679 0.0
H862 H 0.84822 0.123 0.43897 0.0
C863 C 0.92528 0.15899 0.42068 0.0
H864 H 0.87117 0.10704 0.4035 0.0
C865 C 0.91195 0.16837 0.44099 0.0
C866 C 0.88392 0.1558 0.44784 0.0
H867 H 0.94685 0.16917 0.41582 0.0
H868 H 0.92344 0.1858 0.45115 0.0
C869 C 0.86987 0.13311 0.43423 0.0
C870 C 0.8944 0.41262 0.6807 0.0
C871 C 0.89227 0.39277 0.66186 0.0
H872 H 0.8863 0.41831 0.71611 0.0
C873 C 0.88014 0.36259 0.66468 0.0
H874 H 0.90385 0.43594 0.67907 0.0
C875 C 0.87019 0.3525 0.68579 0.0
C876 C 0.87211 0.37235 0.70464 0.0
H877 H 0.87771 0.3469 0.65044 0.0
H878 H 0.86072 0.32917 0.68725 0.0
C879 C 0.88448 0.40247 0.70192 0.0
C880 C 0.62403 0.13198 0.34805 0.0
C881 C 0.5955 0.14386 0.35442 0.0
H882 H 0.6599 0.13223 0.32372 0.0
C883 C 0.58074 0.16512 0.34001 0.0
H884 H 0.63622 0.11591 0.3589 0.0
C885 C 0.59444 0.17467 0.31987 0.0
C886 C 0.6232 0.16317 0.31372 0.0
H887 H 0.55858 0.17439 0.34429 0.0
H888 H 0.58259 0.1913 0.30926 0.0
C889 C 0.63771 0.14149 0.32793 0.0
C890 C 0.8895 0.09207 0.58036 0.0
C891 C 0.86768 0.09452 0.59759 0.0
H892 H 0.90171 0.10354 0.5464 0.0
C893 C 0.84056 0.11079 0.59322 0.0
H894 H 0.91047 0.07938 0.5831 0.0
C895 C 0.83547 0.12453 0.57217 0.0
C896 C 0.8574 0.12231 0.555 0.0
H897 H 0.82347 0.11347 0.60622 0.0
H898 H 0.81443 0.13712 0.56945 0.0
C899 C 0.8844 0.1058 0.55929 0.0
C900 C 0.92227 0.34141 0.84382 0.0
C901 C 0.90547 0.3644 0.85535 0.0
H902 H 0.92566 0.31217 0.81459 0.0
C903 C 0.87897 0.37631 0.8453 0.0
H904 H 0.94295 0.33201 0.85102 0.0
C905 C 0.86911 0.36504 0.82446 0.0
C906 C 0.88553 0.34159 0.81314 0.0
H907 H 0.86526 0.39371 0.85386 0.0
H908 H 0.84829 0.37437 0.81742 0.0
C909 C 0.91243 0.33017 0.8229 0.0
C910 C 0.60878 0.38722 0.08482 0.0
C911 C 0.62655 0.40889 0.09685 0.0
H912 H 0.60432 0.35895 0.05525 0.0
C913 C 0.65324 0.42048 0.08677 0.0
H914 H 0.58769 0.37838 0.09176 0.0
C915 C 0.66245 0.40976 0.06555 0.0
C916 C 0.64536 0.38697 0.05412 0.0
H917 H 0.66766 0.43694 0.0956 0.0
H918 H 0.68353 0.41844 0.0585 0.0
C919 C 0.6182 0.37619 0.06381 0.0
loop_
_geom_bond_atom_site_label_1
_geom_bond_atom_site_label_2
_geom_bond_distance
_geom_bond_site_symmetry_2
_ccdc_geom_bond_type
H0 C27 0.929 . S
N1 C26 1.433 . S
N1 C32 1.435 . S
N1 C38 1.423 . S
H2 C28 0.930 . S
H3 C31 0.931 . S
H4 C30 0.929 . S
H5 C33 0.930 . S
H6 C34 0.932 . S
H7 C37 0.929 . S
H8 C36 0.931 . S
H9 C39 0.929 . S
H10 C43 0.932 . S
H11 C40 0.931 . S
H12 C42 0.929 . S
H13 C45 0.929 . S
H14 C46 0.930 . S
H15 C48 0.929 . S
H16 C49 0.931 . S
H17 C51 0.930 . S
H18 C52 0.932 . S
H19 C54 0.931 . S
H20 C55 0.929 . S
H21 C57 0.929 . S
H22 C58 0.931 1_455 S
H23 C60 0.929 . S
N24 C44 1.433 . S
N24 C50 1.435 . S
N24 C56 1.423 . S
H25 C61 0.932 . S
C26 N1 1.433 . S
C26 C27 1.363 . S
C26 C31 1.370 . S
C27 H0 0.929 . S
C27 C26 1.363 . S
C27 C28 1.385 . S
C28 H2 0.930 . S
C28 C27 1.385 . S
C28 C29 1.357 . S
C29 C28 1.357 . S
C29 C30 1.406 . S
C30 H4 0.929 . S
C30 C29 1.406 . S
C30 C31 1.391 . S
C31 H3 0.931 . S
C31 C26 1.370 . S
C31 C30 1.391 . S
C32 N1 1.435 . S
C32 C33 1.358 . S
C32 C37 1.371 . S
C33 H5 0.930 . S
C33 C32 1.358 . S
C33 C34 1.405 . S
C34 H6 0.932 . S
C34 C33 1.405 . S
C34 C35 1.383 . S
C35 C34 1.383 . S
C35 C36 1.393 . S
C36 H8 0.931 . S
C36 C35 1.393 . S
C36 C37 1.382 . S
C37 H7 0.929 . S
C37 C32 1.371 . S
C37 C36 1.382 . S
C38 N1 1.423 . S
C38 C39 1.362 . S
C38 C43 1.388 . S
C39 H9 0.929 . S
C39 C38 1.362 . S
C39 C40 1.376 1_565 S
C40 H11 0.931 . S
C40 C39 1.376 1_545 S
C40 C41 1.396 . S
C41 C40 1.396 . S
C41 C42 1.348 1_545 S
C41 C59 1.466 1_455 S
C42 H12 0.929 . S
C42 C41 1.348 1_565 S
C42 C43 1.443 . S
C43 H10 0.932 . S
C43 C38 1.388 . S
C43 C42 1.443 . S
C44 N24 1.433 . S
C44 C45 1.363 . S
C44 C49 1.370 . S
C45 H13 0.929 . S
C45 C44 1.363 . S
C45 C46 1.385 . S
C46 H14 0.930 . S
C46 C45 1.385 . S
C46 C47 1.357 . S
C47 C46 1.357 . S
C47 C48 1.406 . S
C48 H15 0.929 . S
C48 C47 1.406 . S
C48 C49 1.391 . S
C49 H16 0.931 . S
C49 C44 1.370 . S
C49 C48 1.391 . S
C50 N24 1.435 . S
C50 C51 1.358 . S
C50 C55 1.371 . S
C51 H17 0.930 . S
C51 C50 1.358 . S
C51 C52 1.405 . S
C52 H18 0.932 . S
C52 C51 1.405 . S
C52 C53 1.383 . S
C53 C52 1.383 . S
C53 C54 1.393 . S
C54 H19 0.931 . S
C54 C53 1.393 . S
C54 C55 1.382 . S
C55 H20 0.929 . S
C55 C50 1.371 . S
C55 C54 1.382 . S
C56 N24 1.423 . S
C56 C57 1.362 . S
C56 C61 1.388 . S
C57 H21 0.929 . S
C57 C56 1.362 . S
C57 C58 1.376 . S
C58 H22 0.931 1_655 S
C58 C57 1.376 . S
C58 C59 1.397 . S
C59 C41 1.466 1_655 S
C59 C58 1.397 . S
C59 C60 1.353 . S
C60 H23 0.929 . S
C60 C59 1.353 . S
C60 C61 1.443 . S
C61 H25 0.932 . S
C61 C56 1.388 . S
C61 C60 1.443 . S
H62 C89 0.929 . S
N63 C88 1.433 . S
N63 C94 1.435 . S
N63 C100 1.423 . S
H64 C90 0.930 . S
H65 C93 0.931 . S
H66 C92 0.929 . S
H67 C95 0.930 . S
H68 C96 0.932 . S
H69 C99 0.929 . S
H70 C98 0.931 . S
H71 C101 0.929 . S
H72 C105 0.932 . S
H73 C102 0.931 . S
H74 C104 0.929 . S
H75 C107 0.929 . S
H76 C108 0.930 . S
H77 C110 0.929 . S
H78 C111 0.931 . S
H79 C113 0.930 . S
H80 C114 0.932 . S
H81 C116 0.931 . S
H82 C117 0.929 . S
H83 C119 0.929 . S
H84 C120 0.931 . S
H85 C122 0.929 . S
N86 C106 1.433 . S
N86 C112 1.435 . S
N86 C118 1.423 . S
H87 C123 0.932 . S
C88 N63 1.433 . S
C88 C89 1.363 . S
C88 C93 1.370 . S
C89 H62 0.929 . S
C89 C88 1.363 . S
C89 C90 1.385 . S
C90 H64 0.930 . S
C90 C89 1.385 . S
C90 C91 1.357 . S
C91 C90 1.357 . S
C91 C92 1.406 . S
C92 H66 0.929 . S
C92 C91 1.406 . S
C92 C93 1.391 . S
C93 H65 0.931 . S
C93 C88 1.370 . S
C93 C92 1.391 . S
C94 N63 1.435 . S
C94 C95 1.358 . S
C94 C99 1.371 . S
C95 H67 0.930 . S
C95 C94 1.358 . S
C95 C96 1.405 . S
C96 H68 0.932 . S
C96 C95 1.405 . S
C96 C97 1.383 . S
C97 C96 1.383 . S
C97 C98 1.393 . S
C98 H70 0.931 . S
C98 C97 1.393 . S
C98 C99 1.382 . S
C99 H69 0.929 . S
C99 C94 1.371 . S
C99 C98 1.382 . S
C100 N63 1.423 . S
C100 C101 1.362 . S
C100 C105 1.388 . S
C101 H71 0.929 . S
C101 C100 1.362 . S
C101 C102 1.376 1_655 S
C102 H73 0.931 . S
C102 C101 1.376 1_455 S
C102 C103 1.396 . S
C103 C102 1.396 . S
C103 C104 1.348 1_455 S
C103 C121 1.472 . S
C104 H74 0.929 . S
C104 C103 1.348 1_655 S
C104 C105 1.443 . S
C105 H72 0.932 . S
C105 C100 1.388 . S
C105 C104 1.443 . S
C106 N86 1.433 . S
C106 C107 1.363 . S
C106 C111 1.370 . S
C107 H75 0.929 . S
C107 C106 1.363 . S
C107 C108 1.385 . S
C108 H76 0.930 . S
C108 C107 1.385 . S
C108 C109 1.357 . S
C109 C108 1.357 . S
C109 C110 1.406 . S
C110 H77 0.929 . S
C110 C109 1.406 . S
C110 C111 1.391 . S
C111 H78 0.931 . S
C111 C106 1.370 . S
C111 C110 1.391 . S
C112 N86 1.435 . S
C112 C113 1.358 . S
C112 C117 1.371 . S
C113 H79 0.930 . S
C113 C112 1.358 . S
C113 C114 1.405 . S
C114 H80 0.932 . S
C114 C113 1.405 . S
C114 C115 1.383 . S
C115 C114 1.383 . S
C115 C116 1.393 . S
C116 H81 0.931 . S
C116 C115 1.393 . S
C116 C117 1.382 . S
C117 H82 0.929 . S
C117 C112 1.371 . S
C117 C116 1.382 . S
C118 N86 1.423 . S
C118 C119 1.362 . S
C118 C123 1.388 . S
C119 H83 0.929 . S
C119 C118 1.362 . S
C119 C120 1.376 . S
C120 H84 0.931 . S
C120 C119 1.376 . S
C120 C121 1.396 . S
C121 C103 1.472 . S
C121 C120 1.396 . S
C121 C122 1.348 . S
C122 H85 0.929 . S
C122 C121 1.348 . S
C122 C123 1.443 . S
C123 H87 0.932 . S
C123 C118 1.388 . S
C123 C122 1.443 . S
H124 C151 0.929 . S
N125 C150 1.433 . S
N125 C156 1.435 . S
N125 C162 1.423 . S
H126 C152 0.930 . S
H127 C155 0.931 . S
H128 C154 0.929 . S
H129 C157 0.930 . S
H130 C158 0.932 . S
H131 C161 0.929 . S
H132 C160 0.931 . S
H133 C163 0.929 . S
H134 C167 0.932 . S
H135 C164 0.931 . S
H136 C166 0.929 . S
H137 C169 0.929 . S
H138 C170 0.930 . S
H139 C172 0.929 . S
H140 C173 0.931 . S
H141 C175 0.930 . S
H142 C176 0.932 . S
H143 C178 0.931 . S
H144 C179 0.929 . S
H145 C181 0.929 . S
H146 C182 0.931 . S
H147 C184 0.929 . S
N148 C168 1.433 . S
N148 C174 1.435 . S
N148 C180 1.423 . S
H149 C185 0.932 . S
C150 N125 1.433 . S
C150 C151 1.363 . S
C150 C155 1.370 . S
C151 H124 0.929 . S
C151 C150 1.363 . S
C151 C152 1.385 . S
C152 H126 0.930 . S
C152 C151 1.385 . S
C152 C153 1.357 . S
C153 C152 1.357 . S
C153 C154 1.406 . S
C154 H128 0.929 . S
C154 C153 1.406 . S
C154 C155 1.391 . S
C155 H127 0.931 . S
C155 C150 1.370 . S
C155 C154 1.391 . S
C156 N125 1.435 . S
C156 C157 1.358 . S
C156 C161 1.371 . S
C157 H129 0.930 . S
C157 C156 1.358 . S
C157 C158 1.405 . S
C158 H130 0.932 . S
C158 C157 1.405 . S
C158 C159 1.383 . S
C159 C158 1.383 . S
C159 C160 1.393 . S
C160 H132 0.931 . S
C160 C159 1.393 . S
C160 C161 1.382 . S
C161 H131 0.929 . S
C161 C156 1.371 . S
C161 C160 1.382 . S
C162 N125 1.423 . S
C162 C163 1.362 . S
C162 C167 1.388 . S
C163 H133 0.929 . S
C163 C162 1.362 . S
C163 C164 1.376 . S
C164 H135 0.931 . S
C164 C163 1.376 . S
C164 C165 1.396 . S
C165 C164 1.396 . S
C165 C166 1.348 . S
C165 C183 1.472 . S
C166 H136 0.929 . S
C166 C165 1.348 . S
C166 C167 1.443 . S
C167 H134 0.932 . S
C167 C162 1.388 . S
C167 C166 1.443 . S
C168 N148 1.433 . S
C168 C169 1.363 . S
C168 C173 1.370 . S
C169 H137 0.929 . S
C169 C168 1.363 . S
C169 C170 1.385 . S
C170 H138 0.930 . S
C170 C169 1.385 . S
C170 C171 1.357 . S
C171 C170 1.357 . S
C171 C172 1.406 . S
C172 H139 0.929 . S
C172 C171 1.406 . S
C172 C173 1.391 . S
C173 H140 0.931 . S
C173 C168 1.370 . S
C173 C172 1.391 . S
C174 N148 1.435 . S
C174 C175 1.358 . S
C174 C179 1.371 . S
C175 H141 0.930 . S
C175 C174 1.358 . S
C175 C176 1.405 . S
C176 H142 0.932 . S
C176 C175 1.405 . S
C176 C177 1.383 . S
C177 C176 1.383 . S
C177 C178 1.393 . S
C178 H143 0.931 . S
C178 C177 1.393 . S
C178 C179 1.382 . S
C179 H144 0.929 . S
C179 C174 1.371 . S
C179 C178 1.382 . S
C180 N148 1.423 . S
C180 C181 1.362 . S
C180 C185 1.388 . S
C181 H145 0.929 . S
C181 C180 1.362 . S
C181 C182 1.376 . S
C182 H146 0.931 . S
C182 C181 1.376 . S
C182 C183 1.396 . S
C183 C165 1.472 . S
C183 C182 1.396 . S
C183 C184 1.348 . S
C184 H147 0.929 . S
C184 C183 1.348 . S
C184 C185 1.443 . S
C185 H149 0.932 . S
C185 C180 1.388 . S
C185 C184 1.443 . S
H186 C213 0.929 . S
N187 C212 1.433 . S
N187 C218 1.435 . S
N187 C224 1.423 . S
H188 C214 0.930 . S
H189 C217 0.931 . S
H190 C216 0.929 . S
H191 C219 0.930 . S
H192 C220 0.932 . S
H193 C223 0.929 . S
H194 C222 0.931 1_556 S
H195 C225 0.929 . S
H196 C229 0.932 . S
H197 C226 0.931 . S
H198 C228 0.929 . S
H199 C231 0.929 . S
H200 C232 0.930 . S
H201 C234 0.929 . S
H202 C235 0.931 . S
H203 C237 0.930 . S
H204 C238 0.932 . S
H205 C240 0.931 1_556 S
H206 C241 0.929 . S
H207 C243 0.929 . S
H208 C244 0.931 1_565 S
H209 C246 0.929 . S
N210 C230 1.433 . S
N210 C236 1.435 . S
N210 C242 1.423 . S
H211 C247 0.932 . S
C212 N187 1.433 . S
C212 C213 1.363 . S
C212 C217 1.370 . S
C213 H186 0.929 . S
C213 C212 1.363 . S
C213 C214 1.385 . S
C214 H188 0.930 . S
C214 C213 1.385 . S
C214 C215 1.357 . S
C215 C214 1.357 . S
C215 C216 1.406 . S
C216 H190 0.929 . S
C216 C215 1.406 . S
C216 C217 1.391 . S
C217 H189 0.931 . S
C217 C212 1.370 . S
C217 C216 1.391 . S
C218 N187 1.435 . S
C218 C219 1.358 . S
C218 C223 1.371 . S
C219 H191 0.930 . S
C219 C218 1.358 . S
C219 C220 1.405 . S
C220 H192 0.932 . S
C220 C219 1.405 . S
C220 C221 1.383 . S
C221 C220 1.383 . S
C221 C222 1.393 . S
C222 H194 0.931 1_554 S
C222 C221 1.393 . S
C222 C223 1.382 . S
C223 H193 0.929 . S
C223 C218 1.371 . S
C223 C222 1.382 . S
C224 N187 1.423 . S
C224 C225 1.362 . S
C224 C229 1.388 . S
C225 H195 0.929 . S
C225 C224 1.362 . S
C225 C226 1.376 . S
C226 H197 0.931 . S
C226 C225 1.376 . S
C226 C227 1.396 . S
C227 C226 1.396 . S
C227 C228 1.348 . S
C227 C245 1.486 . S
C228 H198 0.929 . S
C228 C227 1.348 . S
C228 C229 1.443 . S
C229 H196 0.932 . S
C229 C224 1.388 . S
C229 C228 1.443 . S
C230 N210 1.433 . S
C230 C231 1.363 . S
C230 C235 1.370 . S
C231 H199 0.929 . S
C231 C230 1.363 . S
C231 C232 1.385 . S
C232 H200 0.930 . S
C232 C231 1.385 . S
C232 C233 1.357 . S
C233 C232 1.357 . S
C233 C234 1.406 . S
C234 H201 0.929 . S
C234 C233 1.406 . S
C234 C235 1.391 . S
C235 H202 0.931 . S
C235 C230 1.370 . S
C235 C234 1.391 . S
C236 N210 1.435 . S
C236 C237 1.358 . S
C236 C241 1.371 . S
C237 H203 0.930 . S
C237 C236 1.358 . S
C237 C238 1.405 . S
C238 H204 0.932 . S
C238 C237 1.405 . S
C238 C239 1.383 . S
C239 C238 1.383 . S
C239 C240 1.393 . S
C240 H205 0.931 1_554 S
C240 C239 1.393 . S
C240 C241 1.382 . S
C241 H206 0.929 . S
C241 C236 1.371 . S
C241 C240 1.382 . S
C242 N210 1.423 . S
C242 C243 1.362 . S
C242 C247 1.388 . S
C243 H207 0.929 . S
C243 C242 1.362 . S
C243 C244 1.376 . S
C244 H208 0.931 1_545 S
C244 C243 1.376 . S
C244 C245 1.394 1_545 S
C245 C227 1.486 . S
C245 C244 1.394 1_565 S
C245 C246 1.335 1_565 S
C246 H209 0.929 . S
C246 C245 1.335 1_545 S
C246 C247 1.443 . S
C247 H211 0.932 . S
C247 C242 1.388 . S
C247 C246 1.443 . S
H248 C275 0.929 . S
N249 C274 1.433 . S
N249 C280 1.435 . S
N249 C286 1.423 . S
H250 C276 0.930 . S
H251 C279 0.931 . S
H252 C278 0.929 . S
H253 C281 0.930 . S
H254 C282 0.932 . S
H255 C285 0.929 . S
H256 C284 0.931 1_554 S
H257 C287 0.929 . S
H258 C291 0.932 . S
H259 C288 0.931 . S
H260 C290 0.929 . S
H261 C293 0.929 . S
H262 C294 0.930 . S
H263 C296 0.929 . S
H264 C297 0.931 . S
H265 C299 0.930 . S
H266 C300 0.932 . S
H267 C302 0.931 1_554 S
H268 C303 0.929 . S
H269 C305 0.929 . S
H270 C306 0.931 1_455 S
H271 C308 0.929 . S
N272 C292 1.433 . S
N272 C298 1.435 . S
N272 C304 1.423 . S
H273 C309 0.932 . S
C274 N249 1.433 . S
C274 C275 1.363 . S
C274 C279 1.370 . S
C275 H248 0.929 . S
C275 C274 1.363 . S
C275 C276 1.385 . S
C276 H250 0.930 . S
C276 C275 1.385 . S
C276 C277 1.357 . S
C277 C276 1.357 . S
C277 C278 1.406 . S
C278 H252 0.929 . S
C278 C277 1.406 . S
C278 C279 1.391 . S
C279 H251 0.931 . S
C279 C274 1.370 . S
C279 C278 1.391 . S
C280 N249 1.435 . S
C280 C281 1.358 . S
C280 C285 1.371 . S
C281 H253 0.930 . S
C281 C280 1.358 . S
C281 C282 1.405 . S
C282 H254 0.932 . S
C282 C281 1.405 . S
C282 C283 1.383 . S
C283 C282 1.383 . S
C283 C284 1.393 . S
C284 H256 0.931 1_556 S
C284 C283 1.393 . S
C284 C285 1.382 . S
C285 H255 0.929 . S
C285 C280 1.371 . S
C285 C284 1.382 . S
C286 N249 1.423 . S
C286 C287 1.362 . S
C286 C291 1.388 . S
C287 H257 0.929 . S
C287 C286 1.362 . S
C287 C288 1.376 . S
C288 H259 0.931 . S
C288 C287 1.376 . S
C288 C289 1.396 . S
C289 C288 1.396 . S
C289 C290 1.348 . S
C289 C307 1.466 1_455 S
C290 H260 0.929 . S
C290 C289 1.348 . S
C290 C291 1.443 . S
C291 H258 0.932 . S
C291 C286 1.388 . S
C291 C290 1.443 . S
C292 N272 1.433 . S
C292 C293 1.363 . S
C292 C297 1.370 . S
C293 H261 0.929 . S
C293 C292 1.363 . S
C293 C294 1.385 . S
C294 H262 0.930 . S
C294 C293 1.385 . S
C294 C295 1.357 . S
C295 C294 1.357 . S
C295 C296 1.406 . S
C296 H263 0.929 . S
C296 C295 1.406 . S
C296 C297 1.391 . S
C297 H264 0.931 . S
C297 C292 1.370 . S
C297 C296 1.391 . S
C298 N272 1.435 . S
C298 C299 1.358 . S
C298 C303 1.371 . S
C299 H265 0.930 . S
C299 C298 1.358 . S
C299 C300 1.405 . S
C300 H266 0.932 . S
C300 C299 1.405 . S
C300 C301 1.383 . S
C301 C300 1.383 . S
C301 C302 1.393 . S
C302 H267 0.931 1_556 S
C302 C301 1.393 . S
C302 C303 1.382 . S
C303 H268 0.929 . S
C303 C298 1.371 . S
C303 C302 1.382 . S
C304 N272 1.423 . S
C304 C305 1.362 . S
C304 C309 1.388 . S
C305 H269 0.929 . S
C305 C304 1.362 . S
C305 C306 1.376 . S
C306 H270 0.931 1_655 S
C306 C305 1.376 . S
C306 C307 1.397 . S
C307 C289 1.466 1_655 S
C307 C306 1.397 . S
C307 C308 1.353 . S
C308 H271 0.929 . S
C308 C307 1.353 . S
C308 C309 1.443 . S
C309 H273 0.932 . S
C309 C304 1.388 . S
C309 C308 1.443 . S
H310 C337 0.929 . S
N311 C336 1.433 . S
N311 C342 1.435 . S
N311 C348 1.423 . S
H312 C338 0.930 . S
H313 C341 0.931 . S
H314 C340 0.929 . S
H315 C343 0.930 . S
H316 C344 0.932 . S
H317 C347 0.929 . S
H318 C346 0.931 . S
H319 C349 0.929 . S
H320 C353 0.932 . S
H321 C350 0.931 . S
H322 C352 0.929 . S
H323 C355 0.929 . S
H324 C356 0.930 . S
H325 C358 0.929 . S
H326 C359 0.931 . S
H327 C361 0.930 . S
H328 C362 0.932 . S
H329 C364 0.931 . S
H330 C365 0.929 . S
H331 C367 0.929 . S
H332 C368 0.931 . S
H333 C370 0.929 . S
N334 C354 1.433 . S
N334 C360 1.435 . S
N334 C366 1.423 . S
H335 C371 0.932 . S
C336 N311 1.433 . S
C336 C337 1.363 . S
C336 C341 1.370 . S
C337 H310 0.929 . S
C337 C336 1.363 . S
C337 C338 1.385 . S
C338 H312 0.930 . S
C338 C337 1.385 . S
C338 C339 1.357 . S
C339 C338 1.357 . S
C339 C340 1.406 . S
C340 H314 0.929 . S
C340 C339 1.406 . S
C340 C341 1.391 . S
C341 H313 0.931 . S
C341 C336 1.370 . S
C341 C340 1.391 . S
C342 N311 1.435 . S
C342 C343 1.358 . S
C342 C347 1.371 . S
C343 H315 0.930 . S
C343 C342 1.358 . S
C343 C344 1.405 . S
C344 H316 0.932 . S
C344 C343 1.405 . S
C344 C345 1.383 . S
C345 C344 1.383 . S
C345 C346 1.393 . S
C346 H318 0.931 . S
C346 C345 1.393 . S
C346 C347 1.382 . S
C347 H317 0.929 . S
C347 C342 1.371 . S
C347 C346 1.382 . S
C348 N311 1.423 . S
C348 C349 1.362 . S
C348 C353 1.388 . S
C349 H319 0.929 . S
C349 C348 1.362 . S
C349 C350 1.376 . S
C350 H321 0.931 . S
C350 C349 1.376 . S
C350 C351 1.396 . S
C351 C350 1.396 . S
C351 C352 1.348 . S
C351 C369 1.472 . S
C352 H322 0.929 . S
C352 C351 1.348 . S
C352 C353 1.443 . S
C353 H320 0.932 . S
C353 C348 1.388 . S
C353 C352 1.443 . S
C354 N334 1.433 . S
C354 C355 1.363 . S
C354 C359 1.370 . S
C355 H323 0.929 . S
C355 C354 1.363 . S
C355 C356 1.385 . S
C356 H324 0.930 . S
C356 C355 1.385 . S
C356 C357 1.357 . S
C357 C356 1.357 . S
C357 C358 1.406 . S
C358 H325 0.929 . S
C358 C357 1.406 . S
C358 C359 1.391 . S
C359 H326 0.931 . S
C359 C354 1.370 . S
C359 C358 1.391 . S
C360 N334 1.435 . S
C360 C361 1.358 . S
C360 C365 1.371 . S
C361 H327 0.930 . S
C361 C360 1.358 . S
C361 C362 1.405 . S
C362 H328 0.932 . S
C362 C361 1.405 . S
C362 C363 1.383 . S
C363 C362 1.383 . S
C363 C364 1.393 . S
C364 H329 0.931 . S
C364 C363 1.393 . S
C364 C365 1.382 . S
C365 H330 0.929 . S
C365 C360 1.371 . S
C365 C364 1.382 . S
C366 N334 1.423 . S
C366 C367 1.362 . S
C366 C371 1.388 . S
C367 H331 0.929 . S
C367 C366 1.362 . S
C367 C368 1.376 . S
C368 H332 0.931 . S
C368 C367 1.376 . S
C368 C369 1.396 . S
C369 C351 1.472 . S
C369 C368 1.396 . S
C369 C370 1.348 . S
C370 H333 0.929 . S
C370 C369 1.348 . S
C370 C371 1.443 . S
C371 H335 0.932 . S
C371 C366 1.388 . S
C371 C370 1.443 . S
H372 C399 0.929 . S
N373 C398 1.433 . S
N373 C404 1.435 . S
N373 C410 1.423 . S
H374 C400 0.930 . S
H375 C403 0.931 . S
H376 C402 0.929 . S
H377 C405 0.930 . S
H378 C406 0.932 . S
H379 C409 0.929 . S
H380 C408 0.931 . S
H381 C411 0.929 . S
H382 C415 0.932 . S
H383 C412 0.931 . S
H384 C414 0.929 . S
H385 C417 0.929 . S
H386 C418 0.930 . S
H387 C420 0.929 . S
H388 C421 0.931 . S
H389 C423 0.930 . S
H390 C424 0.932 . S
H391 C426 0.931 . S
H392 C427 0.929 . S
H393 C429 0.929 . S
H394 C430 0.931 . S
H395 C432 0.929 . S
N396 C416 1.433 . S
N396 C422 1.435 . S
N396 C428 1.423 . S
H397 C433 0.932 . S
C398 N373 1.433 . S
C398 C399 1.363 . S
C398 C403 1.370 . S
C399 H372 0.929 . S
C399 C398 1.363 . S
C399 C400 1.385 . S
C400 H374 0.930 . S
C400 C399 1.385 . S
C400 C401 1.357 . S
C401 C400 1.357 . S
C401 C402 1.406 . S
C402 H376 0.929 . S
C402 C401 1.406 . S
C402 C403 1.391 . S
C403 H375 0.931 . S
C403 C398 1.370 . S
C403 C402 1.391 . S
C404 N373 1.435 . S
C404 C405 1.358 . S
C404 C409 1.371 . S
C405 H377 0.930 . S
C405 C404 1.358 . S
C405 C406 1.405 . S
C406 H378 0.932 . S
C406 C405 1.405 . S
C406 C407 1.383 . S
C407 C406 1.383 . S
C407 C408 1.393 . S
C408 H380 0.931 . S
C408 C407 1.393 . S
C408 C409 1.382 . S
C409 H379 0.929 . S
C409 C404 1.371 . S
C409 C408 1.382 . S
C410 N373 1.423 . S
C410 C411 1.362 . S
C410 C415 1.388 . S
C411 H381 0.929 . S
C411 C410 1.362 . S
C411 C412 1.376 1_565 S
C412 H383 0.931 . S
C412 C411 1.376 1_545 S
C412 C413 1.396 . S
C413 C412 1.396 . S
C413 C414 1.348 1_545 S
C413 C431 1.472 . S
C414 H384 0.929 . S
C414 C413 1.348 1_565 S
C414 C415 1.443 . S
C415 H382 0.932 . S
C415 C410 1.388 . S
C415 C414 1.443 . S
C416 N396 1.433 . S
C416 C417 1.363 . S
C416 C421 1.370 . S
C417 H385 0.929 . S
C417 C416 1.363 . S
C417 C418 1.385 . S
C418 H386 0.930 . S
C418 C417 1.385 . S
C418 C419 1.357 . S
C419 C418 1.357 . S
C419 C420 1.406 . S
C420 H387 0.929 . S
C420 C419 1.406 . S
C420 C421 1.391 . S
C421 H388 0.931 . S
C421 C416 1.370 . S
C421 C420 1.391 . S
C422 N396 1.435 . S
C422 C423 1.358 . S
C422 C427 1.371 . S
C423 H389 0.930 . S
C423 C422 1.358 . S
C423 C424 1.405 . S
C424 H390 0.932 . S
C424 C423 1.405 . S
C424 C425 1.383 . S
C425 C424 1.383 . S
C425 C426 1.393 . S
C426 H391 0.931 . S
C426 C425 1.393 . S
C426 C427 1.382 . S
C427 H392 0.929 . S
C427 C422 1.371 . S
C427 C426 1.382 . S
C428 N396 1.423 . S
C428 C429 1.362 . S
C428 C433 1.388 . S
C429 H393 0.929 . S
C429 C428 1.362 . S
C429 C430 1.376 . S
C430 H394 0.931 . S
C430 C429 1.376 . S
C430 C431 1.396 . S
C431 C413 1.472 . S
C431 C430 1.396 . S
C431 C432 1.348 . S
C432 H395 0.929 . S
C432 C431 1.348 . S
C432 C433 1.443 . S
C433 H397 0.932 . S
C433 C428 1.388 . S
C433 C432 1.443 . S
H434 C461 0.929 . S
N435 C460 1.433 . S
N435 C466 1.435 . S
N435 C472 1.423 . S
H436 C462 0.930 . S
H437 C465 0.931 . S
H438 C464 0.929 . S
H439 C467 0.930 . S
H440 C468 0.932 . S
H441 C471 0.929 . S
H442 C470 0.931 . S
H443 C473 0.929 . S
H444 C477 0.932 . S
H445 C474 0.931 . S
H446 C476 0.929 . S
H447 C479 0.929 . S
H448 C480 0.930 . S
H449 C482 0.929 . S
H450 C483 0.931 . S
H451 C485 0.930 . S
H452 C486 0.932 . S
H453 C488 0.931 . S
H454 C489 0.929 . S
H455 C491 0.929 . S
H456 C492 0.931 1_565 S
H457 C494 0.929 . S
N458 C478 1.433 . S
N458 C484 1.435 . S
N458 C490 1.423 . S
H459 C495 0.932 . S
C460 N435 1.433 . S
C460 C461 1.363 . S
C460 C465 1.370 . S
C461 H434 0.929 . S
C461 C460 1.363 . S
C461 C462 1.385 . S
C462 H436 0.930 . S
C462 C461 1.385 . S
C462 C463 1.357 . S
C463 C462 1.357 . S
C463 C464 1.406 . S
C464 H438 0.929 . S
C464 C463 1.406 . S
C464 C465 1.391 . S
C465 H437 0.931 . S
C465 C460 1.370 . S
C465 C464 1.391 . S
C466 N435 1.435 . S
C466 C467 1.358 . S
C466 C471 1.371 . S
C467 H439 0.930 . S
C467 C466 1.358 . S
C467 C468 1.405 . S
C468 H440 0.932 . S
C468 C467 1.405 . S
C468 C469 1.383 . S
C469 C468 1.383 . S
C469 C470 1.393 . S
C470 H442 0.931 . S
C470 C469 1.393 . S
C470 C471 1.382 . S
C471 H441 0.929 . S
C471 C466 1.371 . S
C471 C470 1.382 . S
C472 N435 1.423 . S
C472 C473 1.362 . S
C472 C477 1.388 . S
C473 H443 0.929 . S
C473 C472 1.362 . S
C473 C474 1.376 1_455 S
C474 H445 0.931 . S
C474 C473 1.376 1_655 S
C474 C475 1.396 . S
C475 C474 1.396 . S
C475 C476 1.348 1_655 S
C475 C493 1.486 . S
C476 H446 0.929 . S
C476 C475 1.348 1_455 S
C476 C477 1.443 . S
C477 H444 0.932 . S
C477 C472 1.388 . S
C477 C476 1.443 . S
C478 N458 1.433 . S
C478 C479 1.363 . S
C478 C483 1.370 . S
C479 H447 0.929 . S
C479 C478 1.363 . S
C479 C480 1.385 . S
C480 H448 0.930 . S
C480 C479 1.385 . S
C480 C481 1.357 . S
C481 C480 1.357 . S
C481 C482 1.406 . S
C482 H449 0.929 . S
C482 C481 1.406 . S
C482 C483 1.391 . S
C483 H450 0.931 . S
C483 C478 1.370 . S
C483 C482 1.391 . S
C484 N458 1.435 . S
C484 C485 1.358 . S
C484 C489 1.371 . S
C485 H451 0.930 . S
C485 C484 1.358 . S
C485 C486 1.405 . S
C486 H452 0.932 . S
C486 C485 1.405 . S
C486 C487 1.383 . S
C487 C486 1.383 . S
C487 C488 1.393 . S
C488 H453 0.931 . S
C488 C487 1.393 . S
C488 C489 1.382 . S
C489 H454 0.929 . S
C489 C484 1.371 . S
C489 C488 1.382 . S
C490 N458 1.423 . S
C490 C491 1.362 . S
C490 C495 1.388 . S
C491 H455 0.929 . S
C491 C490 1.362 . S
C491 C492 1.376 . S
C492 H456 0.931 1_545 S
C492 C491 1.376 . S
C492 C493 1.394 1_545 S
C493 C475 1.486 . S
C493 C492 1.394 1_565 S
C493 C494 1.335 1_565 S
C494 H457 0.929 . S
C494 C493 1.335 1_545 S
C494 C495 1.443 . S
C495 H459 0.932 . S
C495 C490 1.388 . S
C495 C494 1.443 . S
C496 O497 1.160 . S
C496 O503 1.186 . S
O497 C496 1.160 . S
O498 Zn499 1.899 . S
O498 C506 1.284 . S
Zn499 O498 1.899 . S
Zn499 O500 2.032 1_554 S
Zn499 O503 2.087 . S
Zn499 O508 1.977 . S
O500 Zn499 2.032 1_556 S
O500 C504 1.278 . S
C501 O502 1.203 . S
C501 O508 1.267 . S
O502 C501 1.203 . S
O503 C496 1.186 . S
O503 Zn499 2.087 . S
C504 O500 1.278 . S
C504 O505 1.211 . S
O505 C504 1.211 . S
C506 O498 1.284 . S
C506 O507 1.273 . S
O507 C506 1.273 . S
O508 Zn499 1.977 . S
O508 C501 1.267 . S
C509 O510 1.160 . S
C509 O516 1.185 . S
O510 C509 1.160 . S
O511 Zn512 1.899 . S
O511 C519 1.284 . S
Zn512 O511 1.899 . S
Zn512 O513 2.032 . S
Zn512 O516 2.086 . S
Zn512 O521 1.977 . S
O513 Zn512 2.032 . S
O513 C517 1.278 . S
C514 O515 1.203 . S
C514 O521 1.267 . S
O515 C514 1.203 . S
O516 C509 1.185 . S
O516 Zn512 2.086 . S
C517 O513 1.278 . S
C517 O518 1.211 . S
O518 C517 1.211 . S
C519 O511 1.284 . S
C519 O520 1.273 . S
O520 C519 1.273 . S
O521 Zn512 1.977 . S
O521 C514 1.267 . S
C522 O523 1.160 . S
C522 O529 1.185 . S
O523 C522 1.160 . S
O524 Zn525 1.899 . S
O524 C532 1.284 . S
Zn525 O524 1.899 . S
Zn525 O526 2.032 . S
Zn525 O529 2.086 . S
Zn525 O534 1.977 . S
O526 Zn525 2.032 . S
O526 C530 1.278 . S
C527 O528 1.203 . S
C527 O534 1.267 . S
O528 C527 1.203 . S
O529 C522 1.185 . S
O529 Zn525 2.086 . S
C530 O526 1.278 . S
C530 O531 1.211 . S
O531 C530 1.211 . S
C532 O524 1.284 . S
C532 O533 1.273 . S
O533 C532 1.273 . S
O534 Zn525 1.977 . S
O534 C527 1.267 . S
C535 O536 1.160 . S
C535 O542 1.185 . S
O536 C535 1.160 . S
O537 Zn538 1.899 . S
O537 C545 1.284 . S
Zn538 O537 1.899 . S
Zn538 O539 2.032 . S
Zn538 O542 2.086 . S
Zn538 O547 1.977 . S
O539 Zn538 2.032 . S
O539 C543 1.278 . S
C540 O541 1.203 . S
C540 O547 1.267 . S
O541 C540 1.203 . S
O542 C535 1.185 . S
O542 Zn538 2.086 . S
C543 O539 1.278 . S
C543 O544 1.211 . S
O544 C543 1.211 . S
C545 O537 1.284 . S
C545 O546 1.273 . S
O546 C545 1.273 . S
O547 Zn538 1.977 . S
O547 C540 1.267 . S
C548 O549 1.160 . S
C548 O555 1.185 . S
O549 C548 1.160 . S
O550 Zn551 1.899 . S
O550 C558 1.284 . S
Zn551 O550 1.899 . S
Zn551 O552 2.032 . S
Zn551 O555 2.086 . S
Zn551 O560 1.977 . S
O552 Zn551 2.032 . S
O552 C556 1.278 . S
C553 O554 1.203 . S
C553 O560 1.267 . S
O554 C553 1.203 . S
O555 C548 1.185 . S
O555 Zn551 2.086 . S
C556 O552 1.278 . S
C556 O557 1.211 . S
O557 C556 1.211 . S
C558 O550 1.284 . S
C558 O559 1.273 . S
O559 C558 1.273 . S
O560 Zn551 1.977 . S
O560 C553 1.267 . S
C561 O562 1.160 . S
C561 O568 1.185 . S
O562 C561 1.160 . S
O563 Zn564 1.899 . S
O563 C571 1.284 . S
Zn564 O563 1.899 . S
Zn564 O565 2.032 . S
Zn564 O568 2.086 . S
Zn564 O573 1.977 . S
O565 Zn564 2.032 . S
O565 C569 1.278 . S
C566 O567 1.203 . S
C566 O573 1.267 . S
O567 C566 1.203 . S
O568 C561 1.185 . S
O568 Zn564 2.086 . S
C569 O565 1.278 . S
C569 O570 1.211 . S
O570 C569 1.211 . S
C571 O563 1.284 . S
C571 O572 1.273 . S
O572 C571 1.273 . S
O573 Zn564 1.977 . S
O573 C566 1.267 . S
C574 O575 1.160 . S
C574 O581 1.186 . S
O575 C574 1.160 . S
O576 Zn577 1.899 . S
O576 C584 1.284 . S
Zn577 O576 1.899 . S
Zn577 O578 2.032 1_554 S
Zn577 O581 2.087 . S
Zn577 O586 1.977 . S
O578 Zn577 2.032 1_556 S
O578 C582 1.278 . S
C579 O580 1.203 . S
C579 O586 1.267 . S
O580 C579 1.203 . S
O581 C574 1.186 . S
O581 Zn577 2.087 . S
C582 O578 1.278 . S
C582 O583 1.211 . S
O583 C582 1.211 . S
C584 O576 1.284 . S
C584 O585 1.273 . S
O585 C584 1.273 . S
O586 Zn577 1.977 . S
O586 C579 1.267 . S
C587 O588 1.160 . S
C587 O594 1.185 . S
O588 C587 1.160 . S
O589 Zn590 1.899 . S
O589 C597 1.284 . S
Zn590 O589 1.899 . S
Zn590 O591 2.032 . S
Zn590 O594 2.086 . S
Zn590 O599 1.977 . S
O591 Zn590 2.032 . S
O591 C595 1.278 . S
C592 O593 1.203 . S
C592 O599 1.267 . S
O593 C592 1.203 . S
O594 C587 1.185 . S
O594 Zn590 2.086 . S
C595 O591 1.278 . S
C595 O596 1.211 . S
O596 C595 1.211 . S
C597 O589 1.284 . S
C597 O598 1.273 . S
O598 C597 1.273 . S
O599 Zn590 1.977 . S
O599 C592 1.267 . S
C600 C601 1.387 . S
C600 H604 0.950 . S
C600 C609 1.390 . S
C601 C600 1.387 . S
C601 C603 1.387 . S
H602 C609 0.950 . S
C603 C601 1.387 . S
C603 C605 1.390 . S
C603 H607 0.950 . S
H604 C600 0.950 . S
C605 C603 1.390 . S
C605 C606 1.387 . S
C605 H608 0.950 . S
C606 C605 1.387 . S
C606 C609 1.387 . S
H607 C603 0.950 . S
H608 C605 0.950 . S
C609 C600 1.390 . S
C609 H602 0.950 . S
C609 C606 1.387 . S
C610 C611 1.387 . S
C610 H614 0.950 . S
C610 C619 1.390 . S
C611 C610 1.387 . S
C611 C613 1.387 . S
H612 C619 0.950 . S
C613 C611 1.387 . S
C613 C615 1.390 . S
C613 H617 0.950 . S
H614 C610 0.950 . S
C615 C613 1.390 . S
C615 C616 1.387 . S
C615 H618 0.950 . S
C616 C615 1.387 . S
C616 C619 1.387 . S
H617 C613 0.950 . S
H618 C615 0.950 . S
C619 C610 1.390 . S
C619 H612 0.950 . S
C619 C616 1.387 . S
C620 C621 1.387 . S
C620 H624 0.950 . S
C620 C629 1.390 . S
C621 C620 1.387 . S
C621 C623 1.387 . S
H622 C629 0.950 . S
C623 C621 1.387 . S
C623 C625 1.390 . S
C623 H627 0.950 . S
H624 C620 0.950 . S
C625 C623 1.390 . S
C625 C626 1.387 . S
C625 H628 0.950 . S
C626 C625 1.387 . S
C626 C629 1.387 . S
H627 C623 0.950 . S
H628 C625 0.950 . S
C629 C620 1.390 . S
C629 H622 0.950 . S
C629 C626 1.387 . S
C630 C631 1.387 1_556 S
C630 H634 0.950 . S
C630 C639 1.390 . S
C631 C630 1.387 1_554 S
C631 C633 1.387 . S
H632 C639 0.950 . S
C633 C631 1.387 . S
C633 C635 1.390 . S
C633 H637 0.950 . S
H634 C630 0.950 . S
C635 C633 1.390 . S
C635 C636 1.387 . S
C635 H638 0.950 . S
C636 C635 1.387 . S
C636 C639 1.387 1_554 S
H637 C633 0.950 . S
H638 C635 0.950 . S
C639 C630 1.390 . S
C639 H632 0.950 . S
C639 C636 1.387 1_556 S
C640 C641 1.387 . S
C640 H644 0.950 . S
C640 C649 1.390 . S
C641 C640 1.387 . S
C641 C643 1.387 1_554 S
H642 C649 0.950 . S
C643 C641 1.387 1_556 S
C643 C645 1.390 . S
C643 H647 0.950 . S
H644 C640 0.950 . S
C645 C643 1.390 . S
C645 C646 1.422 . S
C645 H648 0.950 . S
C646 C645 1.422 . S
C646 C649 1.348 1_556 S
H647 C643 0.950 . S
H648 C645 0.950 . S
C649 C640 1.390 . S
C649 H642 0.950 . S
C649 C646 1.348 1_554 S
C650 C651 1.387 . S
C650 H654 0.950 . S
C650 C659 1.390 . S
C651 C650 1.387 . S
C651 C653 1.387 . S
H652 C659 0.950 . S
C653 C651 1.387 . S
C653 C655 1.390 . S
C653 H657 0.950 . S
H654 C650 0.950 . S
C655 C653 1.390 . S
C655 C656 1.387 . S
C655 H658 0.950 . S
C656 C655 1.387 . S
C656 C659 1.387 . S
H657 C653 0.950 . S
H658 C655 0.950 . S
C659 C650 1.390 . S
C659 H652 0.950 . S
C659 C656 1.387 . S
C660 C661 1.387 . S
C660 H664 0.950 . S
C660 C669 1.390 . S
C661 C660 1.387 . S
C661 C663 1.387 . S
H662 C669 0.950 . S
C663 C661 1.387 . S
C663 C665 1.390 . S
C663 H667 0.950 . S
H664 C660 0.950 . S
C665 C663 1.390 . S
C665 C666 1.387 . S
C665 H668 0.950 . S
C666 C665 1.387 . S
C666 C669 1.387 . S
H667 C663 0.950 . S
H668 C665 0.950 . S
C669 C660 1.390 . S
C669 H662 0.950 . S
C669 C666 1.387 . S
C670 C671 1.387 . S
C670 H674 0.950 . S
C670 C679 1.390 . S
C671 C670 1.387 . S
C671 C673 1.387 . S
H672 C679 0.950 . S
C673 C671 1.387 . S
C673 C675 1.390 . S
C673 H677 0.950 . S
H674 C670 0.950 . S
C675 C673 1.390 . S
C675 C676 1.387 . S
C675 H678 0.950 . S
C676 C675 1.387 . S
C676 C679 1.387 . S
H677 C673 0.950 . S
H678 C675 0.950 . S
C679 C670 1.390 . S
C679 H672 0.950 . S
C679 C676 1.387 . S
C680 C681 1.387 . S
C680 H684 0.950 . S
C680 C689 1.390 . S
C681 C680 1.387 . S
C681 C683 1.387 . S
H682 C689 0.950 . S
C683 C681 1.387 . S
C683 C685 1.390 . S
C683 H687 0.950 . S
H684 C680 0.950 . S
C685 C683 1.390 . S
C685 C686 1.387 . S
C685 H688 0.950 . S
C686 C685 1.387 . S
C686 C689 1.387 . S
H687 C683 0.950 . S
H688 C685 0.950 . S
C689 C680 1.390 . S
C689 H682 0.950 . S
C689 C686 1.387 . S
C690 C691 1.387 . S
C690 H694 0.950 . S
C690 C699 1.390 . S
C691 C690 1.387 . S
C691 C693 1.387 1_554 S
H692 C699 0.950 . S
C693 C691 1.387 1_556 S
C693 C695 1.390 . S
C693 H697 0.950 . S
H694 C690 0.950 . S
C695 C693 1.390 . S
C695 C696 1.387 1_556 S
C695 H698 0.950 . S
C696 C695 1.387 1_554 S
C696 C699 1.387 . S
H697 C693 0.950 . S
H698 C695 0.950 . S
C699 C690 1.390 . S
C699 H692 0.950 . S
C699 C696 1.387 . S
C700 C701 1.387 . S
C700 H704 0.950 . S
C700 C709 1.390 . S
C701 C700 1.387 . S
C701 C703 1.387 . S
H702 C709 0.950 . S
C703 C701 1.387 . S
C703 C705 1.390 . S
C703 H707 0.950 . S
H704 C700 0.950 . S
C705 C703 1.390 . S
C705 C706 1.387 . S
C705 H708 0.950 . S
C706 C705 1.387 . S
C706 C709 1.387 . S
H707 C703 0.950 . S
H708 C705 0.950 . S
C709 C700 1.390 . S
C709 H702 0.950 . S
C709 C706 1.387 . S
C710 C711 1.387 . S
C710 H714 0.950 . S
C710 C719 1.390 . S
C711 C710 1.387 . S
C711 C713 1.387 . S
H712 C719 0.950 . S
C713 C711 1.387 . S
C713 C715 1.390 . S
C713 H717 0.950 . S
H714 C710 0.950 . S
C715 C713 1.390 . S
C715 C716 1.387 . S
C715 H718 0.950 . S
C716 C715 1.387 . S
C716 C719 1.387 . S
H717 C713 0.950 . S
H718 C715 0.950 . S
C719 C710 1.390 . S
C719 H712 0.950 . S
C719 C716 1.387 . S
C720 C721 1.387 . S
C720 H724 0.950 . S
C720 C729 1.390 . S
C721 C720 1.387 . S
C721 C723 1.387 . S
H722 C729 0.950 . S
C723 C721 1.387 . S
C723 C725 1.390 . S
C723 H727 0.950 . S
H724 C720 0.950 . S
C725 C723 1.390 . S
C725 C726 1.387 . S
C725 H728 0.950 . S
C726 C725 1.387 . S
C726 C729 1.387 . S
H727 C723 0.950 . S
H728 C725 0.950 . S
C729 C720 1.390 . S
C729 H722 0.950 . S
C729 C726 1.387 . S
C730 C731 1.387 . S
C730 H734 0.950 . S
C730 C739 1.390 . S
C731 C730 1.387 . S
C731 C733 1.387 . S
H732 C739 0.950 . S
C733 C731 1.387 . S
C733 C735 1.390 . S
C733 H737 0.950 . S
H734 C730 0.950 . S
C735 C733 1.390 . S
C735 C736 1.387 . S
C735 H738 0.950 . S
C736 C735 1.387 . S
C736 C739 1.387 . S
H737 C733 0.950 . S
H738 C735 0.950 . S
C739 C730 1.390 . S
C739 H732 0.950 . S
C739 C736 1.387 . S
C740 C741 1.387 . S
C740 H744 0.950 . S
C740 C749 1.390 . S
C741 C740 1.387 . S
C741 C743 1.387 1_554 S
H742 C749 0.950 . S
C743 C741 1.387 1_556 S
C743 C745 1.390 . S
C743 H747 0.950 . S
H744 C740 0.950 . S
C745 C743 1.390 . S
C745 C746 1.420 . S
C745 H748 0.950 . S
C746 C745 1.420 . S
C746 C749 1.351 1_556 S
H747 C743 0.950 . S
H748 C745 0.950 . S
C749 C740 1.390 . S
C749 H742 0.950 . S
C749 C746 1.351 1_554 S
C750 C751 1.387 . S
C750 H754 0.950 . S
C750 C759 1.390 . S
C751 C750 1.387 . S
C751 C753 1.387 . S
H752 C759 0.950 . S
C753 C751 1.387 . S
C753 C755 1.390 . S
C753 H757 0.950 . S
H754 C750 0.950 . S
C755 C753 1.390 . S
C755 C756 1.387 . S
C755 H758 0.950 . S
C756 C755 1.387 . S
C756 C759 1.387 . S
H757 C753 0.950 . S
H758 C755 0.950 . S
C759 C750 1.390 . S
C759 H752 0.950 . S
C759 C756 1.387 . S
C760 C761 1.387 . S
C760 H764 0.950 . S
C760 C769 1.390 . S
C761 C760 1.387 . S
C761 C763 1.387 . S
H762 C769 0.950 . S
C763 C761 1.387 . S
C763 C765 1.390 . S
C763 H767 0.950 . S
H764 C760 0.950 . S
C765 C763 1.390 . S
C765 C766 1.387 . S
C765 H768 0.950 . S
C766 C765 1.387 . S
C766 C769 1.387 . S
H767 C763 0.950 . S
H768 C765 0.950 . S
C769 C760 1.390 . S
C769 H762 0.950 . S
C769 C766 1.387 . S
C770 C771 1.387 . S
C770 H774 0.950 . S
C770 C779 1.390 . S
C771 C770 1.387 . S
C771 C773 1.387 . S
H772 C779 0.950 . S
C773 C771 1.387 . S
C773 C775 1.390 . S
C773 H777 0.950 . S
H774 C770 0.950 . S
C775 C773 1.390 . S
C775 C776 1.387 . S
C775 H778 0.950 . S
C776 C775 1.387 . S
C776 C779 1.387 . S
H777 C773 0.950 . S
H778 C775 0.950 . S
C779 C770 1.390 . S
C779 H772 0.950 . S
C779 C776 1.387 . S
C780 C781 1.387 . S
C780 H784 0.950 . S
C780 C789 1.390 . S
C781 C780 1.387 . S
C781 C783 1.387 . S
H782 C789 0.950 . S
C783 C781 1.387 . S
C783 C785 1.390 . S
C783 H787 0.950 . S
H784 C780 0.950 . S
C785 C783 1.390 . S
C785 C786 1.387 . S
C785 H788 0.950 . S
C786 C785 1.387 . S
C786 C789 1.387 . S
H787 C783 0.950 . S
H788 C785 0.950 . S
C789 C780 1.390 . S
C789 H782 0.950 . S
C789 C786 1.387 . S
C790 C791 1.387 . S
C790 H794 0.950 . S
C790 C799 1.390 . S
C791 C790 1.387 . S
C791 C793 1.387 . S
H792 C799 0.950 . S
C793 C791 1.387 . S
C793 C795 1.390 . S
C793 H797 0.950 . S
H794 C790 0.950 . S
C795 C793 1.390 . S
C795 C796 1.387 . S
C795 H798 0.950 . S
C796 C795 1.387 . S
C796 C799 1.387 . S
H797 C793 0.950 . S
H798 C795 0.950 . S
C799 C790 1.390 . S
C799 H792 0.950 . S
C799 C796 1.387 . S
C800 C801 1.387 . S
C800 H804 0.950 . S
C800 C809 1.390 . S
C801 C800 1.387 . S
C801 C803 1.387 . S
H802 C809 0.950 . S
C803 C801 1.387 . S
C803 C805 1.390 . S
C803 H807 0.950 . S
H804 C800 0.950 . S
C805 C803 1.390 . S
C805 C806 1.387 . S
C805 H808 0.950 . S
C806 C805 1.387 . S
C806 C809 1.387 . S
H807 C803 0.950 . S
H808 C805 0.950 . S
C809 C800 1.390 . S
C809 H802 0.950 . S
C809 C806 1.387 . S
C810 C811 1.387 . S
C810 H814 0.950 . S
C810 C819 1.390 . S
C811 C810 1.387 . S
C811 C813 1.387 . S
H812 C819 0.950 . S
C813 C811 1.387 . S
C813 C815 1.390 . S
C813 H817 0.950 . S
H814 C810 0.950 . S
C815 C813 1.390 . S
C815 C816 1.387 . S
C815 H818 0.950 . S
C816 C815 1.387 . S
C816 C819 1.387 . S
H817 C813 0.950 . S
H818 C815 0.950 . S
C819 C810 1.390 . S
C819 H812 0.950 . S
C819 C816 1.387 . S
C820 C821 1.387 . S
C820 H824 0.950 . S
C820 C829 1.390 . S
C821 C820 1.387 . S
C821 C823 1.387 . S
H822 C829 0.950 . S
C823 C821 1.387 . S
C823 C825 1.390 . S
C823 H827 0.950 . S
H824 C820 0.950 . S
C825 C823 1.390 . S
C825 C826 1.387 . S
C825 H828 0.950 . S
C826 C825 1.387 . S
C826 C829 1.387 . S
H827 C823 0.950 . S
H828 C825 0.950 . S
C829 C820 1.390 . S
C829 H822 0.950 . S
C829 C826 1.387 . S
C830 C831 1.387 . S
C830 H834 0.950 . S
C830 C839 1.390 . S
C831 C830 1.387 . S
C831 C833 1.387 . S
H832 C839 0.950 . S
C833 C831 1.387 . S
C833 C835 1.390 . S
C833 H837 0.950 . S
H834 C830 0.950 . S
C835 C833 1.390 . S
C835 C836 1.387 . S
C835 H838 0.950 . S
C836 C835 1.387 . S
C836 C839 1.387 . S
H837 C833 0.950 . S
H838 C835 0.950 . S
C839 C830 1.390 . S
C839 H832 0.950 . S
C839 C836 1.387 . S
C840 C841 1.387 . S
C840 H844 0.950 . S
C840 C849 1.390 . S
C841 C840 1.387 . S
C841 C843 1.387 . S
H842 C849 0.950 . S
C843 C841 1.387 . S
C843 C845 1.390 . S
C843 H847 0.950 . S
H844 C840 0.950 . S
C845 C843 1.390 . S
C845 C846 1.387 . S
C845 H848 0.950 . S
C846 C845 1.387 . S
C846 C849 1.387 . S
H847 C843 0.950 . S
H848 C845 0.950 . S
C849 C840 1.390 . S
C849 H842 0.950 . S
C849 C846 1.387 . S
C850 C851 1.387 . S
C850 H854 0.950 . S
C850 C859 1.390 . S
C851 C850 1.387 . S
C851 C853 1.387 . S
H852 C859 0.950 . S
C853 C851 1.387 . S
C853 C855 1.390 . S
C853 H857 0.950 . S
H854 C850 0.950 . S
C855 C853 1.390 . S
C855 C856 1.387 . S
C855 H858 0.950 . S
C856 C855 1.387 . S
C856 C859 1.387 . S
H857 C853 0.950 . S
H858 C855 0.950 . S
C859 C850 1.390 . S
C859 H852 0.950 . S
C859 C856 1.387 . S
C860 C861 1.387 . S
C860 H864 0.950 . S
C860 C869 1.390 . S
C861 C860 1.387 . S
C861 C863 1.387 . S
H862 C869 0.950 . S
C863 C861 1.387 . S
C863 C865 1.390 . S
C863 H867 0.950 . S
H864 C860 0.950 . S
C865 C863 1.390 . S
C865 C866 1.387 . S
C865 H868 0.950 . S
C866 C865 1.387 . S
C866 C869 1.387 . S
H867 C863 0.950 . S
H868 C865 0.950 . S
C869 C860 1.390 . S
C869 H862 0.950 . S
C869 C866 1.387 . S
C870 C871 1.387 . S
C870 H874 0.950 . S
C870 C879 1.390 . S
C871 C870 1.387 . S
C871 C873 1.387 . S
H872 C879 0.950 . S
C873 C871 1.387 . S
C873 C875 1.390 . S
C873 H877 0.950 . S
H874 C870 0.950 . S
C875 C873 1.390 . S
C875 C876 1.387 . S
C875 H878 0.950 . S
C876 C875 1.387 . S
C876 C879 1.387 . S
H877 C873 0.950 . S
H878 C875 0.950 . S
C879 C870 1.390 . S
C879 H872 0.950 . S
C879 C876 1.387 . S
C880 C881 1.387 . S
C880 H884 0.950 . S
C880 C889 1.390 . S
C881 C880 1.387 . S
C881 C883 1.387 . S
H882 C889 0.950 . S
C883 C881 1.387 . S
C883 C885 1.390 . S
C883 H887 0.950 . S
H884 C880 0.950 . S
C885 C883 1.390 . S
C885 C886 1.387 . S
C885 H888 0.950 . S
C886 C885 1.387 . S
C886 C889 1.387 . S
H887 C883 0.950 . S
H888 C885 0.950 . S
C889 C880 1.390 . S
C889 H882 0.950 . S
C889 C886 1.387 . S
C890 C891 1.387 . S
C890 H894 0.950 . S
C890 C899 1.390 . S
C891 C890 1.387 . S
C891 C893 1.387 . S
H892 C899 0.950 . S
C893 C891 1.387 . S
C893 C895 1.390 . S
C893 H897 0.950 . S
H894 C890 0.950 . S
C895 C893 1.390 . S
C895 C896 1.387 . S
C895 H898 0.950 . S
C896 C895 1.387 . S
C896 C899 1.387 . S
H897 C893 0.950 . S
H898 C895 0.950 . S
C899 C890 1.390 . S
C899 H892 0.950 . S
C899 C896 1.387 . S
C900 C901 1.387 . S
C900 H904 0.950 . S
C900 C909 1.390 . S
C901 C900 1.387 . S
C901 C903 1.387 . S
H902 C909 0.950 . S
C903 C901 1.387 . S
C903 C905 1.390 . S
C903 H907 0.950 . S
H904 C900 0.950 . S
C905 C903 1.390 . S
C905 C906 1.387 . S
C905 H908 0.950 . S
C906 C905 1.387 . S
C906 C909 1.387 . S
H907 C903 0.950 . S
H908 C905 0.950 . S
C909 C900 1.390 . S
C909 H902 0.950 . S
C909 C906 1.387 . S
C910 C911 1.387 . S
C910 H914 0.950 . S
C910 C919 1.390 . S
C911 C910 1.387 . S
C911 C913 1.387 . S
H912 C919 0.950 . S
C913 C911 1.387 . S
C913 C915 1.390 . S
C913 H917 0.950 . S
H914 C910 0.950 . S
C915 C913 1.390 . S
C915 C916 1.387 . S
C915 H918 0.950 . S
C916 C915 1.387 . S
C916 C919 1.387 . S
H917 C913 0.950 . S
H918 C915 0.950 . S
C919 C910 1.390 . S
C919 H912 0.950 . S
C919 C916 1.387 . S
C606 C509 1.514 . S
C601 C35 1.397 . S
C616 C527 1.604 . S
C611 C115 1.421 . S
C626 C535 1.511 . S
C621 C177 1.407 . S
C631 C221 1.411 . S
C636 C501 1.609 . S
C641 C283 1.399 1_554 S
C646 C496 1.501 1_556 S
C651 C363 1.423 . S
C656 C514 1.604 . S
C666 C522 1.514 . S
C661 C407 1.400 . S
C676 C540 1.604 . S
C671 C469 1.412 . S
C681 C159 1.398 . S
C686 C561 1.514 . S
C696 C579 1.607 . S
C691 C239 1.420 . S
C701 C53 1.407 . S
C706 C587 1.514 . S
C716 C553 1.604 . S
C711 C97 1.413 . S
C721 C425 1.409 . S
C726 C548 1.513 . S
C731 C487 1.423 . S
C736 C566 1.601 . S
C746 C574 1.505 1_556 S
C741 C301 1.411 1_554 S
C751 C345 1.412 . S
C756 C592 1.605 . S
C766 C530 1.745 . S
C761 C29 1.726 . S
C776 C545 1.699 . S
C771 C109 1.671 . S
C781 C171 1.673 . S
C786 C504 1.745 . S
C791 C215 1.725 . S
C796 C519 1.701 . S
C801 C277 1.725 . S
C806 C543 1.744 . S
C816 C506 1.699 . S
C811 C357 1.673 . S
C826 C517 1.745 . S
C821 C401 1.727 . S
C836 C532 1.699 . S
C831 C463 1.724 . S
C846 C582 1.745 . S
C841 C153 1.725 . S
C856 C597 1.699 . S
C851 C233 1.672 . S
C861 C47 1.673 . S
C866 C556 1.744 . S
C876 C571 1.702 . S
C871 C91 1.729 . S
C886 C595 1.745 . S
C881 C419 1.672 . S
C891 C481 1.676 . S
C896 C558 1.702 . S
C906 C569 1.745 . S
C901 C295 1.676 . S
C916 C584 1.699 . S
C911 C339 1.725 . S
