# Generated by pormake.
# Topology rtl, (3,6)-cn, num edge types: 1
# Building blocks:
#     Node 0, Type 0, BuildingBlock: ESEHIV_clean_linker_0, # of connection points: 3
#     Node 1, Type 0, BuildingBlock: ESEHIV_clean_linker_0, # of connection points: 3
#     Node 2, Type 0, BuildingBlock: ESEHIV_clean_linker_0, # of connection points: 3
#     Node 3, Type 0, BuildingBlock: ESEHIV_clean_linker_0, # of connection points: 3
#     Node 4, Type 1, BuildingBlock: FUNLAD_clean_sbu_0, # of connection points: 6
#     Node 5, Type 1, BuildingBlock: FUNLAD_clean_sbu_0, # of connection points: 6
#     Edge 6, Type (0, 1), BuildingBlock: XIVTED_clean_linker_0, # of connection points: 2
#     Edge 7, Type (0, 1), BuildingBlock: XIVTED_clean_linker_0, # of connection points: 2
#     Edge 8, Type (0, 1), BuildingBlock: XIVTED_clean_linker_0, # of connection points: 2
#     Edge 9, Type (0, 1), BuildingBlock: XIVTED_clean_linker_0, # of connection points: 2
#     Edge 10, Type (0, 1), BuildingBlock: XIVTED_clean_linker_0, # of connection points: 2
#     Edge 11, Type (0, 1), BuildingBlock: XIVTED_clean_linker_0, # of connection points: 2
#     Edge 12, Type (0, 1), BuildingBlock: XIVTED_clean_linker_0, # of connection points: 2
#     Edge 13, Type (0, 1), BuildingBlock: XIVTED_clean_linker_0, # of connection points: 2
#     Edge 14, Type (0, 1), BuildingBlock: XIVTED_clean_linker_0, # of connection points: 2
#     Edge 15, Type (0, 1), BuildingBlock: XIVTED_clean_linker_0, # of connection points: 2
#     Edge 16, Type (0, 1), BuildingBlock: XIVTED_clean_linker_0, # of connection points: 2
#     Edge 17, Type (0, 1), BuildingBlock: XIVTED_clean_linker_0, # of connection points: 2
# Relax obj value: 0.025
# Max RMSD: 0.105
# Mean RMSD: 0.087
data_MOF--net-rtl--node1-FUNLAD_clean_sbu_0--node2-ESEHIV_clean_linker_0--edge1-XIVTED_clean_linker_0
_symmetry_space_group_name_H-M    P1
_symmetry_Int_Tables_number       1
_symmetry_cell_setting            triclinic
loop_
_symmetry_equiv_pos_as_xyz
'x, y, z'
_cell_length_a     39.386965
_cell_length_b     30.649854
_cell_length_c     22.159828
_cell_angle_alpha  89.916114
_cell_angle_beta   91.087655
_cell_angle_gamma 90.399197
loop_
_atom_site_label
_atom_site_type_symbol
_atom_site_fract_x
_atom_site_fract_y
_atom_site_fract_z
_atom_type_partial_charge
H0 H 0.05534 0.81522 0.98622 0.0
H1 H 0.13375 0.75422 0.09445 0.0
H2 H 0.13404 0.74288 0.90149 0.0
C3 C 0.07781 0.79526 -0.00976 0.0
C4 C 0.09311 0.78048 0.93743 0.0
C5 C 0.09238 0.7867 0.04754 0.0
C6 C 0.12167 0.76066 0.05111 0.0
C7 C 0.1364 0.74391 -0.00121 0.0
C8 C 0.12198 0.75408 0.94215 0.0
H9 H 0.54823 0.72917 0.50055 0.0
H10 H 0.63598 0.7781 0.4094 0.0
H11 H 0.63523 0.77505 0.60235 0.0
C12 C 0.57384 0.74209 0.50205 0.0
C13 C 0.59037 0.74797 0.55826 0.0
C14 C 0.59058 0.75023 0.44771 0.0
C15 C 0.62224 0.77165 0.45033 0.0
C16 C 0.63757 0.78264 0.50606 0.0
C17 C 0.62209 0.76936 0.55976 0.0
H18 H 0.94381 0.21649 0.98083 0.0
H19 H 0.86229 0.27198 0.08198 0.0
H20 H 0.865 0.28799 0.88969 0.0
C21 C 0.92084 0.23552 0.98295 0.0
C22 C 0.90586 0.25049 0.92889 0.0
C23 C 0.90537 0.24252 0.03888 0.0
C24 C 0.87548 0.26752 0.04004 0.0
C25 C 0.86097 0.28444 0.98655 0.0
C26 C 0.87635 0.27572 0.93125 0.0
H27 H 0.4421 0.32072 0.51412 0.0
H28 H 0.36842 0.23556 0.59433 0.0
H29 H 0.37398 0.2463 0.40078 0.0
C30 C 0.42237 0.29603 0.50952 0.0
C31 C 0.41027 0.28468 0.4518 0.0
C32 C 0.4077 0.27806 0.5612 0.0
C33 C 0.3807 0.24816 0.5545 0.0
C34 C 0.36823 0.23647 0.49678 0.0
C35 C 0.38373 0.25426 0.44554 0.0
C36 C 0.01806 0.95712 0.40454 0.0
N37 N 0.07468 0.05522 0.49133 0.0
C38 C 0.10189 0.02808 0.49335 0.0
C39 C 0.13485 0.04503 0.4916 0.0
C40 C 0.13985 0.09033 0.48743 0.0
C41 C 0.1113 0.11755 0.48573 0.0
C42 C 0.07881 0.09924 0.48783 0.0
Zn43 Zn 0.02679 0.02945 0.49242 0.0
C44 C 0.9806 0.07385 0.40333 0.0
N45 N 0.92675 0.9758 0.49326 0.0
C46 C 0.92384 0.93156 0.4938 0.0
C47 C 0.89887 1.00171 0.49463 0.0
C48 C 0.86642 0.98314 0.49699 0.0
C49 C 0.86274 0.93752 0.49824 0.0
C50 C 0.89198 0.91167 0.49634 0.0
Zn51 Zn 0.97428 1.00249 0.49207 0.0
O52 O 0.0405 0.98248 0.42722 0.0
C53 C 0.02076 0.95785 0.58081 0.0
O54 O 0.98772 0.959 0.42266 0.0
H55 H 0.9018 0.03682 0.49437 0.0
H56 H 0.09803 0.99317 0.49593 0.0
H57 H 0.94633 0.91156 0.49246 0.0
O58 O 0.04159 0.9862 0.56163 0.0
O59 O 0.99065 0.95689 0.55916 0.0
H60 H 0.05683 0.12021 0.48651 0.0
O61 O 0.96127 0.04656 0.55987 0.0
O62 O 0.01215 0.07619 0.55856 0.0
O63 O 0.95866 0.04842 0.42608 0.0
O64 O 0.01132 0.07226 0.4218 0.0
C65 C 0.98222 0.0752 0.57918 0.0
H66 H 0.15615 0.02287 0.49243 0.0
H67 H 0.11403 0.1527 0.48338 0.0
H68 H 0.84453 1.00424 0.49889 0.0
H69 H 0.89026 0.87639 0.49626 0.0
C70 C 0.47936 0.45535 0.91764 0.0
N71 N 0.57316 0.47655 0.00611 0.0
C72 C 0.57573 0.43231 0.00514 0.0
C73 C 0.60749 0.41255 0.00403 0.0
C74 C 0.63702 0.43847 0.00421 0.0
C75 C 0.63371 0.48405 0.00631 0.0
C76 C 0.60134 0.50252 0.00701 0.0
Zn77 Zn 0.52562 0.50303 0.00463 0.0
C78 C 0.51793 0.57304 0.91349 0.0
N79 N 0.42548 0.55531 0.00032 0.0
C80 C 0.39753 0.52901 0.00227 0.0
C81 C 0.4226 0.5995 -0.00099 0.0
C82 C 0.39074 0.61892 0.00055 0.0
C83 C 0.36146 0.59266 0.00332 0.0
C84 C 0.36509 0.5471 0.00362 0.0
Zn85 Zn 0.47297 0.52908 0.0017 0.0
O86 O 0.5099 0.4574 0.93715 0.0
C87 C 0.48041 0.45992 0.09391 0.0
O88 O 0.45769 0.48189 0.93767 0.0
H89 H 0.44512 0.61981 -0.00279 0.0
H90 H 0.55305 0.41222 0.00483 0.0
H91 H 0.40043 0.49395 0.00347 0.0
O92 O 0.51032 0.45871 0.07341 0.0
O93 O 0.45926 0.487 0.07203 0.0
H94 H 0.59872 0.53763 0.00765 0.0
O95 O 0.48874 0.57565 0.06636 0.0
O96 O 0.54046 0.54936 0.07112 0.0
O97 O 0.48746 0.57124 0.93113 0.0
O98 O 0.54005 0.54788 0.93693 0.0
C99 C 0.51872 0.5769 0.08834 0.0
H100 H 0.6089 0.37728 0.00333 0.0
H101 H 0.65584 0.50521 0.00605 0.0
H102 H 0.38905 0.65416 -0.00073 0.0
H103 H 0.34317 0.5257 0.00619 0.0
H104 H 0.34983 0.163 0.56003 0.0
H105 H 0.16212 0.15662 0.41512 0.0
H106 H 0.31422 0.25043 0.42004 0.0
H107 H 0.19671 0.06683 0.55295 0.0
H108 H 0.21884 0.18897 0.41326 0.0
H109 H 0.29513 0.12456 0.55478 0.0
C110 C 0.33061 0.17392 0.52794 0.0
C111 C 0.33666 0.20998 0.49041 0.0
C112 C 0.21412 0.16209 0.4438 0.0
C113 C 0.27406 0.16625 0.4842 0.0
C114 C 0.18165 0.14379 0.44515 0.0
C115 C 0.17459 0.10918 0.48457 0.0
C116 C 0.2398 0.14585 0.48235 0.0
C117 C 0.20109 0.0933 0.52159 0.0
C118 C 0.29944 0.15192 0.52486 0.0
C119 C 0.31095 0.22245 0.44926 0.0
N120 N 0.23249 0.11193 0.51984 0.0
N121 N 0.28077 0.20082 0.44755 0.0
H122 H 0.15272 0.66977 0.93694 0.0
H123 H 0.34285 0.663 0.07052 0.0
H124 H 0.19291 0.76065 0.06908 0.0
H125 H 0.30264 0.56843 0.94348 0.0
H126 H 0.28741 0.69786 0.07237 0.0
H127 H 0.20675 0.63078 0.94044 0.0
C128 C 0.17289 0.68144 0.96678 0.0
C129 C 0.1683 0.71849 0.00279 0.0
C130 C 0.29062 0.66941 0.04418 0.0
C131 C 0.23011 0.67406 0.00714 0.0
C132 C 0.32234 0.64964 0.04284 0.0
C133 C 0.32745 0.61294 0.00642 0.0
C134 C 0.26372 0.65253 0.00866 0.0
C135 C 0.29977 0.59651 0.97245 0.0
C136 C 0.20366 0.6591 0.96893 0.0
C137 C 0.19515 0.73193 0.04111 0.0
N138 N 0.26912 0.61658 0.97413 0.0
N139 N 0.22492 0.70985 0.04205 0.0
H140 H 0.69395 0.76564 0.57686 0.0
H141 H 0.80429 0.96036 0.43723 0.0
H142 H 0.65634 0.85319 0.43872 0.0
H143 H 0.84372 0.86742 0.56673 0.0
H144 H 0.74889 0.9241 0.44128 0.0
H145 H 0.74813 0.80496 0.57769 0.0
C146 C 0.69701 0.79335 0.54703 0.0
C147 C 0.67059 0.80621 0.50769 0.0
C148 C 0.76965 0.91167 0.46887 0.0
C149 C 0.73264 0.85111 0.50794 0.0
C150 C 0.80122 0.93253 0.46685 0.0
C151 C 0.8287 0.91677 0.50149 0.0
C152 C 0.76549 0.87488 0.50597 0.0
C153 C 0.82337 0.88026 0.53856 0.0
C154 C 0.72802 0.81564 0.54726 0.0
C155 C 0.67617 0.84193 0.46932 0.0
N156 N 0.79241 0.86055 0.53977 0.0
N157 N 0.70656 0.86313 0.47041 0.0
H158 H 0.8056 0.27421 0.91148 0.0
H159 H 0.69523 0.45929 0.06853 0.0
H160 H 0.84193 0.34883 0.06484 0.0
H161 H 0.656 0.3707 0.93261 0.0
H162 H 0.75048 0.42326 0.06359 0.0
H163 H 0.75193 0.31325 0.91435 0.0
C164 C 0.80238 0.29912 0.94549 0.0
C165 C 0.82836 0.30844 0.98782 0.0
C166 C 0.72976 0.41174 0.0349 0.0
C167 C 0.76668 0.35302 -0.00817 0.0
C168 C 0.6983 0.43244 0.03744 0.0
C169 C 0.67092 0.41782 0.00115 0.0
C170 C 0.73392 0.37642 -0.00458 0.0
C171 C 0.67624 0.38264 0.96205 0.0
C172 C 0.77161 0.3212 0.94738 0.0
C173 C 0.82248 0.34045 0.0316 0.0
N174 N 0.70707 0.36321 0.96021 0.0
N175 N 0.79227 0.36169 0.03242 0.0
H176 H 0.09336 0.75629 0.16558 0.0
H177 H 0.97837 0.93417 0.30793 0.0
H178 H 0.0604 0.86626 0.05703 0.0
H179 H 0.07734 0.91309 0.38912 0.0
H180 H 0.99465 0.88891 0.22183 0.0
H181 H 0.0747 0.79492 0.25562 0.0
C182 C 0.08225 0.78828 0.16016 0.0
C183 C 0.07869 0.80777 0.10278 0.0
C184 C 0.01251 0.8939 0.25902 0.0
C185 C 0.05591 0.85071 0.20559 0.0
C186 C 0.0033 0.91944 0.30798 0.0
C187 C 0.02669 0.92738 0.35523 0.0
C188 C 0.04483 0.87517 0.25852 0.0
C189 C 0.05876 0.90787 0.35316 0.0
C190 C 0.07142 0.80998 0.21166 0.0
C191 C 0.06307 0.84896 0.09937 0.0
N192 N 0.06691 0.88229 0.30554 0.0
N193 N 0.05206 0.86885 0.14996 0.0
H194 H 0.55036 0.67413 0.56551 0.0
H195 H 0.57905 0.6138 0.89763 0.0
H196 H 0.59851 0.77261 0.67878 0.0
H197 H 0.47798 0.60193 0.82054 0.0
H198 H 0.59427 0.66315 0.81447 0.0
H199 H 0.52991 0.63807 0.65502 0.0
C200 C 0.55618 0.68907 0.6087 0.0
C201 C 0.57606 0.72736 0.6136 0.0
C202 C 0.56872 0.64999 0.81647 0.0
C203 C 0.55407 0.68376 0.71687 0.0
C204 C 0.56013 0.62168 0.86328 0.0
C205 C 0.52731 0.60375 0.86545 0.0
C206 C 0.5446 0.65907 0.77095 0.0
C207 C 0.50355 0.61514 0.82033 0.0
C208 C 0.54469 0.66786 0.65992 0.0
C209 C 0.58382 0.74303 0.67206 0.0
N210 N 0.51286 0.6415 0.77415 0.0
N211 N 0.57325 0.72074 0.72156 0.0
H212 H 0.93888 0.16384 0.04874 0.0
H213 H 0.92043 0.11645 0.38672 0.0
H214 H 0.90191 0.26976 0.15803 0.0
H215 H 0.01843 0.09792 0.30729 0.0
H216 H 0.90383 0.16255 0.30005 0.0
H217 H 0.95988 0.12822 0.1398 0.0
C218 C 0.93555 0.18028 0.09134 0.0
C219 C 0.91882 0.22066 0.09476 0.0
C220 C 0.92903 0.14864 0.30224 0.0
C221 C 0.94134 0.178 0.19972 0.0
C222 C 0.93843 0.12228 0.35117 0.0
C223 C 0.9708 0.10352 0.35383 0.0
C224 C 0.9518 0.1548 0.25508 0.0
C225 C 0.9933 0.11203 0.30688 0.0
C226 C 0.94732 0.15943 0.1434 0.0
C227 C 0.91411 0.23856 0.15256 0.0
N228 N 0.98314 0.13644 0.2587 0.0
N229 N 0.92492 0.21681 0.20288 0.0
H230 H 0.36678 0.30435 0.65237 0.0
H231 H 0.52035 0.40106 0.85373 0.0
H232 H 0.47217 0.29121 0.60636 0.0
H233 H 0.41527 0.43586 0.87589 0.0
H234 H 0.50304 0.35068 0.77313 0.0
H235 H 0.3842 0.34155 0.74548 0.0
C236 C 0.39363 0.30852 0.66247 0.0
C237 C 0.41809 0.29487 0.62149 0.0
C238 C 0.48379 0.36919 0.7959 0.0
C239 C 0.43817 0.33808 0.72737 0.0
C240 C 0.49363 0.39792 0.84192 0.0
C241 C 0.46924 0.42303 0.87116 0.0
C242 C 0.44931 0.36534 0.77931 0.0
C243 C 0.43497 0.41747 0.85418 0.0
C244 C 0.40354 0.33013 0.71534 0.0
C245 C 0.45251 0.30169 0.63647 0.0
N246 N 0.42605 0.38934 0.80924 0.0
N247 N 0.46154 0.32308 0.68804 0.0
H248 H 0.59966 0.77927 0.32975 0.0
H249 H 0.47639 0.61214 0.17003 0.0
H250 H 0.55061 0.6769 0.43203 0.0
H251 H 0.58073 0.61423 0.11384 0.0
H252 H 0.49186 0.66117 0.25363 0.0
H253 H 0.58178 0.74171 0.23664 0.0
C254 C 0.58505 0.74938 0.33321 0.0
C255 C 0.57678 0.73162 0.38982 0.0
C256 C 0.51111 0.65135 0.2222 0.0
C257 C 0.55515 0.69016 0.28334 0.0
C258 C 0.50242 0.62349 0.17475 0.0
C259 C 0.52747 0.6089 0.13561 0.0
C260 C 0.54479 0.66559 0.22932 0.0
C261 C 0.56084 0.62445 0.14368 0.0
C262 C 0.57475 0.7283 0.27993 0.0
C263 C 0.55698 0.69312 0.39038 0.0
N264 N 0.56863 0.65216 0.18987 0.0
N265 N 0.54672 0.67394 0.33807 0.0
H266 H 0.972 0.24319 0.89156 0.0
H267 H 0.91769 0.0922 0.61351 0.0
H268 H 0.86828 0.22006 0.8331 0.0
H269 H 0.02186 0.13041 0.6491 0.0
H270 H 0.89965 0.14177 0.69202 0.0
H271 H 0.99142 0.20562 0.80103 0.0
C272 C 0.95333 0.23072 0.85934 0.0
C273 C 0.91845 0.23458 0.87014 0.0
C274 C 0.92647 0.13964 0.68257 0.0
C275 C 0.94044 0.19145 0.76689 0.0
C276 C 0.93682 0.11112 0.63784 0.0
C277 C 0.97138 0.10686 0.62509 0.0
C278 C 0.95082 0.16387 0.71555 0.0
C279 C 0.99495 0.1326 0.65768 0.0
C280 C 0.96443 0.20939 0.80767 0.0
C281 C 0.89539 0.21825 0.82655 0.0
N282 N 0.98426 0.15975 0.70193 0.0
N283 N 0.9068 0.19703 0.77731 0.0
H284 H 0.40751 0.37195 0.43518 0.0
H285 H 0.50933 0.38293 0.13118 0.0
H286 H 0.43894 0.25342 0.3486 0.0
H287 H 0.42906 0.47279 0.17198 0.0
H288 H 0.49262 0.33801 0.21804 0.0
H289 H 0.4249 0.41347 0.34646 0.0
C290 C 0.41838 0.35481 0.3975 0.0
C291 C 0.42199 0.3094 0.39889 0.0
C292 C 0.47869 0.36749 0.20751 0.0
C293 C 0.44196 0.35647 0.2978 0.0
C294 C 0.48824 0.39314 0.15834 0.0
C295 C 0.47051 0.43157 0.14451 0.0
C296 C 0.45188 0.38112 0.24362 0.0
C297 C 0.44331 0.44332 0.18091 0.0
C298 C 0.42805 0.37839 0.34692 0.0
C299 C 0.43582 0.28848 0.34886 0.0
N300 N 0.43506 0.41843 0.22916 0.0
N301 N 0.44562 0.3123 0.3002 0.0
H302 H 0.02774 0.78859 0.89294 0.0
H303 H 0.08513 0.94271 0.623 0.0
H304 H 0.13223 0.81276 0.84728 0.0
H305 H 0.98108 0.90175 0.64616 0.0
H306 H 0.10259 0.89322 0.70373 0.0
H307 H 0.00969 0.8272 0.80099 0.0
C308 C 0.04685 0.80155 0.86319 0.0
C309 C 0.08153 0.79758 0.87789 0.0
C310 C 0.07594 0.89478 0.69099 0.0
C311 C 0.06114 0.84199 0.77313 0.0
C312 C 0.06593 0.92322 0.64502 0.0
C313 C 0.03155 0.92662 0.62813 0.0
C314 C 0.05139 0.8698 0.7209 0.0
C315 C 0.00785 0.90025 0.65792 0.0
C316 C 0.03656 0.82349 0.81072 0.0
C317 C 0.10524 0.81464 0.83752 0.0
N318 N 0.01818 0.8732 0.70328 0.0
N319 N 0.0946 0.83648 0.78741 0.0
loop_
_geom_bond_atom_site_label_1
_geom_bond_atom_site_label_2
_geom_bond_distance
_geom_bond_site_symmetry_2
_ccdc_geom_bond_type
H0 C3 0.931 . S
H1 C6 0.928 . S
H2 C8 0.930 . S
C3 H0 0.931 . S
C3 C4 1.413 1_554 S
C3 C5 1.360 . S
C4 C3 1.413 1_556 S
C4 C8 1.429 . S
C5 C3 1.360 . S
C5 C6 1.372 . S
C6 H1 0.928 . S
C6 C5 1.372 . S
C6 C7 1.404 . S
C7 C6 1.404 . S
C7 C8 1.391 1_554 S
C8 H2 0.930 . S
C8 C4 1.429 . S
C8 C7 1.391 1_556 S
H9 C12 0.931 . S
H10 C15 0.928 . S
H11 C17 0.930 . S
C12 H9 0.931 . S
C12 C13 1.413 . S
C12 C14 1.360 . S
C13 C12 1.413 . S
C13 C17 1.429 . S
C14 C12 1.360 . S
C14 C15 1.372 . S
C15 H10 0.928 . S
C15 C14 1.372 . S
C15 C16 1.404 . S
C16 C15 1.404 . S
C16 C17 1.391 . S
C17 H11 0.930 . S
C17 C13 1.429 . S
C17 C16 1.391 . S
H18 C21 0.931 . S
H19 C24 0.928 . S
H20 C26 0.930 . S
C21 H18 0.931 . S
C21 C22 1.413 1_554 S
C21 C23 1.360 . S
C22 C21 1.413 1_556 S
C22 C26 1.429 . S
C23 C21 1.360 . S
C23 C24 1.372 . S
C24 H19 0.928 . S
C24 C23 1.372 . S
C24 C25 1.404 . S
C25 C24 1.404 . S
C25 C26 1.391 1_554 S
C26 H20 0.930 . S
C26 C22 1.429 . S
C26 C25 1.391 1_556 S
H27 C30 0.931 . S
H28 C33 0.928 . S
H29 C35 0.930 . S
C30 H27 0.931 . S
C30 C31 1.413 . S
C30 C32 1.360 . S
C31 C30 1.413 . S
C31 C35 1.429 . S
C32 C30 1.360 . S
C32 C33 1.372 . S
C33 H28 0.928 . S
C33 C32 1.372 . S
C33 C34 1.404 . S
C34 C33 1.404 . S
C34 C35 1.391 . S
C35 H29 0.930 . S
C35 C31 1.429 . S
C35 C34 1.391 . S
C36 O52 1.251 . S
C36 O54 1.254 1_455 S
N37 C38 1.333 . S
N37 C42 1.307 . S
N37 Zn43 2.020 . S
C38 N37 1.333 . S
C38 C39 1.379 . S
C38 H56 0.952 . S
C39 C38 1.379 . S
C39 C40 1.390 . S
C39 H66 0.949 . S
C40 C39 1.390 . S
C40 C41 1.357 . S
C41 C40 1.357 . S
C41 C42 1.370 . S
C41 H67 0.950 . S
C42 N37 1.307 . S
C42 C41 1.370 . S
C42 H60 0.948 . S
Zn43 N37 2.020 . S
Zn43 O52 2.039 1_545 S
Zn43 O58 2.034 1_545 S
Zn43 O62 2.025 . S
Zn43 O64 2.024 . S
C44 O63 1.246 . S
C44 O64 1.249 1_655 S
N45 C46 1.307 . S
N45 C47 1.333 . S
N45 Zn51 2.020 . S
C46 N45 1.307 . S
C46 C50 1.370 . S
C46 H57 0.948 . S
C47 N45 1.333 . S
C47 C48 1.379 . S
C47 H55 0.952 . S
C48 C47 1.379 . S
C48 C49 1.390 . S
C48 H68 0.949 . S
C49 C48 1.390 . S
C49 C50 1.357 . S
C50 C46 1.370 . S
C50 C49 1.357 . S
C50 H69 0.950 . S
Zn51 N45 2.020 . S
Zn51 O54 2.025 . S
Zn51 O59 2.024 . S
Zn51 O61 2.039 1_565 S
Zn51 O63 2.034 1_565 S
O52 C36 1.251 . S
O52 Zn43 2.039 1_565 S
C53 O58 1.246 . S
C53 O59 1.249 1_455 S
O54 C36 1.254 1_655 S
O54 Zn51 2.025 . S
H55 C47 0.952 . S
H56 C38 0.952 . S
H57 C46 0.948 . S
O58 Zn43 2.034 1_565 S
O58 C53 1.246 . S
O59 Zn51 2.024 . S
O59 C53 1.249 1_655 S
H60 C42 0.948 . S
O61 Zn51 2.039 1_545 S
O61 C65 1.251 . S
O62 Zn43 2.025 . S
O62 C65 1.254 1_455 S
O63 C44 1.246 . S
O63 Zn51 2.034 1_545 S
O64 Zn43 2.024 . S
O64 C44 1.249 1_455 S
C65 O61 1.251 . S
C65 O62 1.254 1_655 S
H66 C39 0.949 . S
H67 C41 0.950 . S
H68 C48 0.949 . S
H69 C50 0.950 . S
C70 O86 1.251 . S
C70 O88 1.254 . S
N71 C72 1.333 1_554 S
N71 C76 1.307 . S
N71 Zn77 2.020 . S
C72 N71 1.333 1_556 S
C72 C73 1.379 . S
C72 H90 0.952 . S
C73 C72 1.379 . S
C73 C74 1.390 1_556 S
C73 H100 0.949 . S
C74 C73 1.390 1_554 S
C74 C75 1.357 . S
C75 C74 1.357 . S
C75 C76 1.370 . S
C75 H101 0.950 . S
C76 N71 1.307 . S
C76 C75 1.370 . S
C76 H94 0.948 . S
Zn77 N71 2.020 . S
Zn77 O86 2.039 1_554 S
Zn77 O92 2.034 . S
Zn77 O96 2.025 . S
Zn77 O98 2.024 1_554 S
C78 O97 1.246 . S
C78 O98 1.249 . S
N79 C80 1.307 1_554 S
N79 C81 1.333 . S
N79 Zn85 2.020 . S
C80 N79 1.307 1_556 S
C80 C84 1.370 . S
C80 H91 0.948 . S
C81 N79 1.333 . S
C81 C82 1.379 . S
C81 H89 0.952 . S
C82 C81 1.379 . S
C82 C83 1.390 . S
C82 H102 0.949 . S
C83 C82 1.390 . S
C83 C84 1.357 1_554 S
C84 C80 1.370 . S
C84 C83 1.357 1_556 S
C84 H103 0.950 . S
Zn85 N79 2.020 . S
Zn85 O88 2.025 1_554 S
Zn85 O93 2.024 . S
Zn85 O95 2.039 . S
Zn85 O97 2.034 1_554 S
O86 C70 1.251 . S
O86 Zn77 2.039 1_556 S
C87 O92 1.246 . S
C87 O93 1.249 . S
O88 C70 1.254 . S
O88 Zn85 2.025 1_556 S
H89 C81 0.952 . S
H90 C72 0.952 . S
H91 C80 0.948 . S
O92 Zn77 2.034 . S
O92 C87 1.246 . S
O93 Zn85 2.024 . S
O93 C87 1.249 . S
H94 C76 0.948 . S
O95 Zn85 2.039 . S
O95 C99 1.251 . S
O96 Zn77 2.025 . S
O96 C99 1.254 . S
O97 C78 1.246 . S
O97 Zn85 2.034 1_556 S
O98 Zn77 2.024 1_556 S
O98 C78 1.249 . S
C99 O95 1.251 . S
C99 O96 1.254 . S
H100 C73 0.949 . S
H101 C75 0.950 . S
H102 C82 0.949 . S
H103 C84 0.950 . S
H104 C110 0.930 . S
H105 C114 0.930 . S
H106 C119 0.929 . S
H107 C117 0.929 . S
H108 C112 0.929 . S
H109 C118 0.929 . S
C110 H104 0.930 . S
C110 C111 1.367 . S
C110 C118 1.378 . S
C111 C110 1.367 . S
C111 C119 1.433 . S
C112 H108 0.929 . S
C112 C114 1.378 . S
C112 C116 1.350 . S
C113 C116 1.463 . S
C113 C118 1.350 . S
C113 N121 1.427 . S
C114 H105 0.930 . S
C114 C112 1.378 . S
C114 C115 1.367 . S
C115 C114 1.367 . S
C115 C117 1.433 . S
C116 C112 1.350 . S
C116 C113 1.463 . S
C116 N120 1.427 . S
C117 H107 0.929 . S
C117 C115 1.433 . S
C117 N120 1.384 . S
C118 H109 0.929 . S
C118 C110 1.378 . S
C118 C113 1.350 . S
C119 H106 0.929 . S
C119 C111 1.433 . S
C119 N121 1.384 . S
N120 C116 1.427 . S
N120 C117 1.384 . S
N121 C113 1.427 . S
N121 C119 1.384 . S
H122 C128 0.930 . S
H123 C132 0.930 . S
H124 C137 0.929 . S
H125 C135 0.929 . S
H126 C130 0.929 . S
H127 C136 0.929 . S
C128 H122 0.930 . S
C128 C129 1.367 1_556 S
C128 C136 1.378 . S
C129 C128 1.367 1_554 S
C129 C137 1.433 . S
C130 H126 0.929 . S
C130 C132 1.378 . S
C130 C134 1.350 . S
C131 C134 1.463 . S
C131 C136 1.350 1_554 S
C131 N139 1.427 . S
C132 H123 0.930 . S
C132 C130 1.378 . S
C132 C133 1.367 . S
C133 C132 1.367 . S
C133 C135 1.433 1_554 S
C134 C130 1.350 . S
C134 C131 1.463 . S
C134 N138 1.427 1_554 S
C135 H125 0.929 . S
C135 C133 1.433 1_556 S
C135 N138 1.384 . S
C136 H127 0.929 . S
C136 C128 1.378 . S
C136 C131 1.350 1_556 S
C137 H124 0.929 . S
C137 C129 1.433 . S
C137 N139 1.384 . S
N138 C134 1.427 1_556 S
N138 C135 1.384 . S
N139 C131 1.427 . S
N139 C137 1.384 . S
H140 C146 0.930 . S
H141 C150 0.930 . S
H142 C155 0.929 . S
H143 C153 0.929 . S
H144 C148 0.929 . S
H145 C154 0.929 . S
C146 H140 0.930 . S
C146 C147 1.367 . S
C146 C154 1.378 . S
C147 C146 1.367 . S
C147 C155 1.433 . S
C148 H144 0.929 . S
C148 C150 1.378 . S
C148 C152 1.350 . S
C149 C152 1.463 . S
C149 C154 1.350 . S
C149 N157 1.427 . S
C150 H141 0.930 . S
C150 C148 1.378 . S
C150 C151 1.367 . S
C151 C150 1.367 . S
C151 C153 1.433 . S
C152 C148 1.350 . S
C152 C149 1.463 . S
C152 N156 1.427 . S
C153 H143 0.929 . S
C153 C151 1.433 . S
C153 N156 1.384 . S
C154 H145 0.929 . S
C154 C146 1.378 . S
C154 C149 1.350 . S
C155 H142 0.929 . S
C155 C147 1.433 . S
C155 N157 1.384 . S
N156 C152 1.427 . S
N156 C153 1.384 . S
N157 C149 1.427 . S
N157 C155 1.384 . S
H158 C164 0.930 . S
H159 C168 0.930 . S
H160 C173 0.929 . S
H161 C171 0.929 . S
H162 C166 0.929 . S
H163 C172 0.929 . S
C164 H158 0.930 . S
C164 C165 1.367 1_556 S
C164 C172 1.378 . S
C165 C164 1.367 1_554 S
C165 C173 1.433 . S
C166 H162 0.929 . S
C166 C168 1.378 . S
C166 C170 1.350 . S
C167 C170 1.463 . S
C167 C172 1.350 1_554 S
C167 N175 1.427 . S
C168 H159 0.930 . S
C168 C166 1.378 . S
C168 C169 1.367 . S
C169 C168 1.367 . S
C169 C171 1.433 1_554 S
C170 C166 1.350 . S
C170 C167 1.463 . S
C170 N174 1.427 1_554 S
C171 H161 0.929 . S
C171 C169 1.433 1_556 S
C171 N174 1.384 . S
C172 H163 0.929 . S
C172 C164 1.378 . S
C172 C167 1.350 1_556 S
C173 H160 0.929 . S
C173 C165 1.433 . S
C173 N175 1.384 . S
N174 C170 1.427 1_556 S
N174 C171 1.384 . S
N175 C167 1.427 . S
N175 C173 1.384 . S
H176 C182 0.930 . S
H177 C186 0.930 . S
H178 C191 0.929 . S
H179 C189 0.929 . S
H180 C184 0.929 . S
H181 C190 0.929 . S
C182 H176 0.930 . S
C182 C183 1.367 . S
C182 C190 1.378 . S
C183 C182 1.367 . S
C183 C191 1.433 . S
C184 H180 0.929 . S
C184 C186 1.378 . S
C184 C188 1.350 . S
C185 C188 1.463 . S
C185 C190 1.350 . S
C185 N193 1.427 . S
C186 H177 0.930 . S
C186 C184 1.378 . S
C186 C187 1.367 . S
C187 C186 1.367 . S
C187 C189 1.433 . S
C188 C184 1.350 . S
C188 C185 1.463 . S
C188 N192 1.427 . S
C189 H179 0.929 . S
C189 C187 1.433 . S
C189 N192 1.384 . S
C190 H181 0.929 . S
C190 C182 1.378 . S
C190 C185 1.350 . S
C191 H178 0.929 . S
C191 C183 1.433 . S
C191 N193 1.384 . S
N192 C188 1.427 . S
N192 C189 1.384 . S
N193 C185 1.427 . S
N193 C191 1.384 . S
H194 C200 0.930 . S
H195 C204 0.930 . S
H196 C209 0.929 . S
H197 C207 0.929 . S
H198 C202 0.929 . S
H199 C208 0.929 . S
C200 H194 0.930 . S
C200 C201 1.367 . S
C200 C208 1.378 . S
C201 C200 1.367 . S
C201 C209 1.433 . S
C202 H198 0.929 . S
C202 C204 1.378 . S
C202 C206 1.350 . S
C203 C206 1.463 . S
C203 C208 1.350 . S
C203 N211 1.427 . S
C204 H195 0.930 . S
C204 C202 1.378 . S
C204 C205 1.367 . S
C205 C204 1.367 . S
C205 C207 1.433 . S
C206 C202 1.350 . S
C206 C203 1.463 . S
C206 N210 1.427 . S
C207 H197 0.929 . S
C207 C205 1.433 . S
C207 N210 1.384 . S
C208 H199 0.929 . S
C208 C200 1.378 . S
C208 C203 1.350 . S
C209 H196 0.929 . S
C209 C201 1.433 . S
C209 N211 1.384 . S
N210 C206 1.427 . S
N210 C207 1.384 . S
N211 C203 1.427 . S
N211 C209 1.384 . S
H212 C218 0.930 . S
H213 C222 0.930 . S
H214 C227 0.929 . S
H215 C225 0.929 . S
H216 C220 0.929 . S
H217 C226 0.929 . S
C218 H212 0.930 . S
C218 C219 1.367 . S
C218 C226 1.378 . S
C219 C218 1.367 . S
C219 C227 1.433 . S
C220 H216 0.929 . S
C220 C222 1.378 . S
C220 C224 1.350 . S
C221 C224 1.463 . S
C221 C226 1.350 . S
C221 N229 1.427 . S
C222 H213 0.930 . S
C222 C220 1.378 . S
C222 C223 1.367 . S
C223 C222 1.367 . S
C223 C225 1.433 . S
C224 C220 1.350 . S
C224 C221 1.463 . S
C224 N228 1.427 . S
C225 H215 0.929 . S
C225 C223 1.433 . S
C225 N228 1.384 . S
C226 H217 0.929 . S
C226 C218 1.378 . S
C226 C221 1.350 . S
C227 H214 0.929 . S
C227 C219 1.433 . S
C227 N229 1.384 . S
N228 C224 1.427 . S
N228 C225 1.384 . S
N229 C221 1.427 . S
N229 C227 1.384 . S
H230 C236 0.930 . S
H231 C240 0.930 . S
H232 C245 0.929 . S
H233 C243 0.929 . S
H234 C238 0.929 . S
H235 C244 0.929 . S
C236 H230 0.930 . S
C236 C237 1.367 . S
C236 C244 1.378 . S
C237 C236 1.367 . S
C237 C245 1.433 . S
C238 H234 0.929 . S
C238 C240 1.378 . S
C238 C242 1.350 . S
C239 C242 1.463 . S
C239 C244 1.350 . S
C239 N247 1.427 . S
C240 H231 0.930 . S
C240 C238 1.378 . S
C240 C241 1.367 . S
C241 C240 1.367 . S
C241 C243 1.433 . S
C242 C238 1.350 . S
C242 C239 1.463 . S
C242 N246 1.427 . S
C243 H233 0.929 . S
C243 C241 1.433 . S
C243 N246 1.384 . S
C244 H235 0.929 . S
C244 C236 1.378 . S
C244 C239 1.350 . S
C245 H232 0.929 . S
C245 C237 1.433 . S
C245 N247 1.384 . S
N246 C242 1.427 . S
N246 C243 1.384 . S
N247 C239 1.427 . S
N247 C245 1.384 . S
H248 C254 0.930 . S
H249 C258 0.930 . S
H250 C263 0.929 . S
H251 C261 0.929 . S
H252 C256 0.929 . S
H253 C262 0.929 . S
C254 H248 0.930 . S
C254 C255 1.367 . S
C254 C262 1.378 . S
C255 C254 1.367 . S
C255 C263 1.433 . S
C256 H252 0.929 . S
C256 C258 1.378 . S
C256 C260 1.350 . S
C257 C260 1.463 . S
C257 C262 1.350 . S
C257 N265 1.427 . S
C258 H249 0.930 . S
C258 C256 1.378 . S
C258 C259 1.367 . S
C259 C258 1.367 . S
C259 C261 1.433 . S
C260 C256 1.350 . S
C260 C257 1.463 . S
C260 N264 1.427 . S
C261 H251 0.929 . S
C261 C259 1.433 . S
C261 N264 1.384 . S
C262 H253 0.929 . S
C262 C254 1.378 . S
C262 C257 1.350 . S
C263 H250 0.929 . S
C263 C255 1.433 . S
C263 N265 1.384 . S
N264 C260 1.427 . S
N264 C261 1.384 . S
N265 C257 1.427 . S
N265 C263 1.384 . S
H266 C272 0.930 . S
H267 C276 0.930 . S
H268 C281 0.929 . S
H269 C279 0.929 . S
H270 C274 0.929 . S
H271 C280 0.929 . S
C272 H266 0.930 . S
C272 C273 1.367 . S
C272 C280 1.378 . S
C273 C272 1.367 . S
C273 C281 1.433 . S
C274 H270 0.929 . S
C274 C276 1.378 . S
C274 C278 1.350 . S
C275 C278 1.463 . S
C275 C280 1.350 . S
C275 N283 1.427 . S
C276 H267 0.930 . S
C276 C274 1.378 . S
C276 C277 1.367 . S
C277 C276 1.367 . S
C277 C279 1.433 . S
C278 C274 1.350 . S
C278 C275 1.463 . S
C278 N282 1.427 . S
C279 H269 0.929 . S
C279 C277 1.433 . S
C279 N282 1.384 . S
C280 H271 0.929 . S
C280 C272 1.378 . S
C280 C275 1.350 . S
C281 H268 0.929 . S
C281 C273 1.433 . S
C281 N283 1.384 . S
N282 C278 1.427 . S
N282 C279 1.384 . S
N283 C275 1.427 . S
N283 C281 1.384 . S
H284 C290 0.930 . S
H285 C294 0.930 . S
H286 C299 0.929 . S
H287 C297 0.929 . S
H288 C292 0.929 . S
H289 C298 0.929 . S
C290 H284 0.930 . S
C290 C291 1.367 . S
C290 C298 1.378 . S
C291 C290 1.367 . S
C291 C299 1.433 . S
C292 H288 0.929 . S
C292 C294 1.378 . S
C292 C296 1.350 . S
C293 C296 1.463 . S
C293 C298 1.350 . S
C293 N301 1.427 . S
C294 H285 0.930 . S
C294 C292 1.378 . S
C294 C295 1.367 . S
C295 C294 1.367 . S
C295 C297 1.433 . S
C296 C292 1.350 . S
C296 C293 1.463 . S
C296 N300 1.427 . S
C297 H287 0.929 . S
C297 C295 1.433 . S
C297 N300 1.384 . S
C298 H289 0.929 . S
C298 C290 1.378 . S
C298 C293 1.350 . S
C299 H286 0.929 . S
C299 C291 1.433 . S
C299 N301 1.384 . S
N300 C296 1.427 . S
N300 C297 1.384 . S
N301 C293 1.427 . S
N301 C299 1.384 . S
H302 C308 0.930 . S
H303 C312 0.930 . S
H304 C317 0.929 . S
H305 C315 0.929 . S
H306 C310 0.929 . S
H307 C316 0.929 . S
C308 H302 0.930 . S
C308 C309 1.367 . S
C308 C316 1.378 . S
C309 C308 1.367 . S
C309 C317 1.433 . S
C310 H306 0.929 . S
C310 C312 1.378 . S
C310 C314 1.350 . S
C311 C314 1.463 . S
C311 C316 1.350 . S
C311 N319 1.427 . S
C312 H303 0.930 . S
C312 C310 1.378 . S
C312 C313 1.367 . S
C313 C312 1.367 . S
C313 C315 1.433 . S
C314 C310 1.350 . S
C314 C311 1.463 . S
C314 N318 1.427 . S
C315 H305 0.929 . S
C315 C313 1.433 . S
C315 N318 1.384 . S
C316 H307 0.929 . S
C316 C308 1.378 . S
C316 C311 1.350 . S
C317 H304 0.929 . S
C317 C309 1.433 . S
C317 N319 1.384 . S
N318 C314 1.427 . S
N318 C315 1.384 . S
N319 C311 1.427 . S
N319 C317 1.384 . S
C115 C40 1.540 . S
C111 C34 1.530 . S
C129 C7 1.502 . S
C133 C83 1.509 . S
C147 C16 1.522 . S
C151 C49 1.539 . S
C165 C25 1.497 . S
C169 C74 1.505 . S
C187 C36 1.524 . S
C183 C5 1.508 . S
C205 C78 1.571 . S
C201 C13 1.545 . S
C219 C23 1.503 . S
C223 C44 1.521 . S
C237 C32 1.548 . S
C241 C70 1.569 . S
C259 C99 1.568 . S
C255 C14 1.544 . S
C277 C65 1.523 . S
C273 C22 1.510 . S
C295 C87 1.569 . S
C291 C31 1.546 . S
C309 C4 1.509 . S
C313 C53 1.521 . S
