# Generated by pormake.
# Topology ftw, (4,12)-cn, num edge types: 1
# Building blocks:
#     Node 0, Type 0, BuildingBlock: NAWXER_clean_linker_0, # of connection points: 4
#     Node 1, Type 0, BuildingBlock: NAWXER_clean_linker_0, # of connection points: 4
#     Node 2, Type 0, BuildingBlock: NAWXER_clean_linker_0, # of connection points: 4
#     Node 3, Type 1, BuildingBlock: QEWDON_clean_sbu_0, # of connection points: 12
#     Edge 4, Type (0, 1), BuildingBlock: EZIPEK_clean_linker_0, # of connection points: 2
#     Edge 5, Type (0, 1), BuildingBlock: EZIPEK_clean_linker_0, # of connection points: 2
#     Edge 6, Type (0, 1), BuildingBlock: EZIPEK_clean_linker_0, # of connection points: 2
#     Edge 7, Type (0, 1), BuildingBlock: EZIPEK_clean_linker_0, # of connection points: 2
#     Edge 8, Type (0, 1), BuildingBlock: EZIPEK_clean_linker_0, # of connection points: 2
#     Edge 9, Type (0, 1), BuildingBlock: EZIPEK_clean_linker_0, # of connection points: 2
#     Edge 10, Type (0, 1), BuildingBlock: EZIPEK_clean_linker_0, # of connection points: 2
#     Edge 11, Type (0, 1), BuildingBlock: EZIPEK_clean_linker_0, # of connection points: 2
#     Edge 12, Type (0, 1), BuildingBlock: EZIPEK_clean_linker_0, # of connection points: 2
#     Edge 13, Type (0, 1), BuildingBlock: EZIPEK_clean_linker_0, # of connection points: 2
#     Edge 14, Type (0, 1), BuildingBlock: EZIPEK_clean_linker_0, # of connection points: 2
#     Edge 15, Type (0, 1), BuildingBlock: EZIPEK_clean_linker_0, # of connection points: 2
# Relax obj value: 0.057
# Max RMSD: 0.154
# Mean RMSD: 0.118
data_MOF--net-ftw--node1-QEWDON_clean_sbu_0--node2-NAWXER_clean_linker_0--edge1-EZIPEK_clean_linker_0
_symmetry_space_group_name_H-M    P1
_symmetry_Int_Tables_number       1
_symmetry_cell_setting            triclinic
loop_
_symmetry_equiv_pos_as_xyz
'x, y, z'
_cell_length_a     22.089094
_cell_length_b     24.246079
_cell_length_c     23.10936
_cell_angle_alpha  89.676804
_cell_angle_beta   90.00899
_cell_angle_gamma 90.332442
loop_
_atom_site_label
_atom_site_type_symbol
_atom_site_fract_x
_atom_site_fract_y
_atom_site_fract_z
_atom_type_partial_charge
C0 C 0.03372 0.66586 0.62391 0.0
C1 C -0.00681 0.66559 0.6709 0.0
C2 C 0.02768 0.6271 0.57916 0.0
C3 C 0.9809 0.5874 0.5806 0.0
C4 C 0.94495 0.62769 0.67093 0.0
C5 C 0.93907 0.58896 0.62653 0.0
C6 C 0.98136 0.53831 0.54185 0.0
C7 C 0.94718 0.67668 0.41144 0.0
C8 C -0.01102 0.68078 0.36565 0.0
C9 C 0.94975 0.63242 0.45102 0.0
C10 C -0.00594 0.59117 0.44546 0.0
C11 C 0.03374 0.64016 0.36072 0.0
C12 C 0.036 0.59582 0.39984 0.0
C13 C -0.00758 0.53967 0.48143 0.0
C14 C 0.9537 0.30489 0.40321 0.0
C15 C -0.00319 0.30469 0.35841 0.0
C16 C 0.95358 0.34719 0.44464 0.0
C17 C -0.00311 0.39005 0.44233 0.0
C18 C 0.04114 0.34639 0.35709 0.0
C19 C 0.04098 0.38863 0.39833 0.0
C20 C -0.00759 0.44007 0.4798 0.0
C21 C 0.01304 0.30404 0.61918 0.0
C22 C 0.96622 0.30303 0.66049 0.0
C23 C 0.01612 0.34646 0.57739 0.0
C24 C 0.97226 0.38837 0.57623 0.0
C25 C 0.92172 0.34398 0.65823 0.0
C26 C 0.92489 0.38622 0.61689 0.0
C27 C 0.97939 0.43902 0.53993 0.0
H28 H 0.0714 0.69463 0.62308 0.0
H29 H 0.06161 0.62619 0.54538 0.0
H30 H 0.91313 0.62671 0.70659 0.0
H31 H 0.90295 0.55863 0.62928 0.0
H32 H 0.91188 0.70719 0.41586 0.0
H33 H 0.91555 0.62934 0.48445 0.0
H34 H 0.06633 0.64221 0.32574 0.0
H35 H 0.07016 0.56448 0.39383 0.0
H36 H 0.91866 0.27348 0.40474 0.0
H37 H 0.91779 0.34771 0.47661 0.0
H38 H 0.07459 0.34734 0.32282 0.0
H39 H 0.07459 0.4212 0.39488 0.0
H40 H 0.04776 0.27269 0.62006 0.0
H41 H 0.05399 0.34771 0.54765 0.0
H42 H 0.88507 0.34387 0.68939 0.0
H43 H 0.89082 0.41819 0.61753 0.0
N44 N 0.97484 0.48812 0.56784 0.0
N45 N -0.00194 0.49045 0.45346 0.0
C46 C 0.5568 0.00953 0.73973 0.0
C47 C 0.60834 0.97627 0.74555 0.0
C48 C 0.52201 0.00752 0.68897 0.0
C49 C 0.53794 0.97161 0.64386 0.0
C50 C 0.62476 0.94132 0.70014 0.0
C51 C 0.5901 0.93924 0.6497 0.0
C52 C 0.50287 0.96857 0.5892 0.0
C53 C 0.37719 0.92091 0.73529 0.0
C54 C 0.3251 0.95378 0.73692 0.0
C55 C 0.4141 0.92093 0.68592 0.0
C56 C 0.40005 0.95478 0.63809 0.0
C57 C 0.30967 -0.01439 0.68837 0.0
C58 C 0.34669 -0.01401 0.63938 0.0
C59 C 0.43983 0.95864 0.58635 0.0
C60 C 0.32574 0.91523 0.37524 0.0
C61 C 0.32445 0.9599 0.33643 0.0
C62 C 0.36743 0.9144 0.42082 0.0
C63 C 0.40942 0.95767 0.42795 0.0
C64 C 0.36796 0.00213 0.3419 0.0
C65 C 0.41018 0.00103 0.38729 0.0
C66 C 0.44476 0.96089 0.48256 0.0
C67 C 0.59826 0.94599 0.34862 0.0
C68 C 0.64139 -0.01124 0.35184 0.0
C69 C 0.55177 0.9419 0.38996 0.0
C70 C 0.54797 0.98061 0.43491 0.0
C71 C 0.63602 0.02853 0.39522 0.0
C72 C 0.58999 0.02437 0.43641 0.0
C73 C 0.50766 0.97197 0.48559 0.0
H74 H 0.54354 0.03676 0.77443 0.0
H75 H 0.48286 0.03394 0.68494 0.0
H76 H 0.66434 0.91536 0.70395 0.0
H77 H 0.60368 0.9117 0.61534 0.0
H78 H 0.38956 0.89591 0.7724 0.0
H79 H 0.45391 0.89509 0.68544 0.0
H80 H 0.26963 0.0112 0.68895 0.0
H81 H 0.33443 0.01197 0.60297 0.0
H82 H 0.2926 0.88229 0.37181 0.0
H83 H 0.36553 0.88075 0.45184 0.0
H84 H 0.36755 0.03707 0.3125 0.0
H85 H 0.44104 0.03553 0.39241 0.0
H86 H 0.60191 0.91482 0.31544 0.0
H87 H 0.52091 0.90707 0.3885 0.0
H88 H 0.66882 0.06178 0.39836 0.0
H89 H 0.58839 0.05451 0.47082 0.0
N90 N 0.53388 0.97476 0.53878 0.0
N91 N 0.41357 0.95515 0.53315 0.0
C92 C 0.32305 0.33408 0.92058 0.0
C93 C 0.27931 0.34167 0.96379 0.0
C94 C 0.37069 0.37179 0.91458 0.0
C95 C 0.37523 0.41672 0.95245 0.0
C96 C 0.28125 0.38867 0.99851 0.0
C97 C 0.32883 0.42608 0.99275 0.0
C98 C 0.42894 0.45298 0.95344 0.0
C99 C 0.50762 0.28809 0.01081 0.0
C100 C 0.56227 0.27413 0.98382 0.0
C101 C 0.48034 0.33868 0.99823 0.0
C102 C 0.50596 0.37454 0.95663 0.0
C103 C 0.58515 0.30771 0.9393 0.0
C104 C 0.5571 0.35744 0.92568 0.0
C105 C 0.48904 0.43345 0.95416 0.0
C106 C 0.62722 0.61639 0.05793 0.0
C107 C 0.67258 0.62891 0.01743 0.0
C108 C 0.57942 0.58166 0.04276 0.0
C109 C 0.57683 0.55906 0.98708 0.0
C110 C 0.67165 0.60403 0.96279 0.0
C111 C 0.62417 0.56869 0.94788 0.0
C112 C 0.52484 0.52511 0.97001 0.0
C113 C 0.46162 0.70214 0.97916 0.0
C114 C 0.40616 0.7097 1.00763 0.0
C115 C 0.48107 0.64888 0.96545 0.0
C116 C 0.44718 0.60235 0.98335 0.0
C117 C 0.3724 0.66344 0.02513 0.0
C118 C 0.39288 0.61056 0.01367 0.0
C119 C 0.46484 0.54477 0.96964 0.0
H120 H 0.3218 0.29775 0.89353 0.0
H121 H 0.40511 0.36466 0.88215 0.0
H122 H 0.24779 0.39475 0.03213 0.0
H123 H 0.33109 0.46074 0.02209 0.0
H124 H 0.48962 0.26259 0.04546 0.0
H125 H 0.44231 0.35144 0.02435 0.0
H126 H 0.6272 0.29732 0.91792 0.0
H127 H 0.57797 0.38447 0.89384 0.0
H128 H 0.62751 0.63546 0.10022 0.0
H129 H 0.5437 0.57353 0.07384 0.0
H130 H 0.7064 0.61358 0.93115 0.0
H131 H 0.62304 0.55072 0.90507 0.0
H132 H 0.4886 0.73742 0.96577 0.0
H133 H 0.52176 0.64456 0.93995 0.0
H134 H 0.32966 0.6683 0.04751 0.0
H135 H 0.36562 0.57591 0.02834 0.0
N136 N 0.41955 0.50768 0.96103 0.0
N137 N 0.53457 0.47059 0.96174 0.0
Zn138 Zn 0.06134 0.06001 0.97257 0.0
Zn139 Zn 0.06349 0.0859 0.11245 0.0
O140 O 0.04311 0.02833 0.05249 0.0
H141 H 0.02708 -0.00819 0.05958 0.0
C142 C 0.93175 0.14653 0.85031 0.0
O143 O 0.92544 0.09334 0.84131 0.0
Zn144 Zn 0.90422 0.89306 0.12577 0.0
Zn145 Zn 0.88419 0.90826 0.98551 0.0
O146 O 0.91153 0.94642 0.05903 0.0
H147 H 0.92229 -0.01511 0.06157 0.0
Zn148 Zn 0.88101 0.11688 0.96765 0.0
O149 O 0.92376 0.08881 0.04191 0.0
Zn150 Zn 0.86373 0.08816 0.10921 0.0
H151 H 0.90778 0.10134 1.00526 0.0
Zn152 Zn 0.10475 0.85383 0.97305 0.0
O153 O 0.05361 0.87721 0.04294 0.0
H154 H 0.07335 0.86598 1.00767 0.0
Zn155 Zn 0.11046 0.89064 0.11109 0.0
C156 C 0.02693 0.8062 0.87333 0.0
O157 O -0.01497 0.8415 0.88857 0.0
O158 O 0.09607 0.13792 0.97822 0.0
O159 O 0.10757 0.14914 0.07351 0.0
O160 O 0.85087 0.8316 1.00397 0.0
O161 O 0.85886 0.82462 0.10007 0.0
O162 O 0.79287 0.13792 0.98525 0.0
O163 O 0.78237 0.11614 0.07873 0.0
C164 C 0.1341 0.00236 0.17032 0.0
O165 O 0.19483 0.84927 0.9958 0.0
O166 O 0.19687 0.86958 0.08943 0.0
O167 O 0.8284 0.94696 0.92489 0.0
C168 C 0.11501 0.16535 0.02136 0.0
O169 O 0.11292 0.01699 0.91236 0.0
C170 C 0.83812 0.9793 0.1893 0.0
O171 O 0.92061 0.16561 0.90049 0.0
C172 C 0.84237 0.80555 0.05119 0.0
O173 O 0.07604 0.80372 0.90226 0.0
C174 C 0.95149 0.1442 0.17818 0.0
O175 O 0.11965 0.05302 0.17237 0.0
O176 O 0.10859 0.97167 0.13279 0.0
C177 C 0.76127 0.13502 0.03122 0.0
O178 O 0.85423 0.92887 0.18832 0.0
O179 O 0.85697 0.01085 0.14825 0.0
C180 C 0.02208 0.84391 0.18633 0.0
O181 O 0.89464 0.14129 0.17046 0.0
O182 O -0.01517 0.11448 0.14605 0.0
C183 C 0.22404 0.85592 0.04296 0.0
O184 O 0.07919 0.84541 0.17918 0.0
O185 O -0.01052 0.87228 0.15171 0.0
C186 C 0.77317 0.95404 0.93836 0.0
O187 O 0.75548 0.9438 0.99165 0.0
C188 C 0.16084 -0.00828 0.92703 0.0
O189 O 0.17406 -0.014 0.98217 0.0
C190 C 0.01303 0.2089 0.31741 0.0
C191 C -0.00778 0.26389 0.30991 0.0
C192 C 0.96322 0.24218 0.20969 0.0
C193 C 0.97585 0.18566 0.21988 0.0
N194 N 0.01107 0.11391 0.2837 0.0
N195 N 0.94235 0.33201 0.25045 0.0
C196 C 0.00109 0.16871 0.27362 0.0
C197 C 0.96641 0.28042 0.25622 0.0
N198 N 0.04489 0.19539 0.36611 0.0
N199 N 0.94912 0.25936 0.1549 0.0
H200 H 0.94385 0.3614 0.2832 0.0
H201 H 0.91665 0.34436 0.21496 0.0
H202 H 0.9474 0.2324 0.11986 0.0
H203 H 0.94518 0.30066 0.14299 0.0
H204 H 0.06659 0.15779 0.372 0.0
H205 H 0.05359 0.2236 0.39906 0.0
H206 H 0.02268 0.09771 0.32398 0.0
H207 H 0.00468 0.08391 0.25207 0.0
C208 C 0.74854 0.96236 0.32768 0.0
C209 C 0.69472 -0.0092 0.31237 0.0
C210 C 0.74667 0.03145 0.22852 0.0
C211 C 0.7968 -0.00359 0.23807 0.0
N212 N 0.85554 0.94717 0.30861 0.0
N213 N 0.6407 0.05018 0.24652 0.0
C214 C 0.80063 0.96723 0.29144 0.0
C215 C 0.69333 0.02485 0.26236 0.0
N216 N 0.74904 0.92926 0.37581 0.0
N217 N 0.75261 0.07508 0.19195 0.0
H218 H 0.60101 0.04718 0.27083 0.0
H219 H 0.63517 0.07043 0.20701 0.0
H220 H 0.79527 0.08702 0.17811 0.0
H221 H 0.71928 0.10464 0.1852 0.0
H222 H 0.78416 0.90261 0.38626 0.0
H223 H 0.71236 0.92587 0.40406 0.0
H224 H 0.86371 0.92875 0.34859 0.0
H225 H 0.89495 0.95448 0.28475 0.0
C226 C 0.96793 0.71314 0.26344 0.0
C227 C -0.01475 0.72606 0.32112 0.0
C228 C 0.00309 0.82233 0.29088 0.0
C229 C -0.00344 0.80688 0.23216 0.0
N230 N 0.97345 0.7375 0.16141 0.0
N231 N 0.02213 0.79295 0.38975 0.0
C232 C 0.97822 0.75241 0.21816 0.0
C233 C 0.0027 0.78095 0.33508 0.0
N234 N 0.94088 0.6635 0.2522 0.0
N235 N 0.00925 0.87688 0.30413 0.0
H236 H 0.02263 0.76396 0.42323 0.0
H237 H 0.04182 0.83051 0.40099 0.0
H238 H 0.00814 0.90759 0.27234 0.0
H239 H 0.00897 0.89193 0.34624 0.0
H240 H 0.92199 0.65344 0.21233 0.0
H241 H 0.9323 0.63416 0.28442 0.0
H242 H 0.96782 0.69691 0.14788 0.0
H243 H 0.97831 0.76574 0.12747 0.0
C244 C 0.21503 0.97827 0.31246 0.0
C245 C 0.2743 0.96485 0.29331 0.0
C246 C 0.24016 0.97062 0.19215 0.0
C247 C 0.18036 0.98145 0.21155 0.0
N248 N 0.10817 -0.0144 0.28929 0.0
N249 N 0.34126 0.93858 0.21611 0.0
C250 C 0.16704 0.98188 0.27153 0.0
C251 C 0.28618 0.95791 0.2334 0.0
N252 N 0.20521 -0.00936 0.36936 0.0
N253 N 0.25371 0.9754 0.1346 0.0
H254 H 0.37576 0.92888 0.24521 0.0
H255 H 0.35129 0.92797 0.17361 0.0
H256 H 0.22119 0.98389 0.10312 0.0
H257 H 0.29758 0.97424 0.11825 0.0
H258 H 0.16479 0.00681 0.3848 0.0
H259 H 0.23908 -0.0107 0.40075 0.0
H260 H 0.09448 0.98036 0.33209 0.0
H261 H 0.07214 -0.01097 0.26031 0.0
C262 C 0.02366 0.67923 0.77526 0.0
C263 C 0.00312 0.70228 0.72214 0.0
C264 C 0.0034 0.79431 0.7666 0.0
C265 C 0.01797 0.7704 0.82129 0.0
N266 N 0.02989 0.68823 0.8795 0.0
N267 N 0.9641 0.78041 0.66958 0.0
C268 C 0.02497 0.71231 0.82608 0.0
C269 C -0.00964 0.75949 0.71848 0.0
N270 N 0.04355 0.62595 0.77691 0.0
N271 N 0.00463 0.85034 0.75971 0.0
H272 H 0.95446 0.7564 0.63337 0.0
H273 H 0.94726 0.82037 0.66667 0.0
H274 H 0.01475 0.87748 0.79319 0.0
H275 H 0.00115 0.86984 0.71959 0.0
H276 H 0.06516 0.60871 0.8127 0.0
H277 H 0.04364 0.60045 0.7407 0.0
H278 H 0.02856 0.64571 0.88611 0.0
H279 H 0.0291 0.71061 0.91789 0.0
C280 C 0.23664 0.92314 0.79768 0.0
C281 C 0.28788 0.95798 0.79036 0.0
C282 C 0.2608 0.009 0.87811 0.0
C283 C 0.20617 0.97777 0.88201 0.0
N284 N 0.13983 0.9072 0.84488 0.0
N285 N 0.34931 0.03469 0.82133 0.0
C286 C 0.19362 0.93519 0.84174 0.0
C287 C 0.30053 0.00065 0.83044 0.0
N288 N 0.22972 0.8782 0.76274 0.0
N289 N 0.27444 0.04707 0.91971 0.0
H290 H 0.38093 0.02828 0.78855 0.0
H291 H 0.35735 0.07084 0.84416 0.0
H292 H 0.2446 0.05818 0.95249 0.0
H293 H 0.31655 0.06606 0.92383 0.0
H294 H 0.19691 0.84779 0.76897 0.0
H295 H 0.26005 0.86888 0.72965 0.0
H296 H 0.12473 0.87988 0.81344 0.0
H297 H 0.10834 0.91347 0.87779 0.0
C298 C 0.91886 0.2169 0.7019 0.0
C299 C 0.96272 0.25952 0.70665 0.0
C300 C -0.00742 0.22305 0.8022 0.0
C301 C 0.94362 0.18478 0.80039 0.0
N302 N 0.85295 0.1527 0.75215 0.0
N303 N 0.0372 0.30751 0.76401 0.0
C304 C 0.90507 0.18338 0.751 0.0
C305 C -0.00133 0.26368 0.7575 0.0
N306 N 0.89067 0.20808 0.65008 0.0
N307 N 0.03448 0.21941 0.84556 0.0
H308 H 0.04379 0.33736 0.7319 0.0
H309 H 0.05933 0.31647 0.80266 0.0
H310 H 0.03194 0.18982 0.87842 0.0
H311 H 0.07451 0.2423 0.84616 0.0
H312 H 0.86308 0.17397 0.64207 0.0
H313 H 0.89947 0.23199 0.61331 0.0
H314 H 0.81994 0.15479 0.72005 0.0
H315 H 0.8394 0.12937 0.78787 0.0
C316 C 0.6903 0.01639 0.80897 0.0
C317 C 0.64481 0.97578 0.79969 0.0
C318 C 0.68327 0.92137 0.88126 0.0
C319 C 0.72747 0.96292 0.89216 0.0
N320 N 0.76616 0.05442 0.87377 0.0
N321 N 0.58861 0.89698 0.83455 0.0
C322 C 0.72891 0.01185 0.85817 0.0
C323 C 0.63824 0.93071 0.83849 0.0
N324 N 0.69813 0.05803 0.76954 0.0
N325 N 0.68653 0.87148 0.90904 0.0
H326 H 0.55486 0.9026 0.8035 0.0
H327 H 0.57795 0.86688 0.86529 0.0
H328 H 0.72006 0.86174 0.93907 0.0
H329 H 0.65955 0.83768 0.89832 0.0
H330 H 0.7347 0.08528 0.77019 0.0
H331 H 0.66982 0.0634 0.73384 0.0
H332 H 0.76375 0.09366 0.85545 0.0
H333 H 0.79585 0.05196 0.90878 0.0
C334 C 0.17498 0.30065 0.96162 0.0
C335 C 0.23652 0.29694 0.9785 0.0
C336 C 0.21828 0.20648 0.02216 0.0
C337 C 0.15573 0.21213 0.00964 0.0
N338 N 0.07229 0.26684 0.97529 0.0
N339 N 0.31483 0.25223 0.03444 0.0
C340 C 0.13333 0.25992 0.98151 0.0
C341 C 0.25763 0.2516 0.01168 0.0
N342 N 0.15689 0.34226 0.92553 0.0
N343 N 0.24072 0.15711 0.04126 0.0
H344 H 0.34568 0.28429 0.02739 0.0
H345 H 0.32999 0.22323 0.06447 0.0
H346 H 0.2138 0.1224 0.04909 0.0
H347 H 0.28686 0.14892 0.04432 0.0
H348 H 0.11408 0.34405 0.90678 0.0
H349 H 0.18636 0.37302 0.9107 0.0
H350 H 0.0527 0.30306 0.96006 0.0
H351 H 0.04071 0.23766 0.98968 0.0
C352 C 0.36748 0.77839 0.07801 0.0
C353 C 0.38097 0.76511 0.01976 0.0
C354 C 0.3193 0.84256 0.9883 0.0
C355 C 0.28995 0.84186 0.04268 0.0
N356 N 0.29763 0.82063 0.14504 0.0
N357 N 0.37165 0.78764 0.91781 0.0
C358 C 0.3184 0.8144 0.08987 0.0
C359 C 0.35913 0.79916 0.97431 0.0
N360 N 0.40139 0.75576 0.12138 0.0
N361 N 0.30725 0.88396 0.94991 0.0
H362 H 0.39969 0.7556 0.90504 0.0
H363 H 0.3508 0.80791 0.88333 0.0
H364 H 0.27928 0.91672 0.96126 0.0
H365 H 0.33002 0.8888 0.91068 0.0
H366 H 0.39732 0.76657 0.16473 0.0
H367 H 0.4378 0.72977 0.11277 0.0
H368 H 0.31009 0.79503 0.17928 0.0
H369 H 0.26908 0.85244 0.15719 0.0
C370 C 0.64098 0.24346 0.05396 0.0
C371 C 0.60165 0.23015 1.00748 0.0
C372 C 0.65634 0.14384 0.99211 0.0
C373 C 0.70173 0.16238 0.0309 0.0
N374 N 0.74011 0.23199 0.09629 0.0
N375 N 0.56906 0.16758 0.93316 0.0
C376 C 0.69421 0.21205 0.06235 0.0
C377 C 0.608 0.17979 0.97727 0.0
N378 N 0.62847 0.28711 0.08914 0.0
N379 N 0.65973 0.09182 0.96993 0.0
H380 H 0.53153 0.19195 0.92354 0.0
H381 H 0.57505 0.13483 0.90484 0.0
H382 H 0.69427 0.06463 0.98134 0.0
H383 H 0.62613 0.07392 0.94451 0.0
H384 H 0.65146 0.29466 0.12766 0.0
H385 H 0.59176 0.3132 0.0829 0.0
H386 H 0.74049 0.27151 0.11369 0.0
H387 H 0.78049 0.21119 0.10379 0.0
C388 C 0.77863 0.66039 0.03921 0.0
C389 C 0.71678 0.67317 0.02972 0.0
C390 C 0.73733 0.77065 0.04707 0.0
C391 C 0.79999 0.75882 0.04966 0.0
N392 N 0.88217 0.69449 0.04209 0.0
N393 N 0.63891 0.74122 0.01339 0.0
C394 C 0.82134 0.70417 0.04426 0.0
C395 C 0.69642 0.72851 0.0308 0.0
N396 N 0.79614 0.60663 0.0444 0.0
N397 N 0.71687 0.82216 0.06055 0.0
H398 H 0.60753 0.71171 0.99985 0.0
H399 H 0.62406 0.78149 1.00701 0.0
H400 H 0.74561 0.85444 0.07249 0.0
H401 H 0.67116 0.83152 0.06506 0.0
H402 H 0.8395 0.59482 0.05683 0.0
H403 H 0.76585 0.57365 0.04071 0.0
H404 H 0.90063 0.6563 0.03209 0.0
H405 H 0.91436 0.72584 0.04651 0.0
loop_
_geom_bond_atom_site_label_1
_geom_bond_atom_site_label_2
_geom_bond_distance
_geom_bond_site_symmetry_2
_ccdc_geom_bond_type
C0 C1 1.384 1_455 S
C0 C2 1.384 . S
C0 H28 0.931 . S
C1 C0 1.384 1_655 S
C1 C4 1.382 . S
C2 C0 1.384 . S
C2 C3 1.381 1_455 S
C2 H29 0.930 . S
C3 C2 1.381 1_655 S
C3 C5 1.381 . S
C3 C6 1.487 . S
C4 C1 1.382 . S
C4 C5 1.387 . S
C4 H30 0.930 . S
C5 C3 1.381 . S
C5 C4 1.387 . S
C5 H31 0.931 . S
C6 C3 1.487 . S
C6 C13 1.399 1_655 S
C6 N44 1.343 . S
C7 C8 1.384 1_655 S
C7 C9 1.384 . S
C7 H32 0.931 . S
C8 C7 1.384 1_455 S
C8 C11 1.382 . S
C9 C7 1.384 . S
C9 C10 1.381 1_655 S
C9 H33 0.930 . S
C10 C9 1.381 1_455 S
C10 C12 1.381 . S
C10 C13 1.487 . S
C11 C8 1.382 . S
C11 C12 1.387 . S
C11 H34 0.930 . S
C12 C10 1.381 . S
C12 C11 1.387 . S
C12 H35 0.931 . S
C13 C6 1.399 1_455 S
C13 C10 1.487 . S
C13 N45 1.343 . S
C14 C15 1.384 1_655 S
C14 C16 1.384 . S
C14 H36 0.931 . S
C15 C14 1.384 1_455 S
C15 C18 1.382 . S
C16 C14 1.384 . S
C16 C17 1.381 1_655 S
C16 H37 0.930 . S
C17 C16 1.381 1_455 S
C17 C19 1.381 . S
C17 C20 1.487 . S
C18 C15 1.382 . S
C18 C19 1.387 . S
C18 H38 0.930 . S
C19 C17 1.381 . S
C19 C18 1.387 . S
C19 H39 0.931 . S
C20 C17 1.487 . S
C20 C27 1.399 1_455 S
C20 N45 1.343 . S
C21 C22 1.384 1_455 S
C21 C23 1.384 . S
C21 H40 0.931 . S
C22 C21 1.384 1_655 S
C22 C25 1.382 . S
C23 C21 1.384 . S
C23 C24 1.381 1_455 S
C23 H41 0.930 . S
C24 C23 1.381 1_655 S
C24 C26 1.381 . S
C24 C27 1.487 . S
C25 C22 1.382 . S
C25 C26 1.387 . S
C25 H42 0.930 . S
C26 C24 1.381 . S
C26 C25 1.387 . S
C26 H43 0.931 . S
C27 C20 1.399 1_655 S
C27 C24 1.487 . S
C27 N44 1.343 . S
H28 C0 0.931 . S
H29 C2 0.930 . S
H30 C4 0.930 . S
H31 C5 0.931 . S
H32 C7 0.931 . S
H33 C9 0.930 . S
H34 C11 0.930 . S
H35 C12 0.931 . S
H36 C14 0.931 . S
H37 C16 0.930 . S
H38 C18 0.930 . S
H39 C19 0.931 . S
H40 C21 0.931 . S
H41 C23 0.930 . S
H42 C25 0.930 . S
H43 C26 0.931 . S
N44 C6 1.343 . S
N44 C27 1.343 . S
N45 C13 1.343 . S
N45 C20 1.343 . S
C46 C47 1.384 1_545 S
C46 C48 1.384 . S
C46 H74 0.931 . S
C47 C46 1.384 1_565 S
C47 C50 1.382 . S
C48 C46 1.384 . S
C48 C49 1.381 1_545 S
C48 H75 0.930 . S
C49 C48 1.381 1_565 S
C49 C51 1.381 . S
C49 C52 1.487 . S
C50 C47 1.382 . S
C50 C51 1.387 . S
C50 H76 0.930 . S
C51 C49 1.381 . S
C51 C50 1.387 . S
C51 H77 0.931 . S
C52 C49 1.487 . S
C52 C59 1.399 1_565 S
C52 N90 1.343 . S
C53 C54 1.384 1_565 S
C53 C55 1.384 . S
C53 H78 0.931 . S
C54 C53 1.384 1_545 S
C54 C57 1.382 . S
C55 C53 1.384 . S
C55 C56 1.381 1_565 S
C55 H79 0.930 . S
C56 C55 1.381 1_545 S
C56 C58 1.381 . S
C56 C59 1.487 . S
C57 C54 1.382 . S
C57 C58 1.387 . S
C57 H80 0.930 . S
C58 C56 1.381 . S
C58 C57 1.387 . S
C58 H81 0.931 . S
C59 C52 1.399 1_545 S
C59 C56 1.487 . S
C59 N91 1.343 . S
C60 C61 1.384 1_565 S
C60 C62 1.384 . S
C60 H82 0.931 . S
C61 C60 1.384 1_545 S
C61 C64 1.382 . S
C62 C60 1.384 . S
C62 C63 1.381 1_565 S
C62 H83 0.930 . S
C63 C62 1.381 1_545 S
C63 C65 1.381 . S
C63 C66 1.487 . S
C64 C61 1.382 . S
C64 C65 1.387 . S
C64 H84 0.930 . S
C65 C63 1.381 . S
C65 C64 1.387 . S
C65 H85 0.931 . S
C66 C63 1.487 . S
C66 C73 1.399 1_545 S
C66 N91 1.343 . S
C67 C68 1.384 1_545 S
C67 C69 1.384 . S
C67 H86 0.931 . S
C68 C67 1.384 1_565 S
C68 C71 1.382 . S
C69 C67 1.384 . S
C69 C70 1.381 1_545 S
C69 H87 0.930 . S
C70 C69 1.381 1_565 S
C70 C72 1.381 . S
C70 C73 1.487 . S
C71 C68 1.382 . S
C71 C72 1.387 . S
C71 H88 0.930 . S
C72 C70 1.381 . S
C72 C71 1.387 . S
C72 H89 0.931 . S
C73 C66 1.399 1_565 S
C73 C70 1.487 . S
C73 N90 1.343 . S
H74 C46 0.931 . S
H75 C48 0.930 . S
H76 C50 0.930 . S
H77 C51 0.931 . S
H78 C53 0.931 . S
H79 C55 0.930 . S
H80 C57 0.930 . S
H81 C58 0.931 . S
H82 C60 0.931 . S
H83 C62 0.930 . S
H84 C64 0.930 . S
H85 C65 0.931 . S
H86 C67 0.931 . S
H87 C69 0.930 . S
H88 C71 0.930 . S
H89 C72 0.931 . S
N90 C52 1.343 . S
N90 C73 1.343 . S
N91 C59 1.343 . S
N91 C66 1.343 . S
C92 C93 1.384 1_556 S
C92 C94 1.384 . S
C92 H120 0.931 . S
C93 C92 1.384 1_554 S
C93 C96 1.382 . S
C94 C92 1.384 . S
C94 C95 1.381 1_556 S
C94 H121 0.930 . S
C95 C94 1.381 1_554 S
C95 C97 1.381 . S
C95 C98 1.487 . S
C96 C93 1.382 . S
C96 C97 1.387 . S
C96 H122 0.930 . S
C97 C95 1.381 . S
C97 C96 1.387 . S
C97 H123 0.931 . S
C98 C95 1.487 . S
C98 C105 1.399 . S
C98 N136 1.343 . S
C99 C100 1.384 . S
C99 C101 1.384 . S
C99 H124 0.931 . S
C100 C99 1.384 . S
C100 C103 1.382 1_554 S
C101 C99 1.384 . S
C101 C102 1.381 . S
C101 H125 0.930 . S
C102 C101 1.381 . S
C102 C104 1.381 1_554 S
C102 C105 1.487 . S
C103 C100 1.382 1_556 S
C103 C104 1.387 . S
C103 H126 0.930 . S
C104 C102 1.381 1_556 S
C104 C103 1.387 . S
C104 H127 0.931 . S
C105 C98 1.399 . S
C105 C102 1.487 . S
C105 N137 1.343 . S
C106 C107 1.384 . S
C106 C108 1.384 . S
C106 H128 0.931 . S
C107 C106 1.384 . S
C107 C110 1.382 1_554 S
C108 C106 1.384 . S
C108 C109 1.381 . S
C108 H129 0.930 . S
C109 C108 1.381 . S
C109 C111 1.381 1_554 S
C109 C112 1.487 . S
C110 C107 1.382 1_556 S
C110 C111 1.387 . S
C110 H130 0.930 . S
C111 C109 1.381 1_556 S
C111 C110 1.387 . S
C111 H131 0.931 . S
C112 C109 1.487 . S
C112 C119 1.399 . S
C112 N137 1.343 . S
C113 C114 1.384 1_556 S
C113 C115 1.384 . S
C113 H132 0.931 . S
C114 C113 1.384 1_554 S
C114 C117 1.382 . S
C115 C113 1.384 . S
C115 C116 1.381 1_556 S
C115 H133 0.930 . S
C116 C115 1.381 1_554 S
C116 C118 1.381 . S
C116 C119 1.487 . S
C117 C114 1.382 . S
C117 C118 1.387 . S
C117 H134 0.930 . S
C118 C116 1.381 . S
C118 C117 1.387 . S
C118 H135 0.931 . S
C119 C112 1.399 . S
C119 C116 1.487 . S
C119 N136 1.343 . S
H120 C92 0.931 . S
H121 C94 0.930 . S
H122 C96 0.930 . S
H123 C97 0.931 . S
H124 C99 0.931 . S
H125 C101 0.930 . S
H126 C103 0.930 . S
H127 C104 0.931 . S
H128 C106 0.931 . S
H129 C108 0.930 . S
H130 C110 0.930 . S
H131 C111 0.931 . S
H132 C113 0.931 . S
H133 C115 0.930 . S
H134 C117 0.930 . S
H135 C118 0.931 . S
N136 C98 1.343 . S
N136 C119 1.343 . S
N137 C105 1.343 . S
N137 C112 1.343 . S
Zn138 O140 1.933 1_556 S
Zn138 O158 1.985 . S
Zn138 O169 1.955 . S
Zn139 O140 1.911 . S
Zn139 O159 1.970 . S
Zn139 O175 1.945 . S
Zn139 O182 1.981 . S
O140 Zn138 1.933 1_554 S
O140 Zn139 1.911 . S
O140 H141 0.841 . S
H141 O140 0.841 . S
C142 O143 1.246 . S
C142 O171 1.276 1_455 S
O143 C142 1.246 . S
Zn144 O146 1.911 . S
Zn144 O161 1.970 . S
Zn144 O178 1.945 . S
Zn144 O185 1.981 . S
Zn145 O146 1.933 1_556 S
Zn145 O160 1.985 . S
Zn145 O167 1.955 . S
O146 Zn144 1.911 . S
O146 Zn145 1.933 1_554 S
O146 H147 0.841 . S
H147 O146 0.841 . S
Zn148 O149 1.933 1_556 S
Zn148 O162 1.985 . S
Zn148 O171 1.955 . S
O149 Zn148 1.933 1_554 S
O149 Zn150 1.911 . S
O149 H151 0.841 . S
Zn150 O149 1.911 . S
Zn150 O163 1.970 . S
Zn150 O179 1.981 . S
Zn150 O181 1.945 . S
H151 O149 0.841 . S
Zn152 O153 1.933 1_556 S
Zn152 O165 1.985 . S
Zn152 O173 1.955 . S
O153 Zn152 1.933 1_554 S
O153 H154 0.841 . S
O153 Zn155 1.911 . S
H154 O153 0.841 . S
Zn155 O153 1.911 . S
Zn155 O166 1.970 . S
Zn155 O176 1.981 . S
Zn155 O184 1.945 . S
C156 O157 1.246 . S
C156 O173 1.276 1_655 S
O157 C156 1.246 . S
O158 Zn138 1.985 . S
O158 C168 1.245 1_556 S
O159 Zn139 1.970 . S
O159 C168 1.263 . S
O160 Zn145 1.985 . S
O160 C172 1.245 1_556 S
O161 Zn144 1.970 . S
O161 C172 1.263 . S
O162 Zn148 1.985 . S
O162 C177 1.245 1_556 S
O163 Zn150 1.970 . S
O163 C177 1.263 . S
C164 O175 1.263 . S
C164 O176 1.244 1_545 S
O165 Zn152 1.985 . S
O165 C183 1.245 1_556 S
O166 Zn155 1.970 . S
O166 C183 1.263 . S
O167 Zn145 1.955 . S
O167 C186 1.276 1_565 S
C168 O158 1.245 1_554 S
C168 O159 1.263 . S
O169 Zn138 1.955 . S
O169 C188 1.276 1_545 S
C170 O178 1.263 1_545 S
C170 O179 1.244 . S
O171 C142 1.276 1_655 S
O171 Zn148 1.955 . S
C172 O160 1.245 1_554 S
C172 O161 1.263 . S
O173 Zn152 1.955 . S
O173 C156 1.276 1_455 S
C174 O181 1.263 1_455 S
C174 O182 1.244 . S
O175 Zn139 1.945 . S
O175 C164 1.263 . S
O176 Zn155 1.981 . S
O176 C164 1.244 1_565 S
C177 O162 1.245 1_554 S
C177 O163 1.263 . S
O178 Zn144 1.945 . S
O178 C170 1.263 1_565 S
O179 Zn150 1.981 . S
O179 C170 1.244 . S
C180 O184 1.263 . S
C180 O185 1.244 1_455 S
O181 Zn150 1.945 . S
O181 C174 1.263 1_655 S
O182 Zn139 1.981 . S
O182 C174 1.244 . S
C183 O165 1.245 1_554 S
C183 O166 1.263 . S
O184 Zn155 1.945 . S
O184 C180 1.263 . S
O185 Zn144 1.981 . S
O185 C180 1.244 1_655 S
C186 O167 1.276 1_545 S
C186 O187 1.246 . S
O187 C186 1.246 . S
C188 O169 1.276 1_565 S
C188 O189 1.246 . S
O189 C188 1.246 . S
C190 C191 1.363 . S
C190 C196 1.379 . S
C190 N198 1.356 . S
C191 C190 1.363 . S
C191 C197 1.363 1_455 S
C192 C193 1.363 1_655 S
C192 C197 1.379 . S
C192 N199 1.356 . S
C193 C192 1.363 1_455 S
C193 C196 1.363 . S
N194 C196 1.356 . S
N194 H206 0.984 . S
N194 H207 0.985 . S
N195 C197 1.356 . S
N195 H200 0.984 . S
N195 H201 0.985 . S
C196 C190 1.379 . S
C196 C193 1.363 . S
C196 N194 1.356 . S
C197 C191 1.363 1_655 S
C197 C192 1.379 . S
C197 N195 1.356 . S
N198 C190 1.356 . S
N198 H204 0.984 . S
N198 H205 0.984 . S
N199 C192 1.356 . S
N199 H202 0.984 . S
N199 H203 0.985 . S
H200 N195 0.984 . S
H201 N195 0.985 . S
H202 N199 0.984 . S
H203 N199 0.985 . S
H204 N198 0.984 . S
H205 N198 0.984 . S
H206 N194 0.984 . S
H207 N194 0.985 . S
C208 C209 1.363 1_565 S
C208 C214 1.379 . S
C208 N216 1.356 . S
C209 C208 1.363 1_545 S
C209 C215 1.363 . S
C210 C211 1.363 . S
C210 C215 1.379 . S
C210 N217 1.356 . S
C211 C210 1.363 . S
C211 C214 1.363 1_545 S
N212 C214 1.356 . S
N212 H224 0.984 . S
N212 H225 0.985 . S
N213 C215 1.356 . S
N213 H218 0.984 . S
N213 H219 0.985 . S
C214 C208 1.379 . S
C214 C211 1.363 1_565 S
C214 N212 1.356 . S
C215 C209 1.363 . S
C215 C210 1.379 . S
C215 N213 1.356 . S
N216 C208 1.356 . S
N216 H222 0.984 . S
N216 H223 0.984 . S
N217 C210 1.356 . S
N217 H220 0.984 . S
N217 H221 0.985 . S
H218 N213 0.984 . S
H219 N213 0.985 . S
H220 N217 0.984 . S
H221 N217 0.985 . S
H222 N216 0.984 . S
H223 N216 0.984 . S
H224 N212 0.984 . S
H225 N212 0.985 . S
C226 C227 1.363 1_455 S
C226 C232 1.379 . S
C226 N234 1.356 . S
C227 C226 1.363 1_655 S
C227 C233 1.363 . S
C228 C229 1.363 . S
C228 C233 1.379 . S
C228 N235 1.356 . S
C229 C228 1.363 . S
C229 C232 1.363 1_655 S
N230 C232 1.356 . S
N230 H242 0.984 . S
N230 H243 0.985 . S
N231 C233 1.356 . S
N231 H236 0.984 . S
N231 H237 0.985 . S
C232 C226 1.379 . S
C232 C229 1.363 1_455 S
C232 N230 1.356 . S
C233 C227 1.363 . S
C233 C228 1.379 . S
C233 N231 1.356 . S
N234 C226 1.356 . S
N234 H240 0.984 . S
N234 H241 0.984 . S
N235 C228 1.356 . S
N235 H238 0.984 . S
N235 H239 0.985 . S
H236 N231 0.984 . S
H237 N231 0.985 . S
H238 N235 0.984 . S
H239 N235 0.985 . S
H240 N234 0.984 . S
H241 N234 0.984 . S
H242 N230 0.984 . S
H243 N230 0.985 . S
C244 C245 1.363 1_545 S
C244 C250 1.379 . S
C244 N252 1.356 . S
C245 C244 1.363 1_565 S
C245 C251 1.363 . S
C246 C247 1.363 . S
C246 C251 1.379 . S
C246 N253 1.356 . S
C247 C246 1.363 . S
C247 C250 1.363 1_565 S
N248 C250 1.356 . S
N248 H260 0.984 . S
N248 H261 0.985 . S
N249 C251 1.356 . S
N249 H254 0.984 . S
N249 H255 0.985 . S
C250 C244 1.379 . S
C250 C247 1.363 1_545 S
C250 N248 1.356 . S
C251 C245 1.363 . S
C251 C246 1.379 . S
C251 N249 1.356 . S
N252 C244 1.356 . S
N252 H258 0.984 . S
N252 H259 0.984 . S
N253 C246 1.356 . S
N253 H256 0.984 . S
N253 H257 0.985 . S
H254 N249 0.984 . S
H255 N249 0.985 . S
H256 N253 0.984 . S
H257 N253 0.985 . S
H258 N252 0.984 . S
H259 N252 0.984 . S
H260 N248 0.984 . S
H261 N248 0.985 . S
C262 C263 1.363 . S
C262 C268 1.379 . S
C262 N270 1.356 . S
C263 C262 1.363 . S
C263 C269 1.363 1_655 S
C264 C265 1.363 1_455 S
C264 C269 1.379 . S
C264 N271 1.356 . S
C265 C264 1.363 1_655 S
C265 C268 1.363 . S
N266 C268 1.356 . S
N266 H278 0.984 . S
N266 H279 0.985 . S
N267 C269 1.356 . S
N267 H272 0.984 . S
N267 H273 0.985 . S
C268 C262 1.379 . S
C268 C265 1.363 . S
C268 N266 1.356 . S
C269 C263 1.363 1_455 S
C269 C264 1.379 . S
C269 N267 1.356 . S
N270 C262 1.356 . S
N270 H276 0.984 . S
N270 H277 0.984 . S
N271 C264 1.356 . S
N271 H274 0.984 . S
N271 H275 0.985 . S
H272 N267 0.984 . S
H273 N267 0.985 . S
H274 N271 0.984 . S
H275 N271 0.985 . S
H276 N270 0.984 . S
H277 N270 0.984 . S
H278 N266 0.984 . S
H279 N266 0.985 . S
C280 C281 1.362 1_545 S
C280 C286 1.378 1_545 S
C280 N288 1.358 . S
C281 C280 1.362 1_565 S
C281 C287 1.363 . S
C282 C283 1.363 . S
C282 C287 1.379 . S
C282 N289 1.356 . S
C283 C282 1.363 . S
C283 C286 1.363 . S
N284 C286 1.356 . S
N284 H296 0.984 1_565 S
N284 H297 0.985 . S
N285 C287 1.356 . S
N285 H290 0.984 . S
N285 H291 0.985 . S
C286 C280 1.378 1_565 S
C286 C283 1.363 . S
C286 N284 1.356 . S
C287 C281 1.363 . S
C287 C282 1.379 . S
C287 N285 1.356 . S
N288 C280 1.358 . S
N288 H294 0.984 . S
N288 H295 0.984 . S
N289 C282 1.356 . S
N289 H292 0.984 . S
N289 H293 0.985 . S
H290 N285 0.984 . S
H291 N285 0.985 . S
H292 N289 0.984 . S
H293 N289 0.985 . S
H294 N288 0.984 . S
H295 N288 0.984 . S
H296 N284 0.984 1_545 S
H297 N284 0.985 . S
C298 C299 1.363 1_655 S
C298 C304 1.379 . S
C298 N306 1.356 . S
C299 C298 1.363 1_455 S
C299 C305 1.363 . S
C300 C301 1.363 . S
C300 C305 1.379 . S
C300 N307 1.356 . S
C301 C300 1.363 . S
C301 C304 1.363 1_455 S
N302 C304 1.356 . S
N302 H314 0.984 . S
N302 H315 0.985 . S
N303 C305 1.356 . S
N303 H308 0.984 . S
N303 H309 0.985 . S
C304 C298 1.379 . S
C304 C301 1.363 1_655 S
C304 N302 1.356 . S
C305 C299 1.363 . S
C305 C300 1.379 . S
C305 N303 1.356 . S
N306 C298 1.356 . S
N306 H312 0.984 . S
N306 H313 0.984 . S
N307 C300 1.356 . S
N307 H310 0.984 . S
N307 H311 0.985 . S
H308 N303 0.984 . S
H309 N303 0.985 . S
H310 N307 0.984 . S
H311 N307 0.985 . S
H312 N306 0.984 . S
H313 N306 0.984 . S
H314 N302 0.984 . S
H315 N302 0.985 . S
C316 C317 1.363 . S
C316 C322 1.379 . S
C316 N324 1.356 . S
C317 C316 1.363 . S
C317 C323 1.363 1_545 S
C318 C319 1.363 1_565 S
C318 C323 1.379 . S
C318 N325 1.356 . S
C319 C318 1.363 1_545 S
C319 C322 1.363 . S
N320 C322 1.356 . S
N320 H332 0.984 . S
N320 H333 0.985 . S
N321 C323 1.356 . S
N321 H326 0.984 . S
N321 H327 0.985 . S
C322 C316 1.379 . S
C322 C319 1.363 . S
C322 N320 1.356 . S
C323 C317 1.363 1_565 S
C323 C318 1.379 . S
C323 N321 1.356 . S
N324 C316 1.356 . S
N324 H330 0.984 . S
N324 H331 0.984 . S
N325 C318 1.356 . S
N325 H328 0.984 . S
N325 H329 0.985 . S
H326 N321 0.984 . S
H327 N321 0.985 . S
H328 N325 0.984 . S
H329 N325 0.985 . S
H330 N324 0.984 . S
H331 N324 0.984 . S
H332 N320 0.984 . S
H333 N320 0.985 . S
C334 C335 1.363 1_556 S
C334 C340 1.379 . S
C334 N342 1.356 . S
C335 C334 1.363 1_554 S
C335 C341 1.363 . S
C336 C337 1.363 . S
C336 C341 1.379 . S
C336 N343 1.356 . S
C337 C336 1.363 . S
C337 C340 1.363 1_554 S
N338 C340 1.356 . S
N338 H350 0.984 . S
N338 H351 0.985 . S
N339 C341 1.356 . S
N339 H344 0.984 . S
N339 H345 0.985 . S
C340 C334 1.379 . S
C340 C337 1.363 1_556 S
C340 N338 1.356 . S
C341 C335 1.363 . S
C341 C336 1.379 . S
C341 N339 1.356 . S
N342 C334 1.356 . S
N342 H348 0.984 . S
N342 H349 0.984 . S
N343 C336 1.356 . S
N343 H346 0.984 . S
N343 H347 0.985 . S
H344 N339 0.984 . S
H345 N339 0.985 . S
H346 N343 0.984 . S
H347 N343 0.985 . S
H348 N342 0.984 . S
H349 N342 0.984 . S
H350 N338 0.984 . S
H351 N338 0.985 . S
C352 C353 1.363 . S
C352 C358 1.379 . S
C352 N360 1.356 . S
C353 C352 1.363 . S
C353 C359 1.363 1_554 S
C354 C355 1.363 1_556 S
C354 C359 1.379 . S
C354 N361 1.356 . S
C355 C354 1.363 1_554 S
C355 C358 1.363 . S
N356 C358 1.356 . S
N356 H368 0.984 . S
N356 H369 0.985 . S
N357 C359 1.356 . S
N357 H362 0.984 . S
N357 H363 0.985 . S
C358 C352 1.379 . S
C358 C355 1.363 . S
C358 N356 1.356 . S
C359 C353 1.363 1_556 S
C359 C354 1.379 . S
C359 N357 1.356 . S
N360 C352 1.356 . S
N360 H366 0.984 . S
N360 H367 0.984 . S
N361 C354 1.356 . S
N361 H364 0.984 . S
N361 H365 0.985 . S
H362 N357 0.984 . S
H363 N357 0.985 . S
H364 N361 0.984 . S
H365 N361 0.985 . S
H366 N360 0.984 . S
H367 N360 0.984 . S
H368 N356 0.984 . S
H369 N356 0.985 . S
C370 C371 1.363 . S
C370 C376 1.379 . S
C370 N378 1.356 . S
C371 C370 1.363 . S
C371 C377 1.363 1_554 S
C372 C373 1.363 1_556 S
C372 C377 1.379 . S
C372 N379 1.356 . S
C373 C372 1.363 1_554 S
C373 C376 1.363 . S
N374 C376 1.356 . S
N374 H386 0.984 . S
N374 H387 0.985 . S
N375 C377 1.356 . S
N375 H380 0.984 . S
N375 H381 0.985 . S
C376 C370 1.379 . S
C376 C373 1.363 . S
C376 N374 1.356 . S
C377 C371 1.363 1_556 S
C377 C372 1.379 . S
C377 N375 1.356 . S
N378 C370 1.356 . S
N378 H384 0.984 . S
N378 H385 0.984 . S
N379 C372 1.356 . S
N379 H382 0.984 . S
N379 H383 0.985 . S
H380 N375 0.984 . S
H381 N375 0.985 . S
H382 N379 0.984 . S
H383 N379 0.985 . S
H384 N378 0.984 . S
H385 N378 0.984 . S
H386 N374 0.984 . S
H387 N374 0.985 . S
C388 C389 1.363 1_556 S
C388 C394 1.379 . S
C388 N396 1.356 . S
C389 C388 1.363 1_554 S
C389 C395 1.363 . S
C390 C391 1.363 . S
C390 C395 1.379 . S
C390 N397 1.356 . S
C391 C390 1.363 . S
C391 C394 1.363 1_554 S
N392 C394 1.356 . S
N392 H404 0.984 . S
N392 H405 0.985 . S
N393 C395 1.356 . S
N393 H398 0.984 . S
N393 H399 0.985 . S
C394 C388 1.379 . S
C394 C391 1.363 1_556 S
C394 N392 1.356 . S
C395 C389 1.363 . S
C395 C390 1.379 . S
C395 N393 1.356 . S
N396 C388 1.356 . S
N396 H402 0.984 . S
N396 H403 0.984 . S
N397 C390 1.356 . S
N397 H400 0.984 . S
N397 H401 0.985 . S
H398 N393 0.984 . S
H399 N393 0.985 . S
H400 N397 0.984 . S
H401 N397 0.985 . S
H402 N396 0.984 . S
H403 N396 0.984 . S
H404 N392 0.984 . S
H405 N392 0.985 . S
C193 C174 1.835 . S
C191 C15 1.906 . S
C211 C170 1.418 . S
C209 C68 1.526 1_545 S
C229 C180 1.835 1_655 S
C227 C8 1.911 1_655 S
C247 C164 1.418 1_565 S
C245 C61 1.523 1_565 S
C263 C1 2.010 . S
C265 C156 1.911 . S
C283 C188 1.499 . S
C281 C54 1.634 1_565 S
C299 C22 2.014 1_455 S
C301 C142 1.908 . S
C317 C47 1.636 1_545 S
C319 C186 1.500 . S
C335 C93 1.107 . S
C337 C168 1.070 . S
C353 C114 1.086 . S
C355 C183 1.056 . S
C373 C177 1.056 . S
C371 C100 1.085 . S
C391 C172 1.074 . S
C389 C107 1.110 . S
