# Generated by pormake.
# Topology anh, (6,3)-cn, num edge types: 1
# Building blocks:
#     Node 0, Type 0, BuildingBlock: PAMTOO_clean_sbu_0, # of connection points: 6
#     Node 1, Type 0, BuildingBlock: PAMTOO_clean_sbu_0, # of connection points: 6
#     Node 2, Type 0, BuildingBlock: PAMTOO_clean_sbu_0, # of connection points: 6
#     Node 3, Type 1, BuildingBlock: VETTIZ_charged_linker_0, # of connection points: 3
#     Node 4, Type 1, BuildingBlock: VETTIZ_charged_linker_0, # of connection points: 3
#     Node 5, Type 1, BuildingBlock: VETTIZ_charged_linker_0, # of connection points: 3
#     Node 6, Type 1, BuildingBlock: VETTIZ_charged_linker_0, # of connection points: 3
#     Node 7, Type 1, BuildingBlock: VETTIZ_charged_linker_0, # of connection points: 3
#     Node 8, Type 1, BuildingBlock: VETTIZ_charged_linker_0, # of connection points: 3
#     Edge 9, Type (0, 1), BuildingBlock: KIFKEQ_clean_linker_1, # of connection points: 2
#     Edge 10, Type (0, 1), BuildingBlock: KIFKEQ_clean_linker_1, # of connection points: 2
#     Edge 11, Type (0, 1), BuildingBlock: KIFKEQ_clean_linker_1, # of connection points: 2
#     Edge 12, Type (0, 1), BuildingBlock: KIFKEQ_clean_linker_1, # of connection points: 2
#     Edge 13, Type (0, 1), BuildingBlock: KIFKEQ_clean_linker_1, # of connection points: 2
#     Edge 14, Type (0, 1), BuildingBlock: KIFKEQ_clean_linker_1, # of connection points: 2
#     Edge 15, Type (0, 1), BuildingBlock: KIFKEQ_clean_linker_1, # of connection points: 2
#     Edge 16, Type (0, 1), BuildingBlock: KIFKEQ_clean_linker_1, # of connection points: 2
#     Edge 17, Type (0, 1), BuildingBlock: KIFKEQ_clean_linker_1, # of connection points: 2
#     Edge 18, Type (0, 1), BuildingBlock: KIFKEQ_clean_linker_1, # of connection points: 2
#     Edge 19, Type (0, 1), BuildingBlock: KIFKEQ_clean_linker_1, # of connection points: 2
#     Edge 20, Type (0, 1), BuildingBlock: KIFKEQ_clean_linker_1, # of connection points: 2
#     Edge 21, Type (0, 1), BuildingBlock: KIFKEQ_clean_linker_1, # of connection points: 2
#     Edge 22, Type (0, 1), BuildingBlock: KIFKEQ_clean_linker_1, # of connection points: 2
#     Edge 23, Type (0, 1), BuildingBlock: KIFKEQ_clean_linker_1, # of connection points: 2
#     Edge 24, Type (0, 1), BuildingBlock: KIFKEQ_clean_linker_1, # of connection points: 2
#     Edge 25, Type (0, 1), BuildingBlock: KIFKEQ_clean_linker_1, # of connection points: 2
#     Edge 26, Type (0, 1), BuildingBlock: KIFKEQ_clean_linker_1, # of connection points: 2
# Relax obj value: 0.182
# Max RMSD: 0.196
# Mean RMSD: 0.158
data_MOF--net-anh--node1-PAMTOO_clean_sbu_0--node2-VETTIZ_charged_linker_0--edge1-KIFKEQ_clean_linker_1
_symmetry_space_group_name_H-M    P1
_symmetry_Int_Tables_number       1
_symmetry_cell_setting            triclinic
loop_
_symmetry_equiv_pos_as_xyz
'x, y, z'
_cell_length_a     35.988563
_cell_length_b     35.113739
_cell_length_c     68.064705
_cell_angle_alpha  90.047948
_cell_angle_beta   95.013987
_cell_angle_gamma 104.16869
loop_
_atom_site_label
_atom_site_type_symbol
_atom_site_fract_x
_atom_site_fract_y
_atom_site_fract_z
_atom_type_partial_charge
Dy0 Dy 0.08397 0.60884 0.15506 0.0
Dy1 Dy 1.0569 0.51291 0.14742 0.0
C2 C 0.07793 0.57205 0.11208 0.0
O3 O 1.01955 0.59493 0.14721 0.0
O4 O 1.00386 0.53005 0.15565 0.0
O5 O 0.08795 0.66806 0.145 0.0
O6 O 0.10961 0.65805 0.17479 0.0
O7 O 0.07269 0.52245 0.17976 0.0
O8 O 1.061 0.58323 0.18275 0.0
O9 O 0.12063 0.52822 0.14417 0.0
O10 O 0.13835 0.58786 0.16088 0.0
O11 O 1.06003 0.45358 0.1543 0.0
O12 O 1.02088 0.46388 0.13013 0.0
C13 C 0.99375 0.56297 0.15153 0.0
O14 O 0.09852 0.59881 0.12467 0.0
O15 O 1.05404 0.54061 0.11801 0.0
C16 C 0.14217 0.71496 0.15964 0.0
C17 C 0.21158 0.7737 0.16043 0.0
C18 C 0.20974 0.73535 0.15364 0.0
C19 C 0.17528 0.70613 0.15331 0.0
C20 C 0.14354 0.7534 0.16571 0.0
C21 C 0.17789 0.78253 0.16609 0.0
C22 C 0.10692 0.68401 0.1614 0.0
C23 C 1.06635 0.55071 0.19056 0.0
C24 C 0.1473 0.55722 0.15307 0.0
C25 C 1.00063 0.40675 0.14811 0.0
C26 C 0.93919 0.34776 0.16035 0.0
C27 C 0.95144 0.38412 0.17062 0.0
C28 C 0.98181 0.41342 0.16451 0.0
C29 C 0.98854 0.37065 0.13781 0.0
C30 C 0.95804 0.34139 0.14385 0.0
C31 C 1.03183 0.43771 0.1412 0.0
H32 H 0.23525 0.72756 0.14933 0.0
H33 H 0.17471 0.67646 0.14866 0.0
H34 H 0.11823 0.76069 0.17063 0.0
H35 H 0.17824 0.8119 0.17112 0.0
H36 H 0.9372 0.39013 0.18323 0.0
H37 H 0.99048 0.44136 0.17249 0.0
H38 H 1.00264 0.36513 0.12505 0.0
H39 H 0.94953 0.3136 0.13576 0.0
Dy40 Dy 0.56693 0.02135 0.51161 0.0
Dy41 Dy 0.66114 0.04455 0.51503 0.0
C42 C 0.61569 0.03635 0.55209 0.0
O43 O 0.58201 0.08433 0.50321 0.0
O44 O 0.64429 0.10176 0.5174 0.0
O45 O 0.51619 1.0046 0.52723 0.0
O46 O 0.51064 0.01289 0.49564 0.0
O47 O 0.64141 0.0534 0.48374 0.0
O48 O 0.58414 0.00711 0.48237 0.0
O49 O 0.64532 0.97976 0.5091 0.0
O50 O 0.58336 0.96477 0.51819 0.0
O51 O 0.71586 0.04559 0.50403 0.0
O52 O 0.71374 0.07162 0.53267 0.0
C53 C 0.61326 0.11121 0.50934 0.0
O54 O 0.59033 0.04945 0.54093 0.0
O55 O 0.64132 0.02236 0.54398 0.0
C56 C 0.46287 0.96374 0.50891 0.0
C57 C 0.40408 0.89371 0.50546 0.0
C58 C 0.44113 0.8936 0.51395 0.0
C59 C 0.4703 0.92828 0.51559 0.0
C60 C 0.42618 0.96399 0.50029 0.0
C61 C 0.39705 0.92929 0.49851 0.0
C62 C 0.49281 1.0007 0.5112 0.0
C63 C 0.61221 0.02965 0.47355 0.0
C64 C 0.61418 0.95404 0.51359 0.0
C65 C 0.76129 0.10443 0.51323 0.0
C66 C 0.81031 0.17597 0.50343 0.0
C67 C 0.77064 0.16768 0.49763 0.0
C68 C 0.74635 0.13224 0.5025 0.0
C69 C 0.80072 0.11253 0.51921 0.0
C70 C 0.82513 0.14814 0.51436 0.0
C71 C 0.73527 0.0678 0.51871 0.0
H72 H 0.44748 0.86686 0.51961 0.0
H73 H 0.49854 0.92745 0.52226 0.0
H74 H 0.42003 0.99107 0.49497 0.0
H75 H 0.36913 0.93032 0.49151 0.0
H76 H 0.75829 0.18879 0.48948 0.0
H77 H 0.71583 0.12657 0.49798 0.0
H78 H 0.81257 0.09138 0.52761 0.0
H79 H 0.85561 0.15364 0.51888 0.0
Dy80 Dy 0.58998 0.51107 0.84083 0.0
Dy81 Dy 0.49703 0.4932 0.83224 0.0
C82 C 0.5514 0.50036 0.7982 0.0
O83 O 0.57782 0.56929 0.83324 0.0
O84 O 0.51592 0.55641 0.84172 0.0
O85 O 0.64627 0.53835 0.83216 0.0
O86 O 0.64034 0.50474 0.85899 0.0
O87 O 0.5099 0.48112 0.86402 0.0
O88 O 0.56766 0.52635 0.86842 0.0
O89 O 0.50849 0.43383 0.82853 0.0
O90 O 0.56785 0.44701 0.84622 0.0
O91 O 0.43986 0.48394 0.84176 0.0
O92 O 0.44788 0.48686 0.81063 0.0
C93 C 0.54768 0.58142 0.83762 0.0
O94 O 0.57458 0.48635 0.81034 0.0
O95 O 0.52511 0.51533 0.80506 0.0
C96 C 0.69118 0.50095 0.84027 0.0
C97 C 0.7461 0.46297 0.82839 0.0
C98 C 0.71091 0.45898 0.81691 0.0
C99 C 0.68348 0.47764 0.82289 0.0
C100 C 0.72575 0.50418 0.85196 0.0
C101 C 0.75298 0.48535 0.8461 0.0
C102 C 0.66363 0.52228 0.8463 0.0
C103 C 0.53728 0.50422 0.87559 0.0
C104 C 0.53723 0.42197 0.83776 0.0
C105 C 0.4086 0.52474 0.82239 0.0
C106 C 0.38787 0.59686 0.81704 0.0
C107 C 0.4061 0.58869 0.83508 0.0
C108 C 0.41643 0.55323 0.83771 0.0
C109 C 0.38956 0.53232 0.80446 0.0
C110 C 0.37916 0.56806 0.80181 0.0
C111 C 0.42536 0.49031 0.82417 0.0
H112 H 0.70486 0.44188 0.80324 0.0
H113 H 0.65661 0.47445 0.81378 0.0
H114 H 0.73202 0.52193 0.86543 0.0
H115 H 0.78012 0.48965 0.85507 0.0
H116 H 0.41228 0.60968 0.84732 0.0
H117 H 0.43148 0.54871 0.85166 0.0
H118 H 0.38376 0.5111 0.79232 0.0
H119 H 0.36498 0.57343 0.78776 0.0
C120 C 0.68953 0.12253 0.20287 0.0
C121 C 0.72329 0.14533 0.21326 0.0
C122 C 0.7269 0.14464 0.23404 0.0
C123 C 0.66443 0.09909 0.23384 0.0
C124 C 0.66055 0.09956 0.21346 0.0
C125 C 0.62285 0.07311 0.205 0.0
H126 H 0.4492 0.95422 0.22199 0.0
C127 C 0.62943 0.0728 0.24049 0.0
C128 C 0.60473 0.05739 0.22369 0.0
H129 H 0.49288 0.98349 0.16544 0.0
H130 H 0.55312 0.02254 0.18173 0.0
H131 H 0.52355 0.93476 0.24103 0.0
H132 H 0.48214 0.03936 0.24339 0.0
H133 H 0.50008 0.03111 0.26745 0.0
H134 H 0.46071 0.99465 0.2552 0.0
H135 H 0.48787 0.93936 0.25708 0.0
H136 H 0.53869 0.955 0.26479 0.0
C137 C 0.63168 0.04014 0.19247 0.0
C138 C 0.59956 0.09866 0.19334 0.0
C139 C 0.61771 0.05364 0.31394 0.0
C140 C 0.58876 0.03108 0.32468 0.0
C141 C 0.55462 0.00891 0.31438 0.0
C142 C 0.54945 0.00904 0.29375 0.0
C143 C 0.57875 0.03152 0.28321 0.0
C144 C 0.61214 0.05332 0.29331 0.0
C145 C 0.64022 0.07517 0.27964 0.0
C146 C 0.6183 0.06251 0.25967 0.0
C147 C 0.58233 0.03715 0.26188 0.0
C148 C 0.67732 0.06005 0.28263 0.0
C149 C 0.64625 0.1198 0.28385 0.0
C150 C 0.47166 0.96937 0.21313 0.0
C151 C 0.46635 0.96652 0.19249 0.0
C152 C 0.49648 0.98564 0.1814 0.0
C153 C 0.53126 0.00825 0.19089 0.0
C154 C 0.53597 0.01116 0.21165 0.0
C155 C 0.50651 0.99131 0.22234 0.0
C156 C 0.51682 0.99548 0.24419 0.0
C157 C 0.55707 0.02188 0.24502 0.0
C158 C 0.56822 0.03148 0.22598 0.0
C159 C 0.51654 0.95415 0.25236 0.0
C160 C 0.48846 0.01597 0.2532 0.0
H161 H 0.70252 0.12274 0.26011 0.0
H162 H 0.68596 0.12225 0.1869 0.0
H163 H 0.60086 0.12614 0.20181 0.0
H164 H 0.56872 0.08403 0.19056 0.0
H165 H 0.61131 0.10707 0.17898 0.0
H166 H 0.65746 0.03116 0.19919 0.0
H167 H 0.6375 0.05008 0.1773 0.0
H168 H 0.60831 0.01299 0.19159 0.0
H169 H 0.64443 0.07071 0.3214 0.0
H170 H 0.53165 0.99173 0.32231 0.0
H171 H 0.52277 0.99164 0.28684 0.0
H172 H 0.67035 0.02815 0.28586 0.0
H173 H 0.69691 0.07575 0.29518 0.0
H174 H 0.69318 0.06255 0.26933 0.0
H175 H 0.61956 0.12646 0.28847 0.0
H176 H 0.65279 0.13774 0.27068 0.0
H177 H 0.66946 0.13045 0.29587 0.0
H178 H 0.75215 0.16244 0.24244 0.0
C179 C 0.69782 0.12174 0.24433 0.0
C180 C 0.61314 0.63918 0.53109 0.0
C181 C 0.6134 0.67442 0.54114 0.0
C182 C 0.61011 0.67403 0.56156 0.0
C183 C 0.60682 0.60446 0.56201 0.0
C184 C 0.61019 0.60446 0.54192 0.0
C185 C 0.61122 0.56421 0.53429 0.0
H186 H 0.60007 0.37146 0.55534 0.0
C187 C 0.60491 0.56452 0.56919 0.0
C188 C 0.60771 0.54045 0.55311 0.0
H189 H 0.6152 0.42451 0.49853 0.0
H190 H 0.61565 0.48834 0.51296 0.0
H191 H 0.66132 0.43576 0.57853 0.0
H192 H 0.53861 0.41639 0.5688 0.0
H193 H 0.55137 0.4286 0.59394 0.0
H194 H 0.56233 0.38574 0.58375 0.0
H195 H 0.62969 0.40189 0.59298 0.0
H196 H 0.64735 0.45314 0.60017 0.0
C197 C 0.65036 0.56745 0.52589 0.0
C198 C 0.57621 0.54946 0.51905 0.0
C199 C 0.58787 0.53716 0.64163 0.0
C200 C 0.58729 0.50369 0.65296 0.0
C201 C 0.59142 0.46913 0.6439 0.0
C202 C 0.5955 0.46769 0.62368 0.0
C203 C 0.5959 0.50133 0.61242 0.0
C204 C 0.59268 0.53544 0.62148 0.0
C205 C 0.59597 0.56885 0.60743 0.0
C206 C 0.60088 0.54888 0.58832 0.0
C207 C 0.60033 0.50937 0.59134 0.0
C208 C 0.63229 0.60149 0.61461 0.0
C209 C 0.55769 0.58187 0.60632 0.0
C210 C 0.60318 0.39675 0.54595 0.0
C211 C 0.60693 0.39301 0.52579 0.0
C212 C 0.61201 0.4268 0.51413 0.0
C213 C 0.61217 0.46367 0.52253 0.0
C214 C 0.60779 0.46671 0.54282 0.0
C215 C 0.6039 0.43341 0.55409 0.0
C216 C 0.60099 0.44133 0.57541 0.0
C217 C 0.60282 0.48478 0.57526 0.0
C218 C 0.60663 0.49994 0.55618 0.0
C219 C 0.63639 0.4324 0.58753 0.0
C220 C 0.56146 0.41668 0.58096 0.0
H221 H 0.60417 0.64134 0.58749 0.0
H222 H 0.6159 0.63889 0.51538 0.0
H223 H 0.5497 0.55456 0.5247 0.0
H224 H 0.57018 0.51764 0.51588 0.0
H225 H 0.58054 0.56526 0.50497 0.0
H226 H 0.67406 0.5866 0.53562 0.0
H227 H 0.65061 0.58037 0.51099 0.0
H228 H 0.65787 0.53891 0.52502 0.0
H229 H 0.58537 0.56426 0.64839 0.0
H230 H 0.59098 0.44305 0.65247 0.0
H231 H 0.59806 0.44035 0.61762 0.0
H232 H 0.65365 0.58941 0.62381 0.0
H233 H 0.62479 0.62439 0.62366 0.0
H234 H 0.64823 0.61561 0.60227 0.0
H235 H 0.53269 0.55589 0.60622 0.0
H236 H 0.5524 0.59748 0.59269 0.0
H237 H 0.55678 0.60085 0.61924 0.0
H238 H 0.61005 0.70082 0.56948 0.0
C239 C 0.60669 0.63939 0.57199 0.0
C240 C 0.1965 0.70511 0.84688 0.0
C241 C 0.2275 0.73106 0.85775 0.0
C242 C 0.22491 0.73723 0.87804 0.0
C243 C 0.1657 0.68583 0.87683 0.0
C244 C 0.16645 0.68259 0.85665 0.0
C245 C 0.13507 0.64944 0.84748 0.0
H246 H 0.98829 0.49211 0.8584 0.0
C247 C 0.13422 0.65343 0.88277 0.0
C248 C 0.11631 0.63212 0.86556 0.0
H249 H 1.02933 0.5424 0.80403 0.0
H250 H 0.07911 0.59135 0.82254 0.0
H251 H 0.07435 0.50176 0.88265 0.0
H252 H 0.98902 0.5689 0.87848 0.0
H253 H 1.00878 0.57381 0.9031 0.0
H254 H 0.98408 0.52575 0.8931 0.0
H255 H 1.02953 0.48683 0.89352 0.0
H256 H 0.07144 0.51861 0.90661 0.0
C257 C 0.15383 0.62028 0.8372 0.0
C258 C 0.10764 0.66727 0.83357 0.0
C259 C 0.11576 0.6283 0.95549 0.0
C260 C 0.0909 0.59825 0.9651 0.0
C261 C 1.06347 0.5693 0.95367 0.0
C262 C 1.0613 0.56961 0.93308 0.0
C263 C 0.08688 0.59912 0.92367 0.0
C264 C 0.11332 0.62807 0.93479 0.0
C265 C 0.13855 0.65658 0.92204 0.0
C266 C 0.12256 0.64006 0.90152 0.0
C267 C 0.09254 0.60622 0.90266 0.0
C268 C 0.18063 0.65384 0.92704 0.0
C269 C 0.13199 0.69792 0.92547 0.0
C270 C 1.00882 0.51282 0.85046 0.0
C271 C 1.0053 0.51309 0.82972 0.0
C272 C 1.03168 0.54152 0.81999 0.0
C273 C 1.06026 0.5701 0.83078 0.0
C274 C 1.06232 0.57042 0.85153 0.0
C275 C 1.03711 0.54181 0.861 0.0
C276 C 1.04214 0.54774 0.88303 0.0
C277 C 0.07434 0.58496 0.88525 0.0
C278 C 0.08615 0.5979 0.86681 0.0
C279 C 1.05477 0.51191 0.8921 0.0
C280 C 1.0041 0.55413 0.88996 0.0
H281 H 0.19459 0.71952 0.90324 0.0
H282 H 0.19733 0.69898 0.83136 0.0
H283 H 0.10589 0.69644 0.83928 0.0
H284 H 0.07762 0.64934 0.8324 0.0
H285 H 0.11776 0.67152 0.81859 0.0
H286 H 0.1811 0.61824 0.84571 0.0
H287 H 0.16074 0.62986 0.82212 0.0
H288 H 0.13587 0.58987 0.83626 0.0
H289 H 0.13727 0.65083 0.96387 0.0
H290 H 1.04351 0.54632 0.96071 0.0
H291 H 1.03987 0.54661 0.92532 0.0
H292 H 0.18182 0.6229 0.92975 0.0
H293 H 0.19385 0.67155 0.94053 0.0
H294 H 0.19901 0.66315 0.91492 0.0
H295 H 0.10112 0.69604 0.92715 0.0
H296 H 0.13905 0.71743 0.9129 0.0
H297 H 0.149 0.71223 0.93907 0.0
H298 H 0.24795 0.75756 0.88676 0.0
C299 C 0.19409 0.71481 0.88763 0.0
C300 C 1.01305 0.44666 0.46273 0.0
C301 C 0.98245 0.41823 0.45305 0.0
C302 C 0.97641 0.418 0.43233 0.0
C303 C 1.03113 0.47355 0.4311 0.0
C304 C 1.03678 0.47428 0.45147 0.0
C305 C 1.06984 0.50763 0.45918 0.0
H306 H 0.2071 0.66968 0.43941 0.0
C307 C 1.06076 0.50566 0.42371 0.0
C308 C 0.0835 0.52602 0.44005 0.0
H309 H 0.17928 0.62405 0.49662 0.0
H310 H 0.13172 0.56854 0.48106 0.0
H311 H 0.20895 0.58918 0.42079 0.0
H312 H 0.12035 0.65225 0.41842 0.0
H313 H 0.12354 0.63554 0.39435 0.0
H314 H 0.16475 0.66841 0.40721 0.0
H315 H 0.20814 0.62762 0.40357 0.0
H316 H 0.18307 0.57718 0.39764 0.0
C317 C 0.10062 0.49014 0.47064 0.0
C318 C 1.05362 0.53567 0.47166 0.0
C319 C 1.06615 0.5224 0.34987 0.0
C320 C 0.09146 0.54829 0.33853 0.0
C321 C 0.12202 0.57705 0.34811 0.0
C322 C 0.12709 0.58022 0.36873 0.0
C323 C 0.10147 0.55419 0.3799 0.0
C324 C 0.07189 0.52566 0.37045 0.0
C325 C 1.04841 0.49964 0.3847 0.0
C326 C 1.06882 0.51729 0.40428 0.0
C327 C 0.09952 0.54942 0.40136 0.0
C328 C 1.05226 0.45714 0.38134 0.0
C329 C 1.00662 0.5046 0.38172 0.0
C330 C 0.1905 0.64783 0.44855 0.0
C331 C 0.19617 0.65136 0.46918 0.0
C332 C 0.17501 0.62187 0.48067 0.0
C333 C 0.14738 0.5899 0.47161 0.0
C334 C 0.14121 0.58741 0.45088 0.0
C335 C 0.16321 0.61574 0.43976 0.0
C336 C 0.15414 0.60779 0.41799 0.0
C337 C 0.12186 0.57085 0.41779 0.0
C338 C 0.11418 0.55905 0.43706 0.0
C339 C 0.19034 0.60027 0.4094 0.0
C340 C 0.14013 0.64279 0.40884 0.0
H341 H 0.99453 0.44342 0.4056 0.0
H342 H 1.01806 0.44763 0.47867 0.0
H343 H 1.02517 0.53841 0.46483 0.0
H344 H 0.07182 0.56596 0.47268 0.0
H345 H 1.04957 0.52454 0.48679 0.0
H346 H 0.103 0.4627 0.46321 0.0
H347 H 0.09313 0.48278 0.4859 0.0
H348 H 0.12978 0.50986 0.47127 0.0
H349 H 1.04272 0.49968 0.34287 0.0
H350 H 0.1417 0.59746 0.3396 0.0
H351 H 0.15067 0.60292 0.37515 0.0
H352 H 0.0818 0.45718 0.37765 0.0
H353 H 1.03177 0.44213 0.36894 0.0
H354 H 1.04799 0.439 0.39457 0.0
H355 H 1.00614 0.53475 0.37686 0.0
H356 H 0.9921 0.50119 0.39549 0.0
H357 H 0.989 0.48357 0.37032 0.0
H358 H 0.95325 0.39607 0.42458 0.0
C359 C 1.00058 0.44539 0.42132 0.0
C360 C 0.54754 0.89605 0.81954 0.0
C361 C 0.55105 0.86134 0.81027 0.0
C362 C 0.55794 0.8617 0.79028 0.0
C363 C 0.55803 0.93054 0.78875 0.0
C364 C 0.55098 0.93043 0.80841 0.0
C365 C 0.54734 0.97025 0.81532 0.0
H366 H 0.55808 0.1622 0.79286 0.0
C367 C 0.56011 0.97028 0.7812 0.0
C368 C 0.5538 0.99402 0.79662 0.0
H369 H 0.53217 0.10816 0.84854 0.0
H370 H 0.53638 0.04497 0.8351 0.0
H371 H 0.62378 0.11936 0.78347 0.0
H372 H 0.50235 0.09743 0.76751 0.0
H373 H 0.52072 0.08032 0.74716 0.0
H374 H 0.53639 0.13167 0.75442 0.0
H375 H 0.60214 0.14918 0.7669 0.0
H376 H 0.6162 0.10679 0.75818 0.0
C377 C 0.5794 0.98591 0.83202 0.0
C378 C 0.50625 0.96575 0.82156 0.0
C379 C 0.58624 0.99781 0.70961 0.0
C380 C 0.58742 0.03117 0.69808 0.0
C381 C 0.58289 0.06585 0.70683 0.0
C382 C 0.57709 0.06738 0.72682 0.0
C383 C 0.57528 0.03368 0.73819 0.0
C384 C 0.57969 0.99963 0.72955 0.0
C385 C 0.57506 0.96631 0.74373 0.0
C386 C 0.56722 0.98608 0.7623 0.0
C387 C 0.56779 0.0255 0.75895 0.0
C388 C 0.61371 0.95404 0.74639 0.0
C389 C 0.53996 0.93317 0.73562 0.0
C390 C 0.55355 0.1368 0.80221 0.0
C391 C 0.54538 0.14004 0.82177 0.0
C392 C 0.5387 0.1062 0.83339 0.0
C393 C 0.54125 0.06971 0.82558 0.0
C394 C 0.55 0.06714 0.80589 0.0
C395 C 0.55543 0.1005 0.79461 0.0
C396 C 0.5627 0.09297 0.77384 0.0
C397 C 0.56179 0.04973 0.7744 0.0
C398 C 0.55458 0.03434 0.79318 0.0
C399 C 0.60316 0.11846 0.7702 0.0
C400 C 0.52911 0.10119 0.7599 0.0
H401 H 0.56686 0.89413 0.76434 0.0
H402 H 0.54206 0.89629 0.83493 0.0
H403 H 0.48473 0.94582 0.81105 0.0
H404 H 0.49753 0.99376 0.82145 0.0
H405 H 0.50358 0.95311 0.83648 0.0
H406 H 0.60741 0.98167 0.82794 0.0
H407 H 0.57277 0.97007 0.8459 0.0
H408 H 0.58402 0.01767 0.835 0.0
H409 H 0.58914 0.97064 0.70309 0.0
H410 H 0.58387 0.09186 0.69813 0.0
H411 H 0.57401 0.09475 0.73258 0.0
H412 H 0.63851 0.98024 0.74658 0.0
H413 H 0.61619 0.93423 0.7341 0.0
H414 H 0.618 0.93969 0.76054 0.0
H415 H 0.51852 0.94524 0.72648 0.0
H416 H 0.52363 0.91737 0.74743 0.0
H417 H 0.54887 0.9117 0.72623 0.0
H418 H 0.56073 0.83521 0.78299 0.0
C419 C 0.56152 0.89599 0.7795 0.0
C420 C 0.67663 0.55739 0.14685 0.0
C421 C 0.70892 0.55408 0.1368 0.0
C422 C 0.70289 0.54315 0.11673 0.0
C423 C 0.63519 0.54176 0.11614 0.0
C424 C 0.63964 0.55104 0.13609 0.0
C425 C 0.60095 0.55319 0.14328 0.0
H426 H 0.40912 0.54647 0.1142 0.0
C427 C 0.595 0.5393 0.10845 0.0
C428 C 0.57387 0.54593 0.12411 0.0
H429 H 0.45868 0.55774 0.17454 0.0
H430 H 0.52192 0.55722 0.16326 0.0
H431 H 0.47646 0.60546 0.09661 0.0
H432 H 0.44404 0.4805 0.1023 0.0
H433 H 0.46101 0.48784 0.07893 0.0
H434 H 0.42022 0.50597 0.08438 0.0
H435 H 0.43926 0.57443 0.08048 0.0
H436 H 0.48889 0.58698 0.07487 0.0
C437 C 0.60452 0.59424 0.15231 0.0
C438 C 0.58908 0.52027 0.15807 0.0
C439 C 0.56083 0.51773 0.03447 0.0
C440 C 0.52763 0.51864 0.0222 0.0
C441 C 0.49509 0.52447 0.03061 0.0
C442 C 0.49559 0.52945 0.05102 0.0
C443 C 0.52917 0.52901 0.0632 0.0
C444 C 0.56103 0.52341 0.05485 0.0
C445 C 0.59469 0.52598 0.0699 0.0
C446 C 0.57759 0.53361 0.08878 0.0
C447 C 0.53929 0.5349 0.08473 0.0
C448 C 0.62749 0.56134 0.06464 0.0
C449 C 0.60493 0.48551 0.07002 0.0
C450 C 0.43321 0.54849 0.12522 0.0
C451 C 0.42828 0.55125 0.14526 0.0
C452 C 0.46131 0.55519 0.1589 0.0
C453 C 0.49788 0.5546 0.15237 0.0
C454 C 0.50151 0.55015 0.13203 0.0
C455 C 0.46898 0.54752 0.11907 0.0
C456 C 0.47573 0.54214 0.09813 0.0
C457 C 0.51741 0.54085 0.10019 0.0
C458 C 0.53372 0.54604 0.11999 0.0
C459 C 0.46958 0.57885 0.08678 0.0
C460 C 0.44884 0.50229 0.09034 0.0
H461 H 0.66497 0.52901 0.09122 0.0
H462 H 0.68027 0.56537 0.16239 0.0
H463 H 0.59004 0.49145 0.15162 0.0
H464 H 0.55949 0.51747 0.16207 0.0
H465 H 0.60892 0.5259 0.17179 0.0
H466 H 0.61575 0.61735 0.14168 0.0
H467 H 0.62457 0.5992 0.16595 0.0
H468 H 0.5764 0.59811 0.15608 0.0
H469 H 0.58647 0.51397 0.02828 0.0
H470 H 0.46919 0.52513 0.02135 0.0
H471 H 0.46974 0.5336 0.05642 0.0
H472 H 0.61601 0.58368 0.05612 0.0
H473 H 0.64784 0.55175 0.05554 0.0
H474 H 0.64375 0.57786 0.0778 0.0
H475 H 0.57868 0.46114 0.0669 0.0
H476 H 0.6177 0.47863 0.08455 0.0
H477 H 0.62476 0.48369 0.05863 0.0
H478 H 0.72675 0.53983 0.10876 0.0
C479 C 0.66668 0.53691 0.1065 0.0
H480 H 0.21272 0.61762 0.16018 0.0
H481 H 0.17638 0.49254 0.14899 0.0
H482 H 0.27993 0.61471 0.1609 0.0
H483 H 0.24316 0.489 0.1508 0.0
H484 H 0.36233 0.49854 0.13129 0.0
H485 H 0.29642 0.50024 0.13425 0.0
H486 H 0.33523 0.59874 0.17539 0.0
H487 H 0.40229 0.59827 0.17128 0.0
C488 C 0.21902 0.58934 0.15809 0.0
C489 C 0.18878 0.55537 0.15429 0.0
C490 C 0.25786 0.58757 0.15867 0.0
C491 C 0.2679 0.55164 0.15575 0.0
C492 C 0.23737 0.51756 0.15257 0.0
C493 C 0.19866 0.51947 0.15164 0.0
C494 C 0.35699 0.52053 0.14111 0.0
C495 C 0.38804 0.54854 0.15086 0.0
C496 C 0.31871 0.5213 0.143 0.0
C497 C 0.30951 0.54975 0.15504 0.0
C498 C 0.34061 0.57672 0.16564 0.0
C499 C 0.37929 0.57612 0.16358 0.0
H500 H 0.80987 0.2103 0.46764 0.0
H501 H 0.86886 0.22571 0.52623 0.0
H502 H 0.85104 0.27182 0.45799 0.0
H503 H 0.91018 0.2879 0.51659 0.0
H504 H 1.00345 0.37011 0.4811 0.0
H505 H 0.96152 0.31296 0.49514 0.0
H506 H 0.86234 0.34156 0.46395 0.0
H507 H 0.90434 0.39788 0.44965 0.0
C508 C 0.8314 0.22712 0.47853 0.0
C509 C 0.83599 0.21331 0.49772 0.0
C510 C 0.85493 0.26248 0.47303 0.0
C511 C 0.8836 0.28502 0.4866 0.0
C512 C 0.88849 0.27108 0.50578 0.0
C513 C 0.86491 0.23551 0.51128 0.0
C514 C 0.97261 0.36448 0.47761 0.0
C515 C 0.95706 0.38793 0.46413 0.0
C516 C 0.9486 0.33183 0.48563 0.0
C517 C 0.90867 0.32235 0.48037 0.0
C518 C 0.89307 0.34748 0.46789 0.0
C519 C 0.91703 0.37981 0.45978 0.0
H520 H 0.4928 0.61749 0.84834 0.0
H521 H 0.60542 0.6422 0.82671 0.0
H522 H 0.49325 0.68695 0.84644 0.0
H523 H 0.60537 0.71147 0.82439 0.0
H524 H 0.60738 0.83868 0.83294 0.0
H525 H 0.60712 0.77165 0.84311 0.0
H526 H 0.48828 0.73237 0.81953 0.0
H527 H 0.48885 0.7994 0.80959 0.0
C528 C 0.51768 0.63767 0.84317 0.0
C529 C 0.54896 0.62408 0.83751 0.0
C530 C 0.51782 0.6775 0.84202 0.0
C531 C 0.54917 0.7048 0.83512 0.0
C532 C 0.58092 0.69139 0.82999 0.0
C533 C 0.58083 0.65155 0.83119 0.0
C534 C 0.58094 0.81584 0.83061 0.0
C535 C 0.54797 0.82408 0.8208 0.0
C536 C 0.58087 0.77741 0.83616 0.0
C537 C 0.5478 0.7465 0.83197 0.0
C538 C 0.51414 0.75542 0.82317 0.0
C539 C 0.51434 0.79379 0.81752 0.0
H540 H 0.96231 0.62727 0.15069 0.0
H541 H 0.93046 0.50091 0.15379 0.0
H542 H 0.89514 0.62876 0.15162 0.0
H543 H 0.86309 0.50203 0.15383 0.0
H544 H 0.74286 0.51043 0.16322 0.0
H545 H 0.8119 0.51432 0.16928 0.0
H546 H 0.83639 0.61771 0.13358 0.0
H547 H 0.76802 0.61436 0.12844 0.0
C548 C 0.94098 0.59969 0.15143 0.0
C549 C 0.95223 0.56398 0.15206 0.0
C550 C 0.90208 0.60047 0.15187 0.0
C551 C 0.87277 0.5655 0.15272 0.0
C552 C 0.88426 0.5298 0.15353 0.0
C553 C 0.92321 0.52909 0.15331 0.0
C554 C 0.76322 0.53491 0.15745 0.0
C555 C 0.74981 0.5626 0.14573 0.0
C556 C 0.80298 0.53674 0.1605 0.0
C557 C 0.83056 0.56608 0.15173 0.0
C558 C 0.81687 0.5949 0.14091 0.0
C559 C 0.77735 0.59316 0.13799 0.0
H560 H 0.32777 0.88435 0.51067 0.0
H561 H 0.40985 0.81953 0.49605 0.0
H562 H 0.27592 0.82493 0.50508 0.0
H563 H 0.35802 0.76 0.49101 0.0
H564 H 0.25675 0.6535 0.49668 0.0
H565 H 0.30686 0.71176 0.50868 0.0
H566 H 0.2478 0.78548 0.47385 0.0
H567 H 0.19817 0.72756 0.46193 0.0
C568 C 0.33481 0.85747 0.50631 0.0
C569 C 0.37296 0.85687 0.50358 0.0
C570 C 0.30514 0.82343 0.50326 0.0
C571 C 0.313 0.78795 0.4976 0.0
C572 C 0.35124 0.78687 0.49562 0.0
C573 C 0.38091 0.82101 0.4985 0.0
C574 C 0.25433 0.6823 0.49192 0.0
C575 C 0.22389 0.68625 0.47836 0.0
C576 C 0.28299 0.71548 0.49865 0.0
C577 C 0.28117 0.75304 0.49215 0.0
C578 C 0.24975 0.75695 0.47925 0.0
C579 C 0.22151 0.72386 0.47234 0.0
H580 H 0.5914 0.38781 0.85571 0.0
H581 H 0.48051 0.35929 0.8218 0.0
H582 H 0.59204 0.3188 0.85566 0.0
H583 H 0.48152 0.28985 0.82158 0.0
H584 H 0.48478 0.16281 0.83572 0.0
H585 H 0.48073 0.23055 0.84223 0.0
H586 H 0.59952 0.27306 0.83018 0.0
H587 H 0.60331 0.20589 0.82384 0.0
C588 C 0.56699 0.36685 0.8483 0.0
C589 C 0.53603 0.37933 0.83858 0.0
C590 C 0.56745 0.32719 0.84825 0.0
C591 C 0.53697 0.29877 0.83852 0.0
C592 C 0.50532 0.31094 0.82937 0.0
C593 C 0.50488 0.3508 0.82937 0.0
C594 C 0.51016 0.1867 0.83501 0.0
C595 C 0.54442 0.17927 0.82944 0.0
C596 C 0.50777 0.22544 0.83848 0.0
C597 C 0.53976 0.25726 0.83664 0.0
C598 C 0.57445 0.24934 0.83195 0.0
C599 C 0.57668 0.21088 0.82831 0.0
H600 H 0.55459 0.89102 0.52015 0.0
H601 H 0.67389 0.92083 0.50772 0.0
H602 H 0.55595 0.82208 0.52251 0.0
H603 H 0.675 0.85184 0.50986 0.0
H604 H 0.67263 0.73885 0.54672 0.0
H605 H 0.67313 0.80572 0.53685 0.0
H606 H 0.56204 0.76318 0.50421 0.0
H607 H 0.56175 0.69596 0.51431 0.0
C608 C 0.58102 0.88291 0.51775 0.0
C609 C 0.61424 0.91169 0.51394 0.0
C610 C 0.58169 0.84325 0.51892 0.0
C611 C 0.61561 0.83137 0.5164 0.0
C612 C 0.64851 0.86001 0.51207 0.0
C613 C 0.64781 0.89962 0.51081 0.0
C614 C 0.64892 0.74374 0.53692 0.0
C615 C 0.61733 0.71238 0.5311 0.0
C616 C 0.64913 0.78203 0.53127 0.0
C617 C 0.61749 0.78992 0.51985 0.0
C618 C 0.58667 0.75814 0.51319 0.0
C619 C 0.58667 0.71965 0.51872 0.0
H620 H 0.79318 0.4248 0.84951 0.0
H621 H 0.77013 0.46686 0.79124 0.0
H622 H 0.85592 0.41987 0.84134 0.0
H623 H 0.83252 0.46006 0.78255 0.0
H624 H 0.97265 0.43468 0.83388 0.0
H625 H 0.90497 0.40234 0.82526 0.0
H626 H 0.89076 0.50529 0.79357 0.0
H627 H 0.95795 0.53656 0.80165 0.0
C628 C 0.80106 0.4316 0.83467 0.0
C629 C 0.77745 0.44758 0.82128 0.0
C630 C 0.83696 0.42825 0.82982 0.0
C631 C 0.8499 0.4407 0.8114 0.0
C632 C 0.82386 0.45125 0.79704 0.0
C633 C 0.78796 0.45487 0.80197 0.0
C634 C 0.95525 0.44956 0.82437 0.0
C635 C 0.97017 0.48849 0.81889 0.0
C636 C 0.91648 0.43114 0.81948 0.0
C637 C 0.89199 0.45171 0.80936 0.0
C638 C 0.90846 0.48838 0.80144 0.0
C639 C 0.94725 0.50656 0.80614 0.0
H640 H 0.26814 0.79148 0.13479 0.0
H641 H 0.23959 0.8235 0.19181 0.0
H642 H 0.32944 0.84118 0.13939 0.0
H643 H 0.30051 0.87223 0.19658 0.0
H644 H 0.39576 0.97839 0.19605 0.0
H645 H 0.3336 0.93416 0.18563 0.0
H646 H 0.39122 0.85586 0.15859 0.0
H647 H 0.45349 0.9014 0.16844 0.0
C648 C 0.27501 0.80906 0.1483 0.0
C649 C 0.24883 0.80387 0.16284 0.0
C650 C 0.31011 0.83749 0.15096 0.0
C651 C 0.31982 0.86114 0.16825 0.0
C652 C 0.29367 0.85547 0.18282 0.0
C653 C 0.25867 0.82737 0.18012 0.0
C654 C 0.39495 0.95212 0.18749 0.0
C655 C 0.42921 0.94312 0.18307 0.0
C656 C 0.35943 0.92654 0.18169 0.0
C657 C 0.35734 0.89094 0.17163 0.0
C658 C 0.39168 0.88305 0.16623 0.0
C659 C 0.42734 0.90904 0.17185 0.0
H660 H 0.67249 0.17599 0.51928 0.0
H661 H 0.55324 0.14224 0.49582 0.0
H662 H 0.67017 0.24487 0.51908 0.0
H663 H 0.55123 0.21105 0.49533 0.0
H664 H 0.54988 0.32708 0.52797 0.0
H665 H 0.55176 0.25968 0.5208 0.0
H666 H 0.66319 0.30156 0.49874 0.0
H667 H 0.66122 0.3695 0.5062 0.0
C668 C 0.64588 0.18321 0.5139 0.0
C669 C 0.6129 0.15339 0.50782 0.0
C670 C 0.64468 0.2228 0.51361 0.0
C671 C 0.61045 0.23355 0.50728 0.0
C672 C 0.57791 0.20381 0.50054 0.0
C673 C 0.57913 0.16428 0.50079 0.0
C674 C 0.57438 0.32189 0.52117 0.0
C675 C 0.60538 0.35342 0.51761 0.0
C676 C 0.57546 0.28326 0.517 0.0
C677 C 0.60773 0.27509 0.50928 0.0
C678 C 0.63808 0.30683 0.50487 0.0
C679 C 0.63681 0.3457 0.5089 0.0
H680 H 0.32001 0.60807 0.79977 0.0
H681 H 0.42854 0.67052 0.82979 0.0
H682 H 0.29392 0.66457 0.80452 0.0
H683 H 0.40198 0.72702 0.83504 0.0
H684 H 0.29919 0.73431 0.87574 0.0
H685 H 0.35109 0.72063 0.85915 0.0
H686 H 0.29301 0.73719 0.80278 0.0
H687 H 0.24124 0.75297 0.81955 0.0
C688 C 0.33883 0.6344 0.8067 0.0
C689 C 0.37592 0.63437 0.81498 0.0
C690 C 0.32393 0.66702 0.80935 0.0
C691 C 0.34576 0.70005 0.82044 0.0
C692 C 0.38439 0.7018 0.82663 0.0
C693 C 0.3994 0.66929 0.82382 0.0
C694 C 0.29829 0.73763 0.85991 0.0
C695 C 0.26498 0.74276 0.84893 0.0
C696 C 0.32831 0.72961 0.85031 0.0
C697 C 0.3253 0.72631 0.82963 0.0
C698 C 0.29551 0.73858 0.81876 0.0
C699 C 0.26579 0.7474 0.8284 0.0
H700 H 0.92707 0.32476 0.19805 0.0
H701 H 0.87893 0.30004 0.13767 0.0
H702 H 0.87463 0.27375 0.20913 0.0
H703 H 0.8267 0.2482 0.14877 0.0
H704 H 0.71714 0.19356 0.18204 0.0
H705 H 0.76934 0.24098 0.16802 0.0
H706 H 0.85249 0.20159 0.2073 0.0
H707 H 0.80061 0.15428 0.22116 0.0
C708 C 0.90522 0.30847 0.18714 0.0
C709 C 0.90716 0.31648 0.16699 0.0
C710 C 0.87539 0.27893 0.19347 0.0
C711 C 0.84663 0.25674 0.17981 0.0
C712 C 0.84834 0.26489 0.15965 0.0
C713 C 0.87841 0.29433 0.1533 0.0
C714 C 0.74661 0.19456 0.18739 0.0
C715 C 0.75471 0.17056 0.2029 0.0
C716 C 0.77649 0.22175 0.1794 0.0
C717 C 0.815 0.22545 0.18679 0.0
C718 C 0.82309 0.2001 0.20162 0.0
C719 C 0.79334 0.17296 0.20954 0.0
H720 H 0.12587 0.63187 0.09384 0.0
H721 H 1.03802 0.52399 0.08181 0.0
H722 H 0.13206 0.63938 0.05851 0.0
H723 H 1.04369 0.53196 0.04667 0.0
H724 H 0.08991 0.53371 0.98733 0.0
H725 H 0.089 0.52856 0.02294 0.0
H726 H 0.09653 0.65297 0.02793 0.0
H727 H 0.09783 0.65813 0.99212 0.0
C728 C 0.10779 0.60985 0.08369 0.0
C729 C 0.08153 0.57724 0.09068 0.0
C730 C 0.11123 0.61427 0.06344 0.0
C731 C 0.08855 0.58616 0.04978 0.0
C732 C 1.06212 0.55379 0.05681 0.0
C733 C 1.05869 0.54935 0.07698 0.0
C734 C 0.09135 0.55997 -0.00397 0.0
C735 C 0.09345 0.59623 0.98692 0.0
C736 C 0.09076 0.55702 0.01643 0.0
C737 C 0.09214 0.59024 0.02825 0.0
C738 C 0.09564 0.62686 0.01924 0.0
C739 C 0.09636 0.62983 -0.00125 0.0
H740 H 0.55447 0.98726 0.44774 0.0
H741 H 0.66532 0.0707 0.44997 0.0
H742 H 0.55006 0.98766 0.4119 0.0
H743 H 0.66123 0.07038 0.41402 0.0
H744 H 0.61815 0.09325 0.35037 0.0
H745 H 0.62509 0.09241 0.38634 0.0
H746 H 0.57849 0.96661 0.38425 0.0
H747 H 0.57129 0.96756 0.34833 0.0
C748 C 0.57807 1.00547 0.4406 0.0
C749 C 0.61024 0.02898 0.45175 0.0
C750 C 0.57562 1.00552 0.42002 0.0
C751 C 0.60531 0.02901 0.41008 0.0
C752 C 0.63764 0.05233 0.42122 0.0
C753 C 0.64007 0.05232 0.44183 0.0
C754 C 0.60974 0.0654 0.35761 0.0
C755 C 0.594 0.0305 0.34653 0.0
C756 C 0.61376 0.06489 0.37822 0.0
C757 C 0.60223 0.02945 0.38818 0.0
C758 C 0.58701 0.9945 0.37705 0.0
C759 C 0.58289 0.99503 0.35648 0.0
H760 H 0.58499 0.45351 0.77761 0.0
H761 H 0.52873 0.54872 0.77089 0.0
H762 H 0.59287 0.45421 0.74248 0.0
H763 H 0.53865 0.5513 0.73596 0.0
H764 H 0.52845 0.52145 0.67042 0.0
H765 H 0.51884 0.51992 0.70548 0.0
H766 H 0.62746 0.48867 0.71827 0.0
H767 H 0.6354 0.48791 0.68308 0.0
C768 C 0.57467 0.47487 0.7686 0.0
C769 C 0.55619 0.50098 0.77692 0.0
C770 C 0.57945 0.47555 0.74847 0.0
C771 C 0.56661 0.50298 0.73626 0.0
C772 C 0.54828 0.52926 0.74473 0.0
C773 C 0.54278 0.52799 0.7648 0.0
C774 C 0.55013 0.51431 0.68085 0.0
C775 C 0.58252 0.50464 0.67421 0.0
C776 C 0.54485 0.51365 0.70094 0.0
C777 C 0.57232 0.50408 0.71484 0.0
C778 C 0.60519 0.49524 0.70806 0.0
C779 C 0.61 0.4951 0.68793 0.0
H780 H 0.58588 0.08403 0.57415 0.0
H781 H 0.64217 0.98863 0.57858 0.0
H782 H 0.5809 0.0828 0.60951 0.0
H783 H 0.63523 0.9856 0.61392 0.0
H784 H 0.64621 0.0134 0.68026 0.0
H785 H 0.65536 0.01568 0.64505 0.0
H786 H 0.54616 0.04605 0.63304 0.0
H787 H 0.53861 0.04594 0.66822 0.0
C788 C 0.59695 0.06258 0.58272 0.0
C789 C 0.6143 0.03636 0.57366 0.0
C790 C 0.59381 0.06158 0.603 0.0
C791 C 0.60713 0.0337 0.61465 0.0
C792 C 0.62503 0.00779 0.60553 0.0
C793 C 0.62888 0.00936 0.58526 0.0
C794 C 0.62431 0.02047 0.66996 0.0
C795 C 0.59191 0.0298 0.6768 0.0
C796 C 0.62936 0.02162 0.6498 0.0
C797 C 0.60169 0.03144 0.63611 0.0
C798 C 0.56867 0.03951 0.6431 0.0
C799 C 0.56407 0.03911 0.66323 0.0
H800 H 0.49569 0.44764 0.89799 0.0
H801 H 0.57195 0.56402 0.90136 0.0
H802 H 0.49228 0.44993 0.9338 0.0
H803 H 0.56786 0.56642 0.93695 0.0
H804 H 0.50885 0.5688 -0.00498 0.0
H805 H 0.50972 0.56442 0.95917 0.0
H806 H 0.54617 0.45632 0.96498 0.0
H807 H 0.54591 0.46103 0.00097 0.0
C808 C 0.51146 0.47372 0.90636 0.0
C809 C 0.53412 0.50563 0.89697 0.0
C810 C 0.50966 0.47491 0.92677 0.0
C811 C 0.5298 0.50835 0.93796 0.0
C812 C 0.55197 0.54042 0.92854 0.0
C813 C 0.5544 0.53894 0.90825 0.0
C814 C 0.51683 0.54404 0.98858 0.0
C815 C 0.52732 0.51523 0.00061 0.0
C816 C 0.51747 0.54163 0.96818 0.0
C817 C 0.52794 0.51002 0.95947 0.0
C818 C 0.53777 0.4808 0.97144 0.0
C819 C 0.53785 0.48361 0.99192 0.0
H820 H 1.03794 0.5933 0.2164 0.0
H821 H 0.09522 0.4989 0.21342 0.0
H822 H 1.04205 0.58951 0.25229 0.0
H823 H 0.09945 0.4954 0.24939 0.0
H824 H 0.14544 0.54665 0.3131 0.0
H825 H 0.1367 0.54377 0.27702 0.0
H826 H 1.01638 0.54066 0.27898 0.0
H827 H 1.02512 0.54354 0.31507 0.0
C828 C 1.05119 0.5716 0.22339 0.0
C829 C 1.06642 0.54651 0.21212 0.0
C830 C 1.05332 0.56931 0.24391 0.0
C831 C 0.07117 0.54226 0.25353 0.0
C832 C 0.0858 0.51669 0.24228 0.0
C833 C 0.08319 0.51859 0.22173 0.0
C834 C 0.11716 0.54532 0.30578 0.0
C835 C 0.08597 0.54545 0.31678 0.0
C836 C 0.1121 0.54332 0.2852 0.0
C837 C 0.07587 0.54196 0.2753 0.0
C838 C 1.04462 0.54185 0.28631 0.0
C839 C 1.04957 0.54329 0.30689 0.0
loop_
_geom_bond_atom_site_label_1
_geom_bond_atom_site_label_2
_geom_bond_distance
_geom_bond_site_symmetry_2
_ccdc_geom_bond_type
Dy0 O3 2.307 1_455 S
Dy0 O5 2.395 . S
Dy0 O6 2.379 . S
Dy0 O8 2.339 . S
Dy0 O10 2.298 . S
Dy0 O14 2.275 . S
Dy0 C22 2.738 . S
Dy1 O4 2.298 . S
Dy1 O7 2.275 1_655 S
Dy1 O9 2.307 1_655 S
Dy1 O11 2.395 . S
Dy1 O12 2.379 . S
Dy1 O15 2.339 . S
Dy1 C31 2.738 . S
C2 O14 1.254 . S
C2 O15 1.257 1_455 S
O3 Dy0 2.307 1_655 S
O3 C13 1.266 . S
O4 Dy1 2.298 . S
O4 C13 1.236 . S
O5 Dy0 2.395 . S
O5 C22 1.255 . S
O6 Dy0 2.379 . S
O6 C22 1.249 . S
O7 Dy1 2.275 1_455 S
O7 C23 1.254 . S
O8 Dy0 2.339 . S
O8 C23 1.257 . S
O9 Dy1 2.307 1_455 S
O9 C24 1.266 . S
O10 Dy0 2.298 . S
O10 C24 1.236 . S
O11 Dy1 2.395 . S
O11 C31 1.255 . S
O12 Dy1 2.379 . S
O12 C31 1.249 . S
C13 O3 1.266 . S
C13 O4 1.236 . S
O14 Dy0 2.275 . S
O14 C2 1.254 . S
O15 Dy1 2.339 . S
O15 C2 1.257 1_655 S
C16 C19 1.344 . S
C16 C20 1.328 . S
C16 C22 1.516 . S
C17 C18 1.304 . S
C17 C21 1.323 . S
C18 C17 1.304 . S
C18 C19 1.371 . S
C18 H32 0.930 . S
C19 C16 1.344 . S
C19 C18 1.371 . S
C19 H33 0.931 . S
C20 C16 1.328 . S
C20 C21 1.433 . S
C20 H34 0.931 . S
C21 C17 1.323 . S
C21 C20 1.433 . S
C21 H35 0.933 . S
C22 Dy0 2.738 . S
C22 O5 1.255 . S
C22 O6 1.249 . S
C22 C16 1.516 . S
C23 O7 1.254 . S
C23 O8 1.257 . S
C24 O9 1.266 . S
C24 O10 1.236 . S
C25 C28 1.344 . S
C25 C29 1.328 . S
C25 C31 1.516 . S
C26 C27 1.304 . S
C26 C30 1.323 . S
C27 C26 1.304 . S
C27 C28 1.371 . S
C27 H36 0.930 . S
C28 C25 1.344 . S
C28 C27 1.371 . S
C28 H37 0.931 . S
C29 C25 1.328 . S
C29 C30 1.433 . S
C29 H38 0.931 . S
C30 C26 1.323 . S
C30 C29 1.433 . S
C30 H39 0.933 . S
C31 Dy1 2.738 . S
C31 O11 1.255 . S
C31 O12 1.249 . S
C31 C25 1.516 . S
H32 C18 0.930 . S
H33 C19 0.931 . S
H34 C20 0.931 . S
H35 C21 0.933 . S
H36 C27 0.930 . S
H37 C28 0.931 . S
H38 C29 0.931 . S
H39 C30 0.933 . S
Dy40 O43 2.307 . S
Dy40 O45 2.395 1_545 S
Dy40 O46 2.379 1_545 S
Dy40 O48 2.339 . S
Dy40 O50 2.298 1_545 S
Dy40 O54 2.275 . S
Dy40 C62 2.738 1_545 S
Dy41 O44 2.298 . S
Dy41 O47 2.275 . S
Dy41 O49 2.307 1_545 S
Dy41 O51 2.395 . S
Dy41 O52 2.379 . S
Dy41 O55 2.339 . S
Dy41 C71 2.738 . S
C42 O54 1.254 . S
C42 O55 1.257 . S
O43 Dy40 2.307 . S
O43 C53 1.266 . S
O44 Dy41 2.298 . S
O44 C53 1.236 . S
O45 Dy40 2.395 1_565 S
O45 C62 1.255 . S
O46 Dy40 2.379 1_565 S
O46 C62 1.249 . S
O47 Dy41 2.275 . S
O47 C63 1.254 . S
O48 Dy40 2.339 . S
O48 C63 1.257 . S
O49 Dy41 2.307 1_565 S
O49 C64 1.266 . S
O50 Dy40 2.298 1_565 S
O50 C64 1.236 . S
O51 Dy41 2.395 . S
O51 C71 1.255 . S
O52 Dy41 2.379 . S
O52 C71 1.249 . S
C53 O43 1.266 . S
C53 O44 1.236 . S
O54 Dy40 2.275 . S
O54 C42 1.254 . S
O55 Dy41 2.339 . S
O55 C42 1.257 . S
C56 C59 1.344 . S
C56 C60 1.328 . S
C56 C62 1.516 . S
C57 C58 1.304 . S
C57 C61 1.323 . S
C58 C57 1.304 . S
C58 C59 1.371 . S
C58 H72 0.930 . S
C59 C56 1.344 . S
C59 C58 1.371 . S
C59 H73 0.931 . S
C60 C56 1.328 . S
C60 C61 1.433 . S
C60 H74 0.931 . S
C61 C57 1.323 . S
C61 C60 1.433 . S
C61 H75 0.933 . S
C62 Dy40 2.738 1_565 S
C62 O45 1.255 . S
C62 O46 1.249 . S
C62 C56 1.516 . S
C63 O47 1.254 . S
C63 O48 1.257 . S
C64 O49 1.266 . S
C64 O50 1.236 . S
C65 C68 1.344 . S
C65 C69 1.328 . S
C65 C71 1.516 . S
C66 C67 1.304 . S
C66 C70 1.323 . S
C67 C66 1.304 . S
C67 C68 1.371 . S
C67 H76 0.930 . S
C68 C65 1.344 . S
C68 C67 1.371 . S
C68 H77 0.931 . S
C69 C65 1.328 . S
C69 C70 1.433 . S
C69 H78 0.931 . S
C70 C66 1.323 . S
C70 C69 1.433 . S
C70 H79 0.933 . S
C71 Dy41 2.738 . S
C71 O51 1.255 . S
C71 O52 1.249 . S
C71 C65 1.516 . S
H72 C58 0.930 . S
H73 C59 0.931 . S
H74 C60 0.931 . S
H75 C61 0.933 . S
H76 C67 0.930 . S
H77 C68 0.931 . S
H78 C69 0.931 . S
H79 C70 0.933 . S
Dy80 O83 2.307 . S
Dy80 O85 2.395 . S
Dy80 O86 2.379 . S
Dy80 O88 2.339 . S
Dy80 O90 2.298 . S
Dy80 O94 2.275 . S
Dy80 C102 2.738 . S
Dy81 O84 2.298 . S
Dy81 O87 2.275 . S
Dy81 O89 2.307 . S
Dy81 O91 2.395 . S
Dy81 O92 2.379 . S
Dy81 O95 2.339 . S
Dy81 C111 2.738 . S
C82 O94 1.254 . S
C82 O95 1.257 . S
O83 Dy80 2.307 . S
O83 C93 1.266 . S
O84 Dy81 2.298 . S
O84 C93 1.236 . S
O85 Dy80 2.395 . S
O85 C102 1.255 . S
O86 Dy80 2.379 . S
O86 C102 1.249 . S
O87 Dy81 2.275 . S
O87 C103 1.254 . S
O88 Dy80 2.339 . S
O88 C103 1.257 . S
O89 Dy81 2.307 . S
O89 C104 1.266 . S
O90 Dy80 2.298 . S
O90 C104 1.236 . S
O91 Dy81 2.395 . S
O91 C111 1.255 . S
O92 Dy81 2.379 . S
O92 C111 1.249 . S
C93 O83 1.266 . S
C93 O84 1.236 . S
O94 Dy80 2.275 . S
O94 C82 1.254 . S
O95 Dy81 2.339 . S
O95 C82 1.257 . S
C96 C99 1.344 . S
C96 C100 1.328 . S
C96 C102 1.516 . S
C97 C98 1.304 . S
C97 C101 1.323 . S
C98 C97 1.304 . S
C98 C99 1.371 . S
C98 H112 0.930 . S
C99 C96 1.344 . S
C99 C98 1.371 . S
C99 H113 0.931 . S
C100 C96 1.328 . S
C100 C101 1.433 . S
C100 H114 0.931 . S
C101 C97 1.323 . S
C101 C100 1.433 . S
C101 H115 0.933 . S
C102 Dy80 2.738 . S
C102 O85 1.255 . S
C102 O86 1.249 . S
C102 C96 1.516 . S
C103 O87 1.254 . S
C103 O88 1.257 . S
C104 O89 1.266 . S
C104 O90 1.236 . S
C105 C108 1.344 . S
C105 C109 1.328 . S
C105 C111 1.516 . S
C106 C107 1.304 . S
C106 C110 1.323 . S
C107 C106 1.304 . S
C107 C108 1.371 . S
C107 H116 0.930 . S
C108 C105 1.344 . S
C108 C107 1.371 . S
C108 H117 0.931 . S
C109 C105 1.328 . S
C109 C110 1.433 . S
C109 H118 0.931 . S
C110 C106 1.323 . S
C110 C109 1.433 . S
C110 H119 0.933 . S
C111 Dy81 2.738 . S
C111 O91 1.255 . S
C111 O92 1.249 . S
C111 C105 1.516 . S
H112 C98 0.930 . S
H113 C99 0.931 . S
H114 C100 0.931 . S
H115 C101 0.933 . S
H116 C107 0.930 . S
H117 C108 0.931 . S
H118 C109 0.931 . S
H119 C110 0.933 . S
C120 C121 1.391 . S
C120 C124 1.391 . S
C120 H162 0.948 . S
C121 C120 1.391 . S
C121 C122 1.391 . S
C122 C121 1.391 . S
C122 H178 0.947 . S
C122 C179 1.392 . S
C123 C124 1.391 . S
C123 C127 1.397 . S
C123 C179 1.419 . S
C124 C120 1.391 . S
C124 C123 1.391 . S
C124 C125 1.399 . S
C125 C124 1.399 . S
C125 C128 1.396 . S
C125 C137 1.453 . S
C125 C138 1.684 . S
H126 C150 0.948 . S
C127 C123 1.397 . S
C127 C128 1.394 . S
C127 C146 1.723 . S
C128 C125 1.396 . S
C128 C127 1.394 . S
C128 C158 1.723 . S
H129 C152 0.947 . S
H130 C153 0.948 . S
H131 C159 0.982 . S
H132 C160 0.979 1_545 S
H133 C160 0.980 . S
H134 C160 0.983 . S
H135 C159 0.979 . S
H136 C159 0.977 . S
C137 C125 1.453 . S
C137 H166 0.982 . S
C137 H167 0.979 . S
C137 H168 0.977 . S
C138 C125 1.684 . S
C138 H163 0.979 . S
C138 H164 0.980 . S
C138 H165 0.983 . S
C139 C140 1.391 . S
C139 C144 1.391 . S
C139 H169 0.948 . S
C140 C139 1.391 . S
C140 C141 1.391 . S
C141 C140 1.391 . S
C141 C142 1.392 . S
C141 H170 0.947 . S
C142 C141 1.392 . S
C142 C143 1.419 . S
C142 H171 0.948 . S
C143 C142 1.419 . S
C143 C144 1.391 . S
C143 C147 1.397 . S
C144 C139 1.391 . S
C144 C143 1.391 . S
C144 C145 1.399 . S
C145 C144 1.399 . S
C145 C146 1.396 . S
C145 C148 1.453 . S
C145 C149 1.684 . S
C146 C127 1.723 . S
C146 C145 1.396 . S
C146 C147 1.394 . S
C147 C143 1.397 . S
C147 C146 1.394 . S
C147 C157 1.723 . S
C148 C145 1.453 . S
C148 H172 0.982 . S
C148 H173 0.979 . S
C148 H174 0.977 . S
C149 C145 1.684 . S
C149 H175 0.979 . S
C149 H176 0.980 . S
C149 H177 0.983 . S
C150 H126 0.948 . S
C150 C151 1.391 . S
C150 C155 1.391 . S
C151 C150 1.391 . S
C151 C152 1.391 . S
C152 H129 0.947 . S
C152 C151 1.391 . S
C152 C153 1.392 1_565 S
C153 H130 0.948 . S
C153 C152 1.392 1_545 S
C153 C154 1.419 . S
C154 C153 1.419 . S
C154 C155 1.391 1_545 S
C154 C158 1.397 . S
C155 C150 1.391 . S
C155 C154 1.391 1_565 S
C155 C156 1.399 . S
C156 C155 1.399 . S
C156 C157 1.396 1_565 S
C156 C159 1.453 . S
C156 C160 1.684 . S
C157 C147 1.723 . S
C157 C156 1.396 1_545 S
C157 C158 1.394 . S
C158 C128 1.723 . S
C158 C154 1.397 . S
C158 C157 1.394 . S
C159 H131 0.982 . S
C159 H135 0.979 . S
C159 H136 0.977 . S
C159 C156 1.453 . S
C160 H132 0.979 1_565 S
C160 H133 0.980 . S
C160 H134 0.983 . S
C160 C156 1.684 . S
H161 C179 0.948 . S
H162 C120 0.948 . S
H163 C138 0.979 . S
H164 C138 0.980 . S
H165 C138 0.983 . S
H166 C137 0.982 . S
H167 C137 0.979 . S
H168 C137 0.977 . S
H169 C139 0.948 . S
H170 C141 0.947 . S
H171 C142 0.948 . S
H172 C148 0.982 . S
H173 C148 0.979 . S
H174 C148 0.977 . S
H175 C149 0.979 . S
H176 C149 0.980 . S
H177 C149 0.983 . S
H178 C122 0.947 . S
C179 C122 1.392 . S
C179 C123 1.419 . S
C179 H161 0.948 . S
C180 C181 1.391 . S
C180 C184 1.391 . S
C180 H222 0.948 . S
C181 C180 1.391 . S
C181 C182 1.391 . S
C182 C181 1.391 . S
C182 H238 0.947 . S
C182 C239 1.392 . S
C183 C184 1.391 . S
C183 C187 1.397 . S
C183 C239 1.419 . S
C184 C180 1.391 . S
C184 C183 1.391 . S
C184 C185 1.399 . S
C185 C184 1.399 . S
C185 C188 1.396 . S
C185 C197 1.453 . S
C185 C198 1.684 . S
H186 C210 0.948 . S
C187 C183 1.397 . S
C187 C188 1.394 . S
C187 C206 1.723 . S
C188 C185 1.396 . S
C188 C187 1.394 . S
C188 C218 1.723 . S
H189 C212 0.947 . S
H190 C213 0.948 . S
H191 C219 0.982 . S
H192 C220 0.979 . S
H193 C220 0.980 . S
H194 C220 0.983 . S
H195 C219 0.979 . S
H196 C219 0.977 . S
C197 C185 1.453 . S
C197 H226 0.982 . S
C197 H227 0.979 . S
C197 H228 0.977 . S
C198 C185 1.684 . S
C198 H223 0.979 . S
C198 H224 0.980 . S
C198 H225 0.983 . S
C199 C200 1.391 . S
C199 C204 1.391 . S
C199 H229 0.948 . S
C200 C199 1.391 . S
C200 C201 1.391 . S
C201 C200 1.391 . S
C201 C202 1.392 . S
C201 H230 0.947 . S
C202 C201 1.392 . S
C202 C203 1.419 . S
C202 H231 0.948 . S
C203 C202 1.419 . S
C203 C204 1.391 . S
C203 C207 1.397 . S
C204 C199 1.391 . S
C204 C203 1.391 . S
C204 C205 1.399 . S
C205 C204 1.399 . S
C205 C206 1.396 . S
C205 C208 1.453 . S
C205 C209 1.684 . S
C206 C187 1.723 . S
C206 C205 1.396 . S
C206 C207 1.394 . S
C207 C203 1.397 . S
C207 C206 1.394 . S
C207 C217 1.723 . S
C208 C205 1.453 . S
C208 H232 0.982 . S
C208 H233 0.979 . S
C208 H234 0.977 . S
C209 C205 1.684 . S
C209 H235 0.979 . S
C209 H236 0.980 . S
C209 H237 0.983 . S
C210 H186 0.948 . S
C210 C211 1.391 . S
C210 C215 1.391 . S
C211 C210 1.391 . S
C211 C212 1.391 . S
C212 H189 0.947 . S
C212 C211 1.391 . S
C212 C213 1.392 . S
C213 H190 0.948 . S
C213 C212 1.392 . S
C213 C214 1.419 . S
C214 C213 1.419 . S
C214 C215 1.391 . S
C214 C218 1.397 . S
C215 C210 1.391 . S
C215 C214 1.391 . S
C215 C216 1.399 . S
C216 C215 1.399 . S
C216 C217 1.396 . S
C216 C219 1.453 . S
C216 C220 1.684 . S
C217 C207 1.723 . S
C217 C216 1.396 . S
C217 C218 1.394 . S
C218 C188 1.723 . S
C218 C214 1.397 . S
C218 C217 1.394 . S
C219 H191 0.982 . S
C219 H195 0.979 . S
C219 H196 0.977 . S
C219 C216 1.453 . S
C220 H192 0.979 . S
C220 H193 0.980 . S
C220 H194 0.983 . S
C220 C216 1.684 . S
H221 C239 0.948 . S
H222 C180 0.948 . S
H223 C198 0.979 . S
H224 C198 0.980 . S
H225 C198 0.983 . S
H226 C197 0.982 . S
H227 C197 0.979 . S
H228 C197 0.977 . S
H229 C199 0.948 . S
H230 C201 0.947 . S
H231 C202 0.948 . S
H232 C208 0.982 . S
H233 C208 0.979 . S
H234 C208 0.977 . S
H235 C209 0.979 . S
H236 C209 0.980 . S
H237 C209 0.983 . S
H238 C182 0.947 . S
C239 C182 1.392 . S
C239 C183 1.419 . S
C239 H221 0.948 . S
C240 C241 1.391 . S
C240 C244 1.391 . S
C240 H282 0.948 . S
C241 C240 1.391 . S
C241 C242 1.391 . S
C242 C241 1.391 . S
C242 H298 0.947 . S
C242 C299 1.392 . S
C243 C244 1.391 . S
C243 C247 1.397 . S
C243 C299 1.419 . S
C244 C240 1.391 . S
C244 C243 1.391 . S
C244 C245 1.399 . S
C245 C244 1.399 . S
C245 C248 1.396 . S
C245 C257 1.453 . S
C245 C258 1.684 . S
H246 C270 0.948 . S
C247 C243 1.397 . S
C247 C248 1.394 . S
C247 C266 1.723 . S
C248 C245 1.396 . S
C248 C247 1.394 . S
C248 C278 1.723 1_455 S
H249 C272 0.947 . S
H250 C273 0.948 . S
H251 C279 0.982 . S
H252 C280 0.979 . S
H253 C280 0.980 . S
H254 C280 0.983 . S
H255 C279 0.979 . S
H256 C279 0.977 . S
C257 C245 1.453 . S
C257 H286 0.982 . S
C257 H287 0.979 . S
C257 H288 0.957 1_455 S
C258 C245 1.684 . S
C258 H283 0.979 . S
C258 H284 0.980 . S
C258 H285 0.983 . S
C259 C260 1.391 . S
C259 C264 1.391 . S
C259 H289 0.948 . S
C260 C259 1.391 . S
C260 C261 1.391 1_455 S
C261 C260 1.391 1_655 S
C261 C262 1.392 . S
C261 H290 0.947 . S
C262 C261 1.392 . S
C262 C263 1.419 1_655 S
C262 H291 0.948 . S
C263 C262 1.419 1_455 S
C263 C264 1.391 . S
C263 C267 1.397 . S
C264 C259 1.391 . S
C264 C263 1.391 . S
C264 C265 1.399 . S
C265 C264 1.399 . S
C265 C266 1.396 . S
C265 C268 1.453 . S
C265 C269 1.684 . S
C266 C247 1.723 . S
C266 C265 1.396 . S
C266 C267 1.394 . S
C267 C263 1.397 . S
C267 C266 1.394 . S
C267 C277 1.723 1_455 S
C268 C265 1.453 . S
C268 H292 0.982 . S
C268 H293 0.979 . S
C268 H294 0.977 . S
C269 C265 1.684 . S
C269 H295 0.979 . S
C269 H296 0.980 . S
C269 H297 0.983 . S
C270 H246 0.948 . S
C270 C271 1.391 . S
C270 C275 1.391 . S
C271 C270 1.391 . S
C271 C272 1.391 . S
C272 H249 0.947 . S
C272 C271 1.391 . S
C272 C273 1.392 . S
C273 H250 0.948 . S
C273 C272 1.392 . S
C273 C274 1.419 . S
C274 C273 1.419 . S
C274 C275 1.391 . S
C274 C278 1.397 . S
C275 C270 1.391 . S
C275 C274 1.391 . S
C275 C276 1.399 . S
C276 C275 1.399 . S
C276 C277 1.396 . S
C276 C279 1.453 . S
C276 C280 1.684 . S
C277 C267 1.723 1_655 S
C277 C276 1.396 . S
C277 C278 1.394 . S
C278 C248 1.723 1_655 S
C278 C274 1.397 . S
C278 C277 1.394 . S
C279 H251 0.982 . S
C279 H255 0.979 . S
C279 H256 0.977 . S
C279 C276 1.453 . S
C280 H252 0.979 . S
C280 H253 0.980 . S
C280 H254 0.983 . S
C280 C276 1.684 . S
H281 C299 0.948 . S
H282 C240 0.948 . S
H283 C258 0.979 . S
H284 C258 0.980 . S
H285 C258 0.983 . S
H286 C257 0.982 . S
H287 C257 0.979 . S
H288 C257 0.957 1_655 S
H289 C259 0.948 . S
H290 C261 0.947 . S
H291 C262 0.948 . S
H292 C268 0.982 . S
H293 C268 0.979 . S
H294 C268 0.977 . S
H295 C269 0.979 . S
H296 C269 0.980 . S
H297 C269 0.983 . S
H298 C242 0.947 . S
C299 C242 1.392 . S
C299 C243 1.419 . S
C299 H281 0.948 . S
C300 C301 1.391 . S
C300 C304 1.391 . S
C300 H342 0.948 . S
C301 C300 1.391 . S
C301 C302 1.391 . S
C302 C301 1.391 . S
C302 H358 0.947 . S
C302 C359 1.392 . S
C303 C304 1.391 . S
C303 C307 1.397 . S
C303 C359 1.419 . S
C304 C300 1.391 . S
C304 C303 1.391 . S
C304 C305 1.399 . S
C305 C304 1.399 . S
C305 C308 1.396 1_655 S
C305 C317 1.453 1_655 S
C305 C318 1.684 . S
H306 C330 0.948 . S
C307 C303 1.397 . S
C307 C308 1.394 1_655 S
C307 C326 1.723 . S
C308 C305 1.396 1_455 S
C308 C307 1.394 1_455 S
C308 C338 1.723 . S
H309 C332 0.947 . S
H310 C333 0.948 . S
H311 C339 0.982 . S
H312 C340 0.979 . S
H313 C340 0.980 . S
H314 C340 0.983 . S
H315 C339 0.979 . S
H316 C339 0.977 . S
C317 C305 1.453 1_455 S
C317 H346 0.982 . S
C317 H347 0.979 . S
C317 H348 0.977 . S
C318 C305 1.684 . S
C318 H343 0.979 . S
C318 H344 0.980 1_655 S
C318 H345 0.983 . S
C319 C320 1.385 1_655 S
C319 C324 1.391 . S
C319 H349 0.948 . S
C320 C319 1.385 1_455 S
C320 C321 1.398 . S
C321 C320 1.398 . S
C321 C322 1.392 . S
C321 H350 0.947 . S
C322 C321 1.392 . S
C322 C323 1.419 . S
C322 H351 0.948 . S
C323 C322 1.419 . S
C323 C324 1.391 1_455 S
C323 C327 1.397 . S
C324 C319 1.391 . S
C324 C323 1.391 1_655 S
C324 C325 1.399 . S
C325 C324 1.399 . S
C325 C326 1.396 . S
C325 C328 1.453 . S
C325 C329 1.684 . S
C326 C307 1.723 . S
C326 C325 1.396 . S
C326 C327 1.394 1_655 S
C327 C323 1.397 . S
C327 C326 1.394 1_455 S
C327 C337 1.723 . S
C328 C325 1.453 . S
C328 H352 0.982 . S
C328 H353 0.979 . S
C328 H354 0.977 . S
C329 C325 1.684 . S
C329 H355 0.979 . S
C329 H356 0.980 . S
C329 H357 0.983 . S
C330 H306 0.948 . S
C330 C331 1.391 . S
C330 C335 1.391 . S
C331 C330 1.391 . S
C331 C332 1.391 . S
C332 H309 0.947 . S
C332 C331 1.391 . S
C332 C333 1.392 . S
C333 H310 0.948 . S
C333 C332 1.392 . S
C333 C334 1.419 . S
C334 C333 1.419 . S
C334 C335 1.391 . S
C334 C338 1.397 . S
C335 C330 1.391 . S
C335 C334 1.391 . S
C335 C336 1.399 . S
C336 C335 1.399 . S
C336 C337 1.396 . S
C336 C339 1.453 . S
C336 C340 1.684 . S
C337 C327 1.723 . S
C337 C336 1.396 . S
C337 C338 1.394 . S
C338 C308 1.723 . S
C338 C334 1.397 . S
C338 C337 1.394 . S
C339 H311 0.982 . S
C339 H315 0.979 . S
C339 H316 0.977 . S
C339 C336 1.453 . S
C340 H312 0.979 . S
C340 H313 0.980 . S
C340 H314 0.983 . S
C340 C336 1.684 . S
H341 C359 0.948 . S
H342 C300 0.948 . S
H343 C318 0.979 . S
H344 C318 0.980 1_455 S
H345 C318 0.983 . S
H346 C317 0.982 . S
H347 C317 0.979 . S
H348 C317 0.977 . S
H349 C319 0.948 . S
H350 C321 0.947 . S
H351 C322 0.948 . S
H352 C328 0.982 . S
H353 C328 0.979 . S
H354 C328 0.977 . S
H355 C329 0.979 . S
H356 C329 0.980 . S
H357 C329 0.983 . S
H358 C302 0.947 . S
C359 C302 1.392 . S
C359 C303 1.419 . S
C359 H341 0.948 . S
C360 C361 1.391 . S
C360 C364 1.391 . S
C360 H402 0.948 . S
C361 C360 1.391 . S
C361 C362 1.391 . S
C362 C361 1.391 . S
C362 H418 0.947 . S
C362 C419 1.392 . S
C363 C364 1.391 . S
C363 C367 1.397 . S
C363 C419 1.419 . S
C364 C360 1.391 . S
C364 C363 1.391 . S
C364 C365 1.399 . S
C365 C364 1.399 . S
C365 C368 1.396 . S
C365 C377 1.453 . S
C365 C378 1.684 . S
H366 C390 0.948 . S
C367 C363 1.397 . S
C367 C368 1.394 . S
C367 C386 1.723 . S
C368 C365 1.396 . S
C368 C367 1.394 . S
C368 C398 1.723 1_565 S
H369 C392 0.947 . S
H370 C393 0.948 . S
H371 C399 0.982 . S
H372 C400 0.979 . S
H373 C400 0.980 . S
H374 C400 0.983 . S
H375 C399 0.979 . S
H376 C399 0.977 . S
C377 C365 1.453 . S
C377 H406 0.982 . S
C377 H407 0.979 . S
C377 H408 0.977 1_565 S
C378 C365 1.684 . S
C378 H403 0.979 . S
C378 H404 0.953 1_565 S
C378 H405 0.983 . S
C379 C380 1.391 1_565 S
C379 C384 1.391 . S
C379 H409 0.948 . S
C380 C379 1.391 1_545 S
C380 C381 1.391 . S
C381 C380 1.391 . S
C381 C382 1.392 . S
C381 H410 0.947 . S
C382 C381 1.392 . S
C382 C383 1.419 . S
C382 H411 0.948 . S
C383 C382 1.419 . S
C383 C384 1.391 1_545 S
C383 C387 1.397 . S
C384 C379 1.391 . S
C384 C383 1.391 1_565 S
C384 C385 1.399 . S
C385 C384 1.399 . S
C385 C386 1.396 . S
C385 C388 1.453 . S
C385 C389 1.684 . S
C386 C367 1.723 . S
C386 C385 1.396 . S
C386 C387 1.394 1_565 S
C387 C383 1.397 . S
C387 C386 1.394 1_545 S
C387 C397 1.723 . S
C388 C385 1.453 . S
C388 H412 0.982 . S
C388 H413 0.979 . S
C388 H414 0.977 . S
C389 C385 1.684 . S
C389 H415 0.979 . S
C389 H416 0.980 . S
C389 H417 0.983 . S
C390 H366 0.948 . S
C390 C391 1.391 . S
C390 C395 1.391 . S
C391 C390 1.391 . S
C391 C392 1.391 . S
C392 H369 0.947 . S
C392 C391 1.391 . S
C392 C393 1.392 . S
C393 H370 0.948 . S
C393 C392 1.392 . S
C393 C394 1.419 . S
C394 C393 1.419 . S
C394 C395 1.391 . S
C394 C398 1.397 . S
C395 C390 1.391 . S
C395 C394 1.391 . S
C395 C396 1.399 . S
C396 C395 1.399 . S
C396 C397 1.396 . S
C396 C399 1.453 . S
C396 C400 1.684 . S
C397 C387 1.723 . S
C397 C396 1.396 . S
C397 C398 1.394 . S
C398 C368 1.723 1_545 S
C398 C394 1.397 . S
C398 C397 1.394 . S
C399 H371 0.982 . S
C399 H375 0.979 . S
C399 H376 0.977 . S
C399 C396 1.453 . S
C400 H372 0.979 . S
C400 H373 0.980 . S
C400 H374 0.983 . S
C400 C396 1.684 . S
H401 C419 0.948 . S
H402 C360 0.948 . S
H403 C378 0.979 . S
H404 C378 0.953 1_545 S
H405 C378 0.983 . S
H406 C377 0.982 . S
H407 C377 0.979 . S
H408 C377 0.977 1_545 S
H409 C379 0.948 . S
H410 C381 0.947 . S
H411 C382 0.948 . S
H412 C388 0.982 . S
H413 C388 0.979 . S
H414 C388 0.977 . S
H415 C389 0.979 . S
H416 C389 0.980 . S
H417 C389 0.983 . S
H418 C362 0.947 . S
C419 C362 1.392 . S
C419 C363 1.419 . S
C419 H401 0.948 . S
C420 C421 1.391 . S
C420 C424 1.391 . S
C420 H462 0.948 . S
C421 C420 1.391 . S
C421 C422 1.391 . S
C422 C421 1.391 . S
C422 H478 0.947 . S
C422 C479 1.392 . S
C423 C424 1.391 . S
C423 C427 1.397 . S
C423 C479 1.419 . S
C424 C420 1.391 . S
C424 C423 1.391 . S
C424 C425 1.399 . S
C425 C424 1.399 . S
C425 C428 1.396 . S
C425 C437 1.453 . S
C425 C438 1.684 . S
H426 C450 0.948 . S
C427 C423 1.397 . S
C427 C428 1.394 . S
C427 C446 1.723 . S
C428 C425 1.396 . S
C428 C427 1.394 . S
C428 C458 1.723 . S
H429 C452 0.947 . S
H430 C453 0.948 . S
H431 C459 0.982 . S
H432 C460 0.979 . S
H433 C460 0.980 . S
H434 C460 0.983 . S
H435 C459 0.979 . S
H436 C459 0.977 . S
C437 C425 1.453 . S
C437 H466 0.982 . S
C437 H467 0.979 . S
C437 H468 0.977 . S
C438 C425 1.684 . S
C438 H463 0.979 . S
C438 H464 0.980 . S
C438 H465 0.983 . S
C439 C440 1.391 . S
C439 C444 1.391 . S
C439 H469 0.948 . S
C440 C439 1.391 . S
C440 C441 1.391 . S
C441 C440 1.391 . S
C441 C442 1.392 . S
C441 H470 0.947 . S
C442 C441 1.392 . S
C442 C443 1.419 . S
C442 H471 0.948 . S
C443 C442 1.419 . S
C443 C444 1.391 . S
C443 C447 1.397 . S
C444 C439 1.391 . S
C444 C443 1.391 . S
C444 C445 1.399 . S
C445 C444 1.399 . S
C445 C446 1.396 . S
C445 C448 1.453 . S
C445 C449 1.684 . S
C446 C427 1.723 . S
C446 C445 1.396 . S
C446 C447 1.394 . S
C447 C443 1.397 . S
C447 C446 1.394 . S
C447 C457 1.723 . S
C448 C445 1.453 . S
C448 H472 0.982 . S
C448 H473 0.979 . S
C448 H474 0.977 . S
C449 C445 1.684 . S
C449 H475 0.979 . S
C449 H476 0.980 . S
C449 H477 0.983 . S
C450 H426 0.948 . S
C450 C451 1.391 . S
C450 C455 1.391 . S
C451 C450 1.391 . S
C451 C452 1.391 . S
C452 H429 0.947 . S
C452 C451 1.391 . S
C452 C453 1.392 . S
C453 H430 0.948 . S
C453 C452 1.392 . S
C453 C454 1.419 . S
C454 C453 1.419 . S
C454 C455 1.391 . S
C454 C458 1.397 . S
C455 C450 1.391 . S
C455 C454 1.391 . S
C455 C456 1.399 . S
C456 C455 1.399 . S
C456 C457 1.396 . S
C456 C459 1.453 . S
C456 C460 1.684 . S
C457 C447 1.723 . S
C457 C456 1.396 . S
C457 C458 1.394 . S
C458 C428 1.723 . S
C458 C454 1.397 . S
C458 C457 1.394 . S
C459 H431 0.982 . S
C459 H435 0.979 . S
C459 H436 0.977 . S
C459 C456 1.453 . S
C460 H432 0.979 . S
C460 H433 0.980 . S
C460 H434 0.983 . S
C460 C456 1.684 . S
H461 C479 0.948 . S
H462 C420 0.948 . S
H463 C438 0.979 . S
H464 C438 0.980 . S
H465 C438 0.983 . S
H466 C437 0.982 . S
H467 C437 0.979 . S
H468 C437 0.977 . S
H469 C439 0.948 . S
H470 C441 0.947 . S
H471 C442 0.948 . S
H472 C448 0.982 . S
H473 C448 0.979 . S
H474 C448 0.977 . S
H475 C449 0.979 . S
H476 C449 0.980 . S
H477 C449 0.983 . S
H478 C422 0.947 . S
C479 C422 1.392 . S
C479 C423 1.419 . S
C479 H461 0.948 . S
H480 C488 0.950 . S
H481 C493 0.950 . S
H482 C490 0.950 . S
H483 C492 0.950 . S
H484 C494 0.950 . S
H485 C496 0.950 . S
H486 C498 0.950 . S
H487 C499 0.950 . S
C488 H480 0.950 . S
C488 C489 1.386 . S
C488 C490 1.391 . S
C489 C488 1.386 . S
C489 C493 1.393 . S
C490 H482 0.950 . S
C490 C488 1.391 . S
C490 C491 1.400 . S
C491 C490 1.400 . S
C491 C492 1.398 . S
C491 C497 1.491 . S
C492 H483 0.950 . S
C492 C491 1.398 . S
C492 C493 1.391 . S
C493 H481 0.950 . S
C493 C489 1.393 . S
C493 C492 1.391 . S
C494 H484 0.950 . S
C494 C495 1.386 . S
C494 C496 1.391 . S
C495 C494 1.386 . S
C495 C499 1.393 . S
C496 H485 0.950 . S
C496 C494 1.391 . S
C496 C497 1.400 . S
C497 C491 1.491 . S
C497 C496 1.400 . S
C497 C498 1.398 . S
C498 H486 0.950 . S
C498 C497 1.398 . S
C498 C499 1.391 . S
C499 H487 0.950 . S
C499 C495 1.393 . S
C499 C498 1.391 . S
H500 C508 0.950 . S
H501 C513 0.950 . S
H502 C510 0.950 . S
H503 C512 0.950 . S
H504 C514 0.950 . S
H505 C516 0.950 . S
H506 C518 0.950 . S
H507 C519 0.950 . S
C508 H500 0.950 . S
C508 C509 1.386 . S
C508 C510 1.391 . S
C509 C508 1.386 . S
C509 C513 1.393 . S
C510 H502 0.950 . S
C510 C508 1.391 . S
C510 C511 1.400 . S
C511 C510 1.400 . S
C511 C512 1.398 . S
C511 C517 1.491 . S
C512 H503 0.950 . S
C512 C511 1.398 . S
C512 C513 1.391 . S
C513 H501 0.950 . S
C513 C509 1.393 . S
C513 C512 1.391 . S
C514 H504 0.950 . S
C514 C515 1.386 . S
C514 C516 1.391 . S
C515 C514 1.386 . S
C515 C519 1.393 . S
C516 H505 0.950 . S
C516 C514 1.391 . S
C516 C517 1.400 . S
C517 C511 1.491 . S
C517 C516 1.400 . S
C517 C518 1.398 . S
C518 H506 0.950 . S
C518 C517 1.398 . S
C518 C519 1.391 . S
C519 H507 0.950 . S
C519 C515 1.393 . S
C519 C518 1.391 . S
H520 C528 0.950 . S
H521 C533 0.950 . S
H522 C530 0.950 . S
H523 C532 0.950 . S
H524 C534 0.950 . S
H525 C536 0.950 . S
H526 C538 0.950 . S
H527 C539 0.950 . S
C528 H520 0.950 . S
C528 C529 1.386 . S
C528 C530 1.391 . S
C529 C528 1.386 . S
C529 C533 1.393 . S
C530 H522 0.950 . S
C530 C528 1.391 . S
C530 C531 1.400 . S
C531 C530 1.400 . S
C531 C532 1.398 . S
C531 C537 1.491 . S
C532 H523 0.950 . S
C532 C531 1.398 . S
C532 C533 1.391 . S
C533 H521 0.950 . S
C533 C529 1.393 . S
C533 C532 1.391 . S
C534 H524 0.950 . S
C534 C535 1.386 . S
C534 C536 1.391 . S
C535 C534 1.386 . S
C535 C539 1.393 . S
C536 H525 0.950 . S
C536 C534 1.391 . S
C536 C537 1.400 . S
C537 C531 1.491 . S
C537 C536 1.400 . S
C537 C538 1.398 . S
C538 H526 0.950 . S
C538 C537 1.398 . S
C538 C539 1.391 . S
C539 H527 0.950 . S
C539 C535 1.393 . S
C539 C538 1.391 . S
H540 C548 0.950 . S
H541 C553 0.950 . S
H542 C550 0.950 . S
H543 C552 0.950 . S
H544 C554 0.950 . S
H545 C556 0.950 . S
H546 C558 0.950 . S
H547 C559 0.950 . S
C548 H540 0.950 . S
C548 C549 1.386 . S
C548 C550 1.391 . S
C549 C548 1.386 . S
C549 C553 1.393 . S
C550 H542 0.950 . S
C550 C548 1.391 . S
C550 C551 1.400 . S
C551 C550 1.400 . S
C551 C552 1.398 . S
C551 C557 1.491 . S
C552 H543 0.950 . S
C552 C551 1.398 . S
C552 C553 1.391 . S
C553 H541 0.950 . S
C553 C549 1.393 . S
C553 C552 1.391 . S
C554 H544 0.950 . S
C554 C555 1.386 . S
C554 C556 1.391 . S
C555 C554 1.386 . S
C555 C559 1.393 . S
C556 H545 0.950 . S
C556 C554 1.391 . S
C556 C557 1.400 . S
C557 C551 1.491 . S
C557 C556 1.400 . S
C557 C558 1.398 . S
C558 H546 0.950 . S
C558 C557 1.398 . S
C558 C559 1.391 . S
C559 H547 0.950 . S
C559 C555 1.393 . S
C559 C558 1.391 . S
H560 C568 0.950 . S
H561 C573 0.950 . S
H562 C570 0.950 . S
H563 C572 0.950 . S
H564 C574 0.950 . S
H565 C576 0.950 . S
H566 C578 0.950 . S
H567 C579 0.950 . S
C568 H560 0.950 . S
C568 C569 1.386 . S
C568 C570 1.391 . S
C569 C568 1.386 . S
C569 C573 1.393 . S
C570 H562 0.950 . S
C570 C568 1.391 . S
C570 C571 1.400 . S
C571 C570 1.400 . S
C571 C572 1.398 . S
C571 C577 1.491 . S
C572 H563 0.950 . S
C572 C571 1.398 . S
C572 C573 1.391 . S
C573 H561 0.950 . S
C573 C569 1.393 . S
C573 C572 1.391 . S
C574 H564 0.950 . S
C574 C575 1.386 . S
C574 C576 1.391 . S
C575 C574 1.386 . S
C575 C579 1.393 . S
C576 H565 0.950 . S
C576 C574 1.391 . S
C576 C577 1.400 . S
C577 C571 1.491 . S
C577 C576 1.400 . S
C577 C578 1.398 . S
C578 H566 0.950 . S
C578 C577 1.398 . S
C578 C579 1.391 . S
C579 H567 0.950 . S
C579 C575 1.393 . S
C579 C578 1.391 . S
H580 C588 0.950 . S
H581 C593 0.950 . S
H582 C590 0.950 . S
H583 C592 0.950 . S
H584 C594 0.950 . S
H585 C596 0.950 . S
H586 C598 0.950 . S
H587 C599 0.950 . S
C588 H580 0.950 . S
C588 C589 1.386 . S
C588 C590 1.391 . S
C589 C588 1.386 . S
C589 C593 1.393 . S
C590 H582 0.950 . S
C590 C588 1.391 . S
C590 C591 1.400 . S
C591 C590 1.400 . S
C591 C592 1.398 . S
C591 C597 1.491 . S
C592 H583 0.950 . S
C592 C591 1.398 . S
C592 C593 1.391 . S
C593 H581 0.950 . S
C593 C589 1.393 . S
C593 C592 1.391 . S
C594 H584 0.950 . S
C594 C595 1.386 . S
C594 C596 1.391 . S
C595 C594 1.386 . S
C595 C599 1.393 . S
C596 H585 0.950 . S
C596 C594 1.391 . S
C596 C597 1.400 . S
C597 C591 1.491 . S
C597 C596 1.400 . S
C597 C598 1.398 . S
C598 H586 0.950 . S
C598 C597 1.398 . S
C598 C599 1.391 . S
C599 H587 0.950 . S
C599 C595 1.393 . S
C599 C598 1.391 . S
H600 C608 0.950 . S
H601 C613 0.950 . S
H602 C610 0.950 . S
H603 C612 0.950 . S
H604 C614 0.950 . S
H605 C616 0.950 . S
H606 C618 0.950 . S
H607 C619 0.950 . S
C608 H600 0.950 . S
C608 C609 1.386 . S
C608 C610 1.391 . S
C609 C608 1.386 . S
C609 C613 1.393 . S
C610 H602 0.950 . S
C610 C608 1.391 . S
C610 C611 1.400 . S
C611 C610 1.400 . S
C611 C612 1.398 . S
C611 C617 1.491 . S
C612 H603 0.950 . S
C612 C611 1.398 . S
C612 C613 1.391 . S
C613 H601 0.950 . S
C613 C609 1.393 . S
C613 C612 1.391 . S
C614 H604 0.950 . S
C614 C615 1.386 . S
C614 C616 1.391 . S
C615 C614 1.386 . S
C615 C619 1.393 . S
C616 H605 0.950 . S
C616 C614 1.391 . S
C616 C617 1.400 . S
C617 C611 1.491 . S
C617 C616 1.400 . S
C617 C618 1.398 . S
C618 H606 0.950 . S
C618 C617 1.398 . S
C618 C619 1.391 . S
C619 H607 0.950 . S
C619 C615 1.393 . S
C619 C618 1.391 . S
H620 C628 0.950 . S
H621 C633 0.950 . S
H622 C630 0.950 . S
H623 C632 0.950 . S
H624 C634 0.950 . S
H625 C636 0.950 . S
H626 C638 0.950 . S
H627 C639 0.950 . S
C628 H620 0.950 . S
C628 C629 1.386 . S
C628 C630 1.391 . S
C629 C628 1.386 . S
C629 C633 1.393 . S
C630 H622 0.950 . S
C630 C628 1.391 . S
C630 C631 1.400 . S
C631 C630 1.400 . S
C631 C632 1.398 . S
C631 C637 1.491 . S
C632 H623 0.950 . S
C632 C631 1.398 . S
C632 C633 1.391 . S
C633 H621 0.950 . S
C633 C629 1.393 . S
C633 C632 1.391 . S
C634 H624 0.950 . S
C634 C635 1.386 . S
C634 C636 1.391 . S
C635 C634 1.386 . S
C635 C639 1.393 . S
C636 H625 0.950 . S
C636 C634 1.391 . S
C636 C637 1.400 . S
C637 C631 1.491 . S
C637 C636 1.400 . S
C637 C638 1.398 . S
C638 H626 0.950 . S
C638 C637 1.398 . S
C638 C639 1.391 . S
C639 H627 0.950 . S
C639 C635 1.393 . S
C639 C638 1.391 . S
H640 C648 0.950 . S
H641 C653 0.950 . S
H642 C650 0.950 . S
H643 C652 0.950 . S
H644 C654 0.950 . S
H645 C656 0.950 . S
H646 C658 0.950 . S
H647 C659 0.950 . S
C648 H640 0.950 . S
C648 C649 1.386 . S
C648 C650 1.391 . S
C649 C648 1.386 . S
C649 C653 1.393 . S
C650 H642 0.950 . S
C650 C648 1.391 . S
C650 C651 1.400 . S
C651 C650 1.400 . S
C651 C652 1.398 . S
C651 C657 1.491 . S
C652 H643 0.950 . S
C652 C651 1.398 . S
C652 C653 1.391 . S
C653 H641 0.950 . S
C653 C649 1.393 . S
C653 C652 1.391 . S
C654 H644 0.950 . S
C654 C655 1.386 . S
C654 C656 1.391 . S
C655 C654 1.386 . S
C655 C659 1.393 . S
C656 H645 0.950 . S
C656 C654 1.391 . S
C656 C657 1.400 . S
C657 C651 1.491 . S
C657 C656 1.400 . S
C657 C658 1.398 . S
C658 H646 0.950 . S
C658 C657 1.398 . S
C658 C659 1.391 . S
C659 H647 0.950 . S
C659 C655 1.393 . S
C659 C658 1.391 . S
H660 C668 0.950 . S
H661 C673 0.950 . S
H662 C670 0.950 . S
H663 C672 0.950 . S
H664 C674 0.950 . S
H665 C676 0.950 . S
H666 C678 0.950 . S
H667 C679 0.950 . S
C668 H660 0.950 . S
C668 C669 1.386 . S
C668 C670 1.391 . S
C669 C668 1.386 . S
C669 C673 1.393 . S
C670 H662 0.950 . S
C670 C668 1.391 . S
C670 C671 1.400 . S
C671 C670 1.400 . S
C671 C672 1.398 . S
C671 C677 1.491 . S
C672 H663 0.950 . S
C672 C671 1.398 . S
C672 C673 1.391 . S
C673 H661 0.950 . S
C673 C669 1.393 . S
C673 C672 1.391 . S
C674 H664 0.950 . S
C674 C675 1.386 . S
C674 C676 1.391 . S
C675 C674 1.386 . S
C675 C679 1.393 . S
C676 H665 0.950 . S
C676 C674 1.391 . S
C676 C677 1.400 . S
C677 C671 1.491 . S
C677 C676 1.400 . S
C677 C678 1.398 . S
C678 H666 0.950 . S
C678 C677 1.398 . S
C678 C679 1.391 . S
C679 H667 0.950 . S
C679 C675 1.393 . S
C679 C678 1.391 . S
H680 C688 0.950 . S
H681 C693 0.950 . S
H682 C690 0.950 . S
H683 C692 0.950 . S
H684 C694 0.950 . S
H685 C696 0.950 . S
H686 C698 0.950 . S
H687 C699 0.950 . S
C688 H680 0.950 . S
C688 C689 1.386 . S
C688 C690 1.391 . S
C689 C688 1.386 . S
C689 C693 1.393 . S
C690 H682 0.950 . S
C690 C688 1.391 . S
C690 C691 1.400 . S
C691 C690 1.400 . S
C691 C692 1.398 . S
C691 C697 1.491 . S
C692 H683 0.950 . S
C692 C691 1.398 . S
C692 C693 1.391 . S
C693 H681 0.950 . S
C693 C689 1.393 . S
C693 C692 1.391 . S
C694 H684 0.950 . S
C694 C695 1.386 . S
C694 C696 1.391 . S
C695 C694 1.386 . S
C695 C699 1.393 . S
C696 H685 0.950 . S
C696 C694 1.391 . S
C696 C697 1.400 . S
C697 C691 1.491 . S
C697 C696 1.400 . S
C697 C698 1.398 . S
C698 H686 0.950 . S
C698 C697 1.398 . S
C698 C699 1.391 . S
C699 H687 0.950 . S
C699 C695 1.393 . S
C699 C698 1.391 . S
H700 C708 0.950 . S
H701 C713 0.950 . S
H702 C710 0.950 . S
H703 C712 0.950 . S
H704 C714 0.950 . S
H705 C716 0.950 . S
H706 C718 0.950 . S
H707 C719 0.950 . S
C708 H700 0.950 . S
C708 C709 1.386 . S
C708 C710 1.391 . S
C709 C708 1.386 . S
C709 C713 1.393 . S
C710 H702 0.950 . S
C710 C708 1.391 . S
C710 C711 1.400 . S
C711 C710 1.400 . S
C711 C712 1.398 . S
C711 C717 1.491 . S
C712 H703 0.950 . S
C712 C711 1.398 . S
C712 C713 1.391 . S
C713 H701 0.950 . S
C713 C709 1.393 . S
C713 C712 1.391 . S
C714 H704 0.950 . S
C714 C715 1.386 . S
C714 C716 1.391 . S
C715 C714 1.386 . S
C715 C719 1.393 . S
C716 H705 0.950 . S
C716 C714 1.391 . S
C716 C717 1.400 . S
C717 C711 1.491 . S
C717 C716 1.400 . S
C717 C718 1.398 . S
C718 H706 0.950 . S
C718 C717 1.398 . S
C718 C719 1.391 . S
C719 H707 0.950 . S
C719 C715 1.393 . S
C719 C718 1.391 . S
H720 C728 0.950 . S
H721 C733 0.950 . S
H722 C730 0.950 . S
H723 C732 0.950 . S
H724 C734 0.958 . S
H725 C736 0.950 . S
H726 C738 0.950 . S
H727 C739 0.950 . S
C728 H720 0.950 . S
C728 C729 1.386 . S
C728 C730 1.391 . S
C729 C728 1.386 . S
C729 C733 1.393 1_455 S
C730 H722 0.950 . S
C730 C728 1.391 . S
C730 C731 1.400 . S
C731 C730 1.400 . S
C731 C732 1.398 1_455 S
C731 C737 1.491 . S
C732 H723 0.950 . S
C732 C731 1.398 1_655 S
C732 C733 1.391 . S
C733 H721 0.950 . S
C733 C729 1.393 1_655 S
C733 C732 1.391 . S
C734 H724 0.958 . S
C734 C735 1.375 1_655 S
C734 C736 1.393 . S
C735 C734 1.375 1_455 S
C735 C739 1.393 . S
C736 H725 0.950 . S
C736 C734 1.393 . S
C736 C737 1.400 1_655 S
C737 C731 1.491 . S
C737 C736 1.400 1_455 S
C737 C738 1.398 . S
C738 H726 0.950 . S
C738 C737 1.398 . S
C738 C739 1.391 . S
C739 H727 0.950 . S
C739 C735 1.393 . S
C739 C738 1.391 . S
H740 C748 0.950 1_565 S
H741 C753 0.950 . S
H742 C750 0.950 1_565 S
H743 C752 0.950 . S
H744 C754 0.950 . S
H745 C756 0.950 . S
H746 C758 0.950 1_565 S
H747 C759 0.949 . S
C748 H740 0.950 1_545 S
C748 C749 1.386 . S
C748 C750 1.391 . S
C749 C748 1.386 . S
C749 C753 1.393 . S
C750 H742 0.950 1_545 S
C750 C748 1.391 . S
C750 C751 1.400 . S
C751 C750 1.400 . S
C751 C752 1.398 . S
C751 C757 1.491 . S
C752 H743 0.950 . S
C752 C751 1.398 . S
C752 C753 1.391 . S
C753 H741 0.950 . S
C753 C749 1.393 . S
C753 C752 1.391 . S
C754 H744 0.950 . S
C754 C755 1.386 . S
C754 C756 1.391 . S
C755 C754 1.386 . S
C755 C759 1.393 . S
C756 H745 0.950 . S
C756 C754 1.391 . S
C756 C757 1.400 . S
C757 C751 1.491 . S
C757 C756 1.400 . S
C757 C758 1.398 . S
C758 H746 0.950 1_545 S
C758 C757 1.398 . S
C758 C759 1.391 . S
C759 H747 0.949 . S
C759 C755 1.393 . S
C759 C758 1.391 . S
H760 C768 0.950 . S
H761 C773 0.950 . S
H762 C770 0.950 . S
H763 C772 0.950 . S
H764 C774 0.950 . S
H765 C776 0.950 . S
H766 C778 0.950 . S
H767 C779 0.950 . S
C768 H760 0.950 . S
C768 C769 1.386 . S
C768 C770 1.391 . S
C769 C768 1.386 . S
C769 C773 1.393 . S
C770 H762 0.950 . S
C770 C768 1.391 . S
C770 C771 1.400 . S
C771 C770 1.400 . S
C771 C772 1.398 . S
C771 C777 1.491 . S
C772 H763 0.950 . S
C772 C771 1.398 . S
C772 C773 1.391 . S
C773 H761 0.950 . S
C773 C769 1.393 . S
C773 C772 1.391 . S
C774 H764 0.950 . S
C774 C775 1.386 . S
C774 C776 1.391 . S
C775 C774 1.386 . S
C775 C779 1.393 . S
C776 H765 0.950 . S
C776 C774 1.391 . S
C776 C777 1.400 . S
C777 C771 1.491 . S
C777 C776 1.400 . S
C777 C778 1.398 . S
C778 H766 0.950 . S
C778 C777 1.398 . S
C778 C779 1.391 . S
C779 H767 0.950 . S
C779 C775 1.393 . S
C779 C778 1.391 . S
H780 C788 0.950 . S
H781 C793 0.950 . S
H782 C790 0.950 . S
H783 C792 0.950 . S
H784 C794 0.950 . S
H785 C796 0.950 . S
H786 C798 0.950 . S
H787 C799 0.950 . S
C788 H780 0.950 . S
C788 C789 1.386 . S
C788 C790 1.391 . S
C789 C788 1.386 . S
C789 C793 1.393 1_545 S
C790 H782 0.950 . S
C790 C788 1.391 . S
C790 C791 1.400 . S
C791 C790 1.400 . S
C791 C792 1.398 1_545 S
C791 C797 1.491 . S
C792 H783 0.950 . S
C792 C791 1.398 1_565 S
C792 C793 1.391 . S
C793 H781 0.950 . S
C793 C789 1.393 1_565 S
C793 C792 1.391 . S
C794 H784 0.950 . S
C794 C795 1.386 1_565 S
C794 C796 1.391 . S
C795 C794 1.386 1_545 S
C795 C799 1.393 . S
C796 H785 0.950 . S
C796 C794 1.391 . S
C796 C797 1.400 1_565 S
C797 C791 1.491 . S
C797 C796 1.400 1_545 S
C797 C798 1.398 . S
C798 H786 0.950 . S
C798 C797 1.398 . S
C798 C799 1.391 . S
C799 H787 0.950 . S
C799 C795 1.393 . S
C799 C798 1.391 . S
H800 C808 0.950 . S
H801 C813 0.950 . S
H802 C810 0.950 . S
H803 C812 0.950 . S
H804 C814 0.950 . S
H805 C816 0.950 . S
H806 C818 0.950 . S
H807 C819 0.950 . S
C808 H800 0.950 . S
C808 C809 1.386 . S
C808 C810 1.391 . S
C809 C808 1.386 . S
C809 C813 1.393 . S
C810 H802 0.950 . S
C810 C808 1.391 . S
C810 C811 1.400 . S
C811 C810 1.400 . S
C811 C812 1.398 . S
C811 C817 1.491 . S
C812 H803 0.950 . S
C812 C811 1.398 . S
C812 C813 1.391 . S
C813 H801 0.950 . S
C813 C809 1.393 . S
C813 C812 1.391 . S
C814 H804 0.950 . S
C814 C815 1.386 . S
C814 C816 1.391 . S
C815 C814 1.386 . S
C815 C819 1.393 . S
C816 H805 0.950 . S
C816 C814 1.391 . S
C816 C817 1.400 . S
C817 C811 1.491 . S
C817 C816 1.400 . S
C817 C818 1.398 . S
C818 H806 0.950 . S
C818 C817 1.398 . S
C818 C819 1.391 . S
C819 H807 0.950 . S
C819 C815 1.393 . S
C819 C818 1.391 . S
H820 C828 0.950 . S
H821 C833 0.950 . S
H822 C830 0.950 . S
H823 C832 0.950 . S
H824 C834 0.950 . S
H825 C836 0.950 . S
H826 C838 0.950 . S
H827 C839 0.950 . S
C828 H820 0.950 . S
C828 C829 1.386 1_655 S
C828 C830 1.391 . S
C829 C828 1.386 1_455 S
C829 C833 1.393 . S
C830 H822 0.950 . S
C830 C828 1.391 . S
C830 C831 1.391 1_655 S
C831 C830 1.391 1_455 S
C831 C832 1.409 . S
C831 C837 1.488 1_455 S
C832 H823 0.950 . S
C832 C831 1.409 . S
C832 C833 1.391 . S
C833 H821 0.950 . S
C833 C829 1.393 . S
C833 C832 1.391 . S
C834 H824 0.950 . S
C834 C835 1.386 1_455 S
C834 C836 1.391 . S
C835 C834 1.386 1_655 S
C835 C839 1.393 . S
C836 H825 0.950 . S
C836 C834 1.391 . S
C836 C837 1.394 1_455 S
C837 C831 1.488 1_655 S
C837 C836 1.394 1_655 S
C837 C838 1.406 . S
C838 H826 0.950 . S
C838 C837 1.406 . S
C838 C839 1.391 . S
C839 H827 0.950 . S
C839 C835 1.393 . S
C839 C838 1.391 . S
C489 C24 2.933 . S
C495 C451 2.920 . S
C509 C66 1.122 . S
C515 C301 1.131 . S
C529 C93 1.831 . S
C535 C361 1.689 . S
C549 C13 3.078 . S
C555 C421 2.902 . S
C575 C331 1.298 . S
C569 C57 1.291 . S
C595 C391 1.969 . S
C589 C104 1.971 . S
C609 C64 1.949 . S
C615 C181 1.773 . S
C629 C97 0.557 . S
C635 C271 0.513 . S
C649 C17 1.297 . S
C655 C151 1.304 . S
C675 C211 1.832 . S
C669 C53 1.850 . S
C695 C241 0.331 . S
C689 C106 0.345 . S
C709 C26 1.126 . S
C715 C121 1.148 . S
C735 C260 1.050 1_554 S
C729 C2 1.059 . S
C749 C63 1.455 . S
C755 C140 1.474 . S
C769 C82 1.363 . S
C775 C200 1.366 . S
C795 C380 1.387 . S
C789 C42 1.392 . S
C815 C440 1.766 1_556 S
C809 C103 1.733 . S
C829 C23 1.485 . S
C835 C320 1.466 1_655 S
