# Generated by pormake.
# Topology pyr, (3,6)-cn, num edge types: 1
# Building blocks:
#     Node 0, Type 0, BuildingBlock: ESEHIV_clean_linker_0, # of connection points: 3
#     Node 1, Type 0, BuildingBlock: ESEHIV_clean_linker_0, # of connection points: 3
#     Node 2, Type 0, BuildingBlock: ESEHIV_clean_linker_0, # of connection points: 3
#     Node 3, Type 0, BuildingBlock: ESEHIV_clean_linker_0, # of connection points: 3
#     Node 4, Type 0, BuildingBlock: ESEHIV_clean_linker_0, # of connection points: 3
#     Node 5, Type 0, BuildingBlock: ESEHIV_clean_linker_0, # of connection points: 3
#     Node 6, Type 0, BuildingBlock: ESEHIV_clean_linker_0, # of connection points: 3
#     Node 7, Type 0, BuildingBlock: ESEHIV_clean_linker_0, # of connection points: 3
#     Node 8, Type 1, BuildingBlock: BETFEN_clean_sbu_0, # of connection points: 6
#     Node 9, Type 1, BuildingBlock: BETFEN_clean_sbu_0, # of connection points: 6
#     Node 10, Type 1, BuildingBlock: BETFEN_clean_sbu_0, # of connection points: 6
#     Node 11, Type 1, BuildingBlock: BETFEN_clean_sbu_0, # of connection points: 6
#     Edge 12, Type (0, 1), BuildingBlock: AJUNOK_clean_linker_0, # of connection points: 2
#     Edge 13, Type (0, 1), BuildingBlock: AJUNOK_clean_linker_0, # of connection points: 2
#     Edge 14, Type (0, 1), BuildingBlock: AJUNOK_clean_linker_0, # of connection points: 2
#     Edge 15, Type (0, 1), BuildingBlock: AJUNOK_clean_linker_0, # of connection points: 2
#     Edge 16, Type (0, 1), BuildingBlock: AJUNOK_clean_linker_0, # of connection points: 2
#     Edge 17, Type (0, 1), BuildingBlock: AJUNOK_clean_linker_0, # of connection points: 2
#     Edge 18, Type (0, 1), BuildingBlock: AJUNOK_clean_linker_0, # of connection points: 2
#     Edge 19, Type (0, 1), BuildingBlock: AJUNOK_clean_linker_0, # of connection points: 2
#     Edge 20, Type (0, 1), BuildingBlock: AJUNOK_clean_linker_0, # of connection points: 2
#     Edge 21, Type (0, 1), BuildingBlock: AJUNOK_clean_linker_0, # of connection points: 2
#     Edge 22, Type (0, 1), BuildingBlock: AJUNOK_clean_linker_0, # of connection points: 2
#     Edge 23, Type (0, 1), BuildingBlock: AJUNOK_clean_linker_0, # of connection points: 2
#     Edge 24, Type (0, 1), BuildingBlock: AJUNOK_clean_linker_0, # of connection points: 2
#     Edge 25, Type (0, 1), BuildingBlock: AJUNOK_clean_linker_0, # of connection points: 2
#     Edge 26, Type (0, 1), BuildingBlock: AJUNOK_clean_linker_0, # of connection points: 2
#     Edge 27, Type (0, 1), BuildingBlock: AJUNOK_clean_linker_0, # of connection points: 2
#     Edge 28, Type (0, 1), BuildingBlock: AJUNOK_clean_linker_0, # of connection points: 2
#     Edge 29, Type (0, 1), BuildingBlock: AJUNOK_clean_linker_0, # of connection points: 2
#     Edge 30, Type (0, 1), BuildingBlock: AJUNOK_clean_linker_0, # of connection points: 2
#     Edge 31, Type (0, 1), BuildingBlock: AJUNOK_clean_linker_0, # of connection points: 2
#     Edge 32, Type (0, 1), BuildingBlock: AJUNOK_clean_linker_0, # of connection points: 2
#     Edge 33, Type (0, 1), BuildingBlock: AJUNOK_clean_linker_0, # of connection points: 2
#     Edge 34, Type (0, 1), BuildingBlock: AJUNOK_clean_linker_0, # of connection points: 2
#     Edge 35, Type (0, 1), BuildingBlock: AJUNOK_clean_linker_0, # of connection points: 2
# Relax obj value: 0.252
# Max RMSD: 0.301
# Mean RMSD: 0.148
data_MOF--net-pyr--node1-BETFEN_clean_sbu_0--node2-ESEHIV_clean_linker_0--edge1-AJUNOK_clean_linker_0
_symmetry_space_group_name_H-M    P1
_symmetry_Int_Tables_number       1
_symmetry_cell_setting            triclinic
loop_
_symmetry_equiv_pos_as_xyz
'x, y, z'
_cell_length_a     25.218282
_cell_length_b     28.403715
_cell_length_c     24.626219
_cell_angle_alpha  91.048884
_cell_angle_beta   99.119192
_cell_angle_gamma 113.35404
loop_
_atom_site_label
_atom_site_type_symbol
_atom_site_fract_x
_atom_site_fract_y
_atom_site_fract_z
_atom_type_partial_charge
H0 H 0.39298 0.47484 0.29229 0.0
H1 H 0.42861 0.36399 0.38791 0.0
H2 H 0.50699 0.40812 0.2449 0.0
C3 C 0.41987 0.45331 0.30242 0.0
C4 C 0.45426 0.44748 0.26485 0.0
C5 C 0.41089 0.42339 0.34718 0.0
C6 C 0.43956 0.39031 0.35613 0.0
C7 C 0.47657 0.38608 0.32141 0.0
C8 C 0.48459 0.4156 0.27596 0.0
H9 H 0.21054 0.88341 0.78052 0.0
H10 H 0.33894 0.81849 0.79954 0.0
H11 H 0.25779 0.83199 0.63719 0.0
C12 C 0.23318 0.86333 0.76249 0.0
C13 C 0.2275 0.85751 0.70493 0.0
C14 C 0.27399 0.85026 0.79701 0.0
C15 C 0.30531 0.8267 0.77343 0.0
C16 C 0.29926 0.81948 0.71601 0.0
C17 C 0.26017 0.83483 0.68154 0.0
H18 H 0.68171 0.30384 0.95392 0.0
H19 H 0.71669 0.42811 0.85204 0.0
H20 H 0.54514 0.30075 0.82186 0.0
C21 C 0.66625 0.32127 0.91955 0.0
C22 C 0.60938 0.29501 0.88907 0.0
C23 C 0.70437 0.36888 0.90644 0.0
C24 C 0.68553 0.39176 0.86192 0.0
C25 C 0.62797 0.36927 0.83069 0.0
C26 C 0.5895 0.31973 0.8447 0.0
H27 H 0.87396 0.72579 0.44202 0.0
H28 H 0.98161 0.73685 0.31967 0.0
H29 H 0.85606 0.58798 0.35103 0.0
C30 C 0.88715 0.70729 0.41098 0.0
C31 C 0.8604 0.65335 0.4012 0.0
C32 C 0.93085 0.73812 0.3826 0.0
C33 C 0.94779 0.71348 0.34167 0.0
C34 C 0.92163 0.65883 0.32924 0.0
C35 C 0.87734 0.62942 0.35962 0.0
H36 H 0.67421 0.71575 0.73908 0.0
H37 H 0.7142 0.60196 0.82532 0.0
H38 H 0.59408 0.65895 0.87832 0.0
C39 C 0.66366 0.68678 0.76841 0.0
C40 C 0.62767 0.68839 0.80535 0.0
C41 C 0.69326 0.65425 0.77393 0.0
C42 C 0.68602 0.62256 0.81731 0.0
C43 C 0.65028 0.6241 0.85553 0.0
C44 C 0.61839 0.65494 0.84723 0.0
H45 H 0.77309 0.29072 0.3283 0.0
H46 H 0.84993 0.1819 0.312 0.0
H47 H 0.8489 0.2415 0.4727 0.0
C48 C 0.79937 0.27069 0.34654 0.0
C49 C 0.80998 0.2703 0.40399 0.0
C50 C 0.80968 0.23614 0.31282 0.0
C51 C 0.84302 0.21002 0.33701 0.0
C52 C 0.86056 0.21418 0.39454 0.0
C53 C 0.84166 0.24276 0.42827 0.0
H54 H 0.40207 0.75095 0.16829 0.0
H55 H 0.38273 0.62981 0.2738 0.0
H56 H 0.53134 0.77682 0.31601 0.0
C57 C 0.41908 0.737 0.20485 0.0
C58 C 0.47066 0.77051 0.23956 0.0
C59 C 0.38744 0.68684 0.21712 0.0
C60 C 0.40763 0.66905 0.26526 0.0
C61 C 0.45924 0.70033 0.3021 0.0
C62 C 0.49179 0.75162 0.28836 0.0
H63 H 0.10532 0.32122 0.78957 0.0
H64 H 0.2173 0.34138 0.67017 0.0
H65 H 0.24465 0.47069 0.78178 0.0
C66 C 0.14208 0.34607 0.77173 0.0
C67 C 0.17166 0.39942 0.79148 0.0
C68 C 0.15983 0.32448 0.72904 0.0
C69 C 0.20594 0.35728 0.70473 0.0
C70 C 0.23829 0.40949 0.72355 0.0
C71 C 0.22007 0.43063 0.76648 0.0
Pr72 Pr 0.99539 1.00951 0.5706 0.0
Pr73 Pr 0.09265 0.06017 0.52189 0.0
C74 C 0.91139 0.94493 0.6208 0.0
C75 C 0.89482 0.89315 0.63971 0.0
C76 C 0.88371 0.88604 0.69348 0.0
C77 C 0.86613 0.83727 0.71241 0.0
C78 C 0.85931 0.7945 0.67787 0.0
C79 C 0.8717 0.8018 0.62425 0.0
C80 C 0.88996 0.85094 0.60542 0.0
C81 C 0.05365 0.11324 0.61705 0.0
C82 C 0.11146 0.98295 0.60618 0.0
C83 C 0.18111 0.12795 0.47862 0.0
C84 C 0.20398 0.18246 0.4682 0.0
C85 C 0.26372 0.20796 0.46663 0.0
C86 C 0.28657 0.25924 0.45508 0.0
C87 C 0.24994 0.28588 0.44457 0.0
C88 C 0.19011 0.26069 0.44709 0.0
C89 C 0.16739 0.20929 0.45963 0.0
C90 C 1.0367 0.95631 0.47578 0.0
C91 C 0.97398 0.08254 0.48217 0.0
O92 O 0.90377 0.94861 0.56752 0.0
O93 O 0.96033 0.98019 0.6478 0.0
O94 O 0.07924 0.08405 0.60766 0.0
O95 O 0.99741 0.08903 0.60196 0.0
O96 O 0.14091 1.02752 0.5887 0.0
O97 O 0.0539 0.96438 0.59808 0.0
O98 O 0.18666 0.11827 0.53033 0.0
O99 O 0.13074 0.09765 0.44881 0.0
O100 O 1.00957 0.98426 0.48541 0.0
O101 O 0.09283 0.98274 0.48794 0.0
O102 O 0.9449 0.03959 0.50289 0.0
O103 O 1.0316 0.10194 0.49058 0.0
H104 H 0.88729 0.91812 0.72051 0.0
H105 H 0.85487 0.83267 0.75323 0.0
H106 H 0.86569 0.76942 0.59648 0.0
H107 H 0.89897 0.85568 0.56382 0.0
H108 H 0.29261 0.18795 0.47348 0.0
H109 H 0.33273 0.27768 0.45247 0.0
H110 H 0.16116 0.28049 0.4389 0.0
H111 H 0.12136 0.19036 0.46203 0.0
Pr112 Pr 0.49279 0.04207 0.09432 0.0
Pr113 Pr 0.56782 1.02362 1.03256 0.0
C114 C 0.44943 0.06217 0.18002 0.0
C115 C 0.47055 0.10967 0.21603 0.0
C116 C 0.50222 0.15666 0.19607 0.0
C117 C 0.52097 0.20247 0.22911 0.0
C118 C 0.50891 0.20195 0.2829 0.0
C119 C 0.48148 0.15439 0.3043 0.0
C120 C 0.46222 0.10841 0.27089 0.0
C121 C 0.51757 0.11121 1.01005 0.0
C122 C 0.63534 0.10749 0.13309 0.0
C123 C 0.61595 1.0062 0.94887 0.0
C124 C 0.60397 0.9603 0.91341 0.0
C125 C 0.56905 0.91174 0.92807 0.0
C126 C 0.56306 0.86745 0.89792 0.0
C127 C 0.59174 0.87145 0.85274 0.0
C128 C 0.62191 0.92022 0.8351 0.0
C129 C 0.62836 0.96456 0.86564 0.0
C130 C 0.544 0.9552 0.11733 0.0
C131 C 0.42374 0.9616 0.99323 0.0
O132 O 0.4854 0.03923 0.18443 0.0
O133 O 0.42725 0.06432 0.1288 0.0
O134 O 0.5546 0.099 1.04079 0.0
O135 O 0.46615 0.0886 1.02349 0.0
O136 O 0.64069 0.09689 0.08284 0.0
O137 O 0.58514 0.08364 0.14958 0.0
O138 O 0.57436 1.023 0.94227 0.0
O139 O 0.63761 1.00592 1.00069 0.0
O140 O 0.50645 0.96661 0.08618 0.0
O141 O 0.5953 0.97827 0.10388 0.0
O142 O 0.41843 0.97108 1.04367 0.0
O143 O 0.47445 0.9836 0.97687 0.0
H144 H 0.5107 0.15808 0.1542 0.0
H145 H 0.5408 0.2383 0.21086 0.0
H146 H 0.47181 0.15303 0.34571 0.0
H147 H 0.4394 0.07214 0.28727 0.0
H148 H 0.54889 0.90814 0.9644 0.0
H149 H 0.53965 0.83033 0.91238 0.0
H150 H 0.64325 0.92403 0.79957 0.0
H151 H 0.65422 1.002 0.85326 0.0
Pr152 Pr 0.57373 0.58066 0.59858 0.0
Pr153 Pr 0.52731 0.49306 0.52783 0.0
C154 C 0.58597 0.66962 0.65027 0.0
C155 C 0.54529 0.69387 0.65757 0.0
C156 C 0.49413 0.66744 0.67917 0.0
C157 C 0.45475 0.69003 0.6836 0.0
C158 C 0.46531 0.73922 0.66607 0.0
C159 C 0.51636 0.76551 0.64421 0.0
C160 C 0.55618 0.74314 0.64038 0.0
C161 C 0.59696 0.50169 0.65346 0.0
C162 C 0.4357 0.50036 0.60246 0.0
C163 C 0.51529 0.40559 0.47375 0.0
C164 C 0.55835 0.38342 0.46851 0.0
C165 C 0.6083 0.41044 0.44544 0.0
C166 C 0.65072 0.39079 0.44381 0.0
C167 C 0.64432 0.34373 0.46525 0.0
C168 C 0.59479 0.31713 0.48919 0.0
C169 C 0.55198 0.33659 0.49036 0.0
C170 C 0.50285 0.57274 0.4765 0.0
C171 C 0.66748 0.56944 0.52737 0.0
O172 O 0.59645 0.66655 0.60048 0.0
O173 O 0.57979 0.62813 0.67525 0.0
O174 O 0.54928 0.49638 0.62287 0.0
O175 O 0.63496 0.54924 0.65576 0.0
O176 O 0.44752 0.4671 0.57428 0.0
O177 O 0.47269 0.54923 0.60821 0.0
O178 O 0.5017 0.4067 0.52246 0.0
O179 O 0.52163 0.44762 0.4498 0.0
O180 O 0.55176 0.57684 0.50342 0.0
O181 O 0.46337 0.52639 0.47742 0.0
O182 O 0.65902 0.60311 0.55858 0.0
O183 O 0.62668 0.52231 0.51694 0.0
H184 H 0.48441 0.62932 0.69273 0.0
H185 H 0.41635 0.66927 0.70152 0.0
H186 H 0.52521 0.8031 0.62949 0.0
H187 H 0.59513 0.76404 0.62322 0.0
H188 H 0.61483 0.44685 0.42853 0.0
H189 H 0.68802 0.41204 0.42464 0.0
H190 H 0.58924 0.28144 0.50737 0.0
H191 H 0.5143 0.31546 0.50913 0.0
Pr192 Pr 1.04137 0.56363 1.02732 0.0
Pr193 Pr 0.05158 0.48534 0.10013 0.0
C194 C 0.99345 0.62116 0.97268 0.0
C195 C 0.93656 0.62036 0.9795 0.0
C196 C 0.92023 0.6602 0.96329 0.0
C197 C 0.86457 0.65706 0.96815 0.0
C198 C 0.82468 0.61408 0.98945 0.0
C199 C 0.84241 0.57536 1.00789 0.0
C200 C 0.89804 0.57865 1.00317 0.0
C201 C 0.15555 0.59042 0.08263 0.0
C202 C 1.00162 0.56295 0.15513 0.0
C203 C 0.09883 0.42849 0.15753 0.0
C204 C 0.15813 0.43047 0.15681 0.0
C205 C 0.1692 0.40599 0.11242 0.0
C206 C 0.22678 0.41668 0.10587 0.0
C207 C 0.27434 0.45161 0.14401 0.0
C208 C 0.26304 0.47435 0.18963 0.0
C209 C 0.20575 0.46393 0.19592 0.0
C210 C 0.93829 0.45709 1.04148 0.0
C211 C 0.09201 0.48724 0.97212 0.0
O212 O 0.99071 0.57802 0.95012 0.0
O213 O 1.03505 0.64031 1.01606 0.0
O214 O 0.10998 0.57093 0.10363 0.0
O215 O 0.14337 0.60072 1.03208 0.0
O216 O 1.02405 0.52857 0.16673 0.0
O217 O 0.99881 0.57798 0.1043 0.0
O218 O 0.09785 0.47026 0.17965 0.0
O219 O 0.0601 0.40954 0.11203 0.0
O220 O 0.9849 0.47759 1.02252 0.0
O221 O 0.94882 0.44747 0.09257 0.0
O222 O 0.0693 0.52142 0.96032 0.0
O223 O 0.09517 0.47226 1.02313 0.0
H224 H 0.94966 0.69277 0.94546 0.0
H225 H 0.85159 0.68691 0.9522 0.0
H226 H 0.81247 0.54167 1.02381 0.0
H227 H 0.9104 0.54776 1.01651 0.0
H228 H 0.13335 0.37932 0.08219 0.0
H229 H 0.23416 0.39733 0.07135 0.0
H230 H 0.29852 0.4993 0.22152 0.0
H231 H 0.19884 0.48312 0.23088 0.0
C232 C 0.36884 0.41137 0.43261 0.0
C233 C 0.35989 0.41297 0.37494 0.0
C234 C 0.32701 0.37444 0.45779 0.0
C235 C 0.27516 0.33799 0.42585 0.0
H236 H 0.41182 0.43239 0.4571 0.0
H237 H 0.33906 0.36964 0.50093 0.0
S238 S 0.22278 0.33724 0.27648 0.0
N239 N 0.28908 0.3843 0.28914 0.0
N240 N 0.21046 0.31401 0.33645 0.0
C241 C 0.26095 0.34555 0.37017 0.0
C242 C 0.30347 0.38363 0.34461 0.0
C243 C 0.31374 0.92786 0.86329 0.0
C244 C 0.29645 0.87429 0.85438 0.0
C245 C 0.35148 0.95553 0.9114 0.0
C246 C 0.37247 0.93051 0.95232 0.0
H247 H 0.30266 0.94942 0.83086 0.0
H248 H 0.36765 0.99717 0.91486 0.0
S249 S 0.33365 0.79062 0.9536 0.0
N250 N 0.29749 0.79664 0.89384 0.0
N251 N 0.36923 0.84945 0.98476 0.0
C252 C 0.35174 0.87677 0.94662 0.0
C253 C 0.31331 0.84838 0.89743 0.0
C254 C 0.63871 0.45504 0.79269 0.0
C255 C 0.61219 0.40038 0.78521 0.0
C256 C 0.63419 0.4865 0.7501 0.0
C257 C 0.60074 0.46588 0.69746 0.0
H258 H 0.6648 0.47444 0.83202 0.0
H259 H 0.65707 0.52774 0.75879 0.0
S260 S 0.518 0.32614 0.65424 0.0
N261 N 0.54922 0.32751 0.71892 0.0
N262 N 0.53752 0.38682 0.6404 0.0
C263 C 0.5712 0.41158 0.68937 0.0
C264 C 0.57735 0.37903 0.73263 0.0
C265 C 0.94771 0.65229 0.23266 0.0
C266 C 0.94098 0.633 0.285 0.0
C267 C 0.96598 0.62926 0.19133 0.0
C268 C 0.97994 0.58591 0.1998 0.0
H269 H 0.93816 0.68549 0.22313 0.0
H270 H 0.96982 0.64622 0.15234 0.0
S271 S 0.97191 0.52064 0.32997 0.0
N272 N 0.95112 0.56746 0.34245 0.0
N273 N 0.98576 0.52529 0.26648 0.0
C274 C 0.97374 0.56644 0.25213 0.0
C275 C 0.95431 0.58946 0.2939 0.0
C276 C 0.44969 0.29291 0.33112 0.0
C277 C 0.49283 0.34133 0.3243 0.0
C278 C 0.45865 0.24812 0.32438 0.0
C279 C 0.51073 0.24965 0.30959 0.0
H280 H 0.40652 0.28865 0.33737 0.0
H281 H 0.42195 0.21175 0.32532 0.0
S282 S 0.64196 0.36689 0.29759 0.0
N283 N 0.59293 0.38881 0.30998 0.0
N284 N 0.6099 0.30361 0.29729 0.0
C285 C 0.55654 0.29793 0.3079 0.0
C286 C 0.54738 0.34396 0.31479 0.0
C287 C 0.13791 0.87463 0.6767 0.0
C288 C 0.19602 0.88448 0.67176 0.0
C289 C 0.111 0.90662 0.65514 0.0
C290 C 0.14156 0.95019 0.62864 0.0
H291 H 0.11375 0.84283 0.69892 0.0
H292 H 0.0663 0.89769 0.66048 0.0
S293 S 0.29431 0.99149 0.60351 0.0
N294 N 0.28293 0.93967 0.63727 0.0
N295 N 0.23254 0.99994 0.59647 0.0
C296 C 0.19932 0.95965 0.6222 0.0
C297 C 0.22645 0.9267 0.64372 0.0
C298 C 0.77253 0.39744 0.99803 0.0
C299 C 0.76453 0.39436 0.93991 0.0
C300 C 0.82884 0.41822 1.03065 0.0
C301 C 0.87925 0.43707 1.0064 0.0
H302 H 0.73489 0.38334 1.01851 0.0
H303 H 0.83286 0.41934 0.07516 0.0
S304 S 0.88256 0.43842 0.85615 0.0
N305 N 0.81207 0.41174 0.8596 0.0
N306 N 0.91771 0.45231 0.92073 0.0
C307 C 0.87195 0.43538 0.94839 0.0
C308 C 0.81466 0.41372 0.9152 0.0
C309 C 0.75667 0.59083 0.40978 0.0
C310 C 0.81409 0.62431 0.43512 0.0
C311 C 0.7104 0.57168 0.44037 0.0
C312 C 0.71906 0.58561 0.49762 0.0
H313 H 0.7467 0.5813 0.36552 0.0
H314 H 0.66674 0.54761 0.41839 0.0
S315 S 0.86271 0.66376 0.58585 0.0
N316 N 0.878 0.66415 0.52302 0.0
N317 N 0.79128 0.62956 0.57921 0.0
C318 C 0.7767 0.61654 0.52389 0.0
C319 C 0.82393 0.63533 0.4931 0.0
C320 C 0.39696 0.41192 0.17361 0.0
C321 C 0.43726 0.45626 0.20714 0.0
C322 C 0.34552 0.4121 0.1428 0.0
C323 C 0.33513 0.45718 0.14346 0.0
H324 H 0.39876 0.37488 0.17997 0.0
H325 H 0.31047 0.37533 0.12652 0.0
S326 S 0.4446 0.58801 0.19658 0.0
N327 N 0.47585 0.54933 0.22011 0.0
N328 N 0.38034 0.55066 0.15903 0.0
C329 C 0.38292 0.50398 0.1633 0.0
C330 C 0.43452 0.50341 0.19579 0.0
C331 C 0.60301 0.20743 0.91489 0.0
C332 C 0.57516 0.24207 0.90693 0.0
C333 C 0.58347 0.16523 0.94705 0.0
C334 C 0.53389 0.15413 0.97207 0.0
H335 H 0.64293 0.215 0.89883 0.0
H336 H 0.60841 0.14167 0.95337 0.0
S337 S 0.44125 0.2291 0.96092 0.0
N338 N 0.49309 0.26009 0.9253 0.0
N339 N 0.45452 0.17957 0.98312 0.0
C340 C 0.50303 0.18615 0.96152 0.0
C341 C 0.52388 0.23009 0.9296 0.0
C342 C 0.92414 0.82311 0.40736 0.0
C343 C 0.95906 0.79573 0.39925 0.0
C344 C 0.94891 0.87482 0.431 0.0
C345 C 1.01001 0.90196 0.44793 0.0
H346 H 0.87677 0.80394 0.39632 0.0
H347 H 0.91978 0.89329 0.43692 0.0
S348 S 0.12148 0.84852 0.43701 0.0
N349 N 0.05839 0.8006 0.41083 0.0
N350 N 0.1049 0.89673 0.45452 0.0
C351 C 0.04548 0.87531 0.43923 0.0
C352 C 1.0202 0.82279 0.41505 0.0
C353 C 0.32179 0.75364 0.66711 0.0
C354 C 0.34095 0.80302 0.69399 0.0
C355 C 0.36243 0.73392 0.6563 0.0
C356 C 0.42343 0.76302 0.67204 0.0
H357 H 0.2753 0.7293 0.65682 0.0
H358 H 0.346 0.6951 0.63678 0.0
S359 S 0.49494 0.89601 0.74053 0.0
N360 N 0.42394 0.88184 0.73303 0.0
N361 N 0.50045 0.84471 0.71392 0.0
C362 C 0.44284 0.81341 0.69677 0.0
C363 C 0.40152 0.83339 0.70748 0.0
C364 C 0.73365 0.67123 0.68755 0.0
C365 C 0.74348 0.66678 0.74468 0.0
C366 C 0.77577 0.70896 0.6633 0.0
C367 C 0.82943 0.74237 0.69542 0.0
H368 H 0.69037 0.65089 0.66323 0.0
H369 H 0.7632 0.71603 0.6211 0.0
S370 S 0.88412 0.73386 0.84191 0.0
N371 N 0.81594 0.68985 0.82936 0.0
N372 N 0.89633 0.75928 0.78298 0.0
C373 C 0.8439 0.73144 0.74979 0.0
C374 C 0.80062 0.69358 0.77468 0.0
C375 C 0.70955 0.20282 0.25684 0.0
C376 C 0.76964 0.21452 0.25906 0.0
C377 C 0.66733 0.17038 0.21409 0.0
C378 C 0.68292 0.14789 0.17153 0.0
H379 H 0.69388 0.2154 0.2904 0.0
H380 H 0.6217 0.16105 0.21604 0.0
S381 S 0.83421 0.17305 0.15196 0.0
N382 N 0.8432 0.20689 0.21058 0.0
N383 N 0.76255 0.14451 0.12961 0.0
C384 C 0.74278 0.16247 0.17011 0.0
C385 C 0.78639 0.19598 0.21412 0.0
C386 C 0.52985 0.67309 0.36797 0.0
C387 C 0.47511 0.67671 0.35401 0.0
C388 C 0.53959 0.64123 0.409 0.0
C389 C 0.49468 0.61065 0.43713 0.0
H390 H 0.56451 0.693 0.34522 0.0
H391 H 0.58185 0.63874 0.41688 0.0
S392 S 0.34621 0.61101 0.42191 0.0
N393 N 0.37794 0.65106 0.37759 0.0
N394 N 0.39534 0.59008 0.45122 0.0
C395 C 0.44096 0.61576 0.42532 0.0
C396 C 0.43152 0.64898 0.38495 0.0
C397 C 0.14581 0.4691 0.83579 0.0
C398 C 0.15276 0.42201 0.83869 0.0
C399 C 0.1264 0.48958 0.87832 0.0
C400 C 0.11381 0.46492 0.92715 0.0
H401 H 0.15439 0.49006 0.79964 0.0
H402 H 0.12144 0.52544 0.87278 0.0
S403 S 0.1268 0.34162 0.95736 0.0
N404 N 0.14657 0.35231 0.89645 0.0
N405 N 0.11082 0.39017 0.97494 0.0
C406 C 0.12148 0.41824 0.93085 0.0
C407 C 0.14055 0.3971 0.88734 0.0
C408 C 0.56009 0.73301 0.80938 0.0
C409 C 0.61691 0.73531 0.81097 0.0
C410 C 0.55139 0.77799 0.81922 0.0
C411 C 0.59943 0.82614 0.83162 0.0
H412 H 0.52256 0.69629 0.80164 0.0
H413 H 0.50715 0.77496 0.81898 0.0
S414 S 0.75715 0.85125 0.84406 0.0
N415 N 0.72178 0.78876 0.82732 0.0
N416 N 0.70567 0.87285 0.84647 0.0
C417 C 0.65633 0.82866 0.8326 0.0
C418 C 0.66504 0.78325 0.82239 0.0
C419 C 0.86723 0.1467 0.4561 0.0
C420 C 0.89108 0.18216 0.41822 0.0
C421 C 0.89292 0.11294 0.47502 0.0
C422 C 0.94349 0.11384 0.45694 0.0
H423 H 0.82792 0.14444 0.47048 0.0
H424 H 0.8738 0.08683 0.50492 0.0
S425 S 1.02184 0.1987 0.35691 0.0
N426 N 0.96755 0.21588 0.36296 0.0
N427 N 1.01525 0.15202 0.39778 0.0
C428 C 0.96732 0.14882 0.41871 0.0
C429 C 0.94126 0.18308 0.39954 0.0
C430 C 0.27982 0.63222 0.2059 0.0
C431 C 0.33 0.65499 0.18173 0.0
C432 C 0.22364 0.60953 0.17332 0.0
C433 C 0.21559 0.60919 0.11541 0.0
H434 H 0.28364 0.63418 0.25041 0.0
H435 H 0.18615 0.59407 0.19387 0.0
S436 S 0.33341 0.65537 1.03167 0.0
N437 N 0.36866 0.66931 0.09626 0.0
N438 N 0.26289 0.62768 1.035 0.0
C439 C 0.26559 0.62869 0.09058 0.0
C440 C 0.32283 0.65137 0.12375 0.0
C441 C 0.32812 0.41255 0.68766 0.0
C442 C 0.29239 0.43829 0.69825 0.0
C443 C 0.37287 0.43279 0.65629 0.0
C444 C 0.38627 0.48093 0.63482 0.0
H445 H 0.32064 0.37531 0.70289 0.0
H446 H 0.39773 0.41039 0.64929 0.0
S447 S 0.31013 0.56692 0.65294 0.0
N448 N 0.27569 0.5163 0.68544 0.0
N449 N 0.36204 0.55561 0.629 0.0
C450 C 0.35333 0.50874 0.64719 0.0
C451 C 0.30626 0.48734 0.67832 0.0
C452 C 0.6712 0.56258 0.91536 0.0
C453 C 0.6646 0.60928 0.9114 0.0
C454 C 0.72045 0.56099 0.94928 0.0
C455 C 0.76214 0.60565 0.98146 0.0
H456 H 0.64466 0.5305 0.88507 0.0
H457 H 0.73004 0.52744 0.9437 0.0
S458 S 0.74594 0.72745 1.00714 0.0
N459 N 0.69022 0.69405 0.95748 0.0
N460 N 0.78096 0.68995 1.02357 0.0
C461 C 0.7467 0.64731 0.9887 0.0
C462 C 0.69747 0.64926 0.95331 0.0
C463 C 0.55027 0.84278 0.20124 0.0
C464 C 0.49735 0.82477 0.2221 0.0
C465 C 0.5662 0.88595 0.16934 0.0
C466 C 0.52924 0.91235 0.15553 0.0
H467 H 0.57796 0.82163 0.20684 0.0
H468 H 0.60655 0.89714 0.15315 0.0
S469 S 0.38847 0.88379 0.20385 0.0
N470 N 0.41073 0.84027 0.23017 0.0
N471 N 0.43926 0.91895 0.16926 0.0
C472 C 0.47764 0.89605 0.17816 0.0
C473 C 0.46222 0.85316 0.21156 0.0
C474 C 0.07131 0.24247 0.68744 0.0
C475 C 0.13202 0.26791 0.7078 0.0
C476 C 0.04675 0.19261 0.65897 0.0
C477 C 0.08154 0.16555 0.64945 0.0
H478 H 1.0428 0.26202 0.69152 0.0
H479 H 0.99994 0.17556 0.64325 0.0
S480 S 0.24235 0.21304 0.69799 0.0
N481 N 0.2258 0.26016 0.71931 0.0
N482 N 0.17993 0.16775 0.66563 0.0
C483 C 0.14196 0.18987 0.67114 0.0
C484 C 0.16695 0.24044 0.70027 0.0
C485 C 0.78991 0.336 0.45595 0.0
C486 C 0.77198 0.28508 0.43399 0.0
C487 C 0.74865 0.35393 0.4693 0.0
C488 C 0.68807 0.3218 0.45983 0.0
H489 H 0.83539 0.36275 0.45986 0.0
H490 H 0.76399 0.39389 0.48484 0.0
S491 S 0.61993 0.18494 0.40271 0.0
N492 N 0.69102 0.20215 0.40544 0.0
N493 N 0.61307 0.23626 0.42736 0.0
C494 C 0.67025 0.27017 0.43976 0.0
C495 C 0.71235 0.25176 0.42756 0.0
loop_
_geom_bond_atom_site_label_1
_geom_bond_atom_site_label_2
_geom_bond_distance
_geom_bond_site_symmetry_2
_ccdc_geom_bond_type
H0 C3 0.931 . S
H1 C6 0.928 . S
H2 C8 0.930 . S
C3 H0 0.931 . S
C3 C4 1.413 . S
C3 C5 1.360 . S
C4 C3 1.413 . S
C4 C8 1.429 . S
C5 C3 1.360 . S
C5 C6 1.372 . S
C6 H1 0.928 . S
C6 C5 1.372 . S
C6 C7 1.404 . S
C7 C6 1.404 . S
C7 C8 1.391 . S
C8 H2 0.930 . S
C8 C4 1.429 . S
C8 C7 1.391 . S
H9 C12 0.931 . S
H10 C15 0.928 . S
H11 C17 0.930 . S
C12 H9 0.931 . S
C12 C13 1.413 . S
C12 C14 1.360 . S
C13 C12 1.413 . S
C13 C17 1.429 . S
C14 C12 1.360 . S
C14 C15 1.372 . S
C15 H10 0.928 . S
C15 C14 1.372 . S
C15 C16 1.404 . S
C16 C15 1.404 . S
C16 C17 1.391 . S
C17 H11 0.930 . S
C17 C13 1.429 . S
C17 C16 1.391 . S
H18 C21 0.931 . S
H19 C24 0.928 . S
H20 C26 0.930 . S
C21 H18 0.931 . S
C21 C22 1.413 . S
C21 C23 1.360 . S
C22 C21 1.413 . S
C22 C26 1.429 . S
C23 C21 1.360 . S
C23 C24 1.372 . S
C24 H19 0.928 . S
C24 C23 1.372 . S
C24 C25 1.404 . S
C25 C24 1.404 . S
C25 C26 1.391 . S
C26 H20 0.930 . S
C26 C22 1.429 . S
C26 C25 1.391 . S
H27 C30 0.931 . S
H28 C33 0.928 . S
H29 C35 0.930 . S
C30 H27 0.931 . S
C30 C31 1.413 . S
C30 C32 1.360 . S
C31 C30 1.413 . S
C31 C35 1.429 . S
C32 C30 1.360 . S
C32 C33 1.372 . S
C33 H28 0.928 . S
C33 C32 1.372 . S
C33 C34 1.404 . S
C34 C33 1.404 . S
C34 C35 1.391 . S
C35 H29 0.930 . S
C35 C31 1.429 . S
C35 C34 1.391 . S
H36 C39 0.931 . S
H37 C42 0.928 . S
H38 C44 0.930 . S
C39 H36 0.931 . S
C39 C40 1.413 . S
C39 C41 1.360 . S
C40 C39 1.413 . S
C40 C44 1.429 . S
C41 C39 1.360 . S
C41 C42 1.372 . S
C42 H37 0.928 . S
C42 C41 1.372 . S
C42 C43 1.404 . S
C43 C42 1.404 . S
C43 C44 1.391 . S
C44 H38 0.930 . S
C44 C40 1.429 . S
C44 C43 1.391 . S
H45 C48 0.931 . S
H46 C51 0.928 . S
H47 C53 0.930 . S
C48 H45 0.931 . S
C48 C49 1.413 . S
C48 C50 1.360 . S
C49 C48 1.413 . S
C49 C53 1.429 . S
C50 C48 1.360 . S
C50 C51 1.372 . S
C51 H46 0.928 . S
C51 C50 1.372 . S
C51 C52 1.404 . S
C52 C51 1.404 . S
C52 C53 1.391 . S
C53 H47 0.930 . S
C53 C49 1.429 . S
C53 C52 1.391 . S
H54 C57 0.931 . S
H55 C60 0.928 . S
H56 C62 0.930 . S
C57 H54 0.931 . S
C57 C58 1.413 . S
C57 C59 1.360 . S
C58 C57 1.413 . S
C58 C62 1.429 . S
C59 C57 1.360 . S
C59 C60 1.372 . S
C60 H55 0.928 . S
C60 C59 1.372 . S
C60 C61 1.404 . S
C61 C60 1.404 . S
C61 C62 1.391 . S
C62 H56 0.930 . S
C62 C58 1.429 . S
C62 C61 1.391 . S
H63 C66 0.931 . S
H64 C69 0.928 . S
H65 C71 0.930 . S
C66 H63 0.931 . S
C66 C67 1.413 . S
C66 C68 1.360 . S
C67 C66 1.413 . S
C67 C71 1.429 . S
C68 C66 1.360 . S
C68 C69 1.372 . S
C69 H64 0.928 . S
C69 C68 1.372 . S
C69 C70 1.404 . S
C70 C69 1.404 . S
C70 C71 1.391 . S
C71 H65 0.930 . S
C71 C67 1.429 . S
C71 C70 1.391 . S
Pr72 C74 2.880 . S
Pr72 O92 2.562 . S
Pr72 O93 2.490 . S
Pr72 O94 2.695 1_665 S
Pr72 O95 2.512 1_565 S
Pr72 O97 2.437 1_655 S
Pr72 O100 2.436 . S
Pr72 O102 2.438 1_565 S
Pr73 C83 2.880 . S
Pr73 O94 2.436 . S
Pr73 O96 2.438 1_545 S
Pr73 O98 2.562 . S
Pr73 O99 2.490 . S
Pr73 O100 2.695 1_445 S
Pr73 O101 2.512 1_545 S
Pr73 O103 2.437 1_455 S
C74 Pr72 2.880 . S
C74 C75 1.491 . S
C74 O92 1.254 . S
C74 O93 1.225 . S
C75 C74 1.491 . S
C75 C76 1.392 . S
C75 C80 1.356 . S
C76 C75 1.392 . S
C76 C77 1.368 . S
C76 H104 0.929 . S
C77 C76 1.368 . S
C77 C78 1.386 . S
C77 H105 0.929 . S
C78 C77 1.386 . S
C78 C79 1.373 . S
C79 C78 1.373 . S
C79 C80 1.409 . S
C79 H106 0.931 . S
C80 C75 1.356 . S
C80 C79 1.409 . S
C80 H107 0.930 . S
C81 O94 1.270 . S
C81 O95 1.248 1_455 S
C82 O96 1.267 . S
C82 O97 1.278 . S
C83 Pr73 2.880 . S
C83 C84 1.491 . S
C83 O98 1.254 . S
C83 O99 1.225 . S
C84 C83 1.491 . S
C84 C85 1.392 . S
C84 C89 1.356 . S
C85 C84 1.392 . S
C85 C86 1.368 . S
C85 H108 0.929 . S
C86 C85 1.368 . S
C86 C87 1.386 . S
C86 H109 0.929 . S
C87 C86 1.386 . S
C87 C88 1.373 . S
C88 C87 1.373 . S
C88 C89 1.409 . S
C88 H110 0.931 . S
C89 C84 1.356 . S
C89 C88 1.409 . S
C89 H111 0.930 . S
C90 O100 1.270 . S
C90 O101 1.248 1_655 S
C91 O102 1.267 . S
C91 O103 1.278 . S
O92 Pr72 2.562 . S
O92 C74 1.254 . S
O93 Pr72 2.490 . S
O93 C74 1.225 . S
O94 Pr72 2.695 1_445 S
O94 Pr73 2.436 . S
O94 C81 1.270 . S
O95 Pr72 2.512 1_545 S
O95 C81 1.248 1_655 S
O96 Pr73 2.438 1_565 S
O96 C82 1.267 . S
O97 Pr72 2.437 1_455 S
O97 C82 1.278 . S
O98 Pr73 2.562 . S
O98 C83 1.254 . S
O99 Pr73 2.490 . S
O99 C83 1.225 . S
O100 Pr72 2.436 . S
O100 Pr73 2.695 1_665 S
O100 C90 1.270 . S
O101 Pr73 2.512 1_565 S
O101 C90 1.248 1_455 S
O102 Pr72 2.438 1_545 S
O102 C91 1.267 . S
O103 Pr73 2.437 1_655 S
O103 C91 1.278 . S
H104 C76 0.929 . S
H105 C77 0.929 . S
H106 C79 0.931 . S
H107 C80 0.930 . S
H108 C85 0.929 . S
H109 C86 0.929 . S
H110 C88 0.931 . S
H111 C89 0.930 . S
Pr112 C114 2.880 . S
Pr112 O132 2.562 . S
Pr112 O133 2.490 . S
Pr112 O134 2.695 1_554 S
Pr112 O135 2.512 1_554 S
Pr112 O137 2.437 . S
Pr112 O140 2.436 1_545 S
Pr112 O142 2.438 1_544 S
Pr113 C123 2.880 . S
Pr113 O134 2.436 1_565 S
Pr113 O136 2.438 1_566 S
Pr113 O138 2.562 . S
Pr113 O139 2.490 . S
Pr113 O140 2.695 1_556 S
Pr113 O141 2.512 1_556 S
Pr113 O143 2.437 . S
C114 Pr112 2.880 . S
C114 C115 1.491 . S
C114 O132 1.254 . S
C114 O133 1.225 . S
C115 C114 1.491 . S
C115 C116 1.392 . S
C115 C120 1.356 . S
C116 C115 1.392 . S
C116 C117 1.368 . S
C116 H144 0.929 . S
C117 C116 1.368 . S
C117 C118 1.386 . S
C117 H145 0.929 . S
C118 C117 1.386 . S
C118 C119 1.373 . S
C119 C118 1.373 . S
C119 C120 1.409 . S
C119 H146 0.931 . S
C120 C115 1.356 . S
C120 C119 1.409 . S
C120 H147 0.930 . S
C121 O134 1.270 . S
C121 O135 1.248 . S
C122 O136 1.267 . S
C122 O137 1.278 . S
C123 Pr113 2.880 . S
C123 C124 1.491 . S
C123 O138 1.254 . S
C123 O139 1.225 . S
C124 C123 1.491 . S
C124 C125 1.392 . S
C124 C129 1.356 . S
C125 C124 1.392 . S
C125 C126 1.368 . S
C125 H148 0.929 . S
C126 C125 1.368 . S
C126 C127 1.386 . S
C126 H149 0.929 . S
C127 C126 1.386 . S
C127 C128 1.373 . S
C128 C127 1.373 . S
C128 C129 1.409 . S
C128 H150 0.931 . S
C129 C124 1.356 . S
C129 C128 1.409 . S
C129 H151 0.930 . S
C130 O140 1.270 . S
C130 O141 1.248 . S
C131 O142 1.267 . S
C131 O143 1.278 . S
O132 Pr112 2.562 . S
O132 C114 1.254 . S
O133 Pr112 2.490 . S
O133 C114 1.225 . S
O134 Pr112 2.695 1_556 S
O134 Pr113 2.436 1_545 S
O134 C121 1.270 . S
O135 Pr112 2.512 1_556 S
O135 C121 1.248 . S
O136 Pr113 2.438 1_544 S
O136 C122 1.267 . S
O137 Pr112 2.437 . S
O137 C122 1.278 . S
O138 Pr113 2.562 . S
O138 C123 1.254 . S
O139 Pr113 2.490 . S
O139 C123 1.225 . S
O140 Pr112 2.436 1_565 S
O140 Pr113 2.695 1_554 S
O140 C130 1.270 . S
O141 Pr113 2.512 1_554 S
O141 C130 1.248 . S
O142 Pr112 2.438 1_566 S
O142 C131 1.267 . S
O143 Pr113 2.437 . S
O143 C131 1.278 . S
H144 C116 0.929 . S
H145 C117 0.929 . S
H146 C119 0.931 . S
H147 C120 0.930 . S
H148 C125 0.929 . S
H149 C126 0.929 . S
H150 C128 0.931 . S
H151 C129 0.930 . S
Pr152 C154 2.880 . S
Pr152 O172 2.562 . S
Pr152 O173 2.490 . S
Pr152 O174 2.695 . S
Pr152 O175 2.512 . S
Pr152 O177 2.437 . S
Pr152 O180 2.436 . S
Pr152 O182 2.438 . S
Pr153 C163 2.880 . S
Pr153 O174 2.436 . S
Pr153 O176 2.438 . S
Pr153 O178 2.562 . S
Pr153 O179 2.490 . S
Pr153 O180 2.695 . S
Pr153 O181 2.512 . S
Pr153 O183 2.437 . S
C154 Pr152 2.880 . S
C154 C155 1.491 . S
C154 O172 1.254 . S
C154 O173 1.225 . S
C155 C154 1.491 . S
C155 C156 1.392 . S
C155 C160 1.356 . S
C156 C155 1.392 . S
C156 C157 1.368 . S
C156 H184 0.929 . S
C157 C156 1.368 . S
C157 C158 1.386 . S
C157 H185 0.929 . S
C158 C157 1.386 . S
C158 C159 1.373 . S
C159 C158 1.373 . S
C159 C160 1.409 . S
C159 H186 0.931 . S
C160 C155 1.356 . S
C160 C159 1.409 . S
C160 H187 0.930 . S
C161 O174 1.270 . S
C161 O175 1.248 . S
C162 O176 1.267 . S
C162 O177 1.278 . S
C163 Pr153 2.880 . S
C163 C164 1.491 . S
C163 O178 1.254 . S
C163 O179 1.225 . S
C164 C163 1.491 . S
C164 C165 1.392 . S
C164 C169 1.356 . S
C165 C164 1.392 . S
C165 C166 1.368 . S
C165 H188 0.929 . S
C166 C165 1.368 . S
C166 C167 1.386 . S
C166 H189 0.929 . S
C167 C166 1.386 . S
C167 C168 1.373 . S
C168 C167 1.373 . S
C168 C169 1.409 . S
C168 H190 0.931 . S
C169 C164 1.356 . S
C169 C168 1.409 . S
C169 H191 0.930 . S
C170 O180 1.270 . S
C170 O181 1.248 . S
C171 O182 1.267 . S
C171 O183 1.278 . S
O172 Pr152 2.562 . S
O172 C154 1.254 . S
O173 Pr152 2.490 . S
O173 C154 1.225 . S
O174 Pr152 2.695 . S
O174 Pr153 2.436 . S
O174 C161 1.270 . S
O175 Pr152 2.512 . S
O175 C161 1.248 . S
O176 Pr153 2.438 . S
O176 C162 1.267 . S
O177 Pr152 2.437 . S
O177 C162 1.278 . S
O178 Pr153 2.562 . S
O178 C163 1.254 . S
O179 Pr153 2.490 . S
O179 C163 1.225 . S
O180 Pr152 2.436 . S
O180 Pr153 2.695 . S
O180 C170 1.270 . S
O181 Pr153 2.512 . S
O181 C170 1.248 . S
O182 Pr152 2.438 . S
O182 C171 1.267 . S
O183 Pr153 2.437 . S
O183 C171 1.278 . S
H184 C156 0.929 . S
H185 C157 0.929 . S
H186 C159 0.931 . S
H187 C160 0.930 . S
H188 C165 0.929 . S
H189 C166 0.929 . S
H190 C168 0.931 . S
H191 C169 0.930 . S
Pr192 C194 2.880 . S
Pr192 O212 2.562 . S
Pr192 O213 2.490 . S
Pr192 O214 2.695 1_656 S
Pr192 O215 2.512 1_656 S
Pr192 O217 2.437 1_556 S
Pr192 O220 2.436 . S
Pr192 O222 2.438 1_655 S
Pr193 C203 2.880 . S
Pr193 O214 2.436 . S
Pr193 O216 2.438 1_455 S
Pr193 O218 2.562 . S
Pr193 O219 2.490 . S
Pr193 O220 2.695 1_454 S
Pr193 O221 2.512 1_454 S
Pr193 O223 2.437 1_554 S
C194 Pr192 2.880 . S
C194 C195 1.491 . S
C194 O212 1.254 . S
C194 O213 1.225 . S
C195 C194 1.491 . S
C195 C196 1.392 . S
C195 C200 1.356 . S
C196 C195 1.392 . S
C196 C197 1.368 . S
C196 H224 0.929 . S
C197 C196 1.368 . S
C197 C198 1.386 . S
C197 H225 0.929 . S
C198 C197 1.386 . S
C198 C199 1.373 . S
C199 C198 1.373 . S
C199 C200 1.409 . S
C199 H226 0.931 . S
C200 C195 1.356 . S
C200 C199 1.409 . S
C200 H227 0.930 . S
C201 O214 1.270 . S
C201 O215 1.248 . S
C202 O216 1.267 . S
C202 O217 1.278 . S
C203 Pr193 2.880 . S
C203 C204 1.491 . S
C203 O218 1.254 . S
C203 O219 1.225 . S
C204 C203 1.491 . S
C204 C205 1.392 . S
C204 C209 1.356 . S
C205 C204 1.392 . S
C205 C206 1.368 . S
C205 H228 0.929 . S
C206 C205 1.368 . S
C206 C207 1.386 . S
C206 H229 0.929 . S
C207 C206 1.386 . S
C207 C208 1.373 . S
C208 C207 1.373 . S
C208 C209 1.409 . S
C208 H230 0.931 . S
C209 C204 1.356 . S
C209 C208 1.409 . S
C209 H231 0.930 . S
C210 O220 1.270 . S
C210 O221 1.248 . S
C211 O222 1.267 . S
C211 O223 1.278 . S
O212 Pr192 2.562 . S
O212 C194 1.254 . S
O213 Pr192 2.490 . S
O213 C194 1.225 . S
O214 Pr192 2.695 1_454 S
O214 Pr193 2.436 . S
O214 C201 1.270 . S
O215 Pr192 2.512 1_454 S
O215 C201 1.248 . S
O216 Pr193 2.438 1_655 S
O216 C202 1.267 . S
O217 Pr192 2.437 1_554 S
O217 C202 1.278 . S
O218 Pr193 2.562 . S
O218 C203 1.254 . S
O219 Pr193 2.490 . S
O219 C203 1.225 . S
O220 Pr192 2.436 . S
O220 Pr193 2.695 1_656 S
O220 C210 1.270 . S
O221 Pr193 2.512 1_656 S
O221 C210 1.248 . S
O222 Pr192 2.438 1_455 S
O222 C211 1.267 . S
O223 Pr193 2.437 1_556 S
O223 C211 1.278 . S
H224 C196 0.929 . S
H225 C197 0.929 . S
H226 C199 0.931 . S
H227 C200 0.930 . S
H228 C205 0.929 . S
H229 C206 0.929 . S
H230 C208 0.931 . S
H231 C209 0.930 . S
C232 C233 1.369 . S
C232 C234 1.419 . S
C232 H236 0.930 . S
C233 C232 1.369 . S
C233 C242 1.429 . S
C234 C232 1.419 . S
C234 C235 1.363 . S
C234 H237 0.929 . S
C235 C234 1.363 . S
C235 C241 1.428 . S
H236 C232 0.930 . S
H237 C234 0.929 . S
S238 N239 1.613 . S
S238 N240 1.610 . S
N239 S238 1.613 . S
N239 C242 1.350 . S
N240 S238 1.610 . S
N240 C241 1.351 . S
C241 C235 1.428 . S
C241 N240 1.351 . S
C241 C242 1.434 . S
C242 C233 1.429 . S
C242 N239 1.350 . S
C242 C241 1.434 . S
C243 C244 1.369 . S
C243 C245 1.419 . S
C243 H247 0.930 . S
C244 C243 1.369 . S
C244 C253 1.429 . S
C245 C243 1.419 . S
C245 C246 1.363 . S
C245 H248 0.929 . S
C246 C245 1.363 . S
C246 C252 1.428 . S
H247 C243 0.930 . S
H248 C245 0.929 . S
S249 N250 1.613 . S
S249 N251 1.610 . S
N250 S249 1.613 . S
N250 C253 1.350 . S
N251 S249 1.610 . S
N251 C252 1.351 . S
C252 C246 1.428 . S
C252 N251 1.351 . S
C252 C253 1.434 . S
C253 C244 1.429 . S
C253 N250 1.350 . S
C253 C252 1.434 . S
C254 C255 1.369 . S
C254 C256 1.419 . S
C254 H258 0.930 . S
C255 C254 1.369 . S
C255 C264 1.429 . S
C256 C254 1.419 . S
C256 C257 1.363 . S
C256 H259 0.929 . S
C257 C256 1.363 . S
C257 C263 1.428 . S
H258 C254 0.930 . S
H259 C256 0.929 . S
S260 N261 1.613 . S
S260 N262 1.610 . S
N261 S260 1.613 . S
N261 C264 1.350 . S
N262 S260 1.610 . S
N262 C263 1.351 . S
C263 C257 1.428 . S
C263 N262 1.351 . S
C263 C264 1.434 . S
C264 C255 1.429 . S
C264 N261 1.350 . S
C264 C263 1.434 . S
C265 C266 1.369 . S
C265 C267 1.419 . S
C265 H269 0.930 . S
C266 C265 1.369 . S
C266 C275 1.429 . S
C267 C265 1.419 . S
C267 C268 1.363 . S
C267 H270 0.929 . S
C268 C267 1.363 . S
C268 C274 1.428 . S
H269 C265 0.930 . S
H270 C267 0.929 . S
S271 N272 1.613 1_455 S
S271 N273 1.610 1_455 S
N272 S271 1.613 1_655 S
N272 C275 1.350 . S
N273 S271 1.610 1_655 S
N273 C274 1.351 . S
C274 C268 1.428 . S
C274 N273 1.351 . S
C274 C275 1.434 . S
C275 C266 1.429 . S
C275 N272 1.350 . S
C275 C274 1.434 . S
C276 C277 1.369 . S
C276 C278 1.419 . S
C276 H280 0.930 . S
C277 C276 1.369 . S
C277 C286 1.429 . S
C278 C276 1.419 . S
C278 C279 1.363 . S
C278 H281 0.929 . S
C279 C278 1.363 . S
C279 C285 1.428 . S
H280 C276 0.930 . S
H281 C278 0.929 . S
S282 N283 1.613 . S
S282 N284 1.610 . S
N283 S282 1.613 . S
N283 C286 1.350 . S
N284 S282 1.610 . S
N284 C285 1.351 . S
C285 C279 1.428 . S
C285 N284 1.351 . S
C285 C286 1.434 . S
C286 C277 1.429 . S
C286 N283 1.350 . S
C286 C285 1.434 . S
C287 C288 1.369 . S
C287 C289 1.419 . S
C287 H291 0.930 . S
C288 C287 1.369 . S
C288 C297 1.429 . S
C289 C287 1.419 . S
C289 C290 1.363 . S
C289 H292 0.929 . S
C290 C289 1.363 . S
C290 C296 1.428 . S
H291 C287 0.930 . S
H292 C289 0.929 . S
S293 N294 1.613 . S
S293 N295 1.610 . S
N294 S293 1.613 . S
N294 C297 1.350 . S
N295 S293 1.610 . S
N295 C296 1.351 . S
C296 C290 1.428 . S
C296 N295 1.351 . S
C296 C297 1.434 . S
C297 C288 1.429 . S
C297 N294 1.350 . S
C297 C296 1.434 . S
C298 C299 1.369 . S
C298 C300 1.419 . S
C298 H302 0.930 . S
C299 C298 1.369 . S
C299 C308 1.429 . S
C300 C298 1.419 . S
C300 C301 1.363 . S
C300 H303 0.929 . S
C301 C300 1.363 . S
C301 C307 1.428 . S
H302 C298 0.930 . S
H303 C300 0.929 . S
S304 N305 1.613 . S
S304 N306 1.610 . S
N305 S304 1.613 . S
N305 C308 1.350 . S
N306 S304 1.610 . S
N306 C307 1.351 . S
C307 C301 1.428 . S
C307 N306 1.351 . S
C307 C308 1.434 . S
C308 C299 1.429 . S
C308 N305 1.350 . S
C308 C307 1.434 . S
C309 C310 1.369 . S
C309 C311 1.419 . S
C309 H313 0.930 . S
C310 C309 1.369 . S
C310 C319 1.429 . S
C311 C309 1.419 . S
C311 C312 1.363 . S
C311 H314 0.929 . S
C312 C311 1.363 . S
C312 C318 1.428 . S
H313 C309 0.930 . S
H314 C311 0.929 . S
S315 N316 1.613 . S
S315 N317 1.610 . S
N316 S315 1.613 . S
N316 C319 1.350 . S
N317 S315 1.610 . S
N317 C318 1.351 . S
C318 C312 1.428 . S
C318 N317 1.351 . S
C318 C319 1.434 . S
C319 C310 1.429 . S
C319 N316 1.350 . S
C319 C318 1.434 . S
C320 C321 1.369 . S
C320 C322 1.419 . S
C320 H324 0.930 . S
C321 C320 1.369 . S
C321 C330 1.429 . S
C322 C320 1.419 . S
C322 C323 1.363 . S
C322 H325 0.929 . S
C323 C322 1.363 . S
C323 C329 1.428 . S
H324 C320 0.930 . S
H325 C322 0.929 . S
S326 N327 1.613 . S
S326 N328 1.610 . S
N327 S326 1.613 . S
N327 C330 1.350 . S
N328 S326 1.610 . S
N328 C329 1.351 . S
C329 C323 1.428 . S
C329 N328 1.351 . S
C329 C330 1.434 . S
C330 C321 1.429 . S
C330 N327 1.350 . S
C330 C329 1.434 . S
C331 C332 1.369 . S
C331 C333 1.419 . S
C331 H335 0.930 . S
C332 C331 1.369 . S
C332 C341 1.429 . S
C333 C331 1.419 . S
C333 C334 1.363 . S
C333 H336 0.929 . S
C334 C333 1.363 . S
C334 C340 1.428 . S
H335 C331 0.930 . S
H336 C333 0.929 . S
S337 N338 1.613 . S
S337 N339 1.610 . S
N338 S337 1.613 . S
N338 C341 1.350 . S
N339 S337 1.610 . S
N339 C340 1.351 . S
C340 C334 1.428 . S
C340 N339 1.351 . S
C340 C341 1.434 . S
C341 C332 1.429 . S
C341 N338 1.350 . S
C341 C340 1.434 . S
C342 C343 1.369 . S
C342 C344 1.419 . S
C342 H346 0.930 . S
C343 C342 1.369 . S
C343 C352 1.429 . S
C344 C342 1.419 . S
C344 C345 1.363 . S
C344 H347 0.929 . S
C345 C344 1.363 . S
C345 C351 1.428 . S
H346 C342 0.930 . S
H347 C344 0.929 . S
S348 N349 1.613 . S
S348 N350 1.610 . S
N349 S348 1.613 . S
N349 C352 1.350 . S
N350 S348 1.610 . S
N350 C351 1.351 . S
C351 C345 1.428 . S
C351 N350 1.351 . S
C351 C352 1.434 . S
C352 C343 1.429 . S
C352 N349 1.350 . S
C352 C351 1.434 . S
C353 C354 1.369 . S
C353 C355 1.419 . S
C353 H357 0.930 . S
C354 C353 1.369 . S
C354 C363 1.429 . S
C355 C353 1.419 . S
C355 C356 1.363 . S
C355 H358 0.929 . S
C356 C355 1.363 . S
C356 C362 1.428 . S
H357 C353 0.930 . S
H358 C355 0.929 . S
S359 N360 1.613 . S
S359 N361 1.610 . S
N360 S359 1.613 . S
N360 C363 1.350 . S
N361 S359 1.610 . S
N361 C362 1.351 . S
C362 C356 1.428 . S
C362 N361 1.351 . S
C362 C363 1.434 . S
C363 C354 1.429 . S
C363 N360 1.350 . S
C363 C362 1.434 . S
C364 C365 1.369 . S
C364 C366 1.419 . S
C364 H368 0.930 . S
C365 C364 1.369 . S
C365 C374 1.429 . S
C366 C364 1.419 . S
C366 C367 1.363 . S
C366 H369 0.929 . S
C367 C366 1.363 . S
C367 C373 1.428 . S
H368 C364 0.930 . S
H369 C366 0.929 . S
S370 N371 1.613 . S
S370 N372 1.610 . S
N371 S370 1.613 . S
N371 C374 1.350 . S
N372 S370 1.610 . S
N372 C373 1.351 . S
C373 C367 1.428 . S
C373 N372 1.351 . S
C373 C374 1.434 . S
C374 C365 1.429 . S
C374 N371 1.350 . S
C374 C373 1.434 . S
C375 C376 1.369 . S
C375 C377 1.419 . S
C375 H379 0.930 . S
C376 C375 1.369 . S
C376 C385 1.429 . S
C377 C375 1.419 . S
C377 C378 1.363 . S
C377 H380 0.929 . S
C378 C377 1.363 . S
C378 C384 1.428 . S
H379 C375 0.930 . S
H380 C377 0.929 . S
S381 N382 1.613 . S
S381 N383 1.610 . S
N382 S381 1.613 . S
N382 C385 1.350 . S
N383 S381 1.610 . S
N383 C384 1.351 . S
C384 C378 1.428 . S
C384 N383 1.351 . S
C384 C385 1.434 . S
C385 C376 1.429 . S
C385 N382 1.350 . S
C385 C384 1.434 . S
C386 C387 1.369 . S
C386 C388 1.419 . S
C386 H390 0.930 . S
C387 C386 1.369 . S
C387 C396 1.429 . S
C388 C386 1.419 . S
C388 C389 1.363 . S
C388 H391 0.929 . S
C389 C388 1.363 . S
C389 C395 1.428 . S
H390 C386 0.930 . S
H391 C388 0.929 . S
S392 N393 1.613 . S
S392 N394 1.610 . S
N393 S392 1.613 . S
N393 C396 1.350 . S
N394 S392 1.610 . S
N394 C395 1.351 . S
C395 C389 1.428 . S
C395 N394 1.351 . S
C395 C396 1.434 . S
C396 C387 1.429 . S
C396 N393 1.350 . S
C396 C395 1.434 . S
C397 C398 1.369 . S
C397 C399 1.419 . S
C397 H401 0.930 . S
C398 C397 1.369 . S
C398 C407 1.429 . S
C399 C397 1.419 . S
C399 C400 1.363 . S
C399 H402 0.929 . S
C400 C399 1.363 . S
C400 C406 1.428 . S
H401 C397 0.930 . S
H402 C399 0.929 . S
S403 N404 1.613 . S
S403 N405 1.610 . S
N404 S403 1.613 . S
N404 C407 1.350 . S
N405 S403 1.610 . S
N405 C406 1.351 . S
C406 C400 1.428 . S
C406 N405 1.351 . S
C406 C407 1.434 . S
C407 C398 1.429 . S
C407 N404 1.350 . S
C407 C406 1.434 . S
C408 C409 1.369 . S
C408 C410 1.419 . S
C408 H412 0.930 . S
C409 C408 1.369 . S
C409 C418 1.429 . S
C410 C408 1.419 . S
C410 C411 1.363 . S
C410 H413 0.929 . S
C411 C410 1.363 . S
C411 C417 1.428 . S
H412 C408 0.930 . S
H413 C410 0.929 . S
S414 N415 1.613 . S
S414 N416 1.610 . S
N415 S414 1.613 . S
N415 C418 1.350 . S
N416 S414 1.610 . S
N416 C417 1.351 . S
C417 C411 1.428 . S
C417 N416 1.351 . S
C417 C418 1.434 . S
C418 C409 1.429 . S
C418 N415 1.350 . S
C418 C417 1.434 . S
C419 C420 1.369 . S
C419 C421 1.419 . S
C419 H423 0.930 . S
C420 C419 1.369 . S
C420 C429 1.429 . S
C421 C419 1.419 . S
C421 C422 1.363 . S
C421 H424 0.929 . S
C422 C421 1.363 . S
C422 C428 1.428 . S
H423 C419 0.930 . S
H424 C421 0.929 . S
S425 N426 1.613 1_455 S
S425 N427 1.610 1_455 S
N426 S425 1.613 1_655 S
N426 C429 1.350 . S
N427 S425 1.610 1_655 S
N427 C428 1.351 . S
C428 C422 1.428 . S
C428 N427 1.351 . S
C428 C429 1.434 . S
C429 C420 1.429 . S
C429 N426 1.350 . S
C429 C428 1.434 . S
C430 C431 1.369 . S
C430 C432 1.419 . S
C430 H434 0.930 . S
C431 C430 1.369 . S
C431 C440 1.429 . S
C432 C430 1.419 . S
C432 C433 1.363 . S
C432 H435 0.929 . S
C433 C432 1.363 . S
C433 C439 1.428 . S
H434 C430 0.930 . S
H435 C432 0.929 . S
S436 N437 1.613 . S
S436 N438 1.610 . S
N437 S436 1.613 . S
N437 C440 1.350 . S
N438 S436 1.610 . S
N438 C439 1.351 . S
C439 C433 1.428 . S
C439 N438 1.351 . S
C439 C440 1.434 . S
C440 C431 1.429 . S
C440 N437 1.350 . S
C440 C439 1.434 . S
C441 C442 1.369 . S
C441 C443 1.419 . S
C441 H445 0.930 . S
C442 C441 1.369 . S
C442 C451 1.429 . S
C443 C441 1.419 . S
C443 C444 1.363 . S
C443 H446 0.929 . S
C444 C443 1.363 . S
C444 C450 1.428 . S
H445 C441 0.930 . S
H446 C443 0.929 . S
S447 N448 1.613 . S
S447 N449 1.610 . S
N448 S447 1.613 . S
N448 C451 1.350 . S
N449 S447 1.610 . S
N449 C450 1.351 . S
C450 C444 1.428 . S
C450 N449 1.351 . S
C450 C451 1.434 . S
C451 C442 1.429 . S
C451 N448 1.350 . S
C451 C450 1.434 . S
C452 C453 1.369 . S
C452 C454 1.419 . S
C452 H456 0.930 . S
C453 C452 1.369 . S
C453 C462 1.429 . S
C454 C452 1.419 . S
C454 C455 1.363 . S
C454 H457 0.929 . S
C455 C454 1.363 . S
C455 C461 1.428 . S
H456 C452 0.930 . S
H457 C454 0.929 . S
S458 N459 1.613 . S
S458 N460 1.610 . S
N459 S458 1.613 . S
N459 C462 1.350 . S
N460 S458 1.610 . S
N460 C461 1.351 . S
C461 C455 1.428 . S
C461 N460 1.351 . S
C461 C462 1.434 . S
C462 C453 1.429 . S
C462 N459 1.350 . S
C462 C461 1.434 . S
C463 C464 1.369 . S
C463 C465 1.419 . S
C463 H467 0.930 . S
C464 C463 1.369 . S
C464 C473 1.429 . S
C465 C463 1.419 . S
C465 C466 1.363 . S
C465 H468 0.929 . S
C466 C465 1.363 . S
C466 C472 1.428 . S
H467 C463 0.930 . S
H468 C465 0.929 . S
S469 N470 1.613 . S
S469 N471 1.610 . S
N470 S469 1.613 . S
N470 C473 1.350 . S
N471 S469 1.610 . S
N471 C472 1.351 . S
C472 C466 1.428 . S
C472 N471 1.351 . S
C472 C473 1.434 . S
C473 C464 1.429 . S
C473 N470 1.350 . S
C473 C472 1.434 . S
C474 C475 1.369 . S
C474 C476 1.419 . S
C474 H478 0.930 . S
C475 C474 1.369 . S
C475 C484 1.429 . S
C476 C474 1.419 . S
C476 C477 1.363 . S
C476 H479 0.929 . S
C477 C476 1.363 . S
C477 C483 1.428 . S
H478 C474 0.930 . S
H479 C476 0.929 . S
S480 N481 1.613 . S
S480 N482 1.610 . S
N481 S480 1.613 . S
N481 C484 1.350 . S
N482 S480 1.610 . S
N482 C483 1.351 . S
C483 C477 1.428 . S
C483 N482 1.351 . S
C483 C484 1.434 . S
C484 C475 1.429 . S
C484 N481 1.350 . S
C484 C483 1.434 . S
C485 C486 1.369 . S
C485 C487 1.419 . S
C485 H489 0.930 . S
C486 C485 1.369 . S
C486 C495 1.429 . S
C487 C485 1.419 . S
C487 C488 1.363 . S
C487 H490 0.929 . S
C488 C487 1.363 . S
C488 C494 1.428 . S
H489 C485 0.930 . S
H490 C487 0.929 . S
S491 N492 1.613 . S
S491 N493 1.610 . S
N492 S491 1.613 . S
N492 C495 1.350 . S
N493 S491 1.610 . S
N493 C494 1.351 . S
C494 C488 1.428 . S
C494 N493 1.351 . S
C494 C495 1.434 . S
C495 C486 1.429 . S
C495 N492 1.350 . S
C495 C494 1.434 . S
C233 C5 1.081 . S
C235 C87 1.148 . S
C244 C14 1.319 . S
C246 C131 1.350 . S
C257 C161 2.328 . S
C255 C25 2.288 . S
C266 C34 2.764 . S
C268 C202 2.707 . S
C279 C118 0.906 . S
C277 C7 0.889 . S
C290 C82 2.195 . S
C288 C13 2.147 . S
C301 C210 1.153 . S
C299 C23 1.135 . S
C312 C171 2.289 . S
C310 C31 2.357 . S
C321 C4 1.440 . S
C323 C207 1.497 . S
C334 C121 2.068 . S
C332 C22 2.109 . S
C343 C32 1.955 . S
C345 C90 1.911 . S
C354 C16 1.992 . S
C356 C158 1.983 . S
C367 C78 1.144 . S
C365 C41 1.071 . S
C376 C50 1.325 . S
C378 C122 1.355 . S
C387 C61 2.288 . S
C389 C170 2.328 . S
C398 C67 2.773 . S
C400 C211 2.718 . S
C409 C40 0.885 . S
C411 C127 0.922 . S
C422 C91 2.178 . S
C420 C52 2.123 . S
C433 C201 1.156 . S
C431 C59 1.140 . S
C444 C162 2.294 . S
C442 C70 2.357 . S
C453 C43 1.418 . S
C455 C198 1.496 . S
C466 C130 2.084 . S
C464 C58 2.127 . S
C477 C81 1.896 . S
C475 C68 1.939 . S
C486 C49 2.001 . S
C488 C167 1.992 . S
