# Generated by pormake.
# Topology pyr, (3,6)-cn, num edge types: 1
# Building blocks:
#     Node 0, Type 0, BuildingBlock: ESEHIV_clean_linker_0, # of connection points: 3
#     Node 1, Type 0, BuildingBlock: ESEHIV_clean_linker_0, # of connection points: 3
#     Node 2, Type 0, BuildingBlock: ESEHIV_clean_linker_0, # of connection points: 3
#     Node 3, Type 0, BuildingBlock: ESEHIV_clean_linker_0, # of connection points: 3
#     Node 4, Type 0, BuildingBlock: ESEHIV_clean_linker_0, # of connection points: 3
#     Node 5, Type 0, BuildingBlock: ESEHIV_clean_linker_0, # of connection points: 3
#     Node 6, Type 0, BuildingBlock: ESEHIV_clean_linker_0, # of connection points: 3
#     Node 7, Type 0, BuildingBlock: ESEHIV_clean_linker_0, # of connection points: 3
#     Node 8, Type 1, BuildingBlock: PAMTOO_clean_sbu_0, # of connection points: 6
#     Node 9, Type 1, BuildingBlock: PAMTOO_clean_sbu_0, # of connection points: 6
#     Node 10, Type 1, BuildingBlock: PAMTOO_clean_sbu_0, # of connection points: 6
#     Node 11, Type 1, BuildingBlock: PAMTOO_clean_sbu_0, # of connection points: 6
#     Edge 12, Type (0, 1), BuildingBlock: OJICUG_clean_linker_0, # of connection points: 2
#     Edge 13, Type (0, 1), BuildingBlock: OJICUG_clean_linker_0, # of connection points: 2
#     Edge 14, Type (0, 1), BuildingBlock: OJICUG_clean_linker_0, # of connection points: 2
#     Edge 15, Type (0, 1), BuildingBlock: OJICUG_clean_linker_0, # of connection points: 2
#     Edge 16, Type (0, 1), BuildingBlock: OJICUG_clean_linker_0, # of connection points: 2
#     Edge 17, Type (0, 1), BuildingBlock: OJICUG_clean_linker_0, # of connection points: 2
#     Edge 18, Type (0, 1), BuildingBlock: OJICUG_clean_linker_0, # of connection points: 2
#     Edge 19, Type (0, 1), BuildingBlock: OJICUG_clean_linker_0, # of connection points: 2
#     Edge 20, Type (0, 1), BuildingBlock: OJICUG_clean_linker_0, # of connection points: 2
#     Edge 21, Type (0, 1), BuildingBlock: OJICUG_clean_linker_0, # of connection points: 2
#     Edge 22, Type (0, 1), BuildingBlock: OJICUG_clean_linker_0, # of connection points: 2
#     Edge 23, Type (0, 1), BuildingBlock: OJICUG_clean_linker_0, # of connection points: 2
#     Edge 24, Type (0, 1), BuildingBlock: OJICUG_clean_linker_0, # of connection points: 2
#     Edge 25, Type (0, 1), BuildingBlock: OJICUG_clean_linker_0, # of connection points: 2
#     Edge 26, Type (0, 1), BuildingBlock: OJICUG_clean_linker_0, # of connection points: 2
#     Edge 27, Type (0, 1), BuildingBlock: OJICUG_clean_linker_0, # of connection points: 2
#     Edge 28, Type (0, 1), BuildingBlock: OJICUG_clean_linker_0, # of connection points: 2
#     Edge 29, Type (0, 1), BuildingBlock: OJICUG_clean_linker_0, # of connection points: 2
#     Edge 30, Type (0, 1), BuildingBlock: OJICUG_clean_linker_0, # of connection points: 2
#     Edge 31, Type (0, 1), BuildingBlock: OJICUG_clean_linker_0, # of connection points: 2
#     Edge 32, Type (0, 1), BuildingBlock: OJICUG_clean_linker_0, # of connection points: 2
#     Edge 33, Type (0, 1), BuildingBlock: OJICUG_clean_linker_0, # of connection points: 2
#     Edge 34, Type (0, 1), BuildingBlock: OJICUG_clean_linker_0, # of connection points: 2
#     Edge 35, Type (0, 1), BuildingBlock: OJICUG_clean_linker_0, # of connection points: 2
# Relax obj value: 0.215
# Max RMSD: 0.199
# Mean RMSD: 0.084
data_MOF--net-pyr--node1-PAMTOO_clean_sbu_0--node2-ESEHIV_clean_linker_0--edge1-OJICUG_clean_linker_0
_symmetry_space_group_name_H-M    P1
_symmetry_Int_Tables_number       1
_symmetry_cell_setting            triclinic
loop_
_symmetry_equiv_pos_as_xyz
'x, y, z'
_cell_length_a     25.762865
_cell_length_b     26.359877
_cell_length_c     24.322857
_cell_angle_alpha  90.026543
_cell_angle_beta   89.917926
_cell_angle_gamma 105.20896
loop_
_atom_site_label
_atom_site_type_symbol
_atom_site_fract_x
_atom_site_fract_y
_atom_site_fract_z
_atom_type_partial_charge
H0 H 0.34404 0.35963 0.37809 0.0
H1 H 0.47615 0.29189 0.34865 0.0
H2 H 0.37527 0.31355 0.21526 0.0
C3 C 0.37081 0.34717 0.3499 0.0
C4 C 0.35744 0.34344 0.2938 0.0
C5 C 0.4125 0.32724 0.37075 0.0
C6 C 0.44437 0.308 0.33332 0.0
C7 C 0.42933 0.30029 0.27791 0.0
C8 C 0.38711 0.31986 0.25798 0.0
H9 H 0.03162 0.81691 0.8531 0.0
H10 H 0.16215 0.74691 0.88211 0.0
H11 H 0.12945 0.79037 0.7189 0.0
C12 C 0.06264 0.79972 0.83771 0.0
C13 C 0.07701 0.80611 0.78199 0.0
C14 C 0.09452 0.78053 0.87508 0.0
C15 C 0.13528 0.75927 0.85405 0.0
C16 C 0.14786 0.76171 0.79774 0.0
C17 C 0.11816 0.78506 0.76187 0.0
H18 H 0.69437 0.33789 1.01573 0.0
H19 H 0.70204 0.47702 0.92014 0.0
H20 H 0.57882 0.33453 0.88756 0.0
C21 C 0.67862 0.35794 0.98348 0.0
C22 C 0.63336 0.33001 0.95367 0.0
C23 C 0.70396 0.41096 0.97213 0.0
C24 C 0.68309 0.43619 0.92952 0.0
C25 C 0.63834 0.40897 0.89819 0.0
C26 C 0.61348 0.35583 0.91095 0.0
H27 H 0.82566 0.77165 0.52055 0.0
H28 H 0.93305 0.77507 0.38509 0.0
H29 H 0.80336 0.63683 0.41412 0.0
C30 C 0.83668 0.75245 0.48469 0.0
C31 C 0.80743 0.70096 0.47122 0.0
C32 C 0.88094 0.77997 0.45334 0.0
C33 C 0.89839 0.75434 0.4089 0.0
C34 C 0.87114 0.70202 0.39517 0.0
C35 C 0.82548 0.67603 0.42625 0.0
H36 H 0.5325 0.80763 0.8695 0.0
H37 H 0.66803 0.74438 0.84206 0.0
H38 H 0.61694 0.76418 1.00616 0.0
C39 C 0.56248 0.78937 0.8852 0.0
C40 C 0.57173 0.7897 0.94207 0.0
C41 C 0.5979 0.77454 0.84817 0.0
C42 C 0.63796 0.75243 0.86938 0.0
C43 C 0.64521 0.74837 0.92626 0.0
C44 C 0.61047 0.76537 0.96223 0.0
H45 H 0.84611 0.36472 0.34477 0.0
H46 H 0.98111 0.30053 0.37089 0.0
H47 H 0.89889 0.3463 0.50831 0.0
C48 C 0.8764 0.35674 0.37173 0.0
C49 C 0.86991 0.36152 0.42865 0.0
C50 C 0.91589 0.33399 0.35018 0.0
C51 C 0.95156 0.31925 0.38684 0.0
C52 C 0.94307 0.31967 0.44384 0.0
C53 C 0.90485 0.3446 0.46431 0.0
H54 H 0.32043 0.75241 0.23928 0.0
H55 H 0.29788 0.62587 0.3556 0.0
H56 H 0.44202 0.75467 0.36007 0.0
C57 C 0.33463 0.73428 0.27415 0.0
C58 C 0.38464 0.75927 0.29735 0.0
C59 C 0.30283 0.68637 0.29453 0.0
C60 C 0.32239 0.66256 0.33916 0.0
C61 C 0.37247 0.68698 0.36395 0.0
C62 C 0.40306 0.73577 0.34268 0.0
H63 H 0.07113 0.35373 0.86254 0.0
H64 H 0.19135 0.3552 0.74007 0.0
H65 H 0.2155 0.48221 0.85602 0.0
C66 C 0.10996 0.37247 0.84466 0.0
C67 C 0.14088 0.4213 0.8655 0.0
C68 C 0.12782 0.34872 0.7991 0.0
C69 C 0.1776 0.3735 0.77516 0.0
C70 C 0.2097 0.42146 0.79504 0.0
C71 C 0.19073 0.44549 0.83998 0.0
Dy72 Dy 0.07001 0.0755 0.60067 0.0
Dy73 Dy 0.94568 0.05323 0.64569 0.0
C74 C 0.0388 0.14917 0.69293 0.0
O75 O 0.05976 1.02627 0.67642 0.0
O76 O 0.97191 0.98186 0.66814 0.0
O77 O 0.15171 0.08476 0.62706 0.0
O78 O 0.13309 0.0851 0.53995 0.0
O79 O 0.94179 1.01159 0.56479 0.0
O80 O 0.02645 0.99948 0.56085 0.0
O81 O 0.9619 0.12973 0.60291 0.0
O82 O 0.03401 0.12779 0.54772 0.0
O83 O 0.86353 1.05217 0.62726 0.0
O84 O 0.88521 1.03076 0.70881 0.0
C85 C 0.02077 0.98363 0.68393 0.0
O86 O 0.06771 0.14625 0.6492 0.0
O87 O 0.9961 0.11106 0.70613 0.0
C88 C 0.21743 0.13784 0.57052 0.0
C89 C 0.30908 0.22059 0.54868 0.0
C90 C 0.25717 0.22665 0.53869 0.0
C91 C 0.21167 0.1856 0.54965 0.0
C92 C 0.26862 0.13315 0.58483 0.0
C93 C 0.31414 0.1743 0.57426 0.0
C94 C 0.17085 0.09237 0.5773 0.0
C95 C 0.97557 0.98581 0.54636 0.0
C96 C 0.99411 0.14803 0.56163 0.0
C97 C 0.8002 0.98526 0.67317 0.0
C98 C 0.70904 0.89925 0.68285 0.0
C99 C 0.76092 0.89282 0.692 0.0
C100 C 0.80613 0.93544 0.68704 0.0
C101 C 0.7493 0.99074 0.65886 0.0
C102 C 0.70407 0.94796 0.66319 0.0
C103 C 0.84618 1.032 0.67488 0.0
H104 H 0.25167 0.26146 0.51845 0.0
H105 H 0.17225 0.19033 0.53953 0.0
H106 H 0.27356 0.09686 0.60221 0.0
H107 H 0.35347 0.16865 0.58296 0.0
H108 H 0.7665 0.85613 0.70756 0.0
H109 H 0.84533 0.93001 0.69687 0.0
H110 H 0.7442 1.02868 0.6467 0.0
H111 H 0.66482 0.95398 0.65488 0.0
Dy112 Dy 0.44339 1.03329 1.09846 0.0
Dy113 Dy 0.5669 0.05538 0.14529 0.0
C114 C 0.47308 0.95894 0.19066 0.0
O115 O 0.45266 0.08095 0.1752 0.0
O116 O 0.53995 0.12664 0.16709 0.0
O117 O 0.36169 1.02584 0.124 0.0
O118 O 0.38083 1.02303 1.0372 0.0
O119 O 0.57266 0.09786 1.06479 0.0
O120 O 0.4878 0.10937 1.05915 0.0
O121 O 0.55176 0.97942 1.1014 0.0
O122 O 0.47984 0.98103 1.04594 0.0
O123 O 0.64934 0.05614 0.12867 0.0
O124 O 0.62598 0.07775 0.20958 0.0
C125 C 0.4908 0.12421 0.18257 0.0
O126 O 0.44485 0.96209 0.14655 0.0
O127 O 0.51539 0.9971 0.20467 0.0
C128 C 0.29565 0.97228 1.06836 0.0
C129 C 0.20276 0.89028 1.0489 0.0
C130 C 0.25421 0.88323 1.03829 0.0
C131 C 0.30033 0.92391 1.04807 0.0
C132 C 0.24493 0.97804 1.08317 0.0
C133 C 0.19881 0.93729 1.07377 0.0
C134 C 0.34286 1.01727 1.07426 0.0
C135 C 0.539 0.12337 1.04563 0.0
C136 C 0.51988 0.96109 1.05994 0.0
C137 C 0.71187 0.12289 0.17545 0.0
C138 C 0.80322 0.20856 0.18579 0.0
C139 C 0.75137 0.21516 0.19488 0.0
C140 C 0.70607 0.17271 0.18958 0.0
C141 C 0.7628 0.11725 0.16133 0.0
C142 C 0.80813 0.15985 0.166 0.0
C143 C 0.6657 0.07632 0.17652 0.0
H144 H 0.25883 0.84784 1.01853 0.0
H145 H 0.33936 0.91835 1.03758 0.0
H146 H 0.24082 1.01483 1.10012 0.0
H147 H 0.15986 0.94371 1.08289 0.0
H148 H 0.74586 0.25185 0.21056 0.0
H149 H 0.66687 0.17828 0.19928 0.0
H150 H 0.76781 0.07931 0.14899 0.0
H151 H 0.84736 0.15372 0.15775 0.0
Dy152 Dy 0.50596 0.50013 0.59666 0.0
Dy153 Dy 0.51332 0.60769 0.66902 0.0
C154 C 0.56057 0.51366 0.71609 0.0
O155 O 0.43775 0.47899 0.65718 0.0
O156 O 0.42711 0.56155 0.67037 0.0
O157 O 0.49786 0.41649 0.59062 0.0
O158 O 0.50921 0.46425 0.51713 0.0
O159 O 0.48979 0.62466 0.58379 0.0
O160 O 0.45154 0.54116 0.55271 0.0
O161 O 0.59717 0.62117 0.6366 0.0
O162 O 0.58067 0.55849 0.56815 0.0
O163 O 0.52615 0.69193 0.6763 0.0
O164 O 0.50071 0.64191 0.747 0.0
C165 C 0.40984 0.51043 0.67629 0.0
O166 O 0.56189 0.49579 0.66582 0.0
O167 O 0.53841 0.55215 0.72708 0.0
C168 C 0.56081 0.4031 0.52433 0.0
C169 C 0.66259 0.38914 0.49537 0.0
C170 C 0.64782 0.39065 0.55085 0.0
C171 C 0.59769 0.39785 0.56519 0.0
C172 C 0.57465 0.39951 0.46886 0.0
C173 C 0.62514 0.39284 0.45449 0.0
C174 C 0.51198 0.41986 0.5389 0.0
C175 C 0.45947 0.59245 0.54836 0.0
C176 C 0.61189 0.59996 0.5922 0.0
C177 C 0.45798 0.70912 0.73352 0.0
C178 C 0.35679 0.72924 0.74983 0.0
C179 C 0.37734 0.72814 0.69649 0.0
C180 C 0.42727 0.71773 0.68834 0.0
C181 C 0.43872 0.71309 0.78691 0.0
C182 C 0.38841 0.72272 0.79501 0.0
C183 C 0.50524 0.68812 0.7255 0.0
H184 H 0.67585 0.38821 0.58328 0.0
H185 H 0.58873 0.40119 0.60834 0.0
H186 H 0.54712 0.40377 0.4366 0.0
H187 H 0.63508 0.39104 0.41138 0.0
H188 H 0.3537 0.73295 0.66101 0.0
H189 H 0.44065 0.71423 0.6466 0.0
H190 H 0.46153 0.70635 0.82231 0.0
H191 H 0.37373 0.72411 0.8366 0.0
Dy192 Dy 0.00764 0.60896 1.09627 0.0
Dy193 Dy 0.99661 0.50183 0.16874 0.0
C194 C 0.95035 0.5962 0.21457 0.0
O195 O 0.07534 0.62973 0.15705 0.0
O196 O 0.08325 0.5466 0.17341 0.0
O197 O 0.01565 0.69257 1.08999 0.0
O198 O 0.00518 0.64481 1.01659 0.0
O199 O 0.02196 0.48527 1.08376 0.0
O200 O 0.06398 0.56857 1.05482 0.0
O201 O 0.91291 0.49348 0.13731 0.0
O202 O 0.93786 0.54752 1.06287 0.0
O203 O 0.98083 0.41718 0.17451 0.0
O204 O 0.00663 0.46563 0.24628 0.0
C205 C 0.10178 0.59777 0.17784 0.0
O206 O 0.94931 0.61294 0.16377 0.0
O207 O 0.9729 0.55828 0.22662 0.0
C208 C 0.95374 0.70624 1.0229 0.0
C209 C 0.85265 0.72112 0.99291 0.0
C210 C 0.86699 0.72005 1.04853 0.0
C211 C 0.91678 0.71242 1.06337 0.0
C212 C 0.94038 0.70943 0.96727 0.0
C213 C 0.89023 0.71654 0.95239 0.0
C214 C 0.00222 0.68923 1.03813 0.0
C215 C 0.05468 0.51722 1.04978 0.0
C216 C 0.90225 0.51058 1.0889 0.0
C217 C 0.04744 0.39708 0.23174 0.0
C218 C 0.14787 0.37512 0.24747 0.0
C219 C 0.12688 0.37567 0.19431 0.0
C220 C 0.07733 0.38696 0.18645 0.0
C221 C 0.06697 0.39336 0.28502 0.0
C222 C 0.11689 0.38283 0.29282 0.0
C223 C 0.00116 0.41962 0.22387 0.0
H224 H 0.83887 0.72315 1.08071 0.0
H225 H 0.92538 0.70949 1.10665 0.0
H226 H 0.96801 0.70454 0.9353 0.0
H227 H 0.88064 0.718 0.90918 0.0
H228 H 0.15 0.36993 0.15869 0.0
H229 H 0.06373 0.39012 0.14478 0.0
H230 H 0.04483 0.4012 0.32052 0.0
H231 H 0.13188 0.38187 0.33429 0.0
C232 C 0.38747 0.33763 0.46963 0.0
C233 C 0.41037 0.31115 0.42982 0.0
H234 H 0.33607 0.329 0.54034 0.0
C235 C 0.41576 0.2607 0.44293 0.0
H236 H 0.38521 0.37756 0.46263 0.0
C237 C 0.38887 0.23355 0.48802 0.0
C238 C 0.35588 0.25611 0.52064 0.0
H239 H 0.43382 0.23862 0.41466 0.0
H240 H 0.38794 0.19241 0.49209 0.0
C241 C 0.35949 0.30994 0.51436 0.0
C242 C 0.09383 0.84917 0.94581 0.0
C243 C 0.09803 0.79809 0.93375 0.0
H244 H 0.12374 0.91852 0.9929 0.0
C245 C 0.12122 0.77213 0.97372 0.0
H246 H 0.07564 0.87095 0.91741 0.0
C247 C 0.15052 0.8006 1.01725 0.0
C248 C 0.15514 0.85473 1.02227 0.0
H249 H 0.12261 0.73181 0.96761 0.0
H250 H 0.17403 0.78172 1.04323 0.0
C251 C 0.12202 0.87712 0.98975 0.0
C252 C 0.61137 0.48683 0.85787 0.0
C253 C 0.61851 0.43597 0.85151 0.0
H254 H 0.58737 0.551 0.82073 0.0
C255 C 0.60764 0.41156 0.7998 0.0
H256 H 0.61917 0.50676 0.89713 0.0
C257 C 0.59024 0.43727 0.75567 0.0
C258 C 0.58233 0.48783 0.76221 0.0
H259 H 0.61323 0.37269 0.79323 0.0
H260 H 0.58208 0.41702 0.71661 0.0
C261 C 0.59306 0.5122 0.814 0.0
C262 C 0.90278 0.6991 0.29687 0.0
C263 C 0.89002 0.6744 0.34826 0.0
H264 H 0.93056 0.69365 0.21435 0.0
C265 C 0.89565 0.62301 0.35463 0.0
H266 H 0.89851 0.73845 0.29034 0.0
C267 C 0.91465 0.5975 0.31126 0.0
C268 C 0.92752 0.62222 0.25987 0.0
H269 H 0.88642 0.60288 0.39366 0.0
H270 H 0.91932 0.55833 0.31807 0.0
C271 C 0.92077 0.67319 0.25313 0.0
C272 C 0.40832 0.21696 0.2245 0.0
C273 C 0.44735 0.25978 0.24636 0.0
H274 H 0.39135 0.14061 0.18843 0.0
C275 C 0.50162 0.25858 0.24555 0.0
H276 H 0.36604 0.21606 0.22563 0.0
C277 C 0.51627 0.21486 0.22422 0.0
C278 C 0.47671 0.17122 0.2045 0.0
H279 H 0.53244 0.29086 0.26265 0.0
H280 H 0.55826 0.21465 0.22448 0.0
C281 C 0.42276 0.17318 0.20412 0.0
C282 C 0.00637 0.84974 0.74942 0.0
C283 C 0.06018 0.84705 0.7501 0.0
H284 H 0.95139 0.89519 0.72762 0.0
C285 C 0.10009 0.88878 0.72754 0.0
H286 H 0.97493 0.81835 0.76711 0.0
C287 C 0.08698 0.93292 0.70643 0.0
C288 C 0.03351 0.93634 0.70677 0.0
H289 H 0.14207 0.88853 0.72858 0.0
H290 H 0.11902 0.96461 0.69014 0.0
C291 C 0.99304 0.89382 0.72733 0.0
C292 C 0.79606 0.47476 0.97686 0.0
C293 C 0.7534 0.43882 1.00348 0.0
H294 H 0.87558 0.5253 0.98255 0.0
C295 C 0.75963 0.42796 1.0596 0.0
H296 H 0.79356 0.48367 0.93366 0.0
C297 C 0.80759 0.45119 1.08765 0.0
C298 C 0.85034 0.48649 1.06058 0.0
H299 H 0.72744 0.40136 1.08205 0.0
H300 H 0.81112 0.44144 0.1305 0.0
C301 C 0.84359 0.4984 1.00501 0.0
C302 C 0.72701 0.70441 0.53045 0.0
C303 C 0.75789 0.67444 0.50386 0.0
H304 H 0.65842 0.70465 0.58052 0.0
C305 C 0.74059 0.61924 0.50895 0.0
H306 H 0.73699 0.74673 0.5265 0.0
C307 C 0.69372 0.59511 0.5384 0.0
C308 C 0.66379 0.62544 0.56512 0.0
H309 H 0.76313 0.59435 0.4904 0.0
H310 H 0.68094 0.55257 0.54045 0.0
C311 C 0.68135 0.68031 0.56142 0.0
C312 C 0.2704 0.32088 0.24062 0.0
C313 C 0.30656 0.35539 0.27582 0.0
H314 H 0.19178 0.3 0.20424 0.0
C315 C 0.29091 0.39813 0.29878 0.0
H316 H 0.28049 0.28697 0.22296 0.0
C317 C 0.2396 0.40465 0.28914 0.0
C318 C 0.20298 0.3691 0.2556 0.0
H319 H 0.31793 0.42589 0.32542 0.0
H320 H 0.22841 0.43743 0.30818 0.0
C321 C 0.2193 0.32792 0.23032 0.0
C322 C 0.63917 0.2393 0.97964 0.0
C323 C 0.60734 0.27407 0.96865 0.0
H324 H 0.64281 0.16474 1.01151 0.0
C325 C 0.5515 0.25637 0.97737 0.0
H326 H 0.6822 0.25133 0.97262 0.0
C327 C 0.52864 0.20632 0.9998 0.0
C328 C 0.56109 0.17273 1.01372 0.0
H329 H 0.52587 0.28223 0.96957 0.0
H330 H 0.48588 0.19493 1.00838 0.0
C331 C 0.61643 0.18941 1.0018 0.0
C332 C 0.96335 0.85292 0.47757 0.0
C333 C 0.90763 0.83569 0.46828 0.0
H334 H 0.02883 0.91394 0.50953 0.0
C335 C 0.87596 0.8707 0.47896 0.0
H336 H 0.98876 0.82679 0.46996 0.0
C337 C 0.89868 0.92041 0.50139 0.0
C338 C 0.95383 0.93667 0.51402 0.0
H339 H 0.83298 0.85884 0.47167 0.0
H340 H 0.87235 0.94523 0.51086 0.0
C341 C 0.98621 0.90284 0.5004 0.0
C342 C 0.21428 0.70689 0.80288 0.0
C343 C 0.1984 0.74924 0.77939 0.0
H344 H 0.27692 0.66778 0.81229 0.0
C345 C 0.23419 0.78315 0.7433 0.0
H346 H 0.18755 0.67963 0.83026 0.0
C347 C 0.28514 0.77592 0.7326 0.0
C348 C 0.30172 0.73518 0.75835 0.0
H349 H 0.22398 0.81681 0.72526 0.0
H350 H 0.31238 0.80344 0.70586 0.0
C351 C 0.26548 0.70019 0.79282 0.0
C352 C 0.5988 0.84801 0.78272 0.0
C353 C 0.60468 0.79695 0.79134 0.0
H354 H 0.62684 0.92039 0.74047 0.0
C355 C 0.63062 0.77488 0.75023 0.0
H356 H 0.57886 0.86709 0.81229 0.0
C357 C 0.6596 0.80669 0.70855 0.0
C358 C 0.6619 0.86056 0.70688 0.0
H359 H 0.63366 0.7348 0.75374 0.0
H360 H 0.68456 0.7905 0.68141 0.0
C361 C 0.62691 0.87933 0.7408 0.0
C362 C 0.88203 0.33296 0.25273 0.0
C363 C 0.90823 0.31103 0.29361 0.0
H364 H 0.82781 0.31725 0.18432 0.0
C365 C 0.91378 0.25982 0.28516 0.0
H366 H 0.87914 0.3731 0.25613 0.0
C367 C 0.88534 0.22837 0.24355 0.0
C368 C 0.85037 0.24717 0.20976 0.0
H369 H 0.93382 0.2408 0.31462 0.0
H370 H 0.88525 0.18727 0.2433 0.0
C371 C 0.8528 0.30107 0.21133 0.0
C372 C 0.38596 0.60705 0.41484 0.0
C373 C 0.39295 0.66191 0.41198 0.0
H374 H 0.40121 0.54204 0.45947 0.0
C375 C 0.4205 0.69296 0.45533 0.0
H376 H 0.36544 0.58174 0.38215 0.0
C377 C 0.44118 0.67023 0.49946 0.0
C378 C 0.43504 0.61556 0.50196 0.0
H379 H 0.42591 0.73511 0.45544 0.0
H380 H 0.46229 0.69586 0.53165 0.0
C381 C 0.40672 0.5842 0.45918 0.0
C382 C 0.12854 0.5017 0.91655 0.0
C383 C 0.12092 0.44674 0.91371 0.0
H384 H 0.11397 0.56711 0.96113 0.0
C385 C 0.09314 0.41597 0.95718 0.0
H386 H 0.14923 0.52683 0.88378 0.0
C387 C 0.07269 0.43905 1.00131 0.0
C388 C 0.07938 0.49379 1.00372 0.0
H389 H 0.08728 0.37376 0.95738 0.0
H390 H 0.05128 0.41364 1.03354 0.0
C391 C 0.1081 0.52489 0.96093 0.0
C392 C 0.59014 0.85965 1.01393 0.0
C393 C 0.55328 0.82811 0.97726 0.0
H394 H 0.60895 0.92565 1.06719 0.0
C395 C 0.50351 0.83996 0.96885 0.0
H396 H 0.62963 0.85356 1.02042 0.0
C397 C 0.49191 0.88319 0.99531 0.0
C398 C 0.52978 0.91507 1.03084 0.0
H399 H 0.47404 0.81657 0.94095 0.0
H400 H 0.45365 0.89173 0.9878 0.0
C401 C 0.57852 0.90207 1.04031 0.0
C402 C 0.92495 0.25051 0.51645 0.0
C403 C 0.96157 0.28139 0.47907 0.0
H404 H 0.90604 0.18495 0.57024 0.0
C405 C 0.01095 0.26888 0.47 0.0
H406 H 0.88573 0.2571 0.52351 0.0
C407 C 0.02233 0.22558 0.49648 0.0
C408 C 0.98463 0.19428 0.53265 0.0
H409 H 0.04024 0.29176 0.44154 0.0
H410 H 0.06025 0.21647 0.4884 0.0
C411 C 0.93634 0.20802 0.54282 0.0
C412 C 0.23239 0.60812 0.25664 0.0
C413 C 0.24957 0.6623 0.26798 0.0
H414 H 0.17286 0.54528 0.21891 0.0
C415 C 0.21691 0.69449 0.25036 0.0
H416 H 0.25656 0.58216 0.26915 0.0
C417 C 0.1696 0.67366 0.22074 0.0
C418 C 0.15294 0.61978 0.20833 0.0
H419 H 0.22805 0.73621 0.25927 0.0
H420 H 0.14594 0.69996 0.20783 0.0
C421 C 0.18462 0.5871 0.22725 0.0
C422 C 0.27944 0.49962 0.75597 0.0
C423 C 0.26259 0.4455 0.76761 0.0
H424 H 0.33846 0.5625 0.71761 0.0
C425 C 0.29521 0.41337 0.74956 0.0
H426 H 0.25527 0.52552 0.76876 0.0
C427 C 0.34232 0.43428 0.71947 0.0
C428 C 0.3587 0.48814 0.7069 0.0
H429 H 0.28426 0.37168 0.75859 0.0
H430 H 0.36604 0.40808 0.70635 0.0
C431 C 0.32691 0.52068 0.72604 0.0
C432 C 0.71729 0.69945 0.92143 0.0
C433 C 0.69564 0.73722 0.94709 0.0
H434 H 0.78373 0.66481 0.91565 0.0
C435 C 0.72562 0.76848 0.98905 0.0
H436 H 0.69525 0.67451 0.88922 0.0
C437 C 0.77612 0.76281 1.0042 0.0
C438 C 0.79832 0.72612 0.9775 0.0
H439 H 0.71117 0.79898 1.00882 0.0
H440 H 0.79856 0.78837 1.03575 0.0
C441 C 0.76811 0.69411 0.93631 0.0
C442 C 0.43804 0.85503 0.30375 0.0
C443 C 0.41671 0.80945 0.27216 0.0
H444 H 0.47327 0.93896 0.30281 0.0
C445 C 0.42071 0.81327 0.21462 0.0
H446 H 0.43555 0.85333 0.34818 0.0
C447 C 0.44118 0.8617 0.18909 0.0
C448 C 0.45918 0.90788 0.22019 0.0
H449 H 0.40588 0.77885 0.18906 0.0
H450 H 0.44159 0.86317 0.14454 0.0
C451 C 0.45942 0.90398 0.27787 0.0
C452 C 0.07469 0.25292 0.80603 0.0
C453 C 0.09529 0.29856 0.77431 0.0
H454 H 0.03993 0.16889 0.80522 0.0
C455 C 0.09021 0.29485 0.71686 0.0
H456 H 0.07804 0.25456 0.85041 0.0
C457 C 0.06943 0.24642 0.69142 0.0
C458 C 0.05225 0.20017 0.72256 0.0
H459 H 0.10452 0.32932 0.69124 0.0
H460 H 0.06829 0.24498 0.64688 0.0
C461 C 0.05305 0.20395 0.78026 0.0
C462 C 0.79821 0.41085 0.42412 0.0
C463 C 0.81985 0.37321 0.44994 0.0
H464 H 0.7317 0.44534 0.4181 0.0
C465 C 0.78998 0.34234 0.49228 0.0
H466 H 0.82018 0.43552 0.39164 0.0
C467 C 0.73947 0.34809 0.50746 0.0
C468 C 0.71717 0.38446 0.48039 0.0
H469 H 0.80445 0.31198 0.51224 0.0
H470 H 0.71703 0.32275 0.53921 0.0
C471 C 0.74739 0.41626 0.43902 0.0
loop_
_geom_bond_atom_site_label_1
_geom_bond_atom_site_label_2
_geom_bond_distance
_geom_bond_site_symmetry_2
_ccdc_geom_bond_type
H0 C3 0.931 . S
H1 C6 0.928 . S
H2 C8 0.930 . S
C3 H0 0.931 . S
C3 C4 1.413 . S
C3 C5 1.360 . S
C4 C3 1.413 . S
C4 C8 1.429 . S
C5 C3 1.360 . S
C5 C6 1.372 . S
C6 H1 0.928 . S
C6 C5 1.372 . S
C6 C7 1.404 . S
C7 C6 1.404 . S
C7 C8 1.391 . S
C8 H2 0.930 . S
C8 C4 1.429 . S
C8 C7 1.391 . S
H9 C12 0.931 . S
H10 C15 0.928 . S
H11 C17 0.930 . S
C12 H9 0.931 . S
C12 C13 1.413 . S
C12 C14 1.360 . S
C13 C12 1.413 . S
C13 C17 1.429 . S
C14 C12 1.360 . S
C14 C15 1.372 . S
C15 H10 0.928 . S
C15 C14 1.372 . S
C15 C16 1.404 . S
C16 C15 1.404 . S
C16 C17 1.391 . S
C17 H11 0.930 . S
C17 C13 1.429 . S
C17 C16 1.391 . S
H18 C21 0.931 . S
H19 C24 0.928 . S
H20 C26 0.930 . S
C21 H18 0.931 . S
C21 C22 1.413 . S
C21 C23 1.360 . S
C22 C21 1.413 . S
C22 C26 1.429 . S
C23 C21 1.360 . S
C23 C24 1.372 . S
C24 H19 0.928 . S
C24 C23 1.372 . S
C24 C25 1.404 . S
C25 C24 1.404 . S
C25 C26 1.391 . S
C26 H20 0.930 . S
C26 C22 1.429 . S
C26 C25 1.391 . S
H27 C30 0.931 . S
H28 C33 0.928 . S
H29 C35 0.930 . S
C30 H27 0.931 . S
C30 C31 1.413 . S
C30 C32 1.360 . S
C31 C30 1.413 . S
C31 C35 1.429 . S
C32 C30 1.360 . S
C32 C33 1.372 . S
C33 H28 0.928 . S
C33 C32 1.372 . S
C33 C34 1.404 . S
C34 C33 1.404 . S
C34 C35 1.391 . S
C35 H29 0.930 . S
C35 C31 1.429 . S
C35 C34 1.391 . S
H36 C39 0.931 . S
H37 C42 0.928 . S
H38 C44 0.930 . S
C39 H36 0.931 . S
C39 C40 1.413 . S
C39 C41 1.360 . S
C40 C39 1.413 . S
C40 C44 1.429 . S
C41 C39 1.360 . S
C41 C42 1.372 . S
C42 H37 0.928 . S
C42 C41 1.372 . S
C42 C43 1.404 . S
C43 C42 1.404 . S
C43 C44 1.391 . S
C44 H38 0.930 . S
C44 C40 1.429 . S
C44 C43 1.391 . S
H45 C48 0.931 . S
H46 C51 0.928 . S
H47 C53 0.930 . S
C48 H45 0.931 . S
C48 C49 1.413 . S
C48 C50 1.360 . S
C49 C48 1.413 . S
C49 C53 1.429 . S
C50 C48 1.360 . S
C50 C51 1.372 . S
C51 H46 0.928 . S
C51 C50 1.372 . S
C51 C52 1.404 . S
C52 C51 1.404 . S
C52 C53 1.391 . S
C53 H47 0.930 . S
C53 C49 1.429 . S
C53 C52 1.391 . S
H54 C57 0.931 . S
H55 C60 0.928 . S
H56 C62 0.930 . S
C57 H54 0.931 . S
C57 C58 1.413 . S
C57 C59 1.360 . S
C58 C57 1.413 . S
C58 C62 1.429 . S
C59 C57 1.360 . S
C59 C60 1.372 . S
C60 H55 0.928 . S
C60 C59 1.372 . S
C60 C61 1.404 . S
C61 C60 1.404 . S
C61 C62 1.391 . S
C62 H56 0.930 . S
C62 C58 1.429 . S
C62 C61 1.391 . S
H63 C66 0.931 . S
H64 C69 0.928 . S
H65 C71 0.930 . S
C66 H63 0.931 . S
C66 C67 1.413 . S
C66 C68 1.360 . S
C67 C66 1.413 . S
C67 C71 1.429 . S
C68 C66 1.360 . S
C68 C69 1.372 . S
C69 H64 0.928 . S
C69 C68 1.372 . S
C69 C70 1.404 . S
C70 C69 1.404 . S
C70 C71 1.391 . S
C71 H65 0.930 . S
C71 C67 1.429 . S
C71 C70 1.391 . S
Dy72 O75 2.307 1_545 S
Dy72 O77 2.395 . S
Dy72 O78 2.379 . S
Dy72 O80 2.339 1_545 S
Dy72 O82 2.298 . S
Dy72 O86 2.275 . S
Dy72 C94 2.738 . S
Dy73 O76 2.298 . S
Dy73 O79 2.275 . S
Dy73 O81 2.307 1_565 S
Dy73 O83 2.395 . S
Dy73 O84 2.379 . S
Dy73 O87 2.339 1_565 S
Dy73 C103 2.738 . S
C74 O86 1.254 . S
C74 O87 1.257 1_455 S
O75 Dy72 2.307 1_565 S
O75 C85 1.266 . S
O76 Dy73 2.298 . S
O76 C85 1.236 1_655 S
O77 Dy72 2.395 . S
O77 C94 1.255 . S
O78 Dy72 2.379 . S
O78 C94 1.249 . S
O79 Dy73 2.275 . S
O79 C95 1.254 . S
O80 Dy72 2.339 1_565 S
O80 C95 1.257 1_455 S
O81 Dy73 2.307 1_545 S
O81 C96 1.266 . S
O82 Dy72 2.298 . S
O82 C96 1.236 1_455 S
O83 Dy73 2.395 . S
O83 C103 1.255 . S
O84 Dy73 2.379 . S
O84 C103 1.249 . S
C85 O75 1.266 . S
C85 O76 1.236 1_455 S
O86 Dy72 2.275 . S
O86 C74 1.254 . S
O87 Dy73 2.339 1_545 S
O87 C74 1.257 1_655 S
C88 C91 1.344 . S
C88 C92 1.328 . S
C88 C94 1.516 . S
C89 C90 1.304 . S
C89 C93 1.323 . S
C90 C89 1.304 . S
C90 C91 1.371 . S
C90 H104 0.930 . S
C91 C88 1.344 . S
C91 C90 1.371 . S
C91 H105 0.931 . S
C92 C88 1.328 . S
C92 C93 1.433 . S
C92 H106 0.931 . S
C93 C89 1.323 . S
C93 C92 1.433 . S
C93 H107 0.933 . S
C94 Dy72 2.738 . S
C94 O77 1.255 . S
C94 O78 1.249 . S
C94 C88 1.516 . S
C95 O79 1.254 . S
C95 O80 1.257 1_655 S
C96 O81 1.266 . S
C96 O82 1.236 1_655 S
C97 C100 1.344 . S
C97 C101 1.328 . S
C97 C103 1.516 . S
C98 C99 1.304 . S
C98 C102 1.323 . S
C99 C98 1.304 . S
C99 C100 1.371 . S
C99 H108 0.930 . S
C100 C97 1.344 . S
C100 C99 1.371 . S
C100 H109 0.931 . S
C101 C97 1.328 . S
C101 C102 1.433 . S
C101 H110 0.931 . S
C102 C98 1.323 . S
C102 C101 1.433 . S
C102 H111 0.933 . S
C103 Dy73 2.738 . S
C103 O83 1.255 . S
C103 O84 1.249 . S
C103 C97 1.516 . S
H104 C90 0.930 . S
H105 C91 0.931 . S
H106 C92 0.931 . S
H107 C93 0.933 . S
H108 C99 0.930 . S
H109 C100 0.931 . S
H110 C101 0.931 . S
H111 C102 0.933 . S
Dy112 O115 2.307 1_566 S
Dy112 O117 2.395 . S
Dy112 O118 2.379 . S
Dy112 O120 2.339 1_565 S
Dy112 O122 2.298 . S
Dy112 O126 2.275 1_556 S
Dy112 C134 2.738 . S
Dy113 O116 2.298 . S
Dy113 O119 2.275 1_554 S
Dy113 O121 2.307 1_544 S
Dy113 O123 2.395 . S
Dy113 O124 2.379 . S
Dy113 O127 2.339 1_545 S
Dy113 C143 2.738 . S
C114 O126 1.254 . S
C114 O127 1.257 . S
O115 Dy112 2.307 1_544 S
O115 C125 1.266 . S
O116 Dy113 2.298 . S
O116 C125 1.236 . S
O117 Dy112 2.395 . S
O117 C134 1.255 . S
O118 Dy112 2.379 . S
O118 C134 1.249 . S
O119 Dy113 2.275 1_556 S
O119 C135 1.254 . S
O120 Dy112 2.339 1_545 S
O120 C135 1.257 . S
O121 Dy113 2.307 1_566 S
O121 C136 1.266 . S
O122 Dy112 2.298 . S
O122 C136 1.236 . S
O123 Dy113 2.395 . S
O123 C143 1.255 . S
O124 Dy113 2.379 . S
O124 C143 1.249 . S
C125 O115 1.266 . S
C125 O116 1.236 . S
O126 Dy112 2.275 1_554 S
O126 C114 1.254 . S
O127 Dy113 2.339 1_565 S
O127 C114 1.257 . S
C128 C131 1.344 . S
C128 C132 1.328 . S
C128 C134 1.516 . S
C129 C130 1.304 . S
C129 C133 1.323 . S
C130 C129 1.304 . S
C130 C131 1.371 . S
C130 H144 0.930 . S
C131 C128 1.344 . S
C131 C130 1.371 . S
C131 H145 0.931 . S
C132 C128 1.328 . S
C132 C133 1.433 . S
C132 H146 0.931 . S
C133 C129 1.323 . S
C133 C132 1.433 . S
C133 H147 0.933 . S
C134 Dy112 2.738 . S
C134 O117 1.255 . S
C134 O118 1.249 . S
C134 C128 1.516 . S
C135 O119 1.254 . S
C135 O120 1.257 . S
C136 O121 1.266 . S
C136 O122 1.236 . S
C137 C140 1.344 . S
C137 C141 1.328 . S
C137 C143 1.516 . S
C138 C139 1.304 . S
C138 C142 1.323 . S
C139 C138 1.304 . S
C139 C140 1.371 . S
C139 H148 0.930 . S
C140 C137 1.344 . S
C140 C139 1.371 . S
C140 H149 0.931 . S
C141 C137 1.328 . S
C141 C142 1.433 . S
C141 H150 0.931 . S
C142 C138 1.323 . S
C142 C141 1.433 . S
C142 H151 0.933 . S
C143 Dy113 2.738 . S
C143 O123 1.255 . S
C143 O124 1.249 . S
C143 C137 1.516 . S
H144 C130 0.930 . S
H145 C131 0.931 . S
H146 C132 0.931 . S
H147 C133 0.933 . S
H148 C139 0.930 . S
H149 C140 0.931 . S
H150 C141 0.931 . S
H151 C142 0.933 . S
Dy152 O155 2.307 . S
Dy152 O157 2.395 . S
Dy152 O158 2.379 . S
Dy152 O160 2.339 . S
Dy152 O162 2.298 . S
Dy152 O166 2.275 . S
Dy152 C174 2.738 . S
Dy153 O156 2.298 . S
Dy153 O159 2.275 . S
Dy153 O161 2.307 . S
Dy153 O163 2.395 . S
Dy153 O164 2.379 . S
Dy153 O167 2.339 . S
Dy153 C183 2.738 . S
C154 O166 1.254 . S
C154 O167 1.257 . S
O155 Dy152 2.307 . S
O155 C165 1.266 . S
O156 Dy153 2.298 . S
O156 C165 1.236 . S
O157 Dy152 2.395 . S
O157 C174 1.255 . S
O158 Dy152 2.379 . S
O158 C174 1.249 . S
O159 Dy153 2.275 . S
O159 C175 1.254 . S
O160 Dy152 2.339 . S
O160 C175 1.257 . S
O161 Dy153 2.307 . S
O161 C176 1.266 . S
O162 Dy152 2.298 . S
O162 C176 1.236 . S
O163 Dy153 2.395 . S
O163 C183 1.255 . S
O164 Dy153 2.379 . S
O164 C183 1.249 . S
C165 O155 1.266 . S
C165 O156 1.236 . S
O166 Dy152 2.275 . S
O166 C154 1.254 . S
O167 Dy153 2.339 . S
O167 C154 1.257 . S
C168 C171 1.344 . S
C168 C172 1.328 . S
C168 C174 1.516 . S
C169 C170 1.304 . S
C169 C173 1.323 . S
C170 C169 1.304 . S
C170 C171 1.371 . S
C170 H184 0.930 . S
C171 C168 1.344 . S
C171 C170 1.371 . S
C171 H185 0.931 . S
C172 C168 1.328 . S
C172 C173 1.433 . S
C172 H186 0.931 . S
C173 C169 1.323 . S
C173 C172 1.433 . S
C173 H187 0.933 . S
C174 Dy152 2.738 . S
C174 O157 1.255 . S
C174 O158 1.249 . S
C174 C168 1.516 . S
C175 O159 1.254 . S
C175 O160 1.257 . S
C176 O161 1.266 . S
C176 O162 1.236 . S
C177 C180 1.344 . S
C177 C181 1.328 . S
C177 C183 1.516 . S
C178 C179 1.304 . S
C178 C182 1.323 . S
C179 C178 1.304 . S
C179 C180 1.371 . S
C179 H188 0.930 . S
C180 C177 1.344 . S
C180 C179 1.371 . S
C180 H189 0.931 . S
C181 C177 1.328 . S
C181 C182 1.433 . S
C181 H190 0.931 . S
C182 C178 1.323 . S
C182 C181 1.433 . S
C182 H191 0.933 . S
C183 Dy153 2.738 . S
C183 O163 1.255 . S
C183 O164 1.249 . S
C183 C177 1.516 . S
H184 C170 0.930 . S
H185 C171 0.931 . S
H186 C172 0.931 . S
H187 C173 0.933 . S
H188 C179 0.930 . S
H189 C180 0.931 . S
H190 C181 0.931 . S
H191 C182 0.933 . S
Dy192 O195 2.307 1_656 S
Dy192 O197 2.395 . S
Dy192 O198 2.379 . S
Dy192 O200 2.339 1_655 S
Dy192 O202 2.298 . S
Dy192 O206 2.275 1_556 S
Dy192 C214 2.738 . S
Dy193 O196 2.298 . S
Dy193 O199 2.275 1_554 S
Dy193 O201 2.307 1_455 S
Dy193 O203 2.395 . S
Dy193 O204 2.379 . S
Dy193 O207 2.339 1_455 S
Dy193 C223 2.738 . S
C194 O206 1.254 . S
C194 O207 1.257 . S
O195 Dy192 2.307 1_454 S
O195 C205 1.266 . S
O196 Dy193 2.298 . S
O196 C205 1.236 . S
O197 Dy192 2.395 . S
O197 C214 1.255 . S
O198 Dy192 2.379 . S
O198 C214 1.249 . S
O199 Dy193 2.275 1_556 S
O199 C215 1.254 . S
O200 Dy192 2.339 1_455 S
O200 C215 1.257 . S
O201 Dy193 2.307 1_655 S
O201 C216 1.266 1_554 S
O202 Dy192 2.298 . S
O202 C216 1.236 . S
O203 Dy193 2.395 . S
O203 C223 1.255 . S
O204 Dy193 2.379 . S
O204 C223 1.249 . S
C205 O195 1.266 . S
C205 O196 1.236 . S
O206 Dy192 2.275 1_554 S
O206 C194 1.254 . S
O207 Dy193 2.339 1_655 S
O207 C194 1.257 . S
C208 C211 1.344 . S
C208 C212 1.328 . S
C208 C214 1.516 . S
C209 C210 1.304 . S
C209 C213 1.323 . S
C210 C209 1.304 . S
C210 C211 1.371 . S
C210 H224 0.930 . S
C211 C208 1.344 . S
C211 C210 1.371 . S
C211 H225 0.931 . S
C212 C208 1.328 . S
C212 C213 1.433 . S
C212 H226 0.931 . S
C213 C209 1.323 . S
C213 C212 1.433 . S
C213 H227 0.933 . S
C214 Dy192 2.738 . S
C214 O197 1.255 . S
C214 O198 1.249 . S
C214 C208 1.516 . S
C215 O199 1.254 . S
C215 O200 1.257 . S
C216 O201 1.266 1_556 S
C216 O202 1.236 . S
C217 C220 1.344 . S
C217 C221 1.328 . S
C217 C223 1.516 . S
C218 C219 1.304 . S
C218 C222 1.323 . S
C219 C218 1.304 . S
C219 C220 1.371 . S
C219 H228 0.930 . S
C220 C217 1.344 . S
C220 C219 1.371 . S
C220 H229 0.931 . S
C221 C217 1.328 . S
C221 C222 1.433 . S
C221 H230 0.931 . S
C222 C218 1.323 . S
C222 C221 1.433 . S
C222 H231 0.933 . S
C223 Dy193 2.738 . S
C223 O203 1.255 . S
C223 O204 1.249 . S
C223 C217 1.516 . S
H224 C210 0.930 . S
H225 C211 0.931 . S
H226 C212 0.931 . S
H227 C213 0.933 . S
H228 C219 0.930 . S
H229 C220 0.931 . S
H230 C221 0.931 . S
H231 C222 0.933 . S
C232 C233 1.387 . S
C232 H236 0.950 . S
C232 C241 1.390 . S
C233 C232 1.387 . S
C233 C235 1.387 . S
H234 C241 0.950 . S
C235 C233 1.387 . S
C235 C237 1.390 . S
C235 H239 0.950 . S
H236 C232 0.950 . S
C237 C235 1.390 . S
C237 C238 1.387 . S
C237 H240 0.950 . S
C238 C237 1.387 . S
C238 C241 1.387 . S
H239 C235 0.950 . S
H240 C237 0.950 . S
C241 C232 1.390 . S
C241 H234 0.950 . S
C241 C238 1.387 . S
C242 C243 1.387 . S
C242 H246 0.950 . S
C242 C251 1.390 . S
C243 C242 1.387 . S
C243 C245 1.387 . S
H244 C251 0.950 . S
C245 C243 1.387 . S
C245 C247 1.390 . S
C245 H249 0.950 . S
H246 C242 0.950 . S
C247 C245 1.390 . S
C247 C248 1.387 . S
C247 H250 0.950 . S
C248 C247 1.387 . S
C248 C251 1.387 . S
H249 C245 0.950 . S
H250 C247 0.950 . S
C251 C242 1.390 . S
C251 H244 0.950 . S
C251 C248 1.387 . S
C252 C253 1.387 . S
C252 H256 0.950 . S
C252 C261 1.390 . S
C253 C252 1.387 . S
C253 C255 1.387 . S
H254 C261 0.950 . S
C255 C253 1.387 . S
C255 C257 1.390 . S
C255 H259 0.950 . S
H256 C252 0.950 . S
C257 C255 1.390 . S
C257 C258 1.387 . S
C257 H260 0.950 . S
C258 C257 1.387 . S
C258 C261 1.387 . S
H259 C255 0.950 . S
H260 C257 0.950 . S
C261 C252 1.390 . S
C261 H254 0.950 . S
C261 C258 1.387 . S
C262 C263 1.387 . S
C262 H266 0.950 . S
C262 C271 1.390 . S
C263 C262 1.387 . S
C263 C265 1.387 . S
H264 C271 0.950 . S
C265 C263 1.387 . S
C265 C267 1.390 . S
C265 H269 0.950 . S
H266 C262 0.950 . S
C267 C265 1.390 . S
C267 C268 1.387 . S
C267 H270 0.950 . S
C268 C267 1.387 . S
C268 C271 1.387 . S
H269 C265 0.950 . S
H270 C267 0.950 . S
C271 C262 1.390 . S
C271 H264 0.950 . S
C271 C268 1.387 . S
C272 C273 1.387 . S
C272 H276 0.950 . S
C272 C281 1.390 . S
C273 C272 1.387 . S
C273 C275 1.387 . S
H274 C281 0.950 . S
C275 C273 1.387 . S
C275 C277 1.390 . S
C275 H279 0.950 . S
H276 C272 0.950 . S
C277 C275 1.390 . S
C277 C278 1.387 . S
C277 H280 0.950 . S
C278 C277 1.387 . S
C278 C281 1.387 . S
H279 C275 0.950 . S
H280 C277 0.950 . S
C281 C272 1.390 . S
C281 H274 0.950 . S
C281 C278 1.387 . S
C282 C283 1.387 1_655 S
C282 H286 0.950 . S
C282 C291 1.390 . S
C283 C282 1.387 1_455 S
C283 C285 1.387 . S
H284 C291 0.950 . S
C285 C283 1.387 . S
C285 C287 1.390 . S
C285 H289 0.950 . S
H286 C282 0.950 . S
C287 C285 1.390 . S
C287 C288 1.387 . S
C287 H290 0.950 . S
C288 C287 1.387 . S
C288 C291 1.387 1_455 S
H289 C285 0.950 . S
H290 C287 0.950 . S
C291 C282 1.390 . S
C291 H284 0.950 . S
C291 C288 1.387 1_655 S
C292 C293 1.387 . S
C292 H296 0.950 . S
C292 C301 1.390 . S
C293 C292 1.387 . S
C293 C295 1.387 . S
H294 C301 0.950 . S
C295 C293 1.387 . S
C295 C297 1.390 . S
C295 H299 0.950 . S
H296 C292 0.950 . S
C297 C295 1.390 . S
C297 C298 1.387 . S
C297 H300 0.950 . S
C298 C297 1.387 . S
C298 C301 1.387 . S
H299 C295 0.950 . S
H300 C297 0.950 . S
C301 C292 1.390 . S
C301 H294 0.950 . S
C301 C298 1.387 . S
C302 C303 1.387 . S
C302 H306 0.950 . S
C302 C311 1.390 . S
C303 C302 1.387 . S
C303 C305 1.387 . S
H304 C311 0.950 . S
C305 C303 1.387 . S
C305 C307 1.390 . S
C305 H309 0.950 . S
H306 C302 0.950 . S
C307 C305 1.390 . S
C307 C308 1.387 . S
C307 H310 0.950 . S
C308 C307 1.387 . S
C308 C311 1.387 . S
H309 C305 0.950 . S
H310 C307 0.950 . S
C311 C302 1.390 . S
C311 H304 0.950 . S
C311 C308 1.387 . S
C312 C313 1.387 . S
C312 H316 0.950 . S
C312 C321 1.390 . S
C313 C312 1.387 . S
C313 C315 1.387 . S
H314 C321 0.950 . S
C315 C313 1.387 . S
C315 C317 1.390 . S
C315 H319 0.950 . S
H316 C312 0.950 . S
C317 C315 1.390 . S
C317 C318 1.387 . S
C317 H320 0.950 . S
C318 C317 1.387 . S
C318 C321 1.387 . S
H319 C315 0.950 . S
H320 C317 0.950 . S
C321 C312 1.390 . S
C321 H314 0.950 . S
C321 C318 1.387 . S
C322 C323 1.387 . S
C322 H326 0.950 . S
C322 C331 1.390 . S
C323 C322 1.387 . S
C323 C325 1.387 . S
H324 C331 0.950 . S
C325 C323 1.387 . S
C325 C327 1.390 . S
C325 H329 0.950 . S
H326 C322 0.950 . S
C327 C325 1.390 . S
C327 C328 1.387 . S
C327 H330 0.950 . S
C328 C327 1.387 . S
C328 C331 1.387 . S
H329 C325 0.950 . S
H330 C327 0.950 . S
C331 C322 1.390 . S
C331 H324 0.950 . S
C331 C328 1.387 . S
C332 C333 1.387 . S
C332 H336 0.950 . S
C332 C341 1.390 . S
C333 C332 1.387 . S
C333 C335 1.387 . S
H334 C341 0.950 1_455 S
C335 C333 1.387 . S
C335 C337 1.390 . S
C335 H339 0.950 . S
H336 C332 0.950 . S
C337 C335 1.390 . S
C337 C338 1.387 . S
C337 H340 0.950 . S
C338 C337 1.387 . S
C338 C341 1.387 . S
H339 C335 0.950 . S
H340 C337 0.950 . S
C341 C332 1.390 . S
C341 H334 0.950 1_655 S
C341 C338 1.387 . S
C342 C343 1.387 . S
C342 H346 0.950 . S
C342 C351 1.390 . S
C343 C342 1.387 . S
C343 C345 1.387 . S
H344 C351 0.950 . S
C345 C343 1.387 . S
C345 C347 1.390 . S
C345 H349 0.950 . S
H346 C342 0.950 . S
C347 C345 1.390 . S
C347 C348 1.387 . S
C347 H350 0.950 . S
C348 C347 1.387 . S
C348 C351 1.387 . S
H349 C345 0.950 . S
H350 C347 0.950 . S
C351 C342 1.390 . S
C351 H344 0.950 . S
C351 C348 1.387 . S
C352 C353 1.387 . S
C352 H356 0.950 . S
C352 C361 1.390 . S
C353 C352 1.387 . S
C353 C355 1.387 . S
H354 C361 0.950 . S
C355 C353 1.387 . S
C355 C357 1.390 . S
C355 H359 0.950 . S
H356 C352 0.950 . S
C357 C355 1.390 . S
C357 C358 1.387 . S
C357 H360 0.950 . S
C358 C357 1.387 . S
C358 C361 1.387 . S
H359 C355 0.950 . S
H360 C357 0.950 . S
C361 C352 1.390 . S
C361 H354 0.950 . S
C361 C358 1.387 . S
C362 C363 1.387 . S
C362 H366 0.950 . S
C362 C371 1.390 . S
C363 C362 1.387 . S
C363 C365 1.387 . S
H364 C371 0.950 . S
C365 C363 1.387 . S
C365 C367 1.390 . S
C365 H369 0.950 . S
H366 C362 0.950 . S
C367 C365 1.390 . S
C367 C368 1.387 . S
C367 H370 0.950 . S
C368 C367 1.387 . S
C368 C371 1.387 . S
H369 C365 0.950 . S
H370 C367 0.950 . S
C371 C362 1.390 . S
C371 H364 0.950 . S
C371 C368 1.387 . S
C372 C373 1.387 . S
C372 H376 0.950 . S
C372 C381 1.390 . S
C373 C372 1.387 . S
C373 C375 1.387 . S
H374 C381 0.950 . S
C375 C373 1.387 . S
C375 C377 1.390 . S
C375 H379 0.950 . S
H376 C372 0.950 . S
C377 C375 1.390 . S
C377 C378 1.387 . S
C377 H380 0.950 . S
C378 C377 1.387 . S
C378 C381 1.387 . S
H379 C375 0.950 . S
H380 C377 0.950 . S
C381 C372 1.390 . S
C381 H374 0.950 . S
C381 C378 1.387 . S
C382 C383 1.387 . S
C382 H386 0.950 . S
C382 C391 1.390 . S
C383 C382 1.387 . S
C383 C385 1.387 . S
H384 C391 0.950 . S
C385 C383 1.387 . S
C385 C387 1.390 . S
C385 H389 0.950 . S
H386 C382 0.950 . S
C387 C385 1.390 . S
C387 C388 1.387 . S
C387 H390 0.950 . S
C388 C387 1.387 . S
C388 C391 1.387 . S
H389 C385 0.950 . S
H390 C387 0.950 . S
C391 C382 1.390 . S
C391 H384 0.950 . S
C391 C388 1.387 . S
C392 C393 1.387 . S
C392 H396 0.950 . S
C392 C401 1.390 . S
C393 C392 1.387 . S
C393 C395 1.387 . S
H394 C401 0.950 . S
C395 C393 1.387 . S
C395 C397 1.390 . S
C395 H399 0.950 . S
H396 C392 0.950 . S
C397 C395 1.390 . S
C397 C398 1.387 . S
C397 H400 0.950 . S
C398 C397 1.387 . S
C398 C401 1.387 . S
H399 C395 0.950 . S
H400 C397 0.950 . S
C401 C392 1.390 . S
C401 H394 0.950 . S
C401 C398 1.387 . S
C402 C403 1.387 . S
C402 H406 0.950 . S
C402 C411 1.390 . S
C403 C402 1.387 . S
C403 C405 1.387 1_655 S
H404 C411 0.950 . S
C405 C403 1.387 1_455 S
C405 C407 1.390 . S
C405 H409 0.950 . S
H406 C402 0.950 . S
C407 C405 1.390 . S
C407 C408 1.387 1_455 S
C407 H410 0.950 . S
C408 C407 1.387 1_655 S
C408 C411 1.387 . S
H409 C405 0.950 . S
H410 C407 0.950 . S
C411 C402 1.390 . S
C411 H404 0.950 . S
C411 C408 1.387 . S
C412 C413 1.387 . S
C412 H416 0.950 . S
C412 C421 1.390 . S
C413 C412 1.387 . S
C413 C415 1.387 . S
H414 C421 0.950 . S
C415 C413 1.387 . S
C415 C417 1.390 . S
C415 H419 0.950 . S
H416 C412 0.950 . S
C417 C415 1.390 . S
C417 C418 1.387 . S
C417 H420 0.950 . S
C418 C417 1.387 . S
C418 C421 1.387 . S
H419 C415 0.950 . S
H420 C417 0.950 . S
C421 C412 1.390 . S
C421 H414 0.950 . S
C421 C418 1.387 . S
C422 C423 1.387 . S
C422 H426 0.950 . S
C422 C431 1.390 . S
C423 C422 1.387 . S
C423 C425 1.387 . S
H424 C431 0.950 . S
C425 C423 1.387 . S
C425 C427 1.390 . S
C425 H429 0.950 . S
H426 C422 0.950 . S
C427 C425 1.390 . S
C427 C428 1.387 . S
C427 H430 0.950 . S
C428 C427 1.387 . S
C428 C431 1.387 . S
H429 C425 0.950 . S
H430 C427 0.950 . S
C431 C422 1.390 . S
C431 H424 0.950 . S
C431 C428 1.387 . S
C432 C433 1.387 . S
C432 H436 0.950 . S
C432 C441 1.390 . S
C433 C432 1.387 . S
C433 C435 1.387 . S
H434 C441 0.950 . S
C435 C433 1.387 . S
C435 C437 1.390 . S
C435 H439 0.950 . S
H436 C432 0.950 . S
C437 C435 1.390 . S
C437 C438 1.387 . S
C437 H440 0.950 . S
C438 C437 1.387 . S
C438 C441 1.387 . S
H439 C435 0.950 . S
H440 C437 0.950 . S
C441 C432 1.390 . S
C441 H434 0.950 . S
C441 C438 1.387 . S
C442 C443 1.387 . S
C442 H446 0.950 . S
C442 C451 1.390 . S
C443 C442 1.387 . S
C443 C445 1.387 . S
H444 C451 0.950 . S
C445 C443 1.387 . S
C445 C447 1.390 . S
C445 H449 0.950 . S
H446 C442 0.950 . S
C447 C445 1.390 . S
C447 C448 1.387 . S
C447 H450 0.950 . S
C448 C447 1.387 . S
C448 C451 1.387 . S
H449 C445 0.950 . S
H450 C447 0.950 . S
C451 C442 1.390 . S
C451 H444 0.950 . S
C451 C448 1.387 . S
C452 C453 1.387 . S
C452 H456 0.950 . S
C452 C461 1.390 . S
C453 C452 1.387 . S
C453 C455 1.387 . S
H454 C461 0.950 . S
C455 C453 1.387 . S
C455 C457 1.390 . S
C455 H459 0.950 . S
H456 C452 0.950 . S
C457 C455 1.390 . S
C457 C458 1.387 . S
C457 H460 0.950 . S
C458 C457 1.387 . S
C458 C461 1.387 . S
H459 C455 0.950 . S
H460 C457 0.950 . S
C461 C452 1.390 . S
C461 H454 0.950 . S
C461 C458 1.387 . S
C462 C463 1.387 . S
C462 H466 0.950 . S
C462 C471 1.390 . S
C463 C462 1.387 . S
C463 C465 1.387 . S
H464 C471 0.950 . S
C465 C463 1.387 . S
C465 C467 1.390 . S
C465 H469 0.950 . S
H466 C462 0.950 . S
C467 C465 1.390 . S
C467 C468 1.387 . S
C467 H470 0.950 . S
C468 C467 1.387 . S
C468 C471 1.387 . S
H469 C465 0.950 . S
H470 C467 0.950 . S
C471 C462 1.390 . S
C471 H464 0.950 . S
C471 C468 1.387 . S
C233 C5 0.986 . S
C238 C89 1.011 . S
C243 C14 0.967 . S
C248 C129 1.002 . S
C258 C154 2.506 . S
C253 C25 2.565 . S
C263 C34 2.563 . S
C268 C194 2.502 . S
C278 C125 1.549 . S
C273 C7 1.439 . S
C288 C85 1.566 . S
C283 C13 1.450 . S
C298 C216 1.829 . S
C293 C23 1.873 . S
C308 C176 1.825 . S
C303 C31 1.871 . S
C313 C4 1.305 . S
C318 C218 1.345 . S
C328 C135 2.238 . S
C323 C22 2.285 . S
C333 C32 2.296 . S
C338 C95 2.249 . S
C343 C16 1.280 . S
C348 C178 1.336 . S
C358 C98 1.005 . S
C353 C41 0.978 . S
C363 C50 0.974 . S
C368 C138 1.007 . S
C373 C61 2.559 . S
C378 C175 2.501 . S
C383 C67 2.570 . S
C388 C215 2.511 . S
C393 C40 1.460 . S
C398 C136 1.565 . S
C408 C96 1.552 . S
C403 C52 1.431 . S
C418 C205 1.830 . S
C413 C59 1.876 . S
C428 C165 1.824 . S
C423 C70 1.866 . S
C433 C43 1.293 . S
C438 C209 1.338 . S
C448 C114 2.248 . S
C443 C58 2.295 . S
C458 C74 2.235 . S
C453 C68 2.278 . S
C463 C49 1.300 . S
C468 C169 1.345 . S
