# Generated by pormake.
# Topology zzz, (3,6)-cn, num edge types: 1
# Building blocks:
#     Node 0, Type 0, BuildingBlock: BETDIP_clean_linker_0, # of connection points: 3
#     Node 1, Type 0, BuildingBlock: BETDIP_clean_linker_0, # of connection points: 3
#     Node 2, Type 0, BuildingBlock: BETDIP_clean_linker_0, # of connection points: 3
#     Node 3, Type 0, BuildingBlock: BETDIP_clean_linker_0, # of connection points: 3
#     Node 4, Type 0, BuildingBlock: BETDIP_clean_linker_0, # of connection points: 3
#     Node 5, Type 0, BuildingBlock: BETDIP_clean_linker_0, # of connection points: 3
#     Node 6, Type 0, BuildingBlock: BETDIP_clean_linker_0, # of connection points: 3
#     Node 7, Type 0, BuildingBlock: BETDIP_clean_linker_0, # of connection points: 3
#     Node 8, Type 1, BuildingBlock: PAMTOO_clean_sbu_0, # of connection points: 6
#     Node 9, Type 1, BuildingBlock: PAMTOO_clean_sbu_0, # of connection points: 6
#     Node 10, Type 1, BuildingBlock: PAMTOO_clean_sbu_0, # of connection points: 6
#     Node 11, Type 1, BuildingBlock: PAMTOO_clean_sbu_0, # of connection points: 6
#     Edge 12, Type (0, 1), BuildingBlock: ZUJKAS_clean_linker_0, # of connection points: 2
#     Edge 13, Type (0, 1), BuildingBlock: ZUJKAS_clean_linker_0, # of connection points: 2
#     Edge 14, Type (0, 1), BuildingBlock: ZUJKAS_clean_linker_0, # of connection points: 2
#     Edge 15, Type (0, 1), BuildingBlock: ZUJKAS_clean_linker_0, # of connection points: 2
#     Edge 16, Type (0, 1), BuildingBlock: ZUJKAS_clean_linker_0, # of connection points: 2
#     Edge 17, Type (0, 1), BuildingBlock: ZUJKAS_clean_linker_0, # of connection points: 2
#     Edge 18, Type (0, 1), BuildingBlock: ZUJKAS_clean_linker_0, # of connection points: 2
#     Edge 19, Type (0, 1), BuildingBlock: ZUJKAS_clean_linker_0, # of connection points: 2
#     Edge 20, Type (0, 1), BuildingBlock: ZUJKAS_clean_linker_0, # of connection points: 2
#     Edge 21, Type (0, 1), BuildingBlock: ZUJKAS_clean_linker_0, # of connection points: 2
#     Edge 22, Type (0, 1), BuildingBlock: ZUJKAS_clean_linker_0, # of connection points: 2
#     Edge 23, Type (0, 1), BuildingBlock: ZUJKAS_clean_linker_0, # of connection points: 2
#     Edge 24, Type (0, 1), BuildingBlock: ZUJKAS_clean_linker_0, # of connection points: 2
#     Edge 25, Type (0, 1), BuildingBlock: ZUJKAS_clean_linker_0, # of connection points: 2
#     Edge 26, Type (0, 1), BuildingBlock: ZUJKAS_clean_linker_0, # of connection points: 2
#     Edge 27, Type (0, 1), BuildingBlock: ZUJKAS_clean_linker_0, # of connection points: 2
#     Edge 28, Type (0, 1), BuildingBlock: ZUJKAS_clean_linker_0, # of connection points: 2
#     Edge 29, Type (0, 1), BuildingBlock: ZUJKAS_clean_linker_0, # of connection points: 2
#     Edge 30, Type (0, 1), BuildingBlock: ZUJKAS_clean_linker_0, # of connection points: 2
#     Edge 31, Type (0, 1), BuildingBlock: ZUJKAS_clean_linker_0, # of connection points: 2
#     Edge 32, Type (0, 1), BuildingBlock: ZUJKAS_clean_linker_0, # of connection points: 2
#     Edge 33, Type (0, 1), BuildingBlock: ZUJKAS_clean_linker_0, # of connection points: 2
#     Edge 34, Type (0, 1), BuildingBlock: ZUJKAS_clean_linker_0, # of connection points: 2
#     Edge 35, Type (0, 1), BuildingBlock: ZUJKAS_clean_linker_0, # of connection points: 2
# Relax obj value: 0.188
# Max RMSD: 0.232
# Mean RMSD: 0.119
data_MOF--net-zzz--node1-PAMTOO_clean_sbu_0--node2-BETDIP_clean_linker_0--edge1-ZUJKAS_clean_linker_0
_symmetry_space_group_name_H-M    P1
_symmetry_Int_Tables_number       1
_symmetry_cell_setting            triclinic
loop_
_symmetry_equiv_pos_as_xyz
'x, y, z'
_cell_length_a     72.764835
_cell_length_b     64.640911
_cell_length_c     20.129704
_cell_angle_alpha  91.106744
_cell_angle_beta   81.280204
_cell_angle_gamma 86.498754
loop_
_atom_site_label
_atom_site_type_symbol
_atom_site_fract_x
_atom_site_fract_y
_atom_site_fract_z
_atom_type_partial_charge
H0 H 0.79307 0.49768 0.44253 0.0
H1 H 0.7882 0.54847 0.30872 0.0
H2 H 0.83486 0.54217 0.41548 0.0
H3 H 0.75552 0.54533 0.36456 0.0
C4 C 0.75604 0.52924 0.34721 0.0
C5 C 0.7981 0.51186 0.42083 0.0
C6 C 0.81496 0.51911 0.43547 0.0
C7 C 0.78786 0.52295 0.37721 0.0
C8 C 0.79516 0.54071 0.34612 0.0
C9 C 0.81201 0.5478 0.36024 0.0
C10 C 0.82145 0.53722 0.40625 0.0
N11 N 0.77096 0.51548 0.36114 0.0
H12 H 0.98754 0.73614 0.45007 0.0
H13 H 1.01196 0.71738 0.24794 0.0
H14 H 0.02078 0.77771 0.32659 0.0
H15 H 0.96878 0.71306 0.29383 0.0
C16 C 0.97768 0.70058 0.30976 0.0
C17 C 0.99627 0.73931 0.40331 0.0
C18 C 1.00413 0.75863 0.39454 0.0
C19 C 0.99888 0.72457 0.34966 0.0
C20 C 1.0099 0.72889 0.28869 0.0
C21 C 0.01825 0.74782 0.28029 0.0
C22 C 0.01513 0.76262 0.33339 0.0
N23 N 0.99 0.7056 0.35532 0.0
H24 H 0.76304 0.99414 0.3222 0.0
H25 H 0.77319 0.01755 0.12161 0.0
H26 H 0.71809 0.02338 0.23458 0.0
H27 H 0.7906 0.98019 0.12038 0.0
C28 C 0.79893 0.98784 0.15283 0.0
C29 C 0.75798 0.0019 0.28067 0.0
C30 C 0.73899 0.00894 0.28628 0.0
C31 C 0.77036 0.00472 0.22057 0.0
C32 C 0.76366 0.01491 0.16702 0.0
C33 C 0.74492 0.02211 0.17226 0.0
C34 C 0.73278 0.01879 0.23156 0.0
N35 N 0.78956 0.99768 0.21381 0.0
H36 H 0.52749 0.73618 0.27012 0.0
H37 H 0.5013 0.73462 0.09219 0.0
H38 H 0.50063 0.68198 0.21952 0.0
H39 H 0.53032 0.75101 0.05585 0.0
C40 C 0.527 0.76324 0.09443 0.0
C41 C 0.51955 0.72817 0.23741 0.0
C42 C 0.51388 0.70817 0.2528 0.0
C43 C 0.51532 0.73764 0.17873 0.0
C44 C 0.50502 0.72711 0.13634 0.0
C45 C 0.49948 0.70704 0.15064 0.0
C46 C 0.50401 0.69781 0.20912 0.0
N47 N 0.52152 0.75766 0.16232 0.0
H48 H 0.24881 0.49153 1.00004 0.0
H49 H 0.2521 0.52816 0.17867 0.0
H50 H 0.20115 0.52962 0.09519 0.0
H51 H 0.28252 0.53314 0.08919 0.0
C52 C 0.28529 0.51684 0.09892 0.0
C53 C 0.24236 0.50234 0.03978 0.0
C54 C 0.22369 0.50998 0.04166 0.0
C55 C 0.25287 0.5095 0.08809 0.0
C56 C 0.2443 0.52336 0.13988 0.0
C57 C 0.22556 0.5303 0.14364 0.0
C58 C 0.21554 0.52387 0.09358 0.0
N59 N 0.27195 0.50264 0.08576 0.0
H60 H 0.03184 0.2633 0.01943 0.0
H61 H 1.01184 0.28223 0.22561 0.0
H62 H 1.00911 0.21902 0.16144 0.0
H63 H 1.00047 0.31281 0.12194 0.0
C64 C 0.01481 0.31302 0.13105 0.0
C65 C 0.02568 0.25954 0.06982 0.0
C66 C 0.02032 0.23928 0.08372 0.0
C67 C 0.02219 0.27521 0.12067 0.0
C68 C 0.01408 0.27037 0.18591 0.0
C69 C 1.00979 0.25005 0.20084 0.0
C70 C 0.01272 0.23472 0.14965 0.0
N71 N 0.02722 0.29574 0.10701 0.0
H72 H 0.27599 0.01115 0.11888 0.0
H73 H 0.26629 0.98964 0.32222 0.0
H74 H 0.32191 0.99916 0.22755 0.0
H75 H 0.24471 0.96978 0.25194 0.0
C76 C 0.23802 0.98516 0.24877 0.0
C77 C 0.28124 0.00636 0.16413 0.0
C78 C 0.30057 0.00592 0.16675 0.0
C79 C 0.26874 1.0003 0.22028 0.0
C80 C 0.27576 0.99397 0.2786 0.0
C81 C 0.29484 0.99394 0.28188 0.0
C82 C 0.30705 0.99982 0.22585 0.0
N83 N 0.24913 1.00104 0.2193 0.0
H84 H 0.5106 0.25504 0.15825 0.0
H85 H 0.52689 0.25952 0.35536 0.0
H86 H 0.51792 0.31457 0.246 0.0
H87 H 0.5442 0.22843 0.30714 0.0
C88 C 0.53174 0.22124 0.2971 0.0
C89 C 0.51391 0.26429 0.19977 0.0
C90 C 0.51363 0.28602 0.19589 0.0
C91 C 0.51897 0.25452 0.25696 0.0
C92 C 0.5234 0.26675 0.31042 0.0
C93 C 0.52278 0.2884 0.30708 0.0
C94 C 0.51792 0.29784 0.2497 0.0
N95 N 0.51921 0.23253 0.26111 0.0
Dy96 Dy 1.01043 0.00864 0.66853 0.0
Dy97 Dy 0.03158 0.98998 0.78696 0.0
C98 C 0.05403 0.99999 0.64521 0.0
O99 O 1.00494 0.97495 0.66562 0.0
O100 O 0.02892 0.96277 0.71942 0.0
O101 O 1.01134 0.02149 0.57002 0.0
O102 O 0.98485 0.01928 0.63355 0.0
O103 O 1.00125 0.98478 0.81731 0.0
O104 O 0.99076 0.01311 0.76564 0.0
O105 O 0.02563 0.02354 0.8167 0.0
O106 O 0.02371 0.03523 0.71121 0.0
O107 O 0.03281 0.98124 0.88944 0.0
O108 O 0.05722 0.9765 0.81339 0.0
C109 C 0.01568 0.95955 0.68334 0.0
O110 O 0.03893 0.99646 0.61956 0.0
O111 O 0.0529 0.00336 0.71022 0.0
C112 C 0.98967 0.05012 0.57588 0.0
C113 C 0.98181 0.09328 0.57248 0.0
C114 C 0.99731 0.08524 0.59975 0.0
C115 C 1.00123 0.06395 0.60098 0.0
C116 C 0.9739 0.05795 0.54996 0.0
C117 C 0.97001 0.07942 0.54806 0.0
C118 C 0.99372 0.02768 0.5808 0.0
C119 C 0.98786 0.99879 0.81069 0.0
C120 C 0.02554 0.03874 0.77429 0.0
C121 C 0.05157 0.95025 0.88944 0.0
C122 C 0.05764 0.90734 0.90506 0.0
C123 C 0.04206 0.91523 0.87772 0.0
C124 C 0.0391 0.93648 0.8698 0.0
C125 C 0.06706 0.94256 0.91707 0.0
C126 C 0.07007 0.92124 0.92504 0.0
C127 C 0.0495 0.97222 0.87374 0.0
H128 H 1.00651 0.09542 0.62 0.0
H129 H 0.01342 0.0583 0.6214 0.0
H130 H 0.9647 0.04749 0.53101 0.0
H131 H 0.95805 0.08516 0.52617 0.0
H132 H 0.03204 0.90501 0.86295 0.0
H133 H 0.02719 0.94214 0.84738 0.0
H134 H 0.07701 0.95299 0.93122 0.0
H135 H 0.08226 0.91561 0.94578 0.0
Dy136 Dy 0.51504 0.98466 0.66926 0.0
Dy137 Dy 0.52741 0.01217 0.79003 0.0
C138 C 0.51735 0.03281 0.65783 0.0
O139 O 0.54469 0.99118 0.63058 0.0
O140 O 0.554 0.9973 0.73265 0.0
O141 O 0.50822 0.9807 0.56904 0.0
O142 O 0.5072 0.95498 0.63627 0.0
O143 O 0.51983 0.98158 0.83245 0.0
O144 O 0.52927 0.96336 0.73441 0.0
O145 O 0.49619 0.0172 0.80722 0.0
O146 O 0.48962 0.98856 0.74801 0.0
O147 O 0.53926 0.01409 0.88163 0.0
O148 O 0.53117 0.04222 0.83388 0.0
C149 C 0.55796 0.99348 0.66741 0.0
O150 O 0.50642 0.01771 0.65203 0.0
O151 O 0.52997 0.03107 0.69777 0.0
C152 C 0.48361 0.95873 0.57038 0.0
C153 C 0.44662 0.95091 0.55857 0.0
C154 C 0.45039 0.96625 0.60413 0.0
C155 C 0.46872 0.97017 0.60975 0.0
C156 C 0.47999 0.9434 0.52487 0.0
C157 C 0.46159 0.93958 0.51869 0.0
C158 C 0.50275 0.96207 0.58034 0.0
C159 C 0.52523 0.96393 0.80017 0.0
C160 C 0.48429 0.00407 0.79129 0.0
C161 C 0.55964 0.04107 0.87599 0.0
C162 C 0.59612 0.05424 0.86988 0.0
C163 C 0.59303 0.03489 0.842 0.0
C164 C 0.57503 0.02844 0.84477 0.0
C165 C 0.56252 0.06056 0.90288 0.0
C166 C 0.58063 0.06711 0.89991 0.0
C167 C 0.5407 0.03407 0.87782 0.0
H168 H 0.43917 0.97548 0.63461 0.0
H169 H 0.47129 0.9821 0.64507 0.0
H170 H 0.49135 0.93432 0.49459 0.0
H171 H 0.45905 0.92765 0.48328 0.0
H172 H 0.60454 0.02433 0.81977 0.0
H173 H 0.57319 0.01338 0.8232 0.0
H174 H 0.5508 0.07065 0.9263 0.0
H175 H 0.5825 0.08219 0.92135 0.0
Dy176 Dy 0.53978 0.50366 0.76572 0.0
Dy177 Dy 0.50469 0.49291 0.67778 0.0
C178 C 0.51403 0.46542 0.80504 0.0
O179 O 0.54733 0.47308 0.71296 0.0
O180 O 0.53256 0.48095 0.62426 0.0
O181 O 0.5694 0.50663 0.76422 0.0
O182 O 0.54978 0.51456 0.8549 0.0
O183 O 0.51189 0.52466 0.64859 0.0
O184 O 0.54154 0.52446 0.67649 0.0
O185 O 0.49099 0.51681 0.7541 0.0
O186 O 0.51603 0.52599 0.80531 0.0
O187 O 0.47724 0.48282 0.66955 0.0
O188 O 0.49731 0.48645 0.57974 0.0
C189 C 0.54406 0.46878 0.65226 0.0
O190 O 0.52474 0.47926 0.82526 0.0
O191 O 0.507 0.46695 0.74863 0.0
C192 C 0.58145 0.50596 0.86967 0.0
C193 C 0.61026 0.50077 0.94994 0.0
C194 C 0.59176 0.50618 0.97956 0.0
C195 C 0.57758 0.50877 0.94 0.0
C196 C 0.59979 0.49968 0.84024 0.0
C197 C 0.614 0.497 0.87993 0.0
C198 C 0.56726 0.51284 0.82728 0.0
C199 C 0.52808 0.53276 0.64631 0.0
C200 C 0.49845 0.52816 0.79674 0.0
C201 C 0.46511 0.4881 0.56558 0.0
C202 C 0.43546 0.49278 0.48888 0.0
C203 C 0.4541 0.49024 0.45713 0.0
C204 C 0.46869 0.48787 0.49493 0.0
C205 C 0.44654 0.49135 0.59757 0.0
C206 C 0.4319 0.49377 0.55967 0.0
C207 C 0.48041 0.48187 0.60387 0.0
H208 H 0.58831 0.50893 0.03338 0.0
H209 H 0.5637 0.51386 0.96447 0.0
H210 H 0.60337 0.49772 0.78617 0.0
H211 H 0.62809 0.493 0.8553 0.0
H212 H 0.45742 0.48973 0.4028 0.0
H213 H 0.48278 0.48512 0.46858 0.0
H214 H 0.44321 0.49128 0.65186 0.0
H215 H 0.41774 0.49554 0.58589 0.0
Dy216 Dy 0.02526 0.51362 0.68699 0.0
Dy217 Dy 1.01221 0.48023 0.80063 0.0
C218 C 0.02584 0.46497 0.64886 0.0
O219 O 0.99422 0.51352 0.69147 0.0
O220 O 0.9896 0.48162 0.7368 0.0
O221 O 0.0413 0.52224 0.5938 0.0
O222 O 0.02308 0.54528 0.65521 0.0
O223 O 1.00053 0.51165 0.83999 0.0
O224 O 0.02447 0.52902 0.78795 0.0
O225 O 0.04013 0.48981 0.81962 0.0
O226 O 0.05194 0.49979 0.71438 0.0
O227 O 0.01829 0.46215 0.88518 0.0
O228 O 0.99096 0.46261 0.85592 0.0
C229 C 0.98376 0.49778 0.70534 0.0
O230 O 0.02249 0.48411 0.63052 0.0
O231 O 0.02597 0.46043 0.71236 0.0
C232 C 0.05209 0.5553 0.60313 0.0
C233 C 0.08495 0.57656 0.59103 0.0
C234 C 0.07257 0.57935 0.54408 0.0
C235 C 0.05627 0.56871 0.55001 0.0
C236 C 0.06378 0.55346 0.65241 0.0
C237 C 0.08011 0.564 0.64638 0.0
C238 C 0.03649 0.54194 0.60462 0.0
C239 C 1.01055 0.52782 0.83693 0.0
C240 C 0.05437 0.49403 0.77474 0.0
C241 C 0.9921 0.46883 0.96921 0.0
C242 C 0.96834 0.49575 0.0603 0.0
C243 C 0.9864 0.50119 0.0349 0.0
C244 C 0.99814 0.48789 0.98955 0.0
C245 C 0.97503 0.46228 1.00082 0.0
C246 C 0.96329 0.47558 0.04642 0.0
C247 C 1.00072 0.45923 0.90416 0.0
H248 H 0.07606 0.58867 0.50037 0.0
H249 H 0.04736 0.57025 0.51161 0.0
H250 H 0.06068 0.54319 0.69398 0.0
H251 H 0.08935 0.56162 0.68335 0.0
H252 H 0.99089 0.51644 0.04489 0.0
H253 H 1.0112 0.49346 0.96563 0.0
H254 H 0.97007 0.4477 0.98579 0.0
H255 H 0.9497 0.47061 0.06707 0.0
H256 H 0.21431 0.95596 0.28989 0.0
H257 H 0.1826 0.96044 0.35085 0.0
H258 H 0.18536 0.02687 0.34473 0.0
H259 H 0.21709 0.02234 0.28142 0.0
H260 H 0.17143 0.977 0.47123 0.0
H261 H 0.1348 0.02109 0.29142 0.0
H262 H 0.15784 0.00873 0.26774 0.0
H263 H 0.15469 0.03331 0.3128 0.0
C264 C 0.20804 0.97155 0.30049 0.0
C265 C 0.21816 0.98878 0.28037 0.0
C266 C 0.1899 0.9741 0.33566 0.0
C267 C 0.18135 0.99399 0.3522 0.0
C268 C 0.19137 0.01133 0.33144 0.0
H269 H 0.08689 0.01216 0.6791 0.0
H270 H 0.11729 0.01188 0.60829 0.0
C271 C 0.20957 0.00875 0.29542 0.0
C272 C 0.16246 0.99622 0.39446 0.0
H273 H 0.11785 0.01728 0.40065 0.0
C274 C 0.15974 0.98582 0.45557 0.0
C275 C 0.14703 0.0075 0.37413 0.0
C276 C 0.14863 0.01814 0.30766 0.0
C277 C 0.14222 0.98631 0.49653 0.0
C278 C 0.1269 0.99806 0.47721 0.0
C279 C 0.12956 0.00843 0.416 0.0
C280 C 0.10802 0.99942 0.51937 0.0
C281 C 0.14023 0.97368 0.55922 0.0
C282 C 0.09232 0.99335 0.49267 0.0
C283 C 0.07476 0.99376 0.53303 0.0
C284 C 0.07246 1.00025 0.60114 0.0
C285 C 0.08811 0.00681 0.62721 0.0
C286 C 0.1056 0.00655 0.58674 0.0
H287 H 0.15141 0.96104 0.55633 0.0
H288 H 0.1413 0.98388 0.60323 0.0
H289 H 0.12654 0.96668 0.56793 0.0
H290 H 0.09373 0.98789 0.44082 0.0
H291 H 0.06304 0.98868 0.51109 0.0
H292 H 0.50197 0.19713 0.28767 0.0
H293 H 0.49545 0.16443 0.34495 0.0
H294 H 0.54583 0.16731 0.43224 0.0
H295 H 0.55243 0.1997 0.37531 0.0
H296 H 0.52117 0.12505 0.34111 0.0
H297 H 0.5016 0.1631 0.59363 0.0
H298 H 0.50098 0.17689 0.51667 0.0
H299 H 0.52279 0.17112 0.546 0.0
C300 C 0.51168 0.19069 0.31877 0.0
C301 C 0.5277 0.20097 0.32731 0.0
C302 C 0.50795 0.17205 0.35139 0.0
C303 C 0.52006 0.16362 0.3934 0.0
C304 C 0.5362 0.17368 0.40066 0.0
H305 H 0.53891 0.06598 0.65489 0.0
H306 H 0.5373 0.09697 0.58842 0.0
C307 C 0.53998 0.19213 0.36794 0.0
C308 C 0.51603 0.14445 0.43082 0.0
H309 H 0.50817 0.12654 0.59042 0.0
C310 C 0.51801 0.12531 0.39555 0.0
C311 C 0.51192 0.1449 0.50178 0.0
C312 C 0.50903 0.1651 0.54194 0.0
C313 C 0.517 0.1065 0.42972 0.0
C314 C 0.5136 0.10695 0.50095 0.0
C315 C 0.51085 0.12617 0.53589 0.0
C316 C 0.51426 0.08779 0.54056 0.0
C317 C 0.52054 0.08634 0.3895 0.0
C318 C 0.50172 0.07229 0.53632 0.0
C319 C 0.50264 0.05439 0.57435 0.0
C320 C 0.51604 0.05175 0.61764 0.0
C321 C 0.52841 0.06743 0.62213 0.0
C322 C 0.52751 0.08522 0.58413 0.0
H323 H 0.52668 0.08869 0.33641 0.0
H324 H 0.53006 0.07545 0.4122 0.0
H325 H 0.50716 0.07898 0.38953 0.0
H326 H 0.49114 0.0741 0.50404 0.0
H327 H 0.49283 0.04268 0.56992 0.0
H328 H 0.31197 0.54173 0.12333 0.0
H329 H 0.33772 0.53439 0.18607 0.0
H330 H 0.32107 0.47194 0.21601 0.0
H331 H 0.29501 0.47933 0.15314 0.0
H332 H 0.32807 0.49201 0.33432 0.0
H333 H 0.38652 0.4997 0.12748 0.0
H334 H 0.36987 0.5216 0.13604 0.0
H335 H 0.36298 0.49654 0.11265 0.0
C336 C 0.31392 0.52633 0.14252 0.0
C337 C 0.30156 0.51107 0.13284 0.0
C338 C 0.3287 0.52213 0.17821 0.0
C339 C 0.33155 0.50253 0.20501 0.0
C340 C 0.31924 0.48715 0.19537 0.0
H341 H 0.43254 0.46922 0.37667 0.0
H342 H 0.40717 0.4702 0.30975 0.0
C343 C 0.3044 0.49135 0.15922 0.0
C344 C 0.34694 0.49862 0.24528 0.0
H345 H 0.39394 0.50129 0.23917 0.0
C346 C 0.3425 0.49382 0.31337 0.0
C347 C 0.36581 0.50074 0.21791 0.0
C348 C 0.37164 0.50472 0.14434 0.0
C349 C 0.35633 0.49182 0.35526 0.0
C350 C 0.37507 0.49505 0.32868 0.0
C351 C 0.37957 0.4991 0.25999 0.0
C352 C 0.39028 0.49426 0.37092 0.0
C353 C 0.35071 0.48613 0.42749 0.0
C354 C 0.38942 0.50761 0.42745 0.0
C355 C 0.40398 0.50713 0.46589 0.0
C356 C 0.41986 0.49345 0.44821 0.0
C357 C 0.4207 0.48019 0.39132 0.0
C358 C 0.40612 0.48063 0.35313 0.0
H359 H 0.33738 0.47834 0.43455 0.0
H360 H 0.36161 0.47573 0.44489 0.0
H361 H 0.3487 0.50044 0.45975 0.0
H362 H 0.3776 0.51866 0.44133 0.0
H363 H 0.40296 0.51775 0.50876 0.0
H364 H 0.04702 0.31521 0.18748 0.0
H365 H 0.05222 0.33913 0.27826 0.0
H366 H 0.99751 0.36891 0.27914 0.0
H367 H 0.99218 0.345 0.18939 0.0
H368 H 0.05148 0.38273 0.28667 0.0
H369 H 0.9967 0.35289 0.47532 0.0
H370 H 1.00558 0.33915 0.39699 0.0
H371 H 0.98826 0.36036 0.39942 0.0
C372 C 0.03617 0.32695 0.20682 0.0
C373 C 0.01913 0.32822 0.18167 0.0
C374 C 0.03914 0.34057 0.25872 0.0
C375 C 0.0251 0.35553 0.28644 0.0
C376 C 1.00837 0.35719 0.25966 0.0
H377 H 0.0255 0.46857 0.51391 0.0
H378 H 0.02757 0.44094 0.42864 0.0
C379 C 1.0054 0.34363 0.20805 0.0
C380 C 0.02775 0.36949 0.34333 0.0
H381 H 1.00785 0.38564 0.50199 0.0
C382 C 0.04208 0.38322 0.33405 0.0
C383 C 0.01572 0.36987 0.40567 0.0
C384 C 1.00082 0.35463 0.42036 0.0
C385 C 0.04413 0.39799 0.38425 0.0
C386 C 0.03131 0.39926 0.44489 0.0
C387 C 0.01756 0.38486 0.45531 0.0
C388 C 0.03126 0.41604 0.49665 0.0
C389 C 0.05998 0.4121 0.37171 0.0
C390 C 0.03228 0.41131 0.56391 0.0
C391 C 0.03092 0.42715 0.61332 0.0
C392 C 0.02838 0.44806 0.59648 0.0
C393 C 0.02755 0.4527 0.5289 0.0
C394 C 0.02888 0.43688 0.47973 0.0
H395 H 0.07166 0.40496 0.33485 0.0
H396 H 0.05497 0.42675 0.35054 0.0
H397 H 0.06533 0.41593 0.41898 0.0
H398 H 0.03396 0.39532 0.5783 0.0
H399 H 0.03157 0.42298 0.66479 0.0
H400 H 0.82477 0.01208 0.1999 0.0
H401 H 0.85744 0.01502 0.14851 0.0
H402 H 0.85151 0.968 0.99973 0.0
H403 H 0.81899 0.9655 0.0494 0.0
H404 H 0.8886 0.98814 0.1231 0.0
H405 H 0.86942 0.01446 0.88158 0.0
H406 H 0.85241 0.0129 0.95614 0.0
H407 H 0.86022 0.99005 0.90447 0.0
C408 C 0.83051 0.0023 0.15655 0.0
C409 C 0.81927 0.98865 0.12839 0.0
C410 C 0.84919 0.00399 0.12709 0.0
C411 C 0.85691 0.9921 0.06902 0.0
C412 C 0.84584 0.97781 0.04312 0.0
H413 H 0.97421 0.96816 0.89399 0.0
H414 H 0.94304 0.96717 0.95938 0.0
C415 C 0.82725 0.97626 0.07199 0.0
C416 C 0.87634 0.9947 0.03438 0.0
H417 H 0.90139 0.00367 0.88077 0.0
C418 C 0.89139 0.99169 0.07023 0.0
C419 C 0.8801 0.9997 0.96556 0.0
C420 C 0.86467 0.00469 0.92488 0.0
C421 C 0.90999 0.99294 0.03884 0.0
C422 C 0.91378 0.99685 0.96911 0.0
C423 C 0.89867 1.0004 0.93388 0.0
C424 C 0.93318 0.9976 0.93147 0.0
C425 C 0.92535 0.99042 0.0812 0.0
C426 C 0.93811 0.01475 0.89219 0.0
C427 C 0.95584 0.01518 0.85376 0.0
C428 C 0.96923 0.99849 0.8536 0.0
C429 C 0.96437 0.98138 0.89332 0.0
C430 C 0.94652 0.98087 0.9313 0.0
H431 H 0.9201 0.99414 0.13511 0.0
H432 H 0.93108 0.97406 0.07719 0.0
H433 H 0.93685 1.00053 0.06411 0.0
H434 H 0.92816 0.02785 0.89096 0.0
H435 H 0.95903 0.02863 0.82393 0.0
H436 H 0.51785 0.79939 0.17161 0.0
H437 H 0.51714 0.83505 0.13088 0.0
H438 H 0.53664 0.81169 0.9288 0.0
H439 H 0.53723 0.77625 0.96886 0.0
H440 H 0.5462 0.85781 0.05576 0.0
H441 H 0.488 0.84628 0.91312 0.0
H442 H 0.49367 0.82886 0.97717 0.0
H443 H 0.50696 0.82694 0.89407 0.0
C444 C 0.52206 0.80191 0.11861 0.0
C445 C 0.5275 0.78506 0.0732 0.0
C446 C 0.52165 0.82227 0.09544 0.0
C447 C 0.52653 0.82599 0.02663 0.0
C448 C 0.53248 0.80917 0.98186 0.0
H449 H 0.53527 0.92475 0.7484 0.0
H450 H 0.5356 0.89237 0.8088 0.0
C451 C 0.5329 0.78894 0.00487 0.0
C452 C 0.52525 0.84729 1.00059 0.0
H453 H 0.50494 0.87631 0.88814 0.0
C454 C 0.53703 0.862 0.01976 0.0
C455 C 0.51323 0.85272 0.95375 0.0
C456 C 0.49961 0.83795 0.93371 0.0
C457 C 0.53769 0.88167 0.99095 0.0
C458 C 0.52608 0.88681 0.94246 0.0
C459 C 0.51393 0.8723 0.92492 0.0
C460 C 0.52673 0.90682 0.90721 0.0
C461 C 0.55131 0.89648 0.01058 0.0
C462 C 0.52163 0.92577 0.94243 0.0
C463 C 0.52143 0.94439 0.90795 0.0
C464 C 0.52625 0.9444 0.83751 0.0
C465 C 0.5315 0.92538 0.80259 0.0
C466 C 0.53168 0.90681 0.83705 0.0
H467 H 0.56193 0.88861 0.03733 0.0
H468 H 0.55855 0.90393 0.96556 0.0
H469 H 0.54363 0.90889 0.04456 0.0
H470 H 0.51744 0.92612 0.99643 0.0
H471 H 0.51723 0.95874 0.93641 0.0
H472 H 0.7539 0.49225 0.27729 0.0
H473 H 0.73043 0.4842 0.20603 0.0
H474 H 0.70175 0.54397 0.25883 0.0
H475 H 0.72523 0.55219 0.3283 0.0
H476 H 0.69187 0.48216 0.23192 0.0
H477 H 0.70997 0.54491 0.05556 0.0
H478 H 0.72459 0.53666 0.11623 0.0
H479 H 0.70459 0.55447 0.14094 0.0
C480 C 0.74253 0.5036 0.27381 0.0
C481 C 0.74145 0.52293 0.308 0.0
C482 C 0.72914 0.499 0.23306 0.0
C483 C 0.71452 0.51367 0.22572 0.0
C484 C 0.71313 0.53261 0.26204 0.0
H485 H 0.61502 0.52869 0.04873 0.0
H486 H 0.64079 0.52959 0.11353 0.0
C487 C 0.72649 0.53723 0.3022 0.0
C488 C 0.7007 0.50953 0.18014 0.0
H489 H 0.68056 0.53049 0.05175 0.0
C490 C 0.68957 0.49254 0.19188 0.0
C491 C 0.69775 0.52297 0.1274 0.0
C492 C 0.70999 0.54064 0.10875 0.0
C493 C 0.67504 0.48929 0.15456 0.0
C494 C 0.67159 0.50332 0.1041 0.0
C495 C 0.6831 0.51986 0.09088 0.0
C496 C 0.65558 0.50179 0.06653 0.0
C497 C 0.66298 0.47136 0.17087 0.0
C498 C 0.65532 0.48584 0.01832 0.0
C499 C 0.64055 0.48529 0.98089 0.0
C500 C 0.6257 0.50061 0.99127 0.0
C501 C 0.62601 0.51643 0.04013 0.0
C502 C 0.6408 0.51705 0.077 0.0
H503 H 0.66595 0.46342 0.2169 0.0
H504 H 0.64802 0.47682 0.17794 0.0
H505 H 0.66546 0.4599 0.12819 0.0
H506 H 0.66668 0.47402 0.00887 0.0
H507 H 0.64075 0.47287 0.94386 0.0
H508 H 0.95582 0.68858 0.2213 0.0
H509 H 0.95967 0.65728 0.14908 0.0
H510 H 1.00738 0.63609 0.23878 0.0
H511 H 1.00336 0.66734 0.31216 0.0
H512 H 0.98979 0.64696 0.05551 0.0
H513 H 0.97873 0.58361 0.23629 0.0
H514 H 0.97196 0.61045 0.25931 0.0
H515 H 0.99587 0.6009 0.25434 0.0
C516 C 0.96693 0.67705 0.2265 0.0
C517 C 0.97924 0.68038 0.27243 0.0
C518 C 0.96914 0.65919 0.18511 0.0
C519 C 0.98372 0.6442 0.18873 0.0
C520 C 0.9958 0.64721 0.2359 0.0
H521 H 0.03221 0.55945 0.86038 0.0
H522 H 0.02547 0.58701 0.947 0.0
C523 C 0.99354 0.66513 0.27765 0.0
C524 C 0.9871 0.62648 0.13907 0.0
H525 H 0.99115 0.57355 0.12304 0.0
C526 C 0.99003 0.63091 0.07038 0.0
C527 C 0.98714 0.60552 0.15829 0.0
C528 C 0.98308 0.59976 0.23104 0.0
C529 C 0.99329 0.61507 0.02052 0.0
C530 C 0.99411 0.59411 0.03969 0.0
C531 C 0.99078 0.58961 0.10835 0.0
C532 C 0.99849 0.57675 0.98897 0.0
C533 C 0.9955 0.62098 0.94768 0.0
C534 C 0.98584 0.56138 0.98494 0.0
C535 C 0.98972 0.54548 0.93555 0.0
C536 C 1.00639 0.54457 0.88952 0.0
C537 C 0.01915 0.5598 0.89448 0.0
C538 C 0.0153 0.57562 0.94393 0.0
H539 H 0.98912 0.63677 0.94182 0.0
H540 H 1.01055 0.62095 0.92733 0.0
H541 H 0.98904 0.60981 0.91709 0.0
H542 H 0.97282 0.56185 0.01934 0.0
H543 H 0.97958 0.53401 0.93312 0.0
H544 H 0.02567 0.22143 0.27351 0.0
H545 H 1.01189 0.20697 0.37919 0.0
H546 H 0.96423 0.25071 0.38959 0.0
H547 H 0.97819 0.26537 0.2828 0.0
H548 H 0.99575 0.22416 0.51586 0.0
H549 H 0.94471 0.19141 0.36817 0.0
H550 H 0.96545 0.20204 0.32515 0.0
H551 H 0.94731 0.21893 0.37158 0.0
C552 C 0.01245 0.22825 0.29917 0.0
C553 C 1.00282 0.24425 0.27009 0.0
C554 C 1.00465 0.22012 0.35964 0.0
C555 C 0.98701 0.2277 0.39179 0.0
C556 C 0.97785 0.24466 0.36527 0.0
H557 H 0.94878 0.11739 0.59458 0.0
H558 H 0.94439 0.15477 0.57684 0.0
C559 C 0.9858 0.25299 0.30462 0.0
C560 C 0.97761 0.21541 0.44636 0.0
H561 H 0.95251 0.17253 0.45884 0.0
C562 C 0.98568 0.21335 0.50508 0.0
C563 C 0.96423 0.20157 0.43282 0.0
C564 C 0.95483 0.20346 0.37114 0.0
C565 C 0.98252 0.19621 0.54591 0.0
C566 C 0.97142 0.18065 0.52622 0.0
C567 C 0.96126 0.18431 0.47325 0.0
C568 C 0.97376 0.15901 0.54782 0.0
C569 C 0.99229 0.19409 0.60657 0.0
C570 C 0.99166 0.14899 0.53654 0.0
C571 C 0.99416 0.1278 0.54574 0.0
C572 C 0.97881 0.11602 0.56615 0.0
C573 C 0.96086 0.12605 0.57841 0.0
C574 C 0.95835 0.14741 0.56907 0.0
H575 H 0.99295 0.2095 0.63123 0.0
H576 H 0.9852 0.18361 0.64386 0.0
H577 H 1.00684 0.18776 0.59036 0.0
H578 H 1.00369 0.15737 0.51731 0.0
H579 H 1.00812 0.12052 0.53422 0.0
H580 H 0.28785 0.95915 0.35477 0.0
H581 H 0.30526 0.94541 0.44147 0.0
H582 H 0.33715 0.99974 0.42876 0.0
H583 H 0.31948 0.01369 0.3448 0.0
H584 H 0.34071 0.93446 0.41677 0.0
H585 H 0.33198 0.99164 0.62533 0.0
H586 H 0.31603 0.99161 0.56474 0.0
H587 H 0.33704 0.00542 0.54917 0.0
C588 C 0.29811 0.96844 0.37253 0.0
C589 C 0.30249 0.98737 0.34276 0.0
C590 C 0.30807 0.96056 0.42182 0.0
C591 C 0.32238 0.97163 0.44236 0.0
C592 C 0.32587 0.99112 0.4154 0.0
H593 H 0.4324 0.94735 0.4418 0.0
H594 H 0.39977 0.9465 0.42821 0.0
C595 C 0.31595 0.99897 0.36654 0.0
C596 C 0.33587 0.96173 0.48221 0.0
H597 H 0.36411 0.97511 0.59416 0.0
C598 C 0.34545 0.943 0.45721 0.0
C599 C 0.3418 0.97236 0.53644 0.0
C600 C 0.33096 0.99124 0.57081 0.0
C601 C 0.36208 0.93608 0.47918 0.0
C602 C 0.36954 0.94854 0.52574 0.0
C603 C 0.35874 0.96581 0.55689 0.0
C604 C 0.38938 0.94593 0.53492 0.0
C605 C 0.37192 0.916 0.4498 0.0
C606 C 0.39448 0.9462 0.59943 0.0
C607 C 0.41319 0.94703 0.60726 0.0
C608 C 0.4271 0.9476 0.55068 0.0
C609 C 0.42203 0.94656 0.48623 0.0
C610 C 0.40335 0.94593 0.47846 0.0
H611 H 0.36166 0.90467 0.44027 0.0
H612 H 0.38042 0.91896 0.40073 0.0
H613 H 0.38116 0.90898 0.48353 0.0
H614 H 0.38394 0.94638 0.6437 0.0
H615 H 0.41675 0.94767 0.65757 0.0
H616 H 0.50301 0.32241 0.36751 0.0
H617 H 0.51335 0.34758 0.44366 0.0
H618 H 0.56396 0.30943 0.44659 0.0
H619 H 0.5537 0.28415 0.36925 0.0
H620 H 0.52554 0.34459 0.57359 0.0
H621 H 0.58089 0.36568 0.3675 0.0
H622 H 0.56192 0.35055 0.3514 0.0
H623 H 0.58032 0.339 0.39118 0.0
C624 C 0.51622 0.31925 0.38518 0.0
C625 C 0.52767 0.30152 0.36202 0.0
C626 C 0.52206 0.33356 0.42886 0.0
C627 C 0.5395 0.33045 0.44993 0.0
C628 C 0.55053 0.31215 0.43023 0.0
H629 H 0.56052 0.43555 0.70818 0.0
H630 H 0.56439 0.39973 0.66403 0.0
C631 C 0.54461 0.2977 0.38657 0.0
C632 C 0.54648 0.34748 0.48723 0.0
H633 H 0.57445 0.38801 0.46214 0.0
C634 C 0.53656 0.35384 0.55027 0.0
C635 C 0.56078 0.35951 0.45605 0.0
C636 C 0.57161 0.35351 0.38767 0.0
C637 C 0.53976 0.37266 0.58117 0.0
C638 C 0.55338 0.38524 0.54821 0.0
C639 C 0.5641 0.37822 0.48722 0.0
C640 C 0.55449 0.40698 0.57062 0.0
C641 C 0.52759 0.37965 0.64627 0.0
C642 C 0.54863 0.42298 0.53106 0.0
C643 C 0.54649 0.44342 0.5558 0.0
C644 C 0.55023 0.44822 0.62059 0.0
C645 C 0.55748 0.43236 0.65809 0.0
C646 C 0.55958 0.41186 0.63323 0.0
H647 H 0.5161 0.36927 0.66054 0.0
H648 H 0.53617 0.3798 0.68736 0.0
H649 H 0.52144 0.39564 0.64226 0.0
H650 H 0.54469 0.4195 0.48243 0.0
H651 H 0.54099 0.45527 0.52549 0.0
H652 H 0.19148 0.52565 0.21533 0.0
H653 H 0.17452 0.5481 0.30545 0.0
H654 H 0.22095 0.58692 0.29467 0.0
H655 H 0.23814 0.56446 0.20255 0.0
H656 H 0.20183 0.57402 0.43422 0.0
H657 H 0.15456 0.60994 0.27271 0.0
H658 H 0.15837 0.58244 0.25721 0.0
H659 H 0.17762 0.59875 0.2399 0.0
C660 C 0.19808 0.53904 0.23155 0.0
C661 C 0.21599 0.54352 0.20106 0.0
C662 C 0.18841 0.55179 0.28323 0.0
C663 C 0.19641 0.56929 0.30568 0.0
C664 C 0.21456 0.57352 0.27742 0.0
H665 H 0.09552 0.61477 0.54808 0.0
H666 H 0.12683 0.623 0.49636 0.0
C667 C 0.22432 0.56069 0.22516 0.0
C668 C 0.18516 0.58283 0.35834 0.0
H669 H 0.14105 0.60487 0.38888 0.0
C670 C 0.18878 0.58152 0.42459 0.0
C671 C 0.16851 0.59327 0.34553 0.0
C672 C 0.16461 0.59641 0.27481 0.0
C673 C 0.17496 0.58784 0.47891 0.0
C674 C 0.15705 0.59491 0.46601 0.0
C675 C 0.15456 0.59906 0.39954 0.0
C676 C 0.14 0.59325 0.51611 0.0
C677 C 0.17934 0.58564 0.54934 0.0
C678 C 0.13708 0.57426 0.5476 0.0
C679 C 0.11933 0.56968 0.57772 0.0
C680 C 0.10401 0.58383 0.5759 0.0
C681 C 0.1071 0.60352 0.54958 0.0
C682 C 0.12499 0.60825 0.52031 0.0
H683 H 0.19357 0.59058 0.55208 0.0
H684 H 0.1692 0.59497 0.58669 0.0
H685 H 0.17919 0.56908 0.56287 0.0
H686 H 0.14811 0.56207 0.54343 0.0
H687 H 0.11739 0.55428 0.59675 0.0
H688 H 1.0104 0.73992 0.15354 0.0
H689 H 0.02442 0.75523 0.0494 0.0
H690 H 0.06347 0.78429 0.15684 0.0
H691 H 0.05038 0.768 0.25941 0.0
H692 H 0.02062 0.79437 0.03935 0.0
H693 H 0.09581 0.77511 0.9819 0.0
H694 H 0.08074 0.75969 0.03777 0.0
H695 H 0.09057 0.78222 0.06935 0.0
C696 C 0.02253 0.74879 0.15424 0.0
C697 C 0.02907 0.7531 0.21497 0.0
C698 C 0.0305 0.75759 0.09465 0.0
C699 C 0.04507 0.77089 0.09491 0.0
C700 C 0.05257 0.77375 0.15448 0.0
H701 H 0.06866 0.88827 0.01361 0.0
H702 H 0.06871 0.85141 0.03743 0.0
C703 C 0.04479 0.76475 0.21367 0.0
C704 C 0.04964 0.78524 0.03906 0.0
H705 H 0.08566 0.81192 0.96251 0.0
C706 C 0.03486 0.79767 0.02034 0.0
C707 C 0.06819 0.78957 0.01373 0.0
C708 C 0.08466 0.77571 0.02634 0.0
C709 C 0.0381 0.8156 0.98363 0.0
C710 C 0.05662 0.82114 0.96491 0.0
C711 C 0.07147 0.80771 0.9778 0.0
C712 C 0.06041 0.8423 0.94293 0.0
C713 C 0.02166 0.8295 0.97056 0.0
C714 C 0.05633 0.84918 0.8809 0.0
C715 C 0.05631 0.87028 0.86704 0.0
C716 C 0.06034 0.88475 0.91514 0.0
C717 C 0.06561 0.87754 0.97535 0.0
C718 C 0.06566 0.85648 0.98904 0.0
H719 H 1.00813 0.82364 0.99298 0.0
H720 H 0.02258 0.84537 0.99142 0.0
H721 H 0.02181 0.83066 0.91555 0.0
H722 H 0.05235 0.83838 0.84462 0.0
H723 H 0.05257 0.87533 0.81958 0.0
H724 H 0.71964 0.05536 0.1788 0.0
H725 H 0.70188 0.06663 0.09155 0.0
H726 H 0.73641 0.02485 0.94803 0.0
H727 H 0.75335 0.01221 0.03693 0.0
H728 H 0.70592 0.08305 0.97109 0.0
H729 H 0.68716 1.00109 0.9484 0.0
H730 H 0.70033 0.00944 0.01163 0.0
H731 H 0.71138 0.00542 0.92573 0.0
C732 C 0.7235 0.04855 0.12865 0.0
C733 C 0.73743 0.03231 0.11548 0.0
C734 C 0.71348 0.05522 0.07848 0.0
C735 C 0.71739 0.04609 0.0137 0.0
C736 C 0.73273 0.03161 0.99827 0.0
H737 H 0.62692 0.04711 0.77291 0.0
H738 H 0.65949 0.04896 0.78821 0.0
C739 C 0.74257 0.02458 0.049 0.0
C740 C 0.70379 0.04994 0.96659 0.0
H741 H 0.67024 0.02612 0.89778 0.0
C742 C 0.69837 0.07056 0.95379 0.0
C743 C 0.69389 0.03363 0.94392 0.0
C744 C 0.69833 0.01117 0.95838 0.0
C745 C 0.68257 0.07535 0.92328 0.0
C746 C 0.6721 0.05912 0.90469 0.0
C747 C 0.6784 0.0385 0.9121 0.0
C748 C 0.65308 0.06286 0.88825 0.0
C749 C 0.67668 0.09774 0.91399 0.0
C750 C 0.63874 0.07054 0.93884 0.0
C751 C 0.62012 0.06908 0.93099 0.0
C752 C 0.61552 0.05991 0.87227 0.0
C753 C 0.62997 0.05383 0.81941 0.0
C754 C 0.6486 0.05509 0.82765 0.0
H755 H 0.68864 0.10772 0.91163 0.0
H756 H 0.67032 0.09955 0.86746 0.0
H757 H 0.66611 0.10326 0.95738 0.0
H758 H 0.64191 0.0762 0.98657 0.0
H759 H 0.60943 0.07372 0.97299 0.0
H760 H 0.50579 0.70714 0.01237 0.0
H761 H 0.49539 0.68259 0.93495 0.0
H762 H 0.46395 0.65324 0.10232 0.0
H763 H 0.47276 0.6789 0.17915 0.0
H764 H 0.50637 0.64522 0.93092 0.0
H765 H 0.43005 0.64484 0.97193 0.0
H766 H 0.44186 0.66584 0.00354 0.0
H767 H 0.43777 0.64288 0.05196 0.0
C768 C 0.49596 0.6961 0.03262 0.0
C769 C 0.49042 0.69482 0.10244 0.0
C770 C 0.49012 0.68191 0.98811 0.0
C771 C 0.47884 0.66596 0.0124 0.0
C772 C 0.47228 0.66557 0.08163 0.0
H773 H 0.49799 0.54109 0.9254 0.0
H774 H 0.48849 0.57598 0.97181 0.0
C775 C 0.47773 0.68004 0.12594 0.0
C776 C 0.47686 0.64775 0.96821 0.0
H777 H 0.44699 0.61075 0.94042 0.0
C778 C 0.49322 0.63814 0.93146 0.0
C779 C 0.45975 0.63835 0.96797 0.0
C780 C 0.44138 0.64872 1.00045 0.0
C781 C 0.49319 0.61878 0.89921 0.0
C782 C 0.47649 0.60847 0.90516 0.0
C783 C 0.45984 0.61858 0.93729 0.0
C784 C 0.47697 0.5864 0.8844 0.0
C785 C 0.51128 0.60892 0.86197 0.0
C786 C 0.47263 0.58047 0.82146 0.0
C787 C 0.47784 0.56037 0.79517 0.0
C788 C 0.48761 0.54623 0.8314 0.0
C789 C 0.49042 0.55172 0.8967 0.0
C790 C 0.48502 0.57161 0.92318 0.0
H791 H 0.52187 0.62049 0.84973 0.0
H792 H 0.51695 0.59703 0.89379 0.0
H793 H 0.50899 0.6011 0.81457 0.0
H794 H 0.46656 0.59179 0.79074 0.0
H795 H 0.47578 0.55655 0.74427 0.0
H796 H 0.82754 0.58238 0.40125 0.0
H797 H 0.85631 0.59496 0.34164 0.0
H798 H 0.84967 0.55842 0.16616 0.0
H799 H 0.82091 0.54638 0.22485 0.0
H800 H 0.88117 0.56426 0.32252 0.0
H801 H 0.88253 0.59988 0.07747 0.0
H802 H 0.86168 0.60136 0.1394 0.0
H803 H 0.86689 0.57949 0.08088 0.0
C804 C 0.83162 0.5782 0.34846 0.0
C805 C 0.82229 0.56307 0.31797 0.0
C806 C 0.84811 0.58534 0.31443 0.0
C807 C 0.85542 0.57738 0.24975 0.0
C808 C 0.84435 0.56505 0.21566 0.0
H809 H 0.93199 0.50047 0.0425 0.0
H810 H 0.90852 0.52706 0.09044 0.0
C811 C 0.8278 0.55806 0.24947 0.0
C812 C 0.87587 0.57602 0.22717 0.0
H813 H 0.90695 0.57087 0.08217 0.0
C814 C 0.88707 0.56654 0.27059 0.0
C815 C 0.88371 0.5791 0.15976 0.0
C816 C 0.87303 0.59074 0.11215 0.0
C817 C 0.90485 0.55745 0.24625 0.0
C818 C 0.9117 0.55821 0.17686 0.0
C819 C 0.90152 0.57001 0.13524 0.0
C820 C 0.92693 0.54339 0.14486 0.0
C821 C 0.91523 0.54514 0.2935 0.0
C822 C 0.94515 0.54369 0.15967 0.0
C823 C 0.95862 0.52801 0.13368 0.0
C824 C 0.95407 0.51189 0.0921 0.0
C825 C 0.9359 0.51212 0.0762 0.0
C826 C 0.92251 0.52761 0.10245 0.0
H827 H 0.90714 0.54467 0.34485 0.0
H828 H 0.91858 0.52897 0.27377 0.0
H829 H 0.92854 0.55222 0.29748 0.0
H830 H 0.9489 0.55587 0.19178 0.0
H831 H 0.97251 0.52844 0.14656 0.0
H832 H 0.05142 0.22565 0.99476 0.0
H833 H 0.05521 0.19392 0.92292 0.0
H834 H 0.99741 0.18285 0.98639 0.0
H835 H 0.99355 0.21446 0.05639 0.0
H836 H 0.05092 0.15493 0.96827 0.0
H837 H 1.00223 0.17062 0.78741 0.0
H838 H 1.00981 0.19097 0.83758 0.0
H839 H 0.99087 0.17577 0.87203 0.0
C840 C 0.03944 0.21673 0.99158 0.0
C841 C 0.0222 0.22249 0.03112 0.0
C842 C 0.04163 0.19855 0.95098 0.0
C843 C 0.02654 0.18606 0.94862 0.0
C844 C 1.00916 0.19237 0.986 0.0
H845 H 0.02286 0.05398 0.9038 0.0
H846 H 0.02487 0.08989 0.94118 0.0
C847 C 1.007 0.21039 0.02646 0.0
C848 C 0.02913 0.16541 0.91307 0.0
H849 H 1.00958 0.13446 0.80713 0.0
C850 C 0.04209 0.15056 0.93216 0.0
C851 C 0.01782 0.15968 0.86524 0.0
C852 C 1.00455 0.17519 0.83884 0.0
C853 C 0.04339 0.12994 0.90742 0.0
C854 C 0.03107 0.12384 0.86356 0.0
C855 C 0.0188 0.13896 0.84172 0.0
C856 C 0.03039 0.10185 0.84084 0.0
C857 C 0.05794 0.11491 0.92869 0.0
C858 C 0.03235 0.09658 0.77202 0.0
C859 C 0.031 0.07608 0.75055 0.0
C860 C 0.02758 0.06035 0.79741 0.0
C861 C 0.02568 0.06563 0.86632 0.0
C862 C 0.02694 0.08618 0.88777 0.0
H863 H 0.06979 0.12309 0.94312 0.0
H864 H 0.05162 0.10655 0.97323 0.0
H865 H 0.06341 0.10332 0.88794 0.0
H866 H 0.03494 0.10836 0.73478 0.0
H867 H 0.0327 0.07261 0.69709 0.0
H868 H 0.32264 0.03838 0.15864 0.0
H869 H 0.3522 0.04085 0.08371 0.0
H870 H 0.34187 0.98563 0.97532 0.0
H871 H 0.31207 0.9834 0.0499 0.0
H872 H 0.38044 0.01125 0.07916 0.0
H873 H 0.36355 0.02101 0.82172 0.0
H874 H 0.34634 0.02572 0.89597 0.0
H875 H 0.35295 0.99966 0.86473 0.0
C876 C 0.32629 0.02733 0.11685 0.0
C877 C 0.31485 0.01095 0.10923 0.0
C878 C 0.34331 0.0286 0.07446 0.0
C879 C 0.34937 0.01349 0.02339 0.0
C880 C 0.33744 0.99776 0.01323 0.0
H881 H 0.45604 0.97918 0.7734 0.0
H882 H 0.42365 0.98216 0.82853 0.0
C883 C 0.32031 0.99653 0.05566 0.0
C884 C 0.36895 0.01291 0.98681 0.0
H885 H 0.39537 0.01233 0.83069 0.0
C886 C 0.38366 0.01169 0.02482 0.0
C887 C 0.37329 0.01322 0.91583 0.0
C888 C 0.35822 0.01516 0.87208 0.0
C889 C 0.40244 0.01045 0.99417 0.0
C890 C 0.40682 0.0109 0.92319 0.0
C891 C 0.39211 0.01207 0.88504 0.0
C892 C 0.42654 0.0097 0.88783 0.0
C893 C 0.41742 0.008 0.03827 0.0
C894 C 0.43908 0.02439 0.90154 0.0
C895 C 0.45775 0.02268 0.87019 0.0
C896 C 0.46434 0.00633 0.82382 0.0
C897 C 0.45161 0.99195 0.80897 0.0
C898 C 0.43298 0.99365 0.84042 0.0
H899 H 0.4119 0.00218 0.0885 0.0
H900 H 0.4291 0.99715 0.01457 0.0
H901 H 0.42301 0.0233 0.04601 0.0
H902 H 0.43443 0.03722 0.93665 0.0
H903 H 0.46701 0.03417 0.88253 0.0
H904 H 0.48086 0.30501 0.17427 0.0
H905 H 0.47722 0.33281 0.09513 0.0
H906 H 0.53521 0.32241 0.0098 0.0
H907 H 0.53861 0.2943 0.08758 0.0
H908 H 0.49481 0.36719 0.10041 0.0
H909 H 0.51301 0.33371 0.84242 0.0
H910 H 0.50755 0.31784 0.9147 0.0
H911 H 0.53059 0.32683 0.89304 0.0
C912 C 0.49251 0.30799 0.13613 0.0
C913 C 0.50988 0.29723 0.13564 0.0
C914 C 0.49052 0.32403 0.09149 0.0
C915 C 0.5059 0.32969 0.04598 0.0
C916 C 0.523 0.31807 0.04298 0.0
H917 H 0.5293 0.45333 0.91607 0.0
H918 H 0.52616 0.42056 0.97398 0.0
C919 C 0.52495 0.30194 0.08731 0.0
C920 C 0.50482 0.34939 0.00904 0.0
H921 H 0.5154 0.37057 0.85474 0.0
C922 C 0.49908 0.36785 0.04651 0.0
C923 C 0.51026 0.35036 0.93866 0.0
C924 C 0.51551 0.33109 0.8948 0.0
C925 C 0.49915 0.38722 0.01607 0.0
C926 C 0.50558 0.3883 0.94635 0.0
C927 C 0.51073 0.3698 0.90838 0.0
C928 C 0.5072 0.40845 0.912 0.0
C929 C 0.49223 0.40634 0.05899 0.0
C930 C 0.49789 0.41246 0.85703 0.0
C931 C 0.49975 0.43115 0.82349 0.0
C932 C 0.51105 0.44627 0.84399 0.0
C933 C 0.52031 0.44222 0.89931 0.0
C934 C 0.51848 0.42347 0.93269 0.0
H935 H 0.48274 0.40245 0.10502 0.0
H936 H 0.50429 0.41368 0.07508 0.0
H937 H 0.48475 0.41782 0.03067 0.0
H938 H 0.48918 0.40109 0.83992 0.0
H939 H 0.49247 0.43361 0.78092 0.0
H940 H 0.20825 0.47303 0.02541 0.0
H941 H 0.18168 0.46757 0.96616 0.0
H942 H 0.18495 0.52928 0.88944 0.0
H943 H 0.21126 0.53475 0.94902 0.0
H944 H 0.15049 0.52232 0.96135 0.0
H945 H 0.17272 0.45909 0.77017 0.0
H946 H 0.17758 0.45363 0.85323 0.0
H947 H 0.18915 0.47383 0.80694 0.0
C948 C 0.20378 0.48503 0.99342 0.0
C949 C 0.21198 0.50418 0.99081 0.0
C950 C 0.18854 0.48196 0.95981 0.0
C951 C 0.1813 0.49799 0.92301 0.0
C952 C 0.19027 0.51665 0.91722 0.0
H953 H 0.08745 0.50235 0.69703 0.0
H954 H 0.11839 0.50253 0.73125 0.0
C955 C 0.20542 0.51971 0.95075 0.0
C956 C 0.16313 0.49651 0.89788 0.0
H957 H 0.14032 0.46935 0.79142 0.0
C958 C 0.14833 0.51077 0.92399 0.0
C959 C 0.16026 0.4815 0.84896 0.0
C960 C 0.17578 0.46622 0.81761 0.0
C961 C 0.13076 0.51032 0.90324 0.0
C962 C 0.12775 0.49506 0.85542 0.0
C963 C 0.1426 0.48095 0.82842 0.0
C964 C 0.1092 0.49366 0.83335 0.0
C965 C 0.11555 0.52633 0.93223 0.0
C966 C 0.09378 0.48832 0.87904 0.0
C967 C 0.07609 0.48816 0.8597 0.0
C968 C 0.07339 0.49334 0.79408 0.0
C969 C 0.08897 0.49828 0.74795 0.0
C970 C 0.1067 0.49835 0.76736 0.0
H971 H 0.12115 0.53958 0.95697 0.0
H972 H 0.10781 0.53238 0.89242 0.0
H973 H 0.10551 0.51905 0.97042 0.0
H974 H 0.09541 0.48446 0.93005 0.0
H975 H 0.0645 0.4842 0.89659 0.0
H976 H 0.98109 0.7929 0.39203 0.0
H977 H 0.98113 0.82532 0.45706 0.0
H978 H 0.01986 0.79603 0.57404 0.0
H979 H 0.01995 0.76354 0.5081 0.0
H980 H 0.97416 0.83793 0.59435 0.0
H981 H 0.04845 0.84343 0.48356 0.0
H982 H 0.03394 0.82489 0.45295 0.0
H983 H 0.04333 0.82037 0.52935 0.0
C984 C 0.9891 0.79323 0.43319 0.0
C985 C 1.00034 0.77573 0.44575 0.0
C986 C 0.98922 0.81178 0.47004 0.0
C987 C 1.00076 0.81325 0.51963 0.0
C988 C 1.01107 0.79535 0.5353 0.0
H989 H 0.03372 0.92374 0.71745 0.0
H990 H 0.0293 0.88814 0.68354 0.0
C991 C 1.01093 0.77673 0.49837 0.0
C992 C 1.00306 0.83391 0.55037 0.0
H993 H 0.03465 0.87065 0.55701 0.0
C994 C 0.98741 0.84505 0.58656 0.0
C995 C 0.02033 0.84327 0.53986 0.0
C996 C 0.03747 0.83251 0.49888 0.0
C997 C 0.98858 0.86522 0.61265 0.0
C998 C 1.00577 0.8747 0.60108 0.0
C999 C 0.02148 0.86341 0.56589 0.0
C1000 C 1.00779 0.89644 0.62375 0.0
C1001 C 0.97142 0.87609 0.65297 0.0
C1002 C 0.99729 0.9131 0.60105 0.0
C1003 C 0.99976 0.93357 0.62045 0.0
C1004 C 0.01293 0.93786 0.6625 0.0
C1005 C 0.02347 0.92111 0.68492 0.0
C1006 C 0.02095 0.90068 0.66564 0.0
H1007 H 0.96121 0.86488 0.67374 0.0
H1008 H 0.97505 0.88556 0.69515 0.0
H1009 H 0.96454 0.88656 0.61983 0.0
H1010 H 0.98736 0.9103 0.5674 0.0
H1011 H 0.99145 0.94603 0.60197 0.0
H1012 H 0.71452 0.03818 0.35465 0.0
H1013 H 0.68622 0.03262 0.43178 0.0
H1014 H 0.70223 0.96725 0.43136 0.0
H1015 H 0.73045 0.97276 0.35107 0.0
H1016 H 0.6678 0.97216 0.4097 0.0
H1017 H 0.67281 0.02372 0.62615 0.0
H1018 H 0.67563 0.03815 0.55067 0.0
H1019 H 0.69249 0.01733 0.56159 0.0
C1020 C 0.71229 0.02267 0.37239 0.0
C1021 C 0.7248 0.00592 0.34675 0.0
C1022 C 0.69607 0.01951 0.41703 0.0
C1023 C 0.69199 0.99953 0.4386 0.0
C1024 C 0.705 0.98286 0.41592 0.0
H1025 H 0.58933 0.9891 0.72783 0.0
H1026 H 0.62192 0.98841 0.67501 0.0
C1027 C 0.72127 0.98603 0.37062 0.0
C1028 C 0.67336 0.99602 0.47878 0.0
H1029 H 0.64158 0.01561 0.61142 0.0
C1030 C 0.66222 0.98146 0.45444 0.0
C1031 C 0.66594 0.00782 0.53799 0.0
C1032 C 0.67746 0.02244 0.57095 0.0
C1033 C 0.6438 0.97902 0.48559 0.0
C1034 C 0.6359 0.99199 0.54164 0.0
C1035 C 0.64732 0.0059 0.56777 0.0
C1036 C 0.61588 0.99159 0.57349 0.0
C1037 C 0.63313 0.96235 0.45822 0.0
C1038 C 0.60136 0.99376 0.53466 0.0
C1039 C 0.58264 0.99386 0.56479 0.0
C1040 C 0.57788 0.99227 0.63484 0.0
C1041 C 0.5924 0.99035 0.67378 0.0
C1042 C 0.61112 0.98997 0.64352 0.0
H1043 H 0.6427 0.94954 0.43297 0.0
H1044 H 0.62325 0.95575 0.49856 0.0
H1045 H 0.62514 0.96907 0.42015 0.0
H1046 H 0.60446 0.99577 0.48096 0.0
H1047 H 0.57187 0.99569 0.53324 0.0
H1048 H 0.54879 0.69828 0.28219 0.0
H1049 H 0.55709 0.67191 0.36103 0.0
H1050 H 0.49879 0.66525 0.43079 0.0
H1051 H 0.49052 0.69149 0.35255 0.0
H1052 H 0.52273 0.66224 0.53477 0.0
H1053 H 0.54723 0.61112 0.30854 0.0
H1054 H 0.55748 0.63566 0.31249 0.0
H1055 H 0.5333 0.635 0.30436 0.0
C1056 C 0.53782 0.69169 0.31615 0.0
C1057 C 0.51903 0.69686 0.3114 0.0
C1058 C 0.54255 0.67652 0.36065 0.0
C1059 C 0.52854 0.66641 0.40103 0.0
C1060 C 0.50982 0.67282 0.40009 0.0
H1061 H 0.50699 0.54957 0.55745 0.0
H1062 H 0.51019 0.58248 0.50099 0.0
C1063 C 0.5051 0.68782 0.35549 0.0
C1064 C 0.53299 0.64758 0.43828 0.0
H1065 H 0.54566 0.59587 0.41368 0.0
C1066 C 0.52813 0.64781 0.50855 0.0
C1067 C 0.53978 0.6287 0.40374 0.0
C1068 C 0.54467 0.6274 0.3281 0.0
C1069 C 0.52939 0.62953 0.54493 0.0
C1070 C 0.53561 0.6106 0.51005 0.0
C1071 C 0.54104 0.61048 0.44017 0.0
C1072 C 0.5344 0.59045 0.54392 0.0
C1073 C 0.52315 0.63027 0.61994 0.0
C1074 C 0.54715 0.58388 0.58618 0.0
C1075 C 0.54547 0.56486 0.61839 0.0
C1076 C 0.53091 0.55223 0.60914 0.0
C1077 C 0.51834 0.55887 0.56602 0.0
C1078 C 0.52014 0.5777 0.53357 0.0
H1079 H 0.51786 0.64608 0.63924 0.0
H1080 H 0.512 0.61942 0.63318 0.0
H1081 H 0.53501 0.62515 0.64575 0.0
H1082 H 0.55832 0.59349 0.59446 0.0
H1083 H 0.55533 0.56028 0.65149 0.0
H1084 H 0.84549 0.49449 0.38726 0.0
H1085 H 0.8721 0.48655 0.44508 0.0
H1086 H 0.84039 0.51171 0.63064 0.0
H1087 H 0.81389 0.52037 0.57152 0.0
H1088 H 0.87177 0.52937 0.60645 0.0
H1089 H 0.88905 0.44527 0.56978 0.0
H1090 H 0.88751 0.45702 0.49078 0.0
H1091 H 0.8671 0.45719 0.55406 0.0
C1092 C 0.84391 0.49734 0.44112 0.0
C1093 C 0.82748 0.50754 0.47534 0.0
C1094 C 0.85919 0.49287 0.47427 0.0
C1095 C 0.85833 0.49828 0.5427 0.0
C1096 C 0.84143 0.50725 0.57799 0.0
H1097 H 0.95592 0.47178 0.74366 0.0
H1098 H 0.92509 0.47208 0.70931 0.0
C1099 C 0.82617 0.51191 0.54454 0.0
C1100 C 0.87567 0.49718 0.5744 0.0
H1101 H 0.91421 0.46592 0.5917 0.0
C1102 C 0.88088 0.51536 0.60407 0.0
C1103 C 0.88763 0.47895 0.57212 0.0
C1104 C 0.88242 0.45848 0.5456 0.0
C1105 C 0.89785 0.51602 0.62932 0.0
C1106 C 0.91035 0.49816 0.62302 0.0
C1107 C 0.90486 0.47976 0.5956 0.0
C1108 C 0.92916 0.49823 0.6444 0.0
C1109 C 0.90205 0.53585 0.6631 0.0
C1110 C 0.94194 0.51269 0.619 0.0
C1111 C 0.95956 0.51272 0.63921 0.0
C1112 C 0.96497 0.49803 0.68438 0.0
C1113 C 0.95227 0.48334 0.70884 0.0
C1114 C 0.9346 0.48347 0.68915 0.0
H1115 H 0.88907 0.54531 0.6833 0.0
H1116 H 0.91006 0.53269 0.70496 0.0
H1117 H 0.91042 0.54525 0.62568 0.0
H1118 H 0.93838 0.52387 0.58289 0.0
H1119 H 0.96902 0.52409 0.61868 0.0
loop_
_geom_bond_atom_site_label_1
_geom_bond_atom_site_label_2
_geom_bond_distance
_geom_bond_site_symmetry_2
_ccdc_geom_bond_type
H0 C5 0.930 . S
H1 C8 0.930 . S
H2 C10 0.930 . S
H3 C4 1.016 . S
C4 H3 1.016 . S
C4 N11 1.286 . S
C5 H0 0.930 . S
C5 C6 1.397 . S
C5 C7 1.361 . S
C6 C5 1.397 . S
C6 C10 1.390 . S
C7 C5 1.361 . S
C7 C8 1.393 . S
C7 N11 1.413 . S
C8 H1 0.930 . S
C8 C7 1.393 . S
C8 C9 1.399 . S
C9 C8 1.399 . S
C9 C10 1.381 . S
C10 H2 0.930 . S
C10 C6 1.390 . S
C10 C9 1.381 . S
N11 C4 1.286 . S
N11 C7 1.413 . S
H12 C17 0.930 . S
H13 C20 0.930 . S
H14 C22 0.930 . S
H15 C16 1.016 . S
C16 H15 1.016 . S
C16 N23 1.282 . S
C17 H12 0.930 . S
C17 C18 1.397 . S
C17 C19 1.361 . S
C18 C17 1.397 . S
C18 C22 1.390 . S
C19 C17 1.361 . S
C19 C20 1.393 . S
C19 N23 1.412 . S
C20 H13 0.930 . S
C20 C19 1.393 . S
C20 C21 1.399 . S
C21 C20 1.399 . S
C21 C22 1.381 . S
C22 H14 0.930 . S
C22 C18 1.390 . S
C22 C21 1.381 . S
N23 C16 1.282 . S
N23 C19 1.412 . S
H24 C29 0.930 . S
H25 C32 0.930 . S
H26 C34 0.930 . S
H27 C28 1.016 . S
C28 H27 1.016 . S
C28 N35 1.286 1_565 S
C29 H24 0.930 . S
C29 C30 1.396 . S
C29 C31 1.361 . S
C30 C29 1.396 . S
C30 C34 1.391 1_545 S
C31 C29 1.361 . S
C31 C32 1.393 . S
C31 N35 1.413 . S
C32 H25 0.930 . S
C32 C31 1.393 . S
C32 C33 1.394 1_545 S
C33 C32 1.394 1_565 S
C33 C34 1.384 . S
C34 H26 0.930 . S
C34 C30 1.391 1_565 S
C34 C33 1.384 . S
N35 C28 1.286 1_545 S
N35 C31 1.413 . S
H36 C41 0.930 . S
H37 C44 0.930 . S
H38 C46 0.930 . S
H39 C40 1.016 . S
C40 H39 1.016 . S
C40 N47 1.286 . S
C41 H36 0.930 . S
C41 C42 1.397 . S
C41 C43 1.361 . S
C42 C41 1.397 . S
C42 C46 1.390 . S
C43 C41 1.361 . S
C43 C44 1.393 . S
C43 N47 1.413 . S
C44 H37 0.930 . S
C44 C43 1.393 . S
C44 C45 1.399 . S
C45 C44 1.399 . S
C45 C46 1.381 . S
C46 H38 0.930 . S
C46 C42 1.390 . S
C46 C45 1.381 . S
N47 C40 1.286 . S
N47 C43 1.413 . S
H48 C53 0.930 . S
H49 C56 0.930 . S
H50 C58 0.930 . S
H51 C52 1.016 . S
C52 H51 1.016 . S
C52 N59 1.286 1_554 S
C53 H48 0.930 . S
C53 C54 1.397 . S
C53 C55 1.361 . S
C54 C53 1.397 . S
C54 C58 1.390 . S
C55 C53 1.361 . S
C55 C56 1.393 1_556 S
C55 N59 1.413 . S
C56 H49 0.930 . S
C56 C55 1.393 1_554 S
C56 C57 1.399 . S
C57 C56 1.399 . S
C57 C58 1.381 1_554 S
C58 H50 0.930 . S
C58 C54 1.390 . S
C58 C57 1.381 1_556 S
N59 C52 1.286 1_556 S
N59 C55 1.413 . S
H60 C65 0.930 . S
H61 C68 0.930 . S
H62 C70 0.930 . S
H63 C64 1.016 . S
C64 H63 1.016 . S
C64 N71 1.286 . S
C65 H60 0.930 . S
C65 C66 1.397 . S
C65 C67 1.361 . S
C66 C65 1.397 . S
C66 C70 1.390 . S
C67 C65 1.361 . S
C67 C68 1.393 . S
C67 N71 1.413 . S
C68 H61 0.930 . S
C68 C67 1.393 . S
C68 C69 1.399 . S
C69 C68 1.399 . S
C69 C70 1.381 . S
C70 H62 0.930 . S
C70 C66 1.390 . S
C70 C69 1.381 . S
N71 C64 1.286 . S
N71 C67 1.413 . S
H72 C77 0.930 . S
H73 C80 0.930 . S
H74 C82 0.930 . S
H75 C76 1.016 . S
C76 H75 1.016 . S
C76 N83 1.286 . S
C77 H72 0.930 . S
C77 C78 1.397 . S
C77 C79 1.361 . S
C78 C77 1.397 . S
C78 C82 1.390 . S
C79 C77 1.361 . S
C79 C80 1.393 . S
C79 N83 1.413 . S
C80 H73 0.930 . S
C80 C79 1.393 . S
C80 C81 1.399 . S
C81 C80 1.399 . S
C81 C82 1.381 . S
C82 H74 0.930 . S
C82 C78 1.390 . S
C82 C81 1.381 . S
N83 C76 1.286 . S
N83 C79 1.413 . S
H84 C89 0.930 . S
H85 C92 0.930 . S
H86 C94 0.930 . S
H87 C88 1.016 . S
C88 H87 1.016 . S
C88 N95 1.286 . S
C89 H84 0.930 . S
C89 C90 1.397 . S
C89 C91 1.361 . S
C90 C89 1.397 . S
C90 C94 1.390 . S
C91 C89 1.361 . S
C91 C92 1.393 . S
C91 N95 1.413 . S
C92 H85 0.930 . S
C92 C91 1.393 . S
C92 C93 1.399 . S
C93 C92 1.399 . S
C93 C94 1.381 . S
C94 H86 0.930 . S
C94 C90 1.390 . S
C94 C93 1.381 . S
N95 C88 1.286 . S
N95 C91 1.413 . S
Dy96 O99 2.307 1_545 S
Dy96 O101 2.395 1_655 S
Dy96 O102 2.379 . S
Dy96 O104 2.339 . S
Dy96 O106 2.298 1_655 S
Dy96 O110 2.275 1_655 S
Dy96 C118 2.738 . S
Dy97 O100 2.298 . S
Dy97 O103 2.273 1_465 S
Dy97 O105 2.307 1_565 S
Dy97 O107 2.395 . S
Dy97 O108 2.379 . S
Dy97 O111 2.339 . S
Dy97 C127 2.738 . S
C98 O110 1.265 . S
C98 O111 1.233 1_545 S
O99 Dy96 2.307 1_565 S
O99 C109 1.266 1_655 S
O100 Dy97 2.298 . S
O100 C109 1.236 . S
O101 Dy96 2.395 1_455 S
O101 C118 1.255 1_455 S
O102 Dy96 2.379 . S
O102 C118 1.249 . S
O103 Dy97 2.273 1_645 S
O103 C119 1.256 . S
O104 Dy96 2.339 . S
O104 C119 1.257 . S
O105 Dy97 2.307 1_545 S
O105 C120 1.266 . S
O106 Dy96 2.298 1_455 S
O106 C120 1.236 . S
O107 Dy97 2.395 . S
O107 C127 1.255 . S
O108 Dy97 2.379 . S
O108 C127 1.249 . S
C109 O99 1.266 1_455 S
C109 O100 1.236 . S
O110 Dy96 2.275 1_455 S
O110 C98 1.265 . S
O111 Dy97 2.339 . S
O111 C98 1.233 1_565 S
C112 C115 1.344 1_655 S
C112 C116 1.328 . S
C112 C118 1.516 . S
C113 C114 1.304 1_655 S
C113 C117 1.323 . S
C114 C113 1.304 1_455 S
C114 C115 1.371 . S
C114 H128 0.930 . S
C115 C112 1.344 1_455 S
C115 C114 1.371 . S
C115 H129 0.931 . S
C116 C112 1.328 . S
C116 C117 1.433 . S
C116 H130 0.931 . S
C117 C113 1.323 . S
C117 C116 1.433 . S
C117 H131 0.933 . S
C118 Dy96 2.738 . S
C118 O101 1.255 1_655 S
C118 O102 1.249 . S
C118 C112 1.516 . S
C119 O103 1.256 . S
C119 O104 1.257 . S
C120 O105 1.266 . S
C120 O106 1.236 . S
C121 C124 1.355 . S
C121 C125 1.328 . S
C121 C127 1.516 . S
C122 C123 1.310 . S
C122 C126 1.323 . S
C123 C122 1.310 . S
C123 C124 1.371 . S
C123 H132 0.925 1_455 S
C124 C121 1.355 . S
C124 C123 1.371 . S
C124 H133 0.920 1_455 S
C125 C121 1.328 . S
C125 C126 1.433 . S
C125 H134 0.931 . S
C126 C122 1.323 . S
C126 C125 1.433 . S
C126 H135 0.933 . S
C127 Dy97 2.738 . S
C127 O107 1.255 . S
C127 O108 1.249 . S
C127 C121 1.516 . S
H128 C114 0.930 . S
H129 C115 0.931 . S
H130 C116 0.931 . S
H131 C117 0.933 . S
H132 C123 0.925 1_655 S
H133 C124 0.920 1_655 S
H134 C125 0.931 . S
H135 C126 0.933 . S
Dy136 O139 2.307 . S
Dy136 O141 2.395 1_565 S
Dy136 O142 2.379 . S
Dy136 O144 2.339 . S
Dy136 O146 2.298 . S
Dy136 O150 2.275 1_565 S
Dy136 C158 2.738 . S
Dy137 O140 2.298 . S
Dy137 O143 2.275 1_545 S
Dy137 O145 2.307 . S
Dy137 O147 2.395 1_545 S
Dy137 O148 2.379 . S
Dy137 O151 2.339 . S
Dy137 C167 2.738 . S
C138 O150 1.254 . S
C138 O151 1.257 . S
O139 Dy136 2.307 . S
O139 C149 1.266 . S
O140 Dy137 2.298 . S
O140 C149 1.236 1_545 S
O141 Dy136 2.395 1_545 S
O141 C158 1.255 1_545 S
O142 Dy136 2.379 . S
O142 C158 1.249 . S
O143 Dy137 2.275 1_565 S
O143 C159 1.254 . S
O144 Dy136 2.339 . S
O144 C159 1.257 . S
O145 Dy137 2.307 . S
O145 C160 1.266 . S
O146 Dy136 2.298 . S
O146 C160 1.236 1_565 S
O147 Dy137 2.395 1_565 S
O147 C167 1.255 1_565 S
O148 Dy137 2.379 . S
O148 C167 1.249 . S
C149 O139 1.266 . S
C149 O140 1.236 1_565 S
O150 Dy136 2.275 1_545 S
O150 C138 1.254 . S
O151 Dy137 2.339 . S
O151 C138 1.257 . S
C152 C155 1.344 1_565 S
C152 C156 1.328 . S
C152 C158 1.516 . S
C153 C154 1.304 1_565 S
C153 C157 1.323 . S
C154 C153 1.304 1_545 S
C154 C155 1.371 . S
C154 H168 0.930 . S
C155 C152 1.344 1_545 S
C155 C154 1.371 . S
C155 H169 0.931 . S
C156 C152 1.328 . S
C156 C157 1.433 . S
C156 H170 0.931 . S
C157 C153 1.323 . S
C157 C156 1.433 . S
C157 H171 0.933 . S
C158 Dy136 2.738 . S
C158 O141 1.255 1_565 S
C158 O142 1.249 . S
C158 C152 1.516 . S
C159 O143 1.254 . S
C159 O144 1.257 . S
C160 O145 1.266 . S
C160 O146 1.236 1_545 S
C161 C164 1.302 1_545 S
C161 C165 1.328 . S
C161 C167 1.516 . S
C162 C163 1.291 1_545 S
C162 C166 1.323 . S
C163 C162 1.291 1_565 S
C163 C164 1.368 . S
C163 H172 0.943 . S
C164 C161 1.302 1_565 S
C164 C163 1.368 . S
C164 H173 0.978 . S
C165 C161 1.328 . S
C165 C166 1.433 . S
C165 H174 0.931 . S
C166 C162 1.323 . S
C166 C165 1.433 . S
C166 H175 0.933 . S
C167 Dy137 2.738 . S
C167 O147 1.255 1_545 S
C167 O148 1.249 . S
C167 C161 1.516 . S
H168 C154 0.930 . S
H169 C155 0.931 . S
H170 C156 0.931 . S
H171 C157 0.933 . S
H172 C163 0.943 . S
H173 C164 0.978 . S
H174 C165 0.931 . S
H175 C166 0.933 . S
Dy176 O179 2.307 . S
Dy176 O181 2.395 . S
Dy176 O182 2.379 . S
Dy176 O184 2.339 . S
Dy176 O186 2.298 . S
Dy176 O190 2.275 . S
Dy176 C198 2.738 . S
Dy177 O180 2.298 . S
Dy177 O183 2.275 . S
Dy177 O185 2.307 . S
Dy177 O187 2.395 . S
Dy177 O188 2.379 . S
Dy177 O191 2.339 . S
Dy177 C207 2.738 . S
C178 O190 1.254 . S
C178 O191 1.257 . S
O179 Dy176 2.307 . S
O179 C189 1.266 . S
O180 Dy177 2.298 . S
O180 C189 1.236 . S
O181 Dy176 2.395 . S
O181 C198 1.255 . S
O182 Dy176 2.379 . S
O182 C198 1.249 . S
O183 Dy177 2.275 . S
O183 C199 1.254 . S
O184 Dy176 2.339 . S
O184 C199 1.257 . S
O185 Dy177 2.307 . S
O185 C200 1.266 . S
O186 Dy176 2.298 . S
O186 C200 1.236 . S
O187 Dy177 2.395 . S
O187 C207 1.255 . S
O188 Dy177 2.379 . S
O188 C207 1.249 . S
C189 O179 1.266 . S
C189 O180 1.236 . S
O190 Dy176 2.275 . S
O190 C178 1.254 . S
O191 Dy177 2.339 . S
O191 C178 1.257 . S
C192 C195 1.344 . S
C192 C196 1.328 . S
C192 C198 1.516 . S
C193 C194 1.304 . S
C193 C197 1.323 . S
C194 C193 1.304 . S
C194 C195 1.371 . S
C194 H208 0.930 . S
C195 C192 1.344 . S
C195 C194 1.371 . S
C195 H209 0.931 . S
C196 C192 1.328 . S
C196 C197 1.433 . S
C196 H210 0.931 . S
C197 C193 1.323 . S
C197 C196 1.433 . S
C197 H211 0.933 . S
C198 Dy176 2.738 . S
C198 O181 1.255 . S
C198 O182 1.249 . S
C198 C192 1.516 . S
C199 O183 1.254 . S
C199 O184 1.257 . S
C200 O185 1.266 . S
C200 O186 1.236 . S
C201 C204 1.344 . S
C201 C205 1.328 . S
C201 C207 1.516 . S
C202 C203 1.304 . S
C202 C206 1.323 . S
C203 C202 1.304 . S
C203 C204 1.371 . S
C203 H212 0.930 . S
C204 C201 1.344 . S
C204 C203 1.371 . S
C204 H213 0.931 . S
C205 C201 1.328 . S
C205 C206 1.433 . S
C205 H214 0.931 . S
C206 C202 1.323 . S
C206 C205 1.433 . S
C206 H215 0.933 . S
C207 Dy177 2.738 . S
C207 O187 1.255 . S
C207 O188 1.249 . S
C207 C201 1.516 . S
H208 C194 0.930 . S
H209 C195 0.931 . S
H210 C196 0.931 . S
H211 C197 0.933 . S
H212 C203 0.930 . S
H213 C204 0.931 . S
H214 C205 0.931 . S
H215 C206 0.933 . S
Dy216 O219 2.307 1_455 S
Dy216 O221 2.395 . S
Dy216 O222 2.379 . S
Dy216 O224 2.339 . S
Dy216 O226 2.298 . S
Dy216 O230 2.275 . S
Dy216 C238 2.738 . S
Dy217 O220 2.298 . S
Dy217 O223 2.275 1_655 S
Dy217 O225 2.307 1_655 S
Dy217 O227 2.395 . S
Dy217 O228 2.379 . S
Dy217 O231 2.339 . S
Dy217 C247 2.738 . S
C218 O230 1.254 . S
C218 O231 1.257 1_455 S
O219 Dy216 2.307 1_655 S
O219 C229 1.266 . S
O220 Dy217 2.298 . S
O220 C229 1.236 . S
O221 Dy216 2.395 . S
O221 C238 1.255 . S
O222 Dy216 2.379 . S
O222 C238 1.249 . S
O223 Dy217 2.275 1_455 S
O223 C239 1.254 . S
O224 Dy216 2.339 . S
O224 C239 1.257 . S
O225 Dy217 2.307 1_455 S
O225 C240 1.266 . S
O226 Dy216 2.298 . S
O226 C240 1.236 . S
O227 Dy217 2.395 . S
O227 C247 1.255 . S
O228 Dy217 2.379 . S
O228 C247 1.249 . S
C229 O219 1.266 . S
C229 O220 1.236 . S
O230 Dy216 2.275 . S
O230 C218 1.254 . S
O231 Dy217 2.339 . S
O231 C218 1.257 1_655 S
C232 C235 1.344 . S
C232 C236 1.328 . S
C232 C238 1.516 . S
C233 C234 1.304 . S
C233 C237 1.323 . S
C234 C233 1.304 . S
C234 C235 1.371 . S
C234 H248 0.930 . S
C235 C232 1.344 . S
C235 C234 1.371 . S
C235 H249 0.931 . S
C236 C232 1.328 . S
C236 C237 1.433 . S
C236 H250 0.931 . S
C237 C233 1.323 . S
C237 C236 1.433 . S
C237 H251 0.933 . S
C238 Dy216 2.738 . S
C238 O221 1.255 . S
C238 O222 1.249 . S
C238 C232 1.516 . S
C239 O223 1.254 . S
C239 O224 1.257 . S
C240 O225 1.266 . S
C240 O226 1.236 . S
C241 C244 1.344 . S
C241 C245 1.328 . S
C241 C247 1.516 . S
C242 C243 1.304 1_554 S
C242 C246 1.323 1_554 S
C243 C242 1.304 1_556 S
C243 C244 1.371 . S
C243 H252 0.930 1_556 S
C244 C241 1.344 . S
C244 C243 1.371 . S
C244 H253 0.931 . S
C245 C241 1.328 . S
C245 C246 1.433 . S
C245 H254 0.931 . S
C246 C242 1.323 1_556 S
C246 C245 1.433 . S
C246 H255 0.933 1_556 S
C247 Dy217 2.738 . S
C247 O227 1.255 . S
C247 O228 1.249 . S
C247 C241 1.516 . S
H248 C234 0.930 . S
H249 C235 0.931 . S
H250 C236 0.931 . S
H251 C237 0.933 . S
H252 C243 0.930 1_554 S
H253 C244 0.931 . S
H254 C245 0.931 . S
H255 C246 0.933 1_554 S
H256 C264 0.929 . S
H257 C266 0.930 . S
H258 C268 0.930 . S
H259 C271 0.929 . S
H260 C274 0.930 . S
H261 C276 0.960 . S
H262 C276 0.960 . S
H263 C276 0.960 . S
C264 H256 0.929 . S
C264 C265 1.377 1_565 S
C264 C266 1.384 . S
C265 C264 1.377 1_545 S
C265 C271 1.390 . S
C266 H257 0.930 . S
C266 C264 1.384 . S
C266 C267 1.372 1_565 S
C267 C266 1.372 1_545 S
C267 C268 1.400 . S
C267 C272 1.490 . S
C268 H258 0.930 . S
C268 C267 1.400 . S
C268 C271 1.386 . S
H269 C285 0.930 . S
H270 C286 0.931 . S
C271 H259 0.929 . S
C271 C265 1.390 . S
C271 C268 1.386 . S
C272 C267 1.490 . S
C272 C274 1.395 1_545 S
C272 C275 1.403 . S
H273 C279 0.930 . S
C274 H260 0.930 . S
C274 C272 1.395 1_565 S
C274 C277 1.403 . S
C275 C272 1.403 . S
C275 C276 1.524 . S
C275 C279 1.400 . S
C276 H261 0.960 . S
C276 H262 0.960 . S
C276 H263 0.960 . S
C276 C275 1.524 . S
C277 C274 1.403 . S
C277 C278 1.392 1_565 S
C277 C281 1.495 . S
C278 C277 1.392 1_545 S
C278 C279 1.385 . S
C278 C280 1.478 . S
C279 H273 0.930 . S
C279 C275 1.400 . S
C279 C278 1.385 . S
C280 C278 1.478 . S
C280 C282 1.381 1_545 S
C280 C286 1.383 . S
C281 C277 1.495 . S
C281 H287 0.959 . S
C281 H288 0.961 . S
C281 H289 0.960 . S
C282 C280 1.381 1_565 S
C282 C283 1.394 . S
C282 H290 0.930 . S
C283 C282 1.394 . S
C283 C284 1.383 1_565 S
C283 H291 0.929 . S
C284 C283 1.383 1_545 S
C284 C285 1.377 . S
C285 H269 0.930 . S
C285 C284 1.377 . S
C285 C286 1.379 . S
C286 H270 0.931 . S
C286 C280 1.383 . S
C286 C285 1.379 . S
H287 C281 0.959 . S
H288 C281 0.961 . S
H289 C281 0.960 . S
H290 C282 0.930 . S
H291 C283 0.929 . S
H292 C300 0.929 . S
H293 C302 0.930 . S
H294 C304 0.930 . S
H295 C307 0.929 . S
H296 C310 0.930 . S
H297 C312 0.960 . S
H298 C312 0.960 . S
H299 C312 0.960 . S
C300 H292 0.929 . S
C300 C301 1.377 . S
C300 C302 1.384 . S
C301 C300 1.377 . S
C301 C307 1.390 . S
C302 H293 0.930 . S
C302 C300 1.384 . S
C302 C303 1.372 . S
C303 C302 1.372 . S
C303 C304 1.400 . S
C303 C308 1.490 . S
C304 H294 0.930 . S
C304 C303 1.400 . S
C304 C307 1.386 . S
H305 C321 0.930 . S
H306 C322 0.931 . S
C307 H295 0.929 . S
C307 C301 1.390 . S
C307 C304 1.386 . S
C308 C303 1.490 . S
C308 C310 1.395 . S
C308 C311 1.403 . S
H309 C315 0.930 . S
C310 H296 0.930 . S
C310 C308 1.395 . S
C310 C313 1.403 . S
C311 C308 1.403 . S
C311 C312 1.524 . S
C311 C315 1.400 . S
C312 H297 0.960 . S
C312 H298 0.960 . S
C312 H299 0.960 . S
C312 C311 1.524 . S
C313 C310 1.403 . S
C313 C314 1.392 . S
C313 C317 1.495 . S
C314 C313 1.392 . S
C314 C315 1.385 . S
C314 C316 1.478 . S
C315 H309 0.930 . S
C315 C311 1.400 . S
C315 C314 1.385 . S
C316 C314 1.478 . S
C316 C318 1.381 . S
C316 C322 1.383 . S
C317 C313 1.495 . S
C317 H323 0.959 . S
C317 H324 0.961 . S
C317 H325 0.960 . S
C318 C316 1.381 . S
C318 C319 1.394 . S
C318 H326 0.930 . S
C319 C318 1.394 . S
C319 C320 1.383 . S
C319 H327 0.929 . S
C320 C319 1.383 . S
C320 C321 1.377 . S
C321 H305 0.930 . S
C321 C320 1.377 . S
C321 C322 1.379 . S
C322 H306 0.931 . S
C322 C316 1.383 . S
C322 C321 1.379 . S
H323 C317 0.959 . S
H324 C317 0.961 . S
H325 C317 0.960 . S
H326 C318 0.930 . S
H327 C319 0.929 . S
H328 C336 0.929 . S
H329 C338 0.930 . S
H330 C340 0.930 . S
H331 C343 0.929 . S
H332 C346 0.930 . S
H333 C348 0.960 . S
H334 C348 0.960 . S
H335 C348 0.960 . S
C336 H328 0.929 . S
C336 C337 1.377 . S
C336 C338 1.384 . S
C337 C336 1.377 . S
C337 C343 1.390 . S
C338 H329 0.930 . S
C338 C336 1.384 . S
C338 C339 1.372 . S
C339 C338 1.372 . S
C339 C340 1.400 . S
C339 C344 1.490 . S
C340 H330 0.930 . S
C340 C339 1.400 . S
C340 C343 1.386 . S
H341 C357 0.930 . S
H342 C358 0.931 . S
C343 H331 0.929 . S
C343 C337 1.390 . S
C343 C340 1.386 . S
C344 C339 1.490 . S
C344 C346 1.395 . S
C344 C347 1.403 . S
H345 C351 0.930 . S
C346 H332 0.930 . S
C346 C344 1.395 . S
C346 C349 1.403 . S
C347 C344 1.403 . S
C347 C348 1.524 . S
C347 C351 1.400 . S
C348 H333 0.960 . S
C348 H334 0.960 . S
C348 H335 0.960 . S
C348 C347 1.524 . S
C349 C346 1.403 . S
C349 C350 1.392 . S
C349 C353 1.495 . S
C350 C349 1.392 . S
C350 C351 1.385 . S
C350 C352 1.478 . S
C351 H345 0.930 . S
C351 C347 1.400 . S
C351 C350 1.385 . S
C352 C350 1.478 . S
C352 C354 1.381 . S
C352 C358 1.383 . S
C353 C349 1.495 . S
C353 H359 0.959 . S
C353 H360 0.961 . S
C353 H361 0.960 . S
C354 C352 1.381 . S
C354 C355 1.394 . S
C354 H362 0.930 . S
C355 C354 1.394 . S
C355 C356 1.383 . S
C355 H363 0.929 . S
C356 C355 1.383 . S
C356 C357 1.377 . S
C357 H341 0.930 . S
C357 C356 1.377 . S
C357 C358 1.379 . S
C358 H342 0.931 . S
C358 C352 1.383 . S
C358 C357 1.379 . S
H359 C353 0.959 . S
H360 C353 0.961 . S
H361 C353 0.960 . S
H362 C354 0.930 . S
H363 C355 0.929 . S
H364 C372 0.929 . S
H365 C374 0.930 . S
H366 C376 0.930 1_655 S
H367 C379 0.929 1_655 S
H368 C382 0.930 . S
H369 C384 0.960 . S
H370 C384 0.960 . S
H371 C384 0.960 . S
C372 H364 0.929 . S
C372 C373 1.377 . S
C372 C374 1.384 . S
C373 C372 1.377 . S
C373 C379 1.390 . S
C374 H365 0.930 . S
C374 C372 1.384 . S
C374 C375 1.372 . S
C375 C374 1.372 . S
C375 C376 1.400 . S
C375 C380 1.490 . S
C376 H366 0.930 1_455 S
C376 C375 1.400 . S
C376 C379 1.386 . S
H377 C393 0.890 1_655 S
H378 C394 0.931 1_655 S
C379 H367 0.929 1_455 S
C379 C373 1.390 . S
C379 C376 1.386 . S
C380 C375 1.490 . S
C380 C382 1.395 . S
C380 C383 1.403 . S
H381 C387 0.930 1_655 S
C382 H368 0.930 . S
C382 C380 1.395 . S
C382 C385 1.403 . S
C383 C380 1.403 . S
C383 C384 1.524 1_455 S
C383 C387 1.400 . S
C384 H369 0.960 . S
C384 H370 0.960 . S
C384 H371 0.960 . S
C384 C383 1.524 1_655 S
C385 C382 1.403 . S
C385 C386 1.392 . S
C385 C389 1.495 . S
C386 C385 1.392 . S
C386 C387 1.385 . S
C386 C388 1.478 . S
C387 H381 0.930 1_455 S
C387 C383 1.400 . S
C387 C386 1.385 . S
C388 C386 1.478 . S
C388 C390 1.381 . S
C388 C394 1.383 . S
C389 C385 1.495 . S
C389 H395 0.959 . S
C389 H396 0.961 . S
C389 H397 0.960 . S
C390 C388 1.381 . S
C390 C391 1.394 . S
C390 H398 0.930 . S
C391 C390 1.394 . S
C391 C392 1.383 . S
C391 H399 0.929 . S
C392 C391 1.383 . S
C392 C393 1.420 . S
C393 H377 0.890 1_455 S
C393 C392 1.420 . S
C393 C394 1.379 . S
C394 H378 0.931 1_455 S
C394 C388 1.383 . S
C394 C393 1.379 . S
H395 C389 0.959 . S
H396 C389 0.961 . S
H397 C389 0.960 . S
H398 C390 0.930 . S
H399 C391 0.929 . S
H400 C408 0.929 . S
H401 C410 0.930 . S
H402 C412 0.930 . S
H403 C415 0.929 . S
H404 C418 0.930 . S
H405 C420 0.960 . S
H406 C420 0.960 . S
H407 C420 0.960 . S
C408 H400 0.929 . S
C408 C409 1.357 1_545 S
C408 C410 1.384 . S
C409 C408 1.357 1_565 S
C409 C415 1.408 . S
C410 H401 0.930 . S
C410 C408 1.384 . S
C410 C411 1.372 . S
C411 C410 1.372 . S
C411 C412 1.400 1_545 S
C411 C416 1.490 . S
C412 H402 0.930 . S
C412 C411 1.400 1_565 S
C412 C415 1.386 . S
H413 C429 0.930 . S
H414 C430 0.931 . S
C415 H403 0.929 . S
C415 C409 1.408 . S
C415 C412 1.386 . S
C416 C411 1.490 . S
C416 C418 1.395 . S
C416 C419 1.403 1_544 S
H417 C423 0.930 . S
C418 H404 0.930 . S
C418 C416 1.395 . S
C418 C421 1.403 . S
C419 C416 1.403 1_566 S
C419 C420 1.524 . S
C419 C423 1.400 . S
C420 H405 0.960 . S
C420 H406 0.960 . S
C420 H407 0.960 . S
C420 C419 1.524 . S
C421 C418 1.403 . S
C421 C422 1.392 1_554 S
C421 C425 1.495 . S
C422 C421 1.392 1_556 S
C422 C423 1.385 1_545 S
C422 C424 1.478 . S
C423 H417 0.930 . S
C423 C419 1.400 . S
C423 C422 1.385 1_565 S
C424 C422 1.478 . S
C424 C426 1.381 . S
C424 C430 1.383 1_545 S
C425 C421 1.495 . S
C425 H431 0.959 . S
C425 H432 0.961 . S
C425 H433 0.960 . S
C426 C424 1.381 . S
C426 C427 1.394 . S
C426 H434 0.930 . S
C427 C426 1.394 . S
C427 C428 1.383 . S
C427 H435 0.929 . S
C428 C427 1.383 . S
C428 C429 1.377 1_545 S
C429 H413 0.930 . S
C429 C428 1.377 1_565 S
C429 C430 1.379 . S
C430 H414 0.931 . S
C430 C424 1.383 1_565 S
C430 C429 1.379 . S
H431 C425 0.959 . S
H432 C425 0.961 . S
H433 C425 0.960 . S
H434 C426 0.930 . S
H435 C427 0.929 . S
H436 C444 0.929 . S
H437 C446 0.930 . S
H438 C448 0.930 . S
H439 C451 0.929 1_556 S
H440 C454 0.930 1_554 S
H441 C456 0.960 . S
H442 C456 0.960 . S
H443 C456 0.960 . S
C444 H436 0.929 . S
C444 C445 1.377 . S
C444 C446 1.384 . S
C445 C444 1.377 . S
C445 C451 1.390 . S
C446 H437 0.930 . S
C446 C444 1.384 . S
C446 C447 1.372 1_554 S
C447 C446 1.372 1_556 S
C447 C448 1.400 . S
C447 C452 1.490 . S
C448 H438 0.930 . S
C448 C447 1.400 . S
C448 C451 1.386 1_556 S
H449 C465 0.930 . S
H450 C466 0.931 . S
C451 H439 0.929 1_554 S
C451 C445 1.390 . S
C451 C448 1.386 1_554 S
C452 C447 1.490 . S
C452 C454 1.395 . S
C452 C455 1.403 . S
H453 C459 0.930 . S
C454 H440 0.930 1_556 S
C454 C452 1.395 . S
C454 C457 1.403 . S
C455 C452 1.403 . S
C455 C456 1.524 . S
C455 C459 1.400 . S
C456 H441 0.960 . S
C456 H442 0.960 . S
C456 H443 0.960 . S
C456 C455 1.524 . S
C457 C454 1.403 . S
C457 C458 1.392 . S
C457 C461 1.495 1_556 S
C458 C457 1.392 . S
C458 C459 1.385 . S
C458 C460 1.478 . S
C459 H453 0.930 . S
C459 C455 1.400 . S
C459 C458 1.385 . S
C460 C458 1.478 . S
C460 C462 1.381 . S
C460 C466 1.383 . S
C461 C457 1.495 1_554 S
C461 H467 0.959 . S
C461 H468 0.961 . S
C461 H469 0.960 . S
C462 C460 1.381 . S
C462 C463 1.394 . S
C462 H470 0.930 . S
C463 C462 1.394 . S
C463 C464 1.383 . S
C463 H471 0.929 . S
C464 C463 1.383 . S
C464 C465 1.377 . S
C465 H449 0.930 . S
C465 C464 1.377 . S
C465 C466 1.379 . S
C466 H450 0.931 . S
C466 C460 1.383 . S
C466 C465 1.379 . S
H467 C461 0.959 . S
H468 C461 0.961 . S
H469 C461 0.960 . S
H470 C462 0.930 . S
H471 C463 0.929 . S
H472 C480 0.929 . S
H473 C482 0.930 . S
H474 C484 0.930 . S
H475 C487 0.929 . S
H476 C490 0.930 . S
H477 C492 0.960 . S
H478 C492 0.960 . S
H479 C492 0.960 . S
C480 H472 0.929 . S
C480 C481 1.377 . S
C480 C482 1.384 . S
C481 C480 1.377 . S
C481 C487 1.390 . S
C482 H473 0.930 . S
C482 C480 1.384 . S
C482 C483 1.372 . S
C483 C482 1.372 . S
C483 C484 1.400 . S
C483 C488 1.490 . S
C484 H474 0.930 . S
C484 C483 1.400 . S
C484 C487 1.386 . S
H485 C501 0.930 . S
H486 C502 0.931 . S
C487 H475 0.929 . S
C487 C481 1.390 . S
C487 C484 1.386 . S
C488 C483 1.490 . S
C488 C490 1.395 . S
C488 C491 1.403 . S
H489 C495 0.930 . S
C490 H476 0.930 . S
C490 C488 1.395 . S
C490 C493 1.403 . S
C491 C488 1.403 . S
C491 C492 1.524 . S
C491 C495 1.400 . S
C492 H477 0.960 . S
C492 H478 0.960 . S
C492 H479 0.960 . S
C492 C491 1.524 . S
C493 C490 1.403 . S
C493 C494 1.392 . S
C493 C497 1.495 . S
C494 C493 1.392 . S
C494 C495 1.385 . S
C494 C496 1.478 . S
C495 H489 0.930 . S
C495 C491 1.400 . S
C495 C494 1.385 . S
C496 C494 1.478 . S
C496 C498 1.381 . S
C496 C502 1.383 . S
C497 C493 1.495 . S
C497 H503 0.959 . S
C497 H504 0.961 . S
C497 H505 0.960 . S
C498 C496 1.381 . S
C498 C499 1.394 1_554 S
C498 H506 0.930 . S
C499 C498 1.394 1_556 S
C499 C500 1.383 . S
C499 H507 0.929 . S
C500 C499 1.383 . S
C500 C501 1.377 1_556 S
C501 H485 0.930 . S
C501 C500 1.377 1_554 S
C501 C502 1.379 . S
C502 H486 0.931 . S
C502 C496 1.383 . S
C502 C501 1.379 . S
H503 C497 0.959 . S
H504 C497 0.961 . S
H505 C497 0.960 . S
H506 C498 0.930 . S
H507 C499 0.929 . S
H508 C516 0.929 . S
H509 C518 0.930 . S
H510 C520 0.930 . S
H511 C523 0.929 . S
H512 C526 0.930 . S
H513 C528 0.960 . S
H514 C528 0.960 . S
H515 C528 0.960 . S
C516 H508 0.929 . S
C516 C517 1.377 . S
C516 C518 1.384 . S
C517 C516 1.377 . S
C517 C523 1.390 1_655 S
C518 H509 0.930 . S
C518 C516 1.384 . S
C518 C519 1.372 . S
C519 C518 1.372 . S
C519 C520 1.400 1_655 S
C519 C524 1.490 . S
C520 H510 0.930 . S
C520 C519 1.400 1_455 S
C520 C523 1.386 . S
H521 C537 0.930 . S
H522 C538 0.931 . S
C523 H511 0.929 . S
C523 C517 1.390 1_455 S
C523 C520 1.386 . S
C524 C519 1.490 . S
C524 C526 1.395 . S
C524 C527 1.403 1_655 S
H525 C531 0.930 . S
C526 H512 0.930 . S
C526 C524 1.395 . S
C526 C529 1.403 . S
C527 C524 1.403 1_455 S
C527 C528 1.524 . S
C527 C531 1.400 . S
C528 H513 0.960 . S
C528 H514 0.960 . S
C528 H515 0.960 . S
C528 C527 1.524 . S
C529 C526 1.403 . S
C529 C530 1.392 1_554 S
C529 C533 1.495 1_554 S
C530 C529 1.392 1_556 S
C530 C531 1.385 1_656 S
C530 C532 1.478 . S
C531 H525 0.930 . S
C531 C527 1.400 . S
C531 C530 1.385 1_454 S
C532 C530 1.478 . S
C532 C534 1.381 . S
C532 C538 1.383 1_655 S
C533 C529 1.495 1_556 S
C533 H539 0.959 . S
C533 H540 0.961 . S
C533 H541 0.960 . S
C534 C532 1.381 . S
C534 C535 1.394 . S
C534 H542 0.930 . S
C535 C534 1.394 . S
C535 C536 1.383 1_655 S
C535 H543 0.929 . S
C536 C535 1.383 1_455 S
C536 C537 1.377 . S
C537 H521 0.930 . S
C537 C536 1.377 . S
C537 C538 1.379 . S
C538 H522 0.931 . S
C538 C532 1.383 1_455 S
C538 C537 1.379 . S
H539 C533 0.959 . S
H540 C533 0.961 . S
H541 C533 0.960 . S
H542 C534 0.930 . S
H543 C535 0.929 . S
H544 C552 0.929 . S
H545 C554 0.930 . S
H546 C556 0.930 1_655 S
H547 C559 0.929 1_655 S
H548 C562 0.930 . S
H549 C564 0.960 . S
H550 C564 0.960 . S
H551 C564 0.960 . S
C552 H544 0.929 . S
C552 C553 1.377 . S
C552 C554 1.384 . S
C553 C552 1.377 . S
C553 C559 1.390 . S
C554 H545 0.930 . S
C554 C552 1.384 . S
C554 C555 1.372 . S
C555 C554 1.372 . S
C555 C556 1.400 . S
C555 C560 1.490 . S
C556 H546 0.930 1_455 S
C556 C555 1.400 . S
C556 C559 1.386 . S
H557 C573 0.930 . S
H558 C574 0.931 . S
C559 H547 0.929 1_455 S
C559 C553 1.390 . S
C559 C556 1.386 . S
C560 C555 1.490 . S
C560 C562 1.395 . S
C560 C563 1.403 1_455 S
H561 C567 0.930 . S
C562 H548 0.930 . S
C562 C560 1.395 . S
C562 C565 1.403 . S
C563 C560 1.403 1_655 S
C563 C564 1.524 . S
C563 C567 1.400 . S
C564 H549 0.960 . S
C564 H550 0.960 . S
C564 H551 0.960 . S
C564 C563 1.524 . S
C565 C562 1.403 . S
C565 C566 1.392 . S
C565 C569 1.495 . S
C566 C565 1.392 . S
C566 C567 1.385 1_455 S
C566 C568 1.478 . S
C567 H561 0.930 . S
C567 C563 1.400 . S
C567 C566 1.385 1_655 S
C568 C566 1.478 . S
C568 C570 1.381 . S
C568 C574 1.383 1_455 S
C569 C565 1.495 . S
C569 H575 0.959 . S
C569 H576 0.961 . S
C569 H577 0.960 . S
C570 C568 1.381 . S
C570 C571 1.394 . S
C570 H578 0.930 . S
C571 C570 1.394 . S
C571 C572 1.383 1_455 S
C571 H579 0.929 . S
C572 C571 1.383 1_655 S
C572 C573 1.377 . S
C573 H557 0.930 . S
C573 C572 1.377 . S
C573 C574 1.379 . S
C574 H558 0.931 . S
C574 C568 1.383 1_655 S
C574 C573 1.379 . S
H575 C569 0.959 . S
H576 C569 0.961 . S
H577 C569 0.960 . S
H578 C570 0.930 . S
H579 C571 0.929 . S
H580 C588 0.929 . S
H581 C590 0.930 1_565 S
H582 C592 0.930 . S
H583 C595 0.929 . S
H584 C598 0.930 . S
H585 C600 0.960 . S
H586 C600 0.960 . S
H587 C600 0.960 . S
C588 H580 0.929 . S
C588 C589 1.377 . S
C588 C590 1.384 . S
C589 C588 1.377 . S
C589 C595 1.390 . S
C590 H581 0.930 1_545 S
C590 C588 1.384 . S
C590 C591 1.372 . S
C591 C590 1.372 . S
C591 C592 1.400 . S
C591 C596 1.486 1_545 S
C592 H582 0.930 . S
C592 C591 1.400 . S
C592 C595 1.386 . S
H593 C609 0.930 . S
H594 C610 0.931 . S
C595 H583 0.929 . S
C595 C589 1.390 . S
C595 C592 1.386 . S
C596 C591 1.486 1_565 S
C596 C598 1.436 . S
C596 C599 1.367 1_565 S
H597 C603 0.930 . S
C598 H584 0.930 . S
C598 C596 1.436 . S
C598 C601 1.403 . S
C599 C596 1.367 1_545 S
C599 C600 1.524 . S
C599 C603 1.400 . S
C600 H585 0.960 . S
C600 H586 0.960 . S
C600 H587 0.960 . S
C600 C599 1.524 . S
C601 C598 1.403 . S
C601 C602 1.392 . S
C601 C605 1.495 . S
C602 C601 1.392 . S
C602 C603 1.385 1_565 S
C602 C604 1.478 . S
C603 H597 0.930 . S
C603 C599 1.400 . S
C603 C602 1.385 1_545 S
C604 C602 1.478 . S
C604 C606 1.381 . S
C604 C610 1.383 . S
C605 C601 1.495 . S
C605 H611 0.959 . S
C605 H612 0.961 . S
C605 H613 0.960 . S
C606 C604 1.381 . S
C606 C607 1.394 . S
C606 H614 0.930 . S
C607 C606 1.394 . S
C607 C608 1.383 . S
C607 H615 0.929 . S
C608 C607 1.383 . S
C608 C609 1.377 . S
C609 H593 0.930 . S
C609 C608 1.377 . S
C609 C610 1.379 . S
C610 H594 0.931 . S
C610 C604 1.383 . S
C610 C609 1.379 . S
H611 C605 0.959 . S
H612 C605 0.961 . S
H613 C605 0.960 . S
H614 C606 0.930 . S
H615 C607 0.929 . S
H616 C624 0.929 . S
H617 C626 0.930 . S
H618 C628 0.930 . S
H619 C631 0.929 . S
H620 C634 0.930 . S
H621 C636 0.960 . S
H622 C636 0.960 . S
H623 C636 0.960 . S
C624 H616 0.929 . S
C624 C625 1.377 . S
C624 C626 1.384 . S
C625 C624 1.377 . S
C625 C631 1.390 . S
C626 H617 0.930 . S
C626 C624 1.384 . S
C626 C627 1.372 . S
C627 C626 1.372 . S
C627 C628 1.400 . S
C627 C632 1.490 . S
C628 H618 0.930 . S
C628 C627 1.400 . S
C628 C631 1.386 . S
H629 C645 0.930 . S
H630 C646 0.931 . S
C631 H619 0.929 . S
C631 C625 1.390 . S
C631 C628 1.386 . S
C632 C627 1.490 . S
C632 C634 1.395 . S
C632 C635 1.403 . S
H633 C639 0.930 . S
C634 H620 0.930 . S
C634 C632 1.395 . S
C634 C637 1.403 . S
C635 C632 1.403 . S
C635 C636 1.524 . S
C635 C639 1.400 . S
C636 H621 0.960 . S
C636 H622 0.960 . S
C636 H623 0.960 . S
C636 C635 1.524 . S
C637 C634 1.403 . S
C637 C638 1.392 . S
C637 C641 1.495 . S
C638 C637 1.392 . S
C638 C639 1.385 . S
C638 C640 1.478 . S
C639 H633 0.930 . S
C639 C635 1.400 . S
C639 C638 1.385 . S
C640 C638 1.478 . S
C640 C642 1.381 . S
C640 C646 1.383 . S
C641 C637 1.495 . S
C641 H647 0.959 . S
C641 H648 0.961 . S
C641 H649 0.960 . S
C642 C640 1.381 . S
C642 C643 1.394 . S
C642 H650 0.930 . S
C643 C642 1.394 . S
C643 C644 1.383 . S
C643 H651 0.929 . S
C644 C643 1.383 . S
C644 C645 1.377 . S
C645 H629 0.930 . S
C645 C644 1.377 . S
C645 C646 1.379 . S
C646 H630 0.931 . S
C646 C640 1.383 . S
C646 C645 1.379 . S
H647 C641 0.959 . S
H648 C641 0.961 . S
H649 C641 0.960 . S
H650 C642 0.930 . S
H651 C643 0.929 . S
H652 C660 0.929 . S
H653 C662 0.930 . S
H654 C664 0.930 . S
H655 C667 0.929 1_556 S
H656 C670 0.930 . S
H657 C672 0.960 . S
H658 C672 0.960 . S
H659 C672 0.960 . S
C660 H652 0.929 . S
C660 C661 1.377 . S
C660 C662 1.384 . S
C661 C660 1.377 . S
C661 C667 1.390 . S
C662 H653 0.930 . S
C662 C660 1.384 . S
C662 C663 1.372 . S
C663 C662 1.372 . S
C663 C664 1.400 . S
C663 C668 1.490 . S
C664 H654 0.930 . S
C664 C663 1.400 . S
C664 C667 1.386 . S
H665 C681 0.930 . S
H666 C682 0.931 . S
C667 H655 0.929 1_554 S
C667 C661 1.390 . S
C667 C664 1.386 . S
C668 C663 1.490 . S
C668 C670 1.395 . S
C668 C671 1.403 . S
H669 C675 0.930 . S
C670 H656 0.930 . S
C670 C668 1.395 . S
C670 C673 1.403 . S
C671 C668 1.403 . S
C671 C672 1.524 . S
C671 C675 1.400 . S
C672 H657 0.960 . S
C672 H658 0.960 . S
C672 H659 0.960 . S
C672 C671 1.524 . S
C673 C670 1.403 . S
C673 C674 1.392 . S
C673 C677 1.495 . S
C674 C673 1.392 . S
C674 C675 1.385 . S
C674 C676 1.478 . S
C675 H669 0.930 . S
C675 C671 1.400 . S
C675 C674 1.385 . S
C676 C674 1.478 . S
C676 C678 1.381 . S
C676 C682 1.383 . S
C677 C673 1.495 . S
C677 H683 0.959 . S
C677 H684 0.961 . S
C677 H685 0.960 . S
C678 C676 1.381 . S
C678 C679 1.394 . S
C678 H686 0.930 . S
C679 C678 1.394 . S
C679 C680 1.383 . S
C679 H687 0.929 . S
C680 C679 1.383 . S
C680 C681 1.377 . S
C681 H665 0.930 . S
C681 C680 1.377 . S
C681 C682 1.379 . S
C682 H666 0.931 . S
C682 C676 1.383 . S
C682 C681 1.379 . S
H683 C677 0.959 . S
H684 C677 0.961 . S
H685 C677 0.960 . S
H686 C678 0.930 . S
H687 C679 0.929 . S
H688 C696 0.929 . S
H689 C698 0.930 . S
H690 C700 0.930 . S
H691 C703 0.929 . S
H692 C706 0.930 . S
H693 C708 0.960 . S
H694 C708 0.960 . S
H695 C708 0.960 . S
C696 H688 0.929 . S
C696 C697 1.377 . S
C696 C698 1.384 . S
C697 C696 1.377 . S
C697 C703 1.390 1_655 S
C698 H689 0.930 . S
C698 C696 1.384 . S
C698 C699 1.372 . S
C699 C698 1.372 . S
C699 C700 1.400 1_655 S
C699 C704 1.490 1_655 S
C700 H690 0.930 . S
C700 C699 1.400 1_455 S
C700 C703 1.386 . S
H701 C717 0.930 . S
H702 C718 0.931 . S
C703 H691 0.929 . S
C703 C697 1.390 1_455 S
C703 C700 1.386 . S
C704 C699 1.490 1_455 S
C704 C706 1.397 1_455 S
C704 C707 1.400 . S
H705 C711 0.930 . S
C706 H692 0.930 . S
C706 C704 1.397 1_655 S
C706 C709 1.403 . S
C707 C704 1.400 . S
C707 C708 1.524 . S
C707 C711 1.400 . S
C708 H693 0.960 . S
C708 H694 0.960 . S
C708 H695 0.960 . S
C708 C707 1.524 . S
C709 C706 1.403 . S
C709 C710 1.392 1_655 S
C709 C713 1.495 . S
C710 C709 1.392 1_455 S
C710 C711 1.385 . S
C710 C712 1.478 . S
C711 H705 0.930 . S
C711 C707 1.400 . S
C711 C710 1.385 . S
C712 C710 1.478 . S
C712 C714 1.389 . S
C712 C718 1.383 . S
C713 C709 1.495 . S
C713 H719 0.959 . S
C713 H720 0.961 . S
C713 H721 0.960 . S
C714 C712 1.389 . S
C714 C715 1.398 1_554 S
C714 H722 0.918 1_454 S
C715 C714 1.398 1_556 S
C715 C716 1.383 . S
C715 H723 0.928 1_455 S
C716 C715 1.383 . S
C716 C717 1.377 1_556 S
C717 H701 0.930 . S
C717 C716 1.377 1_554 S
C717 C718 1.379 . S
C718 H702 0.931 . S
C718 C712 1.383 . S
C718 C717 1.379 . S
H719 C713 0.959 . S
H720 C713 0.961 . S
H721 C713 0.960 . S
H722 C714 0.918 1_656 S
H723 C715 0.928 1_655 S
H724 C732 0.929 . S
H725 C734 0.930 . S
H726 C736 0.930 . S
H727 C739 0.929 . S
H728 C742 0.930 . S
H729 C744 0.960 . S
H730 C744 0.960 . S
H731 C744 0.960 . S
C732 H724 0.929 . S
C732 C733 1.377 1_545 S
C732 C734 1.384 . S
C733 C732 1.377 1_565 S
C733 C739 1.390 . S
C734 H725 0.930 . S
C734 C732 1.384 . S
C734 C735 1.372 . S
C735 C734 1.372 . S
C735 C736 1.400 1_545 S
C735 C740 1.490 . S
C736 H726 0.930 . S
C736 C735 1.400 1_565 S
C736 C739 1.386 . S
H737 C753 0.930 . S
H738 C754 0.931 . S
C739 H727 0.929 . S
C739 C733 1.390 . S
C739 C736 1.386 . S
C740 C735 1.490 . S
C740 C742 1.395 . S
C740 C743 1.403 1_545 S
H741 C747 0.930 . S
C742 H728 0.930 . S
C742 C740 1.395 . S
C742 C745 1.403 . S
C743 C740 1.403 1_565 S
C743 C744 1.524 . S
C743 C747 1.400 . S
C744 H729 0.960 . S
C744 H730 0.960 . S
C744 H731 0.960 . S
C744 C743 1.524 . S
C745 C742 1.403 . S
C745 C746 1.392 . S
C745 C749 1.495 . S
C746 C745 1.392 . S
C746 C747 1.385 1_545 S
C746 C748 1.478 . S
C747 H741 0.930 . S
C747 C743 1.400 . S
C747 C746 1.385 1_565 S
C748 C746 1.478 . S
C748 C750 1.381 . S
C748 C754 1.383 1_554 S
C749 C745 1.495 . S
C749 H755 0.959 . S
C749 H756 0.961 . S
C749 H757 0.960 . S
C750 C748 1.381 . S
C750 C751 1.394 . S
C750 H758 0.930 . S
C751 C750 1.394 . S
C751 C752 1.383 1_554 S
C751 H759 0.929 . S
C752 C751 1.383 1_556 S
C752 C753 1.377 . S
C753 H737 0.930 . S
C753 C752 1.377 . S
C753 C754 1.379 . S
C754 H738 0.931 . S
C754 C748 1.383 1_556 S
C754 C753 1.379 . S
H755 C749 0.959 . S
H756 C749 0.961 . S
H757 C749 0.960 . S
H758 C750 0.930 . S
H759 C751 0.929 . S
H760 C768 0.929 . S
H761 C770 0.930 . S
H762 C772 0.930 . S
H763 C775 0.929 . S
H764 C778 0.930 . S
H765 C780 0.960 . S
H766 C780 0.960 . S
H767 C780 0.960 . S
C768 H760 0.929 . S
C768 C769 1.377 1_556 S
C768 C770 1.384 . S
C769 C768 1.377 1_554 S
C769 C775 1.390 . S
C770 H761 0.930 . S
C770 C768 1.384 . S
C770 C771 1.372 . S
C771 C770 1.372 . S
C771 C772 1.400 1_556 S
C771 C776 1.490 . S
C772 H762 0.930 . S
C772 C771 1.400 1_554 S
C772 C775 1.386 . S
H773 C789 0.930 . S
H774 C790 0.931 . S
C775 H763 0.929 . S
C775 C769 1.390 . S
C775 C772 1.386 . S
C776 C771 1.490 . S
C776 C778 1.395 . S
C776 C779 1.403 . S
H777 C783 0.930 . S
C778 H764 0.930 . S
C778 C776 1.395 . S
C778 C781 1.403 . S
C779 C776 1.403 . S
C779 C780 1.524 1_556 S
C779 C783 1.400 . S
C780 H765 0.960 . S
C780 H766 0.960 . S
C780 H767 0.960 . S
C780 C779 1.524 1_554 S
C781 C778 1.403 . S
C781 C782 1.392 . S
C781 C785 1.495 . S
C782 C781 1.392 . S
C782 C783 1.385 . S
C782 C784 1.478 . S
C783 H777 0.930 . S
C783 C779 1.400 . S
C783 C782 1.385 . S
C784 C782 1.478 . S
C784 C786 1.381 . S
C784 C790 1.383 . S
C785 C781 1.495 . S
C785 H791 0.959 . S
C785 H792 0.961 . S
C785 H793 0.960 . S
C786 C784 1.381 . S
C786 C787 1.394 . S
C786 H794 0.930 . S
C787 C786 1.394 . S
C787 C788 1.383 . S
C787 H795 0.929 . S
C788 C787 1.383 . S
C788 C789 1.377 . S
C789 H773 0.930 . S
C789 C788 1.377 . S
C789 C790 1.379 . S
C790 H774 0.931 . S
C790 C784 1.383 . S
C790 C789 1.379 . S
H791 C785 0.959 . S
H792 C785 0.961 . S
H793 C785 0.960 . S
H794 C786 0.930 . S
H795 C787 0.929 . S
H796 C804 0.929 . S
H797 C806 0.930 . S
H798 C808 0.930 . S
H799 C811 0.929 . S
H800 C814 0.930 . S
H801 C816 0.960 . S
H802 C816 0.960 . S
H803 C816 0.960 . S
C804 H796 0.929 . S
C804 C805 1.377 . S
C804 C806 1.384 . S
C805 C804 1.377 . S
C805 C811 1.390 . S
C806 H797 0.930 . S
C806 C804 1.384 . S
C806 C807 1.372 . S
C807 C806 1.372 . S
C807 C808 1.400 . S
C807 C812 1.490 . S
C808 H798 0.930 . S
C808 C807 1.400 . S
C808 C811 1.386 . S
H809 C825 0.930 1_556 S
H810 C826 0.931 . S
C811 H799 0.929 . S
C811 C805 1.390 . S
C811 C808 1.386 . S
C812 C807 1.490 . S
C812 C814 1.395 . S
C812 C815 1.403 . S
H813 C819 0.930 . S
C814 H800 0.930 . S
C814 C812 1.395 . S
C814 C817 1.403 . S
C815 C812 1.403 . S
C815 C816 1.524 . S
C815 C819 1.400 . S
C816 H801 0.960 . S
C816 H802 0.960 . S
C816 H803 0.960 . S
C816 C815 1.524 . S
C817 C814 1.403 . S
C817 C818 1.392 . S
C817 C821 1.495 . S
C818 C817 1.392 . S
C818 C819 1.385 . S
C818 C820 1.478 . S
C819 H813 0.930 . S
C819 C815 1.400 . S
C819 C818 1.385 . S
C820 C818 1.478 . S
C820 C822 1.381 . S
C820 C826 1.383 . S
C821 C817 1.495 . S
C821 H827 0.959 . S
C821 H828 0.961 . S
C821 H829 0.960 . S
C822 C820 1.381 . S
C822 C823 1.394 . S
C822 H830 0.930 . S
C823 C822 1.394 . S
C823 C824 1.383 . S
C823 H831 0.929 . S
C824 C823 1.383 . S
C824 C825 1.377 . S
C825 H809 0.930 1_554 S
C825 C824 1.377 . S
C825 C826 1.379 . S
C826 H810 0.931 . S
C826 C820 1.383 . S
C826 C825 1.379 . S
H827 C821 0.959 . S
H828 C821 0.961 . S
H829 C821 0.960 . S
H830 C822 0.930 . S
H831 C823 0.929 . S
H832 C840 0.929 . S
H833 C842 0.930 . S
H834 C844 0.930 . S
H835 C847 0.929 . S
H836 C850 0.930 . S
H837 C852 0.960 . S
H838 C852 0.960 . S
H839 C852 0.960 . S
C840 H832 0.929 . S
C840 C841 1.377 . S
C840 C842 1.384 . S
C841 C840 1.377 . S
C841 C847 1.390 1_556 S
C842 H833 0.930 . S
C842 C840 1.384 . S
C842 C843 1.372 . S
C843 C842 1.372 . S
C843 C844 1.400 1_556 S
C843 C848 1.490 . S
C844 H834 0.930 . S
C844 C843 1.400 1_554 S
C844 C847 1.386 . S
H845 C861 0.930 . S
H846 C862 0.931 . S
C847 H835 0.929 . S
C847 C841 1.390 1_554 S
C847 C844 1.386 . S
C848 C843 1.490 . S
C848 C850 1.395 . S
C848 C851 1.403 . S
H849 C855 0.930 1_655 S
C850 H836 0.930 . S
C850 C848 1.395 . S
C850 C853 1.403 . S
C851 C848 1.403 . S
C851 C852 1.524 1_455 S
C851 C855 1.400 . S
C852 H837 0.960 . S
C852 H838 0.960 . S
C852 H839 0.960 . S
C852 C851 1.524 1_655 S
C853 C850 1.403 . S
C853 C854 1.392 . S
C853 C857 1.495 . S
C854 C853 1.392 . S
C854 C855 1.385 . S
C854 C856 1.478 . S
C855 H849 0.930 1_455 S
C855 C851 1.400 . S
C855 C854 1.385 . S
C856 C854 1.478 . S
C856 C858 1.381 . S
C856 C862 1.383 . S
C857 C853 1.495 . S
C857 H863 0.959 . S
C857 H864 0.961 . S
C857 H865 0.960 . S
C858 C856 1.381 . S
C858 C859 1.394 . S
C858 H866 0.930 . S
C859 C858 1.394 . S
C859 C860 1.383 . S
C859 H867 0.929 . S
C860 C859 1.383 . S
C860 C861 1.377 . S
C861 H845 0.930 . S
C861 C860 1.377 . S
C861 C862 1.379 . S
C862 H846 0.931 . S
C862 C856 1.383 . S
C862 C861 1.379 . S
H863 C857 0.959 . S
H864 C857 0.961 . S
H865 C857 0.960 . S
H866 C858 0.930 . S
H867 C859 0.929 . S
H868 C876 0.929 . S
H869 C878 0.930 . S
H870 C880 0.930 1_556 S
H871 C883 0.929 . S
H872 C886 0.930 . S
H873 C888 0.960 . S
H874 C888 0.960 1_545 S
H875 C888 0.960 . S
C876 H868 0.929 . S
C876 C877 1.377 . S
C876 C878 1.384 . S
C877 C876 1.377 . S
C877 C883 1.390 1_545 S
C878 H869 0.930 . S
C878 C876 1.384 . S
C878 C879 1.372 . S
C879 C878 1.372 . S
C879 C880 1.400 1_545 S
C879 C884 1.490 1_554 S
C880 H870 0.930 1_554 S
C880 C879 1.400 1_565 S
C880 C883 1.386 . S
H881 C897 0.930 . S
H882 C898 0.931 . S
C883 H871 0.929 . S
C883 C877 1.390 1_565 S
C883 C880 1.386 . S
C884 C879 1.490 1_556 S
C884 C886 1.395 1_556 S
C884 C887 1.403 . S
H885 C891 0.937 . S
C886 H872 0.930 . S
C886 C884 1.395 1_554 S
C886 C889 1.403 1_554 S
C887 C884 1.403 . S
C887 C888 1.524 1_545 S
C887 C891 1.400 . S
C888 H873 0.960 . S
C888 H874 0.960 1_565 S
C888 H875 0.960 . S
C888 C887 1.524 1_565 S
C889 C886 1.403 1_556 S
C889 C890 1.392 . S
C889 C893 1.495 1_556 S
C890 C889 1.392 . S
C890 C891 1.385 . S
C890 C892 1.478 . S
C891 H885 0.937 . S
C891 C887 1.400 . S
C891 C890 1.385 . S
C892 C890 1.478 . S
C892 C894 1.381 . S
C892 C898 1.383 1_545 S
C893 C889 1.495 1_554 S
C893 H899 0.959 . S
C893 H900 0.961 . S
C893 H901 0.960 . S
C894 C892 1.381 . S
C894 C895 1.394 . S
C894 H902 0.930 . S
C895 C894 1.394 . S
C895 C896 1.383 . S
C895 H903 0.929 . S
C896 C895 1.383 . S
C896 C897 1.377 1_545 S
C897 H881 0.930 . S
C897 C896 1.377 1_565 S
C897 C898 1.379 . S
C898 H882 0.931 . S
C898 C892 1.383 1_565 S
C898 C897 1.379 . S
H899 C893 0.959 . S
H900 C893 0.961 . S
H901 C893 0.960 . S
H902 C894 0.930 . S
H903 C895 0.929 . S
H904 C912 0.929 . S
H905 C914 0.930 . S
H906 C916 0.930 . S
H907 C919 0.929 . S
H908 C922 0.930 . S
H909 C924 0.960 1_556 S
H910 C924 0.960 . S
H911 C924 0.960 1_556 S
C912 H904 0.929 . S
C912 C913 1.377 . S
C912 C914 1.384 . S
C913 C912 1.377 . S
C913 C919 1.390 . S
C914 H905 0.930 . S
C914 C912 1.384 . S
C914 C915 1.372 . S
C915 C914 1.372 . S
C915 C916 1.400 . S
C915 C920 1.490 . S
C916 H906 0.930 . S
C916 C915 1.400 . S
C916 C919 1.386 . S
H917 C933 0.930 . S
H918 C934 0.931 . S
C919 H907 0.929 . S
C919 C913 1.390 . S
C919 C916 1.386 . S
C920 C915 1.490 . S
C920 C922 1.395 . S
C920 C923 1.403 . S
H921 C927 0.930 . S
C922 H908 0.930 . S
C922 C920 1.395 . S
C922 C925 1.403 . S
C923 C920 1.403 . S
C923 C924 1.524 . S
C923 C927 1.400 1_554 S
C924 H909 0.960 1_554 S
C924 H910 0.960 . S
C924 H911 0.960 1_554 S
C924 C923 1.524 . S
C925 C922 1.403 . S
C925 C926 1.392 . S
C925 C929 1.495 . S
C926 C925 1.392 . S
C926 C927 1.385 1_554 S
C926 C928 1.478 1_554 S
C927 H921 0.930 . S
C927 C923 1.400 1_556 S
C927 C926 1.385 1_556 S
C928 C926 1.478 1_556 S
C928 C930 1.381 . S
C928 C934 1.383 . S
C929 C925 1.495 . S
C929 H935 0.959 . S
C929 H936 0.961 . S
C929 H937 0.960 . S
C930 C928 1.381 . S
C930 C931 1.394 . S
C930 H938 0.930 1_556 S
C931 C930 1.394 . S
C931 C932 1.383 . S
C931 H939 0.929 . S
C932 C931 1.383 . S
C932 C933 1.377 . S
C933 H917 0.930 . S
C933 C932 1.377 . S
C933 C934 1.379 . S
C934 H918 0.931 . S
C934 C928 1.383 . S
C934 C933 1.379 . S
H935 C929 0.959 . S
H936 C929 0.961 . S
H937 C929 0.960 . S
H938 C930 0.930 1_554 S
H939 C931 0.929 . S
H940 C948 0.929 . S
H941 C950 0.930 . S
H942 C952 0.930 . S
H943 C955 0.929 . S
H944 C958 0.930 . S
H945 C960 0.960 . S
H946 C960 0.960 . S
H947 C960 0.960 . S
C948 H940 0.929 . S
C948 C949 1.377 . S
C948 C950 1.384 . S
C949 C948 1.377 . S
C949 C955 1.390 . S
C950 H941 0.930 . S
C950 C948 1.384 . S
C950 C951 1.372 . S
C951 C950 1.372 . S
C951 C952 1.400 . S
C951 C956 1.490 . S
C952 H942 0.930 . S
C952 C951 1.400 . S
C952 C955 1.386 . S
H953 C969 0.930 . S
H954 C970 0.931 . S
C955 H943 0.929 . S
C955 C949 1.390 . S
C955 C952 1.386 . S
C956 C951 1.490 . S
C956 C958 1.395 . S
C956 C959 1.403 . S
H957 C963 0.930 . S
C958 H944 0.930 . S
C958 C956 1.395 . S
C958 C961 1.403 . S
C959 C956 1.403 . S
C959 C960 1.524 . S
C959 C963 1.400 . S
C960 H945 0.960 . S
C960 H946 0.960 . S
C960 H947 0.960 . S
C960 C959 1.524 . S
C961 C958 1.403 . S
C961 C962 1.392 . S
C961 C965 1.495 . S
C962 C961 1.392 . S
C962 C963 1.385 . S
C962 C964 1.478 . S
C963 H957 0.930 . S
C963 C959 1.400 . S
C963 C962 1.385 . S
C964 C962 1.478 . S
C964 C966 1.381 . S
C964 C970 1.383 . S
C965 C961 1.495 . S
C965 H971 0.959 . S
C965 H972 0.961 . S
C965 H973 0.960 . S
C966 C964 1.381 . S
C966 C967 1.394 . S
C966 H974 0.930 . S
C967 C966 1.394 . S
C967 C968 1.383 . S
C967 H975 0.929 . S
C968 C967 1.383 . S
C968 C969 1.377 . S
C969 H953 0.930 . S
C969 C968 1.377 . S
C969 C970 1.379 . S
C970 H954 0.931 . S
C970 C964 1.383 . S
C970 C969 1.379 . S
H971 C965 0.959 . S
H972 C965 0.961 . S
H973 C965 0.960 . S
H974 C966 0.930 . S
H975 C967 0.929 . S
H976 C984 0.929 . S
H977 C986 0.930 . S
H978 C988 0.930 . S
H979 C991 0.929 . S
H980 C994 0.930 . S
H981 C996 0.960 . S
H982 C996 0.960 . S
H983 C996 0.960 . S
C984 H976 0.929 . S
C984 C985 1.377 . S
C984 C986 1.384 . S
C985 C984 1.377 . S
C985 C991 1.390 1_655 S
C986 H977 0.930 . S
C986 C984 1.384 . S
C986 C987 1.372 . S
C987 C986 1.372 . S
C987 C988 1.400 1_655 S
C987 C992 1.490 . S
C988 H978 0.930 . S
C988 C987 1.400 1_455 S
C988 C991 1.386 . S
H989 C1005 0.930 . S
H990 C1006 0.931 . S
C991 H979 0.929 . S
C991 C985 1.390 1_455 S
C991 C988 1.386 . S
C992 C987 1.490 . S
C992 C994 1.395 . S
C992 C995 1.403 1_655 S
H993 C999 0.930 . S
C994 H980 0.930 . S
C994 C992 1.395 . S
C994 C997 1.403 . S
C995 C992 1.403 1_455 S
C995 C996 1.524 . S
C995 C999 1.400 . S
C996 H981 0.960 . S
C996 H982 0.960 . S
C996 H983 0.960 . S
C996 C995 1.524 . S
C997 C994 1.403 . S
C997 C998 1.392 . S
C997 C1001 1.495 . S
C998 C997 1.392 . S
C998 C999 1.385 1_655 S
C998 C1000 1.478 . S
C999 H993 0.930 . S
C999 C995 1.400 . S
C999 C998 1.385 1_455 S
C1000 C998 1.478 . S
C1000 C1002 1.381 . S
C1000 C1006 1.383 1_655 S
C1001 C997 1.495 . S
C1001 H1007 0.959 . S
C1001 H1008 0.961 . S
C1001 H1009 0.960 . S
C1002 C1000 1.381 . S
C1002 C1003 1.394 . S
C1002 H1010 0.930 . S
C1003 C1002 1.394 . S
C1003 C1004 1.383 . S
C1003 H1011 0.929 . S
C1004 C1003 1.383 . S
C1004 C1005 1.377 1_655 S
C1005 H989 0.930 . S
C1005 C1004 1.377 1_455 S
C1005 C1006 1.379 . S
C1006 H990 0.931 . S
C1006 C1000 1.383 1_455 S
C1006 C1005 1.379 . S
H1007 C1001 0.959 . S
H1008 C1001 0.961 . S
H1009 C1001 0.960 . S
H1010 C1002 0.930 . S
H1011 C1003 0.929 . S
H1012 C1020 0.929 . S
H1013 C1022 0.930 . S
H1014 C1024 0.930 . S
H1015 C1027 0.929 . S
H1016 C1030 0.930 . S
H1017 C1032 0.960 . S
H1018 C1032 0.960 . S
H1019 C1032 0.960 . S
C1020 H1012 0.929 . S
C1020 C1021 1.352 1_545 S
C1020 C1022 1.384 . S
C1021 C1020 1.352 1_565 S
C1021 C1027 1.420 . S
C1022 H1013 0.930 . S
C1022 C1020 1.384 . S
C1022 C1023 1.372 1_545 S
C1023 C1022 1.372 1_565 S
C1023 C1024 1.400 . S
C1023 C1028 1.490 . S
C1024 H1014 0.930 . S
C1024 C1023 1.400 . S
C1024 C1027 1.386 . S
H1025 C1041 0.930 . S
H1026 C1042 0.931 . S
C1027 H1015 0.929 . S
C1027 C1021 1.420 . S
C1027 C1024 1.386 . S
C1028 C1023 1.490 . S
C1028 C1030 1.395 . S
C1028 C1031 1.403 1_565 S
H1029 C1035 0.930 . S
C1030 H1016 0.930 . S
C1030 C1028 1.395 . S
C1030 C1033 1.403 . S
C1031 C1028 1.403 1_545 S
C1031 C1032 1.524 . S
C1031 C1035 1.400 . S
C1032 H1017 0.960 . S
C1032 H1018 0.960 . S
C1032 H1019 0.960 . S
C1032 C1031 1.524 . S
C1033 C1030 1.403 . S
C1033 C1034 1.392 . S
C1033 C1037 1.495 . S
C1034 C1033 1.392 . S
C1034 C1035 1.385 1_565 S
C1034 C1036 1.478 . S
C1035 H1029 0.930 . S
C1035 C1031 1.400 . S
C1035 C1034 1.385 1_545 S
C1036 C1034 1.478 . S
C1036 C1038 1.381 1_565 S
C1036 C1042 1.383 . S
C1037 C1033 1.495 . S
C1037 H1043 0.959 . S
C1037 H1044 0.961 . S
C1037 H1045 0.960 . S
C1038 C1036 1.381 1_545 S
C1038 C1039 1.394 . S
C1038 H1046 0.930 . S
C1039 C1038 1.394 . S
C1039 C1040 1.383 1_545 S
C1039 H1047 0.929 . S
C1040 C1039 1.383 1_565 S
C1040 C1041 1.377 . S
C1041 H1025 0.930 . S
C1041 C1040 1.377 . S
C1041 C1042 1.379 . S
C1042 H1026 0.931 . S
C1042 C1036 1.383 . S
C1042 C1041 1.379 . S
H1043 C1037 0.959 . S
H1044 C1037 0.961 . S
H1045 C1037 0.960 . S
H1046 C1038 0.930 . S
H1047 C1039 0.929 . S
H1048 C1056 0.929 . S
H1049 C1058 0.930 . S
H1050 C1060 0.930 . S
H1051 C1063 0.929 . S
H1052 C1066 0.930 . S
H1053 C1068 0.960 . S
H1054 C1068 0.960 . S
H1055 C1068 0.960 . S
C1056 H1048 0.929 . S
C1056 C1057 1.377 . S
C1056 C1058 1.384 . S
C1057 C1056 1.377 . S
C1057 C1063 1.390 . S
C1058 H1049 0.930 . S
C1058 C1056 1.384 . S
C1058 C1059 1.372 . S
C1059 C1058 1.372 . S
C1059 C1060 1.400 . S
C1059 C1064 1.490 . S
C1060 H1050 0.930 . S
C1060 C1059 1.400 . S
C1060 C1063 1.386 . S
H1061 C1077 0.930 . S
H1062 C1078 0.931 . S
C1063 H1051 0.929 . S
C1063 C1057 1.390 . S
C1063 C1060 1.386 . S
C1064 C1059 1.490 . S
C1064 C1066 1.395 . S
C1064 C1067 1.403 . S
H1065 C1071 0.930 . S
C1066 H1052 0.930 . S
C1066 C1064 1.395 . S
C1066 C1069 1.403 . S
C1067 C1064 1.403 . S
C1067 C1068 1.524 . S
C1067 C1071 1.400 . S
C1068 H1053 0.960 . S
C1068 H1054 0.960 . S
C1068 H1055 0.960 . S
C1068 C1067 1.524 . S
C1069 C1066 1.403 . S
C1069 C1070 1.392 . S
C1069 C1073 1.495 . S
C1070 C1069 1.392 . S
C1070 C1071 1.385 . S
C1070 C1072 1.478 . S
C1071 H1065 0.930 . S
C1071 C1067 1.400 . S
C1071 C1070 1.385 . S
C1072 C1070 1.478 . S
C1072 C1074 1.381 . S
C1072 C1078 1.383 . S
C1073 C1069 1.495 . S
C1073 H1079 0.959 . S
C1073 H1080 0.961 . S
C1073 H1081 0.960 . S
C1074 C1072 1.381 . S
C1074 C1075 1.394 . S
C1074 H1082 0.930 . S
C1075 C1074 1.394 . S
C1075 C1076 1.383 . S
C1075 H1083 0.929 . S
C1076 C1075 1.383 . S
C1076 C1077 1.377 . S
C1077 H1061 0.930 . S
C1077 C1076 1.377 . S
C1077 C1078 1.379 . S
C1078 H1062 0.931 . S
C1078 C1072 1.383 . S
C1078 C1077 1.379 . S
H1079 C1073 0.959 . S
H1080 C1073 0.961 . S
H1081 C1073 0.960 . S
H1082 C1074 0.930 . S
H1083 C1075 0.929 . S
H1084 C1092 0.929 . S
H1085 C1094 0.930 . S
H1086 C1096 0.930 . S
H1087 C1099 0.929 . S
H1088 C1102 0.930 . S
H1089 C1104 0.960 . S
H1090 C1104 0.960 . S
H1091 C1104 0.960 . S
C1092 H1084 0.929 . S
C1092 C1093 1.377 . S
C1092 C1094 1.384 . S
C1093 C1092 1.377 . S
C1093 C1099 1.390 . S
C1094 H1085 0.930 . S
C1094 C1092 1.384 . S
C1094 C1095 1.372 . S
C1095 C1094 1.372 . S
C1095 C1096 1.400 . S
C1095 C1100 1.490 . S
C1096 H1086 0.930 . S
C1096 C1095 1.400 . S
C1096 C1099 1.386 . S
H1097 C1113 0.930 . S
H1098 C1114 0.931 . S
C1099 H1087 0.929 . S
C1099 C1093 1.390 . S
C1099 C1096 1.386 . S
C1100 C1095 1.490 . S
C1100 C1102 1.395 . S
C1100 C1103 1.403 . S
H1101 C1107 0.930 . S
C1102 H1088 0.930 . S
C1102 C1100 1.395 . S
C1102 C1105 1.403 . S
C1103 C1100 1.403 . S
C1103 C1104 1.524 . S
C1103 C1107 1.400 . S
C1104 H1089 0.960 . S
C1104 H1090 0.960 . S
C1104 H1091 0.960 . S
C1104 C1103 1.524 . S
C1105 C1102 1.403 . S
C1105 C1106 1.392 . S
C1105 C1109 1.495 . S
C1106 C1105 1.392 . S
C1106 C1107 1.385 . S
C1106 C1108 1.478 . S
C1107 H1101 0.930 . S
C1107 C1103 1.400 . S
C1107 C1106 1.385 . S
C1108 C1106 1.478 . S
C1108 C1110 1.381 . S
C1108 C1114 1.383 . S
C1109 C1105 1.495 . S
C1109 H1115 0.959 . S
C1109 H1116 0.961 . S
C1109 H1117 0.960 . S
C1110 C1108 1.381 . S
C1110 C1111 1.394 . S
C1110 H1118 0.930 . S
C1111 C1110 1.394 . S
C1111 C1112 1.383 . S
C1111 H1119 0.929 . S
C1112 C1111 1.383 . S
C1112 C1113 1.377 . S
C1113 H1097 0.930 . S
C1113 C1112 1.377 . S
C1113 C1114 1.379 . S
C1114 H1098 0.931 . S
C1114 C1108 1.383 . S
C1114 C1113 1.379 . S
H1115 C1109 0.959 . S
H1116 C1109 0.961 . S
H1117 C1109 0.960 . S
H1118 C1110 0.930 . S
H1119 C1111 0.929 . S
C265 C76 1.865 . S
C284 C98 1.909 . S
C320 C138 2.072 . S
C301 C88 2.037 . S
C356 C202 1.857 . S
C337 C52 1.734 . S
C392 C218 1.473 . S
C373 C64 1.344 . S
C428 C119 1.912 . S
C409 C28 1.861 . S
C445 C40 2.043 . S
C464 C159 2.071 . S
C481 C4 1.734 . S
C500 C193 1.831 . S
C517 C16 1.362 . S
C536 C239 1.473 . S
C572 C113 0.210 . S
C553 C69 0.269 . S
C608 C153 0.604 . S
C589 C81 0.587 . S
C644 C189 0.444 . S
C625 C93 0.423 . S
C661 C57 0.393 . S
C680 C233 0.507 . S
C697 C21 0.322 . S
C716 C122 0.213 . S
C752 C162 0.607 . S
C733 C33 0.574 . S
C788 C200 0.383 . S
C769 C45 0.459 . S
C805 C9 0.412 . S
C824 C242 0.520 . S
C841 C66 1.812 1_556 S
C860 C120 1.965 . S
C877 C78 1.787 . S
C896 C160 1.909 . S
C932 C178 1.512 . S
C913 C90 1.484 . S
C968 C240 2.310 . S
C949 C54 2.129 . S
C985 C18 1.796 . S
C1004 C109 1.964 1_655 S
C1040 C149 1.911 . S
C1021 C30 1.781 1_565 S
C1076 C199 1.464 . S
C1057 C42 1.469 . S
C1093 C6 2.113 . S
C1112 C229 2.317 . S
