# Generated by pormake.
# Topology dag, (6,3)-cn, num edge types: 1
# Building blocks:
#     Node 0, Type 0, BuildingBlock: IZENUY_clean_sbu_0, # of connection points: 6
#     Node 1, Type 0, BuildingBlock: IZENUY_clean_sbu_0, # of connection points: 6
#     Node 2, Type 0, BuildingBlock: IZENUY_clean_sbu_0, # of connection points: 6
#     Node 3, Type 0, BuildingBlock: IZENUY_clean_sbu_0, # of connection points: 6
#     Node 4, Type 1, BuildingBlock: MIDCAF_clean_linker_0, # of connection points: 3
#     Node 5, Type 1, BuildingBlock: MIDCAF_clean_linker_0, # of connection points: 3
#     Node 6, Type 1, BuildingBlock: MIDCAF_clean_linker_0, # of connection points: 3
#     Node 7, Type 1, BuildingBlock: MIDCAF_clean_linker_0, # of connection points: 3
#     Node 8, Type 1, BuildingBlock: MIDCAF_clean_linker_0, # of connection points: 3
#     Node 9, Type 1, BuildingBlock: MIDCAF_clean_linker_0, # of connection points: 3
#     Node 10, Type 1, BuildingBlock: MIDCAF_clean_linker_0, # of connection points: 3
#     Node 11, Type 1, BuildingBlock: MIDCAF_clean_linker_0, # of connection points: 3
#     Edge 12, Type (0, 1), BuildingBlock: TEMPAE_clean_linker_10, # of connection points: 2
#     Edge 13, Type (0, 1), BuildingBlock: TEMPAE_clean_linker_10, # of connection points: 2
#     Edge 14, Type (0, 1), BuildingBlock: TEMPAE_clean_linker_10, # of connection points: 2
#     Edge 15, Type (0, 1), BuildingBlock: TEMPAE_clean_linker_10, # of connection points: 2
#     Edge 16, Type (0, 1), BuildingBlock: TEMPAE_clean_linker_10, # of connection points: 2
#     Edge 17, Type (0, 1), BuildingBlock: TEMPAE_clean_linker_10, # of connection points: 2
#     Edge 18, Type (0, 1), BuildingBlock: TEMPAE_clean_linker_10, # of connection points: 2
#     Edge 19, Type (0, 1), BuildingBlock: TEMPAE_clean_linker_10, # of connection points: 2
#     Edge 20, Type (0, 1), BuildingBlock: TEMPAE_clean_linker_10, # of connection points: 2
#     Edge 21, Type (0, 1), BuildingBlock: TEMPAE_clean_linker_10, # of connection points: 2
#     Edge 22, Type (0, 1), BuildingBlock: TEMPAE_clean_linker_10, # of connection points: 2
#     Edge 23, Type (0, 1), BuildingBlock: TEMPAE_clean_linker_10, # of connection points: 2
#     Edge 24, Type (0, 1), BuildingBlock: TEMPAE_clean_linker_10, # of connection points: 2
#     Edge 25, Type (0, 1), BuildingBlock: TEMPAE_clean_linker_10, # of connection points: 2
#     Edge 26, Type (0, 1), BuildingBlock: TEMPAE_clean_linker_10, # of connection points: 2
#     Edge 27, Type (0, 1), BuildingBlock: TEMPAE_clean_linker_10, # of connection points: 2
#     Edge 28, Type (0, 1), BuildingBlock: TEMPAE_clean_linker_10, # of connection points: 2
#     Edge 29, Type (0, 1), BuildingBlock: TEMPAE_clean_linker_10, # of connection points: 2
#     Edge 30, Type (0, 1), BuildingBlock: TEMPAE_clean_linker_10, # of connection points: 2
#     Edge 31, Type (0, 1), BuildingBlock: TEMPAE_clean_linker_10, # of connection points: 2
#     Edge 32, Type (0, 1), BuildingBlock: TEMPAE_clean_linker_10, # of connection points: 2
#     Edge 33, Type (0, 1), BuildingBlock: TEMPAE_clean_linker_10, # of connection points: 2
#     Edge 34, Type (0, 1), BuildingBlock: TEMPAE_clean_linker_10, # of connection points: 2
#     Edge 35, Type (0, 1), BuildingBlock: TEMPAE_clean_linker_10, # of connection points: 2
# Relax obj value: 0.260
# Max RMSD: 0.197
# Mean RMSD: 0.161
data_MOF--net-dag--node1-IZENUY_clean_sbu_0--node2-MIDCAF_clean_linker_0--edge1-TEMPAE_clean_linker_10
_symmetry_space_group_name_H-M    P1
_symmetry_Int_Tables_number       1
_symmetry_cell_setting            triclinic
loop_
_symmetry_equiv_pos_as_xyz
'x, y, z'
_cell_length_a     46.837652
_cell_length_b     48.597687
_cell_length_c     41.151297
_cell_angle_alpha  95.048566
_cell_angle_beta   90.261515
_cell_angle_gamma 90.088063
loop_
_atom_site_label
_atom_site_type_symbol
_atom_site_fract_x
_atom_site_fract_y
_atom_site_fract_z
_atom_type_partial_charge
Fe0 Fe 0.19838 0.8358 0.08998 0.0
Fe1 Fe 0.14228 0.85534 0.06138 0.0
O2 O 0.16576 0.82829 0.06908 0.0
Fe3 Fe 0.15643 0.79366 0.05624 0.0
O4 O 0.15727 0.78432 0.09798 0.0
O5 O 0.19883 0.80366 0.11024 0.0
O6 O 0.17998 0.85152 0.12566 0.0
C7 C 0.16245 0.87114 0.12516 0.0
C8 C 0.21583 0.79597 0.04362 0.0
O9 O 0.15159 0.8772 0.0985 0.0
C10 C 0.13908 0.81933 0.0033 0.0
O11 O 0.2038 0.86934 0.07332 0.0
O12 O 0.1689 0.87159 0.03778 0.0
O13 O 0.19345 0.78233 0.04879 0.0
O14 O 0.21883 0.82051 0.05587 0.0
C15 C 0.10385 0.81706 0.07824 0.0
O16 O 0.12875 0.83838 0.02276 0.0
O17 O 0.15484 0.80097 0.01376 0.0
C18 C 0.19317 0.87922 0.04847 0.0
O19 O 0.11414 0.84089 0.08467 0.0
O20 O 0.11768 0.79873 0.06115 0.0
C21 C 0.17854 0.78784 0.11681 0.0
Fe22 Fe 0.68784 0.66257 0.48151 0.0
Fe23 Fe 0.64931 0.70545 0.51903 0.0
O24 O 0.65669 0.6708 0.50458 0.0
Fe25 Fe 0.63292 0.64419 0.51298 0.0
O26 O 0.66073 0.61781 0.51466 0.0
O27 O 0.70106 0.64044 0.51154 0.0
O28 O 0.70969 0.69055 0.50195 0.0
C29 C 0.70682 0.7038 0.52964 0.0
C30 C 0.64571 0.62781 0.44988 0.0
O31 O 0.68246 0.70805 0.54187 0.0
C32 C 0.59577 0.68782 0.50028 0.0
O33 O 0.67644 0.68401 0.45032 0.0
O34 O 0.66525 0.72032 0.48353 0.0
O35 O 0.62645 0.63531 0.46999 0.0
O36 O 0.6717 0.63313 0.45654 0.0
C37 C 0.63326 0.67472 0.57174 0.0
O38 O 0.61542 0.70517 0.49727 0.0
O39 O 0.60081 0.66557 0.51302 0.0
C40 C 0.67059 0.70935 0.45506 0.0
O41 O 0.63219 0.69657 0.55701 0.0
O42 O 0.63782 0.65157 0.55637 0.0
C43 C 0.6873 0.62003 0.52025 0.0
Fe44 Fe 0.84576 0.20782 0.01426 0.0
Fe45 Fe 0.86196 0.14702 0.01546 0.0
O46 O 0.83767 0.17239 0.00441 0.0
Fe47 Fe 0.8057 0.162 0.9836 0.0
O48 O 0.8145 0.18128 0.94952 0.0
O49 O 0.82885 0.21956 0.97757 0.0
O50 O 0.87868 0.20513 0.99107 0.0
C51 C 0.89861 0.18891 0.99679 0.0
C52 C 0.78854 0.207 0.02793 0.0
O53 O 0.89398 0.16849 0.01304 0.0
C54 C 0.80852 0.12225 0.02603 0.0
O55 O 0.86419 0.2021 0.05298 0.0
O56 O 0.85734 0.15789 0.05821 0.0
O57 O 0.78417 0.1904 0.00289 0.0
O58 O 0.81346 0.21318 0.03777 0.0
C59 C 0.84795 0.12643 0.95379 0.0
O60 O 0.83493 0.12038 0.02012 0.0
O61 O 0.79426 0.14187 0.01629 0.0
C62 C 0.86277 0.18198 0.07069 0.0
O63 O 0.86763 0.13506 0.97313 0.0
O64 O 0.82195 0.13174 0.96045 0.0
C65 C 0.82118 0.20646 0.95099 0.0
Fe66 Fe 0.3628 0.3553 0.55575 0.0
Fe67 Fe 0.30736 0.34053 0.58946 0.0
O68 O 0.33849 0.33004 0.56732 0.0
Fe69 Fe 0.34562 0.29458 0.55656 0.0
O70 O 0.37952 0.29645 0.57837 0.0
O71 O 0.39452 0.3334 0.55675 0.0
O72 O 0.37004 0.36696 0.59787 0.0
C73 C 0.35118 0.37529 0.61821 0.0
C74 C 0.36123 0.32088 0.50004 0.0
O75 O 0.32492 0.37008 0.61273 0.0
C76 C 0.28789 0.29624 0.54504 0.0
O77 O 0.33605 0.38228 0.5524 0.0
O78 O 0.2951 0.3615 0.55772 0.0
O79 O 0.36249 0.30045 0.51726 0.0
O80 O 0.35683 0.34496 0.51307 0.0
C81 C 0.32314 0.29532 0.62063 0.0
O82 O 0.28468 0.31263 0.57046 0.0
O83 O 0.31241 0.29008 0.53422 0.0
C84 C 0.30941 0.38094 0.5476 0.0
O85 O 0.31693 0.32059 0.62276 0.0
O86 O 0.32994 0.28251 0.59365 0.0
C87 C 0.39945 0.31255 0.57217 0.0
C88 C 0.98015 0.12459 0.26948 0.0
C89 C 0.97535 0.15304 0.26912 0.0
C90 C 0.98886 0.17138 0.29264 0.0
C91 C 0.00825 0.16145 0.31489 0.0
H92 H 0.06715 0.18542 0.38853 0.0
H93 H 0.09756 0.21676 0.42299 0.0
H94 H 0.15302 0.1487 0.44077 0.0
H95 H 0.12254 0.11735 0.40715 0.0
H96 H 0.12053 0.06314 0.35827 0.0
H97 H 0.14013 0.01922 0.33506 0.0
H98 H 0.06062 0.00102 0.284 0.0
H99 H 0.04091 0.04441 0.30742 0.0
H100 H 0.00293 0.09261 0.29049 0.0
H101 H 0.96959 0.10997 0.25196 0.0
H102 H 0.98543 0.19344 0.29285 0.0
H103 H 0.01928 0.17615 0.33185 0.0
N104 N 0.05235 0.13946 0.35604 0.0
N105 N 0.0834 0.10311 0.36576 0.0
N106 N 0.04594 0.09569 0.32826 0.0
C107 C 0.07521 0.12989 0.37221 0.0
C108 C 0.06877 0.08584 0.34392 0.0
C109 C 0.0375 0.12237 0.3341 0.0
C110 C 0.09241 0.14881 0.39485 0.0
C111 C 0.08567 0.17706 0.40004 0.0
C112 C 0.10317 0.19508 0.41966 0.0
C113 C 0.12774 0.18525 0.43459 0.0
C114 C 0.13404 0.15692 0.43004 0.0
C115 C 0.11661 0.13893 0.41049 0.0
C116 C 0.07926 0.05752 0.33435 0.0
C117 C 0.10702 0.04951 0.34265 0.0
C118 C 0.11832 0.0244 0.32925 0.0
C119 C 0.10202 0.00673 0.30751 0.0
C120 C 0.07369 0.01399 0.3009 0.0
C121 C 0.06245 0.03907 0.31414 0.0
C122 C 0.01425 0.133 0.31403 0.0
C123 C 0.99927 0.11467 0.29168 0.0
C124 C 0.44112 0.52143 0.80029 0.0
C125 C 0.41159 0.51652 0.79845 0.0
C126 C 0.39301 0.53502 0.8158 0.0
C127 C 0.40367 0.55873 0.83344 0.0
H128 H 0.39119 0.61987 0.91486 0.0
H129 H 0.35733 0.64998 0.94547 0.0
H130 H 0.40148 0.72158 0.91573 0.0
H131 H 0.43551 0.69157 0.88505 0.0
H132 H 0.4867 0.68298 0.83537 0.0
H133 H 0.52247 0.70093 0.79966 0.0
H134 H 0.55783 0.61916 0.78094 0.0
H135 H 0.52199 0.60104 0.81628 0.0
H136 H 0.47454 0.54927 0.81722 0.0
H137 H 0.45585 0.50752 0.78696 0.0
H138 H 0.37015 0.53156 0.81484 0.0
H139 H 0.38865 0.57313 0.84548 0.0
N140 N 0.42719 0.60857 0.86753 0.0
N141 N 0.4596 0.64511 0.86466 0.0
N142 N 0.46833 0.60227 0.83563 0.0
C143 C 0.43513 0.63503 0.87673 0.0
C144 C 0.47647 0.62874 0.84436 0.0
C145 C 0.4437 0.59204 0.84704 0.0
C146 C 0.41599 0.6533 0.89737 0.0
C147 C 0.39385 0.64203 0.91501 0.0
C148 C 0.37455 0.65924 0.9327 0.0
C149 C 0.37678 0.68807 0.93285 0.0
C150 C 0.3992 0.6994 0.91579 0.0
C151 C 0.41874 0.68219 0.8984 0.0
C152 C 0.50129 0.6405 0.82828 0.0
C153 C 0.50255 0.66893 0.82433 0.0
C154 C 0.52295 0.67924 0.80386 0.0
C155 C 0.54276 0.6614 0.78752 0.0
C156 C 0.54292 0.63339 0.79348 0.0
C157 C 0.52226 0.623 0.8135 0.0
C158 C 0.43308 0.56466 0.83352 0.0
C159 C 0.45177 0.54539 0.81747 0.0
C160 C 0.71705 0.83157 0.24944 0.0
C161 C 0.72952 0.80962 0.26445 0.0
C162 C 0.75364 0.7965 0.25012 0.0
C163 C 0.76545 0.80544 0.22187 0.0
H164 H 0.84543 0.81397 0.17926 0.0
H165 H 0.89506 0.80404 0.16619 0.0
H166 H 0.88038 0.82555 0.0677 0.0
H167 H 0.83105 0.83702 0.08152 0.0
H168 H 0.78332 0.8869 0.07821 0.0
H169 H 0.77233 0.9313 0.05878 0.0
H170 H 0.7163 0.94998 0.14086 0.0
H171 H 0.72778 0.90541 0.16087 0.0
H172 H 0.71904 0.8578 0.21032 0.0
H173 H 0.69849 0.84212 0.25999 0.0
H174 H 0.76337 0.77912 0.26068 0.0
H175 H 0.78415 0.79484 0.21175 0.0
N176 N 0.79233 0.82699 0.16714 0.0
N177 N 0.79321 0.85695 0.12565 0.0
N178 N 0.75503 0.85861 0.16248 0.0
C179 C 0.80552 0.83639 0.141 0.0
C180 C 0.76801 0.86821 0.13621 0.0
C181 C 0.76694 0.83774 0.17784 0.0
C182 C 0.83441 0.82656 0.13151 0.0
C183 C 0.85271 0.81624 0.15469 0.0
C184 C 0.88122 0.81039 0.14709 0.0
C185 C 0.89199 0.81423 0.11593 0.0
C186 C 0.87313 0.82304 0.09221 0.0
C187 C 0.84476 0.82943 0.10002 0.0
C188 C 0.75685 0.89276 0.12142 0.0
C189 C 0.76825 0.90019 0.0919 0.0
C190 C 0.7617 0.92562 0.08054 0.0
C191 C 0.74356 0.9443 0.09839 0.0
C192 C 0.73059 0.93614 0.12677 0.0
C193 C 0.73708 0.91054 0.13812 0.0
C194 C 0.7534 0.82773 0.20709 0.0
C195 C 0.7289 0.84057 0.22104 0.0
C196 C 0.78511 0.32626 0.74166 0.0
C197 C 0.78106 0.29851 0.74746 0.0
C198 C 0.76441 0.28133 0.72568 0.0
C199 C 0.7509 0.29206 0.69926 0.0
H200 H 0.66896 0.28579 0.65263 0.0
H201 H 0.61814 0.27389 0.64638 0.0
H202 H 0.603 0.35004 0.60269 0.0
H203 H 0.65329 0.36187 0.60827 0.0
H204 H 0.71365 0.38618 0.5753 0.0
H205 H 0.7239 0.43086 0.55597 0.0
H206 H 0.78206 0.44938 0.63674 0.0
H207 H 0.7716 0.40433 0.65643 0.0
H208 H 0.77503 0.35851 0.71127 0.0
H209 H 0.79783 0.33982 0.7583 0.0
H210 H 0.76086 0.25991 0.72993 0.0
H211 H 0.73739 0.2786 0.6834 0.0
N212 N 0.71156 0.32166 0.65942 0.0
N213 N 0.70558 0.356 0.62354 0.0
N214 N 0.74771 0.35461 0.65425 0.0
C215 C 0.69521 0.33373 0.63736 0.0
C216 C 0.7318 0.36645 0.6316 0.0
C217 C 0.73784 0.33196 0.66789 0.0
C218 C 0.66524 0.32485 0.6311 0.0
C219 C 0.65483 0.29985 0.6414 0.0
C220 C 0.62583 0.29299 0.63783 0.0
C221 C 0.60678 0.31126 0.62448 0.0
C222 C 0.61727 0.33581 0.61346 0.0
C223 C 0.64616 0.34245 0.6165 0.0
C224 C 0.74154 0.39184 0.61761 0.0
C225 C 0.72898 0.39954 0.58873 0.0
C226 C 0.7351 0.42508 0.57743 0.0
C227 C 0.75381 0.44365 0.59484 0.0
C228 C 0.76747 0.43549 0.62292 0.0
C229 C 0.76155 0.40969 0.63409 0.0
C230 C 0.75434 0.32001 0.69382 0.0
C231 C 0.77214 0.33685 0.71478 0.0
C232 C 0.45387 0.34937 0.2776 0.0
C233 C 0.45643 0.32209 0.28596 0.0
C234 C 0.47888 0.30563 0.27271 0.0
C235 C 0.49951 0.31686 0.25321 0.0
H236 H 0.5564 0.31193 0.16022 0.0
H237 H 0.59177 0.28438 0.12781 0.0
H238 H 0.65933 0.33543 0.17187 0.0
H239 H 0.62425 0.36346 0.20363 0.0
H240 H 0.60121 0.42863 0.22452 0.0
H241 H 0.617 0.47141 0.25512 0.0
H242 H 0.54194 0.47051 0.31543 0.0
H243 H 0.52599 0.42802 0.28514 0.0
H244 H 0.4732 0.38237 0.25437 0.0
H245 H 0.43692 0.36258 0.28775 0.0
H246 H 0.48128 0.28453 0.27886 0.0
H247 H 0.51748 0.30418 0.24487 0.0
N248 N 0.5419 0.34411 0.21381 0.0
N249 N 0.57283 0.38238 0.21675 0.0
N250 N 0.52973 0.38489 0.24539 0.0
C251 C 0.56659 0.35606 0.20484 0.0
C252 C 0.5544 0.39701 0.23694 0.0
C253 C 0.52328 0.35856 0.23395 0.0
C254 C 0.58756 0.33987 0.18441 0.0
C255 C 0.57878 0.31735 0.16285 0.0
C256 C 0.59889 0.30166 0.14431 0.0
C257 C 0.62805 0.3079 0.14764 0.0
C258 C 0.63687 0.33032 0.16909 0.0
C259 C 0.61679 0.34637 0.18708 0.0
C260 C 0.56246 0.42463 0.25255 0.0
C261 C 0.58786 0.43771 0.24403 0.0
C262 C 0.59689 0.46226 0.26143 0.0
C263 C 0.58083 0.47402 0.28783 0.0
C264 C 0.5549 0.46163 0.29544 0.0
C265 C 0.54574 0.43731 0.27793 0.0
C266 C 0.4983 0.3449 0.24732 0.0
C267 C 0.47474 0.36074 0.25869 0.0
C268 C 0.28566 0.17538 0.82975 0.0
C269 C 0.28221 0.20304 0.82325 0.0
C270 C 0.26536 0.22064 0.84408 0.0
C271 C 0.25103 0.21041 0.87016 0.0
H272 H 0.16701 0.21799 0.91328 0.0
H273 H 0.11614 0.23021 0.91793 0.0
H274 H 0.09895 0.153 0.95837 0.0
H275 H 0.14914 0.14092 0.95447 0.0
H276 H 0.20284 0.1155 0.98943 0.0
H277 H 0.21234 0.07177 0.01076 0.0
H278 H 0.284 0.05856 0.94545 0.0
H279 H 0.27381 0.10256 0.92302 0.0
H280 H 0.27427 0.14367 0.86035 0.0
H281 H 0.29851 0.16149 0.81383 0.0
H282 H 0.26225 0.242 0.83928 0.0
H283 H 0.23734 0.22417 0.8852 0.0
N284 N 0.20963 0.18139 0.90786 0.0
N285 N 0.20197 0.14785 0.94427 0.0
N286 N 0.24543 0.14882 0.91653 0.0
C287 C 0.1923 0.16969 0.92915 0.0
C288 C 0.22845 0.13738 0.93842 0.0
C289 C 0.23623 0.17107 0.90149 0.0
C290 C 0.16218 0.17846 0.93346 0.0
C291 C 0.15237 0.20374 0.92336 0.0
C292 C 0.12337 0.21076 0.92599 0.0
C293 C 0.1038 0.19233 0.9381 0.0
C294 C 0.11366 0.16736 0.94858 0.0
C295 C 0.14249 0.16059 0.94652 0.0
C296 C 0.2373 0.11244 0.95414 0.0
C297 C 0.22085 0.10354 0.9797 0.0
C298 C 0.22654 0.07847 0.9923 0.0
C299 C 0.249 0.06157 0.9799 0.0
C300 C 0.26638 0.07099 0.95534 0.0
C301 C 0.26064 0.09626 0.94263 0.0
C302 C 0.25382 0.18254 0.87624 0.0
C303 C 0.27187 0.16528 0.85634 0.0
C304 C 0.23383 0.72148 0.34482 0.0
C305 C 0.21392 0.70467 0.32677 0.0
C306 C 0.20764 0.67841 0.33666 0.0
C307 C 0.22155 0.66888 0.36365 0.0
H308 H 0.2255 0.60318 0.42224 0.0
H309 H 0.21659 0.55764 0.44115 0.0
H310 H 0.28074 0.57371 0.51622 0.0
H311 H 0.28926 0.61902 0.49794 0.0
H312 H 0.33483 0.66571 0.49189 0.0
H313 H 0.38413 0.67994 0.50158 0.0
H314 H 0.38094 0.72744 0.41776 0.0
H315 H 0.33146 0.71303 0.40774 0.0
H316 H 0.26363 0.72516 0.38439 0.0
H317 H 0.23935 0.74169 0.33753 0.0
H318 H 0.19227 0.6651 0.32324 0.0
H319 H 0.21669 0.64831 0.37027 0.0
N320 N 0.25048 0.65133 0.4212 0.0
N321 N 0.2915 0.6534 0.45418 0.0
N322 N 0.28424 0.68664 0.41718 0.0
C323 C 0.26652 0.64082 0.44478 0.0
C324 C 0.30057 0.67626 0.44052 0.0
C325 C 0.25908 0.67444 0.40756 0.0
C326 C 0.25833 0.61468 0.45834 0.0
C327 C 0.23731 0.59717 0.44316 0.0
C328 C 0.23228 0.57104 0.45388 0.0
C329 C 0.24796 0.56202 0.48015 0.0
C330 C 0.26795 0.5801 0.49622 0.0
C331 C 0.27307 0.60606 0.48547 0.0
C332 C 0.32921 0.68798 0.44883 0.0
C333 C 0.34443 0.67949 0.47572 0.0
C334 C 0.37267 0.68783 0.48145 0.0
C335 C 0.38645 0.70475 0.46037 0.0
C336 C 0.37093 0.71421 0.43426 0.0
C337 C 0.34253 0.70604 0.42865 0.0
C338 C 0.24229 0.68532 0.38095 0.0
C339 C 0.24792 0.71188 0.37152 0.0
C340 C 0.93898 0.9633 0.79625 0.0
C341 C 0.91206 0.97417 0.78963 0.0
C342 C 0.89561 0.9614 0.76393 0.0
C343 C 0.90524 0.93716 0.74646 0.0
H344 H 0.89512 0.87352 0.66047 0.0
H345 H 0.86075 0.84655 0.6264 0.0
H346 H 0.88219 0.77418 0.6757 0.0
H347 H 0.91795 0.80089 0.7079 0.0
H348 H 0.98157 0.80466 0.74692 0.0
H349 H 0.01985 0.78571 0.77897 0.0
H350 H 0.05629 0.86734 0.7973 0.0
H351 H 0.01851 0.88611 0.76535 0.0
H352 H 0.96924 0.93118 0.78528 0.0
H353 H 0.95226 0.97302 0.81563 0.0
H354 H 0.87475 0.96943 0.75836 0.0
H355 H 0.89155 0.92712 0.7277 0.0
N356 N 0.92268 0.88258 0.71847 0.0
N357 N 0.95331 0.84431 0.71948 0.0
N358 N 0.9645 0.88599 0.74989 0.0
C359 C 0.92919 0.85594 0.70825 0.0
C360 C 0.97132 0.85948 0.73995 0.0
C361 C 0.94023 0.89772 0.73951 0.0
C362 C 0.90916 0.83929 0.68679 0.0
C363 C 0.89259 0.85177 0.66372 0.0
C364 C 0.87269 0.83629 0.6444 0.0
C365 C 0.86829 0.80809 0.64834 0.0
C366 C 0.88519 0.79564 0.67136 0.0
C367 C 0.90563 0.81098 0.69005 0.0
C368 C 0.9968 0.84694 0.75402 0.0
C369 C 0.99818 0.81839 0.75712 0.0
C370 C 0.02001 0.80756 0.77556 0.0
C371 C 0.041 0.82504 0.79079 0.0
C372 C 0.04066 0.85323 0.78563 0.0
C373 C 0.01879 0.86406 0.76757 0.0
C374 C 0.9316 0.92543 0.75426 0.0
C375 C 0.9487 0.93932 0.77871 0.0
C376 C 0.13839 0.91198 0.154 0.0
C377 C 0.15583 0.88868 0.1555 0.0
C378 C 0.13157 0.92894 0.18215 0.0
C379 C 0.14235 0.92247 0.21275 0.0
C380 C 0.15983 0.89891 0.21461 0.0
C381 C 0.16642 0.88228 0.18591 0.0
C382 C 0.11284 0.95389 0.17906 0.0
C383 C 0.17158 0.89134 0.24685 0.0
C384 C 0.14186 0.98517 0.27401 0.0
C385 C 0.11516 0.98249 0.28874 0.0
C386 C 0.15214 0.96462 0.25096 0.0
C387 C 0.13528 0.94085 0.24242 0.0
C388 C 0.10941 0.93701 0.25912 0.0
C389 C 0.09965 0.95791 0.28209 0.0
C390 C 0.17987 0.96948 0.23378 0.0
C391 C 0.09093 0.91185 0.25095 0.0
H392 H 0.13002 0.91713 0.1307 0.0
H393 H 0.17978 0.86423 0.18733 0.0
H394 H 0.09341 0.95248 0.19414 0.0
H395 H 0.12441 0.97296 0.18829 0.0
H396 H 0.10615 0.95597 0.15346 0.0
H397 H 0.18422 0.87196 0.24427 0.0
H398 H 0.1854 0.90827 0.25785 0.0
H399 H 0.15386 0.88878 0.26413 0.0
H400 H 0.1539 0.00417 0.2788 0.0
H401 H 0.07922 0.95552 0.29382 0.0
H402 H 0.17526 0.97471 0.20858 0.0
H403 H 0.19315 0.95053 0.23194 0.0
H404 H 0.19241 0.98666 0.24648 0.0
H405 H 0.08059 0.91332 0.22685 0.0
H406 H 0.07395 0.9099 0.26937 0.0
H407 H 0.10403 0.89278 0.24916 0.0
C408 C 0.62757 0.69977 0.62722 0.0
C409 C 0.62466 0.67553 0.6063 0.0
C410 C 0.61781 0.70091 0.65957 0.0
C411 C 0.60412 0.67755 0.67075 0.0
C412 C 0.60165 0.6529 0.64985 0.0
C413 C 0.61228 0.65211 0.61806 0.0
C414 C 0.62158 0.72724 0.6815 0.0
C415 C 0.58671 0.62766 0.66058 0.0
C416 C 0.58938 0.66426 0.75838 0.0
C417 C 0.56028 0.67076 0.76076 0.0
C418 C 0.60477 0.66867 0.73008 0.0
C419 C 0.59043 0.67903 0.70336 0.0
C420 C 0.56147 0.68712 0.70646 0.0
C421 C 0.54682 0.68311 0.73528 0.0
C422 C 0.63584 0.66057 0.72803 0.0
C423 C 0.54522 0.69777 0.67838 0.0
H424 H 0.63741 0.71783 0.61827 0.0
H425 H 0.60985 0.63335 0.60195 0.0
H426 H 0.6005 0.73706 0.68642 0.0
H427 H 0.63077 0.72266 0.70534 0.0
H428 H 0.63567 0.74227 0.67048 0.0
H429 H 0.58692 0.61004 0.64145 0.0
H430 H 0.59703 0.62098 0.68287 0.0
H431 H 0.56417 0.63274 0.66675 0.0
H432 H 0.59981 0.65486 0.7782 0.0
H433 H 0.52424 0.68786 0.73696 0.0
H434 H 0.6485 0.67643 0.71662 0.0
H435 H 0.63804 0.64085 0.7125 0.0
H436 H 0.64504 0.65772 0.75245 0.0
H437 H 0.55728 0.71455 0.66799 0.0
H438 H 0.52376 0.70569 0.68579 0.0
H439 H 0.54248 0.68083 0.65869 0.0
C440 C 0.80979 0.07616 0.04815 0.0
C441 C 0.79386 0.09901 0.04007 0.0
C442 C 0.79647 0.0529 0.05902 0.0
C443 C 0.7664 0.05245 0.06221 0.0
C444 C 0.75017 0.07579 0.05526 0.0
C445 C 0.7641 0.09882 0.04413 0.0
C446 C 0.81464 0.02845 0.06625 0.0
C447 C 0.71811 0.07616 0.05878 0.0
C448 C 0.74054 0.97869 0.05658 0.0
C449 C 0.74154 0.9732 0.08946 0.0
C450 C 0.74602 0.00528 0.04737 0.0
C451 C 0.75242 0.02689 0.07167 0.0
C452 C 0.75038 0.02212 0.10501 0.0
C453 C 0.74507 0.99527 0.11354 0.0
C454 C 0.74773 0.00953 0.01152 0.0
C455 C 0.75659 0.04472 0.13168 0.0
H456 H 0.83279 0.07613 0.04534 0.0
H457 H 0.75162 0.11646 0.03811 0.0
H458 H 0.81103 0.0233 0.09164 0.0
H459 H 0.80847 0.01008 0.04976 0.0
H460 H 0.8378 0.03236 0.06313 0.0
H461 H 0.709 0.09691 0.05599 0.0
H462 H 0.70842 0.06119 0.03998 0.0
H463 H 0.71189 0.06967 0.08295 0.0
H464 H 0.73718 0.96181 0.03791 0.0
H465 H 0.74594 0.99127 0.13902 0.0
H466 H 0.77047 0.01125 0.00448 0.0
H467 H 0.73699 0.02899 0.00633 0.0
H468 H 0.73792 0.99213 0.99603 0.0
H469 H 0.78 0.04804 0.13363 0.0
H470 H 0.74865 0.03934 0.15572 0.0
H471 H 0.74676 0.0645 0.126 0.0
C472 C 0.43594 0.2912 0.607 0.0
C473 C 0.42933 0.30619 0.58037 0.0
C474 C 0.4645 0.2877 0.61659 0.0
C475 C 0.48674 0.29912 0.59877 0.0
C476 C 0.4801 0.31298 0.57085 0.0
C477 C 0.45151 0.31652 0.56218 0.0
C478 C 0.47075 0.273 0.64662 0.0
C479 C 0.50316 0.32512 0.55084 0.0
C480 C 0.55657 0.3254 0.63577 0.0
C481 C 0.57579 0.3055 0.62245 0.0
C482 C 0.52715 0.32243 0.63031 0.0
C483 C 0.51678 0.29917 0.61061 0.0
C484 C 0.53598 0.27816 0.59872 0.0
C485 C 0.56538 0.28152 0.60497 0.0
C486 C 0.50741 0.34513 0.64384 0.0
C487 C 0.52576 0.25315 0.57751 0.0
H488 H 0.41881 0.28322 0.62113 0.0
H489 H 0.44651 0.32778 0.54127 0.0
H490 H 0.48794 0.25753 0.64169 0.0
H491 H 0.47844 0.28818 0.66646 0.0
H492 H 0.45156 0.26244 0.65536 0.0
H493 H 0.49456 0.3331 0.52828 0.0
H494 H 0.51387 0.3424 0.5656 0.0
H495 H 0.51965 0.30937 0.54388 0.0
H496 H 0.5647 0.34378 0.64964 0.0
H497 H 0.58033 0.26617 0.59467 0.0
H498 H 0.48864 0.33628 0.65558 0.0
H499 H 0.49935 0.35672 0.62363 0.0
H500 H 0.51828 0.35993 0.66197 0.0
H501 H 0.50639 0.24425 0.58798 0.0
H502 H 0.54242 0.23689 0.57442 0.0
H503 H 0.51989 0.25938 0.55306 0.0
C504 C 0.6097 0.60719 0.40992 0.0
C505 C 0.63803 0.60877 0.42113 0.0
C506 C 0.60127 0.58711 0.38518 0.0
C507 C 0.62158 0.56787 0.37166 0.0
C508 C 0.65049 0.57016 0.38179 0.0
C509 C 0.65842 0.59075 0.40626 0.0
C510 C 0.57033 0.58563 0.37467 0.0
C511 C 0.6727 0.54987 0.36819 0.0
C512 C 0.59229 0.49718 0.34274 0.0
C513 C 0.59179 0.49809 0.30881 0.0
C514 C 0.60239 0.51961 0.36332 0.0
C515 C 0.61194 0.5437 0.34966 0.0
C516 C 0.61166 0.54472 0.31536 0.0
C517 C 0.60177 0.52175 0.29527 0.0
C518 C 0.60271 0.51752 0.39975 0.0
C519 C 0.62137 0.5702 0.3 0.0
H520 H 0.59392 0.6213 0.42105 0.0
H521 H 0.68035 0.59185 0.41482 0.0
H522 H 0.56863 0.58406 0.34767 0.0
H523 H 0.56033 0.56683 0.38311 0.0
H524 H 0.55801 0.60392 0.38476 0.0
H525 H 0.69466 0.55612 0.37612 0.0
H526 H 0.66818 0.52921 0.37652 0.0
H527 H 0.67188 0.54776 0.34115 0.0
H528 H 0.585 0.47871 0.3532 0.0
H529 H 0.6013 0.52247 0.26902 0.0
H530 H 0.58861 0.53355 0.41195 0.0
H531 H 0.62459 0.52136 0.40956 0.0
H532 H 0.59545 0.49697 0.40634 0.0
H533 H 0.60777 0.58802 0.30863 0.0
H534 H 0.62037 0.56748 0.27293 0.0
H535 H 0.6436 0.5755 0.30758 0.0
C536 C 0.9337 0.21132 0.96146 0.0
C537 C 0.92817 0.19481 0.98703 0.0
C538 C 0.96177 0.21524 0.95077 0.0
C539 C 0.98471 0.20261 0.96634 0.0
C540 C 0.97926 0.18688 0.99301 0.0
C541 C 0.95108 0.18303 0.00286 0.0
C542 C 0.96678 0.23195 0.9221 0.0
C543 C 0.00312 0.17333 0.01057 0.0
C544 C 0.05344 0.17939 0.92519 0.0
C545 C 0.07295 0.19847 0.94001 0.0
C546 C 0.02416 0.18186 0.93149 0.0
C547 C 0.01428 0.20373 0.95355 0.0
C548 C 0.03372 0.22416 0.96682 0.0
C549 C 0.06295 0.22134 0.95973 0.0
C550 C 0.00414 0.15984 0.91647 0.0
C551 C 0.02402 0.24772 0.9905 0.0
H552 H 0.91603 0.22043 0.94912 0.0
H553 H 0.94699 0.17054 0.02292 0.0
H554 H 0.98376 0.24757 0.92792 0.0
H555 H 0.97424 0.21813 0.90095 0.0
H556 H 0.94712 0.24264 0.9148 0.0
H557 H 0.99545 0.16348 0.03229 0.0
H558 H 0.0134 0.15726 0.99373 0.0
H559 H 0.01975 0.18878 0.01856 0.0
H560 H 0.06129 0.16182 0.90972 0.0
H561 H 0.07815 0.23601 0.97125 0.0
H562 H 0.98479 0.16933 0.90658 0.0
H563 H 0.99707 0.14653 0.93549 0.0
H564 H 0.01445 0.14654 0.89655 0.0
H565 H 0.00418 0.25711 0.98168 0.0
H566 H 0.04062 0.26404 0.99448 0.0
H567 H 0.01915 0.23976 0.01432 0.0
C568 C 0.26502 0.40642 0.53285 0.0
C569 C 0.29492 0.40458 0.53412 0.0
C570 C 0.2516 0.43005 0.5225 0.0
C571 C 0.26852 0.4523 0.51347 0.0
C572 C 0.29865 0.45008 0.51365 0.0
C573 C 0.31141 0.42627 0.52379 0.0
C574 C 0.21943 0.43156 0.52217 0.0
C575 C 0.31755 0.47329 0.50414 0.0
C576 C 0.24627 0.51101 0.46464 0.0
C577 C 0.24593 0.5331 0.48903 0.0
C578 C 0.25082 0.48383 0.47252 0.0
C579 C 0.25538 0.47873 0.50549 0.0
C580 C 0.25235 0.50056 0.53038 0.0
C581 C 0.24754 0.52746 0.52184 0.0
C582 C 0.25336 0.46104 0.44531 0.0
C583 C 0.25689 0.49602 0.56586 0.0
H584 H 0.2521 0.38969 0.54061 0.0
H585 H 0.33451 0.42499 0.52432 0.0
H586 H 0.21217 0.44683 0.54202 0.0
H587 H 0.21167 0.43867 0.49882 0.0
H588 H 0.20941 0.4113 0.52567 0.0
H589 H 0.34059 0.46794 0.50474 0.0
H590 H 0.31204 0.47859 0.4792 0.0
H591 H 0.31401 0.49205 0.52103 0.0
H592 H 0.24506 0.51514 0.43922 0.0
H593 H 0.24661 0.54437 0.54083 0.0
H594 H 0.2429 0.44186 0.45201 0.0
H595 H 0.27626 0.45632 0.44086 0.0
H596 H 0.24375 0.46702 0.42223 0.0
H597 H 0.24528 0.47735 0.57223 0.0
H598 H 0.24975 0.51399 0.58235 0.0
H599 H 0.27995 0.49262 0.57036 0.0
C600 C 0.13681 0.79406 0.94722 0.0
C601 C 0.12944 0.81693 0.96879 0.0
C602 C 0.12601 0.79113 0.91513 0.0
C603 C 0.10741 0.81151 0.90453 0.0
C604 C 0.10063 0.83499 0.92591 0.0
C605 C 0.11176 0.83742 0.95765 0.0
C606 C 0.13389 0.76596 0.8929 0.0
C607 C 0.08096 0.8573 0.91558 0.0
C608 C 0.08909 0.82463 0.81779 0.0
C609 C 0.06076 0.8152 0.81559 0.0
C610 C 0.10577 0.82122 0.84557 0.0
C611 C 0.09372 0.8082 0.87174 0.0
C612 C 0.06614 0.79629 0.86827 0.0
C613 C 0.04998 0.79992 0.84019 0.0
C614 C 0.13526 0.83379 0.84806 0.0
C615 C 0.05253 0.78214 0.89554 0.0
H616 H 0.15057 0.77818 0.95555 0.0
H617 H 0.10613 0.85531 0.97395 0.0
H618 H 0.11477 0.7527 0.88811 0.0
H619 H 0.14133 0.77212 0.86902 0.0
H620 H 0.15084 0.75353 0.9036 0.0
H621 H 0.07846 0.87458 0.93489 0.0
H622 H 0.08929 0.86579 0.89332 0.0
H623 H 0.05955 0.84843 0.90951 0.0
H624 H 0.09768 0.83606 0.79856 0.0
H625 H 0.02807 0.79268 0.83878 0.0
H626 H 0.15047 0.81986 0.85924 0.0
H627 H 0.13454 0.85342 0.864 0.0
H628 H 0.14351 0.83834 0.82383 0.0
H629 H 0.06782 0.76787 0.90598 0.0
H630 H 0.03313 0.77032 0.88721 0.0
H631 H 0.04633 0.79791 0.9154 0.0
C632 C 0.88324 0.10576 0.91345 0.0
C633 C 0.85527 0.1068 0.92553 0.0
C634 C 0.89128 0.08573 0.88857 0.0
C635 C 0.87098 0.06599 0.87582 0.0
C636 C 0.84244 0.06756 0.88704 0.0
C637 C 0.83486 0.08812 0.91161 0.0
C638 C 0.92182 0.08501 0.87692 0.0
C639 C 0.82028 0.04668 0.87433 0.0
C640 C 0.88919 0.02093 0.79826 0.0
C641 C 0.9006 0.99756 0.81117 0.0
C642 C 0.87924 0.04343 0.81896 0.0
C643 C 0.88036 0.04217 0.85322 0.0
C644 C 0.89123 0.01827 0.86623 0.0
C645 C 0.90136 0.99636 0.84506 0.0
C646 C 0.86811 0.06871 0.80427 0.0
C647 C 0.8924 0.01592 0.90258 0.0
H648 H 0.89902 0.12039 0.92383 0.0
H649 H 0.81322 0.08879 0.92086 0.0
H650 H 0.93256 0.06632 0.88466 0.0
H651 H 0.9225 0.08376 0.84989 0.0
H652 H 0.93414 0.10347 0.8868 0.0
H653 H 0.79854 0.05219 0.88339 0.0
H654 H 0.81987 0.04481 0.84728 0.0
H655 H 0.82589 0.02608 0.88215 0.0
H656 H 0.88867 0.02186 0.77204 0.0
H657 H 0.90977 0.97808 0.85503 0.0
H658 H 0.88161 0.08684 0.81237 0.0
H659 H 0.84612 0.07342 0.81292 0.0
H660 H 0.86792 0.06612 0.77717 0.0
H661 H 0.90661 0.03217 0.91439 0.0
H662 H 0.90039 0.99547 0.90865 0.0
H663 H 0.87085 0.01921 0.91329 0.0
C664 C 0.38039 0.34025 0.45045 0.0
C665 C 0.37001 0.31744 0.46543 0.0
C666 C 0.39174 0.33717 0.41895 0.0
C667 C 0.39213 0.3107 0.40156 0.0
C668 C 0.38028 0.28781 0.41579 0.0
C669 C 0.36968 0.29138 0.44781 0.0
C670 C 0.40456 0.36209 0.4049 0.0
C671 C 0.37955 0.25946 0.39762 0.0
C672 C 0.40903 0.31646 0.31258 0.0
C673 C 0.43871 0.31284 0.31262 0.0
C674 C 0.39295 0.31322 0.34073 0.0
C675 C 0.40711 0.30707 0.3697 0.0
C676 C 0.4368 0.30161 0.36915 0.0
C677 C 0.45219 0.3043 0.34048 0.0
C678 C 0.36119 0.31832 0.34007 0.0
C679 C 0.45284 0.29547 0.3996 0.0
H680 H 0.38079 0.36046 0.4639 0.0
H681 H 0.36141 0.27372 0.45916 0.0
H682 H 0.42769 0.35865 0.40044 0.0
H683 H 0.39443 0.36523 0.38111 0.0
H684 H 0.40199 0.38131 0.42134 0.0
H685 H 0.36604 0.24484 0.41008 0.0
H686 H 0.37133 0.26065 0.37244 0.0
H687 H 0.40151 0.251 0.39562 0.0
H688 H 0.3986 0.32293 0.29095 0.0
H689 H 0.47519 0.30181 0.34065 0.0
H690 H 0.35654 0.33906 0.35232 0.0
H691 H 0.34965 0.30292 0.35349 0.0
H692 H 0.35275 0.31746 0.31473 0.0
H693 H 0.45332 0.31428 0.41699 0.0
H694 H 0.47518 0.28893 0.39432 0.0
H695 H 0.44192 0.27902 0.41188 0.0
C696 C 0.2363 0.90837 0.04024 0.0
C697 C 0.20707 0.90313 0.03518 0.0
C698 C 0.24903 0.93234 0.03002 0.0
C699 C 0.2319 0.9518 0.01529 0.0
C700 C 0.20256 0.94619 0.00935 0.0
C701 C 0.19061 0.92179 0.01899 0.0
C702 C 0.28054 0.9372 0.03582 0.0
C703 C 0.18341 0.96657 0.99412 0.0
C704 C 0.2464 0.02849 0.02314 0.0
C705 C 0.25194 0.03326 0.99062 0.0
C706 C 0.24184 0.00169 0.03211 0.0
C707 C 0.24366 0.97903 0.00814 0.0
C708 C 0.25245 0.98343 0.97614 0.0
C709 C 0.25622 0.01056 0.96763 0.0
C710 C 0.23246 0.99797 0.06652 0.0
C711 C 0.25559 0.9597 0.95019 0.0
H712 H 0.24917 0.89384 0.05247 0.0
H713 H 0.168 0.91793 0.01509 0.0
H714 H 0.29079 0.94422 0.01373 0.0
H715 H 0.28367 0.95373 0.05587 0.0
H716 H 0.2916 0.9183 0.04259 0.0
H717 H 0.16118 0.95883 0.99065 0.0
H718 H 0.18291 0.98632 0.00986 0.0
H719 H 0.19191 0.97114 0.97007 0.0
H720 H 0.2439 0.0459 0.04125 0.0
H721 H 0.26057 0.01394 0.94245 0.0
H722 H 0.24472 0.9812 0.07668 0.0
H723 H 0.20959 0.99193 0.06632 0.0
H724 H 0.2351 0.01717 0.08302 0.0
H725 H 0.26625 0.94189 0.96021 0.0
H726 H 0.26801 0.96576 0.929 0.0
H727 H 0.23413 0.95274 0.94136 0.0
C728 C 0.55758 0.72078 0.48488 0.0
C729 C 0.56588 0.69412 0.49162 0.0
C730 C 0.52885 0.72673 0.47823 0.0
C731 C 0.50811 0.70548 0.47815 0.0
C732 C 0.51655 0.67843 0.48414 0.0
C733 C 0.54523 0.67312 0.49082 0.0
C734 C 0.52059 0.75579 0.4719 0.0
C735 C 0.49517 0.65508 0.484 0.0
C736 C 0.42949 0.71666 0.49521 0.0
C737 C 0.41754 0.71026 0.46416 0.0
C738 C 0.4592 0.71727 0.4998 0.0
C739 C 0.47734 0.71119 0.4727 0.0
C740 C 0.46544 0.70663 0.44099 0.0
C741 C 0.43564 0.70624 0.4371 0.0
C742 C 0.47105 0.72249 0.53397 0.0
C743 C 0.48403 0.70004 0.41147 0.0
H744 H 0.57341 0.73711 0.48539 0.0
H745 H 0.55145 0.65238 0.49561 0.0
H746 H 0.50889 0.75571 0.4484 0.0
H747 H 0.50597 0.76445 0.49132 0.0
H748 H 0.53943 0.76964 0.4712 0.0
H749 H 0.50537 0.63508 0.48823 0.0
H750 H 0.479 0.65992 0.50327 0.0
H751 H 0.48369 0.65264 0.46028 0.0
H752 H 0.41556 0.72021 0.51612 0.0
H753 H 0.42655 0.7011 0.41305 0.0
H754 H 0.48899 0.73745 0.53457 0.0
H755 H 0.47955 0.7029 0.54208 0.0
H756 H 0.45455 0.73053 0.55163 0.0
H757 H 0.50247 0.71442 0.41177 0.0
H758 H 0.47199 0.70118 0.38831 0.0
H759 H 0.49269 0.67884 0.41191 0.0
C760 C 0.38488 0.40943 0.64644 0.0
C761 C 0.3596 0.39399 0.64695 0.0
C762 C 0.39259 0.42821 0.67283 0.0
C763 C 0.37493 0.43117 0.70075 0.0
C764 C 0.34984 0.41499 0.70185 0.0
C765 C 0.34228 0.39681 0.67473 0.0
C766 C 0.41923 0.44547 0.67044 0.0
C767 C 0.33085 0.41712 0.73151 0.0
C768 C 0.41038 0.46682 0.77635 0.0
C769 C 0.40013 0.49384 0.77575 0.0
C770 C 0.40129 0.4458 0.75295 0.0
C771 C 0.38214 0.45222 0.72798 0.0
C772 C 0.37132 0.47939 0.72773 0.0
C773 C 0.38025 0.49981 0.75183 0.0
C774 C 0.41277 0.41692 0.75442 0.0
C775 C 0.35133 0.48722 0.70116 0.0
H776 H 0.3983 0.40741 0.62496 0.0
H777 H 0.32287 0.38467 0.67535 0.0
H778 H 0.41351 0.46771 0.67229 0.0
H779 H 0.43392 0.44231 0.69098 0.0
H780 H 0.4308 0.44043 0.64717 0.0
H781 H 0.31328 0.40167 0.72944 0.0
H782 H 0.34361 0.41411 0.7537 0.0
H783 H 0.32136 0.43806 0.73495 0.0
H784 H 0.42568 0.46224 0.79496 0.0
H785 H 0.37262 0.5208 0.75114 0.0
H786 H 0.42688 0.41158 0.73324 0.0
H787 H 0.39498 0.40174 0.75293 0.0
H788 H 0.42514 0.41473 0.77714 0.0
H789 H 0.3623 0.48447 0.67724 0.0
H790 H 0.34399 0.50897 0.70523 0.0
H791 H 0.33236 0.47349 0.69959 0.0
C792 C 0.06059 0.82787 0.11209 0.0
C793 C 0.0736 0.81226 0.086 0.0
C794 C 0.03123 0.82555 0.11782 0.0
C795 C 0.01441 0.80765 0.09647 0.0
C796 C 0.02758 0.79122 0.07067 0.0
C797 C 0.05712 0.7935 0.06595 0.0
C798 C 0.01807 0.84297 0.14603 0.0
C799 C 0.01028 0.77231 0.04703 0.0
C800 C 0.93926 0.79071 0.1231 0.0
C801 C 0.92308 0.81092 0.10898 0.0
C802 C 0.96899 0.78913 0.11898 0.0
C803 C 0.98281 0.80782 0.09972 0.0
C804 C 0.96654 0.82756 0.0844 0.0
C805 C 0.937 0.82908 0.08952 0.0
C806 C 0.9857 0.768 0.13596 0.0
C807 C 0.98045 0.8476 0.06325 0.0
H808 H 0.07335 0.84221 0.12778 0.0
H809 H 0.06707 0.78154 0.0456 0.0
H810 H 0.00382 0.8587 0.13662 0.0
H811 H 0.0048 0.82994 0.16088 0.0
H812 H 0.03444 0.85378 0.16211 0.0
H813 H 0.02399 0.75939 0.02983 0.0
H814 H 0.99657 0.75853 0.06038 0.0
H815 H 0.99594 0.78484 0.03268 0.0
H816 H 0.92875 0.77624 0.13769 0.0
H817 H 0.92499 0.84514 0.07897 0.0
H818 H 0.00093 0.77865 0.15359 0.0
H819 H 0.99846 0.75492 0.11801 0.0
H820 H 0.97167 0.75442 0.1493 0.0
H821 H 0.99489 0.86169 0.07832 0.0
H822 H 0.96455 0.86028 0.05115 0.0
H823 H 0.99366 0.83627 0.04418 0.0
C824 C 0.68699 0.57339 0.541 0.0
C825 C 0.7025 0.5967 0.5335 0.0
C826 C 0.70067 0.55044 0.55215 0.0
C827 C 0.7307 0.55073 0.55618 0.0
C828 C 0.74653 0.5744 0.54947 0.0
C829 C 0.73223 0.59715 0.5381 0.0
C830 C 0.68291 0.52562 0.55907 0.0
C831 C 0.77854 0.57548 0.55377 0.0
C832 C 0.75209 0.49466 0.60917 0.0
C833 C 0.75597 0.47239 0.58553 0.0
C834 C 0.74668 0.52131 0.60001 0.0
C835 C 0.74502 0.52564 0.56648 0.0
C836 C 0.75191 0.50384 0.54271 0.0
C837 C 0.75734 0.47745 0.55255 0.0
C838 C 0.73983 0.54408 0.62614 0.0
C839 C 0.75067 0.50762 0.50671 0.0
H840 H 0.66401 0.57284 0.53774 0.0
H841 H 0.74438 0.61513 0.53253 0.0
H842 H 0.68969 0.5073 0.54298 0.0
H843 H 0.68624 0.52077 0.58465 0.0
H844 H 0.65972 0.52893 0.55517 0.0
H845 H 0.78743 0.59618 0.55008 0.0
H846 H 0.78454 0.57009 0.57853 0.0
H847 H 0.78865 0.56 0.53603 0.0
H848 H 0.75097 0.49092 0.63471 0.0
H849 H 0.76089 0.46036 0.53426 0.0
H850 H 0.71635 0.54698 0.62738 0.0
H851 H 0.74943 0.56395 0.62039 0.0
H852 H 0.74754 0.53914 0.65052 0.0
H853 H 0.72802 0.50854 0.49886 0.0
H854 H 0.76119 0.49035 0.49186 0.0
H855 H 0.76098 0.52731 0.50152 0.0
C856 C 0.89314 0.20588 0.11483 0.0
C857 C 0.87341 0.18509 0.10472 0.0
C858 C 0.90785 0.2054 0.14462 0.0
C859 C 0.90243 0.18379 0.16473 0.0
C860 C 0.88061 0.1643 0.15596 0.0
C861 C 0.86648 0.16511 0.12598 0.0
C862 C 0.93088 0.2266 0.15312 0.0
C863 C 0.87384 0.14116 0.17691 0.0
C864 C 0.96337 0.15339 0.21027 0.0
C865 C 0.95781 0.16321 0.24264 0.0
C866 C 0.94611 0.16089 0.18468 0.0
C867 C 0.9225 0.17857 0.19161 0.0
C868 C 0.91733 0.18941 0.22415 0.0
C869 C 0.9352 0.18167 0.24938 0.0
C870 C 0.95264 0.14912 0.1503 0.0
C871 C 0.89235 0.20825 0.23244 0.0
H872 H 0.89854 0.22144 0.09854 0.0
H873 H 0.85091 0.14924 0.11848 0.0
H874 H 0.93014 0.23401 0.17937 0.0
H875 H 0.95209 0.21697 0.14834 0.0
H876 H 0.92898 0.24462 0.13841 0.0
H877 H 0.85369 0.13032 0.16924 0.0
H878 H 0.89147 0.12588 0.17512 0.0
H879 H 0.872 0.14916 0.2029 0.0
H880 H 0.98118 0.1395 0.20501 0.0
H881 H 0.93093 0.18927 0.27444 0.0
H882 H 0.95441 0.16598 0.13392 0.0
H883 H 0.93495 0.13538 0.14094 0.0
H884 H 0.97279 0.13704 0.14888 0.0
H885 H 0.89172 0.2252 0.21607 0.0
H886 H 0.89315 0.21738 0.25814 0.0
H887 H 0.87215 0.19642 0.22864 0.0
C888 C 0.15658 0.75998 0.15874 0.0
C889 C 0.18067 0.77254 0.14625 0.0
C890 C 0.15823 0.74707 0.18795 0.0
C891 C 0.18463 0.74657 0.20477 0.0
C892 C 0.20913 0.75862 0.1918 0.0
C893 C 0.20682 0.77154 0.16282 0.0
C894 C 0.13165 0.73458 0.2012 0.0
C895 C 0.23777 0.75832 0.20886 0.0
C896 C 0.19174 0.7411 0.29555 0.0
C897 C 0.20161 0.71395 0.29634 0.0
C898 C 0.18421 0.75147 0.26596 0.0
C899 C 0.18687 0.73431 0.23649 0.0
C900 C 0.19515 0.70639 0.23737 0.0
C901 C 0.20237 0.6965 0.26735 0.0
C902 C 0.17514 0.78128 0.26606 0.0
C903 C 0.19834 0.68749 0.20647 0.0
H904 H 0.13626 0.76082 0.14615 0.0
H905 H 0.22559 0.78106 0.15326 0.0
H906 H 0.13554 0.71272 0.20569 0.0
H907 H 0.12604 0.74578 0.22497 0.0
H908 H 0.11312 0.73544 0.18437 0.0
H909 H 0.25495 0.76765 0.19487 0.0
H910 H 0.23638 0.76992 0.23325 0.0
H911 H 0.2439 0.73679 0.21268 0.0
H912 H 0.19076 0.7545 0.31802 0.0
H913 H 0.2102 0.67556 0.26784 0.0
H914 H 0.15572 0.78303 0.25084 0.0
H915 H 0.1923 0.79334 0.25534 0.0
H916 H 0.17073 0.79078 0.29108 0.0
H917 H 0.17938 0.6889 0.19046 0.0
H918 H 0.2013 0.6656 0.21155 0.0
H919 H 0.21718 0.69399 0.19275 0.0
C920 C 0.7328 0.7209 0.58043 0.0
C921 C 0.73184 0.71714 0.5463 0.0
C922 C 0.75595 0.73439 0.59669 0.0
C923 C 0.77821 0.74513 0.5783 0.0
C924 C 0.77737 0.74129 0.54379 0.0
C925 C 0.75436 0.72695 0.52819 0.0
C926 C 0.75646 0.7374 0.63353 0.0
C927 C 0.80027 0.75309 0.52333 0.0
C928 C 0.82002 0.80482 0.62109 0.0
C929 C 0.84562 0.792 0.62931 0.0
C930 C 0.7983 0.78995 0.60372 0.0
C931 C 0.80175 0.76131 0.59522 0.0
C932 C 0.82735 0.74813 0.60349 0.0
C933 C 0.84913 0.76369 0.61996 0.0
C934 C 0.77152 0.80489 0.59477 0.0
C935 C 0.83156 0.71749 0.59539 0.0
H936 H 0.71547 0.7131 0.59443 0.0
H937 H 0.7535 0.72425 0.50177 0.0
H938 H 0.77689 0.72939 0.64265 0.0
H939 H 0.75512 0.75955 0.64252 0.0
H940 H 0.73854 0.72622 0.64414 0.0
H941 H 0.79672 0.74788 0.49679 0.0
H942 H 0.80082 0.77592 0.52823 0.0
H943 H 0.82154 0.74526 0.53 0.0
H944 H 0.81661 0.82646 0.62869 0.0
H945 H 0.86892 0.75356 0.62548 0.0
H946 H 0.75293 0.79685 0.60763 0.0
H947 H 0.76726 0.80109 0.5682 0.0
H948 H 0.77299 0.82754 0.60117 0.0
H949 H 0.81442 0.70587 0.60679 0.0
H950 H 0.85255 0.71027 0.60398 0.0
H951 H 0.83 0.71232 0.56866 0.0
C952 C 0.76703 0.24762 0.06 0.0
C953 C 0.76401 0.22087 0.04467 0.0
C954 C 0.74389 0.26121 0.07576 0.0
C955 C 0.71733 0.24739 0.07698 0.0
C956 C 0.71424 0.22024 0.0618 0.0
C957 C 0.73756 0.20742 0.04541 0.0
C958 C 0.74784 0.2904 0.09102 0.0
C959 C 0.68647 0.2046 0.06334 0.0
C960 C 0.66874 0.27507 0.14568 0.0
C961 C 0.6495 0.29092 0.12916 0.0
C962 C 0.69029 0.2599 0.12874 0.0
C963 C 0.69301 0.26131 0.09466 0.0
C964 C 0.67333 0.27711 0.07785 0.0
C965 C 0.65153 0.29153 0.09533 0.0
C966 C 0.71046 0.2428 0.1474 0.0
C967 C 0.6759 0.27957 0.04166 0.0
H968 H 0.78742 0.25813 0.0592 0.0
H969 H 0.73529 0.18663 0.03377 0.0
H970 H 0.73179 0.30421 0.08103 0.0
H971 H 0.74436 0.29112 0.11772 0.0
H972 H 0.76949 0.29863 0.08666 0.0
H973 H 0.68768 0.18352 0.05057 0.0
H974 H 0.68061 0.20281 0.08917 0.0
H975 H 0.66903 0.21605 0.05219 0.0
H976 H 0.66693 0.27465 0.17189 0.0
H977 H 0.63661 0.30401 0.08278 0.0
H978 H 0.73236 0.25146 0.14679 0.0
H979 H 0.71133 0.22133 0.13578 0.0
H980 H 0.70406 0.2422 0.17329 0.0
H981 H 0.69659 0.2894 0.03648 0.0
H982 H 0.65838 0.29202 0.03212 0.0
H983 H 0.67571 0.25878 0.02817 0.0
C984 C 0.29787 0.28731 0.67188 0.0
C985 C 0.31979 0.28005 0.64975 0.0
C986 C 0.29401 0.27309 0.69968 0.0
C987 C 0.31312 0.25163 0.70603 0.0
C988 C 0.33564 0.2445 0.68403 0.0
C989 C 0.33843 0.25854 0.65577 0.0
C990 C 0.26927 0.28086 0.72206 0.0
C991 C 0.3569 0.22231 0.69055 0.0
C992 C 0.31182 0.23607 0.79463 0.0
C993 C 0.29372 0.21306 0.79312 0.0
C994 C 0.32 0.24775 0.76608 0.0
C995 C 0.30899 0.23661 0.73558 0.0
C996 C 0.29146 0.21275 0.73395 0.0
C997 C 0.28431 0.20106 0.76279 0.0
C998 C 0.33933 0.27274 0.76871 0.0
C999 C 0.27872 0.20066 0.70205 0.0
H1000 H 0.28333 0.30383 0.66707 0.0
H1001 H 0.35556 0.25315 0.63876 0.0
H1002 H 0.25566 0.26248 0.7247 0.0
H1003 H 0.27733 0.28815 0.74672 0.0
H1004 H 0.2558 0.29737 0.71296 0.0
H1005 H 0.37373 0.21989 0.67158 0.0
H1006 H 0.36725 0.22735 0.71465 0.0
H1007 H 0.34579 0.20224 0.69153 0.0
H1008 H 0.3191 0.24523 0.8182 0.0
H1009 H 0.27005 0.1834 0.76182 0.0
H1010 H 0.32691 0.29133 0.7637 0.0
H1011 H 0.35658 0.27022 0.75028 0.0
H1012 H 0.34916 0.27644 0.79333 0.0
H1013 H 0.26331 0.21555 0.69293 0.0
H1014 H 0.26738 0.18088 0.70459 0.0
H1015 H 0.29555 0.19704 0.68332 0.0
C1016 C 0.67262 0.75569 0.4325 0.0
C1017 C 0.67383 0.72677 0.42752 0.0
C1018 C 0.67847 0.7722 0.40695 0.0
C1019 C 0.68577 0.75944 0.37585 0.0
C1020 C 0.68568 0.73029 0.37033 0.0
C1021 C 0.67964 0.71435 0.39617 0.0
C1022 C 0.67805 0.80324 0.41358 0.0
C1023 C 0.69332 0.71586 0.3375 0.0
C1024 C 0.68814 0.79625 0.29833 0.0
C1025 C 0.71763 0.80008 0.29487 0.0
C1026 C 0.67714 0.78442 0.3256 0.0
C1027 C 0.69614 0.77614 0.34975 0.0
C1028 C 0.72575 0.7813 0.34718 0.0
C1029 C 0.7361 0.7933 0.31985 0.0
C1030 C 0.64541 0.77947 0.3277 0.0
C1031 C 0.74673 0.77282 0.37244 0.0
H1032 H 0.66794 0.76548 0.45657 0.0
H1033 H 0.68026 0.69202 0.39192 0.0
H1034 H 0.70018 0.81137 0.41307 0.0
H1035 H 0.66576 0.81271 0.39433 0.0
H1036 H 0.66859 0.80992 0.4377 0.0
H1037 H 0.69037 0.69312 0.33666 0.0
H1038 H 0.68005 0.72383 0.31801 0.0
H1039 H 0.71596 0.72017 0.3319 0.0
H1040 H 0.67377 0.80141 0.27906 0.0
H1041 H 0.75885 0.79681 0.31764 0.0
H1042 H 0.63747 0.78627 0.35247 0.0
H1043 H 0.64094 0.75703 0.32322 0.0
H1044 H 0.63326 0.79044 0.30953 0.0
H1045 H 0.74002 0.78104 0.39722 0.0
H1046 H 0.76874 0.7802 0.36812 0.0
H1047 H 0.74714 0.74996 0.37202 0.0
C1048 C 0.83643 0.24271 0.9153 0.0
C1049 C 0.81771 0.22132 0.92156 0.0
C1050 C 0.83354 0.25647 0.88684 0.0
C1051 C 0.81087 0.24915 0.86486 0.0
C1052 C 0.79174 0.22775 0.87138 0.0
C1053 C 0.79567 0.21382 0.89942 0.0
C1054 C 0.85481 0.27862 0.88017 0.0
C1055 C 0.76688 0.21979 0.84895 0.0
C1056 C 0.78238 0.29983 0.80789 0.0
C1057 C 0.7919 0.28797 0.77766 0.0
C1058 C 0.78925 0.28794 0.83674 0.0
C1059 C 0.8066 0.26403 0.83522 0.0
C1060 C 0.81758 0.25291 0.80484 0.0
C1061 C 0.8097 0.2648 0.77627 0.0
C1062 C 0.77656 0.3 0.86853 0.0
C1063 C 0.83671 0.22785 0.80238 0.0
H1064 H 0.85367 0.24826 0.93231 0.0
H1065 H 0.78108 0.19737 0.9044 0.0
H1066 H 0.86483 0.27358 0.85599 0.0
H1067 H 0.84376 0.29871 0.87927 0.0
H1068 H 0.8719 0.28104 0.89902 0.0
H1069 H 0.75351 0.20323 0.85807 0.0
H1070 H 0.7532 0.23808 0.84625 0.0
H1071 H 0.77478 0.21252 0.82433 0.0
H1072 H 0.76835 0.31761 0.80876 0.0
H1073 H 0.81706 0.25576 0.75277 0.0
H1074 H 0.79348 0.3039 0.8873 0.0
H1075 H 0.76135 0.28498 0.8777 0.0
H1076 H 0.76503 0.31964 0.86584 0.0
H1077 H 0.85414 0.23043 0.82076 0.0
H1078 H 0.8463 0.22396 0.77776 0.0
H1079 H 0.82422 0.20935 0.8076 0.0
C1080 C 0.23492 0.2888 0.54012 0.0
C1081 C 0.26264 0.28227 0.52913 0.0
C1082 C 0.21101 0.27496 0.52584 0.0
C1083 C 0.21493 0.25405 0.50008 0.0
C1084 C 0.24278 0.24766 0.48857 0.0
C1085 C 0.26625 0.26188 0.50314 0.0
C1086 C 0.1816 0.28247 0.53856 0.0
C1087 C 0.24786 0.22543 0.46117 0.0
C1088 C 0.16057 0.19677 0.48215 0.0
C1089 C 0.14765 0.20447 0.4535 0.0
C1090 C 0.18176 0.21328 0.49829 0.0
C1091 C 0.19013 0.23817 0.48557 0.0
C1092 C 0.17625 0.24672 0.45754 0.0
C1093 C 0.15522 0.22973 0.44178 0.0
C1094 C 0.19602 0.20348 0.52817 0.0
C1095 C 0.1845 0.27321 0.44336 0.0
H1096 H 0.23188 0.30461 0.56006 0.0
H1097 H 0.28753 0.2567 0.49436 0.0
H1098 H 0.16767 0.28813 0.51832 0.0
H1099 H 0.17168 0.26436 0.54874 0.0
H1100 H 0.18208 0.29996 0.55785 0.0
H1101 H 0.27079 0.22336 0.45464 0.0
H1102 H 0.2401 0.20526 0.46835 0.0
H1103 H 0.23565 0.23007 0.43915 0.0
H1104 H 0.15446 0.17752 0.49167 0.0
H1105 H 0.14555 0.23571 0.41949 0.0
H1106 H 0.19547 0.21995 0.5486 0.0
H1107 H 0.21879 0.19881 0.52285 0.0
H1108 H 0.18571 0.18464 0.53622 0.0
H1109 H 0.18463 0.29068 0.46263 0.0
H1110 H 0.16978 0.27828 0.4235 0.0
H1111 H 0.20644 0.2713 0.43337 0.0
C1112 C 0.26762 0.7931 0.02893 0.0
C1113 C 0.23999 0.78191 0.02615 0.0
C1114 C 0.29091 0.77917 0.01381 0.0
C1115 C 0.28635 0.75367 0.99512 0.0
C1116 C 0.25841 0.74263 0.99154 0.0
C1117 C 0.23559 0.7568 0.00727 0.0
C1118 C 0.32045 0.79143 0.0184 0.0
C1119 C 0.25267 0.71568 0.97139 0.0
C1120 C 0.34168 0.72674 0.93324 0.0
C1121 C 0.355 0.70612 0.94963 0.0
C1122 C 0.31956 0.74271 0.94794 0.0
C1123 C 0.31084 0.73811 0.9799 0.0
C1124 C 0.32479 0.71786 0.99692 0.0
C1125 C 0.3466 0.70196 0.98147 0.0
C1126 C 0.30496 0.76391 0.92892 0.0
C1127 C 0.31634 0.71265 0.03121 0.0
H1128 H 0.2712 0.81247 0.04355 0.0
H1129 H 0.21426 0.74817 0.00477 0.0
H1130 H 0.33436 0.77712 0.03084 0.0
H1131 H 0.33018 0.79413 0.99436 0.0
H1132 H 0.32028 0.81175 0.03306 0.0
H1133 H 0.22956 0.71052 0.96993 0.0
H1134 H 0.26089 0.71669 0.94627 0.0
H1135 H 0.2641 0.69864 0.98212 0.0
H1136 H 0.34796 0.72976 0.90847 0.0
H1137 H 0.35709 0.68618 0.99425 0.0
H1138 H 0.30547 0.78445 0.94297 0.0
H1139 H 0.28218 0.75819 0.92495 0.0
H1140 H 0.31504 0.76569 0.90481 0.0
H1141 H 0.31725 0.73218 0.04731 0.0
H1142 H 0.33033 0.6972 0.04166 0.0
H1143 H 0.29399 0.70506 0.03133 0.0
loop_
_geom_bond_atom_site_label_1
_geom_bond_atom_site_label_2
_geom_bond_distance
_geom_bond_site_symmetry_2
_ccdc_geom_bond_type
Fe0 O2 1.918 . S
Fe0 O5 1.997 . S
Fe0 O6 2.002 . S
Fe0 O11 1.976 . S
Fe0 O14 1.996 . S
Fe1 O2 1.918 . S
Fe1 O9 1.997 . S
Fe1 O12 1.996 . S
Fe1 O16 1.976 . S
Fe1 O19 2.002 . S
O2 Fe0 1.918 . S
O2 Fe1 1.918 . S
O2 Fe3 1.918 . S
Fe3 O2 1.918 . S
Fe3 O4 2.002 . S
Fe3 O13 1.976 . S
Fe3 O17 1.996 . S
Fe3 O20 1.997 . S
O4 Fe3 2.002 . S
O4 C21 1.295 . S
O5 Fe0 1.997 . S
O5 C21 1.235 . S
O6 Fe0 2.002 . S
O6 C7 1.295 . S
C7 O6 1.295 . S
C7 O9 1.235 . S
C8 O13 1.287 . S
C8 O14 1.255 . S
O9 Fe1 1.997 . S
O9 C7 1.235 . S
C10 O16 1.287 1_556 S
C10 O17 1.255 1_556 S
O11 Fe0 1.976 . S
O11 C18 1.287 . S
O12 Fe1 1.996 . S
O12 C18 1.255 . S
O13 Fe3 1.976 . S
O13 C8 1.287 . S
O14 Fe0 1.996 . S
O14 C8 1.255 . S
C15 O19 1.295 . S
C15 O20 1.235 . S
O16 Fe1 1.976 . S
O16 C10 1.287 1_554 S
O17 Fe3 1.996 . S
O17 C10 1.255 1_554 S
C18 O11 1.287 . S
C18 O12 1.255 . S
O19 Fe1 2.002 . S
O19 C15 1.295 . S
O20 Fe3 1.997 . S
O20 C15 1.235 . S
C21 O4 1.295 . S
C21 O5 1.235 . S
Fe22 O24 1.918 . S
Fe22 O27 1.997 . S
Fe22 O28 2.002 . S
Fe22 O33 1.976 . S
Fe22 O36 1.996 . S
Fe23 O24 1.918 . S
Fe23 O31 1.997 . S
Fe23 O34 1.996 . S
Fe23 O38 1.976 . S
Fe23 O41 2.002 . S
O24 Fe22 1.918 . S
O24 Fe23 1.918 . S
O24 Fe25 1.918 . S
Fe25 O24 1.918 . S
Fe25 O26 2.002 . S
Fe25 O35 1.976 . S
Fe25 O39 1.996 . S
Fe25 O42 1.997 . S
O26 Fe25 2.002 . S
O26 C43 1.295 . S
O27 Fe22 1.997 . S
O27 C43 1.235 . S
O28 Fe22 2.002 . S
O28 C29 1.295 . S
C29 O28 1.295 . S
C29 O31 1.235 . S
C30 O35 1.287 . S
C30 O36 1.255 . S
O31 Fe23 1.997 . S
O31 C29 1.235 . S
C32 O38 1.287 . S
C32 O39 1.255 . S
O33 Fe22 1.976 . S
O33 C40 1.287 . S
O34 Fe23 1.996 . S
O34 C40 1.255 . S
O35 Fe25 1.976 . S
O35 C30 1.287 . S
O36 Fe22 1.996 . S
O36 C30 1.255 . S
C37 O41 1.295 . S
C37 O42 1.235 . S
O38 Fe23 1.976 . S
O38 C32 1.287 . S
O39 Fe25 1.996 . S
O39 C32 1.255 . S
C40 O33 1.287 . S
C40 O34 1.255 . S
O41 Fe23 2.002 . S
O41 C37 1.295 . S
O42 Fe25 1.997 . S
O42 C37 1.235 . S
C43 O26 1.295 . S
C43 O27 1.235 . S
Fe44 O46 1.918 . S
Fe44 O49 1.997 1_554 S
Fe44 O50 2.002 . S
Fe44 O55 1.976 . S
Fe44 O58 1.996 . S
Fe45 O46 1.918 . S
Fe45 O53 2.012 . S
Fe45 O56 1.996 . S
Fe45 O60 1.976 . S
Fe45 O63 2.002 1_554 S
O46 Fe44 1.918 . S
O46 Fe45 1.918 . S
O46 Fe47 1.918 1_554 S
Fe47 O46 1.918 1_556 S
Fe47 O48 2.002 . S
Fe47 O57 1.976 1_556 S
Fe47 O61 1.996 1_556 S
Fe47 O64 1.997 . S
O48 Fe47 2.002 . S
O48 C65 1.295 . S
O49 Fe44 1.997 1_556 S
O49 C65 1.235 . S
O50 Fe44 2.002 . S
O50 C51 1.295 1_554 S
C51 O50 1.295 1_556 S
C51 O53 1.226 1_556 S
C52 O57 1.287 . S
C52 O58 1.255 . S
O53 Fe45 2.012 . S
O53 C51 1.226 1_554 S
C54 O60 1.287 . S
C54 O61 1.255 . S
O55 Fe44 1.976 . S
O55 C62 1.287 . S
O56 Fe45 1.996 . S
O56 C62 1.255 . S
O57 Fe47 1.976 1_554 S
O57 C52 1.287 . S
O58 Fe44 1.996 . S
O58 C52 1.255 . S
C59 O63 1.295 . S
C59 O64 1.235 . S
O60 Fe45 1.976 . S
O60 C54 1.287 . S
O61 Fe47 1.996 1_554 S
O61 C54 1.255 . S
C62 O55 1.287 . S
C62 O56 1.255 . S
O63 Fe45 2.002 1_556 S
O63 C59 1.295 . S
O64 Fe47 1.997 . S
O64 C59 1.235 . S
C65 O48 1.295 . S
C65 O49 1.235 . S
Fe66 O68 1.918 . S
Fe66 O71 1.997 . S
Fe66 O72 2.002 . S
Fe66 O77 1.976 . S
Fe66 O80 1.996 . S
Fe67 O68 1.918 . S
Fe67 O75 1.997 . S
Fe67 O78 1.996 . S
Fe67 O82 1.976 . S
Fe67 O85 2.002 . S
O68 Fe66 1.918 . S
O68 Fe67 1.918 . S
O68 Fe69 1.918 . S
Fe69 O68 1.918 . S
Fe69 O70 2.002 . S
Fe69 O79 1.976 . S
Fe69 O83 1.996 . S
Fe69 O86 1.997 . S
O70 Fe69 2.002 . S
O70 C87 1.295 . S
O71 Fe66 1.997 . S
O71 C87 1.235 . S
O72 Fe66 2.002 . S
O72 C73 1.295 . S
C73 O72 1.295 . S
C73 O75 1.235 . S
C74 O79 1.287 . S
C74 O80 1.255 . S
O75 Fe67 1.997 . S
O75 C73 1.235 . S
C76 O82 1.287 . S
C76 O83 1.255 . S
O77 Fe66 1.976 . S
O77 C84 1.287 . S
O78 Fe67 1.996 . S
O78 C84 1.255 . S
O79 Fe69 1.976 . S
O79 C74 1.287 . S
O80 Fe66 1.996 . S
O80 C74 1.255 . S
C81 O85 1.295 . S
C81 O86 1.235 . S
O82 Fe67 1.976 . S
O82 C76 1.287 . S
O83 Fe69 1.996 . S
O83 C76 1.255 . S
C84 O77 1.287 . S
C84 O78 1.255 . S
O85 Fe67 2.002 . S
O85 C81 1.295 . S
O86 Fe69 1.997 . S
O86 C81 1.235 . S
C87 O70 1.295 . S
C87 O71 1.235 . S
C88 C89 1.384 . S
C88 H101 0.947 . S
C88 C123 1.382 1_655 S
C89 C88 1.384 . S
C89 C90 1.378 . S
C90 C89 1.378 . S
C90 C91 1.378 1_655 S
C90 H102 0.952 . S
C91 C90 1.378 1_455 S
C91 H103 0.950 . S
C91 C122 1.383 . S
H92 C111 0.947 . S
H93 C112 0.946 . S
H94 C114 0.953 . S
H95 C115 0.945 . S
H96 C117 0.952 . S
H97 C118 0.949 . S
H98 C120 0.950 . S
H99 C121 0.948 . S
H100 C123 0.951 . S
H101 C88 0.947 . S
H102 C90 0.952 . S
H103 C91 0.950 . S
N104 C107 1.382 . S
N104 C109 1.363 . S
N105 C107 1.371 . S
N105 C108 1.372 . S
N106 C108 1.361 . S
N106 C109 1.377 . S
C107 N104 1.382 . S
C107 N105 1.371 . S
C107 C110 1.480 . S
C108 N105 1.372 . S
C108 N106 1.361 . S
C108 C116 1.457 . S
C109 N104 1.363 . S
C109 N106 1.377 . S
C109 C122 1.479 . S
C110 C107 1.480 . S
C110 C111 1.383 . S
C110 C115 1.385 . S
C111 H92 0.947 . S
C111 C110 1.383 . S
C111 C112 1.388 . S
C112 H93 0.946 . S
C112 C111 1.388 . S
C112 C113 1.384 . S
C113 C112 1.384 . S
C113 C114 1.377 . S
C114 H94 0.953 . S
C114 C113 1.377 . S
C114 C115 1.369 . S
C115 H95 0.945 . S
C115 C110 1.385 . S
C115 C114 1.369 . S
C116 C108 1.457 . S
C116 C117 1.372 . S
C116 C121 1.364 . S
C117 H96 0.952 . S
C117 C116 1.372 . S
C117 C118 1.389 . S
C118 H97 0.949 . S
C118 C117 1.389 . S
C118 C119 1.387 . S
C119 C118 1.387 . S
C119 C120 1.372 . S
C120 H98 0.950 . S
C120 C119 1.372 . S
C120 C121 1.379 . S
C121 H99 0.948 . S
C121 C116 1.364 . S
C121 C120 1.379 . S
C122 C91 1.383 . S
C122 C109 1.479 . S
C122 C123 1.398 . S
C123 C88 1.382 1_455 S
C123 H100 0.951 . S
C123 C122 1.398 . S
C124 C125 1.384 . S
C124 H137 0.947 . S
C124 C159 1.382 . S
C125 C124 1.384 . S
C125 C126 1.378 . S
C126 C125 1.378 . S
C126 C127 1.378 . S
C126 H138 0.952 . S
C127 C126 1.378 . S
C127 H139 0.950 . S
C127 C158 1.383 . S
H128 C147 0.947 . S
H129 C148 0.946 . S
H130 C150 0.953 . S
H131 C151 0.945 . S
H132 C153 0.952 . S
H133 C154 0.949 . S
H134 C156 0.950 . S
H135 C157 0.948 . S
H136 C159 0.951 . S
H137 C124 0.947 . S
H138 C126 0.952 . S
H139 C127 0.950 . S
N140 C143 1.382 . S
N140 C145 1.363 . S
N141 C143 1.371 . S
N141 C144 1.372 . S
N142 C144 1.361 . S
N142 C145 1.377 . S
C143 N140 1.382 . S
C143 N141 1.371 . S
C143 C146 1.480 . S
C144 N141 1.372 . S
C144 N142 1.361 . S
C144 C152 1.457 . S
C145 N140 1.363 . S
C145 N142 1.377 . S
C145 C158 1.479 . S
C146 C143 1.480 . S
C146 C147 1.383 . S
C146 C151 1.385 . S
C147 H128 0.947 . S
C147 C146 1.383 . S
C147 C148 1.388 . S
C148 H129 0.946 . S
C148 C147 1.388 . S
C148 C149 1.384 . S
C149 C148 1.384 . S
C149 C150 1.377 . S
C150 H130 0.953 . S
C150 C149 1.377 . S
C150 C151 1.369 . S
C151 H131 0.945 . S
C151 C146 1.385 . S
C151 C150 1.369 . S
C152 C144 1.457 . S
C152 C153 1.372 . S
C152 C157 1.364 . S
C153 H132 0.952 . S
C153 C152 1.372 . S
C153 C154 1.389 . S
C154 H133 0.949 . S
C154 C153 1.389 . S
C154 C155 1.387 . S
C155 C154 1.387 . S
C155 C156 1.372 . S
C156 H134 0.950 . S
C156 C155 1.372 . S
C156 C157 1.379 . S
C157 H135 0.948 . S
C157 C152 1.364 . S
C157 C156 1.379 . S
C158 C127 1.383 . S
C158 C145 1.479 . S
C158 C159 1.398 . S
C159 C124 1.382 . S
C159 H136 0.951 . S
C159 C158 1.398 . S
C160 C161 1.384 . S
C160 H173 0.947 . S
C160 C195 1.382 . S
C161 C160 1.384 . S
C161 C162 1.378 . S
C162 C161 1.378 . S
C162 C163 1.378 . S
C162 H174 0.952 . S
C163 C162 1.378 . S
C163 H175 0.950 . S
C163 C194 1.383 . S
H164 C183 0.947 . S
H165 C184 0.946 . S
H166 C186 0.953 . S
H167 C187 0.945 . S
H168 C189 0.952 . S
H169 C190 0.949 . S
H170 C192 0.950 . S
H171 C193 0.948 . S
H172 C195 0.951 . S
H173 C160 0.947 . S
H174 C162 0.952 . S
H175 C163 0.950 . S
N176 C179 1.382 . S
N176 C181 1.363 . S
N177 C179 1.371 . S
N177 C180 1.372 . S
N178 C180 1.361 . S
N178 C181 1.377 . S
C179 N176 1.382 . S
C179 N177 1.371 . S
C179 C182 1.480 . S
C180 N177 1.372 . S
C180 N178 1.361 . S
C180 C188 1.457 . S
C181 N176 1.363 . S
C181 N178 1.377 . S
C181 C194 1.479 . S
C182 C179 1.480 . S
C182 C183 1.383 . S
C182 C187 1.385 . S
C183 H164 0.947 . S
C183 C182 1.383 . S
C183 C184 1.388 . S
C184 H165 0.946 . S
C184 C183 1.388 . S
C184 C185 1.384 . S
C185 C184 1.384 . S
C185 C186 1.377 . S
C186 H166 0.953 . S
C186 C185 1.377 . S
C186 C187 1.369 . S
C187 H167 0.945 . S
C187 C182 1.385 . S
C187 C186 1.369 . S
C188 C180 1.457 . S
C188 C189 1.372 . S
C188 C193 1.364 . S
C189 H168 0.952 . S
C189 C188 1.372 . S
C189 C190 1.389 . S
C190 H169 0.949 . S
C190 C189 1.389 . S
C190 C191 1.387 . S
C191 C190 1.387 . S
C191 C192 1.372 . S
C192 H170 0.950 . S
C192 C191 1.372 . S
C192 C193 1.379 . S
C193 H171 0.948 . S
C193 C188 1.364 . S
C193 C192 1.379 . S
C194 C163 1.383 . S
C194 C181 1.479 . S
C194 C195 1.398 . S
C195 C160 1.382 . S
C195 H172 0.951 . S
C195 C194 1.398 . S
C196 C197 1.384 . S
C196 H209 0.947 . S
C196 C231 1.382 . S
C197 C196 1.384 . S
C197 C198 1.378 . S
C198 C197 1.378 . S
C198 C199 1.378 . S
C198 H210 0.952 . S
C199 C198 1.378 . S
C199 H211 0.950 . S
C199 C230 1.383 . S
H200 C219 0.947 . S
H201 C220 0.946 . S
H202 C222 0.953 . S
H203 C223 0.945 . S
H204 C225 0.952 . S
H205 C226 0.949 . S
H206 C228 0.950 . S
H207 C229 0.948 . S
H208 C231 0.951 . S
H209 C196 0.947 . S
H210 C198 0.952 . S
H211 C199 0.950 . S
N212 C215 1.382 . S
N212 C217 1.363 . S
N213 C215 1.371 . S
N213 C216 1.372 . S
N214 C216 1.361 . S
N214 C217 1.377 . S
C215 N212 1.382 . S
C215 N213 1.371 . S
C215 C218 1.480 . S
C216 N213 1.372 . S
C216 N214 1.361 . S
C216 C224 1.457 . S
C217 N212 1.363 . S
C217 N214 1.377 . S
C217 C230 1.479 . S
C218 C215 1.480 . S
C218 C219 1.383 . S
C218 C223 1.385 . S
C219 H200 0.947 . S
C219 C218 1.383 . S
C219 C220 1.388 . S
C220 H201 0.946 . S
C220 C219 1.388 . S
C220 C221 1.384 . S
C221 C220 1.384 . S
C221 C222 1.377 . S
C222 H202 0.953 . S
C222 C221 1.377 . S
C222 C223 1.369 . S
C223 H203 0.945 . S
C223 C218 1.385 . S
C223 C222 1.369 . S
C224 C216 1.457 . S
C224 C225 1.372 . S
C224 C229 1.364 . S
C225 H204 0.952 . S
C225 C224 1.372 . S
C225 C226 1.389 . S
C226 H205 0.949 . S
C226 C225 1.389 . S
C226 C227 1.387 . S
C227 C226 1.387 . S
C227 C228 1.372 . S
C228 H206 0.950 . S
C228 C227 1.372 . S
C228 C229 1.379 . S
C229 H207 0.948 . S
C229 C224 1.364 . S
C229 C228 1.379 . S
C230 C199 1.383 . S
C230 C217 1.479 . S
C230 C231 1.398 . S
C231 C196 1.382 . S
C231 H208 0.951 . S
C231 C230 1.398 . S
C232 C233 1.384 . S
C232 H245 0.947 . S
C232 C267 1.382 . S
C233 C232 1.384 . S
C233 C234 1.378 . S
C234 C233 1.378 . S
C234 C235 1.378 . S
C234 H246 0.952 . S
C235 C234 1.378 . S
C235 H247 0.950 . S
C235 C266 1.383 . S
H236 C255 0.947 . S
H237 C256 0.946 . S
H238 C258 0.953 . S
H239 C259 0.945 . S
H240 C261 0.952 . S
H241 C262 0.949 . S
H242 C264 0.950 . S
H243 C265 0.948 . S
H244 C267 0.951 . S
H245 C232 0.947 . S
H246 C234 0.952 . S
H247 C235 0.950 . S
N248 C251 1.382 . S
N248 C253 1.363 . S
N249 C251 1.371 . S
N249 C252 1.372 . S
N250 C252 1.361 . S
N250 C253 1.377 . S
C251 N248 1.382 . S
C251 N249 1.371 . S
C251 C254 1.480 . S
C252 N249 1.372 . S
C252 N250 1.361 . S
C252 C260 1.457 . S
C253 N248 1.363 . S
C253 N250 1.377 . S
C253 C266 1.479 . S
C254 C251 1.480 . S
C254 C255 1.383 . S
C254 C259 1.385 . S
C255 H236 0.947 . S
C255 C254 1.383 . S
C255 C256 1.388 . S
C256 H237 0.946 . S
C256 C255 1.388 . S
C256 C257 1.384 . S
C257 C256 1.384 . S
C257 C258 1.377 . S
C258 H238 0.953 . S
C258 C257 1.377 . S
C258 C259 1.369 . S
C259 H239 0.945 . S
C259 C254 1.385 . S
C259 C258 1.369 . S
C260 C252 1.457 . S
C260 C261 1.372 . S
C260 C265 1.364 . S
C261 H240 0.952 . S
C261 C260 1.372 . S
C261 C262 1.389 . S
C262 H241 0.949 . S
C262 C261 1.389 . S
C262 C263 1.387 . S
C263 C262 1.387 . S
C263 C264 1.372 . S
C264 H242 0.950 . S
C264 C263 1.372 . S
C264 C265 1.379 . S
C265 H243 0.948 . S
C265 C260 1.364 . S
C265 C264 1.379 . S
C266 C235 1.383 . S
C266 C253 1.479 . S
C266 C267 1.398 . S
C267 C232 1.382 . S
C267 H244 0.951 . S
C267 C266 1.398 . S
C268 C269 1.384 . S
C268 H281 0.947 . S
C268 C303 1.382 . S
C269 C268 1.384 . S
C269 C270 1.378 . S
C270 C269 1.378 . S
C270 C271 1.378 . S
C270 H282 0.952 . S
C271 C270 1.378 . S
C271 H283 0.950 . S
C271 C302 1.383 . S
H272 C291 0.947 . S
H273 C292 0.946 . S
H274 C294 0.953 . S
H275 C295 0.945 . S
H276 C297 0.952 . S
H277 C298 0.949 . S
H278 C300 0.950 . S
H279 C301 0.948 . S
H280 C303 0.951 . S
H281 C268 0.947 . S
H282 C270 0.952 . S
H283 C271 0.950 . S
N284 C287 1.382 . S
N284 C289 1.363 . S
N285 C287 1.371 . S
N285 C288 1.372 . S
N286 C288 1.361 . S
N286 C289 1.377 . S
C287 N284 1.382 . S
C287 N285 1.371 . S
C287 C290 1.480 . S
C288 N285 1.372 . S
C288 N286 1.361 . S
C288 C296 1.457 . S
C289 N284 1.363 . S
C289 N286 1.377 . S
C289 C302 1.479 . S
C290 C287 1.480 . S
C290 C291 1.383 . S
C290 C295 1.385 . S
C291 H272 0.947 . S
C291 C290 1.383 . S
C291 C292 1.388 . S
C292 H273 0.946 . S
C292 C291 1.388 . S
C292 C293 1.384 . S
C293 C292 1.384 . S
C293 C294 1.377 . S
C294 H274 0.953 . S
C294 C293 1.377 . S
C294 C295 1.369 . S
C295 H275 0.945 . S
C295 C290 1.385 . S
C295 C294 1.369 . S
C296 C288 1.457 . S
C296 C297 1.372 . S
C296 C301 1.364 . S
C297 H276 0.952 . S
C297 C296 1.372 . S
C297 C298 1.389 . S
C298 H277 0.949 . S
C298 C297 1.389 . S
C298 C299 1.387 . S
C299 C298 1.387 . S
C299 C300 1.372 . S
C300 H278 0.950 . S
C300 C299 1.372 . S
C300 C301 1.379 . S
C301 H279 0.948 . S
C301 C296 1.364 . S
C301 C300 1.379 . S
C302 C271 1.383 . S
C302 C289 1.479 . S
C302 C303 1.398 . S
C303 C268 1.382 . S
C303 H280 0.951 . S
C303 C302 1.398 . S
C304 C305 1.384 . S
C304 H317 0.947 . S
C304 C339 1.382 . S
C305 C304 1.384 . S
C305 C306 1.378 . S
C306 C305 1.378 . S
C306 C307 1.378 . S
C306 H318 0.952 . S
C307 C306 1.378 . S
C307 H319 0.950 . S
C307 C338 1.383 . S
H308 C327 0.947 . S
H309 C328 0.946 . S
H310 C330 0.953 . S
H311 C331 0.945 . S
H312 C333 0.952 . S
H313 C334 0.949 . S
H314 C336 0.950 . S
H315 C337 0.948 . S
H316 C339 0.951 . S
H317 C304 0.947 . S
H318 C306 0.952 . S
H319 C307 0.950 . S
N320 C323 1.382 . S
N320 C325 1.363 . S
N321 C323 1.371 . S
N321 C324 1.372 . S
N322 C324 1.361 . S
N322 C325 1.377 . S
C323 N320 1.382 . S
C323 N321 1.371 . S
C323 C326 1.480 . S
C324 N321 1.372 . S
C324 N322 1.361 . S
C324 C332 1.457 . S
C325 N320 1.363 . S
C325 N322 1.377 . S
C325 C338 1.479 . S
C326 C323 1.480 . S
C326 C327 1.383 . S
C326 C331 1.385 . S
C327 H308 0.947 . S
C327 C326 1.383 . S
C327 C328 1.388 . S
C328 H309 0.946 . S
C328 C327 1.388 . S
C328 C329 1.384 . S
C329 C328 1.384 . S
C329 C330 1.377 . S
C330 H310 0.953 . S
C330 C329 1.377 . S
C330 C331 1.369 . S
C331 H311 0.945 . S
C331 C326 1.385 . S
C331 C330 1.369 . S
C332 C324 1.457 . S
C332 C333 1.372 . S
C332 C337 1.364 . S
C333 H312 0.952 . S
C333 C332 1.372 . S
C333 C334 1.389 . S
C334 H313 0.949 . S
C334 C333 1.389 . S
C334 C335 1.387 . S
C335 C334 1.387 . S
C335 C336 1.372 . S
C336 H314 0.950 . S
C336 C335 1.372 . S
C336 C337 1.379 . S
C337 H315 0.948 . S
C337 C332 1.364 . S
C337 C336 1.379 . S
C338 C307 1.383 . S
C338 C325 1.479 . S
C338 C339 1.398 . S
C339 C304 1.382 . S
C339 H316 0.951 . S
C339 C338 1.398 . S
C340 C341 1.384 . S
C340 H353 0.947 . S
C340 C375 1.382 . S
C341 C340 1.384 . S
C341 C342 1.378 . S
C342 C341 1.378 . S
C342 C343 1.378 . S
C342 H354 0.952 . S
C343 C342 1.378 . S
C343 H355 0.950 . S
C343 C374 1.383 . S
H344 C363 0.947 . S
H345 C364 0.946 . S
H346 C366 0.953 . S
H347 C367 0.945 . S
H348 C369 0.952 . S
H349 C370 0.949 . S
H350 C372 0.950 . S
H351 C373 0.948 . S
H352 C375 0.951 . S
H353 C340 0.947 . S
H354 C342 0.952 . S
H355 C343 0.950 . S
N356 C359 1.382 . S
N356 C361 1.363 . S
N357 C359 1.371 . S
N357 C360 1.372 . S
N358 C360 1.361 . S
N358 C361 1.377 . S
C359 N356 1.382 . S
C359 N357 1.371 . S
C359 C362 1.480 . S
C360 N357 1.372 . S
C360 N358 1.361 . S
C360 C368 1.457 . S
C361 N356 1.363 . S
C361 N358 1.377 . S
C361 C374 1.479 . S
C362 C359 1.480 . S
C362 C363 1.383 . S
C362 C367 1.385 . S
C363 H344 0.947 . S
C363 C362 1.383 . S
C363 C364 1.388 . S
C364 H345 0.946 . S
C364 C363 1.388 . S
C364 C365 1.384 . S
C365 C364 1.384 . S
C365 C366 1.377 . S
C366 H346 0.953 . S
C366 C365 1.377 . S
C366 C367 1.369 . S
C367 H347 0.945 . S
C367 C362 1.385 . S
C367 C366 1.369 . S
C368 C360 1.457 . S
C368 C369 1.372 . S
C368 C373 1.364 . S
C369 H348 0.952 . S
C369 C368 1.372 . S
C369 C370 1.389 1_655 S
C370 H349 0.949 . S
C370 C369 1.389 1_455 S
C370 C371 1.387 . S
C371 C370 1.387 . S
C371 C372 1.372 . S
C372 H350 0.950 . S
C372 C371 1.372 . S
C372 C373 1.379 1_455 S
C373 H351 0.948 . S
C373 C368 1.364 . S
C373 C372 1.379 1_655 S
C374 C343 1.383 . S
C374 C361 1.479 . S
C374 C375 1.398 . S
C375 C340 1.382 . S
C375 H352 0.951 . S
C375 C374 1.398 . S
C376 C377 1.391 . S
C376 C378 1.394 . S
C376 H392 0.931 . S
C377 C376 1.391 . S
C377 C381 1.376 . S
C378 C376 1.394 . S
C378 C379 1.369 . S
C378 C382 1.531 . S
C379 C378 1.369 . S
C379 C380 1.410 . S
C379 C387 1.503 . S
C380 C379 1.410 . S
C380 C381 1.392 . S
C380 C383 1.511 . S
C381 C377 1.376 . S
C381 C380 1.392 . S
C381 H393 0.929 . S
C382 C378 1.531 . S
C382 H394 0.960 . S
C382 H395 0.962 . S
C382 H396 0.960 . S
C383 C380 1.511 . S
C383 H397 0.961 . S
C383 H398 0.961 . S
C383 H399 0.961 . S
C384 C385 1.363 1_565 S
C384 C386 1.363 . S
C384 H400 0.931 . S
C385 C384 1.363 1_545 S
C385 C389 1.403 1_545 S
C386 C384 1.363 . S
C386 C387 1.370 . S
C386 C390 1.524 . S
C387 C379 1.503 . S
C387 C386 1.370 . S
C387 C388 1.403 . S
C388 C387 1.403 . S
C388 C389 1.404 . S
C388 C391 1.539 . S
C389 C385 1.403 1_565 S
C389 C388 1.404 . S
C389 H401 0.938 . S
C390 C386 1.524 . S
C390 H402 0.956 . S
C390 H403 0.961 . S
C390 H404 0.961 . S
C391 C388 1.539 . S
C391 H405 0.958 . S
C391 H406 0.961 . S
C391 H407 0.960 . S
H392 C376 0.931 . S
H393 C381 0.929 . S
H394 C382 0.960 . S
H395 C382 0.962 . S
H396 C382 0.960 . S
H397 C383 0.961 . S
H398 C383 0.961 . S
H399 C383 0.961 . S
H400 C384 0.931 . S
H401 C389 0.938 . S
H402 C390 0.956 . S
H403 C390 0.961 . S
H404 C390 0.961 . S
H405 C391 0.958 . S
H406 C391 0.961 . S
H407 C391 0.960 . S
C408 C409 1.391 . S
C408 C410 1.394 . S
C408 H424 0.931 . S
C409 C408 1.391 . S
C409 C413 1.376 . S
C410 C408 1.394 . S
C410 C411 1.369 . S
C410 C414 1.531 . S
C411 C410 1.369 . S
C411 C412 1.410 . S
C411 C419 1.503 . S
C412 C411 1.410 . S
C412 C413 1.392 . S
C412 C415 1.511 . S
C413 C409 1.376 . S
C413 C412 1.392 . S
C413 H425 0.929 . S
C414 C410 1.531 . S
C414 H426 0.960 . S
C414 H427 0.962 . S
C414 H428 0.960 . S
C415 C412 1.511 . S
C415 H429 0.961 . S
C415 H430 0.961 . S
C415 H431 0.961 . S
C416 C417 1.370 . S
C416 C418 1.363 . S
C416 H432 0.931 . S
C417 C416 1.370 . S
C417 C421 1.408 . S
C418 C416 1.363 . S
C418 C419 1.370 . S
C418 C422 1.524 . S
C419 C411 1.503 . S
C419 C418 1.370 . S
C419 C420 1.403 . S
C420 C419 1.403 . S
C420 C421 1.404 . S
C420 C423 1.539 . S
C421 C417 1.408 . S
C421 C420 1.404 . S
C421 H433 0.930 . S
C422 C418 1.524 . S
C422 H434 0.956 . S
C422 H435 0.961 . S
C422 H436 0.961 . S
C423 C420 1.539 . S
C423 H437 0.958 . S
C423 H438 0.961 . S
C423 H439 0.960 . S
H424 C408 0.931 . S
H425 C413 0.929 . S
H426 C414 0.960 . S
H427 C414 0.962 . S
H428 C414 0.960 . S
H429 C415 0.961 . S
H430 C415 0.961 . S
H431 C415 0.961 . S
H432 C416 0.931 . S
H433 C421 0.930 . S
H434 C422 0.956 . S
H435 C422 0.961 . S
H436 C422 0.961 . S
H437 C423 0.958 . S
H438 C423 0.961 . S
H439 C423 0.960 . S
C440 C441 1.391 . S
C440 C442 1.394 . S
C440 H456 0.931 . S
C441 C440 1.391 . S
C441 C445 1.376 . S
C442 C440 1.394 . S
C442 C443 1.369 . S
C442 C446 1.531 . S
C443 C442 1.369 . S
C443 C444 1.410 . S
C443 C451 1.503 . S
C444 C443 1.410 . S
C444 C445 1.392 . S
C444 C447 1.511 . S
C445 C441 1.376 . S
C445 C444 1.392 . S
C445 H457 0.929 . S
C446 C442 1.531 . S
C446 H458 0.960 . S
C446 H459 0.962 . S
C446 H460 0.960 . S
C447 C444 1.511 . S
C447 H461 0.961 . S
C447 H462 0.961 . S
C447 H463 0.961 . S
C448 C449 1.370 . S
C448 C450 1.363 . S
C448 H464 0.931 . S
C449 C448 1.370 . S
C449 C453 1.408 . S
C450 C448 1.363 . S
C450 C451 1.370 1_565 S
C450 C454 1.524 . S
C451 C443 1.503 . S
C451 C450 1.370 1_545 S
C451 C452 1.403 . S
C452 C451 1.403 . S
C452 C453 1.404 1_545 S
C452 C455 1.539 . S
C453 C449 1.408 . S
C453 C452 1.404 1_565 S
C453 H465 0.930 . S
C454 C450 1.524 . S
C454 H466 0.956 . S
C454 H467 0.961 1_565 S
C454 H468 0.961 . S
C455 C452 1.539 . S
C455 H469 0.958 . S
C455 H470 0.961 . S
C455 H471 0.960 . S
H456 C440 0.931 . S
H457 C445 0.929 . S
H458 C446 0.960 . S
H459 C446 0.962 . S
H460 C446 0.960 . S
H461 C447 0.961 . S
H462 C447 0.961 . S
H463 C447 0.961 . S
H464 C448 0.931 . S
H465 C453 0.930 . S
H466 C454 0.956 . S
H467 C454 0.961 1_545 S
H468 C454 0.961 . S
H469 C455 0.958 . S
H470 C455 0.961 . S
H471 C455 0.960 . S
C472 C473 1.391 . S
C472 C474 1.394 . S
C472 H488 0.931 . S
C473 C472 1.391 . S
C473 C477 1.376 . S
C474 C472 1.394 . S
C474 C475 1.369 . S
C474 C478 1.531 . S
C475 C474 1.369 . S
C475 C476 1.410 . S
C475 C483 1.503 . S
C476 C475 1.410 . S
C476 C477 1.392 . S
C476 C479 1.511 . S
C477 C473 1.376 . S
C477 C476 1.392 . S
C477 H489 0.929 . S
C478 C474 1.531 . S
C478 H490 0.960 . S
C478 H491 0.962 . S
C478 H492 0.960 . S
C479 C476 1.511 . S
C479 H493 0.961 . S
C479 H494 0.961 . S
C479 H495 0.961 . S
C480 C481 1.370 . S
C480 C482 1.363 . S
C480 H496 0.931 . S
C481 C480 1.370 . S
C481 C485 1.408 . S
C482 C480 1.363 . S
C482 C483 1.370 . S
C482 C486 1.524 . S
C483 C475 1.503 . S
C483 C482 1.370 . S
C483 C484 1.403 . S
C484 C483 1.403 . S
C484 C485 1.404 . S
C484 C487 1.539 . S
C485 C481 1.408 . S
C485 C484 1.404 . S
C485 H497 0.930 . S
C486 C482 1.524 . S
C486 H498 0.956 . S
C486 H499 0.961 . S
C486 H500 0.961 . S
C487 C484 1.539 . S
C487 H501 0.958 . S
C487 H502 0.961 . S
C487 H503 0.960 . S
H488 C472 0.931 . S
H489 C477 0.929 . S
H490 C478 0.960 . S
H491 C478 0.962 . S
H492 C478 0.960 . S
H493 C479 0.961 . S
H494 C479 0.961 . S
H495 C479 0.961 . S
H496 C480 0.931 . S
H497 C485 0.930 . S
H498 C486 0.956 . S
H499 C486 0.961 . S
H500 C486 0.961 . S
H501 C487 0.958 . S
H502 C487 0.961 . S
H503 C487 0.960 . S
C504 C505 1.391 . S
C504 C506 1.394 . S
C504 H520 0.931 . S
C505 C504 1.391 . S
C505 C509 1.376 . S
C506 C504 1.394 . S
C506 C507 1.369 . S
C506 C510 1.531 . S
C507 C506 1.369 . S
C507 C508 1.410 . S
C507 C515 1.503 . S
C508 C507 1.410 . S
C508 C509 1.392 . S
C508 C511 1.511 . S
C509 C505 1.376 . S
C509 C508 1.392 . S
C509 H521 0.929 . S
C510 C506 1.531 . S
C510 H522 0.960 . S
C510 H523 0.962 . S
C510 H524 0.960 . S
C511 C508 1.511 . S
C511 H525 0.961 . S
C511 H526 0.961 . S
C511 H527 0.961 . S
C512 C513 1.370 . S
C512 C514 1.363 . S
C512 H528 0.931 . S
C513 C512 1.370 . S
C513 C517 1.408 . S
C514 C512 1.363 . S
C514 C515 1.370 . S
C514 C518 1.524 . S
C515 C507 1.503 . S
C515 C514 1.370 . S
C515 C516 1.403 . S
C516 C515 1.403 . S
C516 C517 1.404 . S
C516 C519 1.539 . S
C517 C513 1.408 . S
C517 C516 1.404 . S
C517 H529 0.930 . S
C518 C514 1.524 . S
C518 H530 0.956 . S
C518 H531 0.961 . S
C518 H532 0.961 . S
C519 C516 1.539 . S
C519 H533 0.958 . S
C519 H534 0.961 . S
C519 H535 0.960 . S
H520 C504 0.931 . S
H521 C509 0.929 . S
H522 C510 0.960 . S
H523 C510 0.962 . S
H524 C510 0.960 . S
H525 C511 0.961 . S
H526 C511 0.961 . S
H527 C511 0.961 . S
H528 C512 0.931 . S
H529 C517 0.930 . S
H530 C518 0.956 . S
H531 C518 0.961 . S
H532 C518 0.961 . S
H533 C519 0.958 . S
H534 C519 0.961 . S
H535 C519 0.960 . S
C536 C537 1.391 . S
C536 C538 1.394 . S
C536 H552 0.931 . S
C537 C536 1.391 . S
C537 C541 1.376 1_556 S
C538 C536 1.394 . S
C538 C539 1.369 . S
C538 C542 1.531 . S
C539 C538 1.369 . S
C539 C540 1.410 1_556 S
C539 C547 1.503 1_655 S
C540 C539 1.410 1_554 S
C540 C541 1.392 . S
C540 C543 1.511 1_655 S
C541 C537 1.376 1_554 S
C541 C540 1.392 . S
C541 H553 0.929 . S
C542 C538 1.531 . S
C542 H554 0.960 1_655 S
C542 H555 0.962 . S
C542 H556 0.960 . S
C543 C540 1.511 1_455 S
C543 H557 0.961 1_455 S
C543 H558 0.961 . S
C543 H559 0.961 . S
C544 C545 1.370 . S
C544 C546 1.363 . S
C544 H560 0.931 . S
C545 C544 1.370 . S
C545 C549 1.408 . S
C546 C544 1.363 . S
C546 C547 1.370 . S
C546 C550 1.524 . S
C547 C539 1.503 1_455 S
C547 C546 1.370 . S
C547 C548 1.403 . S
C548 C547 1.403 . S
C548 C549 1.404 . S
C548 C551 1.539 . S
C549 C545 1.408 . S
C549 C548 1.404 . S
C549 H561 0.930 . S
C550 C546 1.524 . S
C550 H562 0.956 . S
C550 H563 0.961 . S
C550 H564 0.961 . S
C551 C548 1.539 . S
C551 H565 0.958 . S
C551 H566 0.960 . S
C551 H567 0.960 . S
H552 C536 0.931 . S
H553 C541 0.929 . S
H554 C542 0.960 1_455 S
H555 C542 0.962 . S
H556 C542 0.960 . S
H557 C543 0.961 1_655 S
H558 C543 0.961 . S
H559 C543 0.961 . S
H560 C544 0.931 . S
H561 C549 0.930 . S
H562 C550 0.956 . S
H563 C550 0.961 . S
H564 C550 0.961 . S
H565 C551 0.958 . S
H566 C551 0.960 . S
H567 C551 0.960 . S
C568 C569 1.391 . S
C568 C570 1.394 . S
C568 H584 0.931 . S
C569 C568 1.391 . S
C569 C573 1.376 . S
C570 C568 1.394 . S
C570 C571 1.369 . S
C570 C574 1.531 . S
C571 C570 1.369 . S
C571 C572 1.410 . S
C571 C579 1.503 . S
C572 C571 1.410 . S
C572 C573 1.392 . S
C572 C575 1.511 . S
C573 C569 1.376 . S
C573 C572 1.392 . S
C573 H585 0.929 . S
C574 C570 1.531 . S
C574 H586 0.960 . S
C574 H587 0.962 . S
C574 H588 0.960 . S
C575 C572 1.511 . S
C575 H589 0.961 . S
C575 H590 0.961 . S
C575 H591 0.961 . S
C576 C577 1.370 . S
C576 C578 1.363 . S
C576 H592 0.931 . S
C577 C576 1.370 . S
C577 C581 1.408 . S
C578 C576 1.363 . S
C578 C579 1.370 . S
C578 C582 1.524 . S
C579 C571 1.503 . S
C579 C578 1.370 . S
C579 C580 1.403 . S
C580 C579 1.403 . S
C580 C581 1.404 . S
C580 C583 1.539 . S
C581 C577 1.408 . S
C581 C580 1.404 . S
C581 H593 0.930 . S
C582 C578 1.524 . S
C582 H594 0.956 . S
C582 H595 0.961 . S
C582 H596 0.961 . S
C583 C580 1.539 . S
C583 H597 0.958 . S
C583 H598 0.961 . S
C583 H599 0.960 . S
H584 C568 0.931 . S
H585 C573 0.929 . S
H586 C574 0.960 . S
H587 C574 0.962 . S
H588 C574 0.960 . S
H589 C575 0.961 . S
H590 C575 0.961 . S
H591 C575 0.961 . S
H592 C576 0.931 . S
H593 C581 0.930 . S
H594 C582 0.956 . S
H595 C582 0.961 . S
H596 C582 0.961 . S
H597 C583 0.958 . S
H598 C583 0.961 . S
H599 C583 0.960 . S
C600 C601 1.391 . S
C600 C602 1.394 . S
C600 H616 0.931 . S
C601 C600 1.391 . S
C601 C605 1.376 . S
C602 C600 1.394 . S
C602 C603 1.369 . S
C602 C606 1.531 . S
C603 C602 1.369 . S
C603 C604 1.410 . S
C603 C611 1.503 . S
C604 C603 1.410 . S
C604 C605 1.392 . S
C604 C607 1.511 . S
C605 C601 1.376 . S
C605 C604 1.392 . S
C605 H617 0.929 . S
C606 C602 1.531 . S
C606 H618 0.960 . S
C606 H619 0.962 . S
C606 H620 0.960 . S
C607 C604 1.511 . S
C607 H621 0.961 . S
C607 H622 0.961 . S
C607 H623 0.961 . S
C608 C609 1.370 . S
C608 C610 1.363 . S
C608 H624 0.931 . S
C609 C608 1.370 . S
C609 C613 1.408 . S
C610 C608 1.363 . S
C610 C611 1.370 . S
C610 C614 1.524 . S
C611 C603 1.503 . S
C611 C610 1.370 . S
C611 C612 1.403 . S
C612 C611 1.403 . S
C612 C613 1.404 . S
C612 C615 1.539 . S
C613 C609 1.408 . S
C613 C612 1.404 . S
C613 H625 0.930 . S
C614 C610 1.524 . S
C614 H626 0.956 . S
C614 H627 0.961 . S
C614 H628 0.961 . S
C615 C612 1.539 . S
C615 H629 0.958 . S
C615 H630 0.961 . S
C615 H631 0.960 . S
H616 C600 0.931 . S
H617 C605 0.929 . S
H618 C606 0.960 . S
H619 C606 0.962 . S
H620 C606 0.960 . S
H621 C607 0.961 . S
H622 C607 0.961 . S
H623 C607 0.961 . S
H624 C608 0.931 . S
H625 C613 0.930 . S
H626 C614 0.956 . S
H627 C614 0.961 . S
H628 C614 0.961 . S
H629 C615 0.958 . S
H630 C615 0.961 . S
H631 C615 0.960 . S
C632 C633 1.391 . S
C632 C634 1.394 . S
C632 H648 0.931 . S
C633 C632 1.391 . S
C633 C637 1.376 . S
C634 C632 1.394 . S
C634 C635 1.369 . S
C634 C638 1.531 . S
C635 C634 1.369 . S
C635 C636 1.410 . S
C635 C643 1.503 . S
C636 C635 1.410 . S
C636 C637 1.392 . S
C636 C639 1.511 . S
C637 C633 1.376 . S
C637 C636 1.392 . S
C637 H649 0.929 . S
C638 C634 1.531 . S
C638 H650 0.960 . S
C638 H651 0.962 . S
C638 H652 0.960 . S
C639 C636 1.511 . S
C639 H653 0.961 . S
C639 H654 0.961 . S
C639 H655 0.961 . S
C640 C641 1.370 1_545 S
C640 C642 1.363 . S
C640 H656 0.931 . S
C641 C640 1.370 1_565 S
C641 C645 1.408 . S
C642 C640 1.363 . S
C642 C643 1.370 . S
C642 C646 1.524 . S
C643 C635 1.503 . S
C643 C642 1.370 . S
C643 C644 1.403 . S
C644 C643 1.403 . S
C644 C645 1.404 1_545 S
C644 C647 1.539 1_545 S
C645 C641 1.408 . S
C645 C644 1.404 1_565 S
C645 H657 0.930 . S
C646 C642 1.524 . S
C646 H658 0.956 . S
C646 H659 0.961 . S
C646 H660 0.961 . S
C647 C644 1.539 1_565 S
C647 H661 0.958 1_565 S
C647 H662 0.961 . S
C647 H663 0.960 1_565 S
H648 C632 0.931 . S
H649 C637 0.929 . S
H650 C638 0.960 . S
H651 C638 0.962 . S
H652 C638 0.960 . S
H653 C639 0.961 . S
H654 C639 0.961 . S
H655 C639 0.961 . S
H656 C640 0.931 . S
H657 C645 0.930 . S
H658 C646 0.956 . S
H659 C646 0.961 . S
H660 C646 0.961 . S
H661 C647 0.958 1_545 S
H662 C647 0.961 . S
H663 C647 0.960 1_545 S
C664 C665 1.391 . S
C664 C666 1.394 . S
C664 H680 0.931 . S
C665 C664 1.391 . S
C665 C669 1.376 . S
C666 C664 1.394 . S
C666 C667 1.369 . S
C666 C670 1.531 . S
C667 C666 1.369 . S
C667 C668 1.410 . S
C667 C675 1.503 . S
C668 C667 1.410 . S
C668 C669 1.392 . S
C668 C671 1.511 . S
C669 C665 1.376 . S
C669 C668 1.392 . S
C669 H681 0.929 . S
C670 C666 1.531 . S
C670 H682 0.960 . S
C670 H683 0.962 . S
C670 H684 0.960 . S
C671 C668 1.511 . S
C671 H685 0.961 . S
C671 H686 0.961 . S
C671 H687 0.961 . S
C672 C673 1.370 . S
C672 C674 1.363 . S
C672 H688 0.931 . S
C673 C672 1.370 . S
C673 C677 1.408 . S
C674 C672 1.363 . S
C674 C675 1.370 . S
C674 C678 1.524 . S
C675 C667 1.503 . S
C675 C674 1.370 . S
C675 C676 1.403 . S
C676 C675 1.403 . S
C676 C677 1.404 . S
C676 C679 1.539 . S
C677 C673 1.408 . S
C677 C676 1.404 . S
C677 H689 0.930 . S
C678 C674 1.524 . S
C678 H690 0.956 . S
C678 H691 0.961 . S
C678 H692 0.961 . S
C679 C676 1.539 . S
C679 H693 0.958 . S
C679 H694 0.961 . S
C679 H695 0.960 . S
H680 C664 0.931 . S
H681 C669 0.929 . S
H682 C670 0.960 . S
H683 C670 0.962 . S
H684 C670 0.960 . S
H685 C671 0.961 . S
H686 C671 0.961 . S
H687 C671 0.961 . S
H688 C672 0.931 . S
H689 C677 0.930 . S
H690 C678 0.956 . S
H691 C678 0.961 . S
H692 C678 0.961 . S
H693 C679 0.958 . S
H694 C679 0.961 . S
H695 C679 0.960 . S
C696 C697 1.391 . S
C696 C698 1.394 . S
C696 H712 0.931 . S
C697 C696 1.391 . S
C697 C701 1.376 . S
C698 C696 1.394 . S
C698 C699 1.355 1_554 S
C698 C702 1.531 . S
C699 C698 1.355 1_556 S
C699 C700 1.413 . S
C699 C707 1.512 . S
C700 C699 1.413 . S
C700 C701 1.392 1_556 S
C700 C703 1.511 . S
C701 C697 1.376 . S
C701 C700 1.392 1_554 S
C701 H713 0.929 . S
C702 C698 1.531 . S
C702 H714 0.960 1_554 S
C702 H715 0.962 . S
C702 H716 0.960 . S
C703 C700 1.511 . S
C703 H717 0.961 . S
C703 H718 0.961 1_565 S
C703 H719 0.961 . S
C704 C705 1.370 1_554 S
C704 C706 1.363 . S
C704 H720 0.931 . S
C705 C704 1.370 1_556 S
C705 C709 1.408 . S
C706 C704 1.363 . S
C706 C707 1.370 1_544 S
C706 C710 1.524 . S
C707 C699 1.512 . S
C707 C706 1.370 1_566 S
C707 C708 1.403 . S
C708 C707 1.403 . S
C708 C709 1.404 1_565 S
C708 C711 1.539 . S
C709 C705 1.408 . S
C709 C708 1.404 1_545 S
C709 H721 0.930 . S
C710 C706 1.524 . S
C710 H722 0.956 1_545 S
C710 H723 0.961 . S
C710 H724 0.961 . S
C711 C708 1.539 . S
C711 H725 0.958 . S
C711 H726 0.961 . S
C711 H727 0.960 . S
H712 C696 0.931 . S
H713 C701 0.929 . S
H714 C702 0.960 1_556 S
H715 C702 0.962 . S
H716 C702 0.960 . S
H717 C703 0.961 . S
H718 C703 0.961 1_545 S
H719 C703 0.961 . S
H720 C704 0.931 . S
H721 C709 0.930 . S
H722 C710 0.956 1_565 S
H723 C710 0.961 . S
H724 C710 0.961 . S
H725 C711 0.958 . S
H726 C711 0.961 . S
H727 C711 0.960 . S
C728 C729 1.391 . S
C728 C730 1.394 . S
C728 H744 0.931 . S
C729 C728 1.391 . S
C729 C733 1.376 . S
C730 C728 1.394 . S
C730 C731 1.369 . S
C730 C734 1.531 . S
C731 C730 1.369 . S
C731 C732 1.410 . S
C731 C739 1.503 . S
C732 C731 1.410 . S
C732 C733 1.392 . S
C732 C735 1.511 . S
C733 C729 1.376 . S
C733 C732 1.392 . S
C733 H745 0.929 . S
C734 C730 1.531 . S
C734 H746 0.960 . S
C734 H747 0.962 . S
C734 H748 0.960 . S
C735 C732 1.511 . S
C735 H749 0.961 . S
C735 H750 0.961 . S
C735 H751 0.961 . S
C736 C737 1.370 . S
C736 C738 1.363 . S
C736 H752 0.931 . S
C737 C736 1.370 . S
C737 C741 1.408 . S
C738 C736 1.363 . S
C738 C739 1.370 . S
C738 C742 1.524 . S
C739 C731 1.503 . S
C739 C738 1.370 . S
C739 C740 1.403 . S
C740 C739 1.403 . S
C740 C741 1.404 . S
C740 C743 1.539 . S
C741 C737 1.408 . S
C741 C740 1.404 . S
C741 H753 0.930 . S
C742 C738 1.524 . S
C742 H754 0.956 . S
C742 H755 0.961 . S
C742 H756 0.961 . S
C743 C740 1.539 . S
C743 H757 0.958 . S
C743 H758 0.961 . S
C743 H759 0.960 . S
H744 C728 0.931 . S
H745 C733 0.929 . S
H746 C734 0.960 . S
H747 C734 0.962 . S
H748 C734 0.960 . S
H749 C735 0.961 . S
H750 C735 0.961 . S
H751 C735 0.961 . S
H752 C736 0.931 . S
H753 C741 0.930 . S
H754 C742 0.956 . S
H755 C742 0.961 . S
H756 C742 0.961 . S
H757 C743 0.958 . S
H758 C743 0.961 . S
H759 C743 0.960 . S
C760 C761 1.391 . S
C760 C762 1.394 . S
C760 H776 0.931 . S
C761 C760 1.391 . S
C761 C765 1.376 . S
C762 C760 1.394 . S
C762 C763 1.369 . S
C762 C766 1.531 . S
C763 C762 1.369 . S
C763 C764 1.410 . S
C763 C771 1.503 . S
C764 C763 1.410 . S
C764 C765 1.392 . S
C764 C767 1.511 . S
C765 C761 1.376 . S
C765 C764 1.392 . S
C765 H777 0.929 . S
C766 C762 1.531 . S
C766 H778 0.960 . S
C766 H779 0.962 . S
C766 H780 0.960 . S
C767 C764 1.511 . S
C767 H781 0.961 . S
C767 H782 0.961 . S
C767 H783 0.961 . S
C768 C769 1.370 . S
C768 C770 1.363 . S
C768 H784 0.931 . S
C769 C768 1.370 . S
C769 C773 1.408 . S
C770 C768 1.363 . S
C770 C771 1.370 . S
C770 C774 1.524 . S
C771 C763 1.503 . S
C771 C770 1.370 . S
C771 C772 1.403 . S
C772 C771 1.403 . S
C772 C773 1.404 . S
C772 C775 1.539 . S
C773 C769 1.408 . S
C773 C772 1.404 . S
C773 H785 0.930 . S
C774 C770 1.524 . S
C774 H786 0.956 . S
C774 H787 0.961 . S
C774 H788 0.961 . S
C775 C772 1.539 . S
C775 H789 0.958 . S
C775 H790 0.961 . S
C775 H791 0.960 . S
H776 C760 0.931 . S
H777 C765 0.929 . S
H778 C766 0.960 . S
H779 C766 0.962 . S
H780 C766 0.960 . S
H781 C767 0.961 . S
H782 C767 0.961 . S
H783 C767 0.961 . S
H784 C768 0.931 . S
H785 C773 0.930 . S
H786 C774 0.956 . S
H787 C774 0.961 . S
H788 C774 0.961 . S
H789 C775 0.958 . S
H790 C775 0.961 . S
H791 C775 0.960 . S
C792 C793 1.391 . S
C792 C794 1.394 . S
C792 H808 0.931 . S
C793 C792 1.391 . S
C793 C797 1.376 . S
C794 C792 1.394 . S
C794 C795 1.369 . S
C794 C798 1.531 . S
C795 C794 1.369 . S
C795 C796 1.410 . S
C795 C803 1.503 1_455 S
C796 C795 1.410 . S
C796 C797 1.392 . S
C796 C799 1.511 1_455 S
C797 C793 1.376 . S
C797 C796 1.392 . S
C797 H809 0.929 . S
C798 C794 1.531 . S
C798 H810 0.960 1_455 S
C798 H811 0.962 . S
C798 H812 0.960 . S
C799 C796 1.511 1_655 S
C799 H813 0.961 1_655 S
C799 H814 0.961 . S
C799 H815 0.961 . S
C800 C801 1.370 . S
C800 C802 1.363 . S
C800 H816 0.931 . S
C801 C800 1.370 . S
C801 C805 1.408 . S
C802 C800 1.363 . S
C802 C803 1.370 . S
C802 C806 1.524 . S
C803 C795 1.503 1_655 S
C803 C802 1.370 . S
C803 C804 1.403 . S
C804 C803 1.403 . S
C804 C805 1.404 . S
C804 C807 1.539 . S
C805 C801 1.408 . S
C805 C804 1.404 . S
C805 H817 0.930 . S
C806 C802 1.524 . S
C806 H818 0.956 . S
C806 H819 0.961 . S
C806 H820 0.961 . S
C807 C804 1.539 . S
C807 H821 0.958 . S
C807 H822 0.961 . S
C807 H823 0.960 . S
H808 C792 0.931 . S
H809 C797 0.929 . S
H810 C798 0.960 1_655 S
H811 C798 0.962 . S
H812 C798 0.960 . S
H813 C799 0.961 1_455 S
H814 C799 0.961 . S
H815 C799 0.961 . S
H816 C800 0.931 . S
H817 C805 0.930 . S
H818 C806 0.956 . S
H819 C806 0.961 . S
H820 C806 0.961 . S
H821 C807 0.958 . S
H822 C807 0.961 . S
H823 C807 0.960 . S
C824 C825 1.391 . S
C824 C826 1.394 . S
C824 H840 0.931 . S
C825 C824 1.391 . S
C825 C829 1.376 . S
C826 C824 1.394 . S
C826 C827 1.369 . S
C826 C830 1.531 . S
C827 C826 1.369 . S
C827 C828 1.410 . S
C827 C835 1.503 . S
C828 C827 1.410 . S
C828 C829 1.392 . S
C828 C831 1.511 . S
C829 C825 1.376 . S
C829 C828 1.392 . S
C829 H841 0.929 . S
C830 C826 1.531 . S
C830 H842 0.960 . S
C830 H843 0.962 . S
C830 H844 0.960 . S
C831 C828 1.511 . S
C831 H845 0.961 . S
C831 H846 0.961 . S
C831 H847 0.961 . S
C832 C833 1.370 . S
C832 C834 1.363 . S
C832 H848 0.931 . S
C833 C832 1.370 . S
C833 C837 1.408 . S
C834 C832 1.363 . S
C834 C835 1.370 . S
C834 C838 1.524 . S
C835 C827 1.503 . S
C835 C834 1.370 . S
C835 C836 1.403 . S
C836 C835 1.403 . S
C836 C837 1.404 . S
C836 C839 1.539 . S
C837 C833 1.408 . S
C837 C836 1.404 . S
C837 H849 0.930 . S
C838 C834 1.524 . S
C838 H850 0.956 . S
C838 H851 0.961 . S
C838 H852 0.961 . S
C839 C836 1.539 . S
C839 H853 0.958 . S
C839 H854 0.961 . S
C839 H855 0.960 . S
H840 C824 0.931 . S
H841 C829 0.929 . S
H842 C830 0.960 . S
H843 C830 0.962 . S
H844 C830 0.960 . S
H845 C831 0.961 . S
H846 C831 0.961 . S
H847 C831 0.961 . S
H848 C832 0.931 . S
H849 C837 0.930 . S
H850 C838 0.956 . S
H851 C838 0.961 . S
H852 C838 0.961 . S
H853 C839 0.958 . S
H854 C839 0.961 . S
H855 C839 0.960 . S
C856 C857 1.391 . S
C856 C858 1.394 . S
C856 H872 0.931 . S
C857 C856 1.391 . S
C857 C861 1.376 . S
C858 C856 1.394 . S
C858 C859 1.369 . S
C858 C862 1.531 . S
C859 C858 1.369 . S
C859 C860 1.410 . S
C859 C867 1.503 . S
C860 C859 1.410 . S
C860 C861 1.392 . S
C860 C863 1.511 . S
C861 C857 1.376 . S
C861 C860 1.392 . S
C861 H873 0.929 . S
C862 C858 1.531 . S
C862 H874 0.960 . S
C862 H875 0.962 . S
C862 H876 0.960 . S
C863 C860 1.511 . S
C863 H877 0.961 . S
C863 H878 0.961 . S
C863 H879 0.961 . S
C864 C865 1.370 . S
C864 C866 1.363 . S
C864 H880 0.931 . S
C865 C864 1.370 . S
C865 C869 1.408 . S
C866 C864 1.363 . S
C866 C867 1.370 . S
C866 C870 1.524 . S
C867 C859 1.503 . S
C867 C866 1.370 . S
C867 C868 1.403 . S
C868 C867 1.403 . S
C868 C869 1.404 . S
C868 C871 1.539 . S
C869 C865 1.408 . S
C869 C868 1.404 . S
C869 H881 0.930 . S
C870 C866 1.524 . S
C870 H882 0.956 . S
C870 H883 0.961 . S
C870 H884 0.961 . S
C871 C868 1.539 . S
C871 H885 0.958 . S
C871 H886 0.961 . S
C871 H887 0.960 . S
H872 C856 0.931 . S
H873 C861 0.929 . S
H874 C862 0.960 . S
H875 C862 0.962 . S
H876 C862 0.960 . S
H877 C863 0.961 . S
H878 C863 0.961 . S
H879 C863 0.961 . S
H880 C864 0.931 . S
H881 C869 0.930 . S
H882 C870 0.956 . S
H883 C870 0.961 . S
H884 C870 0.961 . S
H885 C871 0.958 . S
H886 C871 0.961 . S
H887 C871 0.960 . S
C888 C889 1.391 . S
C888 C890 1.394 . S
C888 H904 0.931 . S
C889 C888 1.391 . S
C889 C893 1.376 . S
C890 C888 1.394 . S
C890 C891 1.369 . S
C890 C894 1.531 . S
C891 C890 1.369 . S
C891 C892 1.410 . S
C891 C899 1.503 . S
C892 C891 1.410 . S
C892 C893 1.392 . S
C892 C895 1.511 . S
C893 C889 1.376 . S
C893 C892 1.392 . S
C893 H905 0.929 . S
C894 C890 1.531 . S
C894 H906 0.960 . S
C894 H907 0.962 . S
C894 H908 0.960 . S
C895 C892 1.511 . S
C895 H909 0.961 . S
C895 H910 0.961 . S
C895 H911 0.961 . S
C896 C897 1.370 . S
C896 C898 1.363 . S
C896 H912 0.931 . S
C897 C896 1.370 . S
C897 C901 1.408 . S
C898 C896 1.363 . S
C898 C899 1.370 . S
C898 C902 1.524 . S
C899 C891 1.503 . S
C899 C898 1.370 . S
C899 C900 1.403 . S
C900 C899 1.403 . S
C900 C901 1.404 . S
C900 C903 1.539 . S
C901 C897 1.408 . S
C901 C900 1.404 . S
C901 H913 0.930 . S
C902 C898 1.524 . S
C902 H914 0.956 . S
C902 H915 0.961 . S
C902 H916 0.961 . S
C903 C900 1.539 . S
C903 H917 0.958 . S
C903 H918 0.961 . S
C903 H919 0.960 . S
H904 C888 0.931 . S
H905 C893 0.929 . S
H906 C894 0.960 . S
H907 C894 0.962 . S
H908 C894 0.960 . S
H909 C895 0.961 . S
H910 C895 0.961 . S
H911 C895 0.961 . S
H912 C896 0.931 . S
H913 C901 0.930 . S
H914 C902 0.956 . S
H915 C902 0.961 . S
H916 C902 0.961 . S
H917 C903 0.958 . S
H918 C903 0.961 . S
H919 C903 0.960 . S
C920 C921 1.391 . S
C920 C922 1.394 . S
C920 H936 0.931 . S
C921 C920 1.391 . S
C921 C925 1.376 . S
C922 C920 1.394 . S
C922 C923 1.369 . S
C922 C926 1.531 . S
C923 C922 1.369 . S
C923 C924 1.410 . S
C923 C931 1.503 . S
C924 C923 1.410 . S
C924 C925 1.392 . S
C924 C927 1.511 . S
C925 C921 1.376 . S
C925 C924 1.392 . S
C925 H937 0.929 . S
C926 C922 1.531 . S
C926 H938 0.960 . S
C926 H939 0.962 . S
C926 H940 0.960 . S
C927 C924 1.511 . S
C927 H941 0.961 . S
C927 H942 0.961 . S
C927 H943 0.961 . S
C928 C929 1.370 . S
C928 C930 1.363 . S
C928 H944 0.931 . S
C929 C928 1.370 . S
C929 C933 1.408 . S
C930 C928 1.363 . S
C930 C931 1.370 . S
C930 C934 1.524 . S
C931 C923 1.503 . S
C931 C930 1.370 . S
C931 C932 1.403 . S
C932 C931 1.403 . S
C932 C933 1.404 . S
C932 C935 1.539 . S
C933 C929 1.408 . S
C933 C932 1.404 . S
C933 H945 0.930 . S
C934 C930 1.524 . S
C934 H946 0.956 . S
C934 H947 0.961 . S
C934 H948 0.961 . S
C935 C932 1.539 . S
C935 H949 0.958 . S
C935 H950 0.961 . S
C935 H951 0.960 . S
H936 C920 0.931 . S
H937 C925 0.929 . S
H938 C926 0.960 . S
H939 C926 0.962 . S
H940 C926 0.960 . S
H941 C927 0.961 . S
H942 C927 0.961 . S
H943 C927 0.961 . S
H944 C928 0.931 . S
H945 C933 0.930 . S
H946 C934 0.956 . S
H947 C934 0.961 . S
H948 C934 0.961 . S
H949 C935 0.958 . S
H950 C935 0.961 . S
H951 C935 0.960 . S
C952 C953 1.391 . S
C952 C954 1.394 . S
C952 H968 0.931 . S
C953 C952 1.391 . S
C953 C957 1.376 . S
C954 C952 1.394 . S
C954 C955 1.369 . S
C954 C958 1.531 . S
C955 C954 1.369 . S
C955 C956 1.410 . S
C955 C963 1.503 . S
C956 C955 1.410 . S
C956 C957 1.392 . S
C956 C959 1.511 . S
C957 C953 1.376 . S
C957 C956 1.392 . S
C957 H969 0.929 . S
C958 C954 1.531 . S
C958 H970 0.960 . S
C958 H971 0.962 . S
C958 H972 0.960 . S
C959 C956 1.511 . S
C959 H973 0.961 . S
C959 H974 0.961 . S
C959 H975 0.961 . S
C960 C961 1.370 . S
C960 C962 1.363 . S
C960 H976 0.931 . S
C961 C960 1.370 . S
C961 C965 1.408 . S
C962 C960 1.363 . S
C962 C963 1.370 . S
C962 C966 1.524 . S
C963 C955 1.503 . S
C963 C962 1.370 . S
C963 C964 1.403 . S
C964 C963 1.403 . S
C964 C965 1.404 . S
C964 C967 1.539 . S
C965 C961 1.408 . S
C965 C964 1.404 . S
C965 H977 0.930 . S
C966 C962 1.524 . S
C966 H978 0.956 . S
C966 H979 0.961 . S
C966 H980 0.961 . S
C967 C964 1.539 . S
C967 H981 0.958 . S
C967 H982 0.961 . S
C967 H983 0.960 . S
H968 C952 0.931 . S
H969 C957 0.929 . S
H970 C958 0.960 . S
H971 C958 0.962 . S
H972 C958 0.960 . S
H973 C959 0.961 . S
H974 C959 0.961 . S
H975 C959 0.961 . S
H976 C960 0.931 . S
H977 C965 0.930 . S
H978 C966 0.956 . S
H979 C966 0.961 . S
H980 C966 0.961 . S
H981 C967 0.958 . S
H982 C967 0.961 . S
H983 C967 0.960 . S
C984 C985 1.391 . S
C984 C986 1.394 . S
C984 H1000 0.931 . S
C985 C984 1.391 . S
C985 C989 1.376 . S
C986 C984 1.394 . S
C986 C987 1.369 . S
C986 C990 1.531 . S
C987 C986 1.369 . S
C987 C988 1.410 . S
C987 C995 1.503 . S
C988 C987 1.410 . S
C988 C989 1.392 . S
C988 C991 1.511 . S
C989 C985 1.376 . S
C989 C988 1.392 . S
C989 H1001 0.929 . S
C990 C986 1.531 . S
C990 H1002 0.960 . S
C990 H1003 0.962 . S
C990 H1004 0.960 . S
C991 C988 1.511 . S
C991 H1005 0.961 . S
C991 H1006 0.961 . S
C991 H1007 0.961 . S
C992 C993 1.370 . S
C992 C994 1.363 . S
C992 H1008 0.931 . S
C993 C992 1.370 . S
C993 C997 1.408 . S
C994 C992 1.363 . S
C994 C995 1.370 . S
C994 C998 1.524 . S
C995 C987 1.503 . S
C995 C994 1.370 . S
C995 C996 1.403 . S
C996 C995 1.403 . S
C996 C997 1.404 . S
C996 C999 1.539 . S
C997 C993 1.408 . S
C997 C996 1.404 . S
C997 H1009 0.930 . S
C998 C994 1.524 . S
C998 H1010 0.956 . S
C998 H1011 0.961 . S
C998 H1012 0.961 . S
C999 C996 1.539 . S
C999 H1013 0.958 . S
C999 H1014 0.961 . S
C999 H1015 0.960 . S
H1000 C984 0.931 . S
H1001 C989 0.929 . S
H1002 C990 0.960 . S
H1003 C990 0.962 . S
H1004 C990 0.960 . S
H1005 C991 0.961 . S
H1006 C991 0.961 . S
H1007 C991 0.961 . S
H1008 C992 0.931 . S
H1009 C997 0.930 . S
H1010 C998 0.956 . S
H1011 C998 0.961 . S
H1012 C998 0.961 . S
H1013 C999 0.958 . S
H1014 C999 0.961 . S
H1015 C999 0.960 . S
C1016 C1017 1.391 . S
C1016 C1018 1.394 . S
C1016 H1032 0.931 . S
C1017 C1016 1.391 . S
C1017 C1021 1.376 . S
C1018 C1016 1.394 . S
C1018 C1019 1.369 . S
C1018 C1022 1.531 . S
C1019 C1018 1.369 . S
C1019 C1020 1.410 . S
C1019 C1027 1.503 . S
C1020 C1019 1.410 . S
C1020 C1021 1.392 . S
C1020 C1023 1.511 . S
C1021 C1017 1.376 . S
C1021 C1020 1.392 . S
C1021 H1033 0.929 . S
C1022 C1018 1.531 . S
C1022 H1034 0.960 . S
C1022 H1035 0.962 . S
C1022 H1036 0.960 . S
C1023 C1020 1.511 . S
C1023 H1037 0.961 . S
C1023 H1038 0.961 . S
C1023 H1039 0.961 . S
C1024 C1025 1.370 . S
C1024 C1026 1.363 . S
C1024 H1040 0.931 . S
C1025 C1024 1.370 . S
C1025 C1029 1.408 . S
C1026 C1024 1.363 . S
C1026 C1027 1.370 . S
C1026 C1030 1.524 . S
C1027 C1019 1.503 . S
C1027 C1026 1.370 . S
C1027 C1028 1.403 . S
C1028 C1027 1.403 . S
C1028 C1029 1.404 . S
C1028 C1031 1.539 . S
C1029 C1025 1.408 . S
C1029 C1028 1.404 . S
C1029 H1041 0.930 . S
C1030 C1026 1.524 . S
C1030 H1042 0.956 . S
C1030 H1043 0.961 . S
C1030 H1044 0.961 . S
C1031 C1028 1.539 . S
C1031 H1045 0.958 . S
C1031 H1046 0.961 . S
C1031 H1047 0.960 . S
H1032 C1016 0.931 . S
H1033 C1021 0.929 . S
H1034 C1022 0.960 . S
H1035 C1022 0.962 . S
H1036 C1022 0.960 . S
H1037 C1023 0.961 . S
H1038 C1023 0.961 . S
H1039 C1023 0.961 . S
H1040 C1024 0.931 . S
H1041 C1029 0.930 . S
H1042 C1030 0.956 . S
H1043 C1030 0.961 . S
H1044 C1030 0.961 . S
H1045 C1031 0.958 . S
H1046 C1031 0.961 . S
H1047 C1031 0.960 . S
C1048 C1049 1.391 . S
C1048 C1050 1.394 . S
C1048 H1064 0.931 . S
C1049 C1048 1.391 . S
C1049 C1053 1.376 . S
C1050 C1048 1.394 . S
C1050 C1051 1.369 . S
C1050 C1054 1.531 . S
C1051 C1050 1.369 . S
C1051 C1052 1.410 . S
C1051 C1059 1.503 . S
C1052 C1051 1.410 . S
C1052 C1053 1.392 . S
C1052 C1055 1.511 . S
C1053 C1049 1.376 . S
C1053 C1052 1.392 . S
C1053 H1065 0.929 . S
C1054 C1050 1.531 . S
C1054 H1066 0.960 . S
C1054 H1067 0.962 . S
C1054 H1068 0.960 . S
C1055 C1052 1.511 . S
C1055 H1069 0.961 . S
C1055 H1070 0.961 . S
C1055 H1071 0.961 . S
C1056 C1057 1.370 . S
C1056 C1058 1.363 . S
C1056 H1072 0.931 . S
C1057 C1056 1.370 . S
C1057 C1061 1.408 . S
C1058 C1056 1.363 . S
C1058 C1059 1.370 . S
C1058 C1062 1.524 . S
C1059 C1051 1.503 . S
C1059 C1058 1.370 . S
C1059 C1060 1.403 . S
C1060 C1059 1.403 . S
C1060 C1061 1.404 . S
C1060 C1063 1.539 . S
C1061 C1057 1.408 . S
C1061 C1060 1.404 . S
C1061 H1073 0.930 . S
C1062 C1058 1.524 . S
C1062 H1074 0.956 . S
C1062 H1075 0.961 . S
C1062 H1076 0.961 . S
C1063 C1060 1.539 . S
C1063 H1077 0.958 . S
C1063 H1078 0.961 . S
C1063 H1079 0.960 . S
H1064 C1048 0.931 . S
H1065 C1053 0.929 . S
H1066 C1054 0.960 . S
H1067 C1054 0.962 . S
H1068 C1054 0.960 . S
H1069 C1055 0.961 . S
H1070 C1055 0.961 . S
H1071 C1055 0.961 . S
H1072 C1056 0.931 . S
H1073 C1061 0.930 . S
H1074 C1062 0.956 . S
H1075 C1062 0.961 . S
H1076 C1062 0.961 . S
H1077 C1063 0.958 . S
H1078 C1063 0.961 . S
H1079 C1063 0.960 . S
C1080 C1081 1.391 . S
C1080 C1082 1.394 . S
C1080 H1096 0.931 . S
C1081 C1080 1.391 . S
C1081 C1085 1.376 . S
C1082 C1080 1.394 . S
C1082 C1083 1.369 . S
C1082 C1086 1.531 . S
C1083 C1082 1.369 . S
C1083 C1084 1.410 . S
C1083 C1091 1.503 . S
C1084 C1083 1.410 . S
C1084 C1085 1.392 . S
C1084 C1087 1.511 . S
C1085 C1081 1.376 . S
C1085 C1084 1.392 . S
C1085 H1097 0.929 . S
C1086 C1082 1.531 . S
C1086 H1098 0.960 . S
C1086 H1099 0.962 . S
C1086 H1100 0.960 . S
C1087 C1084 1.511 . S
C1087 H1101 0.961 . S
C1087 H1102 0.961 . S
C1087 H1103 0.961 . S
C1088 C1089 1.370 . S
C1088 C1090 1.363 . S
C1088 H1104 0.931 . S
C1089 C1088 1.370 . S
C1089 C1093 1.408 . S
C1090 C1088 1.363 . S
C1090 C1091 1.370 . S
C1090 C1094 1.524 . S
C1091 C1083 1.503 . S
C1091 C1090 1.370 . S
C1091 C1092 1.403 . S
C1092 C1091 1.403 . S
C1092 C1093 1.404 . S
C1092 C1095 1.539 . S
C1093 C1089 1.408 . S
C1093 C1092 1.404 . S
C1093 H1105 0.930 . S
C1094 C1090 1.524 . S
C1094 H1106 0.956 . S
C1094 H1107 0.961 . S
C1094 H1108 0.961 . S
C1095 C1092 1.539 . S
C1095 H1109 0.958 . S
C1095 H1110 0.961 . S
C1095 H1111 0.960 . S
H1096 C1080 0.931 . S
H1097 C1085 0.929 . S
H1098 C1086 0.960 . S
H1099 C1086 0.962 . S
H1100 C1086 0.960 . S
H1101 C1087 0.961 . S
H1102 C1087 0.961 . S
H1103 C1087 0.961 . S
H1104 C1088 0.931 . S
H1105 C1093 0.930 . S
H1106 C1094 0.956 . S
H1107 C1094 0.961 . S
H1108 C1094 0.961 . S
H1109 C1095 0.958 . S
H1110 C1095 0.961 . S
H1111 C1095 0.960 . S
C1112 C1113 1.391 . S
C1112 C1114 1.394 . S
C1112 H1128 0.931 . S
C1113 C1112 1.391 . S
C1113 C1117 1.376 1_554 S
C1114 C1112 1.394 . S
C1114 C1115 1.369 1_554 S
C1114 C1118 1.531 . S
C1115 C1114 1.369 1_556 S
C1115 C1116 1.410 . S
C1115 C1123 1.503 . S
C1116 C1115 1.410 . S
C1116 C1117 1.392 . S
C1116 C1119 1.511 . S
C1117 C1113 1.376 1_556 S
C1117 C1116 1.392 . S
C1117 H1129 0.929 . S
C1118 C1114 1.531 . S
C1118 H1130 0.960 . S
C1118 H1131 0.962 . S
C1118 H1132 0.960 . S
C1119 C1116 1.511 . S
C1119 H1133 0.961 . S
C1119 H1134 0.961 . S
C1119 H1135 0.961 . S
C1120 C1121 1.370 . S
C1120 C1122 1.363 . S
C1120 H1136 0.931 . S
C1121 C1120 1.370 . S
C1121 C1125 1.408 . S
C1122 C1120 1.363 . S
C1122 C1123 1.370 . S
C1122 C1126 1.524 . S
C1123 C1115 1.503 . S
C1123 C1122 1.370 . S
C1123 C1124 1.403 . S
C1124 C1123 1.403 . S
C1124 C1125 1.404 . S
C1124 C1127 1.539 . S
C1125 C1121 1.408 . S
C1125 C1124 1.404 . S
C1125 H1137 0.930 . S
C1126 C1122 1.524 . S
C1126 H1138 0.956 . S
C1126 H1139 0.961 . S
C1126 H1140 0.961 . S
C1127 C1124 1.539 . S
C1127 H1141 0.958 1_556 S
C1127 H1142 0.961 . S
C1127 H1143 0.960 . S
H1128 C1112 0.931 . S
H1129 C1117 0.929 . S
H1130 C1118 0.960 . S
H1131 C1118 0.962 . S
H1132 C1118 0.960 . S
H1133 C1119 0.961 . S
H1134 C1119 0.961 . S
H1135 C1119 0.961 . S
H1136 C1120 0.931 . S
H1137 C1125 0.930 . S
H1138 C1126 0.956 . S
H1139 C1126 0.961 . S
H1140 C1126 0.961 . S
H1141 C1127 0.958 1_554 S
H1142 C1127 0.961 . S
H1143 C1127 0.960 . S
C377 C7 1.574 . S
C385 C119 1.496 . S
C409 C37 1.519 . S
C417 C155 1.387 . S
C441 C54 1.710 . S
C449 C191 1.572 . S
C481 C221 1.479 . S
C473 C87 1.484 . S
C513 C263 1.451 . S
C505 C30 1.531 . S
C537 C51 1.521 . S
C545 C293 1.522 . S
C569 C84 1.735 . S
C577 C329 1.605 . S
C601 C10 1.479 . S
C609 C371 1.334 . S
C633 C59 1.565 . S
C641 C341 1.495 . S
C673 C233 1.336 . S
C665 C74 1.449 . S
C705 C299 1.656 . S
C697 C18 1.754 . S
C729 C32 1.510 . S
C737 C335 1.484 . S
C769 C125 1.490 . S
C761 C73 1.566 . S
C793 C15 1.508 . S
C801 C185 1.434 . S
C833 C227 1.716 . S
C825 C43 1.774 . S
C865 C89 1.375 . S
C857 C62 1.466 . S
C897 C305 1.523 . S
C889 C21 1.572 . S
C929 C365 1.321 . S
C921 C29 1.347 . S
C953 C52 1.292 . S
C961 C257 1.265 . S
C993 C269 1.507 . S
C985 C81 1.557 . S
C1025 C161 1.438 . S
C1017 C40 1.528 . S
C1049 C65 1.526 . S
C1057 C197 1.493 . S
C1089 C113 1.249 . S
C1081 C76 1.325 . S
C1121 C149 1.306 . S
C1113 C8 1.357 . S
