# Generated by pormake.
# Topology hwx, (6,3)-cn, num edge types: 1
# Building blocks:
#     Node 0, Type 0, BuildingBlock: IZENUY_clean_sbu_0, # of connection points: 6
#     Node 1, Type 0, BuildingBlock: IZENUY_clean_sbu_0, # of connection points: 6
#     Node 2, Type 0, BuildingBlock: IZENUY_clean_sbu_0, # of connection points: 6
#     Node 3, Type 0, BuildingBlock: IZENUY_clean_sbu_0, # of connection points: 6
#     Node 4, Type 1, BuildingBlock: BETDIP_clean_linker_0, # of connection points: 3
#     Node 5, Type 1, BuildingBlock: BETDIP_clean_linker_0, # of connection points: 3
#     Node 6, Type 1, BuildingBlock: BETDIP_clean_linker_0, # of connection points: 3
#     Node 7, Type 1, BuildingBlock: BETDIP_clean_linker_0, # of connection points: 3
#     Node 8, Type 1, BuildingBlock: BETDIP_clean_linker_0, # of connection points: 3
#     Node 9, Type 1, BuildingBlock: BETDIP_clean_linker_0, # of connection points: 3
#     Node 10, Type 1, BuildingBlock: BETDIP_clean_linker_0, # of connection points: 3
#     Node 11, Type 1, BuildingBlock: BETDIP_clean_linker_0, # of connection points: 3
#     Edge 12, Type (0, 1), BuildingBlock: AJUNOK_clean_linker_0, # of connection points: 2
#     Edge 13, Type (0, 1), BuildingBlock: AJUNOK_clean_linker_0, # of connection points: 2
#     Edge 14, Type (0, 1), BuildingBlock: AJUNOK_clean_linker_0, # of connection points: 2
#     Edge 15, Type (0, 1), BuildingBlock: AJUNOK_clean_linker_0, # of connection points: 2
#     Edge 16, Type (0, 1), BuildingBlock: AJUNOK_clean_linker_0, # of connection points: 2
#     Edge 17, Type (0, 1), BuildingBlock: AJUNOK_clean_linker_0, # of connection points: 2
#     Edge 18, Type (0, 1), BuildingBlock: AJUNOK_clean_linker_0, # of connection points: 2
#     Edge 19, Type (0, 1), BuildingBlock: AJUNOK_clean_linker_0, # of connection points: 2
#     Edge 20, Type (0, 1), BuildingBlock: AJUNOK_clean_linker_0, # of connection points: 2
#     Edge 21, Type (0, 1), BuildingBlock: AJUNOK_clean_linker_0, # of connection points: 2
#     Edge 22, Type (0, 1), BuildingBlock: AJUNOK_clean_linker_0, # of connection points: 2
#     Edge 23, Type (0, 1), BuildingBlock: AJUNOK_clean_linker_0, # of connection points: 2
#     Edge 24, Type (0, 1), BuildingBlock: AJUNOK_clean_linker_0, # of connection points: 2
#     Edge 25, Type (0, 1), BuildingBlock: AJUNOK_clean_linker_0, # of connection points: 2
#     Edge 26, Type (0, 1), BuildingBlock: AJUNOK_clean_linker_0, # of connection points: 2
#     Edge 27, Type (0, 1), BuildingBlock: AJUNOK_clean_linker_0, # of connection points: 2
#     Edge 28, Type (0, 1), BuildingBlock: AJUNOK_clean_linker_0, # of connection points: 2
#     Edge 29, Type (0, 1), BuildingBlock: AJUNOK_clean_linker_0, # of connection points: 2
#     Edge 30, Type (0, 1), BuildingBlock: AJUNOK_clean_linker_0, # of connection points: 2
#     Edge 31, Type (0, 1), BuildingBlock: AJUNOK_clean_linker_0, # of connection points: 2
#     Edge 32, Type (0, 1), BuildingBlock: AJUNOK_clean_linker_0, # of connection points: 2
#     Edge 33, Type (0, 1), BuildingBlock: AJUNOK_clean_linker_0, # of connection points: 2
#     Edge 34, Type (0, 1), BuildingBlock: AJUNOK_clean_linker_0, # of connection points: 2
#     Edge 35, Type (0, 1), BuildingBlock: AJUNOK_clean_linker_0, # of connection points: 2
# Relax obj value: 0.003
# Max RMSD: 0.056
# Mean RMSD: 0.046
data_MOF--net-hwx--node1-IZENUY_clean_sbu_0--node2-BETDIP_clean_linker_0--edge1-AJUNOK_clean_linker_0
_symmetry_space_group_name_H-M    P1
_symmetry_Int_Tables_number       1
_symmetry_cell_setting            triclinic
loop_
_symmetry_equiv_pos_as_xyz
'x, y, z'
_cell_length_a     37.937171
_cell_length_b     37.936702
_cell_length_c     15.240443
_cell_angle_alpha  91.960817
_cell_angle_beta   92.031919
_cell_angle_gamma 89.885697
loop_
_atom_site_label
_atom_site_type_symbol
_atom_site_fract_x
_atom_site_fract_y
_atom_site_fract_z
_atom_type_partial_charge
Fe0 Fe 0.25574 0.25728 0.11431 0.0
Fe1 Fe 0.25569 0.26088 0.91392 0.0
O2 O 0.23907 0.24261 0.00945 0.0
Fe3 Fe 0.20571 0.20967 0.00041 0.0
O4 O 0.17535 0.23697 0.06283 0.0
O5 O 0.214 0.25165 0.16865 0.0
O6 O 0.24201 0.30227 0.09567 0.0
C7 C 0.2504 0.32009 0.03129 0.0
C8 C 0.2506 0.18651 0.13977 0.0
O9 O 0.26309 0.30513 0.96387 0.0
C10 C 0.24863 0.18809 0.8682 0.0
O11 O 0.3006 0.26588 0.07927 0.0
O12 O 0.3004 0.247 0.94168 0.0
O13 O 0.22094 0.18669 0.09893 0.0
O14 O 0.27047 0.21318 0.14005 0.0
C15 C 0.18552 0.2566 0.8664 0.0
O16 O 0.25127 0.21996 0.84708 0.0
O17 O 0.23362 0.18005 0.93735 0.0
C18 C 0.31697 0.25501 0.01266 0.0
O19 O 0.21225 0.27605 0.87902 0.0
O20 O 0.18444 0.2266 0.90022 0.0
C21 C 0.18258 0.25061 0.13796 0.0
Fe22 Fe 0.2635 0.75818 0.62538 0.0
Fe23 Fe 0.31494 0.70994 0.52584 0.0
O24 O 0.28144 0.74282 0.52538 0.0
Fe25 Fe 0.26585 0.76037 0.42493 0.0
O26 O 0.2788 0.80496 0.46033 0.0
O27 O 0.25571 0.80321 0.58993 0.0
O28 O 0.30654 0.77297 0.66849 0.0
C29 C 0.33358 0.75358 0.67516 0.0
C30 C 0.20346 0.75398 0.51998 0.0
O31 O 0.33504 0.72452 0.63211 0.0
C32 C 0.27177 0.69032 0.37647 0.0
O33 O 0.26793 0.716 0.67884 0.0
O34 O 0.28667 0.67858 0.5774 0.0
O35 O 0.22047 0.76732 0.45937 0.0
O36 O 0.21922 0.74441 0.58951 0.0
C37 C 0.33938 0.75429 0.4037 0.0
O38 O 0.30086 0.68946 0.41968 0.0
O39 O 0.25193 0.71703 0.3824 0.0
C40 C 0.27094 0.68485 0.64783 0.0
O41 O 0.34584 0.73872 0.47434 0.0
O42 O 0.30822 0.75666 0.37216 0.0
C43 C 0.26923 0.82047 0.53012 0.0
Fe44 Fe 0.76201 0.77435 0.90269 0.0
Fe45 Fe 0.76457 0.7698 0.10326 0.0
O46 O 0.77947 0.78889 0.00671 0.0
Fe47 Fe 0.81187 0.82258 0.0141 0.0
O48 O 0.79514 0.84558 0.91716 0.0
O49 O 0.74595 0.81817 0.87837 0.0
O50 O 0.71794 0.76494 0.9412 0.0
C51 C 0.70229 0.7767 0.00804 0.0
C52 C 0.83469 0.7832 0.87406 0.0
O53 O 0.71926 0.78344 0.07939 0.0
C54 C 0.83514 0.77544 0.1449 0.0
O55 O 0.77695 0.72972 0.91976 0.0
O56 O 0.75694 0.72551 0.05224 0.0
O57 O 0.84215 0.79631 0.94953 0.0
O58 O 0.80301 0.78097 0.84546 0.0
C59 C 0.77182 0.84257 0.15152 0.0
O60 O 0.80886 0.75514 0.13388 0.0
O61 O 0.83462 0.80573 0.1124 0.0
C62 C 0.76915 0.71118 0.98325 0.0
O63 O 0.76986 0.81049 0.17154 0.0
O64 O 0.78379 0.85114 0.07924 0.0
C65 C 0.76507 0.84534 0.87845 0.0
Fe66 Fe 0.70543 0.32137 0.50004 0.0
Fe67 Fe 0.75413 0.27101 0.60102 0.0
O68 O 0.73904 0.2888 0.50069 0.0
Fe69 Fe 0.75758 0.27399 0.40114 0.0
O70 O 0.77228 0.31817 0.3782 0.0
O71 O 0.72206 0.34434 0.40588 0.0
O72 O 0.73211 0.35133 0.57019 0.0
C73 C 0.74422 0.34353 0.6451 0.0
C74 C 0.68486 0.28005 0.35698 0.0
O75 O 0.74692 0.31169 0.66673 0.0
C76 C 0.7518 0.21144 0.484 0.0
O77 O 0.68266 0.30413 0.59423 0.0
O78 O 0.71049 0.2548 0.62235 0.0
O79 O 0.71672 0.27893 0.33496 0.0
O80 O 0.67647 0.29377 0.42983 0.0
C81 C 0.81674 0.27839 0.51986 0.0
O82 O 0.76373 0.22689 0.55382 0.0
O83 O 0.74398 0.22892 0.41716 0.0
C84 C 0.68343 0.27399 0.62785 0.0
O85 O 0.79882 0.28619 0.58603 0.0
O86 O 0.80178 0.26621 0.44971 0.0
C87 C 0.75233 0.34478 0.37353 0.0
H88 H 0.24724 0.53665 0.85988 0.0
H89 H 0.24809 0.54059 0.14336 0.0
H90 H 0.25053 0.6363 0.0023 0.0
H91 H 0.23646 0.48427 0.1319 0.0
C92 C 0.24196 0.47354 0.06698 0.0
C93 C 0.24753 0.55166 0.92173 0.0
C94 C 0.24795 0.58859 0.92188 0.0
C95 C 0.24703 0.53386 0.00091 0.0
C96 C 0.24787 0.55356 0.08138 0.0
C97 C 0.24889 0.59064 0.08207 0.0
C98 C 0.24878 0.60775 0.00211 0.0
N99 N 0.24649 0.49632 0.99605 0.0
H100 H 0.98335 0.75258 0.6649 0.0
H101 H 0.98409 0.7492 0.38151 0.0
H102 H 0.88633 0.75916 0.51187 0.0
H103 H 0.04097 0.75276 0.39761 0.0
C104 C 0.05036 0.75015 0.46505 0.0
C105 C 0.96936 0.7531 0.60171 0.0
C106 C 0.93245 0.75583 0.59771 0.0
C107 C 0.98858 0.75105 0.52464 0.0
C108 C 0.97025 0.75123 0.44216 0.0
C109 C 0.93324 0.75366 0.43766 0.0
C110 C 0.91477 0.75604 0.51548 0.0
N111 N 0.02605 0.74906 0.53385 0.0
H112 H 0.77693 0.49578 0.16303 0.0
H113 H 0.76183 0.49217 0.88125 0.0
H114 H 0.76987 0.39611 0.02145 0.0
H115 H 0.78904 0.54518 0.89362 0.0
C116 C 0.77948 0.55744 0.95361 0.0
C117 C 0.7743 0.48073 0.10142 0.0
C118 C 0.77372 0.44372 0.10142 0.0
C119 C 0.77154 0.49853 0.02212 0.0
C120 C 0.76662 0.47887 0.94217 0.0
C121 C 0.76586 0.44179 0.94155 0.0
C122 C 0.77042 0.42469 0.0213 0.0
N123 N 0.77207 0.5361 0.02568 0.0
H124 H 0.03448 0.27718 0.35113 0.0
H125 H 0.0367 0.27877 0.63472 0.0
H126 H 0.13332 0.27715 0.4979 0.0
H127 H 0.98111 0.29516 0.62063 0.0
C128 C 0.97039 0.28646 0.55661 0.0
C129 C 0.04914 0.27786 0.41352 0.0
C130 C 0.08615 0.27796 0.41511 0.0
C131 C 0.03082 0.27904 0.49212 0.0
C132 C 0.05001 0.27919 0.57324 0.0
C133 C 0.08704 0.27934 0.57524 0.0
C134 C 0.10474 0.27858 0.49621 0.0
N135 N 0.99328 0.27914 0.48627 0.0
H136 H 0.73796 0.99529 0.6608 0.0
H137 H 0.75426 0.99078 0.38171 0.0
H138 H 0.74838 0.89538 0.52318 0.0
H139 H 0.73759 0.04663 0.38596 0.0
C140 C 0.74186 0.05776 0.45198 0.0
C141 C 0.74125 0.98012 0.60008 0.0
C142 C 0.74266 0.94317 0.60113 0.0
C143 C 0.74436 0.99777 0.52113 0.0
C144 C 0.75001 0.97793 0.44262 0.0
C145 C 0.75196 0.94093 0.44363 0.0
C146 C 0.74714 0.92394 0.52243 0.0
N147 N 0.74357 0.03533 0.52496 0.0
H148 H 0.53463 0.25174 0.83983 0.0
H149 H 0.53756 0.25231 0.12361 0.0
H150 H 0.63367 0.25379 0.98489 0.0
H151 H 0.48132 0.25958 0.11341 0.0
C152 C 0.47067 0.25539 0.04699 0.0
C153 C 0.54934 0.2518 0.90213 0.0
C154 C 0.58632 0.25156 0.90345 0.0
C155 C 0.53114 0.25213 0.98085 0.0
C156 C 0.55057 0.25238 0.06178 0.0
C157 C 0.58761 0.25241 0.06344 0.0
C158 C 0.6051 0.25223 0.98406 0.0
N159 N 0.49356 0.25208 0.97519 0.0
H160 H 0.27437 0.03665 0.35611 0.0
H161 H 0.27608 0.04023 0.63986 0.0
H162 H 0.27006 0.13595 0.49954 0.0
H163 H 0.25909 0.98578 0.62546 0.0
C164 C 0.26791 0.97408 0.56423 0.0
C165 C 0.27407 0.05154 0.41805 0.0
C166 C 0.27298 0.08856 0.41871 0.0
C167 C 0.27446 0.03353 0.49712 0.0
C168 C 0.27458 0.05314 0.57775 0.0
C169 C 0.27355 0.09012 0.57883 0.0
C170 C 0.27239 0.10744 0.49913 0.0
N171 N 0.27495 0.99592 0.49285 0.0
H172 H 0.4875 0.78094 0.19237 0.0
H173 H 0.48284 0.77926 0.90884 0.0
H174 H 0.38752 0.7764 0.051 0.0
H175 H 0.53699 0.79918 0.9228 0.0
C176 C 0.54904 0.7901 0.98349 0.0
C177 C 0.47235 0.78043 0.13068 0.0
C178 C 0.4354 0.77961 0.13089 0.0
C179 C 0.48995 0.78115 0.05124 0.0
C180 C 0.46999 0.77975 0.97099 0.0
C181 C 0.43292 0.77831 0.9706 0.0
C182 C 0.41604 0.77848 0.05082 0.0
N183 N 0.52756 0.78222 0.05492 0.0
C184 C 0.12385 0.24089 0.20379 0.0
C185 C 0.15422 0.26168 0.19676 0.0
C186 C 0.10023 0.24772 0.27145 0.0
C187 C 0.10623 0.27568 0.33333 0.0
H188 H 0.11952 0.21796 0.16046 0.0
H189 H 0.07845 0.22974 0.27859 0.0
S190 S 0.17816 0.34169 0.3322 0.0
N191 N 0.18643 0.31391 0.2497 0.0
N192 N 0.14179 0.32717 0.37514 0.0
C193 C 0.13484 0.29833 0.32195 0.0
C194 C 0.15893 0.2912 0.2541 0.0
C195 C 0.28235 0.62616 0.7142 0.0
C196 C 0.26047 0.65581 0.70338 0.0
C197 C 0.2767 0.60261 0.78158 0.0
C198 C 0.24891 0.60801 0.83937 0.0
H199 H 0.30532 0.62252 0.67462 0.0
H200 H 0.29548 0.5815 0.79212 0.0
S201 S 0.18045 0.6776 0.82723 0.0
N202 N 0.20732 0.68638 0.74794 0.0
N203 N 0.19652 0.64195 0.87329 0.0
C204 C 0.22515 0.63568 0.82388 0.0
C205 C 0.23099 0.65965 0.75615 0.0
C206 C 0.85974 0.73844 0.26597 0.0
C207 C 0.86389 0.76666 0.20957 0.0
C208 C 0.88366 0.73305 0.33645 0.0
C209 C 0.91289 0.75539 0.3529 0.0
H210 H 0.83692 0.72133 0.25847 0.0
H211 H 0.87846 0.71208 0.38073 0.0
S212 S 0.93822 0.8306 0.21983 0.0
N213 N 0.9016 0.81529 0.17074 0.0
N214 N 0.94622 0.80509 0.30389 0.0
C215 C 0.9187 0.78224 0.29409 0.0
C216 C 0.89429 0.7879 0.22235 0.0
C217 C 0.72985 0.36737 0.79251 0.0
C218 C 0.74784 0.37127 0.71465 0.0
C219 C 0.73449 0.3915 0.86319 0.0
C220 C 0.7581 0.42003 0.85994 0.0
H221 H 0.71222 0.34524 0.79911 0.0
H222 H 0.72 0.38723 0.92189 0.0
S223 S 0.81056 0.44237 0.66849 0.0
N224 N 0.7885 0.40655 0.63521 0.0
N225 N 0.79875 0.45136 0.77021 0.0
C226 C 0.77539 0.42491 0.78096 0.0
C227 C 0.76998 0.40057 0.70788 0.0
C228 C 0.62601 0.28893 0.28107 0.0
C229 C 0.65722 0.26915 0.29109 0.0
C230 C 0.60221 0.28199 0.20989 0.0
C231 C 0.60876 0.25485 0.14723 0.0
H232 H 0.62095 0.31112 0.3255 0.0
H233 H 0.57963 0.2992 0.20116 0.0
S234 S 0.68322 0.19135 0.15424 0.0
N235 N 0.6911 0.21865 0.23937 0.0
N236 N 0.64601 0.20504 0.10718 0.0
C237 C 0.63842 0.23318 0.1609 0.0
C238 C 0.66276 0.2405 0.23241 0.0
C239 C 0.23946 0.1288 0.79272 0.0
C240 C 0.25909 0.16018 0.80409 0.0
C241 C 0.24568 0.10484 0.72253 0.0
C242 C 0.27193 0.11141 0.66217 0.0
H243 H 0.21786 0.12368 0.83515 0.0
H244 H 0.22857 0.08212 0.71263 0.0
S245 S 0.33477 0.18627 0.67311 0.0
N246 N 0.30864 0.19418 0.75588 0.0
N247 N 0.3208 0.14885 0.62573 0.0
C248 C 0.29351 0.14121 0.6773 0.0
C249 C 0.28696 0.16568 0.74778 0.0
C250 C 0.39826 0.74396 0.3376 0.0
C251 C 0.36833 0.76541 0.34872 0.0
C252 C 0.42179 0.75024 0.27063 0.0
C253 C 0.41611 0.77824 0.21353 0.0
H254 H 0.40213 0.72082 0.37656 0.0
H255 H 0.44311 0.73173 0.25973 0.0
S256 S 0.34565 0.84583 0.22707 0.0
N257 N 0.33716 0.81844 0.30551 0.0
N258 N 0.38151 0.83041 0.18077 0.0
C259 C 0.38812 0.8016 0.22942 0.0
C260 C 0.36418 0.79512 0.29679 0.0
C261 C 0.72714 0.86995 0.7571 0.0
C262 C 0.75523 0.87445 0.81941 0.0
C263 C 0.72133 0.89404 0.69045 0.0
C264 C 0.74311 0.92374 0.68397 0.0
H265 H 0.71068 0.84663 0.7565 0.0
H266 H 0.70081 0.8884 0.64072 0.0
S267 S 0.81678 0.95068 0.83779 0.0
N268 N 0.80233 0.91342 0.8763 0.0
N269 N 0.79149 0.95831 0.7501 0.0
C270 C 0.76938 0.93016 0.74971 0.0
C271 C 0.77543 0.90559 0.81761 0.0
C272 C 0.85655 0.74657 0.74932 0.0
C273 C 0.86293 0.7735 0.81349 0.0
C274 C 0.88047 0.73951 0.68333 0.0
C275 C 0.91149 0.75946 0.67799 0.0
H276 H 0.83237 0.73141 0.74863 0.0
H277 H 0.87394 0.71911 0.63395 0.0
S278 S 0.94141 0.83172 0.83303 0.0
N279 N 0.90352 0.8188 0.8713 0.0
N280 N 0.94815 0.80625 0.74512 0.0
C281 C 0.9191 0.78535 0.74425 0.0
C282 C 0.89485 0.79223 0.81248 0.0
C283 C 0.78989 0.37008 0.25903 0.0
C284 C 0.76171 0.37409 0.3163 0.0
C285 C 0.79545 0.39444 0.19385 0.0
C286 C 0.77327 0.42392 0.18374 0.0
H287 H 0.80667 0.34697 0.26115 0.0
H288 H 0.81613 0.3892 0.14793 0.0
S289 S 0.69921 0.44962 0.32477 0.0
N290 N 0.71411 0.4124 0.36527 0.0
N291 N 0.72441 0.45776 0.24171 0.0
C292 C 0.74686 0.42983 0.2448 0.0
C293 C 0.7411 0.40501 0.31123 0.0
C294 C 0.12853 0.24356 0.78322 0.0
C295 C 0.15751 0.26632 0.80074 0.0
C296 C 0.10425 0.24928 0.71359 0.0
C297 C 0.10809 0.2779 0.65877 0.0
H298 H 0.12524 0.22029 0.82133 0.0
H299 H 0.08351 0.2301 0.69961 0.0
S300 S 0.17591 0.34809 0.6828 0.0
N301 N 0.18604 0.32095 0.76228 0.0
N302 N 0.14049 0.33126 0.63123 0.0
C303 C 0.13543 0.3021 0.67863 0.0
C304 C 0.16008 0.29646 0.74972 0.0
C305 C 0.23547 0.66622 0.24717 0.0
C306 C 0.26352 0.66195 0.30892 0.0
C307 C 0.22979 0.64197 0.17661 0.0
C308 C 0.25174 0.61233 0.16514 0.0
H309 H 0.21846 0.68915 0.25124 0.0
H310 H 0.20867 0.64705 0.12897 0.0
S311 S 0.32677 0.58691 0.3122 0.0
N312 N 0.31179 0.6239 0.35737 0.0
N313 N 0.30125 0.57884 0.22387 0.0
C314 C 0.27866 0.60664 0.22866 0.0
C315 C 0.28454 0.63132 0.30064 0.0
C316 C 0.35683 0.79016 0.80514 0.0
C317 C 0.3617 0.7623 0.74326 0.0
C318 C 0.38095 0.79623 0.87596 0.0
C319 C 0.41107 0.7749 0.88763 0.0
H320 H 0.33358 0.80672 0.80088 0.0
H321 H 0.37545 0.81723 0.92351 0.0
S322 S 0.43794 0.70049 0.74059 0.0
N323 N 0.4007 0.71482 0.69516 0.0
N324 N 0.44547 0.72606 0.82904 0.0
C325 C 0.41725 0.74813 0.82411 0.0
C326 C 0.39272 0.74186 0.75188 0.0
C327 C 0.74425 0.89733 0.21522 0.0
C328 C 0.76896 0.86981 0.22178 0.0
C329 C 0.73985 0.92162 0.28588 0.0
C330 C 0.76036 0.91917 0.36428 0.0
H331 H 0.7274 0.89926 0.15668 0.0
H332 H 0.71936 0.94144 0.28057 0.0
S333 S 0.8328 0.85529 0.40657 0.0
N334 N 0.81661 0.84366 0.30787 0.0
N335 N 0.80936 0.88975 0.4391 0.0
C336 C 0.78678 0.8931 0.36854 0.0
C337 C 0.79078 0.86825 0.29765 0.0
C338 C 0.6268 0.28763 0.70221 0.0
C339 C 0.65509 0.2642 0.6875 0.0
C340 C 0.60279 0.282 0.76822 0.0
C341 C 0.60626 0.25279 0.82194 0.0
H342 H 0.62402 0.31143 0.66529 0.0
H343 H 0.58272 0.30172 0.78076 0.0
S344 S 0.6719 0.18073 0.80295 0.0
N345 N 0.68225 0.20825 0.72633 0.0
N346 N 0.6373 0.1982 0.85077 0.0
C347 C 0.63272 0.2279 0.80423 0.0
C348 C 0.65706 0.23343 0.73683 0.0
C349 C 0.28821 0.16112 0.26046 0.0
C350 C 0.25925 0.15756 0.2004 0.0
C351 C 0.29382 0.13718 0.32745 0.0
C352 C 0.27092 0.10855 0.33676 0.0
H353 H 0.30585 0.18349 0.25858 0.0
H354 H 0.3154 0.14198 0.37482 0.0
S355 S 0.19393 0.08447 0.19079 0.0
N356 N 0.20949 0.12075 0.14956 0.0
N357 N 0.22007 0.07608 0.27648 0.0
C358 C 0.24338 0.10314 0.27387 0.0
C359 C 0.23753 0.12758 0.20551 0.0
C360 C 0.2427 0.37651 0.11937 0.0
C361 C 0.24799 0.35922 0.03762 0.0
C362 C 0.24074 0.41339 0.12738 0.0
C363 C 0.24388 0.43456 0.05415 0.0
H364 H 0.2404 0.36153 0.1781 0.0
H365 H 0.23688 0.42544 0.19183 0.0
S366 S 0.25604 0.40243 0.82407 0.0
N367 N 0.25499 0.36625 0.881 0.0
N368 N 0.25139 0.43542 0.89615 0.0
C369 C 0.2487 0.4177 0.97164 0.0
C370 C 0.25074 0.3801 0.96342 0.0
C371 C 0.14825 0.75453 0.42542 0.0
C372 C 0.16435 0.75185 0.50968 0.0
C373 C 0.11152 0.75355 0.41254 0.0
C374 C 0.08916 0.75 0.4832 0.0
H375 H 0.16414 0.75738 0.36842 0.0
H376 H 0.10053 0.75585 0.34638 0.0
S377 S 0.11765 0.742 0.71747 0.0
N378 N 0.15484 0.74542 0.66534 0.0
N379 N 0.08576 0.74354 0.64113 0.0
C380 C 0.10474 0.74701 0.56798 0.0
C381 C 0.14231 0.7479 0.58115 0.0
C382 C 0.76159 0.6507 0.04304 0.0
C383 C 0.77211 0.67199 0.97456 0.0
C384 C 0.76403 0.61374 0.0364 0.0
C385 C 0.77709 0.59654 0.96096 0.0
H386 H 0.7513 0.6626 0.10249 0.0
H387 H 0.75548 0.59864 0.09078 0.0
S388 S 0.80882 0.63948 0.76353 0.0
N389 N 0.79666 0.67254 0.82891 0.0
N390 N 0.80099 0.60335 0.8169 0.0
C391 C 0.7878 0.61734 0.89225 0.0
C392 C 0.78541 0.65493 0.89888 0.0
C393 C 0.87318 0.29009 0.60732 0.0
C394 C 0.85597 0.28058 0.52657 0.0
C395 C 0.91009 0.29187 0.61562 0.0
C396 C 0.9314 0.28429 0.54372 0.0
H397 H 0.8581 0.29609 0.66498 0.0
H398 H 0.92207 0.29919 0.67923 0.0
S399 S 0.89973 0.25903 0.3168 0.0
N400 N 0.86342 0.26419 0.37231 0.0
N401 N 0.93256 0.26743 0.38829 0.0
C402 C 0.91466 0.275 0.46231 0.0
C403 C 0.87705 0.27319 0.45371 0.0
C404 C 0.7443 0.1545 0.39633 0.0
C405 C 0.74939 0.17223 0.47853 0.0
C406 C 0.74194 0.1176 0.38923 0.0
C407 C 0.74435 0.09681 0.46384 0.0
H408 H 0.74234 0.16916 0.33661 0.0
H409 H 0.7382 0.10523 0.32443 0.0
S410 S 0.75618 0.13014 0.69515 0.0
N411 N 0.75577 0.16599 0.63677 0.0
N412 N 0.75133 0.09681 0.62332 0.0
C413 C 0.7491 0.11411 0.54669 0.0
C414 C 0.75161 0.15174 0.55398 0.0
C415 C 0.37396 0.25749 0.10035 0.0
C416 C 0.3562 0.25418 0.01773 0.0
C417 C 0.41084 0.25762 0.10818 0.0
C418 C 0.43168 0.25449 0.03394 0.0
H419 H 0.3593 0.26 0.15995 0.0
H420 H 0.42317 0.26032 0.1733 0.0
S421 S 0.39858 0.2455 0.80197 0.0
N422 N 0.36256 0.2479 0.85957 0.0
N423 N 0.43191 0.24801 0.87448 0.0
C424 C 0.41445 0.25099 0.9507 0.0
C425 C 0.37674 0.25083 0.94262 0.0
C426 C 0.27628 0.8805 0.46686 0.0
C427 C 0.27058 0.85962 0.5398 0.0
C428 C 0.27588 0.91755 0.47467 0.0
C429 C 0.26984 0.93504 0.55575 0.0
H430 H 0.28047 0.8682 0.40288 0.0
H431 H 0.27985 0.93248 0.41652 0.0
S432 S 0.25654 0.89303 0.76821 0.0
N433 N 0.26098 0.85968 0.69713 0.0
N434 N 0.25998 0.92892 0.71097 0.0
C435 C 0.26507 0.91457 0.62939 0.0
C436 C 0.26552 0.87701 0.62169 0.0
C437 C 0.64287 0.77755 0.07688 0.0
C438 C 0.66333 0.78074 0.00226 0.0
C439 C 0.60587 0.78039 0.07096 0.0
C440 C 0.5881 0.78711 0.99046 0.0
H441 H 0.65545 0.77224 0.13998 0.0
H442 H 0.5912 0.77739 0.12992 0.0
S443 S 0.62956 0.79991 0.7771 0.0
N444 N 0.66299 0.79231 0.84615 0.0
N445 N 0.59385 0.79808 0.83559 0.0
C446 C 0.60832 0.79106 0.91602 0.0
C447 C 0.6458 0.78777 0.92172 0.0
loop_
_geom_bond_atom_site_label_1
_geom_bond_atom_site_label_2
_geom_bond_distance
_geom_bond_site_symmetry_2
_ccdc_geom_bond_type
Fe0 O2 1.918 . S
Fe0 O5 1.997 . S
Fe0 O6 2.002 . S
Fe0 O11 1.976 . S
Fe0 O14 1.996 . S
Fe1 O2 1.918 1_556 S
Fe1 O9 1.997 . S
Fe1 O12 1.996 . S
Fe1 O16 1.976 . S
Fe1 O19 2.002 . S
O2 Fe0 1.918 . S
O2 Fe1 1.918 1_554 S
O2 Fe3 1.918 1_554 S
Fe3 O2 1.918 1_556 S
Fe3 O4 1.998 1_556 S
Fe3 O13 1.971 1_556 S
Fe3 O17 2.000 . S
Fe3 O20 2.001 . S
O4 Fe3 1.998 1_554 S
O4 C21 1.295 . S
O5 Fe0 1.997 . S
O5 C21 1.235 . S
O6 Fe0 2.002 . S
O6 C7 1.295 . S
C7 O6 1.295 . S
C7 O9 1.235 1_554 S
C8 O13 1.287 . S
C8 O14 1.255 . S
O9 Fe1 1.997 . S
O9 C7 1.235 1_556 S
C10 O16 1.287 . S
C10 O17 1.255 . S
O11 Fe0 1.976 . S
O11 C18 1.287 . S
O12 Fe1 1.996 . S
O12 C18 1.255 1_556 S
O13 Fe3 1.971 1_554 S
O13 C8 1.287 . S
O14 Fe0 1.996 . S
O14 C8 1.255 . S
C15 O19 1.295 . S
C15 O20 1.235 . S
O16 Fe1 1.976 . S
O16 C10 1.287 . S
O17 Fe3 2.000 . S
O17 C10 1.255 . S
C18 O11 1.287 . S
C18 O12 1.255 1_554 S
O19 Fe1 2.002 . S
O19 C15 1.295 . S
O20 Fe3 2.001 . S
O20 C15 1.235 . S
C21 O4 1.295 . S
C21 O5 1.235 . S
Fe22 O24 1.918 . S
Fe22 O27 1.997 . S
Fe22 O28 2.002 . S
Fe22 O33 1.976 . S
Fe22 O36 1.996 . S
Fe23 O24 1.918 . S
Fe23 O31 1.997 . S
Fe23 O34 1.996 . S
Fe23 O38 1.976 . S
Fe23 O41 2.002 . S
O24 Fe22 1.918 . S
O24 Fe23 1.918 . S
O24 Fe25 1.918 . S
Fe25 O24 1.918 . S
Fe25 O26 2.002 . S
Fe25 O35 1.976 . S
Fe25 O39 1.996 . S
Fe25 O42 1.997 . S
O26 Fe25 2.002 . S
O26 C43 1.295 . S
O27 Fe22 1.997 . S
O27 C43 1.235 . S
O28 Fe22 2.002 . S
O28 C29 1.295 . S
C29 O28 1.295 . S
C29 O31 1.235 . S
C30 O35 1.287 . S
C30 O36 1.255 . S
O31 Fe23 1.997 . S
O31 C29 1.235 . S
C32 O38 1.287 . S
C32 O39 1.255 . S
O33 Fe22 1.976 . S
O33 C40 1.287 . S
O34 Fe23 1.996 . S
O34 C40 1.255 . S
O35 Fe25 1.976 . S
O35 C30 1.287 . S
O36 Fe22 1.996 . S
O36 C30 1.255 . S
C37 O41 1.295 . S
C37 O42 1.235 . S
O38 Fe23 1.976 . S
O38 C32 1.287 . S
O39 Fe25 1.996 . S
O39 C32 1.255 . S
C40 O33 1.287 . S
C40 O34 1.255 . S
O41 Fe23 2.002 . S
O41 C37 1.295 . S
O42 Fe25 1.997 . S
O42 C37 1.235 . S
C43 O26 1.295 . S
C43 O27 1.235 . S
Fe44 O46 1.918 1_556 S
Fe44 O49 1.997 . S
Fe44 O50 2.002 . S
Fe44 O55 1.976 . S
Fe44 O58 1.996 . S
Fe45 O46 1.918 . S
Fe45 O53 1.997 . S
Fe45 O56 1.996 . S
Fe45 O60 1.976 . S
Fe45 O63 2.002 . S
O46 Fe44 1.918 1_554 S
O46 Fe45 1.918 . S
O46 Fe47 1.918 . S
Fe47 O46 1.918 . S
Fe47 O48 2.002 1_554 S
Fe47 O57 1.976 1_554 S
Fe47 O61 1.996 . S
Fe47 O64 1.997 . S
O48 Fe47 2.002 1_556 S
O48 C65 1.295 . S
O49 Fe44 1.997 . S
O49 C65 1.235 . S
O50 Fe44 2.002 . S
O50 C51 1.295 1_556 S
C51 O50 1.295 1_554 S
C51 O53 1.235 . S
C52 O57 1.287 . S
C52 O58 1.255 . S
O53 Fe45 1.997 . S
O53 C51 1.235 . S
C54 O60 1.287 . S
C54 O61 1.255 . S
O55 Fe44 1.976 . S
O55 C62 1.287 1_556 S
O56 Fe45 1.996 . S
O56 C62 1.255 . S
O57 Fe47 1.976 1_556 S
O57 C52 1.287 . S
O58 Fe44 1.996 . S
O58 C52 1.255 . S
C59 O63 1.295 . S
C59 O64 1.235 . S
O60 Fe45 1.976 . S
O60 C54 1.287 . S
O61 Fe47 1.996 . S
O61 C54 1.255 . S
C62 O55 1.287 1_554 S
C62 O56 1.255 . S
O63 Fe45 2.002 . S
O63 C59 1.295 . S
O64 Fe47 1.997 . S
O64 C59 1.235 . S
C65 O48 1.295 . S
C65 O49 1.235 . S
Fe66 O68 1.918 . S
Fe66 O71 1.997 . S
Fe66 O72 2.002 . S
Fe66 O77 1.976 . S
Fe66 O80 1.996 . S
Fe67 O68 1.918 . S
Fe67 O75 1.997 . S
Fe67 O78 1.996 . S
Fe67 O82 1.976 . S
Fe67 O85 2.002 . S
O68 Fe66 1.918 . S
O68 Fe67 1.918 . S
O68 Fe69 1.918 . S
Fe69 O68 1.918 . S
Fe69 O70 2.002 . S
Fe69 O79 1.976 . S
Fe69 O83 1.996 . S
Fe69 O86 1.997 . S
O70 Fe69 2.002 . S
O70 C87 1.295 . S
O71 Fe66 1.997 . S
O71 C87 1.235 . S
O72 Fe66 2.002 . S
O72 C73 1.295 . S
C73 O72 1.295 . S
C73 O75 1.235 . S
C74 O79 1.287 . S
C74 O80 1.255 . S
O75 Fe67 1.997 . S
O75 C73 1.235 . S
C76 O82 1.287 . S
C76 O83 1.255 . S
O77 Fe66 1.976 . S
O77 C84 1.287 . S
O78 Fe67 1.996 . S
O78 C84 1.255 . S
O79 Fe69 1.976 . S
O79 C74 1.287 . S
O80 Fe66 1.996 . S
O80 C74 1.255 . S
C81 O85 1.295 . S
C81 O86 1.235 . S
O82 Fe67 1.976 . S
O82 C76 1.287 . S
O83 Fe69 1.996 . S
O83 C76 1.255 . S
C84 O77 1.287 . S
C84 O78 1.255 . S
O85 Fe67 2.002 . S
O85 C81 1.295 . S
O86 Fe69 1.997 . S
O86 C81 1.235 . S
C87 O70 1.295 . S
C87 O71 1.235 . S
H88 C93 0.930 . S
H89 C96 0.930 . S
H90 C98 0.930 . S
H91 C92 1.016 . S
C92 H91 1.016 . S
C92 N99 1.286 1_554 S
C93 H88 0.930 . S
C93 C94 1.397 . S
C93 C95 1.361 . S
C94 C93 1.397 . S
C94 C98 1.390 1_556 S
C95 C93 1.361 . S
C95 C96 1.393 1_556 S
C95 N99 1.413 . S
C96 H89 0.930 . S
C96 C95 1.393 1_554 S
C96 C97 1.399 . S
C97 C96 1.399 . S
C97 C98 1.381 . S
C98 H90 0.930 . S
C98 C94 1.390 1_554 S
C98 C97 1.381 . S
N99 C92 1.286 1_556 S
N99 C95 1.413 . S
H100 C105 0.930 . S
H101 C108 0.933 . S
H102 C110 0.930 . S
H103 C104 1.016 . S
C104 H103 1.016 . S
C104 N111 1.286 . S
C105 H100 0.930 . S
C105 C106 1.397 . S
C105 C107 1.361 1_655 S
C106 C105 1.397 . S
C106 C110 1.390 . S
C107 C105 1.361 1_455 S
C107 C108 1.393 1_455 S
C107 N111 1.413 . S
C108 H101 0.933 . S
C108 C107 1.393 1_655 S
C108 C109 1.399 . S
C109 C108 1.399 . S
C109 C110 1.381 . S
C110 H102 0.930 . S
C110 C106 1.390 . S
C110 C109 1.381 . S
N111 C104 1.286 . S
N111 C107 1.413 . S
H112 C117 0.930 . S
H113 C120 0.930 . S
H114 C122 0.930 . S
H115 C116 1.016 1_556 S
C116 H115 1.016 1_554 S
C116 N123 1.286 . S
C117 H112 0.930 . S
C117 C118 1.397 . S
C117 C119 1.361 . S
C118 C117 1.397 . S
C118 C122 1.390 . S
C119 C117 1.361 . S
C119 C120 1.393 1_554 S
C119 N123 1.413 . S
C120 H113 0.930 . S
C120 C119 1.393 1_556 S
C120 C121 1.399 . S
C121 C120 1.399 . S
C121 C122 1.381 1_556 S
C122 H114 0.930 . S
C122 C118 1.390 . S
C122 C121 1.381 1_554 S
N123 C116 1.286 . S
N123 C119 1.413 . S
H124 C129 0.930 . S
H125 C132 0.940 . S
H126 C134 0.930 . S
H127 C128 1.016 . S
C128 H127 1.016 . S
C128 N135 1.286 . S
C129 H124 0.930 . S
C129 C130 1.397 . S
C129 C131 1.361 1_455 S
C130 C129 1.397 . S
C130 C134 1.390 . S
C131 C129 1.361 1_655 S
C131 C132 1.393 1_655 S
C131 N135 1.413 . S
C132 H125 0.940 . S
C132 C131 1.393 1_455 S
C132 C133 1.399 . S
C133 C132 1.399 . S
C133 C134 1.381 . S
C134 H126 0.930 . S
C134 C130 1.390 . S
C134 C133 1.381 . S
N135 C128 1.286 . S
N135 C131 1.413 . S
H136 C141 0.930 . S
H137 C144 0.930 1_545 S
H138 C146 0.930 . S
H139 C140 1.016 . S
C140 H139 1.016 . S
C140 N147 1.286 . S
C141 H136 0.930 . S
C141 C142 1.397 . S
C141 C143 1.361 1_565 S
C142 C141 1.397 . S
C142 C146 1.390 . S
C143 C141 1.361 1_545 S
C143 C144 1.393 1_545 S
C143 N147 1.413 . S
C144 H137 0.930 1_565 S
C144 C143 1.393 1_565 S
C144 C145 1.399 . S
C145 C144 1.399 . S
C145 C146 1.381 . S
C146 H138 0.930 . S
C146 C142 1.390 . S
C146 C145 1.381 . S
N147 C140 1.286 . S
N147 C143 1.413 . S
H148 C153 0.930 . S
H149 C156 0.930 . S
H150 C158 0.930 . S
H151 C152 1.016 . S
C152 H151 1.016 . S
C152 N159 1.286 1_554 S
C153 H148 0.930 . S
C153 C154 1.397 . S
C153 C155 1.361 . S
C154 C153 1.397 . S
C154 C158 1.390 1_556 S
C155 C153 1.361 . S
C155 C156 1.393 1_556 S
C155 N159 1.413 . S
C156 H149 0.930 . S
C156 C155 1.393 1_554 S
C156 C157 1.399 . S
C157 C156 1.399 . S
C157 C158 1.381 . S
C158 H150 0.930 . S
C158 C154 1.390 1_554 S
C158 C157 1.381 . S
N159 C152 1.286 1_556 S
N159 C155 1.413 . S
H160 C165 0.930 . S
H161 C168 0.930 1_565 S
H162 C170 0.930 . S
H163 C164 1.016 . S
C164 H163 1.016 . S
C164 N171 1.286 . S
C165 H160 0.930 . S
C165 C166 1.397 . S
C165 C167 1.361 1_545 S
C166 C165 1.397 . S
C166 C170 1.390 . S
C167 C165 1.361 1_565 S
C167 C168 1.393 1_565 S
C167 N171 1.413 . S
C168 H161 0.930 1_545 S
C168 C167 1.393 1_545 S
C168 C169 1.399 . S
C169 C168 1.399 . S
C169 C170 1.381 . S
C170 H162 0.930 . S
C170 C166 1.390 . S
C170 C169 1.381 . S
N171 C164 1.286 . S
N171 C167 1.413 . S
H172 C177 0.930 . S
H173 C180 0.930 . S
H174 C182 0.930 . S
H175 C176 1.016 . S
C176 H175 1.016 . S
C176 N183 1.286 1_556 S
C177 H172 0.930 . S
C177 C178 1.397 . S
C177 C179 1.361 . S
C178 C177 1.397 . S
C178 C182 1.390 . S
C179 C177 1.361 . S
C179 C180 1.393 1_554 S
C179 N183 1.413 . S
C180 H173 0.930 . S
C180 C179 1.393 1_556 S
C180 C181 1.399 . S
C181 C180 1.399 . S
C181 C182 1.381 1_556 S
C182 H174 0.930 . S
C182 C178 1.390 . S
C182 C181 1.381 1_554 S
N183 C176 1.286 1_554 S
N183 C179 1.413 . S
C184 C185 1.369 . S
C184 C186 1.419 . S
C184 H188 0.930 . S
C185 C184 1.369 . S
C185 C194 1.429 . S
C186 C184 1.419 . S
C186 C187 1.363 . S
C186 H189 0.929 . S
C187 C186 1.363 . S
C187 C193 1.428 . S
H188 C184 0.930 . S
H189 C186 0.929 . S
S190 N191 1.613 . S
S190 N192 1.610 . S
N191 S190 1.613 . S
N191 C194 1.350 . S
N192 S190 1.610 . S
N192 C193 1.351 . S
C193 C187 1.428 . S
C193 N192 1.351 . S
C193 C194 1.434 . S
C194 C185 1.429 . S
C194 N191 1.350 . S
C194 C193 1.434 . S
C195 C196 1.369 . S
C195 C197 1.419 . S
C195 H199 0.930 . S
C196 C195 1.369 . S
C196 C205 1.429 . S
C197 C195 1.419 . S
C197 C198 1.363 . S
C197 H200 0.929 . S
C198 C197 1.363 . S
C198 C204 1.428 . S
H199 C195 0.930 . S
H200 C197 0.929 . S
S201 N202 1.613 . S
S201 N203 1.610 . S
N202 S201 1.613 . S
N202 C205 1.350 . S
N203 S201 1.610 . S
N203 C204 1.351 . S
C204 C198 1.428 . S
C204 N203 1.351 . S
C204 C205 1.434 . S
C205 C196 1.429 . S
C205 N202 1.350 . S
C205 C204 1.434 . S
C206 C207 1.369 . S
C206 C208 1.419 . S
C206 H210 0.930 . S
C207 C206 1.369 . S
C207 C216 1.429 . S
C208 C206 1.419 . S
C208 C209 1.363 . S
C208 H211 0.929 . S
C209 C208 1.363 . S
C209 C215 1.428 . S
H210 C206 0.930 . S
H211 C208 0.929 . S
S212 N213 1.613 . S
S212 N214 1.610 . S
N213 S212 1.613 . S
N213 C216 1.350 . S
N214 S212 1.610 . S
N214 C215 1.351 . S
C215 C209 1.428 . S
C215 N214 1.351 . S
C215 C216 1.434 . S
C216 C207 1.429 . S
C216 N213 1.350 . S
C216 C215 1.434 . S
C217 C218 1.369 . S
C217 C219 1.419 . S
C217 H221 0.930 . S
C218 C217 1.369 . S
C218 C227 1.429 . S
C219 C217 1.419 . S
C219 C220 1.363 . S
C219 H222 0.929 . S
C220 C219 1.363 . S
C220 C226 1.428 . S
H221 C217 0.930 . S
H222 C219 0.929 . S
S223 N224 1.613 . S
S223 N225 1.610 . S
N224 S223 1.613 . S
N224 C227 1.350 . S
N225 S223 1.610 . S
N225 C226 1.351 . S
C226 C220 1.428 . S
C226 N225 1.351 . S
C226 C227 1.434 . S
C227 C218 1.429 . S
C227 N224 1.350 . S
C227 C226 1.434 . S
C228 C229 1.369 . S
C228 C230 1.419 . S
C228 H232 0.930 . S
C229 C228 1.369 . S
C229 C238 1.429 . S
C230 C228 1.419 . S
C230 C231 1.363 . S
C230 H233 0.929 . S
C231 C230 1.363 . S
C231 C237 1.428 . S
H232 C228 0.930 . S
H233 C230 0.929 . S
S234 N235 1.613 . S
S234 N236 1.610 . S
N235 S234 1.613 . S
N235 C238 1.350 . S
N236 S234 1.610 . S
N236 C237 1.351 . S
C237 C231 1.428 . S
C237 N236 1.351 . S
C237 C238 1.434 . S
C238 C229 1.429 . S
C238 N235 1.350 . S
C238 C237 1.434 . S
C239 C240 1.369 . S
C239 C241 1.419 . S
C239 H243 0.930 . S
C240 C239 1.369 . S
C240 C249 1.429 . S
C241 C239 1.419 . S
C241 C242 1.363 . S
C241 H244 0.929 . S
C242 C241 1.363 . S
C242 C248 1.428 . S
H243 C239 0.930 . S
H244 C241 0.929 . S
S245 N246 1.613 . S
S245 N247 1.610 . S
N246 S245 1.613 . S
N246 C249 1.350 . S
N247 S245 1.610 . S
N247 C248 1.351 . S
C248 C242 1.428 . S
C248 N247 1.351 . S
C248 C249 1.434 . S
C249 C240 1.429 . S
C249 N246 1.350 . S
C249 C248 1.434 . S
C250 C251 1.369 . S
C250 C252 1.419 . S
C250 H254 0.930 . S
C251 C250 1.369 . S
C251 C260 1.429 . S
C252 C250 1.419 . S
C252 C253 1.363 . S
C252 H255 0.929 . S
C253 C252 1.363 . S
C253 C259 1.428 . S
H254 C250 0.930 . S
H255 C252 0.929 . S
S256 N257 1.613 . S
S256 N258 1.610 . S
N257 S256 1.613 . S
N257 C260 1.350 . S
N258 S256 1.610 . S
N258 C259 1.351 . S
C259 C253 1.428 . S
C259 N258 1.351 . S
C259 C260 1.434 . S
C260 C251 1.429 . S
C260 N257 1.350 . S
C260 C259 1.434 . S
C261 C262 1.369 . S
C261 C263 1.419 . S
C261 H265 0.930 . S
C262 C261 1.369 . S
C262 C271 1.429 . S
C263 C261 1.419 . S
C263 C264 1.363 . S
C263 H266 0.929 . S
C264 C263 1.363 . S
C264 C270 1.428 . S
H265 C261 0.930 . S
H266 C263 0.929 . S
S267 N268 1.613 . S
S267 N269 1.610 . S
N268 S267 1.613 . S
N268 C271 1.350 . S
N269 S267 1.610 . S
N269 C270 1.351 . S
C270 C264 1.428 . S
C270 N269 1.351 . S
C270 C271 1.434 . S
C271 C262 1.429 . S
C271 N268 1.350 . S
C271 C270 1.434 . S
C272 C273 1.369 . S
C272 C274 1.419 . S
C272 H276 0.930 . S
C273 C272 1.369 . S
C273 C282 1.429 . S
C274 C272 1.419 . S
C274 C275 1.363 . S
C274 H277 0.929 . S
C275 C274 1.363 . S
C275 C281 1.428 . S
H276 C272 0.930 . S
H277 C274 0.929 . S
S278 N279 1.613 . S
S278 N280 1.610 . S
N279 S278 1.613 . S
N279 C282 1.350 . S
N280 S278 1.610 . S
N280 C281 1.351 . S
C281 C275 1.428 . S
C281 N280 1.351 . S
C281 C282 1.434 . S
C282 C273 1.429 . S
C282 N279 1.350 . S
C282 C281 1.434 . S
C283 C284 1.369 . S
C283 C285 1.419 . S
C283 H287 0.930 . S
C284 C283 1.369 . S
C284 C293 1.429 . S
C285 C283 1.419 . S
C285 C286 1.363 . S
C285 H288 0.929 . S
C286 C285 1.363 . S
C286 C292 1.428 . S
H287 C283 0.930 . S
H288 C285 0.929 . S
S289 N290 1.613 . S
S289 N291 1.610 . S
N290 S289 1.613 . S
N290 C293 1.350 . S
N291 S289 1.610 . S
N291 C292 1.351 . S
C292 C286 1.428 . S
C292 N291 1.351 . S
C292 C293 1.434 . S
C293 C284 1.429 . S
C293 N290 1.350 . S
C293 C292 1.434 . S
C294 C295 1.369 . S
C294 C296 1.419 . S
C294 H298 0.930 . S
C295 C294 1.369 . S
C295 C304 1.429 . S
C296 C294 1.419 . S
C296 C297 1.363 . S
C296 H299 0.929 . S
C297 C296 1.363 . S
C297 C303 1.428 . S
H298 C294 0.930 . S
H299 C296 0.929 . S
S300 N301 1.613 . S
S300 N302 1.610 . S
N301 S300 1.613 . S
N301 C304 1.350 . S
N302 S300 1.610 . S
N302 C303 1.351 . S
C303 C297 1.428 . S
C303 N302 1.351 . S
C303 C304 1.434 . S
C304 C295 1.429 . S
C304 N301 1.350 . S
C304 C303 1.434 . S
C305 C306 1.369 . S
C305 C307 1.419 . S
C305 H309 0.930 . S
C306 C305 1.369 . S
C306 C315 1.429 . S
C307 C305 1.419 . S
C307 C308 1.363 . S
C307 H310 0.929 . S
C308 C307 1.363 . S
C308 C314 1.428 . S
H309 C305 0.930 . S
H310 C307 0.929 . S
S311 N312 1.613 . S
S311 N313 1.610 . S
N312 S311 1.613 . S
N312 C315 1.350 . S
N313 S311 1.610 . S
N313 C314 1.351 . S
C314 C308 1.428 . S
C314 N313 1.351 . S
C314 C315 1.434 . S
C315 C306 1.429 . S
C315 N312 1.350 . S
C315 C314 1.434 . S
C316 C317 1.369 . S
C316 C318 1.419 . S
C316 H320 0.930 . S
C317 C316 1.369 . S
C317 C326 1.429 . S
C318 C316 1.419 . S
C318 C319 1.363 . S
C318 H321 0.929 . S
C319 C318 1.363 . S
C319 C325 1.428 . S
H320 C316 0.930 . S
H321 C318 0.929 . S
S322 N323 1.613 . S
S322 N324 1.610 . S
N323 S322 1.613 . S
N323 C326 1.350 . S
N324 S322 1.610 . S
N324 C325 1.351 . S
C325 C319 1.428 . S
C325 N324 1.351 . S
C325 C326 1.434 . S
C326 C317 1.429 . S
C326 N323 1.350 . S
C326 C325 1.434 . S
C327 C328 1.369 . S
C327 C329 1.419 . S
C327 H331 0.930 . S
C328 C327 1.369 . S
C328 C337 1.429 . S
C329 C327 1.419 . S
C329 C330 1.363 . S
C329 H332 0.929 . S
C330 C329 1.363 . S
C330 C336 1.428 . S
H331 C327 0.930 . S
H332 C329 0.929 . S
S333 N334 1.613 . S
S333 N335 1.610 . S
N334 S333 1.613 . S
N334 C337 1.350 . S
N335 S333 1.610 . S
N335 C336 1.351 . S
C336 C330 1.428 . S
C336 N335 1.351 . S
C336 C337 1.434 . S
C337 C328 1.429 . S
C337 N334 1.350 . S
C337 C336 1.434 . S
C338 C339 1.369 . S
C338 C340 1.419 . S
C338 H342 0.930 . S
C339 C338 1.369 . S
C339 C348 1.429 . S
C340 C338 1.419 . S
C340 C341 1.363 . S
C340 H343 0.929 . S
C341 C340 1.363 . S
C341 C347 1.428 . S
H342 C338 0.930 . S
H343 C340 0.929 . S
S344 N345 1.613 . S
S344 N346 1.610 . S
N345 S344 1.613 . S
N345 C348 1.350 . S
N346 S344 1.610 . S
N346 C347 1.351 . S
C347 C341 1.428 . S
C347 N346 1.351 . S
C347 C348 1.434 . S
C348 C339 1.429 . S
C348 N345 1.350 . S
C348 C347 1.434 . S
C349 C350 1.369 . S
C349 C351 1.419 . S
C349 H353 0.930 . S
C350 C349 1.369 . S
C350 C359 1.429 . S
C351 C349 1.419 . S
C351 C352 1.363 . S
C351 H354 0.929 . S
C352 C351 1.363 . S
C352 C358 1.428 . S
H353 C349 0.930 . S
H354 C351 0.929 . S
S355 N356 1.613 . S
S355 N357 1.610 . S
N356 S355 1.613 . S
N356 C359 1.350 . S
N357 S355 1.610 . S
N357 C358 1.351 . S
C358 C352 1.428 . S
C358 N357 1.351 . S
C358 C359 1.434 . S
C359 C350 1.429 . S
C359 N356 1.350 . S
C359 C358 1.434 . S
C360 C361 1.369 . S
C360 C362 1.419 . S
C360 H364 0.930 . S
C361 C360 1.369 . S
C361 C370 1.429 1_554 S
C362 C360 1.419 . S
C362 C363 1.363 . S
C362 H365 0.929 . S
C363 C362 1.363 . S
C363 C369 1.428 1_554 S
H364 C360 0.930 . S
H365 C362 0.929 . S
S366 N367 1.613 . S
S366 N368 1.610 . S
N367 S366 1.613 . S
N367 C370 1.350 . S
N368 S366 1.610 . S
N368 C369 1.351 . S
C369 C363 1.428 1_556 S
C369 N368 1.351 . S
C369 C370 1.434 . S
C370 C361 1.429 1_556 S
C370 N367 1.350 . S
C370 C369 1.434 . S
C371 C372 1.369 . S
C371 C373 1.419 . S
C371 H375 0.930 . S
C372 C371 1.369 . S
C372 C381 1.429 . S
C373 C371 1.419 . S
C373 C374 1.363 . S
C373 H376 0.929 . S
C374 C373 1.363 . S
C374 C380 1.428 . S
H375 C371 0.930 . S
H376 C373 0.929 . S
S377 N378 1.613 . S
S377 N379 1.610 . S
N378 S377 1.613 . S
N378 C381 1.350 . S
N379 S377 1.610 . S
N379 C380 1.351 . S
C380 C374 1.428 . S
C380 N379 1.351 . S
C380 C381 1.434 . S
C381 C372 1.429 . S
C381 N378 1.350 . S
C381 C380 1.434 . S
C382 C383 1.369 . S
C382 C384 1.419 . S
C382 H386 0.930 . S
C383 C382 1.369 . S
C383 C392 1.429 1_554 S
C384 C382 1.419 . S
C384 C385 1.363 . S
C384 H387 0.929 . S
C385 C384 1.363 . S
C385 C391 1.428 1_554 S
H386 C382 0.930 . S
H387 C384 0.929 . S
S388 N389 1.613 . S
S388 N390 1.610 . S
N389 S388 1.613 . S
N389 C392 1.350 . S
N390 S388 1.610 . S
N390 C391 1.351 . S
C391 C385 1.428 1_556 S
C391 N390 1.351 . S
C391 C392 1.434 . S
C392 C383 1.429 1_556 S
C392 N389 1.350 . S
C392 C391 1.434 . S
C393 C394 1.369 . S
C393 C395 1.419 . S
C393 H397 0.930 . S
C394 C393 1.369 . S
C394 C403 1.429 . S
C395 C393 1.419 . S
C395 C396 1.363 . S
C395 H398 0.929 . S
C396 C395 1.363 . S
C396 C402 1.428 . S
H397 C393 0.930 . S
H398 C395 0.929 . S
S399 N400 1.613 . S
S399 N401 1.610 . S
N400 S399 1.613 . S
N400 C403 1.350 . S
N401 S399 1.610 . S
N401 C402 1.351 . S
C402 C396 1.428 . S
C402 N401 1.351 . S
C402 C403 1.434 . S
C403 C394 1.429 . S
C403 N400 1.350 . S
C403 C402 1.434 . S
C404 C405 1.369 . S
C404 C406 1.419 . S
C404 H408 0.930 . S
C405 C404 1.369 . S
C405 C414 1.429 . S
C406 C404 1.419 . S
C406 C407 1.363 . S
C406 H409 0.929 . S
C407 C406 1.363 . S
C407 C413 1.428 . S
H408 C404 0.930 . S
H409 C406 0.929 . S
S410 N411 1.613 . S
S410 N412 1.610 . S
N411 S410 1.613 . S
N411 C414 1.350 . S
N412 S410 1.610 . S
N412 C413 1.351 . S
C413 C407 1.428 . S
C413 N412 1.351 . S
C413 C414 1.434 . S
C414 C405 1.429 . S
C414 N411 1.350 . S
C414 C413 1.434 . S
C415 C416 1.369 . S
C415 C417 1.419 . S
C415 H419 0.930 . S
C416 C415 1.369 . S
C416 C425 1.429 1_554 S
C417 C415 1.419 . S
C417 C418 1.363 . S
C417 H420 0.929 . S
C418 C417 1.363 . S
C418 C424 1.428 1_554 S
H419 C415 0.930 . S
H420 C417 0.929 . S
S421 N422 1.613 . S
S421 N423 1.610 . S
N422 S421 1.613 . S
N422 C425 1.350 . S
N423 S421 1.610 . S
N423 C424 1.351 . S
C424 C418 1.428 1_556 S
C424 N423 1.351 . S
C424 C425 1.434 . S
C425 C416 1.429 1_556 S
C425 N422 1.350 . S
C425 C424 1.434 . S
C426 C427 1.369 . S
C426 C428 1.419 . S
C426 H430 0.930 . S
C427 C426 1.369 . S
C427 C436 1.429 . S
C428 C426 1.419 . S
C428 C429 1.363 . S
C428 H431 0.929 . S
C429 C428 1.363 . S
C429 C435 1.428 . S
H430 C426 0.930 . S
H431 C428 0.929 . S
S432 N433 1.613 . S
S432 N434 1.610 . S
N433 S432 1.613 . S
N433 C436 1.350 . S
N434 S432 1.610 . S
N434 C435 1.351 . S
C435 C429 1.428 . S
C435 N434 1.351 . S
C435 C436 1.434 . S
C436 C427 1.429 . S
C436 N433 1.350 . S
C436 C435 1.434 . S
C437 C438 1.369 . S
C437 C439 1.419 . S
C437 H441 0.930 . S
C438 C437 1.369 . S
C438 C447 1.429 1_554 S
C439 C437 1.419 . S
C439 C440 1.363 . S
C439 H442 0.929 . S
C440 C439 1.363 . S
C440 C446 1.428 1_554 S
H441 C437 0.930 . S
H442 C439 0.929 . S
S443 N444 1.613 . S
S443 N445 1.610 . S
N444 S443 1.613 . S
N444 C447 1.350 . S
N445 S443 1.610 . S
N445 C446 1.351 . S
C446 C440 1.428 1_556 S
C446 N445 1.351 . S
C446 C447 1.434 . S
C447 C438 1.429 1_556 S
C447 N444 1.350 . S
C447 C446 1.434 . S
C185 C21 1.485 . S
C187 C130 1.494 . S
C196 C40 1.499 . S
C198 C94 1.491 . S
C209 C109 1.459 . S
C207 C54 1.479 . S
C218 C73 1.527 . S
C220 C121 1.507 . S
C231 C157 1.448 . S
C229 C74 1.471 . S
C242 C169 1.482 . S
C240 C10 1.517 . S
C253 C178 1.503 . S
C251 C37 1.499 . S
C264 C142 1.512 . S
C262 C65 1.507 . S
C273 C52 1.452 . S
C275 C106 1.452 . S
C284 C87 1.516 . S
C286 C118 1.505 . S
C295 C15 1.518 . S
C297 C133 1.503 . S
C308 C97 1.474 . S
C306 C32 1.503 . S
C317 C29 1.504 . S
C319 C181 1.494 . S
C330 C145 1.514 . S
C328 C59 1.532 . S
C341 C154 1.456 . S
C339 C84 1.460 . S
C350 C8 1.485 . S
C352 C166 1.466 . S
C363 C92 1.517 . S
C361 C7 1.528 . S
C374 C104 1.484 . S
C372 C30 1.488 . S
C383 C62 1.534 . S
C385 C116 1.523 . S
C394 C81 1.499 . S
C396 C128 1.509 . S
C407 C140 1.514 . S
C405 C76 1.533 . S
C416 C18 1.489 . S
C418 C152 1.482 . S
C427 C43 1.527 . S
C429 C164 1.525 . S
C438 C51 1.503 . S
C440 C176 1.508 1_554 S
