# Generated by pormake.
# Topology ftw, (4,12)-cn, num edge types: 1
# Building blocks:
#     Node 0, Type 0, BuildingBlock: NAWXER_clean_linker_0, # of connection points: 4
#     Node 1, Type 0, BuildingBlock: NAWXER_clean_linker_0, # of connection points: 4
#     Node 2, Type 0, BuildingBlock: NAWXER_clean_linker_0, # of connection points: 4
#     Node 3, Type 1, BuildingBlock: EZIPEK_clean_sbu_0, # of connection points: 12
#     Edge 4, Type (0, 1), BuildingBlock: OJICUG_clean_linker_0, # of connection points: 2
#     Edge 5, Type (0, 1), BuildingBlock: OJICUG_clean_linker_0, # of connection points: 2
#     Edge 6, Type (0, 1), BuildingBlock: OJICUG_clean_linker_0, # of connection points: 2
#     Edge 7, Type (0, 1), BuildingBlock: OJICUG_clean_linker_0, # of connection points: 2
#     Edge 8, Type (0, 1), BuildingBlock: OJICUG_clean_linker_0, # of connection points: 2
#     Edge 9, Type (0, 1), BuildingBlock: OJICUG_clean_linker_0, # of connection points: 2
#     Edge 10, Type (0, 1), BuildingBlock: OJICUG_clean_linker_0, # of connection points: 2
#     Edge 11, Type (0, 1), BuildingBlock: OJICUG_clean_linker_0, # of connection points: 2
#     Edge 12, Type (0, 1), BuildingBlock: OJICUG_clean_linker_0, # of connection points: 2
#     Edge 13, Type (0, 1), BuildingBlock: OJICUG_clean_linker_0, # of connection points: 2
#     Edge 14, Type (0, 1), BuildingBlock: OJICUG_clean_linker_0, # of connection points: 2
#     Edge 15, Type (0, 1), BuildingBlock: OJICUG_clean_linker_0, # of connection points: 2
# Relax obj value: 0.032
# Max RMSD: 0.131
# Mean RMSD: 0.100
data_MOF--net-ftw--node1-EZIPEK_clean_sbu_0--node2-NAWXER_clean_linker_0--edge1-OJICUG_clean_linker_0
_symmetry_space_group_name_H-M    P1
_symmetry_Int_Tables_number       1
_symmetry_cell_setting            triclinic
loop_
_symmetry_equiv_pos_as_xyz
'x, y, z'
_cell_length_a     22.17638
_cell_length_b     22.950846
_cell_length_c     22.507534
_cell_angle_alpha  89.967461
_cell_angle_beta   89.737281
_cell_angle_gamma 90.141079
loop_
_atom_site_label
_atom_site_type_symbol
_atom_site_fract_x
_atom_site_fract_y
_atom_site_fract_z
_atom_type_partial_charge
C0 C 0.02833 0.71022 0.62269 0.0
C1 C 0.98602 0.70976 0.66966 0.0
C2 C 0.02609 0.66796 0.57763 0.0
C3 C 0.98109 0.62471 0.57828 0.0
C4 C 0.93989 0.6677 0.66887 0.0
C5 C 0.93758 0.62577 0.62392 0.0
C6 C 0.98446 0.5726 0.5391 0.0
C7 C 0.95929 0.71437 0.39774 0.0
C8 C 0.00134 0.71378 0.35055 0.0
C9 C 0.96022 0.67098 0.44182 0.0
C10 C 0.00367 0.62648 0.43998 0.0
C11 C 0.04614 0.6706 0.35036 0.0
C12 C 0.04718 0.62759 0.39433 0.0
C13 C -0.0015 0.57333 0.47768 0.0
C14 C 0.95293 0.33087 0.39258 0.0
C15 C -0.00476 0.33133 0.3456 0.0
C16 C 0.95518 0.37312 0.43766 0.0
C17 C 0.00019 0.41636 0.43702 0.0
C18 C 0.04137 0.37339 0.34641 0.0
C19 C 0.0437 0.4153 0.39137 0.0
C20 C -0.00317 0.46847 0.4762 0.0
C21 C 0.02201 0.32671 0.6176 0.0
C22 C 0.97997 0.32731 0.6648 0.0
C23 C 0.02107 0.37009 0.5735 0.0
C24 C 0.97762 0.41459 0.57533 0.0
C25 C 0.93518 0.3705 0.66498 0.0
C26 C 0.93412 0.41349 0.62099 0.0
C27 C 0.98279 0.46774 0.53763 0.0
H28 H 0.06478 0.7417 0.62209 0.0
H29 H 0.06139 0.66737 0.54424 0.0
H30 H 0.90585 0.66667 0.70351 0.0
H31 H 0.90256 0.5928 0.62588 0.0
H32 H 0.92388 0.74676 0.39909 0.0
H33 H 0.92498 0.67052 0.47527 0.0
H34 H 0.07996 0.66939 0.31552 0.0
H35 H 0.08107 0.59376 0.39148 0.0
H36 H 0.91648 0.2994 0.39317 0.0
H37 H 0.91989 0.3737 0.47105 0.0
H38 H 0.07542 0.37442 0.31176 0.0
H39 H 0.07872 0.44827 0.38942 0.0
H40 H 0.05742 0.29433 0.61625 0.0
H41 H 0.05631 0.37054 0.54004 0.0
H42 H 0.90136 0.37172 0.69983 0.0
H43 H 0.90022 0.44732 0.62384 0.0
N44 N 0.97726 0.51985 0.56591 0.0
N45 N 0.00402 0.52121 0.44939 0.0
C46 C 0.60679 0.03917 0.69964 0.0
C47 C 0.65123 0.99573 0.69775 0.0
C48 C 0.56215 0.04118 0.65645 0.0
C49 C 0.56071 0.9992 0.61118 0.0
C50 C 0.64875 0.95268 0.65366 0.0
C51 C 0.60374 0.95441 0.6107 0.0
C52 C 0.5222 1.00759 0.55886 0.0
C53 C 0.36939 0.97702 0.69154 0.0
C54 C 0.33812 0.02838 0.70512 0.0
C55 C 0.41404 0.97742 0.64773 0.0
C56 C 0.42676 0.02897 0.61665 0.0
C57 C 0.35342 0.08059 0.67643 0.0
C58 C 0.397 0.08069 0.63176 0.0
C59 C 0.46212 0.02679 0.56176 0.0
C60 C 0.3745 1.00182 0.31566 0.0
C61 C 0.33007 0.04527 0.31756 0.0
C62 C 0.41915 0.9998 0.35885 0.0
C63 C 0.42059 0.04177 0.40413 0.0
C64 C 0.33256 0.08831 0.36166 0.0
C65 C 0.37756 0.08657 0.40462 0.0
C66 C 0.45909 0.03337 0.45645 0.0
C67 C 0.6119 0.06397 0.32378 0.0
C68 C 0.64318 1.01261 0.3102 0.0
C69 C 0.56725 0.06355 0.36759 0.0
C70 C 0.55454 1.012 0.39866 0.0
C71 C 0.62789 0.9604 0.33887 0.0
C72 C 0.58431 0.96028 0.38355 0.0
C73 C 0.51917 1.01417 0.45355 0.0
H74 H 0.60836 0.07338 0.73276 0.0
H75 H 0.5313 0.07765 0.65654 0.0
H76 H 0.68227 0.91847 0.65174 0.0
H77 H 0.60386 0.92197 0.57574 0.0
H78 H 0.35802 0.93645 0.71359 0.0
H79 H 0.43595 0.93695 0.63565 0.0
H80 H 0.32946 0.12052 0.68644 0.0
H81 H 0.40591 0.12058 0.60743 0.0
H82 H 0.37293 0.96763 0.28253 0.0
H83 H 0.44999 0.96333 0.35876 0.0
H84 H 0.29904 0.12253 0.36358 0.0
H85 H 0.37745 0.11901 0.43959 0.0
H86 H 0.62327 0.10454 0.30173 0.0
H87 H 0.54533 0.10402 0.37967 0.0
H88 H 0.65185 0.92047 0.32886 0.0
H89 H 0.5754 0.92039 0.40787 0.0
N90 N 0.54847 1.00213 0.50472 0.0
N91 N 0.43282 0.03883 0.51059 0.0
C92 C 0.36684 0.33947 0.9631 0.0
C93 C 0.33139 0.32893 0.01383 0.0
C94 C 0.41192 0.38229 0.96406 0.0
C95 C 0.42121 0.4157 0.01547 0.0
C96 C 0.34246 0.36061 0.06592 0.0
C97 C 0.38646 0.40426 0.06645 0.0
C98 C 0.45934 0.46843 0.01338 0.0
C99 C 0.5995 0.3261 0.03281 0.0
C100 C 0.64639 0.32646 0.99047 0.0
C101 C 0.55603 0.37026 0.03325 0.0
C102 C 0.55821 0.41525 0.99088 0.0
C103 C 0.64696 0.37013 0.94671 0.0
C104 C 0.60348 0.41403 0.94703 0.0
C105 C 0.52098 0.46847 0.99754 0.0
C106 C 0.61428 0.70172 0.05214 0.0
C107 C 0.64985 0.71216 1.00146 0.0
C108 C 0.56923 0.65887 0.05116 0.0
C109 C 0.56007 0.62535 0.9998 0.0
C110 C 0.63893 0.68037 0.94942 0.0
C111 C 0.59494 0.63671 0.94887 0.0
C112 C 0.52195 0.57262 1.0019 0.0
C113 C 0.38181 0.71497 0.98248 0.0
C114 C 0.33494 0.71463 0.02485 0.0
C115 C 0.42527 0.67079 0.98203 0.0
C116 C 0.42308 0.6258 0.0244 0.0
C117 C 0.33436 0.67096 0.0686 0.0
C118 C 0.37782 0.62704 0.06827 0.0
C119 C 0.4603 0.57258 0.01774 0.0
H120 H 0.35888 0.31531 0.92253 0.0
H121 H 0.43738 0.3913 0.92389 0.0
H122 H 0.31545 0.35308 0.10544 0.0
H123 H 0.39237 0.43019 0.10624 0.0
H124 H 0.59818 0.2934 0.06751 0.0
H125 H 0.5231 0.37096 0.06889 0.0
H126 H 0.68187 0.3711 0.9129 0.0
H127 H 0.60648 0.44834 0.91404 0.0
H128 H 0.62214 0.72597 0.09267 0.0
H129 H 0.54367 0.64993 0.09129 0.0
H130 H 0.66603 0.68783 0.90996 0.0
H131 H 0.58914 0.6107 0.90913 0.0
H132 H 0.38314 0.74767 0.94779 0.0
H133 H 0.45819 0.67009 0.94638 0.0
H134 H 0.29947 0.67 0.10243 0.0
H135 H 0.37482 0.59273 0.10126 0.0
N136 N 0.43167 0.52037 0.02282 0.0
N137 N 0.54962 0.52069 0.99246 0.0
C138 C 0.98969 0.15959 0.85933 0.0
C139 C 0.98655 0.16343 0.15164 0.0
C140 C -0.00528 0.87765 0.86363 0.0
C141 C -0.00839 0.88149 0.15601 0.0
C142 C 0.13967 0.88212 0.01147 0.0
C143 C 0.13582 0.16278 0.00913 0.0
C144 C 0.84543 0.8783 1.0062 0.0
C145 C 0.84165 0.15895 1.00385 0.0
C146 C 0.84281 1.01691 0.14836 0.0
C147 C 0.13511 0.02796 0.15056 0.0
C148 C 0.84618 1.01311 0.86475 0.0
C149 C 0.13848 0.02416 0.86695 0.0
Eu150 Eu 0.98912 0.13287 1.00582 0.0
O151 O 0.04149 0.07436 0.05976 0.0
O152 O 0.9379 0.07179 0.95331 0.0
Eu153 Eu 0.1023 0.02206 0.00848 0.0
Eu154 Eu 0.87899 1.01904 1.00683 0.0
O155 O 0.04327 0.07322 0.95432 0.0
O156 O 0.93644 0.07345 0.05957 0.0
Eu157 Eu -0.00786 1.01897 0.89506 0.0
Eu158 Eu 0.98915 0.02214 0.12024 0.0
O159 O 0.04479 0.96755 0.95579 0.0
O160 O 0.04333 0.96922 0.06194 0.0
O161 O 0.93808 0.96778 0.06094 0.0
O162 O 0.93986 0.96665 0.9556 0.0
Eu163 Eu -0.00784 0.90807 0.00949 0.0
O164 O 0.98887 0.17918 0.91551 0.0
O165 O 0.9882 0.18174 0.09495 0.0
O166 O -0.00692 0.85931 0.92031 0.0
O167 O -0.00758 0.86187 0.09984 0.0
O168 O 0.15559 0.93819 0.0096 0.0
O169 O 0.15304 0.10728 0.01188 0.0
O170 O 0.82823 0.93382 1.00347 0.0
O171 O 0.8257 0.1029 1.00571 0.0
O172 O 0.89913 0.0212 0.16853 0.0
O173 O 0.07807 0.02775 0.16989 0.0
O174 O 0.90323 1.01333 0.84542 0.0
O175 O 0.08217 1.01987 0.84678 0.0
O176 O 0.90232 0.85946 0.01029 0.0
O177 O 0.08296 0.86206 0.01181 0.0
O178 O 0.89837 0.17898 1.00349 0.0
O179 O 0.07892 0.18158 1.00501 0.0
O180 O 0.98604 0.10788 0.16912 0.0
O181 O 0.99047 0.93752 0.17203 0.0
O182 O -0.00917 0.10358 0.84329 0.0
O183 O -0.00477 0.93322 0.84617 0.0
O184 O 0.15488 0.02624 0.92356 0.0
O185 O 0.15247 0.02472 0.09414 0.0
O186 O 0.82882 1.01635 0.92117 0.0
O187 O 0.82641 1.01484 0.09175 0.0
C188 C 0.00198 0.30668 0.23626 0.0
C189 C -0.00904 0.28897 0.29535 0.0
H190 H 0.0088 0.2816 0.14458 0.0
C191 C 0.97645 0.23032 0.30607 0.0
H192 H 0.01239 0.35175 0.22621 0.0
C193 C 0.9742 0.19024 0.25933 0.0
C194 C 0.98614 0.20758 0.20028 0.0
H195 H 0.9681 0.21498 0.35088 0.0
H196 H 0.96342 0.14534 0.26985 0.0
C197 C -0.00057 0.26654 0.18929 0.0
C198 C 0.69354 0.97916 0.21788 0.0
C199 C 0.69436 1.01389 0.26892 0.0
H200 H 0.7407 0.95319 0.13932 0.0
C201 C 0.74518 0.04816 0.2817 0.0
H202 H 0.65474 0.9522 0.20777 0.0
C203 C 0.79489 0.04779 0.24348 0.0
C204 C 0.79344 1.0141 0.19159 0.0
H205 H 0.74654 0.07469 0.32149 0.0
H206 H 0.83359 0.07488 0.25359 0.0
C207 C 0.74254 0.97974 0.17908 0.0
C208 C 0.00683 0.73865 0.24133 0.0
C209 C -0.00235 0.75658 0.30057 0.0
H210 H 0.0118 0.76327 0.1495 0.0
C211 C 0.98518 0.8156 0.31148 0.0
H212 H 0.01562 0.69335 0.23111 0.0
C213 C 0.98291 0.85574 0.26463 0.0
C214 C -0.0074 0.83799 0.20536 0.0
H215 H 0.97825 0.83106 0.35644 0.0
H216 H 0.97364 0.90089 0.27514 0.0
C217 C 0.00417 0.77874 0.19436 0.0
C218 C 0.29171 0.03379 0.21481 0.0
C219 C 0.27985 0.04369 0.27505 0.0
H220 H 0.25574 0.0207 0.12864 0.0
C221 C 0.21985 0.04909 0.2947 0.0
H222 H 0.33761 0.02998 0.19857 0.0
C223 C 0.1723 0.04367 0.25455 0.0
C224 C 0.18424 0.03307 0.19419 0.0
H225 H 0.2097 0.05616 0.34126 0.0
H226 H 0.12646 0.04771 0.2708 0.0
C227 C 0.24454 0.02857 0.17482 0.0
C228 C 0.9793 0.73442 0.779 0.0
C229 C 0.99029 0.75213 0.7199 0.0
H230 H 0.97251 0.75948 0.87068 0.0
C231 C 0.00477 0.81079 0.70918 0.0
H232 H 0.96892 0.68934 0.78905 0.0
C233 C 0.00703 0.85087 0.75593 0.0
C234 C -0.00488 0.83352 0.81498 0.0
H235 H 0.01311 0.82614 0.66437 0.0
H236 H 0.01778 0.89577 0.7454 0.0
C237 C 0.98186 0.77455 0.82597 0.0
C238 C 0.23611 0.99285 0.73362 0.0
C239 C 0.28694 0.02711 0.7464 0.0
H240 H 0.1477 0.96616 0.76173 0.0
C241 C 0.28777 0.06186 0.79743 0.0
H242 H 0.23475 0.96631 0.69384 0.0
C243 C 0.23877 0.0613 0.83622 0.0
C244 C 0.18785 0.02695 0.82372 0.0
H245 H 0.32657 0.08881 0.80754 0.0
H246 H 0.24061 0.08786 0.87598 0.0
C247 C 0.18641 0.99324 0.77184 0.0
C248 C 0.97448 0.30245 0.77403 0.0
C249 C 0.98367 0.28452 0.71478 0.0
H250 H 0.96949 0.27781 0.86585 0.0
C251 C -0.00385 0.22551 0.70388 0.0
H252 H 0.96568 0.34775 0.78424 0.0
C253 C -0.00158 0.18536 0.75073 0.0
C254 C 0.98871 0.20311 0.80999 0.0
H255 H 0.00309 0.21004 0.65891 0.0
H256 H 0.0077 0.14022 0.7402 0.0
C257 C 0.97713 0.26235 0.821 0.0
C258 C 0.76145 0.99194 0.72061 0.0
C259 C 0.70145 0.99733 0.74026 0.0
H260 H 0.85484 0.99333 0.74452 0.0
C261 C 0.68959 1.00724 0.8005 0.0
H262 H 0.7716 0.98485 0.67405 0.0
C263 C 0.73676 1.01248 0.84048 0.0
C264 C 0.79705 1.00798 0.82112 0.0
H265 H 0.64369 1.01105 0.81673 0.0
H266 H 0.72555 1.02035 0.88667 0.0
C267 C 0.809 0.99737 0.76076 0.0
C268 C 0.28471 0.23491 0.04525 0.0
C269 C 0.28137 0.28648 0.01216 0.0
H270 H 0.24113 0.15508 0.06979 0.0
C271 C 0.22932 0.29821 0.97895 0.0
H272 H 0.32437 0.22536 0.07142 0.0
C273 C 0.181 0.25878 0.97902 0.0
C274 C 0.18478 0.20649 0.01124 0.0
H275 H 0.22588 0.33813 0.95349 0.0
H276 H 0.14135 0.26855 0.95293 0.0
C277 C 0.23714 0.19492 0.04425 0.0
C278 C 0.29696 0.81669 0.00982 0.0
C279 C 0.28503 0.75769 0.02163 0.0
H280 H 0.2609 0.90204 0.99742 0.0
C281 C 0.22478 0.73973 0.02939 0.0
H282 H 0.34286 0.83196 1.00397 0.0
C283 C 0.17756 0.77984 0.02557 0.0
C284 C 0.18946 0.83899 0.01415 0.0
H285 H 0.21399 0.69438 0.03766 0.0
H286 H 0.1318 0.76439 0.03193 0.0
C287 C 0.24981 0.85688 1.00632 0.0
C288 C 0.75655 0.30136 0.98593 0.0
C289 C 0.6963 0.2834 0.99369 0.0
H290 H 0.84954 0.27669 0.9834 0.0
C291 C 0.68438 0.22441 1.0055 0.0
H292 H 0.76735 0.34671 0.97766 0.0
C293 C 0.73152 0.18422 0.009 0.0
C294 C 0.79187 0.20209 1.00117 0.0
H295 H 0.63847 0.20913 0.01134 0.0
H296 H 0.72042 0.13906 0.0179 0.0
C297 C 0.80377 0.26125 0.98976 0.0
C298 C 0.69642 0.80629 0.97024 0.0
C299 C 0.69985 0.75462 1.00317 0.0
H300 H 0.73995 0.88618 0.94582 0.0
C301 C 0.75198 0.7428 0.03622 0.0
H302 H 0.6567 0.8159 0.94418 0.0
C303 C 0.80029 0.78224 0.03617 0.0
C304 C 0.79644 0.83461 1.00411 0.0
H305 H 0.75548 0.70281 0.06155 0.0
H306 H 0.84 0.77239 0.06214 0.0
C307 C 0.744 0.84628 0.97124 0.0
loop_
_geom_bond_atom_site_label_1
_geom_bond_atom_site_label_2
_geom_bond_distance
_geom_bond_site_symmetry_2
_ccdc_geom_bond_type
C0 C1 1.384 1_455 S
C0 C2 1.384 . S
C0 H28 0.931 . S
C1 C0 1.384 1_655 S
C1 C4 1.382 . S
C2 C0 1.384 . S
C2 C3 1.381 1_455 S
C2 H29 0.930 . S
C3 C2 1.381 1_655 S
C3 C5 1.381 . S
C3 C6 1.487 . S
C4 C1 1.382 . S
C4 C5 1.387 . S
C4 H30 0.930 . S
C5 C3 1.381 . S
C5 C4 1.387 . S
C5 H31 0.931 . S
C6 C3 1.487 . S
C6 C13 1.399 1_655 S
C6 N44 1.343 . S
C7 C8 1.384 1_655 S
C7 C9 1.384 . S
C7 H32 0.931 . S
C8 C7 1.384 1_455 S
C8 C11 1.382 . S
C9 C7 1.384 . S
C9 C10 1.381 1_655 S
C9 H33 0.930 . S
C10 C9 1.381 1_455 S
C10 C12 1.381 . S
C10 C13 1.487 . S
C11 C8 1.382 . S
C11 C12 1.387 . S
C11 H34 0.930 . S
C12 C10 1.381 . S
C12 C11 1.387 . S
C12 H35 0.931 . S
C13 C6 1.399 1_455 S
C13 C10 1.487 . S
C13 N45 1.343 . S
C14 C15 1.384 1_655 S
C14 C16 1.384 . S
C14 H36 0.931 . S
C15 C14 1.384 1_455 S
C15 C18 1.382 . S
C16 C14 1.384 . S
C16 C17 1.381 1_655 S
C16 H37 0.930 . S
C17 C16 1.381 1_455 S
C17 C19 1.381 . S
C17 C20 1.487 . S
C18 C15 1.382 . S
C18 C19 1.387 . S
C18 H38 0.930 . S
C19 C17 1.381 . S
C19 C18 1.387 . S
C19 H39 0.931 . S
C20 C17 1.487 . S
C20 C27 1.399 1_455 S
C20 N45 1.343 . S
C21 C22 1.384 1_455 S
C21 C23 1.384 . S
C21 H40 0.931 . S
C22 C21 1.384 1_655 S
C22 C25 1.382 . S
C23 C21 1.384 . S
C23 C24 1.381 1_455 S
C23 H41 0.930 . S
C24 C23 1.381 1_655 S
C24 C26 1.381 . S
C24 C27 1.487 . S
C25 C22 1.382 . S
C25 C26 1.387 . S
C25 H42 0.930 . S
C26 C24 1.381 . S
C26 C25 1.387 . S
C26 H43 0.931 . S
C27 C20 1.399 1_655 S
C27 C24 1.487 . S
C27 N44 1.343 . S
H28 C0 0.931 . S
H29 C2 0.930 . S
H30 C4 0.930 . S
H31 C5 0.931 . S
H32 C7 0.931 . S
H33 C9 0.930 . S
H34 C11 0.930 . S
H35 C12 0.931 . S
H36 C14 0.931 . S
H37 C16 0.930 . S
H38 C18 0.930 . S
H39 C19 0.931 . S
H40 C21 0.931 . S
H41 C23 0.930 . S
H42 C25 0.930 . S
H43 C26 0.931 . S
N44 C6 1.343 . S
N44 C27 1.343 . S
N45 C13 1.343 . S
N45 C20 1.343 . S
C46 C47 1.384 1_545 S
C46 C48 1.384 . S
C46 H74 0.931 . S
C47 C46 1.384 1_565 S
C47 C50 1.382 . S
C48 C46 1.384 . S
C48 C49 1.381 1_545 S
C48 H75 0.930 . S
C49 C48 1.381 1_565 S
C49 C51 1.381 . S
C49 C52 1.487 . S
C50 C47 1.382 . S
C50 C51 1.387 . S
C50 H76 0.930 . S
C51 C49 1.381 . S
C51 C50 1.387 . S
C51 H77 0.931 . S
C52 C49 1.487 . S
C52 C59 1.399 1_565 S
C52 N90 1.343 . S
C53 C54 1.384 1_565 S
C53 C55 1.384 . S
C53 H78 0.931 . S
C54 C53 1.384 1_545 S
C54 C57 1.382 . S
C55 C53 1.384 . S
C55 C56 1.381 1_565 S
C55 H79 0.930 . S
C56 C55 1.381 1_545 S
C56 C58 1.381 . S
C56 C59 1.487 . S
C57 C54 1.382 . S
C57 C58 1.387 . S
C57 H80 0.930 . S
C58 C56 1.381 . S
C58 C57 1.387 . S
C58 H81 0.931 . S
C59 C52 1.399 1_545 S
C59 C56 1.487 . S
C59 N91 1.343 . S
C60 C61 1.384 1_565 S
C60 C62 1.384 . S
C60 H82 0.931 . S
C61 C60 1.384 1_545 S
C61 C64 1.382 . S
C62 C60 1.384 . S
C62 C63 1.381 1_565 S
C62 H83 0.930 . S
C63 C62 1.381 1_545 S
C63 C65 1.381 . S
C63 C66 1.487 . S
C64 C61 1.382 . S
C64 C65 1.387 . S
C64 H84 0.930 . S
C65 C63 1.381 . S
C65 C64 1.387 . S
C65 H85 0.931 . S
C66 C63 1.487 . S
C66 C73 1.399 1_545 S
C66 N91 1.343 . S
C67 C68 1.384 1_545 S
C67 C69 1.384 . S
C67 H86 0.931 . S
C68 C67 1.384 1_565 S
C68 C71 1.382 . S
C69 C67 1.384 . S
C69 C70 1.381 1_545 S
C69 H87 0.930 . S
C70 C69 1.381 1_565 S
C70 C72 1.381 . S
C70 C73 1.487 . S
C71 C68 1.382 . S
C71 C72 1.387 . S
C71 H88 0.930 . S
C72 C70 1.381 . S
C72 C71 1.387 . S
C72 H89 0.931 . S
C73 C66 1.399 1_565 S
C73 C70 1.487 . S
C73 N90 1.343 . S
H74 C46 0.931 . S
H75 C48 0.930 . S
H76 C50 0.930 . S
H77 C51 0.931 . S
H78 C53 0.931 . S
H79 C55 0.930 . S
H80 C57 0.930 . S
H81 C58 0.931 . S
H82 C60 0.931 . S
H83 C62 0.930 . S
H84 C64 0.930 . S
H85 C65 0.931 . S
H86 C67 0.931 . S
H87 C69 0.930 . S
H88 C71 0.930 . S
H89 C72 0.931 . S
N90 C52 1.343 . S
N90 C73 1.343 . S
N91 C59 1.343 . S
N91 C66 1.343 . S
C92 C93 1.384 1_556 S
C92 C94 1.384 . S
C92 H120 0.931 . S
C93 C92 1.384 1_554 S
C93 C96 1.382 . S
C94 C92 1.384 . S
C94 C95 1.381 1_556 S
C94 H121 0.930 . S
C95 C94 1.381 1_554 S
C95 C97 1.381 . S
C95 C98 1.487 . S
C96 C93 1.382 . S
C96 C97 1.387 . S
C96 H122 0.930 . S
C97 C95 1.381 . S
C97 C96 1.387 . S
C97 H123 0.931 . S
C98 C95 1.487 . S
C98 C105 1.399 1_554 S
C98 N136 1.343 . S
C99 C100 1.384 1_554 S
C99 C101 1.384 . S
C99 H124 0.931 . S
C100 C99 1.384 1_556 S
C100 C103 1.382 . S
C101 C99 1.384 . S
C101 C102 1.381 1_554 S
C101 H125 0.930 . S
C102 C101 1.381 1_556 S
C102 C104 1.381 . S
C102 C105 1.487 . S
C103 C100 1.382 . S
C103 C104 1.387 . S
C103 H126 0.930 . S
C104 C102 1.381 . S
C104 C103 1.387 . S
C104 H127 0.931 . S
C105 C98 1.399 1_556 S
C105 C102 1.487 . S
C105 N137 1.343 . S
C106 C107 1.384 1_554 S
C106 C108 1.384 . S
C106 H128 0.931 . S
C107 C106 1.384 1_556 S
C107 C110 1.382 . S
C108 C106 1.384 . S
C108 C109 1.381 1_554 S
C108 H129 0.930 . S
C109 C108 1.381 1_556 S
C109 C111 1.381 . S
C109 C112 1.487 . S
C110 C107 1.382 . S
C110 C111 1.387 . S
C110 H130 0.930 . S
C111 C109 1.381 . S
C111 C110 1.387 . S
C111 H131 0.931 . S
C112 C109 1.487 . S
C112 C119 1.399 1_556 S
C112 N137 1.343 . S
C113 C114 1.384 1_556 S
C113 C115 1.384 . S
C113 H132 0.931 . S
C114 C113 1.384 1_554 S
C114 C117 1.382 . S
C115 C113 1.384 . S
C115 C116 1.381 1_556 S
C115 H133 0.930 . S
C116 C115 1.381 1_554 S
C116 C118 1.381 . S
C116 C119 1.487 . S
C117 C114 1.382 . S
C117 C118 1.387 . S
C117 H134 0.930 . S
C118 C116 1.381 . S
C118 C117 1.387 . S
C118 H135 0.931 . S
C119 C112 1.399 1_554 S
C119 C116 1.487 . S
C119 N136 1.343 . S
H120 C92 0.931 . S
H121 C94 0.930 . S
H122 C96 0.930 . S
H123 C97 0.931 . S
H124 C99 0.931 . S
H125 C101 0.930 . S
H126 C103 0.930 . S
H127 C104 0.931 . S
H128 C106 0.931 . S
H129 C108 0.930 . S
H130 C110 0.930 . S
H131 C111 0.931 . S
H132 C113 0.931 . S
H133 C115 0.930 . S
H134 C117 0.930 . S
H135 C118 0.931 . S
N136 C98 1.343 . S
N136 C119 1.343 . S
N137 C105 1.343 . S
N137 C112 1.343 . S
C138 O164 1.283 . S
C138 O182 1.283 . S
C139 O165 1.283 . S
C139 O180 1.283 . S
C140 O166 1.283 . S
C140 O183 1.283 . S
C141 O167 1.283 . S
C141 O181 1.283 . S
C142 O168 1.283 . S
C142 O177 1.283 . S
C143 O169 1.283 . S
C143 O179 1.283 . S
C144 O170 1.283 . S
C144 O176 1.283 . S
C145 O171 1.283 . S
C145 O178 1.283 . S
C146 O172 1.283 . S
C146 O187 1.283 . S
C147 O173 1.283 . S
C147 O185 1.283 . S
C148 O174 1.283 . S
C148 O186 1.283 . S
C149 O175 1.283 . S
C149 O184 1.283 . S
Eu150 O151 2.370 . S
Eu150 O152 2.370 1_454 S
Eu150 O155 2.370 1_554 S
Eu150 O156 2.370 1_455 S
Eu150 O164 2.363 1_554 S
Eu150 O165 2.363 . S
Eu150 O178 2.363 1_455 S
Eu150 O179 2.363 . S
O151 Eu150 2.370 . S
O151 Eu153 2.370 . S
O151 Eu158 2.370 . S
O152 Eu150 2.370 1_656 S
O152 Eu154 2.370 1_556 S
O152 Eu157 2.370 1_655 S
Eu153 O151 2.370 . S
Eu153 O155 2.370 1_554 S
Eu153 O159 2.370 1_544 S
Eu153 O160 2.370 1_545 S
Eu153 O168 2.363 1_545 S
Eu153 O169 2.363 . S
Eu153 O184 2.363 1_554 S
Eu153 O185 2.363 . S
Eu154 O152 2.370 1_554 S
Eu154 O156 2.370 . S
Eu154 O161 2.370 1_545 S
Eu154 O162 2.370 1_544 S
Eu154 O170 2.363 1_545 S
Eu154 O171 2.363 . S
Eu154 O186 2.363 1_554 S
Eu154 O187 2.363 . S
O155 Eu150 2.370 1_556 S
O155 Eu153 2.370 1_556 S
O155 Eu157 2.370 . S
O156 Eu150 2.370 1_655 S
O156 Eu154 2.370 . S
O156 Eu158 2.370 1_655 S
Eu157 O152 2.370 1_455 S
Eu157 O155 2.370 . S
Eu157 O159 2.370 1_545 S
Eu157 O162 2.370 1_445 S
Eu157 O174 2.363 1_455 S
Eu157 O175 2.363 . S
Eu157 O182 2.363 . S
Eu157 O183 2.363 1_545 S
Eu158 O151 2.370 . S
Eu158 O156 2.370 1_455 S
Eu158 O160 2.370 1_545 S
Eu158 O161 2.370 1_445 S
Eu158 O172 2.363 1_455 S
Eu158 O173 2.363 . S
Eu158 O180 2.363 . S
Eu158 O181 2.363 1_545 S
O159 Eu153 2.370 1_566 S
O159 Eu157 2.370 1_565 S
O159 Eu163 2.370 1_556 S
O160 Eu153 2.370 1_565 S
O160 Eu158 2.370 1_565 S
O160 Eu163 2.370 . S
O161 Eu154 2.370 1_565 S
O161 Eu158 2.370 1_665 S
O161 Eu163 2.370 1_655 S
O162 Eu154 2.370 1_566 S
O162 Eu157 2.370 1_665 S
O162 Eu163 2.370 1_656 S
Eu163 O159 2.370 1_554 S
Eu163 O160 2.370 . S
Eu163 O161 2.370 1_455 S
Eu163 O162 2.370 1_454 S
Eu163 O166 2.363 1_554 S
Eu163 O167 2.363 . S
Eu163 O176 2.363 1_455 S
Eu163 O177 2.363 . S
O164 C138 1.283 . S
O164 Eu150 2.363 1_556 S
O165 C139 1.283 . S
O165 Eu150 2.363 . S
O166 C140 1.283 . S
O166 Eu163 2.363 1_556 S
O167 C141 1.283 . S
O167 Eu163 2.363 . S
O168 C142 1.283 . S
O168 Eu153 2.363 1_565 S
O169 C143 1.283 . S
O169 Eu153 2.363 . S
O170 C144 1.283 . S
O170 Eu154 2.363 1_565 S
O171 C145 1.283 . S
O171 Eu154 2.363 . S
O172 C146 1.283 . S
O172 Eu158 2.363 1_655 S
O173 C147 1.283 . S
O173 Eu158 2.363 . S
O174 C148 1.283 . S
O174 Eu157 2.363 1_655 S
O175 C149 1.283 . S
O175 Eu157 2.363 . S
O176 C144 1.283 . S
O176 Eu163 2.363 1_655 S
O177 C142 1.283 . S
O177 Eu163 2.363 . S
O178 C145 1.283 . S
O178 Eu150 2.363 1_655 S
O179 C143 1.283 . S
O179 Eu150 2.363 . S
O180 C139 1.283 . S
O180 Eu158 2.363 . S
O181 C141 1.283 . S
O181 Eu158 2.363 1_565 S
O182 C138 1.283 . S
O182 Eu157 2.363 . S
O183 C140 1.283 . S
O183 Eu157 2.363 1_565 S
O184 C149 1.283 . S
O184 Eu153 2.363 1_556 S
O185 C147 1.283 . S
O185 Eu153 2.363 . S
O186 C148 1.283 . S
O186 Eu154 2.363 1_556 S
O187 C146 1.283 . S
O187 Eu154 2.363 . S
C188 C189 1.387 . S
C188 H192 0.950 . S
C188 C197 1.390 . S
C189 C188 1.387 . S
C189 C191 1.387 1_455 S
H190 C197 0.950 . S
C191 C189 1.387 1_655 S
C191 C193 1.390 . S
C191 H195 0.950 . S
H192 C188 0.950 . S
C193 C191 1.390 . S
C193 C194 1.387 1_655 S
C193 H196 0.950 . S
C194 C193 1.387 1_455 S
C194 C197 1.387 . S
H195 C191 0.950 . S
H196 C193 0.950 . S
C197 C188 1.390 . S
C197 H190 0.950 . S
C197 C194 1.387 . S
C198 C199 1.388 1_565 S
C198 H202 0.950 . S
C198 C207 1.390 . S
C199 C198 1.388 1_545 S
C199 C201 1.387 . S
H200 C207 0.950 . S
C201 C199 1.387 . S
C201 C203 1.390 . S
C201 H205 0.950 . S
H202 C198 0.950 . S
C203 C201 1.390 . S
C203 C204 1.387 . S
C203 H206 0.950 . S
C204 C203 1.387 . S
C204 C207 1.388 1_545 S
H205 C201 0.950 . S
H206 C203 0.950 . S
C207 C198 1.390 . S
C207 H200 0.950 . S
C207 C204 1.388 1_565 S
C208 C209 1.387 . S
C208 H212 0.950 . S
C208 C217 1.390 . S
C209 C208 1.387 . S
C209 C211 1.387 1_455 S
H210 C217 0.950 . S
C211 C209 1.387 1_655 S
C211 C213 1.390 . S
C211 H215 0.950 . S
H212 C208 0.950 . S
C213 C211 1.390 . S
C213 C214 1.387 1_655 S
C213 H216 0.950 . S
C214 C213 1.387 1_455 S
C214 C217 1.387 . S
H215 C211 0.950 . S
H216 C213 0.950 . S
C217 C208 1.390 . S
C217 H210 0.950 . S
C217 C214 1.387 . S
C218 C219 1.387 . S
C218 H222 0.950 . S
C218 C227 1.390 . S
C219 C218 1.387 . S
C219 C221 1.388 1_545 S
H220 C227 0.950 . S
C221 C219 1.388 1_565 S
C221 C223 1.390 . S
C221 H225 0.950 . S
H222 C218 0.950 . S
C223 C221 1.390 . S
C223 C224 1.388 1_565 S
C223 H226 0.950 . S
C224 C223 1.388 1_545 S
C224 C227 1.387 . S
H225 C221 0.950 . S
H226 C223 0.950 . S
C227 C218 1.390 . S
C227 H220 0.950 . S
C227 C224 1.387 . S
C228 C229 1.387 1_655 S
C228 H232 0.950 . S
C228 C237 1.390 . S
C229 C228 1.387 1_455 S
C229 C231 1.387 . S
H230 C237 0.950 . S
C231 C229 1.387 . S
C231 C233 1.390 . S
C231 H235 0.950 . S
H232 C228 0.950 . S
C233 C231 1.390 . S
C233 C234 1.387 . S
C233 H236 0.950 . S
C234 C233 1.387 . S
C234 C237 1.387 1_455 S
H235 C231 0.950 . S
H236 C233 0.950 . S
C237 C228 1.390 . S
C237 H230 0.950 . S
C237 C234 1.387 1_655 S
C238 C239 1.388 1_565 S
C238 H242 0.950 . S
C238 C247 1.390 . S
C239 C238 1.388 1_545 S
C239 C241 1.387 . S
H240 C247 0.950 . S
C241 C239 1.387 . S
C241 C243 1.390 . S
C241 H245 0.950 . S
H242 C238 0.950 . S
C243 C241 1.390 . S
C243 C244 1.387 . S
C243 H246 0.950 . S
C244 C243 1.387 . S
C244 C247 1.388 1_545 S
H245 C241 0.950 . S
H246 C243 0.950 . S
C247 C238 1.390 . S
C247 H240 0.950 . S
C247 C244 1.388 1_565 S
C248 C249 1.387 1_655 S
C248 H252 0.950 . S
C248 C257 1.390 . S
C249 C248 1.387 1_455 S
C249 C251 1.387 . S
H250 C257 0.950 . S
C251 C249 1.387 . S
C251 C253 1.390 . S
C251 H255 0.950 . S
H252 C248 0.950 . S
C253 C251 1.390 . S
C253 C254 1.387 . S
C253 H256 0.950 . S
C254 C253 1.387 . S
C254 C257 1.387 1_455 S
H255 C251 0.950 . S
H256 C253 0.950 . S
C257 C248 1.390 . S
C257 H250 0.950 . S
C257 C254 1.387 1_655 S
C258 C259 1.388 . S
C258 H262 0.950 . S
C258 C267 1.390 . S
C259 C258 1.388 . S
C259 C261 1.387 1_545 S
H260 C267 0.950 . S
C261 C259 1.387 1_565 S
C261 C263 1.390 . S
C261 H265 0.950 . S
H262 C258 0.950 . S
C263 C261 1.390 . S
C263 C264 1.387 1_565 S
C263 H266 0.950 . S
C264 C263 1.387 1_545 S
C264 C267 1.388 . S
H265 C261 0.950 . S
H266 C263 0.950 . S
C267 C258 1.390 . S
C267 H260 0.950 . S
C267 C264 1.388 . S
C268 C269 1.387 . S
C268 H272 0.950 . S
C268 C277 1.390 . S
C269 C268 1.387 . S
C269 C271 1.387 1_554 S
H270 C277 0.950 . S
C271 C269 1.387 1_556 S
C271 C273 1.390 . S
C271 H275 0.950 . S
H272 C268 0.950 . S
C273 C271 1.390 . S
C273 C274 1.387 1_556 S
C273 H276 0.950 . S
C274 C273 1.387 1_554 S
C274 C277 1.388 . S
H275 C271 0.950 . S
H276 C273 0.950 . S
C277 C268 1.390 . S
C277 H270 0.950 . S
C277 C274 1.388 . S
C278 C279 1.387 . S
C278 H282 0.950 . S
C278 C287 1.390 . S
C279 C278 1.387 . S
C279 C281 1.387 1_554 S
H280 C287 0.950 . S
C281 C279 1.387 1_556 S
C281 C283 1.390 . S
C281 H285 0.950 . S
H282 C278 0.950 . S
C283 C281 1.390 . S
C283 C284 1.387 1_556 S
C283 H286 0.950 . S
C284 C283 1.387 1_554 S
C284 C287 1.388 . S
H285 C281 0.950 . S
H286 C283 0.950 . S
C287 C278 1.390 . S
C287 H280 0.950 . S
C287 C284 1.388 . S
C288 C289 1.387 . S
C288 H292 0.950 . S
C288 C297 1.390 . S
C289 C288 1.387 . S
C289 C291 1.388 1_554 S
H290 C297 0.950 . S
C291 C289 1.388 1_556 S
C291 C293 1.390 . S
C291 H295 0.950 . S
H292 C288 0.950 . S
C293 C291 1.390 . S
C293 C294 1.387 1_556 S
C293 H296 0.950 . S
C294 C293 1.387 1_554 S
C294 C297 1.387 . S
H295 C291 0.950 . S
H296 C293 0.950 . S
C297 C288 1.390 . S
C297 H290 0.950 . S
C297 C294 1.387 . S
C298 C299 1.388 1_556 S
C298 H302 0.950 . S
C298 C307 1.390 . S
C299 C298 1.388 1_554 S
C299 C301 1.387 . S
H300 C307 0.950 . S
C301 C299 1.387 . S
C301 C303 1.390 . S
C301 H305 0.950 . S
H302 C298 0.950 . S
C303 C301 1.390 . S
C303 C304 1.387 . S
C303 H306 0.950 . S
C304 C303 1.387 . S
C304 C307 1.387 1_554 S
H305 C301 0.950 . S
H306 C303 0.950 . S
C307 C298 1.390 . S
C307 H300 0.950 . S
C307 C304 1.387 1_556 S
C194 C139 1.737 . S
C189 C15 1.728 . S
C204 C146 1.362 . S
C199 C68 1.356 1_545 S
C214 C141 1.738 . S
C209 C8 1.731 . S
C224 C147 1.362 . S
C219 C61 1.353 . S
C229 C1 1.731 1_455 S
C234 C140 1.741 . S
C244 C149 1.362 . S
C239 C54 1.356 . S
C249 C22 1.730 1_455 S
C254 C138 1.738 . S
C259 C47 1.356 1_545 S
C264 C148 1.365 . S
C269 C93 1.528 . S
C274 C143 1.529 . S
C279 C114 1.527 . S
C284 C142 1.530 . S
C294 C145 1.531 . S
C289 C100 1.527 1_554 S
C304 C144 1.531 . S
C299 C107 1.530 1_554 S
