# Generated by pormake.
# Topology zzz, (3,6)-cn, num edge types: 1
# Building blocks:
#     Node 0, Type 0, BuildingBlock: BELTOD_clean_linker_0, # of connection points: 3
#     Node 1, Type 0, BuildingBlock: BELTOD_clean_linker_0, # of connection points: 3
#     Node 2, Type 0, BuildingBlock: BELTOD_clean_linker_0, # of connection points: 3
#     Node 3, Type 0, BuildingBlock: BELTOD_clean_linker_0, # of connection points: 3
#     Node 4, Type 0, BuildingBlock: BELTOD_clean_linker_0, # of connection points: 3
#     Node 5, Type 0, BuildingBlock: BELTOD_clean_linker_0, # of connection points: 3
#     Node 6, Type 0, BuildingBlock: BELTOD_clean_linker_0, # of connection points: 3
#     Node 7, Type 0, BuildingBlock: BELTOD_clean_linker_0, # of connection points: 3
#     Node 8, Type 1, BuildingBlock: KUMBOL_clean_sbu_1, # of connection points: 6
#     Node 9, Type 1, BuildingBlock: KUMBOL_clean_sbu_1, # of connection points: 6
#     Node 10, Type 1, BuildingBlock: KUMBOL_clean_sbu_1, # of connection points: 6
#     Node 11, Type 1, BuildingBlock: KUMBOL_clean_sbu_1, # of connection points: 6
#     Edge 12, Type (0, 1), BuildingBlock: ZUJKAS_clean_linker_0, # of connection points: 2
#     Edge 13, Type (0, 1), BuildingBlock: ZUJKAS_clean_linker_0, # of connection points: 2
#     Edge 14, Type (0, 1), BuildingBlock: ZUJKAS_clean_linker_0, # of connection points: 2
#     Edge 15, Type (0, 1), BuildingBlock: ZUJKAS_clean_linker_0, # of connection points: 2
#     Edge 16, Type (0, 1), BuildingBlock: ZUJKAS_clean_linker_0, # of connection points: 2
#     Edge 17, Type (0, 1), BuildingBlock: ZUJKAS_clean_linker_0, # of connection points: 2
#     Edge 18, Type (0, 1), BuildingBlock: ZUJKAS_clean_linker_0, # of connection points: 2
#     Edge 19, Type (0, 1), BuildingBlock: ZUJKAS_clean_linker_0, # of connection points: 2
#     Edge 20, Type (0, 1), BuildingBlock: ZUJKAS_clean_linker_0, # of connection points: 2
#     Edge 21, Type (0, 1), BuildingBlock: ZUJKAS_clean_linker_0, # of connection points: 2
#     Edge 22, Type (0, 1), BuildingBlock: ZUJKAS_clean_linker_0, # of connection points: 2
#     Edge 23, Type (0, 1), BuildingBlock: ZUJKAS_clean_linker_0, # of connection points: 2
#     Edge 24, Type (0, 1), BuildingBlock: ZUJKAS_clean_linker_0, # of connection points: 2
#     Edge 25, Type (0, 1), BuildingBlock: ZUJKAS_clean_linker_0, # of connection points: 2
#     Edge 26, Type (0, 1), BuildingBlock: ZUJKAS_clean_linker_0, # of connection points: 2
#     Edge 27, Type (0, 1), BuildingBlock: ZUJKAS_clean_linker_0, # of connection points: 2
#     Edge 28, Type (0, 1), BuildingBlock: ZUJKAS_clean_linker_0, # of connection points: 2
#     Edge 29, Type (0, 1), BuildingBlock: ZUJKAS_clean_linker_0, # of connection points: 2
#     Edge 30, Type (0, 1), BuildingBlock: ZUJKAS_clean_linker_0, # of connection points: 2
#     Edge 31, Type (0, 1), BuildingBlock: ZUJKAS_clean_linker_0, # of connection points: 2
#     Edge 32, Type (0, 1), BuildingBlock: ZUJKAS_clean_linker_0, # of connection points: 2
#     Edge 33, Type (0, 1), BuildingBlock: ZUJKAS_clean_linker_0, # of connection points: 2
#     Edge 34, Type (0, 1), BuildingBlock: ZUJKAS_clean_linker_0, # of connection points: 2
#     Edge 35, Type (0, 1), BuildingBlock: ZUJKAS_clean_linker_0, # of connection points: 2
# Relax obj value: 0.272
# Max RMSD: 0.195
# Mean RMSD: 0.170
data_MOF--net-zzz--node1-KUMBOL_clean_sbu_1--node2-BELTOD_clean_linker_0--edge1-ZUJKAS_clean_linker_0
_symmetry_space_group_name_H-M    P1
_symmetry_Int_Tables_number       1
_symmetry_cell_setting            triclinic
loop_
_symmetry_equiv_pos_as_xyz
'x, y, z'
_cell_length_a     67.228633
_cell_length_b     67.161304
_cell_length_c     24.714947
_cell_angle_alpha  89.762241
_cell_angle_beta   89.905879
_cell_angle_gamma 90.529693
loop_
_atom_site_label
_atom_site_type_symbol
_atom_site_fract_x
_atom_site_fract_y
_atom_site_fract_z
_atom_type_partial_charge
P0 P 0.72949 0.53149 0.24192 0.0
H1 H 0.73594 0.51196 0.34678 0.0
H2 H 0.76481 0.51473 0.40578 0.0
H3 H 0.77986 0.5714 0.33299 0.0
H4 H 0.75066 0.56866 0.27443 0.0
H5 H 0.69647 0.50376 0.22251 0.0
H6 H 0.66862 0.506 0.16147 0.0
H7 H 0.67771 0.56963 0.14926 0.0
H8 H 0.7052 0.56732 0.214 0.0
H9 H 0.77205 0.52936 0.23112 0.0
H10 H 0.72344 0.55075 0.13277 0.0
O11 O 0.73257 0.50684 0.24208 0.0
H12 H 0.79516 0.53792 0.15852 0.0
H13 H 0.74668 0.55951 0.06141 0.0
C14 C 0.74119 0.53982 0.30475 0.0
C15 C 0.74484 0.52547 0.34498 0.0
C16 C 0.76172 0.52688 0.37821 0.0
C17 C 0.7753 0.54287 0.37275 0.0
C18 C 0.76999 0.5587 0.33808 0.0
C19 C 0.75301 0.55726 0.30481 0.0
C20 C 0.7036 0.5353 0.22195 0.0
C21 C 0.6922 0.51839 0.20852 0.0
C22 C 0.67633 0.51964 0.17216 0.0
C23 C 0.67143 0.53783 0.1472 0.0
C24 C 0.68111 0.55522 0.16642 0.0
C25 C 0.6968 0.55397 0.20426 0.0
C26 C 0.74594 0.53993 0.18886 0.0
C27 C 0.76634 0.53649 0.19502 0.0
C28 C 0.77955 0.54146 0.15384 0.0
C29 C 0.77252 0.54971 0.10556 0.0
C30 C 0.75229 0.55363 0.09927 0.0
C31 C 0.739 0.54859 0.14056 0.0
P32 P 0.9964 0.73027 0.24417 0.0
H33 H 0.01216 0.73903 0.35216 0.0
H34 H 0.00816 0.7692 0.40585 0.0
H35 H 0.95525 0.78355 0.31647 0.0
H36 H 0.95924 0.75334 0.26225 0.0
H37 H 0.02234 0.70177 0.19404 0.0
H38 H 0.01588 0.67558 0.1296 0.0
H39 H 0.95344 0.6769 0.16871 0.0
H40 H 0.95997 0.70373 0.23489 0.0
H41 H 0.01471 0.76646 0.2029 0.0
H42 H 0.96359 0.72971 0.1644 0.0
O43 O 0.02105 0.73188 0.25181 0.0
H44 H 1.00371 0.79104 0.13662 0.0
H45 H 0.95302 0.75396 0.09754 0.0
C46 C 0.98627 0.74379 0.30196 0.0
C47 C 0.99912 0.74805 0.34538 0.0
C48 C 0.99699 0.76552 0.37586 0.0
C49 C 0.98162 0.77896 0.36473 0.0
C50 C 0.96731 0.77353 0.3259 0.0
C51 C 0.96952 0.75604 0.29511 0.0
C52 C 0.99168 0.70502 0.21993 0.0
C53 C 0.00727 0.69608 0.19116 0.0
C54 C 1.00358 0.68114 0.15336 0.0
C55 C 0.98415 0.67449 0.14318 0.0
C56 C 0.9686 0.68184 0.17562 0.0
C57 C 0.97236 0.69702 0.21394 0.0
C58 C 0.99035 0.74594 0.18782 0.0
C59 C 1.00148 0.76337 0.17934 0.0
C60 C 0.99507 0.77747 0.1421 0.0
C61 C 0.97743 0.7743 0.11298 0.0
C62 C 0.96667 0.75658 0.11977 0.0
C63 C 0.97294 0.74258 0.1576 0.0
P64 P 0.79301 0.99608 0.23643 0.0
H65 H 0.7865 0.01059 0.34727 0.0
H66 H 0.75722 1.00572 0.40504 0.0
H67 H 0.73989 0.95475 0.31039 0.0
H68 H 0.76969 0.95891 0.25449 0.0
H69 H 0.8218 0.02177 0.18347 0.0
H70 H 0.84929 0.0151 0.12273 0.0
H71 H 0.8462 0.95282 0.16436 0.0
H72 H 0.81853 0.95964 0.22766 0.0
H73 H 0.75433 0.01111 0.20685 0.0
H74 H 0.79429 0.96579 0.14945 0.0
O75 O 0.79163 0.02073 0.24424 0.0
H76 H 0.72927 0.99963 0.14247 0.0
H77 H 0.76947 0.95452 0.08534 0.0
C78 C 0.78035 0.9854 0.29538 0.0
C79 C 0.7771 0.99766 0.34057 0.0
C80 C 0.76013 0.99503 0.37335 0.0
C81 C 0.74596 0.98018 0.36136 0.0
C82 C 0.75038 0.96652 0.32016 0.0
C83 C 0.76764 0.96882 0.28843 0.0
C84 C 0.81805 0.99129 0.21129 0.0
C85 C 0.82746 1.00675 0.18209 0.0
C86 C 0.84315 1.00294 0.14658 0.0
C87 C 0.8498 0.98349 0.13856 0.0
C88 C 0.84135 0.968 0.16997 0.0
C89 C 0.82573 0.97193 0.2067 0.0
C90 C 0.77648 0.98983 0.18203 0.0
C91 C 0.75791 0.99902 0.17977 0.0
C92 C 0.7435 0.99219 0.14382 0.0
C93 C 0.74749 0.97604 0.10964 0.0
C94 C 0.76613 0.967 0.11138 0.0
C95 C 0.78045 0.9737 0.14773 0.0
P96 P 0.53264 0.79411 0.24308 0.0
H97 H 0.51256 0.78782 0.34705 0.0
H98 H 0.51515 0.75823 0.40378 0.0
H99 H 0.5736 0.74717 0.33952 0.0
H100 H 0.57077 0.77668 0.28127 0.0
H101 H 0.5043 0.81986 0.19067 0.0
H102 H 0.50774 0.84695 0.12824 0.0
H103 H 0.57047 0.85132 0.16423 0.0
H104 H 0.56697 0.82273 0.22694 0.0
H105 H 0.53192 0.75135 0.24092 0.0
H106 H 0.55305 0.79875 0.13586 0.0
O107 O 0.50817 0.78957 0.2438 0.0
H108 H 0.53999 0.72718 0.17193 0.0
H109 H 0.56022 0.77443 0.06583 0.0
C110 C 0.54114 0.78431 0.30802 0.0
C111 C 0.52641 0.77971 0.34666 0.0
C112 C 0.52773 0.76248 0.37872 0.0
C113 C 0.54425 0.74987 0.3747 0.0
C114 C 0.56053 0.75638 0.34307 0.0
C115 C 0.55905 0.77356 0.3103 0.0
C116 C 0.53526 0.81924 0.21531 0.0
C117 C 0.51879 0.82689 0.18744 0.0
C118 C 0.52079 0.84264 0.15092 0.0
C119 C 0.53936 0.8517 0.14091 0.0
C120 C 0.5559 0.84473 0.17058 0.0
C121 C 0.55386 0.82863 0.20747 0.0
C122 C 0.54184 0.77691 0.19396 0.0
C123 C 0.53871 0.75658 0.20365 0.0
C124 C 0.54329 0.74277 0.16425 0.0
C125 C 0.55043 0.74912 0.11371 0.0
C126 C 0.5548 0.7693 0.10481 0.0
C127 C 0.55049 0.7832 0.14488 0.0
P128 P 0.29537 0.45108 0.99228 0.0
H129 H 0.28433 0.4407 0.88024 0.0
H130 H 0.25574 0.44991 0.82591 0.0
H131 H 0.24219 0.49641 0.94051 0.0
H132 H 0.2716 0.48785 0.99203 0.0
H133 H 0.3295 0.42942 0.03267 0.0
H134 H 0.3559 0.43847 0.09438 0.0
H135 H 0.33952 0.50035 0.07947 0.0
H136 H 0.31354 0.49101 0.01472 0.0
H137 H 0.25538 0.4354 0.00637 0.0
H138 H 0.29858 0.46659 0.10494 0.0
O139 O 0.29797 0.42747 0.97277 0.0
H140 H 0.23 0.44158 0.07491 0.0
H141 H 0.27354 0.47256 0.17247 0.0
C142 C 0.28046 0.4636 0.94054 0.0
C143 C 0.27573 0.45347 0.89248 0.0
C144 C 0.25883 0.4585 0.86188 0.0
C145 C 0.24576 0.47365 0.87879 0.0
C146 C 0.25152 0.48474 0.92491 0.0
C147 C 0.26867 0.47993 0.95477 0.0
C148 C 0.31952 0.45951 0.01783 0.0
C149 C 0.33207 0.44508 0.04051 0.0
C150 C 0.34701 0.4503 0.07746 0.0
C151 C 0.34974 0.47017 0.0942 0.0
C152 C 0.33813 0.48486 0.06815 0.0
C153 C 0.32327 0.47959 0.03028 0.0
C154 C 0.27887 0.45074 0.0496 0.0
C155 C 0.25957 0.44311 0.04311 0.0
C156 C 0.24508 0.44668 0.08217 0.0
C157 C 0.24982 0.45782 0.12844 0.0
C158 C 0.26943 0.46433 0.13651 0.0
C159 C 0.28385 0.46079 0.09751 0.0
P160 P 0.07353 0.2966 0.99818 0.0
H161 H 0.08646 0.28385 0.8897 0.0
H162 H 0.07712 0.25461 0.83656 0.0
H163 H 0.02595 0.24524 0.9392 0.0
H164 H 0.03492 0.27492 0.99114 0.0
H165 H 0.09592 0.32622 0.05663 0.0
H166 H 0.08642 0.35273 0.11694 0.0
H167 H 0.02544 0.34668 0.06418 0.0
H168 H 0.03526 0.31936 1.00382 0.0
H169 H 0.09724 0.2633 0.03748 0.0
H170 H 0.04355 0.29366 0.08375 0.0
O171 O 0.09766 0.29831 0.98247 0.0
H172 H 0.0904 0.23781 0.10612 0.0
H173 H 0.03645 0.26828 0.15058 0.0
C174 C 0.06152 0.28184 0.94511 0.0
C175 C 0.07272 0.27612 0.89961 0.0
C176 C 0.06747 0.25915 0.86932 0.0
C177 C 0.05101 0.24719 0.88421 0.0
C178 C 0.03893 0.25383 0.92708 0.0
C179 C 0.04395 0.27105 0.95656 0.0
C180 C 0.06643 0.32088 0.02442 0.0
C181 C 0.08059 0.33104 0.05603 0.0
C182 C 0.07507 0.34631 0.09118 0.0
C183 C 0.05507 0.35201 0.09623 0.0
C184 C 0.04096 0.3426 0.06217 0.0
C185 C 0.04659 0.32719 0.02666 0.0
C186 C 0.07116 0.28061 0.05612 0.0
C187 C 0.08429 0.26479 0.06321 0.0
C188 C 0.08022 0.25012 0.10191 0.0
C189 C 0.06279 0.25099 0.13335 0.0
C190 C 0.05014 0.26733 0.12761 0.0
C191 C 0.05428 0.28198 0.08927 0.0
P192 P 0.22793 0.07902 0.99435 0.0
H193 H 0.24357 0.09327 0.89069 0.0
H194 H 0.27211 0.08375 0.83951 0.0
H195 H 0.27469 0.02844 0.93045 0.0
H196 H 0.24679 0.0394 0.9847 0.0
H197 H 0.19385 0.0993 0.03912 0.0
H198 H 0.16805 0.08824 0.10193 0.0
H199 H 0.18475 0.02725 0.07586 0.0
H200 H 0.21065 0.03838 0.01146 0.0
H201 H 0.26889 0.09243 0.00764 0.0
H202 H 0.22344 0.0651 0.1083 0.0
O203 O 0.22484 0.1028 0.97655 0.0
H204 H 0.29367 0.08503 0.0771 0.0
H205 H 0.24783 0.05799 0.17646 0.0
C206 C 0.24261 0.06707 0.94164 0.0
C207 C 0.24989 0.0788 0.89879 0.0
C208 C 0.26671 0.07315 0.86906 0.0
C209 C 0.27688 0.05523 0.8802 0.0
C210 C 0.26831 0.04267 0.92051 0.0
C211 C 0.25167 0.04863 0.95111 0.0
C212 C 0.20404 0.0697 0.019 0.0
C213 C 0.1914 0.08345 0.04425 0.0
C214 C 0.17674 0.07715 0.08097 0.0
C215 C 0.17446 0.05692 0.09399 0.0
C216 C 0.18625 0.04296 0.06654 0.0
C217 C 0.20084 0.04929 0.02901 0.0
C218 C 0.24438 0.0788 0.05154 0.0
C219 C 0.26412 0.08525 0.04485 0.0
C220 C 0.27825 0.08105 0.08448 0.0
C221 C 0.27264 0.07049 0.13127 0.0
C222 C 0.25258 0.06566 0.13991 0.0
C223 C 0.23855 0.06979 0.10048 0.0
P224 P 0.4463 0.22694 0.99314 0.0
H225 H 0.43528 0.23869 0.88201 0.0
H226 H 0.44422 0.26848 0.82955 0.0
H227 H 0.49228 0.28066 0.93985 0.0
H228 H 0.48372 0.25048 0.99159 0.0
H229 H 0.42414 0.19671 0.0508 0.0
H230 H 0.43392 0.17173 0.11691 0.0
H231 H 0.49531 0.1799 0.07102 0.0
H232 H 0.48545 0.20593 0.00543 0.0
H233 H 0.43076 0.26678 0.0058 0.0
H234 H 0.46268 0.22453 0.10478 0.0
O235 O 0.42268 0.22406 0.97365 0.0
H236 H 0.437 0.29243 0.07335 0.0
H237 H 0.46781 0.24951 0.17271 0.0
C238 C 0.45889 0.24193 0.94099 0.0
C239 C 0.44839 0.24709 0.89368 0.0
C240 C 0.45335 0.26437 0.86384 0.0
C241 C 0.46881 0.27711 0.88089 0.0
C242 C 0.48023 0.27122 0.9258 0.0
C243 C 0.47552 0.25371 0.95496 0.0
C244 C 0.45395 0.20305 0.02164 0.0
C245 C 0.43968 0.19267 0.05289 0.0
C246 C 0.44529 0.17852 0.09157 0.0
C247 C 0.46537 0.1739 0.0996 0.0
C248 C 0.47968 0.18311 0.06564 0.0
C249 C 0.47405 0.19779 0.02748 0.0
C250 C 0.44621 0.24368 0.04966 0.0
C251 C 0.43848 0.26281 0.04268 0.0
C252 C 0.44204 0.27744 0.08137 0.0
C253 C 0.45309 0.273 0.12804 0.0
C254 C 0.45963 0.25348 0.13657 0.0
C255 C 0.45642 0.23902 0.09752 0.0
C256 C 0.06454 0.02278 0.73234 0.0
C257 C 0.05135 0.02875 0.82218 0.0
C258 C 0.04884 0.02198 0.7686 0.0
C259 C 0.06961 0.03722 0.83789 0.0
C260 C 0.08327 0.0302 0.74902 0.0
C261 C 0.08555 0.03792 0.8014 0.0
N262 N 0.0621 0.0144 0.68282 0.0
C263 C 0.07823 0.01129 0.65046 0.0
C264 C 0.09947 0.02854 0.71375 0.0
C265 C 0.097 0.01866 0.66467 0.0
Gd266 Gd 0.99049 0.02564 0.56527 0.0
Gd267 Gd 0.03013 1.00154 0.66321 0.0
N268 N 0.03159 0.0131 0.75277 0.0
C269 C 0.03578 0.0259 0.85913 0.0
C270 C 0.01708 0.00883 0.78982 0.0
C271 C 0.0187 0.01558 0.84307 0.0
H272 H 1.00449 0.9997 0.77904 0.0
H273 H 0.00697 0.0124 0.87199 0.0
H274 H 0.02269 1.0062 0.46846 0.0
H275 H 0.07687 1.00189 0.61564 0.0
H276 H 0.01962 0.99067 0.38032 0.0
H277 H 0.03717 0.0308 0.90069 0.0
H278 H 0.07179 0.04255 0.8788 0.0
H279 H 0.9461 0.02002 0.62466 0.0
H280 H 0.11412 0.03384 0.72528 0.0
H281 H 0.10967 0.01613 0.6386 0.0
H282 H 0.94961 0.98026 0.3578 0.0
H283 H 0.0998 0.04373 0.81477 0.0
H284 H 0.90662 0.99553 0.50623 0.0
H285 H 0.91232 0.00955 0.59733 0.0
N286 N 0.95959 0.01055 0.55142 0.0
C287 C 0.95688 1.0027 0.50132 0.0
C288 C 0.94396 0.01295 0.58593 0.0
C289 C 0.92158 0.99952 0.51864 0.0
C290 C 0.92475 0.00736 0.5702 0.0
C291 C 0.93773 0.99701 0.48356 0.0
H292 H 0.92058 0.98517 0.41663 0.0
N293 N 0.99157 1.00653 0.485 0.0
C294 C 0.97329 1.00045 0.46742 0.0
C295 C 0.98772 0.98846 0.3841 0.0
C296 C 0.97087 0.99174 0.41591 0.0
C297 C 0.00809 1.00264 0.45465 0.0
C298 C 0.00643 0.99355 0.4041 0.0
O299 O 0.02063 0.03299 0.68614 0.0
O300 O 0.01292 0.04693 0.60363 0.0
O301 O 0.9819 0.04355 0.49664 0.0
O302 O 0.96908 0.04942 0.57554 0.0
O303 O 0.99724 0.99671 0.68212 0.0
O304 O 0.98164 0.02525 0.65382 0.0
O305 O 0.9891 0.99216 0.57957 0.0
O306 O 0.02236 0.98785 0.58212 0.0
O307 O 0.02144 0.97273 0.69615 0.0
O308 O 0.05291 0.97973 0.68095 0.0
O309 O 0.02195 0.03216 0.53686 0.0
O310 O 0.04379 0.01108 0.58236 0.0
C311 C 0.01817 0.04874 0.65479 0.0
C312 C 0.98313 0.01004 0.68714 0.0
C313 C 0.97043 0.07599 0.51286 0.0
C314 C 0.98712 0.10571 0.47884 0.0
C315 C 0.95211 0.10669 0.50311 0.0
C316 C 0.95267 0.08662 0.51744 0.0
C317 C 0.96923 0.11622 0.48392 0.0
C318 C 0.98771 0.08554 0.4935 0.0
C319 C 0.97001 0.05466 0.5248 0.0
C320 C 0.95175 0.98653 0.39773 0.0
C321 C 0.93523 0.98927 0.4313 0.0
H322 H 0.98648 0.98173 0.34446 0.0
C323 C 1.00448 0.98045 0.57403 0.0
C324 C 0.03968 0.02414 0.54371 0.0
C325 C 0.04538 0.94718 0.71796 0.0
C326 C 0.03728 0.91799 0.77128 0.0
C327 C 0.06948 0.9207 0.72775 0.0
C328 C 0.06422 0.93928 0.70677 0.0
C329 C 0.05605 0.91006 0.76018 0.0
C330 C 0.03193 0.93641 0.75002 0.0
C331 C 0.03985 0.96687 0.69814 0.0
H332 H 0.9383 0.11478 0.50595 0.0
H333 H 0.93916 0.07929 0.53129 0.0
H334 H 0.96833 0.13166 0.47136 0.0
H335 H 1.0014 0.0773 0.4889 0.0
H336 H 0.08399 0.91463 0.71915 0.0
H337 H 0.07485 0.94743 0.68201 0.0
H338 H 0.06027 0.89574 0.77671 0.0
H339 H 0.01741 0.94244 0.75938 0.0
C340 C 0.50358 0.94705 0.55299 0.0
C341 C 0.47657 0.93242 0.60544 0.0
C342 C 0.4876 0.94928 0.58819 0.0
C343 C 0.48162 0.91346 0.5863 0.0
C344 C 0.50897 0.92797 0.53473 0.0
C345 C 0.49778 0.91124 0.5511 0.0
N346 N 0.5139 0.96351 0.53672 0.0
C347 C 0.53013 0.96192 0.50377 0.0
C348 C 0.52543 0.92625 0.50036 0.0
C349 C 0.53615 0.94328 0.4852 0.0
Gd350 Gd 0.52074 0.02929 0.67634 0.0
Gd351 Gd 0.5005 0.99405 0.56302 0.0
N352 N 0.48288 0.96786 0.60562 0.0
C353 C 0.46066 0.93509 0.6411 0.0
C354 C 0.46718 0.97048 0.63981 0.0
C355 C 0.45601 0.95421 0.65852 0.0
H356 H 0.46283 0.98499 0.65223 0.0
H357 H 0.4436 0.95647 0.68568 0.0
H358 H 0.56233 0.03826 0.59939 0.0
H359 H 0.53797 0.97505 0.48986 0.0
H360 H 0.58172 0.0667 0.56744 0.0
H361 H 0.4518 0.92253 0.65516 0.0
H362 H 0.47315 0.90041 0.59864 0.0
H363 H 0.48318 0.04853 0.74839 0.0
H364 H 0.52998 0.91186 0.48534 0.0
H365 H 0.54884 0.94211 0.45845 0.0
H366 H 0.54954 0.12298 0.64538 0.0
H367 H 0.50154 0.89651 0.53689 0.0
H368 H 0.49142 0.1117 0.75355 0.0
H369 H 0.47226 0.08152 0.77932 0.0
N370 N 0.50794 0.05995 0.70388 0.0
C371 C 0.51857 0.07635 0.6887 0.0
C372 C 0.49134 0.06163 0.73544 0.0
C373 C 0.49612 0.09728 0.73908 0.0
C374 C 0.48523 0.08028 0.75361 0.0
C375 C 0.51294 0.09549 0.7061 0.0
H376 H 0.52023 0.12698 0.70367 0.0
N377 N 0.54045 0.0554 0.64002 0.0
C378 C 0.53521 0.07404 0.65585 0.0
C379 C 0.5632 0.08819 0.60688 0.0
C380 C 0.54649 0.09091 0.63968 0.0
C381 C 0.55717 0.05274 0.60953 0.0
C382 C 0.56857 0.06902 0.59189 0.0
O383 O 0.51539 0.97857 0.63388 0.0
O384 O 0.50478 1.00054 0.69596 0.0
O385 O 0.54526 0.01827 0.72326 0.0
O386 O 0.52333 0.03717 0.76116 0.0
O387 O 0.4775 0.01498 0.60233 0.0
O388 O 0.48886 0.01968 0.68888 0.0
O389 O 0.50779 0.04564 0.6028 0.0
O390 O 0.51509 0.02293 0.53791 0.0
O391 O 0.47268 0.99825 0.52256 0.0
O392 O 0.49819 0.98651 0.47724 0.0
O393 O 0.54396 0.00986 0.63355 0.0
O394 O 0.53199 1.00455 0.54753 0.0
C395 C 0.5129 0.98348 0.68456 0.0
C396 C 0.47454 0.02065 0.65288 0.0
C397 C 0.55598 0.03752 0.79746 0.0
C398 C 0.58942 0.0354 0.83281 0.0
C399 C 0.56739 0.06107 0.86527 0.0
C400 C 0.55236 0.0539 0.83127 0.0
C401 C 0.5859 0.05177 0.86635 0.0
C402 C 0.57462 0.02852 0.79821 0.0
C403 C 0.54001 0.02781 0.7668 0.0
C404 C 0.54095 0.10992 0.65716 0.0
C405 C 0.52426 0.1122 0.69037 0.0
H406 H 0.57221 0.10076 0.59361 0.0
C407 C 0.50885 0.04064 0.55137 0.0
C408 C 0.54665 1.00438 0.58272 0.0
C409 C 0.46706 0.99059 0.42885 0.0
C410 C 0.43521 0.99673 0.38778 0.0
C411 C 0.46187 0.98298 0.33405 0.0
C412 C 0.47431 0.98347 0.37931 0.0
C413 C 0.4423 0.98964 0.33817 0.0
C414 C 0.44747 0.99715 0.43277 0.0
C415 C 0.47961 0.99164 0.47677 0.0
H416 H 0.56448 0.07341 0.89206 0.0
H417 H 0.53786 0.06079 0.83254 0.0
H418 H 0.59714 0.0568 0.89467 0.0
H419 H 0.57737 0.01534 0.77411 0.0
H420 H 0.46744 0.97761 0.29573 0.0
H421 H 0.4895 0.9784 0.37554 0.0
H422 H 0.43282 0.98955 0.30276 0.0
H423 H 0.44171 1.0029 0.4706 0.0
C424 C 0.45506 0.50368 0.73513 0.0
C425 C 0.46834 0.49422 0.82296 0.0
C426 C 0.47122 0.50188 0.77018 0.0
C427 C 0.44915 0.48884 0.84037 0.0
C428 C 0.43584 0.49786 0.75232 0.0
C429 C 0.43296 0.49065 0.80519 0.0
N430 N 0.45811 0.51109 0.6844 0.0
C431 C 0.44272 0.51294 0.64885 0.0
C432 C 0.42 0.49965 0.71601 0.0
C433 C 0.42348 0.5071 0.66399 0.0
Gd434 Gd 0.52856 0.50021 0.57399 0.0
Gd435 Gd 0.48968 0.52489 0.67012 0.0
N436 N 0.48972 0.50725 0.75242 0.0
C437 C 0.48484 0.49218 0.85686 0.0
C438 C 0.50574 0.50558 0.7859 0.0
C439 C 0.50362 0.49781 0.83811 0.0
H440 H 0.52007 0.51082 0.77398 0.0
H441 H 0.51645 0.49662 0.86432 0.0
H442 H 0.50026 0.50633 0.46185 0.0
H443 H 0.44499 0.5197 0.60966 0.0
H444 H 0.50305 0.5213 0.37201 0.0
H445 H 0.48322 0.48641 0.89766 0.0
H446 H 0.44667 0.48317 0.88096 0.0
H447 H 0.5736 0.50509 0.63126 0.0
H448 H 0.40501 0.49543 0.72784 0.0
H449 H 0.41126 0.50877 0.63593 0.0
H450 H 0.57121 0.54184 0.36051 0.0
H451 H 0.41826 0.48637 0.81926 0.0
H452 H 0.61308 0.53053 0.51368 0.0
H453 H 0.60715 0.51662 0.60512 0.0
N454 N 0.56029 0.51357 0.55678 0.0
C455 C 0.56318 0.52131 0.5064 0.0
C456 C 0.57576 0.51199 0.59222 0.0
C457 C 0.59818 0.52601 0.52548 0.0
C458 C 0.59489 0.51821 0.57718 0.0
C459 C 0.58226 0.52766 0.48936 0.0
H460 H 0.59958 0.53982 0.42275 0.0
N461 N 0.529 0.5154 0.48785 0.0
C462 C 0.54709 0.5224 0.47116 0.0
C463 C 0.53362 0.5301 0.38286 0.0
C464 C 0.54986 0.52989 0.41813 0.0
C465 C 0.51361 0.51426 0.45203 0.0
C466 C 0.51545 0.52211 0.39981 0.0
O467 O 0.48808 0.49078 0.66593 0.0
O468 O 0.52058 0.48283 0.64966 0.0
O469 O 0.52341 0.47474 0.5223 0.0
O470 O 0.55214 0.47862 0.56347 0.0
O471 O 0.52238 0.53196 0.68609 0.0
O472 O 0.53833 0.50345 0.66076 0.0
O473 O 0.53052 0.53414 0.57566 0.0
O474 O 0.49878 0.54415 0.59794 0.0
O475 O 0.49105 0.54537 0.73635 0.0
O476 O 0.46668 0.54728 0.67945 0.0
O477 O 0.49537 0.49553 0.55654 0.0
O478 O 0.48 0.52428 0.58301 0.0
C479 C 0.50254 0.47763 0.66502 0.0
C480 C 0.53785 0.52009 0.68849 0.0
C481 C 0.54845 0.44974 0.506 0.0
C482 C 0.54138 0.41949 0.45636 0.0
C483 C 0.5751 0.42685 0.48537 0.0
C484 C 0.56861 0.44454 0.50874 0.0
C485 C 0.56153 0.41428 0.45942 0.0
C486 C 0.53495 0.43722 0.47954 0.0
C487 C 0.5413 0.46806 0.53072 0.0
C488 C 0.56882 0.53627 0.40124 0.0
C489 C 0.58498 0.53509 0.43667 0.0
H490 H 0.53515 0.53572 0.34187 0.0
C491 C 0.51655 0.54775 0.57725 0.0
C492 C 0.48093 0.50859 0.55177 0.0
C493 C 0.47621 0.57676 0.72593 0.0
C494 C 0.49104 0.60583 0.76762 0.0
C495 C 0.46076 0.6091 0.71558 0.0
C496 C 0.46086 0.58865 0.7053 0.0
C497 C 0.47574 0.61769 0.74711 0.0
C498 C 0.49139 0.58557 0.75664 0.0
C499 C 0.47521 0.555 0.72174 0.0
H500 H 0.59064 0.42289 0.48733 0.0
H501 H 0.57933 0.45413 0.52875 0.0
H502 H 0.56678 0.40067 0.44115 0.0
H503 H 0.51932 0.44106 0.47762 0.0
H504 H 0.44882 0.61821 0.70018 0.0
H505 H 0.44875 0.58209 0.68246 0.0
H506 H 0.47527 0.63345 0.75616 0.0
H507 H 0.50313 0.57664 0.77414 0.0
C508 C 0.01966 0.45643 0.73398 0.0
C509 C 0.03075 0.4701 0.81982 0.0
C510 C 0.02274 0.47281 0.76756 0.0
C511 C 0.03485 0.45082 0.83856 0.0
C512 C 0.0244 0.43712 0.75217 0.0
C513 C 0.03167 0.43439 0.80488 0.0
N514 N 0.01205 0.45936 0.68363 0.0
C515 C 0.00943 0.44383 0.64885 0.0
C516 C 0.02152 0.42108 0.71697 0.0
C517 C 0.01423 0.42448 0.66491 0.0
Gd518 Gd 0.02508 0.53161 0.57707 0.0
Gd519 Gd 0.99918 0.49104 0.66886 0.0
N520 N 0.01809 0.49132 0.749 0.0
C521 C 0.03433 0.48685 0.85191 0.0
C522 C 0.02188 0.50768 0.78002 0.0
C523 C 0.03015 0.50573 0.83156 0.0
H524 H 0.01858 0.52229 0.76598 0.0
H525 H 0.033 0.51882 0.85589 0.0
H526 H 0.02285 0.50411 0.46094 0.0
H527 H 1.00275 0.44616 0.60971 0.0
H528 H 0.00723 0.50564 0.37225 0.0
H529 H 0.04043 0.48539 0.89226 0.0
H530 H 0.04062 0.44846 0.87897 0.0
H531 H 0.02644 0.57839 0.62235 0.0
H532 H 0.02488 0.40601 0.72961 0.0
H533 H 0.01183 0.41214 0.63759 0.0
H534 H 0.98326 0.5723 0.36067 0.0
H535 H 0.03502 0.41961 0.81989 0.0
H536 H 0.9977 0.61617 0.50768 0.0
H537 H 0.01457 0.61167 0.59566 0.0
N538 N 0.01493 0.56394 0.55318 0.0
C539 C 0.00621 0.56619 0.50405 0.0
C540 C 0.01809 0.58003 0.58563 0.0
C541 C 1.00237 0.60145 0.52011 0.0
C542 C 0.01181 0.59896 0.56985 0.0
C543 C 0.99962 0.58502 0.48625 0.0
H544 H 0.9859 0.60132 0.42053 0.0
N545 N 0.01246 0.5322 0.48741 0.0
C546 C 1.00481 0.54982 0.4703 0.0
C547 C 0.99683 0.53554 0.38317 0.0
C548 C 0.99671 0.55192 0.41784 0.0
C549 C 0.01427 0.5169 0.45154 0.0
C550 C 0.00599 0.51806 0.39981 0.0
O551 O 0.03283 0.48925 0.66002 0.0
O552 O 0.03781 0.52244 0.65804 0.0
O553 O 0.0536 0.52333 0.54472 0.0
O554 O 0.04867 0.55373 0.57057 0.0
O555 O 0.99169 0.52328 0.68928 0.0
O556 O 0.01805 0.54307 0.66065 0.0
O557 O 0.99112 0.53274 0.5738 0.0
O558 O 0.98041 0.50102 0.59755 0.0
O559 O 0.97892 0.49108 0.73622 0.0
O560 O 0.97627 0.46806 0.6756 0.0
O561 O 0.02853 0.49876 0.55442 0.0
O562 O 1.00036 0.48169 0.58153 0.0
C563 C 0.045 0.50451 0.66457 0.0
C564 C 1.00207 0.54008 0.69068 0.0
C565 C 0.07401 0.54834 0.50543 0.0
C566 C 0.1018 0.5409 0.44697 0.0
C567 C 0.09137 0.57508 0.45805 0.0
C568 C 0.07634 0.56872 0.49343 0.0
C569 C 0.10428 0.56122 0.43532 0.0
C570 C 0.08657 0.53454 0.4812 0.0
C571 C 0.06098 0.54128 0.54903 0.0
C572 C 0.98951 0.57046 0.40075 0.0
C573 C 0.99103 0.58699 0.43481 0.0
H574 H 0.99076 0.53655 0.34266 0.0
C575 C 0.97724 0.51871 0.57608 0.0
C576 C 0.0159 0.48368 0.54966 0.0
C577 C 0.94704 0.47704 0.72335 0.0
C578 C 0.91829 0.49036 0.7694 0.0
C579 C 0.91408 0.46356 0.70501 0.0
C580 C 0.9346 0.46353 0.69586 0.0
C581 C 0.90592 0.47683 0.74209 0.0
C582 C 0.93867 0.49059 0.75968 0.0
C583 C 0.96877 0.47574 0.71922 0.0
H584 H 0.09333 0.59078 0.44931 0.0
H585 H 0.067 0.57974 0.51246 0.0
H586 H 0.1162 0.56631 0.40897 0.0
H587 H 0.08527 0.51883 0.49132 0.0
H588 H 0.90455 0.45306 0.6841 0.0
H589 H 0.94074 0.45271 0.66825 0.0
H590 H 0.89004 0.47652 0.74966 0.0
H591 H 0.94802 0.50089 0.78212 0.0
H592 H 0.18479 0.04157 0.19233 0.0
H593 H 0.16301 0.03496 0.27068 0.0
H594 H 0.11219 0.05297 0.1769 0.0
H595 H 0.13399 0.05991 0.09902 0.0
H596 H 0.13743 0.06272 0.32435 0.0
H597 H 0.09511 0.99833 0.24258 0.0
H598 H 0.11863 1.00657 0.21458 0.0
H599 H 0.09615 0.01948 0.19783 0.0
C600 C 0.16891 0.04376 0.18829 0.0
C601 C 0.16101 0.05093 0.13934 0.0
C602 C 0.1565 0.04012 0.23314 0.0
C603 C 0.13588 0.04322 0.22965 0.0
C604 C 0.12798 0.05016 0.18048 0.0
H605 H 0.03628 0.04829 0.45389 0.0
H606 H 0.05998 0.05293 0.37955 0.0
C607 C 0.14042 0.05412 0.13597 0.0
C608 C 0.12267 0.03996 0.27772 0.0
H609 H 0.08208 0.01333 0.32213 0.0
C610 C 0.12541 0.05184 0.32393 0.0
C611 C 0.10707 0.02564 0.27762 0.0
C612 C 0.10411 0.01162 0.23076 0.0
C613 C 0.1126 0.05019 0.36901 0.0
C614 C 0.09665 0.03634 0.36801 0.0
C615 C 0.09415 0.02416 0.32248 0.0
C616 C 0.08255 0.03411 0.41426 0.0
C617 C 0.11594 0.06337 0.41743 0.0
C618 C 0.08728 0.02189 0.45836 0.0
C619 C 0.07358 0.01883 0.50049 0.0
C620 C 0.05498 0.02834 0.50059 0.0
C621 C 0.0505 0.04089 0.45633 0.0
C622 C 0.06403 0.04357 0.41351 0.0
H623 H 0.12819 0.07433 0.41073 0.0
H624 H 0.10209 0.07152 0.42712 0.0
H625 H 0.11963 0.05402 0.45313 0.0
H626 H 0.10141 0.01427 0.45954 0.0
H627 H 0.07749 0.00844 0.53169 0.0
H628 H 0.45898 0.18028 0.20713 0.0
H629 H 0.46683 0.15853 0.28399 0.0
H630 H 0.4909 0.11523 0.17402 0.0
H631 H 0.48392 0.13752 0.0974 0.0
H632 H 0.45426 0.12329 0.31385 0.0
H633 H 0.53523 0.11649 0.27886 0.0
H634 H 0.52034 0.13427 0.24258 0.0
H635 H 0.52092 0.10862 0.22161 0.0
C636 C 0.46621 0.16622 0.19949 0.0
C637 C 0.47108 0.16076 0.14617 0.0
C638 C 0.47062 0.1537 0.24354 0.0
C639 C 0.47988 0.1352 0.23565 0.0
C640 C 0.48444 0.12961 0.18206 0.0
H641 H 0.50983 0.03432 0.44209 0.0
H642 H 0.50228 0.05742 0.36872 0.0
C643 C 0.48034 0.14233 0.13801 0.0
C644 C 0.48424 0.12175 0.28328 0.0
H645 H 0.52096 0.09447 0.34404 0.0
C646 C 0.46892 0.11717 0.32052 0.0
C647 C 0.50334 0.11358 0.29279 0.0
C648 C 0.52094 0.11864 0.25718 0.0
C649 C 0.47204 0.10451 0.36558 0.0
C650 C 0.49106 0.09621 0.37452 0.0
C651 C 0.50636 0.10078 0.33751 0.0
C652 C 0.49529 0.08219 0.42072 0.0
C653 C 0.45477 0.09962 0.40248 0.0
C654 C 0.49408 0.08828 0.47518 0.0
C655 C 0.49857 0.075 0.51781 0.0
C656 C 0.50439 0.0553 0.50702 0.0
C657 C 0.50556 0.04935 0.45242 0.0
C658 C 0.50118 0.06259 0.41008 0.0
H659 H 0.44031 0.104 0.38452 0.0
H660 H 0.45427 0.08343 0.41179 0.0
H661 H 0.45665 0.10772 0.4412 0.0
H662 H 0.48987 0.10338 0.48476 0.0
H663 H 0.4975 0.08019 0.55915 0.0
H664 H 0.3712 0.50511 0.11366 0.0
H665 H 0.39279 0.513 0.19056 0.0
H666 H 0.3822 0.45453 0.25706 0.0
H667 H 0.35988 0.44676 0.18251 0.0
H668 H 0.38255 0.51039 0.30963 0.0
H669 H 0.44488 0.46165 0.24877 0.0
H670 H 0.42618 0.46995 0.20157 0.0
H671 H 0.42059 0.45017 0.24846 0.0
C672 C 0.37321 0.49391 0.14469 0.0
C673 C 0.36367 0.47514 0.14056 0.0
C674 C 0.38574 0.49846 0.18871 0.0
C675 C 0.38938 0.48431 0.22953 0.0
C676 C 0.37994 0.46564 0.22579 0.0
H677 H 0.46518 0.47363 0.51373 0.0
H678 H 0.44219 0.46887 0.43792 0.0
C679 C 0.36722 0.46116 0.18237 0.0
C680 C 0.40274 0.489 0.2765 0.0
H681 H 0.44663 0.47574 0.33605 0.0
C682 C 0.39663 0.50292 0.3153 0.0
C683 C 0.42109 0.47922 0.28426 0.0
C684 C 0.42874 0.46451 0.24345 0.0
C685 C 0.408 0.50685 0.36225 0.0
C686 C 0.42639 0.49698 0.37022 0.0
C687 C 0.43258 0.48329 0.33071 0.0
C688 C 0.43936 0.50025 0.41921 0.0
C689 C 0.3997 0.52097 0.4037 0.0
C690 C 0.44549 0.51948 0.43514 0.0
C691 C 0.45821 0.52222 0.47969 0.0
C692 C 0.46569 0.50579 0.50844 0.0
C693 C 0.45967 0.48659 0.49252 0.0
C694 C 0.44656 0.48388 0.44889 0.0
H695 H 0.38329 0.5223 0.40006 0.0
H696 H 0.40327 0.51606 0.44549 0.0
H697 H 0.40625 0.53601 0.39708 0.0
H698 H 0.4409 0.53242 0.41228 0.0
H699 H 0.46292 0.53719 0.49015 0.0
H700 H 0.07551 0.38529 0.13257 0.0
H701 H 0.06768 0.4065 0.20964 0.0
H702 H 0.01305 0.37375 0.23533 0.0
H703 H 0.02117 0.35186 0.1597 0.0
H704 H 0.03712 0.4315 0.23183 0.0
H705 H 0.03743 0.3708 0.38466 0.0
H706 H 0.04691 0.36757 0.31696 0.0
H707 H 0.02056 0.36653 0.32961 0.0
C708 C 0.06186 0.38242 0.15467 0.0
C709 C 0.04912 0.36655 0.13966 0.0
C710 C 0.05733 0.39472 0.19878 0.0
C711 C 0.03996 0.39158 0.22948 0.0
C712 C 0.02681 0.37628 0.21343 0.0
H713 H 0.98995 0.45539 0.50891 0.0
H714 H 0.99534 0.43278 0.43244 0.0
C715 C 0.03135 0.36391 0.16934 0.0
C716 C 0.03571 0.40429 0.27807 0.0
H717 H 0.02711 0.40251 0.41493 0.0
C718 C 0.03497 0.4251 0.2718 0.0
C719 C 0.03293 0.39611 0.33066 0.0
C720 C 0.03467 0.37405 0.34121 0.0
C721 C 0.03135 0.4378 0.31606 0.0
C722 C 0.02857 0.42961 0.36847 0.0
C723 C 0.02914 0.40883 0.37482 0.0
C724 C 0.0256 0.44249 0.41717 0.0
C725 C 0.0303 0.45997 0.30639 0.0
C726 C 0.04097 0.45509 0.43536 0.0
C727 C 0.03803 0.46782 0.47949 0.0
C728 C 0.01953 0.4685 0.50641 0.0
C729 C 1.00436 0.45535 0.48929 0.0
C730 C 0.0074 0.44245 0.44535 0.0
H731 H 0.0286 0.46363 0.26277 0.0
H732 H 0.01767 0.46647 0.3291 0.0
H733 H 0.0442 0.46713 0.32108 0.0
H734 H 0.05526 0.45521 0.41503 0.0
H735 H 0.05016 0.47753 0.49168 0.0
H736 H 0.89019 0.98874 0.13851 0.0
H737 H 0.91236 0.98991 0.05916 0.0
H738 H 0.86332 0.97288 0.95667 0.0
H739 H 0.84124 0.97153 0.03607 0.0
H740 H 0.92184 0.96128 0.97005 0.0
H741 H 0.88238 0.02933 0.9018 0.0
H742 H 0.88023 0.01977 0.96997 0.0
H743 H 0.86713 0.00776 0.91576 0.0
C744 C 0.88434 0.98466 0.09924 0.0
C745 C 0.86407 0.97981 0.09352 0.0
C746 C 0.89697 0.98542 0.05386 0.0
C747 C 0.88951 0.98174 1.00167 0.0
C748 C 0.86944 0.97594 0.99632 0.0
H749 H 0.95394 0.98164 0.69056 0.0
H750 H 0.93052 0.97445 0.7651 0.0
C751 C 0.85686 0.97499 0.04176 0.0
C752 C 0.90222 0.98561 0.9528 0.0
H753 H 0.90834 0.01786 0.84602 0.0
C754 C 0.9188 0.97356 0.94276 0.0
C755 C 0.89844 1.00177 0.91729 0.0
C756 C 0.88118 0.01555 0.92665 0.0
C757 C 0.93153 0.97717 0.89814 0.0
C758 C 0.92775 0.99336 0.86285 0.0
C759 C 0.91122 1.00542 0.87292 0.0
C760 C 0.94118 0.99832 0.81625 0.0
C761 C 0.94927 0.96397 0.88948 0.0
C762 C 0.9545 0.01454 0.81927 0.0
C763 C 0.96755 0.01891 0.77623 0.0
C764 C 0.96776 1.00694 0.72972 0.0
C765 C 0.95416 0.99098 0.72619 0.0
C766 C 0.94086 0.98683 0.76881 0.0
H767 H 0.95061 0.9524 0.92147 0.0
H768 H 0.94802 0.95648 0.84967 0.0
H769 H 0.96309 0.97316 0.88878 0.0
H770 H 0.95507 0.02359 0.85541 0.0
H771 H 0.978 0.0312 0.78014 0.0
H772 H 0.56964 0.85846 0.06618 0.0
H773 H 0.56967 0.88184 0.98934 0.0
H774 H 0.51192 0.90273 0.0379 0.0
H775 H 0.5124 0.88076 0.11592 0.0
H776 H 0.5457 0.88379 0.90351 0.0
H777 H 0.53814 0.95476 0.01227 0.0
H778 H 0.54429 0.93193 0.04684 0.0
H779 H 0.51872 0.93786 0.03228 0.0
C780 C 0.55721 0.86845 0.06143 0.0
C781 C 0.54098 0.86751 0.09763 0.0
C782 C 0.55714 0.8817 0.01697 0.0
C783 C 0.5409 0.89439 0.00777 0.0
C784 C 0.52491 0.89362 0.04437 0.0
H785 H 0.49006 0.97357 0.77181 0.0
H786 H 0.49841 0.95112 0.84677 0.0
C787 C 0.52508 0.88069 0.08888 0.0
C788 C 0.53987 0.90771 0.95887 0.0
H789 H 0.52752 0.95491 0.91926 0.0
C790 C 0.54202 0.89941 0.90698 0.0
C791 C 0.53521 0.92821 0.96286 0.0
C792 C 0.53418 0.93873 0.01662 0.0
C793 C 0.5385 0.91066 0.85953 0.0
C794 C 0.53283 0.93089 0.86383 0.0
C795 C 0.53151 0.93935 0.91561 0.0
C796 C 0.52751 0.94351 0.8158 0.0
C797 C 0.54004 0.90047 0.8054 0.0
C798 C 0.54093 0.94672 0.77275 0.0
C799 C 0.53591 0.9592 0.72915 0.0
C800 C 0.51764 0.96919 0.72849 0.0
C801 C 0.50428 0.96611 0.77148 0.0
C802 C 0.50908 0.95329 0.81434 0.0
H803 H 0.53965 0.884 0.80952 0.0
H804 H 0.52781 0.90509 0.77811 0.0
H805 H 0.55438 0.90469 0.78604 0.0
H806 H 0.55548 0.93996 0.77336 0.0
H807 H 0.54661 0.96161 0.69689 0.0
H808 H 0.66601 0.50879 0.06985 0.0
H809 H 0.64356 0.50844 0.99294 0.0
H810 H 0.62371 0.56732 0.03313 0.0
H811 H 0.64563 0.56759 0.11248 0.0
H812 H 0.60034 0.51369 0.99557 0.0
H813 H 0.63964 0.56994 0.86755 0.0
H814 H 0.65174 0.5572 0.92279 0.0
H815 H 0.63446 0.57673 0.93653 0.0
C816 C 0.65666 0.52162 0.06362 0.0
C817 C 0.65758 0.53809 0.09899 0.0
C818 C 0.64392 0.52143 0.01878 0.0
C819 C 0.63194 0.53784 0.00684 0.0
C820 C 0.63294 0.55451 0.0411 0.0
H821 H 0.5446 0.55451 0.74583 0.0
H822 H 0.56745 0.55961 0.82191 0.0
C823 C 0.64557 0.55463 0.08662 0.0
C824 C 0.6181 0.53701 0.95941 0.0
H825 H 0.61007 0.55593 0.83236 0.0
C826 C 0.60246 0.52297 0.95999 0.0
C827 C 0.62077 0.54912 0.91284 0.0
C828 C 0.63761 0.56405 0.90929 0.0
C829 C 0.58949 0.52074 0.91561 0.0
C830 C 0.59242 0.53251 0.86853 0.0
C831 C 0.60784 0.54682 0.86822 0.0
C832 C 0.57968 0.52996 0.81934 0.0
C833 C 0.57254 0.50592 0.91978 0.0
C834 C 0.57929 0.51179 0.79125 0.0
C835 C 0.5663 0.50885 0.74756 0.0
C836 C 0.55334 0.52401 0.73071 0.0
C837 C 0.55429 0.54246 0.75766 0.0
C838 C 0.56738 0.54542 0.80124 0.0
H839 H 0.56932 0.50175 0.96247 0.0
H840 H 0.5588 0.51199 0.90134 0.0
H841 H 0.57653 0.49218 0.89763 0.0
H842 H 0.58883 0.49972 0.80376 0.0
H843 H 0.56598 0.49442 0.72813 0.0
H844 H 0.99229 0.68343 0.03841 0.0
H845 H 0.992 0.66109 0.96034 0.0
H846 H 0.96874 0.61371 0.06092 0.0
H847 H 0.96888 0.63624 0.13945 0.0
H848 H 0.01456 0.62488 0.95924 0.0
H849 H 0.93428 0.61059 0.9203 0.0
H850 H 0.94308 0.63241 0.95589 0.0
H851 H 0.94246 0.60866 0.9894 0.0
C852 C 0.98675 0.66835 0.04365 0.0
C853 C 0.9806 0.66158 0.09506 0.0
C854 C 0.98662 0.65558 0.999 0.0
C855 C 0.9803 0.63569 1.00449 0.0
C856 C 0.97339 0.62906 0.05537 0.0
H857 H 0.97707 0.53539 0.77857 0.0
H858 H 0.97235 0.55812 0.85449 0.0
C859 C 0.97346 0.64193 0.10025 0.0
C860 C 0.98272 0.62162 0.95822 0.0
H861 H 0.95719 0.59225 0.86889 0.0
C862 C 1.00201 0.61773 0.93944 0.0
C863 C 0.9664 0.61221 0.93252 0.0
C864 C 0.94533 0.61619 0.95008 0.0
C865 C 0.00551 0.60441 0.89665 0.0
C866 C 0.98913 0.59517 0.87003 0.0
C867 C 0.9698 0.59917 0.88891 0.0
C868 C 0.99168 0.58139 0.82279 0.0
C869 C 0.02684 0.60002 0.88203 0.0
C870 C 1.00376 0.58678 0.77858 0.0
C871 C 0.00704 0.57349 0.73609 0.0
C872 C 0.99751 0.55475 0.73458 0.0
C873 C 0.98459 0.54972 0.77761 0.0
C874 C 0.98187 0.56277 0.8213 0.0
H875 H 0.03692 0.60244 0.91703 0.0
H876 H 0.02861 0.58446 0.86798 0.0
H877 H 0.03177 0.61033 0.84936 0.0
H878 H 0.01094 0.60126 0.777 0.0
H879 H 0.01734 0.57795 0.70503 0.0
H880 H 0.0657 0.21138 0.11212 0.0
H881 H 0.05622 0.18357 0.1712 0.0
H882 H 0.03621 0.22481 0.29244 0.0
H883 H 0.04618 0.25284 0.23438 0.0
H884 H 0.07077 0.18596 0.30491 0.0
H885 H 0.99182 0.17464 0.24157 0.0
H886 H 0.0104 0.18354 0.19414 0.0
H887 H 1.00207 0.19948 0.24729 0.0
C888 C 0.05954 0.21455 0.15166 0.0
C889 C 0.05702 0.23427 0.16912 0.0
C890 C 0.05395 0.19869 0.18491 0.0
C891 C 0.04564 0.20234 0.23574 0.0
C892 C 0.04265 0.2219 0.25306 0.0
H893 H 1.0045 0.1407 0.50747 0.0
H894 H 0.02503 0.16184 0.44851 0.0
C895 C 0.04832 0.23781 0.21992 0.0
C896 C 0.04113 0.18564 0.27206 0.0
H897 H 1.00393 0.1541 0.31134 0.0
C898 C 0.05623 0.17884 0.30633 0.0
C899 C 0.02215 0.17659 0.27304 0.0
C900 C 0.00557 0.18381 0.23711 0.0
C901 C 0.05263 0.16323 0.34288 0.0
C902 C 0.03358 0.15433 0.34438 0.0
C903 C 0.01862 0.16089 0.30921 0.0
C904 C 0.02788 0.13967 0.38585 0.0
C905 C 0.06897 0.15643 0.38004 0.0
C906 C 0.02374 0.11996 0.37094 0.0
C907 C 0.01212 0.10784 0.40468 0.0
C908 C 1.00431 0.11557 0.45289 0.0
C909 C 0.01029 0.13457 0.4702 0.0
C910 C 0.02207 0.14656 0.43681 0.0
H911 H 0.08346 0.16371 0.37038 0.0
H912 H 0.06496 0.15996 0.42249 0.0
H913 H 0.07063 0.14003 0.37718 0.0
H914 H 0.02805 0.11455 0.33141 0.0
H915 H 0.00765 0.09321 0.39058 0.0
H916 H 0.2748 0.03332 0.17368 0.0
H917 H 0.299 0.02089 0.23868 0.0
H918 H 0.32924 0.07784 0.23669 0.0
H919 H 0.30459 0.09068 0.17267 0.0
H920 H 0.33995 0.01932 0.22241 0.0
H921 H 0.32045 0.06608 0.39942 0.0
H922 H 0.30412 0.06289 0.34203 0.0
H923 H 0.32514 0.07952 0.33759 0.0
C924 C 0.28639 0.04332 0.18788 0.0
C925 C 0.28766 0.06309 0.16926 0.0
C926 C 0.30019 0.03617 0.22468 0.0
C927 C 0.31542 0.04868 0.2433 0.0
C928 C 0.31714 0.06824 0.22371 0.0
H929 H 0.42572 0.0353 0.37781 0.0
H930 H 0.39224 0.04845 0.36458 0.0
C931 C 0.30327 0.07545 0.18687 0.0
C932 C 0.33018 0.04077 0.28092 0.0
H933 H 0.35041 0.04726 0.40606 0.0
C934 C 0.34206 0.02516 0.2629 0.0
C935 C 0.33274 0.04861 0.33341 0.0
C936 C 0.31983 0.0651 0.35459 0.0
C937 C 0.35714 0.0176 0.29538 0.0
C938 C 0.35995 0.02561 0.34772 0.0
C939 C 0.3478 0.04096 0.36633 0.0
C940 C 0.37751 0.02011 0.37894 0.0
C941 C 0.37068 1.00188 0.27223 0.0
C942 C 0.37988 1.00028 0.39546 0.0
C943 C 0.39895 0.99268 0.40143 0.0
C944 C 0.41543 1.00511 0.39206 0.0
C945 C 0.41295 0.02554 0.38357 0.0
C946 C 0.39394 0.03308 0.37708 0.0
H947 H 0.36825 0.9996 0.22823 0.0
H948 H 0.38653 1.00603 0.27851 0.0
H949 H 0.36785 0.98748 0.29317 0.0
H950 H 0.36721 0.99021 0.3974 0.0
H951 H 0.40085 0.97695 0.40952 0.0
H952 H 0.48904 0.27797 0.1774 0.0
H953 H 0.49919 0.30479 0.2377 0.0
H954 H 0.44147 0.33167 0.22069 0.0
H955 H 0.43072 0.30421 0.16285 0.0
H956 H 0.5011 0.34432 0.21193 0.0
H957 H 0.44919 0.33077 0.38381 0.0
H958 H 0.4536 0.31253 0.33182 0.0
H959 H 0.43737 0.33313 0.31902 0.0
C960 C 0.47831 0.28929 0.18757 0.0
C961 C 0.45898 0.2889 0.16586 0.0
C962 C 0.48421 0.30469 0.22153 0.0
C963 C 0.47095 0.31998 0.23396 0.0
C964 C 0.45172 0.31973 0.21228 0.0
H965 H 0.5148 0.43021 0.37888 0.0
H966 H 0.49316 0.40791 0.32641 0.0
C967 C 0.44571 0.3042 0.17878 0.0
C968 C 0.47763 0.33661 0.26787 0.0
H969 H 0.46935 0.35984 0.3881 0.0
C970 C 0.49408 0.34785 0.25023 0.0
C971 C 0.46841 0.34094 0.31786 0.0
C972 C 0.45128 0.32862 0.33962 0.0
C973 C 0.50187 0.36318 0.28194 0.0
C974 C 0.49268 0.36747 0.33188 0.0
C975 C 0.476 0.35657 0.34916 0.0
C976 C 0.50211 0.38137 0.3695 0.0
C977 C 0.52039 0.37411 0.26323 0.0
C978 C 0.51365 0.37366 0.41163 0.0
C979 C 0.52612 0.38621 0.44093 0.0
C980 C 0.52699 0.40657 0.42858 0.0
C981 C 0.5144 0.41447 0.38871 0.0
C982 C 0.50203 0.40187 0.35906 0.0
H983 H 0.52666 0.36772 0.22556 0.0
H984 H 0.51686 0.38998 0.25559 0.0
H985 H 0.53196 0.37363 0.29524 0.0
H986 H 0.51378 0.3578 0.41985 0.0
H987 H 0.53543 0.37996 0.47233 0.0
H988 H 0.22021 0.43423 0.16905 0.0
H989 H 0.19348 0.44403 0.23042 0.0
H990 H 0.2179 0.50362 0.23721 0.0
H991 H 0.24423 0.49417 0.17428 0.0
H992 H 0.19624 0.45977 0.33567 0.0
H993 H 0.16008 0.5118 0.19121 0.0
H994 H 0.17898 0.49453 0.17019 0.0
H995 H 0.18582 0.51722 0.20412 0.0
C996 C 0.21977 0.44944 0.18337 0.0
C997 C 0.23419 0.46345 0.16701 0.0
C998 C 0.20465 0.45495 0.21857 0.0
C999 C 0.20375 0.47452 0.2376 0.0
C1000 C 0.21831 0.48849 0.22221 0.0
H1001 H 0.14122 0.53896 0.46668 0.0
H1002 H 0.16494 0.51594 0.42574 0.0
C1003 C 0.2334 0.48302 0.18683 0.0
C1004 C 0.18737 0.48032 0.27312 0.0
H1005 H 0.14802 0.51158 0.28131 0.0
C1006 C 0.18555 0.47096 0.32381 0.0
C1007 C 0.17349 0.49481 0.25687 0.0
C1008 C 0.17454 0.50506 0.20243 0.0
C1009 C 0.17038 0.47626 0.35967 0.0
C1010 C 0.1569 0.49108 0.34379 0.0
C1011 C 0.1584 0.5 0.29264 0.0
C1012 C 0.14249 0.49963 0.38105 0.0
C1013 C 0.16889 0.46628 0.41426 0.0
C1014 C 0.12214 0.4975 0.37021 0.0
C1015 C 0.10869 0.51064 0.39322 0.0
C1016 C 0.11565 0.52615 0.42617 0.0
C1017 C 0.1358 0.52736 0.44002 0.0
C1018 C 0.14919 0.51403 0.41772 0.0
H1019 H 0.17886 0.45322 0.41751 0.0
H1020 H 0.17301 0.47711 0.44622 0.0
H1021 H 0.15332 0.46135 0.42203 0.0
H1022 H 0.11688 0.48659 0.34127 0.0
H1023 H 0.09305 0.50936 0.38312 0.0
H1024 H 0.96962 0.81247 0.13818 0.0
H1025 H 0.9671 0.84014 0.07407 0.0
H1026 H 0.96773 0.79869 0.94128 0.0
H1027 H 0.97005 0.77087 0.00549 0.0
H1028 H 1.00417 0.82686 0.97494 0.0
H1029 H 0.93133 0.86316 0.93533 0.0
H1030 H 0.9365 0.85265 1.00119 0.0
H1031 H 0.9333 0.83649 0.94439 0.0
C1032 C 0.96835 0.8093 0.09536 0.0
C1033 C 0.97039 0.78981 0.07618 0.0
C1034 C 0.96665 0.82501 0.05899 0.0
C1035 C 0.96711 0.8213 1.00335 0.0
C1036 C 0.96701 0.80166 0.9843 0.0
H1037 H 0.00901 0.89186 0.73943 0.0
H1038 H 0.9877 0.87121 0.79837 0.0
C1039 C 0.9685 0.78587 0.02078 0.0
C1040 C 0.97409 0.83727 0.96762 0.0
H1041 H 0.96024 0.879 0.89914 0.0
C1042 C 0.99459 0.83821 0.95797 0.0
C1043 C 0.96143 0.852 0.94681 0.0
C1044 C 0.93936 0.85118 0.95714 0.0
C1045 C 1.00292 0.85367 0.92762 0.0
C1046 C 0.99033 0.86854 0.90676 0.0
C1047 C 0.96974 0.86757 0.91595 0.0
C1048 C 0.99866 0.88433 0.87249 0.0
C1049 C 0.02512 0.85395 0.9178 0.0
C1050 C 0.01128 0.89877 0.89522 0.0
C1051 C 0.0236 0.91021 0.86186 0.0
C1052 C 0.02322 0.90727 0.80582 0.0
C1053 C 0.00957 0.89394 0.78285 0.0
C1054 C 0.99728 0.88246 0.8162 0.0
H1055 H 0.0322 0.83972 0.92984 0.0
H1056 H 0.02845 0.85685 0.87444 0.0
H1057 H 0.03204 0.86611 0.94174 0.0
H1058 H 0.01251 0.90022 0.93874 0.0
H1059 H 0.03393 0.92076 0.87975 0.0
H1060 H 0.70842 0.96785 0.12816 0.0
H1061 H 0.68228 0.96722 0.05954 0.0
H1062 H 0.7267 0.96983 0.93359 0.0
H1063 H 0.75293 0.97046 1.00198 0.0
H1064 H 0.68981 1.00503 0.99275 0.0
H1065 H 0.6751 0.93595 0.87446 0.0
H1066 H 0.68265 0.93506 0.94464 0.0
H1067 H 0.70025 0.94239 0.89373 0.0
C1068 C 0.71257 0.9675 0.08579 0.0
C1069 C 0.73252 0.96968 0.06998 0.0
C1070 C 0.6977 0.96689 0.04678 0.0
C1071 C 0.70272 0.96847 0.99185 0.0
C1072 C 0.72269 0.96829 0.97589 0.0
H1073 H 0.62649 0.04183 0.79134 0.0
H1074 H 0.65646 0.02237 0.81205 0.0
C1075 C 0.7376 0.96879 0.01493 0.0
C1076 C 0.68788 0.97635 0.95444 0.0
H1077 H 0.65655 0.96462 0.85104 0.0
C1078 C 0.68265 0.99631 0.96131 0.0
C1079 C 0.67891 0.9648 0.91368 0.0
C1080 C 0.68438 0.94331 0.90584 0.0
C1081 C 0.66796 1.00495 0.9296 0.0
C1082 C 0.65858 0.99334 0.88935 0.0
C1083 C 0.66416 0.97347 0.88134 0.0
C1084 C 0.64079 1.00096 0.86257 0.0
C1085 C 0.66177 0.02607 0.94152 0.0
C1086 C 0.62225 0.9947 0.88245 0.0
C1087 C 0.60542 1.00579 0.87121 0.0
C1088 C 0.60705 0.02321 0.84013 0.0
C1089 C 0.62525 0.02863 0.8165 0.0
C1090 C 0.64215 0.01742 0.82751 0.0
H1091 H 0.66926 0.03221 0.97795 0.0
H1092 H 0.66556 0.03581 0.90655 0.0
H1093 H 0.64543 0.02675 0.94789 0.0
H1094 H 0.62105 0.98215 0.91001 0.0
H1095 H 0.59128 1.00132 0.88882 0.0
H1096 H 0.57997 0.7404 0.04086 0.0
H1097 H 0.5782 0.71489 0.96929 0.0
H1098 H 0.51764 0.70126 0.01596 0.0
H1099 H 0.51912 0.72673 0.08508 0.0
H1100 H 0.56999 0.67389 0.98831 0.0
H1101 H 0.51317 0.70683 0.85428 0.0
H1102 H 0.52638 0.72147 0.90405 0.0
H1103 H 0.50502 0.7066 0.92324 0.0
C1104 C 0.56628 0.73207 0.03487 0.0
C1105 C 0.54978 0.73511 0.06856 0.0
C1106 C 0.5653 0.71761 0.99441 0.0
C1107 C 0.54772 0.70649 0.98729 0.0
C1108 C 0.53119 0.70998 0.02023 0.0
H1109 H 0.48764 0.61048 0.87534 0.0
H1110 H 0.50976 0.63026 0.9332 0.0
C1111 C 0.53214 0.72431 0.0601 0.0
C1112 C 0.54657 0.69009 0.94859 0.0
H1113 H 0.51517 0.67079 0.85453 0.0
C1114 C 0.55845 0.6733 0.95775 0.0
C1115 C 0.53136 0.68949 0.90931 0.0
C1116 C 0.51841 0.70718 0.89689 0.0
C1117 C 0.55444 0.65534 0.93104 0.0
C1118 C 0.53843 0.65455 0.89458 0.0
C1119 C 0.52745 0.67164 0.88294 0.0
C1120 C 0.53134 0.63612 0.86986 0.0
C1121 C 0.56651 0.63712 0.94363 0.0
C1122 C 0.53684 0.63222 0.8163 0.0
C1123 C 0.52413 0.6212 0.78325 0.0
C1124 C 0.50596 0.61422 0.80389 0.0
C1125 C 0.50153 0.6162 0.85894 0.0
C1126 C 0.51429 0.62708 0.89204 0.0
H1127 H 0.57912 0.64047 0.97124 0.0
H1128 H 0.55679 0.62563 0.96277 0.0
H1129 H 0.57241 0.63074 0.90552 0.0
H1130 H 0.54984 0.63938 0.7987 0.0
H1131 H 0.52778 0.61937 0.74086 0.0
H1132 H 0.79183 0.58205 0.06271 0.0
H1133 H 0.81906 0.58097 0.99582 0.0
H1134 H 0.81084 0.51731 0.98244 0.0
H1135 H 0.78356 0.51855 0.04716 0.0
H1136 H 0.85309 0.55976 0.01536 0.0
H1137 H 0.81794 0.53232 0.82729 0.0
H1138 H 0.80344 0.54245 0.88215 0.0
H1139 H 0.81144 0.51689 0.88392 0.0
C1140 C 0.79554 0.56806 0.04371 0.0
C1141 C 0.78584 0.55038 0.05911 0.0
C1142 C 0.81101 0.56742 0.00601 0.0
C1143 C 0.81669 0.54911 0.9838 0.0
C1144 C 0.80631 0.53165 0.99786 0.0
H1145 H 0.90599 0.48078 0.8702 0.0
H1146 H 0.88677 0.50192 0.93134 0.0
C1147 C 0.79087 0.53232 0.03495 0.0
C1148 C 0.83493 0.54746 0.9515 0.0
H1149 H 0.85286 0.52472 0.83919 0.0
C1150 C 0.85311 0.55266 0.97602 0.0
C1151 C 0.83479 0.53799 0.9006 0.0
C1152 C 0.81579 0.53227 0.87188 0.0
C1153 C 0.87124 0.54736 0.95231 0.0
C1154 C 0.87092 0.53699 0.903 0.0
C1155 C 0.85286 0.53287 0.87703 0.0
C1156 C 0.88862 0.52795 0.87956 0.0
C1157 C 0.89052 0.55198 0.98079 0.0
C1158 C 0.89659 0.53602 0.83181 0.0
C1159 C 0.90745 0.52399 0.797 0.0
C1160 C 0.91005 0.50383 0.80968 0.0
C1161 C 0.90372 0.49628 0.85975 0.0
C1162 C 0.89311 0.50838 0.89487 0.0
H1163 H 0.8883 0.56151 0.0169 0.0
H1164 H 0.89757 0.53787 0.99382 0.0
H1165 H 0.90096 0.5596 0.95247 0.0
H1166 H 0.89292 0.55103 0.81931 0.0
H1167 H 0.91257 0.52998 0.7586 0.0
H1168 H 0.04359 0.21129 0.93381 0.0
H1169 H 0.03873 0.17854 0.89269 0.0
H1170 H 0.04452 0.20497 0.73406 0.0
H1171 H 0.05037 0.23764 0.77545 0.0
H1172 H 0.01191 0.16288 0.8331 0.0
H1173 H 0.08065 0.16029 0.71 0.0
H1174 H 0.07651 0.17954 0.75922 0.0
H1175 H 0.06551 0.18118 0.69289 0.0
C1176 C 0.04382 0.21015 0.89011 0.0
C1177 C 0.04735 0.22723 0.8581 0.0
C1178 C 0.04108 0.1913 0.86645 0.0
C1179 C 0.04157 0.18882 0.80984 0.0
C1180 C 0.04471 0.20601 0.77772 0.0
H1181 H 0.01649 0.08497 0.60181 0.0
H1182 H 0.0218 0.11842 0.63865 0.0
C1183 C 0.04786 0.22485 0.80149 0.0
C1184 C 0.03819 0.16842 0.78519 0.0
H1185 H 0.05672 0.13469 0.69422 0.0
C1186 C 0.02188 0.15677 0.80303 0.0
C1187 C 0.05099 0.16008 0.7455 0.0
C1188 C 0.0695 0.17083 0.72617 0.0
C1189 C 0.01798 0.13748 0.78256 0.0
C1190 C 0.03072 0.12923 0.74293 0.0
C1191 C 0.04688 0.14087 0.72449 0.0
C1192 C 0.02754 0.10856 0.72049 0.0
C1193 C 0.99998 0.12616 0.80287 0.0
C1194 C 0.02909 0.09155 0.75373 0.0
C1195 C 0.02613 0.07227 0.73265 0.0
C1196 C 0.02155 0.06933 0.67753 0.0
C1197 C 0.02005 0.08642 0.64434 0.0
C1198 C 0.02311 0.10569 0.66542 0.0
H1199 H 0.98946 0.13595 0.82474 0.0
H1200 H 0.99199 0.11893 0.76878 0.0
H1201 H 1.00482 0.11429 0.83116 0.0
H1202 H 0.03272 0.09317 0.79617 0.0
H1203 H 0.02735 0.05967 0.75981 0.0
H1204 H 0.30555 0.02652 0.90728 0.0
H1205 H 0.33758 0.02049 0.86582 0.0
H1206 H 0.32717 0.06709 0.74981 0.0
H1207 H 0.29461 0.0726 0.78767 0.0
H1208 H 0.34929 0.01023 0.75924 0.0
H1209 H 0.38088 0.08355 0.81745 0.0
H1210 H 0.35796 0.07388 0.84564 0.0
H1211 H 0.35816 0.08516 0.77956 0.0
C1212 C 0.30949 0.03547 0.87247 0.0
C1213 C 0.29667 0.05045 0.85251 0.0
C1214 C 0.32824 0.03199 0.84889 0.0
C1215 C 0.33519 0.04361 0.80528 0.0
C1216 C 0.32249 0.05818 0.78425 0.0
H1217 H 0.444 0.04111 0.60354 0.0
H1218 H 0.4102 0.04694 0.63905 0.0
C1219 C 0.30359 0.0614 0.80688 0.0
C1220 C 0.35563 0.04054 0.78178 0.0
H1221 H 0.40046 0.06394 0.75814 0.0
C1222 C 0.36045 0.02199 0.75916 0.0
C1223 C 0.37042 0.05578 0.78163 0.0
C1224 C 0.36674 0.07566 0.8078 0.0
C1225 C 0.37932 0.01844 0.7359 0.0
C1226 C 0.39398 0.03373 0.73528 0.0
C1227 C 0.38923 0.05225 0.75796 0.0
C1228 C 0.41455 0.03042 0.71336 0.0
C1229 C 0.38353 0.99835 0.71171 0.0
C1230 C 0.42841 0.01942 0.74333 0.0
C1231 C 0.44779 0.01647 0.72368 0.0
C1232 C 0.45377 0.02405 0.67287 0.0
C1233 C 0.43984 0.03491 0.64252 0.0
C1234 C 0.42053 0.03829 0.66289 0.0
H1235 H 0.36983 0.98909 0.70774 0.0
H1236 H 0.3905 1.00012 0.67118 0.0
H1237 H 0.3942 0.99031 0.73795 0.0
H1238 H 0.42426 0.01317 0.78227 0.0
H1239 H 0.45806 0.00792 0.74803 0.0
H1240 H 0.46234 0.31355 0.92574 0.0
H1241 H 0.46703 0.34663 0.88497 0.0
H1242 H 0.48774 0.31935 0.73782 0.0
H1243 H 0.48198 0.28623 0.77793 0.0
H1244 H 0.49816 0.36593 0.85352 0.0
H1245 H 0.45148 0.35802 0.67049 0.0
H1246 H 0.45093 0.33988 0.72448 0.0
H1247 H 0.47036 0.33942 0.6742 0.0
C1248 C 0.46779 0.31464 0.88455 0.0
C1249 C 0.47184 0.29724 0.85518 0.0
C1250 C 0.47049 0.33362 0.86109 0.0
C1251 C 0.47754 0.33587 0.80761 0.0
C1252 C 0.48172 0.31837 0.77838 0.0
H1253 H 0.5203 0.44314 0.63113 0.0
H1254 H 0.5144 0.40887 0.66345 0.0
C1255 C 0.47864 0.29933 0.80156 0.0
C1256 C 0.48129 0.35645 0.78404 0.0
H1257 H 0.47241 0.38677 0.67435 0.0
C1258 C 0.49237 0.37038 0.81442 0.0
C1259 C 0.47388 0.36267 0.73281 0.0
C1260 C 0.46084 0.3493 0.69884 0.0
C1261 C 0.49632 0.3899 0.79528 0.0
C1262 C 0.48906 0.39599 0.74415 0.0
C1263 C 0.47812 0.38215 0.71341 0.0
C1264 C 0.49228 0.41684 0.72297 0.0
C1265 C 0.50839 0.40395 0.82981 0.0
C1266 C 0.48162 0.43287 0.74465 0.0
C1267 C 0.4846 0.45241 0.7252 0.0
C1268 C 0.49879 0.45667 0.68465 0.0
C1269 C 0.50947 0.44057 0.66295 0.0
C1270 C 0.50606 0.4209 0.68132 0.0
H1271 H 0.51565 0.39617 0.86416 0.0
H1272 H 0.52002 0.41155 0.80507 0.0
H1273 H 0.49849 0.41558 0.84639 0.0
H1274 H 0.47086 0.43025 0.77664 0.0
H1275 H 0.47592 0.46415 0.74261 0.0
H1276 H 0.22254 0.44715 0.81841 0.0
H1277 H 0.19037 0.4525 0.77615 0.0
H1278 H 0.18978 0.51246 0.83712 0.0
H1279 H 0.2227 0.50801 0.87506 0.0
H1280 H 0.15551 0.45876 0.8145 0.0
H1281 H 0.17245 0.52504 0.68958 0.0
H1282 H 0.19171 0.51096 0.72239 0.0
H1283 H 0.17812 0.52958 0.75922 0.0
C1284 C 0.21607 0.46177 0.82173 0.0
C1285 C 0.2259 0.47712 0.85064 0.0
C1286 C 0.19728 0.46471 0.79782 0.0
C1287 C 0.18741 0.48305 0.80213 0.0
C1288 C 0.19704 0.49832 0.83124 0.0
H1289 H 0.06981 0.53031 0.71973 0.0
H1290 H 0.10377 0.52433 0.75206 0.0
C1291 C 0.21597 0.49554 0.85426 0.0
C1292 C 0.16679 0.48586 0.77864 0.0
H1293 H 0.13799 0.51778 0.70404 0.0
C1294 C 0.15181 0.47162 0.78997 0.0
C1295 C 0.16158 0.50253 0.74612 0.0
C1296 C 0.17688 0.51776 0.72813 0.0
C1297 C 0.13197 0.47388 0.77188 0.0
C1298 C 0.12667 0.49083 0.74054 0.0
C1299 C 0.14172 0.50489 0.72844 0.0
C1300 C 0.10571 0.49439 0.7204 0.0
C1301 C 0.11679 0.45829 0.78831 0.0
C1302 C 0.09517 0.4798 0.69089 0.0
C1303 C 0.07554 0.48308 0.67337 0.0
C1304 C 0.06598 0.50128 0.68322 0.0
C1305 C 0.07666 0.51613 0.71122 0.0
C1306 C 0.09617 0.51269 0.72976 0.0
H1307 H 0.12162 0.44986 0.8247 0.0
H1308 H 0.10213 0.46505 0.79694 0.0
H1309 H 0.11495 0.44744 0.75491 0.0
H1310 H 0.10215 0.46584 0.6809 0.0
H1311 H 0.06793 0.47139 0.65125 0.0
H1312 H 0.00642 0.80942 0.33657 0.0
H1313 H 0.00845 0.84311 0.37448 0.0
H1314 H 0.96034 0.82876 0.48381 0.0
H1315 H 0.95824 0.79496 0.44532 0.0
H1316 H 0.97984 0.87328 0.37955 0.0
H1317 H 1.00318 0.85105 0.58651 0.0
H1318 H 1.00426 0.83423 0.5298 0.0
H1319 H 0.98087 0.83923 0.56198 0.0
C1320 C 0.99629 0.81346 0.36876 0.0
C1321 C 0.98224 0.79951 0.38812 0.0
C1322 C 0.99743 0.83277 0.39042 0.0
C1323 C 0.98477 0.83862 0.43274 0.0
C1324 C 0.97055 0.82468 0.4519 0.0
H1325 H 0.97348 0.95497 0.59669 0.0
H1326 H 0.96811 0.92076 0.56418 0.0
C1327 C 0.96925 0.80537 0.42969 0.0
C1328 C 0.98646 0.85932 0.45588 0.0
H1329 H 0.9978 0.88538 0.57127 0.0
C1330 C 0.98377 0.87585 0.4215 0.0
C1331 C 0.99152 0.86293 0.51075 0.0
C1332 C 0.9953 0.84598 0.54949 0.0
C1333 C 0.98598 0.89562 0.44024 0.0
C1334 C 0.99137 0.89921 0.49474 0.0
C1335 C 0.99375 0.88274 0.52945 0.0
C1336 C 0.99492 0.91995 0.51583 0.0
C1337 C 0.98234 0.91266 0.40172 0.0
C1338 C 0.01192 0.931 0.5003 0.0
C1339 C 0.01525 0.95043 0.51987 0.0
C1340 C 1.00144 0.95952 0.5546 0.0
C1341 C 0.98438 0.94849 0.56985 0.0
C1342 C 0.9813 0.92888 0.55134 0.0
H1343 H 0.97501 0.90764 0.36383 0.0
H1344 H 0.97289 0.92408 0.42121 0.0
H1345 H 0.99675 0.91985 0.39106 0.0
H1346 H 0.02268 0.92454 0.47299 0.0
H1347 H 0.02843 0.95853 0.50687 0.0
H1348 H 0.73571 0.97646 0.46907 0.0
H1349 H 0.70226 0.97832 0.50946 0.0
H1350 H 0.67737 0.98852 0.35113 0.0
H1351 H 0.7105 0.98562 0.31087 0.0
H1352 H 0.67616 0.00725 0.515 0.0
H1353 H 0.63978 0.94654 0.4006 0.0
H1354 H 0.66638 0.95023 0.40018 0.0
H1355 H 0.65072 0.9648 0.35643 0.0
C1356 C 0.72301 0.97879 0.44297 0.0
C1357 C 0.7257 0.98053 0.38669 0.0
C1358 C 0.70386 0.97993 0.46604 0.0
C1359 C 0.68696 0.9831 0.4335 0.0
C1360 C 0.68983 0.98527 0.37731 0.0
H1361 H 0.5607 1.0061 0.47833 0.0
H1362 H 0.59457 1.0007 0.44571 0.0
C1363 C 0.70886 0.98374 0.35422 0.0
C1364 C 0.66652 0.98497 0.4582 0.0
H1365 H 0.61818 0.96873 0.44706 0.0
C1366 C 0.66355 0.99864 0.50042 0.0
C1367 C 0.64985 0.9738 0.43966 0.0
C1368 C 0.65185 0.95788 0.39714 0.0
C1369 C 0.64452 1.00197 0.52297 0.0
C1370 C 0.62779 0.99111 0.50357 0.0
C1371 C 0.63082 0.9772 0.46198 0.0
C1372 C 0.60699 0.99429 0.52452 0.0
C1373 C 0.64247 0.01765 0.56609 0.0
C1374 C 0.60228 0.99229 0.5799 0.0
C1375 C 0.5828 0.99554 0.59884 0.0
C1376 C 0.56738 1.00051 0.56283 0.0
C1377 C 0.57206 1.00213 0.50737 0.0
C1378 C 0.59153 0.99907 0.48856 0.0
H1379 H 0.65531 0.02819 0.56602 0.0
H1380 H 0.6286 0.02627 0.56059 0.0
H1381 H 0.64189 0.01032 0.60639 0.0
H1382 H 0.61364 0.98807 0.60861 0.0
H1383 H 0.57978 0.99398 0.64172 0.0
H1384 H 0.51516 0.72212 0.35792 0.0
H1385 H 0.51279 0.68795 0.39255 0.0
H1386 H 0.56834 0.69599 0.47673 0.0
H1387 H 0.57094 0.7303 0.44115 0.0
H1388 H 0.54126 0.65552 0.37976 0.0
H1389 H 0.52789 0.67507 0.59511 0.0
H1390 H 0.52398 0.69254 0.54045 0.0
H1391 H 0.54876 0.68705 0.56235 0.0
C1392 C 0.52683 0.71669 0.38416 0.0
C1393 C 0.54313 0.72909 0.39728 0.0
C1394 C 0.5255 0.69706 0.40374 0.0
C1395 C 0.54024 0.6893 0.43786 0.0
C1396 C 0.55663 0.70161 0.45098 0.0
H1397 H 0.55096 0.56975 0.58638 0.0
H1398 H 0.55765 0.60377 0.55303 0.0
C1399 C 0.55815 0.72122 0.4305 0.0
C1400 C 0.53837 0.66832 0.45901 0.0
H1401 H 0.52998 0.64087 0.57436 0.0
C1402 C 0.53886 0.65236 0.42234 0.0
C1403 C 0.53518 0.66402 0.51459 0.0
C1404 C 0.53376 0.6805 0.55562 0.0
C1405 C 0.53633 0.6324 0.43967 0.0
C1406 C 0.53288 0.62813 0.49508 0.0
C1407 C 0.53263 0.64405 0.53189 0.0
C1408 C 0.52893 0.6073 0.51511 0.0
C1409 C 0.53744 0.6159 0.39867 0.0
C1410 C 0.51052 0.59785 0.50534 0.0
C1411 C 0.50651 0.57858 0.52545 0.0
C1412 C 0.52097 0.56806 0.5548 0.0
C1413 C 0.53955 0.57736 0.56362 0.0
C1414 C 0.54337 0.59686 0.5447 0.0
H1415 H 0.54329 0.62124 0.35907 0.0
H1416 H 0.5471 0.60376 0.4138 0.0
H1417 H 0.52234 0.60951 0.39233 0.0
H1418 H 0.49913 0.60551 0.48261 0.0
H1419 H 0.49212 0.57181 0.51758 0.0
H1420 H 0.79962 0.51044 0.38077 0.0
H1421 H 0.83335 0.5085 0.41682 0.0
H1422 H 0.83188 0.57086 0.45643 0.0
H1423 H 0.79785 0.57293 0.42051 0.0
H1424 H 0.86756 0.53047 0.38096 0.0
H1425 H 0.85194 0.544 0.59855 0.0
H1426 H 0.83289 0.53609 0.55165 0.0
H1427 H 0.84144 0.56148 0.55142 0.0
C1428 C 0.80623 0.52374 0.39802 0.0
C1429 C 0.7957 0.54182 0.39809 0.0
C1430 C 0.8257 0.52261 0.41831 0.0
C1431 C 0.83529 0.53944 0.44001 0.0
C1432 C 0.82483 0.55754 0.44066 0.0
H1433 H 0.95884 0.55488 0.55963 0.0
H1434 H 0.92484 0.56092 0.52686 0.0
C1435 C 0.80535 0.55874 0.41973 0.0
C1436 C 0.85642 0.53803 0.45983 0.0
H1437 H 0.8857 0.54088 0.5733 0.0
C1438 C 0.87148 0.53281 0.42302 0.0
C1439 C 0.86173 0.54102 0.51475 0.0
C1440 C 0.8462 0.54581 0.5567 0.0
C1441 C 0.89147 0.53058 0.43942 0.0
C1442 C 0.89675 0.53337 0.49433 0.0
C1443 C 0.88178 0.53881 0.53114 0.0
C1444 C 0.91757 0.52985 0.51433 0.0
C1445 C 0.90694 0.5253 0.39778 0.0
C1446 C 0.92498 0.51039 0.51844 0.0
C1447 C 0.94429 0.50688 0.53788 0.0
C1448 C 0.95696 0.52274 0.55309 0.0
C1449 C 0.94964 0.54228 0.54807 0.0
C1450 C 0.93012 0.54576 0.52953 0.0
H1451 H 0.90126 0.52695 0.35582 0.0
H1452 H 0.92037 0.53488 0.40255 0.0
H1453 H 0.9115 0.50962 0.40389 0.0
H1454 H 0.91569 0.49783 0.50707 0.0
H1455 H 0.94932 0.49164 0.54088 0.0
loop_
_geom_bond_atom_site_label_1
_geom_bond_atom_site_label_2
_geom_bond_distance
_geom_bond_site_symmetry_2
_ccdc_geom_bond_type
P0 O11 1.490 . S
P0 C14 1.812 . S
P0 C20 1.803 . S
P0 C26 1.819 . S
H1 C15 0.941 . S
H2 C16 0.939 . S
H3 C18 0.940 . S
H4 C19 0.940 . S
H5 C21 0.939 . S
H6 C22 0.942 . S
H7 C24 0.940 . S
H8 C25 0.939 . S
H9 C27 0.941 . S
H10 C31 0.939 . S
O11 P0 1.490 . S
H12 C28 0.939 . S
H13 C30 0.940 . S
C14 P0 1.812 . S
C14 C15 1.389 . S
C14 C19 1.391 . S
C15 H1 0.941 . S
C15 C14 1.389 . S
C15 C16 1.397 . S
C16 H2 0.939 . S
C16 C15 1.397 . S
C16 C17 1.378 . S
C17 C16 1.378 . S
C17 C18 1.378 . S
C18 H3 0.940 . S
C18 C17 1.378 . S
C18 C19 1.396 . S
C19 H4 0.940 . S
C19 C14 1.391 . S
C19 C18 1.396 . S
C20 P0 1.803 . S
C20 C21 1.378 . S
C20 C25 1.400 . S
C21 H5 0.939 . S
C21 C20 1.378 . S
C21 C22 1.361 . S
C22 H6 0.942 . S
C22 C21 1.361 . S
C22 C23 1.369 . S
C23 C22 1.369 . S
C23 C24 1.404 . S
C24 H7 0.940 . S
C24 C23 1.404 . S
C24 C25 1.389 . S
C25 H8 0.939 . S
C25 C20 1.400 . S
C25 C24 1.389 . S
C26 P0 1.819 . S
C26 C27 1.391 . S
C26 C31 1.391 . S
C27 H9 0.941 . S
C27 C26 1.391 . S
C27 C28 1.396 . S
C28 H12 0.939 . S
C28 C27 1.396 . S
C28 C29 1.397 . S
C29 C28 1.397 . S
C29 C30 1.385 . S
C30 H13 0.940 . S
C30 C29 1.385 . S
C30 C31 1.388 . S
C31 H10 0.939 . S
C31 C26 1.391 . S
C31 C30 1.388 . S
P32 O43 1.490 1_655 S
P32 C46 1.812 . S
P32 C52 1.803 . S
P32 C58 1.819 . S
H33 C47 0.941 1_455 S
H34 C48 0.939 . S
H35 C50 0.940 . S
H36 C51 0.940 . S
H37 C53 0.939 1_455 S
H38 C54 0.942 . S
H39 C56 0.940 . S
H40 C57 0.939 . S
H41 C59 0.941 1_455 S
H42 C63 0.939 . S
O43 P32 1.490 1_455 S
H44 C60 0.939 . S
H45 C62 0.940 . S
C46 P32 1.812 . S
C46 C47 1.389 . S
C46 C51 1.391 . S
C47 H33 0.941 1_655 S
C47 C46 1.389 . S
C47 C48 1.397 . S
C48 H34 0.939 . S
C48 C47 1.397 . S
C48 C49 1.378 . S
C49 C48 1.378 . S
C49 C50 1.378 . S
C50 H35 0.940 . S
C50 C49 1.378 . S
C50 C51 1.396 . S
C51 H36 0.940 . S
C51 C46 1.391 . S
C51 C50 1.396 . S
C52 P32 1.803 . S
C52 C53 1.378 . S
C52 C57 1.400 . S
C53 H37 0.939 1_655 S
C53 C52 1.378 . S
C53 C54 1.361 . S
C54 H38 0.942 . S
C54 C53 1.361 . S
C54 C55 1.369 . S
C55 C54 1.369 . S
C55 C56 1.404 . S
C56 H39 0.940 . S
C56 C55 1.404 . S
C56 C57 1.389 . S
C57 H40 0.939 . S
C57 C52 1.400 . S
C57 C56 1.389 . S
C58 P32 1.819 . S
C58 C59 1.391 . S
C58 C63 1.391 . S
C59 H41 0.941 1_655 S
C59 C58 1.391 . S
C59 C60 1.396 . S
C60 H44 0.939 . S
C60 C59 1.396 . S
C60 C61 1.397 . S
C61 C60 1.397 . S
C61 C62 1.385 . S
C62 H45 0.940 . S
C62 C61 1.385 . S
C62 C63 1.388 . S
C63 H42 0.939 . S
C63 C58 1.391 . S
C63 C62 1.388 . S
P64 O75 1.490 1_565 S
P64 C78 1.812 . S
P64 C84 1.803 . S
P64 C90 1.819 . S
H65 C79 0.941 1_545 S
H66 C80 0.939 . S
H67 C82 0.940 . S
H68 C83 0.940 . S
H69 C85 0.939 1_545 S
H70 C86 0.942 . S
H71 C88 0.940 . S
H72 C89 0.939 . S
H73 C91 0.936 1_545 S
H74 C95 0.939 . S
O75 P64 1.490 1_545 S
H76 C92 0.939 . S
H77 C94 0.940 . S
C78 P64 1.812 . S
C78 C79 1.389 . S
C78 C83 1.391 . S
C79 H65 0.941 1_565 S
C79 C78 1.389 . S
C79 C80 1.397 . S
C80 H66 0.939 . S
C80 C79 1.397 . S
C80 C81 1.378 . S
C81 C80 1.378 . S
C81 C82 1.378 . S
C82 H67 0.940 . S
C82 C81 1.378 . S
C82 C83 1.396 . S
C83 H68 0.940 . S
C83 C78 1.391 . S
C83 C82 1.396 . S
C84 P64 1.803 . S
C84 C85 1.378 . S
C84 C89 1.400 . S
C85 H69 0.939 1_565 S
C85 C84 1.378 . S
C85 C86 1.361 . S
C86 H70 0.942 . S
C86 C85 1.361 . S
C86 C87 1.369 . S
C87 C86 1.369 . S
C87 C88 1.404 . S
C88 H71 0.940 . S
C88 C87 1.404 . S
C88 C89 1.389 . S
C89 H72 0.939 . S
C89 C84 1.400 . S
C89 C88 1.389 . S
C90 P64 1.819 . S
C90 C91 1.391 . S
C90 C95 1.391 . S
C91 H73 0.936 1_565 S
C91 C90 1.391 . S
C91 C92 1.396 . S
C92 H76 0.939 . S
C92 C91 1.396 . S
C92 C93 1.397 . S
C93 C92 1.397 . S
C93 C94 1.385 . S
C94 H77 0.940 . S
C94 C93 1.385 . S
C94 C95 1.388 . S
C95 H74 0.939 . S
C95 C90 1.391 . S
C95 C94 1.388 . S
P96 O107 1.490 . S
P96 C110 1.812 . S
P96 C116 1.803 . S
P96 C122 1.819 . S
H97 C111 0.941 . S
H98 C112 0.939 . S
H99 C114 0.940 . S
H100 C115 0.940 . S
H101 C117 0.939 . S
H102 C118 0.942 . S
H103 C120 0.940 . S
H104 C121 0.939 . S
H105 C123 0.941 . S
H106 C127 0.939 . S
O107 P96 1.490 . S
H108 C124 0.939 . S
H109 C126 0.940 . S
C110 P96 1.812 . S
C110 C111 1.389 . S
C110 C115 1.391 . S
C111 H97 0.941 . S
C111 C110 1.389 . S
C111 C112 1.397 . S
C112 H98 0.939 . S
C112 C111 1.397 . S
C112 C113 1.378 . S
C113 C112 1.378 . S
C113 C114 1.378 . S
C114 H99 0.940 . S
C114 C113 1.378 . S
C114 C115 1.396 . S
C115 H100 0.940 . S
C115 C110 1.391 . S
C115 C114 1.396 . S
C116 P96 1.803 . S
C116 C117 1.378 . S
C116 C121 1.400 . S
C117 H101 0.939 . S
C117 C116 1.378 . S
C117 C118 1.361 . S
C118 H102 0.942 . S
C118 C117 1.361 . S
C118 C119 1.369 . S
C119 C118 1.369 . S
C119 C120 1.404 . S
C120 H103 0.940 . S
C120 C119 1.404 . S
C120 C121 1.389 . S
C121 H104 0.939 . S
C121 C116 1.400 . S
C121 C120 1.389 . S
C122 P96 1.819 . S
C122 C123 1.391 . S
C122 C127 1.391 . S
C123 H105 0.941 . S
C123 C122 1.391 . S
C123 C124 1.396 . S
C124 H108 0.939 . S
C124 C123 1.396 . S
C124 C125 1.397 . S
C125 C124 1.397 . S
C125 C126 1.385 . S
C126 H109 0.940 . S
C126 C125 1.385 . S
C126 C127 1.388 . S
C127 H106 0.939 . S
C127 C122 1.391 . S
C127 C126 1.388 . S
P128 O139 1.490 . S
P128 C142 1.812 1_554 S
P128 C148 1.803 . S
P128 C154 1.819 . S
H129 C143 0.941 . S
H130 C144 0.939 . S
H131 C146 0.940 . S
H132 C147 0.940 . S
H133 C149 0.939 . S
H134 C150 0.942 . S
H135 C152 0.940 . S
H136 C153 0.939 . S
H137 C155 0.941 . S
H138 C159 0.939 . S
O139 P128 1.490 . S
H140 C156 0.939 . S
H141 C158 0.940 . S
C142 P128 1.812 1_556 S
C142 C143 1.389 . S
C142 C147 1.391 . S
C143 H129 0.941 . S
C143 C142 1.389 . S
C143 C144 1.397 . S
C144 H130 0.939 . S
C144 C143 1.397 . S
C144 C145 1.378 . S
C145 C144 1.378 . S
C145 C146 1.378 . S
C146 H131 0.940 . S
C146 C145 1.378 . S
C146 C147 1.396 . S
C147 H132 0.940 . S
C147 C142 1.391 . S
C147 C146 1.396 . S
C148 P128 1.803 . S
C148 C149 1.378 . S
C148 C153 1.400 . S
C149 H133 0.939 . S
C149 C148 1.378 . S
C149 C150 1.361 . S
C150 H134 0.942 . S
C150 C149 1.361 . S
C150 C151 1.369 . S
C151 C150 1.369 . S
C151 C152 1.404 . S
C152 H135 0.940 . S
C152 C151 1.404 . S
C152 C153 1.389 . S
C153 H136 0.939 . S
C153 C148 1.400 . S
C153 C152 1.389 . S
C154 P128 1.819 . S
C154 C155 1.391 . S
C154 C159 1.391 . S
C155 H137 0.941 . S
C155 C154 1.391 . S
C155 C156 1.396 . S
C156 H140 0.939 . S
C156 C155 1.396 . S
C156 C157 1.397 . S
C157 C156 1.397 . S
C157 C158 1.385 . S
C158 H141 0.940 . S
C158 C157 1.385 . S
C158 C159 1.388 . S
C159 H138 0.939 . S
C159 C154 1.391 . S
C159 C158 1.388 . S
P160 O171 1.490 . S
P160 C174 1.812 1_554 S
P160 C180 1.803 . S
P160 C186 1.819 . S
H161 C175 0.941 . S
H162 C176 0.939 . S
H163 C178 0.940 . S
H164 C179 0.953 . S
H165 C181 0.939 . S
H166 C182 0.942 . S
H167 C184 0.940 . S
H168 C185 0.939 . S
H169 C187 0.941 . S
H170 C191 0.939 . S
O171 P160 1.490 . S
H172 C188 0.939 . S
H173 C190 0.940 . S
C174 P160 1.812 1_556 S
C174 C175 1.389 . S
C174 C179 1.391 . S
C175 H161 0.941 . S
C175 C174 1.389 . S
C175 C176 1.397 . S
C176 H162 0.939 . S
C176 C175 1.397 . S
C176 C177 1.378 . S
C177 C176 1.378 . S
C177 C178 1.378 . S
C178 H163 0.940 . S
C178 C177 1.378 . S
C178 C179 1.396 . S
C179 H164 0.953 . S
C179 C174 1.391 . S
C179 C178 1.396 . S
C180 P160 1.803 . S
C180 C181 1.378 . S
C180 C185 1.400 . S
C181 H165 0.939 . S
C181 C180 1.378 . S
C181 C182 1.361 . S
C182 H166 0.942 . S
C182 C181 1.361 . S
C182 C183 1.369 . S
C183 C182 1.369 . S
C183 C184 1.404 . S
C184 H167 0.940 . S
C184 C183 1.404 . S
C184 C185 1.389 . S
C185 H168 0.939 . S
C185 C180 1.400 . S
C185 C184 1.389 . S
C186 P160 1.819 . S
C186 C187 1.391 . S
C186 C191 1.391 . S
C187 H169 0.941 . S
C187 C186 1.391 . S
C187 C188 1.396 . S
C188 H172 0.939 . S
C188 C187 1.396 . S
C188 C189 1.397 . S
C189 C188 1.397 . S
C189 C190 1.385 . S
C190 H173 0.940 . S
C190 C189 1.385 . S
C190 C191 1.388 . S
C191 H170 0.939 . S
C191 C186 1.391 . S
C191 C190 1.388 . S
P192 O203 1.490 . S
P192 C206 1.812 1_554 S
P192 C212 1.803 . S
P192 C218 1.819 . S
H193 C207 0.941 . S
H194 C208 0.939 . S
H195 C210 0.940 . S
H196 C211 0.946 . S
H197 C213 0.939 . S
H198 C214 0.942 . S
H199 C216 0.940 . S
H200 C217 0.939 . S
H201 C219 0.941 . S
H202 C223 0.939 . S
O203 P192 1.490 . S
H204 C220 0.939 . S
H205 C222 0.940 . S
C206 P192 1.812 1_556 S
C206 C207 1.389 . S
C206 C211 1.391 . S
C207 H193 0.941 . S
C207 C206 1.389 . S
C207 C208 1.397 . S
C208 H194 0.939 . S
C208 C207 1.397 . S
C208 C209 1.378 . S
C209 C208 1.378 . S
C209 C210 1.378 . S
C210 H195 0.940 . S
C210 C209 1.378 . S
C210 C211 1.396 . S
C211 H196 0.946 . S
C211 C206 1.391 . S
C211 C210 1.396 . S
C212 P192 1.803 . S
C212 C213 1.378 . S
C212 C217 1.400 . S
C213 H197 0.939 . S
C213 C212 1.378 . S
C213 C214 1.361 . S
C214 H198 0.942 . S
C214 C213 1.361 . S
C214 C215 1.369 . S
C215 C214 1.369 . S
C215 C216 1.404 . S
C216 H199 0.940 . S
C216 C215 1.404 . S
C216 C217 1.389 . S
C217 H200 0.939 . S
C217 C212 1.400 . S
C217 C216 1.389 . S
C218 P192 1.819 . S
C218 C219 1.391 . S
C218 C223 1.391 . S
C219 H201 0.941 . S
C219 C218 1.391 . S
C219 C220 1.396 . S
C220 H204 0.939 . S
C220 C219 1.396 . S
C220 C221 1.397 . S
C221 C220 1.397 . S
C221 C222 1.385 . S
C222 H205 0.940 . S
C222 C221 1.385 . S
C222 C223 1.388 . S
C223 H202 0.939 . S
C223 C218 1.391 . S
C223 C222 1.388 . S
P224 O235 1.490 . S
P224 C238 1.812 1_554 S
P224 C244 1.803 . S
P224 C250 1.819 . S
H225 C239 0.941 . S
H226 C240 0.939 . S
H227 C242 0.940 . S
H228 C243 0.940 . S
H229 C245 0.939 . S
H230 C246 0.942 . S
H231 C248 0.940 . S
H232 C249 0.939 . S
H233 C251 0.941 . S
H234 C255 0.939 . S
O235 P224 1.490 . S
H236 C252 0.939 . S
H237 C254 0.940 . S
C238 P224 1.812 1_556 S
C238 C239 1.389 . S
C238 C243 1.391 . S
C239 H225 0.941 . S
C239 C238 1.389 . S
C239 C240 1.397 . S
C240 H226 0.939 . S
C240 C239 1.397 . S
C240 C241 1.378 . S
C241 C240 1.378 . S
C241 C242 1.378 . S
C242 H227 0.940 . S
C242 C241 1.378 . S
C242 C243 1.396 . S
C243 H228 0.940 . S
C243 C238 1.391 . S
C243 C242 1.396 . S
C244 P224 1.803 . S
C244 C245 1.378 . S
C244 C249 1.400 . S
C245 H229 0.939 . S
C245 C244 1.378 . S
C245 C246 1.361 . S
C246 H230 0.942 . S
C246 C245 1.361 . S
C246 C247 1.369 . S
C247 C246 1.369 . S
C247 C248 1.404 . S
C248 H231 0.940 . S
C248 C247 1.404 . S
C248 C249 1.389 . S
C249 H232 0.939 . S
C249 C244 1.400 . S
C249 C248 1.389 . S
C250 P224 1.819 . S
C250 C251 1.391 . S
C250 C255 1.391 . S
C251 H233 0.941 . S
C251 C250 1.391 . S
C251 C252 1.396 . S
C252 H236 0.939 . S
C252 C251 1.396 . S
C252 C253 1.397 . S
C253 C252 1.397 . S
C253 C254 1.385 . S
C254 H237 0.940 . S
C254 C253 1.385 . S
C254 C255 1.388 . S
C255 H234 0.939 . S
C255 C250 1.391 . S
C255 C254 1.388 . S
C256 C258 1.422 . S
C256 C260 1.415 . S
C256 N262 1.369 1_545 S
C257 C258 1.421 . S
C257 C259 1.417 . S
C257 C269 1.422 . S
C258 C256 1.422 . S
C258 C257 1.421 . S
C258 N268 1.359 . S
C259 C257 1.417 . S
C259 C261 1.329 . S
C259 H278 0.930 . S
C260 C256 1.415 . S
C260 C261 1.437 . S
C260 C264 1.413 . S
C261 C259 1.329 . S
C261 C260 1.437 . S
C261 H283 0.929 . S
N262 C256 1.369 1_565 S
N262 C263 1.338 . S
N262 Gd267 2.622 . S
C263 N262 1.338 . S
C263 C265 1.378 1_565 S
C263 H275 0.929 . S
C264 C260 1.413 . S
C264 C265 1.348 . S
C264 H280 0.931 . S
C265 C263 1.378 1_545 S
C265 C264 1.348 . S
C265 H281 0.930 . S
Gd266 N286 2.622 . S
Gd266 N293 2.570 . S
Gd266 O300 2.353 1_655 S
Gd266 O301 2.459 1_655 S
Gd266 O302 2.427 . S
Gd266 O304 2.388 . S
Gd266 O305 2.386 1_545 S
Gd266 O309 2.307 1_655 S
Gd266 C319 2.805 . S
Gd267 N262 2.622 . S
Gd267 N268 2.570 1_565 S
Gd267 O299 2.386 1_565 S
Gd267 O303 2.302 1_465 S
Gd267 O306 2.353 . S
Gd267 O307 2.468 . S
Gd267 O308 2.427 . S
Gd267 O310 2.388 . S
Gd267 C331 2.805 . S
N268 C258 1.359 . S
N268 Gd267 2.570 1_545 S
N268 C270 1.343 . S
C269 C257 1.422 . S
C269 C271 1.321 . S
C269 H277 0.931 . S
C270 N268 1.343 . S
C270 C271 1.390 . S
C270 H272 0.882 1_445 S
C271 C269 1.321 . S
C271 C270 1.390 . S
C271 H273 0.930 . S
H272 C270 0.882 1_665 S
H273 C271 0.930 . S
H274 C297 0.939 . S
H275 C263 0.929 . S
H276 C298 0.887 1_455 S
H277 C269 0.931 . S
H278 C259 0.930 . S
H279 C288 0.929 . S
H280 C264 0.931 . S
H281 C265 0.930 . S
H282 C320 0.930 . S
H283 C261 0.929 . S
H284 C289 0.931 . S
H285 C290 0.930 . S
N286 Gd266 2.622 . S
N286 C287 1.369 . S
N286 C288 1.338 . S
C287 N286 1.369 . S
C287 C291 1.415 1_545 S
C287 C294 1.422 . S
C288 H279 0.929 . S
C288 N286 1.338 . S
C288 C290 1.378 . S
C289 H284 0.931 . S
C289 C290 1.348 1_565 S
C289 C291 1.413 . S
C290 H285 0.930 . S
C290 C288 1.378 . S
C290 C289 1.348 1_545 S
C291 C287 1.415 1_565 S
C291 C289 1.413 . S
C291 C321 1.437 . S
H292 C321 0.929 . S
N293 Gd266 2.570 . S
N293 C294 1.359 . S
N293 C297 1.336 1_655 S
C294 C287 1.422 . S
C294 N293 1.359 . S
C294 C296 1.421 1_545 S
C295 C296 1.422 . S
C295 C298 1.367 . S
C295 H322 0.931 . S
C296 C294 1.421 1_565 S
C296 C295 1.422 . S
C296 C320 1.417 . S
C297 H274 0.939 . S
C297 N293 1.336 1_455 S
C297 C298 1.388 1_445 S
C298 H276 0.887 1_655 S
C298 C295 1.367 . S
C298 C297 1.388 1_665 S
O299 Gd267 2.386 1_545 S
O299 C311 1.265 . S
O300 Gd266 2.353 1_455 S
O300 C311 1.242 . S
O301 Gd266 2.459 1_455 S
O301 C319 1.241 1_455 S
O302 Gd266 2.427 . S
O302 C319 1.252 . S
O303 Gd267 2.302 1_645 S
O303 C312 1.265 . S
O304 Gd266 2.388 . S
O304 C312 1.252 . S
O305 Gd266 2.386 1_565 S
O305 C323 1.265 . S
O306 Gd267 2.353 . S
O306 C323 1.242 1_455 S
O307 Gd267 2.468 . S
O307 C331 1.263 . S
O308 Gd267 2.427 . S
O308 C331 1.252 . S
O309 Gd266 2.307 1_455 S
O309 C324 1.261 . S
O310 Gd267 2.388 . S
O310 C324 1.252 1_565 S
C311 O299 1.265 . S
C311 O300 1.242 . S
C312 O303 1.265 . S
C312 O304 1.252 . S
C313 C316 1.394 . S
C313 C318 1.370 . S
C313 C319 1.500 . S
C314 C317 1.383 . S
C314 C318 1.395 . S
C315 C316 1.396 . S
C315 C317 1.365 . S
C315 H332 0.929 . S
C316 C313 1.394 . S
C316 C315 1.396 . S
C316 H333 0.930 . S
C317 C314 1.383 . S
C317 C315 1.365 . S
C317 H334 0.931 . S
C318 C313 1.370 . S
C318 C314 1.395 . S
C318 H335 0.930 1_655 S
C319 Gd266 2.805 . S
C319 O301 1.241 1_655 S
C319 O302 1.252 . S
C319 C313 1.500 . S
C320 H282 0.930 . S
C320 C296 1.417 . S
C320 C321 1.329 . S
C321 C291 1.437 . S
C321 H292 0.929 . S
C321 C320 1.329 . S
H322 C295 0.931 . S
C323 O305 1.265 . S
C323 O306 1.242 1_655 S
C324 O309 1.261 . S
C324 O310 1.252 1_545 S
C325 C328 1.394 . S
C325 C330 1.370 . S
C325 C331 1.500 . S
C326 C329 1.383 . S
C326 C330 1.395 . S
C327 C328 1.396 . S
C327 C329 1.365 . S
C327 H336 0.929 . S
C328 C325 1.394 . S
C328 C327 1.396 . S
C328 H337 0.930 . S
C329 C326 1.383 . S
C329 C327 1.365 . S
C329 H338 0.931 . S
C330 C325 1.370 . S
C330 C326 1.395 . S
C330 H339 0.930 . S
C331 Gd267 2.805 . S
C331 O307 1.263 . S
C331 O308 1.252 . S
C331 C325 1.500 . S
H332 C315 0.929 . S
H333 C316 0.930 . S
H334 C317 0.931 . S
H335 C318 0.930 1_455 S
H336 C327 0.929 . S
H337 C328 0.930 . S
H338 C329 0.931 . S
H339 C330 0.930 . S
C340 C342 1.422 . S
C340 C344 1.415 . S
C340 N346 1.369 . S
C341 C342 1.421 . S
C341 C343 1.417 . S
C341 C353 1.422 . S
C342 C340 1.422 . S
C342 C341 1.421 . S
C342 N352 1.359 . S
C343 C341 1.417 . S
C343 C345 1.329 . S
C343 H362 0.930 . S
C344 C340 1.415 . S
C344 C345 1.437 . S
C344 C348 1.413 . S
C345 C343 1.329 . S
C345 C344 1.437 . S
C345 H367 0.929 . S
N346 C340 1.369 . S
N346 C347 1.338 . S
N346 Gd351 2.622 . S
C347 N346 1.338 . S
C347 C349 1.378 . S
C347 H359 0.929 . S
C348 C344 1.413 . S
C348 C349 1.348 . S
C348 H364 0.931 . S
C349 C347 1.378 . S
C349 C348 1.348 . S
C349 H365 0.930 . S
Gd350 N370 2.622 . S
Gd350 N377 2.570 . S
Gd350 O384 2.353 1_545 S
Gd350 O385 2.468 . S
Gd350 O386 2.427 . S
Gd350 O388 2.388 . S
Gd350 O389 2.386 . S
Gd350 O393 2.307 . S
Gd350 C403 2.805 . S
Gd351 N346 2.622 . S
Gd351 N352 2.570 . S
Gd351 O383 2.386 . S
Gd351 O387 2.307 1_565 S
Gd351 O390 2.353 1_565 S
Gd351 O391 2.468 . S
Gd351 O392 2.427 . S
Gd351 O394 2.388 . S
Gd351 C415 2.805 . S
N352 C342 1.359 . S
N352 Gd351 2.570 . S
N352 C354 1.343 . S
C353 C341 1.422 . S
C353 C355 1.321 . S
C353 H361 0.931 . S
C354 N352 1.343 . S
C354 C355 1.390 . S
C354 H356 0.931 . S
C355 C353 1.321 . S
C355 C354 1.390 . S
C355 H357 0.930 . S
H356 C354 0.931 . S
H357 C355 0.930 . S
H358 C381 0.931 . S
H359 C347 0.929 . S
H360 C382 0.930 . S
H361 C353 0.931 . S
H362 C343 0.930 . S
H363 C372 0.929 . S
H364 C348 0.931 . S
H365 C349 0.930 . S
H366 C404 0.930 . S
H367 C345 0.929 . S
H368 C373 0.931 . S
H369 C374 0.930 . S
N370 Gd350 2.622 . S
N370 C371 1.369 . S
N370 C372 1.338 . S
C371 N370 1.369 . S
C371 C375 1.415 . S
C371 C378 1.422 . S
C372 H363 0.929 . S
C372 N370 1.338 . S
C372 C374 1.378 . S
C373 H368 0.931 . S
C373 C374 1.348 . S
C373 C375 1.413 . S
C374 H369 0.930 . S
C374 C372 1.378 . S
C374 C373 1.348 . S
C375 C371 1.415 . S
C375 C373 1.413 . S
C375 C405 1.437 . S
H376 C405 0.929 . S
N377 Gd350 2.570 . S
N377 C378 1.359 . S
N377 C381 1.343 . S
C378 C371 1.422 . S
C378 N377 1.359 . S
C378 C380 1.421 . S
C379 C380 1.422 . S
C379 C382 1.321 . S
C379 H406 0.931 . S
C380 C378 1.421 . S
C380 C379 1.422 . S
C380 C404 1.417 . S
C381 H358 0.931 . S
C381 N377 1.343 . S
C381 C382 1.390 . S
C382 H360 0.930 . S
C382 C379 1.321 . S
C382 C381 1.390 . S
O383 Gd351 2.386 . S
O383 C395 1.265 . S
O384 Gd350 2.353 1_565 S
O384 C395 1.242 . S
O385 Gd350 2.468 . S
O385 C403 1.263 . S
O386 Gd350 2.427 . S
O386 C403 1.252 . S
O387 Gd351 2.307 1_545 S
O387 C396 1.261 . S
O388 Gd350 2.388 . S
O388 C396 1.252 . S
O389 Gd350 2.386 . S
O389 C407 1.265 . S
O390 Gd351 2.353 1_545 S
O390 C407 1.242 . S
O391 Gd351 2.468 . S
O391 C415 1.263 . S
O392 Gd351 2.427 . S
O392 C415 1.252 . S
O393 Gd350 2.307 . S
O393 C408 1.261 1_545 S
O394 Gd351 2.388 . S
O394 C408 1.252 . S
C395 O383 1.265 . S
C395 O384 1.242 . S
C396 O387 1.261 . S
C396 O388 1.252 . S
C397 C400 1.394 . S
C397 C402 1.370 . S
C397 C403 1.500 . S
C398 C401 1.383 . S
C398 C402 1.395 . S
C399 C400 1.396 . S
C399 C401 1.365 . S
C399 H416 0.929 . S
C400 C397 1.394 . S
C400 C399 1.396 . S
C400 H417 0.930 . S
C401 C398 1.383 . S
C401 C399 1.365 . S
C401 H418 0.931 . S
C402 C397 1.370 . S
C402 C398 1.395 . S
C402 H419 0.930 . S
C403 Gd350 2.805 . S
C403 O385 1.263 . S
C403 O386 1.252 . S
C403 C397 1.500 . S
C404 H366 0.930 . S
C404 C380 1.417 . S
C404 C405 1.329 . S
C405 C375 1.437 . S
C405 H376 0.929 . S
C405 C404 1.329 . S
H406 C379 0.931 . S
C407 O389 1.265 . S
C407 O390 1.242 . S
C408 O393 1.261 1_565 S
C408 O394 1.252 . S
C409 C412 1.394 . S
C409 C414 1.370 1_565 S
C409 C415 1.500 . S
C410 C413 1.383 1_545 S
C410 C414 1.395 . S
C411 C412 1.396 . S
C411 C413 1.365 . S
C411 H420 0.929 . S
C412 C409 1.394 . S
C412 C411 1.396 . S
C412 H421 0.930 . S
C413 C410 1.383 1_565 S
C413 C411 1.365 . S
C413 H422 0.931 . S
C414 C409 1.370 1_545 S
C414 C410 1.395 . S
C414 H423 0.930 . S
C415 Gd351 2.805 . S
C415 O391 1.263 . S
C415 O392 1.252 . S
C415 C409 1.500 . S
H416 C399 0.929 . S
H417 C400 0.930 . S
H418 C401 0.931 . S
H419 C402 0.930 . S
H420 C411 0.929 . S
H421 C412 0.930 . S
H422 C413 0.931 . S
H423 C414 0.930 . S
C424 C426 1.422 . S
C424 C428 1.415 . S
C424 N430 1.369 . S
C425 C426 1.421 . S
C425 C427 1.417 . S
C425 C437 1.422 . S
C426 C424 1.422 . S
C426 C425 1.421 . S
C426 N436 1.359 . S
C427 C425 1.417 . S
C427 C429 1.329 . S
C427 H446 0.930 . S
C428 C424 1.415 . S
C428 C429 1.437 . S
C428 C432 1.413 . S
C429 C427 1.329 . S
C429 C428 1.437 . S
C429 H451 0.929 . S
N430 C424 1.369 . S
N430 C431 1.338 . S
N430 Gd435 2.622 . S
C431 N430 1.338 . S
C431 C433 1.378 . S
C431 H443 0.929 . S
C432 C428 1.413 . S
C432 C433 1.348 . S
C432 H448 0.931 . S
C433 C431 1.378 . S
C433 C432 1.348 . S
C433 H449 0.930 . S
Gd434 N454 2.622 . S
Gd434 N461 2.570 . S
Gd434 O468 2.353 . S
Gd434 O469 2.468 . S
Gd434 O470 2.427 . S
Gd434 O472 2.388 . S
Gd434 O473 2.386 . S
Gd434 O477 2.307 . S
Gd434 C487 2.805 . S
Gd435 N430 2.622 . S
Gd435 N436 2.570 . S
Gd435 O467 2.386 . S
Gd435 O471 2.307 . S
Gd435 O474 2.353 . S
Gd435 O475 2.468 . S
Gd435 O476 2.427 . S
Gd435 O478 2.388 . S
Gd435 C499 2.805 . S
N436 C426 1.359 . S
N436 Gd435 2.570 . S
N436 C438 1.343 . S
C437 C425 1.422 . S
C437 C439 1.321 . S
C437 H445 0.931 . S
C438 N436 1.343 . S
C438 C439 1.390 . S
C438 H440 0.931 . S
C439 C437 1.321 . S
C439 C438 1.390 . S
C439 H441 0.930 . S
H440 C438 0.931 . S
H441 C439 0.930 . S
H442 C465 0.931 . S
H443 C431 0.929 . S
H444 C466 0.930 . S
H445 C437 0.931 . S
H446 C427 0.930 . S
H447 C456 0.929 . S
H448 C432 0.931 . S
H449 C433 0.930 . S
H450 C488 0.930 . S
H451 C429 0.929 . S
H452 C457 0.931 . S
H453 C458 0.930 . S
N454 Gd434 2.622 . S
N454 C455 1.369 . S
N454 C456 1.338 . S
C455 N454 1.369 . S
C455 C459 1.415 . S
C455 C462 1.422 . S
C456 H447 0.929 . S
C456 N454 1.338 . S
C456 C458 1.378 . S
C457 H452 0.931 . S
C457 C458 1.348 . S
C457 C459 1.413 . S
C458 H453 0.930 . S
C458 C456 1.378 . S
C458 C457 1.348 . S
C459 C455 1.415 . S
C459 C457 1.413 . S
C459 C489 1.437 . S
H460 C489 0.929 . S
N461 Gd434 2.570 . S
N461 C462 1.359 . S
N461 C465 1.343 . S
C462 C455 1.422 . S
C462 N461 1.359 . S
C462 C464 1.421 . S
C463 C464 1.422 . S
C463 C466 1.321 . S
C463 H490 0.931 . S
C464 C462 1.421 . S
C464 C463 1.422 . S
C464 C488 1.417 . S
C465 H442 0.931 . S
C465 N461 1.343 . S
C465 C466 1.390 . S
C466 H444 0.930 . S
C466 C463 1.321 . S
C466 C465 1.390 . S
O467 Gd435 2.386 . S
O467 C479 1.265 . S
O468 Gd434 2.353 . S
O468 C479 1.242 . S
O469 Gd434 2.468 . S
O469 C487 1.263 . S
O470 Gd434 2.427 . S
O470 C487 1.252 . S
O471 Gd435 2.307 . S
O471 C480 1.261 . S
O472 Gd434 2.388 . S
O472 C480 1.252 . S
O473 Gd434 2.386 . S
O473 C491 1.265 . S
O474 Gd435 2.353 . S
O474 C491 1.242 . S
O475 Gd435 2.468 . S
O475 C499 1.263 . S
O476 Gd435 2.427 . S
O476 C499 1.252 . S
O477 Gd434 2.307 . S
O477 C492 1.261 . S
O478 Gd435 2.388 . S
O478 C492 1.252 . S
C479 O467 1.265 . S
C479 O468 1.242 . S
C480 O471 1.261 . S
C480 O472 1.252 . S
C481 C484 1.394 . S
C481 C486 1.370 . S
C481 C487 1.500 . S
C482 C485 1.383 . S
C482 C486 1.395 . S
C483 C484 1.396 . S
C483 C485 1.365 . S
C483 H500 0.929 . S
C484 C481 1.394 . S
C484 C483 1.396 . S
C484 H501 0.930 . S
C485 C482 1.383 . S
C485 C483 1.365 . S
C485 H502 0.931 . S
C486 C481 1.370 . S
C486 C482 1.395 . S
C486 H503 0.930 . S
C487 Gd434 2.805 . S
C487 O469 1.263 . S
C487 O470 1.252 . S
C487 C481 1.500 . S
C488 H450 0.930 . S
C488 C464 1.417 . S
C488 C489 1.329 . S
C489 C459 1.437 . S
C489 H460 0.929 . S
C489 C488 1.329 . S
H490 C463 0.931 . S
C491 O473 1.265 . S
C491 O474 1.242 . S
C492 O477 1.261 . S
C492 O478 1.252 . S
C493 C496 1.394 . S
C493 C498 1.370 . S
C493 C499 1.500 . S
C494 C497 1.383 . S
C494 C498 1.395 . S
C495 C496 1.396 . S
C495 C497 1.365 . S
C495 H504 0.929 . S
C496 C493 1.394 . S
C496 C495 1.396 . S
C496 H505 0.930 . S
C497 C494 1.383 . S
C497 C495 1.365 . S
C497 H506 0.931 . S
C498 C493 1.370 . S
C498 C494 1.395 . S
C498 H507 0.930 . S
C499 Gd435 2.805 . S
C499 O475 1.263 . S
C499 O476 1.252 . S
C499 C493 1.500 . S
H500 C483 0.929 . S
H501 C484 0.930 . S
H502 C485 0.931 . S
H503 C486 0.930 . S
H504 C495 0.929 . S
H505 C496 0.930 . S
H506 C497 0.931 . S
H507 C498 0.930 . S
C508 C510 1.422 . S
C508 C512 1.415 . S
C508 N514 1.369 1_455 S
C509 C510 1.421 . S
C509 C511 1.417 . S
C509 C521 1.422 . S
C510 C508 1.422 . S
C510 C509 1.421 . S
C510 N520 1.359 . S
C511 C509 1.417 . S
C511 C513 1.329 . S
C511 H530 0.930 . S
C512 C508 1.415 . S
C512 C513 1.437 . S
C512 C516 1.413 . S
C513 C511 1.329 . S
C513 C512 1.437 . S
C513 H535 0.929 . S
N514 C508 1.369 1_655 S
N514 C515 1.338 . S
N514 Gd519 2.622 . S
C515 N514 1.338 . S
C515 C517 1.378 1_655 S
C515 H527 0.929 . S
C516 C512 1.413 . S
C516 C517 1.348 . S
C516 H532 0.931 . S
C517 C515 1.378 1_455 S
C517 C516 1.348 . S
C517 H533 0.931 . S
Gd518 N538 2.622 . S
Gd518 N545 2.570 . S
Gd518 O552 2.353 . S
Gd518 O553 2.468 . S
Gd518 O554 2.427 . S
Gd518 O556 2.388 . S
Gd518 O557 2.386 1_455 S
Gd518 O561 2.307 . S
Gd518 C571 2.805 . S
Gd519 N514 2.622 . S
Gd519 N520 2.570 1_655 S
Gd519 O551 2.386 1_655 S
Gd519 O555 2.298 1_655 S
Gd519 O558 2.353 . S
Gd519 O559 2.468 . S
Gd519 O560 2.427 . S
Gd519 O562 2.388 . S
Gd519 C583 2.805 . S
N520 C510 1.359 . S
N520 Gd519 2.570 1_455 S
N520 C522 1.343 . S
C521 C509 1.422 . S
C521 C523 1.321 . S
C521 H529 0.931 . S
C522 N520 1.343 . S
C522 C523 1.390 . S
C522 H524 0.917 1_455 S
C523 C521 1.321 . S
C523 C522 1.390 . S
C523 H525 0.930 . S
H524 C522 0.917 1_655 S
H525 C523 0.930 . S
H526 C549 0.931 . S
H527 C515 0.929 . S
H528 C550 0.930 . S
H529 C521 0.931 . S
H530 C511 0.930 . S
H531 C540 0.929 . S
H532 C516 0.931 . S
H533 C517 0.931 . S
H534 C572 0.930 . S
H535 C513 0.929 . S
H536 C541 0.918 1_655 S
H537 C542 0.930 . S
N538 Gd518 2.622 . S
N538 C539 1.369 . S
N538 C540 1.338 . S
C539 N538 1.369 . S
C539 C543 1.415 1_455 S
C539 C546 1.422 . S
C540 H531 0.929 . S
C540 N538 1.338 . S
C540 C542 1.378 . S
C541 H536 0.918 1_455 S
C541 C542 1.365 . S
C541 C543 1.410 1_455 S
C542 H537 0.930 . S
C542 C540 1.378 . S
C542 C541 1.365 . S
C543 C539 1.415 1_655 S
C543 C541 1.410 1_655 S
C543 C573 1.437 . S
H544 C573 0.929 . S
N545 Gd518 2.570 . S
N545 C546 1.359 . S
N545 C549 1.343 . S
C546 C539 1.422 . S
C546 N545 1.359 . S
C546 C548 1.421 1_455 S
C547 C548 1.422 . S
C547 C550 1.321 . S
C547 H574 0.931 . S
C548 C546 1.421 1_655 S
C548 C547 1.422 . S
C548 C572 1.417 . S
C549 H526 0.931 . S
C549 N545 1.343 . S
C549 C550 1.390 1_455 S
C550 H528 0.930 . S
C550 C547 1.321 . S
C550 C549 1.390 1_655 S
O551 Gd519 2.386 1_455 S
O551 C563 1.265 . S
O552 Gd518 2.353 . S
O552 C563 1.242 . S
O553 Gd518 2.468 . S
O553 C571 1.263 . S
O554 Gd518 2.427 . S
O554 C571 1.252 . S
O555 Gd519 2.298 1_455 S
O555 C564 1.269 . S
O556 Gd518 2.388 . S
O556 C564 1.252 . S
O557 Gd518 2.386 1_655 S
O557 C575 1.265 . S
O558 Gd519 2.353 . S
O558 C575 1.242 . S
O559 Gd519 2.468 . S
O559 C583 1.263 . S
O560 Gd519 2.427 . S
O560 C583 1.252 . S
O561 Gd518 2.307 . S
O561 C576 1.261 . S
O562 Gd519 2.388 . S
O562 C576 1.252 1_655 S
C563 O551 1.265 . S
C563 O552 1.242 . S
C564 O555 1.269 . S
C564 O556 1.252 . S
C565 C568 1.394 . S
C565 C570 1.370 . S
C565 C571 1.500 . S
C566 C569 1.383 . S
C566 C570 1.395 . S
C567 C568 1.396 . S
C567 C569 1.365 . S
C567 H584 0.929 . S
C568 C565 1.394 . S
C568 C567 1.396 . S
C568 H585 0.930 . S
C569 C566 1.383 . S
C569 C567 1.365 . S
C569 H586 0.931 . S
C570 C565 1.370 . S
C570 C566 1.395 . S
C570 H587 0.930 . S
C571 Gd518 2.805 . S
C571 O553 1.263 . S
C571 O554 1.252 . S
C571 C565 1.500 . S
C572 H534 0.930 . S
C572 C548 1.417 . S
C572 C573 1.329 . S
C573 C543 1.437 . S
C573 H544 0.929 . S
C573 C572 1.329 . S
H574 C547 0.931 . S
C575 O557 1.265 . S
C575 O558 1.242 . S
C576 O561 1.261 . S
C576 O562 1.252 1_455 S
C577 C580 1.394 . S
C577 C582 1.370 . S
C577 C583 1.500 . S
C578 C581 1.383 . S
C578 C582 1.395 . S
C579 C580 1.396 . S
C579 C581 1.365 . S
C579 H588 0.929 . S
C580 C577 1.394 . S
C580 C579 1.396 . S
C580 H589 0.930 . S
C581 C578 1.383 . S
C581 C579 1.365 . S
C581 H590 0.931 . S
C582 C577 1.370 . S
C582 C578 1.395 . S
C582 H591 0.930 . S
C583 Gd519 2.805 . S
C583 O559 1.263 . S
C583 O560 1.252 . S
C583 C577 1.500 . S
H584 C567 0.929 . S
H585 C568 0.930 . S
H586 C569 0.931 . S
H587 C570 0.930 . S
H588 C579 0.929 . S
H589 C580 0.930 . S
H590 C581 0.931 . S
H591 C582 0.930 . S
H592 C600 0.929 . S
H593 C602 0.930 . S
H594 C604 0.930 . S
H595 C607 0.929 . S
H596 C610 0.930 . S
H597 C612 0.960 1_565 S
H598 C612 0.960 1_565 S
H599 C612 0.960 . S
C600 H592 0.929 . S
C600 C601 1.377 . S
C600 C602 1.384 . S
C601 C600 1.377 . S
C601 C607 1.390 . S
C602 H593 0.930 . S
C602 C600 1.384 . S
C602 C603 1.372 . S
C603 C602 1.372 . S
C603 C604 1.400 . S
C603 C608 1.490 . S
C604 H594 0.930 . S
C604 C603 1.400 . S
C604 C607 1.386 . S
H605 C621 0.930 . S
H606 C622 0.931 . S
C607 H595 0.929 . S
C607 C601 1.390 . S
C607 C604 1.386 . S
C608 C603 1.490 . S
C608 C610 1.395 . S
C608 C611 1.403 . S
H609 C615 0.930 . S
C610 H596 0.930 . S
C610 C608 1.395 . S
C610 C613 1.403 . S
C611 C608 1.403 . S
C611 C612 1.524 . S
C611 C615 1.400 . S
C612 H597 0.960 1_545 S
C612 H598 0.960 1_545 S
C612 H599 0.960 . S
C612 C611 1.524 . S
C613 C610 1.403 . S
C613 C614 1.392 . S
C613 C617 1.495 . S
C614 C613 1.392 . S
C614 C615 1.385 . S
C614 C616 1.478 . S
C615 H609 0.930 . S
C615 C611 1.400 . S
C615 C614 1.385 . S
C616 C614 1.478 . S
C616 C618 1.381 . S
C616 C622 1.383 . S
C617 C613 1.495 . S
C617 H623 0.959 . S
C617 H624 0.961 . S
C617 H625 0.960 . S
C618 C616 1.381 . S
C618 C619 1.394 . S
C618 H626 0.930 . S
C619 C618 1.394 . S
C619 C620 1.383 . S
C619 H627 0.929 . S
C620 C619 1.383 . S
C620 C621 1.377 . S
C621 H605 0.930 . S
C621 C620 1.377 . S
C621 C622 1.379 . S
C622 H606 0.931 . S
C622 C616 1.383 . S
C622 C621 1.379 . S
H623 C617 0.959 . S
H624 C617 0.961 . S
H625 C617 0.960 . S
H626 C618 0.930 . S
H627 C619 0.929 . S
H628 C636 0.929 . S
H629 C638 0.930 . S
H630 C640 0.930 . S
H631 C643 0.929 . S
H632 C646 0.930 . S
H633 C648 0.960 . S
H634 C648 0.960 . S
H635 C648 0.960 . S
C636 H628 0.929 . S
C636 C637 1.377 . S
C636 C638 1.384 . S
C637 C636 1.377 . S
C637 C643 1.390 . S
C638 H629 0.930 . S
C638 C636 1.384 . S
C638 C639 1.372 . S
C639 C638 1.372 . S
C639 C640 1.400 . S
C639 C644 1.490 . S
C640 H630 0.930 . S
C640 C639 1.400 . S
C640 C643 1.386 . S
H641 C657 0.930 . S
H642 C658 0.931 . S
C643 H631 0.929 . S
C643 C637 1.390 . S
C643 C640 1.386 . S
C644 C639 1.490 . S
C644 C646 1.395 . S
C644 C647 1.403 . S
H645 C651 0.930 . S
C646 H632 0.930 . S
C646 C644 1.395 . S
C646 C649 1.403 . S
C647 C644 1.403 . S
C647 C648 1.524 . S
C647 C651 1.400 . S
C648 H633 0.960 . S
C648 H634 0.960 . S
C648 H635 0.960 . S
C648 C647 1.524 . S
C649 C646 1.403 . S
C649 C650 1.392 . S
C649 C653 1.495 . S
C650 C649 1.392 . S
C650 C651 1.385 . S
C650 C652 1.478 . S
C651 H645 0.930 . S
C651 C647 1.400 . S
C651 C650 1.385 . S
C652 C650 1.478 . S
C652 C654 1.381 . S
C652 C658 1.383 . S
C653 C649 1.495 . S
C653 H659 0.959 . S
C653 H660 0.961 . S
C653 H661 0.960 . S
C654 C652 1.381 . S
C654 C655 1.394 . S
C654 H662 0.930 . S
C655 C654 1.394 . S
C655 C656 1.383 . S
C655 H663 0.929 . S
C656 C655 1.383 . S
C656 C657 1.377 . S
C657 H641 0.930 . S
C657 C656 1.377 . S
C657 C658 1.379 . S
C658 H642 0.931 . S
C658 C652 1.383 . S
C658 C657 1.379 . S
H659 C653 0.959 . S
H660 C653 0.961 . S
H661 C653 0.960 . S
H662 C654 0.930 . S
H663 C655 0.929 . S
H664 C672 0.929 . S
H665 C674 0.930 . S
H666 C676 0.930 . S
H667 C679 0.929 . S
H668 C682 0.930 . S
H669 C684 0.960 . S
H670 C684 0.960 . S
H671 C684 0.960 . S
C672 H664 0.929 . S
C672 C673 1.377 . S
C672 C674 1.384 . S
C673 C672 1.377 . S
C673 C679 1.390 . S
C674 H665 0.930 . S
C674 C672 1.384 . S
C674 C675 1.372 . S
C675 C674 1.372 . S
C675 C676 1.400 . S
C675 C680 1.490 . S
C676 H666 0.930 . S
C676 C675 1.400 . S
C676 C679 1.386 . S
H677 C693 0.930 . S
H678 C694 0.931 . S
C679 H667 0.929 . S
C679 C673 1.390 . S
C679 C676 1.386 . S
C680 C675 1.490 . S
C680 C682 1.395 . S
C680 C683 1.403 . S
H681 C687 0.930 . S
C682 H668 0.930 . S
C682 C680 1.395 . S
C682 C685 1.403 . S
C683 C680 1.403 . S
C683 C684 1.524 . S
C683 C687 1.400 . S
C684 H669 0.960 . S
C684 H670 0.960 . S
C684 H671 0.960 . S
C684 C683 1.524 . S
C685 C682 1.403 . S
C685 C686 1.392 . S
C685 C689 1.495 . S
C686 C685 1.392 . S
C686 C687 1.385 . S
C686 C688 1.478 . S
C687 H681 0.930 . S
C687 C683 1.400 . S
C687 C686 1.385 . S
C688 C686 1.478 . S
C688 C690 1.381 . S
C688 C694 1.383 . S
C689 C685 1.495 . S
C689 H695 0.959 . S
C689 H696 0.961 . S
C689 H697 0.960 . S
C690 C688 1.381 . S
C690 C691 1.394 . S
C690 H698 0.930 . S
C691 C690 1.394 . S
C691 C692 1.383 . S
C691 H699 0.929 . S
C692 C691 1.383 . S
C692 C693 1.377 . S
C693 H677 0.930 . S
C693 C692 1.377 . S
C693 C694 1.379 . S
C694 H678 0.931 . S
C694 C688 1.383 . S
C694 C693 1.379 . S
H695 C689 0.959 . S
H696 C689 0.961 . S
H697 C689 0.960 . S
H698 C690 0.930 . S
H699 C691 0.929 . S
H700 C708 0.929 . S
H701 C710 0.930 . S
H702 C712 0.930 . S
H703 C715 0.929 . S
H704 C718 0.930 . S
H705 C720 0.960 . S
H706 C720 0.960 . S
H707 C720 0.960 . S
C708 H700 0.929 . S
C708 C709 1.377 . S
C708 C710 1.384 . S
C709 C708 1.377 . S
C709 C715 1.390 . S
C710 H701 0.930 . S
C710 C708 1.384 . S
C710 C711 1.372 . S
C711 C710 1.372 . S
C711 C712 1.400 . S
C711 C716 1.490 . S
C712 H702 0.930 . S
C712 C711 1.400 . S
C712 C715 1.386 . S
H713 C729 0.922 1_655 S
H714 C730 0.931 1_655 S
C715 H703 0.929 . S
C715 C709 1.390 . S
C715 C712 1.386 . S
C716 C711 1.490 . S
C716 C718 1.395 . S
C716 C719 1.403 . S
H717 C723 0.930 . S
C718 H704 0.930 . S
C718 C716 1.395 . S
C718 C721 1.403 . S
C719 C716 1.403 . S
C719 C720 1.524 . S
C719 C723 1.400 . S
C720 H705 0.960 . S
C720 H706 0.960 . S
C720 H707 0.960 . S
C720 C719 1.524 . S
C721 C718 1.403 . S
C721 C722 1.392 . S
C721 C725 1.495 . S
C722 C721 1.392 . S
C722 C723 1.385 . S
C722 C724 1.478 . S
C723 H717 0.930 . S
C723 C719 1.400 . S
C723 C722 1.385 . S
C724 C722 1.478 . S
C724 C726 1.381 . S
C724 C730 1.383 . S
C725 C721 1.495 . S
C725 H731 0.959 . S
C725 H732 0.961 . S
C725 H733 0.960 . S
C726 C724 1.381 . S
C726 C727 1.394 . S
C726 H734 0.930 . S
C727 C726 1.394 . S
C727 C728 1.383 . S
C727 H735 0.929 . S
C728 C727 1.383 . S
C728 C729 1.383 . S
C729 H713 0.922 1_455 S
C729 C728 1.383 . S
C729 C730 1.381 . S
C730 H714 0.931 1_455 S
C730 C724 1.383 . S
C730 C729 1.381 . S
H731 C725 0.959 . S
H732 C725 0.961 . S
H733 C725 0.960 . S
H734 C726 0.930 . S
H735 C727 0.929 . S
H736 C744 0.929 . S
H737 C746 0.930 . S
H738 C748 0.930 1_556 S
H739 C751 0.929 . S
H740 C754 0.930 . S
H741 C756 0.960 . S
H742 C756 0.960 . S
H743 C756 0.960 . S
C744 H736 0.929 . S
C744 C745 1.377 . S
C744 C746 1.384 . S
C745 C744 1.377 . S
C745 C751 1.390 . S
C746 H737 0.930 . S
C746 C744 1.384 . S
C746 C747 1.372 . S
C747 C746 1.372 . S
C747 C748 1.400 . S
C747 C752 1.490 1_554 S
C748 H738 0.930 1_554 S
C748 C747 1.400 . S
C748 C751 1.386 . S
H749 C765 0.930 . S
H750 C766 0.931 . S
C751 H739 0.929 . S
C751 C745 1.390 . S
C751 C748 1.386 . S
C752 C747 1.490 1_556 S
C752 C754 1.395 . S
C752 C755 1.403 . S
H753 C759 0.930 1_545 S
C754 H740 0.930 . S
C754 C752 1.395 . S
C754 C757 1.403 . S
C755 C752 1.403 . S
C755 C756 1.524 1_565 S
C755 C759 1.400 . S
C756 H741 0.960 . S
C756 H742 0.960 . S
C756 H743 0.960 . S
C756 C755 1.524 1_545 S
C757 C754 1.403 . S
C757 C758 1.392 . S
C757 C761 1.495 . S
C758 C757 1.392 . S
C758 C759 1.385 . S
C758 C760 1.478 . S
C759 H753 0.930 1_565 S
C759 C755 1.400 . S
C759 C758 1.385 . S
C760 C758 1.478 . S
C760 C762 1.381 . S
C760 C766 1.383 . S
C761 C757 1.495 . S
C761 H767 0.959 . S
C761 H768 0.961 . S
C761 H769 0.960 . S
C762 C760 1.381 . S
C762 C763 1.394 . S
C762 H770 0.930 . S
C763 C762 1.394 . S
C763 C764 1.383 . S
C763 H771 0.929 1_565 S
C764 C763 1.383 . S
C764 C765 1.377 . S
C765 H749 0.930 . S
C765 C764 1.377 . S
C765 C766 1.379 . S
C766 H750 0.931 . S
C766 C760 1.383 . S
C766 C765 1.379 . S
H767 C761 0.959 . S
H768 C761 0.961 . S
H769 C761 0.960 . S
H770 C762 0.930 . S
H771 C763 0.929 1_545 S
H772 C780 0.929 . S
H773 C782 0.930 1_556 S
H774 C784 0.930 . S
H775 C787 0.929 . S
H776 C790 0.930 . S
H777 C792 0.960 . S
H778 C792 0.960 . S
H779 C792 0.960 . S
C780 H772 0.929 . S
C780 C781 1.377 . S
C780 C782 1.384 . S
C781 C780 1.377 . S
C781 C787 1.390 . S
C782 H773 0.930 1_554 S
C782 C780 1.384 . S
C782 C783 1.372 . S
C783 C782 1.372 . S
C783 C784 1.400 . S
C783 C788 1.490 1_554 S
C784 H774 0.930 . S
C784 C783 1.400 . S
C784 C787 1.386 . S
H785 C801 0.930 . S
H786 C802 0.931 . S
C787 H775 0.929 . S
C787 C781 1.390 . S
C787 C784 1.386 . S
C788 C783 1.490 1_556 S
C788 C790 1.395 . S
C788 C791 1.403 . S
H789 C795 0.930 . S
C790 H776 0.930 . S
C790 C788 1.395 . S
C790 C793 1.403 . S
C791 C788 1.403 . S
C791 C792 1.524 1_556 S
C791 C795 1.400 . S
C792 H777 0.960 . S
C792 H778 0.960 . S
C792 H779 0.960 . S
C792 C791 1.524 1_554 S
C793 C790 1.403 . S
C793 C794 1.392 . S
C793 C797 1.495 . S
C794 C793 1.392 . S
C794 C795 1.385 . S
C794 C796 1.478 . S
C795 H789 0.930 . S
C795 C791 1.400 . S
C795 C794 1.385 . S
C796 C794 1.478 . S
C796 C798 1.381 . S
C796 C802 1.383 . S
C797 C793 1.495 . S
C797 H803 0.959 . S
C797 H804 0.961 . S
C797 H805 0.960 . S
C798 C796 1.381 . S
C798 C799 1.394 . S
C798 H806 0.930 . S
C799 C798 1.394 . S
C799 C800 1.383 . S
C799 H807 0.929 . S
C800 C799 1.383 . S
C800 C801 1.377 . S
C801 H785 0.930 . S
C801 C800 1.377 . S
C801 C802 1.379 . S
C802 H786 0.931 . S
C802 C796 1.383 . S
C802 C801 1.379 . S
H803 C797 0.959 . S
H804 C797 0.961 . S
H805 C797 0.960 . S
H806 C798 0.930 . S
H807 C799 0.929 . S
H808 C816 0.929 . S
H809 C818 0.930 . S
H810 C820 0.930 . S
H811 C823 0.929 . S
H812 C826 0.930 . S
H813 C828 0.960 . S
H814 C828 0.960 . S
H815 C828 0.960 . S
C816 H808 0.929 . S
C816 C817 1.377 . S
C816 C818 1.384 . S
C817 C816 1.377 . S
C817 C823 1.390 . S
C818 H809 0.930 . S
C818 C816 1.384 . S
C818 C819 1.372 . S
C819 C818 1.372 . S
C819 C820 1.400 . S
C819 C824 1.490 1_554 S
C820 H810 0.930 . S
C820 C819 1.400 . S
C820 C823 1.386 . S
H821 C837 0.930 . S
H822 C838 0.931 . S
C823 H811 0.929 . S
C823 C817 1.390 . S
C823 C820 1.386 . S
C824 C819 1.490 1_556 S
C824 C826 1.395 . S
C824 C827 1.403 . S
H825 C831 0.930 . S
C826 H812 0.930 . S
C826 C824 1.395 . S
C826 C829 1.403 . S
C827 C824 1.403 . S
C827 C828 1.524 . S
C827 C831 1.400 . S
C828 H813 0.960 . S
C828 H814 0.960 . S
C828 H815 0.960 . S
C828 C827 1.524 . S
C829 C826 1.403 . S
C829 C830 1.392 . S
C829 C833 1.495 . S
C830 C829 1.392 . S
C830 C831 1.385 . S
C830 C832 1.478 . S
C831 H825 0.930 . S
C831 C827 1.400 . S
C831 C830 1.385 . S
C832 C830 1.478 . S
C832 C834 1.381 . S
C832 C838 1.383 . S
C833 C829 1.495 . S
C833 H839 0.959 . S
C833 H840 0.961 . S
C833 H841 0.960 . S
C834 C832 1.381 . S
C834 C835 1.394 . S
C834 H842 0.930 . S
C835 C834 1.394 . S
C835 C836 1.383 . S
C835 H843 0.929 . S
C836 C835 1.383 . S
C836 C837 1.377 . S
C837 H821 0.930 . S
C837 C836 1.377 . S
C837 C838 1.379 . S
C838 H822 0.931 . S
C838 C832 1.383 . S
C838 C837 1.379 . S
H839 C833 0.959 . S
H840 C833 0.961 . S
H841 C833 0.960 . S
H842 C834 0.930 . S
H843 C835 0.929 . S
H844 C852 0.929 . S
H845 C854 0.930 1_556 S
H846 C856 0.930 . S
H847 C859 0.929 . S
H848 C862 0.940 . S
H849 C864 0.960 . S
H850 C864 0.960 . S
H851 C864 0.960 . S
C852 H844 0.929 . S
C852 C853 1.377 . S
C852 C854 1.384 . S
C853 C852 1.377 . S
C853 C859 1.390 . S
C854 H845 0.930 1_554 S
C854 C852 1.384 . S
C854 C855 1.372 . S
C855 C854 1.372 . S
C855 C856 1.400 . S
C855 C860 1.490 1_554 S
C856 H846 0.930 . S
C856 C855 1.400 . S
C856 C859 1.386 . S
H857 C873 0.930 . S
H858 C874 0.931 . S
C859 H847 0.929 . S
C859 C853 1.390 . S
C859 C856 1.386 . S
C860 C855 1.490 1_556 S
C860 C862 1.382 1_655 S
C860 C863 1.403 . S
H861 C867 0.930 . S
C862 H848 0.940 . S
C862 C860 1.382 1_455 S
C862 C865 1.407 . S
C863 C860 1.403 . S
C863 C864 1.524 . S
C863 C867 1.400 . S
C864 H849 0.960 . S
C864 H850 0.960 . S
C864 H851 0.960 . S
C864 C863 1.524 . S
C865 C862 1.407 . S
C865 C866 1.392 1_455 S
C865 C869 1.495 . S
C866 C865 1.392 1_655 S
C866 C867 1.385 . S
C866 C868 1.478 . S
C867 H861 0.930 . S
C867 C863 1.400 . S
C867 C866 1.385 . S
C868 C866 1.478 . S
C868 C870 1.381 1_655 S
C868 C874 1.383 . S
C869 C865 1.495 . S
C869 H875 0.959 . S
C869 H876 0.961 . S
C869 H877 0.960 . S
C870 C868 1.381 1_455 S
C870 C871 1.394 . S
C870 H878 0.930 . S
C871 C870 1.394 . S
C871 C872 1.383 1_455 S
C871 H879 0.929 . S
C872 C871 1.383 1_655 S
C872 C873 1.377 . S
C873 H857 0.930 . S
C873 C872 1.377 . S
C873 C874 1.379 . S
C874 H858 0.931 . S
C874 C868 1.383 . S
C874 C873 1.379 . S
H875 C869 0.959 . S
H876 C869 0.961 . S
H877 C869 0.960 . S
H878 C870 0.930 . S
H879 C871 0.929 . S
H880 C888 0.929 . S
H881 C890 0.930 . S
H882 C892 0.930 . S
H883 C895 0.929 . S
H884 C898 0.930 . S
H885 C900 0.960 . S
H886 C900 0.958 1_455 S
H887 C900 0.960 . S
C888 H880 0.929 . S
C888 C889 1.377 . S
C888 C890 1.384 . S
C889 C888 1.377 . S
C889 C895 1.390 . S
C890 H881 0.930 . S
C890 C888 1.384 . S
C890 C891 1.372 . S
C891 C890 1.372 . S
C891 C892 1.400 . S
C891 C896 1.490 . S
C892 H882 0.930 . S
C892 C891 1.400 . S
C892 C895 1.386 . S
H893 C909 0.930 . S
H894 C910 0.916 1_655 S
C895 H883 0.929 . S
C895 C889 1.390 . S
C895 C892 1.386 . S
C896 C891 1.490 . S
C896 C898 1.395 . S
C896 C899 1.403 . S
H897 C903 0.930 1_655 S
C898 H884 0.930 . S
C898 C896 1.395 . S
C898 C901 1.403 . S
C899 C896 1.403 . S
C899 C900 1.524 1_455 S
C899 C903 1.400 . S
C900 H885 0.960 . S
C900 H886 0.958 1_655 S
C900 H887 0.960 . S
C900 C899 1.524 1_655 S
C901 C898 1.403 . S
C901 C902 1.392 . S
C901 C905 1.495 . S
C902 C901 1.392 . S
C902 C903 1.385 . S
C902 C904 1.478 . S
C903 H897 0.930 1_455 S
C903 C899 1.400 . S
C903 C902 1.385 . S
C904 C902 1.478 . S
C904 C906 1.381 . S
C904 C910 1.383 . S
C905 C901 1.495 . S
C905 H911 0.959 . S
C905 H912 0.961 . S
C905 H913 0.960 . S
C906 C904 1.381 . S
C906 C907 1.394 . S
C906 H914 0.930 . S
C907 C906 1.394 . S
C907 C908 1.383 . S
C907 H915 0.929 . S
C908 C907 1.383 . S
C908 C909 1.377 1_455 S
C909 H893 0.930 . S
C909 C908 1.377 1_655 S
C909 C910 1.379 1_655 S
C910 H894 0.916 1_455 S
C910 C904 1.383 . S
C910 C909 1.379 1_455 S
H911 C905 0.959 . S
H912 C905 0.961 . S
H913 C905 0.960 . S
H914 C906 0.930 . S
H915 C907 0.929 . S
H916 C924 0.929 . S
H917 C926 0.930 . S
H918 C928 0.930 . S
H919 C931 0.929 . S
H920 C934 0.930 . S
H921 C936 0.960 . S
H922 C936 0.960 . S
H923 C936 0.960 . S
C924 H916 0.929 . S
C924 C925 1.377 . S
C924 C926 1.384 . S
C925 C924 1.377 . S
C925 C931 1.390 . S
C926 H917 0.930 . S
C926 C924 1.384 . S
C926 C927 1.372 . S
C927 C926 1.372 . S
C927 C928 1.400 . S
C927 C932 1.490 . S
C928 H918 0.930 . S
C928 C927 1.400 . S
C928 C931 1.386 . S
H929 C945 0.930 . S
H930 C946 0.931 . S
C931 H919 0.929 . S
C931 C925 1.390 . S
C931 C928 1.386 . S
C932 C927 1.490 . S
C932 C934 1.395 . S
C932 C935 1.403 . S
H933 C939 0.930 . S
C934 H920 0.930 . S
C934 C932 1.395 . S
C934 C937 1.403 . S
C935 C932 1.403 . S
C935 C936 1.524 . S
C935 C939 1.400 . S
C936 H921 0.960 . S
C936 H922 0.960 . S
C936 H923 0.960 . S
C936 C935 1.524 . S
C937 C934 1.403 . S
C937 C938 1.392 . S
C937 C941 1.495 1_545 S
C938 C937 1.392 . S
C938 C939 1.385 . S
C938 C940 1.478 . S
C939 H933 0.930 . S
C939 C935 1.400 . S
C939 C938 1.385 . S
C940 C938 1.478 . S
C940 C942 1.381 1_545 S
C940 C946 1.383 . S
C941 C937 1.495 1_565 S
C941 H947 0.959 . S
C941 H948 0.961 . S
C941 H949 0.960 . S
C942 C940 1.381 1_565 S
C942 C943 1.394 . S
C942 H950 0.930 . S
C943 C942 1.394 . S
C943 C944 1.383 1_565 S
C943 H951 0.929 . S
C944 C943 1.383 1_545 S
C944 C945 1.377 . S
C945 H929 0.930 . S
C945 C944 1.377 . S
C945 C946 1.379 . S
C946 H930 0.931 . S
C946 C940 1.383 . S
C946 C945 1.379 . S
H947 C941 0.959 . S
H948 C941 0.961 . S
H949 C941 0.960 . S
H950 C942 0.930 . S
H951 C943 0.929 . S
H952 C960 0.929 . S
H953 C962 0.930 . S
H954 C964 0.930 . S
H955 C967 0.929 . S
H956 C970 0.930 . S
H957 C972 0.960 . S
H958 C972 0.960 . S
H959 C972 0.960 . S
C960 H952 0.929 . S
C960 C961 1.377 . S
C960 C962 1.384 . S
C961 C960 1.377 . S
C961 C967 1.390 . S
C962 H953 0.930 . S
C962 C960 1.384 . S
C962 C963 1.372 . S
C963 C962 1.372 . S
C963 C964 1.400 . S
C963 C968 1.490 . S
C964 H954 0.930 . S
C964 C963 1.400 . S
C964 C967 1.386 . S
H965 C981 0.930 . S
H966 C982 0.931 . S
C967 H955 0.929 . S
C967 C961 1.390 . S
C967 C964 1.386 . S
C968 C963 1.490 . S
C968 C970 1.395 . S
C968 C971 1.403 . S
H969 C975 0.930 . S
C970 H956 0.930 . S
C970 C968 1.395 . S
C970 C973 1.403 . S
C971 C968 1.403 . S
C971 C972 1.524 . S
C971 C975 1.400 . S
C972 H957 0.960 . S
C972 H958 0.960 . S
C972 H959 0.960 . S
C972 C971 1.524 . S
C973 C970 1.403 . S
C973 C974 1.392 . S
C973 C977 1.495 . S
C974 C973 1.392 . S
C974 C975 1.385 . S
C974 C976 1.478 . S
C975 H969 0.930 . S
C975 C971 1.400 . S
C975 C974 1.385 . S
C976 C974 1.478 . S
C976 C978 1.381 . S
C976 C982 1.383 . S
C977 C973 1.495 . S
C977 H983 0.959 . S
C977 H984 0.961 . S
C977 H985 0.960 . S
C978 C976 1.381 . S
C978 C979 1.394 . S
C978 H986 0.930 . S
C979 C978 1.394 . S
C979 C980 1.383 . S
C979 H987 0.929 . S
C980 C979 1.383 . S
C980 C981 1.377 . S
C981 H965 0.930 . S
C981 C980 1.377 . S
C981 C982 1.379 . S
C982 H966 0.931 . S
C982 C976 1.383 . S
C982 C981 1.379 . S
H983 C977 0.959 . S
H984 C977 0.961 . S
H985 C977 0.960 . S
H986 C978 0.930 . S
H987 C979 0.929 . S
H988 C996 0.929 . S
H989 C998 0.930 . S
H990 C1000 0.930 . S
H991 C1003 0.929 . S
H992 C1006 0.930 . S
H993 C1008 0.960 . S
H994 C1008 0.960 . S
H995 C1008 0.960 . S
C996 H988 0.929 . S
C996 C997 1.377 . S
C996 C998 1.384 . S
C997 C996 1.377 . S
C997 C1003 1.390 . S
C998 H989 0.930 . S
C998 C996 1.384 . S
C998 C999 1.372 . S
C999 C998 1.372 . S
C999 C1000 1.400 . S
C999 C1004 1.490 . S
C1000 H990 0.930 . S
C1000 C999 1.400 . S
C1000 C1003 1.386 . S
H1001 C1017 0.930 . S
H1002 C1018 0.931 . S
C1003 H991 0.929 . S
C1003 C997 1.390 . S
C1003 C1000 1.386 . S
C1004 C999 1.490 . S
C1004 C1006 1.395 . S
C1004 C1007 1.403 . S
H1005 C1011 0.930 . S
C1006 H992 0.930 . S
C1006 C1004 1.395 . S
C1006 C1009 1.403 . S
C1007 C1004 1.403 . S
C1007 C1008 1.524 . S
C1007 C1011 1.400 . S
C1008 H993 0.960 . S
C1008 H994 0.960 . S
C1008 H995 0.960 . S
C1008 C1007 1.524 . S
C1009 C1006 1.403 . S
C1009 C1010 1.392 . S
C1009 C1013 1.495 . S
C1010 C1009 1.392 . S
C1010 C1011 1.385 . S
C1010 C1012 1.478 . S
C1011 H1005 0.930 . S
C1011 C1007 1.400 . S
C1011 C1010 1.385 . S
C1012 C1010 1.478 . S
C1012 C1014 1.381 . S
C1012 C1018 1.383 . S
C1013 C1009 1.495 . S
C1013 H1019 0.959 . S
C1013 H1020 0.961 . S
C1013 H1021 0.960 . S
C1014 C1012 1.381 . S
C1014 C1015 1.394 . S
C1014 H1022 0.930 . S
C1015 C1014 1.394 . S
C1015 C1016 1.383 . S
C1015 H1023 0.929 . S
C1016 C1015 1.383 . S
C1016 C1017 1.377 . S
C1017 H1001 0.930 . S
C1017 C1016 1.377 . S
C1017 C1018 1.379 . S
C1018 H1002 0.931 . S
C1018 C1012 1.383 . S
C1018 C1017 1.379 . S
H1019 C1013 0.959 . S
H1020 C1013 0.961 . S
H1021 C1013 0.960 . S
H1022 C1014 0.930 . S
H1023 C1015 0.929 . S
H1024 C1032 0.929 . S
H1025 C1034 0.930 . S
H1026 C1036 0.930 . S
H1027 C1039 0.929 1_556 S
H1028 C1042 0.930 . S
H1029 C1044 0.960 . S
H1030 C1044 0.960 . S
H1031 C1044 0.960 . S
C1032 H1024 0.929 . S
C1032 C1033 1.377 . S
C1032 C1034 1.384 . S
C1033 C1032 1.377 . S
C1033 C1039 1.390 . S
C1034 H1025 0.930 . S
C1034 C1032 1.384 . S
C1034 C1035 1.368 1_554 S
C1035 C1034 1.368 1_556 S
C1035 C1036 1.401 . S
C1035 C1040 1.492 . S
C1036 H1026 0.930 . S
C1036 C1035 1.401 . S
C1036 C1039 1.386 1_556 S
H1037 C1053 0.929 1_655 S
H1038 C1054 0.931 . S
C1039 H1027 0.929 1_554 S
C1039 C1033 1.390 . S
C1039 C1036 1.386 1_554 S
C1040 C1035 1.492 . S
C1040 C1042 1.395 1_655 S
C1040 C1043 1.403 . S
H1041 C1047 0.930 . S
C1042 H1028 0.930 . S
C1042 C1040 1.395 1_455 S
C1042 C1045 1.403 . S
C1043 C1040 1.403 . S
C1043 C1044 1.524 . S
C1043 C1047 1.400 . S
C1044 H1029 0.960 . S
C1044 H1030 0.960 . S
C1044 H1031 0.960 . S
C1044 C1043 1.524 . S
C1045 C1042 1.403 . S
C1045 C1046 1.392 1_455 S
C1045 C1049 1.495 . S
C1046 C1045 1.392 1_655 S
C1046 C1047 1.385 . S
C1046 C1048 1.478 1_655 S
C1047 H1041 0.930 . S
C1047 C1043 1.400 . S
C1047 C1046 1.385 . S
C1048 C1046 1.478 1_455 S
C1048 C1050 1.381 . S
C1048 C1054 1.383 1_455 S
C1049 C1045 1.495 . S
C1049 H1055 0.959 . S
C1049 H1056 0.961 . S
C1049 H1057 0.960 . S
C1050 C1048 1.381 . S
C1050 C1051 1.394 . S
C1050 H1058 0.930 . S
C1051 C1050 1.394 . S
C1051 C1052 1.383 . S
C1051 H1059 0.929 . S
C1052 C1051 1.383 . S
C1052 C1053 1.378 . S
C1053 H1037 0.929 1_455 S
C1053 C1052 1.378 . S
C1053 C1054 1.379 1_455 S
C1054 H1038 0.931 . S
C1054 C1048 1.383 1_655 S
C1054 C1053 1.379 1_655 S
H1055 C1049 0.959 . S
H1056 C1049 0.961 . S
H1057 C1049 0.960 . S
H1058 C1050 0.930 . S
H1059 C1051 0.929 . S
H1060 C1068 0.929 . S
H1061 C1070 0.930 . S
H1062 C1072 0.930 . S
H1063 C1075 0.929 1_556 S
H1064 C1078 0.930 1_544 S
H1065 C1080 0.960 . S
H1066 C1080 0.960 . S
H1067 C1080 0.960 . S
C1068 H1060 0.929 . S
C1068 C1069 1.377 . S
C1068 C1070 1.384 . S
C1069 C1068 1.377 . S
C1069 C1075 1.390 . S
C1070 H1061 0.930 . S
C1070 C1068 1.384 . S
C1070 C1071 1.372 . S
C1071 C1070 1.372 . S
C1071 C1072 1.400 1_554 S
C1071 C1076 1.490 1_554 S
C1072 H1062 0.930 . S
C1072 C1071 1.400 1_556 S
C1072 C1075 1.386 1_556 S
H1073 C1089 0.930 . S
H1074 C1090 0.926 1_565 S
C1075 H1063 0.929 1_554 S
C1075 C1069 1.390 . S
C1075 C1072 1.386 1_554 S
C1076 C1071 1.490 1_556 S
C1076 C1078 1.395 . S
C1076 C1079 1.403 . S
H1077 C1083 0.930 . S
C1078 H1064 0.930 1_566 S
C1078 C1076 1.395 . S
C1078 C1081 1.403 1_565 S
C1079 C1076 1.403 . S
C1079 C1080 1.524 . S
C1079 C1083 1.400 . S
C1080 H1065 0.960 . S
C1080 H1066 0.960 . S
C1080 H1067 0.960 . S
C1080 C1079 1.524 . S
C1081 C1078 1.403 1_545 S
C1081 C1082 1.392 1_545 S
C1081 C1085 1.495 . S
C1082 C1081 1.392 1_565 S
C1082 C1083 1.385 . S
C1082 C1084 1.476 1_565 S
C1083 H1077 0.930 . S
C1083 C1079 1.400 . S
C1083 C1082 1.385 . S
C1084 C1082 1.476 1_545 S
C1084 C1086 1.382 . S
C1084 C1090 1.383 . S
C1085 C1081 1.495 . S
C1085 H1091 0.959 . S
C1085 H1092 0.961 . S
C1085 H1093 0.960 . S
C1086 C1084 1.382 . S
C1086 C1087 1.394 . S
C1086 H1094 0.930 . S
C1087 C1086 1.394 . S
C1087 C1088 1.383 . S
C1087 H1095 0.929 . S
C1088 C1087 1.383 . S
C1088 C1089 1.377 . S
C1089 H1073 0.930 . S
C1089 C1088 1.377 . S
C1089 C1090 1.379 . S
C1090 H1074 0.926 1_545 S
C1090 C1084 1.383 . S
C1090 C1089 1.379 . S
H1091 C1085 0.959 . S
H1092 C1085 0.961 . S
H1093 C1085 0.960 . S
H1094 C1086 0.930 . S
H1095 C1087 0.929 . S
H1096 C1104 0.929 . S
H1097 C1106 0.930 . S
H1098 C1108 0.930 . S
H1099 C1111 0.929 . S
H1100 C1114 0.930 . S
H1101 C1116 0.960 . S
H1102 C1116 0.960 . S
H1103 C1116 0.960 . S
C1104 H1096 0.929 . S
C1104 C1105 1.377 . S
C1104 C1106 1.384 1_554 S
C1105 C1104 1.377 . S
C1105 C1111 1.390 . S
C1106 H1097 0.930 . S
C1106 C1104 1.384 1_556 S
C1106 C1107 1.372 . S
C1107 C1106 1.372 . S
C1107 C1108 1.400 1_556 S
C1107 C1112 1.490 . S
C1108 H1098 0.930 . S
C1108 C1107 1.400 1_554 S
C1108 C1111 1.386 . S
H1109 C1125 0.930 . S
H1110 C1126 0.931 . S
C1111 H1099 0.929 . S
C1111 C1105 1.390 . S
C1111 C1108 1.386 . S
C1112 C1107 1.490 . S
C1112 C1114 1.395 . S
C1112 C1115 1.403 . S
H1113 C1119 0.930 . S
C1114 H1100 0.930 . S
C1114 C1112 1.395 . S
C1114 C1117 1.403 . S
C1115 C1112 1.403 . S
C1115 C1116 1.524 . S
C1115 C1119 1.400 . S
C1116 H1101 0.960 . S
C1116 H1102 0.960 . S
C1116 H1103 0.960 . S
C1116 C1115 1.524 . S
C1117 C1114 1.403 . S
C1117 C1118 1.392 . S
C1117 C1121 1.495 . S
C1118 C1117 1.392 . S
C1118 C1119 1.385 . S
C1118 C1120 1.478 . S
C1119 H1113 0.930 . S
C1119 C1115 1.400 . S
C1119 C1118 1.385 . S
C1120 C1118 1.478 . S
C1120 C1122 1.381 . S
C1120 C1126 1.383 . S
C1121 C1117 1.495 . S
C1121 H1127 0.959 . S
C1121 H1128 0.961 . S
C1121 H1129 0.960 . S
C1122 C1120 1.381 . S
C1122 C1123 1.394 . S
C1122 H1130 0.930 . S
C1123 C1122 1.394 . S
C1123 C1124 1.383 . S
C1123 H1131 0.929 . S
C1124 C1123 1.383 . S
C1124 C1125 1.377 . S
C1125 H1109 0.930 . S
C1125 C1124 1.377 . S
C1125 C1126 1.379 . S
C1126 H1110 0.931 . S
C1126 C1120 1.383 . S
C1126 C1125 1.379 . S
H1127 C1121 0.959 . S
H1128 C1121 0.961 . S
H1129 C1121 0.960 . S
H1130 C1122 0.930 . S
H1131 C1123 0.929 . S
H1132 C1140 0.929 . S
H1133 C1142 0.930 1_556 S
H1134 C1144 0.930 . S
H1135 C1147 0.929 . S
H1136 C1150 0.930 1_554 S
H1137 C1152 0.960 . S
H1138 C1152 0.960 . S
H1139 C1152 0.960 . S
C1140 H1132 0.929 . S
C1140 C1141 1.377 . S
C1140 C1142 1.384 . S
C1141 C1140 1.377 . S
C1141 C1147 1.390 . S
C1142 H1133 0.930 1_554 S
C1142 C1140 1.384 . S
C1142 C1143 1.372 1_554 S
C1143 C1142 1.372 1_556 S
C1143 C1144 1.400 1_556 S
C1143 C1148 1.490 . S
C1144 H1134 0.930 . S
C1144 C1143 1.400 1_554 S
C1144 C1147 1.386 . S
H1145 C1161 0.930 . S
H1146 C1162 0.931 . S
C1147 H1135 0.929 . S
C1147 C1141 1.390 . S
C1147 C1144 1.386 . S
C1148 C1143 1.490 . S
C1148 C1150 1.395 . S
C1148 C1151 1.403 . S
H1149 C1155 0.930 . S
C1150 H1136 0.930 1_556 S
C1150 C1148 1.395 . S
C1150 C1153 1.403 . S
C1151 C1148 1.403 . S
C1151 C1152 1.524 . S
C1151 C1155 1.400 . S
C1152 H1137 0.960 . S
C1152 H1138 0.960 . S
C1152 H1139 0.960 . S
C1152 C1151 1.524 . S
C1153 C1150 1.403 . S
C1153 C1154 1.392 . S
C1153 C1157 1.495 . S
C1154 C1153 1.392 . S
C1154 C1155 1.385 . S
C1154 C1156 1.478 . S
C1155 H1149 0.930 . S
C1155 C1151 1.400 . S
C1155 C1154 1.385 . S
C1156 C1154 1.478 . S
C1156 C1158 1.381 . S
C1156 C1162 1.383 . S
C1157 C1153 1.495 . S
C1157 H1163 0.959 1_556 S
C1157 H1164 0.961 . S
C1157 H1165 0.960 . S
C1158 C1156 1.381 . S
C1158 C1159 1.394 . S
C1158 H1166 0.930 . S
C1159 C1158 1.394 . S
C1159 C1160 1.383 . S
C1159 H1167 0.929 . S
C1160 C1159 1.383 . S
C1160 C1161 1.377 . S
C1161 H1145 0.930 . S
C1161 C1160 1.377 . S
C1161 C1162 1.379 . S
C1162 H1146 0.931 . S
C1162 C1156 1.383 . S
C1162 C1161 1.379 . S
H1163 C1157 0.959 1_554 S
H1164 C1157 0.961 . S
H1165 C1157 0.960 . S
H1166 C1158 0.930 . S
H1167 C1159 0.929 . S
H1168 C1176 0.929 . S
H1169 C1178 0.930 . S
H1170 C1180 0.930 . S
H1171 C1183 0.929 . S
H1172 C1186 0.930 . S
H1173 C1188 0.960 . S
H1174 C1188 0.960 . S
H1175 C1188 0.960 . S
C1176 H1168 0.929 . S
C1176 C1177 1.377 . S
C1176 C1178 1.384 . S
C1177 C1176 1.377 . S
C1177 C1183 1.390 . S
C1178 H1169 0.930 . S
C1178 C1176 1.384 . S
C1178 C1179 1.372 . S
C1179 C1178 1.372 . S
C1179 C1180 1.400 . S
C1179 C1184 1.490 . S
C1180 H1170 0.930 . S
C1180 C1179 1.400 . S
C1180 C1183 1.386 . S
H1181 C1197 0.930 . S
H1182 C1198 0.931 . S
C1183 H1171 0.929 . S
C1183 C1177 1.390 . S
C1183 C1180 1.386 . S
C1184 C1179 1.490 . S
C1184 C1186 1.395 . S
C1184 C1187 1.403 . S
H1185 C1191 0.930 . S
C1186 H1172 0.930 . S
C1186 C1184 1.395 . S
C1186 C1189 1.403 . S
C1187 C1184 1.403 . S
C1187 C1188 1.524 . S
C1187 C1191 1.400 . S
C1188 H1173 0.960 . S
C1188 H1174 0.960 . S
C1188 H1175 0.960 . S
C1188 C1187 1.524 . S
C1189 C1186 1.403 . S
C1189 C1190 1.392 . S
C1189 C1193 1.495 1_455 S
C1190 C1189 1.392 . S
C1190 C1191 1.385 . S
C1190 C1192 1.478 . S
C1191 H1185 0.930 . S
C1191 C1187 1.400 . S
C1191 C1190 1.385 . S
C1192 C1190 1.478 . S
C1192 C1194 1.381 . S
C1192 C1198 1.383 . S
C1193 C1189 1.495 1_655 S
C1193 H1199 0.959 . S
C1193 H1200 0.961 . S
C1193 H1201 0.960 . S
C1194 C1192 1.381 . S
C1194 C1195 1.394 . S
C1194 H1202 0.930 . S
C1195 C1194 1.394 . S
C1195 C1196 1.383 . S
C1195 H1203 0.929 . S
C1196 C1195 1.383 . S
C1196 C1197 1.377 . S
C1197 H1181 0.930 . S
C1197 C1196 1.377 . S
C1197 C1198 1.379 . S
C1198 H1182 0.931 . S
C1198 C1192 1.383 . S
C1198 C1197 1.379 . S
H1199 C1193 0.959 . S
H1200 C1193 0.961 . S
H1201 C1193 0.960 . S
H1202 C1194 0.930 . S
H1203 C1195 0.929 . S
H1204 C1212 0.929 . S
H1205 C1214 0.930 . S
H1206 C1216 0.930 . S
H1207 C1219 0.929 . S
H1208 C1222 0.930 . S
H1209 C1224 0.960 . S
H1210 C1224 0.960 . S
H1211 C1224 0.960 . S
C1212 H1204 0.929 . S
C1212 C1213 1.377 . S
C1212 C1214 1.384 . S
C1213 C1212 1.377 . S
C1213 C1219 1.390 . S
C1214 H1205 0.930 . S
C1214 C1212 1.384 . S
C1214 C1215 1.372 . S
C1215 C1214 1.372 . S
C1215 C1216 1.400 . S
C1215 C1220 1.490 . S
C1216 H1206 0.930 . S
C1216 C1215 1.400 . S
C1216 C1219 1.386 . S
H1217 C1233 0.930 . S
H1218 C1234 0.931 . S
C1219 H1207 0.929 . S
C1219 C1213 1.390 . S
C1219 C1216 1.386 . S
C1220 C1215 1.490 . S
C1220 C1222 1.395 . S
C1220 C1223 1.403 . S
H1221 C1227 0.930 . S
C1222 H1208 0.930 . S
C1222 C1220 1.395 . S
C1222 C1225 1.403 . S
C1223 C1220 1.403 . S
C1223 C1224 1.524 . S
C1223 C1227 1.400 . S
C1224 H1209 0.960 . S
C1224 H1210 0.960 . S
C1224 H1211 0.960 . S
C1224 C1223 1.524 . S
C1225 C1222 1.403 . S
C1225 C1226 1.392 . S
C1225 C1229 1.495 1_545 S
C1226 C1225 1.392 . S
C1226 C1227 1.385 . S
C1226 C1228 1.478 . S
C1227 H1221 0.930 . S
C1227 C1223 1.400 . S
C1227 C1226 1.385 . S
C1228 C1226 1.478 . S
C1228 C1230 1.381 . S
C1228 C1234 1.383 . S
C1229 C1225 1.495 1_565 S
C1229 H1235 0.959 . S
C1229 H1236 0.961 . S
C1229 H1237 0.960 . S
C1230 C1228 1.381 . S
C1230 C1231 1.394 . S
C1230 H1238 0.930 . S
C1231 C1230 1.394 . S
C1231 C1232 1.383 . S
C1231 H1239 0.929 1_545 S
C1232 C1231 1.383 . S
C1232 C1233 1.377 . S
C1233 H1217 0.930 . S
C1233 C1232 1.377 . S
C1233 C1234 1.379 . S
C1234 H1218 0.931 . S
C1234 C1228 1.383 . S
C1234 C1233 1.379 . S
H1235 C1229 0.959 . S
H1236 C1229 0.961 . S
H1237 C1229 0.960 . S
H1238 C1230 0.930 . S
H1239 C1231 0.929 1_565 S
H1240 C1248 0.929 . S
H1241 C1250 0.930 . S
H1242 C1252 0.930 . S
H1243 C1255 0.929 . S
H1244 C1258 0.930 . S
H1245 C1260 0.960 . S
H1246 C1260 0.960 . S
H1247 C1260 0.960 . S
C1248 H1240 0.929 . S
C1248 C1249 1.377 . S
C1248 C1250 1.384 . S
C1249 C1248 1.377 . S
C1249 C1255 1.390 . S
C1250 H1241 0.930 . S
C1250 C1248 1.384 . S
C1250 C1251 1.372 . S
C1251 C1250 1.372 . S
C1251 C1252 1.400 . S
C1251 C1256 1.490 . S
C1252 H1242 0.930 . S
C1252 C1251 1.400 . S
C1252 C1255 1.386 . S
H1253 C1269 0.930 . S
H1254 C1270 0.931 . S
C1255 H1243 0.929 . S
C1255 C1249 1.390 . S
C1255 C1252 1.386 . S
C1256 C1251 1.490 . S
C1256 C1258 1.395 . S
C1256 C1259 1.403 . S
H1257 C1263 0.930 . S
C1258 H1244 0.930 . S
C1258 C1256 1.395 . S
C1258 C1261 1.403 . S
C1259 C1256 1.403 . S
C1259 C1260 1.524 . S
C1259 C1263 1.400 . S
C1260 H1245 0.960 . S
C1260 H1246 0.960 . S
C1260 H1247 0.960 . S
C1260 C1259 1.524 . S
C1261 C1258 1.403 . S
C1261 C1262 1.392 . S
C1261 C1265 1.495 . S
C1262 C1261 1.392 . S
C1262 C1263 1.385 . S
C1262 C1264 1.478 . S
C1263 H1257 0.930 . S
C1263 C1259 1.400 . S
C1263 C1262 1.385 . S
C1264 C1262 1.478 . S
C1264 C1266 1.381 . S
C1264 C1270 1.383 . S
C1265 C1261 1.495 . S
C1265 H1271 0.959 . S
C1265 H1272 0.961 . S
C1265 H1273 0.960 . S
C1266 C1264 1.381 . S
C1266 C1267 1.394 . S
C1266 H1274 0.930 . S
C1267 C1266 1.394 . S
C1267 C1268 1.383 . S
C1267 H1275 0.929 . S
C1268 C1267 1.383 . S
C1268 C1269 1.377 . S
C1269 H1253 0.930 . S
C1269 C1268 1.377 . S
C1269 C1270 1.379 . S
C1270 H1254 0.931 . S
C1270 C1264 1.383 . S
C1270 C1269 1.379 . S
H1271 C1265 0.959 . S
H1272 C1265 0.961 . S
H1273 C1265 0.960 . S
H1274 C1266 0.930 . S
H1275 C1267 0.929 . S
H1276 C1284 0.929 . S
H1277 C1286 0.930 . S
H1278 C1288 0.930 . S
H1279 C1291 0.929 . S
H1280 C1294 0.930 . S
H1281 C1296 0.960 . S
H1282 C1296 0.960 . S
H1283 C1296 0.960 . S
C1284 H1276 0.929 . S
C1284 C1285 1.377 . S
C1284 C1286 1.384 . S
C1285 C1284 1.377 . S
C1285 C1291 1.390 . S
C1286 H1277 0.930 . S
C1286 C1284 1.384 . S
C1286 C1287 1.372 . S
C1287 C1286 1.372 . S
C1287 C1288 1.400 . S
C1287 C1292 1.490 . S
C1288 H1278 0.930 . S
C1288 C1287 1.400 . S
C1288 C1291 1.386 . S
H1289 C1305 0.930 . S
H1290 C1306 0.931 . S
C1291 H1279 0.929 . S
C1291 C1285 1.390 . S
C1291 C1288 1.386 . S
C1292 C1287 1.490 . S
C1292 C1294 1.395 . S
C1292 C1295 1.403 . S
H1293 C1299 0.930 . S
C1294 H1280 0.930 . S
C1294 C1292 1.395 . S
C1294 C1297 1.403 . S
C1295 C1292 1.403 . S
C1295 C1296 1.524 . S
C1295 C1299 1.400 . S
C1296 H1281 0.960 . S
C1296 H1282 0.960 . S
C1296 H1283 0.960 . S
C1296 C1295 1.524 . S
C1297 C1294 1.403 . S
C1297 C1298 1.392 . S
C1297 C1301 1.495 . S
C1298 C1297 1.392 . S
C1298 C1299 1.385 . S
C1298 C1300 1.478 . S
C1299 H1293 0.930 . S
C1299 C1295 1.400 . S
C1299 C1298 1.385 . S
C1300 C1298 1.478 . S
C1300 C1302 1.381 . S
C1300 C1306 1.383 . S
C1301 C1297 1.495 . S
C1301 H1307 0.959 . S
C1301 H1308 0.961 . S
C1301 H1309 0.960 . S
C1302 C1300 1.381 . S
C1302 C1303 1.394 . S
C1302 H1310 0.930 . S
C1303 C1302 1.394 . S
C1303 C1304 1.383 . S
C1303 H1311 0.929 . S
C1304 C1303 1.383 . S
C1304 C1305 1.377 . S
C1305 H1289 0.930 . S
C1305 C1304 1.377 . S
C1305 C1306 1.379 . S
C1306 H1290 0.931 . S
C1306 C1300 1.383 . S
C1306 C1305 1.379 . S
H1307 C1301 0.959 . S
H1308 C1301 0.961 . S
H1309 C1301 0.960 . S
H1310 C1302 0.930 . S
H1311 C1303 0.929 . S
H1312 C1320 0.929 . S
H1313 C1322 0.930 . S
H1314 C1324 0.930 . S
H1315 C1327 0.929 . S
H1316 C1330 0.930 . S
H1317 C1332 0.960 . S
H1318 C1332 0.960 1_455 S
H1319 C1332 0.960 . S
C1320 H1312 0.929 . S
C1320 C1321 1.377 . S
C1320 C1322 1.384 . S
C1321 C1320 1.377 . S
C1321 C1327 1.390 . S
C1322 H1313 0.930 . S
C1322 C1320 1.384 . S
C1322 C1323 1.372 . S
C1323 C1322 1.372 . S
C1323 C1324 1.400 . S
C1323 C1328 1.490 . S
C1324 H1314 0.930 . S
C1324 C1323 1.400 . S
C1324 C1327 1.386 . S
H1325 C1341 0.930 . S
H1326 C1342 0.931 . S
C1327 H1315 0.929 . S
C1327 C1321 1.390 . S
C1327 C1324 1.386 . S
C1328 C1323 1.490 . S
C1328 C1330 1.395 . S
C1328 C1331 1.403 . S
H1329 C1335 0.930 . S
C1330 H1316 0.930 . S
C1330 C1328 1.395 . S
C1330 C1333 1.403 . S
C1331 C1328 1.403 . S
C1331 C1332 1.524 . S
C1331 C1335 1.400 . S
C1332 H1317 0.960 . S
C1332 H1318 0.960 1_655 S
C1332 H1319 0.960 . S
C1332 C1331 1.524 . S
C1333 C1330 1.403 . S
C1333 C1334 1.392 . S
C1333 C1337 1.495 . S
C1334 C1333 1.392 . S
C1334 C1335 1.385 . S
C1334 C1336 1.478 . S
C1335 H1329 0.930 . S
C1335 C1331 1.400 . S
C1335 C1334 1.385 . S
C1336 C1334 1.478 . S
C1336 C1338 1.393 . S
C1336 C1342 1.383 . S
C1337 C1333 1.495 . S
C1337 H1343 0.959 . S
C1337 H1344 0.961 . S
C1337 H1345 0.960 . S
C1338 C1336 1.393 . S
C1338 C1339 1.392 1_655 S
C1338 H1346 0.920 1_655 S
C1339 C1338 1.392 1_455 S
C1339 C1340 1.383 1_455 S
C1339 H1347 0.929 . S
C1340 C1339 1.383 1_655 S
C1340 C1341 1.377 . S
C1341 H1325 0.930 . S
C1341 C1340 1.377 . S
C1341 C1342 1.379 . S
C1342 H1326 0.931 . S
C1342 C1336 1.383 . S
C1342 C1341 1.379 . S
H1343 C1337 0.959 . S
H1344 C1337 0.961 . S
H1345 C1337 0.960 . S
H1346 C1338 0.920 1_455 S
H1347 C1339 0.929 . S
H1348 C1356 0.929 . S
H1349 C1358 0.930 . S
H1350 C1360 0.930 . S
H1351 C1363 0.929 . S
H1352 C1366 0.930 . S
H1353 C1368 0.960 . S
H1354 C1368 0.960 . S
H1355 C1368 0.960 . S
C1356 H1348 0.929 . S
C1356 C1357 1.377 . S
C1356 C1358 1.384 . S
C1357 C1356 1.377 . S
C1357 C1363 1.390 . S
C1358 H1349 0.930 . S
C1358 C1356 1.384 . S
C1358 C1359 1.372 . S
C1359 C1358 1.372 . S
C1359 C1360 1.400 . S
C1359 C1364 1.490 . S
C1360 H1350 0.930 . S
C1360 C1359 1.400 . S
C1360 C1363 1.386 . S
H1361 C1377 0.930 1_545 S
H1362 C1378 0.927 1_545 S
C1363 H1351 0.929 . S
C1363 C1357 1.390 . S
C1363 C1360 1.386 . S
C1364 C1359 1.490 . S
C1364 C1366 1.395 . S
C1364 C1367 1.403 . S
H1365 C1371 0.930 . S
C1366 H1352 0.930 . S
C1366 C1364 1.395 . S
C1366 C1369 1.403 . S
C1367 C1364 1.403 . S
C1367 C1368 1.524 . S
C1367 C1371 1.400 . S
C1368 H1353 0.960 . S
C1368 H1354 0.960 . S
C1368 H1355 0.960 . S
C1368 C1367 1.524 . S
C1369 C1366 1.403 . S
C1369 C1370 1.392 . S
C1369 C1373 1.495 1_565 S
C1370 C1369 1.392 . S
C1370 C1371 1.385 . S
C1370 C1372 1.478 . S
C1371 H1365 0.930 . S
C1371 C1367 1.400 . S
C1371 C1370 1.385 . S
C1372 C1370 1.478 . S
C1372 C1374 1.381 . S
C1372 C1378 1.383 . S
C1373 C1369 1.495 1_545 S
C1373 H1379 0.959 . S
C1373 H1380 0.961 . S
C1373 H1381 0.960 . S
C1374 C1372 1.381 . S
C1374 C1375 1.394 . S
C1374 H1382 0.930 . S
C1375 C1374 1.394 . S
C1375 C1376 1.383 . S
C1375 H1383 0.929 . S
C1376 C1375 1.383 . S
C1376 C1377 1.377 . S
C1377 H1361 0.930 1_565 S
C1377 C1376 1.377 . S
C1377 C1378 1.379 . S
C1378 H1362 0.927 1_565 S
C1378 C1372 1.383 . S
C1378 C1377 1.379 . S
H1379 C1373 0.959 . S
H1380 C1373 0.961 . S
H1381 C1373 0.960 . S
H1382 C1374 0.930 . S
H1383 C1375 0.929 . S
H1384 C1392 0.929 . S
H1385 C1394 0.930 . S
H1386 C1396 0.930 . S
H1387 C1399 0.929 . S
H1388 C1402 0.930 . S
H1389 C1404 0.960 . S
H1390 C1404 0.960 . S
H1391 C1404 0.960 . S
C1392 H1384 0.929 . S
C1392 C1393 1.377 . S
C1392 C1394 1.384 . S
C1393 C1392 1.377 . S
C1393 C1399 1.390 . S
C1394 H1385 0.930 . S
C1394 C1392 1.384 . S
C1394 C1395 1.372 . S
C1395 C1394 1.372 . S
C1395 C1396 1.400 . S
C1395 C1400 1.490 . S
C1396 H1386 0.930 . S
C1396 C1395 1.400 . S
C1396 C1399 1.386 . S
H1397 C1413 0.930 . S
H1398 C1414 0.931 . S
C1399 H1387 0.929 . S
C1399 C1393 1.390 . S
C1399 C1396 1.386 . S
C1400 C1395 1.490 . S
C1400 C1402 1.395 . S
C1400 C1403 1.403 . S
H1401 C1407 0.930 . S
C1402 H1388 0.930 . S
C1402 C1400 1.395 . S
C1402 C1405 1.403 . S
C1403 C1400 1.403 . S
C1403 C1404 1.524 . S
C1403 C1407 1.400 . S
C1404 H1389 0.960 . S
C1404 H1390 0.960 . S
C1404 H1391 0.960 . S
C1404 C1403 1.524 . S
C1405 C1402 1.403 . S
C1405 C1406 1.392 . S
C1405 C1409 1.495 . S
C1406 C1405 1.392 . S
C1406 C1407 1.385 . S
C1406 C1408 1.478 . S
C1407 H1401 0.930 . S
C1407 C1403 1.400 . S
C1407 C1406 1.385 . S
C1408 C1406 1.478 . S
C1408 C1410 1.381 . S
C1408 C1414 1.383 . S
C1409 C1405 1.495 . S
C1409 H1415 0.959 . S
C1409 H1416 0.961 . S
C1409 H1417 0.960 . S
C1410 C1408 1.381 . S
C1410 C1411 1.394 . S
C1410 H1418 0.930 . S
C1411 C1410 1.394 . S
C1411 C1412 1.383 . S
C1411 H1419 0.929 . S
C1412 C1411 1.383 . S
C1412 C1413 1.377 . S
C1413 H1397 0.930 . S
C1413 C1412 1.377 . S
C1413 C1414 1.379 . S
C1414 H1398 0.931 . S
C1414 C1408 1.383 . S
C1414 C1413 1.379 . S
H1415 C1409 0.959 . S
H1416 C1409 0.961 . S
H1417 C1409 0.960 . S
H1418 C1410 0.930 . S
H1419 C1411 0.929 . S
H1420 C1428 0.929 . S
H1421 C1430 0.930 . S
H1422 C1432 0.930 . S
H1423 C1435 0.929 . S
H1424 C1438 0.930 . S
H1425 C1440 0.960 . S
H1426 C1440 0.960 . S
H1427 C1440 0.960 . S
C1428 H1420 0.929 . S
C1428 C1429 1.377 . S
C1428 C1430 1.384 . S
C1429 C1428 1.377 . S
C1429 C1435 1.390 . S
C1430 H1421 0.930 . S
C1430 C1428 1.384 . S
C1430 C1431 1.372 . S
C1431 C1430 1.372 . S
C1431 C1432 1.400 . S
C1431 C1436 1.490 . S
C1432 H1422 0.930 . S
C1432 C1431 1.400 . S
C1432 C1435 1.386 . S
H1433 C1449 0.930 . S
H1434 C1450 0.931 . S
C1435 H1423 0.929 . S
C1435 C1429 1.390 . S
C1435 C1432 1.386 . S
C1436 C1431 1.490 . S
C1436 C1438 1.395 . S
C1436 C1439 1.403 . S
H1437 C1443 0.930 . S
C1438 H1424 0.930 . S
C1438 C1436 1.395 . S
C1438 C1441 1.403 . S
C1439 C1436 1.403 . S
C1439 C1440 1.524 . S
C1439 C1443 1.400 . S
C1440 H1425 0.960 . S
C1440 H1426 0.960 . S
C1440 H1427 0.960 . S
C1440 C1439 1.524 . S
C1441 C1438 1.403 . S
C1441 C1442 1.392 . S
C1441 C1445 1.495 . S
C1442 C1441 1.392 . S
C1442 C1443 1.385 . S
C1442 C1444 1.478 . S
C1443 H1437 0.930 . S
C1443 C1439 1.400 . S
C1443 C1442 1.385 . S
C1444 C1442 1.478 . S
C1444 C1446 1.381 . S
C1444 C1450 1.383 . S
C1445 C1441 1.495 . S
C1445 H1451 0.959 . S
C1445 H1452 0.961 . S
C1445 H1453 0.960 . S
C1446 C1444 1.381 . S
C1446 C1447 1.394 . S
C1446 H1454 0.930 . S
C1447 C1446 1.394 . S
C1447 C1448 1.383 . S
C1447 H1455 0.929 . S
C1448 C1447 1.383 . S
C1448 C1449 1.377 . S
C1449 H1433 0.930 . S
C1449 C1448 1.377 . S
C1449 C1450 1.379 . S
C1450 H1434 0.931 . S
C1450 C1444 1.383 . S
C1450 C1449 1.379 . S
H1451 C1445 0.959 . S
H1452 C1445 0.961 . S
H1453 C1445 0.960 . S
H1454 C1446 0.930 . S
H1455 C1447 0.929 . S
C601 C215 1.973 . S
C620 C324 2.051 . S
C656 C407 2.053 . S
C637 C247 1.986 . S
C692 C492 2.028 . S
C673 C151 1.965 . S
C728 C576 2.001 . S
C709 C183 1.941 . S
C764 C312 2.042 1_565 S
C745 C87 1.907 . S
C781 C119 1.929 . S
C800 C395 2.068 . S
C817 C23 1.892 . S
C836 C480 2.014 . S
C853 C55 1.880 . S
C872 C564 2.000 1_655 S
C908 C314 0.527 1_455 S
C889 C189 0.285 . S
C944 C410 0.456 . S
C925 C221 0.250 . S
C980 C482 0.413 . S
C961 C253 0.299 . S
C997 C157 0.262 . S
C1016 C566 0.486 . S
C1033 C61 0.489 . S
C1052 C326 0.357 . S
C1088 C398 0.502 . S
C1069 C93 0.495 . S
C1124 C494 0.543 . S
C1105 C125 0.500 . S
C1141 C29 0.496 . S
C1160 C578 0.519 . S
C1177 C177 2.192 . S
C1196 C311 2.361 . S
C1213 C209 2.181 . S
C1232 C396 2.351 . S
C1268 C479 2.388 . S
C1249 C241 2.218 . S
C1304 C563 2.389 . S
C1285 C145 2.228 . S
C1321 C49 2.141 . S
C1340 C323 2.362 . S
C1376 C408 2.352 . S
C1357 C81 2.135 . S
C1412 C491 2.389 . S
C1393 C113 2.163 . S
C1429 C17 2.173 . S
C1448 C575 2.394 . S
