# Generated by pormake.
# Topology wbl, (4,4)-cn, num edge types: 1
# Building blocks:
#     Node 0, Type 0, BuildingBlock: NAWXER_clean_linker_0, # of connection points: 4
#     Node 1, Type 0, BuildingBlock: NAWXER_clean_linker_0, # of connection points: 4
#     Node 2, Type 0, BuildingBlock: NAWXER_clean_linker_0, # of connection points: 4
#     Node 3, Type 0, BuildingBlock: NAWXER_clean_linker_0, # of connection points: 4
#     Node 4, Type 0, BuildingBlock: NAWXER_clean_linker_0, # of connection points: 4
#     Node 5, Type 0, BuildingBlock: NAWXER_clean_linker_0, # of connection points: 4
#     Node 6, Type 0, BuildingBlock: NAWXER_clean_linker_0, # of connection points: 4
#     Node 7, Type 0, BuildingBlock: NAWXER_clean_linker_0, # of connection points: 4
#     Node 8, Type 1, BuildingBlock: CEKHIL_clean_sbu_0, # of connection points: 4
#     Node 9, Type 1, BuildingBlock: CEKHIL_clean_sbu_0, # of connection points: 4
#     Node 10, Type 1, BuildingBlock: CEKHIL_clean_sbu_0, # of connection points: 4
#     Node 11, Type 1, BuildingBlock: CEKHIL_clean_sbu_0, # of connection points: 4
#     Node 12, Type 1, BuildingBlock: CEKHIL_clean_sbu_0, # of connection points: 4
#     Node 13, Type 1, BuildingBlock: CEKHIL_clean_sbu_0, # of connection points: 4
#     Node 14, Type 1, BuildingBlock: CEKHIL_clean_sbu_0, # of connection points: 4
#     Node 15, Type 1, BuildingBlock: CEKHIL_clean_sbu_0, # of connection points: 4
#     Edge 16, Type (0, 1), BuildingBlock: KIFKEQ_clean_linker_1, # of connection points: 2
#     Edge 17, Type (0, 1), BuildingBlock: KIFKEQ_clean_linker_1, # of connection points: 2
#     Edge 18, Type (0, 1), BuildingBlock: KIFKEQ_clean_linker_1, # of connection points: 2
#     Edge 19, Type (0, 1), BuildingBlock: KIFKEQ_clean_linker_1, # of connection points: 2
#     Edge 20, Type (0, 1), BuildingBlock: KIFKEQ_clean_linker_1, # of connection points: 2
#     Edge 21, Type (0, 1), BuildingBlock: KIFKEQ_clean_linker_1, # of connection points: 2
#     Edge 22, Type (0, 1), BuildingBlock: KIFKEQ_clean_linker_1, # of connection points: 2
#     Edge 23, Type (0, 1), BuildingBlock: KIFKEQ_clean_linker_1, # of connection points: 2
#     Edge 24, Type (0, 1), BuildingBlock: KIFKEQ_clean_linker_1, # of connection points: 2
#     Edge 25, Type (0, 1), BuildingBlock: KIFKEQ_clean_linker_1, # of connection points: 2
#     Edge 26, Type (0, 1), BuildingBlock: KIFKEQ_clean_linker_1, # of connection points: 2
#     Edge 27, Type (0, 1), BuildingBlock: KIFKEQ_clean_linker_1, # of connection points: 2
#     Edge 28, Type (0, 1), BuildingBlock: KIFKEQ_clean_linker_1, # of connection points: 2
#     Edge 29, Type (0, 1), BuildingBlock: KIFKEQ_clean_linker_1, # of connection points: 2
#     Edge 30, Type (0, 1), BuildingBlock: KIFKEQ_clean_linker_1, # of connection points: 2
#     Edge 31, Type (0, 1), BuildingBlock: KIFKEQ_clean_linker_1, # of connection points: 2
#     Edge 32, Type (0, 1), BuildingBlock: KIFKEQ_clean_linker_1, # of connection points: 2
#     Edge 33, Type (0, 1), BuildingBlock: KIFKEQ_clean_linker_1, # of connection points: 2
#     Edge 34, Type (0, 1), BuildingBlock: KIFKEQ_clean_linker_1, # of connection points: 2
#     Edge 35, Type (0, 1), BuildingBlock: KIFKEQ_clean_linker_1, # of connection points: 2
#     Edge 36, Type (0, 1), BuildingBlock: KIFKEQ_clean_linker_1, # of connection points: 2
#     Edge 37, Type (0, 1), BuildingBlock: KIFKEQ_clean_linker_1, # of connection points: 2
#     Edge 38, Type (0, 1), BuildingBlock: KIFKEQ_clean_linker_1, # of connection points: 2
#     Edge 39, Type (0, 1), BuildingBlock: KIFKEQ_clean_linker_1, # of connection points: 2
#     Edge 40, Type (0, 1), BuildingBlock: KIFKEQ_clean_linker_1, # of connection points: 2
#     Edge 41, Type (0, 1), BuildingBlock: KIFKEQ_clean_linker_1, # of connection points: 2
#     Edge 42, Type (0, 1), BuildingBlock: KIFKEQ_clean_linker_1, # of connection points: 2
#     Edge 43, Type (0, 1), BuildingBlock: KIFKEQ_clean_linker_1, # of connection points: 2
#     Edge 44, Type (0, 1), BuildingBlock: KIFKEQ_clean_linker_1, # of connection points: 2
#     Edge 45, Type (0, 1), BuildingBlock: KIFKEQ_clean_linker_1, # of connection points: 2
#     Edge 46, Type (0, 1), BuildingBlock: KIFKEQ_clean_linker_1, # of connection points: 2
#     Edge 47, Type (0, 1), BuildingBlock: KIFKEQ_clean_linker_1, # of connection points: 2
# Relax obj value: 0.169
# Max RMSD: 0.172
# Mean RMSD: 0.145
data_MOF--net-wbl--node1-CEKHIL_clean_sbu_0--node2-NAWXER_clean_linker_0--edge1-KIFKEQ_clean_linker_1
_symmetry_space_group_name_H-M    P1
_symmetry_Int_Tables_number       1
_symmetry_cell_setting            triclinic
loop_
_symmetry_equiv_pos_as_xyz
'x, y, z'
_cell_length_a     45.342365
_cell_length_b     45.561007
_cell_length_c     79.645192
_cell_angle_alpha  90.304065
_cell_angle_beta   90.109608
_cell_angle_gamma 90.009982
loop_
_atom_site_label
_atom_site_type_symbol
_atom_site_fract_x
_atom_site_fract_y
_atom_site_fract_z
_atom_type_partial_charge
C0 C 0.10213 0.96658 0.36173 0.0
C1 C 0.11562 0.98233 0.37487 0.0
C2 C 0.08618 0.98133 0.34932 0.0
C3 C 0.08407 0.01213 0.34964 0.0
C4 C 0.11383 0.01311 0.37502 0.0
C5 C 0.09817 0.02783 0.36255 0.0
C6 C 0.065 0.02806 0.33764 0.0
C7 C 0.13622 0.98476 0.30882 0.0
C8 C 0.12647 0.96324 0.29742 0.0
C9 C 0.11638 0.0048 0.31572 0.0
C10 C 0.08623 0.00315 0.31176 0.0
C11 C 0.09661 0.96255 0.29271 0.0
C12 C 0.0766 0.98235 0.29987 0.0
C13 C 0.06476 0.02283 0.32011 0.0
C14 C 0.97634 0.11458 0.29763 0.0
C15 C 0.95641 0.09724 0.28835 0.0
C16 C -0.00035 0.10155 0.30632 0.0
C17 C 0.00334 0.07095 0.30595 0.0
C18 C 0.96146 0.06681 0.28712 0.0
C19 C 0.98484 0.05383 0.29577 0.0
C20 C 0.02482 0.05651 0.31714 0.0
C21 C 0.95306 0.08995 0.35207 0.0
C22 C 0.96296 0.11104 0.36373 0.0
C23 C 0.9732 0.07476 0.34199 0.0
C24 C 0.00356 0.08049 0.34339 0.0
C25 C 0.99327 0.11738 0.36468 0.0
C26 C 0.01338 0.10207 0.35469 0.0
C27 C 0.02535 0.06188 0.3346 0.0
H28 H 0.1028 0.94281 0.36147 0.0
H29 H 0.07472 0.9686 0.33982 0.0
H30 H 0.12416 0.02577 0.38497 0.0
H31 H 0.09668 0.05156 0.36314 0.0
H32 H 0.15929 0.98621 0.3123 0.0
H33 H 0.1246 0.02138 0.32433 0.0
H34 H 0.08868 0.94627 0.28383 0.0
H35 H 0.05351 0.98094 0.29645 0.0
H36 H 0.97344 0.13813 0.29856 0.0
H37 H 0.01416 0.11525 0.31381 0.0
H38 H 0.94641 0.05272 0.28024 0.0
H39 H 0.98741 0.03019 0.29528 0.0
H40 H 0.92983 0.08464 0.35108 0.0
H41 H 0.96517 0.05773 0.33362 0.0
H42 H 0.00163 0.13314 0.37373 0.0
H43 H 0.03673 0.10655 0.3561 0.0
N44 N 0.04546 0.04756 0.34413 0.0
N45 N 0.04444 0.03704 0.31052 0.0
C46 C 0.94113 0.47824 0.61275 0.0
C47 C 0.95649 0.46155 0.62477 0.0
C48 C 0.95645 0.49459 0.6008 0.0
C49 C 0.98737 0.49486 0.60078 0.0
C50 C 0.98752 0.46078 0.62406 0.0
C51 C 0.00278 0.47765 0.61237 0.0
C52 C 0.0037 0.51468 0.58957 0.0
C53 C 0.97802 0.43771 0.55889 0.0
C54 C 0.95658 0.4431 0.54652 0.0
C55 C 0.99216 0.46087 0.56702 0.0
C56 C 0.98489 0.49003 0.56323 0.0
C57 C 0.94934 0.47232 0.54262 0.0
C58 C 0.96361 0.49565 0.55084 0.0
C59 C 0.00044 0.51424 0.57195 0.0
C60 C 0.09629 0.59747 0.55123 0.0
C61 C 0.0813 0.61923 0.54212 0.0
C62 C 0.08063 0.57574 0.55967 0.0
C63 C 0.04971 0.57536 0.55916 0.0
C64 C 0.05035 0.61771 0.54084 0.0
C65 C 0.0347 0.59582 0.54925 0.0
C66 C 0.03314 0.555 0.56993 0.0
C67 C 0.06999 0.62482 0.6054 0.0
C68 C 0.09098 0.61343 0.61664 0.0
C69 C 0.05298 0.60591 0.5954 0.0
C70 C 0.05662 0.57536 0.59659 0.0
C71 C 0.09507 0.58287 0.61738 0.0
C72 C 0.07791 0.56406 0.60755 0.0
C73 C 0.03699 0.55479 0.58751 0.0
H74 H 0.91731 0.47979 0.613 0.0
H75 H 0.94419 0.50801 0.59203 0.0
H76 H 0.00015 0.44762 0.63277 0.0
H77 H 0.02668 0.47746 0.61245 0.0
H78 H 0.9839 0.41549 0.56231 0.0
H79 H 0.00907 0.45592 0.5762 0.0
H80 H 0.9331 0.47711 0.53303 0.0
H81 H 0.95793 0.51801 0.54761 0.0
H82 H 0.12012 0.59762 0.55215 0.0
H83 H 0.09262 0.55974 0.56702 0.0
H84 H 0.03812 0.63423 0.53402 0.0
H85 H 0.01082 0.59576 0.54869 0.0
H86 H 0.06632 0.64826 0.60462 0.0
H87 H 0.03633 0.61507 0.58719 0.0
H88 H 0.11062 0.57335 0.62614 0.0
H89 H 0.08092 0.54056 0.60873 0.0
N90 N 0.02207 0.53468 0.59667 0.0
N91 N 0.01504 0.53466 0.5627 0.0
C92 C 0.55671 0.43584 0.85855 0.0
C93 C 0.56799 0.44963 0.87299 0.0
C94 C 0.54057 0.45201 0.8468 0.0
C95 C 0.53619 0.48235 0.84914 0.0
C96 C 0.56393 0.47994 0.87519 0.0
C97 C 0.54822 0.49612 0.86339 0.0
C98 C 0.51717 0.49965 0.83774 0.0
C99 C 0.59345 0.46789 0.80888 0.0
C100 C 0.58656 0.4471 0.79642 0.0
C101 C 0.5714 0.48515 0.81601 0.0
C102 C 0.54182 0.48141 0.81119 0.0
C103 C 0.55723 0.44447 0.79086 0.0
C104 C 0.53496 0.46151 0.79823 0.0
C105 C 0.51829 0.49784 0.82002 0.0
C106 C 0.42894 0.59233 0.80214 0.0
C107 C 0.41013 0.57672 0.79122 0.0
C108 C 0.45251 0.57823 0.81 0.0
C109 C 0.45723 0.54806 0.8075 0.0
C110 C 0.41697 0.54727 0.78739 0.0
C111 C 0.44025 0.53305 0.79551 0.0
C112 C 0.47815 0.53163 0.8182 0.0
C113 C 0.40872 0.56619 0.85542 0.0
C114 C 0.42096 0.58713 0.86645 0.0
C115 C 0.427 0.54952 0.84487 0.0
C116 C 0.45772 0.55344 0.84536 0.0
C117 C 0.45167 0.59145 0.86648 0.0
C118 C 0.46983 0.57462 0.85615 0.0
C119 C 0.47788 0.5341 0.83589 0.0
H120 H 0.55928 0.4124 0.85673 0.0
H121 H 0.53078 0.44064 0.8362 0.0
H122 H 0.57255 0.49105 0.88622 0.0
H123 H 0.54507 0.51942 0.86553 0.0
H124 H 0.61602 0.47094 0.81304 0.0
H125 H 0.57744 0.50114 0.82553 0.0
H126 H 0.55147 0.42878 0.78112 0.0
H127 H 0.51233 0.45857 0.79417 0.0
H128 H 0.42457 0.61499 0.80544 0.0
H129 H 0.46613 0.59062 0.81868 0.0
H130 H 0.40361 0.5348 0.77861 0.0
H131 H 0.44394 0.50992 0.79308 0.0
H132 H 0.38515 0.56235 0.85519 0.0
H133 H 0.41729 0.53298 0.83675 0.0
H134 H 0.46187 0.60694 0.87507 0.0
H135 H 0.4935 0.57776 0.85681 0.0
N136 N 0.49729 0.51801 0.8449 0.0
N137 N 0.49836 0.51351 0.81087 0.0
C138 C 0.48644 0.90498 0.0586 0.0
C139 C 0.46624 0.91278 0.04604 0.0
C140 C 0.50461 0.92613 0.06591 0.0
C141 C 0.50223 0.95572 0.06122 0.0
C142 C 0.46507 0.94198 0.04053 0.0
C143 C 0.48293 0.96339 0.04813 0.0
C144 C 0.51957 0.97847 0.07018 0.0
C145 C 0.45673 0.9404 0.10806 0.0
C146 C 0.47035 0.92705 0.12195 0.0
C147 C 0.47321 0.9574 0.09692 0.0
C148 C 0.50375 0.96086 0.09923 0.0
C149 C 0.50088 0.9309 0.12431 0.0
C150 C 0.51734 0.94759 0.11308 0.0
C151 C 0.52159 0.97946 0.08791 0.0
C152 C 0.59114 0.08674 0.10461 0.0
C153 C 0.61128 0.07468 0.11612 0.0
C154 C 0.5741 0.06838 0.09429 0.0
C155 C 0.57688 0.03775 0.09544 0.0
C156 C 0.61445 0.04401 0.11685 0.0
C157 C 0.59728 0.02577 0.10671 0.0
C158 C 0.55713 0.01777 0.08607 0.0
C159 C 0.61755 0.06208 0.05075 0.0
C160 C 0.60252 0.08112 0.03986 0.0
C161 C 0.6022 0.04041 0.05947 0.0
C162 C 0.57149 0.03772 0.05766 0.0
C163 C 0.57207 0.07708 0.03727 0.0
C164 C 0.55672 0.05549 0.04606 0.0
C165 C 0.55444 0.01758 0.06841 0.0
H166 H 0.48819 0.88243 0.06274 0.0
H167 H 0.52018 0.91941 0.07547 0.0
H168 H 0.44985 0.94832 0.0307 0.0
H169 H 0.4811 0.986 0.04412 0.0
H170 H 0.43331 0.93785 0.10582 0.0
H171 H 0.46198 0.9681 0.08662 0.0
H172 H 0.51204 0.92163 0.13507 0.0
H173 H 0.54079 0.95026 0.11528 0.0
H174 H 0.5882 0.11029 0.10383 0.0
H175 H 0.55813 0.07803 0.08583 0.0
H176 H 0.62931 0.034 0.12581 0.0
H177 H 0.59955 0.00219 0.10787 0.0
H178 H 0.64108 0.06431 0.05276 0.0
H179 H 0.61421 0.02629 0.06798 0.0
H180 H 0.55981 0.09153 0.02906 0.0
H181 H 0.53308 0.05361 0.04439 0.0
N182 N 0.5357 0.99793 0.06108 0.0
N183 N 0.54061 0.99878 0.0951 0.0
C184 C 0.05463 0.60307 0.89948 0.0
C185 C 0.06347 0.59032 0.88422 0.0
C186 C 0.04046 0.58605 0.91164 0.0
C187 C 0.03572 0.55586 0.90888 0.0
C188 C 0.05908 0.56016 0.88158 0.0
C189 C 0.04541 0.54312 0.89378 0.0
C190 C 0.01821 0.53784 0.92069 0.0
C191 C 0.09762 0.56762 0.94807 0.0
C192 C 0.09231 0.58647 0.96172 0.0
C193 C 0.07464 0.55164 0.94084 0.0
C194 C 0.04565 0.5548 0.94678 0.0
C195 C 0.0636 0.58859 0.96824 0.0
C196 C 0.0404 0.57287 0.9608 0.0
C197 C 0.02108 0.53905 0.93837 0.0
C198 C 0.92999 0.44712 0.95837 0.0
C199 C 0.91365 0.46326 0.97027 0.0
C200 C 0.95327 0.46017 0.94972 0.0
C201 C 0.96004 0.48995 0.95228 0.0
C202 C 0.92275 0.49212 0.97411 0.0
C203 C 0.94558 0.50536 0.96513 0.0
C204 C 0.98066 0.50567 0.94104 0.0
C205 C 0.90874 0.47155 0.90485 0.0
C206 C 0.92033 0.45027 0.89382 0.0
C207 C 0.9276 0.4883 0.91507 0.0
C208 C 0.95825 0.48408 0.91426 0.0
C209 C 0.95099 0.4457 0.89347 0.0
C210 C 0.96972 0.46258 0.90348 0.0
C211 C 0.979 0.50339 0.92336 0.0
H212 H 0.05749 0.62638 0.90168 0.0
H213 H 0.03239 0.59671 0.92291 0.0
H214 H 0.06585 0.54984 0.86992 0.0
H215 H 0.04191 0.51997 0.89128 0.0
H216 H 0.11969 0.56497 0.94309 0.0
H217 H 0.07955 0.53692 0.93049 0.0
H218 H 0.05903 0.60282 0.97886 0.0
H219 H 0.0183 0.57529 0.96575 0.0
H220 H 0.92394 0.42488 0.95501 0.0
H221 H 0.96509 0.44726 0.94048 0.0
H222 H 0.91156 0.50495 0.98363 0.0
H223 H 0.95095 0.52813 0.96768 0.0
H224 H 0.88522 0.47559 0.90533 0.0
H225 H 0.9184 0.50507 0.9232 0.0
H226 H 0.9607 0.42996 0.88487 0.0
H227 H 0.99333 0.45923 0.90257 0.0
N228 N 0.99766 0.51964 0.91396 0.0
N229 N 0.00175 0.52342 0.94791 0.0
C230 C 0.43821 0.54696 0.13815 0.0
C231 C 0.44348 0.57736 0.1381 0.0
C232 C 0.45416 0.52861 0.1488 0.0
C233 C 0.4753 0.54032 0.15982 0.0
C234 C 0.46438 0.58915 0.14933 0.0
C235 C 0.48012 0.57077 0.16015 0.0
C236 C 0.49389 0.5202 0.16976 0.0
C237 C 0.4836 0.58543 0.21705 0.0
C238 C 0.4531 0.59017 0.21515 0.0
C239 C 0.4976 0.56264 0.20841 0.0
C240 C 0.48149 0.54438 0.19756 0.0
C241 C 0.43677 0.57085 0.20491 0.0
C242 C 0.45083 0.54811 0.19622 0.0
C243 C 0.49712 0.52216 0.18735 0.0
C244 C 0.59505 0.43258 0.19849 0.0
C245 C 0.58356 0.41799 0.21259 0.0
C246 C 0.57906 0.45488 0.1907 0.0
C247 C 0.55064 0.46223 0.19632 0.0
C248 C 0.55643 0.42767 0.21921 0.0
C249 C 0.54007 0.44937 0.21108 0.0
C250 C 0.53134 0.48233 0.18668 0.0
C251 C 0.55373 0.40832 0.15001 0.0
C252 C 0.57211 0.41852 0.13709 0.0
C253 C 0.53944 0.42824 0.16069 0.0
C254 C 0.5432 0.45858 0.15848 0.0
C255 C 0.57599 0.44891 0.13509 0.0
C256 C 0.56147 0.46872 0.14559 0.0
C257 C 0.5276 0.48016 0.16909 0.0
H258 H 0.4226 0.53718 0.12946 0.0
H259 H 0.45033 0.50515 0.14825 0.0
H260 H 0.46886 0.6125 0.14954 0.0
H261 H 0.49671 0.5802 0.16836 0.0
H262 H 0.49696 0.60007 0.22465 0.0
H263 H 0.52125 0.56004 0.20968 0.0
H264 H 0.41318 0.57353 0.20343 0.0
H265 H 0.43784 0.53373 0.18825 0.0
H266 H 0.61581 0.42606 0.19294 0.0
H267 H 0.58855 0.4656 0.17988 0.0
H268 H 0.54731 0.41798 0.23044 0.0
H269 H 0.51859 0.45525 0.21599 0.0
H270 H 0.55025 0.38501 0.15174 0.0
H271 H 0.52517 0.42005 0.1705 0.0
H272 H 0.5895 0.45743 0.12503 0.0
H273 H 0.56448 0.49205 0.14363 0.0
N274 N 0.50919 0.49925 0.16133 0.0
N275 N 0.51579 0.50321 0.19516 0.0
C276 C 0.46756 0.93242 0.40052 0.0
C277 C 0.45292 0.94728 0.38748 0.0
C278 C 0.48675 0.94753 0.41132 0.0
C279 C 0.49126 0.97787 0.40945 0.0
C280 C 0.45757 0.97765 0.38572 0.0
C281 C 0.47647 0.9927 0.39656 0.0
C282 C 0.51249 0.99433 0.42009 0.0
C283 C 0.44134 0.96188 0.45288 0.0
C284 C 0.45039 0.9419 0.46517 0.0
C285 C 0.462 0.97876 0.44439 0.0
C286 C 0.49224 0.97525 0.44761 0.0
C287 C 0.48044 0.93945 0.46915 0.0
C288 C 0.50132 0.956 0.46035 0.0
C289 C 0.51411 0.992 0.43779 0.0
C290 C 0.59623 0.09162 0.45499 0.0
C291 C 0.61817 0.07788 0.46466 0.0
C292 C 0.57461 0.07497 0.44686 0.0
C293 C 0.57454 0.04426 0.44821 0.0
C294 C 0.61704 0.04719 0.46668 0.0
C295 C 0.59528 0.03057 0.4586 0.0
C296 C 0.55377 0.0264 0.43818 0.0
C297 C 0.61962 0.06159 0.4002 0.0
C298 C 0.60673 0.08075 0.3885 0.0
C299 C 0.60191 0.04548 0.41118 0.0
C300 C 0.57107 0.04822 0.41056 0.0
C301 C 0.57592 0.08403 0.3883 0.0
C302 C 0.55828 0.06775 0.39913 0.0
C303 C 0.55176 0.02903 0.42059 0.0
H304 H 0.46448 0.90907 0.40226 0.0
H305 H 0.49843 0.93539 0.42091 0.0
H306 H 0.4474 0.98977 0.37559 0.0
H307 H 0.47979 0.01602 0.39475 0.0
H308 H 0.41815 0.96463 0.44995 0.0
H309 H 0.45429 0.99441 0.43518 0.0
H310 H 0.48773 0.92442 0.4788 0.0
H311 H 0.52452 0.9534 0.46325 0.0
H312 H 0.59606 0.11523 0.45346 0.0
H313 H 0.55832 0.08601 0.43918 0.0
H314 H 0.63374 0.03582 0.47388 0.0
H315 H 0.59546 0.0069 0.45985 0.0
H316 H 0.64331 0.05865 0.40061 0.0
H317 H 0.61221 0.03014 0.41972 0.0
H318 H 0.56532 0.09823 0.37924 0.0
H319 H 0.53452 0.06999 0.39836 0.0
N320 N 0.53124 0.01294 0.41226 0.0
N321 N 0.53495 0.00788 0.44618 0.0
C322 C 0.10262 0.97674 0.64912 0.0
C323 C 0.08897 0.96041 0.63625 0.0
C324 C 0.08587 0.99479 0.65965 0.0
C325 C 0.05518 0.99679 0.6575 0.0
C326 C 0.05821 0.96216 0.63429 0.0
C327 C 0.04151 0.98038 0.64473 0.0
C328 C 0.03743 0.01706 0.66794 0.0
C329 C 0.06741 0.94355 0.69891 0.0
C330 C 0.08827 0.95112 0.71121 0.0
C331 C 0.05051 0.96514 0.69121 0.0
C332 C 0.05474 0.99489 0.69525 0.0
C333 C 0.09131 0.98066 0.71607 0.0
C334 C 0.07467 0.00248 0.70808 0.0
C335 C 0.03889 0.01777 0.68566 0.0
C336 C 0.94722 0.11161 0.70108 0.0
C337 C 0.96329 0.12957 0.71224 0.0
C338 C 0.96062 0.08756 0.69327 0.0
C339 C 0.9906 0.08146 0.69606 0.0
C340 C 0.99255 0.1217 0.71615 0.0
C341 C 0.00607 0.09795 0.70809 0.0
C342 C 0.00634 0.05896 0.686 0.0
C343 C 0.97472 0.12588 0.64717 0.0
C344 C 0.95393 0.11364 0.63601 0.0
C345 C 0.99057 0.10785 0.65817 0.0
C346 C 0.98591 0.07736 0.65808 0.0
C347 C 0.94903 0.08317 0.63628 0.0
C348 C 0.96499 0.06524 0.64711 0.0
C349 C 0.00414 0.0574 0.6683 0.0
H350 H 0.12629 0.97581 0.6509 0.0
H351 H 0.09695 0.00766 0.66923 0.0
H352 H 0.04716 0.95021 0.62431 0.0
H353 H 0.01789 0.98179 0.64279 0.0
H354 H 0.06411 0.92083 0.69528 0.0
H355 H 0.03444 0.95858 0.68183 0.0
H356 H 0.10705 0.98689 0.7257 0.0
H357 H 0.07798 0.02526 0.71156 0.0
H358 H 0.92468 0.11682 0.69772 0.0
H359 H 0.94778 0.0744 0.68457 0.0
H360 H 0.00535 0.13441 0.72508 0.0
H361 H 0.02902 0.09324 0.71076 0.0
H362 H 0.979 0.14927 0.6472 0.0
H363 H 0.00698 0.11756 0.6664 0.0
H364 H 0.93368 0.07293 0.62761 0.0
H365 H 0.9613 0.04174 0.64674 0.0
N366 N 0.01979 0.03656 0.66 0.0
N367 N 0.02369 0.03903 0.69406 0.0
Co368 Co 0.33287 0.67423 0.00979 0.0
O369 O 0.304 0.64345 0.00809 0.0
O370 O 0.29574 0.69018 0.00211 0.0
C371 C 0.35055 0.66137 0.03521 0.0
O372 O 0.35646 0.71234 0.01087 0.0
Co373 Co 0.39987 0.65979 0.01174 0.0
O374 O 0.40432 0.70237 0.01587 0.0
C375 C 0.36911 0.65644 0.97911 0.0
C376 C 0.28565 0.66353 0.00318 0.0
C377 C 0.38319 0.72045 0.01387 0.0
O378 O 0.3454 0.66675 0.98576 0.0
O379 O 0.39238 0.65043 0.98754 0.0
O380 O 0.32652 0.67679 0.03405 0.0
O381 O 0.36135 0.65211 0.02117 0.0
Co382 Co 0.35088 0.84374 0.24991 0.0
O383 O 0.32463 0.87672 0.25067 0.0
O384 O 0.31285 0.83149 0.25833 0.0
C385 C 0.36879 0.85262 0.2241 0.0
O386 O 0.37165 0.80414 0.24994 0.0
Co387 Co 0.41865 0.85385 0.24752 0.0
O388 O 0.41999 0.81062 0.24465 0.0
C389 C 0.38718 0.86764 0.27871 0.0
C390 C 0.30489 0.8587 0.25634 0.0
C391 C 0.3977 0.7941 0.24704 0.0
O392 O 0.36474 0.85286 0.27352 0.0
O393 O 0.40945 0.87349 0.26948 0.0
O394 O 0.34364 0.83926 0.22578 0.0
O395 O 0.38051 0.86242 0.23779 0.0
Co396 Co 0.19624 0.85229 0.50123 0.0
O397 O 0.16074 0.82915 0.50139 0.0
O398 O 0.20534 0.81266 0.50779 0.0
C399 C 0.18806 0.87411 0.47636 0.0
O400 O 0.23802 0.86866 0.50175 0.0
Co401 Co 0.19417 0.92057 0.50153 0.0
O402 O 0.23735 0.91769 0.49852 0.0
C403 C 0.18051 0.88785 0.53228 0.0
C404 C 0.17733 0.80738 0.506 0.0
C405 C 0.25117 0.89349 0.50001 0.0
O406 O 0.18925 0.86375 0.52544 0.0
O407 O 0.17856 0.91223 0.52449 0.0
O408 O 0.19906 0.84778 0.47684 0.0
O409 O 0.18011 0.88511 0.49062 0.0
Co410 Co 0.16614 0.71128 0.75958 0.0
O411 O 0.13709 0.74125 0.756 0.0
O412 O 0.18529 0.74742 0.75307 0.0
C413 C 0.1469 0.69492 0.78391 0.0
O414 O 0.20284 0.68599 0.76303 0.0
Co415 Co 0.14889 0.6452 0.76116 0.0
O416 O 0.18821 0.64144 0.77172 0.0
C417 C 0.15412 0.67454 0.72821 0.0
C418 C 0.15892 0.75863 0.75259 0.0
C419 C 0.20825 0.66054 0.7693 0.0
O420 O 0.16296 0.69849 0.73526 0.0
O421 O 0.14628 0.65171 0.73638 0.0
O422 O 0.16382 0.71796 0.7839 0.0
O423 O 0.14044 0.68427 0.76933 0.0
Co424 Co 0.86352 0.20746 0.49429 0.0
O425 O 0.89438 0.23614 0.49545 0.0
O426 O 0.84815 0.24398 0.50329 0.0
C427 C 0.87415 0.1917 0.46811 0.0
O428 O 0.82549 0.18346 0.49401 0.0
Co429 Co 0.87906 0.14118 0.49033 0.0
O430 O 0.83611 0.13669 0.48697 0.0
C431 C 0.88463 0.16973 0.52353 0.0
C432 C 0.87475 0.25414 0.50133 0.0
C433 C 0.81768 0.15701 0.4903 0.0
O434 O 0.87349 0.19362 0.51773 0.0
O435 O 0.89025 0.14722 0.51441 0.0
O436 O 0.85846 0.21527 0.47032 0.0
O437 O 0.88491 0.18021 0.48157 0.0
Co438 Co 0.82891 0.36987 0.75017 0.0
O439 O 0.79782 0.39792 0.7531 0.0
O440 O 0.79299 0.34996 0.75674 0.0
C441 C 0.84516 0.38839 0.72571 0.0
O442 O 0.85571 0.33414 0.74732 0.0
Co443 Co 0.89454 0.38947 0.74875 0.0
O444 O 0.89974 0.3503 0.7383 0.0
C445 C 0.86444 0.38487 0.78159 0.0
C446 C 0.78092 0.37589 0.75672 0.0
C447 C 0.88137 0.32965 0.74085 0.0
O448 O 0.84094 0.37481 0.7745 0.0
O449 O 0.88733 0.39305 0.77347 0.0
O450 O 0.82288 0.37044 0.72581 0.0
O451 O 0.8552 0.39607 0.74024 0.0
Co452 Co 0.67054 0.32864 0.99712 0.0
O453 O 0.64276 0.29694 0.99749 0.0
O454 O 0.69006 0.29296 0.00417 0.0
C455 C 0.6566 0.34654 0.97203 0.0
O456 O 0.70589 0.3564 0.99737 0.0
Co457 Co 0.64803 0.39329 0.99666 0.0
O458 O 0.68975 0.40179 0.99107 0.0
C459 C 0.64177 0.35748 0.02706 0.0
C460 C 0.66444 0.28042 0.00233 0.0
C461 C 0.71055 0.38343 0.99346 0.0
O462 O 0.6603 0.33866 0.02119 0.0
O463 O 0.63173 0.37899 0.0185 0.0
O464 O 0.67457 0.32433 0.97266 0.0
O465 O 0.64592 0.35503 0.98622 0.0
Co466 Co 0.69331 0.18226 0.25607 0.0
O467 O 0.65859 0.20562 0.25269 0.0
O468 O 0.70425 0.22009 0.24713 0.0
C469 C 0.68186 0.16676 0.28208 0.0
O470 O 0.73445 0.16467 0.25842 0.0
Co471 Co 0.68815 0.11469 0.26089 0.0
O472 O 0.73084 0.11716 0.26577 0.0
C473 C 0.68144 0.13998 0.22705 0.0
C474 C 0.67619 0.22598 0.24735 0.0
C475 C 0.74605 0.14006 0.26278 0.0
O476 O 0.68881 0.1655 0.23265 0.0
O477 O 0.67803 0.11757 0.23648 0.0
O478 O 0.69381 0.19238 0.27993 0.0
O479 O 0.67477 0.15278 0.26851 0.0
H480 H 0.16495 0.92904 0.31471 0.0
H481 H 0.13617 0.94983 0.26447 0.0
H482 H 0.2046 0.89866 0.30326 0.0
H483 H 0.17599 0.91944 0.25296 0.0
H484 H 0.27887 0.9089 0.24577 0.0
H485 H 0.23152 0.92903 0.25443 0.0
H486 H 0.21612 0.85291 0.28527 0.0
H487 H 0.26372 0.83244 0.27643 0.0
C488 C 0.16692 0.92671 0.30121 0.0
C489 C 0.1478 0.94193 0.29044 0.0
C490 C 0.18939 0.90915 0.29467 0.0
C491 C 0.19338 0.90683 0.27723 0.0
C492 C 0.17342 0.92101 0.26645 0.0
C493 C 0.15064 0.93826 0.27301 0.0
C494 C 0.26525 0.89626 0.25424 0.0
C495 C 0.27504 0.86922 0.26055 0.0
C496 C 0.23802 0.90768 0.25907 0.0
C497 C 0.22018 0.8925 0.27049 0.0
C498 C 0.22955 0.86505 0.27647 0.0
C499 C 0.25668 0.85335 0.2714 0.0
H500 H 0.0727 0.64658 0.51186 0.0
H501 H 0.12659 0.64955 0.55666 0.0
H502 H 0.09742 0.69058 0.50151 0.0
H503 H 0.1513 0.69315 0.54628 0.0
H504 H 0.20604 0.7586 0.51732 0.0
H505 H 0.18453 0.71107 0.52428 0.0
H506 H 0.09855 0.74287 0.50962 0.0
H507 H 0.12006 0.79017 0.50244 0.0
C508 C 0.08986 0.65654 0.51946 0.0
C509 C 0.09767 0.64454 0.53507 0.0
C510 C 0.10402 0.68169 0.51353 0.0
C511 C 0.1263 0.69532 0.52309 0.0
C512 C 0.13458 0.6829 0.53849 0.0
C513 C 0.1204 0.65785 0.54443 0.0
C514 C 0.18259 0.75535 0.51547 0.0
C515 C 0.1647 0.77816 0.50944 0.0
C516 C 0.17027 0.72818 0.51951 0.0
C517 C 0.13984 0.72326 0.51754 0.0
C518 C 0.12212 0.74586 0.51109 0.0
C519 C 0.13441 0.77303 0.5071 0.0
H520 H 0.35684 0.54952 0.78727 0.0
H521 H 0.3989 0.63427 0.78249 0.0
H522 H 0.3096 0.57151 0.78105 0.0
H523 H 0.35086 0.65674 0.77745 0.0
H524 H 0.25917 0.68106 0.75489 0.0
H525 H 0.30908 0.66161 0.75869 0.0
H526 H 0.27622 0.60159 0.79612 0.0
H527 H 0.22666 0.62015 0.79188 0.0
C528 C 0.35619 0.5728 0.78468 0.0
C529 C 0.38187 0.59005 0.78547 0.0
C530 C 0.32886 0.58557 0.78143 0.0
C531 C 0.32627 0.61603 0.77916 0.0
C532 C 0.35203 0.63321 0.77919 0.0
C533 C 0.37955 0.62034 0.78226 0.0
C534 C 0.26279 0.66391 0.76403 0.0
C535 C 0.23899 0.65185 0.77293 0.0
C536 C 0.29135 0.65277 0.76621 0.0
C537 C 0.29658 0.62958 0.77745 0.0
C538 C 0.2729 0.61874 0.78695 0.0
C539 C 0.24447 0.62956 0.78463 0.0
H540 H 0.42738 0.87857 0.06275 0.0
H541 H 0.46209 0.89536 0.01333 0.0
H542 H 0.40148 0.83528 0.05201 0.0
H543 H 0.43644 0.85167 0.00254 0.0
H544 H 0.43459 0.74707 0.00559 0.0
H545 H 0.44871 0.79795 0.01066 0.0
H546 H 0.3621 0.81608 0.03059 0.0
H547 H 0.34766 0.76491 0.02524 0.0
C548 C 0.42886 0.87326 0.0495 0.0
C549 C 0.44676 0.89001 0.03885 0.0
C550 C 0.41393 0.84867 0.04334 0.0
C551 C 0.41706 0.84014 0.02647 0.0
C552 C 0.43374 0.85782 0.01561 0.0
C553 C 0.44829 0.88276 0.02173 0.0
C554 C 0.41839 0.76201 0.01081 0.0
C555 C 0.39013 0.75202 0.01518 0.0
C556 C 0.42639 0.79119 0.01355 0.0
C557 C 0.40647 0.81089 0.02099 0.0
C558 C 0.37782 0.80125 0.02483 0.0
C559 C 0.36958 0.77208 0.02175 0.0
H560 H 0.10818 0.59024 0.99476 0.0
H561 H 0.13243 0.62019 0.94535 0.0
H562 H 0.15282 0.61291 0.00641 0.0
H563 H 0.17696 0.64278 0.95693 0.0
H564 H 0.25627 0.61332 0.01074 0.0
H565 H 0.20663 0.59913 0.00221 0.0
H566 H 0.19574 0.68223 0.97713 0.0
H567 H 0.24562 0.69663 0.98579 0.0
C568 C 0.12278 0.60215 0.98647 0.0
C569 C 0.11708 0.60328 0.96916 0.0
C570 C 0.14835 0.61495 0.9931 0.0
C571 C 0.1684 0.62946 0.98254 0.0
C572 C 0.16182 0.63192 0.96537 0.0
C573 C 0.1365 0.61881 0.95873 0.0
C574 C 0.24322 0.6287 0.00353 0.0
C575 C 0.25488 0.65601 -0.00117 0.0
C576 C 0.2147 0.62066 -0.00123 0.0
C577 C 0.19733 0.6396 0.98904 0.0
C578 C 0.20874 0.66718 0.98459 0.0
C579 C 0.2372 0.67542 0.98957 0.0
H580 H 0.46324 0.6141 0.24632 0.0
H581 H 0.41141 0.62609 0.20127 0.0
H582 H 0.44606 0.66149 0.2569 0.0
H583 H 0.39383 0.67301 0.21205 0.0
H584 H 0.35648 0.75169 0.24013 0.0
H585 H 0.36542 0.69934 0.23514 0.0
H586 H 0.45785 0.71203 0.24614 0.0
H587 H 0.44907 0.76403 0.25107 0.0
C588 C 0.44793 0.62664 0.23877 0.0
C589 C 0.43904 0.61646 0.22284 0.0
C590 C 0.43801 0.65368 0.24486 0.0
C591 C 0.4188 0.67098 0.23523 0.0
C592 C 0.4084 0.66 0.21982 0.0
C593 C 0.41848 0.63306 0.21365 0.0
C594 C 0.3786 0.74316 0.24174 0.0
C595 C 0.40213 0.76201 0.24585 0.0
C596 C 0.3837 0.71327 0.23883 0.0
C597 C 0.41231 0.70166 0.24025 0.0
C598 C 0.43552 0.72028 0.24513 0.0
C599 C 0.43052 0.75013 0.2478 0.0
H600 H 0.41298 0.90239 0.45132 0.0
H601 H 0.4363 0.94372 0.49834 0.0
H602 H 0.36773 0.88351 0.46382 0.0
H603 H 0.39075 0.92497 0.51096 0.0
H604 H 0.28701 0.9396 0.50748 0.0
H605 H 0.33986 0.94332 0.50287 0.0
H606 H 0.34204 0.85301 0.48618 0.0
H607 H 0.28879 0.84916 0.49089 0.0
C608 C 0.40878 0.90652 0.46451 0.0
C609 C 0.42779 0.92455 0.4739 0.0
C610 C 0.38301 0.89563 0.4717 0.0
C611 C 0.37564 0.90301 0.48831 0.0
C612 C 0.39589 0.91912 0.49809 0.0
C613 C 0.42193 0.9297 0.49094 0.0
C614 C 0.2988 0.92037 0.50309 0.0
C615 C 0.2837 0.89423 0.4993 0.0
C616 C 0.32915 0.92239 0.50065 0.0
C617 C 0.34504 0.89843 0.49418 0.0
C618 C 0.33026 0.87179 0.49117 0.0
C619 C 0.29984 0.86962 0.49387 0.0
H620 H 0.1225 0.9111 0.69512 0.0
H621 H 0.09381 0.93813 0.74445 0.0
H622 H 0.14515 0.86721 0.70706 0.0
H623 H 0.11635 0.89399 0.75647 0.0
H624 H 0.19551 0.79682 0.73619 0.0
H625 H 0.18428 0.84741 0.72783 0.0
H626 H 0.09915 0.84085 0.75172 0.0
H627 H 0.11009 0.79055 0.75981 0.0
C628 C 0.12163 0.90786 0.70858 0.0
C629 C 0.10627 0.92772 0.71889 0.0
C630 C 0.13473 0.88291 0.71542 0.0
C631 C 0.13232 0.87716 0.73266 0.0
C632 C 0.11836 0.89789 0.74311 0.0
C633 C 0.10562 0.92313 0.73629 0.0
C634 C 0.17457 0.80637 0.73978 0.0
C635 C 0.15356 0.78973 0.7485 0.0
C636 C 0.16816 0.83524 0.735 0.0
C637 C 0.14092 0.84803 0.73922 0.0
C638 C 0.12047 0.83169 0.7485 0.0
C639 C 0.12663 0.80279 0.75298 0.0
H640 H 0.59986 0.43888 0.76332 0.0
H641 H 0.62722 0.41477 0.81332 0.0
H642 H 0.64421 0.41559 0.75182 0.0
H643 H 0.67145 0.39153 0.80187 0.0
H644 H 0.74323 0.34019 0.77421 0.0
H645 H 0.69215 0.35125 0.78234 0.0
H646 H 0.69707 0.43339 0.75569 0.0
H647 H 0.74773 0.42263 0.74781 0.0
C648 C 0.61499 0.42796 0.77178 0.0
C649 C 0.6104 0.42887 0.78919 0.0
C650 C 0.64037 0.41477 0.76523 0.0
C651 C 0.66131 0.40194 0.77598 0.0
C652 C 0.6556 0.40106 0.79329 0.0
C653 C 0.63046 0.41456 0.79984 0.0
C654 C 0.73317 0.36039 0.76995 0.0
C655 C 0.74946 0.38068 0.76053 0.0
C656 C 0.70404 0.36671 0.7746 0.0
C657 C 0.69066 0.39311 0.76957 0.0
C658 C 0.70665 0.41271 0.75955 0.0
C659 C 0.73577 0.40666 0.75519 0.0
H660 H 0.59768 0.10169 0.00774 0.0
H661 H 0.64159 0.11841 0.05502 0.0
H662 H 0.61717 0.14766 0.99674 0.0
H663 H 0.66094 0.16435 0.04406 0.0
H664 H 0.70283 0.24091 0.01643 0.0
H665 H 0.69271 0.1896 0.02355 0.0
H666 H 0.60463 0.19835 0.00339 0.0
H667 H 0.61477 0.24898 0.99615 0.0
C668 C 0.61173 0.11504 0.01571 0.0
C669 C 0.61784 0.10659 0.03229 0.0
C670 C 0.6229 0.14134 0.00942 0.0
C671 C 0.64031 0.15981 0.0196 0.0
C672 C 0.64783 0.15051 0.03585 0.0
C673 C 0.63671 0.12417 0.04213 0.0
C674 C 0.68146 0.23169 0.01338 0.0
C675 C 0.65955 0.24899 0.00583 0.0
C676 C 0.67564 0.20239 0.0175 0.0
C677 C 0.6479 0.18989 0.01398 0.0
C678 C 0.62638 0.2071 0.00602 0.0
C679 C 0.63212 0.23626 0.00201 0.0
H680 H 0.92923 0.08453 0.25838 0.0
H681 H 0.9209 0.13873 0.30284 0.0
H682 H 0.87967 0.09897 0.24969 0.0
H683 H 0.87174 0.15354 0.29391 0.0
H684 H 0.78663 0.18404 0.26786 0.0
H685 H 0.84016 0.17856 0.27131 0.0
H686 H 0.83173 0.08502 0.26374 0.0
H687 H 0.77876 0.09032 0.26041 0.0
C688 C 0.91705 0.09985 0.26616 0.0
C689 C 0.92889 0.11013 0.28142 0.0
C690 C 0.88875 0.10819 0.26114 0.0
C691 C 0.87182 0.12714 0.27122 0.0
C692 C 0.88442 0.13911 0.28583 0.0
C693 C 0.91264 0.13061 0.29092 0.0
C694 C 0.79633 0.16239 0.26679 0.0
C695 C 0.77848 0.13758 0.26402 0.0
C696 C 0.82687 0.15927 0.26878 0.0
C697 C 0.84005 0.1314 0.26768 0.0
C698 C 0.82225 0.10682 0.2644 0.0
C699 C 0.79184 0.10984 0.26269 0.0
H700 H 0.89807 0.43508 0.53856 0.0
H701 H 0.98374 0.3943 0.53438 0.0
H702 H 0.87543 0.39169 0.52552 0.0
H703 H 0.96131 0.35089 0.52221 0.0
H704 H 0.92084 0.28484 0.48904 0.0
H705 H 0.93794 0.33318 0.49757 0.0
H706 H 0.86506 0.34042 0.53226 0.0
H707 H 0.84718 0.29215 0.52307 0.0
C708 C 0.91205 0.41698 0.53474 0.0
C709 C 0.94265 0.41799 0.5376 0.0
C710 C 0.89908 0.39204 0.52745 0.0
C711 C 0.91653 0.36779 0.52281 0.0
C712 C 0.94718 0.36926 0.52537 0.0
C713 C 0.96005 0.39404 0.53257 0.0
C714 C 0.90829 0.29686 0.49837 0.0
C715 C 0.88295 0.2846 0.50559 0.0
C716 C 0.91815 0.32454 0.50331 0.0
C717 C 0.90324 0.34046 0.51585 0.0
C718 C 0.87701 0.3288 0.52252 0.0
C719 C 0.86684 0.30112 0.51735 0.0
H720 H 0.64608 0.07144 0.49504 0.0
H721 H 0.64781 0.12291 0.44961 0.0
H722 H 0.69201 0.09459 0.50416 0.0
H723 H 0.69325 0.14635 0.45892 0.0
H724 H 0.77027 0.19307 0.4844 0.0
H725 H 0.71853 0.17821 0.48101 0.0
H726 H 0.74252 0.08856 0.49186 0.0
H727 H 0.79371 0.10319 0.49518 0.0
C728 C 0.65602 0.08791 0.4871 0.0
C729 C 0.64343 0.09502 0.47149 0.0
C730 C 0.68222 0.10126 0.49236 0.0
C731 C 0.69626 0.12212 0.4822 0.0
C732 C 0.68274 0.13059 0.46711 0.0
C733 C 0.65666 0.11712 0.46178 0.0
C734 C 0.76431 0.1703 0.48629 0.0
C735 C 0.78604 0.14924 0.48987 0.0
C736 C 0.7348 0.16181 0.48431 0.0
C737 C 0.72654 0.13225 0.4862 0.0
C738 C 0.74813 0.11154 0.49053 0.0
C739 C 0.77753 0.1199 0.49225 0.0
H740 H 0.90571 0.14145 0.72125 0.0
H741 H 0.99175 0.18179 0.71735 0.0
H742 H 0.88432 0.18913 0.72811 0.0
H743 H 0.97083 0.2286 0.72538 0.0
H744 H 0.92303 0.31335 0.71827 0.0
H745 H 0.94138 0.26444 0.71231 0.0
H746 H 0.88037 0.22835 0.74838 0.0
H747 H 0.8611 0.27767 0.7539 0.0
C748 C 0.92014 0.16034 0.72202 0.0
C749 C 0.95049 0.15765 0.71858 0.0
C750 C 0.9079 0.18765 0.72616 0.0
C751 C 0.92575 0.21285 0.72706 0.0
C752 C 0.95625 0.20984 0.7244 0.0
C753 C 0.96839 0.18273 0.72009 0.0
C754 C 0.91344 0.295 0.72493 0.0
C755 C 0.89082 0.29941 0.73669 0.0
C756 C 0.92413 0.26691 0.7216 0.0
C757 C 0.91282 0.24243 0.73012 0.0
C758 C 0.88954 0.24669 0.74156 0.0
C759 C 0.87854 0.27492 0.74475 0.0
H760 H 0.89987 0.40567 0.97786 0.0
H761 H 0.8632 0.49334 0.97831 0.0
H762 H 0.85146 0.38577 0.9844 0.0
H763 H 0.81589 0.47371 0.98635 0.0
H764 H 0.72872 0.4307 0.97568 0.0
H765 H 0.77835 0.44905 0.97213 0.0
H766 H 0.81177 0.37938 0.00354 0.0
H767 H 0.76164 0.36012 0.00648 0.0
C768 C 0.8817 0.42079 0.97957 0.0
C769 C 0.88562 0.45118 0.97723 0.0
C770 C 0.85394 0.40935 0.98358 0.0
C771 C 0.82951 0.42805 0.98559 0.0
C772 C 0.83394 0.45851 0.98442 0.0
C773 C 0.86144 0.46988 0.98012 0.0
C774 C 0.74659 0.41929 0.98191 0.0
C775 C 0.74119 0.39405 0.99146 0.0
C776 C 0.77515 0.42998 0.97998 0.0
C777 C 0.79918 0.41606 0.98779 0.0
C778 C 0.79386 0.3906 0.99727 0.0
C779 C 0.76514 0.37959 -0.00099 0.0
H780 H 0.55804 0.36958 0.22692 0.0
H781 H 0.64324 0.40551 0.2138 0.0
H782 H 0.5815 0.3252 0.23637 0.0
H783 H 0.66641 0.3595 0.22149 0.0
H784 H 0.70305 0.2796 0.24909 0.0
H785 H 0.68146 0.32718 0.24219 0.0
H786 H 0.60185 0.28335 0.22546 0.0
H787 H 0.62277 0.23647 0.23351 0.0
C788 C 0.58182 0.36826 0.22611 0.0
C789 C 0.59857 0.39145 0.21947 0.0
C790 C 0.59531 0.34228 0.23119 0.0
C791 C 0.62589 0.33823 0.22936 0.0
C792 C 0.64283 0.36167 0.22317 0.0
C793 C 0.62939 0.38803 0.21847 0.0
C794 C 0.68095 0.28035 0.24391 0.0
C795 C 0.66443 0.25452 0.24194 0.0
C796 C 0.66857 0.30758 0.23988 0.0
C797 C 0.63965 0.30938 0.23344 0.0
C798 C 0.62373 0.28317 0.23092 0.0
C799 C 0.63581 0.25616 0.23535 0.0
H800 H 0.10629 0.99204 0.40801 0.0
H801 H 0.1556 0.93719 0.3738 0.0
H802 H 0.12725 0.96604 0.43169 0.0
H803 H 0.17773 0.91152 0.39765 0.0
H804 H 0.1816 0.85141 0.44475 0.0
H805 H 0.1667 0.87784 0.4195 0.0
H806 H 0.17052 0.95966 0.44721 0.0
H807 H 0.18374 0.93302 0.47248 0.0
C808 C 0.12211 0.9747 0.4056 0.0
C809 C 0.12951 0.96676 0.3891 0.0
C810 C 0.13429 0.95984 0.41918 0.0
C811 C 0.15455 0.93685 0.41665 0.0
C812 C 0.16204 0.92893 0.40009 0.0
C813 C 0.14949 0.94365 0.38643 0.0
C814 C 0.17953 0.87508 0.44532 0.0
C815 C 0.18335 0.89017 0.46058 0.0
C816 C 0.17112 0.89028 0.43084 0.0
C817 C 0.16686 0.92089 0.43135 0.0
C818 C 0.17265 0.93602 0.44645 0.0
C819 C 0.18045 0.9208 0.46093 0.0
H820 H 0.0676 0.65747 0.63584 0.0
H821 H 0.14923 0.61212 0.6255 0.0
H822 H 0.0897 0.67969 0.66079 0.0
H823 H 0.17136 0.63438 0.65047 0.0
H824 H 0.16619 0.62691 0.70917 0.0
H825 H 0.15705 0.6201 0.67939 0.0
H826 H 0.129 0.71044 0.6755 0.0
H827 H 0.13853 0.71734 0.70569 0.0
C828 C 0.0906 0.65312 0.63854 0.0
C829 C 0.10651 0.63259 0.62892 0.0
C830 C 0.10329 0.6659 0.65283 0.0
C831 C 0.13209 0.65835 0.65773 0.0
C832 C 0.14894 0.64019 0.64714 0.0
C833 C 0.13627 0.62742 0.63288 0.0
C834 C 0.15861 0.6455 0.70192 0.0
C835 C 0.15276 0.67255 0.70973 0.0
C836 C 0.15364 0.6417 0.6848 0.0
C837 C 0.14232 0.66475 0.67508 0.0
C838 C 0.1377 0.6923 0.68271 0.0
C839 C 0.14323 0.69627 0.69992 0.0
H840 H 0.42267 0.64514 0.87515 0.0
H841 H 0.3788 0.56369 0.8869 0.0
H842 H 0.40317 0.66712 0.90084 0.0
H843 H 0.35913 0.5858 0.91257 0.0
H844 H 0.32448 0.63955 0.95771 0.0
H845 H 0.32915 0.62726 0.92768 0.0
H846 H 0.42132 0.65099 0.92954 0.0
H847 H 0.41683 0.66268 0.9592 0.0
C848 C 0.40821 0.63219 0.883 0.0
C849 C 0.40276 0.60253 0.87921 0.0
C850 C 0.39702 0.64478 0.89767 0.0
C851 C 0.38009 0.62798 0.90881 0.0
C852 C 0.37205 0.59928 0.90417 0.0
C853 C 0.38332 0.58662 0.88947 0.0
C854 C 0.34556 0.64248 0.95156 0.0
C855 C 0.37038 0.65178 0.96077 0.0
C856 C 0.34822 0.63542 0.93445 0.0
C857 C 0.37554 0.63837 0.92628 0.0
C858 C 0.39989 0.64891 0.93541 0.0
C859 C 0.39739 0.65532 0.95245 0.0
H860 H 0.48612 0.87713 0.13886 0.0
H861 H 0.4148 0.93947 0.13364 0.0
H862 H 0.46033 0.85426 0.16226 0.0
H863 H 0.38869 0.91575 0.15661 0.0
H864 H 0.34267 0.85238 0.19313 0.0
H865 H 0.36555 0.8658 0.16632 0.0
H866 H 0.44927 0.87696 0.19147 0.0
H867 H 0.4265 0.86415 0.21812 0.0
C868 C 0.46486 0.88581 0.14257 0.0
C869 C 0.45279 0.91048 0.13451 0.0
C870 C 0.45005 0.87255 0.15588 0.0
C871 C 0.42264 0.88336 0.16124 0.0
C872 C 0.40969 0.90683 0.15259 0.0
C873 C 0.42467 0.92037 0.13941 0.0
C874 C 0.36604 0.85732 0.19283 0.0
C875 C 0.38282 0.85741 0.20767 0.0
C876 C 0.37904 0.86507 0.17755 0.0
C877 C 0.40913 0.87235 0.17688 0.0
C878 C 0.4261 0.87116 0.19162 0.0
C879 C 0.41302 0.86401 0.20688 0.0
H880 H 0.04254 0.59386 0.85254 0.0
H881 H 0.11081 0.62773 0.88508 0.0
H882 H 0.06297 0.62105 0.82912 0.0
H883 H 0.13238 0.65427 0.86134 0.0
H884 H 0.14729 0.71683 0.8161 0.0
H885 H 0.12685 0.69354 0.84121 0.0
H886 H 0.10439 0.61694 0.81156 0.0
H887 H 0.12334 0.64055 0.78669 0.0
C888 C 0.0621 0.60708 0.8546 0.0
C889 C 0.07537 0.60846 0.87049 0.0
C890 C 0.07396 0.62254 0.84118 0.0
C891 C 0.09974 0.63938 0.84322 0.0
C892 C 0.11248 0.64158 0.85932 0.0
C893 C 0.10026 0.62635 0.87289 0.0
C894 C 0.13799 0.695 0.81506 0.0
C895 C 0.13663 0.68063 0.79942 0.0
C896 C 0.1264 0.6816 0.82942 0.0
C897 C 0.11351 0.65353 0.82838 0.0
C898 C 0.11329 0.6389 0.81279 0.0
C899 C 0.12443 0.65237 0.7985 0.0
H900 H 0.38516 0.57809 0.12934 0.0
H901 H 0.46895 0.61826 0.11788 0.0
H902 H 0.36267 0.60336 0.10553 0.0
H903 H 0.4464 0.64376 0.09419 0.0
H904 H 0.4052 0.6385 0.04033 0.0
H905 H 0.42729 0.62349 0.06682 0.0
H906 H 0.34978 0.65314 0.09338 0.0
H907 H 0.32757 0.66837 0.06673 0.0
C908 C 0.39862 0.5927 0.12188 0.0
C909 C 0.42883 0.59605 0.12538 0.0
C910 C 0.38571 0.60733 0.10835 0.0
C911 C 0.40285 0.62536 0.09795 0.0
C912 C 0.43274 0.62979 0.10192 0.0
C913 C 0.44557 0.61539 0.11555 0.0
C914 C 0.39297 0.64212 0.05182 0.0
C915 C 0.3646 0.65446 0.05146 0.0
C916 C 0.40572 0.63372 0.06701 0.0
C917 C 0.39026 0.63718 0.08216 0.0
C918 C 0.36212 0.65011 0.08187 0.0
C919 C 0.34948 0.65888 0.06664 0.0
H920 H 0.46285 0.89267 0.37385 0.0
H921 H 0.40186 0.96558 0.37222 0.0
H922 H 0.4386 0.87095 0.34939 0.0
H923 H 0.37873 0.94435 0.34727 0.0
H924 H 0.40226 0.92186 0.28936 0.0
H925 H 0.41027 0.93833 0.31823 0.0
H926 H 0.38418 0.8531 0.33637 0.0
H927 H 0.37504 0.83684 0.30726 0.0
C928 C 0.4438 0.90369 0.36863 0.0
C929 C 0.43473 0.93123 0.37483 0.0
C930 C 0.42995 0.89121 0.3546 0.0
C931 C 0.40704 0.90618 0.34644 0.0
C932 C 0.39651 0.93254 0.35333 0.0
C933 C 0.40999 0.94478 0.3675 0.0
C934 C 0.3976 0.90688 0.29954 0.0
C935 C 0.38806 0.87817 0.29619 0.0
C936 C 0.40204 0.91631 0.31602 0.0
C937 C 0.39774 0.89696 0.32944 0.0
C938 C 0.38747 0.86839 0.32617 0.0
C939 C 0.38219 0.85918 0.30961 0.0
H940 H 0.07904 0.90476 0.62439 0.0
H941 H 0.13889 0.97806 0.62033 0.0
H942 H 0.10512 0.87954 0.6017 0.0
H943 H 0.1644 0.9535 0.59748 0.0
H944 H 0.21318 0.90399 0.55924 0.0
H945 H 0.19469 0.91506 0.58742 0.0
H946 H 0.10782 0.88585 0.57218 0.0
H947 H 0.12693 0.87373 0.54439 0.0
C948 C 0.09793 0.91533 0.61872 0.0
C949 C 0.10684 0.94342 0.62404 0.0
C950 C 0.11284 0.90095 0.60572 0.0
C951 C 0.13678 0.91451 0.59764 0.0
C952 C 0.14644 0.94206 0.60354 0.0
C953 C 0.13172 0.95628 0.61663 0.0
C954 C 0.19042 0.89903 0.56223 0.0
C955 C 0.17141 0.88788 0.54988 0.0
C956 C 0.17971 0.90565 0.57825 0.0
C957 C 0.14963 0.90179 0.58203 0.0
C958 C 0.13114 0.88881 0.56985 0.0
C959 C 0.14198 0.88191 0.55391 0.0
H960 H 0.55253 0.44897 0.90566 0.0
H961 H 0.61454 0.41137 0.87062 0.0
H962 H 0.57619 0.42303 0.92857 0.0
H963 H 0.63937 0.38594 0.89381 0.0
H964 H 0.65554 0.324 0.94003 0.0
H965 H 0.6351 0.34774 0.91498 0.0
H966 H 0.62058 0.42699 0.9439 0.0
H967 H 0.63938 0.40297 0.96874 0.0
C968 C 0.57147 0.43526 0.90294 0.0
C969 C 0.58202 0.43243 0.88649 0.0
C970 C 0.58518 0.42051 0.91605 0.0
C971 C 0.61015 0.40292 0.91311 0.0
C972 C 0.6202 0.39931 0.89651 0.0
C973 C 0.60611 0.41387 0.88326 0.0
C974 C 0.64821 0.34659 0.94088 0.0
C975 C 0.64857 0.36153 0.95634 0.0
C976 C 0.63658 0.3602 0.92656 0.0
C977 C 0.62554 0.38905 0.92753 0.0
C978 C 0.62789 0.40443 0.94281 0.0
C979 C 0.63892 0.39073 0.95707 0.0
H980 H 0.66908 0.07144 0.1256 0.0
H981 H 0.58865 0.11942 0.13511 0.0
H982 H 0.69127 0.09326 0.15067 0.0
H983 H 0.61089 0.1413 0.16017 0.0
H984 H 0.66397 0.18081 0.20378 0.0
H985 H 0.65174 0.17174 0.17412 0.0
H986 H 0.67603 0.08069 0.17993 0.0
H987 H 0.68798 0.08958 0.20923 0.0
C988 C 0.6564 0.08717 0.13284 0.0
C989 C 0.62696 0.09329 0.1286 0.0
C990 C 0.6691 0.09966 0.14716 0.0
C991 C 0.65261 0.11855 0.15751 0.0
C992 C 0.62416 0.1269 0.15239 0.0
C993 C 0.61142 0.11435 0.13804 0.0
C994 C 0.66707 0.15901 0.19858 0.0
C995 C 0.67666 0.13583 0.20883 0.0
C996 C 0.66002 0.15383 0.18168 0.0
C997 C 0.66309 0.12556 0.17471 0.0
C998 C 0.67385 0.10281 0.18485 0.0
C999 C 0.6804 0.10783 0.2017 0.0
H1000 H 0.95958 0.16843 0.37388 0.0
H1001 H 0.92058 0.08316 0.38191 0.0
H1002 H 0.932 0.18799 0.39778 0.0
H1003 H 0.89268 0.10284 0.40559 0.0
H1004 H 0.8968 0.13793 0.46092 0.0
H1005 H 0.91198 0.11899 0.43365 0.0
H1006 H 0.88148 0.19859 0.41008 0.0
H1007 H 0.86607 0.21764 0.43754 0.0
C1008 C 0.94468 0.15405 0.38055 0.0
C1009 C 0.94244 0.12423 0.37613 0.0
C1010 C 0.92871 0.16529 0.39413 0.0
C1011 C 0.91041 0.14685 0.40362 0.0
C1012 C 0.90685 0.11746 0.39858 0.0
C1013 C 0.92263 0.10628 0.38494 0.0
C1014 C 0.89295 0.15125 0.44991 0.0
C1015 C 0.88044 0.17932 0.45135 0.0
C1016 C 0.90144 0.14031 0.43427 0.0
C1017 C 0.89789 0.15732 0.41974 0.0
C1018 C 0.88457 0.18509 0.4211 0.0
C1019 C 0.87569 0.19591 0.43677 0.0
H1020 H 0.90172 0.43501 0.62424 0.0
H1021 H 0.97468 0.45558 0.65735 0.0
H1022 H 0.87379 0.41665 0.64813 0.0
H1023 H 0.94792 0.43512 0.6807 0.0
H1024 H 0.88221 0.43437 0.7224 0.0
H1025 H 0.90828 0.45012 0.6975 0.0
H1026 H 0.8686 0.3792 0.66908 0.0
H1027 H 0.84127 0.3642 0.69413 0.0
C1028 C 0.91197 0.43538 0.63653 0.0
C1029 C 0.94046 0.44708 0.6388 0.0
C1030 C 0.89607 0.42446 0.6502 0.0
C1031 C 0.90841 0.42477 0.66641 0.0
C1032 C 0.93738 0.43518 0.66849 0.0
C1033 C 0.95303 0.44645 0.65495 0.0
C1034 C 0.87896 0.42217 0.71083 0.0
C1035 C 0.85985 0.398 0.7102 0.0
C1036 C 0.89412 0.43104 0.69655 0.0
C1037 C 0.891 0.41563 0.6813 0.0
C1038 C 0.87141 0.39166 0.68058 0.0
C1039 C 0.85584 0.383 0.69491 0.0
H1040 H 0.60356 0.13772 0.3781 0.0
H1041 H 0.64999 0.05638 0.3692 0.0
H1042 H 0.62695 0.15906 0.35342 0.0
H1043 H 0.67378 0.07788 0.34468 0.0
H1044 H 0.6645 0.11117 0.28953 0.0
H1045 H 0.65213 0.09144 0.31697 0.0
H1046 H 0.67458 0.17446 0.34011 0.0
H1047 H 0.687 0.19433 0.31251 0.0
C1048 C 0.6192 0.12462 0.37104 0.0
C1049 C 0.62476 0.09533 0.37547 0.0
C1050 C 0.63276 0.1369 0.35699 0.0
C1051 C 0.65198 0.12003 0.34704 0.0
C1052 C 0.6588 0.09127 0.35202 0.0
C1053 C 0.6454 0.07907 0.36614 0.0
C1054 C 0.6671 0.12514 0.30047 0.0
C1055 C 0.67652 0.15434 0.29887 0.0
C1056 C 0.66024 0.11376 0.31622 0.0
C1057 C 0.66243 0.1314 0.33069 0.0
C1058 C 0.67255 0.16043 0.32915 0.0
C1059 C 0.6797 0.17175 0.31338 0.0
H1060 H 0.89607 0.11188 0.62652 0.0
H1061 H 0.97846 0.15552 0.61584 0.0
H1062 H 0.87496 0.13174 0.60076 0.0
H1063 H 0.95709 0.17571 0.59016 0.0
H1064 H 0.90156 0.21298 0.5458 0.0
H1065 H 0.91451 0.20663 0.57562 0.0
H1066 H 0.89298 0.11452 0.57172 0.0
H1067 H 0.88071 0.12063 0.54226 0.0
C1068 C 0.90943 0.12629 0.61888 0.0
C1069 C 0.93911 0.13162 0.623 0.0
C1070 C 0.89731 0.13772 0.60419 0.0
C1071 C 0.91457 0.15486 0.59338 0.0
C1072 C 0.94329 0.16264 0.59832 0.0
C1073 C 0.9555 0.15107 0.61302 0.0
C1074 C 0.89936 0.19151 0.55144 0.0
C1075 C 0.89041 0.16723 0.54172 0.0
C1076 C 0.90677 0.1879 0.56843 0.0
C1077 C 0.9045 0.16015 0.57596 0.0
C1078 C 0.89454 0.13624 0.56632 0.0
C1079 C 0.8878 0.13969 0.54939 0.0
H1080 H 0.87733 0.47371 0.87387 0.0
H1081 H 0.92135 0.39214 0.88526 0.0
H1082 H 0.85638 0.45153 0.84855 0.0
H1083 H 0.90052 0.37005 0.85988 0.0
H1084 H 0.91195 0.3751 0.80123 0.0
H1085 H 0.91729 0.3852 0.83105 0.0
H1086 H 0.82577 0.4111 0.83365 0.0
H1087 H 0.8203 0.40044 0.80346 0.0
C1088 C 0.88162 0.45073 0.87132 0.0
C1089 C 0.90146 0.43482 0.88135 0.0
C1090 C 0.86959 0.43802 0.8568 0.0
C1091 C 0.87726 0.40924 0.85211 0.0
C1092 C 0.89463 0.39244 0.86308 0.0
C1093 C 0.90659 0.40509 0.87757 0.0
C1094 C 0.8928 0.38243 0.80821 0.0
C1095 C 0.86579 0.38723 0.80005 0.0
C1096 C 0.89577 0.38796 0.82533 0.0
C1097 C 0.87191 0.39887 0.83469 0.0
C1098 C 0.84449 0.40267 0.8267 0.0
C1099 C 0.84134 0.39651 0.80951 0.0
H1100 H 0.54496 0.37368 0.12033 0.0
H1101 H 0.62872 0.41793 0.12547 0.0
H1102 H 0.56309 0.34822 0.09532 0.0
H1103 H 0.64672 0.39279 0.10037 0.0
H1104 H 0.67364 0.34065 0.05471 0.0
H1105 H 0.65841 0.3455 0.08421 0.0
H1106 H 0.5722 0.37427 0.06804 0.0
H1107 H 0.58742 0.36982 0.0389 0.0
C1108 C 0.56755 0.37721 0.11644 0.0
C1109 C 0.58529 0.39811 0.12465 0.0
C1110 C 0.57787 0.36276 0.10209 0.0
C1111 C 0.60617 0.36882 0.09579 0.0
C1112 C 0.62487 0.38757 0.10496 0.0
C1113 C 0.61448 0.40217 0.11923 0.0
C1114 C 0.65126 0.34732 0.05755 0.0
C1115 C 0.63177 0.35521 0.04461 0.0
C1116 C 0.64259 0.35016 0.07437 0.0
C1117 C 0.61412 0.36024 0.0784 0.0
C1118 C 0.59413 0.3661 0.06536 0.0
C1119 C 0.60293 0.36383 0.04867 0.0
loop_
_geom_bond_atom_site_label_1
_geom_bond_atom_site_label_2
_geom_bond_distance
_geom_bond_site_symmetry_2
_ccdc_geom_bond_type
C0 C1 1.384 . S
C0 C2 1.384 . S
C0 H28 0.931 . S
C1 C0 1.384 . S
C1 C4 1.362 1_565 S
C2 C0 1.384 . S
C2 C3 1.390 . S
C2 H29 0.930 . S
C3 C2 1.390 . S
C3 C5 1.377 1_565 S
C3 C6 1.483 1_565 S
C4 C1 1.362 1_545 S
C4 C5 1.397 . S
C4 H30 0.941 . S
C5 C3 1.377 1_545 S
C5 C4 1.397 . S
C5 H31 0.931 . S
C6 C3 1.483 1_545 S
C6 C13 1.399 . S
C6 N44 1.343 . S
C7 C8 1.384 . S
C7 C9 1.384 . S
C7 H32 0.931 . S
C8 C7 1.384 . S
C8 C11 1.382 . S
C9 C7 1.384 . S
C9 C10 1.381 . S
C9 H33 0.930 1_565 S
C10 C9 1.381 . S
C10 C12 1.381 . S
C10 C13 1.487 1_565 S
C11 C8 1.382 . S
C11 C12 1.387 . S
C11 H34 0.930 . S
C12 C10 1.381 . S
C12 C11 1.387 . S
C12 H35 0.931 . S
C13 C6 1.399 . S
C13 C10 1.487 1_545 S
C13 N45 1.343 . S
C14 C15 1.384 . S
C14 C16 1.384 . S
C14 H36 0.931 . S
C15 C14 1.384 . S
C15 C18 1.382 . S
C16 C14 1.384 . S
C16 C17 1.381 . S
C16 H37 0.930 . S
C17 C16 1.381 . S
C17 C19 1.381 . S
C17 C20 1.487 1_655 S
C18 C15 1.382 . S
C18 C19 1.387 . S
C18 H38 0.930 . S
C19 C17 1.381 . S
C19 C18 1.387 . S
C19 H39 0.931 . S
C20 C17 1.487 1_455 S
C20 C27 1.399 . S
C20 N45 1.343 . S
C21 C22 1.384 . S
C21 C23 1.384 . S
C21 H40 0.931 . S
C22 C21 1.384 . S
C22 C25 1.382 . S
C23 C21 1.384 . S
C23 C24 1.381 . S
C23 H41 0.930 . S
C24 C23 1.381 . S
C24 C26 1.381 1_655 S
C24 C27 1.487 1_655 S
C25 C22 1.382 . S
C25 C26 1.387 1_655 S
C25 H42 0.930 . S
C26 C24 1.381 1_455 S
C26 C25 1.387 1_455 S
C26 H43 0.931 . S
C27 C20 1.399 . S
C27 C24 1.487 1_455 S
C27 N44 1.343 . S
H28 C0 0.931 . S
H29 C2 0.930 . S
H30 C4 0.941 . S
H31 C5 0.931 . S
H32 C7 0.931 . S
H33 C9 0.930 1_545 S
H34 C11 0.930 . S
H35 C12 0.931 . S
H36 C14 0.931 . S
H37 C16 0.930 . S
H38 C18 0.930 . S
H39 C19 0.931 . S
H40 C21 0.931 . S
H41 C23 0.930 . S
H42 C25 0.930 . S
H43 C26 0.931 . S
N44 C6 1.343 . S
N44 C27 1.343 . S
N45 C13 1.343 . S
N45 C20 1.343 . S
C46 C47 1.384 . S
C46 C48 1.384 . S
C46 H74 0.931 . S
C47 C46 1.384 . S
C47 C50 1.382 . S
C48 C46 1.384 . S
C48 C49 1.381 . S
C48 H75 0.930 . S
C49 C48 1.381 . S
C49 C51 1.381 . S
C49 C52 1.487 . S
C50 C47 1.382 . S
C50 C51 1.387 . S
C50 H76 0.930 . S
C51 C49 1.381 . S
C51 C50 1.387 . S
C51 H77 0.931 1_655 S
C52 C49 1.487 . S
C52 C59 1.399 . S
C52 N90 1.343 1_655 S
C53 C54 1.384 . S
C53 C55 1.384 . S
C53 H78 0.931 . S
C54 C53 1.384 . S
C54 C57 1.382 . S
C55 C53 1.384 . S
C55 C56 1.381 . S
C55 H79 0.930 . S
C56 C55 1.381 . S
C56 C58 1.381 . S
C56 C59 1.487 . S
C57 C54 1.382 . S
C57 C58 1.387 . S
C57 H80 0.930 . S
C58 C56 1.381 . S
C58 C57 1.387 . S
C58 H81 0.931 . S
C59 C52 1.399 . S
C59 C56 1.487 . S
C59 N91 1.343 1_655 S
C60 C61 1.384 . S
C60 C62 1.384 . S
C60 H82 0.931 . S
C61 C60 1.384 . S
C61 C64 1.382 . S
C62 C60 1.384 . S
C62 C63 1.381 . S
C62 H83 0.930 . S
C63 C62 1.381 . S
C63 C65 1.381 . S
C63 C66 1.487 . S
C64 C61 1.382 . S
C64 C65 1.387 . S
C64 H84 0.930 . S
C65 C63 1.381 . S
C65 C64 1.387 . S
C65 H85 0.931 . S
C66 C63 1.487 . S
C66 C73 1.399 . S
C66 N91 1.343 . S
C67 C68 1.384 . S
C67 C69 1.384 . S
C67 H86 0.931 . S
C68 C67 1.384 . S
C68 C71 1.382 . S
C69 C67 1.384 . S
C69 C70 1.381 . S
C69 H87 0.930 . S
C70 C69 1.381 . S
C70 C72 1.381 . S
C70 C73 1.487 . S
C71 C68 1.382 . S
C71 C72 1.387 . S
C71 H88 0.930 . S
C72 C70 1.381 . S
C72 C71 1.387 . S
C72 H89 0.931 . S
C73 C66 1.399 . S
C73 C70 1.487 . S
C73 N90 1.343 . S
H74 C46 0.931 . S
H75 C48 0.930 . S
H76 C50 0.930 . S
H77 C51 0.931 1_455 S
H78 C53 0.931 . S
H79 C55 0.930 . S
H80 C57 0.930 . S
H81 C58 0.931 . S
H82 C60 0.931 . S
H83 C62 0.930 . S
H84 C64 0.930 . S
H85 C65 0.931 . S
H86 C67 0.931 . S
H87 C69 0.930 . S
H88 C71 0.930 . S
H89 C72 0.931 . S
N90 C52 1.343 1_455 S
N90 C73 1.343 . S
N91 C59 1.343 1_455 S
N91 C66 1.343 . S
C92 C93 1.384 . S
C92 C94 1.384 . S
C92 H120 0.931 . S
C93 C92 1.384 . S
C93 C96 1.382 . S
C94 C92 1.384 . S
C94 C95 1.381 . S
C94 H121 0.930 . S
C95 C94 1.381 . S
C95 C97 1.381 . S
C95 C98 1.487 . S
C96 C93 1.382 . S
C96 C97 1.387 . S
C96 H122 0.930 . S
C97 C95 1.381 . S
C97 C96 1.387 . S
C97 H123 0.931 . S
C98 C95 1.487 . S
C98 C105 1.399 . S
C98 N136 1.343 . S
C99 C100 1.384 . S
C99 C101 1.384 . S
C99 H124 0.931 . S
C100 C99 1.384 . S
C100 C103 1.382 . S
C101 C99 1.384 . S
C101 C102 1.381 . S
C101 H125 0.930 . S
C102 C101 1.381 . S
C102 C104 1.381 . S
C102 C105 1.487 . S
C103 C100 1.382 . S
C103 C104 1.387 . S
C103 H126 0.930 . S
C104 C102 1.381 . S
C104 C103 1.387 . S
C104 H127 0.931 . S
C105 C98 1.399 . S
C105 C102 1.487 . S
C105 N137 1.343 . S
C106 C107 1.384 . S
C106 C108 1.384 . S
C106 H128 0.931 . S
C107 C106 1.384 . S
C107 C110 1.382 . S
C108 C106 1.384 . S
C108 C109 1.381 . S
C108 H129 0.930 . S
C109 C108 1.381 . S
C109 C111 1.381 . S
C109 C112 1.487 . S
C110 C107 1.382 . S
C110 C111 1.387 . S
C110 H130 0.930 . S
C111 C109 1.381 . S
C111 C110 1.387 . S
C111 H131 0.931 . S
C112 C109 1.487 . S
C112 C119 1.399 . S
C112 N137 1.343 . S
C113 C114 1.384 . S
C113 C115 1.384 . S
C113 H132 0.931 . S
C114 C113 1.384 . S
C114 C117 1.382 . S
C115 C113 1.384 . S
C115 C116 1.381 . S
C115 H133 0.930 . S
C116 C115 1.381 . S
C116 C118 1.381 . S
C116 C119 1.487 . S
C117 C114 1.382 . S
C117 C118 1.387 . S
C117 H134 0.930 . S
C118 C116 1.381 . S
C118 C117 1.387 . S
C118 H135 0.931 . S
C119 C112 1.399 . S
C119 C116 1.487 . S
C119 N136 1.343 . S
H120 C92 0.931 . S
H121 C94 0.930 . S
H122 C96 0.930 . S
H123 C97 0.931 . S
H124 C99 0.931 . S
H125 C101 0.930 . S
H126 C103 0.930 . S
H127 C104 0.931 . S
H128 C106 0.931 . S
H129 C108 0.930 . S
H130 C110 0.930 . S
H131 C111 0.931 . S
H132 C113 0.931 . S
H133 C115 0.930 . S
H134 C117 0.930 . S
H135 C118 0.931 . S
N136 C98 1.343 . S
N136 C119 1.343 . S
N137 C105 1.343 . S
N137 C112 1.343 . S
C138 C139 1.384 . S
C138 C140 1.384 . S
C138 H166 0.931 . S
C139 C138 1.384 . S
C139 C142 1.382 . S
C140 C138 1.384 . S
C140 C141 1.381 . S
C140 H167 0.930 . S
C141 C140 1.381 . S
C141 C143 1.381 . S
C141 C144 1.487 . S
C142 C139 1.382 . S
C142 C143 1.387 . S
C142 H168 0.930 . S
C143 C141 1.381 . S
C143 C142 1.387 . S
C143 H169 0.931 . S
C144 C141 1.487 . S
C144 C151 1.399 . S
C144 N182 1.343 1_565 S
C145 C146 1.384 . S
C145 C147 1.384 . S
C145 H170 0.931 . S
C146 C145 1.384 . S
C146 C149 1.382 . S
C147 C145 1.384 . S
C147 C148 1.381 . S
C147 H171 0.930 . S
C148 C147 1.381 . S
C148 C150 1.381 . S
C148 C151 1.487 . S
C149 C146 1.382 . S
C149 C150 1.387 . S
C149 H172 0.930 . S
C150 C148 1.381 . S
C150 C149 1.387 . S
C150 H173 0.931 . S
C151 C144 1.399 . S
C151 C148 1.487 . S
C151 N183 1.343 . S
C152 C153 1.384 . S
C152 C154 1.384 . S
C152 H174 0.931 . S
C153 C152 1.384 . S
C153 C156 1.382 . S
C154 C152 1.384 . S
C154 C155 1.381 . S
C154 H175 0.930 . S
C155 C154 1.381 . S
C155 C157 1.381 . S
C155 C158 1.487 . S
C156 C153 1.382 . S
C156 C157 1.387 . S
C156 H176 0.930 . S
C157 C155 1.381 . S
C157 C156 1.387 . S
C157 H177 0.931 . S
C158 C155 1.487 . S
C158 C165 1.399 . S
C158 N183 1.343 1_545 S
C159 C160 1.384 . S
C159 C161 1.384 . S
C159 H178 0.931 . S
C160 C159 1.384 . S
C160 C163 1.382 . S
C161 C159 1.384 . S
C161 C162 1.381 . S
C161 H179 0.930 . S
C162 C161 1.381 . S
C162 C164 1.381 . S
C162 C165 1.487 . S
C163 C160 1.382 . S
C163 C164 1.387 . S
C163 H180 0.930 . S
C164 C162 1.381 . S
C164 C163 1.387 . S
C164 H181 0.931 . S
C165 C158 1.399 . S
C165 C162 1.487 . S
C165 N182 1.343 . S
H166 C138 0.931 . S
H167 C140 0.930 . S
H168 C142 0.930 . S
H169 C143 0.931 . S
H170 C145 0.931 . S
H171 C147 0.930 . S
H172 C149 0.930 . S
H173 C150 0.931 . S
H174 C152 0.931 . S
H175 C154 0.930 . S
H176 C156 0.930 . S
H177 C157 0.931 . S
H178 C159 0.931 . S
H179 C161 0.930 . S
H180 C163 0.930 . S
H181 C164 0.931 . S
N182 C144 1.343 1_545 S
N182 C165 1.343 . S
N183 C151 1.343 . S
N183 C158 1.343 1_565 S
C184 C185 1.384 . S
C184 C186 1.384 . S
C184 H212 0.931 . S
C185 C184 1.384 . S
C185 C188 1.382 . S
C186 C184 1.384 . S
C186 C187 1.381 . S
C186 H213 0.930 . S
C187 C186 1.381 . S
C187 C189 1.381 . S
C187 C190 1.487 . S
C188 C185 1.382 . S
C188 C189 1.387 . S
C188 H214 0.930 . S
C189 C187 1.381 . S
C189 C188 1.387 . S
C189 H215 0.931 . S
C190 C187 1.487 . S
C190 C197 1.399 . S
C190 N228 1.343 . S
C191 C192 1.384 . S
C191 C193 1.384 . S
C191 H216 0.931 . S
C192 C191 1.384 . S
C192 C195 1.382 . S
C193 C191 1.384 . S
C193 C194 1.381 . S
C193 H217 0.930 . S
C194 C193 1.381 . S
C194 C196 1.381 . S
C194 C197 1.487 . S
C195 C192 1.382 . S
C195 C196 1.387 . S
C195 H218 0.930 . S
C196 C194 1.381 . S
C196 C195 1.387 . S
C196 H219 0.931 . S
C197 C190 1.399 . S
C197 C194 1.487 . S
C197 N229 1.321 1_455 S
C198 C199 1.384 . S
C198 C200 1.384 . S
C198 H220 0.931 . S
C199 C198 1.384 . S
C199 C202 1.382 . S
C200 C198 1.384 . S
C200 C201 1.381 . S
C200 H221 0.930 . S
C201 C200 1.381 . S
C201 C203 1.381 . S
C201 C204 1.487 . S
C202 C199 1.382 . S
C202 C203 1.387 . S
C202 H222 0.930 . S
C203 C201 1.381 . S
C203 C202 1.387 . S
C203 H223 0.931 . S
C204 C201 1.487 . S
C204 C211 1.399 . S
C204 N229 1.363 . S
C205 C206 1.384 . S
C205 C207 1.384 . S
C205 H224 0.931 . S
C206 C205 1.384 . S
C206 C209 1.382 . S
C207 C205 1.384 . S
C207 C208 1.381 . S
C207 H225 0.930 . S
C208 C207 1.381 . S
C208 C210 1.381 . S
C208 C211 1.487 . S
C209 C206 1.382 . S
C209 C210 1.387 . S
C209 H226 0.930 . S
C210 C208 1.381 . S
C210 C209 1.387 . S
C210 H227 0.931 . S
C211 C204 1.399 . S
C211 C208 1.487 . S
C211 N228 1.343 1_655 S
H212 C184 0.931 . S
H213 C186 0.930 . S
H214 C188 0.930 . S
H215 C189 0.931 . S
H216 C191 0.931 . S
H217 C193 0.930 . S
H218 C195 0.930 . S
H219 C196 0.931 . S
H220 C198 0.931 . S
H221 C200 0.930 . S
H222 C202 0.930 . S
H223 C203 0.931 . S
H224 C205 0.931 . S
H225 C207 0.930 . S
H226 C209 0.930 . S
H227 C210 0.931 . S
N228 C190 1.343 . S
N228 C211 1.343 1_455 S
N229 C197 1.321 1_655 S
N229 C204 1.363 . S
C230 C231 1.384 . S
C230 C232 1.384 . S
C230 H258 0.931 . S
C231 C230 1.384 . S
C231 C234 1.382 . S
C232 C230 1.384 . S
C232 C233 1.381 . S
C232 H259 0.930 . S
C233 C232 1.381 . S
C233 C235 1.381 . S
C233 C236 1.487 . S
C234 C231 1.382 . S
C234 C235 1.387 . S
C234 H260 0.930 . S
C235 C233 1.381 . S
C235 C234 1.387 . S
C235 H261 0.931 . S
C236 C233 1.487 . S
C236 C243 1.399 . S
C236 N274 1.343 . S
C237 C238 1.384 . S
C237 C239 1.384 . S
C237 H262 0.931 . S
C238 C237 1.384 . S
C238 C241 1.382 . S
C239 C237 1.384 . S
C239 C240 1.381 . S
C239 H263 0.930 . S
C240 C239 1.381 . S
C240 C242 1.381 . S
C240 C243 1.487 . S
C241 C238 1.382 . S
C241 C242 1.387 . S
C241 H264 0.930 . S
C242 C240 1.381 . S
C242 C241 1.387 . S
C242 H265 0.931 . S
C243 C236 1.399 . S
C243 C240 1.487 . S
C243 N275 1.343 . S
C244 C245 1.384 . S
C244 C246 1.384 . S
C244 H266 0.931 . S
C245 C244 1.384 . S
C245 C248 1.382 . S
C246 C244 1.384 . S
C246 C247 1.381 . S
C246 H267 0.930 . S
C247 C246 1.381 . S
C247 C249 1.381 . S
C247 C250 1.487 . S
C248 C245 1.382 . S
C248 C249 1.387 . S
C248 H268 0.930 . S
C249 C247 1.381 . S
C249 C248 1.387 . S
C249 H269 0.931 . S
C250 C247 1.487 . S
C250 C257 1.399 . S
C250 N275 1.343 . S
C251 C252 1.384 . S
C251 C253 1.384 . S
C251 H270 0.931 . S
C252 C251 1.384 . S
C252 C255 1.382 . S
C253 C251 1.384 . S
C253 C254 1.381 . S
C253 H271 0.930 . S
C254 C253 1.381 . S
C254 C256 1.381 . S
C254 C257 1.487 . S
C255 C252 1.382 . S
C255 C256 1.387 . S
C255 H272 0.930 . S
C256 C254 1.381 . S
C256 C255 1.387 . S
C256 H273 0.931 . S
C257 C250 1.399 . S
C257 C254 1.487 . S
C257 N274 1.343 . S
H258 C230 0.931 . S
H259 C232 0.930 . S
H260 C234 0.930 . S
H261 C235 0.931 . S
H262 C237 0.931 . S
H263 C239 0.930 . S
H264 C241 0.930 . S
H265 C242 0.931 . S
H266 C244 0.931 . S
H267 C246 0.930 . S
H268 C248 0.930 . S
H269 C249 0.931 . S
H270 C251 0.931 . S
H271 C253 0.930 . S
H272 C255 0.930 . S
H273 C256 0.931 . S
N274 C236 1.343 . S
N274 C257 1.343 . S
N275 C243 1.343 . S
N275 C250 1.343 . S
C276 C277 1.384 . S
C276 C278 1.384 . S
C276 H304 0.931 . S
C277 C276 1.384 . S
C277 C280 1.382 . S
C278 C276 1.384 . S
C278 C279 1.381 . S
C278 H305 0.930 . S
C279 C278 1.381 . S
C279 C281 1.381 . S
C279 C282 1.487 . S
C280 C277 1.382 . S
C280 C281 1.387 . S
C280 H306 0.930 . S
C281 C279 1.381 . S
C281 C280 1.387 . S
C281 H307 0.931 1_565 S
C282 C279 1.487 . S
C282 C289 1.399 . S
C282 N320 1.343 1_565 S
C283 C284 1.384 . S
C283 C285 1.384 . S
C283 H308 0.931 . S
C284 C283 1.384 . S
C284 C287 1.382 . S
C285 C283 1.384 . S
C285 C286 1.381 . S
C285 H309 0.930 . S
C286 C285 1.381 . S
C286 C288 1.381 . S
C286 C289 1.487 . S
C287 C284 1.382 . S
C287 C288 1.387 . S
C287 H310 0.930 . S
C288 C286 1.381 . S
C288 C287 1.387 . S
C288 H311 0.931 . S
C289 C282 1.399 . S
C289 C286 1.487 . S
C289 N321 1.343 1_565 S
C290 C291 1.384 . S
C290 C292 1.384 . S
C290 H312 0.931 . S
C291 C290 1.384 . S
C291 C294 1.382 . S
C292 C290 1.384 . S
C292 C293 1.381 . S
C292 H313 0.930 . S
C293 C292 1.381 . S
C293 C295 1.381 . S
C293 C296 1.487 . S
C294 C291 1.382 . S
C294 C295 1.387 . S
C294 H314 0.930 . S
C295 C293 1.381 . S
C295 C294 1.387 . S
C295 H315 0.931 . S
C296 C293 1.487 . S
C296 C303 1.399 . S
C296 N321 1.343 . S
C297 C298 1.384 . S
C297 C299 1.384 . S
C297 H316 0.931 . S
C298 C297 1.384 . S
C298 C301 1.382 . S
C299 C297 1.384 . S
C299 C300 1.381 . S
C299 H317 0.930 . S
C300 C299 1.381 . S
C300 C302 1.381 . S
C300 C303 1.487 . S
C301 C298 1.382 . S
C301 C302 1.387 . S
C301 H318 0.930 . S
C302 C300 1.381 . S
C302 C301 1.387 . S
C302 H319 0.931 . S
C303 C296 1.399 . S
C303 C300 1.487 . S
C303 N320 1.343 . S
H304 C276 0.931 . S
H305 C278 0.930 . S
H306 C280 0.930 . S
H307 C281 0.931 1_545 S
H308 C283 0.931 . S
H309 C285 0.930 . S
H310 C287 0.930 . S
H311 C288 0.931 . S
H312 C290 0.931 . S
H313 C292 0.930 . S
H314 C294 0.930 . S
H315 C295 0.931 . S
H316 C297 0.931 . S
H317 C299 0.930 . S
H318 C301 0.930 . S
H319 C302 0.931 . S
N320 C282 1.343 1_545 S
N320 C303 1.343 . S
N321 C289 1.343 1_545 S
N321 C296 1.343 . S
C322 C323 1.384 . S
C322 C324 1.384 . S
C322 H350 0.931 . S
C323 C322 1.384 . S
C323 C326 1.382 . S
C324 C322 1.384 . S
C324 C325 1.381 . S
C324 H351 0.930 1_565 S
C325 C324 1.381 . S
C325 C327 1.381 . S
C325 C328 1.487 1_565 S
C326 C323 1.382 . S
C326 C327 1.387 . S
C326 H352 0.930 . S
C327 C325 1.381 . S
C327 C326 1.387 . S
C327 H353 0.931 . S
C328 C325 1.487 1_545 S
C328 C335 1.399 . S
C328 N366 1.343 . S
C329 C330 1.384 . S
C329 C331 1.384 . S
C329 H354 0.931 . S
C330 C329 1.384 . S
C330 C333 1.382 . S
C331 C329 1.384 . S
C331 C332 1.389 . S
C331 H355 0.930 . S
C332 C331 1.389 . S
C332 C334 1.379 1_565 S
C332 C335 1.482 1_565 S
C333 C330 1.382 . S
C333 C334 1.387 1_565 S
C333 H356 0.930 . S
C334 C332 1.379 1_545 S
C334 C333 1.387 1_545 S
C334 H357 0.931 . S
C335 C328 1.399 . S
C335 C332 1.482 1_545 S
C335 N367 1.343 . S
C336 C337 1.384 . S
C336 C338 1.384 . S
C336 H358 0.931 . S
C337 C336 1.384 . S
C337 C340 1.396 . S
C338 C336 1.384 . S
C338 C339 1.381 1_655 S
C338 H359 0.930 . S
C339 C338 1.381 1_455 S
C339 C341 1.381 . S
C339 C342 1.487 . S
C340 C337 1.396 . S
C340 C341 1.380 1_655 S
C340 H360 0.924 1_655 S
C341 C339 1.381 . S
C341 C340 1.380 1_455 S
C341 H361 0.931 . S
C342 C339 1.487 . S
C342 C349 1.399 . S
C342 N367 1.343 . S
C343 C344 1.384 . S
C343 C345 1.384 1_655 S
C343 H362 0.931 . S
C344 C343 1.384 . S
C344 C347 1.382 . S
C345 C343 1.384 1_455 S
C345 C346 1.381 . S
C345 H363 0.930 . S
C346 C345 1.381 . S
C346 C348 1.381 1_455 S
C346 C349 1.487 . S
C347 C344 1.382 . S
C347 C348 1.387 . S
C347 H364 0.930 . S
C348 C346 1.381 1_655 S
C348 C347 1.387 . S
C348 H365 0.931 . S
C349 C342 1.399 . S
C349 C346 1.487 . S
C349 N366 1.343 . S
H350 C322 0.931 . S
H351 C324 0.930 1_545 S
H352 C326 0.930 . S
H353 C327 0.931 . S
H354 C329 0.931 . S
H355 C331 0.930 . S
H356 C333 0.930 . S
H357 C334 0.931 . S
H358 C336 0.931 . S
H359 C338 0.930 . S
H360 C340 0.924 1_455 S
H361 C341 0.931 . S
H362 C343 0.931 . S
H363 C345 0.930 . S
H364 C347 0.930 . S
H365 C348 0.931 . S
N366 C328 1.343 . S
N366 C349 1.343 . S
N367 C335 1.343 . S
N367 C342 1.343 . S
Co368 O369 2.216 . S
Co368 O370 2.091 . S
Co368 O372 2.004 . S
Co368 O378 2.021 1_554 S
Co368 O380 2.137 . S
Co368 O381 2.244 . S
O369 Co368 2.216 . S
O369 C376 1.247 . S
O370 Co368 2.091 . S
O370 C376 1.261 . S
C371 O380 1.247 . S
C371 O381 1.272 . S
O372 Co368 2.004 . S
O372 C377 1.259 . S
Co373 O374 2.061 . S
Co373 O379 2.052 1_554 S
Co373 O381 2.135 . S
O374 Co373 2.061 . S
O374 C377 1.235 . S
C375 O378 1.238 . S
C375 O379 1.241 . S
C376 O369 1.247 . S
C376 O370 1.261 . S
C377 O372 1.259 . S
C377 O374 1.235 . S
O378 Co368 2.021 1_556 S
O378 C375 1.238 . S
O379 Co373 2.052 1_556 S
O379 C375 1.241 . S
O380 Co368 2.137 . S
O380 C371 1.247 . S
O381 Co368 2.244 . S
O381 C371 1.272 . S
O381 Co373 2.135 . S
Co382 O383 2.216 . S
Co382 O384 2.091 . S
Co382 O386 2.004 . S
Co382 O392 2.021 . S
Co382 O394 2.137 . S
Co382 O395 2.244 . S
O383 Co382 2.216 . S
O383 C390 1.247 . S
O384 Co382 2.091 . S
O384 C390 1.261 . S
C385 O394 1.247 . S
C385 O395 1.272 . S
O386 Co382 2.004 . S
O386 C391 1.259 . S
Co387 O388 2.061 . S
Co387 O393 2.052 . S
Co387 O395 2.135 . S
O388 Co387 2.061 . S
O388 C391 1.235 . S
C389 O392 1.238 . S
C389 O393 1.241 . S
C390 O383 1.247 . S
C390 O384 1.261 . S
C391 O386 1.259 . S
C391 O388 1.235 . S
O392 Co382 2.021 . S
O392 C389 1.238 . S
O393 Co387 2.052 . S
O393 C389 1.241 . S
O394 Co382 2.137 . S
O394 C385 1.247 . S
O395 Co382 2.244 . S
O395 C385 1.272 . S
O395 Co387 2.135 . S
Co396 O397 2.216 . S
Co396 O398 2.091 . S
Co396 O400 2.004 . S
Co396 O406 2.021 . S
Co396 O408 2.137 . S
Co396 O409 2.244 . S
O397 Co396 2.216 . S
O397 C404 1.247 . S
O398 Co396 2.091 . S
O398 C404 1.261 . S
C399 O408 1.247 . S
C399 O409 1.272 . S
O400 Co396 2.004 . S
O400 C405 1.259 . S
Co401 O402 2.061 . S
Co401 O407 2.052 . S
Co401 O409 2.135 . S
O402 Co401 2.061 . S
O402 C405 1.235 . S
C403 O406 1.238 . S
C403 O407 1.241 . S
C404 O397 1.247 . S
C404 O398 1.261 . S
C405 O400 1.259 . S
C405 O402 1.235 . S
O406 Co396 2.021 . S
O406 C403 1.238 . S
O407 Co401 2.052 . S
O407 C403 1.241 . S
O408 Co396 2.137 . S
O408 C399 1.247 . S
O409 Co396 2.244 . S
O409 C399 1.272 . S
O409 Co401 2.135 . S
Co410 O411 2.216 . S
Co410 O412 2.091 . S
Co410 O414 2.004 . S
Co410 O420 2.021 . S
Co410 O422 2.137 . S
Co410 O423 2.244 . S
O411 Co410 2.216 . S
O411 C418 1.247 . S
O412 Co410 2.091 . S
O412 C418 1.261 . S
C413 O422 1.247 . S
C413 O423 1.272 . S
O414 Co410 2.004 . S
O414 C419 1.259 . S
Co415 O416 2.061 . S
Co415 O421 2.052 . S
Co415 O423 2.135 . S
O416 Co415 2.061 . S
O416 C419 1.235 . S
C417 O420 1.238 . S
C417 O421 1.241 . S
C418 O411 1.247 . S
C418 O412 1.261 . S
C419 O414 1.259 . S
C419 O416 1.235 . S
O420 Co410 2.021 . S
O420 C417 1.238 . S
O421 Co415 2.052 . S
O421 C417 1.241 . S
O422 Co410 2.137 . S
O422 C413 1.247 . S
O423 Co410 2.244 . S
O423 C413 1.272 . S
O423 Co415 2.135 . S
Co424 O425 2.216 . S
Co424 O426 2.091 . S
Co424 O428 2.004 . S
Co424 O434 2.021 . S
Co424 O436 2.137 . S
Co424 O437 2.244 . S
O425 Co424 2.216 . S
O425 C432 1.247 . S
O426 Co424 2.091 . S
O426 C432 1.261 . S
C427 O436 1.247 . S
C427 O437 1.272 . S
O428 Co424 2.004 . S
O428 C433 1.259 . S
Co429 O430 2.061 . S
Co429 O435 2.052 . S
Co429 O437 2.135 . S
O430 Co429 2.061 . S
O430 C433 1.235 . S
C431 O434 1.238 . S
C431 O435 1.241 . S
C432 O425 1.247 . S
C432 O426 1.261 . S
C433 O428 1.259 . S
C433 O430 1.235 . S
O434 Co424 2.021 . S
O434 C431 1.238 . S
O435 Co429 2.052 . S
O435 C431 1.241 . S
O436 Co424 2.137 . S
O436 C427 1.247 . S
O437 Co424 2.244 . S
O437 C427 1.272 . S
O437 Co429 2.135 . S
Co438 O439 2.216 . S
Co438 O440 2.091 . S
Co438 O442 2.004 . S
Co438 O448 2.021 . S
Co438 O450 2.137 . S
Co438 O451 2.244 . S
O439 Co438 2.216 . S
O439 C446 1.247 . S
O440 Co438 2.091 . S
O440 C446 1.261 . S
C441 O450 1.247 . S
C441 O451 1.272 . S
O442 Co438 2.004 . S
O442 C447 1.259 . S
Co443 O444 2.061 . S
Co443 O449 2.052 . S
Co443 O451 2.135 . S
O444 Co443 2.061 . S
O444 C447 1.235 . S
C445 O448 1.238 . S
C445 O449 1.241 . S
C446 O439 1.247 . S
C446 O440 1.261 . S
C447 O442 1.259 . S
C447 O444 1.235 . S
O448 Co438 2.021 . S
O448 C445 1.238 . S
O449 Co443 2.052 . S
O449 C445 1.241 . S
O450 Co438 2.137 . S
O450 C441 1.247 . S
O451 Co438 2.244 . S
O451 C441 1.272 . S
O451 Co443 2.135 . S
Co452 O453 2.216 1_556 S
Co452 O454 2.091 1_556 S
Co452 O456 2.005 . S
Co452 O462 2.020 1_556 S
Co452 O464 2.139 . S
Co452 O465 2.245 . S
O453 Co452 2.216 1_554 S
O453 C460 1.247 . S
O454 Co452 2.091 1_554 S
O454 C460 1.261 . S
C455 O464 1.247 . S
C455 O465 1.272 . S
O456 Co452 2.005 . S
O456 C461 1.259 . S
Co457 O458 2.061 . S
Co457 O463 2.052 1_556 S
Co457 O465 2.135 . S
O458 Co457 2.061 . S
O458 C461 1.235 . S
C459 O462 1.238 . S
C459 O463 1.241 . S
C460 O453 1.247 . S
C460 O454 1.261 . S
C461 O456 1.259 . S
C461 O458 1.235 . S
O462 Co452 2.020 1_554 S
O462 C459 1.238 . S
O463 Co457 2.052 1_554 S
O463 C459 1.241 . S
O464 Co452 2.139 . S
O464 C455 1.247 . S
O465 Co452 2.245 . S
O465 C455 1.272 . S
O465 Co457 2.135 . S
Co466 O467 2.216 . S
Co466 O468 2.091 . S
Co466 O470 2.004 . S
Co466 O476 2.021 . S
Co466 O478 2.137 . S
Co466 O479 2.244 . S
O467 Co466 2.216 . S
O467 C474 1.247 . S
O468 Co466 2.091 . S
O468 C474 1.261 . S
C469 O478 1.247 . S
C469 O479 1.272 . S
O470 Co466 2.004 . S
O470 C475 1.259 . S
Co471 O472 2.061 . S
Co471 O477 2.052 . S
Co471 O479 2.135 . S
O472 Co471 2.061 . S
O472 C475 1.235 . S
C473 O476 1.238 . S
C473 O477 1.241 . S
C474 O467 1.247 . S
C474 O468 1.261 . S
C475 O470 1.259 . S
C475 O472 1.235 . S
O476 Co466 2.021 . S
O476 C473 1.238 . S
O477 Co471 2.052 . S
O477 C473 1.241 . S
O478 Co466 2.137 . S
O478 C469 1.247 . S
O479 Co466 2.244 . S
O479 C469 1.272 . S
O479 Co471 2.135 . S
H480 C488 0.950 . S
H481 C493 0.950 . S
H482 C490 0.950 . S
H483 C492 0.950 . S
H484 C494 0.950 . S
H485 C496 0.950 . S
H486 C498 0.950 . S
H487 C499 0.950 . S
C488 H480 0.950 . S
C488 C489 1.386 . S
C488 C490 1.391 . S
C489 C488 1.386 . S
C489 C493 1.393 . S
C490 H482 0.950 . S
C490 C488 1.391 . S
C490 C491 1.400 . S
C491 C490 1.400 . S
C491 C492 1.398 . S
C491 C497 1.491 . S
C492 H483 0.950 . S
C492 C491 1.398 . S
C492 C493 1.391 . S
C493 H481 0.950 . S
C493 C489 1.393 . S
C493 C492 1.391 . S
C494 H484 0.950 . S
C494 C495 1.386 . S
C494 C496 1.391 . S
C495 C494 1.386 . S
C495 C499 1.393 . S
C496 H485 0.950 . S
C496 C494 1.391 . S
C496 C497 1.400 . S
C497 C491 1.491 . S
C497 C496 1.400 . S
C497 C498 1.398 . S
C498 H486 0.950 . S
C498 C497 1.398 . S
C498 C499 1.391 . S
C499 H487 0.950 . S
C499 C495 1.393 . S
C499 C498 1.391 . S
H500 C508 0.950 . S
H501 C513 0.950 . S
H502 C510 0.950 . S
H503 C512 0.950 . S
H504 C514 0.950 . S
H505 C516 0.950 . S
H506 C518 0.950 . S
H507 C519 0.950 . S
C508 H500 0.950 . S
C508 C509 1.386 . S
C508 C510 1.391 . S
C509 C508 1.386 . S
C509 C513 1.393 . S
C510 H502 0.950 . S
C510 C508 1.391 . S
C510 C511 1.400 . S
C511 C510 1.400 . S
C511 C512 1.398 . S
C511 C517 1.491 . S
C512 H503 0.950 . S
C512 C511 1.398 . S
C512 C513 1.391 . S
C513 H501 0.950 . S
C513 C509 1.393 . S
C513 C512 1.391 . S
C514 H504 0.950 . S
C514 C515 1.386 . S
C514 C516 1.391 . S
C515 C514 1.386 . S
C515 C519 1.393 . S
C516 H505 0.950 . S
C516 C514 1.391 . S
C516 C517 1.400 . S
C517 C511 1.491 . S
C517 C516 1.400 . S
C517 C518 1.398 . S
C518 H506 0.950 . S
C518 C517 1.398 . S
C518 C519 1.391 . S
C519 H507 0.950 . S
C519 C515 1.393 . S
C519 C518 1.391 . S
H520 C528 0.950 . S
H521 C533 0.950 . S
H522 C530 0.950 . S
H523 C532 0.950 . S
H524 C534 0.950 . S
H525 C536 0.950 . S
H526 C538 0.950 . S
H527 C539 0.950 . S
C528 H520 0.950 . S
C528 C529 1.386 . S
C528 C530 1.391 . S
C529 C528 1.386 . S
C529 C533 1.393 . S
C530 H522 0.950 . S
C530 C528 1.391 . S
C530 C531 1.400 . S
C531 C530 1.400 . S
C531 C532 1.398 . S
C531 C537 1.491 . S
C532 H523 0.950 . S
C532 C531 1.398 . S
C532 C533 1.391 . S
C533 H521 0.950 . S
C533 C529 1.393 . S
C533 C532 1.391 . S
C534 H524 0.950 . S
C534 C535 1.386 . S
C534 C536 1.391 . S
C535 C534 1.386 . S
C535 C539 1.393 . S
C536 H525 0.950 . S
C536 C534 1.391 . S
C536 C537 1.400 . S
C537 C531 1.491 . S
C537 C536 1.400 . S
C537 C538 1.398 . S
C538 H526 0.950 . S
C538 C537 1.398 . S
C538 C539 1.391 . S
C539 H527 0.950 . S
C539 C535 1.393 . S
C539 C538 1.391 . S
H540 C548 0.950 . S
H541 C553 0.950 . S
H542 C550 0.950 . S
H543 C552 0.950 . S
H544 C554 0.950 . S
H545 C556 0.950 . S
H546 C558 0.950 . S
H547 C559 0.950 . S
C548 H540 0.950 . S
C548 C549 1.386 . S
C548 C550 1.391 . S
C549 C548 1.386 . S
C549 C553 1.393 . S
C550 H542 0.950 . S
C550 C548 1.391 . S
C550 C551 1.400 . S
C551 C550 1.400 . S
C551 C552 1.398 . S
C551 C557 1.491 . S
C552 H543 0.950 . S
C552 C551 1.398 . S
C552 C553 1.391 . S
C553 H541 0.950 . S
C553 C549 1.393 . S
C553 C552 1.391 . S
C554 H544 0.950 . S
C554 C555 1.386 . S
C554 C556 1.391 . S
C555 C554 1.386 . S
C555 C559 1.393 . S
C556 H545 0.950 . S
C556 C554 1.391 . S
C556 C557 1.400 . S
C557 C551 1.491 . S
C557 C556 1.400 . S
C557 C558 1.398 . S
C558 H546 0.950 . S
C558 C557 1.398 . S
C558 C559 1.391 . S
C559 H547 0.950 . S
C559 C555 1.393 . S
C559 C558 1.391 . S
H560 C568 0.950 . S
H561 C573 0.950 . S
H562 C570 0.950 1_554 S
H563 C572 0.950 . S
H564 C574 0.950 . S
H565 C576 0.950 . S
H566 C578 0.950 . S
H567 C579 0.950 . S
C568 H560 0.950 . S
C568 C569 1.386 . S
C568 C570 1.391 . S
C569 C568 1.386 . S
C569 C573 1.393 . S
C570 H562 0.950 1_556 S
C570 C568 1.391 . S
C570 C571 1.400 . S
C571 C570 1.400 . S
C571 C572 1.398 . S
C571 C577 1.491 . S
C572 H563 0.950 . S
C572 C571 1.398 . S
C572 C573 1.391 . S
C573 H561 0.950 . S
C573 C569 1.393 . S
C573 C572 1.391 . S
C574 H564 0.950 . S
C574 C575 1.386 . S
C574 C576 1.391 . S
C575 C574 1.386 . S
C575 C579 1.393 1_556 S
C576 H565 0.950 . S
C576 C574 1.391 . S
C576 C577 1.400 . S
C577 C571 1.491 . S
C577 C576 1.400 . S
C577 C578 1.398 1_556 S
C578 H566 0.950 . S
C578 C577 1.398 1_554 S
C578 C579 1.391 . S
C579 H567 0.950 . S
C579 C575 1.393 1_554 S
C579 C578 1.391 . S
H580 C588 0.950 . S
H581 C593 0.950 . S
H582 C590 0.950 . S
H583 C592 0.950 . S
H584 C594 0.950 . S
H585 C596 0.950 . S
H586 C598 0.950 . S
H587 C599 0.950 . S
C588 H580 0.950 . S
C588 C589 1.386 . S
C588 C590 1.391 . S
C589 C588 1.386 . S
C589 C593 1.393 . S
C590 H582 0.950 . S
C590 C588 1.391 . S
C590 C591 1.400 . S
C591 C590 1.400 . S
C591 C592 1.398 . S
C591 C597 1.491 . S
C592 H583 0.950 . S
C592 C591 1.398 . S
C592 C593 1.391 . S
C593 H581 0.950 . S
C593 C589 1.393 . S
C593 C592 1.391 . S
C594 H584 0.950 . S
C594 C595 1.386 . S
C594 C596 1.391 . S
C595 C594 1.386 . S
C595 C599 1.393 . S
C596 H585 0.950 . S
C596 C594 1.391 . S
C596 C597 1.400 . S
C597 C591 1.491 . S
C597 C596 1.400 . S
C597 C598 1.398 . S
C598 H586 0.950 . S
C598 C597 1.398 . S
C598 C599 1.391 . S
C599 H587 0.950 . S
C599 C595 1.393 . S
C599 C598 1.391 . S
H600 C608 0.950 . S
H601 C613 0.950 . S
H602 C610 0.950 . S
H603 C612 0.950 . S
H604 C614 0.950 . S
H605 C616 0.950 . S
H606 C618 0.950 . S
H607 C619 0.950 . S
C608 H600 0.950 . S
C608 C609 1.386 . S
C608 C610 1.391 . S
C609 C608 1.386 . S
C609 C613 1.393 . S
C610 H602 0.950 . S
C610 C608 1.391 . S
C610 C611 1.400 . S
C611 C610 1.400 . S
C611 C612 1.398 . S
C611 C617 1.491 . S
C612 H603 0.950 . S
C612 C611 1.398 . S
C612 C613 1.391 . S
C613 H601 0.950 . S
C613 C609 1.393 . S
C613 C612 1.391 . S
C614 H604 0.950 . S
C614 C615 1.386 . S
C614 C616 1.391 . S
C615 C614 1.386 . S
C615 C619 1.393 . S
C616 H605 0.950 . S
C616 C614 1.391 . S
C616 C617 1.400 . S
C617 C611 1.491 . S
C617 C616 1.400 . S
C617 C618 1.398 . S
C618 H606 0.950 . S
C618 C617 1.398 . S
C618 C619 1.391 . S
C619 H607 0.950 . S
C619 C615 1.393 . S
C619 C618 1.391 . S
H620 C628 0.950 . S
H621 C633 0.950 . S
H622 C630 0.950 . S
H623 C632 0.950 . S
H624 C634 0.950 . S
H625 C636 0.950 . S
H626 C638 0.950 . S
H627 C639 0.950 . S
C628 H620 0.950 . S
C628 C629 1.386 . S
C628 C630 1.391 . S
C629 C628 1.386 . S
C629 C633 1.393 . S
C630 H622 0.950 . S
C630 C628 1.391 . S
C630 C631 1.400 . S
C631 C630 1.400 . S
C631 C632 1.398 . S
C631 C637 1.491 . S
C632 H623 0.950 . S
C632 C631 1.398 . S
C632 C633 1.391 . S
C633 H621 0.950 . S
C633 C629 1.393 . S
C633 C632 1.391 . S
C634 H624 0.950 . S
C634 C635 1.386 . S
C634 C636 1.391 . S
C635 C634 1.386 . S
C635 C639 1.393 . S
C636 H625 0.950 . S
C636 C634 1.391 . S
C636 C637 1.400 . S
C637 C631 1.491 . S
C637 C636 1.400 . S
C637 C638 1.398 . S
C638 H626 0.950 . S
C638 C637 1.398 . S
C638 C639 1.391 . S
C639 H627 0.950 . S
C639 C635 1.393 . S
C639 C638 1.391 . S
H640 C648 0.950 . S
H641 C653 0.950 . S
H642 C650 0.950 . S
H643 C652 0.950 . S
H644 C654 0.950 . S
H645 C656 0.950 . S
H646 C658 0.950 . S
H647 C659 0.950 . S
C648 H640 0.950 . S
C648 C649 1.386 . S
C648 C650 1.391 . S
C649 C648 1.386 . S
C649 C653 1.393 . S
C650 H642 0.950 . S
C650 C648 1.391 . S
C650 C651 1.400 . S
C651 C650 1.400 . S
C651 C652 1.398 . S
C651 C657 1.491 . S
C652 H643 0.950 . S
C652 C651 1.398 . S
C652 C653 1.391 . S
C653 H641 0.950 . S
C653 C649 1.393 . S
C653 C652 1.391 . S
C654 H644 0.950 . S
C654 C655 1.386 . S
C654 C656 1.391 . S
C655 C654 1.386 . S
C655 C659 1.393 . S
C656 H645 0.950 . S
C656 C654 1.391 . S
C656 C657 1.400 . S
C657 C651 1.491 . S
C657 C656 1.400 . S
C657 C658 1.398 . S
C658 H646 0.950 . S
C658 C657 1.398 . S
C658 C659 1.391 . S
C659 H647 0.950 . S
C659 C655 1.393 . S
C659 C658 1.391 . S
H660 C668 0.950 . S
H661 C673 0.950 . S
H662 C670 0.950 . S
H663 C672 0.950 . S
H664 C674 0.950 . S
H665 C676 0.950 . S
H666 C678 0.950 . S
H667 C679 0.950 1_556 S
C668 H660 0.950 . S
C668 C669 1.386 . S
C668 C670 1.391 . S
C669 C668 1.386 . S
C669 C673 1.393 . S
C670 H662 0.950 . S
C670 C668 1.391 . S
C670 C671 1.400 . S
C671 C670 1.400 . S
C671 C672 1.398 . S
C671 C677 1.491 . S
C672 H663 0.950 . S
C672 C671 1.398 . S
C672 C673 1.391 . S
C673 H661 0.950 . S
C673 C669 1.393 . S
C673 C672 1.391 . S
C674 H664 0.950 . S
C674 C675 1.386 . S
C674 C676 1.391 . S
C675 C674 1.386 . S
C675 C679 1.393 . S
C676 H665 0.950 . S
C676 C674 1.391 . S
C676 C677 1.400 . S
C677 C671 1.491 . S
C677 C676 1.400 . S
C677 C678 1.398 . S
C678 H666 0.950 . S
C678 C677 1.398 . S
C678 C679 1.391 . S
C679 H667 0.950 1_554 S
C679 C675 1.393 . S
C679 C678 1.391 . S
H680 C688 0.950 . S
H681 C693 0.950 . S
H682 C690 0.950 . S
H683 C692 0.950 . S
H684 C694 0.950 . S
H685 C696 0.950 . S
H686 C698 0.950 . S
H687 C699 0.950 . S
C688 H680 0.950 . S
C688 C689 1.386 . S
C688 C690 1.391 . S
C689 C688 1.386 . S
C689 C693 1.393 . S
C690 H682 0.950 . S
C690 C688 1.391 . S
C690 C691 1.400 . S
C691 C690 1.400 . S
C691 C692 1.398 . S
C691 C697 1.491 . S
C692 H683 0.950 . S
C692 C691 1.398 . S
C692 C693 1.391 . S
C693 H681 0.950 . S
C693 C689 1.393 . S
C693 C692 1.391 . S
C694 H684 0.950 . S
C694 C695 1.386 . S
C694 C696 1.391 . S
C695 C694 1.386 . S
C695 C699 1.393 . S
C696 H685 0.950 . S
C696 C694 1.391 . S
C696 C697 1.400 . S
C697 C691 1.491 . S
C697 C696 1.400 . S
C697 C698 1.398 . S
C698 H686 0.950 . S
C698 C697 1.398 . S
C698 C699 1.391 . S
C699 H687 0.950 . S
C699 C695 1.393 . S
C699 C698 1.391 . S
H700 C708 0.950 . S
H701 C713 0.950 . S
H702 C710 0.950 . S
H703 C712 0.950 . S
H704 C714 0.950 . S
H705 C716 0.950 . S
H706 C718 0.950 . S
H707 C719 0.950 . S
C708 H700 0.950 . S
C708 C709 1.386 . S
C708 C710 1.391 . S
C709 C708 1.386 . S
C709 C713 1.393 . S
C710 H702 0.950 . S
C710 C708 1.391 . S
C710 C711 1.400 . S
C711 C710 1.400 . S
C711 C712 1.398 . S
C711 C717 1.491 . S
C712 H703 0.950 . S
C712 C711 1.398 . S
C712 C713 1.391 . S
C713 H701 0.950 . S
C713 C709 1.393 . S
C713 C712 1.391 . S
C714 H704 0.950 . S
C714 C715 1.386 . S
C714 C716 1.391 . S
C715 C714 1.386 . S
C715 C719 1.393 . S
C716 H705 0.950 . S
C716 C714 1.391 . S
C716 C717 1.400 . S
C717 C711 1.491 . S
C717 C716 1.400 . S
C717 C718 1.398 . S
C718 H706 0.950 . S
C718 C717 1.398 . S
C718 C719 1.391 . S
C719 H707 0.950 . S
C719 C715 1.393 . S
C719 C718 1.391 . S
H720 C728 0.950 . S
H721 C733 0.950 . S
H722 C730 0.950 . S
H723 C732 0.950 . S
H724 C734 0.950 . S
H725 C736 0.950 . S
H726 C738 0.950 . S
H727 C739 0.950 . S
C728 H720 0.950 . S
C728 C729 1.386 . S
C728 C730 1.391 . S
C729 C728 1.386 . S
C729 C733 1.393 . S
C730 H722 0.950 . S
C730 C728 1.391 . S
C730 C731 1.400 . S
C731 C730 1.400 . S
C731 C732 1.398 . S
C731 C737 1.491 . S
C732 H723 0.950 . S
C732 C731 1.398 . S
C732 C733 1.391 . S
C733 H721 0.950 . S
C733 C729 1.393 . S
C733 C732 1.391 . S
C734 H724 0.950 . S
C734 C735 1.386 . S
C734 C736 1.391 . S
C735 C734 1.386 . S
C735 C739 1.393 . S
C736 H725 0.950 . S
C736 C734 1.391 . S
C736 C737 1.400 . S
C737 C731 1.491 . S
C737 C736 1.400 . S
C737 C738 1.398 . S
C738 H726 0.950 . S
C738 C737 1.398 . S
C738 C739 1.391 . S
C739 H727 0.950 . S
C739 C735 1.393 . S
C739 C738 1.391 . S
H740 C748 0.950 . S
H741 C753 0.950 . S
H742 C750 0.950 . S
H743 C752 0.950 . S
H744 C754 0.950 . S
H745 C756 0.950 . S
H746 C758 0.950 . S
H747 C759 0.950 . S
C748 H740 0.950 . S
C748 C749 1.386 . S
C748 C750 1.391 . S
C749 C748 1.386 . S
C749 C753 1.393 . S
C750 H742 0.950 . S
C750 C748 1.391 . S
C750 C751 1.400 . S
C751 C750 1.400 . S
C751 C752 1.398 . S
C751 C757 1.491 . S
C752 H743 0.950 . S
C752 C751 1.398 . S
C752 C753 1.391 . S
C753 H741 0.950 . S
C753 C749 1.393 . S
C753 C752 1.391 . S
C754 H744 0.950 . S
C754 C755 1.386 . S
C754 C756 1.391 . S
C755 C754 1.386 . S
C755 C759 1.393 . S
C756 H745 0.950 . S
C756 C754 1.391 . S
C756 C757 1.400 . S
C757 C751 1.491 . S
C757 C756 1.400 . S
C757 C758 1.398 . S
C758 H746 0.950 . S
C758 C757 1.398 . S
C758 C759 1.391 . S
C759 H747 0.950 . S
C759 C755 1.393 . S
C759 C758 1.391 . S
H760 C768 0.950 . S
H761 C773 0.950 . S
H762 C770 1.000 . S
H763 C772 0.950 . S
H764 C774 0.950 . S
H765 C776 0.950 . S
H766 C778 0.950 1_554 S
H767 C779 1.005 . S
C768 H760 0.950 . S
C768 C769 1.386 . S
C768 C770 1.391 . S
C769 C768 1.386 . S
C769 C773 1.393 . S
C770 H762 1.000 . S
C770 C768 1.391 . S
C770 C771 1.400 . S
C771 C770 1.400 . S
C771 C772 1.398 . S
C771 C777 1.491 . S
C772 H763 0.950 . S
C772 C771 1.398 . S
C772 C773 1.391 . S
C773 H761 0.950 . S
C773 C769 1.393 . S
C773 C772 1.391 . S
C774 H764 0.950 . S
C774 C775 1.386 . S
C774 C776 1.391 . S
C775 C774 1.386 . S
C775 C779 1.356 1_556 S
C776 H765 0.950 . S
C776 C774 1.391 . S
C776 C777 1.400 . S
C777 C771 1.491 . S
C777 C776 1.400 . S
C777 C778 1.398 . S
C778 H766 0.950 1_556 S
C778 C777 1.398 . S
C778 C779 1.376 1_556 S
C779 H767 1.005 . S
C779 C775 1.356 1_554 S
C779 C778 1.376 1_554 S
H780 C788 0.950 . S
H781 C793 0.950 . S
H782 C790 0.950 . S
H783 C792 0.950 . S
H784 C794 0.950 . S
H785 C796 0.950 . S
H786 C798 0.950 . S
H787 C799 0.950 . S
C788 H780 0.950 . S
C788 C789 1.386 . S
C788 C790 1.391 . S
C789 C788 1.386 . S
C789 C793 1.393 . S
C790 H782 0.950 . S
C790 C788 1.391 . S
C790 C791 1.400 . S
C791 C790 1.400 . S
C791 C792 1.398 . S
C791 C797 1.491 . S
C792 H783 0.950 . S
C792 C791 1.398 . S
C792 C793 1.391 . S
C793 H781 0.950 . S
C793 C789 1.393 . S
C793 C792 1.391 . S
C794 H784 0.950 . S
C794 C795 1.386 . S
C794 C796 1.391 . S
C795 C794 1.386 . S
C795 C799 1.393 . S
C796 H785 0.950 . S
C796 C794 1.391 . S
C796 C797 1.400 . S
C797 C791 1.491 . S
C797 C796 1.400 . S
C797 C798 1.398 . S
C798 H786 0.950 . S
C798 C797 1.398 . S
C798 C799 1.391 . S
C799 H787 0.950 . S
C799 C795 1.393 . S
C799 C798 1.391 . S
H800 C808 0.950 . S
H801 C813 0.950 . S
H802 C810 0.950 . S
H803 C812 0.950 . S
H804 C814 0.950 . S
H805 C816 0.950 . S
H806 C818 0.950 . S
H807 C819 0.950 . S
C808 H800 0.950 . S
C808 C809 1.386 . S
C808 C810 1.391 . S
C809 C808 1.386 . S
C809 C813 1.393 . S
C810 H802 0.950 . S
C810 C808 1.391 . S
C810 C811 1.400 . S
C811 C810 1.400 . S
C811 C812 1.398 . S
C811 C817 1.491 . S
C812 H803 0.950 . S
C812 C811 1.398 . S
C812 C813 1.391 . S
C813 H801 0.950 . S
C813 C809 1.393 . S
C813 C812 1.391 . S
C814 H804 0.950 . S
C814 C815 1.386 . S
C814 C816 1.391 . S
C815 C814 1.386 . S
C815 C819 1.393 . S
C816 H805 0.950 . S
C816 C814 1.391 . S
C816 C817 1.400 . S
C817 C811 1.491 . S
C817 C816 1.400 . S
C817 C818 1.398 . S
C818 H806 0.950 . S
C818 C817 1.398 . S
C818 C819 1.391 . S
C819 H807 0.950 . S
C819 C815 1.393 . S
C819 C818 1.391 . S
H820 C828 0.950 . S
H821 C833 0.950 . S
H822 C830 0.950 . S
H823 C832 0.950 . S
H824 C834 0.950 . S
H825 C836 0.950 . S
H826 C838 0.950 . S
H827 C839 0.950 . S
C828 H820 0.950 . S
C828 C829 1.386 . S
C828 C830 1.391 . S
C829 C828 1.386 . S
C829 C833 1.393 . S
C830 H822 0.950 . S
C830 C828 1.391 . S
C830 C831 1.400 . S
C831 C830 1.400 . S
C831 C832 1.398 . S
C831 C837 1.491 . S
C832 H823 0.950 . S
C832 C831 1.398 . S
C832 C833 1.391 . S
C833 H821 0.950 . S
C833 C829 1.393 . S
C833 C832 1.391 . S
C834 H824 0.950 . S
C834 C835 1.386 . S
C834 C836 1.391 . S
C835 C834 1.386 . S
C835 C839 1.393 . S
C836 H825 0.950 . S
C836 C834 1.391 . S
C836 C837 1.400 . S
C837 C831 1.491 . S
C837 C836 1.400 . S
C837 C838 1.398 . S
C838 H826 0.950 . S
C838 C837 1.398 . S
C838 C839 1.391 . S
C839 H827 0.950 . S
C839 C835 1.393 . S
C839 C838 1.391 . S
H840 C848 0.950 . S
H841 C853 0.950 . S
H842 C850 0.950 . S
H843 C852 0.950 . S
H844 C854 0.950 . S
H845 C856 0.950 . S
H846 C858 0.950 . S
H847 C859 0.950 . S
C848 H840 0.950 . S
C848 C849 1.386 . S
C848 C850 1.391 . S
C849 C848 1.386 . S
C849 C853 1.393 . S
C850 H842 0.950 . S
C850 C848 1.391 . S
C850 C851 1.400 . S
C851 C850 1.400 . S
C851 C852 1.398 . S
C851 C857 1.491 . S
C852 H843 0.950 . S
C852 C851 1.398 . S
C852 C853 1.391 . S
C853 H841 0.950 . S
C853 C849 1.393 . S
C853 C852 1.391 . S
C854 H844 0.950 . S
C854 C855 1.386 . S
C854 C856 1.391 . S
C855 C854 1.386 . S
C855 C859 1.393 . S
C856 H845 0.950 . S
C856 C854 1.391 . S
C856 C857 1.400 . S
C857 C851 1.491 . S
C857 C856 1.400 . S
C857 C858 1.398 . S
C858 H846 0.950 . S
C858 C857 1.398 . S
C858 C859 1.391 . S
C859 H847 0.950 . S
C859 C855 1.393 . S
C859 C858 1.391 . S
H860 C868 0.950 . S
H861 C873 0.950 . S
H862 C870 0.950 . S
H863 C872 0.950 . S
H864 C874 0.950 . S
H865 C876 0.950 . S
H866 C878 0.950 . S
H867 C879 0.950 . S
C868 H860 0.950 . S
C868 C869 1.386 . S
C868 C870 1.391 . S
C869 C868 1.386 . S
C869 C873 1.393 . S
C870 H862 0.950 . S
C870 C868 1.391 . S
C870 C871 1.400 . S
C871 C870 1.400 . S
C871 C872 1.398 . S
C871 C877 1.491 . S
C872 H863 0.950 . S
C872 C871 1.398 . S
C872 C873 1.391 . S
C873 H861 0.950 . S
C873 C869 1.393 . S
C873 C872 1.391 . S
C874 H864 0.950 . S
C874 C875 1.386 . S
C874 C876 1.391 . S
C875 C874 1.386 . S
C875 C879 1.393 . S
C876 H865 0.950 . S
C876 C874 1.391 . S
C876 C877 1.400 . S
C877 C871 1.491 . S
C877 C876 1.400 . S
C877 C878 1.398 . S
C878 H866 0.950 . S
C878 C877 1.398 . S
C878 C879 1.391 . S
C879 H867 0.950 . S
C879 C875 1.393 . S
C879 C878 1.391 . S
H880 C888 0.950 . S
H881 C893 0.950 . S
H882 C890 0.950 . S
H883 C892 0.950 . S
H884 C894 0.950 . S
H885 C896 0.950 . S
H886 C898 0.950 . S
H887 C899 0.950 . S
C888 H880 0.950 . S
C888 C889 1.386 . S
C888 C890 1.391 . S
C889 C888 1.386 . S
C889 C893 1.393 . S
C890 H882 0.950 . S
C890 C888 1.391 . S
C890 C891 1.400 . S
C891 C890 1.400 . S
C891 C892 1.398 . S
C891 C897 1.491 . S
C892 H883 0.950 . S
C892 C891 1.398 . S
C892 C893 1.391 . S
C893 H881 0.950 . S
C893 C889 1.393 . S
C893 C892 1.391 . S
C894 H884 0.950 . S
C894 C895 1.386 . S
C894 C896 1.391 . S
C895 C894 1.386 . S
C895 C899 1.393 . S
C896 H885 0.950 . S
C896 C894 1.391 . S
C896 C897 1.400 . S
C897 C891 1.491 . S
C897 C896 1.400 . S
C897 C898 1.398 . S
C898 H886 0.950 . S
C898 C897 1.398 . S
C898 C899 1.391 . S
C899 H887 0.950 . S
C899 C895 1.393 . S
C899 C898 1.391 . S
H900 C908 0.950 . S
H901 C913 0.950 . S
H902 C910 0.950 . S
H903 C912 0.950 . S
H904 C914 0.950 . S
H905 C916 0.950 . S
H906 C918 0.950 . S
H907 C919 0.950 . S
C908 H900 0.950 . S
C908 C909 1.386 . S
C908 C910 1.391 . S
C909 C908 1.386 . S
C909 C913 1.393 . S
C910 H902 0.950 . S
C910 C908 1.391 . S
C910 C911 1.400 . S
C911 C910 1.400 . S
C911 C912 1.398 . S
C911 C917 1.491 . S
C912 H903 0.950 . S
C912 C911 1.398 . S
C912 C913 1.391 . S
C913 H901 0.950 . S
C913 C909 1.393 . S
C913 C912 1.391 . S
C914 H904 0.950 . S
C914 C915 1.386 . S
C914 C916 1.391 . S
C915 C914 1.386 . S
C915 C919 1.393 . S
C916 H905 0.950 . S
C916 C914 1.391 . S
C916 C917 1.400 . S
C917 C911 1.491 . S
C917 C916 1.400 . S
C917 C918 1.398 . S
C918 H906 0.950 . S
C918 C917 1.398 . S
C918 C919 1.391 . S
C919 H907 0.950 . S
C919 C915 1.393 . S
C919 C918 1.391 . S
H920 C928 0.950 . S
H921 C933 0.950 . S
H922 C930 0.950 . S
H923 C932 0.950 . S
H924 C934 0.950 . S
H925 C936 0.950 . S
H926 C938 0.950 . S
H927 C939 0.950 . S
C928 H920 0.950 . S
C928 C929 1.386 . S
C928 C930 1.391 . S
C929 C928 1.386 . S
C929 C933 1.393 . S
C930 H922 0.950 . S
C930 C928 1.391 . S
C930 C931 1.400 . S
C931 C930 1.400 . S
C931 C932 1.398 . S
C931 C937 1.491 . S
C932 H923 0.950 . S
C932 C931 1.398 . S
C932 C933 1.391 . S
C933 H921 0.950 . S
C933 C929 1.393 . S
C933 C932 1.391 . S
C934 H924 0.950 . S
C934 C935 1.386 . S
C934 C936 1.391 . S
C935 C934 1.386 . S
C935 C939 1.393 . S
C936 H925 0.950 . S
C936 C934 1.391 . S
C936 C937 1.400 . S
C937 C931 1.491 . S
C937 C936 1.400 . S
C937 C938 1.398 . S
C938 H926 0.950 . S
C938 C937 1.398 . S
C938 C939 1.391 . S
C939 H927 0.950 . S
C939 C935 1.393 . S
C939 C938 1.391 . S
H940 C948 0.950 . S
H941 C953 0.950 . S
H942 C950 0.950 . S
H943 C952 0.950 . S
H944 C954 0.950 . S
H945 C956 0.950 . S
H946 C958 0.950 . S
H947 C959 0.950 . S
C948 H940 0.950 . S
C948 C949 1.386 . S
C948 C950 1.391 . S
C949 C948 1.386 . S
C949 C953 1.393 . S
C950 H942 0.950 . S
C950 C948 1.391 . S
C950 C951 1.400 . S
C951 C950 1.400 . S
C951 C952 1.398 . S
C951 C957 1.491 . S
C952 H943 0.950 . S
C952 C951 1.398 . S
C952 C953 1.391 . S
C953 H941 0.950 . S
C953 C949 1.393 . S
C953 C952 1.391 . S
C954 H944 0.950 . S
C954 C955 1.386 . S
C954 C956 1.391 . S
C955 C954 1.386 . S
C955 C959 1.393 . S
C956 H945 0.950 . S
C956 C954 1.391 . S
C956 C957 1.400 . S
C957 C951 1.491 . S
C957 C956 1.400 . S
C957 C958 1.398 . S
C958 H946 0.950 . S
C958 C957 1.398 . S
C958 C959 1.391 . S
C959 H947 0.950 . S
C959 C955 1.393 . S
C959 C958 1.391 . S
H960 C968 0.950 . S
H961 C973 0.950 . S
H962 C970 0.950 . S
H963 C972 0.950 . S
H964 C974 0.950 . S
H965 C976 0.950 . S
H966 C978 0.950 . S
H967 C979 0.950 . S
C968 H960 0.950 . S
C968 C969 1.386 . S
C968 C970 1.391 . S
C969 C968 1.386 . S
C969 C973 1.393 . S
C970 H962 0.950 . S
C970 C968 1.391 . S
C970 C971 1.400 . S
C971 C970 1.400 . S
C971 C972 1.398 . S
C971 C977 1.491 . S
C972 H963 0.950 . S
C972 C971 1.398 . S
C972 C973 1.391 . S
C973 H961 0.950 . S
C973 C969 1.393 . S
C973 C972 1.391 . S
C974 H964 0.950 . S
C974 C975 1.386 . S
C974 C976 1.391 . S
C975 C974 1.386 . S
C975 C979 1.393 . S
C976 H965 0.950 . S
C976 C974 1.391 . S
C976 C977 1.400 . S
C977 C971 1.491 . S
C977 C976 1.400 . S
C977 C978 1.398 . S
C978 H966 0.950 . S
C978 C977 1.398 . S
C978 C979 1.391 . S
C979 H967 0.950 . S
C979 C975 1.393 . S
C979 C978 1.391 . S
H980 C988 0.950 . S
H981 C993 0.950 . S
H982 C990 0.950 . S
H983 C992 0.950 . S
H984 C994 0.950 . S
H985 C996 0.950 . S
H986 C998 0.950 . S
H987 C999 0.950 . S
C988 H980 0.950 . S
C988 C989 1.386 . S
C988 C990 1.391 . S
C989 C988 1.386 . S
C989 C993 1.393 . S
C990 H982 0.950 . S
C990 C988 1.391 . S
C990 C991 1.400 . S
C991 C990 1.400 . S
C991 C992 1.398 . S
C991 C997 1.491 . S
C992 H983 0.950 . S
C992 C991 1.398 . S
C992 C993 1.391 . S
C993 H981 0.950 . S
C993 C989 1.393 . S
C993 C992 1.391 . S
C994 H984 0.950 . S
C994 C995 1.386 . S
C994 C996 1.391 . S
C995 C994 1.386 . S
C995 C999 1.393 . S
C996 H985 0.950 . S
C996 C994 1.391 . S
C996 C997 1.400 . S
C997 C991 1.491 . S
C997 C996 1.400 . S
C997 C998 1.398 . S
C998 H986 0.950 . S
C998 C997 1.398 . S
C998 C999 1.391 . S
C999 H987 0.950 . S
C999 C995 1.393 . S
C999 C998 1.391 . S
H1000 C1008 0.950 . S
H1001 C1013 0.950 . S
H1002 C1010 0.950 . S
H1003 C1012 0.950 . S
H1004 C1014 0.950 . S
H1005 C1016 0.950 . S
H1006 C1018 0.950 . S
H1007 C1019 0.950 . S
C1008 H1000 0.950 . S
C1008 C1009 1.386 . S
C1008 C1010 1.391 . S
C1009 C1008 1.386 . S
C1009 C1013 1.393 . S
C1010 H1002 0.950 . S
C1010 C1008 1.391 . S
C1010 C1011 1.400 . S
C1011 C1010 1.400 . S
C1011 C1012 1.398 . S
C1011 C1017 1.491 . S
C1012 H1003 0.950 . S
C1012 C1011 1.398 . S
C1012 C1013 1.391 . S
C1013 H1001 0.950 . S
C1013 C1009 1.393 . S
C1013 C1012 1.391 . S
C1014 H1004 0.950 . S
C1014 C1015 1.386 . S
C1014 C1016 1.391 . S
C1015 C1014 1.386 . S
C1015 C1019 1.393 . S
C1016 H1005 0.950 . S
C1016 C1014 1.391 . S
C1016 C1017 1.400 . S
C1017 C1011 1.491 . S
C1017 C1016 1.400 . S
C1017 C1018 1.398 . S
C1018 H1006 0.950 . S
C1018 C1017 1.398 . S
C1018 C1019 1.391 . S
C1019 H1007 0.950 . S
C1019 C1015 1.393 . S
C1019 C1018 1.391 . S
H1020 C1028 0.950 . S
H1021 C1033 0.950 . S
H1022 C1030 0.950 . S
H1023 C1032 0.950 . S
H1024 C1034 0.950 . S
H1025 C1036 0.950 . S
H1026 C1038 0.950 . S
H1027 C1039 0.950 . S
C1028 H1020 0.950 . S
C1028 C1029 1.386 . S
C1028 C1030 1.391 . S
C1029 C1028 1.386 . S
C1029 C1033 1.393 . S
C1030 H1022 0.950 . S
C1030 C1028 1.391 . S
C1030 C1031 1.400 . S
C1031 C1030 1.400 . S
C1031 C1032 1.398 . S
C1031 C1037 1.491 . S
C1032 H1023 0.950 . S
C1032 C1031 1.398 . S
C1032 C1033 1.391 . S
C1033 H1021 0.950 . S
C1033 C1029 1.393 . S
C1033 C1032 1.391 . S
C1034 H1024 0.950 . S
C1034 C1035 1.386 . S
C1034 C1036 1.391 . S
C1035 C1034 1.386 . S
C1035 C1039 1.393 . S
C1036 H1025 0.950 . S
C1036 C1034 1.391 . S
C1036 C1037 1.400 . S
C1037 C1031 1.491 . S
C1037 C1036 1.400 . S
C1037 C1038 1.398 . S
C1038 H1026 0.950 . S
C1038 C1037 1.398 . S
C1038 C1039 1.391 . S
C1039 H1027 0.950 . S
C1039 C1035 1.393 . S
C1039 C1038 1.391 . S
H1040 C1048 0.950 . S
H1041 C1053 0.950 . S
H1042 C1050 0.950 . S
H1043 C1052 0.950 . S
H1044 C1054 0.950 . S
H1045 C1056 0.950 . S
H1046 C1058 0.950 . S
H1047 C1059 0.950 . S
C1048 H1040 0.950 . S
C1048 C1049 1.386 . S
C1048 C1050 1.391 . S
C1049 C1048 1.386 . S
C1049 C1053 1.393 . S
C1050 H1042 0.950 . S
C1050 C1048 1.391 . S
C1050 C1051 1.400 . S
C1051 C1050 1.400 . S
C1051 C1052 1.398 . S
C1051 C1057 1.491 . S
C1052 H1043 0.950 . S
C1052 C1051 1.398 . S
C1052 C1053 1.391 . S
C1053 H1041 0.950 . S
C1053 C1049 1.393 . S
C1053 C1052 1.391 . S
C1054 H1044 0.950 . S
C1054 C1055 1.386 . S
C1054 C1056 1.391 . S
C1055 C1054 1.386 . S
C1055 C1059 1.393 . S
C1056 H1045 0.950 . S
C1056 C1054 1.391 . S
C1056 C1057 1.400 . S
C1057 C1051 1.491 . S
C1057 C1056 1.400 . S
C1057 C1058 1.398 . S
C1058 H1046 0.950 . S
C1058 C1057 1.398 . S
C1058 C1059 1.391 . S
C1059 H1047 0.950 . S
C1059 C1055 1.393 . S
C1059 C1058 1.391 . S
H1060 C1068 0.950 . S
H1061 C1073 0.950 . S
H1062 C1070 0.950 . S
H1063 C1072 0.950 . S
H1064 C1074 0.950 . S
H1065 C1076 0.950 . S
H1066 C1078 0.950 . S
H1067 C1079 0.950 . S
C1068 H1060 0.950 . S
C1068 C1069 1.386 . S
C1068 C1070 1.391 . S
C1069 C1068 1.386 . S
C1069 C1073 1.393 . S
C1070 H1062 0.950 . S
C1070 C1068 1.391 . S
C1070 C1071 1.400 . S
C1071 C1070 1.400 . S
C1071 C1072 1.398 . S
C1071 C1077 1.491 . S
C1072 H1063 0.950 . S
C1072 C1071 1.398 . S
C1072 C1073 1.391 . S
C1073 H1061 0.950 . S
C1073 C1069 1.393 . S
C1073 C1072 1.391 . S
C1074 H1064 0.950 . S
C1074 C1075 1.386 . S
C1074 C1076 1.391 . S
C1075 C1074 1.386 . S
C1075 C1079 1.393 . S
C1076 H1065 0.950 . S
C1076 C1074 1.391 . S
C1076 C1077 1.400 . S
C1077 C1071 1.491 . S
C1077 C1076 1.400 . S
C1077 C1078 1.398 . S
C1078 H1066 0.950 . S
C1078 C1077 1.398 . S
C1078 C1079 1.391 . S
C1079 H1067 0.950 . S
C1079 C1075 1.393 . S
C1079 C1078 1.391 . S
H1080 C1088 0.950 . S
H1081 C1093 0.950 . S
H1082 C1090 0.950 . S
H1083 C1092 0.950 . S
H1084 C1094 0.950 . S
H1085 C1096 0.950 . S
H1086 C1098 0.950 . S
H1087 C1099 0.950 . S
C1088 H1080 0.950 . S
C1088 C1089 1.386 . S
C1088 C1090 1.391 . S
C1089 C1088 1.386 . S
C1089 C1093 1.393 . S
C1090 H1082 0.950 . S
C1090 C1088 1.391 . S
C1090 C1091 1.400 . S
C1091 C1090 1.400 . S
C1091 C1092 1.398 . S
C1091 C1097 1.491 . S
C1092 H1083 0.950 . S
C1092 C1091 1.398 . S
C1092 C1093 1.391 . S
C1093 H1081 0.950 . S
C1093 C1089 1.393 . S
C1093 C1092 1.391 . S
C1094 H1084 0.950 . S
C1094 C1095 1.386 . S
C1094 C1096 1.391 . S
C1095 C1094 1.386 . S
C1095 C1099 1.393 . S
C1096 H1085 0.950 . S
C1096 C1094 1.391 . S
C1096 C1097 1.400 . S
C1097 C1091 1.491 . S
C1097 C1096 1.400 . S
C1097 C1098 1.398 . S
C1098 H1086 0.950 . S
C1098 C1097 1.398 . S
C1098 C1099 1.391 . S
C1099 H1087 0.950 . S
C1099 C1095 1.393 . S
C1099 C1098 1.391 . S
H1100 C1108 0.950 . S
H1101 C1113 0.950 . S
H1102 C1110 0.950 . S
H1103 C1112 0.950 . S
H1104 C1114 0.950 . S
H1105 C1116 0.950 . S
H1106 C1118 0.950 . S
H1107 C1119 0.950 . S
C1108 H1100 0.950 . S
C1108 C1109 1.386 . S
C1108 C1110 1.391 . S
C1109 C1108 1.386 . S
C1109 C1113 1.393 . S
C1110 H1102 0.950 . S
C1110 C1108 1.391 . S
C1110 C1111 1.400 . S
C1111 C1110 1.400 . S
C1111 C1112 1.398 . S
C1111 C1117 1.491 . S
C1112 H1103 0.950 . S
C1112 C1111 1.398 . S
C1112 C1113 1.391 . S
C1113 H1101 0.950 . S
C1113 C1109 1.393 . S
C1113 C1112 1.391 . S
C1114 H1104 0.950 . S
C1114 C1115 1.386 . S
C1114 C1116 1.391 . S
C1115 C1114 1.386 . S
C1115 C1119 1.393 . S
C1116 H1105 0.950 . S
C1116 C1114 1.391 . S
C1116 C1117 1.400 . S
C1117 C1111 1.491 . S
C1117 C1116 1.400 . S
C1117 C1118 1.398 . S
C1118 H1106 0.950 . S
C1118 C1117 1.398 . S
C1118 C1119 1.391 . S
C1119 H1107 0.950 . S
C1119 C1115 1.393 . S
C1119 C1118 1.391 . S
C495 C390 1.320 . S
C489 C8 1.302 . S
C515 C404 1.328 . S
C509 C61 1.287 . S
C535 C419 1.307 . S
C529 C107 1.301 . S
C549 C139 1.286 . S
C555 C377 1.281 . S
C569 C192 1.257 . S
C575 C376 1.288 1_556 S
C589 C238 1.243 . S
C595 C391 1.249 . S
C615 C405 1.311 . S
C609 C284 1.314 . S
C635 C418 1.318 . S
C629 C330 1.282 . S
C649 C100 1.248 . S
C655 C446 1.288 . S
C675 C460 1.334 . S
C669 C160 1.278 . S
C689 C15 1.239 . S
C695 C475 1.271 . S
C715 C432 1.261 . S
C709 C54 1.242 . S
C729 C291 1.300 . S
C735 C433 1.311 . S
C749 C337 1.313 . S
C755 C447 1.318 . S
C775 C461 1.316 . S
C769 C199 1.314 . S
C789 C245 1.301 . S
C795 C474 1.341 . S
C815 C399 1.709 . S
C809 C1 1.707 . S
C835 C417 1.689 . S
C829 C68 1.695 . S
C849 C114 1.717 . S
C855 C375 1.688 . S
C869 C146 1.726 . S
C875 C385 1.734 . S
C889 C185 1.641 . S
C895 C413 1.637 . S
C915 C371 1.651 . S
C909 C231 1.654 . S
C935 C389 1.601 . S
C929 C277 1.652 . S
C955 C403 1.618 . S
C949 C323 1.645 . S
C975 C455 1.638 . S
C969 C93 1.641 . S
C995 C473 1.595 . S
C989 C153 1.642 . S
C1009 C22 1.642 . S
C1015 C427 1.646 . S
C1035 C441 1.642 . S
C1029 C47 1.643 . S
C1055 C469 1.735 . S
C1049 C298 1.724 . S
C1069 C344 1.726 . S
C1075 C431 1.695 . S
C1095 C445 1.699 . S
C1089 C206 1.703 . S
C1115 C459 1.690 . S
C1109 C252 1.701 . S
