# Generated by pormake.
# Topology anh, (6,3)-cn, num edge types: 1
# Building blocks:
#     Node 0, Type 0, BuildingBlock: GEDQOX_clean_sbu_0, # of connection points: 6
#     Node 1, Type 0, BuildingBlock: GEDQOX_clean_sbu_0, # of connection points: 6
#     Node 2, Type 0, BuildingBlock: GEDQOX_clean_sbu_0, # of connection points: 6
#     Node 3, Type 1, BuildingBlock: BETDIP_clean_linker_0, # of connection points: 3
#     Node 4, Type 1, BuildingBlock: BETDIP_clean_linker_0, # of connection points: 3
#     Node 5, Type 1, BuildingBlock: BETDIP_clean_linker_0, # of connection points: 3
#     Node 6, Type 1, BuildingBlock: BETDIP_clean_linker_0, # of connection points: 3
#     Node 7, Type 1, BuildingBlock: BETDIP_clean_linker_0, # of connection points: 3
#     Node 8, Type 1, BuildingBlock: BETDIP_clean_linker_0, # of connection points: 3
#     Edge 9, Type (0, 1), BuildingBlock: CIFDUS_clean_linker_0, # of connection points: 2
#     Edge 10, Type (0, 1), BuildingBlock: CIFDUS_clean_linker_0, # of connection points: 2
#     Edge 11, Type (0, 1), BuildingBlock: CIFDUS_clean_linker_0, # of connection points: 2
#     Edge 12, Type (0, 1), BuildingBlock: CIFDUS_clean_linker_0, # of connection points: 2
#     Edge 13, Type (0, 1), BuildingBlock: CIFDUS_clean_linker_0, # of connection points: 2
#     Edge 14, Type (0, 1), BuildingBlock: CIFDUS_clean_linker_0, # of connection points: 2
#     Edge 15, Type (0, 1), BuildingBlock: CIFDUS_clean_linker_0, # of connection points: 2
#     Edge 16, Type (0, 1), BuildingBlock: CIFDUS_clean_linker_0, # of connection points: 2
#     Edge 17, Type (0, 1), BuildingBlock: CIFDUS_clean_linker_0, # of connection points: 2
#     Edge 18, Type (0, 1), BuildingBlock: CIFDUS_clean_linker_0, # of connection points: 2
#     Edge 19, Type (0, 1), BuildingBlock: CIFDUS_clean_linker_0, # of connection points: 2
#     Edge 20, Type (0, 1), BuildingBlock: CIFDUS_clean_linker_0, # of connection points: 2
#     Edge 21, Type (0, 1), BuildingBlock: CIFDUS_clean_linker_0, # of connection points: 2
#     Edge 22, Type (0, 1), BuildingBlock: CIFDUS_clean_linker_0, # of connection points: 2
#     Edge 23, Type (0, 1), BuildingBlock: CIFDUS_clean_linker_0, # of connection points: 2
#     Edge 24, Type (0, 1), BuildingBlock: CIFDUS_clean_linker_0, # of connection points: 2
#     Edge 25, Type (0, 1), BuildingBlock: CIFDUS_clean_linker_0, # of connection points: 2
#     Edge 26, Type (0, 1), BuildingBlock: CIFDUS_clean_linker_0, # of connection points: 2
# Relax obj value: 0.175
# Max RMSD: 0.191
# Mean RMSD: 0.128
data_MOF--net-anh--node1-GEDQOX_clean_sbu_0--node2-BETDIP_clean_linker_0--edge1-CIFDUS_clean_linker_0
_symmetry_space_group_name_H-M    P1
_symmetry_Int_Tables_number       1
_symmetry_cell_setting            triclinic
loop_
_symmetry_equiv_pos_as_xyz
'x, y, z'
_cell_length_a     27.347737
_cell_length_b     26.30209
_cell_length_c     43.442988
_cell_angle_alpha  96.309262
_cell_angle_beta   90.832492
_cell_angle_gamma 99.702381
loop_
_atom_site_label
_atom_site_type_symbol
_atom_site_fract_x
_atom_site_fract_y
_atom_site_fract_z
_atom_type_partial_charge
Nd0 Nd 0.1449 0.61751 0.13953 0.0
Nd1 Nd 0.13295 0.49984 0.13597 0.0
C2 C 0.17796 0.71588 0.13194 0.0
C3 C 0.2221 0.75525 0.14271 0.0
C4 C 0.25558 0.77579 0.12113 0.0
C5 C 0.29776 0.81257 0.13098 0.0
C6 C 0.30705 0.82998 0.16263 0.0
C7 C 0.27362 0.80911 0.18418 0.0
C8 C 0.23176 0.77218 0.17438 0.0
C9 C 0.13698 0.58096 0.19611 0.0
C10 C 0.24802 0.55877 0.13595 0.0
C11 C 0.10161 0.40234 0.14658 0.0
C12 C 1.05409 0.3727 0.15562 0.0
C13 C 1.01791 0.39856 0.16972 0.0
C14 C 0.97388 0.37055 0.17945 0.0
C15 C 0.96503 0.31585 0.17564 0.0
C16 C 1.0009 0.29002 0.16082 0.0
C17 C 1.045 0.31823 0.15092 0.0
C18 C 0.14184 0.53951 0.08018 0.0
C19 C 1.02998 0.55686 0.1355 0.0
O20 O 0.18608 0.67691 0.11246 0.0
O21 O 0.14557 0.70158 0.15257 0.0
O22 O 0.11922 0.62118 0.18934 0.0
O23 O 0.16135 0.56363 0.17405 0.0
O24 O 0.22688 0.60057 0.13395 0.0
O25 O 0.21988 0.51348 0.13942 0.0
O26 O 0.12418 0.43852 0.16756 0.0
O27 O 0.10261 0.41739 0.11885 0.0
O28 O 0.16176 0.49986 0.08612 0.0
O29 O 0.11654 0.55408 0.1024 0.0
O30 O 1.0514 0.51708 0.14184 0.0
O31 O 1.05843 0.60088 0.12976 0.0
H32 H 0.24906 0.76339 0.09658 0.0
H33 H 0.32257 0.82809 0.11379 0.0
H34 H 0.28007 0.82104 0.20877 0.0
H35 H 0.20709 0.75688 0.1917 0.0
H36 H 1.02397 0.4405 0.17372 0.0
H37 H 0.94685 0.3919 0.19023 0.0
H38 H 0.99563 0.24802 0.15772 0.0
H39 H 1.07242 0.29746 0.1401 0.0
Nd40 Nd 0.5486 1.00532 0.51177 0.0
Nd41 Nd 0.65925 0.02602 0.50602 0.0
C42 C 0.4564 0.96967 0.52646 0.0
C43 C 0.42368 0.91853 0.5219 0.0
C44 C 0.44319 0.87254 0.52249 0.0
C45 C 0.41322 0.82426 0.51419 0.0
C46 C 0.36302 0.82096 0.50529 0.0
C47 C 0.34296 0.86696 0.50622 0.0
C48 C 0.37313 0.91532 0.51433 0.0
C49 C 0.5786 0.01267 0.45235 0.0
C50 C 0.61179 0.90625 0.50606 0.0
C51 C 0.75122 0.06083 0.49075 0.0
C52 C 0.78441 0.11134 0.4901 0.0
C53 C 0.80485 0.12445 0.46201 0.0
C54 C 0.83705 0.17145 0.46081 0.0
C55 C 0.85 0.20636 0.48778 0.0
C56 C 0.82906 0.19332 0.51589 0.0
C57 C 0.79653 0.14641 0.51703 0.0
C58 C 0.62793 0.01975 0.56535 0.0
C59 C 0.59812 0.12557 0.51299 0.0
O60 O 0.49467 0.97449 0.54567 0.0
O61 O 0.46745 0.99141 0.50124 0.0
O62 O 0.54051 0.03075 0.46358 0.0
O63 O 0.59807 0.98895 0.47172 0.0
O64 O 0.57054 0.9236 0.51424 0.0
O65 O 0.65069 0.93787 0.49759 0.0
O66 O 0.7137 0.0502 0.47073 0.0
O67 O 0.73974 0.04598 0.51789 0.0
O68 O 0.66523 0.99968 0.5545 0.0
O69 O 0.60985 0.04381 0.54568 0.0
O70 O 0.63806 0.10701 0.50353 0.0
O71 O 0.55873 0.09452 0.52163 0.0
H72 H 0.48193 0.87393 0.52853 0.0
H73 H 0.42962 0.7895 0.514 0.0
H74 H 0.30458 0.86573 0.4992 0.0
H75 H 0.35737 0.95033 0.51364 0.0
H76 H 0.79593 0.09821 0.44091 0.0
H77 H 0.85153 0.18052 0.43863 0.0
H78 H 0.83846 0.2189 0.53718 0.0
H79 H 0.78125 0.13753 0.53906 0.0
Nd80 Nd 0.50501 0.47419 0.82058 0.0
Nd81 Nd 0.61037 0.47993 0.83799 0.0
C82 C 0.41402 0.46614 0.7979 0.0
C83 C 0.38427 0.50794 0.79818 0.0
C84 C 0.40723 0.55817 0.79305 0.0
C85 C 0.3838 0.60065 0.80098 0.0
C86 C 0.33685 0.59376 0.81402 0.0
C87 C 0.31221 0.54318 0.81694 0.0
C88 C 0.33593 0.50054 0.80923 0.0
C89 C 0.52629 0.50097 0.88282 0.0
C90 C 0.57069 0.58999 0.82727 0.0
C91 C 0.70112 0.49498 0.86283 0.0
C92 C 0.75165 0.52132 0.85852 0.0
C93 C 0.7911 0.50154 0.87081 0.0
C94 C 0.83984 0.52495 0.86697 0.0
C95 C 0.85005 0.56866 0.85068 0.0
C96 C 0.81029 0.58827 0.8381 0.0
C97 C 0.76127 0.56452 0.84187 0.0
C98 C 0.59023 0.46051 0.77524 0.0
C99 C 0.54506 0.36663 0.83172 0.0
O100 O 0.45288 0.47029 0.78047 0.0
O101 O 0.42367 0.45322 0.82528 0.0
O102 O 0.4966 0.52224 0.86684 0.0
O103 O 0.54277 0.46554 0.86628 0.0
O104 O 0.5281 0.56154 0.81677 0.0
O105 O 0.60678 0.56796 0.83791 0.0
O106 O 0.68382 0.45641 0.84189 0.0
O107 O 0.66813 0.52383 0.87166 0.0
O108 O 0.62091 0.4381 0.78958 0.0
O109 O 0.57341 0.49326 0.7934 0.0
O110 O 0.57985 0.3978 0.84922 0.0
O111 O 0.51476 0.38685 0.81435 0.0
H112 H 0.44453 0.5652 0.7846 0.0
H113 H 0.40329 0.6392 0.79815 0.0
H114 H 0.27602 0.53693 0.82706 0.0
H115 H 0.31779 0.46227 0.81368 0.0
H116 H 0.78417 0.46808 0.88363 0.0
H117 H 0.86953 0.50959 0.87754 0.0
H118 H 0.81713 0.62185 0.82542 0.0
H119 H 0.73101 0.57989 0.83196 0.0
H120 H 0.61085 0.02644 0.18225 0.0
H121 H 0.67704 0.0838 0.273 0.0
H122 H 0.53341 0.9885 0.26461 0.0
H123 H 0.70959 0.15132 0.24763 0.0
C124 C 0.72028 0.13321 0.22565 0.0
C125 C 0.60933 0.0288 0.20727 0.0
C126 C 0.56698 1.0036 0.22111 0.0
C127 C 0.64882 0.05925 0.22568 0.0
C128 C 0.64672 0.06192 0.25828 0.0
C129 C 0.60482 0.0369 0.27216 0.0
C130 C 0.56544 1.00803 0.25356 0.0
N131 N 0.68961 0.08736 0.21102 0.0
H132 H 0.56014 0.46066 0.50318 0.0
H133 H 0.57715 0.56136 0.58906 0.0
H134 H 0.58563 0.39913 0.58836 0.0
H135 H 0.63581 0.60789 0.54872 0.0
C136 C 0.60175 0.60853 0.53563 0.0
C137 C 0.5662 0.46635 0.5281 0.0
C138 C 0.5717 0.42385 0.54429 0.0
C139 C 0.57062 0.51671 0.54421 0.0
C140 C 0.57687 0.52323 0.57673 0.0
C141 C 0.58093 0.48085 0.59324 0.0
C142 C 0.5801 0.43191 0.57644 0.0
N143 N 0.5683 0.5607 0.52794 0.0
H144 H 0.12868 0.80448 0.88101 0.0
H145 H 0.22338 0.78587 0.9575 0.0
H146 H 0.09379 0.67145 0.93115 0.0
H147 H 0.2892 0.88372 0.91478 0.0
C148 C 0.26445 0.84739 0.90764 0.0
C149 C 0.13754 0.78201 0.89917 0.0
C150 C 0.10714 0.73485 0.90311 0.0
C151 C 0.18069 0.79919 0.91777 0.0
C152 C 0.19152 0.77107 0.94201 0.0
C153 C 0.15986 0.72507 0.94695 0.0
C154 C 0.11878 0.70644 0.92688 0.0
N155 N 0.21273 0.84518 0.91202 0.0
H156 H 0.13534 0.53333 0.46444 0.0
H157 H 1.08548 0.47814 0.37026 0.0
H158 H 0.18093 0.62575 0.39067 0.0
H159 H 1.05377 0.48252 0.47193 0.0
C160 C 1.05502 0.44846 0.45556 0.0
C161 C 0.13413 0.53899 0.44014 0.0
C162 C 0.16226 0.58362 0.43 0.0
C163 C 0.10653 0.50064 0.41841 0.0
C164 C 0.10695 0.50754 0.38688 0.0
C165 C 0.13264 0.55312 0.3769 0.0
C166 C 0.16048 0.59072 0.39848 0.0
N167 N 1.07906 0.4539 0.42705 0.0
H168 H 0.52384 0.02432 0.82996 0.0
H169 H 0.57227 0.93102 0.75238 0.0
H170 H 0.54062 0.08305 0.74158 0.0
H171 H 0.61558 0.90595 0.79796 0.0
C172 C 0.57933 0.89277 0.80699 0.0
C173 C 0.53374 0.01948 0.80589 0.0
C174 C 0.53249 0.06035 0.78731 0.0
C175 C 0.54757 0.9721 0.79315 0.0
C176 C 0.56091 0.96678 0.76193 0.0
C177 C 0.55865 1.0064 0.74288 0.0
C178 C 0.54377 0.05251 0.75592 0.0
N179 N 0.54549 0.92896 0.81098 0.0
H180 H 0.59261 0.56316 0.1552 0.0
H181 H 0.66671 0.5375 0.06892 0.0
H182 H 0.50923 0.53276 0.06811 0.0
H183 H 0.71556 0.49656 0.10349 0.0
C184 C 0.7259 0.53259 0.11869 0.0
C185 C 0.59124 0.55487 0.13022 0.0
C186 C 0.54415 0.54888 0.11351 0.0
C187 C 0.63662 0.55017 0.11421 0.0
C188 C 0.63325 0.53958 0.08169 0.0
C189 C 0.58781 0.53415 0.06513 0.0
C190 C 0.54423 0.53857 0.08115 0.0
N191 N 0.68545 0.55854 0.12987 0.0
H192 H 0.3179 0.49991 0.15683 0.0
H193 H 0.30773 0.63071 0.10663 0.0
H194 H 0.39649 0.64214 0.0981 0.0
H195 H 0.4779 0.61345 0.10201 0.0
H196 H 0.49193 0.48591 0.15367 0.0
H197 H 0.40298 0.47585 0.1648 0.0
C198 C 0.33498 0.53104 0.14408 0.0
C199 C 0.30448 0.5641 0.13225 0.0
C200 C 0.38779 0.53855 0.13968 0.0
C201 C 0.32882 0.60439 0.11615 0.0
C202 C 0.38021 0.61111 0.11119 0.0
C203 C 0.46202 0.58427 0.1165 0.0
C204 C 0.49309 0.55123 0.12742 0.0
C205 C 0.41025 0.57843 0.12263 0.0
C206 C 0.47037 0.51302 0.14552 0.0
C207 C 0.41883 0.50675 0.15151 0.0
H208 H 0.93306 0.22208 0.45368 0.0
H209 H 0.84708 0.30235 0.51921 0.0
H210 H 0.90482 0.38332 0.5167 0.0
H211 H 0.97832 0.43243 0.49423 0.0
H212 H 1.06057 0.35237 0.4264 0.0
H213 H 1.00551 0.2706 0.43122 0.0
C214 C 0.92648 0.25732 0.46719 0.0
C215 C 0.8855 0.25584 0.48653 0.0
C216 C 0.95926 0.304 0.46518 0.0
C217 C 0.87853 0.30193 0.50439 0.0
C218 C 0.91141 0.34845 0.50283 0.0
C219 C 0.98424 0.39692 0.48071 0.0
C220 C 1.02328 0.39845 0.45995 0.0
C221 C 0.95176 0.35004 0.48316 0.0
C222 C 1.03056 0.35232 0.44241 0.0
C223 C 0.99909 0.3055 0.44515 0.0
H224 H 0.50162 0.65502 0.82406 0.0
H225 H 0.65947 0.65507 0.82678 0.0
H226 H 0.67531 0.74779 0.82163 0.0
H227 H 0.64498 0.8288 0.81444 0.0
H228 H 0.48801 0.83185 0.81452 0.0
H229 H 0.47122 0.73874 0.82072 0.0
C230 C 0.53949 0.67535 0.82361 0.0
C231 C 0.57931 0.64751 0.8256 0.0
C232 C 0.54853 0.72951 0.82118 0.0
C233 C 0.62807 0.675 0.82534 0.0
C234 C 0.63721 0.72824 0.82232 0.0
C235 C 0.60705 0.80922 0.81612 0.0
C236 C 0.56785 0.83747 0.81398 0.0
C237 C 0.59783 0.75585 0.81999 0.0
C238 C 0.51896 0.81138 0.81627 0.0
C239 C 0.50937 0.75794 0.81964 0.0
H240 H 0.96047 0.62728 0.14343 0.0
H241 H 0.96836 0.46491 0.1208 0.0
H242 H 0.87858 0.44437 0.1148 0.0
H243 H 0.79626 0.47053 0.11444 0.0
H244 H 0.78324 0.63027 0.14002 0.0
H245 H 0.87448 0.65309 0.1465 0.0
C246 C 0.94266 0.58739 0.13715 0.0
C247 C 0.9729 0.54791 0.13241 0.0
C248 C 0.88914 0.57499 0.13434 0.0
C249 C 0.94763 0.49655 0.1247 0.0
C250 C 0.89561 0.48451 0.12118 0.0
C251 C 0.81307 0.51046 0.12182 0.0
C252 C 0.7817 0.54834 0.12681 0.0
C253 C 0.8658 0.52314 0.12583 0.0
C254 C 0.80532 0.59977 0.13626 0.0
C255 C 0.85803 0.6129 0.13976 0.0
H256 H 0.26746 0.7797 0.5178 0.0
H257 H 0.3916 0.74913 0.46274 0.0
H258 H 0.34152 0.67025 0.43677 0.0
H259 H 0.26071 0.61397 0.42638 0.0
H260 H 0.13592 0.64256 0.48094 0.0
H261 H 0.18785 0.71781 0.51068 0.0
C262 C 0.28352 0.75548 0.50028 0.0
C263 C 0.33316 0.77044 0.49215 0.0
C264 C 0.25437 0.70992 0.48532 0.0
C265 C 0.35369 0.73836 0.46965 0.0
C266 C 0.32499 0.69336 0.45462 0.0
C267 C 0.24521 0.6363 0.44515 0.0
C268 C 0.19472 0.62319 0.45148 0.0
C269 C 0.27512 0.67933 0.46185 0.0
C270 C 0.17485 0.65198 0.47586 0.0
C271 C 0.20443 0.69514 0.49264 0.0
H272 H 0.47953 0.28659 0.79878 0.0
H273 H 0.60723 0.31583 0.86175 0.0
H274 H 0.61099 0.22352 0.85694 0.0
H275 H 0.58301 0.13424 0.83121 0.0
H276 H 0.45613 0.10461 0.76799 0.0
H277 H 0.44661 0.19587 0.77696 0.0
C278 C 0.50783 0.27278 0.81175 0.0
C279 C 0.5432 0.30892 0.83044 0.0
C280 C 0.50996 0.21891 0.8089 0.0
C281 C 0.57946 0.28961 0.84705 0.0
C282 C 0.58175 0.23645 0.84433 0.0
C283 C 0.55236 0.14748 0.8202 0.0
C284 C 0.52 0.11226 0.79921 0.0
C285 C 0.54778 0.20067 0.82493 0.0
C286 C 0.48122 0.13061 0.78453 0.0
C287 C 0.47606 0.18305 0.78942 0.0
H288 H 0.53811 0.81954 0.50426 0.0
H289 H 0.69679 0.86883 0.51474 0.0
H290 H 0.70713 0.78154 0.52376 0.0
H291 H 0.67162 0.69204 0.53129 0.0
H292 H 0.5141 0.63915 0.51855 0.0
H293 H 0.50272 0.72642 0.50781 0.0
C294 C 0.57489 0.8111 0.50846 0.0
C295 C 0.61657 0.85121 0.50903 0.0
C296 C 0.58082 0.76002 0.51329 0.0
C297 C 0.66402 0.83908 0.51401 0.0
C298 C 0.67004 0.78904 0.51933 0.0
C299 C 0.63481 0.69948 0.52584 0.0
C300 C 0.59381 0.6592 0.52578 0.0
C301 C 0.62878 0.74939 0.51936 0.0
C302 C 0.54635 0.66935 0.51857 0.0
C303 C 0.53986 0.71939 0.5126 0.0
H304 H 0.88482 0.67237 0.86047 0.0
H305 H 0.93201 0.52457 0.83806 0.0
H306 H 1.01852 0.56566 0.84784 0.0
H307 H 1.07859 0.64049 0.87105 0.0
H308 H 1.03164 0.78785 0.8946 0.0
H309 H 0.94731 0.75055 0.87511 0.0
C310 C 0.91412 0.64946 0.85678 0.0
C311 C 0.90205 0.59536 0.84926 0.0
C312 C 0.96374 0.67323 0.86288 0.0
C313 C 0.94042 0.56613 0.84459 0.0
C314 C 0.98984 0.58957 0.85013 0.0
C315 C 1.05002 0.66457 0.87117 0.0
C316 C 1.06071 0.71641 0.88454 0.0
C317 C 1.00165 0.64259 0.86064 0.0
C318 C 1.02396 0.74775 0.88437 0.0
C319 C 0.97574 0.72632 0.8735 0.0
H320 H 0.40338 0.83722 0.14412 0.0
H321 H 0.30885 0.91398 0.20543 0.0
H322 H 0.3803 0.97707 0.2266 0.0
H323 H 0.46982 1.00746 0.23015 0.0
H324 H 0.56618 0.93049 0.17061 0.0
H325 H 0.49384 0.87172 0.14554 0.0
C326 C 0.3984 0.86818 0.16182 0.0
C327 C 0.35078 0.87036 0.17346 0.0
C328 C 0.43997 0.90443 0.17413 0.0
C329 C 0.34509 0.91067 0.19649 0.0
C330 C 0.38592 0.947 0.20851 0.0
C331 C 0.47505 0.97792 0.21159 0.0
C332 C 0.52341 0.97295 0.20254 0.0
C333 C 0.43357 0.94368 0.19792 0.0
C334 C 0.5294 0.93526 0.17798 0.0
C335 C 0.48804 0.90136 0.16384 0.0
H336 H 0.52091 0.18099 0.51217 0.0
H337 H 0.6807 0.19968 0.51929 0.0
H338 H 0.68696 0.29363 0.5254 0.0
H339 H 0.64731 0.37112 0.53292 0.0
H340 H 0.48831 0.35466 0.52503 0.0
H341 H 0.48141 0.26001 0.51436 0.0
C342 C 0.55703 0.20569 0.51495 0.0
C343 C 0.6002 0.18296 0.51559 0.0
C344 C 0.56059 0.26037 0.51798 0.0
C345 C 0.64677 0.21574 0.51876 0.0
C346 C 0.65049 0.26971 0.52225 0.0
C347 C 0.61132 0.34682 0.52778 0.0
C348 C 0.56844 0.36982 0.52911 0.0
C349 C 0.60773 0.2925 0.52225 0.0
C350 C 0.52188 0.3379 0.52332 0.0
C351 C 0.51795 0.28371 0.51771 0.0
H352 H 0.38411 0.67508 0.85275 0.0
H353 H 0.24303 0.61393 0.80574 0.0
H354 H 0.20841 0.68823 0.82974 0.0
H355 H 0.21889 0.77029 0.86365 0.0
H356 H 0.35802 0.82846 0.91358 0.0
H357 H 0.39385 0.75644 0.88768 0.0
C358 C 0.34592 0.67837 0.84753 0.0
C359 C 0.31614 0.63946 0.82738 0.0
C360 C 0.32619 0.72052 0.8618 0.0
C361 C 0.26651 0.6435 0.82122 0.0
C362 C 0.24682 0.68592 0.83487 0.0
C363 C 0.25645 0.76641 0.86977 0.0
C364 C 0.28523 0.80352 0.8915 0.0
C365 C 0.27625 0.7244 0.85537 0.0
C366 C 0.33499 0.79977 0.89733 0.0
C367 C 0.3554 0.75865 0.88259 0.0
H368 H 0.90515 0.22569 0.15003 0.0
H369 H 0.92322 0.33933 0.23086 0.0
H370 H 0.84939 0.29334 0.2526 0.0
H371 H 0.7798 0.22086 0.24929 0.0
H372 H 0.76087 0.10559 0.16955 0.0
H373 H 0.83494 0.15169 0.14699 0.0
C374 C 0.89313 0.2402 0.17248 0.0
C375 C 0.91977 0.2864 0.18856 0.0
C376 C 0.85043 0.21316 0.18513 0.0
C377 C 0.90317 0.30465 0.21757 0.0
C378 C 0.86102 0.27812 0.2302 0.0
C379 C 0.7919 0.20582 0.22694 0.0
C380 C 0.76488 0.15996 0.21113 0.0
C381 C 0.83436 0.23246 0.21421 0.0
C382 C 0.78096 0.14086 0.18221 0.0
C383 C 0.82335 0.16724 0.16932 0.0
H384 H 0.11899 0.63294 0.07228 0.0
H385 H 0.18523 0.50894 0.02632 0.0
H386 H 0.1999 0.5568 0.98092 0.0
H387 H 0.19072 0.63355 0.95384 0.0
H388 H 0.13359 0.76084 0.00339 0.0
H389 H 0.12075 0.7133 0.04873 0.0
C390 C 0.1377 0.61683 0.05265 0.0
C391 C 0.15131 0.56771 0.05269 0.0
C392 C 0.14828 0.64561 0.02756 0.0
C393 C 0.17444 0.54679 0.02678 0.0
C394 C 0.18301 0.57422 0.00093 0.0
C395 C 0.17676 0.65114 0.97493 0.0
C396 C 0.16348 0.70062 0.97564 0.0
C397 C 0.16995 0.62369 0.00104 0.0
C398 C 0.14472 0.7231 0.00273 0.0
C399 C 0.13684 0.69572 0.02843 0.0
H400 H 0.53751 0.06091 0.40974 0.0
H401 H 0.65356 0.97199 0.42253 0.0
H402 H 0.67535 0.97546 0.36809 0.0
H403 H 0.65771 0.99996 0.31586 0.0
H404 H 0.53907 0.08575 0.30387 0.0
H405 H 0.52217 0.08793 0.35905 0.0
C406 C 0.56771 0.0424 0.40067 0.0
C407 C 0.59366 0.01589 0.41999 0.0
C408 C 0.57956 0.0442 0.36948 0.0
C409 C 0.63289 0.9924 0.40799 0.0
C410 C 0.64533 0.99442 0.3769 0.0
C411 C 0.62879 0.01975 0.32561 0.0
C412 C 0.59973 0.04292 0.30612 0.0
C413 C 0.61853 0.01973 0.35731 0.0
C414 C 0.56185 0.06789 0.31865 0.0
C415 C 0.5521 0.06894 0.35009 0.0
H416 H 0.61828 0.53624 0.73874 0.0
H417 H 0.54933 0.37608 0.7368 0.0
H418 H 0.53711 0.3694 0.68038 0.0
H419 H 0.54547 0.40935 0.63233 0.0
H420 H 0.62582 0.5659 0.63295 0.0
H421 H 0.6326 0.57443 0.68935 0.0
C422 C 0.6007 0.5 0.72576 0.0
C423 C 0.58442 0.45667 0.74147 0.0
C424 C 0.59545 0.49606 0.69332 0.0
C425 C 0.56211 0.40967 0.72485 0.0
C426 C 0.55507 0.40598 0.69274 0.0
C427 C 0.56565 0.44509 0.64445 0.0
C428 C 0.58528 0.48676 0.6279 0.0
C429 C 0.57176 0.44889 0.67675 0.0
C430 C 0.60946 0.53328 0.64472 0.0
C431 C 0.61388 0.5381 0.67708 0.0
H432 H 0.59562 0.94333 0.6006 0.0
H433 H 0.63646 0.10928 0.60353 0.0
H434 H 0.62206 0.1196 0.65926 0.0
H435 H 0.59922 0.08123 0.70678 0.0
H436 H 0.54547 0.91609 0.70234 0.0
H437 H 0.56531 0.90548 0.64789 0.0
C438 C 0.60119 0.98162 0.61361 0.0
C439 C 0.6173 0.02553 0.59842 0.0
C440 C 0.59116 0.98729 0.64534 0.0
C441 C 0.62398 0.07511 0.61504 0.0
C442 C 0.6159 0.08092 0.64681 0.0
C443 C 0.59059 0.04289 0.69403 0.0
C444 C 0.57087 0.99964 0.70928 0.0
C445 C 0.59943 0.03725 0.66218 0.0
C446 C 0.56178 0.95023 0.69192 0.0
C447 C 0.57253 0.94405 0.66049 0.0
H448 H 0.58488 0.45893 0.92117 0.0
H449 H 0.48893 0.57332 0.92007 0.0
H450 H 0.50141 0.59516 0.97591 0.0
H451 H 0.53753 0.58062 0.02523 0.0
H452 H 0.63234 0.46557 0.02762 0.0
H453 H 0.62323 0.4459 0.97116 0.0
C454 C 0.56683 0.48864 0.93323 0.0
C455 C 0.5357 0.51417 0.91657 0.0
C456 C 0.57411 0.50107 0.96555 0.0
C457 C 0.51282 0.55286 0.93238 0.0
C458 C 0.51995 0.56546 0.96433 0.0
C459 C 0.55604 0.55103 0.01344 0.0
C460 C 0.58518 0.52428 0.03067 0.0
C461 C 0.55013 0.53954 0.98117 0.0
C462 C 0.60986 0.48692 0.01491 0.0
C463 C 0.60439 0.47542 0.98265 0.0
H464 H 0.1045 0.63096 0.24711 0.0
H465 H 0.17297 0.49888 0.21651 0.0
H466 H 0.17521 0.47647 0.26979 0.0
H467 H 0.1595 0.49643 0.32561 0.0
H468 H 0.09679 0.6326 0.35561 0.0
H469 H 0.09056 0.65172 0.30203 0.0
C470 C 0.1198 0.59714 0.25204 0.0
C471 C 0.13817 0.56633 0.22793 0.0
C472 C 0.12214 0.58548 0.28266 0.0
C473 C 0.15822 0.5229 0.2347 0.0
C474 C 0.15964 0.51023 0.26515 0.0
C475 C 0.14431 0.53005 0.3202 0.0
C476 C 0.1285 0.56312 0.34426 0.0
C477 C 0.14192 0.54143 0.28937 0.0
C478 C 0.10929 0.60688 0.33731 0.0
C479 C 0.10568 0.61773 0.30675 0.0
loop_
_geom_bond_atom_site_label_1
_geom_bond_atom_site_label_2
_geom_bond_distance
_geom_bond_site_symmetry_2
_ccdc_geom_bond_type
Nd0 C2 2.836 . S
Nd0 O20 2.500 . S
Nd0 O21 2.492 . S
Nd0 O22 2.487 . S
Nd0 O23 2.682 . S
Nd0 O24 2.410 . S
Nd0 O29 2.414 . S
Nd0 O31 2.424 1_455 S
Nd1 C11 2.836 1_455 S
Nd1 O23 2.414 . S
Nd1 O25 2.424 . S
Nd1 O26 2.500 1_455 S
Nd1 O27 2.492 1_455 S
Nd1 O28 2.487 . S
Nd1 O29 2.682 . S
Nd1 O30 2.410 1_455 S
C2 Nd0 2.836 . S
C2 C3 1.498 . S
C2 O20 1.258 . S
C2 O21 1.239 . S
C3 C2 1.498 . S
C3 C4 1.366 . S
C3 C8 1.407 . S
C4 C3 1.366 . S
C4 C5 1.392 . S
C4 H32 0.930 . S
C5 C4 1.392 . S
C5 C6 1.398 . S
C5 H33 0.929 . S
C6 C5 1.398 . S
C6 C7 1.352 . S
C7 C6 1.352 . S
C7 C8 1.384 . S
C7 H34 0.930 . S
C8 C3 1.407 . S
C8 C7 1.384 . S
C8 H35 0.929 . S
C9 O22 1.241 . S
C9 O23 1.273 . S
C10 O24 1.251 . S
C10 O25 1.268 . S
C11 Nd1 2.836 1_655 S
C11 C12 1.498 . S
C11 O26 1.258 . S
C11 O27 1.239 . S
C12 C11 1.498 . S
C12 C13 1.366 . S
C12 C17 1.407 . S
C13 C12 1.366 . S
C13 C14 1.392 . S
C13 H36 0.930 . S
C14 C13 1.392 . S
C14 C15 1.398 . S
C14 H37 0.929 . S
C15 C14 1.398 . S
C15 C16 1.352 . S
C16 C15 1.352 . S
C16 C17 1.384 . S
C16 H38 0.930 . S
C17 C12 1.407 . S
C17 C16 1.384 . S
C17 H39 0.929 . S
C18 O28 1.241 . S
C18 O29 1.273 . S
C19 O30 1.251 . S
C19 O31 1.268 . S
O20 Nd0 2.500 . S
O20 C2 1.258 . S
O21 Nd0 2.492 . S
O21 C2 1.239 . S
O22 Nd0 2.487 . S
O22 C9 1.241 . S
O23 Nd0 2.682 . S
O23 Nd1 2.414 . S
O23 C9 1.273 . S
O24 Nd0 2.410 . S
O24 C10 1.251 . S
O25 Nd1 2.424 . S
O25 C10 1.268 . S
O26 Nd1 2.500 1_655 S
O26 C11 1.258 . S
O27 Nd1 2.492 1_655 S
O27 C11 1.239 . S
O28 Nd1 2.487 . S
O28 C18 1.241 . S
O29 Nd0 2.414 . S
O29 Nd1 2.682 . S
O29 C18 1.273 . S
O30 Nd1 2.410 1_655 S
O30 C19 1.251 . S
O31 Nd0 2.424 1_655 S
O31 C19 1.268 . S
H32 C4 0.930 . S
H33 C5 0.929 . S
H34 C7 0.930 . S
H35 C8 0.929 . S
H36 C13 0.930 . S
H37 C14 0.929 . S
H38 C16 0.930 . S
H39 C17 0.929 . S
Nd40 C42 2.836 1_545 S
Nd40 O60 2.500 1_545 S
Nd40 O61 2.492 1_545 S
Nd40 O62 2.487 . S
Nd40 O63 2.682 . S
Nd40 O64 2.410 1_545 S
Nd40 O69 2.414 . S
Nd40 O71 2.424 . S
Nd41 C51 2.836 . S
Nd41 O63 2.414 . S
Nd41 O65 2.424 1_545 S
Nd41 O66 2.500 . S
Nd41 O67 2.492 . S
Nd41 O68 2.487 . S
Nd41 O69 2.682 . S
Nd41 O70 2.410 . S
C42 Nd40 2.836 1_565 S
C42 C43 1.498 . S
C42 O60 1.258 . S
C42 O61 1.239 . S
C43 C42 1.498 . S
C43 C44 1.366 . S
C43 C48 1.407 . S
C44 C43 1.366 . S
C44 C45 1.392 . S
C44 H72 0.930 . S
C45 C44 1.392 . S
C45 C46 1.398 . S
C45 H73 0.929 . S
C46 C45 1.398 . S
C46 C47 1.352 . S
C47 C46 1.352 . S
C47 C48 1.384 . S
C47 H74 0.930 . S
C48 C43 1.407 . S
C48 C47 1.384 . S
C48 H75 0.929 . S
C49 O62 1.241 . S
C49 O63 1.273 . S
C50 O64 1.251 . S
C50 O65 1.268 . S
C51 Nd41 2.836 . S
C51 C52 1.498 . S
C51 O66 1.258 . S
C51 O67 1.239 . S
C52 C51 1.498 . S
C52 C53 1.366 . S
C52 C57 1.407 . S
C53 C52 1.366 . S
C53 C54 1.392 . S
C53 H76 0.930 . S
C54 C53 1.392 . S
C54 C55 1.398 . S
C54 H77 0.929 . S
C55 C54 1.398 . S
C55 C56 1.352 . S
C56 C55 1.352 . S
C56 C57 1.384 . S
C56 H78 0.930 . S
C57 C52 1.407 . S
C57 C56 1.384 . S
C57 H79 0.929 . S
C58 O68 1.241 . S
C58 O69 1.273 . S
C59 O70 1.251 . S
C59 O71 1.268 . S
O60 Nd40 2.500 1_565 S
O60 C42 1.258 . S
O61 Nd40 2.492 1_565 S
O61 C42 1.239 . S
O62 Nd40 2.487 . S
O62 C49 1.241 . S
O63 Nd40 2.682 . S
O63 Nd41 2.414 . S
O63 C49 1.273 . S
O64 Nd40 2.410 1_565 S
O64 C50 1.251 . S
O65 Nd41 2.424 1_565 S
O65 C50 1.268 . S
O66 Nd41 2.500 . S
O66 C51 1.258 . S
O67 Nd41 2.492 . S
O67 C51 1.239 . S
O68 Nd41 2.487 . S
O68 C58 1.241 . S
O69 Nd40 2.414 . S
O69 Nd41 2.682 . S
O69 C58 1.273 . S
O70 Nd41 2.410 . S
O70 C59 1.251 . S
O71 Nd40 2.424 . S
O71 C59 1.268 . S
H72 C44 0.930 . S
H73 C45 0.929 . S
H74 C47 0.930 . S
H75 C48 0.929 . S
H76 C53 0.930 . S
H77 C54 0.929 . S
H78 C56 0.930 . S
H79 C57 0.929 . S
Nd80 C82 2.836 . S
Nd80 O100 2.500 . S
Nd80 O101 2.492 . S
Nd80 O102 2.487 . S
Nd80 O103 2.682 . S
Nd80 O104 2.410 . S
Nd80 O109 2.414 . S
Nd80 O111 2.424 . S
Nd81 C91 2.836 . S
Nd81 O103 2.414 . S
Nd81 O105 2.424 . S
Nd81 O106 2.500 . S
Nd81 O107 2.492 . S
Nd81 O108 2.487 . S
Nd81 O109 2.682 . S
Nd81 O110 2.410 . S
C82 Nd80 2.836 . S
C82 C83 1.498 . S
C82 O100 1.258 . S
C82 O101 1.239 . S
C83 C82 1.498 . S
C83 C84 1.366 . S
C83 C88 1.407 . S
C84 C83 1.366 . S
C84 C85 1.392 . S
C84 H112 0.930 . S
C85 C84 1.392 . S
C85 C86 1.398 . S
C85 H113 0.929 . S
C86 C85 1.398 . S
C86 C87 1.352 . S
C87 C86 1.352 . S
C87 C88 1.384 . S
C87 H114 0.930 . S
C88 C83 1.407 . S
C88 C87 1.384 . S
C88 H115 0.929 . S
C89 O102 1.241 . S
C89 O103 1.273 . S
C90 O104 1.251 . S
C90 O105 1.268 . S
C91 Nd81 2.836 . S
C91 C92 1.498 . S
C91 O106 1.258 . S
C91 O107 1.239 . S
C92 C91 1.498 . S
C92 C93 1.366 . S
C92 C97 1.407 . S
C93 C92 1.366 . S
C93 C94 1.392 . S
C93 H116 0.930 . S
C94 C93 1.392 . S
C94 C95 1.398 . S
C94 H117 0.929 . S
C95 C94 1.398 . S
C95 C96 1.352 . S
C96 C95 1.352 . S
C96 C97 1.384 . S
C96 H118 0.930 . S
C97 C92 1.407 . S
C97 C96 1.384 . S
C97 H119 0.929 . S
C98 O108 1.241 . S
C98 O109 1.273 . S
C99 O110 1.251 . S
C99 O111 1.268 . S
O100 Nd80 2.500 . S
O100 C82 1.258 . S
O101 Nd80 2.492 . S
O101 C82 1.239 . S
O102 Nd80 2.487 . S
O102 C89 1.241 . S
O103 Nd80 2.682 . S
O103 Nd81 2.414 . S
O103 C89 1.273 . S
O104 Nd80 2.410 . S
O104 C90 1.251 . S
O105 Nd81 2.424 . S
O105 C90 1.268 . S
O106 Nd81 2.500 . S
O106 C91 1.258 . S
O107 Nd81 2.492 . S
O107 C91 1.239 . S
O108 Nd81 2.487 . S
O108 C98 1.241 . S
O109 Nd80 2.414 . S
O109 Nd81 2.682 . S
O109 C98 1.273 . S
O110 Nd81 2.410 . S
O110 C99 1.251 . S
O111 Nd80 2.424 . S
O111 C99 1.268 . S
H112 C84 0.930 . S
H113 C85 0.929 . S
H114 C87 0.930 . S
H115 C88 0.929 . S
H116 C93 0.930 . S
H117 C94 0.929 . S
H118 C96 0.930 . S
H119 C97 0.929 . S
H120 C125 0.930 . S
H121 C128 0.930 . S
H122 C130 0.926 1_565 S
H123 C124 1.016 . S
C124 H123 1.016 . S
C124 N131 1.286 . S
C125 H120 0.930 . S
C125 C126 1.397 . S
C125 C127 1.361 . S
C126 C125 1.397 . S
C126 C130 1.390 . S
C127 C125 1.361 . S
C127 C128 1.393 . S
C127 N131 1.413 . S
C128 H121 0.930 . S
C128 C127 1.393 . S
C128 C129 1.399 . S
C129 C128 1.399 . S
C129 C130 1.381 . S
C130 H122 0.926 1_545 S
C130 C126 1.390 . S
C130 C129 1.381 . S
N131 C124 1.286 . S
N131 C127 1.413 . S
H132 C137 0.930 . S
H133 C140 0.930 . S
H134 C142 0.930 . S
H135 C136 1.016 . S
C136 H135 1.016 . S
C136 N143 1.286 . S
C137 H132 0.930 . S
C137 C138 1.397 . S
C137 C139 1.361 . S
C138 C137 1.397 . S
C138 C142 1.390 . S
C139 C137 1.361 . S
C139 C140 1.393 . S
C139 N143 1.413 . S
C140 H133 0.930 . S
C140 C139 1.393 . S
C140 C141 1.399 . S
C141 C140 1.399 . S
C141 C142 1.381 . S
C142 H134 0.930 . S
C142 C138 1.390 . S
C142 C141 1.381 . S
N143 C136 1.286 . S
N143 C139 1.413 . S
H144 C149 0.930 . S
H145 C152 0.930 . S
H146 C154 0.930 . S
H147 C148 1.016 . S
C148 H147 1.016 . S
C148 N155 1.286 . S
C149 H144 0.930 . S
C149 C150 1.397 1_455 S
C149 C151 1.361 . S
C150 C149 1.397 1_655 S
C150 C154 1.390 . S
C151 C149 1.361 . S
C151 C152 1.393 . S
C151 N155 1.413 . S
C152 H145 0.930 . S
C152 C151 1.393 . S
C152 C153 1.399 . S
C153 C152 1.399 . S
C153 C154 1.381 1_455 S
C154 H146 0.930 . S
C154 C150 1.390 . S
C154 C153 1.381 1_655 S
N155 C148 1.286 . S
N155 C151 1.413 . S
H156 C161 0.930 . S
H157 C164 0.930 . S
H158 C166 0.930 . S
H159 C160 1.016 . S
C160 H159 1.016 . S
C160 N167 1.286 . S
C161 H156 0.930 . S
C161 C162 1.397 . S
C161 C163 1.361 1_455 S
C162 C161 1.397 . S
C162 C166 1.390 . S
C163 C161 1.361 1_655 S
C163 C164 1.393 . S
C163 N167 1.413 . S
C164 H157 0.930 . S
C164 C163 1.393 . S
C164 C165 1.399 1_655 S
C165 C164 1.399 1_455 S
C165 C166 1.381 . S
C166 H158 0.930 . S
C166 C162 1.390 . S
C166 C165 1.381 . S
N167 C160 1.286 . S
N167 C163 1.413 . S
H168 C173 0.930 . S
H169 C176 0.930 . S
H170 C178 0.930 . S
H171 C172 1.016 . S
C172 H171 1.016 . S
C172 N179 1.286 . S
C173 H168 0.930 . S
C173 C174 1.397 . S
C173 C175 1.362 1_545 S
C174 C173 1.397 . S
C174 C178 1.390 . S
C175 C173 1.362 1_565 S
C175 C176 1.393 . S
C175 N179 1.412 . S
C176 H169 0.930 . S
C176 C175 1.393 . S
C176 C177 1.399 1_565 S
C177 C176 1.399 1_545 S
C177 C178 1.381 . S
C178 H170 0.930 . S
C178 C174 1.390 . S
C178 C177 1.381 . S
N179 C172 1.286 . S
N179 C175 1.412 . S
H180 C185 0.930 . S
H181 C188 0.930 . S
H182 C190 0.930 . S
H183 C184 1.016 . S
C184 H183 1.016 . S
C184 N191 1.286 . S
C185 H180 0.930 . S
C185 C186 1.397 . S
C185 C187 1.361 . S
C186 C185 1.397 . S
C186 C190 1.390 . S
C187 C185 1.361 . S
C187 C188 1.393 . S
C187 N191 1.413 . S
C188 H181 0.930 . S
C188 C187 1.393 . S
C188 C189 1.399 . S
C189 C188 1.399 . S
C189 C190 1.381 . S
C190 H182 0.930 . S
C190 C186 1.390 . S
C190 C189 1.381 . S
N191 C184 1.286 . S
N191 C187 1.413 . S
H192 C198 0.930 . S
H193 C201 0.930 . S
H194 C202 0.930 . S
H195 C203 0.930 . S
H196 C206 0.930 . S
H197 C207 0.930 . S
C198 H192 0.930 . S
C198 C199 1.355 . S
C198 C200 1.415 . S
C199 C198 1.355 . S
C199 C201 1.419 . S
C200 C198 1.415 . S
C200 C205 1.425 . S
C200 C207 1.409 . S
C201 H193 0.930 . S
C201 C199 1.419 . S
C201 C202 1.362 . S
C202 H194 0.930 . S
C202 C201 1.362 . S
C202 C205 1.409 . S
C203 H195 0.930 . S
C203 C204 1.355 . S
C203 C205 1.415 . S
C204 C203 1.355 . S
C204 C206 1.419 . S
C205 C200 1.425 . S
C205 C202 1.409 . S
C205 C203 1.415 . S
C206 H196 0.930 . S
C206 C204 1.419 . S
C206 C207 1.362 . S
C207 H197 0.930 . S
C207 C200 1.409 . S
C207 C206 1.362 . S
H208 C214 0.930 . S
H209 C217 0.930 . S
H210 C218 0.930 . S
H211 C219 0.930 . S
H212 C222 0.930 . S
H213 C223 0.930 . S
C214 H208 0.930 . S
C214 C215 1.355 . S
C214 C216 1.415 . S
C215 C214 1.355 . S
C215 C217 1.419 . S
C216 C214 1.415 . S
C216 C221 1.425 . S
C216 C223 1.409 . S
C217 H209 0.930 . S
C217 C215 1.419 . S
C217 C218 1.362 . S
C218 H210 0.930 . S
C218 C217 1.362 . S
C218 C221 1.409 . S
C219 H211 0.930 . S
C219 C220 1.355 . S
C219 C221 1.415 . S
C220 C219 1.355 . S
C220 C222 1.419 . S
C221 C216 1.425 . S
C221 C218 1.409 . S
C221 C219 1.415 . S
C222 H212 0.930 . S
C222 C220 1.419 . S
C222 C223 1.362 . S
C223 H213 0.930 . S
C223 C216 1.409 . S
C223 C222 1.362 . S
H224 C230 0.930 . S
H225 C233 0.930 . S
H226 C234 0.930 . S
H227 C235 0.930 . S
H228 C238 0.930 . S
H229 C239 0.930 . S
C230 H224 0.930 . S
C230 C231 1.355 . S
C230 C232 1.415 . S
C231 C230 1.355 . S
C231 C233 1.419 . S
C232 C230 1.415 . S
C232 C237 1.425 . S
C232 C239 1.409 . S
C233 H225 0.930 . S
C233 C231 1.419 . S
C233 C234 1.362 . S
C234 H226 0.930 . S
C234 C233 1.362 . S
C234 C237 1.409 . S
C235 H227 0.930 . S
C235 C236 1.355 . S
C235 C237 1.415 . S
C236 C235 1.355 . S
C236 C238 1.419 . S
C237 C232 1.425 . S
C237 C234 1.409 . S
C237 C235 1.415 . S
C238 H228 0.930 . S
C238 C236 1.419 . S
C238 C239 1.362 . S
C239 H229 0.930 . S
C239 C232 1.409 . S
C239 C238 1.362 . S
H240 C246 0.930 . S
H241 C249 0.930 . S
H242 C250 0.930 . S
H243 C251 0.930 . S
H244 C254 0.930 . S
H245 C255 0.930 . S
C246 H240 0.930 . S
C246 C247 1.355 . S
C246 C248 1.415 . S
C247 C246 1.355 . S
C247 C249 1.419 . S
C248 C246 1.415 . S
C248 C253 1.425 . S
C248 C255 1.409 . S
C249 H241 0.930 . S
C249 C247 1.419 . S
C249 C250 1.362 . S
C250 H242 0.930 . S
C250 C249 1.362 . S
C250 C253 1.409 . S
C251 H243 0.930 . S
C251 C252 1.355 . S
C251 C253 1.415 . S
C252 C251 1.355 . S
C252 C254 1.419 . S
C253 C248 1.425 . S
C253 C250 1.409 . S
C253 C251 1.415 . S
C254 H244 0.930 . S
C254 C252 1.419 . S
C254 C255 1.362 . S
C255 H245 0.930 . S
C255 C248 1.409 . S
C255 C254 1.362 . S
H256 C262 0.930 . S
H257 C265 0.930 . S
H258 C266 0.930 . S
H259 C267 0.930 . S
H260 C270 0.930 . S
H261 C271 0.930 . S
C262 H256 0.930 . S
C262 C263 1.355 . S
C262 C264 1.415 . S
C263 C262 1.355 . S
C263 C265 1.419 . S
C264 C262 1.415 . S
C264 C269 1.425 . S
C264 C271 1.409 . S
C265 H257 0.930 . S
C265 C263 1.419 . S
C265 C266 1.362 . S
C266 H258 0.930 . S
C266 C265 1.362 . S
C266 C269 1.409 . S
C267 H259 0.930 . S
C267 C268 1.355 . S
C267 C269 1.415 . S
C268 C267 1.355 . S
C268 C270 1.419 . S
C269 C264 1.425 . S
C269 C266 1.409 . S
C269 C267 1.415 . S
C270 H260 0.930 . S
C270 C268 1.419 . S
C270 C271 1.362 . S
C271 H261 0.930 . S
C271 C264 1.409 . S
C271 C270 1.362 . S
H272 C278 0.930 . S
H273 C281 0.930 . S
H274 C282 0.930 . S
H275 C283 0.930 . S
H276 C286 0.930 . S
H277 C287 0.930 . S
C278 H272 0.930 . S
C278 C279 1.355 . S
C278 C280 1.415 . S
C279 C278 1.355 . S
C279 C281 1.419 . S
C280 C278 1.415 . S
C280 C285 1.425 . S
C280 C287 1.409 . S
C281 H273 0.930 . S
C281 C279 1.419 . S
C281 C282 1.362 . S
C282 H274 0.930 . S
C282 C281 1.362 . S
C282 C285 1.409 . S
C283 H275 0.930 . S
C283 C284 1.355 . S
C283 C285 1.415 . S
C284 C283 1.355 . S
C284 C286 1.419 . S
C285 C280 1.425 . S
C285 C282 1.409 . S
C285 C283 1.415 . S
C286 H276 0.930 . S
C286 C284 1.419 . S
C286 C287 1.362 . S
C287 H277 0.930 . S
C287 C280 1.409 . S
C287 C286 1.362 . S
H288 C294 0.930 . S
H289 C297 0.930 . S
H290 C298 0.930 . S
H291 C299 0.930 . S
H292 C302 0.930 . S
H293 C303 0.930 . S
C294 H288 0.930 . S
C294 C295 1.355 . S
C294 C296 1.415 . S
C295 C294 1.355 . S
C295 C297 1.419 . S
C296 C294 1.415 . S
C296 C301 1.425 . S
C296 C303 1.409 . S
C297 H289 0.930 . S
C297 C295 1.419 . S
C297 C298 1.362 . S
C298 H290 0.930 . S
C298 C297 1.362 . S
C298 C301 1.409 . S
C299 H291 0.930 . S
C299 C300 1.355 . S
C299 C301 1.415 . S
C300 C299 1.355 . S
C300 C302 1.419 . S
C301 C296 1.425 . S
C301 C298 1.409 . S
C301 C299 1.415 . S
C302 H292 0.930 . S
C302 C300 1.419 . S
C302 C303 1.362 . S
C303 H293 0.930 . S
C303 C296 1.409 . S
C303 C302 1.362 . S
H304 C310 0.930 . S
H305 C313 0.930 . S
H306 C314 0.930 . S
H307 C315 0.930 . S
H308 C318 0.930 . S
H309 C319 0.930 . S
C310 H304 0.930 . S
C310 C311 1.355 . S
C310 C312 1.415 . S
C311 C310 1.355 . S
C311 C313 1.419 . S
C312 C310 1.415 . S
C312 C317 1.425 . S
C312 C319 1.409 . S
C313 H305 0.930 . S
C313 C311 1.419 . S
C313 C314 1.362 . S
C314 H306 0.930 . S
C314 C313 1.362 . S
C314 C317 1.409 . S
C315 H307 0.930 . S
C315 C316 1.355 . S
C315 C317 1.415 . S
C316 C315 1.355 . S
C316 C318 1.419 . S
C317 C312 1.425 . S
C317 C314 1.409 . S
C317 C315 1.415 . S
C318 H308 0.930 . S
C318 C316 1.419 . S
C318 C319 1.362 . S
C319 H309 0.930 . S
C319 C312 1.409 . S
C319 C318 1.362 . S
H320 C326 0.930 . S
H321 C329 0.930 . S
H322 C330 0.930 . S
H323 C331 0.930 . S
H324 C334 0.930 . S
H325 C335 0.930 . S
C326 H320 0.930 . S
C326 C327 1.355 . S
C326 C328 1.415 . S
C327 C326 1.355 . S
C327 C329 1.419 . S
C328 C326 1.415 . S
C328 C333 1.425 . S
C328 C335 1.409 . S
C329 H321 0.930 . S
C329 C327 1.419 . S
C329 C330 1.362 . S
C330 H322 0.930 . S
C330 C329 1.362 . S
C330 C333 1.409 . S
C331 H323 0.930 . S
C331 C332 1.355 . S
C331 C333 1.415 . S
C332 C331 1.355 . S
C332 C334 1.419 . S
C333 C328 1.425 . S
C333 C330 1.409 . S
C333 C331 1.415 . S
C334 H324 0.930 . S
C334 C332 1.419 . S
C334 C335 1.362 . S
C335 H325 0.930 . S
C335 C328 1.409 . S
C335 C334 1.362 . S
H336 C342 0.930 . S
H337 C345 0.930 . S
H338 C346 0.930 . S
H339 C347 0.930 . S
H340 C350 0.930 . S
H341 C351 0.930 . S
C342 H336 0.930 . S
C342 C343 1.355 . S
C342 C344 1.415 . S
C343 C342 1.355 . S
C343 C345 1.419 . S
C344 C342 1.415 . S
C344 C349 1.425 . S
C344 C351 1.409 . S
C345 H337 0.930 . S
C345 C343 1.419 . S
C345 C346 1.362 . S
C346 H338 0.930 . S
C346 C345 1.362 . S
C346 C349 1.409 . S
C347 H339 0.930 . S
C347 C348 1.355 . S
C347 C349 1.415 . S
C348 C347 1.355 . S
C348 C350 1.419 . S
C349 C344 1.425 . S
C349 C346 1.409 . S
C349 C347 1.415 . S
C350 H340 0.930 . S
C350 C348 1.419 . S
C350 C351 1.362 . S
C351 H341 0.930 . S
C351 C344 1.409 . S
C351 C350 1.362 . S
H352 C358 0.930 . S
H353 C361 0.930 . S
H354 C362 0.930 . S
H355 C363 0.930 . S
H356 C366 0.930 . S
H357 C367 0.930 . S
C358 H352 0.930 . S
C358 C359 1.355 . S
C358 C360 1.415 . S
C359 C358 1.355 . S
C359 C361 1.419 . S
C360 C358 1.415 . S
C360 C365 1.425 . S
C360 C367 1.409 . S
C361 H353 0.930 . S
C361 C359 1.419 . S
C361 C362 1.362 . S
C362 H354 0.930 . S
C362 C361 1.362 . S
C362 C365 1.409 . S
C363 H355 0.930 . S
C363 C364 1.355 . S
C363 C365 1.415 . S
C364 C363 1.355 . S
C364 C366 1.419 . S
C365 C360 1.425 . S
C365 C362 1.409 . S
C365 C363 1.415 . S
C366 H356 0.930 . S
C366 C364 1.419 . S
C366 C367 1.362 . S
C367 H357 0.930 . S
C367 C360 1.409 . S
C367 C366 1.362 . S
H368 C374 0.930 . S
H369 C377 0.930 . S
H370 C378 0.930 . S
H371 C379 0.930 . S
H372 C382 0.930 . S
H373 C383 0.930 . S
C374 H368 0.930 . S
C374 C375 1.355 . S
C374 C376 1.415 . S
C375 C374 1.355 . S
C375 C377 1.419 . S
C376 C374 1.415 . S
C376 C381 1.425 . S
C376 C383 1.409 . S
C377 H369 0.930 . S
C377 C375 1.419 . S
C377 C378 1.362 . S
C378 H370 0.930 . S
C378 C377 1.362 . S
C378 C381 1.409 . S
C379 H371 0.930 . S
C379 C380 1.355 . S
C379 C381 1.415 . S
C380 C379 1.355 . S
C380 C382 1.419 . S
C381 C376 1.425 . S
C381 C378 1.409 . S
C381 C379 1.415 . S
C382 H372 0.930 . S
C382 C380 1.419 . S
C382 C383 1.362 . S
C383 H373 0.930 . S
C383 C376 1.409 . S
C383 C382 1.362 . S
H384 C390 0.930 . S
H385 C393 0.930 1_655 S
H386 C394 0.930 . S
H387 C395 0.930 1_655 S
H388 C398 0.930 . S
H389 C399 0.931 1_554 S
C390 H384 0.930 . S
C390 C391 1.355 . S
C390 C392 1.415 . S
C391 C390 1.355 . S
C391 C393 1.419 . S
C392 C390 1.415 . S
C392 C397 1.425 . S
C392 C399 1.410 1_554 S
C393 H385 0.930 1_455 S
C393 C391 1.419 . S
C393 C394 1.362 1_455 S
C394 H386 0.930 . S
C394 C393 1.362 1_655 S
C394 C397 1.409 1_655 S
C395 H387 0.930 1_455 S
C395 C396 1.355 . S
C395 C397 1.415 1_556 S
C396 C395 1.355 . S
C396 C398 1.419 . S
C397 C392 1.425 . S
C397 C394 1.409 1_455 S
C397 C395 1.415 1_554 S
C398 H388 0.930 . S
C398 C396 1.419 . S
C398 C399 1.361 . S
C399 H389 0.931 1_556 S
C399 C392 1.410 1_556 S
C399 C398 1.361 . S
H400 C406 0.930 . S
H401 C409 0.930 . S
H402 C410 0.930 . S
H403 C411 0.930 . S
H404 C414 0.930 . S
H405 C415 0.930 . S
C406 H400 0.930 . S
C406 C407 1.355 . S
C406 C408 1.415 . S
C407 C406 1.355 . S
C407 C409 1.419 . S
C408 C406 1.415 . S
C408 C413 1.425 . S
C408 C415 1.409 . S
C409 H401 0.930 . S
C409 C407 1.419 . S
C409 C410 1.362 . S
C410 H402 0.930 . S
C410 C409 1.362 . S
C410 C413 1.409 . S
C411 H403 0.930 . S
C411 C412 1.355 . S
C411 C413 1.415 . S
C412 C411 1.355 . S
C412 C414 1.419 . S
C413 C408 1.425 . S
C413 C410 1.409 . S
C413 C411 1.415 . S
C414 H404 0.930 . S
C414 C412 1.419 . S
C414 C415 1.362 . S
C415 H405 0.930 . S
C415 C408 1.409 . S
C415 C414 1.362 . S
H416 C422 0.930 . S
H417 C425 0.930 . S
H418 C426 0.930 . S
H419 C427 0.930 . S
H420 C430 0.930 . S
H421 C431 0.930 . S
C422 H416 0.930 . S
C422 C423 1.355 . S
C422 C424 1.415 . S
C423 C422 1.355 . S
C423 C425 1.419 . S
C424 C422 1.415 . S
C424 C429 1.425 . S
C424 C431 1.409 . S
C425 H417 0.930 . S
C425 C423 1.419 . S
C425 C426 1.362 . S
C426 H418 0.930 . S
C426 C425 1.362 . S
C426 C429 1.409 . S
C427 H419 0.930 . S
C427 C428 1.355 . S
C427 C429 1.415 . S
C428 C427 1.355 . S
C428 C430 1.419 . S
C429 C424 1.425 . S
C429 C426 1.409 . S
C429 C427 1.415 . S
C430 H420 0.930 . S
C430 C428 1.419 . S
C430 C431 1.362 . S
C431 H421 0.930 . S
C431 C424 1.409 . S
C431 C430 1.362 . S
H432 C438 0.930 1_565 S
H433 C441 0.930 . S
H434 C442 0.930 . S
H435 C443 0.930 . S
H436 C446 0.930 . S
H437 C447 0.930 . S
C438 H432 0.930 1_545 S
C438 C439 1.355 . S
C438 C440 1.415 . S
C439 C438 1.355 . S
C439 C441 1.419 . S
C440 C438 1.415 . S
C440 C445 1.425 . S
C440 C447 1.409 1_545 S
C441 H433 0.930 . S
C441 C439 1.419 . S
C441 C442 1.362 . S
C442 H434 0.930 . S
C442 C441 1.362 . S
C442 C445 1.409 . S
C443 H435 0.930 . S
C443 C444 1.355 . S
C443 C445 1.415 . S
C444 C443 1.355 . S
C444 C446 1.419 1_545 S
C445 C440 1.425 . S
C445 C442 1.409 . S
C445 C443 1.415 . S
C446 H436 0.930 . S
C446 C444 1.419 1_565 S
C446 C447 1.362 . S
C447 H437 0.930 . S
C447 C440 1.409 1_565 S
C447 C446 1.362 . S
H448 C454 0.930 . S
H449 C457 0.930 . S
H450 C458 0.930 . S
H451 C459 0.930 . S
H452 C462 0.930 . S
H453 C463 0.930 . S
C454 H448 0.930 . S
C454 C455 1.355 . S
C454 C456 1.415 . S
C455 C454 1.355 . S
C455 C457 1.419 . S
C456 C454 1.415 . S
C456 C461 1.425 . S
C456 C463 1.409 . S
C457 H449 0.930 . S
C457 C455 1.419 . S
C457 C458 1.362 . S
C458 H450 0.930 . S
C458 C457 1.362 . S
C458 C461 1.409 . S
C459 H451 0.930 . S
C459 C460 1.355 . S
C459 C461 1.415 1_554 S
C460 C459 1.355 . S
C460 C462 1.419 . S
C461 C456 1.425 . S
C461 C458 1.409 . S
C461 C459 1.415 1_556 S
C462 H452 0.930 . S
C462 C460 1.419 . S
C462 C463 1.362 1_554 S
C463 H453 0.930 . S
C463 C456 1.409 . S
C463 C462 1.362 1_556 S
H464 C470 0.930 . S
H465 C473 0.930 . S
H466 C474 0.930 . S
H467 C475 0.930 . S
H468 C478 0.930 . S
H469 C479 0.930 . S
C470 H464 0.930 . S
C470 C471 1.355 . S
C470 C472 1.415 . S
C471 C470 1.355 . S
C471 C473 1.419 . S
C472 C470 1.415 . S
C472 C477 1.425 . S
C472 C479 1.409 . S
C473 H465 0.930 . S
C473 C471 1.419 . S
C473 C474 1.362 . S
C474 H466 0.930 . S
C474 C473 1.362 . S
C474 C477 1.409 . S
C475 H467 0.930 . S
C475 C476 1.355 . S
C475 C477 1.415 . S
C476 C475 1.355 . S
C476 C478 1.419 . S
C477 C472 1.425 . S
C477 C474 1.409 . S
C477 C475 1.415 . S
C478 H468 0.930 . S
C478 C476 1.419 . S
C478 C479 1.362 . S
C479 H469 0.930 . S
C479 C472 1.409 . S
C479 C478 1.362 . S
C199 C10 3.336 . S
C204 C186 3.315 . S
C215 C55 1.347 . S
C220 C160 1.313 . S
C231 C90 1.951 . S
C236 C172 1.923 . S
C247 C19 2.842 . S
C252 C184 2.711 . S
C268 C162 1.177 . S
C263 C46 1.205 . S
C284 C174 1.908 . S
C279 C99 1.922 . S
C295 C50 1.944 . S
C300 C136 1.897 . S
C311 C95 1.021 . S
C316 C150 1.023 . S
C327 C6 1.156 . S
C332 C126 1.195 1_565 S
C348 C138 1.875 . S
C343 C59 1.888 . S
C364 C148 0.176 . S
C359 C86 0.507 . S
C375 C15 1.308 . S
C380 C124 1.359 . S
C396 C153 1.214 . S
C391 C18 1.196 . S
C407 C49 1.517 . S
C412 C129 1.518 . S
C423 C98 1.425 . S
C428 C141 1.419 . S
C444 C177 1.473 . S
C439 C58 1.407 . S
C460 C189 1.792 . S
C455 C89 1.680 . S
C471 C9 1.513 . S
C476 C165 1.511 . S
