# Generated by pormake.
# Topology pyr, (3,6)-cn, num edge types: 1
# Building blocks:
#     Node 0, Type 0, BuildingBlock: BETDAH_clean_linker_0, # of connection points: 3
#     Node 1, Type 0, BuildingBlock: BETDAH_clean_linker_0, # of connection points: 3
#     Node 2, Type 0, BuildingBlock: BETDAH_clean_linker_0, # of connection points: 3
#     Node 3, Type 0, BuildingBlock: BETDAH_clean_linker_0, # of connection points: 3
#     Node 4, Type 0, BuildingBlock: BETDAH_clean_linker_0, # of connection points: 3
#     Node 5, Type 0, BuildingBlock: BETDAH_clean_linker_0, # of connection points: 3
#     Node 6, Type 0, BuildingBlock: BETDAH_clean_linker_0, # of connection points: 3
#     Node 7, Type 0, BuildingBlock: BETDAH_clean_linker_0, # of connection points: 3
#     Node 8, Type 1, BuildingBlock: BETGAK_clean_sbu_0, # of connection points: 6
#     Node 9, Type 1, BuildingBlock: BETGAK_clean_sbu_0, # of connection points: 6
#     Node 10, Type 1, BuildingBlock: BETGAK_clean_sbu_0, # of connection points: 6
#     Node 11, Type 1, BuildingBlock: BETGAK_clean_sbu_0, # of connection points: 6
#     Edge 12, Type (0, 1), None
#     Edge 13, Type (0, 1), None
#     Edge 14, Type (0, 1), None
#     Edge 15, Type (0, 1), None
#     Edge 16, Type (0, 1), None
#     Edge 17, Type (0, 1), None
#     Edge 18, Type (0, 1), None
#     Edge 19, Type (0, 1), None
#     Edge 20, Type (0, 1), None
#     Edge 21, Type (0, 1), None
#     Edge 22, Type (0, 1), None
#     Edge 23, Type (0, 1), None
#     Edge 24, Type (0, 1), None
#     Edge 25, Type (0, 1), None
#     Edge 26, Type (0, 1), None
#     Edge 27, Type (0, 1), None
#     Edge 28, Type (0, 1), None
#     Edge 29, Type (0, 1), None
#     Edge 30, Type (0, 1), None
#     Edge 31, Type (0, 1), None
#     Edge 32, Type (0, 1), None
#     Edge 33, Type (0, 1), None
#     Edge 34, Type (0, 1), None
#     Edge 35, Type (0, 1), None
# Relax obj value: 0.429
# Max RMSD: 0.250
# Mean RMSD: 0.153
data_MOF--net-pyr--node1-BETGAK_clean_sbu_0--node2-BETDAH_clean_linker_0--edge1-none
_symmetry_space_group_name_H-M    P1
_symmetry_Int_Tables_number       1
_symmetry_cell_setting            triclinic
loop_
_symmetry_equiv_pos_as_xyz
'x, y, z'
_cell_length_a     17.246602
_cell_length_b     18.73737
_cell_length_c     16.873175
_cell_angle_alpha  91.377799
_cell_angle_beta   86.530057
_cell_angle_gamma 114.8291
loop_
_atom_site_label
_atom_site_type_symbol
_atom_site_fract_x
_atom_site_fract_y
_atom_site_fract_z
_atom_type_partial_charge
H0 H 0.60023 0.36131 0.41407 0.0
H1 H 0.5487 0.41131 0.18183 0.0
H2 H 0.52443 0.54858 0.37848 0.0
C3 C 0.58449 0.39817 0.3757 0.0
C4 C 0.54437 0.44501 0.40687 0.0
C5 C 0.57444 0.37801 0.2962 0.0
C6 C 0.55729 0.42652 0.24409 0.0
C7 C 0.54382 0.49092 0.27382 0.0
C8 C 0.54243 0.50287 0.35593 0.0
N9 N 0.5151 0.53291 0.22317 0.0
C10 C 0.4353 0.53423 0.23761 0.0
H11 H 0.26834 0.92426 0.89942 0.0
H12 H 0.06374 0.9855 0.84472 0.0
H13 H 0.22227 0.94814 0.65808 0.0
C14 C 0.22639 0.93073 0.85767 0.0
C15 C 0.246 0.92548 0.77673 0.0
C16 C 0.16377 0.95678 0.8834 0.0
C17 C 0.11259 0.96569 0.82658 0.0
C18 C 0.13644 0.96694 0.7456 0.0
C19 C 0.20095 0.94355 0.72029 0.0
N20 N 0.11671 1.01492 0.69502 0.0
C21 C 0.14229 1.09629 0.71747 0.0
H22 H 0.78923 0.42883 0.12851 0.0
H23 H 0.80971 0.64184 1.01603 0.0
H24 H 0.60127 0.42071 0.96537 0.0
C25 C 0.76633 0.45825 1.08749 0.0
C26 C 0.69034 0.41206 1.04664 0.0
C27 C 0.81291 0.54171 1.07626 0.0
C28 C 0.77909 0.57847 1.02242 0.0
C29 C 0.70406 0.53631 0.97932 0.0
C30 C 0.66118 0.4531 0.99307 0.0
N31 N 0.65841 0.57927 0.94712 0.0
C32 C 0.64988 0.60449 0.86912 0.0
H33 H 0.82133 0.92028 0.66939 0.0
H34 H 1.02015 0.96789 0.48644 0.0
H35 H 0.80046 0.74302 0.49083 0.0
C36 C 0.84729 0.90105 0.61736 0.0
C37 C 0.80012 0.82482 0.58623 0.0
C38 C 0.92611 0.95407 0.58288 0.0
C39 C 0.95948 0.92796 0.51414 0.0
C40 C 0.91722 0.85123 0.48005 0.0
C41 C 0.83566 0.80021 0.51656 0.0
N42 N 0.95752 0.83488 0.40646 0.0
C43 C 0.95797 0.76793 0.36284 0.0
H44 H 0.65957 0.75902 0.94483 0.0
H45 H 0.68028 0.89471 0.15827 0.0
H46 H 0.51359 0.88951 0.97783 0.0
C47 C 0.64017 0.79628 0.98299 0.0
C48 C 0.60651 0.84386 0.94873 0.0
C49 C 0.68058 0.8232 1.05457 0.0
C50 C 0.64966 0.8688 1.1041 0.0
C51 C 0.58586 0.88984 1.0775 0.0
C52 C 0.55564 0.86659 1.00153 0.0
N53 N 0.56701 0.94718 1.1196 0.0
C54 C 0.56161 1.01094 1.08304 0.0
H55 H 0.95827 0.2323 0.52314 0.0
H56 H 0.99912 0.39418 0.71679 0.0
H57 H 0.92603 0.44538 0.49369 0.0
C58 C 0.96165 0.28811 0.54601 0.0
C59 C 0.93971 0.33622 0.49901 0.0
C60 C 0.97834 0.30678 0.62484 0.0
C61 C 0.98581 0.37935 0.65505 0.0
C62 C 0.96901 0.43036 0.60755 0.0
C63 C 0.94496 0.4085 0.52912 0.0
N64 N 0.96303 0.49678 0.64342 0.0
C65 C 0.89221 0.51061 0.63085 0.0
H66 H 0.34146 0.94972 0.19217 0.0
H67 H 0.3174 0.76058 0.35 0.0
H68 H 0.52071 0.99219 0.37365 0.0
C69 C 0.36465 0.92846 0.24031 0.0
C70 C 0.43874 0.98289 0.27797 0.0
C71 C 0.31851 0.84762 0.26516 0.0
C72 C 0.35175 0.82039 0.32869 0.0
C73 C 0.42592 0.87184 0.36825 0.0
C74 C 0.46628 0.95228 0.34223 0.0
N75 N 0.45387 0.85252 0.44238 0.0
C76 C 0.46387 0.78743 0.47708 0.0
H77 H 0.29529 0.45438 0.69181 0.0
H78 H 0.31508 0.64308 0.85478 0.0
H79 H 0.11888 0.40664 0.89466 0.0
C80 C 0.2723 0.47522 0.74467 0.0
C81 C 0.20232 0.42026 0.79006 0.0
C82 C 0.31554 0.55525 0.76664 0.0
C83 C 0.28338 0.58218 0.83688 0.0
C84 C 0.2102 0.52884 0.88376 0.0
C85 C 0.17305 0.44811 0.85951 0.0
N86 N 0.17372 0.54782 0.958 0.0
C87 C 0.17108 0.61562 0.99756 0.0
La88 La 0.12435 0.20616 0.62597 0.0
La89 La 1.01992 0.15987 0.76784 0.0
C90 C 0.20528 0.2495 0.49806 0.0
C91 C 0.29554 0.30367 0.48999 0.0
C92 C 0.35841 0.27545 0.49562 0.0
C93 C 0.44395 0.32624 0.48559 0.0
C94 C 0.46783 0.405 0.46276 0.0
C95 C 0.40577 0.43547 0.47413 0.0
C96 C 0.32003 0.38486 0.48637 0.0
C97 C 0.20247 0.17624 0.7452 0.0
C98 C 0.15886 0.33556 0.76013 0.0
C99 C 0.92308 1.0919 0.88422 0.0
C100 C 0.83629 1.02998 0.88302 0.0
C101 C 0.7675 1.04707 0.90945 0.0
C102 C 0.68505 0.98784 0.91334 0.0
C103 C 0.67165 0.90917 0.89828 0.0
C104 C 0.73733 0.89678 0.85549 0.0
C105 C 0.81984 0.95633 0.8493 0.0
C106 C 0.9798 0.24706 0.67674 0.0
C107 C 0.97378 1.03558 0.62033 0.0
O108 O 0.18993 0.18126 0.52951 0.0
O109 O 0.15359 0.28001 0.52725 0.0
O110 O 0.23545 0.23476 0.69679 0.0
O111 O 0.12747 0.1381 0.72615 0.0
O112 O 0.15896 0.32281 0.68231 0.0
O113 O 0.12004 0.27406 0.80887 0.0
O114 O 0.93028 0.15868 0.85694 0.0
O115 O 0.98605 1.07471 0.85789 0.0
O116 O 0.97926 0.25319 0.75269 0.0
O117 O 0.99806 0.19133 0.65438 0.0
O118 O 0.9493 1.05379 0.69199 0.0
O119 O 1.04235 1.08803 0.58227 0.0
H120 H 0.34193 0.21368 0.50532 0.0
H121 H 0.48912 0.30038 0.48763 0.0
H122 H 0.42114 0.4971 0.46652 0.0
H123 H 0.27296 0.40917 0.48918 0.0
H124 H 0.77774 1.10549 0.9299 0.0
H125 H 0.6345 1.00287 0.93729 0.0
H126 H 0.72853 0.83844 0.83827 0.0
H127 H 0.87105 0.94297 0.8229 0.0
La128 La 0.63091 0.19052 0.18338 0.0
La129 La 0.49403 0.19566 1.11933 0.0
C130 C 0.77601 0.20024 0.21265 0.0
C131 C 0.82456 0.23429 0.28303 0.0
C132 C 0.8039 0.18989 0.35307 0.0
C133 C 0.83961 0.22442 0.42306 0.0
C134 C 0.89922 0.30346 0.42441 0.0
C135 C 0.92028 0.34835 0.35482 0.0
C136 C 0.88341 0.31389 0.28422 0.0
C137 C 0.4884 1.07117 0.25169 0.0
C138 C 0.56288 0.29938 0.27036 0.0
C139 C 0.3473 0.18408 1.09151 0.0
C140 C 0.27139 0.1183 1.06447 0.0
C141 C 0.22059 0.13364 1.01213 0.0
C142 C 0.17227 1.0753 0.96011 0.0
C143 C 0.175 1.00099 0.95957 0.0
C144 C 0.21387 0.98245 1.02213 0.0
C145 C 0.26294 1.0412 1.07353 0.0
C146 C 0.63821 0.32229 1.06342 0.0
C147 C 0.56534 1.08198 1.047 0.0
O148 O 0.70554 0.13696 0.22495 0.0
O149 O 0.76464 0.24971 0.16709 0.0
O150 O 0.55556 0.11904 0.28708 0.0
O151 O 0.50001 1.09579 0.17991 0.0
O152 O 0.63052 0.28436 0.2609 0.0
O153 O 0.49526 0.25943 0.22968 0.0
O154 O 0.41207 0.20721 1.03922 0.0
O155 O 0.3703 0.17801 0.1625 0.0
O156 O 0.57419 0.27741 1.02269 0.0
O157 O 0.6208 0.29184 0.13239 0.0
O158 O 0.49315 1.08939 1.05901 0.0
O159 O 0.63229 0.14518 1.06386 0.0
H160 H 0.75796 0.12887 0.35474 0.0
H161 H 0.81985 0.18896 0.47658 0.0
H162 H 0.96516 0.40949 0.35518 0.0
H163 H 0.89945 0.34984 0.23118 0.0
H164 H 0.22631 0.19298 1.0047 0.0
H165 H 0.14329 1.09298 0.91382 0.0
H166 H 0.21517 0.92534 1.02556 0.0
H167 H 0.30163 1.02842 1.11411 0.0
La168 La 0.54173 0.62924 0.629 0.0
La169 La 0.56791 0.75428 0.71257 0.0
C170 C 0.57891 0.52472 0.56825 0.0
C171 C 0.65937 0.51882 0.58092 0.0
C172 C 0.66189 0.44597 0.59159 0.0
C173 C 0.73876 0.44323 0.60952 0.0
C174 C 0.81263 0.51329 0.6174 0.0
C175 C 0.80986 0.58573 0.60817 0.0
C176 C 0.73364 0.5883 0.59022 0.0
C177 C 0.39394 0.60611 0.71341 0.0
C178 C 0.62374 0.64005 0.80055 0.0
C179 C 0.53864 0.8632 0.77627 0.0
C180 C 0.4685 0.8845 0.76096 0.0
C181 C 0.47557 0.96036 0.77728 0.0
C182 C 0.4037 0.97627 0.77404 0.0
C183 C 0.32465 0.91629 0.75453 0.0
C184 C 0.3194 0.84232 0.73202 0.0
C185 C 0.39101 0.82643 0.73527 0.0
C186 C 0.71657 0.7744 0.63295 0.0
C187 C 0.48612 0.74439 0.5415 0.0
O188 O 0.52608 0.51141 0.63031 0.0
O189 O 0.58641 0.58656 0.52882 0.0
O190 O 0.40154 0.58689 0.63967 0.0
O191 O 0.46974 0.63807 0.73652 0.0
O192 O 0.61332 0.60885 0.72842 0.0
O193 O 0.60449 0.70089 0.81186 0.0
O194 O 0.59662 0.87545 0.7187 0.0
O195 O 0.51424 0.79394 0.80804 0.0
O196 O 0.70624 0.78985 0.70692 0.0
O197 O 0.64202 0.74554 0.60637 0.0
O198 O 0.50084 0.77672 0.61267 0.0
O199 O 0.50006 0.68044 0.52967 0.0
H200 H 0.60481 0.3918 0.58674 0.0
H201 H 0.74069 0.3867 0.61691 0.0
H202 H 0.86649 0.64016 0.61431 0.0
H203 H 0.73235 0.64482 0.58472 0.0
H204 H 0.53493 1.00573 0.79668 0.0
H205 H 0.40809 1.03362 0.79236 0.0
H206 H 0.25863 0.7953 0.71809 0.0
H207 H 0.38418 0.76722 0.72254 0.0
La208 La 0.05485 0.6298 0.22693 0.0
La209 La 0.07192 0.75402 0.13001 0.0
C210 C 0.10076 0.53025 0.28148 0.0
C211 C 0.18752 0.53239 0.27329 0.0
C212 C 0.21209 0.48698 0.32233 0.0
C213 C 0.29409 0.48836 0.31126 0.0
C214 C 0.35258 0.53592 0.25223 0.0
C215 C 0.32853 0.58206 0.20412 0.0
C216 C 0.24658 0.57991 0.21418 0.0
C217 C 0.98121 0.71661 0.3031 0.0
C218 C 0.2326 0.79426 0.22837 0.0
C219 C 1.02747 0.855 1.08027 0.0
C220 C 0.9397 0.84879 1.07596 0.0
C221 C 0.90561 0.84072 1.00189 0.0
C222 C 0.8205 0.82662 0.99614 0.0
C223 C 0.76701 0.8241 1.06398 0.0
C224 C 0.80131 0.83145 0.13877 0.0
C225 C 0.8865 0.84286 0.14479 0.0
C226 C 0.1459 0.6673 1.05463 0.0
C227 C 0.8969 0.5917 1.1191 0.0
O228 O 0.09245 0.5856 0.32457 0.0
O229 O 0.06288 0.52119 0.21506 0.0
O230 O 0.95285 0.64033 0.30787 0.0
O231 O 0.04991 0.74022 0.25808 0.0
O232 O 0.19017 0.71861 0.24855 0.0
O233 O 0.19717 0.82412 0.17913 0.0
O234 O 0.04856 0.80897 1.03274 0.0
O235 O 0.05345 0.85651 0.15153 0.0
O236 O 0.17377 0.74344 1.04894 0.0
O237 O 0.07718 0.64348 1.09939 0.0
O238 O 0.93887 0.66801 1.10276 0.0
O239 O 0.93115 0.56051 0.16916 0.0
H240 H 0.16762 0.44964 0.36796 0.0
H241 H 0.31127 0.45108 0.34736 0.0
H242 H 0.37242 0.61852 0.15763 0.0
H243 H 0.22894 0.61462 0.17474 0.0
H244 H 0.94444 0.84371 0.94799 0.0
H245 H 0.79868 0.81899 0.93721 0.0
H246 H 0.76256 0.82828 0.19263 0.0
H247 H 0.91035 0.84677 0.20339 0.0
loop_
_geom_bond_atom_site_label_1
_geom_bond_atom_site_label_2
_geom_bond_distance
_geom_bond_site_symmetry_2
_ccdc_geom_bond_type
H0 C3 0.929 . S
H1 C6 0.929 . S
H2 C8 0.930 . S
C3 H0 0.929 . S
C3 C4 1.398 . S
C3 C5 1.396 . S
C4 C3 1.398 . S
C4 C8 1.407 . S
C5 C3 1.396 . S
C5 C6 1.394 . S
C6 H1 0.929 . S
C6 C5 1.394 . S
C6 C7 1.382 . S
C7 C6 1.382 . S
C7 C8 1.392 . S
C7 N9 1.420 . S
C8 H2 0.930 . S
C8 C4 1.407 . S
C8 C7 1.392 . S
N9 C7 1.420 . S
N9 C10 1.244 . S
C10 N9 1.244 . S
H11 C14 0.929 . S
H12 C17 0.929 . S
H13 C19 0.930 . S
C14 H11 0.929 . S
C14 C15 1.398 . S
C14 C16 1.396 . S
C15 C14 1.398 . S
C15 C19 1.407 . S
C16 C14 1.396 . S
C16 C17 1.394 . S
C17 H12 0.929 . S
C17 C16 1.394 . S
C17 C18 1.382 . S
C18 C17 1.382 . S
C18 C19 1.392 . S
C18 N20 1.420 . S
C19 H13 0.930 . S
C19 C15 1.407 . S
C19 C18 1.392 . S
N20 C18 1.420 . S
N20 C21 1.244 1_455 S
C21 N20 1.244 1_655 S
H22 C25 0.929 1_554 S
H23 C28 0.929 . S
H24 C30 0.930 . S
C25 H22 0.929 1_556 S
C25 C26 1.398 . S
C25 C27 1.396 . S
C26 C25 1.398 . S
C26 C30 1.407 . S
C27 C25 1.396 . S
C27 C28 1.394 . S
C28 H23 0.929 . S
C28 C27 1.394 . S
C28 C29 1.382 . S
C29 C28 1.382 . S
C29 C30 1.392 . S
C29 N31 1.420 . S
C30 H24 0.930 . S
C30 C26 1.407 . S
C30 C29 1.392 . S
N31 C29 1.420 . S
N31 C32 1.244 . S
C32 N31 1.244 . S
H33 C36 0.929 . S
H34 C39 0.929 . S
H35 C41 0.930 . S
C36 H33 0.929 . S
C36 C37 1.398 . S
C36 C38 1.396 . S
C37 C36 1.398 . S
C37 C41 1.407 . S
C38 C36 1.396 . S
C38 C39 1.394 . S
C39 H34 0.929 . S
C39 C38 1.394 . S
C39 C40 1.382 . S
C40 C39 1.382 . S
C40 C41 1.392 . S
C40 N42 1.420 . S
C41 H35 0.930 . S
C41 C37 1.407 . S
C41 C40 1.392 . S
N42 C40 1.420 . S
N42 C43 1.244 . S
C43 N42 1.244 . S
H44 C47 0.929 . S
H45 C50 0.929 . S
H46 C52 0.930 . S
C47 H44 0.929 . S
C47 C48 1.398 . S
C47 C49 1.396 . S
C48 C47 1.398 . S
C48 C52 1.407 . S
C49 C47 1.396 . S
C49 C50 1.394 . S
C50 H45 0.929 . S
C50 C49 1.394 . S
C50 C51 1.382 . S
C51 C50 1.382 . S
C51 C52 1.392 . S
C51 N53 1.420 . S
C52 H46 0.930 . S
C52 C48 1.407 . S
C52 C51 1.392 . S
N53 C51 1.420 . S
N53 C54 1.244 . S
C54 N53 1.244 . S
H55 C58 0.929 . S
H56 C61 0.929 . S
H57 C63 0.930 . S
C58 H55 0.929 . S
C58 C59 1.398 . S
C58 C60 1.396 . S
C59 C58 1.398 . S
C59 C63 1.407 . S
C60 C58 1.396 . S
C60 C61 1.394 . S
C61 H56 0.929 . S
C61 C60 1.394 . S
C61 C62 1.382 . S
C62 C61 1.382 . S
C62 C63 1.392 . S
C62 N64 1.420 . S
C63 H57 0.930 . S
C63 C59 1.407 . S
C63 C62 1.392 . S
N64 C62 1.420 . S
N64 C65 1.244 . S
C65 N64 1.244 . S
H66 C69 0.929 . S
H67 C72 0.929 . S
H68 C74 0.930 . S
C69 H66 0.929 . S
C69 C70 1.398 . S
C69 C71 1.396 . S
C70 C69 1.398 . S
C70 C74 1.407 . S
C71 C69 1.396 . S
C71 C72 1.394 . S
C72 H67 0.929 . S
C72 C71 1.394 . S
C72 C73 1.382 . S
C73 C72 1.382 . S
C73 C74 1.392 . S
C73 N75 1.420 . S
C74 H68 0.930 . S
C74 C70 1.407 . S
C74 C73 1.392 . S
N75 C73 1.420 . S
N75 C76 1.244 . S
C76 N75 1.244 . S
H77 C80 0.929 . S
H78 C83 0.929 . S
H79 C85 0.930 . S
C80 H77 0.929 . S
C80 C81 1.398 . S
C80 C82 1.396 . S
C81 C80 1.398 . S
C81 C85 1.407 . S
C82 C80 1.396 . S
C82 C83 1.394 . S
C83 H78 0.929 . S
C83 C82 1.394 . S
C83 C84 1.382 . S
C84 C83 1.382 . S
C84 C85 1.392 . S
C84 N86 1.420 . S
C85 H79 0.930 . S
C85 C81 1.407 . S
C85 C84 1.392 . S
N86 C84 1.420 . S
N86 C87 1.244 . S
C87 N86 1.244 . S
La88 C90 2.928 . S
La88 O108 2.521 . S
La88 O109 2.628 . S
La88 O110 2.563 . S
La88 O111 2.757 1_545 S
La88 O112 2.470 . S
La88 O117 2.482 1_455 S
La88 O119 2.503 1_445 S
La89 C99 2.928 1_545 S
La89 O111 2.482 1_645 S
La89 O113 2.503 1_655 S
La89 O114 2.521 1_545 S
La89 O115 2.628 1_545 S
La89 O116 2.554 . S
La89 O117 2.757 . S
La89 O118 2.470 1_545 S
C90 La88 2.928 . S
C90 C91 1.503 . S
C90 O108 1.261 . S
C90 O109 1.243 . S
C91 C90 1.503 . S
C91 C92 1.394 . S
C91 C96 1.373 . S
C92 C91 1.394 . S
C92 C93 1.380 . S
C92 H120 0.930 . S
C93 C92 1.380 . S
C93 C94 1.376 . S
C93 H121 0.930 . S
C94 C93 1.376 . S
C94 C95 1.370 . S
C95 C94 1.370 . S
C95 C96 1.396 . S
C95 H122 0.929 . S
C96 C91 1.373 . S
C96 C95 1.396 . S
C96 H123 0.929 . S
C97 O110 1.239 1_565 S
C97 O111 1.289 . S
C98 O112 1.258 . S
C98 O113 1.256 . S
C99 La89 2.928 1_565 S
C99 C100 1.503 . S
C99 O114 1.261 . S
C99 O115 1.243 . S
C100 C99 1.503 . S
C100 C101 1.394 . S
C100 C105 1.373 . S
C101 C100 1.394 . S
C101 C102 1.380 . S
C101 H124 0.930 . S
C102 C101 1.380 . S
C102 C103 1.376 . S
C102 H125 0.930 . S
C103 C102 1.376 . S
C103 C104 1.370 . S
C104 C103 1.370 . S
C104 C105 1.396 . S
C104 H126 0.929 . S
C105 C100 1.373 . S
C105 C104 1.396 . S
C105 H127 0.929 . S
C106 O116 1.240 . S
C106 O117 1.289 . S
C107 O118 1.258 . S
C107 O119 1.256 . S
O108 La88 2.521 . S
O108 C90 1.261 . S
O109 La88 2.628 . S
O109 C90 1.243 . S
O110 La88 2.563 . S
O110 C97 1.239 1_545 S
O111 La88 2.757 1_565 S
O111 La89 2.482 1_465 S
O111 C97 1.289 . S
O112 La88 2.470 . S
O112 C98 1.258 . S
O113 La89 2.503 1_455 S
O113 C98 1.256 . S
O114 La89 2.521 1_565 S
O114 C99 1.261 . S
O115 La89 2.628 1_565 S
O115 C99 1.243 . S
O116 La89 2.554 . S
O116 C106 1.240 . S
O117 La88 2.482 1_655 S
O117 La89 2.757 . S
O117 C106 1.289 . S
O118 La89 2.470 1_565 S
O118 C107 1.258 . S
O119 La88 2.503 1_665 S
O119 C107 1.256 . S
H120 C92 0.930 . S
H121 C93 0.930 . S
H122 C95 0.929 . S
H123 C96 0.929 . S
H124 C101 0.930 . S
H125 C102 0.930 . S
H126 C104 0.929 . S
H127 C105 0.929 . S
La128 C130 2.928 . S
La128 O148 2.521 . S
La128 O149 2.628 . S
La128 O150 2.554 1_545 S
La128 O151 2.757 1_545 S
La128 O152 2.470 . S
La128 O157 2.482 . S
La128 O159 2.503 1_545 S
La129 C139 2.928 1_544 S
La129 O151 2.482 1_545 S
La129 O153 2.503 . S
La129 O154 2.521 1_554 S
La129 O155 2.628 1_544 S
La129 O156 2.554 1_554 S
La129 O157 2.757 . S
La129 O158 2.479 1_554 S
C130 La128 2.928 . S
C130 C131 1.503 . S
C130 O148 1.261 . S
C130 O149 1.243 . S
C131 C130 1.503 . S
C131 C132 1.394 . S
C131 C136 1.373 . S
C132 C131 1.394 . S
C132 C133 1.380 . S
C132 H160 0.930 . S
C133 C132 1.380 . S
C133 C134 1.376 . S
C133 H161 0.930 . S
C134 C133 1.376 . S
C134 C135 1.370 . S
C135 C134 1.370 . S
C135 C136 1.396 . S
C135 H162 0.929 . S
C136 C131 1.373 . S
C136 C135 1.396 . S
C136 H163 0.929 . S
C137 O150 1.240 . S
C137 O151 1.289 . S
C138 O152 1.258 . S
C138 O153 1.256 . S
C139 La129 2.928 1_566 S
C139 C140 1.503 . S
C139 O154 1.261 1_565 S
C139 O155 1.243 . S
C140 C139 1.503 . S
C140 C141 1.394 . S
C140 C145 1.373 . S
C141 C140 1.394 . S
C141 C142 1.380 . S
C141 H164 0.930 1_565 S
C142 C141 1.380 . S
C142 C143 1.376 . S
C142 H165 0.930 . S
C143 C142 1.376 . S
C143 C144 1.370 . S
C144 C143 1.370 . S
C144 C145 1.396 . S
C144 H166 0.929 . S
C145 C140 1.373 . S
C145 C144 1.396 . S
C145 H167 0.929 . S
C146 O156 1.240 . S
C146 O157 1.289 1_556 S
C147 O158 1.246 1_565 S
C147 O159 1.256 1_556 S
O148 La128 2.521 . S
O148 C130 1.261 . S
O149 La128 2.628 . S
O149 C130 1.243 . S
O150 La128 2.554 1_565 S
O150 C137 1.240 . S
O151 La128 2.757 1_565 S
O151 La129 2.482 1_565 S
O151 C137 1.289 . S
O152 La128 2.470 . S
O152 C138 1.258 . S
O153 La129 2.503 . S
O153 C138 1.256 . S
O154 La129 2.521 1_556 S
O154 C139 1.261 1_545 S
O155 La129 2.628 1_566 S
O155 C139 1.243 . S
O156 La129 2.554 1_556 S
O156 C146 1.240 . S
O157 La128 2.482 . S
O157 La129 2.757 . S
O157 C146 1.289 1_554 S
O158 La129 2.479 1_556 S
O158 C147 1.246 1_545 S
O159 La128 2.503 1_565 S
O159 C147 1.256 1_554 S
H160 C132 0.930 . S
H161 C133 0.930 . S
H162 C135 0.929 . S
H163 C136 0.929 . S
H164 C141 0.930 1_545 S
H165 C142 0.930 . S
H166 C144 0.929 . S
H167 C145 0.929 . S
La168 C170 2.928 . S
La168 O188 2.521 . S
La168 O189 2.628 . S
La168 O190 2.554 . S
La168 O191 2.757 . S
La168 O192 2.470 . S
La168 O197 2.482 . S
La168 O199 2.503 . S
La169 C179 2.928 . S
La169 O191 2.482 . S
La169 O193 2.503 . S
La169 O194 2.521 . S
La169 O195 2.628 . S
La169 O196 2.554 . S
La169 O197 2.757 . S
La169 O198 2.470 . S
C170 La168 2.928 . S
C170 C171 1.503 . S
C170 O188 1.261 . S
C170 O189 1.243 . S
C171 C170 1.503 . S
C171 C172 1.394 . S
C171 C176 1.373 . S
C172 C171 1.394 . S
C172 C173 1.380 . S
C172 H200 0.930 . S
C173 C172 1.380 . S
C173 C174 1.376 . S
C173 H201 0.930 . S
C174 C173 1.376 . S
C174 C175 1.370 . S
C175 C174 1.370 . S
C175 C176 1.396 . S
C175 H202 0.929 . S
C176 C171 1.373 . S
C176 C175 1.396 . S
C176 H203 0.929 . S
C177 O190 1.240 . S
C177 O191 1.289 . S
C178 O192 1.258 . S
C178 O193 1.256 . S
C179 La169 2.928 . S
C179 C180 1.503 . S
C179 O194 1.261 . S
C179 O195 1.243 . S
C180 C179 1.503 . S
C180 C181 1.394 . S
C180 C185 1.373 . S
C181 C180 1.394 . S
C181 C182 1.380 . S
C181 H204 0.930 . S
C182 C181 1.380 . S
C182 C183 1.376 . S
C182 H205 0.930 . S
C183 C182 1.376 . S
C183 C184 1.370 . S
C184 C183 1.370 . S
C184 C185 1.396 . S
C184 H206 0.929 . S
C185 C180 1.373 . S
C185 C184 1.396 . S
C185 H207 0.929 . S
C186 O196 1.240 . S
C186 O197 1.289 . S
C187 O198 1.258 . S
C187 O199 1.256 . S
O188 La168 2.521 . S
O188 C170 1.261 . S
O189 La168 2.628 . S
O189 C170 1.243 . S
O190 La168 2.554 . S
O190 C177 1.240 . S
O191 La168 2.757 . S
O191 La169 2.482 . S
O191 C177 1.289 . S
O192 La168 2.470 . S
O192 C178 1.258 . S
O193 La169 2.503 . S
O193 C178 1.256 . S
O194 La169 2.521 . S
O194 C179 1.261 . S
O195 La169 2.628 . S
O195 C179 1.243 . S
O196 La169 2.554 . S
O196 C186 1.240 . S
O197 La168 2.482 . S
O197 La169 2.757 . S
O197 C186 1.289 . S
O198 La169 2.470 . S
O198 C187 1.258 . S
O199 La168 2.503 . S
O199 C187 1.256 . S
H200 C172 0.930 . S
H201 C173 0.930 . S
H202 C175 0.929 . S
H203 C176 0.929 . S
H204 C181 0.930 . S
H205 C182 0.930 . S
H206 C184 0.929 . S
H207 C185 0.929 . S
La208 C210 2.928 . S
La208 O228 2.521 . S
La208 O229 2.628 . S
La208 O230 2.554 1_455 S
La208 O231 2.757 1_455 S
La208 O232 2.470 . S
La208 O237 2.482 1_554 S
La208 O239 2.503 1_455 S
La209 C219 2.928 1_455 S
La209 O231 2.482 1_456 S
La209 O233 2.503 1_556 S
La209 O234 2.521 1_455 S
La209 O235 2.628 1_455 S
La209 O236 2.554 . S
La209 O237 2.757 . S
La209 O238 2.470 1_455 S
C210 La208 2.928 . S
C210 C211 1.503 . S
C210 O228 1.261 . S
C210 O229 1.243 . S
C211 C210 1.503 . S
C211 C212 1.394 . S
C211 C216 1.373 . S
C212 C211 1.394 . S
C212 C213 1.380 . S
C212 H240 0.930 . S
C213 C212 1.380 . S
C213 C214 1.376 . S
C213 H241 0.930 . S
C214 C213 1.376 . S
C214 C215 1.370 . S
C215 C214 1.370 . S
C215 C216 1.396 . S
C215 H242 0.929 . S
C216 C211 1.373 . S
C216 C215 1.396 . S
C216 H243 0.929 . S
C217 O230 1.240 . S
C217 O231 1.289 . S
C218 O232 1.258 . S
C218 O233 1.256 . S
C219 La209 2.928 1_655 S
C219 C220 1.503 . S
C219 O234 1.261 . S
C219 O235 1.243 . S
C220 C219 1.503 . S
C220 C221 1.394 . S
C220 C225 1.373 . S
C221 C220 1.394 . S
C221 C222 1.380 . S
C221 H244 0.930 . S
C222 C221 1.380 . S
C222 C223 1.376 . S
C222 H245 0.930 . S
C223 C222 1.376 . S
C223 C224 1.370 . S
C224 C223 1.370 . S
C224 C225 1.396 . S
C224 H246 0.929 . S
C225 C220 1.373 . S
C225 C224 1.396 . S
C225 H247 0.929 . S
C226 O236 1.240 . S
C226 O237 1.289 . S
C227 O238 1.258 . S
C227 O239 1.256 1_556 S
O228 La208 2.521 . S
O228 C210 1.261 . S
O229 La208 2.628 . S
O229 C210 1.243 . S
O230 La208 2.554 1_655 S
O230 C217 1.240 . S
O231 La208 2.757 1_655 S
O231 La209 2.482 1_654 S
O231 C217 1.289 . S
O232 La208 2.470 . S
O232 C218 1.258 . S
O233 La209 2.503 1_554 S
O233 C218 1.256 . S
O234 La209 2.521 1_655 S
O234 C219 1.261 . S
O235 La209 2.628 1_655 S
O235 C219 1.243 . S
O236 La209 2.554 . S
O236 C226 1.240 . S
O237 La208 2.482 1_556 S
O237 La209 2.757 . S
O237 C226 1.289 . S
O238 La209 2.470 1_655 S
O238 C227 1.258 . S
O239 La208 2.503 1_655 S
O239 C227 1.256 1_554 S
H240 C212 0.930 . S
H241 C213 0.930 . S
H242 C215 0.929 . S
H243 C216 0.929 . S
H244 C221 0.930 . S
H245 C222 0.930 . S
H246 C224 0.929 . S
H247 C225 0.929 . S
C4 C94 1.473 . S
C16 C143 1.715 . S
C178 C32 3.246 . S
C43 C217 3.460 . S
C138 C5 3.367 . S
C97 C21 2.142 1_455 S
C227 C27 2.752 . S
C186 C37 2.661 . S
C10 C214 2.000 . S
C146 C26 3.762 . S
C38 C107 3.156 . S
C15 C183 2.942 . S
C103 C48 1.125 . S
C59 C134 1.895 . S
C76 C187 3.548 . S
C87 C226 3.365 . S
C54 C147 3.404 . S
C106 C60 1.408 . S
C218 C71 2.519 . S
C177 C82 2.430 . S
C49 C223 2.565 . S
C137 C70 2.884 . S
C98 C81 3.918 . S
C65 C174 1.967 . S
