# Generated by pormake.
# Topology ptr, (4,4)-cn, num edge types: 1
# Building blocks:
#     Node 0, Type 0, BuildingBlock: TATPOV_clean_sbu_0, # of connection points: 4
#     Node 1, Type 0, BuildingBlock: TATPOV_clean_sbu_0, # of connection points: 4
#     Node 2, Type 0, BuildingBlock: TATPOV_clean_sbu_0, # of connection points: 4
#     Node 3, Type 0, BuildingBlock: TATPOV_clean_sbu_0, # of connection points: 4
#     Node 4, Type 0, BuildingBlock: TATPOV_clean_sbu_0, # of connection points: 4
#     Node 5, Type 0, BuildingBlock: TATPOV_clean_sbu_0, # of connection points: 4
#     Node 6, Type 0, BuildingBlock: TATPOV_clean_sbu_0, # of connection points: 4
#     Node 7, Type 0, BuildingBlock: TATPOV_clean_sbu_0, # of connection points: 4
#     Node 8, Type 0, BuildingBlock: TATPOV_clean_sbu_0, # of connection points: 4
#     Node 9, Type 0, BuildingBlock: TATPOV_clean_sbu_0, # of connection points: 4
#     Node 10, Type 0, BuildingBlock: TATPOV_clean_sbu_0, # of connection points: 4
#     Node 11, Type 0, BuildingBlock: TATPOV_clean_sbu_0, # of connection points: 4
#     Node 12, Type 0, BuildingBlock: TATPOV_clean_sbu_0, # of connection points: 4
#     Node 13, Type 0, BuildingBlock: TATPOV_clean_sbu_0, # of connection points: 4
#     Node 14, Type 0, BuildingBlock: TATPOV_clean_sbu_0, # of connection points: 4
#     Node 15, Type 0, BuildingBlock: TATPOV_clean_sbu_0, # of connection points: 4
#     Node 16, Type 0, BuildingBlock: TATPOV_clean_sbu_0, # of connection points: 4
#     Node 17, Type 0, BuildingBlock: TATPOV_clean_sbu_0, # of connection points: 4
#     Node 18, Type 1, BuildingBlock: KUFVIS_clean_linker_0, # of connection points: 4
#     Node 19, Type 1, BuildingBlock: KUFVIS_clean_linker_0, # of connection points: 4
#     Node 20, Type 1, BuildingBlock: KUFVIS_clean_linker_0, # of connection points: 4
#     Node 21, Type 1, BuildingBlock: KUFVIS_clean_linker_0, # of connection points: 4
#     Node 22, Type 1, BuildingBlock: KUFVIS_clean_linker_0, # of connection points: 4
#     Node 23, Type 1, BuildingBlock: KUFVIS_clean_linker_0, # of connection points: 4
#     Node 24, Type 1, BuildingBlock: KUFVIS_clean_linker_0, # of connection points: 4
#     Node 25, Type 1, BuildingBlock: KUFVIS_clean_linker_0, # of connection points: 4
#     Node 26, Type 1, BuildingBlock: KUFVIS_clean_linker_0, # of connection points: 4
#     Node 27, Type 1, BuildingBlock: KUFVIS_clean_linker_0, # of connection points: 4
#     Node 28, Type 1, BuildingBlock: KUFVIS_clean_linker_0, # of connection points: 4
#     Node 29, Type 1, BuildingBlock: KUFVIS_clean_linker_0, # of connection points: 4
#     Node 30, Type 1, BuildingBlock: KUFVIS_clean_linker_0, # of connection points: 4
#     Node 31, Type 1, BuildingBlock: KUFVIS_clean_linker_0, # of connection points: 4
#     Node 32, Type 1, BuildingBlock: KUFVIS_clean_linker_0, # of connection points: 4
#     Node 33, Type 1, BuildingBlock: KUFVIS_clean_linker_0, # of connection points: 4
#     Node 34, Type 1, BuildingBlock: KUFVIS_clean_linker_0, # of connection points: 4
#     Node 35, Type 1, BuildingBlock: KUFVIS_clean_linker_0, # of connection points: 4
#     Edge 36, Type (0, 1), BuildingBlock: OJICUG_clean_linker_0, # of connection points: 2
#     Edge 37, Type (0, 1), BuildingBlock: OJICUG_clean_linker_0, # of connection points: 2
#     Edge 38, Type (0, 1), BuildingBlock: OJICUG_clean_linker_0, # of connection points: 2
#     Edge 39, Type (0, 1), BuildingBlock: OJICUG_clean_linker_0, # of connection points: 2
#     Edge 40, Type (0, 1), BuildingBlock: OJICUG_clean_linker_0, # of connection points: 2
#     Edge 41, Type (0, 1), BuildingBlock: OJICUG_clean_linker_0, # of connection points: 2
#     Edge 42, Type (0, 1), BuildingBlock: OJICUG_clean_linker_0, # of connection points: 2
#     Edge 43, Type (0, 1), BuildingBlock: OJICUG_clean_linker_0, # of connection points: 2
#     Edge 44, Type (0, 1), BuildingBlock: OJICUG_clean_linker_0, # of connection points: 2
#     Edge 45, Type (0, 1), BuildingBlock: OJICUG_clean_linker_0, # of connection points: 2
#     Edge 46, Type (0, 1), BuildingBlock: OJICUG_clean_linker_0, # of connection points: 2
#     Edge 47, Type (0, 1), BuildingBlock: OJICUG_clean_linker_0, # of connection points: 2
#     Edge 48, Type (0, 1), BuildingBlock: OJICUG_clean_linker_0, # of connection points: 2
#     Edge 49, Type (0, 1), BuildingBlock: OJICUG_clean_linker_0, # of connection points: 2
#     Edge 50, Type (0, 1), BuildingBlock: OJICUG_clean_linker_0, # of connection points: 2
#     Edge 51, Type (0, 1), BuildingBlock: OJICUG_clean_linker_0, # of connection points: 2
#     Edge 52, Type (0, 1), BuildingBlock: OJICUG_clean_linker_0, # of connection points: 2
#     Edge 53, Type (0, 1), BuildingBlock: OJICUG_clean_linker_0, # of connection points: 2
#     Edge 54, Type (0, 1), BuildingBlock: OJICUG_clean_linker_0, # of connection points: 2
#     Edge 55, Type (0, 1), BuildingBlock: OJICUG_clean_linker_0, # of connection points: 2
#     Edge 56, Type (0, 1), BuildingBlock: OJICUG_clean_linker_0, # of connection points: 2
#     Edge 57, Type (0, 1), BuildingBlock: OJICUG_clean_linker_0, # of connection points: 2
#     Edge 58, Type (0, 1), BuildingBlock: OJICUG_clean_linker_0, # of connection points: 2
#     Edge 59, Type (0, 1), BuildingBlock: OJICUG_clean_linker_0, # of connection points: 2
#     Edge 60, Type (0, 1), BuildingBlock: OJICUG_clean_linker_0, # of connection points: 2
#     Edge 61, Type (0, 1), BuildingBlock: OJICUG_clean_linker_0, # of connection points: 2
#     Edge 62, Type (0, 1), BuildingBlock: OJICUG_clean_linker_0, # of connection points: 2
#     Edge 63, Type (0, 1), BuildingBlock: OJICUG_clean_linker_0, # of connection points: 2
#     Edge 64, Type (0, 1), BuildingBlock: OJICUG_clean_linker_0, # of connection points: 2
#     Edge 65, Type (0, 1), BuildingBlock: OJICUG_clean_linker_0, # of connection points: 2
#     Edge 66, Type (0, 1), BuildingBlock: OJICUG_clean_linker_0, # of connection points: 2
#     Edge 67, Type (0, 1), BuildingBlock: OJICUG_clean_linker_0, # of connection points: 2
#     Edge 68, Type (0, 1), BuildingBlock: OJICUG_clean_linker_0, # of connection points: 2
#     Edge 69, Type (0, 1), BuildingBlock: OJICUG_clean_linker_0, # of connection points: 2
#     Edge 70, Type (0, 1), BuildingBlock: OJICUG_clean_linker_0, # of connection points: 2
#     Edge 71, Type (0, 1), BuildingBlock: OJICUG_clean_linker_0, # of connection points: 2
#     Edge 72, Type (0, 1), BuildingBlock: OJICUG_clean_linker_0, # of connection points: 2
#     Edge 73, Type (0, 1), BuildingBlock: OJICUG_clean_linker_0, # of connection points: 2
#     Edge 74, Type (0, 1), BuildingBlock: OJICUG_clean_linker_0, # of connection points: 2
#     Edge 75, Type (0, 1), BuildingBlock: OJICUG_clean_linker_0, # of connection points: 2
#     Edge 76, Type (0, 1), BuildingBlock: OJICUG_clean_linker_0, # of connection points: 2
#     Edge 77, Type (0, 1), BuildingBlock: OJICUG_clean_linker_0, # of connection points: 2
#     Edge 78, Type (0, 1), BuildingBlock: OJICUG_clean_linker_0, # of connection points: 2
#     Edge 79, Type (0, 1), BuildingBlock: OJICUG_clean_linker_0, # of connection points: 2
#     Edge 80, Type (0, 1), BuildingBlock: OJICUG_clean_linker_0, # of connection points: 2
#     Edge 81, Type (0, 1), BuildingBlock: OJICUG_clean_linker_0, # of connection points: 2
#     Edge 82, Type (0, 1), BuildingBlock: OJICUG_clean_linker_0, # of connection points: 2
#     Edge 83, Type (0, 1), BuildingBlock: OJICUG_clean_linker_0, # of connection points: 2
#     Edge 84, Type (0, 1), BuildingBlock: OJICUG_clean_linker_0, # of connection points: 2
#     Edge 85, Type (0, 1), BuildingBlock: OJICUG_clean_linker_0, # of connection points: 2
#     Edge 86, Type (0, 1), BuildingBlock: OJICUG_clean_linker_0, # of connection points: 2
#     Edge 87, Type (0, 1), BuildingBlock: OJICUG_clean_linker_0, # of connection points: 2
#     Edge 88, Type (0, 1), BuildingBlock: OJICUG_clean_linker_0, # of connection points: 2
#     Edge 89, Type (0, 1), BuildingBlock: OJICUG_clean_linker_0, # of connection points: 2
#     Edge 90, Type (0, 1), BuildingBlock: OJICUG_clean_linker_0, # of connection points: 2
#     Edge 91, Type (0, 1), BuildingBlock: OJICUG_clean_linker_0, # of connection points: 2
#     Edge 92, Type (0, 1), BuildingBlock: OJICUG_clean_linker_0, # of connection points: 2
#     Edge 93, Type (0, 1), BuildingBlock: OJICUG_clean_linker_0, # of connection points: 2
#     Edge 94, Type (0, 1), BuildingBlock: OJICUG_clean_linker_0, # of connection points: 2
#     Edge 95, Type (0, 1), BuildingBlock: OJICUG_clean_linker_0, # of connection points: 2
#     Edge 96, Type (0, 1), BuildingBlock: OJICUG_clean_linker_0, # of connection points: 2
#     Edge 97, Type (0, 1), BuildingBlock: OJICUG_clean_linker_0, # of connection points: 2
#     Edge 98, Type (0, 1), BuildingBlock: OJICUG_clean_linker_0, # of connection points: 2
#     Edge 99, Type (0, 1), BuildingBlock: OJICUG_clean_linker_0, # of connection points: 2
#     Edge 100, Type (0, 1), BuildingBlock: OJICUG_clean_linker_0, # of connection points: 2
#     Edge 101, Type (0, 1), BuildingBlock: OJICUG_clean_linker_0, # of connection points: 2
#     Edge 102, Type (0, 1), BuildingBlock: OJICUG_clean_linker_0, # of connection points: 2
#     Edge 103, Type (0, 1), BuildingBlock: OJICUG_clean_linker_0, # of connection points: 2
#     Edge 104, Type (0, 1), BuildingBlock: OJICUG_clean_linker_0, # of connection points: 2
#     Edge 105, Type (0, 1), BuildingBlock: OJICUG_clean_linker_0, # of connection points: 2
#     Edge 106, Type (0, 1), BuildingBlock: OJICUG_clean_linker_0, # of connection points: 2
#     Edge 107, Type (0, 1), BuildingBlock: OJICUG_clean_linker_0, # of connection points: 2
# Relax obj value: 0.070
# Max RMSD: 0.193
# Mean RMSD: 0.121
data_MOF--net-ptr--node1-TATPOV_clean_sbu_0--node2-KUFVIS_clean_linker_0--edge1-OJICUG_clean_linker_0
_symmetry_space_group_name_H-M    P1
_symmetry_Int_Tables_number       1
_symmetry_cell_setting            triclinic
loop_
_symmetry_equiv_pos_as_xyz
'x, y, z'
_cell_length_a     56.664461
_cell_length_b     57.224544
_cell_length_c     36.11778
_cell_angle_alpha  89.231146
_cell_angle_beta   92.379948
_cell_angle_gamma 121.05975
loop_
_atom_site_label
_atom_site_type_symbol
_atom_site_fract_x
_atom_site_fract_y
_atom_site_fract_z
_atom_type_partial_charge
Zn0 Zn 0.95129 0.37943 0.0114 0.0
Zn1 Zn 1.00149 0.38244 0.01124 0.0
O2 O 0.97318 0.34141 0.00769 0.0
O3 O 0.93268 0.33812 0.00811 0.0
O4 O 0.03896 0.38542 0.01373 0.0
O5 O 0.96218 0.39939 0.0607 0.0
O6 O 1.00212 0.4016 0.05937 0.0
C7 C 0.94691 0.32687 0.00647 0.0
C8 C 0.98448 0.40846 0.94891 0.0
O9 O 1.00143 0.40248 0.96394 0.0
O10 O 0.96192 0.40134 0.96391 0.0
C11 C 0.04574 0.37112 -0.00475 0.0
O12 O 0.02764 0.35268 0.97166 0.0
C13 C 0.98577 0.40696 0.07532 0.0
Zn14 Zn 0.67746 0.59853 0.00578 0.0
Zn15 Zn 0.67864 0.64636 0.01329 0.0
O16 O 0.71928 0.65738 0.00734 0.0
O17 O 0.71875 0.61882 0.00267 0.0
O18 O 0.6819 0.68323 0.02108 0.0
O19 O 0.6606 0.58639 0.055 0.0
O20 O 0.66092 0.62486 0.06076 0.0
C21 C 0.73208 0.64463 0.00415 0.0
C22 C 0.64375 0.60624 0.95023 0.0
O23 O 0.65274 0.62892 0.96712 0.0
O24 O 0.65176 0.59016 0.96081 0.0
C25 C 0.66792 0.6924 0.00488 0.0
O26 O 0.64848 0.67713 0.98009 0.0
C27 C 0.65505 0.60155 0.07324 0.0
Zn28 Zn 0.40033 0.98257 0.01513 0.0
Zn29 Zn 0.40219 0.0301 0.01223 0.0
O30 O 0.3614 1.00078 0.02051 0.0
O31 O 0.35955 0.96144 0.02192 0.0
O32 O 0.39927 0.06392 0.00859 0.0
O33 O 0.41353 0.98737 0.96408 0.0
O34 O 0.41601 0.02707 0.9611 0.0
C35 C 0.3475 0.97484 0.02289 0.0
C36 C 0.43824 0.02195 0.07004 0.0
O37 O 0.4299 0.03723 0.05631 0.0
O38 O 0.42842 0.99797 0.05753 0.0
C39 C 0.41815 0.08849 0.00309 0.0
O40 O 0.44361 0.09432 -0.00032 0.0
C41 C 0.41907 1.00868 0.94631 0.0
Zn42 Zn 0.10472 0.65975 0.98022 0.0
Zn43 Zn 0.05357 0.65491 0.98023 0.0
O44 O 0.08083 0.69611 -0.01647 0.0
O45 O 0.122 0.70091 -0.01666 0.0
O46 O 1.01554 0.65067 0.97787 0.0
O47 O 0.09433 0.63984 0.93093 0.0
O48 O 0.05374 0.63628 0.93211 0.0
C49 C 0.10703 0.71135 -0.01524 0.0
C50 C 0.07195 0.63014 0.04272 0.0
O51 O 0.05446 0.63535 0.02756 0.0
O52 O 0.09468 0.63793 0.02779 0.0
C53 C 1.00824 0.66445 -0.0034 0.0
O54 O 0.02609 0.68303 0.02025 0.0
C55 C 0.07063 0.63167 0.9162 0.0
Zn56 Zn 0.3737 0.43753 -0.01146 0.0
Zn57 Zn 0.3753 0.39101 0.98134 0.0
O58 O 0.33369 0.37648 -0.01361 0.0
O59 O 0.33233 0.41414 -0.00941 0.0
O60 O 0.37868 0.3575 0.9749 0.0
O61 O 0.39089 0.45077 0.93963 0.0
O62 O 0.39213 0.41312 0.93399 0.0
C63 C 0.31994 0.38834 -0.01088 0.0
C64 C 0.40796 0.43204 0.04493 0.0
O65 O 0.40005 0.40968 0.02783 0.0
O66 O 0.39916 0.44745 0.03417 0.0
C67 C 0.36207 0.33306 -0.01521 0.0
O68 O 0.33927 0.3272 0.00079 0.0
C69 C 0.3972 0.43617 0.92146 0.0
Zn70 Zn 0.65583 0.054 -0.01363 0.0
Zn71 Zn 0.65098 1.00597 0.97982 0.0
O72 O 0.69268 0.03499 0.97755 0.0
O73 O 0.69704 0.07472 -0.01141 0.0
O74 O 0.6522 0.97123 0.97823 0.0
O75 O 0.63504 0.04284 0.03235 0.0
O76 O 0.63216 1.00305 0.02924 0.0
C77 C 0.70794 0.06074 -0.01767 0.0
C78 C 0.62354 0.02416 0.92138 0.0
O79 O 0.62768 1.0055 0.93375 0.0
O80 O 0.63431 0.04687 0.93822 0.0
C81 C 0.63297 0.94748 -0.0132 0.0
O82 O 0.60891 0.94381 -0.00501 0.0
C83 C 0.62692 0.01943 0.04549 0.0
Zn84 Zn 0.61441 0.7106 0.34941 0.0
Zn85 Zn 0.66569 0.71553 0.34882 0.0
O86 O 0.63873 0.67436 0.34506 0.0
O87 O 0.5975 0.6694 0.34578 0.0
O88 O 0.70394 0.72045 0.35087 0.0
O89 O 0.62503 0.73069 0.39875 0.0
O90 O 0.66555 0.7342 0.39675 0.0
C91 C 0.61254 0.65905 0.34379 0.0
C92 C 0.64719 0.74035 0.28689 0.0
O93 O 0.66464 0.73506 0.30187 0.0
O94 O 0.62448 0.73258 0.30188 0.0
C95 C 0.71174 0.70705 0.33227 0.0
O96 O 0.69412 0.68798 0.30898 0.0
C97 C 0.64889 0.73897 0.41297 0.0
Zn98 Zn 0.34242 0.92896 0.33989 0.0
Zn99 Zn 0.3429 0.97653 0.34766 0.0
O100 O 0.38394 0.98945 0.34005 0.0
O101 O 0.38334 0.95083 0.33435 0.0
O102 O 0.34062 1.01078 0.35415 0.0
O103 O 0.32724 0.91686 0.38986 0.0
O104 O 0.3268 0.95493 0.39571 0.0
C105 C 0.3966 0.97665 0.33547 0.0
C106 C 0.30773 0.93519 0.28555 0.0
O107 O 0.317 0.95799 0.30213 0.0
O108 O 0.31563 0.91905 0.29614 0.0
C109 C 0.35753 0.03524 0.3446 0.0
O110 O 0.38048 0.04098 0.32917 0.0
C111 C 0.32176 0.93192 0.40842 0.0
Zn112 Zn 0.05481 0.3084 0.34095 0.0
Zn113 Zn 0.06506 0.3594 0.34146 0.0
O114 O 1.02282 0.33574 0.34759 0.0
O115 O 1.01444 0.29379 0.34265 0.0
O116 O 0.0722 0.39806 0.33628 0.0
O117 O 0.07097 0.31206 0.29231 0.0
O118 O 0.0784 0.35382 0.29143 0.0
C119 C 1.0058 0.31005 0.34613 0.0
C120 C 0.09176 0.34086 0.40131 0.0
O121 O 0.08864 0.35978 0.38736 0.0
O122 O 0.07902 0.31722 0.38691 0.0
C123 C 0.0596 0.40755 0.3532 0.0
O124 O 0.04166 0.39233 0.37787 0.0
C125 C 0.0797 0.33456 0.27604 0.0
Zn126 Zn 0.77439 0.99606 0.31101 0.0
Zn127 Zn 0.7238 0.99261 0.31195 0.0
O128 O 0.75208 0.03335 0.31534 0.0
O129 O 0.79297 0.03759 0.3151 0.0
O130 O 0.68675 0.99041 0.31044 0.0
O131 O 0.7626 0.97588 0.2614 0.0
O132 O 0.72247 0.97316 0.26387 0.0
C133 C 0.77827 0.04833 0.31681 0.0
C134 C 0.74116 0.96656 0.37371 0.0
O135 O 0.72409 0.97249 0.35894 0.0
O136 O 0.76372 0.97388 0.35855 0.0
C137 C 0.6822 1.00827 0.32342 0.0
O138 O 0.70244 0.02998 0.34038 0.0
C139 C 0.73871 0.9679 0.24744 0.0
Zn140 Zn 0.04353 0.77326 0.32049 0.0
Zn141 Zn 0.04134 0.72507 0.31222 0.0
O142 O 1.00086 0.71462 0.31873 0.0
O143 O 1.00229 0.75361 0.32386 0.0
O144 O 0.03752 0.68783 0.30466 0.0
O145 O 0.06025 0.78545 0.2712 0.0
O146 O 0.05905 0.7466 0.26449 0.0
C147 C 0.98852 0.72781 0.32232 0.0
C148 C 0.07669 0.76475 0.37571 0.0
O149 O 0.06738 0.74217 0.35842 0.0
O150 O 0.06913 0.78124 0.36545 0.0
C151 C 0.05054 0.67814 0.32223 0.0
O152 O 0.06922 0.69303 0.34805 0.0
C153 C 0.06527 0.77013 0.25241 0.0
Zn154 Zn 0.32859 0.3927 0.31894 0.0
Zn155 Zn 0.32237 0.34332 0.31708 0.0
O156 O 0.36406 0.37091 0.3119 0.0
O157 O 0.3695 0.41167 0.31698 0.0
O158 O 0.32237 0.30772 0.31777 0.0
O159 O 0.3119 0.38561 0.36777 0.0
O160 O 0.30701 0.34482 0.36767 0.0
C161 C 0.37974 0.39679 0.31343 0.0
C162 C 0.29257 0.35923 0.2585 0.0
O163 O 0.29748 0.3413 0.27186 0.0
O164 O 0.304 0.38274 0.27321 0.0
C165 C 0.30285 0.28378 0.32511 0.0
O166 O 0.2785 0.27989 0.33204 0.0
C167 C 0.30422 0.36306 0.38345 0.0
Zn168 Zn 0.27813 0.04056 0.67966 0.0
Zn169 Zn 0.32935 0.04532 0.67962 0.0
O170 O 0.30218 1.00415 0.67605 0.0
O171 O 0.26096 0.99923 0.67586 0.0
O172 O 0.36739 0.04974 0.68176 0.0
O173 O 0.28881 0.06063 0.72919 0.0
O174 O 0.32933 0.06413 0.72751 0.0
C175 C 0.27599 0.98884 0.67445 0.0
C176 C 0.31136 0.07061 0.61755 0.0
O177 O 0.32863 0.0651 0.63267 0.0
O178 O 0.28854 0.0628 0.63225 0.0
C179 C 0.37478 0.03598 0.66315 0.0
O180 O 0.3569 1.01708 0.63987 0.0
C181 C 0.31263 0.06893 0.74358 0.0
Zn182 Zn 1.01027 0.26367 0.67398 0.0
Zn183 Zn 1.01058 0.31129 0.681 0.0
O184 O 0.0519 0.3244 0.6764 0.0
O185 O 0.05181 0.28596 0.67263 0.0
O186 O 1.00853 0.34562 0.68645 0.0
O187 O 0.99203 0.25071 0.72242 0.0
O188 O 0.99245 0.28925 0.72797 0.0
C189 C 0.06492 0.3118 0.67388 0.0
C190 C 0.97778 0.27106 0.61681 0.0
O191 O 0.98621 0.29339 0.63422 0.0
O192 O 0.98559 0.25487 0.62765 0.0
C193 C 1.02559 0.36966 0.67559 0.0
O194 O 0.04808 0.37448 0.65967 0.0
C195 C 0.98618 0.26579 0.74032 0.0
Zn196 Zn 0.72376 0.64585 0.67618 0.0
Zn197 Zn 0.73056 0.69529 0.67905 0.0
O198 O 0.68874 0.66788 0.68433 0.0
O199 O 0.68292 0.62702 0.67857 0.0
O200 O 0.73101 0.73116 0.67863 0.0
O201 O 0.74015 0.65286 0.62721 0.0
O202 O 0.74574 0.69391 0.62822 0.0
C203 C 0.67287 0.64202 0.68256 0.0
C204 C 0.76034 0.67859 0.73662 0.0
O205 O 0.7556 0.69681 0.72396 0.0
O206 O 0.74859 0.65519 0.72151 0.0
C207 C 0.75052 0.75475 0.6699 0.0
O208 O 0.77438 0.75795 0.66168 0.0
C209 C 0.74816 0.6756 0.61196 0.0
Zn210 Zn 0.43814 0.32765 0.64559 0.0
Zn211 Zn 0.38691 0.32274 0.64579 0.0
O212 O 0.41398 0.36396 0.64995 0.0
O213 O 0.45521 0.3689 0.64973 0.0
O214 O 0.34871 0.318 0.64369 0.0
O215 O 0.42771 0.30772 0.59606 0.0
O216 O 0.38711 0.30405 0.59778 0.0
C217 C 0.44018 0.37927 0.65161 0.0
C218 C 0.40503 0.29748 0.70764 0.0
O219 O 0.38769 0.30293 0.69263 0.0
O220 O 0.42782 0.30533 0.69286 0.0
C221 C 0.34101 0.33137 0.66256 0.0
O222 O 0.35868 0.35024 0.68604 0.0
C223 C 0.40387 0.29933 0.58169 0.0
Zn224 Zn 0.70547 0.10629 0.65013 0.0
Zn225 Zn 0.70679 0.0596 0.64418 0.0
O226 O 0.66503 0.04517 0.64816 0.0
O227 O 0.66401 0.08306 0.65143 0.0
O228 O 0.71055 0.02623 0.63856 0.0
O229 O 0.72343 0.11946 0.60159 0.0
O230 O 0.72452 0.08168 0.59702 0.0
C231 C 0.65143 0.05724 0.65029 0.0
C232 C 0.73842 0.10055 0.70829 0.0
O233 O 0.73062 0.07813 0.69142 0.0
O234 O 0.73018 0.11621 0.69659 0.0
C235 C 0.6942 1.00167 0.64825 0.0
O236 O 0.671 0.99528 0.66352 0.0
C237 C 0.72993 0.10473 0.58408 0.0
Zn238 Zn 0.99848 0.72755 0.65223 0.0
Zn239 Zn 0.98833 0.67655 0.65069 0.0
O240 O 0.03051 0.70056 0.64444 0.0
O241 O 0.03885 0.74244 0.64996 0.0
O242 O 0.98178 0.63809 0.6553 0.0
O243 O 0.98254 0.72338 0.70113 0.0
O244 O 0.97494 0.68156 0.70095 0.0
C245 C 0.0475 0.72624 0.64607 0.0
C246 C 0.96107 0.69522 0.59202 0.0
O247 O 0.96439 0.67625 0.60532 0.0
O248 O 0.97389 0.71877 0.6067 0.0
C249 C 0.99487 0.62922 0.63822 0.0
O250 O 1.01263 0.64487 0.61364 0.0
C251 C 0.97371 0.70068 0.71687 0.0
H252 H 0.25107 0.33772 0.09524 0.0
H253 H 0.1888 0.34513 0.03348 0.0
H254 H 0.19427 0.34911 0.15338 0.0
H255 H 0.15128 0.33204 0.15068 0.0
H256 H 0.10076 0.36128 0.10645 0.0
H257 H 0.16113 0.36173 0.03787 0.0
C258 C 0.23239 0.33861 0.09454 0.0
C259 C 0.22259 0.34138 0.12786 0.0
C260 C 0.22103 0.34108 0.06053 0.0
C261 C 0.19748 0.34358 0.05997 0.0
C262 C 0.18612 0.34498 0.0935 0.0
C263 C 0.20006 0.34516 0.12714 0.0
C264 C 0.16098 0.34775 0.09462 0.0
C265 C 0.14649 0.3414 0.12776 0.0
C266 C 0.126 0.34761 0.13265 0.0
C267 C 0.11755 0.35763 0.10302 0.0
C268 C 0.1294 0.36177 0.06855 0.0
C269 C 0.15146 0.35729 0.06429 0.0
H270 H 0.688 0.92407 0.08525 0.0
H271 H 0.65501 0.84359 0.03941 0.0
H272 H 0.70272 0.86678 0.14315 0.0
H273 H 0.66471 0.82367 0.15522 0.0
H274 H 0.66575 0.75332 0.11938 0.0
H275 H 0.67985 0.81607 0.04082 0.0
C276 C 0.68589 0.90412 0.08669 0.0
C277 C 0.69681 0.89753 0.11764 0.0
C278 C 0.67126 0.88506 0.05819 0.0
C279 C 0.66739 0.85871 0.06061 0.0
C280 C 0.67874 0.85181 0.0914 0.0
C281 C 0.69403 0.87175 0.1192 0.0
C282 C 0.67301 0.82347 0.09717 0.0
C283 C 0.66697 0.81244 0.13309 0.0
C284 C 0.66498 0.78757 0.14129 0.0
C285 C 0.66764 0.7728 0.11307 0.0
C286 C 0.67259 0.78261 0.0768 0.0
C287 C 0.67516 0.80801 0.06861 0.0
H288 H 0.274 0.94157 0.12913 0.0
H289 H 0.21161 0.88696 0.05015 0.0
H290 H 0.20347 0.86944 0.16742 0.0
H291 H 0.15887 0.85249 0.15238 0.0
H292 H 0.10676 0.78033 0.08816 0.0
H293 H 0.18571 0.84002 0.04799 0.0
C294 C 0.2537 0.92384 0.12328 0.0
C295 C 0.23913 0.90696 0.15239 0.0
C296 C 0.2443 0.91637 0.08647 0.0
C297 C 0.21874 0.89246 0.07874 0.0
C298 C 0.20292 0.87567 0.10792 0.0
C299 C 0.21394 0.88287 0.14465 0.0
C300 C 0.17564 0.85005 0.10065 0.0
C301 C 0.15532 0.84061 0.12748 0.0
C302 C 0.13093 0.81515 0.12359 0.0
C303 C 0.12563 0.80005 0.09111 0.0
C304 C 0.14496 0.80919 0.06337 0.0
C305 C 0.17022 0.83393 0.0685 0.0
H306 H 0.36082 0.11124 0.90629 0.0
H307 H 0.394 0.19144 0.95318 0.0
H308 H 0.34642 0.16905 0.84933 0.0
H309 H 0.38489 0.21207 0.83779 0.0
H310 H 0.38682 0.28367 0.8748 0.0
H311 H 0.36898 0.21913 0.95203 0.0
C312 C 0.36293 0.1312 0.90525 0.0
C313 C 0.35218 0.13808 0.87441 0.0
C314 C 0.37759 0.15004 0.93394 0.0
C315 C 0.38153 0.17643 0.9319 0.0
C316 C 0.37018 0.18356 0.90131 0.0
C317 C 0.35494 0.16385 0.87325 0.0
C318 C 0.37627 0.21203 0.89578 0.0
C319 C 0.38296 0.22339 0.86009 0.0
C320 C 0.3861 0.24881 0.85236 0.0
C321 C 0.38426 0.26387 0.8809 0.0
C322 C 0.37871 0.25374 0.917 0.0
C323 C 0.37428 0.2275 0.92447 0.0
H324 H 0.77406 0.09571 0.86739 0.0
H325 H 0.83995 0.15041 0.9425 0.0
H326 H 0.84226 0.1685 0.82557 0.0
H327 H 0.88801 0.18468 0.8379 0.0
H328 H 0.94304 0.25617 0.9019 0.0
H329 H 0.86413 0.19819 0.94398 0.0
C330 C 0.79436 0.11369 0.87204 0.0
C331 C 0.80737 0.13073 0.84227 0.0
C332 C 0.80567 0.12092 0.90823 0.0
C333 C 0.83127 0.14505 0.91446 0.0
C334 C 0.84535 0.16216 0.88461 0.0
C335 C 0.83272 0.15501 0.84866 0.0
C336 C 0.8728 0.18771 0.89064 0.0
C337 C 0.89245 0.19665 0.86297 0.0
C338 C 0.91745 0.22161 0.8666 0.0
C339 C 0.92371 0.23684 0.8992 0.0
C340 C 0.90485 0.22835 0.92745 0.0
C341 C 0.87918 0.20398 0.9229 0.0
H342 H 0.80186 0.69642 0.89942 0.0
H343 H 0.86309 0.68661 0.95959 0.0
H344 H 0.85884 0.68641 0.83956 0.0
H345 H 0.90119 0.70144 0.84199 0.0
H346 H 0.95169 0.67209 0.88562 0.0
H347 H 0.8917 0.67172 0.9548 0.0
C348 C 0.82046 0.69539 0.89967 0.0
C349 C 0.8305 0.69358 0.86603 0.0
C350 C 0.83142 0.69176 0.93326 0.0
C351 C 0.85483 0.68907 0.93331 0.0
C352 C 0.8665 0.68864 0.89957 0.0
C353 C 0.85293 0.68963 0.86615 0.0
C354 C 0.89149 0.68561 0.89804 0.0
C355 C 0.90589 0.69196 0.86481 0.0
C356 C 0.92638 0.68578 0.85975 0.0
C357 C 0.93487 0.67566 0.8892 0.0
C358 C 0.92316 0.67155 0.92376 0.0
C359 C 0.90114 0.67605 0.92823 0.0
H360 H 0.91937 0.67786 0.42884 0.0
H361 H 0.85891 0.6892 0.36932 0.0
H362 H 0.86444 0.69051 0.48935 0.0
H363 H 0.82266 0.67722 0.48819 0.0
H364 H 0.77187 0.70593 0.44383 0.0
H365 H 0.82998 0.7035 0.37385 0.0
C366 C 0.90114 0.67951 0.42878 0.0
C367 C 0.89166 0.682 0.46252 0.0
C368 C 0.89015 0.68324 0.39529 0.0
C369 C 0.8672 0.68668 0.39553 0.0
C370 C 0.85605 0.68778 0.42945 0.0
C371 C 0.86977 0.68674 0.46268 0.0
C372 C 0.83149 0.69152 0.43134 0.0
C373 C 0.81779 0.68631 0.46505 0.0
C374 C 0.79746 0.69273 0.47004 0.0
C375 C 0.78865 0.70229 0.44029 0.0
C376 C 0.79958 0.70521 0.40537 0.0
C377 C 0.82131 0.70027 0.40083 0.0
H378 H 0.35622 0.25707 0.41914 0.0
H379 H 0.3235 0.17713 0.37151 0.0
H380 H 0.37052 0.19914 0.47584 0.0
H381 H 0.33158 0.1561 0.48691 0.0
H382 H 0.3312 0.08505 0.4511 0.0
H383 H 0.34921 0.14936 0.37337 0.0
C384 C 0.35415 0.23712 0.42004 0.0
C385 C 0.36476 0.23013 0.45089 0.0
C386 C 0.33967 0.21844 0.39114 0.0
C387 C 0.33582 0.19204 0.39296 0.0
C388 C 0.34705 0.18479 0.42362 0.0
C389 C 0.3621 0.20441 0.45187 0.0
C390 C 0.34099 0.15629 0.42921 0.0
C391 C 0.33393 0.14488 0.46485 0.0
C392 C 0.3311 0.11963 0.47293 0.0
C393 C 0.33355 0.10472 0.44474 0.0
C394 C 0.33946 0.11484 0.40868 0.0
C395 C 0.34361 0.14096 0.40086 0.0
H396 H 0.93952 0.27968 0.46116 0.0
H397 H 0.87421 0.22517 0.38504 0.0
H398 H 0.87276 0.20491 0.50087 0.0
H399 H 0.82607 0.18769 0.48731 0.0
H400 H 0.77587 0.11498 0.42267 0.0
H401 H 0.85418 0.17687 0.38313 0.0
C402 C 0.91938 0.26159 0.45608 0.0
C403 C 0.90685 0.24368 0.48528 0.0
C404 C 0.90811 0.25487 0.41979 0.0
C405 C 0.88289 0.23038 0.4131 0.0
C406 C 0.86943 0.21237 0.44237 0.0
C407 C 0.88193 0.21909 0.47834 0.0
C408 C 0.84305 0.18599 0.43554 0.0
C409 C 0.82279 0.17588 0.4624 0.0
C410 C 0.79883 0.15009 0.45822 0.0
C411 C 0.79436 0.13497 0.4259 0.0
C412 C 0.81398 0.14466 0.39849 0.0
C413 C 0.83851 0.17002 0.40356 0.0
H414 H 0.03134 0.44597 0.24017 0.0
H415 H 0.06039 0.52406 0.29194 0.0
H416 H 1.0185 0.50489 0.18387 0.0
H417 H 0.05598 0.54765 0.17472 0.0
H418 H 0.05294 0.61681 0.21055 0.0
H419 H 0.03807 0.55343 0.28847 0.0
C420 C 0.03351 0.46597 0.2396 0.0
C421 C 1.02387 0.47364 0.20843 0.0
C422 C 0.04616 0.48368 0.26999 0.0
C423 C 0.04962 0.50996 0.26907 0.0
C424 C 0.04016 0.51818 0.23746 0.0
C425 C 0.02633 0.49925 0.20809 0.0
C426 C 0.04616 0.54677 0.2324 0.0
C427 C 0.05298 0.55838 0.1968 0.0
C428 C 0.05455 0.58306 0.18862 0.0
C429 C 0.05122 0.59739 0.21678 0.0
C430 C 0.0458 0.58724 0.25286 0.0
C431 C 0.04328 0.56181 0.26092 0.0
H432 H 0.44724 0.42769 0.20083 0.0
H433 H 0.51226 0.4835 0.27605 0.0
H434 H 0.51403 0.50161 0.15923 0.0
H435 H 0.56012 0.5195 0.17197 0.0
H436 H 0.61256 0.59164 0.23637 0.0
H437 H 0.53446 0.53097 0.27784 0.0
C438 C 0.46736 0.44591 0.20551 0.0
C439 C 0.47998 0.46318 0.17578 0.0
C440 C 0.4785 0.45342 0.24173 0.0
C441 C 0.50373 0.47791 0.24797 0.0
C442 C 0.51741 0.49529 0.21822 0.0
C443 C 0.50488 0.48791 0.18223 0.0
C444 C 0.54415 0.5215 0.22452 0.0
C445 C 0.56396 0.5313 0.19706 0.0
C446 C 0.58829 0.55681 0.20091 0.0
C447 C 0.59374 0.57187 0.23351 0.0
C448 C 0.57472 0.56247 0.26164 0.0
C449 C 0.54968 0.53749 0.25685 0.0
H450 H 0.47383 0.03817 0.23076 0.0
H451 H 0.52287 1.01088 0.28863 0.0
H452 H 0.54287 0.04415 0.17859 0.0
H453 H 0.54399 1.00654 0.17119 0.0
H454 H 0.60961 0.99597 0.2116 0.0
H455 H 0.56998 0.02106 0.28711 0.0
C456 C 0.49234 0.03699 0.23251 0.0
C457 C 0.50737 0.0418 0.20074 0.0
C458 C 0.49833 0.02675 0.26484 0.0
C459 C 0.51978 0.021 0.26502 0.0
C460 C 0.53573 0.02649 0.23355 0.0
C461 C 0.53049 0.03894 0.20279 0.0
C462 C 0.55492 1.01596 0.22964 0.0
C463 C 0.55731 1.00748 0.19422 0.0
C464 C 0.57783 1.0017 0.18709 0.0
C465 C 0.59339 1.00009 0.21683 0.0
C466 C 0.58993 1.00593 0.25312 0.0
C467 C 0.57132 1.01482 0.25949 0.0
H468 H 0.58307 1.00633 0.75617 0.0
H469 H 0.52101 1.01571 0.69727 0.0
H470 H 0.52835 0.0189 0.81717 0.0
H471 H 0.48625 1.00424 0.817 0.0
H472 H 0.43493 0.03293 0.77455 0.0
H473 H 0.49209 0.03034 0.70272 0.0
C474 C 0.56466 1.00768 0.75624 0.0
C475 C 0.55553 1.01051 0.79006 0.0
C476 C 0.55307 1.01069 0.72279 0.0
C477 C 0.52983 1.01372 0.72336 0.0
C478 C 0.51904 1.01509 0.7575 0.0
C479 C 0.5334 1.01483 0.79048 0.0
C480 C 0.49423 0.01837 0.76 0.0
C481 C 0.48097 1.01319 0.79409 0.0
C482 C 0.46083 0.01977 0.7999 0.0
C483 C 0.45153 0.02912 0.77042 0.0
C484 C 0.46198 0.03194 0.73515 0.0
C485 C 0.48366 0.02704 0.72988 0.0
H486 H 0.02649 0.59304 0.7506 0.0
H487 H 0.99766 0.5147 0.69988 0.0
H488 H 0.04048 0.53497 0.80731 0.0
H489 H 1.00317 0.49232 0.81732 0.0
H490 H 1.00294 0.42148 0.78119 0.0
H491 H 1.0201 0.48555 0.70341 0.0
C492 C 1.02463 0.57318 0.7513 0.0
C493 C 0.03459 0.56584 0.78249 0.0
C494 C 1.01185 0.55521 0.72121 0.0
C495 C 1.00865 0.52904 0.72243 0.0
C496 C 1.01853 0.52122 0.754 0.0
C497 C 0.03246 0.54038 0.78306 0.0
C498 C 1.01248 0.49267 0.75949 0.0
C499 C 1.00561 0.48123 0.79518 0.0
C500 C 1.00304 0.4561 0.80329 0.0
C501 C 1.00525 0.44115 0.77495 0.0
C502 C 1.01065 0.45115 0.73878 0.0
C503 C 1.01479 0.47726 0.731 0.0
H504 H 0.60448 0.61144 0.79478 0.0
H505 H 0.54016 0.5554 0.71893 0.0
H506 H 0.53744 0.53752 0.8359 0.0
H507 H 0.49151 0.51932 0.82257 0.0
H508 H 0.43983 0.4469 0.75837 0.0
H509 H 0.51794 0.50786 0.71726 0.0
C510 C 0.58439 0.59322 0.78993 0.0
C511 C 0.57157 0.57598 0.81961 0.0
C512 C 0.57358 0.58564 0.75358 0.0
C513 C 0.54843 0.56107 0.74711 0.0
C514 C 0.53451 0.54372 0.77678 0.0
C515 C 0.54674 0.55121 0.81293 0.0
C516 C 0.50787 0.51738 0.7703 0.0
C517 C 0.4879 0.5075 0.79757 0.0
C518 C 0.46374 0.48186 0.79373 0.0
C519 C 0.45853 0.46676 0.76124 0.0
C520 C 0.47768 0.47619 0.73326 0.0
C521 C 0.5026 0.50131 0.7381 0.0
H522 H 0.69732 0.78146 0.57555 0.0
H523 H 0.73123 0.86206 0.62157 0.0
H524 H 0.68354 0.83936 0.51778 0.0
H525 H 0.72249 0.88228 0.50581 0.0
H526 H 0.72237 0.95328 0.54077 0.0
H527 H 0.7053 0.88967 0.61928 0.0
C528 C 0.69966 0.80151 0.57428 0.0
C529 C 0.68899 0.80836 0.54335 0.0
C530 C 0.71451 0.82045 0.60278 0.0
C531 C 0.71868 0.84697 0.60042 0.0
C532 C 0.70741 0.85407 0.56963 0.0
C533 C 0.69201 0.83422 0.54182 0.0
C534 C 0.71346 0.88252 0.56358 0.0
C535 C 0.72021 0.89365 0.52772 0.0
C536 C 0.72272 0.91873 0.51927 0.0
C537 C 0.72029 0.93375 0.54735 0.0
C538 C 0.71461 0.92385 0.58356 0.0
C539 C 0.71078 0.89792 0.5917 0.0
H540 H 0.11481 0.75622 0.53118 0.0
H541 H 0.17914 0.81099 0.6082 0.0
H542 H 0.18186 0.83108 0.49215 0.0
H543 H 0.22815 0.84873 0.5064 0.0
H544 H 0.27818 0.92108 0.57156 0.0
H545 H 0.19967 0.85914 0.61058 0.0
C546 C 0.13488 0.77435 0.53648 0.0
C547 C 0.1477 0.7922 0.50732 0.0
C548 C 0.14569 0.78121 0.57298 0.0
C549 C 0.1708 0.80575 0.57999 0.0
C550 C 0.18457 0.82376 0.55088 0.0
C551 C 0.17248 0.8169 0.51464 0.0
C552 C 0.21092 0.85017 0.5581 0.0
C553 C 0.2313 0.86039 0.53143 0.0
C554 C 0.25523 0.88615 0.53586 0.0
C555 C 0.25969 0.90109 0.56829 0.0
C556 C 0.24004 0.89134 0.59562 0.0
C557 C 0.21541 0.86602 0.59026 0.0
H558 H 0.13275 0.36008 0.56561 0.0
H559 H 0.19438 0.35095 0.62615 0.0
H560 H 0.18753 0.34642 0.50627 0.0
H561 H 0.23004 0.36193 0.50762 0.0
H562 H 0.28133 0.33374 0.55197 0.0
H563 H 0.22252 0.33519 0.62173 0.0
C564 C 0.15106 0.35854 0.56594 0.0
C565 C 0.1603 0.35533 0.53241 0.0
C566 C 0.1625 0.35582 0.59973 0.0
C567 C 0.18562 0.35261 0.5998 0.0
C568 C 0.19645 0.35074 0.56602 0.0
C569 C 0.1823 0.35076 0.53267 0.0
C570 C 0.22126 0.34744 0.56435 0.0
C571 C 0.23507 0.35292 0.53072 0.0
C572 C 0.25556 0.34671 0.52573 0.0
C573 C 0.26446 0.33723 0.5555 0.0
C574 C 0.25336 0.33404 0.59036 0.0
C575 C 0.23143 0.3387 0.59487 0.0
C576 C 0.97964 0.43406 0.12402 0.0
C577 C 0.99476 0.42302 0.11027 0.0
H578 H 0.97703 0.45882 0.16587 0.0
C579 C 1.01906 0.42824 0.12958 0.0
H580 H 0.96087 0.43049 0.10973 0.0
C581 C 0.02816 0.44431 0.16172 0.0
C582 C 1.0133 0.45569 0.17513 0.0
H583 H 0.0312 0.42009 0.11975 0.0
H584 H 0.04722 0.44834 0.17567 0.0
C585 C 0.98893 0.45039 0.15602 0.0
C586 C 0.63123 0.56425 0.11921 0.0
C587 C 0.63993 0.59103 0.10772 0.0
H588 H 0.60815 0.53247 0.1578 0.0
C589 C 0.6326 0.60683 0.12821 0.0
H590 H 0.63654 0.5515 0.10407 0.0
C591 C 0.61631 0.59584 0.15896 0.0
C592 C 0.607 0.56882 0.16977 0.0
H593 H 0.63889 0.62747 0.12006 0.0
H594 H 0.61029 0.60822 0.17363 0.0
C595 C 0.61484 0.55323 0.14983 0.0
C596 C 0.46252 0.0506 0.12719 0.0
C597 C 0.45953 0.03153 0.10048 0.0
H598 H 0.4806 0.06938 0.18015 0.0
C599 C 0.47579 0.0196 0.10443 0.0
H600 H 0.45034 0.06022 0.12468 0.0
C601 C 0.49317 0.02499 0.1356 0.0
C602 C 0.49466 0.04234 0.16398 0.0
H603 H 0.47425 1.00511 0.08402 0.0
H604 H 0.50386 1.01388 0.13856 0.0
C605 C 0.47983 0.05582 0.15887 0.0
C606 C 0.43663 0.03523 0.88764 0.0
C607 C 0.42917 1.01168 0.90846 0.0
H608 H 0.45271 0.05629 0.83684 0.0
C609 C 0.4316 0.99063 0.8929 0.0
H610 H 0.43499 0.05178 0.89883 0.0
C611 C 0.44157 0.99315 0.85759 0.0
C612 C 0.44939 1.01679 0.83696 0.0
H613 H 0.42587 0.97209 0.90802 0.0
H614 H 0.44304 0.97651 0.84636 0.0
C615 C 0.44664 0.03774 0.85215 0.0
C616 C 1.01201 0.42518 0.89197 0.0
C617 C 0.99041 0.42255 0.91285 0.0
H618 H 0.03285 0.43792 0.84094 0.0
C619 C 0.9738 0.43239 0.89815 0.0
H620 H 1.02521 0.41787 0.90247 0.0
C621 C 0.97831 0.44402 0.86292 0.0
C622 C 0.99927 0.44569 0.84164 0.0
H623 H 0.95706 0.43078 0.91364 0.0
H624 H 0.96491 0.45094 0.85188 0.0
C625 C 1.0163 0.43651 0.85668 0.0
C626 C 0.60991 0.5712 0.90461 0.0
C627 C 0.62344 0.59808 0.91863 0.0
H628 H 0.58247 0.54303 0.86274 0.0
C629 C 0.61741 0.61685 0.90203 0.0
H630 H 0.61382 0.55611 0.91699 0.0
C631 C 0.59928 0.60923 0.87099 0.0
C632 C 0.58661 0.58264 0.85618 0.0
H633 H 0.62728 0.63763 0.91232 0.0
H634 H 0.59576 0.62436 0.85784 0.0
C635 C 0.59162 0.56354 0.87383 0.0
C636 C 0.03789 0.61031 0.86151 0.0
C637 C 0.06222 0.61589 0.88106 0.0
H638 H 1.0102 0.59014 0.81505 0.0
C639 C 0.07794 0.60553 0.86733 0.0
H640 H 1.0253 0.61796 0.87132 0.0
C641 C 0.06919 0.58946 0.83511 0.0
C642 C 0.04477 0.58376 0.81578 0.0
H643 H 0.09677 0.60941 0.88181 0.0
H644 H 0.08151 0.58148 0.8253 0.0
C645 C 0.02932 0.59451 0.82915 0.0
C646 C 0.41992 0.4315 0.8664 0.0
C647 C 0.41227 0.447 0.887 0.0
H648 H 0.4424 0.43054 0.82094 0.0
C649 C 0.42061 0.47372 0.87562 0.0
H650 H 0.41391 0.41091 0.87446 0.0
C651 C 0.43695 0.48496 0.84496 0.0
C652 C 0.44507 0.46965 0.82491 0.0
H653 H 0.41506 0.48623 0.89087 0.0
H654 H 0.44337 0.50568 0.83707 0.0
C655 C 0.43614 0.44271 0.83566 0.0
C656 C 0.5964 0.99703 0.86448 0.0
C657 C 0.60548 0.01965 0.88811 0.0
H658 H 0.57328 0.97633 0.81466 0.0
C659 C 0.59714 0.03849 0.87983 0.0
H660 H 0.60245 0.98216 0.87015 0.0
C661 C 0.5804 0.03502 0.84858 0.0
C662 C 0.57162 1.0127 0.82464 0.0
H663 H 0.60362 0.05611 0.89746 0.0
H664 H 0.5749 0.05027 0.84263 0.0
C665 C 0.57975 0.99369 0.83282 0.0
C666 C 0.60863 0.99048 0.10236 0.0
C667 C 0.61131 1.0118 0.07969 0.0
H668 H 0.59537 0.97006 0.15438 0.0
C669 C 0.6 0.02727 0.09078 0.0
H670 H 0.61699 0.97811 0.0943 0.0
C671 C 0.58775 0.02272 0.12468 0.0
C672 C 0.58635 1.0025 0.14854 0.0
H673 H 0.60136 0.04361 0.07374 0.0
H674 H 0.58076 0.03621 0.13297 0.0
C675 C 0.59634 0.98594 0.13669 0.0
C676 C 0.04443 0.61285 0.09958 0.0
C677 C 0.06641 0.61623 0.07888 0.0
H678 H 1.02354 0.59966 0.15052 0.0
C679 C 0.08376 0.60734 0.09387 0.0
H680 H 0.03067 0.61943 0.08887 0.0
C681 C 0.07956 0.59589 0.12919 0.0
C682 C 0.05817 0.59345 0.15027 0.0
H683 H 0.10082 0.60957 0.07853 0.0
H684 H 0.09349 0.58968 0.14044 0.0
C685 C 0.04044 0.60169 0.13496 0.0
C686 C 0.43469 0.42215 0.09325 0.0
C687 C 0.42803 0.44053 0.07685 0.0
H688 H 0.45682 0.41513 0.13726 0.0
C689 C 0.44082 0.46728 0.0912 0.0
H690 H 0.42538 0.40148 0.08272 0.0
C691 C 0.45912 0.47518 0.12203 0.0
C692 C 0.46482 0.45643 0.13934 0.0
H693 H 0.43638 0.48206 0.07898 0.0
H694 H 0.4678 0.49556 0.13336 0.0
C695 C 0.45278 0.42998 0.12432 0.0
C696 C 0.68266 0.76112 0.46633 0.0
C697 C 0.65805 0.75543 0.44754 0.0
H698 H 0.71164 0.78233 0.51113 0.0
C699 C 0.64308 0.76669 0.46114 0.0
H700 H 0.69471 0.75283 0.45659 0.0
C701 C 0.6529 0.78378 0.49244 0.0
C702 C 0.67763 0.78956 0.51096 0.0
H703 H 0.62409 0.76279 0.44716 0.0
H704 H 0.64121 0.79247 0.50216 0.0
C705 C 0.69229 0.77791 0.49771 0.0
C706 C 0.2993 0.93679 0.46365 0.0
C707 C 0.30725 0.92142 0.44332 0.0
H708 H 0.27638 0.93749 0.50871 0.0
C709 C 0.29938 0.89489 0.4551 0.0
H710 H 0.30496 0.95722 0.45527 0.0
C711 C 0.28299 0.88359 0.48567 0.0
C712 C 0.27435 0.89866 0.50524 0.0
H713 H 0.30522 0.8825 0.44012 0.0
H714 H 0.27682 0.86297 0.49375 0.0
C715 C 0.28301 0.92551 0.49432 0.0
C716 C 0.11882 0.32709 0.44251 0.0
C717 C 0.11057 0.34596 0.43393 0.0
H718 H 0.14096 0.31537 0.48004 0.0
C719 C 0.12 0.36888 0.45708 0.0
H720 H 0.11209 0.30926 0.42518 0.0
C721 C 0.13667 0.37234 0.48879 0.0
C722 C 0.14452 0.35317 0.49747 0.0
H723 H 0.11401 0.38376 0.45119 0.0
H724 H 0.14326 0.38985 0.5067 0.0
C725 C 0.13563 0.33069 0.47378 0.0
C726 C 0.09389 0.31706 0.22377 0.0
C727 C 0.09136 0.33808 0.23919 0.0
H728 H 0.10652 0.30348 0.17784 0.0
C729 C 0.1 0.36214 0.21908 0.0
H730 H 0.08736 0.29819 0.23848 0.0
C731 C 0.11102 0.36511 0.18427 0.0
C732 C 0.11368 0.34412 0.16908 0.0
H733 H 0.09831 0.37868 0.23021 0.0
H734 H 0.11787 0.38399 0.16945 0.0
C735 C 0.10497 0.32006 0.1891 0.0
C736 C 0.6748 0.75762 0.23019 0.0
C737 C 0.65283 0.75436 0.25083 0.0
H738 H 0.69576 0.77076 0.17931 0.0
C739 C 0.63567 0.76347 0.23592 0.0
H740 H 0.68842 0.75087 0.24087 0.0
C741 C 0.64003 0.77503 0.20066 0.0
C742 C 0.66138 0.77732 0.17963 0.0
H743 H 0.61864 0.76134 0.25124 0.0
H744 H 0.62623 0.7814 0.1894 0.0
C745 C 0.67893 0.76887 0.19489 0.0
C746 C 0.28274 0.94663 0.23653 0.0
C747 C 0.28771 0.92733 0.25378 0.0
H748 H 0.26293 0.95507 0.1909 0.0
C749 C 0.27383 0.90045 0.23982 0.0
H750 H 0.29294 0.96744 0.24679 0.0
C751 C 0.2564 0.89333 0.20822 0.0
C752 C 0.25268 0.913 0.18981 0.0
H753 H 0.27696 0.88501 0.25274 0.0
H754 H 0.24706 0.87282 0.19705 0.0
C755 C 0.26549 0.93955 0.20469 0.0
C756 C 0.74362 0.93956 0.1992 0.0
C757 C 0.72906 0.95121 0.21297 0.0
H758 H 0.74482 0.91333 0.15829 0.0
C759 C 0.70439 0.94568 0.19444 0.0
H760 H 0.76265 0.94332 0.21292 0.0
C761 C 0.69435 0.92868 0.16319 0.0
C762 C 0.70859 0.91662 0.14982 0.0
H763 H 0.69263 0.95425 0.20429 0.0
H764 H 0.67498 0.92442 0.15001 0.0
C765 C 0.73338 0.92228 0.16808 0.0
C766 C 0.08715 0.76493 0.19662 0.0
C767 C 0.08004 0.78069 0.21762 0.0
H768 H 0.10899 0.76362 0.15058 0.0
C769 C 0.08859 0.80747 0.20626 0.0
H770 H 0.08097 0.7443 0.20464 0.0
C771 C 0.10463 0.81854 0.17531 0.0
C772 C 0.11228 0.80301 0.15488 0.0
H773 H 0.08343 0.8202 0.22175 0.0
H774 H 0.11122 0.83932 0.16752 0.0
C775 C 0.10309 0.77598 0.16556 0.0
C776 C 0.26471 0.33031 0.20316 0.0
C777 C 0.27325 0.35313 0.22619 0.0
H778 H 0.24176 0.30861 0.15377 0.0
C779 C 0.26358 0.3709 0.21777 0.0
H780 H 0.27176 0.31624 0.20897 0.0
C781 C 0.24636 0.36643 0.18665 0.0
C782 C 0.23843 0.34414 0.16298 0.0
H783 H 0.26958 0.3886 0.23502 0.0
H784 H 0.24005 0.38103 0.18041 0.0
C785 C 0.24759 0.32597 0.17164 0.0
C786 C 0.28855 0.37887 0.43583 0.0
C787 C 0.29192 0.35847 0.42002 0.0
H788 H 0.27477 0.39123 0.48169 0.0
C789 C 0.28342 0.33414 0.43943 0.0
H790 H 0.29495 0.39793 0.42174 0.0
C791 C 0.2717 0.33034 0.47395 0.0
C792 C 0.26821 0.35073 0.48945 0.0
H793 H 0.28575 0.31808 0.42797 0.0
H794 H 0.26503 0.31132 0.48833 0.0
C795 C 0.27683 0.37503 0.47012 0.0
C796 C 0.75216 0.9428 0.42451 0.0
C797 C 0.73528 0.9523 0.40968 0.0
H798 H 0.76125 0.92444 0.47088 0.0
C799 C 0.71337 0.94914 0.43035 0.0
H800 H 0.76914 0.94482 0.40919 0.0
C801 C 0.70906 0.9377 0.46557 0.0
C802 C 0.72638 0.92893 0.4808 0.0
H803 H 0.69993 0.95615 0.41977 0.0
H804 H 0.69229 0.93595 0.48115 0.0
C805 C 0.74763 0.93105 0.45969 0.0
C806 C 0.10226 0.75297 0.42365 0.0
C807 C 0.09669 0.77221 0.40759 0.0
H808 H 0.12325 0.74441 0.46761 0.0
C809 C 0.11028 0.79884 0.42252 0.0
H810 H 0.09232 0.73237 0.41269 0.0
C811 C 0.1282 0.80579 0.45361 0.0
C812 C 0.1328 0.78623 0.47067 0.0
H813 H 0.1067 0.81426 0.41061 0.0
H814 H 0.13742 0.82611 0.46535 0.0
C815 C 0.12004 0.75988 0.45499 0.0
C816 C 0.34632 0.09121 0.79705 0.0
C817 C 0.32169 0.08541 0.77818 0.0
H818 H 0.37517 0.11241 0.84198 0.0
C819 C 0.30661 0.09655 0.79176 0.0
H820 H 0.35848 0.08303 0.78732 0.0
C821 C 0.3163 0.11358 0.82315 0.0
C822 C 0.34102 0.11944 0.84179 0.0
H823 H 0.28761 0.09258 0.77773 0.0
H824 H 0.30449 0.12214 0.83287 0.0
C825 C 0.35582 0.10794 0.82851 0.0
C826 C 0.96339 0.27129 0.79469 0.0
C827 C 0.9702 0.25509 0.77415 0.0
H828 H 0.94114 0.27322 0.83973 0.0
C829 C 0.96019 0.22791 0.78495 0.0
H830 H 0.97064 0.29222 0.78704 0.0
C831 C 0.94322 0.217 0.81512 0.0
C832 C 0.93614 0.23311 0.83529 0.0
H833 H 0.96499 0.21483 0.76967 0.0
H834 H 0.93563 0.19598 0.82268 0.0
C835 C 0.94657 0.26041 0.82495 0.0
C836 C 0.7897 0.66633 0.77548 0.0
C837 C 0.77991 0.68418 0.76849 0.0
H838 H 0.81331 0.65542 0.81141 0.0
C839 C 0.78849 0.70646 0.79258 0.0
H840 H 0.7837 0.64905 0.75736 0.0
C841 C 0.80567 0.71012 0.8238 0.0
C842 C 0.81487 0.69181 0.83108 0.0
H843 H 0.78135 0.72059 0.78789 0.0
H844 H 0.81146 0.72702 0.84256 0.0
C845 C 0.80698 0.67013 0.80627 0.0
C846 C 0.76943 0.70496 0.55645 0.0
C847 C 0.76056 0.6804 0.57543 0.0
H848 H 0.78829 0.72815 0.50796 0.0
C849 C 0.76372 0.65997 0.55928 0.0
H850 H 0.76727 0.72105 0.56818 0.0
C851 C 0.77563 0.66402 0.52511 0.0
C852 C 0.78466 0.68856 0.50623 0.0
H853 H 0.75702 0.64073 0.57303 0.0
H854 H 0.77754 0.6478 0.51328 0.0
C855 C 0.78134 0.70897 0.52203 0.0
C856 C 0.33971 0.08863 0.56157 0.0
C857 C 0.31744 0.08507 0.58178 0.0
H858 H 0.3614 0.10246 0.5113 0.0
C859 C 0.30053 0.09446 0.56676 0.0
H860 H 0.35317 0.08171 0.57233 0.0
C861 C 0.30542 0.10656 0.5318 0.0
C862 C 0.32705 0.10911 0.51117 0.0
H863 H 0.28329 0.09213 0.58176 0.0
H864 H 0.29181 0.11312 0.52041 0.0
C865 C 0.34437 0.10041 0.52658 0.0
C866 C 0.95219 0.28262 0.56888 0.0
C867 C 0.95823 0.26356 0.58447 0.0
H868 H 0.93074 0.29104 0.52548 0.0
C869 C 0.94523 0.23714 0.569 0.0
H870 H 0.96168 0.30307 0.58028 0.0
C871 C 0.92723 0.23018 0.53797 0.0
C872 C 0.92206 0.24956 0.5216 0.0
H873 H 0.94921 0.22188 0.58055 0.0
H874 H 0.91833 0.21001 0.52583 0.0
C875 C 0.93439 0.27572 0.53765 0.0
C876 C 0.41008 0.27176 0.53364 0.0
C877 C 0.39486 0.28278 0.54716 0.0
H878 H 0.41243 0.24627 0.4926 0.0
C879 C 0.37015 0.27676 0.52832 0.0
H880 H 0.42914 0.2759 0.54766 0.0
C881 C 0.36075 0.25997 0.4969 0.0
C882 C 0.37572 0.24865 0.48364 0.0
H883 H 0.35788 0.28481 0.538 0.0
H884 H 0.34137 0.25536 0.4834 0.0
C885 C 0.40048 0.25469 0.5023 0.0
C886 C 0.75421 0.14213 0.53825 0.0
C887 C 0.74561 0.11543 0.55001 0.0
H888 H 0.77767 0.17398 0.4999 0.0
C889 C 0.75358 0.09985 0.5302 0.0
H890 H 0.74842 0.15472 0.55286 0.0
C891 C 0.77035 0.11096 0.49989 0.0
C892 C 0.77955 0.1379 0.48882 0.0
H893 H 0.74739 0.07928 0.53856 0.0
H894 H 0.77683 0.09873 0.48582 0.0
C895 C 0.77109 0.15327 0.50806 0.0
C896 C 0.93232 0.66762 0.53627 0.0
C897 C 0.94187 0.69028 0.55995 0.0
H898 H 0.90876 0.64716 0.48657 0.0
C899 C 0.93336 0.70908 0.55245 0.0
H900 H 0.9385 0.65279 0.54136 0.0
C901 C 0.91627 0.70574 0.52161 0.0
C902 C 0.90735 0.68358 0.49729 0.0
H903 H 0.94015 0.7267 0.57024 0.0
H904 H 0.91084 0.72108 0.51611 0.0
C905 C 0.91537 0.66442 0.50499 0.0
C906 C 0.95295 0.67233 0.77308 0.0
C907 C 0.96185 0.6967 0.75363 0.0
H908 H 0.93459 0.64979 0.82209 0.0
C909 C 0.95927 0.71755 0.76956 0.0
H910 H 0.95467 0.65592 0.76154 0.0
C911 C 0.94788 0.71406 0.80407 0.0
C912 C 0.93889 0.6897 0.82342 0.0
H913 H 0.96599 0.73663 0.75535 0.0
H914 H 0.9463 0.73051 0.81575 0.0
C915 C 0.94161 0.66889 0.80775 0.0
C916 C 0.41587 0.27346 0.75807 0.0
C917 C 0.3991 0.28313 0.74345 0.0
H918 H 0.42469 0.25468 0.80415 0.0
C919 C 0.37721 0.28001 0.76413 0.0
H920 H 0.43282 0.27545 0.7427 0.0
C921 C 0.37279 0.26838 0.79921 0.0
C922 C 0.38996 0.25936 0.81418 0.0
H923 H 0.36389 0.28718 0.75368 0.0
H924 H 0.35606 0.26664 0.81485 0.0
C925 C 0.41121 0.26149 0.79309 0.0
C926 C 0.77054 0.13553 0.7554 0.0
C927 C 0.75758 0.10872 0.74122 0.0
H928 H 0.79692 0.16362 0.79814 0.0
C929 C 0.76312 0.08992 0.75884 0.0
H930 H 0.76694 0.1506 0.74229 0.0
C931 C 0.78034 0.09745 0.79079 0.0
C932 C 0.79263 0.12402 0.80551 0.0
H933 H 0.75363 0.06918 0.74852 0.0
H934 H 0.78359 0.08233 0.80451 0.0
C935 C 0.788 0.14313 0.78711 0.0
C936 C 0.09299 0.3944 0.02587 0.0
C937 C 0.07222 0.37248 0.00463 0.0
H938 H 0.12906 0.40878 0.06149 0.0
C939 C 0.07564 0.35044 -0.0035 0.0
H940 H 0.09124 0.4119 0.03215 0.0
C941 C 0.09752 0.34878 0.01322 0.0
C942 C 0.1164 0.36926 0.03796 0.0
H943 H 0.06013 0.33331 0.97996 0.0
H944 H 0.09787 0.33016 0.01004 0.0
C945 C 0.11497 0.39287 0.04216 0.0
C946 C 0.69507 0.73694 0.0392 0.0
C947 C 0.67202 0.71911 0.01656 0.0
H948 H 0.71379 0.77209 0.0749 0.0
C949 C 0.65198 0.72612 0.00781 0.0
H950 H 0.71107 0.73241 0.04611 0.0
C951 C 0.65371 0.74908 0.02422 0.0
C952 C 0.67565 0.76554 0.04922 0.0
H953 H 0.63403 0.7129 -0.00972 0.0
H954 H 0.63681 0.75267 0.01976 0.0
C955 C 0.69688 0.75992 0.05527 0.0
C956 C 0.30542 0.97425 0.04312 0.0
C957 C 0.31763 0.96026 0.02946 0.0
H958 H 0.27121 0.97078 0.07131 0.0
C959 C 0.30168 0.93168 0.02583 0.0
H960 H 0.31703 0.99628 0.04578 0.0
C961 C 0.27526 0.91718 0.03966 0.0
C962 C 0.26453 0.93102 0.05771 0.0
H963 H 0.31033 0.92036 0.01466 0.0
H964 H 0.26459 0.89509 0.03994 0.0
C965 C 0.27906 0.9597 0.05729 0.0
C966 C 0.42829 0.13341 0.97619 0.0
C967 C 0.41033 0.10914 -0.00536 0.0
H968 H 0.43184 0.16639 0.94292 0.0
C969 C 0.38339 0.10308 0.0007 0.0
H970 H 0.44922 0.13877 0.97125 0.0
C971 C 0.37368 0.11915 -0.01497 0.0
C972 C 0.3907 0.1416 0.96305 0.0
H973 H 0.36912 0.08477 0.01526 0.0
H974 H 0.35206 0.11246 -0.013 0.0
C975 C 0.41849 0.14947 0.96037 0.0
C976 C 0.94875 0.28486 -0.00505 0.0
C977 C 0.93315 0.29748 -0.00308 0.0
H978 H 0.95131 0.25194 0.97218 0.0
C979 C 0.90542 0.2831 -0.01619 0.0
H980 H 0.97 0.29514 0.00532 0.0
C981 C 0.89473 0.2583 0.96475 0.0
C982 C 0.91158 0.24752 0.95876 0.0
H983 H 0.89271 0.2921 -0.01475 0.0
H984 H 0.87433 0.2491 0.95154 0.0
C985 C 0.93801 0.26004 0.97615 0.0
C986 C 0.77599 0.64537 -0.00521 0.0
C987 C 0.76206 0.65968 -0.00215 0.0
H988 H 0.81041 0.64525 0.97286 0.0
C989 C 0.77612 0.68767 -0.0102 0.0
H990 H 0.76601 0.62394 0.00163 0.0
C991 C 0.80188 0.7 0.97387 0.0
C992 C 0.81381 0.68446 0.96562 0.0
H993 H 0.76622 0.69942 -0.00747 0.0
H994 H 0.81087 0.72072 0.96396 0.0
C995 C 0.80174 0.65772 0.97892 0.0
C996 C 0.96091 0.64022 0.96622 0.0
C997 C 0.98141 0.66236 -0.01258 0.0
H998 H 0.92469 0.62513 0.93072 0.0
C999 C 0.97734 0.68398 -0.00431 0.0
H1000 H 0.96316 0.62304 0.95985 0.0
C1001 C 0.95509 0.68505 0.97909 0.0
C1002 C 0.9365 0.66442 0.95431 0.0
H1003 H 0.99262 0.70126 0.01222 0.0
H1004 H 0.95424 0.7034 -0.01766 0.0
C1005 C 0.93857 0.64116 0.95005 0.0
C1006 C 0.39391 0.31793 0.96482 0.0
C1007 C 0.36752 0.31113 0.97527 0.0
H1008 H 0.41836 0.30438 0.9396 0.0
C1009 C 0.34613 0.28356 0.97358 0.0
H1010 H 0.41095 0.33886 0.96633 0.0
C1011 C 0.35047 0.2637 0.95829 0.0
C1012 C 0.37632 0.2711 0.9449 0.0
H1013 H 0.32559 0.27763 0.98165 0.0
H1014 H 0.33312 0.24313 0.95411 0.0
C1015 C 0.39828 0.29812 0.94998 0.0
C1016 C 0.75422 0.10342 0.98023 0.0
C1017 C 0.73762 0.07504 0.97454 0.0
H1018 H 0.78999 0.14051 0.96402 0.0
C1019 C 0.74829 0.06155 0.95532 0.0
H1020 H 0.74681 0.11436 -0.00446 0.0
C1021 C 0.77318 0.0766 0.93752 0.0
C1022 C 0.78774 0.10527 0.93885 0.0
H1023 H 0.73622 0.03967 0.9509 0.0
H1024 H 0.77954 0.06602 0.91951 0.0
C1025 C 0.77917 0.11843 0.96256 0.0
C1026 C 0.66619 0.93092 -0.01139 0.0
C1027 C 0.63974 0.92607 -0.00475 0.0
H1028 H 0.69679 0.92062 0.00293 0.0
C1029 C 0.62158 0.90263 0.01508 0.0
H1030 H 0.68061 0.94857 0.97309 0.0
C1031 C 0.63085 0.88638 0.03173 0.0
C1032 C 0.6583 0.89326 0.02859 0.0
H1033 H 0.601 0.89816 0.02049 0.0
H1034 H 0.61746 0.87024 0.05015 0.0
C1035 C 0.67541 0.91471 0.00527 0.0
C1036 C 0.1034 0.75243 -0.00467 0.0
C1037 C 0.11982 0.74066 -0.00591 0.0
H1038 H 0.09918 0.78451 0.01751 0.0
C1039 C 0.14736 0.75576 0.00784 0.0
H1040 H 0.08227 0.74158 -0.01557 0.0
C1041 C 0.15702 0.78039 0.02687 0.0
C1042 C 0.13931 0.79027 0.03216 0.0
H1043 H 0.16067 0.7474 0.00697 0.0
H1044 H 0.17727 0.79012 0.04061 0.0
C1045 C 0.11312 0.77709 0.01409 0.0
C1046 C 0.27688 0.34489 0.00538 0.0
C1047 C 0.28992 0.37243 -0.00485 0.0
H1048 H 0.24301 0.31227 0.03317 0.0
C1049 C 0.27498 0.38586 -0.00385 0.0
H1050 H 0.28758 0.33378 0.00428 0.0
C1051 C 0.24935 0.37342 0.01233 0.0
C1052 C 0.23836 0.34745 0.02796 0.0
H1053 H 0.28414 0.40689 -0.01246 0.0
H1054 H 0.23997 0.38549 0.01679 0.0
C1055 C 0.25119 0.33243 0.02155 0.0
C1056 C 0.74393 0.68902 0.33408 0.0
C1057 C 0.7391 0.71031 0.34116 0.0
H1058 H 0.76834 0.67118 0.34855 0.0
C1059 C 0.75944 0.73337 0.36108 0.0
H1060 H 0.72877 0.67107 0.31854 0.0
C1061 C 0.78244 0.73371 0.3773 0.0
C1062 C 0.78531 0.71083 0.37441 0.0
H1063 H 0.7566 0.75032 0.36645 0.0
H1064 H 0.79626 0.75049 0.39569 0.0
C1065 C 0.76684 0.68924 0.35075 0.0
C1066 C 0.3253 0.0506 0.36213 0.0
C1067 C 0.35197 0.05726 0.35327 0.0
H1068 H 0.30024 0.06433 0.38502 0.0
C1069 C 0.37339 0.08481 0.35541 0.0
H1070 H 0.30824 0.02969 0.36023 0.0
C1071 C 0.36871 0.10478 0.36958 0.0
C1072 C 0.34248 0.09752 0.38133 0.0
H1073 H 0.39415 0.09066 0.34855 0.0
H1074 H 0.38603 0.12531 0.37422 0.0
C1075 C 0.3206 0.07051 0.37579 0.0
C1076 C 0.95757 0.2707 0.34579 0.0
C1077 C 0.97641 0.29844 0.3536 0.0
H1078 H 0.92006 0.23494 0.36032 0.0
C1079 C 0.968 0.31312 0.37462 0.0
H1080 H 0.96326 0.25901 0.32888 0.0
C1081 C 0.94294 0.29929 0.39234 0.0
C1082 C 0.92618 0.2707 0.38928 0.0
H1083 H 0.98191 0.33462 0.3806 0.0
H1084 H 0.93819 0.31044 0.41173 0.0
C1085 C 0.93258 0.25692 0.36344 0.0
C1086 C 0.08085 0.44969 0.3142 0.0
C1087 C 0.06127 0.43309 0.34002 0.0
H1088 H 0.09199 0.48024 0.27251 0.0
C1089 C 0.041 0.43909 0.3491 0.0
H1090 H 0.0969 0.44586 0.30683 0.0
C1091 C 0.03839 0.45902 0.32952 0.0
C1092 C 0.05619 0.4735 0.30097 0.0
H1093 H 1.02568 0.42683 0.369 0.0
H1094 H 1.02078 0.46111 0.3341 0.0
C1095 C 0.07834 0.46972 0.29492 0.0
C1096 C 0.57228 0.61487 0.31983 0.0
C1097 C 0.59986 0.6299 0.33343 0.0
H1098 H 0.54236 0.58094 0.28635 0.0
C1099 C 0.61647 0.61841 0.33088 0.0
H1100 H 0.55883 0.62301 0.32165 0.0
C1101 C 0.60686 0.59418 0.31108 0.0
C1102 C 0.58055 0.58108 0.29333 0.0
H1103 H 0.63764 0.62921 0.34158 0.0
H1104 H 0.62089 0.587 0.30676 0.0
C1105 C 0.56271 0.59063 0.29981 0.0
C1106 C 0.43948 0.97679 0.32122 0.0
C1107 C 0.42624 0.99148 0.32724 0.0
H1108 H 0.47325 0.97673 0.29709 0.0
C1109 C 0.4406 0.01967 0.32075 0.0
H1110 H 0.42923 0.95512 0.32661 0.0
C1111 C 0.46622 0.03218 0.30445 0.0
C1112 C 0.47778 1.01667 0.29412 0.0
H1113 H 0.43121 0.03166 0.32566 0.0
H1114 H 0.47586 0.05347 0.29689 0.0
C1115 C 0.46499 0.98926 0.30475 0.0
C1116 C 0.63267 0.98161 0.30168 0.0
C1117 C 0.65546 1.00637 0.31455 0.0
H1118 H 0.59307 0.96196 0.27342 0.0
C1119 C 0.65329 0.02982 0.31476 0.0
H1120 H 0.63349 0.96312 0.30165 0.0
C1121 C 0.62998 0.0291 0.29858 0.0
C1122 C 0.60845 1.00488 0.28237 0.0
H1123 H 0.67046 0.04919 0.3247 0.0
H1124 H 0.62994 0.04795 0.29569 0.0
C1125 C 0.60936 0.98086 0.28593 0.0
C1126 C 0.06588 0.64389 0.32117 0.0
C1127 C 0.0462 0.65118 0.31135 0.0
H1128 H 0.08079 0.61692 0.31067 0.0
C1129 C 1.02327 0.6333 0.28857 0.0
H1130 H 0.08371 0.65713 0.33886 0.0
C1131 C 1.0213 0.61 0.27335 0.0
C1132 C 0.04231 0.60414 0.28029 0.0
H1133 H 1.00753 0.63805 0.28088 0.0
H1134 H 1.00456 0.59782 0.2535 0.0
C1135 C 0.06404 0.62064 0.30553 0.0
C1136 C 0.41943 0.39546 0.28807 0.0
C1137 C 0.40937 0.40991 0.30626 0.0
H1138 H 0.45076 0.39842 0.25371 0.0
C1139 C 0.42683 0.43816 0.31209 0.0
H1140 H 0.40664 0.37362 0.28369 0.0
C1141 C 0.45219 0.45226 0.29533 0.0
C1142 C 0.46026 0.43829 0.27229 0.0
H1143 H 0.41988 0.44975 0.32681 0.0
H1144 H 0.46373 0.47435 0.29673 0.0
C1145 C 0.44478 0.40961 0.27114 0.0
C1146 C 0.29077 0.23808 0.35132 0.0
C1147 C 0.30918 0.26188 0.33231 0.0
H1148 H 0.28605 0.2045 0.38424 0.0
C1149 C 0.33531 0.26627 0.32469 0.0
H1150 H 0.27043 0.23395 0.35745 0.0
C1151 C 0.34399 0.2491 0.3395 0.0
C1152 C 0.32673 0.22718 0.36213 0.0
H1153 H 0.3499 0.28417 0.30972 0.0
H1154 H 0.36521 0.25464 0.33651 0.0
C1155 C 0.29954 0.22092 0.36622 0.0
C1156 C 0.77468 0.08936 0.32764 0.0
C1157 C 0.79106 0.07749 0.32716 0.0
H1158 H 0.76968 0.12086 0.35024 0.0
C1159 C 0.81804 0.09205 0.34295 0.0
H1160 H 0.75399 0.07894 0.31523 0.0
C1161 C 0.82706 0.11622 0.36293 0.0
C1162 C 0.80924 0.12612 0.3672 0.0
H1163 H 0.83126 0.08355 0.34285 0.0
H1164 H 0.8468 0.12558 0.378 0.0
C1165 C 0.7837 0.11345 0.34751 0.0
C1166 C 0.94521 0.7281 0.33217 0.0
C1167 C 0.95863 0.71329 0.32916 0.0
H1168 H 0.9115 0.7293 0.3546 0.0
C1169 C 0.94424 0.68542 0.33791 0.0
H1170 H 0.95544 0.74945 0.32481 0.0
C1171 C 0.91873 0.67375 0.35444 0.0
C1172 C 0.90738 0.68983 0.3626 0.0
H1173 H 0.95375 0.67329 0.33527 0.0
H1174 H 0.90953 0.65313 0.36484 0.0
C1175 C 0.91972 0.71641 0.34865 0.0
C1176 C 0.40619 1.01705 0.66447 0.0
C1177 C 0.40187 0.0386 0.67202 0.0
H1178 H 0.43002 0.99846 0.67824 0.0
C1179 C 0.42245 0.06132 0.69225 0.0
H1180 H 0.39084 0.99935 0.64869 0.0
C1181 C 0.44521 0.06108 0.70823 0.0
C1182 C 0.44762 0.03797 0.70475 0.0
H1183 H 0.41999 0.07846 0.698 0.0
H1184 H 0.45925 0.07763 0.72679 0.0
C1185 C 0.42888 1.01669 0.6809 0.0
C1186 C 0.04286 0.41957 0.68553 0.0
C1187 C 1.02085 0.39229 0.68351 0.0
H1188 H 0.0567 0.46036 0.70426 0.0
C1189 C 0.99441 0.38646 0.69208 0.0
H1190 H 0.06347 0.42474 0.6789 0.0
C1191 C 0.99049 0.40693 0.70552 0.0
C1192 C 1.01295 0.43362 0.71113 0.0
H1193 H 0.97693 0.36577 0.69024 0.0
H1194 H 0.97028 0.40138 0.71468 0.0
C1195 C 0.03897 0.44007 0.69952 0.0
C1196 C 0.62567 0.60078 0.68379 0.0
C1197 C 0.64324 0.62901 0.68973 0.0
H1198 H 0.58858 0.56467 0.69882 0.0
C1199 C 0.63322 0.64352 0.70784 0.0
H1200 H 0.63257 0.58913 0.66912 0.0
C1201 C 0.60776 0.62945 0.72451 0.0
C1202 C 0.59212 0.60076 0.72324 0.0
H1203 H 0.64609 0.66535 0.7123 0.0
H1204 H 0.60177 0.64069 0.74182 0.0
C1205 C 0.60022 0.58676 0.70033 0.0
C1206 C 0.71861 0.77296 0.67021 0.0
C1207 C 0.74452 0.77686 0.66238 0.0
H1208 H 0.68905 0.78502 0.65827 0.0
C1209 C 0.76297 0.80031 0.64279 0.0
H1210 H 0.70399 0.75533 0.68559 0.0
C1211 C 0.75443 0.81758 0.6276 0.0
C1212 C 0.72742 0.81177 0.63194 0.0
H1213 H 0.78316 0.80409 0.63648 0.0
H1214 H 0.76792 0.83369 0.6092 0.0
C1215 C 0.71015 0.79023 0.65509 0.0
C1216 C 0.27991 0.94783 0.6646 0.0
C1217 C 0.26341 0.95957 0.66482 0.0
H1218 H 0.28473 0.9159 0.64326 0.0
C1219 C 0.23618 0.9445 0.6499 0.0
H1220 H 0.3008 0.95866 0.67635 0.0
C1221 C 0.22699 0.91991 0.6309 0.0
C1222 C 0.24483 0.91003 0.6268 0.0
H1223 H 0.22283 0.95285 0.64988 0.0
H1224 H 0.20705 0.91019 0.6163 0.0
C1225 C 0.27066 0.92324 0.64586 0.0
C1226 C 0.10848 0.35436 0.65661 0.0
C1227 C 0.09488 0.32688 0.66728 0.0
H1228 H 0.14233 0.38607 0.62767 0.0
C1229 C 0.109 0.31265 0.66577 0.0
H1230 H 0.09843 0.36607 0.65803 0.0
C1231 C 0.13427 0.32423 0.64871 0.0
C1232 C 0.1457 0.35013 0.63273 0.0
H1233 H 0.09939 0.29163 0.67463 0.0
H1234 H 0.14294 0.31156 0.64394 0.0
C1235 C 0.1338 0.36594 0.63955 0.0
C1236 C 0.29321 0.30537 0.63395 0.0
C1237 C 0.3137 0.32832 0.65388 0.0
H1238 H 0.25628 0.28851 0.5996 0.0
C1239 C 0.30906 0.34968 0.66127 0.0
H1240 H 0.29591 0.28836 0.62833 0.0
C1241 C 0.28616 0.34966 0.64487 0.0
C1242 C 0.26751 0.32816 0.62121 0.0
H1243 H 0.32434 0.36756 0.67683 0.0
H1244 H 0.28481 0.36778 0.64728 0.0
C1245 C 0.27022 0.3052 0.61803 0.0
C1246 C 0.67973 0.95244 0.6378 0.0
C1247 C 0.70055 0.98023 0.63948 0.0
H1248 H 0.66809 0.91219 0.61916 0.0
C1249 C 0.7273 0.9877 0.62982 0.0
H1250 H 0.65893 0.94599 0.64528 0.0
C1251 C 0.73259 0.96829 0.61578 0.0
C1252 C 0.71123 0.94101 0.61075 0.0
H1253 H 0.74393 1.00882 0.63134 0.0
H1254 H 0.75294 0.97504 0.606 0.0
C1255 C 0.68501 0.93298 0.62334 0.0
C1256 C 0.09569 0.76566 0.64619 0.0
C1257 C 0.07688 0.73789 0.63852 0.0
H1258 H 0.13329 0.80133 0.63177 0.0
C1259 C 0.08535 0.72313 0.6178 0.0
H1260 H 0.08996 0.77741 0.6629 0.0
C1261 C 0.1105 0.73688 0.60027 0.0
C1262 C 0.12727 0.76547 0.60323 0.0
H1263 H 0.07147 0.70161 0.61195 0.0
H1264 H 0.11533 0.72565 0.58116 0.0
C1265 C 0.12076 0.77935 0.62874 0.0
C1266 C 0.975 0.58721 0.67746 0.0
C1267 C 0.99414 0.60411 0.65135 0.0
H1268 H 0.96511 0.557 0.71937 0.0
C1269 C 1.01493 0.59893 0.64203 0.0
H1270 H 0.95858 0.59041 0.68504 0.0
C1271 C 1.01848 0.57957 0.66161 0.0
C1272 C 1.00109 0.56482 0.69041 0.0
H1273 H 0.02994 0.61144 0.62192 0.0
H1274 H 0.03644 0.57813 0.6568 0.0
C1275 C 0.97845 0.56774 0.69676 0.0
C1276 C 0.48032 0.42342 0.67609 0.0
C1277 C 0.45283 0.40841 0.6621 0.0
H1278 H 0.51009 0.45743 0.70961 0.0
C1279 C 0.43626 0.41999 0.66417 0.0
H1280 H 0.49373 0.4152 0.67469 0.0
C1281 C 0.44582 0.44432 0.68373 0.0
C1282 C 0.47204 0.45746 0.70176 0.0
H1283 H 0.41515 0.40921 0.65321 0.0
H1284 H 0.43179 0.45157 0.68763 0.0
C1285 C 0.48983 0.44776 0.69588 0.0
C1286 C 0.60795 1.01394 0.66603 0.0
C1287 C 0.62136 0.04161 0.65633 0.0
H1288 H 0.5739 0.98136 0.69361 0.0
C1289 C 0.60682 0.05541 0.6581 0.0
H1290 H 0.61831 1.00254 0.66434 0.0
C1291 C 0.58129 0.04319 0.67459 0.0
C1292 C 0.56999 1.01703 0.68973 0.0
H1293 H 0.61625 0.07656 0.64993 0.0
H1294 H 0.5723 0.05552 0.67971 0.0
C1295 C 0.58233 1.00169 0.68243 0.0
loop_
_geom_bond_atom_site_label_1
_geom_bond_atom_site_label_2
_geom_bond_distance
_geom_bond_site_symmetry_2
_ccdc_geom_bond_type
Zn0 O3 2.031 1_554 S
Zn0 O5 2.049 . S
Zn0 O10 2.067 1_554 S
Zn1 O2 1.962 1_455 S
Zn1 O4 1.986 . S
Zn1 O6 1.996 1_455 S
Zn1 O9 1.943 1_554 S
O2 Zn1 1.962 1_655 S
O2 C7 1.254 1_554 S
O3 Zn0 2.031 1_556 S
O3 C7 1.269 . S
O4 Zn1 1.986 . S
O4 C11 1.262 . S
O5 Zn0 2.049 . S
O5 C13 1.260 . S
O6 Zn1 1.996 1_655 S
O6 C13 1.257 . S
C7 O2 1.254 1_556 S
C7 O3 1.269 . S
C8 O9 1.249 . S
C8 O10 1.270 1_455 S
O9 Zn1 1.943 1_556 S
O9 C8 1.249 . S
O10 Zn0 2.067 1_556 S
O10 C8 1.270 1_655 S
C11 O4 1.262 . S
C11 O12 1.232 . S
O12 C11 1.232 . S
C13 O5 1.260 . S
C13 O6 1.257 . S
Zn14 O17 2.031 1_554 S
Zn14 O19 2.049 . S
Zn14 O24 2.067 1_554 S
Zn15 O16 1.962 . S
Zn15 O18 1.986 . S
Zn15 O20 1.996 . S
Zn15 O23 1.943 1_554 S
O16 Zn15 1.962 . S
O16 C21 1.254 1_554 S
O17 Zn14 2.031 1_556 S
O17 C21 1.269 . S
O18 Zn15 1.986 . S
O18 C25 1.262 . S
O19 Zn14 2.049 . S
O19 C27 1.260 . S
O20 Zn15 1.996 . S
O20 C27 1.257 . S
C21 O16 1.254 1_556 S
C21 O17 1.269 . S
C22 O23 1.249 . S
C22 O24 1.270 . S
O23 Zn15 1.943 1_556 S
O23 C22 1.249 . S
O24 Zn14 2.067 1_556 S
O24 C22 1.270 . S
C25 O18 1.262 . S
C25 O26 1.232 . S
O26 C25 1.232 . S
C27 O19 1.260 . S
C27 O20 1.257 . S
Zn28 O31 2.031 . S
Zn28 O33 2.049 1_554 S
Zn28 O38 2.067 . S
Zn29 O30 1.962 1_545 S
Zn29 O32 1.986 1_554 S
Zn29 O34 1.996 1_544 S
Zn29 O37 1.943 . S
O30 Zn29 1.962 1_565 S
O30 C35 1.254 . S
O31 Zn28 2.031 . S
O31 C35 1.269 . S
O32 Zn29 1.986 1_556 S
O32 C39 1.262 . S
O33 Zn28 2.049 1_556 S
O33 C41 1.260 . S
O34 Zn29 1.996 1_566 S
O34 C41 1.257 . S
C35 O30 1.254 . S
C35 O31 1.269 . S
C36 O37 1.249 . S
C36 O38 1.270 1_545 S
O37 Zn29 1.943 . S
O37 C36 1.249 . S
O38 Zn28 2.067 . S
O38 C36 1.270 1_565 S
C39 O32 1.262 . S
C39 O40 1.232 1_556 S
O40 C39 1.232 1_554 S
C41 O33 1.260 . S
C41 O34 1.257 . S
Zn42 O45 2.031 . S
Zn42 O47 2.049 1_554 S
Zn42 O52 2.067 . S
Zn43 O44 1.962 1_655 S
Zn43 O46 1.986 1_554 S
Zn43 O48 1.996 1_654 S
Zn43 O51 1.943 . S
O44 Zn43 1.962 1_455 S
O44 C49 1.254 . S
O45 Zn42 2.031 . S
O45 C49 1.269 . S
O46 Zn43 1.986 1_556 S
O46 C53 1.262 . S
O47 Zn42 2.049 1_556 S
O47 C55 1.260 . S
O48 Zn43 1.996 1_456 S
O48 C55 1.257 . S
C49 O44 1.254 . S
C49 O45 1.269 . S
C50 O51 1.249 . S
C50 O52 1.270 1_655 S
O51 Zn43 1.943 . S
O51 C50 1.249 . S
O52 Zn42 2.067 . S
O52 C50 1.270 1_455 S
C53 O46 1.262 . S
C53 O54 1.232 1_556 S
O54 C53 1.232 1_554 S
C55 O47 1.260 . S
C55 O48 1.257 . S
Zn56 O59 2.031 . S
Zn56 O61 2.049 1_554 S
Zn56 O66 2.067 . S
Zn57 O58 1.962 . S
Zn57 O60 1.986 1_554 S
Zn57 O62 1.996 1_554 S
Zn57 O65 1.943 . S
O58 Zn57 1.962 . S
O58 C63 1.254 . S
O59 Zn56 2.031 . S
O59 C63 1.269 . S
O60 Zn57 1.986 1_556 S
O60 C67 1.262 . S
O61 Zn56 2.049 1_556 S
O61 C69 1.260 . S
O62 Zn57 1.996 1_556 S
O62 C69 1.257 . S
C63 O58 1.254 . S
C63 O59 1.269 . S
C64 O65 1.249 . S
C64 O66 1.270 . S
O65 Zn57 1.943 . S
O65 C64 1.249 . S
O66 Zn56 2.067 . S
O66 C64 1.270 . S
C67 O60 1.262 . S
C67 O68 1.232 1_556 S
O68 C67 1.232 1_554 S
C69 O61 1.260 . S
C69 O62 1.257 . S
Zn70 O73 2.031 1_554 S
Zn70 O75 2.049 . S
Zn70 O80 2.067 1_554 S
Zn71 O72 1.962 1_565 S
Zn71 O74 1.986 . S
Zn71 O76 1.996 1_565 S
Zn71 O79 1.943 1_554 S
O72 Zn71 1.962 1_545 S
O72 C77 1.254 1_554 S
O73 Zn70 2.031 1_556 S
O73 C77 1.269 . S
O74 Zn71 1.986 . S
O74 C81 1.262 . S
O75 Zn70 2.049 . S
O75 C83 1.260 . S
O76 Zn71 1.996 1_545 S
O76 C83 1.257 . S
C77 O72 1.254 1_556 S
C77 O73 1.269 . S
C78 O79 1.249 . S
C78 O80 1.270 1_565 S
O79 Zn71 1.943 1_556 S
O79 C78 1.249 . S
O80 Zn70 2.067 1_556 S
O80 C78 1.270 1_545 S
C81 O74 1.262 . S
C81 O82 1.232 . S
O82 C81 1.232 . S
C83 O75 1.260 . S
C83 O76 1.257 . S
Zn84 O87 2.031 . S
Zn84 O89 2.049 . S
Zn84 O94 2.067 . S
Zn85 O86 1.962 . S
Zn85 O88 1.986 . S
Zn85 O90 1.996 . S
Zn85 O93 1.943 . S
O86 Zn85 1.962 . S
O86 C91 1.254 . S
O87 Zn84 2.031 . S
O87 C91 1.269 . S
O88 Zn85 1.986 . S
O88 C95 1.262 . S
O89 Zn84 2.049 . S
O89 C97 1.260 . S
O90 Zn85 1.996 . S
O90 C97 1.257 . S
C91 O86 1.254 . S
C91 O87 1.269 . S
C92 O93 1.249 . S
C92 O94 1.270 . S
O93 Zn85 1.943 . S
O93 C92 1.249 . S
O94 Zn84 2.067 . S
O94 C92 1.270 . S
C95 O88 1.262 . S
C95 O96 1.232 . S
O96 C95 1.232 . S
C97 O89 1.260 . S
C97 O90 1.257 . S
Zn98 O101 2.031 . S
Zn98 O103 2.049 . S
Zn98 O108 2.067 . S
Zn99 O100 1.962 . S
Zn99 O102 1.986 1_565 S
Zn99 O104 1.996 . S
Zn99 O107 1.943 . S
O100 Zn99 1.962 . S
O100 C105 1.254 . S
O101 Zn98 2.031 . S
O101 C105 1.269 . S
O102 Zn99 1.986 1_545 S
O102 C109 1.262 . S
O103 Zn98 2.049 . S
O103 C111 1.260 . S
O104 Zn99 1.996 . S
O104 C111 1.257 . S
C105 O100 1.254 . S
C105 O101 1.269 . S
C106 O107 1.249 . S
C106 O108 1.270 . S
O107 Zn99 1.943 . S
O107 C106 1.249 . S
O108 Zn98 2.067 . S
O108 C106 1.270 . S
C109 O102 1.262 . S
C109 O110 1.232 . S
O110 C109 1.232 . S
C111 O103 1.260 . S
C111 O104 1.257 . S
Zn112 O115 2.031 1_455 S
Zn112 O117 2.049 . S
Zn112 O122 2.067 . S
Zn113 O114 1.962 1_455 S
Zn113 O116 1.986 . S
Zn113 O118 1.996 . S
Zn113 O121 1.943 . S
O114 Zn113 1.962 1_655 S
O114 C119 1.254 . S
O115 Zn112 2.031 1_655 S
O115 C119 1.269 . S
O116 Zn113 1.986 . S
O116 C123 1.262 . S
O117 Zn112 2.049 . S
O117 C125 1.260 . S
O118 Zn113 1.996 . S
O118 C125 1.257 . S
C119 O114 1.254 . S
C119 O115 1.269 . S
C120 O121 1.249 . S
C120 O122 1.270 . S
O121 Zn113 1.943 . S
O121 C120 1.249 . S
O122 Zn112 2.067 . S
O122 C120 1.270 . S
C123 O116 1.262 . S
C123 O124 1.232 . S
O124 C123 1.232 . S
C125 O117 1.260 . S
C125 O118 1.257 . S
Zn126 O129 2.031 1_565 S
Zn126 O131 2.049 . S
Zn126 O136 2.067 . S
Zn127 O128 1.962 1_565 S
Zn127 O130 1.986 . S
Zn127 O132 1.996 . S
Zn127 O135 1.943 . S
O128 Zn127 1.962 1_545 S
O128 C133 1.254 . S
O129 Zn126 2.031 1_545 S
O129 C133 1.269 . S
O130 Zn127 1.986 . S
O130 C137 1.262 . S
O131 Zn126 2.049 . S
O131 C139 1.260 . S
O132 Zn127 1.996 . S
O132 C139 1.257 . S
C133 O128 1.254 . S
C133 O129 1.269 . S
C134 O135 1.249 . S
C134 O136 1.270 . S
O135 Zn127 1.943 . S
O135 C134 1.249 . S
O136 Zn126 2.067 . S
O136 C134 1.270 . S
C137 O130 1.262 . S
C137 O138 1.232 . S
O138 C137 1.232 . S
C139 O131 1.260 . S
C139 O132 1.257 . S
Zn140 O143 2.031 1_455 S
Zn140 O145 2.049 . S
Zn140 O150 2.067 . S
Zn141 O142 1.962 1_455 S
Zn141 O144 1.986 . S
Zn141 O146 1.996 . S
Zn141 O149 1.943 . S
O142 Zn141 1.962 1_655 S
O142 C147 1.254 . S
O143 Zn140 2.031 1_655 S
O143 C147 1.269 . S
O144 Zn141 1.986 . S
O144 C151 1.262 . S
O145 Zn140 2.049 . S
O145 C153 1.260 . S
O146 Zn141 1.996 . S
O146 C153 1.257 . S
C147 O142 1.254 . S
C147 O143 1.269 . S
C148 O149 1.249 . S
C148 O150 1.270 . S
O149 Zn141 1.943 . S
O149 C148 1.249 . S
O150 Zn140 2.067 . S
O150 C148 1.270 . S
C151 O144 1.262 . S
C151 O152 1.251 . S
O152 C151 1.251 . S
C153 O145 1.260 . S
C153 O146 1.257 . S
Zn154 O157 2.031 . S
Zn154 O159 2.049 . S
Zn154 O164 2.067 . S
Zn155 O156 1.962 . S
Zn155 O158 1.986 . S
Zn155 O160 1.996 . S
Zn155 O163 1.943 . S
O156 Zn155 1.962 . S
O156 C161 1.254 . S
O157 Zn154 2.031 . S
O157 C161 1.269 . S
O158 Zn155 1.986 . S
O158 C165 1.262 . S
O159 Zn154 2.049 . S
O159 C167 1.260 . S
O160 Zn155 1.996 . S
O160 C167 1.257 . S
C161 O156 1.254 . S
C161 O157 1.269 . S
C162 O163 1.249 . S
C162 O164 1.270 . S
O163 Zn155 1.943 . S
O163 C162 1.249 . S
O164 Zn154 2.067 . S
O164 C162 1.270 . S
C165 O158 1.262 . S
C165 O166 1.232 . S
O166 C165 1.232 . S
C167 O159 1.260 . S
C167 O160 1.257 . S
Zn168 O171 2.031 1_545 S
Zn168 O173 2.049 . S
Zn168 O178 2.067 . S
Zn169 O170 1.962 1_545 S
Zn169 O172 1.986 . S
Zn169 O174 1.996 . S
Zn169 O177 1.943 . S
O170 Zn169 1.962 1_565 S
O170 C175 1.254 . S
O171 Zn168 2.031 1_565 S
O171 C175 1.269 . S
O172 Zn169 1.986 . S
O172 C179 1.262 . S
O173 Zn168 2.049 . S
O173 C181 1.260 . S
O174 Zn169 1.996 . S
O174 C181 1.257 . S
C175 O170 1.254 . S
C175 O171 1.269 . S
C176 O177 1.249 . S
C176 O178 1.270 . S
O177 Zn169 1.943 . S
O177 C176 1.249 . S
O178 Zn168 2.067 . S
O178 C176 1.270 . S
C179 O172 1.262 . S
C179 O180 1.232 . S
O180 C179 1.232 . S
C181 O173 1.260 . S
C181 O174 1.257 . S
Zn182 O185 2.031 1_655 S
Zn182 O187 2.049 . S
Zn182 O192 2.067 . S
Zn183 O184 1.962 1_655 S
Zn183 O186 1.986 . S
Zn183 O188 1.996 . S
Zn183 O191 1.943 . S
O184 Zn183 1.962 1_455 S
O184 C189 1.254 . S
O185 Zn182 2.031 1_455 S
O185 C189 1.269 . S
O186 Zn183 1.986 . S
O186 C193 1.262 . S
O187 Zn182 2.049 . S
O187 C195 1.260 . S
O188 Zn183 1.996 . S
O188 C195 1.257 . S
C189 O184 1.254 . S
C189 O185 1.269 . S
C190 O191 1.249 . S
C190 O192 1.270 . S
O191 Zn183 1.943 . S
O191 C190 1.249 . S
O192 Zn182 2.067 . S
O192 C190 1.270 . S
C193 O186 1.262 . S
C193 O194 1.235 . S
O194 C193 1.235 . S
C195 O187 1.260 . S
C195 O188 1.257 . S
Zn196 O199 2.031 . S
Zn196 O201 2.049 . S
Zn196 O206 2.067 . S
Zn197 O198 1.962 . S
Zn197 O200 1.986 . S
Zn197 O202 1.996 . S
Zn197 O205 1.943 . S
O198 Zn197 1.962 . S
O198 C203 1.254 . S
O199 Zn196 2.031 . S
O199 C203 1.269 . S
O200 Zn197 1.986 . S
O200 C207 1.262 . S
O201 Zn196 2.049 . S
O201 C209 1.260 . S
O202 Zn197 1.996 . S
O202 C209 1.257 . S
C203 O198 1.254 . S
C203 O199 1.269 . S
C204 O205 1.249 . S
C204 O206 1.270 . S
O205 Zn197 1.943 . S
O205 C204 1.249 . S
O206 Zn196 2.067 . S
O206 C204 1.270 . S
C207 O200 1.262 . S
C207 O208 1.232 . S
O208 C207 1.232 . S
C209 O201 1.260 . S
C209 O202 1.257 . S
Zn210 O213 2.031 . S
Zn210 O215 2.049 . S
Zn210 O220 2.067 . S
Zn211 O212 1.962 . S
Zn211 O214 1.986 . S
Zn211 O216 1.996 . S
Zn211 O219 1.943 . S
O212 Zn211 1.962 . S
O212 C217 1.254 . S
O213 Zn210 2.031 . S
O213 C217 1.269 . S
O214 Zn211 1.986 . S
O214 C221 1.262 . S
O215 Zn210 2.049 . S
O215 C223 1.260 . S
O216 Zn211 1.996 . S
O216 C223 1.257 . S
C217 O212 1.254 . S
C217 O213 1.269 . S
C218 O219 1.249 . S
C218 O220 1.270 . S
O219 Zn211 1.943 . S
O219 C218 1.249 . S
O220 Zn210 2.067 . S
O220 C218 1.270 . S
C221 O214 1.262 . S
C221 O222 1.232 . S
O222 C221 1.232 . S
C223 O215 1.260 . S
C223 O216 1.257 . S
Zn224 O227 2.031 . S
Zn224 O229 2.049 . S
Zn224 O234 2.067 . S
Zn225 O226 1.962 . S
Zn225 O228 1.986 1_545 S
Zn225 O230 1.996 . S
Zn225 O233 1.943 . S
O226 Zn225 1.962 . S
O226 C231 1.254 . S
O227 Zn224 2.031 . S
O227 C231 1.269 . S
O228 Zn225 1.986 1_565 S
O228 C235 1.262 . S
O229 Zn224 2.049 . S
O229 C237 1.260 . S
O230 Zn225 1.996 . S
O230 C237 1.257 . S
C231 O226 1.254 . S
C231 O227 1.269 . S
C232 O233 1.249 . S
C232 O234 1.270 . S
O233 Zn225 1.943 . S
O233 C232 1.249 . S
O234 Zn224 2.067 . S
O234 C232 1.270 . S
C235 O228 1.262 . S
C235 O236 1.232 . S
O236 C235 1.232 . S
C237 O229 1.260 . S
C237 O230 1.257 . S
Zn238 O241 2.031 1_655 S
Zn238 O243 2.049 . S
Zn238 O248 2.067 . S
Zn239 O240 1.962 1_655 S
Zn239 O242 1.986 . S
Zn239 O244 1.996 . S
Zn239 O247 1.943 . S
O240 Zn239 1.962 1_455 S
O240 C245 1.254 . S
O241 Zn238 2.031 1_455 S
O241 C245 1.269 . S
O242 Zn239 1.986 . S
O242 C249 1.262 . S
O243 Zn238 2.049 . S
O243 C251 1.260 . S
O244 Zn239 1.996 . S
O244 C251 1.257 . S
C245 O240 1.254 . S
C245 O241 1.269 . S
C246 O247 1.249 . S
C246 O248 1.270 . S
O247 Zn239 1.943 . S
O247 C246 1.249 . S
O248 Zn238 2.067 . S
O248 C246 1.270 . S
C249 O242 1.262 . S
C249 O250 1.232 . S
O250 C249 1.232 . S
C251 O243 1.260 . S
C251 O244 1.257 . S
H252 C258 0.930 . S
H253 C261 0.931 . S
H254 C263 0.931 . S
H255 C265 0.930 . S
H256 C267 0.930 . S
H257 C269 0.931 . S
C258 H252 0.930 . S
C258 C259 1.380 . S
C258 C260 1.394 . S
C259 C258 1.380 . S
C259 C263 1.382 . S
C260 C258 1.394 . S
C260 C261 1.400 . S
C261 H253 0.931 . S
C261 C260 1.400 . S
C261 C262 1.375 . S
C262 C261 1.375 . S
C262 C263 1.415 . S
C262 C264 1.501 . S
C263 H254 0.931 . S
C263 C259 1.382 . S
C263 C262 1.415 . S
C264 C262 1.501 . S
C264 C265 1.384 . S
C264 C269 1.408 . S
C265 H255 0.930 . S
C265 C264 1.384 . S
C265 C266 1.389 . S
C266 C265 1.389 . S
C266 C267 1.405 . S
C267 H256 0.930 . S
C267 C266 1.405 . S
C267 C268 1.364 . S
C268 C267 1.364 . S
C268 C269 1.400 . S
C269 H257 0.931 . S
C269 C264 1.408 . S
C269 C268 1.400 . S
H270 C276 0.930 . S
H271 C279 0.931 . S
H272 C281 0.931 . S
H273 C283 0.930 . S
H274 C285 0.930 . S
H275 C287 0.931 . S
C276 H270 0.930 . S
C276 C277 1.380 . S
C276 C278 1.394 . S
C277 C276 1.380 . S
C277 C281 1.382 . S
C278 C276 1.394 . S
C278 C279 1.400 . S
C279 H271 0.931 . S
C279 C278 1.400 . S
C279 C280 1.375 . S
C280 C279 1.375 . S
C280 C281 1.415 . S
C280 C282 1.501 . S
C281 H272 0.931 . S
C281 C277 1.382 . S
C281 C280 1.415 . S
C282 C280 1.501 . S
C282 C283 1.384 . S
C282 C287 1.408 . S
C283 H273 0.930 . S
C283 C282 1.384 . S
C283 C284 1.389 . S
C284 C283 1.389 . S
C284 C285 1.405 . S
C285 H274 0.930 . S
C285 C284 1.405 . S
C285 C286 1.364 . S
C286 C285 1.364 . S
C286 C287 1.400 . S
C287 H275 0.931 . S
C287 C282 1.408 . S
C287 C286 1.400 . S
H288 C294 0.930 . S
H289 C297 0.931 . S
H290 C299 0.931 . S
H291 C301 0.930 . S
H292 C303 0.930 . S
H293 C305 0.931 . S
C294 H288 0.930 . S
C294 C295 1.380 . S
C294 C296 1.394 . S
C295 C294 1.380 . S
C295 C299 1.382 . S
C296 C294 1.394 . S
C296 C297 1.400 . S
C297 H289 0.931 . S
C297 C296 1.400 . S
C297 C298 1.375 . S
C298 C297 1.375 . S
C298 C299 1.415 . S
C298 C300 1.501 . S
C299 H290 0.931 . S
C299 C295 1.382 . S
C299 C298 1.415 . S
C300 C298 1.501 . S
C300 C301 1.384 . S
C300 C305 1.408 . S
C301 H291 0.930 . S
C301 C300 1.384 . S
C301 C302 1.389 . S
C302 C301 1.389 . S
C302 C303 1.405 . S
C303 H292 0.930 . S
C303 C302 1.405 . S
C303 C304 1.364 . S
C304 C303 1.364 . S
C304 C305 1.400 . S
C305 H293 0.931 . S
C305 C300 1.408 . S
C305 C304 1.400 . S
H306 C312 0.930 . S
H307 C315 0.931 . S
H308 C317 0.931 . S
H309 C319 0.930 . S
H310 C321 0.930 . S
H311 C323 0.931 . S
C312 H306 0.930 . S
C312 C313 1.380 . S
C312 C314 1.394 . S
C313 C312 1.380 . S
C313 C317 1.382 . S
C314 C312 1.394 . S
C314 C315 1.400 . S
C315 H307 0.931 . S
C315 C314 1.400 . S
C315 C316 1.375 . S
C316 C315 1.375 . S
C316 C317 1.415 . S
C316 C318 1.501 . S
C317 H308 0.931 . S
C317 C313 1.382 . S
C317 C316 1.415 . S
C318 C316 1.501 . S
C318 C319 1.384 . S
C318 C323 1.408 . S
C319 H309 0.930 . S
C319 C318 1.384 . S
C319 C320 1.389 . S
C320 C319 1.389 . S
C320 C321 1.405 . S
C321 H310 0.930 . S
C321 C320 1.405 . S
C321 C322 1.364 . S
C322 C321 1.364 . S
C322 C323 1.400 . S
C323 H311 0.931 . S
C323 C318 1.408 . S
C323 C322 1.400 . S
H324 C330 0.930 . S
H325 C333 0.931 . S
H326 C335 0.931 . S
H327 C337 0.930 . S
H328 C339 0.930 . S
H329 C341 0.931 . S
C330 H324 0.930 . S
C330 C331 1.380 . S
C330 C332 1.394 . S
C331 C330 1.380 . S
C331 C335 1.382 . S
C332 C330 1.394 . S
C332 C333 1.400 . S
C333 H325 0.931 . S
C333 C332 1.400 . S
C333 C334 1.375 . S
C334 C333 1.375 . S
C334 C335 1.415 . S
C334 C336 1.501 . S
C335 H326 0.931 . S
C335 C331 1.382 . S
C335 C334 1.415 . S
C336 C334 1.501 . S
C336 C337 1.384 . S
C336 C341 1.408 . S
C337 H327 0.930 . S
C337 C336 1.384 . S
C337 C338 1.389 . S
C338 C337 1.389 . S
C338 C339 1.405 . S
C339 H328 0.930 . S
C339 C338 1.405 . S
C339 C340 1.364 . S
C340 C339 1.364 . S
C340 C341 1.400 . S
C341 H329 0.931 . S
C341 C336 1.408 . S
C341 C340 1.400 . S
H342 C348 0.930 . S
H343 C351 0.931 . S
H344 C353 0.931 . S
H345 C355 0.930 . S
H346 C357 0.930 . S
H347 C359 0.931 . S
C348 H342 0.930 . S
C348 C349 1.380 . S
C348 C350 1.394 . S
C349 C348 1.380 . S
C349 C353 1.382 . S
C350 C348 1.394 . S
C350 C351 1.400 . S
C351 H343 0.931 . S
C351 C350 1.400 . S
C351 C352 1.375 . S
C352 C351 1.375 . S
C352 C353 1.415 . S
C352 C354 1.501 . S
C353 H344 0.931 . S
C353 C349 1.382 . S
C353 C352 1.415 . S
C354 C352 1.501 . S
C354 C355 1.384 . S
C354 C359 1.408 . S
C355 H345 0.930 . S
C355 C354 1.384 . S
C355 C356 1.389 . S
C356 C355 1.389 . S
C356 C357 1.405 . S
C357 H346 0.930 . S
C357 C356 1.405 . S
C357 C358 1.364 . S
C358 C357 1.364 . S
C358 C359 1.400 . S
C359 H347 0.931 . S
C359 C354 1.408 . S
C359 C358 1.400 . S
H360 C366 0.930 . S
H361 C369 0.931 . S
H362 C371 0.931 . S
H363 C373 0.930 . S
H364 C375 0.930 . S
H365 C377 0.931 . S
C366 H360 0.930 . S
C366 C367 1.380 . S
C366 C368 1.394 . S
C367 C366 1.380 . S
C367 C371 1.382 . S
C368 C366 1.394 . S
C368 C369 1.400 . S
C369 H361 0.931 . S
C369 C368 1.400 . S
C369 C370 1.375 . S
C370 C369 1.375 . S
C370 C371 1.415 . S
C370 C372 1.501 . S
C371 H362 0.931 . S
C371 C367 1.382 . S
C371 C370 1.415 . S
C372 C370 1.501 . S
C372 C373 1.384 . S
C372 C377 1.408 . S
C373 H363 0.930 . S
C373 C372 1.384 . S
C373 C374 1.389 . S
C374 C373 1.389 . S
C374 C375 1.405 . S
C375 H364 0.930 . S
C375 C374 1.405 . S
C375 C376 1.364 . S
C376 C375 1.364 . S
C376 C377 1.400 . S
C377 H365 0.931 . S
C377 C372 1.408 . S
C377 C376 1.400 . S
H378 C384 0.930 . S
H379 C387 0.931 . S
H380 C389 0.931 . S
H381 C391 0.930 . S
H382 C393 0.930 . S
H383 C395 0.931 . S
C384 H378 0.930 . S
C384 C385 1.380 . S
C384 C386 1.394 . S
C385 C384 1.380 . S
C385 C389 1.382 . S
C386 C384 1.394 . S
C386 C387 1.400 . S
C387 H379 0.931 . S
C387 C386 1.400 . S
C387 C388 1.375 . S
C388 C387 1.375 . S
C388 C389 1.415 . S
C388 C390 1.501 . S
C389 H380 0.931 . S
C389 C385 1.382 . S
C389 C388 1.415 . S
C390 C388 1.501 . S
C390 C391 1.384 . S
C390 C395 1.408 . S
C391 H381 0.930 . S
C391 C390 1.384 . S
C391 C392 1.389 . S
C392 C391 1.389 . S
C392 C393 1.405 . S
C393 H382 0.930 . S
C393 C392 1.405 . S
C393 C394 1.364 . S
C394 C393 1.364 . S
C394 C395 1.400 . S
C395 H383 0.931 . S
C395 C390 1.408 . S
C395 C394 1.400 . S
H396 C402 0.930 . S
H397 C405 0.931 . S
H398 C407 0.931 . S
H399 C409 0.930 . S
H400 C411 0.930 . S
H401 C413 0.931 . S
C402 H396 0.930 . S
C402 C403 1.380 . S
C402 C404 1.394 . S
C403 C402 1.380 . S
C403 C407 1.382 . S
C404 C402 1.394 . S
C404 C405 1.400 . S
C405 H397 0.931 . S
C405 C404 1.400 . S
C405 C406 1.375 . S
C406 C405 1.375 . S
C406 C407 1.415 . S
C406 C408 1.501 . S
C407 H398 0.931 . S
C407 C403 1.382 . S
C407 C406 1.415 . S
C408 C406 1.501 . S
C408 C409 1.384 . S
C408 C413 1.408 . S
C409 H399 0.930 . S
C409 C408 1.384 . S
C409 C410 1.389 . S
C410 C409 1.389 . S
C410 C411 1.405 . S
C411 H400 0.930 . S
C411 C410 1.405 . S
C411 C412 1.364 . S
C412 C411 1.364 . S
C412 C413 1.400 . S
C413 H401 0.931 . S
C413 C408 1.408 . S
C413 C412 1.400 . S
H414 C420 0.926 . S
H415 C423 0.931 . S
H416 C425 0.931 . S
H417 C427 0.930 . S
H418 C429 0.930 . S
H419 C431 0.941 . S
C420 H414 0.926 . S
C420 C421 1.383 . S
C420 C422 1.395 1_655 S
C421 C420 1.383 . S
C421 C425 1.382 . S
C422 C420 1.395 1_455 S
C422 C423 1.400 . S
C423 H415 0.931 . S
C423 C422 1.400 . S
C423 C424 1.375 . S
C424 C423 1.375 . S
C424 C425 1.415 1_455 S
C424 C426 1.501 . S
C425 H416 0.931 . S
C425 C421 1.382 . S
C425 C424 1.415 1_655 S
C426 C424 1.501 . S
C426 C427 1.384 . S
C426 C431 1.423 . S
C427 H417 0.930 . S
C427 C426 1.384 . S
C427 C428 1.389 . S
C428 C427 1.389 . S
C428 C429 1.405 . S
C429 H418 0.930 . S
C429 C428 1.405 . S
C429 C430 1.359 . S
C430 C429 1.359 . S
C430 C431 1.389 . S
C431 H419 0.941 . S
C431 C426 1.423 . S
C431 C430 1.389 . S
H432 C438 0.930 . S
H433 C441 0.931 . S
H434 C443 0.931 . S
H435 C445 0.930 . S
H436 C447 0.930 . S
H437 C449 0.931 . S
C438 H432 0.930 . S
C438 C439 1.380 . S
C438 C440 1.394 . S
C439 C438 1.380 . S
C439 C443 1.382 . S
C440 C438 1.394 . S
C440 C441 1.400 . S
C441 H433 0.931 . S
C441 C440 1.400 . S
C441 C442 1.375 . S
C442 C441 1.375 . S
C442 C443 1.415 . S
C442 C444 1.501 . S
C443 H434 0.931 . S
C443 C439 1.382 . S
C443 C442 1.415 . S
C444 C442 1.501 . S
C444 C445 1.384 . S
C444 C449 1.408 . S
C445 H435 0.930 . S
C445 C444 1.384 . S
C445 C446 1.389 . S
C446 C445 1.389 . S
C446 C447 1.405 . S
C447 H436 0.930 . S
C447 C446 1.405 . S
C447 C448 1.364 . S
C448 C447 1.364 . S
C448 C449 1.400 . S
C449 H437 0.931 . S
C449 C444 1.408 . S
C449 C448 1.400 . S
H450 C456 0.930 . S
H451 C459 0.931 . S
H452 C461 0.931 . S
H453 C463 0.930 . S
H454 C465 0.930 . S
H455 C467 0.938 . S
C456 H450 0.930 . S
C456 C457 1.380 . S
C456 C458 1.394 1_545 S
C457 C456 1.380 . S
C457 C461 1.382 . S
C458 C456 1.394 1_565 S
C458 C459 1.400 . S
C459 H451 0.931 . S
C459 C458 1.400 . S
C459 C460 1.375 . S
C460 C459 1.375 . S
C460 C461 1.415 1_565 S
C460 C462 1.501 . S
C461 H452 0.931 . S
C461 C457 1.382 . S
C461 C460 1.415 1_545 S
C462 C460 1.501 . S
C462 C463 1.384 . S
C462 C467 1.408 . S
C463 H453 0.930 . S
C463 C462 1.384 . S
C463 C464 1.389 . S
C464 C463 1.389 . S
C464 C465 1.405 . S
C465 H454 0.930 . S
C465 C464 1.405 . S
C465 C466 1.364 . S
C466 C465 1.364 . S
C466 C467 1.400 . S
C467 H455 0.938 . S
C467 C462 1.408 . S
C467 C466 1.400 . S
H468 C474 0.930 . S
H469 C477 0.931 . S
H470 C479 0.924 . S
H471 C481 0.930 . S
H472 C483 0.909 . S
H473 C485 0.931 . S
C474 H468 0.930 . S
C474 C475 1.381 1_545 S
C474 C476 1.394 1_545 S
C475 C474 1.381 1_565 S
C475 C479 1.403 . S
C476 C474 1.394 1_565 S
C476 C477 1.400 . S
C477 H469 0.931 . S
C477 C476 1.400 . S
C477 C478 1.375 . S
C478 C477 1.375 . S
C478 C479 1.406 . S
C478 C480 1.501 . S
C479 H470 0.924 . S
C479 C475 1.403 . S
C479 C478 1.406 . S
C480 C478 1.501 . S
C480 C481 1.384 . S
C480 C485 1.408 1_565 S
C481 H471 0.930 . S
C481 C480 1.384 . S
C481 C482 1.389 . S
C482 C481 1.389 . S
C482 C483 1.422 . S
C483 H472 0.909 . S
C483 C482 1.422 . S
C483 C484 1.370 1_565 S
C484 C483 1.370 1_545 S
C484 C485 1.400 . S
C485 H473 0.931 . S
C485 C480 1.408 1_545 S
C485 C484 1.400 . S
H486 C492 0.930 . S
H487 C495 0.931 . S
H488 C497 0.934 . S
H489 C499 0.930 . S
H490 C501 0.930 . S
H491 C503 0.931 . S
C492 H486 0.930 . S
C492 C493 1.389 . S
C492 C494 1.387 1_655 S
C493 C492 1.389 . S
C493 C497 1.353 1_655 S
C494 C492 1.387 1_455 S
C494 C495 1.415 . S
C495 H487 0.931 . S
C495 C494 1.415 . S
C495 C496 1.375 . S
C496 C495 1.375 . S
C496 C497 1.422 . S
C496 C498 1.501 . S
C497 H488 0.934 . S
C497 C493 1.353 1_455 S
C497 C496 1.422 . S
C498 C496 1.501 . S
C498 C499 1.384 . S
C498 C503 1.408 1_455 S
C499 H489 0.930 . S
C499 C498 1.384 . S
C499 C500 1.389 . S
C500 C499 1.389 . S
C500 C501 1.405 . S
C501 H490 0.930 . S
C501 C500 1.405 . S
C501 C502 1.364 1_455 S
C502 C501 1.364 1_655 S
C502 C503 1.400 . S
C503 H491 0.931 . S
C503 C498 1.408 1_655 S
C503 C502 1.400 . S
H504 C510 0.930 . S
H505 C513 0.931 . S
H506 C515 0.931 . S
H507 C517 0.930 . S
H508 C519 0.930 . S
H509 C521 0.931 . S
C510 H504 0.930 . S
C510 C511 1.380 . S
C510 C512 1.394 . S
C511 C510 1.380 . S
C511 C515 1.382 . S
C512 C510 1.394 . S
C512 C513 1.400 . S
C513 H505 0.931 . S
C513 C512 1.400 . S
C513 C514 1.375 . S
C514 C513 1.375 . S
C514 C515 1.415 . S
C514 C516 1.501 . S
C515 H506 0.931 . S
C515 C511 1.382 . S
C515 C514 1.415 . S
C516 C514 1.501 . S
C516 C517 1.384 . S
C516 C521 1.408 . S
C517 H507 0.930 . S
C517 C516 1.384 . S
C517 C518 1.389 . S
C518 C517 1.389 . S
C518 C519 1.405 . S
C519 H508 0.930 . S
C519 C518 1.405 . S
C519 C520 1.364 . S
C520 C519 1.364 . S
C520 C521 1.400 . S
C521 H509 0.931 . S
C521 C516 1.408 . S
C521 C520 1.400 . S
H522 C528 0.930 . S
H523 C531 0.931 . S
H524 C533 0.931 . S
H525 C535 0.930 . S
H526 C537 0.930 . S
H527 C539 0.931 . S
C528 H522 0.930 . S
C528 C529 1.380 . S
C528 C530 1.394 . S
C529 C528 1.380 . S
C529 C533 1.382 . S
C530 C528 1.394 . S
C530 C531 1.400 . S
C531 H523 0.931 . S
C531 C530 1.400 . S
C531 C532 1.375 . S
C532 C531 1.375 . S
C532 C533 1.415 . S
C532 C534 1.501 . S
C533 H524 0.931 . S
C533 C529 1.382 . S
C533 C532 1.415 . S
C534 C532 1.501 . S
C534 C535 1.384 . S
C534 C539 1.408 . S
C535 H525 0.930 . S
C535 C534 1.384 . S
C535 C536 1.389 . S
C536 C535 1.389 . S
C536 C537 1.405 . S
C537 H526 0.930 . S
C537 C536 1.405 . S
C537 C538 1.364 . S
C538 C537 1.364 . S
C538 C539 1.400 . S
C539 H527 0.931 . S
C539 C534 1.408 . S
C539 C538 1.400 . S
H540 C546 0.930 . S
H541 C549 0.931 . S
H542 C551 0.931 . S
H543 C553 0.930 . S
H544 C555 0.930 . S
H545 C557 0.931 . S
C546 H540 0.930 . S
C546 C547 1.380 . S
C546 C548 1.394 . S
C547 C546 1.380 . S
C547 C551 1.382 . S
C548 C546 1.394 . S
C548 C549 1.400 . S
C549 H541 0.931 . S
C549 C548 1.400 . S
C549 C550 1.375 . S
C550 C549 1.375 . S
C550 C551 1.415 . S
C550 C552 1.501 . S
C551 H542 0.931 . S
C551 C547 1.382 . S
C551 C550 1.415 . S
C552 C550 1.501 . S
C552 C553 1.384 . S
C552 C557 1.408 . S
C553 H543 0.930 . S
C553 C552 1.384 . S
C553 C554 1.389 . S
C554 C553 1.389 . S
C554 C555 1.405 . S
C555 H544 0.930 . S
C555 C554 1.405 . S
C555 C556 1.364 . S
C556 C555 1.364 . S
C556 C557 1.400 . S
C557 H545 0.931 . S
C557 C552 1.408 . S
C557 C556 1.400 . S
H558 C564 0.930 . S
H559 C567 0.931 . S
H560 C569 0.931 . S
H561 C571 0.930 . S
H562 C573 0.930 . S
H563 C575 0.931 . S
C564 H558 0.930 . S
C564 C565 1.380 . S
C564 C566 1.394 . S
C565 C564 1.380 . S
C565 C569 1.382 . S
C566 C564 1.394 . S
C566 C567 1.400 . S
C567 H559 0.931 . S
C567 C566 1.400 . S
C567 C568 1.375 . S
C568 C567 1.375 . S
C568 C569 1.415 . S
C568 C570 1.501 . S
C569 H560 0.931 . S
C569 C565 1.382 . S
C569 C568 1.415 . S
C570 C568 1.501 . S
C570 C571 1.384 . S
C570 C575 1.408 . S
C571 H561 0.930 . S
C571 C570 1.384 . S
C571 C572 1.389 . S
C572 C571 1.389 . S
C572 C573 1.405 . S
C573 H562 0.930 . S
C573 C572 1.405 . S
C573 C574 1.364 . S
C574 C573 1.364 . S
C574 C575 1.400 . S
C575 H563 0.931 . S
C575 C570 1.408 . S
C575 C574 1.400 . S
C576 C577 1.387 . S
C576 H580 0.950 . S
C576 C585 1.390 . S
C577 C576 1.387 . S
C577 C579 1.387 . S
H578 C585 0.950 . S
C579 C577 1.387 . S
C579 C581 1.390 . S
C579 H583 0.950 1_655 S
H580 C576 0.950 . S
C581 C579 1.390 . S
C581 C582 1.387 . S
C581 H584 0.950 1_655 S
C582 C581 1.387 . S
C582 C585 1.387 . S
H583 C579 0.950 1_455 S
H584 C581 0.950 1_455 S
C585 C576 1.390 . S
C585 H578 0.950 . S
C585 C582 1.387 . S
C586 C587 1.387 . S
C586 H590 0.950 . S
C586 C595 1.390 . S
C587 C586 1.387 . S
C587 C589 1.387 . S
H588 C595 0.950 . S
C589 C587 1.387 . S
C589 C591 1.390 . S
C589 H593 0.950 . S
H590 C586 0.950 . S
C591 C589 1.390 . S
C591 C592 1.387 . S
C591 H594 0.950 . S
C592 C591 1.387 . S
C592 C595 1.387 . S
H593 C589 0.950 . S
H594 C591 0.950 . S
C595 C586 1.390 . S
C595 H588 0.950 . S
C595 C592 1.387 . S
C596 C597 1.387 . S
C596 H600 0.950 . S
C596 C605 1.390 . S
C597 C596 1.387 . S
C597 C599 1.387 1_545 S
H598 C605 0.950 . S
C599 C597 1.387 1_565 S
C599 C601 1.390 . S
C599 H603 0.950 . S
H600 C596 0.950 . S
C601 C599 1.390 . S
C601 C602 1.387 1_565 S
C601 H604 0.950 . S
C602 C601 1.387 1_545 S
C602 C605 1.387 . S
H603 C599 0.950 . S
H604 C601 0.950 . S
C605 C596 1.390 . S
C605 H598 0.950 . S
C605 C602 1.387 . S
C606 C607 1.387 1_545 S
C606 H610 0.950 . S
C606 C615 1.390 . S
C607 C606 1.387 1_565 S
C607 C609 1.387 . S
H608 C615 0.950 . S
C609 C607 1.387 . S
C609 C611 1.390 . S
C609 H613 0.950 . S
H610 C606 0.950 . S
C611 C609 1.390 . S
C611 C612 1.387 . S
C611 H614 0.950 . S
C612 C611 1.387 . S
C612 C615 1.387 1_565 S
H613 C609 0.950 . S
H614 C611 0.950 . S
C615 C606 1.390 . S
C615 H608 0.950 . S
C615 C612 1.387 1_545 S
C616 C617 1.387 . S
C616 H620 0.950 . S
C616 C625 1.390 . S
C617 C616 1.387 . S
C617 C619 1.387 1_455 S
H618 C625 0.950 . S
C619 C617 1.387 1_655 S
C619 C621 1.390 . S
C619 H623 0.950 . S
H620 C616 0.950 . S
C621 C619 1.390 . S
C621 C622 1.387 1_655 S
C621 H624 0.950 . S
C622 C621 1.387 1_455 S
C622 C625 1.387 . S
H623 C619 0.950 . S
H624 C621 0.950 . S
C625 C616 1.390 . S
C625 H618 0.950 . S
C625 C622 1.387 . S
C626 C627 1.387 . S
C626 H630 0.950 . S
C626 C635 1.390 . S
C627 C626 1.387 . S
C627 C629 1.387 . S
H628 C635 0.950 . S
C629 C627 1.387 . S
C629 C631 1.390 . S
C629 H633 0.950 . S
H630 C626 0.950 . S
C631 C629 1.390 . S
C631 C632 1.387 . S
C631 H634 0.950 . S
C632 C631 1.387 . S
C632 C635 1.387 . S
H633 C629 0.950 . S
H634 C631 0.950 . S
C635 C626 1.390 . S
C635 H628 0.950 . S
C635 C632 1.387 . S
C636 C637 1.387 . S
C636 H640 0.950 . S
C636 C645 1.390 . S
C637 C636 1.387 . S
C637 C639 1.377 . S
H638 C645 0.950 . S
C639 C637 1.377 . S
C639 C641 1.407 1_455 S
C639 H643 0.946 1_455 S
H640 C636 0.950 . S
C641 C639 1.407 1_655 S
C641 C642 1.387 1_655 S
C641 H644 0.950 . S
C642 C641 1.387 1_455 S
C642 C645 1.387 . S
H643 C639 0.946 1_655 S
H644 C641 0.950 . S
C645 C636 1.390 . S
C645 H638 0.950 . S
C645 C642 1.387 . S
C646 C647 1.387 . S
C646 H650 0.950 . S
C646 C655 1.390 . S
C647 C646 1.387 . S
C647 C649 1.387 . S
H648 C655 0.950 . S
C649 C647 1.387 . S
C649 C651 1.390 . S
C649 H653 0.950 . S
H650 C646 0.950 . S
C651 C649 1.390 . S
C651 C652 1.387 . S
C651 H654 0.950 . S
C652 C651 1.387 . S
C652 C655 1.387 . S
H653 C649 0.950 . S
H654 C651 0.950 . S
C655 C646 1.390 . S
C655 H648 0.950 . S
C655 C652 1.387 . S
C656 C657 1.387 . S
C656 H660 0.950 . S
C656 C665 1.390 . S
C657 C656 1.387 . S
C657 C659 1.387 1_565 S
H658 C665 0.950 . S
C659 C657 1.387 1_545 S
C659 C661 1.390 . S
C659 H663 0.950 . S
H660 C656 0.950 . S
C661 C659 1.390 . S
C661 C662 1.387 1_545 S
C661 H664 0.950 . S
C662 C661 1.387 1_565 S
C662 C665 1.387 . S
H663 C659 0.950 . S
H664 C661 0.950 . S
C665 C656 1.390 . S
C665 H658 0.950 . S
C665 C662 1.387 . S
C666 C667 1.387 1_565 S
C666 H670 0.950 . S
C666 C675 1.390 . S
C667 C666 1.387 1_545 S
C667 C669 1.387 . S
H668 C675 0.950 . S
C669 C667 1.387 . S
C669 C671 1.390 . S
C669 H673 0.950 . S
H670 C666 0.950 . S
C671 C669 1.390 . S
C671 C672 1.387 . S
C671 H674 0.950 . S
C672 C671 1.387 . S
C672 C675 1.387 1_545 S
H673 C669 0.950 . S
H674 C671 0.950 . S
C675 C666 1.390 . S
C675 H668 0.950 . S
C675 C672 1.387 1_565 S
C676 C677 1.387 . S
C676 H680 0.950 . S
C676 C685 1.390 . S
C677 C676 1.387 . S
C677 C679 1.387 1_655 S
H678 C685 0.950 . S
C679 C677 1.387 1_455 S
C679 C681 1.390 . S
C679 H683 0.950 . S
H680 C676 0.950 . S
C681 C679 1.390 . S
C681 C682 1.387 1_455 S
C681 H684 0.950 . S
C682 C681 1.387 1_655 S
C682 C685 1.387 . S
H683 C679 0.950 . S
H684 C681 0.950 . S
C685 C676 1.390 . S
C685 H678 0.950 . S
C685 C682 1.387 . S
C686 C687 1.387 . S
C686 H690 0.950 . S
C686 C695 1.390 . S
C687 C686 1.387 . S
C687 C689 1.387 . S
H688 C695 0.950 . S
C689 C687 1.387 . S
C689 C691 1.390 . S
C689 H693 0.950 . S
H690 C686 0.950 . S
C691 C689 1.390 . S
C691 C692 1.387 . S
C691 H694 0.950 . S
C692 C691 1.387 . S
C692 C695 1.387 . S
H693 C689 0.950 . S
H694 C691 0.950 . S
C695 C686 1.390 . S
C695 H688 0.950 . S
C695 C692 1.387 . S
C696 C697 1.387 . S
C696 H700 0.950 . S
C696 C705 1.390 . S
C697 C696 1.387 . S
C697 C699 1.387 . S
H698 C705 0.950 . S
C699 C697 1.387 . S
C699 C701 1.390 . S
C699 H703 0.950 . S
H700 C696 0.950 . S
C701 C699 1.390 . S
C701 C702 1.387 . S
C701 H704 0.950 . S
C702 C701 1.387 . S
C702 C705 1.387 . S
H703 C699 0.950 . S
H704 C701 0.950 . S
C705 C696 1.390 . S
C705 H698 0.950 . S
C705 C702 1.387 . S
C706 C707 1.387 . S
C706 H710 0.950 . S
C706 C715 1.390 . S
C707 C706 1.387 . S
C707 C709 1.387 . S
H708 C715 0.950 . S
C709 C707 1.387 . S
C709 C711 1.390 . S
C709 H713 0.950 . S
H710 C706 0.950 . S
C711 C709 1.390 . S
C711 C712 1.387 . S
C711 H714 0.950 . S
C712 C711 1.387 . S
C712 C715 1.387 . S
H713 C709 0.950 . S
H714 C711 0.950 . S
C715 C706 1.390 . S
C715 H708 0.950 . S
C715 C712 1.387 . S
C716 C717 1.387 . S
C716 H720 0.950 . S
C716 C725 1.390 . S
C717 C716 1.387 . S
C717 C719 1.387 . S
H718 C725 0.950 . S
C719 C717 1.387 . S
C719 C721 1.390 . S
C719 H723 0.950 . S
H720 C716 0.950 . S
C721 C719 1.390 . S
C721 C722 1.387 . S
C721 H724 0.950 . S
C722 C721 1.387 . S
C722 C725 1.387 . S
H723 C719 0.950 . S
H724 C721 0.950 . S
C725 C716 1.390 . S
C725 H718 0.950 . S
C725 C722 1.387 . S
C726 C727 1.387 . S
C726 H730 0.950 . S
C726 C735 1.390 . S
C727 C726 1.387 . S
C727 C729 1.387 . S
H728 C735 0.950 . S
C729 C727 1.387 . S
C729 C731 1.390 . S
C729 H733 0.950 . S
H730 C726 0.950 . S
C731 C729 1.390 . S
C731 C732 1.387 . S
C731 H734 0.950 . S
C732 C731 1.387 . S
C732 C735 1.387 . S
H733 C729 0.950 . S
H734 C731 0.950 . S
C735 C726 1.390 . S
C735 H728 0.950 . S
C735 C732 1.387 . S
C736 C737 1.387 . S
C736 H740 0.950 . S
C736 C745 1.390 . S
C737 C736 1.387 . S
C737 C739 1.387 . S
H738 C745 0.950 . S
C739 C737 1.387 . S
C739 C741 1.390 . S
C739 H743 0.950 . S
H740 C736 0.950 . S
C741 C739 1.390 . S
C741 C742 1.387 . S
C741 H744 0.950 . S
C742 C741 1.387 . S
C742 C745 1.387 . S
H743 C739 0.950 . S
H744 C741 0.950 . S
C745 C736 1.390 . S
C745 H738 0.950 . S
C745 C742 1.387 . S
C746 C747 1.387 . S
C746 H750 0.950 . S
C746 C755 1.390 . S
C747 C746 1.387 . S
C747 C749 1.387 . S
H748 C755 0.950 . S
C749 C747 1.387 . S
C749 C751 1.390 . S
C749 H753 0.950 . S
H750 C746 0.950 . S
C751 C749 1.390 . S
C751 C752 1.387 . S
C751 H754 0.950 . S
C752 C751 1.387 . S
C752 C755 1.387 . S
H753 C749 0.950 . S
H754 C751 0.950 . S
C755 C746 1.390 . S
C755 H748 0.950 . S
C755 C752 1.387 . S
C756 C757 1.387 . S
C756 H760 0.950 . S
C756 C765 1.390 . S
C757 C756 1.387 . S
C757 C759 1.387 . S
H758 C765 0.950 . S
C759 C757 1.387 . S
C759 C761 1.390 . S
C759 H763 0.950 . S
H760 C756 0.950 . S
C761 C759 1.390 . S
C761 C762 1.387 . S
C761 H764 0.950 . S
C762 C761 1.387 . S
C762 C765 1.387 . S
H763 C759 0.950 . S
H764 C761 0.950 . S
C765 C756 1.390 . S
C765 H758 0.950 . S
C765 C762 1.387 . S
C766 C767 1.387 . S
C766 H770 0.950 . S
C766 C775 1.390 . S
C767 C766 1.387 . S
C767 C769 1.387 . S
H768 C775 0.950 . S
C769 C767 1.387 . S
C769 C771 1.390 . S
C769 H773 0.950 . S
H770 C766 0.950 . S
C771 C769 1.390 . S
C771 C772 1.387 . S
C771 H774 0.950 . S
C772 C771 1.387 . S
C772 C775 1.387 . S
H773 C769 0.950 . S
H774 C771 0.950 . S
C775 C766 1.390 . S
C775 H768 0.950 . S
C775 C772 1.387 . S
C776 C777 1.387 . S
C776 H780 0.950 . S
C776 C785 1.390 . S
C777 C776 1.387 . S
C777 C779 1.387 . S
H778 C785 0.950 . S
C779 C777 1.387 . S
C779 C781 1.390 . S
C779 H783 0.950 . S
H780 C776 0.950 . S
C781 C779 1.390 . S
C781 C782 1.387 . S
C781 H784 0.950 . S
C782 C781 1.387 . S
C782 C785 1.387 . S
H783 C779 0.950 . S
H784 C781 0.950 . S
C785 C776 1.390 . S
C785 H778 0.950 . S
C785 C782 1.387 . S
C786 C787 1.387 . S
C786 H790 0.950 . S
C786 C795 1.390 . S
C787 C786 1.387 . S
C787 C789 1.387 . S
H788 C795 0.950 . S
C789 C787 1.387 . S
C789 C791 1.390 . S
C789 H793 0.950 . S
H790 C786 0.950 . S
C791 C789 1.390 . S
C791 C792 1.387 . S
C791 H794 0.950 . S
C792 C791 1.387 . S
C792 C795 1.387 . S
H793 C789 0.950 . S
H794 C791 0.950 . S
C795 C786 1.390 . S
C795 H788 0.950 . S
C795 C792 1.387 . S
C796 C797 1.387 . S
C796 H800 0.950 . S
C796 C805 1.390 . S
C797 C796 1.387 . S
C797 C799 1.387 . S
H798 C805 0.950 . S
C799 C797 1.387 . S
C799 C801 1.390 . S
C799 H803 0.950 . S
H800 C796 0.950 . S
C801 C799 1.390 . S
C801 C802 1.387 . S
C801 H804 0.950 . S
C802 C801 1.387 . S
C802 C805 1.387 . S
H803 C799 0.950 . S
H804 C801 0.950 . S
C805 C796 1.390 . S
C805 H798 0.950 . S
C805 C802 1.387 . S
C806 C807 1.387 . S
C806 H810 0.950 . S
C806 C815 1.390 . S
C807 C806 1.387 . S
C807 C809 1.387 . S
H808 C815 0.950 . S
C809 C807 1.387 . S
C809 C811 1.390 . S
C809 H813 0.950 . S
H810 C806 0.950 . S
C811 C809 1.390 . S
C811 C812 1.387 . S
C811 H814 0.950 . S
C812 C811 1.387 . S
C812 C815 1.387 . S
H813 C809 0.950 . S
H814 C811 0.950 . S
C815 C806 1.390 . S
C815 H808 0.950 . S
C815 C812 1.387 . S
C816 C817 1.387 . S
C816 H820 0.950 . S
C816 C825 1.390 . S
C817 C816 1.387 . S
C817 C819 1.387 . S
H818 C825 0.950 . S
C819 C817 1.387 . S
C819 C821 1.390 . S
C819 H823 0.950 . S
H820 C816 0.950 . S
C821 C819 1.390 . S
C821 C822 1.387 . S
C821 H824 0.950 . S
C822 C821 1.387 . S
C822 C825 1.387 . S
H823 C819 0.950 . S
H824 C821 0.950 . S
C825 C816 1.390 . S
C825 H818 0.950 . S
C825 C822 1.387 . S
C826 C827 1.387 . S
C826 H830 0.950 . S
C826 C835 1.390 . S
C827 C826 1.387 . S
C827 C829 1.387 . S
H828 C835 0.950 . S
C829 C827 1.387 . S
C829 C831 1.390 . S
C829 H833 0.950 . S
H830 C826 0.950 . S
C831 C829 1.390 . S
C831 C832 1.387 . S
C831 H834 0.950 . S
C832 C831 1.387 . S
C832 C835 1.387 . S
H833 C829 0.950 . S
H834 C831 0.950 . S
C835 C826 1.390 . S
C835 H828 0.950 . S
C835 C832 1.387 . S
C836 C837 1.387 . S
C836 H840 0.950 . S
C836 C845 1.390 . S
C837 C836 1.387 . S
C837 C839 1.387 . S
H838 C845 0.950 . S
C839 C837 1.387 . S
C839 C841 1.390 . S
C839 H843 0.950 . S
H840 C836 0.950 . S
C841 C839 1.390 . S
C841 C842 1.387 . S
C841 H844 0.950 . S
C842 C841 1.387 . S
C842 C845 1.387 . S
H843 C839 0.950 . S
H844 C841 0.950 . S
C845 C836 1.390 . S
C845 H838 0.950 . S
C845 C842 1.387 . S
C846 C847 1.387 . S
C846 H850 0.950 . S
C846 C855 1.390 . S
C847 C846 1.387 . S
C847 C849 1.387 . S
H848 C855 0.950 . S
C849 C847 1.387 . S
C849 C851 1.390 . S
C849 H853 0.950 . S
H850 C846 0.950 . S
C851 C849 1.390 . S
C851 C852 1.387 . S
C851 H854 0.950 . S
C852 C851 1.387 . S
C852 C855 1.387 . S
H853 C849 0.950 . S
H854 C851 0.950 . S
C855 C846 1.390 . S
C855 H848 0.950 . S
C855 C852 1.387 . S
C856 C857 1.387 . S
C856 H860 0.950 . S
C856 C865 1.390 . S
C857 C856 1.387 . S
C857 C859 1.387 . S
H858 C865 0.950 . S
C859 C857 1.387 . S
C859 C861 1.390 . S
C859 H863 0.950 . S
H860 C856 0.950 . S
C861 C859 1.390 . S
C861 C862 1.387 . S
C861 H864 0.950 . S
C862 C861 1.387 . S
C862 C865 1.387 . S
H863 C859 0.950 . S
H864 C861 0.950 . S
C865 C856 1.390 . S
C865 H858 0.950 . S
C865 C862 1.387 . S
C866 C867 1.387 . S
C866 H870 0.950 . S
C866 C875 1.390 . S
C867 C866 1.387 . S
C867 C869 1.387 . S
H868 C875 0.950 . S
C869 C867 1.387 . S
C869 C871 1.390 . S
C869 H873 0.950 . S
H870 C866 0.950 . S
C871 C869 1.390 . S
C871 C872 1.387 . S
C871 H874 0.950 . S
C872 C871 1.387 . S
C872 C875 1.387 . S
H873 C869 0.950 . S
H874 C871 0.950 . S
C875 C866 1.390 . S
C875 H868 0.950 . S
C875 C872 1.387 . S
C876 C877 1.387 . S
C876 H880 0.950 . S
C876 C885 1.390 . S
C877 C876 1.387 . S
C877 C879 1.387 . S
H878 C885 0.950 . S
C879 C877 1.387 . S
C879 C881 1.390 . S
C879 H883 0.950 . S
H880 C876 0.950 . S
C881 C879 1.390 . S
C881 C882 1.387 . S
C881 H884 0.950 . S
C882 C881 1.387 . S
C882 C885 1.387 . S
H883 C879 0.950 . S
H884 C881 0.950 . S
C885 C876 1.390 . S
C885 H878 0.950 . S
C885 C882 1.387 . S
C886 C887 1.387 . S
C886 H890 0.950 . S
C886 C895 1.390 . S
C887 C886 1.387 . S
C887 C889 1.387 . S
H888 C895 0.950 . S
C889 C887 1.387 . S
C889 C891 1.390 . S
C889 H893 0.950 . S
H890 C886 0.950 . S
C891 C889 1.390 . S
C891 C892 1.387 . S
C891 H894 0.950 . S
C892 C891 1.387 . S
C892 C895 1.387 . S
H893 C889 0.950 . S
H894 C891 0.950 . S
C895 C886 1.390 . S
C895 H888 0.950 . S
C895 C892 1.387 . S
C896 C897 1.387 . S
C896 H900 0.950 . S
C896 C905 1.390 . S
C897 C896 1.387 . S
C897 C899 1.387 . S
H898 C905 0.950 . S
C899 C897 1.387 . S
C899 C901 1.390 . S
C899 H903 0.950 . S
H900 C896 0.950 . S
C901 C899 1.390 . S
C901 C902 1.387 . S
C901 H904 0.950 . S
C902 C901 1.387 . S
C902 C905 1.387 . S
H903 C899 0.950 . S
H904 C901 0.950 . S
C905 C896 1.390 . S
C905 H898 0.950 . S
C905 C902 1.387 . S
C906 C907 1.387 . S
C906 H910 0.950 . S
C906 C915 1.390 . S
C907 C906 1.387 . S
C907 C909 1.387 . S
H908 C915 0.950 . S
C909 C907 1.387 . S
C909 C911 1.390 . S
C909 H913 0.950 . S
H910 C906 0.950 . S
C911 C909 1.390 . S
C911 C912 1.387 . S
C911 H914 0.950 . S
C912 C911 1.387 . S
C912 C915 1.387 . S
H913 C909 0.950 . S
H914 C911 0.950 . S
C915 C906 1.390 . S
C915 H908 0.950 . S
C915 C912 1.387 . S
C916 C917 1.387 . S
C916 H920 0.950 . S
C916 C925 1.390 . S
C917 C916 1.387 . S
C917 C919 1.387 . S
H918 C925 0.950 . S
C919 C917 1.387 . S
C919 C921 1.390 . S
C919 H923 0.950 . S
H920 C916 0.950 . S
C921 C919 1.390 . S
C921 C922 1.387 . S
C921 H924 0.950 . S
C922 C921 1.387 . S
C922 C925 1.387 . S
H923 C919 0.950 . S
H924 C921 0.950 . S
C925 C916 1.390 . S
C925 H918 0.950 . S
C925 C922 1.387 . S
C926 C927 1.387 . S
C926 H930 0.950 . S
C926 C935 1.390 . S
C927 C926 1.387 . S
C927 C929 1.387 . S
H928 C935 0.950 . S
C929 C927 1.387 . S
C929 C931 1.390 . S
C929 H933 0.950 . S
H930 C926 0.950 . S
C931 C929 1.390 . S
C931 C932 1.387 . S
C931 H934 0.950 . S
C932 C931 1.387 . S
C932 C935 1.387 . S
H933 C929 0.950 . S
H934 C931 0.950 . S
C935 C926 1.390 . S
C935 H928 0.950 . S
C935 C932 1.387 . S
C936 C937 1.387 . S
C936 H940 0.950 . S
C936 C945 1.390 . S
C937 C936 1.387 . S
C937 C939 1.387 . S
H938 C945 0.950 . S
C939 C937 1.387 . S
C939 C941 1.390 . S
C939 H943 0.950 . S
H940 C936 0.950 . S
C941 C939 1.390 . S
C941 C942 1.387 . S
C941 H944 0.950 . S
C942 C941 1.387 . S
C942 C945 1.387 . S
H943 C939 0.950 . S
H944 C941 0.950 . S
C945 C936 1.390 . S
C945 H938 0.950 . S
C945 C942 1.387 . S
C946 C947 1.387 . S
C946 H950 0.950 . S
C946 C955 1.390 . S
C947 C946 1.387 . S
C947 C949 1.387 . S
H948 C955 0.950 . S
C949 C947 1.387 . S
C949 C951 1.390 . S
C949 H953 0.950 . S
H950 C946 0.950 . S
C951 C949 1.390 . S
C951 C952 1.387 . S
C951 H954 0.950 . S
C952 C951 1.387 . S
C952 C955 1.387 . S
H953 C949 0.950 . S
H954 C951 0.950 . S
C955 C946 1.390 . S
C955 H948 0.950 . S
C955 C952 1.387 . S
C956 C957 1.387 . S
C956 H960 0.933 1_554 S
C956 C965 1.390 . S
C957 C956 1.387 . S
C957 C959 1.387 . S
H958 C965 0.950 . S
C959 C957 1.387 . S
C959 C961 1.390 . S
C959 H963 0.950 . S
H960 C956 0.933 1_556 S
C961 C959 1.390 . S
C961 C962 1.387 . S
C961 H964 0.950 . S
C962 C961 1.387 . S
C962 C965 1.387 . S
H963 C959 0.950 . S
H964 C961 0.950 . S
C965 C956 1.390 . S
C965 H958 0.950 . S
C965 C962 1.387 . S
C966 C967 1.387 . S
C966 H970 0.950 1_556 S
C966 C975 1.390 . S
C967 C966 1.387 . S
C967 C969 1.387 . S
H968 C975 0.950 . S
C969 C967 1.387 . S
C969 C971 1.390 . S
C969 H973 0.950 . S
H970 C966 0.950 1_554 S
C971 C969 1.390 . S
C971 C972 1.387 . S
C971 H974 0.950 . S
C972 C971 1.387 . S
C972 C975 1.387 . S
H973 C969 0.950 . S
H974 C971 0.950 . S
C975 C966 1.390 . S
C975 H968 0.950 . S
C975 C972 1.387 . S
C976 C977 1.390 . S
C976 H980 0.946 1_556 S
C976 C985 1.392 . S
C977 C976 1.390 . S
C977 C979 1.387 . S
H978 C985 0.950 1_554 S
C979 C977 1.387 . S
C979 C981 1.390 . S
C979 H983 0.950 . S
H980 C976 0.946 1_554 S
C981 C979 1.390 . S
C981 C982 1.387 . S
C981 H984 0.950 . S
C982 C981 1.387 . S
C982 C985 1.387 . S
H983 C979 0.950 . S
H984 C981 0.950 . S
C985 C976 1.392 . S
C985 H978 0.950 1_556 S
C985 C982 1.387 . S
C986 C987 1.387 . S
C986 H990 0.950 . S
C986 C995 1.390 . S
C987 C986 1.387 . S
C987 C989 1.387 . S
H988 C995 0.950 . S
C989 C987 1.387 . S
C989 C991 1.390 . S
C989 H993 0.950 . S
H990 C986 0.950 . S
C991 C989 1.390 . S
C991 C992 1.387 . S
C991 H994 0.950 . S
C992 C991 1.387 . S
C992 C995 1.387 . S
H993 C989 0.950 . S
H994 C991 0.950 . S
C995 C986 1.390 . S
C995 H988 0.950 . S
C995 C992 1.387 . S
C996 C997 1.387 . S
C996 H1000 0.950 . S
C996 C1005 1.390 . S
C997 C996 1.387 . S
C997 C999 1.387 . S
H998 C1005 0.950 . S
C999 C997 1.387 . S
C999 C1001 1.390 . S
C999 H1003 0.950 1_556 S
H1000 C996 0.950 . S
C1001 C999 1.390 . S
C1001 C1002 1.387 . S
C1001 H1004 0.950 . S
C1002 C1001 1.387 . S
C1002 C1005 1.387 . S
H1003 C999 0.950 1_554 S
H1004 C1001 0.950 . S
C1005 C996 1.390 . S
C1005 H998 0.950 . S
C1005 C1002 1.387 . S
C1006 C1007 1.387 . S
C1006 H1010 0.950 . S
C1006 C1015 1.390 . S
C1007 C1006 1.387 . S
C1007 C1009 1.387 1_556 S
H1008 C1015 0.950 . S
C1009 C1007 1.387 1_554 S
C1009 C1011 1.390 1_554 S
C1009 H1013 0.950 . S
H1010 C1006 0.950 . S
C1011 C1009 1.390 1_556 S
C1011 C1012 1.387 . S
C1011 H1014 0.950 1_556 S
C1012 C1011 1.387 . S
C1012 C1015 1.387 . S
H1013 C1009 0.950 . S
H1014 C1011 0.950 1_554 S
C1015 C1006 1.390 . S
C1015 H1008 0.950 . S
C1015 C1012 1.387 . S
C1016 C1017 1.387 1_554 S
C1016 H1020 0.950 . S
C1016 C1025 1.390 1_554 S
C1017 C1016 1.387 1_556 S
C1017 C1019 1.387 . S
H1018 C1025 0.950 1_554 S
C1019 C1017 1.387 . S
C1019 C1021 1.390 . S
C1019 H1023 0.950 . S
H1020 C1016 0.950 . S
C1021 C1019 1.390 . S
C1021 C1022 1.387 . S
C1021 H1024 0.950 . S
C1022 C1021 1.387 . S
C1022 C1025 1.387 . S
H1023 C1019 0.950 . S
H1024 C1021 0.950 . S
C1025 C1016 1.390 1_556 S
C1025 H1018 0.950 1_556 S
C1025 C1022 1.387 . S
C1026 C1027 1.387 . S
C1026 H1030 0.950 . S
C1026 C1035 1.390 . S
C1027 C1026 1.387 . S
C1027 C1029 1.387 . S
H1028 C1035 0.950 . S
C1029 C1027 1.387 . S
C1029 C1031 1.390 . S
C1029 H1033 0.950 . S
H1030 C1026 0.950 . S
C1031 C1029 1.390 . S
C1031 C1032 1.387 . S
C1031 H1034 0.950 . S
C1032 C1031 1.387 . S
C1032 C1035 1.387 . S
H1033 C1029 0.950 . S
H1034 C1031 0.950 . S
C1035 C1026 1.390 . S
C1035 H1028 0.950 . S
C1035 C1032 1.387 . S
C1036 C1037 1.387 . S
C1036 H1040 0.950 . S
C1036 C1045 1.390 . S
C1037 C1036 1.387 . S
C1037 C1039 1.387 . S
H1038 C1045 0.950 . S
C1039 C1037 1.387 . S
C1039 C1041 1.390 . S
C1039 H1043 0.950 . S
H1040 C1036 0.950 . S
C1041 C1039 1.390 . S
C1041 C1042 1.387 . S
C1041 H1044 0.950 . S
C1042 C1041 1.387 . S
C1042 C1045 1.387 . S
H1043 C1039 0.950 . S
H1044 C1041 0.950 . S
C1045 C1036 1.390 . S
C1045 H1038 0.950 . S
C1045 C1042 1.387 . S
C1046 C1047 1.387 . S
C1046 H1050 0.950 . S
C1046 C1055 1.390 . S
C1047 C1046 1.387 . S
C1047 C1049 1.387 . S
H1048 C1055 0.950 . S
C1049 C1047 1.387 . S
C1049 C1051 1.390 . S
C1049 H1053 0.950 . S
H1050 C1046 0.950 . S
C1051 C1049 1.390 . S
C1051 C1052 1.387 . S
C1051 H1054 0.950 . S
C1052 C1051 1.387 . S
C1052 C1055 1.387 . S
H1053 C1049 0.950 . S
H1054 C1051 0.950 . S
C1055 C1046 1.390 . S
C1055 H1048 0.950 . S
C1055 C1052 1.387 . S
C1056 C1057 1.387 . S
C1056 H1060 0.950 . S
C1056 C1065 1.390 . S
C1057 C1056 1.387 . S
C1057 C1059 1.387 . S
H1058 C1065 0.950 . S
C1059 C1057 1.387 . S
C1059 C1061 1.390 . S
C1059 H1063 0.950 . S
H1060 C1056 0.950 . S
C1061 C1059 1.390 . S
C1061 C1062 1.387 . S
C1061 H1064 0.950 . S
C1062 C1061 1.387 . S
C1062 C1065 1.387 . S
H1063 C1059 0.950 . S
H1064 C1061 0.950 . S
C1065 C1056 1.390 . S
C1065 H1058 0.950 . S
C1065 C1062 1.387 . S
C1066 C1067 1.387 . S
C1066 H1070 0.950 . S
C1066 C1075 1.390 . S
C1067 C1066 1.387 . S
C1067 C1069 1.387 . S
H1068 C1075 0.950 . S
C1069 C1067 1.387 . S
C1069 C1071 1.390 . S
C1069 H1073 0.950 . S
H1070 C1066 0.950 . S
C1071 C1069 1.390 . S
C1071 C1072 1.387 . S
C1071 H1074 0.950 . S
C1072 C1071 1.387 . S
C1072 C1075 1.387 . S
H1073 C1069 0.950 . S
H1074 C1071 0.950 . S
C1075 C1066 1.390 . S
C1075 H1068 0.950 . S
C1075 C1072 1.387 . S
C1076 C1077 1.387 . S
C1076 H1080 0.950 . S
C1076 C1085 1.390 . S
C1077 C1076 1.387 . S
C1077 C1079 1.387 . S
H1078 C1085 0.950 . S
C1079 C1077 1.387 . S
C1079 C1081 1.390 . S
C1079 H1083 0.950 . S
H1080 C1076 0.950 . S
C1081 C1079 1.390 . S
C1081 C1082 1.387 . S
C1081 H1084 0.950 . S
C1082 C1081 1.387 . S
C1082 C1085 1.387 . S
H1083 C1079 0.950 . S
H1084 C1081 0.950 . S
C1085 C1076 1.390 . S
C1085 H1078 0.950 . S
C1085 C1082 1.387 . S
C1086 C1087 1.387 . S
C1086 H1090 0.950 . S
C1086 C1095 1.390 . S
C1087 C1086 1.387 . S
C1087 C1089 1.387 . S
H1088 C1095 0.950 . S
C1089 C1087 1.387 . S
C1089 C1091 1.390 . S
C1089 H1093 0.950 . S
H1090 C1086 0.950 . S
C1091 C1089 1.390 . S
C1091 C1092 1.387 . S
C1091 H1094 0.950 . S
C1092 C1091 1.387 . S
C1092 C1095 1.387 . S
H1093 C1089 0.950 . S
H1094 C1091 0.950 . S
C1095 C1086 1.390 . S
C1095 H1088 0.950 . S
C1095 C1092 1.387 . S
C1096 C1097 1.387 . S
C1096 H1100 0.950 . S
C1096 C1105 1.390 . S
C1097 C1096 1.387 . S
C1097 C1099 1.387 . S
H1098 C1105 0.950 . S
C1099 C1097 1.387 . S
C1099 C1101 1.390 . S
C1099 H1103 0.950 . S
H1100 C1096 0.950 . S
C1101 C1099 1.390 . S
C1101 C1102 1.387 . S
C1101 H1104 0.950 . S
C1102 C1101 1.387 . S
C1102 C1105 1.387 . S
H1103 C1099 0.950 . S
H1104 C1101 0.950 . S
C1105 C1096 1.390 . S
C1105 H1098 0.950 . S
C1105 C1102 1.387 . S
C1106 C1107 1.387 . S
C1106 H1110 0.950 . S
C1106 C1115 1.390 . S
C1107 C1106 1.387 . S
C1107 C1109 1.387 1_565 S
H1108 C1115 0.950 . S
C1109 C1107 1.387 1_545 S
C1109 C1111 1.390 . S
C1109 H1113 0.950 . S
H1110 C1106 0.950 . S
C1111 C1109 1.390 . S
C1111 C1112 1.387 1_545 S
C1111 H1114 0.950 . S
C1112 C1111 1.387 1_565 S
C1112 C1115 1.387 . S
H1113 C1109 0.950 . S
H1114 C1111 0.950 . S
C1115 C1106 1.390 . S
C1115 H1108 0.950 . S
C1115 C1112 1.387 . S
C1116 C1117 1.387 . S
C1116 H1120 0.950 . S
C1116 C1125 1.390 . S
C1117 C1116 1.387 . S
C1117 C1119 1.387 1_565 S
H1118 C1125 0.950 . S
C1119 C1117 1.387 1_545 S
C1119 C1121 1.390 . S
C1119 H1123 0.950 . S
H1120 C1116 0.950 . S
C1121 C1119 1.390 . S
C1121 C1122 1.387 1_545 S
C1121 H1124 0.950 . S
C1122 C1121 1.387 1_565 S
C1122 C1125 1.387 . S
H1123 C1119 0.950 . S
H1124 C1121 0.950 . S
C1125 C1116 1.390 . S
C1125 H1118 0.950 . S
C1125 C1122 1.387 . S
C1126 C1127 1.387 . S
C1126 H1130 0.950 . S
C1126 C1135 1.390 . S
C1127 C1126 1.387 . S
C1127 C1129 1.396 . S
H1128 C1135 0.950 . S
C1129 C1127 1.396 . S
C1129 C1131 1.403 1_455 S
C1129 H1133 0.930 1_455 S
H1130 C1126 0.950 . S
C1131 C1129 1.403 1_655 S
C1131 C1132 1.359 1_655 S
C1131 H1134 0.950 . S
C1132 C1131 1.359 1_455 S
C1132 C1135 1.400 . S
H1133 C1129 0.930 1_655 S
H1134 C1131 0.950 . S
C1135 C1126 1.390 . S
C1135 H1128 0.950 . S
C1135 C1132 1.400 . S
C1136 C1137 1.387 . S
C1136 H1140 0.950 . S
C1136 C1145 1.390 . S
C1137 C1136 1.387 . S
C1137 C1139 1.387 . S
H1138 C1145 0.950 . S
C1139 C1137 1.387 . S
C1139 C1141 1.390 . S
C1139 H1143 0.950 . S
H1140 C1136 0.950 . S
C1141 C1139 1.390 . S
C1141 C1142 1.387 . S
C1141 H1144 0.950 . S
C1142 C1141 1.387 . S
C1142 C1145 1.387 . S
H1143 C1139 0.950 . S
H1144 C1141 0.950 . S
C1145 C1136 1.390 . S
C1145 H1138 0.950 . S
C1145 C1142 1.387 . S
C1146 C1147 1.387 . S
C1146 H1150 0.950 . S
C1146 C1155 1.390 . S
C1147 C1146 1.387 . S
C1147 C1149 1.387 . S
H1148 C1155 0.950 . S
C1149 C1147 1.387 . S
C1149 C1151 1.390 . S
C1149 H1153 0.950 . S
H1150 C1146 0.950 . S
C1151 C1149 1.390 . S
C1151 C1152 1.387 . S
C1151 H1154 0.950 . S
C1152 C1151 1.387 . S
C1152 C1155 1.387 . S
H1153 C1149 0.950 . S
H1154 C1151 0.950 . S
C1155 C1146 1.390 . S
C1155 H1148 0.950 . S
C1155 C1152 1.387 . S
C1156 C1157 1.387 . S
C1156 H1160 0.950 . S
C1156 C1165 1.390 . S
C1157 C1156 1.387 . S
C1157 C1159 1.387 . S
H1158 C1165 0.950 . S
C1159 C1157 1.387 . S
C1159 C1161 1.390 . S
C1159 H1163 0.950 . S
H1160 C1156 0.950 . S
C1161 C1159 1.390 . S
C1161 C1162 1.387 . S
C1161 H1164 0.950 . S
C1162 C1161 1.387 . S
C1162 C1165 1.387 . S
H1163 C1159 0.950 . S
H1164 C1161 0.950 . S
C1165 C1156 1.390 . S
C1165 H1158 0.950 . S
C1165 C1162 1.387 . S
C1166 C1167 1.387 . S
C1166 H1170 0.950 . S
C1166 C1175 1.390 . S
C1167 C1166 1.387 . S
C1167 C1169 1.387 . S
H1168 C1175 0.950 . S
C1169 C1167 1.387 . S
C1169 C1171 1.390 . S
C1169 H1173 0.950 . S
H1170 C1166 0.950 . S
C1171 C1169 1.390 . S
C1171 C1172 1.387 . S
C1171 H1174 0.950 . S
C1172 C1171 1.387 . S
C1172 C1175 1.387 . S
H1173 C1169 0.950 . S
H1174 C1171 0.950 . S
C1175 C1166 1.390 . S
C1175 H1168 0.950 . S
C1175 C1172 1.387 . S
C1176 C1177 1.387 . S
C1176 H1180 0.950 . S
C1176 C1185 1.390 . S
C1177 C1176 1.387 . S
C1177 C1179 1.387 . S
H1178 C1185 0.922 1_565 S
C1179 C1177 1.387 . S
C1179 C1181 1.390 . S
C1179 H1183 0.950 . S
H1180 C1176 0.950 . S
C1181 C1179 1.390 . S
C1181 C1182 1.387 . S
C1181 H1184 0.950 . S
C1182 C1181 1.387 . S
C1182 C1185 1.387 . S
H1183 C1179 0.950 . S
H1184 C1181 0.950 . S
C1185 C1176 1.390 . S
C1185 H1178 0.922 1_545 S
C1185 C1182 1.387 . S
C1186 C1187 1.387 . S
C1186 H1190 0.950 . S
C1186 C1195 1.390 . S
C1187 C1186 1.387 . S
C1187 C1189 1.387 . S
H1188 C1195 0.950 . S
C1189 C1187 1.387 . S
C1189 C1191 1.390 . S
C1189 H1193 0.950 . S
H1190 C1186 0.950 . S
C1191 C1189 1.390 . S
C1191 C1192 1.387 . S
C1191 H1194 0.950 . S
C1192 C1191 1.387 . S
C1192 C1195 1.387 . S
H1193 C1189 0.950 . S
H1194 C1191 0.950 . S
C1195 C1186 1.390 . S
C1195 H1188 0.950 . S
C1195 C1192 1.387 . S
C1196 C1197 1.387 . S
C1196 H1200 0.950 . S
C1196 C1205 1.390 . S
C1197 C1196 1.387 . S
C1197 C1199 1.387 . S
H1198 C1205 0.950 . S
C1199 C1197 1.387 . S
C1199 C1201 1.390 . S
C1199 H1203 0.950 . S
H1200 C1196 0.950 . S
C1201 C1199 1.390 . S
C1201 C1202 1.387 . S
C1201 H1204 0.950 . S
C1202 C1201 1.387 . S
C1202 C1205 1.387 . S
H1203 C1199 0.950 . S
H1204 C1201 0.950 . S
C1205 C1196 1.390 . S
C1205 H1198 0.950 . S
C1205 C1202 1.387 . S
C1206 C1207 1.387 . S
C1206 H1210 0.950 . S
C1206 C1215 1.390 . S
C1207 C1206 1.387 . S
C1207 C1209 1.387 . S
H1208 C1215 0.950 . S
C1209 C1207 1.387 . S
C1209 C1211 1.390 . S
C1209 H1213 0.950 . S
H1210 C1206 0.950 . S
C1211 C1209 1.390 . S
C1211 C1212 1.387 . S
C1211 H1214 0.950 . S
C1212 C1211 1.387 . S
C1212 C1215 1.387 . S
H1213 C1209 0.950 . S
H1214 C1211 0.950 . S
C1215 C1206 1.390 . S
C1215 H1208 0.950 . S
C1215 C1212 1.387 . S
C1216 C1217 1.387 . S
C1216 H1220 0.950 . S
C1216 C1225 1.390 . S
C1217 C1216 1.387 . S
C1217 C1219 1.387 . S
H1218 C1225 0.950 . S
C1219 C1217 1.387 . S
C1219 C1221 1.390 . S
C1219 H1223 0.950 . S
H1220 C1216 0.950 . S
C1221 C1219 1.390 . S
C1221 C1222 1.387 . S
C1221 H1224 0.950 . S
C1222 C1221 1.387 . S
C1222 C1225 1.387 . S
H1223 C1219 0.950 . S
H1224 C1221 0.950 . S
C1225 C1216 1.390 . S
C1225 H1218 0.950 . S
C1225 C1222 1.387 . S
C1226 C1227 1.387 . S
C1226 H1230 0.950 . S
C1226 C1235 1.390 . S
C1227 C1226 1.387 . S
C1227 C1229 1.387 . S
H1228 C1235 0.950 . S
C1229 C1227 1.387 . S
C1229 C1231 1.390 . S
C1229 H1233 0.950 . S
H1230 C1226 0.950 . S
C1231 C1229 1.390 . S
C1231 C1232 1.387 . S
C1231 H1234 0.950 . S
C1232 C1231 1.387 . S
C1232 C1235 1.387 . S
H1233 C1229 0.950 . S
H1234 C1231 0.950 . S
C1235 C1226 1.390 . S
C1235 H1228 0.950 . S
C1235 C1232 1.387 . S
C1236 C1237 1.387 . S
C1236 H1240 0.950 . S
C1236 C1245 1.390 . S
C1237 C1236 1.387 . S
C1237 C1239 1.387 . S
H1238 C1245 0.950 . S
C1239 C1237 1.387 . S
C1239 C1241 1.390 . S
C1239 H1243 0.950 . S
H1240 C1236 0.950 . S
C1241 C1239 1.390 . S
C1241 C1242 1.387 . S
C1241 H1244 0.950 . S
C1242 C1241 1.387 . S
C1242 C1245 1.387 . S
H1243 C1239 0.950 . S
H1244 C1241 0.950 . S
C1245 C1236 1.390 . S
C1245 H1238 0.950 . S
C1245 C1242 1.387 . S
C1246 C1247 1.387 . S
C1246 H1250 0.950 . S
C1246 C1255 1.390 . S
C1247 C1246 1.387 . S
C1247 C1249 1.387 . S
H1248 C1255 0.950 . S
C1249 C1247 1.387 . S
C1249 C1251 1.390 . S
C1249 H1253 0.950 . S
H1250 C1246 0.950 . S
C1251 C1249 1.390 . S
C1251 C1252 1.387 . S
C1251 H1254 0.950 . S
C1252 C1251 1.387 . S
C1252 C1255 1.387 . S
H1253 C1249 0.950 . S
H1254 C1251 0.950 . S
C1255 C1246 1.390 . S
C1255 H1248 0.950 . S
C1255 C1252 1.387 . S
C1256 C1257 1.387 . S
C1256 H1260 0.950 . S
C1256 C1265 1.390 . S
C1257 C1256 1.387 . S
C1257 C1259 1.387 . S
H1258 C1265 0.950 . S
C1259 C1257 1.387 . S
C1259 C1261 1.390 . S
C1259 H1263 0.950 . S
H1260 C1256 0.950 . S
C1261 C1259 1.390 . S
C1261 C1262 1.387 . S
C1261 H1264 0.950 . S
C1262 C1261 1.387 . S
C1262 C1265 1.387 . S
H1263 C1259 0.950 . S
H1264 C1261 0.950 . S
C1265 C1256 1.390 . S
C1265 H1258 0.950 . S
C1265 C1262 1.387 . S
C1266 C1267 1.387 . S
C1266 H1270 0.950 . S
C1266 C1275 1.390 . S
C1267 C1266 1.387 . S
C1267 C1269 1.387 . S
H1268 C1275 0.950 . S
C1269 C1267 1.387 . S
C1269 C1271 1.390 1_655 S
C1269 H1273 0.950 . S
H1270 C1266 0.950 . S
C1271 C1269 1.390 1_455 S
C1271 C1272 1.387 1_455 S
C1271 H1274 0.950 . S
C1272 C1271 1.387 1_655 S
C1272 C1275 1.387 . S
H1273 C1269 0.950 . S
H1274 C1271 0.950 . S
C1275 C1266 1.390 . S
C1275 H1268 0.950 . S
C1275 C1272 1.387 . S
C1276 C1277 1.387 . S
C1276 H1280 0.950 . S
C1276 C1285 1.390 . S
C1277 C1276 1.387 . S
C1277 C1279 1.387 . S
H1278 C1285 0.950 . S
C1279 C1277 1.387 . S
C1279 C1281 1.390 . S
C1279 H1283 0.950 . S
H1280 C1276 0.950 . S
C1281 C1279 1.390 . S
C1281 C1282 1.387 . S
C1281 H1284 0.950 . S
C1282 C1281 1.387 . S
C1282 C1285 1.387 . S
H1283 C1279 0.950 . S
H1284 C1281 0.950 . S
C1285 C1276 1.390 . S
C1285 H1278 0.950 . S
C1285 C1282 1.387 . S
C1286 C1287 1.387 1_565 S
C1286 H1290 0.950 . S
C1286 C1295 1.390 . S
C1287 C1286 1.387 1_545 S
C1287 C1289 1.387 . S
H1288 C1295 0.950 . S
C1289 C1287 1.387 . S
C1289 C1291 1.390 . S
C1289 H1293 0.950 . S
H1290 C1286 0.950 . S
C1291 C1289 1.390 . S
C1291 C1292 1.387 . S
C1291 H1294 0.950 . S
C1292 C1291 1.387 . S
C1292 C1295 1.387 1_545 S
H1293 C1289 0.950 . S
H1294 C1291 0.950 . S
C1295 C1286 1.390 . S
C1295 H1288 0.950 . S
C1295 C1292 1.387 1_565 S
C577 C13 1.489 . S
C582 C421 1.551 . S
C587 C27 1.411 . S
C592 C446 1.476 . S
C602 C457 1.549 . S
C597 C36 1.469 . S
C607 C41 1.465 . S
C612 C482 1.537 . S
C617 C8 1.540 . S
C622 C500 1.627 . S
C627 C22 1.466 . S
C632 C511 1.538 . S
C637 C55 1.510 . S
C642 C493 1.561 1_455 S
C652 C518 1.477 . S
C647 C69 1.424 . S
C662 C475 1.557 . S
C657 C78 1.467 . S
C667 C83 1.484 . S
C672 C464 1.536 1_545 S
C682 C428 1.627 1_655 S
C677 C50 1.533 . S
C687 C64 1.447 . S
C692 C439 1.535 . S
C697 C97 1.506 . S
C702 C529 1.583 . S
C707 C111 1.423 . S
C712 C554 1.496 . S
C722 C565 1.573 . S
C717 C120 1.524 . S
C727 C125 1.475 . S
C732 C266 1.556 . S
C737 C92 1.615 . S
C742 C284 1.667 . S
C747 C106 1.491 . S
C752 C295 1.553 . S
C757 C139 1.486 . S
C762 C277 1.555 . S
C767 C153 1.439 . S
C772 C302 1.489 . S
C782 C259 1.571 . S
C777 C162 1.493 . S
C792 C572 1.558 . S
C787 C167 1.483 . S
C802 C536 1.635 . S
C797 C134 1.569 . S
C812 C547 1.549 . S
C807 C148 1.469 . S
C817 C181 1.498 . S
C822 C313 1.570 . S
C827 C195 1.427 . S
C832 C338 1.490 . S
C837 C204 1.523 . S
C842 C349 1.576 . S
C847 C209 1.484 . S
C852 C374 1.572 . S
C862 C392 1.669 . S
C857 C176 1.618 . S
C872 C403 1.555 . S
C867 C190 1.496 . S
C882 C385 1.574 . S
C877 C223 1.499 . S
C892 C410 1.494 . S
C887 C237 1.435 . S
C897 C246 1.489 . S
C902 C367 1.561 . S
C912 C356 1.538 . S
C907 C251 1.471 . S
C917 C218 1.568 . S
C922 C320 1.637 . S
C932 C331 1.553 . S
C927 C232 1.470 . S
C942 C268 1.375 . S
C937 C11 1.430 . S
C947 C25 1.342 . S
C952 C286 1.300 . S
C962 C296 1.346 . S
C957 C35 1.413 . S
C972 C314 1.355 . S
C967 C39 1.413 . S
C982 C340 1.414 . S
C977 C7 1.494 . S
C992 C350 1.325 . S
C987 C21 1.401 . S
C997 C53 1.463 . S
C1002 C358 1.390 . S
C1007 C67 1.377 . S
C1012 C322 1.306 . S
C1017 C77 1.443 . S
C1022 C332 1.363 . S
C1027 C81 1.464 . S
C1032 C278 1.399 . S
C1042 C304 1.414 . S
C1037 C49 1.530 . S
C1047 C63 1.448 . S
C1052 C260 1.356 . S
C1062 C376 1.355 . S
C1057 C95 1.419 . S
C1067 C109 1.370 . S
C1072 C394 1.320 . S
C1077 C119 1.443 . S
C1082 C404 1.373 . S
C1092 C422 1.300 . S
C1087 C123 1.369 . S
C1097 C91 1.481 . S
C1102 C448 1.397 . S
C1107 C105 1.363 . S
C1112 C458 1.301 . S
C1117 C137 1.410 . S
C1122 C466 1.327 . S
C1127 C151 1.318 . S
C1132 C430 1.268 . S
C1142 C440 1.361 . S
C1137 C161 1.440 . S
C1147 C165 1.459 . S
C1152 C386 1.386 . S
C1157 C133 1.539 . S
C1162 C412 1.418 . S
C1172 C368 1.388 . S
C1167 C147 1.477 . S
C1182 C484 1.332 . S
C1177 C179 1.401 . S
C1187 C193 1.305 . S
C1192 C502 1.251 . S
C1197 C203 1.407 . S
C1202 C512 1.340 . S
C1212 C530 1.345 . S
C1207 C207 1.411 . S
C1222 C556 1.417 . S
C1217 C175 1.505 . S
C1227 C189 1.435 . S
C1232 C566 1.363 . S
C1237 C221 1.454 . S
C1242 C574 1.363 . S
C1247 C235 1.406 . S
C1252 C538 1.328 . S
C1262 C548 1.388 . S
C1257 C245 1.472 . S
C1272 C494 1.296 1_655 S
C1267 C249 1.375 . S
C1282 C520 1.402 . S
C1277 C217 1.516 . S
C1287 C231 1.397 . S
C1292 C476 1.322 1_545 S
