# Generated by pormake.
# Topology pyr, (3,6)-cn, num edge types: 1
# Building blocks:
#     Node 0, Type 0, BuildingBlock: CUQRIR_clean_linker_1, # of connection points: 3
#     Node 1, Type 0, BuildingBlock: CUQRIR_clean_linker_1, # of connection points: 3
#     Node 2, Type 0, BuildingBlock: CUQRIR_clean_linker_1, # of connection points: 3
#     Node 3, Type 0, BuildingBlock: CUQRIR_clean_linker_1, # of connection points: 3
#     Node 4, Type 0, BuildingBlock: CUQRIR_clean_linker_1, # of connection points: 3
#     Node 5, Type 0, BuildingBlock: CUQRIR_clean_linker_1, # of connection points: 3
#     Node 6, Type 0, BuildingBlock: CUQRIR_clean_linker_1, # of connection points: 3
#     Node 7, Type 0, BuildingBlock: CUQRIR_clean_linker_1, # of connection points: 3
#     Node 8, Type 1, BuildingBlock: BETFAJ_clean_sbu_0, # of connection points: 6
#     Node 9, Type 1, BuildingBlock: BETFAJ_clean_sbu_0, # of connection points: 6
#     Node 10, Type 1, BuildingBlock: BETFAJ_clean_sbu_0, # of connection points: 6
#     Node 11, Type 1, BuildingBlock: BETFAJ_clean_sbu_0, # of connection points: 6
#     Edge 12, Type (0, 1), BuildingBlock: OJICUG_clean_linker_0, # of connection points: 2
#     Edge 13, Type (0, 1), BuildingBlock: OJICUG_clean_linker_0, # of connection points: 2
#     Edge 14, Type (0, 1), BuildingBlock: OJICUG_clean_linker_0, # of connection points: 2
#     Edge 15, Type (0, 1), BuildingBlock: OJICUG_clean_linker_0, # of connection points: 2
#     Edge 16, Type (0, 1), BuildingBlock: OJICUG_clean_linker_0, # of connection points: 2
#     Edge 17, Type (0, 1), BuildingBlock: OJICUG_clean_linker_0, # of connection points: 2
#     Edge 18, Type (0, 1), BuildingBlock: OJICUG_clean_linker_0, # of connection points: 2
#     Edge 19, Type (0, 1), BuildingBlock: OJICUG_clean_linker_0, # of connection points: 2
#     Edge 20, Type (0, 1), BuildingBlock: OJICUG_clean_linker_0, # of connection points: 2
#     Edge 21, Type (0, 1), BuildingBlock: OJICUG_clean_linker_0, # of connection points: 2
#     Edge 22, Type (0, 1), BuildingBlock: OJICUG_clean_linker_0, # of connection points: 2
#     Edge 23, Type (0, 1), BuildingBlock: OJICUG_clean_linker_0, # of connection points: 2
#     Edge 24, Type (0, 1), BuildingBlock: OJICUG_clean_linker_0, # of connection points: 2
#     Edge 25, Type (0, 1), BuildingBlock: OJICUG_clean_linker_0, # of connection points: 2
#     Edge 26, Type (0, 1), BuildingBlock: OJICUG_clean_linker_0, # of connection points: 2
#     Edge 27, Type (0, 1), BuildingBlock: OJICUG_clean_linker_0, # of connection points: 2
#     Edge 28, Type (0, 1), BuildingBlock: OJICUG_clean_linker_0, # of connection points: 2
#     Edge 29, Type (0, 1), BuildingBlock: OJICUG_clean_linker_0, # of connection points: 2
#     Edge 30, Type (0, 1), BuildingBlock: OJICUG_clean_linker_0, # of connection points: 2
#     Edge 31, Type (0, 1), BuildingBlock: OJICUG_clean_linker_0, # of connection points: 2
#     Edge 32, Type (0, 1), BuildingBlock: OJICUG_clean_linker_0, # of connection points: 2
#     Edge 33, Type (0, 1), BuildingBlock: OJICUG_clean_linker_0, # of connection points: 2
#     Edge 34, Type (0, 1), BuildingBlock: OJICUG_clean_linker_0, # of connection points: 2
#     Edge 35, Type (0, 1), BuildingBlock: OJICUG_clean_linker_0, # of connection points: 2
# Relax obj value: 0.307
# Max RMSD: 0.275
# Mean RMSD: 0.177
data_MOF--net-pyr--node1-BETFAJ_clean_sbu_0--node2-CUQRIR_clean_linker_1--edge1-OJICUG_clean_linker_0
_symmetry_space_group_name_H-M    P1
_symmetry_Int_Tables_number       1
_symmetry_cell_setting            triclinic
loop_
_symmetry_equiv_pos_as_xyz
'x, y, z'
_cell_length_a     24.922082
_cell_length_b     26.663389
_cell_length_c     24.137351
_cell_angle_alpha  90.245425
_cell_angle_beta   90.38137
_cell_angle_gamma 107.66259
loop_
_atom_site_label
_atom_site_type_symbol
_atom_site_fract_x
_atom_site_fract_y
_atom_site_fract_z
_atom_type_partial_charge
C0 C 0.42208 0.44375 0.28088 0.0
N1 N 0.4375 0.39949 0.28711 0.0
N2 N 0.43156 0.46281 0.22866 0.0
C3 C 0.38447 0.46034 0.32125 0.0
C4 C 0.46013 0.43207 0.20557 0.0
N5 N 0.46541 0.39496 0.24165 0.0
C6 C 0.47627 0.43423 0.14564 0.0
H7 H 0.39197 0.50345 0.31975 0.0
H8 H 0.39252 0.44992 0.36425 0.0
H9 H 0.3397 0.44028 0.31038 0.0
H10 H 0.48383 0.47468 0.12947 0.0
H11 H 0.44135 0.40721 0.12132 0.0
H12 H 0.51446 0.42158 0.14023 0.0
C13 C 0.41573 0.11233 0.57746 0.0
N14 N 0.39101 0.14107 0.60876 0.0
N15 N 0.45921 0.10286 0.605 0.0
C16 C 0.39337 0.08809 0.52237 0.0
C17 C 0.46126 0.12926 0.6535 0.0
N18 N 0.41927 0.15167 0.65633 0.0
C19 C 0.49605 0.12293 0.70283 0.0
H20 H 0.42675 1.07783 0.49885 0.0
H21 H 0.37717 0.1157 0.49798 0.0
H22 H 0.35795 1.05168 0.52898 0.0
H23 H 0.53801 0.12138 0.68956 0.0
H24 H 0.47423 0.08552 0.72405 0.0
H25 H 0.50203 0.15588 0.73274 0.0
C26 C 0.63716 0.43563 0.89503 0.0
N27 N 0.66918 0.4306 0.93995 0.0
N28 N 0.65598 0.48457 0.87196 0.0
C29 C 0.58575 0.39327 0.87508 0.0
C30 C 0.7011 0.50905 0.90476 0.0
N31 N 0.70894 0.47728 0.94654 0.0
C32 C 0.74072 0.56295 0.8926 0.0
H33 H 0.59889 0.36767 0.84512 0.0
H34 H 0.55585 0.41046 0.85392 0.0
H35 H 0.56411 0.36841 0.90991 0.0
H36 H 0.74016 0.57199 0.84781 0.0
H37 H 0.7845 0.56587 0.90507 0.0
H38 H 0.72735 0.59296 0.916 0.0
C39 C 0.86019 0.75051 0.39582 0.0
N40 N 0.91091 0.78609 0.38179 0.0
N41 N 0.83396 0.76872 0.43703 0.0
C42 C 0.83724 0.69626 0.37078 0.0
C43 C 0.86966 0.81732 0.44761 0.0
N44 N 0.91672 0.82896 0.41522 0.0
C45 C 0.85822 0.85386 0.49089 0.0
H46 H 0.84357 0.69769 0.32528 0.0
H47 H 0.79188 0.67844 0.37945 0.0
H48 H 0.86029 0.67039 0.38862 0.0
H49 H 0.81289 0.84281 0.50142 0.0
H50 H 0.87129 0.89515 0.47645 0.0
H51 H 0.88255 0.85192 0.52905 0.0
C52 C 0.63385 0.87975 0.93188 0.0
N53 N 0.67318 0.86227 0.90669 0.0
N54 N 0.62463 0.92007 0.90339 0.0
C55 C 0.61171 0.86392 0.98907 0.0
C56 C 0.65858 0.92499 0.85892 0.0
N57 N 0.68935 0.89114 0.86158 0.0
C58 C 0.66892 0.96917 0.81791 0.0
H59 H 0.61551 0.82478 1.00016 0.0
H60 H 0.56694 0.86288 0.99146 0.0
H61 H 0.63601 0.89362 1.01951 0.0
H62 H 0.70482 1.00277 0.83232 0.0
H63 H 0.63114 0.98272 0.81378 0.0
H64 H 0.67987 0.95605 0.77695 0.0
C65 C 0.73201 0.20882 0.63966 0.0
N66 N 0.74967 0.17169 0.61331 0.0
N67 N 0.68422 0.21342 0.61571 0.0
C68 C 0.76333 0.24326 0.68604 0.0
C69 C 0.67404 0.17788 0.57362 0.0
N70 N 0.71415 0.15318 0.57158 0.0
C71 C 0.63251 0.17605 0.52729 0.0
H72 H 0.73375 0.25635 0.71245 0.0
H73 H 0.79417 0.27866 0.66841 0.0
H74 H 0.78661 0.222 0.71145 0.0
H75 H 0.64986 0.21028 0.49974 0.0
H76 H 0.59202 0.1784 0.54395 0.0
H77 H 0.62406 0.13938 0.50244 0.0
C78 C 0.36808 0.77708 0.30596 0.0
N79 N 0.41983 0.81013 0.3211 0.0
N80 N 0.35246 0.78755 0.25451 0.0
C81 C 0.33282 0.73325 0.34148 0.0
C82 C 0.39637 0.82801 0.23786 0.0
N83 N 0.43717 0.84344 0.27779 0.0
C84 C 0.39921 0.85336 0.18167 0.0
H85 H 0.34417 0.69687 0.33269 0.0
H86 H 0.28734 0.72537 0.33221 0.0
H87 H 0.34054 0.743 0.38612 0.0
H88 H 0.38237 0.8873 0.18461 0.0
H89 H 0.37382 0.82513 0.15056 0.0
H90 H 0.44324 0.86787 0.16699 0.0
C91 C 0.14177 0.45079 0.80805 0.0
N92 N 0.17531 0.44324 0.76549 0.0
N93 N 0.1618 0.49987 0.83216 0.0
C94 C 0.0871 0.41109 0.82377 0.0
C95 C 0.20969 0.52168 0.80216 0.0
N96 N 0.21806 0.4883 0.76185 0.0
C97 C 0.24918 0.57623 0.81274 0.0
H98 H 0.06763 0.386 0.78775 0.0
H99 H 0.05709 0.43085 0.83993 0.0
H100 H 0.09536 0.38538 0.85666 0.0
H101 H 0.29329 0.57927 0.80281 0.0
H102 H 0.24779 0.58801 0.85669 0.0
H103 H 0.2365 0.60449 0.78598 0.0
Sm104 Sm 0.06762 0.165 0.53125 0.0
Sm105 Sm 0.06074 0.10812 0.62953 0.0
C106 C 0.06839 0.20794 0.43364 0.0
C107 C 0.12052 0.23622 0.40472 0.0
C108 C 0.15765 0.28221 0.42817 0.0
C109 C 0.2134 0.30043 0.41091 0.0
C110 C 0.23324 0.27297 0.37008 0.0
C111 C 0.19542 0.22847 0.34481 0.0
C112 C 0.13948 0.21062 0.36157 0.0
C113 C 0.17203 0.15929 0.56371 0.0
C114 C 0.10688 0.24044 0.63989 0.0
C115 C 0.06441 1.05875 0.72352 0.0
C116 C 1.02026 1.01392 0.74578 0.0
C117 C 0.9775 0.98455 0.70998 0.0
C118 C 0.92662 0.95316 0.73122 0.0
C119 C 0.91784 0.95048 0.78868 0.0
C120 C 0.96329 0.97507 0.82441 0.0
C121 C 1.01403 1.00717 0.80304 0.0
C122 C 0.9574 0.12124 0.60149 0.0
C123 C 1.02405 1.03352 0.51819 0.0
O124 O 0.05694 0.22986 0.47874 0.0
O125 O 0.06132 0.1578 0.4398 0.0
O126 O 0.12707 0.12172 0.5643 0.0
O127 O 0.16363 0.20077 0.54306 0.0
O128 O 0.08459 0.23864 0.58966 0.0
O129 O 0.10962 0.19528 0.66164 0.0
O130 O 0.08842 1.04964 0.67831 0.0
O131 O 0.05042 0.10201 0.72078 0.0
O132 O 1.00437 0.15595 0.59909 0.0
O133 O 0.96381 1.07707 0.6173 0.0
O134 O 0.04435 1.03499 0.56924 0.0
O135 O 1.01981 1.07841 0.49772 0.0
H136 H 0.14458 0.30282 0.46175 0.0
H137 H 0.241 0.33594 0.42975 0.0
H138 H 0.20936 0.2066 0.31301 0.0
H139 H 0.11195 0.17478 0.34323 0.0
H140 H 0.98154 0.98933 0.66551 0.0
H141 H 0.89269 0.93506 0.70242 0.0
H142 H 0.95827 0.97261 0.86895 0.0
H143 H 0.04664 1.02956 0.83121 0.0
Sm144 Sm 0.60391 0.14705 0.14059 0.0
Sm145 Sm 0.50816 0.13708 0.10428 0.0
C146 C 0.70394 0.16993 0.1896 0.0
C147 C 0.71844 0.14729 0.24042 0.0
C148 C 0.774 0.16053 0.25983 0.0
C149 C 0.78515 0.14501 0.31288 0.0
C150 C 0.74058 0.11711 0.34725 0.0
C151 C 0.68573 0.09969 0.32493 0.0
C152 C 0.67487 0.11465 0.27202 0.0
C153 C 0.53794 1.04912 0.1833 0.0
C154 C 0.52707 0.20691 0.2045 0.0
C155 C 0.41031 0.1146 1.05027 0.0
C156 C 0.39895 0.1324 0.99516 0.0
C157 C 0.34544 0.11405 0.97057 0.0
C158 C 0.3374 0.12685 0.91549 0.0
C159 C 0.38294 0.15789 0.88421 0.0
C160 C 0.43582 0.17812 0.91037 0.0
C161 C 0.44365 0.16552 0.96518 0.0
C162 C 0.57972 0.2347 0.0639 0.0
C163 C 0.57914 1.08124 1.03341 0.0
O164 O 0.66953 0.19774 0.19642 0.0
O165 O 0.68923 0.13735 0.14806 0.0
O166 O 0.5225 0.09091 0.18235 0.0
O167 O 0.58476 1.05825 0.1573 0.0
O168 O 0.57817 0.21366 0.18589 0.0
O169 O 0.48846 0.16423 0.18843 0.0
O170 O 0.44213 0.08386 1.0504 0.0
O171 O 0.42578 0.15115 0.08808 0.0
O172 O 0.59113 0.19129 0.06311 0.0
O173 O 0.53167 0.22701 0.08714 0.0
O174 O 0.52959 1.07201 1.05554 0.0
O175 O 0.61961 0.12092 1.05327 0.0
H176 H 0.80817 0.18498 0.23532 0.0
H177 H 0.82806 0.15806 0.3284 0.0
H178 H 0.65009 1.07873 0.34985 0.0
H179 H 0.63169 0.10379 0.25733 0.0
H180 H 0.31043 0.08853 0.99327 0.0
H181 H 0.29601 0.111 0.89684 0.0
H182 H 0.47226 0.20112 0.88767 0.0
H183 H 0.4854 0.17979 0.98343 0.0
Sm184 Sm 0.51371 0.58957 0.56079 0.0
Sm185 Sm 0.53383 0.67671 0.62751 0.0
C186 C 0.52722 0.50464 0.51223 0.0
C187 C 0.54929 0.4625 0.53375 0.0
C188 C 0.5996 0.47524 0.56499 0.0
C189 C 0.62061 0.43577 0.58524 0.0
C190 C 0.592 0.38237 0.5749 0.0
C191 C 0.54111 0.36954 0.54441 0.0
C192 C 0.52006 0.40921 0.524 0.0
C193 C 0.41674 0.57998 0.62304 0.0
C194 C 0.5686 0.58474 0.68846 0.0
C195 C 0.52807 0.76146 0.6816 0.0
C196 C 0.52206 0.81226 0.66363 0.0
C197 C 0.48195 0.81379 0.62309 0.0
C198 C 0.47624 0.86168 0.60582 0.0
C199 C 0.50997 0.90921 0.62921 0.0
C200 C 0.55111 0.90786 0.66893 0.0
C201 C 0.55712 0.85967 0.68597 0.0
C202 C 0.62996 0.68069 0.56652 0.0
C203 C 0.48906 0.69089 0.49879 0.0
O204 O 0.56356 0.55147 0.50885 0.0
O205 O 0.47878 0.50611 0.53113 0.0
O206 O 0.46738 0.59595 0.64139 0.0
O207 O 0.41715 0.57342 0.56955 0.0
O208 O 0.56275 0.56622 0.63688 0.0
O209 O 0.55445 0.62754 0.69861 0.0
O210 O 0.48455 0.71996 0.67283 0.0
O211 O 0.57575 0.75318 0.66984 0.0
O212 O 0.57996 0.66843 0.54787 0.0
O213 O 0.62985 0.68907 0.61954 0.0
O214 O 0.49481 0.70858 0.55057 0.0
O215 O 0.49629 0.64411 0.4894 0.0
H216 H 0.62306 0.51586 0.57383 0.0
H217 H 0.65939 0.44719 0.60918 0.0
H218 H 0.51825 0.32888 0.53505 0.0
H219 H 0.48117 0.39827 0.50021 0.0
H220 H 0.45435 0.7779 0.60508 0.0
H221 H 0.44462 0.86142 0.5747 0.0
H222 H 0.57726 0.94382 0.68821 0.0
H223 H 0.58853 0.85938 0.71712 0.0
Sm224 Sm 1.02755 0.59852 0.14225 0.0
Sm225 Sm 1.02711 0.67427 0.07282 0.0
C226 C 0.06476 0.53119 0.19973 0.0
C227 C 0.12023 0.52112 0.19663 0.0
C228 C 0.13687 0.49986 0.14853 0.0
C229 C 0.19127 0.49526 0.14431 0.0
C230 C 0.23059 0.51228 0.18779 0.0
C231 C 0.21383 0.53341 0.23585 0.0
C232 C 0.15934 0.53757 0.24027 0.0
C233 C 0.9851 0.67257 0.20109 0.0
C234 C 0.14323 0.6918 0.1357 0.0
C235 C 1.00293 0.7489 1.01417 0.0
C236 C 0.95079 0.76056 0.999 0.0
C237 C 0.90023 0.72002 0.98945 0.0
C238 C 0.85032 0.73198 0.97859 0.0
C239 C 0.85018 0.78464 0.97745 0.0
C240 C 0.90108 0.82502 0.98639 0.0
C241 C 0.95087 0.81303 0.99715 0.0
C242 C 0.07952 0.60864 1.01609 0.0
C243 C 0.91143 0.573 0.07654 0.0
O244 O 1.03053 0.51685 0.15743 0.0
O245 O 0.06615 0.57737 0.21863 0.0
O246 O 1.02647 0.68325 0.16758 0.0
O247 O 0.96441 0.62145 0.2025 0.0
O248 O 0.12272 0.6405 0.13489 0.0
O249 O 0.11073 0.71887 0.11748 0.0
O250 O 1.01629 0.75386 0.06653 0.0
O251 O 1.01069 0.70702 0.9921 0.0
O252 O 1.03558 0.59284 1.0466 0.0
O253 O 0.09754 0.65971 1.01829 0.0
O254 O 0.93152 0.62449 0.0705 0.0
O255 O 0.94354 0.54891 0.10149 0.0
H256 H 0.10821 0.48742 0.11371 0.0
H257 H 0.20278 0.4789 0.10669 0.0
H258 H 0.2426 0.54599 0.27059 0.0
H259 H 0.14801 0.55444 0.27767 0.0
H260 H 0.89913 0.67915 0.99088 0.0
H261 H 0.81176 0.70007 0.97195 0.0
H262 H 0.90254 0.866 0.98458 0.0
H263 H 0.98943 0.84478 1.00452 0.0
C264 C 0.35333 0.32553 0.2732 0.0
C265 C 0.39622 0.35415 0.30931 0.0
H266 H 0.2683 0.27833 0.26391 0.0
C267 C 0.38887 0.34761 0.36659 0.0
H268 H 0.35705 0.3317 0.22899 0.0
C269 C 0.33667 0.31753 0.38719 0.0
C270 C 0.29184 0.29365 0.35046 0.0
H271 H 0.4213 0.36979 0.39501 0.0
H272 H 0.3303 0.31575 0.43157 0.0
C273 C 0.30184 0.29552 0.29342 0.0
C274 C 0.35702 0.11781 0.73413 0.0
C275 C 0.39534 0.16058 0.70802 0.0
H276 H 0.32309 0.08316 0.81065 0.0
C277 C 0.42026 0.20677 0.73829 0.0
H278 H 0.33831 1.08155 0.71134 0.0
C279 C 0.4115 0.20814 0.79541 0.0
C280 C 0.37836 0.16293 0.82302 0.0
H281 H 0.45033 0.23989 0.71866 0.0
H282 H 0.43406 0.2432 0.81849 0.0
C283 C 0.34858 0.11885 0.79114 0.0
C284 C 0.62127 0.55645 0.833 0.0
C285 C 0.63209 0.5078 0.82612 0.0
H286 H 0.59355 0.61804 0.79684 0.0
C287 C 0.62116 0.48414 0.773 0.0
H288 H 0.62853 0.57594 0.873 0.0
C289 C 0.60096 0.50863 0.72855 0.0
C290 C 0.59059 0.55766 0.73545 0.0
H291 H 0.62916 0.447 0.76553 0.0
H292 H 0.59342 0.48899 0.68866 0.0
C293 C 0.60094 0.5807 0.78888 0.0
C294 C 0.94302 0.78427 0.2822 0.0
C295 C 0.94758 0.77247 0.33916 0.0
H296 H 0.95174 0.76482 0.19571 0.0
C297 C 0.96917 0.72956 0.34869 0.0
H298 H 0.9241 0.81452 0.27143 0.0
C299 C 0.98227 0.69888 0.30488 0.0
C300 C 0.97622 0.70972 0.24813 0.0
H301 H 0.97127 0.71657 0.39086 0.0
H302 H 0.99574 0.6652 0.31577 0.0
C303 C 0.95792 0.7545 0.2381 0.0
C304 C 0.52539 0.33887 0.26341 0.0
C305 C 0.48364 0.3495 0.23011 0.0
H306 H 0.57317 0.28549 0.2809 0.0
C307 C 0.45531 0.31213 0.19049 0.0
H308 H 0.54709 0.367 0.29479 0.0
C309 C 0.46745 0.26457 0.18515 0.0
C310 C 0.50992 0.2541 0.21758 0.0
H311 H 0.42257 0.31902 0.16477 0.0
H312 H 0.44458 0.23657 0.15421 0.0
C313 C 0.53958 0.29213 0.25616 0.0
C314 C 0.28852 0.10109 0.59925 0.0
C315 C 0.33586 0.14598 0.59943 0.0
H316 H 0.1991 1.07015 0.58817 0.0
C317 C 0.32914 0.1954 0.58953 0.0
H318 H 0.29321 1.06275 0.60752 0.0
C319 C 0.27566 0.19975 0.57788 0.0
C320 C 0.2282 0.15471 0.57686 0.0
H321 H 0.36542 0.23029 0.58983 0.0
H322 H 0.27147 0.23829 0.56958 0.0
C323 C 0.23499 0.10541 0.58832 0.0
C324 C 0.76169 0.54276 1.0169 0.0
C325 C 0.75268 0.49382 0.9897 0.0
H326 H 0.8181 0.60626 0.06355 0.0
C327 C 0.79383 0.468 0.99754 0.0
H328 H 0.73095 0.56375 1.01242 0.0
C329 C 0.84373 0.49199 1.02868 0.0
C330 C 0.85455 0.54302 1.05184 0.0
H331 H 0.78908 0.43079 0.97684 0.0
H332 H 0.87545 0.47192 1.03165 0.0
C333 C 0.81196 0.56732 1.04631 0.0
C334 C 0.78551 0.73451 0.52546 0.0
C335 C 0.78296 0.74165 0.4678 0.0
H336 H 0.74031 0.71004 0.60118 0.0
C337 C 0.72932 0.72622 0.44227 0.0
H338 H 0.82594 0.74616 0.54653 0.0
C339 C 0.67983 0.705 0.47365 0.0
C340 C 0.68242 0.69918 0.53167 0.0
H341 H 0.72561 0.73193 0.39821 0.0
H342 H 0.63937 0.69453 0.45264 0.0
C343 C 0.73623 0.71382 0.55681 0.0
C344 C 0.34439 0.44566 0.17411 0.0
C345 C 0.39042 0.4821 0.20062 0.0
H346 H 0.25774 0.42633 0.14982 0.0
C347 C 0.38649 0.53221 0.21368 0.0
H348 H 0.34585 0.40636 0.16469 0.0
C349 C 0.33545 0.54347 0.20632 0.0
C350 C 0.2876 0.50496 0.18501 0.0
H351 H 0.42118 0.56072 0.2346 0.0
H352 H 0.33257 0.58126 0.22016 0.0
C353 C 0.2936 0.45696 0.16627 0.0
C354 C 0.62044 0.38096 1.02208 0.0
C355 C 0.65648 0.38465 0.97665 0.0
H356 H 0.56869 0.33202 0.08414 0.0
C357 C 0.66983 0.33849 0.96155 0.0
H358 H 0.60773 0.41486 1.03399 0.0
C359 C 0.64763 0.29036 0.99073 0.0
C360 C 0.60989 0.28634 1.0351 0.0
H361 H 0.69602 0.33923 0.92578 0.0
H362 H 0.65807 0.25578 0.97696 0.0
C363 C 0.59751 0.33292 1.05048 0.0
C364 C 0.95721 0.92668 0.40339 0.0
C365 C 0.96243 0.87893 0.42527 0.0
H366 H 0.9705 1.01046 0.4137 0.0
C367 C 0.99366 0.88496 0.47564 0.0
H368 H 0.93155 0.92486 0.36663 0.0
C369 C 1.01434 0.93422 0.50429 0.0
C370 C 1.00564 0.98111 0.48426 0.0
H371 H 0.997 0.85 0.49618 0.0
H372 H 1.03525 0.93489 0.54387 0.0
C373 C 0.97836 0.97624 0.43179 0.0
C374 C 0.42956 1.00668 0.60713 0.0
C375 C 0.47283 1.05427 0.60127 0.0
H376 H 0.40744 0.92414 0.62101 0.0
C377 C 0.52899 1.05384 0.60106 0.0
H378 H 0.38607 1.00634 0.60944 0.0
C379 C 0.54163 1.00653 0.60854 0.0
C380 C 0.49807 0.95908 0.61605 0.0
H381 H 0.5629 0.09032 0.59762 0.0
H382 H 0.58529 1.00718 0.60958 0.0
C383 C 0.44194 0.95968 0.61417 0.0
C384 C 0.76229 0.87487 0.8014 0.0
C385 C 0.74625 0.90483 0.84215 0.0
H386 H 0.83034 0.86466 0.75333 0.0
C387 C 0.787 0.94657 0.86796 0.0
H388 H 0.7312 0.84177 0.78215 0.0
C389 C 0.84295 0.95969 0.85209 0.0
C390 C 0.85963 0.93088 0.81025 0.0
H391 H 0.77509 0.96917 0.90044 0.0
H392 H 0.87266 0.99372 0.87135 0.0
C393 C 0.81877 0.88784 0.78542 0.0
C394 C 0.70367 0.08739 0.49694 0.0
C395 C 0.73206 0.13643 0.52029 0.0
H396 H 0.68671 1.04086 0.4227 0.0
C397 C 0.77303 0.17319 0.48971 0.0
H398 H 0.67224 1.0586 0.52055 0.0
C399 C 0.78111 0.16375 0.43429 0.0
C400 C 0.74789 0.11731 0.40833 0.0
H401 H 0.79497 0.21134 0.50746 0.0
H402 H 0.80885 0.19554 0.41079 0.0
C403 C 0.71197 1.0776 0.44117 0.0
C404 C 0.47085 0.74686 0.35189 0.0
C405 C 0.45349 0.79198 0.36305 0.0
H406 H 0.49405 0.68016 0.38313 0.0
C407 C 0.45034 0.80397 0.41988 0.0
H408 H 0.47139 0.73406 0.30933 0.0
C409 C 0.46275 0.7723 0.46281 0.0
C410 C 0.47764 0.72588 0.45162 0.0
H411 H 0.43463 0.8362 0.43133 0.0
H412 H 0.45835 0.78334 0.50524 0.0
C413 C 0.48249 0.71473 0.39479 0.0
C414 C 0.11557 0.4985 0.92737 0.0
C415 C 0.1376 0.52483 0.87747 0.0
H416 H 0.07957 0.50219 1.00866 0.0
C417 C 0.13688 0.57766 0.87401 0.0
H418 H 0.11516 0.45817 0.93311 0.0
C419 C 0.11813 0.60344 0.91827 0.0
C420 C 0.09678 0.5777 0.96833 0.0
H421 H 0.15115 0.59974 0.83664 0.0
H422 H 0.12008 0.64425 0.91285 0.0
C423 C 0.09513 0.5241 0.9714 0.0
C424 C 0.55643 0.95997 0.94343 0.0
C425 C 0.61182 0.96345 0.92962 0.0
H426 H 0.50242 0.99542 0.98669 0.0
C427 C 0.656 1.0078 0.94639 0.0
H428 H 0.52209 0.92578 0.93114 0.0
C429 C 0.6452 1.04759 0.97783 0.0
C430 C 0.58998 1.04338 0.99361 0.0
H431 H 0.69919 1.01051 0.93694 0.0
H432 H 0.68031 1.08045 0.99168 0.0
C433 C 0.5455 0.99975 0.97512 0.0
C434 C 0.85384 0.20003 0.61257 0.0
C435 C 0.80251 0.16027 0.6193 0.0
H436 H 0.94284 0.21872 0.60044 0.0
C437 C 0.80252 0.10759 0.62108 0.0
H438 H 0.8547 0.2407 0.60895 0.0
C439 C 0.85273 0.09471 0.61565 0.0
C440 C 0.90394 0.13434 0.60746 0.0
H441 H 0.76313 1.0763 0.62487 0.0
H442 H 0.85129 1.05371 0.61673 0.0
C443 C 0.90402 0.1872 0.60656 0.0
C444 C 0.28185 0.70915 0.21328 0.0
C445 C 0.30015 0.76344 0.22455 0.0
H446 H 0.21891 0.64424 0.17574 0.0
C447 C 0.26759 0.79444 0.20439 0.0
H448 H 0.30637 0.68444 0.22769 0.0
C449 C 0.21778 0.77173 0.17392 0.0
C450 C 0.19905 0.71729 0.16297 0.0
H451 H 0.28056 0.83634 0.21276 0.0
H452 H 0.19336 0.79671 0.15995 0.0
C453 C 0.23197 0.68636 0.18297 0.0
C454 C 0.32158 0.50858 0.74362 0.0
C455 C 0.26624 0.50152 0.72361 0.0
H456 H 0.41117 0.53958 0.72976 0.0
C457 C 0.26136 0.51959 0.66948 0.0
H458 H 0.3275 0.49662 0.78545 0.0
C459 C 0.30963 0.54398 0.63704 0.0
C460 C 0.36502 0.55307 0.65798 0.0
H461 H 0.22008 0.51682 0.65298 0.0
H462 H 0.30351 0.55738 0.59587 0.0
C463 C 0.36984 0.53426 0.71185 0.0
C464 C 0.74123 0.85707 0.97867 0.0
C465 C 0.70761 0.83443 0.93284 0.0
H466 H 0.81235 0.8584 1.02934 0.0
C467 C 0.71708 0.79141 0.9056 0.0
H468 H 0.73561 0.89129 0.99917 0.0
C469 C 0.76169 0.77314 0.92193 0.0
C470 C 0.79772 0.79804 0.9656 0.0
H471 H 0.69215 0.77433 0.86944 0.0
H472 H 0.77006 0.74179 0.89821 0.0
C473 C 0.78576 0.83892 0.99506 0.0
C474 C 0.44763 0.93964 0.28172 0.0
C475 C 0.47322 0.89874 0.27679 0.0
H476 H 0.4452 1.017 0.25638 0.0
C477 C 0.52355 0.91169 0.24621 0.0
H478 H 0.40766 0.93133 0.30272 0.0
C479 C 0.54446 0.96058 0.21842 0.0
C480 C 0.51625 0.99956 0.21934 0.0
H481 H 0.54376 0.88163 0.23889 0.0
H482 H 0.58179 0.96661 0.19344 0.0
C483 C 0.46838 0.98871 0.25352 0.0
C484 C 0.16204 0.34546 0.75782 0.0
C485 C 0.16552 0.39412 0.73226 0.0
H486 H 0.14246 0.26086 0.75042 0.0
C487 C 0.15074 0.39138 0.67541 0.0
H488 H 0.1718 0.34508 0.80155 0.0
C489 C 0.13273 0.34243 0.6459 0.0
C490 C 0.12872 0.29355 0.67156 0.0
H491 H 0.15095 0.42701 0.65404 0.0
H492 H 0.12106 0.34294 0.60267 0.0
C493 C 0.14468 0.29662 0.72822 0.0
C494 C 0.60585 0.25142 0.62559 0.0
C495 C 0.66334 0.25833 0.61716 0.0
H496 H 0.53793 0.28498 0.61904 0.0
C497 C 0.6979 0.30752 0.59953 0.0
H498 H 0.5784 0.21359 0.63862 0.0
C499 C 0.67503 0.34823 0.58789 0.0
C500 C 0.61684 0.34062 0.59327 0.0
H501 H 0.74203 0.31331 0.59135 0.0
H502 H 0.70257 0.38476 0.57175 0.0
C503 C 0.58272 0.29205 0.61361 0.0
loop_
_geom_bond_atom_site_label_1
_geom_bond_atom_site_label_2
_geom_bond_distance
_geom_bond_site_symmetry_2
_ccdc_geom_bond_type
C0 N1 1.317 . S
C0 N2 1.348 . S
C0 C3 1.485 . S
N1 C0 1.317 . S
N1 N5 1.370 . S
N2 C0 1.348 . S
N2 C4 1.346 . S
C3 C0 1.485 . S
C3 H7 0.960 . S
C3 H8 0.961 . S
C3 H9 0.960 . S
C4 N2 1.346 . S
C4 N5 1.307 . S
C4 C6 1.486 . S
N5 N1 1.370 . S
N5 C4 1.307 . S
C6 C4 1.486 . S
C6 H10 0.960 . S
C6 H11 0.960 . S
C6 H12 0.959 . S
H7 C3 0.960 . S
H8 C3 0.961 . S
H9 C3 0.960 . S
H10 C6 0.960 . S
H11 C6 0.960 . S
H12 C6 0.959 . S
C13 N14 1.317 . S
C13 N15 1.348 . S
C13 C16 1.485 . S
N14 C13 1.317 . S
N14 N18 1.370 . S
N15 C13 1.348 . S
N15 C17 1.346 . S
C16 C13 1.485 . S
C16 H20 0.960 . S
C16 H21 0.961 . S
C16 H22 0.960 . S
C17 N15 1.346 . S
C17 N18 1.307 . S
C17 C19 1.486 . S
N18 N14 1.370 . S
N18 C17 1.307 . S
C19 C17 1.486 . S
C19 H23 0.960 . S
C19 H24 0.960 . S
C19 H25 0.959 . S
H20 C16 0.960 . S
H21 C16 0.961 . S
H22 C16 0.960 . S
H23 C19 0.960 . S
H24 C19 0.960 . S
H25 C19 0.959 . S
C26 N27 1.317 . S
C26 N28 1.348 . S
C26 C29 1.485 . S
N27 C26 1.317 . S
N27 N31 1.370 . S
N28 C26 1.348 . S
N28 C30 1.346 . S
C29 C26 1.485 . S
C29 H33 0.960 . S
C29 H34 0.961 . S
C29 H35 0.960 . S
C30 N28 1.346 . S
C30 N31 1.307 . S
C30 C32 1.486 . S
N31 N27 1.370 . S
N31 C30 1.307 . S
C32 C30 1.486 . S
C32 H36 0.960 . S
C32 H37 0.960 . S
C32 H38 0.959 . S
H33 C29 0.960 . S
H34 C29 0.961 . S
H35 C29 0.960 . S
H36 C32 0.960 . S
H37 C32 0.960 . S
H38 C32 0.959 . S
C39 N40 1.317 . S
C39 N41 1.348 . S
C39 C42 1.485 . S
N40 C39 1.317 . S
N40 N44 1.370 . S
N41 C39 1.348 . S
N41 C43 1.346 . S
C42 C39 1.485 . S
C42 H46 0.960 . S
C42 H47 0.961 . S
C42 H48 0.960 . S
C43 N41 1.346 . S
C43 N44 1.307 . S
C43 C45 1.486 . S
N44 N40 1.370 . S
N44 C43 1.307 . S
C45 C43 1.486 . S
C45 H49 0.960 . S
C45 H50 0.960 . S
C45 H51 0.959 . S
H46 C42 0.960 . S
H47 C42 0.961 . S
H48 C42 0.960 . S
H49 C45 0.960 . S
H50 C45 0.960 . S
H51 C45 0.959 . S
C52 N53 1.317 . S
C52 N54 1.348 . S
C52 C55 1.485 . S
N53 C52 1.317 . S
N53 N57 1.370 . S
N54 C52 1.348 . S
N54 C56 1.346 . S
C55 C52 1.485 . S
C55 H59 0.960 . S
C55 H60 0.961 . S
C55 H61 0.960 . S
C56 N54 1.346 . S
C56 N57 1.307 . S
C56 C58 1.486 . S
N57 N53 1.370 . S
N57 C56 1.307 . S
C58 C56 1.486 . S
C58 H62 0.960 . S
C58 H63 0.960 . S
C58 H64 0.959 . S
H59 C55 0.960 . S
H60 C55 0.961 . S
H61 C55 0.960 . S
H62 C58 0.960 . S
H63 C58 0.960 . S
H64 C58 0.959 . S
C65 N66 1.317 . S
C65 N67 1.348 . S
C65 C68 1.485 . S
N66 C65 1.317 . S
N66 N70 1.370 . S
N67 C65 1.348 . S
N67 C69 1.346 . S
C68 C65 1.485 . S
C68 H72 0.960 . S
C68 H73 0.961 . S
C68 H74 0.960 . S
C69 N67 1.346 . S
C69 N70 1.307 . S
C69 C71 1.486 . S
N70 N66 1.370 . S
N70 C69 1.307 . S
C71 C69 1.486 . S
C71 H75 0.960 . S
C71 H76 0.960 . S
C71 H77 0.959 . S
H72 C68 0.960 . S
H73 C68 0.961 . S
H74 C68 0.960 . S
H75 C71 0.960 . S
H76 C71 0.960 . S
H77 C71 0.959 . S
C78 N79 1.317 . S
C78 N80 1.348 . S
C78 C81 1.485 . S
N79 C78 1.317 . S
N79 N83 1.370 . S
N80 C78 1.348 . S
N80 C82 1.346 . S
C81 C78 1.485 . S
C81 H85 0.960 . S
C81 H86 0.961 . S
C81 H87 0.960 . S
C82 N80 1.346 . S
C82 N83 1.307 . S
C82 C84 1.486 . S
N83 N79 1.370 . S
N83 C82 1.307 . S
C84 C82 1.486 . S
C84 H88 0.960 . S
C84 H89 0.960 . S
C84 H90 0.959 . S
H85 C81 0.960 . S
H86 C81 0.961 . S
H87 C81 0.960 . S
H88 C84 0.960 . S
H89 C84 0.960 . S
H90 C84 0.959 . S
C91 N92 1.317 . S
C91 N93 1.348 . S
C91 C94 1.485 . S
N92 C91 1.317 . S
N92 N96 1.370 . S
N93 C91 1.348 . S
N93 C95 1.346 . S
C94 C91 1.485 . S
C94 H98 0.960 . S
C94 H99 0.961 . S
C94 H100 0.960 . S
C95 N93 1.346 . S
C95 N96 1.307 . S
C95 C97 1.486 . S
N96 N92 1.370 . S
N96 C95 1.307 . S
C97 C95 1.486 . S
C97 H101 0.960 . S
C97 H102 0.960 . S
C97 H103 0.959 . S
H98 C94 0.960 . S
H99 C94 0.961 . S
H100 C94 0.960 . S
H101 C97 0.960 . S
H102 C97 0.960 . S
H103 C97 0.959 . S
Sm104 C106 2.846 . S
Sm104 O124 2.543 . S
Sm104 O125 2.450 . S
Sm104 O126 2.681 . S
Sm104 O127 2.464 . S
Sm104 O128 2.396 . S
Sm104 O132 2.386 . S
Sm104 O135 2.408 1_545 S
Sm105 C115 2.851 1_545 S
Sm105 O126 2.378 1_655 S
Sm105 O129 2.403 1_655 S
Sm105 O130 2.543 1_545 S
Sm105 O131 2.458 1_545 S
Sm105 O132 2.681 1_655 S
Sm105 O133 2.471 . S
Sm105 O134 2.398 1_545 S
C106 Sm104 2.846 . S
C106 C107 1.506 . S
C106 O124 1.261 . S
C106 O125 1.242 . S
C107 C106 1.506 . S
C107 C108 1.358 . S
C107 C112 1.382 . S
C108 C107 1.358 . S
C108 C109 1.385 . S
C108 H136 0.930 . S
C109 C108 1.385 . S
C109 C110 1.395 . S
C109 H137 0.929 . S
C110 C109 1.395 . S
C110 C111 1.335 . S
C111 C110 1.335 . S
C111 C112 1.398 . S
C111 H138 0.930 . S
C112 C107 1.382 . S
C112 C111 1.398 . S
C112 H139 0.929 . S
C113 O126 1.271 1_565 S
C113 O127 1.251 1_565 S
C114 O128 1.252 . S
C114 O129 1.272 . S
C115 Sm105 2.851 1_565 S
C115 C116 1.506 . S
C115 O130 1.261 . S
C115 O131 1.242 . S
C116 C115 1.506 . S
C116 C117 1.358 . S
C116 C121 1.382 . S
C117 C116 1.358 . S
C117 C118 1.385 . S
C117 H140 0.930 . S
C118 C117 1.385 . S
C118 C119 1.395 . S
C118 H141 0.929 . S
C119 C118 1.395 . S
C119 C120 1.335 . S
C120 C119 1.335 . S
C120 C121 1.398 . S
C120 H142 0.930 . S
C121 C116 1.382 . S
C121 C120 1.398 . S
C121 H143 0.929 . S
C122 O132 1.271 1_655 S
C122 O133 1.251 . S
C123 O134 1.252 . S
C123 O135 1.272 1_655 S
O124 Sm104 2.543 . S
O124 C106 1.261 . S
O125 Sm104 2.450 . S
O125 C106 1.242 . S
O126 Sm104 2.681 . S
O126 Sm105 2.378 1_455 S
O126 C113 1.271 1_545 S
O127 Sm104 2.464 . S
O127 C113 1.251 1_545 S
O128 Sm104 2.396 . S
O128 C114 1.252 . S
O129 Sm105 2.403 1_455 S
O129 C114 1.272 . S
O130 Sm105 2.543 1_565 S
O130 C115 1.261 . S
O131 Sm105 2.458 1_565 S
O131 C115 1.242 . S
O132 Sm104 2.386 . S
O132 Sm105 2.681 1_455 S
O132 C122 1.271 1_455 S
O133 Sm105 2.471 . S
O133 C122 1.251 . S
O134 Sm105 2.398 1_565 S
O134 C123 1.252 . S
O135 Sm104 2.408 1_565 S
O135 C123 1.272 1_455 S
H136 C108 0.930 . S
H137 C109 0.929 . S
H138 C111 0.930 . S
H139 C112 0.929 . S
H140 C117 0.930 . S
H141 C118 0.929 . S
H142 C120 0.930 . S
H143 C121 0.929 . S
Sm144 C146 2.846 . S
Sm144 O164 2.543 . S
Sm144 O165 2.450 . S
Sm144 O166 2.681 . S
Sm144 O167 2.464 1_545 S
Sm144 O168 2.396 . S
Sm144 O172 2.386 . S
Sm144 O175 2.408 . S
Sm145 C155 2.846 1_554 S
Sm145 O166 2.386 . S
Sm145 O169 2.408 . S
Sm145 O170 2.543 1_544 S
Sm145 O171 2.450 1_554 S
Sm145 O172 2.681 . S
Sm145 O173 2.464 1_554 S
Sm145 O174 2.396 1_554 S
C146 Sm144 2.846 . S
C146 C147 1.506 . S
C146 O164 1.261 . S
C146 O165 1.242 . S
C147 C146 1.506 . S
C147 C148 1.358 . S
C147 C152 1.382 . S
C148 C147 1.358 . S
C148 C149 1.385 . S
C148 H176 0.930 . S
C149 C148 1.385 . S
C149 C150 1.395 . S
C149 H177 0.929 . S
C150 C149 1.395 . S
C150 C151 1.335 . S
C151 C150 1.335 . S
C151 C152 1.398 . S
C151 H178 0.930 . S
C152 C147 1.382 . S
C152 C151 1.398 . S
C152 H179 0.929 . S
C153 O166 1.271 1_565 S
C153 O167 1.251 . S
C154 O168 1.252 . S
C154 O169 1.272 . S
C155 Sm145 2.846 1_556 S
C155 C156 1.506 1_545 S
C155 O170 1.261 1_545 S
C155 O171 1.242 . S
C156 C155 1.506 1_565 S
C156 C157 1.358 . S
C156 C161 1.382 1_565 S
C157 C156 1.358 . S
C157 C158 1.385 . S
C157 H180 0.930 . S
C158 C157 1.385 . S
C158 C159 1.395 . S
C158 H181 0.929 . S
C159 C158 1.395 . S
C159 C160 1.335 . S
C160 C159 1.335 . S
C160 C161 1.398 1_565 S
C160 H182 0.930 . S
C161 C156 1.382 1_545 S
C161 C160 1.398 1_545 S
C161 H183 0.929 . S
C162 O172 1.271 . S
C162 O173 1.251 1_554 S
C163 O174 1.252 . S
C163 O175 1.272 1_556 S
O164 Sm144 2.543 . S
O164 C146 1.261 . S
O165 Sm144 2.450 . S
O165 C146 1.242 . S
O166 Sm144 2.681 . S
O166 Sm145 2.386 . S
O166 C153 1.271 1_545 S
O167 Sm144 2.464 1_565 S
O167 C153 1.251 . S
O168 Sm144 2.396 . S
O168 C154 1.252 . S
O169 Sm145 2.408 . S
O169 C154 1.272 . S
O170 Sm145 2.543 1_566 S
O170 C155 1.261 1_565 S
O171 Sm145 2.450 1_556 S
O171 C155 1.242 . S
O172 Sm144 2.386 . S
O172 Sm145 2.681 . S
O172 C162 1.271 . S
O173 Sm145 2.464 1_556 S
O173 C162 1.251 1_556 S
O174 Sm145 2.396 1_556 S
O174 C163 1.252 . S
O175 Sm144 2.408 . S
O175 C163 1.272 1_554 S
H176 C148 0.930 . S
H177 C149 0.929 . S
H178 C151 0.930 . S
H179 C152 0.929 . S
H180 C157 0.930 . S
H181 C158 0.929 . S
H182 C160 0.930 . S
H183 C161 0.929 . S
Sm184 C186 2.846 . S
Sm184 O204 2.543 . S
Sm184 O205 2.450 . S
Sm184 O206 2.681 . S
Sm184 O207 2.464 . S
Sm184 O208 2.396 . S
Sm184 O212 2.386 . S
Sm184 O215 2.408 . S
Sm185 C195 2.846 . S
Sm185 O206 2.386 . S
Sm185 O209 2.408 . S
Sm185 O210 2.543 . S
Sm185 O211 2.450 . S
Sm185 O212 2.681 . S
Sm185 O213 2.464 . S
Sm185 O214 2.396 . S
C186 Sm184 2.846 . S
C186 C187 1.506 . S
C186 O204 1.261 . S
C186 O205 1.242 . S
C187 C186 1.506 . S
C187 C188 1.358 . S
C187 C192 1.382 . S
C188 C187 1.358 . S
C188 C189 1.385 . S
C188 H216 0.930 . S
C189 C188 1.385 . S
C189 C190 1.395 . S
C189 H217 0.929 . S
C190 C189 1.395 . S
C190 C191 1.335 . S
C191 C190 1.335 . S
C191 C192 1.398 . S
C191 H218 0.930 . S
C192 C187 1.382 . S
C192 C191 1.398 . S
C192 H219 0.929 . S
C193 O206 1.271 . S
C193 O207 1.251 . S
C194 O208 1.252 . S
C194 O209 1.272 . S
C195 Sm185 2.846 . S
C195 C196 1.506 . S
C195 O210 1.261 . S
C195 O211 1.242 . S
C196 C195 1.506 . S
C196 C197 1.358 . S
C196 C201 1.382 . S
C197 C196 1.358 . S
C197 C198 1.385 . S
C197 H220 0.930 . S
C198 C197 1.385 . S
C198 C199 1.395 . S
C198 H221 0.929 . S
C199 C198 1.395 . S
C199 C200 1.335 . S
C200 C199 1.335 . S
C200 C201 1.398 . S
C200 H222 0.930 . S
C201 C196 1.382 . S
C201 C200 1.398 . S
C201 H223 0.929 . S
C202 O212 1.271 . S
C202 O213 1.251 . S
C203 O214 1.252 . S
C203 O215 1.272 . S
O204 Sm184 2.543 . S
O204 C186 1.261 . S
O205 Sm184 2.450 . S
O205 C186 1.242 . S
O206 Sm184 2.681 . S
O206 Sm185 2.386 . S
O206 C193 1.271 . S
O207 Sm184 2.464 . S
O207 C193 1.251 . S
O208 Sm184 2.396 . S
O208 C194 1.252 . S
O209 Sm185 2.408 . S
O209 C194 1.272 . S
O210 Sm185 2.543 . S
O210 C195 1.261 . S
O211 Sm185 2.450 . S
O211 C195 1.242 . S
O212 Sm184 2.386 . S
O212 Sm185 2.681 . S
O212 C202 1.271 . S
O213 Sm185 2.464 . S
O213 C202 1.251 . S
O214 Sm185 2.396 . S
O214 C203 1.252 . S
O215 Sm184 2.408 . S
O215 C203 1.272 . S
H216 C188 0.930 . S
H217 C189 0.929 . S
H218 C191 0.930 . S
H219 C192 0.929 . S
H220 C197 0.930 . S
H221 C198 0.929 . S
H222 C200 0.930 . S
H223 C201 0.929 . S
Sm224 C226 2.846 . S
Sm224 O244 2.543 . S
Sm224 O245 2.450 . S
Sm224 O246 2.681 1_455 S
Sm224 O247 2.464 1_455 S
Sm224 O248 2.396 . S
Sm224 O252 2.386 1_554 S
Sm224 O255 2.408 1_455 S
Sm225 C235 2.846 1_455 S
Sm225 O246 2.386 1_456 S
Sm225 O249 2.408 1_556 S
Sm225 O250 2.543 1_455 S
Sm225 O251 2.450 1_455 S
Sm225 O252 2.681 . S
Sm225 O253 2.464 . S
Sm225 O254 2.396 1_455 S
C226 Sm224 2.846 . S
C226 C227 1.506 . S
C226 O244 1.261 . S
C226 O245 1.242 . S
C227 C226 1.506 . S
C227 C228 1.358 . S
C227 C232 1.382 . S
C228 C227 1.358 . S
C228 C229 1.385 . S
C228 H256 0.930 . S
C229 C228 1.385 . S
C229 C230 1.395 . S
C229 H257 0.929 . S
C230 C229 1.395 . S
C230 C231 1.335 . S
C231 C230 1.335 . S
C231 C232 1.398 . S
C231 H258 0.930 . S
C232 C227 1.382 . S
C232 C231 1.398 . S
C232 H259 0.929 . S
C233 O246 1.271 . S
C233 O247 1.251 . S
C234 O248 1.252 . S
C234 O249 1.272 . S
C235 Sm225 2.846 1_655 S
C235 C236 1.506 . S
C235 O250 1.261 . S
C235 O251 1.242 . S
C236 C235 1.506 . S
C236 C237 1.358 . S
C236 C241 1.382 . S
C237 C236 1.358 . S
C237 C238 1.385 . S
C237 H260 0.930 . S
C238 C237 1.385 . S
C238 C239 1.395 . S
C238 H261 0.929 . S
C239 C238 1.395 . S
C239 C240 1.335 . S
C240 C239 1.335 . S
C240 C241 1.398 . S
C240 H262 0.930 . S
C241 C236 1.382 . S
C241 C240 1.398 . S
C241 H263 0.929 . S
C242 O252 1.271 . S
C242 O253 1.251 . S
C243 O254 1.252 . S
C243 O255 1.272 1_556 S
O244 Sm224 2.543 . S
O244 C226 1.261 . S
O245 Sm224 2.450 . S
O245 C226 1.242 . S
O246 Sm224 2.681 1_655 S
O246 Sm225 2.386 1_654 S
O246 C233 1.271 . S
O247 Sm224 2.464 1_655 S
O247 C233 1.251 . S
O248 Sm224 2.396 . S
O248 C234 1.252 . S
O249 Sm225 2.408 1_554 S
O249 C234 1.272 . S
O250 Sm225 2.543 1_655 S
O250 C235 1.261 . S
O251 Sm225 2.450 1_655 S
O251 C235 1.242 . S
O252 Sm224 2.386 1_556 S
O252 Sm225 2.681 . S
O252 C242 1.271 . S
O253 Sm225 2.464 . S
O253 C242 1.251 . S
O254 Sm225 2.396 1_655 S
O254 C243 1.252 . S
O255 Sm224 2.408 1_655 S
O255 C243 1.272 1_554 S
H256 C228 0.930 . S
H257 C229 0.929 . S
H258 C231 0.930 . S
H259 C232 0.929 . S
H260 C237 0.930 . S
H261 C238 0.929 . S
H262 C240 0.930 . S
H263 C241 0.929 . S
C264 C265 1.387 . S
C264 H268 0.950 . S
C264 C273 1.390 . S
C265 C264 1.387 . S
C265 C267 1.387 . S
H266 C273 0.950 . S
C267 C265 1.387 . S
C267 C269 1.390 . S
C267 H271 0.950 . S
H268 C264 0.950 . S
C269 C267 1.390 . S
C269 C270 1.387 . S
C269 H272 0.950 . S
C270 C269 1.387 . S
C270 C273 1.387 . S
H271 C267 0.950 . S
H272 C269 0.950 . S
C273 C264 1.390 . S
C273 H266 0.950 . S
C273 C270 1.387 . S
C274 C275 1.387 . S
C274 H278 0.950 . S
C274 C283 1.390 . S
C275 C274 1.387 . S
C275 C277 1.387 . S
H276 C283 0.950 . S
C277 C275 1.387 . S
C277 C279 1.390 . S
C277 H281 0.950 . S
H278 C274 0.950 . S
C279 C277 1.390 . S
C279 C280 1.387 . S
C279 H282 0.950 . S
C280 C279 1.387 . S
C280 C283 1.387 . S
H281 C277 0.950 . S
H282 C279 0.950 . S
C283 C274 1.390 . S
C283 H276 0.950 . S
C283 C280 1.387 . S
C284 C285 1.387 . S
C284 H288 0.950 . S
C284 C293 1.390 . S
C285 C284 1.387 . S
C285 C287 1.387 . S
H286 C293 0.950 . S
C287 C285 1.387 . S
C287 C289 1.390 . S
C287 H291 0.950 . S
H288 C284 0.950 . S
C289 C287 1.390 . S
C289 C290 1.387 . S
C289 H292 0.950 . S
C290 C289 1.387 . S
C290 C293 1.387 . S
H291 C287 0.950 . S
H292 C289 0.950 . S
C293 C284 1.390 . S
C293 H286 0.950 . S
C293 C290 1.387 . S
C294 C295 1.387 . S
C294 H298 0.950 . S
C294 C303 1.390 . S
C295 C294 1.387 . S
C295 C297 1.387 . S
H296 C303 0.950 . S
C297 C295 1.387 . S
C297 C299 1.390 . S
C297 H301 0.950 . S
H298 C294 0.950 . S
C299 C297 1.390 . S
C299 C300 1.387 . S
C299 H302 0.950 . S
C300 C299 1.387 . S
C300 C303 1.387 . S
H301 C297 0.950 . S
H302 C299 0.950 . S
C303 C294 1.390 . S
C303 H296 0.950 . S
C303 C300 1.387 . S
C304 C305 1.387 . S
C304 H308 0.950 . S
C304 C313 1.390 . S
C305 C304 1.387 . S
C305 C307 1.387 . S
H306 C313 0.950 . S
C307 C305 1.387 . S
C307 C309 1.390 . S
C307 H311 0.950 . S
H308 C304 0.950 . S
C309 C307 1.390 . S
C309 C310 1.387 . S
C309 H312 0.950 . S
C310 C309 1.387 . S
C310 C313 1.387 . S
H311 C307 0.950 . S
H312 C309 0.950 . S
C313 C304 1.390 . S
C313 H306 0.950 . S
C313 C310 1.387 . S
C314 C315 1.387 . S
C314 H318 0.950 . S
C314 C323 1.390 . S
C315 C314 1.387 . S
C315 C317 1.387 . S
H316 C323 0.950 . S
C317 C315 1.387 . S
C317 C319 1.390 . S
C317 H321 0.950 . S
H318 C314 0.950 . S
C319 C317 1.390 . S
C319 C320 1.387 . S
C319 H322 0.950 . S
C320 C319 1.387 . S
C320 C323 1.387 . S
H321 C317 0.950 . S
H322 C319 0.950 . S
C323 C314 1.390 . S
C323 H316 0.950 . S
C323 C320 1.387 . S
C324 C325 1.387 . S
C324 H328 0.950 . S
C324 C333 1.390 . S
C325 C324 1.387 . S
C325 C327 1.387 . S
H326 C333 0.950 1_554 S
C327 C325 1.387 . S
C327 C329 1.390 . S
C327 H331 0.950 . S
H328 C324 0.950 . S
C329 C327 1.390 . S
C329 C330 1.387 . S
C329 H332 0.950 . S
C330 C329 1.387 . S
C330 C333 1.387 . S
H331 C327 0.950 . S
H332 C329 0.950 . S
C333 C324 1.390 . S
C333 H326 0.950 1_556 S
C333 C330 1.387 . S
C334 C335 1.387 . S
C334 H338 0.950 . S
C334 C343 1.390 . S
C335 C334 1.387 . S
C335 C337 1.387 . S
H336 C343 0.950 . S
C337 C335 1.387 . S
C337 C339 1.390 . S
C337 H341 0.950 . S
H338 C334 0.950 . S
C339 C337 1.390 . S
C339 C340 1.387 . S
C339 H342 0.950 . S
C340 C339 1.387 . S
C340 C343 1.387 . S
H341 C337 0.950 . S
H342 C339 0.950 . S
C343 C334 1.390 . S
C343 H336 0.950 . S
C343 C340 1.387 . S
C344 C345 1.387 . S
C344 H348 0.950 . S
C344 C353 1.390 . S
C345 C344 1.387 . S
C345 C347 1.387 . S
H346 C353 0.950 . S
C347 C345 1.387 . S
C347 C349 1.390 . S
C347 H351 0.950 . S
H348 C344 0.950 . S
C349 C347 1.390 . S
C349 C350 1.387 . S
C349 H352 0.950 . S
C350 C349 1.387 . S
C350 C353 1.387 . S
H351 C347 0.950 . S
H352 C349 0.950 . S
C353 C344 1.390 . S
C353 H346 0.950 . S
C353 C350 1.387 . S
C354 C355 1.387 . S
C354 H358 0.950 . S
C354 C363 1.390 . S
C355 C354 1.387 . S
C355 C357 1.387 . S
H356 C363 0.950 . S
C357 C355 1.387 . S
C357 C359 1.390 . S
C357 H361 0.950 . S
H358 C354 0.950 . S
C359 C357 1.390 . S
C359 C360 1.387 . S
C359 H362 0.950 . S
C360 C359 1.387 . S
C360 C363 1.387 . S
H361 C357 0.950 . S
H362 C359 0.950 . S
C363 C354 1.390 . S
C363 H356 0.950 . S
C363 C360 1.387 . S
C364 C365 1.387 . S
C364 H368 0.950 . S
C364 C373 1.390 . S
C365 C364 1.387 . S
C365 C367 1.387 . S
H366 C373 0.950 . S
C367 C365 1.387 . S
C367 C369 1.390 . S
C367 H371 0.950 . S
H368 C364 0.950 . S
C369 C367 1.390 . S
C369 C370 1.387 . S
C369 H372 0.950 1_655 S
C370 C369 1.387 . S
C370 C373 1.387 . S
H371 C367 0.950 . S
H372 C369 0.950 1_455 S
C373 C364 1.390 . S
C373 H366 0.950 . S
C373 C370 1.387 . S
C374 C375 1.387 . S
C374 H378 0.950 . S
C374 C383 1.390 . S
C375 C374 1.387 . S
C375 C377 1.387 . S
H376 C383 0.950 . S
C377 C375 1.387 . S
C377 C379 1.390 . S
C377 H381 0.950 . S
H378 C374 0.950 . S
C379 C377 1.390 . S
C379 C380 1.387 . S
C379 H382 0.950 . S
C380 C379 1.387 . S
C380 C383 1.387 . S
H381 C377 0.950 . S
H382 C379 0.950 . S
C383 C374 1.390 . S
C383 H376 0.950 . S
C383 C380 1.387 . S
C384 C385 1.387 . S
C384 H388 0.950 . S
C384 C393 1.390 . S
C385 C384 1.387 . S
C385 C387 1.387 . S
H386 C393 0.950 . S
C387 C385 1.387 . S
C387 C389 1.390 . S
C387 H391 0.950 . S
H388 C384 0.950 . S
C389 C387 1.390 . S
C389 C390 1.387 . S
C389 H392 0.950 . S
C390 C389 1.387 . S
C390 C393 1.387 . S
H391 C387 0.950 . S
H392 C389 0.950 . S
C393 C384 1.390 . S
C393 H386 0.950 . S
C393 C390 1.387 . S
C394 C395 1.387 . S
C394 H398 0.950 . S
C394 C403 1.390 . S
C395 C394 1.387 . S
C395 C397 1.387 . S
H396 C403 0.950 . S
C397 C395 1.387 . S
C397 C399 1.390 . S
C397 H401 0.950 . S
H398 C394 0.950 . S
C399 C397 1.390 . S
C399 C400 1.387 . S
C399 H402 0.950 . S
C400 C399 1.387 . S
C400 C403 1.387 . S
H401 C397 0.950 . S
H402 C399 0.950 . S
C403 C394 1.390 . S
C403 H396 0.950 . S
C403 C400 1.387 . S
C404 C405 1.387 . S
C404 H408 0.950 . S
C404 C413 1.390 . S
C405 C404 1.387 . S
C405 C407 1.387 . S
H406 C413 0.950 . S
C407 C405 1.387 . S
C407 C409 1.390 . S
C407 H411 0.950 . S
H408 C404 0.950 . S
C409 C407 1.390 . S
C409 C410 1.387 . S
C409 H412 0.950 . S
C410 C409 1.387 . S
C410 C413 1.387 . S
H411 C407 0.950 . S
H412 C409 0.950 . S
C413 C404 1.390 . S
C413 H406 0.950 . S
C413 C410 1.387 . S
C414 C415 1.387 . S
C414 H418 0.950 . S
C414 C423 1.390 . S
C415 C414 1.387 . S
C415 C417 1.387 . S
H416 C423 0.950 . S
C417 C415 1.387 . S
C417 C419 1.390 . S
C417 H421 0.950 . S
H418 C414 0.950 . S
C419 C417 1.390 . S
C419 C420 1.387 . S
C419 H422 0.950 . S
C420 C419 1.387 . S
C420 C423 1.387 . S
H421 C417 0.950 . S
H422 C419 0.950 . S
C423 C414 1.390 . S
C423 H416 0.950 . S
C423 C420 1.387 . S
C424 C425 1.387 . S
C424 H428 0.950 . S
C424 C433 1.390 . S
C425 C424 1.387 . S
C425 C427 1.387 . S
H426 C433 0.950 . S
C427 C425 1.387 . S
C427 C429 1.390 . S
C427 H431 0.950 . S
H428 C424 0.950 . S
C429 C427 1.390 . S
C429 C430 1.387 . S
C429 H432 0.950 . S
C430 C429 1.387 . S
C430 C433 1.387 . S
H431 C427 0.950 . S
H432 C429 0.950 . S
C433 C424 1.390 . S
C433 H426 0.950 . S
C433 C430 1.387 . S
C434 C435 1.387 . S
C434 H438 0.950 . S
C434 C443 1.390 . S
C435 C434 1.387 . S
C435 C437 1.387 . S
H436 C443 0.950 . S
C437 C435 1.387 . S
C437 C439 1.390 . S
C437 H441 0.950 . S
H438 C434 0.950 . S
C439 C437 1.390 . S
C439 C440 1.387 . S
C439 H442 0.950 . S
C440 C439 1.387 . S
C440 C443 1.387 . S
H441 C437 0.950 . S
H442 C439 0.950 . S
C443 C434 1.390 . S
C443 H436 0.950 . S
C443 C440 1.387 . S
C444 C445 1.387 . S
C444 H448 0.950 . S
C444 C453 1.390 . S
C445 C444 1.387 . S
C445 C447 1.387 . S
H446 C453 0.950 . S
C447 C445 1.387 . S
C447 C449 1.390 . S
C447 H451 0.950 . S
H448 C444 0.950 . S
C449 C447 1.390 . S
C449 C450 1.387 . S
C449 H452 0.950 . S
C450 C449 1.387 . S
C450 C453 1.387 . S
H451 C447 0.950 . S
H452 C449 0.950 . S
C453 C444 1.390 . S
C453 H446 0.950 . S
C453 C450 1.387 . S
C454 C455 1.387 . S
C454 H458 0.950 . S
C454 C463 1.390 . S
C455 C454 1.387 . S
C455 C457 1.387 . S
H456 C463 0.950 . S
C457 C455 1.387 . S
C457 C459 1.390 . S
C457 H461 0.950 . S
H458 C454 0.950 . S
C459 C457 1.390 . S
C459 C460 1.387 . S
C459 H462 0.950 . S
C460 C459 1.387 . S
C460 C463 1.387 . S
H461 C457 0.950 . S
H462 C459 0.950 . S
C463 C454 1.390 . S
C463 H456 0.950 . S
C463 C460 1.387 . S
C464 C465 1.387 . S
C464 H468 0.950 . S
C464 C473 1.390 . S
C465 C464 1.387 . S
C465 C467 1.387 . S
H466 C473 0.950 . S
C467 C465 1.387 . S
C467 C469 1.390 . S
C467 H471 0.950 . S
H468 C464 0.950 . S
C469 C467 1.390 . S
C469 C470 1.387 . S
C469 H472 0.950 . S
C470 C469 1.387 . S
C470 C473 1.387 . S
H471 C467 0.950 . S
H472 C469 0.950 . S
C473 C464 1.390 . S
C473 H466 0.950 . S
C473 C470 1.387 . S
C474 C475 1.387 . S
C474 H478 0.950 . S
C474 C483 1.390 . S
C475 C474 1.387 . S
C475 C477 1.387 . S
H476 C483 0.950 . S
C477 C475 1.387 . S
C477 C479 1.390 . S
C477 H481 0.950 . S
H478 C474 0.950 . S
C479 C477 1.390 . S
C479 C480 1.387 . S
C479 H482 0.950 . S
C480 C479 1.387 . S
C480 C483 1.387 . S
H481 C477 0.950 . S
H482 C479 0.950 . S
C483 C474 1.390 . S
C483 H476 0.950 . S
C483 C480 1.387 . S
C484 C485 1.387 . S
C484 H488 0.950 . S
C484 C493 1.390 . S
C485 C484 1.387 . S
C485 C487 1.387 . S
H486 C493 0.950 . S
C487 C485 1.387 . S
C487 C489 1.390 . S
C487 H491 0.950 . S
H488 C484 0.950 . S
C489 C487 1.390 . S
C489 C490 1.387 . S
C489 H492 0.950 . S
C490 C489 1.387 . S
C490 C493 1.387 . S
H491 C487 0.950 . S
H492 C489 0.950 . S
C493 C484 1.390 . S
C493 H486 0.950 . S
C493 C490 1.387 . S
C494 C495 1.387 . S
C494 H498 0.950 . S
C494 C503 1.390 . S
C495 C494 1.387 . S
C495 C497 1.387 . S
H496 C503 0.950 . S
C497 C495 1.387 . S
C497 C499 1.390 . S
C497 H501 0.950 . S
H498 C494 0.950 . S
C499 C497 1.390 . S
C499 C500 1.387 . S
C499 H502 0.950 . S
C500 C499 1.387 . S
C500 C503 1.387 . S
H501 C497 0.950 . S
H502 C499 0.950 . S
C503 C494 1.390 . S
C503 H496 0.950 . S
C503 C500 1.387 . S
C265 N1 0.968 . S
C270 C110 1.004 . S
C275 N18 1.121 . S
C280 C159 1.176 . S
C290 C194 2.191 . S
C285 N28 2.250 . S
C295 N40 2.676 . S
C300 C233 2.689 . S
C310 C154 2.273 . S
C305 N5 2.178 . S
C320 C113 0.583 . S
C315 N14 0.532 . S
C330 C243 2.052 . S
C325 N31 2.060 . S
C340 C202 1.593 . S
C335 N41 1.609 . S
C345 N2 1.320 . S
C350 C230 1.367 . S
C360 C162 2.473 1_556 S
C355 N27 2.552 . S
C365 N44 2.442 . S
C370 C123 2.507 . S
C375 N15 0.956 . S
C380 C199 0.963 . S
C390 C119 1.500 . S
C385 N57 1.584 . S
C395 N70 0.991 . S
C400 C150 1.076 . S
C405 N79 2.381 . S
C410 C203 2.412 . S
C415 N93 2.511 . S
C420 C242 2.494 . S
C425 N54 1.858 . S
C430 C163 2.047 1_565 S
C440 C122 1.323 . S
C435 N66 1.418 . S
C450 C234 1.591 . S
C445 N80 1.666 . S
C460 C193 1.831 . S
C455 N96 1.838 . S
C465 N53 1.536 . S
C470 C239 1.551 . S
C480 C153 2.206 . S
C475 N83 2.220 . S
C490 C114 2.671 . S
C485 N92 2.665 . S
C495 N67 1.167 . S
C500 C190 1.216 . S
