# Generated by pormake.
# Topology pyr, (3,6)-cn, num edge types: 1
# Building blocks:
#     Node 0, Type 0, BuildingBlock: BETDAH_clean_linker_0, # of connection points: 3
#     Node 1, Type 0, BuildingBlock: BETDAH_clean_linker_0, # of connection points: 3
#     Node 2, Type 0, BuildingBlock: BETDAH_clean_linker_0, # of connection points: 3
#     Node 3, Type 0, BuildingBlock: BETDAH_clean_linker_0, # of connection points: 3
#     Node 4, Type 0, BuildingBlock: BETDAH_clean_linker_0, # of connection points: 3
#     Node 5, Type 0, BuildingBlock: BETDAH_clean_linker_0, # of connection points: 3
#     Node 6, Type 0, BuildingBlock: BETDAH_clean_linker_0, # of connection points: 3
#     Node 7, Type 0, BuildingBlock: BETDAH_clean_linker_0, # of connection points: 3
#     Node 8, Type 1, BuildingBlock: BETDIP_clean_sbu_0, # of connection points: 6
#     Node 9, Type 1, BuildingBlock: BETDIP_clean_sbu_0, # of connection points: 6
#     Node 10, Type 1, BuildingBlock: BETDIP_clean_sbu_0, # of connection points: 6
#     Node 11, Type 1, BuildingBlock: BETDIP_clean_sbu_0, # of connection points: 6
#     Edge 12, Type (0, 1), BuildingBlock: MIFKUJ_clean_linker_0, # of connection points: 2
#     Edge 13, Type (0, 1), BuildingBlock: MIFKUJ_clean_linker_0, # of connection points: 2
#     Edge 14, Type (0, 1), BuildingBlock: MIFKUJ_clean_linker_0, # of connection points: 2
#     Edge 15, Type (0, 1), BuildingBlock: MIFKUJ_clean_linker_0, # of connection points: 2
#     Edge 16, Type (0, 1), BuildingBlock: MIFKUJ_clean_linker_0, # of connection points: 2
#     Edge 17, Type (0, 1), BuildingBlock: MIFKUJ_clean_linker_0, # of connection points: 2
#     Edge 18, Type (0, 1), BuildingBlock: MIFKUJ_clean_linker_0, # of connection points: 2
#     Edge 19, Type (0, 1), BuildingBlock: MIFKUJ_clean_linker_0, # of connection points: 2
#     Edge 20, Type (0, 1), BuildingBlock: MIFKUJ_clean_linker_0, # of connection points: 2
#     Edge 21, Type (0, 1), BuildingBlock: MIFKUJ_clean_linker_0, # of connection points: 2
#     Edge 22, Type (0, 1), BuildingBlock: MIFKUJ_clean_linker_0, # of connection points: 2
#     Edge 23, Type (0, 1), BuildingBlock: MIFKUJ_clean_linker_0, # of connection points: 2
#     Edge 24, Type (0, 1), BuildingBlock: MIFKUJ_clean_linker_0, # of connection points: 2
#     Edge 25, Type (0, 1), BuildingBlock: MIFKUJ_clean_linker_0, # of connection points: 2
#     Edge 26, Type (0, 1), BuildingBlock: MIFKUJ_clean_linker_0, # of connection points: 2
#     Edge 27, Type (0, 1), BuildingBlock: MIFKUJ_clean_linker_0, # of connection points: 2
#     Edge 28, Type (0, 1), BuildingBlock: MIFKUJ_clean_linker_0, # of connection points: 2
#     Edge 29, Type (0, 1), BuildingBlock: MIFKUJ_clean_linker_0, # of connection points: 2
#     Edge 30, Type (0, 1), BuildingBlock: MIFKUJ_clean_linker_0, # of connection points: 2
#     Edge 31, Type (0, 1), BuildingBlock: MIFKUJ_clean_linker_0, # of connection points: 2
#     Edge 32, Type (0, 1), BuildingBlock: MIFKUJ_clean_linker_0, # of connection points: 2
#     Edge 33, Type (0, 1), BuildingBlock: MIFKUJ_clean_linker_0, # of connection points: 2
#     Edge 34, Type (0, 1), BuildingBlock: MIFKUJ_clean_linker_0, # of connection points: 2
#     Edge 35, Type (0, 1), BuildingBlock: MIFKUJ_clean_linker_0, # of connection points: 2
# Relax obj value: 0.119
# Max RMSD: 0.209
# Mean RMSD: 0.135
data_MOF--net-pyr--node1-BETDIP_clean_sbu_0--node2-BETDAH_clean_linker_0--edge1-MIFKUJ_clean_linker_0
_symmetry_space_group_name_H-M    P1
_symmetry_Int_Tables_number       1
_symmetry_cell_setting            triclinic
loop_
_symmetry_equiv_pos_as_xyz
'x, y, z'
_cell_length_a     44.727839
_cell_length_b     51.192967
_cell_length_c     51.948769
_cell_angle_alpha  88.672334
_cell_angle_beta   93.757238
_cell_angle_gamma 109.13177
loop_
_atom_site_label
_atom_site_type_symbol
_atom_site_fract_x
_atom_site_fract_y
_atom_site_fract_z
_atom_type_partial_charge
H0 H 0.34434 0.22239 0.24403 0.0
H1 H 0.39069 0.28838 0.19288 0.0
H2 H 0.31956 0.29697 0.24048 0.0
C3 C 0.34753 0.24287 0.2362 0.0
C4 C 0.3295 0.25846 0.24491 0.0
C5 C 0.36967 0.2534 0.21747 0.0
C6 C 0.37392 0.28 0.20753 0.0
C7 C 0.35542 0.29542 0.21525 0.0
C8 C 0.33317 0.28464 0.23394 0.0
N9 N 0.3598 0.32174 0.20387 0.0
C10 C 0.33542 0.33283 0.19983 0.0
H11 H 0.26437 0.7747 0.74305 0.0
H12 H 0.20338 0.82352 0.72634 0.0
H13 H 0.20005 0.75733 0.6756 0.0
C14 C 0.24549 0.77874 0.7312 0.0
C15 C 0.23335 0.7632 0.70872 0.0
C16 C 0.23485 0.80055 0.73771 0.0
C17 C 0.21172 0.80676 0.7214 0.0
C18 C 0.19903 0.791 0.69902 0.0
C19 C 0.20977 0.76925 0.69297 0.0
N20 N 0.17569 0.79649 0.68199 0.0
C21 C 0.16773 0.82052 0.68235 0.0
H22 H 0.68725 0.35782 0.90591 0.0
H23 H 0.67495 0.4158 0.84794 0.0
H24 H 0.60027 0.33887 0.8589 0.0
C25 C 0.67317 0.36314 0.89015 0.0
C26 C 0.6426 0.34491 0.88372 0.0
C27 C 0.68513 0.38881 0.87756 0.0
C28 C 0.66616 0.39605 0.85765 0.0
C29 C 0.63549 0.37781 0.8508 0.0
C30 C 0.62394 0.35266 0.86415 0.0
N31 N 0.61457 0.3842 0.8317 0.0
C32 C 0.62236 0.40312 0.8114 0.0
H33 H 0.84078 0.73827 0.4009 0.0
H34 H 0.9219 0.75918 0.355 0.0
H35 H 0.84842 0.6803 0.34479 0.0
C36 C 0.8538 0.73307 0.38607 0.0
C37 C 0.84103 0.70708 0.37386 0.0
C38 C 0.88295 0.75228 0.37969 0.0
C39 C 0.89916 0.745 0.36008 0.0
C40 C 0.88694 0.71938 0.34704 0.0
C41 C 0.85783 0.70022 0.35423 0.0
N42 N 0.9059 0.71398 0.32789 0.0
C43 C 0.89844 0.69346 0.30876 0.0
H44 H 0.76448 0.81391 0.86311 0.0
H45 H 0.69257 0.77769 0.91669 0.0
H46 H 0.67927 0.83561 0.8598 0.0
C47 C 0.74201 0.81219 0.87086 0.0
C48 C 0.72353 0.82729 0.85926 0.0
C49 C 0.73144 0.79437 0.8918 0.0
C50 C 0.70128 0.79105 0.90045 0.0
C51 C 0.68248 0.80581 0.88906 0.0
C52 C 0.69372 0.82407 0.86856 0.0
N53 N 0.65236 0.80181 0.89869 0.0
C54 C 0.63803 0.82214 0.89779 0.0
H55 H 0.83285 0.24774 0.35963 0.0
H56 H 0.86875 0.3011 0.42523 0.0
H57 H 0.8077 0.32142 0.36642 0.0
C58 C 0.83488 0.26649 0.36992 0.0
C59 C 0.81845 0.28407 0.36004 0.0
C60 C 0.85267 0.27224 0.39359 0.0
C61 C 0.85478 0.29628 0.40705 0.0
C62 C 0.8386 0.314 0.39751 0.0
C63 C 0.82013 0.30771 0.37406 0.0
N64 N 0.84141 0.33793 0.41199 0.0
C65 C 0.81974 0.35213 0.40929 0.0
H66 H 0.35766 0.73971 0.18409 0.0
H67 H 0.35521 0.68893 0.25206 0.0
H68 H 0.42537 0.76966 0.24788 0.0
C69 C 0.36727 0.73648 0.20314 0.0
C70 C 0.39332 0.75751 0.21419 0.0
C71 C 0.35274 0.71184 0.21672 0.0
C72 C 0.36614 0.70763 0.24128 0.0
C73 C 0.39257 0.72858 0.2525 0.0
C74 C 0.40544 0.75345 0.239 0.0
N75 N 0.4059 0.72674 0.27788 0.0
C76 C 0.40362 0.70309 0.29264 0.0
H77 H 0.1813 0.36029 0.6935 0.0
H78 H 0.18219 0.4172 0.75398 0.0
H79 H 0.10459 0.34088 0.74366 0.0
C80 C 0.17038 0.3657 0.70963 0.0
C81 C 0.14132 0.34715 0.71695 0.0
C82 C 0.18584 0.39093 0.72274 0.0
C83 C 0.17094 0.39798 0.74369 0.0
C84 C 0.14148 0.3797 0.75136 0.0
C85 C 0.12724 0.35459 0.73786 0.0
N86 N 0.12439 0.38507 0.77197 0.0
C87 C 0.13249 0.40628 0.79047 0.0
Tb88 Tb 0.97745 0.03379 0.56093 0.0
Tb89 Tb 0.04441 0.06544 0.53666 0.0
C90 C 0.92482 0.99907 0.57017 0.0
C91 C 0.90717 0.98882 0.5932 0.0
C92 C 0.88015 0.96525 0.59139 0.0
C93 C 0.8632 0.95509 0.61317 0.0
C94 C 0.87298 0.9684 0.63717 0.0
C95 C 0.90015 0.99211 0.63882 0.0
C96 C 0.91714 1.00219 0.61702 0.0
C97 C 0.01014 0.08082 0.58621 0.0
C98 C 0.04007 0.02369 0.58373 0.0
C99 C 0.09602 0.10079 0.52615 0.0
C100 C 0.11162 0.11293 0.50237 0.0
C101 C 0.11402 0.1402 0.49536 0.0
C102 C 0.12866 0.15206 0.473 0.0
C103 C 0.14155 0.137 0.4573 0.0
C104 C 0.13929 0.10977 0.46435 0.0
C105 C 0.12447 0.09784 0.48663 0.0
C106 C 0.01152 0.0185 0.51125 0.0
C107 C 0.9819 0.07533 0.51363 0.0
O108 O 0.95073 0.9927 0.56855 0.0
O109 O 0.92869 0.0249 0.56389 0.0
O110 O 0.01702 0.07002 0.56692 0.0
O111 O 0.98315 0.06374 0.59276 0.0
O112 O 0.00868 0.01434 0.58094 0.0
O113 O 0.05798 0.04543 0.571 0.0
O114 O 0.0707 0.10699 0.5309 0.0
O115 O 0.09278 0.07475 0.53112 0.0
O116 O 1.00464 0.0293 0.53053 0.0
O117 O 0.03868 0.03545 0.50488 0.0
O118 O 0.01328 0.08444 0.51591 0.0
O119 O 0.96402 0.05391 0.52669 0.0
H120 H 0.87227 0.9546 0.57313 0.0
H121 H 0.84273 0.93653 0.61129 0.0
H122 H 0.90816 1.00302 0.65691 0.0
H123 H 0.93803 0.02042 0.61875 0.0
H124 H 0.10461 0.15242 0.50725 0.0
H125 H 0.13041 0.1732 0.46825 0.0
H126 H 0.14876 0.09757 0.45251 0.0
H127 H 0.1231 0.0768 0.49145 0.0
Tb128 Tb 0.55505 0.06411 0.05734 0.0
Tb129 Tb 0.48652 0.03844 0.0426 0.0
C130 C 0.60937 0.09711 0.06971 0.0
C131 C 0.62364 0.11766 0.09025 0.0
C132 C 0.61103 0.13862 0.09559 0.0
C133 C 0.62474 0.15736 0.11565 0.0
C134 C 0.65131 0.1555 0.13069 0.0
C135 C 0.66382 0.13451 0.12516 0.0
C136 C 0.65019 0.11588 0.10512 0.0
C137 C 0.52756 0.0155 0.07866 0.0
C138 C 0.50303 0.07979 0.08739 0.0
C139 C 0.43289 1.00455 0.02984 0.0
C140 C 0.42037 0.98743 1.00677 0.0
C141 C 0.39215 0.9651 1.00743 0.0
C142 C 0.37983 0.94908 0.98535 0.0
C143 C 0.39552 0.9553 0.96225 0.0
C144 C 0.42414 0.97744 0.96184 0.0
C145 C 0.43652 0.99332 0.98394 0.0
C146 C 0.5138 0.08679 0.02065 0.0
C147 C 0.53856 0.02272 1.01251 0.0
O148 O 0.58965 0.10277 0.05251 0.0
O149 O 0.59935 0.07132 0.07722 0.0
O150 O 0.51593 0.03473 0.07532 0.0
O151 O 0.55618 0.02364 0.0711 0.0
O152 O 0.53249 0.08742 0.08007 0.0
O153 O 0.48114 0.05735 0.07799 0.0
O154 O 0.45448 0.99799 0.04423 0.0
O155 O 0.44051 0.03124 0.02621 0.0
O156 O 0.5256 0.06775 0.0246 0.0
O157 O 0.4848 0.07821 0.02733 0.0
O158 O 0.50901 0.0156 0.01944 0.0
O159 O 0.56086 0.04466 0.0223 0.0
H160 H 0.59058 0.14052 0.08436 0.0
H161 H 0.61468 0.17342 0.11924 0.0
H162 H 0.68387 0.13211 0.13663 0.0
H163 H 0.66023 0.09983 0.10139 0.0
H164 H 0.37946 0.96025 0.02492 0.0
H165 H 0.35761 0.93227 0.98617 0.0
H166 H 0.43694 0.98247 0.94441 0.0
H167 H 0.45852 0.01039 0.98315 0.0
Tb168 Tb 0.52039 0.57693 0.55947 0.0
Tb169 Tb 0.50905 0.52156 0.5385 0.0
C170 C 0.5135 0.62176 0.5715 0.0
C171 C 0.49212 0.62926 0.58789 0.0
C172 C 0.48439 0.6532 0.58221 0.0
C173 C 0.46217 0.65959 0.59624 0.0
C174 C 0.44719 0.64206 0.61618 0.0
C175 C 0.45522 0.61813 0.62197 0.0
C176 C 0.47761 0.61182 0.60797 0.0
C177 C 0.54883 0.54703 0.58744 0.0
C178 C 0.45899 0.52653 0.57556 0.0
C179 C 0.51532 0.47712 0.52443 0.0
C180 C 0.53872 0.47057 0.50934 0.0
C181 C 0.57141 0.4836 0.51456 0.0
C182 C 0.59328 0.47736 0.49997 0.0
C183 C 0.58296 0.45803 0.47976 0.0
C184 C 0.55018 0.44529 0.47437 0.0
C185 C 0.52829 0.45149 0.48906 0.0
C186 C 0.48111 0.55216 0.51082 0.0
C187 C 0.57086 0.57172 0.52332 0.0
O188 O 0.49969 0.60758 0.55088 0.0
O189 O 0.53434 0.61194 0.58325 0.0
O190 O 0.52146 0.53855 0.57629 0.0
O191 O 0.56056 0.57355 0.58408 0.0
O192 O 0.47333 0.55365 0.57381 0.0
O193 O 0.47067 0.50907 0.56479 0.0
O194 O 0.52555 0.48833 0.5471 0.0
O195 O 0.49719 0.48909 0.5117 0.0
O196 O 0.50856 0.55997 0.52175 0.0
O197 O 0.46852 0.5258 0.51463 0.0
O198 O 0.55733 0.54461 0.52609 0.0
O199 O 0.558 0.58908 0.53265 0.0
H200 H 0.49512 0.66669 0.56658 0.0
H201 H 0.45612 0.67794 0.59104 0.0
H202 H 0.44424 0.60435 0.63733 0.0
H203 H 0.48326 0.59317 0.61257 0.0
H204 H 0.58016 0.4985 0.53004 0.0
H205 H 0.61831 0.48724 0.50493 0.0
H206 H 0.54143 0.43058 0.45875 0.0
H207 H 0.50317 0.4414 0.48458 0.0
Tb208 Tb 0.02045 0.57413 0.03623 0.0
Tb209 Tb 0.01398 0.52315 0.06662 0.0
C210 C 0.01202 0.61429 1.01165 0.0
C211 C 0.98834 0.62868 1.00957 0.0
C212 C 0.9557 0.614 1.00682 0.0
C213 C 0.9339 0.62807 1.00198 0.0
C214 C 0.94428 0.6571 1.0 0.0
C215 C 0.97686 0.67173 1.00411 0.0
C216 C 0.99866 0.65763 1.00871 0.0
C217 C 0.07304 0.57368 0.06273 0.0
C218 C 0.98916 0.56693 0.09102 0.0
C219 C 0.02381 0.48416 0.09226 0.0
C220 C 0.04904 0.47168 0.09553 0.0
C221 C 0.08036 0.48673 0.09007 0.0
C222 C 0.10465 0.47557 0.09589 0.0
C223 C 0.09794 0.44914 0.1071 0.0
C224 C 0.06633 0.43384 0.11169 0.0
C225 C 0.04211 0.44507 0.10599 0.0
C226 C 0.96108 0.52286 0.04018 0.0
C227 C 0.04378 0.53002 1.01109 0.0
O228 O 1.00278 0.58898 1.00287 0.0
O229 O 0.02928 0.61706 0.03336 0.0
O230 O 0.04518 0.56444 0.06982 0.0
O231 O 0.07235 0.58541 0.04044 0.0
O232 O 0.99111 0.57844 0.06772 0.0
O233 O 0.99945 0.54575 0.09587 0.0
O234 O 0.03133 0.50947 0.10074 0.0
O235 O 0.00775 0.48066 0.06993 0.0
O236 O 0.98895 0.53268 0.03307 0.0
O237 O 0.9622 0.51078 0.06224 0.0
O238 O 0.04284 0.51888 0.03457 0.0
O239 O 0.03314 0.55102 1.00645 0.0
H240 H 0.94707 0.59162 1.0076 0.0
H241 H 0.90906 0.61609 0.99872 0.0
H242 H 0.98564 0.6941 1.00328 0.0
H243 H 0.02371 0.66934 1.01096 0.0
H244 H 0.08612 0.50735 0.08192 0.0
H245 H 0.1287 0.48769 0.09184 0.0
H246 H 0.06044 0.41357 0.12056 0.0
H247 H 0.01807 0.43326 0.11042 0.0
H248 H 0.26957 0.26133 0.24883 0.0
H249 H 0.23303 0.24145 0.28277 0.0
H250 H 0.3027 0.21029 0.32152 0.0
H251 H 0.33945 0.2305 0.28824 0.0
H252 H 0.24287 0.17075 0.31585 0.0
H253 H 0.29062 0.26644 0.3439 0.0
H254 H 0.30387 0.3168 0.3378 0.0
H255 H 0.20493 0.30736 0.32627 0.0
H256 H 0.19112 0.25687 0.332 0.0
H257 H 0.19772 0.13498 0.4415 0.0
H258 H 0.22464 0.15592 0.40307 0.0
H259 H 0.14926 0.18894 0.38164 0.0
H260 H 0.12232 0.16822 0.42039 0.0
H261 H 0.20465 0.22673 0.37421 0.0
H262 H 0.15527 0.133 0.34999 0.0
H263 H 0.13961 0.08228 0.35398 0.0
H264 H 0.23726 0.08684 0.35512 0.0
H265 H 0.25358 0.13765 0.35152 0.0
C266 C 0.27722 0.25053 0.26475 0.0
C267 C 0.30737 0.24733 0.2657 0.0
C268 C 0.25628 0.2391 0.28405 0.0
C269 C 0.26517 0.22435 0.3046 0.0
C270 C 0.29528 0.22138 0.3057 0.0
C271 C 0.31621 0.23287 0.28657 0.0
C272 C 0.24328 0.21165 0.32503 0.0
C273 C 0.23467 0.18297 0.32875 0.0
C274 C 0.23156 0.2275 0.34113 0.0
C275 C 0.23986 0.25787 0.33811 0.0
C276 C 0.2717 0.27509 0.33989 0.0
C277 C 0.27931 0.30366 0.33653 0.0
C278 C 0.25526 0.31527 0.33157 0.0
C279 C 0.22354 0.29834 0.33007 0.0
C280 C 0.21581 0.26975 0.3334 0.0
C281 C 0.18672 0.14649 0.42849 0.0
C282 C 0.15779 0.14978 0.43387 0.0
C283 C 0.20212 0.15845 0.40651 0.0
C284 C 0.18871 0.17362 0.3892 0.0
C285 C 0.16001 0.17727 0.39467 0.0
C286 C 0.14468 0.16546 0.41682 0.0
C287 C 0.20504 0.18583 0.36562 0.0
C288 C 0.2125 0.21438 0.36119 0.0
C289 C 0.21533 0.16978 0.34857 0.0
C290 C 0.20566 0.13918 0.35068 0.0
C291 C 0.17344 0.12322 0.35128 0.0
C292 C 0.16443 0.09444 0.35344 0.0
C293 C 0.18743 0.08135 0.35485 0.0
C294 C 0.21948 0.09702 0.35405 0.0
C295 C 0.22862 0.12581 0.35191 0.0
H296 H 0.18041 0.05907 0.35652 0.0
H297 H 0.26119 0.33738 0.32893 0.0
H298 H 0.2461 0.78183 0.78574 0.0
H299 H 0.27315 0.80922 0.82346 0.0
H300 H 0.28266 0.88428 0.78038 0.0
H301 H 0.25599 0.85691 0.74234 0.0
H302 H 0.33854 0.88471 0.80616 0.0
H303 H 0.23027 0.86535 0.82581 0.0
H304 H 0.17521 0.83595 0.83184 0.0
H305 H 0.20779 0.7914 0.8923 0.0
H306 H 0.26313 0.82028 0.88637 0.0
H307 H 0.38899 0.97556 0.91392 0.0
H308 H 0.36306 0.94962 0.87517 0.0
H309 H 0.34439 0.87324 0.91794 0.0
H310 H 0.37007 0.8992 0.95688 0.0
H311 H 0.29261 0.8745 0.89166 0.0
H312 H 0.40018 0.88862 0.86834 0.0
H313 H 0.45584 0.915 0.86035 0.0
H314 H 0.42495 0.96833 0.80789 0.0
H315 H 0.36909 0.94173 0.81496 0.0
C316 C 0.25386 0.80417 0.78434 0.0
C317 C 0.24896 0.81725 0.76111 0.0
C318 C 0.26913 0.81979 0.80594 0.0
C319 C 0.27973 0.84877 0.80475 0.0
C320 C 0.27458 0.86192 0.78168 0.0
C321 C 0.25914 0.84629 0.76007 0.0
C322 C 0.29719 0.86523 0.82738 0.0
C323 C 0.32834 0.88283 0.82477 0.0
C324 C 0.28415 0.86217 0.85179 0.0
C325 C 0.25088 0.84483 0.85548 0.0
C326 C 0.22573 0.84914 0.84025 0.0
C327 C 0.19446 0.8326 0.84368 0.0
C328 C 0.18801 0.81178 0.8624 0.0
C329 C 0.21282 0.80751 0.87778 0.0
C330 C 0.24414 0.82398 0.87442 0.0
C331 C 0.37975 0.95321 0.91496 0.0
C332 C 0.38145 0.93939 0.93843 0.0
C333 C 0.36505 0.93838 0.89277 0.0
C334 C 0.35202 0.90943 0.89355 0.0
C335 C 0.35423 0.89557 0.91688 0.0
C336 C 0.36878 0.9104 0.93912 0.0
C337 C 0.33417 0.89381 0.87055 0.0
C338 C 0.30285 0.87641 0.87306 0.0
C339 C 0.34709 0.89692 0.84609 0.0
C340 C 0.38056 0.91341 0.84238 0.0
C341 C 0.4053 0.90607 0.85522 0.0
C342 C 0.43685 0.92096 0.85076 0.0
C343 C 0.44393 0.9435 0.83386 0.0
C344 C 0.41945 0.95095 0.82107 0.0
C345 C 0.38784 0.93585 0.82513 0.0
H346 H 0.46838 0.95508 0.83057 0.0
H347 H 0.16379 0.79899 0.86503 0.0
H348 H 0.58999 0.38244 0.76731 0.0
H349 H 0.58202 0.40768 0.72837 0.0
H350 H 0.64362 0.48383 0.76284 0.0
H351 H 0.6508 0.45835 0.80235 0.0
H352 H 0.59375 0.4926 0.74093 0.0
H353 H 0.66565 0.45054 0.71158 0.0
H354 H 0.6871 0.41299 0.70372 0.0
H355 H 0.60367 0.37114 0.65608 0.0
H356 H 0.5815 0.40825 0.66393 0.0
H357 H 0.59892 0.56775 0.62255 0.0
H358 H 0.61525 0.54399 0.65959 0.0
H359 H 0.54107 0.46842 0.63757 0.0
H360 H 0.52417 0.49228 0.60071 0.0
H361 H 0.60091 0.4613 0.65255 0.0
H362 H 0.52887 0.50356 0.6843 0.0
H363 H 0.50925 0.54236 0.69161 0.0
H364 H 0.59637 0.58542 0.73437 0.0
H365 H 0.61671 0.54703 0.72696 0.0
C366 C 0.60225 0.40451 0.76637 0.0
C367 C 0.62134 0.41843 0.7876 0.0
C368 C 0.59776 0.41897 0.74404 0.0
C369 C 0.61258 0.44774 0.74225 0.0
C370 C 0.632 0.46166 0.76355 0.0
C371 C 0.63632 0.44712 0.78605 0.0
C372 C 0.60642 0.46321 0.71868 0.0
C373 C 0.59595 0.48599 0.72166 0.0
C374 C 0.60857 0.45448 0.69331 0.0
C375 C 0.6218 0.43208 0.68853 0.0
C376 C 0.65176 0.43322 0.69958 0.0
C377 C 0.66407 0.41203 0.6951 0.0
C378 C 0.64673 0.38966 0.67946 0.0
C379 C 0.61707 0.38847 0.66821 0.0
C380 C 0.60463 0.40959 0.67265 0.0
C381 C 0.58619 0.54602 0.62547 0.0
C382 C 0.56021 0.53192 0.60866 0.0
C383 C 0.59552 0.53248 0.64672 0.0
C384 C 0.5793 0.50443 0.65153 0.0
C385 C 0.55399 0.49005 0.63428 0.0
C386 C 0.54435 0.50371 0.61321 0.0
C387 C 0.58815 0.49039 0.67495 0.0
C388 C 0.59903 0.46792 0.67189 0.0
C389 C 0.5867 0.49955 0.70022 0.0
C390 C 0.57444 0.52256 0.70483 0.0
C391 C 0.54395 0.52141 0.69506 0.0
C392 C 0.53268 0.54331 0.69926 0.0
C393 C 0.55159 0.56638 0.71338 0.0
C394 C 0.58177 0.56756 0.7234 0.0
C395 C 0.59318 0.54573 0.71922 0.0
H396 H 0.54282 0.58331 0.71662 0.0
H397 H 0.65631 0.37328 0.67601 0.0
H398 H 0.9032 0.64153 0.30772 0.0
H399 H 0.91478 0.61824 0.27059 0.0
H400 H 0.91272 0.68706 0.22185 0.0
H401 H 0.90036 0.70986 0.25882 0.0
H402 H 0.88802 0.64239 0.19455 0.0
H403 H 0.98422 0.67667 0.24819 0.0
H404 H 0.01826 0.68221 0.28837 0.0
H405 H 1.00163 0.59471 0.29095 0.0
H406 H 0.96716 0.58861 0.25093 0.0
H407 H 0.97244 0.61443 0.0914 0.0
H408 H 0.95439 0.63435 0.12732 0.0
H409 H 0.95807 0.56575 0.17568 0.0
H410 H 0.97698 0.54623 0.1401 0.0
H411 H 0.98096 0.60968 0.20312 0.0
H412 H 0.8855 0.57579 0.14836 0.0
H413 H 0.85255 0.57104 0.10765 0.0
H414 H 0.86862 0.65847 0.10666 0.0
H415 H 0.90199 0.66379 0.14722 0.0
C416 C 0.90453 0.65137 0.28894 0.0
C417 C 0.90039 0.67738 0.28618 0.0
C418 C 0.9116 0.6382 0.26767 0.0
C419 C 0.91536 0.65092 0.24311 0.0
C420 C 0.91009 0.67656 0.24032 0.0
C421 C 0.90288 0.68962 0.26153 0.0
C422 C 0.9256 0.63813 0.22062 0.0
C423 C 0.90857 0.63553 0.19647 0.0
C424 C 0.95212 0.62855 0.22271 0.0
C425 C 0.97285 0.63216 0.24673 0.0
C426 C 0.98765 0.6586 0.25743 0.0
C427 C 1.00705 0.66184 0.28015 0.0
C428 C 0.01203 0.63882 0.29224 0.0
C429 C 0.9977 0.61251 0.28159 0.0
C430 C 0.97825 0.60915 0.25888 0.0
C431 C 0.9692 0.60341 0.1096 0.0
C432 C 0.97617 0.57851 0.11255 0.0
C433 C 0.95865 0.61483 0.13027 0.0
C434 C 0.95424 0.60157 0.15454 0.0
C435 C 0.96112 0.57665 0.15741 0.0
C436 C 0.97188 0.56535 0.13684 0.0
C437 C 0.9433 0.61378 0.17705 0.0
C438 C 0.96029 0.61637 0.2012 0.0
C439 C 0.9168 0.62341 0.17492 0.0
C440 C 0.89647 0.62021 0.1507 0.0
C441 C 0.88215 0.59402 0.13938 0.0
C442 C 0.86338 0.59123 0.11635 0.0
C443 C 0.85856 0.61445 0.10455 0.0
C444 C 0.8724 0.64051 0.11581 0.0
C445 C 0.89122 0.64342 0.13884 0.0
H446 H 0.84405 0.61224 0.0867 0.0
H447 H 0.02706 0.64137 0.30983 0.0
H448 H 0.43275 0.26912 0.20814 0.0
H449 H 0.46125 0.2408 0.1904 0.0
H450 H 0.37516 0.17071 0.18674 0.0
H451 H 0.34662 0.19882 0.20438 0.0
H452 H 0.42464 0.15568 0.20484 0.0
H453 H 0.40164 0.20993 0.13369 0.0
H454 H 0.40294 0.2528 0.11045 0.0
H455 H 0.50469 0.27943 0.11414 0.0
H456 H 0.50401 0.23689 0.13779 0.0
H457 H 0.44617 0.0692 0.10899 0.0
H458 H 0.43004 0.09983 0.13612 0.0
H459 H 0.52338 0.16048 0.13457 0.0
H460 H 0.53971 0.13002 0.10717 0.0
H461 H 0.47739 0.18294 0.12268 0.0
H462 H 0.49979 0.12576 0.1897 0.0
H463 H 0.49776 0.08202 0.2116 0.0
H464 H 0.39681 0.0601 0.21466 0.0
H465 H 0.39816 0.10354 0.19245 0.0
C466 C 0.41993 0.24768 0.20349 0.0
C467 C 0.38744 0.23619 0.20762 0.0
C468 C 0.43624 0.23153 0.19342 0.0
C469 C 0.42026 0.20371 0.18707 0.0
C470 C 0.38799 0.1921 0.19162 0.0
C471 C 0.37173 0.20817 0.20175 0.0
C472 C 0.43672 0.1867 0.17505 0.0
C473 C 0.43603 0.16154 0.1868 0.0
C474 C 0.45237 0.19476 0.1519 0.0
C475 C 0.45278 0.22041 0.13784 0.0
C476 C 0.4243 0.22506 0.12979 0.0
C477 C 0.42493 0.24928 0.1165 0.0
C478 C 0.45388 0.26888 0.11092 0.0
C479 C 0.48228 0.26427 0.11856 0.0
C480 C 0.48179 0.24012 0.13191 0.0
C481 C 0.46343 0.0889 0.11464 0.0
C482 C 0.49422 0.09718 0.10584 0.0
C483 C 0.45421 0.10634 0.13028 0.0
C484 C 0.47559 0.13234 0.13753 0.0
C485 C 0.50655 0.14046 0.12924 0.0
C486 C 0.51585 0.12298 0.11364 0.0
C487 C 0.46477 0.15167 0.1522 0.0
C488 C 0.46649 0.17726 0.14095 0.0
C489 C 0.44999 0.14396 0.17574 0.0
C490 C 0.44906 0.11785 0.18924 0.0
C491 C 0.47712 0.11153 0.19487 0.0
C492 C 0.4761 0.0868 0.20738 0.0
C493 C 0.44717 0.06827 0.21448 0.0
C494 C 0.4192 0.07447 0.20914 0.0
C495 C 0.42009 0.09916 0.19663 0.0
H496 H 0.44642 0.04913 0.22415 0.0
H497 H 0.45431 0.2876 0.1006 0.0
H498 H 0.113 0.82543 0.69633 0.0
H499 H 0.09342 0.86429 0.68629 0.0
H500 H 0.18105 0.90827 0.65159 0.0
H501 H 0.2007 0.86946 0.66196 0.0
H502 H 0.15831 0.94337 0.67821 0.0
H503 H 0.11947 0.87168 0.6142 0.0
H504 H 0.09279 0.82405 0.59861 0.0
H505 H 1.00652 0.8236 0.63064 0.0
H506 H 0.03285 0.87112 0.64674 0.0
H507 H 0.10306 0.02817 0.58806 0.0
H508 H 0.12693 0.99741 0.61178 0.0
H509 H 0.03657 0.95275 0.64185 0.0
H510 H 0.01244 0.98304 0.61801 0.0
H511 H 0.06074 0.91869 0.62 0.0
H512 H 0.09907 0.99265 0.68101 0.0
H513 H 0.12624 0.04057 0.69557 0.0
H514 H 0.21363 0.03758 0.6683 0.0
H515 H 0.18688 0.98975 0.65323 0.0
C516 C 0.12822 0.84369 0.68706 0.0
C517 C 0.15819 0.84474 0.67982 0.0
C518 C 0.11706 0.86578 0.68127 0.0
C519 C 0.13566 0.889 0.66791 0.0
C520 C 0.16636 0.89057 0.66193 0.0
C521 C 0.17752 0.86847 0.66776 0.0
C522 C 0.12202 0.91038 0.65814 0.0
C523 C 0.1371 0.93809 0.66534 0.0
C524 C 0.09413 0.90337 0.64163 0.0
C525 C 0.07823 0.87482 0.63192 0.0
C526 C 0.09489 0.86133 0.6181 0.0
C527 C 0.07982 0.83438 0.60914 0.0
C528 C 0.04801 0.82078 0.6137 0.0
C529 C 0.03118 0.83414 0.62717 0.0
C530 C 0.04616 0.86109 0.63621 0.0
C531 C 0.08838 0.01214 0.6001 0.0
C532 C 0.05575 1.00792 0.6009 0.0
C533 C 0.10211 0.99462 0.61374 0.0
C534 C 0.08354 0.97277 0.62862 0.0
C535 C 0.05132 0.96939 0.63041 0.0
C536 C 0.03757 0.98676 0.61673 0.0
C537 C 0.09676 0.95182 0.64023 0.0
C538 C 0.08172 0.92409 0.63315 0.0
C539 C 0.12471 0.95892 0.65672 0.0
C540 C 0.14088 0.98768 0.66578 0.0
C541 C 0.12402 1.00228 0.67791 0.0
C542 C 0.13936 0.02942 0.6863 0.0
C543 C 0.17162 0.04214 0.6828 0.0
C544 C 0.18863 0.02771 0.67097 0.0
C545 C 0.1734 1.00058 0.66253 0.0
H546 H 0.18345 0.06315 0.68931 0.0
H547 H 0.03638 0.79991 0.60674 0.0
H548 H 0.74036 0.37746 0.88737 0.0
H549 H 0.78869 0.40613 0.91085 0.0
H550 H 0.74969 0.47269 0.91291 0.0
H551 H 0.70088 0.44376 0.88974 0.0
H552 H 0.83482 0.45448 0.90615 0.0
H553 H 0.76797 0.50172 0.97336 0.0
H554 H 0.71455 0.49081 0.98957 0.0
H555 H 0.6977 0.40418 0.97844 0.0
H556 H 0.75113 0.41455 0.96256 0.0
H557 H 0.95432 0.54263 0.9914 0.0
H558 H 0.90835 0.52648 0.96049 0.0
H559 H 0.85818 0.46788 0.0168 0.0
H560 H 0.90325 0.48511 0.04806 0.0
H561 H 0.81799 0.48533 0.99224 0.0
H562 H 0.89987 0.45163 0.96579 0.0
H563 H 0.95361 0.4566 0.95299 0.0
H564 H 0.94056 0.50489 0.88718 0.0
H565 H 0.88694 0.50065 0.89987 0.0
C566 C 0.74229 0.39839 0.89245 0.0
C567 C 0.71664 0.40824 0.88692 0.0
C568 C 0.77003 0.41483 0.90578 0.0
C569 C 0.77275 0.44146 0.91406 0.0
C570 C 0.74803 0.45208 0.90703 0.0
C571 C 0.72024 0.43562 0.89358 0.0
C572 C 0.80005 0.45685 0.93197 0.0
C573 C 0.83116 0.46149 0.92486 0.0
C574 C 0.79543 0.46542 0.95671 0.0
C575 C 0.76336 0.45898 0.96644 0.0
C576 C 0.75286 0.48036 0.97443 0.0
C577 C 0.7226 0.47426 0.98356 0.0
C578 C 0.70269 0.44683 0.98492 0.0
C579 C 0.71307 0.42542 0.97727 0.0
C580 C 0.74333 0.43141 0.96818 0.0
C581 C 0.93326 0.52665 0.99728 0.0
C582 C 0.93248 0.51508 0.02213 0.0
C583 C 0.90705 0.51721 0.9795 0.0
C584 C 0.87984 0.49544 0.98598 0.0
C585 C 0.87875 0.48463 1.01117 0.0
C586 C 0.90464 0.49445 0.02906 0.0
C587 C 0.85295 0.48306 0.96652 0.0
C588 C 0.82182 0.47886 0.97335 0.0
C589 C 0.85759 0.47403 0.94191 0.0
C590 C 0.88952 0.47606 0.93392 0.0
C591 C 0.90852 0.46341 0.94865 0.0
C592 C 0.93896 0.46609 0.94142 0.0
C593 C 0.95052 0.48107 0.91931 0.0
C594 C 0.9316 0.49332 0.90433 0.0
C595 C 0.90119 0.49079 0.91153 0.0
H596 H 0.97411 0.48316 0.91377 0.0
H597 H 0.67927 0.44215 0.99198 0.0
H598 H 0.786 0.71786 0.37949 0.0
H599 H 0.74035 0.69058 0.40282 0.0
H600 H 0.781 0.62521 0.41324 0.0
H601 H 0.82713 0.65271 0.38972 0.0
H602 H 0.71324 0.60525 0.40475 0.0
H603 H 0.79189 0.66908 0.46038 0.0
H604 H 0.82945 0.71491 0.47268 0.0
H605 H 0.75253 0.74768 0.47289 0.0
H606 H 0.71456 0.70215 0.46009 0.0
H607 H 0.61118 0.54508 0.50747 0.0
H608 H 0.65703 0.56376 0.48113 0.0
H609 H 0.63977 0.6419 0.47612 0.0
H610 H 0.59499 0.62373 0.50316 0.0
H611 H 0.69908 0.65259 0.48302 0.0
H612 H 0.62009 0.58913 0.42689 0.0
H613 H 0.58243 0.5439 0.41292 0.0
H614 H 0.65895 0.5108 0.41178 0.0
H615 H 0.69691 0.55549 0.42667 0.0
C616 C 0.785 0.69745 0.38629 0.0
C617 C 0.81044 0.68762 0.38288 0.0
C618 C 0.75885 0.68186 0.39973 0.0
C619 C 0.75734 0.65598 0.41033 0.0
C620 C 0.78157 0.64514 0.40538 0.0
C621 C 0.8079 0.66083 0.39182 0.0
C622 C 0.73187 0.64172 0.42823 0.0
C623 C 0.71037 0.61537 0.42209 0.0
C624 C 0.72772 0.655 0.45072 0.0
C625 C 0.7504 0.68224 0.45908 0.0
C626 C 0.783 0.68609 0.46291 0.0
C627 C 0.80437 0.71202 0.46996 0.0
C628 C 0.79339 0.7342 0.47352 0.0
C629 C 0.761 0.73048 0.47011 0.0
C630 C 0.73954 0.70461 0.46297 0.0
C631 C 0.61722 0.56627 0.50083 0.0
C632 C 0.59928 0.58285 0.50761 0.0
C633 C 0.64344 0.57695 0.48555 0.0
C634 C 0.65199 0.60431 0.47612 0.0
C635 C 0.63406 0.62081 0.48304 0.0
C636 C 0.60826 0.61032 0.49859 0.0
C637 C 0.6796 0.61618 0.45936 0.0
C638 C 0.70177 0.64221 0.46579 0.0
C639 C 0.68417 0.60255 0.43711 0.0
C640 C 0.6613 0.57561 0.42823 0.0
C641 C 0.62883 0.57211 0.42395 0.0
C642 C 0.60743 0.54655 0.41591 0.0
C643 C 0.61827 0.52444 0.41164 0.0
C644 C 0.65055 0.52788 0.4153 0.0
C645 C 0.67201 0.55329 0.42363 0.0
H646 H 0.60168 0.50467 0.40539 0.0
H647 H 0.80997 0.75427 0.47895 0.0
H648 H 0.33555 0.3845 0.20878 0.0
H649 H 0.29452 0.4045 0.19367 0.0
H650 H 0.23834 0.32601 0.16003 0.0
H651 H 0.27956 0.30619 0.17499 0.0
H652 H 0.2432 0.3679 0.12649 0.0
H653 H 0.21682 0.34844 0.21424 0.0
H654 H 0.22686 0.34952 0.26151 0.0
H655 H 0.25392 0.43811 0.26061 0.0
H656 H 0.24449 0.43759 0.21326 0.0
H657 H 0.09896 0.39652 0.10096 0.0
H658 H 0.14 0.37736 0.11719 0.0
H659 H 0.19645 0.45723 0.14765 0.0
H660 H 0.1552 0.47645 0.1319 0.0
H661 H 0.19176 0.41523 0.18291 0.0
H662 H 0.21744 0.4341 0.09468 0.0
H663 H 0.20658 0.43227 0.0475 0.0
H664 H 0.17976 0.3437 0.04953 0.0
H665 H 0.19003 0.34497 0.09681 0.0
C666 C 0.3142 0.37156 0.19844 0.0
C667 C 0.3103 0.34393 0.19306 0.0
C668 C 0.29082 0.38291 0.18986 0.0
C669 C 0.26329 0.36668 0.17584 0.0
C670 C 0.25938 0.33888 0.17079 0.0
C671 C 0.28274 0.32756 0.17941 0.0
C672 C 0.23917 0.37897 0.16557 0.0
C673 C 0.23162 0.37791 0.13887 0.0
C674 C 0.22466 0.3926 0.18167 0.0
C675 C 0.23027 0.39299 0.21016 0.0
C676 C 0.22518 0.36817 0.22409 0.0
C677 C 0.23071 0.36867 0.25091 0.0
C678 C 0.2411 0.39387 0.26405 0.0
C679 C 0.24591 0.41861 0.2504 0.0
C680 C 0.24045 0.41822 0.22357 0.0
C681 C 0.12012 0.41001 0.1111 0.0
C682 C 0.12384 0.43798 0.11517 0.0
C683 C 0.14362 0.39908 0.12022 0.0
C684 C 0.1713 0.41592 0.13353 0.0
C685 C 0.17525 0.44391 0.13742 0.0
C686 C 0.15181 0.4549 0.1282 0.0
C687 C 0.19578 0.40409 0.14386 0.0
C688 C 0.20339 0.40524 0.17055 0.0
C689 C 0.21026 0.39043 0.12778 0.0
C690 C 0.20422 0.38962 0.09933 0.0
C691 C 0.20898 0.41421 0.0851 0.0
C692 C 0.20298 0.41328 0.05833 0.0
C693 C 0.19241 0.38788 0.04553 0.0
C694 C 0.18791 0.36336 0.05947 0.0
C695 C 0.19385 0.36417 0.08626 0.0
H696 H 0.18777 0.38721 0.0248 0.0
H697 H 0.24537 0.39422 0.28481 0.0
H698 H 0.67335 0.30781 0.89749 0.0
H699 H 0.65323 0.26446 0.92147 0.0
H700 H 0.56348 0.27788 0.92609 0.0
H701 H 0.5836 0.32148 0.90238 0.0
H702 H 0.58457 0.26087 0.97277 0.0
H703 H 0.57082 0.23201 0.88382 0.0
H704 H 0.58835 0.22915 0.84025 0.0
H705 H 0.65548 0.19131 0.87157 0.0
H706 H 0.63864 0.1943 0.91539 0.0
H707 H 0.48876 0.12789 1.0103 0.0
H708 H 0.51241 0.17152 0.9878 0.0
H709 H 0.59649 0.1498 0.97853 0.0
H710 H 0.57232 0.10553 1.00041 0.0
H711 H 0.581 0.17154 0.93529 0.0
H712 H 0.59444 0.19808 0.02363 0.0
H713 H 0.57791 0.20035 0.06764 0.0
H714 H 0.51414 0.24281 0.03894 0.0
H715 H 0.52987 0.24035 0.99465 0.0
C716 C 0.64936 0.30161 0.9037 0.0
C717 C 0.63007 0.31814 0.8979 0.0
C718 C 0.63782 0.27671 0.91729 0.0
C719 C 0.60673 0.26774 0.92548 0.0
C720 C 0.58752 0.28431 0.91996 0.0
C721 C 0.59897 0.30912 0.90619 0.0
C722 C 0.59421 0.24105 0.93969 0.0
C723 C 0.58344 0.24129 0.96446 0.0
C724 C 0.59364 0.21555 0.92925 0.0
C725 C 0.6037 0.21364 0.90291 0.0
C726 C 0.5895 0.22329 0.88144 0.0
C727 C 0.59928 0.2216 0.8567 0.0
C728 C 0.62307 0.21013 0.85316 0.0
C729 C 0.63708 0.20023 0.87435 0.0
C730 C 0.62741 0.2019 0.89914 0.0
C731 C 0.51231 0.13241 1.0035 0.0
C732 C 0.52878 0.11337 1.00729 0.0
C733 C 0.52593 0.15748 0.99075 0.0
C734 C 0.55654 0.16432 0.98178 0.0
C735 C 0.57293 0.14515 0.98534 0.0
C736 C 0.55919 0.11991 0.99799 0.0
C737 C 0.57105 0.19125 0.96835 0.0
C738 C 0.58224 0.19109 0.94372 0.0
C739 C 0.57231 0.21686 0.97906 0.0
C740 C 0.56316 0.21882 1.00575 0.0
C741 C 0.57674 0.20775 0.02666 0.0
C742 C 0.56753 0.20908 0.05167 0.0
C743 C 0.54494 0.22167 0.05607 0.0
C744 C 0.53161 0.23304 0.03549 0.0
C745 C 0.54069 0.2317 1.01042 0.0
H746 H 0.53781 0.22266 0.07544 0.0
H747 H 0.63061 0.20884 0.83398 0.0
H748 H 0.91751 0.80365 0.36068 0.0
H749 H 0.93785 0.8479 0.38344 0.0
H750 H 0.8983 0.80808 0.45321 0.0
H751 H 0.8787 0.76369 0.43095 0.0
H752 H 0.88638 0.85676 0.44596 0.0
H753 H 0.97765 0.82714 0.44584 0.0
H754 H 0.01721 0.81092 0.42636 0.0
H755 H 0.04616 0.8847 0.38035 0.0
H756 H 1.00645 0.9012 0.3993 0.0
H757 H 0.96759 0.9714 0.53034 0.0
H758 H 0.9446 0.9262 0.50918 0.0
H759 H 0.99415 0.95963 0.44107 0.0
H760 H 0.01785 1.0042 0.46259 0.0
H761 H 1.0003 0.91291 0.44858 0.0
H762 H 0.90862 0.94249 0.4473 0.0
H763 H 0.86906 0.95912 0.46628 0.0
H764 H 0.8405 0.88642 0.51377 0.0
H765 H 0.88018 0.86951 0.49527 0.0
C766 C 0.91344 0.80408 0.38095 0.0
C767 C 0.89621 0.77967 0.39372 0.0
C768 C 0.92501 0.82959 0.39399 0.0
C769 C 0.91979 0.83159 0.42021 0.0
C770 C 0.90256 0.80736 0.43299 0.0
C771 C 0.89118 0.78183 0.42006 0.0
C772 C 0.93241 0.85878 0.43435 0.0
C773 C 0.91137 0.86889 0.44675 0.0
C774 C 0.96491 0.8751 0.43517 0.0
C775 C 0.98886 0.86527 0.4238 0.0
C776 C 0.99228 0.8398 0.43142 0.0
C777 C 0.01476 0.83058 0.4205 0.0
C778 C 0.03413 0.84673 0.40208 0.0
C779 C 0.03111 0.87219 0.39459 0.0
C780 C 0.00864 0.8815 0.40543 0.0
C781 C 0.97303 0.96921 0.51072 0.0
C782 C 0.99426 0.99159 0.49811 0.0
C783 C 0.95988 0.94324 0.49851 0.0
C784 C 0.96716 0.93914 0.47317 0.0
C785 C 0.98801 0.9618 0.46055 0.0
C786 C 1.00146 0.98748 0.47287 0.0
C787 C 0.95423 0.91133 0.45993 0.0
C788 C 0.97526 0.90097 0.44775 0.0
C789 C 0.92168 0.89492 0.45917 0.0
C790 C 0.89758 0.90488 0.47009 0.0
C791 C 0.89402 0.93013 0.4619 0.0
C792 C 0.87157 0.9396 0.47256 0.0
C793 C 0.85234 0.92388 0.49127 0.0
C794 C 0.85544 0.8986 0.49929 0.0
C795 C 0.87789 0.88905 0.48871 0.0
H796 H 0.83499 0.93125 0.49952 0.0
H797 H 0.05152 0.83955 0.39365 0.0
H798 H 0.24726 0.72327 0.73842 0.0
H799 H 0.2769 0.69326 0.72625 0.0
H800 H 0.28137 0.72678 0.64907 0.0
H801 H 0.25153 0.75643 0.661 0.0
H802 H 0.27472 0.67327 0.64749 0.0
H803 H 0.341 0.75378 0.69567 0.0
H804 H 0.35616 0.78459 0.73354 0.0
H805 H 0.36432 0.71736 0.78129 0.0
H806 H 0.34875 0.68605 0.74373 0.0
H807 H 0.44975 0.69234 0.63417 0.0
H808 H 0.40804 0.70443 0.65377 0.0
H809 H 0.34838 0.61891 0.65092 0.0
H810 H 0.38981 0.60677 0.63032 0.0
H811 H 0.37834 0.69112 0.69666 0.0
H812 H 0.27033 0.61859 0.63852 0.0
H813 H 0.2573 0.59283 0.59744 0.0
H814 H 0.33745 0.65201 0.56433 0.0
H815 H 0.35058 0.67837 0.60501 0.0
C816 C 0.25423 0.72391 0.71878 0.0
C817 C 0.24733 0.74233 0.70071 0.0
C818 C 0.27107 0.70674 0.71184 0.0
C819 C 0.28172 0.70807 0.68685 0.0
C820 C 0.2733 0.72533 0.66843 0.0
C821 C 0.25625 0.74229 0.67528 0.0
C822 C 0.30421 0.69378 0.68038 0.0
C823 C 0.2972 0.67684 0.65844 0.0
C824 C 0.3337 0.69868 0.69449 0.0
C825 C 0.34336 0.71753 0.717 0.0
C826 C 0.34583 0.74554 0.71429 0.0
C827 C 0.35451 0.76309 0.73569 0.0
C828 C 0.3611 0.75292 0.75983 0.0
C829 C 0.35913 0.72519 0.7626 0.0
C830 C 0.35038 0.70754 0.74127 0.0
C831 C 0.42775 0.67609 0.63768 0.0
C832 C 0.42292 0.64868 0.63042 0.0
C833 C 0.40404 0.68298 0.64914 0.0
C834 C 0.37499 0.66263 0.65361 0.0
C835 C 0.37051 0.63499 0.6474 0.0
C836 C 0.39428 0.62807 0.63582 0.0
C837 C 0.34915 0.67104 0.66346 0.0
C838 C 0.35551 0.68687 0.6861 0.0
C839 C 0.31944 0.66571 0.64958 0.0
C840 C 0.31166 0.6502 0.62493 0.0
C841 C 0.2851 0.62613 0.62243 0.0
C842 C 0.27765 0.61147 0.59921 0.0
C843 C 0.29659 0.62073 0.57832 0.0
C844 C 0.32288 0.64479 0.58056 0.0
C845 C 0.33033 0.6596 0.60369 0.0
H846 H 0.29085 0.6093 0.56039 0.0
H847 H 0.36782 0.76654 0.77637 0.0
H848 H 0.78347 0.86309 0.85424 0.0
H849 H 0.80454 0.8906 0.81656 0.0
H850 H 0.71181 0.86214 0.77695 0.0
H851 H 0.69077 0.83365 0.81437 0.0
H852 H 0.7554 0.85746 0.74693 0.0
H853 H 0.7446 0.92924 0.79833 0.0
H854 H 0.7504 0.95738 0.83737 0.0
H855 H 0.85174 0.98268 0.83556 0.0
H856 H 0.84658 0.95436 0.79671 0.0
H857 H 0.80857 0.94706 0.64057 0.0
H858 H 0.77959 0.92656 0.67836 0.0
H859 H 0.86787 0.94438 0.72418 0.0
H860 H 0.89708 0.96451 0.68644 0.0
H861 H 0.82188 0.9564 0.74991 0.0
H862 H 0.83187 0.88079 0.70113 0.0
H863 H 0.8259 0.85247 0.66216 0.0
H864 H 0.725 0.83462 0.65928 0.0
H865 H 0.73043 0.86318 0.69805 0.0
C866 C 0.76752 0.86269 0.83752 0.0
C867 C 0.73548 0.84603 0.83723 0.0
C868 C 0.77953 0.8787 0.81609 0.0
C869 C 0.7597 0.87866 0.79399 0.0
C870 C 0.72752 0.86255 0.79383 0.0
C871 C 0.71548 0.84645 0.81529 0.0
C872 C 0.77316 0.89402 0.77055 0.0
C873 C 0.76936 0.87925 0.74747 0.0
C874 C 0.79195 0.92232 0.77136 0.0
C875 C 0.79519 0.93949 0.79469 0.0
C876 C 0.76813 0.94064 0.80636 0.0
C877 C 0.7713 0.95665 0.82844 0.0
C878 C 0.80142 0.97177 0.83897 0.0
C879 C 0.82843 0.97095 0.82739 0.0
C880 C 0.82539 0.95494 0.80532 0.0
C881 C 0.82185 0.9465 0.65865 0.0
C882 C 0.85519 0.95725 0.66041 0.0
C883 C 0.80524 0.93491 0.68025 0.0
C884 C 0.82161 0.93376 0.704 0.0
C885 C 0.85479 0.94516 0.70604 0.0
C886 C 0.87143 0.95671 0.68444 0.0
C887 C 0.80433 0.91971 0.72652 0.0
C888 C 0.80751 0.93472 0.74938 0.0
C889 C 0.78489 0.89164 0.72552 0.0
C890 C 0.78159 0.87437 0.7023 0.0
C891 C 0.80844 0.87101 0.69206 0.0
C892 C 0.80515 0.85488 0.67003 0.0
C893 C 0.7751 0.84182 0.65821 0.0
C894 C 0.74827 0.8448 0.66843 0.0
C895 C 0.75143 0.86094 0.69044 0.0
H896 H 0.77261 0.82934 0.64116 0.0
H897 H 0.80383 0.98415 0.85607 0.0
H898 H 0.83596 0.26898 0.31497 0.0
H899 H 0.80323 0.25449 0.27496 0.0
H900 H 0.72473 0.26899 0.3091 0.0
H901 H 0.75749 0.28349 0.34938 0.0
H902 H 0.70865 0.21738 0.28583 0.0
H903 H 0.75934 0.31143 0.26344 0.0
H904 H 0.8041 0.35455 0.25896 0.0
H905 H 0.84555 0.31427 0.20686 0.0
H906 H 0.80127 0.27076 0.21132 0.0
H907 H 0.62119 0.17561 0.16595 0.0
H908 H 0.64533 0.20485 0.20338 0.0
H909 H 0.73807 0.20751 0.18249 0.0
H910 H 0.71433 0.17954 0.14447 0.0
H911 H 0.74061 0.25632 0.19965 0.0
H912 H 0.6959 0.16121 0.22813 0.0
H913 H 0.6527 0.1171 0.23331 0.0
H914 H 0.60149 0.15879 0.27452 0.0
H915 H 0.64426 0.20322 0.26929 0.0
C916 C 0.81178 0.26923 0.31389 0.0
C917 C 0.79921 0.27727 0.33527 0.0
C918 C 0.79319 0.26115 0.29098 0.0
C919 C 0.76164 0.26087 0.28902 0.0
C920 C 0.74908 0.2692 0.31022 0.0
C921 C 0.76782 0.27758 0.33312 0.0
C922 C 0.74152 0.25024 0.26525 0.0
C923 C 0.71516 0.22625 0.26701 0.0
C924 C 0.75039 0.26159 0.24072 0.0
C925 C 0.77704 0.28776 0.23785 0.0
C926 C 0.77811 0.31169 0.25117 0.0
C927 C 0.80338 0.33623 0.24861 0.0
C928 C 0.82767 0.33714 0.23266 0.0
C929 C 0.82671 0.31353 0.21921 0.0
C930 C 0.8015 0.28894 0.22172 0.0
C931 C 0.64677 0.18288 0.16904 0.0
C932 C 0.66581 0.17493 0.15237 0.0
C933 C 0.66051 0.19939 0.19059 0.0
C934 C 0.69348 0.20798 0.19601 0.0
C935 C 0.71257 0.20104 0.1788 0.0
C936 C 0.69891 0.18475 0.15721 0.0
C937 C 0.70829 0.22297 0.22017 0.0
C938 C 0.73368 0.24777 0.21849 0.0
C939 C 0.69868 0.21226 0.2448 0.0
C940 C 0.67307 0.18555 0.24805 0.0
C941 C 0.67532 0.16098 0.23813 0.0
C942 C 0.65093 0.13593 0.2411 0.0
C943 C 0.62431 0.13516 0.25416 0.0
C944 C 0.62208 0.15943 0.26435 0.0
C945 C 0.64639 0.18455 0.26141 0.0
H946 H 0.60545 0.11574 0.25644 0.0
H947 H 0.84722 0.35615 0.23071 0.0
H948 H 0.36278 0.65383 0.30939 0.0
H949 H 0.37332 0.62553 0.34571 0.0
H950 H 0.46771 0.68396 0.35798 0.0
H951 H 0.4574 0.71148 0.32151 0.0
H952 H 0.47148 0.63522 0.36375 0.0
H953 H 0.40344 0.68106 0.39622 0.0
H954 H 0.3551 0.69409 0.39717 0.0
H955 H 0.29887 0.60867 0.40464 0.0
H956 H 0.34686 0.5951 0.40341 0.0
H957 H 0.51295 0.60337 0.49182 0.0
H958 H 0.4973 0.62686 0.45428 0.0
H959 H 0.40968 0.5591 0.44359 0.0
H960 H 0.42523 0.53555 0.48124 0.0
H961 H 0.40017 0.60909 0.43602 0.0
H962 H 0.47071 0.56444 0.40628 0.0
H963 H 0.52023 0.55308 0.40642 0.0
H964 H 0.5732 0.6387 0.39506 0.0
H965 H 0.52406 0.65065 0.39521 0.0
C966 C 0.38582 0.6603 0.31974 0.0
C967 C 0.40939 0.68466 0.31265 0.0
C968 C 0.3918 0.6443 0.34064 0.0
C969 C 0.42128 0.65267 0.355 0.0
C970 C 0.44484 0.67685 0.34738 0.0
C971 C 0.43894 0.69262 0.32651 0.0
C972 C 0.42793 0.63672 0.37805 0.0
C973 C 0.45595 0.6298 0.37962 0.0
C974 C 0.40754 0.62895 0.39873 0.0
C975 C 0.37867 0.63705 0.39941 0.0
C976 C 0.38072 0.66504 0.39785 0.0
C977 C 0.3534 0.67252 0.39848 0.0
C978 C 0.32392 0.65221 0.40087 0.0
C979 C 0.32171 0.62437 0.40272 0.0
C980 C 0.34897 0.61677 0.40208 0.0
C981 C 0.49023 0.59357 0.48161 0.0
C982 C 0.47041 0.5675 0.48944 0.0
C983 C 0.48136 0.60696 0.46004 0.0
C984 C 0.45246 0.59462 0.44575 0.0
C985 C 0.43212 0.56905 0.45415 0.0
C986 C 0.44106 0.55557 0.47567 0.0
C987 C 0.4439 0.60809 0.42178 0.0
C988 C 0.41555 0.61445 0.42005 0.0
C989 C 0.46414 0.61561 0.40104 0.0
C990 C 0.49372 0.60846 0.40096 0.0
C991 C 0.49295 0.58087 0.40401 0.0
C992 C 0.52094 0.57433 0.40401 0.0
C993 C 0.54982 0.59516 0.40077 0.0
C994 C 0.5508 0.62259 0.39757 0.0
C995 C 0.52288 0.62926 0.39759 0.0
H996 H 0.57143 0.59006 0.40062 0.0
H997 H 0.30279 0.65805 0.40136 0.0
H998 H 0.11324 0.45161 0.79065 0.0
H999 H 0.10131 0.47384 0.82828 0.0
H1000 H 0.13348 0.41912 0.87873 0.0
H1001 H 0.14501 0.39676 0.84101 0.0
H1002 H 0.07961 0.42128 0.89447 0.0
H1003 H 0.17606 0.49106 0.87235 0.0
H1004 H 0.21212 0.52422 0.84381 0.0
H1005 H 0.14455 0.56713 0.83076 0.0
H1006 H 0.1079 0.53401 0.85896 0.0
H1007 H 0.07119 0.48854 1.01199 0.0
H1008 H 0.08938 0.4692 0.97567 0.0
H1009 H 0.06131 0.52495 0.92362 0.0
H1010 H 0.04389 0.54473 0.95979 0.0
H1011 H 0.1145 0.52244 0.90918 0.0
H1012 H 0.01727 0.45266 0.92919 0.0
H1013 H 0.9799 0.41949 0.95686 0.0
H1014 H 0.04717 0.37677 0.97291 0.0
H1015 H 0.08509 0.40982 0.9455 0.0
C1016 C 0.11857 0.44484 0.8098 0.0
C1017 C 0.13082 0.42283 0.8128 0.0
C1018 C 0.11161 0.45753 0.83144 0.0
C1019 C 0.11663 0.44853 0.85677 0.0
C1020 C 0.12932 0.4267 0.85965 0.0
C1021 C 0.1363 0.41407 0.83801 0.0
C1022 C 0.10752 0.46097 0.88006 0.0
C1023 C 0.08774 0.4434 0.89781 0.0
C1024 C 0.1171 0.48992 0.88448 0.0
C1025 C 0.13912 0.5099 0.86758 0.0
C1026 C 0.1688 0.50745 0.86324 0.0
C1027 C 0.18936 0.52626 0.84715 0.0
C1028 C 0.1806 0.54773 0.83543 0.0
C1029 C 0.15129 0.55047 0.83983 0.0
C1030 C 0.13062 0.53171 0.85588 0.0
C1031 C 0.06896 0.49679 0.99285 0.0
C1032 C 0.05595 0.51835 0.98911 0.0
C1033 C 0.07923 0.48552 0.9719 0.0
C1034 C 0.0765 0.49516 0.94643 0.0
C1035 C 0.0639 0.51694 0.94281 0.0
C1036 C 0.05381 0.52828 0.96371 0.0
C1037 C 0.08661 0.48275 0.9236 0.0
C1038 C 0.10648 0.5003 0.90591 0.0
C1039 C 0.07692 0.4538 0.91911 0.0
C1040 C 0.05414 0.43387 0.93551 0.0
C1041 C 0.02418 0.4363 0.93875 0.0
C1042 C 1.00288 0.41751 0.95436 0.0
C1043 C 0.0112 0.39611 0.9667 0.0
C1044 C 0.04079 0.39339 0.96338 0.0
C1045 C 0.06217 0.41211 0.94778 0.0
H1046 H 0.99468 0.3816 0.97879 0.0
H1047 H 0.19655 0.56226 0.82298 0.0
H1048 H 0.66214 0.87521 0.88252 0.0
H1049 H 0.64242 0.91307 0.89262 0.0
H1050 H 0.5638 0.85491 0.92941 0.0
H1051 H 0.58328 0.81711 0.91892 0.0
H1052 H 0.54604 0.89578 0.90427 0.0
H1053 H 0.63064 0.88844 0.96451 0.0
H1054 H 0.68446 0.88719 0.97643 0.0
H1055 H 0.72474 0.96806 0.9438 0.0
H1056 H 0.6711 0.96961 0.93139 0.0
H1057 H 0.50711 0.96855 1.00244 0.0
H1058 H 0.52256 0.93789 0.97501 0.0
H1059 H 0.60311 1.0062 0.95272 0.0
H1060 H 0.58864 0.03677 0.98153 0.0
H1061 H 0.62114 0.96465 0.96371 0.0
H1062 H 0.53411 0.97466 0.91045 0.0
H1063 H 0.47945 0.97563 0.90287 0.0
H1064 H 0.44264 0.89 0.924 0.0
H1065 H 0.49706 0.88854 0.93207 0.0
C1066 C 0.64024 0.87058 0.89219 0.0
C1067 C 0.62409 0.84355 0.90005 0.0
C1068 C 0.62905 0.89212 0.89799 0.0
C1069 C 0.60183 0.88682 0.91202 0.0
C1070 C 0.58475 0.85944 0.91851 0.0
C1071 C 0.59591 0.83793 0.91263 0.0
C1072 C 0.59316 0.90984 0.9226 0.0
C1073 C 0.56241 0.91092 0.91722 0.0
C1074 C 0.61471 0.92983 0.93916 0.0
C1075 C 0.64692 0.92899 0.94675 0.0
C1076 C 0.65099 0.90586 0.95972 0.0
C1077 C 0.68145 0.90511 0.96658 0.0
C1078 C 0.70801 0.92749 0.9608 0.0
C1079 C 0.70415 0.95071 0.94821 0.0
C1080 C 0.67374 0.95154 0.94126 0.0
C1081 C 0.52792 0.97714 0.99147 0.0
C1082 C 0.54668 1.00504 0.99407 0.0
C1083 C 0.5366 0.9596 0.97559 0.0
C1084 C 0.56363 0.9698 0.96127 0.0
C1085 C 0.58207 0.99787 0.96346 0.0
C1086 C 0.57379 0.01531 0.97988 0.0
C1087 C 0.57384 0.95066 0.94563 0.0
C1088 C 0.60491 0.95014 0.95017 0.0
C1089 C 0.5525 0.93122 0.92837 0.0
C1090 C 0.51973 0.93155 0.92201 0.0
C1091 C 0.51437 0.95603 0.91351 0.0
C1092 C 0.48344 0.9567 0.90923 0.0
C1093 C 0.45765 0.93297 0.91321 0.0
C1094 C 0.46269 0.9084 0.9211 0.0
C1095 C 0.49358 0.90761 0.92544 0.0
H1096 H 0.43377 0.9335 0.90981 0.0
H1097 H 0.73157 0.92688 0.96613 0.0
H1098 H 0.84774 0.25057 0.44201 0.0
H1099 H 0.87032 0.21624 0.46022 0.0
H1100 H 0.91445 0.21522 0.38893 0.0
H1101 H 0.89078 0.2489 0.37035 0.0
H1102 H 0.89081 0.16544 0.40421 0.0
H1103 H 0.95641 0.24779 0.44566 0.0
H1104 H 0.97125 0.29092 0.47075 0.0
H1105 H 0.92849 0.24532 0.53678 0.0
H1106 H 0.91283 0.20195 0.51195 0.0
H1107 H 1.00516 0.10751 0.47212 0.0
H1108 H 0.98196 0.13904 0.4486 0.0
H1109 H 0.90104 0.11207 0.49516 0.0
H1110 H 0.92354 0.07993 0.51832 0.0
H1111 H 0.94607 0.17592 0.49123 0.0
H1112 H 0.87857 0.09321 0.44516 0.0
H1113 H 0.87032 0.05153 0.41905 0.0
H1114 H 0.92577 0.10126 0.3603 0.0
H1115 H 0.93475 0.14321 0.38629 0.0
C1116 C 0.86253 0.24319 0.43035 0.0
C1117 C 0.86773 0.25246 0.40486 0.0
C1118 C 0.87552 0.22364 0.44078 0.0
C1119 C 0.89458 0.21343 0.42613 0.0
C1120 C 0.89986 0.22278 0.40063 0.0
C1121 C 0.88642 0.24202 0.39005 0.0
C1122 C 0.90807 0.19236 0.43717 0.0
C1123 C 0.90322 0.16801 0.42311 0.0
C1124 C 0.92424 0.19548 0.46191 0.0
C1125 C 0.93309 0.22162 0.4768 0.0
C1126 C 0.94983 0.24697 0.46543 0.0
C1127 C 0.95844 0.27147 0.47963 0.0
C1128 C 0.95072 0.27087 0.50532 0.0
C1129 C 0.93438 0.24577 0.51686 0.0
C1130 C 0.92562 0.22122 0.50272 0.0
C1131 C 0.98211 0.10789 0.47698 0.0
C1132 C 0.96612 0.09128 0.49703 0.0
C1133 C 0.96895 0.12585 0.46354 0.0
C1134 C 0.93989 0.12773 0.47024 0.0
C1135 C 0.92344 0.11067 0.48972 0.0
C1136 C 0.93625 0.09229 0.50281 0.0
C1137 C 0.92807 0.14922 0.45848 0.0
C1138 C 0.93354 0.17363 0.47236 0.0
C1139 C 0.91318 0.14645 0.43345 0.0
C1140 C 0.90767 0.12127 0.41781 0.0
C1141 C 0.88931 0.09521 0.42682 0.0
C1142 C 0.88442 0.07155 0.412 0.0
C1143 C 0.89761 0.07373 0.38807 0.0
C1144 C 0.91562 0.0996 0.37886 0.0
C1145 C 0.9206 0.12332 0.39362 0.0
H1146 H 0.89379 0.05539 0.37662 0.0
H1147 H 0.95747 0.28985 0.51629 0.0
H1148 H 0.30264 0.72374 0.19285 0.0
H1149 H 0.25509 0.69245 0.17114 0.0
H1150 H 0.28531 0.62297 0.1937 0.0
H1151 H 0.33418 0.65471 0.21486 0.0
H1152 H 0.26272 0.61727 0.14474 0.0
H1153 H 0.22374 0.63466 0.22262 0.0
H1154 H 0.21575 0.66204 0.25838 0.0
H1155 H 0.16937 0.7042 0.20544 0.0
H1156 H 0.17749 0.67737 0.16929 0.0
H1157 H 0.07623 0.56111 0.11405 0.0
H1158 H 0.12288 0.5753 0.14443 0.0
H1159 H 0.18116 0.61438 0.08228 0.0
H1160 H 0.13463 0.59995 0.05182 0.0
H1161 H 0.15732 0.62559 0.15784 0.0
H1162 H 0.25632 0.61549 0.09459 0.0
H1163 H 0.26289 0.58329 0.06254 0.0
H1164 H 0.18633 0.51756 0.09283 0.0
H1165 H 0.17938 0.54929 0.12515 0.0
C1166 C 0.2994 0.70183 0.19316 0.0
C1167 C 0.32253 0.69182 0.20541 0.0
C1168 C 0.27189 0.68385 0.18093 0.0
C1169 C 0.26625 0.65522 0.18094 0.0
C1170 C 0.28903 0.64497 0.19344 0.0
C1171 C 0.31683 0.66309 0.20572 0.0
C1172 C 0.2369 0.63653 0.16718 0.0
C1173 C 0.23965 0.61895 0.14773 0.0
C1174 C 0.20648 0.63791 0.17153 0.0
C1175 C 0.20139 0.65407 0.19321 0.0
C1176 C 0.21202 0.64989 0.21857 0.0
C1177 C 0.20744 0.6653 0.23892 0.0
C1178 C 0.19209 0.68487 0.23418 0.0
C1179 C 0.18125 0.68903 0.20908 0.0
C1180 C 0.18579 0.67369 0.18866 0.0
C1181 C 0.09909 0.57231 0.10679 0.0
C1182 C 0.10175 0.57952 0.08055 0.0
C1183 C 0.12575 0.5805 0.12421 0.0
C1184 C 0.15568 0.59587 0.11574 0.0
C1185 C 0.15851 0.60222 0.08933 0.0
C1186 C 0.13184 0.59409 0.07192 0.0
C1187 C 0.18337 0.60732 0.13463 0.0
C1188 C 0.1803 0.62359 0.15504 0.0
C1189 C 0.21321 0.60406 0.13163 0.0
C1190 C 0.2172 0.58487 0.11218 0.0
C1191 C 0.24094 0.59416 0.09446 0.0
C1192 C 0.24468 0.57599 0.07621 0.0
C1193 C 0.22495 0.54843 0.07559 0.0
C1194 C 0.20144 0.53896 0.09323 0.0
C1195 C 0.19755 0.55705 0.11147 0.0
H1196 H 0.22792 0.53439 0.06147 0.0
H1197 H 0.18857 0.69678 0.24996 0.0
H1198 H 0.23416 0.3748 0.70627 0.0
H1199 H 0.28035 0.40182 0.68443 0.0
H1200 H 0.25845 0.47614 0.69826 0.0
H1201 H 0.20964 0.4483 0.71814 0.0
H1202 H 0.27807 0.48184 0.65402 0.0
H1203 H 0.32514 0.45787 0.73038 0.0
H1204 H 0.33578 0.42912 0.76623 0.0
H1205 H 0.36498 0.38062 0.71299 0.0
H1206 H 0.35411 0.40883 0.67676 0.0
H1207 H 0.42946 0.55577 0.60275 0.0
H1208 H 0.38617 0.53783 0.63153 0.0
H1209 H 0.38108 0.4545 0.61405 0.0
H1210 H 0.42501 0.47234 0.58587 0.0
H1211 H 0.37841 0.46019 0.66483 0.0
H1212 H 0.32332 0.48711 0.58803 0.0
H1213 H 0.31819 0.52253 0.55655 0.0
H1214 H 0.31204 0.57444 0.61839 0.0
H1215 H 0.3169 0.53926 0.65013 0.0
C1216 C 0.23878 0.39688 0.70461 0.0
C1217 C 0.21741 0.40908 0.7137 0.0
C1218 C 0.26591 0.41257 0.69242 0.0
C1219 C 0.27382 0.44142 0.68983 0.0
C1220 C 0.25325 0.45399 0.69983 0.0
C1221 C 0.22541 0.43804 0.71158 0.0
C1222 C 0.30264 0.45773 0.67566 0.0
C1223 C 0.30008 0.47729 0.65683 0.0
C1224 C 0.33199 0.4525 0.67909 0.0
C1225 C 0.33858 0.43538 0.70081 0.0
C1226 C 0.33362 0.44096 0.72628 0.0
C1227 C 0.33973 0.42477 0.74668 0.0
C1228 C 0.35099 0.40303 0.74188 0.0
C1229 C 0.35624 0.39746 0.71668 0.0
C1230 C 0.35016 0.41358 0.6962 0.0
C1231 C 0.41914 0.53361 0.60492 0.0
C1232 C 0.43099 0.5156 0.59184 0.0
C1233 C 0.39408 0.52331 0.62136 0.0
C1234 C 0.37979 0.49465 0.62494 0.0
C1235 C 0.39149 0.47667 0.61176 0.0
C1236 C 0.41664 0.48695 0.59546 0.0
C1237 C 0.35317 0.48315 0.64266 0.0
C1238 C 0.3563 0.46464 0.66223 0.0
C1239 C 0.32494 0.49018 0.64059 0.0
C1240 C 0.32052 0.51062 0.62139 0.0
C1241 C 0.32073 0.50604 0.59485 0.0
C1242 C 0.31785 0.52606 0.57698 0.0
C1243 C 0.31472 0.5507 0.58545 0.0
C1244 C 0.31426 0.5553 0.61181 0.0
C1245 C 0.31695 0.53529 0.62974 0.0
H1246 H 0.31268 0.56624 0.57159 0.0
H1247 H 0.3557 0.39051 0.7577 0.0
H1248 H 0.7138 0.74222 0.91348 0.0
H1249 H 0.74826 0.71874 0.93489 0.0
H1250 H 0.83033 0.78868 0.9197 0.0
H1251 H 0.79628 0.8132 0.89985 0.0
H1252 H 0.82516 0.72797 0.90344 0.0
H1253 H 0.82088 0.78831 0.97349 0.0
H1254 H 0.79252 0.80707 1.00344 0.0
H1255 H 0.74715 0.72548 0.03277 0.0
H1256 H 0.7749 0.70618 1.00265 0.0
H1257 H 0.95394 0.70138 0.96736 0.0
H1258 H 0.91603 0.72387 0.95174 0.0
H1259 H 0.84454 0.66799 0.99697 0.0
H1260 H 0.88301 0.64618 1.0139 0.0
H1261 H 0.84029 0.71847 0.9983 0.0
H1262 H 0.84548 0.65751 0.93242 0.0
H1263 H 0.87062 0.63597 0.90216 0.0
H1264 H 0.90948 0.71398 0.86398 0.0
H1265 H 0.88495 0.7361 0.89428 0.0
C1266 C 0.7391 0.75292 0.91509 0.0
C1267 C 0.75213 0.77968 0.90475 0.0
C1268 C 0.75873 0.73934 0.92718 0.0
C1269 C 0.79169 0.75206 0.92879 0.0
C1270 C 0.80487 0.77857 0.9185 0.0
C1271 C 0.7853 0.79241 0.90691 0.0
C1272 C 0.81265 0.73742 0.94053 0.0
C1273 C 0.8288 0.72609 0.92416 0.0
C1274 C 0.81628 0.7342 0.96751 0.0
C1275 C 0.7996 0.74577 0.98557 0.0
C1276 C 0.80455 0.77433 0.98609 0.0
C1277 C 0.78867 0.78507 1.00316 0.0
C1278 C 0.76795 0.76747 0.01993 0.0
C1279 C 0.76314 0.73909 0.01972 0.0
C1280 C 0.77895 0.72824 1.00267 0.0
C1281 C 0.9304 0.69418 0.97449 0.0
C1282 C 0.92155 0.67186 0.99187 0.0
C1283 C 0.90858 0.70686 0.96524 0.0
C1284 C 0.87725 0.69723 0.97274 0.0
C1285 C 0.86853 0.6756 0.99074 0.0
C1286 C 0.89048 0.66301 1.00022 0.0
C1287 C 0.85358 0.70943 0.9612 0.0
C1288 C 0.8367 0.72018 0.97755 0.0
C1289 C 0.84884 0.71172 0.93411 0.0
C1290 C 0.8636 0.69852 0.91578 0.0
C1291 C 0.85959 0.67013 0.9177 0.0
C1292 C 0.8737 0.6578 0.90052 0.0
C1293 C 0.8917 0.67361 0.8812 0.0
C1294 C 0.89556 0.70177 0.87898 0.0
C1295 C 0.88153 0.71421 0.89614 0.0
H1296 H 0.9026 0.66403 0.8679 0.0
H1297 H 0.75569 0.77583 0.03314 0.0
H1298 H 0.41189 0.76484 0.16459 0.0
H1299 H 0.43385 0.80863 0.14126 0.0
H1300 H 0.42648 0.85381 0.20816 0.0
H1301 H 0.40528 0.81016 0.23181 0.0
H1302 H 0.39966 0.8619 0.14445 0.0
H1303 H 0.48849 0.86795 0.21033 0.0
H1304 H 0.52563 0.84688 0.23228 0.0
H1305 H 0.55709 0.83289 0.15907 0.0
H1306 H 0.51973 0.85349 0.13672 0.0
H1307 H 0.47669 1.00154 0.10881 0.0
H1308 H 0.45339 0.95782 0.13153 0.0
H1309 H 0.51981 0.92475 0.09894 0.0
H1310 H 0.54418 0.96899 0.07748 0.0
H1311 H 0.51592 0.90882 0.14478 0.0
H1312 H 0.43702 0.90621 0.07815 0.0
H1313 H 0.39989 0.92332 0.05122 0.0
H1314 H 0.34842 0.92557 0.11762 0.0
H1315 H 0.38555 0.9088 0.14504 0.0
C1316 C 0.415 0.78412 0.17431 0.0
C1317 C 0.40703 0.78407 0.20009 0.0
C1318 C 0.42751 0.80909 0.16097 0.0
C1319 C 0.43179 0.83444 0.17299 0.0
C1320 C 0.42345 0.83447 0.19857 0.0
C1321 C 0.41152 0.80955 0.21209 0.0
C1322 C 0.44542 0.86091 0.15892 0.0
C1323 C 0.42503 0.87246 0.14475 0.0
C1324 C 0.4785 0.87398 0.15843 0.0
C1325 C 0.50109 0.8619 0.17189 0.0
C1326 C 0.50309 0.8601 0.19893 0.0
C1327 C 0.52423 0.84832 0.21144 0.0
C1328 C 0.54363 0.83846 0.19707 0.0
C1329 C 0.54201 0.84046 0.17018 0.0
C1330 C 0.52087 0.85219 0.15759 0.0
C1331 C 0.4862 0.98487 0.10648 0.0
C1332 C 0.51225 0.98865 0.09141 0.0
C1333 C 0.47274 0.95975 0.11935 0.0
C1334 C 0.4844 0.93755 0.11678 0.0
C1335 C 0.51031 0.94139 0.10144 0.0
C1336 C 0.52418 0.96668 0.08906 0.0
C1337 C 0.4702 0.91061 0.13046 0.0
C1338 C 0.49048 0.89865 0.14444 0.0
C1339 C 0.43696 0.89682 0.13015 0.0
C1340 C 0.41425 0.90649 0.11369 0.0
C1341 C 0.41789 0.9105 0.08704 0.0
C1342 C 0.39684 0.92014 0.07168 0.0
C1343 C 0.37186 0.92562 0.08271 0.0
C1344 C 0.36781 0.92135 0.10911 0.0
C1345 C 0.38884 0.91175 0.12457 0.0
H1346 H 0.35561 0.9331 0.0708 0.0
H1347 H 0.55999 0.82936 0.20679 0.0
H1348 H 0.10755 0.29593 0.73662 0.0
H1349 H 0.08569 0.25175 0.71403 0.0
H1350 H 0.12032 0.29169 0.64284 0.0
H1351 H 0.14045 0.33614 0.6649 0.0
H1352 H 0.06636 0.25534 0.63162 0.0
H1353 H 0.15822 0.2509 0.68172 0.0
H1354 H 0.19318 0.25344 0.72097 0.0
H1355 H 0.11992 0.18819 0.75553 0.0
H1356 H 0.08436 0.1855 0.71659 0.0
H1357 H 0.05095 0.12881 0.56586 0.0
H1358 H 0.07426 0.17405 0.58705 0.0
H1359 H 0.02944 0.13959 0.65675 0.0
H1360 H 1.0064 0.09456 0.63565 0.0
H1361 H 0.09012 0.17327 0.66767 0.0
H1362 H 0.99859 0.17832 0.6162 0.0
H1363 H 0.96509 0.176 0.57611 0.0
H1364 H 0.04033 0.24049 0.54281 0.0
H1365 H 0.07448 0.2429 0.58258 0.0
C1366 C 0.11015 0.29553 0.71608 0.0
C1367 C 0.1263 0.31996 0.70287 0.0
C1368 C 0.09796 0.26998 0.70315 0.0
C1369 C 0.10187 0.26788 0.67664 0.0
C1370 C 0.11708 0.29236 0.66327 0.0
C1371 C 0.129 0.31792 0.6761 0.0
C1372 C 0.09042 0.24033 0.66291 0.0
C1373 C 0.07203 0.23757 0.63941 0.0
C1374 C 0.0972 0.21668 0.67292 0.0
C1375 C 0.11853 0.2182 0.69634 0.0
C1376 C 0.14949 0.23723 0.69776 0.0
C1377 C 0.16943 0.23868 0.71994 0.0
C1378 C 0.15875 0.22104 0.74076 0.0
C1379 C 0.12814 0.20187 0.73941 0.0
C1380 C 0.10809 0.20036 0.71728 0.0
C1381 C 0.04676 0.13072 0.58584 0.0
C1382 C 0.02727 0.10787 0.59913 0.0
C1383 C 0.05972 0.15675 0.59791 0.0
C1384 C 0.05356 0.16052 0.6236 0.0
C1385 C 0.03472 0.13745 0.63701 0.0
C1386 C 0.02152 0.11163 0.62488 0.0
C1387 C 0.06607 0.18835 0.63654 0.0
C1388 C 0.08463 0.19113 0.65988 0.0
C1389 C 0.05971 0.21204 0.62623 0.0
C1390 C 0.03923 0.21056 0.60228 0.0
C1391 C 0.00811 0.19182 0.60024 0.0
C1392 C 0.98897 0.19053 0.57759 0.0
C1393 C 1.0006 0.20803 0.55689 0.0
C1394 C 0.03137 0.2269 0.55883 0.0
C1395 C 0.05062 0.22825 0.58143 0.0
H1396 H 0.98573 0.20702 0.53938 0.0
H1397 H 0.17422 0.22219 0.75792 0.0
H1398 H 0.75663 0.32797 0.40701 0.0
H1399 H 0.71689 0.35087 0.41121 0.0
H1400 H 0.79106 0.4302 0.41473 0.0
H1401 H 0.83083 0.40706 0.41106 0.0
H1402 H 0.75377 0.42495 0.45293 0.0
H1403 H 0.73706 0.41173 0.36222 0.0
H1404 H 0.72788 0.38619 0.32122 0.0
H1405 H 0.63891 0.33187 0.34571 0.0
H1406 H 0.64775 0.35682 0.38704 0.0
H1407 H 0.63973 0.49208 0.46339 0.0
H1408 H 0.68068 0.47851 0.44383 0.0
H1409 H 0.62025 0.39331 0.44359 0.0
H1410 H 0.57941 0.40658 0.46347 0.0
H1411 H 0.65324 0.40731 0.39924 0.0
H1412 H 0.67465 0.41659 0.49193 0.0
H1413 H 0.68392 0.44182 0.53314 0.0
H1414 H 0.76484 0.50391 0.50404 0.0
H1415 H 0.75576 0.4792 0.46251 0.0
C1416 C 0.76422 0.35033 0.40825 0.0
C1417 C 0.79644 0.36594 0.40867 0.0
C1418 C 0.74159 0.36341 0.4105 0.0
C1419 C 0.75096 0.39231 0.41301 0.0
C1420 C 0.7833 0.40792 0.41272 0.0
C1421 C 0.80593 0.39478 0.41056 0.0
C1422 C 0.72727 0.40582 0.41826 0.0
C1423 C 0.73215 0.42162 0.44082 0.0
C1424 C 0.69876 0.40105 0.40276 0.0
C1425 C 0.69319 0.38606 0.37784 0.0
C1426 C 0.71563 0.39422 0.35895 0.0
C1427 C 0.71048 0.37986 0.33564 0.0
C1428 C 0.68286 0.35739 0.33089 0.0
C1429 C 0.6603 0.34927 0.34943 0.0
C1430 C 0.66535 0.36355 0.37279 0.0
C1431 C 0.63509 0.47046 0.45908 0.0
C1432 C 0.6064 0.45038 0.46524 0.0
C1433 C 0.65844 0.46278 0.44777 0.0
C1434 C 0.65358 0.43488 0.4425 0.0
C1435 C 0.6244 0.41497 0.44741 0.0
C1436 C 0.60106 0.42262 0.45875 0.0
C1437 C 0.67972 0.42602 0.43398 0.0
C1438 C 0.67521 0.41104 0.41096 0.0
C1439 C 0.70865 0.43154 0.449 0.0
C1440 C 0.71433 0.44623 0.47404 0.0
C1441 C 0.69429 0.43572 0.49427 0.0
C1442 C 0.69952 0.44991 0.51768 0.0
C1443 C 0.7249 0.47449 0.52118 0.0
C1444 C 0.74516 0.48489 0.50129 0.0
C1445 C 0.73999 0.4708 0.47782 0.0
H1446 H 0.72891 0.48545 0.53932 0.0
H1447 H 0.67892 0.34629 0.31283 0.0
loop_
_geom_bond_atom_site_label_1
_geom_bond_atom_site_label_2
_geom_bond_distance
_geom_bond_site_symmetry_2
_ccdc_geom_bond_type
H0 C3 0.929 . S
H1 C6 0.929 . S
H2 C8 0.930 . S
C3 H0 0.929 . S
C3 C4 1.398 . S
C3 C5 1.396 . S
C4 C3 1.398 . S
C4 C8 1.407 . S
C5 C3 1.396 . S
C5 C6 1.394 . S
C6 H1 0.929 . S
C6 C5 1.394 . S
C6 C7 1.382 . S
C7 C6 1.382 . S
C7 C8 1.392 . S
C7 N9 1.420 . S
C8 H2 0.930 . S
C8 C4 1.407 . S
C8 C7 1.392 . S
N9 C7 1.420 . S
N9 C10 1.244 . S
C10 N9 1.244 . S
H11 C14 0.929 . S
H12 C17 0.929 . S
H13 C19 0.930 . S
C14 H11 0.929 . S
C14 C15 1.398 . S
C14 C16 1.396 . S
C15 C14 1.398 . S
C15 C19 1.407 . S
C16 C14 1.396 . S
C16 C17 1.394 . S
C17 H12 0.929 . S
C17 C16 1.394 . S
C17 C18 1.382 . S
C18 C17 1.382 . S
C18 C19 1.392 . S
C18 N20 1.420 . S
C19 H13 0.930 . S
C19 C15 1.407 . S
C19 C18 1.392 . S
N20 C18 1.420 . S
N20 C21 1.244 . S
C21 N20 1.244 . S
H22 C25 0.929 . S
H23 C28 0.929 . S
H24 C30 0.930 . S
C25 H22 0.929 . S
C25 C26 1.398 . S
C25 C27 1.396 . S
C26 C25 1.398 . S
C26 C30 1.407 . S
C27 C25 1.396 . S
C27 C28 1.394 . S
C28 H23 0.929 . S
C28 C27 1.394 . S
C28 C29 1.382 . S
C29 C28 1.382 . S
C29 C30 1.392 . S
C29 N31 1.420 . S
C30 H24 0.930 . S
C30 C26 1.407 . S
C30 C29 1.392 . S
N31 C29 1.420 . S
N31 C32 1.244 . S
C32 N31 1.244 . S
H33 C36 0.929 . S
H34 C39 0.929 . S
H35 C41 0.930 . S
C36 H33 0.929 . S
C36 C37 1.398 . S
C36 C38 1.396 . S
C37 C36 1.398 . S
C37 C41 1.407 . S
C38 C36 1.396 . S
C38 C39 1.394 . S
C39 H34 0.929 . S
C39 C38 1.394 . S
C39 C40 1.382 . S
C40 C39 1.382 . S
C40 C41 1.392 . S
C40 N42 1.420 . S
C41 H35 0.930 . S
C41 C37 1.407 . S
C41 C40 1.392 . S
N42 C40 1.420 . S
N42 C43 1.244 . S
C43 N42 1.244 . S
H44 C47 0.929 . S
H45 C50 0.929 . S
H46 C52 0.930 . S
C47 H44 0.929 . S
C47 C48 1.398 . S
C47 C49 1.396 . S
C48 C47 1.398 . S
C48 C52 1.407 . S
C49 C47 1.396 . S
C49 C50 1.394 . S
C50 H45 0.929 . S
C50 C49 1.394 . S
C50 C51 1.382 . S
C51 C50 1.382 . S
C51 C52 1.392 . S
C51 N53 1.420 . S
C52 H46 0.930 . S
C52 C48 1.407 . S
C52 C51 1.392 . S
N53 C51 1.420 . S
N53 C54 1.244 . S
C54 N53 1.244 . S
H55 C58 0.929 . S
H56 C61 0.929 . S
H57 C63 0.930 . S
C58 H55 0.929 . S
C58 C59 1.398 . S
C58 C60 1.396 . S
C59 C58 1.398 . S
C59 C63 1.407 . S
C60 C58 1.396 . S
C60 C61 1.394 . S
C61 H56 0.929 . S
C61 C60 1.394 . S
C61 C62 1.382 . S
C62 C61 1.382 . S
C62 C63 1.392 . S
C62 N64 1.420 . S
C63 H57 0.930 . S
C63 C59 1.407 . S
C63 C62 1.392 . S
N64 C62 1.420 . S
N64 C65 1.244 . S
C65 N64 1.244 . S
H66 C69 0.929 . S
H67 C72 0.929 . S
H68 C74 0.930 . S
C69 H66 0.929 . S
C69 C70 1.398 . S
C69 C71 1.396 . S
C70 C69 1.398 . S
C70 C74 1.407 . S
C71 C69 1.396 . S
C71 C72 1.394 . S
C72 H67 0.929 . S
C72 C71 1.394 . S
C72 C73 1.382 . S
C73 C72 1.382 . S
C73 C74 1.392 . S
C73 N75 1.420 . S
C74 H68 0.930 . S
C74 C70 1.407 . S
C74 C73 1.392 . S
N75 C73 1.420 . S
N75 C76 1.244 . S
C76 N75 1.244 . S
H77 C80 0.929 . S
H78 C83 0.929 . S
H79 C85 0.930 . S
C80 H77 0.929 . S
C80 C81 1.398 . S
C80 C82 1.396 . S
C81 C80 1.398 . S
C81 C85 1.407 . S
C82 C80 1.396 . S
C82 C83 1.394 . S
C83 H78 0.929 . S
C83 C82 1.394 . S
C83 C84 1.382 . S
C84 C83 1.382 . S
C84 C85 1.392 . S
C84 N86 1.420 . S
C85 H79 0.930 . S
C85 C81 1.407 . S
C85 C84 1.392 . S
N86 C84 1.420 . S
N86 C87 1.244 . S
C87 N86 1.244 . S
Tb88 C90 2.809 1_545 S
Tb88 O108 2.484 1_545 S
Tb88 O109 2.440 . S
Tb88 O110 2.658 1_655 S
Tb88 O111 2.409 1_655 S
Tb88 O112 2.378 1_655 S
Tb88 O116 2.325 1_545 S
Tb88 O119 2.341 . S
Tb89 C99 2.809 . S
Tb89 O110 2.325 . S
Tb89 O113 2.341 . S
Tb89 O114 2.484 . S
Tb89 O115 2.440 . S
Tb89 O116 2.658 1_445 S
Tb89 O117 2.409 1_545 S
Tb89 O118 2.378 . S
C90 Tb88 2.809 1_565 S
C90 C91 1.514 . S
C90 O108 1.248 . S
C90 O109 1.266 1_565 S
C91 C90 1.514 . S
C91 C92 1.359 . S
C91 C96 1.348 . S
C92 C91 1.359 . S
C92 C93 1.380 . S
C92 H120 0.929 . S
C93 C92 1.380 . S
C93 C94 1.347 . S
C93 H121 0.931 . S
C94 C93 1.347 . S
C94 C95 1.369 . S
C95 C94 1.369 . S
C95 C96 1.408 . S
C95 H122 0.930 . S
C96 C91 1.348 . S
C96 C95 1.408 . S
C96 H123 0.930 . S
C97 O110 1.281 . S
C97 O111 1.254 . S
C98 O112 1.236 1_565 S
C98 O113 1.266 1_565 S
C99 Tb89 2.809 . S
C99 C100 1.514 . S
C99 O114 1.248 . S
C99 O115 1.266 . S
C100 C99 1.514 . S
C100 C101 1.359 . S
C100 C105 1.348 . S
C101 C100 1.359 . S
C101 C102 1.380 . S
C101 H124 0.929 . S
C102 C101 1.380 . S
C102 C103 1.347 . S
C102 H125 0.931 . S
C103 C102 1.347 . S
C103 C104 1.369 . S
C104 C103 1.369 . S
C104 C105 1.408 . S
C104 H126 0.930 . S
C105 C100 1.348 . S
C105 C104 1.408 . S
C105 H127 0.930 . S
C106 O116 1.281 . S
C106 O117 1.254 1_655 S
C107 O118 1.236 1_655 S
C107 O119 1.266 . S
O108 Tb88 2.484 1_565 S
O108 C90 1.248 . S
O109 Tb88 2.440 . S
O109 C90 1.266 1_545 S
O110 Tb88 2.658 1_455 S
O110 Tb89 2.325 . S
O110 C97 1.281 . S
O111 Tb88 2.409 1_455 S
O111 C97 1.254 . S
O112 Tb88 2.378 1_455 S
O112 C98 1.236 1_545 S
O113 Tb89 2.341 . S
O113 C98 1.266 1_545 S
O114 Tb89 2.484 . S
O114 C99 1.248 . S
O115 Tb89 2.440 . S
O115 C99 1.266 . S
O116 Tb88 2.325 1_565 S
O116 Tb89 2.658 1_665 S
O116 C106 1.281 . S
O117 Tb89 2.409 1_565 S
O117 C106 1.254 1_455 S
O118 Tb89 2.378 . S
O118 C107 1.236 1_455 S
O119 Tb88 2.341 . S
O119 C107 1.266 . S
H120 C92 0.929 . S
H121 C93 0.931 . S
H122 C95 0.930 . S
H123 C96 0.930 . S
H124 C101 0.929 . S
H125 C102 0.931 . S
H126 C104 0.930 . S
H127 C105 0.930 . S
Tb128 C130 2.809 . S
Tb128 O148 2.484 . S
Tb128 O149 2.440 . S
Tb128 O150 2.658 1_545 S
Tb128 O151 2.409 1_545 S
Tb128 O152 2.378 . S
Tb128 O156 2.325 . S
Tb128 O159 2.341 . S
Tb129 C139 2.809 1_544 S
Tb129 O150 2.325 1_545 S
Tb129 O153 2.341 . S
Tb129 O154 2.484 1_545 S
Tb129 O155 2.445 1_554 S
Tb129 O156 2.658 . S
Tb129 O157 2.414 . S
Tb129 O158 2.378 . S
C130 Tb128 2.809 . S
C130 C131 1.514 . S
C130 O148 1.248 . S
C130 O149 1.266 . S
C131 C130 1.514 . S
C131 C132 1.359 . S
C131 C136 1.348 . S
C132 C131 1.359 . S
C132 C133 1.380 . S
C132 H160 0.929 . S
C133 C132 1.380 . S
C133 C134 1.347 . S
C133 H161 0.931 . S
C134 C133 1.347 . S
C134 C135 1.369 . S
C135 C134 1.369 . S
C135 C136 1.408 . S
C135 H162 0.930 . S
C136 C131 1.348 . S
C136 C135 1.408 . S
C136 H163 0.930 . S
C137 O150 1.281 . S
C137 O151 1.254 . S
C138 O152 1.236 . S
C138 O153 1.266 . S
C139 Tb129 2.809 1_566 S
C139 C140 1.514 . S
C139 O154 1.248 1_556 S
C139 O155 1.250 1_565 S
C140 C139 1.514 . S
C140 C141 1.359 . S
C140 C145 1.348 . S
C141 C140 1.359 . S
C141 C142 1.380 . S
C141 H164 0.929 . S
C142 C141 1.380 . S
C142 C143 1.347 . S
C142 H165 0.931 . S
C143 C142 1.347 . S
C143 C144 1.369 . S
C144 C143 1.369 . S
C144 C145 1.408 . S
C144 H166 0.930 . S
C145 C140 1.348 . S
C145 C144 1.408 . S
C145 H167 0.930 . S
C146 O156 1.281 . S
C146 O157 1.259 . S
C147 O158 1.236 1_565 S
C147 O159 1.266 1_565 S
O148 Tb128 2.484 . S
O148 C130 1.248 . S
O149 Tb128 2.440 . S
O149 C130 1.266 . S
O150 Tb128 2.658 1_565 S
O150 Tb129 2.325 1_565 S
O150 C137 1.281 . S
O151 Tb128 2.409 1_565 S
O151 C137 1.254 . S
O152 Tb128 2.378 . S
O152 C138 1.236 . S
O153 Tb129 2.341 . S
O153 C138 1.266 . S
O154 Tb129 2.484 1_565 S
O154 C139 1.248 1_554 S
O155 Tb129 2.445 1_556 S
O155 C139 1.250 1_545 S
O156 Tb128 2.325 . S
O156 Tb129 2.658 . S
O156 C146 1.281 . S
O157 Tb129 2.414 . S
O157 C146 1.259 . S
O158 Tb129 2.378 . S
O158 C147 1.236 1_545 S
O159 Tb128 2.341 . S
O159 C147 1.266 1_545 S
H160 C132 0.929 . S
H161 C133 0.931 . S
H162 C135 0.930 . S
H163 C136 0.930 . S
H164 C141 0.929 . S
H165 C142 0.931 . S
H166 C144 0.930 . S
H167 C145 0.930 . S
Tb168 C170 2.809 . S
Tb168 O188 2.484 . S
Tb168 O189 2.440 . S
Tb168 O190 2.658 . S
Tb168 O191 2.409 . S
Tb168 O192 2.378 . S
Tb168 O196 2.325 . S
Tb168 O199 2.341 . S
Tb169 C179 2.809 . S
Tb169 O190 2.325 . S
Tb169 O193 2.341 . S
Tb169 O194 2.484 . S
Tb169 O195 2.440 . S
Tb169 O196 2.658 . S
Tb169 O197 2.409 . S
Tb169 O198 2.378 . S
C170 Tb168 2.809 . S
C170 C171 1.514 . S
C170 O188 1.248 . S
C170 O189 1.266 . S
C171 C170 1.514 . S
C171 C172 1.359 . S
C171 C176 1.348 . S
C172 C171 1.359 . S
C172 C173 1.380 . S
C172 H200 0.929 . S
C173 C172 1.380 . S
C173 C174 1.347 . S
C173 H201 0.931 . S
C174 C173 1.347 . S
C174 C175 1.369 . S
C175 C174 1.369 . S
C175 C176 1.408 . S
C175 H202 0.930 . S
C176 C171 1.348 . S
C176 C175 1.408 . S
C176 H203 0.930 . S
C177 O190 1.281 . S
C177 O191 1.254 . S
C178 O192 1.236 . S
C178 O193 1.266 . S
C179 Tb169 2.809 . S
C179 C180 1.514 . S
C179 O194 1.248 . S
C179 O195 1.266 . S
C180 C179 1.514 . S
C180 C181 1.359 . S
C180 C185 1.348 . S
C181 C180 1.359 . S
C181 C182 1.380 . S
C181 H204 0.929 . S
C182 C181 1.380 . S
C182 C183 1.347 . S
C182 H205 0.931 . S
C183 C182 1.347 . S
C183 C184 1.369 . S
C184 C183 1.369 . S
C184 C185 1.408 . S
C184 H206 0.930 . S
C185 C180 1.348 . S
C185 C184 1.408 . S
C185 H207 0.930 . S
C186 O196 1.281 . S
C186 O197 1.254 . S
C187 O198 1.236 . S
C187 O199 1.266 . S
O188 Tb168 2.484 . S
O188 C170 1.248 . S
O189 Tb168 2.440 . S
O189 C170 1.266 . S
O190 Tb168 2.658 . S
O190 Tb169 2.325 . S
O190 C177 1.281 . S
O191 Tb168 2.409 . S
O191 C177 1.254 . S
O192 Tb168 2.378 . S
O192 C178 1.236 . S
O193 Tb169 2.341 . S
O193 C178 1.266 . S
O194 Tb169 2.484 . S
O194 C179 1.248 . S
O195 Tb169 2.440 . S
O195 C179 1.266 . S
O196 Tb168 2.325 . S
O196 Tb169 2.658 . S
O196 C186 1.281 . S
O197 Tb169 2.409 . S
O197 C186 1.254 . S
O198 Tb169 2.378 . S
O198 C187 1.236 . S
O199 Tb168 2.341 . S
O199 C187 1.266 . S
H200 C172 0.929 . S
H201 C173 0.931 . S
H202 C175 0.930 . S
H203 C176 0.930 . S
H204 C181 0.929 . S
H205 C182 0.931 . S
H206 C184 0.930 . S
H207 C185 0.930 . S
Tb208 C210 2.809 1_455 S
Tb208 O228 2.484 1_455 S
Tb208 O229 2.440 . S
Tb208 O230 2.658 1_556 S
Tb208 O231 2.409 1_556 S
Tb208 O232 2.378 1_556 S
Tb208 O236 2.325 1_455 S
Tb208 O239 2.341 . S
Tb209 C219 2.809 . S
Tb209 O230 2.325 . S
Tb209 O233 2.363 . S
Tb209 O234 2.484 . S
Tb209 O235 2.440 . S
Tb209 O236 2.658 1_454 S
Tb209 O237 2.409 1_455 S
Tb209 O238 2.378 1_554 S
C210 Tb208 2.809 1_655 S
C210 C211 1.514 . S
C210 O228 1.248 . S
C210 O229 1.266 1_655 S
C211 C210 1.514 . S
C211 C212 1.359 . S
C211 C216 1.348 . S
C212 C211 1.359 . S
C212 C213 1.380 . S
C212 H240 0.929 . S
C213 C212 1.380 . S
C213 C214 1.347 . S
C213 H241 0.931 . S
C214 C213 1.347 . S
C214 C215 1.369 . S
C215 C214 1.369 . S
C215 C216 1.408 . S
C215 H242 0.930 . S
C216 C211 1.348 . S
C216 C215 1.408 . S
C216 H243 0.930 1_655 S
C217 O230 1.281 . S
C217 O231 1.254 . S
C218 O232 1.236 1_655 S
C218 O233 1.254 1_655 S
C219 Tb209 2.809 . S
C219 C220 1.514 . S
C219 O234 1.248 . S
C219 O235 1.266 . S
C220 C219 1.514 . S
C220 C221 1.359 . S
C220 C225 1.348 . S
C221 C220 1.359 . S
C221 C222 1.380 . S
C221 H244 0.929 . S
C222 C221 1.380 . S
C222 C223 1.347 . S
C222 H245 0.931 . S
C223 C222 1.347 . S
C223 C224 1.369 . S
C224 C223 1.369 . S
C224 C225 1.408 . S
C224 H246 0.930 . S
C225 C220 1.348 . S
C225 C224 1.408 . S
C225 H247 0.930 . S
C226 O236 1.281 . S
C226 O237 1.254 1_556 S
C227 O238 1.236 . S
C227 O239 1.266 . S
O228 Tb208 2.484 1_655 S
O228 C210 1.248 . S
O229 Tb208 2.440 . S
O229 C210 1.266 1_455 S
O230 Tb208 2.658 1_554 S
O230 Tb209 2.325 . S
O230 C217 1.281 . S
O231 Tb208 2.409 1_554 S
O231 C217 1.254 . S
O232 Tb208 2.378 1_554 S
O232 C218 1.236 1_455 S
O233 Tb209 2.363 . S
O233 C218 1.254 1_455 S
O234 Tb209 2.484 . S
O234 C219 1.248 . S
O235 Tb209 2.440 . S
O235 C219 1.266 . S
O236 Tb208 2.325 1_655 S
O236 Tb209 2.658 1_656 S
O236 C226 1.281 . S
O237 Tb209 2.409 1_655 S
O237 C226 1.254 1_554 S
O238 Tb209 2.378 1_556 S
O238 C227 1.236 . S
O239 Tb208 2.341 . S
O239 C227 1.266 . S
H240 C212 0.929 . S
H241 C213 0.931 . S
H242 C215 0.930 . S
H243 C216 0.930 1_455 S
H244 C221 0.929 . S
H245 C222 0.931 . S
H246 C224 0.930 . S
H247 C225 0.930 . S
H248 C266 0.951 . S
H249 C268 0.951 . S
H250 C270 0.950 . S
H251 C271 0.950 . S
H252 C273 0.950 . S
H253 C276 0.950 . S
H254 C277 0.950 . S
H255 C279 0.950 . S
H256 C280 0.950 . S
H257 C281 0.951 . S
H258 C283 0.951 . S
H259 C285 0.950 . S
H260 C286 0.950 . S
H261 C288 0.950 . S
H262 C291 0.950 . S
H263 C292 0.950 . S
H264 C294 0.950 . S
H265 C295 0.950 . S
C266 H248 0.951 . S
C266 C267 1.366 . S
C266 C268 1.388 . S
C267 C266 1.366 . S
C267 C271 1.385 . S
C268 H249 0.951 . S
C268 C266 1.388 . S
C268 C269 1.366 . S
C269 C268 1.366 . S
C269 C270 1.414 . S
C269 C272 1.499 . S
C270 H250 0.950 . S
C270 C269 1.414 . S
C270 C271 1.374 . S
C271 H251 0.950 . S
C271 C267 1.385 . S
C271 C270 1.374 . S
C272 C269 1.499 . S
C272 C273 1.373 . S
C272 C274 1.389 . S
C273 H252 0.950 . S
C273 C272 1.373 . S
C273 C289 1.377 . S
C274 C272 1.389 . S
C274 C275 1.524 . S
C274 C288 1.377 . S
C275 C274 1.524 . S
C275 C276 1.397 . S
C275 C280 1.363 . S
C276 H253 0.950 . S
C276 C275 1.397 . S
C276 C277 1.334 . S
C277 H254 0.950 . S
C277 C276 1.334 . S
C277 C278 1.287 . S
C278 C277 1.287 . S
C278 C279 1.524 . S
C278 H297 0.913 . S
C279 H255 0.950 . S
C279 C278 1.524 . S
C279 C280 1.415 . S
C280 H256 0.950 . S
C280 C275 1.363 . S
C280 C279 1.415 . S
C281 H257 0.951 . S
C281 C282 1.366 . S
C281 C283 1.388 . S
C282 C281 1.366 . S
C282 C286 1.385 . S
C283 H258 0.951 . S
C283 C281 1.388 . S
C283 C284 1.366 . S
C284 C283 1.366 . S
C284 C285 1.414 . S
C284 C287 1.499 . S
C285 H259 0.950 . S
C285 C284 1.414 . S
C285 C286 1.374 . S
C286 H260 0.950 . S
C286 C282 1.385 . S
C286 C285 1.374 . S
C287 C284 1.499 . S
C287 C288 1.373 . S
C287 C289 1.389 . S
C288 H261 0.950 . S
C288 C274 1.377 . S
C288 C287 1.373 . S
C289 C273 1.377 . S
C289 C287 1.389 . S
C289 C290 1.524 . S
C290 C289 1.524 . S
C290 C291 1.397 . S
C290 C295 1.363 . S
C291 H262 0.950 . S
C291 C290 1.397 . S
C291 C292 1.334 . S
C292 H263 0.950 . S
C292 C291 1.334 . S
C292 C293 1.287 . S
C293 C292 1.287 . S
C293 C294 1.524 . S
C293 H296 0.999 . S
C294 H264 0.950 . S
C294 C293 1.524 . S
C294 C295 1.415 . S
C295 H265 0.950 . S
C295 C290 1.363 . S
C295 C294 1.415 . S
H296 C293 0.999 . S
H297 C278 0.913 . S
H298 C316 0.951 . S
H299 C318 0.951 . S
H300 C320 0.950 . S
H301 C321 0.950 . S
H302 C323 0.950 . S
H303 C326 0.950 . S
H304 C327 0.950 . S
H305 C329 0.950 . S
H306 C330 0.950 . S
H307 C331 0.951 . S
H308 C333 0.951 . S
H309 C335 0.950 . S
H310 C336 0.950 . S
H311 C338 0.950 . S
H312 C341 0.950 . S
H313 C342 0.950 . S
H314 C344 0.950 . S
H315 C345 0.950 . S
C316 H298 0.951 . S
C316 C317 1.366 . S
C316 C318 1.388 . S
C317 C316 1.366 . S
C317 C321 1.385 . S
C318 H299 0.951 . S
C318 C316 1.388 . S
C318 C319 1.366 . S
C319 C318 1.366 . S
C319 C320 1.414 . S
C319 C322 1.499 . S
C320 H300 0.950 . S
C320 C319 1.414 . S
C320 C321 1.374 . S
C321 H301 0.950 . S
C321 C317 1.385 . S
C321 C320 1.374 . S
C322 C319 1.499 . S
C322 C323 1.373 . S
C322 C324 1.389 . S
C323 H302 0.950 . S
C323 C322 1.373 . S
C323 C339 1.377 . S
C324 C322 1.389 . S
C324 C325 1.524 . S
C324 C338 1.377 . S
C325 C324 1.524 . S
C325 C326 1.397 . S
C325 C330 1.363 . S
C326 H303 0.950 . S
C326 C325 1.397 . S
C326 C327 1.334 . S
C327 H304 0.950 . S
C327 C326 1.334 . S
C327 C328 1.287 . S
C328 C327 1.287 . S
C328 C329 1.524 . S
C328 H347 0.913 . S
C329 H305 0.950 . S
C329 C328 1.524 . S
C329 C330 1.415 . S
C330 H306 0.950 . S
C330 C325 1.363 . S
C330 C329 1.415 . S
C331 H307 0.951 . S
C331 C332 1.366 . S
C331 C333 1.388 . S
C332 C331 1.366 . S
C332 C336 1.385 . S
C333 H308 0.951 . S
C333 C331 1.388 . S
C333 C334 1.366 . S
C334 C333 1.366 . S
C334 C335 1.414 . S
C334 C337 1.499 . S
C335 H309 0.950 . S
C335 C334 1.414 . S
C335 C336 1.374 . S
C336 H310 0.950 . S
C336 C332 1.385 . S
C336 C335 1.374 . S
C337 C334 1.499 . S
C337 C338 1.373 . S
C337 C339 1.389 . S
C338 H311 0.950 . S
C338 C324 1.377 . S
C338 C337 1.373 . S
C339 C323 1.377 . S
C339 C337 1.389 . S
C339 C340 1.524 . S
C340 C339 1.524 . S
C340 C341 1.397 . S
C340 C345 1.363 . S
C341 H312 0.950 . S
C341 C340 1.397 . S
C341 C342 1.334 . S
C342 H313 0.950 . S
C342 C341 1.334 . S
C342 C343 1.287 . S
C343 C342 1.287 . S
C343 C344 1.524 . S
C343 H346 0.999 . S
C344 H314 0.950 . S
C344 C343 1.524 . S
C344 C345 1.415 . S
C345 H315 0.950 . S
C345 C340 1.363 . S
C345 C344 1.415 . S
H346 C343 0.999 . S
H347 C328 0.913 . S
H348 C366 0.951 . S
H349 C368 0.951 . S
H350 C370 0.950 . S
H351 C371 0.950 . S
H352 C373 0.950 . S
H353 C376 0.950 . S
H354 C377 0.950 . S
H355 C379 0.950 . S
H356 C380 0.950 . S
H357 C381 0.951 . S
H358 C383 0.951 . S
H359 C385 0.950 . S
H360 C386 0.950 . S
H361 C388 0.950 . S
H362 C391 0.950 . S
H363 C392 0.950 . S
H364 C394 0.950 . S
H365 C395 0.950 . S
C366 H348 0.951 . S
C366 C367 1.366 . S
C366 C368 1.388 . S
C367 C366 1.366 . S
C367 C371 1.385 . S
C368 H349 0.951 . S
C368 C366 1.388 . S
C368 C369 1.366 . S
C369 C368 1.366 . S
C369 C370 1.414 . S
C369 C372 1.499 . S
C370 H350 0.950 . S
C370 C369 1.414 . S
C370 C371 1.374 . S
C371 H351 0.950 . S
C371 C367 1.385 . S
C371 C370 1.374 . S
C372 C369 1.499 . S
C372 C373 1.373 . S
C372 C374 1.389 . S
C373 H352 0.950 . S
C373 C372 1.373 . S
C373 C389 1.377 . S
C374 C372 1.389 . S
C374 C375 1.524 . S
C374 C388 1.377 . S
C375 C374 1.524 . S
C375 C376 1.397 . S
C375 C380 1.363 . S
C376 H353 0.950 . S
C376 C375 1.397 . S
C376 C377 1.334 . S
C377 H354 0.950 . S
C377 C376 1.334 . S
C377 C378 1.287 . S
C378 C377 1.287 . S
C378 C379 1.524 . S
C378 H397 0.913 . S
C379 H355 0.950 . S
C379 C378 1.524 . S
C379 C380 1.415 . S
C380 H356 0.950 . S
C380 C375 1.363 . S
C380 C379 1.415 . S
C381 H357 0.951 . S
C381 C382 1.366 . S
C381 C383 1.388 . S
C382 C381 1.366 . S
C382 C386 1.385 . S
C383 H358 0.951 . S
C383 C381 1.388 . S
C383 C384 1.366 . S
C384 C383 1.366 . S
C384 C385 1.414 . S
C384 C387 1.499 . S
C385 H359 0.950 . S
C385 C384 1.414 . S
C385 C386 1.374 . S
C386 H360 0.950 . S
C386 C382 1.385 . S
C386 C385 1.374 . S
C387 C384 1.499 . S
C387 C388 1.373 . S
C387 C389 1.389 . S
C388 H361 0.950 . S
C388 C374 1.377 . S
C388 C387 1.373 . S
C389 C373 1.377 . S
C389 C387 1.389 . S
C389 C390 1.524 . S
C390 C389 1.524 . S
C390 C391 1.397 . S
C390 C395 1.363 . S
C391 H362 0.950 . S
C391 C390 1.397 . S
C391 C392 1.334 . S
C392 H363 0.950 . S
C392 C391 1.334 . S
C392 C393 1.287 . S
C393 C392 1.287 . S
C393 C394 1.524 . S
C393 H396 0.999 . S
C394 H364 0.950 . S
C394 C393 1.524 . S
C394 C395 1.415 . S
C395 H365 0.950 . S
C395 C390 1.363 . S
C395 C394 1.415 . S
H396 C393 0.999 . S
H397 C378 0.913 . S
H398 C416 0.951 . S
H399 C418 0.951 . S
H400 C420 0.950 . S
H401 C421 0.950 . S
H402 C423 0.950 . S
H403 C426 0.950 . S
H404 C427 0.950 . S
H405 C429 0.950 . S
H406 C430 0.950 . S
H407 C431 0.951 . S
H408 C433 0.951 . S
H409 C435 0.950 . S
H410 C436 0.950 . S
H411 C438 0.950 . S
H412 C441 0.950 . S
H413 C442 0.950 . S
H414 C444 0.950 . S
H415 C445 0.950 . S
C416 H398 0.951 . S
C416 C417 1.366 . S
C416 C418 1.388 . S
C417 C416 1.366 . S
C417 C421 1.385 . S
C418 H399 0.951 . S
C418 C416 1.388 . S
C418 C419 1.366 . S
C419 C418 1.366 . S
C419 C420 1.414 . S
C419 C422 1.499 . S
C420 H400 0.950 . S
C420 C419 1.414 . S
C420 C421 1.374 . S
C421 H401 0.950 . S
C421 C417 1.385 . S
C421 C420 1.374 . S
C422 C419 1.499 . S
C422 C423 1.373 . S
C422 C424 1.389 . S
C423 H402 0.950 . S
C423 C422 1.373 . S
C423 C439 1.377 . S
C424 C422 1.389 . S
C424 C425 1.524 . S
C424 C438 1.377 . S
C425 C424 1.524 . S
C425 C426 1.397 . S
C425 C430 1.363 . S
C426 H403 0.950 . S
C426 C425 1.397 . S
C426 C427 1.334 . S
C427 H404 0.950 . S
C427 C426 1.334 . S
C427 C428 1.287 . S
C428 C427 1.287 . S
C428 C429 1.524 . S
C428 H447 0.913 . S
C429 H405 0.950 . S
C429 C428 1.524 . S
C429 C430 1.415 . S
C430 H406 0.950 . S
C430 C425 1.363 . S
C430 C429 1.415 . S
C431 H407 0.951 . S
C431 C432 1.366 . S
C431 C433 1.388 . S
C432 C431 1.366 . S
C432 C436 1.385 . S
C433 H408 0.951 . S
C433 C431 1.388 . S
C433 C434 1.366 . S
C434 C433 1.366 . S
C434 C435 1.414 . S
C434 C437 1.499 . S
C435 H409 0.950 . S
C435 C434 1.414 . S
C435 C436 1.374 . S
C436 H410 0.950 . S
C436 C432 1.385 . S
C436 C435 1.374 . S
C437 C434 1.499 . S
C437 C438 1.373 . S
C437 C439 1.389 . S
C438 H411 0.950 . S
C438 C424 1.377 . S
C438 C437 1.373 . S
C439 C423 1.377 . S
C439 C437 1.389 . S
C439 C440 1.524 . S
C440 C439 1.524 . S
C440 C441 1.397 . S
C440 C445 1.363 . S
C441 H412 0.950 . S
C441 C440 1.397 . S
C441 C442 1.334 . S
C442 H413 0.950 . S
C442 C441 1.334 . S
C442 C443 1.287 . S
C443 C442 1.287 . S
C443 C444 1.524 . S
C443 H446 0.999 . S
C444 H414 0.950 . S
C444 C443 1.524 . S
C444 C445 1.415 . S
C445 H415 0.950 . S
C445 C440 1.363 . S
C445 C444 1.415 . S
H446 C443 0.999 . S
H447 C428 0.913 . S
H448 C466 0.951 . S
H449 C468 0.951 . S
H450 C470 0.950 . S
H451 C471 0.950 . S
H452 C473 0.950 . S
H453 C476 0.950 . S
H454 C477 0.950 . S
H455 C479 0.950 . S
H456 C480 0.950 . S
H457 C481 0.951 . S
H458 C483 0.951 . S
H459 C485 0.950 . S
H460 C486 0.950 . S
H461 C488 0.950 . S
H462 C491 0.950 . S
H463 C492 0.950 . S
H464 C494 0.950 . S
H465 C495 0.950 . S
C466 H448 0.951 . S
C466 C467 1.366 . S
C466 C468 1.388 . S
C467 C466 1.366 . S
C467 C471 1.385 . S
C468 H449 0.951 . S
C468 C466 1.388 . S
C468 C469 1.366 . S
C469 C468 1.366 . S
C469 C470 1.414 . S
C469 C472 1.499 . S
C470 H450 0.950 . S
C470 C469 1.414 . S
C470 C471 1.374 . S
C471 H451 0.950 . S
C471 C467 1.385 . S
C471 C470 1.374 . S
C472 C469 1.499 . S
C472 C473 1.373 . S
C472 C474 1.389 . S
C473 H452 0.950 . S
C473 C472 1.373 . S
C473 C489 1.377 . S
C474 C472 1.389 . S
C474 C475 1.524 . S
C474 C488 1.377 . S
C475 C474 1.524 . S
C475 C476 1.397 . S
C475 C480 1.363 . S
C476 H453 0.950 . S
C476 C475 1.397 . S
C476 C477 1.334 . S
C477 H454 0.950 . S
C477 C476 1.334 . S
C477 C478 1.287 . S
C478 C477 1.287 . S
C478 C479 1.524 . S
C478 H497 0.913 . S
C479 H455 0.950 . S
C479 C478 1.524 . S
C479 C480 1.415 . S
C480 H456 0.950 . S
C480 C475 1.363 . S
C480 C479 1.415 . S
C481 H457 0.951 . S
C481 C482 1.366 . S
C481 C483 1.388 . S
C482 C481 1.366 . S
C482 C486 1.385 . S
C483 H458 0.951 . S
C483 C481 1.388 . S
C483 C484 1.366 . S
C484 C483 1.366 . S
C484 C485 1.414 . S
C484 C487 1.499 . S
C485 H459 0.950 . S
C485 C484 1.414 . S
C485 C486 1.374 . S
C486 H460 0.950 . S
C486 C482 1.385 . S
C486 C485 1.374 . S
C487 C484 1.499 . S
C487 C488 1.373 . S
C487 C489 1.389 . S
C488 H461 0.950 . S
C488 C474 1.377 . S
C488 C487 1.373 . S
C489 C473 1.377 . S
C489 C487 1.389 . S
C489 C490 1.524 . S
C490 C489 1.524 . S
C490 C491 1.397 . S
C490 C495 1.363 . S
C491 H462 0.950 . S
C491 C490 1.397 . S
C491 C492 1.334 . S
C492 H463 0.950 . S
C492 C491 1.334 . S
C492 C493 1.287 . S
C493 C492 1.287 . S
C493 C494 1.524 . S
C493 H496 0.999 . S
C494 H464 0.950 . S
C494 C493 1.524 . S
C494 C495 1.415 . S
C495 H465 0.950 . S
C495 C490 1.363 . S
C495 C494 1.415 . S
H496 C493 0.999 . S
H497 C478 0.913 . S
H498 C516 0.951 . S
H499 C518 0.951 . S
H500 C520 0.950 . S
H501 C521 0.950 . S
H502 C523 0.950 . S
H503 C526 0.950 . S
H504 C527 0.950 . S
H505 C529 0.950 1_655 S
H506 C530 0.950 . S
H507 C531 0.951 . S
H508 C533 0.951 . S
H509 C535 0.960 . S
H510 C536 0.950 1_655 S
H511 C538 0.950 . S
H512 C541 0.950 . S
H513 C542 0.950 . S
H514 C544 0.950 . S
H515 C545 0.950 . S
C516 H498 0.951 . S
C516 C517 1.366 . S
C516 C518 1.388 . S
C517 C516 1.366 . S
C517 C521 1.385 . S
C518 H499 0.951 . S
C518 C516 1.388 . S
C518 C519 1.366 . S
C519 C518 1.366 . S
C519 C520 1.414 . S
C519 C522 1.499 . S
C520 H500 0.950 . S
C520 C519 1.414 . S
C520 C521 1.374 . S
C521 H501 0.950 . S
C521 C517 1.385 . S
C521 C520 1.374 . S
C522 C519 1.499 . S
C522 C523 1.373 . S
C522 C524 1.389 . S
C523 H502 0.950 . S
C523 C522 1.373 . S
C523 C539 1.377 . S
C524 C522 1.389 . S
C524 C525 1.524 . S
C524 C538 1.377 . S
C525 C524 1.524 . S
C525 C526 1.397 . S
C525 C530 1.363 . S
C526 H503 0.950 . S
C526 C525 1.397 . S
C526 C527 1.334 . S
C527 H504 0.950 . S
C527 C526 1.334 . S
C527 C528 1.287 . S
C528 C527 1.287 . S
C528 C529 1.524 . S
C528 H547 0.913 . S
C529 H505 0.950 1_455 S
C529 C528 1.524 . S
C529 C530 1.415 . S
C530 H506 0.950 . S
C530 C525 1.363 . S
C530 C529 1.415 . S
C531 H507 0.951 . S
C531 C532 1.366 . S
C531 C533 1.388 . S
C532 C531 1.366 . S
C532 C536 1.385 . S
C533 H508 0.951 . S
C533 C531 1.388 . S
C533 C534 1.366 . S
C534 C533 1.366 . S
C534 C535 1.414 . S
C534 C537 1.499 . S
C535 H509 0.960 . S
C535 C534 1.414 . S
C535 C536 1.374 . S
C536 H510 0.950 1_455 S
C536 C532 1.385 . S
C536 C535 1.374 . S
C537 C534 1.499 . S
C537 C538 1.373 . S
C537 C539 1.389 . S
C538 H511 0.950 . S
C538 C524 1.377 . S
C538 C537 1.373 . S
C539 C523 1.377 . S
C539 C537 1.389 . S
C539 C540 1.524 . S
C540 C539 1.524 . S
C540 C541 1.397 . S
C540 C545 1.363 . S
C541 H512 0.950 . S
C541 C540 1.397 . S
C541 C542 1.334 . S
C542 H513 0.950 . S
C542 C541 1.334 . S
C542 C543 1.287 . S
C543 C542 1.287 . S
C543 C544 1.524 . S
C543 H546 0.999 . S
C544 H514 0.950 . S
C544 C543 1.524 . S
C544 C545 1.415 . S
C545 H515 0.950 . S
C545 C540 1.363 . S
C545 C544 1.415 . S
H546 C543 0.999 . S
H547 C528 0.913 . S
H548 C566 0.951 . S
H549 C568 0.951 . S
H550 C570 0.950 . S
H551 C571 0.950 . S
H552 C573 0.950 . S
H553 C576 0.950 . S
H554 C577 0.950 . S
H555 C579 0.950 . S
H556 C580 0.950 . S
H557 C581 0.951 . S
H558 C583 0.951 . S
H559 C585 0.950 . S
H560 C586 0.950 . S
H561 C588 0.950 . S
H562 C591 0.950 . S
H563 C592 0.950 . S
H564 C594 0.950 . S
H565 C595 0.950 . S
C566 H548 0.951 . S
C566 C567 1.366 . S
C566 C568 1.388 . S
C567 C566 1.366 . S
C567 C571 1.385 . S
C568 H549 0.951 . S
C568 C566 1.388 . S
C568 C569 1.366 . S
C569 C568 1.366 . S
C569 C570 1.414 . S
C569 C572 1.499 . S
C570 H550 0.950 . S
C570 C569 1.414 . S
C570 C571 1.374 . S
C571 H551 0.950 . S
C571 C567 1.385 . S
C571 C570 1.374 . S
C572 C569 1.499 . S
C572 C573 1.373 . S
C572 C574 1.389 . S
C573 H552 0.950 . S
C573 C572 1.373 . S
C573 C589 1.377 . S
C574 C572 1.389 . S
C574 C575 1.524 . S
C574 C588 1.377 . S
C575 C574 1.524 . S
C575 C576 1.397 . S
C575 C580 1.363 . S
C576 H553 0.950 . S
C576 C575 1.397 . S
C576 C577 1.334 . S
C577 H554 0.950 . S
C577 C576 1.334 . S
C577 C578 1.287 . S
C578 C577 1.287 . S
C578 C579 1.524 . S
C578 H597 0.913 . S
C579 H555 0.950 . S
C579 C578 1.524 . S
C579 C580 1.415 . S
C580 H556 0.950 . S
C580 C575 1.363 . S
C580 C579 1.415 . S
C581 H557 0.951 . S
C581 C582 1.366 . S
C581 C583 1.388 . S
C582 C581 1.366 . S
C582 C586 1.385 . S
C583 H558 0.951 . S
C583 C581 1.388 . S
C583 C584 1.366 . S
C584 C583 1.366 . S
C584 C585 1.414 . S
C584 C587 1.499 . S
C585 H559 0.950 . S
C585 C584 1.414 . S
C585 C586 1.374 . S
C586 H560 0.950 . S
C586 C582 1.385 . S
C586 C585 1.374 . S
C587 C584 1.499 . S
C587 C588 1.373 . S
C587 C589 1.389 . S
C588 H561 0.950 . S
C588 C574 1.377 . S
C588 C587 1.373 . S
C589 C573 1.377 . S
C589 C587 1.389 . S
C589 C590 1.524 . S
C590 C589 1.524 . S
C590 C591 1.397 . S
C590 C595 1.363 . S
C591 H562 0.950 . S
C591 C590 1.397 . S
C591 C592 1.334 . S
C592 H563 0.950 . S
C592 C591 1.334 . S
C592 C593 1.287 . S
C593 C592 1.287 . S
C593 C594 1.524 . S
C593 H596 0.999 . S
C594 H564 0.950 . S
C594 C593 1.524 . S
C594 C595 1.415 . S
C595 H565 0.950 . S
C595 C590 1.363 . S
C595 C594 1.415 . S
H596 C593 0.999 . S
H597 C578 0.913 . S
H598 C616 0.951 . S
H599 C618 0.951 . S
H600 C620 0.950 . S
H601 C621 0.950 . S
H602 C623 0.950 . S
H603 C626 0.950 . S
H604 C627 0.950 . S
H605 C629 0.950 . S
H606 C630 0.950 . S
H607 C631 0.951 . S
H608 C633 0.951 . S
H609 C635 0.950 . S
H610 C636 0.950 . S
H611 C638 0.950 . S
H612 C641 0.950 . S
H613 C642 0.950 . S
H614 C644 0.950 . S
H615 C645 0.950 . S
C616 H598 0.951 . S
C616 C617 1.366 . S
C616 C618 1.388 . S
C617 C616 1.366 . S
C617 C621 1.385 . S
C618 H599 0.951 . S
C618 C616 1.388 . S
C618 C619 1.366 . S
C619 C618 1.366 . S
C619 C620 1.414 . S
C619 C622 1.499 . S
C620 H600 0.950 . S
C620 C619 1.414 . S
C620 C621 1.374 . S
C621 H601 0.950 . S
C621 C617 1.385 . S
C621 C620 1.374 . S
C622 C619 1.499 . S
C622 C623 1.373 . S
C622 C624 1.389 . S
C623 H602 0.950 . S
C623 C622 1.373 . S
C623 C639 1.377 . S
C624 C622 1.389 . S
C624 C625 1.524 . S
C624 C638 1.377 . S
C625 C624 1.524 . S
C625 C626 1.397 . S
C625 C630 1.363 . S
C626 H603 0.950 . S
C626 C625 1.397 . S
C626 C627 1.334 . S
C627 H604 0.950 . S
C627 C626 1.334 . S
C627 C628 1.287 . S
C628 C627 1.287 . S
C628 C629 1.524 . S
C628 H647 0.913 . S
C629 H605 0.950 . S
C629 C628 1.524 . S
C629 C630 1.415 . S
C630 H606 0.950 . S
C630 C625 1.363 . S
C630 C629 1.415 . S
C631 H607 0.951 . S
C631 C632 1.366 . S
C631 C633 1.388 . S
C632 C631 1.366 . S
C632 C636 1.385 . S
C633 H608 0.951 . S
C633 C631 1.388 . S
C633 C634 1.366 . S
C634 C633 1.366 . S
C634 C635 1.414 . S
C634 C637 1.499 . S
C635 H609 0.950 . S
C635 C634 1.414 . S
C635 C636 1.374 . S
C636 H610 0.950 . S
C636 C632 1.385 . S
C636 C635 1.374 . S
C637 C634 1.499 . S
C637 C638 1.373 . S
C637 C639 1.389 . S
C638 H611 0.950 . S
C638 C624 1.377 . S
C638 C637 1.373 . S
C639 C623 1.377 . S
C639 C637 1.389 . S
C639 C640 1.524 . S
C640 C639 1.524 . S
C640 C641 1.397 . S
C640 C645 1.363 . S
C641 H612 0.950 . S
C641 C640 1.397 . S
C641 C642 1.334 . S
C642 H613 0.950 . S
C642 C641 1.334 . S
C642 C643 1.287 . S
C643 C642 1.287 . S
C643 C644 1.524 . S
C643 H646 0.999 . S
C644 H614 0.950 . S
C644 C643 1.524 . S
C644 C645 1.415 . S
C645 H615 0.950 . S
C645 C640 1.363 . S
C645 C644 1.415 . S
H646 C643 0.999 . S
H647 C628 0.913 . S
H648 C666 0.951 . S
H649 C668 0.951 . S
H650 C670 0.950 . S
H651 C671 0.950 . S
H652 C673 0.950 . S
H653 C676 0.950 . S
H654 C677 0.950 . S
H655 C679 0.950 . S
H656 C680 0.950 . S
H657 C681 0.951 . S
H658 C683 0.951 . S
H659 C685 0.950 . S
H660 C686 0.950 . S
H661 C688 0.950 . S
H662 C691 0.950 . S
H663 C692 0.950 . S
H664 C694 0.950 . S
H665 C695 0.950 . S
C666 H648 0.951 . S
C666 C667 1.366 . S
C666 C668 1.388 . S
C667 C666 1.366 . S
C667 C671 1.385 . S
C668 H649 0.951 . S
C668 C666 1.388 . S
C668 C669 1.366 . S
C669 C668 1.366 . S
C669 C670 1.414 . S
C669 C672 1.499 . S
C670 H650 0.950 . S
C670 C669 1.414 . S
C670 C671 1.374 . S
C671 H651 0.950 . S
C671 C667 1.385 . S
C671 C670 1.374 . S
C672 C669 1.499 . S
C672 C673 1.373 . S
C672 C674 1.389 . S
C673 H652 0.950 . S
C673 C672 1.373 . S
C673 C689 1.377 . S
C674 C672 1.389 . S
C674 C675 1.524 . S
C674 C688 1.377 . S
C675 C674 1.524 . S
C675 C676 1.397 . S
C675 C680 1.363 . S
C676 H653 0.950 . S
C676 C675 1.397 . S
C676 C677 1.334 . S
C677 H654 0.950 . S
C677 C676 1.334 . S
C677 C678 1.287 . S
C678 C677 1.287 . S
C678 C679 1.524 . S
C678 H697 0.913 . S
C679 H655 0.950 . S
C679 C678 1.524 . S
C679 C680 1.415 . S
C680 H656 0.950 . S
C680 C675 1.363 . S
C680 C679 1.415 . S
C681 H657 0.951 . S
C681 C682 1.366 . S
C681 C683 1.388 . S
C682 C681 1.366 . S
C682 C686 1.385 . S
C683 H658 0.951 . S
C683 C681 1.388 . S
C683 C684 1.366 . S
C684 C683 1.366 . S
C684 C685 1.414 . S
C684 C687 1.499 . S
C685 H659 0.950 . S
C685 C684 1.414 . S
C685 C686 1.374 . S
C686 H660 0.950 . S
C686 C682 1.385 . S
C686 C685 1.374 . S
C687 C684 1.499 . S
C687 C688 1.373 . S
C687 C689 1.389 . S
C688 H661 0.950 . S
C688 C674 1.377 . S
C688 C687 1.373 . S
C689 C673 1.377 . S
C689 C687 1.389 . S
C689 C690 1.524 . S
C690 C689 1.524 . S
C690 C691 1.397 . S
C690 C695 1.363 . S
C691 H662 0.950 . S
C691 C690 1.397 . S
C691 C692 1.334 . S
C692 H663 0.950 . S
C692 C691 1.334 . S
C692 C693 1.287 . S
C693 C692 1.287 . S
C693 C694 1.524 . S
C693 H696 0.999 1_554 S
C694 H664 0.950 . S
C694 C693 1.524 . S
C694 C695 1.415 . S
C695 H665 0.950 . S
C695 C690 1.363 . S
C695 C694 1.415 . S
H696 C693 0.999 1_556 S
H697 C678 0.913 . S
H698 C716 0.951 . S
H699 C718 0.951 . S
H700 C720 0.950 . S
H701 C721 0.950 . S
H702 C723 0.950 . S
H703 C726 0.950 . S
H704 C727 0.950 . S
H705 C729 0.950 . S
H706 C730 0.950 . S
H707 C731 0.951 1_554 S
H708 C733 0.951 . S
H709 C735 0.950 . S
H710 C736 0.950 . S
H711 C738 0.950 . S
H712 C741 0.951 1_556 S
H713 C742 0.950 . S
H714 C744 0.950 . S
H715 C745 0.950 . S
C716 H698 0.951 . S
C716 C717 1.366 . S
C716 C718 1.388 . S
C717 C716 1.366 . S
C717 C721 1.385 . S
C718 H699 0.951 . S
C718 C716 1.388 . S
C718 C719 1.366 . S
C719 C718 1.366 . S
C719 C720 1.414 . S
C719 C722 1.499 . S
C720 H700 0.950 . S
C720 C719 1.414 . S
C720 C721 1.374 . S
C721 H701 0.950 . S
C721 C717 1.385 . S
C721 C720 1.374 . S
C722 C719 1.499 . S
C722 C723 1.373 . S
C722 C724 1.389 . S
C723 H702 0.950 . S
C723 C722 1.373 . S
C723 C739 1.377 . S
C724 C722 1.389 . S
C724 C725 1.524 . S
C724 C738 1.377 . S
C725 C724 1.524 . S
C725 C726 1.397 . S
C725 C730 1.363 . S
C726 H703 0.950 . S
C726 C725 1.397 . S
C726 C727 1.334 . S
C727 H704 0.950 . S
C727 C726 1.334 . S
C727 C728 1.287 . S
C728 C727 1.287 . S
C728 C729 1.524 . S
C728 H747 0.913 . S
C729 H705 0.950 . S
C729 C728 1.524 . S
C729 C730 1.415 . S
C730 H706 0.950 . S
C730 C725 1.363 . S
C730 C729 1.415 . S
C731 H707 0.951 1_556 S
C731 C732 1.366 . S
C731 C733 1.388 . S
C732 C731 1.366 . S
C732 C736 1.385 . S
C733 H708 0.951 . S
C733 C731 1.388 . S
C733 C734 1.366 . S
C734 C733 1.366 . S
C734 C735 1.414 . S
C734 C737 1.499 . S
C735 H709 0.950 . S
C735 C734 1.414 . S
C735 C736 1.374 . S
C736 H710 0.950 . S
C736 C732 1.385 . S
C736 C735 1.374 . S
C737 C734 1.499 . S
C737 C738 1.373 . S
C737 C739 1.389 . S
C738 H711 0.950 . S
C738 C724 1.377 . S
C738 C737 1.373 . S
C739 C723 1.377 . S
C739 C737 1.389 . S
C739 C740 1.524 . S
C740 C739 1.524 . S
C740 C741 1.397 1_556 S
C740 C745 1.363 . S
C741 H712 0.951 1_554 S
C741 C740 1.397 1_554 S
C741 C742 1.334 . S
C742 H713 0.950 . S
C742 C741 1.334 . S
C742 C743 1.287 . S
C743 C742 1.287 . S
C743 C744 1.524 . S
C743 H746 0.999 . S
C744 H714 0.950 . S
C744 C743 1.524 . S
C744 C745 1.415 1_554 S
C745 H715 0.950 . S
C745 C740 1.363 . S
C745 C744 1.415 1_556 S
H746 C743 0.999 . S
H747 C728 0.913 . S
H748 C766 0.951 . S
H749 C768 0.951 . S
H750 C770 0.950 . S
H751 C771 0.950 . S
H752 C773 0.950 . S
H753 C776 0.950 . S
H754 C777 0.950 . S
H755 C779 0.950 1_455 S
H756 C780 0.950 . S
H757 C781 0.951 . S
H758 C783 0.951 . S
H759 C785 0.950 . S
H760 C786 0.950 . S
H761 C788 0.950 . S
H762 C791 0.950 . S
H763 C792 0.950 . S
H764 C794 0.950 . S
H765 C795 0.950 . S
C766 H748 0.951 . S
C766 C767 1.366 . S
C766 C768 1.388 . S
C767 C766 1.366 . S
C767 C771 1.385 . S
C768 H749 0.951 . S
C768 C766 1.388 . S
C768 C769 1.366 . S
C769 C768 1.366 . S
C769 C770 1.414 . S
C769 C772 1.499 . S
C770 H750 0.950 . S
C770 C769 1.414 . S
C770 C771 1.374 . S
C771 H751 0.950 . S
C771 C767 1.385 . S
C771 C770 1.374 . S
C772 C769 1.499 . S
C772 C773 1.373 . S
C772 C774 1.389 . S
C773 H752 0.950 . S
C773 C772 1.373 . S
C773 C789 1.377 . S
C774 C772 1.389 . S
C774 C775 1.524 . S
C774 C788 1.377 . S
C775 C774 1.524 . S
C775 C776 1.397 . S
C775 C780 1.363 . S
C776 H753 0.950 . S
C776 C775 1.397 . S
C776 C777 1.334 . S
C777 H754 0.950 . S
C777 C776 1.334 . S
C777 C778 1.287 . S
C778 C777 1.287 . S
C778 C779 1.524 . S
C778 H797 0.913 . S
C779 H755 0.950 1_655 S
C779 C778 1.524 . S
C779 C780 1.415 . S
C780 H756 0.950 . S
C780 C775 1.363 . S
C780 C779 1.415 . S
C781 H757 0.951 . S
C781 C782 1.366 . S
C781 C783 1.388 . S
C782 C781 1.366 . S
C782 C786 1.385 . S
C783 H758 0.951 . S
C783 C781 1.388 . S
C783 C784 1.366 . S
C784 C783 1.366 . S
C784 C785 1.414 . S
C784 C787 1.499 . S
C785 H759 0.950 . S
C785 C784 1.414 . S
C785 C786 1.374 . S
C786 H760 0.950 . S
C786 C782 1.385 . S
C786 C785 1.374 . S
C787 C784 1.499 . S
C787 C788 1.373 . S
C787 C789 1.389 . S
C788 H761 0.950 . S
C788 C774 1.377 . S
C788 C787 1.373 . S
C789 C773 1.377 . S
C789 C787 1.389 . S
C789 C790 1.524 . S
C790 C789 1.524 . S
C790 C791 1.397 . S
C790 C795 1.363 . S
C791 H762 0.950 . S
C791 C790 1.397 . S
C791 C792 1.334 . S
C792 H763 0.950 . S
C792 C791 1.334 . S
C792 C793 1.287 . S
C793 C792 1.287 . S
C793 C794 1.524 . S
C793 H796 0.999 . S
C794 H764 0.950 . S
C794 C793 1.524 . S
C794 C795 1.415 . S
C795 H765 0.950 . S
C795 C790 1.363 . S
C795 C794 1.415 . S
H796 C793 0.999 . S
H797 C778 0.913 . S
H798 C816 0.951 . S
H799 C818 0.951 . S
H800 C820 0.950 . S
H801 C821 0.950 . S
H802 C823 0.950 . S
H803 C826 0.950 . S
H804 C827 0.950 . S
H805 C829 0.950 . S
H806 C830 0.950 . S
H807 C831 0.951 . S
H808 C833 0.951 . S
H809 C835 0.950 . S
H810 C836 0.950 . S
H811 C838 0.950 . S
H812 C841 0.950 . S
H813 C842 0.950 . S
H814 C844 0.950 . S
H815 C845 0.950 . S
C816 H798 0.951 . S
C816 C817 1.366 . S
C816 C818 1.388 . S
C817 C816 1.366 . S
C817 C821 1.385 . S
C818 H799 0.951 . S
C818 C816 1.388 . S
C818 C819 1.366 . S
C819 C818 1.366 . S
C819 C820 1.414 . S
C819 C822 1.499 . S
C820 H800 0.950 . S
C820 C819 1.414 . S
C820 C821 1.374 . S
C821 H801 0.950 . S
C821 C817 1.385 . S
C821 C820 1.374 . S
C822 C819 1.499 . S
C822 C823 1.373 . S
C822 C824 1.389 . S
C823 H802 0.950 . S
C823 C822 1.373 . S
C823 C839 1.377 . S
C824 C822 1.389 . S
C824 C825 1.524 . S
C824 C838 1.377 . S
C825 C824 1.524 . S
C825 C826 1.397 . S
C825 C830 1.363 . S
C826 H803 0.950 . S
C826 C825 1.397 . S
C826 C827 1.334 . S
C827 H804 0.950 . S
C827 C826 1.334 . S
C827 C828 1.287 . S
C828 C827 1.287 . S
C828 C829 1.524 . S
C828 H847 0.913 . S
C829 H805 0.950 . S
C829 C828 1.524 . S
C829 C830 1.415 . S
C830 H806 0.950 . S
C830 C825 1.363 . S
C830 C829 1.415 . S
C831 H807 0.951 . S
C831 C832 1.366 . S
C831 C833 1.388 . S
C832 C831 1.366 . S
C832 C836 1.385 . S
C833 H808 0.951 . S
C833 C831 1.388 . S
C833 C834 1.366 . S
C834 C833 1.366 . S
C834 C835 1.414 . S
C834 C837 1.499 . S
C835 H809 0.950 . S
C835 C834 1.414 . S
C835 C836 1.374 . S
C836 H810 0.950 . S
C836 C832 1.385 . S
C836 C835 1.374 . S
C837 C834 1.499 . S
C837 C838 1.373 . S
C837 C839 1.389 . S
C838 H811 0.950 . S
C838 C824 1.377 . S
C838 C837 1.373 . S
C839 C823 1.377 . S
C839 C837 1.389 . S
C839 C840 1.524 . S
C840 C839 1.524 . S
C840 C841 1.397 . S
C840 C845 1.363 . S
C841 H812 0.950 . S
C841 C840 1.397 . S
C841 C842 1.334 . S
C842 H813 0.950 . S
C842 C841 1.334 . S
C842 C843 1.287 . S
C843 C842 1.287 . S
C843 C844 1.524 . S
C843 H846 0.999 . S
C844 H814 0.950 . S
C844 C843 1.524 . S
C844 C845 1.415 . S
C845 H815 0.950 . S
C845 C840 1.363 . S
C845 C844 1.415 . S
H846 C843 0.999 . S
H847 C828 0.913 . S
H848 C866 0.951 . S
H849 C868 0.951 . S
H850 C870 0.950 . S
H851 C871 0.950 . S
H852 C873 0.950 . S
H853 C876 0.950 . S
H854 C877 0.950 . S
H855 C879 0.950 . S
H856 C880 0.950 . S
H857 C881 0.951 . S
H858 C883 0.951 . S
H859 C885 0.950 . S
H860 C886 0.950 . S
H861 C888 0.950 . S
H862 C891 0.950 . S
H863 C892 0.950 . S
H864 C894 0.950 . S
H865 C895 0.950 . S
C866 H848 0.951 . S
C866 C867 1.366 . S
C866 C868 1.388 . S
C867 C866 1.366 . S
C867 C871 1.385 . S
C868 H849 0.951 . S
C868 C866 1.388 . S
C868 C869 1.366 . S
C869 C868 1.366 . S
C869 C870 1.414 . S
C869 C872 1.499 . S
C870 H850 0.950 . S
C870 C869 1.414 . S
C870 C871 1.374 . S
C871 H851 0.950 . S
C871 C867 1.385 . S
C871 C870 1.374 . S
C872 C869 1.499 . S
C872 C873 1.373 . S
C872 C874 1.389 . S
C873 H852 0.950 . S
C873 C872 1.373 . S
C873 C889 1.377 . S
C874 C872 1.389 . S
C874 C875 1.524 . S
C874 C888 1.377 . S
C875 C874 1.524 . S
C875 C876 1.397 . S
C875 C880 1.363 . S
C876 H853 0.950 . S
C876 C875 1.397 . S
C876 C877 1.334 . S
C877 H854 0.950 . S
C877 C876 1.334 . S
C877 C878 1.287 . S
C878 C877 1.287 . S
C878 C879 1.524 . S
C878 H897 0.913 . S
C879 H855 0.950 . S
C879 C878 1.524 . S
C879 C880 1.415 . S
C880 H856 0.950 . S
C880 C875 1.363 . S
C880 C879 1.415 . S
C881 H857 0.951 . S
C881 C882 1.366 . S
C881 C883 1.388 . S
C882 C881 1.366 . S
C882 C886 1.385 . S
C883 H858 0.951 . S
C883 C881 1.388 . S
C883 C884 1.366 . S
C884 C883 1.366 . S
C884 C885 1.414 . S
C884 C887 1.499 . S
C885 H859 0.950 . S
C885 C884 1.414 . S
C885 C886 1.374 . S
C886 H860 0.950 . S
C886 C882 1.385 . S
C886 C885 1.374 . S
C887 C884 1.499 . S
C887 C888 1.373 . S
C887 C889 1.389 . S
C888 H861 0.950 . S
C888 C874 1.377 . S
C888 C887 1.373 . S
C889 C873 1.377 . S
C889 C887 1.389 . S
C889 C890 1.524 . S
C890 C889 1.524 . S
C890 C891 1.397 . S
C890 C895 1.363 . S
C891 H862 0.950 . S
C891 C890 1.397 . S
C891 C892 1.334 . S
C892 H863 0.950 . S
C892 C891 1.334 . S
C892 C893 1.287 . S
C893 C892 1.287 . S
C893 C894 1.524 . S
C893 H896 0.999 . S
C894 H864 0.950 . S
C894 C893 1.524 . S
C894 C895 1.415 . S
C895 H865 0.950 . S
C895 C890 1.363 . S
C895 C894 1.415 . S
H896 C893 0.999 . S
H897 C878 0.913 . S
H898 C916 0.951 . S
H899 C918 0.951 . S
H900 C920 0.950 . S
H901 C921 0.950 . S
H902 C923 0.950 . S
H903 C926 0.950 . S
H904 C927 0.950 . S
H905 C929 0.950 . S
H906 C930 0.950 . S
H907 C931 0.951 . S
H908 C933 0.951 . S
H909 C935 0.950 . S
H910 C936 0.950 . S
H911 C938 0.950 . S
H912 C941 0.950 . S
H913 C942 0.950 . S
H914 C944 0.950 . S
H915 C945 0.950 . S
C916 H898 0.951 . S
C916 C917 1.366 . S
C916 C918 1.388 . S
C917 C916 1.366 . S
C917 C921 1.385 . S
C918 H899 0.951 . S
C918 C916 1.388 . S
C918 C919 1.366 . S
C919 C918 1.366 . S
C919 C920 1.414 . S
C919 C922 1.499 . S
C920 H900 0.950 . S
C920 C919 1.414 . S
C920 C921 1.374 . S
C921 H901 0.950 . S
C921 C917 1.385 . S
C921 C920 1.374 . S
C922 C919 1.499 . S
C922 C923 1.373 . S
C922 C924 1.389 . S
C923 H902 0.950 . S
C923 C922 1.373 . S
C923 C939 1.377 . S
C924 C922 1.389 . S
C924 C925 1.524 . S
C924 C938 1.377 . S
C925 C924 1.524 . S
C925 C926 1.397 . S
C925 C930 1.363 . S
C926 H903 0.950 . S
C926 C925 1.397 . S
C926 C927 1.334 . S
C927 H904 0.950 . S
C927 C926 1.334 . S
C927 C928 1.287 . S
C928 C927 1.287 . S
C928 C929 1.524 . S
C928 H947 0.913 . S
C929 H905 0.950 . S
C929 C928 1.524 . S
C929 C930 1.415 . S
C930 H906 0.950 . S
C930 C925 1.363 . S
C930 C929 1.415 . S
C931 H907 0.951 . S
C931 C932 1.366 . S
C931 C933 1.388 . S
C932 C931 1.366 . S
C932 C936 1.385 . S
C933 H908 0.951 . S
C933 C931 1.388 . S
C933 C934 1.366 . S
C934 C933 1.366 . S
C934 C935 1.414 . S
C934 C937 1.499 . S
C935 H909 0.950 . S
C935 C934 1.414 . S
C935 C936 1.374 . S
C936 H910 0.950 . S
C936 C932 1.385 . S
C936 C935 1.374 . S
C937 C934 1.499 . S
C937 C938 1.373 . S
C937 C939 1.389 . S
C938 H911 0.950 . S
C938 C924 1.377 . S
C938 C937 1.373 . S
C939 C923 1.377 . S
C939 C937 1.389 . S
C939 C940 1.524 . S
C940 C939 1.524 . S
C940 C941 1.397 . S
C940 C945 1.363 . S
C941 H912 0.950 . S
C941 C940 1.397 . S
C941 C942 1.334 . S
C942 H913 0.950 . S
C942 C941 1.334 . S
C942 C943 1.287 . S
C943 C942 1.287 . S
C943 C944 1.524 . S
C943 H946 0.999 . S
C944 H914 0.950 . S
C944 C943 1.524 . S
C944 C945 1.415 . S
C945 H915 0.950 . S
C945 C940 1.363 . S
C945 C944 1.415 . S
H946 C943 0.999 . S
H947 C928 0.913 . S
H948 C966 0.951 . S
H949 C968 0.951 . S
H950 C970 0.950 . S
H951 C971 0.950 . S
H952 C973 0.950 . S
H953 C976 0.950 . S
H954 C977 0.950 . S
H955 C979 0.950 . S
H956 C980 0.950 . S
H957 C981 0.951 . S
H958 C983 0.951 . S
H959 C985 0.950 . S
H960 C986 0.950 . S
H961 C988 0.950 . S
H962 C991 0.950 . S
H963 C992 0.950 . S
H964 C994 0.950 . S
H965 C995 0.950 . S
C966 H948 0.951 . S
C966 C967 1.366 . S
C966 C968 1.388 . S
C967 C966 1.366 . S
C967 C971 1.385 . S
C968 H949 0.951 . S
C968 C966 1.388 . S
C968 C969 1.366 . S
C969 C968 1.366 . S
C969 C970 1.414 . S
C969 C972 1.499 . S
C970 H950 0.950 . S
C970 C969 1.414 . S
C970 C971 1.374 . S
C971 H951 0.950 . S
C971 C967 1.385 . S
C971 C970 1.374 . S
C972 C969 1.499 . S
C972 C973 1.373 . S
C972 C974 1.389 . S
C973 H952 0.950 . S
C973 C972 1.373 . S
C973 C989 1.377 . S
C974 C972 1.389 . S
C974 C975 1.524 . S
C974 C988 1.377 . S
C975 C974 1.524 . S
C975 C976 1.397 . S
C975 C980 1.363 . S
C976 H953 0.950 . S
C976 C975 1.397 . S
C976 C977 1.334 . S
C977 H954 0.950 . S
C977 C976 1.334 . S
C977 C978 1.287 . S
C978 C977 1.287 . S
C978 C979 1.524 . S
C978 H997 0.913 . S
C979 H955 0.950 . S
C979 C978 1.524 . S
C979 C980 1.415 . S
C980 H956 0.950 . S
C980 C975 1.363 . S
C980 C979 1.415 . S
C981 H957 0.951 . S
C981 C982 1.366 . S
C981 C983 1.388 . S
C982 C981 1.366 . S
C982 C986 1.385 . S
C983 H958 0.951 . S
C983 C981 1.388 . S
C983 C984 1.366 . S
C984 C983 1.366 . S
C984 C985 1.414 . S
C984 C987 1.499 . S
C985 H959 0.950 . S
C985 C984 1.414 . S
C985 C986 1.374 . S
C986 H960 0.950 . S
C986 C982 1.385 . S
C986 C985 1.374 . S
C987 C984 1.499 . S
C987 C988 1.373 . S
C987 C989 1.389 . S
C988 H961 0.950 . S
C988 C974 1.377 . S
C988 C987 1.373 . S
C989 C973 1.377 . S
C989 C987 1.389 . S
C989 C990 1.524 . S
C990 C989 1.524 . S
C990 C991 1.397 . S
C990 C995 1.363 . S
C991 H962 0.950 . S
C991 C990 1.397 . S
C991 C992 1.334 . S
C992 H963 0.950 . S
C992 C991 1.334 . S
C992 C993 1.287 . S
C993 C992 1.287 . S
C993 C994 1.524 . S
C993 H996 0.999 . S
C994 H964 0.950 . S
C994 C993 1.524 . S
C994 C995 1.415 . S
C995 H965 0.950 . S
C995 C990 1.363 . S
C995 C994 1.415 . S
H996 C993 0.999 . S
H997 C978 0.913 . S
H998 C1016 0.951 . S
H999 C1018 0.951 . S
H1000 C1020 0.950 . S
H1001 C1021 0.950 . S
H1002 C1023 0.950 . S
H1003 C1026 0.950 . S
H1004 C1027 0.950 . S
H1005 C1029 0.950 . S
H1006 C1030 0.950 . S
H1007 C1031 0.951 . S
H1008 C1033 0.951 . S
H1009 C1035 0.950 . S
H1010 C1036 0.950 . S
H1011 C1038 0.950 . S
H1012 C1041 0.950 . S
H1013 C1042 0.950 . S
H1014 C1044 0.950 . S
H1015 C1045 0.950 . S
C1016 H998 0.951 . S
C1016 C1017 1.366 . S
C1016 C1018 1.388 . S
C1017 C1016 1.366 . S
C1017 C1021 1.385 . S
C1018 H999 0.951 . S
C1018 C1016 1.388 . S
C1018 C1019 1.366 . S
C1019 C1018 1.366 . S
C1019 C1020 1.414 . S
C1019 C1022 1.499 . S
C1020 H1000 0.950 . S
C1020 C1019 1.414 . S
C1020 C1021 1.374 . S
C1021 H1001 0.950 . S
C1021 C1017 1.385 . S
C1021 C1020 1.374 . S
C1022 C1019 1.499 . S
C1022 C1023 1.373 . S
C1022 C1024 1.389 . S
C1023 H1002 0.950 . S
C1023 C1022 1.373 . S
C1023 C1039 1.377 . S
C1024 C1022 1.389 . S
C1024 C1025 1.524 . S
C1024 C1038 1.377 . S
C1025 C1024 1.524 . S
C1025 C1026 1.397 . S
C1025 C1030 1.363 . S
C1026 H1003 0.950 . S
C1026 C1025 1.397 . S
C1026 C1027 1.334 . S
C1027 H1004 0.950 . S
C1027 C1026 1.334 . S
C1027 C1028 1.287 . S
C1028 C1027 1.287 . S
C1028 C1029 1.524 . S
C1028 H1047 0.913 . S
C1029 H1005 0.950 . S
C1029 C1028 1.524 . S
C1029 C1030 1.415 . S
C1030 H1006 0.950 . S
C1030 C1025 1.363 . S
C1030 C1029 1.415 . S
C1031 H1007 0.951 . S
C1031 C1032 1.366 . S
C1031 C1033 1.388 . S
C1032 C1031 1.366 . S
C1032 C1036 1.385 . S
C1033 H1008 0.951 . S
C1033 C1031 1.388 . S
C1033 C1034 1.366 . S
C1034 C1033 1.366 . S
C1034 C1035 1.414 . S
C1034 C1037 1.499 . S
C1035 H1009 0.950 . S
C1035 C1034 1.414 . S
C1035 C1036 1.374 . S
C1036 H1010 0.950 . S
C1036 C1032 1.385 . S
C1036 C1035 1.374 . S
C1037 C1034 1.499 . S
C1037 C1038 1.373 . S
C1037 C1039 1.389 . S
C1038 H1011 0.950 . S
C1038 C1024 1.377 . S
C1038 C1037 1.373 . S
C1039 C1023 1.377 . S
C1039 C1037 1.389 . S
C1039 C1040 1.524 . S
C1040 C1039 1.524 . S
C1040 C1041 1.397 . S
C1040 C1045 1.363 . S
C1041 H1012 0.950 . S
C1041 C1040 1.397 . S
C1041 C1042 1.334 . S
C1042 H1013 0.950 . S
C1042 C1041 1.334 . S
C1042 C1043 1.287 . S
C1043 C1042 1.287 . S
C1043 C1044 1.524 . S
C1043 H1046 0.999 . S
C1044 H1014 0.950 . S
C1044 C1043 1.524 . S
C1044 C1045 1.415 . S
C1045 H1015 0.950 . S
C1045 C1040 1.363 . S
C1045 C1044 1.415 . S
H1046 C1043 0.999 . S
H1047 C1028 0.913 . S
H1048 C1066 0.951 . S
H1049 C1068 0.951 . S
H1050 C1070 0.950 . S
H1051 C1071 0.950 . S
H1052 C1073 0.950 . S
H1053 C1076 0.950 . S
H1054 C1077 0.950 . S
H1055 C1079 0.950 1_554 S
H1056 C1080 0.950 . S
H1057 C1081 0.951 1_554 S
H1058 C1083 0.951 . S
H1059 C1085 0.950 . S
H1060 C1086 0.950 . S
H1061 C1088 0.950 . S
H1062 C1091 0.950 . S
H1063 C1092 0.950 . S
H1064 C1094 0.950 . S
H1065 C1095 0.950 . S
C1066 H1048 0.951 . S
C1066 C1067 1.366 . S
C1066 C1068 1.388 . S
C1067 C1066 1.366 . S
C1067 C1071 1.385 . S
C1068 H1049 0.951 . S
C1068 C1066 1.388 . S
C1068 C1069 1.366 . S
C1069 C1068 1.366 . S
C1069 C1070 1.414 . S
C1069 C1072 1.499 . S
C1070 H1050 0.950 . S
C1070 C1069 1.414 . S
C1070 C1071 1.374 . S
C1071 H1051 0.950 . S
C1071 C1067 1.385 . S
C1071 C1070 1.374 . S
C1072 C1069 1.499 . S
C1072 C1073 1.373 . S
C1072 C1074 1.389 . S
C1073 H1052 0.950 . S
C1073 C1072 1.373 . S
C1073 C1089 1.377 . S
C1074 C1072 1.389 . S
C1074 C1075 1.524 . S
C1074 C1088 1.377 . S
C1075 C1074 1.524 . S
C1075 C1076 1.397 . S
C1075 C1080 1.363 . S
C1076 H1053 0.950 . S
C1076 C1075 1.397 . S
C1076 C1077 1.334 . S
C1077 H1054 0.950 . S
C1077 C1076 1.334 . S
C1077 C1078 1.280 1_556 S
C1078 C1077 1.280 1_554 S
C1078 C1079 1.521 1_554 S
C1078 H1097 0.922 . S
C1079 H1055 0.950 1_556 S
C1079 C1078 1.521 1_556 S
C1079 C1080 1.415 . S
C1080 H1056 0.950 . S
C1080 C1075 1.363 . S
C1080 C1079 1.415 . S
C1081 H1057 0.951 1_556 S
C1081 C1082 1.366 1_556 S
C1081 C1083 1.388 . S
C1082 C1081 1.366 1_554 S
C1082 C1086 1.385 . S
C1083 H1058 0.951 . S
C1083 C1081 1.388 . S
C1083 C1084 1.366 . S
C1084 C1083 1.366 . S
C1084 C1085 1.414 . S
C1084 C1087 1.499 . S
C1085 H1059 0.950 . S
C1085 C1084 1.414 . S
C1085 C1086 1.374 1_556 S
C1086 H1060 0.950 . S
C1086 C1082 1.385 . S
C1086 C1085 1.374 1_554 S
C1087 C1084 1.499 . S
C1087 C1088 1.373 . S
C1087 C1089 1.389 . S
C1088 H1061 0.950 . S
C1088 C1074 1.377 . S
C1088 C1087 1.373 . S
C1089 C1073 1.377 . S
C1089 C1087 1.389 . S
C1089 C1090 1.524 . S
C1090 C1089 1.524 . S
C1090 C1091 1.397 . S
C1090 C1095 1.363 . S
C1091 H1062 0.950 . S
C1091 C1090 1.397 . S
C1091 C1092 1.334 . S
C1092 H1063 0.950 . S
C1092 C1091 1.334 . S
C1092 C1093 1.287 . S
C1093 C1092 1.287 . S
C1093 C1094 1.524 . S
C1093 H1096 0.999 . S
C1094 H1064 0.950 . S
C1094 C1093 1.524 . S
C1094 C1095 1.415 . S
C1095 H1065 0.950 . S
C1095 C1090 1.363 . S
C1095 C1094 1.415 . S
H1096 C1093 0.999 . S
H1097 C1078 0.922 . S
H1098 C1116 0.951 . S
H1099 C1118 0.951 . S
H1100 C1120 0.950 . S
H1101 C1121 0.950 . S
H1102 C1123 0.950 . S
H1103 C1126 0.950 . S
H1104 C1127 0.950 . S
H1105 C1129 0.950 . S
H1106 C1130 0.950 . S
H1107 C1131 0.951 . S
H1108 C1133 0.951 . S
H1109 C1135 0.950 . S
H1110 C1136 0.950 . S
H1111 C1138 0.950 . S
H1112 C1141 0.950 . S
H1113 C1142 0.950 . S
H1114 C1144 0.950 . S
H1115 C1145 0.950 . S
C1116 H1098 0.951 . S
C1116 C1117 1.366 . S
C1116 C1118 1.388 . S
C1117 C1116 1.366 . S
C1117 C1121 1.385 . S
C1118 H1099 0.951 . S
C1118 C1116 1.388 . S
C1118 C1119 1.366 . S
C1119 C1118 1.366 . S
C1119 C1120 1.414 . S
C1119 C1122 1.499 . S
C1120 H1100 0.950 . S
C1120 C1119 1.414 . S
C1120 C1121 1.374 . S
C1121 H1101 0.950 . S
C1121 C1117 1.385 . S
C1121 C1120 1.374 . S
C1122 C1119 1.499 . S
C1122 C1123 1.373 . S
C1122 C1124 1.389 . S
C1123 H1102 0.950 . S
C1123 C1122 1.373 . S
C1123 C1139 1.377 . S
C1124 C1122 1.389 . S
C1124 C1125 1.524 . S
C1124 C1138 1.377 . S
C1125 C1124 1.524 . S
C1125 C1126 1.397 . S
C1125 C1130 1.363 . S
C1126 H1103 0.950 . S
C1126 C1125 1.397 . S
C1126 C1127 1.334 . S
C1127 H1104 0.950 . S
C1127 C1126 1.334 . S
C1127 C1128 1.287 . S
C1128 C1127 1.287 . S
C1128 C1129 1.524 . S
C1128 H1147 0.913 . S
C1129 H1105 0.950 . S
C1129 C1128 1.524 . S
C1129 C1130 1.415 . S
C1130 H1106 0.950 . S
C1130 C1125 1.363 . S
C1130 C1129 1.415 . S
C1131 H1107 0.951 . S
C1131 C1132 1.366 . S
C1131 C1133 1.388 . S
C1132 C1131 1.366 . S
C1132 C1136 1.385 . S
C1133 H1108 0.951 . S
C1133 C1131 1.388 . S
C1133 C1134 1.366 . S
C1134 C1133 1.366 . S
C1134 C1135 1.414 . S
C1134 C1137 1.499 . S
C1135 H1109 0.950 . S
C1135 C1134 1.414 . S
C1135 C1136 1.374 . S
C1136 H1110 0.950 . S
C1136 C1132 1.385 . S
C1136 C1135 1.374 . S
C1137 C1134 1.499 . S
C1137 C1138 1.373 . S
C1137 C1139 1.389 . S
C1138 H1111 0.950 . S
C1138 C1124 1.377 . S
C1138 C1137 1.373 . S
C1139 C1123 1.377 . S
C1139 C1137 1.389 . S
C1139 C1140 1.524 . S
C1140 C1139 1.524 . S
C1140 C1141 1.397 . S
C1140 C1145 1.363 . S
C1141 H1112 0.950 . S
C1141 C1140 1.397 . S
C1141 C1142 1.334 . S
C1142 H1113 0.950 . S
C1142 C1141 1.334 . S
C1142 C1143 1.287 . S
C1143 C1142 1.287 . S
C1143 C1144 1.524 . S
C1143 H1146 0.999 . S
C1144 H1114 0.950 . S
C1144 C1143 1.524 . S
C1144 C1145 1.415 . S
C1145 H1115 0.950 . S
C1145 C1140 1.363 . S
C1145 C1144 1.415 . S
H1146 C1143 0.999 . S
H1147 C1128 0.913 . S
H1148 C1166 0.951 . S
H1149 C1168 0.951 . S
H1150 C1170 0.950 . S
H1151 C1171 0.950 . S
H1152 C1173 0.950 . S
H1153 C1176 0.950 . S
H1154 C1177 0.950 . S
H1155 C1179 0.950 . S
H1156 C1180 0.950 . S
H1157 C1181 0.951 . S
H1158 C1183 0.951 . S
H1159 C1185 0.950 . S
H1160 C1186 0.950 . S
H1161 C1188 0.950 . S
H1162 C1191 0.950 . S
H1163 C1192 0.950 . S
H1164 C1194 0.950 . S
H1165 C1195 0.950 . S
C1166 H1148 0.951 . S
C1166 C1167 1.366 . S
C1166 C1168 1.388 . S
C1167 C1166 1.366 . S
C1167 C1171 1.385 . S
C1168 H1149 0.951 . S
C1168 C1166 1.388 . S
C1168 C1169 1.366 . S
C1169 C1168 1.366 . S
C1169 C1170 1.414 . S
C1169 C1172 1.499 . S
C1170 H1150 0.950 . S
C1170 C1169 1.414 . S
C1170 C1171 1.374 . S
C1171 H1151 0.950 . S
C1171 C1167 1.385 . S
C1171 C1170 1.374 . S
C1172 C1169 1.499 . S
C1172 C1173 1.373 . S
C1172 C1174 1.389 . S
C1173 H1152 0.950 . S
C1173 C1172 1.373 . S
C1173 C1189 1.377 . S
C1174 C1172 1.389 . S
C1174 C1175 1.524 . S
C1174 C1188 1.377 . S
C1175 C1174 1.524 . S
C1175 C1176 1.397 . S
C1175 C1180 1.363 . S
C1176 H1153 0.950 . S
C1176 C1175 1.397 . S
C1176 C1177 1.334 . S
C1177 H1154 0.950 . S
C1177 C1176 1.334 . S
C1177 C1178 1.287 . S
C1178 C1177 1.287 . S
C1178 C1179 1.524 . S
C1178 H1197 0.913 . S
C1179 H1155 0.950 . S
C1179 C1178 1.524 . S
C1179 C1180 1.415 . S
C1180 H1156 0.950 . S
C1180 C1175 1.363 . S
C1180 C1179 1.415 . S
C1181 H1157 0.951 . S
C1181 C1182 1.366 . S
C1181 C1183 1.388 . S
C1182 C1181 1.366 . S
C1182 C1186 1.385 . S
C1183 H1158 0.951 . S
C1183 C1181 1.388 . S
C1183 C1184 1.366 . S
C1184 C1183 1.366 . S
C1184 C1185 1.414 . S
C1184 C1187 1.499 . S
C1185 H1159 0.950 . S
C1185 C1184 1.414 . S
C1185 C1186 1.374 . S
C1186 H1160 0.950 . S
C1186 C1182 1.385 . S
C1186 C1185 1.374 . S
C1187 C1184 1.499 . S
C1187 C1188 1.373 . S
C1187 C1189 1.389 . S
C1188 H1161 0.950 . S
C1188 C1174 1.377 . S
C1188 C1187 1.373 . S
C1189 C1173 1.377 . S
C1189 C1187 1.389 . S
C1189 C1190 1.524 . S
C1190 C1189 1.524 . S
C1190 C1191 1.397 . S
C1190 C1195 1.363 . S
C1191 H1162 0.950 . S
C1191 C1190 1.397 . S
C1191 C1192 1.334 . S
C1192 H1163 0.950 . S
C1192 C1191 1.334 . S
C1192 C1193 1.287 . S
C1193 C1192 1.287 . S
C1193 C1194 1.524 . S
C1193 H1196 0.999 . S
C1194 H1164 0.950 . S
C1194 C1193 1.524 . S
C1194 C1195 1.415 . S
C1195 H1165 0.950 . S
C1195 C1190 1.363 . S
C1195 C1194 1.415 . S
H1196 C1193 0.999 . S
H1197 C1178 0.913 . S
H1198 C1216 0.951 . S
H1199 C1218 0.951 . S
H1200 C1220 0.950 . S
H1201 C1221 0.950 . S
H1202 C1223 0.950 . S
H1203 C1226 0.950 . S
H1204 C1227 0.950 . S
H1205 C1229 0.950 . S
H1206 C1230 0.950 . S
H1207 C1231 0.951 . S
H1208 C1233 0.951 . S
H1209 C1235 0.950 . S
H1210 C1236 0.950 . S
H1211 C1238 0.950 . S
H1212 C1241 0.950 . S
H1213 C1242 0.950 . S
H1214 C1244 0.950 . S
H1215 C1245 0.950 . S
C1216 H1198 0.951 . S
C1216 C1217 1.366 . S
C1216 C1218 1.388 . S
C1217 C1216 1.366 . S
C1217 C1221 1.385 . S
C1218 H1199 0.951 . S
C1218 C1216 1.388 . S
C1218 C1219 1.366 . S
C1219 C1218 1.366 . S
C1219 C1220 1.414 . S
C1219 C1222 1.499 . S
C1220 H1200 0.950 . S
C1220 C1219 1.414 . S
C1220 C1221 1.374 . S
C1221 H1201 0.950 . S
C1221 C1217 1.385 . S
C1221 C1220 1.374 . S
C1222 C1219 1.499 . S
C1222 C1223 1.373 . S
C1222 C1224 1.389 . S
C1223 H1202 0.950 . S
C1223 C1222 1.373 . S
C1223 C1239 1.377 . S
C1224 C1222 1.389 . S
C1224 C1225 1.524 . S
C1224 C1238 1.377 . S
C1225 C1224 1.524 . S
C1225 C1226 1.397 . S
C1225 C1230 1.363 . S
C1226 H1203 0.950 . S
C1226 C1225 1.397 . S
C1226 C1227 1.334 . S
C1227 H1204 0.950 . S
C1227 C1226 1.334 . S
C1227 C1228 1.287 . S
C1228 C1227 1.287 . S
C1228 C1229 1.524 . S
C1228 H1247 0.913 . S
C1229 H1205 0.950 . S
C1229 C1228 1.524 . S
C1229 C1230 1.415 . S
C1230 H1206 0.950 . S
C1230 C1225 1.363 . S
C1230 C1229 1.415 . S
C1231 H1207 0.951 . S
C1231 C1232 1.366 . S
C1231 C1233 1.388 . S
C1232 C1231 1.366 . S
C1232 C1236 1.385 . S
C1233 H1208 0.951 . S
C1233 C1231 1.388 . S
C1233 C1234 1.366 . S
C1234 C1233 1.366 . S
C1234 C1235 1.414 . S
C1234 C1237 1.499 . S
C1235 H1209 0.950 . S
C1235 C1234 1.414 . S
C1235 C1236 1.374 . S
C1236 H1210 0.950 . S
C1236 C1232 1.385 . S
C1236 C1235 1.374 . S
C1237 C1234 1.499 . S
C1237 C1238 1.373 . S
C1237 C1239 1.389 . S
C1238 H1211 0.950 . S
C1238 C1224 1.377 . S
C1238 C1237 1.373 . S
C1239 C1223 1.377 . S
C1239 C1237 1.389 . S
C1239 C1240 1.524 . S
C1240 C1239 1.524 . S
C1240 C1241 1.397 . S
C1240 C1245 1.363 . S
C1241 H1212 0.950 . S
C1241 C1240 1.397 . S
C1241 C1242 1.334 . S
C1242 H1213 0.950 . S
C1242 C1241 1.334 . S
C1242 C1243 1.287 . S
C1243 C1242 1.287 . S
C1243 C1244 1.524 . S
C1243 H1246 0.999 . S
C1244 H1214 0.950 . S
C1244 C1243 1.524 . S
C1244 C1245 1.415 . S
C1245 H1215 0.950 . S
C1245 C1240 1.363 . S
C1245 C1244 1.415 . S
H1246 C1243 0.999 . S
H1247 C1228 0.913 . S
H1248 C1266 0.951 . S
H1249 C1268 0.951 . S
H1250 C1270 0.950 . S
H1251 C1271 0.950 . S
H1252 C1273 0.950 . S
H1253 C1276 0.950 . S
H1254 C1277 0.950 . S
H1255 C1279 0.950 1_554 S
H1256 C1280 0.950 . S
H1257 C1281 0.951 . S
H1258 C1283 0.951 . S
H1259 C1285 0.950 . S
H1260 C1286 0.950 . S
H1261 C1288 0.950 . S
H1262 C1291 0.950 . S
H1263 C1292 0.950 . S
H1264 C1294 0.950 . S
H1265 C1295 0.950 . S
C1266 H1248 0.951 . S
C1266 C1267 1.366 . S
C1266 C1268 1.388 . S
C1267 C1266 1.366 . S
C1267 C1271 1.385 . S
C1268 H1249 0.951 . S
C1268 C1266 1.388 . S
C1268 C1269 1.366 . S
C1269 C1268 1.366 . S
C1269 C1270 1.414 . S
C1269 C1272 1.499 . S
C1270 H1250 0.950 . S
C1270 C1269 1.414 . S
C1270 C1271 1.374 . S
C1271 H1251 0.950 . S
C1271 C1267 1.385 . S
C1271 C1270 1.374 . S
C1272 C1269 1.499 . S
C1272 C1273 1.373 . S
C1272 C1274 1.389 . S
C1273 H1252 0.950 . S
C1273 C1272 1.373 . S
C1273 C1289 1.377 . S
C1274 C1272 1.389 . S
C1274 C1275 1.524 . S
C1274 C1288 1.377 . S
C1275 C1274 1.524 . S
C1275 C1276 1.397 . S
C1275 C1280 1.363 . S
C1276 H1253 0.950 . S
C1276 C1275 1.397 . S
C1276 C1277 1.334 . S
C1277 H1254 0.950 . S
C1277 C1276 1.334 . S
C1277 C1278 1.287 . S
C1278 C1277 1.287 . S
C1278 C1279 1.524 . S
C1278 H1297 0.913 . S
C1279 H1255 0.950 1_556 S
C1279 C1278 1.524 . S
C1279 C1280 1.415 . S
C1280 H1256 0.950 . S
C1280 C1275 1.363 . S
C1280 C1279 1.415 . S
C1281 H1257 0.951 . S
C1281 C1282 1.366 . S
C1281 C1283 1.388 . S
C1282 C1281 1.366 . S
C1282 C1286 1.385 . S
C1283 H1258 0.951 . S
C1283 C1281 1.388 . S
C1283 C1284 1.366 . S
C1284 C1283 1.366 . S
C1284 C1285 1.414 . S
C1284 C1287 1.499 . S
C1285 H1259 0.950 . S
C1285 C1284 1.414 . S
C1285 C1286 1.374 . S
C1286 H1260 0.950 . S
C1286 C1282 1.385 . S
C1286 C1285 1.374 . S
C1287 C1284 1.499 . S
C1287 C1288 1.373 . S
C1287 C1289 1.389 . S
C1288 H1261 0.950 . S
C1288 C1274 1.377 . S
C1288 C1287 1.373 . S
C1289 C1273 1.377 . S
C1289 C1287 1.389 . S
C1289 C1290 1.524 . S
C1290 C1289 1.524 . S
C1290 C1291 1.397 . S
C1290 C1295 1.363 . S
C1291 H1262 0.950 . S
C1291 C1290 1.397 . S
C1291 C1292 1.334 . S
C1292 H1263 0.950 . S
C1292 C1291 1.334 . S
C1292 C1293 1.287 . S
C1293 C1292 1.287 . S
C1293 C1294 1.524 . S
C1293 H1296 0.999 . S
C1294 H1264 0.950 . S
C1294 C1293 1.524 . S
C1294 C1295 1.415 . S
C1295 H1265 0.950 . S
C1295 C1290 1.363 . S
C1295 C1294 1.415 . S
H1296 C1293 0.999 . S
H1297 C1278 0.913 . S
H1298 C1316 0.951 . S
H1299 C1318 0.951 . S
H1300 C1320 0.950 . S
H1301 C1321 0.950 . S
H1302 C1323 0.950 . S
H1303 C1326 0.950 . S
H1304 C1327 0.950 . S
H1305 C1329 0.950 . S
H1306 C1330 0.950 . S
H1307 C1331 0.951 . S
H1308 C1333 0.951 . S
H1309 C1335 0.950 . S
H1310 C1336 0.950 . S
H1311 C1338 0.950 . S
H1312 C1341 0.950 . S
H1313 C1342 0.950 . S
H1314 C1344 0.950 . S
H1315 C1345 0.950 . S
C1316 H1298 0.951 . S
C1316 C1317 1.366 . S
C1316 C1318 1.388 . S
C1317 C1316 1.366 . S
C1317 C1321 1.385 . S
C1318 H1299 0.951 . S
C1318 C1316 1.388 . S
C1318 C1319 1.366 . S
C1319 C1318 1.366 . S
C1319 C1320 1.414 . S
C1319 C1322 1.499 . S
C1320 H1300 0.950 . S
C1320 C1319 1.414 . S
C1320 C1321 1.374 . S
C1321 H1301 0.950 . S
C1321 C1317 1.385 . S
C1321 C1320 1.374 . S
C1322 C1319 1.499 . S
C1322 C1323 1.373 . S
C1322 C1324 1.389 . S
C1323 H1302 0.950 . S
C1323 C1322 1.373 . S
C1323 C1339 1.377 . S
C1324 C1322 1.389 . S
C1324 C1325 1.524 . S
C1324 C1338 1.377 . S
C1325 C1324 1.524 . S
C1325 C1326 1.397 . S
C1325 C1330 1.363 . S
C1326 H1303 0.950 . S
C1326 C1325 1.397 . S
C1326 C1327 1.334 . S
C1327 H1304 0.950 . S
C1327 C1326 1.334 . S
C1327 C1328 1.287 . S
C1328 C1327 1.287 . S
C1328 C1329 1.524 . S
C1328 H1347 0.913 . S
C1329 H1305 0.950 . S
C1329 C1328 1.524 . S
C1329 C1330 1.415 . S
C1330 H1306 0.950 . S
C1330 C1325 1.363 . S
C1330 C1329 1.415 . S
C1331 H1307 0.951 . S
C1331 C1332 1.366 . S
C1331 C1333 1.388 . S
C1332 C1331 1.366 . S
C1332 C1336 1.385 . S
C1333 H1308 0.951 . S
C1333 C1331 1.388 . S
C1333 C1334 1.366 . S
C1334 C1333 1.366 . S
C1334 C1335 1.414 . S
C1334 C1337 1.499 . S
C1335 H1309 0.950 . S
C1335 C1334 1.414 . S
C1335 C1336 1.374 . S
C1336 H1310 0.950 . S
C1336 C1332 1.385 . S
C1336 C1335 1.374 . S
C1337 C1334 1.499 . S
C1337 C1338 1.373 . S
C1337 C1339 1.389 . S
C1338 H1311 0.950 . S
C1338 C1324 1.377 . S
C1338 C1337 1.373 . S
C1339 C1323 1.377 . S
C1339 C1337 1.389 . S
C1339 C1340 1.524 . S
C1340 C1339 1.524 . S
C1340 C1341 1.397 . S
C1340 C1345 1.363 . S
C1341 H1312 0.950 . S
C1341 C1340 1.397 . S
C1341 C1342 1.334 . S
C1342 H1313 0.950 . S
C1342 C1341 1.334 . S
C1342 C1343 1.287 . S
C1343 C1342 1.287 . S
C1343 C1344 1.524 . S
C1343 H1346 0.999 . S
C1344 H1314 0.950 . S
C1344 C1343 1.524 . S
C1344 C1345 1.415 . S
C1345 H1315 0.950 . S
C1345 C1340 1.363 . S
C1345 C1344 1.415 . S
H1346 C1343 0.999 . S
H1347 C1328 0.913 . S
H1348 C1366 0.951 . S
H1349 C1368 0.951 . S
H1350 C1370 0.950 . S
H1351 C1371 0.950 . S
H1352 C1373 0.950 . S
H1353 C1376 0.950 . S
H1354 C1377 0.950 . S
H1355 C1379 0.950 . S
H1356 C1380 0.950 . S
H1357 C1381 0.951 . S
H1358 C1383 0.951 . S
H1359 C1385 0.950 . S
H1360 C1386 0.950 . S
H1361 C1388 0.950 . S
H1362 C1391 0.950 . S
H1363 C1392 0.950 . S
H1364 C1394 0.950 . S
H1365 C1395 0.950 . S
C1366 H1348 0.951 . S
C1366 C1367 1.366 . S
C1366 C1368 1.388 . S
C1367 C1366 1.366 . S
C1367 C1371 1.385 . S
C1368 H1349 0.951 . S
C1368 C1366 1.388 . S
C1368 C1369 1.366 . S
C1369 C1368 1.366 . S
C1369 C1370 1.414 . S
C1369 C1372 1.499 . S
C1370 H1350 0.950 . S
C1370 C1369 1.414 . S
C1370 C1371 1.374 . S
C1371 H1351 0.950 . S
C1371 C1367 1.385 . S
C1371 C1370 1.374 . S
C1372 C1369 1.499 . S
C1372 C1373 1.373 . S
C1372 C1374 1.389 . S
C1373 H1352 0.950 . S
C1373 C1372 1.373 . S
C1373 C1389 1.377 . S
C1374 C1372 1.389 . S
C1374 C1375 1.524 . S
C1374 C1388 1.377 . S
C1375 C1374 1.524 . S
C1375 C1376 1.397 . S
C1375 C1380 1.363 . S
C1376 H1353 0.950 . S
C1376 C1375 1.397 . S
C1376 C1377 1.334 . S
C1377 H1354 0.950 . S
C1377 C1376 1.334 . S
C1377 C1378 1.287 . S
C1378 C1377 1.287 . S
C1378 C1379 1.524 . S
C1378 H1397 0.913 . S
C1379 H1355 0.950 . S
C1379 C1378 1.524 . S
C1379 C1380 1.415 . S
C1380 H1356 0.950 . S
C1380 C1375 1.363 . S
C1380 C1379 1.415 . S
C1381 H1357 0.951 . S
C1381 C1382 1.366 . S
C1381 C1383 1.388 . S
C1382 C1381 1.366 . S
C1382 C1386 1.385 . S
C1383 H1358 0.951 . S
C1383 C1381 1.388 . S
C1383 C1384 1.366 . S
C1384 C1383 1.366 . S
C1384 C1385 1.414 . S
C1384 C1387 1.499 . S
C1385 H1359 0.950 . S
C1385 C1384 1.414 . S
C1385 C1386 1.374 . S
C1386 H1360 0.950 . S
C1386 C1382 1.385 . S
C1386 C1385 1.374 . S
C1387 C1384 1.499 . S
C1387 C1388 1.373 . S
C1387 C1389 1.389 . S
C1388 H1361 0.950 . S
C1388 C1374 1.377 . S
C1388 C1387 1.373 . S
C1389 C1373 1.377 . S
C1389 C1387 1.389 . S
C1389 C1390 1.524 . S
C1390 C1389 1.524 . S
C1390 C1391 1.397 . S
C1390 C1395 1.363 . S
C1391 H1362 0.950 . S
C1391 C1390 1.397 . S
C1391 C1392 1.334 . S
C1392 H1363 0.950 . S
C1392 C1391 1.334 . S
C1392 C1393 1.287 . S
C1393 C1392 1.287 . S
C1393 C1394 1.524 . S
C1393 H1396 0.999 . S
C1394 H1364 0.950 . S
C1394 C1393 1.524 . S
C1394 C1395 1.415 . S
C1395 H1365 0.950 . S
C1395 C1390 1.363 . S
C1395 C1394 1.415 . S
H1396 C1393 0.999 . S
H1397 C1378 0.913 . S
H1398 C1416 0.951 . S
H1399 C1418 0.951 . S
H1400 C1420 0.950 . S
H1401 C1421 0.950 . S
H1402 C1423 0.950 . S
H1403 C1426 0.950 . S
H1404 C1427 0.950 . S
H1405 C1429 0.950 . S
H1406 C1430 0.950 . S
H1407 C1431 0.951 . S
H1408 C1433 0.951 . S
H1409 C1435 0.950 . S
H1410 C1436 0.950 . S
H1411 C1438 0.950 . S
H1412 C1441 0.950 . S
H1413 C1442 0.950 . S
H1414 C1444 0.950 . S
H1415 C1445 0.950 . S
C1416 H1398 0.951 . S
C1416 C1417 1.366 . S
C1416 C1418 1.388 . S
C1417 C1416 1.366 . S
C1417 C1421 1.385 . S
C1418 H1399 0.951 . S
C1418 C1416 1.388 . S
C1418 C1419 1.366 . S
C1419 C1418 1.366 . S
C1419 C1420 1.414 . S
C1419 C1422 1.499 . S
C1420 H1400 0.950 . S
C1420 C1419 1.414 . S
C1420 C1421 1.374 . S
C1421 H1401 0.950 . S
C1421 C1417 1.385 . S
C1421 C1420 1.374 . S
C1422 C1419 1.499 . S
C1422 C1423 1.373 . S
C1422 C1424 1.389 . S
C1423 H1402 0.950 . S
C1423 C1422 1.373 . S
C1423 C1439 1.377 . S
C1424 C1422 1.389 . S
C1424 C1425 1.524 . S
C1424 C1438 1.377 . S
C1425 C1424 1.524 . S
C1425 C1426 1.397 . S
C1425 C1430 1.363 . S
C1426 H1403 0.950 . S
C1426 C1425 1.397 . S
C1426 C1427 1.334 . S
C1427 H1404 0.950 . S
C1427 C1426 1.334 . S
C1427 C1428 1.287 . S
C1428 C1427 1.287 . S
C1428 C1429 1.524 . S
C1428 H1447 0.913 . S
C1429 H1405 0.950 . S
C1429 C1428 1.524 . S
C1429 C1430 1.415 . S
C1430 H1406 0.950 . S
C1430 C1425 1.363 . S
C1430 C1429 1.415 . S
C1431 H1407 0.951 . S
C1431 C1432 1.366 . S
C1431 C1433 1.388 . S
C1432 C1431 1.366 . S
C1432 C1436 1.385 . S
C1433 H1408 0.951 . S
C1433 C1431 1.388 . S
C1433 C1434 1.366 . S
C1434 C1433 1.366 . S
C1434 C1435 1.414 . S
C1434 C1437 1.499 . S
C1435 H1409 0.950 . S
C1435 C1434 1.414 . S
C1435 C1436 1.374 . S
C1436 H1410 0.950 . S
C1436 C1432 1.385 . S
C1436 C1435 1.374 . S
C1437 C1434 1.499 . S
C1437 C1438 1.373 . S
C1437 C1439 1.389 . S
C1438 H1411 0.950 . S
C1438 C1424 1.377 . S
C1438 C1437 1.373 . S
C1439 C1423 1.377 . S
C1439 C1437 1.389 . S
C1439 C1440 1.524 . S
C1440 C1439 1.524 . S
C1440 C1441 1.397 . S
C1440 C1445 1.363 . S
C1441 H1412 0.950 . S
C1441 C1440 1.397 . S
C1441 C1442 1.334 . S
C1442 H1413 0.950 . S
C1442 C1441 1.334 . S
C1442 C1443 1.287 . S
C1443 C1442 1.287 . S
C1443 C1444 1.524 . S
C1443 H1446 0.999 . S
C1444 H1414 0.950 . S
C1444 C1443 1.524 . S
C1444 C1445 1.415 . S
C1445 H1415 0.950 . S
C1445 C1440 1.363 . S
C1445 C1444 1.415 . S
H1446 C1443 0.999 . S
H1447 C1428 0.913 . S
C267 C4 1.299 . S
C282 C103 1.308 . S
C317 C16 1.286 . S
C332 C143 1.320 . S
C382 C177 1.721 . S
C367 C32 1.702 . S
C417 C43 2.523 . S
C432 C218 2.482 . S
C482 C138 2.022 . S
C467 C5 1.987 . S
C532 C98 1.734 . S
C517 C21 1.667 . S
C582 C226 1.343 . S
C567 C27 1.378 . S
C632 C187 1.633 . S
C617 C37 1.685 . S
C667 C10 1.107 . S
C682 C223 1.106 . S
C732 C146 2.175 1_556 S
C717 C26 2.237 . S
C767 C38 2.078 . S
C782 C106 2.036 . S
C817 C15 1.704 . S
C832 C174 1.744 . S
C882 C94 1.506 . S
C867 C48 1.501 . S
C917 C59 0.978 . S
C932 C134 0.986 . S
C967 C76 2.047 . S
C982 C186 2.007 . S
C1017 C87 2.226 . S
C1032 C227 2.178 . S
C1067 C54 1.169 . S
C1082 C147 1.183 . S
C1132 C107 2.548 . S
C1117 C60 2.483 . S
C1182 C217 1.382 . S
C1167 C71 1.344 . S
C1232 C178 1.620 . S
C1217 C82 1.646 . S
C1267 C49 1.521 . S
C1282 C214 1.552 . S
C1332 C137 1.544 . S
C1317 C70 1.581 . S
C1382 C97 2.528 . S
C1367 C81 2.609 . S
C1417 C65 1.407 . S
C1432 C183 1.431 . S
