# Generated by pormake.
# Topology pyr, (3,6)-cn, num edge types: 1
# Building blocks:
#     Node 0, Type 0, BuildingBlock: MIDCAF_clean_linker_0, # of connection points: 3
#     Node 1, Type 0, BuildingBlock: MIDCAF_clean_linker_0, # of connection points: 3
#     Node 2, Type 0, BuildingBlock: MIDCAF_clean_linker_0, # of connection points: 3
#     Node 3, Type 0, BuildingBlock: MIDCAF_clean_linker_0, # of connection points: 3
#     Node 4, Type 0, BuildingBlock: MIDCAF_clean_linker_0, # of connection points: 3
#     Node 5, Type 0, BuildingBlock: MIDCAF_clean_linker_0, # of connection points: 3
#     Node 6, Type 0, BuildingBlock: MIDCAF_clean_linker_0, # of connection points: 3
#     Node 7, Type 0, BuildingBlock: MIDCAF_clean_linker_0, # of connection points: 3
#     Node 8, Type 1, BuildingBlock: PAMTOO_clean_sbu_0, # of connection points: 6
#     Node 9, Type 1, BuildingBlock: PAMTOO_clean_sbu_0, # of connection points: 6
#     Node 10, Type 1, BuildingBlock: PAMTOO_clean_sbu_0, # of connection points: 6
#     Node 11, Type 1, BuildingBlock: PAMTOO_clean_sbu_0, # of connection points: 6
#     Edge 12, Type (0, 1), BuildingBlock: TEMPAE_clean_linker_10, # of connection points: 2
#     Edge 13, Type (0, 1), BuildingBlock: TEMPAE_clean_linker_10, # of connection points: 2
#     Edge 14, Type (0, 1), BuildingBlock: TEMPAE_clean_linker_10, # of connection points: 2
#     Edge 15, Type (0, 1), BuildingBlock: TEMPAE_clean_linker_10, # of connection points: 2
#     Edge 16, Type (0, 1), BuildingBlock: TEMPAE_clean_linker_10, # of connection points: 2
#     Edge 17, Type (0, 1), BuildingBlock: TEMPAE_clean_linker_10, # of connection points: 2
#     Edge 18, Type (0, 1), BuildingBlock: TEMPAE_clean_linker_10, # of connection points: 2
#     Edge 19, Type (0, 1), BuildingBlock: TEMPAE_clean_linker_10, # of connection points: 2
#     Edge 20, Type (0, 1), BuildingBlock: TEMPAE_clean_linker_10, # of connection points: 2
#     Edge 21, Type (0, 1), BuildingBlock: TEMPAE_clean_linker_10, # of connection points: 2
#     Edge 22, Type (0, 1), BuildingBlock: TEMPAE_clean_linker_10, # of connection points: 2
#     Edge 23, Type (0, 1), BuildingBlock: TEMPAE_clean_linker_10, # of connection points: 2
#     Edge 24, Type (0, 1), BuildingBlock: TEMPAE_clean_linker_10, # of connection points: 2
#     Edge 25, Type (0, 1), BuildingBlock: TEMPAE_clean_linker_10, # of connection points: 2
#     Edge 26, Type (0, 1), BuildingBlock: TEMPAE_clean_linker_10, # of connection points: 2
#     Edge 27, Type (0, 1), BuildingBlock: TEMPAE_clean_linker_10, # of connection points: 2
#     Edge 28, Type (0, 1), BuildingBlock: TEMPAE_clean_linker_10, # of connection points: 2
#     Edge 29, Type (0, 1), BuildingBlock: TEMPAE_clean_linker_10, # of connection points: 2
#     Edge 30, Type (0, 1), BuildingBlock: TEMPAE_clean_linker_10, # of connection points: 2
#     Edge 31, Type (0, 1), BuildingBlock: TEMPAE_clean_linker_10, # of connection points: 2
#     Edge 32, Type (0, 1), BuildingBlock: TEMPAE_clean_linker_10, # of connection points: 2
#     Edge 33, Type (0, 1), BuildingBlock: TEMPAE_clean_linker_10, # of connection points: 2
#     Edge 34, Type (0, 1), BuildingBlock: TEMPAE_clean_linker_10, # of connection points: 2
#     Edge 35, Type (0, 1), BuildingBlock: TEMPAE_clean_linker_10, # of connection points: 2
# Relax obj value: 0.091
# Max RMSD: 0.158
# Mean RMSD: 0.067
data_MOF--net-pyr--node1-PAMTOO_clean_sbu_0--node2-MIDCAF_clean_linker_0--edge1-TEMPAE_clean_linker_10
_symmetry_space_group_name_H-M    P1
_symmetry_Int_Tables_number       1
_symmetry_cell_setting            triclinic
loop_
_symmetry_equiv_pos_as_xyz
'x, y, z'
_cell_length_a     45.441871
_cell_length_b     47.785073
_cell_length_c     47.742203
_cell_angle_alpha  89.929249
_cell_angle_beta   89.923306
_cell_angle_gamma 102.36837
loop_
_atom_site_label
_atom_site_type_symbol
_atom_site_fract_x
_atom_site_fract_y
_atom_site_fract_z
_atom_type_partial_charge
C0 C 0.28736 0.26156 0.32442 0.0
C1 C 0.29379 0.23649 0.33598 0.0
C2 C 0.31526 0.22376 0.32272 0.0
C3 C 0.32819 0.23452 0.29727 0.0
H4 H 0.39703 0.23292 0.233 0.0
H5 H 0.42458 0.20162 0.20826 0.0
H6 H 0.37354 0.20838 0.13337 0.0
H7 H 0.34638 0.2401 0.15771 0.0
H8 H 0.30661 0.28793 0.15618 0.0
H9 H 0.27137 0.31178 0.13209 0.0
H10 H 0.25116 0.34868 0.21043 0.0
H11 H 0.28638 0.32518 0.2345 0.0
H12 H 0.29357 0.29082 0.28999 0.0
H13 H 0.27135 0.27217 0.33445 0.0
H14 H 0.32061 0.20433 0.33101 0.0
H15 H 0.34331 0.22317 0.28686 0.0
N16 N 0.34681 0.252 0.24081 0.0
N17 N 0.33601 0.27321 0.19874 0.0
N18 N 0.31361 0.2833 0.24071 0.0
C19 C 0.35105 0.25582 0.21276 0.0
C20 C 0.3175 0.28732 0.21269 0.0
C21 C 0.32809 0.26569 0.25496 0.0
C22 C 0.3695 0.23893 0.19732 0.0
C23 C 0.39192 0.22798 0.21117 0.0
C24 C 0.40774 0.21019 0.19706 0.0
C25 C 0.40097 0.20259 0.16906 0.0
C26 C 0.37899 0.2139 0.15504 0.0
C27 C 0.36361 0.23215 0.16894 0.0
C28 C 0.29915 0.30444 0.19733 0.0
C29 C 0.29503 0.3015 0.1682 0.0
C30 C 0.27472 0.31499 0.15441 0.0
C31 C 0.2584 0.33193 0.16942 0.0
C32 C 0.26357 0.33593 0.19827 0.0
C33 C 0.28364 0.32228 0.21209 0.0
C34 C 0.31978 0.25815 0.28449 0.0
C35 C 0.3002 0.27228 0.29895 0.0
C36 C 0.11287 0.83121 0.70031 0.0
C37 C 0.10408 0.82527 0.67234 0.0
C38 C 0.11193 0.80155 0.65914 0.0
C39 C 0.12887 0.78473 0.67333 0.0
H40 H 0.19376 0.73496 0.65783 0.0
H41 H 0.22764 0.71052 0.63241 0.0
H42 H 0.26532 0.69005 0.71094 0.0
H43 H 0.23123 0.71344 0.7362 0.0
H44 H 0.23111 0.75423 0.7861 0.0
H45 H 0.25223 0.77525 0.82974 0.0
H46 H 0.17894 0.8193 0.83804 0.0
H47 H 0.15825 0.79901 0.79364 0.0
H48 H 0.13624 0.82004 0.73586 0.0
H49 H 0.10782 0.84957 0.71105 0.0
H50 H 0.10517 0.79606 0.63775 0.0
H51 H 0.13495 0.76694 0.6624 0.0
N52 N 0.17214 0.75697 0.7015 0.0
N53 N 0.19784 0.74924 0.7424 0.0
N54 N 0.16406 0.77984 0.74344 0.0
C55 C 0.19206 0.74392 0.71479 0.0
C56 C 0.1839 0.76704 0.75693 0.0
C57 C 0.15789 0.77488 0.71582 0.0
C58 C 0.20987 0.72643 0.69909 0.0
C59 C 0.20893 0.72482 0.66967 0.0
C60 C 0.22849 0.71098 0.65508 0.0
C61 C 0.24931 0.69842 0.66961 0.0
C62 C 0.24934 0.69911 0.69903 0.0
C63 C 0.22986 0.71281 0.71355 0.0
C64 C 0.19329 0.77539 0.786 0.0
C65 C 0.21911 0.76798 0.7974 0.0
C66 C 0.23115 0.7799 0.82266 0.0
C67 C 0.21752 0.7993 0.83727 0.0
C68 C 0.19037 0.80492 0.82699 0.0
C69 C 0.17844 0.79319 0.80157 0.0
C70 C 0.1381 0.79111 0.70112 0.0
C71 C 0.12945 0.81428 0.71453 0.0
C72 C 0.63679 0.26645 0.89316 0.0
C73 C 0.60699 0.25252 0.88729 0.0
C74 C 0.58974 0.2663 0.86953 0.0
C75 C 0.60213 0.29339 0.85797 0.0
H76 H 0.59476 0.35519 0.79242 0.0
H77 H 0.57609 0.37658 0.75134 0.0
H78 H 0.65442 0.44599 0.75317 0.0
H79 H 0.67321 0.42471 0.7939 0.0
H80 H 0.72251 0.42929 0.84294 0.0
H81 H 0.76692 0.4548 0.8685 0.0
H82 H 0.74939 0.39068 0.93368 0.0
H83 H 0.70527 0.36543 0.90859 0.0
H84 H 0.67199 0.30343 0.88733 0.0
H85 H 0.65062 0.25671 0.90699 0.0
H86 H 0.56672 0.25607 0.8645 0.0
H87 H 0.58827 0.30352 0.84453 0.0
N88 N 0.63393 0.34848 0.83117 0.0
N89 N 0.67213 0.39025 0.83546 0.0
N90 N 0.66985 0.35236 0.867 0.0
C91 C 0.64738 0.37524 0.82177 0.0
C92 C 0.6834 0.37899 0.85821 0.0
C93 C 0.64529 0.33685 0.85378 0.0
C94 C 0.63558 0.3881 0.79667 0.0
C95 C 0.60806 0.375 0.78409 0.0
C96 C 0.59723 0.38737 0.76057 0.0
C97 C 0.61374 0.41304 0.74882 0.0
C98 C 0.64124 0.42606 0.76137 0.0
C99 C 0.65194 0.41386 0.78495 0.0
C100 C 0.7102 0.39522 0.87359 0.0
C101 C 0.72805 0.42071 0.86278 0.0
C102 C 0.7536 0.43526 0.87736 0.0
C103 C 0.76165 0.42484 0.90321 0.0
C104 C 0.74364 0.39955 0.91405 0.0
C105 C 0.71837 0.38493 0.89946 0.0
C106 C 0.63186 0.30746 0.86432 0.0
C107 C 0.64898 0.29347 0.88197 0.0
C108 C 0.77894 0.64188 0.41879 0.0
C109 C 0.75936 0.61806 0.40697 0.0
C110 C 0.7665 0.60848 0.38042 0.0
C111 C 0.79252 0.62248 0.36607 0.0
H112 H 0.84406 0.62037 0.29405 0.0
H113 H 0.86154 0.59953 0.25234 0.0
H114 H 0.94255 0.66599 0.25206 0.0
H115 H 0.92524 0.68682 0.29407 0.0
H116 H 0.90178 0.7543 0.3331 0.0
H117 H 0.92138 0.80067 0.35534 0.0
H118 H 0.91402 0.759 0.43633 0.0
H119 H 0.89257 0.71354 0.41417 0.0
H120 H 0.81902 0.6743 0.41434 0.0
H121 H 0.77399 0.65014 0.43897 0.0
H122 H 0.75204 0.59005 0.37079 0.0
H123 H 0.79722 0.61461 0.34565 0.0
N124 N 0.84817 0.65246 0.338 0.0
N125 N 0.88821 0.69285 0.33476 0.0
N126 N 0.85498 0.68746 0.37306 0.0
C127 C 0.87284 0.66738 0.32401 0.0
C128 C 0.87933 0.70289 0.35941 0.0
C129 C 0.83907 0.6624 0.36254 0.0
C130 C 0.88317 0.65539 0.29768 0.0
C131 C 0.86559 0.6307 0.28516 0.0
C132 C 0.87556 0.61876 0.26104 0.0
C133 C 0.90352 0.63098 0.24872 0.0
C134 C 0.92105 0.65576 0.2611 0.0
C135 C 0.91099 0.66785 0.28515 0.0
C136 C 0.89547 0.73035 0.37191 0.0
C137 C 0.90468 0.75519 0.35563 0.0
C138 C 0.916 0.7818 0.36848 0.0
C139 C 0.91896 0.78406 0.39791 0.0
C140 C 0.91117 0.75868 0.41383 0.0
C141 C 0.8992 0.73239 0.40107 0.0
C142 C 0.81191 0.64654 0.37784 0.0
C143 C 0.80477 0.6559 0.40446 0.0
C144 C 0.60525 0.82376 0.86611 0.0
C145 C 0.60868 0.82714 0.89523 0.0
C146 C 0.62627 0.81091 0.90961 0.0
C147 C 0.64126 0.79275 0.89499 0.0
H148 H 0.69712 0.73408 0.90487 0.0
H149 H 0.73513 0.71352 0.92892 0.0
H150 H 0.77707 0.70325 0.84955 0.0
H151 H 0.73949 0.72351 0.82547 0.0
H152 H 0.72283 0.75033 0.77278 0.0
H153 H 0.74062 0.77083 0.72785 0.0
H154 H 0.67036 0.81909 0.72711 0.0
H155 H 0.65296 0.7992 0.77271 0.0
H156 H 0.61771 0.80431 0.82896 0.0
H157 H 0.59134 0.83549 0.85449 0.0
H158 H 0.62952 0.81314 0.93203 0.0
H159 H 0.6555 0.78139 0.90662 0.0
N160 N 0.67509 0.75846 0.86309 0.0
N161 N 0.69718 0.75005 0.8204 0.0
N162 N 0.66105 0.77826 0.82145 0.0
C163 C 0.69458 0.74597 0.84852 0.0
C164 C 0.68049 0.76605 0.80665 0.0
C165 C 0.65804 0.77448 0.84962 0.0
C166 C 0.71534 0.73078 0.86322 0.0
C167 C 0.71424 0.72716 0.8925 0.0
C168 C 0.73593 0.71534 0.9063 0.0
C169 C 0.75921 0.7072 0.89109 0.0
C170 C 0.75963 0.70981 0.86181 0.0
C171 C 0.73793 0.72133 0.84803 0.0
C172 C 0.68689 0.77362 0.77678 0.0
C173 C 0.71071 0.76487 0.7629 0.0
C174 C 0.72081 0.77648 0.73689 0.0
C175 C 0.70721 0.79697 0.72403 0.0
C176 C 0.68172 0.80381 0.73675 0.0
C177 C 0.67169 0.7923 0.76288 0.0
C178 C 0.63906 0.79053 0.86565 0.0
C179 C 0.62028 0.80573 0.85149 0.0
C180 C 0.81822 0.22978 0.2532 0.0
C181 C 0.79277 0.23865 0.24276 0.0
C182 C 0.78274 0.26089 0.25646 0.0
C183 C 0.79659 0.27264 0.28114 0.0
H184 H 0.79812 0.3353 0.3416 0.0
H185 H 0.76297 0.35887 0.36555 0.0
H186 H 0.78352 0.32285 0.44421 0.0
H187 H 0.81907 0.29897 0.42019 0.0
H188 H 0.89563 0.27655 0.40732 0.0
H189 H 0.92721 0.24725 0.4294 0.0
H190 H 0.89402 0.17929 0.37029 0.0
H191 H 0.86431 0.20896 0.3476 0.0
H192 H 0.85078 0.23323 0.28594 0.0
H193 H 0.82683 0.21306 0.24277 0.0
H194 H 0.76311 0.2681 0.24903 0.0
H195 H 0.78734 0.2888 0.29183 0.0
N196 N 0.82009 0.29034 0.33582 0.0
N197 N 0.84653 0.28189 0.37611 0.0
N198 N 0.85089 0.25707 0.33436 0.0
C199 C 0.82732 0.29606 0.36313 0.0
C200 C 0.85858 0.26248 0.36161 0.0
C201 C 0.83179 0.27098 0.32125 0.0
C202 C 0.81103 0.31478 0.37889 0.0
C203 C 0.79559 0.33265 0.36408 0.0
C204 C 0.77537 0.34614 0.37776 0.0
C205 C 0.77008 0.34218 0.4066 0.0
C206 C 0.78716 0.32617 0.42192 0.0
C207 C 0.8075 0.31254 0.40816 0.0
C208 C 0.87768 0.24518 0.37561 0.0
C209 C 0.89537 0.2554 0.39905 0.0
C210 C 0.91336 0.23852 0.41174 0.0
C211 C 0.91354 0.21086 0.40155 0.0
C212 C 0.89541 0.20072 0.3783 0.0
C213 C 0.87805 0.21772 0.36536 0.0
C214 C 0.82068 0.2623 0.2927 0.0
C215 C 0.83201 0.24145 0.27791 0.0
C216 C 0.26167 0.61826 0.19004 0.0
C217 C 0.25756 0.62555 0.16195 0.0
C218 C 0.27961 0.64679 0.14911 0.0
C219 C 0.30488 0.66084 0.1641 0.0
H220 H 0.34534 0.75041 0.19024 0.0
H221 H 0.36749 0.79645 0.1687 0.0
H222 H 0.45641 0.78424 0.18878 0.0
H223 H 0.43407 0.7381 0.21119 0.0
H224 H 0.4145 0.6984 0.28272 0.0
H225 H 0.43181 0.67729 0.32449 0.0
H226 H 0.37119 0.59673 0.30597 0.0
H227 H 0.35325 0.61802 0.26489 0.0
H228 H 0.28981 0.62606 0.22658 0.0
H229 H 0.24508 0.60187 0.20042 0.0
H230 H 0.27697 0.65301 0.12759 0.0
H231 H 0.32119 0.67735 0.15354 0.0
N232 N 0.34947 0.69629 0.19935 0.0
N233 N 0.38484 0.6997 0.23567 0.0
N234 N 0.34631 0.65825 0.23097 0.0
C235 C 0.37395 0.71148 0.2129 0.0
C236 C 0.37098 0.67303 0.24497 0.0
C237 C 0.33557 0.66971 0.20803 0.0
C238 C 0.38796 0.7406 0.20244 0.0
C239 C 0.36962 0.75766 0.19042 0.0
C240 C 0.38227 0.78408 0.17814 0.0
C241 C 0.41365 0.79391 0.17699 0.0
C242 C 0.43212 0.77711 0.18931 0.0
C243 C 0.41937 0.75085 0.20228 0.0
C244 C 0.38233 0.66007 0.27027 0.0
C245 C 0.40483 0.67618 0.28752 0.0
C246 C 0.41491 0.66396 0.3115 0.0
C247 C 0.40293 0.63519 0.31891 0.0
C248 C 0.38063 0.61906 0.30146 0.0
C249 C 0.37043 0.6313 0.27763 0.0
C250 C 0.30905 0.65373 0.19222 0.0
C251 C 0.28733 0.632 0.20495 0.0
C252 C 0.13195 0.26077 0.67507 0.0
C253 C 0.10173 0.24803 0.68079 0.0
C254 C 0.08513 0.26265 0.69836 0.0
C255 C 0.09856 0.28944 0.70988 0.0
H256 H 0.10369 0.34453 0.78435 0.0
H257 H 0.08669 0.36562 0.82624 0.0
H258 H 0.14762 0.44601 0.80745 0.0
H259 H 0.16528 0.42473 0.76621 0.0
H260 H 0.22725 0.41739 0.72598 0.0
H261 H 0.2718 0.44127 0.69926 0.0
H262 H 0.23964 0.389 0.6274 0.0
H263 H 0.19556 0.36505 0.65389 0.0
H264 H 0.16843 0.29669 0.6809 0.0
H265 H 0.14531 0.2503 0.66142 0.0
H266 H 0.06181 0.25333 0.70324 0.0
H267 H 0.08518 0.30028 0.72313 0.0
N268 N 0.13285 0.34324 0.73706 0.0
N269 N 0.17128 0.3847 0.73169 0.0
N270 N 0.1672 0.34686 0.69982 0.0
C271 C 0.14692 0.36988 0.74617 0.0
C272 C 0.18144 0.37334 0.70838 0.0
C273 C 0.14306 0.33156 0.71388 0.0
C274 C 0.13599 0.38278 0.77171 0.0
C275 C 0.11352 0.3667 0.78912 0.0
C276 C 0.1036 0.37892 0.81318 0.0
C277 C 0.11571 0.40765 0.82052 0.0
C278 C 0.13806 0.42372 0.80298 0.0
C279 C 0.1481 0.41148 0.77906 0.0
C280 C 0.20782 0.38921 0.69217 0.0
C281 C 0.22961 0.41114 0.70444 0.0
C282 C 0.25519 0.4247 0.6892 0.0
C283 C 0.25921 0.41701 0.66121 0.0
C284 C 0.2371 0.39557 0.64882 0.0
C285 C 0.21189 0.38173 0.66412 0.0
C286 C 0.12868 0.30239 0.70359 0.0
C287 C 0.14516 0.28756 0.68616 0.0
Dy288 Dy 0.04172 0.02356 0.52402 0.0
Dy289 Dy 0.97382 1.01179 0.55198 0.0
C290 C 0.02594 0.06596 0.57 0.0
O291 O 0.04282 1.00063 0.56473 0.0
O292 O 0.99425 0.97533 0.56486 0.0
O293 O 0.08989 0.03465 0.52977 0.0
O294 O 0.07112 0.02158 0.48888 0.0
O295 O 0.96892 0.98472 0.51318 0.0
O296 O 0.01792 0.97999 0.50939 0.0
O297 O 0.97559 0.04999 0.52501 0.0
O298 O 0.01627 0.04806 0.49653 0.0
O299 O 0.92535 1.00527 0.5495 0.0
O300 O 0.94738 1.00637 0.58991 0.0
C301 C 0.02239 0.97823 0.57253 0.0
O302 O 0.04009 0.06414 0.54633 0.0
O303 O 1.00398 0.04501 0.57855 0.0
C304 C 0.11737 0.05487 0.49024 0.0
C305 C 0.15916 0.09861 0.4633 0.0
C306 C 0.13242 0.10425 0.47463 0.0
C307 C 0.1116 0.08248 0.48796 0.0
C308 C 0.14419 0.04931 0.47947 0.0
C309 C 0.16493 0.07098 0.46611 0.0
C310 C 0.09549 0.03152 0.50329 0.0
C311 C 0.98922 0.97147 0.50319 0.0
C312 C 0.99234 0.05819 0.50283 0.0
C313 C 0.89876 0.97695 0.58641 0.0
C314 C 0.85485 0.93078 0.60725 0.0
C315 C 0.86289 0.9319 0.57877 0.0
C316 C 0.88483 0.95476 0.56842 0.0
C317 C 0.89043 0.97593 0.61473 0.0
C318 C 0.8688 0.95306 0.62507 0.0
C319 C 0.92182 1.00153 0.57648 0.0
H320 H 0.12724 0.12524 0.47252 0.0
H321 H 0.09089 0.08705 0.49618 0.0
H322 H 0.14896 0.0281 0.48119 0.0
H323 H 0.18549 0.06611 0.45789 0.0
H324 H 0.8525 0.91493 0.56463 0.0
H325 H 0.89087 0.955 0.54645 0.0
H326 H 0.9007 0.9929 0.62892 0.0
H327 H 0.86269 0.95298 0.64702 0.0
Dy328 Dy 0.48035 1.01562 1.0118 0.0
Dy329 Dy 0.54377 0.02804 0.04752 0.0
C330 C 0.4905 0.97436 0.06317 0.0
O331 O 0.48125 0.05524 0.03665 0.0
O332 O 0.51152 0.04709 0.07273 0.0
O333 O 0.43212 1.01132 1.0104 0.0
O334 O 0.45743 1.00981 0.972 0.0
O335 O 0.5438 0.06787 1.02275 0.0
O336 O 0.51435 0.04671 0.98669 0.0
O337 O 0.55056 1.0013 1.01062 0.0
O338 O 0.50173 0.97946 1.00061 0.0
O339 O 0.59232 0.04018 0.04634 0.0
O340 O 0.56906 0.0299 0.08594 0.0
C341 C 0.49147 0.06023 0.06223 0.0
O342 O 0.47126 0.98564 0.04865 0.0
O343 O 0.5197 0.98483 0.06228 0.0
C344 C 0.40796 0.98216 0.97333 0.0
C345 C 0.36511 0.9357 0.95193 0.0
C346 C 0.37529 0.93512 0.97966 0.0
C347 C 0.39677 0.95813 0.99026 0.0
C348 C 0.39753 0.98284 0.94581 0.0
C349 C 0.37638 0.95981 0.93516 0.0
C350 C 0.43084 1.00659 0.98345 0.0
C351 C 0.53392 0.06855 0.99698 0.0
C352 C 0.53075 0.98066 0.99877 0.0
C353 C 0.6147 0.0644 0.08622 0.0
C354 C 0.65357 0.11145 0.11126 0.0
C355 C 0.62346 0.11246 0.10549 0.0
C356 C 0.60416 0.08911 0.09294 0.0
C357 C 0.64473 0.06346 0.09158 0.0
C358 C 0.66404 0.08678 0.10398 0.0
C359 C 0.59484 0.03946 0.0735 0.0
H360 H 0.36704 0.91669 0.99293 0.0
H361 H 0.40471 0.95706 1.01154 0.0
H362 H 0.40588 1.00119 0.93246 0.0
H363 H 0.36861 0.96096 0.91383 0.0
H364 H 0.61486 0.13127 0.11072 0.0
H365 H 0.58103 0.09024 0.08866 0.0
H366 H 0.65318 0.04454 0.08642 0.0
H367 H 0.68696 0.08519 0.10855 0.0
Dy368 Dy 0.50592 0.49111 0.5158 0.0
Dy369 Dy 0.50952 0.55183 0.54925 0.0
C370 C 0.53454 0.50077 0.57763 0.0
O371 O 0.45865 0.48731 0.53119 0.0
O372 O 0.46802 0.5222 0.56523 0.0
O373 O 0.49938 0.44492 0.51417 0.0
O374 O 0.512 0.47025 0.47679 0.0
O375 O 0.47702 0.55265 0.51423 0.0
O376 O 0.49363 0.52186 0.48453 0.0
O377 O 0.54822 0.55962 0.51906 0.0
O378 O 0.55437 0.51357 0.51567 0.0
O379 O 0.51571 0.59792 0.54878 0.0
O380 O 0.50749 0.57474 0.58799 0.0
C381 C 0.45032 0.5 0.5534 0.0
O382 O 0.51818 0.4829 0.55995 0.0
O383 O 0.539 0.52869 0.57406 0.0
C384 C 0.53562 0.43166 0.48376 0.0
C385 C 0.58927 0.41254 0.47371 0.0
C386 C 0.5783 0.41343 0.50113 0.0
C387 C 0.55182 0.42311 0.50616 0.0
C388 C 0.54606 0.42975 0.4563 0.0
C389 C 0.5727 0.42044 0.45133 0.0
C390 C 0.50981 0.44533 0.48867 0.0
C391 C 0.47918 0.54251 0.48894 0.0
C392 C 0.56438 0.54111 0.51165 0.0
C393 C 0.48326 0.61308 0.58169 0.0
C394 C 0.43177 0.6343 0.59601 0.0
C395 C 0.43723 0.62774 0.56802 0.0
C396 C 0.4626 0.6171 0.56095 0.0
C397 C 0.47834 0.62034 0.60948 0.0
C398 C 0.45283 0.63076 0.61661 0.0
C399 C 0.50832 0.59897 0.57512 0.0
H400 H 0.59072 0.40752 0.51874 0.0
H401 H 0.54454 0.42461 0.52762 0.0
H402 H 0.53405 0.43628 0.43871 0.0
H403 H 0.58048 0.41957 0.42995 0.0
H404 H 0.42177 0.63061 0.55155 0.0
H405 H 0.46565 0.61148 0.53933 0.0
H406 H 0.49379 0.61713 0.62585 0.0
H407 H 0.44915 0.63517 0.63843 0.0
Dy408 Dy 0.01245 0.55291 1.01571 0.0
Dy409 Dy 0.00731 0.49211 0.04938 0.0
C410 C 0.98196 0.54333 0.07698 0.0
O411 O 0.05922 0.55559 0.03183 0.0
O412 O 0.04818 0.52151 0.06656 0.0
O413 O 0.0199 0.59914 1.01412 0.0
O414 O 0.00867 0.57419 0.97638 0.0
O415 O 0.04083 0.49143 1.01508 0.0
O416 O 0.02429 0.52169 0.98481 0.0
O417 O 0.9694 0.48479 1.0185 0.0
O418 O 0.96383 0.53101 1.0143 0.0
O419 O 1.00252 0.44613 0.04839 0.0
O420 O 0.00638 0.46844 0.08803 0.0
C421 C 0.06662 0.54319 0.05461 0.0
O422 O 0.99881 0.56117 0.05949 0.0
O423 O 0.97739 0.5154 0.07345 0.0
C424 C 0.98657 0.61375 0.98184 0.0
C425 C 0.9354 0.63489 0.96707 0.0
C426 C 0.93908 0.62604 0.99467 0.0
C427 C 0.96435 0.61531 1.00195 0.0
C428 C 0.98335 0.62341 0.95452 0.0
C429 C 0.95794 0.63381 0.94715 0.0
C430 C 0.01124 0.59918 0.98809 0.0
C431 C 0.03883 0.5012 0.9896 0.0
C432 C 0.95366 0.50345 1.01052 0.0
C433 C 0.03258 0.43162 0.08296 0.0
C434 C 0.08188 0.40779 0.09811 0.0
C435 C 0.08656 0.43503 0.08556 0.0
C436 C 0.06214 0.44675 0.07795 0.0
C437 C 0.02764 0.40445 0.09534 0.0
C438 C 0.05212 0.39257 0.10284 0.0
C439 C 0.00724 0.44456 0.07521 0.0
H440 H 0.92191 0.62646 1.01033 0.0
H441 H 0.96605 0.6075 1.02308 0.0
H442 H 1.00008 0.6221 0.93865 0.0
H443 H 0.95573 0.64075 0.92579 0.0
H444 H 0.10911 0.44754 0.08202 0.0
H445 H 0.06631 0.46775 0.06828 0.0
H446 H 0.00492 0.39246 0.0992 0.0
H447 H 0.04776 0.37141 0.11216 0.0
C448 C 0.28875 0.20811 0.38073 0.0
C449 C 0.27549 0.22159 0.35954 0.0
C450 C 0.27092 0.19039 0.40057 0.0
C451 C 0.23914 0.18596 0.399 0.0
C452 C 0.22573 0.20075 0.37862 0.0
C453 C 0.24406 0.21837 0.35916 0.0
C454 C 0.28602 0.17521 0.42221 0.0
C455 C 0.19193 0.1965 0.37617 0.0
C456 C 0.19221 0.11423 0.42189 0.0
C457 C 0.18041 0.12102 0.44752 0.0
C458 C 0.21175 0.1351 0.40621 0.0
C459 C 0.2198 0.16351 0.41644 0.0
C460 C 0.20831 0.17048 0.44248 0.0
C461 C 0.18861 0.14914 0.4577 0.0
C462 C 0.22329 0.12685 0.37838 0.0
C463 C 0.21656 0.20051 0.45408 0.0
H464 H 0.31304 0.2108 0.38131 0.0
H465 H 0.23359 0.22837 0.34263 0.0
H466 H 0.27652 0.17739 0.44331 0.0
H467 H 0.28171 0.152 0.41729 0.0
H468 H 0.31078 0.18363 0.42288 0.0
H469 H 0.1852 0.21178 0.36117 0.0
H470 H 0.18233 0.17438 0.36891 0.0
H471 H 0.18176 0.19911 0.39688 0.0
H472 H 0.18558 0.09263 0.41374 0.0
H473 H 0.17975 0.15439 0.47765 0.0
H474 H 0.24828 0.13217 0.37813 0.0
H475 H 0.21552 0.13926 0.36129 0.0
H476 H 0.21552 0.10365 0.3738 0.0
H477 H 0.24141 0.20767 0.45535 0.0
H478 H 0.20682 0.20213 0.47522 0.0
H479 H 0.20836 0.21551 0.4398 0.0
C480 C 0.23497 0.84575 0.8624 0.0
C481 C 0.23365 0.81618 0.86092 0.0
C482 C 0.25428 0.86311 0.88128 0.0
C483 C 0.27295 0.85068 0.89896 0.0
C484 C 0.27027 0.82062 0.89897 0.0
C485 C 0.25057 0.80369 0.87998 0.0
C486 C 0.25629 0.89508 0.88076 0.0
C487 C 0.28965 0.80656 0.91767 0.0
C488 C 0.34772 0.90078 0.91361 0.0
C489 C 0.34279 0.91142 0.94013 0.0
C490 C 0.32563 0.87995 0.90061 0.0
C491 C 0.29783 0.8696 0.91443 0.0
C492 C 0.29323 0.87927 0.94179 0.0
C493 C 0.31588 0.90008 0.95439 0.0
C494 C 0.33158 0.86995 0.87154 0.0
C495 C 0.26389 0.86873 0.95714 0.0
H496 H 0.22233 0.85573 0.84761 0.0
H497 H 0.24927 0.78079 0.87933 0.0
H498 H 0.25557 0.90346 0.90235 0.0
H499 H 0.27809 0.90592 0.8713 0.0
H500 H 0.23778 0.90092 0.86842 0.0
H501 H 0.28173 0.7829 0.91828 0.0
H502 H 0.31318 0.81159 0.90979 0.0
H503 H 0.28997 0.81499 0.93933 0.0
H504 H 0.36875 0.90922 0.90277 0.0
H505 H 0.31203 0.90838 0.97488 0.0
H506 H 0.31614 0.877 0.85638 0.0
H507 H 0.3271 0.84622 0.87083 0.0
H508 H 0.35514 0.87854 0.86459 0.0
H509 H 0.24583 0.87736 0.94685 0.0
H510 H 0.26528 0.87551 0.97944 0.0
H511 H 0.25717 0.84502 0.95623 0.0
C512 C 0.57203 0.42772 0.7213 0.0
C513 C 0.60248 0.42625 0.72359 0.0
C514 C 0.56131 0.44045 0.69785 0.0
C515 C 0.58138 0.45185 0.67588 0.0
C516 C 0.61211 0.45034 0.67802 0.0
C517 C 0.62227 0.4377 0.7018 0.0
C518 C 0.52844 0.44175 0.6966 0.0
C519 C 0.63426 0.46184 0.65503 0.0
C520 C 0.54767 0.45934 0.60369 0.0
C521 C 0.54764 0.48873 0.60243 0.0
C522 C 0.55884 0.44721 0.62723 0.0
C523 C 0.5701 0.46473 0.6504 0.0
C524 C 0.57037 0.49446 0.64922 0.0
C525 C 0.55931 0.50611 0.62525 0.0
C526 C 0.55841 0.41553 0.62733 0.0
C527 C 0.58199 0.51392 0.67347 0.0
H528 H 0.55661 0.41929 0.73811 0.0
H529 H 0.64574 0.43638 0.70313 0.0
H530 H 0.52622 0.46431 0.69431 0.0
H531 H 0.51776 0.42991 0.67798 0.0
H532 H 0.51585 0.43248 0.71558 0.0
H533 H 0.65745 0.45933 0.65995 0.0
H534 H 0.627 0.45051 0.63512 0.0
H535 H 0.6348 0.48489 0.6515 0.0
H536 H 0.53892 0.44565 0.58619 0.0
H537 H 0.55932 0.52878 0.62462 0.0
H538 H 0.54407 0.40493 0.64478 0.0
H539 H 0.58147 0.41201 0.63089 0.0
H540 H 0.54971 0.40497 0.60739 0.0
H541 H 0.56861 0.50653 0.69256 0.0
H542 H 0.58088 0.53655 0.66929 0.0
H543 H 0.6057 0.51301 0.67802 0.0
C544 C 0.94454 0.61522 0.22105 0.0
C545 C 0.91438 0.61774 0.22329 0.0
C546 C 0.95497 0.60252 0.19743 0.0
C547 C 0.93489 0.59217 0.17523 0.0
C548 C 0.90444 0.59468 0.17732 0.0
C549 C 0.89457 0.60731 0.20127 0.0
C550 C 0.98754 0.60014 0.19626 0.0
C551 C 0.88229 0.58427 0.1541 0.0
C552 C 0.96933 0.58489 0.10321 0.0
C553 C 0.96856 0.55537 0.10164 0.0
C554 C 0.9581 0.59699 0.12674 0.0
C555 C 0.94592 0.57929 0.1496 0.0
C556 C 0.94476 0.54942 0.14806 0.0
C557 C 0.95593 0.53782 0.12411 0.0
C558 C 0.95956 0.62885 0.12724 0.0
C559 C 0.93213 0.52974 0.17194 0.0
H560 H 0.95998 0.62281 0.23803 0.0
H561 H 0.87133 0.60941 0.20255 0.0
H562 H 0.98894 0.57739 0.19368 0.0
H563 H 0.99876 0.61204 0.17783 0.0
H564 H 1.00017 0.60872 0.2154 0.0
H565 H 0.85933 0.58746 0.159 0.0
H566 H 0.89012 0.59584 0.13439 0.0
H567 H 0.88098 0.56116 0.15021 0.0
H568 H 0.97883 0.59872 0.08599 0.0
H569 H 0.95529 0.51504 0.12327 0.0
H570 H 0.97397 0.63879 0.14486 0.0
H571 H 0.93675 0.63302 0.13078 0.0
H572 H 0.96876 0.63955 0.10746 0.0
H573 H 0.94547 0.53629 0.1912 0.0
H574 H 0.93235 0.50699 0.1674 0.0
H575 H 0.90862 0.53146 0.17643 0.0
C576 C 0.39825 0.15687 0.14327 0.0
C577 C 0.41579 0.18188 0.15478 0.0
C578 C 0.41174 0.13693 0.12953 0.0
C579 C 0.44349 0.14251 0.1267 0.0
C580 C 0.46132 0.16776 0.13837 0.0
C581 C 0.44722 0.18703 0.15261 0.0
C582 C 0.39198 0.10998 0.11787 0.0
C583 C 0.49516 0.17474 0.13522 0.0
C584 C 0.4792 0.07983 0.10831 0.0
C585 C 0.48078 0.08196 0.07905 0.0
C586 C 0.46741 0.09961 0.12422 0.0
C587 C 0.45777 0.12238 0.11052 0.0
C588 C 0.46041 0.12518 0.08105 0.0
C589 C 0.47152 0.10472 0.06565 0.0
C590 C 0.46434 0.09559 0.15554 0.0
C591 C 0.45107 0.14955 0.06573 0.0
H592 H 0.37393 0.15282 0.14527 0.0
H593 H 0.46069 0.20648 0.16149 0.0
H594 H 0.39409 0.10979 0.09473 0.0
H595 H 0.39942 0.09085 0.12598 0.0
H596 H 0.36786 0.10807 0.12333 0.0
H597 H 0.5058 0.19499 0.14595 0.0
H598 H 0.5048 0.15711 0.14388 0.0
H599 H 0.50124 0.17675 0.11267 0.0
H600 H 0.48627 0.06218 0.11868 0.0
H601 H 0.47311 0.10662 0.04304 0.0
H602 H 0.4402 0.09171 0.16152 0.0
H603 H 0.47599 0.11532 0.16648 0.0
H604 H 0.47377 0.07733 0.16307 0.0
H605 H 0.42642 0.14767 0.06791 0.0
H606 H 0.4567 0.14986 0.04306 0.0
H607 H 0.46229 0.17035 0.07506 0.0
C608 C 0.06708 0.85752 0.67056 0.0
C609 C 0.0882 0.84474 0.65684 0.0
C610 C 0.05445 0.87833 0.65719 0.0
C611 C 0.06267 0.88619 0.62922 0.0
C612 C 0.08281 0.87242 0.61477 0.0
C613 C 0.09552 0.85205 0.62881 0.0
C614 C 0.03316 0.89264 0.67335 0.0
C615 C 0.09176 0.87993 0.58477 0.0
C616 C 0.01439 0.92696 0.58727 0.0
C617 C 0.03174 0.95501 0.58836 0.0
C618 C 0.02412 0.9043 0.60049 0.0
C619 C 0.05155 0.90995 0.61558 0.0
C620 C 0.06876 0.93836 0.61732 0.0
C621 C 0.05878 0.9605 0.60345 0.0
C622 C 0.00545 0.87423 0.59774 0.0
C623 C 0.09788 0.94532 0.63361 0.0
H624 H 0.06073 0.85159 0.69199 0.0
H625 H 0.11204 0.84263 0.61806 0.0
H626 H 0.04325 0.91581 0.67565 0.0
H627 H 0.01171 0.89082 0.66175 0.0
H628 H 0.02805 0.88323 0.69455 0.0
H629 H 0.10549 0.8655 0.57575 0.0
H630 H 0.07142 0.87873 0.57161 0.0
H631 H 0.10503 0.90227 0.58363 0.0
H632 H 0.99362 0.92255 0.57535 0.0
H633 H 0.0722 0.98217 0.60443 0.0
H634 H 0.99943 0.86482 0.61877 0.0
H635 H 0.0188 0.86049 0.58702 0.0
H636 H 0.9844 0.87352 0.58571 0.0
H637 H 0.09392 0.93773 0.65555 0.0
H638 H 0.10794 0.96866 0.63385 0.0
H639 H 0.11444 0.934 0.6243 0.0
C640 C 0.78808 0.44299 0.94794 0.0
C641 C 0.78903 0.4397 0.91874 0.0
C642 C 0.81415 0.4549 0.96323 0.0
C643 C 0.84202 0.46368 0.94908 0.0
C644 C 0.843 0.46119 0.91952 0.0
C645 C 0.8165 0.44932 0.90471 0.0
C646 C 0.81201 0.45744 0.99465 0.0
C647 C 0.87224 0.47018 0.90362 0.0
C648 C 0.90754 0.51283 0.98631 0.0
C649 C 0.92443 0.49328 0.99582 0.0
C650 C 0.88066 0.50356 0.97118 0.0
C651 C 0.87036 0.47402 0.96534 0.0
C652 C 0.88716 0.45419 0.97508 0.0
C653 C 0.91389 0.46402 0.99019 0.0
C654 C 0.8634 0.52542 0.96128 0.0
C655 C 0.87703 0.42252 0.96929 0.0
H656 H 0.76686 0.43601 0.9589 0.0
H657 H 0.81751 0.44665 0.88222 0.0
H658 H 0.82546 0.44351 1.00491 0.0
H659 H 0.82157 0.47976 1.00131 0.0
H660 H 0.78841 0.45119 1.00232 0.0
H661 H 0.86896 0.46836 0.88058 0.0
H662 H 0.88309 0.49266 0.90875 0.0
H663 H 0.88804 0.45658 0.91 0.0
H664 H 0.91544 0.53549 0.99044 0.0
H665 H 0.92672 0.4487 0.99732 0.0
H666 H 0.84016 0.52023 0.96987 0.0
H667 H 0.86149 0.52474 0.93812 0.0
H668 H 0.8743 0.54756 0.96766 0.0
H669 H 0.85421 0.41441 0.97815 0.0
H670 H 0.89259 0.40987 0.97832 0.0
H671 H 0.87552 0.41874 0.94636 0.0
C672 C 0.7318 0.59954 0.45127 0.0
C673 C 0.73133 0.60389 0.42218 0.0
C674 C 0.70527 0.58811 0.46625 0.0
C675 C 0.67744 0.58079 0.45187 0.0
C676 C 0.6769 0.5844 0.42242 0.0
C677 C 0.7038 0.59586 0.40795 0.0
C678 C 0.70694 0.58441 0.49758 0.0
C679 C 0.64774 0.57689 0.40627 0.0
C680 C 0.61047 0.53164 0.48741 0.0
C681 C 0.59397 0.5513 0.49744 0.0
C682 C 0.63767 0.54087 0.47266 0.0
C683 C 0.64877 0.57051 0.4678 0.0
C684 C 0.63241 0.59046 0.47812 0.0
C685 C 0.60527 0.58064 0.49276 0.0
C686 C 0.65435 0.51885 0.46205 0.0
C687 C 0.64344 0.62225 0.47346 0.0
H688 H 0.753 0.60523 0.46242 0.0
H689 H 0.70311 0.59938 0.38555 0.0
H690 H 0.69368 0.59825 0.50825 0.0
H691 H 0.69688 0.56194 0.50352 0.0
H692 H 0.73045 0.58996 0.50548 0.0
H693 H 0.65128 0.5796 0.38331 0.0
H694 H 0.63621 0.55439 0.41057 0.0
H695 H 0.6324 0.59074 0.41321 0.0
H696 H 0.60197 0.5089 0.49077 0.0
H697 H 0.59276 0.59604 0.50034 0.0
H698 H 0.67755 0.52323 0.47066 0.0
H699 H 0.65639 0.52025 0.4389 0.0
H700 H 0.64291 0.49664 0.46781 0.0
H701 H 0.66628 0.62944 0.48251 0.0
H702 H 0.62827 0.635 0.483 0.0
H703 H 0.64525 0.62693 0.45068 0.0
C704 C 0.23184 0.37203 0.16117 0.0
C705 C 0.23458 0.3439 0.15559 0.0
C706 C 0.20772 0.38268 0.15033 0.0
C707 C 0.18573 0.36468 0.13369 0.0
C708 C 0.18885 0.33654 0.12732 0.0
C709 C 0.21331 0.3265 0.13831 0.0
C710 C 0.20533 0.41293 0.1573 0.0
C711 C 0.16578 0.31668 0.10977 0.0
C712 C 0.10778 0.38141 0.13239 0.0
C713 C 0.10805 0.39569 0.10667 0.0
C714 C 0.13278 0.37089 0.14123 0.0
C715 C 0.15876 0.37488 0.12403 0.0
C716 C 0.1591 0.38899 0.09793 0.0
C717 C 0.13369 0.39913 0.08951 0.0
C718 C 0.13156 0.35586 0.16919 0.0
C719 C 0.1864 0.39365 0.07904 0.0
H720 H 0.24843 0.38562 0.17429 0.0
H721 H 0.21514 0.30463 0.13423 0.0
H722 H 0.20317 0.425 0.13781 0.0
H723 H 0.18477 0.41254 0.16998 0.0
H724 H 0.22516 0.42465 0.1692 0.0
H725 H 0.17241 0.29604 0.1054 0.0
H726 H 0.14376 0.31209 0.1208 0.0
H727 H 0.16246 0.32703 0.08955 0.0
H728 H 0.08824 0.37901 0.14594 0.0
H729 H 0.13391 0.40974 0.06942 0.0
H730 H 0.14919 0.36797 0.18325 0.0
H731 H 0.13628 0.33419 0.16642 0.0
H732 H 0.10932 0.35366 0.17964 0.0
H733 H 0.20615 0.40664 0.09006 0.0
H734 H 0.1829 0.40473 0.05924 0.0
H735 H 0.19203 0.37279 0.07381 0.0
C736 C 0.56579 0.21869 0.91337 0.0
C737 C 0.59419 0.22408 0.90041 0.0
C738 C 0.55491 0.193 0.92818 0.0
C739 C 0.57271 0.17203 0.92989 0.0
C740 C 0.60093 0.17697 0.91601 0.0
C741 C 0.61132 0.20288 0.90157 0.0
C742 C 0.52478 0.1887 0.94276 0.0
C743 C 0.62051 0.15514 0.91696 0.0
C744 C 0.5616 0.11981 0.99151 0.0
C745 C 0.5441 0.09486 0.97963 0.0
C746 C 0.57076 0.14504 0.97566 0.0
C747 C 0.56246 0.14544 0.94708 0.0
C748 C 0.54489 0.12032 0.93491 0.0
C749 C 0.53585 0.09542 0.95131 0.0
C750 C 0.58934 0.17132 0.98956 0.0
C751 C 0.53574 0.11971 0.9045 0.0
H752 H 0.55252 0.23502 0.91282 0.0
H753 H 0.63312 0.2067 0.89131 0.0
H754 H 0.51007 0.16817 0.93611 0.0
H755 H 0.52797 0.18741 0.96572 0.0
H756 H 0.51303 0.20636 0.93835 0.0
H757 H 0.64111 0.16154 0.90389 0.0
H758 H 0.62743 0.15228 0.93887 0.0
H759 H 0.60764 0.13404 0.90959 0.0
H760 H 0.56801 0.11977 1.01337 0.0
H761 H 0.52234 0.07633 0.94186 0.0
H762 H 0.57773 0.18944 0.98778 0.0
H763 H 0.61139 0.17786 0.97877 0.0
H764 H 0.59348 0.16771 1.01207 0.0
H765 H 0.52258 0.13635 0.90047 0.0
H766 H 0.52198 0.09856 0.89817 0.0
H767 H 0.55609 0.12475 0.891 0.0
C768 C 0.91821 0.8174 0.43893 0.0
C769 C 0.92924 0.81257 0.41218 0.0
C770 C 0.92815 0.8435 0.45311 0.0
C771 C 0.949 0.866 0.44004 0.0
C772 C 0.95965 0.86173 0.4128 0.0
C773 C 0.94999 0.83507 0.39938 0.0
C774 C 0.91652 0.84684 0.4823 0.0
C775 C 0.98142 0.88533 0.39784 0.0
C776 C 0.95312 0.94095 0.46992 0.0
C777 C 0.97938 0.94506 0.48619 0.0
C778 C 0.9435 0.91577 0.4541 0.0
C779 C 0.95999 0.89373 0.45522 0.0
C780 C 0.98644 0.89776 0.47177 0.0
C781 C 0.99601 0.92347 0.4867 0.0
C782 C 0.91561 0.91272 0.43624 0.0
C783 C 1.00426 0.87458 0.4743 0.0
H784 H 0.90154 0.8008 0.44893 0.0
H785 H 0.95909 0.83182 0.37896 0.0
H786 H 0.93567 0.85245 0.49712 0.0
H787 H 0.90434 0.86461 0.48275 0.0
H788 H 0.90106 0.82703 0.4899 0.0
H789 H 0.98619 0.8793 0.3761 0.0
H790 H 0.97219 0.90503 0.3971 0.0
H791 H 1.00298 0.89066 0.40951 0.0
H792 H 0.94025 0.9576 0.4693 0.0
H793 H 0.01614 0.92633 0.49947 0.0
H794 H 0.8979 0.8947 0.44407 0.0
H795 H 0.92076 0.90761 0.41435 0.0
H796 H 0.90643 0.93248 0.43621 0.0
H797 H 0.98971 0.85486 0.48306 0.0
H798 H 0.02432 0.88104 0.48797 0.0
H799 H 0.01184 0.86909 0.45331 0.0
C800 C 0.28113 0.66178 0.66476 0.0
C801 C 0.27242 0.68632 0.6545 0.0
C802 C 0.3058 0.65247 0.65328 0.0
C803 C 0.32194 0.66784 0.63072 0.0
C804 C 0.31222 0.69163 0.61918 0.0
C805 C 0.28767 0.70068 0.6313 0.0
C806 C 0.31545 0.627 0.6662 0.0
C807 C 0.3286 0.7083 0.59485 0.0
C808 C 0.4045 0.66492 0.62448 0.0
C809 C 0.40378 0.64389 0.60387 0.0
C810 C 0.37807 0.67312 0.63314 0.0
C811 C 0.35022 0.66025 0.62064 0.0
C812 C 0.34937 0.63954 0.59934 0.0
C813 C 0.37612 0.63146 0.59134 0.0
C814 C 0.37988 0.6952 0.65604 0.0
C815 C 0.32015 0.62553 0.58536 0.0
H816 H 0.2691 0.65021 0.68231 0.0
H817 H 0.28132 0.7198 0.62336 0.0
H818 H 0.31748 0.61105 0.64985 0.0
H819 H 0.33798 0.63405 0.67593 0.0
H820 H 0.29941 0.61633 0.68249 0.0
H821 H 0.31635 0.72425 0.58642 0.0
H822 H 0.3513 0.71979 0.60167 0.0
H823 H 0.33179 0.69356 0.57771 0.0
H824 H 0.4258 0.67501 0.63394 0.0
H825 H 0.37521 0.61489 0.57569 0.0
H826 H 0.36592 0.68572 0.67418 0.0
H827 H 0.37069 0.71355 0.64846 0.0
H828 H 0.40333 0.70341 0.66337 0.0
H829 H 0.30477 0.61272 0.60093 0.0
H830 H 0.32361 0.61122 0.56789 0.0
H831 H 0.3087 0.6421 0.57705 0.0
C832 C 0.72567 0.84375 0.6997 0.0
C833 C 0.72223 0.81386 0.69984 0.0
C834 C 0.7447 0.86085 0.68034 0.0
C835 C 0.76083 0.84777 0.6607 0.0
C836 C 0.75574 0.81754 0.6593 0.0
C837 C 0.73647 0.80091 0.67891 0.0
C838 C 0.74936 0.89304 0.68246 0.0
C839 C 0.77225 0.80281 0.63842 0.0
C840 C 0.80376 0.89802 0.60566 0.0
C841 C 0.83184 0.90675 0.61873 0.0
C842 C 0.78064 0.87769 0.61837 0.0
C843 C 0.7859 0.8659 0.64465 0.0
C844 C 0.81477 0.87354 0.65711 0.0
C845 C 0.83735 0.89388 0.644 0.0
C846 C 0.7502 0.86998 0.60443 0.0
C847 C 0.82143 0.86127 0.685 0.0
H848 H 0.71509 0.85405 0.71592 0.0
H849 H 0.73351 0.77779 0.67857 0.0
H850 H 0.77218 0.90198 0.6909 0.0
H851 H 0.74799 0.90264 0.66147 0.0
H852 H 0.73251 0.89968 0.69642 0.0
H853 H 0.76224 0.77952 0.6369 0.0
H854 H 0.77214 0.81259 0.61735 0.0
H855 H 0.79612 0.80549 0.64495 0.0
H856 H 0.79944 0.90802 0.58613 0.0
H857 H 0.85923 0.90026 0.65388 0.0
H858 H 0.73388 0.87969 0.61626 0.0
H859 H 0.74155 0.84644 0.60458 0.0
H860 H 0.75097 0.87777 0.58245 0.0
H861 H 0.80778 0.86861 0.70164 0.0
H862 H 0.84559 0.86785 0.69081 0.0
H863 H 0.81511 0.83753 0.6845 0.0
C864 C 0.76858 0.1927 0.21966 0.0
C865 C 0.77487 0.22274 0.21959 0.0
C866 C 0.74941 0.17696 0.19967 0.0
C867 C 0.73614 0.19158 0.17904 0.0
C868 C 0.74301 0.2219 0.17829 0.0
C869 C 0.76227 0.23716 0.19867 0.0
C870 C 0.74257 0.14462 0.20123 0.0
C871 C 0.72944 0.23817 0.15645 0.0
C872 C 0.70386 0.14446 0.11795 0.0
C873 C 0.67372 0.1352 0.12627 0.0
C874 C 0.72416 0.16422 0.13409 0.0
C875 C 0.71406 0.17482 0.15919 0.0
C876 C 0.68329 0.16677 0.16686 0.0
C877 C 0.66347 0.14706 0.15027 0.0
C878 C 0.75673 0.17254 0.12508 0.0
C879 C 0.67167 0.17758 0.1935 0.0
H880 H 0.77777 0.1814 0.23605 0.0
H881 H 0.76724 0.26038 0.19841 0.0
H882 H 0.71822 0.1365 0.20547 0.0
H883 H 0.7477 0.13551 0.1809 0.0
H884 H 0.75566 0.13656 0.21791 0.0
H885 H 0.73869 0.26163 0.15753 0.0
H886 H 0.7336 0.23053 0.13517 0.0
H887 H 0.70466 0.23417 0.15939 0.0
H888 H 0.71175 0.13567 0.09915 0.0
H889 H 0.64025 0.13982 0.1569 0.0
H890 H 0.7708 0.16278 0.13955 0.0
H891 H 0.76493 0.19611 0.12616 0.0
H892 H 0.76016 0.16529 0.10345 0.0
H893 H 0.68128 0.16842 0.21185 0.0
H894 H 0.6467 0.17164 0.19499 0.0
H895 H 0.67891 0.20123 0.19486 0.0
C896 C 0.44397 0.62899 0.35278 0.0
C897 C 0.41356 0.62198 0.34459 0.0
C898 C 0.45425 0.61642 0.37658 0.0
C899 C 0.43378 0.59607 0.39268 0.0
C900 C 0.40307 0.58897 0.38466 0.0
C901 C 0.39336 0.60204 0.36092 0.0
C902 C 0.48715 0.62476 0.38435 0.0
C903 C 0.38044 0.56737 0.40109 0.0
C904 C 0.46607 0.54355 0.4377 0.0
C905 C 0.46628 0.55553 0.46459 0.0
C906 C 0.45528 0.5563 0.4143 0.0
C907 C 0.44459 0.58188 0.41762 0.0
C908 C 0.44451 0.59397 0.44472 0.0
C909 C 0.4552 0.58064 0.46782 0.0
C910 C 0.45554 0.54245 0.38592 0.0
C911 C 0.43353 0.62128 0.4493 0.0
H912 H 0.45999 0.64398 0.34029 0.0
H913 H 0.36973 0.59674 0.3553 0.0
H914 H 0.48954 0.6328 0.40621 0.0
H915 H 0.49741 0.6057 0.38339 0.0
H916 H 0.50003 0.64156 0.37029 0.0
H917 H 0.35738 0.56414 0.39218 0.0
H918 H 0.38733 0.54646 0.4014 0.0
H919 H 0.37975 0.5745 0.42314 0.0
H920 H 0.47448 0.52417 0.43484 0.0
H921 H 0.45532 0.59024 0.48838 0.0
H922 H 0.4701 0.55742 0.37132 0.0
H923 H 0.43248 0.53768 0.37697 0.0
H924 H 0.46387 0.52224 0.38689 0.0
H925 H 0.44743 0.63889 0.43683 0.0
H926 H 0.43452 0.62777 0.47167 0.0
H927 H 0.40996 0.61857 0.44192 0.0
C928 C 0.12532 0.44077 0.86245 0.0
C929 C 0.1051 0.42088 0.84619 0.0
C930 C 0.11558 0.45391 0.88614 0.0
C931 C 0.08484 0.44694 0.89416 0.0
C932 C 0.06436 0.42662 0.87813 0.0
C933 C 0.07466 0.41398 0.8544 0.0
C934 C 0.13823 0.47547 0.90248 0.0
C935 C 0.03142 0.41842 0.8859 0.0
C936 C 0.06293 0.46286 0.96905 0.0
C937 C 0.05195 0.48799 0.9655 0.0
C938 C 0.07378 0.44938 0.94615 0.0
C939 C 0.07396 0.46133 0.91892 0.0
C940 C 0.0634 0.48694 0.9153 0.0
C941 C 0.05246 0.49984 0.9385 0.0
C942 C 0.08461 0.42204 0.95103 0.0
C943 C 0.06342 0.50066 0.88679 0.0
H944 H 0.14896 0.446 0.85681 0.0
H945 H 0.05863 0.39903 0.84195 0.0
H946 H 0.1315 0.49646 0.90256 0.0
H947 H 0.1387 0.46846 0.9246 0.0
H948 H 0.16133 0.47851 0.89367 0.0
H949 H 0.01856 0.40155 0.87197 0.0
H950 H 0.02891 0.41054 0.90783 0.0
H951 H 0.02124 0.43751 0.88469 0.0
H952 H 0.06258 0.45337 0.98971 0.0
H953 H 0.04414 0.51925 0.9354 0.0
H954 H 0.10821 0.4246 0.94368 0.0
H955 H 0.0707 0.40438 0.93871 0.0
H956 H 0.0835 0.4157 0.97347 0.0
H957 H 0.08653 0.50525 0.87789 0.0
H958 H 0.05522 0.52094 0.88752 0.0
H959 H 0.04887 0.48566 0.87226 0.0
C960 C 0.59703 0.87592 0.89833 0.0
C961 C 0.59542 0.84876 0.91023 0.0
C962 C 0.58572 0.89707 0.91249 0.0
C963 C 0.57261 0.89101 0.93931 0.0
C964 C 0.57065 0.86359 0.95139 0.0
C965 C 0.58208 0.84277 0.93669 0.0
C966 C 0.58827 0.92607 0.89893 0.0
C967 C 0.5568 0.85636 0.97996 0.0
C968 C 0.57129 0.95472 0.98636 0.0
C969 C 0.54144 0.95781 0.98342 0.0
C970 C 0.58158 0.9328 0.97245 0.0
C971 C 0.56164 0.91368 0.95494 0.0
C972 C 0.5315 0.91669 0.95183 0.0
C973 C 0.52171 0.93863 0.96623 0.0
C974 C 0.61382 0.9301 0.97648 0.0
C975 C 0.50968 0.89689 0.93311 0.0
H976 H 0.60778 0.88091 0.87812 0.0
H977 H 0.5805 0.82175 0.94588 0.0
H978 H 0.56572 0.9314 0.89756 0.0
H979 H 0.60261 0.94281 0.91195 0.0
H980 H 0.59811 0.927 0.87755 0.0
H981 H 0.55652 0.8339 0.9862 0.0
H982 H 0.56961 0.87095 0.99588 0.0
H983 H 0.53335 0.85961 0.98021 0.0
H984 H 0.58662 0.96928 0.99979 0.0
H985 H 0.49862 0.94089 0.9638 0.0
H986 H 0.62584 0.93274 0.95608 0.0
H987 H 0.61442 0.90842 0.98446 0.0
H988 H 0.62624 0.94626 0.99135 0.0
H989 H 0.51826 0.89854 0.91127 0.0
H990 H 0.48689 0.90186 0.93325 0.0
H991 H 0.50767 0.87434 0.93989 0.0
C992 C 0.94349 0.17229 0.39964 0.0
C993 C 0.93138 0.19194 0.41548 0.0
C994 C 0.95641 0.15147 0.41261 0.0
C995 C 0.95832 0.15084 0.44215 0.0
C996 C 0.94834 0.17193 0.4582 0.0
C997 C 0.93462 0.19196 0.44474 0.0
C998 C 0.96635 0.12911 0.39473 0.0
C999 C 0.95078 0.17247 0.48974 0.0
C1000 C 0.95403 0.07994 0.47933 0.0
C1001 C 0.98435 0.08074 0.48523 0.0
C1002 C 0.94546 0.10225 0.46455 0.0
C1003 C 0.9677 0.12642 0.45635 0.0
C1004 C 0.99846 0.12727 0.46216 0.0
C1005 C 0.00648 0.10412 0.47621 0.0
C1006 C 0.91252 0.10008 0.45804 0.0
C1007 C 0.02269 0.15303 0.45452 0.0
H1008 H 0.9421 0.17258 0.377 0.0
H1009 H 0.92532 0.20682 0.45733 0.0
H1010 H 0.98964 0.12748 0.40016 0.0
H1011 H 0.95149 0.10786 0.39887 0.0
H1012 H 0.96547 0.13384 0.37199 0.0
H1013 H 0.94611 0.1925 0.49877 0.0
H1014 H 0.9344 0.15403 0.4987 0.0
H1015 H 0.97361 0.17037 0.49635 0.0
H1016 H 0.93697 0.06177 0.48632 0.0
H1017 H 0.02991 0.10485 0.48121 0.0
H1018 H 0.9095 0.10328 0.43528 0.0
H1019 H 0.90418 0.11718 0.46924 0.0
H1020 H 0.89838 0.07903 0.46425 0.0
H1021 H 0.02159 0.15797 0.4319 0.0
H1022 H 0.04563 0.1498 0.4594 0.0
H1023 H 0.01896 0.17202 0.46622 0.0
C1024 C 0.23257 0.60104 0.11901 0.0
C1025 C 0.2301 0.61171 0.14609 0.0
C1026 C 0.20681 0.5891 0.10325 0.0
C1027 C 0.17781 0.58828 0.11461 0.0
C1028 C 0.17521 0.59894 0.142 0.0
C1029 C 0.20136 0.61027 0.15749 0.0
C1030 C 0.21062 0.5774 0.07443 0.0
C1031 C 0.14478 0.59885 0.15477 0.0
C1032 C 0.11117 0.58305 0.06483 0.0
C1033 C 0.09618 0.55438 0.06823 0.0
C1034 C 0.13784 0.59433 0.07967 0.0
C1035 C 0.15018 0.57637 0.09787 0.0
C1036 C 0.13567 0.54715 0.10058 0.0
C1037 C 0.10873 0.53663 0.08601 0.0
C1038 C 0.15234 0.62568 0.07646 0.0
C1039 C 0.14835 0.52705 0.11919 0.0
H1040 H 0.25475 0.60192 0.1102 0.0
H1041 H 0.19935 0.61877 0.17828 0.0
H1042 H 0.19851 0.55466 0.07317 0.0
H1043 H 0.20056 0.58943 0.0585 0.0
H1044 H 0.23467 0.57879 0.06898 0.0
H1045 H 0.14658 0.60815 0.17617 0.0
H1046 H 0.13229 0.6113 0.14133 0.0
H1047 H 0.13121 0.57662 0.15588 0.0
H1048 H 0.10152 0.59694 0.05131 0.0
H1049 H 0.09741 0.51439 0.08862 0.0
H1050 H 0.17604 0.62818 0.06945 0.0
H1051 H 0.15277 0.63657 0.09703 0.0
H1052 H 0.14024 0.63669 0.0612 0.0
H1053 H 0.17222 0.52777 0.11364 0.0
H1054 H 0.1355 0.50455 0.11754 0.0
H1055 H 0.14791 0.53395 0.14134 0.0
C1056 C 0.31541 0.43288 0.65652 0.0
C1057 C 0.28663 0.43066 0.64501 0.0
C1058 C 0.34153 0.44417 0.64085 0.0
C1059 C 0.33885 0.45397 0.61311 0.0
C1060 C 0.30981 0.45229 0.60159 0.0
C1061 C 0.2841 0.44044 0.61757 0.0
C1062 C 0.37201 0.44523 0.65385 0.0
C1063 C 0.30588 0.46302 0.57237 0.0
C1064 C 0.40719 0.50631 0.5837 0.0
C1065 C 0.42056 0.48853 0.56669 0.0
C1066 C 0.38023 0.49554 0.59825 0.0
C1067 C 0.36646 0.46608 0.59627 0.0
C1068 C 0.37957 0.44809 0.57875 0.0
C1069 C 0.40629 0.45958 0.56396 0.0
C1070 C 0.36674 0.51565 0.61614 0.0
C1071 C 0.36585 0.4165 0.5763 0.0
H1072 H 0.31752 0.42505 0.67759 0.0
H1073 H 0.2619 0.439 0.60864 0.0
H1074 H 0.38496 0.43282 0.64085 0.0
H1075 H 0.38509 0.46766 0.65446 0.0
H1076 H 0.37028 0.43643 0.67548 0.0
H1077 H 0.28179 0.4608 0.5667 0.0
H1078 H 0.31734 0.48592 0.57055 0.0
H1079 H 0.31656 0.45097 0.55693 0.0
H1080 H 0.41793 0.52877 0.58577 0.0
H1081 H 0.41657 0.44566 0.55104 0.0
H1082 H 0.36706 0.50929 0.63847 0.0
H1083 H 0.34285 0.51428 0.61028 0.0
H1084 H 0.37912 0.53828 0.61404 0.0
H1085 H 0.36567 0.40615 0.59714 0.0
H1086 H 0.37838 0.40552 0.56138 0.0
H1087 H 0.34212 0.41326 0.56925 0.0
C1088 C 0.77768 0.67522 0.92556 0.0
C1089 C 0.78389 0.6971 0.90547 0.0
C1090 C 0.80111 0.66447 0.93784 0.0
C1091 C 0.83134 0.6762 0.93004 0.0
C1092 C 0.83769 0.69897 0.91046 0.0
C1093 C 0.81388 0.70904 0.89834 0.0
C1094 C 0.7935 0.64002 0.95847 0.0
C1095 C 0.86962 0.7123 0.90183 0.0
C1096 C 0.89727 0.66506 0.97437 0.0
C1097 C 0.90771 0.64436 0.95871 0.0
C1098 C 0.87185 0.67512 0.96575 0.0
C1099 C 0.8564 0.6639 0.94112 0.0
C1100 C 0.86626 0.64223 0.92583 0.0
C1101 C 0.89191 0.63285 0.93473 0.0
C1102 C 0.86218 0.69842 0.98243 0.0
C1103 C 0.85018 0.62946 0.89966 0.0
H1104 H 0.75447 0.66593 0.931 0.0
H1105 H 0.81871 0.72628 0.88311 0.0
H1106 H 0.80027 0.62083 0.94972 0.0
H1107 H 0.80628 0.6456 0.9782 0.0
H1108 H 0.76906 0.63436 0.96348 0.0
H1109 H 0.87078 0.73088 0.88755 0.0
H1110 H 0.88354 0.71954 0.9206 0.0
H1111 H 0.87979 0.69611 0.89105 0.0
H1112 H 0.90954 0.674 0.99289 0.0
H1113 H 0.89969 0.61648 0.92289 0.0
H1114 H 0.83791 0.692 0.98783 0.0
H1115 H 0.86518 0.7182 0.96958 0.0
H1116 H 0.87532 0.70348 1.00206 0.0
H1117 H 0.82579 0.62171 0.90396 0.0
H1118 H 0.85936 0.61134 0.8914 0.0
H1119 H 0.85234 0.64614 0.88315 0.0
C1120 C 0.44758 0.82145 0.1402 0.0
C1121 C 0.42671 0.82109 0.16194 0.0
C1122 C 0.45806 0.84636 0.12416 0.0
C1123 C 0.44798 0.87178 0.13039 0.0
C1124 C 0.42753 0.8717 0.15286 0.0
C1125 C 0.41688 0.8463 0.1681 0.0
C1126 C 0.47935 0.84528 0.10009 0.0
C1127 C 0.41675 0.89841 0.16071 0.0
C1128 C 0.49579 0.94246 0.10382 0.0
C1129 C 0.47912 0.9485 0.08069 0.0
C1130 C 0.4857 0.91789 0.12039 0.0
C1131 C 0.45863 0.89836 0.1133 0.0
C1132 C 0.4418 0.90427 0.08985 0.0
C1133 C 0.45203 0.92942 0.07407 0.0
C1134 C 0.50398 0.91288 0.14557 0.0
C1135 C 0.41317 0.88379 0.08116 0.0
H1136 H 0.45493 0.80191 0.13515 0.0
H1137 H 0.40082 0.84612 0.18495 0.0
H1138 H 0.46911 0.85064 0.08024 0.0
H1139 H 0.50056 0.86148 0.1031 0.0
H1140 H 0.48495 0.82387 0.09786 0.0
H1141 H 0.40197 0.89518 0.17952 0.0
H1142 H 0.43632 0.91622 0.16491 0.0
H1143 H 0.40406 0.90518 0.14303 0.0
H1144 H 0.51664 0.95719 0.10922 0.0
H1145 H 0.43916 0.93378 0.05609 0.0
H1146 H 0.5118 0.89257 0.14303 0.0
H1147 H 0.48975 0.91067 0.16469 0.0
H1148 H 0.52395 0.93056 0.14883 0.0
H1149 H 0.41789 0.86233 0.07696 0.0
H1150 H 0.40301 0.89117 0.06211 0.0
H1151 H 0.39642 0.88123 0.0984 0.0
C1152 C 0.10339 0.19757 0.66725 0.0
C1153 C 0.0878 0.21996 0.66765 0.0
C1154 C 0.09203 0.17192 0.65277 0.0
C1155 C 0.06447 0.16853 0.63801 0.0
C1156 C 0.04818 0.19074 0.63896 0.0
C1157 C 0.05995 0.21609 0.6539 0.0
C1158 C 0.10996 0.14873 0.65269 0.0
C1159 C 0.01888 0.18816 0.62334 0.0
C1160 C 0.05424 0.11681 0.57622 0.0
C1161 C 0.03515 0.09228 0.5874 0.0
C1162 C 0.06342 0.14182 0.59227 0.0
C1163 C 0.05361 0.1424 0.62042 0.0
C1164 C 0.03422 0.11778 0.63182 0.0
C1165 C 0.02509 0.09312 0.61516 0.0
C1166 C 0.08384 0.1676 0.57912 0.0
C1167 C 0.02347 0.11736 0.66177 0.0
H1168 H 0.12476 0.20026 0.67809 0.0
H1169 H 0.0479 0.23336 0.65389 0.0
H1170 H 0.09556 0.12804 0.65945 0.0
H1171 H 0.11782 0.14571 0.63111 0.0
H1172 H 0.12991 0.15386 0.66667 0.0
H1173 H 0.0081 0.20654 0.62743 0.0
H1174 H 0.023 0.18704 0.6005 0.0
H1175 H 1.0029 0.16808 0.62935 0.0
H1176 H 0.06199 0.11657 0.55476 0.0
H1177 H 0.01038 0.07433 0.62406 0.0
H1178 H 0.10556 0.17279 0.59057 0.0
H1179 H 0.07345 0.18654 0.58071 0.0
H1180 H 0.08858 0.16409 0.55671 0.0
H1181 H 0.04307 0.12084 0.67616 0.0
H1182 H 0.00801 0.09679 0.66738 0.0
H1183 H 0.01162 0.13508 0.66532 0.0
C1184 C 0.71659 0.34694 0.40671 0.0
C1185 C 0.74487 0.35263 0.41975 0.0
C1186 C 0.69236 0.35696 0.41803 0.0
C1187 C 0.69648 0.37329 0.44298 0.0
C1188 C 0.72486 0.37877 0.45656 0.0
C1189 C 0.74874 0.36817 0.44485 0.0
C1190 C 0.66239 0.35032 0.40306 0.0
C1191 C 0.73011 0.39628 0.48306 0.0
C1192 C 0.63982 0.42053 0.45079 0.0
C1193 C 0.61814 0.40381 0.46826 0.0
C1194 C 0.66634 0.41162 0.4437 0.0
C1195 C 0.67109 0.38517 0.45408 0.0
C1196 C 0.64982 0.36876 0.47266 0.0
C1197 C 0.62362 0.37838 0.47967 0.0
C1198 C 0.68862 0.42994 0.42413 0.0
C1199 C 0.65395 0.34035 0.48399 0.0
H1200 H 0.71339 0.33446 0.38758 0.0
H1201 H 0.77061 0.37258 0.45493 0.0
H1202 H 0.64442 0.33942 0.41754 0.0
H1203 H 0.65632 0.37052 0.39612 0.0
H1204 H 0.66266 0.33645 0.38444 0.0
H1205 H 0.75311 0.39773 0.4916 0.0
H1206 H 0.7269 0.41827 0.47885 0.0
H1207 H 0.7134 0.38679 0.49927 0.0
H1208 H 0.63583 0.44047 0.44236 0.0
H1209 H 0.60684 0.36543 0.49317 0.0
H1210 H 0.68847 0.41895 0.40366 0.0
H1211 H 0.71178 0.43306 0.43269 0.0
H1212 H 0.6833 0.45129 0.42049 0.0
H1213 H 0.65181 0.32461 0.46665 0.0
H1214 H 0.63703 0.33166 0.50034 0.0
H1215 H 0.67682 0.34251 0.49299 0.0
loop_
_geom_bond_atom_site_label_1
_geom_bond_atom_site_label_2
_geom_bond_distance
_geom_bond_site_symmetry_2
_ccdc_geom_bond_type
C0 C1 1.384 . S
C0 H13 0.947 . S
C0 C35 1.382 . S
C1 C0 1.384 . S
C1 C2 1.378 . S
C2 C1 1.378 . S
C2 C3 1.378 . S
C2 H14 0.952 . S
C3 C2 1.378 . S
C3 H15 0.950 . S
C3 C34 1.383 . S
H4 C23 0.947 . S
H5 C24 0.946 . S
H6 C26 0.953 . S
H7 C27 0.945 . S
H8 C29 0.952 . S
H9 C30 0.949 . S
H10 C32 0.950 . S
H11 C33 0.948 . S
H12 C35 0.951 . S
H13 C0 0.947 . S
H14 C2 0.952 . S
H15 C3 0.950 . S
N16 C19 1.382 . S
N16 C21 1.363 . S
N17 C19 1.371 . S
N17 C20 1.372 . S
N18 C20 1.361 . S
N18 C21 1.377 . S
C19 N16 1.382 . S
C19 N17 1.371 . S
C19 C22 1.480 . S
C20 N17 1.372 . S
C20 N18 1.361 . S
C20 C28 1.457 . S
C21 N16 1.363 . S
C21 N18 1.377 . S
C21 C34 1.479 . S
C22 C19 1.480 . S
C22 C23 1.383 . S
C22 C27 1.385 . S
C23 H4 0.947 . S
C23 C22 1.383 . S
C23 C24 1.388 . S
C24 H5 0.946 . S
C24 C23 1.388 . S
C24 C25 1.384 . S
C25 C24 1.384 . S
C25 C26 1.377 . S
C26 H6 0.953 . S
C26 C25 1.377 . S
C26 C27 1.369 . S
C27 H7 0.945 . S
C27 C22 1.385 . S
C27 C26 1.369 . S
C28 C20 1.457 . S
C28 C29 1.372 . S
C28 C33 1.364 . S
C29 H8 0.952 . S
C29 C28 1.372 . S
C29 C30 1.389 . S
C30 H9 0.949 . S
C30 C29 1.389 . S
C30 C31 1.387 . S
C31 C30 1.387 . S
C31 C32 1.372 . S
C32 H10 0.950 . S
C32 C31 1.372 . S
C32 C33 1.379 . S
C33 H11 0.948 . S
C33 C28 1.364 . S
C33 C32 1.379 . S
C34 C3 1.383 . S
C34 C21 1.479 . S
C34 C35 1.398 . S
C35 C0 1.382 . S
C35 H12 0.951 . S
C35 C34 1.398 . S
C36 C37 1.384 . S
C36 H49 0.947 . S
C36 C71 1.382 . S
C37 C36 1.384 . S
C37 C38 1.378 . S
C38 C37 1.378 . S
C38 C39 1.378 . S
C38 H50 0.952 . S
C39 C38 1.378 . S
C39 H51 0.950 . S
C39 C70 1.383 . S
H40 C59 0.947 . S
H41 C60 0.946 . S
H42 C62 0.953 . S
H43 C63 0.945 . S
H44 C65 0.952 . S
H45 C66 0.949 . S
H46 C68 0.950 . S
H47 C69 0.948 . S
H48 C71 0.951 . S
H49 C36 0.947 . S
H50 C38 0.952 . S
H51 C39 0.950 . S
N52 C55 1.382 . S
N52 C57 1.363 . S
N53 C55 1.371 . S
N53 C56 1.372 . S
N54 C56 1.361 . S
N54 C57 1.377 . S
C55 N52 1.382 . S
C55 N53 1.371 . S
C55 C58 1.480 . S
C56 N53 1.372 . S
C56 N54 1.361 . S
C56 C64 1.457 . S
C57 N52 1.363 . S
C57 N54 1.377 . S
C57 C70 1.479 . S
C58 C55 1.480 . S
C58 C59 1.383 . S
C58 C63 1.385 . S
C59 H40 0.947 . S
C59 C58 1.383 . S
C59 C60 1.388 . S
C60 H41 0.946 . S
C60 C59 1.388 . S
C60 C61 1.384 . S
C61 C60 1.384 . S
C61 C62 1.377 . S
C62 H42 0.953 . S
C62 C61 1.377 . S
C62 C63 1.369 . S
C63 H43 0.945 . S
C63 C58 1.385 . S
C63 C62 1.369 . S
C64 C56 1.457 . S
C64 C65 1.372 . S
C64 C69 1.364 . S
C65 H44 0.952 . S
C65 C64 1.372 . S
C65 C66 1.389 . S
C66 H45 0.949 . S
C66 C65 1.389 . S
C66 C67 1.387 . S
C67 C66 1.387 . S
C67 C68 1.372 . S
C68 H46 0.950 . S
C68 C67 1.372 . S
C68 C69 1.379 . S
C69 H47 0.948 . S
C69 C64 1.364 . S
C69 C68 1.379 . S
C70 C39 1.383 . S
C70 C57 1.479 . S
C70 C71 1.398 . S
C71 C36 1.382 . S
C71 H48 0.951 . S
C71 C70 1.398 . S
C72 C73 1.384 . S
C72 H85 0.947 . S
C72 C107 1.382 . S
C73 C72 1.384 . S
C73 C74 1.378 . S
C74 C73 1.378 . S
C74 C75 1.378 . S
C74 H86 0.952 . S
C75 C74 1.378 . S
C75 H87 0.950 . S
C75 C106 1.383 . S
H76 C95 0.947 . S
H77 C96 0.946 . S
H78 C98 0.953 . S
H79 C99 0.945 . S
H80 C101 0.952 . S
H81 C102 0.949 . S
H82 C104 0.950 . S
H83 C105 0.948 . S
H84 C107 0.951 . S
H85 C72 0.947 . S
H86 C74 0.952 . S
H87 C75 0.950 . S
N88 C91 1.382 . S
N88 C93 1.363 . S
N89 C91 1.371 . S
N89 C92 1.372 . S
N90 C92 1.361 . S
N90 C93 1.377 . S
C91 N88 1.382 . S
C91 N89 1.371 . S
C91 C94 1.480 . S
C92 N89 1.372 . S
C92 N90 1.361 . S
C92 C100 1.457 . S
C93 N88 1.363 . S
C93 N90 1.377 . S
C93 C106 1.479 . S
C94 C91 1.480 . S
C94 C95 1.383 . S
C94 C99 1.385 . S
C95 H76 0.947 . S
C95 C94 1.383 . S
C95 C96 1.388 . S
C96 H77 0.946 . S
C96 C95 1.388 . S
C96 C97 1.384 . S
C97 C96 1.384 . S
C97 C98 1.377 . S
C98 H78 0.953 . S
C98 C97 1.377 . S
C98 C99 1.369 . S
C99 H79 0.945 . S
C99 C94 1.385 . S
C99 C98 1.369 . S
C100 C92 1.457 . S
C100 C101 1.372 . S
C100 C105 1.364 . S
C101 H80 0.952 . S
C101 C100 1.372 . S
C101 C102 1.389 . S
C102 H81 0.949 . S
C102 C101 1.389 . S
C102 C103 1.387 . S
C103 C102 1.387 . S
C103 C104 1.372 . S
C104 H82 0.950 . S
C104 C103 1.372 . S
C104 C105 1.379 . S
C105 H83 0.948 . S
C105 C100 1.364 . S
C105 C104 1.379 . S
C106 C75 1.383 . S
C106 C93 1.479 . S
C106 C107 1.398 . S
C107 C72 1.382 . S
C107 H84 0.951 . S
C107 C106 1.398 . S
C108 C109 1.384 . S
C108 H121 0.947 . S
C108 C143 1.382 . S
C109 C108 1.384 . S
C109 C110 1.378 . S
C110 C109 1.378 . S
C110 C111 1.378 . S
C110 H122 0.952 . S
C111 C110 1.378 . S
C111 H123 0.950 . S
C111 C142 1.383 . S
H112 C131 0.947 . S
H113 C132 0.946 . S
H114 C134 0.953 . S
H115 C135 0.945 . S
H116 C137 0.952 . S
H117 C138 0.949 . S
H118 C140 0.950 . S
H119 C141 0.948 . S
H120 C143 0.951 . S
H121 C108 0.947 . S
H122 C110 0.952 . S
H123 C111 0.950 . S
N124 C127 1.382 . S
N124 C129 1.363 . S
N125 C127 1.371 . S
N125 C128 1.372 . S
N126 C128 1.361 . S
N126 C129 1.377 . S
C127 N124 1.382 . S
C127 N125 1.371 . S
C127 C130 1.480 . S
C128 N125 1.372 . S
C128 N126 1.361 . S
C128 C136 1.457 . S
C129 N124 1.363 . S
C129 N126 1.377 . S
C129 C142 1.479 . S
C130 C127 1.480 . S
C130 C131 1.383 . S
C130 C135 1.385 . S
C131 H112 0.947 . S
C131 C130 1.383 . S
C131 C132 1.388 . S
C132 H113 0.946 . S
C132 C131 1.388 . S
C132 C133 1.384 . S
C133 C132 1.384 . S
C133 C134 1.377 . S
C134 H114 0.953 . S
C134 C133 1.377 . S
C134 C135 1.369 . S
C135 H115 0.945 . S
C135 C130 1.385 . S
C135 C134 1.369 . S
C136 C128 1.457 . S
C136 C137 1.372 . S
C136 C141 1.364 . S
C137 H116 0.952 . S
C137 C136 1.372 . S
C137 C138 1.389 . S
C138 H117 0.949 . S
C138 C137 1.389 . S
C138 C139 1.387 . S
C139 C138 1.387 . S
C139 C140 1.372 . S
C140 H118 0.950 . S
C140 C139 1.372 . S
C140 C141 1.379 . S
C141 H119 0.948 . S
C141 C136 1.364 . S
C141 C140 1.379 . S
C142 C111 1.383 . S
C142 C129 1.479 . S
C142 C143 1.398 . S
C143 C108 1.382 . S
C143 H120 0.951 . S
C143 C142 1.398 . S
C144 C145 1.384 . S
C144 H157 0.947 . S
C144 C179 1.382 . S
C145 C144 1.384 . S
C145 C146 1.378 . S
C146 C145 1.378 . S
C146 C147 1.378 . S
C146 H158 0.952 . S
C147 C146 1.378 . S
C147 H159 0.950 . S
C147 C178 1.383 . S
H148 C167 0.947 . S
H149 C168 0.946 . S
H150 C170 0.953 . S
H151 C171 0.945 . S
H152 C173 0.952 . S
H153 C174 0.949 . S
H154 C176 0.950 . S
H155 C177 0.948 . S
H156 C179 0.951 . S
H157 C144 0.947 . S
H158 C146 0.952 . S
H159 C147 0.950 . S
N160 C163 1.382 . S
N160 C165 1.363 . S
N161 C163 1.371 . S
N161 C164 1.372 . S
N162 C164 1.361 . S
N162 C165 1.377 . S
C163 N160 1.382 . S
C163 N161 1.371 . S
C163 C166 1.480 . S
C164 N161 1.372 . S
C164 N162 1.361 . S
C164 C172 1.457 . S
C165 N160 1.363 . S
C165 N162 1.377 . S
C165 C178 1.479 . S
C166 C163 1.480 . S
C166 C167 1.383 . S
C166 C171 1.385 . S
C167 H148 0.947 . S
C167 C166 1.383 . S
C167 C168 1.388 . S
C168 H149 0.946 . S
C168 C167 1.388 . S
C168 C169 1.384 . S
C169 C168 1.384 . S
C169 C170 1.377 . S
C170 H150 0.953 . S
C170 C169 1.377 . S
C170 C171 1.369 . S
C171 H151 0.945 . S
C171 C166 1.385 . S
C171 C170 1.369 . S
C172 C164 1.457 . S
C172 C173 1.372 . S
C172 C177 1.364 . S
C173 H152 0.952 . S
C173 C172 1.372 . S
C173 C174 1.389 . S
C174 H153 0.949 . S
C174 C173 1.389 . S
C174 C175 1.387 . S
C175 C174 1.387 . S
C175 C176 1.372 . S
C176 H154 0.950 . S
C176 C175 1.372 . S
C176 C177 1.379 . S
C177 H155 0.948 . S
C177 C172 1.364 . S
C177 C176 1.379 . S
C178 C147 1.383 . S
C178 C165 1.479 . S
C178 C179 1.398 . S
C179 C144 1.382 . S
C179 H156 0.951 . S
C179 C178 1.398 . S
C180 C181 1.384 . S
C180 H193 0.947 . S
C180 C215 1.382 . S
C181 C180 1.384 . S
C181 C182 1.378 . S
C182 C181 1.378 . S
C182 C183 1.378 . S
C182 H194 0.952 . S
C183 C182 1.378 . S
C183 H195 0.950 . S
C183 C214 1.383 . S
H184 C203 0.947 . S
H185 C204 0.946 . S
H186 C206 0.953 . S
H187 C207 0.945 . S
H188 C209 0.952 . S
H189 C210 0.949 . S
H190 C212 0.950 . S
H191 C213 0.948 . S
H192 C215 0.951 . S
H193 C180 0.947 . S
H194 C182 0.952 . S
H195 C183 0.950 . S
N196 C199 1.382 . S
N196 C201 1.363 . S
N197 C199 1.371 . S
N197 C200 1.372 . S
N198 C200 1.361 . S
N198 C201 1.377 . S
C199 N196 1.382 . S
C199 N197 1.371 . S
C199 C202 1.480 . S
C200 N197 1.372 . S
C200 N198 1.361 . S
C200 C208 1.457 . S
C201 N196 1.363 . S
C201 N198 1.377 . S
C201 C214 1.479 . S
C202 C199 1.480 . S
C202 C203 1.383 . S
C202 C207 1.385 . S
C203 H184 0.947 . S
C203 C202 1.383 . S
C203 C204 1.388 . S
C204 H185 0.946 . S
C204 C203 1.388 . S
C204 C205 1.384 . S
C205 C204 1.384 . S
C205 C206 1.377 . S
C206 H186 0.953 . S
C206 C205 1.377 . S
C206 C207 1.369 . S
C207 H187 0.945 . S
C207 C202 1.385 . S
C207 C206 1.369 . S
C208 C200 1.457 . S
C208 C209 1.372 . S
C208 C213 1.364 . S
C209 H188 0.952 . S
C209 C208 1.372 . S
C209 C210 1.389 . S
C210 H189 0.949 . S
C210 C209 1.389 . S
C210 C211 1.387 . S
C211 C210 1.387 . S
C211 C212 1.372 . S
C212 H190 0.950 . S
C212 C211 1.372 . S
C212 C213 1.379 . S
C213 H191 0.948 . S
C213 C208 1.364 . S
C213 C212 1.379 . S
C214 C183 1.383 . S
C214 C201 1.479 . S
C214 C215 1.398 . S
C215 C180 1.382 . S
C215 H192 0.951 . S
C215 C214 1.398 . S
C216 C217 1.384 . S
C216 H229 0.947 . S
C216 C251 1.382 . S
C217 C216 1.384 . S
C217 C218 1.378 . S
C218 C217 1.378 . S
C218 C219 1.378 . S
C218 H230 0.952 . S
C219 C218 1.378 . S
C219 H231 0.950 . S
C219 C250 1.383 . S
H220 C239 0.947 . S
H221 C240 0.946 . S
H222 C242 0.953 . S
H223 C243 0.945 . S
H224 C245 0.952 . S
H225 C246 0.949 . S
H226 C248 0.950 . S
H227 C249 0.948 . S
H228 C251 0.951 . S
H229 C216 0.947 . S
H230 C218 0.952 . S
H231 C219 0.950 . S
N232 C235 1.382 . S
N232 C237 1.363 . S
N233 C235 1.371 . S
N233 C236 1.372 . S
N234 C236 1.361 . S
N234 C237 1.377 . S
C235 N232 1.382 . S
C235 N233 1.371 . S
C235 C238 1.480 . S
C236 N233 1.372 . S
C236 N234 1.361 . S
C236 C244 1.457 . S
C237 N232 1.363 . S
C237 N234 1.377 . S
C237 C250 1.479 . S
C238 C235 1.480 . S
C238 C239 1.383 . S
C238 C243 1.385 . S
C239 H220 0.947 . S
C239 C238 1.383 . S
C239 C240 1.388 . S
C240 H221 0.946 . S
C240 C239 1.388 . S
C240 C241 1.384 . S
C241 C240 1.384 . S
C241 C242 1.377 . S
C242 H222 0.953 . S
C242 C241 1.377 . S
C242 C243 1.369 . S
C243 H223 0.945 . S
C243 C238 1.385 . S
C243 C242 1.369 . S
C244 C236 1.457 . S
C244 C245 1.372 . S
C244 C249 1.364 . S
C245 H224 0.952 . S
C245 C244 1.372 . S
C245 C246 1.389 . S
C246 H225 0.949 . S
C246 C245 1.389 . S
C246 C247 1.387 . S
C247 C246 1.387 . S
C247 C248 1.372 . S
C248 H226 0.950 . S
C248 C247 1.372 . S
C248 C249 1.379 . S
C249 H227 0.948 . S
C249 C244 1.364 . S
C249 C248 1.379 . S
C250 C219 1.383 . S
C250 C237 1.479 . S
C250 C251 1.398 . S
C251 C216 1.382 . S
C251 H228 0.951 . S
C251 C250 1.398 . S
C252 C253 1.384 . S
C252 H265 0.947 . S
C252 C287 1.382 . S
C253 C252 1.384 . S
C253 C254 1.378 . S
C254 C253 1.378 . S
C254 C255 1.378 . S
C254 H266 0.952 . S
C255 C254 1.378 . S
C255 H267 0.950 . S
C255 C286 1.383 . S
H256 C275 0.947 . S
H257 C276 0.946 . S
H258 C278 0.953 . S
H259 C279 0.945 . S
H260 C281 0.952 . S
H261 C282 0.949 . S
H262 C284 0.950 . S
H263 C285 0.948 . S
H264 C287 0.951 . S
H265 C252 0.947 . S
H266 C254 0.952 . S
H267 C255 0.950 . S
N268 C271 1.382 . S
N268 C273 1.363 . S
N269 C271 1.371 . S
N269 C272 1.372 . S
N270 C272 1.361 . S
N270 C273 1.377 . S
C271 N268 1.382 . S
C271 N269 1.371 . S
C271 C274 1.480 . S
C272 N269 1.372 . S
C272 N270 1.361 . S
C272 C280 1.457 . S
C273 N268 1.363 . S
C273 N270 1.377 . S
C273 C286 1.479 . S
C274 C271 1.480 . S
C274 C275 1.383 . S
C274 C279 1.385 . S
C275 H256 0.947 . S
C275 C274 1.383 . S
C275 C276 1.388 . S
C276 H257 0.946 . S
C276 C275 1.388 . S
C276 C277 1.384 . S
C277 C276 1.384 . S
C277 C278 1.377 . S
C278 H258 0.953 . S
C278 C277 1.377 . S
C278 C279 1.369 . S
C279 H259 0.945 . S
C279 C274 1.385 . S
C279 C278 1.369 . S
C280 C272 1.457 . S
C280 C281 1.372 . S
C280 C285 1.364 . S
C281 H260 0.952 . S
C281 C280 1.372 . S
C281 C282 1.389 . S
C282 H261 0.949 . S
C282 C281 1.389 . S
C282 C283 1.387 . S
C283 C282 1.387 . S
C283 C284 1.372 . S
C284 H262 0.950 . S
C284 C283 1.372 . S
C284 C285 1.379 . S
C285 H263 0.948 . S
C285 C280 1.364 . S
C285 C284 1.379 . S
C286 C255 1.383 . S
C286 C273 1.479 . S
C286 C287 1.398 . S
C287 C252 1.382 . S
C287 H264 0.951 . S
C287 C286 1.398 . S
Dy288 O291 2.307 1_545 S
Dy288 O293 2.395 . S
Dy288 O294 2.379 . S
Dy288 O296 2.339 1_545 S
Dy288 O298 2.298 1_455 S
Dy288 O302 2.275 . S
Dy288 C310 2.738 . S
Dy289 O292 2.318 1_655 S
Dy289 O295 2.296 . S
Dy289 O297 2.283 1_565 S
Dy289 O299 2.425 . S
Dy289 O300 2.384 . S
Dy289 O303 2.311 1_565 S
Dy289 C319 2.758 . S
C290 O302 1.254 . S
C290 O303 1.257 1_455 S
O291 Dy288 2.307 1_565 S
O291 C301 1.266 . S
O292 Dy289 2.318 1_455 S
O292 C301 1.236 . S
O293 Dy288 2.395 . S
O293 C310 1.255 . S
O294 Dy288 2.379 . S
O294 C310 1.249 . S
O295 Dy289 2.296 . S
O295 C311 1.254 . S
O296 Dy288 2.339 1_565 S
O296 C311 1.257 1_455 S
O297 Dy289 2.283 1_545 S
O297 C312 1.266 . S
O298 Dy288 2.298 1_655 S
O298 C312 1.236 . S
O299 Dy289 2.425 . S
O299 C319 1.255 . S
O300 Dy289 2.384 . S
O300 C319 1.249 . S
C301 O291 1.266 . S
C301 O292 1.236 . S
O302 Dy288 2.275 . S
O302 C290 1.254 . S
O303 Dy289 2.311 1_545 S
O303 C290 1.257 1_655 S
C304 C307 1.344 . S
C304 C308 1.328 . S
C304 C310 1.516 . S
C305 C306 1.304 . S
C305 C309 1.323 . S
C306 C305 1.304 . S
C306 C307 1.371 . S
C306 H320 0.930 . S
C307 C304 1.344 . S
C307 C306 1.371 . S
C307 H321 0.931 . S
C308 C304 1.328 . S
C308 C309 1.433 . S
C308 H322 0.931 . S
C309 C305 1.323 . S
C309 C308 1.433 . S
C309 H323 0.933 . S
C310 Dy288 2.738 . S
C310 O293 1.255 . S
C310 O294 1.249 . S
C310 C304 1.516 . S
C311 O295 1.254 . S
C311 O296 1.257 1_655 S
C312 O297 1.266 . S
C312 O298 1.236 . S
C313 C316 1.344 . S
C313 C317 1.328 . S
C313 C319 1.516 . S
C314 C315 1.304 . S
C314 C318 1.323 . S
C315 C314 1.304 . S
C315 C316 1.371 . S
C315 H324 0.930 . S
C316 C313 1.344 . S
C316 C315 1.371 . S
C316 H325 0.931 . S
C317 C313 1.328 . S
C317 C318 1.433 . S
C317 H326 0.931 . S
C318 C314 1.323 . S
C318 C317 1.433 . S
C318 H327 0.933 . S
C319 Dy289 2.758 . S
C319 O299 1.255 . S
C319 O300 1.249 . S
C319 C313 1.516 . S
H320 C306 0.930 . S
H321 C307 0.931 . S
H322 C308 0.931 . S
H323 C309 0.933 . S
H324 C315 0.930 . S
H325 C316 0.931 . S
H326 C317 0.931 . S
H327 C318 0.933 . S
Dy328 O331 2.279 1_566 S
Dy328 O333 2.430 . S
Dy328 O334 2.385 . S
Dy328 O336 2.307 1_565 S
Dy328 O338 2.322 . S
Dy328 O342 2.300 1_556 S
Dy328 C350 2.761 . S
Dy329 O332 2.298 . S
Dy329 O335 2.275 1_554 S
Dy329 O337 2.307 1_544 S
Dy329 O339 2.395 . S
Dy329 O340 2.379 . S
Dy329 O343 2.339 1_545 S
Dy329 C359 2.738 . S
C330 O342 1.254 . S
C330 O343 1.257 . S
O331 Dy328 2.279 1_544 S
O331 C341 1.266 . S
O332 Dy329 2.298 . S
O332 C341 1.236 . S
O333 Dy328 2.430 . S
O333 C350 1.255 . S
O334 Dy328 2.385 . S
O334 C350 1.249 . S
O335 Dy329 2.275 1_556 S
O335 C351 1.254 . S
O336 Dy328 2.307 1_545 S
O336 C351 1.257 . S
O337 Dy329 2.307 1_566 S
O337 C352 1.266 . S
O338 Dy328 2.322 . S
O338 C352 1.236 . S
O339 Dy329 2.395 . S
O339 C359 1.255 . S
O340 Dy329 2.379 . S
O340 C359 1.249 . S
C341 O331 1.266 . S
C341 O332 1.236 . S
O342 Dy328 2.300 1_554 S
O342 C330 1.254 . S
O343 Dy329 2.339 1_565 S
O343 C330 1.257 . S
C344 C347 1.344 . S
C344 C348 1.328 . S
C344 C350 1.516 . S
C345 C346 1.304 . S
C345 C349 1.323 . S
C346 C345 1.304 . S
C346 C347 1.371 . S
C346 H360 0.930 . S
C347 C344 1.344 . S
C347 C346 1.371 . S
C347 H361 0.931 . S
C348 C344 1.328 . S
C348 C349 1.433 . S
C348 H362 0.931 . S
C349 C345 1.323 . S
C349 C348 1.433 . S
C349 H363 0.933 . S
C350 Dy328 2.761 . S
C350 O333 1.255 . S
C350 O334 1.249 . S
C350 C344 1.516 . S
C351 O335 1.254 . S
C351 O336 1.257 . S
C352 O337 1.266 . S
C352 O338 1.236 . S
C353 C356 1.344 . S
C353 C357 1.328 . S
C353 C359 1.516 . S
C354 C355 1.304 . S
C354 C358 1.323 . S
C355 C354 1.304 . S
C355 C356 1.371 . S
C355 H364 0.930 . S
C356 C353 1.344 . S
C356 C355 1.371 . S
C356 H365 0.931 . S
C357 C353 1.328 . S
C357 C358 1.433 . S
C357 H366 0.931 . S
C358 C354 1.323 . S
C358 C357 1.433 . S
C358 H367 0.933 . S
C359 Dy329 2.738 . S
C359 O339 1.255 . S
C359 O340 1.249 . S
C359 C353 1.516 . S
H360 C346 0.930 . S
H361 C347 0.931 . S
H362 C348 0.931 . S
H363 C349 0.933 . S
H364 C355 0.930 . S
H365 C356 0.931 . S
H366 C357 0.931 . S
H367 C358 0.933 . S
Dy368 O371 2.307 . S
Dy368 O373 2.395 . S
Dy368 O374 2.379 . S
Dy368 O376 2.339 . S
Dy368 O378 2.298 . S
Dy368 O382 2.275 . S
Dy368 C390 2.738 . S
Dy369 O372 2.298 . S
Dy369 O375 2.275 . S
Dy369 O377 2.307 . S
Dy369 O379 2.395 . S
Dy369 O380 2.379 . S
Dy369 O383 2.339 . S
Dy369 C399 2.738 . S
C370 O382 1.254 . S
C370 O383 1.257 . S
O371 Dy368 2.307 . S
O371 C381 1.266 . S
O372 Dy369 2.298 . S
O372 C381 1.236 . S
O373 Dy368 2.395 . S
O373 C390 1.255 . S
O374 Dy368 2.379 . S
O374 C390 1.249 . S
O375 Dy369 2.275 . S
O375 C391 1.254 . S
O376 Dy368 2.339 . S
O376 C391 1.257 . S
O377 Dy369 2.307 . S
O377 C392 1.266 . S
O378 Dy368 2.298 . S
O378 C392 1.236 . S
O379 Dy369 2.395 . S
O379 C399 1.255 . S
O380 Dy369 2.379 . S
O380 C399 1.249 . S
C381 O371 1.266 . S
C381 O372 1.236 . S
O382 Dy368 2.275 . S
O382 C370 1.254 . S
O383 Dy369 2.339 . S
O383 C370 1.257 . S
C384 C387 1.344 . S
C384 C388 1.328 . S
C384 C390 1.516 . S
C385 C386 1.304 . S
C385 C389 1.323 . S
C386 C385 1.304 . S
C386 C387 1.371 . S
C386 H400 0.930 . S
C387 C384 1.344 . S
C387 C386 1.371 . S
C387 H401 0.931 . S
C388 C384 1.328 . S
C388 C389 1.433 . S
C388 H402 0.931 . S
C389 C385 1.323 . S
C389 C388 1.433 . S
C389 H403 0.933 . S
C390 Dy368 2.738 . S
C390 O373 1.255 . S
C390 O374 1.249 . S
C390 C384 1.516 . S
C391 O375 1.254 . S
C391 O376 1.257 . S
C392 O377 1.266 . S
C392 O378 1.236 . S
C393 C396 1.344 . S
C393 C397 1.328 . S
C393 C399 1.516 . S
C394 C395 1.304 . S
C394 C398 1.323 . S
C395 C394 1.304 . S
C395 C396 1.371 . S
C395 H404 0.930 . S
C396 C393 1.344 . S
C396 C395 1.371 . S
C396 H405 0.931 . S
C397 C393 1.328 . S
C397 C398 1.433 . S
C397 H406 0.931 . S
C398 C394 1.323 . S
C398 C397 1.433 . S
C398 H407 0.933 . S
C399 Dy369 2.738 . S
C399 O379 1.255 . S
C399 O380 1.249 . S
C399 C393 1.516 . S
H400 C386 0.930 . S
H401 C387 0.931 . S
H402 C388 0.931 . S
H403 C389 0.933 . S
H404 C395 0.930 . S
H405 C396 0.931 . S
H406 C397 0.931 . S
H407 C398 0.933 . S
Dy408 O411 2.310 1_556 S
Dy408 O413 2.392 1_455 S
Dy408 O414 2.377 1_455 S
Dy408 O416 2.341 . S
Dy408 O418 2.296 1_455 S
Dy408 O422 2.274 1_456 S
Dy408 C430 2.735 1_455 S
Dy409 O412 2.298 . S
Dy409 O415 2.275 1_554 S
Dy409 O417 2.307 1_455 S
Dy409 O419 2.395 . S
Dy409 O420 2.379 . S
Dy409 O423 2.339 1_455 S
Dy409 C439 2.738 . S
C410 O422 1.254 . S
C410 O423 1.257 . S
O411 Dy408 2.310 1_554 S
O411 C421 1.266 . S
O412 Dy409 2.298 . S
O412 C421 1.236 . S
O413 Dy408 2.392 1_655 S
O413 C430 1.255 . S
O414 Dy408 2.377 1_655 S
O414 C430 1.249 . S
O415 Dy409 2.275 1_556 S
O415 C431 1.254 . S
O416 Dy408 2.341 . S
O416 C431 1.257 . S
O417 Dy409 2.307 1_655 S
O417 C432 1.266 1_554 S
O418 Dy408 2.296 1_655 S
O418 C432 1.236 . S
O419 Dy409 2.395 . S
O419 C439 1.255 . S
O420 Dy409 2.379 . S
O420 C439 1.249 . S
C421 O411 1.266 . S
C421 O412 1.236 . S
O422 Dy408 2.274 1_654 S
O422 C410 1.254 . S
O423 Dy409 2.339 1_655 S
O423 C410 1.257 . S
C424 C427 1.344 . S
C424 C428 1.328 . S
C424 C430 1.516 . S
C425 C426 1.304 . S
C425 C429 1.323 . S
C426 C425 1.304 . S
C426 C427 1.371 . S
C426 H440 0.930 . S
C427 C424 1.344 . S
C427 C426 1.371 . S
C427 H441 0.931 . S
C428 C424 1.328 . S
C428 C429 1.433 . S
C428 H442 0.931 . S
C429 C425 1.323 . S
C429 C428 1.433 . S
C429 H443 0.933 . S
C430 Dy408 2.735 1_655 S
C430 O413 1.255 . S
C430 O414 1.249 . S
C430 C424 1.516 . S
C431 O415 1.254 . S
C431 O416 1.257 . S
C432 O417 1.266 1_556 S
C432 O418 1.236 . S
C433 C436 1.344 . S
C433 C437 1.328 . S
C433 C439 1.516 . S
C434 C435 1.304 . S
C434 C438 1.323 . S
C435 C434 1.304 . S
C435 C436 1.371 . S
C435 H444 0.930 . S
C436 C433 1.344 . S
C436 C435 1.371 . S
C436 H445 0.931 . S
C437 C433 1.328 . S
C437 C438 1.433 . S
C437 H446 0.931 . S
C438 C434 1.323 . S
C438 C437 1.433 . S
C438 H447 0.933 . S
C439 Dy409 2.738 . S
C439 O419 1.255 . S
C439 O420 1.249 . S
C439 C433 1.516 . S
H440 C426 0.930 . S
H441 C427 0.931 . S
H442 C428 0.931 . S
H443 C429 0.933 . S
H444 C435 0.930 . S
H445 C436 0.931 . S
H446 C437 0.931 . S
H447 C438 0.933 . S
C448 C449 1.391 . S
C448 C450 1.394 . S
C448 H464 0.931 . S
C449 C448 1.391 . S
C449 C453 1.376 . S
C450 C448 1.394 . S
C450 C451 1.369 . S
C450 C454 1.531 . S
C451 C450 1.369 . S
C451 C452 1.410 . S
C451 C459 1.503 . S
C452 C451 1.410 . S
C452 C453 1.392 . S
C452 C455 1.511 . S
C453 C449 1.376 . S
C453 C452 1.392 . S
C453 H465 0.929 . S
C454 C450 1.531 . S
C454 H466 0.960 . S
C454 H467 0.962 . S
C454 H468 0.960 . S
C455 C452 1.511 . S
C455 H469 0.961 . S
C455 H470 0.961 . S
C455 H471 0.961 . S
C456 C457 1.370 . S
C456 C458 1.363 . S
C456 H472 0.931 . S
C457 C456 1.370 . S
C457 C461 1.408 . S
C458 C456 1.363 . S
C458 C459 1.370 . S
C458 C462 1.524 . S
C459 C451 1.503 . S
C459 C458 1.370 . S
C459 C460 1.403 . S
C460 C459 1.403 . S
C460 C461 1.404 . S
C460 C463 1.539 . S
C461 C457 1.408 . S
C461 C460 1.404 . S
C461 H473 0.930 . S
C462 C458 1.524 . S
C462 H474 0.956 . S
C462 H475 0.961 . S
C462 H476 0.961 . S
C463 C460 1.539 . S
C463 H477 0.958 . S
C463 H478 0.961 . S
C463 H479 0.960 . S
H464 C448 0.931 . S
H465 C453 0.929 . S
H466 C454 0.960 . S
H467 C454 0.962 . S
H468 C454 0.960 . S
H469 C455 0.961 . S
H470 C455 0.961 . S
H471 C455 0.961 . S
H472 C456 0.931 . S
H473 C461 0.930 . S
H474 C462 0.956 . S
H475 C462 0.961 . S
H476 C462 0.961 . S
H477 C463 0.958 . S
H478 C463 0.961 . S
H479 C463 0.960 . S
C480 C481 1.391 . S
C480 C482 1.394 . S
C480 H496 0.931 . S
C481 C480 1.391 . S
C481 C485 1.376 . S
C482 C480 1.394 . S
C482 C483 1.369 . S
C482 C486 1.531 . S
C483 C482 1.369 . S
C483 C484 1.410 . S
C483 C491 1.503 . S
C484 C483 1.410 . S
C484 C485 1.392 . S
C484 C487 1.511 . S
C485 C481 1.376 . S
C485 C484 1.392 . S
C485 H497 0.929 . S
C486 C482 1.531 . S
C486 H498 0.960 . S
C486 H499 0.962 . S
C486 H500 0.960 . S
C487 C484 1.511 . S
C487 H501 0.961 . S
C487 H502 0.961 . S
C487 H503 0.961 . S
C488 C489 1.370 . S
C488 C490 1.363 . S
C488 H504 0.931 . S
C489 C488 1.370 . S
C489 C493 1.408 . S
C490 C488 1.363 . S
C490 C491 1.370 . S
C490 C494 1.524 . S
C491 C483 1.503 . S
C491 C490 1.370 . S
C491 C492 1.403 . S
C492 C491 1.403 . S
C492 C493 1.404 . S
C492 C495 1.539 . S
C493 C489 1.408 . S
C493 C492 1.404 . S
C493 H505 0.930 . S
C494 C490 1.524 . S
C494 H506 0.956 . S
C494 H507 0.961 . S
C494 H508 0.961 . S
C495 C492 1.539 . S
C495 H509 0.958 . S
C495 H510 0.961 . S
C495 H511 0.960 . S
H496 C480 0.931 . S
H497 C485 0.929 . S
H498 C486 0.960 . S
H499 C486 0.962 . S
H500 C486 0.960 . S
H501 C487 0.961 . S
H502 C487 0.961 . S
H503 C487 0.961 . S
H504 C488 0.931 . S
H505 C493 0.930 . S
H506 C494 0.956 . S
H507 C494 0.961 . S
H508 C494 0.961 . S
H509 C495 0.958 . S
H510 C495 0.961 . S
H511 C495 0.960 . S
C512 C513 1.391 . S
C512 C514 1.394 . S
C512 H528 0.931 . S
C513 C512 1.391 . S
C513 C517 1.376 . S
C514 C512 1.394 . S
C514 C515 1.369 . S
C514 C518 1.531 . S
C515 C514 1.369 . S
C515 C516 1.410 . S
C515 C523 1.503 . S
C516 C515 1.410 . S
C516 C517 1.392 . S
C516 C519 1.511 . S
C517 C513 1.376 . S
C517 C516 1.392 . S
C517 H529 0.929 . S
C518 C514 1.531 . S
C518 H530 0.960 . S
C518 H531 0.962 . S
C518 H532 0.960 . S
C519 C516 1.511 . S
C519 H533 0.961 . S
C519 H534 0.961 . S
C519 H535 0.961 . S
C520 C521 1.370 . S
C520 C522 1.363 . S
C520 H536 0.931 . S
C521 C520 1.370 . S
C521 C525 1.408 . S
C522 C520 1.363 . S
C522 C523 1.370 . S
C522 C526 1.524 . S
C523 C515 1.503 . S
C523 C522 1.370 . S
C523 C524 1.403 . S
C524 C523 1.403 . S
C524 C525 1.404 . S
C524 C527 1.539 . S
C525 C521 1.408 . S
C525 C524 1.404 . S
C525 H537 0.930 . S
C526 C522 1.524 . S
C526 H538 0.956 . S
C526 H539 0.961 . S
C526 H540 0.961 . S
C527 C524 1.539 . S
C527 H541 0.958 . S
C527 H542 0.961 . S
C527 H543 0.960 . S
H528 C512 0.931 . S
H529 C517 0.929 . S
H530 C518 0.960 . S
H531 C518 0.962 . S
H532 C518 0.960 . S
H533 C519 0.961 . S
H534 C519 0.961 . S
H535 C519 0.961 . S
H536 C520 0.931 . S
H537 C525 0.930 . S
H538 C526 0.956 . S
H539 C526 0.961 . S
H540 C526 0.961 . S
H541 C527 0.958 . S
H542 C527 0.961 . S
H543 C527 0.960 . S
C544 C545 1.391 . S
C544 C546 1.394 . S
C544 H560 0.931 . S
C545 C544 1.391 . S
C545 C549 1.376 . S
C546 C544 1.394 . S
C546 C547 1.369 . S
C546 C550 1.531 . S
C547 C546 1.369 . S
C547 C548 1.410 . S
C547 C555 1.503 . S
C548 C547 1.410 . S
C548 C549 1.392 . S
C548 C551 1.511 . S
C549 C545 1.376 . S
C549 C548 1.392 . S
C549 H561 0.929 . S
C550 C546 1.531 . S
C550 H562 0.960 . S
C550 H563 0.962 . S
C550 H564 0.960 . S
C551 C548 1.511 . S
C551 H565 0.961 . S
C551 H566 0.961 . S
C551 H567 0.961 . S
C552 C553 1.370 . S
C552 C554 1.363 . S
C552 H568 0.931 . S
C553 C552 1.370 . S
C553 C557 1.408 . S
C554 C552 1.363 . S
C554 C555 1.370 . S
C554 C558 1.524 . S
C555 C547 1.503 . S
C555 C554 1.370 . S
C555 C556 1.403 . S
C556 C555 1.403 . S
C556 C557 1.404 . S
C556 C559 1.539 . S
C557 C553 1.408 . S
C557 C556 1.404 . S
C557 H569 0.930 . S
C558 C554 1.524 . S
C558 H570 0.956 . S
C558 H571 0.961 . S
C558 H572 0.961 . S
C559 C556 1.539 . S
C559 H573 0.958 . S
C559 H574 0.961 . S
C559 H575 0.960 . S
H560 C544 0.931 . S
H561 C549 0.929 . S
H562 C550 0.960 . S
H563 C550 0.962 . S
H564 C550 0.960 . S
H565 C551 0.961 . S
H566 C551 0.961 . S
H567 C551 0.961 . S
H568 C552 0.931 . S
H569 C557 0.930 . S
H570 C558 0.956 . S
H571 C558 0.961 . S
H572 C558 0.961 . S
H573 C559 0.958 . S
H574 C559 0.961 . S
H575 C559 0.960 . S
C576 C577 1.391 . S
C576 C578 1.394 . S
C576 H592 0.931 . S
C577 C576 1.391 . S
C577 C581 1.376 . S
C578 C576 1.394 . S
C578 C579 1.369 . S
C578 C582 1.531 . S
C579 C578 1.369 . S
C579 C580 1.410 . S
C579 C587 1.503 . S
C580 C579 1.410 . S
C580 C581 1.392 . S
C580 C583 1.511 . S
C581 C577 1.376 . S
C581 C580 1.392 . S
C581 H593 0.929 . S
C582 C578 1.531 . S
C582 H594 0.960 . S
C582 H595 0.962 . S
C582 H596 0.960 . S
C583 C580 1.511 . S
C583 H597 0.961 . S
C583 H598 0.961 . S
C583 H599 0.961 . S
C584 C585 1.370 . S
C584 C586 1.363 . S
C584 H600 0.931 . S
C585 C584 1.370 . S
C585 C589 1.408 . S
C586 C584 1.363 . S
C586 C587 1.370 . S
C586 C590 1.524 . S
C587 C579 1.503 . S
C587 C586 1.370 . S
C587 C588 1.403 . S
C588 C587 1.403 . S
C588 C589 1.404 . S
C588 C591 1.539 . S
C589 C585 1.408 . S
C589 C588 1.404 . S
C589 H601 0.930 . S
C590 C586 1.524 . S
C590 H602 0.956 . S
C590 H603 0.961 . S
C590 H604 0.961 . S
C591 C588 1.539 . S
C591 H605 0.958 . S
C591 H606 0.961 . S
C591 H607 0.960 . S
H592 C576 0.931 . S
H593 C581 0.929 . S
H594 C582 0.960 . S
H595 C582 0.962 . S
H596 C582 0.960 . S
H597 C583 0.961 . S
H598 C583 0.961 . S
H599 C583 0.961 . S
H600 C584 0.931 . S
H601 C589 0.930 . S
H602 C590 0.956 . S
H603 C590 0.961 . S
H604 C590 0.961 . S
H605 C591 0.958 . S
H606 C591 0.961 . S
H607 C591 0.960 . S
C608 C609 1.391 . S
C608 C610 1.394 . S
C608 H624 0.931 . S
C609 C608 1.391 . S
C609 C613 1.376 . S
C610 C608 1.394 . S
C610 C611 1.369 . S
C610 C614 1.531 . S
C611 C610 1.369 . S
C611 C612 1.410 . S
C611 C619 1.503 . S
C612 C611 1.410 . S
C612 C613 1.392 . S
C612 C615 1.511 . S
C613 C609 1.376 . S
C613 C612 1.392 . S
C613 H625 0.929 . S
C614 C610 1.531 . S
C614 H626 0.960 . S
C614 H627 0.962 . S
C614 H628 0.960 . S
C615 C612 1.511 . S
C615 H629 0.961 . S
C615 H630 0.961 . S
C615 H631 0.961 . S
C616 C617 1.370 . S
C616 C618 1.363 . S
C616 H632 0.931 1_455 S
C617 C616 1.370 . S
C617 C621 1.408 . S
C618 C616 1.363 . S
C618 C619 1.370 . S
C618 C622 1.524 . S
C619 C611 1.503 . S
C619 C618 1.370 . S
C619 C620 1.403 . S
C620 C619 1.403 . S
C620 C621 1.404 . S
C620 C623 1.539 . S
C621 C617 1.408 . S
C621 C620 1.404 . S
C621 H633 0.930 . S
C622 C618 1.524 . S
C622 H634 0.956 . S
C622 H635 0.961 . S
C622 H636 0.961 1_455 S
C623 C620 1.539 . S
C623 H637 0.958 . S
C623 H638 0.961 . S
C623 H639 0.960 . S
H624 C608 0.931 . S
H625 C613 0.929 . S
H626 C614 0.960 . S
H627 C614 0.962 . S
H628 C614 0.960 . S
H629 C615 0.961 . S
H630 C615 0.961 . S
H631 C615 0.961 . S
H632 C616 0.931 1_655 S
H633 C621 0.930 . S
H634 C622 0.956 . S
H635 C622 0.961 . S
H636 C622 0.961 1_655 S
H637 C623 0.958 . S
H638 C623 0.961 . S
H639 C623 0.960 . S
C640 C641 1.391 . S
C640 C642 1.394 . S
C640 H656 0.931 . S
C641 C640 1.391 . S
C641 C645 1.376 . S
C642 C640 1.394 . S
C642 C643 1.369 . S
C642 C646 1.531 . S
C643 C642 1.369 . S
C643 C644 1.410 . S
C643 C651 1.503 . S
C644 C643 1.410 . S
C644 C645 1.392 . S
C644 C647 1.511 . S
C645 C641 1.376 . S
C645 C644 1.392 . S
C645 H657 0.929 . S
C646 C642 1.531 . S
C646 H658 0.960 . S
C646 H659 0.962 . S
C646 H660 0.960 . S
C647 C644 1.511 . S
C647 H661 0.961 . S
C647 H662 0.961 . S
C647 H663 0.961 . S
C648 C649 1.370 . S
C648 C650 1.363 . S
C648 H664 0.931 . S
C649 C648 1.370 . S
C649 C653 1.408 . S
C650 C648 1.363 . S
C650 C651 1.370 . S
C650 C654 1.524 . S
C651 C643 1.503 . S
C651 C650 1.370 . S
C651 C652 1.403 . S
C652 C651 1.403 . S
C652 C653 1.404 . S
C652 C655 1.539 . S
C653 C649 1.408 . S
C653 C652 1.404 . S
C653 H665 0.930 . S
C654 C650 1.524 . S
C654 H666 0.956 . S
C654 H667 0.961 . S
C654 H668 0.961 . S
C655 C652 1.539 . S
C655 H669 0.958 . S
C655 H670 0.961 . S
C655 H671 0.960 . S
H656 C640 0.931 . S
H657 C645 0.929 . S
H658 C646 0.960 . S
H659 C646 0.962 . S
H660 C646 0.960 . S
H661 C647 0.961 . S
H662 C647 0.961 . S
H663 C647 0.961 . S
H664 C648 0.931 . S
H665 C653 0.930 . S
H666 C654 0.956 . S
H667 C654 0.961 . S
H668 C654 0.961 . S
H669 C655 0.958 . S
H670 C655 0.961 . S
H671 C655 0.960 . S
C672 C673 1.391 . S
C672 C674 1.394 . S
C672 H688 0.931 . S
C673 C672 1.391 . S
C673 C677 1.376 . S
C674 C672 1.394 . S
C674 C675 1.369 . S
C674 C678 1.531 . S
C675 C674 1.369 . S
C675 C676 1.410 . S
C675 C683 1.503 . S
C676 C675 1.410 . S
C676 C677 1.392 . S
C676 C679 1.511 . S
C677 C673 1.376 . S
C677 C676 1.392 . S
C677 H689 0.929 . S
C678 C674 1.531 . S
C678 H690 0.960 . S
C678 H691 0.962 . S
C678 H692 0.960 . S
C679 C676 1.511 . S
C679 H693 0.961 . S
C679 H694 0.961 . S
C679 H695 0.961 . S
C680 C681 1.370 . S
C680 C682 1.363 . S
C680 H696 0.931 . S
C681 C680 1.370 . S
C681 C685 1.408 . S
C682 C680 1.363 . S
C682 C683 1.370 . S
C682 C686 1.524 . S
C683 C675 1.503 . S
C683 C682 1.370 . S
C683 C684 1.403 . S
C684 C683 1.403 . S
C684 C685 1.404 . S
C684 C687 1.539 . S
C685 C681 1.408 . S
C685 C684 1.404 . S
C685 H697 0.930 . S
C686 C682 1.524 . S
C686 H698 0.956 . S
C686 H699 0.961 . S
C686 H700 0.961 . S
C687 C684 1.539 . S
C687 H701 0.958 . S
C687 H702 0.961 . S
C687 H703 0.960 . S
H688 C672 0.931 . S
H689 C677 0.929 . S
H690 C678 0.960 . S
H691 C678 0.962 . S
H692 C678 0.960 . S
H693 C679 0.961 . S
H694 C679 0.961 . S
H695 C679 0.961 . S
H696 C680 0.931 . S
H697 C685 0.930 . S
H698 C686 0.956 . S
H699 C686 0.961 . S
H700 C686 0.961 . S
H701 C687 0.958 . S
H702 C687 0.961 . S
H703 C687 0.960 . S
C704 C705 1.391 . S
C704 C706 1.394 . S
C704 H720 0.931 . S
C705 C704 1.391 . S
C705 C709 1.376 . S
C706 C704 1.394 . S
C706 C707 1.369 . S
C706 C710 1.531 . S
C707 C706 1.369 . S
C707 C708 1.410 . S
C707 C715 1.503 . S
C708 C707 1.410 . S
C708 C709 1.392 . S
C708 C711 1.511 . S
C709 C705 1.376 . S
C709 C708 1.392 . S
C709 H721 0.929 . S
C710 C706 1.531 . S
C710 H722 0.960 . S
C710 H723 0.962 . S
C710 H724 0.960 . S
C711 C708 1.511 . S
C711 H725 0.961 . S
C711 H726 0.961 . S
C711 H727 0.961 . S
C712 C713 1.370 . S
C712 C714 1.363 . S
C712 H728 0.931 . S
C713 C712 1.370 . S
C713 C717 1.408 . S
C714 C712 1.363 . S
C714 C715 1.370 . S
C714 C718 1.524 . S
C715 C707 1.503 . S
C715 C714 1.370 . S
C715 C716 1.403 . S
C716 C715 1.403 . S
C716 C717 1.404 . S
C716 C719 1.539 . S
C717 C713 1.408 . S
C717 C716 1.404 . S
C717 H729 0.930 . S
C718 C714 1.524 . S
C718 H730 0.956 . S
C718 H731 0.961 . S
C718 H732 0.961 . S
C719 C716 1.539 . S
C719 H733 0.958 . S
C719 H734 0.961 . S
C719 H735 0.960 . S
H720 C704 0.931 . S
H721 C709 0.929 . S
H722 C710 0.960 . S
H723 C710 0.962 . S
H724 C710 0.960 . S
H725 C711 0.961 . S
H726 C711 0.961 . S
H727 C711 0.961 . S
H728 C712 0.931 . S
H729 C717 0.930 . S
H730 C718 0.956 . S
H731 C718 0.961 . S
H732 C718 0.961 . S
H733 C719 0.958 . S
H734 C719 0.961 . S
H735 C719 0.960 . S
C736 C737 1.391 . S
C736 C738 1.394 . S
C736 H752 0.931 . S
C737 C736 1.391 . S
C737 C741 1.376 . S
C738 C736 1.394 . S
C738 C739 1.369 . S
C738 C742 1.531 . S
C739 C738 1.369 . S
C739 C740 1.410 . S
C739 C747 1.503 . S
C740 C739 1.410 . S
C740 C741 1.392 . S
C740 C743 1.511 . S
C741 C737 1.376 . S
C741 C740 1.392 . S
C741 H753 0.929 . S
C742 C738 1.531 . S
C742 H754 0.960 . S
C742 H755 0.962 . S
C742 H756 0.960 . S
C743 C740 1.511 . S
C743 H757 0.961 . S
C743 H758 0.961 . S
C743 H759 0.961 . S
C744 C745 1.370 . S
C744 C746 1.363 . S
C744 H760 0.931 . S
C745 C744 1.370 . S
C745 C749 1.408 . S
C746 C744 1.363 . S
C746 C747 1.370 . S
C746 C750 1.524 . S
C747 C739 1.503 . S
C747 C746 1.370 . S
C747 C748 1.403 . S
C748 C747 1.403 . S
C748 C749 1.404 . S
C748 C751 1.539 . S
C749 C745 1.408 . S
C749 C748 1.404 . S
C749 H761 0.930 . S
C750 C746 1.524 . S
C750 H762 0.956 . S
C750 H763 0.961 . S
C750 H764 0.961 . S
C751 C748 1.539 . S
C751 H765 0.958 . S
C751 H766 0.961 . S
C751 H767 0.960 . S
H752 C736 0.931 . S
H753 C741 0.929 . S
H754 C742 0.960 . S
H755 C742 0.962 . S
H756 C742 0.960 . S
H757 C743 0.961 . S
H758 C743 0.961 . S
H759 C743 0.961 . S
H760 C744 0.931 . S
H761 C749 0.930 . S
H762 C750 0.956 . S
H763 C750 0.961 . S
H764 C750 0.961 . S
H765 C751 0.958 . S
H766 C751 0.961 . S
H767 C751 0.960 . S
C768 C769 1.391 . S
C768 C770 1.394 . S
C768 H784 0.931 . S
C769 C768 1.391 . S
C769 C773 1.376 . S
C770 C768 1.394 . S
C770 C771 1.369 . S
C770 C774 1.531 . S
C771 C770 1.369 . S
C771 C772 1.410 . S
C771 C779 1.503 . S
C772 C771 1.410 . S
C772 C773 1.392 . S
C772 C775 1.511 . S
C773 C769 1.376 . S
C773 C772 1.392 . S
C773 H785 0.929 . S
C774 C770 1.531 . S
C774 H786 0.960 . S
C774 H787 0.962 . S
C774 H788 0.960 . S
C775 C772 1.511 . S
C775 H789 0.961 . S
C775 H790 0.961 . S
C775 H791 0.961 1_655 S
C776 C777 1.370 . S
C776 C778 1.363 . S
C776 H792 0.931 . S
C777 C776 1.370 . S
C777 C781 1.408 . S
C778 C776 1.363 . S
C778 C779 1.370 . S
C778 C782 1.524 . S
C779 C771 1.503 . S
C779 C778 1.370 . S
C779 C780 1.403 . S
C780 C779 1.403 . S
C780 C781 1.404 . S
C780 C783 1.539 . S
C781 C777 1.408 . S
C781 C780 1.404 . S
C781 H793 0.930 . S
C782 C778 1.524 . S
C782 H794 0.956 . S
C782 H795 0.961 . S
C782 H796 0.961 . S
C783 C780 1.539 . S
C783 H797 0.958 . S
C783 H798 0.961 1_655 S
C783 H799 0.960 . S
H784 C768 0.931 . S
H785 C773 0.929 . S
H786 C774 0.960 . S
H787 C774 0.962 . S
H788 C774 0.960 . S
H789 C775 0.961 . S
H790 C775 0.961 . S
H791 C775 0.961 1_455 S
H792 C776 0.931 . S
H793 C781 0.930 . S
H794 C782 0.956 . S
H795 C782 0.961 . S
H796 C782 0.961 . S
H797 C783 0.958 . S
H798 C783 0.961 1_455 S
H799 C783 0.960 . S
C800 C801 1.391 . S
C800 C802 1.394 . S
C800 H816 0.931 . S
C801 C800 1.391 . S
C801 C805 1.376 . S
C802 C800 1.394 . S
C802 C803 1.369 . S
C802 C806 1.531 . S
C803 C802 1.369 . S
C803 C804 1.410 . S
C803 C811 1.503 . S
C804 C803 1.410 . S
C804 C805 1.392 . S
C804 C807 1.511 . S
C805 C801 1.376 . S
C805 C804 1.392 . S
C805 H817 0.929 . S
C806 C802 1.531 . S
C806 H818 0.960 . S
C806 H819 0.962 . S
C806 H820 0.960 . S
C807 C804 1.511 . S
C807 H821 0.961 . S
C807 H822 0.961 . S
C807 H823 0.961 . S
C808 C809 1.370 . S
C808 C810 1.363 . S
C808 H824 0.931 . S
C809 C808 1.370 . S
C809 C813 1.408 . S
C810 C808 1.363 . S
C810 C811 1.370 . S
C810 C814 1.524 . S
C811 C803 1.503 . S
C811 C810 1.370 . S
C811 C812 1.403 . S
C812 C811 1.403 . S
C812 C813 1.404 . S
C812 C815 1.539 . S
C813 C809 1.408 . S
C813 C812 1.404 . S
C813 H825 0.930 . S
C814 C810 1.524 . S
C814 H826 0.956 . S
C814 H827 0.961 . S
C814 H828 0.961 . S
C815 C812 1.539 . S
C815 H829 0.958 . S
C815 H830 0.961 . S
C815 H831 0.960 . S
H816 C800 0.931 . S
H817 C805 0.929 . S
H818 C806 0.960 . S
H819 C806 0.962 . S
H820 C806 0.960 . S
H821 C807 0.961 . S
H822 C807 0.961 . S
H823 C807 0.961 . S
H824 C808 0.931 . S
H825 C813 0.930 . S
H826 C814 0.956 . S
H827 C814 0.961 . S
H828 C814 0.961 . S
H829 C815 0.958 . S
H830 C815 0.961 . S
H831 C815 0.960 . S
C832 C833 1.391 . S
C832 C834 1.394 . S
C832 H848 0.931 . S
C833 C832 1.391 . S
C833 C837 1.376 . S
C834 C832 1.394 . S
C834 C835 1.369 . S
C834 C838 1.531 . S
C835 C834 1.369 . S
C835 C836 1.410 . S
C835 C843 1.503 . S
C836 C835 1.410 . S
C836 C837 1.392 . S
C836 C839 1.511 . S
C837 C833 1.376 . S
C837 C836 1.392 . S
C837 H849 0.929 . S
C838 C834 1.531 . S
C838 H850 0.960 . S
C838 H851 0.962 . S
C838 H852 0.960 . S
C839 C836 1.511 . S
C839 H853 0.961 . S
C839 H854 0.961 . S
C839 H855 0.961 . S
C840 C841 1.370 . S
C840 C842 1.363 . S
C840 H856 0.931 . S
C841 C840 1.370 . S
C841 C845 1.408 . S
C842 C840 1.363 . S
C842 C843 1.370 . S
C842 C846 1.524 . S
C843 C835 1.503 . S
C843 C842 1.370 . S
C843 C844 1.403 . S
C844 C843 1.403 . S
C844 C845 1.404 . S
C844 C847 1.539 . S
C845 C841 1.408 . S
C845 C844 1.404 . S
C845 H857 0.930 . S
C846 C842 1.524 . S
C846 H858 0.956 . S
C846 H859 0.961 . S
C846 H860 0.961 . S
C847 C844 1.539 . S
C847 H861 0.958 . S
C847 H862 0.961 . S
C847 H863 0.960 . S
H848 C832 0.931 . S
H849 C837 0.929 . S
H850 C838 0.960 . S
H851 C838 0.962 . S
H852 C838 0.960 . S
H853 C839 0.961 . S
H854 C839 0.961 . S
H855 C839 0.961 . S
H856 C840 0.931 . S
H857 C845 0.930 . S
H858 C846 0.956 . S
H859 C846 0.961 . S
H860 C846 0.961 . S
H861 C847 0.958 . S
H862 C847 0.961 . S
H863 C847 0.960 . S
C864 C865 1.391 . S
C864 C866 1.394 . S
C864 H880 0.931 . S
C865 C864 1.391 . S
C865 C869 1.376 . S
C866 C864 1.394 . S
C866 C867 1.369 . S
C866 C870 1.531 . S
C867 C866 1.369 . S
C867 C868 1.410 . S
C867 C875 1.503 . S
C868 C867 1.410 . S
C868 C869 1.392 . S
C868 C871 1.511 . S
C869 C865 1.376 . S
C869 C868 1.392 . S
C869 H881 0.929 . S
C870 C866 1.531 . S
C870 H882 0.960 . S
C870 H883 0.962 . S
C870 H884 0.960 . S
C871 C868 1.511 . S
C871 H885 0.961 . S
C871 H886 0.961 . S
C871 H887 0.961 . S
C872 C873 1.370 . S
C872 C874 1.363 . S
C872 H888 0.931 . S
C873 C872 1.370 . S
C873 C877 1.408 . S
C874 C872 1.363 . S
C874 C875 1.370 . S
C874 C878 1.524 . S
C875 C867 1.503 . S
C875 C874 1.370 . S
C875 C876 1.403 . S
C876 C875 1.403 . S
C876 C877 1.404 . S
C876 C879 1.539 . S
C877 C873 1.408 . S
C877 C876 1.404 . S
C877 H889 0.930 . S
C878 C874 1.524 . S
C878 H890 0.956 . S
C878 H891 0.961 . S
C878 H892 0.961 . S
C879 C876 1.539 . S
C879 H893 0.958 . S
C879 H894 0.961 . S
C879 H895 0.960 . S
H880 C864 0.931 . S
H881 C869 0.929 . S
H882 C870 0.960 . S
H883 C870 0.962 . S
H884 C870 0.960 . S
H885 C871 0.961 . S
H886 C871 0.961 . S
H887 C871 0.961 . S
H888 C872 0.931 . S
H889 C877 0.930 . S
H890 C878 0.956 . S
H891 C878 0.961 . S
H892 C878 0.961 . S
H893 C879 0.958 . S
H894 C879 0.961 . S
H895 C879 0.960 . S
C896 C897 1.391 . S
C896 C898 1.394 . S
C896 H912 0.931 . S
C897 C896 1.391 . S
C897 C901 1.376 . S
C898 C896 1.394 . S
C898 C899 1.369 . S
C898 C902 1.531 . S
C899 C898 1.369 . S
C899 C900 1.410 . S
C899 C907 1.503 . S
C900 C899 1.410 . S
C900 C901 1.392 . S
C900 C903 1.511 . S
C901 C897 1.376 . S
C901 C900 1.392 . S
C901 H913 0.929 . S
C902 C898 1.531 . S
C902 H914 0.960 . S
C902 H915 0.962 . S
C902 H916 0.960 . S
C903 C900 1.511 . S
C903 H917 0.961 . S
C903 H918 0.961 . S
C903 H919 0.961 . S
C904 C905 1.370 . S
C904 C906 1.363 . S
C904 H920 0.931 . S
C905 C904 1.370 . S
C905 C909 1.408 . S
C906 C904 1.363 . S
C906 C907 1.370 . S
C906 C910 1.524 . S
C907 C899 1.503 . S
C907 C906 1.370 . S
C907 C908 1.403 . S
C908 C907 1.403 . S
C908 C909 1.404 . S
C908 C911 1.539 . S
C909 C905 1.408 . S
C909 C908 1.404 . S
C909 H921 0.930 . S
C910 C906 1.524 . S
C910 H922 0.956 . S
C910 H923 0.961 . S
C910 H924 0.961 . S
C911 C908 1.539 . S
C911 H925 0.958 . S
C911 H926 0.961 . S
C911 H927 0.960 . S
H912 C896 0.931 . S
H913 C901 0.929 . S
H914 C902 0.960 . S
H915 C902 0.962 . S
H916 C902 0.960 . S
H917 C903 0.961 . S
H918 C903 0.961 . S
H919 C903 0.961 . S
H920 C904 0.931 . S
H921 C909 0.930 . S
H922 C910 0.956 . S
H923 C910 0.961 . S
H924 C910 0.961 . S
H925 C911 0.958 . S
H926 C911 0.961 . S
H927 C911 0.960 . S
C928 C929 1.391 . S
C928 C930 1.394 . S
C928 H944 0.931 . S
C929 C928 1.391 . S
C929 C933 1.376 . S
C930 C928 1.394 . S
C930 C931 1.369 . S
C930 C934 1.531 . S
C931 C930 1.369 . S
C931 C932 1.410 . S
C931 C939 1.503 . S
C932 C931 1.410 . S
C932 C933 1.392 . S
C932 C935 1.511 . S
C933 C929 1.376 . S
C933 C932 1.392 . S
C933 H945 0.929 . S
C934 C930 1.531 . S
C934 H946 0.960 . S
C934 H947 0.962 . S
C934 H948 0.960 . S
C935 C932 1.511 . S
C935 H949 0.961 . S
C935 H950 0.961 . S
C935 H951 0.961 . S
C936 C937 1.370 . S
C936 C938 1.363 . S
C936 H952 0.931 . S
C937 C936 1.370 . S
C937 C941 1.408 . S
C938 C936 1.363 . S
C938 C939 1.370 . S
C938 C942 1.524 . S
C939 C931 1.503 . S
C939 C938 1.370 . S
C939 C940 1.403 . S
C940 C939 1.403 . S
C940 C941 1.404 . S
C940 C943 1.539 . S
C941 C937 1.408 . S
C941 C940 1.404 . S
C941 H953 0.930 . S
C942 C938 1.524 . S
C942 H954 0.956 . S
C942 H955 0.961 . S
C942 H956 0.961 . S
C943 C940 1.539 . S
C943 H957 0.958 . S
C943 H958 0.961 . S
C943 H959 0.960 . S
H944 C928 0.931 . S
H945 C933 0.929 . S
H946 C934 0.960 . S
H947 C934 0.962 . S
H948 C934 0.960 . S
H949 C935 0.961 . S
H950 C935 0.961 . S
H951 C935 0.961 . S
H952 C936 0.931 . S
H953 C941 0.930 . S
H954 C942 0.956 . S
H955 C942 0.961 . S
H956 C942 0.961 . S
H957 C943 0.958 . S
H958 C943 0.961 . S
H959 C943 0.960 . S
C960 C961 1.391 . S
C960 C962 1.394 . S
C960 H976 0.931 . S
C961 C960 1.391 . S
C961 C965 1.376 . S
C962 C960 1.394 . S
C962 C963 1.369 . S
C962 C966 1.531 . S
C963 C962 1.369 . S
C963 C964 1.410 . S
C963 C971 1.503 . S
C964 C963 1.410 . S
C964 C965 1.392 . S
C964 C967 1.511 . S
C965 C961 1.376 . S
C965 C964 1.392 . S
C965 H977 0.929 . S
C966 C962 1.531 . S
C966 H978 0.960 . S
C966 H979 0.962 . S
C966 H980 0.960 . S
C967 C964 1.511 . S
C967 H981 0.961 . S
C967 H982 0.961 . S
C967 H983 0.961 . S
C968 C969 1.370 . S
C968 C970 1.363 . S
C968 H984 0.931 . S
C969 C968 1.370 . S
C969 C973 1.408 . S
C970 C968 1.363 . S
C970 C971 1.370 . S
C970 C974 1.524 . S
C971 C963 1.503 . S
C971 C970 1.370 . S
C971 C972 1.403 . S
C972 C971 1.403 . S
C972 C973 1.404 . S
C972 C975 1.539 . S
C973 C969 1.408 . S
C973 C972 1.404 . S
C973 H985 0.930 . S
C974 C970 1.524 . S
C974 H986 0.956 . S
C974 H987 0.961 . S
C974 H988 0.961 . S
C975 C972 1.539 . S
C975 H989 0.958 . S
C975 H990 0.961 . S
C975 H991 0.960 . S
H976 C960 0.931 . S
H977 C965 0.929 . S
H978 C966 0.960 . S
H979 C966 0.962 . S
H980 C966 0.960 . S
H981 C967 0.961 . S
H982 C967 0.961 . S
H983 C967 0.961 . S
H984 C968 0.931 . S
H985 C973 0.930 . S
H986 C974 0.956 . S
H987 C974 0.961 . S
H988 C974 0.961 . S
H989 C975 0.958 . S
H990 C975 0.961 . S
H991 C975 0.960 . S
C992 C993 1.391 . S
C992 C994 1.394 . S
C992 H1008 0.931 . S
C993 C992 1.391 . S
C993 C997 1.376 . S
C994 C992 1.394 . S
C994 C995 1.369 . S
C994 C998 1.531 . S
C995 C994 1.369 . S
C995 C996 1.410 . S
C995 C1003 1.503 . S
C996 C995 1.410 . S
C996 C997 1.392 . S
C996 C999 1.511 . S
C997 C993 1.376 . S
C997 C996 1.392 . S
C997 H1009 0.929 . S
C998 C994 1.531 . S
C998 H1010 0.960 . S
C998 H1011 0.962 . S
C998 H1012 0.960 . S
C999 C996 1.511 . S
C999 H1013 0.961 . S
C999 H1014 0.961 . S
C999 H1015 0.961 . S
C1000 C1001 1.370 . S
C1000 C1002 1.363 . S
C1000 H1016 0.931 . S
C1001 C1000 1.370 . S
C1001 C1005 1.408 . S
C1002 C1000 1.363 . S
C1002 C1003 1.370 . S
C1002 C1006 1.524 . S
C1003 C995 1.503 . S
C1003 C1002 1.370 . S
C1003 C1004 1.403 . S
C1004 C1003 1.403 . S
C1004 C1005 1.404 . S
C1004 C1007 1.539 1_655 S
C1005 C1001 1.408 . S
C1005 C1004 1.404 . S
C1005 H1017 0.930 1_655 S
C1006 C1002 1.524 . S
C1006 H1018 0.956 . S
C1006 H1019 0.961 . S
C1006 H1020 0.961 . S
C1007 C1004 1.539 1_455 S
C1007 H1021 0.958 . S
C1007 H1022 0.961 . S
C1007 H1023 0.960 . S
H1008 C992 0.931 . S
H1009 C997 0.929 . S
H1010 C998 0.960 . S
H1011 C998 0.962 . S
H1012 C998 0.960 . S
H1013 C999 0.961 . S
H1014 C999 0.961 . S
H1015 C999 0.961 . S
H1016 C1000 0.931 . S
H1017 C1005 0.930 1_455 S
H1018 C1006 0.956 . S
H1019 C1006 0.961 . S
H1020 C1006 0.961 . S
H1021 C1007 0.958 . S
H1022 C1007 0.961 . S
H1023 C1007 0.960 . S
C1024 C1025 1.391 . S
C1024 C1026 1.394 . S
C1024 H1040 0.931 . S
C1025 C1024 1.391 . S
C1025 C1029 1.376 . S
C1026 C1024 1.394 . S
C1026 C1027 1.369 . S
C1026 C1030 1.531 . S
C1027 C1026 1.369 . S
C1027 C1028 1.410 . S
C1027 C1035 1.503 . S
C1028 C1027 1.410 . S
C1028 C1029 1.392 . S
C1028 C1031 1.511 . S
C1029 C1025 1.376 . S
C1029 C1028 1.392 . S
C1029 H1041 0.929 . S
C1030 C1026 1.531 . S
C1030 H1042 0.960 . S
C1030 H1043 0.962 . S
C1030 H1044 0.960 . S
C1031 C1028 1.511 . S
C1031 H1045 0.961 . S
C1031 H1046 0.961 . S
C1031 H1047 0.961 . S
C1032 C1033 1.370 . S
C1032 C1034 1.363 . S
C1032 H1048 0.931 . S
C1033 C1032 1.370 . S
C1033 C1037 1.408 . S
C1034 C1032 1.363 . S
C1034 C1035 1.370 . S
C1034 C1038 1.524 . S
C1035 C1027 1.503 . S
C1035 C1034 1.370 . S
C1035 C1036 1.403 . S
C1036 C1035 1.403 . S
C1036 C1037 1.404 . S
C1036 C1039 1.539 . S
C1037 C1033 1.408 . S
C1037 C1036 1.404 . S
C1037 H1049 0.930 . S
C1038 C1034 1.524 . S
C1038 H1050 0.956 . S
C1038 H1051 0.961 . S
C1038 H1052 0.961 . S
C1039 C1036 1.539 . S
C1039 H1053 0.958 . S
C1039 H1054 0.961 . S
C1039 H1055 0.960 . S
H1040 C1024 0.931 . S
H1041 C1029 0.929 . S
H1042 C1030 0.960 . S
H1043 C1030 0.962 . S
H1044 C1030 0.960 . S
H1045 C1031 0.961 . S
H1046 C1031 0.961 . S
H1047 C1031 0.961 . S
H1048 C1032 0.931 . S
H1049 C1037 0.930 . S
H1050 C1038 0.956 . S
H1051 C1038 0.961 . S
H1052 C1038 0.961 . S
H1053 C1039 0.958 . S
H1054 C1039 0.961 . S
H1055 C1039 0.960 . S
C1056 C1057 1.391 . S
C1056 C1058 1.394 . S
C1056 H1072 0.931 . S
C1057 C1056 1.391 . S
C1057 C1061 1.376 . S
C1058 C1056 1.394 . S
C1058 C1059 1.369 . S
C1058 C1062 1.531 . S
C1059 C1058 1.369 . S
C1059 C1060 1.410 . S
C1059 C1067 1.503 . S
C1060 C1059 1.410 . S
C1060 C1061 1.392 . S
C1060 C1063 1.511 . S
C1061 C1057 1.376 . S
C1061 C1060 1.392 . S
C1061 H1073 0.929 . S
C1062 C1058 1.531 . S
C1062 H1074 0.960 . S
C1062 H1075 0.962 . S
C1062 H1076 0.960 . S
C1063 C1060 1.511 . S
C1063 H1077 0.961 . S
C1063 H1078 0.961 . S
C1063 H1079 0.961 . S
C1064 C1065 1.370 . S
C1064 C1066 1.363 . S
C1064 H1080 0.931 . S
C1065 C1064 1.370 . S
C1065 C1069 1.408 . S
C1066 C1064 1.363 . S
C1066 C1067 1.370 . S
C1066 C1070 1.524 . S
C1067 C1059 1.503 . S
C1067 C1066 1.370 . S
C1067 C1068 1.403 . S
C1068 C1067 1.403 . S
C1068 C1069 1.404 . S
C1068 C1071 1.539 . S
C1069 C1065 1.408 . S
C1069 C1068 1.404 . S
C1069 H1081 0.930 . S
C1070 C1066 1.524 . S
C1070 H1082 0.956 . S
C1070 H1083 0.961 . S
C1070 H1084 0.961 . S
C1071 C1068 1.539 . S
C1071 H1085 0.958 . S
C1071 H1086 0.961 . S
C1071 H1087 0.960 . S
H1072 C1056 0.931 . S
H1073 C1061 0.929 . S
H1074 C1062 0.960 . S
H1075 C1062 0.962 . S
H1076 C1062 0.960 . S
H1077 C1063 0.961 . S
H1078 C1063 0.961 . S
H1079 C1063 0.961 . S
H1080 C1064 0.931 . S
H1081 C1069 0.930 . S
H1082 C1070 0.956 . S
H1083 C1070 0.961 . S
H1084 C1070 0.961 . S
H1085 C1071 0.958 . S
H1086 C1071 0.961 . S
H1087 C1071 0.960 . S
C1088 C1089 1.391 . S
C1088 C1090 1.394 . S
C1088 H1104 0.931 . S
C1089 C1088 1.391 . S
C1089 C1093 1.376 . S
C1090 C1088 1.394 . S
C1090 C1091 1.369 . S
C1090 C1094 1.531 . S
C1091 C1090 1.369 . S
C1091 C1092 1.410 . S
C1091 C1099 1.503 . S
C1092 C1091 1.410 . S
C1092 C1093 1.392 . S
C1092 C1095 1.511 . S
C1093 C1089 1.376 . S
C1093 C1092 1.392 . S
C1093 H1105 0.929 . S
C1094 C1090 1.531 . S
C1094 H1106 0.960 . S
C1094 H1107 0.962 . S
C1094 H1108 0.960 . S
C1095 C1092 1.511 . S
C1095 H1109 0.961 . S
C1095 H1110 0.961 . S
C1095 H1111 0.961 . S
C1096 C1097 1.370 . S
C1096 C1098 1.363 . S
C1096 H1112 0.931 . S
C1097 C1096 1.370 . S
C1097 C1101 1.408 . S
C1098 C1096 1.363 . S
C1098 C1099 1.370 . S
C1098 C1102 1.524 . S
C1099 C1091 1.503 . S
C1099 C1098 1.370 . S
C1099 C1100 1.403 . S
C1100 C1099 1.403 . S
C1100 C1101 1.404 . S
C1100 C1103 1.539 . S
C1101 C1097 1.408 . S
C1101 C1100 1.404 . S
C1101 H1113 0.930 . S
C1102 C1098 1.524 . S
C1102 H1114 0.956 . S
C1102 H1115 0.961 . S
C1102 H1116 0.961 . S
C1103 C1100 1.539 . S
C1103 H1117 0.958 . S
C1103 H1118 0.961 . S
C1103 H1119 0.960 . S
H1104 C1088 0.931 . S
H1105 C1093 0.929 . S
H1106 C1094 0.960 . S
H1107 C1094 0.962 . S
H1108 C1094 0.960 . S
H1109 C1095 0.961 . S
H1110 C1095 0.961 . S
H1111 C1095 0.961 . S
H1112 C1096 0.931 . S
H1113 C1101 0.930 . S
H1114 C1102 0.956 . S
H1115 C1102 0.961 . S
H1116 C1102 0.961 . S
H1117 C1103 0.958 . S
H1118 C1103 0.961 . S
H1119 C1103 0.960 . S
C1120 C1121 1.391 . S
C1120 C1122 1.394 . S
C1120 H1136 0.931 . S
C1121 C1120 1.391 . S
C1121 C1125 1.376 . S
C1122 C1120 1.394 . S
C1122 C1123 1.369 . S
C1122 C1126 1.531 . S
C1123 C1122 1.369 . S
C1123 C1124 1.410 . S
C1123 C1131 1.503 . S
C1124 C1123 1.410 . S
C1124 C1125 1.392 . S
C1124 C1127 1.511 . S
C1125 C1121 1.376 . S
C1125 C1124 1.392 . S
C1125 H1137 0.929 . S
C1126 C1122 1.531 . S
C1126 H1138 0.960 . S
C1126 H1139 0.962 . S
C1126 H1140 0.960 . S
C1127 C1124 1.511 . S
C1127 H1141 0.961 . S
C1127 H1142 0.961 . S
C1127 H1143 0.961 . S
C1128 C1129 1.370 . S
C1128 C1130 1.363 . S
C1128 H1144 0.931 . S
C1129 C1128 1.370 . S
C1129 C1133 1.408 . S
C1130 C1128 1.363 . S
C1130 C1131 1.370 . S
C1130 C1134 1.524 . S
C1131 C1123 1.503 . S
C1131 C1130 1.370 . S
C1131 C1132 1.403 . S
C1132 C1131 1.403 . S
C1132 C1133 1.404 . S
C1132 C1135 1.539 . S
C1133 C1129 1.408 . S
C1133 C1132 1.404 . S
C1133 H1145 0.930 . S
C1134 C1130 1.524 . S
C1134 H1146 0.956 . S
C1134 H1147 0.961 . S
C1134 H1148 0.961 . S
C1135 C1132 1.539 . S
C1135 H1149 0.958 . S
C1135 H1150 0.961 . S
C1135 H1151 0.960 . S
H1136 C1120 0.931 . S
H1137 C1125 0.929 . S
H1138 C1126 0.960 . S
H1139 C1126 0.962 . S
H1140 C1126 0.960 . S
H1141 C1127 0.961 . S
H1142 C1127 0.961 . S
H1143 C1127 0.961 . S
H1144 C1128 0.931 . S
H1145 C1133 0.930 . S
H1146 C1134 0.956 . S
H1147 C1134 0.961 . S
H1148 C1134 0.961 . S
H1149 C1135 0.958 . S
H1150 C1135 0.961 . S
H1151 C1135 0.960 . S
C1152 C1153 1.391 . S
C1152 C1154 1.394 . S
C1152 H1168 0.931 . S
C1153 C1152 1.391 . S
C1153 C1157 1.376 . S
C1154 C1152 1.394 . S
C1154 C1155 1.369 . S
C1154 C1158 1.531 . S
C1155 C1154 1.369 . S
C1155 C1156 1.410 . S
C1155 C1163 1.503 . S
C1156 C1155 1.410 . S
C1156 C1157 1.392 . S
C1156 C1159 1.511 . S
C1157 C1153 1.376 . S
C1157 C1156 1.392 . S
C1157 H1169 0.929 . S
C1158 C1154 1.531 . S
C1158 H1170 0.960 . S
C1158 H1171 0.962 . S
C1158 H1172 0.960 . S
C1159 C1156 1.511 . S
C1159 H1173 0.961 . S
C1159 H1174 0.961 . S
C1159 H1175 0.961 . S
C1160 C1161 1.370 . S
C1160 C1162 1.363 . S
C1160 H1176 0.931 . S
C1161 C1160 1.370 . S
C1161 C1165 1.408 . S
C1162 C1160 1.363 . S
C1162 C1163 1.370 . S
C1162 C1166 1.524 . S
C1163 C1155 1.503 . S
C1163 C1162 1.370 . S
C1163 C1164 1.403 . S
C1164 C1163 1.403 . S
C1164 C1165 1.404 . S
C1164 C1167 1.539 . S
C1165 C1161 1.408 . S
C1165 C1164 1.404 . S
C1165 H1177 0.930 . S
C1166 C1162 1.524 . S
C1166 H1178 0.956 . S
C1166 H1179 0.961 . S
C1166 H1180 0.961 . S
C1167 C1164 1.539 . S
C1167 H1181 0.958 . S
C1167 H1182 0.961 1_455 S
C1167 H1183 0.960 . S
H1168 C1152 0.931 . S
H1169 C1157 0.929 . S
H1170 C1158 0.960 . S
H1171 C1158 0.962 . S
H1172 C1158 0.960 . S
H1173 C1159 0.961 . S
H1174 C1159 0.961 . S
H1175 C1159 0.961 . S
H1176 C1160 0.931 . S
H1177 C1165 0.930 . S
H1178 C1166 0.956 . S
H1179 C1166 0.961 . S
H1180 C1166 0.961 . S
H1181 C1167 0.958 . S
H1182 C1167 0.961 1_655 S
H1183 C1167 0.960 . S
C1184 C1185 1.391 . S
C1184 C1186 1.394 . S
C1184 H1200 0.931 . S
C1185 C1184 1.391 . S
C1185 C1189 1.376 . S
C1186 C1184 1.394 . S
C1186 C1187 1.369 . S
C1186 C1190 1.531 . S
C1187 C1186 1.369 . S
C1187 C1188 1.410 . S
C1187 C1195 1.503 . S
C1188 C1187 1.410 . S
C1188 C1189 1.392 . S
C1188 C1191 1.511 . S
C1189 C1185 1.376 . S
C1189 C1188 1.392 . S
C1189 H1201 0.929 . S
C1190 C1186 1.531 . S
C1190 H1202 0.960 . S
C1190 H1203 0.962 . S
C1190 H1204 0.960 . S
C1191 C1188 1.511 . S
C1191 H1205 0.961 . S
C1191 H1206 0.961 . S
C1191 H1207 0.961 . S
C1192 C1193 1.370 . S
C1192 C1194 1.363 . S
C1192 H1208 0.931 . S
C1193 C1192 1.370 . S
C1193 C1197 1.408 . S
C1194 C1192 1.363 . S
C1194 C1195 1.370 . S
C1194 C1198 1.524 . S
C1195 C1187 1.503 . S
C1195 C1194 1.370 . S
C1195 C1196 1.403 . S
C1196 C1195 1.403 . S
C1196 C1197 1.404 . S
C1196 C1199 1.539 . S
C1197 C1193 1.408 . S
C1197 C1196 1.404 . S
C1197 H1209 0.930 . S
C1198 C1194 1.524 . S
C1198 H1210 0.956 . S
C1198 H1211 0.961 . S
C1198 H1212 0.961 . S
C1199 C1196 1.539 . S
C1199 H1213 0.958 . S
C1199 H1214 0.961 . S
C1199 H1215 0.960 . S
H1200 C1184 0.931 . S
H1201 C1189 0.929 . S
H1202 C1190 0.960 . S
H1203 C1190 0.962 . S
H1204 C1190 0.960 . S
H1205 C1191 0.961 . S
H1206 C1191 0.961 . S
H1207 C1191 0.961 . S
H1208 C1192 0.931 . S
H1209 C1197 0.930 . S
H1210 C1198 0.956 . S
H1211 C1198 0.961 . S
H1212 C1198 0.961 . S
H1213 C1199 0.958 . S
H1214 C1199 0.961 . S
H1215 C1199 0.960 . S
C449 C1 1.248 . S
C457 C305 1.224 . S
C481 C67 1.258 . S
C489 C345 1.227 . S
C521 C370 2.361 . S
C513 C97 2.401 . S
C545 C133 2.440 . S
C553 C410 2.384 . S
C585 C341 1.818 . S
C577 C25 1.779 . S
C617 C301 1.810 . S
C609 C37 1.731 . S
C649 C432 1.673 . S
C641 C103 1.673 . S
C681 C392 1.665 . S
C673 C109 1.689 . S
C705 C31 1.397 . S
C713 C434 1.392 . S
C745 C351 2.127 . S
C737 C73 2.165 . S
C769 C139 2.188 . S
C777 C311 2.159 . S
C801 C61 1.405 . S
C809 C394 1.379 . S
C841 C314 1.244 . S
C833 C175 1.130 . S
C865 C181 1.162 . S
C873 C354 1.229 . S
C897 C247 2.441 . S
C905 C391 2.392 . S
C929 C277 2.423 . S
C937 C431 2.368 . S
C961 C145 1.696 . S
C969 C352 1.806 . S
C1001 C312 1.810 . S
C993 C211 1.781 . S
C1033 C421 1.661 . S
C1025 C217 1.691 . S
C1065 C381 1.695 . S
C1057 C283 1.684 . S
C1089 C169 1.334 . S
C1097 C425 1.392 . S
C1129 C330 2.151 . S
C1121 C241 2.178 . S
C1161 C290 2.137 . S
C1153 C253 2.190 . S
C1185 C205 1.382 . S
C1193 C385 1.396 . S
