# Generated by pormake.
# Topology cml, (3,6)-cn, num edge types: 1
# Building blocks:
#     Node 0, Type 0, BuildingBlock: PAMTOO_clean_linker_0, # of connection points: 3
#     Node 1, Type 0, BuildingBlock: PAMTOO_clean_linker_0, # of connection points: 3
#     Node 2, Type 0, BuildingBlock: PAMTOO_clean_linker_0, # of connection points: 3
#     Node 3, Type 0, BuildingBlock: PAMTOO_clean_linker_0, # of connection points: 3
#     Node 4, Type 0, BuildingBlock: PAMTOO_clean_linker_0, # of connection points: 3
#     Node 5, Type 0, BuildingBlock: PAMTOO_clean_linker_0, # of connection points: 3
#     Node 6, Type 0, BuildingBlock: PAMTOO_clean_linker_0, # of connection points: 3
#     Node 7, Type 0, BuildingBlock: PAMTOO_clean_linker_0, # of connection points: 3
#     Node 8, Type 1, BuildingBlock: OJICUG_clean_sbu_0, # of connection points: 6
#     Node 9, Type 1, BuildingBlock: OJICUG_clean_sbu_0, # of connection points: 6
#     Node 10, Type 1, BuildingBlock: OJICUG_clean_sbu_0, # of connection points: 6
#     Node 11, Type 1, BuildingBlock: OJICUG_clean_sbu_0, # of connection points: 6
#     Edge 12, Type (0, 1), BuildingBlock: XIVTED_clean_linker_0, # of connection points: 2
#     Edge 13, Type (0, 1), BuildingBlock: XIVTED_clean_linker_0, # of connection points: 2
#     Edge 14, Type (0, 1), BuildingBlock: XIVTED_clean_linker_0, # of connection points: 2
#     Edge 15, Type (0, 1), BuildingBlock: XIVTED_clean_linker_0, # of connection points: 2
#     Edge 16, Type (0, 1), BuildingBlock: XIVTED_clean_linker_0, # of connection points: 2
#     Edge 17, Type (0, 1), BuildingBlock: XIVTED_clean_linker_0, # of connection points: 2
#     Edge 18, Type (0, 1), BuildingBlock: XIVTED_clean_linker_0, # of connection points: 2
#     Edge 19, Type (0, 1), BuildingBlock: XIVTED_clean_linker_0, # of connection points: 2
#     Edge 20, Type (0, 1), BuildingBlock: XIVTED_clean_linker_0, # of connection points: 2
#     Edge 21, Type (0, 1), BuildingBlock: XIVTED_clean_linker_0, # of connection points: 2
#     Edge 22, Type (0, 1), BuildingBlock: XIVTED_clean_linker_0, # of connection points: 2
#     Edge 23, Type (0, 1), BuildingBlock: XIVTED_clean_linker_0, # of connection points: 2
#     Edge 24, Type (0, 1), BuildingBlock: XIVTED_clean_linker_0, # of connection points: 2
#     Edge 25, Type (0, 1), BuildingBlock: XIVTED_clean_linker_0, # of connection points: 2
#     Edge 26, Type (0, 1), BuildingBlock: XIVTED_clean_linker_0, # of connection points: 2
#     Edge 27, Type (0, 1), BuildingBlock: XIVTED_clean_linker_0, # of connection points: 2
#     Edge 28, Type (0, 1), BuildingBlock: XIVTED_clean_linker_0, # of connection points: 2
#     Edge 29, Type (0, 1), BuildingBlock: XIVTED_clean_linker_0, # of connection points: 2
#     Edge 30, Type (0, 1), BuildingBlock: XIVTED_clean_linker_0, # of connection points: 2
#     Edge 31, Type (0, 1), BuildingBlock: XIVTED_clean_linker_0, # of connection points: 2
#     Edge 32, Type (0, 1), BuildingBlock: XIVTED_clean_linker_0, # of connection points: 2
#     Edge 33, Type (0, 1), BuildingBlock: XIVTED_clean_linker_0, # of connection points: 2
#     Edge 34, Type (0, 1), BuildingBlock: XIVTED_clean_linker_0, # of connection points: 2
#     Edge 35, Type (0, 1), BuildingBlock: XIVTED_clean_linker_0, # of connection points: 2
# Relax obj value: 0.007
# Max RMSD: 0.054
# Mean RMSD: 0.044
data_MOF--net-cml--node1-OJICUG_clean_sbu_0--node2-PAMTOO_clean_linker_0--edge1-XIVTED_clean_linker_0
_symmetry_space_group_name_H-M    P1
_symmetry_Int_Tables_number       1
_symmetry_cell_setting            triclinic
loop_
_symmetry_equiv_pos_as_xyz
'x, y, z'
_cell_length_a     40.709087
_cell_length_b     40.483746
_cell_length_c     35.203107
_cell_angle_alpha  89.856521
_cell_angle_beta   88.086567
_cell_angle_gamma 89.949681
loop_
_atom_site_label
_atom_site_type_symbol
_atom_site_fract_x
_atom_site_fract_y
_atom_site_fract_z
_atom_type_partial_charge
H0 H 0.33151 0.42611 0.03625 0.0
H1 H 0.26636 0.40751 0.94488 0.0
H2 H 0.27042 0.33945 0.03836 0.0
H3 H 0.26806 0.3094 0.9631 0.0
C4 C 0.25167 0.32736 0.94899 0.0
O5 O 0.24304 0.35244 0.97375 0.0
H6 H 0.26527 0.33765 0.92368 0.0
C7 C 0.31245 0.41137 0.02377 0.0
C8 C 0.30209 0.38211 0.04192 0.0
C9 C 0.29996 0.42081 0.98868 0.0
C10 C 0.2764 0.40071 0.97193 0.0
C11 C 0.26578 0.37153 0.98996 0.0
C12 C 0.27868 0.36216 0.02479 0.0
H13 H 0.67296 0.559 0.54935 0.0
H14 H 0.7492 0.63196 0.53755 0.0
H15 H 0.72958 0.56815 0.44413 0.0
H16 H 0.80052 0.57944 0.45003 0.0
C17 C 0.79906 0.60189 0.46818 0.0
O18 O 0.76757 0.61434 0.46852 0.0
H19 H 0.80609 0.59476 0.49741 0.0
C20 C 0.69243 0.5705 0.53229 0.0
C21 C 0.69858 0.56017 0.49464 0.0
C22 C 0.71004 0.59672 0.54778 0.0
C23 C 0.73541 0.61162 0.52607 0.0
C24 C 0.74292 0.60033 0.48925 0.0
C25 C 0.72429 0.57519 0.47336 0.0
H26 H 0.67541 0.43982 0.03933 0.0
H27 H 0.74021 0.35584 0.03531 0.0
H28 H 0.73777 0.42207 0.94024 0.0
H29 H 0.74005 0.35482 0.9177 0.0
C30 C 0.75218 0.34342 0.9424 0.0
O31 O 0.76295 0.36778 0.96625 0.0
H32 H 0.73383 0.32736 0.95764 0.0
C33 C 0.69487 0.42594 0.02491 0.0
C34 C 0.7053 0.43495 0.98789 0.0
C35 C 0.70736 0.39757 0.04241 0.0
C36 C 0.73075 0.37817 0.0226 0.0
C37 C 0.74162 0.38724 0.98591 0.0
C38 C 0.7293 0.4157 0.96883 0.0
H39 H 0.3326 0.56833 0.53086 0.0
H40 H 0.26366 0.58748 0.4434 0.0
H41 H 0.26832 0.65261 0.53921 0.0
H42 H 0.20162 0.63288 0.51611 0.0
C43 C 0.20608 0.63264 0.48472 0.0
O44 O 0.23849 0.64011 0.476 0.0
H45 H 0.20029 0.60742 0.47435 0.0
C46 C 0.31276 0.58296 0.51973 0.0
C47 C 0.30197 0.61124 0.53948 0.0
C48 C 0.2993 0.57414 0.48502 0.0
C49 C 0.27456 0.59397 0.47004 0.0
C50 C 0.26321 0.62195 0.48985 0.0
C51 C 0.27718 0.63084 0.52423 0.0
H52 H 0.83296 0.92502 0.03007 0.0
H53 H 0.76815 0.90657 0.93829 0.0
H54 H 0.76958 0.84005 0.03339 0.0
H55 H 0.76718 0.80887 0.95834 0.0
C56 C 0.75127 0.82703 0.94383 0.0
O57 O 0.74318 0.85263 0.9681 0.0
H58 H 0.7652 0.83666 0.91841 0.0
C59 C 0.81369 0.91055 0.01762 0.0
C60 C 0.80235 0.88191 0.03636 0.0
C61 C 0.80178 0.91971 0.98214 0.0
C62 C 0.77784 0.89994 0.96557 0.0
C63 C 0.76631 0.87135 0.98413 0.0
C64 C 0.77863 0.86226 0.01935 0.0
H65 H 0.17141 0.0574 0.5414 0.0
H66 H 0.24803 0.13046 0.53461 0.0
H67 H 0.23584 0.06326 0.44208 0.0
H68 H 0.30525 0.07803 0.45293 0.0
C69 C 0.30206 0.10121 0.46955 0.0
O70 O 0.27022 0.11232 0.46714 0.0
H71 H 0.30789 0.0958 0.49964 0.0
C72 C 0.19252 0.06812 0.52638 0.0
C73 C 0.20167 0.05672 0.48994 0.0
C74 C 0.20898 0.09472 0.54268 0.0
C75 C 0.2352 0.10975 0.52251 0.0
C76 C 0.24502 0.09792 0.48655 0.0
C77 C 0.22819 0.07173 0.47019 0.0
H78 H 0.17735 0.94447 0.04443 0.0
H79 H 0.24117 0.85968 0.04196 0.0
H80 H 0.24063 0.92559 0.94651 0.0
H81 H 0.241 0.85759 0.92505 0.0
C82 C 0.25303 0.84633 0.94989 0.0
O83 O 0.2645 0.87083 0.9731 0.0
H84 H 0.23439 0.83093 0.96562 0.0
C85 C 0.19695 0.93036 0.03059 0.0
C86 C 0.20802 0.93916 0.99375 0.0
C87 C 0.20872 0.90181 0.04837 0.0
C88 C 0.23226 0.88218 0.02911 0.0
C89 C 0.24364 0.89095 0.99252 0.0
C90 C 0.23192 0.91951 0.9751 0.0
H91 H 0.83064 0.06199 0.53 0.0
H92 H 0.75166 0.07852 0.4542 0.0
H93 H 0.77288 0.15098 0.53879 0.0
H94 H 0.70117 0.13607 0.52902 0.0
C95 C 0.70231 0.13133 0.49787 0.0
O96 O 0.73408 0.13524 0.48389 0.0
H97 H 0.69395 0.10553 0.49313 0.0
C98 C 0.81054 0.07722 0.52063 0.0
C99 C 0.8045 0.10792 0.53802 0.0
C100 C 0.79192 0.06641 0.49028 0.0
C101 C 0.76617 0.08628 0.47784 0.0
C102 C 0.75893 0.11631 0.49601 0.0
C103 C 0.7781 0.1272 0.52591 0.0
Sc104 Sc 0.99805 0.80441 0.3003 0.0
Sc105 Sc 0.992 0.89107 0.30797 0.0
Sc106 Sc 0.9908 0.84251 0.39063 0.0
O107 O 0.99358 0.8459 0.33297 0.0
C108 C 0.94745 0.781 0.36611 0.0
C109 C 0.94784 0.84803 0.25359 0.0
C110 C 0.93826 0.8992 0.37527 0.0
C111 C 0.04683 0.85436 0.25676 0.0
C112 C 0.04478 0.78774 0.3691 0.0
C113 C 0.03709 0.90539 0.3782 0.0
O114 O 0.96023 0.77867 0.33276 0.0
O115 O 0.957 0.8751 0.26795 0.0
O116 O 0.94991 0.8764 0.39579 0.0
O117 O 0.03689 0.82526 0.26447 0.0
O118 O 0.03101 0.80816 0.39193 0.0
O119 O 0.02692 0.91195 0.34533 0.0
O120 O 0.03565 0.78365 0.33519 0.0
O121 O 0.0328 0.88003 0.27013 0.0
O122 O 0.02605 0.8814 0.39814 0.0
O123 O 0.9606 0.82032 0.26184 0.0
O124 O 0.95589 0.80289 0.38968 0.0
O125 O 0.95108 0.90728 0.34321 0.0
Sc126 Sc 0.00333 0.19103 0.7981 0.0
Sc127 Sc 0.00413 0.10412 0.80397 0.0
Sc128 Sc 0.99864 0.15104 0.88758 0.0
O129 O 0.0019 0.1488 0.82987 0.0
C130 C 0.0488 0.20966 0.867 0.0
C131 C 0.0571 0.1454 0.75556 0.0
C132 C 0.04884 0.09164 0.87547 0.0
C133 C 0.95896 0.14508 0.7479 0.0
C134 C 0.94993 0.20853 0.86365 0.0
C135 C 0.95028 0.09097 0.86961 0.0
O136 O 0.03978 0.21313 0.83299 0.0
O137 O 0.0459 0.11863 0.76965 0.0
O138 O 0.03744 0.1157 0.89485 0.0
O139 O 0.96704 0.17352 0.75958 0.0
O140 O 0.95979 0.18676 0.8867 0.0
O141 O 0.96263 0.0854 0.8366 0.0
O142 O 0.96353 0.21335 0.83104 0.0
O143 O 0.97105 0.1185 0.76064 0.0
O144 O 0.96131 0.1131 0.89145 0.0
O145 O 0.04355 0.17336 0.76153 0.0
O146 O 0.03568 0.18886 0.88998 0.0
O147 O 0.03817 0.08403 0.84318 0.0
Sc148 Sc 0.5019 0.30225 0.30152 0.0
Sc149 Sc 0.49919 0.38921 0.30717 0.0
Sc150 Sc 0.49228 0.34212 0.39059 0.0
O151 O 0.49779 0.34441 0.33308 0.0
C152 C 0.44903 0.28066 0.36565 0.0
C153 C 0.45385 0.34717 0.25318 0.0
C154 C 0.44355 0.4008 0.37221 0.0
C155 C 0.55289 0.34942 0.25735 0.0
C156 C 0.54603 0.28622 0.37289 0.0
C157 C 0.54142 0.4031 0.37916 0.0
O158 O 0.46246 0.27787 0.33272 0.0
O159 O 0.46345 0.37412 0.26752 0.0
O160 O 0.4517 0.37631 0.39251 0.0
O161 O 0.54232 0.32083 0.26633 0.0
O162 O 0.53217 0.30765 0.39441 0.0
O163 O 0.53517 0.40817 0.34455 0.0
O164 O 0.53768 0.28115 0.33881 0.0
O165 O 0.53932 0.37573 0.26952 0.0
O166 O 0.52683 0.38131 0.39953 0.0
O167 O 0.466 0.31916 0.26157 0.0
O168 O 0.45732 0.30262 0.38915 0.0
O169 O 0.45919 0.40883 0.34175 0.0
Sc170 Sc 0.50034 0.69105 0.79985 0.0
Sc171 Sc 0.50033 0.60413 0.80568 0.0
Sc172 Sc 0.49581 0.65105 0.88944 0.0
O173 O 0.49877 0.6488 0.83167 0.0
C174 C 0.54639 0.70915 0.86857 0.0
C175 C 0.55253 0.64545 0.75535 0.0
C176 C 0.54642 0.59173 0.87575 0.0
C177 C 0.45322 0.64509 0.75215 0.0
C178 C 0.44756 0.70915 0.86568 0.0
C179 C 0.4476 0.59091 0.87299 0.0
O180 O 0.53673 0.71324 0.83489 0.0
O181 O 0.5402 0.61865 0.76803 0.0
O182 O 0.53384 0.61464 0.89614 0.0
O183 O 0.46408 0.6734 0.76108 0.0
O184 O 0.45774 0.68778 0.88904 0.0
O185 O 0.46076 0.58449 0.84063 0.0
O186 O 0.46055 0.71325 0.83265 0.0
O187 O 0.46419 0.6184 0.7659 0.0
O188 O 0.45761 0.6141 0.894 0.0
O189 O 0.54062 0.67364 0.76375 0.0
O190 O 0.53371 0.68796 0.89135 0.0
O191 O 0.53664 0.58504 0.84276 0.0
H192 H 0.21628 0.28032 0.98818 0.0
H193 H 0.08321 0.25788 0.82776 0.0
H194 H 0.21718 0.3365 0.88405 0.0
H195 H 0.07895 0.20637 0.93546 0.0
H196 H 0.13175 0.28748 0.84808 0.0
H197 H 0.16555 0.25313 0.96948 0.0
C198 C 0.20579 0.28667 0.96124 0.0
C199 C 0.22109 0.31004 0.93719 0.0
C200 C 0.12009 0.26981 0.86733 0.0
C201 C 0.16304 0.27961 0.91578 0.0
C202 C 0.09231 0.2529 0.85577 0.0
C203 C 0.07692 0.22947 0.87986 0.0
C204 C 0.13273 0.26321 0.9032 0.0
C205 C 0.08992 0.22416 0.91585 0.0
C206 C 0.17684 0.27133 0.95062 0.0
C207 C 0.20633 0.31811 0.90298 0.0
N208 N 0.11713 0.24077 0.92632 0.0
N209 N 0.17818 0.30278 0.89317 0.0
H210 H 0.82387 0.65407 0.50656 0.0
H211 H 0.92348 0.72851 0.32619 0.0
H212 H 0.82421 0.60972 0.39541 0.0
H213 H 0.91623 0.77604 0.43596 0.0
H214 H 0.88693 0.68496 0.35046 0.0
H215 H 0.85837 0.69892 0.48097 0.0
C216 C 0.83165 0.65371 0.47682 0.0
C217 C 0.822 0.62802 0.45314 0.0
C218 C 0.89324 0.70503 0.36913 0.0
C219 C 0.8607 0.67928 0.42343 0.0
C220 C 0.91406 0.72996 0.35528 0.0
C221 C 0.92315 0.75594 0.37911 0.0
C222 C 0.88152 0.70602 0.40708 0.0
C223 C 0.91008 0.75649 0.41653 0.0
C224 C 0.85109 0.67932 0.46215 0.0
C225 C 0.83181 0.62888 0.41462 0.0
N226 N 0.89009 0.73181 0.42938 0.0
N227 N 0.85078 0.65409 0.40093 0.0
H228 H 0.78987 0.35012 0.87675 0.0
H229 H 0.91302 0.20425 0.92989 0.0
H230 H 0.78049 0.29179 0.97908 0.0
H231 H 0.92062 0.25868 0.8242 0.0
H232 H 0.86501 0.23687 0.94855 0.0
H233 H 0.83834 0.31762 0.85704 0.0
C234 C 0.79795 0.33021 0.89482 0.0
C235 C 0.78099 0.323 0.92912 0.0
C236 C 0.87716 0.24172 0.92128 0.0
C237 C 0.83644 0.28625 0.90733 0.0
C238 C 0.90468 0.22311 0.91056 0.0
C239 C 0.921 0.22869 0.87535 0.0
C240 C 0.86575 0.26621 0.8967 0.0
C241 C 0.90887 0.25348 0.8516 0.0
C242 C 0.82558 0.31177 0.88369 0.0
C243 C 0.7927 0.29759 0.95209 0.0
N244 N 0.88196 0.27133 0.86272 0.0
N245 N 0.81969 0.28005 0.94074 0.0
H246 H 0.18289 0.69105 0.51414 0.0
H247 H 0.07673 0.73594 0.33336 0.0
H248 H 0.18111 0.63101 0.41336 0.0
H249 H 0.07431 0.79197 0.43771 0.0
H250 H 0.11836 0.69977 0.35982 0.0
H251 H 0.14637 0.73086 0.48432 0.0
C252 C 0.17465 0.68632 0.48572 0.0
C253 C 0.18423 0.6575 0.46641 0.0
C254 C 0.1088 0.72009 0.37681 0.0
C255 C 0.14292 0.70289 0.43189 0.0
C256 C 0.08506 0.74082 0.3617 0.0
C257 C 0.07172 0.76695 0.38341 0.0
C258 C 0.11934 0.72554 0.41388 0.0
C259 C 0.08361 0.77203 0.41996 0.0
C260 C 0.1539 0.70899 0.46866 0.0
C261 C 0.17364 0.65272 0.42934 0.0
N262 N 0.10658 0.75145 0.43405 0.0
N263 N 0.15333 0.67508 0.41333 0.0
H264 H 0.71688 0.83672 0.87894 0.0
H265 H 0.57622 0.70614 0.93722 0.0
H266 H 0.71494 0.78083 0.9833 0.0
H267 H 0.58164 0.75657 0.82886 0.0
H268 H 0.62506 0.73584 0.95606 0.0
H269 H 0.66562 0.80989 0.86133 0.0
C270 C 0.70567 0.81858 0.89796 0.0
C271 C 0.72032 0.81031 0.93217 0.0
C272 C 0.61551 0.74051 0.92821 0.0
C273 C 0.66162 0.78002 0.91273 0.0
C274 C 0.58751 0.7236 0.91742 0.0
C275 C 0.57475 0.72872 0.88128 0.0
C276 C 0.63098 0.76277 0.90276 0.0
C277 C 0.59057 0.75171 0.85696 0.0
C278 C 0.67643 0.80337 0.88803 0.0
C279 C 0.70458 0.78732 0.95635 0.0
N280 N 0.6179 0.76779 0.8681 0.0
N281 N 0.67612 0.77285 0.94611 0.0
H282 H 0.32388 0.15564 0.50642 0.0
H283 H 0.42658 0.22696 0.32659 0.0
H284 H 0.32923 0.1073 0.39749 0.0
H285 H 0.41557 0.27744 0.4343 0.0
H286 H 0.39012 0.18345 0.35117 0.0
H287 H 0.35757 0.20077 0.48006 0.0
C288 C 0.3326 0.15448 0.47703 0.0
C289 C 0.32462 0.12757 0.45423 0.0
C290 C 0.39557 0.20416 0.36931 0.0
C291 C 0.36239 0.17915 0.42359 0.0
C292 C 0.41631 0.22909 0.35526 0.0
C293 C 0.42439 0.25585 0.37847 0.0
C294 C 0.3829 0.20597 0.40684 0.0
C295 C 0.41025 0.25725 0.41537 0.0
C296 C 0.35158 0.18024 0.4619 0.0
C297 C 0.33557 0.12741 0.41607 0.0
N298 N 0.39039 0.23256 0.42845 0.0
N299 N 0.35406 0.1528 0.40192 0.0
H300 H 0.28058 0.79492 0.98775 0.0
H301 H 0.41855 0.75897 0.8256 0.0
H302 H 0.29013 0.85076 0.88361 0.0
H303 H 0.41132 0.70648 0.9326 0.0
H304 H 0.37106 0.79224 0.84564 0.0
H305 H 0.32808 0.76144 0.96735 0.0
C306 C 0.29263 0.79983 0.96041 0.0
C307 C 0.28126 0.82501 0.9369 0.0
C308 C 0.37992 0.77346 0.86472 0.0
C309 C 0.33568 0.78744 0.91357 0.0
C310 C 0.40706 0.75442 0.8533 0.0
C311 C 0.41904 0.72985 0.87744 0.0
C312 C 0.3646 0.76786 0.90048 0.0
C313 C 0.40305 0.72513 0.91301 0.0
C314 C 0.31973 0.78089 0.94881 0.0
C315 C 0.29796 0.8311 0.90215 0.0
N316 N 0.37666 0.74393 0.92341 0.0
N317 N 0.32433 0.81233 0.89142 0.0
H318 H 0.67519 0.12397 0.42827 0.0
H319 H 0.57653 0.29484 0.44023 0.0
H320 H 0.68096 0.19248 0.52126 0.0
H321 H 0.57479 0.23002 0.34303 0.0
H322 H 0.61614 0.25834 0.46916 0.0
H323 H 0.63949 0.16292 0.39552 0.0
C324 C 0.66872 0.14721 0.44177 0.0
C325 C 0.68027 0.15487 0.47775 0.0
C326 C 0.60725 0.25213 0.44142 0.0
C327 C 0.64004 0.1996 0.44054 0.0
C328 C 0.58456 0.27299 0.42482 0.0
C329 C 0.57204 0.26542 0.38917 0.0
C330 C 0.6175 0.22327 0.42244 0.0
C331 C 0.58368 0.23685 0.37056 0.0
C332 C 0.64852 0.16945 0.4231 0.0
C333 C 0.67196 0.1855 0.49383 0.0
N334 N 0.60558 0.21669 0.38754 0.0
N335 N 0.65216 0.20667 0.47522 0.0
H336 H 0.31239 0.48164 0.01876 0.0
H337 H 0.41759 0.54051 0.83557 0.0
H338 H 0.31924 0.42699 0.91373 0.0
H339 H 0.41488 0.59265 0.94257 0.0
H340 H 0.37556 0.50292 0.86089 0.0
H341 H 0.34336 0.52671 0.98835 0.0
C342 C 0.32012 0.47931 0.98914 0.0
C343 C 0.31363 0.45036 0.96886 0.0
C344 C 0.38398 0.52272 0.87875 0.0
C345 C 0.34917 0.50177 0.93391 0.0
C346 C 0.40807 0.54423 0.86434 0.0
C347 C 0.42021 0.5696 0.88713 0.0
C348 C 0.3719 0.52645 0.9163 0.0
C349 C 0.40655 0.57331 0.92404 0.0
C350 C 0.33777 0.50505 0.97179 0.0
C351 C 0.32367 0.44887 0.9304 0.0
N352 N 0.38334 0.55179 0.93757 0.0
N353 N 0.34132 0.47405 0.91429 0.0
H354 H 0.71478 0.51271 0.44084 0.0
H355 H 0.54301 0.42208 0.45318 0.0
H356 H 0.63238 0.55096 0.50797 0.0
H357 H 0.59585 0.43155 0.34533 0.0
H358 H 0.58288 0.45903 0.48164 0.0
H359 H 0.67761 0.47302 0.41209 0.0
C360 C 0.68904 0.51289 0.44961 0.0
C361 C 0.67691 0.53522 0.47725 0.0
C362 C 0.58574 0.45281 0.45179 0.0
C363 C 0.63486 0.48924 0.44536 0.0
C364 C 0.56318 0.4317 0.43562 0.0
C365 C 0.56612 0.42403 0.39686 0.0
C366 C 0.61176 0.46563 0.42924 0.0
C367 C 0.59262 0.43721 0.37527 0.0
C368 C 0.66799 0.49012 0.43331 0.0
C369 C 0.6433 0.53376 0.48776 0.0
N370 N 0.61465 0.45734 0.39184 0.0
N371 N 0.62355 0.511 0.47204 0.0
H372 H 0.68554 0.43621 0.91437 0.0
H373 H 0.57558 0.59783 0.94467 0.0
H374 H 0.68565 0.49521 0.01638 0.0
H375 H 0.57949 0.54037 0.84133 0.0
H376 H 0.61911 0.56328 0.96966 0.0
H377 H 0.651 0.47747 0.88492 0.0
C378 C 0.67886 0.45817 0.93036 0.0
C379 C 0.68834 0.46211 0.96805 0.0
C380 C 0.61055 0.55838 0.94144 0.0
C381 C 0.64796 0.50913 0.93475 0.0
C382 C 0.5856 0.57804 0.92717 0.0
C383 C 0.57354 0.57182 0.89096 0.0
C384 C 0.62349 0.53227 0.91941 0.0
C385 C 0.58774 0.54598 0.86951 0.0
C386 C 0.65883 0.48161 0.91362 0.0
C387 C 0.67842 0.49088 0.9875 0.0
N388 N 0.61179 0.52706 0.88415 0.0
N389 N 0.65849 0.51313 0.97076 0.0
H390 H 0.31691 0.56908 0.40944 0.0
H391 H 0.40576 0.39507 0.438 0.0
H392 H 0.31179 0.51281 0.51369 0.0
H393 H 0.4179 0.45501 0.33679 0.0
H394 H 0.36403 0.43363 0.46215 0.0
H395 H 0.34616 0.52311 0.37835 0.0
C396 C 0.32141 0.5468 0.42557 0.0
C397 C 0.31237 0.54488 0.4643 0.0
C398 C 0.37563 0.43819 0.43451 0.0
C399 C 0.3461 0.49246 0.42919 0.0
C400 C 0.39949 0.41615 0.42066 0.0
C401 C 0.41581 0.42201 0.38552 0.0
C402 C 0.36801 0.46637 0.41314 0.0
C403 C 0.40633 0.44965 0.36424 0.0
C404 C 0.33829 0.52067 0.40792 0.0
C405 C 0.31893 0.51552 0.48394 0.0
N406 N 0.3833 0.47095 0.37855 0.0
N407 N 0.33567 0.4906 0.46628 0.0
H408 H 0.8209 0.9249 0.90697 0.0
H409 H 0.91613 0.09456 0.93811 0.0
H410 H 0.81576 0.98049 0.01143 0.0
H411 H 0.92155 0.03899 0.83346 0.0
H412 H 0.8741 0.05652 0.96274 0.0
H413 H 0.85183 0.97013 0.87669 0.0
C414 C 0.82575 0.94688 0.92333 0.0
C415 C 0.81611 0.94877 0.96191 0.0
C416 C 0.88431 0.0528 0.93427 0.0
C417 C 0.85197 0.00036 0.92767 0.0
C418 C 0.90838 0.07452 0.92017 0.0
C419 C 0.9228 0.06979 0.88379 0.0
C420 C 0.87461 0.02602 0.91195 0.0
C421 C 0.91143 0.04349 0.8618 0.0
C422 C 0.84362 0.9726 0.90612 0.0
C423 C 0.82331 0.97774 0.98182 0.0
N424 N 0.88825 0.02246 0.87635 0.0
N425 N 0.84107 0.00224 0.9646 0.0
H426 H 0.17739 -0.00042 0.52181 0.0
H427 H 0.06913 0.95714 0.34311 0.0
H428 H 0.1804 0.05538 0.41713 0.0
H429 H 0.06534 0.90111 0.44781 0.0
H430 H 0.11238 0.99128 0.36851 0.0
H431 H 0.13925 0.96078 0.49366 0.0
C432 C 0.17017 0.00352 0.4928 0.0
C433 C 0.18187 0.03085 0.47184 0.0
C434 C 0.10215 0.97148 0.38591 0.0
C435 C 0.13827 0.98666 0.4395 0.0
C436 C 0.07733 0.95199 0.37147 0.0
C437 C 0.06334 0.92629 0.39344 0.0
C438 C 0.1131 0.96535 0.42265 0.0
C439 C 0.07524 0.92073 0.4299 0.0
C440 C 0.14846 0.98136 0.47674 0.0
C441 C 0.17216 0.03452 0.43421 0.0
N442 N 0.09936 0.94018 0.4434 0.0
N443 N 0.1507 0.01283 0.41935 0.0
H444 H 0.18964 0.0001 0.02111 0.0
H445 H 0.08156 0.03997 0.84132 0.0
H446 H 0.1877 0.93945 0.92053 0.0
H447 H 0.07825 0.09803 0.94422 0.0
H448 H 0.12525 0.00661 0.86728 0.0
H449 H 0.15419 0.04025 0.99043 0.0
C450 C 0.18207 -0.00456 0.99241 0.0
C451 C 0.19141 0.96625 0.97347 0.0
C452 C 0.11507 0.02671 0.88415 0.0
C453 C 0.15082 0.01195 0.9383 0.0
C454 C 0.08999 0.04576 0.86939 0.0
C455 C 0.07587 0.07169 0.89077 0.0
C456 C 0.12617 0.03349 0.92063 0.0
C457 C 0.08817 0.07815 0.92682 0.0
C458 C 0.16186 0.01835 0.97492 0.0
C459 C 0.18132 0.96169 0.93612 0.0
N460 N 0.11249 0.05904 0.9407 0.0
N461 N 0.16129 0.98411 0.91993 0.0
H462 H 0.80123 0.05749 0.41372 0.0
H463 H 0.90535 0.89328 0.44441 0.0
H464 H 0.8064 0.0062 0.52088 0.0
H465 H 0.90476 0.94816 0.33902 0.0
H466 H 0.86099 0.9284 0.46956 0.0
H467 H 0.82984 0.01128 0.38251 0.0
C468 C 0.80762 0.0361 0.43049 0.0
C469 C 0.80195 0.03583 0.46999 0.0
C470 C 0.87036 0.93253 0.44079 0.0
C471 C 0.83527 0.98329 0.43476 0.0
C472 C 0.89576 0.9125 0.42641 0.0
C473 C 0.9093 0.9181 0.38976 0.0
C474 C 0.85844 0.95842 0.41843 0.0
C475 C 0.89552 0.94319 0.36765 0.0
C476 C 0.82423 0.00985 0.41275 0.0
C477 C 0.81091 0.0076 0.49043 0.0
N478 N 0.87112 0.96262 0.38247 0.0
N479 N 0.82757 0.98267 0.47269 0.0
H480 H 0.32942 0.32242 0.06021 0.0
H481 H 0.41171 0.3984 0.24308 0.0
H482 H 0.30983 0.41984 0.10477 0.0
H483 H 0.43426 0.30036 0.20167 0.0
H484 H 0.36951 0.4034 0.19644 0.0
H485 H 0.36242 0.31038 0.11577 0.0
C486 C 0.33153 0.34098 0.0821 0.0
C487 C 0.31726 0.37228 0.07784 0.0
C488 C 0.38351 0.38067 0.19751 0.0
C489 C 0.35506 0.35894 0.14088 0.0
C490 C 0.40781 0.37784 0.22412 0.0
C491 C 0.42698 0.34908 0.22595 0.0
C492 C 0.37832 0.35472 0.17207 0.0
C493 C 0.42023 0.32307 0.20106 0.0
C494 C 0.35051 0.33421 0.1136 0.0
C495 C 0.32086 0.39557 0.10676 0.0
N496 N 0.39664 0.32664 0.17479 0.0
N497 N 0.33961 0.38852 0.13683 0.0
H498 H 0.69293 0.66023 0.5647 0.0
H499 H 0.58531 0.6957 0.71707 0.0
H500 H 0.70031 0.56326 0.61444 0.0
H501 H 0.5878 0.59028 0.736 0.0
H502 H 0.6324 0.69041 0.67288 0.0
H503 H 0.66038 0.67835 0.62009 0.0
C504 C 0.68864 0.64313 0.58806 0.0
C505 C 0.69891 0.61016 0.58498 0.0
C506 C 0.62262 0.66836 0.68638 0.0
C507 C 0.66137 0.6304 0.64853 0.0
C508 C 0.59569 0.67143 0.71186 0.0
C509 C 0.58203 0.64332 0.7297 0.0
C510 C 0.63583 0.63686 0.67859 0.0
C511 C 0.59696 0.61262 0.72243 0.0
C512 C 0.66983 0.65341 0.6198 0.0
C513 C 0.69244 0.58881 0.61566 0.0
N514 N 0.6228 0.61025 0.69732 0.0
N515 N 0.67366 0.59917 0.64585 0.0
H516 H 0.69789 0.43533 0.1058 0.0
H517 H 0.58116 0.30241 0.21014 0.0
H518 H 0.68448 0.33646 0.06375 0.0
H519 H 0.59061 0.40418 0.2446 0.0
H520 H 0.62576 0.311 0.1626 0.0
H521 H 0.66611 0.42071 0.16339 0.0
C522 C 0.68858 0.41038 0.10902 0.0
C523 C 0.69342 0.38717 0.0799 0.0
C524 C 0.61823 0.3313 0.18087 0.0
C525 C 0.65664 0.3703 0.14542 0.0
C526 C 0.59281 0.32642 0.20801 0.0
C527 C 0.58174 0.35277 0.23095 0.0
C528 C 0.6327 0.36268 0.17686 0.0
C529 C 0.59787 0.38329 0.2271 0.0
C530 C 0.67041 0.40202 0.14184 0.0
C531 C 0.68125 0.35505 0.08561 0.0
N532 N 0.6223 0.38744 0.20042 0.0
N533 N 0.66295 0.34767 0.11753 0.0
H534 H 0.32659 0.67127 0.56091 0.0
H535 H 0.41508 0.59144 0.73829 0.0
H536 H 0.31312 0.57089 0.59961 0.0
H537 H 0.43023 0.69285 0.70359 0.0
H538 H 0.37337 0.58592 0.69111 0.0
H539 H 0.35962 0.68231 0.61665 0.0
C540 C 0.3301 0.65177 0.58152 0.0
C541 C 0.31751 0.62002 0.57552 0.0
C542 C 0.38564 0.60948 0.6938 0.0
C543 C 0.35535 0.63226 0.63879 0.0
C544 C 0.40965 0.61264 0.72073 0.0
C545 C 0.42658 0.64256 0.72464 0.0
C546 C 0.37848 0.63632 0.67014 0.0
C547 C 0.41795 0.66926 0.7014 0.0
C548 C 0.34909 0.658 0.61313 0.0
C549 C 0.32287 0.59556 0.60288 0.0
N550 N 0.39469 0.66542 0.67484 0.0
N551 N 0.34157 0.60212 0.63309 0.0
H552 H 0.82771 0.82195 0.05716 0.0
H553 H 0.90494 0.89856 0.243 0.0
H554 H 0.80986 0.92079 0.09832 0.0
H555 H 0.92974 0.80107 0.20153 0.0
H556 H 0.86403 0.9034 0.19477 0.0
H557 H 0.85874 0.81012 0.11434 0.0
C558 C 0.82981 0.84091 0.07861 0.0
C559 C 0.81658 0.87249 0.07297 0.0
C560 C 0.87823 0.88083 0.19619 0.0
C561 C 0.85207 0.85934 0.1379 0.0
C562 C 0.90176 0.87806 0.22374 0.0
C563 C 0.92124 0.84955 0.22597 0.0
C564 C 0.87415 0.85503 0.17023 0.0
C565 C 0.91544 0.8236 0.20064 0.0
C566 C 0.84766 0.83423 0.11104 0.0
C567 C 0.82011 0.89627 0.10139 0.0
N568 N 0.89263 0.82711 0.17347 0.0
N569 N 0.8377 0.88929 0.13242 0.0
H570 H 0.18982 0.15772 0.56043 0.0
H571 H 0.10279 0.09639 0.75413 0.0
H572 H 0.19979 0.06034 0.60848 0.0
H573 H 0.07953 0.18913 0.70044 0.0
H574 H 0.14798 0.08869 0.70818 0.0
H575 H 0.15928 0.17515 0.61836 0.0
C576 C 0.18628 0.14032 0.58364 0.0
C577 C 0.19691 0.10751 0.57978 0.0
C578 C 0.13323 0.11089 0.70653 0.0
C579 C 0.162 0.12698 0.64548 0.0
C580 C 0.10731 0.11528 0.73273 0.0
C581 C 0.08689 0.14311 0.73057 0.0
C582 C 0.13869 0.13429 0.67755 0.0
C583 C 0.09446 0.16713 0.70282 0.0
C584 C 0.16871 0.15017 0.61648 0.0
C585 C 0.19161 0.08577 0.61034 0.0
N586 N 0.1195 0.16191 0.67692 0.0
N587 N 0.17425 0.0958 0.64175 0.0
H588 H 0.18654 0.84012 0.0684 0.0
H589 H 0.0835 0.91023 0.24658 0.0
H590 H 0.19524 0.93934 0.11133 0.0
H591 H 0.07694 0.80908 0.20887 0.0
H592 H 0.12927 0.91903 0.20163 0.0
H593 H 0.1522 0.82571 0.12437 0.0
C594 C 0.18186 0.85865 0.09006 0.0
C595 C 0.19339 0.89109 0.08508 0.0
C596 C 0.11803 0.89481 0.20328 0.0
C597 C 0.15368 0.875 0.14864 0.0
C598 C 0.09171 0.88979 0.22886 0.0
C599 C 0.07597 0.85899 0.23109 0.0
C600 C 0.12861 0.86897 0.17935 0.0
C601 C 0.08817 0.83331 0.20788 0.0
C602 C 0.16205 0.85049 0.12184 0.0
C603 C 0.18634 0.9142 0.1138 0.0
N604 N 0.11355 0.83899 0.18261 0.0
N605 N 0.16663 0.90582 0.14411 0.0
H606 H 0.78902 0.14087 0.605 0.0
H607 H 0.95782 0.09759 0.69388 0.0
H608 H 0.87126 0.10223 0.53829 0.0
H609 H 0.90757 0.18633 0.731 0.0
H610 H 0.92013 0.09284 0.64183 0.0
H611 H 0.8268 0.15388 0.6561 0.0
C612 C 0.81495 0.13546 0.60089 0.0
C613 C 0.82684 0.11966 0.56767 0.0
C614 C 0.91739 0.1134 0.66131 0.0
C615 C 0.86961 0.13383 0.6259 0.0
C616 C 0.93872 0.11602 0.69115 0.0
C617 C 0.93578 0.14241 0.71673 0.0
C618 C 0.89244 0.13693 0.65736 0.0
C619 C 0.91069 0.16572 0.71168 0.0
C620 C 0.83638 0.14281 0.63003 0.0
C621 C 0.86071 0.11328 0.56388 0.0
N622 N 0.88963 0.16228 0.68266 0.0
N623 N 0.88075 0.11988 0.59284 0.0
loop_
_geom_bond_atom_site_label_1
_geom_bond_atom_site_label_2
_geom_bond_distance
_geom_bond_site_symmetry_2
_ccdc_geom_bond_type
H0 C7 0.929 . S
H1 C10 0.930 . S
H2 C12 0.929 . S
H3 C4 0.969 . S
C4 H3 0.969 . S
C4 O5 1.550 1_556 S
C4 H6 0.973 . S
O5 C4 1.550 1_554 S
O5 C11 1.412 . S
H6 C4 0.973 . S
C7 H0 0.929 . S
C7 C8 1.400 . S
C7 C9 1.364 1_554 S
C8 C7 1.400 . S
C8 C12 1.377 . S
C9 C7 1.364 1_556 S
C9 C10 1.374 . S
C10 H1 0.930 . S
C10 C9 1.374 . S
C10 C11 1.383 1_556 S
C11 O5 1.412 . S
C11 C10 1.383 1_554 S
C11 C12 1.394 . S
C12 H2 0.929 . S
C12 C8 1.377 . S
C12 C11 1.394 . S
H13 C20 0.929 . S
H14 C23 0.930 . S
H15 C25 0.929 . S
H16 C17 0.969 . S
C17 H16 0.969 . S
C17 O18 1.550 . S
C17 H19 0.973 . S
O18 C17 1.550 . S
O18 C24 1.412 . S
H19 C17 0.973 . S
C20 H13 0.929 . S
C20 C21 1.400 . S
C20 C22 1.364 . S
C21 C20 1.400 . S
C21 C25 1.377 . S
C22 C20 1.364 . S
C22 C23 1.374 . S
C23 H14 0.930 . S
C23 C22 1.374 . S
C23 C24 1.383 . S
C24 O18 1.412 . S
C24 C23 1.383 . S
C24 C25 1.394 . S
C25 H15 0.929 . S
C25 C21 1.377 . S
C25 C24 1.394 . S
H26 C33 0.929 . S
H27 C36 0.930 . S
H28 C38 0.929 . S
H29 C30 0.969 . S
C30 H29 0.969 . S
C30 O31 1.550 . S
C30 H32 0.973 1_556 S
O31 C30 1.550 . S
O31 C37 1.412 . S
H32 C30 0.973 1_554 S
C33 H26 0.929 . S
C33 C34 1.400 1_554 S
C33 C35 1.364 . S
C34 C33 1.400 1_556 S
C34 C38 1.377 . S
C35 C33 1.364 . S
C35 C36 1.374 . S
C36 H27 0.930 . S
C36 C35 1.374 . S
C36 C37 1.383 1_554 S
C37 O31 1.412 . S
C37 C36 1.383 1_556 S
C37 C38 1.394 . S
C38 H28 0.929 . S
C38 C34 1.377 . S
C38 C37 1.394 . S
H39 C46 0.929 . S
H40 C49 0.930 . S
H41 C51 0.929 . S
H42 C43 0.969 . S
C43 H42 0.969 . S
C43 O44 1.550 . S
C43 H45 0.973 . S
O44 C43 1.550 . S
O44 C50 1.412 . S
H45 C43 0.973 . S
C46 H39 0.929 . S
C46 C47 1.400 . S
C46 C48 1.364 . S
C47 C46 1.400 . S
C47 C51 1.377 . S
C48 C46 1.364 . S
C48 C49 1.374 . S
C49 H40 0.930 . S
C49 C48 1.374 . S
C49 C50 1.383 . S
C50 O44 1.412 . S
C50 C49 1.383 . S
C50 C51 1.394 . S
C51 H41 0.929 . S
C51 C47 1.377 . S
C51 C50 1.394 . S
H52 C59 0.929 . S
H53 C62 0.930 . S
H54 C64 0.929 . S
H55 C56 0.969 . S
C56 H55 0.969 . S
C56 O57 1.550 1_556 S
C56 H58 0.973 . S
O57 C56 1.550 1_554 S
O57 C63 1.412 . S
H58 C56 0.973 . S
C59 H52 0.929 . S
C59 C60 1.400 . S
C59 C61 1.364 1_554 S
C60 C59 1.400 . S
C60 C64 1.377 . S
C61 C59 1.364 1_556 S
C61 C62 1.374 . S
C62 H53 0.930 . S
C62 C61 1.374 . S
C62 C63 1.383 1_556 S
C63 O57 1.412 . S
C63 C62 1.383 1_554 S
C63 C64 1.394 . S
C64 H54 0.929 . S
C64 C60 1.377 . S
C64 C63 1.394 . S
H65 C72 0.929 . S
H66 C75 0.930 . S
H67 C77 0.929 . S
H68 C69 0.969 . S
C69 H68 0.969 . S
C69 O70 1.550 . S
C69 H71 0.973 . S
O70 C69 1.550 . S
O70 C76 1.412 . S
H71 C69 0.973 . S
C72 H65 0.929 . S
C72 C73 1.400 . S
C72 C74 1.364 . S
C73 C72 1.400 . S
C73 C77 1.377 . S
C74 C72 1.364 . S
C74 C75 1.374 . S
C75 H66 0.930 . S
C75 C74 1.374 . S
C75 C76 1.383 . S
C76 O70 1.412 . S
C76 C75 1.383 . S
C76 C77 1.394 . S
C77 H67 0.929 . S
C77 C73 1.377 . S
C77 C76 1.394 . S
H78 C85 0.929 . S
H79 C88 0.930 . S
H80 C90 0.929 . S
H81 C82 0.969 . S
C82 H81 0.969 . S
C82 O83 1.550 . S
C82 H84 0.973 1_556 S
O83 C82 1.550 . S
O83 C89 1.412 . S
H84 C82 0.973 1_554 S
C85 H78 0.929 . S
C85 C86 1.400 1_554 S
C85 C87 1.364 . S
C86 C85 1.400 1_556 S
C86 C90 1.377 . S
C87 C85 1.364 . S
C87 C88 1.374 . S
C88 H79 0.930 . S
C88 C87 1.374 . S
C88 C89 1.383 1_554 S
C89 O83 1.412 . S
C89 C88 1.383 1_556 S
C89 C90 1.394 . S
C90 H80 0.929 . S
C90 C86 1.377 . S
C90 C89 1.394 . S
H91 C98 0.929 . S
H92 C101 0.930 . S
H93 C103 0.929 . S
H94 C95 0.969 . S
C95 H94 0.969 . S
C95 O96 1.550 . S
C95 H97 0.973 . S
O96 C95 1.550 . S
O96 C102 1.412 . S
H97 C95 0.973 . S
C98 H91 0.929 . S
C98 C99 1.400 . S
C98 C100 1.364 . S
C99 C98 1.400 . S
C99 C103 1.377 . S
C100 C98 1.364 . S
C100 C101 1.374 . S
C101 H92 0.930 . S
C101 C100 1.374 . S
C101 C102 1.383 . S
C102 O96 1.412 . S
C102 C101 1.383 . S
C102 C103 1.394 . S
C103 H93 0.929 . S
C103 C99 1.377 . S
C103 C102 1.394 . S
Sc104 O107 2.025 . S
Sc104 O114 2.105 1_455 S
Sc104 O117 2.105 . S
Sc104 O120 2.105 . S
Sc104 O123 2.105 1_455 S
Sc105 O107 2.025 . S
Sc105 O115 2.105 1_455 S
Sc105 O119 2.105 . S
Sc105 O121 2.105 . S
Sc105 O125 2.105 1_455 S
Sc106 O107 2.025 . S
Sc106 O116 2.092 1_455 S
Sc106 O118 2.118 . S
Sc106 O122 2.118 . S
Sc106 O124 2.092 1_455 S
O107 Sc104 2.025 . S
O107 Sc105 2.025 . S
O107 Sc106 2.025 . S
C108 O114 1.268 . S
C108 O124 1.268 . S
C109 O115 1.268 . S
C109 O123 1.268 . S
C110 O116 1.268 . S
C110 O125 1.268 . S
C111 O117 1.268 . S
C111 O121 1.268 . S
C112 O118 1.268 . S
C112 O120 1.268 . S
C113 O119 1.268 . S
C113 O122 1.268 . S
O114 Sc104 2.105 1_655 S
O114 C108 1.268 . S
O115 Sc105 2.105 1_655 S
O115 C109 1.268 . S
O116 Sc106 2.092 1_655 S
O116 C110 1.268 . S
O117 Sc104 2.105 . S
O117 C111 1.268 . S
O118 Sc106 2.118 . S
O118 C112 1.268 . S
O119 Sc105 2.105 . S
O119 C113 1.268 . S
O120 Sc104 2.105 . S
O120 C112 1.268 . S
O121 Sc105 2.105 . S
O121 C111 1.268 . S
O122 Sc106 2.118 . S
O122 C113 1.268 . S
O123 Sc104 2.105 1_655 S
O123 C109 1.268 . S
O124 Sc106 2.092 1_655 S
O124 C108 1.268 . S
O125 Sc105 2.105 1_655 S
O125 C110 1.268 . S
Sc126 O129 2.025 . S
Sc126 O136 2.105 . S
Sc126 O139 2.105 1_455 S
Sc126 O142 2.105 1_455 S
Sc126 O145 2.105 . S
Sc127 O129 2.025 . S
Sc127 O137 2.105 . S
Sc127 O141 2.105 1_455 S
Sc127 O143 2.105 1_455 S
Sc127 O147 2.105 . S
Sc128 O129 2.025 . S
Sc128 O138 2.118 . S
Sc128 O140 2.092 1_455 S
Sc128 O144 2.092 1_455 S
Sc128 O146 2.118 . S
O129 Sc126 2.025 . S
O129 Sc127 2.025 . S
O129 Sc128 2.025 . S
C130 O136 1.268 . S
C130 O146 1.268 . S
C131 O137 1.268 . S
C131 O145 1.268 . S
C132 O138 1.268 . S
C132 O147 1.268 . S
C133 O139 1.268 . S
C133 O143 1.268 . S
C134 O140 1.268 . S
C134 O142 1.268 . S
C135 O141 1.268 . S
C135 O144 1.268 . S
O136 Sc126 2.105 . S
O136 C130 1.268 . S
O137 Sc127 2.105 . S
O137 C131 1.268 . S
O138 Sc128 2.118 . S
O138 C132 1.268 . S
O139 Sc126 2.105 1_655 S
O139 C133 1.268 . S
O140 Sc128 2.092 1_655 S
O140 C134 1.268 . S
O141 Sc127 2.105 1_655 S
O141 C135 1.268 . S
O142 Sc126 2.105 1_655 S
O142 C134 1.268 . S
O143 Sc127 2.105 1_655 S
O143 C133 1.268 . S
O144 Sc128 2.092 1_655 S
O144 C135 1.268 . S
O145 Sc126 2.105 . S
O145 C131 1.268 . S
O146 Sc128 2.118 . S
O146 C130 1.268 . S
O147 Sc127 2.105 . S
O147 C132 1.268 . S
Sc148 O151 2.025 . S
Sc148 O158 2.105 . S
Sc148 O161 2.105 . S
Sc148 O164 2.105 . S
Sc148 O167 2.105 . S
Sc149 O151 2.025 . S
Sc149 O159 2.105 . S
Sc149 O163 2.105 . S
Sc149 O165 2.105 . S
Sc149 O169 2.105 . S
Sc150 O151 2.025 . S
Sc150 O160 2.105 . S
Sc150 O162 2.105 . S
Sc150 O166 2.105 . S
Sc150 O168 2.105 . S
O151 Sc148 2.025 . S
O151 Sc149 2.025 . S
O151 Sc150 2.025 . S
C152 O158 1.268 . S
C152 O168 1.268 . S
C153 O159 1.268 . S
C153 O167 1.268 . S
C154 O160 1.268 . S
C154 O169 1.268 . S
C155 O161 1.268 . S
C155 O165 1.268 . S
C156 O162 1.268 . S
C156 O164 1.268 . S
C157 O163 1.268 . S
C157 O166 1.268 . S
O158 Sc148 2.105 . S
O158 C152 1.268 . S
O159 Sc149 2.105 . S
O159 C153 1.268 . S
O160 Sc150 2.105 . S
O160 C154 1.268 . S
O161 Sc148 2.105 . S
O161 C155 1.268 . S
O162 Sc150 2.105 . S
O162 C156 1.268 . S
O163 Sc149 2.105 . S
O163 C157 1.268 . S
O164 Sc148 2.105 . S
O164 C156 1.268 . S
O165 Sc149 2.105 . S
O165 C155 1.268 . S
O166 Sc150 2.105 . S
O166 C157 1.268 . S
O167 Sc148 2.105 . S
O167 C153 1.268 . S
O168 Sc150 2.105 . S
O168 C152 1.268 . S
O169 Sc149 2.105 . S
O169 C154 1.268 . S
Sc170 O173 2.025 . S
Sc170 O180 2.105 . S
Sc170 O183 2.105 . S
Sc170 O186 2.105 . S
Sc170 O189 2.105 . S
Sc171 O173 2.025 . S
Sc171 O181 2.105 . S
Sc171 O185 2.105 . S
Sc171 O187 2.105 . S
Sc171 O191 2.105 . S
Sc172 O173 2.025 . S
Sc172 O182 2.105 . S
Sc172 O184 2.105 . S
Sc172 O188 2.105 . S
Sc172 O190 2.105 . S
O173 Sc170 2.025 . S
O173 Sc171 2.025 . S
O173 Sc172 2.025 . S
C174 O180 1.268 . S
C174 O190 1.268 . S
C175 O181 1.268 . S
C175 O189 1.268 . S
C176 O182 1.268 . S
C176 O191 1.268 . S
C177 O183 1.268 . S
C177 O187 1.268 . S
C178 O184 1.268 . S
C178 O186 1.268 . S
C179 O185 1.268 . S
C179 O188 1.268 . S
O180 Sc170 2.105 . S
O180 C174 1.268 . S
O181 Sc171 2.105 . S
O181 C175 1.268 . S
O182 Sc172 2.105 . S
O182 C176 1.268 . S
O183 Sc170 2.105 . S
O183 C177 1.268 . S
O184 Sc172 2.105 . S
O184 C178 1.268 . S
O185 Sc171 2.105 . S
O185 C179 1.268 . S
O186 Sc170 2.105 . S
O186 C178 1.268 . S
O187 Sc171 2.105 . S
O187 C177 1.268 . S
O188 Sc172 2.105 . S
O188 C179 1.268 . S
O189 Sc170 2.105 . S
O189 C175 1.268 . S
O190 Sc172 2.105 . S
O190 C174 1.268 . S
O191 Sc171 2.105 . S
O191 C176 1.268 . S
H192 C198 0.930 1_554 S
H193 C202 0.930 . S
H194 C207 0.929 . S
H195 C205 0.929 . S
H196 C200 0.929 . S
H197 C206 0.929 . S
C198 H192 0.930 1_556 S
C198 C199 1.367 . S
C198 C206 1.378 . S
C199 C198 1.367 . S
C199 C207 1.433 . S
C200 H196 0.929 . S
C200 C202 1.378 . S
C200 C204 1.350 . S
C201 C204 1.463 . S
C201 C206 1.350 . S
C201 N209 1.427 . S
C202 H193 0.930 . S
C202 C200 1.378 . S
C202 C203 1.367 . S
C203 C202 1.367 . S
C203 C205 1.433 . S
C204 C200 1.350 . S
C204 C201 1.463 . S
C204 N208 1.427 . S
C205 H195 0.929 . S
C205 C203 1.433 . S
C205 N208 1.384 . S
C206 H197 0.929 . S
C206 C198 1.378 . S
C206 C201 1.350 . S
C207 H194 0.929 . S
C207 C199 1.433 . S
C207 N209 1.384 . S
N208 C204 1.427 . S
N208 C205 1.384 . S
N209 C201 1.427 . S
N209 C207 1.384 . S
H210 C216 0.930 . S
H211 C220 0.930 . S
H212 C225 0.929 . S
H213 C223 0.929 . S
H214 C218 0.929 . S
H215 C224 0.929 . S
C216 H210 0.930 . S
C216 C217 1.367 . S
C216 C224 1.378 . S
C217 C216 1.367 . S
C217 C225 1.433 . S
C218 H214 0.929 . S
C218 C220 1.378 . S
C218 C222 1.350 . S
C219 C222 1.463 . S
C219 C224 1.350 . S
C219 N227 1.427 . S
C220 H211 0.930 . S
C220 C218 1.378 . S
C220 C221 1.367 . S
C221 C220 1.367 . S
C221 C223 1.433 . S
C222 C218 1.350 . S
C222 C219 1.463 . S
C222 N226 1.427 . S
C223 H213 0.929 . S
C223 C221 1.433 . S
C223 N226 1.384 . S
C224 H215 0.929 . S
C224 C216 1.378 . S
C224 C219 1.350 . S
C225 H212 0.929 . S
C225 C217 1.433 . S
C225 N227 1.384 . S
N226 C222 1.427 . S
N226 C223 1.384 . S
N227 C219 1.427 . S
N227 C225 1.384 . S
H228 C234 0.930 . S
H229 C238 0.930 . S
H230 C243 0.929 1_554 S
H231 C241 0.929 . S
H232 C236 0.929 . S
H233 C242 0.929 . S
C234 H228 0.930 . S
C234 C235 1.367 . S
C234 C242 1.378 . S
C235 C234 1.367 . S
C235 C243 1.433 . S
C236 H232 0.929 . S
C236 C238 1.378 . S
C236 C240 1.350 . S
C237 C240 1.463 . S
C237 C242 1.350 . S
C237 N245 1.427 . S
C238 H229 0.930 . S
C238 C236 1.378 . S
C238 C239 1.367 . S
C239 C238 1.367 . S
C239 C241 1.433 . S
C240 C236 1.350 . S
C240 C237 1.463 . S
C240 N244 1.427 . S
C241 H231 0.929 . S
C241 C239 1.433 . S
C241 N244 1.384 . S
C242 H233 0.929 . S
C242 C234 1.378 . S
C242 C237 1.350 . S
C243 H230 0.929 1_556 S
C243 C235 1.433 . S
C243 N245 1.384 . S
N244 C240 1.427 . S
N244 C241 1.384 . S
N245 C237 1.427 . S
N245 C243 1.384 . S
H246 C252 0.930 . S
H247 C256 0.930 . S
H248 C261 0.929 . S
H249 C259 0.929 . S
H250 C254 0.929 . S
H251 C260 0.929 . S
C252 H246 0.930 . S
C252 C253 1.367 . S
C252 C260 1.378 . S
C253 C252 1.367 . S
C253 C261 1.433 . S
C254 H250 0.929 . S
C254 C256 1.378 . S
C254 C258 1.350 . S
C255 C258 1.463 . S
C255 C260 1.350 . S
C255 N263 1.427 . S
C256 H247 0.930 . S
C256 C254 1.378 . S
C256 C257 1.367 . S
C257 C256 1.367 . S
C257 C259 1.433 . S
C258 C254 1.350 . S
C258 C255 1.463 . S
C258 N262 1.427 . S
C259 H249 0.929 . S
C259 C257 1.433 . S
C259 N262 1.384 . S
C260 H251 0.929 . S
C260 C252 1.378 . S
C260 C255 1.350 . S
C261 H248 0.929 . S
C261 C253 1.433 . S
C261 N263 1.384 . S
N262 C258 1.427 . S
N262 C259 1.384 . S
N263 C255 1.427 . S
N263 C261 1.384 . S
H264 C270 0.930 . S
H265 C274 0.930 . S
H266 C279 0.929 1_554 S
H267 C277 0.929 . S
H268 C272 0.929 . S
H269 C278 0.929 . S
C270 H264 0.930 . S
C270 C271 1.367 . S
C270 C278 1.378 . S
C271 C270 1.367 . S
C271 C279 1.433 . S
C272 H268 0.929 . S
C272 C274 1.378 . S
C272 C276 1.350 . S
C273 C276 1.463 . S
C273 C278 1.350 . S
C273 N281 1.427 . S
C274 H265 0.930 . S
C274 C272 1.378 . S
C274 C275 1.367 . S
C275 C274 1.367 . S
C275 C277 1.433 . S
C276 C272 1.350 . S
C276 C273 1.463 . S
C276 N280 1.427 . S
C277 H267 0.929 . S
C277 C275 1.433 . S
C277 N280 1.384 . S
C278 H269 0.929 . S
C278 C270 1.378 . S
C278 C273 1.350 . S
C279 H266 0.929 1_556 S
C279 C271 1.433 . S
C279 N281 1.384 . S
N280 C276 1.427 . S
N280 C277 1.384 . S
N281 C273 1.427 . S
N281 C279 1.384 . S
H282 C288 0.930 . S
H283 C292 0.930 . S
H284 C297 0.929 . S
H285 C295 0.929 . S
H286 C290 0.929 . S
H287 C296 0.929 . S
C288 H282 0.930 . S
C288 C289 1.367 . S
C288 C296 1.378 . S
C289 C288 1.367 . S
C289 C297 1.433 . S
C290 H286 0.929 . S
C290 C292 1.378 . S
C290 C294 1.350 . S
C291 C294 1.463 . S
C291 C296 1.350 . S
C291 N299 1.427 . S
C292 H283 0.930 . S
C292 C290 1.378 . S
C292 C293 1.367 . S
C293 C292 1.367 . S
C293 C295 1.433 . S
C294 C290 1.350 . S
C294 C291 1.463 . S
C294 N298 1.427 . S
C295 H285 0.929 . S
C295 C293 1.433 . S
C295 N298 1.384 . S
C296 H287 0.929 . S
C296 C288 1.378 . S
C296 C291 1.350 . S
C297 H284 0.929 . S
C297 C289 1.433 . S
C297 N299 1.384 . S
N298 C294 1.427 . S
N298 C295 1.384 . S
N299 C291 1.427 . S
N299 C297 1.384 . S
H300 C306 0.930 1_554 S
H301 C310 0.930 . S
H302 C315 0.929 . S
H303 C313 0.929 . S
H304 C308 0.929 . S
H305 C314 0.929 . S
C306 H300 0.930 1_556 S
C306 C307 1.367 . S
C306 C314 1.378 . S
C307 C306 1.367 . S
C307 C315 1.433 . S
C308 H304 0.929 . S
C308 C310 1.378 . S
C308 C312 1.350 . S
C309 C312 1.463 . S
C309 C314 1.350 . S
C309 N317 1.427 . S
C310 H301 0.930 . S
C310 C308 1.378 . S
C310 C311 1.367 . S
C311 C310 1.367 . S
C311 C313 1.433 . S
C312 C308 1.350 . S
C312 C309 1.463 . S
C312 N316 1.427 . S
C313 H303 0.929 . S
C313 C311 1.433 . S
C313 N316 1.384 . S
C314 H305 0.929 . S
C314 C306 1.378 . S
C314 C309 1.350 . S
C315 H302 0.929 . S
C315 C307 1.433 . S
C315 N317 1.384 . S
N316 C312 1.427 . S
N316 C313 1.384 . S
N317 C309 1.427 . S
N317 C315 1.384 . S
H318 C324 0.930 . S
H319 C328 0.930 . S
H320 C333 0.929 . S
H321 C331 0.929 . S
H322 C326 0.929 . S
H323 C332 0.929 . S
C324 H318 0.930 . S
C324 C325 1.367 . S
C324 C332 1.378 . S
C325 C324 1.367 . S
C325 C333 1.433 . S
C326 H322 0.929 . S
C326 C328 1.378 . S
C326 C330 1.350 . S
C327 C330 1.463 . S
C327 C332 1.350 . S
C327 N335 1.427 . S
C328 H319 0.930 . S
C328 C326 1.378 . S
C328 C329 1.367 . S
C329 C328 1.367 . S
C329 C331 1.433 . S
C330 C326 1.350 . S
C330 C327 1.463 . S
C330 N334 1.427 . S
C331 H321 0.929 . S
C331 C329 1.433 . S
C331 N334 1.384 . S
C332 H323 0.929 . S
C332 C324 1.378 . S
C332 C327 1.350 . S
C333 H320 0.929 . S
C333 C325 1.433 . S
C333 N335 1.384 . S
N334 C330 1.427 . S
N334 C331 1.384 . S
N335 C327 1.427 . S
N335 C333 1.384 . S
H336 C342 0.930 1_554 S
H337 C346 0.930 . S
H338 C351 0.929 . S
H339 C349 0.929 . S
H340 C344 0.929 . S
H341 C350 0.929 . S
C342 H336 0.930 1_556 S
C342 C343 1.367 . S
C342 C350 1.378 . S
C343 C342 1.367 . S
C343 C351 1.433 . S
C344 H340 0.929 . S
C344 C346 1.378 . S
C344 C348 1.350 . S
C345 C348 1.463 . S
C345 C350 1.350 . S
C345 N353 1.427 . S
C346 H337 0.930 . S
C346 C344 1.378 . S
C346 C347 1.367 . S
C347 C346 1.367 . S
C347 C349 1.433 . S
C348 C344 1.350 . S
C348 C345 1.463 . S
C348 N352 1.427 . S
C349 H339 0.929 . S
C349 C347 1.433 . S
C349 N352 1.384 . S
C350 H341 0.929 . S
C350 C342 1.378 . S
C350 C345 1.350 . S
C351 H338 0.929 . S
C351 C343 1.433 . S
C351 N353 1.384 . S
N352 C348 1.427 . S
N352 C349 1.384 . S
N353 C345 1.427 . S
N353 C351 1.384 . S
H354 C360 0.930 . S
H355 C364 0.930 . S
H356 C369 0.929 . S
H357 C367 0.929 . S
H358 C362 0.929 . S
H359 C368 0.929 . S
C360 H354 0.930 . S
C360 C361 1.367 . S
C360 C368 1.378 . S
C361 C360 1.367 . S
C361 C369 1.433 . S
C362 H358 0.929 . S
C362 C364 1.378 . S
C362 C366 1.350 . S
C363 C366 1.463 . S
C363 C368 1.350 . S
C363 N371 1.427 . S
C364 H355 0.930 . S
C364 C362 1.378 . S
C364 C365 1.367 . S
C365 C364 1.367 . S
C365 C367 1.433 . S
C366 C362 1.350 . S
C366 C363 1.463 . S
C366 N370 1.427 . S
C367 H357 0.929 . S
C367 C365 1.433 . S
C367 N370 1.384 . S
C368 H359 0.929 . S
C368 C360 1.378 . S
C368 C363 1.350 . S
C369 H356 0.929 . S
C369 C361 1.433 . S
C369 N371 1.384 . S
N370 C366 1.427 . S
N370 C367 1.384 . S
N371 C363 1.427 . S
N371 C369 1.384 . S
H372 C378 0.930 . S
H373 C382 0.930 . S
H374 C387 0.929 1_554 S
H375 C385 0.929 . S
H376 C380 0.929 . S
H377 C386 0.929 . S
C378 H372 0.930 . S
C378 C379 1.367 . S
C378 C386 1.378 . S
C379 C378 1.367 . S
C379 C387 1.433 . S
C380 H376 0.929 . S
C380 C382 1.378 . S
C380 C384 1.350 . S
C381 C384 1.463 . S
C381 C386 1.350 . S
C381 N389 1.427 . S
C382 H373 0.930 . S
C382 C380 1.378 . S
C382 C383 1.367 . S
C383 C382 1.367 . S
C383 C385 1.433 . S
C384 C380 1.350 . S
C384 C381 1.463 . S
C384 N388 1.427 . S
C385 H375 0.929 . S
C385 C383 1.433 . S
C385 N388 1.384 . S
C386 H377 0.929 . S
C386 C378 1.378 . S
C386 C381 1.350 . S
C387 H374 0.929 1_556 S
C387 C379 1.433 . S
C387 N389 1.384 . S
N388 C384 1.427 . S
N388 C385 1.384 . S
N389 C381 1.427 . S
N389 C387 1.384 . S
H390 C396 0.930 . S
H391 C400 0.930 . S
H392 C405 0.929 . S
H393 C403 0.929 . S
H394 C398 0.929 . S
H395 C404 0.929 . S
C396 H390 0.930 . S
C396 C397 1.367 . S
C396 C404 1.378 . S
C397 C396 1.367 . S
C397 C405 1.433 . S
C398 H394 0.929 . S
C398 C400 1.378 . S
C398 C402 1.350 . S
C399 C402 1.463 . S
C399 C404 1.350 . S
C399 N407 1.427 . S
C400 H391 0.930 . S
C400 C398 1.378 . S
C400 C401 1.367 . S
C401 C400 1.367 . S
C401 C403 1.433 . S
C402 C398 1.350 . S
C402 C399 1.463 . S
C402 N406 1.427 . S
C403 H393 0.929 . S
C403 C401 1.433 . S
C403 N406 1.384 . S
C404 H395 0.929 . S
C404 C396 1.378 . S
C404 C399 1.350 . S
C405 H392 0.929 . S
C405 C397 1.433 . S
C405 N407 1.384 . S
N406 C402 1.427 . S
N406 C403 1.384 . S
N407 C399 1.427 . S
N407 C405 1.384 . S
H408 C414 0.930 . S
H409 C418 0.930 . S
H410 C423 0.929 1_554 S
H411 C421 0.929 . S
H412 C416 0.929 . S
H413 C422 0.929 . S
C414 H408 0.930 . S
C414 C415 1.367 . S
C414 C422 1.378 . S
C415 C414 1.367 . S
C415 C423 1.433 . S
C416 H412 0.929 . S
C416 C418 1.378 . S
C416 C420 1.350 . S
C417 C420 1.463 1_565 S
C417 C422 1.350 . S
C417 N425 1.427 . S
C418 H409 0.930 . S
C418 C416 1.378 . S
C418 C419 1.367 . S
C419 C418 1.367 . S
C419 C421 1.433 . S
C420 C416 1.350 . S
C420 C417 1.463 1_545 S
C420 N424 1.427 . S
C421 H411 0.929 . S
C421 C419 1.433 . S
C421 N424 1.384 . S
C422 H413 0.929 . S
C422 C414 1.378 . S
C422 C417 1.350 . S
C423 H410 0.929 1_556 S
C423 C415 1.433 . S
C423 N425 1.384 . S
N424 C420 1.427 . S
N424 C421 1.384 . S
N425 C417 1.427 . S
N425 C423 1.384 . S
H426 C432 0.930 . S
H427 C436 0.930 . S
H428 C441 0.929 . S
H429 C439 0.929 . S
H430 C434 0.929 1_545 S
H431 C440 0.929 . S
C432 H426 0.930 . S
C432 C433 1.367 . S
C432 C440 1.378 1_545 S
C433 C432 1.367 . S
C433 C441 1.433 . S
C434 H430 0.929 1_565 S
C434 C436 1.378 . S
C434 C438 1.350 . S
C435 C438 1.463 1_545 S
C435 C440 1.350 1_545 S
C435 N443 1.427 . S
C436 H427 0.930 . S
C436 C434 1.378 . S
C436 C437 1.367 . S
C437 C436 1.367 . S
C437 C439 1.433 . S
C438 C434 1.350 . S
C438 C435 1.463 1_565 S
C438 N442 1.427 . S
C439 H429 0.929 . S
C439 C437 1.433 . S
C439 N442 1.384 . S
C440 H431 0.929 . S
C440 C432 1.378 1_565 S
C440 C435 1.350 1_565 S
C441 H428 0.929 . S
C441 C433 1.433 . S
C441 N443 1.384 . S
N442 C438 1.427 . S
N442 C439 1.384 . S
N443 C435 1.427 . S
N443 C441 1.384 . S
H444 C450 0.930 1_554 S
H445 C454 0.930 . S
H446 C459 0.929 . S
H447 C457 0.929 . S
H448 C452 0.929 1_565 S
H449 C458 0.930 . S
C450 H444 0.930 1_556 S
C450 C451 1.367 . S
C450 C458 1.376 1_565 S
C451 C450 1.367 . S
C451 C459 1.433 . S
C452 H448 0.929 1_545 S
C452 C454 1.378 . S
C452 C456 1.350 . S
C453 C456 1.463 1_565 S
C453 C458 1.350 1_565 S
C453 N461 1.427 . S
C454 H445 0.930 . S
C454 C452 1.378 . S
C454 C455 1.367 . S
C455 C454 1.367 . S
C455 C457 1.433 . S
C456 C452 1.350 . S
C456 C453 1.463 1_545 S
C456 N460 1.427 . S
C457 H447 0.929 . S
C457 C455 1.433 . S
C457 N460 1.384 . S
C458 H449 0.930 . S
C458 C450 1.376 1_545 S
C458 C453 1.350 1_545 S
C459 H446 0.929 . S
C459 C451 1.433 . S
C459 N461 1.384 . S
N460 C456 1.427 . S
N460 C457 1.384 . S
N461 C453 1.427 . S
N461 C459 1.384 . S
H462 C468 0.930 . S
H463 C472 0.930 . S
H464 C477 0.929 . S
H465 C475 0.929 . S
H466 C470 0.929 . S
H467 C476 0.929 . S
C468 H462 0.930 . S
C468 C469 1.367 . S
C468 C476 1.378 . S
C469 C468 1.367 . S
C469 C477 1.433 . S
C470 H466 0.929 . S
C470 C472 1.378 . S
C470 C474 1.350 . S
C471 C474 1.463 1_545 S
C471 C476 1.350 . S
C471 N479 1.432 . S
C472 H463 0.930 . S
C472 C470 1.378 . S
C472 C473 1.367 . S
C473 C472 1.367 . S
C473 C475 1.433 . S
C474 C470 1.350 . S
C474 C471 1.463 1_565 S
C474 N478 1.427 1_565 S
C475 H465 0.929 . S
C475 C473 1.433 . S
C475 N478 1.384 1_565 S
C476 H467 0.929 . S
C476 C468 1.378 . S
C476 C471 1.350 . S
C477 H464 0.929 . S
C477 C469 1.433 . S
C477 N479 1.392 . S
N478 C474 1.427 1_545 S
N478 C475 1.384 1_545 S
N479 C471 1.432 . S
N479 C477 1.392 . S
H480 C486 0.930 . S
H481 C490 0.930 . S
H482 C495 0.929 . S
H483 C493 0.929 . S
H484 C488 0.929 . S
H485 C494 0.929 . S
C486 H480 0.930 . S
C486 C487 1.367 . S
C486 C494 1.378 . S
C487 C486 1.367 . S
C487 C495 1.433 . S
C488 H484 0.929 . S
C488 C490 1.378 . S
C488 C492 1.350 . S
C489 C492 1.463 . S
C489 C494 1.350 . S
C489 N497 1.427 . S
C490 H481 0.930 . S
C490 C488 1.378 . S
C490 C491 1.367 . S
C491 C490 1.367 . S
C491 C493 1.433 . S
C492 C488 1.350 . S
C492 C489 1.463 . S
C492 N496 1.427 . S
C493 H483 0.929 . S
C493 C491 1.433 . S
C493 N496 1.384 . S
C494 H485 0.929 . S
C494 C486 1.378 . S
C494 C489 1.350 . S
C495 H482 0.929 . S
C495 C487 1.433 . S
C495 N497 1.384 . S
N496 C492 1.427 . S
N496 C493 1.384 . S
N497 C489 1.427 . S
N497 C495 1.384 . S
H498 C504 0.930 . S
H499 C508 0.930 . S
H500 C513 0.929 . S
H501 C511 0.929 . S
H502 C506 0.929 . S
H503 C512 0.929 . S
C504 H498 0.930 . S
C504 C505 1.367 . S
C504 C512 1.378 . S
C505 C504 1.367 . S
C505 C513 1.433 . S
C506 H502 0.929 . S
C506 C508 1.378 . S
C506 C510 1.350 . S
C507 C510 1.463 . S
C507 C512 1.350 . S
C507 N515 1.427 . S
C508 H499 0.930 . S
C508 C506 1.378 . S
C508 C509 1.367 . S
C509 C508 1.367 . S
C509 C511 1.433 . S
C510 C506 1.350 . S
C510 C507 1.463 . S
C510 N514 1.427 . S
C511 H501 0.929 . S
C511 C509 1.433 . S
C511 N514 1.384 . S
C512 H503 0.929 . S
C512 C504 1.378 . S
C512 C507 1.350 . S
C513 H500 0.929 . S
C513 C505 1.433 . S
C513 N515 1.384 . S
N514 C510 1.427 . S
N514 C511 1.384 . S
N515 C507 1.427 . S
N515 C513 1.384 . S
H516 C522 0.930 . S
H517 C526 0.930 . S
H518 C531 0.929 . S
H519 C529 0.929 . S
H520 C524 0.929 . S
H521 C530 0.929 . S
C522 H516 0.930 . S
C522 C523 1.367 . S
C522 C530 1.378 . S
C523 C522 1.367 . S
C523 C531 1.433 . S
C524 H520 0.929 . S
C524 C526 1.378 . S
C524 C528 1.350 . S
C525 C528 1.463 . S
C525 C530 1.350 . S
C525 N533 1.427 . S
C526 H517 0.930 . S
C526 C524 1.378 . S
C526 C527 1.367 . S
C527 C526 1.367 . S
C527 C529 1.433 . S
C528 C524 1.350 . S
C528 C525 1.463 . S
C528 N532 1.427 . S
C529 H519 0.929 . S
C529 C527 1.433 . S
C529 N532 1.384 . S
C530 H521 0.929 . S
C530 C522 1.378 . S
C530 C525 1.350 . S
C531 H518 0.929 . S
C531 C523 1.433 . S
C531 N533 1.384 . S
N532 C528 1.427 . S
N532 C529 1.384 . S
N533 C525 1.427 . S
N533 C531 1.384 . S
H534 C540 0.930 . S
H535 C544 0.930 . S
H536 C549 0.929 . S
H537 C547 0.929 . S
H538 C542 0.929 . S
H539 C548 0.929 . S
C540 H534 0.930 . S
C540 C541 1.367 . S
C540 C548 1.378 . S
C541 C540 1.367 . S
C541 C549 1.433 . S
C542 H538 0.929 . S
C542 C544 1.378 . S
C542 C546 1.350 . S
C543 C546 1.463 . S
C543 C548 1.350 . S
C543 N551 1.427 . S
C544 H535 0.930 . S
C544 C542 1.378 . S
C544 C545 1.367 . S
C545 C544 1.367 . S
C545 C547 1.433 . S
C546 C542 1.350 . S
C546 C543 1.463 . S
C546 N550 1.427 . S
C547 H537 0.929 . S
C547 C545 1.433 . S
C547 N550 1.384 . S
C548 H539 0.929 . S
C548 C540 1.378 . S
C548 C543 1.350 . S
C549 H536 0.929 . S
C549 C541 1.433 . S
C549 N551 1.384 . S
N550 C546 1.427 . S
N550 C547 1.384 . S
N551 C543 1.427 . S
N551 C549 1.384 . S
H552 C558 0.930 . S
H553 C562 0.930 . S
H554 C567 0.929 . S
H555 C565 0.929 . S
H556 C560 0.929 . S
H557 C566 0.929 . S
C558 H552 0.930 . S
C558 C559 1.367 . S
C558 C566 1.378 . S
C559 C558 1.367 . S
C559 C567 1.433 . S
C560 H556 0.929 . S
C560 C562 1.378 . S
C560 C564 1.350 . S
C561 C564 1.463 . S
C561 C566 1.350 . S
C561 N569 1.427 . S
C562 H553 0.930 . S
C562 C560 1.378 . S
C562 C563 1.367 . S
C563 C562 1.367 . S
C563 C565 1.433 . S
C564 C560 1.350 . S
C564 C561 1.463 . S
C564 N568 1.427 . S
C565 H555 0.929 . S
C565 C563 1.433 . S
C565 N568 1.384 . S
C566 H557 0.929 . S
C566 C558 1.378 . S
C566 C561 1.350 . S
C567 H554 0.929 . S
C567 C559 1.433 . S
C567 N569 1.384 . S
N568 C564 1.427 . S
N568 C565 1.384 . S
N569 C561 1.427 . S
N569 C567 1.384 . S
H570 C576 0.930 . S
H571 C580 0.930 . S
H572 C585 0.929 . S
H573 C583 0.929 . S
H574 C578 0.929 . S
H575 C584 0.929 . S
C576 H570 0.930 . S
C576 C577 1.367 . S
C576 C584 1.378 . S
C577 C576 1.367 . S
C577 C585 1.433 . S
C578 H574 0.929 . S
C578 C580 1.378 . S
C578 C582 1.350 . S
C579 C582 1.463 . S
C579 C584 1.350 . S
C579 N587 1.427 . S
C580 H571 0.930 . S
C580 C578 1.378 . S
C580 C581 1.367 . S
C581 C580 1.367 . S
C581 C583 1.433 . S
C582 C578 1.350 . S
C582 C579 1.463 . S
C582 N586 1.427 . S
C583 H573 0.929 . S
C583 C581 1.433 . S
C583 N586 1.384 . S
C584 H575 0.929 . S
C584 C576 1.378 . S
C584 C579 1.350 . S
C585 H572 0.929 . S
C585 C577 1.433 . S
C585 N587 1.384 . S
N586 C582 1.427 . S
N586 C583 1.384 . S
N587 C579 1.427 . S
N587 C585 1.384 . S
H588 C594 0.930 . S
H589 C598 0.930 . S
H590 C603 0.929 . S
H591 C601 0.929 . S
H592 C596 0.929 . S
H593 C602 0.929 . S
C594 H588 0.930 . S
C594 C595 1.367 . S
C594 C602 1.378 . S
C595 C594 1.367 . S
C595 C603 1.433 . S
C596 H592 0.929 . S
C596 C598 1.378 . S
C596 C600 1.350 . S
C597 C600 1.463 . S
C597 C602 1.350 . S
C597 N605 1.427 . S
C598 H589 0.930 . S
C598 C596 1.378 . S
C598 C599 1.367 . S
C599 C598 1.367 . S
C599 C601 1.433 . S
C600 C596 1.350 . S
C600 C597 1.463 . S
C600 N604 1.427 . S
C601 H591 0.929 . S
C601 C599 1.433 . S
C601 N604 1.384 . S
C602 H593 0.929 . S
C602 C594 1.378 . S
C602 C597 1.350 . S
C603 H590 0.929 . S
C603 C595 1.433 . S
C603 N605 1.384 . S
N604 C600 1.427 . S
N604 C601 1.384 . S
N605 C597 1.427 . S
N605 C603 1.384 . S
H606 C612 0.930 . S
H607 C616 0.930 . S
H608 C621 0.929 . S
H609 C619 0.929 . S
H610 C614 0.929 . S
H611 C620 0.929 . S
C612 H606 0.930 . S
C612 C613 1.367 . S
C612 C620 1.378 . S
C613 C612 1.367 . S
C613 C621 1.433 . S
C614 H610 0.929 . S
C614 C616 1.378 . S
C614 C618 1.350 . S
C615 C618 1.463 . S
C615 C620 1.350 . S
C615 N623 1.427 . S
C616 H607 0.930 . S
C616 C614 1.378 . S
C616 C617 1.367 . S
C617 C616 1.367 . S
C617 C619 1.433 . S
C618 C614 1.350 . S
C618 C615 1.463 . S
C618 N622 1.427 . S
C619 H609 0.929 . S
C619 C617 1.433 . S
C619 N622 1.384 . S
C620 H611 0.929 . S
C620 C612 1.378 . S
C620 C615 1.350 . S
C621 H608 0.929 . S
C621 C613 1.433 . S
C621 N623 1.384 . S
N622 C618 1.427 . S
N622 C619 1.384 . S
N623 C615 1.427 . S
N623 C621 1.384 . S
C199 C4 1.542 . S
C203 C130 1.590 . S
C221 C108 1.463 . S
C217 C17 1.450 . S
C239 C134 1.452 . S
C235 C30 1.407 . S
C257 C112 1.589 . S
C253 C43 1.581 . S
C275 C174 1.585 . S
C271 C56 1.527 . S
C293 C152 1.455 . S
C289 C69 1.448 . S
C307 C82 1.411 . S
C311 C178 1.462 . S
C329 C156 1.582 . S
C325 C95 1.574 . S
C343 C9 1.536 . S
C347 C179 1.562 . S
C365 C157 1.428 . S
C361 C21 1.439 . S
C379 C34 1.432 . S
C383 C176 1.431 . S
C397 C48 1.542 . S
C401 C154 1.562 . S
C419 C135 1.558 . S
C415 C61 1.545 . S
C433 C73 1.439 . S
C437 C113 1.427 . S
C455 C132 1.432 . S
C451 C86 1.432 . S
C473 C110 1.561 . S
C469 C100 1.543 . S
C491 C153 1.491 . S
C487 C8 1.488 . S
C509 C175 1.497 . S
C505 C22 1.478 . S
C523 C35 1.479 . S
C527 C155 1.493 . S
C545 C177 1.487 . S
C541 C47 1.496 . S
C563 C109 1.490 . S
C559 C60 1.489 . S
C577 C74 1.486 . S
C581 C131 1.492 . S
C595 C87 1.483 . S
C599 C111 1.492 . S
C613 C99 1.498 . S
C617 C133 1.485 . S
