# Generated by pormake.
# Topology pyr, (3,6)-cn, num edge types: 1
# Building blocks:
#     Node 0, Type 0, BuildingBlock: BETDAH_clean_linker_0, # of connection points: 3
#     Node 1, Type 0, BuildingBlock: BETDAH_clean_linker_0, # of connection points: 3
#     Node 2, Type 0, BuildingBlock: BETDAH_clean_linker_0, # of connection points: 3
#     Node 3, Type 0, BuildingBlock: BETDAH_clean_linker_0, # of connection points: 3
#     Node 4, Type 0, BuildingBlock: BETDAH_clean_linker_0, # of connection points: 3
#     Node 5, Type 0, BuildingBlock: BETDAH_clean_linker_0, # of connection points: 3
#     Node 6, Type 0, BuildingBlock: BETDAH_clean_linker_0, # of connection points: 3
#     Node 7, Type 0, BuildingBlock: BETDAH_clean_linker_0, # of connection points: 3
#     Node 8, Type 1, BuildingBlock: LEVNOQ01_clean_sbu_1, # of connection points: 6
#     Node 9, Type 1, BuildingBlock: LEVNOQ01_clean_sbu_1, # of connection points: 6
#     Node 10, Type 1, BuildingBlock: LEVNOQ01_clean_sbu_1, # of connection points: 6
#     Node 11, Type 1, BuildingBlock: LEVNOQ01_clean_sbu_1, # of connection points: 6
#     Edge 12, Type (0, 1), BuildingBlock: CIFDUS_clean_linker_0, # of connection points: 2
#     Edge 13, Type (0, 1), BuildingBlock: CIFDUS_clean_linker_0, # of connection points: 2
#     Edge 14, Type (0, 1), BuildingBlock: CIFDUS_clean_linker_0, # of connection points: 2
#     Edge 15, Type (0, 1), BuildingBlock: CIFDUS_clean_linker_0, # of connection points: 2
#     Edge 16, Type (0, 1), BuildingBlock: CIFDUS_clean_linker_0, # of connection points: 2
#     Edge 17, Type (0, 1), BuildingBlock: CIFDUS_clean_linker_0, # of connection points: 2
#     Edge 18, Type (0, 1), BuildingBlock: CIFDUS_clean_linker_0, # of connection points: 2
#     Edge 19, Type (0, 1), BuildingBlock: CIFDUS_clean_linker_0, # of connection points: 2
#     Edge 20, Type (0, 1), BuildingBlock: CIFDUS_clean_linker_0, # of connection points: 2
#     Edge 21, Type (0, 1), BuildingBlock: CIFDUS_clean_linker_0, # of connection points: 2
#     Edge 22, Type (0, 1), BuildingBlock: CIFDUS_clean_linker_0, # of connection points: 2
#     Edge 23, Type (0, 1), BuildingBlock: CIFDUS_clean_linker_0, # of connection points: 2
#     Edge 24, Type (0, 1), BuildingBlock: CIFDUS_clean_linker_0, # of connection points: 2
#     Edge 25, Type (0, 1), BuildingBlock: CIFDUS_clean_linker_0, # of connection points: 2
#     Edge 26, Type (0, 1), BuildingBlock: CIFDUS_clean_linker_0, # of connection points: 2
#     Edge 27, Type (0, 1), BuildingBlock: CIFDUS_clean_linker_0, # of connection points: 2
#     Edge 28, Type (0, 1), BuildingBlock: CIFDUS_clean_linker_0, # of connection points: 2
#     Edge 29, Type (0, 1), BuildingBlock: CIFDUS_clean_linker_0, # of connection points: 2
#     Edge 30, Type (0, 1), BuildingBlock: CIFDUS_clean_linker_0, # of connection points: 2
#     Edge 31, Type (0, 1), BuildingBlock: CIFDUS_clean_linker_0, # of connection points: 2
#     Edge 32, Type (0, 1), BuildingBlock: CIFDUS_clean_linker_0, # of connection points: 2
#     Edge 33, Type (0, 1), BuildingBlock: CIFDUS_clean_linker_0, # of connection points: 2
#     Edge 34, Type (0, 1), BuildingBlock: CIFDUS_clean_linker_0, # of connection points: 2
#     Edge 35, Type (0, 1), BuildingBlock: CIFDUS_clean_linker_0, # of connection points: 2
# Relax obj value: 0.082
# Max RMSD: 0.172
# Mean RMSD: 0.134
data_MOF--net-pry--node1-LEVNOQ01_clean_sbu_1--node2-BETDAH_clean_linker_0--edge1-CIFDUS_clean_linker_0
_symmetry_space_group_name_H-M    P1
_symmetry_Int_Tables_number       1
_symmetry_cell_setting            triclinic
loop_
_symmetry_equiv_pos_as_xyz
'x, y, z'
_cell_length_a     31.78016
_cell_length_b     30.990235
_cell_length_c     31.829229
_cell_angle_alpha  93.481407
_cell_angle_beta   90.72723
_cell_angle_gamma 99.705865
loop_
_atom_site_label
_atom_site_type_symbol
_atom_site_fract_x
_atom_site_fract_y
_atom_site_fract_z
_atom_type_partial_charge
H0 H 0.19612 0.11691 0.21625 0.0
H1 H 0.18787 0.17617 0.09886 0.0
H2 H 0.09383 0.18936 0.19203 0.0
C3 C 0.17976 0.13606 0.19616 0.0
C4 C 0.14248 0.15158 0.2099 0.0
C5 C 0.1967 0.1456 0.15659 0.0
C6 C 0.17529 0.16925 0.12971 0.0
C7 C 0.13848 0.18519 0.14225 0.0
C8 C 0.12234 0.17689 0.18257 0.0
N9 N 0.1167 0.20583 0.11194 0.0
C10 C 0.10073 0.24485 0.11875 0.0
H11 H 0.41729 0.86554 0.71063 0.0
H12 H 0.38229 0.99262 0.69778 0.0
H13 H 0.38046 0.90229 0.58933 0.0
C14 C 0.40773 0.88992 0.69117 0.0
C15 C 0.40112 0.87995 0.64779 0.0
C16 C 0.40062 0.93032 0.70985 0.0
C17 C 0.38841 0.96151 0.68397 0.0
C18 C 0.38071 0.95124 0.64062 0.0
C19 C 0.38696 0.9104 0.62265 0.0
N20 N 0.36498 0.98154 0.61564 0.0
C21 C 0.32492 0.97129 0.59597 0.0
H22 H 0.65467 0.36941 0.94934 0.0
H23 H 0.71621 0.41294 0.83651 0.0
H24 H 0.61401 0.30276 0.82895 0.0
C25 C 0.65677 0.36663 0.91532 0.0
C26 C 0.62971 0.33325 0.89145 0.0
C27 C 0.68795 0.39522 0.89554 0.0
C28 C 0.69186 0.39091 0.85187 0.0
C29 C 0.66557 0.35723 0.82796 0.0
C30 C 0.63479 0.32824 0.84776 0.0
N31 N 0.66789 0.35455 0.78364 0.0
C32 C 0.6626 0.39122 0.76286 0.0
H33 H 0.85395 0.67998 0.50287 0.0
H34 H 0.94666 0.65253 0.4115 0.0
H35 H 0.83654 0.55634 0.42999 0.0
C36 C 0.86529 0.65788 0.4797 0.0
C37 C 0.84063 0.61626 0.46985 0.0
C38 C 0.90361 0.67177 0.4588 0.0
C39 C 0.91723 0.64299 0.42792 0.0
C40 C 0.893 0.60146 0.41807 0.0
C41 C 0.8553 0.58812 0.43918 0.0
N42 N 0.90597 0.57265 0.38662 0.0
C43 C 0.90888 0.58312 0.34487 0.0
H44 H 0.91783 0.83592 0.82182 0.0
H45 H 0.86282 0.87435 0.93832 0.0
H46 H 0.87167 0.95863 0.83525 0.0
C47 C 0.90188 0.85864 0.84028 0.0
C48 C 0.89531 0.89777 0.82294 0.0
C49 C 0.88999 0.84943 0.88174 0.0
C50 C 0.871 0.88014 0.90595 0.0
C51 C 0.8633 0.91894 0.88881 0.0
C52 C 0.87537 0.92752 0.84737 0.0
N53 N 0.8508 0.95271 0.91542 0.0
C54 C 0.80843 0.95665 0.92243 0.0
H55 H 0.68686 0.10842 0.36342 0.0
H56 H 0.68249 0.16157 0.49117 0.0
H57 H 0.58489 0.17663 0.40101 0.0
C58 C 0.67117 0.12543 0.38777 0.0
C59 C 0.63323 0.14039 0.37779 0.0
C60 C 0.68979 0.13366 0.42838 0.0
C61 C 0.66867 0.15512 0.45963 0.0
C62 C 0.63113 0.17096 0.45009 0.0
C63 C 0.61369 0.16416 0.40882 0.0
N64 N 0.61185 0.19316 0.483 0.0
C65 C 0.58928 0.22723 0.47755 0.0
H66 H 0.33091 0.75477 0.12302 0.0
H67 H 0.3285 0.61827 0.14126 0.0
H68 H 0.40732 0.71668 0.22196 0.0
C69 C 0.3419 0.7294 0.14009 0.0
C70 C 0.37034 0.74099 0.17457 0.0
C71 C 0.32575 0.68542 0.12838 0.0
C72 C 0.34145 0.65254 0.14893 0.0
C73 C 0.37046 0.66346 0.18268 0.0
C74 C 0.38511 0.70786 0.19551 0.0
N75 N 0.38162 0.62906 0.20524 0.0
C76 C 0.39668 0.63619 0.24637 0.0
H77 H 0.15136 0.38139 0.54677 0.0
H78 H 0.14297 0.49651 0.62622 0.0
H79 H 0.0321 0.39782 0.60423 0.0
C80 C 0.13218 0.4006 0.56558 0.0
C81 C 0.08892 0.38394 0.57252 0.0
C82 C 0.15161 0.44153 0.58401 0.0
C83 C 0.12798 0.46558 0.61059 0.0
C84 C 0.08527 0.44926 0.61819 0.0
C85 C 0.06547 0.40934 0.59836 0.0
N86 N 0.06234 0.47247 0.64677 0.0
C87 C 0.06673 0.46916 0.68985 0.0
O88 O 0.01193 0.02332 0.62183 0.0
Mg89 Mg 0.0475 0.06227 0.5796 0.0
O90 O 0.97 0.99311 0.56861 0.0
Mg91 Mg -0.00076 0.02657 0.5062 0.0
O92 O 0.01747 0.09782 0.53931 0.0
O93 O 0.0542 0.12562 0.59875 0.0
O94 O 0.02677 0.0594 0.44327 0.0
O95 O 0.93207 0.05214 0.50035 0.0
Mg96 Mg 0.94621 0.99272 0.44478 0.0
O97 O 0.98219 0.95368 0.47407 0.0
O98 O 0.97097 0.03819 0.40135 0.0
O99 O 0.88716 -0.00231 0.46981 0.0
O100 O 0.94287 0.93387 0.41447 0.0
C101 C 0.10255 0.01593 0.53323 0.0
C102 C 0.97977 -0.00356 0.60803 0.0
C103 C 0.03233 0.13095 0.56564 0.0
C104 C 0.00783 0.0604 0.40769 0.0
C105 C 0.89376 0.03428 0.49019 0.0
C106 C 0.96678 0.9243 0.44427 0.0
O107 O 0.10511 0.04503 0.56291 0.0
O108 O 0.06758 0.00384 0.5121 0.0
O109 O 0.44588 0.09875 0.10999 0.0
Mg110 Mg 0.50557 0.10535 0.08215 0.0
O111 O 0.42782 0.04019 0.06768 0.0
Mg112 Mg 0.49884 0.03124 0.04864 0.0
O113 O 0.51528 0.10105 0.01915 0.0
O114 O 0.50791 0.16287 0.05676 0.0
O115 O 0.56794 0.019 0.02845 0.0
O116 O 0.47163 0.01341 0.97793 0.0
Mg117 Mg 0.49406 0.9333 0.01494 0.0
O118 O 0.48402 0.96293 0.07181 0.0
O119 O 0.55971 0.9495 1.00249 0.0
O120 O 0.4505 0.94191 0.96774 0.0
O121 O 0.47567 0.89038 0.0602 0.0
C122 C 0.5521 0.07867 0.13951 0.0
C123 C 0.41721 0.06908 0.09395 0.0
C124 C 0.51556 0.14315 0.0217 0.0
C125 C 0.5831 0.9864 0.01146 0.0
C126 C 0.45294 0.98008 0.95497 0.0
C127 C 0.47551 0.92428 0.08579 0.0
O128 O 0.55907 0.11359 0.12082 0.0
O129 O 0.52707 0.04584 0.12138 0.0
O130 O 0.45636 0.63211 0.63448 0.0
Mg131 Mg 0.46385 0.5682 0.64812 0.0
O132 O 0.48424 0.62821 0.57112 0.0
Mg133 Mg 0.49852 0.55675 0.55732 0.0
O134 O 0.519 0.55111 0.62529 0.0
O135 O 0.50648 0.55877 0.69377 0.0
O136 O 0.51265 0.48186 0.54454 0.0
O137 O 0.56995 0.58955 0.54888 0.0
Mg138 Mg 0.5184 0.52924 0.48393 0.0
O139 O 0.47486 0.57054 0.4911 0.0
O140 O 0.49149 0.46383 0.47895 0.0
O141 O 0.5837 0.54105 0.50053 0.0
O142 O 0.51251 0.56276 0.4326 0.0
C143 C 0.40213 0.5091 0.59417 0.0
C144 C 0.46783 0.64938 0.6005 0.0
C145 C 0.53059 0.54794 0.66395 0.0
C146 C 0.50374 0.45252 0.51387 0.0
C147 C 0.5968 0.57241 0.527 0.0
C148 C 0.48343 0.57934 0.45262 0.0
O149 O 0.4123 0.51788 0.63265 0.0
O150 O 0.42691 0.52385 0.56513 0.0
O151 O 0.02916 0.49468 0.1134 0.0
Mg152 Mg 0.01691 0.55906 0.12849 0.0
O153 O 0.02509 0.49348 0.0432 0.0
Mg154 Mg 0.0011 0.55821 0.02126 0.0
O155 O 0.96952 0.56961 0.08553 0.0
O156 O 0.96855 0.56976 0.08548 0.0
O157 O 0.97425 0.62725 0.00771 0.0
O158 O 0.93833 0.51297 1.00279 0.0
Mg159 Mg 0.98675 0.57702 0.95273 0.0
O160 O 0.03492 0.54057 0.95573 0.0
O161 O 0.00664 0.64413 0.94972 0.0
O162 O 0.91955 0.5548 0.95598 0.0
O163 O -0.00057 0.55138 0.89661 0.0
C164 C 0.08585 0.61406 0.0771 0.0
C165 C 0.03209 0.47533 0.0774 0.0
C166 C 0.93238 0.57493 0.09802 0.0
C167 C 0.9852 0.65529 0.98011 0.0
C168 C 0.91007 0.52262 0.97846 0.0
C169 C 0.02942 0.53598 0.91492 0.0
O170 O 0.0727 0.60253 0.113 0.0
O171 O 0.06519 0.6008 0.0428 0.0
H172 H 0.05839 0.13461 0.23187 0.0
H173 H 0.18573 0.14286 0.28407 0.0
H174 H 0.15628 0.1179 0.35051 0.0
H175 H 0.09363 0.08959 0.39332 0.0
H176 H 0.96708 0.08506 0.34037 0.0
H177 H -0.00298 0.11388 0.276 0.0
C178 C 0.07995 0.13198 0.25788 0.0
C179 C 0.12441 0.14026 0.25214 0.0
C180 C 0.06284 0.11821 0.29646 0.0
C181 C 0.15136 0.13574 0.28664 0.0
C182 C 0.13452 0.12175 0.32505 0.0
C183 C 0.07268 0.09567 0.36799 0.0
C184 C 0.02804 0.08462 0.37188 0.0
C185 C 0.0902 0.11223 0.33026 0.0
C186 C 0.00152 0.09268 0.33842 0.0
C187 C 0.0186 0.10918 0.30133 0.0
H188 H 0.4406 0.00209 0.75916 0.0
H189 H 0.36268 0.87446 0.76547 0.0
H190 H 0.36754 0.8815 0.84203 0.0
H191 H 0.39833 0.92051 0.90673 0.0
H192 H 0.4786 0.04705 0.90278 0.0
H193 H 0.46748 0.04447 0.82613 0.0
C194 C 0.42439 0.97614 0.77744 0.0
C195 C 0.40195 0.93743 0.75658 0.0
C196 C 0.4276 0.98024 0.82189 0.0
C197 C 0.38095 0.90411 0.78067 0.0
C198 C 0.38348 0.90821 0.82449 0.0
C199 C 0.41296 0.94794 0.88928 0.0
C200 C 0.4395 0.98378 0.91055 0.0
C201 C 0.4074 0.94564 0.84537 0.0
C202 C 0.45781 0.01914 0.88734 0.0
C203 C 0.45181 0.01744 0.8434 0.0
H204 H 0.65983 0.41979 0.68474 0.0
H205 H 0.63387 0.44891 0.81503 0.0
H206 H 0.59674 0.50783 0.79564 0.0
H207 H 0.56263 0.5423 0.74147 0.0
H208 H 0.58319 0.51053 0.61022 0.0
H209 H 0.63333 0.4629 0.63001 0.0
C210 C 0.64699 0.44004 0.70867 0.0
C211 C 0.64917 0.43061 0.751 0.0
C212 C 0.62482 0.47317 0.69713 0.0
C213 C 0.63245 0.45623 0.78221 0.0
C214 C 0.61116 0.48969 0.77116 0.0
C215 C 0.5786 0.52559 0.71709 0.0
C216 C 0.56833 0.52873 0.67453 0.0
C217 C 0.60577 0.4972 0.72864 0.0
C218 C 0.59007 0.50788 0.64329 0.0
C219 C 0.61849 0.48046 0.65458 0.0
H220 H 0.91739 0.52209 0.28503 0.0
H221 H 0.9023 0.6571 0.30587 0.0
H222 H 0.90409 0.66592 0.22956 0.0
H223 H 0.91304 0.63517 0.15688 0.0
H224 H 0.93128 0.50075 0.13795 0.0
H225 H 0.92447 0.49117 0.21333 0.0
C226 C 0.91448 0.55336 0.27265 0.0
C227 C 0.91002 0.58899 0.30036 0.0
C228 C 0.91571 0.55801 0.22915 0.0
C229 C 0.90602 0.6294 0.28461 0.0
C230 C 0.90691 0.63433 0.24114 0.0
C231 C 0.91465 0.60371 0.16943 0.0
C232 C 0.92221 0.56856 0.14231 0.0
C233 C 0.91198 0.59887 0.21307 0.0
C234 C 0.92513 0.52803 0.15857 0.0
C235 C 0.92153 0.52265 0.20156 0.0
H236 H 0.22229 0.06524 0.14109 0.0
H237 H 0.26651 0.20492 0.14519 0.0
H238 H 0.3376 0.19293 0.12525 0.0
H239 H 0.38729 0.14391 0.10762 0.0
H240 H 0.34594 0.00385 0.09937 0.0
H241 H 0.27341 0.01455 0.1193 0.0
C242 C 0.2477 0.09282 0.13767 0.0
C243 C 0.23941 0.136 0.14487 0.0
C244 C 0.28873 0.08561 0.12528 0.0
C245 C 0.27226 0.17155 0.13989 0.0
C246 C 0.31286 0.16471 0.12846 0.0
C247 C 0.3625 0.11553 0.11022 0.0
C248 C 0.37213 0.07312 0.1026 0.0
C249 C 0.32143 0.12204 0.12122 0.0
C250 C 0.33934 0.03683 0.10514 0.0
C251 C 0.29799 0.04303 0.11674 0.0
H252 H 0.29408 0.00253 0.52685 0.0
H253 H 0.25827 0.92415 0.63199 0.0
H254 H 0.18259 0.92259 0.61517 0.0
H255 H 0.12803 0.95465 0.57833 0.0
H256 H 0.16351 0.0361 0.47542 0.0
H257 H 0.23766 0.02451 0.4824 0.0
C258 C 0.2695 0.98421 0.54523 0.0
C259 C 0.28119 0.96367 0.58066 0.0
C260 C 0.2261 0.98411 0.53567 0.0
C261 C 0.24958 0.94017 0.60461 0.0
C262 C 0.20643 0.9394 0.59505 0.0
C263 C 0.15172 0.96807 0.55623 0.0
C264 C 0.14051 0.99551 0.52596 0.0
C265 C 0.1944 0.96264 0.56166 0.0
C266 C 0.17144 0.014 0.49824 0.0
C267 C 0.21392 0.00796 0.50275 0.0
H268 H 0.75448 0.37333 0.93546 0.0
H269 H 0.69514 0.48389 0.90849 0.0
H270 H 0.75843 0.5345 0.93685 0.0
H271 H 0.83418 0.54626 0.95981 0.0
H272 H 0.89367 0.43475 0.98417 0.0
H273 H 0.82698 0.38514 0.96578 0.0
C274 C 0.75523 0.40854 0.93692 0.0
C275 C 0.72082 0.42532 0.92029 0.0
C276 C 0.79197 0.43698 0.95179 0.0
C277 C 0.72167 0.47074 0.92144 0.0
C278 C 0.75781 0.49946 0.93727 0.0
C279 C 0.83214 0.51112 0.96164 0.0
C280 C 0.8685 0.49393 0.97294 0.0
C281 C 0.79375 0.48287 0.95099 0.0
C282 C 0.86581 0.44854 0.97571 0.0
C283 C 0.82783 0.42021 0.96507 0.0
H284 H 0.78075 0.66764 0.4909 0.0
H285 H 0.80485 0.53456 0.49261 0.0
H286 H 0.73215 0.51023 0.51472 0.0
H287 H 0.66004 0.52539 0.52702 0.0
H288 H 0.63588 0.65812 0.52864 0.0
H289 H 0.71112 0.68439 0.51357 0.0
C290 C 0.77069 0.63352 0.49723 0.0
C291 C 0.79832 0.60292 0.48925 0.0
C292 C 0.72891 0.61974 0.51078 0.0
C293 C 0.78411 0.55872 0.49724 0.0
C294 C 0.74258 0.54476 0.51025 0.0
C295 C 0.67162 0.56021 0.5251 0.0
C296 C 0.64281 0.58988 0.52881 0.0
C297 C 0.71449 0.57478 0.51611 0.0
C298 C 0.65779 0.63487 0.52635 0.0
C299 C 0.70061 0.64973 0.51724 0.0
H300 H 0.10308 0.29562 0.05302 0.0
H301 H 0.06239 0.2858 0.18117 0.0
H302 H 0.03586 0.35559 0.17873 0.0
H303 H 0.02607 0.41996 0.14087 0.0
H304 H 0.06591 0.4303 0.01223 0.0
H305 H 0.09072 0.35958 0.0139 0.0
C306 C 0.08839 0.30895 0.08034 0.0
C307 C 0.0849 0.28608 0.11742 0.0
C308 C 0.07311 0.34903 0.07852 0.0
C309 C 0.06562 0.30316 0.15253 0.0
C310 C 0.05044 0.34296 0.15104 0.0
C311 C 0.04012 0.40686 0.11305 0.0
C312 C 0.04435 0.43082 0.07649 0.0
C313 C 0.05429 0.3663 0.11432 0.0
C314 C 0.06212 0.41273 0.0407 0.0
C315 C 0.0765 0.37234 0.04175 0.0
H316 H 0.61544 0.24476 0.88047 0.0
H317 H 0.5733 0.3528 0.95025 0.0
H318 H 0.52788 0.30152 0.99265 0.0
H319 H 0.50777 0.22753 0.01515 0.0
H320 H 0.55327 0.11929 0.94889 0.0
H321 H 0.58864 0.16913 0.89842 0.0
C322 C 0.59553 0.25691 0.90432 0.0
C323 C 0.59792 0.30229 0.91272 0.0
C324 C 0.57028 0.22734 0.92904 0.0
C325 C 0.57233 0.3179 0.94384 0.0
C326 C 0.54636 0.28867 0.96791 0.0
C327 C 0.52493 0.21463 0.98934 0.0
C328 C 0.52878 0.17006 0.98618 0.0
C329 C 0.54627 0.24351 0.96165 0.0
C330 C 0.55024 0.15362 0.95211 0.0
C331 C 0.57068 0.18213 0.92349 0.0
H332 H 0.94355 0.72503 0.4013 0.0
H333 H 0.91598 0.72222 0.5337 0.0
H334 H 0.94103 0.80121 0.54296 0.0
H335 H 0.95975 0.8725 0.51065 0.0
H336 H 0.98576 0.87351 0.37811 0.0
H337 H 0.97454 0.79357 0.3722 0.0
C338 C 0.94426 0.74114 0.43257 0.0
C339 C 0.92681 0.71764 0.46648 0.0
C340 C 0.95864 0.78648 0.43768 0.0
C341 C 0.92787 0.73964 0.50664 0.0
C342 C 0.94248 0.78484 0.51207 0.0
C343 C 0.96449 0.85507 0.48095 0.0
C344 C 0.97325 0.87851 0.44478 0.0
C345 C 0.95632 0.8089 0.47743 0.0
C346 C 0.97882 0.85585 0.40626 0.0
C347 C 0.97207 0.8102 0.4028 0.0
H348 H 0.4715 0.85268 0.61512 0.0
H349 H 0.33936 0.80879 0.64246 0.0
H350 H 0.34715 0.73269 0.62433 0.0
H351 H 0.3938 0.67847 0.60983 0.0
H352 H 0.52599 0.72085 0.58197 0.0
H353 H 0.51619 0.7979 0.59044 0.0
C354 C 0.44439 0.82635 0.61615 0.0
C355 C 0.40496 0.83577 0.63014 0.0
C356 C 0.44929 0.78266 0.60593 0.0
C357 C 0.36988 0.80185 0.6317 0.0
C358 C 0.3744 0.75849 0.62151 0.0
C359 C 0.42015 0.70469 0.60469 0.0
C360 C 0.46056 0.69446 0.59568 0.0
C361 C 0.41423 0.74846 0.60989 0.0
C362 C 0.49457 0.72828 0.58877 0.0
C363 C 0.48901 0.7722 0.59398 0.0
H364 H 0.85772 0.92615 0.75328 0.0
H365 H 0.97695 0.89711 0.80071 0.0
H366 H 0.01205 0.92036 0.73632 0.0
H367 H 0.01073 0.95404 0.66906 0.0
H368 H 0.8927 0.98232 0.61874 0.0
H369 H 0.85503 0.95355 0.68097 0.0
C370 C 0.89128 0.92468 0.74922 0.0
C371 C 0.9147 0.90993 0.78189 0.0
C372 C 0.91141 0.93774 0.7115 0.0
C373 C 0.95811 0.90795 0.77607 0.0
C374 C 0.97828 0.92137 0.73926 0.0
C375 C 0.97652 0.95299 0.67128 0.0
C376 C 0.95449 0.97012 0.63936 0.0
C377 C 0.95545 0.93682 0.70707 0.0
C378 C 0.91024 0.96872 0.64262 0.0
C379 C 0.88887 0.95278 0.67848 0.0
H380 H 0.59641 0.06482 0.33333 0.0
H381 H 0.63616 0.20377 0.32336 0.0
H382 H 0.61763 0.19572 0.24821 0.0
H383 H 0.59087 0.15005 0.18613 0.0
H384 H 0.54514 0.01158 0.19428 0.0
H385 H 0.56554 0.01834 0.26956 0.0
C386 C 0.60039 0.09323 0.31456 0.0
C387 C 0.61719 0.13498 0.33363 0.0
C388 C 0.58907 0.08834 0.27129 0.0
C389 C 0.62267 0.1716 0.30931 0.0
C390 C 0.61241 0.1669 0.26638 0.0
C391 C 0.58544 0.12101 0.20402 0.0
C392 C 0.56682 0.08018 0.18425 0.0
C393 C 0.59581 0.1255 0.24711 0.0
C394 C 0.55979 0.04329 0.20848 0.0
C395 C 0.57123 0.04726 0.25157 0.0
H396 H 0.35758 0.60405 0.31396 0.0
H397 H 0.47036 0.68636 0.27241 0.0
H398 H 0.50472 0.68641 0.34174 0.0
H399 H 0.50841 0.64714 0.40578 0.0
H400 H 0.39718 0.56152 0.44603 0.0
H401 H 0.35552 0.57942 0.38625 0.0
C402 C 0.38923 0.62282 0.32078 0.0
C403 C 0.4124 0.64404 0.28873 0.0
C404 C 0.40888 0.6217 0.36013 0.0
C405 C 0.45284 0.66907 0.29707 0.0
C406 C 0.47231 0.66909 0.33649 0.0
C407 C 0.47459 0.63393 0.40215 0.0
C408 C 0.45578 0.60245 0.42892 0.0
C409 C 0.45162 0.64318 0.36716 0.0
C410 C 0.41201 0.58569 0.42513 0.0
C411 C 0.38844 0.5955 0.39078 0.0
H412 H 0.11637 0.52179 0.74791 0.0
H413 H 0.01559 0.40986 0.73177 0.0
H414 H 0.00349 0.41289 0.80759 0.0
H415 H 0.01106 0.45723 0.87438 0.0
H416 H 0.10786 0.57239 0.88999 0.0
H417 H 0.13368 0.55749 0.81931 0.0
C418 C 0.09267 0.49744 0.76141 0.0
C419 C 0.06642 0.46598 0.73483 0.0
C420 C 0.08543 0.5 0.80494 0.0
C421 C 0.03581 0.43446 0.75204 0.0
C422 C 0.02892 0.43623 0.79527 0.0
C423 C 0.03938 0.47749 0.86309 0.0
C424 C 0.05781 0.51555 0.88714 0.0
C425 C 0.05216 0.47008 0.82165 0.0
C426 C 0.0938 0.54241 0.87216 0.0
C427 C 0.10787 0.53442 0.83137 0.0
H428 H 0.76998 0.94727 0.99672 0.0
H429 H 0.75396 0.98822 0.87151 0.0
H430 H 0.68396 0.00673 0.88955 0.0
H431 H 0.62552 0.00741 0.94028 0.0
H432 H 0.64166 0.96586 0.06522 0.0
H433 H 0.71334 0.95176 0.04848 0.0
C434 C 0.75095 0.96012 0.97348 0.0
C435 C 0.76642 0.96583 0.93273 0.0
C436 C 0.71102 0.97101 0.9843 0.0
C437 C 0.74209 0.98299 0.90288 0.0
C438 C 0.70228 0.9938 0.91329 0.0
C439 C 0.64544 -0.00336 0.9641 0.0
C440 C 0.62912 0.98895 1.0043 0.0
C441 C 0.68628 0.98773 0.95385 0.0
C442 C 0.65433 0.97338 0.03456 0.0
C443 C 0.69501 0.96473 0.02478 0.0
H444 H 0.71559 0.09492 0.49694 0.0
H445 H 0.76011 0.14768 0.37999 0.0
H446 H 0.82976 0.12704 0.39233 0.0
H447 H 0.87618 0.0888 0.4334 0.0
H448 H 0.83128 0.03217 0.54812 0.0
H449 H 0.76409 0.06059 0.54054 0.0
C450 C 0.74072 0.1023 0.47444 0.0
C451 C 0.73245 0.1222 0.43729 0.0
C452 C 0.78075 0.09006 0.48163 0.0
C453 C 0.76531 0.13146 0.40834 0.0
C454 C 0.80528 0.12002 0.41554 0.0
C455 C 0.85207 0.08395 0.45731 0.0
C456 C 0.85864 0.05952 0.49174 0.0
C457 C 0.81313 0.09871 0.45169 0.0
C458 C 0.82697 0.05189 0.52193 0.0
C459 C 0.78849 0.06765 0.51728 0.0
H460 H 0.25794 0.72636 0.13214 0.0
H461 H 0.30462 0.6182 0.06713 0.0
H462 H 0.23288 0.59063 0.03752 0.0
H463 H 0.15529 0.59089 0.04106 0.0
H464 H 0.10997 0.69534 0.11309 0.0
H465 H 0.18333 0.73206 0.12795 0.0
C466 C 0.25302 0.69774 0.11012 0.0
C467 C 0.28645 0.67425 0.1019 0.0
C468 C 0.21183 0.68146 0.09471 0.0
C469 C 0.27916 0.63657 0.07417 0.0
C470 C 0.23822 0.62082 0.05735 0.0
C471 C 0.16181 0.6225 0.05864 0.0
C472 C 0.12796 0.64094 0.07581 0.0
C473 C 0.20401 0.64201 0.06894 0.0
C474 C 0.136 0.68116 0.09945 0.0
C475 C 0.17777 0.70184 0.10815 0.0
H476 H 0.21824 0.39896 0.5951 0.0
H477 H 0.18684 0.5218 0.55913 0.0
H478 H 0.26273 0.55148 0.55267 0.0
H479 H 0.33802 0.54441 0.56316 0.0
H480 H 0.36935 0.42436 0.60607 0.0
H481 H 0.29361 0.39092 0.60291 0.0
C482 C 0.22814 0.43195 0.58518 0.0
C483 C 0.19727 0.45822 0.57746 0.0
C484 C 0.27174 0.44904 0.58257 0.0
C485 C 0.21025 0.50118 0.56537 0.0
C486 C 0.25352 0.51805 0.56158 0.0
C487 C 0.3281 0.51054 0.57061 0.0
C488 C 0.35871 0.48633 0.58394 0.0
C489 C 0.28455 0.49253 0.57075 0.0
C490 C 0.34598 0.44305 0.595 0.0
C491 C 0.3028 0.42419 0.59356 0.0
H492 H 0.92807 0.83876 0.95802 0.0
H493 H 0.87222 0.7672 0.84465 0.0
H494 H 0.89314 0.70022 0.86785 0.0
H495 H 0.9324 0.66321 0.91676 0.0
H496 H 0.99037 0.73253 0.02983 0.0
H497 H 0.96308 0.79893 0.01096 0.0
C498 C 0.91989 0.8083 0.93883 0.0
C499 C 0.89892 0.80816 0.89933 0.0
C500 C 0.93251 0.76958 0.9523 0.0
C501 C 0.88882 0.76843 0.87476 0.0
C502 C 0.90069 0.73005 0.88806 0.0
C503 C 0.93834 0.69269 0.9377 0.0
C504 C 0.96307 0.69306 0.9747 0.0
C505 C 0.92328 0.73045 0.92622 0.0
C506 C 0.97089 0.73137 1.00148 0.0
C507 C 0.9556 0.76936 0.99042 0.0
H508 H 0.45156 0.78184 0.19334 0.0
H509 H 0.32226 0.80597 0.18323 0.0
H510 H 0.34812 0.8818 0.16799 0.0
H511 H 0.40496 0.92742 0.13088 0.0
H512 H 0.53351 0.90184 0.13871 0.0
H513 H 0.51119 0.84191 0.18391 0.0
C514 C 0.42914 0.80431 0.1901 0.0
C515 C 0.38521 0.78802 0.18654 0.0
C516 C 0.44426 0.84762 0.18041 0.0
C517 C 0.3564 0.81763 0.18381 0.0
C518 C 0.37114 0.86098 0.17507 0.0
C519 C 0.42843 0.9107 0.14507 0.0
C520 C 0.47016 0.91717 0.13041 0.0
C521 C 0.41476 0.87474 0.16908 0.0
C522 C 0.50083 0.89633 0.1492 0.0
C523 C 0.4879 0.86146 0.17437 0.0
H524 H 0.03049 0.32514 0.61087 0.0
H525 H 0.1047 0.3393 0.49822 0.0
H526 H 0.08673 0.26048 0.48104 0.0
H527 H 0.06037 0.18636 0.50526 0.0
H528 H 0.98612 0.17427 0.61749 0.0
H529 H 0.99169 0.25377 0.62629 0.0
C530 C 0.04159 0.31167 0.58166 0.0
C531 C 0.0701 0.33833 0.55668 0.0
C532 C 0.03089 0.26644 0.57175 0.0
C533 C 0.08409 0.31949 0.51909 0.0
C534 C 0.07355 0.27436 0.50897 0.0
C535 C 0.04389 0.20127 0.53044 0.0
C536 C 0.02282 0.17497 0.5607 0.0
C537 C 0.04853 0.24724 0.53611 0.0
C538 C 0.00223 0.19425 0.59377 0.0
C539 C 0.00585 0.23965 0.59907 0.0
H540 H 0.5739 0.27739 0.54507 0.0
H541 H 0.55977 0.26251 0.40994 0.0
H542 H 0.52852 0.32975 0.40991 0.0
H543 H 0.5085 0.39388 0.44804 0.0
H544 H 0.52608 0.41166 0.58312 0.0
H545 H 0.55206 0.34155 0.58371 0.0
C546 C 0.56352 0.28885 0.51576 0.0
C547 C 0.56866 0.26534 0.47755 0.0
C548 C 0.54617 0.32775 0.51611 0.0
C549 C 0.55569 0.28022 0.43963 0.0
C550 C 0.53794 0.31858 0.43968 0.0
C551 C 0.51744 0.38232 0.47782 0.0
C552 C 0.5151 0.40805 0.51562 0.0
C553 C 0.53338 0.34275 0.47771 0.0
C554 C 0.52738 0.39254 0.55366 0.0
C555 C 0.5424 0.35254 0.55396 0.0
loop_
_geom_bond_atom_site_label_1
_geom_bond_atom_site_label_2
_geom_bond_distance
_geom_bond_site_symmetry_2
_ccdc_geom_bond_type
H0 C3 0.929 . S
H1 C6 0.929 . S
H2 C8 0.930 . S
C3 H0 0.929 . S
C3 C4 1.398 . S
C3 C5 1.396 . S
C4 C3 1.398 . S
C4 C8 1.407 . S
C5 C3 1.396 . S
C5 C6 1.394 . S
C6 H1 0.929 . S
C6 C5 1.394 . S
C6 C7 1.382 . S
C7 C6 1.382 . S
C7 C8 1.392 . S
C7 N9 1.420 . S
C8 H2 0.930 . S
C8 C4 1.407 . S
C8 C7 1.392 . S
N9 C7 1.420 . S
N9 C10 1.244 . S
C10 N9 1.244 . S
H11 C14 0.929 . S
H12 C17 0.929 . S
H13 C19 0.930 . S
C14 H11 0.929 . S
C14 C15 1.398 . S
C14 C16 1.396 . S
C15 C14 1.398 . S
C15 C19 1.407 . S
C16 C14 1.396 . S
C16 C17 1.394 . S
C17 H12 0.929 . S
C17 C16 1.394 . S
C17 C18 1.382 . S
C18 C17 1.382 . S
C18 C19 1.392 . S
C18 N20 1.420 . S
C19 H13 0.930 . S
C19 C15 1.407 . S
C19 C18 1.392 . S
N20 C18 1.420 . S
N20 C21 1.244 . S
C21 N20 1.244 . S
H22 C25 0.929 . S
H23 C28 0.929 . S
H24 C30 0.930 . S
C25 H22 0.929 . S
C25 C26 1.398 . S
C25 C27 1.396 . S
C26 C25 1.398 . S
C26 C30 1.407 . S
C27 C25 1.396 . S
C27 C28 1.394 . S
C28 H23 0.929 . S
C28 C27 1.394 . S
C28 C29 1.382 . S
C29 C28 1.382 . S
C29 C30 1.392 . S
C29 N31 1.420 . S
C30 H24 0.930 . S
C30 C26 1.407 . S
C30 C29 1.392 . S
N31 C29 1.420 . S
N31 C32 1.244 . S
C32 N31 1.244 . S
H33 C36 0.929 . S
H34 C39 0.929 . S
H35 C41 0.930 . S
C36 H33 0.929 . S
C36 C37 1.398 . S
C36 C38 1.396 . S
C37 C36 1.398 . S
C37 C41 1.407 . S
C38 C36 1.396 . S
C38 C39 1.394 . S
C39 H34 0.929 . S
C39 C38 1.394 . S
C39 C40 1.382 . S
C40 C39 1.382 . S
C40 C41 1.392 . S
C40 N42 1.420 . S
C41 H35 0.930 . S
C41 C37 1.407 . S
C41 C40 1.392 . S
N42 C40 1.420 . S
N42 C43 1.244 . S
C43 N42 1.244 . S
H44 C47 0.929 . S
H45 C50 0.929 . S
H46 C52 0.930 . S
C47 H44 0.929 . S
C47 C48 1.398 . S
C47 C49 1.396 . S
C48 C47 1.398 . S
C48 C52 1.407 . S
C49 C47 1.396 . S
C49 C50 1.394 . S
C50 H45 0.929 . S
C50 C49 1.394 . S
C50 C51 1.382 . S
C51 C50 1.382 . S
C51 C52 1.392 . S
C51 N53 1.420 . S
C52 H46 0.930 . S
C52 C48 1.407 . S
C52 C51 1.392 . S
N53 C51 1.420 . S
N53 C54 1.244 . S
C54 N53 1.244 . S
H55 C58 0.929 . S
H56 C61 0.929 . S
H57 C63 0.930 . S
C58 H55 0.929 . S
C58 C59 1.398 . S
C58 C60 1.396 . S
C59 C58 1.398 . S
C59 C63 1.407 . S
C60 C58 1.396 . S
C60 C61 1.394 . S
C61 H56 0.929 . S
C61 C60 1.394 . S
C61 C62 1.382 . S
C62 C61 1.382 . S
C62 C63 1.392 . S
C62 N64 1.420 . S
C63 H57 0.930 . S
C63 C59 1.407 . S
C63 C62 1.392 . S
N64 C62 1.420 . S
N64 C65 1.244 . S
C65 N64 1.244 . S
H66 C69 0.929 . S
H67 C72 0.929 . S
H68 C74 0.930 . S
C69 H66 0.929 . S
C69 C70 1.398 . S
C69 C71 1.396 . S
C70 C69 1.398 . S
C70 C74 1.407 . S
C71 C69 1.396 . S
C71 C72 1.394 . S
C72 H67 0.929 . S
C72 C71 1.394 . S
C72 C73 1.382 . S
C73 C72 1.382 . S
C73 C74 1.392 . S
C73 N75 1.420 . S
C74 H68 0.930 . S
C74 C70 1.407 . S
C74 C73 1.392 . S
N75 C73 1.420 . S
N75 C76 1.244 . S
C76 N75 1.244 . S
H77 C80 0.929 . S
H78 C83 0.929 . S
H79 C85 0.930 . S
C80 H77 0.929 . S
C80 C81 1.398 . S
C80 C82 1.396 . S
C81 C80 1.398 . S
C81 C85 1.407 . S
C82 C80 1.396 . S
C82 C83 1.394 . S
C83 H78 0.929 . S
C83 C82 1.394 . S
C83 C84 1.382 . S
C84 C83 1.382 . S
C84 C85 1.392 . S
C84 N86 1.420 . S
C85 H79 0.930 . S
C85 C81 1.407 . S
C85 C84 1.392 . S
N86 C84 1.420 . S
N86 C87 1.244 . S
C87 N86 1.244 . S
O88 Mg89 1.990 . S
O88 C102 1.253 1_455 S
Mg89 O88 1.990 . S
Mg89 O92 2.180 . S
Mg89 O93 2.117 . S
Mg89 O107 2.030 . S
O90 Mg91 2.072 1_665 S
O90 C102 1.260 1_565 S
Mg91 O90 2.072 1_445 S
Mg91 O92 2.099 . S
Mg91 O94 2.079 . S
Mg91 O95 2.072 1_455 S
Mg91 O97 2.099 1_445 S
Mg91 O108 2.079 . S
O92 Mg89 2.180 . S
O92 Mg91 2.099 . S
O92 C103 1.279 . S
O93 Mg89 2.117 . S
O93 C103 1.250 . S
O94 Mg91 2.079 . S
O94 C104 1.264 . S
O95 Mg91 2.072 1_655 S
O95 C105 1.260 . S
Mg96 O97 2.180 . S
Mg96 O98 2.030 1_565 S
Mg96 O99 1.990 1_565 S
Mg96 O100 2.117 . S
O97 Mg91 2.099 1_665 S
O97 Mg96 2.180 . S
O97 C106 1.279 . S
O98 Mg96 2.030 1_545 S
O98 C104 1.248 1_655 S
O99 Mg96 1.990 1_545 S
O99 C105 1.253 . S
O100 Mg96 2.117 . S
O100 C106 1.250 . S
C101 O107 1.248 . S
C101 O108 1.264 . S
C102 O88 1.253 1_655 S
C102 O90 1.260 1_545 S
C103 O92 1.279 . S
C103 O93 1.250 . S
C104 O94 1.264 . S
C104 O98 1.248 1_455 S
C105 O95 1.260 . S
C105 O99 1.253 . S
C106 O97 1.279 . S
C106 O100 1.250 . S
O107 Mg89 2.030 . S
O107 C101 1.248 . S
O108 Mg91 2.079 . S
O108 C101 1.264 . S
O109 Mg110 1.990 . S
O109 C123 1.253 . S
Mg110 O109 1.990 . S
Mg110 O113 2.180 . S
Mg110 O114 2.117 . S
Mg110 O128 2.030 . S
O111 Mg112 2.072 . S
O111 C123 1.260 . S
Mg112 O111 2.072 . S
Mg112 O113 2.099 . S
Mg112 O115 2.079 . S
Mg112 O116 2.072 1_554 S
Mg112 O118 2.099 1_545 S
Mg112 O129 2.079 . S
O113 Mg110 2.180 . S
O113 Mg112 2.099 . S
O113 C124 1.279 . S
O114 Mg110 2.117 . S
O114 C124 1.250 . S
O115 Mg112 2.079 . S
O115 C125 1.253 1_544 S
O116 Mg112 2.072 1_556 S
O116 C126 1.260 1_545 S
Mg117 O118 2.180 1_556 S
Mg117 O119 2.030 . S
Mg117 O120 1.990 . S
Mg117 O121 2.117 1_556 S
O118 Mg112 2.099 1_565 S
O118 Mg117 2.180 1_554 S
O118 C127 1.279 . S
O119 Mg117 2.030 . S
O119 C125 1.255 . S
O120 Mg117 1.990 . S
O120 C126 1.253 . S
O121 Mg117 2.117 1_554 S
O121 C127 1.250 . S
C122 O128 1.248 . S
C122 O129 1.264 . S
C123 O109 1.253 . S
C123 O111 1.260 . S
C124 O113 1.279 . S
C124 O114 1.250 . S
C125 O115 1.253 1_566 S
C125 O119 1.255 . S
C126 O116 1.260 1_565 S
C126 O120 1.253 . S
C127 O118 1.279 . S
C127 O121 1.250 . S
O128 Mg110 2.030 . S
O128 C122 1.248 . S
O129 Mg112 2.079 . S
O129 C122 1.264 . S
O130 Mg131 1.990 . S
O130 C144 1.253 . S
Mg131 O130 1.990 . S
Mg131 O134 2.180 . S
Mg131 O135 2.117 . S
Mg131 O149 2.030 . S
O132 Mg133 2.072 . S
O132 C144 1.260 . S
Mg133 O132 2.072 . S
Mg133 O134 2.099 . S
Mg133 O136 2.079 . S
Mg133 O137 2.072 . S
Mg133 O139 2.099 . S
Mg133 O150 2.079 . S
O134 Mg131 2.180 . S
O134 Mg133 2.099 . S
O134 C145 1.279 . S
O135 Mg131 2.117 . S
O135 C145 1.250 . S
O136 Mg133 2.079 . S
O136 C146 1.264 . S
O137 Mg133 2.072 . S
O137 C147 1.260 . S
Mg138 O139 2.180 . S
Mg138 O140 2.030 . S
Mg138 O141 1.990 . S
Mg138 O142 2.117 . S
O139 Mg133 2.099 . S
O139 Mg138 2.180 . S
O139 C148 1.279 . S
O140 Mg138 2.030 . S
O140 C146 1.248 . S
O141 Mg138 1.990 . S
O141 C147 1.253 . S
O142 Mg138 2.117 . S
O142 C148 1.250 . S
C143 O149 1.248 . S
C143 O150 1.264 . S
C144 O130 1.253 . S
C144 O132 1.260 . S
C145 O134 1.279 . S
C145 O135 1.250 . S
C146 O136 1.264 . S
C146 O140 1.248 . S
C147 O137 1.260 . S
C147 O141 1.253 . S
C148 O139 1.279 . S
C148 O142 1.250 . S
O149 Mg131 2.030 . S
O149 C143 1.248 . S
O150 Mg133 2.079 . S
O150 C143 1.264 . S
O151 Mg152 1.990 . S
O151 C165 1.253 . S
Mg152 O151 1.990 . S
Mg152 O155 2.180 . S
Mg152 O156 2.117 1_455 S
Mg152 O170 2.030 . S
O153 Mg154 2.072 . S
O153 C165 1.260 . S
Mg154 O153 2.072 . S
Mg154 O155 2.099 . S
Mg154 O157 2.079 1_554 S
Mg154 O158 2.072 1_455 S
Mg154 O160 2.099 1_554 S
Mg154 O171 2.079 . S
O155 Mg152 2.180 . S
O155 Mg154 2.099 . S
O155 C166 1.279 1_455 S
O156 Mg152 2.117 1_655 S
O156 C166 1.250 . S
O157 Mg154 2.079 1_556 S
O157 C167 1.264 1_455 S
O158 Mg154 2.072 1_655 S
O158 C168 1.260 1_554 S
Mg159 O160 2.180 1_655 S
Mg159 O161 2.030 . S
Mg159 O162 1.990 . S
Mg159 O163 2.117 1_655 S
O160 Mg154 2.099 1_556 S
O160 Mg159 2.180 1_455 S
O160 C169 1.279 . S
O161 Mg159 2.030 . S
O161 C167 1.248 . S
O162 Mg159 1.990 . S
O162 C168 1.253 . S
O163 Mg159 2.117 1_455 S
O163 C169 1.250 . S
C164 O170 1.248 . S
C164 O171 1.264 . S
C165 O151 1.253 . S
C165 O153 1.260 . S
C166 O155 1.279 1_655 S
C166 O156 1.250 . S
C167 O157 1.264 1_655 S
C167 O161 1.248 . S
C168 O158 1.260 1_556 S
C168 O162 1.253 . S
C169 O160 1.279 . S
C169 O163 1.250 . S
O170 Mg152 2.030 . S
O170 C164 1.248 . S
O171 Mg154 2.079 . S
O171 C164 1.264 . S
H172 C178 0.930 . S
H173 C181 0.930 . S
H174 C182 0.930 . S
H175 C183 0.930 . S
H176 C186 0.930 1_655 S
H177 C187 0.930 . S
C178 H172 0.930 . S
C178 C179 1.355 . S
C178 C180 1.415 . S
C179 C178 1.355 . S
C179 C181 1.419 . S
C180 C178 1.415 . S
C180 C185 1.425 . S
C180 C187 1.409 . S
C181 H173 0.930 . S
C181 C179 1.419 . S
C181 C182 1.362 . S
C182 H174 0.930 . S
C182 C181 1.362 . S
C182 C185 1.409 . S
C183 H175 0.930 . S
C183 C184 1.355 . S
C183 C185 1.415 . S
C184 C183 1.355 . S
C184 C186 1.419 . S
C185 C180 1.425 . S
C185 C182 1.409 . S
C185 C183 1.415 . S
C186 H176 0.930 1_455 S
C186 C184 1.419 . S
C186 C187 1.362 . S
C187 H177 0.930 . S
C187 C180 1.409 . S
C187 C186 1.362 . S
H188 C194 0.930 . S
H189 C197 0.930 . S
H190 C198 0.930 . S
H191 C199 0.930 . S
H192 C202 0.930 . S
H193 C203 0.930 1_545 S
C194 H188 0.930 . S
C194 C195 1.355 . S
C194 C196 1.415 . S
C195 C194 1.355 . S
C195 C197 1.419 . S
C196 C194 1.415 . S
C196 C201 1.425 . S
C196 C203 1.409 . S
C197 H189 0.930 . S
C197 C195 1.419 . S
C197 C198 1.362 . S
C198 H190 0.930 . S
C198 C197 1.362 . S
C198 C201 1.409 . S
C199 H191 0.930 . S
C199 C200 1.355 . S
C199 C201 1.415 . S
C200 C199 1.355 . S
C200 C202 1.419 1_565 S
C201 C196 1.425 . S
C201 C198 1.409 . S
C201 C199 1.415 . S
C202 H192 0.930 . S
C202 C200 1.419 1_545 S
C202 C203 1.362 1_545 S
C203 H193 0.930 1_565 S
C203 C196 1.409 . S
C203 C202 1.362 1_565 S
H204 C210 0.930 . S
H205 C213 0.930 . S
H206 C214 0.930 . S
H207 C215 0.930 . S
H208 C218 0.930 . S
H209 C219 0.930 . S
C210 H204 0.930 . S
C210 C211 1.355 . S
C210 C212 1.415 . S
C211 C210 1.355 . S
C211 C213 1.419 . S
C212 C210 1.415 . S
C212 C217 1.425 . S
C212 C219 1.409 . S
C213 H205 0.930 . S
C213 C211 1.419 . S
C213 C214 1.362 . S
C214 H206 0.930 . S
C214 C213 1.362 . S
C214 C217 1.409 . S
C215 H207 0.930 . S
C215 C216 1.355 . S
C215 C217 1.415 . S
C216 C215 1.355 . S
C216 C218 1.419 . S
C217 C212 1.425 . S
C217 C214 1.409 . S
C217 C215 1.415 . S
C218 H208 0.930 . S
C218 C216 1.419 . S
C218 C219 1.362 . S
C219 H209 0.930 . S
C219 C212 1.409 . S
C219 C218 1.362 . S
H220 C226 0.930 . S
H221 C229 0.930 . S
H222 C230 0.930 . S
H223 C231 0.930 . S
H224 C234 0.930 . S
H225 C235 0.930 . S
C226 H220 0.930 . S
C226 C227 1.355 . S
C226 C228 1.415 . S
C227 C226 1.355 . S
C227 C229 1.419 . S
C228 C226 1.415 . S
C228 C233 1.425 . S
C228 C235 1.409 . S
C229 H221 0.930 . S
C229 C227 1.419 . S
C229 C230 1.362 . S
C230 H222 0.930 . S
C230 C229 1.362 . S
C230 C233 1.409 . S
C231 H223 0.930 . S
C231 C232 1.355 . S
C231 C233 1.415 . S
C232 C231 1.355 . S
C232 C234 1.419 . S
C233 C228 1.425 . S
C233 C230 1.409 . S
C233 C231 1.415 . S
C234 H224 0.930 . S
C234 C232 1.419 . S
C234 C235 1.362 . S
C235 H225 0.930 . S
C235 C228 1.409 . S
C235 C234 1.362 . S
H236 C242 0.930 . S
H237 C245 0.930 . S
H238 C246 0.930 . S
H239 C247 0.930 . S
H240 C250 0.930 . S
H241 C251 0.930 . S
C242 H236 0.930 . S
C242 C243 1.355 . S
C242 C244 1.415 . S
C243 C242 1.355 . S
C243 C245 1.419 . S
C244 C242 1.415 . S
C244 C249 1.425 . S
C244 C251 1.409 . S
C245 H237 0.930 . S
C245 C243 1.419 . S
C245 C246 1.362 . S
C246 H238 0.930 . S
C246 C245 1.362 . S
C246 C249 1.409 . S
C247 H239 0.930 . S
C247 C248 1.355 . S
C247 C249 1.415 . S
C248 C247 1.355 . S
C248 C250 1.419 . S
C249 C244 1.425 . S
C249 C246 1.409 . S
C249 C247 1.415 . S
C250 H240 0.930 . S
C250 C248 1.419 . S
C250 C251 1.362 . S
C251 H241 0.930 . S
C251 C244 1.409 . S
C251 C250 1.362 . S
H252 C258 0.930 1_545 S
H253 C261 0.930 . S
H254 C262 0.930 . S
H255 C263 0.930 . S
H256 C266 0.930 . S
H257 C267 0.930 . S
C258 H252 0.930 1_565 S
C258 C259 1.355 . S
C258 C260 1.415 . S
C259 C258 1.355 . S
C259 C261 1.419 . S
C260 C258 1.415 . S
C260 C265 1.425 . S
C260 C267 1.409 1_565 S
C261 H253 0.930 . S
C261 C259 1.419 . S
C261 C262 1.362 . S
C262 H254 0.930 . S
C262 C261 1.362 . S
C262 C265 1.409 . S
C263 H255 0.930 . S
C263 C264 1.355 . S
C263 C265 1.415 . S
C264 C263 1.355 . S
C264 C266 1.419 1_565 S
C265 C260 1.425 . S
C265 C262 1.409 . S
C265 C263 1.415 . S
C266 H256 0.930 . S
C266 C264 1.419 1_545 S
C266 C267 1.362 . S
C267 H257 0.930 . S
C267 C260 1.409 1_545 S
C267 C266 1.362 . S
H268 C274 0.930 . S
H269 C277 0.930 . S
H270 C278 0.930 1_554 S
H271 C279 0.930 1_554 S
H272 C282 0.930 . S
H273 C283 0.930 . S
C274 H268 0.930 . S
C274 C275 1.355 . S
C274 C276 1.415 . S
C275 C274 1.355 . S
C275 C277 1.419 . S
C276 C274 1.415 . S
C276 C281 1.425 . S
C276 C283 1.409 . S
C277 H269 0.930 . S
C277 C275 1.419 . S
C277 C278 1.362 . S
C278 H270 0.930 1_556 S
C278 C277 1.362 . S
C278 C281 1.409 . S
C279 H271 0.930 1_556 S
C279 C280 1.355 . S
C279 C281 1.415 . S
C280 C279 1.355 . S
C280 C282 1.419 . S
C281 C276 1.425 . S
C281 C278 1.409 . S
C281 C279 1.415 . S
C282 H272 0.930 . S
C282 C280 1.419 . S
C282 C283 1.362 . S
C283 H273 0.930 . S
C283 C276 1.409 . S
C283 C282 1.362 . S
H284 C290 0.930 . S
H285 C293 0.930 . S
H286 C294 0.930 . S
H287 C295 0.930 . S
H288 C298 0.930 . S
H289 C299 0.930 . S
C290 H284 0.930 . S
C290 C291 1.355 . S
C290 C292 1.415 . S
C291 C290 1.355 . S
C291 C293 1.419 . S
C292 C290 1.415 . S
C292 C297 1.425 . S
C292 C299 1.409 . S
C293 H285 0.930 . S
C293 C291 1.419 . S
C293 C294 1.362 . S
C294 H286 0.930 . S
C294 C293 1.362 . S
C294 C297 1.409 . S
C295 H287 0.930 . S
C295 C296 1.355 . S
C295 C297 1.415 . S
C296 C295 1.355 . S
C296 C298 1.419 . S
C297 C292 1.425 . S
C297 C294 1.409 . S
C297 C295 1.415 . S
C298 H288 0.930 . S
C298 C296 1.419 . S
C298 C299 1.362 . S
C299 H289 0.930 . S
C299 C292 1.409 . S
C299 C298 1.362 . S
H300 C306 0.930 . S
H301 C309 0.930 . S
H302 C310 0.930 . S
H303 C311 0.930 . S
H304 C314 0.930 . S
H305 C315 0.930 . S
C306 H300 0.930 . S
C306 C307 1.355 . S
C306 C308 1.415 . S
C307 C306 1.355 . S
C307 C309 1.419 . S
C308 C306 1.415 . S
C308 C313 1.425 . S
C308 C315 1.409 . S
C309 H301 0.930 . S
C309 C307 1.419 . S
C309 C310 1.362 . S
C310 H302 0.930 . S
C310 C309 1.362 . S
C310 C313 1.409 . S
C311 H303 0.930 . S
C311 C312 1.355 . S
C311 C313 1.415 . S
C312 C311 1.355 . S
C312 C314 1.419 . S
C313 C308 1.425 . S
C313 C310 1.409 . S
C313 C311 1.415 . S
C314 H304 0.930 . S
C314 C312 1.419 . S
C314 C315 1.362 . S
C315 H305 0.930 . S
C315 C308 1.409 . S
C315 C314 1.362 . S
H316 C322 0.930 . S
H317 C325 0.930 . S
H318 C326 0.930 . S
H319 C327 0.930 . S
H320 C330 0.930 . S
H321 C331 0.930 . S
C322 H316 0.930 . S
C322 C323 1.355 . S
C322 C324 1.415 . S
C323 C322 1.355 . S
C323 C325 1.419 . S
C324 C322 1.415 . S
C324 C329 1.425 . S
C324 C331 1.409 . S
C325 H317 0.930 . S
C325 C323 1.419 . S
C325 C326 1.362 . S
C326 H318 0.930 . S
C326 C325 1.362 . S
C326 C329 1.409 . S
C327 H319 0.930 . S
C327 C328 1.355 . S
C327 C329 1.415 . S
C328 C327 1.355 . S
C328 C330 1.419 . S
C329 C324 1.425 . S
C329 C326 1.409 . S
C329 C327 1.415 . S
C330 H320 0.930 . S
C330 C328 1.419 . S
C330 C331 1.362 . S
C331 H321 0.930 . S
C331 C324 1.409 . S
C331 C330 1.362 . S
H332 C338 0.930 . S
H333 C341 0.930 . S
H334 C342 0.930 . S
H335 C343 0.930 . S
H336 C346 0.930 . S
H337 C347 0.930 . S
C338 H332 0.930 . S
C338 C339 1.355 . S
C338 C340 1.415 . S
C339 C338 1.355 . S
C339 C341 1.419 . S
C340 C338 1.415 . S
C340 C345 1.425 . S
C340 C347 1.409 . S
C341 H333 0.930 . S
C341 C339 1.419 . S
C341 C342 1.362 . S
C342 H334 0.930 . S
C342 C341 1.362 . S
C342 C345 1.409 . S
C343 H335 0.930 . S
C343 C344 1.355 . S
C343 C345 1.415 . S
C344 C343 1.355 . S
C344 C346 1.419 . S
C345 C340 1.425 . S
C345 C342 1.409 . S
C345 C343 1.415 . S
C346 H336 0.930 . S
C346 C344 1.419 . S
C346 C347 1.362 . S
C347 H337 0.930 . S
C347 C340 1.409 . S
C347 C346 1.362 . S
H348 C354 0.930 . S
H349 C357 0.930 . S
H350 C358 0.930 . S
H351 C359 0.930 . S
H352 C362 0.930 . S
H353 C363 0.930 . S
C354 H348 0.930 . S
C354 C355 1.355 . S
C354 C356 1.415 . S
C355 C354 1.355 . S
C355 C357 1.419 . S
C356 C354 1.415 . S
C356 C361 1.425 . S
C356 C363 1.409 . S
C357 H349 0.930 . S
C357 C355 1.419 . S
C357 C358 1.362 . S
C358 H350 0.930 . S
C358 C357 1.362 . S
C358 C361 1.409 . S
C359 H351 0.930 . S
C359 C360 1.355 . S
C359 C361 1.415 . S
C360 C359 1.355 . S
C360 C362 1.419 . S
C361 C356 1.425 . S
C361 C358 1.409 . S
C361 C359 1.415 . S
C362 H352 0.930 . S
C362 C360 1.419 . S
C362 C363 1.362 . S
C363 H353 0.930 . S
C363 C356 1.409 . S
C363 C362 1.362 . S
H364 C370 0.930 . S
H365 C373 0.930 . S
H366 C374 0.930 1_455 S
H367 C375 0.930 1_455 S
H368 C378 0.930 . S
H369 C379 0.930 . S
C370 H364 0.930 . S
C370 C371 1.355 . S
C370 C372 1.415 . S
C371 C370 1.355 . S
C371 C373 1.419 . S
C372 C370 1.415 . S
C372 C377 1.425 . S
C372 C379 1.409 . S
C373 H365 0.930 . S
C373 C371 1.419 . S
C373 C374 1.362 . S
C374 H366 0.930 1_655 S
C374 C373 1.362 . S
C374 C377 1.409 . S
C375 H367 0.930 1_655 S
C375 C376 1.355 . S
C375 C377 1.415 . S
C376 C375 1.355 . S
C376 C378 1.419 . S
C377 C372 1.425 . S
C377 C374 1.409 . S
C377 C375 1.415 . S
C378 H368 0.930 . S
C378 C376 1.419 . S
C378 C379 1.362 . S
C379 H369 0.930 . S
C379 C372 1.409 . S
C379 C378 1.362 . S
H380 C386 0.930 . S
H381 C389 0.930 . S
H382 C390 0.930 . S
H383 C391 0.930 . S
H384 C394 0.930 . S
H385 C395 0.930 . S
C386 H380 0.930 . S
C386 C387 1.355 . S
C386 C388 1.415 . S
C387 C386 1.355 . S
C387 C389 1.419 . S
C388 C386 1.415 . S
C388 C393 1.425 . S
C388 C395 1.409 . S
C389 H381 0.930 . S
C389 C387 1.419 . S
C389 C390 1.362 . S
C390 H382 0.930 . S
C390 C389 1.362 . S
C390 C393 1.409 . S
C391 H383 0.930 . S
C391 C392 1.355 . S
C391 C393 1.415 . S
C392 C391 1.355 . S
C392 C394 1.419 . S
C393 C388 1.425 . S
C393 C390 1.409 . S
C393 C391 1.415 . S
C394 H384 0.930 . S
C394 C392 1.419 . S
C394 C395 1.362 . S
C395 H385 0.930 . S
C395 C388 1.409 . S
C395 C394 1.362 . S
H396 C402 0.930 . S
H397 C405 0.930 . S
H398 C406 0.930 . S
H399 C407 0.930 . S
H400 C410 0.930 . S
H401 C411 0.930 . S
C402 H396 0.930 . S
C402 C403 1.355 . S
C402 C404 1.415 . S
C403 C402 1.355 . S
C403 C405 1.419 . S
C404 C402 1.415 . S
C404 C409 1.425 . S
C404 C411 1.409 . S
C405 H397 0.930 . S
C405 C403 1.419 . S
C405 C406 1.362 . S
C406 H398 0.930 . S
C406 C405 1.362 . S
C406 C409 1.409 . S
C407 H399 0.930 . S
C407 C408 1.355 . S
C407 C409 1.415 . S
C408 C407 1.355 . S
C408 C410 1.419 . S
C409 C404 1.425 . S
C409 C406 1.409 . S
C409 C407 1.415 . S
C410 H400 0.930 . S
C410 C408 1.419 . S
C410 C411 1.362 . S
C411 H401 0.930 . S
C411 C404 1.409 . S
C411 C410 1.362 . S
H412 C418 0.930 . S
H413 C421 0.930 . S
H414 C422 0.930 . S
H415 C423 0.930 . S
H416 C426 0.930 . S
H417 C427 0.930 . S
C418 H412 0.930 . S
C418 C419 1.355 . S
C418 C420 1.415 . S
C419 C418 1.355 . S
C419 C421 1.419 . S
C420 C418 1.415 . S
C420 C425 1.425 . S
C420 C427 1.409 . S
C421 H413 0.930 . S
C421 C419 1.419 . S
C421 C422 1.362 . S
C422 H414 0.930 . S
C422 C421 1.362 . S
C422 C425 1.409 . S
C423 H415 0.930 . S
C423 C424 1.355 . S
C423 C425 1.415 . S
C424 C423 1.355 . S
C424 C426 1.419 . S
C425 C420 1.425 . S
C425 C422 1.409 . S
C425 C423 1.415 . S
C426 H416 0.930 . S
C426 C424 1.419 . S
C426 C427 1.362 . S
C427 H417 0.930 . S
C427 C420 1.409 . S
C427 C426 1.362 . S
H428 C434 0.930 . S
H429 C437 0.930 1_545 S
H430 C438 0.930 . S
H431 C439 0.930 . S
H432 C442 0.930 . S
H433 C443 0.930 . S
C434 H428 0.930 . S
C434 C435 1.355 . S
C434 C436 1.415 . S
C435 C434 1.355 . S
C435 C437 1.419 . S
C436 C434 1.415 . S
C436 C441 1.425 . S
C436 C443 1.409 1_556 S
C437 H429 0.930 1_565 S
C437 C435 1.419 . S
C437 C438 1.362 1_565 S
C438 H430 0.930 . S
C438 C437 1.362 1_545 S
C438 C441 1.409 1_545 S
C439 H431 0.930 . S
C439 C440 1.355 1_545 S
C439 C441 1.415 1_545 S
C440 C439 1.355 1_565 S
C440 C442 1.419 1_556 S
C441 C436 1.425 . S
C441 C438 1.409 1_565 S
C441 C439 1.415 1_565 S
C442 H432 0.930 . S
C442 C440 1.419 1_554 S
C442 C443 1.362 . S
C443 H433 0.930 . S
C443 C436 1.409 1_554 S
C443 C442 1.362 . S
H444 C450 0.930 . S
H445 C453 0.930 . S
H446 C454 0.930 . S
H447 C455 0.930 . S
H448 C458 0.930 . S
H449 C459 0.930 . S
C450 H444 0.930 . S
C450 C451 1.355 . S
C450 C452 1.415 . S
C451 C450 1.355 . S
C451 C453 1.419 . S
C452 C450 1.415 . S
C452 C457 1.425 . S
C452 C459 1.409 . S
C453 H445 0.930 . S
C453 C451 1.419 . S
C453 C454 1.362 . S
C454 H446 0.930 . S
C454 C453 1.362 . S
C454 C457 1.409 . S
C455 H447 0.930 . S
C455 C456 1.355 . S
C455 C457 1.415 . S
C456 C455 1.355 . S
C456 C458 1.419 . S
C457 C452 1.425 . S
C457 C454 1.409 . S
C457 C455 1.415 . S
C458 H448 0.930 . S
C458 C456 1.419 . S
C458 C459 1.362 . S
C459 H449 0.930 . S
C459 C452 1.409 . S
C459 C458 1.362 . S
H460 C466 0.930 . S
H461 C469 0.930 . S
H462 C470 0.930 . S
H463 C471 0.930 . S
H464 C474 0.930 . S
H465 C475 0.930 . S
C466 H460 0.930 . S
C466 C467 1.355 . S
C466 C468 1.415 . S
C467 C466 1.355 . S
C467 C469 1.419 . S
C468 C466 1.415 . S
C468 C473 1.425 . S
C468 C475 1.409 . S
C469 H461 0.930 . S
C469 C467 1.419 . S
C469 C470 1.362 . S
C470 H462 0.930 . S
C470 C469 1.362 . S
C470 C473 1.409 . S
C471 H463 0.930 . S
C471 C472 1.355 . S
C471 C473 1.415 . S
C472 C471 1.355 . S
C472 C474 1.419 . S
C473 C468 1.425 . S
C473 C470 1.409 . S
C473 C471 1.415 . S
C474 H464 0.930 . S
C474 C472 1.419 . S
C474 C475 1.362 . S
C475 H465 0.930 . S
C475 C468 1.409 . S
C475 C474 1.362 . S
H476 C482 0.930 . S
H477 C485 0.930 . S
H478 C486 0.930 . S
H479 C487 0.930 . S
H480 C490 0.930 . S
H481 C491 0.930 . S
C482 H476 0.930 . S
C482 C483 1.355 . S
C482 C484 1.415 . S
C483 C482 1.355 . S
C483 C485 1.419 . S
C484 C482 1.415 . S
C484 C489 1.425 . S
C484 C491 1.409 . S
C485 H477 0.930 . S
C485 C483 1.419 . S
C485 C486 1.362 . S
C486 H478 0.930 . S
C486 C485 1.362 . S
C486 C489 1.409 . S
C487 H479 0.930 . S
C487 C488 1.355 . S
C487 C489 1.415 . S
C488 C487 1.355 . S
C488 C490 1.419 . S
C489 C484 1.425 . S
C489 C486 1.409 . S
C489 C487 1.415 . S
C490 H480 0.930 . S
C490 C488 1.419 . S
C490 C491 1.362 . S
C491 H481 0.930 . S
C491 C484 1.409 . S
C491 C490 1.362 . S
H492 C498 0.930 . S
H493 C501 0.930 . S
H494 C502 0.930 . S
H495 C503 0.930 . S
H496 C506 0.930 1_454 S
H497 C507 0.938 1_455 S
C498 H492 0.930 . S
C498 C499 1.355 . S
C498 C500 1.415 . S
C499 C498 1.355 . S
C499 C501 1.419 . S
C500 C498 1.415 . S
C500 C505 1.425 . S
C500 C507 1.409 . S
C501 H493 0.930 . S
C501 C499 1.419 . S
C501 C502 1.362 . S
C502 H494 0.930 . S
C502 C501 1.362 . S
C502 C505 1.409 . S
C503 H495 0.930 . S
C503 C504 1.355 . S
C503 C505 1.415 . S
C504 C503 1.355 . S
C504 C506 1.419 . S
C505 C500 1.425 . S
C505 C502 1.409 . S
C505 C503 1.415 . S
C506 H496 0.930 1_656 S
C506 C504 1.419 . S
C506 C507 1.362 . S
C507 H497 0.938 1_655 S
C507 C500 1.409 . S
C507 C506 1.362 . S
H508 C514 0.930 . S
H509 C517 0.930 . S
H510 C518 0.930 . S
H511 C519 0.930 . S
H512 C522 0.930 . S
H513 C523 0.930 . S
C514 H508 0.930 . S
C514 C515 1.355 . S
C514 C516 1.415 . S
C515 C514 1.355 . S
C515 C517 1.419 . S
C516 C514 1.415 . S
C516 C521 1.425 . S
C516 C523 1.409 . S
C517 H509 0.930 . S
C517 C515 1.419 . S
C517 C518 1.362 . S
C518 H510 0.930 . S
C518 C517 1.362 . S
C518 C521 1.409 . S
C519 H511 0.930 . S
C519 C520 1.355 . S
C519 C521 1.415 . S
C520 C519 1.355 . S
C520 C522 1.419 . S
C521 C516 1.425 . S
C521 C518 1.409 . S
C521 C519 1.415 . S
C522 H512 0.930 . S
C522 C520 1.419 . S
C522 C523 1.362 . S
C523 H513 0.930 . S
C523 C516 1.409 . S
C523 C522 1.362 . S
H524 C530 0.930 . S
H525 C533 0.930 . S
H526 C534 0.930 . S
H527 C535 0.930 . S
H528 C538 0.930 . S
H529 C539 0.930 . S
C530 H524 0.930 . S
C530 C531 1.355 . S
C530 C532 1.415 . S
C531 C530 1.355 . S
C531 C533 1.419 . S
C532 C530 1.415 . S
C532 C537 1.425 . S
C532 C539 1.409 . S
C533 H525 0.930 . S
C533 C531 1.419 . S
C533 C534 1.362 . S
C534 H526 0.930 . S
C534 C533 1.362 . S
C534 C537 1.409 . S
C535 H527 0.930 . S
C535 C536 1.355 . S
C535 C537 1.415 . S
C536 C535 1.355 . S
C536 C538 1.419 . S
C537 C532 1.425 . S
C537 C534 1.409 . S
C537 C535 1.415 . S
C538 H528 0.930 . S
C538 C536 1.419 . S
C538 C539 1.362 . S
C539 H529 0.930 . S
C539 C532 1.409 . S
C539 C538 1.362 . S
H540 C546 0.930 . S
H541 C549 0.930 . S
H542 C550 0.930 . S
H543 C551 0.930 . S
H544 C554 0.930 . S
H545 C555 0.930 . S
C546 H540 0.930 . S
C546 C547 1.355 . S
C546 C548 1.415 . S
C547 C546 1.355 . S
C547 C549 1.419 . S
C548 C546 1.415 . S
C548 C553 1.425 . S
C548 C555 1.409 . S
C549 H541 0.930 . S
C549 C547 1.419 . S
C549 C550 1.362 . S
C550 H542 0.930 . S
C550 C549 1.362 . S
C550 C553 1.409 . S
C551 H543 0.930 . S
C551 C552 1.355 . S
C551 C553 1.415 . S
C552 C551 1.355 . S
C552 C554 1.419 . S
C553 C548 1.425 . S
C553 C550 1.409 . S
C553 C551 1.415 . S
C554 H544 0.930 . S
C554 C552 1.419 . S
C554 C555 1.362 . S
C555 H545 0.930 . S
C555 C548 1.409 . S
C555 C554 1.362 . S
C179 C4 1.724 . S
C184 C104 1.653 . S
C195 C16 1.723 . S
C200 C126 1.696 . S
C216 C145 1.072 . S
C211 C32 1.165 . S
C227 C43 1.563 . S
C232 C166 1.239 . S
C248 C123 2.061 . S
C243 C5 2.115 . S
C264 C101 1.364 1_565 S
C259 C21 1.428 . S
C280 C168 1.169 . S
C275 C27 1.256 . S
C296 C147 1.256 . S
C291 C37 1.392 . S
C307 C10 1.674 . S
C312 C165 1.652 . S
C328 C124 1.402 1_556 S
C323 C26 1.663 . S
C339 C38 1.444 . S
C344 C106 1.224 . S
C355 C15 1.611 . S
C360 C144 1.553 . S
C376 C102 1.751 1_565 S
C371 C48 1.859 . S
C387 C59 1.429 . S
C392 C122 1.430 . S
C403 C76 1.381 . S
C408 C148 1.108 . S
C419 C87 1.362 . S
C424 C169 1.076 . S
C435 C54 1.525 . S
C440 C125 1.480 . S
C456 C105 1.984 . S
C451 C60 2.022 . S
C472 C164 1.084 . S
C467 C71 1.197 . S
C488 C143 1.379 . S
C483 C82 1.411 . S
C499 C49 1.755 . S
C504 C167 1.731 . S
C520 C127 0.970 . S
C515 C70 1.244 . S
C536 C103 1.324 . S
C531 C81 1.547 . S
C547 C65 1.470 . S
C552 C146 1.472 . S
