# Generated by pormake.
# Topology dag, (6,3)-cn, num edge types: 1
# Building blocks:
#     Node 0, Type 0, BuildingBlock: OJICUG_clean_sbu_0, # of connection points: 6
#     Node 1, Type 0, BuildingBlock: OJICUG_clean_sbu_0, # of connection points: 6
#     Node 2, Type 0, BuildingBlock: OJICUG_clean_sbu_0, # of connection points: 6
#     Node 3, Type 0, BuildingBlock: OJICUG_clean_sbu_0, # of connection points: 6
#     Node 4, Type 1, BuildingBlock: BETDIP_clean_linker_0, # of connection points: 3
#     Node 5, Type 1, BuildingBlock: BETDIP_clean_linker_0, # of connection points: 3
#     Node 6, Type 1, BuildingBlock: BETDIP_clean_linker_0, # of connection points: 3
#     Node 7, Type 1, BuildingBlock: BETDIP_clean_linker_0, # of connection points: 3
#     Node 8, Type 1, BuildingBlock: BETDIP_clean_linker_0, # of connection points: 3
#     Node 9, Type 1, BuildingBlock: BETDIP_clean_linker_0, # of connection points: 3
#     Node 10, Type 1, BuildingBlock: BETDIP_clean_linker_0, # of connection points: 3
#     Node 11, Type 1, BuildingBlock: BETDIP_clean_linker_0, # of connection points: 3
#     Edge 12, Type (0, 1), BuildingBlock: EZIPEK_clean_linker_0, # of connection points: 2
#     Edge 13, Type (0, 1), BuildingBlock: EZIPEK_clean_linker_0, # of connection points: 2
#     Edge 14, Type (0, 1), BuildingBlock: EZIPEK_clean_linker_0, # of connection points: 2
#     Edge 15, Type (0, 1), BuildingBlock: EZIPEK_clean_linker_0, # of connection points: 2
#     Edge 16, Type (0, 1), BuildingBlock: EZIPEK_clean_linker_0, # of connection points: 2
#     Edge 17, Type (0, 1), BuildingBlock: EZIPEK_clean_linker_0, # of connection points: 2
#     Edge 18, Type (0, 1), BuildingBlock: EZIPEK_clean_linker_0, # of connection points: 2
#     Edge 19, Type (0, 1), BuildingBlock: EZIPEK_clean_linker_0, # of connection points: 2
#     Edge 20, Type (0, 1), BuildingBlock: EZIPEK_clean_linker_0, # of connection points: 2
#     Edge 21, Type (0, 1), BuildingBlock: EZIPEK_clean_linker_0, # of connection points: 2
#     Edge 22, Type (0, 1), BuildingBlock: EZIPEK_clean_linker_0, # of connection points: 2
#     Edge 23, Type (0, 1), BuildingBlock: EZIPEK_clean_linker_0, # of connection points: 2
#     Edge 24, Type (0, 1), BuildingBlock: EZIPEK_clean_linker_0, # of connection points: 2
#     Edge 25, Type (0, 1), BuildingBlock: EZIPEK_clean_linker_0, # of connection points: 2
#     Edge 26, Type (0, 1), BuildingBlock: EZIPEK_clean_linker_0, # of connection points: 2
#     Edge 27, Type (0, 1), BuildingBlock: EZIPEK_clean_linker_0, # of connection points: 2
#     Edge 28, Type (0, 1), BuildingBlock: EZIPEK_clean_linker_0, # of connection points: 2
#     Edge 29, Type (0, 1), BuildingBlock: EZIPEK_clean_linker_0, # of connection points: 2
#     Edge 30, Type (0, 1), BuildingBlock: EZIPEK_clean_linker_0, # of connection points: 2
#     Edge 31, Type (0, 1), BuildingBlock: EZIPEK_clean_linker_0, # of connection points: 2
#     Edge 32, Type (0, 1), BuildingBlock: EZIPEK_clean_linker_0, # of connection points: 2
#     Edge 33, Type (0, 1), BuildingBlock: EZIPEK_clean_linker_0, # of connection points: 2
#     Edge 34, Type (0, 1), BuildingBlock: EZIPEK_clean_linker_0, # of connection points: 2
#     Edge 35, Type (0, 1), BuildingBlock: EZIPEK_clean_linker_0, # of connection points: 2
# Relax obj value: 0.091
# Max RMSD: 0.116
# Mean RMSD: 0.097
data_MOF--net-dag--node1-OJICUG_clean_sbu_0--node2-BETDIP_clean_linker_0--edge1-EZIPEK_clean_linker_0
_symmetry_space_group_name_H-M    P1
_symmetry_Int_Tables_number       1
_symmetry_cell_setting            triclinic
loop_
_symmetry_equiv_pos_as_xyz
'x, y, z'
_cell_length_a     28.314363
_cell_length_b     27.786703
_cell_length_c     29.228601
_cell_angle_alpha  85.340136
_cell_angle_beta   90.079024
_cell_angle_gamma 89.945507
loop_
_atom_site_label
_atom_site_type_symbol
_atom_site_fract_x
_atom_site_fract_y
_atom_site_fract_z
_atom_type_partial_charge
Sc0 Sc 0.11476 0.9057 0.99396 0.0
Sc1 Sc 0.14698 0.78376 0.99488 0.0
Sc2 Sc 0.23041 0.87546 0.96367 0.0
O3 O 0.16406 0.85495 0.98401 0.0
C4 C 0.16807 0.95141 0.90388 0.0
C5 C 0.05145 0.82822 0.94997 0.0
C6 C 0.20934 0.78527 0.90557 0.0
C7 C 0.09544 0.82684 0.07818 0.0
C8 C 0.20587 0.95319 0.0341 0.0
C9 C 0.25202 0.7868 0.03521 0.0
O10 O 0.13423 0.94905 0.93253 0.0
O11 O 0.07732 0.79261 0.96422 0.0
O12 O 0.23376 0.82118 0.91573 0.0
O13 O 0.0897 0.86806 0.0566 0.0
O14 O 0.23506 0.93273 0.00904 0.0
O15 O 0.21334 0.76554 0.028 0.0
O16 O 0.16181 0.94506 0.03428 0.0
O17 O 0.1187 0.79292 0.06211 0.0
O18 O 0.2626 0.8284 0.01695 0.0
O19 O 0.06212 0.8718 0.95487 0.0
O20 O 0.20463 0.92485 0.90832 0.0
O21 O 0.17441 0.76844 0.92898 0.0
Sc22 Sc 0.7265 0.62337 0.55885 0.0
Sc23 Sc 0.65 0.71816 0.51714 0.0
Sc24 Sc 0.61352 0.59707 0.51774 0.0
O25 O 0.66343 0.64629 0.53109 0.0
C26 C 0.70662 0.54303 0.48929 0.0
C27 C 0.7581 0.70872 0.48716 0.0
C28 C 0.6027 0.67448 0.431 0.0
C29 C 0.70538 0.71714 0.61148 0.0
C30 C 0.65458 0.55328 0.61435 0.0
C31 C 0.55069 0.67962 0.5562 0.0
O32 O 0.73401 0.56502 0.51498 0.0
O33 O 0.71882 0.73085 0.48752 0.0
O34 O 0.59675 0.6329 0.4517 0.0
O35 O 0.72718 0.67816 0.60607 0.0
O36 O 0.62381 0.55602 0.58256 0.0
O37 O 0.57937 0.7138 0.54531 0.0
O38 O 0.69299 0.57695 0.61203 0.0
O39 O 0.67483 0.73573 0.58347 0.0
O40 O 0.55871 0.63583 0.5495 0.0
O41 O 0.76619 0.66842 0.50952 0.0
O42 O 0.66287 0.55243 0.48491 0.0
O43 O 0.62354 0.70875 0.44904 0.0
Sc44 Sc 0.84546 0.20999 0.04082 0.0
Sc45 Sc 0.75927 0.12162 0.07087 0.0
Sc46 Sc 0.87066 0.08966 0.03624 0.0
O47 O 0.82477 0.14043 0.05034 0.0
C48 C 0.8951 0.16237 0.95717 0.0
C49 C 0.74401 0.21247 -0.00283 0.0
C50 C 0.77558 0.04336 0.00217 0.0
C51 C 0.77744 0.21016 0.12863 0.0
C52 C 0.93598 0.166 0.08318 0.0
C53 C 0.82708 0.04505 0.12752 0.0
O54 O 0.89247 0.19713 0.98303 0.0
O55 O 0.72812 0.17918 0.02575 0.0
O56 O 0.81937 0.04203 0.01083 0.0
O57 O 0.80426 0.23138 0.09841 0.0
O58 O 0.93082 0.12936 0.06015 0.0
O59 O 0.78606 0.06237 0.11776 0.0
O60 O 0.90386 0.19732 0.08671 0.0
O61 O 0.76426 0.16691 0.126 0.0
O62 O 0.86375 0.05512 0.10359 0.0
O63 O 0.78716 0.22544 0.99499 0.0
O64 O 0.87453 0.12282 0.96802 0.0
O65 O 0.74795 0.07441 0.01699 0.0
Sc66 Sc 0.38403 0.39454 0.50861 0.0
Sc67 Sc 0.27292 0.36569 0.4646 0.0
Sc68 Sc 0.34793 0.27343 0.51437 0.0
O69 O 0.33482 0.3445 0.49596 0.0
C70 C 0.44808 0.31066 0.47598 0.0
C71 C 0.34534 0.43555 0.41003 0.0
C72 C 0.29846 0.26949 0.41745 0.0
C73 C 0.2897 0.44814 0.53289 0.0
C74 C 0.39288 0.32094 0.59869 0.0
C75 C 0.2386 0.28393 0.53901 0.0
O76 O 0.43916 0.35512 0.47843 0.0
O77 O 0.3079 0.41037 0.41111 0.0
O78 O 0.32707 0.2527 0.4482 0.0
O79 O 0.33317 0.43866 0.53955 0.0
O80 O 0.37055 0.28646 0.58267 0.0
O81 O 0.23131 0.32283 0.51409 0.0
O82 O 0.40081 0.36087 0.57564 0.0
O83 O 0.26356 0.42615 0.50596 0.0
O84 O 0.27797 0.26191 0.54148 0.0
O85 O 0.37453 0.43455 0.44311 0.0
O86 O 0.4199 0.27686 0.48947 0.0
O87 O 0.27538 0.30844 0.4196 0.0
H88 H 0.13263 0.21101 0.20174 0.0
H89 H 0.25534 0.12408 0.17777 0.0
H90 H 0.12657 0.10234 0.10538 0.0
H91 H 0.27495 0.13958 0.24789 0.0
C92 C 0.26024 0.17443 0.25425 0.0
C93 C 0.14977 0.18296 0.18409 0.0
C94 C 0.12446 0.15848 0.1519 0.0
C95 C 0.19665 0.16999 0.1948 0.0
C96 C 0.21876 0.13372 0.17152 0.0
C97 C 0.19328 0.10917 0.1397 0.0
C98 C 0.1463 0.1216 0.12999 0.0
N99 N 0.21986 0.19307 0.23002 0.0
H100 H 0.23604 0.63168 0.66209 0.0
H101 H 0.3544 0.72829 0.66959 0.0
H102 H 0.36097 0.61132 0.58253 0.0
H103 H 0.331 0.71838 0.74636 0.0
C104 C 0.29296 0.72271 0.74312 0.0
C105 C 0.27107 0.64326 0.6511 0.0
C106 C 0.29595 0.61739 0.61983 0.0
C107 C 0.29253 0.68217 0.67044 0.0
C108 C 0.33797 0.6973 0.65597 0.0
C109 C 0.36279 0.67163 0.62437 0.0
C110 C 0.34163 0.63166 0.60657 0.0
N111 N 0.26877 0.70356 0.70622 0.0
H112 H 0.98965 0.78868 0.28476 0.0
H113 H 0.87229 0.88367 0.30532 0.0
H114 H 0.95466 0.90307 0.18233 0.0
H115 H 0.89375 0.85945 0.38482 0.0
C116 C 0.89206 0.82179 0.37742 0.0
C117 C 0.96835 0.81988 0.27355 0.0
C118 C 0.97727 0.84523 0.231 0.0
C119 C 0.93114 0.83398 0.30109 0.0
C120 C 0.90252 0.87353 0.28556 0.0
C121 C 0.91091 0.89823 0.24272 0.0
C122 C 0.94861 0.88438 0.21586 0.0
N123 N 0.92001 0.80496 0.34181 0.0
H124 H 0.51353 0.29755 0.8008 0.0
H125 H 0.62419 0.40428 0.8012 0.0
H126 H 0.52546 0.40839 0.68984 0.0
H127 H 0.66466 0.34128 0.8334 0.0
C128 C 0.63979 0.32073 0.85539 0.0
C129 C 0.53059 0.32985 0.78551 0.0
C130 C 0.51408 0.35178 0.74355 0.0
C131 C 0.57124 0.34752 0.80596 0.0
C132 C 0.59353 0.38918 0.78552 0.0
C133 C 0.57725 0.4108 0.74351 0.0
C134 C 0.53742 0.39224 0.72289 0.0
N135 N 0.59071 0.32104 0.84514 0.0
H136 H 0.64516 0.25267 0.36975 0.0
H137 H 0.76121 0.35364 0.36548 0.0
H138 H 0.63772 0.37885 0.44495 0.0
H139 H 0.79764 0.30178 0.32297 0.0
C140 C 0.77071 0.27983 0.30859 0.0
C141 C 0.66136 0.28517 0.3807 0.0
C142 C 0.63636 0.31416 0.40923 0.0
C143 C 0.70622 0.29903 0.36436 0.0
C144 C 0.72686 0.34176 0.37789 0.0
C145 C 0.70214 0.37024 0.40726 0.0
C146 C 0.65704 0.35637 0.42272 0.0
N147 N 0.72708 0.27092 0.33152 0.0
H148 H 0.01062 0.21173 0.75518 0.0
H149 H 0.13212 0.124 0.72913 0.0
H150 H 0.06175 0.10474 0.85844 0.0
H151 H 0.10099 0.14459 0.65157 0.0
C152 C 0.10417 0.18245 0.65792 0.0
C153 C 0.03609 0.18428 0.76684 0.0
C154 C 0.03157 0.15969 0.81057 0.0
C155 C 0.07298 0.17256 0.73759 0.0
C156 C 0.10423 0.13458 0.75156 0.0
C157 C 0.09974 0.11012 0.79497 0.0
C158 C 0.06493 0.12415 0.82484 0.0
N159 N 0.07939 0.20039 0.69513 0.0
H160 H 0.48027 0.7003 0.2303 0.0
H161 H 0.37364 0.58977 0.2267 0.0
H162 H 0.47169 0.58638 0.33874 0.0
H163 H 0.33134 0.65508 0.19833 0.0
C164 C 0.35563 0.67329 0.17396 0.0
C165 C 0.46427 0.66707 0.24478 0.0
C166 C 0.48128 0.64471 0.28636 0.0
C167 C 0.42458 0.64837 0.22358 0.0
C168 C 0.40369 0.60543 0.24295 0.0
C169 C 0.4204 0.58334 0.28465 0.0
C170 C 0.45934 0.6029 0.30597 0.0
N171 N 0.40452 0.67498 0.18474 0.0
H172 H 0.72902 0.87067 0.85908 0.0
H173 H 0.85219 0.78268 0.84163 0.0
H174 H 0.85579 0.89382 0.93534 0.0
H175 H 0.82448 0.79555 0.76617 0.0
C176 C 0.78718 0.7877 0.77127 0.0
C177 C 0.76495 0.86048 0.86835 0.0
C178 C 0.78964 0.88589 0.90015 0.0
C179 C 0.78769 0.82433 0.84602 0.0
C180 C 0.83457 0.81148 0.85777 0.0
C181 C 0.85918 0.8365 0.89001 0.0
C182 C 0.83657 0.87373 0.91101 0.0
N183 N 0.76357 0.80348 0.81006 0.0
C184 C 0.22234 0.98286 0.11002 0.0
C185 C 0.22229 0.99176 0.06178 0.0
C186 C 0.22609 0.07858 0.06897 0.0
C187 C 0.21472 0.06966 0.11599 0.0
N188 N 0.20429 0.01408 0.18302 0.0
N189 N 0.22737 0.04705 0.99411 0.0
C190 C 0.21472 0.02199 0.1374 0.0
C191 C 0.22646 0.03937 0.04085 0.0
N192 N 0.22906 0.93688 0.12912 0.0
N193 N 0.2353 0.12469 0.05141 0.0
H194 H 0.22905 0.0188 0.97284 0.0
H195 H 0.22448 0.08098 0.9764 0.0
H196 H 0.23496 0.15387 0.07177 0.0
H197 H 0.2473 0.1334 0.01812 0.0
H198 H 0.23293 0.92809 0.16424 0.0
H199 H 0.2351 0.90809 0.10902 0.0
H200 H 0.19814 0.97996 0.19934 0.0
H201 H 0.1996 0.04208 0.20427 0.0
C202 C 0.46535 0.69984 0.5445 0.0
C203 C 0.50398 0.69087 0.57487 0.0
C204 C 0.45021 0.67704 0.6399 0.0
C205 C 0.41134 0.68551 0.60946 0.0
N206 N 0.38188 0.7182 0.53603 0.0
N207 N 0.53452 0.68596 0.65183 0.0
C208 C 0.41901 0.7015 0.56275 0.0
C209 C 0.49677 0.68467 0.62282 0.0
N210 N 0.47279 0.70442 0.49817 0.0
N211 N 0.44296 0.65867 0.68413 0.0
H212 H 0.5689 0.69193 0.63982 0.0
H213 H 0.53125 0.68576 0.68733 0.0
H214 H 0.4095 0.65202 0.69801 0.0
H215 H 0.47025 0.64659 0.7061 0.0
H216 H 0.4457 0.7053 0.47399 0.0
H217 H 0.50649 0.70449 0.48385 0.0
H218 H 0.38574 0.73421 0.50279 0.0
H219 H 0.34757 0.7202 0.54877 0.0
C220 C 0.85873 0.02098 0.20515 0.0
C221 C 0.83315 0.00826 0.16633 0.0
C222 C 0.84403 0.92264 0.1904 0.0
C223 C 0.87776 0.93567 0.22307 0.0
N224 N 0.91655 0.9964 0.26386 0.0
N225 N 0.79918 0.94776 0.12184 0.0
C226 C 0.88424 0.98465 0.23185 0.0
C227 C 0.82409 0.95922 0.15953 0.0
N228 N 0.85869 0.06792 0.21586 0.0
N229 N 0.8318 0.87524 0.18865 0.0
H230 H 0.78294 0.97384 0.09946 0.0
H231 H 0.79633 0.91289 0.11154 0.0
H232 H 0.84627 0.8477 0.21075 0.0
H233 H 0.80454 0.86367 0.1683 0.0
H234 H 0.87375 0.07943 0.24559 0.0
H235 H 0.83977 0.09474 0.19655 0.0
H236 H 0.92697 0.03165 0.26822 0.0
H237 H 0.93472 0.9704 0.28483 0.0
C238 C 0.40056 0.34871 0.67748 0.0
C239 C 0.41288 0.31486 0.6457 0.0
C240 C 0.48511 0.2937 0.68871 0.0
C241 C 0.47505 0.33081 0.71784 0.0
N242 N 0.41886 0.38406 0.74893 0.0
N243 N 0.45698 0.24347 0.63044 0.0
C244 C 0.43091 0.35486 0.71537 0.0
C245 C 0.45163 0.28309 0.65475 0.0
N246 N 0.36067 0.37595 0.67012 0.0
N247 N 0.52812 0.27122 0.69114 0.0
H248 H 0.43357 0.23471 0.60495 0.0
H249 H 0.48209 0.2167 0.63845 0.0
H250 H 0.55313 0.27702 0.71632 0.0
H251 H 0.54023 0.24889 0.66673 0.0
H252 H 0.35188 0.40515 0.68856 0.0
H253 H 0.33649 0.36942 0.64436 0.0
H254 H 0.38609 0.40066 0.75114 0.0
H255 H 0.44088 0.38866 0.77693 0.0
C256 C 0.72056 0.50336 0.41741 0.0
C257 C 0.72472 0.50169 0.46571 0.0
C258 C 0.73823 0.41454 0.46868 0.0
C259 C 0.72222 0.41521 0.42281 0.0
N260 N 0.70088 0.4596 0.35153 0.0
N261 N 0.74105 0.45635 0.53804 0.0
C262 C 0.71533 0.45955 0.39614 0.0
C263 C 0.736 0.45763 0.49149 0.0
N264 N 0.7215 0.54696 0.39234 0.0
N265 N 0.7543 0.37228 0.49042 0.0
H266 H 0.74148 0.48734 0.55571 0.0
H267 H 0.74289 0.42455 0.55942 0.0
H268 H 0.75581 0.34031 0.47402 0.0
H269 H 0.77007 0.36985 0.52273 0.0
H270 H 0.72252 0.55069 0.35662 0.0
H271 H 0.72628 0.57919 0.40781 0.0
H272 H 0.68975 0.49054 0.33198 0.0
H273 H 0.69809 0.42804 0.33468 0.0
C274 C 0.94004 0.20925 0.89163 0.0
C275 C 0.92684 0.16472 0.91605 0.0
C276 C 0.9661 0.12237 0.85697 0.0
C277 C 0.9895 0.16508 0.84038 0.0
N278 N 0.0023 0.25032 0.84714 0.0
N279 N 0.94639 0.07888 0.92797 0.0
C280 C 0.97738 0.20919 0.85887 0.0
C281 C 0.94466 0.12095 0.90031 0.0
N282 N 0.91648 0.25101 0.89806 0.0
N283 N 0.96681 0.08234 0.83284 0.0
H284 H 0.94089 0.07724 0.96329 0.0
H285 H 0.96141 0.04741 0.91719 0.0
H286 H 0.98173 0.08268 0.80015 0.0
H287 H 0.94814 0.05106 0.84352 0.0
H288 H 0.92339 0.28331 0.87851 0.0
H289 H 0.88624 0.2521 0.91819 0.0
H290 H 0.99721 0.28203 0.86328 0.0
H291 H 0.03065 0.25151 0.8244 0.0
C292 C 0.40003 0.45922 0.34488 0.0
C293 C 0.35716 0.46714 0.3683 0.0
C294 C 0.35183 0.54897 0.33095 0.0
C295 C 0.39535 0.54163 0.30844 0.0
N296 N 0.45483 0.48709 0.28452 0.0
N297 N 0.28483 0.51264 0.37182 0.0
C298 C 0.41745 0.49568 0.31229 0.0
C299 C 0.33044 0.50965 0.3572 0.0
N300 N 0.42442 0.41717 0.3547 0.0
N301 N 0.33244 0.59416 0.32985 0.0
H302 H 0.26771 0.48425 0.39035 0.0
H303 H 0.26235 0.54112 0.36131 0.0
H304 H 0.3469 0.6242 0.3113 0.0
H305 H 0.30405 0.60276 0.35031 0.0
H306 H 0.45863 0.41124 0.34343 0.0
H307 H 0.41068 0.38844 0.37575 0.0
H308 H 0.47022 0.45328 0.28272 0.0
H309 H 0.46804 0.51324 0.26023 0.0
C310 C 0.96685 0.80475 0.96287 0.0
C311 C 0.00374 0.81915 0.93189 0.0
C312 C 0.94601 0.83958 0.87098 0.0
C313 C 0.90913 0.82481 0.90189 0.0
N314 N 0.88471 0.7816 0.97266 0.0
N315 N 0.02996 0.83746 0.85432 0.0
C316 C 0.91975 0.80334 0.94635 0.0
C317 C 0.99373 0.83232 0.88511 0.0
N318 N 0.97636 0.79533 0.00857 0.0
N319 N 0.93559 0.86295 0.82922 0.0
H320 H 0.06509 0.83142 0.86403 0.0
H321 H 0.02495 0.84291 0.81898 0.0
H322 H 0.90113 0.86899 0.81752 0.0
H323 H 0.96101 0.87943 0.80753 0.0
H324 H 0.95029 0.79039 0.03362 0.0
H325 H 0.01042 0.79591 0.02199 0.0
H326 H 0.89098 0.76135 0.00365 0.0
H327 H 0.84981 0.77994 0.96136 0.0
C328 C 0.77353 0.01531 0.92404 0.0
C329 C 0.75851 0.00886 0.97032 0.0
C330 C 0.74819 0.92239 0.96456 0.0
C331 C 0.76838 0.92805 0.9201 0.0
N332 N 0.78728 0.97936 0.85222 0.0
N333 N 0.71744 0.96153 0.02987 0.0
C334 C 0.77616 0.97459 0.89786 0.0
C335 C 0.74055 0.96402 0.98879 0.0
N336 N 0.78819 0.05991 0.90652 0.0
N337 N 0.73898 0.8771 0.98428 0.0
H338 H 0.71157 0.99214 0.04757 0.0
H339 H 0.70085 0.93059 0.04442 0.0
H340 H 0.74268 0.84627 0.96644 0.0
H341 H 0.72922 0.86978 0.01844 0.0
H342 H 0.8051 0.06653 0.87505 0.0
H343 H 0.78459 0.09055 0.92465 0.0
H344 H 0.79001 0.01241 0.83296 0.0
H345 H 0.79021 0.94984 0.83253 0.0
C346 C 0.50245 0.30365 0.41028 0.0
C347 C 0.49484 0.29847 0.4582 0.0
C348 C 0.5796 0.28748 0.47145 0.0
C349 C 0.58768 0.30177 0.42445 0.0
N350 N 0.55723 0.32644 0.34885 0.0
N351 N 0.52505 0.28632 0.53539 0.0
C352 C 0.54923 0.30986 0.39349 0.0
C353 C 0.53306 0.28981 0.48913 0.0
N354 N 0.46484 0.30268 0.38104 0.0
N355 N 0.61651 0.27182 0.49895 0.0
H356 H 0.49119 0.28678 0.54932 0.0
H357 H 0.55182 0.28573 0.55989 0.0
H358 H 0.651 0.26967 0.4867 0.0
H359 H 0.61242 0.25693 0.53256 0.0
H360 H 0.46824 0.30214 0.34561 0.0
H361 H 0.43023 0.29783 0.39281 0.0
H362 H 0.53044 0.33842 0.32626 0.0
H363 H 0.59096 0.33156 0.33508 0.0
C364 C 0.18951 0.02882 0.85864 0.0
C365 C 0.16236 0.98585 0.86283 0.0
C366 C 0.107 0.02068 0.80478 0.0
C367 C 0.12791 0.06642 0.80892 0.0
N368 N 0.19051 0.11499 0.83631 0.0
N369 N 0.09961 0.93726 0.8358 0.0
C370 C 0.17032 0.07061 0.83402 0.0
C371 C 0.12286 0.98045 0.83384 0.0
N372 N 0.23315 0.02968 0.87847 0.0
N373 N 0.07144 0.01636 0.77369 0.0
H374 H 0.11258 0.90655 0.85465 0.0
H375 H 0.06734 0.93191 0.81996 0.0
H376 H 0.05924 0.04558 0.75221 0.0
H377 H 0.0565 0.98364 0.76646 0.0
H378 H 0.25619 0.05883 0.87397 0.0
H379 H 0.24825 -0.00069 0.89596 0.0
H380 H 0.21806 0.12182 0.85849 0.0
H381 H 0.17816 0.14572 0.81705 0.0
C382 C 0.59581 0.65125 0.35055 0.0
C383 C 0.58222 0.68248 0.38424 0.0
C384 C 0.50827 0.70144 0.34339 0.0
C385 C 0.51961 0.66632 0.31253 0.0
N386 N 0.57783 0.61794 0.27798 0.0
N387 N 0.53515 0.7505 0.40315 0.0
C388 C 0.565 0.6449 0.31302 0.0
C389 C 0.54181 0.71235 0.37722 0.0
N390 N 0.63748 0.62662 0.35574 0.0
N391 N 0.46423 0.72172 0.3425 0.0
H392 H 0.55897 0.75955 0.4282 0.0
H393 H 0.50847 0.77601 0.3969 0.0
H394 H 0.43919 0.71569 0.31741 0.0
H395 H 0.45151 0.74239 0.36798 0.0
H396 H 0.64777 0.59929 0.33559 0.0
H397 H 0.66176 0.63361 0.38127 0.0
H398 H 0.61131 0.6033 0.27438 0.0
H399 H 0.55548 0.61321 0.25026 0.0
C400 C 0.27173 0.48601 0.60451 0.0
C401 C 0.27055 0.48914 0.55607 0.0
C402 C 0.26265 0.57687 0.55437 0.0
C403 C 0.27578 0.57398 0.60123 0.0
N404 N 0.29099 0.52629 0.6725 0.0
N405 N 0.26078 0.53668 0.48393 0.0
C406 C 0.27854 0.52867 0.62719 0.0
C407 C 0.26339 0.53428 0.5307 0.0
N408 N 0.267 0.44198 0.62834 0.0
N409 N 0.25062 0.62057 0.53266 0.0
H410 H 0.25912 0.50599 0.46584 0.0
H411 H 0.26192 0.56881 0.463 0.0
H412 H 0.25011 0.65216 0.54971 0.0
H413 H 0.23717 0.62485 0.49941 0.0
H414 H 0.26385 0.43729 0.66392 0.0
H415 H 0.2615 0.41061 0.61167 0.0
H416 H 0.29917 0.49412 0.69168 0.0
H417 H 0.29555 0.55686 0.69046 0.0
C418 C 0.03621 0.7871 0.13284 0.0
C419 C 0.07442 0.81966 0.12468 0.0
C420 C 0.05792 0.85502 0.19723 0.0
C421 C 0.01457 0.82962 0.19997 0.0
N422 N 0.96143 0.77126 0.17146 0.0
N423 N 0.12591 0.88064 0.1509 0.0
C424 C 0.00387 0.79478 0.16866 0.0
C425 C 0.08694 0.85198 0.15791 0.0
N426 N 0.03052 0.74923 0.10633 0.0
N427 N 0.07082 0.88216 0.23216 0.0
H428 H 0.14964 0.87641 0.12425 0.0
H429 H 0.13423 0.90915 0.17042 0.0
H430 H 0.04988 0.88481 0.26121 0.0
H431 H 0.10347 0.89895 0.23432 0.0
H432 H 0.00595 0.72179 0.11344 0.0
H433 H 0.05318 0.74247 0.07959 0.0
H434 H 0.94865 0.75044 0.14611 0.0
H435 H 0.93748 0.7748 0.19806 0.0
C436 C 0.60153 0.533 0.68146 0.0
C437 C 0.6429 0.5226 0.65666 0.0
C438 C 0.6458 0.44113 0.69501 0.0
C439 C 0.60357 0.45093 0.71871 0.0
N440 N 0.54781 0.5086 0.74383 0.0
N441 N 0.71272 0.47362 0.65128 0.0
C442 C 0.58362 0.49785 0.71501 0.0
C443 C 0.66795 0.47898 0.66741 0.0
N444 N 0.57891 0.57614 0.67199 0.0
N445 N 0.66315 0.39507 0.6965 0.0
H446 H 0.73044 0.5011 0.63206 0.0
H447 H 0.7342 0.44416 0.66124 0.0
H448 H 0.64815 0.36615 0.71629 0.0
H449 H 0.69029 0.38469 0.67539 0.0
H450 H 0.54547 0.5838 0.68424 0.0
H451 H 0.59328 0.60399 0.65029 0.0
H452 H 0.5342 0.54318 0.74574 0.0
H453 H 0.53424 0.48338 0.7688 0.0
C454 C 0.01563 0.20441 0.08624 0.0
C455 C 0.98164 0.17183 0.1065 0.0
C456 C 0.03875 0.14231 0.16533 0.0
C457 C 0.07434 0.16966 0.14115 0.0
N458 N 0.09836 0.22703 0.07946 0.0
N459 N 0.95892 0.11049 0.1653 0.0
C460 C 0.06309 0.20148 0.10225 0.0
C461 C 0.99252 0.14137 0.14645 0.0
N462 N 0.00252 0.23764 0.05143 0.0
N463 N 0.04948 0.11724 0.20625 0.0
H464 H 0.92402 0.11101 0.15383 0.0
H465 H 0.96568 0.08312 0.1909 0.0
H466 H 0.08325 0.11689 0.22057 0.0
H467 H 0.02456 0.09981 0.22781 0.0
H468 H 0.02425 0.26542 0.03795 0.0
H469 H 0.96842 0.23964 0.03789 0.0
H470 H 0.09405 0.24638 0.04774 0.0
H471 H 0.13305 0.22727 0.09156 0.0
C472 C 0.27376 0.76782 0.11732 0.0
C473 C 0.28383 0.7635 0.07032 0.0
C474 C 0.34495 0.70314 0.09101 0.0
C475 C 0.33492 0.70759 0.13804 0.0
N476 N 0.29887 0.75181 0.19643 0.0
N477 N 0.33437 0.7355 0.01185 0.0
C478 C 0.30201 0.74231 0.15134 0.0
C479 C 0.32141 0.73398 0.05699 0.0
N480 N 0.23633 0.7953 0.12936 0.0
N481 N 0.37486 0.66769 0.07886 0.0
H482 H 0.31725 0.75731 0.9862 0.0
H483 H 0.36422 0.71834 0.00025 0.0
H484 H 0.39287 0.64462 0.10283 0.0
H485 H 0.37957 0.65891 0.04522 0.0
H486 H 0.22348 0.79525 0.16271 0.0
H487 H 0.21616 0.81634 0.10545 0.0
H488 H 0.279 0.78 0.20785 0.0
H489 H 0.31971 0.73432 0.22217 0.0
C490 C 0.70658 0.71813 0.69627 0.0
C491 C 0.71731 0.74163 0.65271 0.0
C492 C 0.76388 0.80201 0.68905 0.0
C493 C 0.75957 0.77391 0.73155 0.0
N494 N 0.72932 0.70373 0.77613 0.0
N495 N 0.75745 0.80465 0.60626 0.0
C496 C 0.73094 0.73194 0.73558 0.0
C497 C 0.74576 0.78369 0.64868 0.0
N498 N 0.67296 0.68272 0.69977 0.0
N499 N 0.78433 0.84668 0.68757 0.0
H500 H 0.74366 0.79326 0.57586 0.0
H501 H 0.78303 0.83141 0.60095 0.0
H502 H 0.79744 0.86151 0.7167 0.0
H503 H 0.78433 0.87089 0.65844 0.0
H504 H 0.66023 0.66715 0.73093 0.0
H505 H 0.65456 0.67205 0.67133 0.0
H506 H 0.71336 0.6699 0.77972 0.0
H507 H 0.74702 0.7124 0.80566 0.0
C508 C 0.7831 0.28104 0.17868 0.0
C509 C 0.767 0.2336 0.17207 0.0
C510 C 0.75758 0.21655 0.25465 0.0
C511 C 0.77554 0.26274 0.26206 0.0
N512 N 0.80929 0.33853 0.23177 0.0
N513 N 0.71296 0.17176 0.20276 0.0
C514 C 0.78962 0.29494 0.22425 0.0
C515 C 0.74656 0.20565 0.20969 0.0
N516 N 0.78665 0.31428 0.14172 0.0
N517 N 0.75259 0.18217 0.29047 0.0
H518 H 0.69742 0.16871 0.17075 0.0
H519 H 0.69498 0.15282 0.22963 0.0
H520 H 0.76328 0.18772 0.32382 0.0
H521 H 0.74332 0.14656 0.28585 0.0
H522 H 0.79522 0.35041 0.14389 0.0
H523 H 0.77431 0.30746 0.10927 0.0
H524 H 0.82534 0.36113 0.20625 0.0
H525 H 0.81278 0.35103 0.26423 0.0
C526 C 0.2034 0.26764 0.6165 0.0
C527 C 0.20015 0.26396 0.5686 0.0
C528 C 0.12805 0.21588 0.57942 0.0
C529 C 0.135 0.21406 0.62762 0.0
N530 N 0.18393 0.232 0.69212 0.0
N531 N 0.16211 0.23235 0.50361 0.0
C532 C 0.17353 0.23879 0.64636 0.0
C533 C 0.16296 0.23782 0.54969 0.0
N534 N 0.23503 0.29892 0.63339 0.0
N535 N 0.08755 0.19753 0.56218 0.0
H536 H 0.18641 0.24903 0.48068 0.0
H537 H 0.13931 0.20892 0.48847 0.0
H538 H 0.06113 0.18146 0.58305 0.0
H539 H 0.07816 0.20195 0.52764 0.0
H540 H 0.2355 0.30717 0.66752 0.0
H541 H 0.25805 0.32007 0.61242 0.0
H542 H 0.21475 0.24464 0.70649 0.0
H543 H 0.16435 0.20991 0.71537 0.0
C544 C 0.79356 0.73283 0.41098 0.0
C545 C 0.79636 0.73186 0.45937 0.0
C546 C 0.86718 0.78249 0.45348 0.0
C547 C 0.86081 0.78839 0.40522 0.0
N548 N 0.81407 0.77492 0.33811 0.0
N549 N 0.83324 0.75739 0.52776 0.0
C550 C 0.8233 0.76468 0.38381 0.0
C551 C 0.83273 0.7568 0.48101 0.0
N552 N 0.76271 0.70289 0.3911 0.0
N553 N 0.9068 0.80046 0.47276 0.0
H554 H 0.80964 0.7375 0.54913 0.0
H555 H 0.85512 0.77973 0.5453 0.0
H556 H 0.93274 0.8195 0.45352 0.0
H557 H 0.91603 0.79319 0.50712 0.0
H558 H 0.7624 0.69818 0.35612 0.0
H559 H 0.74023 0.67928 0.4102 0.0
H560 H 0.78404 0.76294 0.32188 0.0
H561 H 0.83403 0.79899 0.31696 0.0
C562 C 0.6908 0.21415 0.92837 0.0
C563 C 0.71065 0.23819 0.96487 0.0
C564 C 0.6792 0.31553 0.93199 0.0
C565 C 0.65914 0.29156 0.89563 0.0
N566 N 0.63832 0.2177 0.86248 0.0
N567 N 0.7149 0.30846 0.00777 0.0
C568 C 0.66215 0.24062 0.89514 0.0
C569 C 0.7021 0.28797 0.96861 0.0
N570 N 0.70174 0.16678 0.92394 0.0
N571 N 0.67725 0.3648 0.93092 0.0
H572 H 0.73117 0.28892 0.03545 0.0
H573 H 0.70572 0.34341 0.0147 0.0
H574 H 0.65852 0.38602 0.90597 0.0
H575 H 0.69613 0.38494 0.95325 0.0
H576 H 0.69339 0.14867 0.89521 0.0
H577 H 0.72207 0.14604 0.94787 0.0
H578 H 0.63471 0.18037 0.86328 0.0
H579 H 0.6192 0.236 0.83598 0.0
C580 C 0.3073 0.26515 0.33312 0.0
C581 C 0.29247 0.24315 0.37619 0.0
C582 C 0.26512 0.17208 0.33965 0.0
C583 C 0.27464 0.19662 0.29618 0.0
N584 N 0.30228 0.26695 0.25021 0.0
N585 N 0.25278 0.17858 0.42096 0.0
C586 C 0.29504 0.24333 0.29251 0.0
C587 C 0.27063 0.19711 0.37975 0.0
N588 N 0.3345 0.30595 0.3313 0.0
N589 N 0.25039 0.12506 0.34257 0.0
H590 H 0.25607 0.19584 0.45118 0.0
H591 H 0.23152 0.14798 0.42474 0.0
H592 H 0.24368 0.10607 0.31393 0.0
H593 H 0.24807 0.10361 0.37339 0.0
H594 H 0.35055 0.32101 0.30149 0.0
H595 H 0.34456 0.32265 0.3605 0.0
H596 H 0.31152 0.30326 0.24525 0.0
H597 H 0.29663 0.25089 0.21962 0.0
C598 C 0.25528 0.72366 0.86716 0.0
C599 C 0.22296 0.76269 0.86386 0.0
C600 C 0.23384 0.77373 0.78072 0.0
C601 C 0.26624 0.73463 0.78396 0.0
N602 N 0.2993 0.66501 0.82734 0.0
N603 N 0.17305 0.81794 0.81827 0.0
C604 C 0.27442 0.7073 0.82636 0.0
C605 C 0.20936 0.78535 0.82072 0.0
N606 N 0.26896 0.70353 0.90936 0.0
N607 N 0.22858 0.80141 0.74016 0.0
H608 H 0.15474 0.82713 0.84728 0.0
H609 H 0.15835 0.83259 0.78757 0.0
H610 H 0.24622 0.79426 0.71016 0.0
H611 H 0.20949 0.83353 0.73685 0.0
H612 H 0.2969 0.67928 0.91437 0.0
H613 H 0.25384 0.7131 0.93988 0.0
H614 H 0.30252 0.64105 0.85647 0.0
H615 H 0.31329 0.65154 0.79793 0.0
loop_
_geom_bond_atom_site_label_1
_geom_bond_atom_site_label_2
_geom_bond_distance
_geom_bond_site_symmetry_2
_ccdc_geom_bond_type
Sc0 O3 2.025 . S
Sc0 O10 2.105 1_554 S
Sc0 O13 2.105 . S
Sc0 O16 2.105 . S
Sc0 O19 2.105 1_554 S
Sc1 O3 2.025 . S
Sc1 O11 2.105 1_554 S
Sc1 O15 2.105 . S
Sc1 O17 2.105 . S
Sc1 O21 2.105 1_554 S
Sc2 O3 2.025 1_556 S
Sc2 O12 2.105 . S
Sc2 O14 2.105 1_556 S
Sc2 O18 2.105 1_556 S
Sc2 O20 2.105 . S
O3 Sc0 2.025 . S
O3 Sc1 2.025 . S
O3 Sc2 2.025 1_554 S
C4 O10 1.268 . S
C4 O20 1.268 . S
C5 O11 1.268 . S
C5 O19 1.268 . S
C6 O12 1.268 . S
C6 O21 1.268 . S
C7 O13 1.268 . S
C7 O17 1.268 . S
C8 O14 1.268 . S
C8 O16 1.268 . S
C9 O15 1.268 . S
C9 O18 1.268 . S
O10 Sc0 2.105 1_556 S
O10 C4 1.268 . S
O11 Sc1 2.105 1_556 S
O11 C5 1.268 . S
O12 Sc2 2.105 . S
O12 C6 1.268 . S
O13 Sc0 2.105 . S
O13 C7 1.268 . S
O14 Sc2 2.105 1_554 S
O14 C8 1.268 . S
O15 Sc1 2.105 . S
O15 C9 1.268 . S
O16 Sc0 2.105 . S
O16 C8 1.268 . S
O17 Sc1 2.105 . S
O17 C7 1.268 . S
O18 Sc2 2.105 1_554 S
O18 C9 1.268 . S
O19 Sc0 2.105 1_556 S
O19 C5 1.268 . S
O20 Sc2 2.105 . S
O20 C4 1.268 . S
O21 Sc1 2.105 1_556 S
O21 C6 1.268 . S
Sc22 O25 2.025 . S
Sc22 O32 2.105 . S
Sc22 O35 2.105 . S
Sc22 O38 2.105 . S
Sc22 O41 2.105 . S
Sc23 O25 2.025 . S
Sc23 O33 2.105 . S
Sc23 O37 2.105 . S
Sc23 O39 2.105 . S
Sc23 O43 2.105 . S
Sc24 O25 2.025 . S
Sc24 O34 2.105 . S
Sc24 O36 2.105 . S
Sc24 O40 2.105 . S
Sc24 O42 2.105 . S
O25 Sc22 2.025 . S
O25 Sc23 2.025 . S
O25 Sc24 2.025 . S
C26 O32 1.268 . S
C26 O42 1.268 . S
C27 O33 1.268 . S
C27 O41 1.268 . S
C28 O34 1.268 . S
C28 O43 1.268 . S
C29 O35 1.268 . S
C29 O39 1.268 . S
C30 O36 1.268 . S
C30 O38 1.268 . S
C31 O37 1.268 . S
C31 O40 1.268 . S
O32 Sc22 2.105 . S
O32 C26 1.268 . S
O33 Sc23 2.105 . S
O33 C27 1.268 . S
O34 Sc24 2.105 . S
O34 C28 1.268 . S
O35 Sc22 2.105 . S
O35 C29 1.268 . S
O36 Sc24 2.105 . S
O36 C30 1.268 . S
O37 Sc23 2.105 . S
O37 C31 1.268 . S
O38 Sc22 2.105 . S
O38 C30 1.268 . S
O39 Sc23 2.105 . S
O39 C29 1.268 . S
O40 Sc24 2.105 . S
O40 C31 1.268 . S
O41 Sc22 2.105 . S
O41 C27 1.268 . S
O42 Sc24 2.105 . S
O42 C26 1.268 . S
O43 Sc23 2.105 . S
O43 C28 1.268 . S
Sc44 O47 2.025 . S
Sc44 O54 2.105 1_554 S
Sc44 O57 2.105 . S
Sc44 O60 2.105 . S
Sc44 O63 2.105 1_554 S
Sc45 O47 2.025 . S
Sc45 O55 2.105 . S
Sc45 O59 2.105 . S
Sc45 O61 2.105 . S
Sc45 O65 2.105 . S
Sc46 O47 2.025 . S
Sc46 O56 2.105 1_554 S
Sc46 O58 2.105 . S
Sc46 O62 2.105 . S
Sc46 O64 2.105 1_554 S
O47 Sc44 2.025 . S
O47 Sc45 2.025 . S
O47 Sc46 2.025 . S
C48 O54 1.268 . S
C48 O64 1.268 . S
C49 O55 1.268 1_556 S
C49 O63 1.268 . S
C50 O56 1.268 . S
C50 O65 1.268 1_556 S
C51 O57 1.268 . S
C51 O61 1.268 . S
C52 O58 1.268 . S
C52 O60 1.268 . S
C53 O59 1.268 . S
C53 O62 1.268 . S
O54 Sc44 2.105 1_556 S
O54 C48 1.268 . S
O55 Sc45 2.105 . S
O55 C49 1.268 1_554 S
O56 Sc46 2.105 1_556 S
O56 C50 1.268 . S
O57 Sc44 2.105 . S
O57 C51 1.268 . S
O58 Sc46 2.105 . S
O58 C52 1.268 . S
O59 Sc45 2.105 . S
O59 C53 1.268 . S
O60 Sc44 2.105 . S
O60 C52 1.268 . S
O61 Sc45 2.105 . S
O61 C51 1.268 . S
O62 Sc46 2.105 . S
O62 C53 1.268 . S
O63 Sc44 2.105 1_556 S
O63 C49 1.268 . S
O64 Sc46 2.105 1_556 S
O64 C48 1.268 . S
O65 Sc45 2.105 . S
O65 C50 1.268 1_554 S
Sc66 O69 2.025 . S
Sc66 O76 2.105 . S
Sc66 O79 2.105 . S
Sc66 O82 2.105 . S
Sc66 O85 2.105 . S
Sc67 O69 2.025 . S
Sc67 O77 2.105 . S
Sc67 O81 2.105 . S
Sc67 O83 2.105 . S
Sc67 O87 2.105 . S
Sc68 O69 2.025 . S
Sc68 O78 2.105 . S
Sc68 O80 2.105 . S
Sc68 O84 2.105 . S
Sc68 O86 2.105 . S
O69 Sc66 2.025 . S
O69 Sc67 2.025 . S
O69 Sc68 2.025 . S
C70 O76 1.268 . S
C70 O86 1.268 . S
C71 O77 1.268 . S
C71 O85 1.268 . S
C72 O78 1.268 . S
C72 O87 1.268 . S
C73 O79 1.268 . S
C73 O83 1.268 . S
C74 O80 1.268 . S
C74 O82 1.268 . S
C75 O81 1.268 . S
C75 O84 1.268 . S
O76 Sc66 2.105 . S
O76 C70 1.268 . S
O77 Sc67 2.105 . S
O77 C71 1.268 . S
O78 Sc68 2.105 . S
O78 C72 1.268 . S
O79 Sc66 2.105 . S
O79 C73 1.268 . S
O80 Sc68 2.105 . S
O80 C74 1.268 . S
O81 Sc67 2.105 . S
O81 C75 1.268 . S
O82 Sc66 2.105 . S
O82 C74 1.268 . S
O83 Sc67 2.105 . S
O83 C73 1.268 . S
O84 Sc68 2.105 . S
O84 C75 1.268 . S
O85 Sc66 2.105 . S
O85 C71 1.268 . S
O86 Sc68 2.105 . S
O86 C70 1.268 . S
O87 Sc67 2.105 . S
O87 C72 1.268 . S
H88 C93 0.930 . S
H89 C96 0.930 . S
H90 C98 0.930 . S
H91 C92 1.016 . S
C92 H91 1.016 . S
C92 N99 1.286 . S
C93 H88 0.930 . S
C93 C94 1.397 . S
C93 C95 1.361 . S
C94 C93 1.397 . S
C94 C98 1.390 . S
C95 C93 1.361 . S
C95 C96 1.393 . S
C95 N99 1.413 . S
C96 H89 0.930 . S
C96 C95 1.393 . S
C96 C97 1.399 . S
C97 C96 1.399 . S
C97 C98 1.381 . S
C98 H90 0.930 . S
C98 C94 1.390 . S
C98 C97 1.381 . S
N99 C92 1.286 . S
N99 C95 1.413 . S
H100 C105 0.930 . S
H101 C108 0.930 . S
H102 C110 0.930 . S
H103 C104 1.016 . S
C104 H103 1.016 . S
C104 N111 1.286 . S
C105 H100 0.930 . S
C105 C106 1.397 . S
C105 C107 1.361 . S
C106 C105 1.397 . S
C106 C110 1.390 . S
C107 C105 1.361 . S
C107 C108 1.393 . S
C107 N111 1.413 . S
C108 H101 0.930 . S
C108 C107 1.393 . S
C108 C109 1.399 . S
C109 C108 1.399 . S
C109 C110 1.381 . S
C110 H102 0.930 . S
C110 C106 1.390 . S
C110 C109 1.381 . S
N111 C104 1.286 . S
N111 C107 1.413 . S
H112 C117 0.930 . S
H113 C120 0.930 . S
H114 C122 0.930 . S
H115 C116 1.016 . S
C116 H115 1.016 . S
C116 N123 1.286 . S
C117 H112 0.930 . S
C117 C118 1.397 . S
C117 C119 1.361 . S
C118 C117 1.397 . S
C118 C122 1.390 . S
C119 C117 1.361 . S
C119 C120 1.393 . S
C119 N123 1.413 . S
C120 H113 0.930 . S
C120 C119 1.393 . S
C120 C121 1.399 . S
C121 C120 1.399 . S
C121 C122 1.381 . S
C122 H114 0.930 . S
C122 C118 1.390 . S
C122 C121 1.381 . S
N123 C116 1.286 . S
N123 C119 1.413 . S
H124 C129 0.930 . S
H125 C132 0.930 . S
H126 C134 0.930 . S
H127 C128 1.016 . S
C128 H127 1.016 . S
C128 N135 1.286 . S
C129 H124 0.930 . S
C129 C130 1.397 . S
C129 C131 1.361 . S
C130 C129 1.397 . S
C130 C134 1.390 . S
C131 C129 1.361 . S
C131 C132 1.393 . S
C131 N135 1.413 . S
C132 H125 0.930 . S
C132 C131 1.393 . S
C132 C133 1.399 . S
C133 C132 1.399 . S
C133 C134 1.381 . S
C134 H126 0.930 . S
C134 C130 1.390 . S
C134 C133 1.381 . S
N135 C128 1.286 . S
N135 C131 1.413 . S
H136 C141 0.930 . S
H137 C144 0.930 . S
H138 C146 0.930 . S
H139 C140 1.016 . S
C140 H139 1.016 . S
C140 N147 1.286 . S
C141 H136 0.930 . S
C141 C142 1.397 . S
C141 C143 1.361 . S
C142 C141 1.397 . S
C142 C146 1.390 . S
C143 C141 1.361 . S
C143 C144 1.393 . S
C143 N147 1.413 . S
C144 H137 0.930 . S
C144 C143 1.393 . S
C144 C145 1.399 . S
C145 C144 1.399 . S
C145 C146 1.381 . S
C146 H138 0.930 . S
C146 C142 1.390 . S
C146 C145 1.381 . S
N147 C140 1.286 . S
N147 C143 1.413 . S
H148 C153 0.930 . S
H149 C156 0.930 . S
H150 C158 0.930 . S
H151 C152 1.016 . S
C152 H151 1.016 . S
C152 N159 1.286 . S
C153 H148 0.930 . S
C153 C154 1.397 . S
C153 C155 1.361 . S
C154 C153 1.397 . S
C154 C158 1.390 . S
C155 C153 1.361 . S
C155 C156 1.393 . S
C155 N159 1.413 . S
C156 H149 0.930 . S
C156 C155 1.393 . S
C156 C157 1.399 . S
C157 C156 1.399 . S
C157 C158 1.381 . S
C158 H150 0.930 . S
C158 C154 1.390 . S
C158 C157 1.381 . S
N159 C152 1.286 . S
N159 C155 1.413 . S
H160 C165 0.930 . S
H161 C168 0.930 . S
H162 C170 0.930 . S
H163 C164 1.016 . S
C164 H163 1.016 . S
C164 N171 1.286 . S
C165 H160 0.930 . S
C165 C166 1.397 . S
C165 C167 1.361 . S
C166 C165 1.397 . S
C166 C170 1.390 . S
C167 C165 1.361 . S
C167 C168 1.393 . S
C167 N171 1.413 . S
C168 H161 0.930 . S
C168 C167 1.393 . S
C168 C169 1.399 . S
C169 C168 1.399 . S
C169 C170 1.381 . S
C170 H162 0.930 . S
C170 C166 1.390 . S
C170 C169 1.381 . S
N171 C164 1.286 . S
N171 C167 1.413 . S
H172 C177 0.930 . S
H173 C180 0.930 . S
H174 C182 0.930 . S
H175 C176 1.016 . S
C176 H175 1.016 . S
C176 N183 1.286 . S
C177 H172 0.930 . S
C177 C178 1.397 . S
C177 C179 1.361 . S
C178 C177 1.397 . S
C178 C182 1.390 . S
C179 C177 1.361 . S
C179 C180 1.393 . S
C179 N183 1.413 . S
C180 H173 0.930 . S
C180 C179 1.393 . S
C180 C181 1.399 . S
C181 C180 1.399 . S
C181 C182 1.381 . S
C182 H174 0.930 . S
C182 C178 1.390 . S
C182 C181 1.381 . S
N183 C176 1.286 . S
N183 C179 1.413 . S
C184 C185 1.364 . S
C184 C190 1.379 . S
C184 N192 1.356 1_545 S
C185 C184 1.364 . S
C185 C191 1.367 . S
C186 C187 1.363 . S
C186 C191 1.379 . S
C186 N193 1.356 . S
C187 C186 1.363 . S
C187 C190 1.363 . S
N188 C190 1.356 . S
N188 H200 0.984 . S
N188 H201 0.985 . S
N189 C191 1.356 . S
N189 H194 0.984 1_545 S
N189 H195 0.985 . S
C190 C184 1.379 . S
C190 C187 1.363 . S
C190 N188 1.356 . S
C191 C185 1.367 . S
C191 C186 1.379 . S
C191 N189 1.356 . S
N192 C184 1.356 1_565 S
N192 H198 0.984 . S
N192 H199 0.984 . S
N193 C186 1.356 . S
N193 H196 0.984 . S
N193 H197 0.985 . S
H194 N189 0.984 1_565 S
H195 N189 0.985 . S
H196 N193 0.984 . S
H197 N193 0.985 . S
H198 N192 0.984 . S
H199 N192 0.984 . S
H200 N188 0.984 . S
H201 N188 0.985 . S
C202 C203 1.363 . S
C202 C208 1.379 . S
C202 N210 1.356 . S
C203 C202 1.363 . S
C203 C209 1.363 . S
C204 C205 1.363 . S
C204 C209 1.379 . S
C204 N211 1.356 . S
C205 C204 1.363 . S
C205 C208 1.363 . S
N206 C208 1.356 . S
N206 H218 0.984 . S
N206 H219 0.985 . S
N207 C209 1.356 . S
N207 H212 0.984 . S
N207 H213 0.985 . S
C208 C202 1.379 . S
C208 C205 1.363 . S
C208 N206 1.356 . S
C209 C203 1.363 . S
C209 C204 1.379 . S
C209 N207 1.356 . S
N210 C202 1.356 . S
N210 H216 0.984 . S
N210 H217 0.984 . S
N211 C204 1.356 . S
N211 H214 0.984 . S
N211 H215 0.985 . S
H212 N207 0.984 . S
H213 N207 0.985 . S
H214 N211 0.984 . S
H215 N211 0.985 . S
H216 N210 0.984 . S
H217 N210 0.984 . S
H218 N206 0.984 . S
H219 N206 0.985 . S
C220 C221 1.363 . S
C220 C226 1.379 1_545 S
C220 N228 1.356 . S
C221 C220 1.363 . S
C221 C227 1.363 1_545 S
C222 C223 1.363 . S
C222 C227 1.379 . S
C222 N229 1.356 . S
C223 C222 1.363 . S
C223 C226 1.363 . S
N224 C226 1.356 . S
N224 H236 0.984 . S
N224 H237 0.985 . S
N225 C227 1.356 . S
N225 H230 0.984 1_565 S
N225 H231 0.985 . S
C226 C220 1.379 1_565 S
C226 C223 1.363 . S
C226 N224 1.356 . S
C227 C221 1.363 1_565 S
C227 C222 1.379 . S
C227 N225 1.356 . S
N228 C220 1.356 . S
N228 H234 0.984 . S
N228 H235 0.984 . S
N229 C222 1.356 . S
N229 H232 0.984 . S
N229 H233 0.985 . S
H230 N225 0.984 1_545 S
H231 N225 0.985 . S
H232 N229 0.984 . S
H233 N229 0.985 . S
H234 N228 0.984 . S
H235 N228 0.984 . S
H236 N224 0.984 . S
H237 N224 0.985 . S
C238 C239 1.363 . S
C238 C244 1.379 . S
C238 N246 1.356 . S
C239 C238 1.363 . S
C239 C245 1.363 . S
C240 C241 1.363 . S
C240 C245 1.379 . S
C240 N247 1.356 . S
C241 C240 1.363 . S
C241 C244 1.363 . S
N242 C244 1.356 . S
N242 H254 0.984 . S
N242 H255 0.985 . S
N243 C245 1.356 . S
N243 H248 0.984 . S
N243 H249 0.985 . S
C244 C238 1.379 . S
C244 C241 1.363 . S
C244 N242 1.356 . S
C245 C239 1.363 . S
C245 C240 1.379 . S
C245 N243 1.356 . S
N246 C238 1.356 . S
N246 H252 0.984 . S
N246 H253 0.984 . S
N247 C240 1.356 . S
N247 H250 0.984 . S
N247 H251 0.985 . S
H248 N243 0.984 . S
H249 N243 0.985 . S
H250 N247 0.984 . S
H251 N247 0.985 . S
H252 N246 0.984 . S
H253 N246 0.984 . S
H254 N242 0.984 . S
H255 N242 0.985 . S
C256 C257 1.363 . S
C256 C262 1.379 . S
C256 N264 1.356 . S
C257 C256 1.363 . S
C257 C263 1.363 . S
C258 C259 1.363 . S
C258 C263 1.379 . S
C258 N265 1.356 . S
C259 C258 1.363 . S
C259 C262 1.363 . S
N260 C262 1.356 . S
N260 H272 0.984 . S
N260 H273 0.985 . S
N261 C263 1.356 . S
N261 H266 0.984 . S
N261 H267 0.985 . S
C262 C256 1.379 . S
C262 C259 1.363 . S
C262 N260 1.356 . S
C263 C257 1.363 . S
C263 C258 1.379 . S
C263 N261 1.356 . S
N264 C256 1.356 . S
N264 H270 0.984 . S
N264 H271 0.984 . S
N265 C258 1.356 . S
N265 H268 0.984 . S
N265 H269 0.985 . S
H266 N261 0.984 . S
H267 N261 0.985 . S
H268 N265 0.984 . S
H269 N265 0.985 . S
H270 N264 0.984 . S
H271 N264 0.984 . S
H272 N260 0.984 . S
H273 N260 0.985 . S
C274 C275 1.363 . S
C274 C280 1.379 . S
C274 N282 1.356 . S
C275 C274 1.363 . S
C275 C281 1.363 . S
C276 C277 1.363 . S
C276 C281 1.379 1_455 S
C276 N283 1.356 . S
C277 C276 1.363 . S
C277 C280 1.363 1_455 S
N278 C280 1.356 . S
N278 H290 0.984 . S
N278 H291 0.985 . S
N279 C281 1.356 . S
N279 H284 0.984 . S
N279 H285 0.985 1_655 S
C280 C274 1.379 . S
C280 C277 1.363 1_655 S
C280 N278 1.356 . S
C281 C275 1.363 . S
C281 C276 1.379 1_655 S
C281 N279 1.356 . S
N282 C274 1.356 . S
N282 H288 0.984 . S
N282 H289 0.984 . S
N283 C276 1.356 . S
N283 H286 0.984 . S
N283 H287 0.985 . S
H284 N279 0.984 . S
H285 N279 0.985 1_455 S
H286 N283 0.984 . S
H287 N283 0.985 . S
H288 N282 0.984 . S
H289 N282 0.984 . S
H290 N278 0.984 . S
H291 N278 0.985 . S
C292 C293 1.363 . S
C292 C298 1.379 . S
C292 N300 1.356 . S
C293 C292 1.363 . S
C293 C299 1.363 . S
C294 C295 1.363 . S
C294 C299 1.379 . S
C294 N301 1.356 . S
C295 C294 1.363 . S
C295 C298 1.363 . S
N296 C298 1.356 . S
N296 H308 0.984 . S
N296 H309 0.985 . S
N297 C299 1.356 . S
N297 H302 0.984 . S
N297 H303 0.985 . S
C298 C292 1.379 . S
C298 C295 1.363 . S
C298 N296 1.356 . S
C299 C293 1.363 . S
C299 C294 1.379 . S
C299 N297 1.356 . S
N300 C292 1.356 . S
N300 H306 0.984 . S
N300 H307 0.984 . S
N301 C294 1.356 . S
N301 H304 0.984 . S
N301 H305 0.985 . S
H302 N297 0.984 . S
H303 N297 0.985 . S
H304 N301 0.984 . S
H305 N301 0.985 . S
H306 N300 0.984 . S
H307 N300 0.984 . S
H308 N296 0.984 . S
H309 N296 0.985 . S
C310 C311 1.363 . S
C310 C316 1.379 . S
C310 N318 1.356 1_655 S
C311 C310 1.363 . S
C311 C317 1.363 . S
C312 C313 1.363 . S
C312 C317 1.379 . S
C312 N319 1.356 . S
C313 C312 1.363 . S
C313 C316 1.363 . S
N314 C316 1.356 . S
N314 H326 0.984 . S
N314 H327 0.985 . S
N315 C317 1.356 . S
N315 H320 0.984 1_655 S
N315 H321 0.985 . S
C316 C310 1.379 . S
C316 C313 1.363 . S
C316 N314 1.356 . S
C317 C311 1.363 . S
C317 C312 1.379 . S
C317 N315 1.356 . S
N318 C310 1.356 1_455 S
N318 H324 0.984 . S
N318 H325 0.984 . S
N319 C312 1.356 . S
N319 H322 0.984 . S
N319 H323 0.985 . S
H320 N315 0.984 1_455 S
H321 N315 0.985 . S
H322 N319 0.984 . S
H323 N319 0.985 . S
H324 N318 0.984 . S
H325 N318 0.984 . S
H326 N314 0.984 . S
H327 N314 0.985 . S
C328 C329 1.363 1_565 S
C328 C334 1.379 . S
C328 N336 1.356 . S
C329 C328 1.363 1_545 S
C329 C335 1.363 1_545 S
C330 C331 1.363 . S
C330 C335 1.379 . S
C330 N337 1.356 . S
C331 C330 1.363 . S
C331 C334 1.363 . S
N332 C334 1.356 . S
N332 H344 0.984 . S
N332 H345 0.985 . S
N333 C335 1.356 1_545 S
N333 H338 0.984 . S
N333 H339 0.985 . S
C334 C328 1.379 . S
C334 C331 1.363 . S
C334 N332 1.356 . S
C335 C329 1.363 1_565 S
C335 C330 1.379 . S
C335 N333 1.356 1_565 S
N336 C328 1.356 . S
N336 H342 0.984 . S
N336 H343 0.984 1_565 S
N337 C330 1.356 . S
N337 H340 0.984 . S
N337 H341 0.985 . S
H338 N333 0.984 . S
H339 N333 0.985 . S
H340 N337 0.984 . S
H341 N337 0.985 . S
H342 N336 0.984 . S
H343 N336 0.984 1_545 S
H344 N332 0.984 . S
H345 N332 0.985 . S
C346 C347 1.363 . S
C346 C352 1.379 . S
C346 N354 1.356 . S
C347 C346 1.363 . S
C347 C353 1.363 . S
C348 C349 1.363 . S
C348 C353 1.379 . S
C348 N355 1.356 . S
C349 C348 1.363 . S
C349 C352 1.363 . S
N350 C352 1.356 . S
N350 H362 0.984 . S
N350 H363 0.985 . S
N351 C353 1.356 . S
N351 H356 0.984 . S
N351 H357 0.985 . S
C352 C346 1.379 . S
C352 C349 1.363 . S
C352 N350 1.356 . S
C353 C347 1.363 . S
C353 C348 1.379 . S
C353 N351 1.356 . S
N354 C346 1.356 . S
N354 H360 0.984 . S
N354 H361 0.984 . S
N355 C348 1.356 . S
N355 H358 0.984 . S
N355 H359 0.985 . S
H356 N351 0.984 . S
H357 N351 0.985 . S
H358 N355 0.984 . S
H359 N355 0.985 . S
H360 N354 0.984 . S
H361 N354 0.984 . S
H362 N350 0.984 . S
H363 N350 0.985 . S
C364 C365 1.363 1_545 S
C364 C370 1.379 . S
C364 N372 1.356 1_545 S
C365 C364 1.363 1_565 S
C365 C371 1.363 1_565 S
C366 C367 1.363 . S
C366 C371 1.379 . S
C366 N373 1.356 . S
C367 C366 1.363 . S
C367 C370 1.363 . S
N368 C370 1.356 . S
N368 H380 0.984 . S
N368 H381 0.985 . S
N369 C371 1.356 1_565 S
N369 H374 0.984 . S
N369 H375 0.987 . S
C370 C364 1.379 . S
C370 C367 1.363 . S
C370 N368 1.356 . S
C371 C365 1.363 1_545 S
C371 C366 1.379 . S
C371 N369 1.356 1_545 S
N372 C364 1.356 1_565 S
N372 H378 0.984 . S
N372 H379 0.984 . S
N373 C366 1.356 . S
N373 H376 0.984 . S
N373 H377 0.985 . S
H374 N369 0.984 . S
H375 N369 0.987 . S
H376 N373 0.984 . S
H377 N373 0.985 . S
H378 N372 0.984 . S
H379 N372 0.984 . S
H380 N368 0.984 . S
H381 N368 0.985 . S
C382 C383 1.363 . S
C382 C388 1.379 . S
C382 N390 1.356 . S
C383 C382 1.363 . S
C383 C389 1.363 . S
C384 C385 1.363 . S
C384 C389 1.379 . S
C384 N391 1.356 . S
C385 C384 1.363 . S
C385 C388 1.363 . S
N386 C388 1.356 . S
N386 H398 0.984 . S
N386 H399 0.985 . S
N387 C389 1.356 . S
N387 H392 0.984 . S
N387 H393 0.985 . S
C388 C382 1.379 . S
C388 C385 1.363 . S
C388 N386 1.356 . S
C389 C383 1.363 . S
C389 C384 1.379 . S
C389 N387 1.356 . S
N390 C382 1.356 . S
N390 H396 0.984 . S
N390 H397 0.984 . S
N391 C384 1.356 . S
N391 H394 0.984 . S
N391 H395 0.985 . S
H392 N387 0.984 . S
H393 N387 0.985 . S
H394 N391 0.984 . S
H395 N391 0.985 . S
H396 N390 0.984 . S
H397 N390 0.984 . S
H398 N386 0.984 . S
H399 N386 0.985 . S
C400 C401 1.363 . S
C400 C406 1.379 . S
C400 N408 1.356 . S
C401 C400 1.363 . S
C401 C407 1.363 . S
C402 C403 1.363 . S
C402 C407 1.379 . S
C402 N409 1.356 . S
C403 C402 1.363 . S
C403 C406 1.363 . S
N404 C406 1.356 . S
N404 H416 0.984 . S
N404 H417 0.985 . S
N405 C407 1.356 . S
N405 H410 0.984 . S
N405 H411 0.985 . S
C406 C400 1.379 . S
C406 C403 1.363 . S
C406 N404 1.356 . S
C407 C401 1.363 . S
C407 C402 1.379 . S
C407 N405 1.356 . S
N408 C400 1.356 . S
N408 H414 0.984 . S
N408 H415 0.984 . S
N409 C402 1.356 . S
N409 H412 0.984 . S
N409 H413 0.985 . S
H410 N405 0.984 . S
H411 N405 0.985 . S
H412 N409 0.984 . S
H413 N409 0.985 . S
H414 N408 0.984 . S
H415 N408 0.984 . S
H416 N404 0.984 . S
H417 N404 0.985 . S
C418 C419 1.363 . S
C418 C424 1.379 1_455 S
C418 N426 1.356 . S
C419 C418 1.363 . S
C419 C425 1.363 . S
C420 C421 1.363 1_455 S
C420 C425 1.379 . S
C420 N427 1.356 . S
C421 C420 1.363 1_655 S
C421 C424 1.363 . S
N422 C424 1.356 . S
N422 H434 0.984 . S
N422 H435 0.985 . S
N423 C425 1.356 . S
N423 H428 0.984 . S
N423 H429 0.985 . S
C424 C418 1.379 1_655 S
C424 C421 1.363 . S
C424 N422 1.356 . S
C425 C419 1.363 . S
C425 C420 1.379 . S
C425 N423 1.356 . S
N426 C418 1.356 . S
N426 H432 0.984 1_455 S
N426 H433 0.984 . S
N427 C420 1.356 . S
N427 H430 0.984 . S
N427 H431 0.985 . S
H428 N423 0.984 . S
H429 N423 0.985 . S
H430 N427 0.984 . S
H431 N427 0.985 . S
H432 N426 0.984 1_655 S
H433 N426 0.984 . S
H434 N422 0.984 . S
H435 N422 0.985 . S
C436 C437 1.363 . S
C436 C442 1.379 . S
C436 N444 1.356 . S
C437 C436 1.363 . S
C437 C443 1.363 . S
C438 C439 1.363 . S
C438 C443 1.379 . S
C438 N445 1.356 . S
C439 C438 1.363 . S
C439 C442 1.363 . S
N440 C442 1.356 . S
N440 H452 0.984 . S
N440 H453 0.985 . S
N441 C443 1.356 . S
N441 H446 0.984 . S
N441 H447 0.985 . S
C442 C436 1.379 . S
C442 C439 1.363 . S
C442 N440 1.356 . S
C443 C437 1.363 . S
C443 C438 1.379 . S
C443 N441 1.356 . S
N444 C436 1.356 . S
N444 H450 0.984 . S
N444 H451 0.984 . S
N445 C438 1.356 . S
N445 H448 0.984 . S
N445 H449 0.985 . S
H446 N441 0.984 . S
H447 N441 0.985 . S
H448 N445 0.984 . S
H449 N445 0.985 . S
H450 N444 0.984 . S
H451 N444 0.984 . S
H452 N440 0.984 . S
H453 N440 0.985 . S
C454 C455 1.359 1_455 S
C454 C460 1.379 . S
C454 N462 1.356 . S
C455 C454 1.359 1_655 S
C455 C461 1.361 1_655 S
C456 C457 1.363 . S
C456 C461 1.379 . S
C456 N463 1.356 . S
C457 C456 1.363 . S
C457 C460 1.363 . S
N458 C460 1.356 . S
N458 H470 0.984 . S
N458 H471 0.985 . S
N459 C461 1.356 1_655 S
N459 H464 0.984 . S
N459 H465 0.985 . S
C460 C454 1.379 . S
C460 C457 1.363 . S
C460 N458 1.356 . S
C461 C455 1.361 1_455 S
C461 C456 1.379 . S
C461 N459 1.356 1_455 S
N462 C454 1.356 . S
N462 H468 0.984 . S
N462 H469 0.984 1_455 S
N463 C456 1.356 . S
N463 H466 0.984 . S
N463 H467 0.985 . S
H464 N459 0.984 . S
H465 N459 0.985 . S
H466 N463 0.984 . S
H467 N463 0.985 . S
H468 N462 0.984 . S
H469 N462 0.984 1_655 S
H470 N458 0.984 . S
H471 N458 0.985 . S
C472 C473 1.363 . S
C472 C478 1.379 . S
C472 N480 1.356 . S
C473 C472 1.363 . S
C473 C479 1.363 . S
C474 C475 1.363 . S
C474 C479 1.379 . S
C474 N481 1.356 . S
C475 C474 1.363 . S
C475 C478 1.363 . S
N476 C478 1.356 . S
N476 H488 0.984 . S
N476 H489 0.985 . S
N477 C479 1.356 . S
N477 H482 0.984 . S
N477 H483 0.985 . S
C478 C472 1.379 . S
C478 C475 1.363 . S
C478 N476 1.356 . S
C479 C473 1.363 . S
C479 C474 1.379 . S
C479 N477 1.356 . S
N480 C472 1.356 . S
N480 H486 0.984 . S
N480 H487 0.984 . S
N481 C474 1.356 . S
N481 H484 0.984 . S
N481 H485 0.985 . S
H482 N477 0.984 . S
H483 N477 0.985 . S
H484 N481 0.984 . S
H485 N481 0.985 . S
H486 N480 0.984 . S
H487 N480 0.984 . S
H488 N476 0.984 . S
H489 N476 0.985 . S
C490 C491 1.363 . S
C490 C496 1.379 . S
C490 N498 1.356 . S
C491 C490 1.363 . S
C491 C497 1.363 . S
C492 C493 1.363 . S
C492 C497 1.379 . S
C492 N499 1.356 . S
C493 C492 1.363 . S
C493 C496 1.363 . S
N494 C496 1.356 . S
N494 H506 0.984 . S
N494 H507 0.985 . S
N495 C497 1.356 . S
N495 H500 0.984 . S
N495 H501 0.985 . S
C496 C490 1.379 . S
C496 C493 1.363 . S
C496 N494 1.356 . S
C497 C491 1.363 . S
C497 C492 1.379 . S
C497 N495 1.356 . S
N498 C490 1.356 . S
N498 H504 0.984 . S
N498 H505 0.984 . S
N499 C492 1.356 . S
N499 H502 0.984 . S
N499 H503 0.985 . S
H500 N495 0.984 . S
H501 N495 0.985 . S
H502 N499 0.984 . S
H503 N499 0.985 . S
H504 N498 0.984 . S
H505 N498 0.984 . S
H506 N494 0.984 . S
H507 N494 0.985 . S
C508 C509 1.363 . S
C508 C514 1.379 . S
C508 N516 1.356 . S
C509 C508 1.363 . S
C509 C515 1.363 . S
C510 C511 1.363 . S
C510 C515 1.379 . S
C510 N517 1.356 . S
C511 C510 1.363 . S
C511 C514 1.363 . S
N512 C514 1.356 . S
N512 H524 0.984 . S
N512 H525 0.985 . S
N513 C515 1.356 . S
N513 H518 0.984 . S
N513 H519 0.985 . S
C514 C508 1.379 . S
C514 C511 1.363 . S
C514 N512 1.356 . S
C515 C509 1.363 . S
C515 C510 1.379 . S
C515 N513 1.356 . S
N516 C508 1.356 . S
N516 H522 0.984 . S
N516 H523 0.984 . S
N517 C510 1.356 . S
N517 H520 0.984 . S
N517 H521 0.985 . S
H518 N513 0.984 . S
H519 N513 0.985 . S
H520 N517 0.984 . S
H521 N517 0.985 . S
H522 N516 0.984 . S
H523 N516 0.984 . S
H524 N512 0.984 . S
H525 N512 0.985 . S
C526 C527 1.363 . S
C526 C532 1.379 . S
C526 N534 1.356 . S
C527 C526 1.363 . S
C527 C533 1.363 . S
C528 C529 1.363 . S
C528 C533 1.379 . S
C528 N535 1.356 . S
C529 C528 1.363 . S
C529 C532 1.363 . S
N530 C532 1.356 . S
N530 H542 0.984 . S
N530 H543 0.985 . S
N531 C533 1.356 . S
N531 H536 0.984 . S
N531 H537 0.985 . S
C532 C526 1.379 . S
C532 C529 1.363 . S
C532 N530 1.356 . S
C533 C527 1.363 . S
C533 C528 1.379 . S
C533 N531 1.356 . S
N534 C526 1.356 . S
N534 H540 0.984 . S
N534 H541 0.984 . S
N535 C528 1.356 . S
N535 H538 0.984 . S
N535 H539 0.985 . S
H536 N531 0.984 . S
H537 N531 0.985 . S
H538 N535 0.984 . S
H539 N535 0.985 . S
H540 N534 0.984 . S
H541 N534 0.984 . S
H542 N530 0.984 . S
H543 N530 0.985 . S
C544 C545 1.363 . S
C544 C550 1.379 . S
C544 N552 1.356 . S
C545 C544 1.363 . S
C545 C551 1.363 . S
C546 C547 1.363 . S
C546 C551 1.379 . S
C546 N553 1.356 . S
C547 C546 1.363 . S
C547 C550 1.363 . S
N548 C550 1.356 . S
N548 H560 0.984 . S
N548 H561 0.985 . S
N549 C551 1.356 . S
N549 H554 0.984 . S
N549 H555 0.985 . S
C550 C544 1.379 . S
C550 C547 1.363 . S
C550 N548 1.356 . S
C551 C545 1.363 . S
C551 C546 1.379 . S
C551 N549 1.356 . S
N552 C544 1.356 . S
N552 H558 0.984 . S
N552 H559 0.984 . S
N553 C546 1.356 . S
N553 H556 0.984 . S
N553 H557 0.985 . S
H554 N549 0.984 . S
H555 N549 0.985 . S
H556 N553 0.984 . S
H557 N553 0.985 . S
H558 N552 0.984 . S
H559 N552 0.984 . S
H560 N548 0.984 . S
H561 N548 0.985 . S
C562 C563 1.363 . S
C562 C568 1.379 . S
C562 N570 1.356 . S
C563 C562 1.363 . S
C563 C569 1.363 . S
C564 C565 1.363 . S
C564 C569 1.379 . S
C564 N571 1.356 . S
C565 C564 1.363 . S
C565 C568 1.363 . S
N566 C568 1.356 . S
N566 H578 0.984 . S
N566 H579 0.985 . S
N567 C569 1.356 . S
N567 H572 0.984 . S
N567 H573 0.985 . S
C568 C562 1.379 . S
C568 C565 1.363 . S
C568 N566 1.356 . S
C569 C563 1.363 . S
C569 C564 1.379 . S
C569 N567 1.356 . S
N570 C562 1.356 . S
N570 H576 0.984 . S
N570 H577 0.984 . S
N571 C564 1.356 . S
N571 H574 0.984 . S
N571 H575 0.985 . S
H572 N567 0.984 . S
H573 N567 0.985 . S
H574 N571 0.984 . S
H575 N571 0.985 . S
H576 N570 0.984 . S
H577 N570 0.984 . S
H578 N566 0.984 . S
H579 N566 0.985 . S
C580 C581 1.363 . S
C580 C586 1.379 . S
C580 N588 1.356 . S
C581 C580 1.363 . S
C581 C587 1.363 . S
C582 C583 1.363 . S
C582 C587 1.379 . S
C582 N589 1.356 . S
C583 C582 1.363 . S
C583 C586 1.363 . S
N584 C586 1.356 . S
N584 H596 0.984 . S
N584 H597 0.985 . S
N585 C587 1.356 . S
N585 H590 0.984 . S
N585 H591 0.985 . S
C586 C580 1.379 . S
C586 C583 1.363 . S
C586 N584 1.356 . S
C587 C581 1.363 . S
C587 C582 1.379 . S
C587 N585 1.356 . S
N588 C580 1.356 . S
N588 H594 0.984 . S
N588 H595 0.984 . S
N589 C582 1.356 . S
N589 H592 0.984 . S
N589 H593 0.985 . S
H590 N585 0.984 . S
H591 N585 0.985 . S
H592 N589 0.984 . S
H593 N589 0.985 . S
H594 N588 0.984 . S
H595 N588 0.984 . S
H596 N584 0.984 . S
H597 N584 0.985 . S
C598 C599 1.363 . S
C598 C604 1.379 . S
C598 N606 1.356 . S
C599 C598 1.363 . S
C599 C605 1.363 . S
C600 C601 1.363 . S
C600 C605 1.379 . S
C600 N607 1.356 . S
C601 C600 1.363 . S
C601 C604 1.363 . S
N602 C604 1.356 . S
N602 H614 0.984 . S
N602 H615 0.985 . S
N603 C605 1.356 . S
N603 H608 0.984 . S
N603 H609 0.985 . S
C604 C598 1.379 . S
C604 C601 1.363 . S
C604 N602 1.356 . S
C605 C599 1.363 . S
C605 C600 1.379 . S
C605 N603 1.356 . S
N606 C598 1.356 . S
N606 H612 0.984 . S
N606 H613 0.984 . S
N607 C600 1.356 . S
N607 H610 0.984 . S
N607 H611 0.985 . S
H608 N603 0.984 . S
H609 N603 0.985 . S
H610 N607 0.984 . S
H611 N607 0.985 . S
H612 N606 0.984 . S
H613 N606 0.984 . S
H614 N602 0.984 . S
H615 N602 0.985 . S
C185 C8 1.439 1_545 S
C187 C97 1.379 . S
C203 C31 1.459 . S
C205 C109 1.444 . S
C221 C53 1.432 . S
C223 C121 1.394 . S
C241 C130 1.333 . S
C239 C74 1.379 . S
C259 C145 1.380 . S
C257 C26 1.443 . S
C275 C48 1.378 . S
C277 C154 1.333 . S
C293 C71 1.433 . S
C295 C169 1.394 . S
C311 C5 1.459 1_655 S
C313 C181 1.444 . S
C329 C50 1.324 . S
C331 C178 1.310 . S
C349 C142 1.340 . S
C347 C70 1.316 . S
C367 C157 1.397 . S
C365 C4 1.423 . S
C383 C28 1.387 . S
C385 C166 1.325 . S
C403 C106 1.312 . S
C401 C73 1.325 . S
C419 C7 1.387 . S
C421 C118 1.324 . S
C439 C133 1.397 . S
C437 C30 1.424 . S
C457 C94 1.340 . S
C455 C52 1.320 . S
C475 C164 1.422 . S
C473 C9 1.423 . S
C493 C176 1.418 . S
C491 C29 1.444 . S
C509 C51 1.448 . S
C511 C140 1.428 . S
C529 C152 1.391 . S
C527 C75 1.406 . S
C547 C116 1.421 . S
C545 C27 1.423 . S
C563 C49 1.407 . S
C565 C128 1.391 . S
C583 C92 1.427 . S
C581 C72 1.447 . S
C601 C104 1.419 . S
C599 C6 1.446 . S
