# Generated by pormake.
# Topology csq, (4,8)-cn, num edge types: 1
# Building blocks:
#     Node 0, Type 0, BuildingBlock: AZAVOO_clean_linker_0, # of connection points: 4
#     Node 1, Type 0, BuildingBlock: AZAVOO_clean_linker_0, # of connection points: 4
#     Node 2, Type 0, BuildingBlock: AZAVOO_clean_linker_0, # of connection points: 4
#     Node 3, Type 0, BuildingBlock: AZAVOO_clean_linker_0, # of connection points: 4
#     Node 4, Type 0, BuildingBlock: AZAVOO_clean_linker_0, # of connection points: 4
#     Node 5, Type 0, BuildingBlock: AZAVOO_clean_linker_0, # of connection points: 4
#     Node 6, Type 1, BuildingBlock: TAGTUT_clean_sbu_1, # of connection points: 8
#     Node 7, Type 1, BuildingBlock: TAGTUT_clean_sbu_1, # of connection points: 8
#     Node 8, Type 1, BuildingBlock: TAGTUT_clean_sbu_1, # of connection points: 8
#     Edge 9, Type (0, 1), BuildingBlock: UVAHIK_clean_linker_0, # of connection points: 2
#     Edge 10, Type (0, 1), BuildingBlock: UVAHIK_clean_linker_0, # of connection points: 2
#     Edge 11, Type (0, 1), BuildingBlock: UVAHIK_clean_linker_0, # of connection points: 2
#     Edge 12, Type (0, 1), BuildingBlock: UVAHIK_clean_linker_0, # of connection points: 2
#     Edge 13, Type (0, 1), BuildingBlock: UVAHIK_clean_linker_0, # of connection points: 2
#     Edge 14, Type (0, 1), BuildingBlock: UVAHIK_clean_linker_0, # of connection points: 2
#     Edge 15, Type (0, 1), BuildingBlock: UVAHIK_clean_linker_0, # of connection points: 2
#     Edge 16, Type (0, 1), BuildingBlock: UVAHIK_clean_linker_0, # of connection points: 2
#     Edge 17, Type (0, 1), BuildingBlock: UVAHIK_clean_linker_0, # of connection points: 2
#     Edge 18, Type (0, 1), BuildingBlock: UVAHIK_clean_linker_0, # of connection points: 2
#     Edge 19, Type (0, 1), BuildingBlock: UVAHIK_clean_linker_0, # of connection points: 2
#     Edge 20, Type (0, 1), BuildingBlock: UVAHIK_clean_linker_0, # of connection points: 2
#     Edge 21, Type (0, 1), BuildingBlock: UVAHIK_clean_linker_0, # of connection points: 2
#     Edge 22, Type (0, 1), BuildingBlock: UVAHIK_clean_linker_0, # of connection points: 2
#     Edge 23, Type (0, 1), BuildingBlock: UVAHIK_clean_linker_0, # of connection points: 2
#     Edge 24, Type (0, 1), BuildingBlock: UVAHIK_clean_linker_0, # of connection points: 2
#     Edge 25, Type (0, 1), BuildingBlock: UVAHIK_clean_linker_0, # of connection points: 2
#     Edge 26, Type (0, 1), BuildingBlock: UVAHIK_clean_linker_0, # of connection points: 2
#     Edge 27, Type (0, 1), BuildingBlock: UVAHIK_clean_linker_0, # of connection points: 2
#     Edge 28, Type (0, 1), BuildingBlock: UVAHIK_clean_linker_0, # of connection points: 2
#     Edge 29, Type (0, 1), BuildingBlock: UVAHIK_clean_linker_0, # of connection points: 2
#     Edge 30, Type (0, 1), BuildingBlock: UVAHIK_clean_linker_0, # of connection points: 2
#     Edge 31, Type (0, 1), BuildingBlock: UVAHIK_clean_linker_0, # of connection points: 2
#     Edge 32, Type (0, 1), BuildingBlock: UVAHIK_clean_linker_0, # of connection points: 2
# Relax obj value: 0.124
# Max RMSD: 0.238
# Mean RMSD: 0.202
data_MOF--net-csq--node1-TAGTUT_clean_sbu_1--node2-AZAVOO_clean_linker_0--edge1-UVAHIK_clean_linker_0
_symmetry_space_group_name_H-M    P1
_symmetry_Int_Tables_number       1
_symmetry_cell_setting            triclinic
loop_
_symmetry_equiv_pos_as_xyz
'x, y, z'
_cell_length_a     70.414543
_cell_length_b     69.282075
_cell_length_c     29.092926
_cell_angle_alpha  92.294012
_cell_angle_beta   92.061405
_cell_angle_gamma 119.89152
loop_
_atom_site_label
_atom_site_type_symbol
_atom_site_fract_x
_atom_site_fract_y
_atom_site_fract_z
_atom_type_partial_charge
H0 H 0.17658 0.4208 0.40634 0.0
H1 H 0.38623 0.48601 0.15072 0.0
H2 H 0.1877 0.42317 0.16364 0.0
H3 H 0.15885 0.42529 0.20405 0.0
H4 H 0.19391 0.49691 0.19691 0.0
H5 H 0.22251 0.49455 0.1563 0.0
H6 H 0.21745 0.41831 0.23631 0.0
H7 H 0.19875 0.41279 0.30805 0.0
H8 H 0.2188 0.48291 0.31982 0.0
H9 H 0.23768 0.48822 0.24842 0.0
H10 H 0.26307 0.42253 0.21703 0.0
H11 H 0.28144 0.42076 0.2887 0.0
H12 H 0.29955 0.48895 0.32803 0.0
H13 H 0.2808 0.49029 0.25699 0.0
H14 H 0.27721 0.42874 0.11242 0.0
H15 H 0.31283 0.43086 0.10731 0.0
H16 H 0.34491 0.49784 0.17187 0.0
H17 H 0.30918 0.49551 0.17639 0.0
H18 H 0.25292 0.43338 0.03602 0.0
H19 H 0.27675 0.4399 0.97223 0.0
H20 H 0.3142 0.50991 0.01746 0.0
H21 H 0.29077 0.50295 0.0819 0.0
H22 H 0.20191 0.42879 0.0616 0.0
H23 H 0.18394 0.43118 0.99022 0.0
H24 H 0.23102 0.50174 0.99202 0.0
H25 H 0.24907 0.499 0.06299 0.0
O26 O 0.18451 0.42344 0.37867 0.0
O27 O 0.19501 0.45955 0.38275 0.0
O28 O 0.35464 0.45026 0.11911 0.0
O29 O 0.37193 0.48471 0.15232 0.0
C30 C 0.2281 0.45856 0.15201 0.0
C31 C 0.23885 0.45656 0.19203 0.0
C32 C 0.25924 0.45759 0.18946 0.0
C33 C 0.2691 0.46072 0.14705 0.0
C34 C 0.25864 0.46309 0.10703 0.0
C35 C 0.23802 0.46188 0.10941 0.0
C36 C 0.20726 0.45872 0.15717 0.0
C37 C 0.18857 0.43918 0.16876 0.0
C38 C 0.17232 0.44048 0.19265 0.0
C39 C 0.17437 0.46132 0.20481 0.0
C40 C 0.1918 0.48058 0.18817 0.0
C41 C 0.2081 0.47927 0.16445 0.0
C42 C 0.22878 0.45361 0.23714 0.0
C43 C 0.21795 0.43247 0.25472 0.0
C44 C 0.20722 0.42937 0.29558 0.0
C45 C 0.20719 0.44739 0.31956 0.0
C46 C 0.21846 0.46866 0.30218 0.0
C47 C 0.22924 0.47175 0.26143 0.0
C48 C 0.27074 0.45655 0.23201 0.0
C49 C 0.27103 0.43702 0.24128 0.0
C50 C 0.28149 0.43606 0.28213 0.0
C51 C 0.29183 0.45467 0.3142 0.0
C52 C 0.29137 0.47417 0.30458 0.0
C53 C 0.28089 0.47508 0.26386 0.0
C54 C 0.29069 0.46197 0.14472 0.0
C55 C 0.29197 0.44384 0.12537 0.0
C56 C 0.31232 0.44511 0.12254 0.0
C57 C 0.33173 0.46454 0.13918 0.0
C58 C 0.33031 0.48264 0.15874 0.0
C59 C 0.30994 0.48135 0.16146 0.0
C60 C 0.27008 0.46771 0.06343 0.0
C61 C 0.26598 0.45019 0.03142 0.0
C62 C 0.27965 0.45398 0.99498 0.0
C63 C 0.29763 0.47542 0.98986 0.0
C64 C 0.30086 0.49311 0.02078 0.0
C65 C 0.28731 0.48926 0.05731 0.0
C66 C 0.22676 0.46371 0.06731 0.0
C67 C 0.20825 0.44475 0.04657 0.0
C68 C 0.198 0.44618 0.0059 0.0
C69 C 0.20606 0.46665 0.98532 0.0
C70 C 0.2246 0.48566 0.00651 0.0
C71 C 0.23485 0.48418 0.04718 0.0
C72 C 0.19527 0.44393 0.36226 0.0
C73 C 0.3534 0.46598 0.13619 0.0
H74 H 0.81476 0.26418 0.42741 0.0
H75 H 0.68473 0.06956 0.07934 0.0
H76 H 0.8072 0.26708 0.17736 0.0
H77 H 0.83654 0.30452 0.20264 0.0
H78 H 0.88463 0.28679 0.16158 0.0
H79 H 0.85496 0.24886 0.13849 0.0
H80 H 0.77735 0.23278 0.23834 0.0
H81 H 0.7878 0.24689 0.31905 0.0
H82 H 0.84532 0.23983 0.31237 0.0
H83 H 0.83452 0.22546 0.23183 0.0
H84 H 0.73863 0.18992 0.17956 0.0
H85 H 0.71571 0.17375 0.244 0.0
H86 H 0.76607 0.1638 0.3087 0.0
H87 H 0.7888 0.17947 0.24302 0.0
H88 H 0.7351 0.18057 0.07943 0.0
H89 H 0.70282 0.14403 0.05872 0.0
H90 H 0.73574 0.11221 0.12177 0.0
H91 H 0.76805 0.14887 0.14167 0.0
H92 H 0.77157 0.22113 0.02611 0.0
H93 H 0.75075 0.20411 0.95283 0.0
H94 H 0.76066 0.14783 0.96781 0.0
H95 H 0.78277 0.16579 0.03966 0.0
H96 H 0.80673 0.26135 0.06958 0.0
H97 H 0.83269 0.28765 0.01842 0.0
H98 H 0.85886 0.24367 0.99426 0.0
H99 H 0.83304 0.21764 0.04648 0.0
O100 O 0.81095 0.2586 0.3954 0.0
O101 O 0.84044 0.25495 0.38998 0.0
O102 O 0.68107 0.10138 0.05514 0.0
O103 O 0.69723 0.08421 0.08724 0.0
C104 C 0.81091 0.23205 0.14505 0.0
C105 C 0.79859 0.21904 0.18055 0.0
C106 C 0.77989 0.19788 0.16952 0.0
C107 C 0.77386 0.18952 0.123 0.0
C108 C 0.78644 0.20246 0.08736 0.0
C109 C 0.80495 0.22374 0.09853 0.0
C110 C 0.829 0.25522 0.15671 0.0
C111 C 0.82409 0.27133 0.17377 0.0
C112 C 0.8409 0.29281 0.18762 0.0
C113 C 0.86299 0.29872 0.18415 0.0
C114 C 0.86781 0.28272 0.16529 0.0
C115 C 0.85092 0.2611 0.15185 0.0
C116 C 0.80509 0.22794 0.2294 0.0
C117 C 0.79214 0.23419 0.25446 0.0
C118 C 0.79818 0.2423 0.30051 0.0
C119 C 0.81737 0.24444 0.32221 0.0
C120 C 0.83042 0.23835 0.29675 0.0
C121 C 0.82432 0.23018 0.25075 0.0
C122 C 0.7653 0.1857 0.20639 0.0
C123 C 0.7445 0.18372 0.20699 0.0
C124 C 0.73149 0.17459 0.2439 0.0
C125 C 0.73918 0.16759 0.28128 0.0
C126 C 0.75987 0.16922 0.28038 0.0
C127 C 0.77276 0.17803 0.24293 0.0
C128 C 0.75397 0.16735 0.1117 0.0
C129 C 0.73533 0.16568 0.08857 0.0
C130 C 0.7169 0.14479 0.07689 0.0
C131 C 0.71672 0.12518 0.0885 0.0
C132 C 0.73534 0.12696 0.11223 0.0
C133 C 0.7538 0.14787 0.12374 0.0
C134 C 0.77857 0.19464 0.03845 0.0
C135 C 0.77006 0.20559 0.01262 0.0
C136 C 0.75784 0.19563 0.97106 0.0
C137 C 0.75354 0.17432 0.95495 0.0
C138 C 0.76367 0.16427 0.979 0.0
C139 C 0.77624 0.17445 0.02024 0.0
C140 C 0.81812 0.23769 0.0618 0.0
C141 C 0.81784 0.25725 0.0526 0.0
C142 C 0.83263 0.2722 0.02326 0.0
C143 C 0.84794 0.26781 0.00255 0.0
C144 C 0.84747 0.24765 0.01024 0.0
C145 C 0.83262 0.23268 0.03961 0.0
C146 C 0.82369 0.25297 0.37119 0.0
C147 C 0.69723 0.10293 0.0759 0.0
H148 H 0.59228 0.88607 0.8396 0.0
H149 H 0.53359 0.6484 0.97735 0.0
H150 H 0.6042 0.85103 0.07195 0.0
H151 H 0.60423 0.88504 0.05205 0.0
H152 H 0.53332 0.84754 0.03411 0.0
H153 H 0.5336 0.81421 0.05565 0.0
H154 H 0.60541 0.83385 0.97731 0.0
H155 H 0.60665 0.8588 0.9187 0.0
H156 H 0.53571 0.82278 0.90365 0.0
H157 H 0.53475 0.798 0.96233 0.0
H158 H 0.60084 0.78055 0.96081 0.0
H159 H 0.59579 0.75201 0.90254 0.0
H160 H 0.52633 0.72951 0.88829 0.0
H161 H 0.53156 0.75762 0.94851 0.0
H162 H 0.59874 0.75664 0.03951 0.0
H163 H 0.59442 0.72003 0.01813 0.0
H164 H 0.52392 0.69145 0.007 0.0
H165 H 0.52853 0.72816 0.02828 0.0
H166 H 0.59912 0.77167 0.13267 0.0
H167 H 0.59494 0.74384 0.18684 0.0
H168 H 0.5252 0.71965 0.18419 0.0
H169 H 0.52967 0.74777 0.1305 0.0
H170 H 0.60161 0.82202 0.15861 0.0
H171 H 0.60132 0.8474 0.21907 0.0
H172 H 0.531 0.81718 0.19321 0.0
H173 H 0.53149 0.79132 0.13503 0.0
O174 O 0.59145 0.87549 0.86123 0.0
O175 O 0.55495 0.85663 0.85543 0.0
O176 O 0.57212 0.67863 0.99126 0.0
O177 O 0.53575 0.66287 0.98739 0.0
C178 C 0.5691 0.80902 0.05853 0.0
C179 C 0.56925 0.80095 0.01338 0.0
C180 C 0.5679 0.7802 0.00622 0.0
C181 C 0.56664 0.76748 0.04402 0.0
C182 C 0.56668 0.77563 0.08924 0.0
C183 C 0.56772 0.79636 0.09639 0.0
C184 C 0.56891 0.83023 0.06463 0.0
C185 C 0.58869 0.85055 0.06607 0.0
C186 C 0.58865 0.86986 0.05413 0.0
C187 C 0.56883 0.8689 0.04013 0.0
C188 C 0.54892 0.84904 0.04474 0.0
C189 C 0.54899 0.82986 0.05707 0.0
C190 C 0.57001 0.81407 0.97368 0.0
C191 C 0.59019 0.83116 0.96067 0.0
C192 C 0.59083 0.84545 0.92742 0.0
C193 C 0.57127 0.84284 0.90661 0.0
C194 C 0.55107 0.82527 0.91899 0.0
C195 C 0.55047 0.81099 0.95222 0.0
C196 C 0.5665 0.77072 0.95923 0.0
C197 C 0.58476 0.77019 0.94339 0.0
C198 C 0.58178 0.75381 0.90995 0.0
C199 C 0.5605 0.73804 0.89188 0.0
C200 C 0.54281 0.74107 0.90262 0.0
C201 C 0.54578 0.75728 0.93652 0.0
C202 C 0.56394 0.74495 0.03555 0.0
C203 C 0.58239 0.74237 0.03299 0.0
C204 C 0.57987 0.72148 0.02057 0.0
C205 C 0.55881 0.70282 0.01069 0.0
C206 C 0.54036 0.70545 0.01437 0.0
C207 C 0.54292 0.72636 0.02668 0.0
C208 C 0.56473 0.7618 0.12813 0.0
C209 C 0.58306 0.7607 0.14476 0.0
C210 C 0.58058 0.74464 0.1752 0.0
C211 C 0.5597 0.72939 0.18943 0.0
C212 C 0.54152 0.73126 0.17422 0.0
C213 C 0.54402 0.74732 0.14368 0.0
C214 C 0.56658 0.80498 0.14261 0.0
C215 C 0.58605 0.82017 0.16794 0.0
C216 C 0.58587 0.83489 0.20185 0.0
C217 C 0.56624 0.83481 0.21003 0.0
C218 C 0.54642 0.81776 0.18811 0.0
C219 C 0.54661 0.80287 0.15478 0.0
C220 C 0.57197 0.85864 0.87279 0.0
C221 C 0.55606 0.68076 0.99598 0.0
H222 H 0.73252 0.54072 0.36568 0.0
H223 H 0.93449 0.58113 0.09146 0.0
H224 H 0.73827 0.51216 0.10859 0.0
H225 H 0.70752 0.50694 0.15273 0.0
H226 H 0.73347 0.57824 0.16277 0.0
H227 H 0.76449 0.58326 0.11914 0.0
H228 H 0.76345 0.52017 0.19674 0.0
H229 H 0.74806 0.52207 0.2698 0.0
H230 H 0.78207 0.59404 0.26938 0.0
H231 H 0.7972 0.59185 0.19612 0.0
H232 H 0.80386 0.51656 0.17033 0.0
H233 H 0.81631 0.50978 0.24381 0.0
H234 H 0.85082 0.5807 0.28173 0.0
H235 H 0.83724 0.5871 0.20821 0.0
H236 H 0.82505 0.52056 0.07357 0.0
H237 H 0.86072 0.52302 0.06653 0.0
H238 H 0.8932 0.59303 0.11185 0.0
H239 H 0.85742 0.59038 0.11812 0.0
H240 H 0.78841 0.51281 0.00422 0.0
H241 H 0.80587 0.50571 0.93973 0.0
H242 H 0.85588 0.57542 0.94841 0.0
H243 H 0.8378 0.58248 0.01192 0.0
H244 H 0.75016 0.50974 0.02452 0.0
H245 H 0.72726 0.50253 0.95364 0.0
H246 H 0.7616 0.57321 0.93311 0.0
H247 H 0.78495 0.58002 0.00323 0.0
O248 O 0.73936 0.54037 0.33761 0.0
O249 O 0.75849 0.57738 0.33764 0.0
O250 O 0.90271 0.5436 0.07102 0.0
O251 O 0.92018 0.57964 0.09419 0.0
C252 C 0.77594 0.55144 0.1048 0.0
C253 C 0.78924 0.5546 0.14512 0.0
C254 C 0.80939 0.55519 0.14197 0.0
C255 C 0.81712 0.55414 0.09852 0.0
C256 C 0.80406 0.55129 0.05784 0.0
C257 C 0.78323 0.54952 0.06111 0.0
C258 C 0.75365 0.54809 0.11058 0.0
C259 C 0.73666 0.52655 0.11795 0.0
C260 C 0.71916 0.52363 0.14377 0.0
C261 C 0.71832 0.54223 0.16243 0.0
C262 C 0.73392 0.5636 0.14991 0.0
C263 C 0.75144 0.56649 0.12409 0.0
C264 C 0.78132 0.55587 0.1912 0.0
C265 C 0.76766 0.53632 0.21272 0.0
C266 C 0.75887 0.53746 0.25436 0.0
C267 C 0.76376 0.55821 0.27535 0.0
C268 C 0.77794 0.5778 0.25412 0.0
C269 C 0.78666 0.57662 0.2124 0.0
C270 C 0.8199 0.5523 0.18395 0.0
C271 C 0.8144 0.53064 0.19426 0.0
C272 C 0.82157 0.52685 0.23631 0.0
C273 C 0.83466 0.54471 0.26875 0.0
C274 C 0.84054 0.56655 0.25779 0.0
C275 C 0.83309 0.5703 0.21569 0.0
C276 C 0.8387 0.55534 0.09593 0.0
C277 C 0.8399 0.53641 0.08181 0.0
C278 C 0.86029 0.53786 0.07792 0.0
C279 C 0.87983 0.55826 0.08849 0.0
C280 C 0.8785 0.5771 0.10333 0.0
C281 C 0.8581 0.57563 0.10706 0.0
C282 C 0.81171 0.5482 0.01258 0.0
C283 C 0.80263 0.52671 0.99102 0.0
C284 C 0.81286 0.52262 0.95465 0.0
C285 C 0.83247 0.53993 0.93931 0.0
C286 C 0.84073 0.56174 0.95907 0.0
C287 C 0.83042 0.56582 0.99538 0.0
C288 C 0.76905 0.54539 0.01897 0.0
C289 C 0.75266 0.52362 0.00463 0.0
C290 C 0.73958 0.51957 0.96419 0.0
C291 C 0.74253 0.53729 0.93758 0.0
C292 C 0.75908 0.55913 0.95225 0.0
C293 C 0.77229 0.56311 0.99253 0.0
C294 C 0.75382 0.55932 0.3188 0.0
C295 C 0.90154 0.55996 0.08401 0.0
H296 H 0.23493 0.84054 0.38815 0.0
H297 H 0.11427 0.65673 0.98667 0.0
H298 H 0.25829 0.84641 0.15111 0.0
H299 H 0.28852 0.87002 0.20772 0.0
H300 H 0.31444 0.82544 0.19081 0.0
H301 H 0.28388 0.80169 0.13499 0.0
H302 H 0.21181 0.81563 0.19106 0.0
H303 H 0.21731 0.82855 0.27259 0.0
H304 H 0.25946 0.80059 0.29585 0.0
H305 H 0.25351 0.78746 0.21447 0.0
H306 H 0.17152 0.77525 0.14446 0.0
H307 H 0.14064 0.74759 0.18598 0.0
H308 H 0.17848 0.71626 0.22168 0.0
H309 H 0.20925 0.74403 0.1812 0.0
H310 H 0.17205 0.76661 0.03895 0.0
H311 H 0.13895 0.73398 0.00335 0.0
H312 H 0.16343 0.69134 0.04925 0.0
H313 H 0.19637 0.72411 0.08476 0.0
H314 H 0.2073 0.78229 0.97351 0.0
H315 H 0.1906 0.75337 0.91011 0.0
H316 H 0.21977 0.71788 0.97258 0.0
H317 H 0.23639 0.74677 0.0349 0.0
H318 H 0.25855 0.83617 0.03436 0.0
H319 H 0.28484 0.85239 0.97457 0.0
H320 H 0.29769 0.79768 0.97858 0.0
H321 H 0.27201 0.782 0.03942 0.0
O322 O 0.23276 0.83505 0.35617 0.0
O323 O 0.25447 0.82057 0.36617 0.0
O324 O 0.11459 0.69234 0.98032 0.0
O325 O 0.12688 0.66983 0.00152 0.0
C326 C 0.24737 0.80455 0.11822 0.0
C327 C 0.22967 0.79373 0.14708 0.0
C328 C 0.20968 0.77537 0.12916 0.0
C329 C 0.2073 0.76764 0.08274 0.0
C330 C 0.22513 0.77783 0.05438 0.0
C331 C 0.24509 0.79651 0.07177 0.0
C332 C 0.26887 0.82232 0.13913 0.0
C333 C 0.27098 0.84225 0.15831 0.0
C334 C 0.28821 0.85565 0.1908 0.0
C335 C 0.30358 0.8493 0.20436 0.0
C336 C 0.30257 0.83048 0.18167 0.0
C337 C 0.28535 0.81711 0.14921 0.0
C338 C 0.23241 0.8008 0.19689 0.0
C339 C 0.22211 0.81221 0.21393 0.0
C340 C 0.22534 0.81962 0.26046 0.0
C341 C 0.23891 0.81569 0.29071 0.0
C342 C 0.24896 0.80395 0.27349 0.0
C343 C 0.24563 0.79647 0.22703 0.0
C344 C 0.19256 0.76162 0.16026 0.0
C345 C 0.17327 0.76275 0.16236 0.0
C346 C 0.15572 0.747 0.18579 0.0
C347 C 0.15728 0.72982 0.20642 0.0
C348 C 0.17694 0.72931 0.20567 0.0
C349 C 0.1945 0.74519 0.18298 0.0
C350 C 0.18651 0.74765 0.06437 0.0
C351 C 0.17008 0.75017 0.04165 0.0
C352 C 0.15125 0.73152 0.02125 0.0
C353 C 0.14858 0.71004 0.02333 0.0
C354 C 0.16497 0.70762 0.04695 0.0
C355 C 0.18375 0.72627 0.06739 0.0
C356 C 0.22309 0.76663 0.00862 0.0
C357 C 0.21104 0.7689 0.97198 0.0
C358 C 0.20128 0.7522 0.93621 0.0
C359 C 0.20348 0.73309 0.93689 0.0
C360 C 0.21784 0.73239 0.97071 0.0
C361 C 0.22752 0.74902 0.00635 0.0
C362 C 0.26316 0.80776 0.0407 0.0
C363 C 0.26737 0.82794 0.02292 0.0
C364 C 0.28229 0.83711 0.98877 0.0
C365 C 0.29298 0.82605 0.97158 0.0
C366 C 0.28934 0.80629 0.99071 0.0
C367 C 0.27473 0.79736 0.0254 0.0
C368 C 0.24256 0.82387 0.33996 0.0
C369 C 0.12895 0.69027 0.00047 0.0
H370 H 0.44323 0.23648 0.84502 0.0
H371 H 0.43827 0.07952 0.21947 0.0
H372 H 0.49745 0.26614 0.09236 0.0
H373 H 0.50087 0.30033 0.06333 0.0
H374 H 0.43392 0.2786 0.09483 0.0
H375 H 0.43072 0.24437 0.12408 0.0
H376 H 0.48106 0.23175 0.02363 0.0
H377 H 0.47151 0.23657 0.94484 0.0
H378 H 0.40305 0.20436 0.97479 0.0
H379 H 0.4129 0.19973 0.05358 0.0
H380 H 0.47212 0.18616 0.03622 0.0
H381 H 0.46136 0.15036 0.99478 0.0
H382 H 0.40057 0.11962 0.06293 0.0
H383 H 0.41109 0.1557 0.10307 0.0
H384 H 0.48976 0.18124 0.14009 0.0
H385 H 0.48958 0.14693 0.15812 0.0
H386 H 0.42459 0.1207 0.20758 0.0
H387 H 0.42504 0.15511 0.18939 0.0
H388 H 0.50647 0.22395 0.21954 0.0
H389 H 0.51674 0.21095 0.28802 0.0
H390 H 0.44852 0.17478 0.31993 0.0
H391 H 0.43878 0.18875 0.25286 0.0
H392 H 0.50383 0.27057 0.18314 0.0
H393 H 0.50758 0.30313 0.22748 0.0
H394 H 0.44487 0.26133 0.28382 0.0
H395 H 0.44066 0.22933 0.23676 0.0
O396 O 0.44662 0.23421 0.8762 0.0
O397 O 0.41164 0.21753 0.89329 0.0
O398 O 0.47245 0.10777 0.18739 0.0
O399 O 0.43887 0.09336 0.21244 0.0
C400 C 0.46158 0.23169 0.12485 0.0
C401 C 0.45364 0.21333 0.09223 0.0
C402 C 0.45112 0.19298 0.1058 0.0
C403 C 0.45753 0.19125 0.15124 0.0
C404 C 0.4651 0.20947 0.1841 0.0
C405 C 0.46681 0.22961 0.1711 0.0
C406 C 0.46389 0.25294 0.11038 0.0
C407 C 0.48366 0.26895 0.09358 0.0
C408 C 0.4856 0.28847 0.07729 0.0
C409 C 0.46767 0.29212 0.07703 0.0
C410 C 0.44795 0.27614 0.09455 0.0
C411 C 0.4461 0.25669 0.11129 0.0
C412 C 0.44765 0.2154 0.04409 0.0
C413 C 0.46402 0.22571 0.01299 0.0
C414 C 0.45851 0.22845 0.96806 0.0
C415 C 0.43651 0.22088 0.95352 0.0
C416 C 0.42014 0.21038 0.98487 0.0
C417 C 0.42569 0.20766 0.0298 0.0
C418 C 0.4424 0.17337 0.07264 0.0
C419 C 0.4561 0.17192 0.04068 0.0
C420 C 0.44998 0.15151 0.01727 0.0
C421 C 0.43025 0.13236 0.0262 0.0
C422 C 0.41588 0.13421 0.0558 0.0
C423 C 0.42182 0.15472 0.07848 0.0
C424 C 0.45745 0.17062 0.16361 0.0
C425 C 0.47556 0.16808 0.155 0.0
C426 C 0.47539 0.14847 0.16527 0.0
C427 C 0.45705 0.13105 0.18427 0.0
C428 C 0.43897 0.13376 0.19301 0.0
C429 C 0.43919 0.1534 0.18276 0.0
C430 C 0.4719 0.20722 0.23135 0.0
C431 C 0.49395 0.21398 0.24252 0.0
C432 C 0.4997 0.20625 0.28125 0.0
C433 C 0.48341 0.19143 0.30906 0.0
C434 C 0.46157 0.18628 0.2997 0.0
C435 C 0.4559 0.19423 0.26129 0.0
C436 C 0.47182 0.24776 0.20622 0.0
C437 C 0.49107 0.26848 0.20554 0.0
C438 C 0.49322 0.28702 0.23112 0.0
C439 C 0.47628 0.28493 0.25843 0.0
C440 C 0.4579 0.26365 0.26203 0.0
C441 C 0.45561 0.24526 0.23581 0.0
C442 C 0.43075 0.22405 0.90592 0.0
C443 C 0.45668 0.11008 0.19475 0.0
C444 C 0.00087 0.43939 0.73207 0.0
C445 C 0.06214 0.48054 0.66944 0.0
C446 C 0.04065 0.5441 0.67734 0.0
Mg447 Mg 0.01408 0.45214 0.63229 0.0
O448 O 0.0085 0.47496 0.65089 0.0
Mg449 Mg 0.02503 0.49384 0.70839 0.0
Mg450 Mg 0.01395 0.49885 0.60849 0.0
O451 O 0.01919 0.52286 0.56663 0.0
Mg452 Mg 0.01382 0.54552 0.58789 0.0
Mg453 Mg 0.00032 0.50337 0.51174 0.0
C454 C 0.98948 0.45434 0.53921 0.0
C455 C 0.04369 0.4984 0.52499 0.0
O456 O 0.00962 0.46026 0.7448 0.0
O457 O 0.00026 0.43249 0.69016 0.0
O458 O 0.0556 0.49102 0.6956 0.0
O459 O 0.04911 0.46538 0.63915 0.0
O460 O 0.99725 0.4444 0.56352 0.0
O461 O 0.99058 0.47265 0.55393 0.0
C462 C 0.9828 0.50011 0.68887 0.0
O463 O 0.98672 0.50177 0.64598 0.0
O464 O 0.99457 0.49669 0.71827 0.0
O465 O 0.01297 0.53642 0.47468 0.0
O466 O 0.02416 0.56484 0.52857 0.0
O467 O 0.96979 0.5052 0.53154 0.0
C468 C 0.0215 0.55735 0.48641 0.0
O469 O 0.97907 0.53171 0.58772 0.0
O470 O 0.03315 0.55445 0.65371 0.0
C471 C 0.96464 0.51597 0.56041 0.0
O472 O 0.03733 0.52469 0.66406 0.0
O473 O 0.0411 0.49627 0.56855 0.0
O474 O 0.03071 0.50148 0.49819 0.0
C475 C 0.47733 -0.00186 0.77942 0.0
C476 C 0.45181 0.94813 0.67223 0.0
C477 C 0.53376 0.96793 0.65193 0.0
Mg478 Mg 0.47294 -0.00148 0.67254 0.0
O479 O 0.5014 0.00299 0.6804 0.0
Mg480 Mg 0.50471 0.98025 0.71529 0.0
Mg481 Mg 0.51421 0.00012 0.62236 0.0
O482 O 0.52693 0.99712 0.56469 0.0
Mg483 Mg 0.55451 -0.00085 0.5696 0.0
Mg484 Mg 0.52443 0.02031 0.52974 0.0
C485 C 0.49584 0.03361 0.5962 0.0
C486 C 0.47549 0.97855 0.5402 0.0
O487 O 0.49064 0.99056 0.77668 0.0
O488 O 0.46912 0.00268 0.74427 0.0
O489 O 0.46944 0.95205 0.69471 0.0
O490 O 0.45004 0.96377 0.65457 0.0
O491 O 0.47998 0.02391 0.62294 0.0
O492 O 0.51134 0.02891 0.59469 0.0
C493 C 0.55319 0.0229 0.70409 0.0
O494 O 0.54736 0.02305 0.66183 0.0
O495 O 0.54 0.0088 0.73121 0.0
O496 O 0.53634 0.00749 0.46785 0.0
O497 O 0.55553 0.99225 0.49788 0.0
O498 O 0.56045 0.04774 0.54962 0.0
C499 C 0.54749 0.99748 0.46357 0.0
O500 O 0.57878 0.03334 0.58469 0.0
O501 O 0.54907 0.97618 0.62364 0.0
C502 C 0.57792 0.04999 0.57006 0.0
O503 O 0.51785 0.972 0.65071 0.0
O504 O 0.48076 0.97709 0.58215 0.0
O505 O 0.48915 0.99313 0.51462 0.0
C506 C 0.54536 0.55981 0.47994 0.0
C507 C 0.57522 0.52121 0.51791 0.0
C508 C 0.49446 0.45828 0.5561 0.0
Mg509 Mg 0.56127 0.55027 0.57307 0.0
O510 O 0.53181 0.52744 0.56885 0.0
Mg511 Mg 0.52135 0.50667 0.51223 0.0
Mg512 Mg 0.52147 0.50546 0.61734 0.0
O513 O 0.51115 0.48357 0.66604 0.0
Mg514 Mg 0.48186 0.46021 0.66055 0.0
Mg515 Mg 0.52003 0.50541 0.72122 0.0
C516 C 0.54896 0.55256 0.67741 0.0
C517 C 0.56407 0.511 0.67617 0.0
O518 O 0.53213 0.53872 0.47131 0.0
O519 O 0.55757 0.56777 0.51745 0.0
O520 O 0.55517 0.50994 0.50229 0.0
O521 O 0.58147 0.53691 0.54943 0.0
O522 O 0.56227 0.56131 0.64531 0.0
O523 O 0.53134 0.53349 0.67122 0.0
C524 C 0.47859 0.50143 0.56185 0.0
O525 O 0.4873 0.50116 0.60109 0.0
O526 O 0.48837 0.50373 0.52452 0.0
O527 O 0.50849 0.47447 0.76486 0.0
O528 O 0.4842 0.44397 0.72037 0.0
O529 O 0.48549 0.50176 0.72594 0.0
C530 C 0.49547 0.45326 0.75857 0.0
O531 O 0.46097 0.47341 0.67874 0.0
O532 O 0.48147 0.44891 0.58844 0.0
C533 C 0.46589 0.48964 0.70808 0.0
O534 O 0.51141 0.47786 0.56194 0.0
O535 O 0.55561 0.50958 0.63539 0.0
O536 O 0.55372 0.5095 0.71248 0.0
C537 C 0.15489 0.45097 0.27832 0.0
C538 C 0.15998 0.46328 0.23876 0.0
C539 C 0.1428 0.45398 0.31219 0.0
C540 C 0.10505 0.47593 0.3306 0.0
H541 H 0.122 0.47917 0.46036 0.0
C542 C 0.0706 0.50958 0.46492 0.0
C543 C 0.06157 0.49692 0.50299 0.0
C544 C 0.08391 0.50541 0.43683 0.0
C545 C 0.11696 0.47807 0.42428 0.0
H546 H 0.1561 0.48824 0.20374 0.0
H547 H 0.13521 0.49365 0.26284 0.0
H548 H 0.14194 0.47138 0.40183 0.0
H549 H 0.06058 0.47088 0.54334 0.0
H550 H 0.08415 0.46345 0.49367 0.0
H551 H 0.08031 0.48282 0.35269 0.0
C552 C 0.14036 0.48147 0.26752 0.0
C553 C 0.12834 0.47359 0.39072 0.0
C554 C 0.15249 0.47851 0.23374 0.0
C555 C 0.06744 0.48096 0.51435 0.0
C556 C 0.08082 0.47667 0.48582 0.0
C557 C 0.0938 0.48045 0.36396 0.0
C558 C 0.13542 0.46931 0.3073 0.0
C559 C 0.12271 0.4728 0.34341 0.0
C560 C 0.08847 0.48831 0.44574 0.0
C561 C 0.09984 0.48199 0.41116 0.0
H562 H 0.16072 0.43938 0.28372 0.0
H563 H 0.13918 0.44422 0.34215 0.0
H564 H 0.09988 0.47488 0.29464 0.0
H565 H 0.06659 0.52219 0.45565 0.0
H566 H 0.09004 0.51511 0.40703 0.0
C567 C 0.70332 0.14355 0.31475 0.0
C568 C 0.72574 0.1593 0.32149 0.0
C569 C 0.69008 0.13702 0.35202 0.0
C570 C 0.69092 0.13569 0.47878 0.0
H571 H 0.6312 0.12308 0.45486 0.0
C572 C 0.61879 0.07182 0.5724 0.0
C573 C 0.59864 0.07142 0.56841 0.0
C574 C 0.63755 0.08931 0.55572 0.0
C575 C 0.64792 0.12704 0.46304 0.0
H576 H 0.75208 0.18035 0.3724 0.0
H577 H 0.72879 0.1691 0.43793 0.0
H578 H 0.65741 0.13982 0.3971 0.0
H579 H 0.58322 0.09083 0.55164 0.0
H580 H 0.61624 0.12197 0.52488 0.0
H581 H 0.68139 0.12302 0.54508 0.0
C582 C 0.7215 0.16161 0.40384 0.0
C583 C 0.6629 0.13625 0.42925 0.0
C584 C 0.73483 0.16802 0.36642 0.0
C585 C 0.59839 0.0904 0.55401 0.0
C586 C 0.6173 0.10815 0.53826 0.0
C587 C 0.67596 0.1267 0.51301 0.0
C588 C 0.69889 0.14629 0.39691 0.0
C589 C 0.68428 0.13978 0.43586 0.0
C590 C 0.63665 0.107 0.53561 0.0
C591 C 0.65399 0.12139 0.50483 0.0
H592 H 0.69599 0.13635 0.28051 0.0
H593 H 0.67287 0.12466 0.34555 0.0
H594 H 0.70733 0.13836 0.48515 0.0
H595 H 0.61967 0.0576 0.58401 0.0
H596 H 0.65207 0.08773 0.55468 0.0
C597 C 0.54268 0.70472 0.25448 0.0
C598 C 0.55675 0.71094 0.21809 0.0
C599 C 0.53984 0.68719 0.28103 0.0
C600 C 0.54685 0.63762 0.28098 0.0
H601 H 0.54772 0.64607 0.41373 0.0
C602 C 0.53209 0.56866 0.40637 0.0
C603 C 0.54614 0.57583 0.44666 0.0
C604 C 0.53227 0.58421 0.37677 0.0
C605 C 0.54751 0.64348 0.3767 0.0
H606 H 0.57842 0.70325 0.18028 0.0
H607 H 0.57382 0.67302 0.22718 0.0
H608 H 0.5501 0.67498 0.36536 0.0
H609 H 0.57184 0.60504 0.48654 0.0
H610 H 0.57218 0.63185 0.43508 0.0
H611 H 0.54482 0.6063 0.29262 0.0
C612 C 0.56485 0.68156 0.235 0.0
C613 C 0.54862 0.65994 0.34895 0.0
C614 C 0.56773 0.6991 0.20855 0.0
C615 C 0.56064 0.59883 0.45608 0.0
C616 C 0.56076 0.61429 0.4267 0.0
C617 C 0.54566 0.62109 0.30879 0.0
C618 C 0.55094 0.67545 0.27165 0.0
C619 C 0.54855 0.65733 0.3008 0.0
C620 C 0.54642 0.60722 0.38702 0.0
C621 C 0.54628 0.62399 0.35701 0.0
H622 H 0.53405 0.71356 0.26279 0.0
H623 H 0.52885 0.68276 0.30878 0.0
H624 H 0.5465 0.63501 0.24393 0.0
H625 H 0.52072 0.55109 0.39805 0.0
H626 H 0.52098 0.57827 0.34647 0.0
C627 C 0.84285 0.55238 0.35475 0.0
C628 C 0.84187 0.54029 0.31378 0.0
C629 C 0.84934 0.54774 0.397 0.0
C630 C 0.85566 0.50467 0.45462 0.0
H631 H 0.90831 0.55382 0.51623 0.0
C632 C 0.92634 0.49623 0.52476 0.0
C633 C 0.94206 0.51232 0.55724 0.0
C634 C 0.90724 0.49664 0.51248 0.0
C635 C 0.8932 0.53991 0.50075 0.0
H636 H 0.84741 0.51418 0.28525 0.0
H637 H 0.85813 0.50585 0.35866 0.0
H638 H 0.88738 0.56134 0.45873 0.0
H639 H 0.94861 0.53947 0.60701 0.0
H640 H 0.91507 0.53996 0.58591 0.0
H641 H 0.86207 0.48311 0.49482 0.0
C642 C 0.85354 0.51863 0.35823 0.0
C643 C 0.88125 0.54428 0.46758 0.0
C644 C 0.84743 0.52346 0.31612 0.0
C645 C 0.93701 0.52706 0.58125 0.0
C646 C 0.91782 0.52742 0.56904 0.0
C647 C 0.86746 0.50029 0.48811 0.0
C648 C 0.85459 0.53071 0.39904 0.0
C649 C 0.86315 0.52661 0.44243 0.0
C650 C 0.90339 0.51308 0.53261 0.0
C651 C 0.88712 0.51778 0.50946 0.0
H652 H 0.83841 0.56525 0.3543 0.0
H653 H 0.85019 0.55739 0.42805 0.0
H654 H 0.84147 0.49078 0.43614 0.0
H655 H 0.92954 0.48439 0.50611 0.0
H656 H 0.89657 0.48532 0.48421 0.0
C657 C 0.32197 0.84844 0.27889 0.0
C658 C 0.31912 0.86089 0.24507 0.0
C659 C 0.33566 0.85911 0.31859 0.0
C660 C 0.36239 0.91274 0.38921 0.0
H661 H 0.40356 0.89422 0.4301 0.0
C662 C 0.44459 0.97129 0.4853 0.0
C663 C 0.45306 0.96355 0.51982 0.0
C664 C 0.42465 0.95692 0.46125 0.0
C665 C 0.39182 0.89927 0.41984 0.0
H666 H 0.32846 0.89426 0.22623 0.0
H667 H 0.35263 0.91298 0.29524 0.0
H668 H 0.37608 0.87262 0.36738 0.0
H669 H 0.44683 0.93499 0.55808 0.0
H670 H 0.41176 0.90939 0.51479 0.0
H671 H 0.37878 0.93994 0.44036 0.0
C672 C 0.34397 0.89492 0.29147 0.0
C673 C 0.37613 0.88695 0.38377 0.0
C674 C 0.33025 0.88424 0.25179 0.0
C675 C 0.44065 0.94131 0.53148 0.0
C676 C 0.4207 0.92671 0.50668 0.0
C677 C 0.37809 0.92506 0.42514 0.0
C678 C 0.34678 0.88248 0.3254 0.0
C679 C 0.36168 0.89395 0.36713 0.0
C680 C 0.41275 0.93436 0.47077 0.0
C681 C 0.3934 0.91884 0.43984 0.0
H682 H 0.3132 0.83037 0.27522 0.0
H683 H 0.33725 0.84903 0.34429 0.0
H684 H 0.35114 0.91825 0.37797 0.0
H685 H 0.45371 0.98843 0.47597 0.0
H686 H 0.41911 0.96327 0.43351 0.0
C687 C 0.45771 0.30627 0.28184 0.0
C688 C 0.477 0.30496 0.2806 0.0
C689 C 0.45812 0.3249 0.30291 0.0
C690 C 0.49306 0.38372 0.33929 0.0
H691 H 0.45422 0.37102 0.43885 0.0
C692 C 0.50804 0.44826 0.48652 0.0
C693 C 0.49035 0.4455 0.51176 0.0
C694 C 0.50465 0.43331 0.44933 0.0
C695 C 0.46477 0.37502 0.4104 0.0
H696 H 0.51197 0.32254 0.2997 0.0
H697 H 0.5127 0.3554 0.33573 0.0
H698 H 0.45188 0.34047 0.3906 0.0
H699 H 0.45504 0.42669 0.51526 0.0
H700 H 0.44887 0.40129 0.44875 0.0
H701 H 0.50596 0.4183 0.35883 0.0
C702 C 0.49731 0.34187 0.32027 0.0
C703 C 0.46351 0.35743 0.38301 0.0
C704 C 0.49686 0.32306 0.29973 0.0
C705 C 0.46899 0.42885 0.49679 0.0
C706 C 0.46552 0.41424 0.4589 0.0
C707 C 0.49408 0.40141 0.3662 0.0
C708 C 0.47789 0.34277 0.32247 0.0
C709 C 0.47796 0.36162 0.34797 0.0
C710 C 0.48341 0.4156 0.43612 0.0
C711 C 0.4803 0.39726 0.40286 0.0
H712 H 0.44224 0.29294 0.26627 0.0
H713 H 0.44298 0.32535 0.30397 0.0
H714 H 0.50421 0.38728 0.31202 0.0
H715 H 0.5247 0.46099 0.49745 0.0
H716 H 0.51888 0.43487 0.43302 0.0
C717 C 0.58421 0.89582 0.97857 0.0
C718 C 0.56886 0.88645 0.01233 0.0
C719 C 0.58138 0.90803 0.94477 0.0
C720 C 0.53697 0.90772 0.87948 0.0
H721 H 0.58225 0.96167 0.8307 0.0
C722 C 0.51983 0.94624 0.72194 0.0
C723 C 0.5367 0.95687 0.69186 0.0
C724 C 0.52366 0.93863 0.76304 0.0
C725 C 0.56949 0.94642 0.84352 0.0
H726 H 0.53964 0.88442 0.0394 0.0
H727 H 0.5344 0.9053 0.97929 0.0
H728 H 0.59013 0.94895 0.90215 0.0
H729 H 0.57045 0.96642 0.67994 0.0
H730 H 0.5768 0.95223 0.75037 0.0
H731 H 0.51659 0.90446 0.82011 0.0
C732 C 0.54853 0.903 0.97914 0.0
C733 C 0.57397 0.93931 0.88465 0.0
C734 C 0.55154 0.89105 0.01345 0.0
C735 C 0.5571 0.95849 0.70246 0.0
C736 C 0.56085 0.95063 0.74326 0.0
C737 C 0.53256 0.91465 0.83805 0.0
C738 C 0.56302 0.91091 0.94366 0.0
C739 C 0.55779 0.91983 0.90282 0.0
C740 C 0.54435 0.94109 0.7746 0.0
C741 C 0.54883 0.93398 0.81932 0.0
H742 H 0.59752 0.89233 0.97591 0.0
H743 H 0.59269 0.91382 0.91757 0.0
H744 H 0.52434 0.89238 0.89235 0.0
H745 H 0.50375 0.94419 0.71431 0.0
H746 H 0.51054 0.93139 0.78628 0.0
C747 C 0.70541 0.51726 0.89503 0.0
C748 C 0.72791 0.5331 0.89565 0.0
C749 C 0.69135 0.51418 0.85693 0.0
C750 C 0.68502 0.54518 0.76609 0.0
H751 H 0.63467 0.48757 0.72664 0.0
C752 C 0.6003 0.5315 0.71897 0.0
C753 C 0.58692 0.51603 0.68297 0.0
C754 C 0.62111 0.5348 0.73031 0.0
C755 C 0.64889 0.50374 0.73635 0.0
H756 H 0.75335 0.55744 0.85552 0.0
H757 H 0.72856 0.55242 0.78935 0.0
H758 H 0.6647 0.48945 0.77516 0.0
H759 H 0.58496 0.49255 0.62901 0.0
H760 H 0.62151 0.49772 0.65019 0.0
H761 H 0.6686 0.55949 0.72958 0.0
C762 C 0.72191 0.54243 0.81856 0.0
C763 C 0.66595 0.50482 0.76452 0.0
C764 C 0.73606 0.54539 0.8566 0.0
C765 C 0.59506 0.50456 0.65695 0.0
C766 C 0.61586 0.50749 0.66907 0.0
C767 C 0.66789 0.5441 0.73826 0.0
C768 C 0.69936 0.52697 0.81859 0.0
C769 C 0.68375 0.52558 0.78118 0.0
C770 C 0.62888 0.5224 0.70639 0.0
C771 C 0.64927 0.5234 0.72473 0.0
H772 H 0.69845 0.50777 0.92471 0.0
H773 H 0.67398 0.50246 0.85842 0.0
H774 H 0.69847 0.56142 0.77846 0.0
H775 H 0.5944 0.54068 0.73926 0.0
H776 H 0.63063 0.54618 0.75956 0.0
C777 C 0.19479 0.69773 0.89122 0.0
C778 C 0.18802 0.71241 0.90865 0.0
C779 C 0.17936 0.67653 0.87183 0.0
C780 C 0.12012 0.63502 0.87184 0.0
H781 H 0.12985 0.61001 0.75961 0.0
C782 C 0.05213 0.57221 0.74339 0.0
C783 C 0.05493 0.55603 0.71895 0.0
C784 C 0.06829 0.58723 0.77598 0.0
C785 C 0.1271 0.61652 0.7916 0.0
H786 H 0.15973 0.71646 0.91826 0.0
H787 H 0.13308 0.68002 0.88302 0.0
H788 H 0.159 0.64564 0.79467 0.0
H789 H 0.07594 0.54166 0.71166 0.0
H790 H 0.10457 0.56834 0.76845 0.0
H791 H 0.08782 0.60639 0.86737 0.0
C792 C 0.15024 0.68465 0.88517 0.0
C793 C 0.14376 0.63698 0.81157 0.0
C794 C 0.16561 0.70576 0.90454 0.0
C795 C 0.07339 0.55398 0.73016 0.0
C796 C 0.0898 0.56931 0.76233 0.0
C797 C 0.10344 0.61465 0.85172 0.0
C798 C 0.15687 0.6696 0.86955 0.0
C799 C 0.14021 0.64677 0.85114 0.0
C800 C 0.0877 0.58653 0.78429 0.0
C801 C 0.10656 0.60552 0.81071 0.0
H802 H 0.21196 0.70241 0.89375 0.0
H803 H 0.185 0.66533 0.86005 0.0
H804 H 0.11708 0.64184 0.90304 0.0
H805 H 0.03796 0.57403 0.73553 0.0
H806 H 0.06626 0.60039 0.79214 0.0
C807 C 0.42767 0.10594 0.96243 0.0
C808 C 0.42622 0.11027 0.00922 0.0
C809 C 0.42715 0.08631 0.94756 0.0
C810 C 0.41763 0.03932 0.92329 0.0
H811 H 0.46461 0.03362 0.98306 0.0
C812 C 0.44724 0.98766 0.83094 0.0
C813 C 0.46968 0.00051 0.82412 0.0
C814 C 0.43829 0.99359 0.86702 0.0
C815 C 0.45121 0.03475 0.96647 0.0
H816 H 0.42261 0.09759 0.07719 0.0
H817 H 0.42202 0.06321 0.05109 0.0
H818 H 0.45344 0.05876 0.01831 0.0
H819 H 0.50083 0.02827 0.85086 0.0
H820 H 0.48518 0.03924 0.91349 0.0
H821 H 0.41633 0.0167 0.86984 0.0
C822 C 0.42326 0.07486 0.02599 0.0
C823 C 0.44472 0.04899 0.98675 0.0
C824 C 0.42344 0.09437 0.04077 0.0
C825 C 0.48348 0.01811 0.85601 0.0
C826 C 0.47449 0.02427 0.89188 0.0
C827 C 0.42401 0.02504 0.90318 0.0
C828 C 0.42551 0.07088 0.9794 0.0
C829 C 0.42855 0.0521 0.96419 0.0
C830 C 0.45162 0.01279 0.89607 0.0
C831 C 0.44151 0.02334 0.92354 0.0
H832 H 0.42993 0.11808 0.93769 0.0
H833 H 0.42922 0.08377 0.91152 0.0
H834 H 0.40502 0.04134 0.90548 0.0
H835 H 0.4364 0.97395 0.8065 0.0
H836 H 0.4207 0.98421 0.86995 0.0
C837 C 0.3069 0.46768 0.91054 0.0
C838 C 0.31375 0.47908 0.95443 0.0
C839 C 0.32228 0.47051 0.87833 0.0
C840 C 0.37975 0.50829 0.84989 0.0
H841 H 0.37438 0.45537 0.78643 0.0
C842 C 0.45225 0.50746 0.76486 0.0
C843 C 0.448 0.49266 0.72627 0.0
C844 C 0.43501 0.50762 0.78701 0.0
C845 C 0.37597 0.47041 0.80305 0.0
H846 H 0.34235 0.50223 -0.0013 0.0
H847 H 0.36894 0.50736 0.9425 0.0
H848 H 0.34579 0.45197 0.83575 0.0
H849 H 0.42219 0.46748 0.67894 0.0
H850 H 0.39223 0.46821 0.71675 0.0
H851 H 0.41002 0.52674 0.81759 0.0
C852 C 0.35167 0.49648 0.93272 0.0
C853 C 0.35955 0.46843 0.83149 0.0
C854 C 0.33635 0.49355 0.96497 0.0
C855 C 0.42612 0.479 0.70873 0.0
C856 C 0.40888 0.47926 0.73073 0.0
C857 C 0.39611 0.5103 0.82123 0.0
C858 C 0.34486 0.4849 0.88911 0.0
C859 C 0.36141 0.48728 0.85587 0.0
C860 C 0.41304 0.4931 0.77099 0.0
C861 C 0.39464 0.49135 0.79799 0.0
H862 H 0.28964 0.45661 0.90095 0.0
H863 H 0.31648 0.4615 0.84487 0.0
H864 H 0.38151 0.5232 0.8676 0.0
H865 H 0.46886 0.51822 0.77944 0.0
H866 H 0.43893 0.51839 0.81807 0.0
C867 C 0.85989 0.29697 0.94474 0.0
C868 C 0.86508 0.28481 0.97524 0.0
C869 C 0.8763 0.31398 0.92137 0.0
C870 C 0.93242 0.33527 0.88417 0.0
H871 H 0.93068 0.38995 0.87253 0.0
C872 C 0.98576 0.42872 0.8098 0.0
C873 C 0.98958 0.42251 0.766 0.0
C874 C 0.97284 0.41246 0.83948 0.0
C875 C 0.93159 0.37492 0.876 0.0
H876 H 0.89159 0.28097 0.0051 0.0
H877 H 0.92023 0.3106 0.96405 0.0
H878 H 0.90326 0.36035 0.91558 0.0
H879 H 0.98371 0.3943 0.72013 0.0
H880 H 0.96115 0.36609 0.77161 0.0
H881 H 0.96081 0.3499 0.84463 0.0
C882 C 0.90342 0.3068 0.95785 0.0
C883 C 0.91569 0.35783 0.90011 0.0
C884 C 0.887 0.28979 0.98125 0.0
C885 C 0.98104 0.39972 0.7535 0.0
C886 C 0.9682 0.3835 0.78318 0.0
C887 C 0.94832 0.35236 0.85996 0.0
C888 C 0.89828 0.31923 0.92799 0.0
C889 C 0.91576 0.33771 0.90398 0.0
C890 C 0.96356 0.38966 0.82609 0.0
C891 C 0.94793 0.37227 0.85516 0.0
H892 H 0.84311 0.29333 0.93891 0.0
H893 H 0.87175 0.32296 0.89791 0.0
H894 H 0.93287 0.31993 0.88637 0.0
H895 H 0.99214 0.44612 0.82063 0.0
H896 H 0.96979 0.41772 0.87263 0.0
C897 C 0.84748 0.51596 0.91014 0.0
C898 C 0.84526 0.53491 0.90598 0.0
C899 C 0.86052 0.51175 0.88098 0.0
C900 C 0.90702 0.54004 0.80724 0.0
H901 H 0.89019 0.47946 0.76523 0.0
C902 C 0.96176 0.52044 0.69314 0.0
C903 C 0.9646 0.50268 0.70583 0.0
C904 C 0.94564 0.52388 0.71229 0.0
C905 C 0.89519 0.49646 0.77687 0.0
H906 H 0.85475 0.56407 0.8671 0.0
H907 H 0.87752 0.55666 0.81593 0.0
H908 H 0.8648 0.48647 0.80785 0.0
H909 H 0.95309 0.47472 0.74893 0.0
H910 H 0.92501 0.4807 0.78272 0.0
H911 H 0.93754 0.54998 0.77682 0.0
C912 C 0.86932 0.54519 0.84221 0.0
C913 C 0.88064 0.50049 0.80134 0.0
C914 C 0.85625 0.54942 0.87148 0.0
C915 C 0.95102 0.48838 0.73807 0.0
C916 C 0.93487 0.49174 0.75717 0.0
C917 C 0.92157 0.536 0.78268 0.0
C918 C 0.87174 0.52636 0.84681 0.0
C919 C 0.88649 0.52229 0.81748 0.0
C920 C 0.93211 0.50968 0.74486 0.0
C921 C 0.91596 0.51413 0.76778 0.0
H922 H 0.83969 0.5047 0.93699 0.0
H923 H 0.86233 0.49734 0.88621 0.0
H924 H 0.91222 0.557 0.81962 0.0
H925 H 0.97267 0.53232 0.67019 0.0
H926 H 0.94398 0.53786 0.70205 0.0
C927 C 0.30463 0.82077 0.89395 0.0
C928 C 0.3075 0.83481 0.93302 0.0
C929 C 0.31832 0.82903 0.85746 0.0
C930 C 0.37333 0.87115 0.83339 0.0
H931 H 0.35113 0.86649 0.70694 0.0
C932 C 0.43383 0.90918 0.69691 0.0
C933 C 0.43184 0.9263 0.67694 0.0
C934 C 0.41616 0.89229 0.71781 0.0
C935 C 0.3575 0.86766 0.74201 0.0
H936 H 0.32678 0.86835 0.96472 0.0
H937 H 0.35111 0.88268 0.90137 0.0
H938 H 0.3253 0.84933 0.76733 0.0
H939 H 0.40879 0.93709 0.65682 0.0
H940 H 0.37796 0.90755 0.69332 0.0
H941 H 0.40539 0.88975 0.80891 0.0
C942 C 0.33816 0.86537 0.89889 0.0
C943 C 0.34278 0.85786 0.77643 0.0
C944 C 0.32423 0.85723 0.93496 0.0
C945 C 0.41096 0.9243 0.67234 0.0
C946 C 0.39325 0.90735 0.6933 0.0
C947 C 0.38797 0.88057 0.79907 0.0
C948 C 0.33535 0.85134 0.85988 0.0
C949 C 0.35062 0.85997 0.82255 0.0
C950 C 0.39616 0.89213 0.71887 0.0
C951 C 0.38025 0.87926 0.75314 0.0
H952 H 0.29167 0.80346 0.89152 0.0
H953 H 0.31589 0.8179 0.82779 0.0
H954 H 0.37976 0.87287 0.86864 0.0
H955 H 0.44958 0.90996 0.70026 0.0
H956 H 0.41868 0.88042 0.73639 0.0
C957 C 0.45269 0.30903 0.02279 0.0
C958 C 0.4692 0.31175 0.0553 0.0
C959 C 0.45528 0.3269 0.9979 0.0
C960 C 0.49907 0.37981 0.95877 0.0
H961 H 0.44982 0.38582 0.91424 0.0
C962 C 0.50779 0.44731 0.83612 0.0
C963 C 0.49286 0.43904 0.79718 0.0
C964 C 0.50506 0.43382 0.87266 0.0
C965 C 0.46371 0.38432 0.92647 0.0
H966 H 0.50074 0.33553 0.08937 0.0
H967 H 0.50512 0.36697 0.04655 0.0
H968 H 0.44442 0.35907 0.97161 0.0
H969 H 0.46321 0.41021 0.76641 0.0
H970 H 0.45846 0.38682 0.83019 0.0
H971 H 0.51827 0.40499 0.91326 0.0
C972 C 0.49041 0.35089 0.0394 0.0
C973 C 0.46063 0.36898 0.95921 0.0
C974 C 0.48789 0.33294 0.06404 0.0
C975 C 0.47507 0.41709 0.79576 0.0
C976 C 0.47221 0.40373 0.83246 0.0
C977 C 0.50218 0.3953 0.92636 0.0
C978 C 0.47437 0.34795 0.00524 0.0
C979 C 0.47816 0.36616 0.97494 0.0
C980 C 0.48719 0.41194 0.8712 0.0
C981 C 0.48442 0.39732 0.90913 0.0
H982 H 0.43824 0.29281 0.01495 0.0
H983 H 0.44274 0.3239 0.9714 0.0
H984 H 0.51288 0.37788 0.96956 0.0
H985 H 0.52166 0.46415 0.83829 0.0
H986 H 0.5168 0.44055 0.90222 0.0
C987 C 0.17194 0.45664 0.93641 0.0
C988 C 0.19497 0.46822 0.94233 0.0
C989 C 0.16141 0.45833 0.89649 0.0
C990 C 0.16911 0.49531 0.80365 0.0
H991 H 0.11525 0.44395 0.75177 0.0
C992 C 0.09886 0.50086 0.71254 0.0
C993 C 0.08425 0.48366 0.6803 0.0
C994 C 0.117 0.50055 0.73263 0.0
C995 C 0.13051 0.45842 0.76499 0.0
H996 H 0.22499 0.4903 0.91034 0.0
H997 H 0.20651 0.49342 0.84066 0.0
H998 H 0.13748 0.4391 0.81099 0.0
H999 H 0.0787 0.45409 0.63989 0.0
H1000 H 0.11057 0.45371 0.67469 0.0
H1001 H 0.16184 0.5147 0.75826 0.0
C1002 C 0.19665 0.48316 0.86719 0.0
C1003 C 0.14309 0.45566 0.79948 0.0
C1004 C 0.20722 0.48143 0.90716 0.0
C1005 C 0.08949 0.46746 0.66498 0.0
C1006 C 0.10766 0.46714 0.68519 0.0
C1007 C 0.1565 0.49808 0.76909 0.0
C1008 C 0.17362 0.47165 0.86147 0.0
C1009 C 0.16214 0.47417 0.82026 0.0
C1010 C 0.12097 0.48306 0.72086 0.0
C1011 C 0.13668 0.47976 0.75039 0.0
H1012 H 0.16199 0.44665 0.96312 0.0
H1013 H 0.14364 0.44962 0.89363 0.0
H1014 H 0.1837 0.50991 0.81898 0.0
H1015 H 0.09548 0.51376 0.72472 0.0
H1016 H 0.12683 0.51307 0.76 0.0
C1017 C 0.71709 0.16273 0.91463 0.0
C1018 C 0.73647 0.16156 0.91699 0.0
C1019 C 0.69987 0.14914 0.88247 0.0
C1020 C 0.66879 0.12483 0.79905 0.0
H1021 H 0.65066 0.06193 0.79496 0.0
C1022 C 0.58916 0.058 0.69784 0.0
C1023 C 0.57592 0.03906 0.72178 0.0
C1024 C 0.61068 0.07314 0.71452 0.0
C1025 C 0.65555 0.07945 0.79567 0.0
H1026 H 0.75316 0.1456 0.88603 0.0
H1027 H 0.72279 0.12151 0.82999 0.0
H1028 H 0.68532 0.08909 0.83597 0.0
H1029 H 0.57495 0.02108 0.78183 0.0
H1030 H 0.61226 0.0477 0.81142 0.0
H1031 H 0.63856 0.11512 0.76062 0.0
C1032 C 0.72103 0.13302 0.85335 0.0
C1033 C 0.67552 0.09503 0.81867 0.0
C1034 C 0.73839 0.14678 0.88545 0.0
C1035 C 0.58468 0.03555 0.76265 0.0
C1036 C 0.60617 0.05067 0.77931 0.0
C1037 C 0.64885 0.10926 0.77596 0.0
C1038 C 0.70148 0.13386 0.85198 0.0
C1039 C 0.68207 0.11782 0.82165 0.0
C1040 C 0.61939 0.06969 0.75556 0.0
C1041 C 0.64174 0.08635 0.77506 0.0
H1042 H 0.71472 0.17344 0.93905 0.0
H1043 H 0.68488 0.14989 0.88298 0.0
H1044 H 0.67353 0.14232 0.80034 0.0
H1045 H 0.58281 0.06132 0.6666 0.0
H1046 H 0.62048 0.08758 0.6953 0.0
C1047 C 0.53901 0.69647 0.88602 0.0
C1048 C 0.5564 0.71634 0.87128 0.0
C1049 C 0.53767 0.67605 0.87521 0.0
C1050 C 0.57274 0.65289 0.84926 0.0
H1051 H 0.51976 0.60156 0.79429 0.0
C1052 C 0.57212 0.58693 0.72829 0.0
C1053 C 0.55303 0.56596 0.72106 0.0
C1054 C 0.57346 0.60223 0.76257 0.0
C1055 C 0.53453 0.61545 0.811 0.0
H1056 H 0.58509 0.73014 0.83102 0.0
H1057 H 0.58279 0.69431 0.81241 0.0
H1058 H 0.51909 0.63521 0.81823 0.0
H1059 H 0.52178 0.54335 0.7484 0.0
H1060 H 0.52431 0.57001 0.80875 0.0
H1061 H 0.58838 0.63339 0.84091 0.0
C1062 C 0.57048 0.69475 0.83301 0.0
C1063 C 0.53416 0.63479 0.82423 0.0
C1064 C 0.5717 0.71517 0.84334 0.0
C1065 C 0.53655 0.55953 0.75252 0.0
C1066 C 0.53794 0.57483 0.78701 0.0
C1067 C 0.57308 0.63347 0.83644 0.0
C1068 C 0.5538 0.67517 0.84998 0.0
C1069 C 0.55347 0.65391 0.84169 0.0
C1070 C 0.55578 0.59676 0.79039 0.0
C1071 C 0.55421 0.61488 0.81537 0.0
H1072 H 0.52718 0.69675 0.90839 0.0
H1073 H 0.52462 0.66112 0.88848 0.0
H1074 H 0.5877 0.66734 0.86382 0.0
H1075 H 0.58532 0.59223 0.70522 0.0
H1076 H 0.58747 0.61897 0.76417 0.0
C1077 C 0.50323 0.17156 0.33448 0.0
C1078 C 0.48857 0.17927 0.34391 0.0
C1079 C 0.50587 0.15753 0.36395 0.0
C1080 C 0.47486 0.11491 0.44196 0.0
H1081 H 0.53082 0.1216 0.4842 0.0
C1082 C 0.47979 0.05677 0.57071 0.0
C1083 C 0.4958 0.05045 0.56637 0.0
C1084 C 0.47981 0.07303 0.54397 0.0
C1085 C 0.51505 0.1193 0.47211 0.0
H1086 H 0.46617 0.1792 0.39334 0.0
H1087 H 0.4704 0.15418 0.44411 0.0
H1088 H 0.52994 0.15 0.43834 0.0
H1089 H 0.52453 0.05652 0.53034 0.0
H1090 H 0.52406 0.0843 0.48227 0.0
H1091 H 0.45984 0.08399 0.47405 0.0
C1092 C 0.47974 0.15901 0.41369 0.0
C1093 C 0.51459 0.13564 0.44616 0.0
C1094 C 0.4773 0.17329 0.38456 0.0
C1095 C 0.51184 0.0608 0.53438 0.0
C1096 C 0.51171 0.07695 0.50714 0.0
C1097 C 0.47531 0.09846 0.46729 0.0
C1098 C 0.49371 0.15066 0.40316 0.0
C1099 C 0.49447 0.13367 0.43121 0.0
C1100 C 0.49568 0.08327 0.51165 0.0
C1101 C 0.49539 0.1005 0.4831 0.0
H1102 H 0.51188 0.17542 0.30311 0.0
H1103 H 0.51661 0.15116 0.35485 0.0
H1104 H 0.45913 0.11276 0.43 0.0
H1105 H 0.4673 0.04938 0.5953 0.0
H1106 H 0.46751 0.07778 0.54925 0.0
C1107 C 0.31778 0.44493 0.35384 0.0
C1108 C 0.3042 0.45437 0.35626 0.0
C1109 C 0.3317 0.44725 0.3916 0.0
C1110 C 0.36266 0.48717 0.48739 0.0
H1111 H 0.38102 0.44419 0.51277 0.0
C1112 C 0.45132 0.51071 0.52926 0.0
C1113 C 0.45624 0.49797 0.55843 0.0
C1114 C 0.42962 0.50537 0.52004 0.0
C1115 C 0.37584 0.45628 0.50707 0.0
H1116 H 0.29329 0.47212 0.40137 0.0
H1117 H 0.31793 0.47645 0.46727 0.0
H1118 H 0.3467 0.43216 0.46754 0.0
H1119 H 0.44258 0.46978 0.60091 0.0
H1120 H 0.40449 0.46051 0.58543 0.0
H1121 H 0.3923 0.5115 0.52512 0.0
C1122 C 0.31792 0.46747 0.43592 0.0
C1123 C 0.3563 0.44941 0.48077 0.0
C1124 C 0.30392 0.46507 0.39816 0.0
C1125 C 0.43923 0.4803 0.57964 0.0
C1126 C 0.41744 0.47481 0.57019 0.0
C1127 C 0.38222 0.49404 0.5136 0.0
C1128 C 0.33238 0.4591 0.43259 0.0
C1129 C 0.35001 0.465 0.46899 0.0
C1130 C 0.4124 0.48696 0.53934 0.0
C1131 C 0.38947 0.47886 0.52195 0.0
H1132 H 0.31859 0.43682 0.32196 0.0
H1133 H 0.34288 0.44091 0.38766 0.0
H1134 H 0.35831 0.49961 0.47879 0.0
H1135 H 0.46422 0.52432 0.51226 0.0
H1136 H 0.42627 0.51482 0.49551 0.0
C1137 C 0.87873 0.33997 0.20108 0.0
C1138 C 0.88076 0.32083 0.20381 0.0
C1139 C 0.89373 0.35994 0.22574 0.0
C1140 C 0.9477 0.38924 0.29163 0.0
H1141 H 0.91896 0.41045 0.37411 0.0
C1142 C 0.98394 0.42827 0.47184 0.0
C1143 C 0.98041 0.44493 0.49177 0.0
C1144 C 0.97464 0.41837 0.42815 0.0
C1145 C 0.92738 0.4052 0.35065 0.0
H1146 H 0.90086 0.3081 0.23283 0.0
H1147 H 0.92713 0.34291 0.27494 0.0
H1148 H 0.89764 0.38346 0.31021 0.0
H1149 H 0.96483 0.46476 0.48072 0.0
H1150 H 0.94849 0.44736 0.40388 0.0
H1151 H 0.97729 0.41032 0.33313 0.0
C1152 C 0.91401 0.34252 0.25359 0.0
C1153 C 0.91514 0.38971 0.31402 0.0
C1154 C 0.89892 0.32253 0.22934 0.0
C1155 C 0.96785 0.45196 0.46633 0.0
C1156 C 0.95844 0.44195 0.42244 0.0
C1157 C 0.95997 0.40482 0.32807 0.0
C1158 C 0.9112 0.36122 0.25314 0.0
C1159 C 0.92502 0.38093 0.28529 0.0
C1160 C 0.96154 0.42485 0.40313 0.0
C1161 C 0.94974 0.41225 0.35913 0.0
H1162 H 0.86518 0.33936 0.18095 0.0
H1163 H 0.89133 0.37419 0.22442 0.0
H1164 H 0.95579 0.38299 0.26953 0.0
H1165 H 0.99365 0.42254 0.49025 0.0
H1166 H 0.97706 0.405 0.41475 0.0
C1167 C 0.58381 0.87599 0.22842 0.0
C1168 C 0.56675 0.85422 0.23482 0.0
C1169 C 0.58286 0.89451 0.24582 0.0
C1170 C 0.54461 0.91281 0.27302 0.0
H1171 H 0.59042 0.95723 0.35874 0.0
C1172 C 0.53097 0.96995 0.39727 0.0
C1173 C 0.54921 0.98912 0.418 0.0
C1174 C 0.5338 0.95701 0.36322 0.0
C1175 C 0.57774 0.94546 0.33374 0.0
H1176 H 0.53579 0.83501 0.26636 0.0
H1177 H 0.53392 0.86755 0.29555 0.0
H1178 H 0.59439 0.9269 0.32505 0.0
H1179 H 0.58419 0.01137 0.41702 0.0
H1180 H 0.58907 0.98976 0.35496 0.0
H1181 H 0.52797 0.93132 0.28105 0.0
C1182 C 0.54792 0.87005 0.27683 0.0
C1183 C 0.57997 0.92793 0.31494 0.0
C1184 C 0.54904 0.85149 0.2602 0.0
C1185 C 0.56993 0.9966 0.40109 0.0
C1186 C 0.57271 0.98401 0.36614 0.0
C1187 C 0.54256 0.93062 0.29105 0.0
C1188 C 0.56467 0.89164 0.26916 0.0
C1189 C 0.56315 0.91117 0.28555 0.0
C1190 C 0.55493 0.96329 0.349 0.0
C1191 C 0.55879 0.94682 0.32279 0.0
H1192 H 0.59746 0.87882 0.20815 0.0
H1193 H 0.59595 0.91108 0.23957 0.0
H1194 H 0.53162 0.90017 0.24969 0.0
H1195 H 0.51491 0.96378 0.41056 0.0
H1196 H 0.51969 0.94115 0.3513 0.0
C1197 C 0.68176 0.52105 0.19756 0.0
C1198 C 0.70316 0.53952 0.1993 0.0
C1199 C 0.66842 0.51748 0.23449 0.0
C1200 C 0.67102 0.53271 0.35961 0.0
H1201 H 0.60899 0.51139 0.33561 0.0
C1202 C 0.61401 0.53544 0.49627 0.0
C1203 C 0.5918 0.51855 0.49257 0.0
C1204 C 0.6285 0.53579 0.46409 0.0
C1205 C 0.62621 0.51698 0.34304 0.0
H1206 H 0.72722 0.56869 0.24168 0.0
H1207 H 0.70382 0.56281 0.30525 0.0
H1208 H 0.63197 0.51711 0.27136 0.0
H1209 H 0.56804 0.48753 0.45495 0.0
H1210 H 0.59334 0.48795 0.39963 0.0
H1211 H 0.66521 0.53298 0.43146 0.0
C1212 C 0.69741 0.55091 0.27558 0.0
C1213 C 0.63942 0.52031 0.30608 0.0
C1214 C 0.71072 0.55449 0.23867 0.0
C1215 C 0.58495 0.50097 0.45853 0.0
C1216 C 0.59942 0.5013 0.4265 0.0
C1217 C 0.65778 0.52944 0.39666 0.0
C1218 C 0.67613 0.53226 0.27417 0.0
C1219 C 0.66203 0.52831 0.31379 0.0
C1220 C 0.62111 0.5192 0.42767 0.0
C1221 C 0.6352 0.52158 0.38881 0.0
H1222 H 0.67537 0.50922 0.16778 0.0
H1223 H 0.65221 0.50283 0.23229 0.0
H1224 H 0.6883 0.53854 0.3669 0.0
H1225 H 0.61988 0.54925 0.52201 0.0
H1226 H 0.6451 0.54982 0.46607 0.0
C1227 C 0.12823 0.71584 0.26326 0.0
C1228 C 0.13819 0.71154 0.22646 0.0
C1229 C 0.11174 0.69814 0.28522 0.0
C1230 C 0.09266 0.63896 0.3032 0.0
H1231 H 0.04494 0.64113 0.36101 0.0
C1232 C 0.03195 0.56695 0.40555 0.0
C1233 C 0.02958 0.57355 0.4503 0.0
C1234 C 0.04169 0.58274 0.37292 0.0
C1235 C 0.05819 0.64033 0.34492 0.0
H1236 H 0.13798 0.68583 0.18133 0.0
H1237 H 0.10872 0.65492 0.21837 0.0
H1238 H 0.06844 0.67093 0.31255 0.0
H1239 H 0.03442 0.6017 0.49502 0.0
H1240 H 0.0514 0.62918 0.43802 0.0
H1241 H 0.0826 0.60854 0.33582 0.0
C1242 C 0.11404 0.6718 0.23159 0.0
C1243 C 0.07169 0.65741 0.31737 0.0
C1244 C 0.13069 0.68944 0.21021 0.0
C1245 C 0.03616 0.59608 0.46097 0.0
C1246 C 0.04572 0.61182 0.42822 0.0
C1247 C 0.07908 0.62185 0.3303 0.0
C1248 C 0.1048 0.67589 0.27023 0.0
C1249 C 0.08927 0.65706 0.29667 0.0
C1250 C 0.04905 0.60538 0.38426 0.0
C1251 C 0.0619 0.6225 0.35194 0.0
H1252 H 0.13386 0.73283 0.27627 0.0
H1253 H 0.10514 0.70191 0.31511 0.0
H1254 H 0.10632 0.63835 0.28873 0.0
H1255 H 0.02699 0.54972 0.39613 0.0
H1256 H 0.04389 0.57731 0.33908 0.0
loop_
_geom_bond_atom_site_label_1
_geom_bond_atom_site_label_2
_geom_bond_distance
_geom_bond_site_symmetry_2
_ccdc_geom_bond_type
H0 O26 0.856 . S
H1 O29 0.854 . S
H2 C37 0.930 . S
H3 C38 0.930 . S
H4 C40 0.930 . S
H5 C41 0.930 . S
H6 C43 0.931 . S
H7 C44 0.930 . S
H8 C46 0.930 . S
H9 C47 0.929 . S
H10 C49 0.930 . S
H11 C50 0.931 . S
H12 C52 0.930 . S
H13 C53 0.929 . S
H14 C55 0.931 . S
H15 C56 0.930 . S
H16 C58 0.930 . S
H17 C59 0.932 . S
H18 C61 0.930 . S
H19 C62 0.929 . S
H20 C64 0.931 . S
H21 C65 0.930 . S
H22 C67 0.929 . S
H23 C68 0.931 . S
H24 C70 0.930 . S
H25 C71 0.929 . S
O26 H0 0.856 . S
O26 C72 1.300 . S
O27 C72 1.209 . S
O28 C73 1.199 . S
O29 H1 0.854 . S
O29 C73 1.297 . S
C30 C31 1.404 . S
C30 C35 1.397 . S
C30 C36 1.492 . S
C31 C30 1.404 . S
C31 C32 1.396 . S
C31 C42 1.492 . S
C32 C31 1.396 . S
C32 C33 1.397 . S
C32 C48 1.509 . S
C33 C32 1.397 . S
C33 C34 1.412 . S
C33 C54 1.485 . S
C34 C33 1.412 . S
C34 C35 1.388 . S
C34 C60 1.490 . S
C35 C30 1.397 . S
C35 C34 1.388 . S
C35 C66 1.519 . S
C36 C30 1.492 . S
C36 C37 1.363 . S
C36 C41 1.390 . S
C37 H2 0.930 . S
C37 C36 1.363 . S
C37 C38 1.372 . S
C38 H3 0.930 . S
C38 C37 1.372 . S
C38 C39 1.383 . S
C39 C38 1.383 . S
C39 C40 1.395 . S
C40 H4 0.930 . S
C40 C39 1.395 . S
C40 C41 1.362 . S
C41 H5 0.930 . S
C41 C36 1.390 . S
C41 C40 1.362 . S
C42 C31 1.492 . S
C42 C43 1.377 . S
C42 C47 1.397 . S
C43 H6 0.931 . S
C43 C42 1.377 . S
C43 C44 1.376 . S
C44 H7 0.930 . S
C44 C43 1.376 . S
C44 C45 1.376 . S
C45 C44 1.376 . S
C45 C46 1.378 . S
C45 C72 1.486 . S
C46 H8 0.930 . S
C46 C45 1.378 . S
C46 C47 1.376 . S
C47 H9 0.929 . S
C47 C42 1.397 . S
C47 C46 1.376 . S
C48 C32 1.509 . S
C48 C49 1.391 . S
C48 C53 1.386 . S
C49 H10 0.930 . S
C49 C48 1.391 . S
C49 C50 1.375 . S
C50 H11 0.931 . S
C50 C49 1.375 . S
C50 C51 1.375 . S
C51 C50 1.375 . S
C51 C52 1.361 . S
C52 H12 0.930 . S
C52 C51 1.361 . S
C52 C53 1.399 . S
C53 H13 0.929 . S
C53 C48 1.386 . S
C53 C52 1.399 . S
C54 C33 1.485 . S
C54 C55 1.394 . S
C54 C59 1.360 . S
C55 H14 0.931 . S
C55 C54 1.394 . S
C55 C56 1.372 . S
C56 H15 0.930 . S
C56 C55 1.372 . S
C56 C57 1.397 . S
C57 C56 1.397 . S
C57 C58 1.390 . S
C57 C73 1.476 . S
C58 H16 0.930 . S
C58 C57 1.390 . S
C58 C59 1.366 . S
C59 H17 0.932 . S
C59 C54 1.360 . S
C59 C58 1.366 . S
C60 C34 1.490 . S
C60 C61 1.380 . S
C60 C65 1.386 . S
C61 H18 0.930 . S
C61 C60 1.380 . S
C61 C62 1.381 . S
C62 H19 0.929 . S
C62 C61 1.381 . S
C62 C63 1.371 . S
C63 C62 1.371 . S
C63 C64 1.380 . S
C64 H20 0.931 . S
C64 C63 1.380 . S
C64 C65 1.387 . S
C65 H21 0.930 . S
C65 C60 1.386 . S
C65 C64 1.387 . S
C66 C35 1.519 . S
C66 C67 1.377 . S
C66 C71 1.361 . S
C67 H22 0.929 . S
C67 C66 1.377 . S
C67 C68 1.386 . S
C68 H23 0.931 . S
C68 C67 1.386 . S
C68 C69 1.363 . S
C69 C68 1.363 . S
C69 C70 1.385 . S
C70 H24 0.930 . S
C70 C69 1.385 . S
C70 C71 1.396 . S
C71 H25 0.929 . S
C71 C66 1.361 . S
C71 C70 1.396 . S
C72 O26 1.300 . S
C72 O27 1.209 . S
C72 C45 1.486 . S
C73 O28 1.199 . S
C73 O29 1.297 . S
C73 C57 1.476 . S
H74 O100 0.856 . S
H75 O103 0.854 . S
H76 C111 0.930 . S
H77 C112 0.930 . S
H78 C114 0.930 . S
H79 C115 0.930 . S
H80 C117 0.931 . S
H81 C118 0.930 . S
H82 C120 0.930 . S
H83 C121 0.929 . S
H84 C123 0.930 . S
H85 C124 0.931 . S
H86 C126 0.930 . S
H87 C127 0.929 . S
H88 C129 0.931 . S
H89 C130 0.930 . S
H90 C132 0.930 . S
H91 C133 0.932 . S
H92 C135 0.930 . S
H93 C136 0.929 . S
H94 C138 0.931 . S
H95 C139 0.930 . S
H96 C141 0.929 . S
H97 C142 0.931 . S
H98 C144 0.930 . S
H99 C145 0.929 . S
O100 H74 0.856 . S
O100 C146 1.300 . S
O101 C146 1.209 . S
O102 C147 1.199 . S
O103 H75 0.854 . S
O103 C147 1.297 . S
C104 C105 1.404 . S
C104 C109 1.397 . S
C104 C110 1.492 . S
C105 C104 1.404 . S
C105 C106 1.396 . S
C105 C116 1.492 . S
C106 C105 1.396 . S
C106 C107 1.397 . S
C106 C122 1.509 . S
C107 C106 1.397 . S
C107 C108 1.412 . S
C107 C128 1.485 . S
C108 C107 1.412 . S
C108 C109 1.388 . S
C108 C134 1.490 . S
C109 C104 1.397 . S
C109 C108 1.388 . S
C109 C140 1.519 . S
C110 C104 1.492 . S
C110 C111 1.363 . S
C110 C115 1.390 . S
C111 H76 0.930 . S
C111 C110 1.363 . S
C111 C112 1.372 . S
C112 H77 0.930 . S
C112 C111 1.372 . S
C112 C113 1.383 . S
C113 C112 1.383 . S
C113 C114 1.395 . S
C114 H78 0.930 . S
C114 C113 1.395 . S
C114 C115 1.362 . S
C115 H79 0.930 . S
C115 C110 1.390 . S
C115 C114 1.362 . S
C116 C105 1.492 . S
C116 C117 1.377 . S
C116 C121 1.397 . S
C117 H80 0.931 . S
C117 C116 1.377 . S
C117 C118 1.376 . S
C118 H81 0.930 . S
C118 C117 1.376 . S
C118 C119 1.376 . S
C119 C118 1.376 . S
C119 C120 1.378 . S
C119 C146 1.486 . S
C120 H82 0.930 . S
C120 C119 1.378 . S
C120 C121 1.376 . S
C121 H83 0.929 . S
C121 C116 1.397 . S
C121 C120 1.376 . S
C122 C106 1.509 . S
C122 C123 1.391 . S
C122 C127 1.386 . S
C123 H84 0.930 . S
C123 C122 1.391 . S
C123 C124 1.375 . S
C124 H85 0.931 . S
C124 C123 1.375 . S
C124 C125 1.375 . S
C125 C124 1.375 . S
C125 C126 1.361 . S
C126 H86 0.930 . S
C126 C125 1.361 . S
C126 C127 1.399 . S
C127 H87 0.929 . S
C127 C122 1.386 . S
C127 C126 1.399 . S
C128 C107 1.485 . S
C128 C129 1.394 . S
C128 C133 1.360 . S
C129 H88 0.931 . S
C129 C128 1.394 . S
C129 C130 1.372 . S
C130 H89 0.930 . S
C130 C129 1.372 . S
C130 C131 1.397 . S
C131 C130 1.397 . S
C131 C132 1.390 . S
C131 C147 1.476 . S
C132 H90 0.930 . S
C132 C131 1.390 . S
C132 C133 1.366 . S
C133 H91 0.932 . S
C133 C128 1.360 . S
C133 C132 1.366 . S
C134 C108 1.490 . S
C134 C135 1.380 . S
C134 C139 1.386 . S
C135 H92 0.930 . S
C135 C134 1.380 . S
C135 C136 1.381 1_554 S
C136 H93 0.929 . S
C136 C135 1.381 1_556 S
C136 C137 1.371 . S
C137 C136 1.371 . S
C137 C138 1.380 . S
C138 H94 0.931 . S
C138 C137 1.380 . S
C138 C139 1.387 1_556 S
C139 H95 0.930 . S
C139 C134 1.386 . S
C139 C138 1.387 1_554 S
C140 C109 1.519 . S
C140 C141 1.377 . S
C140 C145 1.361 . S
C141 H96 0.929 . S
C141 C140 1.377 . S
C141 C142 1.386 . S
C142 H97 0.931 . S
C142 C141 1.386 . S
C142 C143 1.363 . S
C143 C142 1.363 . S
C143 C144 1.385 . S
C144 H98 0.930 . S
C144 C143 1.385 . S
C144 C145 1.396 . S
C145 H99 0.929 . S
C145 C140 1.361 . S
C145 C144 1.396 . S
C146 O100 1.300 . S
C146 O101 1.209 . S
C146 C119 1.486 . S
C147 O102 1.199 . S
C147 O103 1.297 . S
C147 C131 1.476 . S
H148 O174 0.856 . S
H149 O177 0.854 . S
H150 C185 0.930 . S
H151 C186 0.930 . S
H152 C188 0.930 . S
H153 C189 0.930 . S
H154 C191 0.931 . S
H155 C192 0.930 . S
H156 C194 0.930 . S
H157 C195 0.929 . S
H158 C197 0.930 . S
H159 C198 0.931 . S
H160 C200 0.930 . S
H161 C201 0.929 . S
H162 C203 0.931 . S
H163 C204 0.930 . S
H164 C206 0.930 . S
H165 C207 0.932 1_556 S
H166 C209 0.930 . S
H167 C210 0.929 . S
H168 C212 0.931 . S
H169 C213 0.930 . S
H170 C215 0.929 . S
H171 C216 0.931 . S
H172 C218 0.930 . S
H173 C219 0.929 . S
O174 H148 0.856 . S
O174 C220 1.300 . S
O175 C220 1.209 . S
O176 C221 1.199 . S
O177 H149 0.854 . S
O177 C221 1.297 . S
C178 C179 1.404 . S
C178 C183 1.397 1_556 S
C178 C184 1.492 . S
C179 C178 1.404 . S
C179 C180 1.396 . S
C179 C190 1.492 . S
C180 C179 1.396 . S
C180 C181 1.396 . S
C180 C196 1.509 . S
C181 C180 1.396 . S
C181 C182 1.413 1_556 S
C181 C202 1.485 1_556 S
C182 C181 1.413 1_554 S
C182 C183 1.388 . S
C182 C208 1.490 . S
C183 C178 1.397 1_554 S
C183 C182 1.388 . S
C183 C214 1.519 . S
C184 C178 1.492 . S
C184 C185 1.363 . S
C184 C189 1.390 . S
C185 H150 0.930 . S
C185 C184 1.363 . S
C185 C186 1.372 . S
C186 H151 0.930 . S
C186 C185 1.372 . S
C186 C187 1.383 . S
C187 C186 1.383 . S
C187 C188 1.395 . S
C188 H152 0.930 . S
C188 C187 1.395 . S
C188 C189 1.362 . S
C189 H153 0.930 . S
C189 C184 1.390 . S
C189 C188 1.362 . S
C190 C179 1.492 . S
C190 C191 1.377 . S
C190 C195 1.397 . S
C191 H154 0.931 . S
C191 C190 1.377 . S
C191 C192 1.376 . S
C192 H155 0.930 . S
C192 C191 1.376 . S
C192 C193 1.376 . S
C193 C192 1.376 . S
C193 C194 1.378 . S
C193 C220 1.486 . S
C194 H156 0.930 . S
C194 C193 1.378 . S
C194 C195 1.376 . S
C195 H157 0.929 . S
C195 C190 1.397 . S
C195 C194 1.376 . S
C196 C180 1.509 . S
C196 C197 1.391 . S
C196 C201 1.386 . S
C197 H158 0.930 . S
C197 C196 1.391 . S
C197 C198 1.375 . S
C198 H159 0.931 . S
C198 C197 1.375 . S
C198 C199 1.375 . S
C199 C198 1.375 . S
C199 C200 1.361 . S
C200 H160 0.930 . S
C200 C199 1.361 . S
C200 C201 1.399 . S
C201 H161 0.929 . S
C201 C196 1.386 . S
C201 C200 1.399 . S
C202 C181 1.485 1_554 S
C202 C203 1.394 . S
C202 C207 1.360 . S
C203 H162 0.931 . S
C203 C202 1.394 . S
C203 C204 1.372 . S
C204 H163 0.930 . S
C204 C203 1.372 . S
C204 C205 1.397 . S
C205 C204 1.397 . S
C205 C206 1.390 . S
C205 C221 1.476 . S
C206 H164 0.930 . S
C206 C205 1.390 . S
C206 C207 1.366 . S
C207 H165 0.932 1_554 S
C207 C202 1.360 . S
C207 C206 1.366 . S
C208 C182 1.490 . S
C208 C209 1.380 . S
C208 C213 1.386 . S
C209 H166 0.930 . S
C209 C208 1.380 . S
C209 C210 1.381 . S
C210 H167 0.929 . S
C210 C209 1.381 . S
C210 C211 1.371 . S
C211 C210 1.371 . S
C211 C212 1.380 . S
C212 H168 0.931 . S
C212 C211 1.380 . S
C212 C213 1.387 . S
C213 H169 0.930 . S
C213 C208 1.386 . S
C213 C212 1.387 . S
C214 C183 1.519 . S
C214 C215 1.377 . S
C214 C219 1.361 . S
C215 H170 0.929 . S
C215 C214 1.377 . S
C215 C216 1.386 . S
C216 H171 0.931 . S
C216 C215 1.386 . S
C216 C217 1.363 . S
C217 C216 1.363 . S
C217 C218 1.385 . S
C218 H172 0.930 . S
C218 C217 1.385 . S
C218 C219 1.396 . S
C219 H173 0.929 . S
C219 C214 1.361 . S
C219 C218 1.396 . S
C220 O174 1.300 . S
C220 O175 1.209 . S
C220 C193 1.486 . S
C221 O176 1.199 . S
C221 O177 1.297 . S
C221 C205 1.476 . S
H222 O248 0.856 . S
H223 O251 0.854 . S
H224 C259 0.930 . S
H225 C260 0.930 . S
H226 C262 0.930 . S
H227 C263 0.930 . S
H228 C265 0.931 . S
H229 C266 0.930 . S
H230 C268 0.930 . S
H231 C269 0.929 . S
H232 C271 0.930 . S
H233 C272 0.931 . S
H234 C274 0.930 . S
H235 C275 0.929 . S
H236 C277 0.931 . S
H237 C278 0.930 . S
H238 C280 0.930 . S
H239 C281 0.932 . S
H240 C283 0.930 . S
H241 C284 0.929 . S
H242 C286 0.931 . S
H243 C287 0.930 1_554 S
H244 C289 0.929 . S
H245 C290 0.931 . S
H246 C292 0.930 . S
H247 C293 0.929 . S
O248 H222 0.856 . S
O248 C294 1.300 . S
O249 C294 1.209 . S
O250 C295 1.199 . S
O251 H223 0.854 . S
O251 C295 1.297 . S
C252 C253 1.404 . S
C252 C257 1.397 . S
C252 C258 1.492 . S
C253 C252 1.404 . S
C253 C254 1.396 . S
C253 C264 1.492 . S
C254 C253 1.396 . S
C254 C255 1.397 . S
C254 C270 1.509 . S
C255 C254 1.397 . S
C255 C256 1.412 . S
C255 C276 1.485 . S
C256 C255 1.412 . S
C256 C257 1.388 . S
C256 C282 1.490 . S
C257 C252 1.397 . S
C257 C256 1.388 . S
C257 C288 1.519 . S
C258 C252 1.492 . S
C258 C259 1.363 . S
C258 C263 1.390 . S
C259 H224 0.930 . S
C259 C258 1.363 . S
C259 C260 1.372 . S
C260 H225 0.930 . S
C260 C259 1.372 . S
C260 C261 1.383 . S
C261 C260 1.383 . S
C261 C262 1.395 . S
C262 H226 0.930 . S
C262 C261 1.395 . S
C262 C263 1.362 . S
C263 H227 0.930 . S
C263 C258 1.390 . S
C263 C262 1.362 . S
C264 C253 1.492 . S
C264 C265 1.377 . S
C264 C269 1.397 . S
C265 H228 0.931 . S
C265 C264 1.377 . S
C265 C266 1.376 . S
C266 H229 0.930 . S
C266 C265 1.376 . S
C266 C267 1.376 . S
C267 C266 1.376 . S
C267 C268 1.378 . S
C267 C294 1.486 . S
C268 H230 0.930 . S
C268 C267 1.378 . S
C268 C269 1.376 . S
C269 H231 0.929 . S
C269 C264 1.397 . S
C269 C268 1.376 . S
C270 C254 1.509 . S
C270 C271 1.391 . S
C270 C275 1.386 . S
C271 H232 0.930 . S
C271 C270 1.391 . S
C271 C272 1.375 . S
C272 H233 0.931 . S
C272 C271 1.375 . S
C272 C273 1.375 . S
C273 C272 1.375 . S
C273 C274 1.361 . S
C274 H234 0.930 . S
C274 C273 1.361 . S
C274 C275 1.399 . S
C275 H235 0.929 . S
C275 C270 1.386 . S
C275 C274 1.399 . S
C276 C255 1.485 . S
C276 C277 1.394 . S
C276 C281 1.360 . S
C277 H236 0.931 . S
C277 C276 1.394 . S
C277 C278 1.372 . S
C278 H237 0.930 . S
C278 C277 1.372 . S
C278 C279 1.397 . S
C279 C278 1.397 . S
C279 C280 1.390 . S
C279 C295 1.476 . S
C280 H238 0.930 . S
C280 C279 1.390 . S
C280 C281 1.366 . S
C281 H239 0.932 . S
C281 C276 1.360 . S
C281 C280 1.366 . S
C282 C256 1.490 . S
C282 C283 1.380 1_554 S
C282 C287 1.386 1_554 S
C283 H240 0.930 . S
C283 C282 1.380 1_556 S
C283 C284 1.381 . S
C284 H241 0.929 . S
C284 C283 1.381 . S
C284 C285 1.371 . S
C285 C284 1.371 . S
C285 C286 1.380 . S
C286 H242 0.931 . S
C286 C285 1.380 . S
C286 C287 1.387 . S
C287 H243 0.930 1_556 S
C287 C282 1.386 1_556 S
C287 C286 1.387 . S
C288 C257 1.519 . S
C288 C289 1.377 . S
C288 C293 1.361 . S
C289 H244 0.929 . S
C289 C288 1.377 . S
C289 C290 1.386 1_554 S
C290 H245 0.931 . S
C290 C289 1.386 1_556 S
C290 C291 1.363 . S
C291 C290 1.363 . S
C291 C292 1.385 . S
C292 H246 0.930 . S
C292 C291 1.385 . S
C292 C293 1.396 1_556 S
C293 H247 0.929 . S
C293 C288 1.361 . S
C293 C292 1.396 1_554 S
C294 O248 1.300 . S
C294 O249 1.209 . S
C294 C267 1.486 . S
C295 O250 1.199 . S
C295 O251 1.297 . S
C295 C279 1.476 . S
H296 O322 0.856 . S
H297 O325 0.854 . S
H298 C333 0.930 . S
H299 C334 0.930 . S
H300 C336 0.930 . S
H301 C337 0.930 . S
H302 C339 0.931 . S
H303 C340 0.930 . S
H304 C342 0.930 . S
H305 C343 0.929 . S
H306 C345 0.930 . S
H307 C346 0.931 . S
H308 C348 0.930 . S
H309 C349 0.929 . S
H310 C351 0.931 . S
H311 C352 0.930 . S
H312 C354 0.930 . S
H313 C355 0.932 . S
H314 C357 0.930 . S
H315 C358 0.929 . S
H316 C360 0.931 . S
H317 C361 0.925 1_554 S
H318 C363 0.929 . S
H319 C364 0.931 . S
H320 C366 0.930 . S
H321 C367 0.929 . S
O322 H296 0.856 . S
O322 C368 1.300 . S
O323 C368 1.209 . S
O324 C369 1.199 . S
O325 H297 0.854 . S
O325 C369 1.297 . S
C326 C327 1.404 . S
C326 C331 1.397 . S
C326 C332 1.492 . S
C327 C326 1.404 . S
C327 C328 1.396 . S
C327 C338 1.492 . S
C328 C327 1.396 . S
C328 C329 1.397 . S
C328 C344 1.509 . S
C329 C328 1.397 . S
C329 C330 1.412 . S
C329 C350 1.485 . S
C330 C329 1.412 . S
C330 C331 1.388 . S
C330 C356 1.490 . S
C331 C326 1.397 . S
C331 C330 1.388 . S
C331 C362 1.519 . S
C332 C326 1.492 . S
C332 C333 1.363 . S
C332 C337 1.390 . S
C333 H298 0.930 . S
C333 C332 1.363 . S
C333 C334 1.372 . S
C334 H299 0.930 . S
C334 C333 1.372 . S
C334 C335 1.383 . S
C335 C334 1.383 . S
C335 C336 1.395 . S
C336 H300 0.930 . S
C336 C335 1.395 . S
C336 C337 1.362 . S
C337 H301 0.930 . S
C337 C332 1.390 . S
C337 C336 1.362 . S
C338 C327 1.492 . S
C338 C339 1.377 . S
C338 C343 1.397 . S
C339 H302 0.931 . S
C339 C338 1.377 . S
C339 C340 1.376 . S
C340 H303 0.930 . S
C340 C339 1.376 . S
C340 C341 1.376 . S
C341 C340 1.376 . S
C341 C342 1.378 . S
C341 C368 1.486 . S
C342 H304 0.930 . S
C342 C341 1.378 . S
C342 C343 1.376 . S
C343 H305 0.929 . S
C343 C338 1.397 . S
C343 C342 1.376 . S
C344 C328 1.509 . S
C344 C345 1.391 . S
C344 C349 1.386 . S
C345 H306 0.930 . S
C345 C344 1.391 . S
C345 C346 1.375 . S
C346 H307 0.931 . S
C346 C345 1.375 . S
C346 C347 1.375 . S
C347 C346 1.375 . S
C347 C348 1.361 . S
C348 H308 0.930 . S
C348 C347 1.361 . S
C348 C349 1.399 . S
C349 H309 0.929 . S
C349 C344 1.386 . S
C349 C348 1.399 . S
C350 C329 1.485 . S
C350 C351 1.394 . S
C350 C355 1.360 . S
C351 H310 0.931 . S
C351 C350 1.394 . S
C351 C352 1.372 . S
C352 H311 0.930 . S
C352 C351 1.372 . S
C352 C353 1.397 . S
C353 C352 1.397 . S
C353 C354 1.390 . S
C353 C369 1.476 . S
C354 H312 0.930 . S
C354 C353 1.390 . S
C354 C355 1.366 . S
C355 H313 0.932 . S
C355 C350 1.360 . S
C355 C354 1.366 . S
C356 C330 1.490 . S
C356 C357 1.380 . S
C356 C361 1.380 1_554 S
C357 H314 0.930 . S
C357 C356 1.380 . S
C357 C358 1.381 1_554 S
C358 H315 0.929 . S
C358 C357 1.381 1_556 S
C358 C359 1.371 . S
C359 C358 1.371 . S
C359 C360 1.380 . S
C360 H316 0.931 . S
C360 C359 1.380 . S
C360 C361 1.397 . S
C361 H317 0.925 1_556 S
C361 C356 1.380 1_556 S
C361 C360 1.397 . S
C362 C331 1.519 . S
C362 C363 1.377 . S
C362 C367 1.361 . S
C363 H318 0.929 . S
C363 C362 1.377 . S
C363 C364 1.386 . S
C364 H319 0.931 . S
C364 C363 1.386 . S
C364 C365 1.363 1_554 S
C365 C364 1.363 1_556 S
C365 C366 1.385 . S
C366 H320 0.930 . S
C366 C365 1.385 . S
C366 C367 1.396 1_556 S
C367 H321 0.929 . S
C367 C362 1.361 . S
C367 C366 1.396 1_554 S
C368 O322 1.300 . S
C368 O323 1.209 . S
C368 C341 1.486 . S
C369 O324 1.199 . S
C369 O325 1.297 . S
C369 C353 1.476 . S
H370 O396 0.856 . S
H371 O399 0.854 . S
H372 C407 0.930 . S
H373 C408 0.930 . S
H374 C410 0.930 . S
H375 C411 0.930 . S
H376 C413 0.931 . S
H377 C414 0.930 . S
H378 C416 0.931 . S
H379 C417 0.929 . S
H380 C419 0.930 . S
H381 C420 0.931 . S
H382 C422 0.930 . S
H383 C423 0.929 . S
H384 C425 0.931 . S
H385 C426 0.930 . S
H386 C428 0.930 . S
H387 C429 0.932 . S
H388 C431 0.930 . S
H389 C432 0.929 . S
H390 C434 0.931 . S
H391 C435 0.930 . S
H392 C437 0.929 . S
H393 C438 0.931 . S
H394 C440 0.930 . S
H395 C441 0.929 . S
O396 H370 0.856 . S
O396 C442 1.300 . S
O397 C442 1.209 . S
O398 C443 1.199 . S
O399 H371 0.854 . S
O399 C443 1.297 . S
C400 C401 1.404 . S
C400 C405 1.397 . S
C400 C406 1.492 . S
C401 C400 1.404 . S
C401 C402 1.396 . S
C401 C412 1.492 . S
C402 C401 1.396 . S
C402 C403 1.397 . S
C402 C418 1.509 . S
C403 C402 1.397 . S
C403 C404 1.412 . S
C403 C424 1.485 . S
C404 C403 1.412 . S
C404 C405 1.388 . S
C404 C430 1.490 . S
C405 C400 1.397 . S
C405 C404 1.388 . S
C405 C436 1.519 . S
C406 C400 1.492 . S
C406 C407 1.363 . S
C406 C411 1.390 . S
C407 H372 0.930 . S
C407 C406 1.363 . S
C407 C408 1.372 . S
C408 H373 0.930 . S
C408 C407 1.372 . S
C408 C409 1.383 . S
C409 C408 1.383 . S
C409 C410 1.395 . S
C410 H374 0.930 . S
C410 C409 1.395 . S
C410 C411 1.362 . S
C411 H375 0.930 . S
C411 C406 1.390 . S
C411 C410 1.362 . S
C412 C401 1.492 . S
C412 C413 1.377 . S
C412 C417 1.397 . S
C413 H376 0.931 . S
C413 C412 1.377 . S
C413 C414 1.376 1_554 S
C414 H377 0.930 . S
C414 C413 1.376 1_556 S
C414 C415 1.376 . S
C415 C414 1.376 . S
C415 C416 1.380 . S
C415 C442 1.486 . S
C416 H378 0.931 . S
C416 C415 1.380 . S
C416 C417 1.373 1_556 S
C417 H379 0.929 . S
C417 C412 1.397 . S
C417 C416 1.373 1_554 S
C418 C402 1.509 . S
C418 C419 1.391 . S
C418 C423 1.386 . S
C419 H380 0.930 . S
C419 C418 1.391 . S
C419 C420 1.375 . S
C420 H381 0.931 . S
C420 C419 1.375 . S
C420 C421 1.375 . S
C421 C420 1.375 . S
C421 C422 1.361 . S
C422 H382 0.930 . S
C422 C421 1.361 . S
C422 C423 1.399 . S
C423 H383 0.929 . S
C423 C418 1.386 . S
C423 C422 1.399 . S
C424 C403 1.485 . S
C424 C425 1.394 . S
C424 C429 1.360 . S
C425 H384 0.931 . S
C425 C424 1.394 . S
C425 C426 1.372 . S
C426 H385 0.930 . S
C426 C425 1.372 . S
C426 C427 1.397 . S
C427 C426 1.397 . S
C427 C428 1.390 . S
C427 C443 1.476 . S
C428 H386 0.930 . S
C428 C427 1.390 . S
C428 C429 1.366 . S
C429 H387 0.932 . S
C429 C424 1.360 . S
C429 C428 1.366 . S
C430 C404 1.490 . S
C430 C431 1.380 . S
C430 C435 1.386 . S
C431 H388 0.930 . S
C431 C430 1.380 . S
C431 C432 1.381 . S
C432 H389 0.929 . S
C432 C431 1.381 . S
C432 C433 1.371 . S
C433 C432 1.371 . S
C433 C434 1.380 . S
C434 H390 0.931 . S
C434 C433 1.380 . S
C434 C435 1.387 . S
C435 H391 0.930 . S
C435 C430 1.386 . S
C435 C434 1.387 . S
C436 C405 1.519 . S
C436 C437 1.377 . S
C436 C441 1.361 . S
C437 H392 0.929 . S
C437 C436 1.377 . S
C437 C438 1.386 . S
C438 H393 0.931 . S
C438 C437 1.386 . S
C438 C439 1.363 . S
C439 C438 1.363 . S
C439 C440 1.385 . S
C440 H394 0.930 . S
C440 C439 1.385 . S
C440 C441 1.396 . S
C441 H395 0.929 . S
C441 C436 1.361 . S
C441 C440 1.396 . S
C442 O396 1.300 . S
C442 O397 1.209 . S
C442 C415 1.486 . S
C443 O398 1.199 . S
C443 O399 1.297 . S
C443 C427 1.476 . S
C444 O456 1.241 . S
C444 O457 1.280 . S
C445 O458 1.277 . S
C445 O459 1.245 . S
C446 O470 1.247 . S
C446 O472 1.289 . S
Mg447 O448 1.926 . S
Mg447 O457 1.984 1_455 S
Mg447 O459 1.988 . S
Mg447 O460 2.061 1_455 S
O448 Mg447 1.926 . S
O448 Mg449 1.986 . S
O448 Mg450 1.917 . S
Mg449 O448 1.986 . S
Mg449 O456 2.042 1_455 S
Mg449 O458 2.041 . S
Mg449 O464 2.038 1_455 S
Mg449 O472 2.238 . S
Mg450 O448 1.917 . S
Mg450 O451 1.917 . S
Mg450 O461 2.106 1_455 S
Mg450 O463 2.079 1_455 S
Mg450 O472 2.106 . S
Mg450 O473 2.079 . S
O451 Mg450 1.917 . S
O451 Mg452 1.926 . S
O451 Mg453 1.986 . S
Mg452 O451 1.926 . S
Mg452 O466 1.984 . S
Mg452 O469 1.988 1_455 S
Mg452 O470 2.061 . S
Mg453 O451 1.986 . S
Mg453 O461 2.238 1_455 S
Mg453 O465 2.042 . S
Mg453 O467 2.041 1_455 S
Mg453 O474 2.038 . S
C454 O460 1.247 . S
C454 O461 1.289 . S
C455 O473 1.245 . S
C455 O474 1.274 . S
O456 C444 1.241 . S
O456 Mg449 2.042 1_655 S
O457 C444 1.280 . S
O457 Mg447 1.984 1_655 S
O458 C445 1.277 . S
O458 Mg449 2.041 . S
O459 C445 1.245 . S
O459 Mg447 1.988 . S
O460 Mg447 2.061 1_655 S
O460 C454 1.247 . S
O461 Mg450 2.106 1_655 S
O461 Mg453 2.238 1_655 S
O461 C454 1.289 . S
C462 O463 1.245 . S
C462 O464 1.274 . S
O463 Mg450 2.079 1_655 S
O463 C462 1.245 . S
O464 Mg449 2.038 1_655 S
O464 C462 1.274 . S
O465 Mg453 2.042 . S
O465 C468 1.241 . S
O466 Mg452 1.984 . S
O466 C468 1.280 . S
O467 Mg453 2.041 1_655 S
O467 C471 1.277 . S
C468 O465 1.241 . S
C468 O466 1.280 . S
O469 Mg452 1.988 1_655 S
O469 C471 1.245 . S
O470 C446 1.247 . S
O470 Mg452 2.061 . S
C471 O467 1.277 . S
C471 O469 1.245 . S
O472 C446 1.289 . S
O472 Mg449 2.238 . S
O472 Mg450 2.106 . S
O473 Mg450 2.079 . S
O473 C455 1.245 . S
O474 Mg453 2.038 . S
O474 C455 1.274 . S
C475 O487 1.241 . S
C475 O488 1.280 . S
C476 O489 1.277 . S
C476 O490 1.245 . S
C477 O501 1.247 . S
C477 O503 1.289 . S
Mg478 O479 1.926 . S
Mg478 O488 1.984 . S
Mg478 O490 1.988 1_545 S
Mg478 O491 2.061 . S
O479 Mg478 1.926 . S
O479 Mg480 1.986 . S
O479 Mg481 1.917 . S
Mg480 O479 1.986 . S
Mg480 O487 2.042 . S
Mg480 O489 2.041 1_545 S
Mg480 O495 2.038 . S
Mg480 O503 2.238 1_545 S
Mg481 O479 1.917 . S
Mg481 O482 1.917 1_545 S
Mg481 O492 2.106 . S
Mg481 O494 2.079 . S
Mg481 O503 2.106 1_545 S
Mg481 O504 2.079 1_545 S
O482 Mg481 1.917 1_565 S
O482 Mg483 1.926 . S
O482 Mg484 1.986 1_565 S
Mg483 O482 1.926 . S
Mg483 O497 1.984 . S
Mg483 O500 1.988 1_565 S
Mg483 O501 2.061 . S
Mg484 O482 1.986 1_545 S
Mg484 O492 2.238 . S
Mg484 O496 2.042 1_545 S
Mg484 O498 2.041 . S
Mg484 O505 2.038 1_545 S
C485 O491 1.247 . S
C485 O492 1.289 . S
C486 O504 1.245 . S
C486 O505 1.274 . S
O487 C475 1.241 . S
O487 Mg480 2.042 . S
O488 C475 1.280 . S
O488 Mg478 1.984 . S
O489 C476 1.277 . S
O489 Mg480 2.041 1_565 S
O490 C476 1.245 . S
O490 Mg478 1.988 1_565 S
O491 Mg478 2.061 . S
O491 C485 1.247 . S
O492 Mg481 2.106 . S
O492 Mg484 2.238 . S
O492 C485 1.289 . S
C493 O494 1.245 . S
C493 O495 1.274 . S
O494 Mg481 2.079 . S
O494 C493 1.245 . S
O495 Mg480 2.038 . S
O495 C493 1.274 . S
O496 Mg484 2.042 1_565 S
O496 C499 1.241 . S
O497 Mg483 1.984 . S
O497 C499 1.280 . S
O498 Mg484 2.041 . S
O498 C502 1.277 . S
C499 O496 1.241 . S
C499 O497 1.280 . S
O500 Mg483 1.988 1_545 S
O500 C502 1.245 . S
O501 C477 1.247 . S
O501 Mg483 2.061 . S
C502 O498 1.277 . S
C502 O500 1.245 . S
O503 C477 1.289 . S
O503 Mg480 2.238 1_565 S
O503 Mg481 2.106 1_565 S
O504 Mg481 2.079 1_565 S
O504 C486 1.245 . S
O505 Mg484 2.038 1_565 S
O505 C486 1.274 . S
C506 O518 1.241 . S
C506 O519 1.280 . S
C507 O520 1.277 . S
C507 O521 1.245 . S
C508 O532 1.247 . S
C508 O534 1.289 . S
Mg509 O510 1.926 . S
Mg509 O519 1.984 . S
Mg509 O521 1.988 . S
Mg509 O522 2.061 . S
O510 Mg509 1.926 . S
O510 Mg511 1.986 . S
O510 Mg512 1.917 . S
Mg511 O510 1.986 . S
Mg511 O518 2.042 . S
Mg511 O520 2.041 . S
Mg511 O526 2.038 . S
Mg511 O534 2.238 . S
Mg512 O510 1.917 . S
Mg512 O513 1.917 . S
Mg512 O523 2.106 . S
Mg512 O525 2.079 . S
Mg512 O534 2.106 . S
Mg512 O535 2.079 . S
O513 Mg512 1.917 . S
O513 Mg514 1.926 . S
O513 Mg515 1.986 . S
Mg514 O513 1.926 . S
Mg514 O528 1.984 . S
Mg514 O531 1.988 . S
Mg514 O532 2.061 . S
Mg515 O513 1.986 . S
Mg515 O523 2.238 . S
Mg515 O527 2.042 . S
Mg515 O529 2.041 . S
Mg515 O536 2.038 . S
C516 O522 1.247 . S
C516 O523 1.289 . S
C517 O535 1.245 . S
C517 O536 1.274 . S
O518 C506 1.241 . S
O518 Mg511 2.042 . S
O519 C506 1.280 . S
O519 Mg509 1.984 . S
O520 C507 1.277 . S
O520 Mg511 2.041 . S
O521 C507 1.245 . S
O521 Mg509 1.988 . S
O522 Mg509 2.061 . S
O522 C516 1.247 . S
O523 Mg512 2.106 . S
O523 Mg515 2.238 . S
O523 C516 1.289 . S
C524 O525 1.245 . S
C524 O526 1.274 . S
O525 Mg512 2.079 . S
O525 C524 1.245 . S
O526 Mg511 2.038 . S
O526 C524 1.274 . S
O527 Mg515 2.042 . S
O527 C530 1.241 . S
O528 Mg514 1.984 . S
O528 C530 1.280 . S
O529 Mg515 2.041 . S
O529 C533 1.277 . S
C530 O527 1.241 . S
C530 O528 1.280 . S
O531 Mg514 1.988 . S
O531 C533 1.245 . S
O532 C508 1.247 . S
O532 Mg514 2.061 . S
C533 O529 1.277 . S
C533 O531 1.245 . S
O534 C508 1.289 . S
O534 Mg511 2.238 . S
O534 Mg512 2.106 . S
O535 Mg512 2.079 . S
O535 C517 1.245 . S
O536 Mg515 2.038 . S
O536 C517 1.274 . S
C537 C538 1.349 . S
C537 C539 1.327 . S
C537 H562 0.950 . S
C538 C537 1.349 . S
C538 C554 1.349 . S
C539 C537 1.327 . S
C539 C558 1.429 . S
C539 H563 0.950 . S
C540 C557 1.574 . S
C540 C559 1.368 . S
C540 H564 0.949 . S
H541 C545 0.949 . S
C542 C543 1.349 . S
C542 C544 1.327 . S
C542 H565 0.950 . S
C543 C542 1.349 . S
C543 C555 1.349 . S
C544 C542 1.327 . S
C544 C560 1.429 . S
C544 H566 0.950 . S
C545 H541 0.949 . S
C545 C553 1.574 . S
C545 C561 1.368 . S
H546 C554 0.950 . S
H547 C552 0.950 . S
H548 C553 0.949 . S
H549 C555 0.950 . S
H550 C556 0.950 . S
H551 C557 0.949 . S
C552 H547 0.950 . S
C552 C554 1.327 . S
C552 C558 1.429 . S
C553 C545 1.574 . S
C553 H548 0.949 . S
C553 C559 1.368 . S
C554 C538 1.349 . S
C554 H546 0.950 . S
C554 C552 1.327 . S
C555 C543 1.349 . S
C555 H549 0.950 . S
C555 C556 1.327 . S
C556 H550 0.950 . S
C556 C555 1.327 . S
C556 C560 1.429 . S
C557 C540 1.574 . S
C557 H551 0.949 . S
C557 C561 1.368 . S
C558 C539 1.429 . S
C558 C552 1.429 . S
C558 C559 1.523 . S
C559 C540 1.368 . S
C559 C553 1.368 . S
C559 C558 1.523 . S
C560 C544 1.429 . S
C560 C556 1.429 . S
C560 C561 1.523 . S
C561 C545 1.368 . S
C561 C557 1.368 . S
C561 C560 1.523 . S
H562 C537 0.950 . S
H563 C539 0.950 . S
H564 C540 0.949 . S
H565 C542 0.950 . S
H566 C544 0.950 . S
C567 C568 1.349 . S
C567 C569 1.327 . S
C567 H592 0.950 . S
C568 C567 1.349 . S
C568 C584 1.349 . S
C569 C567 1.327 . S
C569 C588 1.429 . S
C569 H593 0.950 . S
C570 C587 1.574 . S
C570 C589 1.368 . S
C570 H594 0.949 . S
H571 C575 0.949 . S
C572 C573 1.349 . S
C572 C574 1.327 . S
C572 H595 0.950 . S
C573 C572 1.349 . S
C573 C585 1.349 . S
C574 C572 1.327 . S
C574 C590 1.429 . S
C574 H596 0.950 . S
C575 H571 0.949 . S
C575 C583 1.574 . S
C575 C591 1.368 . S
H576 C584 0.950 . S
H577 C582 0.950 . S
H578 C583 0.949 . S
H579 C585 0.950 . S
H580 C586 0.950 . S
H581 C587 0.949 . S
C582 H577 0.950 . S
C582 C584 1.327 . S
C582 C588 1.429 . S
C583 C575 1.574 . S
C583 H578 0.949 . S
C583 C589 1.368 . S
C584 C568 1.349 . S
C584 H576 0.950 . S
C584 C582 1.327 . S
C585 C573 1.349 . S
C585 H579 0.950 . S
C585 C586 1.327 . S
C586 H580 0.950 . S
C586 C585 1.327 . S
C586 C590 1.429 . S
C587 C570 1.574 . S
C587 H581 0.949 . S
C587 C591 1.368 . S
C588 C569 1.429 . S
C588 C582 1.429 . S
C588 C589 1.523 . S
C589 C570 1.368 . S
C589 C583 1.368 . S
C589 C588 1.523 . S
C590 C574 1.429 . S
C590 C586 1.429 . S
C590 C591 1.523 . S
C591 C575 1.368 . S
C591 C587 1.368 . S
C591 C590 1.523 . S
H592 C567 0.950 . S
H593 C569 0.950 . S
H594 C570 0.949 . S
H595 C572 0.950 . S
H596 C574 0.950 . S
C597 C598 1.349 . S
C597 C599 1.327 . S
C597 H622 0.950 . S
C598 C597 1.349 . S
C598 C614 1.349 . S
C599 C597 1.327 . S
C599 C618 1.429 . S
C599 H623 0.950 . S
C600 C617 1.574 . S
C600 C619 1.368 . S
C600 H624 0.949 . S
H601 C605 0.949 . S
C602 C603 1.349 . S
C602 C604 1.327 . S
C602 H625 0.950 . S
C603 C602 1.349 . S
C603 C615 1.349 . S
C604 C602 1.327 . S
C604 C620 1.429 . S
C604 H626 0.950 . S
C605 H601 0.949 . S
C605 C613 1.574 . S
C605 C621 1.368 . S
H606 C614 0.950 . S
H607 C612 0.950 . S
H608 C613 0.949 . S
H609 C615 0.950 . S
H610 C616 0.950 . S
H611 C617 0.949 . S
C612 H607 0.950 . S
C612 C614 1.327 . S
C612 C618 1.429 . S
C613 C605 1.574 . S
C613 H608 0.949 . S
C613 C619 1.368 . S
C614 C598 1.349 . S
C614 H606 0.950 . S
C614 C612 1.327 . S
C615 C603 1.349 . S
C615 H609 0.950 . S
C615 C616 1.327 . S
C616 H610 0.950 . S
C616 C615 1.327 . S
C616 C620 1.429 . S
C617 C600 1.574 . S
C617 H611 0.949 . S
C617 C621 1.368 . S
C618 C599 1.429 . S
C618 C612 1.429 . S
C618 C619 1.523 . S
C619 C600 1.368 . S
C619 C613 1.368 . S
C619 C618 1.523 . S
C620 C604 1.429 . S
C620 C616 1.429 . S
C620 C621 1.523 . S
C621 C605 1.368 . S
C621 C617 1.368 . S
C621 C620 1.523 . S
H622 C597 0.950 . S
H623 C599 0.950 . S
H624 C600 0.949 . S
H625 C602 0.950 . S
H626 C604 0.950 . S
C627 C628 1.349 . S
C627 C629 1.327 . S
C627 H652 0.950 . S
C628 C627 1.349 . S
C628 C644 1.349 . S
C629 C627 1.327 . S
C629 C648 1.429 . S
C629 H653 0.950 . S
C630 C647 1.574 . S
C630 C649 1.368 . S
C630 H654 0.949 . S
H631 C635 0.949 . S
C632 C633 1.349 . S
C632 C634 1.327 . S
C632 H655 0.950 . S
C633 C632 1.349 . S
C633 C645 1.349 . S
C634 C632 1.327 . S
C634 C650 1.429 . S
C634 H656 0.950 . S
C635 H631 0.949 . S
C635 C643 1.574 . S
C635 C651 1.368 . S
H636 C644 0.950 . S
H637 C642 0.950 . S
H638 C643 0.949 . S
H639 C645 0.950 . S
H640 C646 0.950 . S
H641 C647 0.949 . S
C642 H637 0.950 . S
C642 C644 1.327 . S
C642 C648 1.429 . S
C643 C635 1.574 . S
C643 H638 0.949 . S
C643 C649 1.368 . S
C644 C628 1.349 . S
C644 H636 0.950 . S
C644 C642 1.327 . S
C645 C633 1.349 . S
C645 H639 0.950 . S
C645 C646 1.327 . S
C646 H640 0.950 . S
C646 C645 1.327 . S
C646 C650 1.429 . S
C647 C630 1.574 . S
C647 H641 0.949 . S
C647 C651 1.368 . S
C648 C629 1.429 . S
C648 C642 1.429 . S
C648 C649 1.523 . S
C649 C630 1.368 . S
C649 C643 1.368 . S
C649 C648 1.523 . S
C650 C634 1.429 . S
C650 C646 1.429 . S
C650 C651 1.523 . S
C651 C635 1.368 . S
C651 C647 1.368 . S
C651 C650 1.523 . S
H652 C627 0.950 . S
H653 C629 0.950 . S
H654 C630 0.949 . S
H655 C632 0.950 . S
H656 C634 0.950 . S
C657 C658 1.349 . S
C657 C659 1.327 . S
C657 H682 0.950 . S
C658 C657 1.349 . S
C658 C674 1.349 . S
C659 C657 1.327 . S
C659 C678 1.429 . S
C659 H683 0.950 . S
C660 C677 1.574 . S
C660 C679 1.368 . S
C660 H684 0.949 . S
H661 C665 0.949 . S
C662 C663 1.349 . S
C662 C664 1.327 . S
C662 H685 0.950 . S
C663 C662 1.349 . S
C663 C675 1.349 . S
C664 C662 1.327 . S
C664 C680 1.429 . S
C664 H686 0.950 . S
C665 H661 0.949 . S
C665 C673 1.574 . S
C665 C681 1.368 . S
H666 C674 0.950 . S
H667 C672 0.950 . S
H668 C673 0.949 . S
H669 C675 0.950 . S
H670 C676 0.950 . S
H671 C677 0.949 . S
C672 H667 0.950 . S
C672 C674 1.327 . S
C672 C678 1.429 . S
C673 C665 1.574 . S
C673 H668 0.949 . S
C673 C679 1.368 . S
C674 C658 1.349 . S
C674 H666 0.950 . S
C674 C672 1.327 . S
C675 C663 1.349 . S
C675 H669 0.950 . S
C675 C676 1.327 . S
C676 H670 0.950 . S
C676 C675 1.327 . S
C676 C680 1.429 . S
C677 C660 1.574 . S
C677 H671 0.949 . S
C677 C681 1.368 . S
C678 C659 1.429 . S
C678 C672 1.429 . S
C678 C679 1.523 . S
C679 C660 1.368 . S
C679 C673 1.368 . S
C679 C678 1.523 . S
C680 C664 1.429 . S
C680 C676 1.429 . S
C680 C681 1.523 . S
C681 C665 1.368 . S
C681 C677 1.368 . S
C681 C680 1.523 . S
H682 C657 0.950 . S
H683 C659 0.950 . S
H684 C660 0.949 . S
H685 C662 0.950 . S
H686 C664 0.950 . S
C687 C688 1.349 . S
C687 C689 1.327 . S
C687 H712 0.950 . S
C688 C687 1.349 . S
C688 C704 1.349 . S
C689 C687 1.327 . S
C689 C708 1.429 . S
C689 H713 0.950 . S
C690 C707 1.574 . S
C690 C709 1.368 . S
C690 H714 0.949 . S
H691 C695 0.949 . S
C692 C693 1.349 . S
C692 C694 1.327 . S
C692 H715 0.950 . S
C693 C692 1.349 . S
C693 C705 1.349 . S
C694 C692 1.327 . S
C694 C710 1.429 . S
C694 H716 0.950 . S
C695 H691 0.949 . S
C695 C703 1.574 . S
C695 C711 1.368 . S
H696 C704 0.950 . S
H697 C702 0.950 . S
H698 C703 0.949 . S
H699 C705 0.950 . S
H700 C706 0.950 . S
H701 C707 0.949 . S
C702 H697 0.950 . S
C702 C704 1.327 . S
C702 C708 1.429 . S
C703 C695 1.574 . S
C703 H698 0.949 . S
C703 C709 1.368 . S
C704 C688 1.349 . S
C704 H696 0.950 . S
C704 C702 1.327 . S
C705 C693 1.349 . S
C705 H699 0.950 . S
C705 C706 1.327 . S
C706 H700 0.950 . S
C706 C705 1.327 . S
C706 C710 1.429 . S
C707 C690 1.574 . S
C707 H701 0.949 . S
C707 C711 1.368 . S
C708 C689 1.429 . S
C708 C702 1.429 . S
C708 C709 1.523 . S
C709 C690 1.368 . S
C709 C703 1.368 . S
C709 C708 1.523 . S
C710 C694 1.429 . S
C710 C706 1.429 . S
C710 C711 1.523 . S
C711 C695 1.368 . S
C711 C707 1.368 . S
C711 C710 1.523 . S
H712 C687 0.950 . S
H713 C689 0.950 . S
H714 C690 0.949 . S
H715 C692 0.950 . S
H716 C694 0.950 . S
C717 C718 1.349 . S
C717 C719 1.327 . S
C717 H742 0.950 . S
C718 C717 1.349 . S
C718 C734 1.349 . S
C719 C717 1.327 . S
C719 C738 1.429 . S
C719 H743 0.950 . S
C720 C737 1.574 . S
C720 C739 1.368 . S
C720 H744 0.949 . S
H721 C725 0.949 . S
C722 C723 1.349 . S
C722 C724 1.327 . S
C722 H745 0.950 . S
C723 C722 1.349 . S
C723 C735 1.349 . S
C724 C722 1.327 . S
C724 C740 1.429 . S
C724 H746 0.950 . S
C725 H721 0.949 . S
C725 C733 1.574 . S
C725 C741 1.368 . S
H726 C734 0.950 . S
H727 C732 0.950 . S
H728 C733 0.949 . S
H729 C735 0.950 . S
H730 C736 0.950 . S
H731 C737 0.949 . S
C732 H727 0.950 . S
C732 C734 1.327 . S
C732 C738 1.429 . S
C733 C725 1.574 . S
C733 H728 0.949 . S
C733 C739 1.368 . S
C734 C718 1.349 . S
C734 H726 0.950 . S
C734 C732 1.327 . S
C735 C723 1.349 . S
C735 H729 0.950 . S
C735 C736 1.327 . S
C736 H730 0.950 . S
C736 C735 1.327 . S
C736 C740 1.429 . S
C737 C720 1.574 . S
C737 H731 0.949 . S
C737 C741 1.368 . S
C738 C719 1.429 . S
C738 C732 1.429 . S
C738 C739 1.523 . S
C739 C720 1.368 . S
C739 C733 1.368 . S
C739 C738 1.523 . S
C740 C724 1.429 . S
C740 C736 1.429 . S
C740 C741 1.523 . S
C741 C725 1.368 . S
C741 C737 1.368 . S
C741 C740 1.523 . S
H742 C717 0.950 . S
H743 C719 0.950 . S
H744 C720 0.949 . S
H745 C722 0.950 . S
H746 C724 0.950 . S
C747 C748 1.349 . S
C747 C749 1.327 . S
C747 H772 0.950 . S
C748 C747 1.349 . S
C748 C764 1.349 . S
C749 C747 1.327 . S
C749 C768 1.429 . S
C749 H773 0.950 . S
C750 C767 1.574 . S
C750 C769 1.368 . S
C750 H774 0.949 . S
H751 C755 0.949 . S
C752 C753 1.349 . S
C752 C754 1.327 . S
C752 H775 0.950 . S
C753 C752 1.349 . S
C753 C765 1.349 . S
C754 C752 1.327 . S
C754 C770 1.429 . S
C754 H776 0.950 . S
C755 H751 0.949 . S
C755 C763 1.574 . S
C755 C771 1.368 . S
H756 C764 0.950 . S
H757 C762 0.950 . S
H758 C763 0.949 . S
H759 C765 0.950 . S
H760 C766 0.950 . S
H761 C767 0.949 . S
C762 H757 0.950 . S
C762 C764 1.327 . S
C762 C768 1.429 . S
C763 C755 1.574 . S
C763 H758 0.949 . S
C763 C769 1.368 . S
C764 C748 1.349 . S
C764 H756 0.950 . S
C764 C762 1.327 . S
C765 C753 1.349 . S
C765 H759 0.950 . S
C765 C766 1.327 . S
C766 H760 0.950 . S
C766 C765 1.327 . S
C766 C770 1.429 . S
C767 C750 1.574 . S
C767 H761 0.949 . S
C767 C771 1.368 . S
C768 C749 1.429 . S
C768 C762 1.429 . S
C768 C769 1.523 . S
C769 C750 1.368 . S
C769 C763 1.368 . S
C769 C768 1.523 . S
C770 C754 1.429 . S
C770 C766 1.429 . S
C770 C771 1.523 . S
C771 C755 1.368 . S
C771 C767 1.368 . S
C771 C770 1.523 . S
H772 C747 0.950 . S
H773 C749 0.950 . S
H774 C750 0.949 . S
H775 C752 0.950 . S
H776 C754 0.950 . S
C777 C778 1.349 . S
C777 C779 1.327 . S
C777 H802 0.950 . S
C778 C777 1.349 . S
C778 C794 1.349 . S
C779 C777 1.327 . S
C779 C798 1.429 . S
C779 H803 0.950 . S
C780 C797 1.574 . S
C780 C799 1.368 . S
C780 H804 0.949 . S
H781 C785 0.949 . S
C782 C783 1.349 . S
C782 C784 1.327 . S
C782 H805 0.950 . S
C783 C782 1.349 . S
C783 C795 1.349 . S
C784 C782 1.327 . S
C784 C800 1.429 . S
C784 H806 0.950 . S
C785 H781 0.949 . S
C785 C793 1.574 . S
C785 C801 1.368 . S
H786 C794 0.950 . S
H787 C792 0.950 . S
H788 C793 0.949 . S
H789 C795 0.950 . S
H790 C796 0.950 . S
H791 C797 0.949 . S
C792 H787 0.950 . S
C792 C794 1.327 . S
C792 C798 1.429 . S
C793 C785 1.574 . S
C793 H788 0.949 . S
C793 C799 1.368 . S
C794 C778 1.349 . S
C794 H786 0.950 . S
C794 C792 1.327 . S
C795 C783 1.349 . S
C795 H789 0.950 . S
C795 C796 1.327 . S
C796 H790 0.950 . S
C796 C795 1.327 . S
C796 C800 1.429 . S
C797 C780 1.574 . S
C797 H791 0.949 . S
C797 C801 1.368 . S
C798 C779 1.429 . S
C798 C792 1.429 . S
C798 C799 1.523 . S
C799 C780 1.368 . S
C799 C793 1.368 . S
C799 C798 1.523 . S
C800 C784 1.429 . S
C800 C796 1.429 . S
C800 C801 1.523 . S
C801 C785 1.368 . S
C801 C797 1.368 . S
C801 C800 1.523 . S
H802 C777 0.950 . S
H803 C779 0.950 . S
H804 C780 0.949 . S
H805 C782 0.950 . S
H806 C784 0.950 . S
C807 C808 1.356 . S
C807 C809 1.327 . S
C807 H832 0.950 1_556 S
C808 C807 1.356 . S
C808 C824 1.357 . S
C809 C807 1.327 . S
C809 C828 1.429 . S
C809 H833 0.950 . S
C810 C827 1.574 . S
C810 C829 1.368 . S
C810 H834 0.949 . S
H811 C815 0.949 . S
C812 C813 1.349 . S
C812 C814 1.327 . S
C812 H835 0.950 . S
C813 C812 1.349 . S
C813 C825 1.349 . S
C814 C812 1.327 . S
C814 C830 1.429 . S
C814 H836 0.950 . S
C815 H811 0.949 . S
C815 C823 1.574 . S
C815 C831 1.368 . S
H816 C824 0.950 . S
H817 C822 0.950 . S
H818 C823 0.949 . S
H819 C825 0.950 . S
H820 C826 0.950 . S
H821 C827 0.949 . S
C822 H817 0.950 . S
C822 C824 1.327 . S
C822 C828 1.429 . S
C823 C815 1.574 . S
C823 H818 0.949 . S
C823 C829 1.368 . S
C824 C808 1.357 . S
C824 H816 0.950 . S
C824 C822 1.327 . S
C825 C813 1.349 . S
C825 H819 0.950 . S
C825 C826 1.327 . S
C826 H820 0.950 . S
C826 C825 1.327 . S
C826 C830 1.429 . S
C827 C810 1.574 . S
C827 H821 0.949 . S
C827 C831 1.368 . S
C828 C809 1.429 . S
C828 C822 1.429 . S
C828 C829 1.523 . S
C829 C810 1.368 . S
C829 C823 1.368 . S
C829 C828 1.523 . S
C830 C814 1.429 . S
C830 C826 1.429 . S
C830 C831 1.523 . S
C831 C815 1.368 . S
C831 C827 1.368 . S
C831 C830 1.523 . S
H832 C807 0.950 1_554 S
H833 C809 0.950 . S
H834 C810 0.949 . S
H835 C812 0.950 . S
H836 C814 0.950 . S
C837 C838 1.349 . S
C837 C839 1.327 . S
C837 H862 0.950 . S
C838 C837 1.349 . S
C838 C854 1.349 . S
C839 C837 1.327 . S
C839 C858 1.429 . S
C839 H863 0.950 . S
C840 C857 1.574 . S
C840 C859 1.368 . S
C840 H864 0.949 . S
H841 C845 0.949 . S
C842 C843 1.349 . S
C842 C844 1.327 . S
C842 H865 0.950 . S
C843 C842 1.349 . S
C843 C855 1.349 . S
C844 C842 1.327 . S
C844 C860 1.429 . S
C844 H866 0.950 . S
C845 H841 0.949 . S
C845 C853 1.574 . S
C845 C861 1.368 . S
H846 C854 0.950 . S
H847 C852 0.950 . S
H848 C853 0.949 . S
H849 C855 0.950 . S
H850 C856 0.950 . S
H851 C857 0.949 . S
C852 H847 0.950 . S
C852 C854 1.327 . S
C852 C858 1.429 . S
C853 C845 1.574 . S
C853 H848 0.949 . S
C853 C859 1.368 . S
C854 C838 1.349 . S
C854 H846 0.950 . S
C854 C852 1.327 . S
C855 C843 1.349 . S
C855 H849 0.950 . S
C855 C856 1.327 . S
C856 H850 0.950 . S
C856 C855 1.327 . S
C856 C860 1.429 . S
C857 C840 1.574 . S
C857 H851 0.949 . S
C857 C861 1.368 . S
C858 C839 1.429 . S
C858 C852 1.429 . S
C858 C859 1.523 . S
C859 C840 1.368 . S
C859 C853 1.368 . S
C859 C858 1.523 . S
C860 C844 1.429 . S
C860 C856 1.429 . S
C860 C861 1.523 . S
C861 C845 1.368 . S
C861 C857 1.368 . S
C861 C860 1.523 . S
H862 C837 0.950 . S
H863 C839 0.950 . S
H864 C840 0.949 . S
H865 C842 0.950 . S
H866 C844 0.950 . S
C867 C868 1.349 . S
C867 C869 1.327 . S
C867 H892 0.950 . S
C868 C867 1.349 . S
C868 C884 1.349 1_556 S
C869 C867 1.327 . S
C869 C888 1.429 . S
C869 H893 0.950 . S
C870 C887 1.574 . S
C870 C889 1.368 . S
C870 H894 0.949 . S
H871 C875 0.949 . S
C872 C873 1.349 . S
C872 C874 1.327 . S
C872 H895 0.950 . S
C873 C872 1.349 . S
C873 C885 1.349 . S
C874 C872 1.327 . S
C874 C890 1.429 . S
C874 H896 0.950 . S
C875 H871 0.949 . S
C875 C883 1.574 . S
C875 C891 1.368 . S
H876 C884 0.950 . S
H877 C882 0.950 . S
H878 C883 0.949 . S
H879 C885 0.950 . S
H880 C886 0.950 . S
H881 C887 0.949 . S
C882 H877 0.950 . S
C882 C884 1.327 1_556 S
C882 C888 1.429 . S
C883 C875 1.574 . S
C883 H878 0.949 . S
C883 C889 1.368 . S
C884 C868 1.349 1_554 S
C884 H876 0.950 . S
C884 C882 1.327 1_554 S
C885 C873 1.349 . S
C885 H879 0.950 . S
C885 C886 1.327 . S
C886 H880 0.950 . S
C886 C885 1.327 . S
C886 C890 1.429 . S
C887 C870 1.574 . S
C887 H881 0.949 . S
C887 C891 1.368 . S
C888 C869 1.429 . S
C888 C882 1.429 . S
C888 C889 1.523 . S
C889 C870 1.368 . S
C889 C883 1.368 . S
C889 C888 1.523 . S
C890 C874 1.429 . S
C890 C886 1.429 . S
C890 C891 1.523 . S
C891 C875 1.368 . S
C891 C887 1.368 . S
C891 C890 1.523 . S
H892 C867 0.950 . S
H893 C869 0.950 . S
H894 C870 0.949 . S
H895 C872 0.950 . S
H896 C874 0.950 . S
C897 C898 1.349 . S
C897 C899 1.327 . S
C897 H922 0.950 . S
C898 C897 1.349 . S
C898 C914 1.349 . S
C899 C897 1.327 . S
C899 C918 1.429 . S
C899 H923 0.950 . S
C900 C917 1.574 . S
C900 C919 1.368 . S
C900 H924 0.949 . S
H901 C905 0.949 . S
C902 C903 1.349 . S
C902 C904 1.327 . S
C902 H925 0.950 . S
C903 C902 1.349 . S
C903 C915 1.349 . S
C904 C902 1.327 . S
C904 C920 1.429 . S
C904 H926 0.950 . S
C905 H901 0.949 . S
C905 C913 1.574 . S
C905 C921 1.368 . S
H906 C914 0.950 . S
H907 C912 0.950 . S
H908 C913 0.949 . S
H909 C915 0.950 . S
H910 C916 0.950 . S
H911 C917 0.949 . S
C912 H907 0.950 . S
C912 C914 1.327 . S
C912 C918 1.429 . S
C913 C905 1.574 . S
C913 H908 0.949 . S
C913 C919 1.368 . S
C914 C898 1.349 . S
C914 H906 0.950 . S
C914 C912 1.327 . S
C915 C903 1.349 . S
C915 H909 0.950 . S
C915 C916 1.327 . S
C916 H910 0.950 . S
C916 C915 1.327 . S
C916 C920 1.429 . S
C917 C900 1.574 . S
C917 H911 0.949 . S
C917 C921 1.368 . S
C918 C899 1.429 . S
C918 C912 1.429 . S
C918 C919 1.523 . S
C919 C900 1.368 . S
C919 C913 1.368 . S
C919 C918 1.523 . S
C920 C904 1.429 . S
C920 C916 1.429 . S
C920 C921 1.523 . S
C921 C905 1.368 . S
C921 C917 1.368 . S
C921 C920 1.523 . S
H922 C897 0.950 . S
H923 C899 0.950 . S
H924 C900 0.949 . S
H925 C902 0.950 . S
H926 C904 0.950 . S
C927 C928 1.349 . S
C927 C929 1.327 . S
C927 H952 0.950 . S
C928 C927 1.349 . S
C928 C944 1.349 . S
C929 C927 1.327 . S
C929 C948 1.429 . S
C929 H953 0.950 . S
C930 C947 1.574 . S
C930 C949 1.368 . S
C930 H954 0.949 . S
H931 C935 0.949 . S
C932 C933 1.349 . S
C932 C934 1.327 . S
C932 H955 0.950 . S
C933 C932 1.349 . S
C933 C945 1.349 . S
C934 C932 1.327 . S
C934 C950 1.429 . S
C934 H956 0.950 . S
C935 H931 0.949 . S
C935 C943 1.574 . S
C935 C951 1.368 . S
H936 C944 0.950 . S
H937 C942 0.950 . S
H938 C943 0.949 . S
H939 C945 0.950 . S
H940 C946 0.950 . S
H941 C947 0.949 . S
C942 H937 0.950 . S
C942 C944 1.327 . S
C942 C948 1.429 . S
C943 C935 1.574 . S
C943 H938 0.949 . S
C943 C949 1.368 . S
C944 C928 1.349 . S
C944 H936 0.950 . S
C944 C942 1.327 . S
C945 C933 1.349 . S
C945 H939 0.950 . S
C945 C946 1.327 . S
C946 H940 0.950 . S
C946 C945 1.327 . S
C946 C950 1.429 . S
C947 C930 1.574 . S
C947 H941 0.949 . S
C947 C951 1.368 . S
C948 C929 1.429 . S
C948 C942 1.429 . S
C948 C949 1.523 . S
C949 C930 1.368 . S
C949 C943 1.368 . S
C949 C948 1.523 . S
C950 C934 1.429 . S
C950 C946 1.429 . S
C950 C951 1.523 . S
C951 C935 1.368 . S
C951 C947 1.368 . S
C951 C950 1.523 . S
H952 C927 0.950 . S
H953 C929 0.950 . S
H954 C930 0.949 . S
H955 C932 0.950 . S
H956 C934 0.950 . S
C957 C958 1.349 . S
C957 C959 1.327 . S
C957 H982 0.950 . S
C958 C957 1.349 . S
C958 C974 1.349 . S
C959 C957 1.327 . S
C959 C978 1.429 . S
C959 H983 0.950 . S
C960 C977 1.574 . S
C960 C979 1.368 . S
C960 H984 0.949 . S
H961 C965 0.949 . S
C962 C963 1.349 . S
C962 C964 1.327 . S
C962 H985 0.950 . S
C963 C962 1.349 . S
C963 C975 1.349 . S
C964 C962 1.327 . S
C964 C980 1.429 . S
C964 H986 0.950 . S
C965 H961 0.949 . S
C965 C973 1.574 . S
C965 C981 1.368 . S
H966 C974 0.950 . S
H967 C972 0.950 . S
H968 C973 0.949 . S
H969 C975 0.950 . S
H970 C976 0.950 . S
H971 C977 0.949 . S
C972 H967 0.950 . S
C972 C974 1.327 . S
C972 C978 1.429 . S
C973 C965 1.574 . S
C973 H968 0.949 . S
C973 C979 1.368 . S
C974 C958 1.349 . S
C974 H966 0.950 . S
C974 C972 1.327 . S
C975 C963 1.349 . S
C975 H969 0.950 . S
C975 C976 1.327 . S
C976 H970 0.950 . S
C976 C975 1.327 . S
C976 C980 1.429 . S
C977 C960 1.574 . S
C977 H971 0.949 . S
C977 C981 1.368 . S
C978 C959 1.429 . S
C978 C972 1.429 . S
C978 C979 1.523 1_554 S
C979 C960 1.368 . S
C979 C973 1.368 . S
C979 C978 1.523 1_556 S
C980 C964 1.429 . S
C980 C976 1.429 . S
C980 C981 1.523 . S
C981 C965 1.368 . S
C981 C977 1.368 . S
C981 C980 1.523 . S
H982 C957 0.950 . S
H983 C959 0.950 . S
H984 C960 0.949 . S
H985 C962 0.950 . S
H986 C964 0.950 . S
C987 C988 1.349 . S
C987 C989 1.327 1_554 S
C987 H1012 0.950 . S
C988 C987 1.349 . S
C988 C1004 1.349 1_554 S
C989 C987 1.327 1_556 S
C989 C1008 1.429 . S
C989 H1013 0.950 . S
C990 C1007 1.574 . S
C990 C1009 1.368 . S
C990 H1014 0.949 . S
H991 C995 0.949 . S
C992 C993 1.349 . S
C992 C994 1.327 . S
C992 H1015 0.950 . S
C993 C992 1.349 . S
C993 C1005 1.349 . S
C994 C992 1.327 . S
C994 C1010 1.429 . S
C994 H1016 0.950 . S
C995 H991 0.949 . S
C995 C1003 1.574 . S
C995 C1011 1.368 . S
H996 C1004 0.950 . S
H997 C1002 0.950 . S
H998 C1003 0.949 . S
H999 C1005 0.950 . S
H1000 C1006 0.950 . S
H1001 C1007 0.949 . S
C1002 H997 0.950 . S
C1002 C1004 1.327 . S
C1002 C1008 1.429 . S
C1003 C995 1.574 . S
C1003 H998 0.949 . S
C1003 C1009 1.368 . S
C1004 C988 1.349 1_556 S
C1004 H996 0.950 . S
C1004 C1002 1.327 . S
C1005 C993 1.349 . S
C1005 H999 0.950 . S
C1005 C1006 1.327 . S
C1006 H1000 0.950 . S
C1006 C1005 1.327 . S
C1006 C1010 1.429 . S
C1007 C990 1.574 . S
C1007 H1001 0.949 . S
C1007 C1011 1.368 . S
C1008 C989 1.429 . S
C1008 C1002 1.429 . S
C1008 C1009 1.523 . S
C1009 C990 1.368 . S
C1009 C1003 1.368 . S
C1009 C1008 1.523 . S
C1010 C994 1.429 . S
C1010 C1006 1.429 . S
C1010 C1011 1.523 . S
C1011 C995 1.368 . S
C1011 C1007 1.368 . S
C1011 C1010 1.523 . S
H1012 C987 0.950 . S
H1013 C989 0.950 . S
H1014 C990 0.949 . S
H1015 C992 0.950 . S
H1016 C994 0.950 . S
C1017 C1018 1.349 . S
C1017 C1019 1.327 . S
C1017 H1042 0.950 . S
C1018 C1017 1.349 . S
C1018 C1034 1.349 . S
C1019 C1017 1.327 . S
C1019 C1038 1.429 . S
C1019 H1043 0.950 . S
C1020 C1037 1.574 . S
C1020 C1039 1.368 . S
C1020 H1044 0.949 . S
H1021 C1025 0.949 . S
C1022 C1023 1.349 . S
C1022 C1024 1.327 . S
C1022 H1045 0.950 . S
C1023 C1022 1.349 . S
C1023 C1035 1.349 . S
C1024 C1022 1.327 . S
C1024 C1040 1.429 . S
C1024 H1046 0.950 . S
C1025 H1021 0.949 . S
C1025 C1033 1.574 . S
C1025 C1041 1.368 . S
H1026 C1034 0.950 . S
H1027 C1032 0.950 . S
H1028 C1033 0.949 . S
H1029 C1035 0.950 . S
H1030 C1036 0.950 . S
H1031 C1037 0.949 . S
C1032 H1027 0.950 . S
C1032 C1034 1.327 . S
C1032 C1038 1.429 . S
C1033 C1025 1.574 . S
C1033 H1028 0.949 . S
C1033 C1039 1.368 . S
C1034 C1018 1.349 . S
C1034 H1026 0.950 . S
C1034 C1032 1.327 . S
C1035 C1023 1.349 . S
C1035 H1029 0.950 . S
C1035 C1036 1.327 . S
C1036 H1030 0.950 . S
C1036 C1035 1.327 . S
C1036 C1040 1.429 . S
C1037 C1020 1.574 . S
C1037 H1031 0.949 . S
C1037 C1041 1.368 . S
C1038 C1019 1.429 . S
C1038 C1032 1.429 . S
C1038 C1039 1.523 . S
C1039 C1020 1.368 . S
C1039 C1033 1.368 . S
C1039 C1038 1.523 . S
C1040 C1024 1.429 . S
C1040 C1036 1.429 . S
C1040 C1041 1.523 . S
C1041 C1025 1.368 . S
C1041 C1037 1.368 . S
C1041 C1040 1.523 . S
H1042 C1017 0.950 . S
H1043 C1019 0.950 . S
H1044 C1020 0.949 . S
H1045 C1022 0.950 . S
H1046 C1024 0.950 . S
C1047 C1048 1.349 . S
C1047 C1049 1.327 . S
C1047 H1072 0.950 . S
C1048 C1047 1.349 . S
C1048 C1064 1.349 . S
C1049 C1047 1.327 . S
C1049 C1068 1.429 . S
C1049 H1073 0.950 . S
C1050 C1067 1.574 . S
C1050 C1069 1.368 . S
C1050 H1074 0.949 . S
H1051 C1055 0.949 . S
C1052 C1053 1.349 . S
C1052 C1054 1.327 . S
C1052 H1075 0.950 . S
C1053 C1052 1.349 . S
C1053 C1065 1.349 . S
C1054 C1052 1.327 . S
C1054 C1070 1.429 . S
C1054 H1076 0.950 . S
C1055 H1051 0.949 . S
C1055 C1063 1.574 . S
C1055 C1071 1.368 . S
H1056 C1064 0.950 . S
H1057 C1062 0.950 . S
H1058 C1063 0.949 . S
H1059 C1065 0.950 . S
H1060 C1066 0.950 . S
H1061 C1067 0.949 . S
C1062 H1057 0.950 . S
C1062 C1064 1.327 . S
C1062 C1068 1.429 . S
C1063 C1055 1.574 . S
C1063 H1058 0.949 . S
C1063 C1069 1.368 . S
C1064 C1048 1.349 . S
C1064 H1056 0.950 . S
C1064 C1062 1.327 . S
C1065 C1053 1.349 . S
C1065 H1059 0.950 . S
C1065 C1066 1.327 . S
C1066 H1060 0.950 . S
C1066 C1065 1.327 . S
C1066 C1070 1.429 . S
C1067 C1050 1.574 . S
C1067 H1061 0.949 . S
C1067 C1071 1.368 . S
C1068 C1049 1.429 . S
C1068 C1062 1.429 . S
C1068 C1069 1.523 . S
C1069 C1050 1.368 . S
C1069 C1063 1.368 . S
C1069 C1068 1.523 . S
C1070 C1054 1.429 . S
C1070 C1066 1.429 . S
C1070 C1071 1.523 . S
C1071 C1055 1.368 . S
C1071 C1067 1.368 . S
C1071 C1070 1.523 . S
H1072 C1047 0.950 . S
H1073 C1049 0.950 . S
H1074 C1050 0.949 . S
H1075 C1052 0.950 . S
H1076 C1054 0.950 . S
C1077 C1078 1.349 . S
C1077 C1079 1.327 . S
C1077 H1102 0.950 . S
C1078 C1077 1.349 . S
C1078 C1094 1.349 . S
C1079 C1077 1.327 . S
C1079 C1098 1.429 . S
C1079 H1103 0.950 . S
C1080 C1097 1.574 . S
C1080 C1099 1.368 . S
C1080 H1104 0.949 . S
H1081 C1085 0.949 . S
C1082 C1083 1.349 . S
C1082 C1084 1.327 . S
C1082 H1105 0.950 . S
C1083 C1082 1.349 . S
C1083 C1095 1.349 . S
C1084 C1082 1.327 . S
C1084 C1100 1.429 . S
C1084 H1106 0.950 . S
C1085 H1081 0.949 . S
C1085 C1093 1.574 . S
C1085 C1101 1.368 . S
H1086 C1094 0.950 . S
H1087 C1092 0.950 . S
H1088 C1093 0.949 . S
H1089 C1095 0.950 . S
H1090 C1096 0.950 . S
H1091 C1097 0.949 . S
C1092 H1087 0.950 . S
C1092 C1094 1.327 . S
C1092 C1098 1.429 . S
C1093 C1085 1.574 . S
C1093 H1088 0.949 . S
C1093 C1099 1.368 . S
C1094 C1078 1.349 . S
C1094 H1086 0.950 . S
C1094 C1092 1.327 . S
C1095 C1083 1.349 . S
C1095 H1089 0.950 . S
C1095 C1096 1.327 . S
C1096 H1090 0.950 . S
C1096 C1095 1.327 . S
C1096 C1100 1.429 . S
C1097 C1080 1.574 . S
C1097 H1091 0.949 . S
C1097 C1101 1.368 . S
C1098 C1079 1.429 . S
C1098 C1092 1.429 . S
C1098 C1099 1.523 . S
C1099 C1080 1.368 . S
C1099 C1093 1.368 . S
C1099 C1098 1.523 . S
C1100 C1084 1.429 . S
C1100 C1096 1.429 . S
C1100 C1101 1.523 . S
C1101 C1085 1.368 . S
C1101 C1097 1.368 . S
C1101 C1100 1.523 . S
H1102 C1077 0.950 . S
H1103 C1079 0.950 . S
H1104 C1080 0.949 . S
H1105 C1082 0.950 . S
H1106 C1084 0.950 . S
C1107 C1108 1.349 . S
C1107 C1109 1.327 . S
C1107 H1132 0.950 . S
C1108 C1107 1.349 . S
C1108 C1124 1.349 . S
C1109 C1107 1.327 . S
C1109 C1128 1.429 . S
C1109 H1133 0.950 . S
C1110 C1127 1.574 . S
C1110 C1129 1.368 . S
C1110 H1134 0.949 . S
H1111 C1115 0.949 . S
C1112 C1113 1.349 . S
C1112 C1114 1.327 . S
C1112 H1135 0.950 . S
C1113 C1112 1.349 . S
C1113 C1125 1.349 . S
C1114 C1112 1.327 . S
C1114 C1130 1.429 . S
C1114 H1136 0.950 . S
C1115 H1111 0.949 . S
C1115 C1123 1.574 . S
C1115 C1131 1.368 . S
H1116 C1124 0.950 . S
H1117 C1122 0.950 . S
H1118 C1123 0.949 . S
H1119 C1125 0.950 . S
H1120 C1126 0.950 . S
H1121 C1127 0.949 . S
C1122 H1117 0.950 . S
C1122 C1124 1.327 . S
C1122 C1128 1.429 . S
C1123 C1115 1.574 . S
C1123 H1118 0.949 . S
C1123 C1129 1.368 . S
C1124 C1108 1.349 . S
C1124 H1116 0.950 . S
C1124 C1122 1.327 . S
C1125 C1113 1.349 . S
C1125 H1119 0.950 . S
C1125 C1126 1.327 . S
C1126 H1120 0.950 . S
C1126 C1125 1.327 . S
C1126 C1130 1.429 . S
C1127 C1110 1.574 . S
C1127 H1121 0.949 . S
C1127 C1131 1.368 . S
C1128 C1109 1.429 . S
C1128 C1122 1.429 . S
C1128 C1129 1.523 . S
C1129 C1110 1.368 . S
C1129 C1123 1.368 . S
C1129 C1128 1.523 . S
C1130 C1114 1.429 . S
C1130 C1126 1.429 . S
C1130 C1131 1.523 . S
C1131 C1115 1.368 . S
C1131 C1127 1.368 . S
C1131 C1130 1.523 . S
H1132 C1107 0.950 . S
H1133 C1109 0.950 . S
H1134 C1110 0.949 . S
H1135 C1112 0.950 . S
H1136 C1114 0.950 . S
C1137 C1138 1.349 . S
C1137 C1139 1.327 . S
C1137 H1162 0.950 . S
C1138 C1137 1.349 . S
C1138 C1154 1.349 . S
C1139 C1137 1.327 . S
C1139 C1158 1.429 . S
C1139 H1163 0.950 . S
C1140 C1157 1.574 . S
C1140 C1159 1.368 . S
C1140 H1164 0.949 . S
H1141 C1145 0.949 . S
C1142 C1143 1.349 . S
C1142 C1144 1.327 . S
C1142 H1165 0.950 . S
C1143 C1142 1.349 . S
C1143 C1155 1.349 . S
C1144 C1142 1.327 . S
C1144 C1160 1.429 . S
C1144 H1166 0.950 . S
C1145 H1141 0.949 . S
C1145 C1153 1.574 . S
C1145 C1161 1.368 . S
H1146 C1154 0.950 . S
H1147 C1152 0.950 . S
H1148 C1153 0.949 . S
H1149 C1155 0.950 . S
H1150 C1156 0.950 . S
H1151 C1157 0.949 . S
C1152 H1147 0.950 . S
C1152 C1154 1.327 . S
C1152 C1158 1.429 . S
C1153 C1145 1.574 . S
C1153 H1148 0.949 . S
C1153 C1159 1.368 . S
C1154 C1138 1.349 . S
C1154 H1146 0.950 . S
C1154 C1152 1.327 . S
C1155 C1143 1.349 . S
C1155 H1149 0.950 . S
C1155 C1156 1.327 . S
C1156 H1150 0.950 . S
C1156 C1155 1.327 . S
C1156 C1160 1.429 . S
C1157 C1140 1.574 . S
C1157 H1151 0.949 . S
C1157 C1161 1.368 . S
C1158 C1139 1.429 . S
C1158 C1152 1.429 . S
C1158 C1159 1.523 . S
C1159 C1140 1.368 . S
C1159 C1153 1.368 . S
C1159 C1158 1.523 . S
C1160 C1144 1.429 . S
C1160 C1156 1.429 . S
C1160 C1161 1.523 . S
C1161 C1145 1.368 . S
C1161 C1157 1.368 . S
C1161 C1160 1.523 . S
H1162 C1137 0.950 . S
H1163 C1139 0.950 . S
H1164 C1140 0.949 . S
H1165 C1142 0.950 . S
H1166 C1144 0.950 . S
C1167 C1168 1.349 . S
C1167 C1169 1.327 . S
C1167 H1192 0.950 . S
C1168 C1167 1.349 . S
C1168 C1184 1.349 . S
C1169 C1167 1.327 . S
C1169 C1188 1.429 . S
C1169 H1193 0.950 . S
C1170 C1187 1.574 . S
C1170 C1189 1.368 . S
C1170 H1194 0.949 . S
H1171 C1175 0.949 . S
C1172 C1173 1.349 . S
C1172 C1174 1.327 . S
C1172 H1195 0.950 . S
C1173 C1172 1.349 . S
C1173 C1185 1.349 . S
C1174 C1172 1.327 . S
C1174 C1190 1.429 . S
C1174 H1196 0.950 . S
C1175 H1171 0.949 . S
C1175 C1183 1.574 . S
C1175 C1191 1.368 . S
H1176 C1184 0.950 . S
H1177 C1182 0.950 . S
H1178 C1183 0.949 . S
H1179 C1185 0.950 . S
H1180 C1186 0.950 . S
H1181 C1187 0.949 . S
C1182 H1177 0.950 . S
C1182 C1184 1.327 . S
C1182 C1188 1.429 . S
C1183 C1175 1.574 . S
C1183 H1178 0.949 . S
C1183 C1189 1.368 . S
C1184 C1168 1.349 . S
C1184 H1176 0.950 . S
C1184 C1182 1.327 . S
C1185 C1173 1.349 . S
C1185 H1179 0.950 . S
C1185 C1186 1.327 . S
C1186 H1180 0.950 . S
C1186 C1185 1.327 . S
C1186 C1190 1.429 . S
C1187 C1170 1.574 . S
C1187 H1181 0.949 . S
C1187 C1191 1.368 . S
C1188 C1169 1.429 . S
C1188 C1182 1.429 . S
C1188 C1189 1.523 . S
C1189 C1170 1.368 . S
C1189 C1183 1.368 . S
C1189 C1188 1.523 . S
C1190 C1174 1.429 . S
C1190 C1186 1.429 . S
C1190 C1191 1.523 . S
C1191 C1175 1.368 . S
C1191 C1187 1.368 . S
C1191 C1190 1.523 . S
H1192 C1167 0.950 . S
H1193 C1169 0.950 . S
H1194 C1170 0.949 . S
H1195 C1172 0.950 . S
H1196 C1174 0.950 . S
C1197 C1198 1.349 . S
C1197 C1199 1.327 . S
C1197 H1222 0.950 . S
C1198 C1197 1.349 . S
C1198 C1214 1.349 . S
C1199 C1197 1.327 . S
C1199 C1218 1.429 . S
C1199 H1223 0.950 . S
C1200 C1217 1.574 . S
C1200 C1219 1.368 . S
C1200 H1224 0.949 . S
H1201 C1205 0.949 . S
C1202 C1203 1.349 . S
C1202 C1204 1.327 . S
C1202 H1225 0.950 . S
C1203 C1202 1.349 . S
C1203 C1215 1.349 . S
C1204 C1202 1.327 . S
C1204 C1220 1.429 . S
C1204 H1226 0.950 . S
C1205 H1201 0.949 . S
C1205 C1213 1.574 . S
C1205 C1221 1.368 . S
H1206 C1214 0.950 . S
H1207 C1212 0.950 . S
H1208 C1213 0.949 . S
H1209 C1215 0.950 . S
H1210 C1216 0.950 . S
H1211 C1217 0.949 . S
C1212 H1207 0.950 . S
C1212 C1214 1.327 . S
C1212 C1218 1.429 . S
C1213 C1205 1.574 . S
C1213 H1208 0.949 . S
C1213 C1219 1.368 . S
C1214 C1198 1.349 . S
C1214 H1206 0.950 . S
C1214 C1212 1.327 . S
C1215 C1203 1.349 . S
C1215 H1209 0.950 . S
C1215 C1216 1.327 . S
C1216 H1210 0.950 . S
C1216 C1215 1.327 . S
C1216 C1220 1.429 . S
C1217 C1200 1.574 . S
C1217 H1211 0.949 . S
C1217 C1221 1.368 . S
C1218 C1199 1.429 . S
C1218 C1212 1.429 . S
C1218 C1219 1.523 . S
C1219 C1200 1.368 . S
C1219 C1213 1.368 . S
C1219 C1218 1.523 . S
C1220 C1204 1.429 . S
C1220 C1216 1.429 . S
C1220 C1221 1.523 . S
C1221 C1205 1.368 . S
C1221 C1217 1.368 . S
C1221 C1220 1.523 . S
H1222 C1197 0.950 . S
H1223 C1199 0.950 . S
H1224 C1200 0.949 . S
H1225 C1202 0.950 . S
H1226 C1204 0.950 . S
C1227 C1228 1.349 . S
C1227 C1229 1.327 . S
C1227 H1252 0.950 . S
C1228 C1227 1.349 . S
C1228 C1244 1.349 . S
C1229 C1227 1.327 . S
C1229 C1248 1.429 . S
C1229 H1253 0.950 . S
C1230 C1247 1.574 . S
C1230 C1249 1.368 . S
C1230 H1254 0.949 . S
H1231 C1235 0.949 . S
C1232 C1233 1.349 . S
C1232 C1234 1.327 . S
C1232 H1255 0.950 . S
C1233 C1232 1.349 . S
C1233 C1245 1.349 . S
C1234 C1232 1.327 . S
C1234 C1250 1.429 . S
C1234 H1256 0.950 . S
C1235 H1231 0.949 . S
C1235 C1243 1.574 . S
C1235 C1251 1.368 . S
H1236 C1244 0.950 . S
H1237 C1242 0.950 . S
H1238 C1243 0.949 . S
H1239 C1245 0.950 . S
H1240 C1246 0.950 . S
H1241 C1247 0.949 . S
C1242 H1237 0.950 . S
C1242 C1244 1.327 . S
C1242 C1248 1.429 . S
C1243 C1235 1.574 . S
C1243 H1238 0.949 . S
C1243 C1249 1.368 . S
C1244 C1228 1.349 . S
C1244 H1236 0.950 . S
C1244 C1242 1.327 . S
C1245 C1233 1.349 . S
C1245 H1239 0.950 . S
C1245 C1246 1.327 . S
C1246 H1240 0.950 . S
C1246 C1245 1.327 . S
C1246 C1250 1.429 . S
C1247 C1230 1.574 . S
C1247 H1241 0.949 . S
C1247 C1251 1.368 . S
C1248 C1229 1.429 . S
C1248 C1242 1.429 . S
C1248 C1249 1.523 . S
C1249 C1230 1.368 . S
C1249 C1243 1.368 . S
C1249 C1248 1.523 . S
C1250 C1234 1.429 . S
C1250 C1246 1.429 . S
C1250 C1251 1.523 . S
C1251 C1235 1.368 . S
C1251 C1247 1.368 . S
C1251 C1250 1.523 . S
H1252 C1227 0.950 . S
H1253 C1229 0.950 . S
H1254 C1230 0.949 . S
H1255 C1232 0.950 . S
H1256 C1234 0.950 . S
C538 C39 1.906 . S
C543 C455 1.870 . S
C568 C125 0.795 . S
C573 C502 0.793 . S
C603 C506 2.115 . S
C598 C211 2.061 . S
C633 C471 0.746 . S
C628 C273 0.746 . S
C658 C335 1.941 . S
C663 C486 1.924 . S
C693 C508 1.271 . S
C688 C439 1.304 . S
C723 C477 1.325 . S
C718 C187 1.337 . S
C748 C291 1.864 . S
C753 C517 1.817 . S
C783 C446 1.522 . S
C778 C359 1.459 . S
C808 C421 0.601 1_556 S
C813 C475 0.637 . S
C838 C63 2.190 1_556 S
C843 C533 2.278 . S
C873 C444 2.015 . S
C868 C143 2.056 1_556 S
C903 C462 2.087 . S
C898 C285 2.015 . S
C933 C476 2.047 . S
C928 C365 2.096 . S
C963 C530 2.038 . S
C958 C409 2.028 . S
C993 C445 1.991 . S
C988 C69 2.047 . S
C1023 C493 1.943 . S
C1018 C137 1.908 . S
C1048 C199 0.420 . S
C1053 C516 0.557 . S
C1083 C485 1.549 . S
C1078 C433 1.476 . S
C1113 C524 0.431 . S
C1108 C51 0.329 . S
C1143 C454 1.335 . S
C1138 C113 1.349 . S
C1173 C499 1.898 . S
C1168 C217 1.951 . S
C1198 C261 2.122 . S
C1203 C507 2.115 . S
C1228 C347 0.558 . S
C1233 C468 0.586 . S
