# Generated by pormake.
# Topology tsx, (6,3)-cn, num edge types: 1
# Building blocks:
#     Node 0, Type 0, BuildingBlock: VOLQOD_clean_sbu_1, # of connection points: 6
#     Node 1, Type 0, BuildingBlock: VOLQOD_clean_sbu_1, # of connection points: 6
#     Node 2, Type 1, BuildingBlock: VETTIZ_charged_linker_0, # of connection points: 3
#     Node 3, Type 1, BuildingBlock: VETTIZ_charged_linker_0, # of connection points: 3
#     Node 4, Type 1, BuildingBlock: VETTIZ_charged_linker_0, # of connection points: 3
#     Node 5, Type 1, BuildingBlock: VETTIZ_charged_linker_0, # of connection points: 3
#     Edge 6, Type (0, 1), BuildingBlock: MIFKUJ_clean_linker_0, # of connection points: 2
#     Edge 7, Type (0, 1), BuildingBlock: MIFKUJ_clean_linker_0, # of connection points: 2
#     Edge 8, Type (0, 1), BuildingBlock: MIFKUJ_clean_linker_0, # of connection points: 2
#     Edge 9, Type (0, 1), BuildingBlock: MIFKUJ_clean_linker_0, # of connection points: 2
#     Edge 10, Type (0, 1), BuildingBlock: MIFKUJ_clean_linker_0, # of connection points: 2
#     Edge 11, Type (0, 1), BuildingBlock: MIFKUJ_clean_linker_0, # of connection points: 2
#     Edge 12, Type (0, 1), BuildingBlock: MIFKUJ_clean_linker_0, # of connection points: 2
#     Edge 13, Type (0, 1), BuildingBlock: MIFKUJ_clean_linker_0, # of connection points: 2
#     Edge 14, Type (0, 1), BuildingBlock: MIFKUJ_clean_linker_0, # of connection points: 2
#     Edge 15, Type (0, 1), BuildingBlock: MIFKUJ_clean_linker_0, # of connection points: 2
#     Edge 16, Type (0, 1), BuildingBlock: MIFKUJ_clean_linker_0, # of connection points: 2
#     Edge 17, Type (0, 1), BuildingBlock: MIFKUJ_clean_linker_0, # of connection points: 2
# Relax obj value: 0.078
# Max RMSD: 0.110
# Mean RMSD: 0.086
data_MOF--net-tsx--node1-VOLQOD_clean_sbu_1--node2-VETTIZ_charged_linker_0--edge1-MIFKUJ_clean_linker_0
_symmetry_space_group_name_H-M    P1
_symmetry_Int_Tables_number       1
_symmetry_cell_setting            triclinic
loop_
_symmetry_equiv_pos_as_xyz
'x, y, z'
_cell_length_a     30.546592
_cell_length_b     31.676272
_cell_length_c     60.906941
_cell_angle_alpha  90.315763
_cell_angle_beta   89.923467
_cell_angle_gamma 90.031158
loop_
_atom_site_label
_atom_site_type_symbol
_atom_site_fract_x
_atom_site_fract_y
_atom_site_fract_z
_atom_type_partial_charge
O0 O 0.03877 0.00384 0.0642 0.0
Zn1 Zn 0.05756 0.00088 0.03249 0.0
O2 O 0.00773 0.00741 0.01271 0.0
Zn3 Zn 0.00396 0.95838 0.99321 0.0
Zn4 Zn 0.95415 0.01152 0.02994 0.0
Zn5 Zn 0.01477 0.05878 0.99535 0.0
O6 O 0.0078 0.97555 0.96157 0.0
O7 O 0.01624 0.04512 0.96304 0.0
O8 O 0.08902 0.94586 0.02725 0.0
O9 O 0.05292 0.91786 0.99912 0.0
O10 O 0.94774 0.92627 0.99755 0.0
O11 O 0.91477 0.96228 0.02415 0.0
O12 O 0.92025 0.06357 0.02245 0.0
O13 O 0.10114 0.04729 0.02777 0.0
O14 O 0.96429 0.09869 -0.0 0.0
O15 O 0.07076 0.08895 0.00287 0.0
C16 C 0.00175 0.00913 0.07346 0.0
C17 C 0.01283 0.01093 0.95207 0.0
C18 C 0.91579 0.93139 0.01073 0.0
C19 C 0.08369 0.91645 0.01317 0.0
C20 C 0.92863 0.0957 0.01073 0.0
C21 C 0.10209 0.08013 0.01583 0.0
O22 O 0.96685 0.01289 0.06225 0.0
O23 O 0.5425 0.49663 0.56187 0.0
Zn24 Zn 0.56441 0.49624 0.53064 0.0
O25 O 0.51597 0.49976 0.50977 0.0
Zn26 Zn 0.51659 0.45002 0.49081 0.0
Zn27 Zn 0.46051 0.50248 0.52571 0.0
Zn28 Zn 0.52216 0.55018 0.49173 0.0
O29 O 0.51772 0.46586 0.45884 0.0
O30 O 0.52281 0.53573 0.45952 0.0
O31 O 0.60039 0.44356 0.52596 0.0
O32 O 0.56835 0.41349 0.49718 0.0
O33 O 0.4636 0.41407 0.49588 0.0
O34 O 0.42267 0.45246 0.51862 0.0
O35 O 0.42659 0.55461 0.51832 0.0
O36 O 0.60448 0.54599 0.52718 0.0
O37 O 0.47145 0.58947 0.49621 0.0
O38 O 0.57674 0.58223 0.49937 0.0
C39 C 0.50449 0.49998 0.57032 0.0
C40 C 0.52026 0.50106 0.44892 0.0
C41 C 0.42868 0.41957 0.50691 0.0
C42 C 0.59815 0.414 0.51175 0.0
C43 C 0.43558 0.58679 0.50676 0.0
C44 C 0.6058 0.57716 0.51408 0.0
O45 O 0.47049 0.50293 0.55835 0.0
C46 C 0.08403 0.89992 0.44159 0.0
C47 C 0.11084 0.87223 0.4295 0.0
C48 C 0.10959 0.87323 0.40639 0.0
C49 C 0.05576 0.92916 0.40771 0.0
C50 C 0.05666 0.92788 0.43038 0.0
C51 C 0.02543 0.95897 0.44063 0.0
H52 H 0.87248 0.11106 0.42764 0.0
C53 C 0.02403 0.96177 0.40116 0.0
C54 C 0.0059 0.9792 0.42034 0.0
H55 H 0.92201 0.05976 0.48837 0.0
H56 H 0.97038 0.01356 0.46801 0.0
H57 H 0.96569 0.11783 0.40388 0.0
H58 H 0.86504 0.0226 0.4017 0.0
H59 H 0.88446 0.02951 0.37479 0.0
H60 H 0.8588 0.07316 0.38891 0.0
H61 H 0.91477 0.12568 0.38982 0.0
H62 H 0.96091 0.10092 0.37648 0.0
C63 C 0.05238 0.99092 0.45445 0.0
C64 C 0.99081 0.9339 0.45387 0.0
C65 C 0.00273 0.99366 0.32042 0.0
C66 C 0.97584 0.02211 0.30908 0.0
C67 C 0.94687 0.04808 0.32108 0.0
C68 C 0.94522 0.04613 0.34408 0.0
C69 C 0.97272 0.01779 0.35519 0.0
C70 C 0.00062 0.99202 0.34331 0.0
C71 C 0.02706 0.96341 0.35772 0.0
C72 C 0.01093 0.97667 0.38027 0.0
C73 C 0.97921 0.00853 0.37872 0.0
C74 C 0.07612 0.97417 0.35434 0.0
C75 C 0.01458 0.91708 0.35216 0.0
C76 C 0.89341 0.08951 0.43654 0.0
C77 C 0.89323 0.0887 0.45962 0.0
C78 C 0.92172 0.06099 0.4706 0.0
C79 C 0.9496 0.03411 0.45874 0.0
C80 C 0.94914 0.0351 0.43565 0.0
C81 C 0.92149 0.06265 0.42496 0.0
C82 C 0.92591 0.06 0.4004 0.0
C83 C 0.96045 0.02593 0.39808 0.0
C84 C 0.97387 0.01145 0.41877 0.0
C85 C 0.94239 0.1033 0.39201 0.0
C86 C 0.8813 0.04587 0.39076 0.0
H87 H 0.08302 0.90089 0.37785 0.0
H88 H 0.084 0.89951 0.45938 0.0
H89 H 0.98267 0.9036 0.44548 0.0
H90 H 0.95924 0.9506 0.45538 0.0
H91 H 0.00307 0.92623 0.47054 0.0
H92 H 0.08438 -0.00228 0.44646 0.0
H93 H 0.05925 0.97836 0.47108 0.0
H94 H 0.03631 0.02199 0.45606 0.0
H95 H 0.02474 0.97271 0.31164 0.0
H96 H 0.92595 0.07038 0.3127 0.0
H97 H 0.92272 0.06687 0.35231 0.0
H98 H 0.0808 0.00882 0.35253 0.0
H99 H 0.08917 0.9587 0.33929 0.0
H100 H 0.0968 0.96537 0.36843 0.0
H101 H 0.98014 0.91472 0.34634 0.0
H102 H 0.01588 0.89615 0.36662 0.0
H103 H 0.03592 0.90397 0.33902 0.0
H104 H 0.13034 0.85248 0.39674 0.0
C105 C 0.08226 0.90154 0.39544 0.0
C106 C 0.11035 0.07855 0.57308 0.0
C107 C 0.14422 0.10301 0.58205 0.0
C108 C 0.15023 0.10411 0.60496 0.0
C109 C 0.08722 0.0587 0.60973 0.0
C110 C 0.08258 0.0564 0.58718 0.0
C111 C 0.04541 0.02821 0.58035 0.0
H112 H 0.88031 0.89808 0.60918 0.0
C113 C 0.05168 0.03372 0.61969 0.0
C114 C 0.02733 0.01551 0.60256 0.0
H115 H 0.92959 0.92391 0.54403 0.0
H116 H 0.98094 0.97425 0.55907 0.0
H117 H 0.97412 0.89292 0.63278 0.0
H118 H 0.88006 0.99291 0.62589 0.0
H119 H 0.90484 0.00078 0.65157 0.0
H120 H 0.87406 0.953 0.64644 0.0
H121 H 0.92115 0.89279 0.64561 0.0
H122 H 0.96743 0.91759 0.65855 0.0
C123 C 0.06473 0.99007 0.5675 0.0
C124 C 0.01213 0.0549 0.5672 0.0
C125 C 0.03314 0.03107 0.70262 0.0
C126 C 0.00121 0.01318 0.71635 0.0
C127 C 0.96629 0.99041 0.70692 0.0
C128 C 0.96351 0.98499 0.68414 0.0
C129 C 0.99588 0.00267 0.67061 0.0
C130 C 0.02959 0.02579 0.67986 0.0
C131 C 0.05978 0.04395 0.66281 0.0
C132 C 0.03885 0.02748 0.64184 0.0
C133 C 0.00178 0.00297 0.64656 0.0
C134 C 0.1061 0.02528 0.66637 0.0
C135 C 0.05741 0.09272 0.66455 0.0
C136 C 0.90232 0.9145 0.59818 0.0
C137 C 0.90135 0.90673 0.57544 0.0
C138 C 0.9297 0.92946 0.5616 0.0
C139 C 0.95975 0.95837 0.57039 0.0
C140 C 0.96144 0.96457 0.59325 0.0
C141 C 0.9326 0.94325 0.6067 0.0
C142 C 0.93923 0.95359 0.63058 0.0
C143 C 0.97798 0.98342 0.6293 0.0
C144 C 0.99068 0.98978 0.60742 0.0
C145 C 0.95087 0.91221 0.6427 0.0
C146 C 0.89745 0.97598 0.63926 0.0
H147 H 0.12757 0.08469 0.6362 0.0
H148 H 0.10554 0.07686 0.55547 0.0
H149 H 0.00791 0.08659 0.57488 0.0
H150 H 0.97904 0.0409 0.56683 0.0
H151 H 0.02349 0.05966 0.55006 0.0
H152 H 0.09902 0.98338 0.57256 0.0
H153 H 0.06505 0.99603 0.54955 0.0
H154 H 0.04697 0.9603 0.57073 0.0
H155 H 0.06 0.04921 0.70945 0.0
H156 H 0.94151 0.97614 0.71724 0.0
H157 H 0.93639 0.967 0.67797 0.0
H158 H 0.10413 0.9922 0.67235 0.0
H159 H 0.1247 0.0439 0.67873 0.0
H160 H 0.12539 0.02325 0.65104 0.0
H161 H 0.02337 0.10324 0.66811 0.0
H162 H 0.06636 0.10879 0.64916 0.0
H163 H 0.07869 0.10469 0.67799 0.0
H164 H 0.17616 0.12304 0.61212 0.0
C165 C 0.12181 0.08215 0.61888 0.0
C166 C 0.57814 0.4078 0.94273 0.0
C167 C 0.60334 0.37725 0.93178 0.0
C168 C 0.60024 0.37307 0.90883 0.0
C169 C 0.5479 0.43037 0.90787 0.0
C170 C 0.55025 0.4336 0.93049 0.0
C171 C 0.51929 0.46623 0.93955 0.0
H172 H 0.36509 0.61485 0.92123 0.0
C173 C 0.51608 0.46191 0.9001 0.0
C174 C 0.49876 0.48264 0.91858 0.0
H175 H 0.41413 0.57085 0.98364 0.0
H176 H 0.46339 0.5232 0.96491 0.0
H177 H 0.45879 0.61872 0.89723 0.0
H178 H 0.35764 0.52406 0.8986 0.0
H179 H 0.37705 0.52688 0.87148 0.0
H180 H 0.35181 0.57265 0.88386 0.0
H181 H 0.40808 0.6247 0.88273 0.0
H182 H 0.45433 0.598 0.87053 0.0
C183 C 0.54667 0.50063 0.95139 0.0
C184 C 0.48544 0.44357 0.95441 0.0
C185 C 0.49418 0.48299 0.81826 0.0
C186 C 0.46754 0.51031 0.80598 0.0
C187 C 0.43921 0.5382 0.81723 0.0
C188 C 0.43777 0.53915 0.84023 0.0
C189 C 0.46487 0.51187 0.85222 0.0
C190 C 0.49226 0.48425 0.84121 0.0
C191 C 0.51838 0.45723 0.85661 0.0
C192 C 0.5027 0.47375 0.8787 0.0
C193 C 0.47142 0.50573 0.87603 0.0
C194 C 0.56755 0.46666 0.85276 0.0
C195 C 0.50518 0.41044 0.85281 0.0
C196 C 0.38614 0.59466 0.93088 0.0
C197 C 0.38551 0.59641 0.95396 0.0
C198 C 0.41418 0.57029 0.96586 0.0
C199 C 0.44256 0.54244 0.95494 0.0
C200 C 0.44233 0.54069 0.93187 0.0
C201 C 0.41458 0.56668 0.92024 0.0
C202 C 0.41885 0.56066 0.89583 0.0
C203 C 0.45317 0.52615 0.89472 0.0
C204 C 0.46686 0.5147 0.91586 0.0
C205 C 0.43558 0.60262 0.88586 0.0
C206 C 0.37408 0.54555 0.88677 0.0
H207 H 0.5721 0.39525 0.87932 0.0
H208 H 0.57963 0.41102 0.96043 0.0
H209 H 0.47945 0.41064 0.94869 0.0
H210 H 0.45282 0.45862 0.95406 0.0
H211 H 0.49703 0.44198 0.97166 0.0
H212 H 0.57702 0.50772 0.94198 0.0
H213 H 0.55659 0.49009 0.96802 0.0
H214 H 0.52939 0.5311 0.95287 0.0
H215 H 0.51665 0.46144 0.81022 0.0
H216 H 0.41777 0.5591 0.80824 0.0
H217 H 0.41555 0.56108 0.84778 0.0
H218 H 0.57302 0.50116 0.85078 0.0
H219 H 0.57958 0.45065 0.83764 0.0
H220 H 0.58851 0.45729 0.86663 0.0
H221 H 0.47118 0.40775 0.8464 0.0
H222 H 0.50487 0.39198 0.86817 0.0
H223 H 0.52722 0.39483 0.84073 0.0
H224 H 0.61958 0.34957 0.90021 0.0
C225 C 0.57279 0.39964 0.89678 0.0
C226 C 0.58861 0.59957 0.07459 0.0
C227 C 0.61193 0.63241 0.08487 0.0
C228 C 0.60843 0.63757 0.10783 0.0
C229 C 0.56077 0.57664 0.10991 0.0
C230 C 0.5633 0.57227 0.08736 0.0
C231 C 0.53691 0.53555 0.07899 0.0
H232 H 0.41138 0.36513 0.10038 0.0
C233 C 0.53308 0.54215 0.11835 0.0
C234 C 0.51884 0.51811 0.1003 0.0
H235 H 0.44919 0.41415 0.03705 0.0
H236 H 0.48833 0.47132 0.05474 0.0
H237 H 0.50488 0.38109 0.12491 0.0
H238 H 0.38571 0.45303 0.12072 0.0
H239 H 0.4053 0.45923 0.14761 0.0
H240 H 0.39025 0.40732 0.13783 0.0
H241 H 0.45505 0.36549 0.13826 0.0
H242 H 0.49328 0.40102 0.15127 0.0
C243 C 0.56861 0.50413 0.0676 0.0
C244 C 0.50021 0.55281 0.06391 0.0
C245 C 0.51177 0.52508 0.20059 0.0
C246 C 0.48957 0.49496 0.21333 0.0
C247 C 0.46641 0.46229 0.20263 0.0
C248 C 0.46582 0.45935 0.17967 0.0
C249 C 0.48869 0.48933 0.16719 0.0
C250 C 0.51092 0.52165 0.17767 0.0
C251 C 0.53361 0.55048 0.16175 0.0
C252 C 0.52127 0.53015 0.13999 0.0
C253 C 0.49511 0.49429 0.1433 0.0
C254 C 0.58351 0.54805 0.16615 0.0
C255 C 0.51373 0.59525 0.1643 0.0
C256 C 0.4287 0.38789 0.09038 0.0
C257 C 0.42791 0.38502 0.06736 0.0
C258 C 0.44961 0.41582 0.05482 0.0
C259 C 0.47225 0.4489 0.06514 0.0
C260 C 0.47281 0.45134 0.08821 0.0
C261 C 0.45097 0.42132 0.10041 0.0
C262 C 0.45347 0.42992 0.12468 0.0
C263 C 0.48069 0.46997 0.12505 0.0
C264 C 0.49222 0.48207 0.10367 0.0
C265 C 0.47763 0.39247 0.13554 0.0
C266 C 0.40637 0.43752 0.13336 0.0
H267 H 0.58194 0.61534 0.13777 0.0
H268 H 0.59075 0.59449 0.05702 0.0
H269 H 0.49056 0.58543 0.06875 0.0
H270 H 0.46958 0.53432 0.06507 0.0
H271 H 0.51101 0.55379 0.0465 0.0
H272 H 0.59952 0.5012 0.07711 0.0
H273 H 0.57728 0.51497 0.05083 0.0
H274 H 0.55545 0.47176 0.06647 0.0
H275 H 0.5303 0.55029 0.20827 0.0
H276 H 0.44855 0.43902 0.21204 0.0
H277 H 0.44772 0.43369 0.17255 0.0
H278 H 0.59338 0.51531 0.17044 0.0
H279 H 0.59303 0.56898 0.18003 0.0
H280 H 0.60354 0.55605 0.15167 0.0
H281 H 0.47828 0.59352 0.16844 0.0
H282 H 0.5151 0.6137 0.14897 0.0
H283 H 0.53023 0.61326 0.17762 0.0
H284 H 0.62533 0.66313 0.11613 0.0
C285 C 0.58302 0.6099 0.12038 0.0
H286 H 0.11248 0.15749 0.99657 0.0
H287 H 0.17364 0.20651 0.0012 0.0
H288 H 0.23884 0.11684 0.043 0.0
H289 H 0.17768 0.068 0.03881 0.0
H290 H 0.236 0.19306 0.06146 0.0
H291 H 0.275 0.13657 0.99062 0.0
H292 H 0.26234 0.11777 0.95181 0.0
H293 H 0.23926 0.24807 0.93661 0.0
H294 H 0.25118 0.2676 0.97541 0.0
H295 H 0.43197 0.30101 0.07593 0.0
H296 H 0.38273 0.24589 0.06231 0.0
H297 H 0.31699 0.33729 0.02171 0.0
H298 H 0.36695 0.39239 0.03497 0.0
H299 H 0.32119 0.26001 0.00156 0.0
H300 H 0.27808 0.31631 0.07177 0.0
H301 H 0.2896 0.33666 0.11047 0.0
H302 H 0.31771 0.20775 0.1267 0.0
H303 H 0.30711 0.18675 0.08799 0.0
C304 C 0.14 0.14804 0.0066 0.0
C305 C 0.14007 0.10893 0.01743 0.0
C306 C 0.17503 0.17601 0.00912 0.0
C307 C 0.21089 0.16515 0.02231 0.0
C308 C 0.21144 0.1258 0.03275 0.0
C309 C 0.17642 0.09795 0.03034 0.0
C310 C 0.24651 0.1958 0.0265 0.0
C311 C 0.25512 0.20711 0.04836 0.0
C312 C 0.27041 0.21514 0.00935 0.0
C313 C 0.2636 0.20349 0.98597 0.0
C314 C 0.26691 0.16118 0.97904 0.0
C315 C 0.25992 0.1504 0.95703 0.0
C316 C 0.24989 0.18169 0.94176 0.0
C317 C 0.24698 0.22386 0.94846 0.0
C318 C 0.2539 0.23481 0.97045 0.0
C319 C 0.40745 0.30909 0.06382 0.0
C320 C 0.40273 0.35089 0.05668 0.0
C321 C 0.37944 0.27768 0.05605 0.0
C322 C 0.3457 0.28779 0.04137 0.0
C323 C 0.34278 0.32894 0.03308 0.0
C324 C 0.37122 0.36032 0.04067 0.0
C325 C 0.31097 0.25659 0.03649 0.0
C326 C 0.30227 0.24554 0.01459 0.0
C327 C 0.28661 0.23759 0.05358 0.0
C328 C 0.29221 0.25003 0.07695 0.0
C329 C 0.28698 0.29235 0.08356 0.0
C330 C 0.29334 0.304 0.1055 0.0
C331 C 0.30447 0.27353 0.12102 0.0
C332 C 0.30914 0.23133 0.11465 0.0
C333 C 0.30295 0.21952 0.09272 0.0
H334 H 0.3094 0.28262 0.138 0.0
H335 H 0.24445 0.17327 0.92473 0.0
H336 H 0.07937 0.84616 0.98714 0.0
H337 H 0.13194 0.7886 0.98464 0.0
H338 H 0.21026 0.84683 0.03533 0.0
H339 H 0.15786 0.90514 0.03782 0.0
H340 H 0.25908 0.82385 0.00021 0.0
H341 H 0.15468 0.75736 0.04646 0.0
H342 H 0.08141 0.73489 0.05878 0.0
H343 H 0.06581 0.6608 6e-05 0.0
H344 H 0.13873 0.68331 0.98722 0.0
H345 H 0.40169 0.6467 0.98982 0.0
H346 H 0.35161 0.69712 0.00729 0.0
H347 H 0.25064 0.66238 0.96111 0.0
H348 H 0.29985 0.61109 0.94411 0.0
H349 H 0.21751 0.67244 0.00181 0.0
H350 H 0.31497 0.74922 0.95315 0.0
H351 H 0.38722 0.77278 0.93984 0.0
H352 H 0.41472 0.82812 0.00286 0.0
H353 H 0.34279 0.80437 0.01661 0.0
C354 C 0.10755 0.84669 0.99791 0.0
C355 C 0.11442 0.88036 0.01265 0.0
C356 C 0.13744 0.81355 0.99656 0.0
C357 C 0.17471 0.81319 0.01 0.0
C358 C 0.18156 0.84646 0.0249 0.0
C359 C 0.15155 0.87968 0.02631 0.0
C360 C 0.20767 0.77932 0.00727 0.0
C361 C 0.25031 0.7907 0.0011 0.0
C362 C 0.19597 0.73613 0.00812 0.0
C363 C 0.15214 0.72223 0.01583 0.0
C364 C 0.13552 0.7365 0.0361 0.0
C365 C 0.09406 0.72372 0.04319 0.0
C366 C 0.06895 0.69648 0.0302 0.0
C367 C 0.0853 0.68189 0.01011 0.0
C368 C 0.12674 0.6946 0.00294 0.0
C369 C 0.36858 0.64936 0.98364 0.0
C370 C 0.35482 0.62528 0.96544 0.0
C371 C 0.34014 0.67833 0.99354 0.0
C372 C 0.29761 0.6838 0.98532 0.0
C373 C 0.28336 0.6587 0.96768 0.0
C374 C 0.31167 0.62976 0.95783 0.0
C375 C 0.26838 0.71709 0.99414 0.0
C376 C 0.22649 0.70557 0.00145 0.0
C377 C 0.28068 0.76017 0.99427 0.0
C378 C 0.32379 0.77458 0.98598 0.0
C379 C 0.33658 0.76613 0.96421 0.0
C380 C 0.37744 0.77956 0.95658 0.0
C381 C 0.40561 0.80181 0.97052 0.0
C382 C 0.39291 0.81079 0.9921 0.0
C383 C 0.35211 0.79737 -0.00019 0.0
H384 H 0.43722 0.81219 0.96459 0.0
H385 H 0.03685 0.68663 0.03571 0.0
H386 H 0.90661 0.85999 0.9854 0.0
H387 H 0.84957 0.80599 0.98834 0.0
H388 H 0.78789 0.87745 0.04036 0.0
H389 H 0.84382 0.93166 0.03727 0.0
H390 H 0.83303 0.75688 0.02157 0.0
H391 H 0.68106 0.863 0.04209 0.0
H392 H 0.64982 0.93074 0.03001 0.0
H393 H 0.71791 0.91965 0.96853 0.0
H394 H 0.74906 0.85155 0.98009 0.0
H395 H 0.69279 0.66225 0.09603 0.0
H396 H 0.74013 0.70861 0.07485 0.0
H397 H 0.64518 0.71062 0.02247 0.0
H398 H 0.59643 0.66578 0.04412 0.0
H399 H 0.67434 0.78671 0.02953 0.0
H400 H 0.741 0.65481 0.01663 0.0
H401 H 0.77134 0.58478 0.02533 0.0
H402 H 0.87169 0.64281 0.0645 0.0
H403 H 0.84159 0.71319 0.05633 0.0
C404 C 0.88053 0.86447 0.99725 0.0
C405 C 0.87987 0.90009 0.01116 0.0
C406 C 0.848 0.83358 0.9989 0.0
C407 C 0.81421 0.83792 0.01438 0.0
C408 C 0.81307 0.87385 0.02794 0.0
C409 C 0.84537 0.90471 0.02627 0.0
C410 C 0.78224 0.80349 0.01798 0.0
C411 C 0.79826 0.76322 0.02304 0.0
C412 C 0.7367 0.81139 0.01919 0.0
C413 C 0.71758 0.85218 0.01203 0.0
C414 C 0.68915 0.87483 0.02593 0.0
C415 C 0.67151 0.91336 0.01919 0.0
C416 C 0.68193 0.92952 0.99854 0.0
C417 C 0.70995 0.90716 0.98456 0.0
C418 C 0.72766 0.86861 0.99121 0.0
C419 C 0.68169 0.67288 0.08011 0.0
C420 C 0.64076 0.66041 0.07181 0.0
C421 C 0.70912 0.69886 0.06786 0.0
C422 C 0.69656 0.71241 0.04689 0.0
C423 C 0.65566 0.70021 0.03853 0.0
C424 C 0.62799 0.67438 0.05087 0.0
C425 C 0.72556 0.74096 0.03433 0.0
C426 C 0.70895 0.78007 0.02756 0.0
C427 C 0.77039 0.73161 0.03099 0.0
C428 C 0.78888 0.68933 0.03592 0.0
C429 C 0.76938 0.65265 0.02721 0.0
C430 C 0.78656 0.61288 0.03204 0.0
C431 C 0.82339 0.60935 0.04547 0.0
C432 C 0.84317 0.6456 0.05408 0.0
C433 C 0.8261 0.68545 0.04933 0.0
H434 H 0.83664 0.57852 0.04919 0.0
H435 H 0.66826 0.95936 0.99335 0.0
H436 H 0.93915 0.17613 0.99546 0.0
H437 H 0.88131 0.22726 0.98721 0.0
H438 H 0.784 0.13995 0.01077 0.0
H439 H 0.84139 0.08908 0.01963 0.0
H440 H 0.79436 0.18498 0.9589 0.0
H441 H 0.76703 0.19715 0.03917 0.0
H442 H 0.79337 0.2107 0.07683 0.0
H443 H 0.84424 0.33094 0.05683 0.0
H444 H 0.81874 0.3177 0.01895 0.0
H445 H 0.60046 0.29194 0.93464 0.0
H446 H 0.65318 0.24577 0.95292 0.0
H447 H 0.72733 0.35499 0.97375 0.0
H448 H 0.67306 0.40117 0.95646 0.0
H449 H 0.73034 0.29964 0.00458 0.0
H450 H 0.75497 0.29502 0.92704 0.0
H451 H 0.73569 0.2857 0.88801 0.0
H452 H 0.69969 0.15683 0.90007 0.0
H453 H 0.71817 0.16557 0.93926 0.0
C454 C 0.90552 0.16816 0.99929 0.0
C455 C 0.89479 0.12856 0.00814 0.0
C456 C 0.87265 0.19741 0.99465 0.0
C457 C 0.82871 0.18733 0.99864 0.0
C458 C 0.81792 0.14838 0.00796 0.0
C459 C 0.85075 0.1194 0.01295 0.0
C460 C 0.79386 0.21526 0.99058 0.0
C461 C 0.77976 0.2097 0.96891 0.0
C462 C 0.77638 0.24824 0.00351 0.0
C463 C 0.79159 0.25616 0.02621 0.0
C464 C 0.78434 0.22621 0.04275 0.0
C465 C 0.79897 0.2339 0.06415 0.0
C466 C 0.82063 0.27158 0.0692 0.0
C467 C 0.82756 0.30171 0.05288 0.0
C468 C 0.81302 0.29414 0.03146 0.0
C469 C 0.62781 0.30588 0.94337 0.0
C470 C 0.63322 0.3498 0.9441 0.0
C471 C 0.65798 0.27963 0.95369 0.0
C472 C 0.69484 0.29688 0.96423 0.0
C473 C 0.69927 0.34096 0.96565 0.0
C474 C 0.66847 0.36727 0.95576 0.0
C475 C 0.72971 0.26895 0.97283 0.0
C476 C 0.74436 0.27472 0.99451 0.0
C477 C 0.74843 0.23652 0.95971 0.0
C478 C 0.73756 0.23108 0.93612 0.0
C479 C 0.74268 0.26477 0.92139 0.0
C480 C 0.73192 0.25959 0.89924 0.0
C481 C 0.71637 0.22072 0.89158 0.0
C482 C 0.71167 0.18693 0.90604 0.0
C483 C 0.72231 0.19197 0.92822 0.0
H484 H 0.70806 0.21677 0.87442 0.0
H485 H 0.83191 0.2775 0.08577 0.0
H486 H 0.61954 0.64813 0.48946 0.0
H487 H 0.67195 0.70487 0.49667 0.0
H488 H 0.72203 0.63641 0.55227 0.0
H489 H 0.66977 0.5797 0.54534 0.0
H490 H 0.69941 0.71761 0.56246 0.0
H491 H 0.78178 0.64454 0.50636 0.0
H492 H 0.79365 0.61302 0.46973 0.0
H493 H 0.77124 0.73344 0.43973 0.0
H494 H 0.75862 0.76558 0.47619 0.0
H495 H 0.88782 0.82821 0.59183 0.0
H496 H 0.83807 0.77397 0.57813 0.0
H497 H 0.79999 0.85529 0.52487 0.0
H498 H 0.84995 0.91012 0.53861 0.0
H499 H 0.81261 0.77248 0.51151 0.0
H500 H 0.73341 0.84646 0.56722 0.0
H501 H 0.72135 0.87871 0.60366 0.0
H502 H 0.73597 0.75754 0.63404 0.0
H503 H 0.74883 0.72464 0.5978 0.0
C504 C 0.64204 0.64488 0.50308 0.0
C505 C 0.64025 0.6095 0.51693 0.0
C506 C 0.67205 0.67728 0.5071 0.0
C507 C 0.70077 0.67472 0.52499 0.0
C508 C 0.69998 0.63893 0.53841 0.0
C509 C 0.67013 0.60652 0.53439 0.0
C510 C 0.7297 0.71048 0.53069 0.0
C511 C 0.72452 0.7293 0.55142 0.0
C512 C 0.76119 0.72664 0.51591 0.0
C513 C 0.76876 0.70735 0.49399 0.0
C514 C 0.77897 0.66422 0.49194 0.0
C515 C 0.78592 0.64626 0.47121 0.0
C516 C 0.78306 0.67118 0.45241 0.0
C517 C 0.77336 0.71415 0.45431 0.0
C518 C 0.76634 0.73226 0.475 0.0
C519 C 0.86864 0.83471 0.57729 0.0
C520 C 0.87221 0.8736 0.56647 0.0
C521 C 0.8404 0.80365 0.56944 0.0
C522 C 0.81493 0.81098 0.55071 0.0
C523 C 0.81936 0.8492 0.5394 0.0
C524 C 0.84782 0.88039 0.54725 0.0
C525 C 0.78298 0.7788 0.54347 0.0
C526 C 0.78735 0.76089 0.52247 0.0
C527 C 0.75046 0.76351 0.55794 0.0
C528 C 0.74243 0.78314 0.57979 0.0
C529 C 0.73439 0.82673 0.58168 0.0
C530 C 0.72737 0.84512 0.6023 0.0
C531 C 0.72799 0.82021 0.62115 0.0
C532 C 0.73554 0.77681 0.61942 0.0
C533 C 0.74265 0.75826 0.59884 0.0
H534 H 0.72254 0.83451 0.6371 0.0
H535 H 0.78847 0.65722 0.43638 0.0
H536 H 0.59711 0.34182 0.48721 0.0
H537 H 0.64982 0.28432 0.48752 0.0
H538 H 0.72456 0.34864 0.53757 0.0
H539 H 0.67176 0.40695 0.53735 0.0
H540 H 0.77565 0.31941 0.50351 0.0
H541 H 0.66897 0.2628 0.55177 0.0
H542 H 0.59489 0.24432 0.56464 0.0
H543 H 0.57792 0.16187 0.50911 0.0
H544 H 0.65165 0.18032 0.49571 0.0
H545 H 0.91237 0.13733 0.49567 0.0
H546 H 0.86464 0.18928 0.51369 0.0
H547 H 0.76022 0.15656 0.46908 0.0
H548 H 0.80721 0.10413 0.45143 0.0
H549 H 0.72973 0.16976 0.51047 0.0
H550 H 0.82766 0.23911 0.45869 0.0
H551 H 0.90029 0.25888 0.44427 0.0
H552 H 0.93224 0.31807 0.5058 0.0
H553 H 0.85993 0.29813 0.52067 0.0
C554 C 0.62462 0.34386 0.49837 0.0
C555 C 0.63021 0.37905 0.51226 0.0
C556 C 0.65456 0.31074 0.49864 0.0
C557 C 0.69067 0.31196 0.51281 0.0
C558 C 0.69665 0.34704 0.52665 0.0
C559 C 0.66647 0.38025 0.52648 0.0
C560 C 0.72304 0.27728 0.51209 0.0
C561 C 0.766 0.28671 0.50563 0.0
C562 C 0.71016 0.23467 0.51461 0.0
C563 C 0.66586 0.2231 0.52269 0.0
C564 C 0.64936 0.24092 0.54223 0.0
C565 C 0.60743 0.23042 0.54963 0.0
C566 C 0.5817 0.20197 0.53769 0.0
C567 C 0.5979 0.18389 0.51835 0.0
C568 C 0.6398 0.1943 0.51086 0.0
C569 C 0.87895 0.14071 0.49003 0.0
C570 C 0.86359 0.11711 0.47199 0.0
C571 C 0.85185 0.17048 0.50025 0.0
C572 C 0.80911 0.17703 0.49254 0.0
C573 C 0.79312 0.15201 0.47526 0.0
C574 C 0.82011 0.12239 0.46505 0.0
C575 C 0.78172 0.21193 0.50112 0.0
C576 C 0.73972 0.2025 0.50903 0.0
C577 C 0.79537 0.25455 0.49983 0.0
C578 C 0.83869 0.26667 0.49087 0.0
C579 C 0.85032 0.25605 0.46919 0.0
C580 C 0.89139 0.26733 0.46093 0.0
C581 C 0.92092 0.28959 0.47413 0.0
C582 C 0.90938 0.30073 0.49561 0.0
C583 C 0.86837 0.28946 0.50396 0.0
H584 H 0.95269 0.29831 0.46771 0.0
H585 H 0.54923 0.1939 0.54344 0.0
H586 H 0.44296 0.33511 0.5047 0.0
H587 H 0.38966 0.279 0.51054 0.0
H588 H 0.28635 0.3718 0.515 0.0
H589 H 0.34036 0.42819 0.51069 0.0
H590 H 0.27753 0.32364 0.54652 0.0
H591 H 0.29792 0.29581 0.47059 0.0
H592 H 0.33794 0.28323 0.436 0.0
H593 H 0.3944 0.17061 0.46275 0.0
H594 H 0.35519 0.18279 0.49763 0.0
H595 H 0.11641 0.16123 0.55279 0.0
H596 H 0.16154 0.21211 0.53265 0.0
H597 H 0.27831 0.15515 0.55893 0.0
H598 H 0.23323 0.10484 0.5796 0.0
H599 H 0.27281 0.18507 0.50816 0.0
H600 H 0.25853 0.2259 0.58652 0.0
H601 H 0.2129 0.23905 0.6193 0.0
H602 H 0.13739 0.33002 0.5836 0.0
H603 H 0.1822 0.3168 0.55048 0.0
C604 C 0.40875 0.34341 0.50657 0.0
C605 C 0.39565 0.38584 0.50737 0.0
C606 C 0.37818 0.31128 0.50972 0.0
C607 C 0.33372 0.32098 0.51293 0.0
C608 C 0.32042 0.36345 0.51264 0.0
C609 C 0.3512 0.39564 0.51015 0.0
C610 C 0.30215 0.28735 0.51898 0.0
C611 C 0.27605 0.2938 0.53771 0.0
C612 C 0.30021 0.24798 0.50779 0.0
C613 C 0.3238 0.2404 0.4868 0.0
C614 C 0.31909 0.26851 0.46916 0.0
C615 C 0.3416 0.26142 0.44949 0.0
C616 C 0.36875 0.22619 0.44719 0.0
C617 C 0.37336 0.1979 0.46456 0.0
C618 C 0.35095 0.20485 0.48427 0.0
C619 C 0.15174 0.15908 0.55386 0.0
C620 C 0.17157 0.12949 0.56774 0.0
C621 C 0.17734 0.18796 0.54235 0.0
C622 C 0.22302 0.18701 0.54432 0.0
C623 C 0.24303 0.1559 0.55714 0.0
C624 C 0.21739 0.12755 0.56901 0.0
C625 C 0.24943 0.22185 0.5355 0.0
C626 C 0.27429 0.21542 0.51646 0.0
C627 C 0.24968 0.26159 0.54603 0.0
C628 C 0.2233 0.27 0.56601 0.0
C629 C 0.23193 0.2484 0.58562 0.0
C630 C 0.20628 0.25592 0.60426 0.0
C631 C 0.17218 0.28526 0.60351 0.0
C632 C 0.16375 0.30725 0.58414 0.0
C633 C 0.18926 0.29976 0.56544 0.0
H634 H 0.15235 0.29105 0.61796 0.0
H635 H 0.38616 0.22077 0.43195 0.0
H636 H 0.34955 0.58489 0.51919 0.0
H637 H 0.2928 0.63613 0.51002 0.0
H638 H 0.38991 0.71608 0.47988 0.0
H639 H 0.44674 0.66465 0.48852 0.0
H640 H 0.27518 0.71923 0.51733 0.0
H641 H 0.34935 0.75142 0.43191 0.0
H642 H 0.39988 0.71701 0.40572 0.0
H643 H 0.36224 0.59524 0.42997 0.0
H644 H 0.31089 0.62887 0.456 0.0
H645 H 0.16571 0.88914 0.46377 0.0
H646 H 0.21861 0.8412 0.4806 0.0
H647 H 0.17561 0.74085 0.43749 0.0
H648 H 0.12311 0.78877 0.42048 0.0
H649 H 0.26129 0.74575 0.43739 0.0
H650 H 0.14914 0.74214 0.49243 0.0
H651 H 0.0968 0.77228 0.51908 0.0
H652 H 0.20286 0.82819 0.55518 0.0
H653 H 0.25582 0.79884 0.52856 0.0
C654 C 0.35897 0.61367 0.51091 0.0
C655 C 0.4025 0.62037 0.50421 0.0
C656 C 0.32651 0.64298 0.50577 0.0
C657 C 0.33713 0.67943 0.49395 0.0
C658 C 0.38102 0.68771 0.48869 0.0
C659 C 0.41341 0.65827 0.49362 0.0
C660 C 0.30194 0.70657 0.48523 0.0
C661 C 0.27212 0.72523 0.49988 0.0
C662 C 0.2975 0.71344 0.4624 0.0
C663 C 0.32666 0.69273 0.44606 0.0
C664 C 0.35161 0.7173 0.43153 0.0
C665 C 0.38042 0.69793 0.41673 0.0
C666 C 0.38444 0.65399 0.41627 0.0
C667 C 0.35924 0.62928 0.43041 0.0
C668 C 0.33025 0.64848 0.44517 0.0
C669 C 0.16718 0.85668 0.45813 0.0
C670 C 0.14053 0.84263 0.44078 0.0
C671 C 0.19735 0.82934 0.46775 0.0
C672 C 0.20087 0.78742 0.46035 0.0
C673 C 0.17355 0.77315 0.44336 0.0
C674 C 0.14366 0.80051 0.43365 0.0
C675 C 0.23454 0.75895 0.46949 0.0
C676 C 0.26422 0.73996 0.45487 0.0
C677 C 0.23817 0.75113 0.49227 0.0
C678 C 0.20641 0.7686 0.50838 0.0
C679 C 0.16128 0.76112 0.50596 0.0
C680 C 0.1315 0.77802 0.52107 0.0
C681 C 0.14648 0.80223 0.53878 0.0
C682 C 0.1913 0.80948 0.54144 0.0
C683 C 0.22121 0.79268 0.52636 0.0
H684 H 0.12338 0.81529 0.55046 0.0
H685 H 0.40709 0.63911 0.40496 0.0
H686 H 0.06943 0.01015 0.10291 0.0
H687 H 0.06472 0.01414 0.1429 0.0
H688 H 0.92373 0.01627 0.13895 0.0
H689 H 0.92807 0.01314 0.09895 0.0
H690 H 0.95237 0.07354 0.1678 0.0
H691 H 0.97893 0.92642 0.15343 0.0
H692 H 0.01811 0.86537 0.13759 0.0
H693 H 0.13421 0.90032 0.17298 0.0
H694 H 0.09587 0.96193 0.18881 0.0
H695 H 0.90793 0.02571 0.27991 0.0
H696 H 0.91229 0.02581 0.23977 0.0
H697 H 0.05335 0.02362 0.24344 0.0
H698 H 0.04917 0.0233 0.28351 0.0
H699 H 0.02449 0.96663 0.2147 0.0
H700 H 0.99763 0.11353 0.22934 0.0
H701 H 0.95826 0.17442 0.24521 0.0
H702 H 0.84254 0.13975 0.20944 0.0
H703 H 0.88106 0.07829 0.19357 0.0
C704 C 0.0374 0.01139 0.11053 0.0
C705 C -0.00088 0.01117 0.09771 0.0
C706 C 0.03477 0.01354 0.1334 0.0
C707 C 0.99385 0.015 0.1439 0.0
C708 C 0.95563 0.01515 0.13117 0.0
C709 C 0.95821 0.01323 0.1083 0.0
C710 C 0.99084 0.01655 0.16818 0.0
C711 C 0.96766 0.04987 0.17807 0.0
C712 C 0.01159 0.98617 0.18155 0.0
C713 C 0.03464 0.94901 0.17214 0.0
C714 C 0.01291 0.92126 0.15771 0.0
C715 C 0.03495 0.88653 0.14875 0.0
C716 C 0.07866 0.87904 0.15423 0.0
C717 C 0.10038 0.9062 0.16873 0.0
C718 C 0.07849 0.94101 0.17771 0.0
C719 C 0.93984 0.02581 0.27213 0.0
C720 C 0.9782 0.02441 0.28482 0.0
C721 C 0.94231 0.02584 0.24922 0.0
C722 C 0.98318 0.025 0.23862 0.0
C723 C 0.02149 0.02411 0.25128 0.0
C724 C 0.01904 0.02386 0.27415 0.0
C725 C 0.98611 0.02368 0.21434 0.0
C726 C 0.00924 0.99035 0.20445 0.0
C727 C 0.96528 0.05403 0.20098 0.0
C728 C 0.94211 0.09108 0.21043 0.0
C729 C 0.96368 0.1187 0.22499 0.0
C730 C 0.94154 0.15336 0.23396 0.0
C731 C 0.89789 0.16089 0.22838 0.0
C732 C 0.87634 0.13385 0.21377 0.0
C733 C 0.89832 0.09912 0.20476 0.0
H734 H 0.88081 0.18773 0.23535 0.0
H735 H 0.09567 0.85213 0.14728 0.0
H736 H 0.01404 0.94427 0.92337 0.0
H737 H 0.01525 0.94661 0.88334 0.0
H738 H 0.01462 0.08277 0.88569 0.0
H739 H 0.01434 0.08079 0.92577 0.0
H740 H 0.95801 0.97616 0.85531 0.0
H741 H 0.07044 0.12118 0.84164 0.0
H742 H 0.13239 0.1571 0.85981 0.0
H743 H 0.16934 0.04097 0.89072 0.0
H744 H 0.10801 0.00426 0.87251 0.0
H745 H 0.9374 0.03779 0.74499 0.0
H746 H 0.94172 0.04078 0.78509 0.0
H747 H 0.07639 -0.00016 0.78208 0.0
H748 H 0.0725 -0.00187 0.74194 0.0
H749 H 0.0681 0.05707 0.81279 0.0
H750 H 0.9909 0.93028 0.7931 0.0
H751 H 0.93332 0.88837 0.77481 0.0
H752 H 0.83447 0.95624 0.81064 0.0
H753 H 0.89147 -0.00104 0.82893 0.0
C754 C 0.01435 0.97476 0.91541 0.0
C755 C 0.01419 0.01235 0.9278 0.0
C756 C 0.01494 0.97602 0.89251 0.0
C757 C 0.01536 0.01484 0.88153 0.0
C758 C 0.01502 0.05245 0.89382 0.0
C759 C 0.01469 0.05124 0.91675 0.0
C760 C 0.01521 0.01583 0.85721 0.0
C761 C 0.98208 0.99387 0.84602 0.0
C762 C 0.04697 0.03845 0.84508 0.0
C763 C 0.08433 0.06011 0.85588 0.0
C764 C 0.09189 0.10329 0.85225 0.0
C765 C 0.12688 0.12379 0.86256 0.0
C766 C 0.15469 0.10137 0.87647 0.0
C767 C 0.14767 0.05835 0.88002 0.0
C768 C 0.11277 0.03769 0.86972 0.0
C769 C 0.96793 0.02963 0.75294 0.0
C770 C 0.00452 0.01741 0.74046 0.0
C771 C 0.97037 0.03127 0.77581 0.0
C772 C 0.00914 0.01975 0.78661 0.0
C773 C 0.04613 0.00882 0.77411 0.0
C774 C 0.04389 0.0078 0.75121 0.0
C775 C 0.01071 0.01762 0.81092 0.0
C776 C 0.04399 0.03945 0.8221 0.0
C777 C 0.97974 0.99398 0.82305 0.0
C778 C 0.94543 0.96805 0.81223 0.0
C779 C 0.95687 0.93643 0.79698 0.0
C780 C 0.92434 0.91252 0.78662 0.0
C781 C 0.88026 0.9197 0.79153 0.0
C782 C 0.86863 0.95074 0.80684 0.0
C783 C 0.90103 0.97479 0.81722 0.0
H784 H 0.85512 0.90117 0.78349 0.0
H785 H 0.18173 0.1173 0.88446 0.0
H786 H 0.43019 0.51558 0.59415 0.0
H787 H 0.42267 0.51918 0.63401 0.0
H788 H 0.55971 0.48948 0.64122 0.0
H789 H 0.56781 0.48676 0.60134 0.0
H790 H 0.43273 0.46325 0.66515 0.0
H791 H 0.60042 0.53916 0.68618 0.0
H792 H 0.65427 0.58741 0.66945 0.0
H793 H 0.55282 0.64326 0.63049 0.0
H794 H 0.4983 0.59577 0.64719 0.0
H795 H 0.47552 0.44187 0.77852 0.0
H796 H 0.48093 0.44162 0.73855 0.0
H797 H 0.4678 0.57723 0.73811 0.0
H798 H 0.46459 0.57796 0.77818 0.0
H799 H 0.52939 0.55429 0.7106 0.0
H800 H 0.38172 0.51171 0.72419 0.0
H801 H 0.32264 0.46919 0.74063 0.0
H802 H 0.37409 0.35753 0.70978 0.0
H803 H 0.43385 0.3993 0.69339 0.0
C804 C 0.45879 0.50982 0.60418 0.0
C805 C 0.49968 0.50109 0.59452 0.0
C806 C 0.45438 0.51179 0.62699 0.0
C807 C 0.4907 0.50507 0.6406 0.0
C808 C 0.53139 0.49555 0.63104 0.0
C809 C 0.53592 0.49384 0.60822 0.0
C810 C 0.48592 0.50794 0.66481 0.0
C811 C 0.45387 0.48315 0.67509 0.0
C812 C 0.51293 0.53452 0.67775 0.0
C813 C 0.54538 0.5636 0.66779 0.0
C814 C 0.58959 0.56185 0.6741 0.0
C815 C 0.62023 0.58905 0.66461 0.0
C816 C 0.60699 0.61828 0.64886 0.0
C817 C 0.56306 0.62049 0.64263 0.0
C818 C 0.53228 0.59341 0.65208 0.0
C819 C 0.47422 0.47171 0.76996 0.0
C820 C 0.46955 0.50995 0.7816 0.0
C821 C 0.47683 0.47146 0.74707 0.0
C822 C 0.47421 0.50936 0.7353 0.0
C823 C 0.46974 0.54759 0.74684 0.0
C824 C 0.46744 0.5479 0.76975 0.0
C825 C 0.47658 0.50917 0.71097 0.0
C826 C 0.50824 0.53439 0.70067 0.0
C827 C 0.44848 0.48379 0.69796 0.0
C828 C 0.41248 0.45859 0.70772 0.0
C829 C 0.38061 0.47804 0.72104 0.0
C830 C 0.34697 0.45408 0.73033 0.0
C831 C 0.34467 0.41067 0.72629 0.0
C832 C 0.37594 0.39115 0.71291 0.0
C833 C 0.40968 0.41496 0.7036 0.0
H834 H 0.3186 0.39217 0.7335 0.0
H835 H 0.63077 0.63928 0.64152 0.0
H836 H 0.51145 0.56983 0.42223 0.0
H837 H 0.50595 0.57049 0.3822 0.0
H838 H 0.51919 0.43495 0.38058 0.0
H839 H 0.52489 0.4339 0.42058 0.0
H840 H 0.57052 0.47339 0.34987 0.0
H841 H 0.4211 0.47938 0.3743 0.0
H842 H 0.35742 0.50746 0.39454 0.0
H843 H 0.36914 0.62523 0.36047 0.0
H844 H 0.43345 0.59814 0.3403 0.0
H845 H 0.50075 0.42956 0.24184 0.0
H846 H 0.50565 0.43291 0.28183 0.0
H847 H 0.48909 0.56808 0.27987 0.0
H848 H 0.48285 0.56484 0.23982 0.0
H849 H 0.44046 0.53268 0.31231 0.0
H850 H 0.58911 0.52687 0.28762 0.0
H851 H 0.65194 0.49861 0.26678 0.0
H852 H 0.64147 0.38104 0.30115 0.0
H853 H 0.57814 0.40839 0.32199 0.0
C854 C 0.51342 0.54015 0.41338 0.0
C855 C 0.51858 0.50178 0.42463 0.0
C856 C 0.51002 0.54059 0.39051 0.0
C857 C 0.51176 0.50273 0.37847 0.0
C858 C 0.5177 0.4645 0.38959 0.0
C859 C 0.52085 0.46398 0.41246 0.0
C860 C 0.50758 0.50287 0.35425 0.0
C861 C 0.54187 0.48591 0.34166 0.0
C862 C 0.47067 0.52027 0.34357 0.0
C863 C 0.43242 0.53686 0.35595 0.0
C864 C 0.41043 0.51143 0.37129 0.0
C865 C 0.37414 0.52713 0.38271 0.0
C866 C 0.35924 0.56808 0.37878 0.0
C867 C 0.38069 0.59348 0.36347 0.0
C868 C 0.41709 0.57799 0.35206 0.0
C869 C 0.49761 0.45995 0.24992 0.0
C870 C 0.49149 0.49696 0.23766 0.0
C871 C 0.50084 0.46186 0.27276 0.0
C872 C 0.49832 0.50081 0.28378 0.0
C873 C 0.49134 0.53773 0.27166 0.0
C874 C 0.48812 0.53586 0.24879 0.0
C875 C 0.50326 0.50291 0.30796 0.0
C876 C 0.46918 0.52034 0.32054 0.0
C877 C 0.5404 0.48605 0.31865 0.0
C878 C 0.57862 0.46956 0.30623 0.0
C879 C 0.59999 0.49487 0.29062 0.0
C880 C 0.63573 0.47904 0.27882 0.0
C881 C 0.65062 0.43802 0.2826 0.0
C882 C 0.62987 0.41279 0.29823 0.0
C883 C 0.59407 0.42846 0.31005 0.0
H884 H 0.6783 0.42582 0.27345 0.0
H885 H 0.33105 0.58014 0.38758 0.0
loop_
_geom_bond_atom_site_label_1
_geom_bond_atom_site_label_2
_geom_bond_distance
_geom_bond_site_symmetry_2
_ccdc_geom_bond_type
O0 Zn1 1.953 . S
O0 C16 1.225 1_565 S
Zn1 O0 1.953 . S
Zn1 O2 1.949 1_565 S
Zn1 O8 1.919 . S
Zn1 O13 1.924 1_565 S
O2 Zn1 1.949 1_545 S
O2 Zn3 1.923 1_444 S
O2 Zn4 1.950 1_455 S
O2 Zn5 1.945 1_554 S
Zn3 O2 1.923 1_666 S
Zn3 O6 1.934 . S
Zn3 O9 1.941 1_655 S
Zn3 O10 1.962 1_556 S
Zn4 O2 1.950 1_655 S
Zn4 O11 1.938 1_545 S
Zn4 O12 1.906 . S
Zn4 O22 1.953 . S
Zn5 O2 1.945 1_556 S
Zn5 O7 1.932 . S
Zn5 O14 1.977 1_455 S
Zn5 O15 1.910 1_556 S
O6 Zn3 1.934 . S
O6 C17 1.224 1_665 S
O7 Zn5 1.932 . S
O7 C17 1.307 . S
O8 Zn1 1.919 . S
O8 C19 1.253 . S
O9 Zn3 1.941 1_455 S
O9 C19 1.283 1_556 S
O10 Zn3 1.962 1_554 S
O10 C18 1.316 . S
O11 Zn4 1.938 1_565 S
O11 C18 1.247 . S
O12 Zn4 1.906 . S
O12 C20 1.304 . S
O13 Zn1 1.924 1_545 S
O13 C21 1.311 . S
O14 Zn5 1.977 1_655 S
O14 C20 1.272 1_556 S
O15 Zn5 1.910 1_554 S
O15 C21 1.231 . S
C16 O0 1.225 1_545 S
C16 O22 1.298 1_455 S
C17 O6 1.224 1_445 S
C17 O7 1.307 . S
C18 O10 1.316 . S
C18 O11 1.247 . S
C19 O8 1.253 . S
C19 O9 1.283 1_554 S
C20 O12 1.304 . S
C20 O14 1.272 1_554 S
C21 O13 1.311 . S
C21 O15 1.231 . S
O22 Zn4 1.953 . S
O22 C16 1.298 1_655 S
O23 Zn24 1.953 . S
O23 C39 1.225 . S
Zn24 O23 1.953 . S
Zn24 O25 1.949 . S
Zn24 O31 1.919 . S
Zn24 O36 1.924 . S
O25 Zn24 1.949 . S
O25 Zn26 1.923 . S
O25 Zn27 1.950 . S
O25 Zn28 1.945 . S
Zn26 O25 1.923 . S
Zn26 O29 1.933 . S
Zn26 O32 1.941 . S
Zn26 O33 1.965 . S
Zn27 O25 1.950 . S
Zn27 O34 1.938 . S
Zn27 O35 1.906 . S
Zn27 O45 1.953 . S
Zn28 O25 1.945 . S
Zn28 O30 1.932 . S
Zn28 O37 1.977 . S
Zn28 O38 1.910 . S
O29 Zn26 1.933 . S
O29 C40 1.226 . S
O30 Zn28 1.932 . S
O30 C40 1.307 . S
O31 Zn24 1.919 . S
O31 C42 1.253 . S
O32 Zn26 1.941 . S
O32 C42 1.283 . S
O33 Zn26 1.965 . S
O33 C41 1.303 . S
O34 Zn27 1.938 . S
O34 C41 1.247 . S
O35 Zn27 1.906 . S
O35 C43 1.304 . S
O36 Zn24 1.924 . S
O36 C44 1.311 . S
O37 Zn28 1.977 . S
O37 C43 1.272 . S
O38 Zn28 1.910 . S
O38 C44 1.231 . S
C39 O23 1.225 . S
C39 O45 1.298 . S
C40 O29 1.226 . S
C40 O30 1.307 . S
C41 O33 1.303 . S
C41 O34 1.247 . S
C42 O31 1.253 . S
C42 O32 1.283 . S
C43 O35 1.304 . S
C43 O37 1.272 . S
C44 O36 1.311 . S
C44 O38 1.231 . S
O45 Zn27 1.953 . S
O45 C39 1.298 . S
C46 C47 1.391 . S
C46 C50 1.391 . S
C46 H88 0.948 . S
C47 C46 1.391 . S
C47 C48 1.391 . S
C48 C47 1.391 . S
C48 H104 0.947 . S
C48 C105 1.392 . S
C49 C50 1.391 . S
C49 C53 1.397 . S
C49 C105 1.419 . S
C50 C46 1.391 . S
C50 C49 1.391 . S
C50 C51 1.399 . S
C51 C50 1.399 . S
C51 C54 1.396 . S
C51 C63 1.453 1_565 S
C51 C64 1.684 1_455 S
H52 C76 0.948 . S
C53 C49 1.397 . S
C53 C54 1.394 . S
C53 C72 1.723 . S
C54 C51 1.396 . S
C54 C53 1.394 . S
C54 C84 1.723 1_465 S
H55 C78 0.947 . S
H56 C79 0.948 . S
H57 C85 0.982 . S
H58 C86 0.979 . S
H59 C86 0.980 . S
H60 C86 0.983 . S
H61 C85 0.979 . S
H62 C85 0.977 . S
C63 C51 1.453 1_545 S
C63 H92 0.982 . S
C63 H93 0.979 1_545 S
C63 H94 0.977 . S
C64 C51 1.684 1_655 S
C64 H89 0.979 . S
C64 H90 0.980 . S
C64 H91 0.983 1_655 S
C65 C66 1.391 1_465 S
C65 C70 1.391 . S
C65 H95 0.948 . S
C66 C65 1.391 1_645 S
C66 C67 1.391 . S
C67 C66 1.391 . S
C67 C68 1.392 . S
C67 H96 0.947 . S
C68 C67 1.392 . S
C68 C69 1.419 . S
C68 H97 0.948 . S
C69 C68 1.419 . S
C69 C70 1.391 1_645 S
C69 C73 1.397 . S
C70 C65 1.391 . S
C70 C69 1.391 1_465 S
C70 C71 1.399 . S
C71 C70 1.399 . S
C71 C72 1.396 . S
C71 C74 1.453 . S
C71 C75 1.684 . S
C72 C53 1.723 . S
C72 C71 1.396 . S
C72 C73 1.394 1_465 S
C73 C69 1.397 . S
C73 C72 1.394 1_645 S
C73 C83 1.723 . S
C74 C71 1.453 . S
C74 H98 0.982 . S
C74 H99 0.979 . S
C74 H100 0.977 . S
C75 C71 1.684 . S
C75 H101 0.979 . S
C75 H102 0.980 . S
C75 H103 0.983 . S
C76 H52 0.948 . S
C76 C77 1.391 . S
C76 C81 1.391 . S
C77 C76 1.391 . S
C77 C78 1.391 . S
C78 H55 0.947 . S
C78 C77 1.391 . S
C78 C79 1.392 . S
C79 H56 0.948 . S
C79 C78 1.392 . S
C79 C80 1.419 . S
C80 C79 1.419 . S
C80 C81 1.391 . S
C80 C84 1.397 . S
C81 C76 1.391 . S
C81 C80 1.391 . S
C81 C82 1.399 . S
C82 C81 1.399 . S
C82 C83 1.396 . S
C82 C85 1.453 . S
C82 C86 1.684 . S
C83 C73 1.723 . S
C83 C82 1.396 . S
C83 C84 1.394 . S
C84 C54 1.723 1_645 S
C84 C80 1.397 . S
C84 C83 1.394 . S
C85 H57 0.982 . S
C85 H61 0.979 . S
C85 H62 0.977 . S
C85 C82 1.453 . S
C86 H58 0.979 . S
C86 H59 0.980 . S
C86 H60 0.983 . S
C86 C82 1.684 . S
H87 C105 0.948 . S
H88 C46 0.948 . S
H89 C64 0.979 . S
H90 C64 0.980 . S
H91 C64 0.983 1_455 S
H92 C63 0.982 . S
H93 C63 0.979 1_565 S
H94 C63 0.977 . S
H95 C65 0.948 . S
H96 C67 0.947 . S
H97 C68 0.948 . S
H98 C74 0.982 . S
H99 C74 0.979 . S
H100 C74 0.977 . S
H101 C75 0.979 . S
H102 C75 0.980 . S
H103 C75 0.983 . S
H104 C48 0.947 . S
C105 C48 1.392 . S
C105 C49 1.419 . S
C105 H87 0.948 . S
C106 C107 1.391 . S
C106 C110 1.391 . S
C106 H148 0.948 . S
C107 C106 1.391 . S
C107 C108 1.391 . S
C108 C107 1.391 . S
C108 H164 0.947 . S
C108 C165 1.392 . S
C109 C110 1.391 . S
C109 C113 1.397 . S
C109 C165 1.419 . S
C110 C106 1.391 . S
C110 C109 1.391 . S
C110 C111 1.399 . S
C111 C110 1.399 . S
C111 C114 1.396 . S
C111 C123 1.470 . S
C111 C124 1.684 . S
H112 C136 0.948 . S
C113 C109 1.397 . S
C113 C114 1.394 . S
C113 C132 1.723 . S
C114 C111 1.396 . S
C114 C113 1.394 . S
C114 C144 1.723 1_445 S
H115 C138 0.947 . S
H116 C139 0.948 . S
H117 C145 0.982 . S
H118 C146 0.979 . S
H119 C146 0.980 . S
H120 C146 0.983 . S
H121 C145 0.979 . S
H122 C145 0.977 . S
C123 C111 1.470 . S
C123 H152 0.972 1_545 S
C123 H153 0.988 . S
C123 H154 0.962 1_545 S
C124 C111 1.684 . S
C124 H149 0.979 1_455 S
C124 H150 0.980 1_455 S
C124 H151 0.983 . S
C125 C126 1.391 . S
C125 C130 1.391 . S
C125 H155 0.948 . S
C126 C125 1.391 . S
C126 C127 1.391 1_445 S
C127 C126 1.391 1_665 S
C127 C128 1.392 . S
C127 H156 0.947 . S
C128 C127 1.392 . S
C128 C129 1.419 1_655 S
C128 H157 0.948 . S
C129 C128 1.419 1_455 S
C129 C130 1.391 1_565 S
C129 C133 1.397 . S
C130 C125 1.391 . S
C130 C129 1.391 1_545 S
C130 C131 1.399 . S
C131 C130 1.399 . S
C131 C132 1.396 . S
C131 C134 1.453 . S
C131 C135 1.684 . S
C132 C113 1.723 . S
C132 C131 1.396 . S
C132 C133 1.394 1_545 S
C133 C129 1.397 . S
C133 C132 1.394 1_565 S
C133 C143 1.723 1_455 S
C134 C131 1.453 . S
C134 H158 0.982 . S
C134 H159 0.979 . S
C134 H160 0.977 . S
C135 C131 1.684 . S
C135 H161 0.979 . S
C135 H162 0.980 . S
C135 H163 0.983 . S
C136 H112 0.948 . S
C136 C137 1.391 . S
C136 C141 1.391 . S
C137 C136 1.391 . S
C137 C138 1.391 . S
C138 H115 0.947 . S
C138 C137 1.391 . S
C138 C139 1.392 . S
C139 H116 0.948 . S
C139 C138 1.392 . S
C139 C140 1.419 . S
C140 C139 1.419 . S
C140 C141 1.391 . S
C140 C144 1.397 . S
C141 C136 1.391 . S
C141 C140 1.391 . S
C141 C142 1.399 . S
C142 C141 1.399 . S
C142 C143 1.396 . S
C142 C145 1.453 . S
C142 C146 1.684 . S
C143 C133 1.723 1_655 S
C143 C142 1.396 . S
C143 C144 1.394 . S
C144 C114 1.723 1_665 S
C144 C140 1.397 . S
C144 C143 1.394 . S
C145 H117 0.982 . S
C145 H121 0.979 . S
C145 H122 0.977 . S
C145 C142 1.453 . S
C146 H118 0.979 . S
C146 H119 0.980 . S
C146 H120 0.983 . S
C146 C142 1.684 . S
H147 C165 0.948 . S
H148 C106 0.948 . S
H149 C124 0.979 1_655 S
H150 C124 0.980 1_655 S
H151 C124 0.983 . S
H152 C123 0.972 1_565 S
H153 C123 0.988 . S
H154 C123 0.962 1_565 S
H155 C125 0.948 . S
H156 C127 0.947 . S
H157 C128 0.948 . S
H158 C134 0.982 . S
H159 C134 0.979 . S
H160 C134 0.977 . S
H161 C135 0.979 . S
H162 C135 0.980 . S
H163 C135 0.983 . S
H164 C108 0.947 . S
C165 C108 1.392 . S
C165 C109 1.419 . S
C165 H147 0.948 . S
C166 C167 1.391 . S
C166 C170 1.391 . S
C166 H208 0.948 . S
C167 C166 1.391 . S
C167 C168 1.391 . S
C168 C167 1.391 . S
C168 H224 0.947 . S
C168 C225 1.392 . S
C169 C170 1.391 . S
C169 C173 1.397 . S
C169 C225 1.419 . S
C170 C166 1.391 . S
C170 C169 1.391 . S
C170 C171 1.399 . S
C171 C170 1.399 . S
C171 C174 1.396 . S
C171 C183 1.453 . S
C171 C184 1.684 . S
H172 C196 0.948 . S
C173 C169 1.397 . S
C173 C174 1.394 . S
C173 C192 1.723 . S
C174 C171 1.396 . S
C174 C173 1.394 . S
C174 C204 1.723 . S
H175 C198 0.947 . S
H176 C199 0.948 . S
H177 C205 0.982 . S
H178 C206 0.979 . S
H179 C206 0.980 . S
H180 C206 0.983 . S
H181 C205 0.979 . S
H182 C205 0.977 . S
C183 C171 1.453 . S
C183 H212 0.982 . S
C183 H213 0.979 . S
C183 H214 0.977 . S
C184 C171 1.684 . S
C184 H209 0.979 . S
C184 H210 0.980 . S
C184 H211 0.983 . S
C185 C186 1.391 . S
C185 C190 1.391 . S
C185 H215 0.948 . S
C186 C185 1.391 . S
C186 C187 1.391 . S
C187 C186 1.391 . S
C187 C188 1.392 . S
C187 H216 0.947 . S
C188 C187 1.392 . S
C188 C189 1.419 . S
C188 H217 0.948 . S
C189 C188 1.419 . S
C189 C190 1.391 . S
C189 C193 1.397 . S
C190 C185 1.391 . S
C190 C189 1.391 . S
C190 C191 1.399 . S
C191 C190 1.399 . S
C191 C192 1.396 . S
C191 C194 1.453 . S
C191 C195 1.684 . S
C192 C173 1.723 . S
C192 C191 1.396 . S
C192 C193 1.394 . S
C193 C189 1.397 . S
C193 C192 1.394 . S
C193 C203 1.723 . S
C194 C191 1.453 . S
C194 H218 0.982 . S
C194 H219 0.979 . S
C194 H220 0.977 . S
C195 C191 1.684 . S
C195 H221 0.979 . S
C195 H222 0.980 . S
C195 H223 0.983 . S
C196 H172 0.948 . S
C196 C197 1.391 . S
C196 C201 1.391 . S
C197 C196 1.391 . S
C197 C198 1.391 . S
C198 H175 0.947 . S
C198 C197 1.391 . S
C198 C199 1.392 . S
C199 H176 0.948 . S
C199 C198 1.392 . S
C199 C200 1.419 . S
C200 C199 1.419 . S
C200 C201 1.391 . S
C200 C204 1.397 . S
C201 C196 1.391 . S
C201 C200 1.391 . S
C201 C202 1.399 . S
C202 C201 1.399 . S
C202 C203 1.396 . S
C202 C205 1.453 . S
C202 C206 1.684 . S
C203 C193 1.723 . S
C203 C202 1.396 . S
C203 C204 1.394 . S
C204 C174 1.723 . S
C204 C200 1.397 . S
C204 C203 1.394 . S
C205 H177 0.982 . S
C205 H181 0.979 . S
C205 H182 0.977 . S
C205 C202 1.453 . S
C206 H178 0.979 . S
C206 H179 0.980 . S
C206 H180 0.983 . S
C206 C202 1.684 . S
H207 C225 0.948 . S
H208 C166 0.948 . S
H209 C184 0.979 . S
H210 C184 0.980 . S
H211 C184 0.983 . S
H212 C183 0.982 . S
H213 C183 0.979 . S
H214 C183 0.977 . S
H215 C185 0.948 . S
H216 C187 0.947 . S
H217 C188 0.948 . S
H218 C194 0.982 . S
H219 C194 0.979 . S
H220 C194 0.977 . S
H221 C195 0.979 . S
H222 C195 0.980 . S
H223 C195 0.983 . S
H224 C168 0.947 . S
C225 C168 1.392 . S
C225 C169 1.419 . S
C225 H207 0.948 . S
C226 C227 1.391 . S
C226 C230 1.391 . S
C226 H268 0.948 . S
C227 C226 1.391 . S
C227 C228 1.391 . S
C228 C227 1.391 . S
C228 H284 0.947 . S
C228 C285 1.392 . S
C229 C230 1.391 . S
C229 C233 1.397 . S
C229 C285 1.419 . S
C230 C226 1.391 . S
C230 C229 1.391 . S
C230 C231 1.399 . S
C231 C230 1.399 . S
C231 C234 1.396 . S
C231 C243 1.453 . S
C231 C244 1.684 . S
H232 C256 0.948 . S
C233 C229 1.397 . S
C233 C234 1.394 . S
C233 C252 1.723 . S
C234 C231 1.396 . S
C234 C233 1.394 . S
C234 C264 1.723 . S
H235 C258 0.947 . S
H236 C259 0.948 . S
H237 C265 0.982 . S
H238 C266 0.979 . S
H239 C266 0.980 . S
H240 C266 0.983 . S
H241 C265 0.979 . S
H242 C265 0.977 . S
C243 C231 1.453 . S
C243 H272 0.982 . S
C243 H273 0.979 . S
C243 H274 0.977 . S
C244 C231 1.684 . S
C244 H269 0.979 . S
C244 H270 0.980 . S
C244 H271 0.983 . S
C245 C246 1.391 . S
C245 C250 1.391 . S
C245 H275 0.948 . S
C246 C245 1.391 . S
C246 C247 1.391 . S
C247 C246 1.391 . S
C247 C248 1.392 . S
C247 H276 0.947 . S
C248 C247 1.392 . S
C248 C249 1.419 . S
C248 H277 0.948 . S
C249 C248 1.419 . S
C249 C250 1.391 . S
C249 C253 1.397 . S
C250 C245 1.391 . S
C250 C249 1.391 . S
C250 C251 1.399 . S
C251 C250 1.399 . S
C251 C252 1.396 . S
C251 C254 1.453 . S
C251 C255 1.684 . S
C252 C233 1.723 . S
C252 C251 1.396 . S
C252 C253 1.394 . S
C253 C249 1.397 . S
C253 C252 1.394 . S
C253 C263 1.723 . S
C254 C251 1.453 . S
C254 H278 0.982 . S
C254 H279 0.979 . S
C254 H280 0.977 . S
C255 C251 1.684 . S
C255 H281 0.979 . S
C255 H282 0.980 . S
C255 H283 0.983 . S
C256 H232 0.948 . S
C256 C257 1.391 . S
C256 C261 1.391 . S
C257 C256 1.391 . S
C257 C258 1.391 . S
C258 H235 0.947 . S
C258 C257 1.391 . S
C258 C259 1.392 . S
C259 H236 0.948 . S
C259 C258 1.392 . S
C259 C260 1.419 . S
C260 C259 1.419 . S
C260 C261 1.391 . S
C260 C264 1.397 . S
C261 C256 1.391 . S
C261 C260 1.391 . S
C261 C262 1.399 . S
C262 C261 1.399 . S
C262 C263 1.396 . S
C262 C265 1.453 . S
C262 C266 1.684 . S
C263 C253 1.723 . S
C263 C262 1.396 . S
C263 C264 1.394 . S
C264 C234 1.723 . S
C264 C260 1.397 . S
C264 C263 1.394 . S
C265 H237 0.982 . S
C265 H241 0.979 . S
C265 H242 0.977 . S
C265 C262 1.453 . S
C266 H238 0.979 . S
C266 H239 0.980 . S
C266 H240 0.983 . S
C266 C262 1.684 . S
H267 C285 0.948 . S
H268 C226 0.948 . S
H269 C244 0.979 . S
H270 C244 0.980 . S
H271 C244 0.983 . S
H272 C243 0.982 . S
H273 C243 0.979 . S
H274 C243 0.977 . S
H275 C245 0.948 . S
H276 C247 0.947 . S
H277 C248 0.948 . S
H278 C254 0.982 . S
H279 C254 0.979 . S
H280 C254 0.977 . S
H281 C255 0.979 . S
H282 C255 0.980 . S
H283 C255 0.983 . S
H284 C228 0.947 . S
C285 C228 1.392 . S
C285 C229 1.419 . S
C285 H267 0.948 . S
H286 C304 0.951 . S
H287 C306 0.951 . S
H288 C308 0.950 . S
H289 C309 0.950 . S
H290 C311 0.950 . S
H291 C314 0.950 . S
H292 C315 0.950 . S
H293 C317 0.950 . S
H294 C318 0.950 . S
H295 C319 0.951 . S
H296 C321 0.951 . S
H297 C323 0.950 . S
H298 C324 0.950 . S
H299 C326 0.950 . S
H300 C329 0.950 . S
H301 C330 0.950 . S
H302 C332 0.950 . S
H303 C333 0.950 . S
C304 H286 0.951 . S
C304 C305 1.366 . S
C304 C306 1.388 . S
C305 C304 1.366 . S
C305 C309 1.385 . S
C306 H287 0.951 . S
C306 C304 1.388 . S
C306 C307 1.366 . S
C307 C306 1.366 . S
C307 C308 1.414 . S
C307 C310 1.499 . S
C308 H288 0.950 . S
C308 C307 1.414 . S
C308 C309 1.374 . S
C309 H289 0.950 . S
C309 C305 1.385 . S
C309 C308 1.374 . S
C310 C307 1.499 . S
C310 C311 1.373 . S
C310 C312 1.389 . S
C311 H290 0.950 . S
C311 C310 1.373 . S
C311 C327 1.377 . S
C312 C310 1.389 . S
C312 C313 1.524 . S
C312 C326 1.377 . S
C313 C312 1.524 . S
C313 C314 1.397 1_554 S
C313 C318 1.363 . S
C314 H291 0.950 . S
C314 C313 1.397 1_556 S
C314 C315 1.334 . S
C315 H292 0.950 . S
C315 C314 1.334 . S
C315 C316 1.287 . S
C316 C315 1.287 . S
C316 C317 1.524 . S
C316 H335 0.913 . S
C317 H293 0.950 . S
C317 C316 1.524 . S
C317 C318 1.415 1_556 S
C318 H294 0.950 . S
C318 C313 1.363 . S
C318 C317 1.415 1_554 S
C319 H295 0.951 . S
C319 C320 1.366 . S
C319 C321 1.388 . S
C320 C319 1.366 . S
C320 C324 1.385 . S
C321 H296 0.951 . S
C321 C319 1.388 . S
C321 C322 1.366 . S
C322 C321 1.366 . S
C322 C323 1.414 . S
C322 C325 1.499 . S
C323 H297 0.950 . S
C323 C322 1.414 . S
C323 C324 1.374 . S
C324 H298 0.950 . S
C324 C320 1.385 . S
C324 C323 1.374 . S
C325 C322 1.499 . S
C325 C326 1.373 . S
C325 C327 1.389 . S
C326 H299 0.950 . S
C326 C312 1.377 . S
C326 C325 1.373 . S
C327 C311 1.377 . S
C327 C325 1.389 . S
C327 C328 1.524 . S
C328 C327 1.524 . S
C328 C329 1.397 . S
C328 C333 1.363 . S
C329 H300 0.950 . S
C329 C328 1.397 . S
C329 C330 1.334 . S
C330 H301 0.950 . S
C330 C329 1.334 . S
C330 C331 1.287 . S
C331 C330 1.287 . S
C331 C332 1.524 . S
C331 H334 0.999 . S
C332 H302 0.950 . S
C332 C331 1.524 . S
C332 C333 1.415 . S
C333 H303 0.950 . S
C333 C328 1.363 . S
C333 C332 1.415 . S
H334 C331 0.999 . S
H335 C316 0.913 . S
H336 C354 0.951 . S
H337 C356 0.951 . S
H338 C358 0.950 . S
H339 C359 0.950 . S
H340 C361 0.950 . S
H341 C364 0.950 . S
H342 C365 0.950 . S
H343 C367 0.950 . S
H344 C368 0.950 . S
H345 C369 0.951 . S
H346 C371 0.951 . S
H347 C373 0.950 . S
H348 C374 0.950 . S
H349 C376 0.950 . S
H350 C379 0.950 . S
H351 C380 0.950 . S
H352 C382 0.950 . S
H353 C383 0.950 . S
C354 H336 0.951 . S
C354 C355 1.366 . S
C354 C356 1.388 . S
C355 C354 1.366 . S
C355 C359 1.385 1_556 S
C356 H337 0.951 . S
C356 C354 1.388 . S
C356 C357 1.366 . S
C357 C356 1.366 . S
C357 C358 1.414 1_556 S
C357 C360 1.499 . S
C358 H338 0.950 . S
C358 C357 1.414 1_554 S
C358 C359 1.374 . S
C359 H339 0.950 . S
C359 C355 1.385 1_554 S
C359 C358 1.374 . S
C360 C357 1.499 . S
C360 C361 1.373 . S
C360 C362 1.389 . S
C361 H340 0.950 . S
C361 C360 1.373 . S
C361 C377 1.377 . S
C362 C360 1.389 . S
C362 C363 1.524 . S
C362 C376 1.377 . S
C363 C362 1.524 . S
C363 C364 1.397 . S
C363 C368 1.363 . S
C364 H341 0.950 . S
C364 C363 1.397 . S
C364 C365 1.334 . S
C365 H342 0.950 . S
C365 C364 1.334 . S
C365 C366 1.287 . S
C366 C365 1.287 . S
C366 C367 1.524 . S
C366 H385 0.913 . S
C367 H343 0.950 . S
C367 C366 1.524 . S
C367 C368 1.415 . S
C368 H344 0.950 . S
C368 C363 1.363 . S
C368 C367 1.415 . S
C369 H345 0.951 . S
C369 C370 1.366 . S
C369 C371 1.388 . S
C370 C369 1.366 . S
C370 C374 1.385 . S
C371 H346 0.951 . S
C371 C369 1.388 . S
C371 C372 1.366 . S
C372 C371 1.366 . S
C372 C373 1.414 . S
C372 C375 1.499 . S
C373 H347 0.950 . S
C373 C372 1.414 . S
C373 C374 1.374 . S
C374 H348 0.950 . S
C374 C370 1.385 . S
C374 C373 1.374 . S
C375 C372 1.499 . S
C375 C376 1.373 . S
C375 C377 1.389 . S
C376 H349 0.950 . S
C376 C362 1.377 . S
C376 C375 1.373 . S
C377 C361 1.377 . S
C377 C375 1.389 . S
C377 C378 1.524 . S
C378 C377 1.524 . S
C378 C379 1.397 . S
C378 C383 1.363 1_556 S
C379 H350 0.950 . S
C379 C378 1.397 . S
C379 C380 1.334 . S
C380 H351 0.950 . S
C380 C379 1.334 . S
C380 C381 1.287 . S
C381 C380 1.287 . S
C381 C382 1.524 1_556 S
C381 H384 0.999 . S
C382 H352 0.950 . S
C382 C381 1.524 1_554 S
C382 C383 1.415 . S
C383 H353 0.950 . S
C383 C378 1.363 1_554 S
C383 C382 1.415 . S
H384 C381 0.999 . S
H385 C366 0.913 . S
H386 C404 0.951 1_556 S
H387 C406 0.951 . S
H388 C408 0.950 . S
H389 C409 0.950 . S
H390 C411 0.950 . S
H391 C414 0.950 . S
H392 C415 0.950 . S
H393 C417 0.950 . S
H394 C418 0.950 1_556 S
H395 C419 0.951 . S
H396 C421 0.951 . S
H397 C423 0.950 . S
H398 C424 0.950 . S
H399 C426 0.950 . S
H400 C429 0.950 . S
H401 C430 0.950 . S
H402 C432 0.950 . S
H403 C433 0.950 . S
C404 H386 0.951 1_554 S
C404 C405 1.366 . S
C404 C406 1.388 . S
C405 C404 1.366 . S
C405 C409 1.385 . S
C406 H387 0.951 . S
C406 C404 1.388 . S
C406 C407 1.366 . S
C407 C406 1.366 . S
C407 C408 1.414 . S
C407 C410 1.499 . S
C408 H388 0.950 . S
C408 C407 1.414 . S
C408 C409 1.374 . S
C409 H389 0.950 . S
C409 C405 1.385 . S
C409 C408 1.374 . S
C410 C407 1.499 . S
C410 C411 1.373 . S
C410 C412 1.389 . S
C411 H390 0.950 . S
C411 C410 1.373 . S
C411 C427 1.377 . S
C412 C410 1.389 . S
C412 C413 1.524 . S
C412 C426 1.377 . S
C413 C412 1.524 . S
C413 C414 1.397 . S
C413 C418 1.363 . S
C414 H391 0.950 . S
C414 C413 1.397 . S
C414 C415 1.334 . S
C415 H392 0.950 . S
C415 C414 1.334 . S
C415 C416 1.287 . S
C416 C415 1.287 . S
C416 C417 1.524 1_554 S
C416 H435 0.913 1_554 S
C417 H393 0.950 . S
C417 C416 1.524 1_556 S
C417 C418 1.415 1_556 S
C418 H394 0.950 1_554 S
C418 C413 1.363 . S
C418 C417 1.415 1_554 S
C419 H395 0.951 . S
C419 C420 1.366 . S
C419 C421 1.388 . S
C420 C419 1.366 . S
C420 C424 1.385 . S
C421 H396 0.951 . S
C421 C419 1.388 . S
C421 C422 1.366 . S
C422 C421 1.366 . S
C422 C423 1.414 . S
C422 C425 1.499 . S
C423 H397 0.950 . S
C423 C422 1.414 . S
C423 C424 1.374 . S
C424 H398 0.950 . S
C424 C420 1.385 . S
C424 C423 1.374 . S
C425 C422 1.499 . S
C425 C426 1.373 . S
C425 C427 1.389 . S
C426 H399 0.950 . S
C426 C412 1.377 . S
C426 C425 1.373 . S
C427 C411 1.377 . S
C427 C425 1.389 . S
C427 C428 1.524 . S
C428 C427 1.524 . S
C428 C429 1.397 . S
C428 C433 1.363 . S
C429 H400 0.950 . S
C429 C428 1.397 . S
C429 C430 1.334 . S
C430 H401 0.950 . S
C430 C429 1.334 . S
C430 C431 1.287 . S
C431 C430 1.287 . S
C431 C432 1.524 . S
C431 H434 0.999 . S
C432 H402 0.950 . S
C432 C431 1.524 . S
C432 C433 1.415 . S
C433 H403 0.950 . S
C433 C428 1.363 . S
C433 C432 1.415 . S
H434 C431 0.999 . S
H435 C416 0.913 1_556 S
H436 C454 0.953 . S
H437 C456 0.951 . S
H438 C458 0.950 . S
H439 C459 0.950 . S
H440 C461 0.950 . S
H441 C464 0.950 . S
H442 C465 0.950 . S
H443 C467 0.950 . S
H444 C468 0.950 . S
H445 C469 0.951 . S
H446 C471 0.951 . S
H447 C473 0.950 . S
H448 C474 0.950 . S
H449 C476 0.950 . S
H450 C479 0.950 . S
H451 C480 0.950 . S
H452 C482 0.950 . S
H453 C483 0.950 . S
C454 H436 0.953 . S
C454 C455 1.365 1_554 S
C454 C456 1.387 1_554 S
C455 C454 1.365 1_556 S
C455 C459 1.385 . S
C456 H437 0.951 . S
C456 C454 1.387 1_556 S
C456 C457 1.366 . S
C457 C456 1.366 . S
C457 C458 1.414 . S
C457 C460 1.499 . S
C458 H438 0.950 . S
C458 C457 1.414 . S
C458 C459 1.374 . S
C459 H439 0.950 . S
C459 C455 1.385 . S
C459 C458 1.374 . S
C460 C457 1.499 . S
C460 C461 1.373 . S
C460 C462 1.389 . S
C461 H440 0.950 . S
C461 C460 1.373 . S
C461 C477 1.377 . S
C462 C460 1.389 . S
C462 C463 1.524 1_556 S
C462 C476 1.377 . S
C463 C462 1.524 1_554 S
C463 C464 1.397 . S
C463 C468 1.363 . S
C464 H441 0.950 . S
C464 C463 1.397 . S
C464 C465 1.334 . S
C465 H442 0.950 . S
C465 C464 1.334 . S
C465 C466 1.287 . S
C466 C465 1.287 . S
C466 C467 1.524 . S
C466 H485 0.913 . S
C467 H443 0.950 . S
C467 C466 1.524 . S
C467 C468 1.415 . S
C468 H444 0.950 . S
C468 C463 1.363 . S
C468 C467 1.415 . S
C469 H445 0.951 . S
C469 C470 1.366 . S
C469 C471 1.388 . S
C470 C469 1.366 . S
C470 C474 1.385 . S
C471 H446 0.951 . S
C471 C469 1.388 . S
C471 C472 1.366 . S
C472 C471 1.366 . S
C472 C473 1.414 . S
C472 C475 1.499 . S
C473 H447 0.950 . S
C473 C472 1.414 . S
C473 C474 1.374 . S
C474 H448 0.950 . S
C474 C470 1.385 . S
C474 C473 1.374 . S
C475 C472 1.499 . S
C475 C476 1.373 . S
C475 C477 1.389 . S
C476 H449 0.950 . S
C476 C462 1.377 . S
C476 C475 1.373 . S
C477 C461 1.377 . S
C477 C475 1.389 . S
C477 C478 1.524 . S
C478 C477 1.524 . S
C478 C479 1.397 . S
C478 C483 1.363 . S
C479 H450 0.950 . S
C479 C478 1.397 . S
C479 C480 1.334 . S
C480 H451 0.950 . S
C480 C479 1.334 . S
C480 C481 1.287 . S
C481 C480 1.287 . S
C481 C482 1.524 . S
C481 H484 0.999 . S
C482 H452 0.950 . S
C482 C481 1.524 . S
C482 C483 1.415 . S
C483 H453 0.950 . S
C483 C478 1.363 . S
C483 C482 1.415 . S
H484 C481 0.999 . S
H485 C466 0.913 . S
H486 C504 0.951 . S
H487 C506 0.951 . S
H488 C508 0.950 . S
H489 C509 0.950 . S
H490 C511 0.950 . S
H491 C514 0.950 . S
H492 C515 0.950 . S
H493 C517 0.950 . S
H494 C518 0.950 . S
H495 C519 0.951 . S
H496 C521 0.951 . S
H497 C523 0.950 . S
H498 C524 0.950 . S
H499 C526 0.950 . S
H500 C529 0.950 . S
H501 C530 0.950 . S
H502 C532 0.950 . S
H503 C533 0.950 . S
C504 H486 0.951 . S
C504 C505 1.366 . S
C504 C506 1.388 . S
C505 C504 1.366 . S
C505 C509 1.385 . S
C506 H487 0.951 . S
C506 C504 1.388 . S
C506 C507 1.366 . S
C507 C506 1.366 . S
C507 C508 1.414 . S
C507 C510 1.499 . S
C508 H488 0.950 . S
C508 C507 1.414 . S
C508 C509 1.374 . S
C509 H489 0.950 . S
C509 C505 1.385 . S
C509 C508 1.374 . S
C510 C507 1.499 . S
C510 C511 1.373 . S
C510 C512 1.389 . S
C511 H490 0.950 . S
C511 C510 1.373 . S
C511 C527 1.377 . S
C512 C510 1.389 . S
C512 C513 1.524 . S
C512 C526 1.377 . S
C513 C512 1.524 . S
C513 C514 1.397 . S
C513 C518 1.363 . S
C514 H491 0.950 . S
C514 C513 1.397 . S
C514 C515 1.334 . S
C515 H492 0.950 . S
C515 C514 1.334 . S
C515 C516 1.287 . S
C516 C515 1.287 . S
C516 C517 1.524 . S
C516 H535 0.913 . S
C517 H493 0.950 . S
C517 C516 1.524 . S
C517 C518 1.415 . S
C518 H494 0.950 . S
C518 C513 1.363 . S
C518 C517 1.415 . S
C519 H495 0.951 . S
C519 C520 1.366 . S
C519 C521 1.388 . S
C520 C519 1.366 . S
C520 C524 1.385 . S
C521 H496 0.951 . S
C521 C519 1.388 . S
C521 C522 1.366 . S
C522 C521 1.366 . S
C522 C523 1.414 . S
C522 C525 1.499 . S
C523 H497 0.950 . S
C523 C522 1.414 . S
C523 C524 1.374 . S
C524 H498 0.950 . S
C524 C520 1.385 . S
C524 C523 1.374 . S
C525 C522 1.499 . S
C525 C526 1.373 . S
C525 C527 1.389 . S
C526 H499 0.950 . S
C526 C512 1.377 . S
C526 C525 1.373 . S
C527 C511 1.377 . S
C527 C525 1.389 . S
C527 C528 1.524 . S
C528 C527 1.524 . S
C528 C529 1.397 . S
C528 C533 1.363 . S
C529 H500 0.950 . S
C529 C528 1.397 . S
C529 C530 1.334 . S
C530 H501 0.950 . S
C530 C529 1.334 . S
C530 C531 1.287 . S
C531 C530 1.287 . S
C531 C532 1.524 . S
C531 H534 0.999 . S
C532 H502 0.950 . S
C532 C531 1.524 . S
C532 C533 1.415 . S
C533 H503 0.950 . S
C533 C528 1.363 . S
C533 C532 1.415 . S
H534 C531 0.999 . S
H535 C516 0.913 . S
H536 C554 0.951 . S
H537 C556 0.951 . S
H538 C558 0.950 . S
H539 C559 0.950 . S
H540 C561 0.950 . S
H541 C564 0.950 . S
H542 C565 0.950 . S
H543 C567 0.950 . S
H544 C568 0.950 . S
H545 C569 0.951 . S
H546 C571 0.951 . S
H547 C573 0.950 . S
H548 C574 0.950 . S
H549 C576 0.950 . S
H550 C579 0.950 . S
H551 C580 0.950 . S
H552 C582 0.950 . S
H553 C583 0.950 . S
C554 H536 0.951 . S
C554 C555 1.366 . S
C554 C556 1.388 . S
C555 C554 1.366 . S
C555 C559 1.385 . S
C556 H537 0.951 . S
C556 C554 1.388 . S
C556 C557 1.366 . S
C557 C556 1.366 . S
C557 C558 1.414 . S
C557 C560 1.499 . S
C558 H538 0.950 . S
C558 C557 1.414 . S
C558 C559 1.374 . S
C559 H539 0.950 . S
C559 C555 1.385 . S
C559 C558 1.374 . S
C560 C557 1.499 . S
C560 C561 1.373 . S
C560 C562 1.389 . S
C561 H540 0.950 . S
C561 C560 1.373 . S
C561 C577 1.377 . S
C562 C560 1.389 . S
C562 C563 1.524 . S
C562 C576 1.377 . S
C563 C562 1.524 . S
C563 C564 1.397 . S
C563 C568 1.363 . S
C564 H541 0.950 . S
C564 C563 1.397 . S
C564 C565 1.334 . S
C565 H542 0.950 . S
C565 C564 1.334 . S
C565 C566 1.287 . S
C566 C565 1.287 . S
C566 C567 1.524 . S
C566 H585 0.913 . S
C567 H543 0.950 . S
C567 C566 1.524 . S
C567 C568 1.415 . S
C568 H544 0.950 . S
C568 C563 1.363 . S
C568 C567 1.415 . S
C569 H545 0.951 . S
C569 C570 1.366 . S
C569 C571 1.388 . S
C570 C569 1.366 . S
C570 C574 1.385 . S
C571 H546 0.951 . S
C571 C569 1.388 . S
C571 C572 1.366 . S
C572 C571 1.366 . S
C572 C573 1.414 . S
C572 C575 1.499 . S
C573 H547 0.950 . S
C573 C572 1.414 . S
C573 C574 1.374 . S
C574 H548 0.950 . S
C574 C570 1.385 . S
C574 C573 1.374 . S
C575 C572 1.499 . S
C575 C576 1.373 . S
C575 C577 1.389 . S
C576 H549 0.950 . S
C576 C562 1.377 . S
C576 C575 1.373 . S
C577 C561 1.377 . S
C577 C575 1.389 . S
C577 C578 1.524 . S
C578 C577 1.524 . S
C578 C579 1.397 . S
C578 C583 1.363 . S
C579 H550 0.950 . S
C579 C578 1.397 . S
C579 C580 1.334 . S
C580 H551 0.950 . S
C580 C579 1.334 . S
C580 C581 1.287 . S
C581 C580 1.287 . S
C581 C582 1.524 . S
C581 H584 0.999 . S
C582 H552 0.950 . S
C582 C581 1.524 . S
C582 C583 1.415 . S
C583 H553 0.950 . S
C583 C578 1.363 . S
C583 C582 1.415 . S
H584 C581 0.999 . S
H585 C566 0.913 . S
H586 C604 0.951 . S
H587 C606 0.951 . S
H588 C608 0.950 . S
H589 C609 0.950 . S
H590 C611 0.950 . S
H591 C614 0.950 . S
H592 C615 0.950 . S
H593 C617 0.950 . S
H594 C618 0.950 . S
H595 C619 0.951 . S
H596 C621 0.951 . S
H597 C623 0.950 . S
H598 C624 0.950 . S
H599 C626 0.950 . S
H600 C629 0.950 . S
H601 C630 0.950 . S
H602 C632 0.950 . S
H603 C633 0.950 . S
C604 H586 0.951 . S
C604 C605 1.366 . S
C604 C606 1.388 . S
C605 C604 1.366 . S
C605 C609 1.385 . S
C606 H587 0.951 . S
C606 C604 1.388 . S
C606 C607 1.366 . S
C607 C606 1.366 . S
C607 C608 1.414 . S
C607 C610 1.499 . S
C608 H588 0.950 . S
C608 C607 1.414 . S
C608 C609 1.374 . S
C609 H589 0.950 . S
C609 C605 1.385 . S
C609 C608 1.374 . S
C610 C607 1.499 . S
C610 C611 1.373 . S
C610 C612 1.389 . S
C611 H590 0.950 . S
C611 C610 1.373 . S
C611 C627 1.377 . S
C612 C610 1.389 . S
C612 C613 1.524 . S
C612 C626 1.377 . S
C613 C612 1.524 . S
C613 C614 1.397 . S
C613 C618 1.363 . S
C614 H591 0.950 . S
C614 C613 1.397 . S
C614 C615 1.334 . S
C615 H592 0.950 . S
C615 C614 1.334 . S
C615 C616 1.287 . S
C616 C615 1.287 . S
C616 C617 1.524 . S
C616 H635 0.913 . S
C617 H593 0.950 . S
C617 C616 1.524 . S
C617 C618 1.415 . S
C618 H594 0.950 . S
C618 C613 1.363 . S
C618 C617 1.415 . S
C619 H595 0.951 . S
C619 C620 1.366 . S
C619 C621 1.388 . S
C620 C619 1.366 . S
C620 C624 1.385 . S
C621 H596 0.951 . S
C621 C619 1.388 . S
C621 C622 1.366 . S
C622 C621 1.366 . S
C622 C623 1.414 . S
C622 C625 1.499 . S
C623 H597 0.950 . S
C623 C622 1.414 . S
C623 C624 1.374 . S
C624 H598 0.950 . S
C624 C620 1.385 . S
C624 C623 1.374 . S
C625 C622 1.499 . S
C625 C626 1.373 . S
C625 C627 1.389 . S
C626 H599 0.950 . S
C626 C612 1.377 . S
C626 C625 1.373 . S
C627 C611 1.377 . S
C627 C625 1.389 . S
C627 C628 1.524 . S
C628 C627 1.524 . S
C628 C629 1.397 . S
C628 C633 1.363 . S
C629 H600 0.950 . S
C629 C628 1.397 . S
C629 C630 1.334 . S
C630 H601 0.950 . S
C630 C629 1.334 . S
C630 C631 1.287 . S
C631 C630 1.287 . S
C631 C632 1.524 . S
C631 H634 0.999 . S
C632 H602 0.950 . S
C632 C631 1.524 . S
C632 C633 1.415 . S
C633 H603 0.950 . S
C633 C628 1.363 . S
C633 C632 1.415 . S
H634 C631 0.999 . S
H635 C616 0.913 . S
H636 C654 0.951 . S
H637 C656 0.951 . S
H638 C658 0.950 . S
H639 C659 0.950 . S
H640 C661 0.950 . S
H641 C664 0.950 . S
H642 C665 0.950 . S
H643 C667 0.950 . S
H644 C668 0.950 . S
H645 C669 0.951 . S
H646 C671 0.951 . S
H647 C673 0.950 . S
H648 C674 0.950 . S
H649 C676 0.950 . S
H650 C679 0.950 . S
H651 C680 0.950 . S
H652 C682 0.950 . S
H653 C683 0.950 . S
C654 H636 0.951 . S
C654 C655 1.366 . S
C654 C656 1.388 . S
C655 C654 1.366 . S
C655 C659 1.385 . S
C656 H637 0.951 . S
C656 C654 1.388 . S
C656 C657 1.366 . S
C657 C656 1.366 . S
C657 C658 1.414 . S
C657 C660 1.499 . S
C658 H638 0.950 . S
C658 C657 1.414 . S
C658 C659 1.374 . S
C659 H639 0.950 . S
C659 C655 1.385 . S
C659 C658 1.374 . S
C660 C657 1.499 . S
C660 C661 1.373 . S
C660 C662 1.389 . S
C661 H640 0.950 . S
C661 C660 1.373 . S
C661 C677 1.377 . S
C662 C660 1.389 . S
C662 C663 1.524 . S
C662 C676 1.377 . S
C663 C662 1.524 . S
C663 C664 1.397 . S
C663 C668 1.363 . S
C664 H641 0.950 . S
C664 C663 1.397 . S
C664 C665 1.334 . S
C665 H642 0.950 . S
C665 C664 1.334 . S
C665 C666 1.287 . S
C666 C665 1.287 . S
C666 C667 1.524 . S
C666 H685 0.913 . S
C667 H643 0.950 . S
C667 C666 1.524 . S
C667 C668 1.415 . S
C668 H644 0.950 . S
C668 C663 1.363 . S
C668 C667 1.415 . S
C669 H645 0.951 . S
C669 C670 1.366 . S
C669 C671 1.388 . S
C670 C669 1.366 . S
C670 C674 1.385 . S
C671 H646 0.951 . S
C671 C669 1.388 . S
C671 C672 1.366 . S
C672 C671 1.366 . S
C672 C673 1.414 . S
C672 C675 1.499 . S
C673 H647 0.950 . S
C673 C672 1.414 . S
C673 C674 1.374 . S
C674 H648 0.950 . S
C674 C670 1.385 . S
C674 C673 1.374 . S
C675 C672 1.499 . S
C675 C676 1.373 . S
C675 C677 1.389 . S
C676 H649 0.950 . S
C676 C662 1.377 . S
C676 C675 1.373 . S
C677 C661 1.377 . S
C677 C675 1.389 . S
C677 C678 1.524 . S
C678 C677 1.524 . S
C678 C679 1.397 . S
C678 C683 1.363 . S
C679 H650 0.950 . S
C679 C678 1.397 . S
C679 C680 1.334 . S
C680 H651 0.950 . S
C680 C679 1.334 . S
C680 C681 1.287 . S
C681 C680 1.287 . S
C681 C682 1.524 . S
C681 H684 0.999 . S
C682 H652 0.950 . S
C682 C681 1.524 . S
C682 C683 1.415 . S
C683 H653 0.950 . S
C683 C678 1.363 . S
C683 C682 1.415 . S
H684 C681 0.999 . S
H685 C666 0.913 . S
H686 C704 0.951 . S
H687 C706 0.951 . S
H688 C708 0.950 . S
H689 C709 0.950 . S
H690 C711 0.950 . S
H691 C714 0.950 . S
H692 C715 0.950 . S
H693 C717 0.950 1_545 S
H694 C718 0.950 . S
H695 C719 0.951 . S
H696 C721 0.951 . S
H697 C723 0.950 . S
H698 C724 0.950 . S
H699 C726 0.950 . S
H700 C729 0.950 . S
H701 C730 0.950 . S
H702 C732 0.950 . S
H703 C733 0.950 1_565 S
C704 H686 0.951 . S
C704 C705 1.366 . S
C704 C706 1.388 . S
C705 C704 1.366 . S
C705 C709 1.385 1_445 S
C706 H687 0.951 . S
C706 C704 1.388 . S
C706 C707 1.366 . S
C707 C706 1.366 . S
C707 C708 1.414 1_445 S
C707 C710 1.499 . S
C708 H688 0.950 . S
C708 C707 1.414 1_665 S
C708 C709 1.374 . S
C709 H689 0.950 . S
C709 C705 1.385 1_665 S
C709 C708 1.374 . S
C710 C707 1.499 . S
C710 C711 1.375 1_455 S
C710 C712 1.388 1_545 S
C711 H690 0.950 . S
C711 C710 1.375 1_655 S
C711 C727 1.377 . S
C712 C710 1.388 1_565 S
C712 C713 1.524 . S
C712 C726 1.377 . S
C713 C712 1.524 . S
C713 C714 1.397 . S
C713 C718 1.363 1_565 S
C714 H691 0.950 . S
C714 C713 1.397 . S
C714 C715 1.334 . S
C715 H692 0.950 . S
C715 C714 1.334 . S
C715 C716 1.287 . S
C716 C715 1.287 . S
C716 C717 1.524 . S
C716 H735 0.913 . S
C717 H693 0.950 1_565 S
C717 C716 1.524 . S
C717 C718 1.415 1_565 S
C718 H694 0.950 . S
C718 C713 1.363 1_545 S
C718 C717 1.415 1_545 S
C719 H695 0.951 . S
C719 C720 1.353 1_665 S
C719 C721 1.388 . S
C720 C719 1.353 1_445 S
C720 C724 1.398 . S
C721 H696 0.951 . S
C721 C719 1.388 . S
C721 C722 1.366 1_665 S
C722 C721 1.366 1_445 S
C722 C723 1.414 . S
C722 C725 1.499 . S
C723 H697 0.950 . S
C723 C722 1.414 . S
C723 C724 1.374 . S
C724 H698 0.950 . S
C724 C720 1.398 . S
C724 C723 1.374 . S
C725 C722 1.499 . S
C725 C726 1.373 1_545 S
C725 C727 1.389 1_455 S
C726 H699 0.950 . S
C726 C712 1.377 . S
C726 C725 1.373 1_565 S
C727 C711 1.377 . S
C727 C725 1.389 1_655 S
C727 C728 1.524 . S
C728 C727 1.524 . S
C728 C729 1.397 . S
C728 C733 1.363 . S
C729 H700 0.950 . S
C729 C728 1.397 . S
C729 C730 1.334 . S
C730 H701 0.950 . S
C730 C729 1.334 . S
C730 C731 1.287 . S
C731 C730 1.287 . S
C731 C732 1.524 . S
C731 H734 0.999 . S
C732 H702 0.950 . S
C732 C731 1.524 . S
C732 C733 1.415 . S
C733 H703 0.950 1_545 S
C733 C728 1.363 . S
C733 C732 1.415 . S
H734 C731 0.999 . S
H735 C716 0.913 . S
H736 C754 0.951 . S
H737 C756 0.951 . S
H738 C758 0.950 . S
H739 C759 0.950 . S
H740 C761 0.950 . S
H741 C764 0.950 . S
H742 C765 0.950 . S
H743 C767 0.950 . S
H744 C768 0.950 1_565 S
H745 C769 0.951 . S
H746 C771 0.951 . S
H747 C773 0.950 . S
H748 C774 0.950 . S
H749 C776 0.950 . S
H750 C779 0.950 . S
H751 C780 0.950 . S
H752 C782 0.950 . S
H753 C783 0.958 . S
C754 H736 0.951 . S
C754 C755 1.366 1_565 S
C754 C756 1.388 . S
C755 C754 1.366 1_545 S
C755 C759 1.385 1_455 S
C756 H737 0.951 . S
C756 C754 1.388 . S
C756 C757 1.366 1_565 S
C757 C756 1.366 1_545 S
C757 C758 1.414 1_455 S
C757 C760 1.499 . S
C758 H738 0.950 . S
C758 C757 1.414 1_655 S
C758 C759 1.374 . S
C759 H739 0.950 . S
C759 C755 1.385 1_655 S
C759 C758 1.374 . S
C760 C757 1.499 . S
C760 C761 1.373 1_445 S
C760 C762 1.389 . S
C761 H740 0.950 . S
C761 C760 1.373 1_665 S
C761 C777 1.377 . S
C762 C760 1.389 . S
C762 C763 1.524 . S
C762 C776 1.377 . S
C763 C762 1.524 . S
C763 C764 1.397 . S
C763 C768 1.363 . S
C764 H741 0.950 . S
C764 C763 1.397 . S
C764 C765 1.334 . S
C765 H742 0.950 . S
C765 C764 1.334 . S
C765 C766 1.287 . S
C766 C765 1.287 . S
C766 C767 1.524 . S
C766 H785 0.913 . S
C767 H743 0.950 . S
C767 C766 1.524 . S
C767 C768 1.415 . S
C768 H744 0.950 1_545 S
C768 C763 1.363 . S
C768 C767 1.415 . S
C769 H745 0.951 . S
C769 C770 1.366 1_655 S
C769 C771 1.388 . S
C770 C769 1.366 1_455 S
C770 C774 1.385 1_545 S
C771 H746 0.951 . S
C771 C769 1.388 . S
C771 C772 1.366 1_655 S
C772 C771 1.366 1_455 S
C772 C773 1.414 1_545 S
C772 C775 1.499 . S
C773 H747 0.950 . S
C773 C772 1.414 1_565 S
C773 C774 1.374 . S
C774 H748 0.950 . S
C774 C770 1.385 1_565 S
C774 C773 1.374 . S
C775 C772 1.499 . S
C775 C776 1.373 . S
C775 C777 1.389 1_445 S
C776 H749 0.950 . S
C776 C762 1.377 . S
C776 C775 1.373 . S
C777 C761 1.377 . S
C777 C775 1.389 1_665 S
C777 C778 1.524 . S
C778 C777 1.524 . S
C778 C779 1.397 . S
C778 C783 1.358 1_565 S
C779 H750 0.950 . S
C779 C778 1.397 . S
C779 C780 1.334 . S
C780 H751 0.950 . S
C780 C779 1.334 . S
C780 C781 1.287 . S
C781 C780 1.287 . S
C781 C782 1.524 . S
C781 H784 0.999 . S
C782 H752 0.950 . S
C782 C781 1.524 . S
C782 C783 1.412 1_565 S
C783 H753 0.958 . S
C783 C778 1.358 1_545 S
C783 C782 1.412 1_545 S
H784 C781 0.999 . S
H785 C766 0.913 . S
H786 C804 0.951 . S
H787 C806 0.951 . S
H788 C808 0.950 . S
H789 C809 0.950 . S
H790 C811 0.950 . S
H791 C814 0.950 . S
H792 C815 0.950 . S
H793 C817 0.950 . S
H794 C818 0.950 . S
H795 C819 0.951 . S
H796 C821 0.951 . S
H797 C823 0.950 . S
H798 C824 0.950 . S
H799 C826 0.950 . S
H800 C829 0.950 . S
H801 C830 0.950 . S
H802 C832 0.950 . S
H803 C833 0.950 . S
C804 H786 0.951 . S
C804 C805 1.366 . S
C804 C806 1.388 . S
C805 C804 1.366 . S
C805 C809 1.385 . S
C806 H787 0.951 . S
C806 C804 1.388 . S
C806 C807 1.366 . S
C807 C806 1.366 . S
C807 C808 1.414 . S
C807 C810 1.499 . S
C808 H788 0.950 . S
C808 C807 1.414 . S
C808 C809 1.374 . S
C809 H789 0.950 . S
C809 C805 1.385 . S
C809 C808 1.374 . S
C810 C807 1.499 . S
C810 C811 1.373 . S
C810 C812 1.389 . S
C811 H790 0.950 . S
C811 C810 1.373 . S
C811 C827 1.377 . S
C812 C810 1.389 . S
C812 C813 1.524 . S
C812 C826 1.377 . S
C813 C812 1.524 . S
C813 C814 1.397 . S
C813 C818 1.363 . S
C814 H791 0.950 . S
C814 C813 1.397 . S
C814 C815 1.334 . S
C815 H792 0.950 . S
C815 C814 1.334 . S
C815 C816 1.287 . S
C816 C815 1.287 . S
C816 C817 1.524 . S
C816 H835 0.913 . S
C817 H793 0.950 . S
C817 C816 1.524 . S
C817 C818 1.415 . S
C818 H794 0.950 . S
C818 C813 1.363 . S
C818 C817 1.415 . S
C819 H795 0.951 . S
C819 C820 1.366 . S
C819 C821 1.388 . S
C820 C819 1.366 . S
C820 C824 1.385 . S
C821 H796 0.951 . S
C821 C819 1.388 . S
C821 C822 1.366 . S
C822 C821 1.366 . S
C822 C823 1.414 . S
C822 C825 1.499 . S
C823 H797 0.950 . S
C823 C822 1.414 . S
C823 C824 1.374 . S
C824 H798 0.950 . S
C824 C820 1.385 . S
C824 C823 1.374 . S
C825 C822 1.499 . S
C825 C826 1.373 . S
C825 C827 1.389 . S
C826 H799 0.950 . S
C826 C812 1.377 . S
C826 C825 1.373 . S
C827 C811 1.377 . S
C827 C825 1.389 . S
C827 C828 1.524 . S
C828 C827 1.524 . S
C828 C829 1.397 . S
C828 C833 1.363 . S
C829 H800 0.950 . S
C829 C828 1.397 . S
C829 C830 1.334 . S
C830 H801 0.950 . S
C830 C829 1.334 . S
C830 C831 1.287 . S
C831 C830 1.287 . S
C831 C832 1.524 . S
C831 H834 0.999 . S
C832 H802 0.950 . S
C832 C831 1.524 . S
C832 C833 1.415 . S
C833 H803 0.950 . S
C833 C828 1.363 . S
C833 C832 1.415 . S
H834 C831 0.999 . S
H835 C816 0.913 . S
H836 C854 0.951 . S
H837 C856 0.951 . S
H838 C858 0.950 . S
H839 C859 0.950 . S
H840 C861 0.950 . S
H841 C864 0.950 . S
H842 C865 0.950 . S
H843 C867 0.950 . S
H844 C868 0.950 . S
H845 C869 0.951 . S
H846 C871 0.951 . S
H847 C873 0.950 . S
H848 C874 0.950 . S
H849 C876 0.950 . S
H850 C879 0.950 . S
H851 C880 0.950 . S
H852 C882 0.950 . S
H853 C883 0.950 . S
C854 H836 0.951 . S
C854 C855 1.366 . S
C854 C856 1.388 . S
C855 C854 1.366 . S
C855 C859 1.385 . S
C856 H837 0.951 . S
C856 C854 1.388 . S
C856 C857 1.366 . S
C857 C856 1.366 . S
C857 C858 1.414 . S
C857 C860 1.499 . S
C858 H838 0.950 . S
C858 C857 1.414 . S
C858 C859 1.374 . S
C859 H839 0.950 . S
C859 C855 1.385 . S
C859 C858 1.374 . S
C860 C857 1.499 . S
C860 C861 1.373 . S
C860 C862 1.389 . S
C861 H840 0.950 . S
C861 C860 1.373 . S
C861 C877 1.377 . S
C862 C860 1.389 . S
C862 C863 1.524 . S
C862 C876 1.377 . S
C863 C862 1.524 . S
C863 C864 1.397 . S
C863 C868 1.363 . S
C864 H841 0.950 . S
C864 C863 1.397 . S
C864 C865 1.334 . S
C865 H842 0.950 . S
C865 C864 1.334 . S
C865 C866 1.287 . S
C866 C865 1.287 . S
C866 C867 1.524 . S
C866 H885 0.913 . S
C867 H843 0.950 . S
C867 C866 1.524 . S
C867 C868 1.415 . S
C868 H844 0.950 . S
C868 C863 1.363 . S
C868 C867 1.415 . S
C869 H845 0.951 . S
C869 C870 1.366 . S
C869 C871 1.388 . S
C870 C869 1.366 . S
C870 C874 1.385 . S
C871 H846 0.951 . S
C871 C869 1.388 . S
C871 C872 1.366 . S
C872 C871 1.366 . S
C872 C873 1.414 . S
C872 C875 1.499 . S
C873 H847 0.950 . S
C873 C872 1.414 . S
C873 C874 1.374 . S
C874 H848 0.950 . S
C874 C870 1.385 . S
C874 C873 1.374 . S
C875 C872 1.499 . S
C875 C876 1.373 . S
C875 C877 1.389 . S
C876 H849 0.950 . S
C876 C862 1.377 . S
C876 C875 1.373 . S
C877 C861 1.377 . S
C877 C875 1.389 . S
C877 C878 1.524 . S
C878 C877 1.524 . S
C878 C879 1.397 . S
C878 C883 1.363 . S
C879 H850 0.950 . S
C879 C878 1.397 . S
C879 C880 1.334 . S
C880 H851 0.950 . S
C880 C879 1.334 . S
C880 C881 1.287 . S
C881 C880 1.287 . S
C881 C882 1.524 . S
C881 H884 0.999 . S
C882 H852 0.950 . S
C882 C881 1.524 . S
C882 C883 1.415 . S
C883 H853 0.950 . S
C883 C878 1.363 . S
C883 C882 1.415 . S
H884 C881 0.999 . S
H885 C866 0.913 . S
C320 C257 1.413 . S
C305 C21 1.411 . S
C355 C19 1.399 1_556 S
C370 C197 1.407 . S
C405 C18 1.366 . S
C420 C227 1.319 . S
C455 C20 1.392 1_556 S
C470 C167 1.338 . S
C505 C44 1.411 . S
C520 C137 1.413 . S
C555 C42 1.399 . S
C570 C77 1.407 . S
C620 C107 1.320 . S
C605 C41 1.366 . S
C670 C47 1.336 . S
C655 C43 1.391 . S
C705 C16 1.488 . S
C720 C66 1.462 1_455 S
C755 C17 1.447 . S
C770 C126 1.425 . S
C820 C186 1.467 . S
C805 C39 1.488 . S
C855 C40 1.448 . S
C870 C246 1.424 . S
