# Generated by pormake.
# Topology rtl, (3,6)-cn, num edge types: 1
# Building blocks:
#     Node 0, Type 0, BuildingBlock: KAKCAD_clean_linker_0, # of connection points: 3
#     Node 1, Type 0, BuildingBlock: KAKCAD_clean_linker_0, # of connection points: 3
#     Node 2, Type 0, BuildingBlock: KAKCAD_clean_linker_0, # of connection points: 3
#     Node 3, Type 0, BuildingBlock: KAKCAD_clean_linker_0, # of connection points: 3
#     Node 4, Type 1, BuildingBlock: KUMBOL_clean_sbu_1, # of connection points: 6
#     Node 5, Type 1, BuildingBlock: KUMBOL_clean_sbu_1, # of connection points: 6
#     Edge 6, Type (0, 1), BuildingBlock: OJICUG_clean_linker_0, # of connection points: 2
#     Edge 7, Type (0, 1), BuildingBlock: OJICUG_clean_linker_0, # of connection points: 2
#     Edge 8, Type (0, 1), BuildingBlock: OJICUG_clean_linker_0, # of connection points: 2
#     Edge 9, Type (0, 1), BuildingBlock: OJICUG_clean_linker_0, # of connection points: 2
#     Edge 10, Type (0, 1), BuildingBlock: OJICUG_clean_linker_0, # of connection points: 2
#     Edge 11, Type (0, 1), BuildingBlock: OJICUG_clean_linker_0, # of connection points: 2
#     Edge 12, Type (0, 1), BuildingBlock: OJICUG_clean_linker_0, # of connection points: 2
#     Edge 13, Type (0, 1), BuildingBlock: OJICUG_clean_linker_0, # of connection points: 2
#     Edge 14, Type (0, 1), BuildingBlock: OJICUG_clean_linker_0, # of connection points: 2
#     Edge 15, Type (0, 1), BuildingBlock: OJICUG_clean_linker_0, # of connection points: 2
#     Edge 16, Type (0, 1), BuildingBlock: OJICUG_clean_linker_0, # of connection points: 2
#     Edge 17, Type (0, 1), BuildingBlock: OJICUG_clean_linker_0, # of connection points: 2
# Relax obj value: 0.018
# Max RMSD: 0.113
# Mean RMSD: 0.068
data_MOF--net-rtl--node1-KUMBOL_clean_sbu_1--node2-KAKCAD_clean_linker_0--edge1-OJICUG_clean_linker_0
_symmetry_space_group_name_H-M    P1
_symmetry_Int_Tables_number       1
_symmetry_cell_setting            triclinic
loop_
_symmetry_equiv_pos_as_xyz
'x, y, z'
_cell_length_a     31.25144
_cell_length_b     32.008833
_cell_length_c     28.310503
_cell_angle_alpha  77.3289
_cell_angle_beta   99.455874
_cell_angle_gamma 91.249768
loop_
_atom_site_label
_atom_site_type_symbol
_atom_site_fract_x
_atom_site_fract_y
_atom_site_fract_z
_atom_type_partial_charge
C0 C 0.14274 0.87325 0.84202 0.0
C1 C 0.13076 0.91683 0.82841 0.0
C2 C 0.16402 0.85558 0.88926 0.0
C3 C 0.17447 0.88112 0.924 0.0
C4 C 0.16289 0.92484 0.9103 0.0
C5 C 0.14119 0.94249 0.86304 0.0
C6 C 0.19705 0.86184 0.97433 0.0
C7 C 0.22911 0.83009 0.98137 0.0
C8 C 0.24853 0.8092 0.02864 0.0
C9 C 0.23671 0.82127 0.06957 0.0
C10 C 0.20494 0.85339 0.06333 0.0
C11 C 0.18535 0.87348 0.01557 0.0
C12 C 0.18986 0.86425 0.10633 0.0
C13 C 0.18056 0.83171 0.14531 0.0
C14 C 0.18191 0.9071 0.10716 0.0
C15 C 0.1636 0.91713 0.1452 0.0
C16 C 0.15266 0.88451 0.18322 0.0
C17 C 0.27976 0.77359 0.03446 0.0
C18 C 0.26955 0.74156 0.00774 0.0
C19 C 0.32023 0.77206 0.06488 0.0
C20 C 0.3505 0.73975 0.06726 0.0
C21 C 0.34064 0.70822 0.03954 0.0
C22 C 0.29953 0.70919 0.01038 0.0
C23 C 0.16211 0.84172 0.18329 0.0
H24 H 0.13586 0.85269 0.81607 0.0
H25 H 0.17179 0.82165 0.89866 0.0
H26 H 0.1708 0.94551 0.93599 0.0
H27 H 0.13207 0.9761 0.85389 0.0
H28 H 0.23912 0.82142 0.94985 0.0
H29 H 0.15952 0.89686 0.01063 0.0
H30 H 0.25155 0.80508 0.10618 0.0
H31 H 0.18582 0.79835 0.14541 0.0
H32 H 0.18933 0.9329 0.07798 0.0
H33 H 0.15754 0.95046 0.14451 0.0
H34 H 0.23824 0.74159 0.98465 0.0
H35 H 0.32893 0.79654 0.08564 0.0
H36 H 0.15361 0.81575 0.21163 0.0
H37 H 0.29038 0.68483 0.98958 0.0
H38 H 0.38198 0.74013 0.08982 0.0
C39 C 0.61923 0.66382 0.79176 0.0
C40 C 0.63281 0.62302 0.82037 0.0
C41 C 0.6372 0.68163 0.74974 0.0
C42 C 0.66877 0.65886 0.73534 0.0
C43 C 0.68333 0.61885 0.76437 0.0
C44 C 0.6659 0.6013 0.80668 0.0
C45 C 0.68345 0.67442 0.68765 0.0
C46 C 0.7131 0.708 0.68096 0.0
C47 C 0.72881 0.72036 0.63617 0.0
C48 C 0.71351 0.69959 0.59788 0.0
C49 C 0.68304 0.66667 0.60368 0.0
C50 C 0.66847 0.65414 0.64901 0.0
C51 C 0.66687 0.64525 0.56258 0.0
C52 C 0.65885 0.66902 0.51381 0.0
C53 C 0.65972 0.60085 0.57162 0.0
C54 C 0.64518 0.58074 0.5329 0.0
C55 C 0.63786 0.60448 0.48422 0.0
C56 C 0.7618 0.7543 0.62887 0.0
C57 C 0.75645 0.79412 0.64051 0.0
C58 C 0.798 0.7476 0.60772 0.0
C59 C 0.82756 0.78029 0.59715 0.0
C60 C 0.82156 0.82075 0.60706 0.0
C61 C 0.78592 0.82708 0.62954 0.0
C62 C 0.64475 0.64883 0.4751 0.0
H63 H 0.59351 0.68136 0.80063 0.0
H64 H 0.62523 0.71238 0.72741 0.0
H65 H 0.70768 0.60079 0.75374 0.0
H66 H 0.67801 0.57035 0.82824 0.0
H67 H 0.72496 0.72336 0.71101 0.0
H68 H 0.64494 0.62885 0.65432 0.0
H69 H 0.72567 0.70903 0.56343 0.0
H70 H 0.66313 0.70337 0.50549 0.0
H71 H 0.66619 0.58139 0.60855 0.0
H72 H 0.64062 0.54642 0.54096 0.0
H73 H 0.72868 0.80024 0.65655 0.0
H74 H 0.80339 0.71697 0.59913 0.0
H75 H 0.63881 0.66802 0.43798 0.0
H76 H 0.78003 0.85787 0.63739 0.0
H77 H 0.85519 0.77377 0.58113 0.0
C78 C 0.83874 0.08521 0.24626 0.0
C79 C 0.88406 0.08791 0.25689 0.0
C80 C 0.81668 0.10288 0.19923 0.0
C81 C 0.83967 0.12275 0.16188 0.0
C82 C 0.88513 0.12396 0.17204 0.0
C83 C 0.90713 0.10705 0.21932 0.0
C84 C 0.81615 0.14515 0.11358 0.0
C85 C 0.78469 0.1764 0.11137 0.0
C86 C 0.76384 0.20005 0.06606 0.0
C87 C 0.77409 0.1915 0.02264 0.0
C88 C 0.80471 0.15945 0.02399 0.0
C89 C 0.82607 0.13676 0.06989 0.0
C90 C 0.81395 0.14992 0.97739 0.0
C91 C 0.7803 0.15139 0.9374 0.0
C92 C 0.85629 0.13999 0.97205 0.0
C93 C 0.86475 0.13228 0.92763 0.0
C94 C 0.83115 0.13462 0.88733 0.0
C95 C 0.7321 0.23441 0.06414 0.0
C96 C 0.70011 0.22747 0.09445 0.0
C97 C 0.73398 0.27458 0.03238 0.0
C98 C 0.70458 0.30721 0.03106 0.0
C99 C 0.67244 0.30033 0.06126 0.0
C100 C 0.67051 0.26004 0.09293 0.0
C101 C 0.78882 0.14421 0.89295 0.0
H102 H 0.8203 0.07079 0.27476 0.0
H103 H 0.78159 0.1016 0.19216 0.0
H104 H 0.90347 0.13943 0.14388 0.0
H105 H 0.94214 0.1093 0.22673 0.0
H106 H 0.7777 0.18348 0.1451 0.0
H107 H 0.84973 0.11193 0.07186 0.0
H108 H 0.75812 0.21 0.98766 0.0
H109 H 0.74714 0.15813 0.9403 0.0
H110 H 0.8831 0.13891 1.00187 0.0
H111 H 0.89767 0.12441 0.925 0.0
H112 H 0.69763 0.19665 0.11892 0.0
H113 H 0.75874 0.28106 0.00918 0.0
H114 H 0.76213 0.14697 0.8627 0.0
H115 H 0.64578 0.25344 0.11615 0.0
H116 H 0.70755 0.33808 0.00691 0.0
C117 C 0.35316 0.37255 0.28449 0.0
C118 C 0.39746 0.38266 0.28768 0.0
C119 C 0.33524 0.35624 0.32697 0.0
C120 C 0.36118 0.35003 0.37355 0.0
C121 C 0.40561 0.35938 0.37657 0.0
C122 C 0.4235 0.37547 0.33424 0.0
C123 C 0.34217 0.33519 0.4192 0.0
C124 C 0.31255 0.30133 0.42355 0.0
C125 C 0.29645 0.28633 0.46775 0.0
C126 C 0.31007 0.30587 0.50752 0.0
C127 C 0.33895 0.34027 0.50368 0.0
C128 C 0.35448 0.3548 0.45913 0.0
C129 C 0.35328 0.36068 0.54623 0.0
C130 C 0.32483 0.36493 0.57869 0.0
C131 C 0.39575 0.37598 0.55491 0.0
C132 C 0.40922 0.39534 0.59444 0.0
C133 C 0.38096 0.39924 0.62722 0.0
C134 C 0.26543 0.25026 0.4731 0.0
C135 C 0.22968 0.24865 0.43624 0.0
C136 C 0.27016 0.2183 0.51657 0.0
C137 C 0.23905 0.18658 0.52391 0.0
C138 C 0.20239 0.18588 0.48795 0.0
C139 C 0.19847 0.21678 0.44358 0.0
C140 C 0.33857 0.38359 0.61883 0.0
H141 H 0.3323 0.37732 0.24913 0.0
H142 H 0.30089 0.3495 0.32341 0.0
H143 H 0.42664 0.35445 0.41184 0.0
H144 H 0.45762 0.38329 0.33814 0.0
H145 H 0.30311 0.28576 0.39314 0.0
H146 H 0.37578 0.38206 0.45505 0.0
H147 H 0.29804 0.29411 0.5417 0.0
H148 H 0.29167 0.35421 0.57299 0.0
H149 H 0.41896 0.37276 0.53139 0.0
H150 H 0.44183 0.40764 0.59883 0.0
H151 H 0.22497 0.27294 0.40246 0.0
H152 H 0.29782 0.21802 0.54526 0.0
H153 H 0.31591 0.38538 0.64343 0.0
H154 H 0.17049 0.21727 0.41524 0.0
H155 H 0.24361 0.16268 0.55802 0.0
C156 C 0.94075 0.13839 0.48637 0.0
C157 C 0.87092 0.12237 0.4427 0.0
C158 C 0.90768 0.10955 0.47892 0.0
C159 C 0.8681 0.16422 0.4138 0.0
C160 C 0.93795 0.18046 0.45751 0.0
C161 C 0.90151 0.19317 0.42118 0.0
N162 N 0.97599 0.12506 0.52125 0.0
C163 C 0.0091 0.15225 0.52991 0.0
C164 C 0.97204 0.20845 0.46583 0.0
C165 C 0.0077 0.1943 0.50229 0.0
Gd166 Gd 0.04088 0.96171 0.5255 0.0
Gd167 Gd 0.97643 0.05358 0.56379 0.0
N168 N 0.91185 0.06879 0.50662 0.0
C169 C 0.83802 0.09275 0.43663 0.0
C170 C 0.87889 0.0405 0.50237 0.0
C171 C 0.84183 0.05183 0.46696 0.0
H172 H 0.88041 0.00937 0.52641 0.0
H173 H 0.81605 0.02904 0.46334 0.0
H174 H 0.13737 0.01342 0.52324 0.0
H175 H 0.03631 0.14166 0.55867 0.0
H176 H 0.2078 0.01178 0.57675 0.0
H177 H 0.80927 0.10135 0.40919 0.0
H178 H 0.84017 0.17455 0.38568 0.0
H179 H 0.99219 0.87059 0.5674 0.0
H180 H 0.97109 0.24103 0.4444 0.0
H181 H 0.03407 0.21578 0.50921 0.0
H182 H 0.20297 0.88574 0.70347 0.0
H183 H 0.89884 0.22534 0.39856 0.0
H184 H 0.07663 0.79858 0.69198 0.0
H185 H 0.00675 0.80633 0.63494 0.0
N186 N 0.05299 0.8986 0.58642 0.0
C187 C 0.09209 0.89448 0.61641 0.0
C188 C 0.02271 0.86734 0.59218 0.0
C189 C 0.0705 0.82664 0.66226 0.0
C190 C 0.03095 0.83094 0.63022 0.0
C191 C 0.10168 0.85856 0.65559 0.0
H192 H 0.14941 0.82884 0.71781 0.0
N193 N 0.11153 0.96152 0.57071 0.0
C194 C 0.1219 0.92714 0.60879 0.0
C195 C 0.19317 0.95565 0.62884 0.0
C196 C 0.16265 0.92384 0.63954 0.0
C197 C 0.14284 0.99004 0.55737 0.0
C198 C 0.18356 0.98834 0.58691 0.0
O199 O 0.97907 0.05922 0.48313 0.0
O200 O 0.98088 0.98987 0.47357 0.0
O201 O 0.0769 0.96223 0.4658 0.0
O202 O 0.04208 0.90587 0.49396 0.0
O203 O 0.94975 0.98603 0.5792 0.0
O204 O 0.96921 0.94999 0.52285 0.0
O205 O 0.03051 0.95625 0.60391 0.0
O206 O 0.03738 0.02508 0.6133 0.0
O207 O 0.93928 0.03897 0.6235 0.0
O208 O 0.96963 0.10063 0.6072 0.0
O209 O 0.0612 0.03118 0.50276 0.0
O210 O 0.04847 0.06152 0.56599 0.0
C211 C 0.97141 0.03058 0.45614 0.0
C212 C 0.94534 0.95425 0.55589 0.0
C213 C 0.04366 0.92288 0.40913 0.0
C214 C 0.05205 0.91682 0.32663 0.0
C215 C 0.98034 0.92672 0.34587 0.0
C216 C 0.99859 0.92725 0.39409 0.0
C217 C 0.00678 0.92151 0.3123 0.0
C218 C 0.07027 0.91766 0.37537 0.0
C219 C 0.06314 0.92487 0.45953 0.0
C220 C 0.17203 0.8885 0.67918 0.0
C221 C 0.14163 0.85597 0.68719 0.0
H222 H 0.22484 0.95427 0.65151 0.0
C223 C 0.04281 0.98389 0.63112 0.0
C224 C 0.0685 0.06096 0.52871 0.0
C225 C 0.90476 0.09727 0.64036 0.0
C226 C 0.86063 0.11748 0.6955 0.0
C227 C 0.83336 0.12927 0.60803 0.0
C228 C 0.87168 0.112 0.60057 0.0
C229 C 0.82766 0.13179 0.65523 0.0
C230 C 0.89932 0.10043 0.6877 0.0
C231 C 0.94422 0.07676 0.63359 0.0
H232 H 0.94555 0.93013 0.33453 0.0
H233 H 0.9775 0.93097 0.41966 0.0
H234 H 0.99167 0.92042 0.27532 0.0
H235 H 0.10511 0.91479 0.38694 0.0
H236 H 0.80789 0.14049 0.57718 0.0
H237 H 0.87522 0.10983 0.56393 0.0
H238 H 0.79767 0.14529 0.66025 0.0
H239 H 0.92471 0.08867 0.71857 0.0
C240 C 0.64504 0.5475 0.06005 0.0
C241 C 0.6458 0.62435 0.0283 0.0
C242 C 0.62498 0.58736 0.05017 0.0
C243 C 0.6863 0.62036 0.01422 0.0
C244 C 0.68666 0.54364 0.04816 0.0
C245 C 0.70663 0.58006 0.02399 0.0
N246 N 0.62519 0.51309 0.0843 0.0
C247 C 0.64735 0.47518 0.10261 0.0
C248 C 0.70767 0.50361 0.06267 0.0
C249 C 0.68827 0.46944 0.09091 0.0
Gd250 Gd 0.46172 0.48465 1.00173 0.0
Gd251 Gd 0.55483 0.52566 0.0984 0.0
N252 N 0.58538 0.59007 0.06318 0.0
C253 C 0.62552 0.66426 0.02196 0.0
C254 C 0.56634 0.62891 0.05937 0.0
C255 C 0.58589 0.66658 0.03818 0.0
H256 H 0.53572 0.63059 0.07197 0.0
H257 H 0.57036 0.69732 0.03425 0.0
H258 H 0.50265 0.38902 0.99512 0.0
H259 H 0.63397 0.44948 0.12709 0.0
H260 H 0.49245 0.31258 0.02911 0.0
H261 H 0.64049 0.69346 0.00536 0.0
H262 H 0.70257 0.64832 0.99671 0.0
H263 H 0.37306 0.5353 0.0113 0.0
H264 H 0.73964 0.49926 0.05421 0.0
H265 H 0.70515 0.43891 0.10445 0.0
H266 H 0.36559 0.31015 0.10481 0.0
H267 H 0.73838 0.57761 0.01409 0.0
H268 H 0.29044 0.44357 0.08502 0.0
H269 H 0.30513 0.51839 0.04574 0.0
N270 N 0.39626 0.47097 0.03192 0.0
C271 C 0.38782 0.42946 0.05089 0.0
C272 C 0.36662 0.50265 0.02835 0.0
C273 C 0.32006 0.45083 0.06982 0.0
C274 C 0.32825 0.49313 0.04772 0.0
C275 C 0.34981 0.41829 0.0712 0.0
H276 H 0.31379 0.36593 0.10796 0.0
N277 N 0.45234 0.4102 0.02713 0.0
C278 C 0.41717 0.3982 0.04925 0.0
C279 C 0.43741 0.32368 0.06186 0.0
C280 C 0.40902 0.35466 0.06773 0.0
C281 C 0.47782 0.37992 0.01757 0.0
C282 C 0.47147 0.33636 0.03582 0.0
O283 O 0.54213 0.55954 0.01781 0.0
O284 O 0.52626 0.50442 0.979 0.0
O285 O 0.43373 0.45819 0.93911 0.0
O286 O 0.42799 0.5259 0.93535 0.0
O287 O 0.4893 0.55845 0.08474 0.0
O288 O 0.45694 0.55423 0.00581 0.0
O289 O 0.45113 0.48528 0.07896 0.0
O290 O 0.51778 0.46597 0.12423 0.0
O291 O 0.53851 0.551 0.15849 0.0
O292 O 0.60285 0.52579 0.16314 0.0
O293 O 0.52923 0.45542 0.01401 0.0
O294 O 0.55719 0.4555 0.09481 0.0
C295 C 0.54463 0.54131 0.98112 0.0
C296 C 0.46124 0.57202 0.04422 0.0
C297 C 0.4393 0.50451 0.86344 0.0
C298 C 0.44072 0.48717 0.78394 0.0
C299 C 0.48974 0.54016 0.81132 0.0
C300 C 0.47244 0.53424 0.85467 0.0
C301 C 0.4743 0.51651 0.77629 0.0
C302 C 0.42311 0.48144 0.82755 0.0
C303 C 0.42338 0.49561 0.9109 0.0
C304 C 0.37212 0.3434 0.08995 0.0
C305 C 0.34255 0.37515 0.09162 0.0
H306 H 0.43231 0.28989 0.07553 0.0
C307 C 0.47535 0.46486 0.11938 0.0
C308 C 0.55508 0.43935 0.05548 0.0
C309 C 0.57506 0.51797 0.23676 0.0
C310 C 0.58568 0.51821 0.32415 0.0
C311 C 0.5638 0.45311 0.29587 0.0
C312 C 0.56436 0.47456 0.24743 0.0
C313 C 0.57453 0.47463 0.33406 0.0
C314 C 0.58541 0.53971 0.27499 0.0
C315 C 0.57601 0.54086 0.186 0.0
H316 H 0.51537 0.56298 0.80497 0.0
H317 H 0.48525 0.55266 0.88148 0.0
H318 H 0.48822 0.52144 0.74291 0.0
H319 H 0.39768 0.45831 0.83406 0.0
H320 H 0.55553 0.41956 0.30392 0.0
H321 H 0.55681 0.4573 0.21834 0.0
H322 H 0.57494 0.45685 0.37138 0.0
H323 H 0.59311 0.57343 0.26625 0.0
C324 C 0.15444 0.14442 0.54401 0.0
C325 C 0.16776 0.15397 0.49778 0.0
H326 H 0.11301 0.10763 0.59001 0.0
C327 C 0.14773 0.1329 0.46144 0.0
H328 H 0.16872 0.16047 0.57263 0.0
C329 C 0.11545 0.10268 0.47137 0.0
C330 C 0.1023 0.0932 0.51768 0.0
H331 H 0.15745 0.13931 0.42557 0.0
H332 H 0.10073 0.08682 0.44276 0.0
C333 C 0.12216 0.11442 0.55384 0.0
C334 C 0.37671 0.6608 0.9974 0.0
C335 C 0.37296 0.6745 0.04052 0.0
H336 H 0.40742 0.61795 0.96463 0.0
C337 C 0.3997 0.65519 0.08452 0.0
H338 H 0.35725 0.67556 0.96265 0.0
C339 C 0.42893 0.62246 0.08552 0.0
C340 C 0.43191 0.60815 0.04259 0.0
H341 H 0.39736 0.66461 0.11849 0.0
H342 H 0.44853 0.60783 0.12023 0.0
C343 C 0.4057 0.62792 0.99845 0.0
C344 C 0.8646 0.88515 0.62362 0.0
C345 C 0.85211 0.85613 0.59323 0.0
H346 H 0.90364 0.93882 0.6357 0.0
C347 C 0.86944 0.86085 0.54951 0.0
H348 H 0.85233 0.88229 0.65778 0.0
C349 C 0.89919 0.893 0.53709 0.0
C350 C 0.91217 0.92151 0.56787 0.0
H351 H 0.8599 0.83977 0.5246 0.0
H352 H 0.91208 0.89541 0.50335 0.0
C353 C 0.89417 0.91753 0.611 0.0
C354 C 0.6242 0.36266 0.01497 0.0
C355 C 0.64127 0.3352 0.05981 0.0
H356 H 0.58383 0.41714 0.97856 0.0
C357 C 0.62875 0.34168 0.10322 0.0
H358 H 0.63255 0.35816 0.98075 0.0
C359 C 0.60025 0.37513 0.10182 0.0
C360 C 0.58395 0.40298 0.05707 0.0
H361 H 0.6416 0.32141 0.13844 0.0
H362 H 0.59124 0.37942 0.13582 0.0
C363 C 0.59593 0.3962 0.01363 0.0
C364 C 0.13838 0.87238 0.27018 0.0
C365 C 0.12912 0.8948 0.22096 0.0
H366 H 0.12125 0.86155 0.34205 0.0
C367 C 0.09566 0.92589 0.20742 0.0
H368 H 0.16424 0.84855 0.28195 0.0
C369 C 0.07139 0.93367 0.24192 0.0
C370 C 0.07986 0.91049 0.29083 0.0
H371 H 0.08729 0.94344 0.16975 0.0
H372 H 0.04569 0.95767 0.23014 0.0
C373 C 0.11405 0.88017 0.30474 0.0
C374 C 0.5963 0.62643 0.89287 0.0
C375 C 0.61122 0.60221 0.86273 0.0
H376 H 0.56241 0.62644 0.95281 0.0
C377 C 0.60416 0.55775 0.87248 0.0
H378 H 0.60136 0.66063 0.8869 0.0
C379 C 0.58303 0.53812 0.91121 0.0
C380 C 0.568 0.56239 0.94102 0.0
H381 H 0.61408 0.53803 0.84952 0.0
H382 H 0.57814 0.50385 0.91751 0.0
C383 C 0.57459 0.60677 0.93125 0.0
C384 C 0.90116 0.03087 0.33375 0.0
C385 C 0.907 0.07269 0.30762 0.0
H386 H 0.91726 0.98462 0.4015 0.0
C387 C 0.93408 0.10047 0.3306 0.0
H388 H 0.88028 0.00897 0.31676 0.0
C389 C 0.95486 0.08676 0.37901 0.0
C390 C 0.94951 0.04477 0.40499 0.0
H391 H 0.9386 0.13304 0.31134 0.0
H392 H 0.97534 0.10894 0.39601 0.0
C393 C 0.92253 0.01691 0.38196 0.0
C394 C 0.36659 0.44446 0.68599 0.0
C395 C 0.39562 0.41994 0.66949 0.0
H396 H 0.35812 0.48446 0.73567 0.0
C397 C 0.43917 0.4162 0.69307 0.0
H398 H 0.33301 0.44878 0.66849 0.0
C399 C 0.45358 0.43762 0.73062 0.0
C400 C 0.42466 0.46246 0.74633 0.0
H401 H 0.46234 0.39676 0.68258 0.0
H402 H 0.48743 0.43478 0.74746 0.0
C403 C 0.38091 0.46515 0.72433 0.0
C404 C 0.59054 0.55273 0.44529 0.0
C405 C 0.62386 0.58292 0.44299 0.0
H406 H 0.55149 0.50957 0.40921 0.0
C407 C 0.64417 0.59208 0.40124 0.0
H408 H 0.57398 0.54541 0.47679 0.0
C409 C 0.63176 0.57118 0.36279 0.0
C410 C 0.59839 0.5409 0.36492 0.0
H411 H 0.67036 0.61479 0.39875 0.0
H412 H 0.64899 0.5782 0.33183 0.0
C413 C 0.57779 0.53211 0.40659 0.0
C414 C 0.87861 0.14277 0.82195 0.0
C415 C 0.84004 0.12803 0.83927 0.0
H416 H 0.91536 0.15085 0.76293 0.0
C417 C 0.80924 0.10823 0.80942 0.0
H418 H 0.90283 0.15873 0.84344 0.0
C419 C 0.81613 0.10459 0.76297 0.0
C420 C 0.85427 0.11998 0.74553 0.0
H421 H 0.77966 0.0955 0.82185 0.0
H422 H 0.79164 0.08955 0.74069 0.0
C423 C 0.88576 0.13851 0.77571 0.0
C424 C 0.3939 0.43452 0.20624 0.0
C425 C 0.41641 0.40201 0.24303 0.0
H426 H 0.39537 0.48057 0.1391 0.0
C427 C 0.458 0.38954 0.23789 0.0
H428 H 0.36209 0.44534 0.20933 0.0
C429 C 0.47689 0.40956 0.19741 0.0
C430 C 0.45473 0.44265 0.16128 0.0
H431 H 0.476 0.36422 0.26519 0.0
H432 H 0.50887 0.3991 0.19441 0.0
C433 C 0.41296 0.45474 0.16596 0.0
C434 C 0.07515 0.91106 0.75554 0.0
C435 C 0.10709 0.93508 0.77837 0.0
H436 H 0.02954 0.908 0.69124 0.0
C437 C 0.11651 0.97622 0.75277 0.0
H438 H 0.06643 0.87964 0.77447 0.0
C439 C 0.09487 0.99265 0.70518 0.0
C440 C 0.06378 0.96806 0.68225 0.0
H441 H 0.14129 0.99534 0.76903 0.0
H442 H 0.10332 0.02404 0.68584 0.0
C443 C 0.05382 0.92735 0.70797 0.0
loop_
_geom_bond_atom_site_label_1
_geom_bond_atom_site_label_2
_geom_bond_distance
_geom_bond_site_symmetry_2
_ccdc_geom_bond_type
C0 C1 1.386 . S
C0 C2 1.397 . S
C0 H24 0.931 . S
C1 C0 1.386 . S
C1 C5 1.397 . S
C2 C0 1.397 . S
C2 C3 1.384 . S
C2 H25 0.930 . S
C3 C2 1.384 . S
C3 C4 1.377 . S
C3 C6 1.481 . S
C4 C3 1.377 . S
C4 C5 1.389 . S
C4 H26 0.929 . S
C5 C1 1.397 . S
C5 C4 1.389 . S
C5 H27 0.931 1_565 S
C6 C3 1.481 . S
C6 C7 1.387 . S
C6 C11 1.390 1_556 S
C7 C6 1.387 . S
C7 C8 1.401 1_556 S
C7 H28 0.930 . S
C8 C7 1.401 1_554 S
C8 C9 1.376 . S
C8 C17 1.511 . S
C9 C8 1.376 . S
C9 C10 1.392 . S
C9 H30 0.931 . S
C10 C9 1.392 . S
C10 C11 1.361 . S
C10 C12 1.500 . S
C11 C6 1.390 1_554 S
C11 C10 1.361 . S
C11 H29 0.931 . S
C12 C10 1.500 . S
C12 C13 1.371 . S
C12 C14 1.365 . S
C13 C12 1.371 . S
C13 C23 1.386 . S
C13 H31 0.931 . S
C14 C12 1.365 . S
C14 C15 1.409 . S
C14 H32 0.929 . S
C15 C14 1.409 . S
C15 C16 1.380 . S
C15 H33 0.930 . S
C16 C15 1.380 . S
C16 C23 1.357 . S
C17 C8 1.511 . S
C17 C18 1.341 1_554 S
C17 C19 1.371 . S
C18 C17 1.341 1_556 S
C18 C22 1.394 1_556 S
C18 H34 0.930 . S
C19 C17 1.371 . S
C19 C20 1.392 . S
C19 H35 0.931 . S
C20 C19 1.392 . S
C20 C21 1.331 . S
C20 H38 0.932 . S
C21 C20 1.331 . S
C21 C22 1.336 . S
C22 C18 1.394 1_554 S
C22 C21 1.336 . S
C22 H37 0.929 1_554 S
C23 C13 1.386 . S
C23 C16 1.357 . S
C23 H36 0.928 . S
H24 C0 0.931 . S
H25 C2 0.930 . S
H26 C4 0.929 . S
H27 C5 0.931 1_545 S
H28 C7 0.930 . S
H29 C11 0.931 . S
H30 C9 0.931 . S
H31 C13 0.931 . S
H32 C14 0.929 . S
H33 C15 0.930 . S
H34 C18 0.930 . S
H35 C19 0.931 . S
H36 C23 0.928 . S
H37 C22 0.929 1_556 S
H38 C20 0.932 . S
C39 C40 1.386 . S
C39 C41 1.397 . S
C39 H63 0.931 . S
C40 C39 1.386 . S
C40 C44 1.397 . S
C41 C39 1.397 . S
C41 C42 1.384 . S
C41 H64 0.930 . S
C42 C41 1.384 . S
C42 C43 1.377 . S
C42 C45 1.481 . S
C43 C42 1.377 . S
C43 C44 1.389 . S
C43 H65 0.929 . S
C44 C40 1.397 . S
C44 C43 1.389 . S
C44 H66 0.931 . S
C45 C42 1.481 . S
C45 C46 1.387 . S
C45 C50 1.390 . S
C46 C45 1.387 . S
C46 C47 1.401 . S
C46 H67 0.930 . S
C47 C46 1.401 . S
C47 C48 1.376 . S
C47 C56 1.511 . S
C48 C47 1.376 . S
C48 C49 1.392 . S
C48 H69 0.931 . S
C49 C48 1.392 . S
C49 C50 1.361 . S
C49 C51 1.500 . S
C50 C45 1.390 . S
C50 C49 1.361 . S
C50 H68 0.931 . S
C51 C49 1.500 . S
C51 C52 1.371 . S
C51 C53 1.365 . S
C52 C51 1.371 . S
C52 C62 1.386 . S
C52 H70 0.931 . S
C53 C51 1.365 . S
C53 C54 1.409 . S
C53 H71 0.929 . S
C54 C53 1.409 . S
C54 C55 1.380 . S
C54 H72 0.930 . S
C55 C54 1.380 . S
C55 C62 1.357 . S
C56 C47 1.511 . S
C56 C57 1.341 . S
C56 C58 1.371 . S
C57 C56 1.341 . S
C57 C61 1.394 . S
C57 H73 0.930 . S
C58 C56 1.371 . S
C58 C59 1.392 . S
C58 H74 0.931 . S
C59 C58 1.392 . S
C59 C60 1.331 . S
C59 H77 0.932 . S
C60 C59 1.331 . S
C60 C61 1.336 . S
C61 C57 1.394 . S
C61 C60 1.336 . S
C61 H76 0.929 . S
C62 C52 1.386 . S
C62 C55 1.357 . S
C62 H75 0.928 . S
H63 C39 0.931 . S
H64 C41 0.930 . S
H65 C43 0.929 . S
H66 C44 0.931 . S
H67 C46 0.930 . S
H68 C50 0.931 . S
H69 C48 0.931 . S
H70 C52 0.931 . S
H71 C53 0.929 . S
H72 C54 0.930 . S
H73 C57 0.930 . S
H74 C58 0.931 . S
H75 C62 0.928 . S
H76 C61 0.929 . S
H77 C59 0.932 . S
C78 C79 1.386 . S
C78 C80 1.397 . S
C78 H102 0.931 . S
C79 C78 1.386 . S
C79 C83 1.397 . S
C80 C78 1.397 . S
C80 C81 1.384 . S
C80 H103 0.930 . S
C81 C80 1.384 . S
C81 C82 1.377 . S
C81 C84 1.481 . S
C82 C81 1.377 . S
C82 C83 1.389 . S
C82 H104 0.929 . S
C83 C79 1.397 . S
C83 C82 1.389 . S
C83 H105 0.931 . S
C84 C81 1.481 . S
C84 C85 1.387 . S
C84 C89 1.390 . S
C85 C84 1.387 . S
C85 C86 1.401 . S
C85 H106 0.930 . S
C86 C85 1.401 . S
C86 C87 1.376 . S
C86 C95 1.511 . S
C87 C86 1.376 . S
C87 C88 1.392 . S
C87 H108 0.931 1_554 S
C88 C87 1.392 . S
C88 C89 1.361 . S
C88 C90 1.500 1_554 S
C89 C84 1.390 . S
C89 C88 1.361 . S
C89 H107 0.931 . S
C90 C88 1.500 1_556 S
C90 C91 1.371 . S
C90 C92 1.365 . S
C91 C90 1.371 . S
C91 C101 1.386 . S
C91 H109 0.931 . S
C92 C90 1.365 . S
C92 C93 1.409 . S
C92 H110 0.929 1_556 S
C93 C92 1.409 . S
C93 C94 1.380 . S
C93 H111 0.930 . S
C94 C93 1.380 . S
C94 C101 1.357 . S
C95 C86 1.511 . S
C95 C96 1.341 . S
C95 C97 1.371 . S
C96 C95 1.341 . S
C96 C100 1.394 . S
C96 H112 0.930 . S
C97 C95 1.371 . S
C97 C98 1.389 . S
C97 H113 0.931 1_554 S
C98 C97 1.389 . S
C98 C99 1.349 . S
C98 H116 0.916 1_554 S
C99 C98 1.349 . S
C99 C100 1.336 . S
C100 C96 1.394 . S
C100 C99 1.336 . S
C100 H115 0.929 . S
C101 C91 1.386 . S
C101 C94 1.357 . S
C101 H114 0.928 . S
H102 C78 0.931 . S
H103 C80 0.930 . S
H104 C82 0.929 . S
H105 C83 0.931 . S
H106 C85 0.930 . S
H107 C89 0.931 . S
H108 C87 0.931 1_556 S
H109 C91 0.931 . S
H110 C92 0.929 1_554 S
H111 C93 0.930 . S
H112 C96 0.930 . S
H113 C97 0.931 1_556 S
H114 C101 0.928 . S
H115 C100 0.929 . S
H116 C98 0.916 1_556 S
C117 C118 1.386 . S
C117 C119 1.397 . S
C117 H141 0.931 . S
C118 C117 1.386 . S
C118 C122 1.397 . S
C119 C117 1.397 . S
C119 C120 1.384 . S
C119 H142 0.930 . S
C120 C119 1.384 . S
C120 C121 1.377 . S
C120 C123 1.481 . S
C121 C120 1.377 . S
C121 C122 1.389 . S
C121 H143 0.929 . S
C122 C118 1.397 . S
C122 C121 1.389 . S
C122 H144 0.931 . S
C123 C120 1.481 . S
C123 C124 1.387 . S
C123 C128 1.390 . S
C124 C123 1.387 . S
C124 C125 1.401 . S
C124 H145 0.930 . S
C125 C124 1.401 . S
C125 C126 1.376 . S
C125 C134 1.511 . S
C126 C125 1.376 . S
C126 C127 1.392 . S
C126 H147 0.931 . S
C127 C126 1.392 . S
C127 C128 1.361 . S
C127 C129 1.500 . S
C128 C123 1.390 . S
C128 C127 1.361 . S
C128 H146 0.931 . S
C129 C127 1.500 . S
C129 C130 1.371 . S
C129 C131 1.365 . S
C130 C129 1.371 . S
C130 C140 1.386 . S
C130 H148 0.931 . S
C131 C129 1.365 . S
C131 C132 1.409 . S
C131 H149 0.929 . S
C132 C131 1.409 . S
C132 C133 1.380 . S
C132 H150 0.930 . S
C133 C132 1.380 . S
C133 C140 1.357 . S
C134 C125 1.511 . S
C134 C135 1.341 . S
C134 C136 1.371 . S
C135 C134 1.341 . S
C135 C139 1.394 . S
C135 H151 0.930 . S
C136 C134 1.371 . S
C136 C137 1.392 . S
C136 H152 0.931 . S
C137 C136 1.392 . S
C137 C138 1.331 . S
C137 H155 0.932 . S
C138 C137 1.331 . S
C138 C139 1.336 . S
C139 C135 1.394 . S
C139 C138 1.336 . S
C139 H154 0.929 . S
C140 C130 1.386 . S
C140 C133 1.357 . S
C140 H153 0.928 . S
H141 C117 0.931 . S
H142 C119 0.930 . S
H143 C121 0.929 . S
H144 C122 0.931 . S
H145 C124 0.930 . S
H146 C128 0.931 . S
H147 C126 0.931 . S
H148 C130 0.931 . S
H149 C131 0.929 . S
H150 C132 0.930 . S
H151 C135 0.930 . S
H152 C136 0.931 . S
H153 C140 0.928 . S
H154 C139 0.929 . S
H155 C137 0.932 . S
C156 C158 1.422 . S
C156 C160 1.415 . S
C156 N162 1.369 . S
C157 C158 1.421 . S
C157 C159 1.417 . S
C157 C169 1.422 . S
C158 C156 1.422 . S
C158 C157 1.421 . S
C158 N168 1.359 . S
C159 C157 1.417 . S
C159 C161 1.329 . S
C159 H178 0.930 . S
C160 C156 1.415 . S
C160 C161 1.437 . S
C160 C164 1.413 . S
C161 C159 1.329 . S
C161 C160 1.437 . S
C161 H183 0.929 . S
N162 C156 1.369 . S
N162 C163 1.338 . S
N162 Gd167 2.622 . S
C163 N162 1.338 . S
C163 C165 1.378 . S
C163 H175 0.929 1_655 S
C164 C160 1.413 . S
C164 C165 1.348 . S
C164 H180 0.931 . S
C165 C163 1.378 . S
C165 C164 1.348 . S
C165 H181 0.930 1_655 S
Gd166 N186 2.622 . S
Gd166 N193 2.570 . S
Gd166 O200 2.344 1_465 S
Gd166 O201 2.468 . S
Gd166 O202 2.427 . S
Gd166 O204 2.388 1_455 S
Gd166 O205 2.386 . S
Gd166 O209 2.307 1_565 S
Gd166 C219 2.805 . S
Gd167 N162 2.622 . S
Gd167 N168 2.570 . S
Gd167 O199 2.386 . S
Gd167 O203 2.307 1_545 S
Gd167 O206 2.353 1_655 S
Gd167 O207 2.468 . S
Gd167 O208 2.427 . S
Gd167 O210 2.388 1_655 S
Gd167 C231 2.805 . S
N168 C158 1.359 . S
N168 Gd167 2.570 . S
N168 C170 1.343 . S
C169 C157 1.422 . S
C169 C171 1.321 . S
C169 H177 0.931 . S
C170 N168 1.343 . S
C170 C171 1.390 . S
C170 H172 0.931 . S
C171 C169 1.321 . S
C171 C170 1.390 . S
C171 H173 0.930 . S
H172 C170 0.931 . S
H173 C171 0.930 . S
H174 C197 0.931 . S
H175 C163 0.929 1_455 S
H176 C198 0.930 . S
H177 C169 0.931 . S
H178 C159 0.930 . S
H179 C188 0.929 1_655 S
H180 C164 0.931 . S
H181 C165 0.930 1_455 S
H182 C220 0.930 . S
H183 C161 0.929 . S
H184 C189 0.931 . S
H185 C190 0.930 1_655 S
N186 Gd166 2.622 . S
N186 C187 1.369 . S
N186 C188 1.338 . S
C187 N186 1.369 . S
C187 C191 1.415 . S
C187 C194 1.422 . S
C188 H179 0.929 1_455 S
C188 N186 1.338 . S
C188 C190 1.378 . S
C189 H184 0.931 . S
C189 C190 1.348 . S
C189 C191 1.413 . S
C190 H185 0.930 1_455 S
C190 C188 1.378 . S
C190 C189 1.348 . S
C191 C187 1.415 . S
C191 C189 1.413 . S
C191 C221 1.437 . S
H192 C221 0.929 . S
N193 Gd166 2.570 . S
N193 C194 1.359 . S
N193 C197 1.343 . S
C194 C187 1.422 . S
C194 N193 1.359 . S
C194 C196 1.421 . S
C195 C196 1.422 . S
C195 C198 1.321 . S
C195 H222 0.931 . S
C196 C194 1.421 . S
C196 C195 1.422 . S
C196 C220 1.417 . S
C197 H174 0.931 . S
C197 N193 1.343 . S
C197 C198 1.390 . S
C198 H176 0.930 . S
C198 C195 1.321 . S
C198 C197 1.390 . S
O199 Gd167 2.386 . S
O199 C211 1.265 . S
O200 Gd166 2.344 1_645 S
O200 C211 1.257 . S
O201 Gd166 2.468 . S
O201 C219 1.263 . S
O202 Gd166 2.427 . S
O202 C219 1.252 . S
O203 Gd167 2.307 1_565 S
O203 C212 1.261 . S
O204 Gd166 2.388 1_655 S
O204 C212 1.252 . S
O205 Gd166 2.386 . S
O205 C223 1.265 . S
O206 Gd167 2.353 1_455 S
O206 C223 1.242 1_545 S
O207 Gd167 2.468 . S
O207 C231 1.263 . S
O208 Gd167 2.427 . S
O208 C231 1.252 . S
O209 Gd166 2.307 1_545 S
O209 C224 1.261 . S
O210 Gd167 2.388 1_455 S
O210 C224 1.252 . S
C211 O199 1.265 . S
C211 O200 1.257 . S
C212 O203 1.261 . S
C212 O204 1.252 . S
C213 C216 1.394 . S
C213 C218 1.370 . S
C213 C219 1.500 . S
C214 C217 1.383 . S
C214 C218 1.395 . S
C215 C216 1.396 . S
C215 C217 1.365 . S
C215 H232 0.929 . S
C216 C213 1.394 . S
C216 C215 1.396 . S
C216 H233 0.930 . S
C217 C214 1.383 . S
C217 C215 1.365 . S
C217 H234 0.931 . S
C218 C213 1.370 . S
C218 C214 1.395 . S
C218 H235 0.930 . S
C219 Gd166 2.805 . S
C219 O201 1.263 . S
C219 O202 1.252 . S
C219 C213 1.500 . S
C220 H182 0.930 . S
C220 C196 1.417 . S
C220 C221 1.329 . S
C221 C191 1.437 . S
C221 H192 0.929 . S
C221 C220 1.329 . S
H222 C195 0.931 . S
C223 O205 1.265 . S
C223 O206 1.242 1_565 S
C224 O209 1.261 . S
C224 O210 1.252 . S
C225 C228 1.394 . S
C225 C230 1.370 . S
C225 C231 1.500 . S
C226 C229 1.383 . S
C226 C230 1.395 . S
C227 C228 1.396 . S
C227 C229 1.365 . S
C227 H236 0.929 . S
C228 C225 1.394 . S
C228 C227 1.396 . S
C228 H237 0.930 . S
C229 C226 1.383 . S
C229 C227 1.365 . S
C229 H238 0.931 . S
C230 C225 1.370 . S
C230 C226 1.395 . S
C230 H239 0.930 . S
C231 Gd167 2.805 . S
C231 O207 1.263 . S
C231 O208 1.252 . S
C231 C225 1.500 . S
H232 C215 0.929 . S
H233 C216 0.930 . S
H234 C217 0.931 . S
H235 C218 0.930 . S
H236 C227 0.929 . S
H237 C228 0.930 . S
H238 C229 0.931 . S
H239 C230 0.930 . S
C240 C242 1.422 . S
C240 C244 1.415 . S
C240 N246 1.369 . S
C241 C242 1.421 . S
C241 C243 1.417 . S
C241 C253 1.422 . S
C242 C240 1.422 . S
C242 C241 1.421 . S
C242 N252 1.359 . S
C243 C241 1.417 . S
C243 C245 1.329 . S
C243 H262 0.930 . S
C244 C240 1.415 . S
C244 C245 1.437 . S
C244 C248 1.413 . S
C245 C243 1.329 . S
C245 C244 1.437 . S
C245 H267 0.929 . S
N246 C240 1.369 . S
N246 C247 1.338 . S
N246 Gd251 2.622 . S
C247 N246 1.338 . S
C247 C249 1.378 . S
C247 H259 0.929 . S
C248 C244 1.413 . S
C248 C249 1.348 . S
C248 H264 0.931 . S
C249 C247 1.378 . S
C249 C248 1.348 . S
C249 H265 0.930 . S
Gd250 N270 2.622 . S
Gd250 N277 2.570 1_556 S
Gd250 O284 2.353 . S
Gd250 O285 2.468 . S
Gd250 O286 2.427 . S
Gd250 O288 2.388 1_556 S
Gd250 O289 2.386 1_556 S
Gd250 O293 2.307 1_556 S
Gd250 C303 2.805 . S
Gd251 N246 2.622 . S
Gd251 N252 2.570 . S
Gd251 O283 2.386 . S
Gd251 O287 2.307 . S
Gd251 O290 2.353 . S
Gd251 O291 2.468 . S
Gd251 O292 2.427 . S
Gd251 O294 2.388 . S
Gd251 C315 2.805 . S
N252 C242 1.359 . S
N252 Gd251 2.570 . S
N252 C254 1.343 . S
C253 C241 1.422 . S
C253 C255 1.321 . S
C253 H261 0.931 . S
C254 N252 1.343 . S
C254 C255 1.390 . S
C254 H256 0.931 . S
C255 C253 1.321 . S
C255 C254 1.390 . S
C255 H257 0.930 . S
H256 C254 0.931 . S
H257 C255 0.930 . S
H258 C281 0.931 . S
H259 C247 0.929 . S
H260 C282 0.930 . S
H261 C253 0.931 . S
H262 C243 0.930 . S
H263 C272 0.929 . S
H264 C248 0.931 . S
H265 C249 0.930 . S
H266 C304 0.930 . S
H267 C245 0.929 . S
H268 C273 0.931 . S
H269 C274 0.930 . S
N270 Gd250 2.622 . S
N270 C271 1.368 1_556 S
N270 C272 1.337 . S
C271 N270 1.368 1_554 S
C271 C275 1.415 . S
C271 C278 1.422 . S
C272 H263 0.929 . S
C272 N270 1.337 . S
C272 C274 1.378 . S
C273 H268 0.931 . S
C273 C274 1.348 1_554 S
C273 C275 1.413 . S
C274 H269 0.930 . S
C274 C272 1.378 . S
C274 C273 1.348 1_556 S
C275 C271 1.415 . S
C275 C273 1.413 . S
C275 C305 1.437 . S
H276 C305 0.929 . S
N277 Gd250 2.570 1_554 S
N277 C278 1.359 . S
N277 C281 1.343 . S
C278 C271 1.422 . S
C278 N277 1.359 . S
C278 C280 1.421 . S
C279 C280 1.422 . S
C279 C282 1.321 . S
C279 H306 0.931 . S
C280 C278 1.421 . S
C280 C279 1.422 . S
C280 C304 1.417 . S
C281 H258 0.931 . S
C281 N277 1.343 . S
C281 C282 1.390 . S
C282 H260 0.930 . S
C282 C279 1.321 . S
C282 C281 1.390 . S
O283 Gd251 2.386 . S
O283 C295 1.265 1_554 S
O284 Gd250 2.353 . S
O284 C295 1.242 . S
O285 Gd250 2.468 . S
O285 C303 1.263 . S
O286 Gd250 2.427 . S
O286 C303 1.252 . S
O287 Gd251 2.307 . S
O287 C296 1.261 . S
O288 Gd250 2.388 1_554 S
O288 C296 1.252 . S
O289 Gd250 2.386 1_554 S
O289 C307 1.265 . S
O290 Gd251 2.353 . S
O290 C307 1.242 . S
O291 Gd251 2.468 . S
O291 C315 1.263 . S
O292 Gd251 2.427 . S
O292 C315 1.252 . S
O293 Gd250 2.307 1_554 S
O293 C308 1.261 . S
O294 Gd251 2.388 . S
O294 C308 1.252 . S
C295 O283 1.265 1_556 S
C295 O284 1.242 . S
C296 O287 1.261 . S
C296 O288 1.252 . S
C297 C300 1.394 . S
C297 C302 1.370 . S
C297 C303 1.500 . S
C298 C301 1.383 . S
C298 C302 1.395 . S
C299 C300 1.396 . S
C299 C301 1.365 . S
C299 H316 0.929 . S
C300 C297 1.394 . S
C300 C299 1.396 . S
C300 H317 0.930 . S
C301 C298 1.383 . S
C301 C299 1.365 . S
C301 H318 0.931 . S
C302 C297 1.370 . S
C302 C298 1.395 . S
C302 H319 0.930 . S
C303 Gd250 2.805 . S
C303 O285 1.263 . S
C303 O286 1.252 . S
C303 C297 1.500 . S
C304 H266 0.930 . S
C304 C280 1.417 . S
C304 C305 1.329 . S
C305 C275 1.437 . S
C305 H276 0.929 . S
C305 C304 1.329 . S
H306 C279 0.931 . S
C307 O289 1.265 . S
C307 O290 1.242 . S
C308 O293 1.261 . S
C308 O294 1.252 . S
C309 C312 1.394 . S
C309 C314 1.370 . S
C309 C315 1.500 . S
C310 C313 1.383 . S
C310 C314 1.395 . S
C311 C312 1.396 . S
C311 C313 1.365 . S
C311 H320 0.929 . S
C312 C309 1.394 . S
C312 C311 1.396 . S
C312 H321 0.930 . S
C313 C310 1.383 . S
C313 C311 1.365 . S
C313 H322 0.931 . S
C314 C309 1.370 . S
C314 C310 1.395 . S
C314 H323 0.930 . S
C315 Gd251 2.805 . S
C315 O291 1.263 . S
C315 O292 1.252 . S
C315 C309 1.500 . S
H316 C299 0.929 . S
H317 C300 0.930 . S
H318 C301 0.931 . S
H319 C302 0.930 . S
H320 C311 0.929 . S
H321 C312 0.930 . S
H322 C313 0.931 . S
H323 C314 0.930 . S
C324 C325 1.387 . S
C324 H328 0.950 . S
C324 C333 1.390 . S
C325 C324 1.387 . S
C325 C327 1.387 . S
H326 C333 0.950 . S
C327 C325 1.387 . S
C327 C329 1.390 . S
C327 H331 0.950 . S
H328 C324 0.950 . S
C329 C327 1.390 . S
C329 C330 1.387 . S
C329 H332 0.950 . S
C330 C329 1.387 . S
C330 C333 1.387 . S
H331 C327 0.950 . S
H332 C329 0.950 . S
C333 C324 1.390 . S
C333 H326 0.950 . S
C333 C330 1.387 . S
C334 C335 1.387 . S
C334 H338 0.950 1_554 S
C334 C343 1.389 1_554 S
C335 C334 1.387 . S
C335 C337 1.387 . S
H336 C343 0.954 . S
C337 C335 1.387 . S
C337 C339 1.390 . S
C337 H341 0.950 . S
H338 C334 0.950 1_556 S
C339 C337 1.390 . S
C339 C340 1.387 . S
C339 H342 0.950 . S
C340 C339 1.387 . S
C340 C343 1.385 1_554 S
H341 C337 0.950 . S
H342 C339 0.950 . S
C343 C334 1.389 1_556 S
C343 H336 0.954 . S
C343 C340 1.385 1_556 S
C344 C345 1.387 . S
C344 H348 0.950 . S
C344 C353 1.390 . S
C345 C344 1.387 . S
C345 C347 1.387 . S
H346 C353 0.950 . S
C347 C345 1.387 . S
C347 C349 1.390 . S
C347 H351 0.950 . S
H348 C344 0.950 . S
C349 C347 1.390 . S
C349 C350 1.387 . S
C349 H352 0.950 . S
C350 C349 1.387 . S
C350 C353 1.387 . S
H351 C347 0.950 . S
H352 C349 0.950 . S
C353 C344 1.390 . S
C353 H346 0.950 . S
C353 C350 1.387 . S
C354 C355 1.387 1_556 S
C354 H358 0.950 . S
C354 C363 1.390 . S
C355 C354 1.387 1_554 S
C355 C357 1.387 . S
H356 C363 0.950 . S
C357 C355 1.387 . S
C357 C359 1.390 . S
C357 H361 0.950 . S
H358 C354 0.950 . S
C359 C357 1.390 . S
C359 C360 1.387 . S
C359 H362 0.950 . S
C360 C359 1.387 . S
C360 C363 1.387 1_554 S
H361 C357 0.950 . S
H362 C359 0.950 . S
C363 C354 1.390 . S
C363 H356 0.950 . S
C363 C360 1.387 1_556 S
C364 C365 1.387 . S
C364 H368 0.950 . S
C364 C373 1.390 . S
C365 C364 1.387 . S
C365 C367 1.387 . S
H366 C373 0.950 . S
C367 C365 1.387 . S
C367 C369 1.390 . S
C367 H371 0.950 . S
H368 C364 0.950 . S
C369 C367 1.390 . S
C369 C370 1.387 . S
C369 H372 0.950 1_565 S
C370 C369 1.387 . S
C370 C373 1.387 . S
H371 C367 0.950 . S
H372 C369 0.950 1_545 S
C373 C364 1.390 . S
C373 H366 0.950 . S
C373 C370 1.387 . S
C374 C375 1.387 . S
C374 H378 0.950 . S
C374 C383 1.390 . S
C375 C374 1.387 . S
C375 C377 1.387 . S
H376 C383 0.950 . S
C377 C375 1.387 . S
C377 C379 1.390 . S
C377 H381 0.950 . S
H378 C374 0.950 . S
C379 C377 1.390 . S
C379 C380 1.387 . S
C379 H382 0.950 . S
C380 C379 1.387 . S
C380 C383 1.387 . S
H381 C377 0.950 . S
H382 C379 0.950 . S
C383 C374 1.390 . S
C383 H376 0.950 . S
C383 C380 1.387 . S
C384 C385 1.387 . S
C384 H388 0.950 1_545 S
C384 C393 1.390 . S
C385 C384 1.387 . S
C385 C387 1.387 . S
H386 C393 0.950 1_565 S
C387 C385 1.387 . S
C387 C389 1.390 . S
C387 H391 0.950 . S
H388 C384 0.950 1_565 S
C389 C387 1.390 . S
C389 C390 1.387 . S
C389 H392 0.950 . S
C390 C389 1.387 . S
C390 C393 1.387 . S
H391 C387 0.950 . S
H392 C389 0.950 . S
C393 C384 1.390 . S
C393 H386 0.950 1_545 S
C393 C390 1.387 . S
C394 C395 1.387 . S
C394 H398 0.950 . S
C394 C403 1.390 . S
C395 C394 1.387 . S
C395 C397 1.387 . S
H396 C403 0.950 . S
C397 C395 1.387 . S
C397 C399 1.390 . S
C397 H401 0.950 . S
H398 C394 0.950 . S
C399 C397 1.390 . S
C399 C400 1.387 . S
C399 H402 0.950 . S
C400 C399 1.387 . S
C400 C403 1.387 . S
H401 C397 0.950 . S
H402 C399 0.950 . S
C403 C394 1.390 . S
C403 H396 0.950 . S
C403 C400 1.387 . S
C404 C405 1.387 . S
C404 H408 0.950 . S
C404 C413 1.390 . S
C405 C404 1.387 . S
C405 C407 1.387 . S
H406 C413 0.950 . S
C407 C405 1.387 . S
C407 C409 1.390 . S
C407 H411 0.950 . S
H408 C404 0.950 . S
C409 C407 1.390 . S
C409 C410 1.387 . S
C409 H412 0.950 . S
C410 C409 1.387 . S
C410 C413 1.387 . S
H411 C407 0.950 . S
H412 C409 0.950 . S
C413 C404 1.390 . S
C413 H406 0.950 . S
C413 C410 1.387 . S
C414 C415 1.387 . S
C414 H418 0.950 . S
C414 C423 1.390 . S
C415 C414 1.387 . S
C415 C417 1.387 . S
H416 C423 0.950 . S
C417 C415 1.387 . S
C417 C419 1.390 . S
C417 H421 0.950 . S
H418 C414 0.950 . S
C419 C417 1.390 . S
C419 C420 1.387 . S
C419 H422 0.950 . S
C420 C419 1.387 . S
C420 C423 1.387 . S
H421 C417 0.950 . S
H422 C419 0.950 . S
C423 C414 1.390 . S
C423 H416 0.950 . S
C423 C420 1.387 . S
C424 C425 1.387 . S
C424 H428 0.950 . S
C424 C433 1.390 . S
C425 C424 1.387 . S
C425 C427 1.387 . S
H426 C433 0.950 . S
C427 C425 1.387 . S
C427 C429 1.390 . S
C427 H431 0.950 . S
H428 C424 0.950 . S
C429 C427 1.390 . S
C429 C430 1.387 . S
C429 H432 0.950 . S
C430 C429 1.387 . S
C430 C433 1.387 . S
H431 C427 0.950 . S
H432 C429 0.950 . S
C433 C424 1.390 . S
C433 H426 0.950 . S
C433 C430 1.387 . S
C434 C435 1.387 . S
C434 H438 0.950 . S
C434 C443 1.390 . S
C435 C434 1.387 . S
C435 C437 1.387 1_565 S
H436 C443 0.950 . S
C437 C435 1.387 1_545 S
C437 C439 1.390 . S
C437 H441 0.950 . S
H438 C434 0.950 . S
C439 C437 1.390 . S
C439 C440 1.387 1_545 S
C439 H442 0.950 . S
C440 C439 1.387 1_565 S
C440 C443 1.387 . S
H441 C437 0.950 . S
H442 C439 0.950 . S
C443 C434 1.390 . S
C443 H436 0.950 . S
C443 C440 1.387 . S
C330 C224 1.680 . S
C325 C138 1.643 . S
C335 C21 1.634 . S
C340 C296 1.666 . S
C345 C60 1.651 . S
C350 C212 1.680 . S
C355 C99 1.649 . S
C360 C308 1.666 . S
C370 C214 1.429 . S
C365 C16 1.550 . S
C380 C295 1.634 . S
C375 C40 1.614 . S
C385 C79 1.634 . S
C390 C211 1.670 . S
C395 C133 1.537 . S
C400 C298 1.412 . S
C410 C310 1.413 . S
C405 C55 1.535 . S
C420 C226 1.428 . S
C415 C94 1.549 . S
C430 C307 1.634 . S
C425 C118 1.611 . S
C435 C1 1.627 . S
C440 C223 1.670 . S
