# Generated by pormake.
# Topology rtl, (3,6)-cn, num edge types: 1
# Building blocks:
#     Node 0, Type 0, BuildingBlock: BETDAH_clean_linker_0, # of connection points: 3
#     Node 1, Type 0, BuildingBlock: BETDAH_clean_linker_0, # of connection points: 3
#     Node 2, Type 0, BuildingBlock: BETDAH_clean_linker_0, # of connection points: 3
#     Node 3, Type 0, BuildingBlock: BETDAH_clean_linker_0, # of connection points: 3
#     Node 4, Type 1, BuildingBlock: CIFDUS_clean_sbu_1, # of connection points: 6
#     Node 5, Type 1, BuildingBlock: CIFDUS_clean_sbu_1, # of connection points: 6
#     Edge 6, Type (0, 1), BuildingBlock: ZUJKAS_clean_linker_0, # of connection points: 2
#     Edge 7, Type (0, 1), BuildingBlock: ZUJKAS_clean_linker_0, # of connection points: 2
#     Edge 8, Type (0, 1), BuildingBlock: ZUJKAS_clean_linker_0, # of connection points: 2
#     Edge 9, Type (0, 1), BuildingBlock: ZUJKAS_clean_linker_0, # of connection points: 2
#     Edge 10, Type (0, 1), BuildingBlock: ZUJKAS_clean_linker_0, # of connection points: 2
#     Edge 11, Type (0, 1), BuildingBlock: ZUJKAS_clean_linker_0, # of connection points: 2
#     Edge 12, Type (0, 1), BuildingBlock: ZUJKAS_clean_linker_0, # of connection points: 2
#     Edge 13, Type (0, 1), BuildingBlock: ZUJKAS_clean_linker_0, # of connection points: 2
#     Edge 14, Type (0, 1), BuildingBlock: ZUJKAS_clean_linker_0, # of connection points: 2
#     Edge 15, Type (0, 1), BuildingBlock: ZUJKAS_clean_linker_0, # of connection points: 2
#     Edge 16, Type (0, 1), BuildingBlock: ZUJKAS_clean_linker_0, # of connection points: 2
#     Edge 17, Type (0, 1), BuildingBlock: ZUJKAS_clean_linker_0, # of connection points: 2
# Relax obj value: 0.016
# Max RMSD: 0.116
# Mean RMSD: 0.087
data_MOF--net-rtl--node1-CIFDUS_clean_sbu_1--node2-BETDAH_clean_linker_0--edge1-ZUJKAS_clean_linker_0
_symmetry_space_group_name_H-M    P1
_symmetry_Int_Tables_number       1
_symmetry_cell_setting            triclinic
loop_
_symmetry_equiv_pos_as_xyz
'x, y, z'
_cell_length_a     46.007133
_cell_length_b     46.043691
_cell_length_c     28.867124
_cell_angle_alpha  90.884693
_cell_angle_beta   99.503002
_cell_angle_gamma 89.930408
loop_
_atom_site_label
_atom_site_type_symbol
_atom_site_fract_x
_atom_site_fract_y
_atom_site_fract_z
_atom_type_partial_charge
H0 H 0.17669 0.89659 0.07482 0.0
H1 H 0.20983 0.82299 0.15788 0.0
H2 H 0.20955 0.8217 0.00951 0.0
C3 C 0.18671 0.87525 0.07789 0.0
C4 C 0.19205 0.86079 0.03694 0.0
C5 C 0.19259 0.86193 0.12198 0.0
C6 C 0.20628 0.83447 0.12496 0.0
C7 C 0.21355 0.82054 0.0848 0.0
C8 C 0.2062 0.83364 0.04084 0.0
N9 N 0.22209 0.79097 0.08723 0.0
C10 C 0.25113 0.78165 0.09086 0.0
H11 H 0.658 0.66113 0.58382 0.0
H12 H 0.70228 0.73458 0.53591 0.0
H13 H 0.69815 0.72592 0.68272 0.0
C14 C 0.67061 0.68101 0.5914 0.0
C15 C 0.6774 0.69127 0.63798 0.0
C16 C 0.6793 0.69642 0.55423 0.0
C17 C 0.69581 0.72226 0.56422 0.0
C18 C 0.70301 0.73255 0.61097 0.0
C19 C 0.6934 0.71721 0.64717 0.0
N20 N 0.71727 0.75962 0.62284 0.0
C21 C 0.74088 0.77066 0.60404 0.0
H22 H 0.85829 0.1572 0.00639 0.0
H23 H 0.81866 0.23208 0.0632 0.0
H24 H 0.81677 0.22252 0.91441 0.0
C25 C 0.84652 0.17762 1.0018 0.0
C26 C 0.83855 0.18807 0.95617 0.0
C27 C 0.84026 0.19339 0.04124 0.0
C28 C 0.82332 0.21914 0.03367 0.0
C29 C 0.8144 0.22931 0.98757 0.0
C30 C 0.82243 0.21384 0.94945 0.0
N31 N 0.80056 0.25664 0.97786 0.0
C32 C 0.78034 0.27014 1.00199 0.0
H33 H 0.35331 0.38773 0.51681 0.0
H34 H 0.28787 0.3303 0.55684 0.0
H35 H 0.29093 0.345 0.41083 0.0
C36 C 0.33478 0.37306 0.50733 0.0
C37 C 0.32404 0.36732 0.45984 0.0
C38 C 0.32216 0.35956 0.54267 0.0
C39 C 0.29819 0.34026 0.52991 0.0
C40 C 0.28667 0.3354 0.482 0.0
C41 C 0.29989 0.34878 0.4476 0.0
N42 N 0.26055 0.31928 0.46619 0.0
C43 C 0.2492 0.29655 0.48885 0.0
O44 O 0.98907 0.04577 0.485 0.0
Mn45 Mn 0.00952 0.01814 0.53797 0.0
O46 O 0.97602 0.01459 0.42476 0.0
Mn47 Mn 0.98392 0.98108 0.45924 0.0
O48 O 0.02858 0.98782 0.58897 0.0
O49 O 0.0397 0.05168 0.55702 0.0
Mn50 Mn 0.04955 0.04238 0.61698 0.0
O51 O 0.98275 0.03489 0.58439 0.0
O52 O 0.06992 0.00825 0.62314 0.0
O53 O 0.03955 0.00314 0.49466 0.0
O54 O 0.01959 0.96377 0.45822 0.0
O55 O 0.07137 0.07394 0.61396 0.0
O56 O 0.01704 0.04629 0.6466 0.0
C57 C 0.95704 0.96646 0.5044 0.0
C58 C 0.97828 0.04033 0.44169 0.0
C59 C 0.05443 0.98586 0.61334 0.0
C60 C 0.05893 0.07259 0.57027 0.0
C61 C 0.99017 0.04427 0.627 0.0
C62 C 0.04182 0.97947 0.47167 0.0
O63 O 0.97726 0.98649 0.51797 0.0
O64 O 0.95408 0.95683 0.46141 0.0
O65 O 0.53167 0.54286 0.1068 0.0
Mn66 Mn 0.50863 0.51857 0.04912 0.0
O67 O 0.55641 0.51047 0.15522 0.0
Mn68 Mn 0.54045 0.47858 0.12109 0.0
O69 O 0.48541 0.49352 0.99152 0.0
O70 O 0.47968 0.55381 0.03988 0.0
Mn71 Mn 0.47474 0.55581 0.97776 0.0
O72 O 0.53708 0.53593 0.00584 0.0
O73 O 0.45429 0.52443 0.95079 0.0
O74 O 0.47989 0.50072 0.09149 0.0
O75 O 0.50495 0.46547 0.13293 0.0
O76 O 0.45323 0.5857 0.99177 0.0
O77 O 0.50841 0.56395 0.9548 0.0
C78 C 0.55728 0.46287 0.06337 0.0
C79 C 0.54961 0.53654 0.14449 0.0
C80 C 0.46385 0.49889 0.9581 0.0
C81 C 0.46138 0.5761 0.03394 0.0
C82 C 0.53315 0.55272 0.97016 0.0
C83 C 0.48116 0.47894 0.11915 0.0
O84 O 0.53831 0.48443 0.0599 0.0
O85 O 0.56523 0.45178 0.1045 0.0
H86 H 0.21566 0.29042 0.55729 0.0
H87 H 0.1806 0.25067 0.56252 0.0
H88 H 0.2082 0.20797 0.44298 0.0
H89 H 0.24346 0.24721 0.43851 0.0
H90 H 0.13401 0.23562 0.49151 0.0
H91 H 0.20814 0.14096 0.53259 0.0
H92 H 0.22127 0.17795 0.53984 0.0
H93 H 0.21441 0.16112 0.48245 0.0
C94 C 0.21476 0.27204 0.5332 0.0
C95 C 0.2325 0.27137 0.49812 0.0
C96 C 0.19463 0.2495 0.53589 0.0
C97 C 0.19198 0.22612 0.50345 0.0
C98 C 0.2103 0.22532 0.46908 0.0
H99 H 0.08233 0.06945 0.48864 0.0
H100 H 0.11119 0.10867 0.46085 0.0
C101 C 0.23043 0.24772 0.46656 0.0
C102 C 0.16862 0.20376 0.50322 0.0
H103 H 0.15717 0.13105 0.51361 0.0
C104 C 0.13907 0.21274 0.49638 0.0
C105 C 0.17514 0.17383 0.50854 0.0
C106 C 0.20646 0.16283 0.51665 0.0
C107 C 0.11589 0.19273 0.49512 0.0
C108 C 0.1224 0.16286 0.50217 0.0
C109 C 0.15198 0.15382 0.5078 0.0
C110 C 0.09956 0.1412 0.5097 0.0
C111 C 0.08468 0.20399 0.48586 0.0
C112 C 0.08223 0.14667 0.54454 0.0
C113 C 0.06521 0.12468 0.55916 0.0
C114 C 0.0656 0.09642 0.54024 0.0
C115 C 0.08105 0.09123 0.50291 0.0
C116 C 0.09792 0.11353 0.48768 0.0
H117 H 0.08289 0.2231 0.46251 0.0
H118 H 0.06888 0.18713 0.46945 0.0
H119 H 0.07824 0.2113 0.51955 0.0
H120 H 0.08364 0.16727 0.56337 0.0
H121 H 0.05404 0.12907 0.58878 0.0
H122 H 0.28097 0.76525 0.02159 0.0
H123 H 0.32366 0.73243 0.02926 0.0
H124 H 0.3264 0.73109 0.17931 0.0
H125 H 0.28352 0.76357 0.17147 0.0
H126 H 0.3817 0.7325 0.0807 0.0
H127 H 0.31262 0.64578 0.13833 0.0
H128 H 0.29738 0.67914 0.11302 0.0
H129 H 0.31494 0.67853 0.17343 0.0
C130 C 0.29117 0.75838 0.05622 0.0
C131 C 0.2792 0.76681 0.09598 0.0
C132 C 0.3155 0.73965 0.06062 0.0
C133 C 0.32797 0.72889 0.1048 0.0
C134 C 0.3169 0.73873 0.14482 0.0
H135 H 0.48395 0.61515 0.10358 0.0
H136 H 0.45395 0.65307 0.13366 0.0
C137 C 0.29259 0.75742 0.14039 0.0
C138 C 0.35074 0.7056 0.10839 0.0
H139 H 0.36208 0.63423 0.13634 0.0
C140 C 0.3776 0.711 0.09304 0.0
C141 C 0.34516 0.6775 0.12404 0.0
C142 C 0.3159 0.66967 0.13776 0.0
C143 C 0.39869 0.68888 0.09166 0.0
C144 C 0.39317 0.66062 0.10754 0.0
C145 C 0.36665 0.65574 0.12449 0.0
C146 C 0.41206 0.63484 0.1005 0.0
C147 C 0.42581 0.69584 0.07076 0.0
C148 C 0.39873 0.61012 0.07688 0.0
C149 C 0.4158 0.58765 0.06265 0.0
C150 C 0.44668 0.58952 0.07049 0.0
C151 C 0.4602 0.61275 0.09801 0.0
C152 C 0.44298 0.63497 0.11374 0.0
H153 H 0.42328 0.71634 0.05067 0.0
H154 H 0.44491 0.69862 0.09943 0.0
H155 H 0.43083 0.67808 0.04688 0.0
H156 H 0.37505 0.60908 0.06613 0.0
H157 H 0.40475 0.57046 0.04038 0.0
H158 H 0.79216 0.77677 0.66291 0.0
H159 H 0.83184 0.81129 0.65612 0.0
H160 H 0.78619 0.83632 0.51992 0.0
H161 H 0.74625 0.802 0.52709 0.0
H162 H 0.86975 0.82017 0.58833 0.0
H163 H 0.79339 0.91261 0.59774 0.0
H164 H 0.78456 0.87602 0.61231 0.0
H165 H 0.781 0.8865 0.55191 0.0
C166 C 0.791 0.78922 0.6311 0.0
C167 C 0.76638 0.7868 0.59539 0.0
C168 C 0.8136 0.80898 0.62733 0.0
C169 C 0.81175 0.82681 0.58794 0.0
C170 C 0.78782 0.82318 0.55103 0.0
H171 H 0.89884 0.96322 0.47735 0.0
H172 H 0.86524 0.93049 0.50699 0.0
C173 C 0.76518 0.80343 0.55487 0.0
C174 C 0.83386 0.85028 0.58665 0.0
H175 H 0.84048 0.92389 0.57974 0.0
C176 C 0.86349 0.8429 0.58676 0.0
C177 C 0.82572 0.87993 0.58539 0.0
C178 C 0.7945 0.88937 0.58727 0.0
C179 C 0.88485 0.86424 0.58264 0.0
C180 C 0.8765 0.89395 0.57977 0.0
C181 C 0.84706 0.90126 0.58197 0.0
C182 C 0.89646 0.91725 0.56751 0.0
C183 C 0.91572 0.85451 0.57886 0.0
C184 C 0.925 0.92232 0.59296 0.0
C185 C 0.94461 0.94124 0.57557 0.0
C186 C 0.93565 0.95559 0.53301 0.0
C187 C 0.9063 0.95259 0.51043 0.0
C188 C 0.88705 0.93365 0.52728 0.0
H189 H 0.91687 0.83076 0.57199 0.0
H190 H 0.92412 0.86606 0.55028 0.0
H191 H 0.93054 0.8595 0.61241 0.0
H192 H 0.93257 0.91071 0.625 0.0
H193 H 0.96721 0.94289 0.59336 0.0
H194 H 0.72432 0.25553 0.00992 0.0
H195 H 0.68327 0.28962 0.0125 0.0
H196 H 0.74374 0.36167 0.01995 0.0
H197 H 0.78465 0.32768 0.01758 0.0
H198 H 0.67486 0.33823 0.07878 0.0
H199 H 0.68117 0.37372 0.89759 0.0
H200 H 0.69745 0.34028 0.92141 0.0
H201 H 0.71537 0.37436 0.93813 0.0
C202 C 0.72885 0.27862 0.01351 0.0
C203 C 0.75753 0.28911 0.01412 0.0
C204 C 0.70543 0.29806 0.01461 0.0
C205 C 0.71038 0.32821 0.01557 0.0
C206 C 0.73936 0.33853 0.01858 0.0
H207 H 0.60679 0.48208 0.03462 0.0
H208 H 0.64393 0.4481 0.01436 0.0
C209 C 0.76273 0.31913 0.01775 0.0
C210 C 0.68525 0.34894 0.01116 0.0
H211 H 0.64866 0.40001 0.93854 0.0
C212 C 0.66899 0.35157 0.04802 0.0
C213 C 0.67759 0.36633 0.97091 0.0
C214 C 0.69359 0.3635 0.92948 0.0
C215 C 0.64577 0.37167 0.04622 0.0
C216 C 0.63828 0.38927 0.00615 0.0
C217 C 0.65437 0.38647 0.9691 0.0
C218 C 0.61435 0.41128 1.00358 0.0
C219 C 0.62981 0.3745 0.08774 0.0
C220 C 0.58488 0.40245 1.0002 0.0
C221 C 0.5635 0.42206 0.01073 0.0
C222 C 0.57131 0.45069 0.02519 0.0
C223 C 0.59992 0.46039 0.02239 0.0
C224 C 0.62133 0.4408 0.0117 0.0
H225 H 0.64124 0.36271 0.11882 0.0
H226 H 0.62772 0.39772 0.09767 0.0
H227 H 0.60725 0.36544 0.0781 0.0
H228 H 0.57896 0.37981 0.99366 0.0
H229 H 0.54186 0.41377 0.01372 0.0
H230 H 0.14215 0.89386 0.12233 0.0
H231 H 0.12414 0.91623 0.18858 0.0
H232 H 0.19739 0.88044 0.28302 0.0
H233 H 0.2172 0.85986 0.21609 0.0
H234 H 0.1052 0.89215 0.25837 0.0
H235 H 0.20032 0.96216 0.33181 0.0
H236 H 0.19756 0.94424 0.27523 0.0
H237 H 0.20954 0.92442 0.32821 0.0
C238 C 0.15516 0.89141 0.15687 0.0
C239 C 0.18166 0.87546 0.16334 0.0
C240 C 0.14449 0.90396 0.195 0.0
C241 C 0.15962 0.90056 0.24091 0.0
C242 C 0.18571 0.88414 0.24789 0.0
H243 H 0.07465 0.93066 0.48402 0.0
H244 H 0.10791 0.91249 0.43195 0.0
C245 C 0.19678 0.87196 0.2095 0.0
C246 C 0.14703 0.91325 0.28105 0.0
H247 H 0.16133 0.95931 0.37636 0.0
C248 C 0.11756 0.90681 0.2841 0.0
C249 C 0.16302 0.93261 0.31457 0.0
C250 C 0.19426 0.94152 0.31216 0.0
C251 C 0.10367 0.91917 0.31939 0.0
C252 C 0.11978 0.9381 0.35317 0.0
C253 C 0.1492 0.94459 0.3505 0.0
C254 C 0.10574 0.95151 0.39083 0.0
C255 C 0.0716 0.91249 0.31982 0.0
C256 C 0.09487 0.98002 0.38634 0.0
C257 C 0.07632 0.99062 0.41664 0.0
C258 C 0.06834 0.97269 0.4514 0.0
C259 C 0.0809 0.94496 0.45785 0.0
C260 C 0.0997 0.93453 0.42802 0.0
H261 H 0.0615 0.89947 0.28858 0.0
H262 H 0.06946 0.90017 0.35183 0.0
H263 H 0.05898 0.93301 0.32092 0.0
H264 H 0.09908 0.9933 0.35751 0.0
H265 H 0.06623 0.01177 0.41029 0.0
H266 H 0.708 0.68044 0.72593 0.0
H267 H 0.69123 0.65328 0.78903 0.0
H268 H 0.607 0.63906 0.70124 0.0
H269 H 0.6234 0.66636 0.63826 0.0
H270 H 0.64039 0.66304 0.83445 0.0
H271 H 0.63599 0.55655 0.74096 0.0
H272 H 0.65568 0.58738 0.72355 0.0
H273 H 0.61628 0.58511 0.70766 0.0
C274 C 0.68583 0.67169 0.72017 0.0
C275 C 0.66715 0.67529 0.67681 0.0
C276 C 0.67635 0.65611 0.7562 0.0
C277 C 0.6481 0.64372 0.74948 0.0
C278 C 0.62915 0.64788 0.70675 0.0
H279 H 0.52629 0.5545 0.87641 0.0
H280 H 0.55997 0.57397 0.82847 0.0
C281 C 0.63858 0.66342 0.67074 0.0
C282 C 0.63826 0.62638 0.78694 0.0
H283 H 0.6126 0.55929 0.80862 0.0
C284 C 0.63472 0.64023 0.8293 0.0
C285 C 0.63104 0.59662 0.78004 0.0
C286 C 0.63516 0.58041 0.73577 0.0
C287 C 0.62233 0.62556 0.86377 0.0
C288 C 0.61409 0.596 0.85612 0.0
C289 C 0.61911 0.58185 0.8147 0.0
C290 C 0.59584 0.58086 0.88629 0.0
C291 C 0.61641 0.64233 0.90657 0.0
C292 C 0.60512 0.57701 0.93485 0.0
C293 C 0.58555 0.56582 0.96282 0.0
C294 C 0.55663 0.55846 0.94229 0.0
C295 C 0.54836 0.5604 0.89333 0.0
C296 C 0.56765 0.57147 0.86576 0.0
H297 H 0.61951 0.66609 0.9032 0.0
H298 H 0.59358 0.63838 0.9128 0.0
H299 H 0.63182 0.63498 0.93786 0.0
H300 H 0.62707 0.58347 0.95127 0.0
H301 H 0.59244 0.56446 1.00045 0.0
H302 H 0.81773 0.19745 0.12477 0.0
H303 H 0.8406 0.18034 0.20254 0.0
H304 H 0.91473 0.14804 0.14343 0.0
H305 H 0.89387 0.1672 0.06793 0.0
H306 H 0.8549 0.12798 0.23478 0.0
H307 H 0.95852 0.19014 0.25236 0.0
H308 H 0.92772 0.19766 0.20683 0.0
H309 H 0.95364 0.16927 0.19886 0.0
C310 C 0.8392 0.18729 0.12858 0.0
C311 C 0.85364 0.18363 0.08946 0.0
C312 C 0.85217 0.17728 0.17306 0.0
C313 C 0.87982 0.16344 0.17936 0.0
C314 C 0.89393 0.15945 0.14025 0.0
H315 H 0.97908 0.04157 0.34831 0.0
H316 H 0.95436 0.07576 0.29117 0.0
C317 C 0.88143 0.16992 0.09641 0.0
C318 C 0.89377 0.15193 0.22589 0.0
H319 H 0.96041 0.146 0.29802 0.0
C320 C 0.87774 0.13255 0.24923 0.0
C321 C 0.92362 0.1579 0.24529 0.0
C322 C 0.94169 0.18014 0.2247 0.0
C323 C 0.89127 0.11764 0.28933 0.0
C324 C 0.92155 0.12215 0.30643 0.0
C325 C 0.93719 0.14254 0.28472 0.0
C326 C 0.93811 0.10318 0.34266 0.0
C327 C 0.87366 0.09596 0.3119 0.0
C328 C 0.93788 0.10778 0.39087 0.0
C329 C 0.95243 0.08833 0.42402 0.0
C330 C 0.967 0.06389 0.40912 0.0
C331 C 0.96793 0.0601 0.36091 0.0
C332 C 0.95378 0.07959 0.32815 0.0
H333 H 0.85018 0.0952 0.29489 0.0
H334 H 0.88336 0.07398 0.30981 0.0
H335 H 0.87475 0.10163 0.34967 0.0
H336 H 0.92595 0.126 0.40268 0.0
H337 H 0.95113 0.09163 0.46085 0.0
H338 H 0.32445 0.41267 0.58501 0.0
H339 H 0.34936 0.42625 0.66412 0.0
H340 H 0.3731 0.33675 0.69094 0.0
H341 H 0.34766 0.32298 0.61164 0.0
H342 H 0.33968 0.39985 0.75736 0.0
H343 H 0.45275 0.38879 0.71347 0.0
H344 H 0.42098 0.39479 0.6688 0.0
H345 H 0.42633 0.36011 0.69616 0.0
C346 C 0.33462 0.39586 0.60809 0.0
C347 C 0.33403 0.36677 0.59247 0.0
C348 C 0.3489 0.40363 0.65313 0.0
C349 C 0.36332 0.38255 0.6832 0.0
C350 C 0.36224 0.35334 0.66814 0.0
H351 H 0.47513 0.43912 0.9534 0.0
H352 H 0.45175 0.4044 0.89199 0.0
C353 C 0.34754 0.34548 0.62313 0.0
C354 C 0.37966 0.39159 0.72995 0.0
H355 H 0.4487 0.40874 0.78769 0.0
C356 C 0.36355 0.40119 0.76441 0.0
C357 C 0.4108 0.39337 0.73904 0.0
C358 C 0.42895 0.38386 0.70255 0.0
C359 C 0.37765 0.41352 0.80703 0.0
C360 C 0.4087 0.41684 0.81519 0.0
C361 C 0.42498 0.40587 0.78173 0.0
C362 C 0.42347 0.4365 0.8533 0.0
C363 C 0.359 0.42414 0.8422 0.0
C364 C 0.41569 0.46584 0.85148 0.0
C365 C 0.42855 0.48528 0.88603 0.0
C366 C 0.45016 0.47629 0.9236 0.0
C367 C 0.45846 0.4468 0.92533 0.0
C368 C 0.4452 0.42701 0.89022 0.0
H369 H 0.33792 0.41192 0.83859 0.0
H370 H 0.37089 0.4221 0.87875 0.0
H371 H 0.35357 0.44738 0.83582 0.0
H372 H 0.39958 0.47387 0.82287 0.0
H373 H 0.42155 0.50772 0.88255 0.0
H374 H 0.6865 0.64232 0.51857 0.0
H375 H 0.66308 0.62199 0.4428 0.0
H376 H 0.62393 0.70528 0.40494 0.0
H377 H 0.64809 0.72587 0.48054 0.0
H378 H 0.60469 0.61731 0.41406 0.0
H379 H 0.65258 0.68244 0.28466 0.0
H380 H 0.66813 0.68236 0.3463 0.0
H381 H 0.63566 0.70332 0.326 0.0
C382 C 0.67346 0.65645 0.49359 0.0
C383 C 0.66928 0.68572 0.5053 0.0
C384 C 0.65995 0.6448 0.45036 0.0
C385 C 0.64178 0.66206 0.41781 0.0
C386 C 0.63829 0.6916 0.42884 0.0
H387 H 0.52983 0.59255 0.15789 0.0
H388 H 0.54941 0.62674 0.22226 0.0
C389 C 0.65212 0.70338 0.47206 0.0
C390 C 0.62504 0.64831 0.37427 0.0
H391 H 0.61558 0.64842 0.25404 0.0
C392 C 0.60699 0.62431 0.37913 0.0
C393 C 0.62769 0.65752 0.3285 0.0
C394 C 0.64723 0.68267 0.32081 0.0
C395 C 0.59235 0.60882 0.33985 0.0
C396 C 0.59582 0.61737 0.29425 0.0
C397 C 0.61283 0.64203 0.28906 0.0
C398 C 0.58502 0.59863 0.25256 0.0
C399 C 0.57384 0.58282 0.34739 0.0
C400 C 0.59902 0.57203 0.2476 0.0
C401 C 0.58807 0.55273 0.21123 0.0
C402 C 0.56275 0.55945 0.17859 0.0
C403 C 0.54941 0.58676 0.18223 0.0
C404 C 0.56049 0.60623 0.21905 0.0
H405 H 0.56784 0.583 0.38313 0.0
H406 H 0.55335 0.58203 0.32098 0.0
H407 H 0.58652 0.56269 0.3432 0.0
H408 H 0.61813 0.56585 0.27271 0.0
H409 H 0.5992 0.53209 0.2094 0.0
H410 H 0.80704 0.172 0.87027 0.0
H411 H 0.82528 0.14508 0.80652 0.0
H412 H 0.91274 0.14506 0.88804 0.0
H413 H 0.8946 0.17122 0.95176 0.0
H414 H 0.87026 0.1569 0.75324 0.0
H415 H 0.89694 0.05903 0.86113 0.0
H416 H 0.87424 0.08802 0.87819 0.0
H417 H 0.91378 0.09134 0.88882 0.0
C418 C 0.83014 0.16623 0.87437 0.0
C419 C 0.8493 0.17312 0.91629 0.0
C420 C 0.84053 0.15091 0.83802 0.0
C421 C 0.87022 0.14244 0.84303 0.0
C422 C 0.88957 0.15059 0.88397 0.0
H423 H 1.00069 0.06481 0.71687 0.0
H424 H 0.96671 0.0867 0.76231 0.0
C425 C 0.8792 0.16554 0.92034 0.0
C426 C 0.88122 0.12455 0.80631 0.0
H427 H 0.91882 0.06206 0.7917 0.0
C428 C 0.88042 0.13591 0.76121 0.0
C429 C 0.89423 0.09705 0.81671 0.0
C430 C 0.89461 0.083 0.86371 0.0
C431 C 0.89415 0.12137 0.72734 0.0
C432 C 0.90853 0.0946 0.73876 0.0
C433 C 0.90778 0.08256 0.78293 0.0
C434 C 0.92823 0.08081 0.70887 0.0
C435 C 0.89474 0.13553 0.68074 0.0
C436 C 0.91793 0.0698 0.66335 0.0
C437 C 0.93767 0.05715 0.63646 0.0
C438 C 0.96789 0.05523 0.65497 0.0
C439 C 0.97768 0.06578 0.70101 0.0
C440 C 0.9582 0.07841 0.72735 0.0
H441 H 0.88602 0.15807 0.67985 0.0
H442 H 0.91759 0.13606 0.67298 0.0
H443 H 0.88107 0.12265 0.65246 0.0
H444 H 0.89474 0.07097 0.64868 0.0
H445 H 0.92937 0.04926 0.60123 0.0
H446 H 0.35143 0.33988 0.39525 0.0
H447 H 0.37305 0.36184 0.33189 0.0
H448 H 0.34671 0.44671 0.37522 0.0
H449 H 0.32648 0.42477 0.44004 0.0
H450 H 0.34873 0.39145 0.25805 0.0
H451 H 0.43086 0.46242 0.36773 0.0
H452 H 0.41078 0.43469 0.39259 0.0
H453 H 0.39392 0.4693 0.37721 0.0
C454 C 0.35065 0.36325 0.3914 0.0
C455 C 0.33771 0.38077 0.42258 0.0
C456 C 0.36285 0.37578 0.35519 0.0
C457 C 0.36197 0.40602 0.34916 0.0
C458 C 0.3485 0.42346 0.37995 0.0
H459 H 0.43817 0.51236 0.14924 0.0
H460 H 0.40335 0.49601 0.19977 0.0
C461 C 0.33682 0.41097 0.41677 0.0
C462 C 0.37464 0.41907 0.31007 0.0
H463 H 0.42481 0.46881 0.28557 0.0
C464 C 0.36531 0.40843 0.26412 0.0
C465 C 0.39633 0.44122 0.31786 0.0
C466 C 0.40879 0.45238 0.36654 0.0
C467 C 0.37716 0.41916 0.22592 0.0
C468 C 0.39888 0.44118 0.23381 0.0
C469 C 0.40775 0.45229 0.2795 0.0
C470 C 0.41531 0.45062 0.19657 0.0
C471 C 0.36652 0.4066 0.17752 0.0
C472 C 0.43291 0.43045 0.17717 0.0
C473 C 0.45262 0.4397 0.14865 0.0
C474 C 0.45525 0.46934 0.13895 0.0
C475 C 0.4363 0.48938 0.15573 0.0
C476 C 0.41661 0.48008 0.1848 0.0
H477 H 0.34402 0.39729 0.17473 0.0
H478 H 0.36639 0.42326 0.15008 0.0
H479 H 0.38154 0.3888 0.17038 0.0
H480 H 0.43276 0.40775 0.18642 0.0
H481 H 0.46704 0.42379 0.13624 0.0
H482 H 0.21718 0.86492 0.95691 0.0
H483 H 0.19377 0.88278 0.87977 0.0
H484 H 0.11339 0.89878 0.93454 0.0
H485 H 0.13659 0.88162 0.0111 0.0
H486 H 0.14584 0.86243 0.82057 0.0
H487 H 0.12374 0.9751 0.87411 0.0
H488 H 0.14802 0.95123 0.91145 0.0
H489 H 0.10872 0.9491 0.90927 0.0
C490 C 0.19461 0.87249 0.95241 0.0
C491 C 0.1789 0.87229 0.99026 0.0
C492 C 0.18126 0.88269 0.90843 0.0
C493 C 0.15198 0.89271 0.90158 0.0
C494 C 0.13625 0.89208 0.93923 0.0
H495 H 0.02412 0.9576 0.67225 0.0
H496 H 0.04695 0.92969 0.74053 0.0
C497 C 0.14958 0.8822 0.98304 0.0
C498 C 0.1372 0.90268 0.85481 0.0
H499 H 0.09722 0.95865 0.80012 0.0
C500 C 0.13541 0.88356 0.81601 0.0
C501 C 0.12362 0.93031 0.84878 0.0
C502 C 0.12638 0.95271 0.88802 0.0
C503 C 0.11978 0.89103 0.77173 0.0
C504 C 0.10556 0.91825 0.76619 0.0
C505 C 0.10763 0.93751 0.80476 0.0
C506 C 0.09012 0.92833 0.72008 0.0
C507 C 0.11819 0.86967 0.73128 0.0
C508 C 0.10652 0.93563 0.68508 0.0
C509 C 0.09355 0.95158 0.64631 0.0
C510 C 0.06393 0.96025 0.64172 0.0
C511 C 0.04678 0.95057 0.67441 0.0
C512 C 0.0599 0.93495 0.71366 0.0
H513 H 0.12477 0.84747 0.74338 0.0
H514 H 0.09555 0.86883 0.71075 0.0
H515 H 0.13331 0.87684 0.70745 0.0
H516 H 0.12992 0.9311 0.68964 0.0
H517 H 0.10731 0.95927 0.62198 0.0
loop_
_geom_bond_atom_site_label_1
_geom_bond_atom_site_label_2
_geom_bond_distance
_geom_bond_site_symmetry_2
_ccdc_geom_bond_type
H0 C3 0.929 . S
H1 C6 0.929 . S
H2 C8 0.930 . S
C3 H0 0.929 . S
C3 C4 1.398 . S
C3 C5 1.396 . S
C4 C3 1.398 . S
C4 C8 1.407 . S
C5 C3 1.396 . S
C5 C6 1.394 . S
C6 H1 0.929 . S
C6 C5 1.394 . S
C6 C7 1.382 . S
C7 C6 1.382 . S
C7 C8 1.392 . S
C7 N9 1.420 . S
C8 H2 0.930 . S
C8 C4 1.407 . S
C8 C7 1.392 . S
N9 C7 1.420 . S
N9 C10 1.244 . S
C10 N9 1.244 . S
H11 C14 0.929 . S
H12 C17 0.929 . S
H13 C19 0.930 . S
C14 H11 0.929 . S
C14 C15 1.398 . S
C14 C16 1.396 . S
C15 C14 1.398 . S
C15 C19 1.407 . S
C16 C14 1.396 . S
C16 C17 1.394 . S
C17 H12 0.929 . S
C17 C16 1.394 . S
C17 C18 1.382 . S
C18 C17 1.382 . S
C18 C19 1.392 . S
C18 N20 1.420 . S
C19 H13 0.930 . S
C19 C15 1.407 . S
C19 C18 1.392 . S
N20 C18 1.420 . S
N20 C21 1.244 . S
C21 N20 1.244 . S
H22 C25 0.929 . S
H23 C28 0.929 . S
H24 C30 0.930 . S
C25 H22 0.929 . S
C25 C26 1.398 1_554 S
C25 C27 1.396 . S
C26 C25 1.398 1_556 S
C26 C30 1.407 . S
C27 C25 1.396 . S
C27 C28 1.394 . S
C28 H23 0.929 . S
C28 C27 1.394 . S
C28 C29 1.382 1_554 S
C29 C28 1.382 1_556 S
C29 C30 1.392 . S
C29 N31 1.420 . S
C30 H24 0.930 . S
C30 C26 1.407 . S
C30 C29 1.392 . S
N31 C29 1.420 . S
N31 C32 1.244 1_556 S
C32 N31 1.244 1_554 S
H33 C36 0.929 . S
H34 C39 0.929 . S
H35 C41 0.930 . S
C36 H33 0.929 . S
C36 C37 1.398 . S
C36 C38 1.396 . S
C37 C36 1.398 . S
C37 C41 1.407 . S
C38 C36 1.396 . S
C38 C39 1.394 . S
C39 H34 0.929 . S
C39 C38 1.394 . S
C39 C40 1.382 . S
C40 C39 1.382 . S
C40 C41 1.392 . S
C40 N42 1.420 . S
C41 H35 0.930 . S
C41 C37 1.407 . S
C41 C40 1.392 . S
N42 C40 1.420 . S
N42 C43 1.244 . S
C43 N42 1.244 . S
O44 Mn45 2.163 1_655 S
O44 C58 1.244 . S
Mn45 O44 2.163 1_455 S
Mn45 O48 2.160 1_545 S
Mn45 O49 2.221 . S
Mn45 O51 2.163 1_455 S
Mn45 O53 2.160 1_545 S
Mn45 O63 2.221 1_445 S
O46 Mn47 2.087 1_545 S
O46 C58 1.256 . S
Mn47 O46 2.087 1_565 S
Mn47 O54 2.089 1_655 S
Mn47 O63 2.290 . S
Mn47 O64 2.251 . S
O48 Mn45 2.160 1_565 S
O48 C59 1.239 . S
O49 Mn45 2.221 . S
O49 Mn50 2.290 . S
O49 C60 1.278 . S
Mn50 O49 2.290 . S
Mn50 O52 2.089 . S
Mn50 O55 2.251 . S
Mn50 O56 2.087 . S
O51 Mn45 2.163 1_655 S
O51 C61 1.244 . S
O52 Mn50 2.089 . S
O52 C59 1.256 1_545 S
O53 Mn45 2.160 1_565 S
O53 C62 1.239 . S
O54 Mn47 2.089 1_455 S
O54 C62 1.256 . S
O55 Mn50 2.251 . S
O55 C60 1.241 . S
O56 Mn50 2.087 . S
O56 C61 1.256 1_455 S
C57 O63 1.278 . S
C57 O64 1.241 . S
C58 O44 1.244 . S
C58 O46 1.256 . S
C59 O48 1.239 . S
C59 O52 1.256 1_565 S
C60 O49 1.278 . S
C60 O55 1.241 . S
C61 O51 1.244 . S
C61 O56 1.256 1_655 S
C62 O53 1.239 . S
C62 O54 1.256 . S
O63 Mn45 2.221 1_665 S
O63 Mn47 2.290 . S
O63 C57 1.278 . S
O64 Mn47 2.251 . S
O64 C57 1.241 . S
O65 Mn66 2.163 . S
O65 C79 1.244 . S
Mn66 O65 2.163 . S
Mn66 O69 2.160 1_554 S
Mn66 O70 2.221 . S
Mn66 O72 2.162 . S
Mn66 O74 2.160 . S
Mn66 O84 2.221 . S
O67 Mn68 2.087 . S
O67 C79 1.256 . S
Mn68 O67 2.087 . S
Mn68 O75 2.089 . S
Mn68 O84 2.290 . S
Mn68 O85 2.251 . S
O69 Mn66 2.160 1_556 S
O69 C80 1.239 . S
O70 Mn66 2.221 . S
O70 Mn71 2.290 1_554 S
O70 C81 1.278 . S
Mn71 O70 2.290 1_556 S
Mn71 O73 2.089 . S
Mn71 O76 2.251 1_556 S
Mn71 O77 2.087 . S
O72 Mn66 2.162 . S
O72 C82 1.245 1_554 S
O73 Mn71 2.089 . S
O73 C80 1.256 . S
O74 Mn66 2.160 . S
O74 C83 1.239 . S
O75 Mn68 2.089 . S
O75 C83 1.256 . S
O76 Mn71 2.251 1_554 S
O76 C81 1.241 . S
O77 Mn71 2.087 . S
O77 C82 1.256 . S
C78 O84 1.278 . S
C78 O85 1.241 . S
C79 O65 1.244 . S
C79 O67 1.256 . S
C80 O69 1.239 . S
C80 O73 1.256 . S
C81 O70 1.278 . S
C81 O76 1.241 . S
C82 O72 1.245 1_556 S
C82 O77 1.256 . S
C83 O74 1.239 . S
C83 O75 1.256 . S
O84 Mn66 2.221 . S
O84 Mn68 2.290 . S
O84 C78 1.278 . S
O85 Mn68 2.251 . S
O85 C78 1.241 . S
H86 C94 0.929 . S
H87 C96 0.930 . S
H88 C98 0.930 . S
H89 C101 0.929 . S
H90 C104 0.930 . S
H91 C106 0.960 . S
H92 C106 0.960 . S
H93 C106 0.960 . S
C94 H86 0.929 . S
C94 C95 1.377 . S
C94 C96 1.384 . S
C95 C94 1.377 . S
C95 C101 1.390 . S
C96 H87 0.930 . S
C96 C94 1.384 . S
C96 C97 1.372 . S
C97 C96 1.372 . S
C97 C98 1.400 . S
C97 C102 1.490 . S
C98 H88 0.930 . S
C98 C97 1.400 . S
C98 C101 1.386 . S
H99 C115 0.930 . S
H100 C116 0.931 . S
C101 H89 0.929 . S
C101 C95 1.390 . S
C101 C98 1.386 . S
C102 C97 1.490 . S
C102 C104 1.395 . S
C102 C105 1.403 . S
H103 C109 0.930 . S
C104 H90 0.930 . S
C104 C102 1.395 . S
C104 C107 1.403 . S
C105 C102 1.403 . S
C105 C106 1.524 . S
C105 C109 1.400 . S
C106 H91 0.960 . S
C106 H92 0.960 . S
C106 H93 0.960 . S
C106 C105 1.524 . S
C107 C104 1.403 . S
C107 C108 1.392 . S
C107 C111 1.495 . S
C108 C107 1.392 . S
C108 C109 1.385 . S
C108 C110 1.478 . S
C109 H103 0.930 . S
C109 C105 1.400 . S
C109 C108 1.385 . S
C110 C108 1.478 . S
C110 C112 1.381 . S
C110 C116 1.383 . S
C111 C107 1.495 . S
C111 H117 0.959 . S
C111 H118 0.961 . S
C111 H119 0.960 . S
C112 C110 1.381 . S
C112 C113 1.394 . S
C112 H120 0.930 . S
C113 C112 1.394 . S
C113 C114 1.383 . S
C113 H121 0.929 . S
C114 C113 1.383 . S
C114 C115 1.377 . S
C115 H99 0.930 . S
C115 C114 1.377 . S
C115 C116 1.379 . S
C116 H100 0.931 . S
C116 C110 1.383 . S
C116 C115 1.379 . S
H117 C111 0.959 . S
H118 C111 0.961 . S
H119 C111 0.960 . S
H120 C112 0.930 . S
H121 C113 0.929 . S
H122 C130 0.929 . S
H123 C132 0.930 . S
H124 C134 0.930 . S
H125 C137 0.929 . S
H126 C140 0.930 . S
H127 C142 0.960 . S
H128 C142 0.960 . S
H129 C142 0.960 . S
C130 H122 0.929 . S
C130 C131 1.377 . S
C130 C132 1.384 . S
C131 C130 1.377 . S
C131 C137 1.390 . S
C132 H123 0.930 . S
C132 C130 1.384 . S
C132 C133 1.372 . S
C133 C132 1.372 . S
C133 C134 1.400 . S
C133 C138 1.490 . S
C134 H124 0.930 . S
C134 C133 1.400 . S
C134 C137 1.386 . S
H135 C151 0.930 . S
H136 C152 0.931 . S
C137 H125 0.929 . S
C137 C131 1.390 . S
C137 C134 1.386 . S
C138 C133 1.490 . S
C138 C140 1.395 . S
C138 C141 1.403 . S
H139 C145 0.930 . S
C140 H126 0.930 . S
C140 C138 1.395 . S
C140 C143 1.403 . S
C141 C138 1.403 . S
C141 C142 1.524 . S
C141 C145 1.400 . S
C142 H127 0.960 . S
C142 H128 0.960 . S
C142 H129 0.960 . S
C142 C141 1.524 . S
C143 C140 1.403 . S
C143 C144 1.392 . S
C143 C147 1.495 . S
C144 C143 1.392 . S
C144 C145 1.385 . S
C144 C146 1.478 . S
C145 H139 0.930 . S
C145 C141 1.400 . S
C145 C144 1.385 . S
C146 C144 1.478 . S
C146 C148 1.381 . S
C146 C152 1.383 . S
C147 C143 1.495 . S
C147 H153 0.959 . S
C147 H154 0.961 . S
C147 H155 0.960 . S
C148 C146 1.381 . S
C148 C149 1.394 . S
C148 H156 0.930 1_554 S
C149 C148 1.394 . S
C149 C150 1.383 . S
C149 H157 0.929 1_554 S
C150 C149 1.383 . S
C150 C151 1.377 . S
C151 H135 0.930 . S
C151 C150 1.377 . S
C151 C152 1.379 . S
C152 H136 0.931 . S
C152 C146 1.383 . S
C152 C151 1.379 . S
H153 C147 0.959 . S
H154 C147 0.961 . S
H155 C147 0.960 . S
H156 C148 0.930 1_556 S
H157 C149 0.929 1_556 S
H158 C166 0.929 . S
H159 C168 0.930 . S
H160 C170 0.930 . S
H161 C173 0.929 . S
H162 C176 0.930 . S
H163 C178 0.960 . S
H164 C178 0.960 . S
H165 C178 0.960 . S
C166 H158 0.929 . S
C166 C167 1.377 . S
C166 C168 1.384 . S
C167 C166 1.377 . S
C167 C173 1.390 . S
C168 H159 0.930 . S
C168 C166 1.384 . S
C168 C169 1.372 . S
C169 C168 1.372 . S
C169 C170 1.400 . S
C169 C174 1.490 . S
C170 H160 0.930 . S
C170 C169 1.400 . S
C170 C173 1.386 . S
H171 C187 0.930 . S
H172 C188 0.931 . S
C173 H161 0.929 . S
C173 C167 1.390 . S
C173 C170 1.386 . S
C174 C169 1.490 . S
C174 C176 1.395 . S
C174 C177 1.403 . S
H175 C181 0.930 . S
C176 H162 0.930 . S
C176 C174 1.395 . S
C176 C179 1.403 . S
C177 C174 1.403 . S
C177 C178 1.524 . S
C177 C181 1.400 . S
C178 H163 0.960 . S
C178 H164 0.960 . S
C178 H165 0.960 . S
C178 C177 1.524 . S
C179 C176 1.403 . S
C179 C180 1.392 . S
C179 C183 1.495 . S
C180 C179 1.392 . S
C180 C181 1.385 . S
C180 C182 1.478 . S
C181 H175 0.930 . S
C181 C177 1.400 . S
C181 C180 1.385 . S
C182 C180 1.478 . S
C182 C184 1.381 . S
C182 C188 1.383 . S
C183 C179 1.495 . S
C183 H189 0.959 . S
C183 H190 0.961 . S
C183 H191 0.960 . S
C184 C182 1.381 . S
C184 C185 1.394 . S
C184 H192 0.930 . S
C185 C184 1.394 . S
C185 C186 1.383 . S
C185 H193 0.929 . S
C186 C185 1.383 . S
C186 C187 1.377 . S
C187 H171 0.930 . S
C187 C186 1.377 . S
C187 C188 1.379 . S
C188 H172 0.931 . S
C188 C182 1.383 . S
C188 C187 1.379 . S
H189 C183 0.959 . S
H190 C183 0.961 . S
H191 C183 0.960 . S
H192 C184 0.930 . S
H193 C185 0.929 . S
H194 C202 0.929 . S
H195 C204 0.930 . S
H196 C206 0.930 . S
H197 C209 0.929 1_556 S
H198 C212 0.930 . S
H199 C214 0.960 . S
H200 C214 0.960 . S
H201 C214 0.960 . S
C202 H194 0.929 . S
C202 C203 1.377 . S
C202 C204 1.384 . S
C203 C202 1.377 . S
C203 C209 1.390 . S
C204 H195 0.930 . S
C204 C202 1.384 . S
C204 C205 1.372 . S
C205 C204 1.372 . S
C205 C206 1.400 . S
C205 C210 1.490 . S
C206 H196 0.930 . S
C206 C205 1.400 . S
C206 C209 1.386 . S
H207 C223 0.930 . S
H208 C224 0.931 . S
C209 H197 0.929 1_554 S
C209 C203 1.390 . S
C209 C206 1.386 . S
C210 C205 1.490 . S
C210 C212 1.395 . S
C210 C213 1.403 1_554 S
H211 C217 0.930 . S
C212 H198 0.930 . S
C212 C210 1.395 . S
C212 C215 1.403 . S
C213 C210 1.403 1_556 S
C213 C214 1.524 . S
C213 C217 1.400 . S
C214 H199 0.960 . S
C214 H200 0.960 . S
C214 H201 0.960 . S
C214 C213 1.524 . S
C215 C212 1.403 . S
C215 C216 1.392 . S
C215 C219 1.495 . S
C216 C215 1.392 . S
C216 C217 1.385 1_554 S
C216 C218 1.478 . S
C217 H211 0.930 . S
C217 C213 1.400 . S
C217 C216 1.385 1_556 S
C218 C216 1.478 . S
C218 C220 1.381 . S
C218 C224 1.383 . S
C219 C215 1.495 . S
C219 H225 0.959 . S
C219 H226 0.961 . S
C219 H227 0.960 . S
C220 C218 1.381 . S
C220 C221 1.394 . S
C220 H228 0.930 . S
C221 C220 1.394 . S
C221 C222 1.383 . S
C221 H229 0.929 . S
C222 C221 1.383 . S
C222 C223 1.377 . S
C223 H207 0.930 . S
C223 C222 1.377 . S
C223 C224 1.379 . S
C224 H208 0.931 . S
C224 C218 1.383 . S
C224 C223 1.379 . S
H225 C219 0.959 . S
H226 C219 0.961 . S
H227 C219 0.960 . S
H228 C220 0.930 . S
H229 C221 0.929 . S
H230 C238 0.929 . S
H231 C240 0.930 . S
H232 C242 0.930 . S
H233 C245 0.929 . S
H234 C248 0.930 . S
H235 C250 0.960 . S
H236 C250 0.960 . S
H237 C250 0.960 . S
C238 H230 0.929 . S
C238 C239 1.377 . S
C238 C240 1.384 . S
C239 C238 1.377 . S
C239 C245 1.390 . S
C240 H231 0.930 . S
C240 C238 1.384 . S
C240 C241 1.372 . S
C241 C240 1.372 . S
C241 C242 1.400 . S
C241 C246 1.490 . S
C242 H232 0.930 . S
C242 C241 1.400 . S
C242 C245 1.386 . S
H243 C259 0.930 . S
H244 C260 0.931 . S
C245 H233 0.929 . S
C245 C239 1.390 . S
C245 C242 1.386 . S
C246 C241 1.490 . S
C246 C248 1.395 . S
C246 C249 1.403 . S
H247 C253 0.930 . S
C248 H234 0.930 . S
C248 C246 1.395 . S
C248 C251 1.403 . S
C249 C246 1.403 . S
C249 C250 1.524 . S
C249 C253 1.400 . S
C250 H235 0.960 . S
C250 H236 0.960 . S
C250 H237 0.960 . S
C250 C249 1.524 . S
C251 C248 1.403 . S
C251 C252 1.392 . S
C251 C255 1.495 . S
C252 C251 1.392 . S
C252 C253 1.385 . S
C252 C254 1.478 . S
C253 H247 0.930 . S
C253 C249 1.400 . S
C253 C252 1.385 . S
C254 C252 1.478 . S
C254 C256 1.381 . S
C254 C260 1.383 . S
C255 C251 1.495 . S
C255 H261 0.959 . S
C255 H262 0.961 . S
C255 H263 0.960 . S
C256 C254 1.381 . S
C256 C257 1.394 . S
C256 H264 0.930 . S
C257 C256 1.394 . S
C257 C258 1.383 . S
C257 H265 0.929 . S
C258 C257 1.383 . S
C258 C259 1.377 . S
C259 H243 0.930 . S
C259 C258 1.377 . S
C259 C260 1.379 . S
C260 H244 0.931 . S
C260 C254 1.383 . S
C260 C259 1.379 . S
H261 C255 0.959 . S
H262 C255 0.961 . S
H263 C255 0.960 . S
H264 C256 0.930 . S
H265 C257 0.929 . S
H266 C274 0.929 . S
H267 C276 0.930 . S
H268 C278 0.930 . S
H269 C281 0.929 . S
H270 C284 0.930 . S
H271 C286 0.960 . S
H272 C286 0.960 . S
H273 C286 0.960 . S
C274 H266 0.929 . S
C274 C275 1.377 . S
C274 C276 1.384 . S
C275 C274 1.377 . S
C275 C281 1.390 . S
C276 H267 0.930 . S
C276 C274 1.384 . S
C276 C277 1.372 . S
C277 C276 1.372 . S
C277 C278 1.400 . S
C277 C282 1.490 . S
C278 H268 0.930 . S
C278 C277 1.400 . S
C278 C281 1.386 . S
H279 C295 0.930 . S
H280 C296 0.931 . S
C281 H269 0.929 . S
C281 C275 1.390 . S
C281 C278 1.386 . S
C282 C277 1.490 . S
C282 C284 1.395 . S
C282 C285 1.403 . S
H283 C289 0.930 . S
C284 H270 0.930 . S
C284 C282 1.395 . S
C284 C287 1.403 . S
C285 C282 1.403 . S
C285 C286 1.524 . S
C285 C289 1.400 . S
C286 H271 0.960 . S
C286 H272 0.960 . S
C286 H273 0.960 . S
C286 C285 1.524 . S
C287 C284 1.403 . S
C287 C288 1.392 . S
C287 C291 1.495 . S
C288 C287 1.392 . S
C288 C289 1.385 . S
C288 C290 1.478 . S
C289 H283 0.930 . S
C289 C285 1.400 . S
C289 C288 1.385 . S
C290 C288 1.478 . S
C290 C292 1.381 . S
C290 C296 1.383 . S
C291 C287 1.495 . S
C291 H297 0.959 . S
C291 H298 0.961 . S
C291 H299 0.960 . S
C292 C290 1.381 . S
C292 C293 1.394 . S
C292 H300 0.930 . S
C293 C292 1.394 . S
C293 C294 1.383 . S
C293 H301 0.929 . S
C294 C293 1.383 . S
C294 C295 1.377 . S
C295 H279 0.930 . S
C295 C294 1.377 . S
C295 C296 1.379 . S
C296 H280 0.931 . S
C296 C290 1.383 . S
C296 C295 1.379 . S
H297 C291 0.959 . S
H298 C291 0.961 . S
H299 C291 0.960 . S
H300 C292 0.930 . S
H301 C293 0.929 . S
H302 C310 0.929 . S
H303 C312 0.930 . S
H304 C314 0.930 . S
H305 C317 0.929 . S
H306 C320 0.930 . S
H307 C322 0.960 . S
H308 C322 0.960 . S
H309 C322 0.960 . S
C310 H302 0.929 . S
C310 C311 1.377 . S
C310 C312 1.384 . S
C311 C310 1.377 . S
C311 C317 1.390 . S
C312 H303 0.930 . S
C312 C310 1.384 . S
C312 C313 1.372 . S
C313 C312 1.372 . S
C313 C314 1.400 . S
C313 C318 1.490 . S
C314 H304 0.930 . S
C314 C313 1.400 . S
C314 C317 1.386 . S
H315 C331 0.930 . S
H316 C332 0.931 . S
C317 H305 0.929 . S
C317 C311 1.390 . S
C317 C314 1.386 . S
C318 C313 1.490 . S
C318 C320 1.395 . S
C318 C321 1.403 . S
H319 C325 0.930 . S
C320 H306 0.930 . S
C320 C318 1.395 . S
C320 C323 1.403 . S
C321 C318 1.403 . S
C321 C322 1.524 . S
C321 C325 1.400 . S
C322 H307 0.960 . S
C322 H308 0.960 . S
C322 H309 0.960 . S
C322 C321 1.524 . S
C323 C320 1.403 . S
C323 C324 1.392 . S
C323 C327 1.495 . S
C324 C323 1.392 . S
C324 C325 1.385 . S
C324 C326 1.478 . S
C325 H319 0.930 . S
C325 C321 1.400 . S
C325 C324 1.385 . S
C326 C324 1.478 . S
C326 C328 1.381 . S
C326 C332 1.383 . S
C327 C323 1.495 . S
C327 H333 0.959 . S
C327 H334 0.961 . S
C327 H335 0.960 . S
C328 C326 1.381 . S
C328 C329 1.394 . S
C328 H336 0.930 . S
C329 C328 1.394 . S
C329 C330 1.383 . S
C329 H337 0.929 . S
C330 C329 1.383 . S
C330 C331 1.377 . S
C331 H315 0.930 . S
C331 C330 1.377 . S
C331 C332 1.379 . S
C332 H316 0.931 . S
C332 C326 1.383 . S
C332 C331 1.379 . S
H333 C327 0.959 . S
H334 C327 0.961 . S
H335 C327 0.960 . S
H336 C328 0.930 . S
H337 C329 0.929 . S
H338 C346 0.929 . S
H339 C348 0.930 . S
H340 C350 0.930 . S
H341 C353 0.929 . S
H342 C356 0.930 . S
H343 C358 0.960 . S
H344 C358 0.960 . S
H345 C358 0.960 . S
C346 H338 0.929 . S
C346 C347 1.377 . S
C346 C348 1.384 . S
C347 C346 1.377 . S
C347 C353 1.390 . S
C348 H339 0.930 . S
C348 C346 1.384 . S
C348 C349 1.372 . S
C349 C348 1.372 . S
C349 C350 1.400 . S
C349 C354 1.490 . S
C350 H340 0.930 . S
C350 C349 1.400 . S
C350 C353 1.386 . S
H351 C367 0.930 . S
H352 C368 0.931 . S
C353 H341 0.929 . S
C353 C347 1.390 . S
C353 C350 1.386 . S
C354 C349 1.490 . S
C354 C356 1.395 . S
C354 C357 1.403 . S
H355 C361 0.930 . S
C356 H342 0.930 . S
C356 C354 1.395 . S
C356 C359 1.403 . S
C357 C354 1.403 . S
C357 C358 1.524 . S
C357 C361 1.400 . S
C358 H343 0.960 . S
C358 H344 0.960 . S
C358 H345 0.960 . S
C358 C357 1.524 . S
C359 C356 1.403 . S
C359 C360 1.392 . S
C359 C363 1.495 . S
C360 C359 1.392 . S
C360 C361 1.385 . S
C360 C362 1.478 . S
C361 H355 0.930 . S
C361 C357 1.400 . S
C361 C360 1.385 . S
C362 C360 1.478 . S
C362 C364 1.381 . S
C362 C368 1.383 . S
C363 C359 1.495 . S
C363 H369 0.959 . S
C363 H370 0.961 . S
C363 H371 0.960 . S
C364 C362 1.381 . S
C364 C365 1.394 . S
C364 H372 0.930 . S
C365 C364 1.394 . S
C365 C366 1.383 . S
C365 H373 0.929 . S
C366 C365 1.383 . S
C366 C367 1.377 . S
C367 H351 0.930 . S
C367 C366 1.377 . S
C367 C368 1.379 . S
C368 H352 0.931 . S
C368 C362 1.383 . S
C368 C367 1.379 . S
H369 C363 0.959 . S
H370 C363 0.961 . S
H371 C363 0.960 . S
H372 C364 0.930 . S
H373 C365 0.929 . S
H374 C382 0.929 . S
H375 C384 0.930 . S
H376 C386 0.930 . S
H377 C389 0.929 . S
H378 C392 0.930 . S
H379 C394 0.960 . S
H380 C394 0.960 . S
H381 C394 0.960 . S
C382 H374 0.929 . S
C382 C383 1.377 . S
C382 C384 1.384 . S
C383 C382 1.377 . S
C383 C389 1.390 . S
C384 H375 0.930 . S
C384 C382 1.384 . S
C384 C385 1.372 . S
C385 C384 1.372 . S
C385 C386 1.400 . S
C385 C390 1.490 . S
C386 H376 0.930 . S
C386 C385 1.400 . S
C386 C389 1.386 . S
H387 C403 0.930 . S
H388 C404 0.931 . S
C389 H377 0.929 . S
C389 C383 1.390 . S
C389 C386 1.386 . S
C390 C385 1.490 . S
C390 C392 1.395 . S
C390 C393 1.403 . S
H391 C397 0.930 . S
C392 H378 0.930 . S
C392 C390 1.395 . S
C392 C395 1.403 . S
C393 C390 1.403 . S
C393 C394 1.524 . S
C393 C397 1.400 . S
C394 H379 0.960 . S
C394 H380 0.960 . S
C394 H381 0.960 . S
C394 C393 1.524 . S
C395 C392 1.403 . S
C395 C396 1.392 . S
C395 C399 1.495 . S
C396 C395 1.392 . S
C396 C397 1.385 . S
C396 C398 1.478 . S
C397 H391 0.930 . S
C397 C393 1.400 . S
C397 C396 1.385 . S
C398 C396 1.478 . S
C398 C400 1.381 . S
C398 C404 1.383 . S
C399 C395 1.495 . S
C399 H405 0.959 . S
C399 H406 0.961 . S
C399 H407 0.960 . S
C400 C398 1.381 . S
C400 C401 1.394 . S
C400 H408 0.930 . S
C401 C400 1.394 . S
C401 C402 1.383 . S
C401 H409 0.929 . S
C402 C401 1.383 . S
C402 C403 1.377 . S
C403 H387 0.930 . S
C403 C402 1.377 . S
C403 C404 1.379 . S
C404 H388 0.931 . S
C404 C398 1.383 . S
C404 C403 1.379 . S
H405 C399 0.959 . S
H406 C399 0.961 . S
H407 C399 0.960 . S
H408 C400 0.930 . S
H409 C401 0.929 . S
H410 C418 0.929 . S
H411 C420 0.930 . S
H412 C422 0.930 . S
H413 C425 0.929 . S
H414 C428 0.930 . S
H415 C430 0.960 . S
H416 C430 0.960 . S
H417 C430 0.960 . S
C418 H410 0.929 . S
C418 C419 1.377 . S
C418 C420 1.384 . S
C419 C418 1.377 . S
C419 C425 1.390 . S
C420 H411 0.930 . S
C420 C418 1.384 . S
C420 C421 1.372 . S
C421 C420 1.372 . S
C421 C422 1.400 . S
C421 C426 1.490 . S
C422 H412 0.930 . S
C422 C421 1.400 . S
C422 C425 1.386 . S
H423 C439 0.968 . S
H424 C440 0.931 . S
C425 H413 0.929 . S
C425 C419 1.390 . S
C425 C422 1.386 . S
C426 C421 1.490 . S
C426 C428 1.395 . S
C426 C429 1.403 . S
H427 C433 0.930 . S
C428 H414 0.930 . S
C428 C426 1.395 . S
C428 C431 1.403 . S
C429 C426 1.403 . S
C429 C430 1.524 . S
C429 C433 1.400 . S
C430 H415 0.960 . S
C430 H416 0.960 . S
C430 H417 0.960 . S
C430 C429 1.524 . S
C431 C428 1.403 . S
C431 C432 1.392 . S
C431 C435 1.495 . S
C432 C431 1.392 . S
C432 C433 1.385 . S
C432 C434 1.478 . S
C433 H427 0.930 . S
C433 C429 1.400 . S
C433 C432 1.385 . S
C434 C432 1.478 . S
C434 C436 1.381 . S
C434 C440 1.383 . S
C435 C431 1.495 . S
C435 H441 0.959 . S
C435 H442 0.961 . S
C435 H443 0.960 . S
C436 C434 1.381 . S
C436 C437 1.394 . S
C436 H444 0.930 . S
C437 C436 1.394 . S
C437 C438 1.383 . S
C437 H445 0.929 . S
C438 C437 1.383 . S
C438 C439 1.377 . S
C439 H423 0.968 . S
C439 C438 1.377 . S
C439 C440 1.379 . S
C440 H424 0.931 . S
C440 C434 1.383 . S
C440 C439 1.379 . S
H441 C435 0.959 . S
H442 C435 0.961 . S
H443 C435 0.960 . S
H444 C436 0.930 . S
H445 C437 0.929 . S
H446 C454 0.929 . S
H447 C456 0.930 . S
H448 C458 0.930 . S
H449 C461 0.929 . S
H450 C464 0.930 . S
H451 C466 0.960 . S
H452 C466 0.960 . S
H453 C466 0.960 . S
C454 H446 0.929 . S
C454 C455 1.377 . S
C454 C456 1.384 . S
C455 C454 1.377 . S
C455 C461 1.390 . S
C456 H447 0.930 . S
C456 C454 1.384 . S
C456 C457 1.372 . S
C457 C456 1.372 . S
C457 C458 1.400 . S
C457 C462 1.490 . S
C458 H448 0.930 . S
C458 C457 1.400 . S
C458 C461 1.386 . S
H459 C475 0.930 . S
H460 C476 0.931 . S
C461 H449 0.929 . S
C461 C455 1.390 . S
C461 C458 1.386 . S
C462 C457 1.490 . S
C462 C464 1.395 . S
C462 C465 1.403 . S
H463 C469 0.930 . S
C464 H450 0.930 . S
C464 C462 1.395 . S
C464 C467 1.403 . S
C465 C462 1.403 . S
C465 C466 1.524 . S
C465 C469 1.400 . S
C466 H451 0.960 . S
C466 H452 0.960 . S
C466 H453 0.960 . S
C466 C465 1.524 . S
C467 C464 1.403 . S
C467 C468 1.392 . S
C467 C471 1.495 . S
C468 C467 1.392 . S
C468 C469 1.385 . S
C468 C470 1.478 . S
C469 H463 0.930 . S
C469 C465 1.400 . S
C469 C468 1.385 . S
C470 C468 1.478 . S
C470 C472 1.381 . S
C470 C476 1.383 . S
C471 C467 1.495 . S
C471 H477 0.959 . S
C471 H478 0.961 . S
C471 H479 0.960 . S
C472 C470 1.381 . S
C472 C473 1.394 . S
C472 H480 0.930 . S
C473 C472 1.394 . S
C473 C474 1.383 . S
C473 H481 0.929 . S
C474 C473 1.383 . S
C474 C475 1.377 . S
C475 H459 0.930 . S
C475 C474 1.377 . S
C475 C476 1.379 . S
C476 H460 0.931 . S
C476 C470 1.383 . S
C476 C475 1.379 . S
H477 C471 0.959 . S
H478 C471 0.961 . S
H479 C471 0.960 . S
H480 C472 0.930 . S
H481 C473 0.929 . S
H482 C490 0.929 . S
H483 C492 0.930 . S
H484 C494 0.930 . S
H485 C497 0.929 1_554 S
H486 C500 0.930 . S
H487 C502 0.960 . S
H488 C502 0.960 . S
H489 C502 0.960 . S
C490 H482 0.929 . S
C490 C491 1.377 . S
C490 C492 1.384 . S
C491 C490 1.377 . S
C491 C497 1.390 . S
C492 H483 0.930 . S
C492 C490 1.384 . S
C492 C493 1.372 . S
C493 C492 1.372 . S
C493 C494 1.400 . S
C493 C498 1.490 . S
C494 H484 0.930 . S
C494 C493 1.400 . S
C494 C497 1.386 . S
H495 C511 0.930 . S
H496 C512 0.931 . S
C497 H485 0.929 1_556 S
C497 C491 1.390 . S
C497 C494 1.386 . S
C498 C493 1.490 . S
C498 C500 1.395 . S
C498 C501 1.403 . S
H499 C505 0.930 . S
C500 H486 0.930 . S
C500 C498 1.395 . S
C500 C503 1.403 . S
C501 C498 1.403 . S
C501 C502 1.524 . S
C501 C505 1.400 . S
C502 H487 0.960 . S
C502 H488 0.960 . S
C502 H489 0.960 . S
C502 C501 1.524 . S
C503 C500 1.403 . S
C503 C504 1.392 . S
C503 C507 1.495 . S
C504 C503 1.392 . S
C504 C505 1.385 . S
C504 C506 1.478 . S
C505 H499 0.930 . S
C505 C501 1.400 . S
C505 C504 1.385 . S
C506 C504 1.478 . S
C506 C508 1.381 . S
C506 C512 1.383 . S
C507 C503 1.495 . S
C507 H513 0.959 . S
C507 H514 0.961 . S
C507 H515 0.960 . S
C508 C506 1.381 . S
C508 C509 1.394 . S
C508 H516 0.930 . S
C509 C508 1.394 . S
C509 C510 1.383 . S
C509 H517 0.929 . S
C510 C509 1.383 . S
C510 C511 1.377 . S
C511 H495 0.930 . S
C511 C510 1.377 . S
C511 C512 1.379 . S
C512 H496 0.931 . S
C512 C506 1.383 . S
C512 C511 1.379 . S
H513 C507 0.959 . S
H514 C507 0.961 . S
H515 C507 0.960 . S
H516 C508 0.930 . S
H517 C509 0.929 . S
C114 C60 1.233 . S
C95 C43 1.418 . S
C131 C10 1.449 . S
C150 C81 1.240 . S
C167 C21 1.632 . S
C186 C57 1.429 . S
C203 C32 1.629 . S
C222 C78 1.368 . S
C258 C62 1.482 . S
C239 C5 1.518 . S
C294 C82 1.548 . S
C275 C15 1.618 . S
C311 C27 1.594 . S
C330 C58 1.537 . S
C347 C38 1.525 . S
C366 C80 1.470 . S
C402 C79 1.464 . S
C383 C16 1.513 . S
C438 C61 1.472 . S
C419 C26 1.532 . S
C474 C83 1.430 . S
C455 C37 1.455 . S
C491 C4 1.460 1_556 S
C510 C59 1.429 . S
