# Generated by pormake.
# Topology hwx, (6,3)-cn, num edge types: 1
# Building blocks:
#     Node 0, Type 0, BuildingBlock: OJICUG_clean_sbu_0, # of connection points: 6
#     Node 1, Type 0, BuildingBlock: OJICUG_clean_sbu_0, # of connection points: 6
#     Node 2, Type 0, BuildingBlock: OJICUG_clean_sbu_0, # of connection points: 6
#     Node 3, Type 0, BuildingBlock: OJICUG_clean_sbu_0, # of connection points: 6
#     Node 4, Type 1, BuildingBlock: BETDAH_clean_linker_0, # of connection points: 3
#     Node 5, Type 1, BuildingBlock: BETDAH_clean_linker_0, # of connection points: 3
#     Node 6, Type 1, BuildingBlock: BETDAH_clean_linker_0, # of connection points: 3
#     Node 7, Type 1, BuildingBlock: BETDAH_clean_linker_0, # of connection points: 3
#     Node 8, Type 1, BuildingBlock: BETDAH_clean_linker_0, # of connection points: 3
#     Node 9, Type 1, BuildingBlock: BETDAH_clean_linker_0, # of connection points: 3
#     Node 10, Type 1, BuildingBlock: BETDAH_clean_linker_0, # of connection points: 3
#     Node 11, Type 1, BuildingBlock: BETDAH_clean_linker_0, # of connection points: 3
#     Edge 12, Type (0, 1), BuildingBlock: OJICUG_clean_linker_0, # of connection points: 2
#     Edge 13, Type (0, 1), BuildingBlock: OJICUG_clean_linker_0, # of connection points: 2
#     Edge 14, Type (0, 1), BuildingBlock: OJICUG_clean_linker_0, # of connection points: 2
#     Edge 15, Type (0, 1), BuildingBlock: OJICUG_clean_linker_0, # of connection points: 2
#     Edge 16, Type (0, 1), BuildingBlock: OJICUG_clean_linker_0, # of connection points: 2
#     Edge 17, Type (0, 1), BuildingBlock: OJICUG_clean_linker_0, # of connection points: 2
#     Edge 18, Type (0, 1), BuildingBlock: OJICUG_clean_linker_0, # of connection points: 2
#     Edge 19, Type (0, 1), BuildingBlock: OJICUG_clean_linker_0, # of connection points: 2
#     Edge 20, Type (0, 1), BuildingBlock: OJICUG_clean_linker_0, # of connection points: 2
#     Edge 21, Type (0, 1), BuildingBlock: OJICUG_clean_linker_0, # of connection points: 2
#     Edge 22, Type (0, 1), BuildingBlock: OJICUG_clean_linker_0, # of connection points: 2
#     Edge 23, Type (0, 1), BuildingBlock: OJICUG_clean_linker_0, # of connection points: 2
#     Edge 24, Type (0, 1), BuildingBlock: OJICUG_clean_linker_0, # of connection points: 2
#     Edge 25, Type (0, 1), BuildingBlock: OJICUG_clean_linker_0, # of connection points: 2
#     Edge 26, Type (0, 1), BuildingBlock: OJICUG_clean_linker_0, # of connection points: 2
#     Edge 27, Type (0, 1), BuildingBlock: OJICUG_clean_linker_0, # of connection points: 2
#     Edge 28, Type (0, 1), BuildingBlock: OJICUG_clean_linker_0, # of connection points: 2
#     Edge 29, Type (0, 1), BuildingBlock: OJICUG_clean_linker_0, # of connection points: 2
#     Edge 30, Type (0, 1), BuildingBlock: OJICUG_clean_linker_0, # of connection points: 2
#     Edge 31, Type (0, 1), BuildingBlock: OJICUG_clean_linker_0, # of connection points: 2
#     Edge 32, Type (0, 1), BuildingBlock: OJICUG_clean_linker_0, # of connection points: 2
#     Edge 33, Type (0, 1), BuildingBlock: OJICUG_clean_linker_0, # of connection points: 2
#     Edge 34, Type (0, 1), BuildingBlock: OJICUG_clean_linker_0, # of connection points: 2
#     Edge 35, Type (0, 1), BuildingBlock: OJICUG_clean_linker_0, # of connection points: 2
# Relax obj value: 0.008
# Max RMSD: 0.039
# Mean RMSD: 0.038
data_MOF--net-hwx--node1-OJICUG_clean_sbu_0--node2-BETDAH_clean_linker_0--edge1-OJICUG_clean_linker_0
_symmetry_space_group_name_H-M    P1
_symmetry_Int_Tables_number       1
_symmetry_cell_setting            triclinic
loop_
_symmetry_equiv_pos_as_xyz
'x, y, z'
_cell_length_a     38.745152
_cell_length_b     38.787769
_cell_length_c     15.248111
_cell_angle_alpha  92.451886
_cell_angle_beta   92.515934
_cell_angle_gamma 89.964104
loop_
_atom_site_label
_atom_site_type_symbol
_atom_site_fract_x
_atom_site_fract_y
_atom_site_fract_z
_atom_type_partial_charge
Sc0 Sc 0.22781 0.23456 0.09846 0.0
Sc1 Sc 0.17404 0.17452 0.9755 0.0
Sc2 Sc 0.22849 0.23047 0.86851 0.0
O3 O 0.21008 0.21315 0.98094 0.0
C4 C 0.22011 0.30087 -0.01741 0.0
C5 C 0.14737 0.22433 0.12931 0.0
C6 C 0.14818 0.22009 0.81695 0.0
C7 C 0.22389 0.15443 0.13749 0.0
C8 C 0.29697 0.23161 -0.00766 0.0
C9 C 0.22468 0.14894 0.82706 0.0
O10 O 0.22119 0.28663 0.05625 0.0
O11 O 0.14228 0.20073 0.06977 0.0
O12 O 0.17751 0.23385 0.80813 0.0
O13 O 0.23614 0.18464 0.15274 0.0
O14 O 0.2813 0.22959 0.91736 0.0
O15 O 0.20162 0.14336 0.88147 0.0
O16 O 0.2812 0.23399 0.06369 0.0
O17 O 0.20106 0.14728 0.07708 0.0
O18 O 0.23641 0.17891 0.81508 0.0
O19 O 0.17663 0.23834 0.14682 0.0
O20 O 0.22288 0.2839 0.91003 0.0
O21 O 0.14284 0.19756 0.87294 0.0
Sc22 Sc 0.28088 0.7243 0.38912 0.0
Sc23 Sc 0.33534 0.66709 0.50557 0.0
Sc24 Sc 0.28353 0.72793 0.61889 0.0
O25 O 0.29996 0.70642 0.50451 0.0
C26 C 0.28842 0.79462 0.50469 0.0
C27 C 0.36107 0.71313 0.35331 0.0
C28 C 0.36387 0.71706 0.66475 0.0
C29 C 0.28402 0.64306 0.34516 0.0
C30 C 0.2132 0.72538 0.50139 0.0
C31 C 0.28657 0.64734 0.65815 0.0
O32 O 0.28734 0.77764 0.43145 0.0
O33 O 0.36678 0.69104 0.41152 0.0
O34 O 0.33549 0.733 0.67393 0.0
O35 O 0.27161 0.67298 0.33406 0.0
O36 O 0.22986 0.72561 0.57521 0.0
O37 O 0.30755 0.63886 0.59914 0.0
O38 O 0.22806 0.725 0.42862 0.0
O39 O 0.30786 0.63708 0.4024 0.0
O40 O 0.27687 0.67827 0.67312 0.0
O41 O 0.3316 0.72654 0.33786 0.0
O42 O 0.28724 0.78025 0.57783 0.0
O43 O 0.36741 0.69198 0.60935 0.0
Sc44 Sc 0.77045 0.77783 0.88661 0.0
Sc45 Sc 0.83473 0.82758 0.00591 0.0
Sc46 Sc 0.77969 0.77323 0.11565 0.0
O47 O 0.79498 0.79289 0.0026 0.0
C48 C 0.70697 0.78366 0.01303 0.0
C49 C 0.78249 0.85777 0.86019 0.0
C50 C 0.79226 0.85306 0.17019 0.0
C51 C 0.84984 0.78053 0.83692 0.0
C52 C 0.77542 0.70682 -0.01566 0.0
C53 C 0.86174 0.77504 0.14871 0.0
O54 O 0.71961 0.78256 0.93749 0.0
O55 O 0.80887 0.86024 0.91265 0.0
O56 O 0.77927 0.82351 0.18082 0.0
O57 O 0.81841 0.77194 0.82136 0.0
O58 O 0.77799 0.72135 0.06066 0.0
O59 O 0.86635 0.79947 0.09771 0.0
O60 O 0.77264 0.72363 0.91451 0.0
O61 O 0.86019 0.79946 0.90288 0.0
O62 O 0.83203 0.76271 0.16109 0.0
O63 O 0.76518 0.8301 0.84674 0.0
O64 O 0.7255 0.78095 0.08332 0.0
O65 O 0.81299 0.85899 0.11016 0.0
Sc66 Sc 0.73988 0.27022 0.60562 0.0
Sc67 Sc 0.68122 0.32319 0.49012 0.0
Sc68 Sc 0.73408 0.26457 0.37463 0.0
O69 O 0.71837 0.28599 0.49013 0.0
C70 C 0.80543 0.27321 0.48658 0.0
C71 C 0.73388 0.35189 0.64189 0.0
C72 C 0.72562 0.34385 0.32965 0.0
C73 C 0.66057 0.27854 0.65029 0.0
C74 C 0.73188 0.19891 0.4936 0.0
C75 C 0.65233 0.2705 0.33864 0.0
O76 O 0.79163 0.27356 0.5607 0.0
O77 O 0.70996 0.35613 0.58374 0.0
O78 O 0.73861 0.31405 0.31679 0.0
O79 O 0.69034 0.26536 0.66303 0.0
O80 O 0.73126 0.2128 0.41955 0.0
O81 O 0.64821 0.29453 0.39644 0.0
O82 O 0.73536 0.21631 0.56604 0.0
O83 O 0.65385 0.30012 0.5917 0.0
O84 O 0.68172 0.25755 0.32291 0.0
O85 O 0.74667 0.32246 0.65781 0.0
O86 O 0.78799 0.26954 0.41417 0.0
O87 O 0.70422 0.35066 0.38859 0.0
H88 H 0.26984 0.58663 -0.00107 0.0
H89 H 0.21003 0.5082 0.1134 0.0
H90 H 0.21009 0.51486 0.83226 0.0
C91 C 0.25365 0.56376 -0.00874 0.0
C92 C 0.24228 0.55187 0.90711 0.0
C93 C 0.24218 0.54823 0.06578 0.0
C94 C 0.21993 0.51967 0.056 0.0
C95 C 0.20902 0.5071 0.97146 0.0
C96 C 0.2199 0.5235 0.89716 0.0
N97 N 0.18427 0.48038 0.9609 0.0
C98 C 0.19343 0.44619 0.9713 0.0
H99 H 0.9123 0.73074 0.47589 0.0
H100 H 0.01139 0.75613 0.37951 0.0
H101 H 0.99275 0.77207 0.65284 0.0
C102 C 0.93874 0.73921 0.48829 0.0
C103 C 0.94952 0.75084 0.57345 0.0
C104 C 0.96004 0.74259 0.41702 0.0
C105 C 0.99465 0.75282 0.43364 0.0
C106 C 0.00667 0.76187 0.51989 0.0
C107 C 0.98384 0.76191 0.58854 0.0
N108 N 0.03993 0.77622 0.53724 0.0
C109 C 0.07017 0.7595 0.51495 0.0
H110 H 0.76556 0.40395 -0.01274 0.0
H111 H 0.74792 0.50195 0.87139 0.0
H112 H 0.73676 0.49194 0.14782 0.0
C113 C 0.76116 0.4315 -0.0052 0.0
C114 C 0.75302 0.44564 0.07736 0.0
C115 C 0.75933 0.45135 0.91987 0.0
C116 C 0.75075 0.48655 0.92891 0.0
C117 C 0.74293 0.50108 0.01166 0.0
C118 C 0.74396 0.48061 0.08505 0.0
N119 N 0.72897 0.53463 0.02066 0.0
C120 C 0.745 0.56385 -0.00746 0.0
H121 H 0.08564 0.23007 0.46785 0.0
H122 H 0.01312 0.29198 0.61088 0.0
H123 H 0.01462 0.2959 0.32959 0.0
C124 C 0.06359 0.24736 0.46818 0.0
C125 C 0.05102 0.26081 0.38931 0.0
C126 C 0.05042 0.2588 0.54831 0.0
C127 C 0.02308 0.28251 0.54904 0.0
C128 C 0.00949 0.29504 0.46975 0.0
C129 C 0.02402 0.28484 0.3902 0.0
N130 N 0.98252 0.31949 0.47014 0.0
C131 C 0.94863 0.30887 0.47654 0.0
H132 H 0.78183 0.91804 0.52142 0.0
H133 H 0.72043 0.98823 0.36951 0.0
H134 H 0.71484 0.99053 0.65069 0.0
C135 C 0.76453 0.94003 0.51855 0.0
C136 C 0.75049 0.95352 0.59584 0.0
C137 C 0.75355 0.95209 0.43675 0.0
C138 C 0.7297 0.97926 0.43264 0.0
C139 C 0.71665 0.99387 0.51016 0.0
C140 C 0.72642 0.98045 0.59145 0.0
N141 N 0.6916 0.02024 0.50602 0.0
C142 C 0.7015 0.05444 0.50179 0.0
H143 H 0.60016 0.23865 -0.00737 0.0
H144 H 0.50237 0.25816 0.10826 0.0
H145 H 0.51248 0.26855 0.83174 0.0
C146 C 0.57265 0.24344 -0.01496 0.0
C147 C 0.5586 0.2517 0.90238 0.0
C148 C 0.55281 0.24573 0.05998 0.0
C149 C 0.51773 0.25491 0.0508 0.0
C150 C 0.50332 0.26283 0.96797 0.0
C151 C 0.52373 0.26124 0.89455 0.0
N152 N 0.47016 0.2777 0.95915 0.0
C153 C 0.44036 0.2615 -0.01697 0.0
H154 H 0.2629 0.09773 0.48855 0.0
H155 H 0.24872 0.99963 0.60334 0.0
H156 H 0.24501 0.00667 0.32302 0.0
C157 C 0.26061 0.06989 0.48111 0.0
C158 C 0.25584 0.05455 0.39662 0.0
C159 C 0.25804 0.05054 0.55628 0.0
C160 C 0.25216 0.01475 0.54622 0.0
C161 C 0.24804 0.99901 0.46168 0.0
C162 C 0.2497 0.01893 0.38764 0.0
N163 N 0.23639 0.96458 0.44955 0.0
C164 C 0.25525 0.93639 0.47731 0.0
H165 H 0.42578 0.72143 0.01392 0.0
H166 H 0.49877 0.78713 0.89689 0.0
H167 H 0.49372 0.78655 0.17795 0.0
C168 C 0.44759 0.73904 0.02075 0.0
C169 C 0.45893 0.75148 0.10458 0.0
C170 C 0.46143 0.75207 0.94553 0.0
C171 C 0.48844 0.77628 0.95461 0.0
C172 C 0.50092 0.78777 0.03871 0.0
C173 C 0.4855 0.77604 0.11339 0.0
N174 N 0.5265 0.81376 0.0486 0.0
C175 C 0.56109 0.80623 0.0376 0.0
C176 C 0.09404 0.21081 0.20775 0.0
C177 C 0.11856 0.23504 0.18415 0.0
H178 H 0.05305 0.2002 0.29315 0.0
C179 C 0.11719 0.26899 0.21978 0.0
H180 H 0.09468 0.18444 0.18144 0.0
C181 C 0.09288 0.27811 0.28146 0.0
C182 C 0.07005 0.25327 0.3095 0.0
H183 H 0.13568 0.28818 0.20216 0.0
H184 H 0.09338 0.30396 0.31144 0.0
C185 C 0.07024 0.21977 0.27114 0.0
C186 C 0.24392 0.62765 0.76336 0.0
C187 C 0.27294 0.62046 0.71343 0.0
H188 H 0.21124 0.61082 0.86282 0.0
C189 C 0.28938 0.58824 0.72042 0.0
H190 H 0.23034 0.65198 0.75878 0.0
C191 C 0.27816 0.56459 0.78007 0.0
C192 C 0.2502 0.57278 0.83239 0.0
H193 H 0.31176 0.58192 0.68275 0.0
H194 H 0.29219 0.54069 0.78815 0.0
C195 C 0.23272 0.60405 0.82228 0.0
C196 C 0.89012 0.73024 0.24102 0.0
C197 C 0.89184 0.76203 0.20063 0.0
H198 H 0.91227 0.69765 0.33826 0.0
C199 C 0.92149 0.78265 0.21663 0.0
H200 H 0.86809 0.71329 0.22815 0.0
C201 C 0.94669 0.77378 0.28013 0.0
C202 C 0.94282 0.744 0.32821 0.0
H203 H 0.92388 0.80707 0.18552 0.0
H204 H 0.96721 0.79209 0.29766 0.0
C205 C 0.91561 0.7211 0.3034 0.0
C206 C 0.72438 0.41152 0.70586 0.0
C207 C 0.74534 0.38199 0.69861 0.0
H208 H 0.71277 0.45731 0.78206 0.0
C209 C 0.77556 0.38018 0.75257 0.0
H210 H 0.70113 0.41394 0.66451 0.0
C211 C 0.78266 0.40553 0.81861 0.0
C212 C 0.75938 0.43282 0.83281 0.0
H213 H 0.79272 0.3582 0.74715 0.0
H214 H 0.80482 0.40223 0.86331 0.0
C215 C 0.73128 0.43668 0.77266 0.0
C216 C 0.6238 0.22901 0.22798 0.0
C217 C 0.62215 0.2592 0.28186 0.0
H218 H 0.60164 0.19994 0.1171 0.0
C219 C 0.59275 0.28035 0.27427 0.0
H220 H 0.64569 0.21172 0.23365 0.0
C221 C 0.56761 0.27367 0.20721 0.0
C222 C 0.57134 0.24558 0.14713 0.0
H223 H 0.59045 0.3036 0.31554 0.0
H224 H 0.54712 0.29232 0.19761 0.0
C225 C 0.59846 0.22211 0.16168 0.0
C226 C 0.21726 0.08956 0.75662 0.0
C227 C 0.23721 0.11971 0.77152 0.0
H228 H 0.20859 0.04342 0.67644 0.0
C229 C 0.26804 0.12282 0.7273 0.0
H230 H 0.19354 0.08623 0.79033 0.0
C231 C 0.27704 0.09792 0.66364 0.0
C232 C 0.25515 0.06965 0.64196 0.0
H233 H 0.28442 0.14533 0.73884 0.0
H234 H 0.29982 0.10207 0.6267 0.0
C235 C 0.2261 0.06479 0.69206 0.0
C236 C 0.41409 0.69969 0.27 0.0
C237 C 0.38964 0.72376 0.29969 0.0
H238 H 0.45547 0.68973 0.18293 0.0
C239 C 0.3911 0.75786 0.27249 0.0
H240 H 0.41335 0.67321 0.2898 0.0
C241 C 0.41565 0.76742 0.21385 0.0
C242 C 0.43868 0.74289 0.18014 0.0
H243 H 0.37266 0.77694 0.2949 0.0
H244 H 0.41539 0.79349 0.19097 0.0
C245 C 0.43814 0.70908 0.20937 0.0
C246 C 0.79904 0.90903 0.77761 0.0
C247 C 0.77316 0.88729 0.80609 0.0
H248 H 0.81195 0.94739 0.68702 0.0
C249 C 0.7389 0.89157 0.77432 0.0
H250 H 0.82568 0.90616 0.80075 0.0
C251 C 0.73102 0.91571 0.71114 0.0
C252 C 0.75736 0.93542 0.67769 0.0
H253 H 0.71846 0.87525 0.79559 0.0
H254 H 0.70478 0.91723 0.6839 0.0
C255 C 0.79126 0.93261 0.71285 0.0
C256 C 0.86534 0.7719 0.68194 0.0
C257 C 0.87496 0.77044 0.77119 0.0
H258 H 0.88132 0.76904 0.55073 0.0
C259 C 0.9089 0.76122 0.79619 0.0
H260 H 0.83946 0.77961 0.66118 0.0
C261 C 0.93293 0.75351 0.73228 0.0
C262 C 0.92363 0.7559 0.6424 0.0
H263 H 0.91679 0.7599 0.86502 0.0
H264 H 0.95878 0.74599 0.75344 0.0
C265 C 0.88946 0.76538 0.61847 0.0
C266 C 0.71348 0.40078 0.26418 0.0
C267 C 0.73487 0.37169 0.27186 0.0
H268 H 0.70216 0.44667 0.19622 0.0
C269 C 0.76442 0.36907 0.22189 0.0
H270 H 0.69051 0.40359 0.30187 0.0
C271 C 0.7716 0.39431 0.16265 0.0
C272 C 0.74908 0.42239 0.15118 0.0
H273 H 0.78173 0.34725 0.22752 0.0
H274 H 0.79426 0.39129 0.12388 0.0
C275 C 0.72038 0.42574 0.20414 0.0
C276 C 0.09495 0.20669 0.72266 0.0
C277 C 0.11929 0.23084 0.75831 0.0
H278 H 0.0536 0.19682 0.6262 0.0
C279 C 0.11731 0.26517 0.73278 0.0
H280 H 0.09606 0.18005 0.74122 0.0
C281 C 0.09249 0.27487 0.66957 0.0
C282 C 0.06972 0.25026 0.6297 0.0
H283 H 0.13564 0.28431 0.7599 0.0
H284 H 0.09253 0.3011 0.64771 0.0
C285 C 0.07064 0.21624 0.65754 0.0
C286 C 0.23762 0.61597 0.24642 0.0
C287 C 0.2711 0.61446 0.28548 0.0
H288 H 0.20184 0.59476 0.14735 0.0
C289 C 0.29291 0.58701 0.2611 0.0
H290 H 0.22016 0.63666 0.26447 0.0
C291 C 0.28241 0.5632 0.19361 0.0
C292 C 0.24967 0.56602 0.15157 0.0
H293 H 0.31887 0.58528 0.28995 0.0
H294 H 0.30052 0.54387 0.17081 0.0
C295 C 0.22696 0.59182 0.18033 0.0
C296 C 0.39678 0.76141 0.75798 0.0
C297 C 0.3934 0.72712 0.72503 0.0
H298 H 0.4224 0.79633 0.85225 0.0
C299 C 0.41657 0.70211 0.75636 0.0
H300 H 0.3794 0.78123 0.73457 0.0
C301 C 0.44082 0.7107 0.82452 0.0
C302 C 0.44293 0.74462 0.86027 0.0
H303 H 0.41444 0.67547 0.73232 0.0
H304 H 0.45671 0.69057 0.85237 0.0
C305 C 0.42158 0.77014 0.82447 0.0
C306 C 0.80592 0.90632 0.26432 0.0
C307 C 0.78182 0.88172 0.22981 0.0
H308 H 0.81572 0.94826 0.35904 0.0
C309 C 0.74759 0.88343 0.25641 0.0
H310 H 0.83247 0.90541 0.24487 0.0
C311 C 0.73788 0.90843 0.31898 0.0
C312 C 0.76238 0.93169 0.35726 0.0
H313 H 0.72848 0.86491 0.23017 0.0
H314 H 0.71169 0.90836 0.34117 0.0
C315 C 0.79637 0.93084 0.32894 0.0
C316 C 0.60373 0.29095 0.71576 0.0
C317 C 0.63269 0.26938 0.70801 0.0
H318 H 0.55795 0.30258 0.78378 0.0
C319 C 0.63515 0.23982 0.75793 0.0
H320 H 0.60106 0.31395 0.67817 0.0
C321 C 0.60986 0.23279 0.81718 0.0
C322 C 0.5819 0.25547 0.82866 0.0
H323 H 0.65687 0.22239 0.75226 0.0
H324 H 0.61273 0.21012 0.85594 0.0
C325 C 0.57875 0.28421 0.77579 0.0
C326 C 0.21618 0.09586 0.19635 0.0
C327 C 0.2353 0.12664 0.1955 0.0
H328 H 0.20752 0.04909 0.26085 0.0
C329 C 0.26415 0.13125 0.25392 0.0
H330 H 0.19387 0.09139 0.15202 0.0
C331 C 0.27243 0.10653 0.31534 0.0
C332 C 0.2518 0.07691 0.32028 0.0
H333 H 0.27978 0.1544 0.25392 0.0
H334 H 0.2942 0.11126 0.36132 0.0
C335 C 0.22424 0.07135 0.25832 0.0
C336 C 0.21337 0.3553 0.90024 0.0
C337 C 0.21458 0.33871 0.98069 0.0
H338 H 0.20572 0.40281 0.83494 0.0
C339 C 0.20961 0.35857 0.05868 0.0
H340 H 0.21706 0.34094 0.83887 0.0
C341 C 0.20313 0.39402 0.05595 0.0
C342 C 0.20161 0.41009 0.97541 0.0
H343 H 0.21031 0.34671 0.12176 0.0
H344 H 0.19895 0.40877 0.11652 0.0
C345 C 0.20692 0.39068 0.89774 0.0
C346 C 0.15616 0.73811 0.42423 0.0
C347 C 0.17505 0.7289 0.50086 0.0
H348 H 0.10743 0.75523 0.3688 0.0
C349 C 0.15751 0.72633 0.5792 0.0
H350 H 0.16881 0.74039 0.36279 0.0
C351 C 0.12248 0.7346 0.58202 0.0
C352 C 0.10437 0.74554 0.50677 0.0
H353 H 0.1711 0.71913 0.63927 0.0
H354 H 0.1099 0.73385 0.64403 0.0
C355 C 0.12108 0.74657 0.42738 0.0
C356 C 0.7564 0.65146 0.90507 0.0
C357 C 0.77306 0.66871 0.97824 0.0
H358 H 0.73419 0.60372 0.85238 0.0
C359 C 0.78437 0.64948 0.05018 0.0
H360 H 0.74731 0.66557 0.8488 0.0
C361 C 0.77719 0.61429 0.05148 0.0
C362 C 0.75859 0.59776 0.98111 0.0
H363 H 0.79756 0.6619 0.10718 0.0
H364 H 0.78457 0.60041 0.10959 0.0
C365 C 0.74894 0.61616 0.90688 0.0
C366 C 0.86305 0.28624 0.5628 0.0
C367 C 0.84309 0.27971 0.48435 0.0
H368 H 0.91265 0.3008 0.62134 0.0
C369 C 0.85911 0.28166 0.40355 0.0
H370 H 0.85164 0.28504 0.62618 0.0
C371 C 0.89393 0.29075 0.4013 0.0
C372 C 0.91327 0.29797 0.47956 0.0
H373 H 0.84462 0.27686 0.34187 0.0
H374 H 0.9056 0.29264 0.33837 0.0
C375 C 0.89789 0.29533 0.5603 0.0
C376 C 0.72464 0.14489 0.57624 0.0
C377 C 0.72639 0.16109 0.49562 0.0
H378 H 0.71522 0.09789 0.64083 0.0
C379 C 0.72103 0.14103 0.41696 0.0
H380 H 0.72855 0.15945 0.63807 0.0
C381 C 0.71338 0.10586 0.41901 0.0
C382 C 0.71102 0.09022 0.49952 0.0
H383 H 0.72212 0.15256 0.35369 0.0
H384 H 0.70882 0.09101 0.35776 0.0
C385 C 0.71698 0.10972 0.57805 0.0
C386 C 0.35338 0.24734 0.07152 0.0
C387 C 0.33514 0.23398 -0.00438 0.0
H388 H 0.40194 0.26672 0.12687 0.0
C389 C 0.35344 0.22587 0.91979 0.0
H390 H 0.34006 0.25389 0.13095 0.0
C391 C 0.38869 0.23293 0.91815 0.0
C392 C 0.40619 0.24815 -0.00792 0.0
H393 H 0.3403 0.21529 0.86049 0.0
H394 H 0.4019 0.22803 0.85764 0.0
C395 C 0.38871 0.25462 0.06948 0.0
C396 C 0.27607 0.85233 0.5776 0.0
C397 C 0.28681 0.83279 0.50366 0.0
H398 H 0.25743 0.90133 0.62691 0.0
C399 C 0.29171 0.84963 0.42524 0.0
H400 H 0.27198 0.8402 0.63897 0.0
C401 C 0.28363 0.88455 0.41902 0.0
C402 C 0.27061 0.90317 0.49092 0.0
H403 H 0.30016 0.83547 0.36727 0.0
H404 H 0.28574 0.89648 0.35647 0.0
C405 C 0.26778 0.88728 0.57099 0.0
C406 C 0.64766 0.79142 0.94279 0.0
C407 C 0.66913 0.78869 0.01925 0.0
H408 H 0.59614 0.7991 0.88912 0.0
C409 C 0.65405 0.79127 0.10165 0.0
H410 H 0.65829 0.78958 0.87824 0.0
C411 C 0.61852 0.79669 0.10735 0.0
C412 C 0.59749 0.79958 0.03099 0.0
H413 H 0.66969 0.78936 0.16188 0.0
H414 H 0.60752 0.79887 0.17148 0.0
C415 C 0.61212 0.79683 0.94873 0.0
loop_
_geom_bond_atom_site_label_1
_geom_bond_atom_site_label_2
_geom_bond_distance
_geom_bond_site_symmetry_2
_ccdc_geom_bond_type
Sc0 O3 2.025 . S
Sc0 O10 2.105 . S
Sc0 O13 2.105 . S
Sc0 O16 2.105 . S
Sc0 O19 2.105 . S
Sc1 O3 2.025 . S
Sc1 O11 2.105 . S
Sc1 O15 2.105 1_554 S
Sc1 O17 2.105 . S
Sc1 O21 2.105 1_554 S
Sc2 O3 2.025 1_556 S
Sc2 O12 2.105 . S
Sc2 O14 2.105 . S
Sc2 O18 2.105 . S
Sc2 O20 2.105 . S
O3 Sc0 2.025 . S
O3 Sc1 2.025 . S
O3 Sc2 2.025 1_554 S
C4 O10 1.268 . S
C4 O20 1.268 1_554 S
C5 O11 1.268 . S
C5 O19 1.268 . S
C6 O12 1.268 . S
C6 O21 1.268 . S
C7 O13 1.268 . S
C7 O17 1.268 . S
C8 O14 1.268 1_554 S
C8 O16 1.268 . S
C9 O15 1.268 . S
C9 O18 1.268 . S
O10 Sc0 2.105 . S
O10 C4 1.268 . S
O11 Sc1 2.105 . S
O11 C5 1.268 . S
O12 Sc2 2.105 . S
O12 C6 1.268 . S
O13 Sc0 2.105 . S
O13 C7 1.268 . S
O14 Sc2 2.105 . S
O14 C8 1.268 1_556 S
O15 Sc1 2.105 1_556 S
O15 C9 1.268 . S
O16 Sc0 2.105 . S
O16 C8 1.268 . S
O17 Sc1 2.105 . S
O17 C7 1.268 . S
O18 Sc2 2.105 . S
O18 C9 1.268 . S
O19 Sc0 2.105 . S
O19 C5 1.268 . S
O20 Sc2 2.105 . S
O20 C4 1.268 1_556 S
O21 Sc1 2.105 1_556 S
O21 C6 1.268 . S
Sc22 O25 2.025 . S
Sc22 O32 2.105 . S
Sc22 O35 2.105 . S
Sc22 O38 2.105 . S
Sc22 O41 2.105 . S
Sc23 O25 2.025 . S
Sc23 O33 2.105 . S
Sc23 O37 2.105 . S
Sc23 O39 2.105 . S
Sc23 O43 2.105 . S
Sc24 O25 2.025 . S
Sc24 O34 2.105 . S
Sc24 O36 2.105 . S
Sc24 O40 2.105 . S
Sc24 O42 2.105 . S
O25 Sc22 2.025 . S
O25 Sc23 2.025 . S
O25 Sc24 2.025 . S
C26 O32 1.268 . S
C26 O42 1.268 . S
C27 O33 1.268 . S
C27 O41 1.268 . S
C28 O34 1.268 . S
C28 O43 1.268 . S
C29 O35 1.268 . S
C29 O39 1.268 . S
C30 O36 1.268 . S
C30 O38 1.268 . S
C31 O37 1.268 . S
C31 O40 1.268 . S
O32 Sc22 2.105 . S
O32 C26 1.268 . S
O33 Sc23 2.105 . S
O33 C27 1.268 . S
O34 Sc24 2.105 . S
O34 C28 1.268 . S
O35 Sc22 2.105 . S
O35 C29 1.268 . S
O36 Sc24 2.105 . S
O36 C30 1.268 . S
O37 Sc23 2.105 . S
O37 C31 1.268 . S
O38 Sc22 2.105 . S
O38 C30 1.268 . S
O39 Sc23 2.105 . S
O39 C29 1.268 . S
O40 Sc24 2.105 . S
O40 C31 1.268 . S
O41 Sc22 2.105 . S
O41 C27 1.268 . S
O42 Sc24 2.105 . S
O42 C26 1.268 . S
O43 Sc23 2.105 . S
O43 C28 1.268 . S
Sc44 O47 2.025 1_556 S
Sc44 O54 2.105 . S
Sc44 O57 2.105 . S
Sc44 O60 2.105 . S
Sc44 O63 2.105 . S
Sc45 O47 2.025 . S
Sc45 O55 2.105 1_554 S
Sc45 O59 2.105 . S
Sc45 O61 2.105 1_554 S
Sc45 O65 2.105 . S
Sc46 O47 2.025 . S
Sc46 O56 2.105 . S
Sc46 O58 2.105 . S
Sc46 O62 2.105 . S
Sc46 O64 2.105 . S
O47 Sc44 2.025 1_554 S
O47 Sc45 2.025 . S
O47 Sc46 2.025 . S
C48 O54 1.268 1_554 S
C48 O64 1.268 . S
C49 O55 1.268 . S
C49 O63 1.268 . S
C50 O56 1.268 . S
C50 O65 1.268 . S
C51 O57 1.268 . S
C51 O61 1.268 . S
C52 O58 1.268 . S
C52 O60 1.268 1_554 S
C53 O59 1.268 . S
C53 O62 1.268 . S
O54 Sc44 2.105 . S
O54 C48 1.268 1_556 S
O55 Sc45 2.105 1_556 S
O55 C49 1.268 . S
O56 Sc46 2.105 . S
O56 C50 1.268 . S
O57 Sc44 2.105 . S
O57 C51 1.268 . S
O58 Sc46 2.105 . S
O58 C52 1.268 . S
O59 Sc45 2.105 . S
O59 C53 1.268 . S
O60 Sc44 2.105 . S
O60 C52 1.268 1_556 S
O61 Sc45 2.105 1_556 S
O61 C51 1.268 . S
O62 Sc46 2.105 . S
O62 C53 1.268 . S
O63 Sc44 2.105 . S
O63 C49 1.268 . S
O64 Sc46 2.105 . S
O64 C48 1.268 . S
O65 Sc45 2.105 . S
O65 C50 1.268 . S
Sc66 O69 2.025 . S
Sc66 O76 2.105 . S
Sc66 O79 2.105 . S
Sc66 O82 2.105 . S
Sc66 O85 2.105 . S
Sc67 O69 2.025 . S
Sc67 O77 2.105 . S
Sc67 O81 2.105 . S
Sc67 O83 2.105 . S
Sc67 O87 2.105 . S
Sc68 O69 2.025 . S
Sc68 O78 2.105 . S
Sc68 O80 2.105 . S
Sc68 O84 2.105 . S
Sc68 O86 2.105 . S
O69 Sc66 2.025 . S
O69 Sc67 2.025 . S
O69 Sc68 2.025 . S
C70 O76 1.268 . S
C70 O86 1.268 . S
C71 O77 1.268 . S
C71 O85 1.268 . S
C72 O78 1.268 . S
C72 O87 1.268 . S
C73 O79 1.268 . S
C73 O83 1.268 . S
C74 O80 1.268 . S
C74 O82 1.268 . S
C75 O81 1.268 . S
C75 O84 1.268 . S
O76 Sc66 2.105 . S
O76 C70 1.268 . S
O77 Sc67 2.105 . S
O77 C71 1.268 . S
O78 Sc68 2.105 . S
O78 C72 1.268 . S
O79 Sc66 2.105 . S
O79 C73 1.268 . S
O80 Sc68 2.105 . S
O80 C74 1.268 . S
O81 Sc67 2.105 . S
O81 C75 1.268 . S
O82 Sc66 2.105 . S
O82 C74 1.268 . S
O83 Sc67 2.105 . S
O83 C73 1.268 . S
O84 Sc68 2.105 . S
O84 C75 1.268 . S
O85 Sc66 2.105 . S
O85 C71 1.268 . S
O86 Sc68 2.105 . S
O86 C70 1.268 . S
O87 Sc67 2.105 . S
O87 C72 1.268 . S
H88 C91 0.929 . S
H89 C94 0.929 . S
H90 C96 0.930 . S
C91 H88 0.929 . S
C91 C92 1.398 1_554 S
C91 C93 1.396 . S
C92 C91 1.398 1_556 S
C92 C96 1.407 . S
C93 C91 1.396 . S
C93 C94 1.394 . S
C94 H89 0.929 . S
C94 C93 1.394 . S
C94 C95 1.382 1_554 S
C95 C94 1.382 1_556 S
C95 C96 1.392 . S
C95 N97 1.420 . S
C96 H90 0.930 . S
C96 C92 1.407 . S
C96 C95 1.392 . S
N97 C95 1.420 . S
N97 C98 1.244 1_556 S
C98 N97 1.244 1_554 S
H99 C102 0.929 . S
H100 C105 0.929 . S
H101 C107 0.930 . S
C102 H99 0.929 . S
C102 C103 1.398 . S
C102 C104 1.396 . S
C103 C102 1.398 . S
C103 C107 1.407 . S
C104 C102 1.396 . S
C104 C105 1.394 . S
C105 H100 0.929 . S
C105 C104 1.394 . S
C105 C106 1.368 1_655 S
C106 C105 1.368 1_455 S
C106 C107 1.372 1_455 S
C106 N108 1.455 . S
C107 H101 0.930 . S
C107 C103 1.407 . S
C107 C106 1.372 1_655 S
N108 C106 1.455 . S
N108 C109 1.244 . S
C109 N108 1.244 . S
H110 C113 0.929 . S
H111 C116 0.929 . S
H112 C118 0.930 . S
C113 H110 0.929 . S
C113 C114 1.398 . S
C113 C115 1.396 1_554 S
C114 C113 1.398 . S
C114 C118 1.407 . S
C115 C113 1.396 1_556 S
C115 C116 1.394 . S
C116 H111 0.929 . S
C116 C115 1.394 . S
C116 C117 1.382 1_556 S
C117 C116 1.382 1_554 S
C117 C118 1.392 . S
C117 N119 1.420 . S
C118 H112 0.930 . S
C118 C114 1.407 . S
C118 C117 1.392 . S
N119 C117 1.420 . S
N119 C120 1.244 . S
C120 N119 1.244 . S
H121 C124 0.929 . S
H122 C127 0.929 . S
H123 C129 0.930 . S
C124 H121 0.929 . S
C124 C125 1.398 . S
C124 C126 1.396 . S
C125 C124 1.398 . S
C125 C129 1.407 . S
C126 C124 1.396 . S
C126 C127 1.394 . S
C127 H122 0.929 . S
C127 C126 1.394 . S
C127 C128 1.382 . S
C128 C127 1.382 . S
C128 C129 1.392 . S
C128 N130 1.420 1_455 S
C129 H123 0.930 . S
C129 C125 1.407 . S
C129 C128 1.392 . S
N130 C128 1.420 1_655 S
N130 C131 1.244 . S
C131 N130 1.244 . S
H132 C135 0.929 . S
H133 C138 0.929 . S
H134 C140 0.930 . S
C135 H132 0.929 . S
C135 C136 1.398 . S
C135 C137 1.396 . S
C136 C135 1.398 . S
C136 C140 1.407 . S
C137 C135 1.396 . S
C137 C138 1.394 . S
C138 H133 0.929 . S
C138 C137 1.394 . S
C138 C139 1.382 . S
C139 C138 1.382 . S
C139 C140 1.392 . S
C139 N141 1.420 1_565 S
C140 H134 0.930 . S
C140 C136 1.407 . S
C140 C139 1.392 . S
N141 C139 1.420 1_545 S
N141 C142 1.244 . S
C142 N141 1.244 . S
H143 C146 0.929 . S
H144 C149 0.929 . S
H145 C151 0.930 . S
C146 H143 0.929 . S
C146 C147 1.398 1_554 S
C146 C148 1.396 . S
C147 C146 1.398 1_556 S
C147 C151 1.407 . S
C148 C146 1.396 . S
C148 C149 1.394 . S
C149 H144 0.929 . S
C149 C148 1.394 . S
C149 C150 1.382 1_554 S
C150 C149 1.382 1_556 S
C150 C151 1.392 . S
C150 N152 1.420 . S
C151 H145 0.930 . S
C151 C147 1.407 . S
C151 C150 1.392 . S
N152 C150 1.420 . S
N152 C153 1.244 1_556 S
C153 N152 1.244 1_554 S
H154 C157 0.929 . S
H155 C160 0.929 . S
H156 C162 0.930 . S
C157 H154 0.929 . S
C157 C158 1.398 . S
C157 C159 1.396 . S
C158 C157 1.398 . S
C158 C162 1.407 . S
C159 C157 1.396 . S
C159 C160 1.394 . S
C160 H155 0.929 . S
C160 C159 1.394 . S
C160 C161 1.372 1_545 S
C161 C160 1.372 1_565 S
C161 C162 1.378 1_565 S
C161 N163 1.444 . S
C162 H156 0.930 . S
C162 C158 1.407 . S
C162 C161 1.378 1_545 S
N163 C161 1.444 . S
N163 C164 1.244 . S
C164 N163 1.244 . S
H165 C168 0.929 . S
H166 C171 0.929 . S
H167 C173 0.930 . S
C168 H165 0.929 . S
C168 C169 1.398 . S
C168 C170 1.396 1_554 S
C169 C168 1.398 . S
C169 C173 1.407 . S
C170 C168 1.396 1_556 S
C170 C171 1.394 . S
C171 H166 0.929 . S
C171 C170 1.394 . S
C171 C172 1.382 1_556 S
C172 C171 1.382 1_554 S
C172 C173 1.392 . S
C172 N174 1.420 . S
C173 H167 0.930 . S
C173 C169 1.407 . S
C173 C172 1.392 . S
N174 C172 1.420 . S
N174 C175 1.244 . S
C175 N174 1.244 . S
C176 C177 1.387 . S
C176 H180 0.950 . S
C176 C185 1.390 . S
C177 C176 1.387 . S
C177 C179 1.387 . S
H178 C185 0.950 . S
C179 C177 1.387 . S
C179 C181 1.390 . S
C179 H183 0.950 . S
H180 C176 0.950 . S
C181 C179 1.390 . S
C181 C182 1.387 . S
C181 H184 0.950 . S
C182 C181 1.387 . S
C182 C185 1.387 . S
H183 C179 0.950 . S
H184 C181 0.950 . S
C185 C176 1.390 . S
C185 H178 0.950 . S
C185 C182 1.387 . S
C186 C187 1.387 . S
C186 H190 0.950 . S
C186 C195 1.390 . S
C187 C186 1.387 . S
C187 C189 1.387 . S
H188 C195 0.950 . S
C189 C187 1.387 . S
C189 C191 1.390 . S
C189 H193 0.950 . S
H190 C186 0.950 . S
C191 C189 1.390 . S
C191 C192 1.387 . S
C191 H194 0.950 . S
C192 C191 1.387 . S
C192 C195 1.387 . S
H193 C189 0.950 . S
H194 C191 0.950 . S
C195 C186 1.390 . S
C195 H188 0.950 . S
C195 C192 1.387 . S
C196 C197 1.387 . S
C196 H200 0.950 . S
C196 C205 1.390 . S
C197 C196 1.387 . S
C197 C199 1.387 . S
H198 C205 0.950 . S
C199 C197 1.387 . S
C199 C201 1.390 . S
C199 H203 0.950 . S
H200 C196 0.950 . S
C201 C199 1.390 . S
C201 C202 1.387 . S
C201 H204 0.950 . S
C202 C201 1.387 . S
C202 C205 1.387 . S
H203 C199 0.950 . S
H204 C201 0.950 . S
C205 C196 1.390 . S
C205 H198 0.950 . S
C205 C202 1.387 . S
C206 C207 1.387 . S
C206 H210 0.950 . S
C206 C215 1.390 . S
C207 C206 1.387 . S
C207 C209 1.387 . S
H208 C215 0.950 . S
C209 C207 1.387 . S
C209 C211 1.390 . S
C209 H213 0.950 . S
H210 C206 0.950 . S
C211 C209 1.390 . S
C211 C212 1.387 . S
C211 H214 0.950 . S
C212 C211 1.387 . S
C212 C215 1.387 . S
H213 C209 0.950 . S
H214 C211 0.950 . S
C215 C206 1.390 . S
C215 H208 0.950 . S
C215 C212 1.387 . S
C216 C217 1.387 . S
C216 H220 0.950 . S
C216 C225 1.390 . S
C217 C216 1.387 . S
C217 C219 1.387 . S
H218 C225 0.950 . S
C219 C217 1.387 . S
C219 C221 1.390 . S
C219 H223 0.950 . S
H220 C216 0.950 . S
C221 C219 1.390 . S
C221 C222 1.387 . S
C221 H224 0.950 . S
C222 C221 1.387 . S
C222 C225 1.387 . S
H223 C219 0.950 . S
H224 C221 0.950 . S
C225 C216 1.390 . S
C225 H218 0.950 . S
C225 C222 1.387 . S
C226 C227 1.387 . S
C226 H230 0.950 . S
C226 C235 1.390 . S
C227 C226 1.387 . S
C227 C229 1.387 . S
H228 C235 0.950 . S
C229 C227 1.387 . S
C229 C231 1.390 . S
C229 H233 0.950 . S
H230 C226 0.950 . S
C231 C229 1.390 . S
C231 C232 1.387 . S
C231 H234 0.950 . S
C232 C231 1.387 . S
C232 C235 1.387 . S
H233 C229 0.950 . S
H234 C231 0.950 . S
C235 C226 1.390 . S
C235 H228 0.950 . S
C235 C232 1.387 . S
C236 C237 1.387 . S
C236 H240 0.950 . S
C236 C245 1.390 . S
C237 C236 1.387 . S
C237 C239 1.387 . S
H238 C245 0.950 . S
C239 C237 1.387 . S
C239 C241 1.390 . S
C239 H243 0.950 . S
H240 C236 0.950 . S
C241 C239 1.390 . S
C241 C242 1.387 . S
C241 H244 0.950 . S
C242 C241 1.387 . S
C242 C245 1.387 . S
H243 C239 0.950 . S
H244 C241 0.950 . S
C245 C236 1.390 . S
C245 H238 0.950 . S
C245 C242 1.387 . S
C246 C247 1.387 . S
C246 H250 0.950 . S
C246 C255 1.390 . S
C247 C246 1.387 . S
C247 C249 1.387 . S
H248 C255 0.950 . S
C249 C247 1.387 . S
C249 C251 1.390 . S
C249 H253 0.950 . S
H250 C246 0.950 . S
C251 C249 1.390 . S
C251 C252 1.387 . S
C251 H254 0.950 . S
C252 C251 1.387 . S
C252 C255 1.387 . S
H253 C249 0.950 . S
H254 C251 0.950 . S
C255 C246 1.390 . S
C255 H248 0.950 . S
C255 C252 1.387 . S
C256 C257 1.387 . S
C256 H260 0.950 . S
C256 C265 1.390 . S
C257 C256 1.387 . S
C257 C259 1.387 . S
H258 C265 0.950 . S
C259 C257 1.387 . S
C259 C261 1.390 . S
C259 H263 0.950 . S
H260 C256 0.950 . S
C261 C259 1.390 . S
C261 C262 1.387 . S
C261 H264 0.950 . S
C262 C261 1.387 . S
C262 C265 1.387 . S
H263 C259 0.950 . S
H264 C261 0.950 . S
C265 C256 1.390 . S
C265 H258 0.950 . S
C265 C262 1.387 . S
C266 C267 1.387 . S
C266 H270 0.950 . S
C266 C275 1.390 . S
C267 C266 1.387 . S
C267 C269 1.387 . S
H268 C275 0.950 . S
C269 C267 1.387 . S
C269 C271 1.390 . S
C269 H273 0.950 . S
H270 C266 0.950 . S
C271 C269 1.390 . S
C271 C272 1.387 . S
C271 H274 0.950 . S
C272 C271 1.387 . S
C272 C275 1.387 . S
H273 C269 0.950 . S
H274 C271 0.950 . S
C275 C266 1.390 . S
C275 H268 0.950 . S
C275 C272 1.387 . S
C276 C277 1.387 . S
C276 H280 0.950 . S
C276 C285 1.390 . S
C277 C276 1.387 . S
C277 C279 1.387 . S
H278 C285 0.950 . S
C279 C277 1.387 . S
C279 C281 1.390 . S
C279 H283 0.950 . S
H280 C276 0.950 . S
C281 C279 1.390 . S
C281 C282 1.387 . S
C281 H284 0.950 . S
C282 C281 1.387 . S
C282 C285 1.387 . S
H283 C279 0.950 . S
H284 C281 0.950 . S
C285 C276 1.390 . S
C285 H278 0.950 . S
C285 C282 1.387 . S
C286 C287 1.387 . S
C286 H290 0.950 . S
C286 C295 1.390 . S
C287 C286 1.387 . S
C287 C289 1.387 . S
H288 C295 0.950 . S
C289 C287 1.387 . S
C289 C291 1.390 . S
C289 H293 0.950 . S
H290 C286 0.950 . S
C291 C289 1.390 . S
C291 C292 1.387 . S
C291 H294 0.950 . S
C292 C291 1.387 . S
C292 C295 1.387 . S
H293 C289 0.950 . S
H294 C291 0.950 . S
C295 C286 1.390 . S
C295 H288 0.950 . S
C295 C292 1.387 . S
C296 C297 1.387 . S
C296 H300 0.950 . S
C296 C305 1.390 . S
C297 C296 1.387 . S
C297 C299 1.387 . S
H298 C305 0.950 . S
C299 C297 1.387 . S
C299 C301 1.390 . S
C299 H303 0.950 . S
H300 C296 0.950 . S
C301 C299 1.390 . S
C301 C302 1.387 . S
C301 H304 0.950 . S
C302 C301 1.387 . S
C302 C305 1.387 . S
H303 C299 0.950 . S
H304 C301 0.950 . S
C305 C296 1.390 . S
C305 H298 0.950 . S
C305 C302 1.387 . S
C306 C307 1.387 . S
C306 H310 0.950 . S
C306 C315 1.390 . S
C307 C306 1.387 . S
C307 C309 1.387 . S
H308 C315 0.950 . S
C309 C307 1.387 . S
C309 C311 1.390 . S
C309 H313 0.950 . S
H310 C306 0.950 . S
C311 C309 1.390 . S
C311 C312 1.387 . S
C311 H314 0.950 . S
C312 C311 1.387 . S
C312 C315 1.387 . S
H313 C309 0.950 . S
H314 C311 0.950 . S
C315 C306 1.390 . S
C315 H308 0.950 . S
C315 C312 1.387 . S
C316 C317 1.387 . S
C316 H320 0.950 . S
C316 C325 1.390 . S
C317 C316 1.387 . S
C317 C319 1.387 . S
H318 C325 0.950 . S
C319 C317 1.387 . S
C319 C321 1.390 . S
C319 H323 0.950 . S
H320 C316 0.950 . S
C321 C319 1.390 . S
C321 C322 1.387 . S
C321 H324 0.950 . S
C322 C321 1.387 . S
C322 C325 1.387 . S
H323 C319 0.950 . S
H324 C321 0.950 . S
C325 C316 1.390 . S
C325 H318 0.950 . S
C325 C322 1.387 . S
C326 C327 1.387 . S
C326 H330 0.950 . S
C326 C335 1.390 . S
C327 C326 1.387 . S
C327 C329 1.387 . S
H328 C335 0.950 . S
C329 C327 1.387 . S
C329 C331 1.390 . S
C329 H333 0.950 . S
H330 C326 0.950 . S
C331 C329 1.390 . S
C331 C332 1.387 . S
C331 H334 0.950 . S
C332 C331 1.387 . S
C332 C335 1.387 . S
H333 C329 0.950 . S
H334 C331 0.950 . S
C335 C326 1.390 . S
C335 H328 0.950 . S
C335 C332 1.387 . S
C336 C337 1.387 1_556 S
C336 H340 0.950 . S
C336 C345 1.390 . S
C337 C336 1.387 1_554 S
C337 C339 1.387 . S
H338 C345 0.950 . S
C339 C337 1.387 . S
C339 C341 1.390 . S
C339 H343 0.950 . S
H340 C336 0.950 . S
C341 C339 1.390 . S
C341 C342 1.387 . S
C341 H344 0.950 . S
C342 C341 1.387 . S
C342 C345 1.387 1_554 S
H343 C339 0.950 . S
H344 C341 0.950 . S
C345 C336 1.390 . S
C345 H338 0.950 . S
C345 C342 1.387 1_556 S
C346 C347 1.387 . S
C346 H350 0.950 . S
C346 C355 1.390 . S
C347 C346 1.387 . S
C347 C349 1.387 . S
H348 C355 0.950 . S
C349 C347 1.387 . S
C349 C351 1.390 . S
C349 H353 0.950 . S
H350 C346 0.950 . S
C351 C349 1.390 . S
C351 C352 1.387 . S
C351 H354 0.950 . S
C352 C351 1.387 . S
C352 C355 1.387 . S
H353 C349 0.950 . S
H354 C351 0.950 . S
C355 C346 1.390 . S
C355 H348 0.950 . S
C355 C352 1.387 . S
C356 C357 1.387 1_556 S
C356 H360 0.950 . S
C356 C365 1.390 . S
C357 C356 1.387 1_554 S
C357 C359 1.387 . S
H358 C365 0.950 . S
C359 C357 1.387 . S
C359 C361 1.390 . S
C359 H363 0.950 . S
H360 C356 0.950 . S
C361 C359 1.390 . S
C361 C362 1.387 . S
C361 H364 0.950 . S
C362 C361 1.387 . S
C362 C365 1.387 1_554 S
H363 C359 0.950 . S
H364 C361 0.950 . S
C365 C356 1.390 . S
C365 H358 0.950 . S
C365 C362 1.387 1_556 S
C366 C367 1.387 . S
C366 H370 0.950 . S
C366 C375 1.390 . S
C367 C366 1.387 . S
C367 C369 1.387 . S
H368 C375 0.950 . S
C369 C367 1.387 . S
C369 C371 1.390 . S
C369 H373 0.950 . S
H370 C366 0.950 . S
C371 C369 1.390 . S
C371 C372 1.387 . S
C371 H374 0.950 . S
C372 C371 1.387 . S
C372 C375 1.387 . S
H373 C369 0.950 . S
H374 C371 0.950 . S
C375 C366 1.390 . S
C375 H368 0.950 . S
C375 C372 1.387 . S
C376 C377 1.387 . S
C376 H380 0.950 . S
C376 C385 1.390 . S
C377 C376 1.387 . S
C377 C379 1.387 . S
H378 C385 0.950 . S
C379 C377 1.387 . S
C379 C381 1.390 . S
C379 H383 0.950 . S
H380 C376 0.950 . S
C381 C379 1.390 . S
C381 C382 1.387 . S
C381 H384 0.950 . S
C382 C381 1.387 . S
C382 C385 1.387 . S
H383 C379 0.950 . S
H384 C381 0.950 . S
C385 C376 1.390 . S
C385 H378 0.950 . S
C385 C382 1.387 . S
C386 C387 1.387 . S
C386 H390 0.950 . S
C386 C395 1.390 . S
C387 C386 1.387 . S
C387 C389 1.387 1_554 S
H388 C395 0.950 . S
C389 C387 1.387 1_556 S
C389 C391 1.390 . S
C389 H393 0.950 . S
H390 C386 0.950 . S
C391 C389 1.390 . S
C391 C392 1.387 1_556 S
C391 H394 0.950 . S
C392 C391 1.387 1_554 S
C392 C395 1.387 . S
H393 C389 0.950 . S
H394 C391 0.950 . S
C395 C386 1.390 . S
C395 H388 0.950 . S
C395 C392 1.387 . S
C396 C397 1.387 . S
C396 H400 0.950 . S
C396 C405 1.390 . S
C397 C396 1.387 . S
C397 C399 1.387 . S
H398 C405 0.950 . S
C399 C397 1.387 . S
C399 C401 1.390 . S
C399 H403 0.950 . S
H400 C396 0.950 . S
C401 C399 1.390 . S
C401 C402 1.387 . S
C401 H404 0.950 . S
C402 C401 1.387 . S
C402 C405 1.387 . S
H403 C399 0.950 . S
H404 C401 0.950 . S
C405 C396 1.390 . S
C405 H398 0.950 . S
C405 C402 1.387 . S
C406 C407 1.387 1_556 S
C406 H410 0.950 . S
C406 C415 1.390 . S
C407 C406 1.387 1_554 S
C407 C409 1.387 . S
H408 C415 0.950 . S
C409 C407 1.387 . S
C409 C411 1.390 . S
C409 H413 0.950 . S
H410 C406 0.950 . S
C411 C409 1.390 . S
C411 C412 1.387 . S
C411 H414 0.950 . S
C412 C411 1.387 . S
C412 C415 1.387 1_554 S
H413 C409 0.950 . S
H414 C411 0.950 . S
C415 C406 1.390 . S
C415 H408 0.950 . S
C415 C412 1.387 1_556 S
C177 C5 1.455 . S
C182 C125 1.467 . S
C187 C31 1.473 . S
C192 C92 1.481 . S
C202 C104 1.478 . S
C197 C53 1.499 . S
C207 C71 1.481 . S
C212 C115 1.463 . S
C222 C148 1.465 . S
C217 C75 1.480 . S
C232 C159 1.476 . S
C227 C9 1.500 . S
C242 C169 1.480 . S
C237 C27 1.475 . S
C252 C136 1.466 . S
C247 C49 1.456 . S
C257 C51 1.455 . S
C262 C103 1.460 . S
C267 C72 1.473 . S
C272 C114 1.474 . S
C277 C6 1.499 . S
C282 C126 1.482 . S
C292 C93 1.467 . S
C287 C29 1.481 . S
C297 C28 1.481 . S
C302 C170 1.467 . S
C312 C137 1.482 . S
C307 C50 1.499 . S
C322 C147 1.473 . S
C317 C73 1.474 . S
C327 C7 1.454 . S
C332 C158 1.461 . S
C342 C98 1.509 . S
C337 C4 1.508 . S
C352 C109 1.513 . S
C347 C30 1.507 . S
C357 C52 1.508 . S
C362 C120 1.514 . S
C367 C70 1.508 . S
C372 C131 1.507 . S
C382 C142 1.508 . S
C377 C74 1.507 . S
C387 C8 1.508 . S
C392 C153 1.514 . S
C397 C26 1.507 . S
C402 C164 1.513 . S
C407 C48 1.509 . S
C412 C175 1.508 . S
