# Generated by pormake.
# Topology pts, (4,4)-cn, num edge types: 1
# Building blocks:
#     Node 0, Type 0, BuildingBlock: AZAVOO_clean_linker_0, # of connection points: 4
#     Node 1, Type 0, BuildingBlock: AZAVOO_clean_linker_0, # of connection points: 4
#     Node 2, Type 1, BuildingBlock: UXUYUI_clean_sbu_0, # of connection points: 4
#     Node 3, Type 1, BuildingBlock: UXUYUI_clean_sbu_0, # of connection points: 4
#     Edge 4, Type (0, 1), None
#     Edge 5, Type (0, 1), None
#     Edge 6, Type (0, 1), None
#     Edge 7, Type (0, 1), None
#     Edge 8, Type (0, 1), None
#     Edge 9, Type (0, 1), None
#     Edge 10, Type (0, 1), None
#     Edge 11, Type (0, 1), None
# Relax obj value: 0.147
# Max RMSD: 0.231
# Mean RMSD: 0.164
data_MOF--net-pts--node1-UXUYUI_clean_sbu_0--node2-AZAVOO_clean_linker_0--edge1-none
_symmetry_space_group_name_H-M    P1
_symmetry_Int_Tables_number       1
_symmetry_cell_setting            triclinic
loop_
_symmetry_equiv_pos_as_xyz
'x, y, z'
_cell_length_a     19.846282
_cell_length_b     19.857227
_cell_length_c     34.108715
_cell_angle_alpha  92.201845
_cell_angle_beta   92.106929
_cell_angle_gamma 90.1458
loop_
_atom_site_label
_atom_site_type_symbol
_atom_site_fract_x
_atom_site_fract_y
_atom_site_fract_z
_atom_type_partial_charge
H0 H 0.41058 0.13678 0.74779 0.0
H1 H 0.99093 0.99476 0.07155 0.0
H2 H 0.43376 0.20308 0.95914 0.0
H3 H 0.33382 0.20163 0.91495 0.0
H4 H 0.30719 0.98939 0.9335 0.0
H5 H 0.40736 0.99134 0.97754 0.0
H6 H 0.53976 0.1906 0.90291 0.0
H7 H 0.49173 0.18756 0.83567 0.0
H8 H 0.4517 0.97438 0.84346 0.0
H9 H 0.50028 0.97817 0.91052 0.0
H10 H 0.67466 0.18304 0.92453 0.0
H11 H 0.75602 0.17243 0.8722 0.0
H12 H 0.74687 0.95552 0.87798 0.0
H13 H 0.66597 0.96684 0.93041 0.0
H14 H 0.72961 0.18216 0.01373 0.0
H15 H 0.84769 0.1742 0.03657 0.0
H16 H 0.82871 0.95718 0.03652 0.0
H17 H 0.71072 0.96601 0.01371 0.0
H18 H 0.63677 0.18896 0.07928 0.0
H19 H 0.72622 0.18129 0.1298 0.0
H20 H 0.70075 0.96489 0.12759 0.0
H21 H 0.61374 0.97311 0.07566 0.0
H22 H 0.43814 0.19265 0.04376 0.0
H23 H 0.34636 0.1909 0.08991 0.0
H24 H 0.39934 0.98718 0.11825 0.0
H25 H 0.48972 0.98869 0.07137 0.0
O26 O 0.43135 0.13649 0.7739 0.0
O27 O 0.41379 0.02658 0.77906 0.0
O28 O 0.9524 0.11072 0.06039 0.0
O29 O 0.94504 0.99907 0.06141 0.0
C30 C 0.50001 0.0923 0.98337 0.0
C31 C 0.54721 0.08751 0.95329 0.0
C32 C 0.61628 0.08204 0.96284 0.0
C33 C 0.63862 0.08029 0.00236 0.0
C34 C 0.59159 0.08358 0.0327 0.0
C35 C 0.52178 0.08947 0.02329 0.0
C36 C 0.42777 0.09727 0.97139 0.0
C37 C 0.4044 0.15708 0.95514 0.0
C38 C 0.34806 0.15591 0.92942 0.0
C39 C 0.31382 0.09507 0.92012 0.0
C40 C 0.33267 0.03699 0.94012 0.0
C41 C 0.38947 0.0381 0.96561 0.0
C42 C 0.52347 0.08461 0.91143 0.0
C43 C 0.52139 0.14319 0.88979 0.0
C44 C 0.49361 0.14133 0.8515 0.0
C45 C 0.46762 0.08076 0.83423 0.0
C46 C 0.4712 0.02186 0.85586 0.0
C47 C 0.49907 0.0238 0.89409 0.0
C48 C 0.66506 0.07569 0.93121 0.0
C49 C 0.6902 0.13336 0.91428 0.0
C50 C 0.73603 0.12715 0.88425 0.0
C51 C 0.75753 0.06312 0.87095 0.0
C52 C 0.73151 0.00547 0.88783 0.0
C53 C 0.68549 0.01176 0.9177 0.0
C54 C 0.71184 0.07469 0.01223 0.0
C55 C 0.7514 0.13297 0.01822 0.0
C56 C 0.81866 0.12825 0.03143 0.0
C57 C 0.84752 0.06503 0.03861 0.0
C58 C 0.80805 0.00662 0.0314 0.0
C59 C 0.74078 0.01145 0.01823 0.0
C60 C 0.6185 0.08168 0.07379 0.0
C61 C 0.648 0.14029 0.09121 0.0
C62 C 0.69977 0.13564 0.11993 0.0
C63 C 0.72215 0.07221 0.13201 0.0
C64 C 0.68611 0.01439 0.11817 0.0
C65 C 0.63498 0.01907 0.08914 0.0
C66 C 0.47124 0.09104 0.05442 0.0
C67 C 0.43031 0.14786 0.0602 0.0
C68 C 0.37775 0.14669 0.08641 0.0
C69 C 0.36564 0.08889 0.1077 0.0
C70 C 0.40795 0.03274 0.10266 0.0
C71 C 0.45989 0.03365 0.07604 0.0
C72 C 0.43608 0.07934 0.79407 0.0
C73 C 0.91816 0.05993 0.05405 0.0
H74 H 0.02626 0.43203 0.24239 0.0
H75 H 0.16423 0.99212 0.56453 0.0
H76 H 0.96423 0.43672 0.45363 0.0
H77 H 0.95669 0.34015 0.40696 0.0
H78 H 0.16459 0.29207 0.43467 0.0
H79 H 0.17227 0.38995 0.48081 0.0
H80 H 0.98455 0.5499 0.39955 0.0
H81 H 0.98344 0.50878 0.33091 0.0
H82 H 0.18832 0.43886 0.34756 0.0
H83 H 0.18895 0.48093 0.41596 0.0
H84 H 0.98719 0.68986 0.44509 0.0
H85 H 0.98431 0.77385 0.39453 0.0
H86 H 0.18942 0.72419 0.36662 0.0
H87 H 0.19175 0.63984 0.41752 0.0
H88 H 0.98808 0.70848 0.52868 0.0
H89 H 0.99234 0.82709 0.5509 0.0
H90 H 0.20577 0.83205 0.52968 0.0
H91 H 0.20084 0.71301 0.50794 0.0
H92 H 0.98643 0.60388 0.58333 0.0
H93 H 0.98724 0.69196 0.63525 0.0
H94 H 0.20412 0.70613 0.63067 0.0
H95 H 0.20237 0.61897 0.57815 0.0
H96 H 0.97567 0.43193 0.53874 0.0
H97 H 0.97088 0.34006 0.58434 0.0
H98 H 0.17702 0.382 0.62307 0.0
H99 H 0.18124 0.47397 0.57728 0.0
O100 O 0.02833 0.44962 0.26927 0.0
O101 O 0.13385 0.41515 0.27935 0.0
O102 O 0.05233 0.93885 0.56827 0.0
O103 O 0.16128 0.94525 0.55579 0.0
C104 C 0.08025 0.49139 0.48394 0.0
C105 C 0.08627 0.53991 0.4549 0.0
C106 C 0.09057 0.60871 0.46583 0.0
C107 C 0.09196 0.62917 0.50579 0.0
C108 C 0.09046 0.58053 0.53516 0.0
C109 C 0.08335 0.51125 0.52431 0.0
C110 C 0.06889 0.4204 0.4704 0.0
C111 C 0.00719 0.40349 0.45103 0.0
C112 C 0.00323 0.34906 0.424 0.0
C113 C 0.06048 0.30991 0.41676 0.0
C114 C 0.11986 0.32182 0.43976 0.0
C115 C 0.12412 0.37712 0.46642 0.0
C116 C 0.08679 0.51829 0.41265 0.0
C117 C 0.02933 0.52632 0.38815 0.0
C118 C 0.02878 0.50255 0.34902 0.0
C119 C 0.08577 0.4704 0.33375 0.0
C120 C 0.14359 0.46337 0.35836 0.0
C121 C 0.14411 0.48732 0.39741 0.0
C122 C 0.08992 0.65961 0.4352 0.0
C123 C 0.03158 0.69744 0.4282 0.0
C124 C 0.03004 0.74519 0.39932 0.0
C125 C 0.08681 0.75573 0.3768 0.0
C126 C 0.14484 0.71671 0.38334 0.0
C127 C 0.14644 0.66905 0.41249 0.0
C128 C 0.09425 0.70223 0.51703 0.0
C129 C 0.03565 0.73537 0.52882 0.0
C130 C 0.03824 0.80307 0.54148 0.0
C131 C 0.09947 0.83902 0.54217 0.0
C132 C 0.15784 0.80584 0.52955 0.0
C133 C 0.15519 0.73798 0.51703 0.0
C134 C 0.09424 0.60533 0.57677 0.0
C135 C 0.03442 0.62323 0.5951 0.0
C136 C 0.03502 0.67428 0.62457 0.0
C137 C 0.09563 0.70762 0.63626 0.0
C138 C 0.15641 0.6828 0.62155 0.0
C139 C 0.1557 0.63191 0.59209 0.0
C140 C 0.07885 0.45962 0.55456 0.0
C141 C 0.01968 0.42149 0.55722 0.0
C142 C 0.01719 0.36875 0.58314 0.0
C143 C 0.07377 0.35321 0.60717 0.0
C144 C 0.13238 0.39289 0.60524 0.0
C145 C 0.13491 0.44548 0.57911 0.0
C146 C 0.08442 0.44347 0.2925 0.0
C147 C 0.10265 0.91067 0.55619 0.0
Li148 Li 0.06654 0.11218 0.27443 0.0
Li149 Li 0.07299 0.9876 0.26384 0.0
Li150 Li 0.12321 0.06771 0.21586 0.0
Li151 Li 0.00075 0.05487 0.21965 0.0
C152 C 0.19869 0.08461 0.29434 0.0
N153 N 0.29866 0.14837 0.3405 0.0
C154 C 0.22318 0.05531 0.3286 0.0
C155 C 0.22532 0.14598 0.28335 0.0
C156 C 0.27367 0.08844 0.35161 0.0
C157 C 0.27578 0.17751 0.30713 0.0
C158 C 0.9293 0.03818 0.28552 0.0
C159 C 0.82665 0.97308 0.28558 0.0
N160 N 0.79414 0.02772 0.30089 0.0
C161 C 0.89508 0.09358 0.30147 0.0
C162 C 0.89507 0.97731 0.27771 0.0
C163 C 0.82666 0.08731 0.30896 0.0
C164 C 0.04393 0.23985 0.3124 0.0
N165 N 0.06534 0.17567 0.31704 0.0
C166 C 0.08241 0.19593 0.38625 0.0
C167 C 0.08325 0.15279 0.35303 0.0
C168 C 0.06058 0.26239 0.38239 0.0
C169 C 0.04067 0.28427 0.345 0.0
H170 H 0.02874 0.2562 0.28352 0.0
H171 H 0.09775 0.10075 0.35593 0.0
C172 C 0.10836 0.85098 0.28371 0.0
N173 N 0.08106 0.91127 0.29459 0.0
C174 C 0.11136 0.79885 0.31024 0.0
C175 C 0.05902 0.87273 0.35821 0.0
C176 C 0.05729 0.92305 0.33102 0.0
C177 C 0.08587 0.80953 0.34792 0.0
H178 H 0.12754 0.84341 0.2546 0.0
H179 H 0.03713 0.97201 0.33901 0.0
C180 C 0.06053 0.18908 0.19339 0.0
N181 N 0.07417 0.28905 0.1401 0.0
C182 C 0.02617 0.184 0.15686 0.0
C183 C 0.10114 0.24532 0.20301 0.0
C184 C 0.03394 0.23499 0.13026 0.0
C185 C 0.10757 0.29523 0.17561 0.0
C186 C 0.05089 0.93213 0.18 0.0
C187 C 0.07014 0.93302 0.14103 0.0
C188 C 0.01427 0.8774 0.19273 0.0
C189 C 0.05187 0.87912 0.11525 0.0
C190 C 0.99691 0.82453 0.16603 0.0
N191 N 0.01589 0.82649 0.12817 0.0
C192 C 0.25922 0.05556 0.19507 0.0
C193 C 0.18903 0.10314 0.14586 0.0
C194 C 0.31503 0.05928 0.17136 0.0
N195 N 0.1978 0.07767 0.18214 0.0
C196 C 0.24359 0.10852 0.12136 0.0
C197 C 0.30762 0.08619 0.13398 0.0
H198 H 0.2648 0.03423 0.22369 0.0
H199 H 0.13953 0.11808 0.1355 0.0
C200 C 0.87264 0.10898 0.2018 0.0
N201 N 0.91438 0.05725 0.19194 0.0
C202 C 0.80864 0.11401 0.18356 0.0
C203 C 0.83212 0.01327 0.14467 0.0
C204 C 0.89529 0.00995 0.16382 0.0
C205 C 0.78754 0.0657 0.15446 0.0
H206 H 0.88925 0.14661 0.22383 0.0
H207 H 0.92902 0.96998 0.15563 0.0
O208 O 0.14839 0.05359 0.27186 0.0
O209 O 0.99599 0.04363 0.27749 0.0
O210 O 0.05262 0.14037 0.2201 0.0
O211 O 0.06879 0.98417 0.20565 0.0
H212 H 0.20294 0.00776 0.33746 0.0
H213 H 0.20708 0.16898 0.25679 0.0
H214 H 0.2929 0.06658 0.37833 0.0
H215 H 0.29672 0.22517 0.29907 0.0
H216 H 0.79938 0.92638 0.27952 0.0
H217 H 0.92097 0.14103 0.3077 0.0
H218 H 0.921 0.93394 0.26552 0.0
H219 H 0.7994 0.12984 0.32112 0.0
H220 H 0.09759 0.17736 0.41467 0.0
H221 H 0.02359 0.33537 0.34104 0.0
H222 H 0.13239 0.75065 0.30128 0.0
H223 H 0.04019 0.88347 0.38719 0.0
H224 H 0.99435 0.1409 0.14898 0.0
H225 H 0.12713 0.25058 0.23142 0.0
H226 H 0.00799 0.23161 0.10181 0.0
H227 H 0.13893 0.339 0.18263 0.0
H228 H 0.09869 0.975 0.1308 0.0
H229 H 0.99921 0.87587 0.22282 0.0
H230 H 0.06622 0.87916 0.08496 0.0
H231 H 0.96837 0.78194 0.17541 0.0
H232 H 0.3635 0.04146 0.18221 0.0
H233 H 0.23537 0.12824 0.09241 0.0
H234 H 0.77624 0.1554 0.19209 0.0
H235 H 0.8193 0.97601 0.12158 0.0
Li236 Li 0.99794 0.05154 0.76235 0.0
Li237 Li 0.11365 0.06039 0.77897 0.0
Li238 Li 0.06168 0.11227 0.71677 0.0
Li239 Li 0.07115 0.98553 0.72326 0.0
C240 C 0.00756 0.17592 0.79349 0.0
N241 N 0.91822 0.25444 0.83518 0.0
C242 C 0.00236 0.16864 0.83386 0.0
C243 C 0.96802 0.22365 0.77438 0.0
C244 C 0.9566 0.2086 0.85439 0.0
C245 C 0.92305 0.26282 0.79598 0.0
C246 C 0.09664 0.9259 0.79288 0.0
C247 C 0.20385 0.86885 0.79638 0.0
N248 N 0.17611 0.82052 0.81798 0.0
C249 C 0.06918 0.87538 0.81497 0.0
C250 C 0.16449 0.92232 0.78335 0.0
C251 C 0.11016 0.82264 0.82742 0.0
C252 C 0.86242 0.09266 0.78262 0.0
N253 N 0.91538 0.05098 0.78995 0.0
C254 C 0.86452 0.01285 0.84753 0.0
C255 C 0.91688 0.0112 0.8215 0.0
C256 C 0.81016 0.05658 0.84138 0.0
C257 C 0.80895 0.09633 0.80817 0.0
H258 H 0.86299 0.12541 0.75812 0.0
H259 H 0.96031 0.98036 0.82759 0.0
C260 C 0.2338 0.10938 0.81848 0.0
N261 N 0.17621 0.07337 0.82191 0.0
C262 C 0.2788 0.11854 0.8507 0.0
C263 C 0.20381 0.05419 0.88937 0.0
C264 C 0.16004 0.04683 0.85653 0.0
C265 C 0.26415 0.09028 0.88663 0.0
H266 H 0.24482 0.13075 0.79072 0.0
H267 H 0.11307 0.01969 0.8586 0.0
C268 C 0.9261 0.03459 0.69633 0.0
N269 N 0.78857 0.02276 0.68199 0.0
C270 C 0.89298 0.97434 0.70343 0.0
C271 C 0.88935 0.08876 0.68177 0.0
C272 C 0.82339 0.9694 0.69609 0.0
C273 C 0.81984 0.08177 0.67471 0.0
C274 C 0.19726 0.05433 0.69901 0.0
C275 C 0.18512 0.06648 0.65928 0.0
C276 C 0.26322 0.0431 0.71304 0.0
C277 C 0.23925 0.06738 0.63426 0.0
C278 C 0.31589 0.04383 0.687 0.0
N279 N 0.30294 0.05602 0.64849 0.0
C280 C 0.09807 0.2441 0.69576 0.0
C281 C 0.03909 0.17994 0.64547 0.0
C282 C 0.10117 0.2994 0.67163 0.0
N283 N 0.06712 0.18604 0.68242 0.0
C284 C 0.04083 0.23396 0.62043 0.0
C285 C 0.07191 0.29494 0.63343 0.0
H286 H 0.11981 0.24762 0.72532 0.0
H287 H 0.01542 0.13296 0.63542 0.0
C288 C 0.04497 0.84764 0.70798 0.0
N289 N 0.08346 0.89965 0.69647 0.0
C290 C 0.04952 0.78372 0.68964 0.0
C291 C 0.13439 0.8274 0.6484 0.0
C292 C 0.12806 0.89049 0.66746 0.0
C293 C 0.09434 0.77298 0.65915 0.0
H294 H 0.01023 0.85587 0.73134 0.0
H295 H 0.15814 0.93211 0.65861 0.0
O296 O 0.05099 0.13636 0.77272 0.0
O297 O 0.05663 0.97758 0.78023 0.0
O298 O 0.99423 0.04029 0.70321 0.0
O299 O 0.14528 0.05554 0.72431 0.0
H300 H 0.03264 0.13185 0.84904 0.0
H301 H 0.97137 0.22973 0.74311 0.0
H302 H 0.95147 0.20306 0.88556 0.0
H303 H 0.89174 0.29963 0.78154 0.0
H304 H 0.25645 0.86575 0.78927 0.0
H305 H 0.01659 0.87645 0.82222 0.0
H306 H 0.18676 0.9603 0.76616 0.0
H307 H 0.08948 0.7833 0.84453 0.0
H308 H 0.86814 0.98243 0.87321 0.0
H309 H 0.76785 0.13078 0.80246 0.0
H310 H 0.32526 0.14607 0.84729 0.0
H311 H 0.19059 0.03206 0.9166 0.0
H312 H 0.92059 0.93206 0.71481 0.0
H313 H 0.91396 0.13603 0.67649 0.0
H314 H 0.79706 0.92315 0.70163 0.0
H315 H 0.79071 0.12338 0.66363 0.0
H316 H 0.1344 0.07447 0.64783 0.0
H317 H 0.27376 0.03399 0.74371 0.0
H318 H 0.23068 0.07719 0.60351 0.0
H319 H 0.36713 0.03501 0.69741 0.0
H320 H 0.12517 0.34551 0.68301 0.0
H321 H 0.01868 0.22773 0.59102 0.0
H322 H 0.01796 0.7433 0.69908 0.0
H323 H 0.16875 0.82203 0.62455 0.0
loop_
_geom_bond_atom_site_label_1
_geom_bond_atom_site_label_2
_geom_bond_distance
_geom_bond_site_symmetry_2
_ccdc_geom_bond_type
H0 O26 0.856 . S
H1 O29 0.853 1_445 S
H2 C37 0.930 . S
H3 C38 0.930 . S
H4 C40 0.930 1_565 S
H5 C41 0.930 1_565 S
H6 C43 0.931 . S
H7 C44 0.930 . S
H8 C46 0.930 . S
H9 C47 0.929 . S
H10 C49 0.930 . S
H11 C50 0.931 . S
H12 C52 0.930 . S
H13 C53 0.929 . S
H14 C55 0.931 . S
H15 C56 0.930 . S
H16 C58 0.930 . S
H17 C59 0.929 1_565 S
H18 C61 0.930 . S
H19 C62 0.929 . S
H20 C64 0.931 . S
H21 C65 0.930 1_565 S
H22 C67 0.929 . S
H23 C68 0.931 . S
H24 C70 0.930 1_565 S
H25 C71 0.929 1_565 S
O26 H0 0.856 . S
O26 C72 1.300 . S
O27 C72 1.209 1_565 S
O28 C73 1.199 . S
O29 H1 0.853 1_665 S
O29 C73 1.292 1_565 S
C30 C31 1.404 . S
C30 C35 1.397 1_556 S
C30 C36 1.492 . S
C31 C30 1.404 . S
C31 C32 1.396 . S
C31 C42 1.492 . S
C32 C31 1.396 . S
C32 C33 1.397 . S
C32 C48 1.509 . S
C33 C32 1.397 . S
C33 C34 1.412 1_556 S
C33 C54 1.485 1_556 S
C34 C33 1.412 1_554 S
C34 C35 1.388 . S
C34 C60 1.490 . S
C35 C30 1.397 1_554 S
C35 C34 1.388 . S
C35 C66 1.519 . S
C36 C30 1.492 . S
C36 C37 1.363 . S
C36 C41 1.390 . S
C37 H2 0.930 . S
C37 C36 1.363 . S
C37 C38 1.372 . S
C38 H3 0.930 . S
C38 C37 1.372 . S
C38 C39 1.383 . S
C39 C38 1.383 . S
C39 C40 1.395 . S
C40 H4 0.930 1_545 S
C40 C39 1.395 . S
C40 C41 1.362 . S
C41 H5 0.930 1_545 S
C41 C36 1.390 . S
C41 C40 1.362 . S
C42 C31 1.492 . S
C42 C43 1.377 . S
C42 C47 1.397 1_545 S
C43 H6 0.931 . S
C43 C42 1.377 . S
C43 C44 1.376 . S
C44 H7 0.930 . S
C44 C43 1.376 . S
C44 C45 1.376 . S
C45 C44 1.376 . S
C45 C46 1.378 1_545 S
C45 C72 1.486 . S
C46 H8 0.930 . S
C46 C45 1.378 1_565 S
C46 C47 1.376 . S
C47 H9 0.929 . S
C47 C42 1.397 1_565 S
C47 C46 1.376 . S
C48 C32 1.509 . S
C48 C49 1.391 . S
C48 C53 1.386 1_545 S
C49 H10 0.930 . S
C49 C48 1.391 . S
C49 C50 1.375 . S
C50 H11 0.931 . S
C50 C49 1.375 . S
C50 C51 1.375 . S
C51 C50 1.375 . S
C51 C52 1.361 1_545 S
C52 H12 0.930 . S
C52 C51 1.361 1_565 S
C52 C53 1.399 . S
C53 H13 0.929 . S
C53 C48 1.386 1_565 S
C53 C52 1.399 . S
C54 C33 1.485 1_554 S
C54 C55 1.394 . S
C54 C59 1.363 1_554 S
C55 H14 0.931 . S
C55 C54 1.394 . S
C55 C56 1.372 . S
C56 H15 0.930 . S
C56 C55 1.372 . S
C56 C57 1.397 . S
C57 C56 1.397 . S
C57 C58 1.390 1_545 S
C57 C73 1.476 . S
C58 H16 0.930 . S
C58 C57 1.390 1_565 S
C58 C59 1.365 1_564 S
C59 H17 0.929 1_545 S
C59 C54 1.363 1_556 S
C59 C58 1.365 1_546 S
C60 C34 1.490 . S
C60 C61 1.380 . S
C60 C65 1.386 . S
C61 H18 0.930 . S
C61 C60 1.380 . S
C61 C62 1.381 . S
C62 H19 0.929 . S
C62 C61 1.381 . S
C62 C63 1.371 . S
C63 C62 1.371 . S
C63 C64 1.380 . S
C64 H20 0.931 . S
C64 C63 1.380 . S
C64 C65 1.387 . S
C65 H21 0.930 1_545 S
C65 C60 1.386 . S
C65 C64 1.387 . S
C66 C35 1.519 . S
C66 C67 1.377 . S
C66 C71 1.361 . S
C67 H22 0.929 . S
C67 C66 1.377 . S
C67 C68 1.386 . S
C68 H23 0.931 . S
C68 C67 1.386 . S
C68 C69 1.363 . S
C69 C68 1.363 . S
C69 C70 1.385 . S
C70 H24 0.930 1_545 S
C70 C69 1.385 . S
C70 C71 1.396 . S
C71 H25 0.929 1_545 S
C71 C66 1.361 . S
C71 C70 1.396 . S
C72 O26 1.300 . S
C72 O27 1.209 1_545 S
C72 C45 1.486 . S
C73 O28 1.199 . S
C73 O29 1.292 1_545 S
C73 C57 1.476 . S
H74 O100 0.856 . S
H75 O103 0.854 1_545 S
H76 C111 0.928 1_655 S
H77 C112 0.930 . S
H78 C114 0.930 . S
H79 C115 0.930 . S
H80 C117 0.931 1_655 S
H81 C118 0.930 1_655 S
H82 C120 0.930 . S
H83 C121 0.929 . S
H84 C123 0.930 1_655 S
H85 C124 0.931 1_655 S
H86 C126 0.930 . S
H87 C127 0.929 . S
H88 C129 0.931 1_655 S
H89 C130 0.930 1_655 S
H90 C132 0.930 . S
H91 C133 0.932 . S
H92 C135 0.930 1_655 S
H93 C136 0.929 1_655 S
H94 C138 0.931 . S
H95 C139 0.930 . S
H96 C141 0.929 1_655 S
H97 C142 0.931 1_655 S
H98 C144 0.930 . S
H99 C145 0.929 . S
O100 H74 0.856 . S
O100 C146 1.300 . S
O101 C146 1.209 . S
O102 C147 1.199 . S
O103 H75 0.854 1_565 S
O103 C147 1.297 . S
C104 C105 1.404 . S
C104 C109 1.397 . S
C104 C110 1.492 . S
C105 C104 1.404 . S
C105 C106 1.396 . S
C105 C116 1.492 . S
C106 C105 1.396 . S
C106 C107 1.397 . S
C106 C122 1.509 . S
C107 C106 1.397 . S
C107 C108 1.412 . S
C107 C128 1.485 . S
C108 C107 1.412 . S
C108 C109 1.388 . S
C108 C134 1.490 . S
C109 C104 1.397 . S
C109 C108 1.388 . S
C109 C140 1.519 . S
C110 C104 1.492 . S
C110 C111 1.365 . S
C110 C115 1.390 . S
C111 H76 0.928 1_455 S
C111 C110 1.365 . S
C111 C112 1.372 1_455 S
C112 H77 0.930 . S
C112 C111 1.372 1_655 S
C112 C113 1.383 1_655 S
C113 C112 1.383 1_455 S
C113 C114 1.395 . S
C114 H78 0.930 . S
C114 C113 1.395 . S
C114 C115 1.362 . S
C115 H79 0.930 . S
C115 C110 1.390 . S
C115 C114 1.362 . S
C116 C105 1.492 . S
C116 C117 1.377 . S
C116 C121 1.397 . S
C117 H80 0.931 1_455 S
C117 C116 1.377 . S
C117 C118 1.376 . S
C118 H81 0.930 1_455 S
C118 C117 1.376 . S
C118 C119 1.376 . S
C119 C118 1.376 . S
C119 C120 1.378 . S
C119 C146 1.486 . S
C120 H82 0.930 . S
C120 C119 1.378 . S
C120 C121 1.376 . S
C121 H83 0.929 . S
C121 C116 1.397 . S
C121 C120 1.376 . S
C122 C106 1.509 . S
C122 C123 1.391 . S
C122 C127 1.386 . S
C123 H84 0.930 1_455 S
C123 C122 1.391 . S
C123 C124 1.375 . S
C124 H85 0.931 1_455 S
C124 C123 1.375 . S
C124 C125 1.375 . S
C125 C124 1.375 . S
C125 C126 1.361 . S
C126 H86 0.930 . S
C126 C125 1.361 . S
C126 C127 1.399 . S
C127 H87 0.929 . S
C127 C122 1.386 . S
C127 C126 1.399 . S
C128 C107 1.485 . S
C128 C129 1.394 . S
C128 C133 1.360 . S
C129 H88 0.931 1_455 S
C129 C128 1.394 . S
C129 C130 1.372 . S
C130 H89 0.930 1_455 S
C130 C129 1.372 . S
C130 C131 1.397 . S
C131 C130 1.397 . S
C131 C132 1.390 . S
C131 C147 1.476 . S
C132 H90 0.930 . S
C132 C131 1.390 . S
C132 C133 1.366 . S
C133 H91 0.932 . S
C133 C128 1.360 . S
C133 C132 1.366 . S
C134 C108 1.490 . S
C134 C135 1.380 . S
C134 C139 1.386 . S
C135 H92 0.930 1_455 S
C135 C134 1.380 . S
C135 C136 1.381 . S
C136 H93 0.929 1_455 S
C136 C135 1.381 . S
C136 C137 1.371 . S
C137 C136 1.371 . S
C137 C138 1.380 . S
C138 H94 0.931 . S
C138 C137 1.380 . S
C138 C139 1.387 . S
C139 H95 0.930 . S
C139 C134 1.386 . S
C139 C138 1.387 . S
C140 C109 1.519 . S
C140 C141 1.377 . S
C140 C145 1.361 . S
C141 H96 0.929 1_455 S
C141 C140 1.377 . S
C141 C142 1.386 . S
C142 H97 0.931 1_455 S
C142 C141 1.386 . S
C142 C143 1.363 . S
C143 C142 1.363 . S
C143 C144 1.385 . S
C144 H98 0.930 . S
C144 C143 1.385 . S
C144 C145 1.396 . S
C145 H99 0.929 . S
C145 C140 1.361 . S
C145 C144 1.396 . S
C146 O100 1.300 . S
C146 O101 1.209 . S
C146 C119 1.486 . S
C147 O102 1.199 . S
C147 O103 1.297 . S
C147 C131 1.476 . S
Li148 N165 1.990 . S
Li148 O208 1.956 . S
Li148 O209 1.970 1_455 S
Li148 O210 1.961 . S
Li149 N173 1.995 . S
Li149 O208 1.967 1_565 S
Li149 O209 1.952 1_465 S
Li149 O211 1.961 . S
Li150 N195 1.990 . S
Li150 O208 1.961 . S
Li150 O210 1.956 . S
Li150 O211 1.970 1_545 S
Li151 N201 1.990 . S
Li151 O209 1.961 . S
Li151 O210 1.970 1_655 S
Li151 O211 1.956 1_645 S
C152 C154 1.348 . S
C152 C155 1.356 . S
C152 O208 1.325 . S
N153 C156 1.314 . S
N153 C157 1.279 . S
C154 C152 1.348 . S
C154 C156 1.353 . S
C154 H212 0.929 . S
C155 C152 1.356 . S
C155 C157 1.358 . S
C155 H213 0.930 . S
C156 N153 1.314 . S
C156 C154 1.353 . S
C156 H214 0.930 . S
C157 N153 1.279 . S
C157 C155 1.358 . S
C157 H215 0.930 . S
C158 C161 1.348 . S
C158 C162 1.356 . S
C158 O209 1.325 . S
C159 N160 1.279 . S
C159 C162 1.358 . S
C159 H216 0.930 1_545 S
N160 C159 1.279 . S
N160 C163 1.314 . S
C161 C158 1.348 . S
C161 C163 1.353 . S
C161 H217 0.929 . S
C162 C158 1.356 . S
C162 C159 1.358 . S
C162 H218 0.930 1_545 S
C163 N160 1.314 . S
C163 C161 1.353 . S
C163 H219 0.930 . S
C164 N165 1.314 . S
C164 C169 1.353 . S
C164 H170 0.930 1_455 S
N165 Li148 1.990 . S
N165 C164 1.314 . S
N165 C167 1.279 . S
C166 C167 1.358 . S
C166 C168 1.356 . S
C166 H220 0.930 . S
C167 N165 1.279 . S
C167 C166 1.358 . S
C167 H171 0.930 . S
C168 C166 1.356 . S
C168 C169 1.348 . S
C169 C164 1.353 . S
C169 C168 1.348 . S
C169 H221 0.929 1_455 S
H170 C164 0.930 1_655 S
H171 C167 0.930 . S
C172 N173 1.314 . S
C172 C174 1.353 . S
C172 H178 0.930 . S
N173 Li149 1.995 . S
N173 C172 1.314 . S
N173 C176 1.280 . S
C174 C172 1.353 . S
C174 C177 1.348 . S
C174 H222 0.929 . S
C175 C176 1.359 . S
C175 C177 1.356 . S
C175 H223 0.930 1_455 S
C176 N173 1.280 . S
C176 C175 1.359 . S
C176 H179 0.929 1_455 S
C177 C174 1.348 . S
C177 C175 1.356 . S
H178 C172 0.930 . S
H179 C176 0.929 1_655 S
C180 C182 1.348 1_455 S
C180 C183 1.356 . S
C180 O210 1.325 . S
N181 C184 1.316 . S
N181 C185 1.279 . S
C182 C180 1.348 1_655 S
C182 C184 1.353 1_655 S
C182 H224 0.929 . S
C183 C180 1.356 . S
C183 C185 1.358 . S
C183 H225 0.930 . S
C184 N181 1.316 . S
C184 C182 1.353 1_455 S
C184 H226 0.928 1_455 S
C185 N181 1.279 . S
C185 C183 1.358 . S
C185 H227 0.930 . S
C186 C187 1.348 . S
C186 C188 1.356 1_455 S
C186 O211 1.325 . S
C187 C186 1.348 . S
C187 C189 1.353 . S
C187 H228 0.929 . S
C188 C186 1.356 1_655 S
C188 C190 1.358 . S
C188 H229 0.930 . S
C189 C187 1.353 . S
C189 N191 1.314 . S
C189 H230 0.930 . S
C190 C188 1.358 . S
C190 N191 1.279 1_655 S
C190 H231 0.930 . S
N191 C189 1.314 . S
N191 C190 1.279 1_455 S
C192 C194 1.353 . S
C192 N195 1.314 . S
C192 H198 0.930 . S
C193 N195 1.279 . S
C193 C196 1.358 . S
C193 H199 0.930 . S
C194 C192 1.353 . S
C194 C197 1.348 . S
C194 H232 0.929 . S
N195 Li150 1.990 . S
N195 C192 1.314 . S
N195 C193 1.279 . S
C196 C193 1.358 . S
C196 C197 1.356 . S
C196 H233 0.930 . S
C197 C194 1.348 . S
C197 C196 1.356 . S
H198 C192 0.930 . S
H199 C193 0.930 . S
C200 N201 1.314 . S
C200 C202 1.353 . S
C200 H206 0.930 . S
N201 Li151 1.990 . S
N201 C200 1.314 . S
N201 C204 1.279 . S
C202 C200 1.353 . S
C202 C205 1.348 . S
C202 H234 0.929 . S
C203 C204 1.358 . S
C203 C205 1.356 . S
C203 H235 0.930 1_545 S
C204 N201 1.279 . S
C204 C203 1.358 . S
C204 H207 0.930 1_545 S
C205 C202 1.348 . S
C205 C203 1.356 . S
H206 C200 0.930 . S
H207 C204 0.930 1_565 S
O208 Li148 1.956 . S
O208 Li149 1.967 1_545 S
O208 Li150 1.961 . S
O208 C152 1.325 . S
O209 Li148 1.970 1_655 S
O209 Li149 1.952 1_645 S
O209 Li151 1.961 . S
O209 C158 1.325 . S
O210 Li148 1.961 . S
O210 Li150 1.956 . S
O210 Li151 1.970 1_455 S
O210 C180 1.325 . S
O211 Li149 1.961 . S
O211 Li150 1.970 1_565 S
O211 Li151 1.956 1_465 S
O211 C186 1.325 . S
H212 C154 0.929 . S
H213 C155 0.930 . S
H214 C156 0.930 . S
H215 C157 0.930 . S
H216 C159 0.930 1_565 S
H217 C161 0.929 . S
H218 C162 0.930 1_565 S
H219 C163 0.930 . S
H220 C166 0.930 . S
H221 C169 0.929 1_655 S
H222 C174 0.929 . S
H223 C175 0.930 1_655 S
H224 C182 0.929 . S
H225 C183 0.930 . S
H226 C184 0.928 1_655 S
H227 C185 0.930 . S
H228 C187 0.929 . S
H229 C188 0.930 . S
H230 C189 0.930 . S
H231 C190 0.930 . S
H232 C194 0.929 . S
H233 C196 0.930 . S
H234 C202 0.929 . S
H235 C203 0.930 1_565 S
Li236 N253 1.986 1_455 S
Li236 O296 1.960 . S
Li236 O297 1.974 1_545 S
Li236 O298 1.961 1_455 S
Li237 N261 1.990 . S
Li237 O296 1.970 . S
Li237 O297 1.956 1_545 S
Li237 O299 1.961 . S
Li238 N283 1.990 . S
Li238 O296 1.961 . S
Li238 O298 1.956 1_455 S
Li238 O299 1.970 . S
Li239 N289 1.990 . S
Li239 O297 1.961 . S
Li239 O298 1.970 1_465 S
Li239 O299 1.956 1_565 S
C240 C242 1.348 . S
C240 C243 1.356 . S
C240 O296 1.325 . S
N241 C244 1.314 . S
N241 C245 1.279 . S
C242 C240 1.348 . S
C242 C244 1.353 . S
C242 H300 0.929 . S
C243 C240 1.356 . S
C243 C245 1.358 . S
C243 H301 0.930 1_455 S
C244 N241 1.314 . S
C244 C242 1.353 . S
C244 H302 0.930 . S
C245 N241 1.279 . S
C245 C243 1.358 . S
C245 H303 0.930 1_455 S
C246 C249 1.348 . S
C246 C250 1.356 . S
C246 O297 1.325 . S
C247 N248 1.279 . S
C247 C250 1.358 . S
C247 H304 0.930 . S
N248 C247 1.279 . S
N248 C251 1.314 . S
C249 C246 1.348 . S
C249 C251 1.353 . S
C249 H305 0.929 . S
C250 C246 1.356 . S
C250 C247 1.358 . S
C250 H306 0.930 . S
C251 N248 1.314 . S
C251 C249 1.353 . S
C251 H307 0.930 . S
C252 N253 1.314 . S
C252 C257 1.353 . S
C252 H258 0.930 1_545 S
N253 Li236 1.986 1_655 S
N253 C252 1.314 . S
N253 C255 1.279 . S
C254 C255 1.358 . S
C254 C256 1.356 . S
C254 H308 0.930 . S
C255 N253 1.279 . S
C255 C254 1.358 . S
C255 H259 0.930 . S
C256 C254 1.356 . S
C256 C257 1.348 . S
C257 C252 1.353 . S
C257 C256 1.348 . S
C257 H309 0.929 1_545 S
H258 C252 0.930 1_565 S
H259 C255 0.930 . S
C260 N261 1.314 . S
C260 C262 1.353 . S
C260 H266 0.930 . S
N261 Li237 1.990 . S
N261 C260 1.314 . S
N261 C264 1.279 . S
C262 C260 1.353 . S
C262 C265 1.348 . S
C262 H310 0.929 . S
C263 C264 1.358 . S
C263 C265 1.356 . S
C263 H311 0.930 1_545 S
C264 N261 1.279 . S
C264 C263 1.358 . S
C264 H267 0.930 1_545 S
C265 C262 1.348 . S
C265 C263 1.356 . S
H266 C260 0.930 . S
H267 C264 0.930 1_565 S
C268 C270 1.348 1_545 S
C268 C271 1.356 . S
C268 O298 1.325 . S
N269 C272 1.307 1_545 S
N269 C273 1.279 . S
C270 C268 1.348 1_565 S
C270 C272 1.354 . S
C270 H312 0.929 . S
C271 C268 1.356 . S
C271 C273 1.358 . S
C271 H313 0.930 . S
C272 N269 1.307 1_565 S
C272 C270 1.354 . S
C272 H314 0.937 . S
C273 N269 1.279 . S
C273 C271 1.358 . S
C273 H315 0.930 . S
C274 C275 1.348 . S
C274 C276 1.356 1_545 S
C274 O299 1.325 . S
C275 C274 1.348 . S
C275 C277 1.353 . S
C275 H316 0.929 . S
C276 C274 1.356 1_565 S
C276 C278 1.358 . S
C276 H317 0.930 . S
C277 C275 1.353 . S
C277 N279 1.314 . S
C277 H318 0.930 . S
C278 C276 1.358 . S
C278 N279 1.279 1_565 S
C278 H319 0.930 . S
N279 C277 1.314 . S
N279 C278 1.279 1_545 S
C280 C282 1.353 . S
C280 N283 1.314 . S
C280 H286 0.930 . S
C281 N283 1.279 . S
C281 C284 1.358 . S
C281 H287 0.930 1_455 S
C282 C280 1.353 . S
C282 C285 1.348 . S
C282 H320 0.929 . S
N283 Li238 1.990 . S
N283 C280 1.314 . S
N283 C281 1.279 . S
C284 C281 1.358 . S
C284 C285 1.356 . S
C284 H321 0.930 1_455 S
C285 C282 1.348 . S
C285 C284 1.356 . S
H286 C280 0.930 . S
H287 C281 0.930 1_655 S
C288 N289 1.314 . S
C288 C290 1.353 . S
C288 H294 0.930 . S
N289 Li239 1.990 . S
N289 C288 1.314 . S
N289 C292 1.279 . S
C290 C288 1.353 . S
C290 C293 1.348 . S
C290 H322 0.929 . S
C291 C292 1.358 . S
C291 C293 1.356 . S
C291 H323 0.930 . S
C292 N289 1.279 . S
C292 C291 1.358 . S
C292 H295 0.930 . S
C293 C290 1.348 . S
C293 C291 1.356 . S
H294 C288 0.930 . S
H295 C292 0.930 . S
O296 Li236 1.960 . S
O296 Li237 1.970 . S
O296 Li238 1.961 . S
O296 C240 1.325 . S
O297 Li236 1.974 1_565 S
O297 Li237 1.956 1_565 S
O297 Li239 1.961 . S
O297 C246 1.325 . S
O298 Li236 1.961 1_655 S
O298 Li238 1.956 1_655 S
O298 Li239 1.970 1_645 S
O298 C268 1.325 . S
O299 Li237 1.961 . S
O299 Li238 1.970 . S
O299 Li239 1.956 1_545 S
O299 C274 1.325 . S
H300 C242 0.929 . S
H301 C243 0.930 1_655 S
H302 C244 0.930 . S
H303 C245 0.930 1_655 S
H304 C247 0.930 . S
H305 C249 0.929 . S
H306 C250 0.930 . S
H307 C251 0.930 . S
H308 C254 0.930 . S
H309 C257 0.929 1_565 S
H310 C262 0.929 . S
H311 C263 0.930 1_565 S
H312 C270 0.929 . S
H313 C271 0.930 . S
H314 C272 0.937 . S
H315 C273 0.930 . S
H316 C275 0.929 . S
H317 C276 0.930 . S
H318 C277 0.930 . S
H319 C278 0.930 . S
H320 C282 0.929 . S
H321 C284 0.930 1_655 S
H322 C290 0.929 . S
H323 C291 0.930 . S
C197 C69 2.627 . S
C285 C143 2.662 . S
C205 C63 2.073 . S
C293 C137 2.011 . S
C265 C39 2.342 . S
C168 C113 2.236 . S
C256 C51 0.550 . S
C125 C177 1.012 . S
