# Generated by pormake.
# Topology ptr, (4,4)-cn, num edge types: 1
# Building blocks:
#     Node 0, Type 0, BuildingBlock: GALJAG_clean_sbu_0, # of connection points: 4
#     Node 1, Type 0, BuildingBlock: GALJAG_clean_sbu_0, # of connection points: 4
#     Node 2, Type 0, BuildingBlock: GALJAG_clean_sbu_0, # of connection points: 4
#     Node 3, Type 0, BuildingBlock: GALJAG_clean_sbu_0, # of connection points: 4
#     Node 4, Type 0, BuildingBlock: GALJAG_clean_sbu_0, # of connection points: 4
#     Node 5, Type 0, BuildingBlock: GALJAG_clean_sbu_0, # of connection points: 4
#     Node 6, Type 0, BuildingBlock: GALJAG_clean_sbu_0, # of connection points: 4
#     Node 7, Type 0, BuildingBlock: GALJAG_clean_sbu_0, # of connection points: 4
#     Node 8, Type 0, BuildingBlock: GALJAG_clean_sbu_0, # of connection points: 4
#     Node 9, Type 0, BuildingBlock: GALJAG_clean_sbu_0, # of connection points: 4
#     Node 10, Type 0, BuildingBlock: GALJAG_clean_sbu_0, # of connection points: 4
#     Node 11, Type 0, BuildingBlock: GALJAG_clean_sbu_0, # of connection points: 4
#     Node 12, Type 0, BuildingBlock: GALJAG_clean_sbu_0, # of connection points: 4
#     Node 13, Type 0, BuildingBlock: GALJAG_clean_sbu_0, # of connection points: 4
#     Node 14, Type 0, BuildingBlock: GALJAG_clean_sbu_0, # of connection points: 4
#     Node 15, Type 0, BuildingBlock: GALJAG_clean_sbu_0, # of connection points: 4
#     Node 16, Type 0, BuildingBlock: GALJAG_clean_sbu_0, # of connection points: 4
#     Node 17, Type 0, BuildingBlock: GALJAG_clean_sbu_0, # of connection points: 4
#     Node 18, Type 1, BuildingBlock: NAWXER_clean_linker_0, # of connection points: 4
#     Node 19, Type 1, BuildingBlock: NAWXER_clean_linker_0, # of connection points: 4
#     Node 20, Type 1, BuildingBlock: NAWXER_clean_linker_0, # of connection points: 4
#     Node 21, Type 1, BuildingBlock: NAWXER_clean_linker_0, # of connection points: 4
#     Node 22, Type 1, BuildingBlock: NAWXER_clean_linker_0, # of connection points: 4
#     Node 23, Type 1, BuildingBlock: NAWXER_clean_linker_0, # of connection points: 4
#     Node 24, Type 1, BuildingBlock: NAWXER_clean_linker_0, # of connection points: 4
#     Node 25, Type 1, BuildingBlock: NAWXER_clean_linker_0, # of connection points: 4
#     Node 26, Type 1, BuildingBlock: NAWXER_clean_linker_0, # of connection points: 4
#     Node 27, Type 1, BuildingBlock: NAWXER_clean_linker_0, # of connection points: 4
#     Node 28, Type 1, BuildingBlock: NAWXER_clean_linker_0, # of connection points: 4
#     Node 29, Type 1, BuildingBlock: NAWXER_clean_linker_0, # of connection points: 4
#     Node 30, Type 1, BuildingBlock: NAWXER_clean_linker_0, # of connection points: 4
#     Node 31, Type 1, BuildingBlock: NAWXER_clean_linker_0, # of connection points: 4
#     Node 32, Type 1, BuildingBlock: NAWXER_clean_linker_0, # of connection points: 4
#     Node 33, Type 1, BuildingBlock: NAWXER_clean_linker_0, # of connection points: 4
#     Node 34, Type 1, BuildingBlock: NAWXER_clean_linker_0, # of connection points: 4
#     Node 35, Type 1, BuildingBlock: NAWXER_clean_linker_0, # of connection points: 4
#     Edge 36, Type (0, 1), None
#     Edge 37, Type (0, 1), None
#     Edge 38, Type (0, 1), None
#     Edge 39, Type (0, 1), None
#     Edge 40, Type (0, 1), None
#     Edge 41, Type (0, 1), None
#     Edge 42, Type (0, 1), None
#     Edge 43, Type (0, 1), None
#     Edge 44, Type (0, 1), None
#     Edge 45, Type (0, 1), None
#     Edge 46, Type (0, 1), None
#     Edge 47, Type (0, 1), None
#     Edge 48, Type (0, 1), None
#     Edge 49, Type (0, 1), None
#     Edge 50, Type (0, 1), None
#     Edge 51, Type (0, 1), None
#     Edge 52, Type (0, 1), None
#     Edge 53, Type (0, 1), None
#     Edge 54, Type (0, 1), None
#     Edge 55, Type (0, 1), None
#     Edge 56, Type (0, 1), None
#     Edge 57, Type (0, 1), None
#     Edge 58, Type (0, 1), None
#     Edge 59, Type (0, 1), None
#     Edge 60, Type (0, 1), None
#     Edge 61, Type (0, 1), None
#     Edge 62, Type (0, 1), None
#     Edge 63, Type (0, 1), None
#     Edge 64, Type (0, 1), None
#     Edge 65, Type (0, 1), None
#     Edge 66, Type (0, 1), None
#     Edge 67, Type (0, 1), None
#     Edge 68, Type (0, 1), None
#     Edge 69, Type (0, 1), None
#     Edge 70, Type (0, 1), None
#     Edge 71, Type (0, 1), None
#     Edge 72, Type (0, 1), None
#     Edge 73, Type (0, 1), None
#     Edge 74, Type (0, 1), None
#     Edge 75, Type (0, 1), None
#     Edge 76, Type (0, 1), None
#     Edge 77, Type (0, 1), None
#     Edge 78, Type (0, 1), None
#     Edge 79, Type (0, 1), None
#     Edge 80, Type (0, 1), None
#     Edge 81, Type (0, 1), None
#     Edge 82, Type (0, 1), None
#     Edge 83, Type (0, 1), None
#     Edge 84, Type (0, 1), None
#     Edge 85, Type (0, 1), None
#     Edge 86, Type (0, 1), None
#     Edge 87, Type (0, 1), None
#     Edge 88, Type (0, 1), None
#     Edge 89, Type (0, 1), None
#     Edge 90, Type (0, 1), None
#     Edge 91, Type (0, 1), None
#     Edge 92, Type (0, 1), None
#     Edge 93, Type (0, 1), None
#     Edge 94, Type (0, 1), None
#     Edge 95, Type (0, 1), None
#     Edge 96, Type (0, 1), None
#     Edge 97, Type (0, 1), None
#     Edge 98, Type (0, 1), None
#     Edge 99, Type (0, 1), None
#     Edge 100, Type (0, 1), None
#     Edge 101, Type (0, 1), None
#     Edge 102, Type (0, 1), None
#     Edge 103, Type (0, 1), None
#     Edge 104, Type (0, 1), None
#     Edge 105, Type (0, 1), None
#     Edge 106, Type (0, 1), None
#     Edge 107, Type (0, 1), None
# Relax obj value: 0.045
# Max RMSD: 0.081
# Mean RMSD: 0.066
data_MOF--net-ptr--node1-GALJAG_clean_sbu_0--node2-NAWXER_clean_linker_0--edge1-none
_symmetry_space_group_name_H-M    P1
_symmetry_Int_Tables_number       1
_symmetry_cell_setting            triclinic
loop_
_symmetry_equiv_pos_as_xyz
'x, y, z'
_cell_length_a     47.061039
_cell_length_b     47.101287
_cell_length_c     35.115245
_cell_angle_alpha  90.097055
_cell_angle_beta   89.988428
_cell_angle_gamma 120.09897
loop_
_atom_site_label
_atom_site_type_symbol
_atom_site_fract_x
_atom_site_fract_y
_atom_site_fract_z
_atom_type_partial_charge
In0 In -0.01017 0.34317 0.02752 0.0
O1 O 0.95423 0.35069 0.06569 0.0
O2 O 0.00546 0.38164 0.07419 0.0
C3 C 0.95011 0.28578 0.99247 0.0
C4 C 0.02972 0.32654 0.0638 0.0
C5 C 0.00334 0.38486 0.96849 0.0
O6 O 0.94002 0.29718 1.01848 0.0
O7 O 0.98034 0.30294 0.98498 0.0
O8 O 0.02573 0.38466 0.98807 0.0
O9 O 0.97459 0.36454 0.97899 0.0
C10 C 0.97685 0.374 0.08439 0.0
O11 O 0.03964 0.34741 0.03719 0.0
O12 O -0.00048 0.31358 0.07147 0.0
In13 In 0.64224 0.64804 0.0262 0.0
O14 O 0.6384 0.61149 0.07216 0.0
O15 O 0.59601 0.61475 0.05832 0.0
C16 C 0.69977 0.66369 0.99278 0.0
C17 C 0.65615 0.70193 0.06726 0.0
C18 C 0.60026 0.62011 0.96725 0.0
O19 O 0.68548 0.63981 1.01554 0.0
O20 O 0.68561 0.68016 0.98814 0.0
O21 O 0.60001 0.64212 0.98772 0.0
O22 O 0.62172 0.6128 0.97631 0.0
C23 C 0.60838 0.60161 0.07862 0.0
O24 O 0.64811 0.69924 0.03253 0.0
O25 O 0.6575 0.67793 0.08083 0.0
In26 In 0.34159 -0.00476 0.02877 0.0
O27 O 0.34516 0.04474 1.01919 0.0
O28 O 0.31056 0.0041 0.98602 0.0
C29 C 0.38498 0.00925 0.08622 0.0
C30 C 0.37045 0.98106 0.97093 0.0
C31 C 0.28528 0.95544 0.06553 0.0
O32 O 0.38447 0.03153 0.06679 0.0
O33 O 0.36414 0.98048 0.07635 0.0
O34 O 0.29619 0.9454 0.03895 0.0
O35 O 0.30235 0.98572 0.0728 0.0
C36 C 0.3235 0.03434 0.99336 0.0
O37 O 0.34743 0.95891 0.9903 0.0
O38 O 0.37884 0.0099 0.98091 0.0
In39 In -0.00752 0.64804 0.0286 0.0
O40 O 0.02437 0.64438 0.98083 0.0
O41 O 0.9786 0.60239 0.99444 0.0
C42 C 0.03333 0.70393 0.06576 0.0
C43 C 0.95187 0.66286 0.99057 0.0
C44 C 0.97948 0.60668 0.08749 0.0
O45 O 0.04343 0.69113 0.0415 0.0
O46 O 0.00257 0.68901 0.07036 0.0
O47 O 0.95693 0.60795 0.06936 0.0
O48 O 0.00822 0.6263 0.07607 0.0
C49 C 0.00391 0.6146 0.97389 0.0
O50 O 0.94245 0.6434 1.01853 0.0
O51 O 0.9819 0.67541 0.98244 0.0
In52 In 0.33601 0.34371 0.02665 0.0
O53 O 0.34389 0.38765 0.98984 0.0
O54 O 0.37248 0.36535 0.97807 0.0
C55 C 0.28099 0.32783 0.06589 0.0
C56 C 0.31866 0.28556 0.9936 0.0
C57 C 0.37988 0.3739 0.08293 0.0
O58 O 0.28517 0.33877 0.03224 0.0
O59 O 0.30394 0.32434 0.07907 0.0
O60 O 0.37735 0.34904 0.06587 0.0
O61 O 0.36105 0.38373 0.07088 0.0
C62 C 0.36592 0.38737 0.96953 0.0
O63 O 0.34139 0.2986 1.01805 0.0
O64 O 0.30417 0.30142 0.98674 0.0
In65 In 0.64108 0.99311 0.02887 0.0
O66 O 0.63502 0.02941 0.06731 0.0
O67 O 0.60384 0.97841 0.07679 0.0
C68 C 0.69774 0.03274 0.99248 0.0
C69 C 0.65861 0.95359 0.06435 0.0
C70 C 0.59768 0.97914 0.97142 0.0
O71 O 0.6868 0.04284 1.01896 0.0
O72 O 0.68049 0.0025 0.98508 0.0
O73 O 0.59814 0.95689 0.99094 0.0
O74 O 0.61863 0.00792 0.98115 0.0
C75 C 0.61206 0.00722 0.08674 0.0
O76 O 0.63727 0.94345 0.03817 0.0
O77 O 0.67154 0.98378 0.07197 0.0
In78 In 0.65564 0.67399 0.36262 0.0
O79 O 0.61916 0.67967 0.40096 0.0
O80 O 0.67023 0.70883 0.41286 0.0
C81 C 0.61519 0.62019 0.3216 0.0
C82 C 0.69721 0.65812 0.39638 0.0
C83 C 0.66878 0.72076 0.31039 0.0
O84 O 0.6099 0.62296 0.35631 0.0
O85 O 0.64074 0.64406 0.308 0.0
O86 O 0.68856 0.71043 0.31651 0.0
O87 O 0.64335 0.70791 0.33092 0.0
C88 C 0.64137 0.70143 0.42177 0.0
O89 O 0.70707 0.68213 0.37378 0.0
O90 O 0.66648 0.6416 0.40061 0.0
In91 In 0.31028 0.98044 0.36402 0.0
O92 O 0.30696 0.94482 0.41136 0.0
O93 O 0.2647 0.94813 0.39806 0.0
C94 C 0.36647 -0.00375 0.32726 0.0
C95 C 0.32469 0.03549 0.40292 0.0
C96 C 0.26918 0.95207 0.30459 0.0
O97 O 0.35359 0.9731 0.35116 0.0
O98 O 0.35147 0.01196 0.32279 0.0
O99 O 0.27021 0.9757 0.32294 0.0
O100 O 0.28886 0.94312 0.3161 0.0
C101 C 0.27714 0.93519 0.41842 0.0
O102 O 0.30518 0.02546 0.37491 0.0
O103 O 0.33751 0.01823 0.4106 0.0
In104 In 0.00217 0.32725 0.36066 0.0
O105 O 0.01031 0.37833 0.34914 0.0
O106 O 0.97172 0.33793 0.31922 0.0
C107 C 0.0456 0.33591 0.41595 0.0
C108 C 0.03134 0.3159 0.30118 0.0
C109 C 0.94644 0.28725 0.39856 0.0
O110 O 0.03816 0.35771 0.40883 0.0
O111 O 0.03155 0.3108 0.39509 0.0
O112 O 0.95619 0.27758 0.37046 0.0
O113 O 0.96427 0.31725 0.40668 0.0
C114 C 0.98763 0.36859 0.32455 0.0
O115 O 0.00672 0.29293 0.31788 0.0
O116 O 0.0409 0.3442 0.3144 0.0
In117 In 0.65618 0.97759 0.36416 0.0
O118 O 0.69215 0.97229 0.32459 0.0
O119 O 0.641 0.94067 0.31591 0.0
C120 C 0.69592 0.03394 0.40114 0.0
C121 C 0.61689 -0.00499 0.32804 0.0
C122 C 0.64259 0.93344 0.42055 0.0
O123 O 0.706 0.02296 0.37471 0.0
O124 O 0.6656 0.01685 0.40829 0.0
O125 O 0.62017 0.93486 0.40239 0.0
O126 O 0.67131 0.95389 0.41008 0.0
C127 C 0.66975 0.94942 0.30518 0.0
O128 O 0.60654 0.97371 0.35421 0.0
O129 O 0.64721 0.0082 0.32108 0.0
In130 In 0.00763 0.67782 0.36299 0.0
O131 O 0.01476 0.7206 0.3247 0.0
O132 O 0.0466 0.70133 0.31708 0.0
C133 C 0.9503 0.66012 0.39793 0.0
C134 C -0.00879 0.62174 0.32563 0.0
C135 C 0.04904 0.70578 0.42248 0.0
O136 O 0.96192 0.68185 0.37228 0.0
O137 O 0.96716 0.64671 0.40507 0.0
O138 O 0.04859 0.68295 0.40308 0.0
O139 O 0.02917 0.71458 0.41151 0.0
C140 C 0.03847 0.72178 0.30647 0.0
O141 O 0.01215 0.63259 0.35225 0.0
O142 O 0.97797 0.63878 0.31859 0.0
In143 In 0.30979 0.32563 0.36143 0.0
O144 O 0.30383 0.27522 0.37262 0.0
O145 O 0.33885 0.31574 0.40565 0.0
C146 C 0.26686 0.31674 0.3054 0.0
C147 C 0.27661 0.33294 0.4193 0.0
C148 C 0.36563 0.36704 0.32479 0.0
O149 O 0.2746 0.29517 0.31279 0.0
O150 O 0.28105 0.34223 0.32575 0.0
O151 O 0.35381 0.37657 0.35089 0.0
O152 O 0.34961 0.33664 0.31788 0.0
C153 C 0.32478 0.2853 0.39927 0.0
O154 O 0.30485 0.35589 0.40984 0.0
O155 O 0.26583 0.3071 0.39969 0.0
In156 In 0.32205 0.00867 0.69988 0.0
O157 O 0.3728 0.0144 0.70846 0.0
O158 O 0.33272 0.97732 0.73991 0.0
C159 C 0.33533 0.05343 0.645 0.0
C160 C 0.30719 0.03715 0.75754 0.0
C161 C 0.28346 0.95365 0.66012 0.0
O162 O 0.35789 0.05098 0.66155 0.0
O163 O 0.30665 0.03393 0.65672 0.0
O164 O 0.27665 0.95754 0.69387 0.0
O165 O 0.30971 0.97698 0.64695 0.0
C166 C 0.36312 0.99186 0.73308 0.0
O167 O 0.28518 0.0151 0.73687 0.0
O168 O 0.33606 0.04447 0.74905 0.0
In169 In 0.97508 0.31086 0.69708 0.0
O170 O 0.97003 0.35631 0.70494 0.0
O171 O 0.00693 0.35329 0.73667 0.0
C172 C 0.93025 0.27996 0.64162 0.0
C173 C 0.94631 0.26763 0.7548 0.0
C174 C 0.03037 0.32648 0.65849 0.0
O175 O 0.93273 0.30471 0.65886 0.0
O176 O 0.94975 0.2707 0.65291 0.0
O177 O 0.0259 0.31566 0.69219 0.0
O178 O 0.00749 0.32986 0.64482 0.0
C179 C -0.00728 0.36934 0.72946 0.0
O180 O 0.96777 0.2671 0.73368 0.0
O181 O 0.93965 0.28966 0.74673 0.0
In182 In 0.67303 0.6595 0.69459 0.0
O183 O 0.6771 0.70914 0.6847 0.0
O184 O 0.6426 0.66866 0.65122 0.0
C185 C 0.71614 0.67374 0.75244 0.0
C186 C 0.70241 0.64566 0.63692 0.0
C187 C 0.61618 0.62016 0.73078 0.0
O188 O 0.71554 0.69589 0.73286 0.0
O189 O 0.69548 0.64491 0.74255 0.0
O190 O 0.62725 0.60981 0.7047 0.0
O191 O 0.63342 0.65046 0.73787 0.0
C192 C 0.65574 0.69893 0.65854 0.0
O193 O 0.6795 0.62334 0.65628 0.0
O194 O 0.71042 0.6744 0.64689 0.0
In195 In 0.32001 0.31047 0.70068 0.0
O196 O 0.35615 0.30453 0.66206 0.0
O197 O 0.30502 0.27052 0.65614 0.0
C198 C 0.36116 0.36853 0.73394 0.0
C199 C 0.28056 0.32641 0.66232 0.0
C200 C 0.30547 0.26695 0.75801 0.0
O201 O 0.3707 0.35567 0.70912 0.0
O202 O 0.33079 0.35258 0.741 0.0
O203 O 0.28342 0.26656 0.73713 0.0
O204 O 0.33425 0.28896 0.74986 0.0
C205 C 0.33379 0.27985 0.64471 0.0
O206 O 0.27371 0.31475 0.69563 0.0
O207 O 0.30723 0.33052 0.64899 0.0
In208 In 0.6728 0.00736 0.69624 0.0
O209 O 0.67891 0.04985 0.65838 0.0
O210 O 0.7106 0.03062 0.64913 0.0
C211 C 0.616 0.99046 0.73213 0.0
C212 C 0.6558 0.95087 0.65935 0.0
C213 C 0.71613 0.03692 0.75383 0.0
O214 O 0.62718 0.01144 0.70566 0.0
O215 O 0.63307 0.97735 0.73976 0.0
O216 O 0.71543 0.0139 0.73459 0.0
O217 O 0.69535 0.04483 0.74388 0.0
C218 C 0.70222 0.05107 0.6393 0.0
O219 O 0.67664 0.96162 0.68608 0.0
O220 O 0.64294 0.96819 0.65201 0.0
In221 In 0.97438 0.65939 0.69461 0.0
O222 O 0.97966 0.61376 0.6998 0.0
O223 O -0.00717 0.64607 0.74747 0.0
C224 C 0.93152 0.64514 0.63642 0.0
C225 C 0.94313 0.67308 0.74958 0.0
C226 C 0.03297 0.7003 0.66249 0.0
O227 O 0.93081 0.62301 0.65737 0.0
O228 O 0.95354 0.67383 0.64491 0.0
O229 O 0.01992 0.71 0.6869 0.0
O230 O 0.01691 0.66998 0.65532 0.0
C231 C -0.01005 0.62002 0.73376 0.0
O232 O 0.96832 0.69546 0.73306 0.0
O233 O 0.93364 0.64438 0.73778 0.0
C234 C 0.25806 0.3356 0.12597 0.0
C235 C 0.25276 0.32182 0.08943 0.0
C236 C 0.23156 0.3307 0.14857 0.0
C237 C 0.1991 0.31027 0.13593 0.0
C238 C 0.22063 0.30255 0.07593 0.0
C239 C 0.19403 0.2965 0.09916 0.0
C240 C 0.17024 0.30572 0.15829 0.0
C241 C 0.22947 0.28684 0.24982 0.0
C242 C 0.24199 0.31252 0.27672 0.0
C243 C 0.20543 0.2834 0.2235 0.0
C244 C 0.19351 0.30543 0.22415 0.0
C245 C 0.23007 0.33452 0.27681 0.0
C246 C 0.20594 0.33082 0.25112 0.0
C247 C 0.16725 0.3023 0.19842 0.0
C248 C 0.0487 0.28026 0.26743 0.0
C249 C 0.04932 0.31031 0.27039 0.0
C250 C 0.06948 0.27674 0.24175 0.0
C251 C 0.09034 0.30283 0.21789 0.0
C252 C 0.06959 0.33608 0.24572 0.0
C253 C 0.08977 0.33229 0.21948 0.0
C254 C 0.11588 0.30098 0.19552 0.0
C255 C 0.08613 0.33787 0.08004 0.0
C256 C 0.05207 0.31931 0.08582 0.0
C257 C 0.1075 0.33263 0.10259 0.0
C258 C 0.09531 0.30878 0.13143 0.0
C259 C 0.03974 0.29474 0.11388 0.0
C260 C 0.06115 0.28932 0.13626 0.0
C261 C 0.11877 0.30457 0.15561 0.0
H262 H 0.28282 0.35116 0.13652 0.0
H263 H 0.23682 0.34385 0.17523 0.0
H264 H 0.21611 0.29179 0.04771 0.0
H265 H 0.16939 0.28121 0.08818 0.0
H266 H 0.23823 0.26952 0.24916 0.0
H267 H 0.1959 0.26348 0.20306 0.0
H268 H 0.23904 0.35447 0.2972 0.0
H269 H 0.19703 0.34803 0.25218 0.0
H270 H 0.03347 0.26011 0.28629 0.0
H271 H 0.06994 0.25398 0.24122 0.0
H272 H 0.07049 0.35949 0.24742 0.0
H273 H 0.1061 0.35288 0.20172 0.0
H274 H 0.09637 0.35694 0.0586 0.0
H275 H 0.13371 0.34781 0.09799 0.0
H276 H 0.01355 0.27982 0.1187 0.0
H277 H 0.05093 0.2699 0.15724 0.0
N278 N 0.14572 0.30658 0.13871 0.0
N279 N 0.1402 0.30008 0.21521 0.0
C280 C 0.6479 0.89743 0.08051 0.0
C281 C 0.66637 0.9315 0.08608 0.0
C282 C 0.65358 0.87633 0.10296 0.0
C283 C 0.6778 0.88883 0.13149 0.0
C284 C 0.69134 0.94413 0.11376 0.0
C285 C 0.6972 0.923 0.13604 0.0
C286 C 0.68233 0.86566 0.15581 0.0
C287 C 0.70628 0.93354 0.27078 0.0
C288 C 0.67622 0.93293 0.2734 0.0
C289 C 0.71049 0.91418 0.24367 0.0
C290 C 0.68511 0.89476 0.21812 0.0
C291 C 0.65128 0.9144 0.24689 0.0
C292 C 0.65575 0.89558 0.21934 0.0
C293 C 0.68685 0.86926 0.19558 0.0
C294 C 0.69908 0.75615 0.25377 0.0
C295 C 0.67393 0.74546 0.28118 0.0
C296 C 0.70268 0.77921 0.22602 0.0
C297 C 0.68119 0.79177 0.22564 0.0
C298 C 0.65256 0.75812 0.28032 0.0
C299 C 0.65629 0.7811 0.25307 0.0
C300 C 0.6849 0.81767 0.19912 0.0
C301 C 0.64995 0.72562 0.12789 0.0
C302 C 0.66265 0.73038 0.09083 0.0
C303 C 0.6555 0.75243 0.15039 0.0
C304 C 0.6755 0.7847 0.13705 0.0
C305 C 0.68155 0.76232 0.07677 0.0
C306 C 0.68824 0.78921 0.09982 0.0
C307 C 0.68064 0.81395 0.1591 0.0
H308 H 0.62853 0.88697 0.05936 0.0
H309 H 0.63843 0.85011 0.09858 0.0
H310 H 0.70621 0.97034 0.11841 0.0
H311 H 0.71686 0.93344 0.15679 0.0
H312 H 0.72584 0.94755 0.29094 0.0
H313 H 0.73311 0.91339 0.24354 0.0
H314 H 0.6279 0.91363 0.2482 0.0
H315 H 0.6356 0.88021 0.20043 0.0
H316 H 0.71581 0.74666 0.25374 0.0
H317 H 0.72229 0.78748 0.20531 0.0
H318 H 0.63294 0.75045 0.30094 0.0
H319 H 0.63955 0.79061 0.25341 0.0
H320 H 0.63473 0.70104 0.13897 0.0
H321 H 0.6431 0.74753 0.17751 0.0
H322 H 0.69156 0.7665 0.04821 0.0
H323 H 0.70322 0.81366 0.08831 0.0
N324 N 0.6797 0.8383 0.13927 0.0
N325 N 0.6879 0.84518 0.21543 0.0
C326 C 0.08994 0.74729 0.08444 0.0
C327 C 0.05583 0.73302 0.08861 0.0
C328 C 0.1113 0.77395 0.10703 0.0
C329 C 0.09905 0.78685 0.13444 0.0
C330 C 0.04348 0.74611 0.11569 0.0
C331 C 0.0649 0.77291 0.13827 0.0
C332 C 0.12249 0.81588 0.15702 0.0
C333 C 0.05585 0.77513 0.27321 0.0
C334 C 0.05612 0.7455 0.27567 0.0
C335 C 0.0755 0.79884 0.2463 0.0
C336 C 0.09486 0.79282 0.22076 0.0
C337 C 0.07503 0.73931 0.24958 0.0
C338 C 0.0941 0.76269 0.22228 0.0
C339 C 0.11935 0.8195 0.19651 0.0
C340 C 0.2159 0.93503 0.27129 0.0
C341 C 0.24548 0.93458 0.27364 0.0
C342 C 0.19174 0.91496 0.24494 0.0
C343 C 0.19724 0.89498 0.21986 0.0
C344 C 0.25119 0.91511 0.24792 0.0
C345 C 0.22735 0.89561 0.22115 0.0
C346 C 0.17018 0.8703 0.19607 0.0
C347 C 0.24093 0.89906 0.08294 0.0
C348 C 0.25592 0.93314 0.08795 0.0
C349 C 0.21427 0.87781 0.10549 0.0
C350 C 0.20199 0.89012 0.13355 0.0
C351 C 0.24335 0.94558 0.11553 0.0
C352 C 0.21642 0.92427 0.1379 0.0
C353 C 0.17327 0.86679 0.15656 0.0
H354 H 0.1002 0.73772 0.06389 0.0
H355 H 0.13752 0.78437 0.10327 0.0
H356 H 0.01727 0.73567 0.11943 0.0
H357 H 0.05474 0.78295 0.15828 0.0
H358 H 0.0416 0.78054 0.29309 0.0
H359 H 0.07617 0.82217 0.24595 0.0
H360 H 0.07563 0.71664 0.25079 0.0
H361 H 0.10941 0.7578 0.20347 0.0
H362 H 0.21081 0.94965 0.29097 0.0
H363 H 0.16847 0.91445 0.24472 0.0
H364 H 0.27378 0.91431 0.24913 0.0
H365 H 0.23185 0.87987 0.20261 0.0
H366 H 0.2501 0.88875 0.06196 0.0
H367 H 0.20346 0.8516 0.10127 0.0
H368 H 0.25429 0.97179 0.1198 0.0
H369 H 0.20678 0.93456 0.15827 0.0
N370 N 0.14927 0.83974 0.13876 0.0
N371 N 0.14326 0.84661 0.21439 0.0
C372 C 0.32507 0.07327 0.81487 0.0
C373 C 0.30043 0.05449 0.78816 0.0
C374 C 0.32044 0.09251 0.84162 0.0
C375 C 0.29108 0.09341 0.84219 0.0
C376 C 0.27059 0.05448 0.78953 0.0
C377 C 0.26613 0.07416 0.81606 0.0
C378 C 0.28843 0.1177 0.86638 0.0
C379 C 0.28934 0.04317 0.94532 0.0
C380 C 0.3151 0.05613 0.97202 0.0
C381 C 0.2824 0.06401 0.92395 0.0
C382 C 0.3015 0.09822 0.92841 0.0
C383 C 0.33351 0.09024 0.97726 0.0
C384 C 0.32677 0.11103 0.95571 0.0
C385 C 0.29515 0.12109 0.9059 0.0
C386 C 0.28523 0.24155 0.94608 0.0
C387 C 0.31106 0.25532 0.97267 0.0
C388 C 0.27935 0.2141 0.92457 0.0
C389 C 0.29954 0.20023 0.92886 0.0
C390 C 0.33055 0.24081 0.97778 0.0
C391 C 0.3248 0.21353 0.95615 0.0
C392 C 0.2943 0.17142 0.9061 0.0
C393 C 0.32332 0.24927 0.81568 0.0
C394 C 0.29887 0.24289 0.78855 0.0
C395 C 0.31888 0.22551 0.84243 0.0
C396 C 0.28992 0.19485 0.84254 0.0
C397 C 0.26937 0.21265 0.78949 0.0
C398 C 0.26513 0.18863 0.816 0.0
C399 C 0.28771 0.16806 0.86656 0.0
H400 H 0.34833 0.07377 0.81447 0.0
H401 H 0.34037 0.10778 0.86082 0.0
H402 H 0.25129 0.04039 0.76912 0.0
H403 H 0.24351 0.07493 0.81566 0.0
H404 H 0.27454 0.01692 0.94091 0.0
H405 H 0.26204 0.05333 0.90411 0.0
H406 H 0.35351 0.10094 0.99761 0.0
H407 H 0.34175 0.1373 0.95999 0.0
H408 H 0.26965 0.25209 0.94172 0.0
H409 H 0.25901 0.20373 0.9047 0.0
H410 H 0.35063 0.25087 0.99803 0.0
H411 H 0.34058 0.20317 0.9603 0.0
H412 H 0.34631 0.27237 0.81562 0.0
H413 H 0.33872 0.2306 0.86193 0.0
H414 H 0.25022 0.20705 0.76876 0.0
H415 H 0.24283 0.16492 0.81523 0.0
N416 N 0.28482 0.14123 0.84839 0.0
N417 N 0.29772 0.14778 0.92404 0.0
C418 C 0.94059 0.24304 0.94364 0.0
C419 C 0.92795 0.25579 0.97078 0.0
C420 C 0.91943 0.21565 0.92171 0.0
C421 C 0.88524 0.20088 0.92607 0.0
C422 C 0.89384 0.24042 0.9759 0.0
C423 C 0.87274 0.21327 0.95379 0.0
C424 C 0.86204 0.17191 0.90318 0.0
C425 C 0.91068 0.24983 0.81252 0.0
C426 C 0.92891 0.24361 0.78546 0.0
C427 C 0.89141 0.22606 0.83935 0.0
C428 C 0.88992 0.19554 0.83961 0.0
C429 C 0.92837 0.21353 0.78655 0.0
C430 C 0.90866 0.18951 0.81314 0.0
C431 C 0.86539 0.16865 0.86364 0.0
C432 C 0.73393 0.07326 0.81098 0.0
C433 C 0.73997 0.05439 0.78467 0.0
C434 C 0.75755 0.09244 0.83808 0.0
C435 C 0.78777 0.0933 0.83924 0.0
C436 C 0.76971 0.05425 0.78674 0.0
C437 C 0.79365 0.07397 0.81351 0.0
C438 C 0.81461 0.11776 0.86345 0.0
C439 C 0.74002 0.04237 0.94298 0.0
C440 C 0.72742 0.05491 0.97041 0.0
C441 C 0.76732 0.06357 0.92101 0.0
C442 C 0.78213 0.09774 0.92562 0.0
C443 C 0.74276 0.08899 0.97567 0.0
C444 C 0.7698 0.11014 0.95352 0.0
C445 C 0.81119 0.12102 0.90297 0.0
H446 H 0.96683 0.25427 0.93929 0.0
H447 H 0.92987 0.20598 0.90156 0.0
H448 H 0.88338 0.2497 0.99655 0.0
H449 H 0.84649 0.20222 0.95802 0.0
H450 H 0.91062 0.2728 0.81235 0.0
H451 H 0.87653 0.231 0.8588 0.0
H452 H 0.94203 0.20804 0.76588 0.0
H453 H 0.90743 0.16592 0.81248 0.0
H454 H 0.71119 0.0738 0.81005 0.0
H455 H 0.75277 0.10774 0.85703 0.0
H456 H 0.77504 0.04007 0.76665 0.0
H457 H 0.81703 0.07471 0.81358 0.0
H458 H 0.72882 0.01616 0.93851 0.0
H459 H 0.77695 0.0532 0.90073 0.0
H460 H 0.7336 0.09939 0.99653 0.0
H461 H 0.78085 0.13635 0.95794 0.0
N462 N 0.83511 0.14791 0.92109 0.0
N463 N 0.84164 0.14161 0.84548 0.0
C464 C 0.74302 0.69623 0.94433 0.0
C465 C 0.7293 0.67042 0.97086 0.0
C466 C 0.76966 0.70136 0.92177 0.0
C467 C 0.7829 0.68058 0.9251 0.0
C468 C 0.74305 0.65015 0.97479 0.0
C469 C 0.76966 0.65527 0.95224 0.0
C470 C 0.81135 0.68561 0.90185 0.0
C471 C 0.7334 0.65596 0.81054 0.0
C472 C 0.73972 0.68049 0.78365 0.0
C473 C 0.7569 0.66072 0.83793 0.0
C474 C 0.78726 0.69001 0.83874 0.0
C475 C 0.76949 0.71041 0.78555 0.0
C476 C 0.7933 0.71493 0.81257 0.0
C477 C 0.81428 0.69226 0.86238 0.0
C478 C 0.90647 0.65427 0.8063 0.0
C479 C 0.92588 0.67945 0.78057 0.0
C480 C 0.88816 0.65909 0.83418 0.0
C481 C 0.88863 0.68905 0.83655 0.0
C482 C 0.92739 0.7099 0.78388 0.0
C483 C 0.90844 0.71447 0.81132 0.0
C484 C 0.8648 0.69184 0.86129 0.0
C485 C 0.94129 0.69363 0.93967 0.0
C486 C 0.92923 0.6693 0.96801 0.0
C487 C 0.91968 0.69902 0.91764 0.0
C488 C 0.88557 0.67972 0.92304 0.0
C489 C 0.89522 0.65052 0.97394 0.0
C490 C 0.87365 0.65567 0.95169 0.0
C491 C 0.86194 0.68521 0.90079 0.0
H492 H 0.73301 0.71235 0.94077 0.0
H493 H 0.78002 0.7217 0.90197 0.0
H494 H 0.73299 0.63005 0.99493 0.0
H495 H 0.7796 0.63907 0.95563 0.0
H496 H 0.71061 0.63268 0.80977 0.0
H497 H 0.75199 0.64083 0.85719 0.0
H498 H 0.775 0.72966 0.76506 0.0
H499 H 0.8168 0.73749 0.81235 0.0
H500 H 0.90499 0.6306 0.80446 0.0
H501 H 0.87249 0.6389 0.8528 0.0
H502 H 0.94211 0.72964 0.7643 0.0
H503 H 0.90867 0.73757 0.81234 0.0
H504 H 0.96744 0.70866 0.93468 0.0
H505 H 0.92974 0.71859 0.89683 0.0
H506 H 0.8852 0.63155 0.9955 0.0
H507 H 0.8475 0.64057 0.95674 0.0
N508 N 0.83534 0.68245 0.91937 0.0
N509 N 0.84095 0.69524 0.84377 0.0
C510 C 0.70741 0.62537 0.44497 0.0
C511 C 0.7198 0.65127 0.41852 0.0
C512 C 0.72875 0.62002 0.46757 0.0
C513 C 0.76288 0.64065 0.46435 0.0
C514 C 0.75392 0.67147 0.41484 0.0
C515 C 0.77522 0.66612 0.43741 0.0
C516 C 0.78616 0.63513 0.48718 0.0
C517 C 0.73799 0.66398 0.57918 0.0
C518 C 0.71956 0.63922 0.6058 0.0
C519 C 0.75691 0.65951 0.55179 0.0
C520 C 0.75796 0.63027 0.55066 0.0
C521 C 0.7195 0.60941 0.60367 0.0
C522 C 0.73896 0.60517 0.57664 0.0
C523 C 0.7826 0.62814 0.52659 0.0
C524 C 0.91434 0.66331 0.57856 0.0
C525 C 0.90773 0.63872 0.6055 0.0
C526 C 0.89077 0.65907 0.55154 0.0
C527 C 0.86005 0.63016 0.55095 0.0
C528 C 0.87746 0.60928 0.60406 0.0
C529 C 0.85363 0.60522 0.57727 0.0
C530 C 0.83337 0.62811 0.52673 0.0
C531 C 0.9075 0.62701 0.44669 0.0
C532 C 0.92047 0.65248 0.41972 0.0
C533 C 0.88025 0.62099 0.4687 0.0
C534 C 0.86587 0.64073 0.46456 0.0
C535 C 0.9055 0.67156 0.41488 0.0
C536 C 0.87851 0.66573 0.43705 0.0
C537 C 0.83692 0.63505 0.48729 0.0
H538 H 0.68118 0.60932 0.44838 0.0
H539 H 0.71854 0.59957 0.48722 0.0
H540 H 0.7642 0.69165 0.3948 0.0
H541 H 0.80145 0.68223 0.43411 0.0
H542 H 0.73844 0.6872 0.58013 0.0
H543 H 0.77197 0.67955 0.5327 0.0
H544 H 0.70562 0.58999 0.62396 0.0
H545 H 0.73987 0.58263 0.57662 0.0
H546 H 0.93747 0.68627 0.579 0.0
H547 H 0.89602 0.67902 0.53222 0.0
H548 H 0.87166 0.59001 0.62463 0.0
H549 H 0.82988 0.58295 0.57768 0.0
H550 H 0.91843 0.61175 0.45084 0.0
H551 H 0.87037 0.6008 0.48869 0.0
H552 H 0.91497 0.69138 0.39437 0.0
H553 H 0.86775 0.68117 0.433 0.0
N554 N 0.81312 0.63821 0.46925 0.0
N555 N 0.80626 0.62475 0.54469 0.0
C556 C 0.31149 0.22893 0.41857 0.0
C557 C 0.33091 0.26304 0.42297 0.0
C558 C 0.31619 0.20786 0.44223 0.0
C559 C 0.34036 0.22039 0.47087 0.0
C560 C 0.35532 0.27567 0.45134 0.0
C561 C 0.36018 0.25455 0.4749 0.0
C562 C 0.34574 0.19727 0.49417 0.0
C563 C 0.37062 0.26399 0.61062 0.0
C564 C 0.34028 0.26281 0.61351 0.0
C565 C 0.3752 0.24496 0.58328 0.0
C566 C 0.34991 0.22536 0.55767 0.0
C567 C 0.31529 0.24376 0.58728 0.0
C568 C 0.32013 0.22537 0.55947 0.0
C569 C 0.35244 0.20093 0.53367 0.0
C570 C 0.37172 0.10627 0.61103 0.0
C571 C 0.34145 0.07701 0.61414 0.0
C572 C 0.37596 0.12978 0.58382 0.0
C573 C 0.3504 0.12383 0.5586 0.0
C574 C 0.31615 0.07089 0.58839 0.0
C575 C 0.32064 0.09401 0.56073 0.0
C576 C 0.35279 0.15038 0.53417 0.0
C577 C 0.31182 0.07919 0.42055 0.0
C578 C 0.33086 0.06426 0.42605 0.0
C579 C 0.31672 0.1056 0.4433 0.0
C580 C 0.34079 0.11774 0.47205 0.0
C581 C 0.35517 0.07649 0.45453 0.0
C582 C 0.36031 0.1032 0.47708 0.0
C583 C 0.34608 0.14666 0.49468 0.0
H584 H 0.29241 0.21847 0.39708 0.0
H585 H 0.30071 0.18162 0.43825 0.0
H586 H 0.37077 0.30191 0.45529 0.0
H587 H 0.37977 0.265 0.49574 0.0
H588 H 0.39024 0.27841 0.63056 0.0
H589 H 0.39816 0.24484 0.58275 0.0
H590 H 0.29171 0.24254 0.58876 0.0
H591 H 0.30001 0.20985 0.5406 0.0
H592 H 0.39154 0.11157 0.63065 0.0
H593 H 0.39891 0.1529 0.58297 0.0
H594 H 0.29261 0.04844 0.59007 0.0
H595 H 0.30035 0.08923 0.54212 0.0
H596 H 0.29286 0.07026 0.39891 0.0
H597 H 0.30144 0.11643 0.43853 0.0
H598 H 0.37038 0.06559 0.45921 0.0
H599 H 0.37988 0.1127 0.49796 0.0
N600 N 0.34298 0.17035 0.47642 0.0
N601 N 0.35583 0.17741 0.55198 0.0
C602 C 0.75227 0.079 0.41777 0.0
C603 C 0.71819 0.06358 0.42329 0.0
C604 C 0.77355 0.10606 0.43987 0.0
C605 C 0.76128 0.11831 0.46802 0.0
C606 C 0.70577 0.07612 0.45094 0.0
C607 C 0.72711 0.10342 0.47289 0.0
C608 C 0.78466 0.14725 0.49081 0.0
C609 C 0.71861 0.10447 0.60693 0.0
C610 C 0.7194 0.07509 0.60869 0.0
C611 C 0.73794 0.12861 0.5803 0.0
C612 C 0.7575 0.12325 0.5544 0.0
C613 C 0.73849 0.06955 0.58221 0.0
C614 C 0.75727 0.09336 0.55522 0.0
C615 C 0.78162 0.15034 0.5304 0.0
C616 C 0.87737 0.26397 0.6078 0.0
C617 C 0.90653 0.2628 0.61059 0.0
C618 C 0.85367 0.24495 0.58048 0.0
C619 C 0.85929 0.22539 0.55483 0.0
C620 C 0.91236 0.24372 0.58437 0.0
C621 C 0.88904 0.22533 0.5566 0.0
C622 C 0.83236 0.20121 0.53054 0.0
C623 C 0.90212 0.23083 0.41592 0.0
C624 C 0.91754 0.26485 0.42161 0.0
C625 C 0.87582 0.20948 0.43887 0.0
C626 C 0.86428 0.22163 0.468 0.0
C627 C 0.90586 0.27715 0.45041 0.0
C628 C 0.87926 0.25575 0.47317 0.0
C629 C 0.83551 0.19816 0.49091 0.0
H630 H 0.76257 0.06989 0.39671 0.0
H631 H 0.79976 0.11717 0.43527 0.0
H632 H 0.67957 0.06486 0.4556 0.0
H633 H 0.71683 0.11298 0.49339 0.0
H634 H 0.70422 0.10938 0.62716 0.0
H635 H 0.73822 0.15175 0.58047 0.0
H636 H 0.73949 0.04707 0.5829 0.0
H637 H 0.77277 0.08901 0.53609 0.0
H638 H 0.87227 0.27842 0.62775 0.0
H639 H 0.83061 0.24486 0.57995 0.0
H640 H 0.93472 0.2425 0.58579 0.0
H641 H 0.89358 0.20985 0.53767 0.0
H642 H 0.91064 0.22063 0.39404 0.0
H643 H 0.86463 0.18332 0.43399 0.0
H644 H 0.91717 0.30332 0.45526 0.0
H645 H 0.8702 0.26597 0.49435 0.0
N646 N 0.81144 0.17134 0.47279 0.0
N647 N 0.80547 0.17726 0.54859 0.0
C648 C 0.94286 0.55326 0.12008 0.0
C649 C 0.97307 0.58273 0.11804 0.0
C650 C 0.93853 0.52886 0.14603 0.0
C651 C 0.96397 0.53403 0.17101 0.0
C652 C -0.00177 0.58808 0.14363 0.0
C653 C -0.00634 0.56401 0.17 0.0
C654 C 0.96124 0.50685 0.19458 0.0
C655 C 0.00306 0.57735 0.30805 0.0
C656 C 0.98411 0.59244 0.30303 0.0
C657 C -0.00244 0.55067 0.28543 0.0
C658 C 0.97301 0.53848 0.25728 0.0
C659 C 0.95914 0.57997 0.27535 0.0
C660 C 0.95343 0.55304 0.2529 0.0
C661 C 0.96753 0.50978 0.23414 0.0
C662 C 0.00174 0.42541 0.30643 0.0
C663 C 0.98153 0.39139 0.30193 0.0
C664 C -0.00298 0.44704 0.28382 0.0
C665 C 0.97211 0.43514 0.2561 0.0
C666 C 0.95628 0.37941 0.27458 0.0
C667 C 0.95148 0.40109 0.252 0.0
C668 C 0.96712 0.45884 0.2335 0.0
C669 C 0.94125 0.39225 0.11707 0.0
C670 C 0.97089 0.3919 0.11508 0.0
C671 C 0.93739 0.41218 0.14381 0.0
C672 C 0.9627 0.43124 0.16964 0.0
C673 C -0.00409 0.41053 0.14145 0.0
C674 C -0.0082 0.42989 0.16857 0.0
C675 C 0.96072 0.45587 0.19393 0.0
H676 H 0.92317 0.54844 0.10048 0.0
H677 H 0.9156 0.5057 0.14606 0.0
H678 H 0.02176 0.61058 0.14263 0.0
H679 H 0.01385 0.56825 0.1885 0.0
H680 H 0.0225 0.58643 0.32911 0.0
H681 H 0.01285 0.53977 0.28968 0.0
H682 H 0.94397 0.59098 0.27106 0.0
H683 H 0.93354 0.54348 0.23244 0.0
H684 H 0.02143 0.43538 0.32719 0.0
H685 H 0.01312 0.47319 0.28779 0.0
H686 H 0.94022 0.35326 0.27059 0.0
H687 H 0.93141 0.39121 0.23176 0.0
H688 H 0.92165 0.37824 0.09696 0.0
H689 H 0.91494 0.41328 0.14381 0.0
H690 H 0.01901 0.41068 0.1406 0.0
H691 H 0.01196 0.44494 0.18762 0.0
N692 N 0.95791 0.47995 0.17611 0.0
N693 N 0.97017 0.48562 0.25189 0.0
C694 C 0.43196 0.38911 0.11786 0.0
C695 C 0.40302 0.39059 0.11451 0.0
C696 C 0.45552 0.4082 0.1452 0.0
C697 C 0.44993 0.42811 0.17031 0.0
C698 C 0.39702 0.4097 0.14051 0.0
C699 C 0.42021 0.42816 0.16836 0.0
C700 C 0.47729 0.45337 0.193 0.0
C701 C 0.4099 0.42381 0.3081 0.0
C702 C 0.39499 0.38978 0.30262 0.0
C703 C 0.43647 0.44535 0.28552 0.0
C704 C 0.44858 0.43333 0.25692 0.0
C705 C 0.40767 0.37768 0.27474 0.0
C706 C 0.43436 0.39924 0.25229 0.0
C707 C 0.47628 0.45681 0.23278 0.0
C708 C 0.58494 0.5967 0.26111 0.0
C709 C 0.59291 0.59182 0.29807 0.0
C710 C 0.56334 0.56997 0.23867 0.0
C711 C 0.55076 0.53766 0.25195 0.0
C712 C 0.57952 0.55985 0.31213 0.0
C713 C 0.55899 0.53303 0.28912 0.0
C714 C 0.52649 0.5085 0.22981 0.0
C715 C 0.60306 0.566 0.13497 0.0
C716 C 0.58872 0.57706 0.10791 0.0
C717 C 0.58348 0.54299 0.16273 0.0
C718 C 0.54947 0.53086 0.16345 0.0
C719 C 0.55474 0.56489 0.10916 0.0
C720 C 0.53538 0.54195 0.13641 0.0
C721 C 0.52713 0.5049 0.18979 0.0
H722 H 0.43714 0.37458 0.09812 0.0
H723 H 0.47861 0.40835 0.14589 0.0
H724 H 0.37475 0.41106 0.13867 0.0
H725 H 0.41576 0.44391 0.18693 0.0
H726 H 0.40071 0.43385 0.32939 0.0
H727 H 0.44714 0.47152 0.28992 0.0
H728 H 0.39685 0.35153 0.27012 0.0
H729 H 0.44389 0.3892 0.23145 0.0
H730 H 0.59454 0.62131 0.25007 0.0
H731 H 0.55586 0.57499 0.21163 0.0
H732 H 0.58536 0.55559 0.34063 0.0
H733 H 0.54927 0.50855 0.30059 0.0
H734 H 0.62925 0.57512 0.13469 0.0
H735 H 0.59469 0.53437 0.18315 0.0
H736 H 0.54291 0.57288 0.08881 0.0
H737 H 0.50915 0.53276 0.13636 0.0
N738 N 0.50256 0.4775 0.1733 0.0
N739 N 0.50105 0.48409 0.24952 0.0
C740 C 0.40894 0.02884 0.27786 0.0
C741 C 0.39574 0.00319 0.30463 0.0
C742 C 0.43585 0.03446 0.25541 0.0
C743 C 0.44978 0.01429 0.25905 0.0
C744 C 0.41004 0.98344 0.30866 0.0
C745 C 0.4368 0.98898 0.2862 0.0
C746 C 0.47876 0.01994 0.2364 0.0
C747 C 0.40199 0.99095 0.14404 0.0
C748 C 0.40851 0.01572 0.11741 0.0
C749 C 0.4253 -0.00457 0.17153 0.0
C750 C 0.45567 0.02469 0.17276 0.0
C751 C 0.43835 0.04555 0.1196 0.0
C752 C 0.46197 0.0498 0.14677 0.0
C753 C 0.48234 0.02681 0.19697 0.0
C754 C 0.5763 0.98923 0.14438 0.0
C755 C 0.59507 0.01392 0.11782 0.0
C756 C 0.55762 -0.00592 0.17176 0.0
C757 C 0.55714 0.02362 0.17293 0.0
C758 C 0.59567 0.044 0.11998 0.0
C759 C 0.57645 0.04862 0.14699 0.0
C760 C 0.53285 0.02629 0.19708 0.0
C761 C 0.60767 0.0273 0.27786 0.0
C762 C 0.59488 0.00237 0.3055 0.0
C763 C 0.58664 0.03312 0.25525 0.0
C764 C 0.55243 0.01373 0.25948 0.0
C765 C 0.56075 0.98355 0.3103 0.0
C766 C 0.53977 0.98918 0.28755 0.0
C767 C 0.52936 0.01953 0.23655 0.0
H768 H 0.39848 0.04456 0.27424 0.0
H769 H 0.44594 0.05478 0.23558 0.0
H770 H 0.4004 0.96346 0.32897 0.0
H771 H 0.44719 0.97318 0.28981 0.0
H772 H 0.37915 0.96772 0.14304 0.0
H773 H 0.4202 0.97539 0.19064 0.0
H774 H 0.44401 0.06496 0.09929 0.0
H775 H 0.48549 0.07234 0.14687 0.0
H776 H 0.57542 0.96581 0.14341 0.0
H777 H 0.54231 0.97414 0.19085 0.0
H778 H 0.60981 0.06337 0.09974 0.0
H779 H 0.57599 0.07139 0.14705 0.0
H780 H 0.63394 0.04234 0.27369 0.0
H781 H 0.5972 0.05298 0.23484 0.0
H782 H 0.55016 0.96412 0.33129 0.0
H783 H 0.5135 0.974 0.29168 0.0
N784 N 0.50249 0.01672 0.25447 0.0
N785 N 0.5093 0.02985 0.17898 0.0
C786 C 0.57136 0.00228 0.74845 0.0
C787 C 0.58636 0.98332 0.75404 0.0
C788 C 0.54446 -0.00309 0.77053 0.0
C789 C 0.53195 0.97246 0.79871 0.0
C790 C 0.57354 0.95842 0.78169 0.0
C791 C 0.54638 0.95283 0.8036 0.0
C792 C 0.50314 0.96729 0.82141 0.0
C793 C 0.54416 0.94276 0.93842 0.0
C794 C 0.57401 0.9726 0.94037 0.0
C795 C 0.52043 0.93836 0.91136 0.0
C796 C 0.5266 0.96334 0.88521 0.0
C797 C 0.5804 -0.00275 0.91361 0.0
C798 C 0.55696 0.99262 0.88621 0.0
C799 C 0.49984 0.96096 0.86098 0.0
C800 C 0.38663 0.94409 0.93788 0.0
C801 C 0.38736 0.97423 0.93989 0.0
C802 C 0.40578 0.93932 0.91092 0.0
C803 C 0.42512 0.96424 0.88493 0.0
C804 C 0.40616 -0.00116 0.91328 0.0
C805 C 0.42476 -0.00616 0.88595 0.0
C806 C 0.44933 0.96142 0.86086 0.0
C807 C 0.41983 0.00374 0.74907 0.0
C808 C 0.38576 0.98448 0.75428 0.0
C809 C 0.44129 -0.00192 0.77093 0.0
C810 C 0.42916 0.97317 0.79856 0.0
C811 C 0.37354 0.95902 0.78126 0.0
C812 C 0.39503 0.95327 0.80302 0.0
C813 C 0.45256 0.96774 0.82131 0.0
H814 H 0.5807 0.02168 0.72739 0.0
H815 H 0.5337 0.01226 0.76589 0.0
H816 H 0.58449 0.94324 0.78641 0.0
H817 H 0.53658 0.93302 0.8241 0.0
H818 H 0.53859 0.92344 0.95883 0.0
H819 H 0.49692 0.9158 0.91143 0.0
H820 H 0.60324 0.02047 0.91442 0.0
H821 H 0.56197 0.01253 0.86693 0.0
H822 H 0.37246 0.92479 0.95818 0.0
H823 H 0.40616 0.91651 0.91096 0.0
H824 H 0.40711 0.02229 0.91416 0.0
H825 H 0.44009 0.0137 0.86678 0.0
H826 H 0.42997 0.02354 0.72853 0.0
H827 H 0.4675 0.01361 0.76664 0.0
H828 H 0.34735 0.94362 0.78573 0.0
H829 H 0.3849 0.93317 0.82313 0.0
N830 N 0.47931 0.97035 0.80328 0.0
N831 N 0.473 0.95812 0.87901 0.0
C832 C 0.98358 0.5894 0.79358 0.0
C833 C -0.00351 0.59788 0.75669 0.0
C834 C 0.98893 0.56778 0.81545 0.0
C835 C 0.00898 0.55572 0.80169 0.0
C836 C 0.01532 0.58496 0.7421 0.0
C837 C 0.02185 0.56441 0.76458 0.0
C838 C 0.0142 0.53158 0.82338 0.0
C839 C 0.0338 0.60879 0.91725 0.0
C840 C 0.00861 0.59472 0.94464 0.0
C841 C 0.03719 0.5889 0.88982 0.0
C842 C 0.01552 0.55482 0.88983 0.0
C843 C 0.98704 0.56067 0.94414 0.0
C844 C -0.00938 0.541 0.91729 0.0
C845 C 0.01876 0.53227 0.86334 0.0
C846 C 0.03976 0.43757 0.93456 0.0
C847 C 0.00979 0.40793 0.93688 0.0
C848 C 0.04395 0.46124 0.90765 0.0
C849 C 0.01863 0.45519 0.882 0.0
C850 C 0.98493 0.40145 0.91027 0.0
C851 C 0.98938 0.42484 0.88292 0.0
C852 C 0.02035 0.48247 0.85961 0.0
C853 C 0.98121 0.41443 0.74521 0.0
C854 C 0.00041 0.39961 0.7504 0.0
C855 C 0.98672 0.44134 0.76747 0.0
C856 C 0.0114 0.45387 0.79547 0.0
C857 C 0.02592 0.41289 0.77742 0.0
C858 C 0.03151 0.43991 0.79957 0.0
C859 C 0.01572 0.4815 0.81984 0.0
H860 H 0.96832 0.59861 0.80498 0.0
H861 H 0.9764 0.55988 0.84245 0.0
H862 H 0.0254 0.59117 0.7136 0.0
H863 H 0.03682 0.55505 0.75275 0.0
H864 H 0.05072 0.635 0.91699 0.0
H865 H 0.05677 0.59993 0.86903 0.0
H866 H 0.96743 0.54902 0.96482 0.0
H867 H 0.97373 0.51475 0.91788 0.0
H868 H 0.05926 0.44319 0.95479 0.0
H869 H 0.06649 0.48476 0.90775 0.0
H870 H 0.96162 0.37871 0.91136 0.0
H871 H 0.96927 0.41997 0.86395 0.0
H872 H 0.96142 0.40477 0.72458 0.0
H873 H 0.97104 0.45183 0.76346 0.0
H874 H 0.04132 0.40215 0.78182 0.0
H875 H 0.05147 0.44975 0.81996 0.0
N876 N 0.01306 0.50621 0.8034 0.0
N877 N 0.02165 0.50772 0.87957 0.0
C878 C 0.57377 0.61114 0.7798 0.0
C879 C 0.58638 0.59825 0.75283 0.0
C880 C 0.54645 0.59022 0.80191 0.0
C881 C 0.53166 0.556 0.79794 0.0
C882 C 0.57099 0.56411 0.7481 0.0
C883 C 0.54393 0.54324 0.7704 0.0
C884 C 0.50278 0.53306 0.82103 0.0
C885 C 0.58178 0.58321 0.9105 0.0
C886 C 0.57598 0.60222 0.93687 0.0
C887 C 0.55755 0.56314 0.88441 0.0
C888 C 0.52698 0.56159 0.88421 0.0
C889 C 0.54582 0.60158 0.9358 0.0
C890 C 0.52134 0.58107 0.90998 0.0
C891 C 0.49983 0.53673 0.86057 0.0
C892 C 0.40226 0.40507 0.91244 0.0
C893 C 0.38398 0.41151 0.93919 0.0
C894 C 0.42204 0.4288 0.88584 0.0
C895 C 0.42404 0.45955 0.88549 0.0
C896 C 0.38511 0.44188 0.93808 0.0
C897 C 0.40536 0.46589 0.91173 0.0
C898 C 0.44871 0.48615 0.86119 0.0
C899 C 0.37203 0.41226 0.78196 0.0
C900 C 0.38398 0.39863 0.75509 0.0
C901 C 0.39377 0.43962 0.80359 0.0
C902 C 0.42787 0.45353 0.79913 0.0
C903 C 0.41802 0.41313 0.74989 0.0
C904 C 0.4397 0.44031 0.77163 0.0
C905 C 0.45163 0.4825 0.82163 0.0
H906 H 0.585 0.6374 0.78385 0.0
H907 H 0.53686 0.60084 0.8219 0.0
H908 H 0.58016 0.55345 0.72757 0.0
H909 H 0.53285 0.51697 0.76646 0.0
H910 H 0.60477 0.58314 0.91072 0.0
H911 H 0.56223 0.54777 0.86545 0.0
H912 H 0.54061 0.61577 0.95601 0.0
H913 H 0.49775 0.57988 0.91064 0.0
H914 H 0.4019 0.38189 0.91264 0.0
H915 H 0.43682 0.42359 0.86655 0.0
H916 H 0.37144 0.44756 0.95853 0.0
H917 H 0.40695 0.48965 0.9123 0.0
H918 H 0.34588 0.40171 0.78642 0.0
H919 H 0.38387 0.44994 0.82359 0.0
H920 H 0.42796 0.40317 0.72945 0.0
H921 H 0.46587 0.4507 0.76733 0.0
N922 N 0.47853 0.50613 0.80331 0.0
N923 N 0.47283 0.51321 0.87898 0.0
C924 C 0.65954 0.73754 0.47916 0.0
C925 C 0.63485 0.71891 0.45245 0.0
C926 C 0.65527 0.75725 0.5056 0.0
C927 C 0.62626 0.75882 0.50579 0.0
C928 C 0.60531 0.71951 0.45352 0.0
C929 C 0.60124 0.73967 0.4797 0.0
C930 C 0.62404 0.78354 0.52963 0.0
C931 C 0.62261 0.70837 0.6096 0.0
C932 C 0.64805 0.72101 0.63671 0.0
C933 C 0.61644 0.72951 0.58774 0.0
C934 C 0.63602 0.76369 0.59212 0.0
C935 C 0.66693 0.75509 0.64185 0.0
C936 C 0.66097 0.77618 0.6198 0.0
C937 C 0.63046 0.7869 0.5692 0.0
C938 C 0.62354 0.90905 0.60911 0.0
C939 C 0.64842 0.92138 0.63692 0.0
C940 C 0.61755 0.88191 0.58686 0.0
C941 C 0.63674 0.86697 0.59158 0.0
C942 C 0.66703 0.90596 0.64221 0.0
C943 C 0.66125 0.87907 0.6198 0.0
C944 C 0.63088 0.83789 0.56888 0.0
C945 C 0.66133 0.91505 0.47689 0.0
C946 C 0.63625 0.90936 0.45098 0.0
C947 C 0.65675 0.89134 0.5038 0.0
C948 C 0.62709 0.86135 0.50511 0.0
C949 C 0.60612 0.87983 0.45318 0.0
C950 C 0.60176 0.85578 0.4797 0.0
C951 C 0.62442 0.83447 0.52931 0.0
H952 H 0.68259 0.7376 0.47895 0.0
H953 H 0.67525 0.77239 0.52481 0.0
H954 H 0.586 0.70559 0.43306 0.0
H955 H 0.57887 0.74091 0.47903 0.0
H956 H 0.60747 0.68214 0.60526 0.0
H957 H 0.59629 0.71909 0.56761 0.0
H958 H 0.6867 0.76556 0.66249 0.0
H959 H 0.6763 0.80241 0.62403 0.0
H960 H 0.60864 0.92033 0.60458 0.0
H961 H 0.5977 0.87246 0.56634 0.0
H962 H 0.6864 0.91492 0.66335 0.0
H963 H 0.67628 0.86793 0.62431 0.0
H964 H 0.6848 0.93763 0.47586 0.0
H965 H 0.6769 0.89589 0.52254 0.0
H966 H 0.58646 0.87477 0.43341 0.0
H967 H 0.57888 0.83257 0.47991 0.0
N968 N 0.62109 0.80736 0.51136 0.0
N969 N 0.63354 0.8139 0.58708 0.0
C970 C 0.10138 0.72168 0.4572 0.0
C971 C 0.07188 0.72219 0.45444 0.0
C972 C 0.12492 0.74105 0.48442 0.0
C973 C 0.11886 0.76037 0.50997 0.0
C974 C 0.06537 0.7406 0.48097 0.0
C975 C 0.08861 0.7594 0.50865 0.0
C976 C 0.14614 0.78598 0.53251 0.0
C977 C 0.07818 0.75695 0.64686 0.0
C978 C 0.06325 0.72289 0.64158 0.0
C979 C 0.10509 0.77838 0.62463 0.0
C980 C 0.11751 0.76621 0.59655 0.0
C981 C 0.07641 0.71066 0.61446 0.0
C982 C 0.10342 0.73211 0.59233 0.0
C983 C 0.14519 0.78958 0.57229 0.0
C984 C 0.2533 0.92973 0.59982 0.0
C985 C 0.26159 0.92507 0.6367 0.0
C986 C 0.23174 0.90284 0.57758 0.0
C987 C 0.21956 0.87063 0.59097 0.0
C988 C 0.24862 0.8932 0.65089 0.0
C989 C 0.22814 0.86623 0.62805 0.0
C990 C 0.19532 0.84133 0.56903 0.0
C991 C 0.27191 0.89946 0.47469 0.0
C992 C 0.25755 0.91056 0.44771 0.0
C993 C 0.2523 0.87611 0.50216 0.0
C994 C 0.21821 0.86362 0.50263 0.0
C995 C 0.22349 0.89802 0.44872 0.0
C996 C 0.20409 0.8747 0.47562 0.0
C997 C 0.1959 0.83762 0.52902 0.0
H998 H 0.10702 0.70778 0.43703 0.0
H999 H 0.14837 0.74194 0.48462 0.0
H1000 H 0.04273 0.74129 0.47955 0.0
H1001 H 0.08376 0.77468 0.52755 0.0
H1002 H 0.06862 0.7671 0.66755 0.0
H1003 H 0.11567 0.80457 0.62873 0.0
H1004 H 0.06558 0.68449 0.60997 0.0
H1005 H 0.11317 0.72198 0.57187 0.0
H1006 H 0.26255 0.95428 0.58873 0.0
H1007 H 0.22394 0.90765 0.55063 0.0
H1008 H 0.25469 0.88917 0.67938 0.0
H1009 H 0.21871 0.84181 0.6396 0.0
H1010 H 0.29814 0.90882 0.47456 0.0
H1011 H 0.26356 0.86755 0.52259 0.0
H1012 H 0.21162 0.90598 0.42838 0.0
H1013 H 0.17781 0.86527 0.47539 0.0
N1014 N 0.17134 0.8101 0.51266 0.0
N1015 N 0.16995 0.81696 0.58887 0.0
C1016 C 0.26898 0.36307 0.47429 0.0
C1017 C 0.2564 0.33593 0.44946 0.0
C1018 C 0.2484 0.3658 0.50123 0.0
C1019 C 0.21509 0.34154 0.50318 0.0
C1020 C 0.2233 0.31136 0.45259 0.0
C1021 C 0.20285 0.31432 0.47884 0.0
C1022 C 0.19138 0.34514 0.52708 0.0
C1023 C 0.24773 0.31498 0.60356 0.0
C1024 C 0.2576 0.33116 0.63867 0.0
C1025 C 0.22568 0.31871 0.58058 0.0
C1026 C 0.2145 0.34028 0.59119 0.0
C1027 C 0.24536 0.35139 0.65054 0.0
C1028 C 0.22421 0.35617 0.62677 0.0
C1029 C 0.19059 0.34423 0.56732 0.0
C1030 C 0.0527 0.31645 0.59949 0.0
C1031 C 0.05844 0.33167 0.63518 0.0
C1032 C 0.07889 0.32034 0.5771 0.0
C1033 C 0.11153 0.34118 0.58892 0.0
C1034 C 0.09076 0.35125 0.64811 0.0
C1035 C 0.11712 0.35627 0.62495 0.0
C1036 C 0.13985 0.34484 0.56613 0.0
C1037 C 0.0822 0.36472 0.47244 0.0
C1038 C 0.06912 0.33889 0.44574 0.0
C1039 C 0.10492 0.36681 0.49989 0.0
C1040 C 0.11479 0.34318 0.50061 0.0
C1041 C 0.07873 0.31511 0.4473 0.0
C1042 C 0.10143 0.31739 0.47418 0.0
C1043 C 0.14107 0.34585 0.52585 0.0
H1044 H 0.29445 0.38232 0.47248 0.0
H1045 H 0.25811 0.38717 0.51956 0.0
H1046 H 0.21281 0.29014 0.43396 0.0
H1047 H 0.17715 0.29546 0.4798 0.0
H1048 H 0.25632 0.29859 0.59442 0.0
H1049 H 0.21684 0.30386 0.55516 0.0
H1050 H 0.2526 0.36389 0.67776 0.0
H1051 H 0.2154 0.37229 0.63624 0.0
H1052 H 0.02781 0.30056 0.5895 0.0
H1053 H 0.07322 0.30608 0.55123 0.0
H1054 H 0.0956 0.36302 0.67576 0.0
H1055 H 0.14192 0.37181 0.63535 0.0
H1056 H 0.07509 0.3833 0.47191 0.0
H1057 H 0.11531 0.38713 0.51982 0.0
H1058 H 0.06913 0.29488 0.42726 0.0
H1059 H 0.10883 0.29898 0.47414 0.0
N1060 N 0.16666 0.34584 0.50831 0.0
N1061 N 0.16498 0.34452 0.58513 0.0
loop_
_geom_bond_atom_site_label_1
_geom_bond_atom_site_label_2
_geom_bond_distance
_geom_bond_site_symmetry_2
_ccdc_geom_bond_type
In0 O1 2.294 1_455 S
In0 O2 2.326 . S
In0 O6 2.266 1_454 S
In0 O7 2.326 1_454 S
In0 O8 2.266 1_554 S
In0 O9 2.326 1_454 S
In0 O11 2.294 . S
In0 O12 2.326 . S
O1 In0 2.294 1_655 S
O1 C10 1.252 . S
O2 In0 2.326 . S
O2 C10 1.231 1_455 S
C3 O6 1.252 . S
C3 O7 1.260 . S
C4 O11 1.240 . S
C4 O12 1.252 . S
C5 O8 1.252 . S
C5 O9 1.260 1_455 S
O6 In0 2.266 1_656 S
O6 C3 1.252 . S
O7 In0 2.326 1_656 S
O7 C3 1.260 . S
O8 In0 2.266 1_556 S
O8 C5 1.252 . S
O9 In0 2.326 1_656 S
O9 C5 1.260 1_655 S
C10 O1 1.252 . S
C10 O2 1.231 1_655 S
O11 In0 2.294 . S
O11 C4 1.240 . S
O12 In0 2.326 . S
O12 C4 1.252 . S
In13 O14 2.294 . S
In13 O15 2.326 . S
In13 O19 2.266 1_554 S
In13 O20 2.326 1_554 S
In13 O21 2.266 1_554 S
In13 O22 2.326 1_554 S
In13 O24 2.294 . S
In13 O25 2.326 . S
O14 In13 2.294 . S
O14 C23 1.240 . S
O15 In13 2.326 . S
O15 C23 1.252 . S
C16 O19 1.252 . S
C16 O20 1.260 . S
C17 O24 1.240 . S
C17 O25 1.252 . S
C18 O21 1.252 . S
C18 O22 1.260 . S
O19 In13 2.266 1_556 S
O19 C16 1.252 . S
O20 In13 2.326 1_556 S
O20 C16 1.260 . S
O21 In13 2.266 1_556 S
O21 C18 1.252 . S
O22 In13 2.326 1_556 S
O22 C18 1.260 . S
C23 O14 1.240 . S
C23 O15 1.252 . S
O24 In13 2.294 . S
O24 C17 1.240 . S
O25 In13 2.326 . S
O25 C17 1.252 . S
In26 O27 2.294 1_554 S
In26 O28 2.326 1_554 S
In26 O32 2.266 . S
In26 O33 2.326 1_545 S
In26 O34 2.266 1_545 S
In26 O35 2.326 1_545 S
In26 O37 2.294 1_544 S
In26 O38 2.326 1_554 S
O27 In26 2.294 1_556 S
O27 C36 1.240 . S
O28 In26 2.326 1_556 S
O28 C36 1.252 . S
C29 O32 1.252 . S
C29 O33 1.260 1_545 S
C30 O37 1.248 . S
C30 O38 1.238 1_565 S
C31 O34 1.252 . S
C31 O35 1.260 . S
O32 In26 2.266 . S
O32 C29 1.252 . S
O33 In26 2.326 1_565 S
O33 C29 1.260 1_565 S
O34 In26 2.266 1_565 S
O34 C31 1.252 . S
O35 In26 2.326 1_565 S
O35 C31 1.260 . S
C36 O27 1.240 . S
C36 O28 1.252 . S
O37 In26 2.294 1_566 S
O37 C30 1.248 . S
O38 In26 2.326 1_556 S
O38 C30 1.238 1_545 S
In39 O40 2.293 1_554 S
In39 O41 2.326 1_454 S
In39 O45 2.265 . S
In39 O46 2.326 . S
In39 O47 2.267 1_455 S
In39 O48 2.324 . S
In39 O50 2.296 1_454 S
In39 O51 2.327 1_454 S
O40 In39 2.293 1_556 S
O40 C49 1.240 . S
O41 In39 2.326 1_656 S
O41 C49 1.252 1_655 S
C42 O45 1.252 . S
C42 O46 1.260 . S
C43 O50 1.240 . S
C43 O51 1.252 . S
C44 O47 1.252 . S
C44 O48 1.260 1_655 S
O45 In39 2.265 . S
O45 C42 1.252 . S
O46 In39 2.326 . S
O46 C42 1.260 . S
O47 In39 2.267 1_655 S
O47 C44 1.252 . S
O48 In39 2.324 . S
O48 C44 1.260 1_455 S
C49 O40 1.240 . S
C49 O41 1.252 1_455 S
O50 In39 2.296 1_656 S
O50 C43 1.240 . S
O51 In39 2.327 1_656 S
O51 C43 1.252 . S
In52 O53 2.294 1_554 S
In52 O54 2.326 1_554 S
In52 O58 2.266 . S
In52 O59 2.326 . S
In52 O60 2.266 . S
In52 O61 2.326 . S
In52 O63 2.294 1_554 S
In52 O64 2.326 1_554 S
O53 In52 2.294 1_556 S
O53 C62 1.240 . S
O54 In52 2.326 1_556 S
O54 C62 1.252 . S
C55 O58 1.252 . S
C55 O59 1.260 . S
C56 O63 1.240 . S
C56 O64 1.252 . S
C57 O60 1.252 . S
C57 O61 1.260 . S
O58 In52 2.266 . S
O58 C55 1.252 . S
O59 In52 2.326 . S
O59 C55 1.260 . S
O60 In52 2.266 . S
O60 C57 1.252 . S
O61 In52 2.326 . S
O61 C57 1.260 . S
C62 O53 1.240 . S
C62 O54 1.252 . S
O63 In52 2.294 1_556 S
O63 C56 1.240 . S
O64 In52 2.326 1_556 S
O64 C56 1.252 . S
In65 O66 2.293 . S
In65 O67 2.326 1_545 S
In65 O71 2.260 1_554 S
In65 O72 2.326 1_554 S
In65 O73 2.267 1_544 S
In65 O74 2.324 1_554 S
In65 O76 2.296 1_545 S
In65 O77 2.327 1_545 S
O66 In65 2.293 . S
O66 C75 1.240 . S
O67 In65 2.326 1_565 S
O67 C75 1.252 1_565 S
C68 O71 1.273 . S
C68 O72 1.260 . S
C69 O76 1.240 . S
C69 O77 1.252 . S
C70 O73 1.252 . S
C70 O74 1.260 1_565 S
O71 In65 2.260 1_556 S
O71 C68 1.273 . S
O72 In65 2.326 1_556 S
O72 C68 1.260 . S
O73 In65 2.267 1_566 S
O73 C70 1.252 . S
O74 In65 2.324 1_556 S
O74 C70 1.260 1_545 S
C75 O66 1.240 . S
C75 O67 1.252 1_545 S
O76 In65 2.296 1_565 S
O76 C69 1.240 . S
O77 In65 2.327 1_565 S
O77 C69 1.252 . S
In78 O79 2.294 . S
In78 O80 2.326 . S
In78 O84 2.266 . S
In78 O85 2.326 . S
In78 O86 2.266 . S
In78 O87 2.326 . S
In78 O89 2.294 . S
In78 O90 2.326 . S
O79 In78 2.294 . S
O79 C88 1.240 . S
O80 In78 2.326 . S
O80 C88 1.252 . S
C81 O84 1.252 . S
C81 O85 1.260 . S
C82 O89 1.240 . S
C82 O90 1.252 . S
C83 O86 1.252 . S
C83 O87 1.260 . S
O84 In78 2.266 . S
O84 C81 1.252 . S
O85 In78 2.326 . S
O85 C81 1.260 . S
O86 In78 2.266 . S
O86 C83 1.252 . S
O87 In78 2.326 . S
O87 C83 1.260 . S
C88 O79 1.240 . S
C88 O80 1.252 . S
O89 In78 2.294 . S
O89 C82 1.240 . S
O90 In78 2.326 . S
O90 C82 1.252 . S
In91 O92 2.294 . S
In91 O93 2.326 . S
In91 O97 2.266 . S
In91 O98 2.326 1_565 S
In91 O99 2.266 . S
In91 O100 2.326 . S
In91 O102 2.294 1_565 S
In91 O103 2.326 1_565 S
O92 In91 2.294 . S
O92 C101 1.240 . S
O93 In91 2.326 . S
O93 C101 1.252 . S
C94 O97 1.252 . S
C94 O98 1.260 1_565 S
C95 O102 1.240 . S
C95 O103 1.252 . S
C96 O99 1.252 . S
C96 O100 1.260 . S
O97 In91 2.266 . S
O97 C94 1.252 . S
O98 In91 2.326 1_545 S
O98 C94 1.260 1_545 S
O99 In91 2.266 . S
O99 C96 1.252 . S
O100 In91 2.326 . S
O100 C96 1.260 . S
C101 O92 1.240 . S
C101 O93 1.252 . S
O102 In91 2.294 1_545 S
O102 C95 1.240 . S
O103 In91 2.326 1_545 S
O103 C95 1.252 . S
In104 O105 2.294 . S
In104 O106 2.326 1_455 S
In104 O110 2.266 . S
In104 O111 2.326 . S
In104 O112 2.266 1_455 S
In104 O113 2.326 1_455 S
In104 O115 2.294 . S
In104 O116 2.326 . S
O105 In104 2.294 . S
O105 C114 1.240 . S
O106 In104 2.326 1_655 S
O106 C114 1.252 1_655 S
C107 O110 1.252 . S
C107 O111 1.260 . S
C108 O115 1.240 . S
C108 O116 1.252 . S
C109 O112 1.252 . S
C109 O113 1.260 . S
O110 In104 2.266 . S
O110 C107 1.252 . S
O111 In104 2.326 . S
O111 C107 1.260 . S
O112 In104 2.266 1_655 S
O112 C109 1.252 . S
O113 In104 2.326 1_655 S
O113 C109 1.260 . S
C114 O105 1.240 . S
C114 O106 1.252 1_455 S
O115 In104 2.294 . S
O115 C108 1.240 . S
O116 In104 2.326 . S
O116 C108 1.252 . S
In117 O118 2.294 . S
In117 O119 2.326 . S
In117 O123 2.266 1_565 S
In117 O124 2.326 1_565 S
In117 O125 2.266 . S
In117 O126 2.326 . S
In117 O128 2.294 . S
In117 O129 2.326 1_565 S
O118 In117 2.294 . S
O118 C127 1.240 . S
O119 In117 2.326 . S
O119 C127 1.252 . S
C120 O123 1.252 . S
C120 O124 1.260 . S
C121 O128 1.240 . S
C121 O129 1.252 1_565 S
C122 O125 1.252 . S
C122 O126 1.260 . S
O123 In117 2.266 1_545 S
O123 C120 1.252 . S
O124 In117 2.326 1_545 S
O124 C120 1.260 . S
O125 In117 2.266 . S
O125 C122 1.252 . S
O126 In117 2.326 . S
O126 C122 1.260 . S
C127 O118 1.240 . S
C127 O119 1.252 . S
O128 In117 2.294 . S
O128 C121 1.240 . S
O129 In117 2.326 1_545 S
O129 C121 1.252 1_545 S
In130 O131 2.294 . S
In130 O132 2.326 . S
In130 O136 2.266 1_455 S
In130 O137 2.326 1_455 S
In130 O138 2.266 . S
In130 O139 2.326 . S
In130 O141 2.294 . S
In130 O142 2.326 1_455 S
O131 In130 2.294 . S
O131 C140 1.240 . S
O132 In130 2.326 . S
O132 C140 1.252 . S
C133 O136 1.252 . S
C133 O137 1.260 . S
C134 O141 1.240 . S
C134 O142 1.252 1_455 S
C135 O138 1.252 . S
C135 O139 1.260 . S
O136 In130 2.266 1_655 S
O136 C133 1.252 . S
O137 In130 2.326 1_655 S
O137 C133 1.260 . S
O138 In130 2.266 . S
O138 C135 1.252 . S
O139 In130 2.326 . S
O139 C135 1.260 . S
C140 O131 1.240 . S
C140 O132 1.252 . S
O141 In130 2.294 . S
O141 C134 1.240 . S
O142 In130 2.326 1_655 S
O142 C134 1.252 1_655 S
In143 O144 2.294 . S
In143 O145 2.326 . S
In143 O149 2.266 . S
In143 O150 2.326 . S
In143 O151 2.266 . S
In143 O152 2.326 . S
In143 O154 2.294 . S
In143 O155 2.326 . S
O144 In143 2.294 . S
O144 C153 1.240 . S
O145 In143 2.326 . S
O145 C153 1.252 . S
C146 O149 1.252 . S
C146 O150 1.260 . S
C147 O154 1.240 . S
C147 O155 1.252 . S
C148 O151 1.252 . S
C148 O152 1.260 . S
O149 In143 2.266 . S
O149 C146 1.252 . S
O150 In143 2.326 . S
O150 C146 1.260 . S
O151 In143 2.266 . S
O151 C148 1.252 . S
O152 In143 2.326 . S
O152 C148 1.260 . S
C153 O144 1.240 . S
C153 O145 1.252 . S
O154 In143 2.294 . S
O154 C147 1.240 . S
O155 In143 2.326 . S
O155 C147 1.252 . S
In156 O157 2.294 . S
In156 O158 2.326 1_545 S
In156 O162 2.266 . S
In156 O163 2.326 . S
In156 O164 2.266 1_545 S
In156 O165 2.326 1_545 S
In156 O167 2.294 . S
In156 O168 2.326 . S
O157 In156 2.294 . S
O157 C166 1.240 . S
O158 In156 2.326 1_565 S
O158 C166 1.252 1_565 S
C159 O162 1.252 . S
C159 O163 1.260 . S
C160 O167 1.240 . S
C160 O168 1.252 . S
C161 O164 1.252 . S
C161 O165 1.260 . S
O162 In156 2.266 . S
O162 C159 1.252 . S
O163 In156 2.326 . S
O163 C159 1.260 . S
O164 In156 2.266 1_565 S
O164 C161 1.252 . S
O165 In156 2.326 1_565 S
O165 C161 1.260 . S
C166 O157 1.240 . S
C166 O158 1.252 1_545 S
O167 In156 2.294 . S
O167 C160 1.240 . S
O168 In156 2.326 . S
O168 C160 1.252 . S
In169 O170 2.294 . S
In169 O171 2.326 1_655 S
In169 O175 2.266 . S
In169 O176 2.326 . S
In169 O177 2.266 1_655 S
In169 O178 2.326 1_655 S
In169 O180 2.294 . S
In169 O181 2.326 . S
O170 In169 2.294 . S
O170 C179 1.240 . S
O171 In169 2.326 1_455 S
O171 C179 1.252 1_455 S
C172 O175 1.252 . S
C172 O176 1.260 . S
C173 O180 1.240 . S
C173 O181 1.252 . S
C174 O177 1.252 . S
C174 O178 1.260 . S
O175 In169 2.266 . S
O175 C172 1.252 . S
O176 In169 2.326 . S
O176 C172 1.260 . S
O177 In169 2.266 1_455 S
O177 C174 1.252 . S
O178 In169 2.326 1_455 S
O178 C174 1.260 . S
C179 O170 1.240 . S
C179 O171 1.252 1_655 S
O180 In169 2.294 . S
O180 C173 1.240 . S
O181 In169 2.326 . S
O181 C173 1.252 . S
In182 O183 2.294 . S
In182 O184 2.326 . S
In182 O188 2.266 . S
In182 O189 2.326 . S
In182 O190 2.266 . S
In182 O191 2.326 . S
In182 O193 2.294 . S
In182 O194 2.326 . S
O183 In182 2.294 . S
O183 C192 1.240 . S
O184 In182 2.326 . S
O184 C192 1.252 . S
C185 O188 1.252 . S
C185 O189 1.260 . S
C186 O193 1.240 . S
C186 O194 1.252 . S
C187 O190 1.252 . S
C187 O191 1.260 . S
O188 In182 2.266 . S
O188 C185 1.252 . S
O189 In182 2.326 . S
O189 C185 1.260 . S
O190 In182 2.266 . S
O190 C187 1.252 . S
O191 In182 2.326 . S
O191 C187 1.260 . S
C192 O183 1.240 . S
C192 O184 1.252 . S
O193 In182 2.294 . S
O193 C186 1.240 . S
O194 In182 2.326 . S
O194 C186 1.252 . S
In195 O196 2.294 . S
In195 O197 2.326 . S
In195 O201 2.266 . S
In195 O202 2.326 . S
In195 O203 2.266 . S
In195 O204 2.326 . S
In195 O206 2.294 . S
In195 O207 2.326 . S
O196 In195 2.294 . S
O196 C205 1.240 . S
O197 In195 2.326 . S
O197 C205 1.252 . S
C198 O201 1.252 . S
C198 O202 1.260 . S
C199 O206 1.240 . S
C199 O207 1.252 . S
C200 O203 1.252 . S
C200 O204 1.260 . S
O201 In195 2.266 . S
O201 C198 1.252 . S
O202 In195 2.326 . S
O202 C198 1.260 . S
O203 In195 2.266 . S
O203 C200 1.252 . S
O204 In195 2.326 . S
O204 C200 1.260 . S
C205 O196 1.240 . S
C205 O197 1.252 . S
O206 In195 2.294 . S
O206 C199 1.240 . S
O207 In195 2.326 . S
O207 C199 1.252 . S
In208 O209 2.294 . S
In208 O210 2.326 . S
In208 O214 2.266 . S
In208 O215 2.326 1_545 S
In208 O216 2.266 . S
In208 O217 2.326 . S
In208 O219 2.294 1_545 S
In208 O220 2.326 1_545 S
O209 In208 2.294 . S
O209 C218 1.240 . S
O210 In208 2.326 . S
O210 C218 1.252 . S
C211 O214 1.252 . S
C211 O215 1.260 1_545 S
C212 O219 1.240 . S
C212 O220 1.252 . S
C213 O216 1.252 . S
C213 O217 1.260 . S
O214 In208 2.266 . S
O214 C211 1.252 . S
O215 In208 2.326 1_565 S
O215 C211 1.260 1_565 S
O216 In208 2.266 . S
O216 C213 1.252 . S
O217 In208 2.326 . S
O217 C213 1.260 . S
C218 O209 1.240 . S
C218 O210 1.252 . S
O219 In208 2.294 1_565 S
O219 C212 1.240 . S
O220 In208 2.326 1_565 S
O220 C212 1.252 . S
In221 O222 2.294 . S
In221 O223 2.326 1_655 S
In221 O227 2.266 . S
In221 O228 2.326 . S
In221 O229 2.266 1_655 S
In221 O230 2.326 1_655 S
In221 O232 2.294 . S
In221 O233 2.326 . S
O222 In221 2.294 . S
O222 C231 1.240 . S
O223 In221 2.326 1_455 S
O223 C231 1.252 1_455 S
C224 O227 1.252 . S
C224 O228 1.260 . S
C225 O232 1.240 . S
C225 O233 1.252 . S
C226 O229 1.252 . S
C226 O230 1.260 . S
O227 In221 2.266 . S
O227 C224 1.252 . S
O228 In221 2.326 . S
O228 C224 1.260 . S
O229 In221 2.266 1_455 S
O229 C226 1.252 . S
O230 In221 2.326 1_455 S
O230 C226 1.260 . S
C231 O222 1.240 . S
C231 O223 1.252 1_655 S
O232 In221 2.294 . S
O232 C225 1.240 . S
O233 In221 2.326 . S
O233 C225 1.252 . S
C234 C235 1.384 . S
C234 C236 1.384 . S
C234 H262 0.931 . S
C235 C234 1.384 . S
C235 C238 1.382 . S
C236 C234 1.384 . S
C236 C237 1.381 . S
C236 H263 0.930 . S
C237 C236 1.381 . S
C237 C239 1.381 . S
C237 C240 1.487 . S
C238 C235 1.382 . S
C238 C239 1.387 . S
C238 H264 0.930 . S
C239 C237 1.381 . S
C239 C238 1.387 . S
C239 H265 0.931 . S
C240 C237 1.487 . S
C240 C247 1.399 . S
C240 N278 1.343 . S
C241 C242 1.384 . S
C241 C243 1.384 . S
C241 H266 0.931 . S
C242 C241 1.384 . S
C242 C245 1.382 . S
C243 C241 1.384 . S
C243 C244 1.381 . S
C243 H267 0.930 . S
C244 C243 1.381 . S
C244 C246 1.381 . S
C244 C247 1.487 . S
C245 C242 1.382 . S
C245 C246 1.387 . S
C245 H268 0.930 . S
C246 C244 1.381 . S
C246 C245 1.387 . S
C246 H269 0.931 . S
C247 C240 1.399 . S
C247 C244 1.487 . S
C247 N279 1.343 . S
C248 C249 1.384 . S
C248 C250 1.384 . S
C248 H270 0.931 . S
C249 C248 1.384 . S
C249 C252 1.382 . S
C250 C248 1.384 . S
C250 C251 1.381 . S
C250 H271 0.930 . S
C251 C250 1.381 . S
C251 C253 1.381 . S
C251 C254 1.487 . S
C252 C249 1.382 . S
C252 C253 1.387 . S
C252 H272 0.930 . S
C253 C251 1.381 . S
C253 C252 1.387 . S
C253 H273 0.931 . S
C254 C251 1.487 . S
C254 C261 1.399 . S
C254 N279 1.343 . S
C255 C256 1.384 . S
C255 C257 1.384 . S
C255 H274 0.931 . S
C256 C255 1.384 . S
C256 C259 1.382 . S
C257 C255 1.384 . S
C257 C258 1.381 . S
C257 H275 0.930 . S
C258 C257 1.381 . S
C258 C260 1.381 . S
C258 C261 1.487 . S
C259 C256 1.382 . S
C259 C260 1.387 . S
C259 H276 0.930 . S
C260 C258 1.381 . S
C260 C259 1.387 . S
C260 H277 0.931 . S
C261 C254 1.399 . S
C261 C258 1.487 . S
C261 N278 1.343 . S
H262 C234 0.931 . S
H263 C236 0.930 . S
H264 C238 0.930 . S
H265 C239 0.931 . S
H266 C241 0.931 . S
H267 C243 0.930 . S
H268 C245 0.930 . S
H269 C246 0.931 . S
H270 C248 0.931 . S
H271 C250 0.930 . S
H272 C252 0.930 . S
H273 C253 0.931 . S
H274 C255 0.931 . S
H275 C257 0.930 . S
H276 C259 0.930 . S
H277 C260 0.931 . S
N278 C240 1.343 . S
N278 C261 1.343 . S
N279 C247 1.343 . S
N279 C254 1.343 . S
C280 C281 1.384 . S
C280 C282 1.384 . S
C280 H308 0.931 . S
C281 C280 1.384 . S
C281 C284 1.382 . S
C282 C280 1.384 . S
C282 C283 1.381 . S
C282 H309 0.930 . S
C283 C282 1.381 . S
C283 C285 1.381 . S
C283 C286 1.487 . S
C284 C281 1.382 . S
C284 C285 1.387 . S
C284 H310 0.930 . S
C285 C283 1.381 . S
C285 C284 1.387 . S
C285 H311 0.931 . S
C286 C283 1.487 . S
C286 C293 1.399 . S
C286 N324 1.343 . S
C287 C288 1.384 . S
C287 C289 1.384 . S
C287 H312 0.931 . S
C288 C287 1.384 . S
C288 C291 1.382 . S
C289 C287 1.384 . S
C289 C290 1.381 . S
C289 H313 0.930 . S
C290 C289 1.381 . S
C290 C292 1.381 . S
C290 C293 1.487 . S
C291 C288 1.382 . S
C291 C292 1.387 . S
C291 H314 0.930 . S
C292 C290 1.381 . S
C292 C291 1.387 . S
C292 H315 0.931 . S
C293 C286 1.399 . S
C293 C290 1.487 . S
C293 N325 1.343 . S
C294 C295 1.384 . S
C294 C296 1.384 . S
C294 H316 0.931 . S
C295 C294 1.384 . S
C295 C298 1.382 . S
C296 C294 1.384 . S
C296 C297 1.381 . S
C296 H317 0.930 . S
C297 C296 1.381 . S
C297 C299 1.381 . S
C297 C300 1.487 . S
C298 C295 1.382 . S
C298 C299 1.387 . S
C298 H318 0.930 . S
C299 C297 1.381 . S
C299 C298 1.387 . S
C299 H319 0.931 . S
C300 C297 1.487 . S
C300 C307 1.399 . S
C300 N325 1.343 . S
C301 C302 1.384 . S
C301 C303 1.384 . S
C301 H320 0.931 . S
C302 C301 1.384 . S
C302 C305 1.382 . S
C303 C301 1.384 . S
C303 C304 1.381 . S
C303 H321 0.930 . S
C304 C303 1.381 . S
C304 C306 1.381 . S
C304 C307 1.487 . S
C305 C302 1.382 . S
C305 C306 1.387 . S
C305 H322 0.930 . S
C306 C304 1.381 . S
C306 C305 1.387 . S
C306 H323 0.931 . S
C307 C300 1.399 . S
C307 C304 1.487 . S
C307 N324 1.343 . S
H308 C280 0.931 . S
H309 C282 0.930 . S
H310 C284 0.930 . S
H311 C285 0.931 . S
H312 C287 0.931 . S
H313 C289 0.930 . S
H314 C291 0.930 . S
H315 C292 0.931 . S
H316 C294 0.931 . S
H317 C296 0.930 . S
H318 C298 0.930 . S
H319 C299 0.931 . S
H320 C301 0.931 . S
H321 C303 0.930 . S
H322 C305 0.930 . S
H323 C306 0.931 . S
N324 C286 1.343 . S
N324 C307 1.343 . S
N325 C293 1.343 . S
N325 C300 1.343 . S
C326 C327 1.384 . S
C326 C328 1.384 . S
C326 H354 0.931 . S
C327 C326 1.384 . S
C327 C330 1.382 . S
C328 C326 1.384 . S
C328 C329 1.381 . S
C328 H355 0.930 . S
C329 C328 1.381 . S
C329 C331 1.381 . S
C329 C332 1.487 . S
C330 C327 1.382 . S
C330 C331 1.387 . S
C330 H356 0.930 . S
C331 C329 1.381 . S
C331 C330 1.387 . S
C331 H357 0.931 . S
C332 C329 1.487 . S
C332 C339 1.399 . S
C332 N370 1.343 . S
C333 C334 1.384 . S
C333 C335 1.384 . S
C333 H358 0.931 . S
C334 C333 1.384 . S
C334 C337 1.382 . S
C335 C333 1.384 . S
C335 C336 1.381 . S
C335 H359 0.930 . S
C336 C335 1.381 . S
C336 C338 1.381 . S
C336 C339 1.487 . S
C337 C334 1.382 . S
C337 C338 1.387 . S
C337 H360 0.930 . S
C338 C336 1.381 . S
C338 C337 1.387 . S
C338 H361 0.931 . S
C339 C332 1.399 . S
C339 C336 1.487 . S
C339 N371 1.343 . S
C340 C341 1.384 . S
C340 C342 1.384 . S
C340 H362 0.931 . S
C341 C340 1.384 . S
C341 C344 1.382 . S
C342 C340 1.384 . S
C342 C343 1.381 . S
C342 H363 0.930 . S
C343 C342 1.381 . S
C343 C345 1.381 . S
C343 C346 1.487 . S
C344 C341 1.382 . S
C344 C345 1.387 . S
C344 H364 0.930 . S
C345 C343 1.381 . S
C345 C344 1.387 . S
C345 H365 0.931 . S
C346 C343 1.487 . S
C346 C353 1.399 . S
C346 N371 1.343 . S
C347 C348 1.384 . S
C347 C349 1.384 . S
C347 H366 0.931 . S
C348 C347 1.384 . S
C348 C351 1.382 . S
C349 C347 1.384 . S
C349 C350 1.381 . S
C349 H367 0.930 . S
C350 C349 1.381 . S
C350 C352 1.381 . S
C350 C353 1.487 . S
C351 C348 1.382 . S
C351 C352 1.387 . S
C351 H368 0.930 . S
C352 C350 1.381 . S
C352 C351 1.387 . S
C352 H369 0.931 . S
C353 C346 1.399 . S
C353 C350 1.487 . S
C353 N370 1.343 . S
H354 C326 0.931 . S
H355 C328 0.930 . S
H356 C330 0.930 . S
H357 C331 0.931 . S
H358 C333 0.931 . S
H359 C335 0.930 . S
H360 C337 0.930 . S
H361 C338 0.931 . S
H362 C340 0.931 . S
H363 C342 0.930 . S
H364 C344 0.930 . S
H365 C345 0.931 . S
H366 C347 0.931 . S
H367 C349 0.930 . S
H368 C351 0.930 . S
H369 C352 0.931 . S
N370 C332 1.343 . S
N370 C353 1.343 . S
N371 C339 1.343 . S
N371 C346 1.343 . S
C372 C373 1.384 . S
C372 C374 1.384 . S
C372 H400 0.931 . S
C373 C372 1.384 . S
C373 C376 1.382 . S
C374 C372 1.384 . S
C374 C375 1.381 . S
C374 H401 0.930 . S
C375 C374 1.381 . S
C375 C377 1.381 . S
C375 C378 1.487 . S
C376 C373 1.382 . S
C376 C377 1.387 . S
C376 H402 0.930 . S
C377 C375 1.381 . S
C377 C376 1.387 . S
C377 H403 0.931 . S
C378 C375 1.487 . S
C378 C385 1.399 . S
C378 N416 1.343 . S
C379 C380 1.384 . S
C379 C381 1.384 . S
C379 H404 0.931 . S
C380 C379 1.384 . S
C380 C383 1.382 . S
C381 C379 1.384 . S
C381 C382 1.381 . S
C381 H405 0.930 . S
C382 C381 1.381 . S
C382 C384 1.381 . S
C382 C385 1.487 . S
C383 C380 1.382 . S
C383 C384 1.387 . S
C383 H406 0.930 . S
C384 C382 1.381 . S
C384 C383 1.387 . S
C384 H407 0.931 . S
C385 C378 1.399 . S
C385 C382 1.487 . S
C385 N417 1.343 . S
C386 C387 1.384 . S
C386 C388 1.384 . S
C386 H408 0.931 . S
C387 C386 1.384 . S
C387 C390 1.382 . S
C388 C386 1.384 . S
C388 C389 1.381 . S
C388 H409 0.930 . S
C389 C388 1.381 . S
C389 C391 1.381 . S
C389 C392 1.487 . S
C390 C387 1.382 . S
C390 C391 1.387 . S
C390 H410 0.930 . S
C391 C389 1.381 . S
C391 C390 1.387 . S
C391 H411 0.931 . S
C392 C389 1.487 . S
C392 C399 1.399 . S
C392 N417 1.343 . S
C393 C394 1.384 . S
C393 C395 1.384 . S
C393 H412 0.931 . S
C394 C393 1.384 . S
C394 C397 1.382 . S
C395 C393 1.384 . S
C395 C396 1.381 . S
C395 H413 0.930 . S
C396 C395 1.381 . S
C396 C398 1.381 . S
C396 C399 1.487 . S
C397 C394 1.382 . S
C397 C398 1.387 . S
C397 H414 0.930 . S
C398 C396 1.381 . S
C398 C397 1.387 . S
C398 H415 0.931 . S
C399 C392 1.399 . S
C399 C396 1.487 . S
C399 N416 1.343 . S
H400 C372 0.931 . S
H401 C374 0.930 . S
H402 C376 0.930 . S
H403 C377 0.931 . S
H404 C379 0.931 . S
H405 C381 0.930 . S
H406 C383 0.930 . S
H407 C384 0.931 . S
H408 C386 0.931 . S
H409 C388 0.930 . S
H410 C390 0.930 . S
H411 C391 0.931 . S
H412 C393 0.931 . S
H413 C395 0.930 . S
H414 C397 0.930 . S
H415 C398 0.931 . S
N416 C378 1.343 . S
N416 C399 1.343 . S
N417 C385 1.343 . S
N417 C392 1.343 . S
C418 C419 1.384 . S
C418 C420 1.384 . S
C418 H446 0.931 . S
C419 C418 1.384 . S
C419 C422 1.382 . S
C420 C418 1.384 . S
C420 C421 1.381 . S
C420 H447 0.930 . S
C421 C420 1.381 . S
C421 C423 1.381 . S
C421 C424 1.487 . S
C422 C419 1.382 . S
C422 C423 1.387 . S
C422 H448 0.930 . S
C423 C421 1.381 . S
C423 C422 1.387 . S
C423 H449 0.931 . S
C424 C421 1.487 . S
C424 C431 1.399 . S
C424 N462 1.343 . S
C425 C426 1.384 . S
C425 C427 1.384 . S
C425 H450 0.931 . S
C426 C425 1.384 . S
C426 C429 1.382 . S
C427 C425 1.384 . S
C427 C428 1.381 . S
C427 H451 0.930 . S
C428 C427 1.381 . S
C428 C430 1.381 . S
C428 C431 1.487 . S
C429 C426 1.382 . S
C429 C430 1.387 . S
C429 H452 0.930 . S
C430 C428 1.381 . S
C430 C429 1.387 . S
C430 H453 0.931 . S
C431 C424 1.399 . S
C431 C428 1.487 . S
C431 N463 1.343 . S
C432 C433 1.384 . S
C432 C434 1.384 . S
C432 H454 0.931 . S
C433 C432 1.384 . S
C433 C436 1.382 . S
C434 C432 1.384 . S
C434 C435 1.381 . S
C434 H455 0.930 . S
C435 C434 1.381 . S
C435 C437 1.381 . S
C435 C438 1.487 . S
C436 C433 1.382 . S
C436 C437 1.387 . S
C436 H456 0.930 . S
C437 C435 1.381 . S
C437 C436 1.387 . S
C437 H457 0.931 . S
C438 C435 1.487 . S
C438 C445 1.399 . S
C438 N463 1.343 . S
C439 C440 1.384 . S
C439 C441 1.384 . S
C439 H458 0.931 . S
C440 C439 1.384 . S
C440 C443 1.382 . S
C441 C439 1.384 . S
C441 C442 1.381 . S
C441 H459 0.930 . S
C442 C441 1.381 . S
C442 C444 1.381 . S
C442 C445 1.487 . S
C443 C440 1.382 . S
C443 C444 1.387 . S
C443 H460 0.930 . S
C444 C442 1.381 . S
C444 C443 1.387 . S
C444 H461 0.931 . S
C445 C438 1.399 . S
C445 C442 1.487 . S
C445 N462 1.343 . S
H446 C418 0.931 . S
H447 C420 0.930 . S
H448 C422 0.930 . S
H449 C423 0.931 . S
H450 C425 0.931 . S
H451 C427 0.930 . S
H452 C429 0.930 . S
H453 C430 0.931 . S
H454 C432 0.931 . S
H455 C434 0.930 . S
H456 C436 0.930 . S
H457 C437 0.931 . S
H458 C439 0.931 . S
H459 C441 0.930 . S
H460 C443 0.930 . S
H461 C444 0.931 . S
N462 C424 1.343 . S
N462 C445 1.343 . S
N463 C431 1.343 . S
N463 C438 1.343 . S
C464 C465 1.384 . S
C464 C466 1.384 . S
C464 H492 0.931 . S
C465 C464 1.384 . S
C465 C468 1.382 . S
C466 C464 1.384 . S
C466 C467 1.381 . S
C466 H493 0.930 . S
C467 C466 1.381 . S
C467 C469 1.381 . S
C467 C470 1.487 . S
C468 C465 1.382 . S
C468 C469 1.387 . S
C468 H494 0.930 . S
C469 C467 1.381 . S
C469 C468 1.387 . S
C469 H495 0.931 . S
C470 C467 1.487 . S
C470 C477 1.399 . S
C470 N508 1.343 . S
C471 C472 1.384 . S
C471 C473 1.384 . S
C471 H496 0.931 . S
C472 C471 1.384 . S
C472 C475 1.382 . S
C473 C471 1.384 . S
C473 C474 1.381 . S
C473 H497 0.930 . S
C474 C473 1.381 . S
C474 C476 1.381 . S
C474 C477 1.487 . S
C475 C472 1.382 . S
C475 C476 1.387 . S
C475 H498 0.930 . S
C476 C474 1.381 . S
C476 C475 1.387 . S
C476 H499 0.931 . S
C477 C470 1.399 . S
C477 C474 1.487 . S
C477 N509 1.343 . S
C478 C479 1.384 . S
C478 C480 1.384 . S
C478 H500 0.931 . S
C479 C478 1.384 . S
C479 C482 1.382 . S
C480 C478 1.384 . S
C480 C481 1.381 . S
C480 H501 0.930 . S
C481 C480 1.381 . S
C481 C483 1.381 . S
C481 C484 1.487 . S
C482 C479 1.382 . S
C482 C483 1.387 . S
C482 H502 0.930 . S
C483 C481 1.381 . S
C483 C482 1.387 . S
C483 H503 0.931 . S
C484 C481 1.487 . S
C484 C491 1.399 . S
C484 N509 1.343 . S
C485 C486 1.384 . S
C485 C487 1.384 . S
C485 H504 0.931 . S
C486 C485 1.384 . S
C486 C489 1.382 . S
C487 C485 1.384 . S
C487 C488 1.381 . S
C487 H505 0.930 . S
C488 C487 1.381 . S
C488 C490 1.381 . S
C488 C491 1.487 . S
C489 C486 1.382 . S
C489 C490 1.387 . S
C489 H506 0.930 . S
C490 C488 1.381 . S
C490 C489 1.387 . S
C490 H507 0.931 . S
C491 C484 1.399 . S
C491 C488 1.487 . S
C491 N508 1.343 . S
H492 C464 0.931 . S
H493 C466 0.930 . S
H494 C468 0.930 . S
H495 C469 0.931 . S
H496 C471 0.931 . S
H497 C473 0.930 . S
H498 C475 0.930 . S
H499 C476 0.931 . S
H500 C478 0.931 . S
H501 C480 0.930 . S
H502 C482 0.930 . S
H503 C483 0.931 . S
H504 C485 0.931 . S
H505 C487 0.930 . S
H506 C489 0.930 . S
H507 C490 0.931 . S
N508 C470 1.343 . S
N508 C491 1.343 . S
N509 C477 1.343 . S
N509 C484 1.343 . S
C510 C511 1.384 . S
C510 C512 1.384 . S
C510 H538 0.931 . S
C511 C510 1.384 . S
C511 C514 1.382 . S
C512 C510 1.384 . S
C512 C513 1.381 . S
C512 H539 0.930 . S
C513 C512 1.381 . S
C513 C515 1.381 . S
C513 C516 1.487 . S
C514 C511 1.382 . S
C514 C515 1.387 . S
C514 H540 0.930 . S
C515 C513 1.381 . S
C515 C514 1.387 . S
C515 H541 0.931 . S
C516 C513 1.487 . S
C516 C523 1.399 . S
C516 N554 1.343 . S
C517 C518 1.384 . S
C517 C519 1.384 . S
C517 H542 0.931 . S
C518 C517 1.384 . S
C518 C521 1.382 . S
C519 C517 1.384 . S
C519 C520 1.381 . S
C519 H543 0.930 . S
C520 C519 1.381 . S
C520 C522 1.381 . S
C520 C523 1.487 . S
C521 C518 1.382 . S
C521 C522 1.387 . S
C521 H544 0.930 . S
C522 C520 1.381 . S
C522 C521 1.387 . S
C522 H545 0.931 . S
C523 C516 1.399 . S
C523 C520 1.487 . S
C523 N555 1.343 . S
C524 C525 1.384 . S
C524 C526 1.384 . S
C524 H546 0.931 . S
C525 C524 1.384 . S
C525 C528 1.382 . S
C526 C524 1.384 . S
C526 C527 1.381 . S
C526 H547 0.930 . S
C527 C526 1.381 . S
C527 C529 1.381 . S
C527 C530 1.487 . S
C528 C525 1.382 . S
C528 C529 1.387 . S
C528 H548 0.930 . S
C529 C527 1.381 . S
C529 C528 1.387 . S
C529 H549 0.931 . S
C530 C527 1.487 . S
C530 C537 1.399 . S
C530 N555 1.343 . S
C531 C532 1.384 . S
C531 C533 1.384 . S
C531 H550 0.931 . S
C532 C531 1.384 . S
C532 C535 1.382 . S
C533 C531 1.384 . S
C533 C534 1.381 . S
C533 H551 0.930 . S
C534 C533 1.381 . S
C534 C536 1.381 . S
C534 C537 1.487 . S
C535 C532 1.382 . S
C535 C536 1.387 . S
C535 H552 0.930 . S
C536 C534 1.381 . S
C536 C535 1.387 . S
C536 H553 0.931 . S
C537 C530 1.399 . S
C537 C534 1.487 . S
C537 N554 1.343 . S
H538 C510 0.931 . S
H539 C512 0.930 . S
H540 C514 0.930 . S
H541 C515 0.931 . S
H542 C517 0.931 . S
H543 C519 0.930 . S
H544 C521 0.930 . S
H545 C522 0.931 . S
H546 C524 0.931 . S
H547 C526 0.930 . S
H548 C528 0.930 . S
H549 C529 0.931 . S
H550 C531 0.931 . S
H551 C533 0.930 . S
H552 C535 0.930 . S
H553 C536 0.931 . S
N554 C516 1.343 . S
N554 C537 1.343 . S
N555 C523 1.343 . S
N555 C530 1.343 . S
C556 C557 1.384 . S
C556 C558 1.384 . S
C556 H584 0.931 . S
C557 C556 1.384 . S
C557 C560 1.382 . S
C558 C556 1.384 . S
C558 C559 1.381 . S
C558 H585 0.930 . S
C559 C558 1.381 . S
C559 C561 1.381 . S
C559 C562 1.487 . S
C560 C557 1.382 . S
C560 C561 1.387 . S
C560 H586 0.930 . S
C561 C559 1.381 . S
C561 C560 1.387 . S
C561 H587 0.931 . S
C562 C559 1.487 . S
C562 C569 1.399 . S
C562 N600 1.343 . S
C563 C564 1.384 . S
C563 C565 1.384 . S
C563 H588 0.931 . S
C564 C563 1.384 . S
C564 C567 1.382 . S
C565 C563 1.384 . S
C565 C566 1.381 . S
C565 H589 0.930 . S
C566 C565 1.381 . S
C566 C568 1.381 . S
C566 C569 1.487 . S
C567 C564 1.382 . S
C567 C568 1.387 . S
C567 H590 0.930 . S
C568 C566 1.381 . S
C568 C567 1.387 . S
C568 H591 0.931 . S
C569 C562 1.399 . S
C569 C566 1.487 . S
C569 N601 1.343 . S
C570 C571 1.384 . S
C570 C572 1.384 . S
C570 H592 0.931 . S
C571 C570 1.384 . S
C571 C574 1.382 . S
C572 C570 1.384 . S
C572 C573 1.381 . S
C572 H593 0.930 . S
C573 C572 1.381 . S
C573 C575 1.381 . S
C573 C576 1.487 . S
C574 C571 1.382 . S
C574 C575 1.387 . S
C574 H594 0.930 . S
C575 C573 1.381 . S
C575 C574 1.387 . S
C575 H595 0.931 . S
C576 C573 1.487 . S
C576 C583 1.399 . S
C576 N601 1.343 . S
C577 C578 1.384 . S
C577 C579 1.384 . S
C577 H596 0.931 . S
C578 C577 1.384 . S
C578 C581 1.382 . S
C579 C577 1.384 . S
C579 C580 1.381 . S
C579 H597 0.930 . S
C580 C579 1.381 . S
C580 C582 1.381 . S
C580 C583 1.487 . S
C581 C578 1.382 . S
C581 C582 1.387 . S
C581 H598 0.930 . S
C582 C580 1.381 . S
C582 C581 1.387 . S
C582 H599 0.931 . S
C583 C576 1.399 . S
C583 C580 1.487 . S
C583 N600 1.343 . S
H584 C556 0.931 . S
H585 C558 0.930 . S
H586 C560 0.930 . S
H587 C561 0.931 . S
H588 C563 0.931 . S
H589 C565 0.930 . S
H590 C567 0.930 . S
H591 C568 0.931 . S
H592 C570 0.931 . S
H593 C572 0.930 . S
H594 C574 0.930 . S
H595 C575 0.931 . S
H596 C577 0.931 . S
H597 C579 0.930 . S
H598 C581 0.930 . S
H599 C582 0.931 . S
N600 C562 1.343 . S
N600 C583 1.343 . S
N601 C569 1.343 . S
N601 C576 1.343 . S
C602 C603 1.384 . S
C602 C604 1.384 . S
C602 H630 0.931 . S
C603 C602 1.384 . S
C603 C606 1.382 . S
C604 C602 1.384 . S
C604 C605 1.381 . S
C604 H631 0.930 . S
C605 C604 1.381 . S
C605 C607 1.381 . S
C605 C608 1.487 . S
C606 C603 1.382 . S
C606 C607 1.387 . S
C606 H632 0.930 . S
C607 C605 1.381 . S
C607 C606 1.387 . S
C607 H633 0.931 . S
C608 C605 1.487 . S
C608 C615 1.399 . S
C608 N646 1.343 . S
C609 C610 1.384 . S
C609 C611 1.384 . S
C609 H634 0.931 . S
C610 C609 1.384 . S
C610 C613 1.382 . S
C611 C609 1.384 . S
C611 C612 1.381 . S
C611 H635 0.930 . S
C612 C611 1.381 . S
C612 C614 1.381 . S
C612 C615 1.487 . S
C613 C610 1.382 . S
C613 C614 1.387 . S
C613 H636 0.930 . S
C614 C612 1.381 . S
C614 C613 1.387 . S
C614 H637 0.931 . S
C615 C608 1.399 . S
C615 C612 1.487 . S
C615 N647 1.343 . S
C616 C617 1.384 . S
C616 C618 1.384 . S
C616 H638 0.931 . S
C617 C616 1.384 . S
C617 C620 1.382 . S
C618 C616 1.384 . S
C618 C619 1.381 . S
C618 H639 0.930 . S
C619 C618 1.381 . S
C619 C621 1.381 . S
C619 C622 1.487 . S
C620 C617 1.382 . S
C620 C621 1.387 . S
C620 H640 0.930 . S
C621 C619 1.381 . S
C621 C620 1.387 . S
C621 H641 0.931 . S
C622 C619 1.487 . S
C622 C629 1.399 . S
C622 N647 1.343 . S
C623 C624 1.384 . S
C623 C625 1.384 . S
C623 H642 0.931 . S
C624 C623 1.384 . S
C624 C627 1.382 . S
C625 C623 1.384 . S
C625 C626 1.381 . S
C625 H643 0.930 . S
C626 C625 1.381 . S
C626 C628 1.381 . S
C626 C629 1.487 . S
C627 C624 1.382 . S
C627 C628 1.387 . S
C627 H644 0.930 . S
C628 C626 1.381 . S
C628 C627 1.387 . S
C628 H645 0.931 . S
C629 C622 1.399 . S
C629 C626 1.487 . S
C629 N646 1.343 . S
H630 C602 0.931 . S
H631 C604 0.930 . S
H632 C606 0.930 . S
H633 C607 0.931 . S
H634 C609 0.931 . S
H635 C611 0.930 . S
H636 C613 0.930 . S
H637 C614 0.931 . S
H638 C616 0.931 . S
H639 C618 0.930 . S
H640 C620 0.930 . S
H641 C621 0.931 . S
H642 C623 0.931 . S
H643 C625 0.930 . S
H644 C627 0.930 . S
H645 C628 0.931 . S
N646 C608 1.343 . S
N646 C629 1.343 . S
N647 C615 1.343 . S
N647 C622 1.343 . S
C648 C649 1.384 . S
C648 C650 1.384 . S
C648 H676 0.931 . S
C649 C648 1.384 . S
C649 C652 1.382 1_655 S
C650 C648 1.384 . S
C650 C651 1.395 . S
C650 H677 0.930 . S
C651 C650 1.395 . S
C651 C653 1.374 1_655 S
C651 C654 1.474 1_655 S
C652 C649 1.382 1_455 S
C652 C653 1.387 . S
C652 H678 0.930 . S
C653 C651 1.374 1_455 S
C653 C652 1.387 . S
C653 H679 0.931 . S
C654 C651 1.474 1_455 S
C654 C661 1.399 1_455 S
C654 N692 1.351 . S
C655 C656 1.384 . S
C655 C657 1.384 . S
C655 H680 0.931 . S
C656 C655 1.384 . S
C656 C659 1.382 1_455 S
C657 C655 1.384 . S
C657 C658 1.384 . S
C657 H681 0.930 . S
C658 C657 1.384 . S
C658 C660 1.373 1_455 S
C658 C661 1.498 1_455 S
C659 C656 1.382 1_655 S
C659 C660 1.387 . S
C659 H682 0.930 . S
C660 C658 1.373 1_655 S
C660 C659 1.387 . S
C660 H683 0.931 . S
C661 C654 1.399 1_655 S
C661 C658 1.498 1_655 S
C661 N693 1.338 . S
C662 C663 1.384 . S
C662 C664 1.384 . S
C662 H684 0.931 . S
C663 C662 1.384 . S
C663 C666 1.382 1_455 S
C664 C662 1.384 . S
C664 C665 1.403 . S
C664 H685 0.930 . S
C665 C664 1.403 . S
C665 C667 1.370 1_455 S
C665 C668 1.474 1_455 S
C666 C663 1.382 1_655 S
C666 C667 1.387 . S
C666 H686 0.930 . S
C667 C665 1.370 1_655 S
C667 C666 1.387 . S
C667 H687 0.931 . S
C668 C665 1.474 1_655 S
C668 C675 1.399 1_655 S
C668 N693 1.346 . S
C669 C670 1.384 . S
C669 C671 1.384 . S
C669 H688 0.931 . S
C670 C669 1.384 . S
C670 C673 1.382 1_655 S
C671 C669 1.384 . S
C671 C672 1.382 . S
C671 H689 0.930 . S
C672 C671 1.382 . S
C672 C674 1.378 1_655 S
C672 C675 1.498 1_655 S
C673 C670 1.382 1_455 S
C673 C674 1.387 . S
C673 H690 0.930 . S
C674 C672 1.378 1_455 S
C674 C673 1.387 . S
C674 H691 0.931 . S
C675 C668 1.399 1_455 S
C675 C672 1.498 1_455 S
C675 N692 1.335 . S
H676 C648 0.931 . S
H677 C650 0.930 . S
H678 C652 0.930 . S
H679 C653 0.931 . S
H680 C655 0.931 . S
H681 C657 0.930 . S
H682 C659 0.930 . S
H683 C660 0.931 . S
H684 C662 0.931 . S
H685 C664 0.930 . S
H686 C666 0.930 . S
H687 C667 0.931 . S
H688 C669 0.931 . S
H689 C671 0.930 . S
H690 C673 0.930 . S
H691 C674 0.931 . S
N692 C654 1.351 . S
N692 C675 1.335 . S
N693 C661 1.338 . S
N693 C668 1.346 . S
C694 C695 1.384 . S
C694 C696 1.384 . S
C694 H722 0.931 . S
C695 C694 1.384 . S
C695 C698 1.382 . S
C696 C694 1.384 . S
C696 C697 1.381 . S
C696 H723 0.930 . S
C697 C696 1.381 . S
C697 C699 1.381 . S
C697 C700 1.487 . S
C698 C695 1.382 . S
C698 C699 1.387 . S
C698 H724 0.930 . S
C699 C697 1.381 . S
C699 C698 1.387 . S
C699 H725 0.931 . S
C700 C697 1.487 . S
C700 C707 1.399 . S
C700 N738 1.343 . S
C701 C702 1.384 . S
C701 C703 1.384 . S
C701 H726 0.931 . S
C702 C701 1.384 . S
C702 C705 1.382 . S
C703 C701 1.384 . S
C703 C704 1.381 . S
C703 H727 0.930 . S
C704 C703 1.381 . S
C704 C706 1.381 . S
C704 C707 1.487 . S
C705 C702 1.382 . S
C705 C706 1.387 . S
C705 H728 0.930 . S
C706 C704 1.381 . S
C706 C705 1.387 . S
C706 H729 0.931 . S
C707 C700 1.399 . S
C707 C704 1.487 . S
C707 N739 1.343 . S
C708 C709 1.384 . S
C708 C710 1.384 . S
C708 H730 0.931 . S
C709 C708 1.384 . S
C709 C712 1.382 . S
C710 C708 1.384 . S
C710 C711 1.381 . S
C710 H731 0.930 . S
C711 C710 1.381 . S
C711 C713 1.381 . S
C711 C714 1.487 . S
C712 C709 1.382 . S
C712 C713 1.387 . S
C712 H732 0.930 . S
C713 C711 1.381 . S
C713 C712 1.387 . S
C713 H733 0.931 . S
C714 C711 1.487 . S
C714 C721 1.399 . S
C714 N739 1.343 . S
C715 C716 1.384 . S
C715 C717 1.384 . S
C715 H734 0.931 . S
C716 C715 1.384 . S
C716 C719 1.382 . S
C717 C715 1.384 . S
C717 C718 1.381 . S
C717 H735 0.930 . S
C718 C717 1.381 . S
C718 C720 1.381 . S
C718 C721 1.487 . S
C719 C716 1.382 . S
C719 C720 1.387 . S
C719 H736 0.930 . S
C720 C718 1.381 . S
C720 C719 1.387 . S
C720 H737 0.931 . S
C721 C714 1.399 . S
C721 C718 1.487 . S
C721 N738 1.343 . S
H722 C694 0.931 . S
H723 C696 0.930 . S
H724 C698 0.930 . S
H725 C699 0.931 . S
H726 C701 0.931 . S
H727 C703 0.930 . S
H728 C705 0.930 . S
H729 C706 0.931 . S
H730 C708 0.931 . S
H731 C710 0.930 . S
H732 C712 0.930 . S
H733 C713 0.931 . S
H734 C715 0.931 . S
H735 C717 0.930 . S
H736 C719 0.930 . S
H737 C720 0.931 . S
N738 C700 1.343 . S
N738 C721 1.343 . S
N739 C707 1.343 . S
N739 C714 1.343 . S
C740 C741 1.384 1_545 S
C740 C742 1.384 . S
C740 H768 0.931 . S
C741 C740 1.384 1_565 S
C741 C744 1.382 . S
C742 C740 1.384 . S
C742 C743 1.381 1_545 S
C742 H769 0.930 . S
C743 C742 1.381 1_565 S
C743 C745 1.381 . S
C743 C746 1.487 . S
C744 C741 1.382 . S
C744 C745 1.387 . S
C744 H770 0.930 . S
C745 C743 1.381 . S
C745 C744 1.387 . S
C745 H771 0.931 . S
C746 C743 1.487 . S
C746 C753 1.399 1_565 S
C746 N784 1.343 . S
C747 C748 1.384 1_565 S
C747 C749 1.384 . S
C747 H772 0.931 . S
C748 C747 1.384 1_545 S
C748 C751 1.382 . S
C749 C747 1.384 . S
C749 C750 1.381 1_565 S
C749 H773 0.930 . S
C750 C749 1.381 1_545 S
C750 C752 1.381 . S
C750 C753 1.487 . S
C751 C748 1.382 . S
C751 C752 1.387 . S
C751 H774 0.930 . S
C752 C750 1.381 . S
C752 C751 1.387 . S
C752 H775 0.931 . S
C753 C746 1.399 1_545 S
C753 C750 1.487 . S
C753 N785 1.343 . S
C754 C755 1.384 1_565 S
C754 C756 1.384 . S
C754 H776 0.931 . S
C755 C754 1.384 1_545 S
C755 C758 1.382 . S
C756 C754 1.384 . S
C756 C757 1.381 1_565 S
C756 H777 0.930 . S
C757 C756 1.381 1_545 S
C757 C759 1.381 . S
C757 C760 1.487 . S
C758 C755 1.382 . S
C758 C759 1.387 . S
C758 H778 0.930 . S
C759 C757 1.381 . S
C759 C758 1.387 . S
C759 H779 0.931 . S
C760 C757 1.487 . S
C760 C767 1.399 1_545 S
C760 N785 1.343 . S
C761 C762 1.384 1_545 S
C761 C763 1.384 . S
C761 H780 0.931 . S
C762 C761 1.384 1_565 S
C762 C765 1.382 . S
C763 C761 1.384 . S
C763 C764 1.381 1_545 S
C763 H781 0.930 . S
C764 C763 1.381 1_565 S
C764 C766 1.381 . S
C764 C767 1.487 . S
C765 C762 1.382 . S
C765 C766 1.387 . S
C765 H782 0.930 . S
C766 C764 1.381 . S
C766 C765 1.387 . S
C766 H783 0.931 . S
C767 C760 1.399 1_565 S
C767 C764 1.487 . S
C767 N784 1.343 . S
H768 C740 0.931 . S
H769 C742 0.930 . S
H770 C744 0.930 . S
H771 C745 0.931 . S
H772 C747 0.931 . S
H773 C749 0.930 . S
H774 C751 0.930 . S
H775 C752 0.931 . S
H776 C754 0.931 . S
H777 C756 0.930 . S
H778 C758 0.930 . S
H779 C759 0.931 . S
H780 C761 0.931 . S
H781 C763 0.930 . S
H782 C765 0.930 . S
H783 C766 0.931 . S
N784 C746 1.343 . S
N784 C767 1.343 . S
N785 C753 1.343 . S
N785 C760 1.343 . S
C786 C787 1.384 . S
C786 C788 1.384 . S
C786 H814 0.931 . S
C787 C786 1.384 . S
C787 C790 1.382 1_545 S
C788 C786 1.384 . S
C788 C789 1.384 . S
C788 H815 0.930 . S
C789 C788 1.384 . S
C789 C791 1.374 1_545 S
C789 C792 1.497 1_545 S
C790 C787 1.382 1_565 S
C790 C791 1.387 . S
C790 H816 0.930 . S
C791 C789 1.374 1_565 S
C791 C790 1.387 . S
C791 H817 0.931 . S
C792 C789 1.497 1_565 S
C792 C799 1.399 1_565 S
C792 N830 1.338 . S
C793 C794 1.384 . S
C793 C795 1.384 . S
C793 H818 0.931 . S
C794 C793 1.384 . S
C794 C797 1.382 1_565 S
C795 C793 1.384 . S
C795 C796 1.395 . S
C795 H819 0.930 . S
C796 C795 1.395 . S
C796 C798 1.374 1_565 S
C796 C799 1.474 1_565 S
C797 C794 1.382 1_545 S
C797 C798 1.387 . S
C797 H820 0.930 . S
C798 C796 1.374 1_545 S
C798 C797 1.387 . S
C798 H821 0.931 . S
C799 C792 1.399 1_545 S
C799 C796 1.474 1_545 S
C799 N831 1.351 . S
C800 C801 1.384 . S
C800 C802 1.384 . S
C800 H822 0.931 . S
C801 C800 1.384 . S
C801 C804 1.382 1_565 S
C802 C800 1.384 . S
C802 C803 1.382 . S
C802 H823 0.930 . S
C803 C802 1.382 . S
C803 C805 1.379 1_565 S
C803 C806 1.497 1_565 S
C804 C801 1.382 1_545 S
C804 C805 1.387 . S
C804 H824 0.930 . S
C805 C803 1.379 1_545 S
C805 C804 1.387 . S
C805 H825 0.931 . S
C806 C803 1.497 1_545 S
C806 C813 1.399 1_545 S
C806 N831 1.335 . S
C807 C808 1.384 . S
C807 C809 1.384 . S
C807 H826 0.931 . S
C808 C807 1.384 . S
C808 C811 1.382 1_545 S
C809 C807 1.384 . S
C809 C810 1.404 . S
C809 H827 0.930 . S
C810 C809 1.404 . S
C810 C812 1.369 1_545 S
C810 C813 1.474 1_545 S
C811 C808 1.382 1_565 S
C811 C812 1.387 . S
C811 H828 0.930 . S
C812 C810 1.369 1_565 S
C812 C811 1.387 . S
C812 H829 0.931 . S
C813 C806 1.399 1_565 S
C813 C810 1.474 1_565 S
C813 N830 1.346 . S
H814 C786 0.931 . S
H815 C788 0.930 . S
H816 C790 0.930 . S
H817 C791 0.931 . S
H818 C793 0.931 . S
H819 C795 0.930 . S
H820 C797 0.930 . S
H821 C798 0.931 . S
H822 C800 0.931 . S
H823 C802 0.930 . S
H824 C804 0.930 . S
H825 C805 0.931 . S
H826 C807 0.931 . S
H827 C809 0.930 . S
H828 C811 0.930 . S
H829 C812 0.931 . S
N830 C792 1.338 . S
N830 C813 1.346 . S
N831 C799 1.351 . S
N831 C806 1.335 . S
C832 C833 1.384 . S
C832 C834 1.384 . S
C832 H860 0.931 . S
C833 C832 1.384 . S
C833 C836 1.382 1_655 S
C834 C832 1.384 . S
C834 C835 1.406 . S
C834 H861 0.930 . S
C835 C834 1.406 . S
C835 C837 1.369 1_655 S
C835 C838 1.473 1_655 S
C836 C833 1.382 1_455 S
C836 C837 1.387 . S
C836 H862 0.930 . S
C837 C835 1.369 1_455 S
C837 C836 1.387 . S
C837 H863 0.931 . S
C838 C835 1.473 1_455 S
C838 C845 1.399 1_455 S
C838 N876 1.346 . S
C839 C840 1.384 . S
C839 C841 1.384 . S
C839 H864 0.931 . S
C840 C839 1.384 . S
C840 C843 1.382 1_455 S
C841 C839 1.384 . S
C841 C842 1.383 . S
C841 H865 0.930 . S
C842 C841 1.383 . S
C842 C844 1.377 1_455 S
C842 C845 1.498 1_455 S
C843 C840 1.382 1_655 S
C843 C844 1.387 . S
C843 H866 0.930 . S
C844 C842 1.377 1_655 S
C844 C843 1.387 . S
C844 H867 0.931 . S
C845 C838 1.399 1_655 S
C845 C842 1.498 1_655 S
C845 N877 1.335 . S
C846 C847 1.384 . S
C846 C848 1.384 . S
C846 H868 0.931 . S
C847 C846 1.384 . S
C847 C850 1.382 1_455 S
C848 C846 1.384 . S
C848 C849 1.397 . S
C848 H869 0.930 . S
C849 C848 1.397 . S
C849 C851 1.373 1_455 S
C849 C852 1.473 1_455 S
C850 C847 1.382 1_655 S
C850 C851 1.387 . S
C850 H870 0.930 . S
C851 C849 1.373 1_655 S
C851 C850 1.387 . S
C851 H871 0.931 . S
C852 C849 1.473 1_655 S
C852 C859 1.399 1_655 S
C852 N877 1.350 . S
C853 C854 1.384 . S
C853 C855 1.384 . S
C853 H872 0.931 . S
C854 C853 1.384 . S
C854 C857 1.382 1_655 S
C855 C853 1.384 . S
C855 C856 1.385 . S
C855 H873 0.930 . S
C856 C855 1.385 . S
C856 C858 1.372 1_655 S
C856 C859 1.498 1_655 S
C857 C854 1.382 1_455 S
C857 C858 1.387 . S
C857 H874 0.930 . S
C858 C856 1.372 1_455 S
C858 C857 1.387 . S
C858 H875 0.931 . S
C859 C852 1.399 1_455 S
C859 C856 1.498 1_455 S
C859 N876 1.339 . S
H860 C832 0.931 . S
H861 C834 0.930 . S
H862 C836 0.930 . S
H863 C837 0.931 . S
H864 C839 0.931 . S
H865 C841 0.930 . S
H866 C843 0.930 . S
H867 C844 0.931 . S
H868 C846 0.931 . S
H869 C848 0.930 . S
H870 C850 0.930 . S
H871 C851 0.931 . S
H872 C853 0.931 . S
H873 C855 0.930 . S
H874 C857 0.930 . S
H875 C858 0.931 . S
N876 C838 1.346 . S
N876 C859 1.339 . S
N877 C845 1.335 . S
N877 C852 1.350 . S
C878 C879 1.384 . S
C878 C880 1.384 . S
C878 H906 0.931 . S
C879 C878 1.384 . S
C879 C882 1.382 . S
C880 C878 1.384 . S
C880 C881 1.381 . S
C880 H907 0.930 . S
C881 C880 1.381 . S
C881 C883 1.381 . S
C881 C884 1.487 . S
C882 C879 1.382 . S
C882 C883 1.387 . S
C882 H908 0.930 . S
C883 C881 1.381 . S
C883 C882 1.387 . S
C883 H909 0.931 . S
C884 C881 1.487 . S
C884 C891 1.399 . S
C884 N922 1.343 . S
C885 C886 1.384 . S
C885 C887 1.384 . S
C885 H910 0.931 . S
C886 C885 1.384 . S
C886 C889 1.382 . S
C887 C885 1.384 . S
C887 C888 1.381 . S
C887 H911 0.930 . S
C888 C887 1.381 . S
C888 C890 1.381 . S
C888 C891 1.487 . S
C889 C886 1.382 . S
C889 C890 1.387 . S
C889 H912 0.930 . S
C890 C888 1.381 . S
C890 C889 1.387 . S
C890 H913 0.931 . S
C891 C884 1.399 . S
C891 C888 1.487 . S
C891 N923 1.343 . S
C892 C893 1.384 . S
C892 C894 1.384 . S
C892 H914 0.931 . S
C893 C892 1.384 . S
C893 C896 1.382 . S
C894 C892 1.384 . S
C894 C895 1.381 . S
C894 H915 0.930 . S
C895 C894 1.381 . S
C895 C897 1.381 . S
C895 C898 1.487 . S
C896 C893 1.382 . S
C896 C897 1.387 . S
C896 H916 0.930 . S
C897 C895 1.381 . S
C897 C896 1.387 . S
C897 H917 0.931 . S
C898 C895 1.487 . S
C898 C905 1.399 . S
C898 N923 1.343 . S
C899 C900 1.384 . S
C899 C901 1.384 . S
C899 H918 0.931 . S
C900 C899 1.384 . S
C900 C903 1.382 . S
C901 C899 1.384 . S
C901 C902 1.381 . S
C901 H919 0.930 . S
C902 C901 1.381 . S
C902 C904 1.381 . S
C902 C905 1.487 . S
C903 C900 1.382 . S
C903 C904 1.387 . S
C903 H920 0.930 . S
C904 C902 1.381 . S
C904 C903 1.387 . S
C904 H921 0.931 . S
C905 C898 1.399 . S
C905 C902 1.487 . S
C905 N922 1.343 . S
H906 C878 0.931 . S
H907 C880 0.930 . S
H908 C882 0.930 . S
H909 C883 0.931 . S
H910 C885 0.931 . S
H911 C887 0.930 . S
H912 C889 0.930 . S
H913 C890 0.931 . S
H914 C892 0.931 . S
H915 C894 0.930 . S
H916 C896 0.930 . S
H917 C897 0.931 . S
H918 C899 0.931 . S
H919 C901 0.930 . S
H920 C903 0.930 . S
H921 C904 0.931 . S
N922 C884 1.343 . S
N922 C905 1.343 . S
N923 C891 1.343 . S
N923 C898 1.343 . S
C924 C925 1.384 . S
C924 C926 1.384 . S
C924 H952 0.931 . S
C925 C924 1.384 . S
C925 C928 1.382 . S
C926 C924 1.384 . S
C926 C927 1.381 . S
C926 H953 0.930 . S
C927 C926 1.381 . S
C927 C929 1.381 . S
C927 C930 1.487 . S
C928 C925 1.382 . S
C928 C929 1.387 . S
C928 H954 0.930 . S
C929 C927 1.381 . S
C929 C928 1.387 . S
C929 H955 0.931 . S
C930 C927 1.487 . S
C930 C937 1.399 . S
C930 N968 1.343 . S
C931 C932 1.384 . S
C931 C933 1.384 . S
C931 H956 0.931 . S
C932 C931 1.384 . S
C932 C935 1.382 . S
C933 C931 1.384 . S
C933 C934 1.381 . S
C933 H957 0.930 . S
C934 C933 1.381 . S
C934 C936 1.381 . S
C934 C937 1.487 . S
C935 C932 1.382 . S
C935 C936 1.387 . S
C935 H958 0.930 . S
C936 C934 1.381 . S
C936 C935 1.387 . S
C936 H959 0.931 . S
C937 C930 1.399 . S
C937 C934 1.487 . S
C937 N969 1.343 . S
C938 C939 1.384 . S
C938 C940 1.384 . S
C938 H960 0.931 . S
C939 C938 1.384 . S
C939 C942 1.382 . S
C940 C938 1.384 . S
C940 C941 1.381 . S
C940 H961 0.930 . S
C941 C940 1.381 . S
C941 C943 1.381 . S
C941 C944 1.487 . S
C942 C939 1.382 . S
C942 C943 1.387 . S
C942 H962 0.930 . S
C943 C941 1.381 . S
C943 C942 1.387 . S
C943 H963 0.931 . S
C944 C941 1.487 . S
C944 C951 1.399 . S
C944 N969 1.343 . S
C945 C946 1.384 . S
C945 C947 1.384 . S
C945 H964 0.931 . S
C946 C945 1.384 . S
C946 C949 1.382 . S
C947 C945 1.384 . S
C947 C948 1.381 . S
C947 H965 0.930 . S
C948 C947 1.381 . S
C948 C950 1.381 . S
C948 C951 1.487 . S
C949 C946 1.382 . S
C949 C950 1.387 . S
C949 H966 0.930 . S
C950 C948 1.381 . S
C950 C949 1.387 . S
C950 H967 0.931 . S
C951 C944 1.399 . S
C951 C948 1.487 . S
C951 N968 1.343 . S
H952 C924 0.931 . S
H953 C926 0.930 . S
H954 C928 0.930 . S
H955 C929 0.931 . S
H956 C931 0.931 . S
H957 C933 0.930 . S
H958 C935 0.930 . S
H959 C936 0.931 . S
H960 C938 0.931 . S
H961 C940 0.930 . S
H962 C942 0.930 . S
H963 C943 0.931 . S
H964 C945 0.931 . S
H965 C947 0.930 . S
H966 C949 0.930 . S
H967 C950 0.931 . S
N968 C930 1.343 . S
N968 C951 1.343 . S
N969 C937 1.343 . S
N969 C944 1.343 . S
C970 C971 1.384 . S
C970 C972 1.384 . S
C970 H998 0.931 . S
C971 C970 1.384 . S
C971 C974 1.382 . S
C972 C970 1.384 . S
C972 C973 1.381 . S
C972 H999 0.930 . S
C973 C972 1.381 . S
C973 C975 1.381 . S
C973 C976 1.487 . S
C974 C971 1.382 . S
C974 C975 1.387 . S
C974 H1000 0.930 . S
C975 C973 1.381 . S
C975 C974 1.387 . S
C975 H1001 0.931 . S
C976 C973 1.487 . S
C976 C983 1.399 . S
C976 N1014 1.343 . S
C977 C978 1.384 . S
C977 C979 1.384 . S
C977 H1002 0.931 . S
C978 C977 1.384 . S
C978 C981 1.382 . S
C979 C977 1.384 . S
C979 C980 1.381 . S
C979 H1003 0.930 . S
C980 C979 1.381 . S
C980 C982 1.381 . S
C980 C983 1.487 . S
C981 C978 1.382 . S
C981 C982 1.387 . S
C981 H1004 0.930 . S
C982 C980 1.381 . S
C982 C981 1.387 . S
C982 H1005 0.931 . S
C983 C976 1.399 . S
C983 C980 1.487 . S
C983 N1015 1.343 . S
C984 C985 1.384 . S
C984 C986 1.384 . S
C984 H1006 0.931 . S
C985 C984 1.384 . S
C985 C988 1.382 . S
C986 C984 1.384 . S
C986 C987 1.381 . S
C986 H1007 0.930 . S
C987 C986 1.381 . S
C987 C989 1.381 . S
C987 C990 1.487 . S
C988 C985 1.382 . S
C988 C989 1.387 . S
C988 H1008 0.930 . S
C989 C987 1.381 . S
C989 C988 1.387 . S
C989 H1009 0.931 . S
C990 C987 1.487 . S
C990 C997 1.399 . S
C990 N1015 1.343 . S
C991 C992 1.384 . S
C991 C993 1.384 . S
C991 H1010 0.931 . S
C992 C991 1.384 . S
C992 C995 1.382 . S
C993 C991 1.384 . S
C993 C994 1.381 . S
C993 H1011 0.930 . S
C994 C993 1.381 . S
C994 C996 1.381 . S
C994 C997 1.487 . S
C995 C992 1.382 . S
C995 C996 1.387 . S
C995 H1012 0.930 . S
C996 C994 1.381 . S
C996 C995 1.387 . S
C996 H1013 0.931 . S
C997 C990 1.399 . S
C997 C994 1.487 . S
C997 N1014 1.343 . S
H998 C970 0.931 . S
H999 C972 0.930 . S
H1000 C974 0.930 . S
H1001 C975 0.931 . S
H1002 C977 0.931 . S
H1003 C979 0.930 . S
H1004 C981 0.930 . S
H1005 C982 0.931 . S
H1006 C984 0.931 . S
H1007 C986 0.930 . S
H1008 C988 0.930 . S
H1009 C989 0.931 . S
H1010 C991 0.931 . S
H1011 C993 0.930 . S
H1012 C995 0.930 . S
H1013 C996 0.931 . S
N1014 C976 1.343 . S
N1014 C997 1.343 . S
N1015 C983 1.343 . S
N1015 C990 1.343 . S
C1016 C1017 1.384 . S
C1016 C1018 1.384 . S
C1016 H1044 0.931 . S
C1017 C1016 1.384 . S
C1017 C1020 1.382 . S
C1018 C1016 1.384 . S
C1018 C1019 1.381 . S
C1018 H1045 0.930 . S
C1019 C1018 1.381 . S
C1019 C1021 1.381 . S
C1019 C1022 1.487 . S
C1020 C1017 1.382 . S
C1020 C1021 1.387 . S
C1020 H1046 0.930 . S
C1021 C1019 1.381 . S
C1021 C1020 1.387 . S
C1021 H1047 0.931 . S
C1022 C1019 1.487 . S
C1022 C1029 1.399 . S
C1022 N1060 1.343 . S
C1023 C1024 1.384 . S
C1023 C1025 1.384 . S
C1023 H1048 0.931 . S
C1024 C1023 1.384 . S
C1024 C1027 1.382 . S
C1025 C1023 1.384 . S
C1025 C1026 1.381 . S
C1025 H1049 0.930 . S
C1026 C1025 1.381 . S
C1026 C1028 1.381 . S
C1026 C1029 1.487 . S
C1027 C1024 1.382 . S
C1027 C1028 1.387 . S
C1027 H1050 0.930 . S
C1028 C1026 1.381 . S
C1028 C1027 1.387 . S
C1028 H1051 0.931 . S
C1029 C1022 1.399 . S
C1029 C1026 1.487 . S
C1029 N1061 1.343 . S
C1030 C1031 1.384 . S
C1030 C1032 1.384 . S
C1030 H1052 0.931 . S
C1031 C1030 1.384 . S
C1031 C1034 1.382 . S
C1032 C1030 1.384 . S
C1032 C1033 1.381 . S
C1032 H1053 0.930 . S
C1033 C1032 1.381 . S
C1033 C1035 1.381 . S
C1033 C1036 1.487 . S
C1034 C1031 1.382 . S
C1034 C1035 1.387 . S
C1034 H1054 0.930 . S
C1035 C1033 1.381 . S
C1035 C1034 1.387 . S
C1035 H1055 0.931 . S
C1036 C1033 1.487 . S
C1036 C1043 1.399 . S
C1036 N1061 1.343 . S
C1037 C1038 1.384 . S
C1037 C1039 1.384 . S
C1037 H1056 0.931 . S
C1038 C1037 1.384 . S
C1038 C1041 1.382 . S
C1039 C1037 1.384 . S
C1039 C1040 1.381 . S
C1039 H1057 0.930 . S
C1040 C1039 1.381 . S
C1040 C1042 1.381 . S
C1040 C1043 1.487 . S
C1041 C1038 1.382 . S
C1041 C1042 1.387 . S
C1041 H1058 0.930 . S
C1042 C1040 1.381 . S
C1042 C1041 1.387 . S
C1042 H1059 0.931 . S
C1043 C1036 1.399 . S
C1043 C1040 1.487 . S
C1043 N1060 1.343 . S
H1044 C1016 0.931 . S
H1045 C1018 0.930 . S
H1046 C1020 0.930 . S
H1047 C1021 0.931 . S
H1048 C1023 0.931 . S
H1049 C1025 0.930 . S
H1050 C1027 0.930 . S
H1051 C1028 0.931 . S
H1052 C1030 0.931 . S
H1053 C1032 0.930 . S
H1054 C1034 0.930 . S
H1055 C1035 0.931 . S
H1056 C1037 0.931 . S
H1057 C1039 0.930 . S
H1058 C1041 0.930 . S
H1059 C1042 0.931 . S
N1060 C1022 1.343 . S
N1060 C1043 1.343 . S
N1061 C1029 1.343 . S
N1061 C1036 1.343 . S
C10 C670 1.660 . S
C23 C716 1.797 . S
C748 C29 1.673 . S
C30 C801 1.656 . S
C5 C847 1.670 . S
C18 C886 1.843 . S
C49 C840 1.643 . S
C893 C62 1.827 . S
C794 C70 1.670 . S
C75 C755 1.650 . S
C649 C44 1.676 . S
C57 C695 1.812 . S
C88 C925 1.889 . S
C101 C992 1.880 . S
C1038 C107 1.857 . S
C108 C249 1.806 . S
C83 C295 1.850 . S
C96 C341 1.866 . S
C127 C288 1.812 . S
C140 C334 1.849 . S
C242 C146 1.837 . S
C1017 C147 1.854 . S
C946 C122 1.900 . S
C971 C135 1.897 . S
C160 C373 1.843 . S
C173 C426 1.879 . S
C185 C472 1.870 . S
C186 C518 1.884 . S
C571 C159 1.869 . S
C617 C172 1.897 . S
C564 C205 1.859 . S
C610 C218 1.880 . S
C224 C525 1.888 . S
C479 C225 1.838 . S
C200 C394 1.879 . S
C433 C213 1.899 . S
C256 C4 1.657 . S
C17 C302 1.626 . S
C348 C31 1.662 . S
C380 C36 1.628 . S
C419 C3 1.639 . S
C465 C16 1.593 . S
C43 C486 1.634 . S
C56 C387 1.592 . S
C68 C440 1.627 . S
C69 C281 1.667 . S
C327 C42 1.669 . S
C55 C235 1.621 . S
C511 C82 1.622 . S
C95 C578 1.671 . S
C109 C624 1.684 . S
C663 C114 1.495 . S
C81 C709 1.646 . S
C94 C741 1.498 . S
C121 C762 1.492 . S
C134 C656 1.490 . S
C702 C148 1.639 . S
C153 C557 1.658 . S
C120 C603 1.690 . S
C532 C133 1.644 . S
C808 C166 1.498 . S
C179 C854 1.487 . S
C187 C879 1.611 . S
C932 C192 1.624 . S
C985 C161 1.692 . S
C174 C1031 1.671 . S
C199 C1024 1.655 . S
C212 C939 1.642 . S
C978 C226 1.681 . S
C833 C231 1.491 . S
C900 C198 1.620 . S
C211 C787 1.502 . S
