# Generated by pormake.
# Topology zzz, (3,6)-cn, num edge types: 1
# Building blocks:
#     Node 0, Type 0, BuildingBlock: ESEHIV_clean_linker_0, # of connection points: 3
#     Node 1, Type 0, BuildingBlock: ESEHIV_clean_linker_0, # of connection points: 3
#     Node 2, Type 0, BuildingBlock: ESEHIV_clean_linker_0, # of connection points: 3
#     Node 3, Type 0, BuildingBlock: ESEHIV_clean_linker_0, # of connection points: 3
#     Node 4, Type 0, BuildingBlock: ESEHIV_clean_linker_0, # of connection points: 3
#     Node 5, Type 0, BuildingBlock: ESEHIV_clean_linker_0, # of connection points: 3
#     Node 6, Type 0, BuildingBlock: ESEHIV_clean_linker_0, # of connection points: 3
#     Node 7, Type 0, BuildingBlock: ESEHIV_clean_linker_0, # of connection points: 3
#     Node 8, Type 1, BuildingBlock: NUHQIS_clean_sbu_0, # of connection points: 6
#     Node 9, Type 1, BuildingBlock: NUHQIS_clean_sbu_0, # of connection points: 6
#     Node 10, Type 1, BuildingBlock: NUHQIS_clean_sbu_0, # of connection points: 6
#     Node 11, Type 1, BuildingBlock: NUHQIS_clean_sbu_0, # of connection points: 6
#     Edge 12, Type (0, 1), BuildingBlock: TEMPAE_clean_linker_10, # of connection points: 2
#     Edge 13, Type (0, 1), BuildingBlock: TEMPAE_clean_linker_10, # of connection points: 2
#     Edge 14, Type (0, 1), BuildingBlock: TEMPAE_clean_linker_10, # of connection points: 2
#     Edge 15, Type (0, 1), BuildingBlock: TEMPAE_clean_linker_10, # of connection points: 2
#     Edge 16, Type (0, 1), BuildingBlock: TEMPAE_clean_linker_10, # of connection points: 2
#     Edge 17, Type (0, 1), BuildingBlock: TEMPAE_clean_linker_10, # of connection points: 2
#     Edge 18, Type (0, 1), BuildingBlock: TEMPAE_clean_linker_10, # of connection points: 2
#     Edge 19, Type (0, 1), BuildingBlock: TEMPAE_clean_linker_10, # of connection points: 2
#     Edge 20, Type (0, 1), BuildingBlock: TEMPAE_clean_linker_10, # of connection points: 2
#     Edge 21, Type (0, 1), BuildingBlock: TEMPAE_clean_linker_10, # of connection points: 2
#     Edge 22, Type (0, 1), BuildingBlock: TEMPAE_clean_linker_10, # of connection points: 2
#     Edge 23, Type (0, 1), BuildingBlock: TEMPAE_clean_linker_10, # of connection points: 2
#     Edge 24, Type (0, 1), BuildingBlock: TEMPAE_clean_linker_10, # of connection points: 2
#     Edge 25, Type (0, 1), BuildingBlock: TEMPAE_clean_linker_10, # of connection points: 2
#     Edge 26, Type (0, 1), BuildingBlock: TEMPAE_clean_linker_10, # of connection points: 2
#     Edge 27, Type (0, 1), BuildingBlock: TEMPAE_clean_linker_10, # of connection points: 2
#     Edge 28, Type (0, 1), BuildingBlock: TEMPAE_clean_linker_10, # of connection points: 2
#     Edge 29, Type (0, 1), BuildingBlock: TEMPAE_clean_linker_10, # of connection points: 2
#     Edge 30, Type (0, 1), BuildingBlock: TEMPAE_clean_linker_10, # of connection points: 2
#     Edge 31, Type (0, 1), BuildingBlock: TEMPAE_clean_linker_10, # of connection points: 2
#     Edge 32, Type (0, 1), BuildingBlock: TEMPAE_clean_linker_10, # of connection points: 2
#     Edge 33, Type (0, 1), BuildingBlock: TEMPAE_clean_linker_10, # of connection points: 2
#     Edge 34, Type (0, 1), BuildingBlock: TEMPAE_clean_linker_10, # of connection points: 2
#     Edge 35, Type (0, 1), BuildingBlock: TEMPAE_clean_linker_10, # of connection points: 2
# Relax obj value: 0.476
# Max RMSD: 0.249
# Mean RMSD: 0.233
data_MOF--net-zzz--node1-NUHQIS_clean_sbu_0--node2-ESEHIV_clean_linker_0--edge1-TEMPAE_clean_linker_10
_symmetry_space_group_name_H-M    P1
_symmetry_Int_Tables_number       1
_symmetry_cell_setting            triclinic
loop_
_symmetry_equiv_pos_as_xyz
'x, y, z'
_cell_length_a     46.321415
_cell_length_b     46.249948
_cell_length_c     15.057401
_cell_angle_alpha  89.476599
_cell_angle_beta   89.792642
_cell_angle_gamma 90.048805
loop_
_atom_site_label
_atom_site_type_symbol
_atom_site_fract_x
_atom_site_fract_y
_atom_site_fract_z
_atom_type_partial_charge
H0 H 0.79866 0.45669 0.28671 0.0
H1 H 0.72298 0.46607 0.12662 0.0
H2 H 0.72876 0.51065 0.37688 0.0
C3 C 0.77731 0.4658 0.27723 0.0
C4 C 0.76591 0.48415 0.34214 0.0
C5 C 0.76231 0.45955 0.19921 0.0
C6 C 0.73464 0.47081 0.18717 0.0
C7 C 0.72209 0.48902 0.25061 0.0
C8 C 0.73801 0.49624 0.32817 0.0
H9 H 0.05811 0.80044 0.2565 0.0
H10 H 0.0528 0.72312 0.10351 0.0
H11 H 0.01032 0.72728 0.3591 0.0
C12 C 0.05042 0.77842 0.24984 0.0
C13 C 0.03378 0.76604 0.31841 0.0
C14 C 0.05712 0.76334 0.17232 0.0
C15 C 0.0477 0.73484 0.16366 0.0
C16 C 0.03092 0.72147 0.23021 0.0
C17 C 0.02339 0.73731 0.30763 0.0
H18 H 0.72157 0.05351 0.30944 0.0
H19 H 0.79617 0.04512 0.14314 0.0
H20 H 0.7918 0.99846 0.39252 0.0
C21 C 0.74285 0.04446 0.29821 0.0
C22 C 0.75462 0.0255 0.36176 0.0
C23 C 0.75738 0.05129 0.2191 0.0
C24 C 0.7849 0.04003 0.20462 0.0
C25 C 0.79773 0.02123 0.26654 0.0
C26 C 0.78229 0.01333 0.345 0.0
H27 H 0.45076 0.7203 0.40412 0.0
H28 H 0.52169 0.77947 0.37396 0.0
H29 H 0.4403 0.79608 0.2428 0.0
C30 C 0.45899 0.74095 0.3802 0.0
C31 C 0.442 0.75787 0.32364 0.0
C32 C 0.48773 0.74799 0.39737 0.0
C33 C 0.49933 0.77404 0.36171 0.0
C34 C 0.48176 0.79264 0.30867 0.0
C35 C 0.4533 0.78374 0.28931 0.0
H36 H 0.21816 0.55885 0.19153 0.0
H37 H 0.30088 0.56497 0.31599 0.0
H38 H 0.28715 0.5037 0.10567 0.0
C39 C 0.24068 0.55275 0.19507 0.0
C40 C 0.25079 0.53187 0.1355 0.0
C41 C 0.25854 0.56551 0.25879 0.0
C42 C 0.28686 0.55544 0.26695 0.0
C43 C 0.29735 0.53255 0.21498 0.0
C44 C 0.27914 0.52068 0.14817 0.0
H45 H 0.94305 0.22052 0.14269 0.0
H46 H 0.95076 0.29612 0.30127 0.0
H47 H 0.01046 0.28254 0.08411 0.0
C48 C 0.95352 0.24117 0.15405 0.0
C49 C 0.97723 0.24955 0.10142 0.0
C50 C 0.94412 0.25781 0.22526 0.0
C51 C 0.9579 0.28375 0.24437 0.0
C52 C 0.98162 0.29323 0.19364 0.0
C53 C 0.99182 0.27574 0.12259 0.0
H54 H 0.29929 0.05394 0.17133 0.0
H55 H 0.2186 0.06295 0.30888 0.0
H56 H 0.22344 0.01274 0.06912 0.0
C57 C 0.27609 0.05084 0.17431 0.0
C58 C 0.26319 0.0341 0.10844 0.0
C59 C 0.26052 0.06024 0.24876 0.0
C60 C 0.23071 0.05561 0.25154 0.0
C61 C 0.21694 0.03835 0.18821 0.0
C62 C 0.23342 0.02705 0.11653 0.0
H63 H 0.55583 0.28544 0.16779 0.0
H64 H 0.49929 0.21599 0.09037 0.0
H65 H 0.54469 0.21221 0.34035 0.0
C66 C 0.54616 0.26444 0.18067 0.0
C67 C 0.55226 0.25028 0.26091 0.0
C68 C 0.52724 0.25268 0.11799 0.0
C69 C 0.51424 0.22542 0.13705 0.0
C70 C 0.52113 0.21042 0.21723 0.0
C71 C 0.5401 0.22317 0.27796 0.0
Tb72 Tb 0.02958 0.99777 0.79013 0.0
Eu73 Eu 0.97944 0.01403 0.6461 0.0
C74 C 0.04549 0.00955 0.5857 0.0
C75 C 1.00602 0.06193 0.77698 0.0
C76 C 0.09559 0.96624 0.88192 0.0
C77 C 0.1202 0.9308 0.7908 0.0
C78 C 0.10298 0.9555 0.79791 0.0
C79 C 0.10787 0.95394 0.95785 0.0
C80 C 0.12482 0.92917 0.95098 0.0
C81 C 0.12969 0.91617 0.86772 0.0
C82 C 0.07109 0.98596 0.89204 0.0
O83 O 0.98948 0.98852 0.86365 0.0
O84 O 0.95785 0.01537 0.78042 0.0
O85 O 0.98327 0.96536 0.63881 0.0
O86 O 0.02571 0.9576 0.71471 0.0
C87 C 0.96411 1.00093 0.85327 0.0
O88 O 0.9349 1.00797 0.60304 0.0
O89 O 0.9634 0.03687 0.5295 0.0
O90 O 0.01867 1.00515 0.56176 0.0
O91 O 0.05221 0.01312 0.66986 0.0
O92 O 0.01432 0.04058 0.82921 0.0
O93 O 0.99732 0.05696 0.69527 0.0
C94 C 1.00462 0.94844 0.66369 0.0
O95 O 0.0706 1.00852 0.83962 0.0
O96 O 0.0461 0.97308 0.89554 0.0
C97 C 0.9144 0.0495 0.53813 0.0
C98 C 0.87702 0.09633 0.50904 0.0
C99 C 0.87204 0.06974 0.46719 0.0
C100 C 0.89084 0.04653 0.48087 0.0
C101 C 0.9174 0.07476 0.58803 0.0
C102 C 0.89887 0.09806 0.57346 0.0
C103 C 0.937 0.02739 0.54002 0.0
H104 H 0.12399 0.92186 0.72559 0.0
H105 H 0.09365 0.96484 0.73832 0.0
H106 H 0.1023 0.96193 0.02316 0.0
H107 H 0.13136 0.91868 0.01223 0.0
H108 H 0.855 0.06776 0.41874 0.0
H109 H 0.88796 0.02694 0.44297 0.0
H110 H 0.93528 0.07719 0.63364 0.0
H111 H 0.90348 0.11827 0.60638 0.0
Tb112 Tb 0.52107 0.02404 0.82114 0.0
Eu113 Eu 0.50359 0.97416 0.68075 0.0
C114 C 0.50445 0.04016 0.62377 0.0
C115 C 0.4545 1.00402 0.80606 0.0
C116 C 0.55816 0.08794 0.90526 0.0
C117 C 0.59604 0.10951 0.81433 0.0
C118 C 0.57078 0.09311 0.82165 0.0
C119 C 0.56962 0.10119 0.98021 0.0
C120 C 0.59496 0.11735 0.97324 0.0
C121 C 0.60935 0.12047 0.89083 0.0
C122 C 0.5355 0.06607 0.91628 0.0
O123 O 0.51329 0.98577 0.90474 0.0
O124 O 0.52318 0.95172 0.79989 0.0
O125 O 0.54928 0.98654 0.64443 0.0
O126 O 0.56315 1.00775 0.77471 0.0
C127 C 0.5189 0.95885 0.88311 0.0
O128 O 0.48948 0.9299 0.65646 0.0
O129 O 0.5007 0.95773 0.54571 0.0
O130 O 0.4888 0.01655 0.61942 0.0
O131 O 0.52338 0.04304 0.68776 0.0
O132 O 0.47383 0.02296 0.83284 0.0
O133 O 0.4614 0.98276 0.75252 0.0
C134 C 0.56944 0.99718 0.69588 0.0
O135 O 0.51467 0.06713 0.85841 0.0
O136 O 0.54479 0.03973 0.92902 0.0
C137 C 0.45751 0.93176 0.53507 0.0
C138 C 0.40378 0.9552 0.49239 0.0
C139 C 0.40741 0.94049 0.57319 0.0
C140 C 0.43409 0.92855 0.59428 0.0
C141 C 0.45221 0.94171 0.44823 0.0
C142 C 0.42542 0.95363 0.42709 0.0
C143 C 0.4869 0.93445 0.57119 0.0
H144 H 0.6062 0.11182 0.74978 0.0
H145 H 0.56212 0.08304 0.7628 0.0
H146 H 0.5601 0.0974 0.04509 0.0
H147 H 0.60452 0.125 0.03416 0.0
H148 H 0.39058 0.94075 0.62326 0.0
H149 H 0.43717 0.92023 0.66106 0.0
H150 H 0.46976 0.94393 0.40084 0.0
H151 H 0.42284 0.96453 0.36362 0.0
Tb152 Tb 0.48474 0.50349 0.80054 0.0
Eu153 Eu 0.53551 0.48867 0.65839 0.0
C154 C 0.46955 0.49224 0.59956 0.0
C155 C 0.50654 0.43818 0.7783 0.0
C156 C 0.4347 0.53737 0.96466 0.0
C157 C 0.39758 0.56012 0.05418 0.0
C158 C 0.40708 0.53688 1.00309 0.0
C159 C 0.45282 0.56115 0.97772 0.0
C160 C 0.44345 0.58423 0.02911 0.0
C161 C 0.41577 0.58395 0.06804 0.0
C162 C 0.44419 0.51331 0.90945 0.0
O163 O 0.52531 0.51726 0.86406 0.0
O164 O 0.5535 0.48374 0.79629 0.0
O165 O 0.53471 0.53754 0.66316 0.0
O166 O 0.49089 0.54506 0.73165 0.0
C167 C 0.54926 0.50186 0.86145 0.0
O168 O 0.58041 0.49535 0.6198 0.0
O169 O 0.553 0.46751 0.54111 0.0
O170 O 0.49608 0.49874 0.57574 0.0
O171 O 0.46357 0.48549 0.68289 0.0
O172 O 0.49584 0.45843 0.82953 0.0
O173 O 0.51848 0.44453 0.70109 0.0
C174 C 0.51333 0.55464 0.68599 0.0
O175 O 0.44231 0.51753 0.82416 0.0
O176 O 0.46871 0.50153 0.93102 0.0
C177 C 0.60088 0.45295 0.56182 0.0
C178 C 0.63088 0.4001 0.56685 0.0
C179 C 0.62308 0.41391 0.64623 0.0
C180 C 0.60792 0.44001 0.6437 0.0
C181 C 0.61128 0.44094 0.48323 0.0
C182 C 0.62617 0.41476 0.48553 0.0
C183 C 0.57933 0.47611 0.55706 0.0
H184 H 0.37615 0.55943 0.08297 0.0
H185 H 0.39282 0.51861 0.99309 0.0
H186 H 0.47411 0.56194 0.94767 0.0
H187 H 0.45772 0.60259 0.03706 0.0
H188 H 0.62673 0.40351 0.70994 0.0
H189 H 0.60008 0.44903 0.70538 0.0
H190 H 0.60596 0.45065 0.41963 0.0
H191 H 0.63142 0.40483 0.42267 0.0
Tb192 Tb 1.00051 0.4804 0.79805 0.0
Eu193 Eu 0.01974 0.52841 0.64744 0.0
C194 C 0.01422 0.46162 0.59542 0.0
C195 C 0.0669 0.50239 0.78785 0.0
C196 C 0.96237 0.41739 0.89004 0.0
C197 C 0.92433 0.39588 0.80175 0.0
C198 C 0.94988 0.41183 0.80709 0.0
C199 C 0.95051 0.40484 0.96656 0.0
C200 C 0.92484 0.38919 0.96155 0.0
C201 C 0.91053 0.38587 0.87957 0.0
C202 C 0.98485 0.43947 0.89874 0.0
O203 O 1.00605 0.51859 0.88104 0.0
O204 O 0.00926 0.55346 0.77182 0.0
O205 O 0.97466 0.514 0.61111 0.0
O206 O 0.95943 0.49793 0.74767 0.0
C207 C 1.00747 0.54588 0.85598 0.0
O208 O 0.00942 0.57061 0.58969 0.0
O209 O 0.04567 0.54619 0.53899 0.0
O210 O 0.0275 0.4861 0.57759 0.0
O211 O 0.99978 0.4578 0.67018 0.0
O212 O 0.0471 0.48487 0.82137 0.0
O213 O 0.06131 0.52075 0.72288 0.0
C214 C 0.9538 0.50597 0.66531 0.0
O215 O 1.00646 0.43776 0.84332 0.0
O216 O 0.97522 0.46585 0.90524 0.0
C217 C 0.05241 0.59558 0.55797 0.0
C218 C 0.10321 0.62728 0.58167 0.0
C219 C 0.0892 0.6148 0.65531 0.0
C220 C 0.06392 0.59894 0.64344 0.0
C221 C 0.06409 0.61137 0.4867 0.0
C222 C 0.08929 0.62748 0.49876 0.0
C223 C 0.03287 0.57131 0.54153 0.0
H224 H 0.91429 0.39332 0.73745 0.0
H225 H 0.95881 0.42141 0.74714 0.0
H226 H 0.95991 0.40895 0.03104 0.0
H227 H 0.91498 0.38223 0.02343 0.0
H228 H 0.09975 0.61407 0.71941 0.0
H229 H 0.05522 0.58676 0.69919 0.0
H230 H 0.05547 0.60896 0.42035 0.0
H231 H 0.09996 0.63663 0.44079 0.0
C232 C 0.16588 0.05157 0.22259 0.0
C233 C 0.18655 0.0298 0.20954 0.0
C234 C 0.14087 0.0466 0.27408 0.0
C235 C 0.1362 0.0191 0.31404 0.0
C236 C 0.15572 0.99633 0.29456 0.0
C237 C 0.18069 1.00197 0.24287 0.0
C238 C 0.1208 0.07158 0.29202 0.0
C239 C 0.15156 0.96656 0.33429 0.0
C240 C 0.09711 0.01896 0.53879 0.0
C241 C 0.06873 0.01132 0.51603 0.0
C242 C 0.11914 0.02112 0.4741 0.0
C243 C 0.11298 0.01531 0.3837 0.0
C244 C 0.08452 1.00707 0.36039 0.0
C245 C 0.0628 1.00529 0.42645 0.0
C246 C 0.14905 0.03007 0.50253 0.0
C247 C 0.07693 1.00036 0.26538 0.0
H248 H 0.17052 0.07325 0.19845 0.0
H249 H 0.19681 0.98519 0.23495 0.0
H250 H 0.09799 0.06494 0.28305 0.0
H251 H 0.12328 0.07849 0.36197 0.0
H252 H 0.12533 0.09043 0.24788 0.0
H253 H 0.16563 0.95027 0.30198 0.0
H254 H 0.15683 0.96706 0.40608 0.0
H255 H 0.12874 0.95956 0.32832 0.0
H256 H 0.10215 0.02357 0.60745 0.0
H257 H 0.04111 0.99913 0.40766 0.0
H258 H 0.15526 0.05051 0.46828 0.0
H259 H 0.16499 0.01338 0.483 0.0
H260 H 0.15055 0.03334 0.57536 0.0
H261 H 0.07997 0.01995 0.2233 0.0
H262 H 0.05428 0.99282 0.25847 0.0
H263 H 0.09159 0.98347 0.23921 0.0
C264 C 0.48686 0.18052 0.30734 0.0
C265 C 0.50907 0.18171 0.24379 0.0
C266 C 0.48223 0.15557 0.36017 0.0
C267 C 0.50044 0.13114 0.35007 0.0
C268 C 0.52138 0.13147 0.28096 0.0
C269 C 0.5255 0.15673 0.229 0.0
C270 C 0.45964 0.15647 0.43252 0.0
C271 C 0.54119 0.10602 0.26698 0.0
C272 C 0.51956 0.08836 0.56022 0.0
C273 C 0.50253 0.06331 0.55347 0.0
C274 C 0.5189 0.11034 0.49496 0.0
C275 C 0.50074 0.10754 0.41987 0.0
C276 C 0.48329 0.08241 0.41259 0.0
C277 C 0.48436 0.06065 0.47931 0.0
C278 C 0.53784 0.13665 0.50653 0.0
C279 C 0.46355 0.07848 0.33417 0.0
H280 H 0.47465 0.2 0.32088 0.0
H281 H 0.5432 0.15774 0.18173 0.0
H282 H 0.44724 0.13595 0.43526 0.0
H283 H 0.47039 0.15909 0.49772 0.0
H284 H 0.44434 0.1747 0.42288 0.0
H285 H 0.55475 0.10865 0.20647 0.0
H286 H 0.55566 0.10349 0.32511 0.0
H287 H 0.52844 0.08581 0.26148 0.0
H288 H 0.53366 0.09089 0.61688 0.0
H289 H 0.47107 0.04149 0.47302 0.0
H290 H 0.52437 0.15647 0.50741 0.0
H291 H 0.553 0.13873 0.44963 0.0
H292 H 0.55059 0.13568 0.56883 0.0
H293 H 0.44821 0.09684 0.32954 0.0
H294 H 0.45102 0.05801 0.3386 0.0
H295 H 0.47639 0.07845 0.27183 0.0
C296 C 0.34939 0.54177 0.25078 0.0
C297 C 0.32704 0.52165 0.23755 0.0
C298 C 0.37408 0.53483 0.30097 0.0
C299 C 0.37733 0.50657 0.33687 0.0
C300 C 0.35636 0.48527 0.31555 0.0
C301 C 0.33133 0.49311 0.26713 0.0
C302 C 0.39563 0.55844 0.32048 0.0
C303 C 0.35945 0.45457 0.34857 0.0
C304 C 0.45135 0.49011 0.44109 0.0
C305 C 0.44575 0.49357 0.53227 0.0
C306 C 0.42918 0.49289 0.37709 0.0
C307 C 0.40078 0.50041 0.40405 0.0
C308 C 0.39508 0.50386 0.49613 0.0
C309 C 0.41738 0.49994 0.55877 0.0
C310 C 0.43633 0.48816 0.28047 0.0
C311 C 0.36557 0.51289 0.52848 0.0
H312 H 0.34643 0.56384 0.22758 0.0
H313 H 0.31425 0.47739 0.25797 0.0
H314 H 0.39954 0.55982 0.39301 0.0
H315 H 0.41654 0.55345 0.28804 0.0
H316 H 0.38829 0.57995 0.29622 0.0
H317 H 0.3444 0.43967 0.31433 0.0
H318 H 0.3819 0.44683 0.33864 0.0
H319 H 0.35477 0.4536 0.42084 0.0
H320 H 0.47312 0.48511 0.41961 0.0
H321 H 0.4128 0.50303 0.62869 0.0
H322 H 0.43724 0.50928 0.24512 0.0
H323 H 0.41937 0.47496 0.24831 0.0
H324 H 0.4575 0.47724 0.2719 0.0
H325 H 0.35972 0.53408 0.49832 0.0
H326 H 0.36456 0.51482 0.60191 0.0
H327 H 0.3491 0.49699 0.50735 0.0
C328 C 0.97917 0.3467 0.21282 0.0
C329 C 0.9951 0.32102 0.22173 0.0
C330 C 0.98524 0.37113 0.265 0.0
C331 C 1.0078 0.37001 0.32845 0.0
C332 C 0.02537 0.34487 0.33271 0.0
C333 C 0.01873 0.32067 0.27975 0.0
C334 C 0.96589 0.39727 0.2573 0.0
C335 C 0.04978 0.34258 0.3984 0.0
C336 C 0.02934 0.44012 0.44745 0.0
C337 C 0.0136 0.43801 0.52738 0.0
C338 C 0.02808 0.41814 0.38271 0.0
C339 C 0.0105 0.39338 0.39736 0.0
C340 C 0.99472 0.39111 0.47806 0.0
C341 C 0.99653 0.41322 0.54166 0.0
C342 C 0.04546 0.42148 0.29831 0.0
C343 C 0.97549 0.36537 0.49704 0.0
H344 H 0.96048 0.34691 0.16964 0.0
H345 H 0.03064 0.3007 0.28884 0.0
H346 H 0.95272 0.39927 0.31864 0.0
H347 H 0.97899 0.41726 0.25059 0.0
H348 H 0.95107 0.39589 0.19965 0.0
H349 H 0.06403 0.32383 0.38454 0.0
H350 H 0.06299 0.3626 0.39745 0.0
H351 H 0.04079 0.33998 0.46641 0.0
H352 H 0.04265 0.45902 0.43519 0.0
H353 H 0.98417 0.41112 0.60257 0.0
H354 H 0.03078 0.42221 0.24027 0.0
H355 H 0.05982 0.40252 0.28969 0.0
H356 H 0.05885 0.44142 0.2979 0.0
H357 H 0.95862 0.36379 0.44519 0.0
H358 H 0.96473 0.36669 0.56294 0.0
H359 H 0.98834 0.34516 0.49487 0.0
C360 C 0.85013 0.03033 0.24283 0.0
C361 C 0.82713 0.01057 0.24318 0.0
C362 C 0.87518 0.02567 0.19167 0.0
C363 C 0.87712 1.00091 0.13708 0.0
C364 C 0.85491 0.97976 0.14259 0.0
C365 C 0.83019 0.98486 0.19545 0.0
C366 C 0.89817 0.04881 0.18946 0.0
C367 C 0.85589 0.953 0.08614 0.0
C368 C 0.9147 0.01249 0.91322 0.0
C369 C 0.94192 0.99973 0.92617 0.0
C370 C 0.8936 0.01263 0.98072 0.0
C371 C 0.89953 0.99969 0.0644 0.0
C372 C 0.92683 0.9865 0.07805 0.0
C373 C 0.94766 0.98665 0.00897 0.0
C374 C 0.86492 0.02703 0.96249 0.0
C375 C 0.93416 0.97255 0.16606 0.0
H376 H 0.8474 0.05077 0.2763 0.0
H377 H 0.81217 0.96991 0.19317 0.0
H378 H 0.92005 0.0391 0.18882 0.0
H379 H 0.89584 0.06194 0.12785 0.0
H380 H 0.89641 0.06348 0.24727 0.0
H381 H 0.83989 0.93656 0.10856 0.0
H382 H 0.85105 0.95898 0.01622 0.0
H383 H 0.87774 0.9432 0.08733 0.0
H384 H 0.90978 0.02267 0.84996 0.0
H385 H 0.96853 0.97676 0.02026 0.0
H386 H 0.86163 0.04519 0.0091 0.0
H387 H 0.84706 0.01141 0.97366 0.0
H388 H 0.8634 0.0356 0.8935 0.0
H389 H 0.93341 0.98897 0.21931 0.0
H390 H 0.95593 0.96248 0.16567 0.0
H391 H 0.91793 0.95573 0.18314 0.0
C392 C 0.47384 0.84383 0.25541 0.0
C393 C 0.49263 0.82012 0.26556 0.0
C394 C 0.48066 0.86746 0.19962 0.0
C395 C 0.50753 0.86825 0.15444 0.0
C396 C 0.52772 0.8457 0.17052 0.0
C397 C 0.51996 0.82179 0.22498 0.0
C398 C 0.45821 0.89065 0.18466 0.0
C399 C 0.55709 0.84615 0.12695 0.0
C400 C 0.50873 0.90763 0.92992 0.0
C401 C 0.51814 0.93548 0.95238 0.0
C402 C 0.50562 0.88564 0.99462 0.0
C403 C 0.51303 0.89109 0.08429 0.0
C404 C 0.52369 0.91887 0.10681 0.0
C405 C 0.52554 0.94086 0.0411 0.0
C406 C 0.49328 0.85683 0.96738 0.0
C407 C 0.53282 0.92551 0.20053 0.0
H408 H 0.45298 0.84332 0.28824 0.0
H409 H 0.53478 0.80382 0.23206 0.0
H410 H 0.46737 0.91229 0.19837 0.0
H411 H 0.45138 0.89062 0.11407 0.0
H412 H 0.43879 0.88747 0.22719 0.0
H413 H 0.5719 0.82996 0.15708 0.0
H414 H 0.55487 0.84131 0.05529 0.0
H415 H 0.567 0.86793 0.13223 0.0
H416 H 0.50267 0.90329 0.86185 0.0
H417 H 0.53297 0.96224 0.0591 0.0
H418 H 0.47297 0.85254 1.00461 0.0
H419 H 0.50856 0.83919 0.98423 0.0
H420 H 0.4886 0.85596 0.89515 0.0
H421 H 0.51351 0.92704 0.24394 0.0
H422 H 0.54488 0.94623 0.20437 0.0
H423 H 0.54658 0.90788 0.2274 0.0
C424 C 0.66878 0.4814 0.2438 0.0
C425 C 0.69249 0.49981 0.22966 0.0
C426 C 0.64293 0.48483 0.19532 0.0
C427 C 0.64061 0.50721 0.13053 0.0
C428 C 0.66366 0.5273 0.12159 0.0
C429 C 0.6893 0.52326 0.17073 0.0
C430 C 0.61906 0.46293 0.20792 0.0
C431 C 0.66246 0.55147 0.05377 0.0
C432 C 0.5984 0.4892 0.92035 0.0
C433 C 0.5722 0.50414 0.93149 0.0
C434 C 0.62051 0.49023 0.9841 0.0
C435 C 0.61671 0.50655 0.06252 0.0
C436 C 0.59038 0.5218 0.07458 0.0
C437 C 0.5685 0.52049 0.00901 0.0
C438 C 0.64805 0.47362 0.9673 0.0
C439 C 0.5853 0.53941 0.15693 0.0
H440 H 0.67134 0.4628 0.28743 0.0
H441 H 0.70777 0.53707 0.15745 0.0
H442 H 0.59838 0.4741 0.22184 0.0
H443 H 0.61615 0.45045 0.14599 0.0
H444 H 0.62364 0.44749 0.26298 0.0
H445 H 0.67957 0.56788 0.06485 0.0
H446 H 0.66543 0.54241 0.98636 0.0
H447 H 0.64112 0.56232 0.05527 0.0
H448 H 0.60183 0.47653 0.86106 0.0
H449 H 0.54844 0.53209 0.01883 0.0
H450 H 0.65152 0.45751 0.02127 0.0
H451 H 0.66679 0.48858 0.96735 0.0
H452 H 0.64775 0.46208 0.90291 0.0
H453 H 0.5864 0.52522 0.21661 0.0
H454 H 0.564 0.55044 0.15611 0.0
H455 H 0.6025 0.55595 0.16353 0.0
C456 C 0.99526 0.68534 0.17348 0.0
C457 C 0.02199 0.691 0.21312 0.0
C458 C 0.99034 0.65939 0.12694 0.0
C459 C 0.01283 0.6387 0.11867 0.0
C460 C 0.03904 0.6434 0.16485 0.0
C461 C 0.04329 0.66943 0.21113 0.0
C462 C 0.96188 0.65528 0.08039 0.0
C463 C 0.06374 0.62225 0.15861 0.0
C464 C 0.99984 0.5643 0.01301 0.0
C465 C 0.00807 0.56937 0.9242 0.0
C466 C 1.00074 0.5866 0.0768 0.0
C467 C 0.01063 0.61462 0.05205 0.0
C468 C 0.01911 0.61972 0.96265 0.0
C469 C 0.01748 0.59729 0.9002 0.0
C470 C 0.99109 0.5802 0.17074 0.0
C471 C 0.03032 0.64893 0.93282 0.0
H472 H 0.97897 0.70216 0.17282 0.0
H473 H 0.06423 0.67395 0.23988 0.0
H474 H 0.96484 0.65905 1.00804 0.0
H475 H 0.95394 0.63281 0.08963 0.0
H476 H 0.94516 0.6705 0.10488 0.0
H477 H 0.08069 0.6266 0.2088 0.0
H478 H 0.05597 0.59973 0.16766 0.0
H479 H 0.07367 0.62388 0.09156 0.0
H480 H 0.99245 0.54293 0.03264 0.0
H481 H 0.02413 0.60162 0.83231 0.0
H482 H 0.97353 0.59524 0.18988 0.0
H483 H 0.00923 0.58377 0.21728 0.0
H484 H 0.98323 0.55764 0.17919 0.0
H485 H 0.01364 0.6657 0.94406 0.0
H486 H 0.03647 0.64934 0.86143 0.0
H487 H 0.0495 0.65491 0.97263 0.0
C488 C 0.89366 0.24592 0.27147 0.0
C489 C 0.92335 0.2449 0.2879 0.0
C490 C 0.87474 0.22713 0.31691 0.0
C491 C 0.88625 0.20623 0.37633 0.0
C492 C 0.91602 0.20714 0.39848 0.0
C493 C 0.93411 0.22679 0.35449 0.0
C494 C 0.84299 0.22843 0.29571 0.0
C495 C 0.92955 0.18532 0.46114 0.0
C496 C 0.85889 0.14718 0.52346 0.0
C497 C 0.8657 0.12349 0.4697 0.0
C498 C 0.86023 0.17545 0.48887 0.0
C499 C 0.86976 0.17976 0.40041 0.0
C500 C 0.87164 0.15582 0.34266 0.0
C501 C 0.8692 0.12788 0.37804 0.0
C502 C 0.85502 0.2006 0.54979 0.0
C503 C 0.88078 0.15935 0.24673 0.0
H504 H 0.88547 0.26019 0.21989 0.0
H505 H 0.95719 0.22624 0.36641 0.0
H506 H 0.83911 0.21844 0.23012 0.0
H507 H 0.82957 0.21714 0.34646 0.0
H508 H 0.83584 0.25131 0.29063 0.0
H509 H 0.95293 0.18941 0.47158 0.0
H510 H 0.91863 0.18581 0.52668 0.0
H511 H 0.92704 0.16319 0.43425 0.0
H512 H 0.85517 0.14382 0.59394 0.0
H513 H 0.87398 0.10967 0.33561 0.0
H514 H 0.84736 0.21986 0.51216 0.0
H515 H 0.87544 0.2064 0.58356 0.0
H516 H 0.83889 0.19489 0.60184 0.0
H517 H 0.86717 0.17576 0.21305 0.0
H518 H 0.87916 0.13879 0.20947 0.0
H519 H 0.90351 0.16696 0.24341 0.0
C520 C 0.30439 0.07825 0.32698 0.0
C521 C 0.27663 0.06613 0.33195 0.0
C522 C 0.32635 0.06761 0.38203 0.0
C523 C 0.31966 0.04528 0.44347 0.0
C524 C 0.29052 0.0395 0.4649 0.0
C525 C 0.26904 0.05015 0.40844 0.0
C526 C 0.35717 0.07615 0.36276 0.0
C527 C 0.28238 0.01744 0.53509 0.0
C528 C 0.36364 0.97759 0.40714 0.0
C529 C 0.38062 0.97673 0.48332 0.0
C530 C 0.34369 0.99986 0.39401 0.0
C531 C 0.34104 0.02201 0.45853 0.0
C532 C 0.3582 0.02117 0.53586 0.0
C533 C 0.3778 0.99843 0.54733 0.0
C534 C 0.32588 0.99982 0.30999 0.0
C535 C 0.3571 0.04475 0.60443 0.0
H536 H 0.31 0.09222 0.2713 0.0
H537 H 0.24736 0.0417 0.41639 0.0
H538 H 0.37032 0.07556 0.42416 0.0
H539 H 0.36669 0.06064 0.31506 0.0
H540 H 0.35839 0.09814 0.33264 0.0
H541 H 0.25985 0.02064 0.5585 0.0
H542 H 0.28402 0.99546 0.5065 0.0
H543 H 0.29714 0.0185 0.59283 0.0
H544 H 0.36624 0.96094 0.35748 0.0
H545 H 0.39178 0.99824 0.60488 0.0
H546 H 0.33124 0.01912 0.26884 0.0
H547 H 0.30254 1.00075 0.32632 0.0
H548 H 0.32978 0.98029 0.26928 0.0
H549 H 0.37148 0.06269 0.58287 0.0
H550 H 0.36484 0.03684 0.67006 0.0
H551 H 0.33504 0.05368 0.61229 0.0
C552 C 0.56492 0.29439 0.34487 0.0
C553 C 0.56993 0.26509 0.32861 0.0
C554 C 0.58234 0.30989 0.40287 0.0
C555 C 0.60511 0.29554 0.44815 0.0
C556 C 0.6094 0.26553 0.43585 0.0
C557 C 0.59185 0.25065 0.37532 0.0
C558 C 0.57649 0.34186 0.41401 0.0
C559 C 0.63281 0.24909 0.48392 0.0
C560 C 0.65316 0.35675 0.49586 0.0
C561 C 0.63697 0.36851 0.56571 0.0
C562 C 0.64676 0.32906 0.46429 0.0
C563 C 0.62428 0.31306 0.50532 0.0
C564 C 0.61367 0.32181 0.58891 0.0
C565 C 0.61985 0.34982 0.61802 0.0
C566 C 0.66015 0.31944 0.37812 0.0
C567 C 0.59156 0.30404 0.6389 0.0
H568 H 0.54738 0.30538 0.31112 0.0
H569 H 0.59573 0.22791 0.36318 0.0
H570 H 0.57062 0.3464 0.48398 0.0
H571 H 0.59609 0.35461 0.39734 0.0
H572 H 0.55862 0.34968 0.37106 0.0
H573 H 0.62599 0.22643 0.49741 0.0
H574 H 0.65233 0.2483 0.44108 0.0
H575 H 0.63877 0.25932 0.54765 0.0
H576 H 0.66781 0.37052 0.4583 0.0
H577 H 0.60795 0.35804 0.67446 0.0
H578 H 0.64517 0.3245 0.32272 0.0
H579 H 0.66389 0.29577 0.37897 0.0
H580 H 0.68095 0.33068 0.36488 0.0
H581 H 0.56963 0.31005 0.61567 0.0
H582 H 0.59267 0.30827 0.71128 0.0
H583 H 0.59472 0.28058 0.62743 0.0
C584 C 0.25644 0.59114 0.40724 0.0
C585 C 0.24654 0.58804 0.31953 0.0
C586 C 0.24091 0.60762 0.469 0.0
C587 C 0.21373 0.6191 0.4446 0.0
C588 C 0.20551 0.61902 0.35392 0.0
C589 C 0.22293 0.60486 0.29212 0.0
C590 C 0.25291 0.61074 0.56143 0.0
C591 C 0.17703 0.63132 0.32238 0.0
C592 C 0.14966 0.60249 0.58746 0.0
C593 C 0.13494 0.62881 0.58138 0.0
C594 C 0.17722 0.59948 0.55112 0.0
C595 C 0.19106 0.62405 0.51293 0.0
C596 C 0.17833 0.65174 0.52278 0.0
C597 C 0.14972 0.65369 0.55358 0.0
C598 C 0.18962 0.5693 0.54447 0.0
C599 C 0.19367 0.67911 0.49473 0.0
H600 H 0.27528 0.57952 0.43026 0.0
H601 H 0.21657 0.60515 0.22297 0.0
H602 H 0.23925 0.62441 0.60478 0.0
H603 H 0.25567 0.58908 0.59264 0.0
H604 H 0.27475 0.62058 0.55711 0.0
H605 H 0.17235 0.62573 0.25227 0.0
H606 H 0.1589 0.6232 0.36411 0.0
H607 H 0.17755 0.6552 0.32697 0.0
H608 H 0.13816 0.58334 0.61018 0.0
H609 H 0.13846 0.67423 0.55088 0.0
H610 H 0.20933 0.56766 0.58558 0.0
H611 H 0.19555 0.56432 0.47478 0.0
H612 H 0.1743 0.5524 0.56829 0.0
H613 H 0.21619 0.67528 0.47245 0.0
H614 H 0.1941 0.69425 0.55154 0.0
H615 H 0.18143 0.69008 0.44088 0.0
C616 C 0.09625 0.76474 0.05534 0.0
C617 C 0.07334 0.77823 0.10003 0.0
C618 C 0.11316 0.78015 0.99309 0.0
C619 C 0.10735 0.80981 0.97734 0.0
C620 C 0.08336 0.82303 0.01968 0.0
C621 C 0.06647 0.80691 0.0789 0.0
C622 C 0.13757 0.76462 0.94733 0.0
C623 C 0.07585 0.85458 1.00517 0.0
C624 C 0.15398 0.87279 0.93418 0.0
C625 C 0.13756 0.88493 0.86506 0.0
C626 C 0.14822 0.8446 0.96439 0.0
C627 C 0.12655 0.82833 0.92166 0.0
C628 C 0.11645 0.83757 0.83777 0.0
C629 C 0.1216 0.86621 0.81073 0.0
C630 C 0.1613 0.83448 0.05073 0.0
C631 C 0.09585 0.81923 0.78531 0.0
H632 H 0.10155 0.74244 0.07085 0.0
H633 H 0.04812 0.81709 0.11076 0.0
H634 H 0.1449 0.7759 0.88591 0.0
H635 H 0.15609 0.76282 0.99356 0.0
H636 H 0.13093 0.74228 0.9302 0.0
H637 H 0.05754 0.86168 0.04752 0.0
H638 H 0.09472 0.86846 0.02015 0.0
H639 H 0.0698 0.85841 0.93485 0.0
H640 H 0.16805 0.88654 0.97276 0.0
H641 H 0.10972 0.87462 0.75432 0.0
H642 H 0.16677 0.81119 0.04763 0.0
H643 H 0.14538 0.8374 0.1052 0.0
H644 H 0.18109 0.8469 0.06716 0.0
H645 H 0.1014 0.79596 0.79207 0.0
H646 H 0.09606 0.82546 0.71389 0.0
H647 H 0.07361 0.82225 0.81125 0.0
C648 C 0.75713 0.0902 0.10056 0.0
C649 C 0.74262 0.0686 0.1494 0.0
C650 C 0.7426 0.10668 0.03568 0.0
C651 C 0.71282 0.10175 0.02121 0.0
C652 C 0.69831 0.0796 0.0697 0.0
C653 C 0.71351 0.06313 0.13184 0.0
C654 C 0.75921 0.12954 0.98487 0.0
C655 C 0.66654 0.07318 0.05699 0.0
C656 C 0.65133 0.14693 0.95552 0.0
C657 C 0.6405 0.12844 0.89012 0.0
C658 C 0.67895 0.14231 0.99063 0.0
C659 C 0.69579 0.11933 0.95727 0.0
C660 C 0.68805 0.10657 0.87588 0.0
C661 C 0.66008 0.11095 0.84338 0.0
C662 C 0.68758 0.1581 0.0735 0.0
C663 C 0.70685 0.08397 0.83329 0.0
H664 H 0.7797 0.09453 0.1138 0.0
H665 H 0.70244 0.04582 0.16711 0.0
H666 H 0.74935 0.13465 0.91956 0.0
H667 H 0.7598 0.14962 0.02459 0.0
H668 H 0.78191 0.12261 0.974 0.0
H669 H 0.65848 0.05615 0.10337 0.0
H670 H 0.65355 0.09297 0.06777 0.0
H671 H 0.66264 0.06576 0.98824 0.0
H672 H 0.63688 0.16195 0.98808 0.0
H673 H 0.65264 0.09736 0.78988 0.0
H674 H 0.71113 0.1624 0.07365 0.0
H675 H 0.68238 0.14444 0.13246 0.0
H676 H 0.67582 0.17891 0.07983 0.0
H677 H 0.73006 0.08829 0.84564 0.0
H678 H 0.7031 0.08317 0.76055 0.0
H679 H 0.70143 0.06242 0.86189 0.0
C680 C 0.39764 0.72754 0.33819 0.0
C681 C 0.41624 0.74407 0.28415 0.0
C682 C 0.38457 0.70251 0.30491 0.0
C683 C 0.39071 0.6942 0.21678 0.0
C684 C 0.40385 0.71432 0.15781 0.0
C685 C 0.41647 0.73931 0.19242 0.0
C686 C 0.36836 0.68275 0.36768 0.0
C687 C 0.40933 0.70707 0.06173 0.0
C688 C 0.42536 0.6218 0.18003 0.0
C689 C 0.40614 0.60905 0.12064 0.0
C690 C 0.41941 0.64868 0.21739 0.0
C691 C 0.39323 0.663 0.19577 0.0
C692 C 0.37229 0.64873 0.14376 0.0
C693 C 0.37911 0.62189 0.10602 0.0
C694 C 0.44226 0.66255 0.2747 0.0
C695 C 0.34348 0.66227 0.12284 0.0
H696 H 0.39657 0.73181 0.40882 0.0
H697 H 0.4302 0.75244 0.14972 0.0
H698 H 0.35168 0.67017 0.33198 0.0
H699 H 0.38367 0.66723 0.3986 0.0
H700 H 0.35791 0.69521 0.42169 0.0
H701 H 0.41542 0.72652 0.02204 0.0
H702 H 0.42724 0.69119 0.05752 0.0
H703 H 0.38992 0.69714 0.03183 0.0
H704 H 0.4458 0.61131 0.19397 0.0
H705 H 0.36393 0.61185 0.06113 0.0
H706 H 0.4331 0.66814 0.34044 0.0
H707 H 0.45009 0.68285 0.24296 0.0
H708 H 0.46112 0.64817 0.28566 0.0
H709 H 0.33731 0.67905 0.17152 0.0
H710 H 0.32633 0.64546 0.12152 0.0
H711 H 0.34441 0.67236 0.05577 0.0
C712 C 0.80574 0.44804 0.10916 0.0
C713 C 0.77669 0.44254 0.12869 0.0
C714 C 0.82092 0.43115 0.04868 0.0
C715 C 0.80644 0.40855 1.00367 0.0
C716 C 0.77661 0.40387 0.01906 0.0
C717 C 0.76211 0.42076 0.08241 0.0
C718 C 0.85272 0.43738 0.0347 0.0
C719 C 0.75994 0.38075 0.97124 0.0
C720 C 0.8602 0.39622 0.82967 0.0
C721 C 0.87913 0.37883 0.87982 0.0
C722 C 0.83213 0.40155 0.86039 0.0
C723 C 0.82365 0.38997 0.94356 0.0
C724 C 0.83984 0.36711 0.9815 0.0
C725 C 0.86752 0.36143 0.94801 0.0
C726 C 0.81399 0.42388 0.81309 0.0
C727 C 0.83044 0.35256 0.06676 0.0
H728 H 0.81683 0.46552 0.14232 0.0
H729 H 0.73956 0.41648 0.09693 0.0
H730 H 0.86566 0.41765 0.04787 0.0
H731 H 0.8567 0.44423 0.96496 0.0
H732 H 0.86077 0.45475 0.07869 0.0
H733 H 0.73746 0.38797 0.95842 0.0
H734 H 0.77012 0.37477 0.90718 0.0
H735 H 0.75871 0.36114 0.0141 0.0
H736 H 0.86821 0.40897 0.77412 0.0
H737 H 0.88141 0.34644 0.9834 0.0
H738 H 0.8197 0.4457 0.83765 0.0
H739 H 0.79064 0.4202 0.82564 0.0
H740 H 0.81811 0.42356 0.74041 0.0
H741 H 0.83517 0.36704 0.12333 0.0
H742 H 0.84201 0.33181 0.07781 0.0
H743 H 0.80687 0.34836 0.06629 0.0
C744 C 0.96467 0.21655 0.97581 0.0
C745 C 0.98615 0.22898 0.02933 0.0
C746 C 0.96972 0.19123 0.92688 0.0
C747 C 0.99736 0.17814 0.92829 0.0
C748 C 0.01995 0.19213 0.97521 0.0
C749 C 0.01404 0.21717 0.02585 0.0
C750 C 0.94468 0.17721 0.87983 0.0
C751 C 0.05002 0.17968 0.9763 0.0
C752 C 0.99933 0.09565 0.90548 0.0
C753 C 1.00468 0.09185 0.81442 0.0
C754 C 0.99719 0.12342 0.94294 0.0
C755 C 1.00144 0.14842 0.88905 0.0
C756 C 1.00764 0.14472 0.79734 0.0
C757 C 0.00865 0.11659 0.7609 0.0
C758 C 0.98954 0.12596 0.04014 0.0
C759 C 0.01318 0.1705 0.73759 0.0
H760 H 0.94307 0.22557 0.97734 0.0
H761 H 0.0308 0.22635 0.06704 0.0
H762 H 0.95056 0.17206 0.81034 0.0
H763 H 0.93916 0.15651 0.91374 0.0
H764 H 0.92516 0.19115 0.87917 0.0
H765 H 0.06607 0.19541 1.00168 0.0
H766 H 0.05043 0.16018 0.0197 0.0
H767 H 0.05659 0.17294 0.90863 0.0
H768 H 0.99597 0.07677 0.94747 0.0
H769 H 0.01301 0.11396 0.69067 0.0
H770 H 0.96924 0.13845 0.04757 0.0
H771 H 1.00671 0.13792 0.07551 0.0
H772 H 0.98665 0.10453 0.07294 0.0
H773 H 0.99315 0.18343 0.73053 0.0
H774 H 0.02057 0.16406 0.67036 0.0
H775 H 0.02974 0.18475 0.76744 0.0
C776 C 0.30207 0.99963 0.065 0.0
C777 C 0.28327 0.02207 0.04008 0.0
C778 C 0.32816 0.99465 0.01888 0.0
C779 C 0.33594 0.0125 0.94537 0.0
C780 C 0.316 0.03388 0.91614 0.0
C781 C 0.29008 0.03849 0.96404 0.0
C782 C 0.34846 0.97169 0.05342 0.0
C783 C 0.3226 0.05281 0.83657 0.0
C784 C 0.41696 0.02573 0.90824 0.0
C785 C 0.42386 1.00666 0.83911 0.0
C786 C 0.3886 0.02791 0.94235 0.0
C787 C 0.36604 0.01091 0.90622 0.0
C788 C 0.3727 0.99201 0.83527 0.0
C789 C 0.40141 0.98994 0.80326 0.0
C790 C 0.38281 0.04837 0.01792 0.0
C791 C 0.34944 0.97403 0.7928 0.0
H792 H 0.2974 0.98741 0.12515 0.0
H793 H 0.27608 0.05631 0.94563 0.0
H794 H 0.35675 0.95833 0.9981 0.0
H795 H 0.3673 0.98219 0.08517 0.0
H796 H 0.3379 0.95727 0.10325 0.0
H797 H 0.30647 0.07035 0.8277 0.0
H798 H 0.34435 0.06266 0.84246 0.0
H799 H 0.3226 0.03934 0.77608 0.0
H800 H 0.4339 0.03878 0.93707 0.0
H801 H 0.40624 0.97516 0.74986 0.0
H802 H 0.37429 0.03618 0.07621 0.0
H803 H 0.3661 0.06433 0.9981 0.0
H804 H 0.4025 0.06027 0.03846 0.0
H805 H 0.35832 0.95859 0.74376 0.0
H806 H 0.33391 0.98847 0.75825 0.0
H807 H 0.33722 0.96173 0.84419 0.0
C808 C 0.54464 0.28415 0.99241 0.0
C809 C 0.52126 0.27099 0.03711 0.0
C810 C 0.54098 0.30891 0.93856 0.0
C811 C 0.513 0.32055 0.92575 0.0
C812 C 0.48893 0.30538 0.9622 0.0
C813 C 0.49333 0.28102 0.01833 0.0
C814 C 0.56755 0.32427 0.90376 0.0
C815 C 0.45859 0.3161 0.94729 0.0
C816 C 0.50776 0.40294 0.906 0.0
C817 C 0.50716 0.40777 0.81376 0.0
C818 C 0.50945 0.37485 0.94256 0.0
C819 C 0.50962 0.35047 0.88605 0.0
C820 C 0.50837 0.35511 0.79268 0.0
C821 C 0.50762 0.38365 0.75766 0.0
C822 C 0.51191 0.37136 0.0421 0.0
C823 C 0.50783 0.3299 0.72986 0.0
H824 H 0.56633 0.27653 1.00611 0.0
H825 H 0.47511 0.27123 0.05251 0.0
H826 H 0.56422 0.3327 0.83545 0.0
H827 H 0.57223 0.34304 0.94682 0.0
H828 H 0.58676 0.3099 0.90378 0.0
H829 H 0.44229 0.29927 0.96407 0.0
H830 H 0.45453 0.33517 0.98971 0.0
H831 H 0.45563 0.32302 0.87714 0.0
H832 H 0.50778 0.42132 0.95017 0.0
H833 H 0.50703 0.38707 0.68638 0.0
H834 H 0.53205 0.35955 0.05883 0.0
H835 H 0.49358 0.35834 0.06812 0.0
H836 H 0.5121 0.39245 0.07683 0.0
H837 H 0.52742 0.31644 0.73876 0.0
H838 H 0.50662 0.33696 0.65925 0.0
H839 H 0.48893 0.31593 0.74526 0.0
C840 C 0.2149 0.546 0.01844 0.0
C841 C 0.23037 0.52374 0.06164 0.0
C842 C 0.19004 0.54045 0.96792 0.0
C843 C 0.18077 0.51162 0.95501 0.0
C844 C 0.19796 0.48877 0.99054 0.0
C845 C 0.22224 0.49506 0.04466 0.0
C846 C 0.1726 0.56575 0.93351 0.0
C847 C 0.19012 0.45766 0.97403 0.0
C848 C 0.0993 0.50063 0.92172 0.0
C849 C 0.09635 0.50252 0.82908 0.0
C850 C 0.12655 0.50298 0.96301 0.0
C851 C 0.152 0.50597 0.91067 0.0
C852 C 0.14919 0.50654 0.81662 0.0
C853 C 0.12148 0.50559 0.77729 0.0
C854 C 0.12788 0.50376 0.06313 0.0
C855 C 0.17532 0.50879 0.75679 0.0
H856 H 0.22122 0.56827 0.02939 0.0
H857 H 0.23389 0.47761 0.07694 0.0
H858 H 0.17105 0.56491 0.86017 0.0
H859 H 0.15028 0.56462 0.96048 0.0
H860 H 0.18214 0.5869 0.95193 0.0
H861 H 0.20803 0.44274 0.99166 0.0
H862 H 0.17094 0.45166 0.01449 0.0
H863 H 0.18442 0.45457 0.90318 0.0
H864 H 0.08004 0.49863 0.96244 0.0
H865 H 0.11952 0.50698 0.70564 0.0
H866 H 0.13735 0.52462 0.08453 0.0
H867 H 0.14207 0.48628 0.08842 0.0
H868 H 0.10625 0.5013 0.09445 0.0
H869 H 0.19426 0.49761 0.78615 0.0
H870 H 0.18101 0.53187 0.74656 0.0
H871 H 0.17091 0.49942 0.6905 0.0
C872 C 0.05072 0.80121 0.43285 0.0
C873 C 0.02789 0.78485 0.39753 0.0
C874 C 0.04571 0.82572 0.48541 0.0
C875 C 0.01706 0.8337 0.50748 0.0
C876 C 0.99405 0.8154 0.48052 0.0
C877 C 0.99966 0.79147 0.42479 0.0
C878 C 0.07107 0.8445 0.51034 0.0
C879 C 0.96331 0.82201 0.50635 0.0
C880 C 0.01196 0.89446 0.6797 0.0
C881 C 1.00619 0.91872 0.62598 0.0
C882 C 0.01398 0.86644 0.64309 0.0
C883 C 0.01142 0.86265 0.54988 0.0
C884 C 1.00579 0.88728 0.49562 0.0
C885 C 1.00263 0.91475 0.53444 0.0
C886 C 0.01854 0.84086 0.7043 0.0
C887 C 1.00421 0.88486 0.39582 0.0
H888 H 0.07267 0.79613 0.41322 0.0
H889 H 0.98182 0.77912 0.39821 0.0
H890 H 0.07004 0.86513 0.47222 0.0
H891 H 0.07033 0.84998 0.5818 0.0
H892 H 0.09209 0.83394 0.49598 0.0
H893 H 0.94889 0.80313 0.49619 0.0
H894 H 0.96205 0.82859 0.57698 0.0
H895 H 0.95519 0.84028 0.46533 0.0
H896 H 0.01448 0.89734 0.75062 0.0
H897 H 0.99847 0.93345 0.49246 0.0
H898 H 0.037 0.82758 0.68154 0.0
H899 H 0.9991 0.82682 0.70289 0.0
H900 H 0.02246 0.84751 0.77396 0.0
H901 H 0.02473 0.87583 0.3698 0.0
H902 H 1.00025 0.90607 0.36282 0.0
H903 H 0.98667 0.8698 0.37709 0.0
C904 C 0.72699 0.99022 0.45988 0.0
C905 C 0.73601 0.01861 0.44119 0.0
C906 C 0.70267 0.9847 0.51487 0.0
C907 C 0.68654 1.0081 0.55032 0.0
C908 C 0.69711 0.0366 0.53758 0.0
C909 C 0.72184 0.04138 0.4848 0.0
C910 C 0.69307 0.95388 0.52972 0.0
C911 C 0.6807 0.06248 0.57155 0.0
C912 C 0.60452 0.99975 0.56849 0.0
C913 C 0.59973 0.99872 0.66066 0.0
C914 C 0.6325 1.00251 0.53241 0.0
C915 C 0.65681 1.00342 0.58938 0.0
C916 C 0.65223 1.00172 0.68265 0.0
C917 C 0.62379 0.99984 0.71716 0.0
C918 C 0.63592 1.00536 0.4329 0.0
C919 C 0.67739 1.00193 0.74595 0.0
H920 H 0.7376 0.97245 0.42656 0.0
H921 H 0.72869 0.06342 0.47128 0.0
H922 H 0.68621 0.95041 0.59972 0.0
H923 H 0.67423 0.94923 0.48687 0.0
H924 H 0.71047 0.93825 0.51351 0.0
H925 H 0.69418 0.08237 0.57081 0.0
H926 H 0.66165 0.06631 0.52852 0.0
H927 H 0.67262 0.05872 0.64004 0.0
H928 H 0.58618 0.99927 0.52402 0.0
H929 H 0.62041 0.99895 0.78839 0.0
H930 H 0.6497 0.98765 0.40745 0.0
H931 H 0.64686 0.02607 0.41612 0.0
H932 H 0.61489 1.00471 0.39773 0.0
H933 H 0.69206 0.98364 0.73088 0.0
H934 H 0.67039 1.00019 0.81644 0.0
H935 H 0.69008 0.02211 0.73722 0.0
C936 C 0.5053 0.72351 0.53606 0.0
C937 C 0.50482 0.72495 0.44299 0.0
C938 C 0.51059 0.69713 0.58128 0.0
C939 C 0.51469 0.67132 0.53238 0.0
C940 C 0.51602 0.67312 0.43837 0.0
C941 C 0.51132 0.69985 0.39512 0.0
C942 C 0.50962 0.69653 0.6814 0.0
C943 C 0.51995 0.64636 0.38294 0.0
C944 C 0.53998 0.59987 0.63794 0.0
C945 C 0.51376 0.58535 0.65369 0.0
C946 C 0.54064 0.6282 0.60204 0.0
C947 C 0.51451 0.64218 0.57821 0.0
C948 C 0.48797 0.62761 0.59436 0.0
C949 C 0.48791 0.5997 0.63303 0.0
C950 C 0.56937 0.64304 0.58854 0.0
C951 C 0.45957 0.64112 0.5678 0.0
H952 H 0.49941 0.74255 0.57349 0.0
H953 H 0.51002 0.7006 0.32323 0.0
H954 H 0.48908 0.68649 0.70401 0.0
H955 H 0.52755 0.68323 0.70839 0.0
H956 H 0.511 0.71859 0.70965 0.0
H957 H 0.52148 0.65146 0.31083 0.0
H958 H 0.53976 0.63465 0.40335 0.0
H959 H 0.50146 0.63146 0.39397 0.0
H960 H 0.56009 0.58905 0.65389 0.0
H961 H 0.46756 0.58859 0.64379 0.0
H962 H 0.56899 0.66479 0.61902 0.0
H963 H 0.57359 0.64615 0.51655 0.0
H964 H 0.58748 0.63045 0.61765 0.0
H965 H 0.45686 0.66229 0.60082 0.0
H966 H 0.44082 0.62717 0.58524 0.0
H967 H 0.45938 0.64523 0.49505 0.0
C968 C 0.79574 0.51829 0.43527 0.0
C969 C 0.78516 0.49033 0.41998 0.0
C970 C 0.82075 0.52278 0.48742 0.0
C971 C 0.836 0.49875 0.52366 0.0
C972 C 0.82398 0.47076 0.5141 0.0
C973 C 0.79868 0.46701 0.4638 0.0
C974 C 0.83198 0.55313 0.49847 0.0
C975 C 0.83933 0.44423 0.54917 0.0
C976 C 0.91849 0.50344 0.53873 0.0
C977 C 0.92343 0.50504 0.63062 0.0
C978 C 0.89034 0.50164 0.5037 0.0
C979 C 0.86603 0.50218 0.56131 0.0
C980 C 0.8708 0.5043 0.6542 0.0
C981 C 0.89933 0.50534 0.68772 0.0
C982 C 0.8867 0.49839 0.40465 0.0
C983 C 0.84571 0.50543 0.71823 0.0
H984 H 0.78576 0.53645 0.40131 0.0
H985 H 0.79078 0.44529 0.45228 0.0
H986 H 0.83908 0.55663 0.56787 0.0
H987 H 0.85101 0.5565 0.45463 0.0
H988 H 0.81542 0.56958 0.48101 0.0
H989 H 0.82494 0.42501 0.55104 0.0
H990 H 0.85797 0.43939 0.50524 0.0
H991 H 0.84791 0.44783 0.61678 0.0
H992 H 0.93679 0.50287 0.49372 0.0
H993 H 0.90275 0.50668 0.75873 0.0
H994 H 0.87359 0.51648 0.37772 0.0
H995 H 0.87493 0.47804 0.39048 0.0
H996 H 0.9077 0.498 0.3688 0.0
H997 H 0.83171 0.52415 0.70149 0.0
H998 H 0.85284 0.50734 0.78829 0.0
H999 H 0.83229 0.48568 0.71216 0.0
loop_
_geom_bond_atom_site_label_1
_geom_bond_atom_site_label_2
_geom_bond_distance
_geom_bond_site_symmetry_2
_ccdc_geom_bond_type
H0 C3 0.931 . S
H1 C6 0.928 . S
H2 C8 0.930 . S
C3 H0 0.931 . S
C3 C4 1.413 . S
C3 C5 1.360 . S
C4 C3 1.413 . S
C4 C8 1.429 . S
C5 C3 1.360 . S
C5 C6 1.372 . S
C6 H1 0.928 . S
C6 C5 1.372 . S
C6 C7 1.404 . S
C7 C6 1.404 . S
C7 C8 1.391 . S
C8 H2 0.930 . S
C8 C4 1.429 . S
C8 C7 1.391 . S
H9 C12 0.931 . S
H10 C15 0.928 . S
H11 C17 0.930 . S
C12 H9 0.931 . S
C12 C13 1.413 . S
C12 C14 1.360 . S
C13 C12 1.413 . S
C13 C17 1.429 1_655 S
C14 C12 1.360 . S
C14 C15 1.372 . S
C15 H10 0.928 . S
C15 C14 1.372 . S
C15 C16 1.404 . S
C16 C15 1.404 . S
C16 C17 1.390 1_655 S
C17 H11 0.930 . S
C17 C13 1.429 1_455 S
C17 C16 1.390 1_455 S
H18 C21 0.931 . S
H19 C24 0.928 . S
H20 C26 0.930 . S
C21 H18 0.931 . S
C21 C22 1.413 . S
C21 C23 1.360 . S
C22 C21 1.413 . S
C22 C26 1.429 1_565 S
C23 C21 1.360 . S
C23 C24 1.372 . S
C24 H19 0.928 . S
C24 C23 1.372 . S
C24 C25 1.404 . S
C25 C24 1.404 . S
C25 C26 1.390 1_565 S
C26 H20 0.930 . S
C26 C22 1.429 1_545 S
C26 C25 1.390 1_545 S
H27 C30 0.931 . S
H28 C33 0.928 . S
H29 C35 0.930 . S
C30 H27 0.931 . S
C30 C31 1.413 . S
C30 C32 1.360 . S
C31 C30 1.413 . S
C31 C35 1.429 . S
C32 C30 1.360 . S
C32 C33 1.372 . S
C33 H28 0.928 . S
C33 C32 1.372 . S
C33 C34 1.404 . S
C34 C33 1.404 . S
C34 C35 1.391 . S
C35 H29 0.930 . S
C35 C31 1.429 . S
C35 C34 1.391 . S
H36 C39 0.931 . S
H37 C42 0.928 . S
H38 C44 0.930 . S
C39 H36 0.931 . S
C39 C40 1.413 1_554 S
C39 C41 1.360 . S
C40 C39 1.413 1_556 S
C40 C44 1.429 . S
C41 C39 1.360 . S
C41 C42 1.372 . S
C42 H37 0.928 . S
C42 C41 1.372 . S
C42 C43 1.404 . S
C43 C42 1.404 . S
C43 C44 1.391 1_554 S
C44 H38 0.930 . S
C44 C40 1.429 . S
C44 C43 1.391 1_556 S
H45 C48 0.931 . S
H46 C51 0.928 . S
H47 C53 0.930 . S
C48 H45 0.931 . S
C48 C49 1.413 1_554 S
C48 C50 1.360 . S
C49 C48 1.413 1_556 S
C49 C53 1.429 1_655 S
C50 C48 1.360 . S
C50 C51 1.372 . S
C51 H46 0.928 . S
C51 C50 1.372 . S
C51 C52 1.404 . S
C52 C51 1.404 . S
C52 C53 1.391 1_654 S
C53 H47 0.930 . S
C53 C49 1.429 1_455 S
C53 C52 1.391 1_456 S
H54 C57 0.931 . S
H55 C60 0.928 . S
H56 C62 0.930 . S
C57 H54 0.931 . S
C57 C58 1.413 1_554 S
C57 C59 1.360 . S
C58 C57 1.413 1_556 S
C58 C62 1.429 1_565 S
C59 C57 1.360 . S
C59 C60 1.372 . S
C60 H55 0.928 . S
C60 C59 1.372 . S
C60 C61 1.404 . S
C61 C60 1.404 . S
C61 C62 1.391 1_564 S
C62 H56 0.930 . S
C62 C58 1.429 1_545 S
C62 C61 1.391 1_546 S
H63 C66 0.931 . S
H64 C69 0.928 . S
H65 C71 0.930 . S
C66 H63 0.931 . S
C66 C67 1.413 . S
C66 C68 1.360 1_554 S
C67 C66 1.413 . S
C67 C71 1.429 . S
C68 C66 1.360 1_556 S
C68 C69 1.372 . S
C69 H64 0.928 . S
C69 C68 1.372 . S
C69 C70 1.404 1_556 S
C70 C69 1.404 1_554 S
C70 C71 1.391 . S
C71 H65 0.930 . S
C71 C67 1.429 . S
C71 C70 1.391 . S
Tb72 C82 2.825 . S
Tb72 O83 2.347 1_455 S
Tb72 O86 2.366 . S
Tb72 O91 2.418 . S
Tb72 O92 2.384 1_565 S
Tb72 O95 2.479 . S
Tb72 O96 2.471 . S
Eu73 O84 2.418 . S
Eu73 O85 2.384 1_545 S
Eu73 O88 2.479 . S
Eu73 O89 2.471 . S
Eu73 O90 2.347 1_655 S
Eu73 O93 2.366 . S
Eu73 C103 2.825 . S
C74 O90 1.259 1_565 S
C74 O91 1.265 . S
C75 O92 1.255 . S
C75 O93 1.265 1_455 S
C76 C78 1.380 . S
C76 C79 1.374 . S
C76 C82 1.507 . S
C77 C78 1.384 1_554 S
C77 C81 1.387 . S
C77 H104 0.930 . S
C78 C76 1.380 . S
C78 C77 1.384 1_556 S
C78 H105 0.931 . S
C79 C76 1.374 . S
C79 C80 1.390 1_556 S
C79 H106 0.930 1_455 S
C80 C79 1.390 1_554 S
C80 C81 1.391 . S
C80 H107 0.930 1_455 S
C81 C77 1.387 . S
C81 C80 1.391 . S
C82 Tb72 2.825 . S
C82 C76 1.507 . S
C82 O95 1.238 . S
C82 O96 1.247 . S
O83 Tb72 2.347 1_655 S
O83 C87 1.259 1_565 S
O84 Eu73 2.418 . S
O84 C87 1.265 . S
O85 Eu73 2.384 1_565 S
O85 C94 1.255 . S
O86 Tb72 2.366 . S
O86 C94 1.265 1_455 S
C87 O83 1.259 1_545 S
C87 O84 1.265 . S
O88 Eu73 2.479 . S
O88 C103 1.238 . S
O89 Eu73 2.471 . S
O89 C103 1.247 . S
O90 Eu73 2.347 1_455 S
O90 C74 1.259 1_545 S
O91 Tb72 2.418 . S
O91 C74 1.265 . S
O92 Tb72 2.384 1_545 S
O92 C75 1.255 . S
O93 Eu73 2.366 . S
O93 C75 1.265 1_655 S
C94 O85 1.255 . S
C94 O86 1.265 1_655 S
O95 Tb72 2.479 . S
O95 C82 1.238 . S
O96 Tb72 2.471 . S
O96 C82 1.247 . S
C97 C100 1.380 . S
C97 C101 1.374 . S
C97 C103 1.507 . S
C98 C99 1.387 . S
C98 C102 1.391 . S
C99 C98 1.387 . S
C99 C100 1.384 . S
C99 H108 0.930 . S
C100 C97 1.380 . S
C100 C99 1.384 . S
C100 H109 0.931 . S
C101 C97 1.374 . S
C101 C102 1.390 . S
C101 H110 0.930 1_655 S
C102 C98 1.391 . S
C102 C101 1.390 . S
C102 H111 0.930 1_655 S
C103 Eu73 2.825 . S
C103 O88 1.238 . S
C103 O89 1.247 . S
C103 C97 1.507 . S
H104 C77 0.930 . S
H105 C78 0.931 . S
H106 C79 0.930 1_655 S
H107 C80 0.930 1_655 S
H108 C99 0.930 . S
H109 C100 0.931 . S
H110 C101 0.930 1_455 S
H111 C102 0.930 1_455 S
Tb112 C122 2.825 . S
Tb112 O123 2.347 1_545 S
Tb112 O126 2.366 . S
Tb112 O131 2.418 . S
Tb112 O132 2.384 . S
Tb112 O135 2.479 . S
Tb112 O136 2.471 . S
Eu113 O124 2.418 . S
Eu113 O125 2.384 . S
Eu113 O128 2.479 . S
Eu113 O129 2.471 . S
Eu113 O130 2.347 1_565 S
Eu113 O133 2.366 . S
Eu113 C143 2.825 . S
C114 O130 1.259 . S
C114 O131 1.265 . S
C115 O132 1.255 . S
C115 O133 1.265 1_545 S
C116 C118 1.380 . S
C116 C119 1.374 . S
C116 C122 1.507 . S
C117 C118 1.384 1_554 S
C117 C121 1.387 . S
C117 H144 0.930 . S
C118 C116 1.380 . S
C118 C117 1.384 1_556 S
C118 H145 0.931 . S
C119 C116 1.374 . S
C119 C120 1.390 1_556 S
C119 H146 0.930 1_545 S
C120 C119 1.390 1_554 S
C120 C121 1.391 . S
C120 H147 0.930 1_545 S
C121 C117 1.387 . S
C121 C120 1.391 . S
C122 Tb112 2.825 . S
C122 C116 1.507 . S
C122 O135 1.238 . S
C122 O136 1.247 . S
O123 Tb112 2.347 1_565 S
O123 C127 1.259 . S
O124 Eu113 2.418 . S
O124 C127 1.265 . S
O125 Eu113 2.384 . S
O125 C134 1.255 . S
O126 Tb112 2.366 . S
O126 C134 1.265 1_545 S
C127 O123 1.259 . S
C127 O124 1.265 . S
O128 Eu113 2.479 . S
O128 C143 1.238 . S
O129 Eu113 2.471 . S
O129 C143 1.247 . S
O130 Eu113 2.347 1_545 S
O130 C114 1.259 . S
O131 Tb112 2.418 . S
O131 C114 1.265 . S
O132 Tb112 2.384 . S
O132 C115 1.255 . S
O133 Eu113 2.366 . S
O133 C115 1.265 1_565 S
C134 O125 1.255 . S
C134 O126 1.265 1_565 S
O135 Tb112 2.479 . S
O135 C122 1.238 . S
O136 Tb112 2.471 . S
O136 C122 1.247 . S
C137 C140 1.380 . S
C137 C141 1.374 . S
C137 C143 1.507 . S
C138 C139 1.387 . S
C138 C142 1.391 . S
C139 C138 1.387 . S
C139 C140 1.384 . S
C139 H148 0.930 . S
C140 C137 1.380 . S
C140 C139 1.384 . S
C140 H149 0.931 . S
C141 C137 1.374 . S
C141 C142 1.390 . S
C141 H150 0.930 1_565 S
C142 C138 1.391 . S
C142 C141 1.390 . S
C142 H151 0.930 1_565 S
C143 Eu113 2.825 . S
C143 O128 1.238 . S
C143 O129 1.247 . S
C143 C137 1.507 . S
H144 C117 0.930 . S
H145 C118 0.931 . S
H146 C119 0.930 1_565 S
H147 C120 0.930 1_565 S
H148 C139 0.930 . S
H149 C140 0.931 . S
H150 C141 0.930 1_545 S
H151 C142 0.930 1_545 S
Tb152 C162 2.825 . S
Tb152 O163 2.347 . S
Tb152 O166 2.366 . S
Tb152 O171 2.418 . S
Tb152 O172 2.384 . S
Tb152 O175 2.479 . S
Tb152 O176 2.471 . S
Eu153 O164 2.418 . S
Eu153 O165 2.384 . S
Eu153 O168 2.479 . S
Eu153 O169 2.471 . S
Eu153 O170 2.347 . S
Eu153 O173 2.366 . S
Eu153 C183 2.825 . S
C154 O170 1.259 . S
C154 O171 1.265 . S
C155 O172 1.255 . S
C155 O173 1.265 . S
C156 C158 1.380 . S
C156 C159 1.374 . S
C156 C162 1.507 . S
C157 C158 1.384 1_554 S
C157 C161 1.387 . S
C157 H184 0.930 . S
C158 C156 1.380 . S
C158 C157 1.384 1_556 S
C158 H185 0.931 . S
C159 C156 1.374 . S
C159 C160 1.390 1_556 S
C159 H186 0.930 . S
C160 C159 1.390 1_554 S
C160 C161 1.391 . S
C160 H187 0.930 . S
C161 C157 1.387 . S
C161 C160 1.391 . S
C162 Tb152 2.825 . S
C162 C156 1.507 . S
C162 O175 1.238 . S
C162 O176 1.247 . S
O163 Tb152 2.347 . S
O163 C167 1.259 . S
O164 Eu153 2.418 . S
O164 C167 1.265 . S
O165 Eu153 2.384 . S
O165 C174 1.255 . S
O166 Tb152 2.366 . S
O166 C174 1.265 . S
C167 O163 1.259 . S
C167 O164 1.265 . S
O168 Eu153 2.479 . S
O168 C183 1.238 . S
O169 Eu153 2.471 . S
O169 C183 1.247 . S
O170 Eu153 2.347 . S
O170 C154 1.259 . S
O171 Tb152 2.418 . S
O171 C154 1.265 . S
O172 Tb152 2.384 . S
O172 C155 1.255 . S
O173 Eu153 2.366 . S
O173 C155 1.265 . S
C174 O165 1.255 . S
C174 O166 1.265 . S
O175 Tb152 2.479 . S
O175 C162 1.238 . S
O176 Tb152 2.471 . S
O176 C162 1.247 . S
C177 C180 1.380 . S
C177 C181 1.374 . S
C177 C183 1.507 . S
C178 C179 1.387 . S
C178 C182 1.391 . S
C179 C178 1.387 . S
C179 C180 1.384 . S
C179 H188 0.930 . S
C180 C177 1.380 . S
C180 C179 1.384 . S
C180 H189 0.931 . S
C181 C177 1.374 . S
C181 C182 1.390 . S
C181 H190 0.930 . S
C182 C178 1.391 . S
C182 C181 1.390 . S
C182 H191 0.930 . S
C183 Eu153 2.825 . S
C183 O168 1.238 . S
C183 O169 1.247 . S
C183 C177 1.507 . S
H184 C157 0.930 . S
H185 C158 0.931 . S
H186 C159 0.930 . S
H187 C160 0.930 . S
H188 C179 0.930 . S
H189 C180 0.931 . S
H190 C181 0.930 . S
H191 C182 0.930 . S
Tb192 C202 2.825 . S
Tb192 O203 2.347 . S
Tb192 O206 2.366 . S
Tb192 O211 2.418 . S
Tb192 O212 2.384 1_655 S
Tb192 O215 2.479 . S
Tb192 O216 2.471 . S
Eu193 O204 2.418 . S
Eu193 O205 2.384 1_455 S
Eu193 O208 2.479 . S
Eu193 O209 2.471 . S
Eu193 O210 2.347 . S
Eu193 O213 2.366 . S
Eu193 C223 2.825 . S
C194 O210 1.259 1_655 S
C194 O211 1.265 . S
C195 O212 1.255 . S
C195 O213 1.265 . S
C196 C198 1.380 . S
C196 C199 1.374 . S
C196 C202 1.507 . S
C197 C198 1.384 1_554 S
C197 C201 1.387 . S
C197 H224 0.930 . S
C198 C196 1.380 . S
C198 C197 1.384 1_556 S
C198 H225 0.931 . S
C199 C196 1.374 . S
C199 C200 1.390 1_556 S
C199 H226 0.930 . S
C200 C199 1.390 1_554 S
C200 C201 1.391 . S
C200 H227 0.930 . S
C201 C197 1.387 . S
C201 C200 1.391 . S
C202 Tb192 2.825 . S
C202 C196 1.507 . S
C202 O215 1.238 . S
C202 O216 1.247 . S
O203 Tb192 2.347 . S
O203 C207 1.259 1_655 S
O204 Eu193 2.418 . S
O204 C207 1.265 . S
O205 Eu193 2.384 1_655 S
O205 C214 1.255 . S
O206 Tb192 2.366 . S
O206 C214 1.265 . S
C207 O203 1.259 1_455 S
C207 O204 1.265 . S
O208 Eu193 2.479 . S
O208 C223 1.238 . S
O209 Eu193 2.471 . S
O209 C223 1.247 . S
O210 Eu193 2.347 . S
O210 C194 1.259 1_455 S
O211 Tb192 2.418 . S
O211 C194 1.265 . S
O212 Tb192 2.384 1_455 S
O212 C195 1.255 . S
O213 Eu193 2.366 . S
O213 C195 1.265 . S
C214 O205 1.255 . S
C214 O206 1.265 . S
O215 Tb192 2.479 . S
O215 C202 1.238 . S
O216 Tb192 2.471 . S
O216 C202 1.247 . S
C217 C220 1.380 . S
C217 C221 1.374 . S
C217 C223 1.507 . S
C218 C219 1.387 . S
C218 C222 1.391 . S
C219 C218 1.387 . S
C219 C220 1.384 . S
C219 H228 0.930 . S
C220 C217 1.380 . S
C220 C219 1.384 . S
C220 H229 0.931 . S
C221 C217 1.374 . S
C221 C222 1.390 . S
C221 H230 0.930 . S
C222 C218 1.391 . S
C222 C221 1.390 . S
C222 H231 0.930 . S
C223 Eu193 2.825 . S
C223 O208 1.238 . S
C223 O209 1.247 . S
C223 C217 1.507 . S
H224 C197 0.930 . S
H225 C198 0.931 . S
H226 C199 0.930 . S
H227 C200 0.930 . S
H228 C219 0.930 . S
H229 C220 0.931 . S
H230 C221 0.930 . S
H231 C222 0.930 . S
C232 C233 1.391 1_545 S
C232 C234 1.394 . S
C232 H248 0.931 . S
C233 C232 1.391 1_565 S
C233 C237 1.376 . S
C234 C232 1.394 . S
C234 C235 1.369 1_545 S
C234 C238 1.531 . S
C235 C234 1.369 1_565 S
C235 C236 1.410 . S
C235 C243 1.503 . S
C236 C235 1.410 . S
C236 C237 1.392 . S
C236 C239 1.511 . S
C237 C233 1.376 . S
C237 C236 1.392 . S
C237 H249 0.929 . S
C238 C234 1.531 . S
C238 H250 0.960 . S
C238 H251 0.962 . S
C238 H252 0.960 . S
C239 C236 1.511 . S
C239 H253 0.961 . S
C239 H254 0.961 . S
C239 H255 0.961 . S
C240 C241 1.348 1_545 S
C240 C242 1.363 . S
C240 H256 0.931 . S
C241 C240 1.348 1_565 S
C241 C245 1.433 . S
C242 C240 1.363 . S
C242 C243 1.370 1_545 S
C242 C246 1.524 . S
C243 C235 1.503 . S
C243 C242 1.370 1_565 S
C243 C244 1.403 . S
C244 C243 1.403 . S
C244 C245 1.404 . S
C244 C247 1.539 . S
C245 C241 1.433 . S
C245 C244 1.404 . S
C245 H257 0.930 . S
C246 C242 1.524 . S
C246 H258 0.956 . S
C246 H259 0.961 . S
C246 H260 0.961 . S
C247 C244 1.539 . S
C247 H261 0.958 . S
C247 H262 0.961 . S
C247 H263 0.960 . S
H248 C232 0.931 . S
H249 C237 0.929 . S
H250 C238 0.960 . S
H251 C238 0.962 . S
H252 C238 0.960 . S
H253 C239 0.961 . S
H254 C239 0.961 . S
H255 C239 0.961 . S
H256 C240 0.931 . S
H257 C245 0.930 . S
H258 C246 0.956 . S
H259 C246 0.961 . S
H260 C246 0.961 . S
H261 C247 0.958 . S
H262 C247 0.961 . S
H263 C247 0.960 . S
C264 C265 1.391 . S
C264 C266 1.394 . S
C264 H280 0.931 . S
C265 C264 1.391 . S
C265 C269 1.376 . S
C266 C264 1.394 . S
C266 C267 1.369 . S
C266 C270 1.531 . S
C267 C266 1.369 . S
C267 C268 1.410 . S
C267 C275 1.503 . S
C268 C267 1.410 . S
C268 C269 1.392 . S
C268 C271 1.511 . S
C269 C265 1.376 . S
C269 C268 1.392 . S
C269 H281 0.929 . S
C270 C266 1.531 . S
C270 H282 0.960 . S
C270 H283 0.962 . S
C270 H284 0.960 . S
C271 C268 1.511 . S
C271 H285 0.961 . S
C271 H286 0.961 . S
C271 H287 0.961 . S
C272 C273 1.370 . S
C272 C274 1.363 . S
C272 H288 0.931 . S
C273 C272 1.370 . S
C273 C277 1.408 . S
C274 C272 1.363 . S
C274 C275 1.370 . S
C274 C278 1.524 . S
C275 C267 1.503 . S
C275 C274 1.370 . S
C275 C276 1.403 . S
C276 C275 1.403 . S
C276 C277 1.404 . S
C276 C279 1.539 . S
C277 C273 1.408 . S
C277 C276 1.404 . S
C277 H289 0.930 . S
C278 C274 1.524 . S
C278 H290 0.956 . S
C278 H291 0.961 . S
C278 H292 0.961 . S
C279 C276 1.539 . S
C279 H293 0.958 . S
C279 H294 0.961 . S
C279 H295 0.960 . S
H280 C264 0.931 . S
H281 C269 0.929 . S
H282 C270 0.960 . S
H283 C270 0.962 . S
H284 C270 0.960 . S
H285 C271 0.961 . S
H286 C271 0.961 . S
H287 C271 0.961 . S
H288 C272 0.931 . S
H289 C277 0.930 . S
H290 C278 0.956 . S
H291 C278 0.961 . S
H292 C278 0.961 . S
H293 C279 0.958 . S
H294 C279 0.961 . S
H295 C279 0.960 . S
C296 C297 1.391 . S
C296 C298 1.394 . S
C296 H312 0.931 . S
C297 C296 1.391 . S
C297 C301 1.376 . S
C298 C296 1.394 . S
C298 C299 1.369 . S
C298 C302 1.531 . S
C299 C298 1.369 . S
C299 C300 1.410 . S
C299 C307 1.503 . S
C300 C299 1.410 . S
C300 C301 1.392 . S
C300 C303 1.511 . S
C301 C297 1.376 . S
C301 C300 1.392 . S
C301 H313 0.929 . S
C302 C298 1.531 . S
C302 H314 0.960 . S
C302 H315 0.962 . S
C302 H316 0.960 . S
C303 C300 1.511 . S
C303 H317 0.961 . S
C303 H318 0.961 . S
C303 H319 0.961 . S
C304 C305 1.370 . S
C304 C306 1.363 . S
C304 H320 0.931 . S
C305 C304 1.370 . S
C305 C309 1.408 . S
C306 C304 1.363 . S
C306 C307 1.370 . S
C306 C310 1.524 . S
C307 C299 1.503 . S
C307 C306 1.370 . S
C307 C308 1.403 . S
C308 C307 1.403 . S
C308 C309 1.404 . S
C308 C311 1.539 . S
C309 C305 1.408 . S
C309 C308 1.404 . S
C309 H321 0.930 . S
C310 C306 1.524 . S
C310 H322 0.956 . S
C310 H323 0.961 . S
C310 H324 0.961 . S
C311 C308 1.539 . S
C311 H325 0.958 . S
C311 H326 0.961 . S
C311 H327 0.960 . S
H312 C296 0.931 . S
H313 C301 0.929 . S
H314 C302 0.960 . S
H315 C302 0.962 . S
H316 C302 0.960 . S
H317 C303 0.961 . S
H318 C303 0.961 . S
H319 C303 0.961 . S
H320 C304 0.931 . S
H321 C309 0.930 . S
H322 C310 0.956 . S
H323 C310 0.961 . S
H324 C310 0.961 . S
H325 C311 0.958 . S
H326 C311 0.961 . S
H327 C311 0.960 . S
C328 C329 1.391 . S
C328 C330 1.394 . S
C328 H344 0.931 . S
C329 C328 1.391 . S
C329 C333 1.376 1_655 S
C330 C328 1.394 . S
C330 C331 1.369 . S
C330 C334 1.531 . S
C331 C330 1.369 . S
C331 C332 1.410 1_655 S
C331 C339 1.503 . S
C332 C331 1.410 1_455 S
C332 C333 1.392 . S
C332 C335 1.511 . S
C333 C329 1.376 1_455 S
C333 C332 1.392 . S
C333 H345 0.929 . S
C334 C330 1.531 . S
C334 H346 0.960 . S
C334 H347 0.962 . S
C334 H348 0.960 . S
C335 C332 1.511 . S
C335 H349 0.961 . S
C335 H350 0.961 . S
C335 H351 0.961 . S
C336 C337 1.389 . S
C336 C338 1.363 . S
C336 H352 0.931 . S
C337 C336 1.389 . S
C337 C341 1.387 1_455 S
C338 C336 1.363 . S
C338 C339 1.370 1_455 S
C338 C342 1.524 . S
C339 C331 1.503 . S
C339 C338 1.370 1_655 S
C339 C340 1.403 . S
C340 C339 1.403 . S
C340 C341 1.404 . S
C340 C343 1.539 . S
C341 C337 1.387 1_655 S
C341 C340 1.404 . S
C341 H353 0.930 . S
C342 C338 1.524 . S
C342 H354 0.956 . S
C342 H355 0.961 . S
C342 H356 0.961 . S
C343 C340 1.539 . S
C343 H357 0.958 . S
C343 H358 0.961 . S
C343 H359 0.960 . S
H344 C328 0.931 . S
H345 C333 0.929 . S
H346 C334 0.960 . S
H347 C334 0.962 . S
H348 C334 0.960 . S
H349 C335 0.961 . S
H350 C335 0.961 . S
H351 C335 0.961 . S
H352 C336 0.931 . S
H353 C341 0.930 . S
H354 C342 0.956 . S
H355 C342 0.961 . S
H356 C342 0.961 . S
H357 C343 0.958 . S
H358 C343 0.961 . S
H359 C343 0.960 . S
C360 C361 1.391 . S
C360 C362 1.394 . S
C360 H376 0.931 . S
C361 C360 1.391 . S
C361 C365 1.376 1_545 S
C362 C360 1.394 . S
C362 C363 1.369 . S
C362 C366 1.531 . S
C363 C362 1.369 . S
C363 C364 1.410 1_545 S
C363 C371 1.503 . S
C364 C363 1.410 1_565 S
C364 C365 1.392 . S
C364 C367 1.511 . S
C365 C361 1.376 1_565 S
C365 C364 1.392 . S
C365 H377 0.929 . S
C366 C362 1.531 . S
C366 H378 0.960 . S
C366 H379 0.962 . S
C366 H380 0.960 . S
C367 C364 1.511 . S
C367 H381 0.961 . S
C367 H382 0.961 . S
C367 H383 0.961 1_565 S
C368 C369 1.370 1_565 S
C368 C370 1.363 1_556 S
C368 H384 0.931 . S
C369 C368 1.370 1_545 S
C369 C373 1.408 . S
C370 C368 1.363 1_554 S
C370 C371 1.370 1_565 S
C370 C374 1.524 . S
C371 C363 1.503 . S
C371 C370 1.370 1_545 S
C371 C372 1.403 . S
C372 C371 1.403 . S
C372 C373 1.404 1_554 S
C372 C375 1.539 . S
C373 C369 1.408 . S
C373 C372 1.404 1_556 S
C373 H385 0.930 . S
C374 C370 1.524 . S
C374 H386 0.956 . S
C374 H387 0.961 . S
C374 H388 0.961 . S
C375 C372 1.539 . S
C375 H389 0.958 . S
C375 H390 0.961 . S
C375 H391 0.960 . S
H376 C360 0.931 . S
H377 C365 0.929 . S
H378 C366 0.960 . S
H379 C366 0.962 . S
H380 C366 0.960 . S
H381 C367 0.961 . S
H382 C367 0.961 . S
H383 C367 0.961 1_545 S
H384 C368 0.931 . S
H385 C373 0.930 . S
H386 C374 0.956 . S
H387 C374 0.961 . S
H388 C374 0.961 . S
H389 C375 0.958 . S
H390 C375 0.961 . S
H391 C375 0.960 . S
C392 C393 1.391 . S
C392 C394 1.394 . S
C392 H408 0.931 . S
C393 C392 1.391 . S
C393 C397 1.376 . S
C394 C392 1.394 . S
C394 C395 1.369 . S
C394 C398 1.531 . S
C395 C394 1.369 . S
C395 C396 1.410 . S
C395 C403 1.503 . S
C396 C395 1.410 . S
C396 C397 1.392 . S
C396 C399 1.511 . S
C397 C393 1.376 . S
C397 C396 1.392 . S
C397 H409 0.929 . S
C398 C394 1.531 . S
C398 H410 0.960 . S
C398 H411 0.962 . S
C398 H412 0.960 . S
C399 C396 1.511 . S
C399 H413 0.961 . S
C399 H414 0.961 . S
C399 H415 0.961 . S
C400 C401 1.370 . S
C400 C402 1.363 1_556 S
C400 H416 0.931 . S
C401 C400 1.370 . S
C401 C405 1.408 . S
C402 C400 1.363 1_554 S
C402 C403 1.370 . S
C402 C406 1.524 . S
C403 C395 1.503 . S
C403 C402 1.370 . S
C403 C404 1.403 . S
C404 C403 1.403 . S
C404 C405 1.404 1_554 S
C404 C407 1.539 . S
C405 C401 1.408 . S
C405 C404 1.404 1_556 S
C405 H417 0.930 . S
C406 C402 1.524 . S
C406 H418 0.956 . S
C406 H419 0.961 . S
C406 H420 0.961 . S
C407 C404 1.539 . S
C407 H421 0.958 . S
C407 H422 0.961 . S
C407 H423 0.960 . S
H408 C392 0.931 . S
H409 C397 0.929 . S
H410 C398 0.960 . S
H411 C398 0.962 . S
H412 C398 0.960 . S
H413 C399 0.961 . S
H414 C399 0.961 . S
H415 C399 0.961 . S
H416 C400 0.931 . S
H417 C405 0.930 . S
H418 C406 0.956 . S
H419 C406 0.961 . S
H420 C406 0.961 . S
H421 C407 0.958 . S
H422 C407 0.961 . S
H423 C407 0.960 . S
C424 C425 1.391 . S
C424 C426 1.394 . S
C424 H440 0.931 . S
C425 C424 1.391 . S
C425 C429 1.376 . S
C426 C424 1.394 . S
C426 C427 1.369 . S
C426 C430 1.531 . S
C427 C426 1.369 . S
C427 C428 1.410 . S
C427 C435 1.503 . S
C428 C427 1.410 . S
C428 C429 1.392 . S
C428 C431 1.511 . S
C429 C425 1.376 . S
C429 C428 1.392 . S
C429 H441 0.929 . S
C430 C426 1.531 . S
C430 H442 0.960 . S
C430 H443 0.962 . S
C430 H444 0.960 . S
C431 C428 1.511 . S
C431 H445 0.961 . S
C431 H446 0.961 . S
C431 H447 0.961 . S
C432 C433 1.370 . S
C432 C434 1.363 1_556 S
C432 H448 0.931 . S
C433 C432 1.370 . S
C433 C437 1.408 . S
C434 C432 1.363 1_554 S
C434 C435 1.370 . S
C434 C438 1.524 . S
C435 C427 1.503 . S
C435 C434 1.370 . S
C435 C436 1.403 . S
C436 C435 1.403 . S
C436 C437 1.404 1_554 S
C436 C439 1.539 . S
C437 C433 1.408 . S
C437 C436 1.404 1_556 S
C437 H449 0.930 . S
C438 C434 1.524 . S
C438 H450 0.956 . S
C438 H451 0.961 . S
C438 H452 0.961 1_554 S
C439 C436 1.539 . S
C439 H453 0.958 . S
C439 H454 0.961 . S
C439 H455 0.960 . S
H440 C424 0.931 . S
H441 C429 0.929 . S
H442 C430 0.960 . S
H443 C430 0.962 . S
H444 C430 0.960 . S
H445 C431 0.961 . S
H446 C431 0.961 . S
H447 C431 0.961 . S
H448 C432 0.931 . S
H449 C437 0.930 . S
H450 C438 0.956 . S
H451 C438 0.961 . S
H452 C438 0.961 1_556 S
H453 C439 0.958 . S
H454 C439 0.961 . S
H455 C439 0.960 . S
C456 C457 1.391 . S
C456 C458 1.394 . S
C456 H472 0.931 . S
C457 C456 1.391 . S
C457 C461 1.374 1_655 S
C458 C456 1.394 . S
C458 C459 1.369 . S
C458 C462 1.531 . S
C459 C458 1.369 . S
C459 C460 1.410 . S
C459 C467 1.503 . S
C460 C459 1.410 . S
C460 C461 1.391 1_655 S
C460 C463 1.511 1_655 S
C461 C457 1.374 1_455 S
C461 C460 1.391 1_455 S
C461 H473 0.934 . S
C462 C458 1.531 . S
C462 H474 0.960 . S
C462 H475 0.962 . S
C462 H476 0.960 . S
C463 C460 1.511 1_455 S
C463 H477 0.961 . S
C463 H478 0.961 . S
C463 H479 0.961 1_455 S
C464 C465 1.370 1_455 S
C464 C466 1.363 1_556 S
C464 H480 0.931 . S
C465 C464 1.370 1_655 S
C465 C469 1.408 . S
C466 C464 1.363 1_554 S
C466 C467 1.370 1_455 S
C466 C470 1.524 . S
C467 C459 1.503 . S
C467 C466 1.370 1_655 S
C467 C468 1.403 . S
C468 C467 1.403 . S
C468 C469 1.404 1_554 S
C468 C471 1.539 . S
C469 C465 1.408 . S
C469 C468 1.404 1_556 S
C469 H481 0.930 . S
C470 C466 1.524 . S
C470 H482 0.956 . S
C470 H483 0.961 . S
C470 H484 0.961 . S
C471 C468 1.539 . S
C471 H485 0.958 . S
C471 H486 0.961 1_554 S
C471 H487 0.960 . S
H472 C456 0.931 . S
H473 C461 0.934 . S
H474 C462 0.960 . S
H475 C462 0.962 . S
H476 C462 0.960 . S
H477 C463 0.961 . S
H478 C463 0.961 . S
H479 C463 0.961 1_655 S
H480 C464 0.931 . S
H481 C469 0.930 . S
H482 C470 0.956 . S
H483 C470 0.961 . S
H484 C470 0.961 . S
H485 C471 0.958 . S
H486 C471 0.961 1_556 S
H487 C471 0.960 . S
C488 C489 1.391 1_655 S
C488 C490 1.394 . S
C488 H504 0.931 . S
C489 C488 1.391 1_455 S
C489 C493 1.376 . S
C490 C488 1.394 . S
C490 C491 1.369 . S
C490 C494 1.531 . S
C491 C490 1.369 . S
C491 C492 1.410 . S
C491 C499 1.503 . S
C492 C491 1.410 . S
C492 C493 1.392 1_655 S
C492 C495 1.511 1_655 S
C493 C489 1.376 . S
C493 C492 1.392 1_455 S
C493 H505 0.929 . S
C494 C490 1.531 . S
C494 H506 0.960 . S
C494 H507 0.962 . S
C494 H508 0.960 . S
C495 C492 1.511 1_455 S
C495 H509 0.960 1_455 S
C495 H510 0.958 1_455 S
C495 H511 0.964 . S
C496 C497 1.370 . S
C496 C498 1.363 . S
C496 H512 0.931 . S
C497 C496 1.370 . S
C497 C501 1.408 . S
C498 C496 1.363 . S
C498 C499 1.370 . S
C498 C502 1.524 . S
C499 C491 1.503 . S
C499 C498 1.370 . S
C499 C500 1.403 . S
C500 C499 1.403 . S
C500 C501 1.404 . S
C500 C503 1.539 1_655 S
C501 C497 1.408 . S
C501 C500 1.404 . S
C501 H513 0.930 . S
C502 C498 1.524 . S
C502 H514 0.956 . S
C502 H515 0.961 . S
C502 H516 0.961 . S
C503 C500 1.539 1_455 S
C503 H517 0.958 . S
C503 H518 0.961 . S
C503 H519 0.960 . S
H504 C488 0.931 . S
H505 C493 0.929 . S
H506 C494 0.960 . S
H507 C494 0.962 . S
H508 C494 0.960 . S
H509 C495 0.960 1_655 S
H510 C495 0.958 1_655 S
H511 C495 0.964 . S
H512 C496 0.931 . S
H513 C501 0.930 . S
H514 C502 0.956 . S
H515 C502 0.961 . S
H516 C502 0.961 . S
H517 C503 0.958 . S
H518 C503 0.961 . S
H519 C503 0.960 . S
C520 C521 1.391 . S
C520 C522 1.394 1_545 S
C520 H536 0.931 . S
C521 C520 1.391 . S
C521 C525 1.376 1_545 S
C522 C520 1.394 1_565 S
C522 C523 1.369 . S
C522 C526 1.531 . S
C523 C522 1.369 . S
C523 C524 1.410 . S
C523 C531 1.503 . S
C524 C523 1.410 . S
C524 C525 1.392 . S
C524 C527 1.511 . S
C525 C521 1.376 1_565 S
C525 C524 1.392 . S
C525 H537 0.929 1_565 S
C526 C522 1.531 . S
C526 H538 0.964 . S
C526 H539 0.962 . S
C526 H540 0.960 1_565 S
C527 C524 1.511 . S
C527 H541 0.961 . S
C527 H542 0.961 . S
C527 H543 0.961 1_565 S
C528 C529 1.370 . S
C528 C530 1.363 . S
C528 H544 0.931 . S
C529 C528 1.370 . S
C529 C533 1.408 . S
C530 C528 1.363 . S
C530 C531 1.370 . S
C530 C534 1.524 . S
C531 C523 1.503 . S
C531 C530 1.370 . S
C531 C532 1.403 . S
C532 C531 1.403 . S
C532 C533 1.404 . S
C532 C535 1.539 1_565 S
C533 C529 1.408 . S
C533 C532 1.404 . S
C533 H545 0.927 . S
C534 C530 1.524 . S
C534 H546 0.956 . S
C534 H547 0.961 . S
C534 H548 0.961 . S
C535 C532 1.539 1_545 S
C535 H549 0.958 . S
C535 H550 0.961 . S
C535 H551 0.960 . S
H536 C520 0.931 . S
H537 C525 0.929 1_545 S
H538 C526 0.964 . S
H539 C526 0.962 . S
H540 C526 0.960 1_545 S
H541 C527 0.961 . S
H542 C527 0.961 . S
H543 C527 0.961 1_545 S
H544 C528 0.931 . S
H545 C533 0.927 . S
H546 C534 0.956 . S
H547 C534 0.961 . S
H548 C534 0.961 . S
H549 C535 0.958 . S
H550 C535 0.961 . S
H551 C535 0.960 . S
C552 C553 1.391 . S
C552 C554 1.394 . S
C552 H568 0.931 . S
C553 C552 1.391 . S
C553 C557 1.376 . S
C554 C552 1.394 . S
C554 C555 1.369 . S
C554 C558 1.531 . S
C555 C554 1.369 . S
C555 C556 1.410 . S
C555 C563 1.503 . S
C556 C555 1.410 . S
C556 C557 1.392 . S
C556 C559 1.511 . S
C557 C553 1.376 . S
C557 C556 1.392 . S
C557 H569 0.929 . S
C558 C554 1.531 . S
C558 H570 0.960 . S
C558 H571 0.962 . S
C558 H572 0.960 . S
C559 C556 1.511 . S
C559 H573 0.961 . S
C559 H574 0.961 . S
C559 H575 0.961 . S
C560 C561 1.370 . S
C560 C562 1.363 . S
C560 H576 0.931 . S
C561 C560 1.370 . S
C561 C565 1.408 . S
C562 C560 1.363 . S
C562 C563 1.370 . S
C562 C566 1.524 . S
C563 C555 1.503 . S
C563 C562 1.370 . S
C563 C564 1.403 . S
C564 C563 1.403 . S
C564 C565 1.404 . S
C564 C567 1.539 . S
C565 C561 1.408 . S
C565 C564 1.404 . S
C565 H577 0.930 . S
C566 C562 1.524 . S
C566 H578 0.956 . S
C566 H579 0.961 . S
C566 H580 0.961 . S
C567 C564 1.539 . S
C567 H581 0.958 . S
C567 H582 0.961 . S
C567 H583 0.960 . S
H568 C552 0.931 . S
H569 C557 0.929 . S
H570 C558 0.960 . S
H571 C558 0.962 . S
H572 C558 0.960 . S
H573 C559 0.961 . S
H574 C559 0.961 . S
H575 C559 0.961 . S
H576 C560 0.931 . S
H577 C565 0.930 . S
H578 C566 0.956 . S
H579 C566 0.961 . S
H580 C566 0.961 . S
H581 C567 0.958 . S
H582 C567 0.961 . S
H583 C567 0.960 . S
C584 C585 1.391 . S
C584 C586 1.394 . S
C584 H600 0.931 . S
C585 C584 1.391 . S
C585 C589 1.376 . S
C586 C584 1.394 . S
C586 C587 1.369 . S
C586 C590 1.531 . S
C587 C586 1.369 . S
C587 C588 1.410 . S
C587 C595 1.503 . S
C588 C587 1.410 . S
C588 C589 1.392 . S
C588 C591 1.511 . S
C589 C585 1.376 . S
C589 C588 1.392 . S
C589 H601 0.929 . S
C590 C586 1.531 . S
C590 H602 0.960 . S
C590 H603 0.962 . S
C590 H604 0.960 . S
C591 C588 1.511 . S
C591 H605 0.961 . S
C591 H606 0.961 . S
C591 H607 0.961 . S
C592 C593 1.370 . S
C592 C594 1.363 . S
C592 H608 0.931 . S
C593 C592 1.370 . S
C593 C597 1.408 . S
C594 C592 1.363 . S
C594 C595 1.370 . S
C594 C598 1.524 . S
C595 C587 1.503 . S
C595 C594 1.370 . S
C595 C596 1.403 . S
C596 C595 1.403 . S
C596 C597 1.404 . S
C596 C599 1.539 . S
C597 C593 1.408 . S
C597 C596 1.404 . S
C597 H609 0.930 . S
C598 C594 1.524 . S
C598 H610 0.956 . S
C598 H611 0.961 . S
C598 H612 0.961 . S
C599 C596 1.539 . S
C599 H613 0.958 . S
C599 H614 0.961 . S
C599 H615 0.960 . S
H600 C584 0.931 . S
H601 C589 0.929 . S
H602 C590 0.960 . S
H603 C590 0.962 . S
H604 C590 0.960 . S
H605 C591 0.961 . S
H606 C591 0.961 . S
H607 C591 0.961 . S
H608 C592 0.931 . S
H609 C597 0.930 . S
H610 C598 0.956 . S
H611 C598 0.961 . S
H612 C598 0.961 . S
H613 C599 0.958 . S
H614 C599 0.961 . S
H615 C599 0.960 . S
C616 C617 1.391 1_455 S
C616 C618 1.394 . S
C616 H632 0.931 . S
C617 C616 1.391 1_655 S
C617 C621 1.376 . S
C618 C616 1.394 . S
C618 C619 1.369 . S
C618 C622 1.531 . S
C619 C618 1.369 . S
C619 C620 1.410 1_455 S
C619 C627 1.503 . S
C620 C619 1.410 1_655 S
C620 C621 1.392 . S
C620 C623 1.511 . S
C621 C617 1.376 . S
C621 C620 1.392 . S
C621 H633 0.929 . S
C622 C618 1.531 . S
C622 H634 0.960 . S
C622 H635 0.962 . S
C622 H636 0.960 . S
C623 C620 1.511 . S
C623 H637 0.961 . S
C623 H638 0.961 . S
C623 H639 0.961 . S
C624 C625 1.370 . S
C624 C626 1.363 . S
C624 H640 0.931 . S
C625 C624 1.370 . S
C625 C629 1.408 . S
C626 C624 1.363 . S
C626 C627 1.370 . S
C626 C630 1.524 . S
C627 C619 1.503 . S
C627 C626 1.370 . S
C627 C628 1.403 . S
C628 C627 1.403 . S
C628 C629 1.404 . S
C628 C631 1.539 1_455 S
C629 C625 1.408 . S
C629 C628 1.404 . S
C629 H641 0.930 1_554 S
C630 C626 1.524 . S
C630 H642 0.956 . S
C630 H643 0.961 . S
C630 H644 0.961 . S
C631 C628 1.539 1_655 S
C631 H645 0.958 1_554 S
C631 H646 0.961 1_554 S
C631 H647 0.960 . S
H632 C616 0.931 . S
H633 C621 0.929 . S
H634 C622 0.960 . S
H635 C622 0.962 . S
H636 C622 0.960 . S
H637 C623 0.961 . S
H638 C623 0.961 . S
H639 C623 0.961 . S
H640 C624 0.931 . S
H641 C629 0.930 1_556 S
H642 C630 0.956 . S
H643 C630 0.961 . S
H644 C630 0.961 . S
H645 C631 0.958 1_556 S
H646 C631 0.961 1_556 S
H647 C631 0.960 . S
C648 C649 1.391 1_545 S
C648 C650 1.394 . S
C648 H664 0.931 . S
C649 C648 1.391 1_565 S
C649 C653 1.376 . S
C650 C648 1.394 . S
C650 C651 1.369 . S
C650 C654 1.531 . S
C651 C650 1.369 . S
C651 C652 1.410 1_545 S
C651 C659 1.503 . S
C652 C651 1.410 1_565 S
C652 C653 1.392 . S
C652 C655 1.511 . S
C653 C649 1.376 . S
C653 C652 1.392 . S
C653 H665 0.929 . S
C654 C650 1.531 . S
C654 H666 0.960 . S
C654 H667 0.962 . S
C654 H668 0.960 . S
C655 C652 1.511 . S
C655 H669 0.961 . S
C655 H670 0.961 . S
C655 H671 0.961 . S
C656 C657 1.370 . S
C656 C658 1.363 . S
C656 H672 0.931 . S
C657 C656 1.370 . S
C657 C661 1.408 . S
C658 C656 1.363 . S
C658 C659 1.370 . S
C658 C662 1.524 . S
C659 C651 1.503 . S
C659 C658 1.370 . S
C659 C660 1.403 . S
C660 C659 1.403 . S
C660 C661 1.404 . S
C660 C663 1.539 . S
C661 C657 1.408 . S
C661 C660 1.404 . S
C661 H673 0.930 1_554 S
C662 C658 1.524 . S
C662 H674 0.956 . S
C662 H675 0.961 . S
C662 H676 0.961 . S
C663 C660 1.539 . S
C663 H677 0.958 1_554 S
C663 H678 0.961 1_544 S
C663 H679 0.960 1_545 S
H664 C648 0.931 . S
H665 C653 0.929 . S
H666 C654 0.960 . S
H667 C654 0.962 . S
H668 C654 0.960 . S
H669 C655 0.961 . S
H670 C655 0.961 . S
H671 C655 0.961 . S
H672 C656 0.931 . S
H673 C661 0.930 1_556 S
H674 C662 0.956 . S
H675 C662 0.961 . S
H676 C662 0.961 . S
H677 C663 0.958 1_556 S
H678 C663 0.961 1_566 S
H679 C663 0.960 1_565 S
C680 C681 1.391 . S
C680 C682 1.394 . S
C680 H696 0.931 . S
C681 C680 1.391 . S
C681 C685 1.376 . S
C682 C680 1.394 . S
C682 C683 1.369 . S
C682 C686 1.531 . S
C683 C682 1.369 . S
C683 C684 1.410 . S
C683 C691 1.503 . S
C684 C683 1.410 . S
C684 C685 1.392 . S
C684 C687 1.511 . S
C685 C681 1.376 . S
C685 C684 1.392 . S
C685 H697 0.929 . S
C686 C682 1.531 . S
C686 H698 0.960 . S
C686 H699 0.962 . S
C686 H700 0.960 . S
C687 C684 1.511 . S
C687 H701 0.961 . S
C687 H702 0.961 . S
C687 H703 0.961 . S
C688 C689 1.370 . S
C688 C690 1.363 . S
C688 H704 0.931 . S
C689 C688 1.370 . S
C689 C693 1.408 . S
C690 C688 1.363 . S
C690 C691 1.370 . S
C690 C694 1.524 . S
C691 C683 1.503 . S
C691 C690 1.370 . S
C691 C692 1.403 . S
C692 C691 1.403 . S
C692 C693 1.404 . S
C692 C695 1.539 . S
C693 C689 1.408 . S
C693 C692 1.404 . S
C693 H705 0.930 1_554 S
C694 C690 1.524 . S
C694 H706 0.956 . S
C694 H707 0.961 . S
C694 H708 0.961 . S
C695 C692 1.539 . S
C695 H709 0.958 1_554 S
C695 H710 0.961 1_554 S
C695 H711 0.960 . S
H696 C680 0.931 . S
H697 C685 0.929 . S
H698 C686 0.960 . S
H699 C686 0.962 . S
H700 C686 0.960 . S
H701 C687 0.961 . S
H702 C687 0.961 . S
H703 C687 0.961 . S
H704 C688 0.931 . S
H705 C693 0.930 1_556 S
H706 C694 0.956 . S
H707 C694 0.961 . S
H708 C694 0.961 . S
H709 C695 0.958 1_556 S
H710 C695 0.961 1_556 S
H711 C695 0.960 . S
C712 C713 1.391 . S
C712 C714 1.394 . S
C712 H728 0.931 . S
C713 C712 1.391 . S
C713 C717 1.376 . S
C714 C712 1.394 . S
C714 C715 1.369 . S
C714 C718 1.531 . S
C715 C714 1.369 . S
C715 C716 1.410 . S
C715 C723 1.503 . S
C716 C715 1.410 . S
C716 C717 1.392 . S
C716 C719 1.511 . S
C717 C713 1.376 . S
C717 C716 1.392 . S
C717 H729 0.929 . S
C718 C714 1.531 . S
C718 H730 0.960 . S
C718 H731 0.962 . S
C718 H732 0.960 . S
C719 C716 1.511 . S
C719 H733 0.961 . S
C719 H734 0.961 . S
C719 H735 0.961 . S
C720 C721 1.370 . S
C720 C722 1.363 . S
C720 H736 0.931 1_554 S
C721 C720 1.370 . S
C721 C725 1.408 . S
C722 C720 1.363 . S
C722 C723 1.370 . S
C722 C726 1.524 . S
C723 C715 1.503 . S
C723 C722 1.370 . S
C723 C724 1.403 . S
C724 C723 1.403 . S
C724 C725 1.404 . S
C724 C727 1.539 . S
C725 C721 1.408 . S
C725 C724 1.404 . S
C725 H737 0.930 . S
C726 C722 1.524 . S
C726 H738 0.956 . S
C726 H739 0.961 . S
C726 H740 0.961 1_554 S
C727 C724 1.539 . S
C727 H741 0.958 . S
C727 H742 0.961 . S
C727 H743 0.960 . S
H728 C712 0.931 . S
H729 C717 0.929 . S
H730 C718 0.960 . S
H731 C718 0.962 . S
H732 C718 0.960 . S
H733 C719 0.961 . S
H734 C719 0.961 . S
H735 C719 0.961 . S
H736 C720 0.931 1_556 S
H737 C725 0.930 . S
H738 C726 0.956 . S
H739 C726 0.961 . S
H740 C726 0.961 1_556 S
H741 C727 0.958 . S
H742 C727 0.961 . S
H743 C727 0.960 . S
C744 C745 1.391 1_655 S
C744 C746 1.394 . S
C744 H760 0.931 . S
C745 C744 1.391 1_455 S
C745 C749 1.376 . S
C746 C744 1.394 . S
C746 C747 1.369 1_655 S
C746 C750 1.531 . S
C747 C746 1.369 1_455 S
C747 C748 1.410 . S
C747 C755 1.503 . S
C748 C747 1.410 . S
C748 C749 1.392 . S
C748 C751 1.511 . S
C749 C745 1.376 . S
C749 C748 1.392 . S
C749 H761 0.929 . S
C750 C746 1.531 . S
C750 H762 0.960 . S
C750 H763 0.962 . S
C750 H764 0.960 . S
C751 C748 1.511 . S
C751 H765 0.961 . S
C751 H766 0.961 . S
C751 H767 0.961 . S
C752 C753 1.370 . S
C752 C754 1.363 . S
C752 H768 0.931 1_455 S
C753 C752 1.370 . S
C753 C757 1.408 . S
C754 C752 1.363 . S
C754 C755 1.370 . S
C754 C758 1.524 1_455 S
C755 C747 1.503 . S
C755 C754 1.370 . S
C755 C756 1.403 . S
C756 C755 1.403 . S
C756 C757 1.404 . S
C756 C759 1.539 . S
C757 C753 1.408 . S
C757 C756 1.404 . S
C757 H769 0.930 . S
C758 C754 1.524 1_655 S
C758 H770 0.956 . S
C758 H771 0.961 1_656 S
C758 H772 0.961 1_556 S
C759 C756 1.539 . S
C759 H773 0.958 . S
C759 H774 0.961 . S
C759 H775 0.960 . S
H760 C744 0.931 . S
H761 C749 0.929 . S
H762 C750 0.960 . S
H763 C750 0.962 . S
H764 C750 0.960 . S
H765 C751 0.961 . S
H766 C751 0.961 . S
H767 C751 0.961 . S
H768 C752 0.931 1_655 S
H769 C757 0.930 . S
H770 C758 0.956 . S
H771 C758 0.961 1_454 S
H772 C758 0.961 1_554 S
H773 C759 0.958 . S
H774 C759 0.961 . S
H775 C759 0.960 . S
C776 C777 1.391 1_565 S
C776 C778 1.394 . S
C776 H792 0.931 . S
C777 C776 1.391 1_545 S
C777 C781 1.376 . S
C778 C776 1.394 . S
C778 C779 1.369 1_565 S
C778 C782 1.531 . S
C779 C778 1.369 1_545 S
C779 C780 1.410 . S
C779 C787 1.503 . S
C780 C779 1.410 . S
C780 C781 1.392 . S
C780 C783 1.511 . S
C781 C777 1.376 . S
C781 C780 1.392 . S
C781 H793 0.929 . S
C782 C778 1.531 . S
C782 H794 0.960 . S
C782 H795 0.962 . S
C782 H796 0.960 . S
C783 C780 1.511 . S
C783 H797 0.961 . S
C783 H798 0.961 . S
C783 H799 0.961 . S
C784 C785 1.370 . S
C784 C786 1.363 . S
C784 H800 0.931 . S
C785 C784 1.370 . S
C785 C789 1.408 . S
C786 C784 1.363 . S
C786 C787 1.370 . S
C786 C790 1.524 . S
C787 C779 1.503 . S
C787 C786 1.370 . S
C787 C788 1.403 . S
C788 C787 1.403 . S
C788 C789 1.404 . S
C788 C791 1.539 . S
C789 C785 1.408 . S
C789 C788 1.404 . S
C789 H801 0.930 . S
C790 C786 1.524 . S
C790 H802 0.956 1_546 S
C790 H803 0.961 . S
C790 H804 0.961 1_556 S
C791 C788 1.539 . S
C791 H805 0.958 1_545 S
C791 H806 0.961 . S
C791 H807 0.960 . S
H792 C776 0.931 . S
H793 C781 0.929 . S
H794 C782 0.960 . S
H795 C782 0.962 . S
H796 C782 0.960 . S
H797 C783 0.961 . S
H798 C783 0.961 . S
H799 C783 0.961 . S
H800 C784 0.931 . S
H801 C789 0.930 . S
H802 C790 0.956 1_564 S
H803 C790 0.961 . S
H804 C790 0.961 1_554 S
H805 C791 0.958 1_565 S
H806 C791 0.961 . S
H807 C791 0.960 . S
C808 C809 1.391 . S
C808 C810 1.394 . S
C808 H824 0.931 . S
C809 C808 1.391 . S
C809 C813 1.376 . S
C810 C808 1.394 . S
C810 C811 1.369 . S
C810 C814 1.531 . S
C811 C810 1.369 . S
C811 C812 1.410 . S
C811 C819 1.503 . S
C812 C811 1.410 . S
C812 C813 1.392 . S
C812 C815 1.511 . S
C813 C809 1.376 . S
C813 C812 1.392 . S
C813 H825 0.929 . S
C814 C810 1.531 . S
C814 H826 0.960 . S
C814 H827 0.962 . S
C814 H828 0.960 . S
C815 C812 1.511 . S
C815 H829 0.961 . S
C815 H830 0.961 . S
C815 H831 0.961 . S
C816 C817 1.370 . S
C816 C818 1.363 . S
C816 H832 0.931 . S
C817 C816 1.370 . S
C817 C821 1.408 . S
C818 C816 1.363 . S
C818 C819 1.370 . S
C818 C822 1.524 . S
C819 C811 1.503 . S
C819 C818 1.370 . S
C819 C820 1.403 . S
C820 C819 1.403 . S
C820 C821 1.404 . S
C820 C823 1.539 . S
C821 C817 1.408 . S
C821 C820 1.404 . S
C821 H833 0.930 . S
C822 C818 1.524 . S
C822 H834 0.956 1_556 S
C822 H835 0.961 . S
C822 H836 0.961 1_556 S
C823 C820 1.539 . S
C823 H837 0.958 . S
C823 H838 0.961 . S
C823 H839 0.960 . S
H824 C808 0.931 . S
H825 C813 0.929 . S
H826 C814 0.960 . S
H827 C814 0.962 . S
H828 C814 0.960 . S
H829 C815 0.961 . S
H830 C815 0.961 . S
H831 C815 0.961 . S
H832 C816 0.931 . S
H833 C821 0.930 . S
H834 C822 0.956 1_554 S
H835 C822 0.961 . S
H836 C822 0.961 1_554 S
H837 C823 0.958 . S
H838 C823 0.961 . S
H839 C823 0.960 . S
C840 C841 1.391 . S
C840 C842 1.394 . S
C840 H856 0.931 . S
C841 C840 1.391 . S
C841 C845 1.376 . S
C842 C840 1.394 . S
C842 C843 1.369 . S
C842 C846 1.531 . S
C843 C842 1.369 . S
C843 C844 1.410 . S
C843 C851 1.503 . S
C844 C843 1.410 . S
C844 C845 1.392 . S
C844 C847 1.511 . S
C845 C841 1.376 . S
C845 C844 1.392 . S
C845 H857 0.929 . S
C846 C842 1.531 . S
C846 H858 0.960 . S
C846 H859 0.962 . S
C846 H860 0.960 . S
C847 C844 1.511 . S
C847 H861 0.961 . S
C847 H862 0.961 . S
C847 H863 0.961 . S
C848 C849 1.370 . S
C848 C850 1.363 . S
C848 H864 0.931 . S
C849 C848 1.370 . S
C849 C853 1.408 . S
C850 C848 1.363 . S
C850 C851 1.370 . S
C850 C854 1.524 . S
C851 C843 1.503 . S
C851 C850 1.370 . S
C851 C852 1.403 . S
C852 C851 1.403 . S
C852 C853 1.404 . S
C852 C855 1.539 . S
C853 C849 1.408 . S
C853 C852 1.404 . S
C853 H865 0.930 . S
C854 C850 1.524 . S
C854 H866 0.956 1_556 S
C854 H867 0.961 . S
C854 H868 0.961 . S
C855 C852 1.539 . S
C855 H869 0.958 . S
C855 H870 0.961 . S
C855 H871 0.960 . S
H856 C840 0.931 . S
H857 C845 0.929 . S
H858 C846 0.960 . S
H859 C846 0.962 . S
H860 C846 0.960 . S
H861 C847 0.961 . S
H862 C847 0.961 . S
H863 C847 0.961 . S
H864 C848 0.931 . S
H865 C853 0.930 . S
H866 C854 0.956 1_554 S
H867 C854 0.961 . S
H868 C854 0.961 . S
H869 C855 0.958 . S
H870 C855 0.961 . S
H871 C855 0.960 . S
C872 C873 1.360 1_455 S
C872 C874 1.394 . S
C872 H888 0.931 . S
C873 C872 1.360 1_655 S
C873 C877 1.407 . S
C874 C872 1.394 . S
C874 C875 1.369 1_455 S
C874 C878 1.531 . S
C875 C874 1.369 1_655 S
C875 C876 1.410 . S
C875 C883 1.503 . S
C876 C875 1.410 . S
C876 C877 1.392 . S
C876 C879 1.511 . S
C877 C873 1.407 . S
C877 C876 1.392 . S
C877 H889 0.929 . S
C878 C874 1.531 . S
C878 H890 0.960 . S
C878 H891 0.962 . S
C878 H892 0.960 . S
C879 C876 1.511 . S
C879 H893 0.961 . S
C879 H894 0.961 . S
C879 H895 0.961 . S
C880 C881 1.370 . S
C880 C882 1.363 . S
C880 H896 0.931 . S
C881 C880 1.370 . S
C881 C885 1.408 1_655 S
C882 C880 1.363 . S
C882 C883 1.370 . S
C882 C886 1.524 . S
C883 C875 1.503 . S
C883 C882 1.370 . S
C883 C884 1.403 1_655 S
C884 C883 1.403 1_455 S
C884 C885 1.404 . S
C884 C887 1.539 . S
C885 C881 1.408 1_455 S
C885 C884 1.404 . S
C885 H897 0.930 . S
C886 C882 1.524 . S
C886 H898 0.956 . S
C886 H899 0.961 . S
C886 H900 0.961 . S
C887 C884 1.539 . S
C887 H901 0.958 . S
C887 H902 0.961 . S
C887 H903 0.960 . S
H888 C872 0.931 . S
H889 C877 0.929 . S
H890 C878 0.960 . S
H891 C878 0.962 . S
H892 C878 0.960 . S
H893 C879 0.961 . S
H894 C879 0.961 . S
H895 C879 0.961 . S
H896 C880 0.931 . S
H897 C885 0.930 . S
H898 C886 0.956 . S
H899 C886 0.961 . S
H900 C886 0.961 . S
H901 C887 0.958 . S
H902 C887 0.961 . S
H903 C887 0.960 . S
C904 C905 1.391 . S
C904 C906 1.394 . S
C904 H920 0.931 . S
C905 C904 1.391 . S
C905 C909 1.376 1_565 S
C906 C904 1.394 . S
C906 C907 1.369 . S
C906 C910 1.531 . S
C907 C906 1.369 . S
C907 C908 1.410 1_565 S
C907 C915 1.503 . S
C908 C907 1.410 1_545 S
C908 C909 1.392 . S
C908 C911 1.511 . S
C909 C905 1.376 1_545 S
C909 C908 1.392 . S
C909 H921 0.929 . S
C910 C906 1.531 . S
C910 H922 0.960 . S
C910 H923 0.962 . S
C910 H924 0.960 . S
C911 C908 1.511 . S
C911 H925 0.961 . S
C911 H926 0.961 . S
C911 H927 0.961 . S
C912 C913 1.370 . S
C912 C914 1.363 . S
C912 H928 0.931 . S
C913 C912 1.370 . S
C913 C917 1.408 . S
C914 C912 1.363 . S
C914 C915 1.370 . S
C914 C918 1.524 . S
C915 C907 1.503 . S
C915 C914 1.370 . S
C915 C916 1.403 . S
C916 C915 1.403 . S
C916 C917 1.404 . S
C916 C919 1.539 1_565 S
C917 C913 1.408 . S
C917 C916 1.404 . S
C917 H929 0.930 . S
C918 C914 1.524 . S
C918 H930 0.956 . S
C918 H931 0.965 . S
C918 H932 0.961 . S
C919 C916 1.539 1_545 S
C919 H933 0.958 1_545 S
C919 H934 0.961 . S
C919 H935 0.960 . S
H920 C904 0.931 . S
H921 C909 0.929 . S
H922 C910 0.960 . S
H923 C910 0.962 . S
H924 C910 0.960 . S
H925 C911 0.961 . S
H926 C911 0.961 . S
H927 C911 0.961 . S
H928 C912 0.931 . S
H929 C917 0.930 . S
H930 C918 0.956 . S
H931 C918 0.965 . S
H932 C918 0.961 . S
H933 C919 0.958 1_565 S
H934 C919 0.961 . S
H935 C919 0.960 . S
C936 C937 1.391 . S
C936 C938 1.394 . S
C936 H952 0.931 . S
C937 C936 1.391 . S
C937 C941 1.376 . S
C938 C936 1.394 . S
C938 C939 1.369 . S
C938 C942 1.531 . S
C939 C938 1.369 . S
C939 C940 1.410 . S
C939 C947 1.503 . S
C940 C939 1.410 . S
C940 C941 1.392 . S
C940 C943 1.511 . S
C941 C937 1.376 . S
C941 C940 1.392 . S
C941 H953 0.929 . S
C942 C938 1.531 . S
C942 H954 0.960 . S
C942 H955 0.962 . S
C942 H956 0.960 . S
C943 C940 1.511 . S
C943 H957 0.961 . S
C943 H958 0.961 . S
C943 H959 0.961 . S
C944 C945 1.370 . S
C944 C946 1.363 . S
C944 H960 0.931 . S
C945 C944 1.370 . S
C945 C949 1.408 . S
C946 C944 1.363 . S
C946 C947 1.370 . S
C946 C950 1.524 . S
C947 C939 1.503 . S
C947 C946 1.370 . S
C947 C948 1.403 . S
C948 C947 1.403 . S
C948 C949 1.404 . S
C948 C951 1.539 . S
C949 C945 1.408 . S
C949 C948 1.404 . S
C949 H961 0.930 . S
C950 C946 1.524 . S
C950 H962 0.956 . S
C950 H963 0.961 . S
C950 H964 0.961 . S
C951 C948 1.539 . S
C951 H965 0.958 . S
C951 H966 0.961 . S
C951 H967 0.960 . S
H952 C936 0.931 . S
H953 C941 0.929 . S
H954 C942 0.960 . S
H955 C942 0.962 . S
H956 C942 0.960 . S
H957 C943 0.961 . S
H958 C943 0.961 . S
H959 C943 0.961 . S
H960 C944 0.931 . S
H961 C949 0.930 . S
H962 C950 0.956 . S
H963 C950 0.961 . S
H964 C950 0.961 . S
H965 C951 0.958 . S
H966 C951 0.961 . S
H967 C951 0.960 . S
C968 C969 1.391 . S
C968 C970 1.394 . S
C968 H984 0.931 . S
C969 C968 1.391 . S
C969 C973 1.376 . S
C970 C968 1.394 . S
C970 C971 1.369 . S
C970 C974 1.531 . S
C971 C970 1.369 . S
C971 C972 1.410 . S
C971 C979 1.503 . S
C972 C971 1.410 . S
C972 C973 1.392 . S
C972 C975 1.511 . S
C973 C969 1.376 . S
C973 C972 1.392 . S
C973 H985 0.929 . S
C974 C970 1.531 . S
C974 H986 0.960 . S
C974 H987 0.962 . S
C974 H988 0.960 . S
C975 C972 1.511 . S
C975 H989 0.961 . S
C975 H990 0.961 . S
C975 H991 0.961 . S
C976 C977 1.370 . S
C976 C978 1.363 . S
C976 H992 0.931 . S
C977 C976 1.370 . S
C977 C981 1.408 . S
C978 C976 1.363 . S
C978 C979 1.370 . S
C978 C982 1.524 . S
C979 C971 1.503 . S
C979 C978 1.370 . S
C979 C980 1.403 . S
C980 C979 1.403 . S
C980 C981 1.404 . S
C980 C983 1.539 . S
C981 C977 1.408 . S
C981 C980 1.404 . S
C981 H993 0.930 . S
C982 C978 1.524 . S
C982 H994 0.956 . S
C982 H995 0.961 . S
C982 H996 0.961 . S
C983 C980 1.539 . S
C983 H997 0.958 . S
C983 H998 0.961 . S
C983 H999 0.960 . S
H984 C968 0.931 . S
H985 C973 0.929 . S
H986 C974 0.960 . S
H987 C974 0.962 . S
H988 C974 0.960 . S
H989 C975 0.961 . S
H990 C975 0.961 . S
H991 C975 0.961 . S
H992 C976 0.931 . S
H993 C981 0.930 . S
H994 C982 0.956 . S
H995 C982 0.961 . S
H996 C982 0.961 . S
H997 C983 0.958 . S
H998 C983 0.961 . S
H999 C983 0.960 . S
C233 C61 1.815 . S
C241 C74 1.938 . S
C273 C114 1.960 . S
C265 C70 1.856 . S
C305 C154 1.968 . S
C297 C43 1.794 . S
C337 C194 1.952 1_455 S
C329 C52 1.785 . S
C369 C87 1.940 . S
C361 C25 1.812 1_545 S
C393 C34 1.831 . S
C401 C127 1.968 . S
C425 C7 1.856 . S
C433 C167 1.968 . S
C457 C16 1.801 . S
C465 C207 1.959 1_655 S
C497 C98 0.429 . S
C489 C50 0.501 1_455 S
C529 C138 0.441 . S
C521 C59 0.515 1_545 S
C561 C178 0.486 . S
C553 C67 0.473 . S
C585 C41 0.382 . S
C593 C218 0.481 . S
C617 C14 0.504 . S
C625 C81 0.448 . S
C657 C121 0.462 . S
C649 C23 0.499 . S
C689 C161 0.467 . S
C681 C31 0.493 . S
C713 C5 0.403 . S
C721 C201 0.458 . S
C745 C49 2.069 1_455 S
C753 C75 2.290 . S
C777 C58 2.023 1_545 S
C785 C115 2.242 . S
C817 C155 2.222 . S
C809 C68 2.000 . S
C849 C195 2.267 . S
C841 C40 2.038 . S
C873 C13 2.000 . S
C881 C94 2.297 . S
C913 C134 2.240 . S
C905 C22 2.022 . S
C945 C174 2.226 . S
C937 C32 1.927 . S
C969 C4 2.044 . S
C977 C214 2.271 . S
