# Generated by pormake.
# Topology apo, (3,6)-cn, num edge types: 1
# Building blocks:
#     Node 0, Type 0, BuildingBlock: QEWDON_clean_linker_0, # of connection points: 3
#     Node 1, Type 0, BuildingBlock: QEWDON_clean_linker_0, # of connection points: 3
#     Node 2, Type 0, BuildingBlock: QEWDON_clean_linker_0, # of connection points: 3
#     Node 3, Type 0, BuildingBlock: QEWDON_clean_linker_0, # of connection points: 3
#     Node 4, Type 0, BuildingBlock: QEWDON_clean_linker_0, # of connection points: 3
#     Node 5, Type 0, BuildingBlock: QEWDON_clean_linker_0, # of connection points: 3
#     Node 6, Type 0, BuildingBlock: QEWDON_clean_linker_0, # of connection points: 3
#     Node 7, Type 0, BuildingBlock: QEWDON_clean_linker_0, # of connection points: 3
#     Node 8, Type 1, BuildingBlock: MIDCAF_clean_sbu_0, # of connection points: 6
#     Node 9, Type 1, BuildingBlock: MIDCAF_clean_sbu_0, # of connection points: 6
#     Node 10, Type 1, BuildingBlock: MIDCAF_clean_sbu_0, # of connection points: 6
#     Node 11, Type 1, BuildingBlock: MIDCAF_clean_sbu_0, # of connection points: 6
#     Edge 12, Type (0, 1), BuildingBlock: OJICUG_clean_linker_0, # of connection points: 2
#     Edge 13, Type (0, 1), BuildingBlock: OJICUG_clean_linker_0, # of connection points: 2
#     Edge 14, Type (0, 1), BuildingBlock: OJICUG_clean_linker_0, # of connection points: 2
#     Edge 15, Type (0, 1), BuildingBlock: OJICUG_clean_linker_0, # of connection points: 2
#     Edge 16, Type (0, 1), BuildingBlock: OJICUG_clean_linker_0, # of connection points: 2
#     Edge 17, Type (0, 1), BuildingBlock: OJICUG_clean_linker_0, # of connection points: 2
#     Edge 18, Type (0, 1), BuildingBlock: OJICUG_clean_linker_0, # of connection points: 2
#     Edge 19, Type (0, 1), BuildingBlock: OJICUG_clean_linker_0, # of connection points: 2
#     Edge 20, Type (0, 1), BuildingBlock: OJICUG_clean_linker_0, # of connection points: 2
#     Edge 21, Type (0, 1), BuildingBlock: OJICUG_clean_linker_0, # of connection points: 2
#     Edge 22, Type (0, 1), BuildingBlock: OJICUG_clean_linker_0, # of connection points: 2
#     Edge 23, Type (0, 1), BuildingBlock: OJICUG_clean_linker_0, # of connection points: 2
#     Edge 24, Type (0, 1), BuildingBlock: OJICUG_clean_linker_0, # of connection points: 2
#     Edge 25, Type (0, 1), BuildingBlock: OJICUG_clean_linker_0, # of connection points: 2
#     Edge 26, Type (0, 1), BuildingBlock: OJICUG_clean_linker_0, # of connection points: 2
#     Edge 27, Type (0, 1), BuildingBlock: OJICUG_clean_linker_0, # of connection points: 2
#     Edge 28, Type (0, 1), BuildingBlock: OJICUG_clean_linker_0, # of connection points: 2
#     Edge 29, Type (0, 1), BuildingBlock: OJICUG_clean_linker_0, # of connection points: 2
#     Edge 30, Type (0, 1), BuildingBlock: OJICUG_clean_linker_0, # of connection points: 2
#     Edge 31, Type (0, 1), BuildingBlock: OJICUG_clean_linker_0, # of connection points: 2
#     Edge 32, Type (0, 1), BuildingBlock: OJICUG_clean_linker_0, # of connection points: 2
#     Edge 33, Type (0, 1), BuildingBlock: OJICUG_clean_linker_0, # of connection points: 2
#     Edge 34, Type (0, 1), BuildingBlock: OJICUG_clean_linker_0, # of connection points: 2
#     Edge 35, Type (0, 1), BuildingBlock: OJICUG_clean_linker_0, # of connection points: 2
# Relax obj value: 0.009
# Max RMSD: 0.102
# Mean RMSD: 0.087
data_MOF--net-apo--node1-MIDCAF_clean_sbu_0--node2-QEWDON_clean_linker_0--edge1-OJICUG_clean_linker_0
_symmetry_space_group_name_H-M    P1
_symmetry_Int_Tables_number       1
_symmetry_cell_setting            triclinic
loop_
_symmetry_equiv_pos_as_xyz
'x, y, z'
_cell_length_a     28.988575
_cell_length_b     31.915626
_cell_length_c     24.668169
_cell_angle_alpha  90.072508
_cell_angle_beta   89.97502
_cell_angle_gamma 90.168593
loop_
_atom_site_label
_atom_site_type_symbol
_atom_site_fract_x
_atom_site_fract_y
_atom_site_fract_z
_atom_type_partial_charge
H0 H 0.32453 0.36809 0.32713 0.0
C1 C 0.33946 0.35624 0.36437 0.0
C2 C 0.38278 0.3709 0.38163 0.0
C3 C 0.31315 0.3295 0.3972 0.0
H4 H 0.43381 0.36738 0.44511 0.0
C5 C 0.40107 0.35543 0.43038 0.0
C6 C 0.37534 0.32817 0.46356 0.0
C7 C 0.33089 0.31586 0.44722 0.0
C8 C 0.26422 0.32277 0.38337 0.0
H9 H 0.30981 0.29671 0.4738 0.0
C10 C 0.25042 0.29067 0.34772 0.0
C11 C 0.20348 0.28594 0.33338 0.0
C12 C 0.23139 0.3508 0.40376 0.0
H13 H 0.24166 0.37601 0.43069 0.0
C14 C 0.1852 0.34686 0.3891 0.0
H15 H 0.27614 0.26944 0.33166 0.0
C16 C 0.17123 0.31469 0.35446 0.0
H17 H 0.13476 0.31155 0.34591 0.0
H18 H 0.15999 0.36851 0.40522 0.0
H19 H 0.19128 0.11101 0.83595 0.0
C20 C 0.17421 0.1215 0.87265 0.0
C21 C 0.13076 0.10508 0.88651 0.0
C22 C 0.19791 0.14812 0.90832 0.0
H23 H 0.07661 0.10554 0.94652 0.0
C24 C 0.10956 0.1188 0.93458 0.0
C25 C 0.13258 0.14603 0.97049 0.0
C26 C 0.17728 0.15993 0.95766 0.0
C27 C 0.24692 0.15747 0.89761 0.0
H28 H 0.19621 0.17927 0.98621 0.0
C29 C 0.26022 0.18494 0.85579 0.0
C30 C 0.30738 0.19212 0.84472 0.0
C31 C 0.28073 0.13646 0.92761 0.0
H32 H 0.27099 0.11482 0.95947 0.0
C33 C 0.3273 0.14256 0.91606 0.0
H34 H 0.23393 0.20105 0.83264 0.0
C35 C 0.34063 0.17019 0.87515 0.0
H36 H 0.37714 0.17557 0.86895 0.0
H37 H 0.35324 0.12624 0.9394 0.0
H38 H 0.82734 0.10917 0.72862 0.0
C39 C 0.8417 0.1213 0.69117 0.0
C40 C 0.88478 0.10702 0.67289 0.0
C41 C 0.8149 0.14808 0.65918 0.0
H42 H 0.93485 0.11117 0.60837 0.0
C43 C 0.90234 0.12286 0.6239 0.0
C44 C 0.87611 0.15016 0.59154 0.0
C45 C 0.83192 0.16217 0.60897 0.0
C46 C 0.76621 0.15441 0.6742 0.0
H47 H 0.81044 0.18134 0.58303 0.0
C48 C 0.75264 0.18772 0.70795 0.0
C49 C 0.70597 0.19216 0.72356 0.0
C50 C 0.73347 0.12489 0.65704 0.0
H51 H 0.74359 0.09875 0.63164 0.0
C52 C 0.68756 0.12859 0.6729 0.0
H53 H 0.77837 0.21002 0.72165 0.0
C54 C 0.67379 0.16196 0.70561 0.0
H55 H 0.63747 0.16475 0.7151 0.0
H56 H 0.6624 0.1058 0.65922 0.0
H57 H 0.68949 0.36952 0.21878 0.0
C58 C 0.67314 0.35871 0.18176 0.0
C59 C 0.62972 0.37446 0.16692 0.0
C60 C 0.69771 0.33236 0.14671 0.0
H61 H 0.57655 0.37303 0.10577 0.0
C62 C 0.60946 0.36031 0.11846 0.0
C63 C 0.63337 0.33334 0.08316 0.0
C64 C 0.67802 0.32014 0.09699 0.0
C65 C 0.74663 0.32372 0.15851 0.0
H66 H 0.69762 0.30103 0.06892 0.0
C67 C 0.75951 0.29596 0.20009 0.0
C68 C 0.80657 0.28913 0.21191 0.0
C69 C 0.7807 0.34551 0.12963 0.0
H70 H 0.77126 0.36737 0.09797 0.0
C71 C 0.82713 0.33983 0.142 0.0
H72 H 0.73298 0.27933 0.22239 0.0
C73 C 0.84008 0.31183 0.18255 0.0
H74 H 0.87655 0.30678 0.18925 0.0
H75 H 0.85328 0.35674 0.11949 0.0
H76 H 0.61331 0.65373 0.74339 0.0
C77 C 0.61799 0.65642 0.69993 0.0
C78 C 0.59936 0.62579 0.66538 0.0
C79 C 0.64312 0.69042 0.67875 0.0
H80 H 0.59255 0.60601 0.58215 0.0
C81 C 0.60628 0.62969 0.6093 0.0
C82 C 0.63028 0.66385 0.58724 0.0
C83 C 0.64878 0.69435 0.62217 0.0
C84 C 0.66342 0.72157 0.71632 0.0
H85 H 0.66706 0.72106 0.60551 0.0
C86 C 0.71123 0.7288 0.71677 0.0
C87 C 0.73111 0.75791 0.75316 0.0
C88 C 0.63522 0.74296 0.75327 0.0
H89 H 0.5983 0.73757 0.75385 0.0
C90 C 0.65441 0.7718 0.78939 0.0
H91 H 0.73279 0.71093 0.68939 0.0
C92 C 0.70187 0.77946 0.78926 0.0
H93 H 0.71535 0.80293 0.81676 0.0
H94 H 0.63235 0.78858 0.81734 0.0
H95 H 0.89338 0.82046 0.24102 0.0
C96 C 0.89186 0.81904 0.19713 0.0
C97 C 0.91062 0.8517 0.16617 0.0
C98 C 0.87101 0.78449 0.17166 0.0
H99 H 0.9221 0.87491 0.08535 0.0
C100 C 0.90793 0.84956 0.10946 0.0
C101 C 0.88723 0.81526 0.08326 0.0
C102 C 0.86898 0.78244 0.11464 0.0
C103 C 0.85159 0.7506 0.20523 0.0
H104 H 0.85337 0.75553 0.09494 0.0
C105 C 0.80375 0.74746 0.21303 0.0
C106 C 0.78478 0.71524 0.24541 0.0
C107 C 0.88104 0.72225 0.23107 0.0
H108 H 0.91808 0.72463 0.22594 0.0
C109 C 0.86281 0.69045 0.26343 0.0
H110 H 0.78166 0.77054 0.19419 0.0
C111 C 0.81513 0.6867 0.27031 0.0
H112 H 0.80223 0.66074 0.29414 0.0
H113 H 0.88568 0.6683 0.2828 0.0
H114 H 0.10972 0.82554 0.30585 0.0
C115 C 0.1151 0.8229 0.34919 0.0
C116 C 0.09681 0.85334 0.38414 0.0
C117 C 0.14086 0.78921 0.3698 0.0
H118 H 0.09131 0.87315 0.4675 0.0
C119 C 0.10469 0.84958 0.44005 0.0
C120 C 0.12938 0.81575 0.46157 0.0
C121 C 0.1475 0.78543 0.42625 0.0
C122 C 0.16094 0.75831 0.3318 0.0
H123 H 0.16632 0.75899 0.44254 0.0
C124 C 0.20863 0.75063 0.33175 0.0
C125 C 0.22832 0.72162 0.29521 0.0
C126 C 0.13272 0.73749 0.29419 0.0
H127 H 0.09589 0.74316 0.2933 0.0
C128 C 0.15174 0.70882 0.25783 0.0
H129 H 0.23027 0.76805 0.35963 0.0
C130 C 0.19906 0.70071 0.25841 0.0
H131 H 0.21238 0.67736 0.23072 0.0
H132 H 0.12965 0.69251 0.22937 0.0
H133 H 0.39902 0.65811 0.80948 0.0
C134 C 0.39586 0.65949 0.85324 0.0
C135 C 0.41394 0.62716 0.88515 0.0
C136 C 0.37337 0.69359 0.87758 0.0
H137 H 0.42266 0.60424 0.96659 0.0
C138 C 0.4091 0.62931 0.94167 0.0
C139 C 0.38708 0.66329 0.96678 0.0
C140 C 0.3693 0.69567 0.93447 0.0
C141 C 0.35422 0.72689 0.84294 0.0
H142 H 0.35259 0.72229 0.95336 0.0
C143 C 0.30632 0.73066 0.83632 0.0
C144 C 0.28755 0.76223 0.80289 0.0
C145 C 0.38387 0.75395 0.81486 0.0
H146 H 0.42094 0.75107 0.81905 0.0
C147 C 0.36584 0.78514 0.78155 0.0
H148 H 0.28404 0.70846 0.85679 0.0
C149 C 0.31815 0.78954 0.77583 0.0
H150 H 0.30549 0.81502 0.75112 0.0
H151 H 0.3889 0.80632 0.7605 0.0
Zn152 Zn 0.05205 0.09761 0.36214 0.0
Zn153 Zn 0.94486 0.0975 0.1987 0.0
Zn154 Zn 0.99991 0.10339 0.27963 0.0
C155 C 0.02603 0.13865 0.16249 0.0
C156 C 0.95935 0.01712 0.22256 0.0
O157 O 0.96177 0.13454 0.3473 0.0
O158 O 0.01452 0.13204 0.41173 0.0
C159 C 0.10275 0.14253 0.28755 0.0
O160 O 0.03872 0.13301 0.21201 0.0
O161 O 0.98636 0.127 0.14742 0.0
O162 O 0.93607 0.03723 0.18837 0.0
O163 O 0.98443 0.03659 0.25777 0.0
O164 O 0.10772 0.12356 0.33198 0.0
O165 O 0.06441 0.13915 0.26128 0.0
O166 O 0.01406 0.0366 0.30132 0.0
O167 O 0.05451 0.03736 0.37732 0.0
C168 C 0.03477 0.01716 0.34008 0.0
O169 O 0.93692 0.14145 0.29785 0.0
O170 O 0.89231 0.12851 0.2272 0.0
C171 C 0.97482 0.1428 0.39617 0.0
C172 C 0.89887 0.14705 0.27168 0.0
Zn173 Zn 0.55465 0.38104 0.68989 0.0
Zn174 Zn 0.44899 0.38194 0.85456 0.0
Zn175 Zn 0.50309 0.37574 0.77313 0.0
C176 C 0.46523 0.46225 0.83131 0.0
C177 C 0.40122 0.3333 0.7821 0.0
O178 O 0.56745 0.34016 0.79126 0.0
O179 O 0.61022 0.35509 0.71975 0.0
C180 C 0.53812 0.46161 0.71147 0.0
O181 O 0.48851 0.44261 0.7947 0.0
O182 O 0.443 0.44229 0.86673 0.0
O183 O 0.3949 0.3527 0.826 0.0
O184 O 0.43955 0.3379 0.75605 0.0
O185 O 0.55758 0.44123 0.67427 0.0
O186 O 0.51748 0.44236 0.75056 0.0
O187 O 0.46419 0.34435 0.70615 0.0
O188 O 0.51638 0.34651 0.64101 0.0
C189 C 0.47672 0.3359 0.65717 0.0
O190 O 0.54198 0.34617 0.8407 0.0
O191 O 0.48927 0.35074 0.90509 0.0
C192 C 0.60553 0.33656 0.76454 0.0
C193 C 0.52905 0.33964 0.88999 0.0
Zn194 Zn 0.04438 0.86635 0.85651 0.0
Zn195 Zn 0.97606 0.86894 0.68448 0.0
Zn196 Zn 0.00982 0.86708 0.772 0.0
C197 C 0.96332 0.9483 0.72103 0.0
C198 C 0.92007 0.81517 0.73734 0.0
O199 O 0.07672 0.83202 0.76692 0.0
O200 O 0.08091 0.8147 0.85295 0.0
C201 C 0.06089 0.94521 0.8235 0.0
O202 O 0.99355 0.93424 0.75467 0.0
O203 O 0.94575 0.92404 0.6864 0.0
O204 O 0.93354 0.82125 0.68939 0.0
O205 O 0.94265 0.83216 0.77679 0.0
O206 O 0.0808 0.91867 0.85303 0.0
O207 O 0.02694 0.9335 0.79328 0.0
O208 O 0.96065 0.83675 0.83062 0.0
O209 O 0.99052 0.86502 0.90436 0.0
C210 C 0.95871 0.84437 0.88196 0.0
O211 O 0.05936 0.8372 0.71324 0.0
O212 O 0.02956 0.86161 0.63728 0.0
C213 C 0.09666 0.81161 0.80549 0.0
C214 C 0.06127 0.84224 0.6614 0.0
Zn215 Zn 0.54084 0.6122 0.19417 0.0
Zn216 Zn 0.4726 0.60991 0.36704 0.0
Zn217 Zn 0.50632 0.61147 0.27878 0.0
C218 C 0.55787 0.63786 0.38915 0.0
C219 C 0.46037 0.53002 0.33118 0.0
O220 O 0.45739 0.64166 0.21993 0.0
O221 O 0.48696 0.613 0.14635 0.0
C222 C 0.59339 0.66704 0.24482 0.0
O223 O 0.55621 0.64162 0.33711 0.0
O224 O 0.52587 0.61925 0.41397 0.0
O225 O 0.44341 0.55413 0.36632 0.0
O226 O 0.48983 0.54431 0.29662 0.0
O227 O 0.5775 0.66405 0.19741 0.0
O228 O 0.57344 0.64653 0.28341 0.0
O229 O 0.5232 0.54504 0.25787 0.0
O230 O 0.57718 0.56006 0.19817 0.0
C231 C 0.55726 0.53348 0.2278 0.0
O232 O 0.43931 0.64632 0.27372 0.0
O233 O 0.42919 0.65654 0.36113 0.0
C234 C 0.45532 0.63379 0.16865 0.0
C235 C 0.41628 0.66288 0.31306 0.0
C236 C 0.03519 0.90797 0.39324 0.0
C237 C 0.07181 0.89063 0.36321 0.0
H238 H 0.9945 0.96261 0.40906 0.0
C239 C 0.08822 0.91244 0.3175 0.0
H240 H 0.02069 0.89146 0.42762 0.0
C241 C 0.07181 0.95262 0.30583 0.0
C242 C 0.03924 0.9715 0.33995 0.0
H243 H 0.11635 0.9001 0.29347 0.0
H244 H 0.08765 0.97033 0.27328 0.0
C245 C 0.01963 0.94838 0.38227 0.0
C246 C 0.47427 0.57111 0.88462 0.0
C247 C 0.43535 0.58952 0.8604 0.0
H248 H 0.51486 0.51545 0.89331 0.0
C249 C 0.41318 0.56836 0.81766 0.0
H250 H 0.4926 0.58704 0.91693 0.0
C251 C 0.42659 0.52771 0.80359 0.0
C252 C 0.46235 0.50797 0.8319 0.0
H253 H 0.38305 0.58165 0.79834 0.0
H254 H 0.40651 0.51046 0.77395 0.0
C255 C 0.4874 0.53044 0.87079 0.0
C256 C 0.53779 0.57067 0.65777 0.0
C257 C 0.57489 0.58827 0.68687 0.0
H258 H 0.49681 0.51578 0.64317 0.0
C259 C 0.59214 0.56662 0.73217 0.0
H260 H 0.52267 0.58705 0.62374 0.0
C261 C 0.57597 0.52636 0.74434 0.0
C262 C 0.54277 0.50726 0.71115 0.0
H263 H 0.62067 0.57916 0.75547 0.0
H264 H 0.59237 0.50879 0.77654 0.0
C265 C 0.52243 0.53018 0.66925 0.0
C266 C 0.90536 0.91121 0.23198 0.0
C267 C 0.93043 0.88965 0.19202 0.0
H268 H 0.89589 0.96954 0.27381 0.0
C269 C 0.97103 0.90785 0.17128 0.0
H270 H 0.87386 0.89804 0.24845 0.0
C271 C 0.98361 0.94857 0.186 0.0
C272 C 0.95598 0.9714 0.22193 0.0
H273 H 0.99133 0.89162 0.14097 0.0
H274 H 0.01279 0.96332 0.16618 0.0
C275 C 0.91796 0.952 0.24659 0.0
C276 C 0.87856 0.03566 0.71344 0.0
C277 C 0.90662 0.06973 0.69842 0.0
H278 H 0.87527 0.97058 0.73316 0.0
C279 C 0.95496 0.06496 0.70049 0.0
H280 H 0.84132 0.03767 0.71155 0.0
C281 C 0.9745 0.02595 0.71314 0.0
C282 C 0.94584 -0.0086 0.72352 0.0
H283 H 0.97752 0.0907 0.68953 0.0
H284 H 0.01156 0.02209 0.71083 0.0
C285 C 0.89797 -0.00301 0.7256 0.0
C286 C 0.63979 0.44491 0.20913 0.0
C287 C 0.61021 0.41157 0.19542 0.0
H288 H 0.64567 0.50948 0.23083 0.0
C289 C 0.56223 0.41705 0.20169 0.0
H290 H 0.67679 0.44227 0.20415 0.0
C291 C 0.54431 0.45608 0.21738 0.0
C292 C 0.57419 0.49006 0.2263 0.0
H293 H 0.53857 0.39186 0.19178 0.0
H294 H 0.50728 0.46047 0.21849 0.0
C295 C 0.62197 0.48365 0.22412 0.0
C296 C 0.45249 0.41333 0.3523 0.0
C297 C 0.40419 0.40824 0.35538 0.0
H298 H 0.50888 0.45655 0.34063 0.0
C299 C 0.37588 0.44209 0.34078 0.0
H300 H 0.47525 0.38778 0.36292 0.0
C301 C 0.39506 0.48086 0.32808 0.0
C302 C 0.44295 0.48678 0.32916 0.0
H303 H 0.33867 0.43983 0.34343 0.0
H304 H 0.37221 0.5071 0.32088 0.0
C305 C 0.47179 0.45244 0.33909 0.0
C306 C 0.14228 0.03484 0.8444 0.0
C307 C 0.11213 0.06775 0.85748 0.0
H308 H 0.14916 0.97038 0.82268 0.0
C309 C 0.06433 0.06164 0.85012 0.0
H310 H 0.17915 0.03798 0.85022 0.0
C311 C 0.04707 0.0224 0.83396 0.0
C312 C 0.07743 0.98883 0.82564 0.0
H313 H 0.04025 0.08649 0.85955 0.0
H314 H 0.01011 0.01752 0.83202 0.0
C315 C 0.1251 -0.00412 0.82892 0.0
C316 C 0.1312 0.14336 0.07247 0.0
C317 C 0.11065 0.15582 1.02338 0.0
H318 H 0.12031 0.12876 0.15664 0.0
C319 C 0.06541 0.17117 1.0242 0.0
H320 H 0.16607 0.13126 0.07277 0.0
C321 C 0.03957 0.1701 0.07186 0.0
C322 C 0.0582 0.15324 0.11973 0.0
H323 H 0.04896 0.18127 0.98702 0.0
H324 H 1.00366 0.17934 0.0701 0.0
C325 C 0.10508 0.14209 0.1205 0.0
C326 C 0.43778 0.29878 0.52104 0.0
C327 C 0.39409 0.31726 0.51764 0.0
H328 H 0.49764 0.28853 0.56959 0.0
C329 C 0.37336 0.33275 0.5652 0.0
H330 H 0.45437 0.28652 0.485 0.0
C331 C 0.39831 0.33409 0.61404 0.0
C332 C 0.44421 0.32005 0.61556 0.0
H333 H 0.33973 0.34739 0.56343 0.0
H334 H 0.38346 0.35001 0.64869 0.0
C335 C 0.46246 0.29991 0.56956 0.0
C336 C 0.63329 0.33635 0.98121 0.0
C337 C 0.61243 0.32312 0.02985 0.0
H338 H 0.62305 0.35128 0.89705 0.0
C339 C 0.5676 0.30662 0.02815 0.0
H340 H 0.66785 0.34934 0.9816 0.0
C341 C 0.54233 0.30733 0.98008 0.0
C342 C 0.56111 0.32503 0.93271 0.0
H343 H 0.55093 0.29594 0.06498 0.0
H344 H 0.50661 0.29726 0.98118 0.0
C345 C 0.60774 0.33729 0.93279 0.0
C346 C 0.87265 0.14574 0.48996 0.0
C347 C 0.89403 0.16134 0.5371 0.0
H348 H 0.88164 0.12844 0.40632 0.0
C349 C 0.93768 0.18002 0.53284 0.0
H350 H 0.83904 0.13094 0.49241 0.0
C351 C 0.96173 0.17893 0.48387 0.0
C352 C 0.94286 0.15866 0.43826 0.0
H353 H 0.95477 0.19235 0.56855 0.0
H354 H 0.99694 0.19042 0.48315 0.0
C355 C 0.89695 0.14446 0.44065 0.0
C356 C 0.91389 0.7825 0.99667 0.0
C357 C 0.88853 0.81389 1.02312 0.0
H358 H 0.95544 0.76733 0.9274 0.0
C359 C 0.87479 0.84934 0.99349 0.0
H360 H 0.92516 0.75503 1.01869 0.0
C361 C 0.8919 0.85623 0.94127 0.0
C362 C 0.92268 0.82766 0.91784 0.0
H363 H 0.85507 0.87393 1.01295 0.0
H364 H 0.88568 0.88623 0.92212 0.0
C365 C 0.93097 0.78942 0.94423 0.0
C366 C 0.64573 0.6339 0.49574 0.0
C367 C 0.63095 0.66801 0.52737 0.0
H368 H 0.63461 0.59822 0.42327 0.0
C369 C 0.60404 0.69922 0.50292 0.0
H370 H 0.66639 0.60936 0.5138 0.0
C371 C 0.58607 0.69289 0.45081 0.0
C372 C 0.59503 0.65547 0.42271 0.0
H373 H 0.59184 0.72559 0.52656 0.0
H374 H 0.56019 0.71442 0.43585 0.0
C375 C 0.62779 0.62763 0.44372 0.0
C376 C 0.37237 0.62937 0.05617 0.0
C377 C 0.38678 0.66487 0.02693 0.0
H378 H 0.38225 0.59218 0.12741 0.0
C379 C 0.412 0.69618 0.05398 0.0
H380 H 0.35281 0.60482 0.03621 0.0
C381 C 0.42841 0.68906 0.10663 0.0
C382 C 0.41964 0.6507 0.1326 0.0
H383 H 0.42381 0.72367 0.03226 0.0
H384 H 0.45286 0.71107 0.12394 0.0
C385 C 0.38886 0.62227 0.10858 0.0
C386 C 0.14683 0.84623 0.55227 0.0
C387 C 0.13143 0.81184 0.52142 0.0
H388 H 0.1372 0.88221 0.62472 0.0
C389 C 0.10521 0.78054 0.54701 0.0
H390 H 0.16698 0.87084 0.53334 0.0
C391 C 0.08843 0.78698 0.59966 0.0
C392 C 0.09785 0.82465 0.62709 0.0
H393 H 0.09256 0.75395 0.52399 0.0
H394 H 0.06297 0.76533 0.61563 0.0
C395 C 0.13004 0.85262 0.60478 0.0
C396 C 0.14674 0.25101 0.26988 0.0
C397 C 0.18666 0.24863 0.30247 0.0
H398 H 0.08853 0.21787 0.23731 0.0
C399 C 0.20535 0.20891 0.31312 0.0
H400 H 0.13235 0.28111 0.25895 0.0
C401 C 0.1809 0.17273 0.29919 0.0
C402 C 0.13698 0.17558 0.27526 0.0
H403 H 0.23617 0.2055 0.33745 0.0
H404 H 0.1937 0.14283 0.3134 0.0
C405 C 0.12198 0.21469 0.25643 0.0
C406 C 0.36436 0.22261 0.77816 0.0
C407 C 0.32273 0.22616 0.80739 0.0
H408 H 0.42216 0.25532 0.74405 0.0
C409 C 0.30092 0.26539 0.80936 0.0
H410 H 0.38132 0.19257 0.77423 0.0
C411 C 0.32391 0.30115 0.79091 0.0
C412 C 0.36921 0.29831 0.77084 0.0
H413 H 0.26869 0.26944 0.83091 0.0
H414 H 0.30881 0.33151 0.79926 0.0
C415 C 0.38746 0.25853 0.75984 0.0
C416 C 0.70763 0.26984 0.73939 0.0
C417 C 0.68926 0.23035 0.75256 0.0
H418 H 0.69592 0.33577 0.73615 0.0
C419 C 0.64986 0.2287 0.78616 0.0
H420 H 0.73805 0.27275 0.71421 0.0
C421 C 0.62519 0.26524 0.79826 0.0
C422 C 0.63984 0.30384 0.77717 0.0
H423 H 0.63578 0.19889 0.79912 0.0
H424 H 0.59209 0.26243 0.81836 0.0
C425 C 0.68335 0.30624 0.75208 0.0
C426 C 0.79935 0.21555 0.24627 0.0
C427 C 0.8216 0.25468 0.24872 0.0
H428 H 0.80645 0.14933 0.25539 0.0
C429 C 0.86331 0.25777 0.27793 0.0
H430 H 0.76705 0.21177 0.22476 0.0
C431 C 0.88607 0.22159 0.29553 0.0
C432 C 0.86733 0.182 0.28397 0.0
H433 H 0.88059 0.28771 0.2824 0.0
H434 H 0.92085 0.22448 0.3112 0.0
C435 C 0.82193 0.17955 0.26415 0.0
C436 C 0.80563 0.76582 0.70212 0.0
C437 C 0.78164 0.76736 0.75158 0.0
H438 H 0.86803 0.77789 0.65955 0.0
C439 C 0.80592 0.78016 0.7984 0.0
H440 H 0.78852 0.7569 0.66488 0.0
C441 C 0.85195 0.7936 0.79498 0.0
C442 C 0.87493 0.79387 0.7449 0.0
H443 H 0.78915 0.78078 0.83761 0.0
H444 H 0.86871 0.80528 0.83101 0.0
C445 C 0.85159 0.77835 0.69902 0.0
C446 C 0.70474 0.71999 0.20658 0.0
C447 C 0.73368 0.70965 0.25026 0.0
H448 H 0.63759 0.71646 0.17191 0.0
C449 C 0.71356 0.69107 0.29654 0.0
H450 H 0.71838 0.73382 0.16989 0.0
C451 C 0.66677 0.67983 0.29699 0.0
C452 C 0.63891 0.68768 0.25163 0.0
H453 H 0.73423 0.68371 0.33178 0.0
H454 H 0.65331 0.66284 0.3314 0.0
C455 C 0.65804 0.70964 0.20758 0.0
C456 C 0.30201 0.71241 0.34727 0.0
C457 C 0.27863 0.7116 0.29741 0.0
H458 H 0.36366 0.69949 0.39062 0.0
C459 C 0.30324 0.69901 0.25078 0.0
H460 H 0.28459 0.72112 0.38439 0.0
C461 C 0.34902 0.68518 0.2547 0.0
C462 C 0.37139 0.68429 0.30512 0.0
H463 H 0.28694 0.6989 0.21131 0.0
H464 H 0.36606 0.67376 0.21876 0.0
C465 C 0.34771 0.6995 0.3509 0.0
C466 C 0.20802 0.75922 0.84355 0.0
C467 C 0.2365 0.76838 0.79894 0.0
H468 H 0.1414 0.76377 0.87933 0.0
C469 C 0.21602 0.78613 0.75242 0.0
H470 H 0.22192 0.74612 0.88048 0.0
C471 C 0.16937 0.79765 0.75247 0.0
C472 C 0.14199 0.79087 0.79858 0.0
H473 H 0.23627 0.79255 0.7165 0.0
H474 H 0.15564 0.81392 0.71769 0.0
C475 C 0.16145 0.76977 0.84304 0.0
loop_
_geom_bond_atom_site_label_1
_geom_bond_atom_site_label_2
_geom_bond_distance
_geom_bond_site_symmetry_2
_ccdc_geom_bond_type
H0 C1 0.949 . S
C1 H0 0.949 . S
C1 C2 1.395 . S
C1 C3 1.391 . S
C2 C1 1.395 . S
C2 C5 1.390 . S
C3 C1 1.391 . S
C3 C7 1.387 . S
C3 C8 1.491 . S
H4 C5 0.950 . S
C5 C2 1.390 . S
C5 H4 0.950 . S
C5 C6 1.378 . S
C6 C5 1.378 . S
C6 C7 1.409 . S
C7 C3 1.387 . S
C7 C6 1.409 . S
C7 H9 0.951 . S
C8 C3 1.491 . S
C8 C10 1.382 . S
C8 C12 1.404 . S
H9 C7 0.951 . S
C10 C8 1.382 . S
C10 C11 1.390 . S
C10 H15 0.949 . S
C11 C10 1.390 . S
C11 C16 1.399 . S
C12 C8 1.404 . S
C12 H13 0.950 . S
C12 C14 1.375 . S
H13 C12 0.950 . S
C14 C12 1.375 . S
C14 C16 1.382 . S
C14 H18 0.950 . S
H15 C10 0.949 . S
C16 C11 1.399 . S
C16 C14 1.382 . S
C16 H17 0.952 . S
H17 C16 0.952 . S
H18 C14 0.950 . S
H19 C20 0.949 . S
C20 H19 0.949 . S
C20 C21 1.395 . S
C20 C22 1.391 . S
C21 C20 1.395 . S
C21 C24 1.390 . S
C22 C20 1.391 . S
C22 C26 1.387 . S
C22 C27 1.491 . S
H23 C24 0.950 . S
C24 C21 1.390 . S
C24 H23 0.950 . S
C24 C25 1.378 . S
C25 C24 1.378 . S
C25 C26 1.409 . S
C26 C22 1.387 . S
C26 C25 1.409 . S
C26 H28 0.951 . S
C27 C22 1.491 . S
C27 C29 1.382 . S
C27 C31 1.404 . S
H28 C26 0.951 . S
C29 C27 1.382 . S
C29 C30 1.390 . S
C29 H34 0.949 . S
C30 C29 1.390 . S
C30 C35 1.399 . S
C31 C27 1.404 . S
C31 H32 0.950 . S
C31 C33 1.375 . S
H32 C31 0.950 . S
C33 C31 1.375 . S
C33 C35 1.382 . S
C33 H37 0.950 . S
H34 C29 0.949 . S
C35 C30 1.399 . S
C35 C33 1.382 . S
C35 H36 0.952 . S
H36 C35 0.952 . S
H37 C33 0.950 . S
H38 C39 0.949 . S
C39 H38 0.949 . S
C39 C40 1.395 . S
C39 C41 1.391 . S
C40 C39 1.395 . S
C40 C43 1.390 . S
C41 C39 1.391 . S
C41 C45 1.387 . S
C41 C46 1.491 . S
H42 C43 0.950 . S
C43 C40 1.390 . S
C43 H42 0.950 . S
C43 C44 1.378 . S
C44 C43 1.378 . S
C44 C45 1.409 . S
C45 C41 1.387 . S
C45 C44 1.409 . S
C45 H47 0.951 . S
C46 C41 1.491 . S
C46 C48 1.382 . S
C46 C50 1.404 . S
H47 C45 0.951 . S
C48 C46 1.382 . S
C48 C49 1.390 . S
C48 H53 0.949 . S
C49 C48 1.390 . S
C49 C54 1.399 . S
C50 C46 1.404 . S
C50 H51 0.950 . S
C50 C52 1.375 . S
H51 C50 0.950 . S
C52 C50 1.375 . S
C52 C54 1.382 . S
C52 H56 0.950 . S
H53 C48 0.949 . S
C54 C49 1.399 . S
C54 C52 1.382 . S
C54 H55 0.952 . S
H55 C54 0.952 . S
H56 C52 0.950 . S
H57 C58 0.949 . S
C58 H57 0.949 . S
C58 C59 1.395 . S
C58 C60 1.391 . S
C59 C58 1.395 . S
C59 C62 1.390 . S
C60 C58 1.391 . S
C60 C64 1.387 . S
C60 C65 1.491 . S
H61 C62 0.950 . S
C62 C59 1.390 . S
C62 H61 0.950 . S
C62 C63 1.378 . S
C63 C62 1.378 . S
C63 C64 1.409 . S
C64 C60 1.387 . S
C64 C63 1.409 . S
C64 H66 0.951 . S
C65 C60 1.491 . S
C65 C67 1.382 . S
C65 C69 1.404 . S
H66 C64 0.951 . S
C67 C65 1.382 . S
C67 C68 1.390 . S
C67 H72 0.949 . S
C68 C67 1.390 . S
C68 C73 1.399 . S
C69 C65 1.404 . S
C69 H70 0.950 . S
C69 C71 1.375 . S
H70 C69 0.950 . S
C71 C69 1.375 . S
C71 C73 1.382 . S
C71 H75 0.950 . S
H72 C67 0.949 . S
C73 C68 1.399 . S
C73 C71 1.382 . S
C73 H74 0.952 . S
H74 C73 0.952 . S
H75 C71 0.950 . S
H76 C77 0.949 . S
C77 H76 0.949 . S
C77 C78 1.395 . S
C77 C79 1.391 . S
C78 C77 1.395 . S
C78 C81 1.390 . S
C79 C77 1.391 . S
C79 C83 1.387 . S
C79 C84 1.491 . S
H80 C81 0.950 . S
C81 C78 1.390 . S
C81 H80 0.950 . S
C81 C82 1.378 . S
C82 C81 1.378 . S
C82 C83 1.409 . S
C83 C79 1.387 . S
C83 C82 1.409 . S
C83 H85 0.951 . S
C84 C79 1.491 . S
C84 C86 1.382 . S
C84 C88 1.404 . S
H85 C83 0.951 . S
C86 C84 1.382 . S
C86 C87 1.390 . S
C86 H91 0.949 . S
C87 C86 1.390 . S
C87 C92 1.399 . S
C88 C84 1.404 . S
C88 H89 0.950 . S
C88 C90 1.375 . S
H89 C88 0.950 . S
C90 C88 1.375 . S
C90 C92 1.382 . S
C90 H94 0.950 . S
H91 C86 0.949 . S
C92 C87 1.399 . S
C92 C90 1.382 . S
C92 H93 0.952 . S
H93 C92 0.952 . S
H94 C90 0.950 . S
H95 C96 0.949 . S
C96 H95 0.949 . S
C96 C97 1.395 . S
C96 C98 1.391 . S
C97 C96 1.395 . S
C97 C100 1.390 . S
C98 C96 1.391 . S
C98 C102 1.387 . S
C98 C103 1.491 . S
H99 C100 0.950 . S
C100 C97 1.390 . S
C100 H99 0.950 . S
C100 C101 1.378 . S
C101 C100 1.378 . S
C101 C102 1.409 . S
C102 C98 1.387 . S
C102 C101 1.409 . S
C102 H104 0.951 . S
C103 C98 1.491 . S
C103 C105 1.382 . S
C103 C107 1.404 . S
H104 C102 0.951 . S
C105 C103 1.382 . S
C105 C106 1.390 . S
C105 H110 0.949 . S
C106 C105 1.390 . S
C106 C111 1.399 . S
C107 C103 1.404 . S
C107 H108 0.950 . S
C107 C109 1.375 . S
H108 C107 0.950 . S
C109 C107 1.375 . S
C109 C111 1.382 . S
C109 H113 0.950 . S
H110 C105 0.949 . S
C111 C106 1.399 . S
C111 C109 1.382 . S
C111 H112 0.952 . S
H112 C111 0.952 . S
H113 C109 0.950 . S
H114 C115 0.949 . S
C115 H114 0.949 . S
C115 C116 1.395 . S
C115 C117 1.391 . S
C116 C115 1.395 . S
C116 C119 1.390 . S
C117 C115 1.391 . S
C117 C121 1.387 . S
C117 C122 1.491 . S
H118 C119 0.950 . S
C119 C116 1.390 . S
C119 H118 0.950 . S
C119 C120 1.378 . S
C120 C119 1.378 . S
C120 C121 1.409 . S
C121 C117 1.387 . S
C121 C120 1.409 . S
C121 H123 0.951 . S
C122 C117 1.491 . S
C122 C124 1.382 . S
C122 C126 1.404 . S
H123 C121 0.951 . S
C124 C122 1.382 . S
C124 C125 1.390 . S
C124 H129 0.949 . S
C125 C124 1.390 . S
C125 C130 1.399 . S
C126 C122 1.404 . S
C126 H127 0.950 . S
C126 C128 1.375 . S
H127 C126 0.950 . S
C128 C126 1.375 . S
C128 C130 1.382 . S
C128 H132 0.950 . S
H129 C124 0.949 . S
C130 C125 1.399 . S
C130 C128 1.382 . S
C130 H131 0.952 . S
H131 C130 0.952 . S
H132 C128 0.950 . S
H133 C134 0.949 . S
C134 H133 0.949 . S
C134 C135 1.395 . S
C134 C136 1.391 . S
C135 C134 1.395 . S
C135 C138 1.390 . S
C136 C134 1.391 . S
C136 C140 1.387 . S
C136 C141 1.491 . S
H137 C138 0.950 . S
C138 C135 1.390 . S
C138 H137 0.950 . S
C138 C139 1.378 . S
C139 C138 1.378 . S
C139 C140 1.409 . S
C140 C136 1.387 . S
C140 C139 1.409 . S
C140 H142 0.951 . S
C141 C136 1.491 . S
C141 C143 1.382 . S
C141 C145 1.404 . S
H142 C140 0.951 . S
C143 C141 1.382 . S
C143 C144 1.390 . S
C143 H148 0.949 . S
C144 C143 1.390 . S
C144 C149 1.399 . S
C145 C141 1.404 . S
C145 H146 0.950 . S
C145 C147 1.375 . S
H146 C145 0.950 . S
C147 C145 1.375 . S
C147 C149 1.382 . S
C147 H151 0.950 . S
H148 C143 0.949 . S
C149 C144 1.399 . S
C149 C147 1.382 . S
C149 H150 0.952 . S
H150 C149 0.952 . S
H151 C147 0.950 . S
Zn152 O158 1.920 1_455 S
Zn152 O164 1.898 . S
Zn152 O167 1.905 . S
Zn153 O161 1.905 1_655 S
Zn153 O162 1.898 . S
Zn153 O170 1.920 . S
Zn154 O157 2.080 1_455 S
Zn154 O160 2.114 . S
Zn154 O163 2.120 1_455 S
Zn154 O165 2.120 . S
Zn154 O166 2.114 . S
Zn154 O169 2.080 1_455 S
C155 O160 1.166 . S
C155 O161 1.182 . S
C156 O162 1.167 . S
C156 O163 1.299 . S
O157 Zn154 2.080 1_655 S
O157 C171 1.305 . S
O158 Zn152 1.920 1_655 S
O158 C171 1.234 . S
C159 O164 1.167 . S
C159 O165 1.299 . S
O160 Zn154 2.114 . S
O160 C155 1.166 . S
O161 Zn153 1.905 1_455 S
O161 C155 1.182 . S
O162 Zn153 1.898 . S
O162 C156 1.167 . S
O163 Zn154 2.120 1_655 S
O163 C156 1.299 . S
O164 Zn152 1.898 . S
O164 C159 1.167 . S
O165 Zn154 2.120 . S
O165 C159 1.299 . S
O166 Zn154 2.114 . S
O166 C168 1.166 . S
O167 Zn152 1.905 . S
O167 C168 1.182 . S
C168 O166 1.166 . S
C168 O167 1.182 . S
O169 Zn154 2.080 1_655 S
O169 C172 1.305 . S
O170 Zn153 1.920 . S
O170 C172 1.234 . S
C171 O157 1.305 . S
C171 O158 1.234 . S
C172 O169 1.305 . S
C172 O170 1.234 . S
Zn173 O179 1.920 . S
Zn173 O185 1.898 . S
Zn173 O188 1.905 . S
Zn174 O182 1.905 . S
Zn174 O183 1.898 . S
Zn174 O191 1.920 . S
Zn175 O178 2.080 . S
Zn175 O181 2.114 . S
Zn175 O184 2.120 . S
Zn175 O186 2.120 . S
Zn175 O187 2.114 . S
Zn175 O190 2.080 . S
C176 O181 1.166 . S
C176 O182 1.182 . S
C177 O183 1.167 . S
C177 O184 1.299 . S
O178 Zn175 2.080 . S
O178 C192 1.305 . S
O179 Zn173 1.920 . S
O179 C192 1.234 . S
C180 O185 1.167 . S
C180 O186 1.299 . S
O181 Zn175 2.114 . S
O181 C176 1.166 . S
O182 Zn174 1.905 . S
O182 C176 1.182 . S
O183 Zn174 1.898 . S
O183 C177 1.167 . S
O184 Zn175 2.120 . S
O184 C177 1.299 . S
O185 Zn173 1.898 . S
O185 C180 1.167 . S
O186 Zn175 2.120 . S
O186 C180 1.299 . S
O187 Zn175 2.114 . S
O187 C189 1.166 . S
O188 Zn173 1.905 . S
O188 C189 1.182 . S
C189 O187 1.166 . S
C189 O188 1.182 . S
O190 Zn175 2.080 . S
O190 C193 1.305 . S
O191 Zn174 1.920 . S
O191 C193 1.234 . S
C192 O178 1.305 . S
C192 O179 1.234 . S
C193 O190 1.305 . S
C193 O191 1.234 . S
Zn194 O200 1.920 . S
Zn194 O206 1.898 . S
Zn194 O209 1.905 1_455 S
Zn195 O203 1.905 . S
Zn195 O204 1.898 . S
Zn195 O212 1.920 1_655 S
Zn196 O199 2.093 . S
Zn196 O202 2.100 1_455 S
Zn196 O205 2.108 1_455 S
Zn196 O207 2.134 . S
Zn196 O208 2.103 1_455 S
Zn196 O211 2.091 . S
C197 O202 1.166 . S
C197 O203 1.182 . S
C198 O204 1.167 . S
C198 O205 1.299 . S
O199 Zn196 2.093 . S
O199 C213 1.305 . S
O200 Zn194 1.920 . S
O200 C213 1.234 . S
C201 O206 1.167 . S
C201 O207 1.299 . S
O202 Zn196 2.100 1_655 S
O202 C197 1.166 . S
O203 Zn195 1.905 . S
O203 C197 1.182 . S
O204 Zn195 1.898 . S
O204 C198 1.167 . S
O205 Zn196 2.108 1_655 S
O205 C198 1.299 . S
O206 Zn194 1.898 . S
O206 C201 1.167 . S
O207 Zn196 2.134 . S
O207 C201 1.299 . S
O208 Zn196 2.103 1_655 S
O208 C210 1.166 . S
O209 Zn194 1.905 1_655 S
O209 C210 1.182 . S
C210 O208 1.166 . S
C210 O209 1.182 . S
O211 Zn196 2.091 . S
O211 C214 1.305 . S
O212 Zn195 1.920 1_455 S
O212 C214 1.234 . S
C213 O199 1.305 . S
C213 O200 1.234 . S
C214 O211 1.305 . S
C214 O212 1.234 . S
Zn215 O221 1.920 . S
Zn215 O227 1.898 . S
Zn215 O230 1.905 . S
Zn216 O224 1.905 . S
Zn216 O225 1.898 . S
Zn216 O233 1.920 . S
Zn217 O220 2.080 . S
Zn217 O223 2.114 . S
Zn217 O226 2.120 . S
Zn217 O228 2.120 . S
Zn217 O229 2.114 . S
Zn217 O232 2.080 . S
C218 O223 1.166 . S
C218 O224 1.182 . S
C219 O225 1.167 . S
C219 O226 1.299 . S
O220 Zn217 2.080 . S
O220 C234 1.305 . S
O221 Zn215 1.920 . S
O221 C234 1.234 . S
C222 O227 1.167 . S
C222 O228 1.299 . S
O223 Zn217 2.114 . S
O223 C218 1.166 . S
O224 Zn216 1.905 . S
O224 C218 1.182 . S
O225 Zn216 1.898 . S
O225 C219 1.167 . S
O226 Zn217 2.120 . S
O226 C219 1.299 . S
O227 Zn215 1.898 . S
O227 C222 1.167 . S
O228 Zn217 2.120 . S
O228 C222 1.299 . S
O229 Zn217 2.114 . S
O229 C231 1.166 . S
O230 Zn215 1.905 . S
O230 C231 1.182 . S
C231 O229 1.166 . S
C231 O230 1.182 . S
O232 Zn217 2.080 . S
O232 C235 1.305 . S
O233 Zn216 1.920 . S
O233 C235 1.234 . S
C234 O220 1.305 . S
C234 O221 1.234 . S
C235 O232 1.305 . S
C235 O233 1.234 . S
C236 C237 1.387 . S
C236 H240 0.950 . S
C236 C245 1.390 . S
C237 C236 1.387 . S
C237 C239 1.387 . S
H238 C245 0.950 . S
C239 C237 1.387 . S
C239 C241 1.390 . S
C239 H243 0.950 . S
H240 C236 0.950 . S
C241 C239 1.390 . S
C241 C242 1.387 . S
C241 H244 0.950 . S
C242 C241 1.387 . S
C242 C245 1.387 . S
H243 C239 0.950 . S
H244 C241 0.950 . S
C245 C236 1.390 . S
C245 H238 0.950 . S
C245 C242 1.387 . S
C246 C247 1.387 . S
C246 H250 0.950 . S
C246 C255 1.390 . S
C247 C246 1.387 . S
C247 C249 1.387 . S
H248 C255 0.950 . S
C249 C247 1.387 . S
C249 C251 1.390 . S
C249 H253 0.950 . S
H250 C246 0.950 . S
C251 C249 1.390 . S
C251 C252 1.387 . S
C251 H254 0.950 . S
C252 C251 1.387 . S
C252 C255 1.387 . S
H253 C249 0.950 . S
H254 C251 0.950 . S
C255 C246 1.390 . S
C255 H248 0.950 . S
C255 C252 1.387 . S
C256 C257 1.387 . S
C256 H260 0.950 . S
C256 C265 1.390 . S
C257 C256 1.387 . S
C257 C259 1.387 . S
H258 C265 0.950 . S
C259 C257 1.387 . S
C259 C261 1.390 . S
C259 H263 0.950 . S
H260 C256 0.950 . S
C261 C259 1.390 . S
C261 C262 1.387 . S
C261 H264 0.950 . S
C262 C261 1.387 . S
C262 C265 1.387 . S
H263 C259 0.950 . S
H264 C261 0.950 . S
C265 C256 1.390 . S
C265 H258 0.950 . S
C265 C262 1.387 . S
C266 C267 1.387 . S
C266 H270 0.950 . S
C266 C275 1.390 . S
C267 C266 1.387 . S
C267 C269 1.387 . S
H268 C275 0.950 1_545 S
C269 C267 1.387 . S
C269 C271 1.390 . S
C269 H273 0.950 . S
H270 C266 0.950 . S
C271 C269 1.390 . S
C271 C272 1.387 . S
C271 H274 0.950 . S
C272 C271 1.387 . S
C272 C275 1.387 . S
H273 C269 0.950 . S
H274 C271 0.950 . S
C275 C266 1.390 . S
C275 H268 0.950 1_565 S
C275 C272 1.387 . S
C276 C277 1.387 . S
C276 H280 0.950 . S
C276 C285 1.390 . S
C277 C276 1.387 . S
C277 C279 1.387 . S
H278 C285 0.950 1_565 S
C279 C277 1.387 . S
C279 C281 1.390 . S
C279 H283 0.950 . S
H280 C276 0.950 . S
C281 C279 1.390 . S
C281 C282 1.387 . S
C281 H284 0.950 . S
C282 C281 1.387 . S
C282 C285 1.387 . S
H283 C279 0.950 . S
H284 C281 0.950 . S
C285 C276 1.390 . S
C285 H278 0.950 1_545 S
C285 C282 1.387 . S
C286 C287 1.387 . S
C286 H290 0.950 . S
C286 C295 1.390 . S
C287 C286 1.387 . S
C287 C289 1.387 . S
H288 C295 0.950 . S
C289 C287 1.387 . S
C289 C291 1.390 . S
C289 H293 0.950 . S
H290 C286 0.950 . S
C291 C289 1.390 . S
C291 C292 1.387 . S
C291 H294 0.950 . S
C292 C291 1.387 . S
C292 C295 1.387 . S
H293 C289 0.950 . S
H294 C291 0.950 . S
C295 C286 1.390 . S
C295 H288 0.950 . S
C295 C292 1.387 . S
C296 C297 1.387 . S
C296 H300 0.950 . S
C296 C305 1.390 . S
C297 C296 1.387 . S
C297 C299 1.387 . S
H298 C305 0.950 . S
C299 C297 1.387 . S
C299 C301 1.390 . S
C299 H303 0.950 . S
H300 C296 0.950 . S
C301 C299 1.390 . S
C301 C302 1.387 . S
C301 H304 0.950 . S
C302 C301 1.387 . S
C302 C305 1.387 . S
H303 C299 0.950 . S
H304 C301 0.950 . S
C305 C296 1.390 . S
C305 H298 0.950 . S
C305 C302 1.387 . S
C306 C307 1.387 . S
C306 H310 0.950 . S
C306 C315 1.390 . S
C307 C306 1.387 . S
C307 C309 1.387 . S
H308 C315 0.953 . S
C309 C307 1.387 . S
C309 C311 1.390 . S
C309 H313 0.950 . S
H310 C306 0.950 . S
C311 C309 1.390 . S
C311 C312 1.387 . S
C311 H314 0.950 . S
C312 C311 1.387 . S
C312 C315 1.387 . S
H313 C309 0.950 . S
H314 C311 0.950 . S
C315 C306 1.390 . S
C315 H308 0.953 . S
C315 C312 1.387 . S
C316 C317 1.387 . S
C316 H320 0.950 . S
C316 C325 1.390 . S
C317 C316 1.387 . S
C317 C319 1.387 . S
H318 C325 0.950 . S
C319 C317 1.387 . S
C319 C321 1.390 . S
C319 H323 0.950 . S
H320 C316 0.950 . S
C321 C319 1.390 . S
C321 C322 1.387 . S
C321 H324 0.950 . S
C322 C321 1.387 . S
C322 C325 1.387 . S
H323 C319 0.950 . S
H324 C321 0.950 . S
C325 C316 1.390 . S
C325 H318 0.950 . S
C325 C322 1.387 . S
C326 C327 1.387 . S
C326 H330 0.950 . S
C326 C335 1.390 . S
C327 C326 1.387 . S
C327 C329 1.387 . S
H328 C335 0.950 . S
C329 C327 1.387 . S
C329 C331 1.390 . S
C329 H333 0.950 . S
H330 C326 0.950 . S
C331 C329 1.390 . S
C331 C332 1.387 . S
C331 H334 0.950 . S
C332 C331 1.387 . S
C332 C335 1.387 . S
H333 C329 0.950 . S
H334 C331 0.950 . S
C335 C326 1.390 . S
C335 H328 0.950 . S
C335 C332 1.387 . S
C336 C337 1.387 . S
C336 H340 0.950 1_556 S
C336 C345 1.390 . S
C337 C336 1.387 . S
C337 C339 1.387 . S
H338 C345 0.950 . S
C339 C337 1.387 . S
C339 C341 1.390 . S
C339 H343 0.950 . S
H340 C336 0.950 1_554 S
C341 C339 1.390 . S
C341 C342 1.387 . S
C341 H344 0.950 . S
C342 C341 1.387 . S
C342 C345 1.387 . S
H343 C339 0.950 . S
H344 C341 0.950 . S
C345 C336 1.390 . S
C345 H338 0.950 . S
C345 C342 1.387 . S
C346 C347 1.387 . S
C346 H350 0.950 . S
C346 C355 1.390 . S
C347 C346 1.387 . S
C347 C349 1.387 . S
H348 C355 0.950 . S
C349 C347 1.387 . S
C349 C351 1.390 . S
C349 H353 0.950 . S
H350 C346 0.950 . S
C351 C349 1.390 . S
C351 C352 1.387 . S
C351 H354 0.950 . S
C352 C351 1.387 . S
C352 C355 1.387 . S
H353 C349 0.950 . S
H354 C351 0.950 . S
C355 C346 1.390 . S
C355 H348 0.950 . S
C355 C352 1.387 . S
C356 C357 1.387 . S
C356 H360 0.950 . S
C356 C365 1.390 . S
C357 C356 1.387 . S
C357 C359 1.387 . S
H358 C365 0.950 . S
C359 C357 1.387 . S
C359 C361 1.390 . S
C359 H363 0.950 . S
H360 C356 0.950 . S
C361 C359 1.390 . S
C361 C362 1.387 . S
C361 H364 0.950 . S
C362 C361 1.387 . S
C362 C365 1.387 . S
H363 C359 0.950 . S
H364 C361 0.950 . S
C365 C356 1.390 . S
C365 H358 0.950 . S
C365 C362 1.387 . S
C366 C367 1.387 . S
C366 H370 0.950 . S
C366 C375 1.390 . S
C367 C366 1.387 . S
C367 C369 1.387 . S
H368 C375 0.950 . S
C369 C367 1.387 . S
C369 C371 1.390 . S
C369 H373 0.950 . S
H370 C366 0.950 . S
C371 C369 1.390 . S
C371 C372 1.387 . S
C371 H374 0.950 . S
C372 C371 1.387 . S
C372 C375 1.387 . S
H373 C369 0.950 . S
H374 C371 0.950 . S
C375 C366 1.390 . S
C375 H368 0.950 . S
C375 C372 1.387 . S
C376 C377 1.387 . S
C376 H380 0.950 1_554 S
C376 C385 1.390 . S
C377 C376 1.387 . S
C377 C379 1.387 . S
H378 C385 0.950 . S
C379 C377 1.387 . S
C379 C381 1.390 . S
C379 H383 0.950 . S
H380 C376 0.950 1_556 S
C381 C379 1.390 . S
C381 C382 1.387 . S
C381 H384 0.950 . S
C382 C381 1.387 . S
C382 C385 1.387 . S
H383 C379 0.950 . S
H384 C381 0.950 . S
C385 C376 1.390 . S
C385 H378 0.950 . S
C385 C382 1.387 . S
C386 C387 1.387 . S
C386 H390 0.950 . S
C386 C395 1.390 . S
C387 C386 1.387 . S
C387 C389 1.387 . S
H388 C395 0.950 . S
C389 C387 1.387 . S
C389 C391 1.390 . S
C389 H393 0.950 . S
H390 C386 0.950 . S
C391 C389 1.390 . S
C391 C392 1.387 . S
C391 H394 0.950 . S
C392 C391 1.387 . S
C392 C395 1.387 . S
H393 C389 0.950 . S
H394 C391 0.950 . S
C395 C386 1.390 . S
C395 H388 0.950 . S
C395 C392 1.387 . S
C396 C397 1.387 . S
C396 H400 0.950 . S
C396 C405 1.390 . S
C397 C396 1.387 . S
C397 C399 1.387 . S
H398 C405 0.950 . S
C399 C397 1.387 . S
C399 C401 1.390 . S
C399 H403 0.950 . S
H400 C396 0.950 . S
C401 C399 1.390 . S
C401 C402 1.387 . S
C401 H404 0.950 . S
C402 C401 1.387 . S
C402 C405 1.387 . S
H403 C399 0.950 . S
H404 C401 0.950 . S
C405 C396 1.390 . S
C405 H398 0.950 . S
C405 C402 1.387 . S
C406 C407 1.387 . S
C406 H410 0.950 . S
C406 C415 1.390 . S
C407 C406 1.387 . S
C407 C409 1.387 . S
H408 C415 0.950 . S
C409 C407 1.387 . S
C409 C411 1.390 . S
C409 H413 0.950 . S
H410 C406 0.950 . S
C411 C409 1.390 . S
C411 C412 1.387 . S
C411 H414 0.950 . S
C412 C411 1.387 . S
C412 C415 1.387 . S
H413 C409 0.950 . S
H414 C411 0.950 . S
C415 C406 1.390 . S
C415 H408 0.950 . S
C415 C412 1.387 . S
C416 C417 1.387 . S
C416 H420 0.950 . S
C416 C425 1.390 . S
C417 C416 1.387 . S
C417 C419 1.387 . S
H418 C425 0.950 . S
C419 C417 1.387 . S
C419 C421 1.390 . S
C419 H423 0.950 . S
H420 C416 0.950 . S
C421 C419 1.390 . S
C421 C422 1.387 . S
C421 H424 0.950 . S
C422 C421 1.387 . S
C422 C425 1.387 . S
H423 C419 0.950 . S
H424 C421 0.950 . S
C425 C416 1.390 . S
C425 H418 0.950 . S
C425 C422 1.387 . S
C426 C427 1.387 . S
C426 H430 0.950 . S
C426 C435 1.390 . S
C427 C426 1.387 . S
C427 C429 1.387 . S
H428 C435 0.950 . S
C429 C427 1.387 . S
C429 C431 1.390 . S
C429 H433 0.950 . S
H430 C426 0.950 . S
C431 C429 1.390 . S
C431 C432 1.387 . S
C431 H434 0.950 . S
C432 C431 1.387 . S
C432 C435 1.387 . S
H433 C429 0.950 . S
H434 C431 0.950 . S
C435 C426 1.390 . S
C435 H428 0.950 . S
C435 C432 1.387 . S
C436 C437 1.387 . S
C436 H440 0.950 . S
C436 C445 1.390 . S
C437 C436 1.387 . S
C437 C439 1.387 . S
H438 C445 0.950 . S
C439 C437 1.387 . S
C439 C441 1.390 . S
C439 H443 0.950 . S
H440 C436 0.950 . S
C441 C439 1.390 . S
C441 C442 1.387 . S
C441 H444 0.950 . S
C442 C441 1.387 . S
C442 C445 1.387 . S
H443 C439 0.950 . S
H444 C441 0.950 . S
C445 C436 1.390 . S
C445 H438 0.950 . S
C445 C442 1.387 . S
C446 C447 1.387 . S
C446 H450 0.950 . S
C446 C455 1.390 . S
C447 C446 1.387 . S
C447 C449 1.387 . S
H448 C455 0.950 . S
C449 C447 1.387 . S
C449 C451 1.390 . S
C449 H453 0.950 . S
H450 C446 0.950 . S
C451 C449 1.390 . S
C451 C452 1.387 . S
C451 H454 0.950 . S
C452 C451 1.387 . S
C452 C455 1.387 . S
H453 C449 0.950 . S
H454 C451 0.950 . S
C455 C446 1.390 . S
C455 H448 0.950 . S
C455 C452 1.387 . S
C456 C457 1.387 . S
C456 H460 0.950 . S
C456 C465 1.390 . S
C457 C456 1.387 . S
C457 C459 1.387 . S
H458 C465 0.950 . S
C459 C457 1.387 . S
C459 C461 1.390 . S
C459 H463 0.950 . S
H460 C456 0.950 . S
C461 C459 1.390 . S
C461 C462 1.387 . S
C461 H464 0.950 . S
C462 C461 1.387 . S
C462 C465 1.387 . S
H463 C459 0.950 . S
H464 C461 0.950 . S
C465 C456 1.390 . S
C465 H458 0.950 . S
C465 C462 1.387 . S
C466 C467 1.387 . S
C466 H470 0.950 . S
C466 C475 1.390 . S
C467 C466 1.387 . S
C467 C469 1.387 . S
H468 C475 0.950 . S
C469 C467 1.387 . S
C469 C471 1.390 . S
C469 H473 0.950 . S
H470 C466 0.950 . S
C471 C469 1.390 . S
C471 C472 1.387 . S
C471 H474 0.950 . S
C472 C471 1.387 . S
C472 C475 1.387 . S
H473 C469 0.950 . S
H474 C471 0.950 . S
C475 C466 1.390 . S
C475 H468 0.950 . S
C475 C472 1.387 . S
C237 C116 1.445 . S
C242 C168 1.401 1_565 S
C252 C176 1.404 . S
C247 C135 1.446 . S
C262 C180 1.394 . S
C257 C78 1.449 . S
C267 C97 1.446 . S
C272 C156 1.395 1_565 S
C282 C197 1.402 1_545 S
C277 C40 1.446 . S
C292 C231 1.404 . S
C287 C59 1.445 . S
C297 C2 1.446 . S
C302 C219 1.394 . S
C307 C21 1.447 . S
C312 C201 1.396 1_545 S
C322 C155 1.402 . S
C317 C25 1.541 1_554 S
C332 C189 1.398 . S
C327 C6 1.541 . S
C342 C193 1.395 . S
C337 C63 1.538 1_556 S
C352 C171 1.396 . S
C347 C44 1.538 . S
C362 C210 1.402 . S
C357 C101 1.544 1_556 S
C367 C82 1.544 . S
C372 C218 1.397 . S
C382 C234 1.391 . S
C377 C139 1.540 1_554 S
C387 C120 1.540 . S
C392 C214 1.391 . S
C402 C159 1.382 . S
C397 C11 1.374 . S
C412 C177 1.382 . S
C407 C30 1.375 . S
C417 C49 1.375 . S
C422 C192 1.387 . S
C432 C172 1.389 . S
C427 C68 1.374 . S
C442 C198 1.382 . S
C437 C87 1.424 . S
C447 C106 1.424 . S
C452 C222 1.382 . S
C457 C125 1.413 . S
C462 C235 1.389 . S
C467 C144 1.414 . S
C472 C213 1.386 . S
