# Generated by pormake.
# Topology zzz, (3,6)-cn, num edge types: 1
# Building blocks:
#     Node 0, Type 0, BuildingBlock: MIDCAF_clean_linker_0, # of connection points: 3
#     Node 1, Type 0, BuildingBlock: MIDCAF_clean_linker_0, # of connection points: 3
#     Node 2, Type 0, BuildingBlock: MIDCAF_clean_linker_0, # of connection points: 3
#     Node 3, Type 0, BuildingBlock: MIDCAF_clean_linker_0, # of connection points: 3
#     Node 4, Type 0, BuildingBlock: MIDCAF_clean_linker_0, # of connection points: 3
#     Node 5, Type 0, BuildingBlock: MIDCAF_clean_linker_0, # of connection points: 3
#     Node 6, Type 0, BuildingBlock: MIDCAF_clean_linker_0, # of connection points: 3
#     Node 7, Type 0, BuildingBlock: MIDCAF_clean_linker_0, # of connection points: 3
#     Node 8, Type 1, BuildingBlock: KUMBOL_clean_sbu_1, # of connection points: 6
#     Node 9, Type 1, BuildingBlock: KUMBOL_clean_sbu_1, # of connection points: 6
#     Node 10, Type 1, BuildingBlock: KUMBOL_clean_sbu_1, # of connection points: 6
#     Node 11, Type 1, BuildingBlock: KUMBOL_clean_sbu_1, # of connection points: 6
#     Edge 12, Type (0, 1), BuildingBlock: XIVTED_clean_linker_0, # of connection points: 2
#     Edge 13, Type (0, 1), BuildingBlock: XIVTED_clean_linker_0, # of connection points: 2
#     Edge 14, Type (0, 1), BuildingBlock: XIVTED_clean_linker_0, # of connection points: 2
#     Edge 15, Type (0, 1), BuildingBlock: XIVTED_clean_linker_0, # of connection points: 2
#     Edge 16, Type (0, 1), BuildingBlock: XIVTED_clean_linker_0, # of connection points: 2
#     Edge 17, Type (0, 1), BuildingBlock: XIVTED_clean_linker_0, # of connection points: 2
#     Edge 18, Type (0, 1), BuildingBlock: XIVTED_clean_linker_0, # of connection points: 2
#     Edge 19, Type (0, 1), BuildingBlock: XIVTED_clean_linker_0, # of connection points: 2
#     Edge 20, Type (0, 1), BuildingBlock: XIVTED_clean_linker_0, # of connection points: 2
#     Edge 21, Type (0, 1), BuildingBlock: XIVTED_clean_linker_0, # of connection points: 2
#     Edge 22, Type (0, 1), BuildingBlock: XIVTED_clean_linker_0, # of connection points: 2
#     Edge 23, Type (0, 1), BuildingBlock: XIVTED_clean_linker_0, # of connection points: 2
#     Edge 24, Type (0, 1), BuildingBlock: XIVTED_clean_linker_0, # of connection points: 2
#     Edge 25, Type (0, 1), BuildingBlock: XIVTED_clean_linker_0, # of connection points: 2
#     Edge 26, Type (0, 1), BuildingBlock: XIVTED_clean_linker_0, # of connection points: 2
#     Edge 27, Type (0, 1), BuildingBlock: XIVTED_clean_linker_0, # of connection points: 2
#     Edge 28, Type (0, 1), BuildingBlock: XIVTED_clean_linker_0, # of connection points: 2
#     Edge 29, Type (0, 1), BuildingBlock: XIVTED_clean_linker_0, # of connection points: 2
#     Edge 30, Type (0, 1), BuildingBlock: XIVTED_clean_linker_0, # of connection points: 2
#     Edge 31, Type (0, 1), BuildingBlock: XIVTED_clean_linker_0, # of connection points: 2
#     Edge 32, Type (0, 1), BuildingBlock: XIVTED_clean_linker_0, # of connection points: 2
#     Edge 33, Type (0, 1), BuildingBlock: XIVTED_clean_linker_0, # of connection points: 2
#     Edge 34, Type (0, 1), BuildingBlock: XIVTED_clean_linker_0, # of connection points: 2
#     Edge 35, Type (0, 1), BuildingBlock: XIVTED_clean_linker_0, # of connection points: 2
# Relax obj value: 0.315
# Max RMSD: 0.210
# Mean RMSD: 0.183
data_MOF--net-zzz--node1-KUMBOL_clean_sbu_1--node2-MIDCAF_clean_linker_0--edge1-XIVTED_clean_linker_0
_symmetry_space_group_name_H-M    P1
_symmetry_Int_Tables_number       1
_symmetry_cell_setting            triclinic
loop_
_symmetry_equiv_pos_as_xyz
'x, y, z'
_cell_length_a     56.654278
_cell_length_b     56.661813
_cell_length_c     21.025767
_cell_angle_alpha  89.966854
_cell_angle_beta   89.929558
_cell_angle_gamma 90.503505
loop_
_atom_site_label
_atom_site_type_symbol
_atom_site_fract_x
_atom_site_fract_y
_atom_site_fract_z
_atom_type_partial_charge
C0 C 0.80541 0.55853 0.36046 0.0
C1 C 0.82563 0.54549 0.34395 0.0
C2 C 0.82732 0.53673 0.28154 0.0
C3 C 0.80999 0.54174 0.23624 0.0
H4 H 0.71273 0.52855 0.16378 0.0
H5 H 0.67433 0.51969 0.11496 0.0
H6 H 0.66901 0.59251 0.05556 0.0
H7 H 0.70648 0.60119 0.10588 0.0
H8 H 0.75339 0.60193 0.99284 0.0
H9 H 0.77201 0.6068 0.88928 0.0
H10 H 0.83952 0.58957 0.97156 0.0
H11 H 0.82108 0.58484 0.07512 0.0
H12 H 0.77288 0.57406 0.32831 0.0
H13 H 0.80346 0.56545 0.40815 0.0
H14 H 0.84267 0.52688 0.26669 0.0
H15 H 0.81253 0.53571 0.18783 0.0
N16 N 0.75096 0.5613 0.19877 0.0
N17 N 0.74985 0.58081 0.1 0.0
N18 N 0.78602 0.57507 0.15002 0.0
C19 C 0.73831 0.56981 0.14825 0.0
C20 C 0.77356 0.58351 0.10011 0.0
C21 C 0.77502 0.56435 0.19991 0.0
C22 C 0.7126 0.56559 0.13906 0.0
C23 C 0.70276 0.54279 0.14277 0.0
C24 C 0.68094 0.53767 0.11351 0.0
C25 C 0.6685 0.55525 0.07989 0.0
C26 C 0.67764 0.57842 0.08106 0.0
C27 C 0.69928 0.58347 0.11015 0.0
C28 C 0.78564 0.59228 0.04206 0.0
C29 C 0.77232 0.59975 0.98934 0.0
C30 C 0.78296 0.6026 0.92987 0.0
C31 C 0.80712 0.59817 0.92199 0.0
C32 C 0.82085 0.59322 0.97601 0.0
C33 C 0.81022 0.59031 0.03549 0.0
C34 C 0.79014 0.55526 0.25207 0.0
C35 C 0.78773 0.56319 0.31507 0.0
C36 C 0.98268 0.80552 0.38536 0.0
C37 C 0.99196 0.82761 0.3657 0.0
C38 C 0.99559 0.83125 0.3002 0.0
C39 C 0.98928 0.81401 0.2558 0.0
H40 H 1.00506 0.719 0.16804 0.0
H41 H 0.01379 0.68182 0.11319 0.0
H42 H 0.93948 0.6721 0.07403 0.0
H43 H 0.93101 0.70862 0.12939 0.0
H44 H 0.94639 0.76619 1.00577 0.0
H45 H 0.94234 0.79372 0.91909 0.0
H46 H 0.91497 0.84593 0.04942 0.0
H47 H 0.92087 0.81859 0.13731 0.0
H48 H 0.96828 0.77175 0.35653 0.0
H49 H 0.97978 0.80193 0.43535 0.0
H50 H 1.00222 0.84798 0.28245 0.0
H51 H 0.99139 0.81805 0.2057 0.0
N52 N 0.97214 0.75381 0.21836 0.0
N53 N 0.94898 0.75366 0.12521 0.0
N54 N 0.95436 0.78869 0.18158 0.0
C55 C 0.96226 0.7418 0.16814 0.0
C56 C 0.94487 0.777 0.13161 0.0
C57 C 0.96778 0.77745 0.2254 0.0
C58 C 0.96734 0.71669 0.15341 0.0
C59 C 0.99059 0.70837 0.14992 0.0
C60 C 0.99558 0.68724 0.11742 0.0
C61 C 0.97739 0.67394 0.08808 0.0
C62 C 0.95401 0.68153 0.09612 0.0
C63 C 0.9491 0.70258 0.12805 0.0
C64 C 0.93467 0.79054 0.07852 0.0
C65 C 0.93883 0.7833 0.01572 0.0
C66 C 0.93633 0.79922 0.96559 0.0
C67 C 0.92916 0.82257 0.97715 0.0
C68 C 0.92158 0.8285 0.03894 0.0
C69 C 0.92474 0.81277 0.08937 0.0
C70 C 0.97915 0.79243 0.27495 0.0
C71 C 0.97642 0.78805 0.34038 0.0
C72 C 0.72191 0.97647 0.37222 0.0
C73 C 0.70634 0.99529 0.36093 0.0
C74 C 0.71148 0.01064 0.30978 0.0
C75 C 0.73064 1.00635 0.26888 0.0
H76 H 0.81498 0.02095 0.15679 0.0
H77 H 0.85169 0.0315 0.10075 0.0
H78 H 0.8669 0.95735 0.07732 0.0
H79 H 0.83125 0.94725 0.13464 0.0
H80 H 0.78326 0.93086 0.03446 0.0
H81 H 0.76306 0.91634 0.94004 0.0
H82 H 0.6959 0.92705 0.03294 0.0
H83 H 0.71596 0.94108 0.12723 0.0
H84 H 0.7516 0.95664 0.33884 0.0
H85 H 0.71891 0.96447 0.41156 0.0
H86 H 0.69987 0.02516 0.29884 0.0
H87 H 0.73308 0.01744 0.22735 0.0
N88 N 0.78295 0.98555 0.21568 0.0
N89 N 0.78541 0.95983 0.12812 0.0
N90 N 0.75035 0.96179 0.1859 0.0
C91 C 0.79571 0.97605 0.16668 0.0
C92 C 0.76283 0.95267 0.13683 0.0
C93 C 0.76018 0.97795 0.22578 0.0
C94 C 0.82028 0.98328 0.15047 0.0
C95 C 0.82676 1.00705 0.14186 0.0
C96 C 0.84762 0.01303 0.10858 0.0
C97 C 0.86238 0.99533 0.08332 0.0
C98 C 0.85646 0.97164 0.09624 0.0
C99 C 0.83583 0.96576 0.12925 0.0
C100 C 0.75118 0.93792 0.08771 0.0
C101 C 0.76419 0.92949 0.03544 0.0
C102 C 0.75263 0.92113 0.98119 0.0
C103 C 0.72787 0.92104 0.97818 0.0
C104 C 0.715 0.92679 0.03333 0.0
C105 C 0.72654 0.9351 0.08756 0.0
C106 C 0.74527 0.98678 0.27846 0.0
C107 C 0.74097 0.97219 0.33125 0.0
C108 C 0.59768 0.71415 0.05651 0.0
C109 C 0.59144 0.71818 0.9926 0.0
C110 C 0.58222 0.74035 0.97619 0.0
C111 C 0.57635 0.75661 0.02321 0.0
H112 H 0.5429 0.84078 0.20072 0.0
H113 H 0.53363 0.87563 0.13569 0.0
H114 H 0.50056 0.83043 0.9961 0.0
H115 H 0.50986 0.79599 0.06066 0.0
H116 H 0.50386 0.74776 0.28049 0.0
H117 H 0.49834 0.71592 0.35845 0.0
H118 H 0.57286 0.71866 0.4015 0.0
H119 H 0.57827 0.74957 0.32226 0.0
H120 H 0.59447 0.72567 0.15307 0.0
H121 H 0.60569 0.6977 0.07078 0.0
H122 H 0.57718 0.7444 0.9278 0.0
H123 H 0.56745 0.77259 1.00885 0.0
N124 N 0.55459 0.78421 0.12036 0.0
N125 N 0.5347 0.7846 0.21879 0.0
N126 N 0.56196 0.75466 0.19465 0.0
C127 C 0.53925 0.7947 0.16074 0.0
C128 C 0.54646 0.76452 0.23598 0.0
C129 C 0.56609 0.76431 0.13673 0.0
C130 C 0.52678 0.81571 0.13622 0.0
C131 C 0.53267 0.8385 0.15764 0.0
C132 C 0.52756 0.85842 0.12001 0.0
C133 C 0.51674 0.85579 0.06001 0.0
C134 C 0.50925 0.8331 0.04142 0.0
C135 C 0.51426 0.81337 0.07889 0.0
C136 C 0.54147 0.75128 0.2956 0.0
C137 C 0.51884 0.74208 0.30839 0.0
C138 C 0.51575 0.72367 0.35287 0.0
C139 C 0.53524 0.71415 0.38556 0.0
C140 C 0.5575 0.72488 0.37615 0.0
C141 C 0.56058 0.74295 0.33142 0.0
C142 C 0.5792 0.75094 0.08778 0.0
C143 C 0.59135 0.73026 0.10379 0.0
C144 C 0.20159 0.46641 0.99501 0.0
C145 C 0.20202 0.48672 0.95691 0.0
C146 C 0.22241 0.5012 0.95798 0.0
C147 C 0.24123 0.49623 0.99991 0.0
H148 H 0.31264 0.52008 0.15351 0.0
H149 H 0.35014 0.53016 0.20524 0.0
H150 H 0.3674 0.45609 0.21401 0.0
H151 H 0.33045 0.44643 0.16119 0.0
H152 H 0.2823 0.45169 0.3159 0.0
H153 H 0.26282 0.44989 0.41904 0.0
H154 H 0.19493 0.44826 0.32548 0.0
H155 H 0.21425 0.44936 0.22294 0.0
H156 H 0.21866 0.44587 0.06587 0.0
H157 H 0.18641 0.45464 0.99444 0.0
H158 H 0.22326 0.51697 0.92888 0.0
H159 H 0.25606 0.50836 1.00262 0.0
N160 N 0.27984 0.47997 0.0946 0.0
N161 N 0.28394 0.46531 0.19906 0.0
N162 N 0.24752 0.46276 0.14847 0.0
C163 C 0.29363 0.47561 0.14691 0.0
C164 C 0.26092 0.45896 0.20054 0.0
C165 C 0.25657 0.47295 0.09517 0.0
C166 C 0.31882 0.48251 0.15212 0.0
C167 C 0.3251 0.50615 0.16343 0.0
C168 C 0.3464 0.51183 0.1945 0.0
C169 C 0.36181 0.49394 0.2153 0.0
C170 C 0.35631 0.47046 0.19863 0.0
C171 C 0.33511 0.46486 0.16774 0.0
C172 C 0.24981 0.45148 0.26112 0.0
C173 C 0.26323 0.45025 0.31725 0.0
C174 C 0.25208 0.44927 0.37648 0.0
C175 C 0.22733 0.44955 0.38063 0.0
C176 C 0.21404 0.448 0.3243 0.0
C177 C 0.22516 0.44888 0.26517 0.0
C178 C 0.23993 0.47661 0.04098 0.0
C179 C 0.22021 0.46139 0.03598 0.0
C180 C 0.06836 0.20556 0.99755 0.0
C181 C 0.04867 0.20753 0.95736 0.0
C182 C 0.03369 0.22709 0.96585 0.0
C183 C 0.03816 0.24391 0.01397 0.0
H184 H 0.01489 0.30585 0.21569 0.0
H185 H 1.00691 0.3428 0.2708 0.0
H186 H 0.07361 0.37109 0.20436 0.0
H187 H 0.08167 0.33366 0.15115 0.0
H188 H 0.08816 0.28206 0.32912 0.0
H189 H 0.09423 0.26282 0.43125 0.0
H190 H 0.09164 0.1948 0.33848 0.0
H191 H 0.08614 0.21392 0.23666 0.0
H192 H 0.08778 0.21945 0.07616 0.0
H193 H 0.08016 0.1907 0.99346 0.0
H194 H 0.01844 0.22933 0.93555 0.0
H195 H 0.02605 0.25841 0.02015 0.0
N196 N 0.05315 0.27964 0.11506 0.0
N197 N 0.06876 0.28308 0.21849 0.0
N198 N 0.07275 0.24772 0.16299 0.0
C199 C 0.05727 0.2928 0.16865 0.0
C200 C 0.07652 0.26061 0.21638 0.0
C201 C 0.06132 0.25694 0.11189 0.0
C202 C 0.04859 0.31709 0.17765 0.0
C203 C 0.02726 0.32041 0.21034 0.0
C204 C 0.02284 0.34162 0.24255 0.0
C205 C 0.03976 0.36003 0.24323 0.0
C206 C 0.06034 0.35725 0.20626 0.0
C207 C 0.06476 0.33598 0.17437 0.0
C208 C 0.08595 0.24949 0.27483 0.0
C209 C 0.0895 0.26301 0.33024 0.0
C210 C 0.09299 0.252 0.38892 0.0
C211 C 0.09294 0.22726 0.39346 0.0
C212 C 0.0919 0.2139 0.33704 0.0
C213 C 0.08851 0.2249 0.27837 0.0
C214 C 0.05749 0.24134 0.05533 0.0
C215 C 0.07264 0.22209 0.04563 0.0
C216 C 0.30126 0.02939 0.94441 0.0
C217 C 0.31165 0.04543 0.90099 0.0
C218 C 0.30268 0.06849 0.89844 0.0
C219 C 0.28545 0.07588 0.94177 0.0
H220 H 0.20885 0.03449 0.11865 0.0
H221 H 0.17222 0.0263 0.17805 0.0
H222 H 0.17407 0.09714 0.25354 0.0
H223 H 0.21016 0.10519 0.19479 0.0
H224 H 0.27085 0.1024 0.26635 0.0
H225 H 0.30427 0.10915 0.3371 0.0
H226 H 0.35018 0.11668 0.17373 0.0
H227 H 0.31691 0.11097 0.10384 0.0
H228 H 0.27762 0.02462 0.02371 0.0
H229 H 0.30749 0.01141 0.94733 0.0
H230 H 0.31029 0.08144 0.86635 0.0
H231 H 0.28054 0.09433 0.9423 0.0
N232 N 0.24404 0.0652 0.0691 0.0
N233 N 0.25153 0.08892 0.15921 0.0
N234 N 0.28058 0.0847 0.0815 0.0
C235 C 0.23647 0.075 0.12515 0.0
C236 C 0.27361 0.09379 0.13784 0.0
C237 C 0.26617 0.07056 0.04678 0.0
C238 C 0.21251 0.07045 0.15211 0.0
C239 C 0.2011 0.04839 0.14692 0.0
C240 C 0.18025 0.04367 0.18146 0.0
C241 C 0.17015 0.06104 0.22095 0.0
C242 C 0.18106 0.08339 0.22335 0.0
C243 C 0.20193 0.08796 0.18981 0.0
C244 C 0.2914 0.10524 0.17947 0.0
C245 C 0.28793 0.10641 0.24561 0.0
C246 C 0.30715 0.11014 0.28624 0.0
C247 C 0.33013 0.11262 0.26137 0.0
C248 C 0.33288 0.11472 0.19509 0.0
C249 C 0.31372 0.11114 0.15465 0.0
C250 C 0.27638 0.06037 0.98812 0.0
C251 C 0.28379 0.03679 0.98745 0.0
C252 C 0.40181 0.31808 0.25396 0.0
C253 C 0.40848 0.31117 0.31573 0.0
C254 C 0.41437 0.2874 0.32604 0.0
C255 C 0.4175 0.27219 0.27467 0.0
H256 H 0.42111 0.19915 0.15864 0.0
H257 H 0.43161 0.1645 0.22072 0.0
H258 H 0.5054 0.18215 0.19952 0.0
H259 H 0.49474 0.21747 0.13754 0.0
H260 H 0.49391 0.27607 1.01106 0.0
H261 H 0.50626 0.30732 0.93636 0.0
H262 H 0.43406 0.33076 0.92411 0.0
H263 H 0.42199 0.29976 0.99694 0.0
H264 H 0.40279 0.30973 0.15467 0.0
H265 H 0.3961 0.33593 0.24456 0.0
H266 H 0.41938 0.28113 0.37269 0.0
H267 H 0.42439 0.25476 0.28411 0.0
N268 N 0.43468 0.24578 0.16838 0.0
N269 N 0.45767 0.24789 0.07504 0.0
N270 N 0.4344 0.28007 0.10739 0.0
C271 C 0.44964 0.23539 0.12681 0.0
C272 C 0.44946 0.27031 0.06467 0.0
C273 C 0.42709 0.26805 0.15954 0.0
C274 C 0.45709 0.21103 0.1429 0.0
C275 C 0.43964 0.19523 0.16517 0.0
C276 C 0.44563 0.17549 0.20134 0.0
C277 C 0.46928 0.17082 0.21597 0.0
C278 C 0.48699 0.18533 0.18893 0.0
C279 C 0.48094 0.2054 0.15287 0.0
C280 C 0.45696 0.28534 1.00984 0.0
C281 C 0.48068 0.2875 0.99076 0.0
C282 C 0.48776 0.30565 0.94862 0.0
C283 C 0.47122 0.32183 0.92411 0.0
C284 C 0.44736 0.31867 0.94092 0.0
C285 C 0.44041 0.30083 0.9831 0.0
C286 C 0.41517 0.28058 0.21208 0.0
C287 C 0.40554 0.30303 0.20234 0.0
C288 C 0.06794 0.04156 0.79506 0.0
C289 C 0.05078 0.03644 0.89969 0.0
C290 C 0.05163 0.03068 0.83451 0.0
C291 C 0.06561 0.05439 0.92345 0.0
C292 C 0.08395 0.05844 0.81938 0.0
C293 C 0.08221 0.06534 0.88336 0.0
N294 N 0.06909 0.03451 0.73356 0.0
C295 C 0.08716 0.04187 0.69511 0.0
C296 C 0.10171 0.06721 0.77916 0.0
C297 C 0.10357 0.05856 0.71708 0.0
Gd298 Gd 0.98859 0.03318 0.59088 0.0
Gd299 Gd 0.04031 1.00736 0.69951 0.0
N300 N 0.03808 0.01299 0.81025 0.0
C301 C 0.03584 0.02325 0.93946 0.0
C302 C 0.02524 0.99871 0.84978 0.0
C303 C 0.0234 1.00397 0.91459 0.0
H304 H 0.01654 0.98312 0.83146 0.0
H305 H 0.01266 0.99296 0.94542 0.0
H306 H 0.0095 0.02544 0.44467 0.0
H307 H 0.08847 0.03526 0.64702 0.0
H308 H 1.00407 0.99784 0.35428 0.0
H309 H 0.03465 0.02711 0.98982 0.0
H310 H 0.065 0.05928 0.97323 0.0
H311 H 0.94029 0.02543 0.68458 0.0
H312 H 0.1144 0.08017 0.79605 0.0
H313 H 0.11755 0.06483 0.6861 0.0
H314 H 0.94166 0.94579 0.42358 0.0
H315 H 0.09412 0.07855 0.90279 0.0
H316 H 0.90358 0.96358 0.62144 0.0
H317 H 0.90843 0.99613 0.69887 0.0
N318 N 0.95536 1.00812 0.60462 0.0
C319 C 0.95173 0.99161 0.55871 0.0
C320 C 0.93926 0.01064 0.65248 0.0
C321 C 0.91803 0.97607 0.61592 0.0
C322 C 0.92076 0.99435 0.65984 0.0
C323 C 0.93323 0.97489 0.56357 0.0
H324 H 0.91612 0.9449 0.51843 0.0
N325 N 0.98311 0.00891 0.5015 0.0
C326 C 0.96581 0.99225 0.50497 0.0
C327 C 0.97638 0.97793 0.40067 0.0
C328 C 0.96222 0.97601 0.45512 0.0
C329 C 0.99625 0.01163 0.44745 0.0
C330 C 0.99326 0.99602 0.3965 0.0
O331 O 0.03939 0.04718 0.68227 0.0
O332 O 0.99999 0.05534 0.67515 0.0
O333 O 0.98884 0.06139 0.52167 0.0
O334 O 0.95697 0.05402 0.57459 0.0
O335 O 1.00244 0.99999 0.73135 0.0
O336 O 0.98198 0.03256 0.69772 0.0
O337 O 0.0078 0.99911 0.56972 0.0
O338 O 0.01076 0.98316 0.66741 0.0
O339 O 0.06193 0.98196 0.74973 0.0
O340 O 0.06313 0.9837 0.6472 0.0
O341 O 0.02537 0.04399 0.55738 0.0
O342 O 0.05002 0.01489 0.59689 0.0
C343 C 0.02153 0.06143 0.6917 0.0
C344 C 0.98543 0.01545 0.73908 0.0
C345 C 0.96762 0.0939 0.55927 0.0
C346 C 0.98902 0.12938 0.59359 0.0
C347 C 0.94673 0.13068 0.57184 0.0
C348 C 0.94672 0.10679 0.5555 0.0
C349 C 0.96774 0.14204 0.58966 0.0
C350 C 0.98831 0.10499 0.58147 0.0
C351 C 0.96823 0.06907 0.53883 0.0
C352 C 0.94454 0.95861 0.46104 0.0
C353 C 0.93006 0.95806 0.51516 0.0
H354 H 0.97419 0.96577 0.36132 0.0
C355 C 0.00712 0.98049 0.60649 0.0
C356 C 0.04499 0.03154 0.55525 0.0
C357 C 0.06347 0.94623 0.69277 0.0
C358 C 0.03619 0.91322 0.70991 0.0
C359 C 0.07293 0.90748 0.65195 0.0
C360 C 0.07882 0.93129 0.66001 0.0
C361 C 0.0518 0.89843 0.67679 0.0
C362 C 0.04212 0.93721 0.71676 0.0
C363 C 0.06861 0.9716 0.6975 0.0
H364 H 0.93058 0.14066 0.56837 0.0
H365 H 0.93051 0.09846 0.53939 0.0
H366 H 0.96733 0.1609 0.59739 0.0
H367 H 1.00415 0.09466 0.58682 0.0
H368 H 0.08484 0.89596 0.62664 0.0
H369 H 0.09517 0.93809 0.64013 0.0
H370 H 0.04797 0.87979 0.67123 0.0
H371 H 0.02997 0.94904 0.74019 0.0
C372 C 0.47629 0.94258 0.64644 0.0
C373 C 0.43421 0.94716 0.66018 0.0
C374 C 0.45629 0.95603 0.6398 0.0
C375 C 0.43306 0.92546 0.69253 0.0
C376 C 0.475 0.91992 0.67386 0.0
C377 C 0.45346 0.91183 0.69935 0.0
N378 N 0.49654 0.95073 0.61984 0.0
C379 C 0.51557 0.93634 0.6131 0.0
C380 C 0.49504 0.90563 0.67156 0.0
C381 C 0.51523 0.91367 0.63961 0.0
Gd382 Gd 0.52426 0.03915 0.69801 0.0
Gd383 Gd 0.4967 0.98974 0.58265 0.0
N384 N 0.45806 0.97645 0.60648 0.0
C385 C 0.41388 0.95964 0.64384 0.0
C386 C 0.43816 0.98718 0.58443 0.0
C387 C 0.41583 0.97938 0.60427 0.0
H388 H 0.43956 1.00225 0.553 0.0
H389 H 0.40016 0.98853 0.58882 0.0
H390 H 0.55349 0.07711 0.60551 0.0
H391 H 0.53128 0.94279 0.58924 0.0
H392 H 0.55729 0.12031 0.59043 0.0
H393 H 0.39656 0.95346 0.65858 0.0
H394 H 0.41633 0.91853 0.70955 0.0
H395 H 0.50069 0.03121 0.84245 0.0
H396 H 0.49479 0.88808 0.69201 0.0
H397 H 0.53059 0.90252 0.63594 0.0
H398 H 0.51146 0.15281 0.76147 0.0
H399 H 0.45216 0.89462 0.72164 0.0
H400 H 0.48012 0.09845 0.91587 0.0
H401 H 0.48201 0.05499 0.92667 0.0
N402 N 0.50839 0.06077 0.78329 0.0
C403 C 0.50823 0.08457 0.77765 0.0
C404 C 0.49974 0.05013 0.83685 0.0
C405 C 0.48813 0.08807 0.87848 0.0
C406 C 0.48921 0.06355 0.8848 0.0
C407 C 0.49807 0.09893 0.82487 0.0
H408 H 0.49094 0.13496 0.85331 0.0
N409 N 0.53023 0.07997 0.68439 0.0
C410 C 0.51961 0.09454 0.7263 0.0
C411 C 0.53474 0.12859 0.66986 0.0
C412 C 0.5214 0.11926 0.7202 0.0
C413 C 0.54433 0.0889 0.63729 0.0
C414 C 0.54651 0.11331 0.62868 0.0
O415 O 0.51789 0.98008 0.67021 0.0
O416 O 0.5071 1.00702 0.74439 0.0
O417 O 0.55118 0.01337 0.71778 0.0
O418 O 0.55542 0.04916 0.75255 0.0
O419 O 0.4718 0.01778 0.62276 0.0
O420 O 0.48683 0.02804 0.72081 0.0
O421 O 0.51149 0.05494 0.60509 0.0
O422 O 0.49172 0.02669 0.5434 0.0
O423 O 0.48401 0.96882 0.5028 0.0
O424 O 0.51515 0.99054 0.4922 0.0
O425 O 0.54053 0.03192 0.60155 0.0
O426 O 0.53623 0.99212 0.59693 0.0
C427 C 0.51128 0.98504 0.72853 0.0
C428 C 0.46887 0.02423 0.68249 0.0
C429 C 0.58982 0.02779 0.72224 0.0
C430 C 0.62599 1.00474 0.71402 0.0
C431 C 0.62497 0.04545 0.6762 0.0
C432 C 0.60136 0.04727 0.69476 0.0
C433 C 0.63734 0.02452 0.68652 0.0
C434 C 0.60188 1.00651 0.72917 0.0
C435 C 0.56523 0.02863 0.74432 0.0
C436 C 0.51048 0.13376 0.76554 0.0
C437 C 0.49881 0.1236 0.81783 0.0
H438 H 0.53656 0.14749 0.6634 0.0
C439 C 0.49934 0.04841 0.5544 0.0
C440 C 0.54869 0.01125 0.58477 0.0
C441 C 0.4901 0.98796 0.40482 0.0
C442 C 0.46558 0.01753 0.35329 0.0
C443 C 0.49236 0.99343 0.29074 0.0
C444 C 0.4998 0.98192 0.34586 0.0
C445 C 0.47547 0.01123 0.29431 0.0
C446 C 0.47281 1.00549 0.40822 0.0
C447 C 0.49946 0.97761 0.46337 0.0
H448 H 0.6339 0.06052 0.65518 0.0
H449 H 0.59222 0.06376 0.68762 0.0
H450 H 0.65593 0.02428 0.6748 0.0
H451 H 0.59225 0.9914 0.74765 0.0
H452 H 0.49988 0.98872 0.24518 0.0
H453 H 0.51332 0.96857 0.34261 0.0
H454 H 0.46998 0.01984 0.25086 0.0
H455 H 0.46561 0.01028 0.45408 0.0
C456 C 0.45793 0.48898 0.78273 0.0
C457 C 0.47506 0.48487 0.8877 0.0
C458 C 0.47461 0.4959 0.82754 0.0
C459 C 0.45935 0.46616 0.90083 0.0
C460 C 0.4415 0.47087 0.79659 0.0
C461 C 0.44258 0.45921 0.85544 0.0
N462 N 0.45782 0.49998 0.72531 0.0
C463 C 0.44061 0.49528 0.68164 0.0
C464 C 0.42444 0.4651 0.75085 0.0
C465 C 0.42382 0.47756 0.69345 0.0
Gd466 Gd 0.54002 0.50228 0.60649 0.0
Gd467 Gd 0.48683 0.52899 0.70894 0.0
N468 N 0.48956 0.51412 0.81346 0.0
C469 C 0.49079 0.49347 0.93359 0.0
C470 C 0.5033 0.52388 0.86005 0.0
C471 C 0.50461 0.51336 0.92009 0.0
H472 H 0.51292 0.5401 0.85192 0.0
H473 H 0.51599 0.52086 0.95628 0.0
H474 H 0.52273 0.51511 0.45955 0.0
H475 H 0.44022 0.50491 0.63729 0.0
H476 H 0.53711 0.53784 0.36644 0.0
H477 H 0.49169 0.48549 0.98036 0.0
H478 H 0.45964 0.45733 0.94653 0.0
H479 H 0.58683 0.49626 0.7027 0.0
H480 H 0.41151 0.45128 0.75969 0.0
H481 H 0.41047 0.47347 0.65827 0.0
H482 H 0.61354 0.5664 0.43121 0.0
H483 H 0.43032 0.44503 0.86668 0.0
H484 H 0.64285 0.54035 0.63317 0.0
H485 H 0.62683 0.51318 0.71507 0.0
N486 N 0.57923 0.51567 0.61886 0.0
C487 C 0.5882 0.52941 0.57169 0.0
C488 C 0.59316 0.50902 0.66854 0.0
C489 C 0.62503 0.53347 0.62853 0.0
C490 C 0.61604 0.51819 0.67491 0.0
C491 C 0.61128 0.53882 0.57527 0.0
H492 H 0.63773 0.56015 0.52691 0.0
N493 N 0.55287 0.52301 0.51594 0.0
C494 C 0.5747 0.53289 0.518 0.0
C495 C 0.56982 0.54802 0.41143 0.0
C496 C 0.58373 0.54592 0.46611 0.0
C497 C 0.5397 0.5239 0.4616 0.0
C498 C 0.54781 0.53672 0.40892 0.0
O499 O 0.48902 0.48997 0.68199 0.0
O500 O 0.5279 0.48426 0.69621 0.0
O501 O 0.53026 0.47285 0.54691 0.0
O502 O 0.56503 0.47393 0.58914 0.0
O503 O 0.52382 0.53939 0.74238 0.0
O504 O 0.54531 0.50689 0.71313 0.0
O505 O 0.52902 0.53968 0.58163 0.0
O506 O 0.51421 0.55544 0.67455 0.0
O507 O 0.46713 0.55056 0.77523 0.0
O508 O 0.45982 0.55286 0.6748 0.0
O509 O 0.50308 0.49841 0.56406 0.0
O510 O 0.48041 0.52894 0.60329 0.0
C511 C 0.50627 0.47644 0.70111 0.0
C512 C 0.54252 0.52586 0.74844 0.0
C513 C 0.54429 0.43712 0.58613 0.0
C514 C 0.51932 0.40182 0.58154 0.0
C515 C 0.54654 0.40748 0.66946 0.0
C516 C 0.5541 0.42901 0.64341 0.0
C517 C 0.52904 0.39402 0.63916 0.0
C518 C 0.52719 0.4233 0.55551 0.0
C519 C 0.54912 0.46097 0.56081 0.0
C520 C 0.60636 0.55613 0.47029 0.0
C521 C 0.62011 0.55261 0.52484 0.0
H522 H 0.57608 0.55792 0.37056 0.0
C523 C 0.52271 0.55784 0.61661 0.0
C524 C 0.48505 0.51296 0.55982 0.0
C525 C 0.46121 0.58816 0.73187 0.0
C526 C 0.48851 0.62114 0.74879 0.0
C527 C 0.44899 0.628 0.70759 0.0
C528 C 0.44403 0.60381 0.71014 0.0
C529 C 0.47105 0.63667 0.7268 0.0
C530 C 0.48339 0.59688 0.75061 0.0
C531 C 0.45704 0.56258 0.73025 0.0
H532 H 0.55397 0.40141 0.7139 0.0
H533 H 0.56706 0.43951 0.66886 0.0
H534 H 0.52329 0.37752 0.66035 0.0
H535 H 0.51921 0.4299 0.51219 0.0
H536 H 0.43567 0.64008 0.69086 0.0
H537 H 0.42696 0.5973 0.69453 0.0
H538 H 0.47421 0.65554 0.72569 0.0
H539 H 0.49688 0.58463 0.76552 0.0
C540 C 0.02663 0.45089 0.76845 0.0
C541 C 0.03601 0.4601 0.87829 0.0
C542 C 0.02446 0.46546 0.82084 0.0
C543 C 0.05055 0.44019 0.88148 0.0
C544 C 0.0403 0.43026 0.77235 0.0
C545 C 0.0527 0.4253 0.82859 0.0
N546 N 0.01418 0.45612 0.71513 0.0
C547 C 0.01266 0.44009 0.66676 0.0
C548 C 0.04042 0.41483 0.72044 0.0
C549 C 0.02617 0.41955 0.66792 0.0
Gd550 Gd 0.02852 0.5416 0.61427 0.0
Gd551 Gd 0.99384 0.49233 0.71617 0.0
N552 N 0.01051 0.48471 0.81593 0.0
C553 C 0.03225 0.4747 0.93101 0.0
C554 C 1.00584 0.4984 0.86775 0.0
C555 C 0.01683 0.49376 0.92593 0.0
H556 H 0.99403 0.51318 0.86359 0.0
H557 H 0.0135 0.50491 0.96667 0.0
H558 H 0.05435 0.51399 0.49018 0.0
H559 H 1.00074 0.44276 0.62754 0.0
H560 H 0.04748 0.50884 0.37527 0.0
H561 H 0.04079 0.47118 0.97605 0.0
H562 H 0.05979 0.43588 0.925 0.0
H563 H 1.00151 0.59108 0.65573 0.0
H564 H 0.05068 0.39878 0.72151 0.0
H565 H 0.02528 0.4072 0.62873 0.0
H566 H 0.98634 0.56422 0.32744 0.0
H567 H 0.06348 0.40965 0.83223 0.0
H568 H 0.96307 0.61678 0.49459 0.0
H569 H 0.97493 0.6207 0.60746 0.0
N570 N 1.00405 0.57074 0.57123 0.0
C571 C 0.99895 0.5691 0.50841 0.0
C572 C 0.99646 0.58949 0.60632 0.0
C573 C 0.97474 0.60388 0.51547 0.0
C574 C 0.98143 0.60617 0.5792 0.0
C575 C 0.9838 0.58537 0.47894 0.0
H576 H 0.96693 0.59515 0.3904 0.0
N577 N 0.02581 0.53773 0.50279 0.0
C578 C 0.00992 0.55176 0.47324 0.0
C579 C 0.01908 0.53385 0.37207 0.0
C580 C 1.00597 0.55012 0.40717 0.0
C581 C 0.04007 0.52336 0.46785 0.0
C582 C 0.03653 0.52073 0.40239 0.0
O583 O 0.02857 0.50748 0.75282 0.0
O584 O 0.04857 0.51175 0.65991 0.0
O585 O 0.05981 0.55745 0.57069 0.0
O586 O 0.04815 0.56906 0.66296 0.0
O587 O 0.98658 0.53028 0.74591 0.0
O588 O 0.02007 0.55129 0.71602 0.0
O589 O 0.98808 0.54251 0.61901 0.0
O590 O 0.97951 0.50331 0.62092 0.0
O591 O 0.96027 0.49858 0.76199 0.0
O592 O 0.96876 0.46344 0.7305 0.0
O593 O 0.03615 0.50308 0.59002 0.0
O594 O 1.00077 0.48459 0.6115 0.0
C595 C 0.04858 0.50831 0.72151 0.0
C596 C 1.00119 0.54845 0.75192 0.0
C597 C 0.089 0.5659 0.64942 0.0
C598 C 0.1262 0.54427 0.65469 0.0
C599 C 0.11604 0.57247 0.73737 0.0
C600 C 0.09497 0.57753 0.70621 0.0
C601 C 0.13145 0.5558 0.71232 0.0
C602 C 0.10493 0.54967 0.62325 0.0
C603 C 0.06526 0.56927 0.62182 0.0
C604 C 0.98981 0.56539 0.37801 0.0
C605 C 0.97878 0.58302 0.41383 0.0
H606 H 0.01656 0.532 0.32123 0.0
C607 C 0.97363 0.52489 0.60622 0.0
C608 C 0.02046 0.48634 0.57832 0.0
C609 C 0.93035 0.47764 0.70786 0.0
C610 C 0.89658 0.49939 0.66617 0.0
C611 C 0.90642 0.46102 0.62263 0.0
C612 C 0.92552 0.45934 0.66447 0.0
C613 C 0.89204 0.48095 0.62319 0.0
C614 C 0.91547 0.4973 0.709 0.0
C615 C 0.95203 0.47776 0.7473 0.0
H616 H 0.12025 0.58119 0.78177 0.0
H617 H 0.083 0.5901 0.72743 0.0
H618 H 0.14725 0.55169 0.73887 0.0
H619 H 0.1006 0.54106 0.57878 0.0
H620 H 0.90293 0.44694 0.58908 0.0
H621 H 0.93671 0.44397 0.66198 0.0
H622 H 0.87757 0.48204 0.58974 0.0
H623 H 0.91872 0.51118 0.74344 0.0
H624 H 0.13184 0.08915 0.24753 0.0
H625 H 0.08325 1.00468 0.52454 0.0
H626 H 0.16116 0.0211 0.29176 0.0
H627 H 0.04652 0.06738 0.46525 0.0
H628 H 0.11183 0.01096 0.43973 0.0
H629 H 0.10046 0.08189 0.32569 0.0
C630 C 0.13165 0.07261 0.27338 0.0
C631 C 0.14936 0.05576 0.26296 0.0
C632 C 0.09753 0.02337 0.44496 0.0
C633 C 0.11335 0.04737 0.35311 0.0
C634 C 0.08114 0.01986 0.4938 0.0
C635 C 0.06234 0.03559 0.50268 0.0
C636 C 0.09545 0.04289 0.40428 0.0
C637 C 0.06067 0.05479 0.46051 0.0
C638 C 0.11365 0.06847 0.31795 0.0
C639 C 0.14788 0.03455 0.2975 0.0
N640 N 0.07706 0.05796 0.41344 0.0
N641 N 0.1304 0.03109 0.3412 0.0
H642 H 0.50007 0.13333 0.20796 0.0
H643 H 0.48469 0.09391 0.57118 0.0
H644 H 0.45102 0.16679 0.33537 0.0
H645 H 0.50494 0.04451 0.42581 0.0
H646 H 0.47776 0.12371 0.48832 0.0
H647 H 0.50754 0.10314 0.29003 0.0
C648 C 0.491 0.13438 0.25323 0.0
C649 C 0.47483 0.15252 0.26476 0.0
C650 C 0.4836 0.1063 0.47453 0.0
C651 C 0.48356 0.11843 0.35898 0.0
C652 C 0.48757 0.08933 0.52175 0.0
C653 C 0.49484 0.06657 0.50508 0.0
C654 C 0.48766 0.10071 0.41026 0.0
C655 C 0.49868 0.06165 0.44042 0.0
C656 C 0.49517 0.11713 0.29986 0.0
C657 C 0.46348 0.15301 0.32428 0.0
N658 N 0.49523 0.07861 0.39541 0.0
N659 N 0.46817 0.13638 0.36915 0.0
H660 H 0.36383 0.52698 0.31129 0.0
H661 H 0.48603 0.48164 0.45884 0.0
H662 H 0.40556 0.47246 0.2238 0.0
H663 H 0.44573 0.53943 0.53516 0.0
H664 H 0.45757 0.4783 0.37128 0.0
H665 H 0.3946 0.53253 0.39085 0.0
C666 C 0.3796 0.51641 0.30787 0.0
C667 C 0.38187 0.49918 0.26011 0.0
C668 C 0.45503 0.49176 0.40711 0.0
C669 C 0.41728 0.50512 0.35328 0.0
C670 C 0.47129 0.49368 0.45727 0.0
C671 C 0.46838 0.51081 0.50497 0.0
C672 C 0.4356 0.50704 0.40445 0.0
C673 C 0.44884 0.52589 0.49993 0.0
C674 C 0.39715 0.51945 0.35404 0.0
C675 C 0.40269 0.48573 0.25991 0.0
N676 N 0.43328 0.52359 0.451 0.0
N677 N 0.41945 0.48889 0.3058 0.0
H678 H 0.99898 0.3836 0.27656 0.0
H679 H 0.06235 0.47132 0.52551 0.0
H680 H 0.07408 0.38405 0.3111 0.0
H681 H 0.98691 0.4625 0.51008 0.0
H682 H 0.0674 0.44221 0.44002 0.0
H683 H 0.99462 0.41513 0.35489 0.0
C684 C 0.0146 0.39028 0.30033 0.0
C685 C 0.03695 0.38088 0.28677 0.0
C686 C 0.04974 0.44671 0.45521 0.0
C687 C 0.03204 0.41743 0.37689 0.0
C688 C 0.04686 0.46341 0.50385 0.0
C689 C 0.02418 0.46938 0.52512 0.0
C690 C 0.02979 0.43594 0.4273 0.0
C691 C 1.00474 0.45837 0.49559 0.0
C692 C 0.01208 0.40842 0.34508 0.0
C693 C 0.05651 0.39079 0.31881 0.0
N694 N 0.00799 0.44226 0.44842 0.0
N695 N 0.05359 0.40838 0.3623 0.0
H696 H 0.86646 0.03163 0.99563 0.0
H697 H 0.97594 0.97625 0.81296 0.0
H698 H 0.90473 0.97185 0.06862 0.0
H699 H 0.95617 0.04906 0.78895 0.0
H700 H 0.94803 0.97298 0.90168 0.0
H701 H 0.89742 0.03753 0.91588 0.0
C702 C 0.88145 0.01992 0.99585 0.0
C703 C 0.88261 1.00102 0.03924 0.0
C704 C 0.94995 0.98973 0.87733 0.0
C705 C 0.91796 1.00736 0.94594 0.0
C706 C 0.96602 0.99166 0.82684 0.0
C707 C 0.96876 0.01308 0.79382 0.0
C708 C 0.93605 0.00919 0.89432 0.0
C709 C 0.95472 0.03219 0.81291 0.0
C710 C 0.89908 0.02322 0.9497 0.0
C711 C 0.90252 0.9863 0.03558 0.0
N712 N 0.93891 0.02976 0.86143 0.0
N713 N 0.91915 0.9896 0.9895 0.0
H714 H 0.50235 0.90187 0.07998 0.0
H715 H 0.53766 0.94481 0.72924 0.0
H716 H 0.52882 0.85554 0.93427 0.0
H717 H 0.48899 0.98398 0.84512 0.0
H718 H 0.53831 0.91378 0.80979 0.0
H719 H 0.501 0.93406 1.00105 0.0
C720 C 0.50787 0.89846 0.03155 0.0
C721 C 0.51548 0.87585 0.01372 0.0
C722 C 0.52736 0.92908 0.81764 0.0
C723 C 0.51429 0.91264 0.92348 0.0
C724 C 0.52677 0.94671 0.77117 0.0
C725 C 0.51264 0.96669 0.77922 0.0
C726 C 0.51413 0.93155 0.8738 0.0
C727 C 0.49996 0.96876 0.83654 0.0
C728 C 0.50701 0.9168 0.9865 0.0
C729 C 0.52245 0.87251 0.95014 0.0
N730 N 0.50099 0.95142 0.88162 0.0
N731 N 0.52179 0.89062 0.90772 0.0
H732 H 0.65972 0.51464 1.01087 0.0
H733 H 0.55163 0.56738 0.81278 0.0
H734 H 0.62933 0.58254 0.05254 0.0
H735 H 0.57138 0.49408 0.8076 0.0
H736 H 0.58045 0.57395 0.89841 0.0
H737 H 0.62795 0.50717 0.93514 0.0
C738 C 0.64624 0.52789 1.00516 0.0
C739 C 0.64754 0.54936 0.03864 0.0
C740 C 0.57848 0.55643 0.87844 0.0
C741 C 0.61112 0.54105 0.94959 0.0
C742 C 0.56203 0.55268 0.82949 0.0
C743 C 0.55938 0.53024 0.80179 0.0
C744 C 0.59251 0.53763 0.89982 0.0
C745 C 0.57325 0.51183 0.82594 0.0
C746 C 0.62813 0.52366 0.96117 0.0
C747 C 0.62955 0.56591 0.02732 0.0
N748 N 0.58926 0.51596 0.87297 0.0
N749 N 0.6123 0.56151 0.98358 0.0
H750 H 0.01442 0.66925 1.00407 0.0
H751 H 0.96523 0.5502 0.84131 0.0
H752 H 0.95206 0.63241 0.07026 0.0
H753 H 0.02843 0.58716 0.78156 0.0
H754 H 0.96024 0.57935 0.92659 0.0
H755 H 0.02044 0.63824 0.92536 0.0
C756 C 1.00215 0.65449 1.00294 0.0
C757 C 0.98264 0.65366 0.04432 0.0
C758 C 0.9752 0.58103 0.89478 0.0
C759 C 0.98921 0.61804 0.95234 0.0
C760 C 0.97805 0.56438 0.8459 0.0
C761 C 0.99728 0.56609 0.80373 0.0
C762 C 0.99168 0.59961 0.90172 0.0
C763 C 0.01328 0.58497 0.81248 0.0
C764 C 1.00549 0.63683 0.95729 0.0
C765 C 0.96717 0.63413 0.03903 0.0
N766 N 0.01011 0.60087 0.86015 0.0
N767 N 0.97072 0.61723 0.99389 0.0
H768 H 0.1113 0.18517 0.43589 0.0
H769 H 0.99956 0.17114 0.65737 0.0
H770 H 0.06548 0.24185 0.49309 0.0
H771 H 0.03231 0.11656 0.54459 0.0
H772 H 0.03424 0.19622 0.6387 0.0
H773 H 0.09369 0.16029 0.5186 0.0
C774 C 0.09804 0.19263 0.46692 0.0
C775 C 0.08921 0.21533 0.45575 0.0
C776 C 0.03396 0.17844 0.61981 0.0
C777 C 0.06905 0.187 0.55024 0.0
C778 C 0.01404 0.16416 0.62973 0.0
C779 C 0.01222 0.14196 0.60008 0.0
C780 C 0.05227 0.17033 0.58067 0.0
C781 C 0.03229 0.13353 0.56792 0.0
C782 C 0.08805 0.17844 0.51427 0.0
C783 C 0.0726 0.22433 0.49897 0.0
N784 N 0.05118 0.14789 0.55807 0.0
N785 N 0.06258 0.20992 0.5432 0.0
H786 H 0.37517 0.13178 0.25302 0.0
H787 H 0.42605 0.01889 0.42866 0.0
H788 H 0.33357 0.08129 0.36008 0.0
H789 H 0.46465 0.0598 0.28908 0.0
H790 H 0.3955 0.04888 0.42949 0.0
H791 H 0.41103 0.1132 0.29311 0.0
C792 C 0.3735 0.11719 0.28605 0.0
C793 C 0.3512 0.10764 0.30133 0.0
C794 C 0.41079 0.05144 0.39923 0.0
C795 C 0.39213 0.08643 0.34742 0.0
C796 C 0.42831 0.03432 0.39877 0.0
C797 C 0.44776 0.03655 0.3577 0.0
C798 C 0.41262 0.0709 0.3581 0.0
C799 C 0.4496 0.05696 0.32 0.0
C800 C 0.394 0.1066 0.30886 0.0
C801 C 0.35022 0.08924 0.34618 0.0
N802 N 0.43212 0.07323 0.32057 0.0
N803 N 0.37037 0.07894 0.36651 0.0
H804 H 0.40736 0.3086 0.44794 0.0
H805 H 0.51642 0.39388 0.45455 0.0
H806 H 0.42729 0.35496 0.29312 0.0
H807 H 0.48014 0.37877 0.63086 0.0
H808 H 0.48405 0.37594 0.3964 0.0
H809 H 0.43238 0.33223 0.5193 0.0
C810 C 0.41642 0.32399 0.42911 0.0
C811 C 0.41568 0.32922 0.36361 0.0
C812 C 0.48299 0.37666 0.4478 0.0
C813 C 0.44417 0.35607 0.44483 0.0
C814 C 0.50154 0.38683 0.4811 0.0
C815 C 0.5008 0.38821 0.5476 0.0
C816 C 0.46358 0.36728 0.48096 0.0
C817 C 0.48138 0.37804 0.57952 0.0
C818 C 0.43065 0.33745 0.46998 0.0
C819 C 0.42724 0.34986 0.34267 0.0
N820 N 0.46344 0.36788 0.54579 0.0
N821 N 0.44137 0.36214 0.38278 0.0
H822 H 0.18493 0.43311 0.4283 0.0
H823 H 0.17478 0.54358 0.66073 0.0
H824 H 0.24222 0.48148 0.46968 0.0
H825 H 0.11533 0.50394 0.58666 0.0
H826 H 0.20123 0.5149 0.61299 0.0
H827 H 0.16123 0.45239 0.5101 0.0
C828 C 0.19271 0.44743 0.45544 0.0
C829 C 0.21542 0.45601 0.441 0.0
C830 C 0.18235 0.51236 0.60809 0.0
C831 C 0.18842 0.47814 0.53432 0.0
C832 C 0.16716 0.52871 0.63557 0.0
C833 C 0.1426 0.52636 0.62807 0.0
C834 C 0.17298 0.49353 0.5726 0.0
C835 C 0.13401 0.50681 0.5937 0.0
C836 C 0.17917 0.45844 0.50205 0.0
C837 C 0.2248 0.47425 0.47884 0.0
N838 N 0.14916 0.49128 0.56702 0.0
N839 N 0.21111 0.48498 0.52296 0.0
H840 H 0.94267 0.86854 0.99935 0.0
H841 H 1.00586 0.87856 0.66528 0.0
H842 H 0.92867 0.81992 0.84515 0.0
H843 H 0.0165 0.92611 0.82351 0.0
H844 H 0.97209 0.86108 0.72142 0.0
H845 H 0.96199 0.89489 0.9255 0.0
C846 C 0.94296 0.86352 0.94973 0.0
C847 C 0.93449 0.84137 0.92934 0.0
C848 C 0.98163 0.87561 0.74322 0.0
C849 C 0.958 0.87144 0.84432 0.0
C850 C 1.00107 0.88544 0.71153 0.0
C851 C 0.01433 0.90367 0.73993 0.0
C852 C 0.9755 0.88398 0.80386 0.0
C853 C 1.00686 0.91223 0.79924 0.0
C854 C 0.95442 0.87861 0.90741 0.0
C855 C 0.93577 0.83627 0.8639 0.0
N856 N 0.98816 0.90216 0.82933 0.0
N857 N 0.94791 0.85089 0.82399 0.0
H858 H 0.74222 0.9404 0.86498 0.0
H859 H 0.61628 0.97372 0.81217 0.0
H860 H 0.68501 0.90035 0.94916 0.0
H861 H 0.66701 0.98622 0.66135 0.0
H862 H 0.6403 0.94239 0.85148 0.0
H863 H 0.71633 0.95159 0.77826 0.0
C864 C 0.72449 0.93311 0.86412 0.0
C865 C 0.71552 0.9201 0.91591 0.0
C866 C 0.64601 0.95159 0.8089 0.0
C867 C 0.68563 0.93356 0.81743 0.0
C868 C 0.63208 0.96966 0.78565 0.0
C869 C 0.63946 0.98325 0.73303 0.0
C870 C 0.66813 0.94747 0.78156 0.0
C871 C 0.6608 0.977 0.70328 0.0
C872 C 0.70963 0.93968 0.81445 0.0
C873 C 0.69239 0.91121 0.91157 0.0
N874 N 0.67471 0.96001 0.72902 0.0
N875 N 0.678 0.91871 0.86429 0.0
H876 H 0.59595 0.71848 0.86106 0.0
H877 H 0.51414 0.60458 0.84968 0.0
H878 H 0.58104 0.67176 0.01899 0.0
H879 H 0.51576 0.658 0.70296 0.0
H880 H 0.54929 0.62207 0.89644 0.0
H881 H 0.5777 0.68964 0.78952 0.0
C882 C 0.58939 0.70202 0.88074 0.0
C883 C 0.58918 0.69816 0.94688 0.0
C884 C 0.54216 0.62982 0.85354 0.0
C885 C 0.56873 0.66497 0.86498 0.0
C886 C 0.52207 0.61976 0.82644 0.0
C887 C 0.51155 0.63014 0.77292 0.0
C888 C 0.55167 0.65067 0.82778 0.0
C889 C 0.52275 0.64989 0.74548 0.0
C890 C 0.57904 0.68554 0.8397 0.0
C891 C 0.58141 0.67596 0.96883 0.0
N892 N 0.54199 0.65978 0.77389 0.0
N893 N 0.57105 0.66048 0.9282 0.0
H894 H 0.85039 0.61198 0.87467 0.0
H895 H 0.84828 0.50094 0.65917 0.0
H896 H 0.78674 0.5742 0.82362 0.0
H897 H 0.90967 0.5457 0.68212 0.0
H898 H 0.8235 0.53335 0.69451 0.0
H899 H 0.87023 0.5946 0.78295 0.0
C900 C 0.84043 0.60052 0.84319 0.0
C901 C 0.81708 0.59407 0.85772 0.0
C902 C 0.84235 0.53632 0.69045 0.0
C903 C 0.8397 0.57377 0.75346 0.0
C904 C 0.85651 0.51779 0.6699 0.0
C905 C 0.88114 0.52035 0.67002 0.0
C906 C 0.85298 0.55735 0.71215 0.0
C907 C 0.89079 0.54269 0.68384 0.0
C908 C 0.85173 0.59061 0.79071 0.0
C909 C 0.80483 0.57953 0.81465 0.0
N910 N 0.87675 0.56014 0.70598 0.0
N911 N 0.81646 0.56939 0.76543 0.0
H912 H 1.00571 0.1877 0.92375 0.0
H913 H 0.06261 0.08746 0.70193 0.0
H914 H 0.08006 0.18364 0.88107 0.0
H915 H 0.98892 0.08909 0.75234 0.0
H916 H 0.06882 0.12439 0.7603 0.0
H917 H 0.99858 0.15394 0.85323 0.0
C918 C 0.02052 0.17997 0.899 0.0
C919 C 0.04358 0.18856 0.90918 0.0
C920 C 0.05127 0.1167 0.75868 0.0
C921 C 0.03553 0.14946 0.82858 0.0
C922 C 0.04778 0.09543 0.72581 0.0
C923 C 0.02539 0.08469 0.72362 0.0
C924 C 0.03216 0.12755 0.78951 0.0
C925 C 1.00659 0.0965 0.75325 0.0
C926 C 0.01645 0.16052 0.85901 0.0
C927 C 0.06203 0.17748 0.87594 0.0
N928 N 0.01042 0.11712 0.7852 0.0
N929 N 0.05763 0.15854 0.83764 0.0
H930 H 0.34971 0.01971 0.94098 0.0
H931 H 0.42736 0.03776 0.62396 0.0
H932 H 0.32388 0.0575 0.7774 0.0
H933 H 0.45538 0.01521 0.80437 0.0
H934 H 0.38805 0.04091 0.67339 0.0
H935 H 0.38687 0.01315 0.88522 0.0
C936 C 0.35163 0.0263 0.89289 0.0
C937 C 0.33343 0.03918 0.86409 0.0
C938 C 0.40282 0.03523 0.70203 0.0
C939 C 0.37652 0.03202 0.79984 0.0
C940 C 0.42522 0.03333 0.67376 0.0
C941 C 0.44471 0.02614 0.70998 0.0
C942 C 0.39984 0.02975 0.7669 0.0
C943 C 0.44094 0.02093 0.77458 0.0
C944 C 0.37305 0.02275 0.86123 0.0
C945 C 0.3374 0.04766 0.80191 0.0
N946 N 0.41905 0.02276 0.80074 0.0
N947 N 0.35845 0.04397 0.77198 0.0
H948 H 0.5109 0.35015 0.93657 0.0
H949 H 0.46904 0.4461 0.67894 0.0
H950 H 0.44815 0.34209 0.82223 0.0
H951 H 0.53299 0.45284 0.78834 0.0
H952 H 0.46157 0.40754 0.72868 0.0
H953 H 0.52023 0.38673 0.87943 0.0
C954 C 0.49922 0.35581 0.89892 0.0
C955 C 0.47857 0.34287 0.88484 0.0
C956 C 0.47726 0.41741 0.74184 0.0
C957 C 0.48901 0.38531 0.81958 0.0
C958 C 0.48146 0.4395 0.71363 0.0
C959 C 0.50154 0.45283 0.7299 0.0
C960 C 0.49327 0.40849 0.78686 0.0
C961 C 0.51724 0.4432 0.77441 0.0
C962 C 0.50447 0.3769 0.86658 0.0
C963 C 0.46403 0.35153 0.83587 0.0
N964 N 0.51273 0.42175 0.80146 0.0
N965 N 0.46944 0.37215 0.80546 0.0
H966 H 0.19735 0.49719 0.82879 0.0
H967 H 0.05689 0.51444 0.84909 0.0
H968 H 0.15717 0.49023 1.00208 0.0
H969 H 0.09207 0.49749 0.6738 0.0
H970 H 0.09452 0.51111 0.90528 0.0
H971 H 0.1602 0.50356 0.77013 0.0
C972 C 0.18078 0.49729 0.85453 0.0
C973 C 0.18035 0.49302 0.92036 0.0
C974 C 0.0941 0.50819 0.8544 0.0
C975 C 0.1379 0.5003 0.85389 0.0
C976 C 0.07255 0.50998 0.82231 0.0
C977 C 0.07136 0.50634 0.75637 0.0
C978 C 0.11479 0.50291 0.82041 0.0
C979 C 0.09236 0.50087 0.7243 0.0
C980 C 0.15959 0.50074 0.82105 0.0
C981 C 0.15833 0.49322 0.9513 0.0
N982 N 0.11321 0.49935 0.75641 0.0
N983 N 0.13811 0.49678 0.91797 0.0
H984 H 0.9669 0.84017 0.47393 0.0
H985 H 0.02724 0.96738 0.49474 0.0
H986 H 0.02761 0.861 0.36234 0.0
H987 H 0.98612 0.93955 0.6506 0.0
H988 H 0.02531 0.92886 0.44283 0.0
H989 H 0.97205 0.87599 0.5385 0.0
C990 C 0.9815 0.85199 0.46338 0.0
C991 C 0.99659 0.84752 0.4115 0.0
C992 C 0.01684 0.93101 0.48862 0.0
C993 C 1.00215 0.88898 0.48457 0.0
C994 C 0.01787 0.95306 0.5182 0.0
C995 C 1.00693 0.95663 0.57722 0.0
C996 C 1.00436 0.91231 0.51746 0.0
C997 C 0.99498 0.93745 0.60533 0.0
C998 C 0.98431 0.87256 0.50012 0.0
C999 C 0.01505 0.86381 0.40034 0.0
N1000 N 0.99379 0.91616 0.57491 0.0
N1001 N 0.01709 0.88381 0.4358 0.0
H1002 H 0.67729 0.96007 0.40773 0.0
H1003 H 0.57952 0.04707 0.55141 0.0
H1004 H 0.6837 0.03598 0.40053 0.0
H1005 H 0.5727 0.97119 0.55067 0.0
H1006 H 0.61842 0.04355 0.50152 0.0
H1007 H 0.64019 0.96402 0.46548 0.0
C1008 C 0.67114 0.97763 0.41889 0.0
C1009 C 0.68397 0.99772 0.39905 0.0
C1010 C 0.60842 0.02766 0.51222 0.0
C1011 C 0.64074 1.00236 0.46487 0.0
C1012 C 0.58614 0.02965 0.54079 0.0
C1013 C 0.57259 0.00941 0.55511 0.0
C1014 C 0.61738 1.00524 0.49751 0.0
C1015 C 0.58233 0.98733 0.54036 0.0
C1016 C 0.64972 0.97985 0.45158 0.0
C1017 C 0.67448 0.01994 0.41403 0.0
N1018 N 0.604 0.98586 0.51238 0.0
N1019 N 0.65353 0.02164 0.44584 0.0
H1020 H 0.49858 0.6994 0.46476 0.0
H1021 H 0.56059 0.57654 0.5533 0.0
H1022 H 0.56673 0.6777 0.39516 0.0
H1023 H 0.4907 0.59399 0.61661 0.0
H1024 H 0.56359 0.61471 0.49993 0.0
H1025 H 0.49561 0.66229 0.52503 0.0
C1026 C 0.51293 0.68695 0.46206 0.0
C1027 C 0.53304 0.69202 0.42485 0.0
C1028 C 0.54757 0.61035 0.52565 0.0
C1029 C 0.52975 0.64937 0.49422 0.0
C1030 C 0.54581 0.58838 0.55568 0.0
C1031 C 0.52533 0.58192 0.58902 0.0
C1032 C 0.52863 0.62621 0.52868 0.0
C1033 C 0.50697 0.5984 0.59232 0.0
C1034 C 0.51125 0.66577 0.49678 0.0
C1035 C 0.55109 0.67508 0.42397 0.0
N1036 N 0.50898 0.61972 0.5623 0.0
N1037 N 0.54898 0.65469 0.45781 0.0
H1038 H 0.85069 0.50503 0.36601 0.0
H1039 H 0.94852 0.56613 0.58985 0.0
H1040 H 0.84648 0.57766 0.42564 0.0
H1041 H 0.94692 0.49209 0.543 0.0
H1042 H 0.9115 0.57125 0.53068 0.0
H1043 H 0.88571 0.50024 0.43231 0.0
C1044 C 0.85707 0.51999 0.39325 0.0
C1045 C 0.84557 0.54182 0.38974 0.0
C1046 C 0.91929 0.55389 0.53331 0.0
C1047 C 0.88613 0.53651 0.46599 0.0
C1048 C 0.94057 0.55102 0.56665 0.0
C1049 C 0.95113 0.52873 0.57088 0.0
C1050 C 0.90845 0.53432 0.50374 0.0
C1051 C 0.93959 0.50965 0.54109 0.0
C1052 C 0.87712 0.51723 0.4313 0.0
C1053 C 0.85462 0.56045 0.42702 0.0
N1054 N 0.91907 0.51291 0.50877 0.0
N1055 N 0.87443 0.55745 0.46302 0.0
loop_
_geom_bond_atom_site_label_1
_geom_bond_atom_site_label_2
_geom_bond_distance
_geom_bond_site_symmetry_2
_ccdc_geom_bond_type
C0 C1 1.384 . S
C0 H13 0.947 . S
C0 C35 1.382 . S
C1 C0 1.384 . S
C1 C2 1.378 . S
C2 C1 1.378 . S
C2 C3 1.378 . S
C2 H14 0.952 . S
C3 C2 1.378 . S
C3 H15 0.950 . S
C3 C34 1.383 . S
H4 C23 0.947 . S
H5 C24 0.946 . S
H6 C26 0.953 . S
H7 C27 0.945 . S
H8 C29 0.952 . S
H9 C30 0.949 1_556 S
H10 C32 0.950 . S
H11 C33 0.948 . S
H12 C35 0.951 . S
H13 C0 0.947 . S
H14 C2 0.952 . S
H15 C3 0.950 . S
N16 C19 1.382 . S
N16 C21 1.363 . S
N17 C19 1.371 . S
N17 C20 1.372 . S
N18 C20 1.361 . S
N18 C21 1.377 . S
C19 N16 1.382 . S
C19 N17 1.371 . S
C19 C22 1.480 . S
C20 N17 1.372 . S
C20 N18 1.361 . S
C20 C28 1.457 . S
C21 N16 1.363 . S
C21 N18 1.377 . S
C21 C34 1.479 . S
C22 C19 1.480 . S
C22 C23 1.383 . S
C22 C27 1.385 . S
C23 H4 0.947 . S
C23 C22 1.383 . S
C23 C24 1.388 . S
C24 H5 0.946 . S
C24 C23 1.388 . S
C24 C25 1.384 . S
C25 C24 1.384 . S
C25 C26 1.377 . S
C26 H6 0.953 . S
C26 C25 1.377 . S
C26 C27 1.369 . S
C27 H7 0.945 . S
C27 C22 1.385 . S
C27 C26 1.369 . S
C28 C20 1.457 . S
C28 C29 1.372 . S
C28 C33 1.364 . S
C29 H8 0.952 . S
C29 C28 1.372 . S
C29 C30 1.389 . S
C30 H9 0.949 1_554 S
C30 C29 1.389 . S
C30 C31 1.387 . S
C31 C30 1.387 . S
C31 C32 1.372 . S
C32 H10 0.950 . S
C32 C31 1.372 . S
C32 C33 1.379 . S
C33 H11 0.948 . S
C33 C28 1.364 . S
C33 C32 1.379 . S
C34 C3 1.383 . S
C34 C21 1.479 . S
C34 C35 1.398 . S
C35 C0 1.382 . S
C35 H12 0.951 . S
C35 C34 1.398 . S
C36 C37 1.384 . S
C36 H49 0.947 . S
C36 C71 1.382 . S
C37 C36 1.384 . S
C37 C38 1.378 . S
C38 C37 1.378 . S
C38 C39 1.378 . S
C38 H50 0.952 . S
C39 C38 1.378 . S
C39 H51 0.950 . S
C39 C70 1.383 . S
H40 C59 0.947 . S
H41 C60 0.946 . S
H42 C62 0.953 . S
H43 C63 0.945 . S
H44 C65 0.952 . S
H45 C66 0.949 1_556 S
H46 C68 0.950 . S
H47 C69 0.948 . S
H48 C71 0.951 . S
H49 C36 0.947 . S
H50 C38 0.952 . S
H51 C39 0.950 . S
N52 C55 1.382 . S
N52 C57 1.363 . S
N53 C55 1.371 . S
N53 C56 1.372 . S
N54 C56 1.361 . S
N54 C57 1.377 . S
C55 N52 1.382 . S
C55 N53 1.371 . S
C55 C58 1.480 . S
C56 N53 1.372 . S
C56 N54 1.361 . S
C56 C64 1.457 . S
C57 N52 1.363 . S
C57 N54 1.377 . S
C57 C70 1.479 . S
C58 C55 1.480 . S
C58 C59 1.383 . S
C58 C63 1.385 . S
C59 H40 0.947 . S
C59 C58 1.383 . S
C59 C60 1.388 . S
C60 H41 0.946 . S
C60 C59 1.388 . S
C60 C61 1.384 . S
C61 C60 1.384 . S
C61 C62 1.377 . S
C62 H42 0.953 . S
C62 C61 1.377 . S
C62 C63 1.369 . S
C63 H43 0.945 . S
C63 C58 1.385 . S
C63 C62 1.369 . S
C64 C56 1.457 . S
C64 C65 1.372 . S
C64 C69 1.364 . S
C65 H44 0.952 . S
C65 C64 1.372 . S
C65 C66 1.389 . S
C66 H45 0.949 1_554 S
C66 C65 1.389 . S
C66 C67 1.387 . S
C67 C66 1.387 . S
C67 C68 1.372 . S
C68 H46 0.950 . S
C68 C67 1.372 . S
C68 C69 1.379 . S
C69 H47 0.948 . S
C69 C64 1.364 . S
C69 C68 1.379 . S
C70 C39 1.383 . S
C70 C57 1.479 . S
C70 C71 1.398 . S
C71 C36 1.382 . S
C71 H48 0.951 . S
C71 C70 1.398 . S
C72 C73 1.384 . S
C72 H85 0.947 . S
C72 C107 1.382 . S
C73 C72 1.384 . S
C73 C74 1.378 . S
C74 C73 1.378 . S
C74 C75 1.378 . S
C74 H86 0.952 . S
C75 C74 1.378 . S
C75 H87 0.950 . S
C75 C106 1.383 . S
H76 C95 0.947 . S
H77 C96 0.946 . S
H78 C98 0.953 . S
H79 C99 0.945 . S
H80 C101 0.952 . S
H81 C102 0.949 1_556 S
H82 C104 0.950 . S
H83 C105 0.948 . S
H84 C107 0.951 . S
H85 C72 0.947 . S
H86 C74 0.952 . S
H87 C75 0.950 . S
N88 C91 1.382 . S
N88 C93 1.363 . S
N89 C91 1.371 . S
N89 C92 1.372 . S
N90 C92 1.361 . S
N90 C93 1.377 . S
C91 N88 1.382 . S
C91 N89 1.371 . S
C91 C94 1.480 . S
C92 N89 1.372 . S
C92 N90 1.361 . S
C92 C100 1.457 . S
C93 N88 1.363 . S
C93 N90 1.377 . S
C93 C106 1.479 . S
C94 C91 1.480 . S
C94 C95 1.383 . S
C94 C99 1.385 . S
C95 H76 0.947 . S
C95 C94 1.383 . S
C95 C96 1.388 . S
C96 H77 0.946 . S
C96 C95 1.388 . S
C96 C97 1.384 . S
C97 C96 1.384 . S
C97 C98 1.377 . S
C98 H78 0.953 . S
C98 C97 1.377 . S
C98 C99 1.369 . S
C99 H79 0.945 . S
C99 C94 1.385 . S
C99 C98 1.369 . S
C100 C92 1.457 . S
C100 C101 1.372 . S
C100 C105 1.364 . S
C101 H80 0.952 . S
C101 C100 1.372 . S
C101 C102 1.389 . S
C102 H81 0.949 1_554 S
C102 C101 1.389 . S
C102 C103 1.387 . S
C103 C102 1.387 . S
C103 C104 1.372 . S
C104 H82 0.950 . S
C104 C103 1.372 . S
C104 C105 1.379 . S
C105 H83 0.948 . S
C105 C100 1.364 . S
C105 C104 1.379 . S
C106 C75 1.383 . S
C106 C93 1.479 . S
C106 C107 1.398 . S
C107 C72 1.382 . S
C107 H84 0.951 . S
C107 C106 1.398 . S
C108 C109 1.384 . S
C108 H121 0.947 . S
C108 C143 1.382 . S
C109 C108 1.384 . S
C109 C110 1.378 . S
C110 C109 1.378 . S
C110 C111 1.378 . S
C110 H122 0.952 1_554 S
C111 C110 1.378 . S
C111 H123 0.950 . S
C111 C142 1.383 . S
H112 C131 0.947 . S
H113 C132 0.946 . S
H114 C134 0.953 . S
H115 C135 0.945 . S
H116 C137 0.952 . S
H117 C138 0.949 . S
H118 C140 0.950 . S
H119 C141 0.948 . S
H120 C143 0.951 . S
H121 C108 0.947 . S
H122 C110 0.952 1_556 S
H123 C111 0.950 . S
N124 C127 1.382 . S
N124 C129 1.363 . S
N125 C127 1.371 . S
N125 C128 1.372 . S
N126 C128 1.361 . S
N126 C129 1.377 . S
C127 N124 1.382 . S
C127 N125 1.371 . S
C127 C130 1.480 . S
C128 N125 1.372 . S
C128 N126 1.361 . S
C128 C136 1.457 . S
C129 N124 1.363 . S
C129 N126 1.377 . S
C129 C142 1.479 . S
C130 C127 1.480 . S
C130 C131 1.383 . S
C130 C135 1.385 . S
C131 H112 0.947 . S
C131 C130 1.383 . S
C131 C132 1.388 . S
C132 H113 0.946 . S
C132 C131 1.388 . S
C132 C133 1.384 . S
C133 C132 1.384 . S
C133 C134 1.377 . S
C134 H114 0.953 . S
C134 C133 1.377 . S
C134 C135 1.369 . S
C135 H115 0.945 . S
C135 C130 1.385 . S
C135 C134 1.369 . S
C136 C128 1.457 . S
C136 C137 1.372 . S
C136 C141 1.364 . S
C137 H116 0.952 . S
C137 C136 1.372 . S
C137 C138 1.389 . S
C138 H117 0.949 . S
C138 C137 1.389 . S
C138 C139 1.387 . S
C139 C138 1.387 . S
C139 C140 1.372 . S
C140 H118 0.950 . S
C140 C139 1.372 . S
C140 C141 1.379 . S
C141 H119 0.948 . S
C141 C136 1.364 . S
C141 C140 1.379 . S
C142 C111 1.383 . S
C142 C129 1.479 . S
C142 C143 1.398 . S
C143 C108 1.382 . S
C143 H120 0.951 . S
C143 C142 1.398 . S
C144 C145 1.384 . S
C144 H157 0.947 . S
C144 C179 1.382 . S
C145 C144 1.384 . S
C145 C146 1.378 . S
C146 C145 1.378 . S
C146 C147 1.378 . S
C146 H158 0.952 . S
C147 C146 1.378 . S
C147 H159 0.950 . S
C147 C178 1.383 . S
H148 C167 0.947 1_556 S
H149 C168 0.946 . S
H150 C170 0.953 . S
H151 C171 0.945 . S
H152 C173 0.952 . S
H153 C174 0.949 . S
H154 C176 0.950 . S
H155 C177 0.948 . S
H156 C179 0.951 . S
H157 C144 0.947 . S
H158 C146 0.952 . S
H159 C147 0.950 . S
N160 C163 1.382 1_556 S
N160 C165 1.363 . S
N161 C163 1.371 . S
N161 C164 1.372 . S
N162 C164 1.361 . S
N162 C165 1.377 1_554 S
C163 N160 1.382 1_554 S
C163 N161 1.371 . S
C163 C166 1.480 . S
C164 N161 1.372 . S
C164 N162 1.361 . S
C164 C172 1.457 . S
C165 N160 1.363 . S
C165 N162 1.377 1_556 S
C165 C178 1.479 . S
C166 C163 1.480 . S
C166 C167 1.383 . S
C166 C171 1.385 . S
C167 H148 0.947 1_554 S
C167 C166 1.383 . S
C167 C168 1.388 . S
C168 H149 0.946 . S
C168 C167 1.388 . S
C168 C169 1.384 . S
C169 C168 1.384 . S
C169 C170 1.377 . S
C170 H150 0.953 . S
C170 C169 1.377 . S
C170 C171 1.369 . S
C171 H151 0.945 . S
C171 C166 1.385 . S
C171 C170 1.369 . S
C172 C164 1.457 . S
C172 C173 1.372 . S
C172 C177 1.364 . S
C173 H152 0.952 . S
C173 C172 1.372 . S
C173 C174 1.389 . S
C174 H153 0.949 . S
C174 C173 1.389 . S
C174 C175 1.387 . S
C175 C174 1.387 . S
C175 C176 1.372 . S
C176 H154 0.950 . S
C176 C175 1.372 . S
C176 C177 1.379 . S
C177 H155 0.948 . S
C177 C172 1.364 . S
C177 C176 1.379 . S
C178 C147 1.383 . S
C178 C165 1.479 . S
C178 C179 1.398 . S
C179 C144 1.382 . S
C179 H156 0.951 . S
C179 C178 1.398 . S
C180 C181 1.384 . S
C180 H193 0.947 . S
C180 C215 1.382 . S
C181 C180 1.384 . S
C181 C182 1.378 . S
C182 C181 1.378 . S
C182 C183 1.378 . S
C182 H194 0.952 . S
C183 C182 1.378 . S
C183 H195 0.950 . S
C183 C214 1.383 . S
H184 C203 0.947 1_556 S
H185 C204 0.946 . S
H186 C206 0.953 . S
H187 C207 0.945 . S
H188 C209 0.952 . S
H189 C210 0.949 . S
H190 C212 0.950 . S
H191 C213 0.948 . S
H192 C215 0.951 . S
H193 C180 0.947 . S
H194 C182 0.952 . S
H195 C183 0.950 . S
N196 C199 1.382 1_556 S
N196 C201 1.363 . S
N197 C199 1.371 . S
N197 C200 1.372 . S
N198 C200 1.361 . S
N198 C201 1.377 1_554 S
C199 N196 1.382 1_554 S
C199 N197 1.371 . S
C199 C202 1.480 . S
C200 N197 1.372 . S
C200 N198 1.361 . S
C200 C208 1.457 . S
C201 N196 1.363 . S
C201 N198 1.377 1_556 S
C201 C214 1.479 . S
C202 C199 1.480 . S
C202 C203 1.383 . S
C202 C207 1.385 . S
C203 H184 0.947 1_554 S
C203 C202 1.383 . S
C203 C204 1.388 . S
C204 H185 0.946 . S
C204 C203 1.388 . S
C204 C205 1.384 . S
C205 C204 1.384 . S
C205 C206 1.377 . S
C206 H186 0.953 . S
C206 C205 1.377 . S
C206 C207 1.369 . S
C207 H187 0.945 . S
C207 C202 1.385 . S
C207 C206 1.369 . S
C208 C200 1.457 . S
C208 C209 1.372 . S
C208 C213 1.364 . S
C209 H188 0.952 . S
C209 C208 1.372 . S
C209 C210 1.389 . S
C210 H189 0.949 . S
C210 C209 1.389 . S
C210 C211 1.387 . S
C211 C210 1.387 . S
C211 C212 1.372 . S
C212 H190 0.950 . S
C212 C211 1.372 . S
C212 C213 1.379 . S
C213 H191 0.948 . S
C213 C208 1.364 . S
C213 C212 1.379 . S
C214 C183 1.383 . S
C214 C201 1.479 . S
C214 C215 1.398 . S
C215 C180 1.382 . S
C215 H192 0.951 . S
C215 C214 1.398 . S
C216 C217 1.384 . S
C216 H229 0.947 . S
C216 C251 1.382 . S
C217 C216 1.384 . S
C217 C218 1.378 . S
C218 C217 1.378 . S
C218 C219 1.378 . S
C218 H230 0.952 . S
C219 C218 1.378 . S
C219 H231 0.950 . S
C219 C250 1.383 . S
H220 C239 0.947 1_556 S
H221 C240 0.946 . S
H222 C242 0.953 . S
H223 C243 0.945 . S
H224 C245 0.952 . S
H225 C246 0.949 . S
H226 C248 0.950 . S
H227 C249 0.948 . S
H228 C251 0.951 . S
H229 C216 0.947 . S
H230 C218 0.952 . S
H231 C219 0.950 . S
N232 C235 1.382 1_556 S
N232 C237 1.363 . S
N233 C235 1.371 . S
N233 C236 1.372 . S
N234 C236 1.361 . S
N234 C237 1.377 1_554 S
C235 N232 1.382 1_554 S
C235 N233 1.371 . S
C235 C238 1.480 . S
C236 N233 1.372 . S
C236 N234 1.361 . S
C236 C244 1.457 . S
C237 N232 1.363 . S
C237 N234 1.377 1_556 S
C237 C250 1.479 . S
C238 C235 1.480 . S
C238 C239 1.383 . S
C238 C243 1.385 . S
C239 H220 0.947 1_554 S
C239 C238 1.383 . S
C239 C240 1.388 . S
C240 H221 0.946 . S
C240 C239 1.388 . S
C240 C241 1.384 . S
C241 C240 1.384 . S
C241 C242 1.377 . S
C242 H222 0.953 . S
C242 C241 1.377 . S
C242 C243 1.369 . S
C243 H223 0.945 . S
C243 C238 1.385 . S
C243 C242 1.369 . S
C244 C236 1.457 . S
C244 C245 1.372 . S
C244 C249 1.364 . S
C245 H224 0.952 . S
C245 C244 1.372 . S
C245 C246 1.389 . S
C246 H225 0.949 . S
C246 C245 1.389 . S
C246 C247 1.387 . S
C247 C246 1.387 . S
C247 C248 1.372 . S
C248 H226 0.950 . S
C248 C247 1.372 . S
C248 C249 1.379 . S
C249 H227 0.948 . S
C249 C244 1.364 . S
C249 C248 1.379 . S
C250 C219 1.383 . S
C250 C237 1.479 . S
C250 C251 1.398 . S
C251 C216 1.382 . S
C251 H228 0.951 . S
C251 C250 1.398 . S
C252 C253 1.384 . S
C252 H265 0.947 . S
C252 C287 1.382 . S
C253 C252 1.384 . S
C253 C254 1.378 . S
C254 C253 1.378 . S
C254 C255 1.378 . S
C254 H266 0.952 . S
C255 C254 1.378 . S
C255 H267 0.950 . S
C255 C286 1.383 . S
H256 C275 0.947 . S
H257 C276 0.946 . S
H258 C278 0.953 . S
H259 C279 0.945 1_556 S
H260 C281 0.952 . S
H261 C282 0.949 . S
H262 C284 0.950 . S
H263 C285 0.948 . S
H264 C287 0.951 . S
H265 C252 0.947 . S
H266 C254 0.952 . S
H267 C255 0.950 . S
N268 C271 1.382 . S
N268 C273 1.363 . S
N269 C271 1.371 1_556 S
N269 C272 1.372 . S
N270 C272 1.361 1_554 S
N270 C273 1.377 . S
C271 N268 1.382 . S
C271 N269 1.371 1_554 S
C271 C274 1.480 . S
C272 N269 1.372 . S
C272 N270 1.361 1_556 S
C272 C280 1.457 . S
C273 N268 1.363 . S
C273 N270 1.377 . S
C273 C286 1.479 . S
C274 C271 1.480 . S
C274 C275 1.383 . S
C274 C279 1.385 . S
C275 H256 0.947 . S
C275 C274 1.383 . S
C275 C276 1.388 . S
C276 H257 0.946 . S
C276 C275 1.388 . S
C276 C277 1.384 . S
C277 C276 1.384 . S
C277 C278 1.377 . S
C278 H258 0.953 . S
C278 C277 1.377 . S
C278 C279 1.369 . S
C279 H259 0.945 1_554 S
C279 C274 1.385 . S
C279 C278 1.369 . S
C280 C272 1.457 . S
C280 C281 1.372 . S
C280 C285 1.364 . S
C281 H260 0.952 . S
C281 C280 1.372 . S
C281 C282 1.389 . S
C282 H261 0.949 . S
C282 C281 1.389 . S
C282 C283 1.387 . S
C283 C282 1.387 . S
C283 C284 1.372 . S
C284 H262 0.950 . S
C284 C283 1.372 . S
C284 C285 1.379 . S
C285 H263 0.948 . S
C285 C280 1.364 . S
C285 C284 1.379 . S
C286 C255 1.383 . S
C286 C273 1.479 . S
C286 C287 1.398 . S
C287 C252 1.382 . S
C287 H264 0.951 . S
C287 C286 1.398 . S
C288 C290 1.422 . S
C288 C292 1.415 . S
C288 N294 1.369 . S
C289 C290 1.421 . S
C289 C291 1.417 . S
C289 C301 1.422 . S
C290 C288 1.422 . S
C290 C289 1.421 . S
C290 N300 1.359 . S
C291 C289 1.417 . S
C291 C293 1.329 . S
C291 H310 0.930 . S
C292 C288 1.415 . S
C292 C293 1.437 . S
C292 C296 1.413 . S
C293 C291 1.329 . S
C293 C292 1.437 . S
C293 H315 0.929 . S
N294 C288 1.369 . S
N294 C295 1.339 . S
N294 Gd299 2.622 1_545 S
C295 N294 1.339 . S
C295 C297 1.382 . S
C295 H307 0.924 1_545 S
C296 C292 1.413 . S
C296 C297 1.348 . S
C296 H312 0.931 . S
C297 C295 1.382 . S
C297 C296 1.348 . S
C297 H313 0.930 . S
Gd298 N318 2.622 . S
Gd298 N325 2.570 . S
Gd298 O332 2.353 1_655 S
Gd298 O333 2.468 . S
Gd298 O334 2.427 . S
Gd298 O336 2.388 . S
Gd298 O337 2.386 1_545 S
Gd298 O341 2.307 1_655 S
Gd298 C351 2.805 . S
Gd299 N294 2.622 1_565 S
Gd299 N300 2.570 1_565 S
Gd299 O331 2.386 1_565 S
Gd299 O335 2.307 1_465 S
Gd299 O338 2.353 . S
Gd299 O339 2.468 . S
Gd299 O340 2.427 . S
Gd299 O342 2.388 . S
Gd299 C363 2.805 . S
N300 C290 1.359 . S
N300 Gd299 2.570 1_545 S
N300 C302 1.343 . S
C301 C289 1.422 . S
C301 C303 1.321 . S
C301 H309 0.931 . S
C302 N300 1.343 . S
C302 C303 1.390 . S
C302 H304 0.901 1_455 S
C303 C301 1.321 . S
C303 C302 1.390 . S
C303 H305 0.930 . S
H304 C302 0.901 1_655 S
H305 C303 0.930 . S
H306 C329 0.931 1_455 S
H307 C295 0.924 1_565 S
H308 C330 0.930 1_455 S
H309 C301 0.931 . S
H310 C291 0.930 . S
H311 C320 0.929 . S
H312 C296 0.931 . S
H313 C297 0.930 . S
H314 C352 0.930 . S
H315 C293 0.929 . S
H316 C321 0.948 . S
H317 C322 0.930 . S
N318 Gd298 2.622 . S
N318 C319 1.369 . S
N318 C320 1.338 . S
C319 N318 1.369 . S
C319 C323 1.415 1_545 S
C319 C326 1.422 . S
C320 H311 0.929 . S
C320 N318 1.338 . S
C320 C322 1.378 . S
C321 H316 0.948 . S
C321 C322 1.328 1_565 S
C321 C323 1.417 . S
C322 H317 0.930 . S
C322 C320 1.378 . S
C322 C321 1.328 1_545 S
C323 C319 1.415 1_565 S
C323 C321 1.417 . S
C323 C353 1.437 . S
H324 C353 0.929 . S
N325 Gd298 2.570 . S
N325 C326 1.359 . S
N325 C329 1.343 . S
C326 C319 1.422 . S
C326 N325 1.359 . S
C326 C328 1.421 1_545 S
C327 C328 1.422 . S
C327 C330 1.321 . S
C327 H354 0.931 . S
C328 C326 1.421 1_565 S
C328 C327 1.422 . S
C328 C352 1.417 . S
C329 H306 0.931 1_655 S
C329 N325 1.343 . S
C329 C330 1.390 1_545 S
C330 H308 0.930 1_655 S
C330 C327 1.321 . S
C330 C329 1.390 1_565 S
O331 Gd299 2.386 1_545 S
O331 C343 1.265 . S
O332 Gd298 2.353 1_455 S
O332 C343 1.242 . S
O333 Gd298 2.468 . S
O333 C351 1.263 . S
O334 Gd298 2.427 . S
O334 C351 1.252 . S
O335 Gd299 2.307 1_645 S
O335 C344 1.261 . S
O336 Gd298 2.388 . S
O336 C344 1.252 . S
O337 Gd298 2.386 1_565 S
O337 C355 1.265 . S
O338 Gd299 2.353 . S
O338 C355 1.242 1_455 S
O339 Gd299 2.468 . S
O339 C363 1.263 . S
O340 Gd299 2.427 . S
O340 C363 1.252 . S
O341 Gd298 2.307 1_455 S
O341 C356 1.261 . S
O342 Gd299 2.388 . S
O342 C356 1.252 1_565 S
C343 O331 1.265 . S
C343 O332 1.242 . S
C344 O335 1.261 . S
C344 O336 1.252 . S
C345 C348 1.394 . S
C345 C350 1.370 . S
C345 C351 1.500 . S
C346 C349 1.383 . S
C346 C350 1.395 . S
C347 C348 1.396 . S
C347 C349 1.365 . S
C347 H364 0.929 . S
C348 C345 1.394 . S
C348 C347 1.396 . S
C348 H365 0.930 . S
C349 C346 1.383 . S
C349 C347 1.365 . S
C349 H366 0.931 . S
C350 C345 1.370 . S
C350 C346 1.395 . S
C350 H367 0.930 1_655 S
C351 Gd298 2.805 . S
C351 O333 1.263 . S
C351 O334 1.252 . S
C351 C345 1.500 . S
C352 H314 0.930 . S
C352 C328 1.417 . S
C352 C353 1.329 . S
C353 C323 1.437 . S
C353 H324 0.929 . S
C353 C352 1.329 . S
H354 C327 0.931 . S
C355 O337 1.265 . S
C355 O338 1.242 1_655 S
C356 O341 1.261 . S
C356 O342 1.252 1_545 S
C357 C360 1.394 . S
C357 C362 1.370 . S
C357 C363 1.500 . S
C358 C361 1.383 . S
C358 C362 1.395 . S
C359 C360 1.396 . S
C359 C361 1.365 . S
C359 H368 0.929 . S
C360 C357 1.394 . S
C360 C359 1.396 . S
C360 H369 0.930 . S
C361 C358 1.383 . S
C361 C359 1.365 . S
C361 H370 0.931 . S
C362 C357 1.370 . S
C362 C358 1.395 . S
C362 H371 0.930 . S
C363 Gd299 2.805 . S
C363 O339 1.263 . S
C363 O340 1.252 . S
C363 C357 1.500 . S
H364 C347 0.929 . S
H365 C348 0.930 . S
H366 C349 0.931 . S
H367 C350 0.930 1_455 S
H368 C359 0.929 . S
H369 C360 0.930 . S
H370 C361 0.931 . S
H371 C362 0.930 . S
C372 C374 1.422 . S
C372 C376 1.415 . S
C372 N378 1.369 . S
C373 C374 1.421 . S
C373 C375 1.417 . S
C373 C385 1.422 . S
C374 C372 1.422 . S
C374 C373 1.421 . S
C374 N384 1.359 . S
C375 C373 1.417 . S
C375 C377 1.329 . S
C375 H394 0.930 . S
C376 C372 1.415 . S
C376 C377 1.437 . S
C376 C380 1.413 . S
C377 C375 1.329 . S
C377 C376 1.437 . S
C377 H399 0.929 . S
N378 C372 1.369 . S
N378 C379 1.338 . S
N378 Gd383 2.622 . S
C379 N378 1.338 . S
C379 C381 1.378 . S
C379 H391 0.929 . S
C380 C376 1.413 . S
C380 C381 1.348 . S
C380 H396 0.931 . S
C381 C379 1.378 . S
C381 C380 1.348 . S
C381 H397 0.930 . S
Gd382 N402 2.622 . S
Gd382 N409 2.570 . S
Gd382 O416 2.353 1_545 S
Gd382 O417 2.468 . S
Gd382 O418 2.427 . S
Gd382 O420 2.388 . S
Gd382 O421 2.386 . S
Gd382 O425 2.307 . S
Gd382 C435 2.805 . S
Gd383 N378 2.622 . S
Gd383 N384 2.570 . S
Gd383 O415 2.386 . S
Gd383 O419 2.307 1_565 S
Gd383 O422 2.353 1_565 S
Gd383 O423 2.468 . S
Gd383 O424 2.427 . S
Gd383 O426 2.388 . S
Gd383 C447 2.805 . S
N384 C374 1.359 . S
N384 Gd383 2.570 . S
N384 C386 1.343 . S
C385 C373 1.422 . S
C385 C387 1.321 . S
C385 H393 0.931 . S
C386 N384 1.343 . S
C386 C387 1.390 . S
C386 H388 0.931 . S
C387 C385 1.321 . S
C387 C386 1.390 . S
C387 H389 0.930 . S
H388 C386 0.931 . S
H389 C387 0.930 . S
H390 C413 0.931 . S
H391 C379 0.929 . S
H392 C414 0.930 . S
H393 C385 0.931 . S
H394 C375 0.930 . S
H395 C404 0.929 . S
H396 C380 0.931 . S
H397 C381 0.930 . S
H398 C436 0.930 . S
H399 C377 0.929 . S
H400 C405 0.931 . S
H401 C406 0.930 . S
N402 Gd382 2.622 . S
N402 C403 1.369 . S
N402 C404 1.338 . S
C403 N402 1.369 . S
C403 C407 1.415 . S
C403 C410 1.422 . S
C404 H395 0.929 . S
C404 N402 1.338 . S
C404 C406 1.378 . S
C405 H400 0.931 . S
C405 C406 1.348 . S
C405 C407 1.413 . S
C406 H401 0.930 . S
C406 C404 1.378 . S
C406 C405 1.348 . S
C407 C403 1.415 . S
C407 C405 1.413 . S
C407 C437 1.437 . S
H408 C437 0.929 . S
N409 Gd382 2.570 . S
N409 C410 1.359 . S
N409 C413 1.343 . S
C410 C403 1.422 . S
C410 N409 1.359 . S
C410 C412 1.421 . S
C411 C412 1.422 . S
C411 C414 1.321 . S
C411 H438 0.931 . S
C412 C410 1.421 . S
C412 C411 1.422 . S
C412 C436 1.417 . S
C413 H390 0.931 . S
C413 N409 1.343 . S
C413 C414 1.390 . S
C414 H392 0.930 . S
C414 C411 1.321 . S
C414 C413 1.390 . S
O415 Gd383 2.386 . S
O415 C427 1.265 . S
O416 Gd382 2.353 1_565 S
O416 C427 1.242 . S
O417 Gd382 2.468 . S
O417 C435 1.263 . S
O418 Gd382 2.427 . S
O418 C435 1.252 . S
O419 Gd383 2.307 1_545 S
O419 C428 1.261 . S
O420 Gd382 2.388 . S
O420 C428 1.252 . S
O421 Gd382 2.386 . S
O421 C439 1.265 . S
O422 Gd383 2.353 1_545 S
O422 C439 1.242 . S
O423 Gd383 2.468 . S
O423 C447 1.263 . S
O424 Gd383 2.427 . S
O424 C447 1.252 . S
O425 Gd382 2.307 . S
O425 C440 1.250 1_545 S
O426 Gd383 2.388 . S
O426 C440 1.259 . S
C427 O415 1.265 . S
C427 O416 1.242 . S
C428 O419 1.261 . S
C428 O420 1.252 . S
C429 C432 1.394 . S
C429 C434 1.370 . S
C429 C435 1.500 . S
C430 C433 1.383 . S
C430 C434 1.395 . S
C431 C432 1.396 . S
C431 C433 1.365 . S
C431 H448 0.929 . S
C432 C429 1.394 . S
C432 C431 1.396 . S
C432 H449 0.930 . S
C433 C430 1.383 . S
C433 C431 1.365 . S
C433 H450 0.931 . S
C434 C429 1.370 . S
C434 C430 1.395 . S
C434 H451 0.930 . S
C435 Gd382 2.805 . S
C435 O417 1.263 . S
C435 O418 1.252 . S
C435 C429 1.500 . S
C436 H398 0.930 . S
C436 C412 1.417 . S
C436 C437 1.329 . S
C437 C407 1.437 . S
C437 H408 0.929 . S
C437 C436 1.329 . S
H438 C411 0.931 . S
C439 O421 1.265 . S
C439 O422 1.242 . S
C440 O425 1.250 1_565 S
C440 O426 1.259 . S
C441 C444 1.394 . S
C441 C446 1.370 1_565 S
C441 C447 1.500 . S
C442 C445 1.383 1_545 S
C442 C446 1.395 . S
C443 C444 1.396 . S
C443 C445 1.365 . S
C443 H452 0.929 . S
C444 C441 1.394 . S
C444 C443 1.396 . S
C444 H453 0.930 . S
C445 C442 1.383 1_565 S
C445 C443 1.365 . S
C445 H454 0.931 . S
C446 C441 1.370 1_545 S
C446 C442 1.395 . S
C446 H455 0.930 . S
C447 Gd383 2.805 . S
C447 O423 1.263 . S
C447 O424 1.252 . S
C447 C441 1.500 . S
H448 C431 0.929 . S
H449 C432 0.930 . S
H450 C433 0.931 . S
H451 C434 0.930 . S
H452 C443 0.929 . S
H453 C444 0.930 . S
H454 C445 0.931 . S
H455 C446 0.930 . S
C456 C458 1.422 . S
C456 C460 1.415 . S
C456 N462 1.369 . S
C457 C458 1.421 . S
C457 C459 1.417 . S
C457 C469 1.422 . S
C458 C456 1.422 . S
C458 C457 1.421 . S
C458 N468 1.359 . S
C459 C457 1.417 . S
C459 C461 1.329 . S
C459 H478 0.930 . S
C460 C456 1.415 . S
C460 C461 1.437 . S
C460 C464 1.413 . S
C461 C459 1.329 . S
C461 C460 1.437 . S
C461 H483 0.929 . S
N462 C456 1.369 . S
N462 C463 1.338 . S
N462 Gd467 2.622 . S
C463 N462 1.338 . S
C463 C465 1.378 . S
C463 H475 0.929 . S
C464 C460 1.413 . S
C464 C465 1.348 . S
C464 H480 0.931 . S
C465 C463 1.378 . S
C465 C464 1.348 . S
C465 H481 0.930 . S
Gd466 N486 2.622 . S
Gd466 N493 2.570 . S
Gd466 O500 2.353 . S
Gd466 O501 2.468 . S
Gd466 O502 2.427 . S
Gd466 O504 2.388 . S
Gd466 O505 2.386 . S
Gd466 O509 2.307 . S
Gd466 C519 2.805 . S
Gd467 N462 2.622 . S
Gd467 N468 2.570 . S
Gd467 O499 2.386 . S
Gd467 O503 2.307 . S
Gd467 O506 2.353 . S
Gd467 O507 2.468 . S
Gd467 O508 2.427 . S
Gd467 O510 2.388 . S
Gd467 C531 2.805 . S
N468 C458 1.359 . S
N468 Gd467 2.570 . S
N468 C470 1.343 . S
C469 C457 1.422 . S
C469 C471 1.321 . S
C469 H477 0.931 . S
C470 N468 1.343 . S
C470 C471 1.390 . S
C470 H472 0.931 . S
C471 C469 1.321 . S
C471 C470 1.390 . S
C471 H473 0.930 . S
H472 C470 0.931 . S
H473 C471 0.930 . S
H474 C497 0.931 . S
H475 C463 0.929 . S
H476 C498 0.930 . S
H477 C469 0.931 . S
H478 C459 0.930 . S
H479 C488 0.929 . S
H480 C464 0.931 . S
H481 C465 0.930 . S
H482 C520 0.930 . S
H483 C461 0.929 . S
H484 C489 0.931 . S
H485 C490 0.930 . S
N486 Gd466 2.622 . S
N486 C487 1.369 . S
N486 C488 1.338 . S
C487 N486 1.369 . S
C487 C491 1.415 . S
C487 C494 1.422 . S
C488 H479 0.929 . S
C488 N486 1.338 . S
C488 C490 1.378 . S
C489 H484 0.931 . S
C489 C490 1.348 . S
C489 C491 1.413 . S
C490 H485 0.930 . S
C490 C488 1.378 . S
C490 C489 1.348 . S
C491 C487 1.415 . S
C491 C489 1.413 . S
C491 C521 1.437 . S
H492 C521 0.929 . S
N493 Gd466 2.570 . S
N493 C494 1.359 . S
N493 C497 1.343 . S
C494 C487 1.422 . S
C494 N493 1.359 . S
C494 C496 1.421 . S
C495 C496 1.422 . S
C495 C498 1.321 . S
C495 H522 0.931 . S
C496 C494 1.421 . S
C496 C495 1.422 . S
C496 C520 1.417 . S
C497 H474 0.931 . S
C497 N493 1.343 . S
C497 C498 1.390 . S
C498 H476 0.930 . S
C498 C495 1.321 . S
C498 C497 1.390 . S
O499 Gd467 2.386 . S
O499 C511 1.265 . S
O500 Gd466 2.353 . S
O500 C511 1.242 . S
O501 Gd466 2.468 . S
O501 C519 1.263 . S
O502 Gd466 2.427 . S
O502 C519 1.252 . S
O503 Gd467 2.307 . S
O503 C512 1.261 . S
O504 Gd466 2.388 . S
O504 C512 1.252 . S
O505 Gd466 2.386 . S
O505 C523 1.265 . S
O506 Gd467 2.353 . S
O506 C523 1.242 . S
O507 Gd467 2.468 . S
O507 C531 1.263 . S
O508 Gd467 2.427 . S
O508 C531 1.252 . S
O509 Gd466 2.307 . S
O509 C524 1.261 . S
O510 Gd467 2.388 . S
O510 C524 1.252 . S
C511 O499 1.265 . S
C511 O500 1.242 . S
C512 O503 1.261 . S
C512 O504 1.252 . S
C513 C516 1.394 . S
C513 C518 1.370 . S
C513 C519 1.500 . S
C514 C517 1.383 . S
C514 C518 1.395 . S
C515 C516 1.396 . S
C515 C517 1.365 . S
C515 H532 0.929 . S
C516 C513 1.394 . S
C516 C515 1.396 . S
C516 H533 0.930 . S
C517 C514 1.383 . S
C517 C515 1.365 . S
C517 H534 0.931 . S
C518 C513 1.370 . S
C518 C514 1.395 . S
C518 H535 0.930 . S
C519 Gd466 2.805 . S
C519 O501 1.263 . S
C519 O502 1.252 . S
C519 C513 1.500 . S
C520 H482 0.930 . S
C520 C496 1.417 . S
C520 C521 1.329 . S
C521 C491 1.437 . S
C521 H492 0.929 . S
C521 C520 1.329 . S
H522 C495 0.931 . S
C523 O505 1.265 . S
C523 O506 1.242 . S
C524 O509 1.261 . S
C524 O510 1.252 . S
C525 C528 1.394 . S
C525 C530 1.370 . S
C525 C531 1.500 . S
C526 C529 1.383 . S
C526 C530 1.395 . S
C527 C528 1.396 . S
C527 C529 1.365 . S
C527 H536 0.929 . S
C528 C525 1.394 . S
C528 C527 1.396 . S
C528 H537 0.930 . S
C529 C526 1.383 . S
C529 C527 1.365 . S
C529 H538 0.931 . S
C530 C525 1.370 . S
C530 C526 1.395 . S
C530 H539 0.930 . S
C531 Gd467 2.805 . S
C531 O507 1.263 . S
C531 O508 1.252 . S
C531 C525 1.500 . S
H532 C515 0.929 . S
H533 C516 0.930 . S
H534 C517 0.931 . S
H535 C518 0.930 . S
H536 C527 0.929 . S
H537 C528 0.930 . S
H538 C529 0.931 . S
H539 C530 0.930 . S
C540 C542 1.422 . S
C540 C544 1.415 . S
C540 N546 1.369 1_455 S
C541 C542 1.421 . S
C541 C543 1.417 . S
C541 C553 1.422 . S
C542 C540 1.422 . S
C542 C541 1.421 . S
C542 N552 1.359 . S
C543 C541 1.417 . S
C543 C545 1.329 . S
C543 H562 0.930 . S
C544 C540 1.415 . S
C544 C545 1.437 . S
C544 C548 1.413 . S
C545 C543 1.329 . S
C545 C544 1.437 . S
C545 H567 0.929 . S
N546 C540 1.369 1_655 S
N546 C547 1.338 . S
N546 Gd551 2.622 . S
C547 N546 1.338 . S
C547 C549 1.378 1_655 S
C547 H559 0.929 . S
C548 C544 1.413 . S
C548 C549 1.348 . S
C548 H564 0.931 . S
C549 C547 1.378 1_455 S
C549 C548 1.348 . S
C549 H565 0.928 1_455 S
Gd550 N570 2.622 . S
Gd550 N577 2.570 . S
Gd550 O584 2.353 . S
Gd550 O585 2.468 . S
Gd550 O586 2.427 . S
Gd550 O588 2.388 . S
Gd550 O589 2.386 1_455 S
Gd550 O593 2.307 . S
Gd550 C603 2.805 . S
Gd551 N546 2.622 . S
Gd551 N552 2.570 1_655 S
Gd551 O583 2.386 1_655 S
Gd551 O587 2.321 . S
Gd551 O590 2.353 . S
Gd551 O591 2.468 . S
Gd551 O592 2.427 . S
Gd551 O594 2.388 . S
Gd551 C615 2.805 . S
N552 C542 1.359 . S
N552 Gd551 2.570 1_455 S
N552 C554 1.343 . S
C553 C541 1.422 . S
C553 C555 1.321 . S
C553 H561 0.931 . S
C554 N552 1.343 . S
C554 C555 1.390 . S
C554 H556 0.931 1_455 S
C555 C553 1.321 . S
C555 C554 1.390 . S
C555 H557 0.930 . S
H556 C554 0.931 1_655 S
H557 C555 0.930 . S
H558 C581 0.931 . S
H559 C547 0.929 . S
H560 C582 0.930 . S
H561 C553 0.931 . S
H562 C543 0.930 . S
H563 C572 0.929 . S
H564 C548 0.931 . S
H565 C549 0.928 1_655 S
H566 C604 0.930 . S
H567 C545 0.929 . S
H568 C573 0.931 . S
H569 C574 0.930 . S
N570 Gd550 2.622 . S
N570 C571 1.369 . S
N570 C572 1.338 . S
C571 N570 1.369 . S
C571 C575 1.415 1_455 S
C571 C578 1.425 . S
C572 H563 0.929 . S
C572 N570 1.338 . S
C572 C574 1.378 . S
C573 H568 0.931 . S
C573 C574 1.348 1_655 S
C573 C575 1.413 . S
C574 H569 0.930 . S
C574 C572 1.378 . S
C574 C573 1.348 1_455 S
C575 C571 1.415 1_655 S
C575 C573 1.413 . S
C575 C605 1.437 . S
H576 C605 0.929 . S
N577 Gd550 2.570 . S
N577 C578 1.367 . S
N577 C581 1.343 . S
C578 C571 1.425 . S
C578 N577 1.367 . S
C578 C580 1.410 1_455 S
C579 C580 1.422 . S
C579 C582 1.321 . S
C579 H606 0.931 . S
C580 C578 1.410 1_655 S
C580 C579 1.422 . S
C580 C604 1.417 . S
C581 H558 0.931 . S
C581 N577 1.343 . S
C581 C582 1.390 1_455 S
C582 H560 0.930 . S
C582 C579 1.321 . S
C582 C581 1.390 1_655 S
O583 Gd551 2.386 1_455 S
O583 C595 1.265 . S
O584 Gd550 2.353 . S
O584 C595 1.242 . S
O585 Gd550 2.468 . S
O585 C603 1.263 . S
O586 Gd550 2.427 . S
O586 C603 1.252 . S
O587 Gd551 2.321 . S
O587 C596 1.252 1_655 S
O588 Gd550 2.388 . S
O588 C596 1.252 . S
O589 Gd550 2.386 1_655 S
O589 C607 1.265 . S
O590 Gd551 2.353 . S
O590 C607 1.242 . S
O591 Gd551 2.468 . S
O591 C615 1.263 . S
O592 Gd551 2.427 . S
O592 C615 1.252 . S
O593 Gd550 2.307 . S
O593 C608 1.261 . S
O594 Gd551 2.388 . S
O594 C608 1.252 1_655 S
C595 O583 1.265 . S
C595 O584 1.242 . S
C596 O587 1.252 1_455 S
C596 O588 1.252 . S
C597 C600 1.394 . S
C597 C602 1.370 . S
C597 C603 1.500 . S
C598 C601 1.383 . S
C598 C602 1.395 . S
C599 C600 1.396 . S
C599 C601 1.365 . S
C599 H616 0.929 . S
C600 C597 1.394 . S
C600 C599 1.396 . S
C600 H617 0.930 . S
C601 C598 1.383 . S
C601 C599 1.365 . S
C601 H618 0.931 . S
C602 C597 1.370 . S
C602 C598 1.395 . S
C602 H619 0.930 . S
C603 Gd550 2.805 . S
C603 O585 1.263 . S
C603 O586 1.252 . S
C603 C597 1.500 . S
C604 H566 0.930 . S
C604 C580 1.417 . S
C604 C605 1.329 . S
C605 C575 1.437 . S
C605 H576 0.929 . S
C605 C604 1.329 . S
H606 C579 0.931 . S
C607 O589 1.265 . S
C607 O590 1.242 . S
C608 O593 1.261 . S
C608 O594 1.252 1_455 S
C609 C612 1.394 . S
C609 C614 1.370 . S
C609 C615 1.500 . S
C610 C613 1.383 . S
C610 C614 1.395 . S
C611 C612 1.396 . S
C611 C613 1.365 . S
C611 H620 0.929 . S
C612 C609 1.394 . S
C612 C611 1.396 . S
C612 H621 0.930 . S
C613 C610 1.383 . S
C613 C611 1.365 . S
C613 H622 0.931 . S
C614 C609 1.370 . S
C614 C610 1.395 . S
C614 H623 0.930 . S
C615 Gd551 2.805 . S
C615 O591 1.263 . S
C615 O592 1.252 . S
C615 C609 1.500 . S
H616 C599 0.929 . S
H617 C600 0.930 . S
H618 C601 0.931 . S
H619 C602 0.930 . S
H620 C611 0.929 . S
H621 C612 0.930 . S
H622 C613 0.931 . S
H623 C614 0.930 . S
H624 C630 0.930 . S
H625 C634 0.930 1_565 S
H626 C639 0.929 . S
H627 C637 0.929 . S
H628 C632 0.929 1_565 S
H629 C638 0.929 . S
C630 H624 0.930 . S
C630 C631 1.367 . S
C630 C638 1.378 . S
C631 C630 1.367 . S
C631 C639 1.433 . S
C632 H628 0.929 1_545 S
C632 C634 1.378 . S
C632 C636 1.350 . S
C633 C636 1.463 . S
C633 C638 1.350 . S
C633 N641 1.427 . S
C634 H625 0.930 1_545 S
C634 C632 1.378 . S
C634 C635 1.367 . S
C635 C634 1.367 . S
C635 C637 1.433 . S
C636 C632 1.350 . S
C636 C633 1.463 . S
C636 N640 1.427 . S
C637 H627 0.929 . S
C637 C635 1.433 . S
C637 N640 1.384 . S
C638 H629 0.929 . S
C638 C630 1.378 . S
C638 C633 1.350 . S
C639 H626 0.929 . S
C639 C631 1.433 . S
C639 N641 1.384 . S
N640 C636 1.427 . S
N640 C637 1.384 . S
N641 C633 1.427 . S
N641 C639 1.384 . S
H642 C648 0.930 . S
H643 C652 0.930 . S
H644 C657 0.929 . S
H645 C655 0.929 . S
H646 C650 0.929 . S
H647 C656 0.929 . S
C648 H642 0.930 . S
C648 C649 1.367 . S
C648 C656 1.378 . S
C649 C648 1.367 . S
C649 C657 1.433 . S
C650 H646 0.929 . S
C650 C652 1.378 . S
C650 C654 1.350 . S
C651 C654 1.463 . S
C651 C656 1.350 . S
C651 N659 1.427 . S
C652 H643 0.930 . S
C652 C650 1.378 . S
C652 C653 1.367 . S
C653 C652 1.367 . S
C653 C655 1.433 . S
C654 C650 1.350 . S
C654 C651 1.463 . S
C654 N658 1.427 . S
C655 H645 0.929 . S
C655 C653 1.433 . S
C655 N658 1.384 . S
C656 H647 0.929 . S
C656 C648 1.378 . S
C656 C651 1.350 . S
C657 H644 0.929 . S
C657 C649 1.433 . S
C657 N659 1.384 . S
N658 C654 1.427 . S
N658 C655 1.384 . S
N659 C651 1.427 . S
N659 C657 1.384 . S
H660 C666 0.930 . S
H661 C670 0.930 . S
H662 C675 0.929 . S
H663 C673 0.929 . S
H664 C668 0.929 . S
H665 C674 0.929 . S
C666 H660 0.930 . S
C666 C667 1.367 . S
C666 C674 1.378 . S
C667 C666 1.367 . S
C667 C675 1.433 . S
C668 H664 0.929 . S
C668 C670 1.378 . S
C668 C672 1.350 . S
C669 C672 1.463 . S
C669 C674 1.350 . S
C669 N677 1.427 . S
C670 H661 0.930 . S
C670 C668 1.378 . S
C670 C671 1.367 . S
C671 C670 1.367 . S
C671 C673 1.433 . S
C672 C668 1.350 . S
C672 C669 1.463 . S
C672 N676 1.427 . S
C673 H663 0.929 . S
C673 C671 1.433 . S
C673 N676 1.384 . S
C674 H665 0.929 . S
C674 C666 1.378 . S
C674 C669 1.350 . S
C675 H662 0.929 . S
C675 C667 1.433 . S
C675 N677 1.384 . S
N676 C672 1.427 . S
N676 C673 1.384 . S
N677 C669 1.427 . S
N677 C675 1.384 . S
H678 C684 0.930 . S
H679 C688 0.930 . S
H680 C693 0.929 . S
H681 C691 0.929 1_655 S
H682 C686 0.929 . S
H683 C692 0.929 . S
C684 H678 0.930 . S
C684 C685 1.367 . S
C684 C692 1.378 . S
C685 C684 1.367 . S
C685 C693 1.433 . S
C686 H682 0.929 . S
C686 C688 1.378 . S
C686 C690 1.350 . S
C687 C690 1.463 . S
C687 C692 1.350 . S
C687 N695 1.427 . S
C688 H679 0.930 . S
C688 C686 1.378 . S
C688 C689 1.367 . S
C689 C688 1.367 . S
C689 C691 1.433 . S
C690 C686 1.350 . S
C690 C687 1.463 . S
C690 N694 1.427 . S
C691 H681 0.929 1_455 S
C691 C689 1.433 . S
C691 N694 1.384 . S
C692 H683 0.929 . S
C692 C684 1.378 . S
C692 C687 1.350 . S
C693 H680 0.929 . S
C693 C685 1.433 . S
C693 N695 1.384 . S
N694 C690 1.427 . S
N694 C691 1.384 . S
N695 C687 1.427 . S
N695 C693 1.384 . S
H696 C702 0.930 . S
H697 C706 0.930 . S
H698 C711 0.929 . S
H699 C709 0.929 1_545 S
H700 C704 0.929 . S
H701 C710 0.929 . S
C702 H696 0.930 . S
C702 C703 1.367 . S
C702 C710 1.378 1_554 S
C703 C702 1.367 . S
C703 C711 1.433 . S
C704 H700 0.929 . S
C704 C706 1.378 . S
C704 C708 1.350 . S
C705 C708 1.463 . S
C705 C710 1.350 . S
C705 N713 1.427 1_556 S
C706 H697 0.930 . S
C706 C704 1.378 . S
C706 C707 1.367 . S
C707 C706 1.367 . S
C707 C709 1.433 . S
C708 C704 1.350 . S
C708 C705 1.463 . S
C708 N712 1.427 . S
C709 H699 0.929 1_565 S
C709 C707 1.433 . S
C709 N712 1.384 . S
C710 H701 0.929 . S
C710 C702 1.378 1_556 S
C710 C705 1.350 . S
C711 H698 0.929 . S
C711 C703 1.433 . S
C711 N713 1.384 . S
N712 C708 1.427 . S
N712 C709 1.384 . S
N713 C705 1.427 1_554 S
N713 C711 1.384 . S
H714 C720 0.930 . S
H715 C724 0.930 . S
H716 C729 0.929 . S
H717 C727 0.929 . S
H718 C722 0.929 . S
H719 C728 0.929 . S
C720 H714 0.930 . S
C720 C721 1.367 . S
C720 C728 1.378 . S
C721 C720 1.367 . S
C721 C729 1.433 . S
C722 H718 0.929 . S
C722 C724 1.378 . S
C722 C726 1.350 . S
C723 C726 1.463 . S
C723 C728 1.350 1_556 S
C723 N731 1.427 1_556 S
C724 H715 0.930 . S
C724 C722 1.378 . S
C724 C725 1.367 . S
C725 C724 1.367 . S
C725 C727 1.433 . S
C726 C722 1.350 . S
C726 C723 1.463 . S
C726 N730 1.427 . S
C727 H717 0.929 . S
C727 C725 1.433 . S
C727 N730 1.384 . S
C728 H719 0.929 . S
C728 C720 1.378 . S
C728 C723 1.350 1_554 S
C729 H716 0.929 . S
C729 C721 1.433 . S
C729 N731 1.384 . S
N730 C726 1.427 . S
N730 C727 1.384 . S
N731 C723 1.427 1_554 S
N731 C729 1.384 . S
H732 C738 0.930 . S
H733 C742 0.930 . S
H734 C747 0.929 . S
H735 C745 0.929 . S
H736 C740 0.929 . S
H737 C746 0.929 . S
C738 H732 0.930 . S
C738 C739 1.367 . S
C738 C746 1.378 . S
C739 C738 1.367 . S
C739 C747 1.433 . S
C740 H736 0.929 . S
C740 C742 1.378 . S
C740 C744 1.350 . S
C741 C744 1.463 . S
C741 C746 1.350 1_556 S
C741 N749 1.427 1_556 S
C742 H733 0.930 . S
C742 C740 1.378 . S
C742 C743 1.367 . S
C743 C742 1.367 . S
C743 C745 1.433 . S
C744 C740 1.350 . S
C744 C741 1.463 . S
C744 N748 1.427 . S
C745 H735 0.929 . S
C745 C743 1.433 . S
C745 N748 1.384 . S
C746 H737 0.929 . S
C746 C738 1.378 . S
C746 C741 1.350 1_554 S
C747 H734 0.929 . S
C747 C739 1.433 . S
C747 N749 1.384 . S
N748 C744 1.427 . S
N748 C745 1.384 . S
N749 C741 1.427 1_554 S
N749 C747 1.384 . S
H750 C756 0.930 1_455 S
H751 C760 0.930 . S
H752 C765 0.929 . S
H753 C763 0.929 . S
H754 C758 0.929 . S
H755 C764 0.929 1_456 S
C756 H750 0.930 1_655 S
C756 C757 1.367 . S
C756 C764 1.378 . S
C757 C756 1.367 . S
C757 C765 1.433 . S
C758 H754 0.929 . S
C758 C760 1.378 . S
C758 C762 1.350 . S
C759 C762 1.463 . S
C759 C764 1.350 1_556 S
C759 N767 1.427 1_556 S
C760 H751 0.930 . S
C760 C758 1.378 . S
C760 C761 1.367 . S
C761 C760 1.367 . S
C761 C763 1.433 1_655 S
C762 C758 1.350 . S
C762 C759 1.463 . S
C762 N766 1.427 1_655 S
C763 H753 0.929 . S
C763 C761 1.433 1_455 S
C763 N766 1.384 . S
C764 H755 0.929 1_654 S
C764 C756 1.378 . S
C764 C759 1.350 1_554 S
C765 H752 0.929 . S
C765 C757 1.433 . S
C765 N767 1.384 . S
N766 C762 1.427 1_455 S
N766 C763 1.384 . S
N767 C759 1.427 1_554 S
N767 C765 1.384 . S
H768 C774 0.930 . S
H769 C778 0.930 . S
H770 C783 0.929 . S
H771 C781 0.929 . S
H772 C776 0.929 . S
H773 C782 0.929 . S
C774 H768 0.930 . S
C774 C775 1.367 . S
C774 C782 1.378 . S
C775 C774 1.367 . S
C775 C783 1.433 . S
C776 H772 0.929 . S
C776 C778 1.378 1_455 S
C776 C780 1.350 . S
C777 C780 1.463 . S
C777 C782 1.350 . S
C777 N785 1.427 . S
C778 H769 0.930 . S
C778 C776 1.378 1_655 S
C778 C779 1.367 . S
C779 C778 1.367 . S
C779 C781 1.433 1_655 S
C780 C776 1.350 . S
C780 C777 1.463 . S
C780 N784 1.427 . S
C781 H771 0.929 . S
C781 C779 1.433 1_455 S
C781 N784 1.384 . S
C782 H773 0.929 . S
C782 C774 1.378 . S
C782 C777 1.350 . S
C783 H770 0.929 . S
C783 C775 1.433 . S
C783 N785 1.384 . S
N784 C780 1.427 . S
N784 C781 1.384 . S
N785 C777 1.427 . S
N785 C783 1.384 . S
H786 C792 0.930 . S
H787 C796 0.930 . S
H788 C801 0.929 . S
H789 C799 0.929 . S
H790 C794 0.934 . S
H791 C800 0.929 . S
C792 H786 0.930 . S
C792 C793 1.367 . S
C792 C800 1.378 . S
C793 C792 1.367 . S
C793 C801 1.433 . S
C794 H790 0.934 . S
C794 C796 1.382 . S
C794 C798 1.340 1_565 S
C795 C798 1.463 . S
C795 C800 1.350 . S
C795 N803 1.427 . S
C796 H787 0.930 . S
C796 C794 1.382 . S
C796 C797 1.367 1_565 S
C797 C796 1.367 1_545 S
C797 C799 1.433 . S
C798 C794 1.340 1_545 S
C798 C795 1.463 . S
C798 N802 1.427 . S
C799 H789 0.929 . S
C799 C797 1.433 . S
C799 N802 1.384 . S
C800 H791 0.929 . S
C800 C792 1.378 . S
C800 C795 1.350 . S
C801 H788 0.929 . S
C801 C793 1.433 . S
C801 N803 1.384 . S
N802 C798 1.427 . S
N802 C799 1.384 . S
N803 C795 1.427 . S
N803 C801 1.384 . S
H804 C810 0.930 . S
H805 C814 0.930 . S
H806 C819 0.929 . S
H807 C817 0.929 . S
H808 C812 0.929 . S
H809 C818 0.929 . S
C810 H804 0.930 . S
C810 C811 1.367 . S
C810 C818 1.378 . S
C811 C810 1.367 . S
C811 C819 1.433 . S
C812 H808 0.929 . S
C812 C814 1.378 . S
C812 C816 1.350 . S
C813 C816 1.463 . S
C813 C818 1.350 . S
C813 N821 1.427 . S
C814 H805 0.930 . S
C814 C812 1.378 . S
C814 C815 1.367 . S
C815 C814 1.367 . S
C815 C817 1.433 . S
C816 C812 1.350 . S
C816 C813 1.463 . S
C816 N820 1.427 . S
C817 H807 0.929 . S
C817 C815 1.433 . S
C817 N820 1.384 . S
C818 H809 0.929 . S
C818 C810 1.378 . S
C818 C813 1.350 . S
C819 H806 0.929 . S
C819 C811 1.433 . S
C819 N821 1.384 . S
N820 C816 1.427 . S
N820 C817 1.384 . S
N821 C813 1.427 . S
N821 C819 1.384 . S
H822 C828 0.930 . S
H823 C832 0.930 . S
H824 C837 0.929 . S
H825 C835 0.929 . S
H826 C830 0.929 . S
H827 C836 0.929 . S
C828 H822 0.930 . S
C828 C829 1.367 . S
C828 C836 1.378 . S
C829 C828 1.367 . S
C829 C837 1.433 . S
C830 H826 0.929 . S
C830 C832 1.378 . S
C830 C834 1.350 . S
C831 C834 1.463 . S
C831 C836 1.350 . S
C831 N839 1.427 . S
C832 H823 0.930 . S
C832 C830 1.378 . S
C832 C833 1.367 . S
C833 C832 1.367 . S
C833 C835 1.433 . S
C834 C830 1.350 . S
C834 C831 1.463 . S
C834 N838 1.427 . S
C835 H825 0.929 . S
C835 C833 1.433 . S
C835 N838 1.384 . S
C836 H827 0.929 . S
C836 C828 1.378 . S
C836 C831 1.350 . S
C837 H824 0.929 . S
C837 C829 1.433 . S
C837 N839 1.384 . S
N838 C834 1.427 . S
N838 C835 1.384 . S
N839 C831 1.427 . S
N839 C837 1.384 . S
H840 C846 0.930 . S
H841 C850 0.930 . S
H842 C855 0.929 . S
H843 C853 0.929 . S
H844 C848 0.929 . S
H845 C854 0.929 1_455 S
C846 H840 0.930 . S
C846 C847 1.367 . S
C846 C854 1.378 . S
C847 C846 1.367 . S
C847 C855 1.433 1_554 S
C848 H844 0.929 . S
C848 C850 1.378 . S
C848 C852 1.350 . S
C849 C852 1.463 . S
C849 C854 1.350 1_556 S
C849 N857 1.427 . S
C850 H841 0.930 . S
C850 C848 1.378 . S
C850 C851 1.367 1_655 S
C851 C850 1.367 1_455 S
C851 C853 1.433 . S
C852 C848 1.350 . S
C852 C849 1.463 . S
C852 N856 1.427 1_655 S
C853 H843 0.929 . S
C853 C851 1.433 . S
C853 N856 1.384 . S
C854 H845 0.929 1_655 S
C854 C846 1.378 . S
C854 C849 1.350 1_554 S
C855 H842 0.929 . S
C855 C847 1.433 1_556 S
C855 N857 1.384 . S
N856 C852 1.427 1_455 S
N856 C853 1.384 . S
N857 C849 1.427 . S
N857 C855 1.384 . S
H858 C864 0.930 . S
H859 C868 0.930 . S
H860 C873 0.929 . S
H861 C871 0.929 . S
H862 C866 0.929 1_554 S
H863 C872 0.929 . S
C864 H858 0.930 . S
C864 C865 1.367 1_556 S
C864 C872 1.378 . S
C865 C864 1.367 1_554 S
C865 C873 1.433 . S
C866 H862 0.929 1_556 S
C866 C868 1.378 . S
C866 C870 1.350 1_545 S
C867 C870 1.463 . S
C867 C872 1.350 . S
C867 N875 1.427 1_556 S
C868 H859 0.930 . S
C868 C866 1.378 . S
C868 C869 1.367 . S
C869 C868 1.367 . S
C869 C871 1.433 . S
C870 C866 1.350 1_565 S
C870 C867 1.463 . S
C870 N874 1.427 . S
C871 H861 0.929 . S
C871 C869 1.433 . S
C871 N874 1.384 1_545 S
C872 H863 0.929 . S
C872 C864 1.378 . S
C872 C867 1.350 . S
C873 H860 0.929 . S
C873 C865 1.433 . S
C873 N875 1.384 . S
N874 C870 1.427 . S
N874 C871 1.384 1_565 S
N875 C867 1.427 1_554 S
N875 C873 1.384 . S
H876 C882 0.930 . S
H877 C886 0.930 . S
H878 C891 0.929 . S
H879 C889 0.929 . S
H880 C884 0.929 1_554 S
H881 C890 0.929 . S
C882 H876 0.930 . S
C882 C883 1.367 1_556 S
C882 C890 1.378 . S
C883 C882 1.367 1_554 S
C883 C891 1.433 . S
C884 H880 0.929 1_556 S
C884 C886 1.378 . S
C884 C888 1.350 . S
C885 C888 1.463 . S
C885 C890 1.350 . S
C885 N893 1.427 1_556 S
C886 H877 0.930 . S
C886 C884 1.378 . S
C886 C887 1.367 . S
C887 C886 1.367 . S
C887 C889 1.433 . S
C888 C884 1.350 . S
C888 C885 1.463 . S
C888 N892 1.427 . S
C889 H879 0.929 . S
C889 C887 1.433 . S
C889 N892 1.384 . S
C890 H881 0.929 . S
C890 C882 1.378 . S
C890 C885 1.350 . S
C891 H878 0.929 . S
C891 C883 1.433 . S
C891 N893 1.384 . S
N892 C888 1.427 . S
N892 C889 1.384 . S
N893 C885 1.427 1_554 S
N893 C891 1.384 . S
H894 C900 0.930 . S
H895 C904 0.930 . S
H896 C909 0.929 . S
H897 C907 0.929 . S
H898 C902 0.929 . S
H899 C908 0.929 . S
C900 H894 0.930 . S
C900 C901 1.367 1_556 S
C900 C908 1.378 . S
C901 C900 1.367 1_554 S
C901 C909 1.433 . S
C902 H898 0.929 . S
C902 C904 1.378 . S
C902 C906 1.350 . S
C903 C906 1.463 . S
C903 C908 1.350 . S
C903 N911 1.427 1_556 S
C904 H895 0.930 . S
C904 C902 1.378 . S
C904 C905 1.367 . S
C905 C904 1.367 . S
C905 C907 1.433 . S
C906 C902 1.350 . S
C906 C903 1.463 . S
C906 N910 1.427 . S
C907 H897 0.929 . S
C907 C905 1.433 . S
C907 N910 1.384 . S
C908 H899 0.929 . S
C908 C900 1.378 . S
C908 C903 1.350 . S
C909 H896 0.929 . S
C909 C901 1.433 . S
C909 N911 1.384 . S
N910 C906 1.427 . S
N910 C907 1.384 . S
N911 C903 1.427 1_554 S
N911 C909 1.384 . S
H912 C918 0.930 . S
H913 C922 0.930 . S
H914 C927 0.929 . S
H915 C925 0.929 . S
H916 C920 0.929 . S
H917 C926 0.929 . S
C918 H912 0.930 . S
C918 C919 1.367 . S
C918 C926 1.378 . S
C919 C918 1.367 . S
C919 C927 1.433 . S
C920 H916 0.929 . S
C920 C922 1.378 . S
C920 C924 1.350 . S
C921 C924 1.463 . S
C921 C926 1.350 . S
C921 N929 1.427 . S
C922 H913 0.930 . S
C922 C920 1.378 . S
C922 C923 1.367 . S
C923 C922 1.367 . S
C923 C925 1.433 . S
C924 C920 1.350 . S
C924 C921 1.463 . S
C924 N928 1.427 . S
C925 H915 0.929 . S
C925 C923 1.433 . S
C925 N928 1.384 . S
C926 H917 0.929 . S
C926 C918 1.378 . S
C926 C921 1.350 . S
C927 H914 0.929 . S
C927 C919 1.433 . S
C927 N929 1.384 . S
N928 C924 1.427 . S
N928 C925 1.384 . S
N929 C921 1.427 . S
N929 C927 1.384 . S
H930 C936 0.930 . S
H931 C940 0.930 1_565 S
H932 C945 0.929 . S
H933 C943 0.929 . S
H934 C938 0.909 1_565 S
H935 C944 0.929 . S
C936 H930 0.930 . S
C936 C937 1.367 . S
C936 C944 1.378 . S
C937 C936 1.367 . S
C937 C945 1.433 . S
C938 H934 0.909 1_545 S
C938 C940 1.378 . S
C938 C942 1.350 . S
C939 C942 1.463 . S
C939 C944 1.350 . S
C939 N947 1.427 . S
C940 H931 0.930 1_545 S
C940 C938 1.378 . S
C940 C941 1.367 . S
C941 C940 1.367 . S
C941 C943 1.433 . S
C942 C938 1.350 . S
C942 C939 1.463 . S
C942 N946 1.427 . S
C943 H933 0.929 . S
C943 C941 1.433 . S
C943 N946 1.384 . S
C944 H935 0.929 . S
C944 C936 1.378 . S
C944 C939 1.350 . S
C945 H932 0.929 . S
C945 C937 1.433 . S
C945 N947 1.384 . S
N946 C942 1.427 . S
N946 C943 1.384 . S
N947 C939 1.427 . S
N947 C945 1.384 . S
H948 C954 0.930 . S
H949 C958 0.930 . S
H950 C963 0.929 . S
H951 C961 0.929 . S
H952 C956 0.929 . S
H953 C962 0.929 . S
C954 H948 0.930 . S
C954 C955 1.367 . S
C954 C962 1.378 . S
C955 C954 1.367 . S
C955 C963 1.433 . S
C956 H952 0.929 . S
C956 C958 1.378 . S
C956 C960 1.350 . S
C957 C960 1.463 . S
C957 C962 1.350 . S
C957 N965 1.427 . S
C958 H949 0.930 . S
C958 C956 1.378 . S
C958 C959 1.367 . S
C959 C958 1.367 . S
C959 C961 1.433 . S
C960 C956 1.350 . S
C960 C957 1.463 . S
C960 N964 1.427 . S
C961 H951 0.929 . S
C961 C959 1.433 . S
C961 N964 1.384 . S
C962 H953 0.929 . S
C962 C954 1.378 . S
C962 C957 1.350 . S
C963 H950 0.929 . S
C963 C955 1.433 . S
C963 N965 1.384 . S
N964 C960 1.427 . S
N964 C961 1.384 . S
N965 C957 1.427 . S
N965 C963 1.384 . S
H966 C972 0.930 . S
H967 C976 0.930 . S
H968 C981 0.929 . S
H969 C979 0.929 . S
H970 C974 0.929 . S
H971 C980 0.929 . S
C972 H966 0.930 . S
C972 C973 1.367 . S
C972 C980 1.378 . S
C973 C972 1.367 . S
C973 C981 1.433 . S
C974 H970 0.929 . S
C974 C976 1.378 . S
C974 C978 1.350 . S
C975 C978 1.463 . S
C975 C980 1.350 . S
C975 N983 1.427 . S
C976 H967 0.930 . S
C976 C974 1.378 . S
C976 C977 1.367 . S
C977 C976 1.367 . S
C977 C979 1.433 . S
C978 C974 1.350 . S
C978 C975 1.463 . S
C978 N982 1.427 . S
C979 H969 0.929 . S
C979 C977 1.433 . S
C979 N982 1.384 . S
C980 H971 0.929 . S
C980 C972 1.378 . S
C980 C975 1.350 . S
C981 H968 0.929 . S
C981 C973 1.433 . S
C981 N983 1.384 . S
N982 C978 1.427 . S
N982 C979 1.384 . S
N983 C975 1.427 . S
N983 C981 1.384 . S
H984 C990 0.930 . S
H985 C994 0.930 1_455 S
H986 C999 0.929 . S
H987 C997 0.929 . S
H988 C992 0.921 1_455 S
H989 C998 0.929 . S
C990 H984 0.930 . S
C990 C991 1.367 . S
C990 C998 1.378 . S
C991 C990 1.367 . S
C991 C999 1.433 . S
C992 H988 0.921 1_655 S
C992 C994 1.378 . S
C992 C996 1.350 . S
C993 C996 1.463 . S
C993 C998 1.350 . S
C993 N1001 1.427 . S
C994 H985 0.930 1_655 S
C994 C992 1.378 . S
C994 C995 1.367 . S
C995 C994 1.367 . S
C995 C997 1.433 . S
C996 C992 1.350 . S
C996 C993 1.463 . S
C996 N1000 1.427 . S
C997 H987 0.929 . S
C997 C995 1.433 . S
C997 N1000 1.384 . S
C998 H989 0.929 . S
C998 C990 1.378 . S
C998 C993 1.350 . S
C999 H986 0.929 . S
C999 C991 1.433 . S
C999 N1001 1.384 . S
N1000 C996 1.427 . S
N1000 C997 1.384 . S
N1001 C993 1.427 . S
N1001 C999 1.384 . S
H1002 C1008 0.930 . S
H1003 C1012 0.930 . S
H1004 C1017 0.929 . S
H1005 C1015 0.929 . S
H1006 C1010 0.929 . S
H1007 C1016 0.929 . S
C1008 H1002 0.930 . S
C1008 C1009 1.367 . S
C1008 C1016 1.378 . S
C1009 C1008 1.367 . S
C1009 C1017 1.433 . S
C1010 H1006 0.929 . S
C1010 C1012 1.378 . S
C1010 C1014 1.350 . S
C1011 C1014 1.463 . S
C1011 C1016 1.350 . S
C1011 N1019 1.427 . S
C1012 H1003 0.930 . S
C1012 C1010 1.378 . S
C1012 C1013 1.367 . S
C1013 C1012 1.367 . S
C1013 C1015 1.433 . S
C1014 C1010 1.350 . S
C1014 C1011 1.463 . S
C1014 N1018 1.427 . S
C1015 H1005 0.929 . S
C1015 C1013 1.433 . S
C1015 N1018 1.384 . S
C1016 H1007 0.929 . S
C1016 C1008 1.378 . S
C1016 C1011 1.350 . S
C1017 H1004 0.929 . S
C1017 C1009 1.433 . S
C1017 N1019 1.384 . S
N1018 C1014 1.427 . S
N1018 C1015 1.384 . S
N1019 C1011 1.427 . S
N1019 C1017 1.384 . S
H1020 C1026 0.930 . S
H1021 C1030 0.930 . S
H1022 C1035 0.929 . S
H1023 C1033 0.929 . S
H1024 C1028 0.929 . S
H1025 C1034 0.929 . S
C1026 H1020 0.930 . S
C1026 C1027 1.367 . S
C1026 C1034 1.378 . S
C1027 C1026 1.367 . S
C1027 C1035 1.433 . S
C1028 H1024 0.929 . S
C1028 C1030 1.378 . S
C1028 C1032 1.350 . S
C1029 C1032 1.463 . S
C1029 C1034 1.350 . S
C1029 N1037 1.427 . S
C1030 H1021 0.930 . S
C1030 C1028 1.378 . S
C1030 C1031 1.367 . S
C1031 C1030 1.367 . S
C1031 C1033 1.433 . S
C1032 C1028 1.350 . S
C1032 C1029 1.463 . S
C1032 N1036 1.427 . S
C1033 H1023 0.929 . S
C1033 C1031 1.433 . S
C1033 N1036 1.384 . S
C1034 H1025 0.929 . S
C1034 C1026 1.378 . S
C1034 C1029 1.350 . S
C1035 H1022 0.929 . S
C1035 C1027 1.433 . S
C1035 N1037 1.384 . S
N1036 C1032 1.427 . S
N1036 C1033 1.384 . S
N1037 C1029 1.427 . S
N1037 C1035 1.384 . S
H1038 C1044 0.930 . S
H1039 C1048 0.930 . S
H1040 C1053 0.929 . S
H1041 C1051 0.929 . S
H1042 C1046 0.929 . S
H1043 C1052 0.929 . S
C1044 H1038 0.930 . S
C1044 C1045 1.367 . S
C1044 C1052 1.378 . S
C1045 C1044 1.367 . S
C1045 C1053 1.433 . S
C1046 H1042 0.929 . S
C1046 C1048 1.378 . S
C1046 C1050 1.350 . S
C1047 C1050 1.463 . S
C1047 C1052 1.350 . S
C1047 N1055 1.427 . S
C1048 H1039 0.930 . S
C1048 C1046 1.378 . S
C1048 C1049 1.367 . S
C1049 C1048 1.367 . S
C1049 C1051 1.433 . S
C1050 C1046 1.350 . S
C1050 C1047 1.463 . S
C1050 N1054 1.427 . S
C1051 H1041 0.929 . S
C1051 C1049 1.433 . S
C1051 N1054 1.384 . S
C1052 H1043 0.929 . S
C1052 C1044 1.378 . S
C1052 C1047 1.350 . S
C1053 H1040 0.929 . S
C1053 C1045 1.433 . S
C1053 N1055 1.384 . S
N1054 C1050 1.427 . S
N1054 C1051 1.384 . S
N1055 C1047 1.427 . S
N1055 C1053 1.384 . S
C631 C241 2.237 . S
C635 C356 2.423 . S
C653 C439 2.453 . S
C649 C277 2.299 . S
C671 C524 2.424 . S
C667 C169 2.230 . S
C689 C608 2.415 . S
C685 C205 2.230 . S
C707 C344 2.423 1_565 S
C703 C97 2.199 . S
C721 C133 2.333 . S
C725 C427 2.457 . S
C739 C25 2.202 . S
C743 C512 2.425 . S
C757 C61 2.189 . S
C761 C596 2.411 1_655 S
C779 C346 0.480 . S
C775 C211 0.460 . S
C797 C442 0.545 . S
C793 C247 0.455 . S
C815 C514 0.488 . S
C811 C253 0.530 . S
C829 C175 0.469 . S
C833 C598 0.470 . S
C847 C67 0.495 . S
C851 C358 0.503 . S
C869 C430 0.510 . S
C865 C103 0.523 . S
C887 C526 0.507 . S
C883 C109 0.476 . S
C901 C31 0.535 . S
C905 C610 0.473 . S
C919 C181 2.633 . S
C923 C343 2.902 . S
C937 C217 2.626 . S
C941 C428 2.936 . S
C959 C511 2.928 . S
C955 C283 2.566 . S
C977 C595 2.926 . S
C973 C145 2.664 . S
C991 C37 2.618 . S
C995 C355 2.902 . S
C1013 C440 2.941 . S
C1009 C73 2.599 . S
C1031 C523 2.933 . S
C1027 C139 2.601 . S
C1045 C1 2.643 . S
C1049 C607 2.924 . S
