# Generated by pormake.
# Topology zzz, (3,6)-cn, num edge types: 1
# Building blocks:
#     Node 0, Type 0, BuildingBlock: KAKCAD_clean_linker_0, # of connection points: 3
#     Node 1, Type 0, BuildingBlock: KAKCAD_clean_linker_0, # of connection points: 3
#     Node 2, Type 0, BuildingBlock: KAKCAD_clean_linker_0, # of connection points: 3
#     Node 3, Type 0, BuildingBlock: KAKCAD_clean_linker_0, # of connection points: 3
#     Node 4, Type 0, BuildingBlock: KAKCAD_clean_linker_0, # of connection points: 3
#     Node 5, Type 0, BuildingBlock: KAKCAD_clean_linker_0, # of connection points: 3
#     Node 6, Type 0, BuildingBlock: KAKCAD_clean_linker_0, # of connection points: 3
#     Node 7, Type 0, BuildingBlock: KAKCAD_clean_linker_0, # of connection points: 3
#     Node 8, Type 1, BuildingBlock: MIFKUJ_clean_sbu_0, # of connection points: 6
#     Node 9, Type 1, BuildingBlock: MIFKUJ_clean_sbu_0, # of connection points: 6
#     Node 10, Type 1, BuildingBlock: MIFKUJ_clean_sbu_0, # of connection points: 6
#     Node 11, Type 1, BuildingBlock: MIFKUJ_clean_sbu_0, # of connection points: 6
#     Edge 12, Type (0, 1), BuildingBlock: XUDNAN_clean_linker_2, # of connection points: 2
#     Edge 13, Type (0, 1), BuildingBlock: XUDNAN_clean_linker_2, # of connection points: 2
#     Edge 14, Type (0, 1), BuildingBlock: XUDNAN_clean_linker_2, # of connection points: 2
#     Edge 15, Type (0, 1), BuildingBlock: XUDNAN_clean_linker_2, # of connection points: 2
#     Edge 16, Type (0, 1), BuildingBlock: XUDNAN_clean_linker_2, # of connection points: 2
#     Edge 17, Type (0, 1), BuildingBlock: XUDNAN_clean_linker_2, # of connection points: 2
#     Edge 18, Type (0, 1), BuildingBlock: XUDNAN_clean_linker_2, # of connection points: 2
#     Edge 19, Type (0, 1), BuildingBlock: XUDNAN_clean_linker_2, # of connection points: 2
#     Edge 20, Type (0, 1), BuildingBlock: XUDNAN_clean_linker_2, # of connection points: 2
#     Edge 21, Type (0, 1), BuildingBlock: XUDNAN_clean_linker_2, # of connection points: 2
#     Edge 22, Type (0, 1), BuildingBlock: XUDNAN_clean_linker_2, # of connection points: 2
#     Edge 23, Type (0, 1), BuildingBlock: XUDNAN_clean_linker_2, # of connection points: 2
#     Edge 24, Type (0, 1), BuildingBlock: XUDNAN_clean_linker_2, # of connection points: 2
#     Edge 25, Type (0, 1), BuildingBlock: XUDNAN_clean_linker_2, # of connection points: 2
#     Edge 26, Type (0, 1), BuildingBlock: XUDNAN_clean_linker_2, # of connection points: 2
#     Edge 27, Type (0, 1), BuildingBlock: XUDNAN_clean_linker_2, # of connection points: 2
#     Edge 28, Type (0, 1), BuildingBlock: XUDNAN_clean_linker_2, # of connection points: 2
#     Edge 29, Type (0, 1), BuildingBlock: XUDNAN_clean_linker_2, # of connection points: 2
#     Edge 30, Type (0, 1), BuildingBlock: XUDNAN_clean_linker_2, # of connection points: 2
#     Edge 31, Type (0, 1), BuildingBlock: XUDNAN_clean_linker_2, # of connection points: 2
#     Edge 32, Type (0, 1), BuildingBlock: XUDNAN_clean_linker_2, # of connection points: 2
#     Edge 33, Type (0, 1), BuildingBlock: XUDNAN_clean_linker_2, # of connection points: 2
#     Edge 34, Type (0, 1), BuildingBlock: XUDNAN_clean_linker_2, # of connection points: 2
#     Edge 35, Type (0, 1), BuildingBlock: XUDNAN_clean_linker_2, # of connection points: 2
# Relax obj value: 0.308
# Max RMSD: 0.213
# Mean RMSD: 0.191
data_MOF--net-zzz--node1-MIFKUJ_clean_sbu_0--node2-KAKCAD_clean_linker_0--edge1-XUDNAN_clean_linker_2
_symmetry_space_group_name_H-M    P1
_symmetry_Int_Tables_number       1
_symmetry_cell_setting            triclinic
loop_
_symmetry_equiv_pos_as_xyz
'x, y, z'
_cell_length_a     57.003718
_cell_length_b     58.484724
_cell_length_c     21.32856
_cell_angle_alpha  89.190641
_cell_angle_beta   89.983352
_cell_angle_gamma 90.992096
loop_
_atom_site_label
_atom_site_type_symbol
_atom_site_fract_x
_atom_site_fract_y
_atom_site_fract_z
_atom_type_partial_charge
C0 C 0.81059 0.57951 0.91129 0.0
C1 C 0.80586 0.55946 0.87737 0.0
C2 C 0.79388 0.588 0.95246 0.0
C3 C 0.77206 0.57679 0.95957 0.0
C4 C 0.76681 0.55767 0.92275 0.0
C5 C 0.78353 0.54905 0.88234 0.0
C6 C 0.75585 0.58278 0.01061 0.0
C7 C 0.7317 0.58286 -0.00026 0.0
C8 C 0.71557 0.58249 0.04964 0.0
C9 C 0.72419 0.58224 0.11177 0.0
C10 C 0.74859 0.58325 0.12302 0.0
C11 C 0.76417 0.5839 0.07211 0.0
C12 C 0.75874 0.5799 0.18635 0.0
C13 C 0.77643 0.5949 0.20764 0.0
C14 C 0.75466 0.55922 0.2189 0.0
C15 C 0.76914 0.55289 0.26898 0.0
C16 C 0.78789 0.56724 0.28803 0.0
C17 C 0.69026 0.57911 0.03429 0.0
C18 C 0.6809 0.58992 0.98079 0.0
C19 C 0.67671 0.56206 0.0649 0.0
C20 C 0.65548 0.55439 0.0387 0.0
C21 C 0.64763 0.56319 0.98054 0.0
C22 C 0.66014 0.58185 0.95369 0.0
C23 C 0.79073 0.58873 0.25819 0.0
H24 H 0.82745 0.58824 0.90753 0.0
H25 H 0.79825 0.60285 0.98018 0.0
H26 H 0.75028 0.54842 0.92812 0.0
H27 H 0.77933 0.53339 0.85793 0.0
H28 H 0.7255 0.58143 0.95187 0.0
H29 H 0.78289 0.58296 0.08069 0.0
H30 H 0.71212 0.58088 0.15095 0.0
H31 H 0.78 0.61089 0.18291 0.0
H32 H 0.74147 0.54714 0.20254 0.0
H33 H 0.76649 0.53609 0.29 0.0
H34 H 0.69064 0.60352 0.95687 0.0
H35 H 0.68326 0.55346 0.10646 0.0
H36 H 0.80455 0.60049 0.27235 0.0
H37 H 0.65505 0.58934 0.9092 0.0
H38 H 0.64593 0.54071 0.06264 0.0
C39 C 0.01334 0.80659 0.87256 0.0
C40 C 0.03262 0.82047 0.89023 0.0
C41 C 0.00658 0.78759 0.90891 0.0
C42 C 0.01868 0.78224 0.96423 0.0
C43 C 0.0384 0.79551 0.98099 0.0
C44 C 0.04542 0.81435 0.9441 0.0
C45 C 0.00943 0.76413 0.007 0.0
C46 C 0.00337 0.74246 0.98468 0.0
C47 C 0.99351 0.72561 0.02489 0.0
C48 C 0.98926 0.73089 0.08825 0.0
C49 C 0.99516 0.75278 0.11083 0.0
C50 C 0.00541 0.76909 0.0699 0.0
C51 C 0.98952 0.76013 0.17528 0.0
C52 C 0.96617 0.76013 0.19617 0.0
C53 C 0.00667 0.772 0.20981 0.0
C54 C 0.00029 0.78577 0.25964 0.0
C55 C 0.97656 0.78784 0.27672 0.0
C56 C 0.98928 0.70237 -0.00021 0.0
C57 C 0.97811 0.69968 0.94149 0.0
C58 C -2e-05 0.68341 0.02801 0.0
C59 C 0.00145 0.6628 0.99575 0.0
C60 C 0.99209 0.66076 0.93492 0.0
C61 C 0.97941 0.67904 0.90946 0.0
C62 C 0.95975 0.77382 0.24665 0.0
H63 H 0.00269 0.81096 0.83228 0.0
H64 H 0.99114 0.77777 0.89547 0.0
H65 H 0.04812 0.79155 0.02331 0.0
H66 H 0.06056 0.82438 0.95856 0.0
H67 H 0.0069 0.73854 0.93607 0.0
H68 H 0.00933 0.7862 0.08644 0.0
H69 H 0.98144 0.71814 0.11954 0.0
H70 H 0.9526 0.75115 0.17028 0.0
H71 H 0.02483 0.7722 0.19472 0.0
H72 H 0.01386 0.79626 0.28085 0.0
H73 H 0.96963 0.71404 0.91888 0.0
H74 H 0.00879 0.68503 0.07276 0.0
H75 H 0.9414 0.77447 0.25951 0.0
H76 H 0.97208 0.67805 0.86271 0.0
H77 H 0.01107 0.64886 0.01689 0.0
C78 C 0.68016 0.90971 0.947 0.0
C79 C 0.67857 0.92703 0.90104 0.0
C80 C 0.70053 0.9075 0.98259 0.0
C81 C 0.71963 0.92268 0.97319 0.0
C82 C 0.71875 0.93877 0.92372 0.0
C83 C 0.69837 0.94091 0.88784 0.0
C84 C 0.73851 0.92424 0.02076 0.0
C85 C 0.76202 0.92794 0.00365 0.0
C86 C 0.77919 0.93271 0.04934 0.0
C87 C 0.77256 0.93397 0.11291 0.0
C88 C 0.74912 0.92963 0.13028 0.0
C89 C 0.7324 0.92468 0.08424 0.0
C90 C 0.74046 0.93196 0.19494 0.0
C91 C 0.73248 0.91231 0.22738 0.0
C92 C 0.73311 0.95348 0.21452 0.0
C93 C 0.71599 0.95515 0.26119 0.0
C94 C 0.70597 0.93527 0.28883 0.0
C95 C 0.80359 0.93763 0.02873 0.0
C96 C 0.81461 0.92285 0.98711 0.0
C97 C 0.81498 0.95821 0.04472 0.0
C98 C 0.83636 0.96452 0.01652 0.0
C99 C 0.84683 0.95026 0.97221 0.0
C100 C 0.83605 0.92901 0.95949 0.0
C101 C 0.7155 0.91395 0.27428 0.0
H102 H 0.66527 0.8985 0.95721 0.0
H103 H 0.70089 0.89469 0.01976 0.0
H104 H 0.73311 0.95083 0.9157 0.0
H105 H 0.69759 0.95444 0.85275 0.0
H106 H 0.76684 0.92784 0.95447 0.0
H107 H 0.71415 0.9225 0.09796 0.0
H108 H 0.78546 0.93823 0.14838 0.0
H109 H 0.73768 0.89552 0.21229 0.0
H110 H 0.73867 0.96881 0.18911 0.0
H111 H 0.70903 0.97184 0.27096 0.0
H112 H 0.80628 0.90676 0.97456 0.0
H113 H 0.80672 0.96999 0.07628 0.0
H114 H 0.70849 0.89836 0.29561 0.0
H115 H 0.84387 0.91734 0.92687 0.0
H116 H 0.84404 0.98108 0.02711 0.0
C117 C 0.46471 0.72704 0.28083 0.0
C118 C 0.48764 0.71845 0.28071 0.0
C119 C 0.45654 0.73992 0.2299 0.0
C120 C 0.47128 0.74481 0.17859 0.0
C121 C 0.49496 0.73879 0.18199 0.0
C122 C 0.50309 0.72566 0.23259 0.0
C123 C 0.46074 0.74856 0.11621 0.0
C124 C 0.46378 0.76906 0.08171 0.0
C125 C 0.45566 0.77051 0.01931 0.0
C126 C 0.446 0.7508 0.99131 0.0
C127 C 0.44317 0.73018 0.02519 0.0
C128 C 0.44973 0.72966 0.08844 0.0
C129 C 0.43582 0.70871 0.99304 0.0
C130 C 0.4205 0.70919 0.94118 0.0
C131 C 0.44576 0.68768 0.01077 0.0
C132 C 0.44135 0.66803 0.97622 0.0
C133 C 0.42736 0.66901 0.92239 0.0
C134 C 0.45792 0.79193 0.98095 0.0
C135 C 0.43979 0.79789 0.93936 0.0
C136 C 0.47862 0.80539 0.98105 0.0
C137 C 0.48159 0.82355 0.93787 0.0
C138 C 0.46398 0.82836 0.89367 0.0
C139 C 0.44286 0.81573 0.89597 0.0
C140 C 0.41663 0.68959 0.90556 0.0
H141 H 0.45251 0.72229 0.3179 0.0
H142 H 0.43813 0.74417 0.22787 0.0
H143 H 0.5065 0.742 0.14233 0.0
H144 H 0.52082 0.71935 0.23066 0.0
H145 H 0.47228 0.78365 0.10335 0.0
H146 H 0.44743 0.71404 0.11589 0.0
H147 H 0.44176 0.75133 0.94183 0.0
H148 H 0.41209 0.72486 0.92676 0.0
H149 H 0.45809 0.6865 0.04919 0.0
H150 H 0.45019 0.65239 0.9891 0.0
H151 H 0.42338 0.78826 0.93908 0.0
H152 H 0.49295 0.80123 0.01229 0.0
H153 H 0.4059 0.69065 0.86373 0.0
H154 H 0.42883 0.8194 0.86326 0.0
H155 H 0.49803 0.83312 0.93704 0.0
C156 C 0.21313 0.42841 0.30651 0.0
C157 C 0.19254 0.41532 0.29725 0.0
C158 C 0.23339 0.4238 0.2727 0.0
C159 C 0.23338 0.40608 0.22889 0.0
C160 C 0.21386 0.39113 0.22605 0.0
C161 C 0.19357 0.39571 0.26004 0.0
C162 C 0.25071 0.40706 0.17713 0.0
C163 C 0.27429 0.41263 0.1886 0.0
C164 C 0.2891 0.42025 0.13962 0.0
C165 C 0.2801 0.42213 0.07818 0.0
C166 C 0.25677 0.4153 0.06587 0.0
C167 C 0.24245 0.40751 0.11533 0.0
C168 C 0.24534 0.4191 0.00447 0.0
C169 C 0.23973 0.44141 0.98558 0.0
C170 C 0.2346 0.40055 0.97407 0.0
C171 C 0.21725 0.4042 0.92887 0.0
C172 C 0.20998 0.4265 0.91391 0.0
C173 C 0.31301 0.42851 0.15585 0.0
C174 C 0.31973 0.45136 0.14406 0.0
C175 C 0.32778 0.41456 0.19185 0.0
C176 C 0.34836 0.42353 0.21806 0.0
C177 C 0.35448 0.44678 0.20964 0.0
C178 C 0.34021 0.46045 0.17091 0.0
C179 C 0.22217 0.4451 0.94081 0.0
H180 H 0.21299 0.44365 0.33473 0.0
H181 H 0.24809 0.43571 0.27585 0.0
H182 H 0.21355 0.37711 0.19339 0.0
H183 H 0.17814 0.38496 0.25334 0.0
H184 H 0.28069 0.41261 0.23649 0.0
H185 H 0.22402 0.40401 0.10617 0.0
H186 H 0.29101 0.42902 0.04059 0.0
H187 H 0.2474 0.45597 0.00943 0.0
H188 H 0.23846 0.38318 0.98851 0.0
H189 H 0.20871 0.38948 0.90805 0.0
H190 H 0.30842 0.46255 0.11729 0.0
H191 H 0.32294 0.39686 0.20154 0.0
H192 H 0.217 0.46251 0.93098 0.0
H193 H 0.34419 0.47847 0.16381 0.0
H194 H 0.35917 0.41234 0.24623 0.0
C195 C 0.97702 0.20383 0.31324 0.0
C196 C 0.99429 0.18709 0.32109 0.0
C197 C 0.97978 0.22125 0.26831 0.0
C198 C -0.00035 0.2221 0.22956 0.0
C199 C 0.01724 0.20588 0.23829 0.0
C200 C 0.0147 0.18867 0.284 0.0
C201 C 0.00129 0.23907 0.17771 0.0
C202 C 0.99802 0.2623 0.18881 0.0
C203 C 0.99885 0.27847 0.13935 0.0
C204 C 0.00256 0.27093 0.07756 0.0
C205 C 0.0058 0.24751 0.06614 0.0
C206 C 0.00534 0.23185 0.11657 0.0
C207 C 0.00882 0.23841 0.00223 0.0
C208 C 0.99075 0.24014 0.95776 0.0
C209 C 0.02775 0.22407 0.99011 0.0
C210 C 0.02773 0.21033 0.93716 0.0
C211 C 0.00869 0.2105 0.89528 0.0
C212 C 0.99723 0.30313 0.15466 0.0
C213 C 0.98091 0.31023 0.19955 0.0
C214 C 0.01409 0.319 0.13216 0.0
C215 C 0.01587 0.34086 0.15804 0.0
C216 C 0.00081 0.34727 0.20695 0.0
C217 C 0.98272 0.33198 0.22552 0.0
C218 C 0.99068 0.22628 0.90459 0.0
H219 H 0.96085 0.203 0.33983 0.0
H220 H 0.96588 0.23348 0.26197 0.0
H221 H 0.03285 0.20639 0.20926 0.0
H222 H 0.02859 0.17641 0.2895 0.0
H223 H 0.99553 0.26782 0.23664 0.0
H224 H 0.00734 0.21375 0.10786 0.0
H225 H 0.00303 0.28312 0.03884 0.0
H226 H 0.97584 0.25088 0.9665 0.0
H227 H 0.04191 0.22248 0.02371 0.0
H228 H 0.04211 0.19873 0.93061 0.0
H229 H 0.96749 0.29848 0.21719 0.0
H230 H 0.0269 0.31404 0.09761 0.0
H231 H 0.97575 0.22678 0.87326 0.0
H232 H 0.97084 0.33615 0.2631 0.0
H233 H 0.02968 0.35238 0.14158 0.0
C234 C 0.29802 0.07156 0.30943 0.0
C235 C 0.31821 0.08427 0.29192 0.0
C236 C 0.27794 0.07191 0.27192 0.0
C237 C 0.27758 0.08515 0.21646 0.0
C238 C 0.29699 0.09943 0.20209 0.0
C239 C 0.31714 0.09885 0.23906 0.0
C240 C 0.25895 0.08119 0.16905 0.0
C241 C 0.23552 0.07736 0.18654 0.0
C242 C 0.21883 0.06928 0.14301 0.0
C243 C 0.22583 0.06599 0.0802 0.0
C244 C 0.24919 0.07061 0.06167 0.0
C245 C 0.26542 0.07811 0.10659 0.0
C246 C 0.25847 0.0647 -0.00112 0.0
C247 C 0.25483 0.04267 0.97513 0.0
C248 C 0.27553 0.07906 0.97036 0.0
C249 C 0.29101 0.0705 0.92613 0.0
C250 C 0.28939 0.04748 0.90803 0.0
C251 C 0.19469 0.06301 0.16511 0.0
C252 C 0.19143 0.05283 0.22479 0.0
C253 C 0.17477 0.06743 0.12813 0.0
C254 C 0.15219 0.06228 0.15107 0.0
C255 C 0.1491 0.05285 0.21159 0.0
C256 C 0.16897 0.04802 0.24787 0.0
C257 C 0.27001 0.03423 0.92961 0.0
H258 H 0.298 0.06063 0.35083 0.0
H259 H 0.26333 0.06065 0.28431 0.0
H260 H 0.29709 0.1101 0.16015 0.0
H261 H 0.33231 0.10887 0.22393 0.0
H262 H 0.23048 0.08019 0.23475 0.0
H263 H 0.28378 0.07983 0.09375 0.0
H264 H 0.21346 0.05916 0.04646 0.0
H265 H 0.24171 0.03124 0.99571 0.0
H266 H 0.27845 0.0963 0.98699 0.0
H267 H 0.30544 0.08147 0.91081 0.0
H268 H 0.20629 0.04845 0.25393 0.0
H269 H 0.1766 0.07532 0.08212 0.0
H270 H 0.26748 0.01673 0.91478 0.0
H271 H 0.16715 0.04025 0.29408 0.0
H272 H 0.13712 0.06613 0.12209 0.0
C273 C 0.5029 0.27765 0.94317 0.0
C274 C 0.51843 0.2917 0.90815 0.0
C275 C 0.51151 0.26312 0.99044 0.0
C276 C 0.53572 0.2625 0.00283 0.0
C277 C 0.55124 0.27475 0.96315 0.0
C278 C 0.54268 0.28929 0.91648 0.0
C279 C 0.54442 0.2538 0.06399 0.0
C280 C 0.53886 0.2317 0.08715 0.0
C281 C 0.54656 0.22495 0.14724 0.0
C282 C 0.55902 0.24057 0.18454 0.0
C283 C 0.56326 0.26308 0.16362 0.0
C284 C 0.55656 0.26926 0.10259 0.0
C285 C 0.57038 0.2812 0.20831 0.0
C286 C 0.55987 0.28159 0.2679 0.0
C287 C 0.5844 0.30005 0.18872 0.0
C288 C 0.58597 0.31968 0.22537 0.0
C289 C 0.57354 0.32071 0.28202 0.0
C290 C 0.53948 0.2028 0.17612 0.0
C291 C 0.51612 0.19915 0.19502 0.0
C292 C 0.5567 0.18755 0.19663 0.0
C293 C 0.55087 0.16958 0.23798 0.0
C294 C 0.52781 0.16688 0.26056 0.0
C295 C 0.51035 0.18141 0.23729 0.0
C296 C 0.56147 0.30112 0.30435 0.0
H297 H 0.48412 0.27933 0.93762 0.0
H298 H 0.49917 0.25401 0.02076 0.0
H299 H 0.56998 0.27449 0.97164 0.0
H300 H 0.55498 0.29986 0.88969 0.0
H301 H 0.52857 0.21997 0.05899 0.0
H302 H 0.55905 0.28681 0.08659 0.0
H303 H 0.56405 0.23556 0.23174 0.0
H304 H 0.54877 0.26755 0.28447 0.0
H305 H 0.593 0.30012 0.14343 0.0
H306 H 0.59545 0.33458 0.20728 0.0
H307 H 0.50266 0.21097 0.18061 0.0
H308 H 0.57489 0.19033 0.18337 0.0
H309 H 0.55198 0.30143 0.34835 0.0
H310 H 0.49242 0.17959 0.25368 0.0
H311 H 0.56469 0.15872 0.25546 0.0
Zn312 Zn 0.98592 0.03005 0.57816 0.0
Zn313 Zn 0.98319 0.97818 0.54198 0.0
C314 C 0.99735 0.06837 0.65521 0.0
O315 O 0.00746 0.052 0.6876 0.0
C316 C 0.98499 0.93386 0.48554 0.0
O317 O 0.00738 0.93691 0.49806 0.0
O318 O 0.95856 0.02341 0.51995 0.0
O319 O 0.0156 0.02501 0.53104 0.0
O320 O 0.99867 -0.00166 0.47382 0.0
C321 C 0.94883 0.03709 0.48183 0.0
O322 O 0.93136 0.02978 0.44697 0.0
O323 O 0.98654 0.06328 0.60496 0.0
C324 C -0.00033 0.95016 0.63539 0.0
O325 O 0.97745 0.94419 0.63004 0.0
O326 O 0.00795 0.96624 0.60089 0.0
O327 O 0.95737 0.98857 0.60086 0.0
O328 O 0.98076 0.01084 0.65571 0.0
O329 O 0.97076 0.94977 0.49762 0.0
C330 C 0.01432 0.01393 0.48039 0.0
C331 C 0.96317 -0.00273 0.65316 0.0
Zn332 Zn 0.4765 0.01298 0.62836 0.0
Zn333 Zn 0.51685 0.988 0.55042 0.0
C334 C 0.43681 0.00673 0.70117 0.0
O335 O 0.43829 0.98778 0.66925 0.0
C336 C 0.56022 0.9836 0.48827 0.0
O337 O 0.56473 0.00121 0.52418 0.0
O338 O 0.45712 0.01573 0.5493 0.0
O339 O 0.50292 0.03627 0.61436 0.0
O340 O 0.5113 0.02049 0.52376 0.0
C341 C 0.45164 0.03672 0.54436 0.0
O342 O 0.45842 0.05091 0.58824 0.0
O343 O 0.4527 0.02215 0.69419 0.0
C344 C 0.54413 0.9671 0.64027 0.0
O345 O 0.54038 0.95075 0.59975 0.0
O346 O 0.53507 0.98657 0.63113 0.0
O347 O 0.48949 0.96603 0.56173 0.0
O348 O 0.48534 0.98093 0.65474 0.0
O349 O 0.53949 0.97514 0.48763 0.0
C350 C 0.5102 0.0381 0.5579 0.0
C351 C 0.48475 0.96359 0.61963 0.0
Zn352 Zn 0.4992 0.4766 0.61118 0.0
Zn353 Zn 0.50997 0.52865 0.56019 0.0
C354 C 0.49632 0.44129 0.70858 0.0
O355 O 0.5106 0.45542 0.73767 0.0
C356 C 0.50158 0.5686 0.48863 0.0
O357 O 0.4805 0.55919 0.4918 0.0
O358 O 0.52196 0.46442 0.54816 0.0
O359 O 0.47196 0.4896 0.56201 0.0
O360 O 0.49574 0.50767 0.49609 0.0
C361 C 0.5124 0.44933 0.51379 0.0
O362 O 0.48981 0.44508 0.52033 0.0
O363 O 0.48786 0.44734 0.65584 0.0
C364 C 0.4915 0.55676 0.64899 0.0
O365 O 0.51253 0.56552 0.63834 0.0
O366 O 0.48531 0.5385 0.62144 0.0
O367 O 0.53769 0.51912 0.61208 0.0
O368 O 0.51696 0.49585 0.67424 0.0
O369 O 0.51868 0.55793 0.51284 0.0
C370 C 0.47636 0.49732 0.50712 0.0
C371 C 0.53463 0.50902 0.66471 0.0
Zn372 Zn 0.04197 0.49738 0.58555 0.0
Zn373 Zn 0.9689 0.5059 0.57198 0.0
C374 C 0.07755 0.4859 0.66833 0.0
O375 O 0.08393 0.5062 0.64659 0.0
C376 C 0.92552 0.50937 0.51348 0.0
O377 O 0.92697 0.4876 0.52869 0.0
O378 O 0.06728 0.50331 0.52296 0.0
O379 O 0.0164 0.48224 0.53895 0.0
O380 O 0.97931 0.48017 0.51557 0.0
C381 C 0.06349 0.50334 0.46439 0.0
O382 O 0.04189 0.50537 0.44389 0.0
O383 O 0.05779 0.47753 0.65136 0.0
C384 C 0.94819 0.50067 0.69482 0.0
O385 O 0.96386 0.51611 0.71168 0.0
O386 O 0.95017 0.49137 0.64173 0.0
O387 O 0.99235 0.52882 0.61328 0.0
O388 O 0.03117 0.52617 0.62327 0.0
O389 O 0.9431 0.52254 0.52392 0.0
C390 C -0.00013 0.47266 0.50932 0.0
C391 C 0.01217 0.5368 0.63193 0.0
H392 H 0.13219 0.06415 0.32682 0.0
H393 H 0.11279 0.02966 0.15537 0.0
H394 H 0.07477 0.01786 0.20317 0.0
H395 H 0.10919 0.02355 0.43221 0.0
H396 H 0.09869 0.04385 0.48806 0.0
H397 H 0.12325 0.05128 0.43837 0.0
H398 H 0.10159 0.08716 0.39863 0.0
H399 H 0.07666 0.07988 0.44745 0.0
H400 H 0.07286 0.08409 0.36422 0.0
H401 H 0.04075 0.00658 0.27399 0.0
H402 H 0.01247 -0.00148 0.35957 0.0
H403 H 0.05383 0.04144 0.48364 0.0
C404 C 0.11979 0.05434 0.29912 0.0
C405 C 0.12538 0.04776 0.23746 0.0
C406 C 0.10872 0.03503 0.20248 0.0
C407 C 0.08715 0.02821 0.22932 0.0
C408 C 0.0824 0.03458 0.29079 0.0
C409 C 0.09814 0.04764 0.32491 0.0
C410 C 0.08918 0.05167 0.39064 0.0
C411 C 0.10608 0.042 0.44022 0.0
C412 C 0.08481 0.07722 0.40083 0.0
C413 C 0.06634 0.0381 0.38907 0.0
C414 C 0.06265 0.0285 0.33098 0.0
C415 C 0.04332 0.01427 0.31938 0.0
C416 C 0.0274 0.0097 0.36842 0.0
C417 C 0.03088 0.01935 0.4284 0.0
C418 C 0.05054 0.03392 0.43831 0.0
H419 H 0.53926 0.12154 0.26878 0.0
H420 H 0.50503 0.1754 0.37006 0.0
H421 H 0.49872 0.14902 0.46044 0.0
H422 H 0.50049 0.07592 0.32338 0.0
H423 H 0.52347 0.05517 0.32731 0.0
H424 H 0.52543 0.07853 0.27159 0.0
H425 H 0.56606 0.09009 0.31706 0.0
H426 H 0.56403 0.06694 0.3735 0.0
H427 H 0.56876 0.09583 0.3996 0.0
H428 H 0.4974 0.11683 0.54144 0.0
H429 H 0.49689 0.08021 0.60106 0.0
H430 H 0.53068 0.04737 0.44457 0.0
C431 C 0.53041 0.12773 0.30999 0.0
C432 C 0.5226 0.15047 0.31256 0.0
C433 C 0.51091 0.15794 0.367 0.0
C434 C 0.50744 0.14316 0.41871 0.0
C435 C 0.51559 0.1209 0.41501 0.0
C436 C 0.52652 0.11312 0.36166 0.0
C437 C 0.53281 0.08819 0.36864 0.0
C438 C 0.51976 0.0736 0.31985 0.0
C439 C 0.5595 0.08509 0.36446 0.0
C440 C 0.52383 0.08319 0.4343 0.0
C441 C 0.51419 0.1023 0.46065 0.0
C442 C 0.50481 0.10172 0.52112 0.0
C443 C 0.50469 0.08087 0.55478 0.0
C444 C 0.51354 0.06085 0.52737 0.0
C445 C 0.52365 0.0623 0.46684 0.0
H446 H 0.36915 0.43684 0.32982 0.0
H447 H 0.38583 0.48004 0.16798 0.0
H448 H 0.41834 0.49798 0.22705 0.0
H449 H 0.381 0.47756 0.44744 0.0
H450 H 0.39411 0.45745 0.50122 0.0
H451 H 0.37229 0.44778 0.44615 0.0
H452 H 0.40118 0.41802 0.4033 0.0
H453 H 0.42304 0.42749 0.45859 0.0
H454 H 0.42974 0.42742 0.37602 0.0
H455 H 0.44905 0.51126 0.3039 0.0
H456 H 0.47588 0.51868 0.3924 0.0
H457 H 0.43941 0.46643 0.50353 0.0
C458 C 0.37982 0.4498 0.3062 0.0
C459 C 0.37484 0.45697 0.24396 0.0
C460 C 0.38904 0.47439 0.21572 0.0
C461 C 0.40765 0.48461 0.2488 0.0
C462 C 0.41195 0.47717 0.31003 0.0
C463 C 0.39852 0.46008 0.33835 0.0
C464 C 0.40682 0.45518 0.40464 0.0
C465 C 0.38739 0.45978 0.45268 0.0
C466 C 0.41572 0.43057 0.41099 0.0
C467 C 0.42679 0.47246 0.4096 0.0
C468 C 0.42956 0.48487 0.35437 0.0
C469 C 0.44705 0.50163 0.34733 0.0
C470 C 0.46222 0.5057 0.39789 0.0
C471 C 0.45972 0.49318 0.45497 0.0
C472 C 0.44166 0.47643 0.46075 0.0
H473 H 0.96865 0.37657 0.25824 0.0
H474 H 0.04351 0.36552 0.24074 0.0
H475 H 0.0514 0.3975 0.31199 0.0
H476 H 0.97204 0.43928 0.27107 0.0
H477 H 0.94873 0.43988 0.32814 0.0
H478 H 0.94905 0.41772 0.2703 0.0
H479 H 0.94716 0.38699 0.3589 0.0
H480 H 0.94709 0.40901 0.41701 0.0
H481 H 0.96913 0.38728 0.4197 0.0
H482 H 0.05119 0.42802 0.39367 0.0
H483 H 0.0428 0.45659 0.47425 0.0
H484 H 0.96815 0.44794 0.43918 0.0
C485 C 0.98673 0.381 0.26877 0.0
C486 C 0.00544 0.36849 0.2433 0.0
C487 C 0.02883 0.37503 0.25833 0.0
C488 C 0.03352 0.39309 0.29933 0.0
C489 C 0.01467 0.40456 0.32495 0.0
C490 C 0.99174 0.39896 0.30976 0.0
C491 C 0.97464 0.41335 0.34593 0.0
C492 C 0.96027 0.42846 0.30118 0.0
C493 C 0.95856 0.39825 0.38786 0.0
C494 C 0.99153 0.42757 0.38474 0.0
C495 C 0.01455 0.42227 0.37182 0.0
C496 C 0.03324 0.4325 0.40361 0.0
C497 C 0.02828 0.44871 0.44944 0.0
C498 C 0.00483 0.45473 0.46276 0.0
C499 C 0.98628 0.44389 0.42987 0.0
H500 H 0.85569 0.94399 0.84734 0.0
H501 H 0.88534 0.97484 0.01417 0.0
H502 H 0.91889 0.9897 0.9513 0.0
H503 H 0.9113 0.92672 0.77955 0.0
H504 H 0.90179 0.9327 0.70051 0.0
H505 H 0.88068 0.92398 0.75941 0.0
H506 H 0.8568 0.96045 0.73596 0.0
H507 H 0.8779 0.96935 0.67736 0.0
H508 H 0.87105 0.98813 0.74085 0.0
H509 H 0.9485 0.0024 0.86843 0.0
H510 H 0.97194 0.01126 0.77337 0.0
H511 H 0.92302 0.97096 0.6625 0.0
C512 C 0.86944 0.95344 0.8712 0.0
C513 C 0.86786 0.95813 0.93594 0.0
C514 C 0.88601 0.97116 0.9646 0.0
C515 C 0.90521 0.97957 0.92934 0.0
C516 C 0.90605 0.97471 0.86555 0.0
C517 C 0.8887 0.96183 0.83692 0.0
C518 C 0.89338 0.95939 0.7675 0.0
C519 C 0.89701 0.9342 0.75078 0.0
C520 C 0.87361 0.96997 0.72813 0.0
C521 C 0.91596 0.97318 0.76123 0.0
C522 C 0.92306 0.98185 0.81825 0.0
C523 C 0.94317 0.99557 0.82364 0.0
C524 C 0.95634 0.00054 0.76933 0.0
C525 C 0.94934 0.9918 0.71041 0.0
C526 C 0.92891 0.97787 0.70675 0.0
H527 H 0.47828 0.87332 0.90391 0.0
H528 H 0.45801 0.82199 0.76864 0.0
H529 H 0.46258 0.85054 0.68277 0.0
H530 H 0.44728 0.91886 0.83189 0.0
H531 H 0.46908 0.94056 0.84907 0.0
H532 H 0.46601 0.91574 0.89948 0.0
H533 H 0.51005 0.90675 0.88353 0.0
H534 H 0.51316 0.93172 0.83361 0.0
H535 H 0.52139 0.90414 0.80508 0.0
H536 H 0.46871 0.88489 0.6116 0.0
H537 H 0.47426 0.92305 0.56134 0.0
H538 H 0.48878 0.95215 0.74367 0.0
C539 C 0.47514 0.8681 0.85608 0.0
C540 C 0.46787 0.8455 0.84269 0.0
C541 C 0.46351 0.83929 0.77973 0.0
C542 C 0.46615 0.85534 0.73069 0.0
C543 C 0.47305 0.87757 0.7454 0.0
C544 C 0.47742 0.88401 0.80656 0.0
C545 C 0.48339 0.9093 0.80988 0.0
C546 C 0.46536 0.92185 0.84994 0.0
C547 C 0.50849 0.9132 0.83447 0.0
C548 C 0.48147 0.91605 0.74127 0.0
C549 C 0.47578 0.89749 0.70467 0.0
C550 C 0.47315 0.89958 0.63979 0.0
C551 C 0.47633 0.92128 0.61163 0.0
C552 C 0.48175 0.94058 0.64853 0.0
C553 C 0.48441 0.93778 0.71414 0.0
H554 H 0.61709 0.58184 0.89223 0.0
H555 H 0.63484 0.51745 0.9839 0.0
H556 H 0.60655 0.49737 0.917 0.0
H557 H 0.55552 0.56915 0.86052 0.0
H558 H 0.55639 0.58262 0.78401 0.0
H559 H 0.57563 0.59269 0.84508 0.0
H560 H 0.6115 0.58669 0.7729 0.0
H561 H 0.59241 0.57645 0.71179 0.0
H562 H 0.61607 0.55896 0.73957 0.0
H563 H 0.57779 0.4836 0.83677 0.0
H564 H 0.55118 0.47729 0.74703 0.0
H565 H 0.55544 0.54955 0.69936 0.0
C566 C 0.61518 0.56353 0.89873 0.0
C567 C 0.62836 0.5515 0.9446 0.0
C568 C 0.62469 0.52748 0.95108 0.0
C569 C 0.60876 0.51574 0.91255 0.0
C570 C 0.59676 0.52807 0.86686 0.0
C571 C 0.59981 0.55141 0.85955 0.0
C572 C 0.58605 0.56033 0.80371 0.0
C573 C 0.56728 0.5772 0.8246 0.0
C574 C 0.6025 0.57125 0.75407 0.0
C575 C 0.57499 0.53828 0.78047 0.0
C576 C 0.58113 0.51993 0.81822 0.0
C577 C 0.57284 0.49783 0.80693 0.0
C578 C 0.55771 0.49441 0.75601 0.0
C579 C 0.55134 0.5129 0.71643 0.0
C580 C 0.56027 0.53508 0.72856 0.0
H581 H 0.96373 0.63524 0.85548 0.0
H582 H 0.03545 0.64297 0.92151 0.0
H583 H 0.04802 0.61359 0.84786 0.0
H584 H 0.96557 0.57341 0.83533 0.0
H585 H 0.94772 0.57366 0.76561 0.0
H586 H 0.94401 0.59528 0.82398 0.0
H587 H 0.95101 0.62678 0.73928 0.0
H588 H 0.95495 0.60526 0.68076 0.0
H589 H 0.97752 0.62668 0.6932 0.0
H590 H 0.05355 0.5854 0.76474 0.0
H591 H 0.05126 0.55558 0.68546 0.0
H592 H 0.97571 0.56392 0.67334 0.0
C593 C 0.98203 0.63057 0.85464 0.0
C594 C 0.99859 0.6413 0.89468 0.0
C595 C 0.02237 0.63473 0.89224 0.0
C596 C 0.02975 0.61823 0.85005 0.0
C597 C 0.01313 0.60828 0.81069 0.0
C598 C 0.98971 0.61383 0.8131 0.0
C599 C 0.97554 0.59994 0.7662 0.0
C600 C 0.95712 0.58467 0.7998 0.0
C601 C 0.96408 0.61561 0.71694 0.0
C602 C 0.99473 0.58578 0.73723 0.0
C603 C 0.01627 0.59121 0.76325 0.0
C604 C 0.03677 0.58083 0.74431 0.0
C605 C 0.03523 0.5639 0.69886 0.0
C606 C 0.01326 0.55714 0.67304 0.0
C607 C 0.99277 0.56861 0.69193 0.0
H608 H 0.00698 0.14247 0.30386 0.0
H609 H 0.97153 0.18632 0.43515 0.0
H610 H 0.95889 0.15232 0.49667 0.0
H611 H 0.96656 0.09957 0.29877 0.0
H612 H 0.98668 0.07614 0.29696 0.0
H613 H 0.99574 0.10386 0.2676 0.0
H614 H 0.03124 0.1042 0.34357 0.0
H615 H 0.02247 0.07621 0.37234 0.0
H616 H 0.02645 0.09939 0.42629 0.0
H617 H 0.94439 0.11375 0.53242 0.0
H618 H 0.9336 0.07284 0.54871 0.0
H619 H 0.9809 0.05437 0.39961 0.0
C620 C 0.99733 0.14512 0.34678 0.0
C621 C 0.99007 0.16717 0.36408 0.0
C622 C 0.9769 0.16962 0.41996 0.0
C623 C 0.96982 0.15042 0.45562 0.0
C624 C 0.97651 0.12893 0.4357 0.0
C625 C 0.9905 0.12619 0.38354 0.0
C626 C 0.99421 0.10113 0.37026 0.0
C627 C 0.98525 0.09482 0.30452 0.0
C628 C 0.02013 0.09487 0.37865 0.0
C629 C 0.97913 0.09024 0.4212 0.0
C630 C 0.96912 0.10657 0.45859 0.0
C631 C 0.95264 0.10077 0.50472 0.0
C632 C 0.94659 0.07763 0.51362 0.0
C633 C 0.95688 0.06082 0.47617 0.0
C634 C 0.97337 0.0671 0.42971 0.0
H635 H 0.33543 0.04438 0.34222 0.0
H636 H 0.35224 0.11672 0.31754 0.0
H637 H 0.39071 0.11068 0.36714 0.0
H638 H 0.36011 0.03954 0.49521 0.0
H639 H 0.37046 0.01094 0.48396 0.0
H640 H 0.34514 0.02069 0.44165 0.0
H641 H 0.36531 0.01041 0.33698 0.0
H642 H 0.39088 0.001 0.37906 0.0
H643 H 0.39376 0.02264 0.31839 0.0
H644 H 0.42622 0.0975 0.42299 0.0
H645 H 0.45496 0.07889 0.4922 0.0
H646 H 0.4149 0.01527 0.48441 0.0
C647 C 0.34705 0.05905 0.34766 0.0
C648 C 0.34078 0.08104 0.32546 0.0
C649 C 0.35675 0.09964 0.33299 0.0
C650 C 0.37866 0.09639 0.36112 0.0
C651 C 0.38431 0.07446 0.38172 0.0
C652 C 0.36888 0.05617 0.37615 0.0
C653 C 0.37861 0.0347 0.40623 0.0
C654 C 0.36264 0.02596 0.45995 0.0
C655 C 0.38236 0.01609 0.35722 0.0
C656 C 0.40179 0.04391 0.43068 0.0
C657 C 0.40482 0.06683 0.41505 0.0
C658 C 0.42415 0.07955 0.43516 0.0
C659 C 0.44035 0.06883 0.47437 0.0
C660 C 0.4371 0.04568 0.49312 0.0
C661 C 0.41799 0.03284 0.46951 0.0
H662 H 0.53201 0.33844 0.31527 0.0
H663 H 0.60683 0.35291 0.31712 0.0
H664 H 0.59956 0.3896 0.37084 0.0
H665 H 0.51354 0.39665 0.28701 0.0
H666 H 0.48799 0.39324 0.33627 0.0
H667 H 0.49939 0.36899 0.29582 0.0
H668 H 0.50283 0.34673 0.40144 0.0
H669 H 0.4913 0.37082 0.44206 0.0
H670 H 0.5192 0.35931 0.46491 0.0
H671 H 0.58337 0.42355 0.43181 0.0
H672 H 0.56017 0.45123 0.49204 0.0
H673 H 0.49638 0.41379 0.44448 0.0
C674 C 0.54691 0.34929 0.32717 0.0
C675 C 0.56999 0.34281 0.31313 0.0
C676 C 0.58901 0.35764 0.32796 0.0
C677 C 0.58502 0.37844 0.35828 0.0
C678 C 0.56192 0.38417 0.37219 0.0
C679 C 0.54323 0.37001 0.35654 0.0
C680 C 0.52011 0.37951 0.37734 0.0
C681 C 0.50434 0.38492 0.32073 0.0
C682 C 0.50764 0.36312 0.42423 0.0
C683 C 0.52862 0.40106 0.40861 0.0
C684 C 0.55274 0.40365 0.40516 0.0
C685 C 0.56446 0.42181 0.43408 0.0
C686 C 0.55116 0.43744 0.46812 0.0
C687 C 0.52646 0.43472 0.47278 0.0
C688 C 0.51519 0.41652 0.44151 0.0
H689 H 0.18131 0.43666 0.40735 0.0
H690 H 0.1524 0.41637 0.2277 0.0
H691 H 0.11681 0.43816 0.24903 0.0
H692 H 0.12536 0.43618 0.49363 0.0
H693 H 0.13378 0.46084 0.53867 0.0
H694 H 0.15584 0.44167 0.51148 0.0
H695 H 0.17754 0.47599 0.45764 0.0
H696 H 0.15514 0.4951 0.48319 0.0
H697 H 0.16217 0.49334 0.40101 0.0
H698 H 0.08561 0.46432 0.28596 0.0
H699 H 0.05853 0.48906 0.34317 0.0
H700 H 0.10869 0.49364 0.49604 0.0
C701 C 0.16733 0.43649 0.37297 0.0
C702 C 0.16962 0.42466 0.31608 0.0
C703 C 0.1509 0.42486 0.27228 0.0
C704 C 0.13071 0.43745 0.28352 0.0
C705 C 0.1295 0.44973 0.33875 0.0
C706 C 0.14709 0.44904 0.38331 0.0
C707 C 0.14161 0.46413 0.43824 0.0
C708 C 0.13898 0.44985 0.49908 0.0
C709 C 0.16023 0.48327 0.44538 0.0
C710 C 0.11835 0.4736 0.41704 0.0
C711 C 0.11167 0.46513 0.35955 0.0
C712 C 0.0906 0.47108 0.33109 0.0
C713 C 0.07545 0.48535 0.36363 0.0
C714 C 0.0815 0.49335 0.42396 0.0
C715 C 0.10359 0.48795 0.44981 0.0
H716 H 0.02888 0.82885 0.76359 0.0
H717 H 0.04701 0.8617 0.93873 0.0
H718 H 0.04908 0.89897 0.88397 0.0
H719 H 0.0614 0.86961 0.65484 0.0
H720 H 0.03802 0.8691 0.59809 0.0
H721 H 0.04383 0.84397 0.64522 0.0
H722 H 0.00108 0.84244 0.68461 0.0
H723 H 0.99445 0.86713 0.63743 0.0
H724 H 0.98885 0.86729 0.72058 0.0
H725 H 0.0418 0.93329 0.81574 0.0
H726 H 0.0239 0.96103 0.7415 0.0
H727 H 0.00783 0.90599 0.61424 0.0
C728 C 0.03381 0.84379 0.79029 0.0
C729 C 0.03788 0.84221 0.85551 0.0
C730 C 0.04432 0.86225 0.88849 0.0
C731 C 0.04549 0.88359 0.85776 0.0
C732 C 0.04026 0.88466 0.79399 0.0
C733 C 0.03463 0.86521 0.76057 0.0
C734 C 0.02609 0.87114 0.69532 0.0
C735 C 0.04337 0.86296 0.64543 0.0
C736 C 0.00115 0.86144 0.68389 0.0
C737 C 0.02634 0.89693 0.69867 0.0
C738 C 0.03534 0.90451 0.75505 0.0
C739 C 0.03529 0.92762 0.77082 0.0
C740 C 0.02518 0.94324 0.72859 0.0
C741 C 0.01499 0.93545 0.67236 0.0
C742 C 0.01608 0.91222 0.65661 0.0
H743 H 0.66916 0.93576 0.77672 0.0
H744 H 0.6365 0.93058 0.9603 0.0
H745 H 0.59859 0.94167 0.91411 0.0
H746 H 0.63751 0.9847 0.72158 0.0
H747 H 0.63467 0.97464 0.64241 0.0
H748 H 0.65939 0.96627 0.6895 0.0
H749 H 0.6491 0.92354 0.67147 0.0
H750 H 0.6246 0.93185 0.62357 0.0
H751 H 0.62002 0.91285 0.68993 0.0
H752 H 0.56453 0.95461 0.84878 0.0
H753 H 0.53586 0.96502 0.76586 0.0
H754 H 0.59037 0.96031 0.62532 0.0
C755 C 0.654 0.93693 0.80704 0.0
C756 C 0.65568 0.93222 0.87194 0.0
C757 C 0.63547 0.9338 0.91025 0.0
C758 C 0.61394 0.94028 0.8846 0.0
C759 C 0.6129 0.94503 0.82057 0.0
C760 C 0.63231 0.94319 0.78212 0.0
C761 C 0.62633 0.94873 0.71455 0.0
C762 C 0.64031 0.96984 0.69064 0.0
C763 C 0.63023 0.928 0.67242 0.0
C764 C 0.60054 0.95386 0.72112 0.0
C765 C 0.59317 0.95195 0.78275 0.0
C766 C 0.57007 0.95616 0.80034 0.0
C767 C 0.55399 0.96215 0.75337 0.0
C768 C 0.5612 0.96349 0.69013 0.0
C769 C 0.58467 0.95941 0.6738 0.0
H770 H 0.44777 0.6688 0.80895 0.0
H771 H 0.40972 0.62564 0.94186 0.0
H772 H 0.41736 0.59181 0.87636 0.0
H773 H 0.43381 0.63653 0.66224 0.0
H774 H 0.46321 0.64109 0.63292 0.0
H775 H 0.45 0.66218 0.68196 0.0
H776 H 0.48532 0.6597 0.75818 0.0
H777 H 0.49848 0.63849 0.70997 0.0
H778 H 0.49294 0.63234 0.79174 0.0
H779 H 0.43319 0.56226 0.80183 0.0
H780 H 0.45794 0.53969 0.73033 0.0
H781 H 0.48816 0.60258 0.65372 0.0
C782 C 0.44017 0.65236 0.82253 0.0
C783 C 0.42756 0.64971 0.87893 0.0
C784 C 0.41891 0.62788 0.89767 0.0
C785 C 0.42318 0.60867 0.86082 0.0
C786 C 0.43636 0.6117 0.80608 0.0
C787 C 0.44477 0.63306 0.78718 0.0
C788 C 0.46145 0.63149 0.73243 0.0
C789 C 0.45151 0.64353 0.67392 0.0
C790 C 0.48599 0.64106 0.74913 0.0
C791 C 0.46169 0.60589 0.72451 0.0
C792 C 0.4467 0.59471 0.76614 0.0
C793 C 0.44481 0.57087 0.76866 0.0
C794 C 0.45888 0.5582 0.72811 0.0
C795 C 0.47495 0.56951 0.68727 0.0
C796 C 0.47606 0.59358 0.68496 0.0
H797 H 0.8525 0.55664 0.90801 0.0
H798 H 0.80178 0.53636 0.76628 0.0
H799 H 0.83208 0.51377 0.71433 0.0
H800 H 0.90064 0.56512 0.80161 0.0
H801 H 0.9217 0.55504 0.8583 0.0
H802 H 0.89519 0.56809 0.88438 0.0
H803 H 0.88683 0.53153 0.95242 0.0
H804 H 0.91283 0.51829 0.92279 0.0
H805 H 0.88468 0.50412 0.91504 0.0
H806 H 0.86748 0.49311 0.67877 0.0
H807 H 0.90735 0.48273 0.64765 0.0
H808 H 0.93581 0.51959 0.80667 0.0
C809 C 0.84774 0.54774 0.86559 0.0
C810 C 0.82461 0.54807 0.84179 0.0
C811 C 0.81921 0.53594 0.78637 0.0
C812 C 0.83628 0.52302 0.75658 0.0
C813 C 0.85868 0.52257 0.78245 0.0
C814 C 0.8646 0.53505 0.83475 0.0
C815 C 0.89039 0.53313 0.85017 0.0
C816 C 0.90269 0.55676 0.8484 0.0
C817 C 0.89387 0.52105 0.91389 0.0
C818 C 0.89824 0.51827 0.79692 0.0
C819 C 0.8795 0.51172 0.75977 0.0
C820 C 0.88232 0.49822 0.70727 0.0
C821 C 0.90509 0.49234 0.69014 0.0
C822 C 0.92476 0.50067 0.72421 0.0
C823 C 0.92115 0.51296 0.77977 0.0
H824 H 0.01715 0.16498 0.9098 0.0
H825 H 0.99458 0.21519 0.77195 0.0
H826 H 0.98981 0.18444 0.69372 0.0
H827 H 0.05004 0.12978 0.80458 0.0
H828 H 0.04116 0.10353 0.84377 0.0
H829 H 0.04336 0.12966 0.88721 0.0
H830 H 0.0002 0.12422 0.92365 0.0
H831 H 0.99784 0.09813 0.88017 0.0
H832 H 0.97738 0.12077 0.86588 0.0
H833 H 0.98757 0.14744 0.63075 0.0
H834 H 0.98709 0.10794 0.59058 0.0
H835 H 0.01029 0.08271 0.77181 0.0
C836 C 0.01161 0.16964 0.86284 0.0
C837 C 0.00654 0.19256 0.84671 0.0
C838 C 0.9986 0.19776 0.78528 0.0
C839 C 0.99592 0.18042 0.74057 0.0
C840 C 0.00111 0.15799 0.75824 0.0
C841 C 0.00873 0.15263 0.81807 0.0
C842 C 0.01246 0.12722 0.82638 0.0
C843 C 0.03829 0.12227 0.84135 0.0
C844 C 0.99598 0.11699 0.87701 0.0
C845 C 0.00578 0.11899 0.76184 0.0
C846 C -0.00067 0.13693 0.72297 0.0
C847 C 0.99244 0.13331 0.66109 0.0
C848 C 0.99201 0.1108 0.63874 0.0
C849 C 0.99823 0.09219 0.67819 0.0
C850 C 0.00537 0.09651 0.74036 0.0
H851 H 0.32069 0.06694 0.82122 0.0
H852 H 0.30496 0.00356 0.92329 0.0
H853 H 0.34074 0.9869 0.88161 0.0
H854 H 0.3481 0.04157 0.68468 0.0
H855 H 0.37036 0.06374 0.67806 0.0
H856 H 0.34206 0.0701 0.71047 0.0
H857 H 0.36232 0.08535 0.81064 0.0
H858 H 0.39065 0.07872 0.77894 0.0
H859 H 0.38179 0.06707 0.85415 0.0
H860 H 0.37871 0.97715 0.83282 0.0
H861 H 0.41631 0.97466 0.77607 0.0
H862 H 0.41001 0.04513 0.71326 0.0
C863 C 0.32461 0.04952 0.83479 0.0
C864 C 0.30953 0.03663 0.87539 0.0
C865 C 0.31553 0.01378 0.891 0.0
C866 C 0.33611 0.00416 0.8682 0.0
C867 C 0.35081 0.01759 0.83023 0.0
C868 C 0.34536 0.03973 0.81331 0.0
C869 C 0.36479 0.05069 0.77379 0.0
C870 C 0.35579 0.05688 0.70784 0.0
C871 C 0.37552 0.0717 0.80635 0.0
C872 C 0.38206 0.03126 0.7717 0.0
C873 C 0.37347 0.01229 0.80427 0.0
C874 C 0.3857 0.99191 0.80747 0.0
C875 C 0.40704 0.99069 0.77538 0.0
C876 C 0.41614 0.00981 0.74142 0.0
C877 C 0.40368 0.03048 0.74031 0.0
H878 H 0.52864 0.33615 0.92842 0.0
H879 H 0.48867 0.29168 0.8061 0.0
H880 H 0.476 0.32563 0.74385 0.0
H881 H 0.48675 0.38267 0.92831 0.0
H882 H 0.50957 0.40436 0.93082 0.0
H883 H 0.51431 0.37664 0.96602 0.0
H884 H 0.55168 0.37208 0.89827 0.0
H885 H 0.54711 0.39977 0.86308 0.0
H886 H 0.54964 0.37504 0.8142 0.0
H887 H 0.47039 0.36508 0.69126 0.0
H888 H 0.4717 0.40552 0.65498 0.0
H889 H 0.5143 0.42316 0.8164 0.0
C890 C 0.51715 0.33359 0.88857 0.0
C891 C 0.50977 0.31143 0.87133 0.0
C892 C 0.4945 0.30862 0.81965 0.0
C893 C 0.48725 0.32777 0.78428 0.0
C894 C 0.49511 0.34949 0.80225 0.0
C895 C 0.50955 0.3524 0.8537 0.0
C896 C 0.51594 0.37727 0.86337 0.0
C897 C 0.50605 0.38573 0.92583 0.0
C898 C 0.54267 0.38126 0.85945 0.0
C899 C 0.50349 0.38802 0.80817 0.0
C900 C 0.49141 0.37185 0.7735 0.0
C901 C 0.47954 0.37787 0.71861 0.0
C902 C 0.48035 0.4009 0.69842 0.0
C903 C 0.49298 0.41758 0.73302 0.0
C904 C 0.5043 0.41094 0.78907 0.0
H905 H 0.20115 0.46117 0.82812 0.0
H906 H 0.16915 0.40083 0.91575 0.0
H907 H 0.13223 0.40845 0.85994 0.0
H908 H 0.15148 0.4962 0.84105 0.0
H909 H 0.15605 0.51078 0.76693 0.0
H910 H 0.18067 0.49948 0.80929 0.0
H911 H 0.19241 0.47595 0.71234 0.0
H912 H 0.16789 0.48733 0.66954 0.0
H913 H 0.17114 0.45683 0.67745 0.0
H914 H 0.09782 0.42374 0.79759 0.0
H915 H 0.06932 0.44549 0.73353 0.0
H916 H 0.12354 0.49644 0.69132 0.0
C917 C 0.18646 0.44946 0.83544 0.0
C918 C 0.18831 0.43024 0.87602 0.0
C919 C 0.16853 0.41537 0.88384 0.0
C920 C 0.14733 0.41965 0.85271 0.0
C921 C 0.14605 0.43892 0.81387 0.0
C922 C 0.16512 0.45354 0.80501 0.0
C923 C 0.15892 0.47353 0.76268 0.0
C924 C 0.16196 0.49634 0.79706 0.0
C925 C 0.17345 0.47339 0.70191 0.0
C926 C 0.13332 0.46807 0.74999 0.0
C927 C 0.1262 0.44794 0.77939 0.0
C928 C 0.10322 0.43951 0.77426 0.0
C929 C 0.08715 0.45198 0.73789 0.0
C930 C 0.09411 0.47272 0.70771 0.0
C931 C 0.11753 0.48074 0.71413 0.0
H932 H 0.00034 0.8058 0.37833 0.0
H933 H 0.9372 0.8142 0.26699 0.0
H934 H 0.92952 0.85026 0.32035 0.0
H935 H 0.97942 0.83561 0.52328 0.0
H936 H 0.008 0.84844 0.53503 0.0
H937 H 0.00535 0.82073 0.49969 0.0
H938 H 0.02958 0.83596 0.40446 0.0
H939 H 0.03186 0.86372 0.43921 0.0
H940 H 0.01968 0.86079 0.36166 0.0
H941 H 0.93179 0.88839 0.37346 0.0
H942 H 0.94408 0.92492 0.42189 0.0
H943 H 0.00717 0.89291 0.49181 0.0
C944 C 0.98461 0.81491 0.36594 0.0
C945 C 0.96939 0.80688 0.31831 0.0
C946 C 0.94894 0.81948 0.30414 0.0
C947 C 0.94447 0.84019 0.33399 0.0
C948 C 0.96052 0.84816 0.37814 0.0
C949 C 0.98009 0.83579 0.39451 0.0
C950 C 0.99609 0.8493 0.43758 0.0
C951 C 0.99727 0.83783 0.50276 0.0
C952 C 0.02075 0.85264 0.40897 0.0
C953 C 0.98312 0.87165 0.44001 0.0
C954 C 0.96232 0.87048 0.40689 0.0
C955 C 0.9479 0.8894 0.40021 0.0
C956 C 0.95503 0.91009 0.42766 0.0
C957 C 0.97663 0.91178 0.46011 0.0
C958 C 0.99062 0.89218 0.46693 0.0
H959 H 0.69245 0.96705 0.37602 0.0
H960 H 0.66771 0.90699 0.27671 0.0
H961 H 0.62825 0.9118 0.32068 0.0
H962 H 0.65469 0.95791 0.51745 0.0
H963 H 0.65008 0.98813 0.5255 0.0
H964 H 0.67709 0.97819 0.49241 0.0
H965 H 0.67 0.00356 0.39359 0.0
H966 H 0.64279 0.01314 0.426 0.0
H967 H 0.6431 0.0 0.35007 0.0
H968 H 0.59051 0.92524 0.36615 0.0
H969 H 0.55773 0.94499 0.41682 0.0
H970 H 0.60669 -0.00355 0.48598 0.0
C971 C 0.67884 0.95467 0.36449 0.0
C972 C 0.68335 0.93649 0.32341 0.0
C973 C 0.66495 0.92074 0.30923 0.0
C974 C 0.64236 0.92343 0.33356 0.0
C975 C 0.63837 0.94186 0.37243 0.0
C976 C 0.65615 0.95704 0.38866 0.0
C977 C 0.64689 0.97596 0.42917 0.0
C978 C 0.65784 0.97498 0.49503 0.0
C979 C 0.65094 -0.00044 0.39781 0.0
C980 C 0.62105 0.96947 0.43122 0.0
C981 C 0.61653 0.94965 0.39861 0.0
C982 C 0.59386 0.94065 0.39241 0.0
C983 C 0.57533 0.95206 0.42104 0.0
C984 C 0.5796 0.97229 0.45524 0.0
C985 C 0.6028 0.98105 0.46011 0.0
H986 H 0.45975 0.68222 0.31738 0.0
H987 H 0.53027 0.71026 0.3382 0.0
H988 H 0.5417 0.67518 0.39606 0.0
H989 H 0.45644 0.65327 0.47172 0.0
H990 H 0.4398 0.62956 0.44049 0.0
H991 H 0.43712 0.65767 0.40592 0.0
H992 H 0.44807 0.64133 0.29755 0.0
H993 H 0.45122 0.61329 0.33195 0.0
H994 H 0.47525 0.62638 0.28891 0.0
H995 H 0.54584 0.63533 0.44542 0.0
H996 H 0.54171 0.59556 0.48599 0.0
H997 H 0.46827 0.59482 0.43233 0.0
C998 C 0.47741 0.68146 0.3358 0.0
C999 C 0.49403 0.69921 0.32364 0.0
C1000 C 0.51721 0.69692 0.34679 0.0
C1001 C 0.52385 0.67707 0.37982 0.0
C1002 C 0.50709 0.6597 0.38953 0.0
C1003 C 0.48428 0.66189 0.36873 0.0
C1004 C 0.46977 0.64051 0.38247 0.0
C1005 C 0.44959 0.64556 0.42786 0.0
C1006 C 0.46055 0.62975 0.3216 0.0
C1007 C 0.48803 0.62573 0.4134 0.0
C1008 C 0.50946 0.63703 0.41736 0.0
C1009 C 0.52907 0.62642 0.44293 0.0
C1010 C 0.5266 0.60379 0.46555 0.0
C1011 C 0.50468 0.59204 0.4623 0.0
C1012 C 0.48527 0.60327 0.43567 0.0
H1013 H 0.83583 0.5754 0.29019 0.0
H1014 H 0.77976 0.54013 0.39269 0.0
H1015 H 0.80897 0.52323 0.46374 0.0
H1016 H 0.87711 0.53211 0.29784 0.0
H1017 H 0.90225 0.55066 0.30983 0.0
H1018 H 0.87698 0.56121 0.26876 0.0
H1019 H 0.87382 0.59438 0.3473 0.0
H1020 H 0.89923 0.58404 0.38844 0.0
H1021 H 0.87213 0.58803 0.43015 0.0
H1022 H 0.84402 0.50716 0.5166 0.0
H1023 H 0.8828 0.49494 0.5536 0.0
H1024 H 0.91661 0.5429 0.424 0.0
C1025 C 0.82953 0.56464 0.32853 0.0
C1026 C 0.80532 0.55907 0.33531 0.0
C1027 C 0.79812 0.54441 0.38549 0.0
C1028 C 0.8146 0.53484 0.42652 0.0
C1029 C 0.83825 0.54036 0.41764 0.0
C1030 C 0.84573 0.55517 0.37056 0.0
C1031 C 0.87231 0.55779 0.37054 0.0
C1032 C 0.88277 0.54997 0.30803 0.0
C1033 C 0.87981 0.58253 0.38498 0.0
C1034 C 0.87862 0.54165 0.42401 0.0
C1035 C 0.85862 0.53178 0.4503 0.0
C1036 C 0.85977 0.51508 0.49724 0.0
C1037 C 0.8819 0.50821 0.5178 0.0
C1038 C 0.90266 0.5182 0.49224 0.0
C1039 C 0.901 0.53536 0.44522 0.0
loop_
_geom_bond_atom_site_label_1
_geom_bond_atom_site_label_2
_geom_bond_distance
_geom_bond_site_symmetry_2
_ccdc_geom_bond_type
C0 C1 1.386 . S
C0 C2 1.397 . S
C0 H24 0.931 . S
C1 C0 1.386 . S
C1 C5 1.397 . S
C2 C0 1.397 . S
C2 C3 1.384 . S
C2 H25 0.930 . S
C3 C2 1.384 . S
C3 C4 1.377 . S
C3 C6 1.481 . S
C4 C3 1.377 . S
C4 C5 1.389 . S
C4 H26 0.929 . S
C5 C1 1.397 . S
C5 C4 1.389 . S
C5 H27 0.931 . S
C6 C3 1.481 . S
C6 C7 1.387 . S
C6 C11 1.390 1_556 S
C7 C6 1.387 . S
C7 C8 1.401 . S
C7 H28 0.930 . S
C8 C7 1.401 . S
C8 C9 1.376 1_556 S
C8 C17 1.511 . S
C9 C8 1.376 1_554 S
C9 C10 1.392 . S
C9 H30 0.931 . S
C10 C9 1.392 . S
C10 C11 1.361 . S
C10 C12 1.500 . S
C11 C6 1.390 1_554 S
C11 C10 1.361 . S
C11 H29 0.931 . S
C12 C10 1.500 . S
C12 C13 1.371 . S
C12 C14 1.365 . S
C13 C12 1.371 . S
C13 C23 1.386 . S
C13 H31 0.931 . S
C14 C12 1.365 . S
C14 C15 1.409 . S
C14 H32 0.929 . S
C15 C14 1.409 . S
C15 C16 1.380 . S
C15 H33 0.930 . S
C16 C15 1.380 . S
C16 C23 1.357 . S
C17 C8 1.511 . S
C17 C18 1.341 . S
C17 C19 1.371 1_556 S
C18 C17 1.341 . S
C18 C22 1.394 . S
C18 H34 0.930 . S
C19 C17 1.371 1_554 S
C19 C20 1.392 . S
C19 H35 0.931 . S
C20 C19 1.392 . S
C20 C21 1.331 1_554 S
C20 H38 0.932 . S
C21 C20 1.331 1_556 S
C21 C22 1.336 . S
C22 C18 1.394 . S
C22 C21 1.336 . S
C22 H37 0.929 . S
C23 C13 1.386 . S
C23 C16 1.357 . S
C23 H36 0.928 . S
H24 C0 0.931 . S
H25 C2 0.930 . S
H26 C4 0.929 . S
H27 C5 0.931 . S
H28 C7 0.930 . S
H29 C11 0.931 . S
H30 C9 0.931 . S
H31 C13 0.931 . S
H32 C14 0.929 . S
H33 C15 0.930 . S
H34 C18 0.930 . S
H35 C19 0.931 . S
H36 C23 0.928 . S
H37 C22 0.929 . S
H38 C20 0.932 . S
C39 C40 1.394 . S
C39 C41 1.397 . S
C39 H63 0.931 . S
C40 C39 1.394 . S
C40 C44 1.389 1_655 S
C41 C39 1.397 . S
C41 C42 1.389 . S
C41 H64 0.930 . S
C42 C41 1.389 . S
C42 C43 1.373 1_655 S
C42 C45 1.481 . S
C43 C42 1.373 1_455 S
C43 C44 1.389 . S
C43 H65 0.929 . S
C44 C40 1.389 1_455 S
C44 C43 1.389 . S
C44 H66 0.931 . S
C45 C42 1.481 . S
C45 C46 1.388 . S
C45 C50 1.390 1_556 S
C46 C45 1.388 . S
C46 C47 1.403 1_556 S
C46 H67 0.930 . S
C47 C46 1.403 1_554 S
C47 C48 1.376 . S
C47 C56 1.512 . S
C48 C47 1.376 . S
C48 C49 1.392 . S
C48 H69 0.934 . S
C49 C48 1.392 . S
C49 C50 1.361 . S
C49 C51 1.499 1_655 S
C50 C45 1.390 1_554 S
C50 C49 1.361 . S
C50 H68 0.931 . S
C51 C49 1.499 1_455 S
C51 C52 1.362 1_455 S
C51 C53 1.374 . S
C52 C51 1.362 1_655 S
C52 C62 1.386 . S
C52 H70 0.931 . S
C53 C51 1.374 . S
C53 C54 1.409 . S
C53 H71 0.929 . S
C54 C53 1.409 . S
C54 C55 1.379 . S
C54 H72 0.930 . S
C55 C54 1.379 . S
C55 C62 1.358 1_455 S
C56 C47 1.512 . S
C56 C57 1.341 1_554 S
C56 C58 1.371 1_655 S
C57 C56 1.341 1_556 S
C57 C61 1.394 . S
C57 H73 0.930 . S
C58 C56 1.371 1_455 S
C58 C59 1.392 . S
C58 H74 0.931 . S
C59 C58 1.392 . S
C59 C60 1.322 1_454 S
C59 H77 0.932 . S
C60 C59 1.322 1_656 S
C60 C61 1.346 . S
C61 C57 1.394 . S
C61 C60 1.346 . S
C61 H76 0.929 . S
C62 C52 1.386 . S
C62 C55 1.358 1_655 S
C62 H75 0.928 . S
H63 C39 0.931 . S
H64 C41 0.930 . S
H65 C43 0.929 . S
H66 C44 0.931 . S
H67 C46 0.930 . S
H68 C50 0.931 . S
H69 C48 0.934 . S
H70 C52 0.931 . S
H71 C53 0.929 . S
H72 C54 0.930 . S
H73 C57 0.930 . S
H74 C58 0.931 . S
H75 C62 0.928 . S
H76 C61 0.929 . S
H77 C59 0.932 . S
C78 C79 1.386 . S
C78 C80 1.397 . S
C78 H102 0.931 . S
C79 C78 1.386 . S
C79 C83 1.397 . S
C80 C78 1.397 . S
C80 C81 1.384 . S
C80 H103 0.930 . S
C81 C80 1.384 . S
C81 C82 1.377 . S
C81 C84 1.481 . S
C82 C81 1.377 . S
C82 C83 1.389 . S
C82 H104 0.929 . S
C83 C79 1.397 . S
C83 C82 1.389 . S
C83 H105 0.931 . S
C84 C81 1.481 . S
C84 C85 1.387 . S
C84 C89 1.390 1_556 S
C85 C84 1.387 . S
C85 C86 1.401 1_556 S
C85 H106 0.930 . S
C86 C85 1.401 1_554 S
C86 C87 1.376 . S
C86 C95 1.514 . S
C87 C86 1.376 . S
C87 C88 1.392 . S
C87 H108 0.931 . S
C88 C87 1.392 . S
C88 C89 1.361 . S
C88 C90 1.500 . S
C89 C84 1.390 1_554 S
C89 C88 1.361 . S
C89 H107 0.931 . S
C90 C88 1.500 . S
C90 C91 1.371 . S
C90 C92 1.365 . S
C91 C90 1.371 . S
C91 C101 1.386 . S
C91 H109 0.931 . S
C92 C90 1.365 . S
C92 C93 1.409 . S
C92 H110 0.929 . S
C93 C92 1.409 . S
C93 C94 1.380 . S
C93 H111 0.930 . S
C94 C93 1.380 . S
C94 C101 1.357 . S
C95 C86 1.514 . S
C95 C96 1.330 1_554 S
C95 C97 1.379 . S
C96 C95 1.330 1_556 S
C96 C100 1.394 . S
C96 H112 0.930 . S
C97 C95 1.379 . S
C97 C98 1.392 . S
C97 H113 0.931 . S
C98 C97 1.392 . S
C98 C99 1.331 1_554 S
C98 H116 0.932 . S
C99 C98 1.331 1_556 S
C99 C100 1.336 . S
C100 C96 1.394 . S
C100 C99 1.336 . S
C100 H115 0.929 . S
C101 C91 1.386 . S
C101 C94 1.357 . S
C101 H114 0.928 . S
H102 C78 0.931 . S
H103 C80 0.930 . S
H104 C82 0.929 . S
H105 C83 0.931 . S
H106 C85 0.930 . S
H107 C89 0.931 . S
H108 C87 0.931 . S
H109 C91 0.931 . S
H110 C92 0.929 . S
H111 C93 0.930 . S
H112 C96 0.930 . S
H113 C97 0.931 . S
H114 C101 0.928 . S
H115 C100 0.929 . S
H116 C98 0.932 . S
C117 C118 1.386 . S
C117 C119 1.397 . S
C117 H141 0.931 . S
C118 C117 1.386 . S
C118 C122 1.397 . S
C119 C117 1.397 . S
C119 C120 1.384 . S
C119 H142 0.930 . S
C120 C119 1.384 . S
C120 C121 1.377 . S
C120 C123 1.481 . S
C121 C120 1.377 . S
C121 C122 1.389 . S
C121 H143 0.929 . S
C122 C118 1.397 . S
C122 C121 1.389 . S
C122 H144 0.931 . S
C123 C120 1.481 . S
C123 C124 1.387 . S
C123 C128 1.390 . S
C124 C123 1.387 . S
C124 C125 1.401 . S
C124 H145 0.930 . S
C125 C124 1.401 . S
C125 C126 1.376 1_554 S
C125 C134 1.511 . S
C126 C125 1.376 1_556 S
C126 C127 1.392 . S
C126 H147 0.931 . S
C127 C126 1.392 . S
C127 C128 1.361 1_556 S
C127 C129 1.500 . S
C128 C123 1.390 . S
C128 C127 1.361 1_554 S
C128 H146 0.931 . S
C129 C127 1.500 . S
C129 C130 1.371 . S
C129 C131 1.365 . S
C130 C129 1.371 . S
C130 C140 1.386 . S
C130 H148 0.931 . S
C131 C129 1.365 . S
C131 C132 1.409 . S
C131 H149 0.929 . S
C132 C131 1.409 . S
C132 C133 1.380 . S
C132 H150 0.930 . S
C133 C132 1.380 . S
C133 C140 1.357 . S
C134 C125 1.511 . S
C134 C135 1.341 . S
C134 C136 1.371 1_554 S
C135 C134 1.341 . S
C135 C139 1.394 . S
C135 H151 0.930 . S
C136 C134 1.371 1_556 S
C136 C137 1.392 . S
C136 H152 0.931 . S
C137 C136 1.392 . S
C137 C138 1.331 . S
C137 H155 0.932 . S
C138 C137 1.331 . S
C138 C139 1.336 1_556 S
C139 C135 1.394 . S
C139 C138 1.336 1_554 S
C139 H154 0.929 . S
C140 C130 1.386 . S
C140 C133 1.357 . S
C140 H153 0.928 . S
H141 C117 0.931 . S
H142 C119 0.930 . S
H143 C121 0.929 . S
H144 C122 0.931 . S
H145 C124 0.930 . S
H146 C128 0.931 . S
H147 C126 0.931 . S
H148 C130 0.931 . S
H149 C131 0.929 . S
H150 C132 0.930 . S
H151 C135 0.930 . S
H152 C136 0.931 . S
H153 C140 0.928 . S
H154 C139 0.929 . S
H155 C137 0.932 . S
C156 C157 1.386 . S
C156 C158 1.397 . S
C156 H180 0.931 . S
C157 C156 1.386 . S
C157 C161 1.397 . S
C158 C156 1.397 . S
C158 C159 1.384 . S
C158 H181 0.930 . S
C159 C158 1.384 . S
C159 C160 1.377 . S
C159 C162 1.481 . S
C160 C159 1.377 . S
C160 C161 1.389 . S
C160 H182 0.929 . S
C161 C157 1.397 . S
C161 C160 1.389 . S
C161 H183 0.931 . S
C162 C159 1.481 . S
C162 C163 1.387 . S
C162 C167 1.390 . S
C163 C162 1.387 . S
C163 C164 1.401 . S
C163 H184 0.930 . S
C164 C163 1.401 . S
C164 C165 1.376 . S
C164 C173 1.511 . S
C165 C164 1.376 . S
C165 C166 1.392 . S
C165 H186 0.931 . S
C166 C165 1.392 . S
C166 C167 1.361 . S
C166 C168 1.500 . S
C167 C162 1.390 . S
C167 C166 1.361 . S
C167 H185 0.931 . S
C168 C166 1.500 . S
C168 C169 1.371 1_554 S
C168 C170 1.365 . S
C169 C168 1.371 1_556 S
C169 C179 1.386 . S
C169 H187 0.931 1_556 S
C170 C168 1.365 . S
C170 C171 1.409 1_554 S
C170 H188 0.929 . S
C171 C170 1.409 1_556 S
C171 C172 1.380 . S
C171 H189 0.930 . S
C172 C171 1.380 . S
C172 C179 1.357 . S
C173 C164 1.511 . S
C173 C174 1.341 . S
C173 C175 1.371 . S
C174 C173 1.341 . S
C174 C178 1.394 . S
C174 H190 0.930 . S
C175 C173 1.371 . S
C175 C176 1.392 . S
C175 H191 0.931 . S
C176 C175 1.392 . S
C176 C177 1.331 . S
C176 H194 0.932 . S
C177 C176 1.331 . S
C177 C178 1.336 . S
C178 C174 1.394 . S
C178 C177 1.336 . S
C178 H193 0.929 . S
C179 C169 1.386 . S
C179 C172 1.357 . S
C179 H192 0.928 . S
H180 C156 0.931 . S
H181 C158 0.930 . S
H182 C160 0.929 . S
H183 C161 0.931 . S
H184 C163 0.930 . S
H185 C167 0.931 . S
H186 C165 0.931 . S
H187 C169 0.931 1_554 S
H188 C170 0.929 . S
H189 C171 0.930 . S
H190 C174 0.930 . S
H191 C175 0.931 . S
H192 C179 0.928 . S
H193 C178 0.929 . S
H194 C176 0.932 . S
C195 C196 1.388 . S
C195 C197 1.397 . S
C195 H219 0.931 . S
C196 C195 1.388 . S
C196 C200 1.396 1_655 S
C197 C195 1.397 . S
C197 C198 1.382 . S
C197 H220 0.930 . S
C198 C197 1.382 . S
C198 C199 1.379 1_655 S
C198 C201 1.480 . S
C199 C198 1.379 1_455 S
C199 C200 1.389 . S
C199 H221 0.929 . S
C200 C196 1.396 1_455 S
C200 C199 1.389 . S
C200 H222 0.931 . S
C201 C198 1.480 . S
C201 C202 1.388 . S
C201 C206 1.390 . S
C202 C201 1.388 . S
C202 C203 1.401 . S
C202 H223 0.930 . S
C203 C202 1.401 . S
C203 C204 1.376 . S
C203 C212 1.512 . S
C204 C203 1.376 . S
C204 C205 1.391 1_655 S
C204 H225 0.934 . S
C205 C204 1.391 1_455 S
C205 C206 1.361 1_455 S
C205 C207 1.499 . S
C206 C201 1.390 . S
C206 C205 1.361 1_655 S
C206 H224 0.931 . S
C207 C205 1.499 . S
C207 C208 1.357 1_454 S
C207 C209 1.378 1_554 S
C208 C207 1.357 1_656 S
C208 C218 1.386 . S
C208 H226 0.931 . S
C209 C207 1.378 1_556 S
C209 C210 1.417 . S
C209 H227 0.924 1_556 S
C210 C209 1.417 . S
C210 C211 1.384 . S
C210 H228 0.930 . S
C211 C210 1.384 . S
C211 C218 1.353 1_455 S
C212 C203 1.512 . S
C212 C213 1.341 . S
C212 C214 1.371 1_655 S
C213 C212 1.341 . S
C213 C217 1.394 . S
C213 H229 0.930 . S
C214 C212 1.371 1_455 S
C214 C215 1.392 . S
C214 H230 0.931 . S
C215 C214 1.392 . S
C215 C216 1.325 1_455 S
C215 H233 0.932 . S
C216 C215 1.325 1_655 S
C216 C217 1.341 . S
C217 C213 1.394 . S
C217 C216 1.341 . S
C217 H232 0.929 . S
C218 C208 1.386 . S
C218 C211 1.353 1_655 S
C218 H231 0.928 . S
H219 C195 0.931 . S
H220 C197 0.930 . S
H221 C199 0.929 . S
H222 C200 0.931 . S
H223 C202 0.930 . S
H224 C206 0.931 . S
H225 C204 0.934 . S
H226 C208 0.931 . S
H227 C209 0.924 1_554 S
H228 C210 0.930 . S
H229 C213 0.930 . S
H230 C214 0.931 . S
H231 C218 0.928 . S
H232 C217 0.929 . S
H233 C215 0.932 . S
C234 C235 1.386 . S
C234 C236 1.397 . S
C234 H258 0.931 . S
C235 C234 1.386 . S
C235 C239 1.397 . S
C236 C234 1.397 . S
C236 C237 1.384 . S
C236 H259 0.930 . S
C237 C236 1.384 . S
C237 C238 1.377 . S
C237 C240 1.481 . S
C238 C237 1.377 . S
C238 C239 1.389 . S
C238 H260 0.929 . S
C239 C235 1.397 . S
C239 C238 1.389 . S
C239 H261 0.931 . S
C240 C237 1.481 . S
C240 C241 1.387 . S
C240 C245 1.390 . S
C241 C240 1.387 . S
C241 C242 1.401 . S
C241 H262 0.930 . S
C242 C241 1.401 . S
C242 C243 1.376 . S
C242 C251 1.511 . S
C243 C242 1.376 . S
C243 C244 1.392 . S
C243 H264 0.931 . S
C244 C243 1.392 . S
C244 C245 1.361 . S
C244 C246 1.500 . S
C245 C240 1.390 . S
C245 C244 1.361 . S
C245 H263 0.931 . S
C246 C244 1.500 . S
C246 C247 1.371 1_554 S
C246 C248 1.365 . S
C247 C246 1.371 1_556 S
C247 C257 1.386 . S
C247 H265 0.931 . S
C248 C246 1.365 . S
C248 C249 1.409 1_554 S
C248 H266 0.929 . S
C249 C248 1.409 1_556 S
C249 C250 1.380 . S
C249 H267 0.930 . S
C250 C249 1.380 . S
C250 C257 1.357 . S
C251 C242 1.511 . S
C251 C252 1.341 . S
C251 C253 1.371 . S
C252 C251 1.341 . S
C252 C256 1.394 . S
C252 H268 0.930 . S
C253 C251 1.371 . S
C253 C254 1.392 . S
C253 H269 0.931 . S
C254 C253 1.392 . S
C254 C255 1.331 . S
C254 H272 0.932 . S
C255 C254 1.331 . S
C255 C256 1.336 . S
C256 C252 1.394 . S
C256 C255 1.336 . S
C256 H271 0.929 . S
C257 C247 1.386 . S
C257 C250 1.357 . S
C257 H270 0.928 . S
H258 C234 0.931 . S
H259 C236 0.930 . S
H260 C238 0.929 . S
H261 C239 0.931 . S
H262 C241 0.930 . S
H263 C245 0.931 . S
H264 C243 0.931 . S
H265 C247 0.931 . S
H266 C248 0.929 . S
H267 C249 0.930 . S
H268 C252 0.930 . S
H269 C253 0.931 . S
H270 C257 0.928 . S
H271 C256 0.929 . S
H272 C254 0.932 . S
C273 C274 1.386 . S
C273 C275 1.397 . S
C273 H297 0.931 . S
C274 C273 1.386 . S
C274 C278 1.397 . S
C275 C273 1.397 . S
C275 C276 1.384 1_556 S
C275 H298 0.930 . S
C276 C275 1.384 1_554 S
C276 C277 1.377 1_554 S
C276 C279 1.481 . S
C277 C276 1.377 1_556 S
C277 C278 1.389 . S
C277 H299 0.929 1_556 S
C278 C274 1.397 . S
C278 C277 1.389 . S
C278 H300 0.931 . S
C279 C276 1.481 . S
C279 C280 1.387 . S
C279 C284 1.390 . S
C280 C279 1.387 . S
C280 C281 1.401 . S
C280 H301 0.930 . S
C281 C280 1.401 . S
C281 C282 1.376 . S
C281 C290 1.511 . S
C282 C281 1.376 . S
C282 C283 1.392 . S
C282 H303 0.931 . S
C283 C282 1.392 . S
C283 C284 1.361 . S
C283 C285 1.500 . S
C284 C279 1.390 . S
C284 C283 1.361 . S
C284 H302 0.931 . S
C285 C283 1.500 . S
C285 C286 1.371 . S
C285 C287 1.365 . S
C286 C285 1.371 . S
C286 C296 1.386 . S
C286 H304 0.931 . S
C287 C285 1.365 . S
C287 C288 1.409 . S
C287 H305 0.929 . S
C288 C287 1.409 . S
C288 C289 1.380 . S
C288 H306 0.930 . S
C289 C288 1.380 . S
C289 C296 1.357 . S
C290 C281 1.511 . S
C290 C291 1.341 . S
C290 C292 1.371 . S
C291 C290 1.341 . S
C291 C295 1.394 . S
C291 H307 0.930 . S
C292 C290 1.371 . S
C292 C293 1.392 . S
C292 H308 0.931 . S
C293 C292 1.392 . S
C293 C294 1.331 . S
C293 H311 0.932 . S
C294 C293 1.331 . S
C294 C295 1.336 . S
C295 C291 1.394 . S
C295 C294 1.336 . S
C295 H310 0.929 . S
C296 C286 1.386 . S
C296 C289 1.357 . S
C296 H309 0.928 . S
H297 C273 0.931 . S
H298 C275 0.930 . S
H299 C277 0.929 1_554 S
H300 C278 0.931 . S
H301 C280 0.930 . S
H302 C284 0.931 . S
H303 C282 0.931 . S
H304 C286 0.931 . S
H305 C287 0.929 . S
H306 C288 0.930 . S
H307 C291 0.930 . S
H308 C292 0.931 . S
H309 C296 0.928 . S
H310 C295 0.929 . S
H311 C293 0.932 . S
Zn312 O318 1.969 . S
Zn312 O319 1.965 1_655 S
Zn312 O323 2.024 1_655 S
Zn312 O328 1.969 . S
Zn313 O320 1.969 . S
Zn313 O326 1.969 . S
Zn313 O327 1.965 1_455 S
Zn313 O329 2.024 1_455 S
C314 O315 1.229 1_455 S
C314 O323 1.058 . S
O315 C314 1.229 1_655 S
C316 O317 1.229 1_655 S
C316 O329 1.058 . S
O317 C316 1.229 1_455 S
O318 Zn312 1.969 . S
O318 C321 1.267 . S
O319 Zn312 1.965 1_455 S
O319 C330 1.260 . S
O320 Zn313 1.969 . S
O320 C330 1.258 1_565 S
C321 O318 1.267 . S
C321 O322 1.228 1_655 S
O322 C321 1.228 1_455 S
O323 Zn312 2.024 1_455 S
O323 C314 1.058 . S
C324 O325 1.228 1_455 S
C324 O326 1.267 . S
O325 C324 1.228 1_655 S
O326 Zn313 1.969 . S
O326 C324 1.267 . S
O327 Zn313 1.965 1_655 S
O327 C331 1.260 1_565 S
O328 Zn312 1.969 . S
O328 C331 1.258 . S
O329 Zn313 2.024 1_655 S
O329 C316 1.058 . S
C330 O319 1.260 . S
C330 O320 1.258 1_545 S
C331 O327 1.260 1_545 S
C331 O328 1.258 . S
Zn332 O338 1.981 . S
Zn332 O339 1.965 . S
Zn332 O343 2.024 . S
Zn332 O348 1.969 1_545 S
Zn333 O340 1.969 1_565 S
Zn333 O346 1.969 1_565 S
Zn333 O347 1.965 . S
Zn333 O349 2.024 . S
C334 O335 1.229 . S
C334 O343 1.058 . S
O335 C334 1.229 . S
C336 O337 1.229 . S
C336 O349 1.058 . S
O337 C336 1.229 . S
O338 Zn332 1.981 . S
O338 C341 1.295 . S
O339 Zn332 1.965 . S
O339 C350 1.260 . S
O340 Zn333 1.969 1_545 S
O340 C350 1.258 . S
C341 O338 1.295 . S
C341 O342 1.228 . S
O342 C341 1.228 . S
O343 Zn332 2.024 . S
O343 C334 1.058 . S
C344 O345 1.228 . S
C344 O346 1.267 1_565 S
O345 C344 1.228 . S
O346 Zn333 1.969 1_545 S
O346 C344 1.267 1_545 S
O347 Zn333 1.965 . S
O347 C351 1.260 . S
O348 Zn332 1.969 1_565 S
O348 C351 1.258 . S
O349 Zn333 2.024 . S
O349 C336 1.058 . S
C350 O339 1.260 . S
C350 O340 1.258 . S
C351 O347 1.260 . S
C351 O348 1.258 . S
Zn352 O358 1.969 . S
Zn352 O359 1.965 . S
Zn352 O363 2.024 . S
Zn352 O368 1.969 . S
Zn353 O360 1.969 . S
Zn353 O366 1.969 . S
Zn353 O367 1.965 . S
Zn353 O369 2.024 . S
C354 O355 1.229 . S
C354 O363 1.058 . S
O355 C354 1.229 . S
C356 O357 1.229 . S
C356 O369 1.058 . S
O357 C356 1.229 . S
O358 Zn352 1.969 . S
O358 C361 1.267 . S
O359 Zn352 1.965 . S
O359 C370 1.260 . S
O360 Zn353 1.969 . S
O360 C370 1.258 . S
C361 O358 1.267 . S
C361 O362 1.228 . S
O362 C361 1.228 . S
O363 Zn352 2.024 . S
O363 C354 1.058 . S
C364 O365 1.228 . S
C364 O366 1.267 . S
O365 C364 1.228 . S
O366 Zn353 1.969 . S
O366 C364 1.267 . S
O367 Zn353 1.965 . S
O367 C371 1.260 . S
O368 Zn352 1.969 . S
O368 C371 1.258 . S
O369 Zn353 2.024 . S
O369 C356 1.058 . S
C370 O359 1.260 . S
C370 O360 1.258 . S
C371 O367 1.260 . S
C371 O368 1.258 . S
Zn372 O378 1.969 . S
Zn372 O379 1.965 . S
Zn372 O383 2.024 . S
Zn372 O388 1.969 . S
Zn373 O380 1.969 . S
Zn373 O386 1.969 . S
Zn373 O387 1.965 . S
Zn373 O389 2.024 . S
C374 O375 1.229 . S
C374 O383 1.058 . S
O375 C374 1.229 . S
C376 O377 1.229 . S
C376 O389 1.058 . S
O377 C376 1.229 . S
O378 Zn372 1.969 . S
O378 C381 1.267 . S
O379 Zn372 1.965 . S
O379 C390 1.260 1_455 S
O380 Zn373 1.969 . S
O380 C390 1.258 . S
C381 O378 1.267 . S
C381 O382 1.228 . S
O382 C381 1.228 . S
O383 Zn372 2.024 . S
O383 C374 1.058 . S
C384 O385 1.228 . S
C384 O386 1.267 . S
O385 C384 1.228 . S
O386 Zn373 1.969 . S
O386 C384 1.267 . S
O387 Zn373 1.965 . S
O387 C391 1.260 1_655 S
O388 Zn372 1.969 . S
O388 C391 1.258 . S
O389 Zn373 2.024 . S
O389 C376 1.058 . S
C390 O379 1.260 1_655 S
C390 O380 1.258 . S
C391 O387 1.260 1_455 S
C391 O388 1.258 . S
H392 C404 0.930 . S
H393 C406 0.930 . S
H394 C407 0.930 . S
H395 C411 0.959 . S
H396 C411 0.959 . S
H397 C411 0.961 . S
H398 C412 0.960 . S
H399 C412 0.961 . S
H400 C412 0.959 . S
H401 C415 0.929 1_565 S
H402 C416 0.931 1_565 S
H403 C418 0.930 . S
C404 H392 0.930 . S
C404 C405 1.399 . S
C404 C409 1.399 . S
C405 C404 1.399 . S
C405 C406 1.376 . S
C406 H393 0.930 . S
C406 C405 1.376 . S
C406 C407 1.388 . S
C407 H394 0.930 . S
C407 C406 1.388 . S
C407 C408 1.390 . S
C408 C407 1.390 . S
C408 C409 1.394 . S
C408 C414 1.465 . S
C409 C404 1.399 . S
C409 C408 1.394 . S
C409 C410 1.516 . S
C410 C409 1.516 . S
C410 C411 1.502 . S
C410 C412 1.561 . S
C410 C413 1.526 . S
C411 H395 0.959 . S
C411 H396 0.959 . S
C411 H397 0.961 . S
C411 C410 1.502 . S
C412 H398 0.960 . S
C412 H399 0.961 . S
C412 H400 0.959 . S
C412 C410 1.561 . S
C413 C410 1.526 . S
C413 C414 1.396 . S
C413 C418 1.390 . S
C414 C408 1.465 . S
C414 C413 1.396 . S
C414 C415 1.399 . S
C415 H401 0.929 1_545 S
C415 C414 1.399 . S
C415 C416 1.385 . S
C416 H402 0.931 1_545 S
C416 C415 1.385 . S
C416 C417 1.389 . S
C417 C416 1.389 . S
C417 C418 1.387 . S
C418 H403 0.930 . S
C418 C413 1.390 . S
C418 C417 1.387 . S
H419 C431 0.930 . S
H420 C433 0.930 . S
H421 C434 0.930 . S
H422 C438 0.959 . S
H423 C438 0.959 . S
H424 C438 0.961 . S
H425 C439 0.960 . S
H426 C439 0.961 . S
H427 C439 0.959 . S
H428 C442 0.929 . S
H429 C443 0.931 . S
H430 C445 0.930 . S
C431 H419 0.930 . S
C431 C432 1.399 . S
C431 C436 1.399 . S
C432 C431 1.399 . S
C432 C433 1.376 . S
C433 H420 0.930 . S
C433 C432 1.376 . S
C433 C434 1.388 . S
C434 H421 0.930 . S
C434 C433 1.388 . S
C434 C435 1.390 . S
C435 C434 1.390 . S
C435 C436 1.394 . S
C435 C441 1.465 . S
C436 C431 1.399 . S
C436 C435 1.394 . S
C436 C437 1.516 . S
C437 C436 1.516 . S
C437 C438 1.502 . S
C437 C439 1.561 . S
C437 C440 1.526 . S
C438 H422 0.959 . S
C438 H423 0.959 . S
C438 H424 0.961 . S
C438 C437 1.502 . S
C439 H425 0.960 . S
C439 H426 0.961 . S
C439 H427 0.959 . S
C439 C437 1.561 . S
C440 C437 1.526 . S
C440 C441 1.396 . S
C440 C445 1.390 . S
C441 C435 1.465 . S
C441 C440 1.396 . S
C441 C442 1.399 . S
C442 H428 0.929 . S
C442 C441 1.399 . S
C442 C443 1.385 . S
C443 H429 0.931 . S
C443 C442 1.385 . S
C443 C444 1.389 . S
C444 C443 1.389 . S
C444 C445 1.387 . S
C445 H430 0.930 . S
C445 C440 1.390 . S
C445 C444 1.387 . S
H446 C458 0.930 . S
H447 C460 0.930 . S
H448 C461 0.930 . S
H449 C465 0.959 . S
H450 C465 0.959 . S
H451 C465 0.961 . S
H452 C466 0.960 . S
H453 C466 0.961 . S
H454 C466 0.959 . S
H455 C469 0.929 . S
H456 C470 0.931 . S
H457 C472 0.930 . S
C458 H446 0.930 . S
C458 C459 1.399 . S
C458 C463 1.399 . S
C459 C458 1.399 . S
C459 C460 1.376 . S
C460 H447 0.930 . S
C460 C459 1.376 . S
C460 C461 1.388 . S
C461 H448 0.930 . S
C461 C460 1.388 . S
C461 C462 1.390 . S
C462 C461 1.390 . S
C462 C463 1.394 . S
C462 C468 1.465 . S
C463 C458 1.399 . S
C463 C462 1.394 . S
C463 C464 1.516 . S
C464 C463 1.516 . S
C464 C465 1.502 . S
C464 C466 1.561 . S
C464 C467 1.526 . S
C465 H449 0.959 . S
C465 H450 0.959 . S
C465 H451 0.961 . S
C465 C464 1.502 . S
C466 H452 0.960 . S
C466 H453 0.961 . S
C466 H454 0.959 . S
C466 C464 1.561 . S
C467 C464 1.526 . S
C467 C468 1.396 . S
C467 C472 1.390 . S
C468 C462 1.465 . S
C468 C467 1.396 . S
C468 C469 1.399 . S
C469 H455 0.929 . S
C469 C468 1.399 . S
C469 C470 1.385 . S
C470 H456 0.931 . S
C470 C469 1.385 . S
C470 C471 1.389 . S
C471 C470 1.389 . S
C471 C472 1.387 . S
C472 H457 0.930 . S
C472 C467 1.390 . S
C472 C471 1.387 . S
H473 C485 0.930 . S
H474 C487 0.930 . S
H475 C488 0.930 . S
H476 C492 0.959 . S
H477 C492 0.959 . S
H478 C492 0.961 . S
H479 C493 0.960 . S
H480 C493 0.961 . S
H481 C493 0.959 . S
H482 C496 0.929 . S
H483 C497 0.931 . S
H484 C499 0.930 . S
C485 H473 0.930 . S
C485 C486 1.399 1_655 S
C485 C490 1.399 . S
C486 C485 1.399 1_455 S
C486 C487 1.376 . S
C487 H474 0.930 . S
C487 C486 1.376 . S
C487 C488 1.388 . S
C488 H475 0.930 . S
C488 C487 1.388 . S
C488 C489 1.390 . S
C489 C488 1.390 . S
C489 C490 1.394 1_455 S
C489 C495 1.465 . S
C490 C485 1.399 . S
C490 C489 1.394 1_655 S
C490 C491 1.516 . S
C491 C490 1.516 . S
C491 C492 1.502 . S
C491 C493 1.561 . S
C491 C494 1.526 . S
C492 H476 0.959 . S
C492 H477 0.959 . S
C492 H478 0.961 . S
C492 C491 1.502 . S
C493 H479 0.960 . S
C493 H480 0.961 . S
C493 H481 0.959 . S
C493 C491 1.561 . S
C494 C491 1.526 . S
C494 C495 1.396 1_655 S
C494 C499 1.390 . S
C495 C489 1.465 . S
C495 C494 1.396 1_455 S
C495 C496 1.399 . S
C496 H482 0.929 . S
C496 C495 1.399 . S
C496 C497 1.385 . S
C497 H483 0.931 . S
C497 C496 1.385 . S
C497 C498 1.389 1_455 S
C498 C497 1.389 1_655 S
C498 C499 1.387 . S
C499 H484 0.930 . S
C499 C494 1.390 . S
C499 C498 1.387 . S
H500 C512 0.930 . S
H501 C514 0.930 . S
H502 C515 0.930 . S
H503 C519 0.959 . S
H504 C519 0.959 . S
H505 C519 0.961 . S
H506 C520 0.960 . S
H507 C520 0.961 . S
H508 C520 0.959 . S
H509 C523 0.929 1_545 S
H510 C524 0.931 . S
H511 C526 0.930 . S
C512 H500 0.930 . S
C512 C513 1.399 . S
C512 C517 1.399 . S
C513 C512 1.399 . S
C513 C514 1.376 . S
C514 H501 0.930 . S
C514 C513 1.376 . S
C514 C515 1.388 . S
C515 H502 0.930 . S
C515 C514 1.388 . S
C515 C516 1.390 . S
C516 C515 1.390 . S
C516 C517 1.394 . S
C516 C522 1.465 . S
C517 C512 1.399 . S
C517 C516 1.394 . S
C517 C518 1.516 . S
C518 C517 1.516 . S
C518 C519 1.502 . S
C518 C520 1.561 . S
C518 C521 1.526 . S
C519 H503 0.959 . S
C519 H504 0.959 . S
C519 H505 0.961 . S
C519 C518 1.502 . S
C520 H506 0.960 . S
C520 H507 0.961 . S
C520 H508 0.959 . S
C520 C518 1.561 . S
C521 C518 1.526 . S
C521 C522 1.396 . S
C521 C526 1.390 . S
C522 C516 1.465 . S
C522 C521 1.396 . S
C522 C523 1.399 . S
C523 H509 0.929 1_565 S
C523 C522 1.399 . S
C523 C524 1.385 1_565 S
C524 H510 0.931 . S
C524 C523 1.385 1_545 S
C524 C525 1.389 1_545 S
C525 C524 1.389 1_565 S
C525 C526 1.387 . S
C526 H511 0.930 . S
C526 C521 1.390 . S
C526 C525 1.387 . S
H527 C539 0.930 . S
H528 C541 0.930 . S
H529 C542 0.930 . S
H530 C546 0.959 . S
H531 C546 0.959 . S
H532 C546 0.961 . S
H533 C547 0.960 . S
H534 C547 0.961 . S
H535 C547 0.959 . S
H536 C550 0.929 . S
H537 C551 0.931 . S
H538 C553 0.930 . S
C539 H527 0.930 . S
C539 C540 1.399 . S
C539 C544 1.399 . S
C540 C539 1.399 . S
C540 C541 1.376 . S
C541 H528 0.930 . S
C541 C540 1.376 . S
C541 C542 1.388 . S
C542 H529 0.930 . S
C542 C541 1.388 . S
C542 C543 1.390 . S
C543 C542 1.390 . S
C543 C544 1.394 . S
C543 C549 1.465 . S
C544 C539 1.399 . S
C544 C543 1.394 . S
C544 C545 1.516 . S
C545 C544 1.516 . S
C545 C546 1.502 . S
C545 C547 1.561 . S
C545 C548 1.526 . S
C546 H530 0.959 . S
C546 H531 0.959 . S
C546 H532 0.961 . S
C546 C545 1.502 . S
C547 H533 0.960 . S
C547 H534 0.961 . S
C547 H535 0.959 . S
C547 C545 1.561 . S
C548 C545 1.526 . S
C548 C549 1.396 . S
C548 C553 1.390 . S
C549 C543 1.465 . S
C549 C548 1.396 . S
C549 C550 1.399 . S
C550 H536 0.929 . S
C550 C549 1.399 . S
C550 C551 1.385 . S
C551 H537 0.931 . S
C551 C550 1.385 . S
C551 C552 1.389 . S
C552 C551 1.389 . S
C552 C553 1.387 . S
C553 H538 0.930 . S
C553 C548 1.390 . S
C553 C552 1.387 . S
H554 C566 0.930 . S
H555 C568 0.930 . S
H556 C569 0.930 . S
H557 C573 0.959 . S
H558 C573 0.959 . S
H559 C573 0.961 . S
H560 C574 0.960 . S
H561 C574 0.961 . S
H562 C574 0.959 . S
H563 C577 0.929 . S
H564 C578 0.931 . S
H565 C580 0.930 . S
C566 H554 0.930 . S
C566 C567 1.399 . S
C566 C571 1.399 . S
C567 C566 1.399 . S
C567 C568 1.376 . S
C568 H555 0.930 . S
C568 C567 1.376 . S
C568 C569 1.388 . S
C569 H556 0.930 . S
C569 C568 1.388 . S
C569 C570 1.390 . S
C570 C569 1.390 . S
C570 C571 1.394 . S
C570 C576 1.465 . S
C571 C566 1.399 . S
C571 C570 1.394 . S
C571 C572 1.516 . S
C572 C571 1.516 . S
C572 C573 1.502 . S
C572 C574 1.561 . S
C572 C575 1.526 . S
C573 H557 0.959 . S
C573 H558 0.959 . S
C573 H559 0.961 . S
C573 C572 1.502 . S
C574 H560 0.960 . S
C574 H561 0.961 . S
C574 H562 0.959 . S
C574 C572 1.561 . S
C575 C572 1.526 . S
C575 C576 1.396 . S
C575 C580 1.390 . S
C576 C570 1.465 . S
C576 C575 1.396 . S
C576 C577 1.399 . S
C577 H563 0.929 . S
C577 C576 1.399 . S
C577 C578 1.385 . S
C578 H564 0.931 . S
C578 C577 1.385 . S
C578 C579 1.389 . S
C579 C578 1.389 . S
C579 C580 1.387 . S
C580 H565 0.930 . S
C580 C575 1.390 . S
C580 C579 1.387 . S
H581 C593 0.930 . S
H582 C595 0.930 . S
H583 C596 0.930 . S
H584 C600 0.959 . S
H585 C600 0.959 . S
H586 C600 0.961 . S
H587 C601 0.960 . S
H588 C601 0.961 . S
H589 C601 0.959 1_455 S
H590 C604 0.929 . S
H591 C605 0.931 . S
H592 C607 0.930 . S
C593 H581 0.930 . S
C593 C594 1.399 1_655 S
C593 C598 1.399 . S
C594 C593 1.399 1_455 S
C594 C595 1.376 . S
C595 H582 0.930 . S
C595 C594 1.376 . S
C595 C596 1.388 . S
C596 H583 0.930 . S
C596 C595 1.388 . S
C596 C597 1.390 . S
C597 C596 1.390 . S
C597 C598 1.394 1_455 S
C597 C603 1.465 . S
C598 C593 1.399 . S
C598 C597 1.394 1_655 S
C598 C599 1.516 . S
C599 C598 1.516 . S
C599 C600 1.502 . S
C599 C601 1.561 . S
C599 C602 1.526 . S
C600 H584 0.959 . S
C600 H585 0.959 . S
C600 H586 0.961 . S
C600 C599 1.502 . S
C601 H587 0.960 . S
C601 H588 0.961 . S
C601 H589 0.959 1_655 S
C601 C599 1.561 . S
C602 C599 1.526 . S
C602 C603 1.396 1_655 S
C602 C607 1.390 . S
C603 C597 1.465 . S
C603 C602 1.396 1_455 S
C603 C604 1.399 . S
C604 H590 0.929 . S
C604 C603 1.399 . S
C604 C605 1.385 . S
C605 H591 0.931 . S
C605 C604 1.385 . S
C605 C606 1.389 . S
C606 C605 1.389 . S
C606 C607 1.387 1_455 S
C607 H592 0.930 . S
C607 C602 1.390 . S
C607 C606 1.387 1_655 S
H608 C620 0.930 . S
H609 C622 0.930 . S
H610 C623 0.930 . S
H611 C627 0.959 . S
H612 C627 0.959 . S
H613 C627 0.961 . S
H614 C628 0.960 . S
H615 C628 0.961 . S
H616 C628 0.959 . S
H617 C631 0.929 1_455 S
H618 C632 0.931 . S
H619 C634 0.930 . S
C620 H608 0.930 . S
C620 C621 1.399 1_655 S
C620 C625 1.399 . S
C621 C620 1.399 1_455 S
C621 C622 1.376 . S
C622 H609 0.930 . S
C622 C621 1.376 . S
C622 C623 1.388 . S
C623 H610 0.930 . S
C623 C622 1.388 . S
C623 C624 1.387 1_455 S
C624 C623 1.387 1_655 S
C624 C625 1.397 . S
C624 C630 1.467 . S
C625 C620 1.399 . S
C625 C624 1.397 . S
C625 C626 1.516 . S
C626 C625 1.516 . S
C626 C627 1.502 . S
C626 C628 1.561 1_655 S
C626 C629 1.526 . S
C627 H611 0.959 . S
C627 H612 0.959 . S
C627 H613 0.961 . S
C627 C626 1.502 . S
C628 H614 0.960 . S
C628 H615 0.961 . S
C628 H616 0.959 . S
C628 C626 1.561 1_455 S
C629 C626 1.526 . S
C629 C630 1.396 . S
C629 C634 1.390 . S
C630 C624 1.467 . S
C630 C629 1.396 . S
C630 C631 1.399 . S
C631 H617 0.929 1_655 S
C631 C630 1.399 . S
C631 C632 1.385 . S
C632 H618 0.931 . S
C632 C631 1.385 . S
C632 C633 1.389 . S
C633 C632 1.389 . S
C633 C634 1.387 . S
C634 H619 0.930 . S
C634 C629 1.390 . S
C634 C633 1.387 . S
H635 C647 0.930 . S
H636 C649 0.930 . S
H637 C650 0.930 . S
H638 C654 0.959 . S
H639 C654 0.959 . S
H640 C654 0.961 . S
H641 C655 0.960 . S
H642 C655 0.961 1_565 S
H643 C655 0.959 . S
H644 C658 0.929 . S
H645 C659 0.931 . S
H646 C661 0.930 1_565 S
C647 H635 0.930 . S
C647 C648 1.399 . S
C647 C652 1.399 . S
C648 C647 1.399 . S
C648 C649 1.376 . S
C649 H636 0.930 . S
C649 C648 1.376 . S
C649 C650 1.388 . S
C650 H637 0.930 . S
C650 C649 1.388 . S
C650 C651 1.390 . S
C651 C650 1.390 . S
C651 C652 1.394 . S
C651 C657 1.465 . S
C652 C647 1.399 . S
C652 C651 1.394 . S
C652 C653 1.516 . S
C653 C652 1.516 . S
C653 C654 1.502 . S
C653 C655 1.561 . S
C653 C656 1.526 . S
C654 H638 0.959 . S
C654 H639 0.959 . S
C654 H640 0.961 . S
C654 C653 1.502 . S
C655 H641 0.960 . S
C655 H642 0.961 1_545 S
C655 H643 0.959 . S
C655 C653 1.561 . S
C656 C653 1.526 . S
C656 C657 1.396 . S
C656 C661 1.390 . S
C657 C651 1.465 . S
C657 C656 1.396 . S
C657 C658 1.399 . S
C658 H644 0.929 . S
C658 C657 1.399 . S
C658 C659 1.385 . S
C659 H645 0.931 . S
C659 C658 1.385 . S
C659 C660 1.389 . S
C660 C659 1.389 . S
C660 C661 1.387 . S
C661 H646 0.930 1_545 S
C661 C656 1.390 . S
C661 C660 1.387 . S
H662 C674 0.930 . S
H663 C676 0.930 . S
H664 C677 0.930 . S
H665 C681 0.959 . S
H666 C681 0.959 . S
H667 C681 0.961 . S
H668 C682 0.960 . S
H669 C682 0.961 . S
H670 C682 0.959 . S
H671 C685 0.929 . S
H672 C686 0.931 . S
H673 C688 0.930 . S
C674 H662 0.930 . S
C674 C675 1.399 . S
C674 C679 1.399 . S
C675 C674 1.399 . S
C675 C676 1.376 . S
C676 H663 0.930 . S
C676 C675 1.376 . S
C676 C677 1.388 . S
C677 H664 0.930 . S
C677 C676 1.388 . S
C677 C678 1.390 . S
C678 C677 1.390 . S
C678 C679 1.394 . S
C678 C684 1.465 . S
C679 C674 1.399 . S
C679 C678 1.394 . S
C679 C680 1.516 . S
C680 C679 1.516 . S
C680 C681 1.502 . S
C680 C682 1.561 . S
C680 C683 1.526 . S
C681 H665 0.959 . S
C681 H666 0.959 . S
C681 H667 0.961 . S
C681 C680 1.502 . S
C682 H668 0.960 . S
C682 H669 0.961 . S
C682 H670 0.959 . S
C682 C680 1.561 . S
C683 C680 1.526 . S
C683 C684 1.396 . S
C683 C688 1.390 . S
C684 C678 1.465 . S
C684 C683 1.396 . S
C684 C685 1.399 . S
C685 H671 0.929 . S
C685 C684 1.399 . S
C685 C686 1.385 . S
C686 H672 0.931 . S
C686 C685 1.385 . S
C686 C687 1.389 . S
C687 C686 1.389 . S
C687 C688 1.387 . S
C688 H673 0.930 . S
C688 C683 1.390 . S
C688 C687 1.387 . S
H689 C701 0.930 . S
H690 C703 0.930 . S
H691 C704 0.930 . S
H692 C708 0.959 . S
H693 C708 0.959 . S
H694 C708 0.961 . S
H695 C709 0.960 . S
H696 C709 0.961 . S
H697 C709 0.959 . S
H698 C712 0.929 . S
H699 C713 0.931 . S
H700 C715 0.930 . S
C701 H689 0.930 . S
C701 C702 1.399 . S
C701 C706 1.399 . S
C702 C701 1.399 . S
C702 C703 1.376 . S
C703 H690 0.930 . S
C703 C702 1.376 . S
C703 C704 1.388 . S
C704 H691 0.930 . S
C704 C703 1.388 . S
C704 C705 1.390 . S
C705 C704 1.390 . S
C705 C706 1.394 . S
C705 C711 1.465 . S
C706 C701 1.399 . S
C706 C705 1.394 . S
C706 C707 1.516 . S
C707 C706 1.516 . S
C707 C708 1.502 . S
C707 C709 1.561 . S
C707 C710 1.526 . S
C708 H692 0.959 . S
C708 H693 0.959 . S
C708 H694 0.961 . S
C708 C707 1.502 . S
C709 H695 0.960 . S
C709 H696 0.961 . S
C709 H697 0.959 . S
C709 C707 1.561 . S
C710 C707 1.526 . S
C710 C711 1.396 . S
C710 C715 1.390 . S
C711 C705 1.465 . S
C711 C710 1.396 . S
C711 C712 1.399 . S
C712 H698 0.929 . S
C712 C711 1.399 . S
C712 C713 1.385 . S
C713 H699 0.931 . S
C713 C712 1.385 . S
C713 C714 1.389 . S
C714 C713 1.389 . S
C714 C715 1.387 . S
C715 H700 0.930 . S
C715 C710 1.390 . S
C715 C714 1.387 . S
H716 C728 0.930 . S
H717 C730 0.930 . S
H718 C731 0.930 . S
H719 C735 0.959 . S
H720 C735 0.959 . S
H721 C735 0.961 . S
H722 C736 0.960 . S
H723 C736 0.961 . S
H724 C736 0.959 . S
H725 C739 0.929 1_655 S
H726 C740 0.931 . S
H727 C742 0.930 . S
C728 H716 0.930 . S
C728 C729 1.399 1_455 S
C728 C733 1.399 . S
C729 C728 1.399 1_655 S
C729 C730 1.376 . S
C730 H717 0.930 . S
C730 C729 1.376 . S
C730 C731 1.388 . S
C731 H718 0.930 . S
C731 C730 1.388 . S
C731 C732 1.387 1_655 S
C732 C731 1.387 1_455 S
C732 C733 1.396 . S
C732 C738 1.467 . S
C733 C728 1.399 . S
C733 C732 1.396 . S
C733 C734 1.516 . S
C734 C733 1.516 . S
C734 C735 1.502 . S
C734 C736 1.561 1_455 S
C734 C737 1.526 . S
C735 H719 0.959 . S
C735 H720 0.959 . S
C735 H721 0.961 . S
C735 C734 1.502 . S
C736 H722 0.960 . S
C736 H723 0.961 . S
C736 H724 0.959 . S
C736 C734 1.561 1_655 S
C737 C734 1.526 . S
C737 C738 1.396 . S
C737 C742 1.390 . S
C738 C732 1.467 . S
C738 C737 1.396 . S
C738 C739 1.399 . S
C739 H725 0.929 1_455 S
C739 C738 1.399 . S
C739 C740 1.385 . S
C740 H726 0.931 . S
C740 C739 1.385 . S
C740 C741 1.389 . S
C741 C740 1.389 . S
C741 C742 1.387 . S
C742 H727 0.930 . S
C742 C737 1.390 . S
C742 C741 1.387 . S
H743 C755 0.930 . S
H744 C757 0.930 . S
H745 C758 0.930 . S
H746 C762 0.959 . S
H747 C762 0.959 . S
H748 C762 0.961 . S
H749 C763 0.960 . S
H750 C763 0.961 . S
H751 C763 0.959 . S
H752 C766 0.929 . S
H753 C767 0.931 . S
H754 C769 0.930 . S
C755 H743 0.930 . S
C755 C756 1.399 . S
C755 C760 1.399 . S
C756 C755 1.399 . S
C756 C757 1.376 . S
C757 H744 0.930 . S
C757 C756 1.376 . S
C757 C758 1.388 . S
C758 H745 0.930 . S
C758 C757 1.388 . S
C758 C759 1.390 . S
C759 C758 1.390 . S
C759 C760 1.394 . S
C759 C765 1.465 . S
C760 C755 1.399 . S
C760 C759 1.394 . S
C760 C761 1.516 . S
C761 C760 1.516 . S
C761 C762 1.502 . S
C761 C763 1.561 . S
C761 C764 1.526 . S
C762 H746 0.959 . S
C762 H747 0.959 . S
C762 H748 0.961 . S
C762 C761 1.502 . S
C763 H749 0.960 . S
C763 H750 0.961 . S
C763 H751 0.959 . S
C763 C761 1.561 . S
C764 C761 1.526 . S
C764 C765 1.396 . S
C764 C769 1.390 . S
C765 C759 1.465 . S
C765 C764 1.396 . S
C765 C766 1.399 . S
C766 H752 0.929 . S
C766 C765 1.399 . S
C766 C767 1.385 . S
C767 H753 0.931 . S
C767 C766 1.385 . S
C767 C768 1.389 . S
C768 C767 1.389 . S
C768 C769 1.387 . S
C769 H754 0.930 . S
C769 C764 1.390 . S
C769 C768 1.387 . S
H770 C782 0.930 . S
H771 C784 0.930 . S
H772 C785 0.930 . S
H773 C789 0.959 . S
H774 C789 0.959 . S
H775 C789 0.961 . S
H776 C790 0.960 . S
H777 C790 0.961 . S
H778 C790 0.959 . S
H779 C793 0.929 . S
H780 C794 0.931 . S
H781 C796 0.930 . S
C782 H770 0.930 . S
C782 C783 1.399 . S
C782 C787 1.399 . S
C783 C782 1.399 . S
C783 C784 1.376 . S
C784 H771 0.930 . S
C784 C783 1.376 . S
C784 C785 1.388 . S
C785 H772 0.930 . S
C785 C784 1.388 . S
C785 C786 1.390 . S
C786 C785 1.390 . S
C786 C787 1.394 . S
C786 C792 1.465 . S
C787 C782 1.399 . S
C787 C786 1.394 . S
C787 C788 1.516 . S
C788 C787 1.516 . S
C788 C789 1.502 . S
C788 C790 1.561 . S
C788 C791 1.526 . S
C789 H773 0.959 . S
C789 H774 0.959 . S
C789 H775 0.961 . S
C789 C788 1.502 . S
C790 H776 0.960 . S
C790 H777 0.961 . S
C790 H778 0.959 . S
C790 C788 1.561 . S
C791 C788 1.526 . S
C791 C792 1.396 . S
C791 C796 1.390 . S
C792 C786 1.465 . S
C792 C791 1.396 . S
C792 C793 1.399 . S
C793 H779 0.929 . S
C793 C792 1.399 . S
C793 C794 1.385 . S
C794 H780 0.931 . S
C794 C793 1.385 . S
C794 C795 1.389 . S
C795 C794 1.389 . S
C795 C796 1.387 . S
C796 H781 0.930 . S
C796 C791 1.390 . S
C796 C795 1.387 . S
H797 C809 0.930 . S
H798 C811 0.930 . S
H799 C812 0.930 . S
H800 C816 0.959 . S
H801 C816 0.959 . S
H802 C816 0.961 . S
H803 C817 0.960 . S
H804 C817 0.961 . S
H805 C817 0.959 . S
H806 C820 0.929 . S
H807 C821 0.931 . S
H808 C823 0.930 . S
C809 H797 0.930 . S
C809 C810 1.399 . S
C809 C814 1.399 . S
C810 C809 1.399 . S
C810 C811 1.376 . S
C811 H798 0.930 . S
C811 C810 1.376 . S
C811 C812 1.388 . S
C812 H799 0.930 . S
C812 C811 1.388 . S
C812 C813 1.390 . S
C813 C812 1.390 . S
C813 C814 1.394 . S
C813 C819 1.465 . S
C814 C809 1.399 . S
C814 C813 1.394 . S
C814 C815 1.516 . S
C815 C814 1.516 . S
C815 C816 1.502 . S
C815 C817 1.561 . S
C815 C818 1.526 . S
C816 H800 0.959 . S
C816 H801 0.959 . S
C816 H802 0.961 . S
C816 C815 1.502 . S
C817 H803 0.960 . S
C817 H804 0.961 . S
C817 H805 0.959 . S
C817 C815 1.561 . S
C818 C815 1.526 . S
C818 C819 1.396 . S
C818 C823 1.390 . S
C819 C813 1.465 . S
C819 C818 1.396 . S
C819 C820 1.399 . S
C820 H806 0.929 . S
C820 C819 1.399 . S
C820 C821 1.385 . S
C821 H807 0.931 . S
C821 C820 1.385 . S
C821 C822 1.389 . S
C822 C821 1.389 . S
C822 C823 1.387 . S
C823 H808 0.930 . S
C823 C818 1.390 . S
C823 C822 1.387 . S
H824 C836 0.930 . S
H825 C838 0.930 . S
H826 C839 0.930 . S
H827 C843 0.959 . S
H828 C843 0.959 . S
H829 C843 0.961 . S
H830 C844 0.960 . S
H831 C844 0.961 . S
H832 C844 0.959 . S
H833 C847 0.929 . S
H834 C848 0.931 . S
H835 C850 0.930 . S
C836 H824 0.930 . S
C836 C837 1.394 1_455 S
C836 C841 1.399 . S
C837 C836 1.394 1_655 S
C837 C838 1.382 . S
C838 H825 0.930 . S
C838 C837 1.382 . S
C838 C839 1.388 . S
C839 H826 0.930 . S
C839 C838 1.388 . S
C839 C840 1.390 . S
C840 C839 1.390 . S
C840 C841 1.394 1_655 S
C840 C846 1.469 . S
C841 C836 1.399 . S
C841 C840 1.394 1_455 S
C841 C842 1.516 . S
C842 C841 1.516 . S
C842 C843 1.502 . S
C842 C844 1.561 1_455 S
C842 C845 1.526 . S
C843 H827 0.959 . S
C843 H828 0.959 . S
C843 H829 0.961 . S
C843 C842 1.502 . S
C844 H830 0.960 . S
C844 H831 0.961 . S
C844 H832 0.959 . S
C844 C842 1.561 1_655 S
C845 C842 1.526 . S
C845 C846 1.383 1_455 S
C845 C850 1.390 . S
C846 C840 1.469 . S
C846 C845 1.383 1_655 S
C846 C847 1.408 . S
C847 H833 0.929 . S
C847 C846 1.408 . S
C847 C848 1.385 . S
C848 H834 0.931 . S
C848 C847 1.385 . S
C848 C849 1.389 1_655 S
C849 C848 1.389 1_455 S
C849 C850 1.387 . S
C850 H835 0.930 . S
C850 C845 1.390 . S
C850 C849 1.387 . S
H851 C863 0.930 . S
H852 C865 0.930 . S
H853 C866 0.930 . S
H854 C870 0.959 . S
H855 C870 0.959 . S
H856 C870 0.961 . S
H857 C871 0.960 . S
H858 C871 0.961 . S
H859 C871 0.959 . S
H860 C874 0.929 . S
H861 C875 0.931 . S
H862 C877 0.930 . S
C863 H851 0.930 . S
C863 C864 1.399 . S
C863 C868 1.399 . S
C864 C863 1.399 . S
C864 C865 1.376 . S
C865 H852 0.930 . S
C865 C864 1.376 . S
C865 C866 1.388 . S
C866 H853 0.930 . S
C866 C865 1.388 . S
C866 C867 1.390 . S
C867 C866 1.390 . S
C867 C868 1.394 . S
C867 C873 1.465 . S
C868 C863 1.399 . S
C868 C867 1.394 . S
C868 C869 1.516 . S
C869 C868 1.516 . S
C869 C870 1.502 . S
C869 C871 1.561 . S
C869 C872 1.526 . S
C870 H854 0.959 . S
C870 H855 0.959 . S
C870 H856 0.961 . S
C870 C869 1.502 . S
C871 H857 0.960 . S
C871 H858 0.961 . S
C871 H859 0.959 . S
C871 C869 1.561 . S
C872 C869 1.526 . S
C872 C873 1.396 . S
C872 C877 1.390 . S
C873 C867 1.465 . S
C873 C872 1.396 . S
C873 C874 1.399 . S
C874 H860 0.929 . S
C874 C873 1.399 . S
C874 C875 1.385 . S
C875 H861 0.931 . S
C875 C874 1.385 . S
C875 C876 1.389 . S
C876 C875 1.389 . S
C876 C877 1.387 . S
C877 H862 0.930 . S
C877 C872 1.390 . S
C877 C876 1.387 . S
H878 C890 0.930 . S
H879 C892 0.930 . S
H880 C893 0.930 . S
H881 C897 0.959 . S
H882 C897 0.959 . S
H883 C897 0.961 . S
H884 C898 0.960 . S
H885 C898 0.961 . S
H886 C898 0.959 . S
H887 C901 0.929 . S
H888 C902 0.931 . S
H889 C904 0.930 . S
C890 H878 0.930 . S
C890 C891 1.399 . S
C890 C895 1.399 . S
C891 C890 1.399 . S
C891 C892 1.376 . S
C892 H879 0.930 . S
C892 C891 1.376 . S
C892 C893 1.388 . S
C893 H880 0.930 . S
C893 C892 1.388 . S
C893 C894 1.390 . S
C894 C893 1.390 . S
C894 C895 1.394 . S
C894 C900 1.465 . S
C895 C890 1.399 . S
C895 C894 1.394 . S
C895 C896 1.516 . S
C896 C895 1.516 . S
C896 C897 1.502 . S
C896 C898 1.561 . S
C896 C899 1.526 . S
C897 H881 0.959 . S
C897 H882 0.959 . S
C897 H883 0.961 . S
C897 C896 1.502 . S
C898 H884 0.960 . S
C898 H885 0.961 . S
C898 H886 0.959 . S
C898 C896 1.561 . S
C899 C896 1.526 . S
C899 C900 1.396 . S
C899 C904 1.390 . S
C900 C894 1.465 . S
C900 C899 1.396 . S
C900 C901 1.399 . S
C901 H887 0.929 . S
C901 C900 1.399 . S
C901 C902 1.385 . S
C902 H888 0.931 . S
C902 C901 1.385 . S
C902 C903 1.389 . S
C903 C902 1.389 . S
C903 C904 1.387 . S
C904 H889 0.930 . S
C904 C899 1.390 . S
C904 C903 1.387 . S
H905 C917 0.930 . S
H906 C919 0.930 . S
H907 C920 0.930 . S
H908 C924 0.959 . S
H909 C924 0.959 . S
H910 C924 0.961 . S
H911 C925 0.960 . S
H912 C925 0.961 . S
H913 C925 0.959 . S
H914 C928 0.929 . S
H915 C929 0.931 . S
H916 C931 0.930 . S
C917 H905 0.930 . S
C917 C918 1.399 . S
C917 C922 1.399 . S
C918 C917 1.399 . S
C918 C919 1.376 . S
C919 H906 0.930 . S
C919 C918 1.376 . S
C919 C920 1.388 . S
C920 H907 0.930 . S
C920 C919 1.388 . S
C920 C921 1.390 . S
C921 C920 1.390 . S
C921 C922 1.394 . S
C921 C927 1.465 . S
C922 C917 1.399 . S
C922 C921 1.394 . S
C922 C923 1.516 . S
C923 C922 1.516 . S
C923 C924 1.502 . S
C923 C925 1.561 . S
C923 C926 1.526 . S
C924 H908 0.959 . S
C924 H909 0.959 . S
C924 H910 0.961 . S
C924 C923 1.502 . S
C925 H911 0.960 . S
C925 H912 0.961 . S
C925 H913 0.959 . S
C925 C923 1.561 . S
C926 C923 1.526 . S
C926 C927 1.396 . S
C926 C931 1.390 . S
C927 C921 1.465 . S
C927 C926 1.396 . S
C927 C928 1.399 . S
C928 H914 0.929 . S
C928 C927 1.399 . S
C928 C929 1.385 . S
C929 H915 0.931 . S
C929 C928 1.385 . S
C929 C930 1.389 . S
C930 C929 1.389 . S
C930 C931 1.387 . S
C931 H916 0.930 . S
C931 C926 1.390 . S
C931 C930 1.387 . S
H932 C944 0.930 . S
H933 C946 0.930 . S
H934 C947 0.930 . S
H935 C951 0.959 . S
H936 C951 0.959 . S
H937 C951 0.961 . S
H938 C952 0.960 . S
H939 C952 0.961 . S
H940 C952 0.959 . S
H941 C955 0.929 1_455 S
H942 C956 0.931 . S
H943 C958 0.930 . S
C944 H932 0.930 . S
C944 C945 1.399 . S
C944 C949 1.399 . S
C945 C944 1.399 . S
C945 C946 1.377 1_655 S
C946 H933 0.930 . S
C946 C945 1.377 1_455 S
C946 C947 1.388 . S
C947 H934 0.930 . S
C947 C946 1.388 . S
C947 C948 1.390 1_455 S
C948 C947 1.390 1_655 S
C948 C949 1.394 . S
C948 C954 1.465 . S
C949 C944 1.399 . S
C949 C948 1.394 . S
C949 C950 1.516 . S
C950 C949 1.516 . S
C950 C951 1.502 . S
C950 C952 1.561 1_655 S
C950 C953 1.526 . S
C951 H935 0.959 . S
C951 H936 0.959 . S
C951 H937 0.961 . S
C951 C950 1.502 . S
C952 H938 0.960 . S
C952 H939 0.961 . S
C952 H940 0.959 . S
C952 C950 1.561 1_455 S
C953 C950 1.526 . S
C953 C954 1.396 . S
C953 C958 1.390 . S
C954 C948 1.465 . S
C954 C953 1.396 . S
C954 C955 1.399 . S
C955 H941 0.929 1_655 S
C955 C954 1.399 . S
C955 C956 1.385 . S
C956 H942 0.931 . S
C956 C955 1.385 . S
C956 C957 1.389 . S
C957 C956 1.389 . S
C957 C958 1.387 . S
C958 H943 0.930 . S
C958 C953 1.390 . S
C958 C957 1.387 . S
H959 C971 0.930 . S
H960 C973 0.930 . S
H961 C974 0.930 . S
H962 C978 0.959 . S
H963 C978 0.959 . S
H964 C978 0.961 . S
H965 C979 0.961 1_545 S
H966 C979 0.961 1_545 S
H967 C979 0.963 . S
H968 C982 0.929 . S
H969 C983 0.931 . S
H970 C985 0.930 . S
C971 H959 0.930 . S
C971 C972 1.399 . S
C971 C976 1.399 . S
C972 C971 1.399 . S
C972 C973 1.376 . S
C973 H960 0.930 . S
C973 C972 1.376 . S
C973 C974 1.388 . S
C974 H961 0.930 . S
C974 C973 1.388 . S
C974 C975 1.390 . S
C975 C974 1.390 . S
C975 C976 1.394 . S
C975 C981 1.465 . S
C976 C971 1.399 . S
C976 C975 1.394 . S
C976 C977 1.516 . S
C977 C976 1.516 . S
C977 C978 1.502 . S
C977 C979 1.561 . S
C977 C980 1.526 . S
C978 H962 0.959 . S
C978 H963 0.959 . S
C978 H964 0.961 . S
C978 C977 1.502 . S
C979 H965 0.961 1_565 S
C979 H966 0.961 1_565 S
C979 H967 0.963 . S
C979 C977 1.561 . S
C980 C977 1.526 . S
C980 C981 1.396 . S
C980 C985 1.390 . S
C981 C975 1.465 . S
C981 C980 1.396 . S
C981 C982 1.399 . S
C982 H968 0.929 . S
C982 C981 1.399 . S
C982 C983 1.385 . S
C983 H969 0.931 . S
C983 C982 1.385 . S
C983 C984 1.389 . S
C984 C983 1.389 . S
C984 C985 1.387 . S
C985 H970 0.930 . S
C985 C980 1.390 . S
C985 C984 1.387 . S
H986 C998 0.930 . S
H987 C1000 0.930 . S
H988 C1001 0.930 . S
H989 C1005 0.959 . S
H990 C1005 0.959 . S
H991 C1005 0.961 . S
H992 C1006 0.960 . S
H993 C1006 0.961 . S
H994 C1006 0.959 . S
H995 C1009 0.929 . S
H996 C1010 0.931 . S
H997 C1012 0.930 . S
C998 H986 0.930 . S
C998 C999 1.399 . S
C998 C1003 1.399 . S
C999 C998 1.399 . S
C999 C1000 1.376 . S
C1000 H987 0.930 . S
C1000 C999 1.376 . S
C1000 C1001 1.388 . S
C1001 H988 0.930 . S
C1001 C1000 1.388 . S
C1001 C1002 1.390 . S
C1002 C1001 1.390 . S
C1002 C1003 1.394 . S
C1002 C1008 1.465 . S
C1003 C998 1.399 . S
C1003 C1002 1.394 . S
C1003 C1004 1.516 . S
C1004 C1003 1.516 . S
C1004 C1005 1.502 . S
C1004 C1006 1.561 . S
C1004 C1007 1.526 . S
C1005 H989 0.959 . S
C1005 H990 0.959 . S
C1005 H991 0.961 . S
C1005 C1004 1.502 . S
C1006 H992 0.960 . S
C1006 H993 0.961 . S
C1006 H994 0.959 . S
C1006 C1004 1.561 . S
C1007 C1004 1.526 . S
C1007 C1008 1.396 . S
C1007 C1012 1.390 . S
C1008 C1002 1.465 . S
C1008 C1007 1.396 . S
C1008 C1009 1.399 . S
C1009 H995 0.929 . S
C1009 C1008 1.399 . S
C1009 C1010 1.385 . S
C1010 H996 0.931 . S
C1010 C1009 1.385 . S
C1010 C1011 1.389 . S
C1011 C1010 1.389 . S
C1011 C1012 1.387 . S
C1012 H997 0.930 . S
C1012 C1007 1.390 . S
C1012 C1011 1.387 . S
H1013 C1025 0.930 . S
H1014 C1027 0.930 . S
H1015 C1028 0.930 . S
H1016 C1032 0.959 . S
H1017 C1032 0.959 . S
H1018 C1032 0.961 . S
H1019 C1033 0.960 . S
H1020 C1033 0.961 . S
H1021 C1033 0.959 . S
H1022 C1036 0.929 . S
H1023 C1037 0.931 . S
H1024 C1039 0.930 . S
C1025 H1013 0.930 . S
C1025 C1026 1.399 . S
C1025 C1030 1.399 . S
C1026 C1025 1.399 . S
C1026 C1027 1.376 . S
C1027 H1014 0.930 . S
C1027 C1026 1.376 . S
C1027 C1028 1.388 . S
C1028 H1015 0.930 . S
C1028 C1027 1.388 . S
C1028 C1029 1.390 . S
C1029 C1028 1.390 . S
C1029 C1030 1.394 . S
C1029 C1035 1.465 . S
C1030 C1025 1.399 . S
C1030 C1029 1.394 . S
C1030 C1031 1.516 . S
C1031 C1030 1.516 . S
C1031 C1032 1.502 . S
C1031 C1033 1.561 . S
C1031 C1034 1.526 . S
C1032 H1016 0.959 . S
C1032 H1017 0.959 . S
C1032 H1018 0.961 . S
C1032 C1031 1.502 . S
C1033 H1019 0.960 . S
C1033 H1020 0.961 . S
C1033 H1021 0.959 . S
C1033 C1031 1.561 . S
C1034 C1031 1.526 . S
C1034 C1035 1.396 . S
C1034 C1039 1.390 . S
C1035 C1029 1.465 . S
C1035 C1034 1.396 . S
C1035 C1036 1.399 . S
C1036 H1022 0.929 . S
C1036 C1035 1.399 . S
C1036 C1037 1.385 . S
C1037 H1023 0.931 . S
C1037 C1036 1.385 . S
C1037 C1038 1.389 . S
C1038 C1037 1.389 . S
C1038 C1039 1.387 . S
C1039 H1024 0.930 . S
C1039 C1034 1.390 . S
C1039 C1038 1.387 . S
C405 C255 1.823 . S
C417 C330 1.847 . S
C444 C350 1.613 . S
C432 C294 1.524 . S
C471 C370 1.837 . S
C459 C177 1.748 . S
C498 C390 1.562 . S
C486 C216 1.548 1_455 S
C525 C331 1.843 1_565 S
C513 C99 1.833 . S
C540 C138 1.532 . S
C552 C351 1.608 . S
C567 C21 1.783 . S
C579 C371 1.804 . S
C594 C60 1.577 1_455 S
C606 C391 1.515 . S
C633 C321 0.527 . S
C621 C196 0.669 1_455 S
C660 C341 0.779 . S
C648 C235 0.812 . S
C687 C361 0.674 . S
C675 C289 0.713 . S
C702 C157 0.702 . S
C714 C381 0.891 . S
C729 C40 0.557 . S
C741 C324 0.678 . S
C768 C344 0.863 . S
C756 C79 0.791 . S
C795 C364 0.734 . S
C783 C133 0.578 . S
C810 C1 0.857 . S
C822 C384 0.709 . S
C837 C211 2.063 1_655 S
C849 C314 1.958 . S
C864 C250 2.029 . S
C876 C334 2.063 . S
C903 C354 1.879 . S
C891 C274 1.999 . S
C930 C374 2.177 . S
C918 C172 2.146 . S
C945 C55 1.992 1_655 S
C957 C316 2.039 . S
C984 C336 2.093 . S
C972 C94 2.027 . S
C1011 C356 1.905 . S
C999 C118 1.994 . S
C1026 C16 2.194 . S
C1038 C376 2.102 . S
