# Generated by pormake.
# Topology ant, (3,6)-cn, num edge types: 1
# Building blocks:
#     Node 0, Type 0, BuildingBlock: BELTOD_clean_linker_0, # of connection points: 3
#     Node 1, Type 0, BuildingBlock: BELTOD_clean_linker_0, # of connection points: 3
#     Node 2, Type 0, BuildingBlock: BELTOD_clean_linker_0, # of connection points: 3
#     Node 3, Type 0, BuildingBlock: BELTOD_clean_linker_0, # of connection points: 3
#     Node 4, Type 0, BuildingBlock: BELTOD_clean_linker_0, # of connection points: 3
#     Node 5, Type 0, BuildingBlock: BELTOD_clean_linker_0, # of connection points: 3
#     Node 6, Type 0, BuildingBlock: BELTOD_clean_linker_0, # of connection points: 3
#     Node 7, Type 0, BuildingBlock: BELTOD_clean_linker_0, # of connection points: 3
#     Node 8, Type 1, BuildingBlock: MIDCAF_clean_sbu_0, # of connection points: 6
#     Node 9, Type 1, BuildingBlock: MIDCAF_clean_sbu_0, # of connection points: 6
#     Node 10, Type 1, BuildingBlock: MIDCAF_clean_sbu_0, # of connection points: 6
#     Node 11, Type 1, BuildingBlock: MIDCAF_clean_sbu_0, # of connection points: 6
#     Edge 12, Type (0, 1), BuildingBlock: CIFDUS_clean_linker_0, # of connection points: 2
#     Edge 13, Type (0, 1), BuildingBlock: CIFDUS_clean_linker_0, # of connection points: 2
#     Edge 14, Type (0, 1), BuildingBlock: CIFDUS_clean_linker_0, # of connection points: 2
#     Edge 15, Type (0, 1), BuildingBlock: CIFDUS_clean_linker_0, # of connection points: 2
#     Edge 16, Type (0, 1), BuildingBlock: CIFDUS_clean_linker_0, # of connection points: 2
#     Edge 17, Type (0, 1), BuildingBlock: CIFDUS_clean_linker_0, # of connection points: 2
#     Edge 18, Type (0, 1), BuildingBlock: CIFDUS_clean_linker_0, # of connection points: 2
#     Edge 19, Type (0, 1), BuildingBlock: CIFDUS_clean_linker_0, # of connection points: 2
#     Edge 20, Type (0, 1), BuildingBlock: CIFDUS_clean_linker_0, # of connection points: 2
#     Edge 21, Type (0, 1), BuildingBlock: CIFDUS_clean_linker_0, # of connection points: 2
#     Edge 22, Type (0, 1), BuildingBlock: CIFDUS_clean_linker_0, # of connection points: 2
#     Edge 23, Type (0, 1), BuildingBlock: CIFDUS_clean_linker_0, # of connection points: 2
#     Edge 24, Type (0, 1), BuildingBlock: CIFDUS_clean_linker_0, # of connection points: 2
#     Edge 25, Type (0, 1), BuildingBlock: CIFDUS_clean_linker_0, # of connection points: 2
#     Edge 26, Type (0, 1), BuildingBlock: CIFDUS_clean_linker_0, # of connection points: 2
#     Edge 27, Type (0, 1), BuildingBlock: CIFDUS_clean_linker_0, # of connection points: 2
#     Edge 28, Type (0, 1), BuildingBlock: CIFDUS_clean_linker_0, # of connection points: 2
#     Edge 29, Type (0, 1), BuildingBlock: CIFDUS_clean_linker_0, # of connection points: 2
#     Edge 30, Type (0, 1), BuildingBlock: CIFDUS_clean_linker_0, # of connection points: 2
#     Edge 31, Type (0, 1), BuildingBlock: CIFDUS_clean_linker_0, # of connection points: 2
#     Edge 32, Type (0, 1), BuildingBlock: CIFDUS_clean_linker_0, # of connection points: 2
#     Edge 33, Type (0, 1), BuildingBlock: CIFDUS_clean_linker_0, # of connection points: 2
#     Edge 34, Type (0, 1), BuildingBlock: CIFDUS_clean_linker_0, # of connection points: 2
#     Edge 35, Type (0, 1), BuildingBlock: CIFDUS_clean_linker_0, # of connection points: 2
# Relax obj value: 0.095
# Max RMSD: 0.155
# Mean RMSD: 0.097
data_MOF--net-ant--node1-MIDCAF_clean_sbu_0--node2-BELTOD_clean_linker_0--edge1-CIFDUS_clean_linker_0
_symmetry_space_group_name_H-M    P1
_symmetry_Int_Tables_number       1
_symmetry_cell_setting            triclinic
loop_
_symmetry_equiv_pos_as_xyz
'x, y, z'
_cell_length_a     28.537862
_cell_length_b     28.325902
_cell_length_c     76.138265
_cell_angle_alpha  90.414152
_cell_angle_beta   94.021541
_cell_angle_gamma 89.770669
loop_
_atom_site_label
_atom_site_type_symbol
_atom_site_fract_x
_atom_site_fract_y
_atom_site_fract_z
_atom_type_partial_charge
P0 P 0.28758 0.23106 0.06609 0.0
H1 H 0.32112 0.30176 0.09182 0.0
H2 H 0.29407 0.38133 0.09848 0.0
H3 H 0.17169 0.36113 0.06253 0.0
H4 H 0.19915 0.28144 0.05585 0.0
H5 H 0.34988 0.15567 0.07951 0.0
H6 H 0.33787 0.08659 0.0975 0.0
H7 H 0.19321 0.12873 0.10176 0.0
H8 H 0.20651 0.19918 0.08447 0.0
H9 H 0.30557 0.27262 0.03276 0.0
H10 H 0.21579 0.16392 0.05099 0.0
O11 O 0.34525 0.23951 0.06527 0.0
H12 H 0.26998 0.26277 0.00299 0.0
H13 H 0.18047 0.15304 0.02101 0.0
C14 C 0.26259 0.28592 0.07318 0.0
C15 C 0.28816 0.31418 0.08555 0.0
C16 C 0.27259 0.3597 0.08934 0.0
C17 C 0.23093 0.37777 0.08086 0.0
C18 C 0.20433 0.34855 0.069 0.0
C19 C 0.21989 0.30285 0.06528 0.0
C20 C 0.27918 0.18278 0.0808 0.0
C21 C 0.31581 0.15052 0.0846 0.0
C22 C 0.30873 0.11064 0.09477 0.0
C23 C 0.26451 0.10168 0.1011 0.0
C24 C 0.22803 0.13471 0.09745 0.0
C25 C 0.2354 0.17497 0.08746 0.0
C26 C 0.26411 0.21839 0.04402 0.0
C27 C 0.27891 0.24582 0.03026 0.0
C28 C 0.25855 0.24 0.01321 0.0
C29 C 0.22277 0.20659 0.00954 0.0
C30 C 0.20793 0.17904 0.0234 0.0
C31 C 0.22839 0.185 0.04054 0.0
P32 P 0.06182 0.72407 0.31943 0.0
H33 H 0.12028 0.69889 0.35086 0.0
H34 H 0.19134 0.73423 0.36474 0.0
H35 H 0.17058 0.8564 0.33141 0.0
H36 H 0.09872 0.82078 0.31765 0.0
H37 H 0.99353 0.66365 0.33493 0.0
H38 H 0.91182 0.67569 0.34115 0.0
H39 H 0.91973 0.82073 0.32435 0.0
H40 H 0.00238 0.80848 0.31843 0.0
H41 H 0.13949 0.74862 0.29825 0.0
H42 H 0.9903 0.72489 0.28972 0.0
O43 O 0.07392 0.66659 0.32149 0.0
H44 H 0.14418 0.76264 0.2669 0.0
H45 H 0.99505 0.7383 0.25815 0.0
C46 C 0.10535 0.75648 0.33281 0.0
C47 C 0.13023 0.73385 0.34686 0.0
C48 C 0.17071 0.75436 0.35491 0.0
C49 C 0.18696 0.79784 0.34898 0.0
C50 C 0.15917 0.82261 0.33609 0.0
C51 C 0.11823 0.80225 0.32821 0.0
C52 C 0.00383 0.73519 0.3262 0.0
C53 C 0.97794 0.69819 0.33275 0.0
C54 C 0.93103 0.70499 0.33612 0.0
C55 C 0.9091 0.74894 0.33295 0.0
C56 C 0.93569 0.7865 0.32694 0.0
C57 C 0.98282 0.77962 0.32359 0.0
C58 C 0.06425 0.7377 0.29647 0.0
C59 C 0.10751 0.74765 0.28973 0.0
C60 C 0.11016 0.75561 0.27178 0.0
C61 C 0.06977 0.75246 0.26017 0.0
C62 C 0.02656 0.74148 0.26687 0.0
C63 C 0.02385 0.73409 0.28491 0.0
P64 P 0.78173 0.71905 0.55222 0.0
H65 H 0.80642 0.77247 0.58423 0.0
H66 H 0.7937 0.85476 0.59252 0.0
H67 H 0.7062 0.87546 0.54457 0.0
H68 H 0.71898 0.79285 0.53634 0.0
H69 H 0.85013 0.64573 0.56288 0.0
H70 H 0.84716 0.57853 0.5825 0.0
H71 H 0.70987 0.62437 0.59675 0.0
H72 H 0.71546 0.69361 0.57832 0.0
H73 H 0.79572 0.71355 0.51458 0.0
H74 H 0.68544 0.68175 0.54854 0.0
O75 O 0.83628 0.72555 0.54603 0.0
H76 H 0.744 0.69252 0.48897 0.0
H77 H 0.63392 0.65898 0.523 0.0
C78 C 0.76325 0.77622 0.55981 0.0
C79 C 0.78357 0.79432 0.57569 0.0
C80 C 0.77661 0.84153 0.58032 0.0
C81 C 0.74935 0.87179 0.56908 0.0
C82 C 0.72716 0.85301 0.55353 0.0
C83 C 0.73445 0.80569 0.54884 0.0
C84 C 0.78286 0.67456 0.56906 0.0
C85 C 0.81997 0.64196 0.57062 0.0
C86 C 0.81789 0.60301 0.58171 0.0
C87 C 0.7779 0.595 0.5911 0.0
C88 C 0.74164 0.62914 0.59002 0.0
C89 C 0.7444 0.66872 0.57926 0.0
C90 C 0.74471 0.69885 0.53353 0.0
C91 C 0.76074 0.701 0.51659 0.0
C92 C 0.73117 0.68844 0.50192 0.0
C93 C 0.68483 0.67357 0.5039 0.0
C94 C 0.66932 0.67034 0.52099 0.0
C95 C 0.69891 0.68316 0.53565 0.0
P96 P 0.56908 0.17517 0.81537 0.0
H97 H 0.60567 0.19607 0.85149 0.0
H98 H 0.68258 0.22564 0.86311 0.0
H99 H 0.71526 0.26284 0.81051 0.0
H100 H 0.63868 0.23434 0.79904 0.0
H101 H 0.48438 0.12136 0.80967 0.0
H102 H 0.40235 0.1364 0.81457 0.0
H103 H 0.43958 0.27349 0.83649 0.0
H104 H 0.52238 0.25833 0.831 0.0
H105 H 0.62505 0.11829 0.79274 0.0
H106 H 0.51728 0.22509 0.78622 0.0
O107 O 0.58081 0.12131 0.8233 0.0
H108 H 0.62876 0.1131 0.76093 0.0
H109 H 0.51954 0.21902 0.75419 0.0
C110 C 0.61623 0.21262 0.82439 0.0
C111 C 0.62862 0.21232 0.84256 0.0
C112 C 0.6727 0.22904 0.84917 0.0
C113 C 0.70525 0.24578 0.83766 0.0
C114 C 0.69118 0.24949 0.81966 0.0
C115 C 0.64707 0.23332 0.81311 0.0
C116 C 0.50952 0.18833 0.8203 0.0
C117 C 0.47501 0.15459 0.81565 0.0
C118 C 0.428 0.16322 0.81849 0.0
C119 C 0.41422 0.20596 0.8261 0.0
C120 C 0.44891 0.24028 0.83051 0.0
C121 C 0.4963 0.23156 0.82757 0.0
C122 C 0.57016 0.1712 0.79179 0.0
C123 C 0.60161 0.14007 0.78441 0.0
C124 C 0.60344 0.13698 0.76619 0.0
C125 C 0.5738 0.16504 0.75494 0.0
C126 C 0.5428 0.19689 0.76244 0.0
C127 C 0.54122 0.20013 0.78075 0.0
P128 P 0.10464 0.7307 0.91909 0.0
H129 H 0.10507 0.68346 0.88523 0.0
H130 H 0.0592 0.61907 0.87192 0.0
H131 H 0.96757 0.62468 0.91486 0.0
H132 H 0.0155 0.68849 0.92847 0.0
H133 H 0.16329 0.81418 0.91928 0.0
H134 H 0.14767 0.89635 0.91125 0.0
H135 H 0.00217 0.8618 0.89761 0.0
H136 H 0.01846 0.77933 0.90536 0.0
H137 H 0.15187 0.66595 0.94437 0.0
H138 H 0.05684 0.78454 0.94562 0.0
O139 O 0.15863 0.7174 0.91345 0.0
H140 H 0.16102 0.66657 0.97671 0.0
H141 H 0.06604 0.78541 0.97775 0.0
C142 C 0.0646 0.6895 0.90809 0.0
C143 C 0.07478 0.67121 0.89168 0.0
C144 C 0.04787 0.63466 0.88394 0.0
C145 C 0.00966 0.616 0.89236 0.0
C146 C 0.99724 0.63739 0.90816 0.0
C147 C 0.02459 0.67388 0.91598 0.0
C148 C 0.09231 0.79057 0.91251 0.0
C149 C 0.12813 0.82426 0.9144 0.0
C150 C 0.11901 0.87133 0.91 0.0
C151 C 0.07366 0.88568 0.90376 0.0
C152 C 0.03763 0.85177 0.90212 0.0
C153 C 0.04686 0.80462 0.90654 0.0
C154 C 0.10478 0.72606 0.94264 0.0
C155 C 0.1325 0.69165 0.95161 0.0
C156 C 0.13748 0.6918 0.97004 0.0
C157 C 0.11478 0.72647 0.97965 0.0
C158 C 0.08448 0.75875 0.9706 0.0
C159 C 0.0793 0.75836 0.95225 0.0
P160 P 0.68349 0.88745 0.19017 0.0
H161 H 0.77899 0.91833 0.18683 0.0
H162 H 0.84741 0.8811 0.17507 0.0
H163 H 0.76399 0.75825 0.16024 0.0
H164 H 0.69519 0.7964 0.17179 0.0
H165 H 0.61219 0.92678 0.16453 0.0
H166 H 0.53035 0.90468 0.15653 0.0
H167 H 0.54835 0.78047 0.18891 0.0
H168 H 0.62966 0.80284 0.19692 0.0
H169 H 0.73883 0.81816 0.21181 0.0
H170 H 0.63851 0.92931 0.21965 0.0
O171 O 0.68597 0.94577 0.18743 0.0
H172 H 0.73984 0.79802 0.2429 0.0
H173 H 0.63829 0.90848 0.25072 0.0
C174 C 0.73181 0.86066 0.17979 0.0
C175 C 0.77525 0.88365 0.18083 0.0
C176 C 0.81454 0.86197 0.17433 0.0
C177 C 0.81131 0.8165 0.16681 0.0
C178 C 0.76757 0.79344 0.16581 0.0
C179 C 0.72817 0.81527 0.17235 0.0
C180 C 0.62667 0.86688 0.18158 0.0
C181 C 0.59868 0.89444 0.16969 0.0
C182 C 0.55198 0.88173 0.16507 0.0
C183 C 0.53273 0.84133 0.17234 0.0
C184 C 0.56194 0.81234 0.18338 0.0
C185 C 0.60848 0.82496 0.18791 0.0
C186 C 0.68896 0.87571 0.21344 0.0
C187 C 0.71751 0.83877 0.22024 0.0
C188 C 0.71786 0.82703 0.23805 0.0
C189 C 0.68921 0.85164 0.24934 0.0
C190 C 0.66149 0.88937 0.24251 0.0
C191 C 0.66133 0.90117 0.22472 0.0
P192 P 0.60908 0.22238 0.41806 0.0
H193 H 0.61406 0.15487 0.38898 0.0
H194 H 0.562 0.09093 0.3791 0.0
H195 H 0.45477 0.14666 0.4109 0.0
H196 H 0.50749 0.21097 0.42082 0.0
H197 H 0.66124 0.29315 0.39971 0.0
H198 H 0.652 0.3782 0.39611 0.0
H199 H 0.52812 0.37505 0.42558 0.0
H200 H 0.53782 0.28945 0.42925 0.0
H201 H 0.64948 0.27084 0.44953 0.0
H202 H 0.57374 0.14157 0.43758 0.0
O203 O 0.66183 0.20762 0.41151 0.0
H204 H 0.64981 0.25326 0.48108 0.0
H205 H 0.57212 0.12547 0.46902 0.0
C206 C 0.56504 0.18723 0.40591 0.0
C207 C 0.57877 0.15454 0.39335 0.0
C208 C 0.54866 0.11799 0.38758 0.0
C209 C 0.50437 0.11326 0.3944 0.0
C210 C 0.48881 0.14912 0.40552 0.0
C211 C 0.51887 0.18606 0.41113 0.0
C212 C 0.60012 0.28486 0.4147 0.0
C213 C 0.63204 0.31059 0.40541 0.0
C214 C 0.62695 0.35939 0.40349 0.0
C215 C 0.58957 0.3835 0.4107 0.0
C216 C 0.55718 0.35748 0.41982 0.0
C217 C 0.56258 0.30856 0.42187 0.0
C218 C 0.60991 0.20864 0.44119 0.0
C219 C 0.63269 0.23894 0.45365 0.0
C220 C 0.63327 0.22871 0.47161 0.0
C221 C 0.6109 0.18812 0.47732 0.0
C222 C 0.58944 0.15702 0.46485 0.0
C223 C 0.5898 0.16671 0.44688 0.0
P224 P 0.1838 0.3759 0.69012 0.0
H225 H 0.22209 0.39112 0.65628 0.0
H226 H 0.29844 0.37342 0.64509 0.0
H227 H 0.33971 0.29873 0.69299 0.0
H228 H 0.26293 0.3157 0.70398 0.0
H229 H 0.08691 0.40396 0.69313 0.0
H230 H 0.01251 0.37734 0.67867 0.0
H231 H 0.08846 0.28553 0.64493 0.0
H232 H 0.1625 0.31089 0.66004 0.0
H233 H 0.21533 0.41624 0.72437 0.0
H234 H 0.14699 0.28928 0.70451 0.0
O235 O 0.18612 0.43475 0.69061 0.0
H236 H 0.20862 0.38949 0.75458 0.0
H237 H 0.13912 0.26273 0.73461 0.0
C238 C 0.2367 0.3549 0.68094 0.0
C239 C 0.2472 0.37015 0.66423 0.0
C240 C 0.291 0.36028 0.65792 0.0
C241 C 0.32543 0.33525 0.66828 0.0
C242 C 0.31395 0.31792 0.68468 0.0
C243 C 0.26997 0.32782 0.69099 0.0
C244 C 0.13021 0.3596 0.67762 0.0
C245 C 0.08747 0.37851 0.68246 0.0
C246 C 0.04491 0.3635 0.67407 0.0
C247 C 0.04424 0.32919 0.6606 0.0
C248 C 0.08748 0.31151 0.6554 0.0
C249 C 0.13002 0.32626 0.66394 0.0
C250 C 0.18055 0.35525 0.71228 0.0
C251 C 0.19873 0.38267 0.72653 0.0
C252 C 0.19487 0.36735 0.74378 0.0
C253 C 0.17305 0.32413 0.74702 0.0
C254 C 0.15652 0.29597 0.7326 0.0
C255 C 0.16048 0.31133 0.71538 0.0
Zn256 Zn 0.22858 0.66767 0.15591 0.0
Zn257 Zn 0.12071 0.79322 0.11149 0.0
Zn258 Zn 0.16849 0.73545 0.125 0.0
C259 C 0.14617 0.73785 0.08416 0.0
C260 C 0.19499 0.84288 0.12427 0.0
O261 O 0.13323 0.72166 0.14994 0.0
O262 O 0.17558 0.67939 0.17032 0.0
C263 C 0.18996 0.63893 0.11736 0.0
O264 O 0.15431 0.70938 0.09719 0.0
O265 O 0.13637 0.78042 0.08725 0.0
O266 O 0.15114 0.84952 0.12298 0.0
O267 O 0.21114 0.8004 0.12358 0.0
O268 O 0.20513 0.65042 0.13255 0.0
O269 O 0.17099 0.67167 0.10787 0.0
O270 O 0.24028 0.76333 0.13324 0.0
O271 O 0.27429 0.71942 0.15502 0.0
C272 C 0.27474 0.75438 0.14473 0.0
O273 O 0.10159 0.74775 0.13844 0.0
O274 O 0.05592 0.77828 0.1169 0.0
C275 C 0.1387 0.70177 0.16524 0.0
C276 C 0.06057 0.76135 0.13216 0.0
Zn277 Zn 0.51623 0.69621 0.34539 0.0
Zn278 Zn 0.59589 0.80625 0.39507 0.0
Zn279 Zn 0.55694 0.75029 0.37058 0.0
C280 C 0.51405 0.85089 0.38435 0.0
C281 C 0.65894 0.79811 0.36877 0.0
O282 O 0.54868 0.67809 0.38146 0.0
O283 O 0.50927 0.63908 0.3599 0.0
C284 C 0.45551 0.77196 0.35075 0.0
O285 O 0.51152 0.814 0.37428 0.0
O286 O 0.54837 0.85606 0.39553 0.0
O287 O 0.65497 0.81872 0.38336 0.0
O288 O 0.6253 0.77218 0.36196 0.0
O289 O 0.46052 0.73746 0.34045 0.0
O290 O 0.48731 0.78144 0.36311 0.0
O291 O 0.59969 0.75051 0.34739 0.0
O292 O 0.56634 0.69866 0.32863 0.0
C293 C 0.59826 0.72846 0.33249 0.0
O294 O 0.57137 0.70676 0.3946 0.0
O295 O 0.59819 0.76015 0.41416 0.0
C296 C 0.52838 0.64016 0.37537 0.0
C297 C 0.58671 0.71817 0.41038 0.0
Zn298 Zn 0.62079 0.29011 0.60177 0.0
Zn299 Zn 0.72087 0.17014 0.63827 0.0
Zn300 Zn 0.67354 0.23189 0.61989 0.0
C301 C 0.78117 0.2466 0.63527 0.0
C302 C 0.70089 0.12511 0.60683 0.0
O303 O 0.60686 0.24726 0.6336 0.0
O304 O 0.56703 0.2968 0.61587 0.0
C305 C 0.70484 0.33715 0.61032 0.0
O306 O 0.74419 0.26404 0.62693 0.0
O307 O 0.77992 0.20569 0.64166 0.0
O308 O 0.72179 0.11747 0.62166 0.0
O309 O 0.68063 0.16532 0.60364 0.0
O310 O 0.6646 0.3437 0.6028 0.0
O311 O 0.71605 0.29693 0.61728 0.0
O312 O 0.6582 0.20034 0.59326 0.0
O313 O 0.6119 0.25352 0.57973 0.0
C314 C 0.63351 0.21463 0.57946 0.0
O315 O 0.63719 0.21911 0.64433 0.0
O316 O 0.68101 0.16456 0.65823 0.0
C317 C 0.57018 0.27323 0.62986 0.0
C318 C 0.64581 0.19171 0.65764 0.0
Zn319 Zn 0.01754 0.14268 0.84709 0.0
Zn320 Zn 0.1286 0.32463 0.88402 0.0
Zn321 Zn 0.07673 0.25614 0.87492 0.0
C322 C 0.14175 0.25466 0.91037 0.0
C323 C 0.0359 0.3584 0.88223 0.0
O324 O 0.0938 0.2289 0.84759 0.0
O325 O 0.06636 0.1663 0.83097 0.0
C326 C 0.06217 0.16286 0.88521 0.0
O327 O 0.10915 0.23379 0.90075 0.0
O328 O 0.15729 0.29411 0.90582 0.0
O329 O 0.07768 0.37129 0.88604 0.0
O330 O 0.02683 0.31571 0.87731 0.0
O331 O 0.04369 0.17197 0.87004 0.0
O332 O 0.08095 0.19796 0.89349 0.0
O333 O 0.00217 0.27586 0.87044 0.0
O334 O 0.00922 0.20611 0.85969 0.0
C335 C 0.9826 0.2411 0.86213 0.0
O336 O 0.13306 0.26167 0.85672 0.0
O337 O 0.16925 0.32831 0.86409 0.0
C338 C 0.09281 0.20266 0.83341 0.0
C339 C 0.16579 0.29178 0.85453 0.0
H340 H 0.23138 0.42166 0.1124 0.0
H341 H 0.19677 0.44465 0.05714 0.0
H342 H 0.1784 0.52771 0.06313 0.0
H343 H 0.1773 0.59554 0.08435 0.0
H344 H 0.21298 0.56798 0.13948 0.0
H345 H 0.22668 0.48605 0.13314 0.0
C346 C 0.21998 0.44482 0.10163 0.0
C347 C 0.21602 0.42713 0.08437 0.0
C348 C 0.21005 0.49223 0.10512 0.0
C349 C 0.20002 0.4574 0.07061 0.0
C350 C 0.1898 0.50499 0.07401 0.0
C351 C 0.1874 0.57144 0.09492 0.0
C352 C 0.19426 0.58851 0.1123 0.0
C353 C 0.19533 0.52312 0.09124 0.0
C354 C 0.20777 0.5565 0.12588 0.0
C355 C 0.21561 0.50922 0.12235 0.0
H356 H 0.8673 0.82317 0.34868 0.0
H357 H 0.83754 0.6882 0.32377 0.0
H358 H 0.75605 0.69352 0.33138 0.0
H359 H 0.69607 0.73235 0.3478 0.0
H360 H 0.7245 0.86792 0.37228 0.0
H361 H 0.80399 0.86647 0.3622 0.0
C362 C 0.84277 0.79535 0.34464 0.0
C363 C 0.85864 0.755 0.33595 0.0
C364 C 0.79595 0.79852 0.34911 0.0
C365 C 0.82645 0.71912 0.33086 0.0
C366 C 0.77982 0.7222 0.33513 0.0
C367 C 0.71897 0.76238 0.35038 0.0
C368 C 0.70421 0.80043 0.36056 0.0
C369 C 0.76452 0.76117 0.34462 0.0
C370 C 0.73509 0.83822 0.36442 0.0
C371 C 0.78052 0.83739 0.35868 0.0
H372 H 0.8111 0.50698 0.58283 0.0
H373 H 0.73104 0.57962 0.62098 0.0
H374 H 0.70721 0.50412 0.63247 0.0
H375 H 0.69899 0.41814 0.62841 0.0
H376 H 0.78114 0.34559 0.59128 0.0
H377 H 0.81636 0.42056 0.58325 0.0
C378 C 0.78979 0.50678 0.59405 0.0
C379 C 0.77179 0.54951 0.60057 0.0
C380 C 0.77676 0.4631 0.60085 0.0
C381 C 0.74399 0.54762 0.61512 0.0
C382 C 0.73063 0.50435 0.62186 0.0
C383 C 0.72609 0.41871 0.6191 0.0
C384 C 0.73776 0.37681 0.61044 0.0
C385 C 0.74526 0.46195 0.61434 0.0
C386 C 0.77227 0.37755 0.59823 0.0
C387 C 0.79181 0.42047 0.59349 0.0
H388 H 0.78208 0.20947 0.82373 0.0
H389 H 0.74042 0.29884 0.86596 0.0
H390 H 0.82309 0.30844 0.87668 0.0
H391 H 0.90761 0.28859 0.87453 0.0
H392 H 0.94658 0.194 0.83332 0.0
H393 H 0.86498 0.18972 0.8216 0.0
C394 C 0.79114 0.23158 0.83515 0.0
C395 C 0.75524 0.25385 0.84392 0.0
C396 C 0.83842 0.23589 0.84143 0.0
C397 C 0.76745 0.28143 0.85896 0.0
C398 C 0.81471 0.28692 0.86507 0.0
C399 C 0.89811 0.26745 0.8629 0.0
C400 C 0.93311 0.2417 0.85478 0.0
C401 C 0.85056 0.26398 0.85649 0.0
C402 C 0.92032 0.21396 0.83985 0.0
C403 C 0.87363 0.2115 0.83313 0.0
H404 H 0.98083 0.54333 0.91229 0.0
H405 H 0.9915 0.58459 0.85824 0.0
H406 H 0.98655 0.5021 0.84896 0.0
H407 H 0.00194 0.41944 0.85764 0.0
H408 H 0.9931 0.37931 0.91168 0.0
H409 H 0.97193 0.46002 0.91943 0.0
C410 C 0.97993 0.53482 0.89837 0.0
C411 C 0.98879 0.57013 0.8861 0.0
C412 C 0.97757 0.48721 0.89314 0.0
C413 C 0.98689 0.55796 0.8681 0.0
C414 C 0.9839 0.51073 0.86275 0.0
C415 C 0.99247 0.42794 0.87086 0.0
C416 C 0.9992 0.39394 0.88412 0.0
C417 C 0.98263 0.47497 0.87533 0.0
C418 C 0.98766 0.40507 0.90127 0.0
C419 C 0.97648 0.45145 0.90575 0.0
H420 H 0.90147 0.81648 0.18127 0.0
H421 H 0.81554 0.76667 0.13606 0.0
H422 H 0.88554 0.73854 0.12248 0.0
H423 H 0.97162 0.73687 0.12187 0.0
H424 H 0.05728 0.79412 0.16557 0.0
H425 H 0.98743 0.80951 0.18158 0.0
C426 C 0.89804 0.7993 0.16847 0.0
C427 C 0.85331 0.79429 0.1596 0.0
C428 C 0.93855 0.78418 0.16056 0.0
C429 C 0.84943 0.7709 0.14322 0.0
C430 C 0.88951 0.75507 0.13538 0.0
C431 C 0.97485 0.75166 0.13508 0.0
C432 C 0.01959 0.76264 0.14291 0.0
C433 C 0.93428 0.7627 0.14371 0.0
C434 C 0.02349 0.78279 0.15981 0.0
C435 C 0.98339 0.7927 0.16873 0.0
H436 H 0.50945 0.43194 0.40108 0.0
H437 H 0.65747 0.45143 0.41448 0.0
H438 H 0.65032 0.53512 0.40704 0.0
H439 H 0.60362 0.60041 0.39333 0.0
H440 H 0.45664 0.57956 0.37878 0.0
H441 H 0.46143 0.49911 0.3902 0.0
C442 C 0.53994 0.4547 0.40271 0.0
C443 C 0.58399 0.43534 0.40816 0.0
C444 C 0.53573 0.50261 0.39812 0.0
C445 C 0.62329 0.46528 0.41003 0.0
C446 C 0.61921 0.51318 0.40583 0.0
C447 C 0.57241 0.57878 0.39334 0.0
C448 C 0.52973 0.59597 0.38554 0.0
C449 C 0.57585 0.53199 0.39943 0.0
C450 C 0.48979 0.56703 0.38487 0.0
C451 C 0.49258 0.52099 0.3913 0.0
H452 H 0.95984 0.37473 0.65268 0.0
H453 H 0.02583 0.23713 0.65226 0.0
H454 H 0.95121 0.2013 0.64266 0.0
H455 H 0.86673 0.20726 0.63676 0.0
H456 H 0.79754 0.34251 0.63857 0.0
H457 H 0.87382 0.38112 0.64511 0.0
C458 C 0.9579 0.33692 0.65046 0.0
C459 C 0.99879 0.30883 0.65321 0.0
C460 C 0.91427 0.31609 0.64524 0.0
C461 C 0.9955 0.25994 0.64999 0.0
C462 C 0.95262 0.23922 0.64465 0.0
C463 C 0.86825 0.2453 0.63848 0.0
C464 C 0.82653 0.27203 0.6372 0.0
C465 C 0.91178 0.26676 0.64257 0.0
C466 C 0.82918 0.32127 0.63922 0.0
C467 C 0.87278 0.34319 0.64316 0.0
H468 H 0.38405 0.25756 0.66963 0.0
H469 H 0.37659 0.4041 0.65437 0.0
H470 H 0.45406 0.39844 0.64313 0.0
H471 H 0.52101 0.35135 0.63561 0.0
H472 H 0.53016 0.20424 0.64942 0.0
H473 H 0.4559 0.21092 0.66388 0.0
C474 C 0.39968 0.28827 0.664 0.0
C475 C 0.37401 0.33095 0.66249 0.0
C476 C 0.44465 0.28477 0.65745 0.0
C477 C 0.39487 0.37051 0.65524 0.0
C478 C 0.43939 0.36746 0.64894 0.0
C479 C 0.50706 0.3208 0.64198 0.0
C480 C 0.53089 0.27739 0.64147 0.0
C481 C 0.46409 0.32465 0.64966 0.0
C482 C 0.51269 0.2382 0.64986 0.0
C483 C 0.46998 0.24194 0.65791 0.0
H484 H 0.4764 0.84149 0.14151 0.0
H485 H 0.47429 0.81899 0.19747 0.0
H486 H 0.39182 0.79706 0.19385 0.0
H487 H 0.32265 0.77777 0.17484 0.0
H488 H 0.32377 0.79378 0.11868 0.0
H489 H 0.40343 0.82684 0.1223 0.0
C490 C 0.45761 0.83228 0.15289 0.0
C491 C 0.48169 0.83103 0.16971 0.0
C492 C 0.40991 0.81916 0.15069 0.0
C493 C 0.45691 0.81913 0.18435 0.0
C494 C 0.40965 0.80694 0.18232 0.0
C495 C 0.34001 0.78936 0.1634 0.0
C496 C 0.31732 0.78395 0.14653 0.0
C497 C 0.38616 0.80591 0.16556 0.0
C498 C 0.34009 0.79891 0.13182 0.0
C499 C 0.38594 0.81692 0.13389 0.0
H500 H 0.36113 0.28653 0.82179 0.0
H501 H 0.35413 0.14191 0.83889 0.0
H502 H 0.27292 0.15345 0.84586 0.0
H503 H 0.20649 0.20659 0.85017 0.0
H504 H 0.21505 0.35266 0.8354 0.0
H505 H 0.29215 0.33845 0.82413 0.0
C506 C 0.34186 0.25758 0.82706 0.0
C507 C 0.36405 0.21348 0.82985 0.0
C508 C 0.2951 0.26462 0.83136 0.0
C509 C 0.33807 0.17615 0.83642 0.0
C510 C 0.29152 0.18271 0.84049 0.0
C511 C 0.22468 0.23492 0.84399 0.0
C512 C 0.20518 0.28055 0.84357 0.0
C513 C 0.26991 0.22697 0.83831 0.0
C514 C 0.22943 0.31719 0.83583 0.0
C515 C 0.27369 0.30917 0.82954 0.0
H516 H 0.25121 0.82483 0.32679 0.0
H517 H 0.23387 0.79983 0.38173 0.0
H518 H 0.31922 0.80055 0.38795 0.0
H519 H 0.39778 0.79178 0.37654 0.0
H520 H 0.41279 0.80775 0.32099 0.0
H521 H 0.32979 0.82873 0.31625 0.0
C522 C 0.26599 0.82138 0.34024 0.0
C523 C 0.23632 0.81187 0.35376 0.0
C524 C 0.31493 0.81972 0.34354 0.0
C525 C 0.25609 0.80673 0.37108 0.0
C526 C 0.30487 0.80695 0.37462 0.0
C527 C 0.38303 0.8016 0.36355 0.0
C528 C 0.41088 0.79814 0.3491 0.0
C529 C 0.33463 0.81095 0.36079 0.0
C530 C 0.39166 0.81018 0.33225 0.0
C531 C 0.34421 0.82181 0.32953 0.0
H532 H 0.67248 0.93132 0.56758 0.0
H533 H 0.8227 0.92826 0.57923 0.0
H534 H 0.82131 0.01019 0.58898 0.0
H535 H 0.77692 0.07884 0.59782 0.0
H536 H 0.62686 0.0841 0.58733 0.0
H537 H 0.62856 0.00595 0.57299 0.0
C538 C 0.70489 0.94892 0.57202 0.0
C539 C 0.74752 0.92326 0.57314 0.0
C540 C 0.70383 0.99643 0.57777 0.0
C541 C 0.78929 0.94668 0.57876 0.0
C542 C 0.78861 0.99367 0.58422 0.0
C543 C 0.74475 0.06338 0.59193 0.0
C544 C 0.70187 0.0868 0.59363 0.0
C545 C 0.74602 0.01832 0.5843 0.0
C546 C 0.66033 0.06673 0.586 0.0
C547 C 0.66132 0.02182 0.57804 0.0
H548 H 0.30005 0.01354 0.09498 0.0
H549 H 0.20883 0.08863 0.12861 0.0
H550 H 0.18518 0.01414 0.14108 0.0
H551 H 0.18253 0.92761 0.13956 0.0
H552 H 0.2725 0.8526 0.10573 0.0
H553 H 0.30664 0.92717 0.09698 0.0
C554 C 0.276 0.01395 0.10538 0.0
C555 C 0.25555 0.0569 0.11053 0.0
C556 C 0.26268 0.97089 0.11261 0.0
C557 C 0.2241 0.05621 0.12396 0.0
C558 C 0.21082 0.0136 0.13123 0.0
C559 C 0.2107 0.92761 0.13071 0.0
C560 C 0.22531 0.88473 0.1234 0.0
C561 C 0.22871 0.97069 0.12524 0.0
C562 C 0.2616 0.88501 0.11188 0.0
C563 C 0.2804 0.92778 0.10661 0.0
H564 H 0.48792 0.05658 0.36523 0.0
H565 H 0.46862 0.06433 0.4209 0.0
H566 H 0.4551 0.97977 0.42153 0.0
H567 H 0.47097 0.90292 0.40817 0.0
H568 H 0.49341 0.8936 0.35295 0.0
H569 H 0.48206 0.97894 0.35006 0.0
C570 C 0.47918 0.03991 0.37735 0.0
C571 C 0.48038 0.06667 0.39306 0.0
C572 C 0.47261 0.99071 0.37775 0.0
C573 C 0.46809 0.04478 0.40861 0.0
C574 C 0.4608 0.99615 0.40904 0.0
C575 C 0.47084 0.91935 0.39533 0.0
C576 C 0.48382 0.89248 0.38087 0.0
C577 C 0.46606 0.96853 0.39397 0.0
C578 C 0.48346 0.91373 0.36426 0.0
C579 C 0.47783 0.96271 0.36269 0.0
H580 H 0.10591 0.96545 0.92087 0.0
H581 H 0.02066 0.91811 0.87508 0.0
H582 H 0.0078 0.99972 0.86588 0.0
H583 H 0.02322 0.08403 0.87014 0.0
H584 H 0.11013 0.13201 0.91537 0.0
H585 H 0.12005 0.05053 0.92546 0.0
C586 C 0.08471 0.97298 0.90883 0.0
C587 C 0.0644 0.93561 0.89866 0.0
C588 C 0.07787 0.02004 0.90349 0.0
C589 C 0.03629 0.94611 0.88327 0.0
C590 C 0.02916 0.99278 0.87793 0.0
C591 C 0.04434 0.07676 0.8822 0.0
C592 C 0.06622 0.11401 0.8919 0.0
C593 C 0.05012 0.02994 0.88784 0.0
C594 C 0.09301 0.10396 0.90763 0.0
C595 C 0.09876 0.05737 0.91339 0.0
H596 H 0.26535 0.20795 0.97885 0.0
H597 H 0.12897 0.19655 -0.00049 0.0
H598 H 0.09131 0.20226 0.96973 0.0
H599 H 0.09707 0.222 0.93825 0.0
H600 H 0.2338 0.24162 0.91878 0.0
H601 H 0.27142 0.22117 0.94752 0.0
C602 C 0.22737 0.20653 0.97684 0.0
C603 C 0.20005 0.20264 0.99141 0.0
C604 C 0.206 0.21161 0.95983 0.0
C605 C 0.15091 0.19949 0.98853 0.0
C606 C 0.12931 0.20314 0.9715 0.0
C607 C 0.13505 0.22057 0.94029 0.0
C608 C 0.16283 0.2332 0.92657 0.0
C609 C 0.15644 0.21076 0.95711 0.0
C610 C 0.21195 0.232 0.92927 0.0
C611 C 0.23341 0.22053 0.94568 0.0
H612 H 0.03553 0.69359 0.23407 0.0
H613 H 0.11465 0.82181 0.24354 0.0
H614 H 0.13569 0.82174 0.21301 0.0
H615 H 0.14252 0.77812 0.18548 0.0
H616 H 0.06813 0.64748 0.17628 0.0
H617 H 0.03315 0.65581 0.20472 0.0
C618 C 0.0562 0.7222 0.22927 0.0
C619 C 0.07412 0.75732 0.24103 0.0
C620 C 0.06907 0.72127 0.21181 0.0
C621 C 0.10116 0.79405 0.23475 0.0
C622 C 0.11315 0.79403 0.21732 0.0
C623 C 0.11719 0.75253 0.1895 0.0
C624 C 0.10686 0.71285 0.17888 0.0
C625 C 0.0989 0.75683 0.20599 0.0
C626 C 0.07539 0.67886 0.18421 0.0
C627 C 0.05594 0.68342 0.20051 0.0
H628 H 0.70117 0.63111 0.4725 0.0
H629 H 0.59361 0.703 0.49972 0.0
H630 H 0.54538 0.71027 0.47227 0.0
H631 H 0.54273 0.71359 0.44011 0.0
H632 H 0.65365 0.65004 0.41253 0.0
H633 H 0.6908 0.62085 0.44029 0.0
C634 C 0.66679 0.64758 0.47245 0.0
C635 C 0.65159 0.66739 0.48812 0.0
C636 C 0.63978 0.6532 0.45645 0.0
C637 C 0.6064 0.68748 0.48792 0.0
C638 C 0.57882 0.69203 0.47216 0.0
C639 C 0.57371 0.69121 0.44017 0.0
C640 C 0.5952 0.68334 0.42439 0.0
C641 C 0.5963 0.67734 0.45626 0.0
C642 C 0.63586 0.65532 0.4245 0.0
C643 C 0.65766 0.63962 0.44044 0.0
H644 H 0.56988 0.23677 0.73094 0.0
H645 H 0.58385 0.08533 0.73523 0.0
H646 H 0.60137 0.07989 0.70444 0.0
H647 H 0.6225 0.11884 0.67757 0.0
H648 H 0.60844 0.26977 0.67276 0.0
H649 H 0.57927 0.27462 0.70226 0.0
C650 C 0.57561 0.20247 0.72504 0.0
C651 C 0.57675 0.16164 0.73555 0.0
C652 C 0.58558 0.19951 0.70724 0.0
C653 C 0.58423 0.11748 0.72763 0.0
C654 C 0.59396 0.11426 0.70998 0.0
C655 C 0.61203 0.15265 0.68287 0.0
C656 C 0.61782 0.1939 0.67317 0.0
C657 C 0.59631 0.15515 0.69986 0.0
C658 C 0.60396 0.23752 0.68001 0.0
C659 C 0.58778 0.24031 0.69693 0.0
H660 H 0.11338 0.66068 0.006 0.0
H661 H 0.14346 0.80686 0.99599 0.0
H662 H 0.16093 0.82106 0.02732 0.0
H663 H 0.16341 0.79395 0.05736 0.0
H664 H 0.12804 0.65022 0.06886 0.0
H665 H 0.11843 0.63236 0.03713 0.0
C666 C 0.12405 0.69544 0.01077 0.0
C667 C 0.12652 0.73291 -0.00123 0.0
C668 C 0.13347 0.70361 0.02898 0.0
C669 C 0.14046 0.7778 0.00502 0.0
C670 C 0.15073 0.78587 0.0229 0.0
C671 C 0.15392 0.75848 0.05299 0.0
C672 C 0.14668 0.72332 0.06545 0.0
C673 C 0.14666 0.74931 0.03496 0.0
C674 C 0.13479 0.67757 0.05954 0.0
C675 C 0.12863 0.66765 0.0414 0.0
H676 H 0.68418 0.76121 0.26062 0.0
H677 H 0.68296 0.90544 0.27923 0.0
H678 H 0.66199 0.87877 0.30812 0.0
H679 H 0.63301 0.81543 0.3265 0.0
H680 H 0.63117 0.67198 0.30712 0.0
H681 H 0.66594 0.6972 0.28034 0.0
C682 C 0.68068 0.78681 0.27112 0.0
C683 C 0.68454 0.83532 0.26767 0.0
C684 C 0.66791 0.77131 0.28757 0.0
C685 C 0.67926 0.86794 0.28142 0.0
C686 C 0.66742 0.85271 0.29796 0.0
C687 C 0.64155 0.78958 0.31663 0.0
C688 C 0.62932 0.742 0.31868 0.0
C689 C 0.66 0.80461 0.30098 0.0
C690 C 0.64005 0.70886 0.30574 0.0
C691 C 0.65969 0.72329 0.2904 0.0
H692 H 0.67966 0.16762 0.50274 0.0
H693 H 0.53099 0.19351 0.49404 0.0
H694 H 0.52305 0.19541 0.52582 0.0
H695 H 0.56059 0.20194 0.55566 0.0
H696 H 0.70883 0.17458 0.56488 0.0
H697 H 0.71478 0.15916 0.53338 0.0
C698 C 0.64552 0.17266 0.50791 0.0
C699 C 0.60599 0.18103 0.49626 0.0
C700 C 0.64123 0.17333 0.5262 0.0
C701 C 0.56175 0.18717 0.50289 0.0
C702 C 0.55726 0.18834 0.52101 0.0
C703 C 0.59386 0.19106 0.55081 0.0
C704 C 0.63431 0.18991 0.56241 0.0
C705 C 0.59701 0.1831 0.53275 0.0
C706 C 0.67722 0.17551 0.55613 0.0
C707 C 0.68071 0.16736 0.5381 0.0
H708 H 0.18212 0.2363 0.76139 0.0
H709 H 0.14446 0.37998 0.77362 0.0
H710 H 0.12142 0.35554 0.8024 0.0
H711 H 0.10282 0.29223 0.82248 0.0
H712 H 0.13779 0.14814 0.81017 0.0
H713 H 0.17023 0.17367 0.78286 0.0
C714 C 0.16903 0.26227 0.77039 0.0
C715 C 0.1646 0.30981 0.76526 0.0
C716 C 0.15486 0.24782 0.7868 0.0
C717 C 0.14853 0.34321 0.77723 0.0
C718 C 0.13495 0.32922 0.79365 0.0
C719 C 0.11879 0.2666 0.81406 0.0
C720 C 0.11846 0.21849 0.81837 0.0
C721 C 0.13679 0.28149 0.79837 0.0
C722 C 0.13788 0.18542 0.8071 0.0
C723 C 0.15634 0.2 0.79151 0.0
loop_
_geom_bond_atom_site_label_1
_geom_bond_atom_site_label_2
_geom_bond_distance
_geom_bond_site_symmetry_2
_ccdc_geom_bond_type
P0 O11 1.490 . S
P0 C14 1.812 . S
P0 C20 1.803 . S
P0 C26 1.819 . S
H1 C15 0.941 . S
H2 C16 0.939 . S
H3 C18 0.940 . S
H4 C19 0.940 . S
H5 C21 0.939 . S
H6 C22 0.942 . S
H7 C24 0.940 . S
H8 C25 0.939 . S
H9 C27 0.941 . S
H10 C31 0.939 . S
O11 P0 1.490 . S
H12 C28 0.939 . S
H13 C30 0.940 . S
C14 P0 1.812 . S
C14 C15 1.389 . S
C14 C19 1.391 . S
C15 H1 0.941 . S
C15 C14 1.389 . S
C15 C16 1.397 . S
C16 H2 0.939 . S
C16 C15 1.397 . S
C16 C17 1.378 . S
C17 C16 1.378 . S
C17 C18 1.378 . S
C18 H3 0.940 . S
C18 C17 1.378 . S
C18 C19 1.396 . S
C19 H4 0.940 . S
C19 C14 1.391 . S
C19 C18 1.396 . S
C20 P0 1.803 . S
C20 C21 1.378 . S
C20 C25 1.400 . S
C21 H5 0.939 . S
C21 C20 1.378 . S
C21 C22 1.361 . S
C22 H6 0.942 . S
C22 C21 1.361 . S
C22 C23 1.369 . S
C23 C22 1.369 . S
C23 C24 1.404 . S
C24 H7 0.940 . S
C24 C23 1.404 . S
C24 C25 1.389 . S
C25 H8 0.939 . S
C25 C20 1.400 . S
C25 C24 1.389 . S
C26 P0 1.819 . S
C26 C27 1.391 . S
C26 C31 1.391 . S
C27 H9 0.941 . S
C27 C26 1.391 . S
C27 C28 1.396 . S
C28 H12 0.939 . S
C28 C27 1.396 . S
C28 C29 1.397 . S
C29 C28 1.397 . S
C29 C30 1.385 . S
C30 H13 0.940 . S
C30 C29 1.385 . S
C30 C31 1.388 . S
C31 H10 0.939 . S
C31 C26 1.391 . S
C31 C30 1.388 . S
P32 O43 1.490 . S
P32 C46 1.812 . S
P32 C52 1.803 . S
P32 C58 1.819 . S
H33 C47 0.941 . S
H34 C48 0.939 . S
H35 C50 0.940 . S
H36 C51 0.940 . S
H37 C53 0.939 . S
H38 C54 0.942 . S
H39 C56 0.940 . S
H40 C57 0.939 . S
H41 C59 0.941 . S
H42 C63 0.939 . S
O43 P32 1.490 . S
H44 C60 0.939 . S
H45 C62 0.940 . S
C46 P32 1.812 . S
C46 C47 1.389 . S
C46 C51 1.391 . S
C47 H33 0.941 . S
C47 C46 1.389 . S
C47 C48 1.397 . S
C48 H34 0.939 . S
C48 C47 1.397 . S
C48 C49 1.378 . S
C49 C48 1.378 . S
C49 C50 1.378 . S
C50 H35 0.940 . S
C50 C49 1.378 . S
C50 C51 1.396 . S
C51 H36 0.940 . S
C51 C46 1.391 . S
C51 C50 1.396 . S
C52 P32 1.803 . S
C52 C53 1.378 . S
C52 C57 1.400 . S
C53 H37 0.939 . S
C53 C52 1.378 . S
C53 C54 1.361 1_455 S
C54 H38 0.942 . S
C54 C53 1.361 1_655 S
C54 C55 1.369 . S
C55 C54 1.369 . S
C55 C56 1.404 1_655 S
C56 H39 0.940 . S
C56 C55 1.404 1_455 S
C56 C57 1.389 . S
C57 H40 0.939 . S
C57 C52 1.400 . S
C57 C56 1.389 . S
C58 P32 1.819 . S
C58 C59 1.391 . S
C58 C63 1.391 . S
C59 H41 0.941 . S
C59 C58 1.391 . S
C59 C60 1.396 . S
C60 H44 0.939 . S
C60 C59 1.396 . S
C60 C61 1.397 . S
C61 C60 1.397 . S
C61 C62 1.385 . S
C62 H45 0.940 . S
C62 C61 1.385 . S
C62 C63 1.388 . S
C63 H42 0.939 . S
C63 C58 1.391 . S
C63 C62 1.388 . S
P64 O75 1.490 . S
P64 C78 1.812 . S
P64 C84 1.803 . S
P64 C90 1.819 . S
H65 C79 0.941 . S
H66 C80 0.939 . S
H67 C82 0.940 . S
H68 C83 0.940 . S
H69 C85 0.939 . S
H70 C86 0.942 . S
H71 C88 0.940 . S
H72 C89 0.939 . S
H73 C91 0.941 . S
H74 C95 0.939 . S
O75 P64 1.490 . S
H76 C92 0.939 . S
H77 C94 0.940 . S
C78 P64 1.812 . S
C78 C79 1.389 . S
C78 C83 1.391 . S
C79 H65 0.941 . S
C79 C78 1.389 . S
C79 C80 1.397 . S
C80 H66 0.939 . S
C80 C79 1.397 . S
C80 C81 1.378 . S
C81 C80 1.378 . S
C81 C82 1.378 . S
C82 H67 0.940 . S
C82 C81 1.378 . S
C82 C83 1.396 . S
C83 H68 0.940 . S
C83 C78 1.391 . S
C83 C82 1.396 . S
C84 P64 1.803 . S
C84 C85 1.378 . S
C84 C89 1.400 . S
C85 H69 0.939 . S
C85 C84 1.378 . S
C85 C86 1.361 . S
C86 H70 0.942 . S
C86 C85 1.361 . S
C86 C87 1.369 . S
C87 C86 1.369 . S
C87 C88 1.404 . S
C88 H71 0.940 . S
C88 C87 1.404 . S
C88 C89 1.389 . S
C89 H72 0.939 . S
C89 C84 1.400 . S
C89 C88 1.389 . S
C90 P64 1.819 . S
C90 C91 1.391 . S
C90 C95 1.391 . S
C91 H73 0.941 . S
C91 C90 1.391 . S
C91 C92 1.396 . S
C92 H76 0.939 . S
C92 C91 1.396 . S
C92 C93 1.397 . S
C93 C92 1.397 . S
C93 C94 1.385 . S
C94 H77 0.940 . S
C94 C93 1.385 . S
C94 C95 1.388 . S
C95 H74 0.939 . S
C95 C90 1.391 . S
C95 C94 1.388 . S
P96 O107 1.490 . S
P96 C110 1.812 . S
P96 C116 1.803 . S
P96 C122 1.819 . S
H97 C111 0.941 . S
H98 C112 0.939 . S
H99 C114 0.940 . S
H100 C115 0.940 . S
H101 C117 0.939 . S
H102 C118 0.942 . S
H103 C120 0.940 . S
H104 C121 0.939 . S
H105 C123 0.941 . S
H106 C127 0.939 . S
O107 P96 1.490 . S
H108 C124 0.939 . S
H109 C126 0.940 . S
C110 P96 1.812 . S
C110 C111 1.389 . S
C110 C115 1.391 . S
C111 H97 0.941 . S
C111 C110 1.389 . S
C111 C112 1.397 . S
C112 H98 0.939 . S
C112 C111 1.397 . S
C112 C113 1.378 . S
C113 C112 1.378 . S
C113 C114 1.378 . S
C114 H99 0.940 . S
C114 C113 1.378 . S
C114 C115 1.396 . S
C115 H100 0.940 . S
C115 C110 1.391 . S
C115 C114 1.396 . S
C116 P96 1.803 . S
C116 C117 1.378 . S
C116 C121 1.400 . S
C117 H101 0.939 . S
C117 C116 1.378 . S
C117 C118 1.361 . S
C118 H102 0.942 . S
C118 C117 1.361 . S
C118 C119 1.369 . S
C119 C118 1.369 . S
C119 C120 1.404 . S
C120 H103 0.940 . S
C120 C119 1.404 . S
C120 C121 1.389 . S
C121 H104 0.939 . S
C121 C116 1.400 . S
C121 C120 1.389 . S
C122 P96 1.819 . S
C122 C123 1.391 . S
C122 C127 1.391 . S
C123 H105 0.941 . S
C123 C122 1.391 . S
C123 C124 1.396 . S
C124 H108 0.939 . S
C124 C123 1.396 . S
C124 C125 1.397 . S
C125 C124 1.397 . S
C125 C126 1.385 . S
C126 H109 0.940 . S
C126 C125 1.385 . S
C126 C127 1.388 . S
C127 H106 0.939 . S
C127 C122 1.391 . S
C127 C126 1.388 . S
P128 O139 1.490 . S
P128 C142 1.812 . S
P128 C148 1.803 . S
P128 C154 1.819 . S
H129 C143 0.941 . S
H130 C144 0.939 . S
H131 C146 0.940 1_655 S
H132 C147 0.940 . S
H133 C149 0.939 . S
H134 C150 0.942 . S
H135 C152 0.940 1_655 S
H136 C153 0.939 . S
H137 C155 0.941 . S
H138 C159 0.939 . S
O139 P128 1.490 . S
H140 C156 0.939 . S
H141 C158 0.940 . S
C142 P128 1.812 . S
C142 C143 1.389 . S
C142 C147 1.391 . S
C143 H129 0.941 . S
C143 C142 1.389 . S
C143 C144 1.397 . S
C144 H130 0.939 . S
C144 C143 1.397 . S
C144 C145 1.378 . S
C145 C144 1.378 . S
C145 C146 1.378 . S
C146 H131 0.940 1_455 S
C146 C145 1.378 . S
C146 C147 1.396 . S
C147 H132 0.940 . S
C147 C142 1.391 . S
C147 C146 1.396 . S
C148 P128 1.803 . S
C148 C149 1.378 . S
C148 C153 1.400 . S
C149 H133 0.939 . S
C149 C148 1.378 . S
C149 C150 1.361 . S
C150 H134 0.942 . S
C150 C149 1.361 . S
C150 C151 1.369 . S
C151 C150 1.369 . S
C151 C152 1.404 . S
C152 H135 0.940 1_455 S
C152 C151 1.404 . S
C152 C153 1.389 . S
C153 H136 0.939 . S
C153 C148 1.400 . S
C153 C152 1.389 . S
C154 P128 1.819 . S
C154 C155 1.391 . S
C154 C159 1.391 . S
C155 H137 0.941 . S
C155 C154 1.391 . S
C155 C156 1.396 . S
C156 H140 0.939 . S
C156 C155 1.396 . S
C156 C157 1.397 . S
C157 C156 1.397 . S
C157 C158 1.385 . S
C158 H141 0.940 . S
C158 C157 1.385 . S
C158 C159 1.388 . S
C159 H138 0.939 . S
C159 C154 1.391 . S
C159 C158 1.388 . S
P160 O171 1.490 . S
P160 C174 1.812 . S
P160 C180 1.803 . S
P160 C186 1.819 . S
H161 C175 0.941 . S
H162 C176 0.939 . S
H163 C178 0.940 . S
H164 C179 0.940 . S
H165 C181 0.939 . S
H166 C182 0.942 . S
H167 C184 0.940 . S
H168 C185 0.939 . S
H169 C187 0.941 . S
H170 C191 0.939 . S
O171 P160 1.490 . S
H172 C188 0.939 . S
H173 C190 0.940 . S
C174 P160 1.812 . S
C174 C175 1.389 . S
C174 C179 1.391 . S
C175 H161 0.941 . S
C175 C174 1.389 . S
C175 C176 1.397 . S
C176 H162 0.939 . S
C176 C175 1.397 . S
C176 C177 1.378 . S
C177 C176 1.378 . S
C177 C178 1.378 . S
C178 H163 0.940 . S
C178 C177 1.378 . S
C178 C179 1.396 . S
C179 H164 0.940 . S
C179 C174 1.391 . S
C179 C178 1.396 . S
C180 P160 1.803 . S
C180 C181 1.378 . S
C180 C185 1.400 . S
C181 H165 0.939 . S
C181 C180 1.378 . S
C181 C182 1.361 . S
C182 H166 0.942 . S
C182 C181 1.361 . S
C182 C183 1.369 . S
C183 C182 1.369 . S
C183 C184 1.404 . S
C184 H167 0.940 . S
C184 C183 1.404 . S
C184 C185 1.389 . S
C185 H168 0.939 . S
C185 C180 1.400 . S
C185 C184 1.389 . S
C186 P160 1.819 . S
C186 C187 1.391 . S
C186 C191 1.391 . S
C187 H169 0.941 . S
C187 C186 1.391 . S
C187 C188 1.396 . S
C188 H172 0.939 . S
C188 C187 1.396 . S
C188 C189 1.397 . S
C189 C188 1.397 . S
C189 C190 1.385 . S
C190 H173 0.940 . S
C190 C189 1.385 . S
C190 C191 1.388 . S
C191 H170 0.939 . S
C191 C186 1.391 . S
C191 C190 1.388 . S
P192 O203 1.490 . S
P192 C206 1.812 . S
P192 C212 1.803 . S
P192 C218 1.819 . S
H193 C207 0.941 . S
H194 C208 0.939 . S
H195 C210 0.940 . S
H196 C211 0.940 . S
H197 C213 0.939 . S
H198 C214 0.942 . S
H199 C216 0.940 . S
H200 C217 0.939 . S
H201 C219 0.941 . S
H202 C223 0.939 . S
O203 P192 1.490 . S
H204 C220 0.939 . S
H205 C222 0.940 . S
C206 P192 1.812 . S
C206 C207 1.389 . S
C206 C211 1.391 . S
C207 H193 0.941 . S
C207 C206 1.389 . S
C207 C208 1.397 . S
C208 H194 0.939 . S
C208 C207 1.397 . S
C208 C209 1.378 . S
C209 C208 1.378 . S
C209 C210 1.378 . S
C210 H195 0.940 . S
C210 C209 1.378 . S
C210 C211 1.396 . S
C211 H196 0.940 . S
C211 C206 1.391 . S
C211 C210 1.396 . S
C212 P192 1.803 . S
C212 C213 1.378 . S
C212 C217 1.400 . S
C213 H197 0.939 . S
C213 C212 1.378 . S
C213 C214 1.361 . S
C214 H198 0.942 . S
C214 C213 1.361 . S
C214 C215 1.369 . S
C215 C214 1.369 . S
C215 C216 1.404 . S
C216 H199 0.940 . S
C216 C215 1.404 . S
C216 C217 1.389 . S
C217 H200 0.939 . S
C217 C212 1.400 . S
C217 C216 1.389 . S
C218 P192 1.819 . S
C218 C219 1.391 . S
C218 C223 1.391 . S
C219 H201 0.941 . S
C219 C218 1.391 . S
C219 C220 1.396 . S
C220 H204 0.939 . S
C220 C219 1.396 . S
C220 C221 1.397 . S
C221 C220 1.397 . S
C221 C222 1.385 . S
C222 H205 0.940 . S
C222 C221 1.385 . S
C222 C223 1.388 . S
C223 H202 0.939 . S
C223 C218 1.391 . S
C223 C222 1.388 . S
P224 O235 1.490 . S
P224 C238 1.812 . S
P224 C244 1.803 . S
P224 C250 1.819 . S
H225 C239 0.941 . S
H226 C240 0.939 . S
H227 C242 0.940 . S
H228 C243 0.940 . S
H229 C245 0.939 . S
H230 C246 0.942 1_655 S
H231 C248 0.940 . S
H232 C249 0.939 . S
H233 C251 0.941 . S
H234 C255 0.939 . S
O235 P224 1.490 . S
H236 C252 0.939 . S
H237 C254 0.940 . S
C238 P224 1.812 . S
C238 C239 1.389 . S
C238 C243 1.391 . S
C239 H225 0.941 . S
C239 C238 1.389 . S
C239 C240 1.397 . S
C240 H226 0.939 . S
C240 C239 1.397 . S
C240 C241 1.378 . S
C241 C240 1.378 . S
C241 C242 1.378 . S
C242 H227 0.940 . S
C242 C241 1.378 . S
C242 C243 1.396 . S
C243 H228 0.940 . S
C243 C238 1.391 . S
C243 C242 1.396 . S
C244 P224 1.803 . S
C244 C245 1.378 . S
C244 C249 1.400 . S
C245 H229 0.939 . S
C245 C244 1.378 . S
C245 C246 1.361 . S
C246 H230 0.942 1_455 S
C246 C245 1.361 . S
C246 C247 1.369 . S
C247 C246 1.369 . S
C247 C248 1.404 . S
C248 H231 0.940 . S
C248 C247 1.404 . S
C248 C249 1.389 . S
C249 H232 0.939 . S
C249 C244 1.400 . S
C249 C248 1.389 . S
C250 P224 1.819 . S
C250 C251 1.391 . S
C250 C255 1.391 . S
C251 H233 0.941 . S
C251 C250 1.391 . S
C251 C252 1.396 . S
C252 H236 0.939 . S
C252 C251 1.396 . S
C252 C253 1.397 . S
C253 C252 1.397 . S
C253 C254 1.385 . S
C254 H237 0.940 . S
C254 C253 1.385 . S
C254 C255 1.388 . S
C255 H234 0.939 . S
C255 C250 1.391 . S
C255 C254 1.388 . S
Zn256 O262 1.920 . S
Zn256 O268 1.898 . S
Zn256 O271 1.905 . S
Zn257 O265 1.905 . S
Zn257 O266 1.898 . S
Zn257 O274 1.920 . S
Zn258 O261 2.080 . S
Zn258 O264 2.114 . S
Zn258 O267 2.120 . S
Zn258 O269 2.120 . S
Zn258 O270 2.114 . S
Zn258 O273 2.080 . S
C259 O264 1.166 . S
C259 O265 1.182 . S
C260 O266 1.167 . S
C260 O267 1.299 . S
O261 Zn258 2.080 . S
O261 C275 1.305 . S
O262 Zn256 1.920 . S
O262 C275 1.234 . S
C263 O268 1.167 . S
C263 O269 1.299 . S
O264 Zn258 2.114 . S
O264 C259 1.166 . S
O265 Zn257 1.905 . S
O265 C259 1.182 . S
O266 Zn257 1.898 . S
O266 C260 1.167 . S
O267 Zn258 2.120 . S
O267 C260 1.299 . S
O268 Zn256 1.898 . S
O268 C263 1.167 . S
O269 Zn258 2.120 . S
O269 C263 1.299 . S
O270 Zn258 2.114 . S
O270 C272 1.166 . S
O271 Zn256 1.905 . S
O271 C272 1.182 . S
C272 O270 1.166 . S
C272 O271 1.182 . S
O273 Zn258 2.080 . S
O273 C276 1.305 . S
O274 Zn257 1.920 . S
O274 C276 1.234 . S
C275 O261 1.305 . S
C275 O262 1.234 . S
C276 O273 1.305 . S
C276 O274 1.234 . S
Zn277 O283 1.920 . S
Zn277 O289 1.898 . S
Zn277 O292 1.905 . S
Zn278 O286 1.905 . S
Zn278 O287 1.898 . S
Zn278 O295 1.920 . S
Zn279 O282 2.080 . S
Zn279 O285 2.114 . S
Zn279 O288 2.120 . S
Zn279 O290 2.120 . S
Zn279 O291 2.114 . S
Zn279 O294 2.080 . S
C280 O285 1.166 . S
C280 O286 1.182 . S
C281 O287 1.167 . S
C281 O288 1.299 . S
O282 Zn279 2.080 . S
O282 C296 1.305 . S
O283 Zn277 1.920 . S
O283 C296 1.234 . S
C284 O289 1.167 . S
C284 O290 1.299 . S
O285 Zn279 2.114 . S
O285 C280 1.166 . S
O286 Zn278 1.905 . S
O286 C280 1.182 . S
O287 Zn278 1.898 . S
O287 C281 1.167 . S
O288 Zn279 2.120 . S
O288 C281 1.299 . S
O289 Zn277 1.898 . S
O289 C284 1.167 . S
O290 Zn279 2.120 . S
O290 C284 1.299 . S
O291 Zn279 2.114 . S
O291 C293 1.166 . S
O292 Zn277 1.905 . S
O292 C293 1.182 . S
C293 O291 1.166 . S
C293 O292 1.182 . S
O294 Zn279 2.080 . S
O294 C297 1.305 . S
O295 Zn278 1.920 . S
O295 C297 1.234 . S
C296 O282 1.305 . S
C296 O283 1.234 . S
C297 O294 1.305 . S
C297 O295 1.234 . S
Zn298 O304 1.920 . S
Zn298 O310 1.898 . S
Zn298 O313 1.905 . S
Zn299 O307 1.905 . S
Zn299 O308 1.898 . S
Zn299 O316 1.920 . S
Zn300 O303 2.080 . S
Zn300 O306 2.114 . S
Zn300 O309 2.120 . S
Zn300 O311 2.120 . S
Zn300 O312 2.114 . S
Zn300 O315 2.080 . S
C301 O306 1.166 . S
C301 O307 1.182 . S
C302 O308 1.167 . S
C302 O309 1.299 . S
O303 Zn300 2.080 . S
O303 C317 1.305 . S
O304 Zn298 1.920 . S
O304 C317 1.234 . S
C305 O310 1.167 . S
C305 O311 1.299 . S
O306 Zn300 2.114 . S
O306 C301 1.166 . S
O307 Zn299 1.905 . S
O307 C301 1.182 . S
O308 Zn299 1.898 . S
O308 C302 1.167 . S
O309 Zn300 2.120 . S
O309 C302 1.299 . S
O310 Zn298 1.898 . S
O310 C305 1.167 . S
O311 Zn300 2.120 . S
O311 C305 1.299 . S
O312 Zn300 2.114 . S
O312 C314 1.166 . S
O313 Zn298 1.905 . S
O313 C314 1.182 . S
C314 O312 1.166 . S
C314 O313 1.182 . S
O315 Zn300 2.080 . S
O315 C318 1.305 . S
O316 Zn299 1.920 . S
O316 C318 1.234 . S
C317 O303 1.305 . S
C317 O304 1.234 . S
C318 O315 1.305 . S
C318 O316 1.234 . S
Zn319 O325 1.920 . S
Zn319 O331 1.898 . S
Zn319 O334 1.905 . S
Zn320 O328 1.905 . S
Zn320 O329 1.898 . S
Zn320 O337 1.920 . S
Zn321 O324 2.080 . S
Zn321 O327 2.114 . S
Zn321 O330 2.120 . S
Zn321 O332 2.120 . S
Zn321 O333 2.114 . S
Zn321 O336 2.080 . S
C322 O327 1.166 . S
C322 O328 1.182 . S
C323 O329 1.167 . S
C323 O330 1.299 . S
O324 Zn321 2.080 . S
O324 C338 1.305 . S
O325 Zn319 1.920 . S
O325 C338 1.234 . S
C326 O331 1.167 . S
C326 O332 1.299 . S
O327 Zn321 2.114 . S
O327 C322 1.166 . S
O328 Zn320 1.905 . S
O328 C322 1.182 . S
O329 Zn320 1.898 . S
O329 C323 1.167 . S
O330 Zn321 2.120 . S
O330 C323 1.299 . S
O331 Zn319 1.898 . S
O331 C326 1.167 . S
O332 Zn321 2.120 . S
O332 C326 1.299 . S
O333 Zn321 2.114 . S
O333 C335 1.166 . S
O334 Zn319 1.905 . S
O334 C335 1.182 . S
C335 O333 1.166 . S
C335 O334 1.182 . S
O336 Zn321 2.080 . S
O336 C339 1.305 . S
O337 Zn320 1.920 . S
O337 C339 1.234 . S
C338 O324 1.305 . S
C338 O325 1.234 . S
C339 O336 1.305 . S
C339 O337 1.234 . S
H340 C346 0.930 . S
H341 C349 0.930 . S
H342 C350 0.930 . S
H343 C351 0.930 . S
H344 C354 0.930 . S
H345 C355 0.930 . S
C346 H340 0.930 . S
C346 C347 1.355 . S
C346 C348 1.415 . S
C347 C346 1.355 . S
C347 C349 1.419 . S
C348 C346 1.415 . S
C348 C353 1.425 . S
C348 C355 1.409 . S
C349 H341 0.930 . S
C349 C347 1.419 . S
C349 C350 1.362 . S
C350 H342 0.930 . S
C350 C349 1.362 . S
C350 C353 1.409 . S
C351 H343 0.930 . S
C351 C352 1.355 . S
C351 C353 1.415 . S
C352 C351 1.355 . S
C352 C354 1.419 . S
C353 C348 1.425 . S
C353 C350 1.409 . S
C353 C351 1.415 . S
C354 H344 0.930 . S
C354 C352 1.419 . S
C354 C355 1.362 . S
C355 H345 0.930 . S
C355 C348 1.409 . S
C355 C354 1.362 . S
H356 C362 0.930 . S
H357 C365 0.930 . S
H358 C366 0.930 . S
H359 C367 0.930 . S
H360 C370 0.930 . S
H361 C371 0.930 . S
C362 H356 0.930 . S
C362 C363 1.355 . S
C362 C364 1.415 . S
C363 C362 1.355 . S
C363 C365 1.419 . S
C364 C362 1.415 . S
C364 C369 1.425 . S
C364 C371 1.409 . S
C365 H357 0.930 . S
C365 C363 1.419 . S
C365 C366 1.362 . S
C366 H358 0.930 . S
C366 C365 1.362 . S
C366 C369 1.409 . S
C367 H359 0.930 . S
C367 C368 1.355 . S
C367 C369 1.415 . S
C368 C367 1.355 . S
C368 C370 1.419 . S
C369 C364 1.425 . S
C369 C366 1.409 . S
C369 C367 1.415 . S
C370 H360 0.930 . S
C370 C368 1.419 . S
C370 C371 1.362 . S
C371 H361 0.930 . S
C371 C364 1.409 . S
C371 C370 1.362 . S
H372 C378 0.930 . S
H373 C381 0.930 . S
H374 C382 0.930 . S
H375 C383 0.930 . S
H376 C386 0.930 . S
H377 C387 0.930 . S
C378 H372 0.930 . S
C378 C379 1.355 . S
C378 C380 1.415 . S
C379 C378 1.355 . S
C379 C381 1.419 . S
C380 C378 1.415 . S
C380 C385 1.425 . S
C380 C387 1.409 . S
C381 H373 0.930 . S
C381 C379 1.419 . S
C381 C382 1.362 . S
C382 H374 0.930 . S
C382 C381 1.362 . S
C382 C385 1.409 . S
C383 H375 0.930 . S
C383 C384 1.355 . S
C383 C385 1.415 . S
C384 C383 1.355 . S
C384 C386 1.419 . S
C385 C380 1.425 . S
C385 C382 1.409 . S
C385 C383 1.415 . S
C386 H376 0.930 . S
C386 C384 1.419 . S
C386 C387 1.362 . S
C387 H377 0.930 . S
C387 C380 1.409 . S
C387 C386 1.362 . S
H388 C394 0.930 . S
H389 C397 0.930 . S
H390 C398 0.930 . S
H391 C399 0.930 . S
H392 C402 0.930 . S
H393 C403 0.930 . S
C394 H388 0.930 . S
C394 C395 1.355 . S
C394 C396 1.415 . S
C395 C394 1.355 . S
C395 C397 1.419 . S
C396 C394 1.415 . S
C396 C401 1.425 . S
C396 C403 1.409 . S
C397 H389 0.930 . S
C397 C395 1.419 . S
C397 C398 1.362 . S
C398 H390 0.930 . S
C398 C397 1.362 . S
C398 C401 1.409 . S
C399 H391 0.930 . S
C399 C400 1.355 . S
C399 C401 1.415 . S
C400 C399 1.355 . S
C400 C402 1.419 . S
C401 C396 1.425 . S
C401 C398 1.409 . S
C401 C399 1.415 . S
C402 H392 0.930 . S
C402 C400 1.419 . S
C402 C403 1.362 . S
C403 H393 0.930 . S
C403 C396 1.409 . S
C403 C402 1.362 . S
H404 C410 0.930 . S
H405 C413 0.930 . S
H406 C414 0.930 . S
H407 C415 0.930 . S
H408 C418 0.930 . S
H409 C419 0.930 . S
C410 H404 0.930 . S
C410 C411 1.355 . S
C410 C412 1.415 . S
C411 C410 1.355 . S
C411 C413 1.419 . S
C412 C410 1.415 . S
C412 C417 1.425 . S
C412 C419 1.409 . S
C413 H405 0.930 . S
C413 C411 1.419 . S
C413 C414 1.362 . S
C414 H406 0.930 . S
C414 C413 1.362 . S
C414 C417 1.409 . S
C415 H407 0.930 . S
C415 C416 1.355 . S
C415 C417 1.415 . S
C416 C415 1.355 . S
C416 C418 1.419 . S
C417 C412 1.425 . S
C417 C414 1.409 . S
C417 C415 1.415 . S
C418 H408 0.930 . S
C418 C416 1.419 . S
C418 C419 1.362 . S
C419 H409 0.930 . S
C419 C412 1.409 . S
C419 C418 1.362 . S
H420 C426 0.930 . S
H421 C429 0.930 . S
H422 C430 0.930 . S
H423 C431 0.930 . S
H424 C434 0.930 1_455 S
H425 C435 0.930 . S
C426 H420 0.930 . S
C426 C427 1.355 . S
C426 C428 1.415 . S
C427 C426 1.355 . S
C427 C429 1.419 . S
C428 C426 1.415 . S
C428 C433 1.425 . S
C428 C435 1.409 . S
C429 H421 0.930 . S
C429 C427 1.419 . S
C429 C430 1.362 . S
C430 H422 0.930 . S
C430 C429 1.362 . S
C430 C433 1.409 . S
C431 H423 0.930 . S
C431 C432 1.355 . S
C431 C433 1.415 . S
C432 C431 1.355 . S
C432 C434 1.419 . S
C433 C428 1.425 . S
C433 C430 1.409 . S
C433 C431 1.415 . S
C434 H424 0.930 1_655 S
C434 C432 1.419 . S
C434 C435 1.362 . S
C435 H425 0.930 . S
C435 C428 1.409 . S
C435 C434 1.362 . S
H436 C442 0.930 . S
H437 C445 0.930 . S
H438 C446 0.930 . S
H439 C447 0.930 . S
H440 C450 0.930 . S
H441 C451 0.930 . S
C442 H436 0.930 . S
C442 C443 1.355 . S
C442 C444 1.415 . S
C443 C442 1.355 . S
C443 C445 1.419 . S
C444 C442 1.415 . S
C444 C449 1.425 . S
C444 C451 1.409 . S
C445 H437 0.930 . S
C445 C443 1.419 . S
C445 C446 1.362 . S
C446 H438 0.930 . S
C446 C445 1.362 . S
C446 C449 1.409 . S
C447 H439 0.930 . S
C447 C448 1.355 . S
C447 C449 1.415 . S
C448 C447 1.355 . S
C448 C450 1.419 . S
C449 C444 1.425 . S
C449 C446 1.409 . S
C449 C447 1.415 . S
C450 H440 0.930 . S
C450 C448 1.419 . S
C450 C451 1.362 . S
C451 H441 0.930 . S
C451 C444 1.409 . S
C451 C450 1.362 . S
H452 C458 0.930 . S
H453 C461 0.930 . S
H454 C462 0.930 . S
H455 C463 0.930 . S
H456 C466 0.930 . S
H457 C467 0.930 . S
C458 H452 0.930 . S
C458 C459 1.355 . S
C458 C460 1.415 . S
C459 C458 1.355 . S
C459 C461 1.419 . S
C460 C458 1.415 . S
C460 C465 1.425 . S
C460 C467 1.409 . S
C461 H453 0.930 . S
C461 C459 1.419 . S
C461 C462 1.362 . S
C462 H454 0.930 . S
C462 C461 1.362 . S
C462 C465 1.409 . S
C463 H455 0.930 . S
C463 C464 1.355 . S
C463 C465 1.415 . S
C464 C463 1.355 . S
C464 C466 1.419 . S
C465 C460 1.425 . S
C465 C462 1.409 . S
C465 C463 1.415 . S
C466 H456 0.930 . S
C466 C464 1.419 . S
C466 C467 1.362 . S
C467 H457 0.930 . S
C467 C460 1.409 . S
C467 C466 1.362 . S
H468 C474 0.930 . S
H469 C477 0.930 . S
H470 C478 0.930 . S
H471 C479 0.930 . S
H472 C482 0.930 . S
H473 C483 0.930 . S
C474 H468 0.930 . S
C474 C475 1.355 . S
C474 C476 1.415 . S
C475 C474 1.355 . S
C475 C477 1.419 . S
C476 C474 1.415 . S
C476 C481 1.425 . S
C476 C483 1.409 . S
C477 H469 0.930 . S
C477 C475 1.419 . S
C477 C478 1.362 . S
C478 H470 0.930 . S
C478 C477 1.362 . S
C478 C481 1.409 . S
C479 H471 0.930 . S
C479 C480 1.355 . S
C479 C481 1.415 . S
C480 C479 1.355 . S
C480 C482 1.419 . S
C481 C476 1.425 . S
C481 C478 1.409 . S
C481 C479 1.415 . S
C482 H472 0.930 . S
C482 C480 1.419 . S
C482 C483 1.362 . S
C483 H473 0.930 . S
C483 C476 1.409 . S
C483 C482 1.362 . S
H484 C490 0.930 . S
H485 C493 0.930 . S
H486 C494 0.930 . S
H487 C495 0.930 . S
H488 C498 0.930 . S
H489 C499 0.930 . S
C490 H484 0.930 . S
C490 C491 1.355 . S
C490 C492 1.415 . S
C491 C490 1.355 . S
C491 C493 1.419 . S
C492 C490 1.415 . S
C492 C497 1.425 . S
C492 C499 1.409 . S
C493 H485 0.930 . S
C493 C491 1.419 . S
C493 C494 1.362 . S
C494 H486 0.930 . S
C494 C493 1.362 . S
C494 C497 1.409 . S
C495 H487 0.930 . S
C495 C496 1.355 . S
C495 C497 1.415 . S
C496 C495 1.355 . S
C496 C498 1.419 . S
C497 C492 1.425 . S
C497 C494 1.409 . S
C497 C495 1.415 . S
C498 H488 0.930 . S
C498 C496 1.419 . S
C498 C499 1.362 . S
C499 H489 0.930 . S
C499 C492 1.409 . S
C499 C498 1.362 . S
H500 C506 0.930 . S
H501 C509 0.930 . S
H502 C510 0.930 . S
H503 C511 0.930 . S
H504 C514 0.930 . S
H505 C515 0.930 . S
C506 H500 0.930 . S
C506 C507 1.355 . S
C506 C508 1.415 . S
C507 C506 1.355 . S
C507 C509 1.419 . S
C508 C506 1.415 . S
C508 C513 1.425 . S
C508 C515 1.409 . S
C509 H501 0.930 . S
C509 C507 1.419 . S
C509 C510 1.362 . S
C510 H502 0.930 . S
C510 C509 1.362 . S
C510 C513 1.409 . S
C511 H503 0.930 . S
C511 C512 1.355 . S
C511 C513 1.415 . S
C512 C511 1.355 . S
C512 C514 1.419 . S
C513 C508 1.425 . S
C513 C510 1.409 . S
C513 C511 1.415 . S
C514 H504 0.930 . S
C514 C512 1.419 . S
C514 C515 1.362 . S
C515 H505 0.930 . S
C515 C508 1.409 . S
C515 C514 1.362 . S
H516 C522 0.930 . S
H517 C525 0.930 . S
H518 C526 0.930 . S
H519 C527 0.930 . S
H520 C530 0.930 . S
H521 C531 0.930 . S
C522 H516 0.930 . S
C522 C523 1.355 . S
C522 C524 1.415 . S
C523 C522 1.355 . S
C523 C525 1.419 . S
C524 C522 1.415 . S
C524 C529 1.425 . S
C524 C531 1.409 . S
C525 H517 0.930 . S
C525 C523 1.419 . S
C525 C526 1.362 . S
C526 H518 0.930 . S
C526 C525 1.362 . S
C526 C529 1.409 . S
C527 H519 0.930 . S
C527 C528 1.355 . S
C527 C529 1.415 . S
C528 C527 1.355 . S
C528 C530 1.419 . S
C529 C524 1.425 . S
C529 C526 1.409 . S
C529 C527 1.415 . S
C530 H520 0.930 . S
C530 C528 1.419 . S
C530 C531 1.362 . S
C531 H521 0.930 . S
C531 C524 1.409 . S
C531 C530 1.362 . S
H532 C538 0.930 . S
H533 C541 0.930 . S
H534 C542 0.930 1_545 S
H535 C543 0.930 . S
H536 C546 0.930 . S
H537 C547 0.930 1_565 S
C538 H532 0.930 . S
C538 C539 1.355 . S
C538 C540 1.415 . S
C539 C538 1.355 . S
C539 C541 1.419 . S
C540 C538 1.415 . S
C540 C545 1.425 1_565 S
C540 C547 1.409 1_565 S
C541 H533 0.930 . S
C541 C539 1.419 . S
C541 C542 1.362 . S
C542 H534 0.930 1_565 S
C542 C541 1.362 . S
C542 C545 1.409 1_565 S
C543 H535 0.930 . S
C543 C544 1.355 . S
C543 C545 1.415 . S
C544 C543 1.355 . S
C544 C546 1.419 . S
C545 C540 1.425 1_545 S
C545 C542 1.409 1_545 S
C545 C543 1.415 . S
C546 H536 0.930 . S
C546 C544 1.419 . S
C546 C547 1.362 . S
C547 H537 0.930 1_545 S
C547 C540 1.409 1_545 S
C547 C546 1.362 . S
H548 C554 0.930 . S
H549 C557 0.930 . S
H550 C558 0.930 . S
H551 C559 0.930 . S
H552 C562 0.930 . S
H553 C563 0.930 . S
C554 H548 0.930 . S
C554 C555 1.355 . S
C554 C556 1.415 1_545 S
C555 C554 1.355 . S
C555 C557 1.419 . S
C556 C554 1.415 1_565 S
C556 C561 1.425 . S
C556 C563 1.409 . S
C557 H549 0.930 . S
C557 C555 1.419 . S
C557 C558 1.362 . S
C558 H550 0.930 . S
C558 C557 1.362 . S
C558 C561 1.409 1_545 S
C559 H551 0.930 . S
C559 C560 1.355 . S
C559 C561 1.415 . S
C560 C559 1.355 . S
C560 C562 1.419 . S
C561 C556 1.425 . S
C561 C558 1.409 1_565 S
C561 C559 1.415 . S
C562 H552 0.930 . S
C562 C560 1.419 . S
C562 C563 1.362 . S
C563 H553 0.930 . S
C563 C556 1.409 . S
C563 C562 1.362 . S
H564 C570 0.930 . S
H565 C573 0.930 . S
H566 C574 0.930 . S
H567 C575 0.930 . S
H568 C578 0.930 . S
H569 C579 0.930 . S
C570 H564 0.930 . S
C570 C571 1.355 . S
C570 C572 1.415 1_545 S
C571 C570 1.355 . S
C571 C573 1.419 . S
C572 C570 1.415 1_565 S
C572 C577 1.425 . S
C572 C579 1.409 . S
C573 H565 0.930 . S
C573 C571 1.419 . S
C573 C574 1.362 1_545 S
C574 H566 0.930 . S
C574 C573 1.362 1_565 S
C574 C577 1.409 . S
C575 H567 0.930 . S
C575 C576 1.355 . S
C575 C577 1.415 . S
C576 C575 1.355 . S
C576 C578 1.419 . S
C577 C572 1.425 . S
C577 C574 1.409 . S
C577 C575 1.415 . S
C578 H568 0.930 . S
C578 C576 1.419 . S
C578 C579 1.362 . S
C579 H569 0.930 . S
C579 C572 1.409 . S
C579 C578 1.362 . S
H580 C586 0.930 . S
H581 C589 0.930 . S
H582 C590 0.930 . S
H583 C591 0.930 . S
H584 C594 0.930 . S
H585 C595 0.930 . S
C586 H580 0.930 . S
C586 C587 1.355 . S
C586 C588 1.415 1_565 S
C587 C586 1.355 . S
C587 C589 1.419 . S
C588 C586 1.415 1_545 S
C588 C593 1.425 . S
C588 C595 1.409 . S
C589 H581 0.930 . S
C589 C587 1.419 . S
C589 C590 1.362 . S
C590 H582 0.930 . S
C590 C589 1.362 . S
C590 C593 1.409 1_565 S
C591 H583 0.930 . S
C591 C592 1.355 . S
C591 C593 1.415 . S
C592 C591 1.355 . S
C592 C594 1.419 . S
C593 C588 1.425 . S
C593 C590 1.409 1_545 S
C593 C591 1.415 . S
C594 H584 0.930 . S
C594 C592 1.419 . S
C594 C595 1.362 . S
C595 H585 0.930 . S
C595 C588 1.409 . S
C595 C594 1.362 . S
H596 C602 0.930 . S
H597 C605 0.930 1_554 S
H598 C606 0.930 . S
H599 C607 0.930 . S
H600 C610 0.930 . S
H601 C611 0.930 . S
C602 H596 0.930 . S
C602 C603 1.355 . S
C602 C604 1.415 . S
C603 C602 1.355 . S
C603 C605 1.419 . S
C604 C602 1.415 . S
C604 C609 1.425 . S
C604 C611 1.409 . S
C605 H597 0.930 1_556 S
C605 C603 1.419 . S
C605 C606 1.362 . S
C606 H598 0.930 . S
C606 C605 1.362 . S
C606 C609 1.409 . S
C607 H599 0.930 . S
C607 C608 1.355 . S
C607 C609 1.415 . S
C608 C607 1.355 . S
C608 C610 1.419 . S
C609 C604 1.425 . S
C609 C606 1.409 . S
C609 C607 1.415 . S
C610 H600 0.930 . S
C610 C608 1.419 . S
C610 C611 1.362 . S
C611 H601 0.930 . S
C611 C604 1.409 . S
C611 C610 1.362 . S
H612 C618 0.930 . S
H613 C621 0.930 . S
H614 C622 0.930 . S
H615 C623 0.930 . S
H616 C626 0.930 . S
H617 C627 0.930 . S
C618 H612 0.930 . S
C618 C619 1.355 . S
C618 C620 1.415 . S
C619 C618 1.355 . S
C619 C621 1.419 . S
C620 C618 1.415 . S
C620 C625 1.425 . S
C620 C627 1.409 . S
C621 H613 0.930 . S
C621 C619 1.419 . S
C621 C622 1.362 . S
C622 H614 0.930 . S
C622 C621 1.362 . S
C622 C625 1.409 . S
C623 H615 0.930 . S
C623 C624 1.355 . S
C623 C625 1.415 . S
C624 C623 1.355 . S
C624 C626 1.419 . S
C625 C620 1.425 . S
C625 C622 1.409 . S
C625 C623 1.415 . S
C626 H616 0.930 . S
C626 C624 1.419 . S
C626 C627 1.362 . S
C627 H617 0.930 . S
C627 C620 1.409 . S
C627 C626 1.362 . S
H628 C634 0.930 . S
H629 C637 0.930 . S
H630 C638 0.930 . S
H631 C639 0.930 . S
H632 C642 0.930 . S
H633 C643 0.930 . S
C634 H628 0.930 . S
C634 C635 1.355 . S
C634 C636 1.415 . S
C635 C634 1.355 . S
C635 C637 1.419 . S
C636 C634 1.415 . S
C636 C641 1.425 . S
C636 C643 1.409 . S
C637 H629 0.930 . S
C637 C635 1.419 . S
C637 C638 1.362 . S
C638 H630 0.930 . S
C638 C637 1.362 . S
C638 C641 1.409 . S
C639 H631 0.930 . S
C639 C640 1.355 . S
C639 C641 1.415 . S
C640 C639 1.355 . S
C640 C642 1.419 . S
C641 C636 1.425 . S
C641 C638 1.409 . S
C641 C639 1.415 . S
C642 H632 0.930 . S
C642 C640 1.419 . S
C642 C643 1.362 . S
C643 H633 0.930 . S
C643 C636 1.409 . S
C643 C642 1.362 . S
H644 C650 0.930 . S
H645 C653 0.930 . S
H646 C654 0.930 . S
H647 C655 0.930 . S
H648 C658 0.930 . S
H649 C659 0.930 . S
C650 H644 0.930 . S
C650 C651 1.355 . S
C650 C652 1.415 . S
C651 C650 1.355 . S
C651 C653 1.419 . S
C652 C650 1.415 . S
C652 C657 1.425 . S
C652 C659 1.409 . S
C653 H645 0.930 . S
C653 C651 1.419 . S
C653 C654 1.362 . S
C654 H646 0.930 . S
C654 C653 1.362 . S
C654 C657 1.409 . S
C655 H647 0.930 . S
C655 C656 1.355 . S
C655 C657 1.415 . S
C656 C655 1.355 . S
C656 C658 1.419 . S
C657 C652 1.425 . S
C657 C654 1.409 . S
C657 C655 1.415 . S
C658 H648 0.930 . S
C658 C656 1.419 . S
C658 C659 1.362 . S
C659 H649 0.930 . S
C659 C652 1.409 . S
C659 C658 1.362 . S
H660 C666 0.930 1_655 S
H661 C669 0.930 1_556 S
H662 C670 0.930 . S
H663 C671 0.930 . S
H664 C674 0.930 . S
H665 C675 0.930 1_655 S
C666 H660 0.930 1_455 S
C666 C667 1.355 . S
C666 C668 1.415 . S
C667 C666 1.355 . S
C667 C669 1.419 . S
C668 C666 1.415 . S
C668 C673 1.425 . S
C668 C675 1.409 . S
C669 H661 0.930 1_554 S
C669 C667 1.419 . S
C669 C670 1.362 . S
C670 H662 0.930 . S
C670 C669 1.362 . S
C670 C673 1.409 . S
C671 H663 0.930 . S
C671 C672 1.355 . S
C671 C673 1.415 . S
C672 C671 1.355 . S
C672 C674 1.419 . S
C673 C668 1.425 . S
C673 C670 1.409 . S
C673 C671 1.415 . S
C674 H664 0.930 . S
C674 C672 1.419 . S
C674 C675 1.362 . S
C675 H665 0.930 1_455 S
C675 C668 1.409 . S
C675 C674 1.362 . S
H676 C682 0.930 . S
H677 C685 0.930 . S
H678 C686 0.930 . S
H679 C687 0.930 . S
H680 C690 0.930 . S
H681 C691 0.930 . S
C682 H676 0.930 . S
C682 C683 1.355 . S
C682 C684 1.415 . S
C683 C682 1.355 . S
C683 C685 1.419 . S
C684 C682 1.415 . S
C684 C689 1.425 . S
C684 C691 1.409 . S
C685 H677 0.930 . S
C685 C683 1.419 . S
C685 C686 1.362 . S
C686 H678 0.930 . S
C686 C685 1.362 . S
C686 C689 1.409 . S
C687 H679 0.930 . S
C687 C688 1.355 . S
C687 C689 1.415 . S
C688 C687 1.355 . S
C688 C690 1.419 . S
C689 C684 1.425 . S
C689 C686 1.409 . S
C689 C687 1.415 . S
C690 H680 0.930 . S
C690 C688 1.419 . S
C690 C691 1.362 . S
C691 H681 0.930 . S
C691 C684 1.409 . S
C691 C690 1.362 . S
H692 C698 0.930 . S
H693 C701 0.930 . S
H694 C702 0.930 . S
H695 C703 0.930 . S
H696 C706 0.930 . S
H697 C707 0.930 . S
C698 H692 0.930 . S
C698 C699 1.355 . S
C698 C700 1.415 . S
C699 C698 1.355 . S
C699 C701 1.419 . S
C700 C698 1.415 . S
C700 C705 1.425 . S
C700 C707 1.409 . S
C701 H693 0.930 . S
C701 C699 1.419 . S
C701 C702 1.362 . S
C702 H694 0.930 . S
C702 C701 1.362 . S
C702 C705 1.409 . S
C703 H695 0.930 . S
C703 C704 1.355 . S
C703 C705 1.415 . S
C704 C703 1.355 . S
C704 C706 1.419 . S
C705 C700 1.425 . S
C705 C702 1.409 . S
C705 C703 1.415 . S
C706 H696 0.930 . S
C706 C704 1.419 . S
C706 C707 1.362 . S
C707 H697 0.930 . S
C707 C700 1.409 . S
C707 C706 1.362 . S
H708 C714 0.930 . S
H709 C717 0.930 . S
H710 C718 0.930 . S
H711 C719 0.930 . S
H712 C722 0.930 . S
H713 C723 0.930 . S
C714 H708 0.930 . S
C714 C715 1.355 . S
C714 C716 1.415 . S
C715 C714 1.355 . S
C715 C717 1.419 . S
C716 C714 1.415 . S
C716 C721 1.425 . S
C716 C723 1.409 . S
C717 H709 0.930 . S
C717 C715 1.419 . S
C717 C718 1.362 . S
C718 H710 0.930 . S
C718 C717 1.362 . S
C718 C721 1.409 . S
C719 H711 0.930 . S
C719 C720 1.355 . S
C719 C721 1.415 . S
C720 C719 1.355 . S
C720 C722 1.419 . S
C721 C716 1.425 . S
C721 C718 1.409 . S
C721 C719 1.415 . S
C722 H712 0.930 . S
C722 C720 1.419 . S
C722 C723 1.362 . S
C723 H713 0.930 . S
C723 C716 1.409 . S
C723 C722 1.362 . S
C352 C263 1.411 . S
C347 C17 1.627 . S
C368 C281 1.246 . S
C363 C55 1.330 . S
C379 C87 1.437 . S
C384 C305 1.279 . S
C400 C335 1.281 1_655 S
C395 C113 1.479 . S
C416 C323 1.324 . S
C411 C145 1.347 . S
C427 C177 1.431 . S
C432 C276 1.404 1_655 S
C443 C215 1.511 . S
C448 C296 1.422 . S
C459 C247 1.407 1_655 S
C464 C301 1.338 . S
C475 C241 1.398 . S
C480 C317 1.349 . S
C491 C183 1.403 . S
C496 C272 1.311 . S
C512 C339 1.322 . S
C507 C119 1.361 . S
C528 C284 1.279 . S
C523 C49 1.468 . S
C539 C81 1.612 . S
C544 C302 1.416 . S
C555 C23 1.453 . S
C560 C260 1.343 . S
C576 C280 1.297 . S
C571 C209 1.387 . S
C592 C326 1.531 . S
C587 C151 1.593 . S
C608 C322 1.317 . S
C603 C29 1.516 1_556 S
C624 C275 1.415 . S
C619 C61 1.381 . S
C635 C93 1.497 . S
C640 C297 1.345 . S
C651 C125 1.382 . S
C656 C318 1.394 . S
C672 C259 1.307 . S
C667 C157 1.391 1_554 S
C683 C189 1.479 . S
C688 C293 1.449 . S
C704 C314 1.394 . S
C699 C221 1.482 . S
C720 C338 1.433 . S
C715 C253 1.461 . S
