# Generated by pormake.
# Topology pyr, (3,6)-cn, num edge types: 1
# Building blocks:
#     Node 0, Type 0, BuildingBlock: VETTIZ_charged_linker_0, # of connection points: 3
#     Node 1, Type 0, BuildingBlock: VETTIZ_charged_linker_0, # of connection points: 3
#     Node 2, Type 0, BuildingBlock: VETTIZ_charged_linker_0, # of connection points: 3
#     Node 3, Type 0, BuildingBlock: VETTIZ_charged_linker_0, # of connection points: 3
#     Node 4, Type 0, BuildingBlock: VETTIZ_charged_linker_0, # of connection points: 3
#     Node 5, Type 0, BuildingBlock: VETTIZ_charged_linker_0, # of connection points: 3
#     Node 6, Type 0, BuildingBlock: VETTIZ_charged_linker_0, # of connection points: 3
#     Node 7, Type 0, BuildingBlock: VETTIZ_charged_linker_0, # of connection points: 3
#     Node 8, Type 1, BuildingBlock: BETFEN_clean_sbu_0, # of connection points: 6
#     Node 9, Type 1, BuildingBlock: BETFEN_clean_sbu_0, # of connection points: 6
#     Node 10, Type 1, BuildingBlock: BETFEN_clean_sbu_0, # of connection points: 6
#     Node 11, Type 1, BuildingBlock: BETFEN_clean_sbu_0, # of connection points: 6
#     Edge 12, Type (0, 1), BuildingBlock: CIFDUS_clean_linker_0, # of connection points: 2
#     Edge 13, Type (0, 1), BuildingBlock: CIFDUS_clean_linker_0, # of connection points: 2
#     Edge 14, Type (0, 1), BuildingBlock: CIFDUS_clean_linker_0, # of connection points: 2
#     Edge 15, Type (0, 1), BuildingBlock: CIFDUS_clean_linker_0, # of connection points: 2
#     Edge 16, Type (0, 1), BuildingBlock: CIFDUS_clean_linker_0, # of connection points: 2
#     Edge 17, Type (0, 1), BuildingBlock: CIFDUS_clean_linker_0, # of connection points: 2
#     Edge 18, Type (0, 1), BuildingBlock: CIFDUS_clean_linker_0, # of connection points: 2
#     Edge 19, Type (0, 1), BuildingBlock: CIFDUS_clean_linker_0, # of connection points: 2
#     Edge 20, Type (0, 1), BuildingBlock: CIFDUS_clean_linker_0, # of connection points: 2
#     Edge 21, Type (0, 1), BuildingBlock: CIFDUS_clean_linker_0, # of connection points: 2
#     Edge 22, Type (0, 1), BuildingBlock: CIFDUS_clean_linker_0, # of connection points: 2
#     Edge 23, Type (0, 1), BuildingBlock: CIFDUS_clean_linker_0, # of connection points: 2
#     Edge 24, Type (0, 1), BuildingBlock: CIFDUS_clean_linker_0, # of connection points: 2
#     Edge 25, Type (0, 1), BuildingBlock: CIFDUS_clean_linker_0, # of connection points: 2
#     Edge 26, Type (0, 1), BuildingBlock: CIFDUS_clean_linker_0, # of connection points: 2
#     Edge 27, Type (0, 1), BuildingBlock: CIFDUS_clean_linker_0, # of connection points: 2
#     Edge 28, Type (0, 1), BuildingBlock: CIFDUS_clean_linker_0, # of connection points: 2
#     Edge 29, Type (0, 1), BuildingBlock: CIFDUS_clean_linker_0, # of connection points: 2
#     Edge 30, Type (0, 1), BuildingBlock: CIFDUS_clean_linker_0, # of connection points: 2
#     Edge 31, Type (0, 1), BuildingBlock: CIFDUS_clean_linker_0, # of connection points: 2
#     Edge 32, Type (0, 1), BuildingBlock: CIFDUS_clean_linker_0, # of connection points: 2
#     Edge 33, Type (0, 1), BuildingBlock: CIFDUS_clean_linker_0, # of connection points: 2
#     Edge 34, Type (0, 1), BuildingBlock: CIFDUS_clean_linker_0, # of connection points: 2
#     Edge 35, Type (0, 1), BuildingBlock: CIFDUS_clean_linker_0, # of connection points: 2
# Relax obj value: 0.148
# Max RMSD: 0.244
# Mean RMSD: 0.118
data_MOF--net-pyr--node1-BETFEN_clean_sbu_0--node2-VETTIZ_charged_linker_0--edge1-CIFDUS_clean_linker_0
_symmetry_space_group_name_H-M    P1
_symmetry_Int_Tables_number       1
_symmetry_cell_setting            triclinic
loop_
_symmetry_equiv_pos_as_xyz
'x, y, z'
_cell_length_a     40.356632
_cell_length_b     44.290451
_cell_length_c     41.255595
_cell_angle_alpha  90.731537
_cell_angle_beta   98.534351
_cell_angle_gamma 108.78457
loop_
_atom_site_label
_atom_site_type_symbol
_atom_site_fract_x
_atom_site_fract_y
_atom_site_fract_z
_atom_type_partial_charge
C0 C 0.36393 0.29085 0.39956 0.0
C1 C 0.335 0.29602 0.4112 0.0
C2 C 0.32253 0.32033 0.39799 0.0
C3 C 0.36191 0.32836 0.3576 0.0
C4 C 0.37649 0.30676 0.37244 0.0
C5 C 0.40185 0.29912 0.35297 0.0
H6 H 0.44767 0.2884 0.20504 0.0
C7 C 0.3754 0.33573 0.32622 0.0
C8 C 0.39909 0.31892 0.32343 0.0
H9 H 0.47872 0.24719 0.29406 0.0
H10 H 0.4555 0.27979 0.32558 0.0
H11 H 0.47021 0.36249 0.23987 0.0
H12 H 0.37258 0.28377 0.21678 0.0
H13 H 0.36457 0.31888 0.20407 0.0
H14 H 0.39587 0.30584 0.18614 0.0
H15 H 0.44554 0.35381 0.19902 0.0
H16 H 0.43638 0.37913 0.2288 0.0
C17 C 0.43943 0.31099 0.37375 0.0
C18 C 0.38745 0.26265 0.34346 0.0
C19 C 0.31503 0.39271 0.24341 0.0
C20 C 0.31631 0.39763 0.20997 0.0
C21 C 0.34272 0.39062 0.19549 0.0
C22 C 0.3659 0.37688 0.21355 0.0
C23 C 0.36234 0.36978 0.24626 0.0
C24 C 0.33806 0.37874 0.26096 0.0
C25 C 0.33736 0.36887 0.29562 0.0
C26 C 0.36507 0.35219 0.2993 0.0
C27 C 0.37929 0.35243 0.27018 0.0
C28 C 0.34928 0.3995 0.31881 0.0
C29 C 0.29954 0.34569 0.29767 0.0
C30 C 0.45022 0.28702 0.23144 0.0
C31 C 0.4642 0.26473 0.24706 0.0
C32 C 0.46731 0.26372 0.28146 0.0
C33 C 0.45366 0.28249 0.29964 0.0
C34 C 0.43594 0.3018 0.28313 0.0
C35 C 0.43617 0.30527 0.24993 0.0
C36 C 0.41645 0.32729 0.23673 0.0
C37 C 0.4029 0.33509 0.26718 0.0
C38 C 0.41372 0.31942 0.29407 0.0
C39 C 0.44329 0.35722 0.22522 0.0
C40 C 0.38581 0.30825 0.20935 0.0
H41 H 0.32426 0.35376 0.36152 0.0
H42 H 0.37471 0.27288 0.40962 0.0
H43 H 0.3581 0.25438 0.33625 0.0
H44 H 0.39735 0.25555 0.32218 0.0
H45 H 0.39384 0.2489 0.36442 0.0
H46 H 0.44289 0.33209 0.39046 0.0
H47 H 0.44446 0.29209 0.38921 0.0
H48 H 0.46055 0.31936 0.35844 0.0
H49 H 0.2954 0.39836 0.25538 0.0
H50 H 0.34432 0.39429 0.16979 0.0
H51 H 0.38465 0.37104 0.20093 0.0
H52 H 0.37169 0.4183 0.31062 0.0
H53 H 0.32728 0.4094 0.31905 0.0
H54 H 0.35933 0.39555 0.34425 0.0
H55 H 0.28527 0.3341 0.2732 0.0
H56 H 0.29985 0.32541 0.3129 0.0
H57 H 0.28304 0.35844 0.30727 0.0
H58 H 0.30033 0.32502 0.40629 0.0
C59 C 0.33611 0.33673 0.37153 0.0
C60 C 0.24927 0.91121 0.62408 0.0
C61 C 0.23519 0.9317 0.63962 0.0
C62 C 0.24331 0.93737 0.67399 0.0
C63 C 0.27728 0.90116 0.67725 0.0
C64 C 0.27008 0.89602 0.64343 0.0
C65 C 0.28593 0.87218 0.63156 0.0
H66 H 0.38576 0.77634 0.67049 0.0
C67 C 0.29796 0.88082 0.69045 0.0
C68 C 0.3031 0.86356 0.66391 0.0
H69 H 0.33823 0.7907 0.57335 0.0
H70 H 0.31225 0.82634 0.59706 0.0
H71 H 0.41013 0.84815 0.69887 0.0
H72 H 0.3182 0.76635 0.70255 0.0
H73 H 0.3259 0.78825 0.74023 0.0
H74 H 0.35914 0.77227 0.72966 0.0
H75 H 0.41102 0.81426 0.72196 0.0
H76 H 0.40154 0.84739 0.73941 0.0
C77 C 0.3137 0.88949 0.61003 0.0
C78 C 0.25551 0.84323 0.61357 0.0
C79 C 0.34197 0.88772 0.81307 0.0
C80 C 0.36308 0.8727 0.83232 0.0
C81 C 0.37142 0.84769 0.81774 0.0
C82 C 0.36089 0.83918 0.78411 0.0
C83 C 0.34187 0.85589 0.76477 0.0
C84 C 0.33173 0.87896 0.77945 0.0
C85 C 0.31119 0.89388 0.75502 0.0
C86 C 0.3117 0.8766 0.72314 0.0
C87 C 0.33002 0.85473 0.72904 0.0
C88 C 0.33199 0.93014 0.75595 0.0
C89 C 0.27315 0.88573 0.76334 0.0
C90 C 0.36925 0.78655 0.65413 0.0
C91 C 0.36397 0.78039 0.61995 0.0
C92 C 0.34306 0.79519 0.59978 0.0
C93 C 0.32788 0.81579 0.61359 0.0
C94 C 0.33365 0.82163 0.64792 0.0
C95 C 0.35377 0.80673 0.66744 0.0
C96 C 0.35709 0.81502 0.70335 0.0
C97 C 0.33599 0.83776 0.7024 0.0
C98 C 0.32246 0.8419 0.66994 0.0
C99 C 0.39694 0.83193 0.71692 0.0
C100 C 0.33947 0.78399 0.72007 0.0
H101 H 0.26911 0.92745 0.71888 0.0
H102 H 0.24318 0.90627 0.59769 0.0
H103 H 0.23197 0.83745 0.62629 0.0
H104 H 0.26259 0.82116 0.61324 0.0
H105 H 0.2471 0.8483 0.58791 0.0
H106 H 0.32955 0.91384 0.62111 0.0
H107 H 0.30061 0.8921 0.58506 0.0
H108 H 0.33321 0.8773 0.60774 0.0
H109 H 0.33529 0.90717 0.82347 0.0
H110 H 0.38717 0.83541 0.8322 0.0
H111 H 0.36902 0.82063 0.77435 0.0
H112 H 0.36106 0.93444 0.75925 0.0
H113 H 0.32676 0.94331 0.77665 0.0
H114 H 0.32606 0.94114 0.73291 0.0
H115 H 0.2652 0.86282 0.77557 0.0
H116 H 0.25275 0.88197 0.74121 0.0
H117 H 0.27116 0.90463 0.78017 0.0
H118 H 0.23308 0.95336 0.68637 0.0
C119 C 0.26422 0.92226 0.69283 0.0
C120 C 0.59286 0.23428 0.88937 0.0
C121 C 0.56043 0.21088 0.87666 0.0
C122 C 0.54082 0.21753 0.84763 0.0
C123 C 0.58689 0.26907 0.84476 0.0
C124 C 0.60553 0.26229 0.87315 0.0
C125 C 0.64047 0.28757 0.88394 0.0
H126 H 0.76438 0.42687 0.86537 0.0
C127 C 0.60899 0.30072 0.83424 0.0
C128 C 0.6405 0.31087 0.85751 0.0
H129 H 0.76603 0.36068 0.94133 0.0
H130 H 0.70866 0.32612 0.91657 0.0
H131 H 0.68255 0.42181 0.86331 0.0
H132 H 0.73653 0.37648 0.80735 0.0
H133 H 0.69975 0.37757 0.77941 0.0
H134 H 0.73243 0.41456 0.7976 0.0
H135 H 0.70979 0.44147 0.83413 0.0
H136 H 0.66307 0.42049 0.82216 0.0
C137 C 0.63976 0.30223 0.91814 0.0
C138 C 0.66997 0.27217 0.88308 0.0
C139 C 0.56926 0.36013 0.73536 0.0
C140 C 0.58728 0.38968 0.72262 0.0
C141 C 0.623 0.40542 0.73635 0.0
C142 C 0.63983 0.39388 0.7629 0.0
C143 C 0.62138 0.3658 0.77653 0.0
C144 C 0.58702 0.34857 0.76248 0.0
C145 C 0.57349 0.31782 0.78004 0.0
C146 C 0.60472 0.32081 0.80769 0.0
C147 C 0.63245 0.34942 0.80509 0.0
C148 C 0.53991 0.31744 0.79375 0.0
C149 C 0.56693 0.28915 0.75557 0.0
C150 C 0.75241 0.40482 0.87653 0.0
C151 C 0.7698 0.39681 0.90566 0.0
C152 C 0.75306 0.36791 0.91935 0.0
C153 C 0.71966 0.34761 0.90468 0.0
C154 C 0.70249 0.35594 0.87571 0.0
C155 C 0.71887 0.38409 0.86211 0.0
C156 C 0.69651 0.38896 0.83135 0.0
C157 C 0.66394 0.35905 0.8288 0.0
C158 C 0.66775 0.33993 0.8548 0.0
C159 C 0.68754 0.41985 0.83768 0.0
C160 C 0.71725 0.38969 0.80234 0.0
H161 H 0.53775 0.25007 0.80996 0.0
H162 H 0.60853 0.23123 0.91197 0.0
H163 H 0.66176 0.25233 0.86367 0.0
H164 H 0.6947 0.28896 0.87674 0.0
H165 H 0.67615 0.26213 0.90688 0.0
H166 H 0.61258 0.30203 0.92057 0.0
H167 H 0.64831 0.2886 0.93824 0.0
H168 H 0.65625 0.32768 0.92243 0.0
H169 H 0.54206 0.34686 0.72503 0.0
H170 H 0.63829 0.42718 0.72656 0.0
H171 H 0.66678 0.40775 0.77199 0.0
H172 H 0.54496 0.33995 0.8088 0.0
H173 H 0.51766 0.31525 0.77346 0.0
H174 H 0.53133 0.29749 0.80968 0.0
H175 H 0.59042 0.29238 0.7432 0.0
H176 H 0.56235 0.26647 0.76772 0.0
H177 H 0.54366 0.28677 0.73634 0.0
H178 H 0.51566 0.20027 0.83684 0.0
C179 C 0.55378 0.24641 0.83178 0.0
C180 C 0.9406 0.7794 0.36282 0.0
C181 C 0.93092 0.79601 0.38779 0.0
C182 C 0.90083 0.77916 0.40154 0.0
C183 C 0.8907 0.73126 0.36671 0.0
C184 C 0.91997 0.74703 0.35262 0.0
C185 C 0.92509 0.72514 0.32627 0.0
H186 H 0.87656 0.57521 0.24737 0.0
C187 C 0.87517 0.69781 0.35201 0.0
C188 C 0.89503 0.69355 0.32819 0.0
H189 H 0.95751 0.66129 0.22806 0.0
H190 H 0.94302 0.69087 0.27032 0.0
H191 H 0.88947 0.5891 0.3319 0.0
H192 H 0.81437 0.61227 0.25773 0.0
H193 H 0.79493 0.58924 0.28922 0.0
H194 H 0.81455 0.57183 0.26099 0.0
H195 H 0.85706 0.55838 0.30417 0.0
H196 H 0.84479 0.57469 0.33887 0.0
C197 C 0.96199 0.7215 0.33586 0.0
C198 C 0.92012 0.73973 0.2928 0.0
C199 C 0.76936 0.62784 0.3983 0.0
C200 C 0.74929 0.59518 0.39633 0.0
C201 C 0.75715 0.57512 0.37348 0.0
C202 C 0.78481 0.58746 0.3543 0.0
C203 C 0.80532 0.62033 0.35783 0.0
C204 C 0.79699 0.63942 0.37995 0.0
C205 C 0.82174 0.67299 0.38351 0.0
C206 C 0.84611 0.672 0.35924 0.0
C207 C 0.83689 0.64128 0.34344 0.0
C208 C 0.84169 0.67928 0.41957 0.0
C209 C 0.79956 0.69518 0.37301 0.0
C210 C 0.8912 0.60044 0.2522 0.0
C211 C 0.9185 0.61559 0.23365 0.0
C212 C 0.93627 0.64868 0.24111 0.0
C213 C 0.92786 0.66598 0.26597 0.0
C214 C 0.90077 0.65065 0.28405 0.0
C215 C 0.88248 0.61837 0.27677 0.0
C216 C 0.85347 0.60647 0.29795 0.0
C217 C 0.85724 0.63666 0.31884 0.0
C218 C 0.88572 0.66269 0.31087 0.0
C219 C 0.86141 0.58061 0.31939 0.0
C220 C 0.81724 0.59413 0.27534 0.0
H221 H 0.85839 0.73709 0.40295 0.0
H222 H 0.96338 0.79132 0.35134 0.0
H223 H 0.89841 0.75029 0.29122 0.0
H224 H 0.91211 0.72175 0.27187 0.0
H225 H 0.9447 0.75899 0.28927 0.0
H226 H 0.96621 0.71619 0.36214 0.0
H227 H 0.98332 0.74387 0.33238 0.0
H228 H 0.96524 0.70163 0.32172 0.0
H229 H 0.76419 0.64471 0.41438 0.0
H230 H 0.74253 0.54978 0.37093 0.0
H231 H 0.78967 0.57096 0.33781 0.0
H232 H 0.843 0.65678 0.43056 0.0
H233 H 0.82835 0.69042 0.4355 0.0
H234 H 0.86983 0.69434 0.42152 0.0
H235 H 0.77695 0.68319 0.35318 0.0
H236 H 0.81479 0.71715 0.36239 0.0
H237 H 0.78839 0.70189 0.39396 0.0
H238 H 0.89282 0.79015 0.42124 0.0
C239 C 0.88085 0.74756 0.39111 0.0
C240 C 0.70737 0.64127 0.82483 0.0
C241 C 0.73191 0.63081 0.81105 0.0
C242 C 0.73547 0.63613 0.77792 0.0
C243 C 0.69436 0.66598 0.77453 0.0
C244 C 0.68889 0.65867 0.80617 0.0
C245 C 0.66423 0.67391 0.81809 0.0
H246 H 0.58736 0.78778 0.80148 0.0
C247 C 0.67432 0.68756 0.76327 0.0
C248 C 0.65598 0.69176 0.78841 0.0
H249 H 0.60065 0.73325 0.88544 0.0
H250 H 0.62069 0.69884 0.85295 0.0
H251 H 0.55789 0.72909 0.74504 0.0
H252 H 0.66221 0.7943 0.78199 0.0
H253 H 0.65418 0.79387 0.73879 0.0
H254 H 0.62613 0.80609 0.76171 0.0
H255 H 0.5735 0.76817 0.73006 0.0
H256 H 0.58178 0.7344 0.71202 0.0
C257 C 0.63077 0.64695 0.82456 0.0
C258 C 0.68482 0.69678 0.84865 0.0
C259 C 0.70432 0.75286 0.66526 0.0
C260 C 0.69272 0.77735 0.65137 0.0
C261 C 0.66162 0.78121 0.65983 0.0
C262 C 0.64505 0.76377 0.68444 0.0
C263 C 0.65993 0.74256 0.70101 0.0
C264 C 0.68737 0.73563 0.68978 0.0
C265 C 0.69786 0.71048 0.70888 0.0
C266 C 0.674 0.70547 0.735 0.0
C267 C 0.65269 0.72517 0.73083 0.0
C268 C 0.68871 0.6801 0.68568 0.0
C269 C 0.73765 0.72472 0.72388 0.0
C270 C 0.59357 0.76774 0.8124 0.0
C271 C 0.59266 0.7631 0.84588 0.0
C272 C 0.60136 0.7372 0.85964 0.0
C273 C 0.61322 0.71747 0.8408 0.0
C274 C 0.61743 0.72436 0.80819 0.0
C275 C 0.60657 0.74847 0.79412 0.0
C276 C 0.61548 0.75394 0.76005 0.0
C277 C 0.63419 0.72955 0.7563 0.0
C278 C 0.63551 0.71259 0.78475 0.0
C279 C 0.5805 0.74626 0.73538 0.0
C280 C 0.64072 0.78882 0.76033 0.0
H281 H 0.72138 0.65784 0.73487 0.0
H282 H 0.70373 0.63718 0.85009 0.0
H283 H 0.71399 0.7046 0.849 0.0
H284 H 0.67873 0.71937 0.84906 0.0
H285 H 0.67953 0.68506 0.87186 0.0
H286 H 0.62273 0.62713 0.80514 0.0
H287 H 0.63579 0.63678 0.84855 0.0
H288 H 0.60743 0.65494 0.8239 0.0
H289 H 0.72769 0.7487 0.6591 0.0
H290 H 0.65105 0.79884 0.64857 0.0
H291 H 0.62245 0.76871 0.69092 0.0
H292 H 0.66803 0.67949 0.66434 0.0
H293 H 0.71239 0.67884 0.67576 0.0
H294 H 0.6773 0.65791 0.69801 0.0
H295 H 0.74349 0.74905 0.73556 0.0
H296 H 0.74614 0.71067 0.74324 0.0
H297 H 0.7547 0.72671 0.70468 0.0
H298 H 0.75424 0.62835 0.76675 0.0
C299 C 0.71665 0.65351 0.75955 0.0
C300 C 0.8371 0.16425 0.43381 0.0
C301 C 0.85154 0.1436 0.41909 0.0
C302 C 0.84429 0.13755 0.38479 0.0
C303 C 0.80911 0.17282 0.38004 0.0
C304 C 0.81565 0.17836 0.41382 0.0
C305 C 0.79658 0.19982 0.42506 0.0
H306 H 0.68898 0.28829 0.38334 0.0
C307 C 0.78665 0.19145 0.36618 0.0
C308 C 0.77921 0.20749 0.39233 0.0
H309 H 0.7253 0.26522 0.48091 0.0
H310 H 0.76049 0.2376 0.4583 0.0
H311 H 0.66828 0.22137 0.35397 0.0
H312 H 0.7631 0.3011 0.35383 0.0
H313 H 0.75186 0.28185 0.31426 0.0
H314 H 0.72123 0.29824 0.32972 0.0
H315 H 0.67001 0.25258 0.32638 0.0
H316 H 0.68088 0.21767 0.31577 0.0
C317 C 0.76884 0.18031 0.44569 0.0
C318 C 0.82438 0.22996 0.44378 0.0
C319 C 0.74191 0.18086 0.24375 0.0
C320 C 0.71826 0.19333 0.22447 0.0
C321 C 0.7091 0.21831 0.23805 0.0
C322 C 0.72097 0.22889 0.27113 0.0
C323 C 0.74182 0.21402 0.29091 0.0
C324 C 0.75318 0.19141 0.27688 0.0
C325 C 0.77491 0.17801 0.3018 0.0
C326 C 0.7732 0.1952 0.33326 0.0
C327 C 0.75352 0.21595 0.32672 0.0
C328 C 0.75608 0.14139 0.30147 0.0
C329 C 0.81311 0.18786 0.29366 0.0
C330 C 0.70431 0.27723 0.4 0.0
C331 C 0.70384 0.27864 0.43394 0.0
C332 C 0.72512 0.26456 0.45464 0.0
C333 C 0.74524 0.24823 0.44144 0.0
C334 C 0.74376 0.24563 0.4072 0.0
C335 C 0.72372 0.26029 0.38723 0.0
C336 C 0.72278 0.25329 0.3514 0.0
C337 C 0.74544 0.23181 0.35298 0.0
C338 C 0.75803 0.22756 0.38566 0.0
C339 C 0.6836 0.23551 0.33577 0.0
C340 C 0.74038 0.28518 0.33621 0.0
H341 H 0.81908 0.14675 0.3392 0.0
H342 H 0.84209 0.16895 0.46023 0.0
H343 H 0.84697 0.23947 0.43012 0.0
H344 H 0.81367 0.24966 0.44668 0.0
H345 H 0.83511 0.22437 0.46851 0.0
H346 H 0.75898 0.15448 0.43748 0.0
H347 H 0.7804 0.18239 0.47212 0.0
H348 H 0.74478 0.18741 0.44297 0.0
H349 H 0.74918 0.16146 0.23402 0.0
H350 H 0.69124 0.22851 0.22344 0.0
H351 H 0.71195 0.24708 0.28038 0.0
H352 H 0.72675 0.13554 0.29709 0.0
H353 H 0.76313 0.12847 0.28172 0.0
H354 H 0.76193 0.13129 0.32511 0.0
H355 H 0.8202 0.21129 0.2823 0.0
H356 H 0.83349 0.19146 0.31575 0.0
H357 H 0.81594 0.16997 0.2761 0.0
H358 H 0.85541 0.12186 0.37307 0.0
C359 C 0.82339 0.1522 0.36518 0.0
C360 C 0.47065 0.66704 0.3205 0.0
C361 C 0.45251 0.63679 0.33196 0.0
C362 C 0.41708 0.62115 0.31734 0.0
C363 C 0.41913 0.66238 0.27896 0.0
C364 C 0.45325 0.67945 0.29379 0.0
C365 C 0.46689 0.71099 0.27743 0.0
H366 H 0.42953 0.80311 0.15102 0.0
C367 C 0.40825 0.67975 0.25122 0.0
C368 C 0.43591 0.70878 0.24976 0.0
H369 H 0.52357 0.83256 0.2245 0.0
H370 H 0.50305 0.7808 0.24929 0.0
H371 H 0.37792 0.77869 0.19836 0.0
H372 H 0.42786 0.73334 0.13779 0.0
H373 H 0.38482 0.70636 0.13571 0.0
H374 H 0.39104 0.74598 0.12173 0.0
H375 H 0.36299 0.77024 0.15506 0.0
H376 H 0.34534 0.74212 0.1845 0.0
C377 C 0.47313 0.73882 0.30283 0.0
C378 C 0.50072 0.71227 0.26371 0.0
C379 C 0.2882 0.62675 0.17867 0.0
C380 C 0.27092 0.63612 0.1503 0.0
C381 C 0.28785 0.66568 0.13792 0.0
C382 C 0.32128 0.68533 0.15308 0.0
C383 C 0.33835 0.67572 0.18129 0.0
C384 C 0.32185 0.64689 0.19364 0.0
C385 C 0.34417 0.64081 0.22382 0.0
C386 C 0.37681 0.67082 0.22744 0.0
C387 C 0.37302 0.69099 0.20251 0.0
C388 C 0.32337 0.6387 0.25299 0.0
C389 C 0.35313 0.61027 0.21584 0.0
C390 C 0.4459 0.79902 0.17269 0.0
C391 C 0.47782 0.82258 0.18598 0.0
C392 C 0.49856 0.81509 0.21366 0.0
C393 C 0.48652 0.78517 0.2282 0.0
C394 C 0.45341 0.76242 0.21495 0.0
C395 C 0.43425 0.77005 0.1874 0.0
C396 C 0.3996 0.74481 0.17591 0.0
C397 C 0.40011 0.72041 0.20096 0.0
C398 C 0.43166 0.72996 0.22423 0.0
C399 C 0.36976 0.75951 0.17825 0.0
C400 C 0.40049 0.73195 0.14091 0.0
H401 H 0.37386 0.61967 0.28147 0.0
H402 H 0.49764 0.68023 0.33154 0.0
H403 H 0.49587 0.69049 0.24754 0.0
H404 H 0.5095 0.73313 0.2489 0.0
H405 H 0.52272 0.71363 0.28397 0.0
H406 H 0.44915 0.73541 0.31449 0.0
H407 H 0.49572 0.74022 0.32248 0.0
H408 H 0.47878 0.76201 0.29154 0.0
H409 H 0.27602 0.60417 0.18885 0.0
H410 H 0.27495 0.674 0.11664 0.0
H411 H 0.3323 0.70739 0.14216 0.0
H412 H 0.3041 0.65201 0.24889 0.0
H413 H 0.30815 0.61355 0.25669 0.0
H414 H 0.34082 0.64993 0.27626 0.0
H415 H 0.35796 0.60935 0.19003 0.0
H416 H 0.3777 0.60921 0.23084 0.0
H417 H 0.33094 0.58836 0.21877 0.0
H418 H 0.40166 0.59886 0.32612 0.0
C419 C 0.40062 0.63351 0.29124 0.0
C420 C 0.10757 0.25962 0.69649 0.0
C421 C 0.11746 0.24448 0.67055 0.0
C422 C 0.14685 0.26276 0.65663 0.0
C423 C 0.15603 0.30914 0.69349 0.0
C424 C 0.1273 0.29192 0.70755 0.0
C425 C 0.12139 0.3122 0.73485 0.0
H426 H 0.1677 0.45662 0.82403 0.0
C427 C 0.17085 0.34206 0.70971 0.0
C428 C 0.15074 0.34443 0.73407 0.0
H429 H 0.08653 0.36806 0.83647 0.0
H430 H 0.10118 0.34235 0.79136 0.0
H431 H 0.15544 0.44928 0.73844 0.0
H432 H 0.2294 0.4216 0.80972 0.0
H433 H 0.24981 0.44636 0.77984 0.0
H434 H 0.22983 0.46235 0.80892 0.0
H435 H 0.18789 0.47828 0.76782 0.0
H436 H 0.20007 0.46446 0.73163 0.0
C437 C 0.08406 0.31511 0.72565 0.0
C438 C 0.12674 0.2964 0.76755 0.0
C439 C 0.27752 0.41743 0.668 0.0
C440 C 0.29822 0.44994 0.67382 0.0
C441 C 0.28906 0.46772 0.69803 0.0
C442 C 0.26049 0.45346 0.71547 0.0
C443 C 0.24013 0.42085 0.70888 0.0
C444 C 0.24904 0.40386 0.68508 0.0
C445 C 0.22458 0.37012 0.67931 0.0
C446 C 0.19974 0.36884 0.70388 0.0
C447 C 0.20848 0.39847 0.72182 0.0
C448 C 0.20495 0.36585 0.64327 0.0
C449 C 0.24704 0.34778 0.68776 0.0
C450 C 0.15289 0.43179 0.81681 0.0
C451 C 0.12549 0.41461 0.83433 0.0
C452 C 0.1076 0.3821 0.82397 0.0
C453 C 0.11623 0.36704 0.79758 0.0
C454 C 0.14372 0.38411 0.78077 0.0
C455 C 0.16181 0.41602 0.79048 0.0
C456 C 0.19121 0.42979 0.7701 0.0
C457 C 0.18781 0.40112 0.74691 0.0
C458 C 0.15937 0.37423 0.75317 0.0
C459 C 0.18348 0.45708 0.75098 0.0
C460 C 0.22713 0.4408 0.79329 0.0
H461 H 0.18797 0.30621 0.65585 0.0
H462 H 0.08529 0.24663 0.70811 0.0
H463 H 0.1488 0.28636 0.76835 0.0
H464 H 0.13447 0.31353 0.78919 0.0
H465 H 0.10243 0.27654 0.77053 0.0
H466 H 0.07928 0.32022 0.69936 0.0
H467 H 0.06319 0.29252 0.72942 0.0
H468 H 0.08054 0.33491 0.73967 0.0
H469 H 0.28331 0.40217 0.65055 0.0
H470 H 0.30361 0.49289 0.70334 0.0
H471 H 0.25508 0.46838 0.73329 0.0
H472 H 0.20272 0.38883 0.63429 0.0
H473 H 0.21914 0.35685 0.62633 0.0
H474 H 0.17715 0.34978 0.64047 0.0
H475 H 0.26919 0.35866 0.70834 0.0
H476 H 0.23183 0.32473 0.69652 0.0
H477 H 0.25885 0.3431 0.66636 0.0
H478 H 0.15493 0.25284 0.63623 0.0
C479 C 0.166 0.29442 0.6679 0.0
Pr480 Pr 1.00107 1.00482 0.54975 0.0
Pr481 Pr 0.04956 0.03518 0.50909 0.0
C482 C 0.95842 0.96402 0.58589 0.0
C483 C 0.9239 0.93825 0.58249 0.0
C484 C 0.89189 0.94369 0.57085 0.0
C485 C 0.85944 0.91935 0.57028 0.0
C486 C 0.85846 0.88915 0.58114 0.0
C487 C 0.89058 0.88352 0.59169 0.0
C488 C 0.92293 0.90786 0.59245 0.0
C489 C 0.03831 0.0688 0.57449 0.0
C490 C 0.08139 0.99908 0.56464 0.0
C491 C 0.09101 0.07576 0.47177 0.0
C492 C 0.12596 0.10075 0.47359 0.0
C493 C 0.15772 0.09361 0.48041 0.0
C494 C 0.19021 0.11702 0.47856 0.0
C495 C 0.19156 0.14798 0.46997 0.0
C496 C 0.15991 0.15536 0.46455 0.0
C497 C 0.12746 0.13195 0.46622 0.0
C498 C 1.01208 0.97121 0.48439 0.0
C499 C 0.96963 0.04101 0.4954 0.0
O500 O 0.95843 0.99325 0.58196 0.0
O501 O 0.98356 0.95767 0.57348 0.0
O502 O 0.05246 0.04967 0.56386 0.0
O503 O 1.00442 0.05508 0.57237 0.0
O504 O 0.09139 0.02475 0.54824 0.0
O505 O 0.04752 0.98436 0.56508 0.0
O506 O 0.0901 0.04621 0.47471 0.0
O507 O 0.0674 0.08274 0.48604 0.0
O508 O 0.99816 0.99054 0.49491 0.0
O509 O 0.04597 0.98475 0.48659 0.0
O510 O 0.96003 1.01344 0.50858 0.0
O511 O 1.00352 0.05719 0.49729 0.0
H512 H 0.89182 0.96685 0.5628 0.0
H513 H 0.8351 0.9243 0.56184 0.0
H514 H 0.89071 0.86069 0.6007 0.0
H515 H 0.94726 0.90314 0.60163 0.0
H516 H 0.15745 0.06979 0.48632 0.0
H517 H 0.21421 0.11071 0.4831 0.0
H518 H 0.15998 0.17883 0.45739 0.0
H519 H 0.10334 0.138 0.46069 0.0
Pr520 Pr 0.50539 0.02367 0.04668 0.0
Pr521 Pr 0.56875 1.01769 0.03094 0.0
C522 C 0.45524 0.03169 0.07899 0.0
C523 C 0.45353 0.0572 0.1015 0.0
C524 C 0.45015 0.0859 0.08973 0.0
C525 C 0.45082 0.11054 0.11157 0.0
C526 C 0.45492 0.10706 0.14562 0.0
C527 C 0.45778 0.07816 0.15728 0.0
C528 C 0.4569 0.05348 0.13546 0.0
C529 C 0.52821 0.06355 0.9958 0.0
C530 C 0.58179 0.07319 0.08537 0.0
C531 C 0.61966 1.00653 1.00218 0.0
C532 C 0.62048 0.97646 0.98775 0.0
C533 C 0.64986 0.9751 0.97428 0.0
C534 C 0.64956 0.94624 0.9598 0.0
C535 C 0.61969 0.9186 0.95837 0.0
C536 C 0.59051 0.92011 0.97224 0.0
C537 C 0.59104 0.94875 0.98704 0.0
C538 C 0.54649 0.97839 0.08222 0.0
C539 C 0.49234 0.97114 0.98891 0.0
O540 O 0.47652 1.01607 0.09035 0.0
O541 O 0.45643 0.0378 0.04819 0.0
O542 O 0.54821 0.06023 1.02131 0.0
O543 O 0.49555 0.04604 0.99604 0.0
O544 O 0.59611 0.06609 0.06106 0.0
O545 O 0.54875 0.05698 0.08786 0.0
O546 O 0.59568 1.01745 0.98666 0.0
O547 O 0.62071 1.00775 0.03395 0.0
O548 O 0.5261 0.98083 0.05649 0.0
O549 O 0.5785 0.99731 0.08211 0.0
O550 O 0.47688 0.97796 1.01245 0.0
O551 O 0.52609 0.9863 0.98839 0.0
H552 H 0.44732 0.08951 0.06369 0.0
H553 H 0.44785 0.13224 0.10173 0.0
H554 H 0.46131 0.07477 0.18336 0.0
H555 H 0.45947 0.03161 0.14524 0.0
H556 H 0.67279 0.9963 0.97473 0.0
H557 H 0.67231 0.94566 0.9491 0.0
H558 H 0.56736 0.89909 0.97179 0.0
H559 H 0.56831 0.94933 0.99776 0.0
Pr560 Pr 0.52834 0.54911 0.54018 0.0
Pr561 Pr 0.50529 0.47311 0.51224 0.0
C562 C 0.52727 0.60939 0.54302 0.0
C563 C 0.51068 0.62834 0.5603 0.0
C564 C 0.52132 0.66152 0.55822 0.0
C565 C 0.50199 0.67918 0.57006 0.0
C566 C 0.47148 0.66381 0.58389 0.0
C567 C 0.46177 0.6306 0.58697 0.0
C568 C 0.48128 0.61306 0.5754 0.0
C569 C 0.54649 0.51093 0.58964 0.0
C570 C 0.4519 0.49485 0.55726 0.0
C571 C 0.50513 0.41242 0.51161 0.0
C572 C 0.51993 0.39044 0.49671 0.0
C573 C 0.52548 0.3918 0.4639 0.0
C574 C 0.54403 0.37338 0.45198 0.0
C575 C 0.55771 0.35387 0.47291 0.0
C576 C 0.55107 0.35191 0.50538 0.0
C577 C 0.53224 0.36996 0.51712 0.0
C578 C 0.48806 0.51173 0.4627 0.0
C579 C 0.58065 0.52695 0.49364 0.0
O580 O 0.50495 0.58657 0.52251 0.0
O581 O 0.5527 0.60098 0.56007 0.0
O582 O 0.53167 0.50238 0.56024 0.0
O583 O 0.5543 0.54185 0.59373 0.0
O584 O 0.45836 0.47168 0.54109 0.0
O585 O 0.47291 0.52524 0.55909 0.0
O586 O 0.52842 0.4357 0.53092 0.0
O587 O 0.48031 0.421 0.49365 0.0
O588 O 0.50227 0.51988 0.4923 0.0
O589 O 0.48043 0.48082 0.45825 0.0
O590 O 0.57458 0.55068 0.50941 0.0
O591 O 0.5601 0.49657 0.49329 0.0
H592 H 0.54389 0.67363 0.54649 0.0
H593 H 0.51064 0.70478 0.56792 0.0
H594 H 0.43827 0.61788 0.59713 0.0
H595 H 0.47252 0.58737 0.57698 0.0
H596 H 0.51654 0.40779 0.44789 0.0
H597 H 0.54898 0.3754 0.42687 0.0
H598 H 0.56098 0.3368 0.52187 0.0
H599 H 0.52835 0.36879 0.54258 0.0
Pr600 Pr 1.01329 0.54573 1.0048 0.0
Pr601 Pr 0.02647 0.49821 0.04986 0.0
C602 C 0.9868 0.58354 0.96573 0.0
C603 C 0.95303 0.58955 0.95606 0.0
C604 C 0.95327 0.62094 0.95186 0.0
C605 C 0.92193 0.62693 0.93979 0.0
C606 C 0.88988 0.60153 0.93149 0.0
C607 C 0.88948 0.57015 0.93672 0.0
C608 C 0.92078 0.5642 0.9491 0.0
C609 C 0.08409 0.5626 0.03482 0.0
C610 C 0.98984 0.54711 0.08057 0.0
C611 C 0.05249 0.46015 0.08898 0.0
C612 C 0.08394 0.45001 0.0972 0.0
C613 C 0.07936 0.41734 0.0985 0.0
C614 C 0.10797 0.40717 0.11038 0.0
C615 C 0.14171 0.42953 0.12152 0.0
C616 C 0.14663 0.46224 0.11861 0.0
C617 C 0.11802 0.4724 0.1065 0.0
C618 C 0.95562 0.48147 1.02006 0.0
C619 C 0.04935 0.49737 0.97336 0.0
O620 O 0.98792 0.55585 0.9557 0.0
O621 O 1.00344 0.5929 0.99565 0.0
O622 O 0.05773 0.5512 0.04912 0.0
O623 O 0.07442 0.56765 1.00457 0.0
O624 O 1.00777 0.52723 0.08864 0.0
O625 O 0.98513 0.5547 0.04956 0.0
O626 O 0.05606 0.48968 0.09758 0.0
O627 O 0.0322 0.44974 0.06062 0.0
O628 O 0.9819 0.49265 1.00552 0.0
O629 O 0.96547 0.47706 0.05047 0.0
O630 O 0.03045 0.51652 0.96621 0.0
O631 O 0.05481 0.48928 1.00422 0.0
H632 H 0.97789 0.64077 0.95708 0.0
H633 H 0.92305 0.65133 0.93572 0.0
H634 H 0.86507 0.55019 0.93082 0.0
H635 H 0.91988 0.53974 0.95245 0.0
H636 H 0.05335 0.39968 0.09132 0.0
H637 H 0.10344 0.38178 0.11168 0.0
H638 H 0.17218 0.4801 0.12715 0.0
H639 H 0.12237 0.4978 0.1056 0.0
H640 H 0.32081 0.23175 0.40838 0.0
H641 H 0.30049 0.30746 0.46049 0.0
H642 H 0.25605 0.26783 0.48594 0.0
H643 H 0.21842 0.21179 0.48831 0.0
H644 H 0.23942 0.13691 0.43554 0.0
H645 H 0.28915 0.17622 0.41644 0.0
C646 C 0.30768 0.2398 0.42615 0.0
C647 C 0.31389 0.27269 0.4322 0.0
C648 C 0.28208 0.21696 0.44048 0.0
C649 C 0.29586 0.28235 0.45489 0.0
C650 C 0.27045 0.25968 0.46949 0.0
C651 C 0.23419 0.20411 0.47294 0.0
C652 C 0.22503 0.1715 0.46314 0.0
C653 C 0.26251 0.22694 0.46157 0.0
C654 C 0.24601 0.1618 0.44365 0.0
C655 C 0.2743 0.1843 0.43247 0.0
H656 H 0.43148 0.88415 0.85872 0.0
H657 H 0.33334 0.89195 0.88104 0.0
H658 H 0.36443 0.9209 0.93358 0.0
H659 H 0.42061 0.94814 0.97054 0.0
H660 H 0.51853 0.94154 0.94601 0.0
H661 H 0.48622 0.90729 0.89726 0.0
C662 C 0.41665 0.8914 0.87544 0.0
C663 C 0.38019 0.88591 0.86607 0.0
C664 C 0.43473 0.90844 0.90509 0.0
C665 C 0.36153 0.89614 0.88767 0.0
C666 C 0.37927 0.91266 0.91766 0.0
C667 C 0.43474 0.93879 0.95476 0.0
C668 C 0.4719 0.94758 0.9617 0.0
C669 C 0.41605 0.91963 0.92624 0.0
C670 C 0.48995 0.93539 0.94103 0.0
C671 C 0.47151 0.9158 0.91312 0.0
H672 H 0.59431 0.45264 0.72058 0.0
H673 H 0.54323 0.3632 0.66347 0.0
H674 H 0.52497 0.39197 0.61708 0.0
H675 H 0.52669 0.44396 0.59168 0.0
H676 H 0.58263 0.53221 0.65004 0.0
H677 H 0.59605 0.50266 0.69637 0.0
C678 C 0.57924 0.43921 0.69799 0.0
C679 C 0.57069 0.40563 0.69567 0.0
C680 C 0.57003 0.45596 0.67122 0.0
C681 C 0.5502 0.38893 0.66629 0.0
C682 C 0.54008 0.40552 0.63956 0.0
C683 C 0.54225 0.45667 0.61431 0.0
C684 C 0.5541 0.49058 0.61679 0.0
C685 C 0.55048 0.43923 0.64144 0.0
C686 C 0.57332 0.50635 0.64695 0.0
C687 C 0.58101 0.48941 0.67371 0.0
H688 H 0.93503 0.63379 0.17201 0.0
H689 H 0.92765 0.55621 0.23551 0.0
H690 H 0.94929 0.52869 0.1956 0.0
H691 H 0.97206 0.52672 0.14219 0.0
H692 H 0.97513 0.60315 0.07777 0.0
H693 H 0.95405 0.6304 0.1179 0.0
C694 C 0.93805 0.61082 0.17729 0.0
C695 C 0.92955 0.5975 0.20742 0.0
C696 C 0.95013 0.59465 0.1537 0.0
C697 C 0.93347 0.56734 0.21287 0.0
C698 C 0.94617 0.55153 0.18992 0.0
C699 C 0.96813 0.54932 0.13684 0.0
C700 C 0.97571 0.56263 0.10642 0.0
C701 C 0.95488 0.56494 0.16018 0.0
C702 C 0.96976 0.59192 0.10045 0.0
C703 C 0.95763 0.60773 0.12364 0.0
H704 H 0.43964 0.20141 0.25377 0.0
H705 H 0.50058 0.2714 0.19501 0.0
H706 H 0.50422 0.22855 0.15889 0.0
H707 H 0.48785 0.17116 0.14304 0.0
H708 H 0.42373 0.10182 0.20059 0.0
H709 H 0.42418 0.14453 0.23861 0.0
C710 C 0.45436 0.20729 0.23346 0.0
C711 C 0.47018 0.23945 0.22722 0.0
C712 C 0.4556 0.18267 0.21254 0.0
C713 C 0.48832 0.24676 0.20029 0.0
C714 C 0.4903 0.2223 0.17966 0.0
C715 C 0.47377 0.1654 0.16378 0.0
C716 C 0.45578 0.13327 0.1689 0.0
C717 C 0.47356 0.19016 0.18528 0.0
C718 C 0.4382 0.12625 0.19625 0.0
C719 C 0.43825 0.15067 0.21793 0.0
H720 H 0.17136 0.9296 0.65294 0.0
H721 H 0.24338 0.96522 0.58427 0.0
H722 H 0.20276 0.99082 0.55549 0.0
H723 H 0.14655 1.00321 0.55046 0.0
H724 H 0.07423 0.96493 0.61847 0.0
H725 H 0.11545 0.94064 0.64732 0.0
C726 C 0.1782 0.9431 0.63173 0.0
C727 C 0.21032 0.94585 0.62084 0.0
C728 C 0.15479 0.95743 0.61541 0.0
C729 C 0.21866 0.96279 0.59298 0.0
C730 C 0.19558 0.97754 0.5767 0.0
C731 C 0.14008 0.98977 0.57176 0.0
C732 C 0.10758 0.986 0.58251 0.0
C733 C 0.16361 0.97515 0.58783 0.0
C734 C 0.09912 0.96811 0.60977 0.0
C735 C 0.12262 0.9542 0.62625 0.0
H736 H 0.79304 0.41151 0.97098 0.0
H737 H 0.82674 0.42955 0.87656 0.0
H738 H 0.88683 0.45982 0.9036 0.0
H739 H 0.93097 0.47726 0.95432 0.0
H740 H 0.89703 0.45657 0.04834 0.0
H741 H 0.83601 0.43097 1.02122 0.0
C742 C 0.81354 0.42195 0.95626 0.0
C743 C 0.80544 0.41785 0.92179 0.0
C744 C 0.84811 0.43863 0.97194 0.0
C745 C 0.83214 0.43237 0.90313 0.0
C746 C 0.8666 0.44949 0.91859 0.0
C747 C 0.91013 0.46731 0.96881 0.0
C748 C 0.91852 0.46841 1.00325 0.0
C749 C 0.87507 0.45219 0.95299 0.0
C750 C 0.89128 0.4557 1.02178 0.0
C751 C 0.85638 0.44107 1.0063 0.0
H752 H 0.68451 0.54444 0.38665 0.0
H753 H 0.7518 0.61824 0.45932 0.0
H754 H 0.70645 0.60551 0.49405 0.0
H755 H 0.64634 0.57448 0.50449 0.0
H756 H 0.58131 0.4965 0.4358 0.0
H757 H 0.62651 0.50943 0.39998 0.0
C758 C 0.68958 0.55759 0.41019 0.0
C759 C 0.72173 0.58337 0.41909 0.0
C760 C 0.66335 0.54937 0.43128 0.0
C761 C 0.72716 0.59941 0.45033 0.0
C762 C 0.70114 0.5919 0.47075 0.0
C763 C 0.64206 0.56022 0.48175 0.0
C764 C 0.61002 0.53457 0.47305 0.0
C765 C 0.66883 0.56726 0.46141 0.0
C766 C 0.60553 0.51629 0.44348 0.0
C767 C 0.63149 0.52376 0.42277 0.0
H768 H 0.24599 0.37364 0.21064 0.0
H769 H 0.32332 0.44226 0.16354 0.0
H770 H 0.27594 0.45746 0.13082 0.0
H771 H 0.21241 0.45181 0.11669 0.0
H772 H 0.1362 0.38374 0.16567 0.0
H773 H 0.18332 0.36762 0.19637 0.0
C774 C 0.25256 0.3922 0.19347 0.0
C775 C 0.28811 0.40715 0.18984 0.0
C776 C 0.22535 0.40073 0.17492 0.0
C777 C 0.29611 0.43045 0.1668 0.0
C778 C 0.26906 0.43917 0.14818 0.0
C779 C 0.20616 0.43351 0.13414 0.0
C780 C 0.17072 0.41892 0.13868 0.0
C781 C 0.23356 0.42458 0.15218 0.0
C782 C 0.16307 0.39497 0.16115 0.0
C783 C 0.19005 0.38592 0.179 0.0
H784 H 0.60051 0.17853 0.91202 0.0
H785 H 0.49164 0.17358 0.88178 0.0
H786 H 0.47206 0.12692 0.91393 0.0
H787 H 0.48593 0.08898 0.95359 0.0
H788 H 0.59527 0.0977 0.98694 0.0
H789 H 0.61436 0.14176 0.95149 0.0
C790 C 0.57243 0.16779 0.91264 0.0
C791 C 0.54781 0.18044 0.8944 0.0
C792 C 0.56133 0.14152 0.93218 0.0
C793 C 0.51149 0.16474 0.89503 0.0
C794 C 0.5002 0.13805 0.91379 0.0
C795 C 0.51394 0.10043 0.95299 0.0
C796 C 0.53914 0.08986 0.97308 0.0
C797 C 0.52488 0.12644 0.93286 0.0
C798 C 0.57529 0.10524 0.97197 0.0
C799 C 0.58623 0.13049 0.95161 0.0
H800 H 0.9055 0.84247 0.40894 0.0
H801 H 1.00353 0.82712 0.39735 0.0
H802 H 0.03694 0.87966 0.42524 0.0
H803 H 0.03858 0.92904 0.45612 0.0
H804 H 0.94014 0.94229 0.46981 0.0
H805 H 0.90695 0.89127 0.43899 0.0
C806 C 0.93421 0.85026 0.41264 0.0
C807 C 0.95168 0.83006 0.40112 0.0
C808 C 0.95335 0.88021 0.42964 0.0
C809 C 0.989 0.84173 0.40549 0.0
C810 C 1.00823 0.87181 0.42186 0.0
C811 C 1.00984 0.9208 0.45234 0.0
C812 C 0.99199 0.93976 0.46548 0.0
C813 C 0.99075 0.89108 0.43456 0.0
C814 C 0.95471 0.92846 0.46019 0.0
C815 C 0.93567 0.8992 0.44244 0.0
H816 H 0.37279 0.7264 0.64477 0.0
H817 H 0.39429 0.78683 0.56388 0.0
H818 H 0.42824 0.75525 0.54485 0.0
H819 H 0.45459 0.71238 0.5531 0.0
H820 H 0.43775 0.656 0.63754 0.0
H821 H 0.39973 0.68462 0.65358 0.0
C822 C 0.38516 0.73298 0.62313 0.0
C823 C 0.38128 0.75929 0.60607 0.0
C824 C 0.4058 0.71563 0.61315 0.0
C825 C 0.39652 0.76661 0.57741 0.0
C826 C 0.41631 0.74877 0.56672 0.0
C827 C 0.44301 0.70661 0.57526 0.0
C828 C 0.44915 0.68203 0.59408 0.0
C829 C 0.42169 0.72362 0.58478 0.0
C830 C 0.43319 0.67446 0.62232 0.0
C831 C 0.41154 0.69092 0.63161 0.0
H832 H 0.73417 0.76806 0.60761 0.0
H833 H 0.70429 0.84169 0.65323 0.0
H834 H 0.74981 0.8826 0.63116 0.0
H835 H 0.80373 0.89787 0.60634 0.0
H836 H 0.8371 0.82496 0.5643 0.0
H837 H 0.78522 0.78354 0.57819 0.0
C838 C 0.73743 0.79303 0.61259 0.0
C839 C 0.71581 0.80153 0.6324 0.0
C840 C 0.76482 0.81671 0.60098 0.0
C841 C 0.72 0.83412 0.63779 0.0
C842 C 0.74646 0.85772 0.62552 0.0
C843 C 0.79919 0.87297 0.59945 0.0
C844 C 0.82434 0.86448 0.58455 0.0
C845 C 0.76979 0.84932 0.6081 0.0
C846 C 0.81831 0.83206 0.57618 0.0
C847 C 0.78865 0.80839 0.58407 0.0
H848 H 0.64768 0.17388 0.20533 0.0
H849 H 0.74474 0.17376 0.17359 0.0
H850 H 0.71062 0.13806 0.12571 0.0
H851 H 0.65316 0.10318 0.09603 0.0
H852 H 0.5566 0.10167 0.13032 0.0
H853 H 0.59064 0.14206 0.17397 0.0
C854 C 0.66138 0.16675 0.18744 0.0
C855 C 0.69859 0.17653 0.19274 0.0
C856 C 0.64169 0.14563 0.16074 0.0
C857 C 0.71605 0.16648 0.16988 0.0
C858 C 0.69658 0.14602 0.14265 0.0
C859 C 0.63959 0.11195 0.11286 0.0
C860 C 0.60249 0.09924 0.11016 0.0
C861 C 0.65937 0.1348 0.13833 0.0
C862 C 0.5852 0.11079 0.13212 0.0
C863 C 0.60461 0.13395 0.15705 0.0
H864 H 0.44581 0.57371 0.33217 0.0
H865 H 0.49483 0.66161 0.3923 0.0
H866 H 0.51144 0.63147 0.43817 0.0
H867 H 0.50845 0.57873 0.46228 0.0
H868 H 0.45447 0.49195 0.40106 0.0
H869 H 0.44309 0.52287 0.35513 0.0
C870 C 0.4601 0.58651 0.3553 0.0
C871 C 0.46852 0.62008 0.35861 0.0
C872 C 0.46827 0.56895 0.38178 0.0
C873 C 0.48799 0.63594 0.3887 0.0
C874 C 0.49714 0.61856 0.41513 0.0
C875 C 0.49376 0.56662 0.43909 0.0
C876 C 0.4818 0.53272 0.43568 0.0
C877 C 0.48671 0.58485 0.41226 0.0
C878 C 0.46378 0.51776 0.40485 0.0
C879 C 0.45728 0.5355 0.37835 0.0
H880 H 0.10513 0.46892 0.84124 0.0
H881 H 0.12268 0.39156 0.89547 0.0
H882 H 0.10265 0.40982 0.94291 0.0
H883 H 0.07756 0.44697 0.96946 0.0
H884 H 0.05715 0.52257 0.91367 0.0
H885 H 0.08035 0.50607 0.86776 0.0
C886 C 0.10505 0.45626 0.86355 0.0
C887 C 0.11594 0.42878 0.8643 0.0
C888 C 0.09244 0.46656 0.891 0.0
C889 C 0.11473 0.4127 0.89369 0.0
C890 C 0.1031 0.42317 0.92106 0.0
C891 C 0.0783 0.46 0.94738 0.0
C892 C 0.06521 0.48627 0.94577 0.0
C893 C 0.09145 0.44994 0.92011 0.0
C894 C 0.06656 0.5023 0.91631 0.0
C895 C 0.08004 0.49285 0.88969 0.0
H896 H 0.63974 0.79567 0.89757 0.0
H897 H 0.53865 0.78826 0.84048 0.0
H898 H 0.53727 0.83522 0.87177 0.0
H899 H 0.56698 0.88028 0.91288 0.0
H900 H 0.67001 0.88942 0.96718 0.0
H901 H 0.66876 0.83987 0.93931 0.0
C902 C 0.61709 0.804 0.89253 0.0
C903 C 0.58906 0.78845 0.86724 0.0
C904 C 0.61718 0.8315 0.90974 0.0
C905 C 0.56028 0.79983 0.86013 0.0
C906 C 0.55963 0.82668 0.87786 0.0
C907 C 0.58895 0.87117 0.91878 0.0
C908 C 0.61857 0.88834 0.94196 0.0
C909 C 0.58824 0.84302 0.90232 0.0
C910 C 0.64713 0.87667 0.94917 0.0
C911 C 0.64633 0.84833 0.93339 0.0
H912 H 0.84307 0.08063 0.42159 0.0
H913 H 0.91303 0.174 0.46 0.0
H914 H 0.95626 0.15036 0.48694 0.0
H915 H 0.97526 0.10335 0.49698 0.0
H916 H 0.90381 1.00955 0.46158 0.0
H917 H 0.85988 0.03302 0.43582 0.0
C918 C 0.86766 0.09564 0.4362 0.0
C919 C 0.87515 0.12891 0.43883 0.0
C920 C 0.89212 0.08185 0.45173 0.0
C921 C 0.90681 0.14829 0.45791 0.0
C922 C 0.93156 0.13482 0.47305 0.0
C923 C 0.95006 0.08812 0.48354 0.0
C924 C 0.94283 0.0549 0.48058 0.0
C925 C 0.92472 0.1017 0.46964 0.0
C926 C 0.90988 0.03523 0.46389 0.0
C927 C 0.88484 0.04863 0.44922 0.0
H928 H 0.24766 0.62461 0.08473 0.0
H929 H 0.21359 0.60254 0.17848 0.0
H930 H 0.1529 0.57531 0.15078 0.0
H931 H 0.10852 0.56234 0.10002 0.0
H932 H 0.14296 0.58754 1.00693 0.0
H933 H 0.20439 0.60942 0.03431 0.0
C934 C 0.22696 0.61392 0.09917 0.0
C935 C 0.2351 0.61607 0.13366 0.0
C936 C 0.19208 0.59921 0.08318 0.0
C937 C 0.20814 0.60119 0.1519 0.0
C938 C 0.17335 0.58587 0.13608 0.0
C939 C 0.12955 0.57249 0.08578 0.0
C940 C 0.12124 0.57377 0.05158 0.0
C941 C 0.16485 0.58545 0.10177 0.0
C942 C 0.14869 0.58665 0.03333 0.0
C943 C 0.18381 0.59911 0.04895 0.0
H944 H 0.30697 0.43175 0.61153 0.0
H945 H 0.36024 0.5016 0.69247 0.0
H946 H 0.41025 0.5232 0.66317 0.0
H947 H 0.44127 0.52076 0.61529 0.0
H948 H 0.38933 0.44713 0.53776 0.0
H949 H 0.33756 0.42849 0.56526 0.0
C950 C 0.32954 0.45135 0.62343 0.0
C951 C 0.32898 0.46446 0.65492 0.0
C952 C 0.35912 0.46316 0.60683 0.0
C953 C 0.35879 0.49078 0.66842 0.0
C954 C 0.3879 0.50314 0.65165 0.0
C955 C 0.41849 0.50083 0.60425 0.0
C956 C 0.41954 0.48558 0.57411 0.0
C957 C 0.38865 0.48939 0.6209 0.0
C958 C 0.38969 0.45945 0.56073 0.0
C959 C 0.35987 0.44869 0.57654 0.0
H960 H 0.76829 0.65419 0.87141 0.0
H961 H 0.75155 0.57896 0.7972 0.0
H962 H 0.7973 0.56155 0.82955 0.0
H963 H 0.8451 0.57052 0.87684 0.0
H964 H 0.86292 0.64703 0.94988 0.0
H965 H 0.81334 0.66102 0.92019 0.0
C966 C 0.77411 0.63354 0.86264 0.0
C967 C 0.75655 0.61781 0.83202 0.0
C968 C 0.80077 0.6241 0.88104 0.0
C969 C 0.76489 0.59154 0.82063 0.0
C970 C 0.79099 0.58159 0.83911 0.0
C971 C 0.83765 0.58986 0.88654 0.0
C972 C 0.8576 0.60779 0.91543 0.0
C973 C 0.80955 0.59809 0.86905 0.0
C974 C 0.8481 0.63311 0.92751 0.0
C975 C 0.81977 0.64106 0.91059 0.0
H976 H 0.54271 0.86063 0.1709 0.0
H977 H 0.43386 0.85673 0.16579 0.0
H978 H 0.44434 0.90287 0.13259 0.0
H979 H 0.48362 0.94364 0.10222 0.0
H980 H 0.59355 0.95049 0.11069 0.0
H981 H 0.58349 0.90471 0.14475 0.0
C982 C 0.52145 0.87019 0.16304 0.0
C983 C 0.4873 0.85441 0.17052 0.0
C984 C 0.52771 0.89738 0.14393 0.0
C985 C 0.46025 0.86758 0.15993 0.0
C986 C 0.46618 0.89417 0.14084 0.0
C987 C 0.50533 0.93508 0.11153 0.0
C988 C 0.53921 0.95047 0.10345 0.0
C989 C 0.4996 0.90899 0.13205 0.0
C990 C 0.56712 0.93923 0.11631 0.0
C991 C 0.56142 0.91292 0.13591 0.0
H992 H 0.14387 0.19987 0.64645 0.0
H993 H 0.04538 0.21165 0.66267 0.0
H994 H 1.01268 0.15883 0.63528 0.0
H995 H 1.01152 0.10992 0.60406 0.0
H996 H 0.1101 0.09959 0.58633 0.0
H997 H 0.14289 0.15133 0.61599 0.0
C998 C 0.1152 0.19122 0.64387 0.0
C999 C 0.09739 0.21049 0.65665 0.0
C1000 C 0.09637 0.16095 0.62734 0.0
C1001 C 0.06019 0.19777 0.6536 0.0
C1002 C 0.04133 0.1675 0.63755 0.0
C1003 C 0.04021 0.11894 0.60671 0.0
C1004 C 0.05821 0.1006 0.59279 0.0
C1005 C 0.05905 0.149 0.62391 0.0
C1006 C 0.09542 0.11292 0.59662 0.0
C1007 C 0.11423 0.1426 0.61369 0.0
H1008 H 0.63715 0.27509 0.40603 0.0
H1009 H 0.71637 0.31539 0.49149 0.0
H1010 H 0.67733 0.341 0.51165 0.0
H1011 H 0.62175 0.35378 0.50374 0.0
H1012 H 0.5445 0.31615 0.41657 0.0
H1013 H 0.58237 0.28838 0.39771 0.0
C1014 C 0.64623 0.28985 0.42886 0.0
C1015 C 0.67991 0.29354 0.44703 0.0
C1016 C 0.62412 0.30516 0.43981 0.0
C1017 C 0.69056 0.31191 0.47709 0.0
C1018 C 0.66835 0.32677 0.48851 0.0
C1019 C 0.61315 0.33927 0.48074 0.0
C1020 C 0.5804 0.33684 0.46157 0.0
C1021 C 0.63522 0.32375 0.46993 0.0
C1022 C 0.56971 0.31845 0.43159 0.0
C1023 C 0.59126 0.30252 0.42091 0.0
loop_
_geom_bond_atom_site_label_1
_geom_bond_atom_site_label_2
_geom_bond_distance
_geom_bond_site_symmetry_2
_ccdc_geom_bond_type
C0 C1 1.391 . S
C0 C4 1.391 . S
C0 H42 0.948 . S
C1 C0 1.391 . S
C1 C2 1.391 . S
C2 C1 1.391 . S
C2 H58 0.947 . S
C2 C59 1.392 . S
C3 C4 1.391 . S
C3 C7 1.397 . S
C3 C59 1.419 . S
C4 C0 1.391 . S
C4 C3 1.391 . S
C4 C5 1.399 . S
C5 C4 1.399 . S
C5 C8 1.396 . S
C5 C17 1.453 . S
C5 C18 1.684 . S
H6 C30 0.948 . S
C7 C3 1.397 . S
C7 C8 1.394 . S
C7 C26 1.723 . S
C8 C5 1.396 . S
C8 C7 1.394 . S
C8 C38 1.723 . S
H9 C32 0.947 . S
H10 C33 0.948 . S
H11 C39 0.982 . S
H12 C40 0.979 . S
H13 C40 0.980 . S
H14 C40 0.983 . S
H15 C39 0.979 . S
H16 C39 0.977 . S
C17 C5 1.453 . S
C17 H46 0.982 . S
C17 H47 0.979 . S
C17 H48 0.977 . S
C18 C5 1.684 . S
C18 H43 0.979 . S
C18 H44 0.980 . S
C18 H45 0.983 . S
C19 C20 1.391 . S
C19 C24 1.391 . S
C19 H49 0.948 . S
C20 C19 1.391 . S
C20 C21 1.391 . S
C21 C20 1.391 . S
C21 C22 1.392 . S
C21 H50 0.947 . S
C22 C21 1.392 . S
C22 C23 1.419 . S
C22 H51 0.948 . S
C23 C22 1.419 . S
C23 C24 1.391 . S
C23 C27 1.397 . S
C24 C19 1.391 . S
C24 C23 1.391 . S
C24 C25 1.399 . S
C25 C24 1.399 . S
C25 C26 1.396 . S
C25 C28 1.453 . S
C25 C29 1.684 . S
C26 C7 1.723 . S
C26 C25 1.396 . S
C26 C27 1.394 . S
C27 C23 1.397 . S
C27 C26 1.394 . S
C27 C37 1.723 . S
C28 C25 1.453 . S
C28 H52 0.982 . S
C28 H53 0.979 . S
C28 H54 0.977 . S
C29 C25 1.684 . S
C29 H55 0.979 . S
C29 H56 0.980 . S
C29 H57 0.983 . S
C30 H6 0.948 . S
C30 C31 1.391 . S
C30 C35 1.391 . S
C31 C30 1.391 . S
C31 C32 1.391 . S
C32 H9 0.947 . S
C32 C31 1.391 . S
C32 C33 1.392 . S
C33 H10 0.948 . S
C33 C32 1.392 . S
C33 C34 1.419 . S
C34 C33 1.419 . S
C34 C35 1.391 . S
C34 C38 1.397 . S
C35 C30 1.391 . S
C35 C34 1.391 . S
C35 C36 1.399 . S
C36 C35 1.399 . S
C36 C37 1.396 . S
C36 C39 1.453 . S
C36 C40 1.684 . S
C37 C27 1.723 . S
C37 C36 1.396 . S
C37 C38 1.394 . S
C38 C8 1.723 . S
C38 C34 1.397 . S
C38 C37 1.394 . S
C39 H11 0.982 . S
C39 H15 0.979 . S
C39 H16 0.977 . S
C39 C36 1.453 . S
C40 H12 0.979 . S
C40 H13 0.980 . S
C40 H14 0.983 . S
C40 C36 1.684 . S
H41 C59 0.948 . S
H42 C0 0.948 . S
H43 C18 0.979 . S
H44 C18 0.980 . S
H45 C18 0.983 . S
H46 C17 0.982 . S
H47 C17 0.979 . S
H48 C17 0.977 . S
H49 C19 0.948 . S
H50 C21 0.947 . S
H51 C22 0.948 . S
H52 C28 0.982 . S
H53 C28 0.979 . S
H54 C28 0.977 . S
H55 C29 0.979 . S
H56 C29 0.980 . S
H57 C29 0.983 . S
H58 C2 0.947 . S
C59 C2 1.392 . S
C59 C3 1.419 . S
C59 H41 0.948 . S
C60 C61 1.391 . S
C60 C64 1.391 . S
C60 H102 0.948 . S
C61 C60 1.391 . S
C61 C62 1.391 . S
C62 C61 1.391 . S
C62 H118 0.947 . S
C62 C119 1.392 . S
C63 C64 1.391 . S
C63 C67 1.397 . S
C63 C119 1.419 . S
C64 C60 1.391 . S
C64 C63 1.391 . S
C64 C65 1.399 . S
C65 C64 1.399 . S
C65 C68 1.396 . S
C65 C77 1.453 . S
C65 C78 1.684 . S
H66 C90 0.948 . S
C67 C63 1.397 . S
C67 C68 1.394 . S
C67 C86 1.723 . S
C68 C65 1.396 . S
C68 C67 1.394 . S
C68 C98 1.723 . S
H69 C92 0.947 . S
H70 C93 0.948 . S
H71 C99 0.982 . S
H72 C100 0.979 . S
H73 C100 0.980 . S
H74 C100 0.983 . S
H75 C99 0.979 . S
H76 C99 0.977 . S
C77 C65 1.453 . S
C77 H106 0.982 . S
C77 H107 0.979 . S
C77 H108 0.977 . S
C78 C65 1.684 . S
C78 H103 0.979 . S
C78 H104 0.980 . S
C78 H105 0.983 . S
C79 C80 1.391 . S
C79 C84 1.391 . S
C79 H109 0.948 . S
C80 C79 1.391 . S
C80 C81 1.391 . S
C81 C80 1.391 . S
C81 C82 1.392 . S
C81 H110 0.947 . S
C82 C81 1.392 . S
C82 C83 1.419 . S
C82 H111 0.948 . S
C83 C82 1.419 . S
C83 C84 1.391 . S
C83 C87 1.397 . S
C84 C79 1.391 . S
C84 C83 1.391 . S
C84 C85 1.399 . S
C85 C84 1.399 . S
C85 C86 1.396 . S
C85 C88 1.453 . S
C85 C89 1.684 . S
C86 C67 1.723 . S
C86 C85 1.396 . S
C86 C87 1.394 . S
C87 C83 1.397 . S
C87 C86 1.394 . S
C87 C97 1.723 . S
C88 C85 1.453 . S
C88 H112 0.982 . S
C88 H113 0.979 . S
C88 H114 0.977 . S
C89 C85 1.684 . S
C89 H115 0.979 . S
C89 H116 0.980 . S
C89 H117 0.983 . S
C90 H66 0.948 . S
C90 C91 1.391 . S
C90 C95 1.391 . S
C91 C90 1.391 . S
C91 C92 1.391 . S
C92 H69 0.947 . S
C92 C91 1.391 . S
C92 C93 1.392 . S
C93 H70 0.948 . S
C93 C92 1.392 . S
C93 C94 1.419 . S
C94 C93 1.419 . S
C94 C95 1.391 . S
C94 C98 1.397 . S
C95 C90 1.391 . S
C95 C94 1.391 . S
C95 C96 1.399 . S
C96 C95 1.399 . S
C96 C97 1.396 . S
C96 C99 1.453 . S
C96 C100 1.684 . S
C97 C87 1.723 . S
C97 C96 1.396 . S
C97 C98 1.394 . S
C98 C68 1.723 . S
C98 C94 1.397 . S
C98 C97 1.394 . S
C99 H71 0.982 . S
C99 H75 0.979 . S
C99 H76 0.977 . S
C99 C96 1.453 . S
C100 H72 0.979 . S
C100 H73 0.980 . S
C100 H74 0.983 . S
C100 C96 1.684 . S
H101 C119 0.948 . S
H102 C60 0.948 . S
H103 C78 0.979 . S
H104 C78 0.980 . S
H105 C78 0.983 . S
H106 C77 0.982 . S
H107 C77 0.979 . S
H108 C77 0.977 . S
H109 C79 0.948 . S
H110 C81 0.947 . S
H111 C82 0.948 . S
H112 C88 0.982 . S
H113 C88 0.979 . S
H114 C88 0.977 . S
H115 C89 0.979 . S
H116 C89 0.980 . S
H117 C89 0.983 . S
H118 C62 0.947 . S
C119 C62 1.392 . S
C119 C63 1.419 . S
C119 H101 0.948 . S
C120 C121 1.391 . S
C120 C124 1.391 . S
C120 H162 0.948 . S
C121 C120 1.391 . S
C121 C122 1.391 . S
C122 C121 1.391 . S
C122 H178 0.947 . S
C122 C179 1.392 . S
C123 C124 1.391 . S
C123 C127 1.397 . S
C123 C179 1.419 . S
C124 C120 1.391 . S
C124 C123 1.391 . S
C124 C125 1.399 . S
C125 C124 1.399 . S
C125 C128 1.396 . S
C125 C137 1.453 . S
C125 C138 1.684 . S
H126 C150 0.948 . S
C127 C123 1.397 . S
C127 C128 1.394 . S
C127 C146 1.723 . S
C128 C125 1.396 . S
C128 C127 1.394 . S
C128 C158 1.723 . S
H129 C152 0.947 . S
H130 C153 0.948 . S
H131 C159 0.982 . S
H132 C160 0.979 . S
H133 C160 0.980 . S
H134 C160 0.983 . S
H135 C159 0.979 . S
H136 C159 0.977 . S
C137 C125 1.453 . S
C137 H166 0.982 . S
C137 H167 0.979 . S
C137 H168 0.977 . S
C138 C125 1.684 . S
C138 H163 0.979 . S
C138 H164 0.980 . S
C138 H165 0.983 . S
C139 C140 1.391 . S
C139 C144 1.391 . S
C139 H169 0.948 . S
C140 C139 1.391 . S
C140 C141 1.391 . S
C141 C140 1.391 . S
C141 C142 1.392 . S
C141 H170 0.947 . S
C142 C141 1.392 . S
C142 C143 1.419 . S
C142 H171 0.948 . S
C143 C142 1.419 . S
C143 C144 1.391 . S
C143 C147 1.397 . S
C144 C139 1.391 . S
C144 C143 1.391 . S
C144 C145 1.399 . S
C145 C144 1.399 . S
C145 C146 1.396 . S
C145 C148 1.453 . S
C145 C149 1.684 . S
C146 C127 1.723 . S
C146 C145 1.396 . S
C146 C147 1.394 . S
C147 C143 1.397 . S
C147 C146 1.394 . S
C147 C157 1.723 . S
C148 C145 1.453 . S
C148 H172 0.982 . S
C148 H173 0.979 . S
C148 H174 0.977 . S
C149 C145 1.684 . S
C149 H175 0.979 . S
C149 H176 0.980 . S
C149 H177 0.983 . S
C150 H126 0.948 . S
C150 C151 1.391 . S
C150 C155 1.391 . S
C151 C150 1.391 . S
C151 C152 1.391 . S
C152 H129 0.947 . S
C152 C151 1.391 . S
C152 C153 1.392 . S
C153 H130 0.948 . S
C153 C152 1.392 . S
C153 C154 1.419 . S
C154 C153 1.419 . S
C154 C155 1.391 . S
C154 C158 1.397 . S
C155 C150 1.391 . S
C155 C154 1.391 . S
C155 C156 1.399 . S
C156 C155 1.399 . S
C156 C157 1.396 . S
C156 C159 1.453 . S
C156 C160 1.684 . S
C157 C147 1.723 . S
C157 C156 1.396 . S
C157 C158 1.394 . S
C158 C128 1.723 . S
C158 C154 1.397 . S
C158 C157 1.394 . S
C159 H131 0.982 . S
C159 H135 0.979 . S
C159 H136 0.977 . S
C159 C156 1.453 . S
C160 H132 0.979 . S
C160 H133 0.980 . S
C160 H134 0.983 . S
C160 C156 1.684 . S
H161 C179 0.948 . S
H162 C120 0.948 . S
H163 C138 0.979 . S
H164 C138 0.980 . S
H165 C138 0.983 . S
H166 C137 0.982 . S
H167 C137 0.979 . S
H168 C137 0.977 . S
H169 C139 0.948 . S
H170 C141 0.947 . S
H171 C142 0.948 . S
H172 C148 0.982 . S
H173 C148 0.979 . S
H174 C148 0.977 . S
H175 C149 0.979 . S
H176 C149 0.980 . S
H177 C149 0.983 . S
H178 C122 0.947 . S
C179 C122 1.392 . S
C179 C123 1.419 . S
C179 H161 0.948 . S
C180 C181 1.391 . S
C180 C184 1.391 . S
C180 H222 0.948 . S
C181 C180 1.391 . S
C181 C182 1.391 . S
C182 C181 1.391 . S
C182 H238 0.947 . S
C182 C239 1.392 . S
C183 C184 1.391 . S
C183 C187 1.397 . S
C183 C239 1.419 . S
C184 C180 1.391 . S
C184 C183 1.391 . S
C184 C185 1.399 . S
C185 C184 1.399 . S
C185 C188 1.396 . S
C185 C197 1.453 . S
C185 C198 1.684 . S
H186 C210 0.948 . S
C187 C183 1.397 . S
C187 C188 1.394 . S
C187 C206 1.723 . S
C188 C185 1.396 . S
C188 C187 1.394 . S
C188 C218 1.723 . S
H189 C212 0.947 . S
H190 C213 0.948 . S
H191 C219 0.982 . S
H192 C220 0.979 . S
H193 C220 0.980 . S
H194 C220 0.983 . S
H195 C219 0.979 . S
H196 C219 0.977 . S
C197 C185 1.453 . S
C197 H226 0.982 . S
C197 H227 0.979 . S
C197 H228 0.977 . S
C198 C185 1.684 . S
C198 H223 0.979 . S
C198 H224 0.980 . S
C198 H225 0.983 . S
C199 C200 1.391 . S
C199 C204 1.391 . S
C199 H229 0.948 . S
C200 C199 1.391 . S
C200 C201 1.391 . S
C201 C200 1.391 . S
C201 C202 1.392 . S
C201 H230 0.947 . S
C202 C201 1.392 . S
C202 C203 1.419 . S
C202 H231 0.948 . S
C203 C202 1.419 . S
C203 C204 1.391 . S
C203 C207 1.397 . S
C204 C199 1.391 . S
C204 C203 1.391 . S
C204 C205 1.399 . S
C205 C204 1.399 . S
C205 C206 1.396 . S
C205 C208 1.453 . S
C205 C209 1.684 . S
C206 C187 1.723 . S
C206 C205 1.396 . S
C206 C207 1.394 . S
C207 C203 1.397 . S
C207 C206 1.394 . S
C207 C217 1.723 . S
C208 C205 1.453 . S
C208 H232 0.982 . S
C208 H233 0.979 . S
C208 H234 0.977 . S
C209 C205 1.684 . S
C209 H235 0.979 . S
C209 H236 0.980 . S
C209 H237 0.983 . S
C210 H186 0.948 . S
C210 C211 1.391 . S
C210 C215 1.391 . S
C211 C210 1.391 . S
C211 C212 1.391 . S
C212 H189 0.947 . S
C212 C211 1.391 . S
C212 C213 1.392 . S
C213 H190 0.948 . S
C213 C212 1.392 . S
C213 C214 1.419 . S
C214 C213 1.419 . S
C214 C215 1.391 . S
C214 C218 1.397 . S
C215 C210 1.391 . S
C215 C214 1.391 . S
C215 C216 1.399 . S
C216 C215 1.399 . S
C216 C217 1.396 . S
C216 C219 1.453 . S
C216 C220 1.684 . S
C217 C207 1.723 . S
C217 C216 1.396 . S
C217 C218 1.394 . S
C218 C188 1.723 . S
C218 C214 1.397 . S
C218 C217 1.394 . S
C219 H191 0.982 . S
C219 H195 0.979 . S
C219 H196 0.977 . S
C219 C216 1.453 . S
C220 H192 0.979 . S
C220 H193 0.980 . S
C220 H194 0.983 . S
C220 C216 1.684 . S
H221 C239 0.948 . S
H222 C180 0.948 . S
H223 C198 0.979 . S
H224 C198 0.980 . S
H225 C198 0.983 . S
H226 C197 0.982 . S
H227 C197 0.979 . S
H228 C197 0.977 . S
H229 C199 0.948 . S
H230 C201 0.947 . S
H231 C202 0.948 . S
H232 C208 0.982 . S
H233 C208 0.979 . S
H234 C208 0.977 . S
H235 C209 0.979 . S
H236 C209 0.980 . S
H237 C209 0.983 . S
H238 C182 0.947 . S
C239 C182 1.392 . S
C239 C183 1.419 . S
C239 H221 0.948 . S
C240 C241 1.391 . S
C240 C244 1.391 . S
C240 H282 0.948 . S
C241 C240 1.391 . S
C241 C242 1.391 . S
C242 C241 1.391 . S
C242 H298 0.947 . S
C242 C299 1.392 . S
C243 C244 1.391 . S
C243 C247 1.397 . S
C243 C299 1.419 . S
C244 C240 1.391 . S
C244 C243 1.391 . S
C244 C245 1.399 . S
C245 C244 1.399 . S
C245 C248 1.396 . S
C245 C257 1.453 . S
C245 C258 1.684 . S
H246 C270 0.948 . S
C247 C243 1.397 . S
C247 C248 1.394 . S
C247 C266 1.723 . S
C248 C245 1.396 . S
C248 C247 1.394 . S
C248 C278 1.723 . S
H249 C272 0.947 . S
H250 C273 0.948 . S
H251 C279 0.982 . S
H252 C280 0.979 . S
H253 C280 0.980 . S
H254 C280 0.983 . S
H255 C279 0.979 . S
H256 C279 0.977 . S
C257 C245 1.453 . S
C257 H286 0.982 . S
C257 H287 0.979 . S
C257 H288 0.977 . S
C258 C245 1.684 . S
C258 H283 0.979 . S
C258 H284 0.980 . S
C258 H285 0.983 . S
C259 C260 1.391 . S
C259 C264 1.391 . S
C259 H289 0.948 . S
C260 C259 1.391 . S
C260 C261 1.391 . S
C261 C260 1.391 . S
C261 C262 1.392 . S
C261 H290 0.947 . S
C262 C261 1.392 . S
C262 C263 1.419 . S
C262 H291 0.948 . S
C263 C262 1.419 . S
C263 C264 1.391 . S
C263 C267 1.397 . S
C264 C259 1.391 . S
C264 C263 1.391 . S
C264 C265 1.399 . S
C265 C264 1.399 . S
C265 C266 1.396 . S
C265 C268 1.453 . S
C265 C269 1.684 . S
C266 C247 1.723 . S
C266 C265 1.396 . S
C266 C267 1.394 . S
C267 C263 1.397 . S
C267 C266 1.394 . S
C267 C277 1.723 . S
C268 C265 1.453 . S
C268 H292 0.982 . S
C268 H293 0.979 . S
C268 H294 0.977 . S
C269 C265 1.684 . S
C269 H295 0.979 . S
C269 H296 0.980 . S
C269 H297 0.983 . S
C270 H246 0.948 . S
C270 C271 1.391 . S
C270 C275 1.391 . S
C271 C270 1.391 . S
C271 C272 1.391 . S
C272 H249 0.947 . S
C272 C271 1.391 . S
C272 C273 1.392 . S
C273 H250 0.948 . S
C273 C272 1.392 . S
C273 C274 1.419 . S
C274 C273 1.419 . S
C274 C275 1.391 . S
C274 C278 1.397 . S
C275 C270 1.391 . S
C275 C274 1.391 . S
C275 C276 1.399 . S
C276 C275 1.399 . S
C276 C277 1.396 . S
C276 C279 1.453 . S
C276 C280 1.684 . S
C277 C267 1.723 . S
C277 C276 1.396 . S
C277 C278 1.394 . S
C278 C248 1.723 . S
C278 C274 1.397 . S
C278 C277 1.394 . S
C279 H251 0.982 . S
C279 H255 0.979 . S
C279 H256 0.977 . S
C279 C276 1.453 . S
C280 H252 0.979 . S
C280 H253 0.980 . S
C280 H254 0.983 . S
C280 C276 1.684 . S
H281 C299 0.948 . S
H282 C240 0.948 . S
H283 C258 0.979 . S
H284 C258 0.980 . S
H285 C258 0.983 . S
H286 C257 0.982 . S
H287 C257 0.979 . S
H288 C257 0.977 . S
H289 C259 0.948 . S
H290 C261 0.947 . S
H291 C262 0.948 . S
H292 C268 0.982 . S
H293 C268 0.979 . S
H294 C268 0.977 . S
H295 C269 0.979 . S
H296 C269 0.980 . S
H297 C269 0.983 . S
H298 C242 0.947 . S
C299 C242 1.392 . S
C299 C243 1.419 . S
C299 H281 0.948 . S
C300 C301 1.391 . S
C300 C304 1.391 . S
C300 H342 0.948 . S
C301 C300 1.391 . S
C301 C302 1.391 . S
C302 C301 1.391 . S
C302 H358 0.947 . S
C302 C359 1.392 . S
C303 C304 1.391 . S
C303 C307 1.397 . S
C303 C359 1.419 . S
C304 C300 1.391 . S
C304 C303 1.391 . S
C304 C305 1.399 . S
C305 C304 1.399 . S
C305 C308 1.396 . S
C305 C317 1.453 . S
C305 C318 1.684 . S
H306 C330 0.948 . S
C307 C303 1.397 . S
C307 C308 1.394 . S
C307 C326 1.723 . S
C308 C305 1.396 . S
C308 C307 1.394 . S
C308 C338 1.723 . S
H309 C332 0.947 . S
H310 C333 0.948 . S
H311 C339 0.982 . S
H312 C340 0.979 . S
H313 C340 0.980 . S
H314 C340 0.983 . S
H315 C339 0.979 . S
H316 C339 0.977 . S
C317 C305 1.453 . S
C317 H346 0.982 . S
C317 H347 0.979 . S
C317 H348 0.977 . S
C318 C305 1.684 . S
C318 H343 0.979 . S
C318 H344 0.980 . S
C318 H345 0.983 . S
C319 C320 1.391 . S
C319 C324 1.391 . S
C319 H349 0.948 . S
C320 C319 1.391 . S
C320 C321 1.391 . S
C321 C320 1.391 . S
C321 C322 1.392 . S
C321 H350 0.947 . S
C322 C321 1.392 . S
C322 C323 1.419 . S
C322 H351 0.948 . S
C323 C322 1.419 . S
C323 C324 1.391 . S
C323 C327 1.397 . S
C324 C319 1.391 . S
C324 C323 1.391 . S
C324 C325 1.399 . S
C325 C324 1.399 . S
C325 C326 1.396 . S
C325 C328 1.453 . S
C325 C329 1.684 . S
C326 C307 1.723 . S
C326 C325 1.396 . S
C326 C327 1.394 . S
C327 C323 1.397 . S
C327 C326 1.394 . S
C327 C337 1.723 . S
C328 C325 1.453 . S
C328 H352 0.982 . S
C328 H353 0.979 . S
C328 H354 0.977 . S
C329 C325 1.684 . S
C329 H355 0.979 . S
C329 H356 0.980 . S
C329 H357 0.983 . S
C330 H306 0.948 . S
C330 C331 1.391 . S
C330 C335 1.391 . S
C331 C330 1.391 . S
C331 C332 1.391 . S
C332 H309 0.947 . S
C332 C331 1.391 . S
C332 C333 1.392 . S
C333 H310 0.948 . S
C333 C332 1.392 . S
C333 C334 1.419 . S
C334 C333 1.419 . S
C334 C335 1.391 . S
C334 C338 1.397 . S
C335 C330 1.391 . S
C335 C334 1.391 . S
C335 C336 1.399 . S
C336 C335 1.399 . S
C336 C337 1.396 . S
C336 C339 1.453 . S
C336 C340 1.684 . S
C337 C327 1.723 . S
C337 C336 1.396 . S
C337 C338 1.394 . S
C338 C308 1.723 . S
C338 C334 1.397 . S
C338 C337 1.394 . S
C339 H311 0.982 . S
C339 H315 0.979 . S
C339 H316 0.977 . S
C339 C336 1.453 . S
C340 H312 0.979 . S
C340 H313 0.980 . S
C340 H314 0.983 . S
C340 C336 1.684 . S
H341 C359 0.948 . S
H342 C300 0.948 . S
H343 C318 0.979 . S
H344 C318 0.980 . S
H345 C318 0.983 . S
H346 C317 0.982 . S
H347 C317 0.979 . S
H348 C317 0.977 . S
H349 C319 0.948 . S
H350 C321 0.947 . S
H351 C322 0.948 . S
H352 C328 0.982 . S
H353 C328 0.979 . S
H354 C328 0.977 . S
H355 C329 0.979 . S
H356 C329 0.980 . S
H357 C329 0.983 . S
H358 C302 0.947 . S
C359 C302 1.392 . S
C359 C303 1.419 . S
C359 H341 0.948 . S
C360 C361 1.391 . S
C360 C364 1.391 . S
C360 H402 0.948 . S
C361 C360 1.391 . S
C361 C362 1.391 . S
C362 C361 1.391 . S
C362 H418 0.947 . S
C362 C419 1.392 . S
C363 C364 1.391 . S
C363 C367 1.397 . S
C363 C419 1.419 . S
C364 C360 1.391 . S
C364 C363 1.391 . S
C364 C365 1.399 . S
C365 C364 1.399 . S
C365 C368 1.396 . S
C365 C377 1.453 . S
C365 C378 1.684 . S
H366 C390 0.948 . S
C367 C363 1.397 . S
C367 C368 1.394 . S
C367 C386 1.723 . S
C368 C365 1.396 . S
C368 C367 1.394 . S
C368 C398 1.723 . S
H369 C392 0.947 . S
H370 C393 0.948 . S
H371 C399 0.982 . S
H372 C400 0.979 . S
H373 C400 0.980 . S
H374 C400 0.983 . S
H375 C399 0.979 . S
H376 C399 0.977 . S
C377 C365 1.453 . S
C377 H406 0.982 . S
C377 H407 0.979 . S
C377 H408 0.977 . S
C378 C365 1.684 . S
C378 H403 0.979 . S
C378 H404 0.980 . S
C378 H405 0.983 . S
C379 C380 1.391 . S
C379 C384 1.391 . S
C379 H409 0.948 . S
C380 C379 1.391 . S
C380 C381 1.391 . S
C381 C380 1.391 . S
C381 C382 1.392 . S
C381 H410 0.947 . S
C382 C381 1.392 . S
C382 C383 1.419 . S
C382 H411 0.948 . S
C383 C382 1.419 . S
C383 C384 1.391 . S
C383 C387 1.397 . S
C384 C379 1.391 . S
C384 C383 1.391 . S
C384 C385 1.399 . S
C385 C384 1.399 . S
C385 C386 1.396 . S
C385 C388 1.453 . S
C385 C389 1.684 . S
C386 C367 1.723 . S
C386 C385 1.396 . S
C386 C387 1.394 . S
C387 C383 1.397 . S
C387 C386 1.394 . S
C387 C397 1.723 . S
C388 C385 1.453 . S
C388 H412 0.982 . S
C388 H413 0.979 . S
C388 H414 0.977 . S
C389 C385 1.684 . S
C389 H415 0.979 . S
C389 H416 0.980 . S
C389 H417 0.983 . S
C390 H366 0.948 . S
C390 C391 1.391 . S
C390 C395 1.391 . S
C391 C390 1.391 . S
C391 C392 1.391 . S
C392 H369 0.947 . S
C392 C391 1.391 . S
C392 C393 1.392 . S
C393 H370 0.948 . S
C393 C392 1.392 . S
C393 C394 1.419 . S
C394 C393 1.419 . S
C394 C395 1.391 . S
C394 C398 1.397 . S
C395 C390 1.391 . S
C395 C394 1.391 . S
C395 C396 1.399 . S
C396 C395 1.399 . S
C396 C397 1.396 . S
C396 C399 1.453 . S
C396 C400 1.684 . S
C397 C387 1.723 . S
C397 C396 1.396 . S
C397 C398 1.394 . S
C398 C368 1.723 . S
C398 C394 1.397 . S
C398 C397 1.394 . S
C399 H371 0.982 . S
C399 H375 0.979 . S
C399 H376 0.977 . S
C399 C396 1.453 . S
C400 H372 0.979 . S
C400 H373 0.980 . S
C400 H374 0.983 . S
C400 C396 1.684 . S
H401 C419 0.948 . S
H402 C360 0.948 . S
H403 C378 0.979 . S
H404 C378 0.980 . S
H405 C378 0.983 . S
H406 C377 0.982 . S
H407 C377 0.979 . S
H408 C377 0.977 . S
H409 C379 0.948 . S
H410 C381 0.947 . S
H411 C382 0.948 . S
H412 C388 0.982 . S
H413 C388 0.979 . S
H414 C388 0.977 . S
H415 C389 0.979 . S
H416 C389 0.980 . S
H417 C389 0.983 . S
H418 C362 0.947 . S
C419 C362 1.392 . S
C419 C363 1.419 . S
C419 H401 0.948 . S
C420 C421 1.391 . S
C420 C424 1.391 . S
C420 H462 0.948 . S
C421 C420 1.391 . S
C421 C422 1.391 . S
C422 C421 1.391 . S
C422 H478 0.947 . S
C422 C479 1.392 . S
C423 C424 1.391 . S
C423 C427 1.397 . S
C423 C479 1.419 . S
C424 C420 1.391 . S
C424 C423 1.391 . S
C424 C425 1.399 . S
C425 C424 1.399 . S
C425 C428 1.396 . S
C425 C437 1.453 . S
C425 C438 1.684 . S
H426 C450 0.948 . S
C427 C423 1.397 . S
C427 C428 1.394 . S
C427 C446 1.723 . S
C428 C425 1.396 . S
C428 C427 1.394 . S
C428 C458 1.723 . S
H429 C452 0.947 . S
H430 C453 0.948 . S
H431 C459 0.982 . S
H432 C460 0.979 . S
H433 C460 0.980 . S
H434 C460 0.983 . S
H435 C459 0.979 . S
H436 C459 0.977 . S
C437 C425 1.453 . S
C437 H466 0.982 . S
C437 H467 0.979 . S
C437 H468 0.977 . S
C438 C425 1.684 . S
C438 H463 0.979 . S
C438 H464 0.980 . S
C438 H465 0.983 . S
C439 C440 1.391 . S
C439 C444 1.391 . S
C439 H469 0.948 . S
C440 C439 1.391 . S
C440 C441 1.391 . S
C441 C440 1.391 . S
C441 C442 1.392 . S
C441 H470 0.947 . S
C442 C441 1.392 . S
C442 C443 1.419 . S
C442 H471 0.948 . S
C443 C442 1.419 . S
C443 C444 1.391 . S
C443 C447 1.397 . S
C444 C439 1.391 . S
C444 C443 1.391 . S
C444 C445 1.399 . S
C445 C444 1.399 . S
C445 C446 1.396 . S
C445 C448 1.453 . S
C445 C449 1.684 . S
C446 C427 1.723 . S
C446 C445 1.396 . S
C446 C447 1.394 . S
C447 C443 1.397 . S
C447 C446 1.394 . S
C447 C457 1.723 . S
C448 C445 1.453 . S
C448 H472 0.982 . S
C448 H473 0.979 . S
C448 H474 0.977 . S
C449 C445 1.684 . S
C449 H475 0.979 . S
C449 H476 0.980 . S
C449 H477 0.983 . S
C450 H426 0.948 . S
C450 C451 1.391 . S
C450 C455 1.391 . S
C451 C450 1.391 . S
C451 C452 1.391 . S
C452 H429 0.947 . S
C452 C451 1.391 . S
C452 C453 1.392 . S
C453 H430 0.948 . S
C453 C452 1.392 . S
C453 C454 1.419 . S
C454 C453 1.419 . S
C454 C455 1.391 . S
C454 C458 1.397 . S
C455 C450 1.391 . S
C455 C454 1.391 . S
C455 C456 1.399 . S
C456 C455 1.399 . S
C456 C457 1.396 . S
C456 C459 1.453 . S
C456 C460 1.684 . S
C457 C447 1.723 . S
C457 C456 1.396 . S
C457 C458 1.394 . S
C458 C428 1.723 . S
C458 C454 1.397 . S
C458 C457 1.394 . S
C459 H431 0.982 . S
C459 H435 0.979 . S
C459 H436 0.977 . S
C459 C456 1.453 . S
C460 H432 0.979 . S
C460 H433 0.980 . S
C460 H434 0.983 . S
C460 C456 1.684 . S
H461 C479 0.948 . S
H462 C420 0.948 . S
H463 C438 0.979 . S
H464 C438 0.980 . S
H465 C438 0.983 . S
H466 C437 0.982 . S
H467 C437 0.979 . S
H468 C437 0.977 . S
H469 C439 0.948 . S
H470 C441 0.947 . S
H471 C442 0.948 . S
H472 C448 0.982 . S
H473 C448 0.979 . S
H474 C448 0.977 . S
H475 C449 0.979 . S
H476 C449 0.980 . S
H477 C449 0.983 . S
H478 C422 0.947 . S
C479 C422 1.392 . S
C479 C423 1.419 . S
C479 H461 0.948 . S
Pr480 C482 2.880 . S
Pr480 O500 2.562 . S
Pr480 O501 2.490 . S
Pr480 O502 2.695 1_665 S
Pr480 O503 2.507 1_665 S
Pr480 O505 2.437 1_655 S
Pr480 O508 2.436 . S
Pr480 O510 2.438 1_565 S
Pr481 C491 2.880 . S
Pr481 O502 2.436 . S
Pr481 O504 2.438 1_545 S
Pr481 O506 2.562 . S
Pr481 O507 2.490 . S
Pr481 O508 2.695 1_445 S
Pr481 O509 2.513 1_445 S
Pr481 O511 2.437 1_455 S
C482 Pr480 2.880 . S
C482 C483 1.491 . S
C482 O500 1.254 . S
C482 O501 1.225 . S
C483 C482 1.491 . S
C483 C484 1.392 . S
C483 C488 1.356 . S
C484 C483 1.392 . S
C484 C485 1.368 . S
C484 H512 0.929 . S
C485 C484 1.368 . S
C485 C486 1.386 . S
C485 H513 0.929 . S
C486 C485 1.386 . S
C486 C487 1.373 . S
C487 C486 1.373 . S
C487 C488 1.409 . S
C487 H514 0.931 . S
C488 C483 1.356 . S
C488 C487 1.409 . S
C488 H515 0.930 . S
C489 O502 1.270 . S
C489 O503 1.266 . S
C490 O504 1.267 . S
C490 O505 1.278 . S
C491 Pr481 2.880 . S
C491 C492 1.491 . S
C491 O506 1.254 . S
C491 O507 1.225 . S
C492 C491 1.491 . S
C492 C493 1.392 . S
C492 C497 1.356 . S
C493 C492 1.392 . S
C493 C494 1.368 . S
C493 H516 0.929 . S
C494 C493 1.368 . S
C494 C495 1.386 . S
C494 H517 0.929 . S
C495 C494 1.386 . S
C495 C496 1.373 . S
C496 C495 1.373 . S
C496 C497 1.409 . S
C496 H518 0.931 . S
C497 C492 1.356 . S
C497 C496 1.409 . S
C497 H519 0.930 . S
C498 O508 1.270 . S
C498 O509 1.246 . S
C499 O510 1.267 . S
C499 O511 1.278 . S
O500 Pr480 2.562 . S
O500 C482 1.254 . S
O501 Pr480 2.490 . S
O501 C482 1.225 . S
O502 Pr480 2.695 1_445 S
O502 Pr481 2.436 . S
O502 C489 1.270 . S
O503 Pr480 2.507 1_445 S
O503 C489 1.266 . S
O504 Pr481 2.438 1_565 S
O504 C490 1.267 . S
O505 Pr480 2.437 1_455 S
O505 C490 1.278 . S
O506 Pr481 2.562 . S
O506 C491 1.254 . S
O507 Pr481 2.490 . S
O507 C491 1.225 . S
O508 Pr480 2.436 . S
O508 Pr481 2.695 1_665 S
O508 C498 1.270 . S
O509 Pr481 2.513 1_665 S
O509 C498 1.246 . S
O510 Pr480 2.438 1_545 S
O510 C499 1.267 . S
O511 Pr481 2.437 1_655 S
O511 C499 1.278 . S
H512 C484 0.929 . S
H513 C485 0.929 . S
H514 C487 0.931 . S
H515 C488 0.930 . S
H516 C493 0.929 . S
H517 C494 0.929 . S
H518 C496 0.931 . S
H519 C497 0.930 . S
Pr520 C522 2.892 . S
Pr520 O540 2.579 . S
Pr520 O541 2.496 . S
Pr520 O542 2.685 1_554 S
Pr520 O543 2.501 1_554 S
Pr520 O545 2.444 . S
Pr520 O548 2.442 1_545 S
Pr520 O550 2.426 1_544 S
Pr521 C531 2.878 1_554 S
Pr521 O542 2.435 1_564 S
Pr521 O544 2.439 1_565 S
Pr521 O546 2.560 1_554 S
Pr521 O547 2.489 1_554 S
Pr521 O548 2.696 . S
Pr521 O549 2.514 . S
Pr521 O551 2.436 1_554 S
C522 Pr520 2.892 . S
C522 C523 1.491 . S
C522 O540 1.254 . S
C522 O541 1.225 . S
C523 C522 1.491 . S
C523 C524 1.392 . S
C523 C528 1.356 . S
C524 C523 1.392 . S
C524 C525 1.368 . S
C524 H552 0.929 . S
C525 C524 1.368 . S
C525 C526 1.386 . S
C525 H553 0.929 . S
C526 C525 1.386 . S
C526 C527 1.373 . S
C527 C526 1.373 . S
C527 C528 1.409 . S
C527 H554 0.931 . S
C528 C523 1.356 . S
C528 C527 1.409 . S
C528 H555 0.930 . S
C529 O542 1.270 . S
C529 O543 1.248 . S
C530 O544 1.267 . S
C530 O545 1.278 . S
C531 Pr521 2.878 1_556 S
C531 C532 1.491 . S
C531 O546 1.254 . S
C531 O547 1.225 . S
C532 C531 1.491 . S
C532 C533 1.392 . S
C532 C537 1.356 . S
C533 C532 1.392 . S
C533 C534 1.368 . S
C533 H556 0.929 . S
C534 C533 1.368 . S
C534 C535 1.386 . S
C534 H557 0.929 . S
C535 C534 1.386 . S
C535 C536 1.373 . S
C536 C535 1.373 . S
C536 C537 1.409 . S
C536 H558 0.931 . S
C537 C532 1.356 . S
C537 C536 1.409 . S
C537 H559 0.930 . S
C538 O548 1.270 . S
C538 O549 1.248 . S
C539 O550 1.267 . S
C539 O551 1.278 . S
O540 Pr520 2.579 . S
O540 C522 1.254 . S
O541 Pr520 2.496 . S
O541 C522 1.225 . S
O542 Pr520 2.685 1_556 S
O542 Pr521 2.435 1_546 S
O542 C529 1.270 . S
O543 Pr520 2.501 1_556 S
O543 C529 1.248 . S
O544 Pr521 2.439 1_545 S
O544 C530 1.267 . S
O545 Pr520 2.444 . S
O545 C530 1.278 . S
O546 Pr521 2.560 1_556 S
O546 C531 1.254 . S
O547 Pr521 2.489 1_556 S
O547 C531 1.225 . S
O548 Pr520 2.442 1_565 S
O548 Pr521 2.696 . S
O548 C538 1.270 . S
O549 Pr521 2.514 . S
O549 C538 1.248 . S
O550 Pr520 2.426 1_566 S
O550 C539 1.267 . S
O551 Pr521 2.436 1_556 S
O551 C539 1.278 . S
H552 C524 0.929 . S
H553 C525 0.929 . S
H554 C527 0.931 . S
H555 C528 0.930 . S
H556 C533 0.929 . S
H557 C534 0.929 . S
H558 C536 0.931 . S
H559 C537 0.930 . S
Pr560 C562 2.880 . S
Pr560 O580 2.562 . S
Pr560 O581 2.490 . S
Pr560 O582 2.695 . S
Pr560 O583 2.512 . S
Pr560 O585 2.437 . S
Pr560 O588 2.436 . S
Pr560 O590 2.438 . S
Pr561 C571 2.880 . S
Pr561 O582 2.436 . S
Pr561 O584 2.438 . S
Pr561 O586 2.562 . S
Pr561 O587 2.490 . S
Pr561 O588 2.695 . S
Pr561 O589 2.512 . S
Pr561 O591 2.437 . S
C562 Pr560 2.880 . S
C562 C563 1.491 . S
C562 O580 1.254 . S
C562 O581 1.225 . S
C563 C562 1.491 . S
C563 C564 1.392 . S
C563 C568 1.356 . S
C564 C563 1.392 . S
C564 C565 1.368 . S
C564 H592 0.929 . S
C565 C564 1.368 . S
C565 C566 1.386 . S
C565 H593 0.929 . S
C566 C565 1.386 . S
C566 C567 1.373 . S
C567 C566 1.373 . S
C567 C568 1.409 . S
C567 H594 0.931 . S
C568 C563 1.356 . S
C568 C567 1.409 . S
C568 H595 0.930 . S
C569 O582 1.270 . S
C569 O583 1.248 . S
C570 O584 1.267 . S
C570 O585 1.278 . S
C571 Pr561 2.880 . S
C571 C572 1.491 . S
C571 O586 1.254 . S
C571 O587 1.225 . S
C572 C571 1.491 . S
C572 C573 1.392 . S
C572 C577 1.356 . S
C573 C572 1.392 . S
C573 C574 1.368 . S
C573 H596 0.929 . S
C574 C573 1.368 . S
C574 C575 1.386 . S
C574 H597 0.929 . S
C575 C574 1.386 . S
C575 C576 1.373 . S
C576 C575 1.373 . S
C576 C577 1.409 . S
C576 H598 0.931 . S
C577 C572 1.356 . S
C577 C576 1.409 . S
C577 H599 0.930 . S
C578 O588 1.270 . S
C578 O589 1.248 . S
C579 O590 1.267 . S
C579 O591 1.278 . S
O580 Pr560 2.562 . S
O580 C562 1.254 . S
O581 Pr560 2.490 . S
O581 C562 1.225 . S
O582 Pr560 2.695 . S
O582 Pr561 2.436 . S
O582 C569 1.270 . S
O583 Pr560 2.512 . S
O583 C569 1.248 . S
O584 Pr561 2.438 . S
O584 C570 1.267 . S
O585 Pr560 2.437 . S
O585 C570 1.278 . S
O586 Pr561 2.562 . S
O586 C571 1.254 . S
O587 Pr561 2.490 . S
O587 C571 1.225 . S
O588 Pr560 2.436 . S
O588 Pr561 2.695 . S
O588 C578 1.270 . S
O589 Pr561 2.512 . S
O589 C578 1.248 . S
O590 Pr560 2.438 . S
O590 C579 1.267 . S
O591 Pr561 2.437 . S
O591 C579 1.278 . S
H592 C564 0.929 . S
H593 C565 0.929 . S
H594 C567 0.931 . S
H595 C568 0.930 . S
H596 C573 0.929 . S
H597 C574 0.929 . S
H598 C576 0.931 . S
H599 C577 0.930 . S
Pr600 C602 2.880 . S
Pr600 O620 2.562 . S
Pr600 O621 2.490 . S
Pr600 O622 2.695 1_656 S
Pr600 O623 2.512 1_656 S
Pr600 O625 2.437 1_556 S
Pr600 O628 2.436 . S
Pr600 O630 2.438 1_655 S
Pr601 C611 2.880 . S
Pr601 O622 2.436 . S
Pr601 O624 2.438 1_455 S
Pr601 O626 2.562 . S
Pr601 O627 2.490 . S
Pr601 O628 2.695 1_454 S
Pr601 O629 2.512 1_454 S
Pr601 O631 2.437 1_554 S
C602 Pr600 2.880 . S
C602 C603 1.491 . S
C602 O620 1.254 . S
C602 O621 1.225 . S
C603 C602 1.491 . S
C603 C604 1.392 . S
C603 C608 1.356 . S
C604 C603 1.392 . S
C604 C605 1.368 . S
C604 H632 0.929 . S
C605 C604 1.368 . S
C605 C606 1.386 . S
C605 H633 0.929 . S
C606 C605 1.386 . S
C606 C607 1.373 . S
C607 C606 1.373 . S
C607 C608 1.409 . S
C607 H634 0.931 . S
C608 C603 1.356 . S
C608 C607 1.409 . S
C608 H635 0.930 . S
C609 O622 1.270 . S
C609 O623 1.248 . S
C610 O624 1.267 . S
C610 O625 1.278 . S
C611 Pr601 2.880 . S
C611 C612 1.491 . S
C611 O626 1.254 . S
C611 O627 1.225 . S
C612 C611 1.491 . S
C612 C613 1.392 . S
C612 C617 1.356 . S
C613 C612 1.392 . S
C613 C614 1.368 . S
C613 H636 0.929 . S
C614 C613 1.368 . S
C614 C615 1.386 . S
C614 H637 0.929 . S
C615 C614 1.386 . S
C615 C616 1.373 . S
C616 C615 1.373 . S
C616 C617 1.409 . S
C616 H638 0.931 . S
C617 C612 1.356 . S
C617 C616 1.409 . S
C617 H639 0.930 . S
C618 O628 1.270 . S
C618 O629 1.248 . S
C619 O630 1.267 . S
C619 O631 1.278 . S
O620 Pr600 2.562 . S
O620 C602 1.254 . S
O621 Pr600 2.490 . S
O621 C602 1.225 . S
O622 Pr600 2.695 1_454 S
O622 Pr601 2.436 . S
O622 C609 1.270 . S
O623 Pr600 2.512 1_454 S
O623 C609 1.248 . S
O624 Pr601 2.438 1_655 S
O624 C610 1.267 . S
O625 Pr600 2.437 1_554 S
O625 C610 1.278 . S
O626 Pr601 2.562 . S
O626 C611 1.254 . S
O627 Pr601 2.490 . S
O627 C611 1.225 . S
O628 Pr600 2.436 . S
O628 Pr601 2.695 1_656 S
O628 C618 1.270 . S
O629 Pr601 2.512 1_656 S
O629 C618 1.248 . S
O630 Pr600 2.438 1_455 S
O630 C619 1.267 . S
O631 Pr601 2.437 1_556 S
O631 C619 1.278 . S
H632 C604 0.929 . S
H633 C605 0.929 . S
H634 C607 0.931 . S
H635 C608 0.930 . S
H636 C613 0.929 . S
H637 C614 0.929 . S
H638 C616 0.931 . S
H639 C617 0.930 . S
H640 C646 0.930 . S
H641 C649 0.930 . S
H642 C650 0.930 . S
H643 C651 0.930 . S
H644 C654 0.930 . S
H645 C655 0.930 . S
C646 H640 0.930 . S
C646 C647 1.355 . S
C646 C648 1.415 . S
C647 C646 1.355 . S
C647 C649 1.419 . S
C648 C646 1.415 . S
C648 C653 1.425 . S
C648 C655 1.409 . S
C649 H641 0.930 . S
C649 C647 1.419 . S
C649 C650 1.362 . S
C650 H642 0.930 . S
C650 C649 1.362 . S
C650 C653 1.409 . S
C651 H643 0.930 . S
C651 C652 1.355 . S
C651 C653 1.415 . S
C652 C651 1.355 . S
C652 C654 1.419 . S
C653 C648 1.425 . S
C653 C650 1.409 . S
C653 C651 1.415 . S
C654 H644 0.930 . S
C654 C652 1.419 . S
C654 C655 1.362 . S
C655 H645 0.930 . S
C655 C648 1.409 . S
C655 C654 1.362 . S
H656 C662 0.930 . S
H657 C665 0.930 . S
H658 C666 0.930 . S
H659 C667 0.930 . S
H660 C670 0.930 . S
H661 C671 0.930 . S
C662 H656 0.930 . S
C662 C663 1.355 . S
C662 C664 1.415 . S
C663 C662 1.355 . S
C663 C665 1.419 . S
C664 C662 1.415 . S
C664 C669 1.425 . S
C664 C671 1.409 . S
C665 H657 0.930 . S
C665 C663 1.419 . S
C665 C666 1.362 . S
C666 H658 0.930 . S
C666 C665 1.362 . S
C666 C669 1.409 . S
C667 H659 0.930 . S
C667 C668 1.355 . S
C667 C669 1.415 . S
C668 C667 1.355 . S
C668 C670 1.419 . S
C669 C664 1.425 . S
C669 C666 1.409 . S
C669 C667 1.415 . S
C670 H660 0.930 . S
C670 C668 1.419 . S
C670 C671 1.362 . S
C671 H661 0.930 . S
C671 C664 1.409 . S
C671 C670 1.362 . S
H672 C678 0.930 . S
H673 C681 0.930 . S
H674 C682 0.930 . S
H675 C683 0.930 . S
H676 C686 0.930 . S
H677 C687 0.930 . S
C678 H672 0.930 . S
C678 C679 1.355 . S
C678 C680 1.415 . S
C679 C678 1.355 . S
C679 C681 1.419 . S
C680 C678 1.415 . S
C680 C685 1.425 . S
C680 C687 1.409 . S
C681 H673 0.930 . S
C681 C679 1.419 . S
C681 C682 1.362 . S
C682 H674 0.930 . S
C682 C681 1.362 . S
C682 C685 1.409 . S
C683 H675 0.930 . S
C683 C684 1.355 . S
C683 C685 1.415 . S
C684 C683 1.355 . S
C684 C686 1.419 . S
C685 C680 1.425 . S
C685 C682 1.409 . S
C685 C683 1.415 . S
C686 H676 0.930 . S
C686 C684 1.419 . S
C686 C687 1.362 . S
C687 H677 0.930 . S
C687 C680 1.409 . S
C687 C686 1.362 . S
H688 C694 0.930 . S
H689 C697 0.930 . S
H690 C698 0.930 . S
H691 C699 0.930 . S
H692 C702 0.930 . S
H693 C703 0.930 . S
C694 H688 0.930 . S
C694 C695 1.355 . S
C694 C696 1.415 . S
C695 C694 1.355 . S
C695 C697 1.419 . S
C696 C694 1.415 . S
C696 C701 1.425 . S
C696 C703 1.409 . S
C697 H689 0.930 . S
C697 C695 1.419 . S
C697 C698 1.362 . S
C698 H690 0.930 . S
C698 C697 1.362 . S
C698 C701 1.409 . S
C699 H691 0.930 . S
C699 C700 1.355 . S
C699 C701 1.415 . S
C700 C699 1.355 . S
C700 C702 1.419 . S
C701 C696 1.425 . S
C701 C698 1.409 . S
C701 C699 1.415 . S
C702 H692 0.930 . S
C702 C700 1.419 . S
C702 C703 1.362 . S
C703 H693 0.930 . S
C703 C696 1.409 . S
C703 C702 1.362 . S
H704 C710 0.930 . S
H705 C713 0.930 . S
H706 C714 0.930 . S
H707 C715 0.930 . S
H708 C718 0.930 . S
H709 C719 0.930 . S
C710 H704 0.930 . S
C710 C711 1.355 . S
C710 C712 1.415 . S
C711 C710 1.355 . S
C711 C713 1.419 . S
C712 C710 1.415 . S
C712 C717 1.425 . S
C712 C719 1.409 . S
C713 H705 0.930 . S
C713 C711 1.419 . S
C713 C714 1.362 . S
C714 H706 0.930 . S
C714 C713 1.362 . S
C714 C717 1.409 . S
C715 H707 0.930 . S
C715 C716 1.355 . S
C715 C717 1.415 . S
C716 C715 1.355 . S
C716 C718 1.419 . S
C717 C712 1.425 . S
C717 C714 1.409 . S
C717 C715 1.415 . S
C718 H708 0.930 . S
C718 C716 1.419 . S
C718 C719 1.362 . S
C719 H709 0.930 . S
C719 C712 1.409 . S
C719 C718 1.362 . S
H720 C726 0.930 . S
H721 C729 0.930 . S
H722 C730 0.930 . S
H723 C731 0.930 . S
H724 C734 0.930 . S
H725 C735 0.930 . S
C726 H720 0.930 . S
C726 C727 1.355 . S
C726 C728 1.415 . S
C727 C726 1.355 . S
C727 C729 1.419 . S
C728 C726 1.415 . S
C728 C733 1.425 . S
C728 C735 1.409 . S
C729 H721 0.930 . S
C729 C727 1.419 . S
C729 C730 1.362 . S
C730 H722 0.930 . S
C730 C729 1.362 . S
C730 C733 1.409 . S
C731 H723 0.930 . S
C731 C732 1.355 . S
C731 C733 1.415 . S
C732 C731 1.355 . S
C732 C734 1.419 . S
C733 C728 1.425 . S
C733 C730 1.409 . S
C733 C731 1.415 . S
C734 H724 0.930 . S
C734 C732 1.419 . S
C734 C735 1.362 . S
C735 H725 0.930 . S
C735 C728 1.409 . S
C735 C734 1.362 . S
H736 C742 0.930 . S
H737 C745 0.930 . S
H738 C746 0.930 . S
H739 C747 0.930 . S
H740 C750 0.930 . S
H741 C751 0.930 . S
C742 H736 0.930 . S
C742 C743 1.355 . S
C742 C744 1.415 . S
C743 C742 1.355 . S
C743 C745 1.419 . S
C744 C742 1.415 . S
C744 C749 1.425 . S
C744 C751 1.409 . S
C745 H737 0.930 . S
C745 C743 1.419 . S
C745 C746 1.362 . S
C746 H738 0.930 . S
C746 C745 1.362 . S
C746 C749 1.409 . S
C747 H739 0.930 . S
C747 C748 1.355 . S
C747 C749 1.415 . S
C748 C747 1.355 . S
C748 C750 1.419 . S
C749 C744 1.425 . S
C749 C746 1.409 . S
C749 C747 1.415 . S
C750 H740 0.930 . S
C750 C748 1.419 . S
C750 C751 1.362 . S
C751 H741 0.930 . S
C751 C744 1.409 . S
C751 C750 1.362 . S
H752 C758 0.930 . S
H753 C761 0.930 . S
H754 C762 0.930 . S
H755 C763 0.930 . S
H756 C766 0.930 . S
H757 C767 0.930 . S
C758 H752 0.930 . S
C758 C759 1.355 . S
C758 C760 1.415 . S
C759 C758 1.355 . S
C759 C761 1.419 . S
C760 C758 1.415 . S
C760 C765 1.425 . S
C760 C767 1.409 . S
C761 H753 0.930 . S
C761 C759 1.419 . S
C761 C762 1.362 . S
C762 H754 0.930 . S
C762 C761 1.362 . S
C762 C765 1.409 . S
C763 H755 0.930 . S
C763 C764 1.355 . S
C763 C765 1.415 . S
C764 C763 1.355 . S
C764 C766 1.419 . S
C765 C760 1.425 . S
C765 C762 1.409 . S
C765 C763 1.415 . S
C766 H756 0.930 . S
C766 C764 1.419 . S
C766 C767 1.362 . S
C767 H757 0.930 . S
C767 C760 1.409 . S
C767 C766 1.362 . S
H768 C774 0.930 . S
H769 C777 0.930 . S
H770 C778 0.930 . S
H771 C779 0.930 . S
H772 C782 0.930 . S
H773 C783 0.930 . S
C774 H768 0.930 . S
C774 C775 1.355 . S
C774 C776 1.415 . S
C775 C774 1.355 . S
C775 C777 1.419 . S
C776 C774 1.415 . S
C776 C781 1.425 . S
C776 C783 1.409 . S
C777 H769 0.930 . S
C777 C775 1.419 . S
C777 C778 1.362 . S
C778 H770 0.930 . S
C778 C777 1.362 . S
C778 C781 1.409 . S
C779 H771 0.930 . S
C779 C780 1.355 . S
C779 C781 1.415 . S
C780 C779 1.355 . S
C780 C782 1.419 . S
C781 C776 1.425 . S
C781 C778 1.409 . S
C781 C779 1.415 . S
C782 H772 0.930 . S
C782 C780 1.419 . S
C782 C783 1.362 . S
C783 H773 0.930 . S
C783 C776 1.409 . S
C783 C782 1.362 . S
H784 C790 0.930 . S
H785 C793 0.930 . S
H786 C794 0.930 . S
H787 C795 0.930 . S
H788 C798 0.930 . S
H789 C799 0.930 . S
C790 H784 0.930 . S
C790 C791 1.355 . S
C790 C792 1.415 . S
C791 C790 1.355 . S
C791 C793 1.419 . S
C792 C790 1.415 . S
C792 C797 1.425 . S
C792 C799 1.409 . S
C793 H785 0.930 . S
C793 C791 1.419 . S
C793 C794 1.362 . S
C794 H786 0.930 . S
C794 C793 1.362 . S
C794 C797 1.409 . S
C795 H787 0.930 . S
C795 C796 1.355 . S
C795 C797 1.415 . S
C796 C795 1.355 . S
C796 C798 1.419 . S
C797 C792 1.425 . S
C797 C794 1.409 . S
C797 C795 1.415 . S
C798 H788 0.930 . S
C798 C796 1.419 . S
C798 C799 1.362 . S
C799 H789 0.930 . S
C799 C792 1.409 . S
C799 C798 1.362 . S
H800 C806 0.930 . S
H801 C809 0.930 . S
H802 C810 0.930 . S
H803 C811 0.930 . S
H804 C814 0.930 . S
H805 C815 0.930 . S
C806 H800 0.930 . S
C806 C807 1.355 . S
C806 C808 1.415 . S
C807 C806 1.355 . S
C807 C809 1.419 . S
C808 C806 1.415 . S
C808 C813 1.425 . S
C808 C815 1.409 . S
C809 H801 0.930 . S
C809 C807 1.419 . S
C809 C810 1.362 . S
C810 H802 0.930 . S
C810 C809 1.362 . S
C810 C813 1.409 . S
C811 H803 0.930 . S
C811 C812 1.355 . S
C811 C813 1.415 . S
C812 C811 1.355 . S
C812 C814 1.419 . S
C813 C808 1.425 . S
C813 C810 1.409 . S
C813 C811 1.415 . S
C814 H804 0.930 . S
C814 C812 1.419 . S
C814 C815 1.362 . S
C815 H805 0.930 . S
C815 C808 1.409 . S
C815 C814 1.362 . S
H816 C822 0.930 . S
H817 C825 0.930 . S
H818 C826 0.930 . S
H819 C827 0.930 . S
H820 C830 0.930 . S
H821 C831 0.930 . S
C822 H816 0.930 . S
C822 C823 1.355 . S
C822 C824 1.415 . S
C823 C822 1.355 . S
C823 C825 1.419 . S
C824 C822 1.415 . S
C824 C829 1.425 . S
C824 C831 1.409 . S
C825 H817 0.930 . S
C825 C823 1.419 . S
C825 C826 1.362 . S
C826 H818 0.930 . S
C826 C825 1.362 . S
C826 C829 1.409 . S
C827 H819 0.930 . S
C827 C828 1.355 . S
C827 C829 1.415 . S
C828 C827 1.355 . S
C828 C830 1.419 . S
C829 C824 1.425 . S
C829 C826 1.409 . S
C829 C827 1.415 . S
C830 H820 0.930 . S
C830 C828 1.419 . S
C830 C831 1.362 . S
C831 H821 0.930 . S
C831 C824 1.409 . S
C831 C830 1.362 . S
H832 C838 0.930 . S
H833 C841 0.930 . S
H834 C842 0.930 . S
H835 C843 0.930 . S
H836 C846 0.930 . S
H837 C847 0.930 . S
C838 H832 0.930 . S
C838 C839 1.355 . S
C838 C840 1.415 . S
C839 C838 1.355 . S
C839 C841 1.419 . S
C840 C838 1.415 . S
C840 C845 1.425 . S
C840 C847 1.409 . S
C841 H833 0.930 . S
C841 C839 1.419 . S
C841 C842 1.362 . S
C842 H834 0.930 . S
C842 C841 1.362 . S
C842 C845 1.409 . S
C843 H835 0.930 . S
C843 C844 1.355 . S
C843 C845 1.415 . S
C844 C843 1.355 . S
C844 C846 1.419 . S
C845 C840 1.425 . S
C845 C842 1.409 . S
C845 C843 1.415 . S
C846 H836 0.930 . S
C846 C844 1.419 . S
C846 C847 1.362 . S
C847 H837 0.930 . S
C847 C840 1.409 . S
C847 C846 1.362 . S
H848 C854 0.930 . S
H849 C857 0.930 . S
H850 C858 0.930 . S
H851 C859 0.930 . S
H852 C862 0.930 . S
H853 C863 0.930 . S
C854 H848 0.930 . S
C854 C855 1.355 . S
C854 C856 1.415 . S
C855 C854 1.355 . S
C855 C857 1.419 . S
C856 C854 1.415 . S
C856 C861 1.425 . S
C856 C863 1.409 . S
C857 H849 0.930 . S
C857 C855 1.419 . S
C857 C858 1.362 . S
C858 H850 0.930 . S
C858 C857 1.362 . S
C858 C861 1.409 . S
C859 H851 0.930 . S
C859 C860 1.355 . S
C859 C861 1.415 . S
C860 C859 1.355 . S
C860 C862 1.419 . S
C861 C856 1.425 . S
C861 C858 1.409 . S
C861 C859 1.415 . S
C862 H852 0.930 . S
C862 C860 1.419 . S
C862 C863 1.362 . S
C863 H853 0.930 . S
C863 C856 1.409 . S
C863 C862 1.362 . S
H864 C870 0.930 . S
H865 C873 0.930 . S
H866 C874 0.930 . S
H867 C875 0.930 . S
H868 C878 0.930 . S
H869 C879 0.930 . S
C870 H864 0.930 . S
C870 C871 1.355 . S
C870 C872 1.415 . S
C871 C870 1.355 . S
C871 C873 1.419 . S
C872 C870 1.415 . S
C872 C877 1.425 . S
C872 C879 1.409 . S
C873 H865 0.930 . S
C873 C871 1.419 . S
C873 C874 1.362 . S
C874 H866 0.930 . S
C874 C873 1.362 . S
C874 C877 1.409 . S
C875 H867 0.930 . S
C875 C876 1.355 . S
C875 C877 1.415 . S
C876 C875 1.355 . S
C876 C878 1.419 . S
C877 C872 1.425 . S
C877 C874 1.409 . S
C877 C875 1.415 . S
C878 H868 0.930 . S
C878 C876 1.419 . S
C878 C879 1.362 . S
C879 H869 0.930 . S
C879 C872 1.409 . S
C879 C878 1.362 . S
H880 C886 0.930 . S
H881 C889 0.930 . S
H882 C890 0.930 . S
H883 C891 0.930 . S
H884 C894 0.930 . S
H885 C895 0.930 . S
C886 H880 0.930 . S
C886 C887 1.355 . S
C886 C888 1.415 . S
C887 C886 1.355 . S
C887 C889 1.419 . S
C888 C886 1.415 . S
C888 C893 1.425 . S
C888 C895 1.409 . S
C889 H881 0.930 . S
C889 C887 1.419 . S
C889 C890 1.362 . S
C890 H882 0.930 . S
C890 C889 1.362 . S
C890 C893 1.409 . S
C891 H883 0.930 . S
C891 C892 1.355 . S
C891 C893 1.415 . S
C892 C891 1.355 . S
C892 C894 1.419 . S
C893 C888 1.425 . S
C893 C890 1.409 . S
C893 C891 1.415 . S
C894 H884 0.930 . S
C894 C892 1.419 . S
C894 C895 1.362 . S
C895 H885 0.930 . S
C895 C888 1.409 . S
C895 C894 1.362 . S
H896 C902 0.930 . S
H897 C905 0.930 . S
H898 C906 0.930 . S
H899 C907 0.930 . S
H900 C910 0.930 . S
H901 C911 0.930 . S
C902 H896 0.930 . S
C902 C903 1.355 . S
C902 C904 1.415 . S
C903 C902 1.355 . S
C903 C905 1.419 . S
C904 C902 1.415 . S
C904 C909 1.425 . S
C904 C911 1.409 . S
C905 H897 0.930 . S
C905 C903 1.419 . S
C905 C906 1.362 . S
C906 H898 0.930 . S
C906 C905 1.362 . S
C906 C909 1.409 . S
C907 H899 0.930 . S
C907 C908 1.355 . S
C907 C909 1.415 . S
C908 C907 1.355 . S
C908 C910 1.419 . S
C909 C904 1.425 . S
C909 C906 1.409 . S
C909 C907 1.415 . S
C910 H900 0.930 . S
C910 C908 1.419 . S
C910 C911 1.362 . S
C911 H901 0.930 . S
C911 C904 1.409 . S
C911 C910 1.362 . S
H912 C918 0.930 . S
H913 C921 0.930 . S
H914 C922 0.930 . S
H915 C923 0.930 . S
H916 C926 0.930 . S
H917 C927 0.930 . S
C918 H912 0.930 . S
C918 C919 1.355 . S
C918 C920 1.415 . S
C919 C918 1.355 . S
C919 C921 1.419 . S
C920 C918 1.415 . S
C920 C925 1.425 . S
C920 C927 1.409 . S
C921 H913 0.930 . S
C921 C919 1.419 . S
C921 C922 1.362 . S
C922 H914 0.930 . S
C922 C921 1.362 . S
C922 C925 1.409 . S
C923 H915 0.930 . S
C923 C924 1.355 . S
C923 C925 1.415 . S
C924 C923 1.355 . S
C924 C926 1.419 . S
C925 C920 1.425 . S
C925 C922 1.409 . S
C925 C923 1.415 . S
C926 H916 0.930 . S
C926 C924 1.419 . S
C926 C927 1.362 . S
C927 H917 0.930 . S
C927 C920 1.409 . S
C927 C926 1.362 . S
H928 C934 0.930 . S
H929 C937 0.930 . S
H930 C938 0.930 . S
H931 C939 0.930 . S
H932 C942 0.930 . S
H933 C943 0.930 . S
C934 H928 0.930 . S
C934 C935 1.355 . S
C934 C936 1.415 . S
C935 C934 1.355 . S
C935 C937 1.419 . S
C936 C934 1.415 . S
C936 C941 1.425 . S
C936 C943 1.409 . S
C937 H929 0.930 . S
C937 C935 1.419 . S
C937 C938 1.362 . S
C938 H930 0.930 . S
C938 C937 1.362 . S
C938 C941 1.409 . S
C939 H931 0.930 . S
C939 C940 1.355 . S
C939 C941 1.415 . S
C940 C939 1.355 . S
C940 C942 1.419 . S
C941 C936 1.425 . S
C941 C938 1.409 . S
C941 C939 1.415 . S
C942 H932 0.930 . S
C942 C940 1.419 . S
C942 C943 1.362 . S
C943 H933 0.930 . S
C943 C936 1.409 . S
C943 C942 1.362 . S
H944 C950 0.930 . S
H945 C953 0.930 . S
H946 C954 0.930 . S
H947 C955 0.930 . S
H948 C958 0.930 . S
H949 C959 0.930 . S
C950 H944 0.930 . S
C950 C951 1.355 . S
C950 C952 1.415 . S
C951 C950 1.355 . S
C951 C953 1.419 . S
C952 C950 1.415 . S
C952 C957 1.425 . S
C952 C959 1.409 . S
C953 H945 0.930 . S
C953 C951 1.419 . S
C953 C954 1.362 . S
C954 H946 0.930 . S
C954 C953 1.362 . S
C954 C957 1.409 . S
C955 H947 0.930 . S
C955 C956 1.355 . S
C955 C957 1.415 . S
C956 C955 1.355 . S
C956 C958 1.419 . S
C957 C952 1.425 . S
C957 C954 1.409 . S
C957 C955 1.415 . S
C958 H948 0.930 . S
C958 C956 1.419 . S
C958 C959 1.362 . S
C959 H949 0.930 . S
C959 C952 1.409 . S
C959 C958 1.362 . S
H960 C966 0.930 . S
H961 C969 0.930 . S
H962 C970 0.930 . S
H963 C971 0.930 . S
H964 C974 0.930 . S
H965 C975 0.930 . S
C966 H960 0.930 . S
C966 C967 1.355 . S
C966 C968 1.415 . S
C967 C966 1.355 . S
C967 C969 1.419 . S
C968 C966 1.415 . S
C968 C973 1.425 . S
C968 C975 1.409 . S
C969 H961 0.930 . S
C969 C967 1.419 . S
C969 C970 1.362 . S
C970 H962 0.930 . S
C970 C969 1.362 . S
C970 C973 1.409 . S
C971 H963 0.930 . S
C971 C972 1.355 . S
C971 C973 1.415 . S
C972 C971 1.355 . S
C972 C974 1.419 . S
C973 C968 1.425 . S
C973 C970 1.409 . S
C973 C971 1.415 . S
C974 H964 0.930 . S
C974 C972 1.419 . S
C974 C975 1.362 . S
C975 H965 0.930 . S
C975 C968 1.409 . S
C975 C974 1.362 . S
H976 C982 0.930 . S
H977 C985 0.930 . S
H978 C986 0.930 . S
H979 C987 0.930 . S
H980 C990 0.930 . S
H981 C991 0.930 . S
C982 H976 0.930 . S
C982 C983 1.355 . S
C982 C984 1.415 . S
C983 C982 1.355 . S
C983 C985 1.419 . S
C984 C982 1.415 . S
C984 C989 1.425 . S
C984 C991 1.409 . S
C985 H977 0.930 . S
C985 C983 1.419 . S
C985 C986 1.362 . S
C986 H978 0.930 . S
C986 C985 1.362 . S
C986 C989 1.409 . S
C987 H979 0.930 . S
C987 C988 1.355 . S
C987 C989 1.415 . S
C988 C987 1.355 . S
C988 C990 1.419 . S
C989 C984 1.425 . S
C989 C986 1.409 . S
C989 C987 1.415 . S
C990 H980 0.930 . S
C990 C988 1.419 . S
C990 C991 1.362 . S
C991 H981 0.930 . S
C991 C984 1.409 . S
C991 C990 1.362 . S
H992 C998 0.930 . S
H993 C1001 0.930 . S
H994 C1002 0.930 . S
H995 C1003 0.930 . S
H996 C1006 0.911 1_655 S
H997 C1007 0.930 . S
C998 H992 0.930 . S
C998 C999 1.355 . S
C998 C1000 1.415 . S
C999 C998 1.355 . S
C999 C1001 1.419 . S
C1000 C998 1.415 . S
C1000 C1005 1.425 . S
C1000 C1007 1.409 . S
C1001 H993 0.930 . S
C1001 C999 1.419 . S
C1001 C1002 1.362 . S
C1002 H994 0.930 . S
C1002 C1001 1.362 . S
C1002 C1005 1.409 . S
C1003 H995 0.930 . S
C1003 C1004 1.355 . S
C1003 C1005 1.415 . S
C1004 C1003 1.355 . S
C1004 C1006 1.419 . S
C1005 C1000 1.425 . S
C1005 C1002 1.409 . S
C1005 C1003 1.415 . S
C1006 H996 0.911 1_455 S
C1006 C1004 1.419 . S
C1006 C1007 1.362 . S
C1007 H997 0.930 . S
C1007 C1000 1.409 . S
C1007 C1006 1.362 . S
H1008 C1014 0.930 . S
H1009 C1017 0.930 . S
H1010 C1018 0.930 . S
H1011 C1019 0.930 . S
H1012 C1022 0.930 . S
H1013 C1023 0.930 . S
C1014 H1008 0.930 . S
C1014 C1015 1.355 . S
C1014 C1016 1.415 . S
C1015 C1014 1.355 . S
C1015 C1017 1.419 . S
C1016 C1014 1.415 . S
C1016 C1021 1.425 . S
C1016 C1023 1.409 . S
C1017 H1009 0.930 . S
C1017 C1015 1.419 . S
C1017 C1018 1.362 . S
C1018 H1010 0.930 . S
C1018 C1017 1.362 . S
C1018 C1021 1.409 . S
C1019 H1011 0.930 . S
C1019 C1020 1.355 . S
C1019 C1021 1.415 . S
C1020 C1019 1.355 . S
C1020 C1022 1.419 . S
C1021 C1016 1.425 . S
C1021 C1018 1.409 . S
C1021 C1019 1.415 . S
C1022 H1012 0.930 . S
C1022 C1020 1.419 . S
C1022 C1023 1.362 . S
C1023 H1013 0.930 . S
C1023 C1016 1.409 . S
C1023 C1022 1.362 . S
C647 C1 1.082 . S
C652 C495 1.189 . S
C663 C80 1.694 . S
C668 C539 1.664 . S
C684 C569 2.262 . S
C679 C140 2.191 . S
C695 C211 2.751 . S
C700 C610 2.738 . S
C716 C526 0.864 . S
C711 C31 0.902 . S
C732 C490 2.517 . S
C727 C61 2.449 . S
C748 C618 1.221 . S
C743 C151 1.171 . S
C764 C579 2.298 . S
C759 C200 2.435 . S
C775 C20 1.160 . S
C780 C615 1.257 . S
C796 C529 2.108 . S
C791 C121 2.156 . S
C807 C181 2.051 . S
C812 C498 2.058 . S
C823 C91 2.014 . S
C828 C566 1.964 . S
C844 C486 1.142 . S
C839 C260 1.075 . S
C855 C320 1.686 . S
C860 C530 1.646 . S
C871 C361 2.115 . S
C876 C578 2.246 . S
C887 C451 2.750 . S
C892 C619 2.739 . S
C903 C271 0.859 . S
C908 C535 0.821 . S
C924 C499 2.510 . S
C919 C301 2.424 . S
C940 C609 1.208 . S
C935 C380 1.193 . S
C956 C570 2.352 . S
C951 C440 2.452 . S
C967 C241 1.126 . S
C972 C606 1.286 . S
C988 C538 2.063 . S
C983 C391 2.132 . S
C1004 C489 2.022 . S
C999 C421 2.019 . S
C1015 C331 2.035 . S
C1020 C575 2.000 . S
