# Generated by pormake.
# Topology anh, (6,3)-cn, num edge types: 1
# Building blocks:
#     Node 0, Type 0, BuildingBlock: MIFKUJ_clean_sbu_0, # of connection points: 6
#     Node 1, Type 0, BuildingBlock: MIFKUJ_clean_sbu_0, # of connection points: 6
#     Node 2, Type 0, BuildingBlock: MIFKUJ_clean_sbu_0, # of connection points: 6
#     Node 3, Type 1, BuildingBlock: BELTOD_clean_linker_0, # of connection points: 3
#     Node 4, Type 1, BuildingBlock: BELTOD_clean_linker_0, # of connection points: 3
#     Node 5, Type 1, BuildingBlock: BELTOD_clean_linker_0, # of connection points: 3
#     Node 6, Type 1, BuildingBlock: BELTOD_clean_linker_0, # of connection points: 3
#     Node 7, Type 1, BuildingBlock: BELTOD_clean_linker_0, # of connection points: 3
#     Node 8, Type 1, BuildingBlock: BELTOD_clean_linker_0, # of connection points: 3
#     Edge 9, Type (0, 1), BuildingBlock: AJUNOK_clean_linker_0, # of connection points: 2
#     Edge 10, Type (0, 1), BuildingBlock: AJUNOK_clean_linker_0, # of connection points: 2
#     Edge 11, Type (0, 1), BuildingBlock: AJUNOK_clean_linker_0, # of connection points: 2
#     Edge 12, Type (0, 1), BuildingBlock: AJUNOK_clean_linker_0, # of connection points: 2
#     Edge 13, Type (0, 1), BuildingBlock: AJUNOK_clean_linker_0, # of connection points: 2
#     Edge 14, Type (0, 1), BuildingBlock: AJUNOK_clean_linker_0, # of connection points: 2
#     Edge 15, Type (0, 1), BuildingBlock: AJUNOK_clean_linker_0, # of connection points: 2
#     Edge 16, Type (0, 1), BuildingBlock: AJUNOK_clean_linker_0, # of connection points: 2
#     Edge 17, Type (0, 1), BuildingBlock: AJUNOK_clean_linker_0, # of connection points: 2
#     Edge 18, Type (0, 1), BuildingBlock: AJUNOK_clean_linker_0, # of connection points: 2
#     Edge 19, Type (0, 1), BuildingBlock: AJUNOK_clean_linker_0, # of connection points: 2
#     Edge 20, Type (0, 1), BuildingBlock: AJUNOK_clean_linker_0, # of connection points: 2
#     Edge 21, Type (0, 1), BuildingBlock: AJUNOK_clean_linker_0, # of connection points: 2
#     Edge 22, Type (0, 1), BuildingBlock: AJUNOK_clean_linker_0, # of connection points: 2
#     Edge 23, Type (0, 1), BuildingBlock: AJUNOK_clean_linker_0, # of connection points: 2
#     Edge 24, Type (0, 1), BuildingBlock: AJUNOK_clean_linker_0, # of connection points: 2
#     Edge 25, Type (0, 1), BuildingBlock: AJUNOK_clean_linker_0, # of connection points: 2
#     Edge 26, Type (0, 1), BuildingBlock: AJUNOK_clean_linker_0, # of connection points: 2
# Relax obj value: 0.123
# Max RMSD: 0.179
# Mean RMSD: 0.143
data_MOF--net-anh--node1-MIFKUJ_clean_sbu_0--node2-BELTOD_clean_linker_0--edge1-AJUNOK_clean_linker_0
_symmetry_space_group_name_H-M    P1
_symmetry_Int_Tables_number       1
_symmetry_cell_setting            triclinic
loop_
_symmetry_equiv_pos_as_xyz
'x, y, z'
_cell_length_a     27.279667
_cell_length_b     27.177822
_cell_length_c     44.283053
_cell_angle_alpha  93.963978
_cell_angle_beta   90.714675
_cell_angle_gamma 120.02054
loop_
_atom_site_label
_atom_site_type_symbol
_atom_site_fract_x
_atom_site_fract_y
_atom_site_fract_z
_atom_type_partial_charge
Zn0 Zn 0.06269 0.61691 0.16042 0.0
Zn1 Zn 0.89858 0.49392 0.16131 0.0
C2 C 0.14283 0.58235 0.16035 0.0
O3 O 0.15818 0.61878 0.18451 0.0
C4 C 0.81262 0.51589 0.13986 0.0
O5 O 0.82788 0.50313 0.1138 0.0
O6 O 0.12041 0.69962 0.1583 0.0
O7 O 0.98917 0.59385 0.1398 0.0
O8 O 0.93266 0.50756 0.1204 0.0
C9 C 0.15354 0.71221 0.13658 0.0
O10 O 0.14395 0.67239 0.11494 0.0
O11 O 0.09878 0.57162 0.14452 0.0
C12 C 0.84913 0.38621 0.18775 0.0
O13 O 0.87381 0.41888 0.21285 0.0
O14 O 0.8552 0.40913 0.16302 0.0
O15 O 0.95621 0.52906 0.19795 0.0
O16 O 0.04674 0.59844 0.20328 0.0
O17 O 0.83944 0.51798 0.16405 0.0
C18 C 0.97391 0.55685 0.1175 0.0
C19 C 0.00175 0.56068 0.21435 0.0
Zn20 Zn 0.53271 0.07271 0.50238 0.0
Zn21 Zn 0.51378 0.92899 0.5038 0.0
C22 C 0.64494 0.16912 0.50346 0.0
O23 O 0.62441 0.18475 0.5265 0.0
C24 C 0.39986 0.84816 0.47694 0.0
O25 O 0.42493 0.86225 0.45127 0.0
O26 O 0.50461 0.1277 0.50373 0.0
O27 O 0.4859 0.01021 0.46942 0.0
O28 O 0.54027 0.972 0.46699 0.0
C29 C 0.50924 0.15439 0.48054 0.0
O30 O 0.52478 0.13889 0.45534 0.0
O31 O 0.61377 0.12006 0.48942 0.0
C32 C 0.5557 0.86007 0.52586 0.0
O33 O 0.53598 0.86905 0.55128 0.0
O34 O 0.55052 0.88146 0.50232 0.0
O35 O 0.53728 0.97342 0.54437 0.0
O36 O 0.5367 0.05491 0.54565 0.0
O37 O 0.42876 0.87248 0.50172 0.0
C38 C 0.51501 0.99393 0.45418 0.0
C39 C 0.5426 0.01794 0.55882 0.0
Zn40 Zn 0.56998 0.50715 0.83139 0.0
Zn41 Zn 0.45138 0.51641 0.81846 0.0
C42 C 0.5469 0.39662 0.84559 0.0
O43 O 0.56753 0.42643 0.87188 0.0
C44 C 0.47846 0.62964 0.81052 0.0
O45 O 0.4393 0.59995 0.7888 0.0
O46 O 0.65368 0.54166 0.84 0.0
O47 O 0.56497 0.54192 0.79353 0.0
O48 O 0.47394 0.49354 0.77918 0.0
C49 C 0.68027 0.52242 0.82446 0.0
O50 O 0.6526 0.48133 0.80282 0.0
O51 O 0.54055 0.42135 0.82366 0.0
C52 C 0.35504 0.51347 0.83855 0.0
O53 O 0.38964 0.53127 0.86281 0.0
O54 O 0.3708 0.5003 0.81389 0.0
O55 O 0.44983 0.47411 0.85456 0.0
O56 O 0.53986 0.52235 0.86996 0.0
O57 O 0.49573 0.60393 0.82696 0.0
C58 C 0.52569 0.51956 0.77273 0.0
C59 C 0.48812 0.49214 0.8757 0.0
P60 P 0.55551 0.96903 0.22258 0.0
H61 H 0.5189 0.94471 0.15845 0.0
H62 H 0.42497 0.89936 0.13207 0.0
H63 H 0.3491 0.88716 0.21839 0.0
H64 H 0.44199 0.93491 0.24408 0.0
H65 H 0.67849 0.0282 0.22712 0.0
H66 H 0.7511 0.12436 0.21607 0.0
H67 H 0.62034 0.15405 0.18144 0.0
H68 H 0.54806 0.0583 0.19264 0.0
H69 H 0.51213 0.88781 0.26845 0.0
H70 H 0.5844 0.06939 0.2649 0.0
O71 O 0.57592 0.92107 0.21541 0.0
H72 H 0.4991 0.89815 0.32285 0.0
H73 H 0.57293 0.07969 0.31935 0.0
C74 C 0.48756 0.94294 0.2032 0.0
C75 C 0.48199 0.93348 0.17152 0.0
C76 C 0.42838 0.90757 0.15651 0.0
C77 C 0.37951 0.89016 0.17307 0.0
C78 C 0.38574 0.90154 0.20477 0.0
C79 C 0.43923 0.92811 0.21964 0.0
C80 C 0.60817 0.03576 0.20998 0.0
C81 C 0.66564 0.05498 0.21649 0.0
C82 C 0.70693 0.10984 0.21036 0.0
C83 C 0.69117 0.14606 0.19757 0.0
C84 C 0.63357 0.12635 0.19066 0.0
C85 C 0.59229 0.07167 0.19703 0.0
C86 C 0.55028 0.9779 0.2628 0.0
C87 C 0.52583 0.92986 0.27942 0.0
C88 C 0.51794 0.93565 0.31027 0.0
C89 C 0.53491 0.98963 0.32485 0.0
C90 C 0.55953 0.03774 0.30832 0.0
C91 C 0.56648 0.03181 0.27734 0.0
P92 P 0.67825 0.56994 0.55633 0.0
H93 H 0.71278 0.50315 0.5167 0.0
H94 H 0.6602 0.4051 0.49353 0.0
H95 H 0.50386 0.39099 0.52348 0.0
H96 H 0.55705 0.48817 0.54785 0.0
H97 H 0.75007 0.69333 0.56192 0.0
H98 H 0.7306 0.76893 0.55017 0.0
H99 H 0.573 0.64301 0.50299 0.0
H100 H 0.59222 0.56804 0.51467 0.0
H101 H 0.64317 0.47929 0.5969 0.0
H102 H 0.65104 0.64216 0.59775 0.0
O103 O 0.74635 0.58823 0.56016 0.0
H104 H 0.60188 0.46552 0.64663 0.0
H105 H 0.61089 0.62868 0.64733 0.0
C106 C 0.63885 0.50244 0.53431 0.0
C107 C 0.66715 0.47923 0.51795 0.0
C108 C 0.63698 0.42337 0.50452 0.0
C109 C 0.57806 0.39022 0.50714 0.0
C110 C 0.54937 0.41518 0.52168 0.0
C111 C 0.57967 0.47074 0.53541 0.0
C112 C 0.67264 0.62504 0.53922 0.0
C113 C 0.71239 0.68227 0.54806 0.0
C114 C 0.70115 0.7253 0.54154 0.0
C115 C 0.6504 0.71151 0.52571 0.0
C116 C 0.61278 0.65469 0.51489 0.0
C117 C 0.6237 0.6117 0.52174 0.0
C118 C 0.64966 0.56138 0.59331 0.0
C119 C 0.63589 0.51193 0.60763 0.0
C120 C 0.61203 0.5039 0.63588 0.0
C121 C 0.6026 0.54575 0.65041 0.0
C122 C 0.61748 0.59571 0.63637 0.0
C123 C 0.64063 0.6034 0.60799 0.0
P124 P 0.09444 0.66419 0.90117 0.0
H125 H 0.19255 0.7039 0.86354 0.0
H126 H 0.24247 0.65697 0.8422 0.0
H127 H 0.11565 0.49768 0.87376 0.0
H128 H 0.06544 0.5446 0.89481 0.0
H129 H 0.00288 0.6795 0.92308 0.0
H130 H 0.90738 0.6476 0.90248 0.0
H131 H 0.94359 0.58166 0.81937 0.0
H132 H 0.03847 0.61131 0.8408 0.0
H133 H 0.16167 0.71556 0.9587 0.0
H134 H 0.00356 0.56571 0.92736 0.0
O135 O 0.1373 0.73467 0.90212 0.0
H136 H 0.14347 0.68866 0.01095 0.0
H137 H 0.98481 0.53938 0.97917 0.0
C138 C 0.12608 0.62801 0.88137 0.0
C139 C 0.1749 0.65869 0.86542 0.0
C140 C 0.20311 0.63172 0.85297 0.0
C141 C 0.1828 0.57373 0.85636 0.0
C142 C 0.13212 0.54245 0.87091 0.0
C143 C 0.10369 0.56933 0.8831 0.0
C144 C 0.02705 0.64632 0.8838 0.0
C145 C 0.99023 0.65808 0.90043 0.0
C146 C 0.93578 0.64016 0.88855 0.0
C147 C 0.91752 0.61108 0.85952 0.0
C148 C 0.95581 0.60232 0.84218 0.0
C149 C 0.01019 0.61964 0.85431 0.0
C150 C 0.08352 0.64312 0.93929 0.0
C151 C 0.12327 0.67681 0.96303 0.0
C152 C 0.11292 0.66139 0.99279 0.0
C153 C 0.06299 0.61166 -0.00093 0.0
C154 C 0.02425 0.57721 0.975 0.0
C155 C 0.03464 0.59262 0.94538 0.0
P156 P 0.04565 0.46152 0.4328 0.0
H157 H 0.15025 0.49995 0.4698 0.0
H158 H 0.22791 0.59601 0.48529 0.0
H159 H 0.12282 0.66549 0.4605 0.0
H160 H 0.04465 0.56883 0.44515 0.0
H161 H 0.99329 0.34195 0.44537 0.0
H162 H 0.90007 0.27373 0.46164 0.0
H163 H 0.85664 0.4063 0.4708 0.0
H164 H 0.95104 0.47521 0.45464 0.0
H165 H 0.11648 0.55564 0.39677 0.0
H166 H 0.94988 0.4057 0.38702 0.0
O167 O 0.08108 0.42675 0.4266 0.0
H168 H 0.10222 0.58113 0.34731 0.0
H169 H 0.93697 0.42889 0.33618 0.0
C170 C 0.09188 0.52717 0.45578 0.0
C171 C 0.14297 0.53547 0.4687 0.0
C172 C 0.18752 0.59054 0.47752 0.0
C173 C 0.18183 0.63827 0.47337 0.0
C174 C 0.12864 0.62946 0.46343 0.0
C175 C 0.08375 0.57418 0.45499 0.0
C176 C 0.9795 0.414 0.44904 0.0
C177 C 0.96421 0.35683 0.45119 0.0
C178 C 0.91051 0.31751 0.46017 0.0
C179 C 0.87062 0.33435 0.46698 0.0
C180 C 0.8865 0.39206 0.46564 0.0
C181 C 0.94044 0.43151 0.45655 0.0
C182 C 0.0333 0.48001 0.39626 0.0
C183 C 0.07635 0.52852 0.38421 0.0
C184 C 0.06847 0.54272 0.35563 0.0
C185 C 0.01808 0.50757 0.33788 0.0
C186 C 0.97547 0.45799 0.34965 0.0
C187 C 0.98299 0.44442 0.37865 0.0
P188 P 0.6036 0.05329 0.79435 0.0
H189 H 0.64351 0.14188 0.84483 0.0
H190 H 0.62044 0.21627 0.85833 0.0
H191 H 0.47988 0.13718 0.79166 0.0
H192 H 0.50323 0.06234 0.7782 0.0
H193 H 0.6521 0.00331 0.83316 0.0
H194 H 0.62133 0.90503 0.84287 0.0
H195 H 0.46229 0.84918 0.79321 0.0
H196 H 0.49221 0.94818 0.78522 0.0
H197 H 0.61733 0.13623 0.75179 0.0
H198 H 0.57587 0.96025 0.74642 0.0
O199 O 0.67342 0.08888 0.80255 0.0
H200 H 0.60649 0.13055 0.69653 0.0
H201 H 0.56215 0.95364 0.69165 0.0
C202 C 0.57555 0.0968 0.81027 0.0
C203 C 0.60672 0.13945 0.83367 0.0
C204 C 0.59342 0.18207 0.84141 0.0
C205 C 0.54843 0.18283 0.82597 0.0
C206 C 0.51503 0.13798 0.8038 0.0
C207 C 0.52808 0.09495 0.79627 0.0
C208 C 0.57464 0.98325 0.80821 0.0
C209 C 0.60989 0.97019 0.82512 0.0
C210 C 0.59243 0.91367 0.83042 0.0
C211 C 0.5394 0.86865 0.81873 0.0
C212 C 0.5029 0.88241 0.80322 0.0
C213 C 0.52003 0.93921 0.79847 0.0
C214 C 0.59513 0.04805 0.75351 0.0
C215 C 0.60494 0.09609 0.73885 0.0
C216 C 0.59875 0.09286 0.70726 0.0
C217 C 0.58344 0.04167 0.68972 0.0
C218 C 0.57472 0.99394 0.70447 0.0
C219 C 0.58149 0.99741 0.736 0.0
P220 P 0.40461 0.41676 0.10197 0.0
H221 H 0.45928 0.38417 0.14759 0.0
H222 H 0.55913 0.42049 0.16152 0.0
H223 H 0.60589 0.56383 0.10865 0.0
H224 H 0.50571 0.52666 0.09433 0.0
H225 H 0.28243 0.36364 0.10443 0.0
H226 H 0.21971 0.40099 0.11759 0.0
H227 H 0.36564 0.56786 0.14054 0.0
H228 H 0.42834 0.52998 0.12777 0.0
H229 H 0.46326 0.38279 0.05854 0.0
H230 H 0.36543 0.46778 0.05751 0.0
O231 O 0.37322 0.34746 0.10722 0.0
H232 H 0.48106 0.39757 0.00484 0.0
H233 H 0.38315 0.48247 0.00411 0.0
C234 C 0.47513 0.45242 0.11969 0.0
C235 C 0.49079 0.42432 0.13974 0.0
C236 C 0.54799 0.44536 0.14785 0.0
C237 C 0.59039 0.49501 0.13613 0.0
C238 C 0.57413 0.52536 0.11792 0.0
C239 C 0.51691 0.5043 0.10985 0.0
C240 C 0.36001 0.44374 0.11577 0.0
C241 C 0.30098 0.40806 0.11279 0.0
C242 C 0.26515 0.42959 0.11988 0.0
C243 C 0.28781 0.48746 0.12973 0.0
C244 C 0.34707 0.52302 0.13308 0.0
C245 C 0.38293 0.5014 0.12592 0.0
C246 C 0.41268 0.42368 0.06197 0.0
C247 C 0.44508 0.40398 0.04669 0.0
C248 C 0.45546 0.41266 0.01616 0.0
C249 C 0.43307 0.44073 0.0004 0.0
C250 C 0.40007 0.45987 0.01567 0.0
C251 C 0.39006 0.45155 0.04625 0.0
C252 C 0.22285 0.56546 0.17179 0.0
C253 C 0.17791 0.55638 0.1518 0.0
C254 C 0.25807 0.54315 0.16442 0.0
C255 C 0.24978 0.51065 0.13679 0.0
H256 H 0.23112 0.59008 0.19345 0.0
H257 H 0.29179 0.55099 0.18064 0.0
S258 S 0.14018 0.47644 0.07577 0.0
N259 N 0.12814 0.51366 0.10267 0.0
N260 N 0.19469 0.47197 0.08879 0.0
C261 C 0.20525 0.5013 0.11647 0.0
C262 C 0.16928 0.5241 0.12396 0.0
C263 C 0.73622 0.26269 0.51057 0.0
C264 C 0.7025 0.20975 0.49357 0.0
C265 C 0.79005 0.30279 0.50168 0.0
C266 C 0.8127 0.29166 0.47549 0.0
H267 H 0.72106 0.27351 0.53103 0.0
H268 H 0.81448 0.34257 0.51569 0.0
S269 S 0.74094 0.16141 0.42186 0.0
N270 N 0.6954 0.14957 0.44848 0.0
N271 N 0.79634 0.22497 0.4318 0.0
C272 C 0.77939 0.23926 0.45806 0.0
C273 C 0.72445 0.19838 0.46707 0.0
C274 C 0.55151 0.73384 0.81358 0.0
C275 C 0.49582 0.69044 0.81738 0.0
C276 C 0.56554 0.7914 0.81498 0.0
C277 C 0.52448 0.80777 0.82051 0.0
H278 H 0.58375 0.72304 0.80801 0.0
H279 H 0.60844 0.82303 0.81042 0.0
S280 S 0.37403 0.70961 0.83605 0.0
N281 N 0.40044 0.66725 0.82915 0.0
N282 N 0.42684 0.77503 0.83305 0.0
C283 C 0.46926 0.76451 0.82596 0.0
C284 C 0.45498 0.70604 0.82409 0.0
C285 C 0.73454 0.52181 0.1135 0.0
C286 C 0.7602 0.51975 0.1408 0.0
C287 C 0.681 0.51702 0.11262 0.0
C288 C 0.65068 0.50976 0.13898 0.0
H289 H 0.75501 0.5251 0.09233 0.0
H290 H 0.662 0.51606 0.09079 0.0
S291 S 0.70131 0.50845 0.21686 0.0
N292 N 0.75303 0.51504 0.19542 0.0
N293 N 0.6522 0.50606 0.19361 0.0
C294 C 0.67696 0.51076 0.16671 0.0
C295 C 0.7318 0.51594 0.16768 0.0
C296 C 0.3229 0.76712 0.50249 0.0
C297 C 0.34092 0.79921 0.47709 0.0
C298 C 0.27033 0.71625 0.50167 0.0
C299 C 0.23322 0.69615 0.47567 0.0
H300 H 0.35065 0.77991 0.52272 0.0
H301 H 0.25922 0.69167 0.52124 0.0
S302 S 0.25819 0.76628 0.40395 0.0
N303 N 0.3158 0.80859 0.42578 0.0
N304 N 0.2171 0.71353 0.42437 0.0
C305 C 0.24953 0.72918 0.45066 0.0
C306 C 0.30331 0.78051 0.45133 0.0
C307 C 0.53706 0.31364 0.81142 0.0
C308 C 0.53911 0.33814 0.84085 0.0
C309 C 0.53746 0.26207 0.80675 0.0
C310 C 0.53993 0.23289 0.83131 0.0
H311 H 0.53754 0.33558 0.79182 0.0
H312 H 0.53839 0.24627 0.78375 0.0
S313 S 0.53758 0.27422 0.91263 0.0
N314 N 0.53774 0.32569 0.89482 0.0
N315 N 0.5384 0.2292 0.88591 0.0
C316 C 0.53886 0.25525 0.86072 0.0
C317 C 0.53841 0.30763 0.86551 0.0
C318 C 0.60423 0.81642 0.55176 0.0
C319 C 0.58343 0.8253 0.5247 0.0
C320 C 0.62856 0.78173 0.5516 0.0
C321 C 0.63239 0.75425 0.52442 0.0
H322 H 0.6012 0.83589 0.57331 0.0
H323 H 0.64246 0.77458 0.57305 0.0
S324 S 0.58673 0.76526 0.4473 0.0
N325 N 0.5704 0.80545 0.46976 0.0
N326 N 0.61577 0.73963 0.46973 0.0
C327 C 0.61313 0.76374 0.49713 0.0
C328 C 0.58882 0.79953 0.4972 0.0
C329 C 0.77549 0.60122 0.84422 0.0
C330 C 0.74125 0.5449 0.83137 0.0
C331 C 0.83289 0.62284 0.85224 0.0
C332 C 0.85806 0.58871 0.84812 0.0
H333 H 0.7578 0.62886 0.84815 0.0
H334 H 0.85764 0.66653 0.86206 0.0
S335 S 0.7858 0.43735 0.81655 0.0
N336 N 0.73619 0.45513 0.81505 0.0
N337 N 0.84367 0.49511 0.83108 0.0
C338 C 0.82427 0.53233 0.83511 0.0
C339 C 0.76596 0.51057 0.82654 0.0
C340 C 0.25702 0.7629 0.12913 0.0
C341 C 0.20971 0.76448 0.14024 0.0
C342 C 0.31218 0.80616 0.13813 0.0
C343 C 0.32207 0.853 0.15824 0.0
H344 H 0.25166 0.72595 0.11523 0.0
H345 H 0.34706 0.8006 0.13097 0.0
S346 S 0.21251 0.88343 0.18798 0.0
N347 N 0.176 0.82044 0.1686 0.0
N348 N 0.28 0.90323 0.1846 0.0
C349 C 0.27512 0.85788 0.16697 0.0
C350 C 0.21885 0.81326 0.15819 0.0
C351 C 0.54085 0.25067 0.46308 0.0
C352 C 0.51315 0.21079 0.48446 0.0
C353 C 0.55849 0.30845 0.46973 0.0
C354 C 0.54855 0.32826 0.49784 0.0
H355 H 0.55254 0.23811 0.44186 0.0
H356 H 0.58254 0.33827 0.45336 0.0
S357 S 0.47011 0.23988 0.55976 0.0
N358 N 0.47014 0.19405 0.5333 0.0
N359 N 0.50432 0.30276 0.54602 0.0
C360 C 0.51668 0.28815 0.51836 0.0
C361 C 0.49865 0.22933 0.51159 0.0
C362 C 0.27662 0.51062 0.86743 0.0
C363 C 0.30316 0.51747 0.8398 0.0
C364 C 0.23481 0.52541 0.87179 0.0
C365 C 0.2187 0.54851 0.84883 0.0
H366 H 0.29 0.49599 0.88632 0.0
H367 H 0.2175 0.52199 0.89394 0.0
S368 S 0.27162 0.57035 0.77142 0.0
N369 N 0.30714 0.54441 0.78826 0.0
N370 N 0.22911 0.57353 0.79675 0.0
C371 C 0.24265 0.55278 0.82054 0.0
C372 C 0.28464 0.53671 0.81591 0.0
C373 C 0.80791 0.299 0.21611 0.0
C374 C 0.81159 0.32389 0.18876 0.0
C375 C 0.77005 0.241 0.21845 0.0
C376 C 0.7342 0.20581 0.19361 0.0
H377 H 0.83376 0.32462 0.23609 0.0
H378 H 0.76759 0.22395 0.24014 0.0
S379 S 0.72948 0.2482 0.11638 0.0
N380 N 0.77777 0.30752 0.13575 0.0
N381 N 0.70653 0.19847 0.14046 0.0
C382 C 0.73835 0.22945 0.16593 0.0
C383 C 0.77715 0.28847 0.16341 0.0
C384 C 0.02891 0.62706 0.08057 0.0
C385 C 0.00365 0.57088 0.08899 0.0
C386 C 0.05083 0.64051 0.05196 0.0
C387 C 0.04832 0.59823 0.03075 0.0
H388 H 0.02956 0.66051 0.09569 0.0
H389 H 0.06727 0.68375 0.04589 0.0
S390 S 0.99443 0.44649 0.04345 0.0
N391 N 0.98272 0.47391 0.07511 0.0
N392 N 0.02466 0.49936 0.02139 0.0
C393 C 0.02634 0.54261 0.03958 0.0
C394 C 0.00375 0.52886 0.06868 0.0
C395 C 0.57236 0.01764 0.40885 0.0
C396 C 0.51941 0.99888 0.42139 0.0
C397 C 0.57731 0.01675 0.37744 0.0
C398 C 0.52923 0.9958 0.35766 0.0
H399 H 0.61008 0.03216 0.42345 0.0
H400 H 0.61862 0.03061 0.36854 0.0
S401 S 0.38122 0.94201 0.37899 0.0
N402 N 0.41829 0.96021 0.41172 0.0
N403 N 0.42742 0.95676 0.3524 0.0
C404 C 0.47622 0.97781 0.36981 0.0
C405 C 0.47134 0.9799 0.40183 0.0
C406 C 0.59319 0.57406 0.73426 0.0
C407 C 0.54164 0.52643 0.74091 0.0
C408 C 0.61186 0.58041 0.70477 0.0
C409 C 0.58016 0.53892 0.68095 0.0
H410 H 0.61959 0.60668 0.75202 0.0
H411 H 0.65209 0.61744 0.70071 0.0
S412 S 0.44188 0.40702 0.68601 0.0
N413 N 0.45847 0.43774 0.72102 0.0
N414 N 0.49429 0.44945 0.66547 0.0
C415 C 0.52828 0.49143 0.68708 0.0
C416 C 0.50874 0.48533 0.71709 0.0
C417 C 0.53483 0.05413 0.6111 0.0
C418 C 0.55589 0.02638 0.59192 0.0
C419 C 0.5445 0.05953 0.64268 0.0
C420 C 0.57601 0.03786 0.65617 0.0
H421 H 0.50943 0.07042 0.60173 0.0
H422 H 0.52604 0.07967 0.65667 0.0
S423 S 0.64696 0.96871 0.61552 0.0
N424 N 0.61377 0.98148 0.58843 0.0
N425 N 0.6328 0.99259 0.6476 0.0
C426 C 0.5992 0.01212 0.63709 0.0
C427 C 0.58896 0.00619 0.60503 0.0
C428 C 0.51539 0.49223 0.92994 0.0
C429 C 0.47254 0.47726 0.90718 0.0
C430 C 0.50218 0.47946 0.95991 0.0
C431 C 0.4457 0.45175 0.96836 0.0
H432 H 0.55964 0.51412 0.92467 0.0
H433 H 0.53653 0.49231 0.97674 0.0
S434 S 0.31736 0.40068 0.91767 0.0
N435 N 0.37069 0.43076 0.8953 0.0
N436 N 0.34645 0.40771 0.95177 0.0
C437 C 0.40237 0.43588 0.94596 0.0
C438 C 0.41563 0.44831 0.91534 0.0
C439 C 0.0549 0.55411 0.25841 0.0
C440 C 0.00463 0.54908 0.24624 0.0
C441 C 0.05844 0.54018 0.28786 0.0
C442 C 0.01214 0.52147 0.30659 0.0
H443 H 0.0915 0.56749 0.2448 0.0
H444 H 0.09769 0.54331 0.29583 0.0
S445 S 0.87217 0.50547 0.2861 0.0
N446 N 0.90815 0.52626 0.2553 0.0
N447 N 0.91521 0.50166 0.31119 0.0
C448 C 0.96182 0.51727 0.29485 0.0
C449 C 0.95801 0.53078 0.26459 0.0
loop_
_geom_bond_atom_site_label_1
_geom_bond_atom_site_label_2
_geom_bond_distance
_geom_bond_site_symmetry_2
_ccdc_geom_bond_type
Zn0 O6 1.969 . S
Zn0 O7 1.965 . S
Zn0 O11 2.024 . S
Zn0 O16 1.969 . S
Zn1 O8 1.969 . S
Zn1 O14 1.969 . S
Zn1 O15 1.965 . S
Zn1 O17 2.024 . S
C2 O3 1.229 . S
C2 O11 1.058 . S
O3 C2 1.229 . S
C4 O5 1.229 . S
C4 O17 1.058 . S
O5 C4 1.229 . S
O6 Zn0 1.969 . S
O6 C9 1.267 . S
O7 Zn0 1.965 . S
O7 C18 1.260 1_455 S
O8 Zn1 1.969 . S
O8 C18 1.258 . S
C9 O6 1.267 . S
C9 O10 1.228 . S
O10 C9 1.228 . S
O11 Zn0 2.024 . S
O11 C2 1.058 . S
C12 O13 1.228 . S
C12 O14 1.267 . S
O13 C12 1.228 . S
O14 Zn1 1.969 . S
O14 C12 1.267 . S
O15 Zn1 1.965 . S
O15 C19 1.260 1_655 S
O16 Zn0 1.969 . S
O16 C19 1.258 . S
O17 Zn1 2.024 . S
O17 C4 1.058 . S
C18 O7 1.260 1_655 S
C18 O8 1.258 . S
C19 O15 1.260 1_455 S
C19 O16 1.258 . S
Zn20 O26 1.969 . S
Zn20 O27 1.965 . S
Zn20 O31 2.024 . S
Zn20 O36 1.969 . S
Zn21 O28 1.969 . S
Zn21 O34 1.969 . S
Zn21 O35 1.965 . S
Zn21 O37 2.024 . S
C22 O23 1.229 . S
C22 O31 1.058 . S
O23 C22 1.229 . S
C24 O25 1.229 . S
C24 O37 1.058 . S
O25 C24 1.229 . S
O26 Zn20 1.969 . S
O26 C29 1.267 . S
O27 Zn20 1.965 . S
O27 C38 1.260 . S
O28 Zn21 1.969 . S
O28 C38 1.258 1_565 S
C29 O26 1.267 . S
C29 O30 1.228 . S
O30 C29 1.228 . S
O31 Zn20 2.024 . S
O31 C22 1.058 . S
C32 O33 1.228 . S
C32 O34 1.267 . S
O33 C32 1.228 . S
O34 Zn21 1.969 . S
O34 C32 1.267 . S
O35 Zn21 1.965 . S
O35 C39 1.260 1_565 S
O36 Zn20 1.969 . S
O36 C39 1.258 . S
O37 Zn21 2.024 . S
O37 C24 1.058 . S
C38 O27 1.260 . S
C38 O28 1.258 1_545 S
C39 O35 1.260 1_545 S
C39 O36 1.258 . S
Zn40 O46 1.969 . S
Zn40 O47 1.965 . S
Zn40 O51 2.024 . S
Zn40 O56 1.969 . S
Zn41 O48 1.969 . S
Zn41 O54 1.969 . S
Zn41 O55 1.965 . S
Zn41 O57 2.024 . S
C42 O43 1.229 . S
C42 O51 1.058 . S
O43 C42 1.229 . S
C44 O45 1.229 . S
C44 O57 1.058 . S
O45 C44 1.229 . S
O46 Zn40 1.969 . S
O46 C49 1.267 . S
O47 Zn40 1.965 . S
O47 C58 1.260 . S
O48 Zn41 1.969 . S
O48 C58 1.258 . S
C49 O46 1.267 . S
C49 O50 1.228 . S
O50 C49 1.228 . S
O51 Zn40 2.024 . S
O51 C42 1.058 . S
C52 O53 1.228 . S
C52 O54 1.267 . S
O53 C52 1.228 . S
O54 Zn41 1.969 . S
O54 C52 1.267 . S
O55 Zn41 1.965 . S
O55 C59 1.260 . S
O56 Zn40 1.969 . S
O56 C59 1.258 . S
O57 Zn41 2.024 . S
O57 C44 1.058 . S
C58 O47 1.260 . S
C58 O48 1.258 . S
C59 O55 1.260 . S
C59 O56 1.258 . S
P60 O71 1.490 . S
P60 C74 1.812 . S
P60 C80 1.803 1_565 S
P60 C86 1.819 1_565 S
H61 C75 0.941 . S
H62 C76 0.939 . S
H63 C78 0.940 . S
H64 C79 0.940 . S
H65 C81 0.939 . S
H66 C82 0.942 . S
H67 C84 0.940 . S
H68 C85 0.939 . S
H69 C87 0.941 . S
H70 C91 0.939 . S
O71 P60 1.490 . S
H72 C88 0.939 . S
H73 C90 0.940 . S
C74 P60 1.812 . S
C74 C75 1.389 . S
C74 C79 1.391 . S
C75 H61 0.941 . S
C75 C74 1.389 . S
C75 C76 1.397 . S
C76 H62 0.939 . S
C76 C75 1.397 . S
C76 C77 1.378 . S
C77 C76 1.378 . S
C77 C78 1.378 . S
C78 H63 0.940 . S
C78 C77 1.378 . S
C78 C79 1.396 . S
C79 H64 0.940 . S
C79 C74 1.391 . S
C79 C78 1.396 . S
C80 P60 1.803 1_545 S
C80 C81 1.378 . S
C80 C85 1.400 . S
C81 H65 0.939 . S
C81 C80 1.378 . S
C81 C82 1.361 . S
C82 H66 0.942 . S
C82 C81 1.361 . S
C82 C83 1.369 . S
C83 C82 1.369 . S
C83 C84 1.404 . S
C84 H67 0.940 . S
C84 C83 1.404 . S
C84 C85 1.389 . S
C85 H68 0.939 . S
C85 C80 1.400 . S
C85 C84 1.389 . S
C86 P60 1.819 1_545 S
C86 C87 1.391 1_545 S
C86 C91 1.391 . S
C87 H69 0.941 . S
C87 C86 1.391 1_565 S
C87 C88 1.396 . S
C88 H72 0.939 . S
C88 C87 1.396 . S
C88 C89 1.397 1_565 S
C89 C88 1.397 1_545 S
C89 C90 1.385 . S
C90 H73 0.940 . S
C90 C89 1.385 . S
C90 C91 1.388 . S
C91 H70 0.939 . S
C91 C86 1.391 . S
C91 C90 1.388 . S
P92 O103 1.490 . S
P92 C106 1.812 . S
P92 C112 1.803 . S
P92 C118 1.819 . S
H93 C107 0.941 . S
H94 C108 0.939 . S
H95 C110 0.940 . S
H96 C111 0.940 . S
H97 C113 0.939 . S
H98 C114 0.942 . S
H99 C116 0.940 . S
H100 C117 0.939 . S
H101 C119 0.941 . S
H102 C123 0.939 . S
O103 P92 1.490 . S
H104 C120 0.939 . S
H105 C122 0.940 . S
C106 P92 1.812 . S
C106 C107 1.389 . S
C106 C111 1.391 . S
C107 H93 0.941 . S
C107 C106 1.389 . S
C107 C108 1.397 . S
C108 H94 0.939 . S
C108 C107 1.397 . S
C108 C109 1.378 . S
C109 C108 1.378 . S
C109 C110 1.378 . S
C110 H95 0.940 . S
C110 C109 1.378 . S
C110 C111 1.396 . S
C111 H96 0.940 . S
C111 C106 1.391 . S
C111 C110 1.396 . S
C112 P92 1.803 . S
C112 C113 1.378 . S
C112 C117 1.400 . S
C113 H97 0.939 . S
C113 C112 1.378 . S
C113 C114 1.361 . S
C114 H98 0.942 . S
C114 C113 1.361 . S
C114 C115 1.369 . S
C115 C114 1.369 . S
C115 C116 1.404 . S
C116 H99 0.940 . S
C116 C115 1.404 . S
C116 C117 1.389 . S
C117 H100 0.939 . S
C117 C112 1.400 . S
C117 C116 1.389 . S
C118 P92 1.819 . S
C118 C119 1.391 . S
C118 C123 1.391 . S
C119 H101 0.941 . S
C119 C118 1.391 . S
C119 C120 1.396 . S
C120 H104 0.939 . S
C120 C119 1.396 . S
C120 C121 1.397 . S
C121 C120 1.397 . S
C121 C122 1.385 . S
C122 H105 0.940 . S
C122 C121 1.385 . S
C122 C123 1.388 . S
C123 H102 0.939 . S
C123 C118 1.391 . S
C123 C122 1.388 . S
P124 O135 1.490 . S
P124 C138 1.812 . S
P124 C144 1.803 . S
P124 C150 1.819 . S
H125 C139 0.941 . S
H126 C140 0.939 . S
H127 C142 0.940 . S
H128 C143 0.940 . S
H129 C145 0.939 . S
H130 C146 0.942 . S
H131 C148 0.940 . S
H132 C149 0.939 . S
H133 C151 0.941 . S
H134 C155 0.937 1_655 S
O135 P124 1.490 . S
H136 C152 0.938 1_554 S
H137 C154 0.940 . S
C138 P124 1.812 . S
C138 C139 1.389 . S
C138 C143 1.391 . S
C139 H125 0.941 . S
C139 C138 1.389 . S
C139 C140 1.397 . S
C140 H126 0.939 . S
C140 C139 1.397 . S
C140 C141 1.378 . S
C141 C140 1.378 . S
C141 C142 1.378 . S
C142 H127 0.940 . S
C142 C141 1.378 . S
C142 C143 1.396 . S
C143 H128 0.940 . S
C143 C138 1.391 . S
C143 C142 1.396 . S
C144 P124 1.803 . S
C144 C145 1.378 1_455 S
C144 C149 1.400 1_455 S
C145 H129 0.939 . S
C145 C144 1.378 1_655 S
C145 C146 1.361 . S
C146 H130 0.942 . S
C146 C145 1.361 . S
C146 C147 1.369 . S
C147 C146 1.369 . S
C147 C148 1.404 . S
C148 H131 0.940 . S
C148 C147 1.404 . S
C148 C149 1.389 . S
C149 H132 0.939 . S
C149 C144 1.400 1_655 S
C149 C148 1.389 . S
C150 P124 1.819 . S
C150 C151 1.391 . S
C150 C155 1.394 . S
C151 H133 0.941 . S
C151 C150 1.391 . S
C151 C152 1.396 . S
C152 H136 0.938 1_556 S
C152 C151 1.396 . S
C152 C153 1.397 . S
C153 C152 1.397 . S
C153 C154 1.385 1_455 S
C154 H137 0.940 . S
C154 C153 1.385 1_655 S
C154 C155 1.389 1_655 S
C155 H134 0.937 1_455 S
C155 C150 1.394 . S
C155 C154 1.389 1_455 S
P156 O167 1.490 . S
P156 C170 1.812 . S
P156 C176 1.803 1_455 S
P156 C182 1.819 . S
H157 C171 0.941 . S
H158 C172 0.939 . S
H159 C174 0.940 . S
H160 C175 0.940 . S
H161 C177 0.939 . S
H162 C178 0.942 . S
H163 C180 0.940 . S
H164 C181 0.939 . S
H165 C183 0.941 . S
H166 C187 0.939 . S
O167 P156 1.490 . S
H168 C184 0.939 . S
H169 C186 0.940 . S
C170 P156 1.812 . S
C170 C171 1.389 . S
C170 C175 1.391 . S
C171 H157 0.941 . S
C171 C170 1.389 . S
C171 C172 1.397 . S
C172 H158 0.939 . S
C172 C171 1.397 . S
C172 C173 1.378 . S
C173 C172 1.378 . S
C173 C174 1.378 . S
C174 H159 0.940 . S
C174 C173 1.378 . S
C174 C175 1.396 . S
C175 H160 0.940 . S
C175 C170 1.391 . S
C175 C174 1.396 . S
C176 P156 1.803 1_655 S
C176 C177 1.378 . S
C176 C181 1.400 . S
C177 H161 0.939 . S
C177 C176 1.378 . S
C177 C178 1.361 . S
C178 H162 0.942 . S
C178 C177 1.361 . S
C178 C179 1.369 . S
C179 C178 1.369 . S
C179 C180 1.404 . S
C180 H163 0.940 . S
C180 C179 1.404 . S
C180 C181 1.389 . S
C181 H164 0.939 . S
C181 C176 1.400 . S
C181 C180 1.389 . S
C182 P156 1.819 . S
C182 C183 1.391 . S
C182 C187 1.391 1_455 S
C183 H165 0.941 . S
C183 C182 1.391 . S
C183 C184 1.396 . S
C184 H168 0.939 . S
C184 C183 1.396 . S
C184 C185 1.397 . S
C185 C184 1.397 . S
C185 C186 1.385 1_455 S
C186 H169 0.940 . S
C186 C185 1.385 1_655 S
C186 C187 1.388 . S
C187 H166 0.939 . S
C187 C182 1.391 1_655 S
C187 C186 1.388 . S
P188 O199 1.490 . S
P188 C202 1.812 . S
P188 C208 1.803 1_545 S
P188 C214 1.819 . S
H189 C203 0.941 . S
H190 C204 0.939 . S
H191 C206 0.940 . S
H192 C207 0.940 . S
H193 C209 0.939 . S
H194 C210 0.942 . S
H195 C212 0.940 . S
H196 C213 0.939 . S
H197 C215 0.941 . S
H198 C219 0.939 . S
O199 P188 1.490 . S
H200 C216 0.939 . S
H201 C218 0.940 . S
C202 P188 1.812 . S
C202 C203 1.389 . S
C202 C207 1.391 . S
C203 H189 0.941 . S
C203 C202 1.389 . S
C203 C204 1.397 . S
C204 H190 0.939 . S
C204 C203 1.397 . S
C204 C205 1.378 . S
C205 C204 1.378 . S
C205 C206 1.378 . S
C206 H191 0.940 . S
C206 C205 1.378 . S
C206 C207 1.396 . S
C207 H192 0.940 . S
C207 C202 1.391 . S
C207 C206 1.396 . S
C208 P188 1.803 1_565 S
C208 C209 1.378 . S
C208 C213 1.400 . S
C209 H193 0.939 . S
C209 C208 1.378 . S
C209 C210 1.361 . S
C210 H194 0.942 . S
C210 C209 1.361 . S
C210 C211 1.369 . S
C211 C210 1.369 . S
C211 C212 1.404 . S
C212 H195 0.940 . S
C212 C211 1.404 . S
C212 C213 1.389 . S
C213 H196 0.939 . S
C213 C208 1.400 . S
C213 C212 1.389 . S
C214 P188 1.819 . S
C214 C215 1.391 . S
C214 C219 1.391 1_545 S
C215 H197 0.941 . S
C215 C214 1.391 . S
C215 C216 1.396 . S
C216 H200 0.939 . S
C216 C215 1.396 . S
C216 C217 1.397 . S
C217 C216 1.397 . S
C217 C218 1.385 1_545 S
C218 H201 0.940 . S
C218 C217 1.385 1_565 S
C218 C219 1.388 . S
C219 H198 0.939 . S
C219 C214 1.391 1_565 S
C219 C218 1.388 . S
P220 O231 1.490 . S
P220 C234 1.812 . S
P220 C240 1.803 . S
P220 C246 1.819 . S
H221 C235 0.941 . S
H222 C236 0.939 . S
H223 C238 0.940 . S
H224 C239 0.940 . S
H225 C241 0.939 . S
H226 C242 0.942 . S
H227 C244 0.940 . S
H228 C245 0.939 . S
H229 C247 0.941 . S
H230 C251 0.939 . S
O231 P220 1.490 . S
H232 C248 0.939 . S
H233 C250 0.940 . S
C234 P220 1.812 . S
C234 C235 1.389 . S
C234 C239 1.391 . S
C235 H221 0.941 . S
C235 C234 1.389 . S
C235 C236 1.397 . S
C236 H222 0.939 . S
C236 C235 1.397 . S
C236 C237 1.378 . S
C237 C236 1.378 . S
C237 C238 1.378 . S
C238 H223 0.940 . S
C238 C237 1.378 . S
C238 C239 1.396 . S
C239 H224 0.940 . S
C239 C234 1.391 . S
C239 C238 1.396 . S
C240 P220 1.803 . S
C240 C241 1.378 . S
C240 C245 1.400 . S
C241 H225 0.939 . S
C241 C240 1.378 . S
C241 C242 1.361 . S
C242 H226 0.942 . S
C242 C241 1.361 . S
C242 C243 1.369 . S
C243 C242 1.369 . S
C243 C244 1.404 . S
C244 H227 0.940 . S
C244 C243 1.404 . S
C244 C245 1.389 . S
C245 H228 0.939 . S
C245 C240 1.400 . S
C245 C244 1.389 . S
C246 P220 1.819 . S
C246 C247 1.391 . S
C246 C251 1.391 . S
C247 H229 0.941 . S
C247 C246 1.391 . S
C247 C248 1.396 . S
C248 H232 0.939 . S
C248 C247 1.396 . S
C248 C249 1.397 . S
C249 C248 1.397 . S
C249 C250 1.385 . S
C250 H233 0.940 . S
C250 C249 1.385 . S
C250 C251 1.388 . S
C251 H230 0.939 . S
C251 C246 1.391 . S
C251 C250 1.388 . S
C252 C253 1.369 . S
C252 C254 1.419 . S
C252 H256 0.930 . S
C253 C252 1.369 . S
C253 C262 1.429 . S
C254 C252 1.419 . S
C254 C255 1.363 . S
C254 H257 0.929 . S
C255 C254 1.363 . S
C255 C261 1.428 . S
H256 C252 0.930 . S
H257 C254 0.929 . S
S258 N259 1.613 . S
S258 N260 1.610 . S
N259 S258 1.613 . S
N259 C262 1.350 . S
N260 S258 1.610 . S
N260 C261 1.351 . S
C261 C255 1.428 . S
C261 N260 1.351 . S
C261 C262 1.434 . S
C262 C253 1.429 . S
C262 N259 1.350 . S
C262 C261 1.434 . S
C263 C264 1.369 . S
C263 C265 1.419 . S
C263 H267 0.930 . S
C264 C263 1.369 . S
C264 C273 1.429 . S
C265 C263 1.419 . S
C265 C266 1.363 . S
C265 H268 0.929 . S
C266 C265 1.363 . S
C266 C272 1.428 . S
H267 C263 0.930 . S
H268 C265 0.929 . S
S269 N270 1.613 . S
S269 N271 1.610 . S
N270 S269 1.613 . S
N270 C273 1.350 . S
N271 S269 1.610 . S
N271 C272 1.351 . S
C272 C266 1.428 . S
C272 N271 1.351 . S
C272 C273 1.434 . S
C273 C264 1.429 . S
C273 N270 1.350 . S
C273 C272 1.434 . S
C274 C275 1.369 . S
C274 C276 1.419 . S
C274 H278 0.930 . S
C275 C274 1.369 . S
C275 C284 1.429 . S
C276 C274 1.419 . S
C276 C277 1.363 . S
C276 H279 0.929 . S
C277 C276 1.363 . S
C277 C283 1.428 . S
H278 C274 0.930 . S
H279 C276 0.929 . S
S280 N281 1.613 . S
S280 N282 1.610 . S
N281 S280 1.613 . S
N281 C284 1.350 . S
N282 S280 1.610 . S
N282 C283 1.351 . S
C283 C277 1.428 . S
C283 N282 1.351 . S
C283 C284 1.434 . S
C284 C275 1.429 . S
C284 N281 1.350 . S
C284 C283 1.434 . S
C285 C286 1.369 . S
C285 C287 1.419 . S
C285 H289 0.930 . S
C286 C285 1.369 . S
C286 C295 1.429 . S
C287 C285 1.419 . S
C287 C288 1.363 . S
C287 H290 0.929 . S
C288 C287 1.363 . S
C288 C294 1.428 . S
H289 C285 0.930 . S
H290 C287 0.929 . S
S291 N292 1.613 . S
S291 N293 1.610 . S
N292 S291 1.613 . S
N292 C295 1.350 . S
N293 S291 1.610 . S
N293 C294 1.351 . S
C294 C288 1.428 . S
C294 N293 1.351 . S
C294 C295 1.434 . S
C295 C286 1.429 . S
C295 N292 1.350 . S
C295 C294 1.434 . S
C296 C297 1.369 . S
C296 C298 1.419 . S
C296 H300 0.930 . S
C297 C296 1.369 . S
C297 C306 1.429 . S
C298 C296 1.419 . S
C298 C299 1.363 . S
C298 H301 0.929 . S
C299 C298 1.363 . S
C299 C305 1.428 . S
H300 C296 0.930 . S
H301 C298 0.929 . S
S302 N303 1.613 . S
S302 N304 1.610 . S
N303 S302 1.613 . S
N303 C306 1.350 . S
N304 S302 1.610 . S
N304 C305 1.351 . S
C305 C299 1.428 . S
C305 N304 1.351 . S
C305 C306 1.434 . S
C306 C297 1.429 . S
C306 N303 1.350 . S
C306 C305 1.434 . S
C307 C308 1.369 . S
C307 C309 1.419 . S
C307 H311 0.930 . S
C308 C307 1.369 . S
C308 C317 1.429 . S
C309 C307 1.419 . S
C309 C310 1.363 . S
C309 H312 0.929 . S
C310 C309 1.363 . S
C310 C316 1.428 . S
H311 C307 0.930 . S
H312 C309 0.929 . S
S313 N314 1.613 . S
S313 N315 1.610 . S
N314 S313 1.613 . S
N314 C317 1.350 . S
N315 S313 1.610 . S
N315 C316 1.351 . S
C316 C310 1.428 . S
C316 N315 1.351 . S
C316 C317 1.434 . S
C317 C308 1.429 . S
C317 N314 1.350 . S
C317 C316 1.434 . S
C318 C319 1.369 . S
C318 C320 1.419 . S
C318 H322 0.930 . S
C319 C318 1.369 . S
C319 C328 1.429 . S
C320 C318 1.419 . S
C320 C321 1.363 . S
C320 H323 0.929 . S
C321 C320 1.363 . S
C321 C327 1.428 . S
H322 C318 0.930 . S
H323 C320 0.929 . S
S324 N325 1.613 . S
S324 N326 1.610 . S
N325 S324 1.613 . S
N325 C328 1.350 . S
N326 S324 1.610 . S
N326 C327 1.351 . S
C327 C321 1.428 . S
C327 N326 1.351 . S
C327 C328 1.434 . S
C328 C319 1.429 . S
C328 N325 1.350 . S
C328 C327 1.434 . S
C329 C330 1.369 . S
C329 C331 1.419 . S
C329 H333 0.930 . S
C330 C329 1.369 . S
C330 C339 1.429 . S
C331 C329 1.419 . S
C331 C332 1.363 . S
C331 H334 0.929 . S
C332 C331 1.363 . S
C332 C338 1.428 . S
H333 C329 0.930 . S
H334 C331 0.929 . S
S335 N336 1.613 . S
S335 N337 1.610 . S
N336 S335 1.613 . S
N336 C339 1.350 . S
N337 S335 1.610 . S
N337 C338 1.351 . S
C338 C332 1.428 . S
C338 N337 1.351 . S
C338 C339 1.434 . S
C339 C330 1.429 . S
C339 N336 1.350 . S
C339 C338 1.434 . S
C340 C341 1.369 . S
C340 C342 1.419 . S
C340 H344 0.930 . S
C341 C340 1.369 . S
C341 C350 1.429 . S
C342 C340 1.419 . S
C342 C343 1.363 . S
C342 H345 0.929 . S
C343 C342 1.363 . S
C343 C349 1.428 . S
H344 C340 0.930 . S
H345 C342 0.929 . S
S346 N347 1.613 . S
S346 N348 1.610 . S
N347 S346 1.613 . S
N347 C350 1.350 . S
N348 S346 1.610 . S
N348 C349 1.351 . S
C349 C343 1.428 . S
C349 N348 1.351 . S
C349 C350 1.434 . S
C350 C341 1.429 . S
C350 N347 1.350 . S
C350 C349 1.434 . S
C351 C352 1.369 . S
C351 C353 1.419 . S
C351 H355 0.930 . S
C352 C351 1.369 . S
C352 C361 1.429 . S
C353 C351 1.419 . S
C353 C354 1.363 . S
C353 H356 0.929 . S
C354 C353 1.363 . S
C354 C360 1.428 . S
H355 C351 0.930 . S
H356 C353 0.929 . S
S357 N358 1.613 . S
S357 N359 1.610 . S
N358 S357 1.613 . S
N358 C361 1.350 . S
N359 S357 1.610 . S
N359 C360 1.351 . S
C360 C354 1.428 . S
C360 N359 1.351 . S
C360 C361 1.434 . S
C361 C352 1.429 . S
C361 N358 1.350 . S
C361 C360 1.434 . S
C362 C363 1.369 . S
C362 C364 1.419 . S
C362 H366 0.930 . S
C363 C362 1.369 . S
C363 C372 1.429 . S
C364 C362 1.419 . S
C364 C365 1.363 . S
C364 H367 0.929 . S
C365 C364 1.363 . S
C365 C371 1.428 . S
H366 C362 0.930 . S
H367 C364 0.929 . S
S368 N369 1.613 . S
S368 N370 1.610 . S
N369 S368 1.613 . S
N369 C372 1.350 . S
N370 S368 1.610 . S
N370 C371 1.351 . S
C371 C365 1.428 . S
C371 N370 1.351 . S
C371 C372 1.434 . S
C372 C363 1.429 . S
C372 N369 1.350 . S
C372 C371 1.434 . S
C373 C374 1.369 . S
C373 C375 1.419 . S
C373 H377 0.930 . S
C374 C373 1.369 . S
C374 C383 1.429 . S
C375 C373 1.419 . S
C375 C376 1.363 . S
C375 H378 0.929 . S
C376 C375 1.363 . S
C376 C382 1.428 . S
H377 C373 0.930 . S
H378 C375 0.929 . S
S379 N380 1.613 . S
S379 N381 1.610 . S
N380 S379 1.613 . S
N380 C383 1.350 . S
N381 S379 1.610 . S
N381 C382 1.351 . S
C382 C376 1.428 . S
C382 N381 1.351 . S
C382 C383 1.434 . S
C383 C374 1.429 . S
C383 N380 1.350 . S
C383 C382 1.434 . S
C384 C385 1.369 . S
C384 C386 1.419 . S
C384 H388 0.930 . S
C385 C384 1.369 . S
C385 C394 1.429 1_455 S
C386 C384 1.419 . S
C386 C387 1.363 . S
C386 H389 0.929 . S
C387 C386 1.363 . S
C387 C393 1.428 1_455 S
H388 C384 0.930 . S
H389 C386 0.929 . S
S390 N391 1.613 . S
S390 N392 1.610 . S
N391 S390 1.613 . S
N391 C394 1.350 . S
N392 S390 1.610 . S
N392 C393 1.351 . S
C393 C387 1.428 1_655 S
C393 N392 1.351 . S
C393 C394 1.434 . S
C394 C385 1.429 1_655 S
C394 N391 1.350 . S
C394 C393 1.434 . S
C395 C396 1.369 . S
C395 C397 1.419 . S
C395 H399 0.930 . S
C396 C395 1.369 . S
C396 C405 1.429 1_545 S
C397 C395 1.419 . S
C397 C398 1.363 . S
C397 H400 0.929 . S
C398 C397 1.363 . S
C398 C404 1.428 1_545 S
H399 C395 0.930 . S
H400 C397 0.929 . S
S401 N402 1.613 . S
S401 N403 1.610 . S
N402 S401 1.613 . S
N402 C405 1.350 . S
N403 S401 1.610 . S
N403 C404 1.351 . S
C404 C398 1.428 1_565 S
C404 N403 1.351 . S
C404 C405 1.434 . S
C405 C396 1.429 1_565 S
C405 N402 1.350 . S
C405 C404 1.434 . S
C406 C407 1.369 . S
C406 C408 1.419 . S
C406 H410 0.930 . S
C407 C406 1.369 . S
C407 C416 1.429 . S
C408 C406 1.419 . S
C408 C409 1.363 . S
C408 H411 0.929 . S
C409 C408 1.363 . S
C409 C415 1.428 . S
H410 C406 0.930 . S
H411 C408 0.929 . S
S412 N413 1.613 . S
S412 N414 1.610 . S
N413 S412 1.613 . S
N413 C416 1.350 . S
N414 S412 1.610 . S
N414 C415 1.351 . S
C415 C409 1.428 . S
C415 N414 1.351 . S
C415 C416 1.434 . S
C416 C407 1.429 . S
C416 N413 1.350 . S
C416 C415 1.434 . S
C417 C418 1.369 . S
C417 C419 1.419 . S
C417 H421 0.930 . S
C418 C417 1.369 . S
C418 C427 1.429 . S
C419 C417 1.419 . S
C419 C420 1.363 . S
C419 H422 0.929 . S
C420 C419 1.363 . S
C420 C426 1.428 . S
H421 C417 0.930 . S
H422 C419 0.929 . S
S423 N424 1.613 . S
S423 N425 1.610 . S
N424 S423 1.613 . S
N424 C427 1.350 . S
N425 S423 1.610 . S
N425 C426 1.351 . S
C426 C420 1.428 . S
C426 N425 1.351 . S
C426 C427 1.434 . S
C427 C418 1.429 . S
C427 N424 1.350 . S
C427 C426 1.434 . S
C428 C429 1.369 . S
C428 C430 1.419 . S
C428 H432 0.930 . S
C429 C428 1.369 . S
C429 C438 1.429 . S
C430 C428 1.419 . S
C430 C431 1.363 . S
C430 H433 0.929 . S
C431 C430 1.363 . S
C431 C437 1.428 . S
H432 C428 0.930 . S
H433 C430 0.929 . S
S434 N435 1.613 . S
S434 N436 1.610 . S
N435 S434 1.613 . S
N435 C438 1.350 . S
N436 S434 1.610 . S
N436 C437 1.351 . S
C437 C431 1.428 . S
C437 N436 1.351 . S
C437 C438 1.434 . S
C438 C429 1.429 . S
C438 N435 1.350 . S
C438 C437 1.434 . S
C439 C440 1.369 1_455 S
C439 C441 1.419 . S
C439 H443 0.930 . S
C440 C439 1.369 1_655 S
C440 C449 1.429 . S
C441 C439 1.419 . S
C441 C442 1.363 . S
C441 H444 0.929 . S
C442 C441 1.363 . S
C442 C448 1.428 1_455 S
H443 C439 0.930 . S
H444 C441 0.929 . S
S445 N446 1.613 . S
S445 N447 1.610 . S
N446 S445 1.613 . S
N446 C449 1.350 . S
N447 S445 1.610 . S
N447 C448 1.351 . S
C448 C442 1.428 1_655 S
C448 N447 1.351 . S
C448 C449 1.434 . S
C449 C440 1.429 . S
C449 N446 1.350 . S
C449 C448 1.434 . S
C253 C2 1.420 . S
C255 C243 1.463 . S
C264 C22 1.425 . S
C266 C179 1.486 . S
C275 C44 1.457 . S
C277 C211 1.521 . S
C286 C4 1.573 . S
C288 C237 1.648 . S
C299 C173 1.632 . S
C297 C24 1.584 . S
C310 C205 1.599 . S
C308 C42 1.512 . S
C319 C32 1.377 . S
C321 C115 1.375 . S
C330 C49 1.320 . S
C332 C147 1.319 . S
C341 C9 1.311 . S
C343 C77 1.305 . S
C354 C109 1.346 . S
C352 C29 1.276 . S
C365 C141 1.374 . S
C363 C52 1.305 . S
C374 C12 1.299 . S
C376 C83 1.315 . S
C387 C153 1.432 1_554 S
C385 C18 1.449 1_455 S
C396 C38 1.426 . S
C398 C89 1.403 . S
C407 C58 1.429 . S
C409 C121 1.437 . S
C420 C217 1.472 . S
C418 C39 1.496 . S
C431 C249 1.474 1_556 S
C429 C59 1.479 . S
C440 C19 1.481 1_655 S
C442 C185 1.477 . S
