# Generated by pormake.
# Topology ptr, (4,4)-cn, num edge types: 1
# Building blocks:
#     Node 0, Type 0, BuildingBlock: NAHDIM_clean_sbu_0, # of connection points: 4
#     Node 1, Type 0, BuildingBlock: NAHDIM_clean_sbu_0, # of connection points: 4
#     Node 2, Type 0, BuildingBlock: NAHDIM_clean_sbu_0, # of connection points: 4
#     Node 3, Type 0, BuildingBlock: NAHDIM_clean_sbu_0, # of connection points: 4
#     Node 4, Type 0, BuildingBlock: NAHDIM_clean_sbu_0, # of connection points: 4
#     Node 5, Type 0, BuildingBlock: NAHDIM_clean_sbu_0, # of connection points: 4
#     Node 6, Type 0, BuildingBlock: NAHDIM_clean_sbu_0, # of connection points: 4
#     Node 7, Type 0, BuildingBlock: NAHDIM_clean_sbu_0, # of connection points: 4
#     Node 8, Type 0, BuildingBlock: NAHDIM_clean_sbu_0, # of connection points: 4
#     Node 9, Type 0, BuildingBlock: NAHDIM_clean_sbu_0, # of connection points: 4
#     Node 10, Type 0, BuildingBlock: NAHDIM_clean_sbu_0, # of connection points: 4
#     Node 11, Type 0, BuildingBlock: NAHDIM_clean_sbu_0, # of connection points: 4
#     Node 12, Type 0, BuildingBlock: NAHDIM_clean_sbu_0, # of connection points: 4
#     Node 13, Type 0, BuildingBlock: NAHDIM_clean_sbu_0, # of connection points: 4
#     Node 14, Type 0, BuildingBlock: NAHDIM_clean_sbu_0, # of connection points: 4
#     Node 15, Type 0, BuildingBlock: NAHDIM_clean_sbu_0, # of connection points: 4
#     Node 16, Type 0, BuildingBlock: NAHDIM_clean_sbu_0, # of connection points: 4
#     Node 17, Type 0, BuildingBlock: NAHDIM_clean_sbu_0, # of connection points: 4
#     Node 18, Type 1, BuildingBlock: GIZVER_clean_linker_0, # of connection points: 4
#     Node 19, Type 1, BuildingBlock: GIZVER_clean_linker_0, # of connection points: 4
#     Node 20, Type 1, BuildingBlock: GIZVER_clean_linker_0, # of connection points: 4
#     Node 21, Type 1, BuildingBlock: GIZVER_clean_linker_0, # of connection points: 4
#     Node 22, Type 1, BuildingBlock: GIZVER_clean_linker_0, # of connection points: 4
#     Node 23, Type 1, BuildingBlock: GIZVER_clean_linker_0, # of connection points: 4
#     Node 24, Type 1, BuildingBlock: GIZVER_clean_linker_0, # of connection points: 4
#     Node 25, Type 1, BuildingBlock: GIZVER_clean_linker_0, # of connection points: 4
#     Node 26, Type 1, BuildingBlock: GIZVER_clean_linker_0, # of connection points: 4
#     Node 27, Type 1, BuildingBlock: GIZVER_clean_linker_0, # of connection points: 4
#     Node 28, Type 1, BuildingBlock: GIZVER_clean_linker_0, # of connection points: 4
#     Node 29, Type 1, BuildingBlock: GIZVER_clean_linker_0, # of connection points: 4
#     Node 30, Type 1, BuildingBlock: GIZVER_clean_linker_0, # of connection points: 4
#     Node 31, Type 1, BuildingBlock: GIZVER_clean_linker_0, # of connection points: 4
#     Node 32, Type 1, BuildingBlock: GIZVER_clean_linker_0, # of connection points: 4
#     Node 33, Type 1, BuildingBlock: GIZVER_clean_linker_0, # of connection points: 4
#     Node 34, Type 1, BuildingBlock: GIZVER_clean_linker_0, # of connection points: 4
#     Node 35, Type 1, BuildingBlock: GIZVER_clean_linker_0, # of connection points: 4
#     Edge 36, Type (0, 1), BuildingBlock: KIFKEQ_clean_linker_1, # of connection points: 2
#     Edge 37, Type (0, 1), BuildingBlock: KIFKEQ_clean_linker_1, # of connection points: 2
#     Edge 38, Type (0, 1), BuildingBlock: KIFKEQ_clean_linker_1, # of connection points: 2
#     Edge 39, Type (0, 1), BuildingBlock: KIFKEQ_clean_linker_1, # of connection points: 2
#     Edge 40, Type (0, 1), BuildingBlock: KIFKEQ_clean_linker_1, # of connection points: 2
#     Edge 41, Type (0, 1), BuildingBlock: KIFKEQ_clean_linker_1, # of connection points: 2
#     Edge 42, Type (0, 1), BuildingBlock: KIFKEQ_clean_linker_1, # of connection points: 2
#     Edge 43, Type (0, 1), BuildingBlock: KIFKEQ_clean_linker_1, # of connection points: 2
#     Edge 44, Type (0, 1), BuildingBlock: KIFKEQ_clean_linker_1, # of connection points: 2
#     Edge 45, Type (0, 1), BuildingBlock: KIFKEQ_clean_linker_1, # of connection points: 2
#     Edge 46, Type (0, 1), BuildingBlock: KIFKEQ_clean_linker_1, # of connection points: 2
#     Edge 47, Type (0, 1), BuildingBlock: KIFKEQ_clean_linker_1, # of connection points: 2
#     Edge 48, Type (0, 1), BuildingBlock: KIFKEQ_clean_linker_1, # of connection points: 2
#     Edge 49, Type (0, 1), BuildingBlock: KIFKEQ_clean_linker_1, # of connection points: 2
#     Edge 50, Type (0, 1), BuildingBlock: KIFKEQ_clean_linker_1, # of connection points: 2
#     Edge 51, Type (0, 1), BuildingBlock: KIFKEQ_clean_linker_1, # of connection points: 2
#     Edge 52, Type (0, 1), BuildingBlock: KIFKEQ_clean_linker_1, # of connection points: 2
#     Edge 53, Type (0, 1), BuildingBlock: KIFKEQ_clean_linker_1, # of connection points: 2
#     Edge 54, Type (0, 1), BuildingBlock: KIFKEQ_clean_linker_1, # of connection points: 2
#     Edge 55, Type (0, 1), BuildingBlock: KIFKEQ_clean_linker_1, # of connection points: 2
#     Edge 56, Type (0, 1), BuildingBlock: KIFKEQ_clean_linker_1, # of connection points: 2
#     Edge 57, Type (0, 1), BuildingBlock: KIFKEQ_clean_linker_1, # of connection points: 2
#     Edge 58, Type (0, 1), BuildingBlock: KIFKEQ_clean_linker_1, # of connection points: 2
#     Edge 59, Type (0, 1), BuildingBlock: KIFKEQ_clean_linker_1, # of connection points: 2
#     Edge 60, Type (0, 1), BuildingBlock: KIFKEQ_clean_linker_1, # of connection points: 2
#     Edge 61, Type (0, 1), BuildingBlock: KIFKEQ_clean_linker_1, # of connection points: 2
#     Edge 62, Type (0, 1), BuildingBlock: KIFKEQ_clean_linker_1, # of connection points: 2
#     Edge 63, Type (0, 1), BuildingBlock: KIFKEQ_clean_linker_1, # of connection points: 2
#     Edge 64, Type (0, 1), BuildingBlock: KIFKEQ_clean_linker_1, # of connection points: 2
#     Edge 65, Type (0, 1), BuildingBlock: KIFKEQ_clean_linker_1, # of connection points: 2
#     Edge 66, Type (0, 1), BuildingBlock: KIFKEQ_clean_linker_1, # of connection points: 2
#     Edge 67, Type (0, 1), BuildingBlock: KIFKEQ_clean_linker_1, # of connection points: 2
#     Edge 68, Type (0, 1), BuildingBlock: KIFKEQ_clean_linker_1, # of connection points: 2
#     Edge 69, Type (0, 1), BuildingBlock: KIFKEQ_clean_linker_1, # of connection points: 2
#     Edge 70, Type (0, 1), BuildingBlock: KIFKEQ_clean_linker_1, # of connection points: 2
#     Edge 71, Type (0, 1), BuildingBlock: KIFKEQ_clean_linker_1, # of connection points: 2
#     Edge 72, Type (0, 1), BuildingBlock: KIFKEQ_clean_linker_1, # of connection points: 2
#     Edge 73, Type (0, 1), BuildingBlock: KIFKEQ_clean_linker_1, # of connection points: 2
#     Edge 74, Type (0, 1), BuildingBlock: KIFKEQ_clean_linker_1, # of connection points: 2
#     Edge 75, Type (0, 1), BuildingBlock: KIFKEQ_clean_linker_1, # of connection points: 2
#     Edge 76, Type (0, 1), BuildingBlock: KIFKEQ_clean_linker_1, # of connection points: 2
#     Edge 77, Type (0, 1), BuildingBlock: KIFKEQ_clean_linker_1, # of connection points: 2
#     Edge 78, Type (0, 1), BuildingBlock: KIFKEQ_clean_linker_1, # of connection points: 2
#     Edge 79, Type (0, 1), BuildingBlock: KIFKEQ_clean_linker_1, # of connection points: 2
#     Edge 80, Type (0, 1), BuildingBlock: KIFKEQ_clean_linker_1, # of connection points: 2
#     Edge 81, Type (0, 1), BuildingBlock: KIFKEQ_clean_linker_1, # of connection points: 2
#     Edge 82, Type (0, 1), BuildingBlock: KIFKEQ_clean_linker_1, # of connection points: 2
#     Edge 83, Type (0, 1), BuildingBlock: KIFKEQ_clean_linker_1, # of connection points: 2
#     Edge 84, Type (0, 1), BuildingBlock: KIFKEQ_clean_linker_1, # of connection points: 2
#     Edge 85, Type (0, 1), BuildingBlock: KIFKEQ_clean_linker_1, # of connection points: 2
#     Edge 86, Type (0, 1), BuildingBlock: KIFKEQ_clean_linker_1, # of connection points: 2
#     Edge 87, Type (0, 1), BuildingBlock: KIFKEQ_clean_linker_1, # of connection points: 2
#     Edge 88, Type (0, 1), BuildingBlock: KIFKEQ_clean_linker_1, # of connection points: 2
#     Edge 89, Type (0, 1), BuildingBlock: KIFKEQ_clean_linker_1, # of connection points: 2
#     Edge 90, Type (0, 1), BuildingBlock: KIFKEQ_clean_linker_1, # of connection points: 2
#     Edge 91, Type (0, 1), BuildingBlock: KIFKEQ_clean_linker_1, # of connection points: 2
#     Edge 92, Type (0, 1), BuildingBlock: KIFKEQ_clean_linker_1, # of connection points: 2
#     Edge 93, Type (0, 1), BuildingBlock: KIFKEQ_clean_linker_1, # of connection points: 2
#     Edge 94, Type (0, 1), BuildingBlock: KIFKEQ_clean_linker_1, # of connection points: 2
#     Edge 95, Type (0, 1), BuildingBlock: KIFKEQ_clean_linker_1, # of connection points: 2
#     Edge 96, Type (0, 1), BuildingBlock: KIFKEQ_clean_linker_1, # of connection points: 2
#     Edge 97, Type (0, 1), BuildingBlock: KIFKEQ_clean_linker_1, # of connection points: 2
#     Edge 98, Type (0, 1), BuildingBlock: KIFKEQ_clean_linker_1, # of connection points: 2
#     Edge 99, Type (0, 1), BuildingBlock: KIFKEQ_clean_linker_1, # of connection points: 2
#     Edge 100, Type (0, 1), BuildingBlock: KIFKEQ_clean_linker_1, # of connection points: 2
#     Edge 101, Type (0, 1), BuildingBlock: KIFKEQ_clean_linker_1, # of connection points: 2
#     Edge 102, Type (0, 1), BuildingBlock: KIFKEQ_clean_linker_1, # of connection points: 2
#     Edge 103, Type (0, 1), BuildingBlock: KIFKEQ_clean_linker_1, # of connection points: 2
#     Edge 104, Type (0, 1), BuildingBlock: KIFKEQ_clean_linker_1, # of connection points: 2
#     Edge 105, Type (0, 1), BuildingBlock: KIFKEQ_clean_linker_1, # of connection points: 2
#     Edge 106, Type (0, 1), BuildingBlock: KIFKEQ_clean_linker_1, # of connection points: 2
#     Edge 107, Type (0, 1), BuildingBlock: KIFKEQ_clean_linker_1, # of connection points: 2
# Relax obj value: 0.076
# Max RMSD: 0.210
# Mean RMSD: 0.115
data_MOF--net-ptr--node1-NAHDIM_clean_sbu_0--node2-GIZVER_clean_linker_0--edge1-KIFKEQ_clean_linker_1
_symmetry_space_group_name_H-M    P1
_symmetry_Int_Tables_number       1
_symmetry_cell_setting            triclinic
loop_
_symmetry_equiv_pos_as_xyz
'x, y, z'
_cell_length_a     82.225577
_cell_length_b     80.823935
_cell_length_c     48.199812
_cell_angle_alpha  92.001134
_cell_angle_beta   89.433342
_cell_angle_gamma 121.69487
loop_
_atom_site_label
_atom_site_type_symbol
_atom_site_fract_x
_atom_site_fract_y
_atom_site_fract_z
_atom_type_partial_charge
C0 C 0.03324 0.36224 -0.00257 0.0
O1 O 0.01629 0.34652 0.99315 0.0
O2 O 0.98691 0.35745 -0.0021 0.0
Zn3 Zn 0.01244 0.38289 -0.0001 0.0
O4 O 0.0146 0.39863 0.03457 0.0
C5 C 1.00148 0.40272 0.96407 0.0
O6 O 0.98724 0.39581 0.9816 0.0
O7 O 0.0347 0.37869 0.00015 0.0
C8 C 1.00075 0.39828 0.04714 0.0
O9 O 0.98319 0.3863 0.03813 0.0
C10 C 0.97971 0.34538 0.01726 0.0
O11 O 0.98926 0.34911 0.04067 0.0
O12 O 0.01443 0.3988 0.96718 0.0
C13 C 0.67904 0.65274 0.01428 0.0
O14 O 0.67761 0.66747 0.00722 0.0
O15 O 0.63893 0.65899 0.02031 0.0
Zn16 Zn 0.63765 0.63329 0.01677 0.0
O17 O 0.62586 0.61971 0.98025 0.0
C18 C 0.62172 0.60331 0.05848 0.0
O19 O 0.63644 0.60158 0.05287 0.0
O20 O 0.66393 0.63679 0.02005 0.0
C21 C 0.60899 0.61513 0.97396 0.0
O22 O 0.59977 0.62037 0.99098 0.0
C23 C 0.64123 0.66991 0.00035 0.0
O24 O 0.64336 0.6648 0.97504 0.0
O25 O 0.61992 0.61594 0.04622 0.0
C26 C 0.36629 0.03387 -0.00231 0.0
O27 O 0.35374 0.01783 0.98403 0.0
O28 O 0.35342 0.98647 0.01323 0.0
Zn29 Zn 0.38057 0.00944 0.00967 0.0
O30 O 0.39241 0.00763 0.9734 0.0
C31 C 0.3927 0.99424 0.05244 0.0
O32 O 0.37772 0.97786 0.04318 0.0
O33 O 0.37976 0.0341 0.0108 0.0
C34 C 0.40368 1.00129 0.97203 0.0
O35 O 0.40751 0.99529 -0.00539 0.0
C36 C 0.34538 0.9714 -0.00286 0.0
O37 O 0.35497 0.96999 0.97618 0.0
O38 O 0.39673 0.01007 0.04162 0.0
C39 C 0.96553 0.64081 0.01969 0.0
O40 O 0.98005 0.65502 0.03378 0.0
O41 O 0.01433 0.65468 0.0111 0.0
Zn42 Zn 0.9916 0.62692 0.00973 0.0
O43 O 0.99224 0.61255 0.97499 0.0
C44 C 0.00786 0.61745 0.05466 0.0
O45 O 0.02362 0.63263 0.04574 0.0
O46 O 0.96718 0.62727 0.00851 0.0
C47 C 1.00116 0.60361 0.97378 0.0
O48 O 0.01077 0.60399 -0.00436 0.0
C49 C 0.02745 0.66187 0.993 0.0
O50 O 0.02658 0.65097 0.97151 0.0
O51 O 0.99204 0.61244 0.04297 0.0
C52 C 0.34397 0.39247 0.01697 0.0
O53 O 0.35812 0.40614 0.03225 0.0
O54 O 0.36611 0.35428 1e-05 0.0
Zn55 Zn 0.37191 0.38193 0.00301 0.0
O56 O 0.3862 0.39511 0.03889 0.0
C57 C 0.39949 0.39244 0.95953 0.0
O58 O 0.39975 0.37746 0.9687 0.0
O59 O 0.34669 0.38076 0.00233 0.0
C60 C 0.4043 0.40625 0.04007 0.0
O61 O 0.41428 0.40934 0.01733 0.0
C62 C 0.3712 0.34648 0.01768 0.0
O63 O 0.38085 0.35664 0.03993 0.0
O64 O 0.38827 0.39705 0.97069 0.0
C65 C 0.64631 0.97488 0.98805 0.0
O66 O 0.66191 0.99168 0.98342 0.0
O67 O 0.65616 0.02238 -0.0044 0.0
Zn68 Zn 0.62914 0.99861 0.99382 0.0
O69 O 0.61418 0.99653 0.0285 0.0
C70 C 0.61631 0.01509 0.95337 0.0
O71 O 0.62865 0.03138 0.96669 0.0
O72 O 0.63066 0.97426 0.99185 0.0
C73 C 0.60514 0.00516 0.03322 0.0
O74 O 0.60598 0.01744 0.0153 0.0
C75 C 0.66195 0.03856 0.00853 0.0
O76 O 0.6497 0.04122 0.02261 0.0
O77 O 0.61451 0.99922 0.96061 0.0
C78 C 0.70398 0.698 0.32011 0.0
O79 O 0.68737 0.6822 0.31425 0.0
O80 O 0.6571 0.68881 0.33012 0.0
Zn81 Zn 0.68105 0.71569 0.32811 0.0
O82 O 0.68333 0.73139 0.36264 0.0
C83 C 0.69385 0.74319 0.28346 0.0
O84 O 0.71093 0.74688 0.29008 0.0
O85 O 0.70469 0.71385 0.32579 0.0
C86 C 0.67135 0.73653 0.36742 0.0
O87 O 0.65703 0.73084 0.34999 0.0
C88 C 0.64163 0.68462 0.31808 0.0
O89 O 0.64117 0.69805 0.30416 0.0
O90 O 0.67935 0.73016 0.29614 0.0
C91 C 0.33891 0.97608 0.32426 0.0
O92 O 0.33572 0.98758 0.30975 0.0
O93 O 0.30485 0.98849 0.33541 0.0
Zn94 Zn 0.29974 0.96109 0.3372 0.0
O95 O 0.28548 0.94472 0.3031 0.0
C96 C 0.27171 0.95026 0.38121 0.0
O97 O 0.26824 0.96246 0.36927 0.0
O98 O 0.32535 0.96308 0.33843 0.0
C99 C 0.26745 0.93609 0.29985 0.0
O100 O 0.25715 0.93806 0.31914 0.0
C101 C 0.29394 0.99368 0.32563 0.0
O102 O 0.27704 0.98049 0.31558 0.0
O103 O 0.28472 0.94773 0.37152 0.0
C104 C 0.03841 0.37726 0.35681 0.0
O105 O 0.0249 0.36323 0.37133 0.0
O106 O 0.02206 0.32669 0.34386 0.0
Zn107 Zn 0.0498 0.34904 0.34482 0.0
O108 O 0.06336 0.34761 0.31044 0.0
C109 C 0.05767 0.33344 0.39323 0.0
O110 O 0.04062 0.31824 0.3876 0.0
O111 O 0.05061 0.37452 0.34452 0.0
C112 C 0.07361 0.34007 0.31015 0.0
O113 O 0.07509 0.33232 0.33275 0.0
C114 C 0.01701 0.30949 0.33568 0.0
O115 O 0.03013 0.30585 0.32739 0.0
O116 O 0.06411 0.34838 0.37857 0.0
C117 C 0.64245 0.97286 0.32127 0.0
O118 O 0.65154 0.97343 0.29842 0.0
O119 O 0.69503 0.99143 0.34804 0.0
Zn120 Zn 0.67004 0.96545 0.34401 0.0
O121 O 0.67021 0.95183 0.3082 0.0
C122 C 0.6632 0.9316 0.37464 0.0
O123 O 0.65867 0.92251 0.35023 0.0
O124 O 0.64761 0.96937 0.344 0.0
C125 C 0.68296 0.94778 0.30322 0.0
O126 O 0.69654 0.95275 0.32173 0.0
C127 C 0.69938 0.00631 0.33417 0.0
O128 O 0.68715 0.00528 0.31585 0.0
O129 O 0.66793 0.94933 0.37665 0.0
C130 C 0.011 0.72023 0.35802 0.0
O131 O 0.02046 0.72281 0.38118 0.0
O132 O 0.03797 0.6922 0.33736 0.0
Zn133 Zn 0.04313 0.71952 0.3355 0.0
O134 O 0.05906 0.73553 0.36866 0.0
C135 C 0.07588 0.74262 0.30043 0.0
O136 O 0.08546 0.74642 0.32383 0.0
O137 O 0.01787 0.71834 0.33521 0.0
C138 C 0.06406 0.75326 0.3722 0.0
O139 O 0.05855 0.76113 0.35402 0.0
C140 C 0.05178 0.68937 0.33598 0.0
O141 O 0.06928 0.70441 0.33389 0.0
O142 O 0.05775 0.73161 0.30046 0.0
C143 C 0.31253 0.30689 0.32599 0.0
O144 O 0.32802 0.32266 0.31772 0.0
O145 O 0.32671 0.35603 0.33614 0.0
Zn146 Zn 0.29918 0.33356 0.3351 0.0
O147 O 0.28555 0.33476 0.36951 0.0
C148 C 0.27511 0.32203 0.28512 0.0
O149 O 0.27352 0.30511 0.28763 0.0
O150 O 0.29825 0.30794 0.33373 0.0
C151 C 0.26755 0.32732 0.36843 0.0
O152 O 0.25832 0.31877 0.34515 0.0
C153 C 0.33169 0.37327 0.34391 0.0
O154 O 0.3185 0.37687 0.35198 0.0
O155 O 0.28564 0.33596 0.30215 0.0
C156 C 0.37278 0.03791 0.65917 0.0
O157 O 0.35602 0.0221 0.65415 0.0
O158 O 0.32616 0.0294 0.66915 0.0
Zn159 Zn 0.35028 0.05618 0.66688 0.0
O160 O 0.35321 0.07194 0.70171 0.0
C161 C 0.34132 0.06293 0.61156 0.0
O162 O 0.33448 0.04425 0.60724 0.0
O163 O 0.37372 0.05395 0.66415 0.0
C164 C 0.34382 0.08023 0.70597 0.0
O165 O 0.33123 0.0781 0.68738 0.0
C166 C 0.30963 0.02627 0.66382 0.0
O167 O 0.30794 0.04083 0.65666 0.0
O168 O 0.34894 0.07089 0.63491 0.0
C169 C 0.01243 0.31531 0.67933 0.0
O170 O 0.00801 0.32588 0.66477 0.0
O171 O 0.97637 0.32516 0.69228 0.0
Zn172 Zn 0.9733 0.29851 0.69231 0.0
O173 O 0.96092 0.28327 0.65689 0.0
C174 C 0.94817 0.28814 0.74002 0.0
O175 O 0.95069 0.30543 0.73704 0.0
O176 O 0.9996 0.30215 0.69421 0.0
C177 C 0.9429 0.27299 0.65327 0.0
O178 O 0.93158 0.27277 0.67287 0.0
C179 C 0.96538 0.32922 0.67982 0.0
O180 O 0.95045 0.31538 0.666 0.0
O181 O 0.95683 0.28252 0.72397 0.0
C182 C 0.71041 0.70513 0.64946 0.0
O183 O 0.70874 0.6946 0.62705 0.0
O184 O 0.69314 0.65311 0.67892 0.0
Zn185 Zn 0.71857 0.67807 0.67284 0.0
O186 O 0.72979 0.67564 0.63665 0.0
C187 C 0.73964 0.6914 0.72578 0.0
O188 O 0.73079 0.7009 0.72956 0.0
O189 O 0.71499 0.70116 0.67231 0.0
C190 C 0.73993 0.668 0.63542 0.0
O191 O 0.7428 0.66125 0.65805 0.0
C192 C 0.67778 0.64811 0.66579 0.0
O193 O 0.67796 0.65955 0.64695 0.0
O194 O 0.73664 0.6813 0.70352 0.0
C195 C 0.31324 0.31001 0.65881 0.0
O196 O 0.3284 0.32064 0.64364 0.0
O197 O 0.36026 0.32498 0.67498 0.0
Zn198 Zn 0.33761 0.29718 0.67535 0.0
O199 O 0.33789 0.28275 0.64038 0.0
C200 C 0.35515 0.28704 0.71759 0.0
O201 O 0.37056 0.29953 0.70428 0.0
O202 O 0.31339 0.29806 0.67514 0.0
C203 C 0.34136 0.26914 0.63978 0.0
O204 O 0.34487 0.2636 0.66309 0.0
C205 C 0.37601 0.32986 0.66321 0.0
O206 O 0.37824 0.31646 0.65081 0.0
O207 O 0.33899 0.28369 0.70939 0.0
C208 C 0.67074 0.04242 0.65845 0.0
O209 O 0.67204 0.033 0.6366 0.0
O210 O 0.70448 0.0245 0.6703 0.0
Zn211 Zn 0.7097 0.05199 0.6724 0.0
O212 O 0.72463 0.0651 0.70758 0.0
C213 C 0.73052 0.06083 0.62011 0.0
O214 O 0.72459 0.04224 0.61949 0.0
O215 O 0.68481 0.05129 0.6753 0.0
C216 C 0.74257 0.07722 0.70847 0.0
O217 O 0.75236 0.0817 0.68534 0.0
C218 C 0.71808 0.0215 0.67318 0.0
O219 O 0.73557 0.03644 0.67704 0.0
O220 O 0.7253 0.06782 0.63983 0.0
C221 C 0.98127 0.64476 0.66592 0.0
O222 O 0.9972 0.66175 0.66414 0.0
O223 O 0.99031 0.69214 0.6609 0.0
Zn224 Zn 0.9637 0.66811 0.66398 0.0
O225 O 0.95054 0.67014 0.69849 0.0
C226 C 0.94203 0.67704 0.62718 0.0
O227 O 0.94725 0.69152 0.64532 0.0
O228 O 0.96538 0.64395 0.666 0.0
C229 C 0.93238 0.66121 0.69933 0.0
O230 O 0.92232 0.65051 0.67765 0.0
C231 C 0.99543 0.70884 0.67153 0.0
O232 O 0.98292 0.7112 0.68541 0.0
O233 O 0.94774 0.66535 0.63051 0.0
H234 H 0.15228 0.32769 0.13831 0.0
H235 H 0.14645 0.33623 0.05203 0.0
H236 H 0.1219 0.35501 0.11536 0.0
H237 H 0.15384 0.30652 0.09686 0.0
H238 H 0.15923 0.3168 0.06345 0.0
H239 H 0.17732 0.32222 0.13613 0.0
H240 H 0.2361 0.35746 0.11231 0.0
H241 H 0.19172 0.34227 0.0525 0.0
C242 C 0.14761 0.33348 0.12244 0.0
C243 C 0.1374 0.34237 0.13017 0.0
C244 C 0.15135 0.33157 0.0943 0.0
C245 C 0.14424 0.33824 0.07378 0.0
C246 C 0.13374 0.34691 0.08127 0.0
C247 C 0.1307 0.34913 0.10949 0.0
C248 C 0.16101 0.32056 0.08609 0.0
C249 C 0.18204 0.33175 0.09382 0.0
C250 C 0.18791 0.33079 0.12082 0.0
C251 C 0.20741 0.34034 0.12785 0.0
C252 C 0.221 0.35083 0.10759 0.0
C253 C 0.21548 0.35147 0.08051 0.0
C254 C 0.19599 0.34208 0.07364 0.0
H255 H 0.6923 0.83713 0.12925 0.0
H256 H 0.67371 0.81882 0.04429 0.0
H257 H 0.65996 0.77642 0.10584 0.0
H258 H 0.70802 0.85951 0.08854 0.0
H259 H 0.69646 0.85262 0.05537 0.0
H260 H 0.69052 0.86426 0.13002 0.0
H261 H 0.65962 0.89107 0.10784 0.0
H262 H 0.6749 0.86292 0.04449 0.0
C263 C 0.68429 0.8257 0.11372 0.0
C264 C 0.67551 0.80619 0.12115 0.0
C265 C 0.68322 0.83046 0.08619 0.0
C266 C 0.67386 0.81538 0.06578 0.0
C267 C 0.66525 0.79586 0.073 0.0
C268 C 0.66588 0.79148 0.10066 0.0
C269 C 0.69377 0.85154 0.0781 0.0
C270 C 0.68315 0.86157 0.08644 0.0
C271 C 0.68318 0.86729 0.11438 0.0
C272 C 0.67422 0.87743 0.12221 0.0
C273 C 0.66553 0.88225 0.10183 0.0
C274 C 0.66588 0.87737 0.07368 0.0
C275 C 0.67446 0.8667 0.06616 0.0
H276 H 0.17269 0.79977 0.13231 0.0
H277 H 0.16551 0.79299 0.04335 0.0
H278 H 0.11651 0.76983 0.09626 0.0
H279 H 0.19883 0.8034 0.09955 0.0
H280 H 0.19663 0.80557 0.06327 0.0
H281 H 0.19845 0.8296 0.1332 0.0
H282 H 0.23364 0.88703 0.10321 0.0
H283 H 0.21321 0.83763 0.04661 0.0
C284 C 0.1636 0.79546 0.11409 0.0
C285 C 0.14371 0.78501 0.1174 0.0
C286 C 0.17171 0.79914 0.0874 0.0
C287 C 0.15952 0.79137 0.06393 0.0
C288 C 0.13957 0.78071 0.06711 0.0
C289 C 0.1319 0.77823 0.09379 0.0
C290 C 0.19317 0.80912 0.08417 0.0
C291 C 0.2034 0.83099 0.08893 0.0
C292 C 0.20486 0.839 0.11588 0.0
C293 C 0.21534 0.85919 0.12094 0.0
C294 C 0.22464 0.87148 0.09893 0.0
C295 C 0.22425 0.86387 0.07217 0.0
C296 C 0.21334 0.84359 0.06715 0.0
H297 H 0.38034 0.2106 0.87513 0.0
H298 H 0.37591 0.21699 0.96365 0.0
H299 H 0.35479 0.24163 0.90727 0.0
H300 H 0.40154 0.20749 0.90969 0.0
H301 H 0.39637 0.20626 0.94583 0.0
H302 H 0.37632 0.18014 0.87662 0.0
H303 H 0.3514 0.12375 0.91129 0.0
H304 H 0.37957 0.17486 0.96476 0.0
C305 C 0.37501 0.21498 0.89273 0.0
C306 C 0.36636 0.22568 0.88825 0.0
C307 C 0.37811 0.2113 0.91996 0.0
C308 C 0.37268 0.2188 0.94263 0.0
C309 C 0.36406 0.22959 0.93817 0.0
C310 C 0.36062 0.23256 0.91093 0.0
C311 C 0.38964 0.20195 0.92481 0.0
C312 C 0.37777 0.18 0.92135 0.0
C313 C 0.37224 0.17117 0.89459 0.0
C314 C 0.36295 0.15089 0.89075 0.0
C315 C 0.35847 0.13943 0.91407 0.0
C316 C 0.3647 0.14792 0.94064 0.0
C317 C 0.37425 0.16824 0.94432 0.0
H318 H 0.85575 0.18076 0.88972 0.0
H319 H 0.85858 0.19712 0.97653 0.0
H320 H 0.88216 0.24079 0.91493 0.0
H321 H 0.85285 0.15879 0.93049 0.0
H322 H 0.84667 0.16388 0.9639 0.0
H323 H 0.83022 0.1499 0.88958 0.0
H324 H 0.77089 0.11996 0.91078 0.0
H325 H 0.81351 0.15177 0.97427 0.0
C326 C 0.85908 0.19166 0.90599 0.0
C327 C 0.86856 0.21128 0.89912 0.0
C328 C 0.85458 0.18626 0.93383 0.0
C329 C 0.86082 0.20095 0.95491 0.0
C330 C 0.87072 0.22067 0.94814 0.0
C331 C 0.87389 0.22558 0.9202 0.0
C332 C 0.84522 0.16512 0.94126 0.0
C333 C 0.82435 0.15319 0.93265 0.0
C334 C 0.81926 0.14655 0.90482 0.0
C335 C 0.80001 0.13457 0.89688 0.0
C336 C 0.7858 0.12943 0.91681 0.0
C337 C 0.7905 0.13543 0.94468 0.0
C338 C 0.80981 0.1474 0.95262 0.0
H339 H 0.83603 0.64192 0.86028 0.0
H340 H 0.83802 0.63822 0.94895 0.0
H341 H 0.88974 0.66279 0.90186 0.0
H342 H 0.80708 0.62042 0.88613 0.0
H343 H 0.8079 0.61889 0.92282 0.0
H344 H 0.80847 0.64948 0.86572 0.0
H345 H 0.78311 0.67446 0.91699 0.0
H346 H 0.79888 0.63693 0.95256 0.0
C347 C 0.84429 0.64521 0.87926 0.0
C348 C 0.86412 0.6531 0.87792 0.0
C349 C 0.8348 0.64013 0.9049 0.0
C350 C 0.84535 0.643 0.92935 0.0
C351 C 0.86522 0.65121 0.92833 0.0
C352 C 0.87445 0.65675 0.90271 0.0
C353 C 0.81322 0.6293 0.90567 0.0
C354 C 0.80594 0.64296 0.90919 0.0
C355 C 0.80423 0.65209 0.88596 0.0
C356 C 0.79552 0.66311 0.88843 0.0
C357 C 0.7898 0.66597 0.91477 0.0
C358 C 0.79055 0.65628 0.93776 0.0
C359 C 0.7988 0.64491 0.935 0.0
H360 H 0.81408 0.65392 0.4597 0.0
H361 H 0.81677 0.67131 0.37535 0.0
H362 H 0.78496 0.68251 0.43639 0.0
H363 H 0.82129 0.63805 0.41826 0.0
H364 H 0.82764 0.64987 0.38595 0.0
H365 H 0.84281 0.65335 0.46015 0.0
H366 H 0.90224 0.69064 0.44154 0.0
H367 H 0.86004 0.67629 0.37825 0.0
C368 C 0.81086 0.66124 0.44428 0.0
C369 C 0.79902 0.6684 0.4513 0.0
C370 C 0.81752 0.6624 0.41694 0.0
C371 C 0.81222 0.67091 0.39663 0.0
C372 C 0.80057 0.67835 0.4036 0.0
C373 C 0.79431 0.67722 0.43101 0.0
C374 C 0.82832 0.65258 0.40883 0.0
C375 C 0.84893 0.66427 0.41849 0.0
C376 C 0.85384 0.66269 0.44584 0.0
C377 C 0.87309 0.67206 0.45408 0.0
C378 C 0.88734 0.68362 0.43529 0.0
C379 C 0.8828 0.68522 0.40803 0.0
C380 C 0.86357 0.67554 0.39959 0.0
H381 H 0.34611 0.16236 0.46066 0.0
H382 H 0.34009 0.14678 0.37314 0.0
H383 H 0.32041 0.10268 0.43354 0.0
H384 H 0.36857 0.18528 0.42016 0.0
H385 H 0.35782 0.18014 0.38665 0.0
H386 H 0.3546 0.19392 0.46061 0.0
H387 H 0.32533 0.22253 0.43892 0.0
H388 H 0.33489 0.18931 0.37644 0.0
C389 C 0.34064 0.15148 0.44394 0.0
C390 C 0.33203 0.13181 0.45038 0.0
C391 C 0.34302 0.15707 0.41605 0.0
C392 C 0.33722 0.14266 0.39462 0.0
C393 C 0.3292 0.12309 0.40104 0.0
C394 C 0.3261 0.11778 0.42877 0.0
C395 C 0.35454 0.1784 0.40919 0.0
C396 C 0.34492 0.1894 0.41784 0.0
C397 C 0.34671 0.19659 0.44541 0.0
C398 C 0.33952 0.20841 0.45303 0.0
C399 C 0.33038 0.21294 0.43303 0.0
C400 C 0.32865 0.20624 0.40534 0.0
C401 C 0.33581 0.19427 0.39787 0.0
H402 H 0.84495 0.14903 0.47836 0.0
H403 H 0.83753 0.13564 0.39038 0.0
H404 H 0.78867 0.11612 0.44278 0.0
H405 H 0.86976 0.14675 0.44635 0.0
H406 H 0.86841 0.14926 0.41008 0.0
H407 H 0.87626 0.17398 0.48003 0.0
H408 H 0.91094 0.23091 0.44784 0.0
H409 H 0.88192 0.18113 0.39167 0.0
C410 C 0.83581 0.1433 0.46014 0.0
C411 C 0.8159 0.13334 0.46343 0.0
C412 C 0.84384 0.1448 0.43368 0.0
C413 C 0.83159 0.13564 0.41056 0.0
C414 C 0.81164 0.12538 0.41372 0.0
C415 C 0.80402 0.1249 0.44002 0.0
C416 C 0.86512 0.15331 0.43075 0.0
C417 C 0.87674 0.17519 0.43532 0.0
C418 C 0.88133 0.18337 0.46248 0.0
C419 C 0.89364 0.20349 0.4671 0.0
C420 C 0.90114 0.21543 0.44422 0.0
C421 C 0.89738 0.20761 0.41692 0.0
C422 C 0.88481 0.18743 0.41259 0.0
H423 H 0.03423 0.53574 0.20288 0.0
H424 H 0.04265 0.55209 0.28997 0.0
H425 H 0.01485 0.57186 0.23735 0.0
H426 H 0.06154 0.53826 0.23253 0.0
H427 H 0.05985 0.53882 0.2693 0.0
H428 H 0.03674 0.50867 0.2042 0.0
H429 H 0.01746 0.45515 0.24465 0.0
H430 H 0.04302 0.50881 0.29294 0.0
C431 C 0.03177 0.5425 0.22087 0.0
C432 C 0.02262 0.55288 0.21742 0.0
C433 C 0.03872 0.54178 0.24714 0.0
C434 C 0.03661 0.55186 0.26998 0.0
C435 C 0.02789 0.5627 0.26668 0.0
C436 C 0.02058 0.56266 0.24048 0.0
C437 C 0.05114 0.53322 0.24986 0.0
C438 C 0.0399 0.51119 0.24893 0.0
C439 C 0.03389 0.50087 0.2232 0.0
C440 C 0.02587 0.48068 0.22163 0.0
C441 C 0.0232 0.4707 0.24603 0.0
C442 C 0.02939 0.48066 0.2718 0.0
C443 C 0.03763 0.50094 0.27322 0.0
H444 H 0.52445 0.50793 0.21493 0.0
H445 H 0.5274 0.52788 0.30002 0.0
H446 H 0.55514 0.56904 0.23607 0.0
H447 H 0.51882 0.48656 0.25659 0.0
H448 H 0.51471 0.49393 0.2899 0.0
H449 H 0.49554 0.47979 0.21649 0.0
H450 H 0.43731 0.45375 0.24214 0.0
H451 H 0.48256 0.48366 0.30259 0.0
C452 C 0.52862 0.51963 0.2302 0.0
C453 C 0.53966 0.53897 0.22189 0.0
C454 C 0.52351 0.51541 0.25825 0.0
C455 C 0.53031 0.53087 0.2782 0.0
C456 C 0.54158 0.55019 0.27001 0.0
C457 C 0.5458 0.55407 0.24197 0.0
C458 C 0.51273 0.49452 0.26723 0.0
C459 C 0.49163 0.48404 0.26009 0.0
C460 C 0.48532 0.47736 0.23257 0.0
C461 C 0.46574 0.46638 0.22605 0.0
C462 C 0.45247 0.46244 0.24709 0.0
C463 C 0.45834 0.46845 0.27467 0.0
C464 C 0.47797 0.47934 0.28116 0.0
H465 H 0.50267 0.96534 0.196 0.0
H466 H 0.50872 0.9669 0.28495 0.0
H467 H 0.55842 0.99289 0.23342 0.0
H468 H 0.47552 0.94292 0.22668 0.0
H469 H 0.47769 0.94667 0.26349 0.0
H470 H 0.47784 0.97076 0.19743 0.0
H471 H 0.44535 0.99335 0.23408 0.0
H472 H 0.46364 0.96322 0.28427 0.0
C473 C 0.51166 0.97045 0.21442 0.0
C474 C 0.53157 0.97998 0.21157 0.0
C475 C 0.50326 0.96624 0.24091 0.0
C476 C 0.51505 0.97115 0.26462 0.0
C477 C 0.53499 0.98076 0.26193 0.0
C478 C 0.54304 0.9857 0.23551 0.0
C479 C 0.48173 0.95437 0.24356 0.0
C480 C 0.4729 0.96667 0.24148 0.0
C481 C 0.47184 0.97369 0.21562 0.0
C482 C 0.46213 0.98358 0.21281 0.0
C483 C 0.45378 0.9867 0.23629 0.0
C484 C 0.45415 0.97934 0.26198 0.0
C485 C 0.46382 0.96941 0.2646 0.0
H486 H 0.48138 0.99181 0.79767 0.0
H487 H 0.48556 0.01054 0.71378 0.0
H488 H 0.45275 0.02085 0.77413 0.0
H489 H 0.49049 0.97739 0.75832 0.0
H490 H 0.49444 0.98715 0.72461 0.0
H491 H 0.51365 0.99979 0.79837 0.0
H492 H 0.57196 0.0311 0.77137 0.0
H493 H 0.52654 0.00869 0.71121 0.0
C494 C 0.47849 0.99944 0.78232 0.0
C495 C 0.46653 0.00649 0.78915 0.0
C496 C 0.48566 1.00105 0.75521 0.0
C497 C 0.4807 0.00986 0.73492 0.0
C498 C 0.46892 0.01719 0.74172 0.0
C499 C 0.4622 0.01565 0.76892 0.0
C500 C 0.49649 0.99121 0.74716 0.0
C501 C 0.5176 1.00372 0.75413 0.0
C502 C 0.52395 0.00623 0.7819 0.0
C503 C 0.54359 0.01636 0.78836 0.0
C504 C 0.55681 0.02413 0.76677 0.0
C505 C 0.55082 0.02139 0.73902 0.0
C506 C 0.53119 0.01125 0.73273 0.0
H507 H 0.01706 0.49841 0.80032 0.0
H508 H 1.00199 0.4808 0.71425 0.0
H509 H 0.98422 0.43792 0.77643 0.0
H510 H 0.03437 0.52116 0.76015 0.0
H511 H 0.02372 0.51459 0.72633 0.0
H512 H 0.01465 0.52442 0.80057 0.0
H513 H 0.98567 0.55271 0.77619 0.0
H514 H 1.00413 0.52691 0.7138 0.0
C515 C 0.00939 0.48718 0.78442 0.0
C516 C 0.99973 0.46763 0.79177 0.0
C517 C 0.00954 0.49217 0.75664 0.0
C518 C 1.001 0.47722 0.7359 0.0
C519 C 0.99181 0.45761 0.74305 0.0
C520 C 0.99078 0.45303 0.77101 0.0
C521 C 0.02042 0.51335 0.74887 0.0
C522 C 0.0097 0.52345 0.75637 0.0
C523 C 0.00827 0.52812 0.78435 0.0
C524 C 0.99908 0.53813 0.79159 0.0
C525 C 0.99173 0.54396 0.77059 0.0
C526 C 0.99366 0.54025 0.74249 0.0
C527 C 1.00245 0.52971 0.73546 0.0
H528 H 0.511 0.47609 0.81218 0.0
H529 H 0.50495 0.46638 0.72341 0.0
H530 H 0.45543 0.44069 0.77561 0.0
H531 H 0.53779 0.47916 0.78109 0.0
H532 H 0.53584 0.47996 0.74444 0.0
H533 H 0.5369 0.50596 0.81195 0.0
H534 H 0.57161 0.5623 0.77812 0.0
H535 H 0.55109 0.51119 0.72515 0.0
C536 C 0.50207 0.47037 0.79376 0.0
C537 C 0.48216 0.45918 0.79669 0.0
C538 C 0.51045 0.47352 0.76731 0.0
C539 C 0.49858 0.46466 0.74372 0.0
C540 C 0.47861 0.45279 0.74646 0.0
C541 C 0.47066 0.45055 0.77299 0.0
C542 C 0.53198 0.48403 0.76465 0.0
C543 C 0.54164 0.50594 0.76776 0.0
C544 C 0.54313 0.5148 0.79406 0.0
C545 C 0.55357 0.53512 0.79778 0.0
C546 C 0.5626 0.54665 0.77494 0.0
C547 C 0.56202 0.53818 0.74879 0.0
C548 C 0.55127 0.5178 0.74518 0.0
H549 H 0.69858 0.86682 0.53418 0.0
H550 H 0.71061 0.88554 0.62028 0.0
H551 H 0.68135 0.90443 0.56906 0.0
H552 H 0.72844 0.87137 0.56405 0.0
H553 H 0.7248 0.86906 0.60046 0.0
H554 H 0.70486 0.84398 0.53088 0.0
H555 H 0.68136 0.78715 0.56234 0.0
H556 H 0.70774 0.83706 0.61859 0.0
C557 C 0.69709 0.87417 0.55219 0.0
C558 C 0.68794 0.88456 0.5491 0.0
C559 C 0.70501 0.87403 0.57794 0.0
C560 C 0.70395 0.8849 0.60067 0.0
C561 C 0.69522 0.89579 0.59772 0.0
C562 C 0.68709 0.89523 0.57198 0.0
C563 C 0.71715 0.86501 0.58011 0.0
C564 C 0.70602 0.84306 0.5756 0.0
C565 C 0.70086 0.83477 0.54853 0.0
C566 C 0.6913 0.81458 0.54382 0.0
C567 C 0.6876 0.80263 0.56629 0.0
C568 C 0.69386 0.81058 0.59319 0.0
C569 C 0.7027 0.83081 0.5979 0.0
H570 H 0.18783 0.85645 0.54627 0.0
H571 H 0.19171 0.87118 0.63387 0.0
H572 H 0.22163 0.91593 0.57506 0.0
H573 H 0.18056 0.83189 0.58484 0.0
H574 H 0.17633 0.83764 0.61916 0.0
H575 H 0.15885 0.83136 0.54479 0.0
H576 H 0.10013 0.80278 0.56812 0.0
H577 H 0.1438 0.82487 0.63133 0.0
C578 C 0.19245 0.86717 0.5631 0.0
C579 C 0.20438 0.88691 0.55719 0.0
C580 C 0.18701 0.86128 0.59062 0.0
C581 C 0.19478 0.87548 0.61248 0.0
C582 C 0.2073 0.89515 0.6067 0.0
C583 C 0.21158 0.90073 0.57918 0.0
C584 C 0.17494 0.83982 0.59684 0.0
C585 C 0.15401 0.83065 0.58903 0.0
C586 C 0.14834 0.82725 0.5609 0.0
C587 C 0.12898 0.81769 0.55324 0.0
C588 C 0.11513 0.81115 0.57399 0.0
C589 C 0.12029 0.8134 0.60213 0.0
C590 C 0.13978 0.82339 0.60962 0.0
H591 H 0.16885 0.30519 0.53129 0.0
H592 H 0.17665 0.29965 0.61804 0.0
H593 H 0.22508 0.32719 0.5642 0.0
H594 H 0.14225 0.27954 0.562 0.0
H595 H 0.14496 0.28291 0.59876 0.0
H596 H 0.14151 0.30533 0.53342 0.0
H597 H 0.11335 0.33111 0.57482 0.0
H598 H 0.13422 0.30195 0.62215 0.0
C599 C 0.17815 0.30837 0.54897 0.0
C600 C 0.19793 0.31766 0.54484 0.0
C601 C 0.17031 0.3024 0.5755 0.0
C602 C 0.18255 0.30517 0.59785 0.0
C603 C 0.20236 0.31433 0.59383 0.0
C604 C 0.2099 0.32094 0.56752 0.0
C605 C 0.14882 0.29084 0.57903 0.0
C606 C 0.14015 0.30337 0.57812 0.0
C607 C 0.13723 0.30937 0.55249 0.0
C608 C 0.12791 0.31976 0.55117 0.0
C609 C 0.12153 0.32411 0.5758 0.0
C610 C 0.12353 0.31757 0.60133 0.0
C611 C 0.13306 0.3074 0.60251 0.0
H612 H 0.97511 0.40369 0.07659 0.0
H613 H 0.03511 0.42321 0.07241 0.0
H614 H 0.9816 0.42527 0.11732 0.0
H615 H 0.04151 0.44477 0.1128 0.0
H616 H 0.03936 0.4577 0.20578 0.0
H617 H 0.03329 0.43887 0.16253 0.0
H618 H 0.99936 0.46119 0.1326 0.0
H619 H 1.00538 0.48008 0.17651 0.0
C620 C 0.98967 0.41262 0.08426 0.0
C621 C 1.00457 0.41159 0.07142 0.0
C622 C 0.99339 0.42508 0.10742 0.0
C623 C 0.01204 0.43664 0.11825 0.0
C624 C 0.02696 0.43587 0.10507 0.0
C625 C 0.02328 0.42352 0.08191 0.0
C626 C 0.03057 0.45857 0.18999 0.0
C627 C 0.02265 0.47015 0.19454 0.0
C628 C 0.02724 0.44793 0.16513 0.0
C629 C 0.01587 0.44858 0.14419 0.0
C630 C 0.00808 0.46034 0.14852 0.0
C631 C 0.01159 0.4712 0.17346 0.0
H632 H 0.58591 0.59685 0.0656 0.0
H633 H 0.62488 0.58133 0.09746 0.0
H634 H 0.56263 0.57744 0.10051 0.0
H635 H 0.60195 0.56258 0.13321 0.0
H636 H 0.55483 0.5224 0.18842 0.0
H637 H 0.57208 0.53488 0.14514 0.0
H638 H 0.55901 0.58021 0.14846 0.0
H639 H 0.54102 0.5671 0.19062 0.0
C640 C 0.58952 0.58932 0.08014 0.0
C641 C 0.60732 0.5908 0.07898 0.0
C642 C 0.57618 0.57821 0.10022 0.0
C643 C 0.58041 0.56852 0.11991 0.0
C644 C 0.59803 0.56957 0.11819 0.0
C645 C 0.61129 0.58049 0.09784 0.0
C646 C 0.55513 0.53462 0.17935 0.0
C647 C 0.54674 0.5439 0.19306 0.0
C648 C 0.56527 0.54198 0.15477 0.0
C649 C 0.56726 0.55878 0.14348 0.0
C650 C 0.55774 0.5672 0.15631 0.0
C651 C 0.54754 0.55979 0.18068 0.0
H652 H 0.38705 0.96308 0.08075 0.0
H653 H 0.42698 0.0247 0.07247 0.0
H654 H 0.40749 0.96228 0.11599 0.0
H655 H 0.44779 0.02381 0.10744 0.0
H656 H 0.46277 0.01631 0.19792 0.0
H657 H 0.4481 0.01989 0.15676 0.0
H658 H 0.4375 0.9647 0.1235 0.0
H659 H 0.4513 0.96068 0.16528 0.0
C660 C 0.40028 0.97645 0.0863 0.0
C661 C 0.40532 0.99397 0.07389 0.0
C662 C 0.41214 0.97596 0.10634 0.0
C663 C 0.4294 0.99295 0.11441 0.0
C664 C 0.43453 0.01048 0.10184 0.0
C665 C 0.42261 0.01099 0.0818 0.0
C666 C 0.45757 0.00509 0.1816 0.0
C667 C 0.45793 0.98808 0.1851 0.0
C668 C 0.44927 0.0072 0.15789 0.0
C669 C 0.44125 0.99239 0.13706 0.0
C670 C 0.44313 0.97616 0.13948 0.0
C671 C 0.45133 0.974 0.16326 0.0
H672 H 0.39895 0.01247 0.92134 0.0
H673 H 0.42912 0.98965 0.96264 0.0
H674 H 0.41433 0.01254 0.87788 0.0
H675 H 0.44427 0.98941 0.91896 0.0
H676 H 0.4831 0.0139 0.84088 0.0
H677 H 0.46787 0.01185 0.88571 0.0
H678 H 0.41369 0.98944 0.84369 0.0
H679 H 0.42889 0.99168 0.79926 0.0
C680 C 0.40878 0.00737 0.92113 0.0
C681 C 0.41277 1.00102 0.94547 0.0
C682 C 0.41753 0.0073 0.89617 0.0
C683 C 0.43047 1.00089 0.89492 0.0
C684 C 0.43451 0.9946 0.91928 0.0
C685 C 0.42573 0.99463 0.94426 0.0
C686 C 0.4679 0.00832 0.84139 0.0
C687 C 0.45724 1.00326 0.81662 0.0
C688 C 0.45917 0.00713 0.86699 0.0
C689 C 0.43962 1.00079 0.8682 0.0
C690 C 0.42886 0.99487 0.84344 0.0
C691 C 0.43755 0.99609 0.818 0.0
H692 H 0.97668 0.41457 0.95356 0.0
H693 H 0.02799 0.41828 0.92269 0.0
H694 H 0.97704 0.4334 0.91499 0.0
H695 H 0.02812 0.43685 0.88373 0.0
H696 H 0.03078 0.48122 0.82618 0.0
H697 H 0.03206 0.4679 0.87041 0.0
H698 H 0.97104 0.42722 0.8654 0.0
H699 H 0.96978 0.44081 0.82175 0.0
C700 C 0.98806 0.41941 0.93856 0.0
C701 C 1.00222 0.41477 0.94107 0.0
C702 C 0.98824 0.43019 0.91642 0.0
C703 C 1.00256 0.43657 0.89623 0.0
C704 C 0.01702 0.43236 0.89912 0.0
C705 C 0.01685 0.42157 0.92131 0.0
C706 C 0.01761 0.46978 0.83498 0.0
C707 C 1.00019 0.46199 0.82055 0.0
C708 C 0.01836 0.462 0.86008 0.0
C709 C 1.00168 0.44638 0.87129 0.0
C710 C 0.98414 0.43933 0.8575 0.0
C711 C 0.98341 0.44703 0.83242 0.0
H712 H 0.62178 0.597 0.93943 0.0
H713 H 0.57454 0.60564 0.9515 0.0
H714 H 0.60572 0.57612 0.89867 0.0
H715 H 0.55845 0.58463 0.91054 0.0
H716 H 0.55194 0.56684 0.81482 0.0
H717 H 0.56388 0.58555 0.85873 0.0
H718 H 0.57644 0.54348 0.88784 0.0
H719 H 0.56479 0.52497 0.84389 0.0
C720 C 0.60798 0.59447 0.93337 0.0
C721 C 0.59944 0.60299 0.9487 0.0
C722 C 0.5987 0.58236 0.91017 0.0
C723 C 0.58075 0.57861 0.90161 0.0
C724 C 0.57229 0.5873 0.91668 0.0
C725 C 0.5815 0.59929 0.94011 0.0
C726 C 0.55697 0.56146 0.83083 0.0
C727 C 0.55749 0.5445 0.82593 0.0
C728 C 0.56372 0.57211 0.85595 0.0
C729 C 0.57128 0.56607 0.87654 0.0
C730 C 0.57091 0.54859 0.87217 0.0
C731 C 0.56403 0.53788 0.84716 0.0
H732 H 0.01783 0.5822 0.96468 0.0
H733 H 0.98302 0.60023 0.92485 0.0
H734 H 0.01646 0.56392 0.92246 0.0
H735 H 0.98198 0.58231 0.88261 0.0
H736 H 0.96852 0.53495 0.8191 0.0
H737 H 0.96849 0.54921 0.86453 0.0
H738 H 0.02843 0.56987 0.87498 0.0
H739 H 0.02835 0.55538 0.82961 0.0
C740 C 0.00992 0.58231 0.94691 0.0
C741 C 1.00052 0.59267 0.94813 0.0
C742 C 0.0092 0.57188 0.9227 0.0
C743 C 0.99902 0.57157 0.89923 0.0
C744 C 0.98964 0.58195 0.90049 0.0
C745 C 0.99037 0.59236 0.92465 0.0
C746 C 0.98162 0.54234 0.83129 0.0
C747 C 0.99846 0.54417 0.82078 0.0
C748 C 0.98164 0.55059 0.85722 0.0
C749 C 0.99853 0.56093 0.87318 0.0
C750 C 0.01515 0.5619 0.86328 0.0
C751 C 0.01511 0.55357 0.83732 0.0
H752 H 0.40595 0.42682 0.93998 0.0
H753 H 0.42359 0.38517 0.92979 0.0
H754 H 0.42839 0.44649 0.90416 0.0
H755 H 0.44556 0.40449 0.89362 0.0
H756 H 0.49313 0.44802 0.84233 0.0
H757 H 0.47482 0.43452 0.88451 0.0
H758 H 0.43156 0.44478 0.85475 0.0
H759 H 0.45027 0.45901 0.81329 0.0
C760 C 0.41456 0.42182 0.93004 0.0
C761 C 0.41292 0.40438 0.93765 0.0
C762 C 0.42741 0.43309 0.9095 0.0
C763 C 0.43886 0.42713 0.89606 0.0
C764 C 0.43728 0.40975 0.90389 0.0
C765 C 0.4245 0.39854 0.92446 0.0
C766 C 0.48001 0.44794 0.84523 0.0
C767 C 0.47305 0.45441 0.8244 0.0
C768 C 0.46937 0.43994 0.8692 0.0
C769 C 0.45154 0.43824 0.87281 0.0
C770 C 0.44524 0.44591 0.85277 0.0
C771 C 0.45589 0.45394 0.82889 0.0
H772 H 0.59357 0.98579 0.91577 0.0
H773 H 0.61075 0.04453 0.94156 0.0
H774 H 0.57372 0.98639 0.87905 0.0
H775 H 0.59035 0.04489 0.90569 0.0
H776 H 0.57367 0.04734 0.81571 0.0
H777 H 0.5898 0.0468 0.85726 0.0
H778 H 0.54569 0.98656 0.86773 0.0
H779 H 0.53011 0.98689 0.82508 0.0
C780 C 0.59296 0.99876 0.91375 0.0
C781 C 0.60391 0.01518 0.93137 0.0
C782 C 0.58142 0.99905 0.89287 0.0
C783 C 0.58039 0.0157 0.88931 0.0
C784 C 0.59102 0.03194 0.90744 0.0
C785 C 0.60271 0.03172 0.92808 0.0
C786 C 0.56729 0.03404 0.82706 0.0
C787 C 0.55074 0.0171 0.81689 0.0
C788 C 0.57647 0.03375 0.85108 0.0
C789 C 0.56922 0.01654 0.86577 0.0
C790 C 0.55192 0.99995 0.85663 0.0
C791 C 0.54279 1.00021 0.83243 0.0
H792 H 0.58977 0.02551 0.05554 0.0
H793 H 0.59308 0.97459 0.06706 0.0
H794 H 0.5705 0.01841 0.09735 0.0
H795 H 0.57323 0.96703 0.10798 0.0
H796 H 0.55949 0.9729 0.19733 0.0
H797 H 0.57632 0.97888 0.1539 0.0
H798 H 0.54018 0.99697 0.11864 0.0
H799 H 0.52391 0.99201 0.16324 0.0
C800 C 0.58625 0.01272 0.06688 0.0
C801 C 0.59315 1.00075 0.05821 0.0
C802 C 0.57506 0.00855 0.09071 0.0
C803 C 0.57038 0.99221 0.1062 0.0
C804 C 0.57689 0.97998 0.09698 0.0
C805 C 0.58825 0.98428 0.07343 0.0
C806 C 0.55522 0.97837 0.18046 0.0
C807 C 0.54059 0.98234 0.18394 0.0
C808 C 0.5647 0.9815 0.15531 0.0
C809 C 0.55963 0.98839 0.13264 0.0
C810 C 0.54463 0.9919 0.13579 0.0
C811 C 0.53517 0.98887 0.16121 0.0
H812 H 0.97868 0.58318 0.07487 0.0
H813 H 0.03928 0.62484 0.08408 0.0
H814 H 0.98069 0.56356 0.11053 0.0
H815 H 0.0412 0.60556 0.11998 0.0
H816 H 0.04428 0.56265 0.17047 0.0
H817 H 0.03944 0.57544 0.12832 0.0
H818 H 0.98568 0.5652 0.16004 0.0
H819 H 0.99018 0.55168 0.20159 0.0
C820 C 0.99241 0.58819 0.08455 0.0
C821 C 0.0088 0.60562 0.07668 0.0
C822 C 0.99356 0.57694 0.105 0.0
C823 C 0.01113 0.58288 0.11802 0.0
C824 C 0.02751 0.60029 0.11001 0.0
C825 C 0.02636 0.61149 0.08959 0.0
C826 C 0.03112 0.56249 0.168 0.0
C827 C 0.01769 0.55632 0.18947 0.0
C828 C 0.02848 0.57011 0.14403 0.0
C829 C 0.01237 0.57175 0.14104 0.0
C830 C 0.99824 0.56416 0.16158 0.0
C831 C 1.00086 0.5565 0.18548 0.0
H832 H 0.38805 0.40292 0.09088 0.0
H833 H 0.44268 0.43065 0.04974 0.0
H834 H 0.40413 0.41788 0.13497 0.0
H835 H 0.4588 0.44537 0.09408 0.0
H836 H 0.47705 0.48404 0.17596 0.0
H837 H 0.46285 0.46981 0.13015 0.0
H838 H 0.42474 0.41465 0.16733 0.0
H839 H 0.43874 0.42884 0.21272 0.0
C840 C 0.4035 0.41216 0.09124 0.0
C841 C 0.41408 0.41552 0.06681 0.0
C842 C 0.41273 0.42066 0.11655 0.0
C843 C 0.43277 0.4327 0.11805 0.0
C844 C 0.44335 0.43628 0.09356 0.0
C845 C 0.4341 0.42775 0.0682 0.0
C846 C 0.46578 0.46883 0.17415 0.0
C847 C 0.45875 0.45763 0.19788 0.0
C848 C 0.45766 0.46069 0.14801 0.0
C849 C 0.44244 0.44119 0.14523 0.0
C850 C 0.43608 0.42984 0.16887 0.0
C851 C 0.44413 0.43795 0.19485 0.0
H852 H 0.64632 0.74658 0.38741 0.0
H853 H 0.70207 0.75531 0.40265 0.0
H854 H 0.65055 0.76755 0.42798 0.0
H855 H 0.70621 0.77615 0.44309 0.0
H856 H 0.71536 0.82593 0.49962 0.0
H857 H 0.71007 0.80847 0.45497 0.0
H858 H 0.65278 0.76548 0.47962 0.0
H859 H 0.65801 0.7831 0.52412 0.0
C860 C 0.65948 0.753 0.39936 0.0
C861 C 0.67383 0.74923 0.39188 0.0
C862 C 0.66187 0.76496 0.42258 0.0
C863 C 0.67875 0.77356 0.43858 0.0
C864 C 0.69317 0.76996 0.43091 0.0
C865 C 0.69071 0.75787 0.40789 0.0
C866 C 0.70149 0.81303 0.49519 0.0
C867 C 0.6871 0.80582 0.5153 0.0
C868 C 0.69853 0.80293 0.46979 0.0
C869 C 0.68108 0.78553 0.46396 0.0
C870 C 0.66634 0.7789 0.48349 0.0
C871 C 0.66935 0.78891 0.50897 0.0
H872 H 0.23882 0.94694 0.40028 0.0
H873 H 0.27836 0.92836 0.41605 0.0
H874 H 0.2199 0.92909 0.43987 0.0
H875 H 0.25983 0.91106 0.45636 0.0
H876 H 0.2163 0.87066 0.51719 0.0
H877 H 0.23053 0.88401 0.47246 0.0
H878 H 0.22218 0.93197 0.48879 0.0
H879 H 0.20712 0.9181 0.53255 0.0
C880 C 0.24354 0.93912 0.4123 0.0
C881 C 0.26018 0.9392 0.40515 0.0
C882 C 0.2327 0.92891 0.43507 0.0
C883 C 0.23835 0.91869 0.45146 0.0
C884 C 0.25486 0.91852 0.444 0.0
C885 C 0.2656 0.92859 0.42103 0.0
C886 C 0.21706 0.88377 0.51084 0.0
C887 C 0.2107 0.8934 0.52849 0.0
C888 C 0.22547 0.89159 0.48539 0.0
C889 C 0.22772 0.90921 0.47709 0.0
C890 C 0.22057 0.91831 0.49428 0.0
C891 C 0.21209 0.91046 0.51956 0.0
H892 H 0.04881 0.30276 0.42543 0.0
H893 H 0.09386 0.36189 0.41032 0.0
H894 H 0.06858 0.30066 0.46057 0.0
H895 H 0.11382 0.35966 0.44546 0.0
H896 H 0.12997 0.35315 0.53613 0.0
H897 H 0.11456 0.35722 0.49615 0.0
H898 H 0.09753 0.29945 0.46528 0.0
H899 H 0.11242 0.29517 0.50568 0.0
C900 C 0.06296 0.31533 0.42955 0.0
C901 C 0.06971 0.33252 0.41509 0.0
C902 C 0.07439 0.31404 0.44953 0.0
C903 C 0.09287 0.32992 0.45564 0.0
C904 C 0.09962 0.34719 0.4413 0.0
C905 C 0.08819 0.34846 0.42117 0.0
C906 C 0.12319 0.34145 0.52056 0.0
C907 C 0.12227 0.32378 0.52419 0.0
C908 C 0.11445 0.34382 0.49757 0.0
C909 C 0.10456 0.32855 0.47775 0.0
C910 C 0.10473 0.31136 0.48047 0.0
C911 C 0.1135 0.30901 0.50342 0.0
H912 H 0.07503 0.35652 0.26092 0.0
H913 H 0.09621 0.32475 0.3021 0.0
H914 H 0.09272 0.35771 0.2195 0.0
H915 H 0.11417 0.32621 0.26061 0.0
H916 H 0.12242 0.31319 0.16737 0.0
H917 H 0.10833 0.31298 0.21235 0.0
H918 H 0.12571 0.37311 0.20362 0.0
H919 H 0.13968 0.37324 0.15869 0.0
C920 C 0.0835 0.34983 0.26118 0.0
C921 C 0.0842 0.34055 0.28484 0.0
C922 C 0.09378 0.35066 0.23749 0.0
C923 C 0.10499 0.3422 0.23684 0.0
C924 C 0.10559 0.33278 0.26042 0.0
C925 C 0.09534 0.332 0.2842 0.0
C926 C 0.12364 0.32648 0.17542 0.0
C927 C 0.13199 0.34318 0.15943 0.0
C928 C 0.11552 0.32636 0.20113 0.0
C929 C 0.11562 0.34294 0.21132 0.0
C930 C 0.125 0.35996 0.19604 0.0
C931 C 0.13309 0.36008 0.1704 0.0
H932 H 0.71932 0.76545 0.24383 0.0
H933 H 0.66312 0.74684 0.27538 0.0
H934 H 0.71487 0.78319 0.20785 0.0
H935 H 0.65898 0.76532 0.24038 0.0
H936 H 0.64824 0.77686 0.15189 0.0
H937 H 0.65305 0.76334 0.19289 0.0
H938 H 0.71243 0.80997 0.19629 0.0
H939 H 0.70778 0.82277 0.15397 0.0
C940 C 0.7061 0.76535 0.24326 0.0
C941 C 0.69148 0.75454 0.26219 0.0
C942 C 0.70361 0.7757 0.2228 0.0
C943 C 0.68653 0.77572 0.22106 0.0
C944 C 0.67216 0.76536 0.24064 0.0
C945 C 0.67455 0.75478 0.2608 0.0
C946 C 0.6623 0.78432 0.16152 0.0
C947 C 0.67768 0.80071 0.1494 0.0
C948 C 0.66504 0.77667 0.18528 0.0
C949 C 0.68322 0.78538 0.19785 0.0
C950 C 0.69833 0.8026 0.18683 0.0
C951 C 0.69561 0.81016 0.16281 0.0
H952 H 0.23131 0.92239 0.28024 0.0
H953 H 0.28252 0.92149 0.26295 0.0
H954 H 0.21604 0.90177 0.23861 0.0
H955 H 0.26717 0.90078 0.22165 0.0
H956 H 0.22777 0.84881 0.16537 0.0
H957 H 0.2387 0.86615 0.21039 0.0
H958 H 0.22245 0.9064 0.18576 0.0
H959 H 0.21156 0.88906 0.14065 0.0
C960 C 0.23926 0.91773 0.26764 0.0
C961 C 0.25813 0.92359 0.27481 0.0
C962 C 0.23053 0.90598 0.24384 0.0
C963 C 0.2404 0.89961 0.22709 0.0
C964 C 0.25917 0.9053 0.23442 0.0
C965 C 0.268 0.91728 0.25793 0.0
C966 C 0.22611 0.86106 0.16986 0.0
C967 C 0.21884 0.86763 0.1496 0.0
C968 C 0.23252 0.87108 0.19546 0.0
C969 C 0.23154 0.88768 0.20139 0.0
C970 C 0.22328 0.89359 0.18173 0.0
C971 C 0.21712 0.88373 0.15596 0.0
H972 H 0.70345 0.93068 0.29041 0.0
H973 H 0.65989 0.93955 0.25803 0.0
H974 H 0.70084 0.91147 0.24863 0.0
H975 H 0.65774 0.92099 0.21598 0.0
H976 H 0.6448 0.87334 0.15379 0.0
H977 H 0.64674 0.88893 0.1989 0.0
H978 H 0.70797 0.91438 0.20025 0.0
H979 H 0.70581 0.89818 0.1555 0.0
C980 C 0.69342 0.92865 0.27428 0.0
C981 C 0.68186 0.93661 0.27755 0.0
C982 C 0.69196 0.91768 0.25028 0.0
C983 C 0.67899 0.91454 0.22894 0.0
C984 C 0.66757 0.9227 0.2322 0.0
C985 C 0.66892 0.93351 0.25625 0.0
C986 C 0.65861 0.88204 0.16401 0.0
C987 C 0.67516 0.88462 0.15119 0.0
C988 C 0.65978 0.89112 0.18972 0.0
C989 C 0.67756 0.90321 0.20306 0.0
C990 C 0.69402 0.90507 0.19074 0.0
C991 C 0.69281 0.8958 0.1651 0.0
H992 H 0.11442 0.76658 0.29329 0.0
H993 H 0.06072 0.73617 0.24813 0.0
H994 H 0.13155 0.77773 0.24965 0.0
H995 H 0.07784 0.74754 0.20467 0.0
H996 H 0.11485 0.74943 0.13281 0.0
H997 H 0.09888 0.74043 0.17729 0.0
H998 H 0.1369 0.79894 0.20997 0.0
H999 H 0.15299 0.80805 0.16499 0.0
C1000 C 0.10626 0.76239 0.27409 0.0
C1001 C 0.0862 0.75034 0.27417 0.0
C1002 C 0.11608 0.76888 0.24912 0.0
C1003 C 0.10606 0.76339 0.22372 0.0
C1004 C 0.08599 0.75176 0.22389 0.0
C1005 C 0.07617 0.74532 0.24881 0.0
C1006 C 0.11972 0.76046 0.14938 0.0
C1007 C 0.13496 0.77956 0.14527 0.0
C1008 C 0.11055 0.75529 0.17487 0.0
C1009 C 0.11642 0.76904 0.197 0.0
C1010 C 0.13207 0.78802 0.19327 0.0
C1011 C 0.14128 0.79323 0.1676 0.0
H1012 H 0.25495 0.29746 0.24124 0.0
H1013 H 0.26929 0.35219 0.28135 0.0
H1014 H 0.23643 0.3018 0.20624 0.0
H1015 H 0.25024 0.35621 0.24702 0.0
H1016 H 0.23661 0.36833 0.16028 0.0
H1017 H 0.2517 0.36358 0.19973 0.0
H1018 H 0.20815 0.30231 0.19729 0.0
H1019 H 0.19362 0.30698 0.15675 0.0
C1020 C 0.25403 0.31035 0.2427 0.0
C1021 C 0.26375 0.32456 0.26391 0.0
C1022 C 0.24324 0.31275 0.22279 0.0
C1023 C 0.24178 0.32936 0.22377 0.0
C1024 C 0.25127 0.3434 0.24533 0.0
C1025 C 0.26218 0.34107 0.26506 0.0
C1026 C 0.23015 0.35387 0.16834 0.0
C1027 C 0.21405 0.338 0.15518 0.0
C1028 C 0.23872 0.35115 0.19115 0.0
C1029 C 0.2313 0.3325 0.20156 0.0
C1030 C 0.21448 0.31681 0.18946 0.0
C1031 C 0.20595 0.31953 0.1665 0.0
H1032 H 0.28147 0.34122 0.42098 0.0
H1033 H 0.22967 0.31497 0.37153 0.0
H1034 H 0.26361 0.34082 0.46186 0.0
H1035 H 0.21191 0.31502 0.41224 0.0
H1036 H 0.18461 0.29363 0.49863 0.0
H1037 H 0.20102 0.29772 0.45476 0.0
H1038 H 0.24655 0.35472 0.48339 0.0
H1039 H 0.23015 0.35047 0.5275 0.0
C1040 C 0.26632 0.33555 0.41877 0.0
C1041 C 0.25697 0.32798 0.39305 0.0
C1042 C 0.25609 0.33546 0.44216 0.0
C1043 C 0.2363 0.32787 0.44034 0.0
C1044 C 0.22707 0.32072 0.41445 0.0
C1045 C 0.23728 0.32075 0.39109 0.0
C1046 C 0.19786 0.30724 0.49528 0.0
C1047 C 0.20614 0.32169 0.51655 0.0
C1048 C 0.20731 0.30959 0.47013 0.0
C1049 C 0.22523 0.32646 0.46567 0.0
C1050 C 0.23297 0.34137 0.48639 0.0
C1051 C 0.22354 0.339 0.51156 0.0
H1052 H 0.66265 0.94172 0.42905 0.0
H1053 H 0.66581 0.89929 0.37603 0.0
H1054 H 0.66595 0.92662 0.46987 0.0
H1055 H 0.66941 0.88436 0.41702 0.0
H1056 H 0.70507 0.88898 0.49837 0.0
H1057 H 0.69642 0.89724 0.45494 0.0
H1058 H 0.64727 0.89352 0.4942 0.0
H1059 H 0.65542 0.88454 0.53741 0.0
C1060 C 0.66393 0.9291 0.42613 0.0
C1061 C 0.664 0.92171 0.39935 0.0
C1062 C 0.6657 0.92039 0.44949 0.0
C1063 C 0.66789 0.90431 0.44654 0.0
C1064 C 0.66777 0.89677 0.41981 0.0
C1065 C 0.66563 0.90527 0.39642 0.0
C1066 C 0.69207 0.88928 0.49756 0.0
C1067 C 0.68106 0.8863 0.52151 0.0
C1068 C 0.68718 0.89411 0.47269 0.0
C1069 C 0.67133 0.89625 0.47139 0.0
C1070 C 0.65973 0.89223 0.49481 0.0
C1071 C 0.66444 0.88714 0.51952 0.0
H1072 H 0.0749 0.79051 0.38834 0.0
H1073 H 0.07966 0.74202 0.41146 0.0
H1074 H 0.09332 0.80898 0.42968 0.0
H1075 H 0.0978 0.76035 0.4528 0.0
H1076 H 0.14197 0.80213 0.51424 0.0
H1077 H 0.12853 0.78887 0.46809 0.0
H1078 H 0.0879 0.80695 0.4802 0.0
H1079 H 0.10172 0.8207 0.52602 0.0
C1080 C 0.07993 0.78382 0.40216 0.0
C1081 C 0.07574 0.76476 0.39669 0.0
C1082 C 0.09043 0.79438 0.42586 0.0
C1083 C 0.09705 0.78614 0.44445 0.0
C1084 C 0.09316 0.76723 0.43866 0.0
C1085 C 0.08261 0.75665 0.41508 0.0
C1086 C 0.13052 0.80374 0.50673 0.0
C1087 C 0.12283 0.81238 0.52377 0.0
C1088 C 0.12267 0.79594 0.48045 0.0
C1089 C 0.10701 0.79666 0.47065 0.0
C1090 C 0.10002 0.80625 0.48708 0.0
C1091 C 0.10783 0.814 0.51339 0.0
H1092 H 0.37372 0.09411 0.74222 0.0
H1093 H 0.32177 0.09371 0.72742 0.0
H1094 H 0.37907 0.11303 0.78511 0.0
H1095 H 0.32676 0.11211 0.77113 0.0
H1096 H 0.35027 0.15847 0.84283 0.0
H1097 H 0.34645 0.14302 0.79665 0.0
H1098 H 0.3653 0.10675 0.82972 0.0
H1099 H 0.37009 0.12273 0.87479 0.0
C1100 C 0.36337 0.09798 0.74822 0.0
C1101 C 0.34721 0.09223 0.7316 0.0
C1102 C 0.3664 0.10879 0.77289 0.0
C1103 C 0.3532 0.11387 0.7818 0.0
C1104 C 0.33728 0.10857 0.76479 0.0
C1105 C 0.33435 0.09791 0.73986 0.0
C1106 C 0.35371 0.14729 0.84004 0.0
C1107 C 0.36023 0.14166 0.86258 0.0
C1108 C 0.35138 0.13834 0.8137 0.0
C1109 C 0.35563 0.12368 0.80945 0.0
C1110 C 0.36217 0.11818 0.83204 0.0
C1111 C 0.36459 0.12714 0.85811 0.0
H1112 H 0.93189 0.29743 0.78244 0.0
H1113 H 0.93412 0.24926 0.74525 0.0
H1114 H 0.91009 0.27621 0.81735 0.0
H1115 H 0.91164 0.22773 0.77964 0.0
H1116 H 0.89203 0.20386 0.86834 0.0
H1117 H 0.90989 0.221 0.82745 0.0
H1118 H 0.87865 0.25042 0.82535 0.0
H1119 H 0.8615 0.23384 0.86698 0.0
C1120 C 0.92757 0.28224 0.78156 0.0
C1121 C 0.93482 0.27508 0.76115 0.0
C1122 C 0.91488 0.26998 0.80144 0.0
C1123 C 0.9089 0.25014 0.80125 0.0
C1124 C 0.91605 0.24294 0.78064 0.0
C1125 C 0.92892 0.25528 0.76088 0.0
C1126 C 0.88865 0.21358 0.85857 0.0
C1127 C 0.87546 0.2176 0.87072 0.0
C1128 C 0.8989 0.22346 0.83516 0.0
C1129 C 0.896 0.23742 0.82334 0.0
C1130 C 0.88166 0.24021 0.83434 0.0
C1131 C 0.87163 0.23054 0.85793 0.0
H1132 H 0.76128 0.67471 0.72374 0.0
H1133 H 0.74487 0.70681 0.77866 0.0
H1134 H 0.77757 0.67034 0.76236 0.0
H1135 H 0.7612 0.70246 0.81709 0.0
H1136 H 0.76179 0.66102 0.87996 0.0
H1137 H 0.75169 0.67112 0.84044 0.0
H1138 H 0.80477 0.68787 0.79931 0.0
H1139 H 0.81546 0.67829 0.83989 0.0
C1140 C 0.76138 0.68108 0.74393 0.0
C1141 C 0.75152 0.69086 0.74822 0.0
C1142 C 0.77084 0.67869 0.76597 0.0
C1143 C 0.77049 0.68591 0.79274 0.0
C1144 C 0.7615 0.69655 0.7967 0.0
C1145 C 0.75217 0.69906 0.77467 0.0
C1146 C 0.77166 0.66734 0.86294 0.0
C1147 C 0.78972 0.66931 0.86353 0.0
C1148 C 0.76576 0.67305 0.84017 0.0
C1149 C 0.77756 0.6806 0.81701 0.0
C1150 C 0.79545 0.68218 0.81703 0.0
C1151 C 0.80152 0.67666 0.84017 0.0
H1152 H 0.73549 0.67908 0.5846 0.0
H1153 H 0.7642 0.6548 0.62621 0.0
H1154 H 0.74997 0.67776 0.54099 0.0
H1155 H 0.77855 0.65327 0.58228 0.0
H1156 H 0.81659 0.67642 0.50237 0.0
H1157 H 0.8023 0.6753 0.54776 0.0
H1158 H 0.74744 0.65283 0.50785 0.0
H1159 H 0.76166 0.65404 0.46289 0.0
C1160 C 0.74483 0.67338 0.58444 0.0
C1161 C 0.74863 0.66699 0.60888 0.0
C1162 C 0.75306 0.67253 0.55939 0.0
C1163 C 0.76532 0.66528 0.55816 0.0
C1164 C 0.76927 0.65903 0.58262 0.0
C1165 C 0.76095 0.65981 0.60772 0.0
C1166 C 0.80144 0.67101 0.50348 0.0
C1167 C 0.7903 0.66567 0.47913 0.0
C1168 C 0.79325 0.67036 0.52938 0.0
C1169 C 0.77381 0.66431 0.53128 0.0
C1170 C 0.76255 0.65804 0.507 0.0
C1171 C 0.77068 0.6587 0.48127 0.0
H1172 H 0.3228 0.0498 0.56153 0.0
H1173 H 0.35532 0.1021 0.61294 0.0
H1174 H 0.31933 0.06858 0.52624 0.0
H1175 H 0.35165 0.12089 0.5776 0.0
H1176 H 0.36138 0.14697 0.48811 0.0
H1177 H 0.36288 0.13144 0.52981 0.0
H1178 H 0.30336 0.08661 0.51852 0.0
H1179 H 0.30195 0.10209 0.47679 0.0
C1180 C 0.32917 0.0653 0.56536 0.0
C1181 C 0.33938 0.07444 0.59003 0.0
C1182 C 0.32702 0.07605 0.54523 0.0
C1183 C 0.33507 0.09621 0.54924 0.0
C1184 C 0.34534 0.1054 0.57388 0.0
C1185 C 0.3474 0.09461 0.59412 0.0
C1186 C 0.34847 0.13418 0.49512 0.0
C1187 C 0.33159 0.12563 0.47913 0.0
C1188 C 0.34934 0.12522 0.51892 0.0
C1189 C 0.33334 0.10756 0.5271 0.0
C1190 C 0.31605 0.09994 0.51236 0.0
C1191 C 0.31519 0.10888 0.48863 0.0
H1192 H 0.96059 0.26128 0.61675 0.0
H1193 H 0.90703 0.25788 0.63143 0.0
H1194 H 0.94785 0.24237 0.57362 0.0
H1195 H 0.89448 0.23971 0.58737 0.0
H1196 H 0.87258 0.19501 0.515 0.0
H1197 H 0.88384 0.21 0.56136 0.0
H1198 H 0.94067 0.24697 0.52902 0.0
H1199 H 0.92982 0.23118 0.48377 0.0
C1200 C 0.94612 0.25662 0.6106 0.0
C1201 C 0.93487 0.26122 0.62731 0.0
C1202 C 0.93881 0.24583 0.58578 0.0
C1203 C 0.92019 0.2397 0.57673 0.0
C1204 C 0.9088 0.24399 0.59378 0.0
C1205 C 0.91603 0.25454 0.61893 0.0
C1206 C 0.88752 0.20615 0.518 0.0
C1207 C 0.90022 0.21206 0.49558 0.0
C1208 C 0.89394 0.21491 0.54447 0.0
C1209 C 0.91318 0.22976 0.549 0.0
C1210 C 0.92584 0.23541 0.52656 0.0
C1211 C 0.9195 0.22657 0.50036 0.0
H1212 H 0.35089 0.24165 0.63054 0.0
H1213 H 0.33271 0.27564 0.58836 0.0
H1214 H 0.3522 0.22698 0.58605 0.0
H1215 H 0.33355 0.26068 0.54419 0.0
H1216 H 0.35503 0.2466 0.467 0.0
H1217 H 0.35662 0.26117 0.51273 0.0
H1218 H 0.33175 0.20471 0.54869 0.0
H1219 H 0.33061 0.19021 0.50263 0.0
C1220 C 0.34708 0.24592 0.61181 0.0
C1221 C 0.34177 0.25988 0.61298 0.0
C1222 C 0.34776 0.23745 0.58635 0.0
C1223 C 0.34313 0.24276 0.56154 0.0
C1224 C 0.3376 0.25655 0.56283 0.0
C1225 C 0.33698 0.26504 0.5882 0.0
C1226 C 0.35004 0.23735 0.48475 0.0
C1227 C 0.34246 0.21727 0.48134 0.0
C1228 C 0.35084 0.24565 0.51091 0.0
C1229 C 0.34396 0.23405 0.5343 0.0
C1230 C 0.33721 0.21406 0.5311 0.0
C1231 C 0.33653 0.20574 0.5048 0.0
H1232 H 0.74221 0.09878 0.61056 0.0
H1233 H 0.75005 0.05208 0.58247 0.0
H1234 H 0.7654 0.11998 0.57629 0.0
H1235 H 0.77313 0.07321 0.54853 0.0
H1236 H 0.8252 0.11867 0.50631 0.0
H1237 H 0.80599 0.10344 0.54722 0.0
H1238 H 0.76673 0.12082 0.52357 0.0
H1239 H 0.78609 0.13624 0.48275 0.0
C1240 C 0.74888 0.09305 0.59712 0.0
C1241 C 0.74423 0.07371 0.59915 0.0
C1242 C 0.76214 0.10519 0.57755 0.0
C1243 C 0.77121 0.09831 0.55995 0.0
C1244 C 0.76663 0.07903 0.56214 0.0
C1245 C 0.75324 0.06686 0.5814 0.0
C1246 C 0.81285 0.11983 0.51036 0.0
C1247 C 0.80709 0.12857 0.4913 0.0
C1248 C 0.80172 0.1109 0.53358 0.0
C1249 C 0.78471 0.11068 0.53831 0.0
C1250 C 0.77978 0.12078 0.52047 0.0
C1251 C 0.79082 0.12957 0.49711 0.0
H1252 H 0.92587 0.64675 0.58891 0.0
H1253 H 0.92892 0.70041 0.61239 0.0
H1254 H 0.90551 0.64229 0.54943 0.0
H1255 H 0.90892 0.69617 0.57248 0.0
H1256 H 0.86313 0.67797 0.50639 0.0
H1257 H 0.87715 0.6768 0.55056 0.0
H1258 H 0.91081 0.65795 0.50596 0.0
H1259 H 0.8966 0.65877 0.46248 0.0
C1260 C 0.92221 0.65761 0.58565 0.0
C1261 C 0.92921 0.67406 0.60363 0.0
C1262 C 0.91054 0.65505 0.56301 0.0
C1263 C 0.90565 0.66892 0.5577 0.0
C1264 C 0.9122 0.68508 0.57614 0.0
C1265 C 0.92384 0.68761 0.59887 0.0
C1266 C 0.87321 0.67318 0.5063 0.0
C1267 C 0.87894 0.66861 0.48115 0.0
C1268 C 0.88136 0.67268 0.53145 0.0
C1269 C 0.89521 0.66741 0.53177 0.0
C1270 C 0.90008 0.66188 0.5066 0.0
C1271 C 0.89205 0.66247 0.48164 0.0
H1272 H 0.94814 0.67669 0.75052 0.0
H1273 H 0.89443 0.64813 0.70542 0.0
H1274 H 0.93155 0.67635 0.79298 0.0
H1275 H 0.8779 0.64785 0.74798 0.0
H1276 H 0.85902 0.66679 0.82905 0.0
H1277 H 0.87563 0.67044 0.78495 0.0
H1278 H 0.90778 0.64833 0.82184 0.0
H1279 H 0.891 0.64407 0.86512 0.0
C1280 C 0.93283 0.67049 0.7496 0.0
C1281 C 0.92258 0.66225 0.72466 0.0
C1282 C 0.92334 0.67027 0.77392 0.0
C1283 C 0.90343 0.66198 0.77377 0.0
C1284 C 0.89326 0.65444 0.74864 0.0
C1285 C 0.90273 0.65448 0.72435 0.0
C1286 C 0.86957 0.66264 0.82765 0.0
C1287 C 0.87391 0.6555 0.85085 0.0
C1288 C 0.8791 0.66478 0.80248 0.0
C1289 C 0.89321 0.65996 0.80017 0.0
C1290 C 0.89733 0.65263 0.82321 0.0
C1291 C 0.88773 0.65028 0.8481 0.0
H1292 H 0.38769 0.29136 0.73921 0.0
H1293 H 0.32632 0.25879 0.74869 0.0
H1294 H 0.39082 0.27467 0.77786 0.0
H1295 H 0.32955 0.24222 0.78788 0.0
H1296 H 0.34223 0.20539 0.84449 0.0
H1297 H 0.3394 0.21894 0.80111 0.0
H1298 H 0.38645 0.27561 0.82792 0.0
H1299 H 0.38921 0.26201 0.8707 0.0
C1300 C 0.37483 0.28064 0.74954 0.0
C1301 C 0.35675 0.27655 0.74099 0.0
C1302 C 0.37666 0.27109 0.77175 0.0
C1303 C 0.36045 0.25718 0.78601 0.0
C1304 C 0.3423 0.25273 0.77712 0.0
C1305 C 0.34046 0.26235 0.75486 0.0
C1306 C 0.35212 0.22063 0.84063 0.0
C1307 C 0.36604 0.2327 0.86056 0.0
C1308 C 0.35041 0.22843 0.81607 0.0
C1309 C 0.3627 0.24836 0.8111 0.0
C1310 C 0.37694 0.26018 0.83088 0.0
C1311 C 0.37853 0.25244 0.85536 0.0
H1312 H 0.72631 0.07104 0.75958 0.0
H1313 H 0.78072 0.10336 0.7184 0.0
H1314 H 0.74196 0.0852 0.80403 0.0
H1315 H 0.79651 0.11733 0.76329 0.0
H1316 H 0.81135 0.15362 0.84789 0.0
H1317 H 0.79863 0.13992 0.80127 0.0
H1318 H 0.76361 0.08296 0.83527 0.0
H1319 H 0.77604 0.09666 0.8815 0.0
C1320 C 0.74164 0.08111 0.76 0.0
C1321 C 0.75227 0.08601 0.73543 0.0
C1322 C 0.75064 0.08914 0.78555 0.0
C1323 C 0.77051 0.10225 0.78722 0.0
C1324 C 0.78117 0.10735 0.76264 0.0
C1325 C 0.77213 0.09927 0.73698 0.0
C1326 C 0.80113 0.13814 0.84518 0.0
C1327 C 0.7944 0.12623 0.86825 0.0
C1328 C 0.79387 0.1303 0.81857 0.0
C1329 C 0.77985 0.11042 0.81469 0.0
C1330 C 0.774 0.09841 0.83766 0.0
C1331 C 0.78116 0.10623 0.86411 0.0
H1332 H 0.03398 0.32931 0.00528 0.0
H1333 H 0.07087 0.39162 -9e-05 0.0
H1334 H 0.06117 0.32712 0.01877 0.0
H1335 H 0.0983 0.38938 0.01234 0.0
H1336 H 0.1321 0.3797 0.07982 0.0
H1337 H 0.10963 0.38403 0.0536 0.0
H1338 H 0.09065 0.32961 0.00851 0.0
H1339 H 0.11263 0.32488 0.03596 0.0
C1340 C 0.04798 0.34251 0.00638 0.0
C1341 C 0.05019 0.36067 0.00192 0.0
C1342 C 0.06366 0.34124 0.01392 0.0
C1343 C 0.08201 0.3581 0.01691 0.0
C1344 C 0.08436 0.37614 0.01082 0.0
C1345 C 0.06863 0.37742 0.00358 0.0
C1346 C 0.12337 0.36883 0.06395 0.0
C1347 C 0.12392 0.35181 0.06028 0.0
C1348 C 0.11054 0.37137 0.04869 0.0
C1349 C 0.09802 0.35702 0.02915 0.0
C1350 C 0.09976 0.34076 0.02381 0.0
C1351 C 0.11257 0.33817 0.03924 0.0
H1352 H 0.63198 0.68182 0.04825 0.0
H1353 H 0.6523 0.70002 0.96521 0.0
H1354 H 0.63469 0.71278 0.05873 0.0
H1355 H 0.65494 0.73123 0.97579 0.0
H1356 H 0.6843 0.79134 0.02981 0.0
H1357 H 0.67584 0.76033 0.00681 0.0
H1358 H 0.62103 0.73244 0.04729 0.0
H1359 H 0.6297 0.76337 0.07054 0.0
C1360 C 0.63687 0.69237 0.03211 0.0
C1361 C 0.64201 0.68846 0.00594 0.0
C1362 C 0.63824 0.71008 0.03803 0.0
C1363 C 0.64487 0.72443 0.018 0.0
C1364 C 0.64979 0.72047 0.99164 0.0
C1365 C 0.64824 0.7026 0.9856 0.0
C1366 C 0.67013 0.77875 0.03275 0.0
C1367 C 0.65768 0.77966 0.05201 0.0
C1368 C 0.66531 0.76096 0.01971 0.0
C1369 C 0.64795 0.74385 0.02577 0.0
C1370 C 0.63468 0.74529 0.04269 0.0
C1371 C 0.63953 0.76301 0.05575 0.0
H1372 H 0.3247 0.93576 0.96995 0.0
H1373 H 0.32129 0.9706 0.03716 0.0
H1374 H 0.29273 0.9088 0.98108 0.0
H1375 H 0.28968 0.94372 0.04847 0.0
H1376 H 0.22913 0.89834 0.05657 0.0
H1377 H 0.25675 0.92416 0.0328 0.0
H1378 H 0.27819 0.88594 0.01862 0.0
H1379 H 0.2504 0.86008 0.042 0.0
C1380 C 0.31711 0.93773 0.98697 0.0
C1381 C 0.32561 0.95532 0.00275 0.0
C1382 C 0.29881 0.92225 0.99338 0.0
C1383 C 0.28858 0.92409 0.0156 0.0
C1384 C 0.29696 0.94187 0.0309 0.0
C1385 C 0.31521 0.95726 0.02457 0.0
C1386 C 0.23948 0.89532 0.04762 0.0
C1387 C 0.23771 0.87727 0.05131 0.0
C1388 C 0.25538 0.91014 0.03423 0.0
C1389 C 0.26991 0.90727 0.02436 0.0
C1390 C 0.26726 0.88865 0.02589 0.0
C1391 C 0.25129 0.87378 0.0392 0.0
H1392 H 0.38925 0.06955 0.02413 0.0
H1393 H 0.34031 0.03804 0.96919 0.0
H1394 H 0.38776 0.09882 0.02019 0.0
H1395 H 0.33917 0.06713 0.96457 0.0
H1396 H 0.33339 0.11711 0.96323 0.0
H1397 H 0.33277 0.09003 0.98523 0.0
H1398 H 0.39456 0.12217 0.98583 0.0
H1399 H 0.39497 0.14943 0.96504 0.0
C1400 C 0.37813 0.06883 0.01133 0.0
C1401 C 0.36498 0.05147 -0.00318 0.0
C1402 C 0.37729 0.08562 0.00903 0.0
C1403 C 0.36331 0.08542 0.99214 0.0
C1404 C 0.34989 0.06785 0.97828 0.0
C1405 C 0.35068 0.05113 0.98067 0.0
C1406 C 0.34678 0.11867 0.96936 0.0
C1407 C 0.36421 0.13531 0.96254 0.0
C1408 C 0.34648 0.10306 0.98152 0.0
C1409 C 0.36362 0.10364 0.98656 0.0
C1410 C 0.38107 0.12114 0.98234 0.0
C1411 C 0.38135 0.13686 0.97053 0.0
H1412 H 0.9552 0.33507 0.97338 0.0
H1413 H 0.96185 0.31413 0.05116 0.0
H1414 H 0.92554 0.30435 0.96433 0.0
H1415 H 0.93178 0.28323 0.04218 0.0
H1416 H 0.89648 0.22469 0.98687 0.0
H1417 H 0.92085 0.25527 0.00945 0.0
H1418 H 0.89268 0.28357 0.9787 0.0
H1419 H 0.8686 0.25304 0.95565 0.0
C1420 C 0.95022 0.32398 0.98874 0.0
C1421 C 0.96099 0.32703 0.0129 0.0
C1422 C 0.93305 0.30639 0.98368 0.0
C1423 C 0.92617 0.29133 0.00263 0.0
C1424 C 0.93672 0.2945 0.02714 0.0
C1425 C 0.95392 0.31221 0.03228 0.0
C1426 C 0.89506 0.23725 0.98599 0.0
C1427 C 0.88078 0.23659 0.96938 0.0
C1428 C 0.90908 0.25483 -0.00118 0.0
C1429 C 0.90897 0.27198 -0.00471 0.0
C1430 C 0.89343 0.27073 0.98123 0.0
C1431 C 0.87952 0.25322 0.96831 0.0
H1432 H 0.71247 0.68264 -0.00535 0.0
H1433 H 0.68796 0.62596 0.02961 0.0
H1434 H 0.74184 0.6834 0.98558 0.0
H1435 H 0.71787 0.62703 0.02162 0.0
H1436 H 0.7591 0.62412 0.95636 0.0
H1437 H 0.7336 0.62362 0.98297 0.0
H1438 H 0.76987 0.68557 9e-05 0.0
H1439 H 0.79497 0.68601 0.972 0.0
C1440 C 0.7135 0.67049 0.00101 0.0
C1441 C 0.69774 0.65412 0.01249 0.0
C1442 C 0.73051 0.671 -0.00394 0.0
C1443 C 0.73237 0.65524 0.00276 0.0
C1444 C 0.71692 0.63931 0.01573 0.0
C1445 C 0.69977 0.63872 0.02043 0.0
C1446 C 0.76187 0.63745 0.96683 0.0
C1447 C 0.77893 0.6551 0.96209 0.0
C1448 C 0.7472 0.63723 0.98207 0.0
C1449 C 0.7494 0.65466 0.99315 0.0
C1450 C 0.76741 0.67195 0.99113 0.0
C1451 C 0.78194 0.6722 0.97546 0.0
H1452 H 0.93294 0.61369 0.99191 0.0
H1453 H 0.95886 0.66967 0.03522 0.0
H1454 H 0.90627 0.61666 0.97806 0.0
H1455 H 0.9319 0.67251 0.02166 0.0
H1456 H 0.89958 0.68105 0.94826 0.0
H1457 H 0.92189 0.67811 0.97744 0.0
H1458 H 0.8785 0.61821 0.99164 0.0
H1459 H 0.85633 0.6211 0.96177 0.0
C1460 C 0.93279 0.62649 -0.00109 0.0
C1461 C 0.94818 0.64155 0.01439 0.0
C1462 C 0.91737 0.62812 0.99117 0.0
C1463 C 0.91693 0.64486 -0.00132 0.0
C1464 C 0.93188 0.65951 0.0153 0.0
C1465 C 0.94731 0.65785 0.02312 0.0
C1466 C 0.89464 0.66745 0.95833 0.0
C1467 C 0.8763 0.65126 0.9525 0.0
C1468 C 0.90741 0.66575 0.97514 0.0
C1469 C 0.9021 0.6478 0.98648 0.0
C1470 C 0.88314 0.63214 0.98279 0.0
C1471 C 0.87034 0.63386 0.96599 0.0
H1472 H 0.35028 0.32121 0.97505 0.0
H1473 H 0.38306 0.32652 0.04799 0.0
H1474 H 0.34582 0.28959 0.9637 0.0
H1475 H 0.3783 0.29451 0.03678 0.0
H1476 H 0.39091 0.25531 0.97528 0.0
H1477 H 0.39015 0.28148 0.00081 0.0
H1478 H 0.33099 0.25609 0.9768 0.0
H1479 H 0.33199 0.23018 0.95075 0.0
C1480 C 0.35632 0.31551 0.98891 0.0
C1481 C 0.36717 0.3265 0.0123 0.0
C1482 C 0.35359 0.29723 0.98256 0.0
C1483 C 0.36163 0.28943 -0.00059 0.0
C1484 C 0.37201 0.30015 0.0233 0.0
C1485 C 0.37469 0.31847 0.02973 0.0
C1486 C 0.37753 0.25489 0.97647 0.0
C1487 C 0.36156 0.24086 0.96087 0.0
C1488 C 0.37709 0.26994 0.99102 0.0
C1489 C 0.36063 0.27113 0.99028 0.0
C1490 C 0.34403 0.25585 0.97719 0.0
C1491 C 0.34452 0.2409 0.96253 0.0
H1492 H 0.67764 0.07738 0.02142 0.0
H1493 H 0.69212 0.03588 0.99078 0.0
H1494 H 0.71064 0.10391 0.01419 0.0
H1495 H 0.72494 0.06227 0.98373 0.0
H1496 H 0.7853 0.11082 0.98548 0.0
H1497 H 0.75493 0.08866 0.00801 0.0
H1498 H 0.72949 0.11756 0.97028 0.0
H1499 H 0.75979 0.13955 0.9478 0.0
C1500 C 0.6879 0.07389 0.01352 0.0
C1501 C 0.68222 0.05454 0.00645 0.0
C1502 C 0.70677 0.08908 0.00936 0.0
C1503 C 0.7204 0.08518 -0.0015 0.0
C1504 C 0.71486 0.06575 0.99251 0.0
C1505 C 0.69599 0.05063 -0.00371 0.0
C1506 C 0.77343 0.11292 0.98305 0.0
C1507 C 0.77483 0.12689 0.96506 0.0
C1508 C 0.756 0.10011 -0.00438 0.0
C1509 C 0.73976 0.10121 0.99061 0.0
C1510 C 0.74174 0.1164 0.97469 0.0
C1511 C 0.75908 0.12903 0.96187 0.0
H1512 H 0.61686 0.9372 0.99447 0.0
H1513 H 0.67845 0.97311 0.99183 0.0
H1514 H 0.61915 0.90957 0.00736 0.0
H1515 H 0.68081 0.9459 0.00579 0.0
H1516 H 0.68355 0.89487 0.02547 0.0
H1517 H 0.6768 0.91512 -0.00266 0.0
H1518 H 0.62747 0.90024 0.04778 0.0
H1519 H 0.63361 0.87921 0.07461 0.0
C1520 C 0.63089 0.93916 -0.00359 0.0
C1521 C 0.64747 0.95744 0.99242 0.0
C1522 C 0.63222 0.92333 0.00395 0.0
C1523 C 0.65018 0.92545 0.00797 0.0
C1524 C 0.66671 0.94352 0.00257 0.0
C1525 C 0.66537 0.95925 -0.00524 0.0
C1526 C 0.67086 0.89536 0.02985 0.0
C1527 C 0.6593 0.88567 0.05258 0.0
C1528 C 0.66715 0.90723 0.01399 0.0
C1529 C 0.65185 0.90977 0.02063 0.0
C1530 C 0.63936 0.89871 0.04187 0.0
C1531 C 0.64298 0.88674 0.05751 0.0
H1532 H 0.06029 0.68029 0.96245 0.0
H1533 H 0.03221 0.68901 0.03267 0.0
H1534 H 0.08858 0.71262 0.97155 0.0
H1535 H 0.06038 0.72101 0.04188 0.0
H1536 H 0.10791 0.78059 0.05058 0.0
H1537 H 0.08058 0.75388 0.02534 0.0
H1538 H 0.11331 0.72692 0.00822 0.0
H1539 H 0.14066 0.75382 0.03305 0.0
C1540 C 0.06006 0.68916 0.97964 0.0
C1541 C 0.04404 0.682 -0.00302 0.0
C1542 C 0.07628 0.70766 0.98485 0.0
C1543 C 0.07674 0.71945 0.00736 0.0
C1544 C 0.06043 0.7125 0.02405 0.0
C1545 C 0.04431 0.69403 0.01895 0.0
C1546 C 0.10947 0.76935 0.04037 0.0
C1547 C 0.1263 0.76916 0.04391 0.0
C1548 C 0.09378 0.75395 0.02621 0.0
C1549 C 0.0946 0.73801 0.01543 0.0
C1550 C 0.11218 0.73895 0.01626 0.0
C1551 C 0.12792 0.75443 0.03037 0.0
H1552 H 0.31251 0.36887 0.98409 0.0
H1553 H 0.33157 0.40924 0.05472 0.0
H1554 H 0.27997 0.36163 0.99069 0.0
H1555 H 0.29914 0.40144 0.06218 0.0
H1556 H 0.24163 0.38965 0.07258 0.0
H1557 H 0.27238 0.40236 0.04957 0.0
H1558 H 0.25508 0.34386 0.02162 0.0
H1559 H 0.22414 0.33162 0.04329 0.0
C1560 C 0.30977 0.37629 0.00093 0.0
C1561 C 0.32461 0.3895 0.01904 0.0
C1562 C 0.29108 0.37208 0.0048 0.0
C1563 C 0.28674 0.38081 0.0271 0.0
C1564 C 0.30182 0.39463 0.04445 0.0
C1565 C 0.3205 0.39901 0.04035 0.0
C1566 C 0.24418 0.37975 0.06031 0.0
C1567 C 0.23057 0.35974 0.05938 0.0
C1568 C 0.2619 0.38692 0.04755 0.0
C1569 C 0.26652 0.37411 0.03429 0.0
C1570 C 0.25214 0.35426 0.03138 0.0
C1571 C 0.23431 0.34718 0.04374 0.0
H1572 H 0.74113 0.72804 0.32701 0.0
H1573 H 0.70594 0.66532 0.32114 0.0
H1574 H 0.76874 0.72592 0.33879 0.0
H1575 H 0.73321 0.66314 0.33396 0.0
H1576 H 0.78388 0.66078 0.35358 0.0
H1577 H 0.76367 0.66759 0.32534 0.0
H1578 H 0.77825 0.71752 0.37915 0.0
H1579 H 0.79898 0.71118 0.40628 0.0
C1580 C 0.73932 0.7138 0.32799 0.0
C1581 C 0.72126 0.69685 0.32353 0.0
C1582 C 0.75514 0.71257 0.33485 0.0
C1583 C 0.75324 0.69436 0.33772 0.0
C1584 C 0.73538 0.67744 0.33166 0.0
C1585 C 0.71963 0.67868 0.32452 0.0
C1586 C 0.78332 0.67364 0.35863 0.0
C1587 C 0.79279 0.68531 0.38234 0.0
C1588 C 0.77152 0.67739 0.34271 0.0
C1589 C 0.76892 0.69285 0.35027 0.0
C1590 C 0.77985 0.70553 0.3725 0.0
C1591 C 0.79169 0.70183 0.38825 0.0
H1592 H 0.33003 0.0253 0.32373 0.0
H1593 H 0.2711 0.00865 0.33239 0.0
H1594 H 0.3402 0.05927 0.33243 0.0
H1595 H 0.28118 0.04244 0.34304 0.0
H1596 H 0.30216 0.10507 0.35956 0.0
H1597 H 0.29462 0.07535 0.33297 0.0
H1598 H 0.34285 0.07732 0.37192 0.0
H1599 H 0.35059 0.10709 0.3969 0.0
C1600 C 0.31925 0.02897 0.32746 0.0
C1601 C 0.29981 0.01437 0.32779 0.0
C1602 C 0.32506 0.04844 0.3326 0.0
C1603 C 0.31159 0.05371 0.33909 0.0
C1604 C 0.29202 0.0391 0.3379 0.0
C1605 C 0.2862 0.01966 0.33202 0.0
C1606 C 0.31144 0.0994 0.36143 0.0
C1607 C 0.32694 0.10826 0.38008 0.0
C1608 C 0.30702 0.08226 0.34658 0.0
C1609 C 0.31797 0.07367 0.35042 0.0
C1610 C 0.3342 0.08346 0.36787 0.0
C1611 C 0.33865 0.10055 0.38238 0.0
H1612 H 0.9847 0.31123 0.33578 0.0
H1613 H 1.0042 0.27135 0.3431 0.0
H1614 H 0.95213 0.28515 0.34539 0.0
H1615 H 0.97216 0.24565 0.35472 0.0
H1616 H 0.91463 0.19949 0.37408 0.0
H1617 H 0.94069 0.223 0.34575 0.0
H1618 H 0.93424 0.26885 0.38241 0.0
H1619 H 0.90717 0.24509 0.40843 0.0
C1620 C 0.98197 0.29684 0.33943 0.0
C1621 C 0.99699 0.29335 0.33892 0.0
C1622 C 0.9633 0.28186 0.34514 0.0
C1623 C 0.9593 0.26315 0.3513 0.0
C1624 C 0.97435 0.25962 0.34966 0.0
C1625 C 0.99289 0.27446 0.34324 0.0
C1626 C 0.91824 0.21445 0.37515 0.0
C1627 C 0.90911 0.22047 0.39412 0.0
C1628 C 0.93352 0.22809 0.35929 0.0
C1629 C 0.94027 0.2481 0.36244 0.0
C1630 C 0.92975 0.25371 0.37926 0.0
C1631 C 0.91423 0.24004 0.39456 0.0
H1632 H 0.06459 0.40928 0.32886 0.0
H1633 H 0.01206 0.38616 0.37481 0.0
H1634 H 0.06253 0.4371 0.31687 0.0
H1635 H 0.01015 0.41425 0.36308 0.0
H1636 H 1.00008 0.4469 0.29192 0.0
H1637 H 1.00312 0.42406 0.31975 0.0
H1638 H 0.06323 0.46657 0.33233 0.0
H1639 H 0.06015 0.48929 0.30392 0.0
C1640 C 0.05276 0.41029 0.33683 0.0
C1641 C 0.03836 0.39534 0.35251 0.0
C1642 C 0.05167 0.42637 0.33016 0.0
C1643 C 0.03614 0.42792 0.33896 0.0
C1644 C 0.0222 0.41342 0.35575 0.0
C1645 C 0.02333 0.39733 0.36252 0.0
C1646 C 0.01378 0.45158 0.30147 0.0
C1647 C 0.0299 0.46979 0.29562 0.0
C1648 C 0.01555 0.4385 0.31747 0.0
C1649 C 0.03351 0.44335 0.32787 0.0
C1650 C 0.04926 0.46228 0.3242 0.0
C1651 C 0.04746 0.4754 0.30826 0.0
H1652 H 0.63578 0.65433 0.34957 0.0
H1653 H 0.60904 0.66953 0.28704 0.0
H1654 H 0.60858 0.62084 0.34744 0.0
H1655 H 0.58243 0.63614 0.28396 0.0
H1656 H 0.53282 0.57749 0.28363 0.0
H1657 H 0.55511 0.6101 0.30311 0.0
H1658 H 0.59653 0.59357 0.31691 0.0
H1659 H 0.57375 0.56086 0.29887 0.0
C1660 C 0.62407 0.65054 0.33543 0.0
C1661 C 0.62465 0.66457 0.31832 0.0
C1662 C 0.60849 0.63131 0.33414 0.0
C1663 C 0.59321 0.62563 0.31549 0.0
C1664 C 0.59363 0.6399 0.29903 0.0
C1665 C 0.60907 0.65911 0.30055 0.0
C1666 C 0.54635 0.58067 0.29218 0.0
C1667 C 0.55156 0.56672 0.29013 0.0
C1668 C 0.55929 0.59943 0.30285 0.0
C1669 C 0.57789 0.60473 0.31095 0.0
C1670 C 0.58238 0.59014 0.31111 0.0
C1671 C 0.5693 0.5713 0.30086 0.0
H1672 H 0.37033 1.00264 0.29632 0.0
H1673 H 0.35019 0.95342 0.34883 0.0
H1674 H 0.40033 0.00414 0.29026 0.0
H1675 H 0.3807 0.95523 0.34328 0.0
H1676 H 0.42325 0.94814 0.2841 0.0
H1677 H 0.39654 0.94822 0.30643 0.0
H1678 H 0.42959 0.01111 0.3107 0.0
H1679 H 0.45594 0.01085 0.28733 0.0
C1680 C 0.37241 0.99229 0.30695 0.0
C1681 C 0.35776 0.9778 0.32284 0.0
C1682 C 0.38977 0.99329 0.30373 0.0
C1683 C 0.39305 0.97986 0.3164 0.0
C1684 C 0.37862 0.96571 0.33307 0.0
C1685 C 0.36116 0.96471 0.3363 0.0
C1686 C 0.42504 0.96192 0.29091 0.0
C1687 C 0.44156 0.97948 0.28396 0.0
C1688 C 0.40971 0.96201 0.30364 0.0
C1689 C 0.41072 0.9797 0.30976 0.0
C1690 C 0.42813 0.99724 0.30558 0.0
C1691 C 0.44334 0.99713 0.29257 0.0
H1692 H 0.61295 0.9617 0.358 0.0
H1693 H 0.63627 0.99231 0.28219 0.0
H1694 H 0.58574 0.96619 0.35379 0.0
H1695 H 0.60952 0.99698 0.27828 0.0
H1696 H 0.53155 0.95219 0.29423 0.0
H1697 H 0.55819 0.9526 0.31702 0.0
H1698 H 0.59436 0.01399 0.3028 0.0
H1699 H 0.56772 0.01355 0.28005 0.0
C1700 C 0.6124 0.96961 0.34071 0.0
C1701 C 0.62665 0.97654 0.3203 0.0
C1702 C 0.59687 0.97217 0.33834 0.0
C1703 C 0.59563 0.98212 0.3159 0.0
C1704 C 0.61024 0.98957 0.29609 0.0
C1705 C 0.62548 0.9867 0.29816 0.0
C1706 C 0.54489 0.96597 0.29734 0.0
C1707 C 0.54769 0.98279 0.2851 0.0
C1708 C 0.56019 0.96619 0.31026 0.0
C1709 C 0.57844 0.98323 0.31104 0.0
C1710 C 0.58051 1.00059 0.30204 0.0
C1711 C 0.56524 1.00038 0.28923 0.0
H1712 H 0.01892 0.65533 0.34867 0.0
H1713 H 0.07644 0.67817 0.31938 0.0
H1714 H 0.01229 0.62228 0.34192 0.0
H1715 H 0.06965 0.64539 0.31125 0.0
H1716 H 0.05826 0.5868 0.30104 0.0
H1717 H 0.06347 0.6157 0.3266 0.0
H1718 H 1.00626 0.60064 0.30484 0.0
H1719 H 1.00064 0.57108 0.28129 0.0
C1720 C 0.03016 0.65329 0.34087 0.0
C1721 C 0.04814 0.66936 0.3343 0.0
C1722 C 0.02636 0.63432 0.33689 0.0
C1723 C 0.04035 0.63099 0.3258 0.0
C1724 C 0.05856 0.6472 0.3203 0.0
C1725 C 0.06243 0.66611 0.32469 0.0
C1726 C 0.04651 0.58921 0.30275 0.0
C1727 C 0.02916 0.57682 0.28857 0.0
C1728 C 0.04962 0.60603 0.317 0.0
C1729 C 0.03556 0.61099 0.31704 0.0
C1730 C 0.01753 0.5975 0.30531 0.0
C1731 C 0.01433 0.58055 0.2915 0.0
H1732 H 0.34676 0.41236 0.35325 0.0
H1733 H 0.36254 0.37053 0.33019 0.0
H1734 H 0.37959 0.43886 0.34563 0.0
H1735 H 0.39516 0.39692 0.32229 0.0
H1736 H 0.45461 0.44556 0.31731 0.0
H1737 H 0.42503 0.42427 0.34212 0.0
H1738 H 0.39824 0.45152 0.30332 0.0
H1739 H 0.42781 0.47282 0.279 0.0
C1740 C 0.35726 0.40879 0.34687 0.0
C1741 C 0.35196 0.38931 0.34201 0.0
C1742 C 0.37607 0.42399 0.34248 0.0
C1743 C 0.39002 0.42004 0.33331 0.0
C1744 C 0.38488 0.40052 0.32974 0.0
C1745 C 0.36609 0.38536 0.33399 0.0
C1746 C 0.44264 0.44754 0.31514 0.0
C1747 C 0.44342 0.46076 0.29625 0.0
C1748 C 0.42563 0.43518 0.329 0.0
C1749 C 0.40916 0.43594 0.3243 0.0
C1750 C 0.41063 0.45056 0.30755 0.0
C1751 C 0.42757 0.4628 0.29361 0.0
H1752 H 0.3432 0.30245 0.32509 0.0
H1753 H 0.28188 0.27021 0.33431 0.0
H1754 H 0.34401 0.27398 0.33689 0.0
H1755 H 0.28248 0.24123 0.3448 0.0
H1756 H 0.29708 0.20909 0.4087 0.0
H1757 H 0.29118 0.23067 0.38293 0.0
H1758 H 0.33781 0.24253 0.32814 0.0
H1759 H 0.34441 0.22174 0.35531 0.0
C1760 C 0.32981 0.28911 0.32898 0.0
C1761 C 0.31251 0.2887 0.32922 0.0
C1762 C 0.33023 0.27263 0.33552 0.0
C1763 C 0.31332 0.25518 0.34209 0.0
C1764 C 0.29585 0.25447 0.34051 0.0
C1765 C 0.29548 0.27107 0.33437 0.0
C1766 C 0.30582 0.216 0.39078 0.0
C1767 C 0.32147 0.21406 0.38444 0.0
C1768 C 0.30235 0.22832 0.37576 0.0
C1769 C 0.3143 0.23882 0.35372 0.0
C1770 C 0.32866 0.23516 0.34549 0.0
C1771 C 0.33226 0.22296 0.36077 0.0
H1772 H 0.72967 0.01235 0.36547 0.0
H1773 H 0.71066 0.04224 0.31491 0.0
H1774 H 0.75893 0.04315 0.37688 0.0
H1775 H 0.74009 0.07315 0.32632 0.0
H1776 H 0.77843 0.12156 0.39554 0.0
H1777 H 0.75263 0.09345 0.37008 0.0
H1778 H 0.78902 0.0702 0.35738 0.0
H1779 H 0.81473 0.09821 0.38318 0.0
C1780 C 0.73182 0.02546 0.35655 0.0
C1781 C 0.71775 0.02485 0.33947 0.0
C1782 C 0.74869 0.04311 0.36287 0.0
C1783 C 0.75186 0.06059 0.35241 0.0
C1784 C 0.73802 0.05993 0.33475 0.0
C1785 C 0.72118 0.04222 0.32821 0.0
C1786 C 0.78109 0.11074 0.38649 0.0
C1787 C 0.79852 0.11199 0.39147 0.0
C1788 C 0.76633 0.09465 0.37188 0.0
C1789 C 0.7687 0.07945 0.36215 0.0
C1790 C 0.7867 0.08156 0.36502 0.0
C1791 C 0.80151 0.09772 0.37947 0.0
H1792 H 0.99595 0.72977 0.40158 0.0
H1793 H 0.98378 0.70754 0.31666 0.0
H1794 H 0.96438 0.72507 0.40522 0.0
H1795 H 0.95189 0.70292 0.32026 0.0
H1796 H 0.89078 0.66823 0.36497 0.0
H1797 H 0.92265 0.68027 0.34621 0.0
H1798 H 0.9432 0.73554 0.38956 0.0
H1799 H 0.91141 0.72319 0.40881 0.0
C1800 C 0.9866 0.7241 0.38353 0.0
C1801 C 0.99233 0.71887 0.35892 0.0
C1802 C 0.96852 0.72161 0.3855 0.0
C1803 C 0.95561 0.71374 0.36295 0.0
C1804 C 0.9615 0.709 0.338 0.0
C1805 C 0.97975 0.71167 0.33594 0.0
C1806 C 0.90191 0.68326 0.3693 0.0
C1807 C 0.89876 0.69479 0.38835 0.0
C1808 C 0.92021 0.69015 0.35868 0.0
C1809 C 0.93557 0.7087 0.36698 0.0
C1810 C 0.93175 0.72103 0.38329 0.0
C1811 C 0.91353 0.71409 0.39402 0.0
H1812 H 0.41006 0.06778 0.66589 0.0
H1813 H 0.3745 0.00508 0.66022 0.0
H1814 H 0.43757 0.06542 0.67744 0.0
H1815 H 0.40169 1.00267 0.67277 0.0
H1816 H 0.45224 0.99989 0.69161 0.0
H1817 H 0.43207 0.00691 0.66366 0.0
H1818 H 0.44714 0.05688 0.71769 0.0
H1819 H 0.46778 0.05027 0.74458 0.0
C1820 C 0.40814 0.05349 0.66685 0.0
C1821 C 0.39001 0.03662 0.66251 0.0
C1822 C 0.42391 0.05213 0.67359 0.0
C1823 C 0.4219 0.03386 0.67641 0.0
C1824 C 0.40395 0.01702 0.67049 0.0
C1825 C 0.38824 0.01838 0.66351 0.0
C1826 C 0.45182 0.01281 0.69674 0.0
C1827 C 0.46139 0.0244 0.72045 0.0
C1828 C 0.44002 0.01669 0.681 0.0
C1829 C 0.43757 0.03221 0.68873 0.0
C1830 C 0.44863 0.04483 0.71092 0.0
C1831 C 0.46044 0.041 0.72651 0.0
H1832 H 0.9415 0.3416 0.665 0.0
H1833 H 0.99767 0.36219 0.69901 0.0
H1834 H 0.94693 0.3743 0.67141 0.0
H1835 H 1.00303 0.39472 0.70537 0.0
H1836 H 0.01365 0.45394 0.70368 0.0
H1837 H 0.0069 0.42339 0.68092 0.0
H1838 H 0.94984 0.39419 0.71429 0.0
H1839 H 0.95665 0.42471 0.73688 0.0
C1840 C 0.95508 0.35313 0.67353 0.0
C1841 C 0.96909 0.34925 0.68175 0.0
C1842 C 0.95817 0.37184 0.67719 0.0
C1843 C 0.97543 0.3871 0.68877 0.0
C1844 C 0.98969 0.38336 0.69598 0.0
C1845 C 0.98654 0.36465 0.69262 0.0
C1846 C 0.99941 0.44117 0.70505 0.0
C1847 C 0.98566 0.44161 0.72201 0.0
C1848 C 0.99562 0.42364 0.69235 0.0
C1849 C 0.97795 0.40632 0.69622 0.0
C1850 C 0.96356 0.40726 0.71082 0.0
C1851 C 0.96742 0.42473 0.72371 0.0
H1852 H 0.67298 0.61926 0.69926 0.0
H1853 H 0.64165 0.63582 0.64733 0.0
H1854 H 0.64307 0.59041 0.71245 0.0
H1855 H 0.61169 0.60683 0.66051 0.0
H1856 H 0.56626 0.57168 0.72999 0.0
H1857 H 0.59347 0.5967 0.70459 0.0
H1858 H 0.61554 0.55876 0.69459 0.0
H1859 H 0.58836 0.53381 0.72029 0.0
C1860 C 0.65973 0.61666 0.69044 0.0
C1861 C 0.65971 0.62994 0.67241 0.0
C1862 C 0.64259 0.60001 0.6978 0.0
C1863 C 0.62501 0.5963 0.68745 0.0
C1864 C 0.625 0.60934 0.66891 0.0
C1865 C 0.64218 0.62592 0.66135 0.0
C1866 C 0.57664 0.5685 0.72161 0.0
C1867 C 0.57525 0.55085 0.72718 0.0
C1868 C 0.59222 0.58281 0.70704 0.0
C1869 C 0.6068 0.57981 0.69794 0.0
C1870 C 0.60465 0.56158 0.7017 0.0
C1871 C 0.58897 0.5472 0.71608 0.0
H1872 H 0.72162 0.73649 0.68563 0.0
H1873 H 0.68992 0.7093 0.6096 0.0
H1874 H 0.71575 0.76314 0.68087 0.0
H1875 H 0.68394 0.7355 0.60514 0.0
H1876 H 0.66384 0.77556 0.60871 0.0
H1877 H 0.6663 0.74979 0.6294 0.0
H1878 H 0.7265 0.79015 0.64474 0.0
H1879 H 0.72403 0.81594 0.62395 0.0
C1880 C 0.71325 0.7361 0.66812 0.0
C1881 C 0.70632 0.72087 0.64789 0.0
C1882 C 0.70991 0.75132 0.66542 0.0
C1883 C 0.69921 0.75129 0.64281 0.0
C1884 C 0.69194 0.73578 0.62306 0.0
C1885 C 0.69555 0.72086 0.62546 0.0
C1886 C 0.67743 0.7791 0.61751 0.0
C1887 C 0.69379 0.79767 0.61442 0.0
C1888 C 0.67887 0.76433 0.62917 0.0
C1889 C 0.69668 0.76787 0.63808 0.0
C1890 C 0.71259 0.78701 0.63803 0.0
C1891 C 0.71115 0.80181 0.62626 0.0
H1892 H 0.30618 0.99398 0.68657 0.0
H1893 H 0.27469 0.01323 0.6405 0.0
H1894 H 0.27892 0.96061 0.68307 0.0
H1895 H 0.24793 0.97996 0.63568 0.0
H1896 H 0.19901 0.92068 0.6312 0.0
H1897 H 0.22227 0.95194 0.65359 0.0
H1898 H 0.2648 0.93583 0.64914 0.0
H1899 H 0.24118 0.90441 0.62838 0.0
C1900 C 0.29341 0.99108 0.67575 0.0
C1901 C 0.29266 0.00623 0.66361 0.0
C1902 C 0.27777 0.97192 0.67364 0.0
C1903 C 0.26113 0.96739 0.65892 0.0
C1904 C 0.26024 0.98275 0.64765 0.0
C1905 C 0.27573 1.00191 0.65015 0.0
C1906 C 0.21308 0.92356 0.63642 0.0
C1907 C 0.21832 0.91016 0.62851 0.0
C1908 C 0.22655 0.9416 0.64872 0.0
C1909 C 0.24566 0.94675 0.65261 0.0
C1910 C 0.2503 0.93251 0.6468 0.0
C1911 C 0.23674 0.9144 0.63495 0.0
H1912 H 0.04215 0.34186 0.64869 0.0
H1913 H 0.02592 0.29418 0.7028 0.0
H1914 H 0.07192 0.3437 0.63873 0.0
H1915 H 0.0563 0.2964 0.69342 0.0
H1916 H 0.09464 0.28743 0.62832 0.0
H1917 H 0.06973 0.28837 0.65483 0.0
H1918 H 0.1024 0.35121 0.65369 0.0
H1919 H 0.12685 0.35003 0.62606 0.0
C1920 C 0.04509 0.33198 0.65891 0.0
C1921 C 0.03152 0.31772 0.67629 0.0
C1922 C 0.06236 0.33317 0.65343 0.0
C1923 C 0.06663 0.32021 0.66528 0.0
C1924 C 0.05341 0.30648 0.68369 0.0
C1925 C 0.03603 0.30525 0.68915 0.0
C1926 C 0.09681 0.30144 0.63475 0.0
C1927 C 0.11256 0.31865 0.62508 0.0
C1928 C 0.0825 0.30202 0.64991 0.0
C1929 C 0.08379 0.31986 0.65585 0.0
C1930 C 0.10067 0.33718 0.64881 0.0
C1931 C 0.11481 0.33657 0.63333 0.0
H1932 H 0.27818 0.28873 0.68391 0.0
H1933 H 0.30976 0.33519 0.62712 0.0
H1934 H 0.2499 0.29088 0.67672 0.0
H1935 H 0.28171 0.33703 0.61953 0.0
H1936 H 0.20035 0.28335 0.61765 0.0
H1937 H 0.22683 0.28311 0.63975 0.0
H1938 H 0.26054 0.34593 0.63924 0.0
H1939 H 0.23424 0.34595 0.61621 0.0
C1940 C 0.27914 0.29947 0.67006 0.0
C1941 C 0.29622 0.31172 0.65599 0.0
C1942 C 0.26292 0.30067 0.66588 0.0
C1943 C 0.2635 0.31421 0.64767 0.0
C1944 C 0.28076 0.32671 0.63417 0.0
C1945 C 0.29687 0.3255 0.6383 0.0
C1946 C 0.21317 0.2971 0.62331 0.0
C1947 C 0.21534 0.31466 0.6152 0.0
C1948 C 0.2284 0.29699 0.63589 0.0
C1949 C 0.24602 0.31449 0.64069 0.0
C1950 C 0.24737 0.33216 0.63517 0.0
C1951 C 0.23225 0.33223 0.62233 0.0
H1952 H 0.68492 0.98697 0.68209 0.0
H1953 H 0.74333 0.01124 0.65628 0.0
H1954 H 0.67875 0.95424 0.67351 0.0
H1955 H 0.73701 0.97882 0.64576 0.0
H1956 H 0.72601 0.92033 0.63134 0.0
H1957 H 0.731 0.94889 0.65767 0.0
H1958 H 0.67336 0.93316 0.63714 0.0
H1959 H 0.66796 0.90387 0.61326 0.0
C1960 C 0.69643 0.98526 0.6745 0.0
C1961 C 0.71456 1.00163 0.66964 0.0
C1962 C 0.69289 0.96648 0.66942 0.0
C1963 C 0.70728 0.96364 0.6586 0.0
C1964 C 0.72559 0.98016 0.65457 0.0
C1965 C 0.72922 0.99888 0.66033 0.0
C1966 C 0.71416 0.92256 0.63346 0.0
C1967 C 0.69671 0.91003 0.61961 0.0
C1968 C 0.71713 0.93921 0.64812 0.0
C1969 C 0.70285 0.9439 0.64884 0.0
C1970 C 0.68482 0.9303 0.63721 0.0
C1971 C 0.68174 0.91348 0.62313 0.0
H1972 H 0.02576 0.70819 0.649 0.0
H1973 H 0.00984 0.74735 0.68502 0.0
H1974 H 0.05757 0.73577 0.63969 0.0
H1975 H 0.04181 0.775 0.67581 0.0
H1976 H 0.08827 0.81493 0.61034 0.0
H1977 H 0.05902 0.79069 0.63294 0.0
H1978 H 0.08779 0.76236 0.66108 0.0
H1979 H 0.11704 0.78662 0.63816 0.0
C1980 C 0.02909 0.72267 0.65519 0.0
C1981 C 0.01517 0.72556 0.66754 0.0
C1982 C 0.04742 0.73849 0.6501 0.0
C1983 C 0.05226 0.7576 0.65707 0.0
C1984 C 0.0385 0.76046 0.67006 0.0
C1985 C 0.02018 0.74461 0.67536 0.0
C1986 C 0.08849 0.8039 0.62218 0.0
C1987 C 0.10488 0.80262 0.62247 0.0
C1988 C 0.07174 0.79 0.63512 0.0
C1989 C 0.07099 0.77441 0.64845 0.0
C1990 C 0.08785 0.77404 0.65062 0.0
C1991 C 0.10467 0.78807 0.63784 0.0
H1992 H 0.95141 0.60676 0.66508 0.0
H1993 H 0.01273 0.64254 0.67529 0.0
H1994 H 0.95253 0.57796 0.67496 0.0
H1995 H 0.01381 0.61406 0.68622 0.0
H1996 H 0.01504 0.56135 0.69865 0.0
H1997 H 0.01065 0.58413 0.67263 0.0
H1998 H 0.95715 0.5647 0.7146 0.0
H1999 H 0.96113 0.54137 0.73928 0.0
C2000 C 0.96514 0.60848 0.66932 0.0
C2001 C 0.98196 0.62699 0.66968 0.0
C2002 C 0.96579 0.59196 0.67507 0.0
C2003 C 0.98324 0.59359 0.68159 0.0
C2004 C 1.00012 0.61207 0.68086 0.0
C2005 C 0.99949 0.62851 0.67486 0.0
C2006 C 1.00199 0.56142 0.70143 0.0
C2007 C 0.98857 0.54978 0.72131 0.0
C2008 C 0.9996 0.57471 0.68686 0.0
C2009 C 0.98379 0.57669 0.692 0.0
C2010 C 0.96951 0.56368 0.70996 0.0
C2011 C 0.97184 0.55034 0.72431 0.0
H2012 H 0.41328 0.34193 0.67155 0.0
H2013 H 0.37537 0.36317 0.66206 0.0
H2014 H 0.4394 0.37461 0.68344 0.0
H2015 H 0.40184 0.39635 0.67139 0.0
H2016 H 0.44242 0.44397 0.73428 0.0
H2017 H 0.41857 0.41595 0.70762 0.0
H2018 H 0.46235 0.40594 0.67635 0.0
H2019 H 0.48587 0.4329 0.70572 0.0
C2020 C 0.41073 0.35378 0.67121 0.0
C2021 C 0.39231 0.35006 0.66634 0.0
C2022 C 0.4258 0.37268 0.67777 0.0
C2023 C 0.42294 0.38845 0.6788 0.0
C2024 C 0.40465 0.38471 0.67182 0.0
C2025 C 0.38944 0.36569 0.66621 0.0
C2026 C 0.447 0.43588 0.72152 0.0
C2027 C 0.46594 0.44028 0.72302 0.0
C2028 C 0.43327 0.4198 0.70578 0.0
C2029 C 0.43821 0.408 0.69029 0.0
C2030 C 0.45771 0.41404 0.68891 0.0
C2031 C 0.47138 0.42985 0.70534 0.0
H2032 H 0.66355 0.05984 0.70225 0.0
H2033 H 0.63699 0.02341 0.62871 0.0
H2034 H 0.63348 0.0567 0.71489 0.0
H2035 H 0.60675 0.02064 0.64108 0.0
H2036 H 0.58163 0.05739 0.73011 0.0
H2037 H 0.6103 0.06475 0.70445 0.0
H2038 H 0.58242 0.00461 0.67569 0.0
H2039 H 0.55357 0.99758 0.70058 0.0
C2040 C 0.65135 0.05138 0.68851 0.0
C2041 C 0.65269 0.04176 0.66457 0.0
C2042 C 0.63407 0.04973 0.69563 0.0
C2043 C 0.61762 0.03847 0.67895 0.0
C2044 C 0.61908 0.0293 0.65452 0.0
C2045 C 0.63644 0.03094 0.64739 0.0
C2046 C 0.58145 0.04597 0.71739 0.0
C2047 C 0.56546 0.02694 0.71728 0.0
C2048 C 0.59793 0.05009 0.70299 0.0
C2049 C 0.59887 0.03518 0.68856 0.0
C2050 C 0.58223 0.01649 0.68647 0.0
C2051 C 0.56565 0.01243 0.70066 0.0
loop_
_geom_bond_atom_site_label_1
_geom_bond_atom_site_label_2
_geom_bond_distance
_geom_bond_site_symmetry_2
_ccdc_geom_bond_type
C0 O1 1.160 . S
C0 O7 1.185 . S
O1 C0 1.160 . S
O2 Zn3 1.899 1_656 S
O2 C10 1.284 1_556 S
Zn3 O2 1.899 1_454 S
Zn3 O4 2.032 . S
Zn3 O7 2.086 . S
Zn3 O12 1.977 1_554 S
O4 Zn3 2.032 . S
O4 C8 1.278 1_455 S
C5 O6 1.203 1_455 S
C5 O12 1.267 . S
O6 C5 1.203 1_655 S
O7 C0 1.185 . S
O7 Zn3 2.086 . S
C8 O4 1.278 1_655 S
C8 O9 1.211 . S
O9 C8 1.211 . S
C10 O2 1.284 1_554 S
C10 O11 1.273 . S
O11 C10 1.273 . S
O12 Zn3 1.977 1_556 S
O12 C5 1.267 . S
C13 O14 1.160 . S
C13 O20 1.185 1_556 S
O14 C13 1.160 . S
O15 Zn16 1.899 . S
O15 C23 1.284 . S
Zn16 O15 1.899 . S
Zn16 O17 2.032 1_554 S
Zn16 O20 2.086 . S
Zn16 O25 1.977 . S
O17 Zn16 2.032 1_556 S
O17 C21 1.278 . S
C18 O19 1.203 . S
C18 O25 1.267 . S
O19 C18 1.203 . S
O20 C13 1.185 1_554 S
O20 Zn16 2.086 . S
C21 O17 1.278 . S
C21 O22 1.211 . S
O22 C21 1.211 . S
C23 O15 1.284 . S
C23 O24 1.273 . S
O24 C23 1.273 . S
O25 Zn16 1.977 . S
O25 C18 1.267 . S
C26 O27 1.148 1_554 S
C26 O33 1.204 . S
O27 C26 1.148 1_556 S
O28 Zn29 1.899 1_565 S
O28 C36 1.284 . S
Zn29 O28 1.899 1_545 S
Zn29 O30 2.032 1_554 S
Zn29 O33 2.086 . S
Zn29 O38 1.977 . S
O30 Zn29 2.032 1_556 S
O30 C34 1.247 1_545 S
C31 O32 1.203 1_545 S
C31 O38 1.267 . S
O32 C31 1.203 1_565 S
O33 C26 1.204 . S
O33 Zn29 2.086 . S
C34 O30 1.247 1_565 S
C34 O35 1.236 . S
O35 C34 1.236 . S
C36 O28 1.284 . S
C36 O37 1.273 . S
O37 C36 1.273 . S
O38 Zn29 1.977 . S
O38 C31 1.267 . S
C39 O40 1.160 . S
C39 O46 1.185 1_556 S
O40 C39 1.160 . S
O41 Zn42 1.899 1_455 S
O41 C49 1.284 . S
Zn42 O41 1.899 1_655 S
Zn42 O43 2.032 1_554 S
Zn42 O46 2.086 . S
Zn42 O51 1.977 . S
O43 Zn42 2.032 1_556 S
O43 C47 1.278 1_655 S
C44 O45 1.203 1_655 S
C44 O51 1.267 . S
O45 C44 1.203 1_455 S
O46 C39 1.185 1_554 S
O46 Zn42 2.086 . S
C47 O43 1.278 1_455 S
C47 O48 1.211 . S
O48 C47 1.211 . S
C49 O41 1.284 . S
C49 O50 1.273 . S
O50 C49 1.273 . S
O51 Zn42 1.977 . S
O51 C44 1.267 . S
C52 O53 1.160 . S
C52 O59 1.185 . S
O53 C52 1.160 . S
O54 Zn55 1.899 1_556 S
O54 C62 1.284 . S
Zn55 O54 1.899 1_554 S
Zn55 O56 2.032 . S
Zn55 O59 2.086 . S
Zn55 O64 1.977 1_554 S
O56 Zn55 2.032 . S
O56 C60 1.278 . S
C57 O58 1.203 . S
C57 O64 1.267 . S
O58 C57 1.203 . S
O59 C52 1.185 . S
O59 Zn55 2.086 . S
C60 O56 1.278 . S
C60 O61 1.211 . S
O61 C60 1.211 . S
C62 O54 1.284 . S
C62 O63 1.273 1_556 S
O63 C62 1.273 1_554 S
O64 Zn55 1.977 1_556 S
O64 C57 1.267 . S
C65 O66 1.160 . S
C65 O72 1.185 . S
O66 C65 1.160 . S
O67 Zn68 1.899 1_546 S
O67 C75 1.284 . S
Zn68 O67 1.899 1_564 S
Zn68 O69 2.032 . S
Zn68 O72 2.086 . S
Zn68 O77 1.977 1_554 S
O69 Zn68 2.032 . S
O69 C73 1.278 1_565 S
C70 O71 1.203 1_565 S
C70 O77 1.267 . S
O71 C70 1.203 1_545 S
O72 C65 1.185 . S
O72 Zn68 2.086 . S
C73 O69 1.278 1_545 S
C73 O74 1.211 . S
O74 C73 1.211 . S
C75 O67 1.284 . S
C75 O76 1.273 1_556 S
O76 C75 1.273 1_554 S
O77 Zn68 1.977 1_556 S
O77 C70 1.267 . S
C78 O79 1.160 . S
C78 O85 1.185 . S
O79 C78 1.160 . S
O80 Zn81 1.899 . S
O80 C88 1.284 . S
Zn81 O80 1.899 . S
Zn81 O82 2.032 . S
Zn81 O85 2.086 . S
Zn81 O90 1.977 . S
O82 Zn81 2.032 . S
O82 C86 1.278 . S
C83 O84 1.203 . S
C83 O90 1.267 . S
O84 C83 1.203 . S
O85 C78 1.185 . S
O85 Zn81 2.086 . S
C86 O82 1.278 . S
C86 O87 1.211 . S
O87 C86 1.211 . S
C88 O80 1.284 . S
C88 O89 1.273 . S
O89 C88 1.273 . S
O90 Zn81 1.977 . S
O90 C83 1.267 . S
C91 O92 1.160 1_565 S
C91 O98 1.185 . S
O92 C91 1.160 1_545 S
O93 Zn94 1.899 1_545 S
O93 C101 1.284 . S
Zn94 O93 1.899 1_565 S
Zn94 O95 2.032 . S
Zn94 O98 2.086 . S
Zn94 O103 1.977 . S
O95 Zn94 2.032 . S
O95 C99 1.278 . S
C96 O97 1.203 . S
C96 O103 1.267 . S
O97 C96 1.203 . S
O98 C91 1.185 . S
O98 Zn94 2.086 . S
C99 O95 1.278 . S
C99 O100 1.211 . S
O100 C99 1.211 . S
C101 O93 1.284 . S
C101 O102 1.273 . S
O102 C101 1.273 . S
O103 Zn94 1.977 . S
O103 C96 1.267 . S
C104 O105 1.160 . S
C104 O111 1.185 . S
O105 C104 1.160 . S
O106 Zn107 1.901 1_655 S
O106 C114 1.285 . S
Zn107 O106 1.901 1_455 S
Zn107 O108 2.032 . S
Zn107 O111 2.086 . S
Zn107 O116 1.977 . S
O108 Zn107 2.032 . S
O108 C112 1.278 . S
C109 O110 1.203 . S
C109 O116 1.267 . S
O110 C109 1.203 . S
O111 C104 1.185 . S
O111 Zn107 2.086 . S
C112 O108 1.278 . S
C112 O113 1.211 . S
O113 C112 1.211 . S
C114 O106 1.285 . S
C114 O115 1.244 1_655 S
O115 C114 1.244 1_455 S
O116 Zn107 1.977 . S
O116 C109 1.267 . S
C117 O118 1.160 1_565 S
C117 O124 1.185 . S
O118 C117 1.160 1_545 S
O119 Zn120 1.899 1_545 S
O119 C127 1.284 . S
Zn120 O119 1.899 1_565 S
Zn120 O121 2.032 . S
Zn120 O124 2.086 . S
Zn120 O129 1.977 . S
O121 Zn120 2.032 . S
O121 C125 1.278 . S
C122 O123 1.203 . S
C122 O129 1.267 . S
O123 C122 1.203 . S
O124 C117 1.185 . S
O124 Zn120 2.086 . S
C125 O121 1.278 . S
C125 O126 1.211 . S
O126 C125 1.211 . S
C127 O119 1.284 . S
C127 O128 1.273 . S
O128 C127 1.273 . S
O129 Zn120 1.977 . S
O129 C122 1.267 . S
C130 O131 1.160 . S
C130 O137 1.185 . S
O131 C130 1.160 . S
O132 Zn133 1.899 . S
O132 C140 1.284 . S
Zn133 O132 1.899 . S
Zn133 O134 2.032 . S
Zn133 O137 2.086 1_455 S
Zn133 O142 1.977 . S
O134 Zn133 2.032 . S
O134 C138 1.278 . S
C135 O136 1.203 . S
C135 O142 1.267 . S
O136 C135 1.203 . S
O137 C130 1.185 . S
O137 Zn133 2.086 1_655 S
C138 O134 1.278 . S
C138 O139 1.211 . S
O139 C138 1.211 . S
C140 O132 1.284 . S
C140 O141 1.273 . S
O141 C140 1.273 . S
O142 Zn133 1.977 . S
O142 C135 1.267 . S
C143 O144 1.160 . S
C143 O150 1.185 . S
O144 C143 1.160 . S
O145 Zn146 1.899 . S
O145 C153 1.284 . S
Zn146 O145 1.899 . S
Zn146 O147 2.032 . S
Zn146 O150 2.086 . S
Zn146 O155 1.977 . S
O147 Zn146 2.032 . S
O147 C151 1.278 . S
C148 O149 1.203 . S
C148 O155 1.267 . S
O149 C148 1.203 . S
O150 C143 1.185 . S
O150 Zn146 2.086 . S
C151 O147 1.278 . S
C151 O152 1.211 . S
O152 C151 1.211 . S
C153 O145 1.284 . S
C153 O154 1.273 . S
O154 C153 1.273 . S
O155 Zn146 1.977 . S
O155 C148 1.267 . S
C156 O157 1.155 1_545 S
C156 O163 1.185 . S
O157 C156 1.155 1_565 S
O158 Zn159 1.899 1_565 S
O158 C166 1.284 . S
Zn159 O158 1.899 1_545 S
Zn159 O160 2.032 . S
Zn159 O163 2.086 . S
Zn159 O168 1.977 . S
O160 Zn159 2.032 . S
O160 C164 1.278 . S
C161 O162 1.203 . S
C161 O168 1.267 . S
O162 C161 1.203 . S
O163 C156 1.185 . S
O163 Zn159 2.086 . S
C164 O160 1.278 . S
C164 O165 1.211 . S
O165 C164 1.211 . S
C166 O158 1.284 . S
C166 O167 1.317 . S
O167 C166 1.317 . S
O168 Zn159 1.977 . S
O168 C161 1.267 . S
C169 O170 1.160 . S
C169 O176 1.185 . S
O170 C169 1.160 . S
O171 Zn172 1.899 . S
O171 C179 1.284 . S
Zn172 O171 1.899 . S
Zn172 O173 2.032 . S
Zn172 O176 2.086 1_655 S
Zn172 O181 1.977 . S
O173 Zn172 2.032 . S
O173 C177 1.278 . S
C174 O175 1.203 . S
C174 O181 1.267 . S
O175 C174 1.203 . S
O176 C169 1.185 . S
O176 Zn172 2.086 1_455 S
C177 O173 1.278 . S
C177 O178 1.211 . S
O178 C177 1.211 . S
C179 O171 1.284 . S
C179 O180 1.273 . S
O180 C179 1.273 . S
O181 Zn172 1.977 . S
O181 C174 1.267 . S
C182 O183 1.160 . S
C182 O189 1.185 . S
O183 C182 1.160 . S
O184 Zn185 1.899 . S
O184 C192 1.284 . S
Zn185 O184 1.899 . S
Zn185 O186 2.032 . S
Zn185 O189 2.086 . S
Zn185 O194 1.977 . S
O186 Zn185 2.032 . S
O186 C190 1.278 . S
C187 O188 1.203 . S
C187 O194 1.267 . S
O188 C187 1.203 . S
O189 C182 1.185 . S
O189 Zn185 2.086 . S
C190 O186 1.278 . S
C190 O191 1.211 . S
O191 C190 1.211 . S
C192 O184 1.284 . S
C192 O193 1.273 . S
O193 C192 1.273 . S
O194 Zn185 1.977 . S
O194 C187 1.267 . S
C195 O196 1.160 . S
C195 O202 1.185 . S
O196 C195 1.160 . S
O197 Zn198 1.899 . S
O197 C205 1.284 . S
Zn198 O197 1.899 . S
Zn198 O199 2.032 . S
Zn198 O202 2.086 . S
Zn198 O207 1.977 . S
O199 Zn198 2.032 . S
O199 C203 1.278 . S
C200 O201 1.203 . S
C200 O207 1.267 . S
O201 C200 1.203 . S
O202 C195 1.185 . S
O202 Zn198 2.086 . S
C203 O199 1.278 . S
C203 O204 1.211 . S
O204 C203 1.211 . S
C205 O197 1.284 . S
C205 O206 1.273 . S
O206 C205 1.273 . S
O207 Zn198 1.977 . S
O207 C200 1.267 . S
C208 O209 1.159 1_545 S
C208 O215 1.185 . S
O209 C208 1.159 1_565 S
O210 Zn211 1.899 1_565 S
O210 C218 1.284 . S
Zn211 O210 1.899 1_545 S
Zn211 O212 2.032 . S
Zn211 O215 2.086 . S
Zn211 O220 1.977 . S
O212 Zn211 2.032 . S
O212 C216 1.278 . S
C213 O214 1.203 . S
C213 O220 1.267 . S
O214 C213 1.203 . S
O215 C208 1.185 . S
O215 Zn211 2.086 . S
C216 O212 1.278 . S
C216 O217 1.211 . S
O217 C216 1.211 . S
C218 O210 1.284 . S
C218 O219 1.274 . S
O219 C218 1.274 . S
O220 Zn211 1.977 . S
O220 C213 1.267 . S
C221 O222 1.160 . S
C221 O228 1.185 . S
O222 C221 1.160 . S
O223 Zn224 1.897 . S
O223 C231 1.284 1_655 S
Zn224 O223 1.897 . S
Zn224 O225 2.032 . S
Zn224 O228 2.086 . S
Zn224 O233 1.977 . S
O225 Zn224 2.032 . S
O225 C229 1.278 . S
C226 O227 1.203 . S
C226 O233 1.267 . S
O227 C226 1.203 . S
O228 C221 1.185 . S
O228 Zn224 2.086 . S
C229 O225 1.278 . S
C229 O230 1.211 . S
O230 C229 1.211 . S
C231 O223 1.284 1_455 S
C231 O232 1.233 1_455 S
O232 C231 1.233 1_655 S
O233 Zn224 1.977 . S
O233 C226 1.267 . S
H234 C242 0.930 . S
H235 C245 0.930 . S
H236 C247 0.930 . S
H237 C248 0.970 . S
H238 C248 0.970 . S
H239 C250 0.930 . S
H240 C252 0.930 . S
H241 C254 0.930 . S
C242 H234 0.930 . S
C242 C243 1.382 . S
C242 C244 1.426 . S
C243 C242 1.382 . S
C243 C247 1.389 . S
C244 C242 1.426 . S
C244 C245 1.375 . S
C244 C248 1.532 . S
C245 H235 0.930 . S
C245 C244 1.375 . S
C245 C246 1.416 . S
C246 C245 1.416 . S
C246 C247 1.371 . S
C247 H236 0.930 . S
C247 C243 1.389 . S
C247 C246 1.371 . S
C248 H237 0.970 . S
C248 H238 0.970 . S
C248 C244 1.532 . S
C248 C249 1.499 . S
C249 C248 1.499 . S
C249 C250 1.370 . S
C249 C254 1.415 . S
C250 H239 0.930 . S
C250 C249 1.370 . S
C250 C251 1.407 . S
C251 C250 1.407 . S
C251 C252 1.365 . S
C252 H240 0.930 . S
C252 C251 1.365 . S
C252 C253 1.393 . S
C253 C252 1.393 . S
C253 C254 1.387 . S
C254 H241 0.930 . S
C254 C249 1.415 . S
C254 C253 1.387 . S
H255 C263 0.930 . S
H256 C266 0.930 . S
H257 C268 0.930 . S
H258 C269 0.970 . S
H259 C269 0.970 . S
H260 C271 0.930 . S
H261 C273 0.930 . S
H262 C275 0.930 . S
C263 H255 0.930 . S
C263 C264 1.382 . S
C263 C265 1.426 . S
C264 C263 1.382 . S
C264 C268 1.389 . S
C265 C263 1.426 . S
C265 C266 1.375 . S
C265 C269 1.532 . S
C266 H256 0.930 . S
C266 C265 1.375 . S
C266 C267 1.416 . S
C267 C266 1.416 . S
C267 C268 1.371 . S
C268 H257 0.930 . S
C268 C264 1.389 . S
C268 C267 1.371 . S
C269 H258 0.970 . S
C269 H259 0.970 . S
C269 C265 1.532 . S
C269 C270 1.499 . S
C270 C269 1.499 . S
C270 C271 1.370 . S
C270 C275 1.415 . S
C271 H260 0.930 . S
C271 C270 1.370 . S
C271 C272 1.407 . S
C272 C271 1.407 . S
C272 C273 1.365 . S
C273 H261 0.930 . S
C273 C272 1.365 . S
C273 C274 1.393 . S
C274 C273 1.393 . S
C274 C275 1.387 . S
C275 H262 0.930 . S
C275 C270 1.415 . S
C275 C274 1.387 . S
H276 C284 0.930 . S
H277 C287 0.930 . S
H278 C289 0.930 . S
H279 C290 0.970 . S
H280 C290 0.970 . S
H281 C292 0.930 . S
H282 C294 0.930 . S
H283 C296 0.930 . S
C284 H276 0.930 . S
C284 C285 1.382 . S
C284 C286 1.426 . S
C285 C284 1.382 . S
C285 C289 1.389 . S
C286 C284 1.426 . S
C286 C287 1.375 . S
C286 C290 1.532 . S
C287 H277 0.930 . S
C287 C286 1.375 . S
C287 C288 1.416 . S
C288 C287 1.416 . S
C288 C289 1.371 . S
C289 H278 0.930 . S
C289 C285 1.389 . S
C289 C288 1.371 . S
C290 H279 0.970 . S
C290 H280 0.970 . S
C290 C286 1.532 . S
C290 C291 1.499 . S
C291 C290 1.499 . S
C291 C292 1.370 . S
C291 C296 1.415 . S
C292 H281 0.930 . S
C292 C291 1.370 . S
C292 C293 1.407 . S
C293 C292 1.407 . S
C293 C294 1.365 . S
C294 H282 0.930 . S
C294 C293 1.365 . S
C294 C295 1.393 . S
C295 C294 1.393 . S
C295 C296 1.387 . S
C296 H283 0.930 . S
C296 C291 1.415 . S
C296 C295 1.387 . S
H297 C305 0.930 . S
H298 C308 0.930 . S
H299 C310 0.930 . S
H300 C311 0.970 . S
H301 C311 0.970 . S
H302 C313 0.930 . S
H303 C315 0.930 . S
H304 C317 0.930 . S
C305 H297 0.930 . S
C305 C306 1.382 . S
C305 C307 1.426 . S
C306 C305 1.382 . S
C306 C310 1.389 . S
C307 C305 1.426 . S
C307 C308 1.375 . S
C307 C311 1.532 . S
C308 H298 0.930 . S
C308 C307 1.375 . S
C308 C309 1.416 . S
C309 C308 1.416 . S
C309 C310 1.371 . S
C310 H299 0.930 . S
C310 C306 1.389 . S
C310 C309 1.371 . S
C311 H300 0.970 . S
C311 H301 0.970 . S
C311 C307 1.532 . S
C311 C312 1.499 . S
C312 C311 1.499 . S
C312 C313 1.370 . S
C312 C317 1.415 . S
C313 H302 0.930 . S
C313 C312 1.370 . S
C313 C314 1.407 . S
C314 C313 1.407 . S
C314 C315 1.365 . S
C315 H303 0.930 . S
C315 C314 1.365 . S
C315 C316 1.393 . S
C316 C315 1.393 . S
C316 C317 1.387 . S
C317 H304 0.930 . S
C317 C312 1.415 . S
C317 C316 1.387 . S
H318 C326 0.930 . S
H319 C329 0.930 . S
H320 C331 0.930 . S
H321 C332 0.970 . S
H322 C332 0.970 . S
H323 C334 0.930 . S
H324 C336 0.930 . S
H325 C338 0.930 . S
C326 H318 0.930 . S
C326 C327 1.382 . S
C326 C328 1.426 . S
C327 C326 1.382 . S
C327 C331 1.389 . S
C328 C326 1.426 . S
C328 C329 1.375 . S
C328 C332 1.532 . S
C329 H319 0.930 . S
C329 C328 1.375 . S
C329 C330 1.416 . S
C330 C329 1.416 . S
C330 C331 1.371 . S
C331 H320 0.930 . S
C331 C327 1.389 . S
C331 C330 1.371 . S
C332 H321 0.970 . S
C332 H322 0.970 . S
C332 C328 1.532 . S
C332 C333 1.499 . S
C333 C332 1.499 . S
C333 C334 1.370 . S
C333 C338 1.415 . S
C334 H323 0.930 . S
C334 C333 1.370 . S
C334 C335 1.407 . S
C335 C334 1.407 . S
C335 C336 1.365 . S
C336 H324 0.930 . S
C336 C335 1.365 . S
C336 C337 1.393 . S
C337 C336 1.393 . S
C337 C338 1.387 . S
C338 H325 0.930 . S
C338 C333 1.415 . S
C338 C337 1.387 . S
H339 C347 0.930 . S
H340 C350 0.930 . S
H341 C352 0.930 . S
H342 C353 0.970 . S
H343 C353 0.970 . S
H344 C355 0.930 . S
H345 C357 0.930 . S
H346 C359 0.930 . S
C347 H339 0.930 . S
C347 C348 1.382 . S
C347 C349 1.426 . S
C348 C347 1.382 . S
C348 C352 1.389 . S
C349 C347 1.426 . S
C349 C350 1.375 . S
C349 C353 1.532 . S
C350 H340 0.930 . S
C350 C349 1.375 . S
C350 C351 1.416 . S
C351 C350 1.416 . S
C351 C352 1.371 . S
C352 H341 0.930 . S
C352 C348 1.389 . S
C352 C351 1.371 . S
C353 H342 0.970 . S
C353 H343 0.970 . S
C353 C349 1.532 . S
C353 C354 1.499 . S
C354 C353 1.499 . S
C354 C355 1.370 . S
C354 C359 1.415 . S
C355 H344 0.930 . S
C355 C354 1.370 . S
C355 C356 1.407 . S
C356 C355 1.407 . S
C356 C357 1.365 . S
C357 H345 0.930 . S
C357 C356 1.365 . S
C357 C358 1.393 . S
C358 C357 1.393 . S
C358 C359 1.387 . S
C359 H346 0.930 . S
C359 C354 1.415 . S
C359 C358 1.387 . S
H360 C368 0.930 . S
H361 C371 0.930 . S
H362 C373 0.930 . S
H363 C374 0.970 . S
H364 C374 0.970 . S
H365 C376 0.930 . S
H366 C378 0.930 . S
H367 C380 0.930 . S
C368 H360 0.930 . S
C368 C369 1.382 . S
C368 C370 1.426 . S
C369 C368 1.382 . S
C369 C373 1.389 . S
C370 C368 1.426 . S
C370 C371 1.375 . S
C370 C374 1.532 . S
C371 H361 0.930 . S
C371 C370 1.375 . S
C371 C372 1.416 . S
C372 C371 1.416 . S
C372 C373 1.371 . S
C373 H362 0.930 . S
C373 C369 1.389 . S
C373 C372 1.371 . S
C374 H363 0.970 . S
C374 H364 0.970 . S
C374 C370 1.532 . S
C374 C375 1.499 . S
C375 C374 1.499 . S
C375 C376 1.370 . S
C375 C380 1.415 . S
C376 H365 0.930 . S
C376 C375 1.370 . S
C376 C377 1.407 . S
C377 C376 1.407 . S
C377 C378 1.365 . S
C378 H366 0.930 . S
C378 C377 1.365 . S
C378 C379 1.393 . S
C379 C378 1.393 . S
C379 C380 1.387 . S
C380 H367 0.930 . S
C380 C375 1.415 . S
C380 C379 1.387 . S
H381 C389 0.930 . S
H382 C392 0.930 . S
H383 C394 0.930 . S
H384 C395 0.970 . S
H385 C395 0.970 . S
H386 C397 0.930 . S
H387 C399 0.930 . S
H388 C401 0.930 . S
C389 H381 0.930 . S
C389 C390 1.382 . S
C389 C391 1.426 . S
C390 C389 1.382 . S
C390 C394 1.389 . S
C391 C389 1.426 . S
C391 C392 1.375 . S
C391 C395 1.532 . S
C392 H382 0.930 . S
C392 C391 1.375 . S
C392 C393 1.416 . S
C393 C392 1.416 . S
C393 C394 1.371 . S
C394 H383 0.930 . S
C394 C390 1.389 . S
C394 C393 1.371 . S
C395 H384 0.970 . S
C395 H385 0.970 . S
C395 C391 1.532 . S
C395 C396 1.499 . S
C396 C395 1.499 . S
C396 C397 1.370 . S
C396 C401 1.415 . S
C397 H386 0.930 . S
C397 C396 1.370 . S
C397 C398 1.407 . S
C398 C397 1.407 . S
C398 C399 1.365 . S
C399 H387 0.930 . S
C399 C398 1.365 . S
C399 C400 1.393 . S
C400 C399 1.393 . S
C400 C401 1.387 . S
C401 H388 0.930 . S
C401 C396 1.415 . S
C401 C400 1.387 . S
H402 C410 0.930 . S
H403 C413 0.930 . S
H404 C415 0.930 . S
H405 C416 0.970 . S
H406 C416 0.970 . S
H407 C418 0.930 . S
H408 C420 0.930 . S
H409 C422 0.930 . S
C410 H402 0.930 . S
C410 C411 1.382 . S
C410 C412 1.426 . S
C411 C410 1.382 . S
C411 C415 1.389 . S
C412 C410 1.426 . S
C412 C413 1.375 . S
C412 C416 1.532 . S
C413 H403 0.930 . S
C413 C412 1.375 . S
C413 C414 1.416 . S
C414 C413 1.416 . S
C414 C415 1.371 . S
C415 H404 0.930 . S
C415 C411 1.389 . S
C415 C414 1.371 . S
C416 H405 0.970 . S
C416 H406 0.970 . S
C416 C412 1.532 . S
C416 C417 1.499 . S
C417 C416 1.499 . S
C417 C418 1.370 . S
C417 C422 1.415 . S
C418 H407 0.930 . S
C418 C417 1.370 . S
C418 C419 1.407 . S
C419 C418 1.407 . S
C419 C420 1.365 . S
C420 H408 0.930 . S
C420 C419 1.365 . S
C420 C421 1.393 . S
C421 C420 1.393 . S
C421 C422 1.387 . S
C422 H409 0.930 . S
C422 C417 1.415 . S
C422 C421 1.387 . S
H423 C431 0.930 . S
H424 C434 0.930 . S
H425 C436 0.930 . S
H426 C437 0.970 . S
H427 C437 0.970 . S
H428 C439 0.930 . S
H429 C441 0.930 . S
H430 C443 0.930 . S
C431 H423 0.930 . S
C431 C432 1.382 . S
C431 C433 1.426 . S
C432 C431 1.382 . S
C432 C436 1.389 1_455 S
C433 C431 1.426 . S
C433 C434 1.375 . S
C433 C437 1.532 . S
C434 H424 0.930 . S
C434 C433 1.375 . S
C434 C435 1.416 . S
C435 C434 1.416 . S
C435 C436 1.371 1_455 S
C436 H425 0.930 . S
C436 C432 1.389 1_655 S
C436 C435 1.371 1_655 S
C437 H426 0.970 . S
C437 H427 0.970 . S
C437 C433 1.532 . S
C437 C438 1.499 . S
C438 C437 1.499 . S
C438 C439 1.370 . S
C438 C443 1.415 . S
C439 H428 0.930 . S
C439 C438 1.370 . S
C439 C440 1.407 . S
C440 C439 1.407 . S
C440 C441 1.365 1_455 S
C441 H429 0.930 . S
C441 C440 1.365 1_655 S
C441 C442 1.393 1_655 S
C442 C441 1.393 1_455 S
C442 C443 1.387 . S
C443 H430 0.930 . S
C443 C438 1.415 . S
C443 C442 1.387 . S
H444 C452 0.930 . S
H445 C455 0.930 . S
H446 C457 0.930 . S
H447 C458 0.970 . S
H448 C458 0.970 . S
H449 C460 0.930 . S
H450 C462 0.930 . S
H451 C464 0.930 . S
C452 H444 0.930 . S
C452 C453 1.382 . S
C452 C454 1.426 . S
C453 C452 1.382 . S
C453 C457 1.389 . S
C454 C452 1.426 . S
C454 C455 1.375 . S
C454 C458 1.532 . S
C455 H445 0.930 . S
C455 C454 1.375 . S
C455 C456 1.416 . S
C456 C455 1.416 . S
C456 C457 1.371 . S
C457 H446 0.930 . S
C457 C453 1.389 . S
C457 C456 1.371 . S
C458 H447 0.970 . S
C458 H448 0.970 . S
C458 C454 1.532 . S
C458 C459 1.499 . S
C459 C458 1.499 . S
C459 C460 1.370 . S
C459 C464 1.415 . S
C460 H449 0.930 . S
C460 C459 1.370 . S
C460 C461 1.407 . S
C461 C460 1.407 . S
C461 C462 1.365 . S
C462 H450 0.930 . S
C462 C461 1.365 . S
C462 C463 1.393 . S
C463 C462 1.393 . S
C463 C464 1.387 . S
C464 H451 0.930 . S
C464 C459 1.415 . S
C464 C463 1.387 . S
H465 C473 0.930 . S
H466 C476 0.930 . S
H467 C478 0.930 . S
H468 C479 0.970 . S
H469 C479 0.970 . S
H470 C481 0.930 . S
H471 C483 0.930 . S
H472 C485 0.930 . S
C473 H465 0.930 . S
C473 C474 1.382 . S
C473 C475 1.426 . S
C474 C473 1.382 . S
C474 C478 1.389 1_565 S
C475 C473 1.426 . S
C475 C476 1.375 . S
C475 C479 1.532 . S
C476 H466 0.930 . S
C476 C475 1.375 . S
C476 C477 1.416 . S
C477 C476 1.416 . S
C477 C478 1.371 1_565 S
C478 H467 0.930 . S
C478 C474 1.389 1_545 S
C478 C477 1.371 1_545 S
C479 H468 0.970 . S
C479 H469 0.970 . S
C479 C475 1.532 . S
C479 C480 1.499 . S
C480 C479 1.499 . S
C480 C481 1.370 . S
C480 C485 1.415 . S
C481 H470 0.930 . S
C481 C480 1.370 . S
C481 C482 1.406 . S
C482 C481 1.406 . S
C482 C483 1.365 1_565 S
C483 H471 0.930 . S
C483 C482 1.365 1_545 S
C483 C484 1.393 1_545 S
C484 C483 1.393 1_565 S
C484 C485 1.387 . S
C485 H472 0.930 . S
C485 C480 1.415 . S
C485 C484 1.387 . S
H486 C494 0.930 . S
H487 C497 0.930 . S
H488 C499 0.930 . S
H489 C500 0.970 . S
H490 C500 0.970 . S
H491 C502 0.930 . S
H492 C504 0.930 . S
H493 C506 0.930 . S
C494 H486 0.930 . S
C494 C495 1.382 . S
C494 C496 1.426 . S
C495 C494 1.382 . S
C495 C499 1.389 1_565 S
C496 C494 1.426 . S
C496 C497 1.375 . S
C496 C500 1.532 . S
C497 H487 0.930 . S
C497 C496 1.375 . S
C497 C498 1.467 . S
C498 C497 1.467 . S
C498 C499 1.354 1_565 S
C499 H488 0.930 . S
C499 C495 1.389 1_545 S
C499 C498 1.354 1_545 S
C500 H489 0.970 . S
C500 H490 0.970 . S
C500 C496 1.532 . S
C500 C501 1.499 . S
C501 C500 1.499 . S
C501 C502 1.370 . S
C501 C506 1.415 . S
C502 H491 0.930 . S
C502 C501 1.370 . S
C502 C503 1.407 . S
C503 C502 1.407 . S
C503 C504 1.365 1_565 S
C504 H492 0.930 . S
C504 C503 1.365 1_545 S
C504 C505 1.393 1_545 S
C505 C504 1.393 1_565 S
C505 C506 1.387 . S
C506 H493 0.930 . S
C506 C501 1.415 . S
C506 C505 1.387 . S
H507 C515 0.930 . S
H508 C518 0.930 . S
H509 C520 0.930 . S
H510 C521 0.970 . S
H511 C521 0.970 . S
H512 C523 0.930 . S
H513 C525 0.930 . S
H514 C527 0.930 . S
C515 H507 0.930 . S
C515 C516 1.382 . S
C515 C517 1.426 . S
C516 C515 1.382 . S
C516 C520 1.389 1_455 S
C517 C515 1.426 . S
C517 C518 1.375 . S
C517 C521 1.532 . S
C518 H508 0.930 . S
C518 C517 1.375 . S
C518 C519 1.416 . S
C519 C518 1.416 . S
C519 C520 1.371 1_455 S
C520 H509 0.930 . S
C520 C516 1.389 1_655 S
C520 C519 1.371 1_655 S
C521 H510 0.970 . S
C521 H511 0.970 . S
C521 C517 1.532 . S
C521 C522 1.499 . S
C522 C521 1.499 . S
C522 C523 1.370 . S
C522 C527 1.415 . S
C523 H512 0.930 . S
C523 C522 1.370 . S
C523 C524 1.407 . S
C524 C523 1.407 . S
C524 C525 1.365 1_455 S
C525 H513 0.930 . S
C525 C524 1.365 1_655 S
C525 C526 1.393 1_655 S
C526 C525 1.393 1_455 S
C526 C527 1.387 . S
C527 H514 0.930 . S
C527 C522 1.415 . S
C527 C526 1.387 . S
H528 C536 0.930 . S
H529 C539 0.930 . S
H530 C541 0.930 . S
H531 C542 0.970 . S
H532 C542 0.970 . S
H533 C544 0.930 . S
H534 C546 0.930 . S
H535 C548 0.930 . S
C536 H528 0.930 . S
C536 C537 1.382 . S
C536 C538 1.426 . S
C537 C536 1.382 . S
C537 C541 1.389 . S
C538 C536 1.426 . S
C538 C539 1.375 . S
C538 C542 1.532 . S
C539 H529 0.930 . S
C539 C538 1.375 . S
C539 C540 1.416 . S
C540 C539 1.416 . S
C540 C541 1.371 . S
C541 H530 0.930 . S
C541 C537 1.389 . S
C541 C540 1.371 . S
C542 H531 0.970 . S
C542 H532 0.970 . S
C542 C538 1.532 . S
C542 C543 1.499 . S
C543 C542 1.499 . S
C543 C544 1.370 . S
C543 C548 1.415 . S
C544 H533 0.930 . S
C544 C543 1.370 . S
C544 C545 1.407 . S
C545 C544 1.407 . S
C545 C546 1.365 . S
C546 H534 0.930 . S
C546 C545 1.365 . S
C546 C547 1.393 . S
C547 C546 1.393 . S
C547 C548 1.387 . S
C548 H535 0.930 . S
C548 C543 1.415 . S
C548 C547 1.387 . S
H549 C557 0.930 . S
H550 C560 0.930 . S
H551 C562 0.930 . S
H552 C563 0.970 . S
H553 C563 0.970 . S
H554 C565 0.930 . S
H555 C567 0.930 . S
H556 C569 0.930 . S
C557 H549 0.930 . S
C557 C558 1.382 . S
C557 C559 1.426 . S
C558 C557 1.382 . S
C558 C562 1.389 . S
C559 C557 1.426 . S
C559 C560 1.375 . S
C559 C563 1.532 . S
C560 H550 0.930 . S
C560 C559 1.375 . S
C560 C561 1.416 . S
C561 C560 1.416 . S
C561 C562 1.371 . S
C562 H551 0.930 . S
C562 C558 1.389 . S
C562 C561 1.371 . S
C563 H552 0.970 . S
C563 H553 0.970 . S
C563 C559 1.532 . S
C563 C564 1.499 . S
C564 C563 1.499 . S
C564 C565 1.370 . S
C564 C569 1.415 . S
C565 H554 0.930 . S
C565 C564 1.370 . S
C565 C566 1.407 . S
C566 C565 1.407 . S
C566 C567 1.365 . S
C567 H555 0.930 . S
C567 C566 1.365 . S
C567 C568 1.393 . S
C568 C567 1.393 . S
C568 C569 1.387 . S
C569 H556 0.930 . S
C569 C564 1.415 . S
C569 C568 1.387 . S
H570 C578 0.930 . S
H571 C581 0.930 . S
H572 C583 0.930 . S
H573 C584 0.970 . S
H574 C584 0.970 . S
H575 C586 0.930 . S
H576 C588 0.930 . S
H577 C590 0.930 . S
C578 H570 0.930 . S
C578 C579 1.382 . S
C578 C580 1.426 . S
C579 C578 1.382 . S
C579 C583 1.389 . S
C580 C578 1.426 . S
C580 C581 1.375 . S
C580 C584 1.532 . S
C581 H571 0.930 . S
C581 C580 1.375 . S
C581 C582 1.416 . S
C582 C581 1.416 . S
C582 C583 1.371 . S
C583 H572 0.930 . S
C583 C579 1.389 . S
C583 C582 1.371 . S
C584 H573 0.970 . S
C584 H574 0.970 . S
C584 C580 1.532 . S
C584 C585 1.499 . S
C585 C584 1.499 . S
C585 C586 1.370 . S
C585 C590 1.415 . S
C586 H575 0.930 . S
C586 C585 1.370 . S
C586 C587 1.407 . S
C587 C586 1.407 . S
C587 C588 1.365 . S
C588 H576 0.930 . S
C588 C587 1.365 . S
C588 C589 1.393 . S
C589 C588 1.393 . S
C589 C590 1.387 . S
C590 H577 0.930 . S
C590 C585 1.415 . S
C590 C589 1.387 . S
H591 C599 0.930 . S
H592 C602 0.930 . S
H593 C604 0.930 . S
H594 C605 0.970 . S
H595 C605 0.970 . S
H596 C607 0.930 . S
H597 C609 0.930 . S
H598 C611 0.930 . S
C599 H591 0.930 . S
C599 C600 1.382 . S
C599 C601 1.426 . S
C600 C599 1.382 . S
C600 C604 1.389 . S
C601 C599 1.426 . S
C601 C602 1.375 . S
C601 C605 1.532 . S
C602 H592 0.930 . S
C602 C601 1.375 . S
C602 C603 1.416 . S
C603 C602 1.416 . S
C603 C604 1.371 . S
C604 H593 0.930 . S
C604 C600 1.389 . S
C604 C603 1.371 . S
C605 H594 0.970 . S
C605 H595 0.970 . S
C605 C601 1.532 . S
C605 C606 1.499 . S
C606 C605 1.499 . S
C606 C607 1.370 . S
C606 C611 1.415 . S
C607 H596 0.930 . S
C607 C606 1.370 . S
C607 C608 1.407 . S
C608 C607 1.407 . S
C608 C609 1.365 . S
C609 H597 0.930 . S
C609 C608 1.365 . S
C609 C610 1.393 . S
C610 C609 1.393 . S
C610 C611 1.387 . S
C611 H598 0.930 . S
C611 C606 1.415 . S
C611 C610 1.387 . S
H612 C620 0.950 . S
H613 C625 0.950 . S
H614 C622 0.950 . S
H615 C624 0.950 . S
H616 C626 0.950 . S
H617 C628 0.950 . S
H618 C630 0.950 . S
H619 C631 0.950 . S
C620 H612 0.950 . S
C620 C621 1.386 . S
C620 C622 1.391 . S
C621 C620 1.386 . S
C621 C625 1.393 1_655 S
C622 H614 0.950 . S
C622 C620 1.391 . S
C622 C623 1.400 . S
C623 C622 1.400 . S
C623 C624 1.398 1_655 S
C623 C629 1.491 . S
C624 H615 0.950 . S
C624 C623 1.398 1_455 S
C624 C625 1.391 . S
C625 H613 0.950 . S
C625 C621 1.393 1_455 S
C625 C624 1.391 . S
C626 H616 0.950 . S
C626 C627 1.386 1_455 S
C626 C628 1.391 . S
C627 C626 1.386 1_655 S
C627 C631 1.393 . S
C628 H617 0.950 . S
C628 C626 1.391 . S
C628 C629 1.400 1_455 S
C629 C623 1.491 . S
C629 C628 1.400 1_655 S
C629 C630 1.398 . S
C630 H618 0.950 . S
C630 C629 1.398 . S
C630 C631 1.391 . S
C631 H619 0.950 . S
C631 C627 1.393 . S
C631 C630 1.391 . S
H632 C640 0.950 . S
H633 C645 0.950 . S
H634 C642 0.950 . S
H635 C644 0.950 . S
H636 C646 0.950 . S
H637 C648 0.950 . S
H638 C650 0.950 . S
H639 C651 0.950 . S
C640 H632 0.950 . S
C640 C641 1.386 . S
C640 C642 1.391 . S
C641 C640 1.386 . S
C641 C645 1.393 . S
C642 H634 0.950 . S
C642 C640 1.391 . S
C642 C643 1.400 . S
C643 C642 1.400 . S
C643 C644 1.398 . S
C643 C649 1.491 . S
C644 H635 0.950 . S
C644 C643 1.398 . S
C644 C645 1.391 . S
C645 H633 0.950 . S
C645 C641 1.393 . S
C645 C644 1.391 . S
C646 H636 0.950 . S
C646 C647 1.386 . S
C646 C648 1.391 . S
C647 C646 1.386 . S
C647 C651 1.393 . S
C648 H637 0.950 . S
C648 C646 1.391 . S
C648 C649 1.400 . S
C649 C643 1.491 . S
C649 C648 1.400 . S
C649 C650 1.398 . S
C650 H638 0.950 . S
C650 C649 1.398 . S
C650 C651 1.391 . S
C651 H639 0.950 . S
C651 C647 1.393 . S
C651 C650 1.391 . S
H652 C660 0.950 1_565 S
H653 C665 0.950 . S
H654 C662 0.974 . S
H655 C664 0.950 . S
H656 C666 0.950 . S
H657 C668 0.950 . S
H658 C670 0.950 . S
H659 C671 0.950 . S
C660 H652 0.950 1_545 S
C660 C661 1.402 . S
C660 C662 1.353 1_545 S
C661 C660 1.402 . S
C661 C665 1.393 . S
C662 H654 0.974 . S
C662 C660 1.353 1_565 S
C662 C663 1.402 1_565 S
C663 C662 1.402 1_545 S
C663 C664 1.398 . S
C663 C669 1.491 . S
C664 H655 0.950 . S
C664 C663 1.398 . S
C664 C665 1.391 . S
C665 H653 0.950 . S
C665 C661 1.393 . S
C665 C664 1.391 . S
C666 H656 0.950 . S
C666 C667 1.386 . S
C666 C668 1.391 . S
C667 C666 1.386 . S
C667 C671 1.393 1_545 S
C668 H657 0.950 . S
C668 C666 1.391 . S
C668 C669 1.400 . S
C669 C663 1.491 . S
C669 C668 1.400 . S
C669 C670 1.398 1_545 S
C670 H658 0.950 . S
C670 C669 1.398 1_565 S
C670 C671 1.391 . S
C671 H659 0.950 . S
C671 C667 1.393 1_565 S
C671 C670 1.391 . S
H672 C680 0.950 . S
H673 C685 0.950 . S
H674 C682 0.950 . S
H675 C684 0.950 . S
H676 C686 0.950 . S
H677 C688 0.950 . S
H678 C690 0.950 . S
H679 C691 0.950 . S
C680 H672 0.950 . S
C680 C681 1.386 . S
C680 C682 1.391 . S
C681 C680 1.386 . S
C681 C685 1.393 1_565 S
C682 H674 0.950 . S
C682 C680 1.391 . S
C682 C683 1.400 . S
C683 C682 1.400 . S
C683 C684 1.398 1_565 S
C683 C689 1.491 . S
C684 H675 0.950 . S
C684 C683 1.398 1_545 S
C684 C685 1.391 . S
C685 H673 0.950 . S
C685 C681 1.393 1_545 S
C685 C684 1.391 . S
C686 H676 0.950 . S
C686 C687 1.386 1_545 S
C686 C688 1.391 . S
C687 C686 1.386 1_565 S
C687 C691 1.393 . S
C688 H677 0.950 . S
C688 C686 1.391 . S
C688 C689 1.400 1_545 S
C689 C683 1.491 . S
C689 C688 1.400 1_565 S
C689 C690 1.398 . S
C690 H678 0.950 . S
C690 C689 1.398 . S
C690 C691 1.391 . S
C691 H679 0.950 . S
C691 C687 1.393 . S
C691 C690 1.391 . S
H692 C700 0.950 . S
H693 C705 0.950 . S
H694 C702 0.950 . S
H695 C704 0.950 . S
H696 C706 0.950 . S
H697 C708 0.950 . S
H698 C710 0.950 . S
H699 C711 0.950 . S
C700 H692 0.950 . S
C700 C701 1.386 1_655 S
C700 C702 1.391 . S
C701 C700 1.386 1_455 S
C701 C705 1.393 . S
C702 H694 0.950 . S
C702 C700 1.391 . S
C702 C703 1.400 1_655 S
C703 C702 1.400 1_455 S
C703 C704 1.398 . S
C703 C709 1.491 . S
C704 H695 0.950 . S
C704 C703 1.398 . S
C704 C705 1.391 . S
C705 H693 0.950 . S
C705 C701 1.393 . S
C705 C704 1.391 . S
C706 H696 0.950 . S
C706 C707 1.386 . S
C706 C708 1.391 . S
C707 C706 1.386 . S
C707 C711 1.393 1_455 S
C708 H697 0.950 . S
C708 C706 1.391 . S
C708 C709 1.400 . S
C709 C703 1.491 . S
C709 C708 1.400 . S
C709 C710 1.398 1_455 S
C710 H698 0.950 . S
C710 C709 1.398 1_655 S
C710 C711 1.391 . S
C711 H699 0.950 . S
C711 C707 1.393 1_655 S
C711 C710 1.391 . S
H712 C720 0.950 . S
H713 C725 0.950 . S
H714 C722 0.950 . S
H715 C724 0.950 . S
H716 C726 0.950 . S
H717 C728 0.950 . S
H718 C730 0.950 . S
H719 C731 0.950 . S
C720 H712 0.950 . S
C720 C721 1.386 . S
C720 C722 1.391 . S
C721 C720 1.386 . S
C721 C725 1.393 . S
C722 H714 0.950 . S
C722 C720 1.391 . S
C722 C723 1.400 . S
C723 C722 1.400 . S
C723 C724 1.398 . S
C723 C729 1.491 . S
C724 H715 0.950 . S
C724 C723 1.398 . S
C724 C725 1.391 . S
C725 H713 0.950 . S
C725 C721 1.393 . S
C725 C724 1.391 . S
C726 H716 0.950 . S
C726 C727 1.386 . S
C726 C728 1.391 . S
C727 C726 1.386 . S
C727 C731 1.393 . S
C728 H717 0.950 . S
C728 C726 1.391 . S
C728 C729 1.400 . S
C729 C723 1.491 . S
C729 C728 1.400 . S
C729 C730 1.398 . S
C730 H718 0.950 . S
C730 C729 1.398 . S
C730 C731 1.391 . S
C731 H719 0.950 . S
C731 C727 1.393 . S
C731 C730 1.391 . S
H732 C740 0.950 . S
H733 C745 0.950 . S
H734 C742 0.950 . S
H735 C744 0.950 . S
H736 C746 0.950 . S
H737 C748 0.950 . S
H738 C750 0.950 . S
H739 C751 0.950 . S
C740 H732 0.950 . S
C740 C741 1.386 . S
C740 C742 1.391 . S
C741 C740 1.386 . S
C741 C745 1.393 1_455 S
C742 H734 0.950 . S
C742 C740 1.391 . S
C742 C743 1.400 . S
C743 C742 1.400 . S
C743 C744 1.398 1_455 S
C743 C749 1.491 . S
C744 H735 0.950 . S
C744 C743 1.398 1_655 S
C744 C745 1.391 . S
C745 H733 0.950 . S
C745 C741 1.393 1_655 S
C745 C744 1.391 . S
C746 H736 0.950 . S
C746 C747 1.386 1_655 S
C746 C748 1.391 . S
C747 C746 1.386 1_455 S
C747 C751 1.393 . S
C748 H737 0.950 . S
C748 C746 1.391 . S
C748 C749 1.400 1_655 S
C749 C743 1.491 . S
C749 C748 1.400 1_455 S
C749 C750 1.398 . S
C750 H738 0.950 . S
C750 C749 1.398 . S
C750 C751 1.391 . S
C751 H739 0.950 . S
C751 C747 1.393 . S
C751 C750 1.391 . S
H752 C760 0.950 . S
H753 C765 0.950 . S
H754 C762 0.950 . S
H755 C764 0.950 . S
H756 C766 0.950 . S
H757 C768 0.950 . S
H758 C770 0.950 . S
H759 C771 0.950 . S
C760 H752 0.950 . S
C760 C761 1.386 . S
C760 C762 1.391 . S
C761 C760 1.386 . S
C761 C765 1.393 . S
C762 H754 0.950 . S
C762 C760 1.391 . S
C762 C763 1.400 . S
C763 C762 1.400 . S
C763 C764 1.398 . S
C763 C769 1.491 . S
C764 H755 0.950 . S
C764 C763 1.398 . S
C764 C765 1.391 . S
C765 H753 0.950 . S
C765 C761 1.393 . S
C765 C764 1.391 . S
C766 H756 0.950 . S
C766 C767 1.386 . S
C766 C768 1.391 . S
C767 C766 1.386 . S
C767 C771 1.393 . S
C768 H757 0.950 . S
C768 C766 1.391 . S
C768 C769 1.400 . S
C769 C763 1.491 . S
C769 C768 1.400 . S
C769 C770 1.398 . S
C770 H758 0.950 . S
C770 C769 1.398 . S
C770 C771 1.391 . S
C771 H759 0.950 . S
C771 C767 1.393 . S
C771 C770 1.391 . S
H772 C780 0.950 . S
H773 C785 0.950 . S
H774 C782 0.950 . S
H775 C784 0.950 . S
H776 C786 0.950 . S
H777 C788 0.950 . S
H778 C790 0.950 . S
H779 C791 0.950 . S
C780 H772 0.950 . S
C780 C781 1.386 . S
C780 C782 1.391 . S
C781 C780 1.386 . S
C781 C785 1.393 1_565 S
C782 H774 0.950 . S
C782 C780 1.391 . S
C782 C783 1.400 . S
C783 C782 1.400 . S
C783 C784 1.398 1_565 S
C783 C789 1.491 . S
C784 H775 0.950 . S
C784 C783 1.398 1_545 S
C784 C785 1.391 . S
C785 H773 0.950 . S
C785 C781 1.393 1_545 S
C785 C784 1.391 . S
C786 H776 0.950 . S
C786 C787 1.386 1_545 S
C786 C788 1.391 . S
C787 C786 1.386 1_565 S
C787 C791 1.393 . S
C788 H777 0.950 . S
C788 C786 1.391 . S
C788 C789 1.400 1_545 S
C789 C783 1.491 . S
C789 C788 1.400 1_565 S
C789 C790 1.398 . S
C790 H778 0.950 . S
C790 C789 1.398 . S
C790 C791 1.391 . S
C791 H779 0.950 . S
C791 C787 1.393 . S
C791 C790 1.391 . S
H792 C800 0.950 . S
H793 C805 0.975 . S
H794 C802 0.950 . S
H795 C804 0.950 1_565 S
H796 C806 0.969 . S
H797 C808 0.946 1_565 S
H798 C810 0.950 . S
H799 C811 0.950 . S
C800 H792 0.950 . S
C800 C801 1.386 . S
C800 C802 1.391 . S
C801 C800 1.386 . S
C801 C805 1.393 . S
C802 H794 0.950 . S
C802 C800 1.391 . S
C802 C803 1.400 . S
C803 C802 1.400 . S
C803 C804 1.398 . S
C803 C809 1.491 . S
C804 H795 0.950 1_545 S
C804 C803 1.398 . S
C804 C805 1.391 . S
C805 H793 0.975 . S
C805 C801 1.393 . S
C805 C804 1.391 . S
C806 H796 0.969 . S
C806 C807 1.349 1_565 S
C806 C808 1.415 1_565 S
C807 C806 1.349 1_545 S
C807 C811 1.393 . S
C808 H797 0.946 1_545 S
C808 C806 1.415 1_545 S
C808 C809 1.402 . S
C809 C803 1.491 . S
C809 C808 1.402 . S
C809 C810 1.398 . S
C810 H798 0.950 . S
C810 C809 1.398 . S
C810 C811 1.391 . S
C811 H799 0.950 . S
C811 C807 1.393 . S
C811 C810 1.391 . S
H812 C820 0.950 . S
H813 C825 0.950 . S
H814 C822 0.950 . S
H815 C824 0.950 . S
H816 C826 0.950 . S
H817 C828 0.950 . S
H818 C830 0.950 . S
H819 C831 0.984 . S
C820 H812 0.950 . S
C820 C821 1.386 . S
C820 C822 1.391 . S
C821 C820 1.386 . S
C821 C825 1.393 . S
C822 H814 0.950 . S
C822 C820 1.391 . S
C822 C823 1.400 . S
C823 C822 1.400 . S
C823 C824 1.398 . S
C823 C829 1.491 . S
C824 H815 0.950 . S
C824 C823 1.398 . S
C824 C825 1.391 . S
C825 H813 0.950 . S
C825 C821 1.393 . S
C825 C824 1.391 . S
C826 H816 0.950 . S
C826 C827 1.386 . S
C826 C828 1.391 . S
C827 C826 1.386 . S
C827 C831 1.393 . S
C828 H817 0.950 . S
C828 C826 1.391 . S
C828 C829 1.400 . S
C829 C823 1.491 . S
C829 C828 1.400 . S
C829 C830 1.398 . S
C830 H818 0.950 . S
C830 C829 1.398 . S
C830 C831 1.391 . S
C831 H819 0.984 . S
C831 C827 1.393 . S
C831 C830 1.391 . S
H832 C840 0.950 . S
H833 C845 0.950 . S
H834 C842 0.950 . S
H835 C844 0.950 . S
H836 C846 0.950 . S
H837 C848 0.950 . S
H838 C850 0.950 . S
H839 C851 0.950 . S
C840 H832 0.950 . S
C840 C841 1.386 . S
C840 C842 1.391 . S
C841 C840 1.386 . S
C841 C845 1.393 . S
C842 H834 0.950 . S
C842 C840 1.391 . S
C842 C843 1.400 . S
C843 C842 1.400 . S
C843 C844 1.398 . S
C843 C849 1.491 . S
C844 H835 0.950 . S
C844 C843 1.398 . S
C844 C845 1.391 . S
C845 H833 0.950 . S
C845 C841 1.393 . S
C845 C844 1.391 . S
C846 H836 0.950 . S
C846 C847 1.386 . S
C846 C848 1.391 . S
C847 C846 1.386 . S
C847 C851 1.393 . S
C848 H837 0.950 . S
C848 C846 1.391 . S
C848 C849 1.400 . S
C849 C843 1.491 . S
C849 C848 1.400 . S
C849 C850 1.398 . S
C850 H838 0.950 . S
C850 C849 1.398 . S
C850 C851 1.391 . S
C851 H839 0.950 . S
C851 C847 1.393 . S
C851 C850 1.391 . S
H852 C860 0.950 . S
H853 C865 0.950 . S
H854 C862 0.950 . S
H855 C864 0.950 . S
H856 C866 0.950 . S
H857 C868 0.950 . S
H858 C870 0.950 . S
H859 C871 0.950 . S
C860 H852 0.950 . S
C860 C861 1.386 . S
C860 C862 1.391 . S
C861 C860 1.386 . S
C861 C865 1.393 . S
C862 H854 0.950 . S
C862 C860 1.391 . S
C862 C863 1.400 . S
C863 C862 1.400 . S
C863 C864 1.398 . S
C863 C869 1.491 . S
C864 H855 0.950 . S
C864 C863 1.398 . S
C864 C865 1.391 . S
C865 H853 0.950 . S
C865 C861 1.393 . S
C865 C864 1.391 . S
C866 H856 0.950 . S
C866 C867 1.386 . S
C866 C868 1.391 . S
C867 C866 1.386 . S
C867 C871 1.393 . S
C868 H857 0.950 . S
C868 C866 1.391 . S
C868 C869 1.400 . S
C869 C863 1.491 . S
C869 C868 1.400 . S
C869 C870 1.398 . S
C870 H858 0.950 . S
C870 C869 1.398 . S
C870 C871 1.391 . S
C871 H859 0.950 . S
C871 C867 1.393 . S
C871 C870 1.391 . S
H872 C880 0.950 . S
H873 C885 0.950 . S
H874 C882 0.950 . S
H875 C884 0.950 . S
H876 C886 0.950 . S
H877 C888 0.950 . S
H878 C890 0.950 . S
H879 C891 0.950 . S
C880 H872 0.950 . S
C880 C881 1.386 . S
C880 C882 1.391 . S
C881 C880 1.386 . S
C881 C885 1.393 . S
C882 H874 0.950 . S
C882 C880 1.391 . S
C882 C883 1.400 . S
C883 C882 1.400 . S
C883 C884 1.398 . S
C883 C889 1.491 . S
C884 H875 0.950 . S
C884 C883 1.398 . S
C884 C885 1.391 . S
C885 H873 0.950 . S
C885 C881 1.393 . S
C885 C884 1.391 . S
C886 H876 0.950 . S
C886 C887 1.386 . S
C886 C888 1.391 . S
C887 C886 1.386 . S
C887 C891 1.393 . S
C888 H877 0.950 . S
C888 C886 1.391 . S
C888 C889 1.400 . S
C889 C883 1.491 . S
C889 C888 1.400 . S
C889 C890 1.398 . S
C890 H878 0.950 . S
C890 C889 1.398 . S
C890 C891 1.391 . S
C891 H879 0.950 . S
C891 C887 1.393 . S
C891 C890 1.391 . S
H892 C900 0.950 . S
H893 C905 0.950 . S
H894 C902 0.950 . S
H895 C904 0.950 . S
H896 C906 0.950 . S
H897 C908 0.950 . S
H898 C910 0.950 . S
H899 C911 0.950 . S
C900 H892 0.950 . S
C900 C901 1.386 . S
C900 C902 1.391 . S
C901 C900 1.386 . S
C901 C905 1.393 . S
C902 H894 0.950 . S
C902 C900 1.391 . S
C902 C903 1.400 . S
C903 C902 1.400 . S
C903 C904 1.398 . S
C903 C909 1.491 . S
C904 H895 0.950 . S
C904 C903 1.398 . S
C904 C905 1.391 . S
C905 H893 0.950 . S
C905 C901 1.393 . S
C905 C904 1.391 . S
C906 H896 0.950 . S
C906 C907 1.386 . S
C906 C908 1.391 . S
C907 C906 1.386 . S
C907 C911 1.393 . S
C908 H897 0.950 . S
C908 C906 1.391 . S
C908 C909 1.400 . S
C909 C903 1.491 . S
C909 C908 1.400 . S
C909 C910 1.398 . S
C910 H898 0.950 . S
C910 C909 1.398 . S
C910 C911 1.391 . S
C911 H899 0.950 . S
C911 C907 1.393 . S
C911 C910 1.391 . S
H912 C920 0.950 . S
H913 C925 0.950 . S
H914 C922 0.950 . S
H915 C924 0.950 . S
H916 C926 0.950 . S
H917 C928 0.950 . S
H918 C930 0.950 . S
H919 C931 0.950 . S
C920 H912 0.950 . S
C920 C921 1.386 . S
C920 C922 1.391 . S
C921 C920 1.386 . S
C921 C925 1.393 . S
C922 H914 0.950 . S
C922 C920 1.391 . S
C922 C923 1.400 . S
C923 C922 1.400 . S
C923 C924 1.398 . S
C923 C929 1.491 . S
C924 H915 0.950 . S
C924 C923 1.398 . S
C924 C925 1.391 . S
C925 H913 0.950 . S
C925 C921 1.393 . S
C925 C924 1.391 . S
C926 H916 0.950 . S
C926 C927 1.386 . S
C926 C928 1.391 . S
C927 C926 1.386 . S
C927 C931 1.393 . S
C928 H917 0.950 . S
C928 C926 1.391 . S
C928 C929 1.400 . S
C929 C923 1.491 . S
C929 C928 1.400 . S
C929 C930 1.398 . S
C930 H918 0.950 . S
C930 C929 1.398 . S
C930 C931 1.391 . S
C931 H919 0.950 . S
C931 C927 1.393 . S
C931 C930 1.391 . S
H932 C940 0.950 . S
H933 C945 0.950 . S
H934 C942 0.950 . S
H935 C944 0.950 . S
H936 C946 0.950 . S
H937 C948 0.950 . S
H938 C950 0.950 . S
H939 C951 0.950 . S
C940 H932 0.950 . S
C940 C941 1.386 . S
C940 C942 1.391 . S
C941 C940 1.386 . S
C941 C945 1.393 . S
C942 H934 0.950 . S
C942 C940 1.391 . S
C942 C943 1.400 . S
C943 C942 1.400 . S
C943 C944 1.398 . S
C943 C949 1.491 . S
C944 H935 0.950 . S
C944 C943 1.398 . S
C944 C945 1.391 . S
C945 H933 0.950 . S
C945 C941 1.393 . S
C945 C944 1.391 . S
C946 H936 0.950 . S
C946 C947 1.386 . S
C946 C948 1.391 . S
C947 C946 1.386 . S
C947 C951 1.393 . S
C948 H937 0.950 . S
C948 C946 1.391 . S
C948 C949 1.400 . S
C949 C943 1.491 . S
C949 C948 1.400 . S
C949 C950 1.398 . S
C950 H938 0.950 . S
C950 C949 1.398 . S
C950 C951 1.391 . S
C951 H939 0.950 . S
C951 C947 1.393 . S
C951 C950 1.391 . S
H952 C960 0.950 . S
H953 C965 0.950 . S
H954 C962 0.950 . S
H955 C964 0.950 . S
H956 C966 0.950 . S
H957 C968 0.950 . S
H958 C970 0.950 . S
H959 C971 0.950 . S
C960 H952 0.950 . S
C960 C961 1.386 . S
C960 C962 1.391 . S
C961 C960 1.386 . S
C961 C965 1.393 . S
C962 H954 0.950 . S
C962 C960 1.391 . S
C962 C963 1.400 . S
C963 C962 1.400 . S
C963 C964 1.398 . S
C963 C969 1.491 . S
C964 H955 0.950 . S
C964 C963 1.398 . S
C964 C965 1.391 . S
C965 H953 0.950 . S
C965 C961 1.393 . S
C965 C964 1.391 . S
C966 H956 0.950 . S
C966 C967 1.386 . S
C966 C968 1.391 . S
C967 C966 1.386 . S
C967 C971 1.393 . S
C968 H957 0.950 . S
C968 C966 1.391 . S
C968 C969 1.400 . S
C969 C963 1.491 . S
C969 C968 1.400 . S
C969 C970 1.398 . S
C970 H958 0.950 . S
C970 C969 1.398 . S
C970 C971 1.391 . S
C971 H959 0.950 . S
C971 C967 1.393 . S
C971 C970 1.391 . S
H972 C980 0.950 . S
H973 C985 0.950 . S
H974 C982 0.950 . S
H975 C984 0.950 . S
H976 C986 0.950 . S
H977 C988 0.950 . S
H978 C990 0.950 . S
H979 C991 0.950 . S
C980 H972 0.950 . S
C980 C981 1.386 . S
C980 C982 1.391 . S
C981 C980 1.386 . S
C981 C985 1.393 . S
C982 H974 0.950 . S
C982 C980 1.391 . S
C982 C983 1.400 . S
C983 C982 1.400 . S
C983 C984 1.398 . S
C983 C989 1.491 . S
C984 H975 0.950 . S
C984 C983 1.398 . S
C984 C985 1.391 . S
C985 H973 0.950 . S
C985 C981 1.393 . S
C985 C984 1.391 . S
C986 H976 0.950 . S
C986 C987 1.386 . S
C986 C988 1.391 . S
C987 C986 1.386 . S
C987 C991 1.393 . S
C988 H977 0.950 . S
C988 C986 1.391 . S
C988 C989 1.400 . S
C989 C983 1.491 . S
C989 C988 1.400 . S
C989 C990 1.398 . S
C990 H978 0.950 . S
C990 C989 1.398 . S
C990 C991 1.391 . S
C991 H979 0.950 . S
C991 C987 1.393 . S
C991 C990 1.391 . S
H992 C1000 0.950 . S
H993 C1005 0.950 . S
H994 C1002 0.950 . S
H995 C1004 0.950 . S
H996 C1006 0.950 . S
H997 C1008 0.950 . S
H998 C1010 0.950 . S
H999 C1011 0.950 . S
C1000 H992 0.950 . S
C1000 C1001 1.386 . S
C1000 C1002 1.391 . S
C1001 C1000 1.386 . S
C1001 C1005 1.393 . S
C1002 H994 0.950 . S
C1002 C1000 1.391 . S
C1002 C1003 1.400 . S
C1003 C1002 1.400 . S
C1003 C1004 1.398 . S
C1003 C1009 1.491 . S
C1004 H995 0.950 . S
C1004 C1003 1.398 . S
C1004 C1005 1.391 . S
C1005 H993 0.950 . S
C1005 C1001 1.393 . S
C1005 C1004 1.391 . S
C1006 H996 0.950 . S
C1006 C1007 1.386 . S
C1006 C1008 1.391 . S
C1007 C1006 1.386 . S
C1007 C1011 1.393 . S
C1008 H997 0.950 . S
C1008 C1006 1.391 . S
C1008 C1009 1.400 . S
C1009 C1003 1.491 . S
C1009 C1008 1.400 . S
C1009 C1010 1.398 . S
C1010 H998 0.950 . S
C1010 C1009 1.398 . S
C1010 C1011 1.391 . S
C1011 H999 0.950 . S
C1011 C1007 1.393 . S
C1011 C1010 1.391 . S
H1012 C1020 0.950 . S
H1013 C1025 0.950 . S
H1014 C1022 0.950 . S
H1015 C1024 0.950 . S
H1016 C1026 0.950 . S
H1017 C1028 0.950 . S
H1018 C1030 0.950 . S
H1019 C1031 0.950 . S
C1020 H1012 0.950 . S
C1020 C1021 1.386 . S
C1020 C1022 1.391 . S
C1021 C1020 1.386 . S
C1021 C1025 1.393 . S
C1022 H1014 0.950 . S
C1022 C1020 1.391 . S
C1022 C1023 1.400 . S
C1023 C1022 1.400 . S
C1023 C1024 1.398 . S
C1023 C1029 1.491 . S
C1024 H1015 0.950 . S
C1024 C1023 1.398 . S
C1024 C1025 1.391 . S
C1025 H1013 0.950 . S
C1025 C1021 1.393 . S
C1025 C1024 1.391 . S
C1026 H1016 0.950 . S
C1026 C1027 1.386 . S
C1026 C1028 1.391 . S
C1027 C1026 1.386 . S
C1027 C1031 1.393 . S
C1028 H1017 0.950 . S
C1028 C1026 1.391 . S
C1028 C1029 1.400 . S
C1029 C1023 1.491 . S
C1029 C1028 1.400 . S
C1029 C1030 1.398 . S
C1030 H1018 0.950 . S
C1030 C1029 1.398 . S
C1030 C1031 1.391 . S
C1031 H1019 0.950 . S
C1031 C1027 1.393 . S
C1031 C1030 1.391 . S
H1032 C1040 0.950 . S
H1033 C1045 0.950 . S
H1034 C1042 0.950 . S
H1035 C1044 0.950 . S
H1036 C1046 0.950 . S
H1037 C1048 0.950 . S
H1038 C1050 0.950 . S
H1039 C1051 0.950 . S
C1040 H1032 0.950 . S
C1040 C1041 1.386 . S
C1040 C1042 1.391 . S
C1041 C1040 1.386 . S
C1041 C1045 1.393 . S
C1042 H1034 0.950 . S
C1042 C1040 1.391 . S
C1042 C1043 1.400 . S
C1043 C1042 1.400 . S
C1043 C1044 1.398 . S
C1043 C1049 1.491 . S
C1044 H1035 0.950 . S
C1044 C1043 1.398 . S
C1044 C1045 1.391 . S
C1045 H1033 0.950 . S
C1045 C1041 1.393 . S
C1045 C1044 1.391 . S
C1046 H1036 0.950 . S
C1046 C1047 1.386 . S
C1046 C1048 1.391 . S
C1047 C1046 1.386 . S
C1047 C1051 1.393 . S
C1048 H1037 0.950 . S
C1048 C1046 1.391 . S
C1048 C1049 1.400 . S
C1049 C1043 1.491 . S
C1049 C1048 1.400 . S
C1049 C1050 1.398 . S
C1050 H1038 0.950 . S
C1050 C1049 1.398 . S
C1050 C1051 1.391 . S
C1051 H1039 0.950 . S
C1051 C1047 1.393 . S
C1051 C1050 1.391 . S
H1052 C1060 0.950 . S
H1053 C1065 0.950 . S
H1054 C1062 0.950 . S
H1055 C1064 0.950 . S
H1056 C1066 0.950 . S
H1057 C1068 0.950 . S
H1058 C1070 0.950 . S
H1059 C1071 0.950 . S
C1060 H1052 0.950 . S
C1060 C1061 1.386 . S
C1060 C1062 1.391 . S
C1061 C1060 1.386 . S
C1061 C1065 1.393 . S
C1062 H1054 0.950 . S
C1062 C1060 1.391 . S
C1062 C1063 1.400 . S
C1063 C1062 1.400 . S
C1063 C1064 1.398 . S
C1063 C1069 1.491 . S
C1064 H1055 0.950 . S
C1064 C1063 1.398 . S
C1064 C1065 1.391 . S
C1065 H1053 0.950 . S
C1065 C1061 1.393 . S
C1065 C1064 1.391 . S
C1066 H1056 0.950 . S
C1066 C1067 1.386 . S
C1066 C1068 1.391 . S
C1067 C1066 1.386 . S
C1067 C1071 1.393 . S
C1068 H1057 0.950 . S
C1068 C1066 1.391 . S
C1068 C1069 1.400 . S
C1069 C1063 1.491 . S
C1069 C1068 1.400 . S
C1069 C1070 1.398 . S
C1070 H1058 0.950 . S
C1070 C1069 1.398 . S
C1070 C1071 1.391 . S
C1071 H1059 0.950 . S
C1071 C1067 1.393 . S
C1071 C1070 1.391 . S
H1072 C1080 0.950 . S
H1073 C1085 0.950 . S
H1074 C1082 0.950 . S
H1075 C1084 0.950 . S
H1076 C1086 0.950 . S
H1077 C1088 0.950 . S
H1078 C1090 0.950 . S
H1079 C1091 0.950 . S
C1080 H1072 0.950 . S
C1080 C1081 1.386 . S
C1080 C1082 1.391 . S
C1081 C1080 1.386 . S
C1081 C1085 1.393 . S
C1082 H1074 0.950 . S
C1082 C1080 1.391 . S
C1082 C1083 1.400 . S
C1083 C1082 1.400 . S
C1083 C1084 1.398 . S
C1083 C1089 1.491 . S
C1084 H1075 0.950 . S
C1084 C1083 1.398 . S
C1084 C1085 1.391 . S
C1085 H1073 0.950 . S
C1085 C1081 1.393 . S
C1085 C1084 1.391 . S
C1086 H1076 0.950 . S
C1086 C1087 1.386 . S
C1086 C1088 1.391 . S
C1087 C1086 1.386 . S
C1087 C1091 1.393 . S
C1088 H1077 0.950 . S
C1088 C1086 1.391 . S
C1088 C1089 1.400 . S
C1089 C1083 1.491 . S
C1089 C1088 1.400 . S
C1089 C1090 1.398 . S
C1090 H1078 0.950 . S
C1090 C1089 1.398 . S
C1090 C1091 1.391 . S
C1091 H1079 0.950 . S
C1091 C1087 1.393 . S
C1091 C1090 1.391 . S
H1092 C1100 0.950 . S
H1093 C1105 0.950 . S
H1094 C1102 0.950 . S
H1095 C1104 0.950 . S
H1096 C1106 0.950 . S
H1097 C1108 0.950 . S
H1098 C1110 0.950 . S
H1099 C1111 0.950 . S
C1100 H1092 0.950 . S
C1100 C1101 1.386 . S
C1100 C1102 1.391 . S
C1101 C1100 1.386 . S
C1101 C1105 1.393 . S
C1102 H1094 0.950 . S
C1102 C1100 1.391 . S
C1102 C1103 1.400 . S
C1103 C1102 1.400 . S
C1103 C1104 1.398 . S
C1103 C1109 1.491 . S
C1104 H1095 0.950 . S
C1104 C1103 1.398 . S
C1104 C1105 1.391 . S
C1105 H1093 0.950 . S
C1105 C1101 1.393 . S
C1105 C1104 1.391 . S
C1106 H1096 0.950 . S
C1106 C1107 1.386 . S
C1106 C1108 1.391 . S
C1107 C1106 1.386 . S
C1107 C1111 1.393 . S
C1108 H1097 0.950 . S
C1108 C1106 1.391 . S
C1108 C1109 1.400 . S
C1109 C1103 1.491 . S
C1109 C1108 1.400 . S
C1109 C1110 1.398 . S
C1110 H1098 0.950 . S
C1110 C1109 1.398 . S
C1110 C1111 1.391 . S
C1111 H1099 0.950 . S
C1111 C1107 1.393 . S
C1111 C1110 1.391 . S
H1112 C1120 0.950 . S
H1113 C1125 0.950 . S
H1114 C1122 0.950 . S
H1115 C1124 0.950 . S
H1116 C1126 0.950 . S
H1117 C1128 0.950 . S
H1118 C1130 0.950 . S
H1119 C1131 0.950 . S
C1120 H1112 0.950 . S
C1120 C1121 1.386 . S
C1120 C1122 1.391 . S
C1121 C1120 1.386 . S
C1121 C1125 1.393 . S
C1122 H1114 0.950 . S
C1122 C1120 1.391 . S
C1122 C1123 1.400 . S
C1123 C1122 1.400 . S
C1123 C1124 1.398 . S
C1123 C1129 1.491 . S
C1124 H1115 0.950 . S
C1124 C1123 1.398 . S
C1124 C1125 1.391 . S
C1125 H1113 0.950 . S
C1125 C1121 1.393 . S
C1125 C1124 1.391 . S
C1126 H1116 0.950 . S
C1126 C1127 1.386 . S
C1126 C1128 1.391 . S
C1127 C1126 1.386 . S
C1127 C1131 1.393 . S
C1128 H1117 0.950 . S
C1128 C1126 1.391 . S
C1128 C1129 1.400 . S
C1129 C1123 1.491 . S
C1129 C1128 1.400 . S
C1129 C1130 1.398 . S
C1130 H1118 0.950 . S
C1130 C1129 1.398 . S
C1130 C1131 1.391 . S
C1131 H1119 0.950 . S
C1131 C1127 1.393 . S
C1131 C1130 1.391 . S
H1132 C1140 0.950 . S
H1133 C1145 0.950 . S
H1134 C1142 0.950 . S
H1135 C1144 0.950 . S
H1136 C1146 0.950 . S
H1137 C1148 0.950 . S
H1138 C1150 0.950 . S
H1139 C1151 0.950 . S
C1140 H1132 0.950 . S
C1140 C1141 1.386 . S
C1140 C1142 1.391 . S
C1141 C1140 1.386 . S
C1141 C1145 1.393 . S
C1142 H1134 0.950 . S
C1142 C1140 1.391 . S
C1142 C1143 1.400 . S
C1143 C1142 1.400 . S
C1143 C1144 1.398 . S
C1143 C1149 1.491 . S
C1144 H1135 0.950 . S
C1144 C1143 1.398 . S
C1144 C1145 1.391 . S
C1145 H1133 0.950 . S
C1145 C1141 1.393 . S
C1145 C1144 1.391 . S
C1146 H1136 0.950 . S
C1146 C1147 1.386 . S
C1146 C1148 1.391 . S
C1147 C1146 1.386 . S
C1147 C1151 1.393 . S
C1148 H1137 0.950 . S
C1148 C1146 1.391 . S
C1148 C1149 1.400 . S
C1149 C1143 1.491 . S
C1149 C1148 1.400 . S
C1149 C1150 1.398 . S
C1150 H1138 0.950 . S
C1150 C1149 1.398 . S
C1150 C1151 1.391 . S
C1151 H1139 0.950 . S
C1151 C1147 1.393 . S
C1151 C1150 1.391 . S
H1152 C1160 0.950 . S
H1153 C1165 0.950 . S
H1154 C1162 0.950 . S
H1155 C1164 0.950 . S
H1156 C1166 0.950 . S
H1157 C1168 0.950 . S
H1158 C1170 0.950 . S
H1159 C1171 0.950 . S
C1160 H1152 0.950 . S
C1160 C1161 1.386 . S
C1160 C1162 1.391 . S
C1161 C1160 1.386 . S
C1161 C1165 1.393 . S
C1162 H1154 0.950 . S
C1162 C1160 1.391 . S
C1162 C1163 1.400 . S
C1163 C1162 1.400 . S
C1163 C1164 1.398 . S
C1163 C1169 1.491 . S
C1164 H1155 0.950 . S
C1164 C1163 1.398 . S
C1164 C1165 1.391 . S
C1165 H1153 0.950 . S
C1165 C1161 1.393 . S
C1165 C1164 1.391 . S
C1166 H1156 0.950 . S
C1166 C1167 1.386 . S
C1166 C1168 1.391 . S
C1167 C1166 1.386 . S
C1167 C1171 1.393 . S
C1168 H1157 0.950 . S
C1168 C1166 1.391 . S
C1168 C1169 1.400 . S
C1169 C1163 1.491 . S
C1169 C1168 1.400 . S
C1169 C1170 1.398 . S
C1170 H1158 0.950 . S
C1170 C1169 1.398 . S
C1170 C1171 1.391 . S
C1171 H1159 0.950 . S
C1171 C1167 1.393 . S
C1171 C1170 1.391 . S
H1172 C1180 0.950 . S
H1173 C1185 0.950 . S
H1174 C1182 0.950 . S
H1175 C1184 0.950 . S
H1176 C1186 0.950 . S
H1177 C1188 0.950 . S
H1178 C1190 0.950 . S
H1179 C1191 0.950 . S
C1180 H1172 0.950 . S
C1180 C1181 1.386 . S
C1180 C1182 1.391 . S
C1181 C1180 1.386 . S
C1181 C1185 1.393 . S
C1182 H1174 0.950 . S
C1182 C1180 1.391 . S
C1182 C1183 1.400 . S
C1183 C1182 1.400 . S
C1183 C1184 1.398 . S
C1183 C1189 1.491 . S
C1184 H1175 0.950 . S
C1184 C1183 1.398 . S
C1184 C1185 1.391 . S
C1185 H1173 0.950 . S
C1185 C1181 1.393 . S
C1185 C1184 1.391 . S
C1186 H1176 0.950 . S
C1186 C1187 1.386 . S
C1186 C1188 1.391 . S
C1187 C1186 1.386 . S
C1187 C1191 1.393 . S
C1188 H1177 0.950 . S
C1188 C1186 1.391 . S
C1188 C1189 1.400 . S
C1189 C1183 1.491 . S
C1189 C1188 1.400 . S
C1189 C1190 1.398 . S
C1190 H1178 0.950 . S
C1190 C1189 1.398 . S
C1190 C1191 1.391 . S
C1191 H1179 0.950 . S
C1191 C1187 1.393 . S
C1191 C1190 1.391 . S
H1192 C1200 0.950 . S
H1193 C1205 0.950 . S
H1194 C1202 0.950 . S
H1195 C1204 0.950 . S
H1196 C1206 0.950 . S
H1197 C1208 0.950 . S
H1198 C1210 0.950 . S
H1199 C1211 0.950 . S
C1200 H1192 0.950 . S
C1200 C1201 1.386 . S
C1200 C1202 1.391 . S
C1201 C1200 1.386 . S
C1201 C1205 1.393 . S
C1202 H1194 0.950 . S
C1202 C1200 1.391 . S
C1202 C1203 1.400 . S
C1203 C1202 1.400 . S
C1203 C1204 1.398 . S
C1203 C1209 1.491 . S
C1204 H1195 0.950 . S
C1204 C1203 1.398 . S
C1204 C1205 1.391 . S
C1205 H1193 0.950 . S
C1205 C1201 1.393 . S
C1205 C1204 1.391 . S
C1206 H1196 0.950 . S
C1206 C1207 1.386 . S
C1206 C1208 1.391 . S
C1207 C1206 1.386 . S
C1207 C1211 1.393 . S
C1208 H1197 0.950 . S
C1208 C1206 1.391 . S
C1208 C1209 1.400 . S
C1209 C1203 1.491 . S
C1209 C1208 1.400 . S
C1209 C1210 1.398 . S
C1210 H1198 0.950 . S
C1210 C1209 1.398 . S
C1210 C1211 1.391 . S
C1211 H1199 0.950 . S
C1211 C1207 1.393 . S
C1211 C1210 1.391 . S
H1212 C1220 0.950 . S
H1213 C1225 0.950 . S
H1214 C1222 0.950 . S
H1215 C1224 0.950 . S
H1216 C1226 0.950 . S
H1217 C1228 0.950 . S
H1218 C1230 0.950 . S
H1219 C1231 0.950 . S
C1220 H1212 0.950 . S
C1220 C1221 1.386 . S
C1220 C1222 1.391 . S
C1221 C1220 1.386 . S
C1221 C1225 1.393 . S
C1222 H1214 0.950 . S
C1222 C1220 1.391 . S
C1222 C1223 1.400 . S
C1223 C1222 1.400 . S
C1223 C1224 1.398 . S
C1223 C1229 1.491 . S
C1224 H1215 0.950 . S
C1224 C1223 1.398 . S
C1224 C1225 1.391 . S
C1225 H1213 0.950 . S
C1225 C1221 1.393 . S
C1225 C1224 1.391 . S
C1226 H1216 0.950 . S
C1226 C1227 1.386 . S
C1226 C1228 1.391 . S
C1227 C1226 1.386 . S
C1227 C1231 1.393 . S
C1228 H1217 0.950 . S
C1228 C1226 1.391 . S
C1228 C1229 1.400 . S
C1229 C1223 1.491 . S
C1229 C1228 1.400 . S
C1229 C1230 1.398 . S
C1230 H1218 0.950 . S
C1230 C1229 1.398 . S
C1230 C1231 1.391 . S
C1231 H1219 0.950 . S
C1231 C1227 1.393 . S
C1231 C1230 1.391 . S
H1232 C1240 0.950 . S
H1233 C1245 0.950 . S
H1234 C1242 0.950 . S
H1235 C1244 0.950 . S
H1236 C1246 0.950 . S
H1237 C1248 0.950 . S
H1238 C1250 0.950 . S
H1239 C1251 0.950 . S
C1240 H1232 0.950 . S
C1240 C1241 1.386 . S
C1240 C1242 1.391 . S
C1241 C1240 1.386 . S
C1241 C1245 1.393 . S
C1242 H1234 0.950 . S
C1242 C1240 1.391 . S
C1242 C1243 1.400 . S
C1243 C1242 1.400 . S
C1243 C1244 1.398 . S
C1243 C1249 1.491 . S
C1244 H1235 0.950 . S
C1244 C1243 1.398 . S
C1244 C1245 1.391 . S
C1245 H1233 0.950 . S
C1245 C1241 1.393 . S
C1245 C1244 1.391 . S
C1246 H1236 0.950 . S
C1246 C1247 1.386 . S
C1246 C1248 1.391 . S
C1247 C1246 1.386 . S
C1247 C1251 1.393 . S
C1248 H1237 0.950 . S
C1248 C1246 1.391 . S
C1248 C1249 1.400 . S
C1249 C1243 1.491 . S
C1249 C1248 1.400 . S
C1249 C1250 1.398 . S
C1250 H1238 0.950 . S
C1250 C1249 1.398 . S
C1250 C1251 1.391 . S
C1251 H1239 0.950 . S
C1251 C1247 1.393 . S
C1251 C1250 1.391 . S
H1252 C1260 0.950 . S
H1253 C1265 0.950 . S
H1254 C1262 0.950 . S
H1255 C1264 0.950 . S
H1256 C1266 0.950 . S
H1257 C1268 0.950 . S
H1258 C1270 0.950 . S
H1259 C1271 0.950 . S
C1260 H1252 0.950 . S
C1260 C1261 1.386 . S
C1260 C1262 1.391 . S
C1261 C1260 1.386 . S
C1261 C1265 1.393 . S
C1262 H1254 0.950 . S
C1262 C1260 1.391 . S
C1262 C1263 1.400 . S
C1263 C1262 1.400 . S
C1263 C1264 1.398 . S
C1263 C1269 1.491 . S
C1264 H1255 0.950 . S
C1264 C1263 1.398 . S
C1264 C1265 1.391 . S
C1265 H1253 0.950 . S
C1265 C1261 1.393 . S
C1265 C1264 1.391 . S
C1266 H1256 0.950 . S
C1266 C1267 1.386 . S
C1266 C1268 1.391 . S
C1267 C1266 1.386 . S
C1267 C1271 1.393 . S
C1268 H1257 0.950 . S
C1268 C1266 1.391 . S
C1268 C1269 1.400 . S
C1269 C1263 1.491 . S
C1269 C1268 1.400 . S
C1269 C1270 1.398 . S
C1270 H1258 0.950 . S
C1270 C1269 1.398 . S
C1270 C1271 1.391 . S
C1271 H1259 0.950 . S
C1271 C1267 1.393 . S
C1271 C1270 1.391 . S
H1272 C1280 0.950 . S
H1273 C1285 0.950 . S
H1274 C1282 0.950 . S
H1275 C1284 0.950 . S
H1276 C1286 0.950 . S
H1277 C1288 0.950 . S
H1278 C1290 0.950 . S
H1279 C1291 0.950 . S
C1280 H1272 0.950 . S
C1280 C1281 1.386 . S
C1280 C1282 1.391 . S
C1281 C1280 1.386 . S
C1281 C1285 1.393 . S
C1282 H1274 0.950 . S
C1282 C1280 1.391 . S
C1282 C1283 1.400 . S
C1283 C1282 1.400 . S
C1283 C1284 1.398 . S
C1283 C1289 1.491 . S
C1284 H1275 0.950 . S
C1284 C1283 1.398 . S
C1284 C1285 1.391 . S
C1285 H1273 0.950 . S
C1285 C1281 1.393 . S
C1285 C1284 1.391 . S
C1286 H1276 0.950 . S
C1286 C1287 1.386 . S
C1286 C1288 1.391 . S
C1287 C1286 1.386 . S
C1287 C1291 1.393 . S
C1288 H1277 0.950 . S
C1288 C1286 1.391 . S
C1288 C1289 1.400 . S
C1289 C1283 1.491 . S
C1289 C1288 1.400 . S
C1289 C1290 1.398 . S
C1290 H1278 0.950 . S
C1290 C1289 1.398 . S
C1290 C1291 1.391 . S
C1291 H1279 0.950 . S
C1291 C1287 1.393 . S
C1291 C1290 1.391 . S
H1292 C1300 0.950 . S
H1293 C1305 0.950 . S
H1294 C1302 0.950 . S
H1295 C1304 0.950 . S
H1296 C1306 0.950 . S
H1297 C1308 0.950 . S
H1298 C1310 0.950 . S
H1299 C1311 0.950 . S
C1300 H1292 0.950 . S
C1300 C1301 1.386 . S
C1300 C1302 1.391 . S
C1301 C1300 1.386 . S
C1301 C1305 1.393 . S
C1302 H1294 0.950 . S
C1302 C1300 1.391 . S
C1302 C1303 1.400 . S
C1303 C1302 1.400 . S
C1303 C1304 1.398 . S
C1303 C1309 1.491 . S
C1304 H1295 0.950 . S
C1304 C1303 1.398 . S
C1304 C1305 1.391 . S
C1305 H1293 0.950 . S
C1305 C1301 1.393 . S
C1305 C1304 1.391 . S
C1306 H1296 0.950 . S
C1306 C1307 1.386 . S
C1306 C1308 1.391 . S
C1307 C1306 1.386 . S
C1307 C1311 1.393 . S
C1308 H1297 0.950 . S
C1308 C1306 1.391 . S
C1308 C1309 1.400 . S
C1309 C1303 1.491 . S
C1309 C1308 1.400 . S
C1309 C1310 1.398 . S
C1310 H1298 0.950 . S
C1310 C1309 1.398 . S
C1310 C1311 1.391 . S
C1311 H1299 0.950 . S
C1311 C1307 1.393 . S
C1311 C1310 1.391 . S
H1312 C1320 0.950 . S
H1313 C1325 0.950 . S
H1314 C1322 0.950 . S
H1315 C1324 0.950 . S
H1316 C1326 0.950 . S
H1317 C1328 0.950 . S
H1318 C1330 0.950 . S
H1319 C1331 0.950 . S
C1320 H1312 0.950 . S
C1320 C1321 1.386 . S
C1320 C1322 1.391 . S
C1321 C1320 1.386 . S
C1321 C1325 1.393 . S
C1322 H1314 0.950 . S
C1322 C1320 1.391 . S
C1322 C1323 1.400 . S
C1323 C1322 1.400 . S
C1323 C1324 1.398 . S
C1323 C1329 1.491 . S
C1324 H1315 0.950 . S
C1324 C1323 1.398 . S
C1324 C1325 1.391 . S
C1325 H1313 0.950 . S
C1325 C1321 1.393 . S
C1325 C1324 1.391 . S
C1326 H1316 0.950 . S
C1326 C1327 1.386 . S
C1326 C1328 1.391 . S
C1327 C1326 1.386 . S
C1327 C1331 1.393 . S
C1328 H1317 0.950 . S
C1328 C1326 1.391 . S
C1328 C1329 1.400 . S
C1329 C1323 1.491 . S
C1329 C1328 1.400 . S
C1329 C1330 1.398 . S
C1330 H1318 0.950 . S
C1330 C1329 1.398 . S
C1330 C1331 1.391 . S
C1331 H1319 0.950 . S
C1331 C1327 1.393 . S
C1331 C1330 1.391 . S
H1332 C1340 0.950 . S
H1333 C1345 0.989 . S
H1334 C1342 0.950 . S
H1335 C1344 0.950 . S
H1336 C1346 0.950 . S
H1337 C1348 0.950 . S
H1338 C1350 0.950 . S
H1339 C1351 0.950 . S
C1340 H1332 0.950 . S
C1340 C1341 1.386 . S
C1340 C1342 1.391 . S
C1341 C1340 1.386 . S
C1341 C1345 1.393 . S
C1342 H1334 0.950 . S
C1342 C1340 1.391 . S
C1342 C1343 1.400 . S
C1343 C1342 1.400 . S
C1343 C1344 1.398 . S
C1343 C1349 1.491 . S
C1344 H1335 0.950 . S
C1344 C1343 1.398 . S
C1344 C1345 1.391 . S
C1345 H1333 0.989 . S
C1345 C1341 1.393 . S
C1345 C1344 1.391 . S
C1346 H1336 0.950 . S
C1346 C1347 1.386 . S
C1346 C1348 1.391 . S
C1347 C1346 1.386 . S
C1347 C1351 1.393 . S
C1348 H1337 0.950 . S
C1348 C1346 1.391 . S
C1348 C1349 1.400 . S
C1349 C1343 1.491 . S
C1349 C1348 1.400 . S
C1349 C1350 1.398 . S
C1350 H1338 0.950 . S
C1350 C1349 1.398 . S
C1350 C1351 1.391 . S
C1351 H1339 0.950 . S
C1351 C1347 1.393 . S
C1351 C1350 1.391 . S
H1352 C1360 0.950 . S
H1353 C1365 0.950 . S
H1354 C1362 0.950 . S
H1355 C1364 0.950 . S
H1356 C1366 0.950 . S
H1357 C1368 0.950 . S
H1358 C1370 0.950 . S
H1359 C1371 0.950 . S
C1360 H1352 0.950 . S
C1360 C1361 1.386 . S
C1360 C1362 1.391 . S
C1361 C1360 1.386 . S
C1361 C1365 1.393 . S
C1362 H1354 0.950 . S
C1362 C1360 1.391 . S
C1362 C1363 1.400 . S
C1363 C1362 1.400 . S
C1363 C1364 1.398 . S
C1363 C1369 1.491 . S
C1364 H1355 0.950 . S
C1364 C1363 1.398 . S
C1364 C1365 1.391 . S
C1365 H1353 0.950 . S
C1365 C1361 1.393 . S
C1365 C1364 1.391 . S
C1366 H1356 0.950 . S
C1366 C1367 1.386 . S
C1366 C1368 1.391 . S
C1367 C1366 1.386 . S
C1367 C1371 1.393 . S
C1368 H1357 0.950 . S
C1368 C1366 1.391 . S
C1368 C1369 1.400 . S
C1369 C1363 1.491 . S
C1369 C1368 1.400 . S
C1369 C1370 1.398 . S
C1370 H1358 0.950 . S
C1370 C1369 1.398 . S
C1370 C1371 1.391 . S
C1371 H1359 0.950 . S
C1371 C1367 1.393 . S
C1371 C1370 1.391 . S
H1372 C1380 0.950 . S
H1373 C1385 0.950 . S
H1374 C1382 0.950 . S
H1375 C1384 0.950 . S
H1376 C1386 0.950 . S
H1377 C1388 0.950 . S
H1378 C1390 0.950 . S
H1379 C1391 0.950 . S
C1380 H1372 0.950 . S
C1380 C1381 1.386 . S
C1380 C1382 1.391 . S
C1381 C1380 1.386 . S
C1381 C1385 1.393 . S
C1382 H1374 0.950 . S
C1382 C1380 1.391 . S
C1382 C1383 1.400 . S
C1383 C1382 1.400 . S
C1383 C1384 1.398 . S
C1383 C1389 1.491 . S
C1384 H1375 0.950 . S
C1384 C1383 1.398 . S
C1384 C1385 1.391 . S
C1385 H1373 0.950 . S
C1385 C1381 1.393 . S
C1385 C1384 1.391 . S
C1386 H1376 0.950 . S
C1386 C1387 1.386 . S
C1386 C1388 1.391 . S
C1387 C1386 1.386 . S
C1387 C1391 1.393 . S
C1388 H1377 0.950 . S
C1388 C1386 1.391 . S
C1388 C1389 1.400 . S
C1389 C1383 1.491 . S
C1389 C1388 1.400 . S
C1389 C1390 1.398 . S
C1390 H1378 0.950 . S
C1390 C1389 1.398 . S
C1390 C1391 1.391 . S
C1391 H1379 0.950 . S
C1391 C1387 1.393 . S
C1391 C1390 1.391 . S
H1392 C1400 0.950 . S
H1393 C1405 0.950 . S
H1394 C1402 0.950 1_554 S
H1395 C1404 0.950 . S
H1396 C1406 0.950 . S
H1397 C1408 0.950 . S
H1398 C1410 0.950 . S
H1399 C1411 0.950 . S
C1400 H1392 0.950 . S
C1400 C1401 1.386 1_554 S
C1400 C1402 1.391 1_554 S
C1401 C1400 1.386 1_556 S
C1401 C1405 1.393 . S
C1402 H1394 0.950 1_556 S
C1402 C1400 1.391 1_556 S
C1402 C1403 1.400 . S
C1403 C1402 1.400 . S
C1403 C1404 1.398 . S
C1403 C1409 1.491 . S
C1404 H1395 0.950 . S
C1404 C1403 1.398 . S
C1404 C1405 1.391 . S
C1405 H1393 0.950 . S
C1405 C1401 1.393 . S
C1405 C1404 1.391 . S
C1406 H1396 0.950 . S
C1406 C1407 1.386 . S
C1406 C1408 1.391 . S
C1407 C1406 1.386 . S
C1407 C1411 1.393 . S
C1408 H1397 0.950 . S
C1408 C1406 1.391 . S
C1408 C1409 1.400 . S
C1409 C1403 1.491 . S
C1409 C1408 1.400 . S
C1409 C1410 1.398 . S
C1410 H1398 0.950 . S
C1410 C1409 1.398 . S
C1410 C1411 1.391 . S
C1411 H1399 0.950 . S
C1411 C1407 1.393 . S
C1411 C1410 1.391 . S
H1412 C1420 0.950 . S
H1413 C1425 0.950 . S
H1414 C1422 0.950 . S
H1415 C1424 0.950 1_554 S
H1416 C1426 0.950 . S
H1417 C1428 0.950 . S
H1418 C1430 0.950 . S
H1419 C1431 0.950 . S
C1420 H1412 0.950 . S
C1420 C1421 1.386 . S
C1420 C1422 1.391 . S
C1421 C1420 1.386 . S
C1421 C1425 1.393 1_556 S
C1422 H1414 0.950 . S
C1422 C1420 1.391 . S
C1422 C1423 1.400 . S
C1423 C1422 1.400 . S
C1423 C1424 1.398 . S
C1423 C1429 1.491 . S
C1424 H1415 0.950 1_556 S
C1424 C1423 1.398 . S
C1424 C1425 1.391 1_556 S
C1425 H1413 0.950 . S
C1425 C1421 1.393 1_554 S
C1425 C1424 1.391 1_554 S
C1426 H1416 0.950 . S
C1426 C1427 1.386 . S
C1426 C1428 1.391 . S
C1427 C1426 1.386 . S
C1427 C1431 1.393 . S
C1428 H1417 0.950 . S
C1428 C1426 1.391 . S
C1428 C1429 1.400 . S
C1429 C1423 1.491 . S
C1429 C1428 1.400 . S
C1429 C1430 1.398 . S
C1430 H1418 0.950 . S
C1430 C1429 1.398 . S
C1430 C1431 1.391 . S
C1431 H1419 0.950 . S
C1431 C1427 1.393 . S
C1431 C1430 1.391 . S
H1432 C1440 0.950 . S
H1433 C1445 0.950 . S
H1434 C1442 0.950 . S
H1435 C1444 0.950 . S
H1436 C1446 0.950 . S
H1437 C1448 0.950 . S
H1438 C1450 0.950 . S
H1439 C1451 0.950 . S
C1440 H1432 0.950 . S
C1440 C1441 1.386 . S
C1440 C1442 1.391 . S
C1441 C1440 1.386 . S
C1441 C1445 1.393 . S
C1442 H1434 0.950 . S
C1442 C1440 1.391 . S
C1442 C1443 1.400 . S
C1443 C1442 1.400 . S
C1443 C1444 1.398 . S
C1443 C1449 1.491 . S
C1444 H1435 0.950 . S
C1444 C1443 1.398 . S
C1444 C1445 1.391 . S
C1445 H1433 0.950 . S
C1445 C1441 1.393 . S
C1445 C1444 1.391 . S
C1446 H1436 0.950 . S
C1446 C1447 1.386 . S
C1446 C1448 1.391 . S
C1447 C1446 1.386 . S
C1447 C1451 1.393 . S
C1448 H1437 0.950 . S
C1448 C1446 1.391 . S
C1448 C1449 1.400 . S
C1449 C1443 1.491 . S
C1449 C1448 1.400 . S
C1449 C1450 1.398 . S
C1450 H1438 0.950 . S
C1450 C1449 1.398 . S
C1450 C1451 1.391 . S
C1451 H1439 0.950 . S
C1451 C1447 1.393 . S
C1451 C1450 1.391 . S
H1452 C1460 0.950 . S
H1453 C1465 0.950 . S
H1454 C1462 0.950 . S
H1455 C1464 0.950 . S
H1456 C1466 0.950 . S
H1457 C1468 0.950 . S
H1458 C1470 0.950 . S
H1459 C1471 0.950 . S
C1460 H1452 0.950 . S
C1460 C1461 1.386 . S
C1460 C1462 1.391 . S
C1461 C1460 1.386 . S
C1461 C1465 1.393 . S
C1462 H1454 0.950 . S
C1462 C1460 1.391 . S
C1462 C1463 1.400 . S
C1463 C1462 1.400 . S
C1463 C1464 1.398 . S
C1463 C1469 1.491 . S
C1464 H1455 0.950 . S
C1464 C1463 1.398 . S
C1464 C1465 1.391 . S
C1465 H1453 0.950 . S
C1465 C1461 1.393 . S
C1465 C1464 1.391 . S
C1466 H1456 0.950 . S
C1466 C1467 1.386 . S
C1466 C1468 1.391 . S
C1467 C1466 1.386 . S
C1467 C1471 1.393 . S
C1468 H1457 0.950 . S
C1468 C1466 1.391 . S
C1468 C1469 1.400 . S
C1469 C1463 1.491 . S
C1469 C1468 1.400 . S
C1469 C1470 1.398 . S
C1470 H1458 0.950 . S
C1470 C1469 1.398 . S
C1470 C1471 1.391 . S
C1471 H1459 0.950 . S
C1471 C1467 1.393 . S
C1471 C1470 1.391 . S
H1472 C1480 0.950 . S
H1473 C1485 0.950 1_554 S
H1474 C1482 0.950 . S
H1475 C1484 0.950 . S
H1476 C1486 0.950 . S
H1477 C1488 0.950 . S
H1478 C1490 0.950 . S
H1479 C1491 0.950 . S
C1480 H1472 0.950 . S
C1480 C1481 1.386 . S
C1480 C1482 1.391 . S
C1481 C1480 1.386 . S
C1481 C1485 1.393 . S
C1482 H1474 0.950 . S
C1482 C1480 1.391 . S
C1482 C1483 1.400 . S
C1483 C1482 1.400 . S
C1483 C1484 1.398 . S
C1483 C1489 1.491 . S
C1484 H1475 0.950 . S
C1484 C1483 1.398 . S
C1484 C1485 1.391 . S
C1485 H1473 0.950 1_556 S
C1485 C1481 1.393 . S
C1485 C1484 1.391 . S
C1486 H1476 0.950 . S
C1486 C1487 1.386 . S
C1486 C1488 1.391 . S
C1487 C1486 1.386 . S
C1487 C1491 1.393 . S
C1488 H1477 0.950 . S
C1488 C1486 1.391 . S
C1488 C1489 1.400 . S
C1489 C1483 1.491 . S
C1489 C1488 1.400 . S
C1489 C1490 1.398 . S
C1490 H1478 0.950 . S
C1490 C1489 1.398 . S
C1490 C1491 1.391 . S
C1491 H1479 0.950 . S
C1491 C1487 1.393 . S
C1491 C1490 1.391 . S
H1492 C1500 0.950 . S
H1493 C1505 0.950 . S
H1494 C1502 0.950 . S
H1495 C1504 0.950 . S
H1496 C1506 0.950 . S
H1497 C1508 0.950 . S
H1498 C1510 0.950 . S
H1499 C1511 0.950 . S
C1500 H1492 0.950 . S
C1500 C1501 1.386 . S
C1500 C1502 1.391 . S
C1501 C1500 1.386 . S
C1501 C1505 1.393 . S
C1502 H1494 0.950 . S
C1502 C1500 1.391 . S
C1502 C1503 1.400 . S
C1503 C1502 1.400 . S
C1503 C1504 1.398 . S
C1503 C1509 1.491 . S
C1504 H1495 0.950 . S
C1504 C1503 1.398 . S
C1504 C1505 1.391 . S
C1505 H1493 0.950 . S
C1505 C1501 1.393 . S
C1505 C1504 1.391 . S
C1506 H1496 0.950 . S
C1506 C1507 1.386 . S
C1506 C1508 1.391 . S
C1507 C1506 1.386 . S
C1507 C1511 1.393 . S
C1508 H1497 0.950 . S
C1508 C1506 1.391 . S
C1508 C1509 1.400 . S
C1509 C1503 1.491 . S
C1509 C1508 1.400 . S
C1509 C1510 1.398 . S
C1510 H1498 0.950 . S
C1510 C1509 1.398 . S
C1510 C1511 1.391 . S
C1511 H1499 0.950 . S
C1511 C1507 1.393 . S
C1511 C1510 1.391 . S
H1512 C1520 0.950 . S
H1513 C1525 0.950 . S
H1514 C1522 0.950 . S
H1515 C1524 0.950 . S
H1516 C1526 0.950 . S
H1517 C1528 0.950 . S
H1518 C1530 0.950 . S
H1519 C1531 0.950 . S
C1520 H1512 0.950 . S
C1520 C1521 1.386 . S
C1520 C1522 1.391 . S
C1521 C1520 1.386 . S
C1521 C1525 1.393 . S
C1522 H1514 0.950 . S
C1522 C1520 1.391 . S
C1522 C1523 1.400 . S
C1523 C1522 1.400 . S
C1523 C1524 1.398 . S
C1523 C1529 1.491 . S
C1524 H1515 0.950 . S
C1524 C1523 1.398 . S
C1524 C1525 1.391 . S
C1525 H1513 0.950 . S
C1525 C1521 1.393 . S
C1525 C1524 1.391 . S
C1526 H1516 0.950 . S
C1526 C1527 1.386 . S
C1526 C1528 1.391 . S
C1527 C1526 1.386 . S
C1527 C1531 1.393 . S
C1528 H1517 0.950 . S
C1528 C1526 1.391 . S
C1528 C1529 1.400 . S
C1529 C1523 1.491 . S
C1529 C1528 1.400 . S
C1529 C1530 1.398 . S
C1530 H1518 0.950 . S
C1530 C1529 1.398 . S
C1530 C1531 1.391 . S
C1531 H1519 0.950 . S
C1531 C1527 1.393 . S
C1531 C1530 1.391 . S
H1532 C1540 0.950 . S
H1533 C1545 0.950 . S
H1534 C1542 0.950 . S
H1535 C1544 0.950 . S
H1536 C1546 0.950 . S
H1537 C1548 0.950 . S
H1538 C1550 0.950 . S
H1539 C1551 0.950 . S
C1540 H1532 0.950 . S
C1540 C1541 1.386 . S
C1540 C1542 1.391 . S
C1541 C1540 1.386 . S
C1541 C1545 1.393 . S
C1542 H1534 0.950 . S
C1542 C1540 1.391 . S
C1542 C1543 1.400 . S
C1543 C1542 1.400 . S
C1543 C1544 1.398 . S
C1543 C1549 1.491 . S
C1544 H1535 0.950 . S
C1544 C1543 1.398 . S
C1544 C1545 1.391 . S
C1545 H1533 0.950 . S
C1545 C1541 1.393 . S
C1545 C1544 1.391 . S
C1546 H1536 0.950 . S
C1546 C1547 1.386 . S
C1546 C1548 1.391 . S
C1547 C1546 1.386 . S
C1547 C1551 1.393 . S
C1548 H1537 0.950 . S
C1548 C1546 1.391 . S
C1548 C1549 1.400 . S
C1549 C1543 1.491 . S
C1549 C1548 1.400 . S
C1549 C1550 1.398 . S
C1550 H1538 0.950 . S
C1550 C1549 1.398 . S
C1550 C1551 1.391 . S
C1551 H1539 0.950 . S
C1551 C1547 1.393 . S
C1551 C1550 1.391 . S
H1552 C1560 0.950 1_556 S
H1553 C1565 0.950 . S
H1554 C1562 0.950 . S
H1555 C1564 0.950 . S
H1556 C1566 0.950 . S
H1557 C1568 0.950 . S
H1558 C1570 0.950 . S
H1559 C1571 0.950 . S
C1560 H1552 0.950 1_554 S
C1560 C1561 1.386 . S
C1560 C1562 1.391 . S
C1561 C1560 1.386 . S
C1561 C1565 1.393 . S
C1562 H1554 0.950 . S
C1562 C1560 1.391 . S
C1562 C1563 1.400 . S
C1563 C1562 1.400 . S
C1563 C1564 1.398 . S
C1563 C1569 1.491 . S
C1564 H1555 0.950 . S
C1564 C1563 1.398 . S
C1564 C1565 1.391 . S
C1565 H1553 0.950 . S
C1565 C1561 1.393 . S
C1565 C1564 1.391 . S
C1566 H1556 0.950 . S
C1566 C1567 1.386 . S
C1566 C1568 1.391 . S
C1567 C1566 1.386 . S
C1567 C1571 1.393 . S
C1568 H1557 0.950 . S
C1568 C1566 1.391 . S
C1568 C1569 1.400 . S
C1569 C1563 1.491 . S
C1569 C1568 1.400 . S
C1569 C1570 1.398 . S
C1570 H1558 0.950 . S
C1570 C1569 1.398 . S
C1570 C1571 1.391 . S
C1571 H1559 0.950 . S
C1571 C1567 1.393 . S
C1571 C1570 1.391 . S
H1572 C1580 0.950 . S
H1573 C1585 0.950 . S
H1574 C1582 0.950 . S
H1575 C1584 0.950 . S
H1576 C1586 0.950 . S
H1577 C1588 0.950 . S
H1578 C1590 0.950 . S
H1579 C1591 0.950 . S
C1580 H1572 0.950 . S
C1580 C1581 1.386 . S
C1580 C1582 1.391 . S
C1581 C1580 1.386 . S
C1581 C1585 1.393 . S
C1582 H1574 0.950 . S
C1582 C1580 1.391 . S
C1582 C1583 1.400 . S
C1583 C1582 1.400 . S
C1583 C1584 1.398 . S
C1583 C1589 1.491 . S
C1584 H1575 0.950 . S
C1584 C1583 1.398 . S
C1584 C1585 1.391 . S
C1585 H1573 0.950 . S
C1585 C1581 1.393 . S
C1585 C1584 1.391 . S
C1586 H1576 0.950 . S
C1586 C1587 1.386 . S
C1586 C1588 1.391 . S
C1587 C1586 1.386 . S
C1587 C1591 1.393 . S
C1588 H1577 0.950 . S
C1588 C1586 1.391 . S
C1588 C1589 1.400 . S
C1589 C1583 1.491 . S
C1589 C1588 1.400 . S
C1589 C1590 1.398 . S
C1590 H1578 0.950 . S
C1590 C1589 1.398 . S
C1590 C1591 1.391 . S
C1591 H1579 0.950 . S
C1591 C1587 1.393 . S
C1591 C1590 1.391 . S
H1592 C1600 0.950 . S
H1593 C1605 0.950 . S
H1594 C1602 0.950 . S
H1595 C1604 0.950 . S
H1596 C1606 0.950 . S
H1597 C1608 0.950 . S
H1598 C1610 0.950 . S
H1599 C1611 0.950 . S
C1600 H1592 0.950 . S
C1600 C1601 1.386 . S
C1600 C1602 1.391 . S
C1601 C1600 1.386 . S
C1601 C1605 1.393 . S
C1602 H1594 0.950 . S
C1602 C1600 1.391 . S
C1602 C1603 1.400 . S
C1603 C1602 1.400 . S
C1603 C1604 1.398 . S
C1603 C1609 1.491 . S
C1604 H1595 0.950 . S
C1604 C1603 1.398 . S
C1604 C1605 1.391 . S
C1605 H1593 0.950 . S
C1605 C1601 1.393 . S
C1605 C1604 1.391 . S
C1606 H1596 0.950 . S
C1606 C1607 1.386 . S
C1606 C1608 1.391 . S
C1607 C1606 1.386 . S
C1607 C1611 1.393 . S
C1608 H1597 0.950 . S
C1608 C1606 1.391 . S
C1608 C1609 1.400 . S
C1609 C1603 1.491 . S
C1609 C1608 1.400 . S
C1609 C1610 1.398 . S
C1610 H1598 0.950 . S
C1610 C1609 1.398 . S
C1610 C1611 1.391 . S
C1611 H1599 0.950 . S
C1611 C1607 1.393 . S
C1611 C1610 1.391 . S
H1612 C1620 0.950 . S
H1613 C1625 0.950 . S
H1614 C1622 0.950 . S
H1615 C1624 0.950 . S
H1616 C1626 0.950 . S
H1617 C1628 0.950 . S
H1618 C1630 0.950 . S
H1619 C1631 0.950 . S
C1620 H1612 0.950 . S
C1620 C1621 1.386 . S
C1620 C1622 1.391 . S
C1621 C1620 1.386 . S
C1621 C1625 1.393 . S
C1622 H1614 0.950 . S
C1622 C1620 1.391 . S
C1622 C1623 1.400 . S
C1623 C1622 1.400 . S
C1623 C1624 1.398 . S
C1623 C1629 1.491 . S
C1624 H1615 0.950 . S
C1624 C1623 1.398 . S
C1624 C1625 1.391 . S
C1625 H1613 0.950 . S
C1625 C1621 1.393 . S
C1625 C1624 1.391 . S
C1626 H1616 0.950 . S
C1626 C1627 1.386 . S
C1626 C1628 1.391 . S
C1627 C1626 1.386 . S
C1627 C1631 1.393 . S
C1628 H1617 0.950 . S
C1628 C1626 1.391 . S
C1628 C1629 1.400 . S
C1629 C1623 1.491 . S
C1629 C1628 1.400 . S
C1629 C1630 1.398 . S
C1630 H1618 0.950 . S
C1630 C1629 1.398 . S
C1630 C1631 1.391 . S
C1631 H1619 0.950 . S
C1631 C1627 1.393 . S
C1631 C1630 1.391 . S
H1632 C1640 0.950 . S
H1633 C1645 0.938 1_655 S
H1634 C1642 0.950 . S
H1635 C1644 0.950 1_655 S
H1636 C1646 0.950 . S
H1637 C1648 0.966 . S
H1638 C1650 0.950 . S
H1639 C1651 0.950 . S
C1640 H1632 0.950 . S
C1640 C1641 1.386 . S
C1640 C1642 1.391 . S
C1641 C1640 1.386 . S
C1641 C1645 1.393 . S
C1642 H1634 0.950 . S
C1642 C1640 1.391 . S
C1642 C1643 1.400 . S
C1643 C1642 1.400 . S
C1643 C1644 1.398 . S
C1643 C1649 1.491 . S
C1644 H1635 0.950 1_455 S
C1644 C1643 1.398 . S
C1644 C1645 1.391 . S
C1645 H1633 0.938 1_455 S
C1645 C1641 1.393 . S
C1645 C1644 1.391 . S
C1646 H1636 0.950 . S
C1646 C1647 1.386 1_655 S
C1646 C1648 1.424 . S
C1647 C1646 1.386 1_455 S
C1647 C1651 1.393 . S
C1648 H1637 0.966 . S
C1648 C1646 1.424 . S
C1648 C1649 1.353 1_655 S
C1649 C1643 1.491 . S
C1649 C1648 1.353 1_455 S
C1649 C1650 1.398 . S
C1650 H1638 0.950 . S
C1650 C1649 1.398 . S
C1650 C1651 1.391 . S
C1651 H1639 0.950 . S
C1651 C1647 1.393 . S
C1651 C1650 1.391 . S
H1652 C1660 0.950 . S
H1653 C1665 0.950 . S
H1654 C1662 0.950 . S
H1655 C1664 0.950 . S
H1656 C1666 0.950 . S
H1657 C1668 0.950 . S
H1658 C1670 0.950 . S
H1659 C1671 0.950 . S
C1660 H1652 0.950 . S
C1660 C1661 1.386 . S
C1660 C1662 1.391 . S
C1661 C1660 1.386 . S
C1661 C1665 1.393 . S
C1662 H1654 0.950 . S
C1662 C1660 1.391 . S
C1662 C1663 1.400 . S
C1663 C1662 1.400 . S
C1663 C1664 1.398 . S
C1663 C1669 1.491 . S
C1664 H1655 0.950 . S
C1664 C1663 1.398 . S
C1664 C1665 1.391 . S
C1665 H1653 0.950 . S
C1665 C1661 1.393 . S
C1665 C1664 1.391 . S
C1666 H1656 0.950 . S
C1666 C1667 1.386 . S
C1666 C1668 1.391 . S
C1667 C1666 1.386 . S
C1667 C1671 1.393 . S
C1668 H1657 0.950 . S
C1668 C1666 1.391 . S
C1668 C1669 1.400 . S
C1669 C1663 1.491 . S
C1669 C1668 1.400 . S
C1669 C1670 1.398 . S
C1670 H1658 0.950 . S
C1670 C1669 1.398 . S
C1670 C1671 1.391 . S
C1671 H1659 0.950 . S
C1671 C1667 1.393 . S
C1671 C1670 1.391 . S
H1672 C1680 0.950 . S
H1673 C1685 0.950 . S
H1674 C1682 0.950 . S
H1675 C1684 0.950 . S
H1676 C1686 0.950 . S
H1677 C1688 0.950 . S
H1678 C1690 0.950 . S
H1679 C1691 0.950 . S
C1680 H1672 0.950 . S
C1680 C1681 1.386 1_545 S
C1680 C1682 1.391 . S
C1681 C1680 1.386 1_565 S
C1681 C1685 1.393 . S
C1682 H1674 0.950 . S
C1682 C1680 1.391 . S
C1682 C1683 1.400 1_545 S
C1683 C1682 1.400 1_565 S
C1683 C1684 1.398 . S
C1683 C1689 1.491 . S
C1684 H1675 0.950 . S
C1684 C1683 1.398 . S
C1684 C1685 1.391 . S
C1685 H1673 0.950 . S
C1685 C1681 1.393 . S
C1685 C1684 1.391 . S
C1686 H1676 0.950 . S
C1686 C1687 1.386 . S
C1686 C1688 1.391 . S
C1687 C1686 1.386 . S
C1687 C1691 1.393 1_565 S
C1688 H1677 0.950 . S
C1688 C1686 1.391 . S
C1688 C1689 1.400 . S
C1689 C1683 1.491 . S
C1689 C1688 1.400 . S
C1689 C1690 1.398 1_565 S
C1690 H1678 0.950 . S
C1690 C1689 1.398 1_545 S
C1690 C1691 1.391 . S
C1691 H1679 0.950 . S
C1691 C1687 1.393 1_545 S
C1691 C1690 1.391 . S
H1692 C1700 0.939 1_545 S
H1693 C1705 0.950 . S
H1694 C1702 1.002 . S
H1695 C1704 0.950 . S
H1696 C1706 0.950 . S
H1697 C1708 0.950 . S
H1698 C1710 0.950 . S
H1699 C1711 0.950 . S
C1700 H1692 0.939 1_565 S
C1700 C1701 1.429 . S
C1700 C1702 1.326 1_565 S
C1701 C1700 1.429 . S
C1701 C1705 1.393 . S
C1702 H1694 1.002 . S
C1702 C1700 1.326 1_545 S
C1702 C1703 1.389 1_545 S
C1703 C1702 1.389 1_565 S
C1703 C1704 1.398 . S
C1703 C1709 1.491 . S
C1704 H1695 0.950 . S
C1704 C1703 1.398 . S
C1704 C1705 1.391 . S
C1705 H1693 0.950 . S
C1705 C1701 1.393 . S
C1705 C1704 1.391 . S
C1706 H1696 0.950 . S
C1706 C1707 1.386 . S
C1706 C1708 1.391 . S
C1707 C1706 1.386 . S
C1707 C1711 1.393 1_565 S
C1708 H1697 0.950 . S
C1708 C1706 1.391 . S
C1708 C1709 1.400 . S
C1709 C1703 1.491 . S
C1709 C1708 1.400 . S
C1709 C1710 1.398 1_565 S
C1710 H1698 0.950 . S
C1710 C1709 1.398 1_545 S
C1710 C1711 1.391 . S
C1711 H1699 0.950 . S
C1711 C1707 1.393 1_545 S
C1711 C1710 1.391 . S
H1712 C1720 0.950 . S
H1713 C1725 0.950 . S
H1714 C1722 0.950 . S
H1715 C1724 0.950 . S
H1716 C1726 0.950 . S
H1717 C1728 0.950 . S
H1718 C1730 0.950 . S
H1719 C1731 0.950 . S
C1720 H1712 0.950 . S
C1720 C1721 1.386 1_655 S
C1720 C1722 1.391 . S
C1721 C1720 1.386 1_455 S
C1721 C1725 1.393 . S
C1722 H1714 0.950 . S
C1722 C1720 1.391 . S
C1722 C1723 1.400 1_655 S
C1723 C1722 1.400 1_455 S
C1723 C1724 1.398 . S
C1723 C1729 1.491 . S
C1724 H1715 0.950 . S
C1724 C1723 1.398 . S
C1724 C1725 1.391 . S
C1725 H1713 0.950 . S
C1725 C1721 1.393 . S
C1725 C1724 1.391 . S
C1726 H1716 0.950 . S
C1726 C1727 1.386 . S
C1726 C1728 1.391 . S
C1727 C1726 1.386 . S
C1727 C1731 1.393 1_455 S
C1728 H1717 0.950 . S
C1728 C1726 1.391 . S
C1728 C1729 1.400 . S
C1729 C1723 1.491 . S
C1729 C1728 1.400 . S
C1729 C1730 1.398 1_455 S
C1730 H1718 0.950 . S
C1730 C1729 1.398 1_655 S
C1730 C1731 1.391 . S
C1731 H1719 0.950 . S
C1731 C1727 1.393 1_655 S
C1731 C1730 1.391 . S
H1732 C1740 0.950 . S
H1733 C1745 0.950 . S
H1734 C1742 0.950 . S
H1735 C1744 0.950 . S
H1736 C1746 0.950 . S
H1737 C1748 0.950 . S
H1738 C1750 0.950 . S
H1739 C1751 0.950 . S
C1740 H1732 0.950 . S
C1740 C1741 1.386 . S
C1740 C1742 1.391 . S
C1741 C1740 1.386 . S
C1741 C1745 1.393 . S
C1742 H1734 0.950 . S
C1742 C1740 1.391 . S
C1742 C1743 1.400 . S
C1743 C1742 1.400 . S
C1743 C1744 1.398 . S
C1743 C1749 1.491 . S
C1744 H1735 0.950 . S
C1744 C1743 1.398 . S
C1744 C1745 1.391 . S
C1745 H1733 0.950 . S
C1745 C1741 1.393 . S
C1745 C1744 1.391 . S
C1746 H1736 0.950 . S
C1746 C1747 1.386 . S
C1746 C1748 1.391 . S
C1747 C1746 1.386 . S
C1747 C1751 1.393 . S
C1748 H1737 0.950 . S
C1748 C1746 1.391 . S
C1748 C1749 1.400 . S
C1749 C1743 1.491 . S
C1749 C1748 1.400 . S
C1749 C1750 1.398 . S
C1750 H1738 0.950 . S
C1750 C1749 1.398 . S
C1750 C1751 1.391 . S
C1751 H1739 0.950 . S
C1751 C1747 1.393 . S
C1751 C1750 1.391 . S
H1752 C1760 0.950 . S
H1753 C1765 0.950 . S
H1754 C1762 0.950 . S
H1755 C1764 0.950 . S
H1756 C1766 0.950 . S
H1757 C1768 0.950 . S
H1758 C1770 0.950 . S
H1759 C1771 0.950 . S
C1760 H1752 0.950 . S
C1760 C1761 1.386 . S
C1760 C1762 1.391 . S
C1761 C1760 1.386 . S
C1761 C1765 1.393 . S
C1762 H1754 0.950 . S
C1762 C1760 1.391 . S
C1762 C1763 1.400 . S
C1763 C1762 1.400 . S
C1763 C1764 1.398 . S
C1763 C1769 1.491 . S
C1764 H1755 0.950 . S
C1764 C1763 1.398 . S
C1764 C1765 1.391 . S
C1765 H1753 0.950 . S
C1765 C1761 1.393 . S
C1765 C1764 1.391 . S
C1766 H1756 0.950 . S
C1766 C1767 1.386 . S
C1766 C1768 1.391 . S
C1767 C1766 1.386 . S
C1767 C1771 1.393 . S
C1768 H1757 0.950 . S
C1768 C1766 1.391 . S
C1768 C1769 1.400 . S
C1769 C1763 1.491 . S
C1769 C1768 1.400 . S
C1769 C1770 1.398 . S
C1770 H1758 0.950 . S
C1770 C1769 1.398 . S
C1770 C1771 1.391 . S
C1771 H1759 0.950 . S
C1771 C1767 1.393 . S
C1771 C1770 1.391 . S
H1772 C1780 0.950 . S
H1773 C1785 0.950 . S
H1774 C1782 0.950 . S
H1775 C1784 0.950 . S
H1776 C1786 0.950 . S
H1777 C1788 0.950 . S
H1778 C1790 0.950 . S
H1779 C1791 0.950 . S
C1780 H1772 0.950 . S
C1780 C1781 1.386 . S
C1780 C1782 1.391 . S
C1781 C1780 1.386 . S
C1781 C1785 1.393 . S
C1782 H1774 0.950 . S
C1782 C1780 1.391 . S
C1782 C1783 1.400 . S
C1783 C1782 1.400 . S
C1783 C1784 1.398 . S
C1783 C1789 1.491 . S
C1784 H1775 0.950 . S
C1784 C1783 1.398 . S
C1784 C1785 1.391 . S
C1785 H1773 0.950 . S
C1785 C1781 1.393 . S
C1785 C1784 1.391 . S
C1786 H1776 0.950 . S
C1786 C1787 1.386 . S
C1786 C1788 1.391 . S
C1787 C1786 1.386 . S
C1787 C1791 1.393 . S
C1788 H1777 0.950 . S
C1788 C1786 1.391 . S
C1788 C1789 1.400 . S
C1789 C1783 1.491 . S
C1789 C1788 1.400 . S
C1789 C1790 1.398 . S
C1790 H1778 0.950 . S
C1790 C1789 1.398 . S
C1790 C1791 1.391 . S
C1791 H1779 0.950 . S
C1791 C1787 1.393 . S
C1791 C1790 1.391 . S
H1792 C1800 0.950 . S
H1793 C1805 0.950 . S
H1794 C1802 0.950 . S
H1795 C1804 0.950 . S
H1796 C1806 0.950 . S
H1797 C1808 0.950 . S
H1798 C1810 0.950 . S
H1799 C1811 0.950 . S
C1800 H1792 0.950 . S
C1800 C1801 1.386 . S
C1800 C1802 1.391 . S
C1801 C1800 1.386 . S
C1801 C1805 1.393 . S
C1802 H1794 0.950 . S
C1802 C1800 1.391 . S
C1802 C1803 1.400 . S
C1803 C1802 1.400 . S
C1803 C1804 1.398 . S
C1803 C1809 1.491 . S
C1804 H1795 0.950 . S
C1804 C1803 1.398 . S
C1804 C1805 1.391 . S
C1805 H1793 0.950 . S
C1805 C1801 1.393 . S
C1805 C1804 1.391 . S
C1806 H1796 0.950 . S
C1806 C1807 1.386 . S
C1806 C1808 1.391 . S
C1807 C1806 1.386 . S
C1807 C1811 1.393 . S
C1808 H1797 0.950 . S
C1808 C1806 1.391 . S
C1808 C1809 1.400 . S
C1809 C1803 1.491 . S
C1809 C1808 1.400 . S
C1809 C1810 1.398 . S
C1810 H1798 0.950 . S
C1810 C1809 1.398 . S
C1810 C1811 1.391 . S
C1811 H1799 0.950 . S
C1811 C1807 1.393 . S
C1811 C1810 1.391 . S
H1812 C1820 0.950 . S
H1813 C1825 0.950 . S
H1814 C1822 0.950 . S
H1815 C1824 0.950 . S
H1816 C1826 0.950 . S
H1817 C1828 0.962 1_565 S
H1818 C1830 0.950 . S
H1819 C1831 0.950 . S
C1820 H1812 0.950 . S
C1820 C1821 1.386 . S
C1820 C1822 1.391 . S
C1821 C1820 1.386 . S
C1821 C1825 1.393 . S
C1822 H1814 0.950 . S
C1822 C1820 1.391 . S
C1822 C1823 1.400 . S
C1823 C1822 1.400 . S
C1823 C1824 1.398 . S
C1823 C1829 1.491 . S
C1824 H1815 0.950 . S
C1824 C1823 1.398 . S
C1824 C1825 1.391 . S
C1825 H1813 0.950 . S
C1825 C1821 1.393 . S
C1825 C1824 1.391 . S
C1826 H1816 0.950 . S
C1826 C1827 1.386 1_565 S
C1826 C1828 1.351 1_565 S
C1827 C1826 1.386 1_545 S
C1827 C1831 1.393 . S
C1828 H1817 0.962 1_545 S
C1828 C1826 1.351 1_545 S
C1828 C1829 1.433 . S
C1829 C1823 1.491 . S
C1829 C1828 1.433 . S
C1829 C1830 1.398 . S
C1830 H1818 0.950 . S
C1830 C1829 1.398 . S
C1830 C1831 1.391 . S
C1831 H1819 0.950 . S
C1831 C1827 1.393 . S
C1831 C1830 1.391 . S
H1832 C1840 0.950 . S
H1833 C1845 0.950 . S
H1834 C1842 0.950 . S
H1835 C1844 0.950 . S
H1836 C1846 0.950 . S
H1837 C1848 0.950 . S
H1838 C1850 0.950 . S
H1839 C1851 0.950 . S
C1840 H1832 0.950 . S
C1840 C1841 1.386 . S
C1840 C1842 1.391 . S
C1841 C1840 1.386 . S
C1841 C1845 1.393 1_655 S
C1842 H1834 0.950 . S
C1842 C1840 1.391 . S
C1842 C1843 1.400 . S
C1843 C1842 1.400 . S
C1843 C1844 1.398 1_655 S
C1843 C1849 1.491 . S
C1844 H1835 0.950 . S
C1844 C1843 1.398 1_455 S
C1844 C1845 1.391 . S
C1845 H1833 0.950 . S
C1845 C1841 1.393 1_455 S
C1845 C1844 1.391 . S
C1846 H1836 0.950 . S
C1846 C1847 1.386 1_455 S
C1846 C1848 1.391 . S
C1847 C1846 1.386 1_655 S
C1847 C1851 1.393 . S
C1848 H1837 0.950 . S
C1848 C1846 1.391 . S
C1848 C1849 1.400 1_455 S
C1849 C1843 1.491 . S
C1849 C1848 1.400 1_655 S
C1849 C1850 1.398 . S
C1850 H1838 0.950 . S
C1850 C1849 1.398 . S
C1850 C1851 1.391 . S
C1851 H1839 0.950 . S
C1851 C1847 1.393 . S
C1851 C1850 1.391 . S
H1852 C1860 0.950 . S
H1853 C1865 0.950 . S
H1854 C1862 0.950 . S
H1855 C1864 0.950 . S
H1856 C1866 0.950 . S
H1857 C1868 0.950 . S
H1858 C1870 0.950 . S
H1859 C1871 0.950 . S
C1860 H1852 0.950 . S
C1860 C1861 1.386 . S
C1860 C1862 1.391 . S
C1861 C1860 1.386 . S
C1861 C1865 1.393 . S
C1862 H1854 0.950 . S
C1862 C1860 1.391 . S
C1862 C1863 1.400 . S
C1863 C1862 1.400 . S
C1863 C1864 1.398 . S
C1863 C1869 1.491 . S
C1864 H1855 0.950 . S
C1864 C1863 1.398 . S
C1864 C1865 1.391 . S
C1865 H1853 0.950 . S
C1865 C1861 1.393 . S
C1865 C1864 1.391 . S
C1866 H1856 0.950 . S
C1866 C1867 1.386 . S
C1866 C1868 1.391 . S
C1867 C1866 1.386 . S
C1867 C1871 1.393 . S
C1868 H1857 0.950 . S
C1868 C1866 1.391 . S
C1868 C1869 1.400 . S
C1869 C1863 1.491 . S
C1869 C1868 1.400 . S
C1869 C1870 1.398 . S
C1870 H1858 0.950 . S
C1870 C1869 1.398 . S
C1870 C1871 1.391 . S
C1871 H1859 0.950 . S
C1871 C1867 1.393 . S
C1871 C1870 1.391 . S
H1872 C1880 0.950 . S
H1873 C1885 0.950 . S
H1874 C1882 0.950 . S
H1875 C1884 0.950 . S
H1876 C1886 0.950 . S
H1877 C1888 0.950 . S
H1878 C1890 0.950 . S
H1879 C1891 0.950 . S
C1880 H1872 0.950 . S
C1880 C1881 1.386 . S
C1880 C1882 1.391 . S
C1881 C1880 1.386 . S
C1881 C1885 1.393 . S
C1882 H1874 0.950 . S
C1882 C1880 1.391 . S
C1882 C1883 1.400 . S
C1883 C1882 1.400 . S
C1883 C1884 1.398 . S
C1883 C1889 1.491 . S
C1884 H1875 0.950 . S
C1884 C1883 1.398 . S
C1884 C1885 1.391 . S
C1885 H1873 0.950 . S
C1885 C1881 1.393 . S
C1885 C1884 1.391 . S
C1886 H1876 0.950 . S
C1886 C1887 1.386 . S
C1886 C1888 1.391 . S
C1887 C1886 1.386 . S
C1887 C1891 1.393 . S
C1888 H1877 0.950 . S
C1888 C1886 1.391 . S
C1888 C1889 1.400 . S
C1889 C1883 1.491 . S
C1889 C1888 1.400 . S
C1889 C1890 1.398 . S
C1890 H1878 0.950 . S
C1890 C1889 1.398 . S
C1890 C1891 1.391 . S
C1891 H1879 0.950 . S
C1891 C1887 1.393 . S
C1891 C1890 1.391 . S
H1892 C1900 0.950 . S
H1893 C1905 0.950 . S
H1894 C1902 0.950 . S
H1895 C1904 0.950 . S
H1896 C1906 0.950 . S
H1897 C1908 0.950 . S
H1898 C1910 0.950 . S
H1899 C1911 0.950 . S
C1900 H1892 0.950 . S
C1900 C1901 1.386 . S
C1900 C1902 1.391 . S
C1901 C1900 1.386 . S
C1901 C1905 1.393 . S
C1902 H1894 0.950 . S
C1902 C1900 1.391 . S
C1902 C1903 1.400 . S
C1903 C1902 1.400 . S
C1903 C1904 1.398 . S
C1903 C1909 1.491 . S
C1904 H1895 0.950 . S
C1904 C1903 1.398 . S
C1904 C1905 1.391 . S
C1905 H1893 0.950 . S
C1905 C1901 1.393 . S
C1905 C1904 1.391 . S
C1906 H1896 0.950 . S
C1906 C1907 1.386 . S
C1906 C1908 1.391 . S
C1907 C1906 1.386 . S
C1907 C1911 1.393 . S
C1908 H1897 0.950 . S
C1908 C1906 1.391 . S
C1908 C1909 1.400 . S
C1909 C1903 1.491 . S
C1909 C1908 1.400 . S
C1909 C1910 1.398 . S
C1910 H1898 0.950 . S
C1910 C1909 1.398 . S
C1910 C1911 1.391 . S
C1911 H1899 0.950 . S
C1911 C1907 1.393 . S
C1911 C1910 1.391 . S
H1912 C1920 0.950 . S
H1913 C1925 0.950 . S
H1914 C1922 0.950 . S
H1915 C1924 0.950 . S
H1916 C1926 0.950 . S
H1917 C1928 0.950 . S
H1918 C1930 0.950 . S
H1919 C1931 0.950 . S
C1920 H1912 0.950 . S
C1920 C1921 1.386 . S
C1920 C1922 1.391 . S
C1921 C1920 1.386 . S
C1921 C1925 1.393 . S
C1922 H1914 0.950 . S
C1922 C1920 1.391 . S
C1922 C1923 1.400 . S
C1923 C1922 1.400 . S
C1923 C1924 1.398 . S
C1923 C1929 1.491 . S
C1924 H1915 0.950 . S
C1924 C1923 1.398 . S
C1924 C1925 1.391 . S
C1925 H1913 0.950 . S
C1925 C1921 1.393 . S
C1925 C1924 1.391 . S
C1926 H1916 0.950 . S
C1926 C1927 1.386 . S
C1926 C1928 1.391 . S
C1927 C1926 1.386 . S
C1927 C1931 1.393 . S
C1928 H1917 0.950 . S
C1928 C1926 1.391 . S
C1928 C1929 1.400 . S
C1929 C1923 1.491 . S
C1929 C1928 1.400 . S
C1929 C1930 1.398 . S
C1930 H1918 0.950 . S
C1930 C1929 1.398 . S
C1930 C1931 1.391 . S
C1931 H1919 0.950 . S
C1931 C1927 1.393 . S
C1931 C1930 1.391 . S
H1932 C1940 0.950 . S
H1933 C1945 0.950 . S
H1934 C1942 0.950 . S
H1935 C1944 0.950 . S
H1936 C1946 0.950 . S
H1937 C1948 0.950 . S
H1938 C1950 0.950 . S
H1939 C1951 0.950 . S
C1940 H1932 0.950 . S
C1940 C1941 1.386 . S
C1940 C1942 1.391 . S
C1941 C1940 1.386 . S
C1941 C1945 1.393 . S
C1942 H1934 0.950 . S
C1942 C1940 1.391 . S
C1942 C1943 1.400 . S
C1943 C1942 1.400 . S
C1943 C1944 1.398 . S
C1943 C1949 1.491 . S
C1944 H1935 0.950 . S
C1944 C1943 1.398 . S
C1944 C1945 1.391 . S
C1945 H1933 0.950 . S
C1945 C1941 1.393 . S
C1945 C1944 1.391 . S
C1946 H1936 0.950 . S
C1946 C1947 1.386 . S
C1946 C1948 1.391 . S
C1947 C1946 1.386 . S
C1947 C1951 1.393 . S
C1948 H1937 0.950 . S
C1948 C1946 1.391 . S
C1948 C1949 1.400 . S
C1949 C1943 1.491 . S
C1949 C1948 1.400 . S
C1949 C1950 1.398 . S
C1950 H1938 0.950 . S
C1950 C1949 1.398 . S
C1950 C1951 1.391 . S
C1951 H1939 0.950 . S
C1951 C1947 1.393 . S
C1951 C1950 1.391 . S
H1952 C1960 0.950 . S
H1953 C1965 0.950 . S
H1954 C1962 0.950 . S
H1955 C1964 0.950 . S
H1956 C1966 0.950 . S
H1957 C1968 0.950 . S
H1958 C1970 0.950 . S
H1959 C1971 0.950 . S
C1960 H1952 0.950 . S
C1960 C1961 1.386 . S
C1960 C1962 1.391 . S
C1961 C1960 1.386 . S
C1961 C1965 1.393 . S
C1962 H1954 0.950 . S
C1962 C1960 1.391 . S
C1962 C1963 1.400 . S
C1963 C1962 1.400 . S
C1963 C1964 1.398 . S
C1963 C1969 1.491 . S
C1964 H1955 0.950 . S
C1964 C1963 1.398 . S
C1964 C1965 1.391 . S
C1965 H1953 0.950 . S
C1965 C1961 1.393 . S
C1965 C1964 1.391 . S
C1966 H1956 0.950 . S
C1966 C1967 1.386 . S
C1966 C1968 1.391 . S
C1967 C1966 1.386 . S
C1967 C1971 1.393 . S
C1968 H1957 0.950 . S
C1968 C1966 1.391 . S
C1968 C1969 1.400 . S
C1969 C1963 1.491 . S
C1969 C1968 1.400 . S
C1969 C1970 1.398 . S
C1970 H1958 0.950 . S
C1970 C1969 1.398 . S
C1970 C1971 1.391 . S
C1971 H1959 0.950 . S
C1971 C1967 1.393 . S
C1971 C1970 1.391 . S
H1972 C1980 0.950 . S
H1973 C1985 0.950 . S
H1974 C1982 0.950 . S
H1975 C1984 0.950 . S
H1976 C1986 0.950 . S
H1977 C1988 0.950 . S
H1978 C1990 0.950 . S
H1979 C1991 0.950 . S
C1980 H1972 0.950 . S
C1980 C1981 1.386 . S
C1980 C1982 1.391 . S
C1981 C1980 1.386 . S
C1981 C1985 1.393 . S
C1982 H1974 0.950 . S
C1982 C1980 1.391 . S
C1982 C1983 1.400 . S
C1983 C1982 1.400 . S
C1983 C1984 1.398 . S
C1983 C1989 1.491 . S
C1984 H1975 0.950 . S
C1984 C1983 1.398 . S
C1984 C1985 1.391 . S
C1985 H1973 0.950 . S
C1985 C1981 1.393 . S
C1985 C1984 1.391 . S
C1986 H1976 0.950 . S
C1986 C1987 1.386 . S
C1986 C1988 1.391 . S
C1987 C1986 1.386 . S
C1987 C1991 1.393 . S
C1988 H1977 0.950 . S
C1988 C1986 1.391 . S
C1988 C1989 1.400 . S
C1989 C1983 1.491 . S
C1989 C1988 1.400 . S
C1989 C1990 1.398 . S
C1990 H1978 0.950 . S
C1990 C1989 1.398 . S
C1990 C1991 1.391 . S
C1991 H1979 0.950 . S
C1991 C1987 1.393 . S
C1991 C1990 1.391 . S
H1992 C2000 0.950 . S
H1993 C2005 0.950 1_455 S
H1994 C2002 0.950 . S
H1995 C2004 0.950 1_455 S
H1996 C2006 0.950 . S
H1997 C2008 0.950 . S
H1998 C2010 0.950 . S
H1999 C2011 0.950 . S
C2000 H1992 0.950 . S
C2000 C2001 1.386 . S
C2000 C2002 1.391 . S
C2001 C2000 1.386 . S
C2001 C2005 1.393 . S
C2002 H1994 0.950 . S
C2002 C2000 1.391 . S
C2002 C2003 1.400 . S
C2003 C2002 1.400 . S
C2003 C2004 1.398 . S
C2003 C2009 1.491 . S
C2004 H1995 0.950 1_655 S
C2004 C2003 1.398 . S
C2004 C2005 1.391 . S
C2005 H1993 0.950 1_655 S
C2005 C2001 1.393 . S
C2005 C2004 1.391 . S
C2006 H1996 0.950 . S
C2006 C2007 1.386 1_455 S
C2006 C2008 1.391 . S
C2007 C2006 1.386 1_655 S
C2007 C2011 1.393 . S
C2008 H1997 0.950 . S
C2008 C2006 1.391 . S
C2008 C2009 1.400 1_455 S
C2009 C2003 1.491 . S
C2009 C2008 1.400 1_655 S
C2009 C2010 1.398 . S
C2010 H1998 0.950 . S
C2010 C2009 1.398 . S
C2010 C2011 1.391 . S
C2011 H1999 0.950 . S
C2011 C2007 1.393 . S
C2011 C2010 1.391 . S
H2012 C2020 0.950 . S
H2013 C2025 0.950 . S
H2014 C2022 0.950 . S
H2015 C2024 0.950 . S
H2016 C2026 0.950 . S
H2017 C2028 0.950 . S
H2018 C2030 0.950 . S
H2019 C2031 0.950 . S
C2020 H2012 0.950 . S
C2020 C2021 1.386 . S
C2020 C2022 1.391 . S
C2021 C2020 1.386 . S
C2021 C2025 1.393 . S
C2022 H2014 0.950 . S
C2022 C2020 1.391 . S
C2022 C2023 1.400 . S
C2023 C2022 1.400 . S
C2023 C2024 1.398 . S
C2023 C2029 1.491 . S
C2024 H2015 0.950 . S
C2024 C2023 1.398 . S
C2024 C2025 1.391 . S
C2025 H2013 0.950 . S
C2025 C2021 1.393 . S
C2025 C2024 1.391 . S
C2026 H2016 0.950 . S
C2026 C2027 1.386 . S
C2026 C2028 1.391 . S
C2027 C2026 1.386 . S
C2027 C2031 1.393 . S
C2028 H2017 0.950 . S
C2028 C2026 1.391 . S
C2028 C2029 1.400 . S
C2029 C2023 1.491 . S
C2029 C2028 1.400 . S
C2029 C2030 1.398 . S
C2030 H2018 0.950 . S
C2030 C2029 1.398 . S
C2030 C2031 1.391 . S
C2031 H2019 0.950 . S
C2031 C2027 1.393 . S
C2031 C2030 1.391 . S
H2032 C2040 0.950 . S
H2033 C2045 0.950 . S
H2034 C2042 0.950 . S
H2035 C2044 0.950 . S
H2036 C2046 0.950 . S
H2037 C2048 0.942 1_565 S
H2038 C2050 0.950 . S
H2039 C2051 0.950 . S
C2040 H2032 0.950 . S
C2040 C2041 1.386 . S
C2040 C2042 1.391 . S
C2041 C2040 1.386 . S
C2041 C2045 1.393 . S
C2042 H2034 0.950 . S
C2042 C2040 1.391 . S
C2042 C2043 1.400 . S
C2043 C2042 1.400 . S
C2043 C2044 1.398 . S
C2043 C2049 1.491 . S
C2044 H2035 0.950 . S
C2044 C2043 1.398 . S
C2044 C2045 1.391 . S
C2045 H2033 0.950 . S
C2045 C2041 1.393 . S
C2045 C2044 1.391 . S
C2046 H2036 0.950 . S
C2046 C2047 1.376 1_565 S
C2046 C2048 1.410 1_565 S
C2047 C2046 1.376 1_545 S
C2047 C2051 1.384 . S
C2048 H2037 0.942 1_545 S
C2048 C2046 1.410 1_545 S
C2048 C2049 1.392 . S
C2049 C2043 1.491 . S
C2049 C2048 1.392 . S
C2049 C2050 1.398 . S
C2050 H2038 0.950 . S
C2050 C2049 1.398 . S
C2050 C2051 1.391 . S
C2051 H2039 0.950 . S
C2051 C2047 1.384 . S
C2051 C2050 1.391 . S
C621 C8 1.518 . S
C627 C440 1.520 1_655 S
C641 C18 1.535 . S
C647 C453 1.533 . S
C667 C482 1.518 1_545 S
C661 C31 1.509 . S
C681 C34 1.524 . S
C687 C495 1.538 . S
C701 C5 1.530 . S
C707 C516 1.532 . S
C721 C21 1.513 . S
C727 C545 1.525 . S
C741 C47 1.484 . S
C747 C524 1.501 . S
C767 C537 1.508 . S
C761 C57 1.504 . S
C787 C503 1.524 . S
C781 C70 1.536 . S
C801 C73 1.484 . S
C807 C474 1.528 1_545 S
C827 C432 1.541 1_655 S
C821 C44 1.516 . S
C841 C60 1.511 . S
C847 C461 1.533 . S
C861 C86 1.565 . S
C867 C566 1.552 . S
C881 C96 1.551 . S
C887 C579 1.543 . S
C907 C608 1.531 . S
C901 C109 1.580 . S
C921 C112 1.554 . S
C927 C243 1.592 . S
C941 C83 1.577 . S
C947 C264 1.586 . S
C961 C99 1.550 . S
C967 C293 1.541 . S
C981 C125 1.502 . S
C987 C272 1.528 . S
C1001 C135 1.523 . S
C1007 C285 1.540 . S
C1027 C251 1.560 . S
C1021 C148 1.573 . S
C1047 C600 1.550 . S
C1041 C151 1.559 . S
C1067 C558 1.518 . S
C1061 C122 1.561 . S
C1087 C587 1.564 . S
C1081 C138 1.547 . S
C1101 C164 1.522 . S
C1107 C314 1.531 . S
C1121 C174 1.537 . S
C1127 C327 1.538 . S
C1141 C187 1.590 . S
C1147 C356 1.524 . S
C1161 C190 1.580 . S
C1167 C369 1.616 . S
C1187 C390 1.577 . S
C1181 C161 1.586 . S
C1207 C419 1.542 . S
C1201 C177 1.539 . S
C1227 C398 1.574 . S
C1221 C203 1.551 . S
C1247 C411 1.518 . S
C1241 C213 1.536 . S
C1261 C226 1.562 . S
C1267 C377 1.546 . S
C1287 C348 1.526 . S
C1281 C229 1.537 . S
C1301 C200 1.577 . S
C1307 C306 1.536 . S
C1327 C335 1.557 . S
C1321 C216 1.534 . S
C1347 C246 1.302 . S
C1341 C0 1.343 . S
C1361 C23 1.342 . S
C1367 C267 1.251 . S
C1387 C295 1.300 . S
C1381 C36 1.395 . S
C1407 C316 1.313 . S
C1401 C26 1.360 1_556 S
C1427 C330 1.264 . S
C1421 C10 1.361 1_556 S
C1447 C358 1.220 . S
C1441 C13 1.319 . S
C1461 C39 1.377 . S
C1467 C351 1.245 . S
C1481 C62 1.355 . S
C1487 C309 1.218 . S
C1501 C75 1.383 . S
C1507 C337 1.283 . S
C1521 C65 1.403 . S
C1527 C274 1.354 . S
C1547 C288 1.187 . S
C1541 C49 1.370 . S
C1561 C52 1.330 . S
C1567 C253 1.317 . S
C1587 C372 1.311 . S
C1581 C78 1.357 . S
C1601 C101 1.390 . S
C1607 C393 1.266 . S
C1621 C114 1.416 . S
C1627 C421 1.297 . S
C1647 C442 1.249 . S
C1641 C104 1.307 . S
C1661 C88 1.352 . S
C1667 C456 1.224 . S
C1681 C91 1.266 . S
C1687 C484 1.179 . S
C1701 C117 1.300 . S
C1707 C477 1.208 . S
C1721 C140 1.317 . S
C1727 C435 1.196 . S
C1747 C463 1.301 . S
C1741 C153 1.395 . S
C1761 C143 1.379 . S
C1767 C400 1.346 . S
C1781 C127 1.423 . S
C1787 C414 1.273 . S
C1807 C379 1.328 . S
C1801 C130 1.394 . S
C1827 C498 1.193 1_545 S
C1821 C156 1.320 . S
C1841 C179 1.301 . S
C1847 C519 1.205 1_655 S
C1861 C192 1.382 . S
C1867 C547 1.271 . S
C1887 C568 1.286 . S
C1881 C182 1.356 . S
C1907 C582 1.275 . S
C1901 C166 1.407 . S
C1921 C169 1.362 . S
C1927 C610 1.261 . S
C1941 C195 1.367 . S
C1947 C603 1.253 . S
C1961 C218 1.415 . S
C1967 C561 1.267 . S
C1987 C589 1.341 . S
C1981 C231 1.424 . S
C2007 C526 1.256 1_655 S
C2001 C221 1.303 . S
C2027 C540 1.204 . S
C2021 C205 1.371 . S
C2041 C208 1.295 . S
C2047 C505 1.229 1_545 S
