# Generated by pormake.
# Topology tsx, (6,3)-cn, num edge types: 1
# Building blocks:
#     Node 0, Type 0, BuildingBlock: JUFBIX_clean_sbu_0, # of connection points: 6
#     Node 1, Type 0, BuildingBlock: JUFBIX_clean_sbu_0, # of connection points: 6
#     Node 2, Type 1, BuildingBlock: BETDAH_clean_linker_0, # of connection points: 3
#     Node 3, Type 1, BuildingBlock: BETDAH_clean_linker_0, # of connection points: 3
#     Node 4, Type 1, BuildingBlock: BETDAH_clean_linker_0, # of connection points: 3
#     Node 5, Type 1, BuildingBlock: BETDAH_clean_linker_0, # of connection points: 3
#     Edge 6, Type (0, 1), BuildingBlock: KIFKEQ_clean_linker_1, # of connection points: 2
#     Edge 7, Type (0, 1), BuildingBlock: KIFKEQ_clean_linker_1, # of connection points: 2
#     Edge 8, Type (0, 1), BuildingBlock: KIFKEQ_clean_linker_1, # of connection points: 2
#     Edge 9, Type (0, 1), BuildingBlock: KIFKEQ_clean_linker_1, # of connection points: 2
#     Edge 10, Type (0, 1), BuildingBlock: KIFKEQ_clean_linker_1, # of connection points: 2
#     Edge 11, Type (0, 1), BuildingBlock: KIFKEQ_clean_linker_1, # of connection points: 2
#     Edge 12, Type (0, 1), BuildingBlock: KIFKEQ_clean_linker_1, # of connection points: 2
#     Edge 13, Type (0, 1), BuildingBlock: KIFKEQ_clean_linker_1, # of connection points: 2
#     Edge 14, Type (0, 1), BuildingBlock: KIFKEQ_clean_linker_1, # of connection points: 2
#     Edge 15, Type (0, 1), BuildingBlock: KIFKEQ_clean_linker_1, # of connection points: 2
#     Edge 16, Type (0, 1), BuildingBlock: KIFKEQ_clean_linker_1, # of connection points: 2
#     Edge 17, Type (0, 1), BuildingBlock: KIFKEQ_clean_linker_1, # of connection points: 2
# Relax obj value: 0.101
# Max RMSD: 0.126
# Mean RMSD: 0.113
data_MOF--net-tsx--node1-JUFBIX_clean_sbu_0--node2-BETDAH_clean_linker_0--edge1-KIFKEQ_clean_linker_1
_symmetry_space_group_name_H-M    P1
_symmetry_Int_Tables_number       1
_symmetry_cell_setting            triclinic
loop_
_symmetry_equiv_pos_as_xyz
'x, y, z'
_cell_length_a     20.495554
_cell_length_b     24.44688
_cell_length_c     33.413672
_cell_angle_alpha  91.869981
_cell_angle_beta   97.495001
_cell_angle_gamma 98.920915
loop_
_atom_site_label
_atom_site_type_symbol
_atom_site_fract_x
_atom_site_fract_y
_atom_site_fract_z
_atom_type_partial_charge
Co0 Co 0.02965 0.97758 -0.0073 0.0
C1 C 0.97607 0.01161 0.9174 0.0
Co2 Co 0.94696 0.02572 -0.00605 0.0
C3 C 0.11451 0.89083 -0.00588 0.0
C4 C 0.15753 0.96706 0.97152 0.0
N5 N 0.1034 0.94311 0.98732 0.0
N6 N 0.17368 0.88186 0.98352 0.0
C7 C 0.20069 0.9299 0.96943 0.0
H8 H 0.07951 0.85973 0.0059 0.0
H9 H 0.16436 0.00842 0.96059 0.0
C10 C 1.00312 0.99424 0.06934 0.0
N11 N 0.87398 0.06022 -0.00107 0.0
C12 C 0.86031 0.10959 0.9862 0.0
C13 C 0.82314 0.04044 0.01903 0.0
N14 N 0.803 0.12142 -0.00219 0.0
C15 C 0.7795 0.07772 0.0183 0.0
C16 C 0.90952 0.90931 0.98505 0.0
O17 O 0.04165 0.97169 0.04942 0.0
O18 O 0.9585 0.01827 0.05062 0.0
O19 O 0.8896 0.95596 0.98641 0.0
O20 O 0.97158 0.90808 0.98655 0.0
O21 O 0.93696 0.03377 0.9371 0.0
H22 H 0.81848 1.00155 0.03377 0.0
H23 H 0.89266 0.1368 0.96964 0.0
O24 O 0.01763 0.98453 0.93606 0.0
O25 O 0.08635 0.04741 -0.00021 0.0
O26 O 1.00474 0.09502 0.00188 0.0
C27 C 0.06673 0.09382 0.00355 0.0
H28 H 0.24699 0.93691 0.95666 0.0
H29 H 0.73376 0.07271 0.03167 0.0
Co30 Co 0.61257 0.48993 0.50943 0.0
C31 C 0.56645 0.50448 0.4291 0.0
Co32 Co 0.52572 0.53419 0.50116 0.0
C33 C 0.69964 0.4071 0.50081 0.0
C34 C 0.74391 0.47549 0.54222 0.0
N35 N 0.68802 0.45573 0.51674 0.0
N36 N 0.76044 0.3957 0.51576 0.0
C37 C 0.78828 0.4389 0.54169 0.0
H38 H 0.66351 0.37991 0.47961 0.0
H39 H 0.75156 0.51383 0.56055 0.0
C40 C 0.57212 0.52218 0.5814 0.0
N41 N 0.45039 0.56839 0.49602 0.0
C42 C 0.44053 0.61734 0.48053 0.0
C43 C 0.3954 0.55135 0.51342 0.0
N44 N 0.38207 0.63158 0.48823 0.0
C45 C 0.3535 0.58997 0.50869 0.0
C46 C 0.49351 0.41888 0.50439 0.0
O47 O 0.61553 0.49843 0.56691 0.0
O48 O 0.52788 0.53984 0.55745 0.0
O49 O 0.47058 0.46382 0.49889 0.0
O50 O 0.55631 0.42012 0.50952 0.0
O51 O 0.52444 0.52894 0.44456 0.0
H52 H 0.38757 0.51439 0.53025 0.0
H53 H 0.47701 0.64343 0.46592 0.0
O54 O 0.60873 0.48257 0.45211 0.0
O55 O 0.66785 0.56006 0.50939 0.0
O56 O 0.58169 0.60388 0.5039 0.0
C57 C 0.64433 0.60516 0.50717 0.0
H58 H 0.83738 0.4438 0.55913 0.0
H59 H 0.3063 0.58822 0.52025 0.0
H60 H 0.16298 0.95522 0.35948 0.0
H61 H 0.02725 0.0604 0.39333 0.0
H62 H 0.12184 0.96388 0.48201 0.0
C63 C 0.13817 0.97231 0.38255 0.0
C64 C 0.14832 0.95496 0.42211 0.0
C65 C 0.09417 0.0097 0.37186 0.0
C66 C 0.06155 0.03182 0.40159 0.0
C67 C 0.07287 0.01616 0.44173 0.0
C68 C 0.11561 0.97753 0.45151 0.0
N69 N 0.04081 0.03662 0.47293 0.0
C70 C 1.00054 0.07753 0.4694 0.0
H71 H 0.92267 0.97052 0.6205 0.0
H72 H 0.11206 0.07574 0.61907 0.0
H73 H 0.04148 0.94477 0.52762 0.0
C74 C 0.96605 0.98449 0.60589 0.0
C75 C 0.97491 0.95503 0.57095 0.0
C76 C 0.01598 0.02721 0.62439 0.0
C77 C 0.07306 0.04296 0.60533 0.0
C78 C 0.08194 0.01343 0.5701 0.0
C79 C 0.03352 0.96886 0.55382 0.0
N80 N 0.1411 0.02433 0.55202 0.0
C81 C 0.17997 0.07615 0.55223 0.0
H82 H 0.60696 0.45119 0.87445 0.0
H83 H 0.44329 0.54051 0.88161 0.0
H84 H 0.48915 0.42537 0.97137 0.0
C85 C 0.56799 0.46233 0.89062 0.0
C86 C 0.5548 0.43527 0.92573 0.0
C87 C 0.52787 0.5 0.87423 0.0
C88 C 0.47499 0.51199 0.89421 0.0
C89 C 0.46103 0.48481 0.92926 0.0
C90 C 0.50065 0.44645 0.94455 0.0
N91 N 0.40521 0.49233 0.94856 0.0
C92 C 0.37611 0.53996 0.94748 0.0
H93 H 0.4403 0.41079 0.14173 0.0
H94 H 0.57121 0.55002 0.10509 0.0
H95 H 0.41947 0.45452 0.01832 0.0
C96 C 0.45717 0.43678 0.11821 0.0
C97 C 0.4239 0.42712 0.07871 0.0
C98 C 0.51021 0.48096 0.12808 0.0
C99 C 0.53045 0.51585 0.09768 0.0
C100 C 0.49765 0.5059 0.05773 0.0
C101 C 0.44441 0.46212 0.04891 0.0
N102 N 0.5158 0.53839 0.02529 0.0
C103 C 0.56949 0.58111 0.02694 0.0
H104 H 0.20113 0.10297 0.00595 0.0
H105 H 0.04544 0.2 0.01999 0.0
H106 H 0.28481 0.18478 0.02367 0.0
H107 H 0.13009 0.2823 0.03849 0.0
H108 H 0.30489 0.4261 0.03029 0.0
H109 H 0.21669 0.34686 0.01054 0.0
H110 H 0.32914 0.24298 0.08488 0.0
H111 H 0.41804 0.32144 0.10347 0.0
C112 C 0.18466 0.14183 0.01274 0.0
C113 C 0.11655 0.14489 0.01177 0.0
C114 C 0.23278 0.18868 0.02319 0.0
C115 C 0.21412 0.23982 0.033 0.0
C116 C 0.14594 0.24344 0.03094 0.0
C117 C 0.09753 0.19634 0.02046 0.0
C118 C 0.31081 0.38623 0.04224 0.0
C119 C 0.36856 0.37993 0.06831 0.0
C120 C 0.26003 0.34105 0.03124 0.0
C121 C 0.26616 0.28865 0.04595 0.0
C122 C 0.32337 0.28267 0.07258 0.0
C123 C 0.37398 0.32776 0.08361 0.0
H124 H 0.10552 0.77698 0.97073 0.0
H125 H 0.30376 0.87166 -0.00555 0.0
H126 H 0.15303 0.69231 0.96149 0.0
H127 H 0.35131 0.78753 0.9857 0.0
H128 H 0.41274 0.64146 0.92054 0.0
H129 H 0.36122 0.7239 0.93085 0.0
H130 H 0.21783 0.62809 -0.00413 0.0
H131 H 0.26888 0.54574 0.98454 0.0
C132 C 0.15919 0.77951 0.97469 0.0
C133 C 0.20092 0.83098 0.98293 0.0
C134 C 0.18648 0.7311 0.9693 0.0
C135 C 0.25603 0.73327 0.97221 0.0
C136 C 0.29756 0.78453 0.98214 0.0
C137 C 0.27035 0.83272 0.98737 0.0
C138 C 0.36981 0.6383 0.93665 0.0
C139 C 0.34411 0.58784 0.95156 0.0
C140 C 0.34065 0.68538 0.94292 0.0
C141 C 0.28552 0.68268 0.96442 0.0
C142 C 0.25963 0.63153 0.97885 0.0
C143 C 0.28884 0.58451 0.97251 0.0
H144 H 0.93457 0.80373 -0.00141 0.0
H145 H 0.77412 0.89889 0.97461 0.0
H146 H 0.85338 0.72184 0.00752 0.0
H147 H 0.69379 0.81786 0.98399 0.0
H148 H 0.56027 0.65046 0.96733 0.0
H149 H 0.64459 0.72699 0.95329 0.0
H150 H 0.77686 0.69005 0.05702 0.0
H151 H 0.692 0.6126 0.07047 0.0
C152 C 0.88204 0.80702 -0.00529 0.0
C153 C 0.86085 0.85784 0.98581 0.0
C154 C 0.83562 0.76029 0.00024 0.0
C155 C 0.76711 0.76335 -0.00336 0.0
C156 C 0.74603 0.8138 0.98658 0.0
C157 C 0.79224 0.8604 0.98129 0.0
C158 C 0.60742 0.659 0.9871 0.0
C159 C 0.61994 0.62655 0.02012 0.0
C160 C 0.65563 0.70275 0.97915 0.0
C161 C 0.71743 0.71482 0.00411 0.0
C162 C 0.73006 0.6815 0.03699 0.0
C163 C 0.68153 0.63763 0.04496 0.0
H164 H 0.7196 0.1637 0.04261 0.0
H165 H 0.81798 0.19062 0.9365 0.0
H166 H 0.66276 0.24245 0.02803 0.0
H167 H 0.76147 0.27013 0.92224 0.0
H168 H 0.68983 0.43856 0.93016 0.0
H169 H 0.75402 0.36513 0.94973 0.0
H170 H 0.57453 0.26212 0.97486 0.0
H171 H 0.5102 0.3348 0.9547 0.0
C172 C 0.72898 0.18621 0.01607 0.0
C173 C 0.7728 0.17028 -0.00957 0.0
C174 C 0.6965 0.23149 0.00782 0.0
C175 C 0.70731 0.26219 0.97387 0.0
C176 C 0.75264 0.2475 0.94886 0.0
C177 C 0.78501 0.20195 0.95703 0.0
C178 C 0.66407 0.40018 0.93979 0.0
C179 C 0.59482 0.39253 0.94075 0.0
C180 C 0.70085 0.35821 0.95099 0.0
C181 C 0.66926 0.30789 0.96371 0.0
C182 C 0.6004 0.30076 0.96567 0.0
C183 C 0.56356 0.34252 0.95423 0.0
H184 H 0.62205 0.70562 0.53498 0.0
H185 H 0.76917 0.62456 0.48601 0.0
H186 H 0.70136 0.79146 0.54631 0.0
H187 H 0.84731 0.71117 0.49454 0.0
H188 H 0.99751 0.84923 0.56435 0.0
H189 H 0.9161 0.76615 0.54501 0.0
H190 H 0.76134 0.86758 0.52111 0.0
H191 H 0.8431 0.95033 0.54325 0.0
C192 C 0.67102 0.70663 0.52584 0.0
C193 C 0.68984 0.65846 0.51004 0.0
C194 C 0.7165 0.75599 0.53204 0.0
C195 C 0.78134 0.75853 0.52168 0.0
C196 C 0.79869 0.71066 0.504 0.0
C197 C 0.75376 0.66103 0.49876 0.0
C198 C 0.9461 0.85349 0.55457 0.0
C199 C 0.9262 0.90576 0.55522 0.0
C200 C 0.89931 0.80595 0.54317 0.0
C201 C 0.83169 0.80976 0.53135 0.0
C202 C 0.8125 0.86269 0.53077 0.0
C203 C 0.85923 0.91017 0.54307 0.0
H204 H 0.84638 0.34964 0.56737 0.0
H205 H 0.74057 0.33106 0.44603 0.0
H206 H 0.90022 0.2706 0.55372 0.0
H207 H 0.79381 0.25034 0.43244 0.0
H208 H 0.97183 0.15366 0.4151 0.0
H209 H 0.90761 0.229 0.42475 0.0
H210 H 0.87262 0.17025 0.54191 0.0
H211 H 0.93725 0.09597 0.53221 0.0
C212 C 0.83459 0.32864 0.5377 0.0
C213 C 0.78947 0.34697 0.5077 0.0
C214 C 0.86495 0.28283 0.52999 0.0
C215 C 0.85122 0.25395 0.49202 0.0
C216 C 0.80575 0.27192 0.46194 0.0
C217 C 0.77482 0.31777 0.4698 0.0
C218 C 0.94969 0.15691 0.44263 0.0
C219 C 0.95916 0.11961 0.47301 0.0
C220 C 0.91276 0.19969 0.44812 0.0
C221 C 0.88531 0.20586 0.48422 0.0
C222 C 0.89381 0.16722 0.51403 0.0
C223 C 0.93043 0.12457 0.50846 0.0
H224 H 0.3576 0.40391 0.49459 0.0
H225 H 0.5243 0.31665 0.52325 0.0
H226 H 0.28114 0.32162 0.50677 0.0
H227 H 0.44727 0.23365 0.53473 0.0
H228 H 0.2968 0.11881 0.59728 0.0
H229 H 0.37348 0.20158 0.58404 0.0
H230 H 0.23615 0.22837 0.47954 0.0
H231 H 0.1595 0.14623 0.49354 0.0
C232 C 0.37795 0.36693 0.50301 0.0
C233 C 0.44717 0.36693 0.508 0.0
C234 C 0.33398 0.31963 0.50987 0.0
C235 C 0.35804 0.2711 0.52193 0.0
C236 C 0.42719 0.27065 0.52608 0.0
C237 C 0.47129 0.31804 0.51913 0.0
C238 C 0.28307 0.14305 0.57186 0.0
C239 C 0.22248 0.12717 0.54664 0.0
C240 C 0.32708 0.18993 0.56396 0.0
C241 C 0.3111 0.22149 0.53061 0.0
C242 C 0.24969 0.20544 0.50571 0.0
C243 C 0.20582 0.15857 0.51365 0.0
H244 H 0.31545 0.68738 0.53592 0.0
H245 H 0.39265 0.69089 0.42177 0.0
H246 H 0.26585 0.76991 0.52009 0.0
H247 H 0.34294 0.77406 0.40577 0.0
H248 H 0.15627 0.86281 0.37518 0.0
H249 H 0.22194 0.78983 0.39138 0.0
H250 H 0.29802 0.87216 0.50811 0.0
H251 H 0.234 0.94681 0.49149 0.0
C252 C 0.32192 0.70601 0.50746 0.0
C253 C 0.35721 0.68248 0.47982 0.0
C254 C 0.29416 0.75356 0.4986 0.0
C255 C 0.30045 0.77829 0.46169 0.0
C256 C 0.33707 0.75557 0.43437 0.0
C257 C 0.36574 0.70831 0.44354 0.0
C258 C 0.18815 0.86633 0.40396 0.0
C259 C 0.18998 0.91108 0.43193 0.0
C260 C 0.22569 0.82429 0.41322 0.0
C261 C 0.26525 0.82546 0.4509 0.0
C262 C 0.26759 0.87015 0.47889 0.0
C263 C 0.23063 0.91268 0.46943 0.0
H264 H 0.93 0.04091 0.1197 0.0
H265 H 0.09845 0.95404 0.11996 0.0
H266 H 0.95131 0.05251 0.19313 0.0
H267 H 0.11881 0.96468 0.19355 0.0
H268 H 0.18216 0.04054 0.31923 0.0
H269 H 0.15807 0.03911 0.24571 0.0
H270 H 0.94733 0.99901 0.25346 0.0
H271 H 0.97169 1.00117 0.32712 0.0
C272 C 0.97121 0.02377 0.13544 0.0
C273 C 1.01273 0.99666 0.11399 0.0
C274 C 0.98327 0.03038 0.17754 0.0
C275 C 0.03713 0.01007 0.1991 0.0
C276 C 0.07772 0.98183 0.17771 0.0
C277 C 0.06566 0.9752 0.13558 0.0
C278 C 0.13066 0.03248 0.30514 0.0
C279 C 0.07876 0.02067 0.32869 0.0
C280 C 0.11689 0.03111 0.26312 0.0
C281 C 0.05091 0.01779 0.24378 0.0
C282 C 0.99868 0.0095 0.26748 0.0
C283 C 1.01251 0.01101 0.30963 0.0
H284 H 0.04705 0.96255 0.86761 0.0
H285 H 0.91058 0.08063 0.86887 0.0
H286 H 0.05849 0.98048 0.79786 0.0
H287 H 0.92308 0.09943 0.79836 0.0
H288 H 0.9071 0.05086 0.65795 0.0
H289 H 0.89656 0.05435 0.72986 0.0
H290 H 0.10795 0.0531 0.7586 0.0
H291 H 0.11789 0.04642 0.6871 0.0
C292 C 0.0194 0.99245 0.85299 0.0
C293 C 0.97791 0.02018 0.87388 0.0
C294 C 0.02665 0.00327 0.81302 0.0
C295 C 0.99285 0.0423 0.79274 0.0
C296 C 0.94998 0.06926 0.81322 0.0
C297 C 0.94266 0.05836 0.8535 0.0
C298 C 0.95153 0.05227 0.67967 0.0
C299 C 1.01303 0.04697 0.66665 0.0
C300 C 0.94553 0.05466 0.72091 0.0
C301 C 1.00107 0.05233 0.74989 0.0
C302 C 0.06381 0.05333 0.73693 0.0
C303 C 0.06972 0.05045 0.6958 0.0
H304 H 0.65248 0.48321 0.64252 0.0
H305 H 0.49021 0.57686 0.61987 0.0
H306 H 0.64497 0.48973 0.71486 0.0
H307 H 0.4837 0.58419 0.6919 0.0
H308 H 0.43118 0.50421 0.81071 0.0
H309 H 0.44638 0.51858 0.74065 0.0
H310 H 0.65987 0.55371 0.77521 0.0
H311 H 0.64454 0.53946 0.84565 0.0
C312 C 0.61581 0.50569 0.65299 0.0
C313 C 0.57149 0.52892 0.62544 0.0
C314 C 0.61182 0.50983 0.69443 0.0
C315 C 0.56351 0.53733 0.70904 0.0
C316 C 0.5208 0.56211 0.68154 0.0
C317 C 0.5247 0.55794 0.64024 0.0
C318 C 0.48123 0.51676 0.80362 0.0
C319 C 0.53667 0.52032 0.83365 0.0
C320 C 0.49002 0.52478 0.76339 0.0
C321 C 0.55443 0.53656 0.75234 0.0
C322 C 0.60972 0.54359 0.78273 0.0
C323 C 0.60091 0.53571 0.82301 0.0
H324 H 0.64935 0.45694 0.38537 0.0
H325 H 0.48735 0.55195 0.37285 0.0
H326 H 0.65203 0.45801 0.31249 0.0
H327 H 0.4894 0.5522 0.3003 0.0
H328 H 0.55637 0.40618 0.17844 0.0
H329 H 0.58015 0.41596 0.25189 0.0
H330 H 0.55544 0.58817 0.24816 0.0
H331 H 0.52999 0.57773 0.1744 0.0
C332 C 0.61427 0.47794 0.36711 0.0
C333 C 0.56782 0.504 0.3849 0.0
C334 C 0.61588 0.47861 0.32538 0.0
C335 C 0.57125 0.50552 0.30061 0.0
C336 C 0.52536 0.53204 0.31856 0.0
C337 C 0.52364 0.53127 0.36015 0.0
C338 C 0.55753 0.44643 0.19333 0.0
C339 C 0.54064 0.49105 0.17089 0.0
C340 C 0.57144 0.45214 0.2354 0.0
C341 C 0.56865 0.50261 0.25592 0.0
C342 C 0.55678 0.54846 0.23321 0.0
C343 C 0.54305 0.54276 0.191 0.0
loop_
_geom_bond_atom_site_label_1
_geom_bond_atom_site_label_2
_geom_bond_distance
_geom_bond_site_symmetry_2
_ccdc_geom_bond_type
Co0 N5 2.057 . S
Co0 O17 2.021 . S
Co0 O20 2.062 1_455 S
Co0 O24 2.117 1_554 S
Co0 O25 2.020 1_565 S
C1 O21 1.259 1_455 S
C1 O24 1.258 1_545 S
Co2 N11 2.057 . S
Co2 O18 2.117 . S
Co2 O19 2.020 1_545 S
Co2 O21 2.021 1_554 S
Co2 O26 2.062 1_655 S
C3 N5 1.316 . S
C3 N6 1.347 . S
C3 H8 0.931 . S
C4 N5 1.375 1_556 S
C4 C7 1.350 . S
C4 H9 0.930 . S
N5 Co0 2.057 . S
N5 C3 1.316 . S
N5 C4 1.375 1_554 S
N6 C3 1.347 . S
N6 C7 1.373 1_554 S
C7 C4 1.350 . S
C7 N6 1.373 1_556 S
C7 H28 0.931 . S
H8 C3 0.931 . S
H9 C4 0.930 . S
C10 O17 1.259 1_545 S
C10 O18 1.257 1_455 S
N11 Co2 2.057 . S
N11 C12 1.316 1_554 S
N11 C13 1.375 . S
C12 N11 1.316 1_556 S
C12 N14 1.347 1_556 S
C12 H23 0.931 . S
C13 N11 1.375 . S
C13 C15 1.350 . S
C13 H22 0.930 . S
N14 C12 1.347 1_554 S
N14 C15 1.373 . S
C15 C13 1.350 . S
C15 N14 1.373 . S
C15 H29 0.931 . S
C16 O19 1.256 . S
C16 O20 1.255 . S
O17 Co0 2.021 . S
O17 C10 1.259 1_565 S
O18 Co2 2.117 . S
O18 C10 1.257 1_655 S
O19 Co2 2.020 1_565 S
O19 C16 1.256 . S
O20 Co0 2.062 1_655 S
O20 C16 1.255 . S
O21 C1 1.259 1_655 S
O21 Co2 2.021 1_556 S
H22 C13 0.930 . S
H23 C12 0.931 . S
O24 Co0 2.117 1_556 S
O24 C1 1.258 1_565 S
O25 Co0 2.020 1_545 S
O25 C27 1.256 . S
O26 Co2 2.062 1_455 S
O26 C27 1.255 . S
C27 O25 1.256 . S
C27 O26 1.255 . S
H28 C7 0.931 . S
H29 C15 0.931 . S
Co30 N35 2.057 . S
Co30 O47 2.021 . S
Co30 O50 2.062 . S
Co30 O54 2.117 . S
Co30 O55 2.020 . S
C31 O51 1.259 . S
C31 O54 1.258 . S
Co32 N41 2.057 . S
Co32 O48 2.117 . S
Co32 O49 2.020 . S
Co32 O51 2.021 . S
Co32 O56 2.062 . S
C33 N35 1.316 . S
C33 N36 1.347 . S
C33 H38 0.931 . S
C34 N35 1.375 . S
C34 C37 1.350 . S
C34 H39 0.930 . S
N35 Co30 2.057 . S
N35 C33 1.316 . S
N35 C34 1.375 . S
N36 C33 1.347 . S
N36 C37 1.373 . S
C37 C34 1.350 . S
C37 N36 1.373 . S
C37 H58 0.931 . S
H38 C33 0.931 . S
H39 C34 0.930 . S
C40 O47 1.259 . S
C40 O48 1.258 . S
N41 Co32 2.057 . S
N41 C42 1.316 . S
N41 C43 1.375 . S
C42 N41 1.316 . S
C42 N44 1.347 . S
C42 H53 0.931 . S
C43 N41 1.375 . S
C43 C45 1.350 . S
C43 H52 0.930 . S
N44 C42 1.347 . S
N44 C45 1.373 . S
C45 C43 1.350 . S
C45 N44 1.373 . S
C45 H59 0.931 . S
C46 O49 1.256 . S
C46 O50 1.255 . S
O47 Co30 2.021 . S
O47 C40 1.259 . S
O48 Co32 2.117 . S
O48 C40 1.258 . S
O49 Co32 2.020 . S
O49 C46 1.256 . S
O50 Co30 2.062 . S
O50 C46 1.255 . S
O51 C31 1.259 . S
O51 Co32 2.021 . S
H52 C43 0.930 . S
H53 C42 0.931 . S
O54 Co30 2.117 . S
O54 C31 1.258 . S
O55 Co30 2.020 . S
O55 C57 1.256 . S
O56 Co32 2.062 . S
O56 C57 1.255 . S
C57 O55 1.256 . S
C57 O56 1.255 . S
H58 C37 0.931 . S
H59 C45 0.931 . S
H60 C63 0.929 . S
H61 C66 0.929 1_655 S
H62 C68 0.930 . S
C63 H60 0.929 . S
C63 C64 1.398 . S
C63 C65 1.396 . S
C64 C63 1.398 . S
C64 C68 1.407 . S
C65 C63 1.396 . S
C65 C66 1.394 1_565 S
C66 H61 0.929 1_455 S
C66 C65 1.394 1_545 S
C66 C67 1.382 . S
C67 C66 1.382 . S
C67 C68 1.392 1_545 S
C67 N69 1.420 1_455 S
C68 H62 0.930 . S
C68 C64 1.407 . S
C68 C67 1.392 1_565 S
N69 C67 1.420 1_655 S
N69 C70 1.244 . S
C70 N69 1.244 . S
H71 C74 0.929 . S
H72 C77 0.929 . S
H73 C79 0.930 . S
C74 H71 0.929 . S
C74 C75 1.398 . S
C74 C76 1.404 . S
C75 C74 1.398 . S
C75 C79 1.407 . S
C76 C74 1.404 . S
C76 C77 1.388 1_665 S
C77 H72 0.929 . S
C77 C76 1.388 1_445 S
C77 C78 1.382 . S
C78 C77 1.382 . S
C78 C79 1.392 1_445 S
C78 N80 1.420 . S
C79 H73 0.930 . S
C79 C75 1.407 . S
C79 C78 1.392 1_665 S
N80 C78 1.420 . S
N80 C81 1.244 . S
C81 N80 1.244 . S
H82 C85 0.929 . S
H83 C88 0.929 . S
H84 C90 0.930 1_554 S
C85 H82 0.929 . S
C85 C86 1.398 . S
C85 C87 1.396 . S
C86 C85 1.398 . S
C86 C90 1.407 . S
C87 C85 1.396 . S
C87 C88 1.394 . S
C88 H83 0.929 . S
C88 C87 1.394 . S
C88 C89 1.382 . S
C89 C88 1.382 . S
C89 C90 1.392 . S
C89 N91 1.420 . S
C90 H84 0.930 1_556 S
C90 C86 1.407 . S
C90 C89 1.392 . S
N91 C89 1.420 . S
N91 C92 1.244 . S
C92 N91 1.244 . S
H93 C96 0.929 . S
H94 C99 0.929 . S
H95 C101 0.930 . S
C96 H93 0.929 . S
C96 C97 1.398 . S
C96 C98 1.396 . S
C97 C96 1.398 . S
C97 C101 1.407 . S
C98 C96 1.396 . S
C98 C99 1.394 . S
C99 H94 0.929 . S
C99 C98 1.394 . S
C99 C100 1.382 . S
C100 C99 1.382 . S
C100 C101 1.392 . S
C100 N102 1.420 . S
C101 H95 0.930 . S
C101 C97 1.407 . S
C101 C100 1.392 . S
N102 C100 1.420 . S
N102 C103 1.244 . S
C103 N102 1.244 . S
H104 C112 0.950 . S
H105 C117 0.950 . S
H106 C114 0.950 . S
H107 C116 0.950 . S
H108 C118 0.950 1_556 S
H109 C120 0.950 1_556 S
H110 C122 0.950 . S
H111 C123 0.950 . S
C112 H104 0.950 . S
C112 C113 1.386 . S
C112 C114 1.391 . S
C113 C112 1.386 . S
C113 C117 1.393 1_554 S
C114 H106 0.950 . S
C114 C112 1.391 . S
C114 C115 1.400 . S
C115 C114 1.400 . S
C115 C116 1.398 1_554 S
C115 C121 1.491 . S
C116 H107 0.950 . S
C116 C115 1.398 1_556 S
C116 C117 1.391 . S
C117 H105 0.950 . S
C117 C113 1.393 1_556 S
C117 C116 1.391 . S
C118 H108 0.950 1_554 S
C118 C119 1.386 . S
C118 C120 1.391 . S
C119 C118 1.386 . S
C119 C123 1.393 . S
C120 H109 0.950 1_554 S
C120 C118 1.391 . S
C120 C121 1.400 . S
C121 C115 1.491 . S
C121 C120 1.400 . S
C121 C122 1.398 . S
C122 H110 0.950 . S
C122 C121 1.398 . S
C122 C123 1.391 . S
C123 H111 0.950 . S
C123 C119 1.393 . S
C123 C122 1.391 . S
H124 C132 0.950 . S
H125 C137 0.950 . S
H126 C134 0.950 . S
H127 C136 0.950 . S
H128 C138 0.950 . S
H129 C140 0.950 . S
H130 C142 0.950 . S
H131 C143 0.950 . S
C132 H124 0.950 . S
C132 C133 1.386 . S
C132 C134 1.391 . S
C133 C132 1.386 . S
C133 C137 1.393 . S
C134 H126 0.950 . S
C134 C132 1.391 . S
C134 C135 1.400 . S
C135 C134 1.400 . S
C135 C136 1.398 . S
C135 C141 1.491 . S
C136 H127 0.950 . S
C136 C135 1.398 . S
C136 C137 1.391 . S
C137 H125 0.950 . S
C137 C133 1.393 . S
C137 C136 1.391 . S
C138 H128 0.950 . S
C138 C139 1.386 . S
C138 C140 1.391 1_556 S
C139 C138 1.386 . S
C139 C143 1.393 . S
C140 H129 0.950 . S
C140 C138 1.391 1_554 S
C140 C141 1.400 . S
C141 C135 1.491 . S
C141 C140 1.400 . S
C141 C142 1.398 . S
C142 H130 0.950 . S
C142 C141 1.398 . S
C142 C143 1.391 1_554 S
C143 H131 0.950 . S
C143 C139 1.393 . S
C143 C142 1.391 1_556 S
H144 C152 0.950 . S
H145 C157 0.950 . S
H146 C154 0.950 . S
H147 C156 0.950 . S
H148 C158 0.950 . S
H149 C160 0.950 . S
H150 C162 0.950 . S
H151 C163 0.950 . S
C152 H144 0.950 . S
C152 C153 1.386 . S
C152 C154 1.391 . S
C153 C152 1.386 . S
C153 C157 1.393 1_554 S
C154 H146 0.950 . S
C154 C152 1.391 . S
C154 C155 1.400 . S
C155 C154 1.400 . S
C155 C156 1.398 1_554 S
C155 C161 1.491 . S
C156 H147 0.950 . S
C156 C155 1.398 1_556 S
C156 C157 1.391 . S
C157 H145 0.950 . S
C157 C153 1.393 1_556 S
C157 C156 1.391 . S
C158 H148 0.950 . S
C158 C159 1.386 1_556 S
C158 C160 1.391 . S
C159 C158 1.386 1_554 S
C159 C163 1.393 . S
C160 H149 0.950 . S
C160 C158 1.391 . S
C160 C161 1.400 1_556 S
C161 C155 1.491 . S
C161 C160 1.400 1_554 S
C161 C162 1.398 . S
C162 H150 0.950 . S
C162 C161 1.398 . S
C162 C163 1.391 . S
C163 H151 0.950 . S
C163 C159 1.393 . S
C163 C162 1.391 . S
H164 C172 0.950 . S
H165 C177 0.950 . S
H166 C174 0.950 . S
H167 C176 0.950 . S
H168 C178 0.950 . S
H169 C180 0.950 . S
H170 C182 0.950 . S
H171 C183 0.950 . S
C172 H164 0.950 . S
C172 C173 1.386 1_554 S
C172 C174 1.391 . S
C173 C172 1.386 1_556 S
C173 C177 1.393 . S
C174 H166 0.950 . S
C174 C172 1.391 . S
C174 C175 1.400 1_554 S
C175 C174 1.400 1_556 S
C175 C176 1.398 . S
C175 C181 1.491 . S
C176 H167 0.950 . S
C176 C175 1.398 . S
C176 C177 1.391 . S
C177 H165 0.950 . S
C177 C173 1.393 . S
C177 C176 1.391 . S
C178 H168 0.950 . S
C178 C179 1.386 . S
C178 C180 1.391 . S
C179 C178 1.386 . S
C179 C183 1.393 1_556 S
C180 H169 0.950 . S
C180 C178 1.391 . S
C180 C181 1.400 . S
C181 C175 1.491 . S
C181 C180 1.400 . S
C181 C182 1.398 1_556 S
C182 H170 0.950 . S
C182 C181 1.398 1_554 S
C182 C183 1.391 . S
C183 H171 0.950 . S
C183 C179 1.393 1_554 S
C183 C182 1.391 . S
H184 C192 0.950 . S
H185 C197 0.950 . S
H186 C194 0.950 . S
H187 C196 0.950 . S
H188 C198 0.950 . S
H189 C200 0.950 . S
H190 C202 0.950 . S
H191 C203 0.950 . S
C192 H184 0.950 . S
C192 C193 1.386 . S
C192 C194 1.391 . S
C193 C192 1.386 . S
C193 C197 1.393 . S
C194 H186 0.950 . S
C194 C192 1.391 . S
C194 C195 1.400 . S
C195 C194 1.400 . S
C195 C196 1.398 . S
C195 C201 1.491 . S
C196 H187 0.950 . S
C196 C195 1.398 . S
C196 C197 1.391 . S
C197 H185 0.950 . S
C197 C193 1.393 . S
C197 C196 1.391 . S
C198 H188 0.950 . S
C198 C199 1.386 . S
C198 C200 1.391 . S
C199 C198 1.386 . S
C199 C203 1.393 . S
C200 H189 0.950 . S
C200 C198 1.391 . S
C200 C201 1.400 . S
C201 C195 1.491 . S
C201 C200 1.400 . S
C201 C202 1.398 . S
C202 H190 0.950 . S
C202 C201 1.398 . S
C202 C203 1.391 . S
C203 H191 0.950 . S
C203 C199 1.393 . S
C203 C202 1.391 . S
H204 C212 0.950 . S
H205 C217 0.950 . S
H206 C214 0.950 . S
H207 C216 0.950 . S
H208 C218 0.950 . S
H209 C220 0.950 . S
H210 C222 0.950 . S
H211 C223 0.950 . S
C212 H204 0.950 . S
C212 C213 1.386 . S
C212 C214 1.391 . S
C213 C212 1.386 . S
C213 C217 1.393 . S
C214 H206 0.950 . S
C214 C212 1.391 . S
C214 C215 1.400 . S
C215 C214 1.400 . S
C215 C216 1.398 . S
C215 C221 1.491 . S
C216 H207 0.950 . S
C216 C215 1.398 . S
C216 C217 1.391 . S
C217 H205 0.950 . S
C217 C213 1.393 . S
C217 C216 1.391 . S
C218 H208 0.950 . S
C218 C219 1.386 . S
C218 C220 1.391 . S
C219 C218 1.386 . S
C219 C223 1.393 . S
C220 H209 0.950 . S
C220 C218 1.391 . S
C220 C221 1.400 . S
C221 C215 1.491 . S
C221 C220 1.400 . S
C221 C222 1.398 . S
C222 H210 0.950 . S
C222 C221 1.398 . S
C222 C223 1.391 . S
C223 H211 0.950 . S
C223 C219 1.393 . S
C223 C222 1.391 . S
H224 C232 0.950 . S
H225 C237 0.950 . S
H226 C234 0.950 . S
H227 C236 0.950 . S
H228 C238 0.950 . S
H229 C240 0.950 . S
H230 C242 0.950 . S
H231 C243 0.950 . S
C232 H224 0.950 . S
C232 C233 1.386 . S
C232 C234 1.391 . S
C233 C232 1.386 . S
C233 C237 1.393 . S
C234 H226 0.950 . S
C234 C232 1.391 . S
C234 C235 1.400 . S
C235 C234 1.400 . S
C235 C236 1.398 . S
C235 C241 1.491 . S
C236 H227 0.950 . S
C236 C235 1.398 . S
C236 C237 1.391 . S
C237 H225 0.950 . S
C237 C233 1.393 . S
C237 C236 1.391 . S
C238 H228 0.950 . S
C238 C239 1.386 . S
C238 C240 1.391 . S
C239 C238 1.386 . S
C239 C243 1.393 . S
C240 H229 0.950 . S
C240 C238 1.391 . S
C240 C241 1.400 . S
C241 C235 1.491 . S
C241 C240 1.400 . S
C241 C242 1.398 . S
C242 H230 0.950 . S
C242 C241 1.398 . S
C242 C243 1.391 . S
C243 H231 0.950 . S
C243 C239 1.393 . S
C243 C242 1.391 . S
H244 C252 0.950 . S
H245 C257 0.950 . S
H246 C254 0.950 . S
H247 C256 0.950 . S
H248 C258 0.950 . S
H249 C260 0.950 . S
H250 C262 0.950 . S
H251 C263 0.950 . S
C252 H244 0.950 . S
C252 C253 1.386 . S
C252 C254 1.391 . S
C253 C252 1.386 . S
C253 C257 1.393 . S
C254 H246 0.950 . S
C254 C252 1.391 . S
C254 C255 1.400 . S
C255 C254 1.400 . S
C255 C256 1.398 . S
C255 C261 1.491 . S
C256 H247 0.950 . S
C256 C255 1.398 . S
C256 C257 1.391 . S
C257 H245 0.950 . S
C257 C253 1.393 . S
C257 C256 1.391 . S
C258 H248 0.950 . S
C258 C259 1.386 . S
C258 C260 1.391 . S
C259 C258 1.386 . S
C259 C263 1.393 . S
C260 H249 0.950 . S
C260 C258 1.391 . S
C260 C261 1.400 . S
C261 C255 1.491 . S
C261 C260 1.400 . S
C261 C262 1.398 . S
C262 H250 0.950 . S
C262 C261 1.398 . S
C262 C263 1.391 . S
C263 H251 0.950 . S
C263 C259 1.393 . S
C263 C262 1.391 . S
H264 C272 0.950 . S
H265 C277 0.950 . S
H266 C274 0.950 . S
H267 C276 0.950 . S
H268 C278 0.950 . S
H269 C280 0.950 . S
H270 C282 0.950 . S
H271 C283 0.950 . S
C272 H264 0.950 . S
C272 C273 1.386 1_655 S
C272 C274 1.391 . S
C273 C272 1.386 1_455 S
C273 C277 1.393 1_565 S
C274 H266 0.950 . S
C274 C272 1.391 . S
C274 C275 1.400 1_655 S
C275 C274 1.400 1_455 S
C275 C276 1.398 1_565 S
C275 C281 1.491 1_565 S
C276 H267 0.950 . S
C276 C275 1.398 1_545 S
C276 C277 1.391 . S
C277 H265 0.950 . S
C277 C273 1.393 1_545 S
C277 C276 1.391 . S
C278 H268 0.950 . S
C278 C279 1.385 1_545 S
C278 C280 1.391 . S
C279 C278 1.385 1_565 S
C279 C283 1.393 1_455 S
C280 H269 0.950 . S
C280 C278 1.391 . S
C280 C281 1.400 . S
C281 C275 1.491 1_545 S
C281 C280 1.400 . S
C281 C282 1.398 1_445 S
C282 H270 0.950 . S
C282 C281 1.398 1_665 S
C282 C283 1.391 . S
C283 H271 0.950 . S
C283 C279 1.393 1_655 S
C283 C282 1.391 . S
H284 C292 0.950 . S
H285 C297 0.950 . S
H286 C294 0.950 . S
H287 C296 0.950 . S
H288 C298 0.950 . S
H289 C300 0.950 . S
H290 C302 0.950 . S
H291 C303 0.950 . S
C292 H284 0.950 . S
C292 C293 1.386 1_565 S
C292 C294 1.391 . S
C293 C292 1.386 1_545 S
C293 C297 1.393 1_455 S
C294 H286 0.950 . S
C294 C292 1.391 . S
C294 C295 1.390 1_465 S
C295 C294 1.390 1_645 S
C295 C296 1.411 . S
C295 C301 1.488 . S
C296 H287 0.950 . S
C296 C295 1.411 . S
C296 C297 1.391 . S
C297 H285 0.950 . S
C297 C293 1.393 1_655 S
C297 C296 1.391 . S
C298 H288 0.950 . S
C298 C299 1.386 . S
C298 C300 1.391 . S
C299 C298 1.386 . S
C299 C303 1.393 1_645 S
C300 H289 0.950 . S
C300 C298 1.391 . S
C300 C301 1.400 . S
C301 C295 1.488 . S
C301 C300 1.400 . S
C301 C302 1.398 1_645 S
C302 H290 0.950 . S
C302 C301 1.398 1_465 S
C302 C303 1.391 . S
C303 H291 0.950 . S
C303 C299 1.393 1_465 S
C303 C302 1.391 . S
H304 C312 0.950 . S
H305 C317 0.950 . S
H306 C314 0.950 . S
H307 C316 0.950 . S
H308 C318 0.950 . S
H309 C320 0.950 . S
H310 C322 0.950 . S
H311 C323 0.950 . S
C312 H304 0.950 . S
C312 C313 1.386 . S
C312 C314 1.391 . S
C313 C312 1.386 . S
C313 C317 1.393 . S
C314 H306 0.950 . S
C314 C312 1.391 . S
C314 C315 1.400 . S
C315 C314 1.400 . S
C315 C316 1.398 . S
C315 C321 1.491 . S
C316 H307 0.950 . S
C316 C315 1.398 . S
C316 C317 1.391 . S
C317 H305 0.950 . S
C317 C313 1.393 . S
C317 C316 1.391 . S
C318 H308 0.950 . S
C318 C319 1.386 . S
C318 C320 1.391 . S
C319 C318 1.386 . S
C319 C323 1.393 . S
C320 H309 0.950 . S
C320 C318 1.391 . S
C320 C321 1.400 . S
C321 C315 1.491 . S
C321 C320 1.400 . S
C321 C322 1.398 . S
C322 H310 0.950 . S
C322 C321 1.398 . S
C322 C323 1.391 . S
C323 H311 0.950 . S
C323 C319 1.393 . S
C323 C322 1.391 . S
H324 C332 0.950 . S
H325 C337 0.950 . S
H326 C334 0.950 . S
H327 C336 0.950 . S
H328 C338 0.950 . S
H329 C340 0.950 . S
H330 C342 0.950 . S
H331 C343 0.950 . S
C332 H324 0.950 . S
C332 C333 1.386 . S
C332 C334 1.391 . S
C333 C332 1.386 . S
C333 C337 1.393 . S
C334 H326 0.950 . S
C334 C332 1.391 . S
C334 C335 1.400 . S
C335 C334 1.400 . S
C335 C336 1.398 . S
C335 C341 1.491 . S
C336 H327 0.950 . S
C336 C335 1.398 . S
C336 C337 1.391 . S
C337 H325 0.950 . S
C337 C333 1.393 . S
C337 C336 1.391 . S
C338 H328 0.950 . S
C338 C339 1.386 . S
C338 C340 1.391 . S
C339 C338 1.386 . S
C339 C343 1.393 . S
C340 H329 0.950 . S
C340 C338 1.391 . S
C340 C341 1.400 . S
C341 C335 1.491 . S
C341 C340 1.400 . S
C341 C342 1.398 . S
C342 H330 0.950 . S
C342 C341 1.398 . S
C342 C343 1.391 . S
C343 H331 0.950 . S
C343 C339 1.393 . S
C343 C342 1.391 . S
C119 C97 1.448 . S
C113 C27 1.483 . S
C133 N6 1.334 . S
C139 C92 1.386 . S
C153 C16 1.422 . S
C159 C103 1.388 . S
C173 N14 1.437 1_556 S
C179 C86 1.429 . S
C193 C57 1.481 . S
C199 C75 1.461 . S
C213 N36 1.364 . S
C219 C70 1.362 . S
C239 C81 1.380 . S
C233 C46 1.427 . S
C259 C64 1.437 . S
C253 N44 1.443 . S
C273 C10 1.471 1_565 S
C279 C65 1.476 . S
C293 C1 1.542 . S
C299 C76 1.541 1_545 S
C319 C87 1.468 . S
C313 C40 1.473 . S
C333 C31 1.545 . S
C339 C98 1.539 . S
