# Generated by pormake.
# Topology ctn, (3,4)-cn, num edge types: 1
# Building blocks:
#     Node 0, Type 0, BuildingBlock: PAMTOO_clean_linker_0, # of connection points: 3
#     Node 1, Type 0, BuildingBlock: PAMTOO_clean_linker_0, # of connection points: 3
#     Node 2, Type 0, BuildingBlock: PAMTOO_clean_linker_0, # of connection points: 3
#     Node 3, Type 0, BuildingBlock: PAMTOO_clean_linker_0, # of connection points: 3
#     Node 4, Type 0, BuildingBlock: PAMTOO_clean_linker_0, # of connection points: 3
#     Node 5, Type 0, BuildingBlock: PAMTOO_clean_linker_0, # of connection points: 3
#     Node 6, Type 0, BuildingBlock: PAMTOO_clean_linker_0, # of connection points: 3
#     Node 7, Type 0, BuildingBlock: PAMTOO_clean_linker_0, # of connection points: 3
#     Node 8, Type 0, BuildingBlock: PAMTOO_clean_linker_0, # of connection points: 3
#     Node 9, Type 0, BuildingBlock: PAMTOO_clean_linker_0, # of connection points: 3
#     Node 10, Type 0, BuildingBlock: PAMTOO_clean_linker_0, # of connection points: 3
#     Node 11, Type 0, BuildingBlock: PAMTOO_clean_linker_0, # of connection points: 3
#     Node 12, Type 0, BuildingBlock: PAMTOO_clean_linker_0, # of connection points: 3
#     Node 13, Type 0, BuildingBlock: PAMTOO_clean_linker_0, # of connection points: 3
#     Node 14, Type 0, BuildingBlock: PAMTOO_clean_linker_0, # of connection points: 3
#     Node 15, Type 0, BuildingBlock: PAMTOO_clean_linker_0, # of connection points: 3
#     Node 16, Type 1, BuildingBlock: TATPOV_clean_sbu_0, # of connection points: 4
#     Node 17, Type 1, BuildingBlock: TATPOV_clean_sbu_0, # of connection points: 4
#     Node 18, Type 1, BuildingBlock: TATPOV_clean_sbu_0, # of connection points: 4
#     Node 19, Type 1, BuildingBlock: TATPOV_clean_sbu_0, # of connection points: 4
#     Node 20, Type 1, BuildingBlock: TATPOV_clean_sbu_0, # of connection points: 4
#     Node 21, Type 1, BuildingBlock: TATPOV_clean_sbu_0, # of connection points: 4
#     Node 22, Type 1, BuildingBlock: TATPOV_clean_sbu_0, # of connection points: 4
#     Node 23, Type 1, BuildingBlock: TATPOV_clean_sbu_0, # of connection points: 4
#     Node 24, Type 1, BuildingBlock: TATPOV_clean_sbu_0, # of connection points: 4
#     Node 25, Type 1, BuildingBlock: TATPOV_clean_sbu_0, # of connection points: 4
#     Node 26, Type 1, BuildingBlock: TATPOV_clean_sbu_0, # of connection points: 4
#     Node 27, Type 1, BuildingBlock: TATPOV_clean_sbu_0, # of connection points: 4
#     Edge 28, Type (0, 1), BuildingBlock: XIVTED_clean_linker_0, # of connection points: 2
#     Edge 29, Type (0, 1), BuildingBlock: XIVTED_clean_linker_0, # of connection points: 2
#     Edge 30, Type (0, 1), BuildingBlock: XIVTED_clean_linker_0, # of connection points: 2
#     Edge 31, Type (0, 1), BuildingBlock: XIVTED_clean_linker_0, # of connection points: 2
#     Edge 32, Type (0, 1), BuildingBlock: XIVTED_clean_linker_0, # of connection points: 2
#     Edge 33, Type (0, 1), BuildingBlock: XIVTED_clean_linker_0, # of connection points: 2
#     Edge 34, Type (0, 1), BuildingBlock: XIVTED_clean_linker_0, # of connection points: 2
#     Edge 35, Type (0, 1), BuildingBlock: XIVTED_clean_linker_0, # of connection points: 2
#     Edge 36, Type (0, 1), BuildingBlock: XIVTED_clean_linker_0, # of connection points: 2
#     Edge 37, Type (0, 1), BuildingBlock: XIVTED_clean_linker_0, # of connection points: 2
#     Edge 38, Type (0, 1), BuildingBlock: XIVTED_clean_linker_0, # of connection points: 2
#     Edge 39, Type (0, 1), BuildingBlock: XIVTED_clean_linker_0, # of connection points: 2
#     Edge 40, Type (0, 1), BuildingBlock: XIVTED_clean_linker_0, # of connection points: 2
#     Edge 41, Type (0, 1), BuildingBlock: XIVTED_clean_linker_0, # of connection points: 2
#     Edge 42, Type (0, 1), BuildingBlock: XIVTED_clean_linker_0, # of connection points: 2
#     Edge 43, Type (0, 1), BuildingBlock: XIVTED_clean_linker_0, # of connection points: 2
#     Edge 44, Type (0, 1), BuildingBlock: XIVTED_clean_linker_0, # of connection points: 2
#     Edge 45, Type (0, 1), BuildingBlock: XIVTED_clean_linker_0, # of connection points: 2
#     Edge 46, Type (0, 1), BuildingBlock: XIVTED_clean_linker_0, # of connection points: 2
#     Edge 47, Type (0, 1), BuildingBlock: XIVTED_clean_linker_0, # of connection points: 2
#     Edge 48, Type (0, 1), BuildingBlock: XIVTED_clean_linker_0, # of connection points: 2
#     Edge 49, Type (0, 1), BuildingBlock: XIVTED_clean_linker_0, # of connection points: 2
#     Edge 50, Type (0, 1), BuildingBlock: XIVTED_clean_linker_0, # of connection points: 2
#     Edge 51, Type (0, 1), BuildingBlock: XIVTED_clean_linker_0, # of connection points: 2
#     Edge 52, Type (0, 1), BuildingBlock: XIVTED_clean_linker_0, # of connection points: 2
#     Edge 53, Type (0, 1), BuildingBlock: XIVTED_clean_linker_0, # of connection points: 2
#     Edge 54, Type (0, 1), BuildingBlock: XIVTED_clean_linker_0, # of connection points: 2
#     Edge 55, Type (0, 1), BuildingBlock: XIVTED_clean_linker_0, # of connection points: 2
#     Edge 56, Type (0, 1), BuildingBlock: XIVTED_clean_linker_0, # of connection points: 2
#     Edge 57, Type (0, 1), BuildingBlock: XIVTED_clean_linker_0, # of connection points: 2
#     Edge 58, Type (0, 1), BuildingBlock: XIVTED_clean_linker_0, # of connection points: 2
#     Edge 59, Type (0, 1), BuildingBlock: XIVTED_clean_linker_0, # of connection points: 2
#     Edge 60, Type (0, 1), BuildingBlock: XIVTED_clean_linker_0, # of connection points: 2
#     Edge 61, Type (0, 1), BuildingBlock: XIVTED_clean_linker_0, # of connection points: 2
#     Edge 62, Type (0, 1), BuildingBlock: XIVTED_clean_linker_0, # of connection points: 2
#     Edge 63, Type (0, 1), BuildingBlock: XIVTED_clean_linker_0, # of connection points: 2
#     Edge 64, Type (0, 1), BuildingBlock: XIVTED_clean_linker_0, # of connection points: 2
#     Edge 65, Type (0, 1), BuildingBlock: XIVTED_clean_linker_0, # of connection points: 2
#     Edge 66, Type (0, 1), BuildingBlock: XIVTED_clean_linker_0, # of connection points: 2
#     Edge 67, Type (0, 1), BuildingBlock: XIVTED_clean_linker_0, # of connection points: 2
#     Edge 68, Type (0, 1), BuildingBlock: XIVTED_clean_linker_0, # of connection points: 2
#     Edge 69, Type (0, 1), BuildingBlock: XIVTED_clean_linker_0, # of connection points: 2
#     Edge 70, Type (0, 1), BuildingBlock: XIVTED_clean_linker_0, # of connection points: 2
#     Edge 71, Type (0, 1), BuildingBlock: XIVTED_clean_linker_0, # of connection points: 2
#     Edge 72, Type (0, 1), BuildingBlock: XIVTED_clean_linker_0, # of connection points: 2
#     Edge 73, Type (0, 1), BuildingBlock: XIVTED_clean_linker_0, # of connection points: 2
#     Edge 74, Type (0, 1), BuildingBlock: XIVTED_clean_linker_0, # of connection points: 2
#     Edge 75, Type (0, 1), BuildingBlock: XIVTED_clean_linker_0, # of connection points: 2
# Relax obj value: 0.069
# Max RMSD: 0.184
# Mean RMSD: 0.117
data_MOF--net-ctn--node1-TATPOV_clean_sbu_0--node2-PAMTOO_clean_linker_0--edge1-XIVTED_clean_linker_0
_symmetry_space_group_name_H-M    P1
_symmetry_Int_Tables_number       1
_symmetry_cell_setting            triclinic
loop_
_symmetry_equiv_pos_as_xyz
'x, y, z'
_cell_length_a     53.501532
_cell_length_b     53.834663
_cell_length_c     54.721381
_cell_angle_alpha  86.20672
_cell_angle_beta   93.509531
_cell_angle_gamma 98.643585
loop_
_atom_site_label
_atom_site_type_symbol
_atom_site_fract_x
_atom_site_fract_y
_atom_site_fract_z
_atom_type_partial_charge
H0 H 0.0104 0.07619 0.04814 0.0
H1 H 0.03832 0.00844 0.07658 0.0
H2 H 0.06395 0.04432 0.00851 0.0
H3 H 0.05196 0.99006 0.00871 0.0
C4 C 0.05905 0.98485 0.02762 0.0
O5 O 0.06733 0.00631 0.04006 0.0
H6 H 0.04311 0.97342 0.03724 0.0
C7 C 0.02251 0.06199 0.04666 0.0
C8 C 0.03712 0.06287 0.02598 0.0
C9 C 0.02272 0.0425 0.06511 0.0
C10 C 0.03768 0.02353 0.06254 0.0
C11 C 0.05241 0.02422 0.04209 0.0
C12 C 0.05217 0.04386 0.02399 0.0
H13 H 0.28681 0.67819 0.29143 0.0
H14 H 0.23675 0.68656 0.22772 0.0
H15 H 0.30299 0.74086 0.23862 0.0
H16 H 0.25313 0.76019 0.22203 0.0
C17 C 0.24642 0.74551 0.20874 0.0
O18 O 0.26295 0.72801 0.21008 0.0
H19 H 0.22723 0.73613 0.21347 0.0
C20 C 0.28196 0.68858 0.2746 0.0
C21 C 0.29785 0.71058 0.26689 0.0
C22 C 0.25991 0.6797 0.26059 0.0
C23 C 0.25367 0.69312 0.23876 0.0
C24 C 0.26895 0.71538 0.23125 0.0
C25 C 0.29098 0.72402 0.24518 0.0
H26 H 0.98369 0.46543 0.12981 0.0
H27 H 0.9747 0.43659 0.05762 0.0
H28 H 0.0185 0.40151 0.11425 0.0
H29 H 0.04095 0.40035 0.06985 0.0
C30 C 0.02565 0.40572 0.05678 0.0
O31 O 0.00292 0.40132 0.06812 0.0
H32 H 0.03064 0.42614 0.05146 0.0
C33 C 0.98707 0.45179 0.11716 0.0
C34 C 0.00212 0.43323 0.12512 0.0
C35 C 0.97688 0.45324 0.09288 0.0
C36 C 0.98214 0.43584 0.07647 0.0
C37 C 0.99702 0.41723 0.08428 0.0
C38 C 0.00658 0.41568 0.10862 0.0
H39 H 0.71412 0.81713 0.24736 0.0
H40 H 0.70051 0.73869 0.23251 0.0
H41 H 0.76393 0.7868 0.20211 0.0
H42 H 0.72923 0.75254 0.16956 0.0
C43 C 0.72839 0.73519 0.18194 0.0
O44 O 0.7392 0.74095 0.20481 0.0
H45 H 0.70808 0.7273 0.18366 0.0
C46 C 0.71934 0.8014 0.23844 0.0
C47 C 0.74077 0.80511 0.22427 0.0
C48 C 0.70453 0.77768 0.24142 0.0
C49 C 0.71187 0.75709 0.23072 0.0
C50 C 0.73324 0.76048 0.21649 0.0
C51 C 0.74774 0.78438 0.21345 0.0
H52 H 0.10989 0.98042 0.5025 0.0
H53 H 0.04339 0.97374 0.45308 0.0
H54 H 0.10868 0.02671 0.43543 0.0
H55 H 0.06291 0.04581 0.41395 0.0
C56 C 0.04962 0.02854 0.41893 0.0
O57 O 0.06261 0.00815 0.42099 0.0
H58 H 0.04169 0.03142 0.43673 0.0
C59 C 0.10001 0.98583 0.48556 0.0
C60 C 0.11222 0.00474 0.46966 0.0
C61 C 0.07497 0.97458 0.48005 0.0
C62 C 0.06246 0.98239 0.45812 0.0
C63 C 0.07463 0.00114 0.44218 0.0
C64 C 0.09939 0.01232 0.44798 0.0
H65 H 0.18171 0.77396 0.78044 0.0
H66 H 0.20153 0.72314 0.72965 0.0
H67 H 0.24444 0.73294 0.79777 0.0
H68 H 0.27348 0.73008 0.75406 0.0
C69 C 0.26092 0.71419 0.74559 0.0
O70 O 0.23861 0.70875 0.7576 0.0
H71 H 0.25658 0.71984 0.72605 0.0
C72 C 0.19387 0.76091 0.77552 0.0
C73 C 0.2136 0.75505 0.7921 0.0
C74 C 0.18933 0.74969 0.75283 0.0
C75 C 0.20503 0.73254 0.7467 0.0
C76 C 0.22477 0.72657 0.76295 0.0
C77 C 0.22905 0.73782 0.78548 0.0
H78 H 0.91939 0.57955 0.51722 0.0
H79 H 0.96093 0.52802 0.48567 0.0
H80 H 1.00111 0.59287 0.51857 0.0
H81 H 0.02772 0.58332 0.47632 0.0
C82 C 0.01537 0.56545 0.47204 0.0
O83 O 0.00507 0.55459 0.49343 0.0
H84 H 1.00029 0.57008 0.45827 0.0
C85 C 0.93725 0.57389 0.51334 0.0
C86 C 0.96018 0.58926 0.51969 0.0
C87 C 0.93714 0.55153 0.5013 0.0
C88 C 0.96031 0.54507 0.49493 0.0
C89 C 0.98308 0.56031 0.5008 0.0
C90 C 0.98308 0.58186 0.51365 0.0
H91 H 0.80572 0.82692 0.90328 0.0
H92 H 0.86282 0.79686 0.86639 0.0
H93 H 0.81689 0.84585 0.82676 0.0
H94 H 0.82491 0.79932 0.80407 0.0
C95 C 0.84541 0.79974 0.8093 0.0
O96 O 0.85368 0.81935 0.82418 0.0
H97 H 0.84776 0.78154 0.81942 0.0
C98 C 0.81614 0.82562 0.88717 0.0
C99 C 0.8093 0.83833 0.86509 0.0
C100 C 0.83536 0.81023 0.88805 0.0
C101 C 0.84847 0.80901 0.86669 0.0
C102 C 0.84194 0.82197 0.84481 0.0
C103 C 0.82232 0.83648 0.84399 0.0
H104 H 0.3141 0.32044 0.37127 0.0
H105 H 0.39312 0.32672 0.35732 0.0
H106 H 0.35324 0.38919 0.33852 0.0
H107 H 0.4172 0.39833 0.3158 0.0
C108 C 0.40082 0.38299 0.31509 0.0
O109 O 0.39699 0.37297 0.3387 0.0
H110 H 0.38442 0.39223 0.3078 0.0
C111 C 0.33114 0.33146 0.36443 0.0
C112 C 0.33043 0.35592 0.35394 0.0
C113 C 0.35374 0.32096 0.36632 0.0
C114 C 0.37548 0.33443 0.35592 0.0
C115 C 0.37517 0.35895 0.34574 0.0
C116 C 0.3529 0.36983 0.34541 0.0
H117 H 0.49768 0.98698 0.62204 0.0
H118 H 0.48649 0.95463 0.5514 0.0
H119 H 0.52709 0.91882 0.60995 0.0
H120 H 0.54849 0.91238 0.56572 0.0
C121 C 0.53378 0.91867 0.55247 0.0
O122 O 0.51132 0.91718 0.564 0.0
H123 H 0.54061 0.93849 0.54613 0.0
C124 C 0.50014 0.97238 0.61006 0.0
C125 C 0.51347 0.95278 0.61907 0.0
C126 C 0.49013 0.9733 0.58568 0.0
C127 C 0.494 0.95445 0.57024 0.0
C128 C 0.50725 0.93491 0.57908 0.0
C129 C 0.5166 0.9339 0.60348 0.0
H130 H 0.21679 0.30941 0.74604 0.0
H131 H 0.20497 0.23238 0.72648 0.0
H132 H 0.2672 0.28387 0.69793 0.0
H133 H 0.23084 0.25141 0.66425 0.0
C134 C 0.23266 0.23328 0.67478 0.0
O135 O 0.24354 0.23767 0.69794 0.0
H136 H 0.21322 0.22276 0.67644 0.0
C137 C 0.2225 0.29458 0.73613 0.0
C138 C 0.24377 0.29982 0.7218 0.0
C139 C 0.20828 0.27048 0.73787 0.0
C140 C 0.21598 0.251 0.72567 0.0
C141 C 0.2372 0.25595 0.71118 0.0
C142 C 0.25115 0.28023 0.70947 0.0
H143 H 0.79368 0.17953 0.78739 0.0
H144 H 0.74141 0.19415 0.72689 0.0
H145 H 0.81157 0.24319 0.73615 0.0
H146 H 0.76559 0.26739 0.7249 0.0
C147 C 0.75663 0.25484 0.71045 0.0
O148 O 0.76943 0.2345 0.70956 0.0
H149 H 0.73669 0.24799 0.715 0.0
C150 C 0.78888 0.19069 0.77104 0.0
C151 C 0.80571 0.21209 0.76349 0.0
C152 C 0.76556 0.18397 0.75806 0.0
C153 C 0.75906 0.19912 0.73744 0.0
C154 C 0.77555 0.22051 0.72984 0.0
C155 C 0.79882 0.22687 0.74269 0.0
H156 H 0.50634 0.58234 0.55323 0.0
H157 H 0.54113 0.5172 0.5771 0.0
H158 H 0.55778 0.55524 0.50726 0.0
H159 H 0.55247 0.50101 0.5069 0.0
C160 C 0.55953 0.49621 0.52592 0.0
O161 O 0.56731 0.51801 0.53797 0.0
H162 H 0.54363 0.4846 0.53547 0.0
C163 C 0.51883 0.56895 0.54995 0.0
C164 C 0.53137 0.57119 0.52788 0.0
C165 C 0.52211 0.5496 0.56785 0.0
C166 C 0.53826 0.5322 0.56349 0.0
C167 C 0.55124 0.53441 0.54174 0.0
C168 C 0.54787 0.55392 0.52408 0.0
H169 H 0.60672 0.47471 0.00806 0.0
H170 H 0.53964 0.46578 0.95956 0.0
H171 H 0.60497 0.51662 0.93827 0.0
H172 H 0.56071 0.53613 0.91786 0.0
C173 C 0.54664 0.51954 0.92311 0.0
O174 O 0.55846 0.49837 0.92572 0.0
H175 H 0.53896 0.5233 0.94076 0.0
C176 C 0.59672 0.47941 0.99096 0.0
C177 C 0.60907 0.49693 0.97379 0.0
C178 C 0.57162 0.46785 0.98612 0.0
C179 C 0.55886 0.47447 0.96393 0.0
C180 C 0.57096 0.49199 0.94686 0.0
C181 C 0.596 0.50294 0.95165 0.0
H182 H 0.68366 0.27611 0.28788 0.0
H183 H 0.70452 0.22725 0.23589 0.0
H184 H 0.74647 0.23516 0.30487 0.0
H185 H 0.77605 0.2333 0.26076 0.0
C186 C 0.76323 0.21803 0.25164 0.0
O187 O 0.74117 0.21196 0.26398 0.0
H188 H 0.75859 0.22485 0.2325 0.0
C189 C 0.69628 0.26366 0.28262 0.0
C190 C 0.71581 0.25749 0.29925 0.0
C191 C 0.69207 0.25308 0.25965 0.0
C192 C 0.70753 0.23577 0.25342 0.0
C193 C 0.72707 0.22941 0.26975 0.0
C194 C 0.73121 0.24025 0.29253 0.0
H195 H 0.41417 0.06775 0.03289 0.0
H196 H 0.45694 0.03162 0.98504 0.0
H197 H 0.48792 0.10329 0.01141 0.0
H198 H 0.50735 0.09643 0.9609 0.0
C199 C 0.49832 0.07643 0.96093 0.0
O200 O 0.49574 0.06705 0.98487 0.0
H201 H 0.47952 0.07584 0.95083 0.0
C202 C 0.4308 0.06783 0.02252 0.0
C203 C 0.45069 0.08815 0.02386 0.0
C204 C 0.43293 0.04706 0.00882 0.0
C205 C 0.45494 0.04719 0.99598 0.0
C206 C 0.47456 0.06743 0.99696 0.0
C207 C 0.4725 0.08775 0.01088 0.0
Zn208 Zn 0.28389 0.84111 0.99708 0.0
Zn209 Zn 0.24525 0.86677 0.99729 0.0
O210 O 0.24307 0.84393 0.02972 0.0
O211 O 0.27417 0.82161 0.02821 0.0
O212 O 0.21591 0.88683 0.99861 0.0
O213 O 0.30842 0.87324 0.99792 0.0
O214 O 0.27651 0.89472 0.99759 0.0
C215 C 0.2556 0.82691 0.03904 0.0
C216 C 0.25052 0.83254 0.95491 0.0
O217 O 0.23844 0.84787 0.96457 0.0
O218 O 0.27075 0.82675 0.96538 0.0
C219 C 0.19532 0.87762 0.00845 0.0
O220 O 0.19242 0.85407 0.01712 0.0
C221 C 0.30028 0.89413 0.99804 0.0
Zn222 Zn 0.10957 0.42079 0.3399 0.0
Zn223 Zn 0.13557 0.46686 0.3239 0.0
O224 O 0.11815 0.47413 0.35427 0.0
O225 O 0.09532 0.43854 0.36668 0.0
O226 O 0.15458 0.50047 0.31198 0.0
O227 O 0.14407 0.40865 0.34554 0.0
O228 O 0.16344 0.44497 0.33049 0.0
C229 C 0.10268 0.46182 0.36899 0.0
C230 C 0.09516 0.43766 0.29015 0.0
O231 O 0.11127 0.45685 0.29496 0.0
O232 O 0.09123 0.41934 0.30593 0.0
C233 C 0.15224 0.52132 0.32061 0.0
O234 O 0.13659 0.52165 0.33811 0.0
C235 C 0.16422 0.42262 0.33935 0.0
Zn236 Zn 0.83875 0.60315 0.98934 0.0
Zn237 Zn 0.82734 0.61619 0.03355 0.0
O238 O 0.85561 0.594 0.04258 0.0
O239 O 0.86494 0.58399 0.00613 0.0
O240 O 0.81915 0.63001 0.06522 0.0
O241 O 0.84872 0.63926 0.97758 0.0
O242 O 0.83695 0.64952 0.01295 0.0
C243 C 0.86853 0.58263 0.02924 0.0
C244 C 0.78691 0.58524 0.00138 0.0
O245 O 0.79383 0.59579 0.02136 0.0
O246 O 0.80243 0.58605 0.98464 0.0
C247 C 0.80134 0.62029 0.07877 0.0
O248 O 0.78808 0.59858 0.07344 0.0
C249 C 0.84525 0.65591 0.99176 0.0
Zn250 Zn 0.84973 0.01153 0.28318 0.0
Zn251 Zn 0.87677 0.02207 0.24427 0.0
O252 O 0.85832 0.05388 0.24455 0.0
O253 O 0.83893 0.04559 0.27917 0.0
O254 O 0.89768 0.02678 0.21404 0.0
O255 O 0.8808 0.00682 0.30444 0.0
O256 O 0.90385 0.01983 0.27284 0.0
C257 C 0.84454 0.0603 0.26068 0.0
C258 C 0.83511 0.97523 0.24841 0.0
O259 O 0.85375 0.98811 0.23772 0.0
O260 O 0.82823 0.98208 0.2683 0.0
C261 C 0.91552 0.04476 0.20993 0.0
O262 O 0.92061 0.06259 0.22554 0.0
C263 C 0.9023 0.0128 0.2955 0.0
Zn264 Zn 0.34097 0.10395 0.47369 0.0
Zn265 Zn 0.33324 0.12635 0.51482 0.0
O266 O 0.36209 0.10559 0.5263 0.0
O267 O 0.36992 0.08982 0.49186 0.0
O268 O 0.32602 0.14444 0.54448 0.0
O269 O 0.34727 0.13772 0.45506 0.0
O270 O 0.3423 0.1557 0.48908 0.0
C271 C 0.37485 0.09252 0.51455 0.0
C272 C 0.29104 0.0889 0.49089 0.0
O273 O 0.29894 0.10483 0.50686 0.0
O274 O 0.30559 0.08441 0.47484 0.0
C275 C 0.3136 0.13299 0.56203 0.0
O276 O 0.30657 0.10856 0.56159 0.0
C277 C 0.34696 0.15743 0.46639 0.0
Zn278 Zn 0.34719 0.5083 0.78546 0.0
Zn279 Zn 0.37565 0.518 0.74707 0.0
O280 O 0.3571 0.54973 0.74613 0.0
O281 O 0.33611 0.54226 0.77988 0.0
O282 O 0.39741 0.52267 0.71753 0.0
O283 O 0.37799 0.50437 0.80758 0.0
O284 O 0.4019 0.51587 0.77628 0.0
C285 C 0.34251 0.55653 0.76129 0.0
C286 C 0.33419 0.47115 0.75081 0.0
O287 O 0.35298 0.48402 0.74036 0.0
O288 O 0.32675 0.47823 0.77037 0.0
C289 C 0.41543 0.54066 0.71424 0.0
O290 O 0.42004 0.55813 0.73025 0.0
C291 C 0.39974 0.5096 0.79904 0.0
Zn292 Zn 0.78688 0.35535 0.49689 0.0
Zn293 Zn 0.7458 0.37672 0.49929 0.0
O294 O 0.7483 0.3563 0.53292 0.0
O295 O 0.7848 0.34232 0.53194 0.0
O296 O 0.715 0.39489 0.501 0.0
O297 O 0.80771 0.38862 0.48837 0.0
O298 O 0.7748 0.40675 0.49536 0.0
C299 C 0.76544 0.34451 0.54332 0.0
C300 C 0.74964 0.33848 0.46013 0.0
O301 O 0.73814 0.35507 0.46845 0.0
O302 O 0.77054 0.334 0.4702 0.0
C303 C 0.69828 0.38946 0.51687 0.0
O304 O 0.69986 0.37032 0.53277 0.0
C305 C 0.79795 0.40836 0.49024 0.0
Zn306 Zn 0.60426 0.93206 0.83886 0.0
Zn307 Zn 0.63568 0.97525 0.8265 0.0
O308 O 0.61516 0.9861 0.85306 0.0
O309 O 0.58964 0.95164 0.86389 0.0
O310 O 0.65904 0.00682 0.81711 0.0
O311 O 0.6354 0.91497 0.84724 0.0
O312 O 0.66013 0.95045 0.83795 0.0
C313 C 0.59751 0.97485 0.8661 0.0
C314 C 0.59708 0.95004 0.78837 0.0
O315 O 0.61475 0.96743 0.7946 0.0
O316 O 0.58921 0.93247 0.80384 0.0
C317 C 0.65016 0.02666 0.80933 0.0
O318 O 0.6255 0.02629 0.80761 0.0
C319 C 0.65738 0.92732 0.84533 0.0
Zn320 Zn 0.02116 0.30037 0.85567 0.0
Zn321 Zn 0.02267 0.25717 0.88093 0.0
O322 O 0.05295 0.25874 0.85821 0.0
O323 O 0.05092 0.29476 0.83725 0.0
O324 O 0.02448 0.22599 0.90348 0.0
O325 O 0.02554 0.32057 0.88548 0.0
O326 O 0.02535 0.28444 0.9067 0.0
C327 C 0.06127 0.27515 0.84157 0.0
C328 C 0.97564 0.26536 0.84806 0.0
O329 O 0.98739 0.25074 0.86233 0.0
O330 O 0.98602 0.28762 0.84273 0.0
C331 C 0.02713 0.20425 0.89719 0.0
O332 O 0.02864 0.20054 0.87387 0.0
C333 C 0.02625 0.30831 0.90598 0.0
Zn334 Zn 0.51192 0.80624 0.35415 0.0
Zn335 Zn 0.51634 0.76356 0.37994 0.0
O336 O 0.54574 0.76718 0.35617 0.0
O337 O 0.54144 0.80233 0.33453 0.0
O338 O 0.52098 0.7315 0.40026 0.0
O339 O 0.51679 0.82574 0.38442 0.0
O340 O 0.51941 0.79031 0.40624 0.0
C341 C 0.55295 0.78353 0.33911 0.0
C342 C 0.46745 0.76975 0.3487 0.0
O343 O 0.48042 0.75604 0.36276 0.0
O344 O 0.47674 0.79215 0.3425 0.0
C345 C 0.5035 0.7194 0.41294 0.0
O346 O 0.48161 0.72772 0.41266 0.0
C347 C 0.51924 0.81406 0.40506 0.0
Zn348 Zn 0.94407 0.79984 0.60472 0.0
Zn349 Zn 0.98804 0.79392 0.63055 0.0
O350 O 0.99896 0.82475 0.60743 0.0
O351 O 0.96366 0.82958 0.58591 0.0
O352 O 0.01964 0.78892 0.65122 0.0
O353 O 0.92791 0.80508 0.636 0.0
O354 O 0.96323 0.79875 0.65664 0.0
C355 C 0.98708 0.8365 0.5906 0.0
C356 C 0.9606 0.752 0.59907 0.0
O357 O 0.97944 0.76123 0.61266 0.0
O358 O 0.94248 0.76435 0.59349 0.0
C359 C 0.04004 0.7853 0.64218 0.0
O360 O 0.04102 0.78515 0.61825 0.0
C361 C 0.94045 0.80317 0.65625 0.0
Zn362 Zn 0.44272 0.29619 0.11746 0.0
Zn363 Zn 0.48833 0.28847 0.1392 0.0
O364 O 0.49827 0.31824 0.11468 0.0
O365 O 0.46167 0.32565 0.09732 0.0
O366 O 0.52158 0.28123 0.15525 0.0
O367 O 0.43117 0.30173 0.1512 0.0
O368 O 0.46871 0.29682 0.16799 0.0
C369 C 0.48559 0.33102 0.09945 0.0
C370 C 0.45517 0.2472 0.11011 0.0
O371 O 0.47485 0.2555 0.1231 0.0
O372 O 0.43809 0.26093 0.10485 0.0
C373 C 0.53803 0.29856 0.16361 0.0
O374 O 0.53326 0.32187 0.16173 0.0
C375 C 0.44625 0.30138 0.16998 0.0
H376 H 0.22697 0.73235 0.8364 0.0
H377 H 0.2203 0.85019 0.91672 0.0
H378 H 0.20856 0.80312 0.80395 0.0
H379 H 0.26051 0.78826 0.93994 0.0
H380 H 0.20946 0.83115 0.87694 0.0
H381 H 0.23346 0.75075 0.87617 0.0
C382 C 0.22447 0.75182 0.83752 0.0
C383 C 0.21744 0.7662 0.81657 0.0
C384 C 0.22055 0.82176 0.89087 0.0
C385 C 0.2243 0.78731 0.86249 0.0
C386 C 0.22659 0.83252 0.91356 0.0
C387 C 0.24148 0.82089 0.93158 0.0
C388 C 0.22914 0.79908 0.88647 0.0
C389 C 0.24922 0.79805 0.92651 0.0
C390 C 0.22799 0.76227 0.86035 0.0
C391 C 0.21376 0.79118 0.81954 0.0
N392 N 0.24297 0.78794 0.90453 0.0
N393 N 0.21726 0.80095 0.84205 0.0
H394 H 0.99954 0.51647 0.46083 0.0
H395 H 0.12057 0.50852 0.38495 0.0
H396 H 0.06402 0.57488 0.45692 0.0
H397 H 0.06099 0.44588 0.39593 0.0
H398 H 0.10097 0.53221 0.41298 0.0
H399 H 0.02237 0.48935 0.43881 0.0
C400 C 0.01867 0.52337 0.45564 0.0
C401 C 0.03008 0.54776 0.46088 0.0
C402 C 0.09224 0.51321 0.40943 0.0
C403 C 0.05607 0.51723 0.43534 0.0
C404 C 0.10341 0.49968 0.39335 0.0
C405 C 0.09226 0.47527 0.38785 0.0
C406 C 0.0696 0.50238 0.42001 0.0
C407 C 0.07019 0.46468 0.39958 0.0
C408 C 0.03166 0.50797 0.44305 0.0
C409 C 0.05468 0.55609 0.45341 0.0
N410 N 0.05943 0.4784 0.41492 0.0
N411 N 0.0668 0.5409 0.44092 0.0
H412 H 0.80054 0.78609 0.92006 0.0
H413 H 0.87861 0.67889 0.95869 0.0
H414 H 0.88013 0.79463 0.90613 0.0
H415 H 0.81939 0.6932 0.00359 0.0
H416 H 0.87963 0.72114 0.93896 0.0
H417 H 0.80669 0.75272 0.95108 0.0
C418 C 0.81946 0.78149 0.92383 0.0
C419 C 0.83977 0.79311 0.90998 0.0
C420 C 0.86675 0.71522 0.95346 0.0
C421 C 0.8466 0.7541 0.94506 0.0
C422 C 0.86609 0.6911 0.96464 0.0
C423 C 0.84877 0.68255 0.98265 0.0
C424 C 0.84946 0.73058 0.95984 0.0
C425 C 0.83303 0.69913 0.98977 0.0
C426 C 0.82288 0.76224 0.94152 0.0
C427 C 0.8637 0.78577 0.91567 0.0
N428 N 0.83334 0.7222 0.97795 0.0
N429 N 0.86634 0.76638 0.93237 0.0
H430 H 0.00284 0.00101 0.42397 0.0
H431 H 0.95172 0.03184 0.28602 0.0
H432 H 0.04873 0.04551 0.37036 0.0
H433 H 0.90526 0.99328 0.34269 0.0
H434 H 0.9886 0.03381 0.31516 0.0
H435 H 0.96785 0.99473 0.39295 0.0
C436 C 0.00542 0.00949 0.40561 0.0
C437 C 0.02835 0.02424 0.39976 0.0
C438 C 0.97033 0.02481 0.32112 0.0
C439 C 0.98868 0.01701 0.36408 0.0
C440 C 0.9493 0.02361 0.30448 0.0
C441 C 0.92531 0.01255 0.31196 0.0
C442 C 0.96732 0.01478 0.34533 0.0
C443 C 0.92331 0.00218 0.33612 0.0
C444 C 0.98554 0.0059 0.3879 0.0
C445 C 0.0311 0.03439 0.37563 0.0
N446 N 0.94397 0.00364 0.35191 0.0
N447 N 0.01142 0.03074 0.35867 0.0
H448 H 0.27127 0.251 0.64448 0.0
H449 H 0.28488 0.11459 0.60083 0.0
H450 H 0.22975 0.18192 0.67411 0.0
H451 H 0.32262 0.184 0.56757 0.0
H452 H 0.26807 0.13865 0.63069 0.0
H453 H 0.2939 0.22658 0.61926 0.0
C454 C 0.26708 0.23065 0.64574 0.0
C455 C 0.24832 0.21841 0.66096 0.0
C456 C 0.28016 0.14863 0.61697 0.0
C457 C 0.2741 0.19033 0.63233 0.0
C458 C 0.28982 0.13488 0.5999 0.0
C459 C 0.30508 0.14727 0.5815 0.0
C460 C 0.28575 0.17501 0.61571 0.0
C461 C 0.31085 0.17362 0.58132 0.0
C462 C 0.27994 0.21672 0.63135 0.0
C463 C 0.24384 0.19203 0.66229 0.0
N464 N 0.30107 0.1866 0.59805 0.0
N465 N 0.25645 0.17887 0.64799 0.0
H466 H 0.51794 0.58738 0.59772 0.0
H467 H 0.41583 0.50421 0.68153 0.0
H468 H 0.49482 0.50787 0.59025 0.0
H469 H 0.45201 0.57869 0.69856 0.0
H470 H 0.44302 0.50566 0.64695 0.0
H471 H 0.49266 0.58497 0.63377 0.0
C472 C 0.50756 0.56938 0.60373 0.0
C473 C 0.50839 0.54781 0.59089 0.0
C474 C 0.44505 0.52166 0.65829 0.0
C475 C 0.47926 0.54492 0.63215 0.0
C476 C 0.42945 0.52091 0.67799 0.0
C477 C 0.43157 0.5414 0.69299 0.0
C478 C 0.46279 0.54315 0.65335 0.0
C479 C 0.44967 0.56245 0.68753 0.0
C480 C 0.49319 0.568 0.62436 0.0
C481 C 0.49482 0.52492 0.59968 0.0
N482 N 0.46448 0.56282 0.66812 0.0
N483 N 0.48063 0.52412 0.61964 0.0
H484 H 0.7986 0.27604 0.68657 0.0
H485 H 0.72346 0.33579 0.57136 0.0
H486 H 0.71714 0.26754 0.67954 0.0
H487 H 0.80253 0.32729 0.57308 0.0
H488 H 0.72083 0.31521 0.61279 0.0
H489 H 0.80056 0.29946 0.64667 0.0
C490 C 0.78115 0.27915 0.67653 0.0
C491 C 0.75771 0.26964 0.68611 0.0
C492 C 0.73873 0.31794 0.60404 0.0
C493 C 0.75967 0.29657 0.6406 0.0
C494 C 0.74026 0.32974 0.58046 0.0
C495 C 0.76321 0.33315 0.56866 0.0
C496 C 0.76037 0.3098 0.61592 0.0
C497 C 0.78438 0.32491 0.58132 0.0
C498 C 0.78222 0.29248 0.6538 0.0
C499 C 0.73558 0.27439 0.67261 0.0
N500 N 0.78243 0.31368 0.60418 0.0
N501 N 0.73708 0.28751 0.65048 0.0
H502 H 0.51218 0.91264 0.65262 0.0
H503 H 0.60393 0.98799 0.75236 0.0
H504 H 0.54082 0.99179 0.64317 0.0
H505 H 0.56301 0.91356 0.76709 0.0
H506 H 0.58316 0.98893 0.71132 0.0
H507 H 0.53268 0.91186 0.69381 0.0
C508 C 0.52279 0.92986 0.65925 0.0
C509 C 0.52481 0.95232 0.64448 0.0
C510 C 0.57873 0.97241 0.72355 0.0
C511 C 0.54835 0.95158 0.69154 0.0
C512 C 0.59066 0.97181 0.74696 0.0
C513 C 0.58521 0.95066 0.76322 0.0
C514 C 0.56136 0.95164 0.71626 0.0
C515 C 0.56777 0.93028 0.75521 0.0
C516 C 0.53441 0.92943 0.68277 0.0
C517 C 0.53857 0.97414 0.65405 0.0
N518 N 0.55652 0.93127 0.73229 0.0
N519 N 0.54994 0.9732 0.67693 0.0
H520 H 0.83844 0.18084 0.78442 0.0
H521 H 0.9432 0.29461 0.82482 0.0
H522 H 0.82923 0.25922 0.77428 0.0
H523 H 0.9493 0.21712 0.84669 0.0
H524 H 0.90171 0.28131 0.80556 0.0
H525 H 0.87907 0.19303 0.80671 0.0
C526 C 0.84484 0.20059 0.787 0.0
C527 C 0.83035 0.21904 0.77732 0.0
C528 C 0.91199 0.26714 0.81461 0.0
C529 C 0.87702 0.23308 0.80258 0.0
C530 C 0.9358 0.27472 0.82562 0.0
C531 C 0.94988 0.25694 0.83734 0.0
C532 C 0.90202 0.24149 0.81506 0.0
C533 C 0.93911 0.23146 0.83786 0.0
C534 C 0.86809 0.20752 0.79966 0.0
C535 C 0.83985 0.24435 0.78098 0.0
N536 N 0.91584 0.22446 0.82673 0.0
N537 N 0.86255 0.25058 0.79322 0.0
H538 H 0.51895 0.93154 0.5052 0.0
H539 H 0.52668 0.79701 0.45331 0.0
H540 H 0.53952 0.86884 0.55107 0.0
H541 H 0.51582 0.86377 0.4081 0.0
H542 H 0.52896 0.82166 0.48979 0.0
H543 H 0.51458 0.90549 0.46976 0.0
C544 C 0.52256 0.91224 0.50771 0.0
C545 C 0.5301 0.9024 0.53085 0.0
C546 C 0.52609 0.83084 0.47185 0.0
C547 C 0.52498 0.87235 0.49056 0.0
C548 C 0.52481 0.81679 0.45103 0.0
C549 C 0.52113 0.82831 0.42756 0.0
C550 C 0.52353 0.85652 0.46914 0.0
C551 C 0.51877 0.85402 0.42575 0.0
C552 C 0.5201 0.89736 0.48754 0.0
C553 C 0.53406 0.87715 0.53336 0.0
N554 N 0.51998 0.86718 0.4462 0.0
N555 N 0.5316 0.86299 0.51341 0.0
H556 H 0.16945 0.29724 0.72978 0.0
H557 H 0.09206 0.23769 0.84597 0.0
H558 H 0.19318 0.23612 0.77589 0.0
H559 H 0.0785 0.30444 0.80203 0.0
H560 H 0.12664 0.23332 0.81945 0.0
H561 H 0.13281 0.29599 0.75422 0.0
C562 C 0.16676 0.28338 0.74504 0.0
C563 C 0.18444 0.26694 0.751 0.0
C564 C 0.11598 0.24885 0.8157 0.0
C565 C 0.14251 0.26552 0.77951 0.0
C566 C 0.09629 0.25137 0.83082 0.0
C567 C 0.08238 0.27155 0.82636 0.0
C568 C 0.12154 0.26651 0.79594 0.0
C569 C 0.08867 0.28866 0.80641 0.0
C570 C 0.14585 0.28269 0.75908 0.0
C571 C 0.17991 0.24912 0.77077 0.0
N572 N 0.10765 0.28572 0.79207 0.0
N573 N 0.15946 0.24903 0.78456 0.0
H574 H 0.48642 0.58742 0.51308 0.0
H575 H 0.54748 0.69869 0.42068 0.0
H576 H 0.56608 0.60137 0.49955 0.0
H577 H 0.46954 0.68797 0.44042 0.0
H578 H 0.55433 0.66158 0.44716 0.0
H579 H 0.4796 0.62253 0.48422 0.0
C580 C 0.50253 0.59792 0.50408 0.0
C581 C 0.52693 0.59156 0.50902 0.0
C582 C 0.53573 0.66732 0.44564 0.0
C583 C 0.51916 0.63182 0.47558 0.0
C584 C 0.53178 0.68851 0.4305 0.0
C585 C 0.5079 0.69655 0.42835 0.0
C586 C 0.51563 0.654 0.45869 0.0
C587 C 0.48829 0.68257 0.44153 0.0
C588 C 0.49859 0.61793 0.48749 0.0
C589 C 0.54693 0.60551 0.49628 0.0
N590 N 0.4926 0.66205 0.45612 0.0
N591 N 0.54263 0.62506 0.48025 0.0
H592 H 0.83232 0.81887 0.76337 0.0
H593 H 0.95897 0.79457 0.70353 0.0
H594 H 0.89291 0.78803 0.80452 0.0
H595 H 0.89381 0.8164 0.6618 0.0
H596 H 0.93704 0.79592 0.74129 0.0
H597 H 0.85659 0.82208 0.72649 0.0
C598 C 0.85078 0.81278 0.76455 0.0
C599 C 0.86051 0.8027 0.78676 0.0
C600 C 0.92761 0.80051 0.72386 0.0
C601 C 0.88849 0.80649 0.74486 0.0
C602 C 0.94013 0.79979 0.70229 0.0
C603 C 0.92817 0.80524 0.67942 0.0
C604 C 0.90299 0.80682 0.72255 0.0
C605 C 0.90375 0.81191 0.67898 0.0
C606 C 0.86463 0.81461 0.74356 0.0
C607 C 0.88468 0.79552 0.78755 0.0
N608 N 0.89197 0.81244 0.70018 0.0
N609 N 0.89782 0.79741 0.76685 0.0
H610 H 0.02511 0.96726 0.49188 0.0
H611 H 0.03837 0.85138 0.58879 0.0
H612 H 0.09499 0.93681 0.50743 0.0
H613 H 0.96664 0.87019 0.55868 0.0
H614 H 0.0601 0.8856 0.56267 0.0
H615 H 0.00396 0.93442 0.51955 0.0
C616 C 0.03602 0.95361 0.50097 0.0
C617 C 0.06191 0.95482 0.49715 0.0
C618 C 0.03961 0.88223 0.56184 0.0
C619 C 0.03781 0.91738 0.52932 0.0
C620 C 0.02719 0.86278 0.57681 0.0
C621 C 1.00063 0.85784 0.57587 0.0
C622 C 0.02537 0.897 0.54599 0.0
C623 C 0.98713 0.87321 0.55994 0.0
C624 C 0.02393 0.93494 0.5169 0.0
C625 C 0.07511 0.93689 0.50998 0.0
N626 N 0.99964 0.89207 0.54567 0.0
N627 N 0.06292 0.91893 0.52547 0.0
H628 H 0.18773 0.75683 0.70254 0.0
H629 H 0.04354 0.78222 0.69239 0.0
H630 H 0.14139 0.75503 0.76468 0.0
H631 H 0.08705 0.77779 0.62934 0.0
H632 H 0.07989 0.77387 0.7191 0.0
H633 H 0.15168 0.76569 0.67537 0.0
C634 C 0.16997 0.75821 0.71048 0.0
C635 C 0.16768 0.75526 0.73598 0.0
C636 C 0.08153 0.77472 0.69942 0.0
C637 C 0.12636 0.76564 0.70497 0.0
C638 C 0.06075 0.77954 0.68413 0.0
C639 C 0.0622 0.78069 0.65854 0.0
C640 C 0.10403 0.77107 0.68913 0.0
C641 C 0.08505 0.77704 0.64895 0.0
C642 C 0.14943 0.76339 0.69495 0.0
C643 C 0.14425 0.75758 0.74521 0.0
N644 N 0.10506 0.77239 0.66424 0.0
N645 N 0.12456 0.76262 0.72974 0.0
H646 H 0.99351 0.63341 0.51472 0.0
H647 H 0.91924 0.71824 0.58616 0.0
H648 H 0.9271 0.60022 0.55299 0.0
H649 H 1.00092 0.72941 0.58906 0.0
H650 H 0.91903 0.67774 0.56791 0.0
H651 H 0.99406 0.6719 0.53587 0.0
C652 C 0.97916 0.63396 0.5277 0.0
C653 C 0.96035 0.61316 0.53214 0.0
C654 C 0.93694 0.68906 0.5727 0.0
C655 C 0.96045 0.65782 0.55564 0.0
C656 C 0.9371 0.71213 0.58298 0.0
C657 C 0.96015 0.72713 0.5891 0.0
C658 C 0.95996 0.68134 0.5679 0.0
C659 C 0.98276 0.71834 0.5847 0.0
C660 C 0.97946 0.65608 0.53963 0.0
C661 C 0.94178 0.6157 0.54858 0.0
N662 N 0.98211 0.69614 0.57405 0.0
N663 N 0.94218 0.6377 0.55959 0.0
H664 H 0.72186 0.84945 0.21553 0.0
H665 H 0.85465 0.93974 0.22449 0.0
H666 H 0.79256 0.8196 0.22493 0.0
H667 H 0.78511 0.9573 0.25026 0.0
H668 H 0.83215 0.8983 0.21322 0.0
H669 H 0.74519 0.89195 0.21625 0.0
C670 C 0.74233 0.85182 0.21764 0.0
C671 C 0.75523 0.83086 0.22086 0.0
C672 C 0.82186 0.91145 0.22104 0.0
C673 C 0.78207 0.87963 0.2212 0.0
C674 C 0.83458 0.93505 0.22731 0.0
C675 C 0.82167 0.95181 0.23841 0.0
C676 C 0.79602 0.90501 0.22541 0.0
C677 C 0.79578 0.94483 0.24191 0.0
C678 C 0.75561 0.8761 0.21794 0.0
C679 C 0.78184 0.83519 0.22259 0.0
N680 N 0.78382 0.922 0.23542 0.0
N681 N 0.79443 0.85914 0.22301 0.0
H682 H 0.77745 0.19436 0.21242 0.0
H683 H 0.82728 0.08363 0.29731 0.0
H684 H 0.77975 0.19041 0.29142 0.0
H685 H 0.83958 0.09296 0.21981 0.0
H686 H 0.80899 0.12234 0.29466 0.0
H687 H 0.79916 0.15709 0.21384 0.0
C688 C 0.78253 0.1856 0.23005 0.0
C689 C 0.77662 0.19525 0.25187 0.0
C690 C 0.81575 0.1161 0.27818 0.0
C691 C 0.80142 0.1528 0.25363 0.0
C692 C 0.82618 0.09386 0.27965 0.0
C693 C 0.83489 0.08486 0.2587 0.0
C694 C 0.81364 0.12961 0.25553 0.0
C695 C 0.83312 0.0992 0.23642 0.0
C696 C 0.79497 0.16442 0.23085 0.0
C697 C 0.78378 0.18338 0.27421 0.0
N698 N 0.82249 0.1208 0.23537 0.0
N699 N 0.79566 0.16275 0.2745 0.0
H700 H 0.43898 0.9975 0.01227 0.0
H701 H 0.29118 0.94323 0.99901 0.0
H702 H 0.3811 0.04575 0.00465 0.0
H703 H 0.35176 0.89834 1.00035 0.0
H704 H 0.32291 0.98108 0.00236 0.0
H705 H 0.40639 0.96099 0.00958 0.0
C706 C 0.41936 1.00043 0.0099 0.0
C707 C 0.41281 0.02478 0.00839 0.0
C708 C 0.32916 0.96291 0.00189 0.0
C709 C 0.37511 0.98278 0.00555 0.0
C710 C 0.31108 0.94131 0.99995 0.0
C711 C 0.31877 0.91753 0.9994 0.0
C712 C 0.35505 0.96062 0.00335 0.0
C713 C 0.34483 0.9162 1.0007 0.0
C714 C 0.4007 0.97952 0.00847 0.0
C715 C 0.38699 0.02731 0.00597 0.0
N716 N 0.36193 0.93736 0.00265 0.0
N717 N 0.36905 0.00656 0.00452 0.0
H718 H 0.31328 0.38746 0.31714 0.0
H719 H 0.17602 0.38148 0.36743 0.0
H720 H 0.29239 0.3495 0.3866 0.0
H721 H 0.20829 0.44166 0.3176 0.0
H722 H 0.21684 0.36582 0.37153 0.0
H723 H 0.27327 0.40438 0.31411 0.0
C724 C 0.30046 0.38281 0.33187 0.0
C725 C 0.30635 0.3669 0.35214 0.0
C726 C 0.21496 0.3825 0.35977 0.0
C727 C 0.26015 0.38577 0.34838 0.0
C728 C 0.19166 0.39138 0.35734 0.0
C729 C 0.18875 0.41293 0.34218 0.0
C730 C 0.23535 0.395 0.34663 0.0
C731 C 0.20971 0.42505 0.32958 0.0
C732 C 0.27754 0.39239 0.33002 0.0
C733 C 0.28858 0.36121 0.37036 0.0
N734 N 0.23208 0.41582 0.33196 0.0
N735 N 0.26625 0.3705 0.36797 0.0
H736 H 0.1538 0.98125 0.47872 0.0
H737 H 0.24963 0.10497 0.50821 0.0
H738 H 0.1301 0.05457 0.47367 0.0
H739 H 0.27258 0.04332 0.47287 0.0
H740 H 0.20559 0.08395 0.50517 0.0
H741 H 0.1978 0.00121 0.4862 0.0
C742 C 0.15791 0.00153 0.47943 0.0
C743 C 0.13851 0.01639 0.47548 0.0
C744 C 0.22036 0.07505 0.49822 0.0
C745 C 0.18834 0.03915 0.48429 0.0
C746 C 0.24543 0.08692 0.50004 0.0
C747 C 0.26469 0.07591 0.49062 0.0
C748 C 0.21471 0.05178 0.48746 0.0
C749 C 0.25824 0.05254 0.48015 0.0
C750 C 0.1829 0.01286 0.48358 0.0
C751 C 0.14467 0.04257 0.47647 0.0
N752 N 0.23379 0.04118 0.47894 0.0
N753 N 0.1691 0.05317 0.48089 0.0
H754 H 0.71379 0.17783 0.75967 0.0
H755 H 0.70196 0.03355 0.8098 0.0
H756 H 0.77769 0.13775 0.77426 0.0
H757 H 0.63765 0.0725 0.79244 0.0
H758 H 0.73002 0.07184 0.7976 0.0
H759 H 0.68559 0.13966 0.77212 0.0
C760 C 0.72189 0.16098 0.76539 0.0
C761 C 0.74817 0.16102 0.7659 0.0
C762 C 0.70977 0.07203 0.79646 0.0
C763 C 0.71599 0.11728 0.78043 0.0
C764 C 0.69372 0.05015 0.80344 0.0
C765 C 0.66738 0.04979 0.80214 0.0
C766 C 0.69946 0.09375 0.78812 0.0
C767 C 0.65782 0.07189 0.79374 0.0
C768 C 0.70579 0.13922 0.77262 0.0
C769 C 0.75761 0.13871 0.77387 0.0
N770 N 0.67385 0.09297 0.78705 0.0
N771 N 0.74154 0.11777 0.78078 0.0
H772 H 0.49221 0.99926 0.54086 0.0
H773 H 0.38225 0.07991 0.5639 0.0
H774 H 0.45505 0.99425 0.60921 0.0
H775 H 0.41261 0.07436 0.49351 0.0
H776 H 0.41257 0.05325 0.58269 0.0
H777 H 0.46666 0.03119 0.52497 0.0
C778 C 0.47863 0.00483 0.55253 0.0
C779 C 0.47562 0.9938 0.57633 0.0
C780 C 0.41267 0.05808 0.56317 0.0
C781 C 0.44637 0.03071 0.55829 0.0
C782 C 0.39549 0.07339 0.55248 0.0
C783 C 0.39474 0.07917 0.52707 0.0
C784 C 0.42929 0.04873 0.54833 0.0
C785 C 0.41228 0.07016 0.51313 0.0
C786 C 0.46413 0.0232 0.54349 0.0
C787 C 0.45812 0.0023 0.5908 0.0
N788 N 0.4287 0.05536 0.5239 0.0
N789 N 0.44404 0.02013 0.5815 0.0
H790 H 0.59749 0.50272 0.49345 0.0
H791 H 0.66067 0.38377 0.54946 0.0
H792 H 0.57101 0.45645 0.5566 0.0
H793 H 0.68923 0.43108 0.48752 0.0
H794 H 0.6278 0.41023 0.55222 0.0
H795 H 0.63159 0.4772 0.49112 0.0
C796 C 0.59894 0.48717 0.50682 0.0
C797 C 0.58126 0.48139 0.525 0.0
C798 C 0.64123 0.41486 0.53801 0.0
C799 C 0.62015 0.45217 0.52258 0.0
C800 C 0.66003 0.39969 0.53637 0.0
C801 C 0.67781 0.40514 0.5182 0.0
C802 C 0.64007 0.43571 0.52134 0.0
C803 C 0.67595 0.42611 0.50182 0.0
C804 C 0.61835 0.47261 0.5055 0.0
C805 C 0.5841 0.4613 0.54212 0.0
N806 N 0.65745 0.4406 0.50378 0.0
N807 N 0.60306 0.44734 0.54041 0.0
H808 H 0.72916 0.235 0.34384 0.0
H809 H 0.71887 0.35387 0.42159 0.0
H810 H 0.71049 0.30543 0.31076 0.0
H811 H 0.75906 0.29282 0.44788 0.0
H812 H 0.70869 0.33341 0.38258 0.0
H813 H 0.73435 0.2535 0.38372 0.0
C814 C 0.72631 0.25438 0.34485 0.0
C815 C 0.71946 0.26862 0.32373 0.0
C816 C 0.71956 0.32444 0.39702 0.0
C817 C 0.72477 0.28977 0.36962 0.0
C818 C 0.72516 0.33599 0.41932 0.0
C819 C 0.73996 0.3251 0.43791 0.0
C820 C 0.72855 0.30174 0.39352 0.0
C821 C 0.74779 0.302 0.43394 0.0
C822 C 0.72906 0.26488 0.36771 0.0
C823 C 0.71545 0.29353 0.32648 0.0
N824 N 0.74205 0.29114 0.41222 0.0
N825 N 0.71814 0.30328 0.34896 0.0
H826 H 0.48617 0.02718 0.95005 0.0
H827 H 0.61049 0.02431 0.87684 0.0
H828 H 0.54578 0.09025 0.94309 0.0
H829 H 0.55573 0.95855 0.89264 0.0
H830 H 0.58739 0.04872 0.90128 0.0
H831 H 0.51144 0.00166 0.92899 0.0
C832 C 0.50463 0.03557 0.94407 0.0
C833 C 0.51392 0.06078 0.94814 0.0
C834 C 0.58053 0.02891 0.89954 0.0
C835 C 0.54293 0.0319 0.92407 0.0
C836 C 0.59372 0.01493 0.88559 0.0
C837 C 0.58499 0.98933 0.88258 0.0
C838 C 0.55832 0.01728 0.91043 0.0
C839 C 0.56316 0.97823 0.89441 0.0
C840 C 0.51907 0.02105 0.93211 0.0
C841 C 0.53794 0.07088 0.94015 0.0
N842 N 0.55049 0.99231 0.90766 0.0
N843 N 0.5516 0.05643 0.92839 0.0
H844 H 0.37502 0.27986 0.35508 0.0
H845 H 0.34003 0.20314 0.48205 0.0
H846 H 0.33542 0.30779 0.41138 0.0
H847 H 0.36263 0.16845 0.41963 0.0
H848 H 0.34371 0.2434 0.45817 0.0
H849 H 0.37584 0.2404 0.38023 0.0
C850 C 0.36658 0.27769 0.37274 0.0
C851 C 0.35486 0.29696 0.38104 0.0
C852 C 0.34796 0.22698 0.44973 0.0
C853 C 0.35589 0.25217 0.4099 0.0
C854 C 0.34595 0.204 0.4634 0.0
C855 C 0.35086 0.18232 0.4528 0.0
C856 C 0.35509 0.22838 0.42532 0.0
C857 C 0.35848 0.18463 0.42852 0.0
C858 C 0.36698 0.2552 0.38703 0.0
C859 C 0.34423 0.29323 0.40407 0.0
N860 N 0.36031 0.20722 0.41558 0.0
N861 N 0.345 0.27132 0.41767 0.0
H862 H 0.49857 0.49509 0.92849 0.0
H863 H 0.44981 0.52553 0.78968 0.0
H864 H 0.54682 0.53513 0.87418 0.0
H865 H 0.4013 0.49221 0.84701 0.0
H866 H 0.48639 0.52606 0.81904 0.0
H867 H 0.46342 0.49051 0.89751 0.0
C868 C 0.50165 0.50292 0.90998 0.0
C869 C 0.52532 0.51596 0.9039 0.0
C870 C 0.46772 0.51855 0.82512 0.0
C871 C 0.48544 0.51067 0.8683 0.0
C872 C 0.44685 0.51819 0.80836 0.0
C873 C 0.42241 0.50895 0.81591 0.0
C874 C 0.46411 0.5095 0.84954 0.0
C875 C 0.41973 0.49968 0.84036 0.0
C876 C 0.48166 0.50031 0.8923 0.0
C877 C 0.52864 0.52533 0.8796 0.0
N878 N 0.44027 0.50025 0.85625 0.0
N879 N 0.50885 0.52266 0.86268 0.0
H880 H 0.77462 0.74407 0.1616 0.0
H881 H 0.76195 0.60706 0.10914 0.0
H882 H 0.71339 0.68448 0.17706 0.0
H883 H 0.82263 0.66716 0.09267 0.0
H884 H 0.74647 0.63355 0.13771 0.0
H885 H 0.79508 0.71473 0.13994 0.0
C886 C 0.76565 0.72471 0.16055 0.0
C887 C 0.74217 0.71671 0.17072 0.0
C888 C 0.7633 0.64087 0.12802 0.0
C889 C 0.76528 0.68306 0.14605 0.0
C890 C 0.7722 0.62571 0.11171 0.0
C891 C 0.79351 0.63494 0.09828 0.0
C892 C 0.77574 0.6655 0.1309 0.0
C893 C 0.80604 0.65927 0.10248 0.0
C894 C 0.77725 0.70799 0.1482 0.0
C895 C 0.73136 0.69142 0.16917 0.0
N896 N 0.79685 0.67376 0.11824 0.0
N897 N 0.74287 0.67555 0.15684 0.0
H898 H 0.99275 0.00238 0.08731 0.0
H899 H 0.95187 0.08229 0.19283 0.0
H900 H 0.0175 0.08196 0.09264 0.0
H901 H 0.91511 0.00741 0.17801 0.0
H902 H 0.97823 0.0816 0.15796 0.0
H903 H 0.96667 0.00279 0.12255 0.0
C904 C 0.99283 0.0199 0.09599 0.0
C905 C 0.00729 0.04218 0.08694 0.0
C906 C 0.96435 0.06534 0.1623 0.0
C907 C 0.97739 0.04283 0.12725 0.0
C908 C 0.94929 0.06571 0.18224 0.0
C909 C 0.93117 0.0449 0.18839 0.0
C910 C 0.96151 0.04391 0.14847 0.0
C911 C 0.92874 0.02394 0.17394 0.0
C912 C 0.9778 0.02016 0.116 0.0
C913 C 0.00643 0.0644 0.09879 0.0
N914 N 0.94378 0.02395 0.15475 0.0
N915 N 0.99182 0.06414 0.11832 0.0
H916 H 0.24163 0.79456 0.19438 0.0
H917 H 0.26441 0.77996 0.0546 0.0
H918 H 0.2459 0.72309 0.1649 0.0
H919 H 0.23334 0.84351 0.07774 0.0
H920 H 0.2589 0.75944 0.09535 0.0
H921 H 0.2397 0.81373 0.15242 0.0
C922 C 0.24227 0.78297 0.17905 0.0
C923 C 0.24479 0.75742 0.18308 0.0
C924 C 0.25302 0.77775 0.09151 0.0
C925 C 0.24229 0.77903 0.13523 0.0
C926 C 0.25621 0.78951 0.06826 0.0
C927 C 0.24943 0.81353 0.06285 0.0
C928 C 0.24342 0.79025 0.10975 0.0
C929 C 0.23875 0.82496 0.08118 0.0
C930 C 0.24099 0.79384 0.15517 0.0
C931 C 0.24475 0.74302 0.16262 0.0
N932 N 0.2364 0.81336 0.104 0.0
N933 N 0.2439 0.75409 0.13961 0.0
H934 H 0.00627 0.39295 0.15789 0.0
H935 H 0.09457 0.47576 0.25464 0.0
H936 H 0.02658 0.47357 0.14905 0.0
H937 H 0.06334 0.39806 0.2707 0.0
H938 H 0.0712 0.47452 0.215 0.0
H939 H 0.02843 0.39365 0.19847 0.0
C940 C 0.01536 0.41078 0.16452 0.0
C941 C 0.01451 0.43324 0.15013 0.0
C942 C 0.06939 0.45774 0.22719 0.0
C943 C 0.0399 0.43419 0.19639 0.0
C944 C 0.08281 0.4584 0.24984 0.0
C945 C 0.08094 0.43696 0.26606 0.0
C946 C 0.05409 0.43543 0.22053 0.0
C947 C 0.06532 0.41505 0.2588 0.0
C948 C 0.0279 0.41118 0.18769 0.0
C949 C 0.02645 0.45584 0.15965 0.0
N950 N 0.05255 0.41481 0.23652 0.0
N951 N 0.03873 0.45571 0.1821 0.0
H952 H 0.31845 0.75887 0.27681 0.0
H953 H 0.44286 0.72078 0.35014 0.0
H954 H 0.332 0.6819 0.2895 0.0
H955 H 0.43292 0.7967 0.32547 0.0
H956 H 0.40052 0.70582 0.33206 0.0
H957 H 0.35876 0.77278 0.29854 0.0
C958 C 0.32992 0.74488 0.28411 0.0
C959 C 0.32184 0.71918 0.28114 0.0
C960 C 0.40766 0.72575 0.33071 0.0
C961 C 0.36806 0.73498 0.30637 0.0
C962 C 0.43177 0.73429 0.34107 0.0
C963 C 0.44156 0.76 0.33916 0.0
C964 C 0.39324 0.74309 0.31859 0.0
C965 C 0.42633 0.77668 0.32722 0.0
C966 C 0.35291 0.75282 0.29665 0.0
C967 C 0.33732 0.70189 0.29152 0.0
N968 N 0.40303 0.76794 0.31741 0.0
N969 N 0.35973 0.7101 0.30358 0.0
H970 H 0.01626 0.42116 0.00879 0.0
H971 H 0.02839 0.28914 0.95395 0.0
H972 H 0.03112 0.35602 0.05427 0.0
H973 H 0.0248 0.35834 0.9101 0.0
H974 H 0.02712 0.31213 0.99101 0.0
H975 H 0.01618 0.39707 0.97239 0.0
C976 C 0.01948 0.40172 0.01104 0.0
C977 C 0.02415 0.39062 0.03442 0.0
C978 C 0.02667 0.32223 0.97325 0.0
C979 C 0.02396 0.36283 0.99297 0.0
C980 C 0.02744 0.30914 0.95209 0.0
C981 C 0.02673 0.3218 0.92883 0.0
C982 C 0.02502 0.34812 0.9711 0.0
C983 C 0.02543 0.34773 0.92758 0.0
C984 C 0.01949 0.38798 0.9903 0.0
C985 C 0.02778 0.36527 0.03645 0.0
N986 N 0.02455 0.35995 0.94835 0.0
N987 N 0.02774 0.35223 0.01597 0.0
H988 H 0.68673 0.74198 0.27729 0.0
H989 H 0.5699 0.81348 0.29973 0.0
H990 H 0.66821 0.80809 0.23543 0.0
H991 H 0.58511 0.74751 0.34408 0.0
H992 H 0.60518 0.80987 0.27517 0.0
H993 H 0.64878 0.74142 0.30079 0.0
C994 C 0.67456 0.75619 0.27292 0.0
C995 C 0.68077 0.77531 0.25462 0.0
C996 C 0.6009 0.79609 0.29023 0.0
C997 C 0.63763 0.77487 0.28132 0.0
C998 C 0.58068 0.79817 0.30437 0.0
C999 C 0.57451 0.78084 0.32416 0.0
C1000 C 0.61537 0.77656 0.29579 0.0
C1001 C 0.58922 0.76134 0.32905 0.0
C1002 C 0.65303 0.75595 0.28638 0.0
C1003 C 0.66442 0.79329 0.24968 0.0
N1004 N 0.60907 0.75976 0.315 0.0
N1005 N 0.64377 0.79267 0.26298 0.0
H1006 H 0.03668 0.06002 0.97591 0.0
H1007 H 0.02639 0.20618 0.94703 0.0
H1008 H 0.03612 0.11304 0.03164 0.0
H1009 H 0.03175 0.15492 0.89079 0.0
H1010 H 0.02938 0.17199 0.97812 0.0
H1011 H 0.03479 0.09423 0.94442 0.0
C1012 C 0.03634 0.07887 0.98157 0.0
C1013 C 0.0365 0.08357 0.00654 0.0
C1014 C 0.02992 0.16817 0.95899 0.0
C1015 C 0.034 0.12284 0.97047 0.0
C1016 C 0.02818 0.18772 0.94118 0.0
C1017 C 0.0288 0.18347 0.91619 0.0
C1018 C 0.03226 0.14407 0.95187 0.0
C1019 C 0.03119 0.1591 0.90981 0.0
C1020 C 0.03511 0.09838 0.96354 0.0
C1021 C 0.03564 0.10837 0.01266 0.0
N1022 N 0.0328 0.14033 0.92752 0.0
N1023 N 0.0344 0.127 0.9948 0.0
H1024 H 0.44533 0.36454 0.31051 0.0
H1025 H 0.39865 0.30751 0.18186 0.0
H1026 H 0.36828 0.35819 0.28101 0.0
H1027 H 0.47507 0.3095 0.21282 0.0
H1028 H 0.38619 0.32151 0.2202 0.0
H1029 H 0.45553 0.33943 0.27763 0.0
C1030 C 0.4305 0.35742 0.2973 0.0
C1031 C 0.4061 0.36374 0.29807 0.0
C1032 C 0.40564 0.31867 0.21874 0.0
C1033 C 0.41752 0.33537 0.26037 0.0
C1034 C 0.4128 0.3107 0.19678 0.0
C1035 C 0.43803 0.30758 0.19397 0.0
C1036 C 0.42386 0.32379 0.23804 0.0
C1037 C 0.45544 0.3118 0.21408 0.0
C1038 C 0.4363 0.34321 0.27851 0.0
C1039 C 0.38742 0.35398 0.28076 0.0
N1040 N 0.44809 0.31996 0.23515 0.0
N1041 N 0.3936 0.34059 0.26239 0.0
H1042 H 0.522 0.46086 0.99881 0.0
H1043 H 0.53673 0.34464 0.09508 0.0
H1044 H 0.59215 0.4309 0.01418 0.0
H1045 H 0.46457 0.36518 0.06835 0.0
H1046 H 0.55794 0.37863 0.06847 0.0
H1047 H 0.50121 0.42822 0.02696 0.0
C1048 C 0.53305 0.4474 0.00801 0.0
C1049 C 0.5589 0.44865 0.00396 0.0
C1050 C 0.53746 0.3757 0.06845 0.0
C1051 C 0.5352 0.41136 0.03658 0.0
C1052 C 0.52533 0.35632 0.08369 0.0
C1053 C 0.49879 0.35195 0.08391 0.0
C1054 C 0.523 0.39096 0.05343 0.0
C1055 C 0.48505 0.36775 0.06873 0.0
C1056 C 0.52116 0.42882 0.02419 0.0
C1057 C 0.57229 0.43094 0.01689 0.0
N1058 N 0.4973 0.38653 0.05414 0.0
N1059 N 0.56029 0.41304 0.03257 0.0
H1060 H 0.65766 0.2217 0.23228 0.0
H1061 H 0.57682 0.33076 0.18446 0.0
H1062 H 0.6784 0.29968 0.24856 0.0
H1063 H 0.55394 0.25237 0.17059 0.0
H1064 H 0.61561 0.32004 0.20565 0.0
H1065 H 0.62129 0.23293 0.20691 0.0
C1066 C 0.65473 0.24122 0.23029 0.0
C1067 C 0.671 0.25975 0.24271 0.0
C1068 C 0.60215 0.30518 0.19791 0.0
C1069 C 0.62926 0.27271 0.21393 0.0
C1070 C 0.57997 0.3113 0.1858 0.0
C1071 C 0.562 0.29243 0.17583 0.0
C1072 C 0.60646 0.28 0.20011 0.0
C1073 C 0.56719 0.26753 0.17808 0.0
C1074 C 0.63387 0.2476 0.21594 0.0
C1075 C 0.66612 0.28472 0.23965 0.0
N1076 N 0.58889 0.26204 0.19004 0.0
N1077 N 0.64567 0.29043 0.22568 0.0
H1078 H 0.41079 0.11433 0.02689 0.0
H1079 H 0.48899 0.21359 0.1163 0.0
H1080 H 0.48724 0.11087 0.05544 0.0
H1081 H 0.41628 0.22322 0.08121 0.0
H1082 H 0.48639 0.17335 0.09762 0.0
H1083 H 0.41018 0.15163 0.05019 0.0
C1084 C 0.42734 0.12128 0.03824 0.0
C1085 C 0.44919 0.10966 0.03905 0.0
C1086 C 0.47093 0.18419 0.09408 0.0
C1087 C 0.44868 0.15225 0.06562 0.0
C1088 C 0.47238 0.2072 0.10478 0.0
C1089 C 0.4529 0.22195 0.1002 0.0
C1090 C 0.44984 0.17577 0.07863 0.0
C1091 C 0.43181 0.21256 0.08517 0.0
C1092 C 0.42704 0.14262 0.05142 0.0
C1093 C 0.47015 0.11951 0.05395 0.0
N1094 N 0.43089 0.19012 0.07483 0.0
N1095 N 0.4694 0.14024 0.06655 0.0
H1096 H 0.22351 0.34365 0.71627 0.0
H1097 H 0.35433 0.43694 0.72564 0.0
H1098 H 0.29533 0.31579 0.72215 0.0
H1099 H 0.28468 0.45135 0.75387 0.0
H1100 H 0.33274 0.39543 0.71369 0.0
H1101 H 0.24578 0.38641 0.71882 0.0
C1102 C 0.244 0.34651 0.71803 0.0
C1103 C 0.25754 0.32598 0.71967 0.0
C1104 C 0.32223 0.40788 0.72226 0.0
C1105 C 0.28317 0.37511 0.7221 0.0
C1106 C 0.33443 0.43154 0.72893 0.0
C1107 C 0.32125 0.44746 0.74087 0.0
C1108 C 0.2966 0.40053 0.72707 0.0
C1109 C 0.29558 0.43955 0.74489 0.0
C1110 C 0.25668 0.37096 0.71937 0.0
C1111 C 0.28413 0.33102 0.721 0.0
N1112 N 0.28411 0.41669 0.73798 0.0
N1113 N 0.29613 0.35512 0.72243 0.0
H1114 H 0.27531 0.68801 0.78725 0.0
H1115 H 0.34113 0.58869 0.71968 0.0
H1116 H 0.27788 0.68932 0.70862 0.0
H1117 H 0.32157 0.58026 0.79546 0.0
H1118 H 0.32258 0.62807 0.71529 0.0
H1119 H 0.29693 0.65088 0.79075 0.0
C1120 C 0.28042 0.68037 0.77073 0.0
C1121 C 0.2745 0.69145 0.74764 0.0
C1122 C 0.32246 0.61754 0.73286 0.0
C1123 C 0.29951 0.64912 0.75139 0.0
C1124 C 0.33311 0.59515 0.73538 0.0
C1125 C 0.33277 0.58102 0.75792 0.0
C1126 C 0.31172 0.62594 0.75309 0.0
C1127 C 0.3221 0.59031 0.77766 0.0
C1128 C 0.29277 0.65921 0.77269 0.0
C1129 C 0.28187 0.68111 0.72676 0.0
N1130 N 0.31207 0.61207 0.77477 0.0
N1131 N 0.29396 0.66047 0.72911 0.0
H1132 H 0.92344 0.52436 0.46055 0.0
H1133 H 0.79385 0.45198 0.51203 0.0
H1134 H 0.89576 0.53984 0.52965 0.0
H1135 H 0.83931 0.42053 0.46301 0.0
H1136 H 0.82498 0.4906 0.51178 0.0
H1137 H 0.88637 0.49247 0.45459 0.0
C1138 C 0.90957 0.52116 0.47445 0.0
C1139 C 0.91307 0.53452 0.4959 0.0
C1140 C 0.82788 0.47532 0.50086 0.0
C1141 C 0.87028 0.49835 0.48884 0.0
C1142 C 0.81011 0.4534 0.50087 0.0
C1143 C 0.8142 0.433 0.48771 0.0
C1144 C 0.84953 0.47689 0.48722 0.0
C1145 C 0.83561 0.43573 0.47364 0.0
C1146 C 0.88834 0.50305 0.47093 0.0
C1147 C 0.89392 0.53007 0.51283 0.0
N1148 N 0.85249 0.45721 0.47382 0.0
N1149 N 0.87344 0.5122 0.50904 0.0
H1150 H 0.76544 0.82541 0.83858 0.0
H1151 H 0.70622 0.94841 0.85701 0.0
H1152 H 0.8024 0.88057 0.8876 0.0
H1153 H 0.65974 0.87704 0.84513 0.0
H1154 H 0.74347 0.92662 0.86345 0.0
H1155 H 0.728 0.84693 0.8354 0.0
C1156 C 0.76558 0.84212 0.84862 0.0
C1157 C 0.78684 0.85136 0.86334 0.0
C1158 C 0.72505 0.9158 0.8596 0.0
C1159 C 0.74446 0.87613 0.85961 0.0
C1160 C 0.70384 0.92818 0.85584 0.0
C1161 C 0.67987 0.91449 0.85053 0.0
C1162 C 0.72229 0.88969 0.85742 0.0
C1163 C 0.67784 0.8883 0.84929 0.0
C1164 C 0.74427 0.85429 0.84691 0.0
C1165 C 0.78624 0.87297 0.8761 0.0
N1166 N 0.69883 0.87679 0.85241 0.0
N1167 N 0.7654 0.88486 0.87376 0.0
H1168 H 0.63065 0.51622 0.01667 0.0
H1169 H 0.76574 0.56216 0.96047 0.0
H1170 H 0.64776 0.50539 0.94241 0.0
H1171 H 0.74851 0.57774 0.0335 0.0
H1172 H 0.72286 0.5401 0.95426 0.0
H1173 H 0.67408 0.53726 0.02402 0.0
C1174 C 0.64359 0.5181 0.00197 0.0
C1175 C 0.63553 0.50909 0.97886 0.0
C1176 C 0.72841 0.54833 0.97166 0.0
C1177 C 0.68516 0.53333 0.98707 0.0
C1178 C 0.75295 0.56096 0.97524 0.0
C1179 C 0.7608 0.57188 0.99755 0.0
C1180 C 0.71147 0.54649 0.99052 0.0
C1181 C 0.7433 0.56965 0.01599 0.0
C1182 C 0.66832 0.53026 0.00613 0.0
C1183 C 0.65303 0.51234 0.9604 0.0
N1184 N 0.71945 0.5572 0.01206 0.0
N1185 N 0.67696 0.52418 0.96491 0.0
H1186 H 0.24075 0.63945 0.23371 0.0
H1187 H 0.15916 0.56702 0.34095 0.0
H1188 H 0.24176 0.66707 0.30602 0.0
H1189 H 0.17981 0.52953 0.27946 0.0
H1190 H 0.18489 0.60581 0.32602 0.0
H1191 H 0.21386 0.60083 0.24785 0.0
C1192 C 0.23518 0.63739 0.25252 0.0
C1193 C 0.24347 0.65638 0.26877 0.0
C1194 C 0.18379 0.58908 0.31582 0.0
C1195 C 0.21278 0.61248 0.28499 0.0
C1196 C 0.16904 0.56695 0.32426 0.0
C1197 C 0.1674 0.54497 0.31147 0.0
C1198 C 0.19675 0.58934 0.29424 0.0
C1199 C 0.18065 0.54601 0.28996 0.0
C1200 C 0.22 0.61535 0.2606 0.0
C1201 C 0.23593 0.65275 0.29301 0.0
N1202 N 0.19471 0.56787 0.28197 0.0
N1203 N 0.22091 0.63126 0.30036 0.0
H1204 H 0.94083 0.47129 0.11774 0.0
H1205 H 0.90601 0.56585 0.00642 0.0
H1206 H 0.97805 0.48144 0.04922 0.0
H1207 H 0.87283 0.56239 0.07673 0.0
H1208 H 0.93328 0.53575 0.02264 0.0
H1209 H 0.91633 0.50494 0.10384 0.0
C1210 C 0.94397 0.48066 0.09982 0.0
C1211 C 0.96152 0.4734 0.0846 0.0
C1212 C 0.92019 0.54162 0.03465 0.0
C1213 C 0.93334 0.51185 0.06853 0.0
C1214 C 0.90457 0.55887 0.02539 0.0
C1215 C 0.88695 0.56656 0.04019 0.0
C1216 C 0.91815 0.53167 0.05892 0.0
C1217 C 0.88615 0.55699 0.06468 0.0
C1218 C 0.9299 0.49983 0.09189 0.0
C1219 C 0.96447 0.48603 0.06145 0.0
N1220 N 0.90138 0.53984 0.07323 0.0
N1221 N 0.95053 0.50455 0.05414 0.0
H1222 H 0.10338 0.9986 0.00417 0.0
H1223 H 0.15044 0.86422 0.03074 0.0
H1224 H 0.06298 0.93684 0.04665 0.0
H1225 H 0.1944 0.92714 0.99259 0.0
H1226 H 0.11805 0.89053 0.03609 0.0
H1227 H 0.13695 0.97299 0.99944 0.0
C1228 C 0.10173 0.97969 0.01262 0.0
C1229 C 0.08048 0.96981 0.02585 0.0
C1230 C 0.13476 0.89863 0.02654 0.0
C1231 C 0.11854 0.94031 0.02036 0.0
C1232 C 0.15329 0.88357 0.02341 0.0
C1233 C 0.17525 0.89342 0.01116 0.0
C1234 C 0.13805 0.92383 0.01732 0.0
C1235 C 0.1778 0.91869 0.00213 0.0
C1236 C 0.12081 0.96506 0.00988 0.0
C1237 C 0.07909 0.94518 0.03634 0.0
N1238 N 0.15944 0.933 0.00538 0.0
N1239 N 0.09779 0.93128 0.03332 0.0
loop_
_geom_bond_atom_site_label_1
_geom_bond_atom_site_label_2
_geom_bond_distance
_geom_bond_site_symmetry_2
_ccdc_geom_bond_type
H0 C7 0.929 1_655 S
H1 C10 0.930 . S
H2 C12 0.929 . S
H3 C4 0.969 . S
C4 H3 0.969 . S
C4 O5 1.550 1_565 S
C4 H6 0.973 . S
O5 C4 1.550 1_545 S
O5 C11 1.412 . S
H6 C4 0.973 . S
C7 H0 0.929 1_455 S
C7 C8 1.400 . S
C7 C9 1.364 . S
C8 C7 1.400 . S
C8 C12 1.377 . S
C9 C7 1.364 . S
C9 C10 1.374 . S
C10 H1 0.930 . S
C10 C9 1.374 . S
C10 C11 1.383 . S
C11 O5 1.412 . S
C11 C10 1.383 . S
C11 C12 1.394 . S
C12 H2 0.929 . S
C12 C8 1.377 . S
C12 C11 1.394 . S
H13 C20 0.929 . S
H14 C23 0.930 . S
H15 C25 0.929 . S
H16 C17 0.969 . S
C17 H16 0.969 . S
C17 O18 1.550 . S
C17 H19 0.973 . S
O18 C17 1.550 . S
O18 C24 1.412 . S
H19 C17 0.973 . S
C20 H13 0.929 . S
C20 C21 1.400 . S
C20 C22 1.364 . S
C21 C20 1.400 . S
C21 C25 1.377 . S
C22 C20 1.364 . S
C22 C23 1.374 . S
C23 H14 0.930 . S
C23 C22 1.374 . S
C23 C24 1.383 . S
C24 O18 1.412 . S
C24 C23 1.383 . S
C24 C25 1.394 . S
C25 H15 0.929 . S
C25 C21 1.377 . S
C25 C24 1.394 . S
H26 C33 0.929 . S
H27 C36 0.930 . S
H28 C38 0.929 . S
H29 C30 0.969 . S
C30 H29 0.969 . S
C30 O31 1.550 . S
C30 H32 0.973 . S
O31 C30 1.550 . S
O31 C37 1.412 . S
H32 C30 0.973 . S
C33 H26 0.929 . S
C33 C34 1.400 . S
C33 C35 1.364 . S
C34 C33 1.400 . S
C34 C38 1.377 . S
C35 C33 1.364 . S
C35 C36 1.374 . S
C36 H27 0.930 . S
C36 C35 1.374 . S
C36 C37 1.383 . S
C37 O31 1.412 . S
C37 C36 1.383 . S
C37 C38 1.394 . S
C38 H28 0.929 . S
C38 C34 1.377 . S
C38 C37 1.394 . S
H39 C46 0.929 . S
H40 C49 0.930 . S
H41 C51 0.929 . S
H42 C43 0.969 . S
C43 H42 0.969 . S
C43 O44 1.550 . S
C43 H45 0.973 . S
O44 C43 1.550 . S
O44 C50 1.412 . S
H45 C43 0.973 . S
C46 H39 0.929 . S
C46 C47 1.400 . S
C46 C48 1.364 . S
C47 C46 1.400 . S
C47 C51 1.377 . S
C48 C46 1.364 . S
C48 C49 1.374 . S
C49 H40 0.930 . S
C49 C48 1.374 . S
C49 C50 1.383 . S
C50 O44 1.412 . S
C50 C49 1.383 . S
C50 C51 1.394 . S
C51 H41 0.929 . S
C51 C47 1.377 . S
C51 C50 1.394 . S
H52 C59 0.929 . S
H53 C62 0.930 . S
H54 C64 0.929 . S
H55 C56 0.969 . S
C56 H55 0.969 . S
C56 O57 1.550 . S
C56 H58 0.973 . S
O57 C56 1.550 . S
O57 C63 1.412 . S
H58 C56 0.973 . S
C59 H52 0.929 . S
C59 C60 1.400 . S
C59 C61 1.364 . S
C60 C59 1.400 . S
C60 C64 1.377 . S
C61 C59 1.364 . S
C61 C62 1.374 . S
C62 H53 0.930 . S
C62 C61 1.374 . S
C62 C63 1.383 . S
C63 O57 1.412 . S
C63 C62 1.383 . S
C63 C64 1.394 . S
C64 H54 0.929 . S
C64 C60 1.377 . S
C64 C63 1.394 . S
H65 C72 0.929 . S
H66 C75 0.930 . S
H67 C77 0.929 . S
H68 C69 0.969 . S
C69 H68 0.969 . S
C69 O70 1.550 . S
C69 H71 0.973 . S
O70 C69 1.550 . S
O70 C76 1.412 . S
H71 C69 0.973 . S
C72 H65 0.929 . S
C72 C73 1.400 . S
C72 C74 1.364 . S
C73 C72 1.400 . S
C73 C77 1.377 . S
C74 C72 1.364 . S
C74 C75 1.374 . S
C75 H66 0.930 . S
C75 C74 1.374 . S
C75 C76 1.383 . S
C76 O70 1.412 . S
C76 C75 1.383 . S
C76 C77 1.394 . S
C77 H67 0.929 . S
C77 C73 1.377 . S
C77 C76 1.394 . S
H78 C85 0.929 . S
H79 C88 0.930 . S
H80 C90 0.929 1_455 S
H81 C82 0.969 1_655 S
C82 H81 0.969 1_455 S
C82 O83 1.550 . S
C82 H84 0.973 1_455 S
O83 C82 1.550 . S
O83 C89 1.412 1_455 S
H84 C82 0.973 1_655 S
C85 H78 0.929 . S
C85 C86 1.400 . S
C85 C87 1.364 . S
C86 C85 1.400 . S
C86 C90 1.377 . S
C87 C85 1.364 . S
C87 C88 1.374 . S
C88 H79 0.930 . S
C88 C87 1.374 . S
C88 C89 1.383 . S
C89 O83 1.412 1_655 S
C89 C88 1.383 . S
C89 C90 1.394 . S
C90 H80 0.929 1_655 S
C90 C86 1.377 . S
C90 C89 1.394 . S
H91 C98 0.929 . S
H92 C101 0.930 . S
H93 C103 0.929 . S
H94 C95 0.969 . S
C95 H94 0.969 . S
C95 O96 1.550 . S
C95 H97 0.973 . S
O96 C95 1.550 . S
O96 C102 1.412 . S
H97 C95 0.973 . S
C98 H91 0.929 . S
C98 C99 1.400 . S
C98 C100 1.364 . S
C99 C98 1.400 . S
C99 C103 1.377 . S
C100 C98 1.364 . S
C100 C101 1.374 . S
C101 H92 0.930 . S
C101 C100 1.374 . S
C101 C102 1.383 . S
C102 O96 1.412 . S
C102 C101 1.383 . S
C102 C103 1.394 . S
C103 H93 0.929 . S
C103 C99 1.377 . S
C103 C102 1.394 . S
H104 C111 0.929 . S
H105 C114 0.930 . S
H106 C116 0.929 . S
H107 C108 0.969 . S
C108 H107 0.969 . S
C108 O109 1.550 . S
C108 H110 0.973 . S
O109 C108 1.550 . S
O109 C115 1.412 . S
H110 C108 0.973 . S
C111 H104 0.929 . S
C111 C112 1.400 . S
C111 C113 1.364 . S
C112 C111 1.400 . S
C112 C116 1.377 . S
C113 C111 1.364 . S
C113 C114 1.374 . S
C114 H105 0.930 . S
C114 C113 1.374 . S
C114 C115 1.383 . S
C115 O109 1.412 . S
C115 C114 1.383 . S
C115 C116 1.394 . S
C116 H106 0.929 . S
C116 C112 1.377 . S
C116 C115 1.394 . S
H117 C124 0.929 . S
H118 C127 0.930 . S
H119 C129 0.929 . S
H120 C121 0.969 . S
C121 H120 0.969 . S
C121 O122 1.550 . S
C121 H123 0.973 . S
O122 C121 1.550 . S
O122 C128 1.412 . S
H123 C121 0.973 . S
C124 H117 0.929 . S
C124 C125 1.400 . S
C124 C126 1.364 . S
C125 C124 1.400 . S
C125 C129 1.377 . S
C126 C124 1.364 . S
C126 C127 1.374 . S
C127 H118 0.930 . S
C127 C126 1.374 . S
C127 C128 1.383 . S
C128 O122 1.412 . S
C128 C127 1.383 . S
C128 C129 1.394 . S
C129 H119 0.929 . S
C129 C125 1.377 . S
C129 C128 1.394 . S
H130 C137 0.929 . S
H131 C140 0.930 . S
H132 C142 0.929 . S
H133 C134 0.969 . S
C134 H133 0.969 . S
C134 O135 1.550 . S
C134 H136 0.973 . S
O135 C134 1.550 . S
O135 C141 1.412 . S
H136 C134 0.973 . S
C137 H130 0.929 . S
C137 C138 1.400 . S
C137 C139 1.364 . S
C138 C137 1.400 . S
C138 C142 1.377 . S
C139 C137 1.364 . S
C139 C140 1.374 . S
C140 H131 0.930 . S
C140 C139 1.374 . S
C140 C141 1.383 . S
C141 O135 1.412 . S
C141 C140 1.383 . S
C141 C142 1.394 . S
C142 H132 0.929 . S
C142 C138 1.377 . S
C142 C141 1.394 . S
H143 C150 0.929 . S
H144 C153 0.930 . S
H145 C155 0.929 . S
H146 C147 0.969 . S
C147 H146 0.969 . S
C147 O148 1.550 . S
C147 H149 0.973 . S
O148 C147 1.550 . S
O148 C154 1.412 . S
H149 C147 0.973 . S
C150 H143 0.929 . S
C150 C151 1.400 . S
C150 C152 1.364 . S
C151 C150 1.400 . S
C151 C155 1.377 . S
C152 C150 1.364 . S
C152 C153 1.374 . S
C153 H144 0.930 . S
C153 C152 1.374 . S
C153 C154 1.383 . S
C154 O148 1.412 . S
C154 C153 1.383 . S
C154 C155 1.394 . S
C155 H145 0.929 . S
C155 C151 1.377 . S
C155 C154 1.394 . S
H156 C163 0.929 . S
H157 C166 0.930 . S
H158 C168 0.929 . S
H159 C160 0.969 . S
C160 H159 0.969 . S
C160 O161 1.550 . S
C160 H162 0.973 . S
O161 C160 1.550 . S
O161 C167 1.412 . S
H162 C160 0.973 . S
C163 H156 0.929 . S
C163 C164 1.400 . S
C163 C165 1.364 . S
C164 C163 1.400 . S
C164 C168 1.377 . S
C165 C163 1.364 . S
C165 C166 1.374 . S
C166 H157 0.930 . S
C166 C165 1.374 . S
C166 C167 1.383 . S
C167 O161 1.412 . S
C167 C166 1.383 . S
C167 C168 1.394 . S
C168 H158 0.929 . S
C168 C164 1.377 . S
C168 C167 1.394 . S
H169 C176 0.929 1_554 S
H170 C179 0.930 . S
H171 C181 0.929 . S
H172 C173 0.969 . S
C173 H172 0.969 . S
C173 O174 1.550 . S
C173 H175 0.973 . S
O174 C173 1.550 . S
O174 C180 1.412 . S
H175 C173 0.973 . S
C176 H169 0.929 1_556 S
C176 C177 1.400 . S
C176 C178 1.364 . S
C177 C176 1.400 . S
C177 C181 1.377 . S
C178 C176 1.364 . S
C178 C179 1.374 . S
C179 H170 0.930 . S
C179 C178 1.374 . S
C179 C180 1.383 . S
C180 O174 1.412 . S
C180 C179 1.383 . S
C180 C181 1.394 . S
C181 H171 0.929 . S
C181 C177 1.377 . S
C181 C180 1.394 . S
H182 C189 0.929 . S
H183 C192 0.930 . S
H184 C194 0.929 . S
H185 C186 0.969 . S
C186 H185 0.969 . S
C186 O187 1.550 . S
C186 H188 0.973 . S
O187 C186 1.550 . S
O187 C193 1.412 . S
H188 C186 0.973 . S
C189 H182 0.929 . S
C189 C190 1.400 . S
C189 C191 1.364 . S
C190 C189 1.400 . S
C190 C194 1.377 . S
C191 C189 1.364 . S
C191 C192 1.374 . S
C192 H183 0.930 . S
C192 C191 1.374 . S
C192 C193 1.383 . S
C193 O187 1.412 . S
C193 C192 1.383 . S
C193 C194 1.394 . S
C194 H184 0.929 . S
C194 C190 1.377 . S
C194 C193 1.394 . S
H195 C202 0.929 1_554 S
H196 C205 0.930 . S
H197 C207 0.929 . S
H198 C199 0.969 . S
C199 H198 0.969 . S
C199 O200 1.550 . S
C199 H201 0.973 . S
O200 C199 1.550 . S
O200 C206 1.412 . S
H201 C199 0.973 . S
C202 H195 0.929 1_556 S
C202 C203 1.400 . S
C202 C204 1.364 . S
C203 C202 1.400 . S
C203 C207 1.377 . S
C204 C202 1.364 . S
C204 C205 1.374 . S
C205 H196 0.930 . S
C205 C204 1.374 . S
C205 C206 1.383 . S
C206 O200 1.412 . S
C206 C205 1.383 . S
C206 C207 1.394 . S
C207 H197 0.929 . S
C207 C203 1.377 . S
C207 C206 1.394 . S
Zn208 O211 2.047 . S
Zn208 O213 2.039 1_554 S
Zn208 O218 2.043 1_554 S
Zn209 O210 1.962 . S
Zn209 O212 1.986 . S
Zn209 O214 1.996 . S
Zn209 O217 1.943 1_554 S
O210 Zn209 1.962 . S
O210 C215 1.254 . S
O211 Zn208 2.047 . S
O211 C215 1.269 . S
O212 Zn209 1.986 . S
O212 C219 1.262 . S
O213 Zn208 2.039 1_556 S
O213 C221 1.260 . S
O214 Zn209 1.996 . S
O214 C221 1.257 1_554 S
C215 O210 1.254 . S
C215 O211 1.269 . S
C216 O217 1.249 . S
C216 O218 1.270 . S
O217 Zn209 1.943 1_556 S
O217 C216 1.249 . S
O218 Zn208 2.043 1_556 S
O218 C216 1.270 . S
C219 O212 1.262 . S
C219 O220 1.232 . S
O220 C219 1.232 . S
C221 O213 1.260 . S
C221 O214 1.257 1_556 S
Zn222 O225 2.031 . S
Zn222 O227 2.049 . S
Zn222 O232 2.067 . S
Zn223 O224 1.962 . S
Zn223 O226 1.986 . S
Zn223 O228 1.996 . S
Zn223 O231 1.943 . S
O224 Zn223 1.962 . S
O224 C229 1.254 . S
O225 Zn222 2.031 . S
O225 C229 1.269 . S
O226 Zn223 1.986 . S
O226 C233 1.262 . S
O227 Zn222 2.049 . S
O227 C235 1.260 . S
O228 Zn223 1.996 . S
O228 C235 1.257 . S
C229 O224 1.254 . S
C229 O225 1.269 . S
C230 O231 1.249 . S
C230 O232 1.270 . S
O231 Zn223 1.943 . S
O231 C230 1.249 . S
O232 Zn222 2.067 . S
O232 C230 1.270 . S
C233 O226 1.262 . S
C233 O234 1.232 . S
O234 C233 1.232 . S
C235 O227 1.260 . S
C235 O228 1.257 . S
Zn236 O239 2.037 . S
Zn236 O241 2.046 1_554 S
Zn236 O246 2.068 . S
Zn237 O238 1.962 . S
Zn237 O240 1.986 . S
Zn237 O242 1.996 . S
Zn237 O245 1.943 . S
O238 Zn237 1.962 . S
O238 C243 1.254 . S
O239 Zn236 2.037 . S
O239 C243 1.269 . S
O240 Zn237 1.986 . S
O240 C247 1.262 . S
O241 Zn236 2.046 1_556 S
O241 C249 1.260 . S
O242 Zn237 1.996 . S
O242 C249 1.257 1_554 S
C243 O238 1.254 . S
C243 O239 1.269 . S
C244 O245 1.249 . S
C244 O246 1.270 . S
O245 Zn237 1.943 . S
O245 C244 1.249 . S
O246 Zn236 2.068 . S
O246 C244 1.270 . S
C247 O240 1.262 . S
C247 O248 1.232 . S
O248 C247 1.232 . S
C249 O241 1.260 . S
C249 O242 1.257 1_556 S
Zn250 O253 2.031 . S
Zn250 O255 2.030 1_545 S
Zn250 O260 2.067 1_545 S
Zn251 O252 1.962 . S
Zn251 O254 1.986 . S
Zn251 O256 1.996 . S
Zn251 O259 1.943 1_545 S
O252 Zn251 1.962 . S
O252 C257 1.254 . S
O253 Zn250 2.031 . S
O253 C257 1.269 . S
O254 Zn251 1.986 . S
O254 C261 1.262 . S
O255 Zn250 2.030 1_565 S
O255 C263 1.254 1_565 S
O256 Zn251 1.996 . S
O256 C263 1.257 . S
C257 O252 1.254 . S
C257 O253 1.269 . S
C258 O259 1.249 . S
C258 O260 1.270 . S
O259 Zn251 1.943 1_565 S
O259 C258 1.249 . S
O260 Zn250 2.067 1_565 S
O260 C258 1.270 . S
C261 O254 1.262 . S
C261 O262 1.232 . S
O262 C261 1.232 . S
C263 O255 1.254 1_545 S
C263 O256 1.257 . S
Zn264 O267 2.031 . S
Zn264 O269 2.049 . S
Zn264 O274 2.067 . S
Zn265 O266 1.962 . S
Zn265 O268 1.986 . S
Zn265 O270 1.996 . S
Zn265 O273 1.943 . S
O266 Zn265 1.962 . S
O266 C271 1.254 . S
O267 Zn264 2.031 . S
O267 C271 1.269 . S
O268 Zn265 1.986 . S
O268 C275 1.262 . S
O269 Zn264 2.049 . S
O269 C277 1.260 . S
O270 Zn265 1.996 . S
O270 C277 1.257 . S
C271 O266 1.254 . S
C271 O267 1.269 . S
C272 O273 1.249 . S
C272 O274 1.270 . S
O273 Zn265 1.943 . S
O273 C272 1.249 . S
O274 Zn264 2.067 . S
O274 C272 1.270 . S
C275 O268 1.262 . S
C275 O276 1.232 . S
O276 C275 1.232 . S
C277 O269 1.260 . S
C277 O270 1.257 . S
Zn278 O281 2.031 . S
Zn278 O283 2.049 . S
Zn278 O288 2.067 . S
Zn279 O280 1.962 . S
Zn279 O282 1.986 . S
Zn279 O284 1.996 . S
Zn279 O287 1.943 . S
O280 Zn279 1.962 . S
O280 C285 1.254 . S
O281 Zn278 2.031 . S
O281 C285 1.269 . S
O282 Zn279 1.986 . S
O282 C289 1.262 . S
O283 Zn278 2.049 . S
O283 C291 1.260 . S
O284 Zn279 1.996 . S
O284 C291 1.257 . S
C285 O280 1.254 . S
C285 O281 1.269 . S
C286 O287 1.249 . S
C286 O288 1.270 . S
O287 Zn279 1.943 . S
O287 C286 1.249 . S
O288 Zn278 2.067 . S
O288 C286 1.270 . S
C289 O282 1.262 . S
C289 O290 1.232 . S
O290 C289 1.232 . S
C291 O283 1.260 . S
C291 O284 1.257 . S
Zn292 O295 2.031 . S
Zn292 O297 2.049 . S
Zn292 O302 2.067 . S
Zn293 O294 1.962 . S
Zn293 O296 1.986 . S
Zn293 O298 1.996 . S
Zn293 O301 1.943 . S
O294 Zn293 1.962 . S
O294 C299 1.254 . S
O295 Zn292 2.031 . S
O295 C299 1.269 . S
O296 Zn293 1.986 . S
O296 C303 1.262 . S
O297 Zn292 2.049 . S
O297 C305 1.260 . S
O298 Zn293 1.996 . S
O298 C305 1.257 . S
C299 O294 1.254 . S
C299 O295 1.269 . S
C300 O301 1.249 . S
C300 O302 1.270 . S
O301 Zn293 1.943 . S
O301 C300 1.249 . S
O302 Zn292 2.067 . S
O302 C300 1.270 . S
C303 O296 1.262 . S
C303 O304 1.232 . S
O304 C303 1.232 . S
C305 O297 1.260 . S
C305 O298 1.257 . S
Zn306 O309 2.031 . S
Zn306 O311 2.049 . S
Zn306 O316 2.067 . S
Zn307 O308 1.962 . S
Zn307 O310 1.986 . S
Zn307 O312 1.996 1_545 S
Zn307 O315 1.943 . S
O308 Zn307 1.962 . S
O308 C313 1.254 . S
O309 Zn306 2.031 . S
O309 C313 1.269 1_565 S
O310 Zn307 1.986 . S
O310 C317 1.262 . S
O311 Zn306 2.049 . S
O311 C319 1.260 . S
O312 Zn307 1.996 1_565 S
O312 C319 1.257 . S
C313 O308 1.254 . S
C313 O309 1.269 1_545 S
C314 O315 1.249 1_565 S
C314 O316 1.270 . S
O315 Zn307 1.943 . S
O315 C314 1.249 1_545 S
O316 Zn306 2.067 . S
O316 C314 1.270 . S
C317 O310 1.262 . S
C317 O318 1.232 . S
O318 C317 1.232 . S
C319 O311 1.260 . S
C319 O312 1.257 . S
Zn320 O323 2.031 . S
Zn320 O325 2.049 1_455 S
Zn320 O330 2.067 1_455 S
Zn321 O322 1.962 . S
Zn321 O324 1.986 . S
Zn321 O326 1.996 . S
Zn321 O329 1.943 1_455 S
O322 Zn321 1.962 . S
O322 C327 1.254 . S
O323 Zn320 2.031 . S
O323 C327 1.269 . S
O324 Zn321 1.986 . S
O324 C331 1.262 . S
O325 Zn320 2.049 1_655 S
O325 C333 1.260 . S
O326 Zn321 1.996 . S
O326 C333 1.257 1_455 S
C327 O322 1.254 . S
C327 O323 1.269 . S
C328 O329 1.249 . S
C328 O330 1.270 . S
O329 Zn321 1.943 1_655 S
O329 C328 1.249 . S
O330 Zn320 2.067 1_655 S
O330 C328 1.270 . S
C331 O324 1.262 . S
C331 O332 1.232 . S
O332 C331 1.232 . S
C333 O325 1.260 . S
C333 O326 1.257 1_655 S
Zn334 O337 2.031 . S
Zn334 O339 2.049 . S
Zn334 O344 2.067 . S
Zn335 O336 1.962 . S
Zn335 O338 1.986 . S
Zn335 O340 1.996 . S
Zn335 O343 1.943 . S
O336 Zn335 1.962 . S
O336 C341 1.254 . S
O337 Zn334 2.031 . S
O337 C341 1.269 . S
O338 Zn335 1.986 . S
O338 C345 1.262 . S
O339 Zn334 2.049 . S
O339 C347 1.260 . S
O340 Zn335 1.996 . S
O340 C347 1.257 . S
C341 O336 1.254 . S
C341 O337 1.269 . S
C342 O343 1.249 . S
C342 O344 1.270 . S
O343 Zn335 1.943 . S
O343 C342 1.249 . S
O344 Zn334 2.067 . S
O344 C342 1.270 . S
C345 O338 1.262 . S
C345 O346 1.232 . S
O346 C345 1.232 . S
C347 O339 1.260 . S
C347 O340 1.257 . S
Zn348 O351 2.031 1_655 S
Zn348 O353 2.049 . S
Zn348 O358 2.067 . S
Zn349 O350 1.962 . S
Zn349 O352 1.986 . S
Zn349 O354 1.996 1_455 S
Zn349 O357 1.943 . S
O350 Zn349 1.962 . S
O350 C355 1.254 . S
O351 Zn348 2.031 1_455 S
O351 C355 1.269 . S
O352 Zn349 1.986 . S
O352 C359 1.262 . S
O353 Zn348 2.049 . S
O353 C361 1.260 . S
O354 Zn349 1.996 1_655 S
O354 C361 1.257 . S
C355 O350 1.254 . S
C355 O351 1.269 . S
C356 O357 1.249 . S
C356 O358 1.270 1_455 S
O357 Zn349 1.943 . S
O357 C356 1.249 . S
O358 Zn348 2.067 . S
O358 C356 1.270 1_655 S
C359 O352 1.262 . S
C359 O360 1.232 . S
O360 C359 1.232 . S
C361 O353 1.260 . S
C361 O354 1.257 . S
Zn362 O365 2.031 . S
Zn362 O367 2.049 . S
Zn362 O372 2.067 . S
Zn363 O364 1.962 . S
Zn363 O366 1.986 . S
Zn363 O368 1.996 . S
Zn363 O371 1.943 . S
O364 Zn363 1.962 . S
O364 C369 1.254 . S
O365 Zn362 2.031 . S
O365 C369 1.269 . S
O366 Zn363 1.986 . S
O366 C373 1.262 . S
O367 Zn362 2.049 . S
O367 C375 1.260 . S
O368 Zn363 1.996 . S
O368 C375 1.257 . S
C369 O364 1.254 . S
C369 O365 1.269 . S
C370 O371 1.249 . S
C370 O372 1.270 . S
O371 Zn363 1.943 . S
O371 C370 1.249 . S
O372 Zn362 2.067 . S
O372 C370 1.270 . S
C373 O366 1.262 . S
C373 O374 1.232 . S
O374 C373 1.232 . S
C375 O367 1.260 . S
C375 O368 1.257 . S
H376 C382 0.930 . S
H377 C386 0.930 . S
H378 C391 0.929 . S
H379 C389 0.929 . S
H380 C384 0.929 . S
H381 C390 0.929 . S
C382 H376 0.930 . S
C382 C383 1.367 . S
C382 C390 1.378 . S
C383 C382 1.367 . S
C383 C391 1.433 . S
C384 H380 0.929 . S
C384 C386 1.378 . S
C384 C388 1.350 . S
C385 C388 1.463 . S
C385 C390 1.350 . S
C385 N393 1.427 . S
C386 H377 0.930 . S
C386 C384 1.378 . S
C386 C387 1.367 . S
C387 C386 1.367 . S
C387 C389 1.433 . S
C388 C384 1.350 . S
C388 C385 1.463 . S
C388 N392 1.427 . S
C389 H379 0.929 . S
C389 C387 1.433 . S
C389 N392 1.384 . S
C390 H381 0.929 . S
C390 C382 1.378 . S
C390 C385 1.350 . S
C391 H378 0.929 . S
C391 C383 1.433 . S
C391 N393 1.384 . S
N392 C388 1.427 . S
N392 C389 1.384 . S
N393 C385 1.427 . S
N393 C391 1.384 . S
H394 C400 0.930 . S
H395 C404 0.930 . S
H396 C409 0.929 . S
H397 C407 0.929 . S
H398 C402 0.929 . S
H399 C408 0.929 . S
C400 H394 0.930 . S
C400 C401 1.367 . S
C400 C408 1.378 . S
C401 C400 1.367 . S
C401 C409 1.433 . S
C402 H398 0.929 . S
C402 C404 1.378 . S
C402 C406 1.350 . S
C403 C406 1.463 . S
C403 C408 1.350 . S
C403 N411 1.427 . S
C404 H395 0.930 . S
C404 C402 1.378 . S
C404 C405 1.367 . S
C405 C404 1.367 . S
C405 C407 1.433 . S
C406 C402 1.350 . S
C406 C403 1.463 . S
C406 N410 1.427 . S
C407 H397 0.929 . S
C407 C405 1.433 . S
C407 N410 1.384 . S
C408 H399 0.929 . S
C408 C400 1.378 . S
C408 C403 1.350 . S
C409 H396 0.929 . S
C409 C401 1.433 . S
C409 N411 1.384 . S
N410 C406 1.427 . S
N410 C407 1.384 . S
N411 C403 1.427 . S
N411 C409 1.384 . S
H412 C418 0.930 . S
H413 C422 0.930 . S
H414 C427 0.929 . S
H415 C425 0.929 . S
H416 C420 0.929 . S
H417 C426 0.929 . S
C418 H412 0.930 . S
C418 C419 1.367 . S
C418 C426 1.378 . S
C419 C418 1.367 . S
C419 C427 1.433 . S
C420 H416 0.929 . S
C420 C422 1.378 . S
C420 C424 1.350 . S
C421 C424 1.463 . S
C421 C426 1.350 . S
C421 N429 1.427 . S
C422 H413 0.930 . S
C422 C420 1.378 . S
C422 C423 1.367 . S
C423 C422 1.367 . S
C423 C425 1.433 . S
C424 C420 1.350 . S
C424 C421 1.463 . S
C424 N428 1.427 . S
C425 H415 0.929 . S
C425 C423 1.433 . S
C425 N428 1.384 . S
C426 H417 0.929 . S
C426 C418 1.378 . S
C426 C421 1.350 . S
C427 H414 0.929 . S
C427 C419 1.433 . S
C427 N429 1.384 . S
N428 C424 1.427 . S
N428 C425 1.384 . S
N429 C421 1.427 . S
N429 C427 1.384 . S
H430 C436 0.930 . S
H431 C440 0.930 . S
H432 C445 0.929 . S
H433 C443 0.929 . S
H434 C438 0.929 . S
H435 C444 0.929 . S
C436 H430 0.930 . S
C436 C437 1.367 1_655 S
C436 C444 1.378 . S
C437 C436 1.367 1_455 S
C437 C445 1.433 . S
C438 H434 0.929 . S
C438 C440 1.378 . S
C438 C442 1.350 1_545 S
C439 C442 1.463 . S
C439 C444 1.350 . S
C439 N447 1.427 1_655 S
C440 H431 0.930 . S
C440 C438 1.378 . S
C440 C441 1.367 . S
C441 C440 1.367 . S
C441 C443 1.433 1_545 S
C442 C438 1.350 1_565 S
C442 C439 1.463 . S
C442 N446 1.427 . S
C443 H433 0.929 . S
C443 C441 1.433 1_565 S
C443 N446 1.384 . S
C444 H435 0.929 . S
C444 C436 1.378 . S
C444 C439 1.350 . S
C445 H432 0.929 . S
C445 C437 1.433 . S
C445 N447 1.384 . S
N446 C442 1.427 . S
N446 C443 1.384 . S
N447 C439 1.427 1_455 S
N447 C445 1.384 . S
H448 C454 0.930 . S
H449 C458 0.930 . S
H450 C463 0.929 . S
H451 C461 0.929 . S
H452 C456 0.929 . S
H453 C462 0.929 . S
C454 H448 0.930 . S
C454 C455 1.367 . S
C454 C462 1.378 . S
C455 C454 1.367 . S
C455 C463 1.433 . S
C456 H452 0.929 . S
C456 C458 1.378 . S
C456 C460 1.350 . S
C457 C460 1.463 . S
C457 C462 1.350 . S
C457 N465 1.427 . S
C458 H449 0.930 . S
C458 C456 1.378 . S
C458 C459 1.367 . S
C459 C458 1.367 . S
C459 C461 1.433 . S
C460 C456 1.350 . S
C460 C457 1.463 . S
C460 N464 1.427 . S
C461 H451 0.929 . S
C461 C459 1.433 . S
C461 N464 1.384 . S
C462 H453 0.929 . S
C462 C454 1.378 . S
C462 C457 1.350 . S
C463 H450 0.929 . S
C463 C455 1.433 . S
C463 N465 1.384 . S
N464 C460 1.427 . S
N464 C461 1.384 . S
N465 C457 1.427 . S
N465 C463 1.384 . S
H466 C472 0.930 . S
H467 C476 0.930 . S
H468 C481 0.929 . S
H469 C479 0.929 . S
H470 C474 0.929 . S
H471 C480 0.929 . S
C472 H466 0.930 . S
C472 C473 1.367 . S
C472 C480 1.378 . S
C473 C472 1.367 . S
C473 C481 1.433 . S
C474 H470 0.929 . S
C474 C476 1.378 . S
C474 C478 1.350 . S
C475 C478 1.463 . S
C475 C480 1.350 . S
C475 N483 1.427 . S
C476 H467 0.930 . S
C476 C474 1.378 . S
C476 C477 1.367 . S
C477 C476 1.367 . S
C477 C479 1.433 . S
C478 C474 1.350 . S
C478 C475 1.463 . S
C478 N482 1.427 . S
C479 H469 0.929 . S
C479 C477 1.433 . S
C479 N482 1.384 . S
C480 H471 0.929 . S
C480 C472 1.378 . S
C480 C475 1.350 . S
C481 H468 0.929 . S
C481 C473 1.433 . S
C481 N483 1.384 . S
N482 C478 1.427 . S
N482 C479 1.384 . S
N483 C475 1.427 . S
N483 C481 1.384 . S
H484 C490 0.930 . S
H485 C494 0.930 . S
H486 C499 0.929 . S
H487 C497 0.929 . S
H488 C492 0.929 . S
H489 C498 0.929 . S
C490 H484 0.930 . S
C490 C491 1.367 . S
C490 C498 1.378 . S
C491 C490 1.367 . S
C491 C499 1.433 . S
C492 H488 0.929 . S
C492 C494 1.378 . S
C492 C496 1.350 . S
C493 C496 1.463 . S
C493 C498 1.350 . S
C493 N501 1.427 . S
C494 H485 0.930 . S
C494 C492 1.378 . S
C494 C495 1.367 . S
C495 C494 1.367 . S
C495 C497 1.433 . S
C496 C492 1.350 . S
C496 C493 1.463 . S
C496 N500 1.427 . S
C497 H487 0.929 . S
C497 C495 1.433 . S
C497 N500 1.384 . S
C498 H489 0.929 . S
C498 C490 1.378 . S
C498 C493 1.350 . S
C499 H486 0.929 . S
C499 C491 1.433 . S
C499 N501 1.384 . S
N500 C496 1.427 . S
N500 C497 1.384 . S
N501 C493 1.427 . S
N501 C499 1.384 . S
H502 C508 0.930 . S
H503 C512 0.930 . S
H504 C517 0.929 1_545 S
H505 C515 0.929 . S
H506 C510 0.929 . S
H507 C516 0.929 . S
C508 H502 0.930 . S
C508 C509 1.367 . S
C508 C516 1.378 . S
C509 C508 1.367 . S
C509 C517 1.433 . S
C510 H506 0.929 . S
C510 C512 1.378 . S
C510 C514 1.350 1_545 S
C511 C514 1.463 . S
C511 C516 1.350 . S
C511 N519 1.427 . S
C512 H503 0.930 . S
C512 C510 1.378 . S
C512 C513 1.367 1_545 S
C513 C512 1.367 1_565 S
C513 C515 1.433 . S
C514 C510 1.350 1_565 S
C514 C511 1.463 . S
C514 N518 1.427 . S
C515 H505 0.929 . S
C515 C513 1.433 . S
C515 N518 1.384 . S
C516 H507 0.929 . S
C516 C508 1.378 . S
C516 C511 1.350 . S
C517 H504 0.929 1_565 S
C517 C509 1.433 . S
C517 N519 1.384 . S
N518 C514 1.427 . S
N518 C515 1.384 . S
N519 C511 1.427 . S
N519 C517 1.384 . S
H520 C526 0.930 . S
H521 C530 0.930 . S
H522 C535 0.929 . S
H523 C533 0.929 . S
H524 C528 0.929 . S
H525 C534 0.929 . S
C526 H520 0.930 . S
C526 C527 1.367 . S
C526 C534 1.378 . S
C527 C526 1.367 . S
C527 C535 1.433 . S
C528 H524 0.929 . S
C528 C530 1.378 . S
C528 C532 1.350 . S
C529 C532 1.463 . S
C529 C534 1.350 . S
C529 N537 1.427 . S
C530 H521 0.930 . S
C530 C528 1.378 . S
C530 C531 1.367 . S
C531 C530 1.367 . S
C531 C533 1.433 . S
C532 C528 1.350 . S
C532 C529 1.463 . S
C532 N536 1.427 . S
C533 H523 0.929 . S
C533 C531 1.433 . S
C533 N536 1.384 . S
C534 H525 0.929 . S
C534 C526 1.378 . S
C534 C529 1.350 . S
C535 H522 0.929 . S
C535 C527 1.433 . S
C535 N537 1.384 . S
N536 C532 1.427 . S
N536 C533 1.384 . S
N537 C529 1.427 . S
N537 C535 1.384 . S
H538 C544 0.930 . S
H539 C548 0.930 . S
H540 C553 0.929 . S
H541 C551 0.929 . S
H542 C546 0.929 . S
H543 C552 0.929 . S
C544 H538 0.930 . S
C544 C545 1.367 . S
C544 C552 1.378 . S
C545 C544 1.367 . S
C545 C553 1.433 . S
C546 H542 0.929 . S
C546 C548 1.378 . S
C546 C550 1.350 . S
C547 C550 1.463 . S
C547 C552 1.350 . S
C547 N555 1.427 . S
C548 H539 0.930 . S
C548 C546 1.378 . S
C548 C549 1.367 . S
C549 C548 1.367 . S
C549 C551 1.433 . S
C550 C546 1.350 . S
C550 C547 1.463 . S
C550 N554 1.427 . S
C551 H541 0.929 . S
C551 C549 1.433 . S
C551 N554 1.384 . S
C552 H543 0.929 . S
C552 C544 1.378 . S
C552 C547 1.350 . S
C553 H540 0.929 . S
C553 C545 1.433 . S
C553 N555 1.384 . S
N554 C550 1.427 . S
N554 C551 1.384 . S
N555 C547 1.427 . S
N555 C553 1.384 . S
H556 C562 0.930 . S
H557 C566 0.930 . S
H558 C571 0.929 . S
H559 C569 0.929 . S
H560 C564 0.929 . S
H561 C570 0.929 . S
C562 H556 0.930 . S
C562 C563 1.367 . S
C562 C570 1.378 . S
C563 C562 1.367 . S
C563 C571 1.433 . S
C564 H560 0.929 . S
C564 C566 1.378 . S
C564 C568 1.350 . S
C565 C568 1.463 . S
C565 C570 1.350 . S
C565 N573 1.427 . S
C566 H557 0.930 . S
C566 C564 1.378 . S
C566 C567 1.367 . S
C567 C566 1.367 . S
C567 C569 1.433 . S
C568 C564 1.350 . S
C568 C565 1.463 . S
C568 N572 1.427 . S
C569 H559 0.929 . S
C569 C567 1.433 . S
C569 N572 1.384 . S
C570 H561 0.929 . S
C570 C562 1.378 . S
C570 C565 1.350 . S
C571 H558 0.929 . S
C571 C563 1.433 . S
C571 N573 1.384 . S
N572 C568 1.427 . S
N572 C569 1.384 . S
N573 C565 1.427 . S
N573 C571 1.384 . S
H574 C580 0.930 . S
H575 C584 0.930 . S
H576 C589 0.929 . S
H577 C587 0.929 . S
H578 C582 0.929 . S
H579 C588 0.929 . S
C580 H574 0.930 . S
C580 C581 1.367 . S
C580 C588 1.378 . S
C581 C580 1.367 . S
C581 C589 1.433 . S
C582 H578 0.929 . S
C582 C584 1.378 . S
C582 C586 1.350 . S
C583 C586 1.463 . S
C583 C588 1.350 . S
C583 N591 1.427 . S
C584 H575 0.930 . S
C584 C582 1.378 . S
C584 C585 1.367 . S
C585 C584 1.367 . S
C585 C587 1.433 . S
C586 C582 1.350 . S
C586 C583 1.463 . S
C586 N590 1.427 . S
C587 H577 0.929 . S
C587 C585 1.433 . S
C587 N590 1.384 . S
C588 H579 0.929 . S
C588 C580 1.378 . S
C588 C583 1.350 . S
C589 H576 0.929 . S
C589 C581 1.433 . S
C589 N591 1.384 . S
N590 C586 1.427 . S
N590 C587 1.384 . S
N591 C583 1.427 . S
N591 C589 1.384 . S
H592 C598 0.930 . S
H593 C602 0.930 . S
H594 C607 0.929 . S
H595 C605 0.929 . S
H596 C600 0.929 . S
H597 C606 0.929 . S
C598 H592 0.930 . S
C598 C599 1.367 . S
C598 C606 1.378 . S
C599 C598 1.367 . S
C599 C607 1.433 . S
C600 H596 0.929 . S
C600 C602 1.378 . S
C600 C604 1.350 . S
C601 C604 1.463 . S
C601 C606 1.350 . S
C601 N609 1.427 . S
C602 H593 0.930 . S
C602 C600 1.378 . S
C602 C603 1.367 . S
C603 C602 1.367 . S
C603 C605 1.433 . S
C604 C600 1.350 . S
C604 C601 1.463 . S
C604 N608 1.427 . S
C605 H595 0.929 . S
C605 C603 1.433 . S
C605 N608 1.384 . S
C606 H597 0.929 . S
C606 C598 1.378 . S
C606 C601 1.350 . S
C607 H594 0.929 . S
C607 C599 1.433 . S
C607 N609 1.384 . S
N608 C604 1.427 . S
N608 C605 1.384 . S
N609 C601 1.427 . S
N609 C607 1.384 . S
H610 C616 0.930 . S
H611 C620 0.930 . S
H612 C625 0.929 . S
H613 C623 0.929 . S
H614 C618 0.929 . S
H615 C624 0.929 . S
C616 H610 0.930 . S
C616 C617 1.367 . S
C616 C624 1.378 . S
C617 C616 1.367 . S
C617 C625 1.433 . S
C618 H614 0.929 . S
C618 C620 1.378 . S
C618 C622 1.350 . S
C619 C622 1.463 . S
C619 C624 1.350 . S
C619 N627 1.427 . S
C620 H611 0.930 . S
C620 C618 1.378 . S
C620 C621 1.367 . S
C621 C620 1.367 . S
C621 C623 1.433 . S
C622 C618 1.350 . S
C622 C619 1.463 . S
C622 N626 1.427 . S
C623 H613 0.929 . S
C623 C621 1.433 . S
C623 N626 1.384 . S
C624 H615 0.929 . S
C624 C616 1.378 . S
C624 C619 1.350 . S
C625 H612 0.929 . S
C625 C617 1.433 . S
C625 N627 1.384 . S
N626 C622 1.427 . S
N626 C623 1.384 . S
N627 C619 1.427 . S
N627 C625 1.384 . S
H628 C634 0.930 . S
H629 C638 0.930 . S
H630 C643 0.929 . S
H631 C641 0.929 . S
H632 C636 0.929 . S
H633 C642 0.929 . S
C634 H628 0.930 . S
C634 C635 1.367 . S
C634 C642 1.378 . S
C635 C634 1.367 . S
C635 C643 1.433 . S
C636 H632 0.929 . S
C636 C638 1.378 . S
C636 C640 1.350 . S
C637 C640 1.463 . S
C637 C642 1.350 . S
C637 N645 1.427 . S
C638 H629 0.930 . S
C638 C636 1.378 . S
C638 C639 1.367 . S
C639 C638 1.367 . S
C639 C641 1.433 . S
C640 C636 1.350 . S
C640 C637 1.463 . S
C640 N644 1.427 . S
C641 H631 0.929 . S
C641 C639 1.433 . S
C641 N644 1.384 . S
C642 H633 0.929 . S
C642 C634 1.378 . S
C642 C637 1.350 . S
C643 H630 0.929 . S
C643 C635 1.433 . S
C643 N645 1.384 . S
N644 C640 1.427 . S
N644 C641 1.384 . S
N645 C637 1.427 . S
N645 C643 1.384 . S
H646 C652 0.930 . S
H647 C656 0.930 . S
H648 C661 0.929 . S
H649 C659 0.929 . S
H650 C654 0.929 . S
H651 C660 0.929 . S
C652 H646 0.930 . S
C652 C653 1.367 1_455 S
C652 C660 1.378 . S
C653 C652 1.367 1_655 S
C653 C661 1.433 . S
C654 H650 0.929 . S
C654 C656 1.378 . S
C654 C658 1.350 . S
C655 C658 1.463 . S
C655 C660 1.350 1_655 S
C655 N663 1.427 . S
C656 H647 0.930 . S
C656 C654 1.378 . S
C656 C657 1.367 1_655 S
C657 C656 1.367 1_455 S
C657 C659 1.433 . S
C658 C654 1.350 . S
C658 C655 1.463 . S
C658 N662 1.427 1_655 S
C659 H649 0.929 . S
C659 C657 1.433 . S
C659 N662 1.384 . S
C660 H651 0.929 . S
C660 C652 1.378 . S
C660 C655 1.350 1_455 S
C661 H648 0.929 . S
C661 C653 1.433 . S
C661 N663 1.384 . S
N662 C658 1.427 1_455 S
N662 C659 1.384 . S
N663 C655 1.427 . S
N663 C661 1.384 . S
H664 C670 0.930 . S
H665 C674 0.930 . S
H666 C679 0.929 . S
H667 C677 0.929 . S
H668 C672 0.929 . S
H669 C678 0.929 . S
C670 H664 0.930 . S
C670 C671 1.367 . S
C670 C678 1.378 . S
C671 C670 1.367 . S
C671 C679 1.433 . S
C672 H668 0.929 . S
C672 C674 1.378 . S
C672 C676 1.350 . S
C673 C676 1.463 . S
C673 C678 1.350 . S
C673 N681 1.427 . S
C674 H665 0.930 . S
C674 C672 1.378 . S
C674 C675 1.367 . S
C675 C674 1.367 . S
C675 C677 1.433 . S
C676 C672 1.350 . S
C676 C673 1.463 . S
C676 N680 1.427 . S
C677 H667 0.929 . S
C677 C675 1.433 . S
C677 N680 1.384 . S
C678 H669 0.929 . S
C678 C670 1.378 . S
C678 C673 1.350 . S
C679 H666 0.929 . S
C679 C671 1.433 . S
C679 N681 1.384 . S
N680 C676 1.427 . S
N680 C677 1.384 . S
N681 C673 1.427 . S
N681 C679 1.384 . S
H682 C688 0.930 . S
H683 C692 0.930 . S
H684 C697 0.929 . S
H685 C695 0.929 . S
H686 C690 0.929 . S
H687 C696 0.929 . S
C688 H682 0.930 . S
C688 C689 1.367 . S
C688 C696 1.378 . S
C689 C688 1.367 . S
C689 C697 1.433 . S
C690 H686 0.929 . S
C690 C692 1.378 . S
C690 C694 1.350 . S
C691 C694 1.463 . S
C691 C696 1.350 . S
C691 N699 1.427 . S
C692 H683 0.930 . S
C692 C690 1.378 . S
C692 C693 1.367 . S
C693 C692 1.367 . S
C693 C695 1.433 . S
C694 C690 1.350 . S
C694 C691 1.463 . S
C694 N698 1.427 . S
C695 H685 0.929 . S
C695 C693 1.433 . S
C695 N698 1.384 . S
C696 H687 0.929 . S
C696 C688 1.378 . S
C696 C691 1.350 . S
C697 H684 0.929 . S
C697 C689 1.433 . S
C697 N699 1.384 . S
N698 C694 1.427 . S
N698 C695 1.384 . S
N699 C691 1.427 . S
N699 C697 1.384 . S
H700 C706 0.930 . S
H701 C710 0.930 . S
H702 C715 0.929 . S
H703 C713 0.929 . S
H704 C708 0.929 1_545 S
H705 C714 0.929 . S
C706 H700 0.930 . S
C706 C707 1.367 . S
C706 C714 1.378 1_545 S
C707 C706 1.367 . S
C707 C715 1.433 . S
C708 H704 0.929 1_565 S
C708 C710 1.378 . S
C708 C712 1.350 . S
C709 C712 1.463 1_545 S
C709 C714 1.350 1_545 S
C709 N717 1.427 . S
C710 H701 0.930 . S
C710 C708 1.378 . S
C710 C711 1.367 . S
C711 C710 1.367 . S
C711 C713 1.433 . S
C712 C708 1.350 . S
C712 C709 1.463 1_565 S
C712 N716 1.427 . S
C713 H703 0.929 . S
C713 C711 1.433 . S
C713 N716 1.384 . S
C714 H705 0.929 . S
C714 C706 1.378 1_565 S
C714 C709 1.350 1_565 S
C715 H702 0.929 . S
C715 C707 1.433 . S
C715 N717 1.384 . S
N716 C712 1.427 . S
N716 C713 1.384 . S
N717 C709 1.427 . S
N717 C715 1.384 . S
H718 C724 0.930 . S
H719 C728 0.930 . S
H720 C733 0.929 . S
H721 C731 0.929 . S
H722 C726 0.929 . S
H723 C732 0.929 . S
C724 H718 0.930 . S
C724 C725 1.367 . S
C724 C732 1.378 . S
C725 C724 1.367 . S
C725 C733 1.433 . S
C726 H722 0.929 . S
C726 C728 1.378 . S
C726 C730 1.350 . S
C727 C730 1.463 . S
C727 C732 1.350 . S
C727 N735 1.427 . S
C728 H719 0.930 . S
C728 C726 1.378 . S
C728 C729 1.367 . S
C729 C728 1.367 . S
C729 C731 1.433 . S
C730 C726 1.350 . S
C730 C727 1.463 . S
C730 N734 1.427 . S
C731 H721 0.929 . S
C731 C729 1.433 . S
C731 N734 1.384 . S
C732 H723 0.929 . S
C732 C724 1.378 . S
C732 C727 1.350 . S
C733 H720 0.929 . S
C733 C725 1.433 . S
C733 N735 1.384 . S
N734 C730 1.427 . S
N734 C731 1.384 . S
N735 C727 1.427 . S
N735 C733 1.384 . S
H736 C742 0.930 . S
H737 C746 0.930 . S
H738 C751 0.929 . S
H739 C749 0.929 . S
H740 C744 0.929 . S
H741 C750 0.929 . S
C742 H736 0.930 . S
C742 C743 1.367 . S
C742 C750 1.378 . S
C743 C742 1.367 . S
C743 C751 1.433 1_565 S
C744 H740 0.929 . S
C744 C746 1.378 . S
C744 C748 1.350 . S
C745 C748 1.463 . S
C745 C750 1.350 1_545 S
C745 N753 1.427 . S
C746 H737 0.930 . S
C746 C744 1.378 . S
C746 C747 1.367 . S
C747 C746 1.367 . S
C747 C749 1.433 . S
C748 C744 1.350 . S
C748 C745 1.463 . S
C748 N752 1.427 . S
C749 H739 0.929 . S
C749 C747 1.433 . S
C749 N752 1.384 . S
C750 H741 0.929 . S
C750 C742 1.378 . S
C750 C745 1.350 1_565 S
C751 H738 0.929 . S
C751 C743 1.433 1_545 S
C751 N753 1.384 . S
N752 C748 1.427 . S
N752 C749 1.384 . S
N753 C745 1.427 . S
N753 C751 1.384 . S
H754 C760 0.930 . S
H755 C764 0.930 . S
H756 C769 0.929 . S
H757 C767 0.929 . S
H758 C762 0.929 . S
H759 C768 0.929 . S
C760 H754 0.930 . S
C760 C761 1.367 . S
C760 C768 1.378 . S
C761 C760 1.367 . S
C761 C769 1.433 . S
C762 H758 0.929 . S
C762 C764 1.378 . S
C762 C766 1.350 . S
C763 C766 1.463 . S
C763 C768 1.350 . S
C763 N771 1.427 . S
C764 H755 0.930 . S
C764 C762 1.378 . S
C764 C765 1.367 . S
C765 C764 1.367 . S
C765 C767 1.433 . S
C766 C762 1.350 . S
C766 C763 1.463 . S
C766 N770 1.427 . S
C767 H757 0.929 . S
C767 C765 1.433 . S
C767 N770 1.384 . S
C768 H759 0.929 . S
C768 C760 1.378 . S
C768 C763 1.350 . S
C769 H756 0.929 . S
C769 C761 1.433 . S
C769 N771 1.384 . S
N770 C766 1.427 . S
N770 C767 1.384 . S
N771 C763 1.427 . S
N771 C769 1.384 . S
H772 C778 0.930 . S
H773 C782 0.930 . S
H774 C787 0.929 . S
H775 C785 0.929 . S
H776 C780 0.929 . S
H777 C786 0.929 . S
C778 H772 0.930 . S
C778 C779 1.367 . S
C778 C786 1.378 1_565 S
C779 C778 1.367 . S
C779 C787 1.433 . S
C780 H776 0.929 . S
C780 C782 1.378 . S
C780 C784 1.350 . S
C781 C784 1.463 . S
C781 C786 1.350 . S
C781 N789 1.427 . S
C782 H773 0.930 . S
C782 C780 1.378 . S
C782 C783 1.367 . S
C783 C782 1.367 . S
C783 C785 1.433 . S
C784 C780 1.350 . S
C784 C781 1.463 . S
C784 N788 1.427 . S
C785 H775 0.929 . S
C785 C783 1.433 . S
C785 N788 1.384 . S
C786 H777 0.929 . S
C786 C778 1.378 1_545 S
C786 C781 1.350 . S
C787 H774 0.929 . S
C787 C779 1.433 . S
C787 N789 1.384 1_565 S
N788 C784 1.427 . S
N788 C785 1.384 . S
N789 C781 1.427 . S
N789 C787 1.384 1_545 S
H790 C796 0.930 . S
H791 C800 0.930 . S
H792 C805 0.929 . S
H793 C803 0.929 . S
H794 C798 0.929 . S
H795 C804 0.929 . S
C796 H790 0.930 . S
C796 C797 1.367 . S
C796 C804 1.378 . S
C797 C796 1.367 . S
C797 C805 1.433 . S
C798 H794 0.929 . S
C798 C800 1.378 . S
C798 C802 1.350 . S
C799 C802 1.463 . S
C799 C804 1.350 . S
C799 N807 1.427 . S
C800 H791 0.930 . S
C800 C798 1.378 . S
C800 C801 1.367 . S
C801 C800 1.367 . S
C801 C803 1.433 . S
C802 C798 1.350 . S
C802 C799 1.463 . S
C802 N806 1.427 . S
C803 H793 0.929 . S
C803 C801 1.433 . S
C803 N806 1.384 . S
C804 H795 0.929 . S
C804 C796 1.378 . S
C804 C799 1.350 . S
C805 H792 0.929 . S
C805 C797 1.433 . S
C805 N807 1.384 . S
N806 C802 1.427 . S
N806 C803 1.384 . S
N807 C799 1.427 . S
N807 C805 1.384 . S
H808 C814 0.930 . S
H809 C818 0.930 . S
H810 C823 0.929 . S
H811 C821 0.929 . S
H812 C816 0.929 . S
H813 C822 0.929 . S
C814 H808 0.930 . S
C814 C815 1.367 . S
C814 C822 1.378 . S
C815 C814 1.367 . S
C815 C823 1.433 . S
C816 H812 0.929 . S
C816 C818 1.378 . S
C816 C820 1.350 . S
C817 C820 1.463 . S
C817 C822 1.350 . S
C817 N825 1.427 . S
C818 H809 0.930 . S
C818 C816 1.378 . S
C818 C819 1.367 . S
C819 C818 1.367 . S
C819 C821 1.433 . S
C820 C816 1.350 . S
C820 C817 1.463 . S
C820 N824 1.427 . S
C821 H811 0.929 . S
C821 C819 1.433 . S
C821 N824 1.384 . S
C822 H813 0.929 . S
C822 C814 1.378 . S
C822 C817 1.350 . S
C823 H810 0.929 . S
C823 C815 1.433 . S
C823 N825 1.384 . S
N824 C820 1.427 . S
N824 C821 1.384 . S
N825 C817 1.427 . S
N825 C823 1.384 . S
H826 C832 0.930 . S
H827 C836 0.930 . S
H828 C841 0.929 . S
H829 C839 0.929 1_565 S
H830 C834 0.929 . S
H831 C840 0.929 . S
C832 H826 0.930 . S
C832 C833 1.367 . S
C832 C840 1.378 . S
C833 C832 1.367 . S
C833 C841 1.433 . S
C834 H830 0.929 . S
C834 C836 1.378 . S
C834 C838 1.350 . S
C835 C838 1.463 . S
C835 C840 1.350 . S
C835 N843 1.427 . S
C836 H827 0.930 . S
C836 C834 1.378 . S
C836 C837 1.367 . S
C837 C836 1.367 . S
C837 C839 1.433 . S
C838 C834 1.350 . S
C838 C835 1.463 . S
C838 N842 1.427 . S
C839 H829 0.929 1_545 S
C839 C837 1.433 . S
C839 N842 1.384 . S
C840 H831 0.929 . S
C840 C832 1.378 . S
C840 C835 1.350 . S
C841 H828 0.929 . S
C841 C833 1.433 . S
C841 N843 1.384 . S
N842 C838 1.427 . S
N842 C839 1.384 . S
N843 C835 1.427 . S
N843 C841 1.384 . S
H844 C850 0.930 . S
H845 C854 0.930 . S
H846 C859 0.929 . S
H847 C857 0.929 . S
H848 C852 0.929 . S
H849 C858 0.929 . S
C850 H844 0.930 . S
C850 C851 1.367 . S
C850 C858 1.378 . S
C851 C850 1.367 . S
C851 C859 1.433 . S
C852 H848 0.929 . S
C852 C854 1.378 . S
C852 C856 1.350 . S
C853 C856 1.463 . S
C853 C858 1.350 . S
C853 N861 1.427 . S
C854 H845 0.930 . S
C854 C852 1.378 . S
C854 C855 1.367 . S
C855 C854 1.367 . S
C855 C857 1.433 . S
C856 C852 1.350 . S
C856 C853 1.463 . S
C856 N860 1.427 . S
C857 H847 0.929 . S
C857 C855 1.433 . S
C857 N860 1.384 . S
C858 H849 0.929 . S
C858 C850 1.378 . S
C858 C853 1.350 . S
C859 H846 0.929 . S
C859 C851 1.433 . S
C859 N861 1.384 . S
N860 C856 1.427 . S
N860 C857 1.384 . S
N861 C853 1.427 . S
N861 C859 1.384 . S
H862 C868 0.930 . S
H863 C872 0.930 . S
H864 C877 0.929 . S
H865 C875 0.929 . S
H866 C870 0.929 . S
H867 C876 0.929 . S
C868 H862 0.930 . S
C868 C869 1.367 . S
C868 C876 1.378 . S
C869 C868 1.367 . S
C869 C877 1.433 . S
C870 H866 0.929 . S
C870 C872 1.378 . S
C870 C874 1.350 . S
C871 C874 1.463 . S
C871 C876 1.350 . S
C871 N879 1.427 . S
C872 H863 0.930 . S
C872 C870 1.378 . S
C872 C873 1.367 . S
C873 C872 1.367 . S
C873 C875 1.433 . S
C874 C870 1.350 . S
C874 C871 1.463 . S
C874 N878 1.427 . S
C875 H865 0.929 . S
C875 C873 1.433 . S
C875 N878 1.384 . S
C876 H867 0.929 . S
C876 C868 1.378 . S
C876 C871 1.350 . S
C877 H864 0.929 . S
C877 C869 1.433 . S
C877 N879 1.384 . S
N878 C874 1.427 . S
N878 C875 1.384 . S
N879 C871 1.427 . S
N879 C877 1.384 . S
H880 C886 0.930 . S
H881 C890 0.930 . S
H882 C895 0.929 . S
H883 C893 0.929 . S
H884 C888 0.929 . S
H885 C894 0.929 . S
C886 H880 0.930 . S
C886 C887 1.367 . S
C886 C894 1.378 . S
C887 C886 1.367 . S
C887 C895 1.433 . S
C888 H884 0.929 . S
C888 C890 1.378 . S
C888 C892 1.350 . S
C889 C892 1.463 . S
C889 C894 1.350 . S
C889 N897 1.427 . S
C890 H881 0.930 . S
C890 C888 1.378 . S
C890 C891 1.367 . S
C891 C890 1.367 . S
C891 C893 1.433 . S
C892 C888 1.350 . S
C892 C889 1.463 . S
C892 N896 1.427 . S
C893 H883 0.929 . S
C893 C891 1.433 . S
C893 N896 1.384 . S
C894 H885 0.929 . S
C894 C886 1.378 . S
C894 C889 1.350 . S
C895 H882 0.929 . S
C895 C887 1.433 . S
C895 N897 1.384 . S
N896 C892 1.427 . S
N896 C893 1.384 . S
N897 C889 1.427 . S
N897 C895 1.384 . S
H898 C904 0.930 1_565 S
H899 C908 0.930 . S
H900 C913 0.929 . S
H901 C911 0.929 1_565 S
H902 C906 0.929 . S
H903 C912 0.929 1_565 S
C904 H898 0.930 1_545 S
C904 C905 1.367 . S
C904 C912 1.378 . S
C905 C904 1.367 . S
C905 C913 1.433 . S
C906 H902 0.929 . S
C906 C908 1.378 . S
C906 C910 1.350 . S
C907 C910 1.463 . S
C907 C912 1.350 . S
C907 N915 1.427 . S
C908 H899 0.930 . S
C908 C906 1.378 . S
C908 C909 1.367 . S
C909 C908 1.367 . S
C909 C911 1.433 . S
C910 C906 1.350 . S
C910 C907 1.463 . S
C910 N914 1.427 . S
C911 H901 0.929 1_545 S
C911 C909 1.433 . S
C911 N914 1.384 . S
C912 H903 0.929 1_545 S
C912 C904 1.378 . S
C912 C907 1.350 . S
C913 H900 0.929 . S
C913 C905 1.433 . S
C913 N915 1.384 . S
N914 C910 1.427 . S
N914 C911 1.384 . S
N915 C907 1.427 . S
N915 C913 1.384 . S
H916 C922 0.930 . S
H917 C926 0.930 . S
H918 C931 0.929 . S
H919 C929 0.929 . S
H920 C924 0.929 . S
H921 C930 0.929 . S
C922 H916 0.930 . S
C922 C923 1.367 . S
C922 C930 1.378 . S
C923 C922 1.367 . S
C923 C931 1.433 . S
C924 H920 0.929 . S
C924 C926 1.378 . S
C924 C928 1.350 . S
C925 C928 1.463 . S
C925 C930 1.350 . S
C925 N933 1.427 . S
C926 H917 0.930 . S
C926 C924 1.378 . S
C926 C927 1.367 . S
C927 C926 1.367 . S
C927 C929 1.433 . S
C928 C924 1.350 . S
C928 C925 1.463 . S
C928 N932 1.427 . S
C929 H919 0.929 . S
C929 C927 1.433 . S
C929 N932 1.384 . S
C930 H921 0.929 . S
C930 C922 1.378 . S
C930 C925 1.350 . S
C931 H918 0.929 . S
C931 C923 1.433 . S
C931 N933 1.384 . S
N932 C928 1.427 . S
N932 C929 1.384 . S
N933 C925 1.427 . S
N933 C931 1.384 . S
H934 C940 0.930 . S
H935 C944 0.930 . S
H936 C949 0.929 1_655 S
H937 C947 0.929 . S
H938 C942 0.929 . S
H939 C948 0.929 . S
C940 H934 0.930 . S
C940 C941 1.367 . S
C940 C948 1.378 . S
C941 C940 1.367 . S
C941 C949 1.433 . S
C942 H938 0.929 . S
C942 C944 1.378 . S
C942 C946 1.350 . S
C943 C946 1.463 . S
C943 C948 1.350 . S
C943 N951 1.427 . S
C944 H935 0.930 . S
C944 C942 1.378 . S
C944 C945 1.367 . S
C945 C944 1.367 . S
C945 C947 1.433 . S
C946 C942 1.350 . S
C946 C943 1.463 . S
C946 N950 1.427 . S
C947 H937 0.929 . S
C947 C945 1.433 . S
C947 N950 1.384 . S
C948 H939 0.929 . S
C948 C940 1.378 . S
C948 C943 1.350 . S
C949 H936 0.929 1_455 S
C949 C941 1.433 . S
C949 N951 1.384 . S
N950 C946 1.427 . S
N950 C947 1.384 . S
N951 C943 1.427 . S
N951 C949 1.384 . S
H952 C958 0.930 . S
H953 C962 0.930 . S
H954 C967 0.929 . S
H955 C965 0.929 . S
H956 C960 0.929 . S
H957 C966 0.929 . S
C958 H952 0.930 . S
C958 C959 1.367 . S
C958 C966 1.378 . S
C959 C958 1.367 . S
C959 C967 1.433 . S
C960 H956 0.929 . S
C960 C962 1.378 . S
C960 C964 1.350 . S
C961 C964 1.463 . S
C961 C966 1.350 . S
C961 N969 1.427 . S
C962 H953 0.930 . S
C962 C960 1.378 . S
C962 C963 1.367 . S
C963 C962 1.367 . S
C963 C965 1.433 . S
C964 C960 1.350 . S
C964 C961 1.463 . S
C964 N968 1.427 . S
C965 H955 0.929 . S
C965 C963 1.433 . S
C965 N968 1.384 . S
C966 H957 0.929 . S
C966 C958 1.378 . S
C966 C961 1.350 . S
C967 H954 0.929 . S
C967 C959 1.433 . S
C967 N969 1.384 . S
N968 C964 1.427 . S
N968 C965 1.384 . S
N969 C961 1.427 . S
N969 C967 1.384 . S
H970 C976 0.930 . S
H971 C980 0.930 . S
H972 C985 0.929 . S
H973 C983 0.929 1_455 S
H974 C978 0.955 . S
H975 C984 0.929 . S
C976 H970 0.930 . S
C976 C977 1.367 . S
C976 C984 1.378 1_554 S
C977 C976 1.367 . S
C977 C985 1.433 . S
C978 H974 0.955 . S
C978 C980 1.378 . S
C978 C982 1.350 . S
C979 C982 1.463 . S
C979 C984 1.350 . S
C979 N987 1.427 1_556 S
C980 H971 0.930 . S
C980 C978 1.378 . S
C980 C981 1.367 . S
C981 C980 1.367 . S
C981 C983 1.433 . S
C982 C978 1.350 . S
C982 C979 1.463 . S
C982 N986 1.427 . S
C983 H973 0.929 1_655 S
C983 C981 1.433 . S
C983 N986 1.384 . S
C984 H975 0.929 . S
C984 C976 1.378 1_556 S
C984 C979 1.350 . S
C985 H972 0.929 . S
C985 C977 1.433 . S
C985 N987 1.384 . S
N986 C982 1.427 . S
N986 C983 1.384 . S
N987 C979 1.427 1_554 S
N987 C985 1.384 . S
H988 C994 0.930 . S
H989 C998 0.930 . S
H990 C1003 0.929 . S
H991 C1001 0.929 . S
H992 C996 0.929 . S
H993 C1002 0.929 . S
C994 H988 0.930 . S
C994 C995 1.367 . S
C994 C1002 1.378 . S
C995 C994 1.367 . S
C995 C1003 1.433 . S
C996 H992 0.929 . S
C996 C998 1.378 . S
C996 C1000 1.350 . S
C997 C1000 1.463 . S
C997 C1002 1.350 . S
C997 N1005 1.427 . S
C998 H989 0.930 . S
C998 C996 1.378 . S
C998 C999 1.367 . S
C999 C998 1.367 . S
C999 C1001 1.433 . S
C1000 C996 1.350 . S
C1000 C997 1.463 . S
C1000 N1004 1.427 . S
C1001 H991 0.929 . S
C1001 C999 1.433 . S
C1001 N1004 1.384 . S
C1002 H993 0.929 . S
C1002 C994 1.378 . S
C1002 C997 1.350 . S
C1003 H990 0.929 . S
C1003 C995 1.433 . S
C1003 N1005 1.384 . S
N1004 C1000 1.427 . S
N1004 C1001 1.384 . S
N1005 C997 1.427 . S
N1005 C1003 1.384 . S
H1006 C1012 0.930 . S
H1007 C1016 0.930 1_655 S
H1008 C1021 0.929 . S
H1009 C1019 0.929 . S
H1010 C1014 0.929 . S
H1011 C1020 0.929 . S
C1012 H1006 0.930 . S
C1012 C1013 1.367 1_556 S
C1012 C1020 1.378 . S
C1013 C1012 1.367 1_554 S
C1013 C1021 1.433 . S
C1014 H1010 0.929 . S
C1014 C1016 1.378 . S
C1014 C1018 1.350 . S
C1015 C1018 1.463 . S
C1015 C1020 1.350 . S
C1015 N1023 1.427 1_556 S
C1016 H1007 0.930 1_455 S
C1016 C1014 1.378 . S
C1016 C1017 1.367 . S
C1017 C1016 1.367 . S
C1017 C1019 1.433 . S
C1018 C1014 1.350 . S
C1018 C1015 1.463 . S
C1018 N1022 1.427 . S
C1019 H1009 0.929 . S
C1019 C1017 1.433 . S
C1019 N1022 1.384 . S
C1020 H1011 0.929 . S
C1020 C1012 1.378 . S
C1020 C1015 1.350 . S
C1021 H1008 0.929 . S
C1021 C1013 1.433 . S
C1021 N1023 1.384 . S
N1022 C1018 1.427 . S
N1022 C1019 1.384 . S
N1023 C1015 1.427 1_554 S
N1023 C1021 1.384 . S
H1024 C1030 0.930 . S
H1025 C1034 0.930 . S
H1026 C1039 0.929 . S
H1027 C1037 0.929 . S
H1028 C1032 0.929 . S
H1029 C1038 0.929 . S
C1030 H1024 0.930 . S
C1030 C1031 1.367 . S
C1030 C1038 1.378 . S
C1031 C1030 1.367 . S
C1031 C1039 1.433 . S
C1032 H1028 0.929 . S
C1032 C1034 1.378 . S
C1032 C1036 1.350 . S
C1033 C1036 1.463 . S
C1033 C1038 1.350 . S
C1033 N1041 1.427 . S
C1034 H1025 0.930 . S
C1034 C1032 1.378 . S
C1034 C1035 1.367 . S
C1035 C1034 1.367 . S
C1035 C1037 1.433 . S
C1036 C1032 1.350 . S
C1036 C1033 1.463 . S
C1036 N1040 1.427 . S
C1037 H1027 0.929 . S
C1037 C1035 1.433 . S
C1037 N1040 1.384 . S
C1038 H1029 0.929 . S
C1038 C1030 1.378 . S
C1038 C1033 1.350 . S
C1039 H1026 0.929 . S
C1039 C1031 1.433 . S
C1039 N1041 1.384 . S
N1040 C1036 1.427 . S
N1040 C1037 1.384 . S
N1041 C1033 1.427 . S
N1041 C1039 1.384 . S
H1042 C1048 0.930 . S
H1043 C1052 0.930 . S
H1044 C1057 0.941 . S
H1045 C1055 0.929 . S
H1046 C1050 0.929 . S
H1047 C1056 0.929 . S
C1048 H1042 0.930 . S
C1048 C1049 1.367 . S
C1048 C1056 1.378 . S
C1049 C1048 1.367 . S
C1049 C1057 1.430 1_554 S
C1050 H1046 0.929 . S
C1050 C1052 1.378 . S
C1050 C1054 1.350 . S
C1051 C1054 1.463 . S
C1051 C1056 1.350 . S
C1051 N1059 1.427 . S
C1052 H1043 0.930 . S
C1052 C1050 1.378 . S
C1052 C1053 1.367 . S
C1053 C1052 1.367 . S
C1053 C1055 1.433 . S
C1054 C1050 1.350 . S
C1054 C1051 1.463 . S
C1054 N1058 1.427 . S
C1055 H1045 0.929 . S
C1055 C1053 1.433 . S
C1055 N1058 1.384 . S
C1056 H1047 0.929 . S
C1056 C1048 1.378 . S
C1056 C1051 1.350 . S
C1057 H1044 0.941 . S
C1057 C1049 1.430 1_556 S
C1057 N1059 1.374 1_556 S
N1058 C1054 1.427 . S
N1058 C1055 1.384 . S
N1059 C1051 1.427 . S
N1059 C1057 1.374 1_554 S
H1060 C1066 0.930 . S
H1061 C1070 0.930 . S
H1062 C1075 0.929 . S
H1063 C1073 0.929 . S
H1064 C1068 0.929 . S
H1065 C1074 0.929 . S
C1066 H1060 0.930 . S
C1066 C1067 1.367 . S
C1066 C1074 1.378 . S
C1067 C1066 1.367 . S
C1067 C1075 1.433 . S
C1068 H1064 0.929 . S
C1068 C1070 1.378 . S
C1068 C1072 1.350 . S
C1069 C1072 1.463 . S
C1069 C1074 1.350 . S
C1069 N1077 1.427 . S
C1070 H1061 0.930 . S
C1070 C1068 1.378 . S
C1070 C1071 1.367 . S
C1071 C1070 1.367 . S
C1071 C1073 1.433 . S
C1072 C1068 1.350 . S
C1072 C1069 1.463 . S
C1072 N1076 1.427 . S
C1073 H1063 0.929 . S
C1073 C1071 1.433 . S
C1073 N1076 1.384 . S
C1074 H1065 0.929 . S
C1074 C1066 1.378 . S
C1074 C1069 1.350 . S
C1075 H1062 0.929 . S
C1075 C1067 1.433 . S
C1075 N1077 1.384 . S
N1076 C1072 1.427 . S
N1076 C1073 1.384 . S
N1077 C1069 1.427 . S
N1077 C1075 1.384 . S
H1078 C1084 0.930 1_556 S
H1079 C1088 0.930 . S
H1080 C1093 0.929 . S
H1081 C1091 0.929 . S
H1082 C1086 0.929 . S
H1083 C1092 0.929 . S
C1084 H1078 0.930 1_554 S
C1084 C1085 1.367 . S
C1084 C1092 1.378 . S
C1085 C1084 1.367 . S
C1085 C1093 1.433 . S
C1086 H1082 0.929 . S
C1086 C1088 1.378 . S
C1086 C1090 1.350 . S
C1087 C1090 1.463 . S
C1087 C1092 1.350 . S
C1087 N1095 1.427 . S
C1088 H1079 0.930 . S
C1088 C1086 1.378 . S
C1088 C1089 1.367 . S
C1089 C1088 1.367 . S
C1089 C1091 1.433 . S
C1090 C1086 1.350 . S
C1090 C1087 1.463 . S
C1090 N1094 1.427 . S
C1091 H1081 0.929 . S
C1091 C1089 1.433 . S
C1091 N1094 1.384 . S
C1092 H1083 0.929 . S
C1092 C1084 1.378 . S
C1092 C1087 1.350 . S
C1093 H1080 0.929 . S
C1093 C1085 1.433 . S
C1093 N1095 1.384 . S
N1094 C1090 1.427 . S
N1094 C1091 1.384 . S
N1095 C1087 1.427 . S
N1095 C1093 1.384 . S
H1096 C1102 0.930 . S
H1097 C1106 0.930 . S
H1098 C1111 0.929 . S
H1099 C1109 0.929 . S
H1100 C1104 0.929 . S
H1101 C1110 0.929 . S
C1102 H1096 0.930 . S
C1102 C1103 1.367 . S
C1102 C1110 1.378 . S
C1103 C1102 1.367 . S
C1103 C1111 1.433 . S
C1104 H1100 0.929 . S
C1104 C1106 1.378 . S
C1104 C1108 1.350 . S
C1105 C1108 1.463 . S
C1105 C1110 1.350 . S
C1105 N1113 1.427 . S
C1106 H1097 0.930 . S
C1106 C1104 1.378 . S
C1106 C1107 1.367 . S
C1107 C1106 1.367 . S
C1107 C1109 1.433 . S
C1108 C1104 1.350 . S
C1108 C1105 1.463 . S
C1108 N1112 1.427 . S
C1109 H1099 0.929 . S
C1109 C1107 1.433 . S
C1109 N1112 1.384 . S
C1110 H1101 0.929 . S
C1110 C1102 1.378 . S
C1110 C1105 1.350 . S
C1111 H1098 0.929 . S
C1111 C1103 1.433 . S
C1111 N1113 1.384 . S
N1112 C1108 1.427 . S
N1112 C1109 1.384 . S
N1113 C1105 1.427 . S
N1113 C1111 1.384 . S
H1114 C1120 0.930 . S
H1115 C1124 0.930 . S
H1116 C1129 0.929 . S
H1117 C1127 0.929 . S
H1118 C1122 0.929 . S
H1119 C1128 0.929 . S
C1120 H1114 0.930 . S
C1120 C1121 1.367 . S
C1120 C1128 1.378 . S
C1121 C1120 1.367 . S
C1121 C1129 1.433 . S
C1122 H1118 0.929 . S
C1122 C1124 1.378 . S
C1122 C1126 1.350 . S
C1123 C1126 1.463 . S
C1123 C1128 1.350 . S
C1123 N1131 1.427 . S
C1124 H1115 0.930 . S
C1124 C1122 1.378 . S
C1124 C1125 1.367 . S
C1125 C1124 1.367 . S
C1125 C1127 1.433 . S
C1126 C1122 1.350 . S
C1126 C1123 1.463 . S
C1126 N1130 1.427 . S
C1127 H1117 0.929 . S
C1127 C1125 1.433 . S
C1127 N1130 1.384 . S
C1128 H1119 0.929 . S
C1128 C1120 1.378 . S
C1128 C1123 1.350 . S
C1129 H1116 0.929 . S
C1129 C1121 1.433 . S
C1129 N1131 1.384 . S
N1130 C1126 1.427 . S
N1130 C1127 1.384 . S
N1131 C1123 1.427 . S
N1131 C1129 1.384 . S
H1132 C1138 0.930 . S
H1133 C1142 0.930 . S
H1134 C1147 0.929 . S
H1135 C1145 0.929 . S
H1136 C1140 0.929 . S
H1137 C1146 0.929 . S
C1138 H1132 0.930 . S
C1138 C1139 1.367 . S
C1138 C1146 1.378 . S
C1139 C1138 1.367 . S
C1139 C1147 1.433 . S
C1140 H1136 0.929 . S
C1140 C1142 1.378 . S
C1140 C1144 1.350 . S
C1141 C1144 1.463 . S
C1141 C1146 1.350 . S
C1141 N1149 1.427 . S
C1142 H1133 0.930 . S
C1142 C1140 1.378 . S
C1142 C1143 1.367 . S
C1143 C1142 1.367 . S
C1143 C1145 1.433 . S
C1144 C1140 1.350 . S
C1144 C1141 1.463 . S
C1144 N1148 1.427 . S
C1145 H1135 0.929 . S
C1145 C1143 1.433 . S
C1145 N1148 1.384 . S
C1146 H1137 0.929 . S
C1146 C1138 1.378 . S
C1146 C1141 1.350 . S
C1147 H1134 0.929 . S
C1147 C1139 1.433 . S
C1147 N1149 1.384 . S
N1148 C1144 1.427 . S
N1148 C1145 1.384 . S
N1149 C1141 1.427 . S
N1149 C1147 1.384 . S
H1150 C1156 0.930 . S
H1151 C1160 0.930 . S
H1152 C1165 0.929 . S
H1153 C1163 0.929 . S
H1154 C1158 0.929 . S
H1155 C1164 0.929 . S
C1156 H1150 0.930 . S
C1156 C1157 1.367 . S
C1156 C1164 1.378 . S
C1157 C1156 1.367 . S
C1157 C1165 1.433 . S
C1158 H1154 0.929 . S
C1158 C1160 1.378 . S
C1158 C1162 1.350 . S
C1159 C1162 1.463 . S
C1159 C1164 1.350 . S
C1159 N1167 1.427 . S
C1160 H1151 0.930 . S
C1160 C1158 1.378 . S
C1160 C1161 1.367 . S
C1161 C1160 1.367 . S
C1161 C1163 1.433 . S
C1162 C1158 1.350 . S
C1162 C1159 1.463 . S
C1162 N1166 1.427 . S
C1163 H1153 0.929 . S
C1163 C1161 1.433 . S
C1163 N1166 1.384 . S
C1164 H1155 0.929 . S
C1164 C1156 1.378 . S
C1164 C1159 1.350 . S
C1165 H1152 0.929 . S
C1165 C1157 1.433 . S
C1165 N1167 1.384 . S
N1166 C1162 1.427 . S
N1166 C1163 1.384 . S
N1167 C1159 1.427 . S
N1167 C1165 1.384 . S
H1168 C1174 0.930 . S
H1169 C1178 0.930 1_556 S
H1170 C1183 0.929 . S
H1171 C1181 0.929 . S
H1172 C1176 0.929 . S
H1173 C1182 0.929 . S
C1174 H1168 0.930 . S
C1174 C1175 1.367 1_554 S
C1174 C1182 1.378 . S
C1175 C1174 1.367 1_556 S
C1175 C1183 1.433 . S
C1176 H1172 0.929 . S
C1176 C1178 1.378 1_556 S
C1176 C1180 1.350 1_556 S
C1177 C1180 1.463 . S
C1177 C1182 1.350 . S
C1177 N1185 1.427 1_554 S
C1178 H1169 0.930 1_554 S
C1178 C1176 1.378 1_554 S
C1178 C1179 1.367 . S
C1179 C1178 1.367 . S
C1179 C1181 1.433 . S
C1180 C1176 1.350 1_554 S
C1180 C1177 1.463 . S
C1180 N1184 1.427 . S
C1181 H1171 0.929 . S
C1181 C1179 1.433 . S
C1181 N1184 1.384 . S
C1182 H1173 0.929 . S
C1182 C1174 1.378 . S
C1182 C1177 1.350 . S
C1183 H1170 0.929 . S
C1183 C1175 1.433 . S
C1183 N1185 1.384 . S
N1184 C1180 1.427 . S
N1184 C1181 1.384 . S
N1185 C1177 1.427 1_556 S
N1185 C1183 1.384 . S
H1186 C1192 0.930 . S
H1187 C1196 0.930 . S
H1188 C1201 0.929 . S
H1189 C1199 0.929 . S
H1190 C1194 0.929 . S
H1191 C1200 0.929 . S
C1192 H1186 0.930 . S
C1192 C1193 1.367 . S
C1192 C1200 1.378 . S
C1193 C1192 1.367 . S
C1193 C1201 1.433 . S
C1194 H1190 0.929 . S
C1194 C1196 1.378 . S
C1194 C1198 1.350 . S
C1195 C1198 1.463 . S
C1195 C1200 1.350 . S
C1195 N1203 1.427 . S
C1196 H1187 0.930 . S
C1196 C1194 1.378 . S
C1196 C1197 1.367 . S
C1197 C1196 1.367 . S
C1197 C1199 1.433 . S
C1198 C1194 1.350 . S
C1198 C1195 1.463 . S
C1198 N1202 1.427 . S
C1199 H1189 0.929 . S
C1199 C1197 1.433 . S
C1199 N1202 1.384 . S
C1200 H1191 0.929 . S
C1200 C1192 1.378 . S
C1200 C1195 1.350 . S
C1201 H1188 0.929 . S
C1201 C1193 1.433 . S
C1201 N1203 1.384 . S
N1202 C1198 1.427 . S
N1202 C1199 1.384 . S
N1203 C1195 1.427 . S
N1203 C1201 1.384 . S
H1204 C1210 0.930 . S
H1205 C1214 0.930 . S
H1206 C1219 0.929 . S
H1207 C1217 0.929 . S
H1208 C1212 0.929 . S
H1209 C1218 0.929 . S
C1210 H1204 0.930 . S
C1210 C1211 1.367 . S
C1210 C1218 1.378 . S
C1211 C1210 1.367 . S
C1211 C1219 1.433 . S
C1212 H1208 0.929 . S
C1212 C1214 1.378 . S
C1212 C1216 1.350 . S
C1213 C1216 1.463 . S
C1213 C1218 1.350 . S
C1213 N1221 1.427 . S
C1214 H1205 0.930 . S
C1214 C1212 1.378 . S
C1214 C1215 1.367 . S
C1215 C1214 1.367 . S
C1215 C1217 1.433 . S
C1216 C1212 1.350 . S
C1216 C1213 1.463 . S
C1216 N1220 1.427 . S
C1217 H1207 0.929 . S
C1217 C1215 1.433 . S
C1217 N1220 1.384 . S
C1218 H1209 0.929 . S
C1218 C1210 1.378 . S
C1218 C1213 1.350 . S
C1219 H1206 0.929 . S
C1219 C1211 1.433 . S
C1219 N1221 1.384 . S
N1220 C1216 1.427 . S
N1220 C1217 1.384 . S
N1221 C1213 1.427 . S
N1221 C1219 1.384 . S
H1222 C1228 0.930 1_546 S
H1223 C1232 0.930 . S
H1224 C1237 0.929 . S
H1225 C1235 0.929 . S
H1226 C1230 0.929 . S
H1227 C1236 0.929 1_556 S
C1228 H1222 0.930 1_564 S
C1228 C1229 1.367 . S
C1228 C1236 1.378 . S
C1229 C1228 1.367 . S
C1229 C1237 1.433 . S
C1230 H1226 0.929 . S
C1230 C1232 1.378 . S
C1230 C1234 1.350 . S
C1231 C1234 1.463 . S
C1231 C1236 1.350 . S
C1231 N1239 1.427 . S
C1232 H1223 0.930 . S
C1232 C1230 1.378 . S
C1232 C1233 1.367 . S
C1233 C1232 1.367 . S
C1233 C1235 1.433 1_554 S
C1234 C1230 1.350 . S
C1234 C1231 1.463 . S
C1234 N1238 1.427 1_554 S
C1235 H1225 0.929 . S
C1235 C1233 1.433 1_556 S
C1235 N1238 1.384 . S
C1236 H1227 0.929 1_554 S
C1236 C1228 1.378 . S
C1236 C1231 1.350 . S
C1237 H1224 0.929 . S
C1237 C1229 1.433 . S
C1237 N1239 1.384 . S
N1238 C1234 1.427 1_556 S
N1238 C1235 1.384 . S
N1239 C1231 1.427 . S
N1239 C1237 1.384 . S
C387 C216 1.691 . S
C383 C73 1.741 . S
C405 C229 1.287 . S
C401 C82 1.238 . S
C419 C100 1.927 . S
C423 C249 1.806 . S
C441 C263 1.260 . S
C437 C56 1.261 . S
C459 C275 1.421 . S
C455 C134 1.403 . S
C477 C289 1.670 . S
C473 C165 1.653 . S
C491 C147 1.180 . S
C495 C299 1.210 . S
C513 C314 1.845 . S
C509 C125 1.857 . S
C527 C151 1.392 . S
C531 C328 1.371 . S
C549 C347 1.385 . S
C545 C121 1.379 . S
C563 C139 1.753 . S
C567 C327 1.761 . S
C585 C345 1.263 . S
C581 C164 1.270 . S
C599 C95 1.420 . S
C603 C361 1.379 . S
C617 C61 1.468 . S
C621 C355 1.473 . S
C635 C74 1.465 . S
C639 C359 1.466 . S
C653 C86 1.787 . S
C657 C356 1.758 . S
C671 C47 1.432 . S
C675 C258 1.389 . S
C689 C186 1.262 . S
C693 C257 1.308 . S
C711 C221 1.333 . S
C707 C204 1.433 . S
C729 C235 1.821 . S
C725 C112 1.930 . S
C743 C60 1.403 . S
C747 C272 1.358 . S
C765 C317 1.463 . S
C761 C152 1.458 . S
C783 C271 1.868 . S
C779 C126 1.881 . S
C801 C303 1.238 . S
C797 C160 1.238 . S
C819 C300 1.695 . S
C815 C190 1.741 . S
C833 C199 1.242 . S
C837 C313 1.286 . S
C851 C113 1.928 . S
C855 C277 1.817 . S
C873 C291 1.259 . S
C869 C173 1.262 . S
C887 C43 1.403 . S
C891 C247 1.421 . S
C909 C261 1.670 . S
C905 C9 1.659 1_655 S
C927 C215 1.207 . S
C923 C17 1.173 . S
C945 C230 1.845 . S
C941 C34 1.856 1_455 S
C959 C21 1.390 . S
C963 C342 1.376 . S
C977 C30 1.376 . S
C981 C333 1.386 . S
C995 C48 1.753 . S
C999 C341 1.760 . S
C1013 C8 1.268 . S
C1017 C331 1.268 . S
C1035 C375 1.377 . S
C1031 C108 1.431 . S
C1053 C369 1.471 . S
C1049 C178 1.466 1_554 S
C1071 C373 1.462 . S
C1067 C191 1.465 . S
C1085 C203 1.788 1_554 S
C1089 C370 1.762 . S
C1103 C138 1.433 . S
C1107 C286 1.393 . S
C1125 C285 1.316 . S
C1121 C69 1.277 . S
C1143 C305 1.322 . S
C1139 C87 1.434 . S
C1161 C319 1.825 . S
C1157 C99 1.930 . S
C1175 C177 1.401 . S
C1179 C244 1.357 . S
C1197 C233 1.458 . S
C1193 C22 1.460 . S
C1211 C35 1.879 . S
C1215 C243 1.862 . S
C1233 C219 1.238 . S
C1229 C4 1.238 . S
