# Generated by pormake.
# Topology ptr, (4,4)-cn, num edge types: 1
# Building blocks:
#     Node 0, Type 0, BuildingBlock: CEKHIL_clean_sbu_0, # of connection points: 4
#     Node 1, Type 0, BuildingBlock: CEKHIL_clean_sbu_0, # of connection points: 4
#     Node 2, Type 0, BuildingBlock: CEKHIL_clean_sbu_0, # of connection points: 4
#     Node 3, Type 0, BuildingBlock: CEKHIL_clean_sbu_0, # of connection points: 4
#     Node 4, Type 0, BuildingBlock: CEKHIL_clean_sbu_0, # of connection points: 4
#     Node 5, Type 0, BuildingBlock: CEKHIL_clean_sbu_0, # of connection points: 4
#     Node 6, Type 0, BuildingBlock: CEKHIL_clean_sbu_0, # of connection points: 4
#     Node 7, Type 0, BuildingBlock: CEKHIL_clean_sbu_0, # of connection points: 4
#     Node 8, Type 0, BuildingBlock: CEKHIL_clean_sbu_0, # of connection points: 4
#     Node 9, Type 0, BuildingBlock: CEKHIL_clean_sbu_0, # of connection points: 4
#     Node 10, Type 0, BuildingBlock: CEKHIL_clean_sbu_0, # of connection points: 4
#     Node 11, Type 0, BuildingBlock: CEKHIL_clean_sbu_0, # of connection points: 4
#     Node 12, Type 0, BuildingBlock: CEKHIL_clean_sbu_0, # of connection points: 4
#     Node 13, Type 0, BuildingBlock: CEKHIL_clean_sbu_0, # of connection points: 4
#     Node 14, Type 0, BuildingBlock: CEKHIL_clean_sbu_0, # of connection points: 4
#     Node 15, Type 0, BuildingBlock: CEKHIL_clean_sbu_0, # of connection points: 4
#     Node 16, Type 0, BuildingBlock: CEKHIL_clean_sbu_0, # of connection points: 4
#     Node 17, Type 0, BuildingBlock: CEKHIL_clean_sbu_0, # of connection points: 4
#     Node 18, Type 1, BuildingBlock: NAWXER_clean_linker_0, # of connection points: 4
#     Node 19, Type 1, BuildingBlock: NAWXER_clean_linker_0, # of connection points: 4
#     Node 20, Type 1, BuildingBlock: NAWXER_clean_linker_0, # of connection points: 4
#     Node 21, Type 1, BuildingBlock: NAWXER_clean_linker_0, # of connection points: 4
#     Node 22, Type 1, BuildingBlock: NAWXER_clean_linker_0, # of connection points: 4
#     Node 23, Type 1, BuildingBlock: NAWXER_clean_linker_0, # of connection points: 4
#     Node 24, Type 1, BuildingBlock: NAWXER_clean_linker_0, # of connection points: 4
#     Node 25, Type 1, BuildingBlock: NAWXER_clean_linker_0, # of connection points: 4
#     Node 26, Type 1, BuildingBlock: NAWXER_clean_linker_0, # of connection points: 4
#     Node 27, Type 1, BuildingBlock: NAWXER_clean_linker_0, # of connection points: 4
#     Node 28, Type 1, BuildingBlock: NAWXER_clean_linker_0, # of connection points: 4
#     Node 29, Type 1, BuildingBlock: NAWXER_clean_linker_0, # of connection points: 4
#     Node 30, Type 1, BuildingBlock: NAWXER_clean_linker_0, # of connection points: 4
#     Node 31, Type 1, BuildingBlock: NAWXER_clean_linker_0, # of connection points: 4
#     Node 32, Type 1, BuildingBlock: NAWXER_clean_linker_0, # of connection points: 4
#     Node 33, Type 1, BuildingBlock: NAWXER_clean_linker_0, # of connection points: 4
#     Node 34, Type 1, BuildingBlock: NAWXER_clean_linker_0, # of connection points: 4
#     Node 35, Type 1, BuildingBlock: NAWXER_clean_linker_0, # of connection points: 4
#     Edge 36, Type (0, 1), BuildingBlock: ZUJKAS_clean_linker_0, # of connection points: 2
#     Edge 37, Type (0, 1), BuildingBlock: ZUJKAS_clean_linker_0, # of connection points: 2
#     Edge 38, Type (0, 1), BuildingBlock: ZUJKAS_clean_linker_0, # of connection points: 2
#     Edge 39, Type (0, 1), BuildingBlock: ZUJKAS_clean_linker_0, # of connection points: 2
#     Edge 40, Type (0, 1), BuildingBlock: ZUJKAS_clean_linker_0, # of connection points: 2
#     Edge 41, Type (0, 1), BuildingBlock: ZUJKAS_clean_linker_0, # of connection points: 2
#     Edge 42, Type (0, 1), BuildingBlock: ZUJKAS_clean_linker_0, # of connection points: 2
#     Edge 43, Type (0, 1), BuildingBlock: ZUJKAS_clean_linker_0, # of connection points: 2
#     Edge 44, Type (0, 1), BuildingBlock: ZUJKAS_clean_linker_0, # of connection points: 2
#     Edge 45, Type (0, 1), BuildingBlock: ZUJKAS_clean_linker_0, # of connection points: 2
#     Edge 46, Type (0, 1), BuildingBlock: ZUJKAS_clean_linker_0, # of connection points: 2
#     Edge 47, Type (0, 1), BuildingBlock: ZUJKAS_clean_linker_0, # of connection points: 2
#     Edge 48, Type (0, 1), BuildingBlock: ZUJKAS_clean_linker_0, # of connection points: 2
#     Edge 49, Type (0, 1), BuildingBlock: ZUJKAS_clean_linker_0, # of connection points: 2
#     Edge 50, Type (0, 1), BuildingBlock: ZUJKAS_clean_linker_0, # of connection points: 2
#     Edge 51, Type (0, 1), BuildingBlock: ZUJKAS_clean_linker_0, # of connection points: 2
#     Edge 52, Type (0, 1), BuildingBlock: ZUJKAS_clean_linker_0, # of connection points: 2
#     Edge 53, Type (0, 1), BuildingBlock: ZUJKAS_clean_linker_0, # of connection points: 2
#     Edge 54, Type (0, 1), BuildingBlock: ZUJKAS_clean_linker_0, # of connection points: 2
#     Edge 55, Type (0, 1), BuildingBlock: ZUJKAS_clean_linker_0, # of connection points: 2
#     Edge 56, Type (0, 1), BuildingBlock: ZUJKAS_clean_linker_0, # of connection points: 2
#     Edge 57, Type (0, 1), BuildingBlock: ZUJKAS_clean_linker_0, # of connection points: 2
#     Edge 58, Type (0, 1), BuildingBlock: ZUJKAS_clean_linker_0, # of connection points: 2
#     Edge 59, Type (0, 1), BuildingBlock: ZUJKAS_clean_linker_0, # of connection points: 2
#     Edge 60, Type (0, 1), BuildingBlock: ZUJKAS_clean_linker_0, # of connection points: 2
#     Edge 61, Type (0, 1), BuildingBlock: ZUJKAS_clean_linker_0, # of connection points: 2
#     Edge 62, Type (0, 1), BuildingBlock: ZUJKAS_clean_linker_0, # of connection points: 2
#     Edge 63, Type (0, 1), BuildingBlock: ZUJKAS_clean_linker_0, # of connection points: 2
#     Edge 64, Type (0, 1), BuildingBlock: ZUJKAS_clean_linker_0, # of connection points: 2
#     Edge 65, Type (0, 1), BuildingBlock: ZUJKAS_clean_linker_0, # of connection points: 2
#     Edge 66, Type (0, 1), BuildingBlock: ZUJKAS_clean_linker_0, # of connection points: 2
#     Edge 67, Type (0, 1), BuildingBlock: ZUJKAS_clean_linker_0, # of connection points: 2
#     Edge 68, Type (0, 1), BuildingBlock: ZUJKAS_clean_linker_0, # of connection points: 2
#     Edge 69, Type (0, 1), BuildingBlock: ZUJKAS_clean_linker_0, # of connection points: 2
#     Edge 70, Type (0, 1), BuildingBlock: ZUJKAS_clean_linker_0, # of connection points: 2
#     Edge 71, Type (0, 1), BuildingBlock: ZUJKAS_clean_linker_0, # of connection points: 2
#     Edge 72, Type (0, 1), BuildingBlock: ZUJKAS_clean_linker_0, # of connection points: 2
#     Edge 73, Type (0, 1), BuildingBlock: ZUJKAS_clean_linker_0, # of connection points: 2
#     Edge 74, Type (0, 1), BuildingBlock: ZUJKAS_clean_linker_0, # of connection points: 2
#     Edge 75, Type (0, 1), BuildingBlock: ZUJKAS_clean_linker_0, # of connection points: 2
#     Edge 76, Type (0, 1), BuildingBlock: ZUJKAS_clean_linker_0, # of connection points: 2
#     Edge 77, Type (0, 1), BuildingBlock: ZUJKAS_clean_linker_0, # of connection points: 2
#     Edge 78, Type (0, 1), BuildingBlock: ZUJKAS_clean_linker_0, # of connection points: 2
#     Edge 79, Type (0, 1), BuildingBlock: ZUJKAS_clean_linker_0, # of connection points: 2
#     Edge 80, Type (0, 1), BuildingBlock: ZUJKAS_clean_linker_0, # of connection points: 2
#     Edge 81, Type (0, 1), BuildingBlock: ZUJKAS_clean_linker_0, # of connection points: 2
#     Edge 82, Type (0, 1), BuildingBlock: ZUJKAS_clean_linker_0, # of connection points: 2
#     Edge 83, Type (0, 1), BuildingBlock: ZUJKAS_clean_linker_0, # of connection points: 2
#     Edge 84, Type (0, 1), BuildingBlock: ZUJKAS_clean_linker_0, # of connection points: 2
#     Edge 85, Type (0, 1), BuildingBlock: ZUJKAS_clean_linker_0, # of connection points: 2
#     Edge 86, Type (0, 1), BuildingBlock: ZUJKAS_clean_linker_0, # of connection points: 2
#     Edge 87, Type (0, 1), BuildingBlock: ZUJKAS_clean_linker_0, # of connection points: 2
#     Edge 88, Type (0, 1), BuildingBlock: ZUJKAS_clean_linker_0, # of connection points: 2
#     Edge 89, Type (0, 1), BuildingBlock: ZUJKAS_clean_linker_0, # of connection points: 2
#     Edge 90, Type (0, 1), BuildingBlock: ZUJKAS_clean_linker_0, # of connection points: 2
#     Edge 91, Type (0, 1), BuildingBlock: ZUJKAS_clean_linker_0, # of connection points: 2
#     Edge 92, Type (0, 1), BuildingBlock: ZUJKAS_clean_linker_0, # of connection points: 2
#     Edge 93, Type (0, 1), BuildingBlock: ZUJKAS_clean_linker_0, # of connection points: 2
#     Edge 94, Type (0, 1), BuildingBlock: ZUJKAS_clean_linker_0, # of connection points: 2
#     Edge 95, Type (0, 1), BuildingBlock: ZUJKAS_clean_linker_0, # of connection points: 2
#     Edge 96, Type (0, 1), BuildingBlock: ZUJKAS_clean_linker_0, # of connection points: 2
#     Edge 97, Type (0, 1), BuildingBlock: ZUJKAS_clean_linker_0, # of connection points: 2
#     Edge 98, Type (0, 1), BuildingBlock: ZUJKAS_clean_linker_0, # of connection points: 2
#     Edge 99, Type (0, 1), BuildingBlock: ZUJKAS_clean_linker_0, # of connection points: 2
#     Edge 100, Type (0, 1), BuildingBlock: ZUJKAS_clean_linker_0, # of connection points: 2
#     Edge 101, Type (0, 1), BuildingBlock: ZUJKAS_clean_linker_0, # of connection points: 2
#     Edge 102, Type (0, 1), BuildingBlock: ZUJKAS_clean_linker_0, # of connection points: 2
#     Edge 103, Type (0, 1), BuildingBlock: ZUJKAS_clean_linker_0, # of connection points: 2
#     Edge 104, Type (0, 1), BuildingBlock: ZUJKAS_clean_linker_0, # of connection points: 2
#     Edge 105, Type (0, 1), BuildingBlock: ZUJKAS_clean_linker_0, # of connection points: 2
#     Edge 106, Type (0, 1), BuildingBlock: ZUJKAS_clean_linker_0, # of connection points: 2
#     Edge 107, Type (0, 1), BuildingBlock: ZUJKAS_clean_linker_0, # of connection points: 2
# Relax obj value: 0.032
# Max RMSD: 0.130
# Mean RMSD: 0.053
data_MOF--net-ptr--node1-CEKHIL_clean_sbu_0--node2-NAWXER_clean_linker_0--edge1-ZUJKAS_clean_linker_0
_symmetry_space_group_name_H-M    P1
_symmetry_Int_Tables_number       1
_symmetry_cell_setting            triclinic
loop_
_symmetry_equiv_pos_as_xyz
'x, y, z'
_cell_length_a     109.16587
_cell_length_b     107.99943
_cell_length_c     80.649601
_cell_angle_alpha  90.950133
_cell_angle_beta   89.454749
_cell_angle_gamma 120.93109
loop_
_atom_site_label
_atom_site_type_symbol
_atom_site_fract_x
_atom_site_fract_y
_atom_site_fract_z
_atom_type_partial_charge
Co0 Co 0.00768 0.34291 0.00595 0.0
O1 O 0.01337 0.33329 0.02111 0.0
O2 O 0.02812 0.35434 0.00957 0.0
C3 C 0.99355 0.32334 0.99012 0.0
O4 O 0.00563 0.35575 0.98928 0.0
Co5 Co 0.9758 0.33408 0.0039 0.0
O6 O 0.98228 0.34626 0.98386 0.0
C7 C 0.99326 0.35203 0.03203 0.0
C8 C 0.0263 0.3441 0.01943 0.0
C9 C 0.9954 0.35538 0.98099 0.0
O10 O 0.00444 0.35319 0.02503 0.0
O11 O 0.98064 0.34399 0.02623 0.0
O12 O 0.00728 0.33058 0.98771 0.0
O13 O 0.9891 0.3273 0.00287 0.0
Co14 Co 0.6597 0.66174 0.00871 0.0
O15 O 0.67312 0.67149 0.99111 0.0
O16 O 0.66861 0.65093 0.00223 0.0
C17 C 0.66656 0.68135 0.02498 0.0
O18 O 0.6472 0.64881 0.02736 0.0
Co19 Co 0.6363 0.66889 0.0176 0.0
O20 O 0.63328 0.65692 0.03735 0.0
C21 C 0.63313 0.65155 0.98756 0.0
C22 C 0.67575 0.66106 0.99153 0.0
C23 C 0.63823 0.64852 0.03806 0.0
O24 O 0.64403 0.6508 0.99195 0.0
O25 O 0.62899 0.65915 0.99546 0.0
O26 O 0.67362 0.67466 0.02513 0.0
O27 O 0.65655 0.67682 0.01402 0.0
Co28 Co 0.34126 0.0028 0.00925 0.0
O29 O 0.33162 0.00741 0.99288 0.0
O30 O 0.35202 0.02332 0.00489 0.0
C31 C 0.32177 0.9887 0.02471 0.0
O32 O 0.35399 0.00203 0.02709 0.0
Co33 Co 0.33359 0.97106 0.01348 0.0
O34 O 0.34501 0.97885 0.03409 0.0
C35 C 0.35133 0.98776 0.98514 0.0
C36 C 0.34191 0.02073 0.99446 0.0
C37 C 0.35372 0.99231 0.03641 0.0
O38 O 0.35212 0.99922 0.9913 0.0
O39 O 0.34352 0.97522 0.99138 0.0
O40 O 0.3285 0.00266 0.02649 0.0
O41 O 0.32619 0.98391 0.01271 0.0
Co42 Co 0.99894 0.66292 0.00988 0.0
O43 O 0.99374 0.67248 0.99404 0.0
O44 O 0.97863 0.65145 0.00537 0.0
C45 C 0.01247 0.68257 0.02591 0.0
O46 O 1.00041 0.65012 0.02714 0.0
Co47 Co 0.03069 0.6718 0.01375 0.0
O48 O 0.02354 0.6592 0.03341 0.0
C49 C 0.01432 0.65395 0.985 0.0
C50 C 0.98075 0.66168 0.99531 0.0
C51 C 0.01031 0.65022 0.03583 0.0
O52 O 0.00287 0.65265 0.99135 0.0
O53 O 0.02671 0.66208 0.99136 0.0
O54 O 0.99868 0.67524 0.02771 0.0
O55 O 0.0174 0.67861 0.01361 0.0
Co56 Co 0.34191 0.34266 0.00663 0.0
O57 O 0.32773 0.33227 0.02329 0.0
O58 O 0.33315 0.35356 0.01354 0.0
C59 C 0.33523 0.3238 0.98916 0.0
O60 O 0.35545 0.35629 0.98906 0.0
Co61 Co 0.36494 0.3347 0.99851 0.0
O62 O 0.37027 0.34879 0.9804 0.0
C63 C 0.36681 0.35021 0.02959 0.0
C64 C 0.32541 0.34291 0.02345 0.0
C65 C 0.3654 0.35726 0.97948 0.0
O66 O 0.35697 0.35238 0.02437 0.0
O67 O 0.37052 0.34221 0.02183 0.0
O68 O 0.32851 0.33083 0.98917 0.0
O69 O 0.3447 0.32749 0.00063 0.0
Co70 Co 0.66212 0.00137 0.00977 0.0
O71 O 0.67154 0.99634 0.02596 0.0
O72 O 0.65116 0.98077 0.01366 0.0
C73 C 0.68172 0.01557 0.99454 0.0
O74 O 0.64962 0.00262 0.99199 0.0
Co75 Co 0.67012 0.03326 0.0065 0.0
O76 O 0.65866 0.02599 0.98589 0.0
C77 C 0.65174 0.01603 0.03416 0.0
C78 C 0.66115 0.9831 0.02413 0.0
C79 C 0.64995 0.0126 0.9831 0.0
O80 O 0.65125 0.00475 0.02789 0.0
O81 O 0.65951 0.02866 0.02815 0.0
O82 O 0.67484 0.00164 0.99245 0.0
O83 O 0.67739 0.02026 0.00674 0.0
Co84 Co 0.67128 0.67733 0.34046 0.0
O85 O 0.67504 0.66721 0.35711 0.0
O86 O 0.69136 0.68793 0.34611 0.0
C87 C 0.65774 0.65782 0.32424 0.0
O88 O 0.67151 0.69062 0.32262 0.0
Co89 Co 0.64041 0.67023 0.33363 0.0
O90 O 0.64911 0.6819 0.31349 0.0
C91 C 0.65566 0.68739 0.36339 0.0
C92 C 0.68829 0.67755 0.35638 0.0
C93 C 0.66253 0.69063 0.31237 0.0
O94 O 0.66717 0.68805 0.35823 0.0
O95 O 0.64363 0.67995 0.35597 0.0
O96 O 0.67159 0.66458 0.3232 0.0
O97 O 0.65267 0.66231 0.33583 0.0
Co98 Co 0.32915 0.99478 0.34587 0.0
O99 O 0.34347 0.00375 0.32889 0.0
O100 O 0.337 0.98277 0.34042 0.0
C101 C 0.33655 0.01462 0.36193 0.0
O102 O 0.31535 0.98236 0.36401 0.0
Co103 Co 0.307 0.00412 0.35272 0.0
O104 O 0.30233 0.99195 0.37263 0.0
C105 C 0.30372 0.98617 0.32321 0.0
C106 C 0.345 0.99263 0.32978 0.0
C107 C 0.3063 0.98278 0.374 0.0
O108 O 0.31401 0.98467 0.32832 0.0
O109 O 0.29996 0.9943 0.33057 0.0
O110 O 0.34281 0.00716 0.36287 0.0
O111 O 0.3271 0.01067 0.35037 0.0
Co112 Co 0.01085 0.33862 0.34229 0.0
O113 O 0.00168 0.34363 0.32568 0.0
O114 O 0.02208 0.35911 0.33802 0.0
C115 C 0.991 0.32476 0.35734 0.0
O116 O 0.02324 0.33763 0.36042 0.0
Co117 Co 0.00265 0.30683 0.34723 0.0
O118 O 0.01412 0.31454 0.36778 0.0
C119 C 0.02076 0.32305 0.31882 0.0
C120 C 0.01222 0.35683 0.32738 0.0
C121 C 0.02291 0.328 0.36995 0.0
O122 O 0.02158 0.33467 0.3245 0.0
O123 O 0.01296 0.31069 0.32545 0.0
O124 O 0.99802 0.33871 0.35931 0.0
O125 O 0.99549 0.31985 0.34555 0.0
Co126 Co 0.66163 0.99127 0.34543 0.0
O127 O 0.65652 0.00029 0.32871 0.0
O128 O 0.64151 0.97936 0.34033 0.0
C129 C 0.67451 0.01129 0.36121 0.0
O130 O 0.66279 0.97885 0.36339 0.0
Co131 Co 0.69331 0.0007 0.35147 0.0
O132 O 0.68563 0.98806 0.37108 0.0
C133 C 0.67835 0.98306 0.32193 0.0
C134 C 0.64362 0.98926 0.32978 0.0
C135 C 0.67233 0.97901 0.37283 0.0
O136 O 0.66644 0.98108 0.32766 0.0
O137 O 0.6904 0.99152 0.32888 0.0
O138 O 0.66068 0.00377 0.36261 0.0
O139 O 0.67985 0.00718 0.34952 0.0
Co140 Co 0.00986 0.67552 0.34314 0.0
O141 O 0.99594 0.66511 0.3601 0.0
O142 O 1.0001 0.68561 0.34916 0.0
C143 C 0.00431 0.65638 0.32655 0.0
O144 O 0.02274 0.68903 0.32509 0.0
Co145 Co 0.03434 0.66961 0.33547 0.0
O146 O 0.03804 0.68227 0.3162 0.0
C147 C 0.0356 0.6859 0.36575 0.0
C148 C 0.99286 0.67522 0.35954 0.0
C149 C 0.03251 0.69014 0.3151 0.0
O150 O 0.02483 0.68658 0.36066 0.0
O151 O 0.04023 0.6786 0.35816 0.0
O152 O 0.99679 0.66258 0.32604 0.0
O153 O 0.01391 0.66104 0.33801 0.0
Co154 Co 0.32793 0.33541 0.34214 0.0
O155 O 0.33805 0.33139 0.3585 0.0
O156 O 0.31723 0.31511 0.3476 0.0
C157 C 0.34702 0.3488 0.3258 0.0
O158 O 0.3147 0.33543 0.32445 0.0
Co159 Co 0.33553 0.36688 0.33604 0.0
O160 O 0.3231 0.35822 0.3163 0.0
C161 C 0.31874 0.35162 0.3656 0.0
C162 C 0.32768 0.31805 0.35762 0.0
C163 C 0.31446 0.34466 0.31475 0.0
O164 O 0.3177 0.33985 0.36013 0.0
O165 O 0.32635 0.36379 0.35848 0.0
O166 O 0.34015 0.3348 0.32468 0.0
O167 O 0.34295 0.35409 0.33761 0.0
Co168 Co 0.34182 0.01256 0.67283 0.0
O169 O 0.34634 0.00313 0.68964 0.0
O170 O 0.36195 0.02386 0.67805 0.0
C171 C 0.32847 0.99268 0.65706 0.0
O172 O 0.34128 0.02531 0.65483 0.0
Co173 Co 0.31052 0.00434 0.66647 0.0
O174 O 0.31866 0.01616 0.6463 0.0
C175 C 0.32582 0.02204 0.6959 0.0
C176 C 0.35941 0.01384 0.68864 0.0
C177 C 0.33201 0.0251 0.64489 0.0
O178 O 0.33749 0.02319 0.69049 0.0
O179 O 0.31374 0.01413 0.68876 0.0
O180 O 0.34231 0.99975 0.65575 0.0
O181 O 0.32336 0.99711 0.66866 0.0
Co182 Co 0.99283 0.3279 0.67336 0.0
O183 O 0.00778 0.33893 0.65764 0.0
O184 O 0.00249 0.31768 0.6674 0.0
C185 C 0.99786 0.34631 0.69096 0.0
O186 O 0.97878 0.31365 0.69011 0.0
Co187 Co 0.96845 0.33415 0.68 0.0
O188 O 0.96395 0.32101 0.69898 0.0
C189 C 0.96819 0.31882 0.64927 0.0
C190 C 0.01049 0.32855 0.65789 0.0
C191 C 0.9689 0.31262 0.69986 0.0
O192 O 0.97877 0.31795 0.6547 0.0
O193 O 0.96326 0.32582 0.65693 0.0
O194 O 0.00509 0.33981 0.69162 0.0
O195 O 0.98892 0.34241 0.67884 0.0
Co196 Co 0.67613 0.6693 0.67562 0.0
O197 O 0.66645 0.67336 0.65871 0.0
O198 O 0.68685 0.68965 0.67041 0.0
C199 C 0.65666 0.65577 0.69138 0.0
O200 O 0.68898 0.6692 0.69377 0.0
Co201 Co 0.66847 0.63782 0.68173 0.0
O202 O 0.68047 0.64636 0.7018 0.0
C203 C 0.68595 0.65334 0.65267 0.0
C204 C 0.67675 0.68672 0.65983 0.0
C205 C 0.68909 0.65991 0.7035 0.0
O206 O 0.68683 0.66504 0.65809 0.0
O207 O 0.67821 0.6411 0.6596 0.0
O208 O 0.66349 0.66976 0.69259 0.0
O209 O 0.66101 0.65055 0.67978 0.0
Co210 Co 0.33023 0.32617 0.67826 0.0
O211 O 0.32634 0.33616 0.66155 0.0
O212 O 0.31029 0.31505 0.67199 0.0
C213 C 0.34284 0.3455 0.69509 0.0
O214 O 0.33017 0.31287 0.69599 0.0
Co215 Co 0.36139 0.33443 0.68578 0.0
O216 O 0.35259 0.32172 0.70515 0.0
C217 C 0.34719 0.31767 0.65545 0.0
C218 C 0.31322 0.32549 0.66186 0.0
C219 C 0.3392 0.31275 0.70607 0.0
O220 O 0.33528 0.31613 0.66054 0.0
O221 O 0.35904 0.32556 0.66307 0.0
O222 O 0.32896 0.33834 0.69559 0.0
O223 O 0.34847 0.34156 0.68358 0.0
Co224 Co 0.6743 0.01066 0.67232 0.0
O225 O 0.66083 0.00166 0.69009 0.0
O226 O 0.66647 0.0225 0.67878 0.0
C227 C 0.66626 0.99059 0.65648 0.0
O228 O 0.68713 0.02303 0.65353 0.0
Co229 Co 0.69629 0.00157 0.66316 0.0
O230 O 0.69971 0.01348 0.64322 0.0
C231 C 0.70067 0.01941 0.69318 0.0
C232 C 0.659 0.01262 0.68963 0.0
C233 C 0.69562 0.0226 0.64266 0.0
O234 O 0.69029 0.02107 0.68886 0.0
O235 O 0.70397 0.01112 0.68531 0.0
O236 O 0.65989 0.99796 0.6561 0.0
O237 O 0.67636 0.99488 0.66726 0.0
Co238 Co 0.991 0.66575 0.67426 0.0
O239 O 0.9997 0.66092 0.69164 0.0
O240 O 0.97961 0.64533 0.6788 0.0
C241 C 0.01121 0.67933 0.65962 0.0
O242 O 0.97907 0.66656 0.65546 0.0
Co243 Co 0.99959 0.69757 0.66835 0.0
O244 O 0.98811 0.68958 0.64782 0.0
C245 C 0.98115 0.68187 0.69677 0.0
C246 C 0.98917 0.64771 0.68991 0.0
C247 C 0.97941 0.67609 0.64576 0.0
O248 O 0.97992 0.67004 0.69121 0.0
O249 O 0.98945 0.69416 0.6902 0.0
O250 O 0.00423 0.66535 0.658 0.0
O251 O 0.00648 0.68442 0.67092 0.0
C252 C 0.21234 0.33673 0.13885 0.0
C253 C 0.20961 0.32804 0.1246 0.0
C254 C 0.20108 0.33541 0.14858 0.0
C255 C 0.18688 0.32518 0.14441 0.0
C256 C 0.19538 0.31789 0.12038 0.0
C257 C 0.18413 0.31652 0.13016 0.0
C258 C 0.17486 0.3243 0.15404 0.0
C259 C 0.1985 0.31173 0.1887 0.0
C260 C 0.20521 0.32168 0.2018 0.0
C261 C 0.18833 0.31233 0.17887 0.0
C262 C 0.18471 0.32291 0.18198 0.0
C263 C 0.2013 0.33202 0.20511 0.0
C264 C 0.19108 0.33255 0.19538 0.0
C265 C 0.1742 0.32395 0.17154 0.0
C266 C 0.11696 0.31797 0.18614 0.0
C267 C 0.12085 0.32697 0.20029 0.0
C268 C 0.12739 0.31744 0.17647 0.0
C269 C 0.14193 0.32614 0.18058 0.0
C270 C 0.13537 0.33553 0.20447 0.0
C271 C 0.14579 0.33509 0.19474 0.0
C272 C 0.15319 0.32555 0.17081 0.0
C273 C 0.13311 0.34177 0.13519 0.0
C274 C 0.12633 0.33247 0.12158 0.0
C275 C 0.14187 0.33952 0.14569 0.0
C276 C 0.14396 0.32786 0.14282 0.0
C277 C 0.1285 0.32085 0.11871 0.0
C278 C 0.13731 0.31864 0.12917 0.0
C279 C 0.15379 0.32578 0.15329 0.0
H280 H 0.22316 0.34485 0.14224 0.0
H281 H 0.2035 0.34263 0.15913 0.0
H282 H 0.19295 0.31097 0.10952 0.0
H283 H 0.17325 0.30869 0.1266 0.0
H284 H 0.20131 0.30366 0.18585 0.0
H285 H 0.18332 0.30457 0.16882 0.0
H286 H 0.20611 0.33967 0.2153 0.0
H287 H 0.18834 0.34069 0.19812 0.0
H288 H 0.10583 0.31107 0.18279 0.0
H289 H 0.12406 0.31006 0.16595 0.0
H290 H 0.1387 0.34264 0.21524 0.0
H291 H 0.1569 0.34183 0.19824 0.0
H292 H 0.1316 0.35078 0.13776 0.0
H293 H 0.14718 0.34699 0.15591 0.0
H294 H 0.12359 0.31362 0.10819 0.0
H295 H 0.13895 0.30971 0.12659 0.0
N296 N 0.16455 0.32507 0.14561 0.0
N297 N 0.16346 0.3247 0.17922 0.0
C298 C 0.66571 0.87289 0.13293 0.0
C299 C 0.67521 0.88052 0.11998 0.0
C300 C 0.6684 0.86442 0.14347 0.0
C301 C 0.68066 0.86345 0.14128 0.0
C302 C 0.68736 0.87934 0.11765 0.0
C303 C 0.68999 0.87077 0.12813 0.0
C304 C 0.68351 0.85444 0.15237 0.0
C305 C 0.6897 0.8922 0.18357 0.0
C306 C 0.68007 0.88839 0.1969 0.0
C307 C 0.69071 0.88159 0.17457 0.0
C308 C 0.68205 0.86697 0.17867 0.0
C309 C 0.67139 0.87374 0.20091 0.0
C310 C 0.67244 0.86315 0.19195 0.0
C311 C 0.68344 0.85564 0.16983 0.0
C312 C 0.69906 0.81187 0.1914 0.0
C313 C 0.68963 0.80603 0.20489 0.0
C314 C 0.69837 0.82169 0.18092 0.0
C315 C 0.68798 0.82555 0.18349 0.0
C316 C 0.67964 0.81034 0.2078 0.0
C317 C 0.67884 0.82 0.19723 0.0
C318 C 0.68657 0.83543 0.17217 0.0
C319 C 0.67741 0.79665 0.14133 0.0
C320 C 0.68719 0.79962 0.12835 0.0
C321 C 0.67723 0.80788 0.14992 0.0
C322 C 0.68697 0.82231 0.14588 0.0
C323 C 0.69681 0.81407 0.12418 0.0
C324 C 0.69665 0.82531 0.13283 0.0
C325 C 0.68664 0.83424 0.15468 0.0
H326 H 0.65631 0.87365 0.13509 0.0
H327 H 0.66087 0.8586 0.15331 0.0
H328 H 0.69478 0.88496 0.10765 0.0
H329 H 0.69941 0.87001 0.12611 0.0
H330 H 0.69651 0.9034 0.18016 0.0
H331 H 0.69846 0.88484 0.16462 0.0
H332 H 0.66405 0.87048 0.21129 0.0
H333 H 0.66575 0.85196 0.19543 0.0
H334 H 0.70701 0.80891 0.18902 0.0
H335 H 0.70591 0.82621 0.17078 0.0
H336 H 0.67216 0.80594 0.21803 0.0
H337 H 0.67082 0.82289 0.19958 0.0
H338 H 0.66965 0.78563 0.14458 0.0
H339 H 0.66935 0.80528 0.15959 0.0
H340 H 0.7045 0.8167 0.11428 0.0
H341 H 0.70416 0.83637 0.12942 0.0
N342 N 0.68521 0.84386 0.14546 0.0
N343 N 0.6849 0.84605 0.17903 0.0
C344 C 0.11882 0.79959 0.14049 0.0
C345 C 0.11204 0.80222 0.12743 0.0
C346 C 0.12949 0.81101 0.14975 0.0
C347 C 0.13345 0.82532 0.14641 0.0
C348 C 0.11614 0.81658 0.12396 0.0
C349 C 0.12681 0.82802 0.13332 0.0
C350 C 0.14505 0.83746 0.15593 0.0
C351 C 0.10948 0.81242 0.1924 0.0
C352 C 0.11301 0.80568 0.2047 0.0
C353 C 0.12009 0.82283 0.18218 0.0
C354 C 0.1344 0.82664 0.18402 0.0
C355 C 0.12739 0.80965 0.20655 0.0
C356 C 0.13796 0.82009 0.19642 0.0
C357 C 0.14583 0.83764 0.17343 0.0
C358 C 0.19914 0.89492 0.18886 0.0
C359 C 0.20436 0.89037 0.20183 0.0
C360 C 0.18763 0.88481 0.17921 0.0
C361 C 0.18134 0.86996 0.18215 0.0
C362 C 0.19798 0.87554 0.20481 0.0
C363 C 0.18659 0.86545 0.19509 0.0
C364 C 0.16886 0.85899 0.17249 0.0
C365 C 0.20484 0.88067 0.13607 0.0
C366 C 0.20288 0.88923 0.12472 0.0
C367 C 0.1935 0.8708 0.1459 0.0
C368 C 0.18 0.86933 0.14457 0.0
C369 C 0.1893 0.88761 0.12326 0.0
C370 C 0.17792 0.87763 0.133 0.0
C371 C 0.16801 0.85896 0.15502 0.0
H372 H 0.11586 0.78868 0.14359 0.0
H373 H 0.13477 0.80863 0.15942 0.0
H374 H 0.11131 0.819 0.11382 0.0
H375 H 0.12986 0.83899 0.13034 0.0
H376 H 0.09856 0.80979 0.19081 0.0
H377 H 0.11713 0.82799 0.17294 0.0
H378 H 0.13049 0.80453 0.21567 0.0
H379 H 0.14893 0.82287 0.19807 0.0
H380 H 0.20371 0.90631 0.18647 0.0
H381 H 0.18349 0.88862 0.16968 0.0
H382 H 0.20185 0.87172 0.21464 0.0
H383 H 0.18188 0.85407 0.19767 0.0
H384 H 0.2152 0.88174 0.13751 0.0
H385 H 0.19527 0.86431 0.15456 0.0
H386 H 0.18746 0.89395 0.11447 0.0
H387 H 0.16754 0.87653 0.13169 0.0
N388 N 0.15612 0.84822 0.1474 0.0
N389 N 0.15774 0.84832 0.18098 0.0
C390 C 0.33106 0.12473 0.83018 0.0
C391 C 0.32062 0.11619 0.8183 0.0
C392 C 0.32955 0.13459 0.84013 0.0
C393 C 0.31749 0.13594 0.83854 0.0
C394 C 0.30855 0.11756 0.81679 0.0
C395 C 0.30705 0.1274 0.82674 0.0
C396 C 0.31611 0.14688 0.84827 0.0
C397 C 0.31466 0.11498 0.88449 0.0
C398 C 0.32556 0.12102 0.89649 0.0
C399 C 0.312 0.12382 0.87455 0.0
C400 C 0.32035 0.13892 0.87618 0.0
C401 C 0.33365 0.13613 0.89837 0.0
C402 C 0.33104 0.14497 0.88836 0.0
C403 C 0.31784 0.14854 0.86568 0.0
C404 C 0.30298 0.19454 0.87993 0.0
C405 C 0.31352 0.20284 0.8918 0.0
C406 C 0.3032 0.18331 0.87137 0.0
C407 C 0.31412 0.18036 0.87427 0.0
C408 C 0.32413 0.19953 0.8951 0.0
C409 C 0.3244 0.18837 0.88645 0.0
C410 C 0.31492 0.16896 0.86477 0.0
C411 C 0.32251 0.20297 0.82815 0.0
C412 C 0.31194 0.19845 0.81587 0.0
C413 C 0.32298 0.19293 0.8384 0.0
C414 C 0.31278 0.17816 0.83675 0.0
C415 C 0.30184 0.18362 0.8141 0.0
C416 C 0.30232 0.17357 0.82439 0.0
C417 C 0.31348 0.16746 0.84734 0.0
H418 H 0.34059 0.12411 0.83145 0.0
H419 H 0.33796 0.14137 0.84881 0.0
H420 H 0.30024 0.11102 0.80789 0.0
H421 H 0.29771 0.12835 0.82524 0.0
H422 H 0.30826 0.1034 0.88263 0.0
H423 H 0.30339 0.11884 0.86561 0.0
H424 H 0.34191 0.14116 0.90771 0.0
H425 H 0.33749 0.15657 0.89003 0.0
H426 H 0.29453 0.19669 0.87736 0.0
H427 H 0.29486 0.17697 0.86242 0.0
H428 H 0.33245 0.2058 0.9041 0.0
H429 H 0.33286 0.18623 0.88899 0.0
H430 H 0.33067 0.21425 0.82959 0.0
H431 H 0.33146 0.1967 0.84747 0.0
H432 H 0.29352 0.17979 0.80482 0.0
H433 H 0.29444 0.16221 0.82278 0.0
N434 N 0.31396 0.15638 0.8398 0.0
N435 N 0.3172 0.15954 0.87322 0.0
C436 C 0.89484 0.19512 0.88 0.0
C437 C 0.89131 0.20276 0.89146 0.0
C438 C 0.88415 0.18339 0.87106 0.0
C439 C 0.86974 0.17917 0.8733 0.0
C440 C 0.87685 0.19826 0.89397 0.0
C441 C 0.86618 0.18653 0.88503 0.0
C442 C 0.85829 0.16701 0.86363 0.0
C443 C 0.88374 0.20179 0.82659 0.0
C444 C 0.89065 0.19805 0.81444 0.0
C445 C 0.87358 0.19134 0.8371 0.0
C446 C 0.87021 0.17694 0.8358 0.0
C447 C 0.88726 0.18361 0.81319 0.0
C448 C 0.87706 0.17315 0.8237 0.0
C449 C 0.85886 0.16567 0.84623 0.0
C450 C 0.79929 0.11928 0.82888 0.0
C451 C 0.80205 0.11183 0.81635 0.0
C452 C 0.81033 0.12952 0.83893 0.0
C453 C 0.82433 0.13236 0.83682 0.0
C454 C 0.8161 0.11475 0.81423 0.0
C455 C 0.82713 0.12496 0.82432 0.0
C456 C 0.83627 0.14375 0.84674 0.0
C457 C 0.80722 0.10943 0.88218 0.0
C458 C 0.80055 0.11401 0.89367 0.0
C459 C 0.81875 0.11948 0.87268 0.0
C460 C 0.82376 0.13429 0.87441 0.0
C461 C 0.80582 0.12888 0.89565 0.0
C462 C 0.81736 0.13892 0.88618 0.0
C463 C 0.83572 0.14506 0.86416 0.0
H464 H 0.90588 0.19834 0.87776 0.0
H465 H 0.88715 0.17765 0.86237 0.0
H466 H 0.87377 0.20374 0.90293 0.0
H467 H 0.85512 0.18336 0.8871 0.0
H468 H 0.88583 0.21272 0.82765 0.0
H469 H 0.86812 0.19445 0.84599 0.0
H470 H 0.89246 0.18038 0.80407 0.0
H471 H 0.87452 0.16207 0.82239 0.0
H472 H 0.78859 0.11725 0.8309 0.0
H473 H 0.80796 0.1354 0.84814 0.0
H474 H 0.81865 0.10941 0.80449 0.0
H475 H 0.83788 0.12714 0.82229 0.0
H476 H 0.80339 0.09806 0.88033 0.0
H477 H 0.82373 0.11567 0.86395 0.0
H478 H 0.80107 0.13277 0.90461 0.0
H479 H 0.82116 0.1503 0.88786 0.0
N480 N 0.8467 0.15669 0.87192 0.0
N481 N 0.84787 0.15405 0.83848 0.0
C482 C 0.80001 0.68617 0.88365 0.0
C483 C 0.79182 0.67381 0.89328 0.0
C484 C 0.8117 0.68783 0.87454 0.0
C485 C 0.81536 0.67712 0.87483 0.0
C486 C 0.79566 0.66324 0.89374 0.0
C487 C 0.80737 0.66493 0.88469 0.0
C488 C 0.82765 0.67861 0.86525 0.0
C489 C 0.79503 0.67326 0.82781 0.0
C490 C 0.79955 0.68506 0.81722 0.0
C491 C 0.80479 0.67229 0.83796 0.0
C492 C 0.81926 0.68321 0.83794 0.0
C493 C 0.81409 0.69591 0.8171 0.0
C494 C 0.82385 0.69495 0.82731 0.0
C495 C 0.82976 0.68199 0.84823 0.0
C496 C 0.8757 0.66957 0.82951 0.0
C497 C 0.88367 0.6808 0.81833 0.0
C498 C 0.8652 0.66965 0.83947 0.0
C499 C 0.86262 0.6811 0.83869 0.0
C500 C 0.88096 0.69218 0.81747 0.0
C501 C 0.8705 0.69229 0.8275 0.0
C502 C 0.85111 0.68101 0.84865 0.0
C503 C 0.88323 0.68352 0.88509 0.0
C504 C 0.87791 0.67185 0.89604 0.0
C505 C 0.87394 0.68555 0.87527 0.0
C506 C 0.85914 0.67581 0.87597 0.0
C507 C 0.86306 0.66231 0.89697 0.0
C508 C 0.85379 0.66431 0.88709 0.0
C509 C 0.84908 0.6778 0.86574 0.0
H510 H 0.79728 0.69448 0.88303 0.0
H511 H 0.81791 0.69749 0.8673 0.0
H512 H 0.78971 0.65372 0.90127 0.0
H513 H 0.8101 0.65661 0.88523 0.0
H514 H 0.78399 0.66453 0.82792 0.0
H515 H 0.80104 0.66286 0.84561 0.0
H516 H 0.81792 0.70517 0.80914 0.0
H517 H 0.835 0.70342 0.82695 0.0
H518 H 0.87756 0.66068 0.83057 0.0
H519 H 0.85898 0.66065 0.84762 0.0
H520 H 0.88668 0.70086 0.80878 0.0
H521 H 0.86854 0.70111 0.82649 0.0
H522 H 0.89461 0.69104 0.88398 0.0
H523 H 0.87834 0.69478 0.86717 0.0
H524 H 0.85856 0.65339 0.9055 0.0
H525 H 0.8424 0.65677 0.88804 0.0
N526 N 0.83736 0.67662 0.87331 0.0
N527 N 0.84144 0.68311 0.84061 0.0
C528 C 0.78378 0.65106 0.46548 0.0
C529 C 0.78901 0.66268 0.45449 0.0
C530 C 0.79318 0.64909 0.47517 0.0
C531 C 0.80797 0.65886 0.47427 0.0
C532 C 0.80383 0.67226 0.45337 0.0
C533 C 0.8132 0.67033 0.46312 0.0
C534 C 0.81814 0.65699 0.4844 0.0
C535 C 0.79179 0.66564 0.52049 0.0
C536 C 0.78389 0.65455 0.53186 0.0
C537 C 0.80229 0.66549 0.5106 0.0
C538 C 0.80493 0.65409 0.51162 0.0
C539 C 0.78671 0.64325 0.533 0.0
C540 C 0.79716 0.64307 0.52303 0.0
C541 C 0.81635 0.65406 0.50157 0.0
C542 C 0.87293 0.66264 0.52154 0.0
C543 C 0.86871 0.65101 0.53231 0.0
C544 C 0.86292 0.66332 0.51155 0.0
C545 C 0.84849 0.6523 0.51195 0.0
C546 C 0.85422 0.64005 0.53282 0.0
C547 C 0.8442 0.64074 0.52278 0.0
C548 C 0.83777 0.6532 0.50177 0.0
C549 C 0.86718 0.64861 0.46616 0.0
C550 C 0.8752 0.66082 0.45627 0.0
C551 C 0.85555 0.64702 0.47538 0.0
C552 C 0.8518 0.65765 0.47492 0.0
C553 C 0.87125 0.67131 0.45562 0.0
C554 C 0.85961 0.66968 0.46478 0.0
C555 C 0.83961 0.65626 0.48465 0.0
H556 H 0.77243 0.64335 0.46638 0.0
H557 H 0.78888 0.63987 0.48327 0.0
H558 H 0.80818 0.68137 0.44511 0.0
H559 H 0.82457 0.67794 0.46211 0.0
H560 H 0.78986 0.67446 0.5192 0.0
H561 H 0.80844 0.67438 0.50229 0.0
H562 H 0.78104 0.63469 0.54185 0.0
H563 H 0.79918 0.63429 0.52423 0.0
H564 H 0.88393 0.67144 0.52113 0.0
H565 H 0.86643 0.67262 0.50373 0.0
H566 H 0.85062 0.63093 0.54093 0.0
H567 H 0.8331 0.63219 0.52341 0.0
H568 H 0.86999 0.64037 0.46694 0.0
H569 H 0.84949 0.63748 0.48284 0.0
H570 H 0.87708 0.68071 0.4479 0.0
H571 H 0.8568 0.67794 0.4641 0.0
N572 N 0.82976 0.65808 0.47667 0.0
N573 N 0.82617 0.65214 0.50954 0.0
C574 C 0.33253 0.20659 0.46616 0.0
C575 C 0.34271 0.21566 0.45441 0.0
C576 C 0.33511 0.19773 0.47613 0.0
C577 C 0.34785 0.19761 0.47446 0.0
C578 C 0.35539 0.21531 0.45265 0.0
C579 C 0.35785 0.20624 0.46246 0.0
C580 C 0.35066 0.18842 0.48524 0.0
C581 C 0.35745 0.22615 0.51692 0.0
C582 C 0.34784 0.22239 0.53026 0.0
C583 C 0.35823 0.21548 0.50775 0.0
C584 C 0.34935 0.20085 0.51168 0.0
C585 C 0.33891 0.20773 0.53408 0.0
C586 C 0.33973 0.19708 0.52494 0.0
C587 C 0.35059 0.18948 0.5027 0.0
C588 C 0.36601 0.14543 0.52352 0.0
C589 C 0.35675 0.13968 0.53716 0.0
C590 C 0.36524 0.15524 0.5131 0.0
C591 C 0.35491 0.15914 0.51587 0.0
C592 C 0.34679 0.144 0.54025 0.0
C593 C 0.34589 0.15362 0.52972 0.0
C594 C 0.3535 0.16912 0.50471 0.0
C595 C 0.34437 0.13045 0.47397 0.0
C596 C 0.35456 0.13341 0.46148 0.0
C597 C 0.34393 0.14168 0.48221 0.0
C598 C 0.35379 0.15611 0.47829 0.0
C599 C 0.3642 0.14786 0.4573 0.0
C600 C 0.36376 0.15911 0.46559 0.0
C601 C 0.35352 0.16805 0.48719 0.0
H602 H 0.32249 0.20624 0.46763 0.0
H603 H 0.32713 0.19091 0.48512 0.0
H604 H 0.36358 0.22225 0.44394 0.0
H605 H 0.36773 0.20626 0.46099 0.0
H606 H 0.36444 0.23735 0.51366 0.0
H607 H 0.366 0.21871 0.49784 0.0
H608 H 0.33156 0.20449 0.54445 0.0
H609 H 0.33288 0.18587 0.52829 0.0
H610 H 0.37393 0.14245 0.52101 0.0
H611 H 0.37271 0.15974 0.50289 0.0
H612 H 0.33946 0.13967 0.55062 0.0
H613 H 0.33793 0.15655 0.53223 0.0
H614 H 0.33658 0.11944 0.47721 0.0
H615 H 0.33586 0.1391 0.49163 0.0
H616 H 0.3722 0.1505 0.44778 0.0
H617 H 0.37138 0.17017 0.46229 0.0
N618 N 0.3522 0.17781 0.47812 0.0
N619 N 0.35195 0.17975 0.51175 0.0
C620 C 0.78502 0.13104 0.46878 0.0
C621 C 0.77757 0.13328 0.45618 0.0
C622 C 0.79621 0.14274 0.47718 0.0
C623 C 0.80002 0.15693 0.47341 0.0
C624 C 0.78168 0.14753 0.45211 0.0
C625 C 0.79285 0.15924 0.4606 0.0
C626 C 0.81166 0.16935 0.48256 0.0
C627 C 0.77623 0.14387 0.51889 0.0
C628 C 0.78024 0.13867 0.53239 0.0
C629 C 0.78663 0.15427 0.50847 0.0
C630 C 0.80118 0.15932 0.51109 0.0
C631 C 0.79481 0.14407 0.53528 0.0
C632 C 0.80516 0.15428 0.52475 0.0
C633 C 0.81246 0.17011 0.50008 0.0
C634 C 0.86477 0.2285 0.51356 0.0
C635 C 0.87137 0.22465 0.52566 0.0
C636 C 0.85299 0.21785 0.50472 0.0
C637 C 0.84765 0.20317 0.50777 0.0
C638 C 0.86586 0.20995 0.52881 0.0
C639 C 0.85407 0.19933 0.52002 0.0
C640 C 0.83526 0.1917 0.4985 0.0
C641 C 0.87155 0.2142 0.46322 0.0
C642 C 0.86925 0.22184 0.45089 0.0
C643 C 0.8602 0.20397 0.47274 0.0
C644 C 0.84633 0.20134 0.47036 0.0
C645 C 0.85525 0.21881 0.44815 0.0
C646 C 0.84389 0.2086 0.45776 0.0
C647 C 0.83442 0.19104 0.48102 0.0
H648 H 0.7821 0.12024 0.47233 0.0
H649 H 0.80184 0.14068 0.48672 0.0
H650 H 0.77636 0.14965 0.44225 0.0
H651 H 0.79578 0.17011 0.4573 0.0
H652 H 0.76508 0.14003 0.51654 0.0
H653 H 0.78327 0.15835 0.49839 0.0
H654 H 0.7982 0.14017 0.54551 0.0
H655 H 0.8163 0.15808 0.52714 0.0
H656 H 0.86878 0.23973 0.51085 0.0
H657 H 0.84802 0.22108 0.49554 0.0
H658 H 0.87053 0.20664 0.53827 0.0
H659 H 0.85004 0.18807 0.52268 0.0
H660 H 0.88218 0.2163 0.46577 0.0
H661 H 0.86231 0.19823 0.4821 0.0
H662 H 0.85306 0.2243 0.43854 0.0
H663 H 0.83323 0.20658 0.45556 0.0
N664 N 0.82261 0.17994 0.47369 0.0
N665 N 0.82429 0.1812 0.50732 0.0
C666 C 0.98384 0.53182 0.15647 0.0
C667 C 0.99425 0.5397 0.14436 0.0
C668 C 0.98515 0.52222 0.16667 0.0
C669 C 0.99691 0.52033 0.16501 0.0
C670 C 0.00588 0.53756 0.14257 0.0
C671 C 0.00711 0.52788 0.1527 0.0
C672 C 0.99856 0.51042 0.17596 0.0
C673 C 0.00541 0.54798 0.2076 0.0
C674 C 0.99531 0.54436 0.22035 0.0
C675 C 0.00629 0.53721 0.19881 0.0
C676 C 0.99694 0.52259 0.20244 0.0
C677 C 0.98606 0.52972 0.22408 0.0
C678 C 0.98692 0.51895 0.21524 0.0
C679 C 0.99796 0.51111 0.19344 0.0
C680 C 0.01612 0.4698 0.21468 0.0
C681 C 0.00618 0.46237 0.22734 0.0
C682 C 0.01442 0.47904 0.20428 0.0
C683 C 0.00272 0.48098 0.20631 0.0
C684 C 0.99461 0.46453 0.22952 0.0
C685 C 0.99296 0.47384 0.21918 0.0
C686 C 0.00079 0.49071 0.19534 0.0
C687 C 0.99303 0.45287 0.16348 0.0
C688 C 0.00295 0.45632 0.15055 0.0
C689 C 0.99257 0.46378 0.17249 0.0
C690 C 0.0021 0.47836 0.16885 0.0
C691 C 0.01248 0.47093 0.14692 0.0
C692 C 0.01198 0.48183 0.15592 0.0
C693 C 0.00131 0.48997 0.17786 0.0
H694 H 0.9746 0.53295 0.15799 0.0
H695 H 0.97696 0.51624 0.17584 0.0
H696 H 0.0142 0.54356 0.13356 0.0
H697 H 0.01624 0.52653 0.15118 0.0
H698 H 0.01289 0.55916 0.20467 0.0
H699 H 0.01443 0.54033 0.18935 0.0
H700 H 0.9781 0.52658 0.23376 0.0
H701 H 0.97968 0.50774 0.21833 0.0
H702 H 0.02512 0.46833 0.21265 0.0
H703 H 0.02228 0.4847 0.19467 0.0
H704 H 0.98689 0.45911 0.23932 0.0
H705 H 0.98395 0.47531 0.22109 0.0
H706 H 0.98559 0.44173 0.16661 0.0
H707 H 0.98461 0.46081 0.18214 0.0
H708 H 0.02009 0.47392 0.13686 0.0
H709 H 0.01932 0.493 0.15277 0.0
N710 N 1.00029 0.49992 0.16884 0.0
N711 N 0.99902 0.50118 0.20246 0.0
C712 C 0.47407 0.44272 0.1618 0.0
C713 C 0.4676 0.44668 0.14965 0.0
C714 C 0.48509 0.45324 0.17166 0.0
C715 C 0.48979 0.4679 0.16961 0.0
C716 C 0.47236 0.4614 0.14766 0.0
C717 C 0.48342 0.47189 0.15746 0.0
C718 C 0.50156 0.47922 0.17973 0.0
C719 C 0.46428 0.45456 0.21331 0.0
C720 C 0.46649 0.4469 0.22567 0.0
C721 C 0.47576 0.46507 0.2042 0.0
C722 C 0.48967 0.46799 0.20708 0.0
C723 C 0.48049 0.45012 0.22887 0.0
C724 C 0.49199 0.46062 0.21968 0.0
C725 C 0.50182 0.47896 0.19723 0.0
C726 C 0.54946 0.53883 0.2138 0.0
C727 C 0.55664 0.53629 0.22645 0.0
C728 C 0.53888 0.52739 0.20447 0.0
C729 C 0.53543 0.51316 0.20735 0.0
C730 C 0.55293 0.52198 0.22957 0.0
C731 C 0.54237 0.51052 0.22015 0.0
C732 C 0.52429 0.50104 0.19736 0.0
C733 C 0.5606 0.52837 0.16289 0.0
C734 C 0.55705 0.53543 0.15106 0.0
C735 C 0.54991 0.51715 0.17221 0.0
C736 C 0.5355 0.51282 0.16986 0.0
C737 C 0.54259 0.53083 0.14849 0.0
C738 C 0.53193 0.51957 0.15772 0.0
C739 C 0.52403 0.50123 0.17984 0.0
H740 H 0.47084 0.43151 0.16346 0.0
H741 H 0.49007 0.44994 0.18073 0.0
H742 H 0.4675 0.46482 0.13859 0.0
H743 H 0.48689 0.48316 0.15567 0.0
H744 H 0.45368 0.45258 0.21083 0.0
H745 H 0.47375 0.47097 0.19495 0.0
H746 H 0.48253 0.44438 0.23829 0.0
H747 H 0.50266 0.46283 0.22222 0.0
H748 H 0.5521 0.5497 0.21097 0.0
H749 H 0.53338 0.52968 0.195 0.0
H750 H 0.55808 0.51962 0.23941 0.0
H751 H 0.5397 0.4996 0.22274 0.0
H752 H 0.57165 0.53169 0.16512 0.0
H753 H 0.55289 0.51188 0.18128 0.0
H754 H 0.53952 0.53589 0.13925 0.0
H755 H 0.52088 0.51631 0.15559 0.0
N756 N 0.51263 0.49037 0.17173 0.0
N757 N 0.51322 0.48985 0.2054 0.0
C758 C 0.46049 0.0047 0.2161 0.0
C759 C 0.4524 0.99251 0.226 0.0
C760 C 0.4716 0.00586 0.20622 0.0
C761 C 0.4748 0.99481 0.20598 0.0
C762 C 0.45564 0.98148 0.22576 0.0
C763 C 0.46681 0.98268 0.21593 0.0
C764 C 0.48693 0.99618 0.19613 0.0
C765 C 0.4545 0.99173 0.15892 0.0
C766 C 0.45901 0.00397 0.14908 0.0
C767 C 0.46423 0.99052 0.16887 0.0
C768 C 0.47865 0.00156 0.16926 0.0
C769 C 0.47346 0.01501 0.1495 0.0
C770 C 0.48321 0.01375 0.15939 0.0
C771 C 0.48913 9e-05 0.17926 0.0
C772 C 0.53718 0.99084 0.15991 0.0
C773 C 0.54521 0.00281 0.14966 0.0
C774 C 0.52607 0.98985 0.16965 0.0
C775 C 0.52286 0.00089 0.16952 0.0
C776 C 0.5419 0.01379 0.14947 0.0
C777 C 0.53078 0.01279 0.15924 0.0
C778 C 0.51082 0.99974 0.17939 0.0
C779 C 0.54314 0.00383 0.21663 0.0
C780 C 0.53846 0.99156 0.22646 0.0
C781 C 0.5335 0.00521 0.20669 0.0
C782 C 0.51902 0.99432 0.20632 0.0
C783 C 0.52395 0.9807 0.22612 0.0
C784 C 0.5143 0.98213 0.21624 0.0
C785 C 0.50863 0.99588 0.19629 0.0
H786 H 0.4582 0.01334 0.21597 0.0
H787 H 0.47784 0.01549 0.19896 0.0
H788 H 0.44974 0.97205 0.23343 0.0
H789 H 0.4692 0.97411 0.21609 0.0
H790 H 0.44343 0.98308 0.15892 0.0
H791 H 0.4605 0.98085 0.17608 0.0
H792 H 0.47729 0.02448 0.14189 0.0
H793 H 0.49432 0.02232 0.15936 0.0
H794 H 0.53926 0.98206 0.16009 0.0
H795 H 0.51982 0.98032 0.17707 0.0
H796 H 0.54795 0.02321 0.14184 0.0
H797 H 0.52843 0.02138 0.15884 0.0
H798 H 0.55427 0.01235 0.21657 0.0
H799 H 0.53735 0.01488 0.19944 0.0
H800 H 0.51999 0.97121 0.23373 0.0
H801 H 0.50314 0.97367 0.21629 0.0
N802 N 0.49673 0.99416 0.20396 0.0
N803 N 0.50103 0.00179 0.17157 0.0
C804 C 0.55256 0.01815 0.80731 0.0
C805 C 0.5499 0.00888 0.79362 0.0
C806 C 0.54128 0.01683 0.817 0.0
C807 C 0.52714 0.00618 0.81321 0.0
C808 C 0.53572 0.99827 0.78982 0.0
C809 C 0.52444 0.99702 0.79945 0.0
C810 C 0.51509 0.00506 0.82298 0.0
C811 C 0.53829 0.99124 0.85654 0.0
C812 C 0.54498 0.00068 0.87006 0.0
C813 C 0.52839 0.99243 0.84687 0.0
C814 C 0.52502 0.00311 0.85054 0.0
C815 C 0.54142 0.0112 0.87385 0.0
C816 C 0.53145 0.01233 0.86425 0.0
C817 C 0.5145 0.00442 0.84047 0.0
C818 C 0.4556 0.99239 0.85617 0.0
C819 C 0.45845 0.00196 0.86963 0.0
C820 C 0.46675 0.9934 0.84645 0.0
C821 C 0.48096 0.00402 0.84996 0.0
C822 C 0.47273 0.0126 0.87305 0.0
C823 C 0.48386 0.01352 0.8634 0.0
C824 C 0.49288 0.00487 0.84015 0.0
C825 C 0.46938 0.01818 0.80614 0.0
C826 C 0.46371 0.00945 0.79185 0.0
C827 C 0.47897 0.01687 0.81625 0.0
C828 C 0.4829 0.00663 0.81242 0.0
C829 C 0.4678 0.99934 0.78794 0.0
C830 C 0.47734 0.99799 0.79809 0.0
C831 C 0.49343 0.00542 0.82264 0.0
H832 H 0.56338 0.02638 0.81057 0.0
H833 H 0.54361 0.02425 0.82733 0.0
H834 H 0.53333 0.9911 0.77922 0.0
H835 H 0.51359 0.98885 0.79619 0.0
H836 H 0.54085 0.98304 0.8533 0.0
H837 H 0.52332 0.98496 0.83658 0.0
H838 H 0.54623 0.01849 0.88435 0.0
H839 H 0.52888 0.02052 0.86742 0.0
H840 H 0.44479 0.98388 0.85336 0.0
H841 H 0.46428 0.98572 0.83637 0.0
H842 H 0.47533 0.02028 0.88315 0.0
H843 H 0.49476 0.02176 0.86635 0.0
H844 H 0.46664 0.02624 0.80931 0.0
H845 H 0.4835 0.02404 0.82688 0.0
H846 H 0.46353 0.99237 0.77711 0.0
H847 H 0.48031 0.99012 0.7948 0.0
N848 N 0.50448 0.00543 0.81475 0.0
N849 N 0.50347 0.00446 0.84839 0.0
C850 C 0.98581 0.53455 0.80207 0.0
C851 C 0.99459 0.54075 0.78812 0.0
C852 C 0.98771 0.52536 0.8123 0.0
C853 C 0.99859 0.52235 0.80895 0.0
C854 C 0.0052 0.53738 0.78453 0.0
C855 C 0.00713 0.52823 0.79481 0.0
C856 C 0.00082 0.51275 0.81982 0.0
C857 C 0.01152 0.55184 0.85121 0.0
C858 C 0.00266 0.54904 0.86514 0.0
C859 C 0.01098 0.54049 0.84201 0.0
C860 C 0.00146 0.5261 0.84645 0.0
C861 C 0.99315 0.53462 0.86954 0.0
C862 C 0.99262 0.52328 0.86034 0.0
C863 C 0.00128 0.51401 0.83732 0.0
C864 C 0.01655 0.47007 0.85776 0.0
C865 C 0.00671 0.46331 0.87073 0.0
C866 C 0.01559 0.47987 0.84754 0.0
C867 C 0.00469 0.483 0.84999 0.0
C868 C 0.99607 0.46681 0.87343 0.0
C869 C 0.99513 0.4766 0.86321 0.0
C870 C 0.00326 0.49307 0.83906 0.0
C871 C 0.99456 0.45464 0.80787 0.0
C872 C 0.0047 0.45791 0.79522 0.0
C873 C 0.99391 0.46567 0.81637 0.0
C874 C 0.0035 0.48018 0.81252 0.0
C875 C 0.0141 0.47245 0.7912 0.0
C876 C 0.01344 0.48347 0.79972 0.0
C877 C 0.00306 0.49197 0.82157 0.0
H878 H 0.97736 0.53669 0.80498 0.0
H879 H 0.98063 0.52055 0.82279 0.0
H880 H 0.0122 0.54205 0.77394 0.0
H881 H 0.01549 0.52594 0.79188 0.0
H882 H 0.01892 0.56282 0.84745 0.0
H883 H 0.01818 0.54299 0.8316 0.0
H884 H 0.98637 0.53209 0.88037 0.0
H885 H 0.98533 0.51227 0.86411 0.0
H886 H 0.02484 0.4676 0.85533 0.0
H887 H 0.02333 0.48497 0.83768 0.0
H888 H 0.98851 0.46202 0.88351 0.0
H889 H 0.98676 0.479 0.86548 0.0
H890 H 0.98696 0.44355 0.81102 0.0
H891 H 0.98587 0.46285 0.82589 0.0
H892 H 0.0221 0.47534 0.78161 0.0
H893 H 0.02087 0.4946 0.79649 0.0
N894 N 0.00189 0.50187 0.81262 0.0
N895 N 0.00232 0.50402 0.84625 0.0
C896 C 0.52796 0.56273 0.8003 0.0
C897 C 0.53465 0.55838 0.78854 0.0
C898 C 0.51614 0.55246 0.80925 0.0
C899 C 0.51083 0.53766 0.80666 0.0
C900 C 0.52905 0.54354 0.78567 0.0
C901 C 0.5172 0.53329 0.79457 0.0
C902 C 0.49873 0.52668 0.81656 0.0
C903 C 0.53555 0.55046 0.85208 0.0
C904 C 0.53302 0.55779 0.86499 0.0
C905 C 0.52438 0.54063 0.84186 0.0
C906 C 0.5105 0.53808 0.84422 0.0
C907 C 0.5191 0.55519 0.8673 0.0
C908 C 0.50795 0.54537 0.85707 0.0
C909 C 0.49843 0.52717 0.83406 0.0
C910 C 0.44911 0.46853 0.85099 0.0
C911 C 0.44396 0.47219 0.86511 0.0
C912 C 0.45934 0.4793 0.84083 0.0
C913 C 0.46425 0.49393 0.84427 0.0
C914 C 0.44903 0.48681 0.86874 0.0
C915 C 0.45907 0.49757 0.85839 0.0
C916 C 0.47558 0.50553 0.83405 0.0
C917 C 0.43847 0.47835 0.80094 0.0
C918 C 0.44136 0.47097 0.78845 0.0
C919 C 0.44963 0.48978 0.80973 0.0
C920 C 0.46387 0.49384 0.80644 0.0
C921 C 0.45565 0.47551 0.78464 0.0
C922 C 0.46679 0.48686 0.79353 0.0
C923 C 0.47577 0.50515 0.81649 0.0
H924 H 0.53204 0.57407 0.80282 0.0
H925 H 0.51121 0.55609 0.81828 0.0
H926 H 0.53382 0.53986 0.77649 0.0
H927 H 0.51318 0.52193 0.79227 0.0
H928 H 0.54608 0.55202 0.85017 0.0
H929 H 0.52653 0.5348 0.83235 0.0
H930 H 0.51682 0.56077 0.87701 0.0
H931 H 0.4973 0.54347 0.85918 0.0
H932 H 0.4456 0.45735 0.84814 0.0
H933 H 0.4636 0.47617 0.83048 0.0
H934 H 0.44524 0.48989 0.87959 0.0
H935 H 0.46284 0.50877 0.86146 0.0
H936 H 0.42757 0.47526 0.80392 0.0
H937 H 0.44712 0.49531 0.81928 0.0
H938 H 0.45821 0.46998 0.77515 0.0
H939 H 0.47769 0.48988 0.79067 0.0
N940 N 0.48742 0.51566 0.80845 0.0
N941 N 0.48686 0.51662 0.8421 0.0
C942 C 0.66391 0.79115 0.49834 0.0
C943 C 0.65348 0.78303 0.48628 0.0
C944 C 0.66274 0.80115 0.50843 0.0
C945 C 0.65101 0.80306 0.5068 0.0
C946 C 0.64176 0.78498 0.48471 0.0
C947 C 0.64059 0.79496 0.49481 0.0
C948 C 0.64996 0.81412 0.51672 0.0
C949 C 0.64729 0.78126 0.55241 0.0
C950 C 0.65862 0.78698 0.56385 0.0
C951 C 0.64479 0.79042 0.54283 0.0
C952 C 0.65366 0.80547 0.54441 0.0
C953 C 0.66725 0.80205 0.56566 0.0
C954 C 0.66474 0.81119 0.5561 0.0
C955 C 0.65141 0.81539 0.53417 0.0
C956 C 0.63619 0.86097 0.54908 0.0
C957 C 0.6467 0.86944 0.5609 0.0
C958 C 0.63665 0.84988 0.54047 0.0
C959 C 0.6477 0.84714 0.54344 0.0
C960 C 0.65743 0.8663 0.56428 0.0
C961 C 0.65787 0.8552 0.55569 0.0
C962 C 0.64882 0.83603 0.53371 0.0
C963 C 0.65808 0.87146 0.49859 0.0
C964 C 0.64853 0.86751 0.48524 0.0
C965 C 0.65786 0.86095 0.50865 0.0
C966 C 0.64786 0.84626 0.50586 0.0
C967 C 0.63863 0.85277 0.48233 0.0
C968 C 0.63835 0.84225 0.4925 0.0
C969 C 0.6479 0.83506 0.51622 0.0
H970 H 0.67318 0.79008 0.49967 0.0
H971 H 0.67114 0.80759 0.51726 0.0
H972 H 0.63346 0.77879 0.47567 0.0
H973 H 0.63152 0.79634 0.49326 0.0
H974 H 0.64047 0.7697 0.55068 0.0
H975 H 0.63596 0.78574 0.53418 0.0
H976 H 0.6759 0.8068 0.57456 0.0
H977 H 0.67161 0.82277 0.55767 0.0
H978 H 0.6278 0.86313 0.54618 0.0
H979 H 0.62848 0.84357 0.53134 0.0
H980 H 0.66551 0.87244 0.57356 0.0
H981 H 0.66639 0.85316 0.55832 0.0
H982 H 0.66577 0.88269 0.50131 0.0
H983 H 0.66565 0.86435 0.51851 0.0
H984 H 0.63129 0.84932 0.47199 0.0
H985 H 0.63071 0.83097 0.48993 0.0
N986 N 0.64828 0.82401 0.50844 0.0
N987 N 0.65076 0.8263 0.54199 0.0
C988 C 0.13704 0.7772 0.50357 0.0
C989 C 0.13045 0.78117 0.4916 0.0
C990 C 0.14851 0.78773 0.51291 0.0
C991 C 0.1535 0.80244 0.51058 0.0
C992 C 0.13545 0.79591 0.48936 0.0
C993 C 0.14689 0.80642 0.4987 0.0
C994 C 0.16607 0.81379 0.51974 0.0
C995 C 0.13147 0.79089 0.55709 0.0
C996 C 0.13388 0.78205 0.56751 0.0
C997 C 0.1425 0.80125 0.54734 0.0
C998 C 0.15615 0.80299 0.54781 0.0
C999 C 0.14762 0.78396 0.56817 0.0
C1000 C 0.15871 0.79446 0.55851 0.0
C1001 C 0.16767 0.81367 0.53708 0.0
C1002 C 0.21737 0.87328 0.55031 0.0
C1003 C 0.22549 0.87062 0.56154 0.0
C1004 C 0.20581 0.86187 0.54204 0.0
C1005 C 0.2023 0.84757 0.54457 0.0
C1006 C 0.22167 0.85627 0.56449 0.0
C1007 C 0.21014 0.84484 0.55609 0.0
C1008 C 0.19027 0.83551 0.53546 0.0
C1009 C 0.22394 0.86233 0.49788 0.0
C1010 C 0.21957 0.8692 0.48675 0.0
C1011 C 0.21394 0.85129 0.50802 0.0
C1012 C 0.19942 0.84699 0.50724 0.0
C1013 C 0.20498 0.8646 0.48574 0.0
C1014 C 0.19502 0.85356 0.49582 0.0
C1015 C 0.18867 0.83557 0.51809 0.0
H1016 H 0.13341 0.76594 0.50564 0.0
H1017 H 0.15364 0.78438 0.52169 0.0
H1018 H 0.13078 0.79935 0.48005 0.0
H1019 H 0.15065 0.81771 0.49658 0.0
H1020 H 0.12098 0.78961 0.55626 0.0
H1021 H 0.14036 0.80788 0.53934 0.0
H1022 H 0.14979 0.77739 0.57624 0.0
H1023 H 0.1692 0.79572 0.55913 0.0
H1024 H 0.21982 0.88418 0.54809 0.0
H1025 H 0.1996 0.86423 0.53367 0.0
H1026 H 0.22774 0.85391 0.57309 0.0
H1027 H 0.20749 0.83388 0.55838 0.0
H1028 H 0.2351 0.86564 0.49895 0.0
H1029 H 0.21756 0.84615 0.51648 0.0
H1030 H 0.20124 0.86947 0.47705 0.0
H1031 H 0.18386 0.85031 0.49487 0.0
N1032 N 0.1766 0.82477 0.51094 0.0
N1033 N 0.17974 0.82449 0.54431 0.0
C1034 C 0.22104 0.35527 0.49878 0.0
C1035 C 0.21797 0.34587 0.48511 0.0
C1036 C 0.21 0.35485 0.50815 0.0
C1037 C 0.19567 0.34495 0.5041 0.0
C1038 C 0.20362 0.33609 0.481 0.0
C1039 C 0.19259 0.3357 0.49035 0.0
C1040 C 0.18384 0.34446 0.51377 0.0
C1041 C 0.20586 0.32955 0.54769 0.0
C1042 C 0.21193 0.33826 0.56191 0.0
C1043 C 0.1965 0.33133 0.53772 0.0
C1044 C 0.1932 0.34203 0.54159 0.0
C1045 C 0.20838 0.34876 0.56596 0.0
C1046 C 0.19907 0.35058 0.55592 0.0
C1047 C 0.18309 0.34384 0.53127 0.0
C1048 C 0.12393 0.33096 0.54588 0.0
C1049 C 0.12636 0.34043 0.55928 0.0
C1050 C 0.13535 0.33236 0.5364 0.0
C1051 C 0.1494 0.3433 0.54011 0.0
C1052 C 0.14045 0.35135 0.56299 0.0
C1053 C 0.15187 0.35268 0.55358 0.0
C1054 C 0.16157 0.34448 0.53056 0.0
C1055 C 0.13749 0.35666 0.49607 0.0
C1056 C 0.13108 0.3469 0.48272 0.0
C1057 C 0.14765 0.35611 0.50597 0.0
C1058 C 0.15156 0.34577 0.50271 0.0
C1059 C 0.13521 0.33675 0.47934 0.0
C1060 C 0.14542 0.33626 0.48917 0.0
C1061 C 0.16226 0.34499 0.51307 0.0
H1062 H 0.23199 0.36291 0.50228 0.0
H1063 H 0.21265 0.36233 0.51849 0.0
H1064 H 0.2009 0.32889 0.47037 0.0
H1065 H 0.18163 0.32809 0.48689 0.0
H1066 H 0.20814 0.32117 0.54444 0.0
H1067 H 0.1917 0.32422 0.52709 0.0
H1068 H 0.21295 0.35569 0.57677 0.0
H1069 H 0.19655 0.35879 0.55926 0.0
H1070 H 0.1132 0.32248 0.54268 0.0
H1071 H 0.13321 0.32478 0.5263 0.0
H1072 H 0.14265 0.35869 0.57338 0.0
H1073 H 0.16265 0.36107 0.55677 0.0
H1074 H 0.13451 0.36459 0.499 0.0
H1075 H 0.15248 0.36379 0.51613 0.0
H1076 H 0.13063 0.32924 0.46899 0.0
H1077 H 0.14839 0.32831 0.48631 0.0
N1078 N 0.17333 0.34489 0.50535 0.0
N1079 N 0.17204 0.344 0.53899 0.0
H1080 H 0.01833 0.37202 0.0471 0.0
H1081 H 0.02144 0.38852 0.06997 0.0
H1082 H 0.97579 0.36941 0.07335 0.0
H1083 H 0.97251 0.35279 0.05063 0.0
H1084 H 0.01236 0.40842 0.06894 0.0
H1085 H 0.98756 0.37145 0.12189 0.0
H1086 H 0.99302 0.36626 0.1031 0.0
H1087 H 0.97645 0.36606 0.10377 0.0
C1088 C 0.00892 0.37115 0.05285 0.0
C1089 C 0.99516 0.36108 0.04694 0.0
C1090 C 0.01073 0.3806 0.06593 0.0
C1091 C 0.99884 0.38007 0.07346 0.0
C1092 C 0.9851 0.3698 0.06792 0.0
H1093 H 0.97995 0.43159 0.13839 0.0
H1094 H 0.98004 0.41309 0.12059 0.0
C1095 C 0.98326 0.36037 0.05483 0.0
C1096 C 0.0008 0.39106 0.08607 0.0
H1097 H 0.99144 0.39525 0.12535 0.0
C1098 C 0.00797 0.40559 0.08137 0.0
C1099 C 0.99499 0.3873 0.10221 0.0
C1100 C 0.98769 0.37193 0.10813 0.0
C1101 C 0.00901 0.41641 0.09216 0.0
C1102 C 0.00296 0.41261 0.1082 0.0
C1103 C 0.99606 0.39812 0.11304 0.0
C1104 C 0.00306 0.42343 0.11981 0.0
C1105 C 0.01606 0.43171 0.08604 0.0
C1106 C 0.01598 0.43522 0.12553 0.0
C1107 C 0.01596 0.44583 0.13569 0.0
C1108 C 0.00302 0.44474 0.14044 0.0
C1109 C 0.99009 0.43268 0.13508 0.0
C1110 C 0.99013 0.42212 0.12488 0.0
H1111 H 0.01721 0.43222 0.07233 0.0
H1112 H 0.00984 0.43681 0.08985 0.0
H1113 H 0.02688 0.43814 0.09153 0.0
H1114 H 0.02607 0.43627 0.12203 0.0
H1115 H 0.02608 0.45487 0.13985 0.0
H1116 H 0.64568 0.62824 0.04393 0.0
H1117 H 0.63568 0.60933 0.06484 0.0
H1118 H 0.60865 0.62491 0.08285 0.0
H1119 H 0.61867 0.64393 0.06227 0.0
H1120 H 0.62161 0.61817 0.10819 0.0
H1121 H 0.59546 0.57361 0.06142 0.0
H1122 H 0.6144 0.58552 0.05916 0.0
H1123 H 0.6026 0.59227 0.05618 0.0
C1124 C 0.63766 0.6277 0.05239 0.0
C1125 C 0.63289 0.63755 0.05129 0.0
C1126 C 0.63192 0.61684 0.06428 0.0
C1127 C 0.62127 0.61559 0.0752 0.0
C1128 C 0.61683 0.62566 0.07449 0.0
H1129 H 0.55908 0.56112 0.14473 0.0
H1130 H 0.57669 0.58065 0.12743 0.0
C1131 C 0.62256 0.63652 0.06266 0.0
C1132 C 0.61435 0.60361 0.08713 0.0
H1133 H 0.59166 0.56716 0.08948 0.0
C1134 C 0.61517 0.607 0.10412 0.0
C1135 C 0.60602 0.58904 0.08178 0.0
C1136 C 0.60443 0.58482 0.06365 0.0
C1137 C 0.60756 0.59624 0.11587 0.0
C1138 C 0.59876 0.58177 0.11045 0.0
C1139 C 0.59843 0.57829 0.09356 0.0
C1140 C 0.5888 0.57032 0.12183 0.0
C1141 C 0.60882 0.60047 0.13397 0.0
C1142 C 0.58968 0.55796 0.12423 0.0
C1143 C 0.57956 0.54673 0.13407 0.0
C1144 C 0.5683 0.54762 0.14142 0.0
C1145 C 0.56757 0.56009 0.1391 0.0
C1146 C 0.57771 0.57132 0.12938 0.0
H1147 H 0.61893 0.61078 0.13656 0.0
H1148 H 0.59981 0.60198 0.13746 0.0
H1149 H 0.60836 0.59194 0.14193 0.0
H1150 H 0.5981 0.55695 0.11836 0.0
H1151 H 0.58031 0.53719 0.13553 0.0
H1152 H 0.37896 0.01814 0.0403 0.0
H1153 H 0.39794 0.0239 0.06045 0.0
H1154 H 0.37199 0.98212 0.08249 0.0
H1155 H 0.35304 0.97625 0.06253 0.0
H1156 H 0.38739 0.00703 0.10573 0.0
H1157 H 0.42128 0.00255 0.05666 0.0
H1158 H 0.41441 0.01424 0.05289 0.0
H1159 H 0.40235 0.99511 0.05392 0.0
C1160 C 0.37721 0.01026 0.04959 0.0
C1161 C 0.36453 0.99667 0.04969 0.0
C1162 C 0.38808 0.01356 0.06104 0.0
C1163 C 0.38639 0.00336 0.07281 0.0
C1164 C 0.3735 0.99011 0.07346 0.0
H1165 H 0.43893 0.98293 0.12889 0.0
H1166 H 0.42197 0.98449 0.11072 0.0
C1167 C 0.3627 0.98676 0.06199 0.0
C1168 C 0.39827 0.00596 0.08385 0.0
H1169 H 0.4297 0.00626 0.08405 0.0
C1170 C 0.39676 0.00709 0.10102 0.0
C1171 C 0.41036 0.00586 0.0776 0.0
C1172 C 0.41227 0.0043 0.05928 0.0
C1173 C 0.40695 0.00785 0.11216 0.0
C1174 C 0.41889 0.00745 0.10591 0.0
C1175 C 0.42054 0.00663 0.08874 0.0
C1176 C 0.4292 0.00674 0.11705 0.0
C1177 C 0.40464 0.00847 0.13055 0.0
C1178 C 0.43892 0.01879 0.12654 0.0
C1179 C 0.44865 0.01793 0.13695 0.0
C1180 C 0.44874 0.00499 0.13807 0.0
C1181 C 0.43898 0.99298 0.12848 0.0
C1182 C 0.42936 0.99387 0.11802 0.0
H1183 H 0.39402 0.00704 0.13343 0.0
H1184 H 0.4056 -1e-05 0.13696 0.0
H1185 H 0.41301 0.01909 0.13563 0.0
H1186 H 0.43901 0.02884 0.12585 0.0
H1187 H 0.45598 0.02734 0.14425 0.0
H1188 H 0.37442 0.01245 0.97335 0.0
H1189 H 0.39102 0.01445 0.95161 0.0
H1190 H 0.36569 0.96851 0.94249 0.0
H1191 H 0.34927 0.96634 0.9646 0.0
H1192 H 0.3928 0.97677 0.9458 0.0
H1193 H 0.38906 0.01355 0.90199 0.0
H1194 H 0.39338 0.02111 0.92256 0.0
H1195 H 0.37641 0.00496 0.91863 0.0
C1196 C 0.37224 0.00279 0.96656 0.0
C1197 C 0.36053 0.98922 0.97077 0.0
C1198 C 0.38171 0.00397 0.95403 0.0
C1199 C 0.37951 0.99166 0.94523 0.0
C1200 C 0.36759 0.97817 0.94908 0.0
H1201 H 0.43161 0.99538 0.8602 0.0
H1202 H 0.41197 0.99216 0.87807 0.0
C1203 C 0.35821 0.97695 0.96174 0.0
C1204 C 0.39024 0.99266 0.93301 0.0
H1205 H 0.40938 0.01071 0.89879 0.0
C1206 C 0.39631 0.98409 0.93542 0.0
C1207 C 0.3947 0.00206 0.91933 0.0
C1208 C 0.38793 0.01082 0.91536 0.0
C1209 C 0.40697 0.98494 0.92483 0.0
C1210 C 0.41202 0.99495 0.91173 0.0
C1211 C 0.40566 0.00321 0.90899 0.0
C1212 C 0.42398 0.99708 0.90087 0.0
C1213 C 0.4126 0.97498 0.92771 0.0
C1214 C 0.43732 0.00114 0.90772 0.0
C1215 C 0.44849 0.00277 0.8976 0.0
C1216 C 0.44663 0.00059 0.88033 0.0
C1217 C 0.43335 0.99688 0.87346 0.0
C1218 C 0.42214 0.99516 0.88363 0.0
H1219 H 0.40476 0.96521 0.93457 0.0
H1220 H 0.4152 0.97152 0.91582 0.0
H1221 H 0.42246 0.98072 0.93529 0.0
H1222 H 0.43909 0.00301 0.92095 0.0
H1223 H 0.4585 0.00549 0.90337 0.0
H1224 H 0.02153 0.37913 0.97327 0.0
H1225 H 0.02619 0.39855 0.95413 0.0
H1226 H 0.98162 0.3762 0.94097 0.0
H1227 H 0.97681 0.35686 0.95987 0.0
H1228 H 0.0188 0.3971 0.91782 0.0
H1229 H 0.99179 0.41708 0.95964 0.0
H1230 H 0.99826 0.40568 0.9667 0.0
H1231 H 0.98177 0.39799 0.95541 0.0
C1232 C 0.01274 0.37827 0.96617 0.0
C1233 C 0.99875 0.36649 0.96829 0.0
C1234 C 0.01544 0.38937 0.95526 0.0
C1235 C 0.0042 0.38887 0.94638 0.0
C1236 C 0.99039 0.37686 0.94792 0.0
H1237 H 0.98448 0.4377 0.88165 0.0
H1238 H 0.9854 0.42037 0.8999 0.0
C1239 C 0.98768 0.3658 0.95874 0.0
C1240 C 0.00657 0.40105 0.93594 0.0
H1241 H 0.9966 0.42608 0.93218 0.0
C1242 C 0.01414 0.4036 0.921 0.0
C1243 C 1.00048 0.40948 0.94021 0.0
C1244 C 0.99272 0.40755 0.95643 0.0
C1245 C 0.01518 0.41396 0.90981 0.0
C1246 C 0.00865 0.42204 0.91386 0.0
C1247 C 0.00152 0.4198 0.92907 0.0
C1248 C 0.00842 0.43239 0.90222 0.0
C1249 C 0.02271 0.41573 0.89347 0.0
C1250 C 0.02107 0.44492 0.89749 0.0
C1251 C 0.02057 0.45491 0.88709 0.0
C1252 C 0.00739 0.45257 0.88136 0.0
C1253 C 0.99478 0.43994 0.88604 0.0
C1254 C 0.99529 0.42998 0.89639 0.0
H1255 H 0.0246 0.40672 0.89084 0.0
H1256 H 0.01641 0.41636 0.88313 0.0
H1257 H 0.03321 0.42595 0.89378 0.0
H1258 H 0.03129 0.44713 0.9021 0.0
H1259 H 0.03046 0.46462 0.88387 0.0
H1260 H 0.63839 0.63436 0.96685 0.0
H1261 H 0.62381 0.61939 0.94356 0.0
H1262 H 0.59409 0.63387 0.95224 0.0
H1263 H 0.60861 0.64899 0.97531 0.0
H1264 H 0.59598 0.59708 0.94472 0.0
H1265 H 0.60089 0.63932 0.90253 0.0
H1266 H 0.61269 0.64332 0.91994 0.0
H1267 H 0.59531 0.64105 0.923 0.0
C1268 C 0.62882 0.63449 0.96372 0.0
C1269 C 0.6247 0.64292 0.97298 0.0
C1270 C 0.62051 0.62592 0.95039 0.0
C1271 C 0.60799 0.6257 0.94601 0.0
C1272 C 0.60389 0.63415 0.95515 0.0
H1273 H 0.53182 0.56035 0.89865 0.0
H1274 H 0.55101 0.5768 0.91733 0.0
C1275 C 0.61218 0.64272 0.96844 0.0
C1276 C 0.59868 0.61596 0.9326 0.0
H1277 H 0.58146 0.61521 0.89715 0.0
C1278 C 0.59295 0.60105 0.9342 0.0
C1279 C 0.59489 0.62117 0.91876 0.0
C1280 C 0.60138 0.6371 0.91583 0.0
C1281 C 0.58302 0.59117 0.92272 0.0
C1282 C 0.57854 0.59634 0.90948 0.0
C1283 C 0.58477 0.61127 0.90744 0.0
C1284 C 0.56699 0.58641 0.89803 0.0
C1285 C 0.57737 0.57528 0.92493 0.0
C1286 C 0.56951 0.58664 0.88092 0.0
C1287 C 0.5585 0.57736 0.87015 0.0
C1288 C 0.54474 0.56777 0.87632 0.0
C1289 C 0.54225 0.56769 0.89347 0.0
C1290 C 0.55325 0.57696 0.9042 0.0
H1291 H 0.58481 0.57345 0.93233 0.0
H1292 H 0.56703 0.57038 0.93164 0.0
H1293 H 0.57556 0.56963 0.91277 0.0
H1294 H 0.58002 0.59397 0.87591 0.0
H1295 H 0.56071 0.57781 0.85699 0.0
H1296 H 0.03591 0.65403 0.96731 0.0
H1297 H 0.03375 0.63773 0.94472 0.0
H1298 H 0.98787 0.61695 0.94688 0.0
H1299 H 0.98988 0.63334 0.96935 0.0
H1300 H 0.02011 0.60813 0.94754 0.0
H1301 H 0.99578 0.62275 0.89712 0.0
H1302 H 0.00415 0.63428 0.91501 0.0
H1303 H 0.98637 0.61888 0.91652 0.0
C1304 C 0.02535 0.64615 0.96286 0.0
C1305 C 0.01307 0.64499 0.97024 0.0
C1306 C 0.02415 0.63683 0.94992 0.0
C1307 C 0.01067 0.62622 0.94402 0.0
C1308 C 0.99839 0.62525 0.95102 0.0
H1309 H 0.98093 0.5514 0.87905 0.0
H1310 H 0.98299 0.5705 0.89775 0.0
C1311 C 0.99957 0.63459 0.96395 0.0
C1312 C 0.00947 0.61543 0.93154 0.0
H1313 H 0.99656 0.60127 0.89305 0.0
C1314 C 0.01506 0.60671 0.93557 0.0
C1315 C 0.00278 0.61353 0.916 0.0
C1316 C 0.99703 0.62293 0.9108 0.0
C1317 C 0.01397 0.59599 0.92458 0.0
C1318 C 0.00731 0.59411 0.90904 0.0
C1319 C 0.00168 0.60278 0.90498 0.0
C1320 C 0.00607 0.58308 0.89691 0.0
C1321 C 0.01967 0.58655 0.92986 0.0
C1322 C 0.01835 0.58401 0.89001 0.0
C1323 C 0.01722 0.5731 0.87943 0.0
C1324 C 0.00377 0.56108 0.8755 0.0
C1325 C 0.99145 0.56042 0.88204 0.0
C1326 C 0.9926 0.57135 0.89261 0.0
H1327 H 0.02135 0.58709 0.94348 0.0
H1328 H 0.01227 0.57513 0.92614 0.0
H1329 H 0.0301 0.59024 0.9237 0.0
H1330 H 0.02884 0.59308 0.89303 0.0
H1331 H 0.02692 0.5739 0.87472 0.0
H1332 H 0.39134 0.36829 0.96446 0.0
H1333 H 0.40247 0.38791 0.94472 0.0
H1334 H 0.36522 0.39207 0.94627 0.0
H1335 H 0.3542 0.37272 0.96665 0.0
H1336 H 0.39505 0.3901 0.91462 0.0
H1337 H 0.39598 0.4332 0.95399 0.0
H1338 H 0.39149 0.41592 0.96213 0.0
H1339 H 0.37841 0.41783 0.95088 0.0
C1340 C 0.3855 0.37338 0.96065 0.0
C1341 C 0.3719 0.36898 0.96719 0.0
C1342 C 0.39189 0.38461 0.94935 0.0
C1343 C 0.3848 0.39164 0.94417 0.0
C1344 C 0.37108 0.38709 0.95041 0.0
H1345 H 0.41897 0.44752 0.85721 0.0
H1346 H 0.40309 0.42801 0.87588 0.0
C1347 C 0.36475 0.37597 0.96197 0.0
C1348 C 0.39182 0.4035 0.93202 0.0
H1349 H 0.40371 0.4392 0.92623 0.0
C1350 C 0.39693 0.40083 0.91715 0.0
C1351 C 0.39438 0.41754 0.9354 0.0
C1352 C 0.38991 0.42137 0.95152 0.0
C1353 C 0.40479 0.41184 0.90575 0.0
C1354 C 0.40714 0.42583 0.90899 0.0
C1355 C 0.40179 0.42844 0.9237 0.0
C1356 C 0.41592 0.43811 0.89781 0.0
C1357 C 0.41102 0.40848 0.89076 0.0
C1358 C 0.428 0.4506 0.90406 0.0
C1359 C 0.43686 0.46186 0.8935 0.0
C1360 C 0.43388 0.46079 0.87646 0.0
C1361 C 0.42158 0.44849 0.87027 0.0
C1362 C 0.41257 0.43733 0.8809 0.0
H1363 H 0.41161 0.39861 0.89254 0.0
H1364 H 0.40411 0.40654 0.87985 0.0
H1365 H 0.42191 0.41758 0.88795 0.0
H1366 H 0.43078 0.45147 0.91706 0.0
H1367 H 0.44632 0.4712 0.89855 0.0
H1368 H 0.64809 0.03065 0.96133 0.0
H1369 H 0.62973 0.02469 0.94067 0.0
H1370 H 0.60945 0.97967 0.95308 0.0
H1371 H 0.62775 0.98557 0.97419 0.0
H1372 H 0.62135 0.00667 0.91299 0.0
H1373 H 0.57713 0.9881 0.95896 0.0
H1374 H 0.59566 0.99775 0.96505 0.0
H1375 H 0.58705 0.97902 0.95915 0.0
C1376 C 0.63978 0.01945 0.95971 0.0
C1377 C 0.63935 0.00861 0.9696 0.0
C1378 C 0.62929 0.01606 0.94782 0.0
C1379 C 0.6181 0.00178 0.94551 0.0
C1380 C 0.61785 0.99081 0.95489 0.0
H1381 H 0.54335 0.97628 0.88205 0.0
H1382 H 0.56096 0.97473 0.89922 0.0
C1383 C 0.62837 0.9942 0.96688 0.0
C1384 C 0.60662 0.9987 0.93352 0.0
H1385 H 0.5715 0.98878 0.93108 0.0
C1386 C 0.61041 0.0026 0.91691 0.0
C1387 C 0.59235 0.99336 0.93865 0.0
C1388 C 0.58775 0.9894 0.95643 0.0
C1389 C 0.60042 0.00174 0.90542 0.0
C1390 C 0.58633 0.997 0.91072 0.0
C1391 C 0.58234 0.99245 0.92711 0.0
C1392 C 0.57591 0.99777 0.89983 0.0
C1393 C 0.60508 0.00615 0.88775 0.0
C1394 C 0.57846 0.01123 0.89464 0.0
C1395 C 0.56845 0.01215 0.88492 0.0
C1396 C 0.55568 0.99961 0.88019 0.0
C1397 C 0.55317 0.98611 0.88535 0.0
C1398 C 0.56316 0.98521 0.8952 0.0
H1399 H 0.61477 0.00569 0.88458 0.0
H1400 H 0.59643 0.99911 0.87891 0.0
H1401 H 0.60766 0.01742 0.8861 0.0
H1402 H 0.58814 0.02106 0.89831 0.0
H1403 H 0.57074 0.02268 0.88103 0.0
H1404 H 0.64825 0.03675 0.04978 0.0
H1405 H 0.63114 0.03334 0.07148 0.0
H1406 H 0.61655 0.98792 0.07263 0.0
H1407 H 0.63352 0.99113 0.0507 0.0
H1408 H 0.59461 0.99307 0.07002 0.0
H1409 H 0.63084 0.02648 0.12092 0.0
H1410 H 0.63457 0.03611 0.10184 0.0
H1411 H 0.63694 0.02085 0.10305 0.0
C1412 C 0.64156 0.02604 0.05476 0.0
C1413 C 0.64228 0.01421 0.04842 0.0
C1414 C 0.63183 0.02415 0.06728 0.0
C1415 C 0.6227 0.01042 0.07384 0.0
C1416 C 0.62356 0.99863 0.06779 0.0
H1417 H 0.56525 0.99575 0.15748 0.0
H1418 H 0.58383 0.99658 0.13943 0.0
C1419 C 0.63328 0.0005 0.05525 0.0
C1420 C 0.61156 0.00823 0.08607 0.0
H1421 H 0.60638 0.02012 0.12349 0.0
C1422 C 0.59719 0.99886 0.08179 0.0
C1423 C 0.61493 0.01567 0.10151 0.0
C1424 C 0.63016 0.02523 0.1072 0.0
C1425 C 0.58609 0.99712 0.09227 0.0
C1426 C 0.58946 0.00516 0.10729 0.0
C1427 C 0.60382 0.01411 0.11187 0.0
C1428 C 0.57822 0.00465 0.11821 0.0
C1429 C 0.57085 0.98667 0.08717 0.0
C1430 C 0.56906 0.0091 0.11232 0.0
C1431 C 0.5584 0.00856 0.12255 0.0
C1432 C 0.55675 0.00365 0.13892 0.0
C1433 C 0.5661 0.99939 0.14486 0.0
C1434 C 0.57678 0.99994 0.13461 0.0
H1435 H 0.57017 0.97851 0.07805 0.0
H1436 H 0.56412 0.98096 0.09807 0.0
H1437 H 0.56639 0.99271 0.08126 0.0
H1438 H 0.57016 0.01302 0.0998 0.0
H1439 H 0.55132 0.0118 0.11753 0.0
H1440 H 0.98345 0.62936 0.04618 0.0
H1441 H 0.9774 0.61046 0.06658 0.0
H1442 H 0.0222 0.62665 0.07434 0.0
H1443 H 0.02833 0.64563 0.05446 0.0
H1444 H 0.98311 0.58897 0.06584 0.0
H1445 H 0.00845 0.62301 0.12137 0.0
H1446 H 0.00547 0.63009 0.10271 0.0
H1447 H 0.02095 0.62832 0.10457 0.0
C1448 C 0.99201 0.629 0.05239 0.0
C1449 C 0.00639 0.6391 0.0487 0.0
C1450 C 0.98854 0.61818 0.06403 0.0
C1451 C 0.99935 0.6173 0.07224 0.0
C1452 C 0.01367 0.62735 0.06855 0.0
H1453 H 0.00119 0.54536 0.11144 0.0
H1454 H 0.00065 0.56361 0.09461 0.0
C1455 C 0.01715 0.63817 0.05704 0.0
C1456 C 0.99586 0.60545 0.08394 0.0
H1457 H 0.00449 0.59887 0.12203 0.0
C1458 C 0.98759 0.59111 0.07823 0.0
C1459 C 0.00145 0.6082 0.10024 0.0
C1460 C 0.00943 0.62324 0.10764 0.0
C1461 C 0.98542 0.57952 0.08804 0.0
C1462 C 0.99202 0.58238 0.1038 0.0
C1463 C 0.99962 0.59666 0.10985 0.0
C1464 C 0.99176 0.57086 0.11391 0.0
C1465 C 0.97611 0.56435 0.08136 0.0
C1466 C 0.98737 0.56912 0.13056 0.0
C1467 C 0.98802 0.55892 0.14038 0.0
C1468 C 0.99309 0.55023 0.13376 0.0
C1469 C 0.99737 0.55194 0.11703 0.0
C1470 C 0.99683 0.56223 0.10728 0.0
H1471 H 0.96809 0.56373 0.07246 0.0
H1472 H 0.98287 0.56101 0.07462 0.0
H1473 H 0.9704 0.55659 0.09148 0.0
H1474 H 0.98356 0.57576 0.13601 0.0
H1475 H 0.98486 0.5581 0.15327 0.0
H1476 H 0.38346 0.34403 0.0487 0.0
H1477 H 0.39852 0.35808 0.07207 0.0
H1478 H 0.38397 0.38823 0.06765 0.0
H1479 H 0.36852 0.37398 0.0446 0.0
H1480 H 0.4203 0.3847 0.07054 0.0
H1481 H 0.38205 0.38333 0.11701 0.0
H1482 H 0.37643 0.37133 0.09919 0.0
H1483 H 0.37997 0.38948 0.0973 0.0
C1484 C 0.38328 0.35353 0.05287 0.0
C1485 C 0.37482 0.35792 0.04474 0.0
C1486 C 0.39189 0.36153 0.06624 0.0
C1487 C 0.39228 0.37413 0.07174 0.0
C1488 C 0.38359 0.37835 0.06392 0.0
H1489 H 0.46386 0.44838 0.11646 0.0
H1490 H 0.44522 0.43022 0.09852 0.0
C1491 C 0.37483 0.37024 0.05065 0.0
C1492 C 0.40282 0.38356 0.08448 0.0
H1493 H 0.40665 0.40197 0.12076 0.0
C1494 C 0.41728 0.38833 0.08162 0.0
C1495 C 0.39887 0.38816 0.09906 0.0
C1496 C 0.38347 0.38268 0.10342 0.0
C1497 C 0.42793 0.39791 0.09261 0.0
C1498 C 0.42408 0.4032 0.10663 0.0
C1499 C 0.40959 0.39806 0.10986 0.0
C1500 C 0.43499 0.41437 0.1178 0.0
C1501 C 0.44322 0.40223 0.0891 0.0
C1502 C 0.43512 0.41169 0.13474 0.0
C1503 C 0.44565 0.42219 0.14514 0.0
C1504 C 0.45619 0.43557 0.13877 0.0
C1505 C 0.45585 0.43827 0.12183 0.0
C1506 C 0.4453 0.42782 0.11149 0.0
H1507 H 0.44385 0.39405 0.08118 0.0
H1508 H 0.44858 0.4126 0.08236 0.0
H1509 H 0.44919 0.4037 0.10076 0.0
H1510 H 0.42717 0.40142 0.13987 0.0
H1511 H 0.44547 0.41985 0.15817 0.0
H1512 H 0.67902 0.70489 0.38279 0.0
H1513 H 0.68034 0.72013 0.40631 0.0
H1514 H 0.63553 0.70504 0.40091 0.0
H1515 H 0.63401 0.68967 0.37761 0.0
H1516 H 0.67484 0.7422 0.40562 0.0
H1517 H 0.63883 0.70096 0.45046 0.0
H1518 H 0.64597 0.69661 0.43249 0.0
H1519 H 0.63065 0.69859 0.43055 0.0
C1520 C 0.66939 0.70467 0.38671 0.0
C1521 C 0.6564 0.69603 0.37826 0.0
C1522 C 0.67018 0.71339 0.40016 0.0
C1523 C 0.65799 0.71355 0.40551 0.0
C1524 C 0.645 0.70483 0.39724 0.0
H1525 H 0.6484 0.77918 0.45295 0.0
H1526 H 0.65067 0.7624 0.43436 0.0
C1527 C 0.64418 0.69611 0.38382 0.0
C1528 C 0.659 0.72359 0.4189 0.0
H1529 H 0.64374 0.72511 0.45544 0.0
C1530 C 0.66819 0.73846 0.41663 0.0
C1531 C 0.65046 0.71869 0.43337 0.0
C1532 C 0.64103 0.70283 0.43697 0.0
C1533 C 0.66857 0.74859 0.42805 0.0
C1534 C 0.65935 0.74371 0.44195 0.0
C1535 C 0.65067 0.72883 0.44466 0.0
C1536 C 0.65806 0.75386 0.45336 0.0
C1537 C 0.67876 0.76444 0.42506 0.0
C1538 C 0.6611 0.75436 0.4703 0.0
C1539 C 0.65966 0.76385 0.48103 0.0
C1540 C 0.65501 0.7729 0.475 0.0
C1541 C 0.65186 0.77226 0.45803 0.0
C1542 C 0.65332 0.7628 0.44734 0.0
H1543 H 0.68782 0.76621 0.41701 0.0
H1544 H 0.673 0.76899 0.41871 0.0
H1545 H 0.68309 0.77047 0.43692 0.0
H1546 H 0.66464 0.74744 0.4752 0.0
H1547 H 0.66201 0.76397 0.49407 0.0
H1548 H 0.28667 0.98006 0.39723 0.0
H1549 H 0.27399 0.96071 0.41709 0.0
H1550 H 0.29747 0.94078 0.40015 0.0
H1551 H 0.31035 0.96017 0.38019 0.0
H1552 H 0.25698 0.93093 0.40747 0.0
H1553 H 0.30009 0.94096 0.45168 0.0
H1554 H 0.30152 0.9547 0.43796 0.0
H1555 H 0.30381 0.94041 0.42998 0.0
C1556 C 0.2893 0.97168 0.3978 0.0
C1557 C 0.29951 0.97167 0.38702 0.0
C1558 C 0.28202 0.96063 0.40919 0.0
C1559 C 0.28486 0.94939 0.41015 0.0
C1560 C 0.29528 0.94948 0.39975 0.0
H1561 H 0.24209 0.87086 0.46938 0.0
H1562 H 0.25851 0.89008 0.45069 0.0
C1563 C 0.30258 0.96055 0.3883 0.0
C1564 C 0.27612 0.93711 0.42125 0.0
H1565 H 0.27733 0.92033 0.45619 0.0
C1566 C 0.26143 0.9286 0.41811 0.0
C1567 C 0.28201 0.93403 0.43499 0.0
C1568 C 0.29771 0.94303 0.43901 0.0
C1569 C 0.25239 0.91714 0.42845 0.0
C1570 C 0.25818 0.91432 0.44251 0.0
C1571 C 0.27294 0.92259 0.44544 0.0
C1572 C 0.24891 0.90313 0.45457 0.0
C1573 C 0.23674 0.90809 0.42417 0.0
C1574 C 0.23836 0.90432 0.46325 0.0
C1575 C 0.22901 0.89341 0.47389 0.0
C1576 C 0.23009 0.88113 0.47616 0.0
C1577 C 0.24102 0.88021 0.46792 0.0
C1578 C 0.25037 0.89114 0.45722 0.0
H1579 H 0.23479 0.909 0.41087 0.0
H1580 H 0.23246 0.89654 0.42695 0.0
H1581 H 0.2307 0.91188 0.43167 0.0
H1582 H 0.23727 0.91365 0.46166 0.0
H1583 H 0.2209 0.89459 0.48033 0.0
H1584 H 0.02434 0.31105 0.39372 0.0
H1585 H 0.04286 0.31782 0.41443 0.0
H1586 H 0.06441 0.36182 0.39771 0.0
H1587 H 0.04592 0.35509 0.37662 0.0
H1588 H 0.08238 0.35106 0.40032 0.0
H1589 H 0.05068 0.3401 0.45784 0.0
H1590 H 0.04276 0.325 0.44371 0.0
H1591 H 0.04424 0.34176 0.43795 0.0
C1592 C 0.0329 0.32222 0.3945 0.0
C1593 C 0.03361 0.33251 0.38343 0.0
C1594 C 0.04345 0.3261 0.40648 0.0
C1595 C 0.0549 0.34037 0.40781 0.0
C1596 C 0.05559 0.35076 0.39698 0.0
H1597 H 0.13145 0.37051 0.47006 0.0
H1598 H 0.11339 0.37075 0.45238 0.0
C1599 C 0.045 0.34689 0.38495 0.0
C1600 C 0.0666 0.34404 0.41973 0.0
H1601 H 0.07294 0.3406 0.46029 0.0
C1602 C 0.0804 0.34905 0.41349 0.0
C1603 C 0.064 0.34145 0.43691 0.0
C1604 C 0.04964 0.33692 0.44452 0.0
C1605 C 0.09146 0.35075 0.42383 0.0
C1606 C 0.08864 0.34745 0.44084 0.0
C1607 C 0.07502 0.34302 0.44721 0.0
C1608 C 0.0994 0.34754 0.45194 0.0
C1609 C 0.10591 0.35539 0.4164 0.0
C1610 C 0.09736 0.33444 0.45773 0.0
C1611 C 0.10762 0.33426 0.46779 0.0
C1612 C 0.12006 0.34721 0.47236 0.0
C1613 C 0.12194 0.36037 0.46681 0.0
C1614 C 0.1117 0.36052 0.45664 0.0
H1615 H 0.10582 0.35573 0.40264 0.0
H1616 H 0.11383 0.36633 0.42115 0.0
H1617 H 0.10951 0.34791 0.42013 0.0
H1618 H 0.0879 0.32432 0.45428 0.0
H1619 H 0.10577 0.32398 0.47206 0.0
H1620 H 0.03618 0.34614 0.29833 0.0
H1621 H 0.05168 0.34788 0.27522 0.0
H1622 H 0.04143 0.30426 0.28385 0.0
H1623 H 0.02571 0.30227 0.30656 0.0
H1624 H 0.07518 0.3463 0.27614 0.0
H1625 H 0.03633 0.30295 0.23453 0.0
H1626 H 0.03086 0.30979 0.25185 0.0
H1627 H 0.03563 0.29631 0.25495 0.0
C1628 C 0.03709 0.33685 0.29518 0.0
C1629 C 0.02964 0.32404 0.30429 0.0
C1630 C 0.04594 0.33787 0.28196 0.0
C1631 C 0.04751 0.32611 0.27759 0.0
C1632 C 0.04007 0.31333 0.28664 0.0
H1633 H 0.11904 0.32587 0.23402 0.0
H1634 H 0.10113 0.32664 0.25167 0.0
C1635 C 0.03115 0.31225 0.29974 0.0
C1636 C 0.05772 0.32749 0.26443 0.0
H1637 H 0.06109 0.31038 0.23025 0.0
C1638 C 0.07205 0.33857 0.26596 0.0
C1639 C 0.05362 0.31756 0.25097 0.0
C1640 C 0.03824 0.30609 0.24787 0.0
C1641 C 0.08251 0.33959 0.25488 0.0
C1642 C 0.07858 0.329 0.24219 0.0
C1643 C 0.06414 0.31835 0.24015 0.0
C1644 C 0.08936 0.32847 0.23136 0.0
C1645 C 0.09766 0.35198 0.25693 0.0
C1646 C 0.08839 0.32868 0.21403 0.0
C1647 C 0.09854 0.32808 0.20388 0.0
C1648 C 0.10984 0.32726 0.21092 0.0
C1649 C 0.11062 0.3268 0.22826 0.0
C1650 C 0.10043 0.32729 0.23836 0.0
H1651 H 0.098 0.36138 0.26324 0.0
H1652 H 0.10365 0.34851 0.26473 0.0
H1653 H 0.10317 0.35551 0.24478 0.0
H1654 H 0.07986 0.32947 0.20836 0.0
H1655 H 0.0977 0.32849 0.19056 0.0
H1656 H 0.6487 0.69036 0.28427 0.0
H1657 H 0.65587 0.70992 0.26471 0.0
H1658 H 0.6949 0.73616 0.29205 0.0
H1659 H 0.68797 0.71644 0.31147 0.0
H1660 H 0.6594 0.73555 0.27265 0.0
H1661 H 0.70958 0.74353 0.2449 0.0
H1662 H 0.69756 0.72769 0.25659 0.0
H1663 H 0.70986 0.74428 0.26715 0.0
C1664 C 0.65893 0.7002 0.28599 0.0
C1665 C 0.66773 0.70186 0.29948 0.0
C1666 C 0.66301 0.71137 0.27478 0.0
C1667 C 0.67596 0.72449 0.27683 0.0
C1668 C 0.68501 0.72604 0.28999 0.0
H1669 H 0.68866 0.80507 0.23873 0.0
H1670 H 0.68655 0.78582 0.25632 0.0
C1671 C 0.68099 0.71477 0.30114 0.0
C1672 C 0.67922 0.73688 0.26612 0.0
H1673 H 0.70401 0.76181 0.23977 0.0
C1674 C 0.66914 0.74124 0.26541 0.0
C1675 C 0.69187 0.74424 0.25658 0.0
C1676 C 0.70278 0.73963 0.25619 0.0
C1677 C 0.67135 0.75275 0.25551 0.0
C1678 C 0.6842 0.76043 0.2464 0.0
C1679 C 0.69425 0.75602 0.24694 0.0
C1680 C 0.68714 0.77284 0.23595 0.0
C1681 C 0.65972 0.75637 0.25464 0.0
C1682 C 0.68887 0.77226 0.21874 0.0
C1683 C 0.69021 0.78331 0.20867 0.0
C1684 C 0.68981 0.79512 0.21566 0.0
C1685 C 0.68874 0.79598 0.23298 0.0
C1686 C 0.68752 0.78499 0.24303 0.0
H1687 H 0.64922 0.74719 0.25863 0.0
H1688 H 0.66245 0.76568 0.26303 0.0
H1689 H 0.65861 0.75935 0.24186 0.0
H1690 H 0.68865 0.76299 0.21304 0.0
H1691 H 0.69096 0.78233 0.19536 0.0
H1692 H 0.31067 0.97147 0.30065 0.0
H1693 H 0.29656 0.9569 0.27688 0.0
H1694 H 0.26393 0.96682 0.28897 0.0
H1695 H 0.27807 0.98167 0.31238 0.0
H1696 H 0.271 0.93318 0.27685 0.0
H1697 H 0.26798 0.97423 0.24013 0.0
H1698 H 0.2803 0.97899 0.25715 0.0
H1699 H 0.26203 0.97395 0.26099 0.0
C1700 C 0.30056 0.97068 0.29814 0.0
C1701 C 0.29553 0.97779 0.30841 0.0
C1702 C 0.29253 0.96236 0.28454 0.0
C1703 C 0.27931 0.96099 0.28094 0.0
C1704 C 0.27429 0.96807 0.29117 0.0
H1705 H 0.2056 0.89072 0.23554 0.0
H1706 H 0.22499 0.90804 0.25343 0.0
C1707 C 0.28235 0.97648 0.30466 0.0
C1708 C 0.27025 0.9513 0.26731 0.0
H1709 H 0.24985 0.9494 0.23444 0.0
C1710 C 0.26655 0.93679 0.26743 0.0
C1711 C 0.26465 0.95603 0.2548 0.0
C1712 C 0.26908 0.97169 0.25314 0.0
C1713 C 0.25685 0.92674 0.25591 0.0
C1714 C 0.25036 0.93124 0.24426 0.0
C1715 C 0.25463 0.9459 0.24356 0.0
C1716 C 0.23866 0.92081 0.23326 0.0
C1717 C 0.25362 0.91138 0.25641 0.0
C1718 C 0.23965 0.92254 0.21599 0.0
C1719 C 0.22847 0.91273 0.20572 0.0
C1720 C 0.21614 0.90102 0.21258 0.0
C1721 C 0.2151 0.89947 0.22989 0.0
C1722 C 0.22619 0.90932 0.24012 0.0
H1723 H 0.26265 0.91083 0.2618 0.0
H1724 H 0.24412 0.90494 0.26436 0.0
H1725 H 0.25134 0.90635 0.24383 0.0
H1726 H 0.24913 0.93141 0.21044 0.0
H1727 H 0.22956 0.91416 0.19242 0.0
H1728 H 0.65506 0.96121 0.30565 0.0
H1729 H 0.65509 0.94624 0.28253 0.0
H1730 H 0.7011 0.97117 0.2812 0.0
H1731 H 0.70125 0.98604 0.30436 0.0
H1732 H 0.66691 0.95317 0.24998 0.0
H1733 H 0.69191 0.92964 0.28797 0.0
H1734 H 0.6843 0.93959 0.297 0.0
H1735 H 0.70174 0.94902 0.28766 0.0
C1736 C 0.6652 0.96358 0.30038 0.0
C1737 C 0.67817 0.97472 0.30704 0.0
C1738 C 0.66518 0.95502 0.28716 0.0
C1739 C 0.6781 0.95744 0.2804 0.0
C1740 C 0.69102 0.96893 0.2865 0.0
H1741 H 0.70255 0.91389 0.2083 0.0
H1742 H 0.7018 0.93145 0.22718 0.0
C1743 C 0.69107 0.97745 0.29973 0.0
C1744 C 0.67817 0.94767 0.26735 0.0
H1745 H 0.68963 0.92416 0.25921 0.0
C1746 C 0.67182 0.94677 0.25198 0.0
C1747 C 0.68455 0.93932 0.27006 0.0
C1748 C 0.6909 0.9393 0.28661 0.0
C1749 C 0.67197 0.93794 0.23908 0.0
C1750 C 0.67848 0.92972 0.24177 0.0
C1751 C 0.68475 0.93058 0.25717 0.0
C1752 C 0.67875 0.91991 0.22894 0.0
C1753 C 0.66542 0.93767 0.2226 0.0
C1754 C 0.66603 0.90768 0.22359 0.0
C1755 C 0.66642 0.89764 0.21277 0.0
C1756 C 0.67955 0.89965 0.20716 0.0
C1757 C 0.69226 0.91212 0.21222 0.0
C1758 C 0.69186 0.92212 0.22307 0.0
H1759 H 0.66395 0.94706 0.22126 0.0
H1760 H 0.67214 0.93764 0.21219 0.0
H1761 H 0.65478 0.92767 0.22157 0.0
H1762 H 0.65581 0.90566 0.22819 0.0
H1763 H 0.65645 0.8882 0.20899 0.0
H1764 H 0.02157 0.70685 0.30562 0.0
H1765 H 0.03123 0.72585 0.28481 0.0
H1766 H 0.06573 0.7182 0.27508 0.0
H1767 H 0.05601 0.69903 0.2954 0.0
H1768 H 0.05618 0.75058 0.28433 0.0
H1769 H 0.05301 0.7186 0.22874 0.0
H1770 H 0.04393 0.71027 0.24782 0.0
H1771 H 0.0625 0.71598 0.245 0.0
C1772 C 0.03113 0.7091 0.29891 0.0
C1773 C 0.03796 0.70134 0.30214 0.0
C1774 C 0.03663 0.71997 0.28702 0.0
C1775 C 0.04904 0.72326 0.27813 0.0
C1776 C 0.0559 0.71557 0.28139 0.0
H1777 H 0.1148 0.80157 0.23779 0.0
H1778 H 0.09739 0.78188 0.25487 0.0
C1779 C 0.05036 0.70465 0.29314 0.0
C1780 C 0.05544 0.73532 0.2662 0.0
H1781 H 0.07014 0.74423 0.22754 0.0
C1782 C 0.05902 0.74915 0.27181 0.0
C1783 C 0.05884 0.73344 0.24973 0.0
C1784 C 0.05421 0.71873 0.24242 0.0
C1785 C 0.06668 0.76128 0.26174 0.0
C1786 C 0.07123 0.75956 0.24582 0.0
C1787 C 0.06687 0.74561 0.23985 0.0
C1788 C 0.08133 0.77208 0.23564 0.0
C1789 C 0.06991 0.7758 0.26835 0.0
C1790 C 0.07828 0.77298 0.21898 0.0
C1791 C 0.08842 0.78407 0.209 0.0
C1792 C 0.10182 0.79445 0.2155 0.0
C1793 C 0.10469 0.79367 0.2323 0.0
C1794 C 0.09462 0.78253 0.24219 0.0
H1795 H 0.06159 0.77464 0.27729 0.0
H1796 H 0.08025 0.78105 0.27506 0.0
H1797 H 0.07064 0.78298 0.25821 0.0
H1798 H 0.06815 0.76496 0.2136 0.0
H1799 H 0.08591 0.78423 0.19608 0.0
H1800 H 0.31077 0.36093 0.292 0.0
H1801 H 0.29176 0.35298 0.27167 0.0
H1802 H 0.27393 0.30893 0.28705 0.0
H1803 H 0.29289 0.31682 0.30779 0.0
H1804 H 0.28393 0.33351 0.24518 0.0
H1805 H 0.2401 0.31526 0.29165 0.0
H1806 H 0.25868 0.32615 0.29734 0.0
H1807 H 0.25098 0.30724 0.29284 0.0
C1808 C 0.30286 0.34953 0.29111 0.0
C1809 C 0.30333 0.33954 0.30169 0.0
C1810 C 0.292 0.345 0.27942 0.0
C1811 C 0.28132 0.3304 0.278 0.0
C1812 C 0.28193 0.32029 0.28816 0.0
H1813 H 0.20485 0.29832 0.21519 0.0
H1814 H 0.22324 0.2984 0.23262 0.0
C1815 C 0.29282 0.32482 0.29994 0.0
C1816 C 0.26952 0.32605 0.26602 0.0
H1817 H 0.2339 0.31411 0.26362 0.0
C1818 C 0.27296 0.32911 0.24919 0.0
C1819 C 0.2552 0.32025 0.27127 0.0
C1820 C 0.25095 0.3171 0.28926 0.0
C1821 C 0.26256 0.32699 0.23754 0.0
C1822 C 0.2484 0.32183 0.24292 0.0
C1823 C 0.24479 0.31809 0.25958 0.0
C1824 C 0.23754 0.32153 0.23179 0.0
C1825 C 0.26685 0.33053 0.21963 0.0
C1826 C 0.23949 0.33451 0.22569 0.0
C1827 C 0.22904 0.33451 0.21584 0.0
C1828 C 0.21642 0.32151 0.2119 0.0
C1829 C 0.21453 0.30848 0.21791 0.0
C1830 C 0.22497 0.30851 0.22789 0.0
H1831 H 0.27673 0.33036 0.21671 0.0
H1832 H 0.2582 0.32282 0.21119 0.0
H1833 H 0.26897 0.34154 0.21712 0.0
H1834 H 0.24902 0.3447 0.22876 0.0
H1835 H 0.23086 0.3447 0.21128 0.0
H1836 H 0.29784 0.32762 0.38152 0.0
H1837 H 0.28194 0.32681 0.40364 0.0
H1838 H 0.30417 0.37332 0.405 0.0
H1839 H 0.31996 0.37429 0.38279 0.0
H1840 H 0.287 0.33887 0.4361 0.0
H1841 H 0.26272 0.36162 0.39564 0.0
H1842 H 0.27374 0.35492 0.38759 0.0
H1843 H 0.28181 0.37252 0.39721 0.0
C1844 C 0.29944 0.33769 0.3866 0.0
C1845 C 0.31007 0.35102 0.38019 0.0
C1846 C 0.29034 0.3372 0.39925 0.0
C1847 C 0.2917 0.34999 0.40569 0.0
C1848 C 0.30273 0.36331 0.39992 0.0
H1849 H 0.24232 0.36987 0.47433 0.0
H1850 H 0.26093 0.37082 0.45629 0.0
C1851 C 0.31179 0.36383 0.38725 0.0
C1852 C 0.28128 0.34946 0.418 0.0
H1853 H 0.25606 0.35881 0.42395 0.0
C1854 C 0.2802 0.34318 0.43346 0.0
C1855 C 0.2724 0.35507 0.41447 0.0
C1856 C 0.27259 0.36129 0.39778 0.0
C1857 C 0.27062 0.34262 0.44562 0.0
C1858 C 0.26181 0.3483 0.4421 0.0
C1859 C 0.2629 0.35455 0.42664 0.0
C1860 C 0.25114 0.34764 0.45409 0.0
C1861 C 0.27017 0.33617 0.46223 0.0
C1862 C 0.23948 0.33429 0.45882 0.0
C1863 C 0.22885 0.3337 0.46915 0.0
C1864 C 0.22966 0.34648 0.47488 0.0
C1865 C 0.24147 0.35984 0.4703 0.0
C1866 C 0.25207 0.36041 0.45993 0.0
H1867 H 0.2799 0.33561 0.46442 0.0
H1868 H 0.26906 0.34255 0.47245 0.0
H1869 H 0.26078 0.32503 0.46264 0.0
H1870 H 0.23843 0.32431 0.45422 0.0
H1871 H 0.21994 0.32325 0.47257 0.0
H1872 H 0.68938 0.97536 0.3944 0.0
H1873 H 0.68234 0.95602 0.41415 0.0
H1874 H 0.63819 0.93791 0.40061 0.0
H1875 H 0.64514 0.95715 0.38047 0.0
H1876 H 0.66431 0.94792 0.44131 0.0
H1877 H 0.64407 0.90373 0.39393 0.0
H1878 H 0.65456 0.92253 0.38851 0.0
H1879 H 0.636 0.91462 0.39373 0.0
C1880 C 0.67815 0.96732 0.39559 0.0
C1881 C 0.66784 0.96778 0.38569 0.0
C1882 C 0.67415 0.95626 0.40694 0.0
C1883 C 0.65978 0.94539 0.40866 0.0
C1884 C 0.64938 0.94602 0.39922 0.0
H1885 H 0.62623 0.8686 0.47122 0.0
H1886 H 0.62757 0.88728 0.45312 0.0
C1887 C 0.65337 0.95709 0.38779 0.0
C1888 C 0.6559 0.93341 0.42028 0.0
H1889 H 0.64294 0.89713 0.42184 0.0
C1890 C 0.65954 0.9368 0.43707 0.0
C1891 C 0.64963 0.91889 0.41473 0.0
C1892 C 0.64592 0.91467 0.39673 0.0
C1893 C 0.65737 0.92613 0.4484 0.0
C1894 C 0.65155 0.91173 0.44274 0.0
C1895 C 0.64741 0.90821 0.4261 0.0
C1896 C 0.65063 0.90038 0.45365 0.0
C1897 C 0.66146 0.93037 0.46631 0.0
C1898 C 0.66315 0.90146 0.45966 0.0
C1899 C 0.66245 0.89077 0.46981 0.0
C1900 C 0.64918 0.87876 0.47421 0.0
C1901 C 0.63663 0.87763 0.46799 0.0
C1902 C 0.63736 0.88833 0.45773 0.0
H1903 H 0.66215 0.94075 0.46952 0.0
H1904 H 0.65364 0.92189 0.47473 0.0
H1905 H 0.67208 0.93169 0.46855 0.0
H1906 H 0.67351 0.91053 0.45634 0.0
H1907 H 0.67234 0.89184 0.47403 0.0
H1908 H 0.05791 0.68618 0.38125 0.0
H1909 H 0.07198 0.70138 0.40452 0.0
H1910 H 0.04559 0.72035 0.40725 0.0
H1911 H 0.03125 0.70503 0.38402 0.0
H1912 H 0.08724 0.7315 0.40414 0.0
H1913 H 0.04799 0.7108 0.45591 0.0
H1914 H 0.0453 0.70072 0.43684 0.0
H1915 H 0.04226 0.71556 0.43751 0.0
C1916 C 0.05495 0.69345 0.38687 0.0
C1917 C 0.04345 0.6944 0.38067 0.0
C1918 C 0.06302 0.70213 0.4002 0.0
C1919 C 0.05976 0.71189 0.40769 0.0
C1920 C 0.04813 0.71269 0.40183 0.0
H1921 H 0.10585 0.77987 0.48165 0.0
H1922 H 0.08817 0.76286 0.46169 0.0
C1923 C 0.04 0.70398 0.38847 0.0
C1924 C 0.06925 0.72193 0.42078 0.0
H1925 H 0.07055 0.73163 0.46155 0.0
C1926 C 0.0836 0.7315 0.4167 0.0
C1927 C 0.06441 0.72197 0.4371 0.0
C1928 C 0.04918 0.71165 0.44221 0.0
C1929 C 0.09329 0.74113 0.42851 0.0
C1930 C 0.08854 0.741 0.44491 0.0
C1931 C 0.07414 0.73161 0.44896 0.0
C1932 C 0.09852 0.75051 0.45797 0.0
C1933 C 0.1085 0.75149 0.42327 0.0
C1934 C 0.10995 0.74893 0.46277 0.0
C1935 C 0.1201 0.75865 0.47405 0.0
C1936 C 0.11896 0.7701 0.4808 0.0
C1937 C 0.10715 0.7713 0.47646 0.0
C1938 C 0.09699 0.76155 0.46517 0.0
H1939 H 0.10951 0.75269 0.40959 0.0
H1940 H 0.11256 0.76231 0.42907 0.0
H1941 H 0.11539 0.74735 0.42737 0.0
H1942 H 0.1112 0.74035 0.45749 0.0
H1943 H 0.12911 0.75748 0.47701 0.0
H1944 H 0.34922 0.04032 0.71484 0.0
H1945 H 0.35023 0.05541 0.73836 0.0
H1946 H 0.30503 0.03865 0.73381 0.0
H1947 H 0.30382 0.02342 0.71051 0.0
H1948 H 0.34364 0.07671 0.73783 0.0
H1949 H 0.30928 0.03516 0.78328 0.0
H1950 H 0.31652 0.0311 0.76517 0.0
H1951 H 0.30073 0.0323 0.76353 0.0
C1952 C 0.33945 0.03971 0.71894 0.0
C1953 C 0.32643 0.03063 0.71074 0.0
C1954 C 0.34006 0.04834 0.7324 0.0
C1955 C 0.32767 0.04798 0.73799 0.0
C1956 C 0.31466 0.03884 0.72996 0.0
H1957 H 0.31526 0.11182 0.78507 0.0
H1958 H 0.31823 0.09539 0.76662 0.0
C1959 C 0.31402 0.03021 0.71653 0.0
C1960 C 0.32844 0.05792 0.75137 0.0
H1961 H 0.31316 0.05897 0.78809 0.0
C1962 C 0.33714 0.07283 0.74894 0.0
C1963 C 0.32011 0.05285 0.76596 0.0
C1964 C 0.31125 0.03697 0.76975 0.0
C1965 C 0.33718 0.08281 0.76031 0.0
C1966 C 0.32811 0.07772 0.77433 0.0
C1967 C 0.31997 0.06283 0.77721 0.0
C1968 C 0.32638 0.08764 0.78565 0.0
C1969 C 0.34683 0.09873 0.75714 0.0
C1970 C 0.32961 0.08843 0.80257 0.0
C1971 C 0.32777 0.09771 0.81322 0.0
C1972 C 0.32253 0.10624 0.80713 0.0
C1973 C 0.31918 0.10529 0.79019 0.0
C1974 C 0.32104 0.09605 0.77958 0.0
H1975 H 0.35596 0.10082 0.74902 0.0
H1976 H 0.34066 0.10282 0.75078 0.0
H1977 H 0.35106 0.10491 0.76892 0.0
H1978 H 0.33361 0.08191 0.80751 0.0
H1979 H 0.33028 0.09807 0.82625 0.0
H1980 H 0.97433 0.29067 0.70388 0.0
H1981 H 0.96251 0.2704 0.72298 0.0
H1982 H 0.93744 0.28766 0.74279 0.0
H1983 H 0.94899 0.30782 0.72372 0.0
H1984 H 0.96036 0.2696 0.75795 0.0
H1985 H 0.90734 0.24648 0.72809 0.0
H1986 H 0.92362 0.26009 0.71838 0.0
H1987 H 0.91509 0.26511 0.73407 0.0
C1988 C 0.96634 0.2902 0.71234 0.0
C1989 C 0.96251 0.30082 0.71211 0.0
C1990 C 0.95961 0.27861 0.72324 0.0
C1991 C 0.94892 0.27741 0.73406 0.0
C1992 C 0.94544 0.28823 0.73428 0.0
H1993 H 0.91087 0.22633 0.82102 0.0
H1994 H 0.92592 0.24492 0.80114 0.0
C1995 C 0.95212 0.29978 0.72339 0.0
C1996 C 0.94121 0.26477 0.74499 0.0
H1997 H 0.90781 0.23704 0.75439 0.0
C1998 C 0.94889 0.26239 0.75711 0.0
C1999 C 0.92629 0.25525 0.74366 0.0
C2000 C 0.9176 0.25674 0.73025 0.0
C2001 C 0.94193 0.25101 0.76836 0.0
C2002 C 0.9269 0.24195 0.76758 0.0
C2003 C 0.91932 0.24406 0.75508 0.0
C2004 C 0.91868 0.23046 0.77982 0.0
C2005 C 0.95074 0.24875 0.7809 0.0
C2006 C 0.90946 0.21619 0.77444 0.0
C2007 C 0.90065 0.20558 0.78573 0.0
C2008 C 0.90084 0.20906 0.80266 0.0
C2009 C 0.91034 0.22332 0.80806 0.0
C2010 C 0.91911 0.23392 0.79674 0.0
H2011 H 0.96198 0.25348 0.77669 0.0
H2012 H 0.95085 0.25418 0.79275 0.0
H2013 H 0.94621 0.2371 0.78331 0.0
H2014 H 0.90887 0.21331 0.76141 0.0
H2015 H 0.89332 0.19478 0.7811 0.0
H2016 H 0.691 0.64394 0.72814 0.0
H2017 H 0.71044 0.65127 0.74777 0.0
H2018 H 0.73211 0.69428 0.72804 0.0
H2019 H 0.71256 0.68709 0.70831 0.0
H2020 H 0.73871 0.66138 0.73824 0.0
H2021 H 0.73442 0.70111 0.77886 0.0
H2022 H 0.71997 0.68836 0.76569 0.0
H2023 H 0.73498 0.70406 0.75691 0.0
C2024 C 0.69979 0.65503 0.72804 0.0
C2025 C 0.70022 0.6649 0.71654 0.0
C2026 C 0.7109 0.65919 0.73931 0.0
C2027 C 0.72268 0.67332 0.73942 0.0
C2028 C 0.72301 0.68337 0.72833 0.0
H2029 H 0.80349 0.69328 0.78469 0.0
H2030 H 0.78578 0.69232 0.76552 0.0
C2031 C 0.71184 0.67922 0.71702 0.0
C2032 C 0.73498 0.67705 0.75036 0.0
H2033 H 0.7538 0.6977 0.78383 0.0
C2034 C 0.74207 0.66937 0.74816 0.0
C2035 C 0.73926 0.68743 0.76333 0.0
C2036 C 0.73173 0.69567 0.7665 0.0
C2037 C 0.75319 0.67163 0.7587 0.0
C2038 C 0.75752 0.68203 0.77165 0.0
C2039 C 0.75053 0.68982 0.77379 0.0
C2040 C 0.76872 0.68428 0.78363 0.0
C2041 C 0.7599 0.6625 0.75623 0.0
C2042 C 0.76515 0.68062 0.8003 0.0
C2043 C 0.77527 0.68127 0.81133 0.0
C2044 C 0.78919 0.68565 0.80589 0.0
C2045 C 0.7929 0.68992 0.78932 0.0
C2046 C 0.78276 0.68927 0.77831 0.0
H2047 H 0.75333 0.65297 0.74807 0.0
H2048 H 0.77054 0.6691 0.75035 0.0
H2049 H 0.76143 0.65868 0.7683 0.0
H2050 H 0.75438 0.67681 0.80467 0.0
H2051 H 0.77214 0.67816 0.82408 0.0
H2052 H 0.68547 0.6309 0.63572 0.0
H2053 H 0.70151 0.63225 0.61356 0.0
H2054 H 0.7227 0.67869 0.61473 0.0
H2055 H 0.70673 0.67752 0.63696 0.0
H2056 H 0.70767 0.64661 0.58112 0.0
H2057 H 0.75455 0.66873 0.62337 0.0
H2058 H 0.73641 0.65984 0.63096 0.0
H2059 H 0.74473 0.67795 0.62343 0.0
C2060 C 0.69347 0.64142 0.63123 0.0
C2061 C 0.69488 0.65411 0.63826 0.0
C2062 C 0.7026 0.64216 0.61853 0.0
C2063 C 0.71337 0.65557 0.61269 0.0
C2064 C 0.71454 0.66824 0.61924 0.0
H2065 H 0.78549 0.67809 0.54741 0.0
H2066 H 0.76786 0.67871 0.56572 0.0
C2067 C 0.70536 0.66754 0.6319 0.0
C2068 C 0.72369 0.65624 0.60019 0.0
H2069 H 0.75849 0.66568 0.59526 0.0
C2070 C 0.7188 0.65081 0.58415 0.0
C2071 C 0.73817 0.66174 0.60424 0.0
C2072 C 0.74383 0.66732 0.62145 0.0
C2073 C 0.72809 0.65083 0.57196 0.0
C2074 C 0.74254 0.65609 0.5761 0.0
C2075 C 0.74742 0.66165 0.59211 0.0
C2076 C 0.75277 0.65573 0.56415 0.0
C2077 C 0.72238 0.64542 0.55473 0.0
C2078 C 0.75017 0.64259 0.55722 0.0
C2079 C 0.76016 0.64221 0.54656 0.0
C2080 C 0.77304 0.65496 0.54278 0.0
C2081 C 0.77559 0.6681 0.5498 0.0
C2082 C 0.76557 0.66847 0.56037 0.0
H2083 H 0.71266 0.64595 0.55229 0.0
H2084 H 0.73052 0.65176 0.54516 0.0
H2085 H 0.71944 0.63397 0.55344 0.0
H2086 H 0.74052 0.63257 0.56025 0.0
H2087 H 0.75778 0.63192 0.54129 0.0
H2088 H 0.35766 0.05062 0.64298 0.0
H2089 H 0.36404 0.07055 0.62402 0.0
H2090 H 0.32375 0.04502 0.59884 0.0
H2091 H 0.31715 0.02521 0.61789 0.0
H2092 H 0.36649 0.07379 0.58977 0.0
H2093 H 0.32256 0.08048 0.61417 0.0
H2094 H 0.32807 0.06931 0.62414 0.0
H2095 H 0.31652 0.06261 0.60634 0.0
C2096 C 0.35022 0.04918 0.63329 0.0
C2097 C 0.33679 0.0364 0.63212 0.0
C2098 C 0.35389 0.06058 0.62247 0.0
C2099 C 0.34422 0.05938 0.61029 0.0
C2100 C 0.33121 0.04631 0.60843 0.0
H2101 H 0.35741 0.1156 0.52781 0.0
H2102 H 0.35583 0.09676 0.54575 0.0
C2103 C 0.32748 0.03498 0.61931 0.0
C2104 C 0.34737 0.07197 0.60005 0.0
H2105 H 0.33439 0.09365 0.59005 0.0
C2106 C 0.35953 0.0782 0.58986 0.0
C2107 C 0.33843 0.07789 0.60046 0.0
C2108 C 0.32575 0.07233 0.61199 0.0
C2109 C 0.36279 0.08999 0.57973 0.0
C2110 C 0.35346 0.09546 0.57958 0.0
C2111 C 0.34148 0.0894 0.59006 0.0
C2112 C 0.35577 0.10744 0.56869 0.0
C2113 C 0.37629 0.09659 0.56951 0.0
C2114 C 0.35609 0.11963 0.57557 0.0
C2115 C 0.35676 0.13027 0.56534 0.0
C2116 C 0.3572 0.12897 0.54802 0.0
C2117 C 0.35728 0.11697 0.54113 0.0
C2118 C 0.35644 0.10623 0.55138 0.0
H2119 H 0.38424 0.09424 0.57476 0.0
H2120 H 0.37369 0.09193 0.55677 0.0
H2121 H 0.38123 0.10847 0.56868 0.0
H2122 H 0.35555 0.12079 0.58889 0.0
H2123 H 0.3568 0.13947 0.57098 0.0
H2124 H 0.94588 0.31835 0.63345 0.0
H2125 H 0.93245 0.3035 0.60963 0.0
H2126 H 0.96034 0.28628 0.60619 0.0
H2127 H 0.97383 0.30101 0.63019 0.0
H2128 H 0.94124 0.30139 0.5765 0.0
H2129 H 0.91985 0.2504 0.61171 0.0
H2130 H 0.92829 0.2679 0.6218 0.0
H2131 H 0.93895 0.26193 0.61129 0.0
C2132 C 0.94926 0.31149 0.62761 0.0
C2133 C 0.96086 0.31077 0.6339 0.0
C2134 C 0.94158 0.30304 0.61395 0.0
C2135 C 0.94529 0.29367 0.60632 0.0
C2136 C 0.95719 0.29331 0.61209 0.0
H2137 H 0.89582 0.22504 0.53387 0.0
H2138 H 0.91527 0.24255 0.5517 0.0
C2139 C 0.96491 0.30177 0.62578 0.0
C2140 C 0.93623 0.28383 0.59285 0.0
H2141 H 0.91237 0.24838 0.58408 0.0
C2142 C 0.93499 0.28978 0.57807 0.0
C2143 C 0.92813 0.26871 0.59498 0.0
C2144 C 0.92873 0.2618 0.61082 0.0
C2145 C 0.92573 0.28099 0.56539 0.0
C2146 C 0.9173 0.26591 0.56773 0.0
C2147 C 0.91885 0.25994 0.58232 0.0
C2148 C 0.90626 0.25613 0.55566 0.0
C2149 C 0.92506 0.28792 0.5496 0.0
C2150 C 0.89477 0.25799 0.55194 0.0
C2151 C 0.88364 0.24799 0.5418 0.0
C2152 C 0.88372 0.23586 0.53533 0.0
C2153 C 0.89538 0.23419 0.53883 0.0
C2154 C 0.90653 0.24421 0.54893 0.0
H2155 H 0.93501 0.29848 0.54765 0.0
H2156 H 0.9233 0.28082 0.53866 0.0
H2157 H 0.91605 0.2899 0.55042 0.0
H2158 H 0.89415 0.2669 0.55734 0.0
H2159 H 0.8747 0.24946 0.53954 0.0
H2160 H 0.32408 0.29663 0.63817 0.0
H2161 H 0.3242 0.28167 0.61512 0.0
H2162 H 0.37024 0.30518 0.61571 0.0
H2163 H 0.37027 0.32002 0.63887 0.0
H2164 H 0.33663 0.2884 0.58327 0.0
H2165 H 0.35974 0.26334 0.62186 0.0
H2166 H 0.35256 0.27375 0.6307 0.0
H2167 H 0.37014 0.2827 0.62169 0.0
C2168 C 0.33424 0.29869 0.63335 0.0
C2169 C 0.34717 0.30942 0.64055 0.0
C2170 C 0.33428 0.29014 0.62016 0.0
C2171 C 0.34722 0.29214 0.61395 0.0
C2172 C 0.36013 0.30325 0.62059 0.0
H2173 H 0.37065 0.24748 0.54199 0.0
H2174 H 0.37033 0.26521 0.56099 0.0
C2175 C 0.36011 0.31175 0.6338 0.0
C2176 C 0.34725 0.28234 0.6009 0.0
H2177 H 0.35777 0.25802 0.59307 0.0
C2178 C 0.3412 0.28172 0.5854 0.0
C2179 C 0.35318 0.2736 0.60377 0.0
C2180 C 0.35915 0.27324 0.62044 0.0
C2181 C 0.3412 0.27276 0.57254 0.0
C2182 C 0.34725 0.26414 0.5754 0.0
C2183 C 0.35324 0.26474 0.59091 0.0
C2184 C 0.34729 0.25417 0.56262 0.0
C2185 C 0.33495 0.27277 0.55594 0.0
C2186 C 0.33443 0.24215 0.55719 0.0
C2187 C 0.33458 0.23201 0.54632 0.0
C2188 C 0.3476 0.23371 0.54072 0.0
C2189 C 0.36045 0.24596 0.5459 0.0
C2190 C 0.36029 0.25606 0.55682 0.0
H2191 H 0.33379 0.28233 0.55456 0.0
H2192 H 0.34172 0.2726 0.54567 0.0
H2193 H 0.32421 0.26293 0.55473 0.0
H2194 H 0.3243 0.24039 0.56173 0.0
H2195 H 0.32451 0.22274 0.54245 0.0
H2196 H 0.71059 0.02319 0.61498 0.0
H2197 H 0.72281 0.04278 0.59523 0.0
H2198 H 0.70711 0.06707 0.62125 0.0
H2199 H 0.69458 0.04739 0.64092 0.0
H2200 H 0.70657 0.06918 0.58687 0.0
H2201 H 0.75933 0.07996 0.60844 0.0
H2202 H 0.74774 0.06174 0.60128 0.0
H2203 H 0.74297 0.06828 0.6194 0.0
C2204 C 0.70962 0.03263 0.61646 0.0
C2205 C 0.70176 0.03379 0.62969 0.0
C2206 C 0.71666 0.04384 0.60518 0.0
C2207 C 0.71613 0.0565 0.60701 0.0
C2208 C 0.70773 0.05742 0.61969 0.0
H2209 H 0.77993 0.13852 0.56618 0.0
H2210 H 0.76323 0.11907 0.58428 0.0
C2211 C 0.70058 0.04615 0.63093 0.0
C2212 C 0.7249 0.06903 0.59622 0.0
H2213 H 0.75932 0.09259 0.58472 0.0
C2214 C 0.71811 0.07435 0.5864 0.0
C2215 C 0.73996 0.07591 0.59589 0.0
C2216 C 0.74796 0.07129 0.60693 0.0
C2217 C 0.72599 0.08623 0.576 0.0
C2218 C 0.74102 0.09275 0.57522 0.0
C2219 C 0.74779 0.08753 0.58524 0.0
C2220 C 0.75009 0.10506 0.56424 0.0
C2221 C 0.71819 0.09183 0.5662 0.0
C2222 C 0.74816 0.10374 0.54697 0.0
C2223 C 0.75765 0.1149 0.53661 0.0
C2224 C 0.76935 0.12747 0.54336 0.0
C2225 C 0.77107 0.12889 0.56065 0.0
C2226 C 0.76152 0.11781 0.57099 0.0
H2227 H 0.70759 0.08853 0.57173 0.0
H2228 H 0.7245 0.10379 0.56547 0.0
H2229 H 0.71639 0.08732 0.5534 0.0
H2230 H 0.73963 0.09388 0.54145 0.0
H2231 H 0.75618 0.11346 0.52331 0.0
H2232 H 0.956 0.64908 0.64008 0.0
H2233 H 0.93685 0.64235 0.61996 0.0
H2234 H 0.95908 0.68571 0.60119 0.0
H2235 H 0.97814 0.69259 0.62126 0.0
H2236 H 0.93089 0.67582 0.61005 0.0
H2237 H 0.93495 0.63608 0.56926 0.0
H2238 H 0.93399 0.63269 0.59112 0.0
H2239 H 0.94925 0.64846 0.58284 0.0
C2240 C 0.95694 0.65713 0.63149 0.0
C2241 C 0.9686 0.67141 0.63239 0.0
C2242 C 0.946 0.65324 0.61995 0.0
C2243 C 0.94659 0.66351 0.60903 0.0
C2244 C 0.95842 0.67761 0.60952 0.0
H2245 H 0.89604 0.65802 0.52477 0.0
H2246 H 0.91424 0.6598 0.54377 0.0
C2247 C 0.96932 0.68152 0.62103 0.0
C2248 C 0.93444 0.66002 0.59794 0.0
H2249 H 0.91531 0.63924 0.5647 0.0
C2250 C 0.92746 0.6678 0.60016 0.0
C2251 C 0.93006 0.64961 0.585 0.0
C2252 C 0.9375 0.64128 0.58176 0.0
C2253 C 0.91626 0.66553 0.58973 0.0
C2254 C 0.91177 0.65502 0.57689 0.0
C2255 C 0.91871 0.64719 0.57466 0.0
C2256 C 0.90033 0.65258 0.56519 0.0
C2257 C 0.90962 0.67471 0.59225 0.0
C2258 C 0.88638 0.64759 0.57087 0.0
C2259 C 0.87599 0.64669 0.56009 0.0
C2260 C 0.87935 0.65071 0.54341 0.0
C2261 C 0.89318 0.6551 0.53762 0.0
C2262 C 0.90356 0.656 0.54841 0.0
H2263 H 0.91635 0.68436 0.60018 0.0
H2264 H 0.90788 0.67837 0.58018 0.0
H2265 H 0.8991 0.66822 0.59841 0.0
H2266 H 0.88363 0.64472 0.58374 0.0
H2267 H 0.86548 0.64334 0.56498 0.0
H2268 H 0.95857 0.65792 0.71083 0.0
H2269 H 0.9425 0.65734 0.7326 0.0
H2270 H 0.96731 0.70377 0.73671 0.0
H2271 H 0.98324 0.70452 0.71483 0.0
H2272 H 0.94716 0.66744 0.76535 0.0
H2273 H 0.92731 0.69594 0.7275 0.0
H2274 H 0.93757 0.68862 0.71874 0.0
H2275 H 0.94637 0.70566 0.7297 0.0
C2276 C 0.96066 0.66801 0.71642 0.0
C2277 C 0.9721 0.68128 0.71091 0.0
C2278 C 0.95146 0.66765 0.72886 0.0
C2279 C 0.95354 0.68053 0.73599 0.0
C2280 C 0.9653 0.69373 0.73106 0.0
H2281 H 0.90991 0.70342 0.80938 0.0
H2282 H 0.92706 0.70297 0.79 0.0
C2283 C 0.97443 0.69412 0.71858 0.0
C2284 C 0.94329 0.68025 0.74838 0.0
H2285 H 0.92058 0.69264 0.7559 0.0
C2286 C 0.94128 0.67288 0.76327 0.0
C2287 C 0.9356 0.68731 0.74558 0.0
C2288 C 0.93669 0.69471 0.72945 0.0
C2289 C 0.93201 0.67267 0.77561 0.0
C2290 C 0.92452 0.67991 0.77289 0.0
C2291 C 0.92645 0.68719 0.75797 0.0
C2292 C 0.91445 0.67997 0.78524 0.0
C2293 C 0.93049 0.66495 0.79161 0.0
C2294 C 0.90166 0.66718 0.78888 0.0
C2295 C 0.89176 0.66742 0.7998 0.0
C2296 C 0.89447 0.68046 0.80726 0.0
C2297 C 0.9074 0.69323 0.80369 0.0
C2298 C 0.91725 0.69298 0.79272 0.0
H2299 H 0.93915 0.66253 0.79318 0.0
H2300 H 0.93058 0.67151 0.8024 0.0
H2301 H 0.92012 0.65459 0.79161 0.0
H2302 H 0.89919 0.65708 0.78298 0.0
H2303 H 0.88182 0.65743 0.80202 0.0
H2304 H 0.31264 0.28825 0.70868 0.0
H2305 H 0.3054 0.2681 0.72758 0.0
H2306 H 0.34695 0.29087 0.75054 0.0
H2307 H 0.35434 0.3109 0.73169 0.0
H2308 H 0.33876 0.26307 0.74045 0.0
H2309 H 0.29593 0.26386 0.77742 0.0
H2310 H 0.29391 0.26351 0.75529 0.0
H2311 H 0.30859 0.27899 0.76517 0.0
C2312 C 0.32017 0.28907 0.71792 0.0
C2313 C 0.33411 0.30119 0.71858 0.0
C2314 C 0.31599 0.27756 0.72876 0.0
C2315 C 0.32562 0.27803 0.74053 0.0
C2316 C 0.33936 0.29028 0.74154 0.0
H2317 H 0.31674 0.22534 0.82391 0.0
H2318 H 0.31885 0.24383 0.80501 0.0
C2319 C 0.34356 0.30174 0.73073 0.0
C2320 C 0.32189 0.26543 0.75105 0.0
H2321 H 0.29977 0.24451 0.78211 0.0
C2322 C 0.33021 0.25898 0.74952 0.0
C2323 C 0.31078 0.26019 0.76293 0.0
C2324 C 0.30183 0.26703 0.76546 0.0
C2325 C 0.32784 0.24753 0.75966 0.0
C2326 C 0.31664 0.24218 0.77145 0.0
C2327 C 0.30825 0.24856 0.77294 0.0
C2328 C 0.31406 0.23049 0.78292 0.0
C2329 C 0.33764 0.24157 0.75802 0.0
C2330 C 0.31033 0.21674 0.77681 0.0
C2331 C 0.30927 0.2062 0.78755 0.0
C2332 C 0.31184 0.20919 0.80463 0.0
C2333 C 0.31496 0.22278 0.81078 0.0
C2334 C 0.31605 0.23331 0.80003 0.0
H2335 H 0.34757 0.24897 0.75115 0.0
H2336 H 0.34061 0.23958 0.7704 0.0
H2337 H 0.33206 0.23113 0.75111 0.0
H2338 H 0.30854 0.21428 0.76367 0.0
H2339 H 0.30691 0.19589 0.78238 0.0
H2340 H 0.72153 0.01678 0.7083 0.0
H2341 H 0.73725 0.03157 0.73084 0.0
H2342 H 0.7163 0.05623 0.73288 0.0
H2343 H 0.70028 0.04131 0.7105 0.0
H2344 H 0.75604 0.06062 0.73002 0.0
H2345 H 0.71734 0.04752 0.78153 0.0
H2346 H 0.71285 0.03682 0.76269 0.0
H2347 H 0.713 0.05354 0.76308 0.0
C2348 C 0.72013 0.02524 0.71363 0.0
C2349 C 0.70963 0.02785 0.70754 0.0
C2350 C 0.72913 0.03368 0.72653 0.0
C2351 C 0.72784 0.04489 0.73366 0.0
C2352 C 0.71728 0.04744 0.7278 0.0
H2353 H 0.78065 0.11442 0.80255 0.0
H2354 H 0.76228 0.09782 0.78303 0.0
C2355 C 0.70819 0.03894 0.71492 0.0
C2356 C 0.73819 0.05446 0.74645 0.0
H2357 H 0.74107 0.06696 0.78626 0.0
C2358 C 0.75277 0.06194 0.74235 0.0
C2359 C 0.73388 0.0562 0.7625 0.0
C2360 C 0.71843 0.048 0.76781 0.0
C2361 C 0.76315 0.07123 0.7538 0.0
C2362 C 0.75885 0.07296 0.76983 0.0
C2363 C 0.74429 0.06557 0.77394 0.0
C2364 C 0.7694 0.08247 0.78243 0.0
C2365 C 0.77864 0.07934 0.74858 0.0
C2366 C 0.77927 0.07915 0.78878 0.0
C2367 C 0.78972 0.08855 0.80002 0.0
C2368 C 0.79046 0.10144 0.80512 0.0
C2369 C 0.78029 0.10452 0.79903 0.0
C2370 C 0.76982 0.09509 0.78782 0.0
H2371 H 0.77985 0.07922 0.73489 0.0
H2372 H 0.78403 0.09073 0.75302 0.0
H2373 H 0.78418 0.07421 0.75415 0.0
H2374 H 0.77895 0.06933 0.78494 0.0
H2375 H 0.79722 0.08572 0.8047 0.0
H2376 H 0.02538 0.32258 0.03736 0.0
H2377 H 0.04462 0.32309 0.05306 0.0
H2378 H 0.0734 0.36695 0.03811 0.0
H2379 H 0.05408 0.36655 0.02218 0.0
H2380 H 0.07323 0.33035 0.03969 0.0
H2381 H 0.07463 0.36636 0.09091 0.0
H2382 H 0.05915 0.35627 0.0778 0.0
H2383 H 0.07486 0.37173 0.06982 0.0
C2384 C 0.03579 0.33236 0.03736 0.0
C2385 C 0.03821 0.34455 0.02856 0.0
C2386 C 0.04677 0.33261 0.04633 0.0
C2387 C 0.06035 0.34507 0.04681 0.0
C2388 C 0.06291 0.35727 0.03796 0.0
H2389 H 0.13165 0.35811 0.10882 0.0
H2390 H 0.1167 0.36205 0.08971 0.0
C2391 C 0.05191 0.357 0.02884 0.0
C2392 C 0.07172 0.34509 0.05666 0.0
H2393 H 0.08954 0.35674 0.09345 0.0
C2394 C 0.07693 0.33622 0.05136 0.0
C2395 C 0.07651 0.35282 0.07182 0.0
C2396 C 0.07101 0.36231 0.07808 0.0
C2397 C 0.08668 0.33468 0.06101 0.0
C2398 C 0.09101 0.3419 0.07655 0.0
C2399 C 0.08615 0.35116 0.08157 0.0
C2400 C 0.10009 0.33952 0.08808 0.0
C2401 C 0.09224 0.32532 0.05443 0.0
C2402 C 0.09559 0.3256 0.09374 0.0
C2403 C 0.10409 0.32332 0.10463 0.0
C2404 C 0.1172 0.33496 0.11024 0.0
C2405 C 0.12156 0.34894 0.10481 0.0
C2406 C 0.11307 0.3512 0.09384 0.0
H2407 H 0.0916 0.32442 0.04068 0.0
H2408 H 0.1035 0.32964 0.05821 0.0
H2409 H 0.08563 0.31428 0.05944 0.0
H2410 H 0.08542 0.31648 0.08985 0.0
H2411 H 0.10033 0.31246 0.10882 0.0
H2412 H 0.65297 0.69653 0.02716 0.0
H2413 H 0.65805 0.71638 0.04629 0.0
H2414 H 0.69159 0.71253 0.06881 0.0
H2415 H 0.68669 0.69271 0.04953 0.0
H2416 H 0.65734 0.71639 0.08105 0.0
H2417 H 0.71138 0.75555 0.05674 0.0
H2418 H 0.69893 0.73935 0.04548 0.0
H2419 H 0.70867 0.73835 0.06273 0.0
C2420 C 0.66144 0.69991 0.03616 0.0
C2421 C 0.66949 0.69313 0.0368 0.0
C2422 C 0.66431 0.71123 0.04709 0.0
C2423 C 0.6753 0.71602 0.0588 0.0
C2424 C 0.68323 0.70915 0.05966 0.0
H2425 H 0.68464 0.77485 0.14038 0.0
H2426 H 0.68263 0.75439 0.12441 0.0
C2427 C 0.68037 0.6978 0.0487 0.0
C2428 C 0.67829 0.72817 0.07014 0.0
H2429 H 0.70326 0.76313 0.07978 0.0
C2430 C 0.66741 0.72659 0.08087 0.0
C2431 C 0.6914 0.74147 0.06971 0.0
C2432 C 0.70326 0.7439 0.05797 0.0
C2433 C 0.66919 0.73804 0.09108 0.0
C2434 C 0.68231 0.75134 0.09071 0.0
C2435 C 0.69327 0.75287 0.0801 0.0
C2436 C 0.68453 0.76403 0.1005 0.0
C2437 C 0.65685 0.73597 0.10174 0.0
C2438 C 0.68673 0.77638 0.09235 0.0
C2439 C 0.6879 0.78807 0.10141 0.0
C2440 C 0.68693 0.78762 0.11881 0.0
C2441 C 0.68518 0.7754 0.12697 0.0
C2442 C 0.68404 0.76372 0.11789 0.0
H2443 H 0.64662 0.72626 0.09791 0.0
H2444 H 0.65893 0.7346 0.11482 0.0
H2445 H 0.65563 0.74554 0.10118 0.0
H2446 H 0.68714 0.77681 0.07893 0.0
H2447 H 0.68912 0.79727 0.09476 0.0
H2448 H 0.3082 0.99593 0.04815 0.0
H2449 H 0.28812 0.97951 0.06588 0.0
H2450 H 0.28867 0.94312 0.04401 0.0
H2451 H 0.30862 0.95938 0.02614 0.0
H2452 H 0.26 0.95304 0.05201 0.0
H2453 H 0.29058 0.94113 0.09741 0.0
H2454 H 0.29871 0.95764 0.08572 0.0
H2455 H 0.29462 0.94099 0.07572 0.0
C2456 C 0.30408 0.98443 0.04717 0.0
C2457 C 0.30997 0.97893 0.03577 0.0
C2458 C 0.29262 0.9751 0.05727 0.0
C2459 C 0.28703 0.96016 0.05626 0.0
C2460 C 0.29295 0.95464 0.045 0.0
H2461 H 0.22213 0.88506 0.10747 0.0
H2462 H 0.24228 0.90257 0.09073 0.0
C2463 C 0.3043 0.96394 0.0348 0.0
C2464 C 0.27474 0.95025 0.06666 0.0
H2465 H 0.26547 0.9279 0.09977 0.0
C2466 C 0.26115 0.94758 0.06252 0.0
C2467 C 0.27636 0.94313 0.08023 0.0
C2468 C 0.29084 0.94586 0.08519 0.0
C2469 C 0.24899 0.93767 0.07144 0.0
C2470 C 0.25058 0.93056 0.08512 0.0
C2471 C 0.26425 0.93336 0.0893 0.0
C2472 C 0.23821 0.91997 0.0951 0.0
C2473 C 0.23453 0.93456 0.06576 0.0
C2474 C 0.22929 0.92396 0.10323 0.0
C2475 C 0.21771 0.91394 0.11269 0.0
C2476 C 0.21499 0.89981 0.11442 0.0
C2477 C 0.22403 0.89589 0.10644 0.0
C2478 C 0.23552 0.90588 0.09686 0.0
H2479 H 0.23476 0.93764 0.05263 0.0
H2480 H 0.22634 0.92295 0.06705 0.0
H2481 H 0.23122 0.94094 0.0735 0.0
H2482 H 0.23138 0.93488 0.10242 0.0
H2483 H 0.21105 0.91731 0.11892 0.0
H2484 H 0.36287 0.04937 0.99262 0.0
H2485 H 0.36209 0.06826 0.97682 0.0
H2486 H 0.31993 0.03699 0.9593 0.0
H2487 H 0.3206 0.01813 0.9748 0.0
H2488 H 0.3529 0.06427 0.9376 0.0
H2489 H 0.32062 0.07435 0.98374 0.0
H2490 H 0.33253 0.06821 0.98971 0.0
H2491 H 0.3159 0.05594 0.97979 0.0
C2492 C 0.35345 0.04654 0.98538 0.0
C2493 C 0.3418 0.03227 0.98496 0.0
C2494 C 0.35304 0.05732 0.97637 0.0
C2495 C 0.34092 0.05396 0.96701 0.0
C2496 C 0.32934 0.03975 0.96653 0.0
H2497 H 0.30617 0.09515 0.91039 0.0
H2498 H 0.311 0.07961 0.92736 0.0
C2499 C 0.32977 0.029 0.97538 0.0
C2500 C 0.3402 0.06517 0.95758 0.0
H2501 H 0.32404 0.08509 0.95752 0.0
C2502 C 0.34677 0.06901 0.94198 0.0
C2503 C 0.33204 0.07112 0.96334 0.0
C2504 C 0.32488 0.06731 0.9801 0.0
C2505 C 0.34501 0.07835 0.93169 0.0
C2506 C 0.33671 0.08423 0.93738 0.0
C2507 C 0.3304 0.08059 0.95317 0.0
C2508 C 0.33397 0.09373 0.92693 0.0
C2509 C 0.35154 0.08135 0.91457 0.0
C2510 C 0.34527 0.10689 0.92115 0.0
C2511 C 0.34256 0.11571 0.91123 0.0
C2512 C 0.32846 0.11163 0.90705 0.0
C2513 C 0.31716 0.09852 0.91309 0.0
C2514 C 0.31989 0.08968 0.92292 0.0
H2515 H 0.35434 0.07321 0.9106 0.0
H2516 H 0.34414 0.08144 0.90529 0.0
H2517 H 0.36148 0.0921 0.91461 0.0
H2518 H 0.3562 0.11038 0.92435 0.0
H2519 H 0.35153 0.12567 0.90669 0.0
H2520 H 1.00013 0.31255 0.96277 0.0
H2521 H 0.98356 0.29227 0.94495 0.0
H2522 H 0.94811 0.28705 0.9745 0.0
H2523 H 0.96457 0.30716 0.99244 0.0
H2524 H 0.94784 0.2613 0.96849 0.0
H2525 H 0.95564 0.29148 0.91038 0.0
H2526 H 0.97171 0.29412 0.9197 0.0
H2527 H 0.96131 0.30033 0.93039 0.0
C2528 C 0.9888 0.30713 0.9654 0.0
C2529 C 0.98364 0.31144 0.97898 0.0
C2530 C 0.97935 0.2956 0.95517 0.0
C2531 C 0.96461 0.28827 0.95832 0.0
C2532 C 0.95945 0.2926 0.97185 0.0
H2533 H 0.89302 0.22852 0.89796 0.0
H2534 H 0.91124 0.24906 0.91407 0.0
C2535 C 0.96887 0.3041 0.98207 0.0
C2536 C 0.95453 0.27579 0.94789 0.0
H2537 H 0.94106 0.26601 0.90868 0.0
C2538 C 0.94637 0.2623 0.95541 0.0
C2539 C 0.95257 0.27721 0.93087 0.0
C2540 C 0.96067 0.29158 0.92233 0.0
C2541 C 0.93627 0.25015 0.94635 0.0
C2542 C 0.93445 0.25151 0.92928 0.0
C2543 C 0.94259 0.26501 0.92175 0.0
C2544 C 0.9237 0.23916 0.91919 0.0
C2545 C 0.92737 0.23604 0.95522 0.0
C2546 C 0.92479 0.22689 0.91656 0.0
C2547 C 0.91434 0.21509 0.90746 0.0
C2548 C 0.90264 0.2154 0.90078 0.0
C2549 C 0.90176 0.22785 0.90318 0.0
C2550 C 0.91222 0.23963 0.91226 0.0
H2551 H 0.92781 0.23759 0.96891 0.0
H2552 H 0.91604 0.23061 0.95122 0.0
H2553 H 0.93146 0.22877 0.95215 0.0
H2554 H 0.93369 0.22641 0.92162 0.0
H2555 H 0.91529 0.20564 0.9059 0.0
H2556 H 0.69074 0.67989 0.96686 0.0
H2557 H 0.70951 0.68053 0.94949 0.0
H2558 H 0.70428 0.64292 0.974 0.0
H2559 H 0.68546 0.6422 0.99152 0.0
H2560 H 0.73311 0.6667 0.97185 0.0
H2561 H 0.7054 0.6527 0.91101 0.0
H2562 H 0.70501 0.66698 0.92228 0.0
H2563 H 0.69598 0.64907 0.93053 0.0
C2564 C 0.69349 0.67168 0.96848 0.0
C2565 C 0.68662 0.66098 0.98055 0.0
C2566 C 0.70417 0.67202 0.95849 0.0
C2567 C 0.70814 0.66168 0.96036 0.0
C2568 C 0.70128 0.65094 0.97233 0.0
H2569 H 0.76554 0.6494 0.89601 0.0
H2570 H 0.74518 0.64609 0.91259 0.0
C2571 C 0.69053 0.65054 0.9823 0.0
C2572 C 0.71995 0.66253 0.95033 0.0
H2573 H 0.73038 0.66159 0.91052 0.0
C2574 C 0.7325 0.66549 0.95846 0.0
C2575 C 0.71905 0.66084 0.93288 0.0
C2576 C 0.7056 0.65709 0.92363 0.0
C2577 C 0.74434 0.66717 0.94953 0.0
C2578 C 0.7436 0.66597 0.93203 0.0
C2579 C 0.73093 0.66264 0.92393 0.0
C2580 C 0.75589 0.66808 0.92193 0.0
C2581 C 0.75751 0.67013 0.95886 0.0
C2582 C 0.76854 0.6816 0.92154 0.0
C2583 C 0.78018 0.68352 0.91211 0.0
C2584 C 0.77935 0.67194 0.90292 0.0
C2585 C 0.76656 0.65846 0.90316 0.0
C2586 C 0.75491 0.65657 0.91253 0.0
H2587 H 0.75521 0.66743 0.9722 0.0
H2588 H 0.76208 0.66387 0.9534 0.0
H2589 H 0.76571 0.68177 0.95801 0.0
H2590 H 0.76941 0.69066 0.92855 0.0
H2591 H 0.78991 0.694 0.91225 0.0
H2592 H 0.98238 0.683 0.97631 0.0
H2593 H 0.96352 0.68269 0.96009 0.0
H2594 H 0.934 0.63915 0.97563 0.0
H2595 H 0.95288 0.6395 0.99232 0.0
H2596 H 0.94855 0.66507 0.93418 0.0
H2597 H 0.91184 0.6593 0.98571 0.0
H2598 H 0.93002 0.66393 0.98924 0.0
H2599 H 0.91645 0.64556 0.98465 0.0
C2600 C 0.97187 0.67336 0.97637 0.0
C2601 C 0.9691 0.66128 0.98565 0.0
C2602 C 0.9611 0.6732 0.96706 0.0
C2603 C 0.94731 0.66097 0.96678 0.0
C2604 C 0.94449 0.64882 0.97593 0.0
H2605 H 0.87609 0.64631 0.90377 0.0
H2606 H 0.89234 0.6428 0.9211 0.0
C2607 C 0.95529 0.649 0.98538 0.0
C2608 C 0.93613 0.66103 0.95652 0.0
H2609 H 0.90401 0.65934 0.95846 0.0
C2610 C 0.93878 0.66375 0.93949 0.0
C2611 C 0.92342 0.65936 0.96348 0.0
C2612 C 0.92026 0.657 0.98179 0.0
C2613 C 0.92915 0.665 0.92929 0.0
C2614 C 0.91656 0.66346 0.93629 0.0
C2615 C 0.91371 0.66046 0.9532 0.0
C2616 C 0.90653 0.66553 0.92626 0.0
C2617 C 0.93251 0.66817 0.91113 0.0
C2618 C 0.90917 0.67948 0.92356 0.0
C2619 C 0.89987 0.68154 0.91381 0.0
C2620 C 0.88777 0.66966 0.90653 0.0
C2621 C 0.88518 0.65568 0.90935 0.0
C2622 C 0.89447 0.65364 0.91918 0.0
H2623 H 0.9422 0.66795 0.90731 0.0
H2624 H 0.92333 0.66016 0.9035 0.0
H2625 H 0.93422 0.679 0.90846 0.0
H2626 H 0.91844 0.68877 0.929 0.0
H2627 H 0.90208 0.69243 0.91212 0.0
H2628 H 0.3141 0.31196 0.96577 0.0
H2629 H 0.30854 0.29185 0.9466 0.0
H2630 H 0.34397 0.28951 0.96598 0.0
H2631 H 0.34958 0.30951 0.98512 0.0
H2632 H 0.34119 0.28867 0.92953 0.0
H2633 H 0.29169 0.24909 0.96288 0.0
H2634 H 0.29356 0.26609 0.95744 0.0
H2635 H 0.30528 0.26567 0.97257 0.0
C2636 C 0.32073 0.30719 0.96587 0.0
C2637 C 0.33222 0.31223 0.97699 0.0
C2638 C 0.31752 0.29571 0.95497 0.0
C2639 C 0.32578 0.28917 0.95503 0.0
C2640 C 0.33746 0.29443 0.96581 0.0
H2641 H 0.31778 0.20971 0.9248 0.0
H2642 H 0.31959 0.23085 0.93885 0.0
C2643 C 0.34063 0.30582 0.97674 0.0
C2644 C 0.32218 0.2766 0.9442 0.0
H2645 H 0.29868 0.24038 0.93997 0.0
C2646 C 0.33181 0.27813 0.93163 0.0
C2647 C 0.30999 0.2629 0.94715 0.0
C2648 C 0.29952 0.2607 0.96078 0.0
C2649 C 0.32972 0.26621 0.92211 0.0
C2650 C 0.31766 0.25247 0.92525 0.0
C2651 C 0.30786 0.25099 0.93758 0.0
C2652 C 0.31567 0.23935 0.91674 0.0
C2653 C 0.3407 0.26826 0.90923 0.0
C2654 C 0.31262 0.23707 0.89974 0.0
C2655 C 0.3116 0.22501 0.89167 0.0
C2656 C 0.31366 0.2151 0.90051 0.0
C2657 C 0.31634 0.21726 0.91764 0.0
C2658 C 0.31729 0.22926 0.92569 0.0
H2659 H 0.35046 0.27916 0.91004 0.0
H2660 H 0.34381 0.26002 0.91063 0.0
H2661 H 0.33605 0.26685 0.89668 0.0
H2662 H 0.31123 0.2447 0.89268 0.0
H2663 H 0.30961 0.22367 0.87844 0.0
H2664 H 0.69231 0.00839 0.96766 0.0
H2665 H 0.71252 0.02469 0.95011 0.0
H2666 H 0.71812 0.06115 0.9791 0.0
H2667 H 0.698 0.04495 0.99676 0.0
H2668 H 0.71635 0.04839 0.93107 0.0
H2669 H 0.75792 0.06523 0.97963 0.0
H2670 H 0.74024 0.04955 0.98164 0.0
H2671 H 0.74313 0.0673 0.98542 0.0
C2672 C 0.69785 0.01988 0.9703 0.0
C2673 C 0.69364 0.0254 0.98365 0.0
C2674 C 0.70937 0.02916 0.96025 0.0
C2675 C 0.71692 0.04408 0.96347 0.0
C2676 C 0.71258 0.04964 0.9766 0.0
H2677 H 0.77595 0.11396 0.90056 0.0
H2678 H 0.75559 0.0966 0.91714 0.0
C2679 C 0.70105 0.04038 0.98663 0.0
C2680 C 0.72929 0.05386 0.95302 0.0
H2681 H 0.76517 0.07805 0.95434 0.0
C2682 C 0.72704 0.05485 0.93612 0.0
C2683 C 0.74324 0.0621 0.95963 0.0
C2684 C 0.74636 0.06094 0.97754 0.0
C2685 C 0.73834 0.06414 0.9257 0.0
C2686 C 0.75219 0.07275 0.93244 0.0
C2687 C 0.7545 0.07151 0.94926 0.0
C2688 C 0.76445 0.08316 0.92227 0.0
C2689 C 0.7354 0.06458 0.90755 0.0
C2690 C 0.77628 0.08151 0.91995 0.0
C2691 C 0.78798 0.09147 0.91059 0.0
C2692 C 0.7881 0.10335 0.90352 0.0
C2693 C 0.77624 0.105 0.90596 0.0
C2694 C 0.76454 0.09501 0.91528 0.0
H2695 H 0.7252 0.05489 0.90358 0.0
H2696 H 0.73461 0.07425 0.90525 0.0
H2697 H 0.74419 0.06535 0.89974 0.0
H2698 H 0.77645 0.07248 0.92536 0.0
H2699 H 0.79703 0.09 0.90911 0.0
H2700 H 0.64022 0.95438 0.02496 0.0
H2701 H 0.64028 0.93536 0.04122 0.0
H2702 H 0.68191 0.96641 0.06044 0.0
H2703 H 0.68183 0.98537 0.04462 0.0
H2704 H 0.65919 0.92535 0.04056 0.0
H2705 H 0.65952 0.94837 0.10249 0.0
H2706 H 0.65534 0.95444 0.08381 0.0
H2707 H 0.67365 0.96118 0.08949 0.0
C2708 C 0.64933 0.95713 0.03272 0.0
C2709 C 0.66096 0.9714 0.03362 0.0
C2710 C 0.64936 0.94627 0.04198 0.0
C2711 C 0.66097 0.94954 0.0523 0.0
C2712 C 0.67267 0.96371 0.05291 0.0
H2713 H 0.69438 0.9079 0.11 0.0
H2714 H 0.68981 0.92365 0.09293 0.0
C2715 C 0.67264 0.97453 0.04377 0.0
C2716 C 0.66118 0.93821 0.0622 0.0
H2717 H 0.66647 0.93059 0.10151 0.0
C2718 C 0.66056 0.92636 0.05391 0.0
C2719 C 0.66291 0.93952 0.07964 0.0
C2720 C 0.66274 0.95149 0.0894 0.0
C2721 C 0.66228 0.91615 0.06254 0.0
C2722 C 0.66463 0.91787 0.07984 0.0
C2723 C 0.6648 0.92943 0.0882 0.0
C2724 C 0.66737 0.90801 0.08946 0.0
C2725 C 0.66209 0.90388 0.05311 0.0
C2726 C 0.65623 0.89404 0.09313 0.0
C2727 C 0.65879 0.88503 0.10291 0.0
C2728 C 0.67255 0.88986 0.10912 0.0
C2729 C 0.68371 0.90382 0.10524 0.0
C2730 C 0.68111 0.91285 0.09557 0.0
H2731 H 0.66166 0.90493 0.03948 0.0
H2732 H 0.67174 0.90339 0.05615 0.0
H2733 H 0.65261 0.89352 0.05691 0.0
H2734 H 0.64553 0.89018 0.0886 0.0
H2735 H 0.65002 0.87429 0.1056 0.0
H2736 H 0.00498 0.69236 0.0534 0.0
H2737 H 0.02072 0.71306 0.07125 0.0
H2738 H 0.05694 0.72088 0.04141 0.0
H2739 H 0.04133 0.70028 0.02351 0.0
H2740 H 0.04547 0.71788 0.08947 0.0
H2741 H 0.05846 0.76018 0.04283 0.0
H2742 H 0.04333 0.74204 0.04078 0.0
H2743 H 0.06097 0.74576 0.03579 0.0
C2744 C 0.0163 0.6985 0.05065 0.0
C2745 C 0.02192 0.69475 0.03702 0.0
C2746 C 0.02526 0.7103 0.06085 0.0
C2747 C 0.03994 0.7186 0.05747 0.0
C2748 C 0.0456 0.71475 0.04403 0.0
H2749 H 0.11199 0.77808 0.11644 0.0
H2750 H 0.09358 0.7578 0.10031 0.0
C2751 C 0.03667 0.70293 0.03388 0.0
C2752 C 0.04943 0.73116 0.06814 0.0
H2753 H 0.07249 0.76762 0.06744 0.0
C2754 C 0.05131 0.72878 0.08472 0.0
C2755 C 0.05687 0.74536 0.06192 0.0
C2756 C 0.05475 0.74857 0.0444 0.0
C2757 C 0.06084 0.7402 0.09511 0.0
C2758 C 0.06874 0.7543 0.08868 0.0
C2759 C 0.06649 0.75676 0.07227 0.0
C2760 C 0.07973 0.76656 0.09864 0.0
C2761 C 0.06242 0.7371 0.11289 0.0
C2762 C 0.07815 0.77833 0.10276 0.0
C2763 C 0.08863 0.78993 0.11209 0.0
C2764 C 0.10092 0.79 0.11735 0.0
C2765 C 0.10253 0.77825 0.11293 0.0
C2766 C 0.09203 0.76665 0.10368 0.0
H2767 H 0.05322 0.72663 0.11698 0.0
H2768 H 0.07226 0.73656 0.11409 0.0
H2769 H 0.06342 0.74581 0.12131 0.0
H2770 H 0.06874 0.77846 0.09889 0.0
H2771 H 0.08699 0.79874 0.11539 0.0
H2772 H 0.31587 0.36197 0.02441 0.0
H2773 H 0.29641 0.36041 0.04147 0.0
H2774 H 0.29041 0.32166 0.06384 0.0
H2775 H 0.30957 0.32299 0.04672 0.0
H2776 H 0.26533 0.31882 0.05311 0.0
H2777 H 0.2962 0.36889 0.09103 0.0
H2778 H 0.29817 0.37149 0.06901 0.0
H2779 H 0.30466 0.36117 0.07887 0.0
C2780 C 0.31047 0.3532 0.03307 0.0
C2781 C 0.31424 0.3426 0.03423 0.0
C2782 C 0.29941 0.35236 0.04286 0.0
C2783 C 0.29207 0.341 0.05404 0.0
C2784 C 0.29594 0.33052 0.0553 0.0
H2785 H 0.23504 0.33136 0.13446 0.0
H2786 H 0.25487 0.33461 0.11689 0.0
C2787 C 0.30691 0.33131 0.04551 0.0
C2788 C 0.27997 0.33959 0.06403 0.0
H2789 H 0.27104 0.3561 0.09422 0.0
C2790 C 0.26656 0.32697 0.06209 0.0
C2791 C 0.28167 0.35018 0.07584 0.0
C2792 C 0.29597 0.36365 0.07897 0.0
C2793 C 0.25478 0.32463 0.07167 0.0
C2794 C 0.25641 0.33534 0.08326 0.0
C2795 C 0.26982 0.34796 0.08522 0.0
C2796 C 0.2444 0.33348 0.09379 0.0
C2797 C 0.24082 0.31055 0.06958 0.0
C2798 C 0.232 0.33189 0.08661 0.0
C2799 C 0.22066 0.33 0.09661 0.0
C2800 C 0.22157 0.32981 0.11398 0.0
C2801 C 0.23407 0.33157 0.12112 0.0
C2802 C 0.24539 0.3334 0.11112 0.0
H2803 H 0.24232 0.30214 0.06344 0.0
H2804 H 0.23553 0.30644 0.08175 0.0
H2805 H 0.23356 0.3123 0.06173 0.0
H2806 H 0.23115 0.33224 0.07328 0.0
H2807 H 0.21127 0.32894 0.09075 0.0
H2808 H 0.68441 0.65658 0.3777 0.0
H2809 H 0.70241 0.65541 0.39415 0.0
H2810 H 0.73501 0.69629 0.3747 0.0
H2811 H 0.71696 0.69762 0.35814 0.0
H2812 H 0.7271 0.6558 0.38159 0.0
H2813 H 0.74043 0.70099 0.42597 0.0
H2814 H 0.72432 0.69255 0.41367 0.0
H2815 H 0.74113 0.70505 0.40431 0.0
C2816 C 0.69539 0.66538 0.37696 0.0
C2817 C 0.69927 0.67721 0.36662 0.0
C2818 C 0.70566 0.66467 0.38636 0.0
C2819 C 0.71999 0.6758 0.38573 0.0
C2820 C 0.72394 0.68769 0.37551 0.0
H2821 H 0.79171 0.66966 0.42167 0.0
H2822 H 0.77536 0.67329 0.40472 0.0
C2823 C 0.71365 0.6884 0.36602 0.0
C2824 C 0.73077 0.67462 0.39543 0.0
H2825 H 0.75371 0.68938 0.42815 0.0
C2826 C 0.73298 0.66317 0.39172 0.0
C2827 C 0.73827 0.68417 0.40874 0.0
C2828 C 0.7359 0.69634 0.41357 0.0
C2829 C 0.74251 0.661 0.40099 0.0
C2830 C 0.75012 0.67063 0.4142 0.0
C2831 C 0.74791 0.68208 0.41794 0.0
C2832 C 0.76017 0.66877 0.42451 0.0
C2833 C 0.74414 0.64824 0.39685 0.0
C2834 C 0.75713 0.66526 0.44131 0.0
C2835 C 0.76646 0.66322 0.45104 0.0
C2836 C 0.77906 0.66479 0.44416 0.0
C2837 C 0.78214 0.66848 0.42736 0.0
C2838 C 0.77277 0.67045 0.41763 0.0
H2839 H 0.73542 0.64025 0.38866 0.0
H2840 H 0.75444 0.65206 0.39033 0.0
H2841 H 0.74424 0.64275 0.40832 0.0
H2842 H 0.74746 0.66398 0.44684 0.0
H2843 H 0.76389 0.66057 0.46399 0.0
H2844 H 0.35631 0.0257 0.38695 0.0
H2845 H 0.36096 0.04538 0.40639 0.0
H2846 H 0.32813 0.04981 0.38286 0.0
H2847 H 0.32339 0.03023 0.36352 0.0
H2848 H 0.36897 0.07443 0.39859 0.0
H2849 H 0.31759 0.0458 0.43267 0.0
H2850 H 0.32411 0.03647 0.41996 0.0
H2851 H 0.31555 0.04505 0.41054 0.0
C2852 C 0.35005 0.03084 0.38598 0.0
C2853 C 0.33945 0.0264 0.37376 0.0
C2854 C 0.35273 0.04207 0.39707 0.0
C2855 C 0.34474 0.04888 0.39618 0.0
C2856 C 0.33423 0.04451 0.38393 0.0
H2857 H 0.35803 0.13068 0.42824 0.0
H2858 H 0.35726 0.11028 0.41362 0.0
C2859 C 0.33159 0.03336 0.37284 0.0
C2860 C 0.34755 0.06086 0.40771 0.0
H2861 H 0.33128 0.07145 0.4361 0.0
C2862 C 0.36082 0.07375 0.40696 0.0
C2863 C 0.33696 0.05985 0.41876 0.0
C2864 C 0.32279 0.046 0.42069 0.0
C2865 C 0.36353 0.08592 0.41645 0.0
C2866 C 0.35261 0.08517 0.42675 0.0
C2867 C 0.33959 0.07206 0.42806 0.0
C2868 C 0.35419 0.09797 0.43578 0.0
C2869 C 0.37801 0.09949 0.41528 0.0
C2870 C 0.35255 0.09773 0.45306 0.0
C2871 C 0.35295 0.10936 0.46145 0.0
C2872 C 0.35491 0.1214 0.45268 0.0
C2873 C 0.35673 0.12167 0.43538 0.0
C2874 C 0.35632 0.11004 0.42701 0.0
H2875 H 0.38628 0.09711 0.41094 0.0
H2876 H 0.3775 0.10684 0.40622 0.0
H2877 H 0.38134 0.10522 0.42745 0.0
H2878 H 0.35084 0.08849 0.46004 0.0
H2879 H 0.35169 0.1089 0.4748 0.0
H2880 H 0.98022 0.33185 0.38426 0.0
H2881 H 0.95937 0.31546 0.40107 0.0
H2882 H 0.95316 0.27941 0.37077 0.0
H2883 H 0.97391 0.29563 0.35399 0.0
H2884 H 0.92788 0.28205 0.37659 0.0
H2885 H 0.95691 0.28425 0.43403 0.0
H2886 H 0.96137 0.30117 0.42491 0.0
H2887 H 0.96558 0.28921 0.41402 0.0
C2888 C 0.97444 0.32043 0.38125 0.0
C2889 C 0.9787 0.31501 0.36783 0.0
C2890 C 0.96257 0.31109 0.39086 0.0
C2891 C 0.95481 0.29625 0.38717 0.0
C2892 C 0.95904 0.29084 0.3738 0.0
H2893 H 0.89223 0.22085 0.43858 0.0
H2894 H 0.91275 0.2396 0.42345 0.0
C2895 C 0.97091 0.30012 0.36426 0.0
C2896 C 0.94211 0.28625 0.39702 0.0
H2897 H 0.93179 0.26983 0.43458 0.0
C2898 C 0.92869 0.27944 0.38931 0.0
C2899 C 0.94329 0.28284 0.41354 0.0
C2900 C 0.95755 0.28964 0.42217 0.0
C2901 C 0.91636 0.26917 0.39769 0.0
C2902 C 0.91754 0.26571 0.41419 0.0
C2903 C 0.93095 0.27259 0.42194 0.0
C2904 C 0.90506 0.25448 0.42337 0.0
C2905 C 0.90223 0.26179 0.38873 0.0
C2906 C 0.89398 0.2567 0.42835 0.0
C2907 C 0.88228 0.24606 0.43714 0.0
C2908 C 0.88146 0.233 0.4411 0.0
C2909 C 0.89259 0.23084 0.43597 0.0
C2910 C 0.9043 0.24151 0.42726 0.0
H2911 H 0.90352 0.26396 0.37521 0.0
H2912 H 0.89658 0.24994 0.39056 0.0
H2913 H 0.89539 0.26576 0.3939 0.0
H2914 H 0.89448 0.26674 0.42561 0.0
H2915 H 0.87403 0.24818 0.44113 0.0
H2916 H 0.03409 0.38503 0.32542 0.0
H2917 H 0.03452 0.40437 0.30931 0.0
H2918 H 0.99202 0.37453 0.29149 0.0
H2919 H 0.9915 0.3552 0.30736 0.0
H2920 H 0.0288 0.40328 0.27236 0.0
H2921 H 0.99113 0.41026 0.31266 0.0
H2922 H 0.00112 0.40229 0.31994 0.0
H2923 H 0.98573 0.39197 0.30701 0.0
C2924 C 0.02484 0.38261 0.31808 0.0
C2925 C 0.01275 0.36861 0.3177 0.0
C2926 C 0.02512 0.39365 0.30889 0.0
C2927 C 0.01325 0.39087 0.29938 0.0
C2928 C 0.00122 0.3769 0.29891 0.0
H2929 H 0.98547 0.43543 0.23701 0.0
H2930 H 0.98813 0.41876 0.25465 0.0
C2931 C 0.00098 0.36587 0.30795 0.0
C2932 C 0.01334 0.40244 0.28973 0.0
H2933 H 0.99688 0.42195 0.28672 0.0
C2934 C 0.02196 0.40751 0.27554 0.0
C2935 C 0.00432 0.40781 0.29393 0.0
C2936 C 0.9951 0.40292 0.30928 0.0
C2937 C 0.02143 0.41749 0.26507 0.0
C2938 C 0.01227 0.42277 0.26916 0.0
C2939 C 0.00388 0.41789 0.28357 0.0
C2940 C 0.01085 0.43299 0.25842 0.0
C2941 C 0.03024 0.42183 0.24938 0.0
C2942 C 0.0227 0.4466 0.25483 0.0
C2943 C 0.02122 0.45613 0.24469 0.0
C2944 C 0.0078 0.4523 0.23815 0.0
C2945 C 0.99592 0.43875 0.24198 0.0
C2946 C 0.99743 0.42919 0.25201 0.0
H2947 H 0.03366 0.41406 0.24591 0.0
H2948 H 0.02418 0.42261 0.23887 0.0
H2949 H 0.03999 0.43257 0.25133 0.0
H2950 H 0.03309 0.44992 0.25998 0.0
H2951 H 0.03052 0.46659 0.24217 0.0
H2952 H 0.6654 0.64679 0.298 0.0
H2953 H 0.64953 0.62597 0.28032 0.0
H2954 H 0.61307 0.62053 0.30786 0.0
H2955 H 0.62877 0.64125 0.32552 0.0
H2956 H 0.61525 0.5946 0.30289 0.0
H2957 H 0.62038 0.62432 0.24496 0.0
H2958 H 0.63661 0.62844 0.25535 0.0
H2959 H 0.62463 0.63305 0.26513 0.0
C2960 C 0.654 0.6412 0.30021 0.0
C2961 C 0.64831 0.64565 0.31312 0.0
C2962 C 0.64497 0.62935 0.2901 0.0
C2963 C 0.63016 0.6218 0.29278 0.0
C2964 C 0.62448 0.62625 0.30562 0.0
H2965 H 0.5565 0.56015 0.23817 0.0
H2966 H 0.5752 0.58062 0.25383 0.0
C2967 C 0.63346 0.6381 0.31566 0.0
C2968 C 0.62049 0.60907 0.28247 0.0
H2969 H 0.60555 0.59898 0.24396 0.0
C2970 C 0.6132 0.5955 0.28997 0.0
C2971 C 0.61781 0.61039 0.26567 0.0
C2972 C 0.62517 0.62482 0.25723 0.0
C2973 C 0.60314 0.58317 0.28112 0.0
C2974 C 0.60039 0.5845 0.26436 0.0
C2975 C 0.60778 0.59804 0.2568 0.0
C2976 C 0.58927 0.57208 0.25474 0.0
C2977 C 0.5952 0.56889 0.28984 0.0
C2978 C 0.59106 0.56055 0.25003 0.0
C2979 C 0.58044 0.54887 0.24093 0.0
C2980 C 0.56786 0.54854 0.23639 0.0
C2981 C 0.56614 0.56014 0.24121 0.0
C2982 C 0.57678 0.57182 0.25023 0.0
H2983 H 0.59702 0.57011 0.30346 0.0
H2984 H 0.58356 0.56356 0.28745 0.0
H2985 H 0.59886 0.56166 0.28494 0.0
H2986 H 0.60072 0.56066 0.25327 0.0
H2987 H 0.5822 0.54022 0.23721 0.0
H2988 H 0.36116 0.01043 0.30486 0.0
H2989 H 0.37839 0.00841 0.28721 0.0
H2990 H 0.36955 0.9699 0.31274 0.0
H2991 H 0.35223 0.97183 0.33053 0.0
H2992 H 0.39947 0.9915 0.3088 0.0
H2993 H 0.36927 0.97793 0.2497 0.0
H2994 H 0.37099 0.99339 0.26061 0.0
H2995 H 0.36091 0.97585 0.26973 0.0
C2996 C 0.36283 0.0015 0.3067 0.0
C2997 C 0.35532 0.99127 0.31907 0.0
C2998 C 0.37262 0.00032 0.29655 0.0
C2999 C 0.37509 0.98891 0.29856 0.0
C3000 C 0.36771 0.97873 0.31096 0.0
H3001 H 0.42568 0.969 0.23067 0.0
H3002 H 0.40673 0.96724 0.24885 0.0
C3003 C 0.35783 0.97985 0.32108 0.0
C3004 C 0.38575 0.98795 0.28803 0.0
H3005 H 0.39367 0.98451 0.24779 0.0
C3006 C 0.39817 0.98986 0.29548 0.0
C3007 C 0.38392 0.98566 0.27069 0.0
C3008 C 0.3705 0.98296 0.26217 0.0
C3009 C 0.40907 0.99001 0.28595 0.0
C3010 C 0.40751 0.98833 0.26853 0.0
C3011 C 0.39487 0.98593 0.26114 0.0
C3012 C 0.41901 0.98934 0.25773 0.0
C3013 C 0.42218 0.992 0.29456 0.0
C3014 C 0.43209 0.00239 0.25659 0.0
C3015 C 0.4429 0.00344 0.24624 0.0
C3016 C 0.44082 0.99143 0.23682 0.0
C3017 C 0.42766 0.97838 0.23792 0.0
C3018 C 0.41681 0.97738 0.24822 0.0
H3019 H 0.42024 0.98959 0.308 0.0
H3020 H 0.42574 0.98494 0.28884 0.0
H3021 H 0.43098 0.00337 0.29331 0.0
H3022 H 0.4339 0.01181 0.26366 0.0
H3023 H 0.45296 0.01359 0.24576 0.0
H3024 H 0.6458 0.00782 0.30591 0.0
H3025 H 0.62676 0.00633 0.28877 0.0
H3026 H 0.59619 0.96676 0.31263 0.0
H3027 H 0.61525 0.96819 0.32998 0.0
H3028 H 0.60802 0.98343 0.26666 0.0
H3029 H 0.57914 0.9934 0.31748 0.0
H3030 H 0.59728 0.99744 0.31969 0.0
H3031 H 0.58272 0.97911 0.32066 0.0
C3032 C 0.63503 0.99879 0.30756 0.0
C3033 C 0.63201 0.98815 0.31936 0.0
C3034 C 0.62418 0.99795 0.29772 0.0
C3035 C 0.61007 0.98652 0.29955 0.0
C3036 C 0.60699 0.97577 0.3112 0.0
H3037 H 0.54075 0.96775 0.23089 0.0
H3038 H 0.55762 0.96563 0.24876 0.0
C3039 C 0.61789 0.97658 0.32104 0.0
C3040 C 0.59869 0.98595 0.28915 0.0
H3041 H 0.56923 0.98928 0.29065 0.0
C3042 C 0.59947 0.9846 0.27189 0.0
C3043 C 0.58766 0.98764 0.29604 0.0
C3044 C 0.58662 0.98959 0.31447 0.0
C3045 C 0.58953 0.98498 0.2613 0.0
C3046 C 0.57851 0.98665 0.26819 0.0
C3047 C 0.57767 0.98791 0.28545 0.0
C3048 C 0.56812 0.98775 0.25762 0.0
C3049 C 0.59113 0.98401 0.2428 0.0
C3050 C 0.56835 0.00083 0.25691 0.0
C3051 C 0.55875 0.00208 0.24675 0.0
C3052 C 0.54866 0.99021 0.23723 0.0
C3053 C 0.54835 0.97705 0.23815 0.0
C3054 C 0.55802 0.97585 0.24824 0.0
H3055 H 0.6016 0.98528 0.23938 0.0
H3056 H 0.58256 0.97331 0.23816 0.0
H3057 H 0.59001 0.99241 0.23641 0.0
H3058 H 0.57604 0.01012 0.26412 0.0
H3059 H 0.55912 0.01229 0.24649 0.0
H3060 H 0.98542 0.64499 0.3007 0.0
H3061 H 0.98262 0.6263 0.28076 0.0
H3062 H 0.01634 0.62392 0.30511 0.0
H3063 H 0.01931 0.64261 0.32491 0.0
H3064 H 0.01879 0.62545 0.27033 0.0
H3065 H 0.96459 0.58297 0.29086 0.0
H3066 H 0.96654 0.59998 0.28547 0.0
H3067 H 0.97581 0.59895 0.30317 0.0
C3068 C 0.99222 0.64045 0.3018 0.0
C3069 C 0.00254 0.6452 0.3144 0.0
C3070 C 0.99056 0.62976 0.29046 0.0
C3071 C 0.99916 0.62363 0.29161 0.0
C3072 C 0.00958 0.62849 0.30405 0.0
H3073 H 0.99229 0.54577 0.25389 0.0
H3074 H 0.99248 0.56523 0.27004 0.0
C3075 C 0.01123 0.63916 0.31537 0.0
C3076 C 0.99748 0.61219 0.27987 0.0
H3077 H 0.97471 0.57708 0.26836 0.0
C3078 C 0.00912 0.6149 0.26979 0.0
C3079 C 0.98489 0.59842 0.27935 0.0
C3080 C 0.97225 0.59479 0.29036 0.0
C3081 C 0.0086 0.60413 0.25933 0.0
C3082 C 0.99601 0.59036 0.2588 0.0
C3083 C 0.9843 0.58769 0.26873 0.0
C3084 C 0.99512 0.57833 0.24876 0.0
C3085 C 0.0217 0.60741 0.24941 0.0
C3086 C 0.99628 0.57915 0.23143 0.0
C3087 C 0.99615 0.56803 0.22215 0.0
C3088 C 0.99476 0.55586 0.23007 0.0
C3089 C 0.99323 0.55492 0.24741 0.0
C3090 C 0.99339 0.56605 0.25666 0.0
H3091 H 0.03138 0.61742 0.25388 0.0
H3092 H 0.02371 0.59833 0.24997 0.0
H3093 H 0.02 0.60892 0.23623 0.0
H3094 H 0.99735 0.58842 0.22508 0.0
H3095 H 0.9971 0.56895 0.20879 0.0
H3096 H 0.35772 0.34055 0.29988 0.0
H3097 H 0.37775 0.35623 0.28171 0.0
H3098 H 0.38297 0.39371 0.3081 0.0
H3099 H 0.36289 0.37817 0.32611 0.0
H3100 H 0.38387 0.39651 0.27392 0.0
H3101 H 0.42004 0.37791 0.29492 0.0
H3102 H 0.4029 0.36384 0.28758 0.0
H3103 H 0.40401 0.3739 0.30605 0.0
C3104 C 0.36313 0.35213 0.30178 0.0
C3105 C 0.35879 0.35814 0.31446 0.0
C3106 C 0.37462 0.36106 0.29146 0.0
C3107 C 0.38197 0.37611 0.29374 0.0
C3108 C 0.37747 0.38211 0.30619 0.0
H3109 H 0.46492 0.44236 0.25912 0.0
H3110 H 0.44424 0.42464 0.27505 0.0
C3111 C 0.36601 0.37322 0.31648 0.0
C3112 C 0.39433 0.3857 0.28314 0.0
H3113 H 0.42824 0.39446 0.27283 0.0
C3114 C 0.39356 0.39605 0.27363 0.0
C3115 C 0.40701 0.38517 0.28298 0.0
C3116 C 0.40866 0.3747 0.29353 0.0
C3117 C 0.40515 0.4059 0.26394 0.0
C3118 C 0.41774 0.4052 0.26354 0.0
C3119 C 0.41852 0.39487 0.27307 0.0
C3120 C 0.43038 0.41543 0.25372 0.0
C3121 C 0.40394 0.41721 0.25458 0.0
C3122 C 0.42952 0.4159 0.23642 0.0
C3123 C 0.4413 0.426 0.2273 0.0
C3124 C 0.45421 0.43573 0.2353 0.0
C3125 C 0.45516 0.43494 0.25259 0.0
C3126 C 0.44335 0.42487 0.26171 0.0
H3127 H 0.39508 0.41851 0.25936 0.0
H3128 H 0.41404 0.42783 0.25534 0.0
H3129 H 0.40178 0.41393 0.24131 0.0
H3130 H 0.4197 0.40849 0.22999 0.0
H3131 H 0.44032 0.42616 0.21397 0.0
H3132 H 0.35084 0.32005 0.37246 0.0
H3133 H 0.35212 0.3017 0.38824 0.0
H3134 H 0.30688 0.27255 0.38126 0.0
H3135 H 0.30568 0.29077 0.36472 0.0
H3136 H 0.34042 0.28978 0.41623 0.0
H3137 H 0.32146 0.24663 0.36805 0.0
H3138 H 0.32584 0.26474 0.36345 0.0
H3139 H 0.30883 0.25217 0.3725 0.0
C3140 C 0.34116 0.3097 0.3742 0.0
C3141 C 0.32816 0.30681 0.36731 0.0
C3142 C 0.34191 0.29922 0.38324 0.0
C3143 C 0.32965 0.28564 0.38576 0.0
C3144 C 0.31657 0.28278 0.37911 0.0
H3145 H 0.32903 0.23011 0.46364 0.0
H3146 H 0.32483 0.24618 0.44701 0.0
C3147 C 0.31586 0.29323 0.36978 0.0
C3148 C 0.33067 0.27478 0.39581 0.0
H3149 H 0.32437 0.24035 0.3952 0.0
C3150 C 0.33693 0.27898 0.4116 0.0
C3151 C 0.3263 0.26074 0.3897 0.0
C3152 C 0.32037 0.25583 0.37244 0.0
C3153 C 0.33905 0.26963 0.42138 0.0
C3154 C 0.33424 0.25542 0.41552 0.0
C3155 C 0.32793 0.25119 0.39976 0.0
C3156 C 0.33603 0.24494 0.42535 0.0
C3157 C 0.34689 0.27529 0.43763 0.0
C3158 C 0.34313 0.2383 0.41847 0.0
C3159 C 0.34514 0.22868 0.42778 0.0
C3160 C 0.34019 0.22556 0.44425 0.0
C3161 C 0.33288 0.23208 0.45098 0.0
C3162 C 0.33067 0.2415 0.44157 0.0
H3163 H 0.3536 0.28727 0.4378 0.0
H3164 H 0.33901 0.27212 0.44786 0.0
H3165 H 0.35386 0.27084 0.44012 0.0
H3166 H 0.34725 0.24067 0.40593 0.0
H3167 H 0.35053 0.22365 0.42201 0.0
H3168 H 0.66656 0.02137 0.38818 0.0
H3169 H 0.68208 0.04252 0.40569 0.0
H3170 H 0.71854 0.05036 0.37633 0.0
H3171 H 0.70323 0.02935 0.35889 0.0
H3172 H 0.70776 0.04812 0.42401 0.0
H3173 H 0.71874 0.08927 0.37659 0.0
H3174 H 0.70365 0.07103 0.37532 0.0
H3175 H 0.72116 0.0748 0.36951 0.0
C3176 C 0.67789 0.02761 0.38548 0.0
C3177 C 0.68368 0.02375 0.37213 0.0
C3178 C 0.68671 0.03966 0.39547 0.0
C3179 C 0.70139 0.04807 0.39211 0.0
C3180 C 0.7072 0.04412 0.37894 0.0
H3181 H 0.77597 0.10818 0.44594 0.0
H3182 H 0.75622 0.08751 0.43171 0.0
C3183 C 0.69844 0.03207 0.36904 0.0
C3184 C 0.71084 0.0609 0.40245 0.0
H3185 H 0.73394 0.09727 0.40031 0.0
C3186 C 0.71336 0.0589 0.41893 0.0
C3187 C 0.71799 0.07494 0.3958 0.0
C3188 C 0.71519 0.07773 0.37837 0.0
C3189 C 0.72339 0.07054 0.42872 0.0
C3190 C 0.73111 0.08446 0.42177 0.0
C3191 C 0.72809 0.08656 0.40554 0.0
C3192 C 0.74283 0.09685 0.43086 0.0
C3193 C 0.72576 0.06785 0.44637 0.0
C3194 C 0.74194 0.10907 0.4348 0.0
C3195 C 0.7532 0.1209 0.44303 0.0
C3196 C 0.7656 0.12077 0.44732 0.0
C3197 C 0.76647 0.10854 0.44314 0.0
C3198 C 0.7552 0.09671 0.43499 0.0
H3199 H 0.71659 0.05766 0.45112 0.0
H3200 H 0.73543 0.06695 0.4469 0.0
H3201 H 0.72748 0.07691 0.45467 0.0
H3202 H 0.73249 0.10939 0.43161 0.0
H3203 H 0.7521 0.13006 0.44622 0.0
H3204 H 0.98239 0.69343 0.35922 0.0
H3205 H 0.96299 0.69201 0.37626 0.0
H3206 H 0.95817 0.65446 0.40048 0.0
H3207 H 0.97752 0.65579 0.38359 0.0
H3208 H 0.93419 0.66767 0.378 0.0
H3209 H 0.96158 0.68206 0.43908 0.0
H3210 H 0.97115 0.68598 0.41964 0.0
H3211 H 0.96236 0.66801 0.42772 0.0
C3212 C 0.97726 0.68493 0.36825 0.0
C3213 C 0.98149 0.67474 0.37009 0.0
C3214 C 0.96619 0.68413 0.37794 0.0
C3215 C 0.95929 0.67322 0.38972 0.0
C3216 C 0.96352 0.66308 0.39163 0.0
H3217 H 0.87719 0.6405 0.43766 0.0
H3218 H 0.89771 0.64376 0.42143 0.0
C3219 C 0.97453 0.66383 0.38191 0.0
C3220 C 0.94729 0.67209 0.39963 0.0
H3221 H 0.93663 0.67311 0.4393 0.0
C3222 C 0.93473 0.66893 0.39139 0.0
C3223 C 0.9481 0.67385 0.41707 0.0
C3224 C 0.96155 0.67779 0.42644 0.0
C3225 C 0.9228 0.66716 0.4002 0.0
C3226 C 0.92346 0.66849 0.41769 0.0
C3227 C 0.93614 0.67197 0.4259 0.0
C3228 C 0.91113 0.66643 0.42768 0.0
C3229 C 0.90961 0.664 0.39075 0.0
C3230 C 0.91204 0.67802 0.43682 0.0
C3231 C 0.90038 0.67618 0.44615 0.0
C3232 C 0.88765 0.66267 0.4466 0.0
C3233 C 0.88688 0.65101 0.43763 0.0
C3234 C 0.89852 0.65288 0.42824 0.0
H3235 H 0.9119 0.66651 0.37738 0.0
H3236 H 0.90145 0.65237 0.39181 0.0
H3237 H 0.905 0.67031 0.39598 0.0
H3238 H 0.92173 0.68853 0.43663 0.0
H3239 H 0.90137 0.68531 0.45312 0.0
H3240 H 0.35628 0.99515 0.7128 0.0
H3241 H 0.37482 0.99582 0.73013 0.0
H3242 H 0.4067 0.03432 0.70552 0.0
H3243 H 0.3881 0.03388 0.68825 0.0
H3244 H 0.39799 0.99418 0.72019 0.0
H3245 H 0.41515 0.04554 0.75453 0.0
H3246 H 0.39885 0.03636 0.74262 0.0
H3247 H 0.41573 0.04701 0.73235 0.0
C3248 C 0.36722 0.00382 0.71111 0.0
C3249 C 0.37073 0.01448 0.69917 0.0
C3250 C 0.3778 0.00418 0.72103 0.0
C3251 C 0.39211 0.0152 0.71925 0.0
C3252 C 0.39568 0.02587 0.70732 0.0
H3253 H 0.46351 0.00983 0.75796 0.0
H3254 H 0.44656 0.01165 0.74005 0.0
C3255 C 0.38506 0.02555 0.6974 0.0
C3256 C 0.40323 0.01512 0.72956 0.0
H3257 H 0.42867 0.03435 0.75892 0.0
C3258 C 0.40471 0.00297 0.72864 0.0
C3259 C 0.41186 0.02653 0.74072 0.0
C3260 C 0.41028 0.03955 0.74278 0.0
C3261 C 0.4146 0.00189 0.73857 0.0
C3262 C 0.42344 0.01343 0.74947 0.0
C3263 C 0.42195 0.02558 0.75044 0.0
C3264 C 0.43405 0.0129 0.76029 0.0
C3265 C 0.41521 0.98825 0.73761 0.0
C3266 C 0.43288 0.01342 0.77759 0.0
C3267 C 0.44258 0.01242 0.78786 0.0
C3268 C 0.45364 0.01092 0.78098 0.0
C3269 C 0.45494 0.0107 0.76363 0.0
C3270 C 0.44528 0.01175 0.75338 0.0
H3271 H 0.40539 0.97915 0.73195 0.0
H3272 H 0.42444 0.99016 0.72982 0.0
H3273 H 0.41662 0.98501 0.75012 0.0
H3274 H 0.4243 0.01433 0.78316 0.0
H3275 H 0.44124 0.01253 0.80117 0.0
H3276 H 0.01628 0.35715 0.71728 0.0
H3277 H 0.01846 0.37514 0.73793 0.0
H3278 H 0.98473 0.37753 0.71365 0.0
H3279 H 0.98244 0.35962 0.69311 0.0
H3280 H 0.02469 0.40364 0.7318 0.0
H3281 H 0.97221 0.37094 0.76266 0.0
H3282 H 0.9801 0.36302 0.74979 0.0
H3283 H 0.97098 0.37107 0.74049 0.0
C3284 C 0.00928 0.36146 0.71643 0.0
C3285 C 0.99916 0.35696 0.70362 0.0
C3286 C 0.01054 0.37172 0.72821 0.0
C3287 C 0.0016 0.37748 0.72743 0.0
C3288 C 0.99153 0.373 0.71465 0.0
H3289 H 0.00842 0.45585 0.76191 0.0
H3290 H 0.00895 0.43632 0.74686 0.0
C3291 C 0.9903 0.36282 0.70286 0.0
C3292 C 0.00312 0.38865 0.7395 0.0
H3293 H 0.98428 0.39651 0.76736 0.0
C3294 C 0.01594 0.40204 0.73975 0.0
C3295 C 0.99175 0.38646 0.75 0.0
C3296 C 0.97803 0.37205 0.75088 0.0
C3297 C 0.01743 0.41354 0.74966 0.0
C3298 C 0.00574 0.41161 0.75938 0.0
C3299 C 0.99317 0.39801 0.75974 0.0
C3300 C 0.00607 0.42371 0.76869 0.0
C3301 C 0.03147 0.42769 0.74954 0.0
C3302 C 0.004 0.42296 0.78592 0.0
C3303 C 0.00369 0.43412 0.79458 0.0
C3304 C 0.00533 0.44618 0.78612 0.0
C3305 C 0.00738 0.44685 0.76884 0.0
C3306 C 0.00771 0.43571 0.76022 0.0
H3307 H 0.04039 0.4262 0.74549 0.0
H3308 H 0.03078 0.43508 0.74072 0.0
H3309 H 0.03399 0.43292 0.76201 0.0
H3310 H 0.00265 0.41374 0.79267 0.0
H3311 H 0.00224 0.43334 0.8079 0.0
H3312 H 0.64005 0.62642 0.69013 0.0
H3313 H 0.61947 0.6109 0.70758 0.0
H3314 H 0.62538 0.64825 0.73488 0.0
H3315 H 0.64604 0.6639 0.71747 0.0
H3316 H 0.62044 0.62389 0.75483 0.0
H3317 H 0.58027 0.60873 0.70489 0.0
H3318 H 0.59497 0.60633 0.69966 0.0
H3319 H 0.59816 0.62418 0.70353 0.0
C3320 C 0.63699 0.63134 0.69987 0.0
C3321 C 0.6446 0.64639 0.70237 0.0
C3322 C 0.62521 0.62247 0.70977 0.0
C3323 C 0.62081 0.62847 0.72234 0.0
C3324 C 0.62858 0.64344 0.72516 0.0
H3325 H 0.53919 0.58324 0.77429 0.0
H3326 H 0.5604 0.60106 0.7591 0.0
C3327 C 0.64035 0.65235 0.71521 0.0
C3328 C 0.60807 0.61907 0.73249 0.0
H3329 H 0.57208 0.59571 0.72998 0.0
C3330 C 0.60984 0.61777 0.74945 0.0
C3331 C 0.59427 0.61127 0.72543 0.0
C3332 C 0.59171 0.61275 0.70741 0.0
C3333 C 0.59818 0.60853 0.75948 0.0
C3334 C 0.58446 0.60033 0.75228 0.0
C3335 C 0.58264 0.60194 0.73541 0.0
C3336 C 0.57187 0.58981 0.76195 0.0
C3337 C 0.6006 0.60764 0.77769 0.0
C3338 C 0.57129 0.57755 0.76844 0.0
C3339 C 0.55922 0.56737 0.7771 0.0
C3340 C 0.54749 0.56926 0.7794 0.0
C3341 C 0.54812 0.58157 0.77288 0.0
C3342 C 0.56018 0.59172 0.76415 0.0
H3343 H 0.61084 0.61707 0.78204 0.0
H3344 H 0.59174 0.60702 0.78524 0.0
H3345 H 0.60098 0.59773 0.77991 0.0
H3346 H 0.58013 0.57578 0.76666 0.0
H3347 H 0.55911 0.55806 0.7821 0.0
H3348 H 0.69409 0.71615 0.66267 0.0
H3349 H 0.69272 0.73452 0.64655 0.0
H3350 H 0.65783 0.70099 0.61814 0.0
H3351 H 0.65903 0.68264 0.63415 0.0
H3352 H 0.682 0.72571 0.59951 0.0
H3353 H 0.65731 0.74126 0.65027 0.0
H3354 H 0.67278 0.74012 0.65514 0.0
H3355 H 0.65633 0.72404 0.64976 0.0
C3356 C 0.68618 0.71271 0.65293 0.0
C3357 C 0.67663 0.69795 0.64972 0.0
C3358 C 0.68539 0.7232 0.64379 0.0
C3359 C 0.67511 0.71906 0.63126 0.0
C3360 C 0.66581 0.70437 0.62779 0.0
H3361 H 0.63921 0.76205 0.57939 0.0
H3362 H 0.64398 0.74603 0.59563 0.0
C3363 C 0.66651 0.69391 0.63697 0.0
C3364 C 0.67378 0.72995 0.62186 0.0
H3365 H 0.66131 0.75314 0.62483 0.0
C3366 C 0.6776 0.73182 0.60504 0.0
C3367 C 0.66786 0.73771 0.62912 0.0
C3368 C 0.66323 0.73571 0.64704 0.0
C3369 C 0.67559 0.74126 0.59522 0.0
C3370 C 0.66968 0.74904 0.60249 0.0
C3371 C 0.66591 0.74719 0.61934 0.0
C3372 C 0.66692 0.75883 0.59267 0.0
C3373 C 0.67942 0.74251 0.57705 0.0
C3374 C 0.67825 0.77137 0.58574 0.0
C3375 C 0.67556 0.78051 0.5764 0.0
C3376 C 0.66147 0.77728 0.57385 0.0
C3377 C 0.65015 0.76474 0.58093 0.0
C3378 C 0.65287 0.75564 0.59031 0.0
H3379 H 0.68102 0.73363 0.57267 0.0
H3380 H 0.67097 0.74243 0.56942 0.0
H3381 H 0.68951 0.7529 0.57498 0.0
H3382 H 0.68918 0.77411 0.5876 0.0
H3383 H 0.68451 0.79002 0.57101 0.0
H3384 H 0.2995 0.97643 0.65805 0.0
H3385 H 0.28374 0.95577 0.64044 0.0
H3386 H 0.32017 0.9606 0.61334 0.0
H3387 H 0.33612 0.98126 0.63117 0.0
H3388 H 0.28023 0.95464 0.60649 0.0
H3389 H 0.29876 0.9179 0.62634 0.0
H3390 H 0.30312 0.93423 0.63764 0.0
H3391 H 0.31249 0.93514 0.61884 0.0
C3392 C 0.30419 0.97311 0.64837 0.0
C3393 C 0.31905 0.98042 0.64603 0.0
C3394 C 0.29516 0.9613 0.63831 0.0
C3395 C 0.30079 0.95654 0.62574 0.0
C3396 C 0.31563 0.96393 0.62319 0.0
H3397 H 0.24628 0.89605 0.54839 0.0
H3398 H 0.26547 0.91691 0.56315 0.0
C3399 C 0.32471 0.97577 0.6333 0.0
C3400 C 0.29097 0.94396 0.61523 0.0
H3401 H 0.2813 0.90926 0.60521 0.0
C3402 C 0.2805 0.94473 0.60613 0.0
C3403 C 0.29127 0.93102 0.61497 0.0
C3404 C 0.30192 0.9294 0.62506 0.0
C3405 C 0.27021 0.93286 0.59687 0.0
C3406 C 0.2706 0.91996 0.59645 0.0
C3407 C 0.28112 0.91921 0.60546 0.0
C3408 C 0.25976 0.90697 0.58727 0.0
C3409 C 0.25874 0.93409 0.58809 0.0
C3410 C 0.25054 0.89427 0.59584 0.0
C3411 C 0.23961 0.88231 0.58743 0.0
C3412 C 0.23773 0.88286 0.57029 0.0
C3413 C 0.24731 0.89541 0.56165 0.0
C3414 C 0.25827 0.90733 0.57006 0.0
H3415 H 0.25793 0.94335 0.5929 0.0
H3416 H 0.26133 0.93579 0.57467 0.0
H3417 H 0.24817 0.92407 0.58943 0.0
H3418 H 0.25155 0.89377 0.60913 0.0
H3419 H 0.23236 0.87281 0.59443 0.0
H3420 H 0.01691 0.30735 0.65305 0.0
H3421 H 0.0366 0.30879 0.63654 0.0
H3422 H 0.05022 0.35263 0.62379 0.0
H3423 H 0.0306 0.3513 0.64011 0.0
H3424 H 0.04265 0.31738 0.60034 0.0
H3425 H 0.08622 0.35301 0.64414 0.0
H3426 H 0.06783 0.34197 0.65064 0.0
H3427 H 0.07344 0.35825 0.63942 0.0
C3428 C 0.02411 0.3173 0.64674 0.0
C3429 C 0.02224 0.32922 0.64791 0.0
C3430 C 0.03532 0.31809 0.63732 0.0
C3431 C 0.04489 0.33086 0.62912 0.0
C3432 C 0.04301 0.34274 0.63019 0.0
H3433 H 0.12145 0.36162 0.57014 0.0
H3434 H 0.10138 0.35883 0.5869 0.0
C3435 C 0.03176 0.34193 0.63948 0.0
C3436 C 0.0568 0.33179 0.61924 0.0
H3437 H 0.09312 0.34839 0.618 0.0
C3438 C 0.05369 0.32407 0.6042 0.0
C3439 C 0.07115 0.34062 0.62433 0.0
C3440 C 0.07495 0.34889 0.64056 0.0
C3441 C 0.06464 0.32521 0.59386 0.0
C3442 C 0.07904 0.33402 0.59896 0.0
C3443 C 0.0821 0.34165 0.6141 0.0
C3444 C 0.09111 0.33561 0.58873 0.0
C3445 C 0.0607 0.31734 0.57735 0.0
C3446 C 0.09209 0.32351 0.58438 0.0
C3447 C 0.1035 0.32507 0.57473 0.0
C3448 C 0.11425 0.33879 0.56948 0.0
C3449 C 0.11337 0.35092 0.57409 0.0
C3450 C 0.1019 0.34934 0.58362 0.0
H3451 H 0.04985 0.31455 0.57333 0.0
H3452 H 0.06848 0.32392 0.56758 0.0
H3453 H 0.06072 0.30712 0.57847 0.0
H3454 H 0.08411 0.31286 0.58856 0.0
H3455 H 0.10403 0.31556 0.57162 0.0
H3456 H 0.28431 0.30628 0.66178 0.0
H3457 H 0.26623 0.30736 0.64508 0.0
H3458 H 0.29928 0.34581 0.62149 0.0
H3459 H 0.3173 0.34496 0.63827 0.0
H3460 H 0.2771 0.3487 0.63235 0.0
H3461 H 0.25701 0.2978 0.59594 0.0
H3462 H 0.25643 0.29566 0.61803 0.0
H3463 H 0.27337 0.30583 0.60772 0.0
C3464 C 0.28771 0.31489 0.65294 0.0
C3465 C 0.30222 0.32553 0.65134 0.0
C3466 C 0.27738 0.31545 0.64335 0.0
C3467 C 0.28143 0.32658 0.63191 0.0
C3468 C 0.29592 0.33712 0.63022 0.0
H3469 H 0.23361 0.33414 0.55195 0.0
H3470 H 0.25006 0.33109 0.56941 0.0
C3471 C 0.30621 0.3366 0.63982 0.0
C3472 C 0.27063 0.32768 0.62207 0.0
H3473 H 0.24467 0.31035 0.59273 0.0
C3474 C 0.26999 0.34031 0.6237 0.0
C3475 C 0.26149 0.31679 0.61066 0.0
C3476 C 0.26215 0.3033 0.60782 0.0
C3477 C 0.26048 0.34236 0.61422 0.0
C3478 C 0.25114 0.33135 0.60305 0.0
C3479 C 0.25177 0.31872 0.6014 0.0
C3480 C 0.24094 0.33293 0.59259 0.0
C3481 C 0.26082 0.35647 0.61592 0.0
C3482 C 0.23025 0.3348 0.59984 0.0
C3483 C 0.22085 0.33657 0.58989 0.0
C3484 C 0.22188 0.33634 0.57251 0.0
C3485 C 0.23246 0.33424 0.56529 0.0
C3486 C 0.24189 0.33253 0.57525 0.0
H3487 H 0.27093 0.36506 0.62166 0.0
H3488 H 0.25959 0.36025 0.60366 0.0
H3489 H 0.25186 0.35493 0.62398 0.0
H3490 H 0.22913 0.33482 0.61319 0.0
H3491 H 0.21265 0.33791 0.59582 0.0
H3492 H 0.67828 0.97395 0.65554 0.0
H3493 H 0.67195 0.95311 0.63763 0.0
H3494 H 0.6394 0.95809 0.61427 0.0
H3495 H 0.64574 0.97917 0.63221 0.0
H3496 H 0.64426 0.92727 0.63518 0.0
H3497 H 0.66386 0.95602 0.57525 0.0
H3498 H 0.66952 0.9653 0.59504 0.0
H3499 H 0.65197 0.95946 0.58739 0.0
C3500 C 0.6698 0.97069 0.64656 0.0
C3501 C 0.66251 0.9782 0.64526 0.0
C3502 C 0.66619 0.95875 0.63636 0.0
C3503 C 0.65527 0.95413 0.6246 0.0
C3504 C 0.64796 0.96161 0.62318 0.0
H3505 H 0.62381 0.87032 0.57384 0.0
H3506 H 0.62407 0.89059 0.58832 0.0
C3507 C 0.65157 0.9736 0.63344 0.0
C3508 C 0.65156 0.94131 0.61414 0.0
H3509 H 0.6547 0.93097 0.57486 0.0
C3510 C 0.64635 0.928 0.62194 0.0
C3511 C 0.65442 0.94239 0.59693 0.0
C3512 C 0.66033 0.95655 0.58807 0.0
C3513 C 0.64431 0.9158 0.61308 0.0
C3514 C 0.64743 0.91694 0.59593 0.0
C3515 C 0.65226 0.93015 0.58801 0.0
C3516 C 0.64694 0.9049 0.58634 0.0
C3517 C 0.63948 0.90197 0.62228 0.0
C3518 C 0.65966 0.90639 0.58012 0.0
C3519 C 0.65954 0.89489 0.57181 0.0
C3520 C 0.64668 0.8817 0.56948 0.0
C3521 C 0.63388 0.88035 0.5754 0.0
C3522 C 0.63402 0.89188 0.58376 0.0
H3523 H 0.63996 0.90363 0.63594 0.0
H3524 H 0.62827 0.89397 0.61885 0.0
H3525 H 0.64617 0.89731 0.61882 0.0
H3526 H 0.66973 0.91638 0.58195 0.0
H3527 H 0.66953 0.89636 0.56713 0.0
H3528 H 0.02508 0.70862 0.65826 0.0
H3529 H 0.04619 0.72466 0.64195 0.0
H3530 H 0.04709 0.68788 0.62181 0.0
H3531 H 0.02565 0.67169 0.63782 0.0
H3532 H 0.07257 0.72823 0.64369 0.0
H3533 H 0.05055 0.70997 0.58024 0.0
H3534 H 0.03933 0.70495 0.59843 0.0
H3535 H 0.04884 0.69587 0.59332 0.0
C3536 C 0.02968 0.70392 0.65025 0.0
C3537 C 0.02369 0.68889 0.64926 0.0
C3538 C 0.04176 0.71311 0.64095 0.0
C3539 C 0.04814 0.70748 0.63052 0.0
C3540 C 0.04218 0.69246 0.6295 0.0
H3541 H 0.12629 0.75385 0.57112 0.0
H3542 H 0.106 0.73513 0.58686 0.0
C3543 C 0.02998 0.68322 0.63872 0.0
C3544 C 0.0613 0.71747 0.62125 0.0
H3545 H 0.07525 0.72728 0.58228 0.0
C3546 C 0.07315 0.728 0.63026 0.0
C3547 C 0.06205 0.71713 0.60372 0.0
C3548 C 0.04949 0.70647 0.59332 0.0
C3549 C 0.08567 0.73828 0.62224 0.0
C3550 C 0.08633 0.73805 0.60476 0.0
C3551 C 0.07466 0.72735 0.59571 0.0
C3552 C 0.09878 0.74935 0.59562 0.0
C3553 C 0.0981 0.74938 0.63247 0.0
C3554 C 0.10134 0.76346 0.59535 0.0
C3555 C 0.11284 0.77411 0.58637 0.0
C3556 C 0.122 0.77084 0.57754 0.0
C3557 C 0.11948 0.7567 0.57796 0.0
C3558 C 0.10788 0.746 0.58684 0.0
H3559 H 0.09702 0.74633 0.64572 0.0
H3560 H 0.10831 0.75085 0.62759 0.0
H3561 H 0.09866 0.75991 0.63173 0.0
H3562 H 0.09434 0.7662 0.60197 0.0
H3563 H 0.11457 0.78493 0.58635 0.0
H3564 H 0.96978 0.61865 0.68759 0.0
H3565 H 0.96936 0.59939 0.70374 0.0
H3566 H 0.00628 0.63113 0.73116 0.0
H3567 H 0.00693 0.65034 0.71496 0.0
H3568 H 0.00899 0.60861 0.71975 0.0
H3569 H 0.95697 0.58833 0.75183 0.0
H3570 H 0.95616 0.58874 0.72963 0.0
H3571 H 0.96598 0.60536 0.74121 0.0
C3572 C 0.97774 0.62152 0.69714 0.0
C3573 C 0.98838 0.63601 0.70001 0.0
C3574 C 0.97744 0.61051 0.70641 0.0
C3575 C 0.98769 0.61385 0.71878 0.0
C3576 C 0.99825 0.62832 0.7217 0.0
H3577 H 0.99012 0.56245 0.79804 0.0
H3578 H 0.98796 0.57954 0.7806 0.0
C3579 C 0.99859 0.63928 0.71243 0.0
C3580 C 0.98786 0.60232 0.72835 0.0
H3581 H 0.96862 0.57518 0.75569 0.0
C3582 C 1.00015 0.60128 0.72759 0.0
C3583 C 0.97637 0.59287 0.73868 0.0
C3584 C 0.96316 0.59391 0.74056 0.0
C3585 C 0.00131 0.59108 0.73692 0.0
C3586 C 0.98974 0.58147 0.74705 0.0
C3587 C 0.97743 0.58248 0.7478 0.0
C3588 C 0.99045 0.57066 0.75744 0.0
C3589 C 0.01509 0.59099 0.73624 0.0
C3590 C 0.99232 0.55984 0.75019 0.0
C3591 C 0.99357 0.55006 0.76012 0.0
C3592 C 0.99284 0.55084 0.7775 0.0
C3593 C 0.99061 0.56148 0.7847 0.0
C3594 C 0.98941 0.57128 0.77475 0.0
H3595 H 0.02402 0.60123 0.73123 0.0
H3596 H 0.01812 0.5893 0.74873 0.0
H3597 H 0.01367 0.58202 0.72799 0.0
H3598 H 0.99284 0.55898 0.73683 0.0
H3599 H 0.99503 0.54183 0.7542 0.0
H3600 H 0.37176 0.35992 0.69851 0.0
H3601 H 0.38655 0.38058 0.71671 0.0
H3602 H 0.34883 0.37908 0.73595 0.0
H3603 H 0.33387 0.3583 0.71776 0.0
H3604 H 0.37162 0.40715 0.72472 0.0
H3605 H 0.39054 0.3812 0.76821 0.0
H3606 H 0.39225 0.37795 0.74662 0.0
H3607 H 0.3748 0.371 0.7555 0.0
C3608 C 0.36658 0.3639 0.70671 0.0
C3609 C 0.35166 0.35749 0.70673 0.0
C3610 C 0.37505 0.37566 0.71715 0.0
C3611 C 0.36875 0.38124 0.72776 0.0
C3612 C 0.35385 0.37485 0.72789 0.0
H3613 H 0.41734 0.44855 0.80213 0.0
H3614 H 0.39846 0.42693 0.788 0.0
C3615 C 0.34535 0.36299 0.71753 0.0
C3616 C 0.37786 0.39418 0.7381 0.0
H3617 H 0.40291 0.40692 0.7688 0.0
C3618 C 0.37836 0.40709 0.73448 0.0
C3619 C 0.38652 0.394 0.7509 0.0
C3620 C 0.38596 0.38028 0.75569 0.0
C3621 C 0.38773 0.42 0.74294 0.0
C3622 C 0.39686 0.41995 0.75521 0.0
C3623 C 0.39596 0.40692 0.75928 0.0
C3624 C 0.40779 0.43339 0.76359 0.0
C3625 C 0.38788 0.43361 0.73861 0.0
C3626 C 0.41927 0.44413 0.75451 0.0
C3627 C 0.43006 0.45646 0.76253 0.0
C3628 C 0.42954 0.45827 0.77977 0.0
C3629 C 0.41792 0.44755 0.7888 0.0
C3630 C 0.40719 0.43518 0.78078 0.0
H3631 H 0.37797 0.43121 0.73206 0.0
H3632 H 0.3891 0.44015 0.74992 0.0
H3633 H 0.39708 0.44021 0.73031 0.0
H3634 H 0.42003 0.44285 0.74126 0.0
H3635 H 0.43883 0.46457 0.75524 0.0
H3636 H 0.65405 0.03496 0.69317 0.0
H3637 H 0.63682 0.03624 0.71178 0.0
H3638 H 0.62336 0.99365 0.72958 0.0
H3639 H 0.64068 0.99241 0.71137 0.0
H3640 H 0.60776 0.01882 0.71262 0.0
H3641 H 0.63062 0.01619 0.77254 0.0
H3642 H 0.6403 0.01978 0.75324 0.0
H3643 H 0.62724 0.00155 0.75879 0.0
C3644 C 0.64749 0.02592 0.70115 0.0
C3645 C 0.64877 0.01362 0.70088 0.0
C3646 C 0.63766 0.02667 0.71176 0.0
C3647 C 0.629 0.01516 0.72229 0.0
C3648 C 0.63019 0.00282 0.72189 0.0
H3649 H 0.55406 0.98742 0.78197 0.0
H3650 H 0.57371 0.9899 0.76454 0.0
C3651 C 0.64003 0.0021 0.71139 0.0
C3652 C 0.61828 0.01569 0.7332 0.0
H3653 H 0.60662 0.01149 0.77333 0.0
C3654 C 0.60762 0.01741 0.72592 0.0
C3655 C 0.61814 0.0139 0.75057 0.0
C3656 C 0.62978 0.0129 0.75927 0.0
C3657 C 0.59653 0.01685 0.73547 0.0
C3658 C 0.59614 0.01453 0.75269 0.0
C3659 C 0.60694 0.01315 0.76007 0.0
C3660 C 0.58437 0.01315 0.76319 0.0
C3661 C 0.58505 0.01833 0.72713 0.0
C3662 C 0.58401 0.02544 0.76821 0.0
C3663 C 0.57284 0.02407 0.77819 0.0
C3664 C 0.56185 0.01037 0.78321 0.0
C3665 C 0.5623 0.99809 0.77815 0.0
C3666 C 0.57352 0.99949 0.76828 0.0
H3667 H 0.58629 0.01898 0.71343 0.0
H3668 H 0.57436 0.00899 0.73023 0.0
H3669 H 0.58543 0.02824 0.73181 0.0
H3670 H 0.59235 0.03607 0.7644 0.0
H3671 H 0.5727 0.03371 0.78178 0.0
loop_
_geom_bond_atom_site_label_1
_geom_bond_atom_site_label_2
_geom_bond_distance
_geom_bond_site_symmetry_2
_ccdc_geom_bond_type
Co0 O1 2.216 . S
Co0 O2 2.091 . S
Co0 O4 2.004 1_554 S
Co0 O10 2.021 . S
Co0 O12 2.137 1_454 S
Co0 O13 2.244 1_455 S
O1 Co0 2.216 . S
O1 C8 1.247 . S
O2 Co0 2.091 . S
O2 C8 1.261 . S
C3 O12 1.247 . S
C3 O13 1.272 1_556 S
O4 Co0 2.004 1_556 S
O4 C9 1.259 . S
Co5 O6 2.061 1_554 S
Co5 O11 2.052 . S
Co5 O13 2.135 . S
O6 Co5 2.061 1_556 S
O6 C9 1.235 1_655 S
C7 O10 1.238 1_655 S
C7 O11 1.241 . S
C8 O1 1.247 . S
C8 O2 1.261 . S
C9 O4 1.259 . S
C9 O6 1.235 1_455 S
O10 Co0 2.021 . S
O10 C7 1.238 1_455 S
O11 Co5 2.052 . S
O11 C7 1.241 . S
O12 Co0 2.137 1_656 S
O12 C3 1.247 . S
O13 Co0 2.244 1_655 S
O13 C3 1.272 1_554 S
O13 Co5 2.135 . S
Co14 O15 2.216 1_554 S
Co14 O16 2.091 . S
Co14 O18 2.004 . S
Co14 O24 2.021 1_554 S
Co14 O26 2.137 . S
Co14 O27 2.244 . S
O15 Co14 2.216 1_556 S
O15 C22 1.247 . S
O16 Co14 2.091 . S
O16 C22 1.261 1_554 S
C17 O26 1.247 . S
C17 O27 1.272 . S
O18 Co14 2.004 . S
O18 C23 1.259 . S
Co19 O20 2.061 . S
Co19 O25 2.052 1_554 S
Co19 O27 2.135 . S
O20 Co19 2.061 . S
O20 C23 1.235 . S
C21 O24 1.238 . S
C21 O25 1.241 . S
C22 O15 1.247 . S
C22 O16 1.261 1_556 S
C23 O18 1.259 . S
C23 O20 1.235 . S
O24 Co14 2.021 1_556 S
O24 C21 1.238 . S
O25 Co19 2.052 1_556 S
O25 C21 1.241 . S
O26 Co14 2.137 . S
O26 C17 1.247 . S
O27 Co14 2.244 . S
O27 C17 1.272 . S
O27 Co19 2.135 . S
Co28 O29 2.216 1_554 S
Co28 O30 2.091 . S
Co28 O32 2.004 . S
Co28 O38 2.021 1_554 S
Co28 O40 2.137 . S
Co28 O41 2.244 1_545 S
O29 Co28 2.216 1_556 S
O29 C36 1.247 . S
O30 Co28 2.091 . S
O30 C36 1.261 1_554 S
C31 O40 1.247 1_565 S
C31 O41 1.272 . S
O32 Co28 2.004 . S
O32 C37 1.259 . S
Co33 O34 2.061 . S
Co33 O39 2.052 1_554 S
Co33 O41 2.135 . S
O34 Co33 2.061 . S
O34 C37 1.235 1_565 S
C35 O38 1.231 1_565 S
C35 O39 1.248 . S
C36 O29 1.247 . S
C36 O30 1.261 1_556 S
C37 O32 1.259 . S
C37 O34 1.235 1_545 S
O38 Co28 2.021 1_556 S
O38 C35 1.231 1_545 S
O39 Co33 2.052 1_556 S
O39 C35 1.248 . S
O40 Co28 2.137 . S
O40 C31 1.247 1_545 S
O41 Co28 2.244 1_565 S
O41 C31 1.272 . S
O41 Co33 2.135 . S
Co42 O43 2.216 1_554 S
Co42 O44 2.091 . S
Co42 O46 2.004 . S
Co42 O52 2.021 1_554 S
Co42 O54 2.137 1_655 S
Co42 O55 2.244 1_655 S
O43 Co42 2.216 1_556 S
O43 C50 1.247 . S
O44 Co42 2.091 . S
O44 C50 1.261 1_554 S
C45 O54 1.247 . S
C45 O55 1.272 . S
O46 Co42 2.004 . S
O46 C51 1.295 . S
Co47 O48 2.061 . S
Co47 O53 2.052 1_554 S
Co47 O55 2.135 . S
O48 Co47 2.061 . S
O48 C51 1.198 1_455 S
C49 O52 1.238 1_455 S
C49 O53 1.241 . S
C50 O43 1.247 . S
C50 O44 1.261 1_556 S
C51 O46 1.295 . S
C51 O48 1.198 1_655 S
O52 Co42 2.021 1_556 S
O52 C49 1.238 1_655 S
O53 Co47 2.052 1_556 S
O53 C49 1.241 . S
O54 Co42 2.137 1_455 S
O54 C45 1.247 . S
O55 Co42 2.244 1_455 S
O55 C45 1.272 . S
O55 Co47 2.135 . S
Co56 O57 2.216 . S
Co56 O58 2.091 . S
Co56 O60 2.004 1_554 S
Co56 O66 2.021 . S
Co56 O68 2.137 1_554 S
Co56 O69 2.249 . S
O57 Co56 2.216 . S
O57 C64 1.247 . S
O58 Co56 2.091 . S
O58 C64 1.261 . S
C59 O68 1.247 . S
C59 O69 1.260 1_556 S
O60 Co56 2.004 1_556 S
O60 C65 1.259 . S
Co61 O62 2.098 . S
Co61 O67 1.990 1_556 S
Co61 O69 2.132 1_556 S
O62 Co61 2.098 . S
O62 C65 1.235 . S
C63 O66 1.238 . S
C63 O67 1.241 . S
C64 O57 1.247 . S
C64 O58 1.261 . S
C65 O60 1.259 . S
C65 O62 1.235 . S
O66 Co56 2.021 . S
O66 C63 1.238 . S
O67 Co61 1.990 1_554 S
O67 C63 1.241 . S
O68 Co56 2.137 1_556 S
O68 C59 1.247 . S
O69 Co56 2.249 . S
O69 C59 1.260 1_554 S
O69 Co61 2.132 1_554 S
Co70 O71 2.216 . S
Co70 O72 2.091 . S
Co70 O74 2.004 1_554 S
Co70 O80 2.021 . S
Co70 O82 2.137 1_564 S
Co70 O83 2.244 1_565 S
O71 Co70 2.216 . S
O71 C78 1.247 . S
O72 Co70 2.091 . S
O72 C78 1.261 . S
C73 O82 1.247 . S
C73 O83 1.272 1_556 S
O74 Co70 2.004 1_556 S
O74 C79 1.295 . S
Co75 O76 2.061 1_554 S
Co75 O81 2.052 . S
Co75 O83 2.135 . S
O76 Co75 2.061 1_556 S
O76 C79 1.199 1_545 S
C77 O80 1.238 1_545 S
C77 O81 1.241 . S
C78 O71 1.247 . S
C78 O72 1.261 . S
C79 O74 1.295 . S
C79 O76 1.199 1_565 S
O80 Co70 2.021 . S
O80 C77 1.238 1_565 S
O81 Co75 2.052 . S
O81 C77 1.241 . S
O82 Co70 2.137 1_546 S
O82 C73 1.247 . S
O83 Co70 2.244 1_545 S
O83 C73 1.272 1_554 S
O83 Co75 2.135 . S
Co84 O85 2.216 . S
Co84 O86 2.091 . S
Co84 O88 2.004 . S
Co84 O94 2.021 . S
Co84 O96 2.137 . S
Co84 O97 2.244 . S
O85 Co84 2.216 . S
O85 C92 1.247 . S
O86 Co84 2.091 . S
O86 C92 1.261 . S
C87 O96 1.247 . S
C87 O97 1.272 . S
O88 Co84 2.004 . S
O88 C93 1.259 . S
Co89 O90 2.061 . S
Co89 O95 2.052 . S
Co89 O97 2.135 . S
O90 Co89 2.061 . S
O90 C93 1.235 . S
C91 O94 1.238 . S
C91 O95 1.241 . S
C92 O85 1.247 . S
C92 O86 1.261 . S
C93 O88 1.259 . S
C93 O90 1.235 . S
O94 Co84 2.021 . S
O94 C91 1.238 . S
O95 Co89 2.052 . S
O95 C91 1.241 . S
O96 Co84 2.137 . S
O96 C87 1.247 . S
O97 Co84 2.244 . S
O97 C87 1.272 . S
O97 Co89 2.135 . S
Co98 O99 2.216 . S
Co98 O100 2.091 . S
Co98 O102 2.004 . S
Co98 O108 2.021 . S
Co98 O110 2.137 1_565 S
Co98 O111 2.248 . S
O99 Co98 2.216 . S
O99 C106 1.247 . S
O100 Co98 2.091 . S
O100 C106 1.261 . S
C101 O110 1.247 . S
C101 O111 1.271 1_545 S
O102 Co98 2.004 . S
O102 C107 1.259 . S
Co103 O104 2.061 . S
Co103 O109 2.052 . S
Co103 O111 2.135 . S
O104 Co103 2.061 . S
O104 C107 1.235 . S
C105 O108 1.238 . S
C105 O109 1.241 . S
C106 O99 1.247 . S
C106 O100 1.261 . S
C107 O102 1.259 . S
C107 O104 1.235 . S
O108 Co98 2.021 . S
O108 C105 1.238 . S
O109 Co103 2.052 . S
O109 C105 1.241 . S
O110 Co98 2.137 1_545 S
O110 C101 1.247 . S
O111 Co98 2.248 . S
O111 C101 1.271 1_565 S
O111 Co103 2.135 . S
Co112 O113 2.216 . S
Co112 O114 2.091 . S
Co112 O116 2.004 . S
Co112 O122 2.021 . S
Co112 O124 2.137 . S
Co112 O125 2.244 . S
O113 Co112 2.216 . S
O113 C120 1.247 . S
O114 Co112 2.091 . S
O114 C120 1.261 . S
C115 O124 1.247 1_655 S
C115 O125 1.272 1_655 S
O116 Co112 2.004 . S
O116 C121 1.259 . S
Co117 O118 2.061 . S
Co117 O123 2.052 . S
Co117 O125 2.135 . S
O118 Co117 2.061 . S
O118 C121 1.235 . S
C119 O122 1.238 . S
C119 O123 1.241 . S
C120 O113 1.247 . S
C120 O114 1.261 . S
C121 O116 1.259 . S
C121 O118 1.235 . S
O122 Co112 2.021 . S
O122 C119 1.238 . S
O123 Co117 2.052 . S
O123 C119 1.241 . S
O124 Co112 2.137 . S
O124 C115 1.247 1_455 S
O125 Co112 2.244 . S
O125 C115 1.272 1_455 S
O125 Co117 2.135 . S
Co126 O127 2.216 . S
Co126 O128 2.091 . S
Co126 O130 2.004 . S
Co126 O136 2.021 . S
Co126 O138 2.137 1_565 S
Co126 O139 2.251 . S
O127 Co126 2.216 . S
O127 C134 1.247 . S
O128 Co126 2.091 . S
O128 C134 1.261 . S
C129 O138 1.247 . S
C129 O139 1.236 1_545 S
O130 Co126 2.004 . S
O130 C135 1.259 . S
Co131 O132 2.061 . S
Co131 O137 2.052 . S
Co131 O139 2.176 . S
O132 Co131 2.061 . S
O132 C135 1.235 . S
C133 O136 1.238 . S
C133 O137 1.241 . S
C134 O127 1.247 . S
C134 O128 1.261 . S
C135 O130 1.259 . S
C135 O132 1.235 . S
O136 Co126 2.021 . S
O136 C133 1.238 . S
O137 Co131 2.052 . S
O137 C133 1.241 . S
O138 Co126 2.137 1_545 S
O138 C129 1.247 . S
O139 Co126 2.251 . S
O139 C129 1.236 1_565 S
O139 Co131 2.176 . S
Co140 O141 2.216 1_455 S
Co140 O142 2.091 1_455 S
Co140 O144 2.004 . S
Co140 O150 2.021 . S
Co140 O152 2.138 1_455 S
Co140 O153 2.244 . S
O141 Co140 2.216 1_655 S
O141 C148 1.247 . S
O142 Co140 2.091 1_655 S
O142 C148 1.261 . S
C143 O152 1.258 1_455 S
C143 O153 1.272 . S
O144 Co140 2.004 . S
O144 C149 1.259 . S
Co145 O146 2.061 . S
Co145 O151 2.052 . S
Co145 O153 2.135 . S
O146 Co145 2.061 . S
O146 C149 1.235 . S
C147 O150 1.238 . S
C147 O151 1.241 . S
C148 O141 1.247 . S
C148 O142 1.261 . S
C149 O144 1.259 . S
C149 O146 1.235 . S
O150 Co140 2.021 . S
O150 C147 1.238 . S
O151 Co145 2.052 . S
O151 C147 1.241 . S
O152 Co140 2.138 1_655 S
O152 C143 1.258 1_655 S
O153 Co140 2.244 . S
O153 C143 1.272 . S
O153 Co145 2.135 . S
Co154 O155 2.216 . S
Co154 O156 2.091 . S
Co154 O158 2.004 . S
Co154 O164 2.021 . S
Co154 O166 2.137 . S
Co154 O167 2.244 . S
O155 Co154 2.216 . S
O155 C162 1.247 . S
O156 Co154 2.091 . S
O156 C162 1.261 . S
C157 O166 1.247 . S
C157 O167 1.272 . S
O158 Co154 2.004 . S
O158 C163 1.259 . S
Co159 O160 2.061 . S
Co159 O165 2.052 . S
Co159 O167 2.135 . S
O160 Co159 2.061 . S
O160 C163 1.235 . S
C161 O164 1.238 . S
C161 O165 1.241 . S
C162 O155 1.247 . S
C162 O156 1.261 . S
C163 O158 1.259 . S
C163 O160 1.235 . S
O164 Co154 2.021 . S
O164 C161 1.238 . S
O165 Co159 2.052 . S
O165 C161 1.241 . S
O166 Co154 2.137 . S
O166 C157 1.247 . S
O167 Co154 2.244 . S
O167 C157 1.272 . S
O167 Co159 2.135 . S
Co168 O169 2.216 . S
Co168 O170 2.091 . S
Co168 O172 2.004 . S
Co168 O178 2.021 . S
Co168 O180 2.163 . S
Co168 O181 2.244 . S
O169 Co168 2.216 . S
O169 C176 1.247 . S
O170 Co168 2.091 . S
O170 C176 1.261 . S
C171 O180 1.256 1_565 S
C171 O181 1.272 1_565 S
O172 Co168 2.004 . S
O172 C177 1.259 . S
Co173 O174 2.061 . S
Co173 O179 2.052 . S
Co173 O181 2.135 . S
O174 Co173 2.061 . S
O174 C177 1.235 . S
C175 O178 1.238 . S
C175 O179 1.241 . S
C176 O169 1.247 . S
C176 O170 1.261 . S
C177 O172 1.259 . S
C177 O174 1.235 . S
O178 Co168 2.021 . S
O178 C175 1.238 . S
O179 Co173 2.052 . S
O179 C175 1.241 . S
O180 Co168 2.163 . S
O180 C171 1.256 1_545 S
O181 Co168 2.244 . S
O181 C171 1.272 1_545 S
O181 Co173 2.135 . S
Co182 O183 2.216 1_655 S
Co182 O184 2.091 1_655 S
Co182 O186 2.004 . S
Co182 O192 2.021 . S
Co182 O194 2.137 1_655 S
Co182 O195 2.244 . S
O183 Co182 2.216 1_455 S
O183 C190 1.247 . S
O184 Co182 2.091 1_455 S
O184 C190 1.261 . S
C185 O194 1.247 1_655 S
C185 O195 1.272 . S
O186 Co182 2.004 . S
O186 C191 1.259 . S
Co187 O188 2.061 . S
Co187 O193 2.052 . S
Co187 O195 2.135 . S
O188 Co187 2.061 . S
O188 C191 1.235 . S
C189 O192 1.238 . S
C189 O193 1.241 . S
C190 O183 1.247 . S
C190 O184 1.261 . S
C191 O186 1.259 . S
C191 O188 1.235 . S
O192 Co182 2.021 . S
O192 C189 1.238 . S
O193 Co187 2.052 . S
O193 C189 1.241 . S
O194 Co182 2.137 1_455 S
O194 C185 1.247 1_455 S
O195 Co182 2.244 . S
O195 C185 1.272 . S
O195 Co187 2.135 . S
Co196 O197 2.216 . S
Co196 O198 2.091 . S
Co196 O200 2.004 . S
Co196 O206 2.021 . S
Co196 O208 2.137 . S
Co196 O209 2.244 . S
O197 Co196 2.216 . S
O197 C204 1.247 . S
O198 Co196 2.091 . S
O198 C204 1.261 . S
C199 O208 1.247 . S
C199 O209 1.272 . S
O200 Co196 2.004 . S
O200 C205 1.259 . S
Co201 O202 2.061 . S
Co201 O207 2.052 . S
Co201 O209 2.135 . S
O202 Co201 2.061 . S
O202 C205 1.235 . S
C203 O206 1.238 . S
C203 O207 1.241 . S
C204 O197 1.247 . S
C204 O198 1.261 . S
C205 O200 1.259 . S
C205 O202 1.235 . S
O206 Co196 2.021 . S
O206 C203 1.238 . S
O207 Co201 2.052 . S
O207 C203 1.241 . S
O208 Co196 2.137 . S
O208 C199 1.247 . S
O209 Co196 2.244 . S
O209 C199 1.272 . S
O209 Co201 2.135 . S
Co210 O211 2.216 . S
Co210 O212 2.091 . S
Co210 O214 2.004 . S
Co210 O220 2.021 . S
Co210 O222 2.137 . S
Co210 O223 2.244 . S
O211 Co210 2.216 . S
O211 C218 1.247 . S
O212 Co210 2.091 . S
O212 C218 1.261 . S
C213 O222 1.247 . S
C213 O223 1.272 . S
O214 Co210 2.004 . S
O214 C219 1.259 . S
Co215 O216 2.061 . S
Co215 O221 2.052 . S
Co215 O223 2.135 . S
O216 Co215 2.061 . S
O216 C219 1.235 . S
C217 O220 1.238 . S
C217 O221 1.241 . S
C218 O211 1.247 . S
C218 O212 1.261 . S
C219 O214 1.259 . S
C219 O216 1.235 . S
O220 Co210 2.021 . S
O220 C217 1.238 . S
O221 Co215 2.052 . S
O221 C217 1.241 . S
O222 Co210 2.137 . S
O222 C213 1.247 . S
O223 Co210 2.244 . S
O223 C213 1.272 . S
O223 Co215 2.135 . S
Co224 O225 2.216 . S
Co224 O226 2.091 . S
Co224 O228 2.004 . S
Co224 O234 2.021 . S
Co224 O236 2.141 . S
Co224 O237 2.244 . S
O225 Co224 2.216 . S
O225 C232 1.247 . S
O226 Co224 2.091 . S
O226 C232 1.261 . S
C227 O236 1.242 1_565 S
C227 O237 1.272 1_565 S
O228 Co224 2.004 . S
O228 C233 1.259 . S
Co229 O230 2.061 . S
Co229 O235 2.052 . S
Co229 O237 2.135 . S
O230 Co229 2.061 . S
O230 C233 1.235 . S
C231 O234 1.238 . S
C231 O235 1.241 . S
C232 O225 1.247 . S
C232 O226 1.261 . S
C233 O228 1.259 . S
C233 O230 1.235 . S
O234 Co224 2.021 . S
O234 C231 1.238 . S
O235 Co229 2.052 . S
O235 C231 1.241 . S
O236 Co224 2.141 . S
O236 C227 1.242 1_545 S
O237 Co224 2.244 . S
O237 C227 1.272 1_545 S
O237 Co229 2.135 . S
Co238 O239 2.216 . S
Co238 O240 2.091 . S
Co238 O242 2.004 . S
Co238 O248 2.021 . S
Co238 O250 2.169 . S
Co238 O251 2.244 . S
O239 Co238 2.216 . S
O239 C246 1.247 . S
O240 Co238 2.091 . S
O240 C246 1.261 . S
C241 O250 1.257 1_455 S
C241 O251 1.272 1_455 S
O242 Co238 2.004 . S
O242 C247 1.259 . S
Co243 O244 2.061 . S
Co243 O249 2.052 . S
Co243 O251 2.135 . S
O244 Co243 2.061 . S
O244 C247 1.235 . S
C245 O248 1.238 . S
C245 O249 1.241 . S
C246 O239 1.247 . S
C246 O240 1.261 . S
C247 O242 1.259 . S
C247 O244 1.235 . S
O248 Co238 2.021 . S
O248 C245 1.238 . S
O249 Co243 2.052 . S
O249 C245 1.241 . S
O250 Co238 2.169 . S
O250 C241 1.257 1_655 S
O251 Co238 2.244 . S
O251 C241 1.272 1_655 S
O251 Co243 2.135 . S
C252 C253 1.384 . S
C252 C254 1.384 . S
C252 H280 0.931 . S
C253 C252 1.384 . S
C253 C256 1.382 . S
C254 C252 1.384 . S
C254 C255 1.381 . S
C254 H281 0.930 . S
C255 C254 1.381 . S
C255 C257 1.381 . S
C255 C258 1.487 . S
C256 C253 1.382 . S
C256 C257 1.387 . S
C256 H282 0.930 . S
C257 C255 1.381 . S
C257 C256 1.387 . S
C257 H283 0.931 . S
C258 C255 1.487 . S
C258 C265 1.399 . S
C258 N296 1.343 . S
C259 C260 1.384 . S
C259 C261 1.384 . S
C259 H284 0.931 . S
C260 C259 1.384 . S
C260 C263 1.382 . S
C261 C259 1.384 . S
C261 C262 1.381 . S
C261 H285 0.930 . S
C262 C261 1.381 . S
C262 C264 1.381 . S
C262 C265 1.487 . S
C263 C260 1.382 . S
C263 C264 1.387 . S
C263 H286 0.930 . S
C264 C262 1.381 . S
C264 C263 1.387 . S
C264 H287 0.931 . S
C265 C258 1.399 . S
C265 C262 1.487 . S
C265 N297 1.343 . S
C266 C267 1.384 . S
C266 C268 1.384 . S
C266 H288 0.931 . S
C267 C266 1.384 . S
C267 C270 1.382 . S
C268 C266 1.384 . S
C268 C269 1.381 . S
C268 H289 0.930 . S
C269 C268 1.381 . S
C269 C271 1.381 . S
C269 C272 1.487 . S
C270 C267 1.382 . S
C270 C271 1.387 . S
C270 H290 0.930 . S
C271 C269 1.381 . S
C271 C270 1.387 . S
C271 H291 0.931 . S
C272 C269 1.487 . S
C272 C279 1.399 . S
C272 N297 1.343 . S
C273 C274 1.384 . S
C273 C275 1.384 . S
C273 H292 0.931 . S
C274 C273 1.384 . S
C274 C277 1.382 . S
C275 C273 1.384 . S
C275 C276 1.381 . S
C275 H293 0.930 . S
C276 C275 1.381 . S
C276 C278 1.381 . S
C276 C279 1.487 . S
C277 C274 1.382 . S
C277 C278 1.387 . S
C277 H294 0.930 . S
C278 C276 1.381 . S
C278 C277 1.387 . S
C278 H295 0.931 . S
C279 C272 1.399 . S
C279 C276 1.487 . S
C279 N296 1.343 . S
H280 C252 0.931 . S
H281 C254 0.930 . S
H282 C256 0.930 . S
H283 C257 0.931 . S
H284 C259 0.931 . S
H285 C261 0.930 . S
H286 C263 0.930 . S
H287 C264 0.931 . S
H288 C266 0.931 . S
H289 C268 0.930 . S
H290 C270 0.930 . S
H291 C271 0.931 . S
H292 C273 0.931 . S
H293 C275 0.930 . S
H294 C277 0.930 . S
H295 C278 0.931 . S
N296 C258 1.343 . S
N296 C279 1.343 . S
N297 C265 1.343 . S
N297 C272 1.343 . S
C298 C299 1.384 . S
C298 C300 1.384 . S
C298 H326 0.931 . S
C299 C298 1.384 . S
C299 C302 1.382 . S
C300 C298 1.384 . S
C300 C301 1.381 . S
C300 H327 0.930 . S
C301 C300 1.381 . S
C301 C303 1.381 . S
C301 C304 1.487 . S
C302 C299 1.382 . S
C302 C303 1.387 . S
C302 H328 0.930 . S
C303 C301 1.381 . S
C303 C302 1.387 . S
C303 H329 0.931 . S
C304 C301 1.487 . S
C304 C311 1.399 . S
C304 N342 1.343 . S
C305 C306 1.384 . S
C305 C307 1.384 . S
C305 H330 0.931 . S
C306 C305 1.384 . S
C306 C309 1.382 . S
C307 C305 1.384 . S
C307 C308 1.381 . S
C307 H331 0.930 . S
C308 C307 1.381 . S
C308 C310 1.381 . S
C308 C311 1.487 . S
C309 C306 1.382 . S
C309 C310 1.387 . S
C309 H332 0.930 . S
C310 C308 1.381 . S
C310 C309 1.387 . S
C310 H333 0.931 . S
C311 C304 1.399 . S
C311 C308 1.487 . S
C311 N343 1.343 . S
C312 C313 1.384 . S
C312 C314 1.384 . S
C312 H334 0.931 . S
C313 C312 1.384 . S
C313 C316 1.382 . S
C314 C312 1.384 . S
C314 C315 1.381 . S
C314 H335 0.930 . S
C315 C314 1.381 . S
C315 C317 1.381 . S
C315 C318 1.487 . S
C316 C313 1.382 . S
C316 C317 1.387 . S
C316 H336 0.930 . S
C317 C315 1.381 . S
C317 C316 1.387 . S
C317 H337 0.931 . S
C318 C315 1.487 . S
C318 C325 1.399 . S
C318 N343 1.343 . S
C319 C320 1.384 . S
C319 C321 1.384 . S
C319 H338 0.931 . S
C320 C319 1.384 . S
C320 C323 1.382 . S
C321 C319 1.384 . S
C321 C322 1.381 . S
C321 H339 0.930 . S
C322 C321 1.381 . S
C322 C324 1.381 . S
C322 C325 1.487 . S
C323 C320 1.382 . S
C323 C324 1.387 . S
C323 H340 0.930 . S
C324 C322 1.381 . S
C324 C323 1.387 . S
C324 H341 0.931 . S
C325 C318 1.399 . S
C325 C322 1.487 . S
C325 N342 1.343 . S
H326 C298 0.931 . S
H327 C300 0.930 . S
H328 C302 0.930 . S
H329 C303 0.931 . S
H330 C305 0.931 . S
H331 C307 0.930 . S
H332 C309 0.930 . S
H333 C310 0.931 . S
H334 C312 0.931 . S
H335 C314 0.930 . S
H336 C316 0.930 . S
H337 C317 0.931 . S
H338 C319 0.931 . S
H339 C321 0.930 . S
H340 C323 0.930 . S
H341 C324 0.931 . S
N342 C304 1.343 . S
N342 C325 1.343 . S
N343 C311 1.343 . S
N343 C318 1.343 . S
C344 C345 1.384 . S
C344 C346 1.384 . S
C344 H372 0.931 . S
C345 C344 1.384 . S
C345 C348 1.382 . S
C346 C344 1.384 . S
C346 C347 1.381 . S
C346 H373 0.930 . S
C347 C346 1.381 . S
C347 C349 1.381 . S
C347 C350 1.487 . S
C348 C345 1.382 . S
C348 C349 1.387 . S
C348 H374 0.930 . S
C349 C347 1.381 . S
C349 C348 1.387 . S
C349 H375 0.931 . S
C350 C347 1.487 . S
C350 C357 1.399 . S
C350 N388 1.343 . S
C351 C352 1.384 . S
C351 C353 1.384 . S
C351 H376 0.931 . S
C352 C351 1.384 . S
C352 C355 1.382 . S
C353 C351 1.384 . S
C353 C354 1.381 . S
C353 H377 0.930 . S
C354 C353 1.381 . S
C354 C356 1.381 . S
C354 C357 1.487 . S
C355 C352 1.382 . S
C355 C356 1.387 . S
C355 H378 0.930 . S
C356 C354 1.381 . S
C356 C355 1.387 . S
C356 H379 0.931 . S
C357 C350 1.399 . S
C357 C354 1.487 . S
C357 N389 1.343 . S
C358 C359 1.384 . S
C358 C360 1.384 . S
C358 H380 0.931 . S
C359 C358 1.384 . S
C359 C362 1.382 . S
C360 C358 1.384 . S
C360 C361 1.381 . S
C360 H381 0.930 . S
C361 C360 1.381 . S
C361 C363 1.381 . S
C361 C364 1.487 . S
C362 C359 1.382 . S
C362 C363 1.387 . S
C362 H382 0.930 . S
C363 C361 1.381 . S
C363 C362 1.387 . S
C363 H383 0.931 . S
C364 C361 1.487 . S
C364 C371 1.399 . S
C364 N389 1.343 . S
C365 C366 1.384 . S
C365 C367 1.384 . S
C365 H384 0.931 . S
C366 C365 1.384 . S
C366 C369 1.382 . S
C367 C365 1.384 . S
C367 C368 1.381 . S
C367 H385 0.930 . S
C368 C367 1.381 . S
C368 C370 1.381 . S
C368 C371 1.487 . S
C369 C366 1.382 . S
C369 C370 1.387 . S
C369 H386 0.930 . S
C370 C368 1.381 . S
C370 C369 1.387 . S
C370 H387 0.931 . S
C371 C364 1.399 . S
C371 C368 1.487 . S
C371 N388 1.343 . S
H372 C344 0.931 . S
H373 C346 0.930 . S
H374 C348 0.930 . S
H375 C349 0.931 . S
H376 C351 0.931 . S
H377 C353 0.930 . S
H378 C355 0.930 . S
H379 C356 0.931 . S
H380 C358 0.931 . S
H381 C360 0.930 . S
H382 C362 0.930 . S
H383 C363 0.931 . S
H384 C365 0.931 . S
H385 C367 0.930 . S
H386 C369 0.930 . S
H387 C370 0.931 . S
N388 C350 1.343 . S
N388 C371 1.343 . S
N389 C357 1.343 . S
N389 C364 1.343 . S
C390 C391 1.384 . S
C390 C392 1.384 . S
C390 H418 0.931 . S
C391 C390 1.384 . S
C391 C394 1.382 . S
C392 C390 1.384 . S
C392 C393 1.381 . S
C392 H419 0.930 . S
C393 C392 1.381 . S
C393 C395 1.381 . S
C393 C396 1.487 . S
C394 C391 1.382 . S
C394 C395 1.387 . S
C394 H420 0.930 . S
C395 C393 1.381 . S
C395 C394 1.387 . S
C395 H421 0.931 . S
C396 C393 1.487 . S
C396 C403 1.399 . S
C396 N434 1.343 . S
C397 C398 1.384 . S
C397 C399 1.384 . S
C397 H422 0.931 . S
C398 C397 1.384 . S
C398 C401 1.382 . S
C399 C397 1.384 . S
C399 C400 1.381 . S
C399 H423 0.930 . S
C400 C399 1.381 . S
C400 C402 1.381 . S
C400 C403 1.487 . S
C401 C398 1.382 . S
C401 C402 1.387 . S
C401 H424 0.930 . S
C402 C400 1.381 . S
C402 C401 1.387 . S
C402 H425 0.931 . S
C403 C396 1.399 . S
C403 C400 1.487 . S
C403 N435 1.343 . S
C404 C405 1.384 . S
C404 C406 1.384 . S
C404 H426 0.931 . S
C405 C404 1.384 . S
C405 C408 1.382 . S
C406 C404 1.384 . S
C406 C407 1.381 . S
C406 H427 0.930 . S
C407 C406 1.381 . S
C407 C409 1.381 . S
C407 C410 1.487 . S
C408 C405 1.382 . S
C408 C409 1.387 . S
C408 H428 0.930 . S
C409 C407 1.381 . S
C409 C408 1.387 . S
C409 H429 0.931 . S
C410 C407 1.487 . S
C410 C417 1.399 . S
C410 N435 1.343 . S
C411 C412 1.384 . S
C411 C413 1.384 . S
C411 H430 0.931 . S
C412 C411 1.384 . S
C412 C415 1.382 . S
C413 C411 1.384 . S
C413 C414 1.381 . S
C413 H431 0.930 . S
C414 C413 1.381 . S
C414 C416 1.381 . S
C414 C417 1.487 . S
C415 C412 1.382 . S
C415 C416 1.387 . S
C415 H432 0.930 . S
C416 C414 1.381 . S
C416 C415 1.387 . S
C416 H433 0.931 . S
C417 C410 1.399 . S
C417 C414 1.487 . S
C417 N434 1.343 . S
H418 C390 0.931 . S
H419 C392 0.930 . S
H420 C394 0.930 . S
H421 C395 0.931 . S
H422 C397 0.931 . S
H423 C399 0.930 . S
H424 C401 0.930 . S
H425 C402 0.931 . S
H426 C404 0.931 . S
H427 C406 0.930 . S
H428 C408 0.930 . S
H429 C409 0.931 . S
H430 C411 0.931 . S
H431 C413 0.930 . S
H432 C415 0.930 . S
H433 C416 0.931 . S
N434 C396 1.343 . S
N434 C417 1.343 . S
N435 C403 1.343 . S
N435 C410 1.343 . S
C436 C437 1.384 . S
C436 C438 1.384 . S
C436 H464 0.931 . S
C437 C436 1.384 . S
C437 C440 1.382 . S
C438 C436 1.384 . S
C438 C439 1.381 . S
C438 H465 0.930 . S
C439 C438 1.381 . S
C439 C441 1.381 . S
C439 C442 1.487 . S
C440 C437 1.382 . S
C440 C441 1.387 . S
C440 H466 0.930 . S
C441 C439 1.381 . S
C441 C440 1.387 . S
C441 H467 0.931 . S
C442 C439 1.487 . S
C442 C449 1.399 . S
C442 N480 1.343 . S
C443 C444 1.384 . S
C443 C445 1.384 . S
C443 H468 0.931 . S
C444 C443 1.384 . S
C444 C447 1.382 . S
C445 C443 1.384 . S
C445 C446 1.381 . S
C445 H469 0.930 . S
C446 C445 1.381 . S
C446 C448 1.381 . S
C446 C449 1.487 . S
C447 C444 1.382 . S
C447 C448 1.387 . S
C447 H470 0.930 . S
C448 C446 1.381 . S
C448 C447 1.387 . S
C448 H471 0.931 . S
C449 C442 1.399 . S
C449 C446 1.487 . S
C449 N481 1.343 . S
C450 C451 1.384 . S
C450 C452 1.384 . S
C450 H472 0.931 . S
C451 C450 1.384 . S
C451 C454 1.382 . S
C452 C450 1.384 . S
C452 C453 1.381 . S
C452 H473 0.930 . S
C453 C452 1.381 . S
C453 C455 1.381 . S
C453 C456 1.487 . S
C454 C451 1.382 . S
C454 C455 1.387 . S
C454 H474 0.930 . S
C455 C453 1.381 . S
C455 C454 1.387 . S
C455 H475 0.931 . S
C456 C453 1.487 . S
C456 C463 1.399 . S
C456 N481 1.343 . S
C457 C458 1.384 . S
C457 C459 1.384 . S
C457 H476 0.931 . S
C458 C457 1.384 . S
C458 C461 1.382 . S
C459 C457 1.384 . S
C459 C460 1.381 . S
C459 H477 0.930 . S
C460 C459 1.381 . S
C460 C462 1.381 . S
C460 C463 1.487 . S
C461 C458 1.382 . S
C461 C462 1.387 . S
C461 H478 0.930 . S
C462 C460 1.381 . S
C462 C461 1.387 . S
C462 H479 0.931 . S
C463 C456 1.399 . S
C463 C460 1.487 . S
C463 N480 1.343 . S
H464 C436 0.931 . S
H465 C438 0.930 . S
H466 C440 0.930 . S
H467 C441 0.931 . S
H468 C443 0.931 . S
H469 C445 0.930 . S
H470 C447 0.930 . S
H471 C448 0.931 . S
H472 C450 0.931 . S
H473 C452 0.930 . S
H474 C454 0.930 . S
H475 C455 0.931 . S
H476 C457 0.931 . S
H477 C459 0.930 . S
H478 C461 0.930 . S
H479 C462 0.931 . S
N480 C442 1.343 . S
N480 C463 1.343 . S
N481 C449 1.343 . S
N481 C456 1.343 . S
C482 C483 1.384 . S
C482 C484 1.384 . S
C482 H510 0.931 . S
C483 C482 1.384 . S
C483 C486 1.382 . S
C484 C482 1.384 . S
C484 C485 1.381 . S
C484 H511 0.930 . S
C485 C484 1.381 . S
C485 C487 1.381 . S
C485 C488 1.487 . S
C486 C483 1.382 . S
C486 C487 1.387 . S
C486 H512 0.930 . S
C487 C485 1.381 . S
C487 C486 1.387 . S
C487 H513 0.931 . S
C488 C485 1.487 . S
C488 C495 1.399 . S
C488 N526 1.343 . S
C489 C490 1.384 . S
C489 C491 1.384 . S
C489 H514 0.931 . S
C490 C489 1.384 . S
C490 C493 1.382 . S
C491 C489 1.384 . S
C491 C492 1.381 . S
C491 H515 0.930 . S
C492 C491 1.381 . S
C492 C494 1.381 . S
C492 C495 1.487 . S
C493 C490 1.382 . S
C493 C494 1.387 . S
C493 H516 0.930 . S
C494 C492 1.381 . S
C494 C493 1.387 . S
C494 H517 0.931 . S
C495 C488 1.399 . S
C495 C492 1.487 . S
C495 N527 1.343 . S
C496 C497 1.384 . S
C496 C498 1.384 . S
C496 H518 0.931 . S
C497 C496 1.384 . S
C497 C500 1.382 . S
C498 C496 1.384 . S
C498 C499 1.381 . S
C498 H519 0.930 . S
C499 C498 1.381 . S
C499 C501 1.381 . S
C499 C502 1.487 . S
C500 C497 1.382 . S
C500 C501 1.387 . S
C500 H520 0.930 . S
C501 C499 1.381 . S
C501 C500 1.387 . S
C501 H521 0.931 . S
C502 C499 1.487 . S
C502 C509 1.399 . S
C502 N527 1.343 . S
C503 C504 1.384 . S
C503 C505 1.384 . S
C503 H522 0.931 . S
C504 C503 1.384 . S
C504 C507 1.382 . S
C505 C503 1.384 . S
C505 C506 1.381 . S
C505 H523 0.930 . S
C506 C505 1.381 . S
C506 C508 1.381 . S
C506 C509 1.487 . S
C507 C504 1.382 . S
C507 C508 1.387 . S
C507 H524 0.930 . S
C508 C506 1.381 . S
C508 C507 1.387 . S
C508 H525 0.931 . S
C509 C502 1.399 . S
C509 C506 1.487 . S
C509 N526 1.343 . S
H510 C482 0.931 . S
H511 C484 0.930 . S
H512 C486 0.930 . S
H513 C487 0.931 . S
H514 C489 0.931 . S
H515 C491 0.930 . S
H516 C493 0.930 . S
H517 C494 0.931 . S
H518 C496 0.931 . S
H519 C498 0.930 . S
H520 C500 0.930 . S
H521 C501 0.931 . S
H522 C503 0.931 . S
H523 C505 0.930 . S
H524 C507 0.930 . S
H525 C508 0.931 . S
N526 C488 1.343 . S
N526 C509 1.343 . S
N527 C495 1.343 . S
N527 C502 1.343 . S
C528 C529 1.384 . S
C528 C530 1.384 . S
C528 H556 0.931 . S
C529 C528 1.384 . S
C529 C532 1.382 . S
C530 C528 1.384 . S
C530 C531 1.381 . S
C530 H557 0.930 . S
C531 C530 1.381 . S
C531 C533 1.381 . S
C531 C534 1.487 . S
C532 C529 1.382 . S
C532 C533 1.387 . S
C532 H558 0.930 . S
C533 C531 1.381 . S
C533 C532 1.387 . S
C533 H559 0.931 . S
C534 C531 1.487 . S
C534 C541 1.399 . S
C534 N572 1.343 . S
C535 C536 1.384 . S
C535 C537 1.384 . S
C535 H560 0.931 . S
C536 C535 1.384 . S
C536 C539 1.382 . S
C537 C535 1.384 . S
C537 C538 1.381 . S
C537 H561 0.930 . S
C538 C537 1.381 . S
C538 C540 1.381 . S
C538 C541 1.487 . S
C539 C536 1.382 . S
C539 C540 1.387 . S
C539 H562 0.930 . S
C540 C538 1.381 . S
C540 C539 1.387 . S
C540 H563 0.931 . S
C541 C534 1.399 . S
C541 C538 1.487 . S
C541 N573 1.343 . S
C542 C543 1.384 . S
C542 C544 1.384 . S
C542 H564 0.931 . S
C543 C542 1.384 . S
C543 C546 1.382 . S
C544 C542 1.384 . S
C544 C545 1.381 . S
C544 H565 0.930 . S
C545 C544 1.381 . S
C545 C547 1.381 . S
C545 C548 1.487 . S
C546 C543 1.382 . S
C546 C547 1.387 . S
C546 H566 0.930 . S
C547 C545 1.381 . S
C547 C546 1.387 . S
C547 H567 0.931 . S
C548 C545 1.487 . S
C548 C555 1.399 . S
C548 N573 1.343 . S
C549 C550 1.384 . S
C549 C551 1.384 . S
C549 H568 0.931 . S
C550 C549 1.384 . S
C550 C553 1.382 . S
C551 C549 1.384 . S
C551 C552 1.381 . S
C551 H569 0.930 . S
C552 C551 1.381 . S
C552 C554 1.381 . S
C552 C555 1.487 . S
C553 C550 1.382 . S
C553 C554 1.387 . S
C553 H570 0.930 . S
C554 C552 1.381 . S
C554 C553 1.387 . S
C554 H571 0.931 . S
C555 C548 1.399 . S
C555 C552 1.487 . S
C555 N572 1.343 . S
H556 C528 0.931 . S
H557 C530 0.930 . S
H558 C532 0.930 . S
H559 C533 0.931 . S
H560 C535 0.931 . S
H561 C537 0.930 . S
H562 C539 0.930 . S
H563 C540 0.931 . S
H564 C542 0.931 . S
H565 C544 0.930 . S
H566 C546 0.930 . S
H567 C547 0.931 . S
H568 C549 0.931 . S
H569 C551 0.930 . S
H570 C553 0.930 . S
H571 C554 0.931 . S
N572 C534 1.343 . S
N572 C555 1.343 . S
N573 C541 1.343 . S
N573 C548 1.343 . S
C574 C575 1.384 . S
C574 C576 1.384 . S
C574 H602 0.931 . S
C575 C574 1.384 . S
C575 C578 1.382 . S
C576 C574 1.384 . S
C576 C577 1.381 . S
C576 H603 0.930 . S
C577 C576 1.381 . S
C577 C579 1.381 . S
C577 C580 1.487 . S
C578 C575 1.382 . S
C578 C579 1.387 . S
C578 H604 0.930 . S
C579 C577 1.381 . S
C579 C578 1.387 . S
C579 H605 0.931 . S
C580 C577 1.487 . S
C580 C587 1.399 . S
C580 N618 1.343 . S
C581 C582 1.384 . S
C581 C583 1.384 . S
C581 H606 0.931 . S
C582 C581 1.384 . S
C582 C585 1.382 . S
C583 C581 1.384 . S
C583 C584 1.381 . S
C583 H607 0.930 . S
C584 C583 1.381 . S
C584 C586 1.381 . S
C584 C587 1.487 . S
C585 C582 1.382 . S
C585 C586 1.387 . S
C585 H608 0.930 . S
C586 C584 1.381 . S
C586 C585 1.387 . S
C586 H609 0.931 . S
C587 C580 1.399 . S
C587 C584 1.487 . S
C587 N619 1.343 . S
C588 C589 1.384 . S
C588 C590 1.384 . S
C588 H610 0.931 . S
C589 C588 1.384 . S
C589 C592 1.382 . S
C590 C588 1.384 . S
C590 C591 1.381 . S
C590 H611 0.930 . S
C591 C590 1.381 . S
C591 C593 1.381 . S
C591 C594 1.487 . S
C592 C589 1.382 . S
C592 C593 1.387 . S
C592 H612 0.930 . S
C593 C591 1.381 . S
C593 C592 1.387 . S
C593 H613 0.931 . S
C594 C591 1.487 . S
C594 C601 1.399 . S
C594 N619 1.343 . S
C595 C596 1.384 . S
C595 C597 1.384 . S
C595 H614 0.931 . S
C596 C595 1.384 . S
C596 C599 1.382 . S
C597 C595 1.384 . S
C597 C598 1.381 . S
C597 H615 0.930 . S
C598 C597 1.381 . S
C598 C600 1.381 . S
C598 C601 1.487 . S
C599 C596 1.382 . S
C599 C600 1.387 . S
C599 H616 0.930 . S
C600 C598 1.381 . S
C600 C599 1.387 . S
C600 H617 0.931 . S
C601 C594 1.399 . S
C601 C598 1.487 . S
C601 N618 1.343 . S
H602 C574 0.931 . S
H603 C576 0.930 . S
H604 C578 0.930 . S
H605 C579 0.931 . S
H606 C581 0.931 . S
H607 C583 0.930 . S
H608 C585 0.930 . S
H609 C586 0.931 . S
H610 C588 0.931 . S
H611 C590 0.930 . S
H612 C592 0.930 . S
H613 C593 0.931 . S
H614 C595 0.931 . S
H615 C597 0.930 . S
H616 C599 0.930 . S
H617 C600 0.931 . S
N618 C580 1.343 . S
N618 C601 1.343 . S
N619 C587 1.343 . S
N619 C594 1.343 . S
C620 C621 1.384 . S
C620 C622 1.384 . S
C620 H648 0.931 . S
C621 C620 1.384 . S
C621 C624 1.382 . S
C622 C620 1.384 . S
C622 C623 1.381 . S
C622 H649 0.930 . S
C623 C622 1.381 . S
C623 C625 1.381 . S
C623 C626 1.487 . S
C624 C621 1.382 . S
C624 C625 1.387 . S
C624 H650 0.930 . S
C625 C623 1.381 . S
C625 C624 1.387 . S
C625 H651 0.931 . S
C626 C623 1.487 . S
C626 C633 1.399 . S
C626 N664 1.343 . S
C627 C628 1.384 . S
C627 C629 1.384 . S
C627 H652 0.931 . S
C628 C627 1.384 . S
C628 C631 1.382 . S
C629 C627 1.384 . S
C629 C630 1.381 . S
C629 H653 0.930 . S
C630 C629 1.381 . S
C630 C632 1.381 . S
C630 C633 1.487 . S
C631 C628 1.382 . S
C631 C632 1.387 . S
C631 H654 0.930 . S
C632 C630 1.381 . S
C632 C631 1.387 . S
C632 H655 0.931 . S
C633 C626 1.399 . S
C633 C630 1.487 . S
C633 N665 1.343 . S
C634 C635 1.384 . S
C634 C636 1.384 . S
C634 H656 0.931 . S
C635 C634 1.384 . S
C635 C638 1.382 . S
C636 C634 1.384 . S
C636 C637 1.381 . S
C636 H657 0.930 . S
C637 C636 1.381 . S
C637 C639 1.381 . S
C637 C640 1.487 . S
C638 C635 1.382 . S
C638 C639 1.387 . S
C638 H658 0.930 . S
C639 C637 1.381 . S
C639 C638 1.387 . S
C639 H659 0.931 . S
C640 C637 1.487 . S
C640 C647 1.399 . S
C640 N665 1.343 . S
C641 C642 1.384 . S
C641 C643 1.384 . S
C641 H660 0.931 . S
C642 C641 1.384 . S
C642 C645 1.382 . S
C643 C641 1.384 . S
C643 C644 1.381 . S
C643 H661 0.930 . S
C644 C643 1.381 . S
C644 C646 1.381 . S
C644 C647 1.487 . S
C645 C642 1.382 . S
C645 C646 1.387 . S
C645 H662 0.930 . S
C646 C644 1.381 . S
C646 C645 1.387 . S
C646 H663 0.931 . S
C647 C640 1.399 . S
C647 C644 1.487 . S
C647 N664 1.343 . S
H648 C620 0.931 . S
H649 C622 0.930 . S
H650 C624 0.930 . S
H651 C625 0.931 . S
H652 C627 0.931 . S
H653 C629 0.930 . S
H654 C631 0.930 . S
H655 C632 0.931 . S
H656 C634 0.931 . S
H657 C636 0.930 . S
H658 C638 0.930 . S
H659 C639 0.931 . S
H660 C641 0.931 . S
H661 C643 0.930 . S
H662 C645 0.930 . S
H663 C646 0.931 . S
N664 C626 1.343 . S
N664 C647 1.343 . S
N665 C633 1.343 . S
N665 C640 1.343 . S
C666 C667 1.384 . S
C666 C668 1.384 . S
C666 H694 0.931 . S
C667 C666 1.384 . S
C667 C670 1.382 1_655 S
C668 C666 1.384 . S
C668 C669 1.402 . S
C668 H695 0.930 . S
C669 C668 1.402 . S
C669 C671 1.371 1_655 S
C669 C672 1.474 1_655 S
C670 C667 1.382 1_455 S
C670 C671 1.387 . S
C670 H696 0.930 . S
C671 C669 1.371 1_455 S
C671 C670 1.387 . S
C671 H697 0.931 . S
C672 C669 1.474 1_455 S
C672 C679 1.399 1_455 S
C672 N710 1.311 . S
C673 C674 1.384 . S
C673 C675 1.384 . S
C673 H698 0.931 . S
C674 C673 1.384 . S
C674 C677 1.382 1_455 S
C675 C673 1.384 . S
C675 C676 1.383 1_455 S
C675 H699 0.930 . S
C676 C675 1.383 1_655 S
C676 C678 1.377 . S
C676 C679 1.496 . S
C677 C674 1.382 1_655 S
C677 C678 1.387 . S
C677 H700 0.930 . S
C678 C676 1.377 . S
C678 C677 1.387 . S
C678 H701 0.931 . S
C679 C672 1.399 1_655 S
C679 C676 1.496 . S
C679 N711 1.361 . S
C680 C681 1.384 . S
C680 C682 1.384 . S
C680 H702 0.931 . S
C681 C680 1.384 . S
C681 C684 1.382 1_455 S
C682 C680 1.384 . S
C682 C683 1.423 . S
C682 H703 0.930 . S
C683 C682 1.423 . S
C683 C685 1.361 1_455 S
C683 C686 1.465 . S
C684 C681 1.382 1_655 S
C684 C685 1.387 . S
C684 H704 0.930 . S
C685 C683 1.361 1_655 S
C685 C684 1.387 . S
C685 H705 0.931 . S
C686 C683 1.465 . S
C686 C693 1.399 . S
C686 N711 1.321 1_455 S
C687 C688 1.384 . S
C687 C689 1.384 . S
C687 H706 0.931 . S
C688 C687 1.384 . S
C688 C691 1.382 1_655 S
C689 C687 1.384 . S
C689 C690 1.379 1_655 S
C689 H707 0.930 . S
C690 C689 1.379 1_455 S
C690 C692 1.389 . S
C690 C693 1.496 . S
C691 C688 1.382 1_455 S
C691 C692 1.387 . S
C691 H708 0.930 . S
C692 C690 1.389 . S
C692 C691 1.387 . S
C692 H709 0.931 . S
C693 C686 1.399 . S
C693 C690 1.496 . S
C693 N710 1.361 . S
H694 C666 0.931 . S
H695 C668 0.930 . S
H696 C670 0.930 . S
H697 C671 0.931 . S
H698 C673 0.931 . S
H699 C675 0.930 . S
H700 C677 0.930 . S
H701 C678 0.931 . S
H702 C680 0.931 . S
H703 C682 0.930 . S
H704 C684 0.930 . S
H705 C685 0.931 . S
H706 C687 0.931 . S
H707 C689 0.930 . S
H708 C691 0.930 . S
H709 C692 0.931 . S
N710 C672 1.311 . S
N710 C693 1.361 . S
N711 C679 1.361 . S
N711 C686 1.321 1_655 S
C712 C713 1.384 . S
C712 C714 1.384 . S
C712 H740 0.931 . S
C713 C712 1.384 . S
C713 C716 1.382 . S
C714 C712 1.384 . S
C714 C715 1.381 . S
C714 H741 0.930 . S
C715 C714 1.381 . S
C715 C717 1.381 . S
C715 C718 1.487 . S
C716 C713 1.382 . S
C716 C717 1.387 . S
C716 H742 0.930 . S
C717 C715 1.381 . S
C717 C716 1.387 . S
C717 H743 0.931 . S
C718 C715 1.487 . S
C718 C725 1.399 . S
C718 N756 1.343 . S
C719 C720 1.384 . S
C719 C721 1.384 . S
C719 H744 0.931 . S
C720 C719 1.384 . S
C720 C723 1.382 . S
C721 C719 1.384 . S
C721 C722 1.381 . S
C721 H745 0.930 . S
C722 C721 1.381 . S
C722 C724 1.381 . S
C722 C725 1.487 . S
C723 C720 1.382 . S
C723 C724 1.387 . S
C723 H746 0.930 . S
C724 C722 1.381 . S
C724 C723 1.387 . S
C724 H747 0.931 . S
C725 C718 1.399 . S
C725 C722 1.487 . S
C725 N757 1.343 . S
C726 C727 1.384 . S
C726 C728 1.384 . S
C726 H748 0.931 . S
C727 C726 1.384 . S
C727 C730 1.382 . S
C728 C726 1.384 . S
C728 C729 1.381 . S
C728 H749 0.930 . S
C729 C728 1.381 . S
C729 C731 1.381 . S
C729 C732 1.487 . S
C730 C727 1.382 . S
C730 C731 1.387 . S
C730 H750 0.930 . S
C731 C729 1.381 . S
C731 C730 1.387 . S
C731 H751 0.931 . S
C732 C729 1.487 . S
C732 C739 1.399 . S
C732 N757 1.343 . S
C733 C734 1.384 . S
C733 C735 1.384 . S
C733 H752 0.931 . S
C734 C733 1.384 . S
C734 C737 1.382 . S
C735 C733 1.384 . S
C735 C736 1.381 . S
C735 H753 0.930 . S
C736 C735 1.381 . S
C736 C738 1.381 . S
C736 C739 1.487 . S
C737 C734 1.382 . S
C737 C738 1.387 . S
C737 H754 0.930 . S
C738 C736 1.381 . S
C738 C737 1.387 . S
C738 H755 0.931 . S
C739 C732 1.399 . S
C739 C736 1.487 . S
C739 N756 1.343 . S
H740 C712 0.931 . S
H741 C714 0.930 . S
H742 C716 0.930 . S
H743 C717 0.931 . S
H744 C719 0.931 . S
H745 C721 0.930 . S
H746 C723 0.930 . S
H747 C724 0.931 . S
H748 C726 0.931 . S
H749 C728 0.930 . S
H750 C730 0.930 . S
H751 C731 0.931 . S
H752 C733 0.931 . S
H753 C735 0.930 . S
H754 C737 0.930 . S
H755 C738 0.931 . S
N756 C718 1.343 . S
N756 C739 1.343 . S
N757 C725 1.343 . S
N757 C732 1.343 . S
C758 C759 1.384 1_545 S
C758 C760 1.384 . S
C758 H786 0.931 . S
C759 C758 1.384 1_565 S
C759 C762 1.382 . S
C760 C758 1.384 . S
C760 C761 1.381 1_545 S
C760 H787 0.930 . S
C761 C760 1.381 1_565 S
C761 C763 1.381 . S
C761 C764 1.487 . S
C762 C759 1.382 . S
C762 C763 1.387 . S
C762 H788 0.930 . S
C763 C761 1.381 . S
C763 C762 1.387 . S
C763 H789 0.931 . S
C764 C761 1.487 . S
C764 C771 1.399 1_565 S
C764 N802 1.343 . S
C765 C766 1.384 1_565 S
C765 C767 1.384 . S
C765 H790 0.931 . S
C766 C765 1.384 1_545 S
C766 C769 1.382 . S
C767 C765 1.384 . S
C767 C768 1.381 1_565 S
C767 H791 0.930 . S
C768 C767 1.381 1_545 S
C768 C770 1.381 . S
C768 C771 1.487 . S
C769 C766 1.382 . S
C769 C770 1.387 . S
C769 H792 0.930 . S
C770 C768 1.381 . S
C770 C769 1.387 . S
C770 H793 0.931 . S
C771 C764 1.399 1_545 S
C771 C768 1.487 . S
C771 N803 1.343 . S
C772 C773 1.384 1_565 S
C772 C774 1.384 . S
C772 H794 0.931 . S
C773 C772 1.384 1_545 S
C773 C776 1.382 . S
C774 C772 1.384 . S
C774 C775 1.381 1_565 S
C774 H795 0.930 . S
C775 C774 1.381 1_545 S
C775 C777 1.381 . S
C775 C778 1.456 . S
C776 C773 1.382 . S
C776 C777 1.387 . S
C776 H796 0.930 . S
C777 C775 1.381 . S
C777 C776 1.387 . S
C777 H797 0.931 . S
C778 C775 1.456 . S
C778 C785 1.389 1_545 S
C778 N803 1.393 . S
C779 C780 1.384 1_545 S
C779 C781 1.384 . S
C779 H798 0.931 . S
C780 C779 1.384 1_565 S
C780 C783 1.382 . S
C781 C779 1.384 . S
C781 C782 1.381 1_545 S
C781 H799 0.930 . S
C782 C781 1.381 1_565 S
C782 C784 1.381 . S
C782 C785 1.487 . S
C783 C780 1.382 . S
C783 C784 1.387 . S
C783 H800 0.930 . S
C784 C782 1.381 . S
C784 C783 1.387 . S
C784 H801 0.931 . S
C785 C778 1.389 1_565 S
C785 C782 1.487 . S
C785 N802 1.343 . S
H786 C758 0.931 . S
H787 C760 0.930 . S
H788 C762 0.930 . S
H789 C763 0.931 . S
H790 C765 0.931 . S
H791 C767 0.930 . S
H792 C769 0.930 . S
H793 C770 0.931 . S
H794 C772 0.931 . S
H795 C774 0.930 . S
H796 C776 0.930 . S
H797 C777 0.931 . S
H798 C779 0.931 . S
H799 C781 0.930 . S
H800 C783 0.930 . S
H801 C784 0.931 . S
N802 C764 1.343 . S
N802 C785 1.343 . S
N803 C771 1.343 . S
N803 C778 1.393 . S
C804 C805 1.384 . S
C804 C806 1.384 . S
C804 H832 0.931 . S
C805 C804 1.384 . S
C805 C808 1.382 1_545 S
C806 C804 1.384 . S
C806 C807 1.380 . S
C806 H833 0.930 . S
C807 C806 1.380 . S
C807 C809 1.386 1_545 S
C807 C810 1.488 1_545 S
C808 C805 1.382 1_565 S
C808 C809 1.387 . S
C808 H834 0.930 . S
C809 C807 1.386 1_565 S
C809 C808 1.387 . S
C809 H835 0.931 . S
C810 C807 1.488 1_565 S
C810 C817 1.399 1_565 S
C810 N848 1.363 . S
C811 C812 1.384 . S
C811 C813 1.384 . S
C811 H836 0.931 . S
C812 C811 1.384 . S
C812 C815 1.382 1_565 S
C813 C811 1.384 . S
C813 C814 1.397 . S
C813 H837 0.930 . S
C814 C813 1.397 . S
C814 C816 1.374 1_565 S
C814 C817 1.475 1_565 S
C815 C812 1.382 1_545 S
C815 C816 1.387 . S
C815 H838 0.930 . S
C816 C814 1.374 1_545 S
C816 C815 1.387 . S
C816 H839 0.931 . S
C817 C810 1.399 1_545 S
C817 C814 1.475 1_545 S
C817 N849 1.313 . S
C818 C819 1.384 . S
C818 C820 1.384 . S
C818 H840 0.931 . S
C819 C818 1.384 . S
C819 C822 1.382 1_565 S
C820 C818 1.384 . S
C820 C821 1.380 1_565 S
C820 H841 0.930 . S
C821 C820 1.380 1_545 S
C821 C823 1.386 . S
C821 C824 1.497 . S
C822 C819 1.382 1_545 S
C822 C823 1.387 . S
C822 H842 0.930 . S
C823 C821 1.386 . S
C823 C822 1.387 . S
C823 H843 0.931 . S
C824 C821 1.497 . S
C824 C831 1.399 . S
C824 N849 1.363 . S
C825 C826 1.384 . S
C825 C827 1.384 . S
C825 H844 0.931 . S
C826 C825 1.384 . S
C826 C829 1.382 1_545 S
C827 C825 1.384 . S
C827 C828 1.417 . S
C827 H845 0.930 . S
C828 C827 1.417 . S
C828 C830 1.364 1_545 S
C828 C831 1.466 . S
C829 C826 1.382 1_565 S
C829 C830 1.387 . S
C829 H846 0.930 . S
C830 C828 1.364 1_565 S
C830 C829 1.387 . S
C830 H847 0.931 . S
C831 C824 1.399 . S
C831 C828 1.466 . S
C831 N848 1.322 1_545 S
H832 C804 0.931 . S
H833 C806 0.930 . S
H834 C808 0.930 . S
H835 C809 0.931 . S
H836 C811 0.931 . S
H837 C813 0.930 . S
H838 C815 0.930 . S
H839 C816 0.931 . S
H840 C818 0.931 . S
H841 C820 0.930 . S
H842 C822 0.930 . S
H843 C823 0.931 . S
H844 C825 0.931 . S
H845 C827 0.930 . S
H846 C829 0.930 . S
H847 C830 0.931 . S
N848 C810 1.363 . S
N848 C831 1.322 1_565 S
N849 C817 1.313 . S
N849 C824 1.363 . S
C850 C851 1.384 . S
C850 C852 1.384 . S
C850 H878 0.931 . S
C851 C850 1.384 . S
C851 C854 1.382 1_655 S
C852 C850 1.384 . S
C852 C853 1.432 . S
C852 H879 0.930 . S
C853 C852 1.432 . S
C853 C855 1.356 1_655 S
C853 C856 1.462 . S
C854 C851 1.382 1_455 S
C854 C855 1.387 . S
C854 H880 0.930 . S
C855 C853 1.356 1_455 S
C855 C854 1.387 . S
C855 H881 0.931 . S
C856 C853 1.462 . S
C856 C863 1.399 . S
C856 N894 1.323 1_655 S
C857 C858 1.384 . S
C857 C859 1.384 . S
C857 H882 0.931 . S
C858 C857 1.384 . S
C858 C861 1.382 1_455 S
C859 C857 1.384 . S
C859 C860 1.381 1_455 S
C859 H883 0.930 . S
C860 C859 1.381 1_655 S
C860 C862 1.383 . S
C860 C863 1.498 . S
C861 C858 1.382 1_655 S
C861 C862 1.387 . S
C861 H884 0.930 . S
C862 C860 1.383 . S
C862 C861 1.387 . S
C862 H885 0.931 . S
C863 C856 1.399 . S
C863 C860 1.498 . S
C863 N895 1.359 . S
C864 C865 1.384 . S
C864 C866 1.384 . S
C864 H886 0.931 . S
C865 C864 1.384 . S
C865 C868 1.382 1_455 S
C866 C864 1.384 . S
C866 C867 1.412 . S
C866 H887 0.930 . S
C867 C866 1.412 . S
C867 C869 1.366 1_455 S
C867 C870 1.472 1_455 S
C868 C865 1.382 1_655 S
C868 C869 1.387 . S
C868 H888 0.930 . S
C869 C867 1.366 1_655 S
C869 C868 1.387 . S
C869 H889 0.931 . S
C870 C867 1.472 1_655 S
C870 C877 1.399 1_655 S
C870 N895 1.313 . S
C871 C872 1.384 . S
C871 C873 1.384 . S
C871 H890 0.931 . S
C872 C871 1.384 . S
C872 C875 1.382 1_655 S
C873 C871 1.384 . S
C873 C874 1.381 . S
C873 H891 0.930 . S
C874 C873 1.381 . S
C874 C876 1.383 1_655 S
C874 C877 1.489 1_655 S
C875 C872 1.382 1_455 S
C875 C876 1.387 . S
C875 H892 0.930 . S
C876 C874 1.383 1_455 S
C876 C875 1.387 . S
C876 H893 0.931 . S
C877 C870 1.399 1_455 S
C877 C874 1.489 1_455 S
C877 N894 1.359 . S
H878 C850 0.931 . S
H879 C852 0.930 . S
H880 C854 0.930 . S
H881 C855 0.931 . S
H882 C857 0.931 . S
H883 C859 0.930 . S
H884 C861 0.930 . S
H885 C862 0.931 . S
H886 C864 0.931 . S
H887 C866 0.930 . S
H888 C868 0.930 . S
H889 C869 0.931 . S
H890 C871 0.931 . S
H891 C873 0.930 . S
H892 C875 0.930 . S
H893 C876 0.931 . S
N894 C856 1.323 1_455 S
N894 C877 1.359 . S
N895 C863 1.359 . S
N895 C870 1.313 . S
C896 C897 1.384 . S
C896 C898 1.384 . S
C896 H924 0.931 . S
C897 C896 1.384 . S
C897 C900 1.382 . S
C898 C896 1.384 . S
C898 C899 1.381 . S
C898 H925 0.930 . S
C899 C898 1.381 . S
C899 C901 1.381 . S
C899 C902 1.487 . S
C900 C897 1.382 . S
C900 C901 1.387 . S
C900 H926 0.930 . S
C901 C899 1.381 . S
C901 C900 1.387 . S
C901 H927 0.931 . S
C902 C899 1.487 . S
C902 C909 1.399 . S
C902 N940 1.343 . S
C903 C904 1.384 . S
C903 C905 1.384 . S
C903 H928 0.931 . S
C904 C903 1.384 . S
C904 C907 1.382 . S
C905 C903 1.384 . S
C905 C906 1.381 . S
C905 H929 0.930 . S
C906 C905 1.381 . S
C906 C908 1.381 . S
C906 C909 1.487 . S
C907 C904 1.382 . S
C907 C908 1.387 . S
C907 H930 0.930 . S
C908 C906 1.381 . S
C908 C907 1.387 . S
C908 H931 0.931 . S
C909 C902 1.399 . S
C909 C906 1.487 . S
C909 N941 1.343 . S
C910 C911 1.384 . S
C910 C912 1.384 . S
C910 H932 0.931 . S
C911 C910 1.384 . S
C911 C914 1.382 . S
C912 C910 1.384 . S
C912 C913 1.381 . S
C912 H933 0.930 . S
C913 C912 1.381 . S
C913 C915 1.381 . S
C913 C916 1.487 . S
C914 C911 1.382 . S
C914 C915 1.387 . S
C914 H934 0.930 . S
C915 C913 1.381 . S
C915 C914 1.387 . S
C915 H935 0.931 . S
C916 C913 1.487 . S
C916 C923 1.399 . S
C916 N941 1.343 . S
C917 C918 1.384 . S
C917 C919 1.384 . S
C917 H936 0.931 . S
C918 C917 1.384 . S
C918 C921 1.382 . S
C919 C917 1.384 . S
C919 C920 1.381 . S
C919 H937 0.930 . S
C920 C919 1.381 . S
C920 C922 1.381 . S
C920 C923 1.487 . S
C921 C918 1.382 . S
C921 C922 1.387 . S
C921 H938 0.930 . S
C922 C920 1.381 . S
C922 C921 1.387 . S
C922 H939 0.931 . S
C923 C916 1.399 . S
C923 C920 1.487 . S
C923 N940 1.343 . S
H924 C896 0.931 . S
H925 C898 0.930 . S
H926 C900 0.930 . S
H927 C901 0.931 . S
H928 C903 0.931 . S
H929 C905 0.930 . S
H930 C907 0.930 . S
H931 C908 0.931 . S
H932 C910 0.931 . S
H933 C912 0.930 . S
H934 C914 0.930 . S
H935 C915 0.931 . S
H936 C917 0.931 . S
H937 C919 0.930 . S
H938 C921 0.930 . S
H939 C922 0.931 . S
N940 C902 1.343 . S
N940 C923 1.343 . S
N941 C909 1.343 . S
N941 C916 1.343 . S
C942 C943 1.384 . S
C942 C944 1.384 . S
C942 H970 0.931 . S
C943 C942 1.384 . S
C943 C946 1.382 . S
C944 C942 1.384 . S
C944 C945 1.381 . S
C944 H971 0.930 . S
C945 C944 1.381 . S
C945 C947 1.381 . S
C945 C948 1.487 . S
C946 C943 1.382 . S
C946 C947 1.387 . S
C946 H972 0.930 . S
C947 C945 1.381 . S
C947 C946 1.387 . S
C947 H973 0.931 . S
C948 C945 1.487 . S
C948 C955 1.399 . S
C948 N986 1.343 . S
C949 C950 1.384 . S
C949 C951 1.384 . S
C949 H974 0.931 . S
C950 C949 1.384 . S
C950 C953 1.382 . S
C951 C949 1.384 . S
C951 C952 1.381 . S
C951 H975 0.930 . S
C952 C951 1.381 . S
C952 C954 1.381 . S
C952 C955 1.487 . S
C953 C950 1.382 . S
C953 C954 1.387 . S
C953 H976 0.930 . S
C954 C952 1.381 . S
C954 C953 1.387 . S
C954 H977 0.931 . S
C955 C948 1.399 . S
C955 C952 1.487 . S
C955 N987 1.343 . S
C956 C957 1.384 . S
C956 C958 1.384 . S
C956 H978 0.931 . S
C957 C956 1.384 . S
C957 C960 1.382 . S
C958 C956 1.384 . S
C958 C959 1.381 . S
C958 H979 0.930 . S
C959 C958 1.381 . S
C959 C961 1.381 . S
C959 C962 1.487 . S
C960 C957 1.382 . S
C960 C961 1.387 . S
C960 H980 0.930 . S
C961 C959 1.381 . S
C961 C960 1.387 . S
C961 H981 0.931 . S
C962 C959 1.487 . S
C962 C969 1.399 . S
C962 N987 1.343 . S
C963 C964 1.384 . S
C963 C965 1.384 . S
C963 H982 0.931 . S
C964 C963 1.384 . S
C964 C967 1.382 . S
C965 C963 1.384 . S
C965 C966 1.381 . S
C965 H983 0.930 . S
C966 C965 1.381 . S
C966 C968 1.381 . S
C966 C969 1.487 . S
C967 C964 1.382 . S
C967 C968 1.387 . S
C967 H984 0.930 . S
C968 C966 1.381 . S
C968 C967 1.387 . S
C968 H985 0.931 . S
C969 C962 1.399 . S
C969 C966 1.487 . S
C969 N986 1.343 . S
H970 C942 0.931 . S
H971 C944 0.930 . S
H972 C946 0.930 . S
H973 C947 0.931 . S
H974 C949 0.931 . S
H975 C951 0.930 . S
H976 C953 0.930 . S
H977 C954 0.931 . S
H978 C956 0.931 . S
H979 C958 0.930 . S
H980 C960 0.930 . S
H981 C961 0.931 . S
H982 C963 0.931 . S
H983 C965 0.930 . S
H984 C967 0.930 . S
H985 C968 0.931 . S
N986 C948 1.343 . S
N986 C969 1.343 . S
N987 C955 1.343 . S
N987 C962 1.343 . S
C988 C989 1.384 . S
C988 C990 1.384 . S
C988 H1016 0.931 . S
C989 C988 1.384 . S
C989 C992 1.382 . S
C990 C988 1.384 . S
C990 C991 1.381 . S
C990 H1017 0.930 . S
C991 C990 1.381 . S
C991 C993 1.381 . S
C991 C994 1.487 . S
C992 C989 1.382 . S
C992 C993 1.387 . S
C992 H1018 0.930 . S
C993 C991 1.381 . S
C993 C992 1.387 . S
C993 H1019 0.931 . S
C994 C991 1.487 . S
C994 C1001 1.399 . S
C994 N1032 1.343 . S
C995 C996 1.384 . S
C995 C997 1.384 . S
C995 H1020 0.931 . S
C996 C995 1.384 . S
C996 C999 1.382 . S
C997 C995 1.384 . S
C997 C998 1.381 . S
C997 H1021 0.930 . S
C998 C997 1.381 . S
C998 C1000 1.381 . S
C998 C1001 1.487 . S
C999 C996 1.382 . S
C999 C1000 1.387 . S
C999 H1022 0.930 . S
C1000 C998 1.381 . S
C1000 C999 1.387 . S
C1000 H1023 0.931 . S
C1001 C994 1.399 . S
C1001 C998 1.487 . S
C1001 N1033 1.343 . S
C1002 C1003 1.384 . S
C1002 C1004 1.384 . S
C1002 H1024 0.931 . S
C1003 C1002 1.384 . S
C1003 C1006 1.382 . S
C1004 C1002 1.384 . S
C1004 C1005 1.381 . S
C1004 H1025 0.930 . S
C1005 C1004 1.381 . S
C1005 C1007 1.381 . S
C1005 C1008 1.487 . S
C1006 C1003 1.382 . S
C1006 C1007 1.387 . S
C1006 H1026 0.930 . S
C1007 C1005 1.381 . S
C1007 C1006 1.387 . S
C1007 H1027 0.931 . S
C1008 C1005 1.487 . S
C1008 C1015 1.399 . S
C1008 N1033 1.343 . S
C1009 C1010 1.384 . S
C1009 C1011 1.384 . S
C1009 H1028 0.931 . S
C1010 C1009 1.384 . S
C1010 C1013 1.382 . S
C1011 C1009 1.384 . S
C1011 C1012 1.381 . S
C1011 H1029 0.930 . S
C1012 C1011 1.381 . S
C1012 C1014 1.381 . S
C1012 C1015 1.487 . S
C1013 C1010 1.382 . S
C1013 C1014 1.387 . S
C1013 H1030 0.930 . S
C1014 C1012 1.381 . S
C1014 C1013 1.387 . S
C1014 H1031 0.931 . S
C1015 C1008 1.399 . S
C1015 C1012 1.487 . S
C1015 N1032 1.343 . S
H1016 C988 0.931 . S
H1017 C990 0.930 . S
H1018 C992 0.930 . S
H1019 C993 0.931 . S
H1020 C995 0.931 . S
H1021 C997 0.930 . S
H1022 C999 0.930 . S
H1023 C1000 0.931 . S
H1024 C1002 0.931 . S
H1025 C1004 0.930 . S
H1026 C1006 0.930 . S
H1027 C1007 0.931 . S
H1028 C1009 0.931 . S
H1029 C1011 0.930 . S
H1030 C1013 0.930 . S
H1031 C1014 0.931 . S
N1032 C994 1.343 . S
N1032 C1015 1.343 . S
N1033 C1001 1.343 . S
N1033 C1008 1.343 . S
C1034 C1035 1.384 . S
C1034 C1036 1.384 . S
C1034 H1062 0.931 . S
C1035 C1034 1.384 . S
C1035 C1038 1.382 . S
C1036 C1034 1.384 . S
C1036 C1037 1.381 . S
C1036 H1063 0.930 . S
C1037 C1036 1.381 . S
C1037 C1039 1.381 . S
C1037 C1040 1.487 . S
C1038 C1035 1.382 . S
C1038 C1039 1.387 . S
C1038 H1064 0.930 . S
C1039 C1037 1.381 . S
C1039 C1038 1.387 . S
C1039 H1065 0.931 . S
C1040 C1037 1.487 . S
C1040 C1047 1.399 . S
C1040 N1078 1.343 . S
C1041 C1042 1.384 . S
C1041 C1043 1.384 . S
C1041 H1066 0.931 . S
C1042 C1041 1.384 . S
C1042 C1045 1.382 . S
C1043 C1041 1.384 . S
C1043 C1044 1.381 . S
C1043 H1067 0.930 . S
C1044 C1043 1.381 . S
C1044 C1046 1.381 . S
C1044 C1047 1.487 . S
C1045 C1042 1.382 . S
C1045 C1046 1.387 . S
C1045 H1068 0.930 . S
C1046 C1044 1.381 . S
C1046 C1045 1.387 . S
C1046 H1069 0.931 . S
C1047 C1040 1.399 . S
C1047 C1044 1.487 . S
C1047 N1079 1.343 . S
C1048 C1049 1.384 . S
C1048 C1050 1.384 . S
C1048 H1070 0.931 . S
C1049 C1048 1.384 . S
C1049 C1052 1.382 . S
C1050 C1048 1.384 . S
C1050 C1051 1.381 . S
C1050 H1071 0.930 . S
C1051 C1050 1.381 . S
C1051 C1053 1.381 . S
C1051 C1054 1.487 . S
C1052 C1049 1.382 . S
C1052 C1053 1.387 . S
C1052 H1072 0.930 . S
C1053 C1051 1.381 . S
C1053 C1052 1.387 . S
C1053 H1073 0.931 . S
C1054 C1051 1.487 . S
C1054 C1061 1.399 . S
C1054 N1079 1.343 . S
C1055 C1056 1.384 . S
C1055 C1057 1.384 . S
C1055 H1074 0.931 . S
C1056 C1055 1.384 . S
C1056 C1059 1.382 . S
C1057 C1055 1.384 . S
C1057 C1058 1.381 . S
C1057 H1075 0.930 . S
C1058 C1057 1.381 . S
C1058 C1060 1.381 . S
C1058 C1061 1.487 . S
C1059 C1056 1.382 . S
C1059 C1060 1.387 . S
C1059 H1076 0.930 . S
C1060 C1058 1.381 . S
C1060 C1059 1.387 . S
C1060 H1077 0.931 . S
C1061 C1054 1.399 . S
C1061 C1058 1.487 . S
C1061 N1078 1.343 . S
H1062 C1034 0.931 . S
H1063 C1036 0.930 . S
H1064 C1038 0.930 . S
H1065 C1039 0.931 . S
H1066 C1041 0.931 . S
H1067 C1043 0.930 . S
H1068 C1045 0.930 . S
H1069 C1046 0.931 . S
H1070 C1048 0.931 . S
H1071 C1050 0.930 . S
H1072 C1052 0.930 . S
H1073 C1053 0.931 . S
H1074 C1055 0.931 . S
H1075 C1057 0.930 . S
H1076 C1059 0.930 . S
H1077 C1060 0.931 . S
N1078 C1040 1.343 . S
N1078 C1061 1.343 . S
N1079 C1047 1.343 . S
N1079 C1054 1.343 . S
H1080 C1088 0.929 . S
H1081 C1090 0.930 . S
H1082 C1092 0.930 . S
H1083 C1095 0.929 . S
H1084 C1098 0.930 . S
H1085 C1100 0.960 . S
H1086 C1100 0.960 . S
H1087 C1100 0.960 1_655 S
C1088 H1080 0.929 . S
C1088 C1089 1.377 1_455 S
C1088 C1090 1.384 . S
C1089 C1088 1.377 1_655 S
C1089 C1095 1.390 . S
C1090 H1081 0.930 . S
C1090 C1088 1.384 . S
C1090 C1091 1.332 1_455 S
C1091 C1090 1.332 1_655 S
C1091 C1092 1.417 . S
C1091 C1096 1.486 . S
C1092 H1082 0.930 . S
C1092 C1091 1.417 . S
C1092 C1095 1.386 . S
H1093 C1109 0.930 . S
H1094 C1110 0.931 . S
C1095 H1083 0.929 . S
C1095 C1089 1.390 . S
C1095 C1092 1.386 . S
C1096 C1091 1.486 . S
C1096 C1098 1.437 . S
C1096 C1099 1.392 1_655 S
H1097 C1103 0.927 1_455 S
C1098 H1084 0.930 . S
C1098 C1096 1.437 . S
C1098 C1101 1.403 . S
C1099 C1096 1.392 1_455 S
C1099 C1100 1.537 . S
C1099 C1103 1.386 1_455 S
C1100 H1085 0.960 . S
C1100 H1086 0.960 . S
C1100 H1087 0.960 1_455 S
C1100 C1099 1.537 . S
C1101 C1098 1.403 . S
C1101 C1102 1.392 . S
C1101 C1105 1.495 . S
C1102 C1101 1.392 . S
C1102 C1103 1.391 . S
C1102 C1104 1.478 . S
C1103 H1097 0.927 1_655 S
C1103 C1099 1.386 1_655 S
C1103 C1102 1.391 . S
C1104 C1102 1.478 . S
C1104 C1106 1.381 1_655 S
C1104 C1110 1.383 . S
C1105 C1101 1.495 . S
C1105 H1111 0.959 . S
C1105 H1112 0.961 . S
C1105 H1113 0.960 1_655 S
C1106 C1104 1.381 1_455 S
C1106 C1107 1.394 . S
C1106 H1114 0.930 . S
C1107 C1106 1.394 . S
C1107 C1108 1.383 1_455 S
C1107 H1115 0.929 . S
C1108 C1107 1.383 1_655 S
C1108 C1109 1.377 . S
C1109 H1093 0.930 . S
C1109 C1108 1.377 . S
C1109 C1110 1.379 . S
C1110 H1094 0.931 . S
C1110 C1104 1.383 . S
C1110 C1109 1.379 . S
H1111 C1105 0.959 . S
H1112 C1105 0.961 . S
H1113 C1105 0.960 1_455 S
H1114 C1106 0.930 . S
H1115 C1107 0.929 . S
H1116 C1124 0.929 . S
H1117 C1126 0.930 . S
H1118 C1128 0.930 . S
H1119 C1131 0.929 . S
H1120 C1134 0.930 . S
H1121 C1136 0.960 . S
H1122 C1136 0.960 . S
H1123 C1136 0.960 . S
C1124 H1116 0.929 . S
C1124 C1125 1.377 . S
C1124 C1126 1.384 . S
C1125 C1124 1.377 . S
C1125 C1131 1.390 . S
C1126 H1117 0.930 . S
C1126 C1124 1.384 . S
C1126 C1127 1.372 . S
C1127 C1126 1.372 . S
C1127 C1128 1.400 . S
C1127 C1132 1.490 . S
C1128 H1118 0.930 . S
C1128 C1127 1.400 . S
C1128 C1131 1.386 . S
H1129 C1145 0.930 . S
H1130 C1146 0.931 . S
C1131 H1119 0.929 . S
C1131 C1125 1.390 . S
C1131 C1128 1.386 . S
C1132 C1127 1.490 . S
C1132 C1134 1.395 . S
C1132 C1135 1.403 . S
H1133 C1139 0.930 . S
C1134 H1120 0.930 . S
C1134 C1132 1.395 . S
C1134 C1137 1.403 . S
C1135 C1132 1.403 . S
C1135 C1136 1.524 . S
C1135 C1139 1.400 . S
C1136 H1121 0.960 . S
C1136 H1122 0.960 . S
C1136 H1123 0.960 . S
C1136 C1135 1.524 . S
C1137 C1134 1.403 . S
C1137 C1138 1.392 . S
C1137 C1141 1.495 . S
C1138 C1137 1.392 . S
C1138 C1139 1.385 . S
C1138 C1140 1.478 . S
C1139 H1133 0.930 . S
C1139 C1135 1.400 . S
C1139 C1138 1.385 . S
C1140 C1138 1.478 . S
C1140 C1142 1.381 . S
C1140 C1146 1.383 . S
C1141 C1137 1.495 . S
C1141 H1147 0.959 . S
C1141 H1148 0.961 . S
C1141 H1149 0.960 . S
C1142 C1140 1.381 . S
C1142 C1143 1.394 . S
C1142 H1150 0.930 . S
C1143 C1142 1.394 . S
C1143 C1144 1.383 . S
C1143 H1151 0.929 . S
C1144 C1143 1.383 . S
C1144 C1145 1.377 . S
C1145 H1129 0.930 . S
C1145 C1144 1.377 . S
C1145 C1146 1.379 . S
C1146 H1130 0.931 . S
C1146 C1140 1.383 . S
C1146 C1145 1.379 . S
H1147 C1141 0.959 . S
H1148 C1141 0.961 . S
H1149 C1141 0.960 . S
H1150 C1142 0.930 . S
H1151 C1143 0.929 . S
H1152 C1160 0.929 . S
H1153 C1162 0.930 . S
H1154 C1164 0.930 . S
H1155 C1167 0.929 . S
H1156 C1170 0.930 . S
H1157 C1172 0.960 . S
H1158 C1172 0.960 . S
H1159 C1172 0.960 1_565 S
C1160 H1152 0.929 . S
C1160 C1161 1.377 . S
C1160 C1162 1.384 . S
C1161 C1160 1.377 . S
C1161 C1167 1.390 1_545 S
C1162 H1153 0.930 . S
C1162 C1160 1.384 . S
C1162 C1163 1.372 . S
C1163 C1162 1.372 . S
C1163 C1164 1.400 1_545 S
C1163 C1168 1.490 . S
C1164 H1154 0.930 . S
C1164 C1163 1.400 1_565 S
C1164 C1167 1.386 . S
H1165 C1181 0.930 . S
H1166 C1182 0.931 . S
C1167 H1155 0.929 . S
C1167 C1161 1.390 1_565 S
C1167 C1164 1.386 . S
C1168 C1163 1.490 . S
C1168 C1170 1.395 . S
C1168 C1171 1.403 . S
H1169 C1175 0.930 . S
C1170 H1156 0.930 . S
C1170 C1168 1.395 . S
C1170 C1173 1.403 . S
C1171 C1168 1.403 . S
C1171 C1172 1.524 . S
C1171 C1175 1.400 . S
C1172 H1157 0.960 . S
C1172 H1158 0.960 . S
C1172 H1159 0.960 1_545 S
C1172 C1171 1.524 . S
C1173 C1170 1.403 . S
C1173 C1174 1.392 . S
C1173 C1177 1.495 . S
C1174 C1173 1.392 . S
C1174 C1175 1.385 . S
C1174 C1176 1.478 . S
C1175 H1169 0.930 . S
C1175 C1171 1.400 . S
C1175 C1174 1.385 . S
C1176 C1174 1.478 . S
C1176 C1178 1.381 . S
C1176 C1182 1.383 1_545 S
C1177 C1173 1.495 . S
C1177 H1183 0.959 . S
C1177 H1184 0.977 . S
C1177 H1185 0.960 . S
C1178 C1176 1.381 . S
C1178 C1179 1.394 . S
C1178 H1186 0.930 . S
C1179 C1178 1.394 . S
C1179 C1180 1.383 . S
C1179 H1187 0.929 . S
C1180 C1179 1.383 . S
C1180 C1181 1.377 1_545 S
C1181 H1165 0.930 . S
C1181 C1180 1.377 1_565 S
C1181 C1182 1.379 . S
C1182 H1166 0.931 . S
C1182 C1176 1.383 1_565 S
C1182 C1181 1.379 . S
H1183 C1177 0.959 . S
H1184 C1177 0.977 . S
H1185 C1177 0.960 . S
H1186 C1178 0.930 . S
H1187 C1179 0.929 . S
H1188 C1196 0.929 . S
H1189 C1198 0.930 . S
H1190 C1200 0.930 . S
H1191 C1203 0.929 . S
H1192 C1206 0.930 . S
H1193 C1208 0.960 . S
H1194 C1208 0.960 . S
H1195 C1208 0.960 . S
C1196 H1188 0.929 . S
C1196 C1197 1.377 . S
C1196 C1198 1.384 . S
C1197 C1196 1.377 . S
C1197 C1203 1.390 1_545 S
C1198 H1189 0.930 . S
C1198 C1196 1.384 . S
C1198 C1199 1.395 . S
C1199 C1198 1.395 . S
C1199 C1200 1.415 1_545 S
C1199 C1204 1.462 . S
C1200 H1190 0.930 . S
C1200 C1199 1.415 1_565 S
C1200 C1203 1.386 . S
H1201 C1217 0.930 . S
H1202 C1218 0.931 . S
C1203 H1191 0.929 . S
C1203 C1197 1.390 1_565 S
C1203 C1200 1.386 . S
C1204 C1199 1.462 . S
C1204 C1206 1.385 1_545 S
C1204 C1207 1.407 . S
H1205 C1211 0.930 . S
C1206 H1192 0.930 . S
C1206 C1204 1.385 1_565 S
C1206 C1209 1.403 . S
C1207 C1204 1.407 . S
C1207 C1208 1.524 . S
C1207 C1211 1.400 . S
C1208 H1193 0.960 . S
C1208 H1194 0.960 . S
C1208 H1195 0.960 . S
C1208 C1207 1.524 . S
C1209 C1206 1.403 . S
C1209 C1210 1.392 . S
C1209 C1213 1.495 . S
C1210 C1209 1.392 . S
C1210 C1211 1.385 1_565 S
C1210 C1212 1.478 . S
C1211 H1205 0.930 . S
C1211 C1207 1.400 . S
C1211 C1210 1.385 1_545 S
C1212 C1210 1.478 . S
C1212 C1214 1.381 1_565 S
C1212 C1218 1.383 . S
C1213 C1209 1.495 . S
C1213 H1219 0.959 . S
C1213 H1220 0.961 . S
C1213 H1221 0.960 . S
C1214 C1212 1.381 1_545 S
C1214 C1215 1.394 . S
C1214 H1222 0.930 . S
C1215 C1214 1.394 . S
C1215 C1216 1.383 1_545 S
C1215 H1223 0.929 . S
C1216 C1215 1.383 1_565 S
C1216 C1217 1.377 . S
C1217 H1201 0.930 . S
C1217 C1216 1.377 . S
C1217 C1218 1.379 . S
C1218 H1202 0.931 . S
C1218 C1212 1.383 . S
C1218 C1217 1.379 . S
H1219 C1213 0.959 . S
H1220 C1213 0.961 . S
H1221 C1213 0.960 . S
H1222 C1214 0.930 . S
H1223 C1215 0.929 . S
H1224 C1232 0.929 . S
H1225 C1234 0.930 . S
H1226 C1236 0.930 . S
H1227 C1239 0.929 . S
H1228 C1242 0.930 . S
H1229 C1244 0.960 . S
H1230 C1244 0.960 . S
H1231 C1244 0.960 . S
C1232 H1224 0.929 . S
C1232 C1233 1.377 . S
C1232 C1234 1.384 . S
C1233 C1232 1.377 . S
C1233 C1239 1.390 1_455 S
C1234 H1225 0.930 . S
C1234 C1232 1.384 . S
C1234 C1235 1.372 . S
C1235 C1234 1.372 . S
C1235 C1236 1.400 1_455 S
C1235 C1240 1.490 . S
C1236 H1226 0.930 . S
C1236 C1235 1.400 1_655 S
C1236 C1239 1.386 . S
H1237 C1253 0.930 . S
H1238 C1254 0.931 . S
C1239 H1227 0.929 . S
C1239 C1233 1.390 1_655 S
C1239 C1236 1.386 . S
C1240 C1235 1.490 . S
C1240 C1242 1.395 . S
C1240 C1243 1.403 1_455 S
H1241 C1247 0.930 . S
C1242 H1228 0.930 . S
C1242 C1240 1.395 . S
C1242 C1245 1.403 . S
C1243 C1240 1.403 1_655 S
C1243 C1244 1.524 . S
C1243 C1247 1.400 . S
C1244 H1229 0.960 . S
C1244 H1230 0.960 . S
C1244 H1231 0.960 . S
C1244 C1243 1.524 . S
C1245 C1242 1.403 . S
C1245 C1246 1.392 . S
C1245 C1249 1.495 . S
C1246 C1245 1.392 . S
C1246 C1247 1.385 1_455 S
C1246 C1248 1.478 . S
C1247 H1241 0.930 . S
C1247 C1243 1.400 . S
C1247 C1246 1.385 1_655 S
C1248 C1246 1.478 . S
C1248 C1250 1.381 . S
C1248 C1254 1.383 1_455 S
C1249 C1245 1.495 . S
C1249 H1255 0.959 . S
C1249 H1256 0.961 . S
C1249 H1257 0.960 . S
C1250 C1248 1.381 . S
C1250 C1251 1.394 . S
C1250 H1258 0.930 . S
C1251 C1250 1.394 . S
C1251 C1252 1.383 . S
C1251 H1259 0.929 . S
C1252 C1251 1.383 . S
C1252 C1253 1.377 1_455 S
C1253 H1237 0.930 . S
C1253 C1252 1.377 1_655 S
C1253 C1254 1.379 . S
C1254 H1238 0.931 . S
C1254 C1248 1.383 1_655 S
C1254 C1253 1.379 . S
H1255 C1249 0.959 . S
H1256 C1249 0.961 . S
H1257 C1249 0.960 . S
H1258 C1250 0.930 . S
H1259 C1251 0.929 . S
H1260 C1268 0.929 . S
H1261 C1270 0.930 . S
H1262 C1272 0.930 . S
H1263 C1275 0.929 . S
H1264 C1278 0.930 . S
H1265 C1280 0.960 . S
H1266 C1280 0.960 . S
H1267 C1280 0.960 . S
C1268 H1260 0.929 . S
C1268 C1269 1.377 . S
C1268 C1270 1.384 . S
C1269 C1268 1.377 . S
C1269 C1275 1.390 . S
C1270 H1261 0.930 . S
C1270 C1268 1.384 . S
C1270 C1271 1.372 . S
C1271 C1270 1.372 . S
C1271 C1272 1.400 . S
C1271 C1276 1.490 . S
C1272 H1262 0.930 . S
C1272 C1271 1.400 . S
C1272 C1275 1.386 . S
H1273 C1289 0.930 . S
H1274 C1290 0.931 . S
C1275 H1263 0.929 . S
C1275 C1269 1.390 . S
C1275 C1272 1.386 . S
C1276 C1271 1.490 . S
C1276 C1278 1.395 . S
C1276 C1279 1.403 . S
H1277 C1283 0.930 . S
C1278 H1264 0.930 . S
C1278 C1276 1.395 . S
C1278 C1281 1.403 . S
C1279 C1276 1.403 . S
C1279 C1280 1.524 . S
C1279 C1283 1.400 . S
C1280 H1265 0.960 . S
C1280 H1266 0.960 . S
C1280 H1267 0.960 . S
C1280 C1279 1.524 . S
C1281 C1278 1.403 . S
C1281 C1282 1.392 . S
C1281 C1285 1.495 . S
C1282 C1281 1.392 . S
C1282 C1283 1.385 . S
C1282 C1284 1.478 . S
C1283 H1277 0.930 . S
C1283 C1279 1.400 . S
C1283 C1282 1.385 . S
C1284 C1282 1.478 . S
C1284 C1286 1.381 . S
C1284 C1290 1.383 . S
C1285 C1281 1.495 . S
C1285 H1291 0.959 . S
C1285 H1292 0.961 . S
C1285 H1293 0.960 . S
C1286 C1284 1.381 . S
C1286 C1287 1.394 . S
C1286 H1294 0.930 . S
C1287 C1286 1.394 . S
C1287 C1288 1.383 . S
C1287 H1295 0.929 . S
C1288 C1287 1.383 . S
C1288 C1289 1.377 . S
C1289 H1273 0.930 . S
C1289 C1288 1.377 . S
C1289 C1290 1.379 . S
C1290 H1274 0.931 . S
C1290 C1284 1.383 . S
C1290 C1289 1.379 . S
H1291 C1285 0.959 . S
H1292 C1285 0.961 . S
H1293 C1285 0.960 . S
H1294 C1286 0.930 . S
H1295 C1287 0.929 . S
H1296 C1304 0.929 . S
H1297 C1306 0.930 . S
H1298 C1308 0.930 . S
H1299 C1311 0.929 . S
H1300 C1314 0.930 . S
H1301 C1316 0.960 . S
H1302 C1316 0.960 . S
H1303 C1316 0.960 . S
C1304 H1296 0.929 . S
C1304 C1305 1.377 . S
C1304 C1306 1.384 . S
C1305 C1304 1.377 . S
C1305 C1311 1.390 1_455 S
C1306 H1297 0.930 . S
C1306 C1304 1.384 . S
C1306 C1307 1.372 . S
C1307 C1306 1.372 . S
C1307 C1308 1.400 1_455 S
C1307 C1312 1.490 . S
C1308 H1298 0.930 . S
C1308 C1307 1.400 1_655 S
C1308 C1311 1.386 . S
H1309 C1325 0.930 . S
H1310 C1326 0.931 . S
C1311 H1299 0.929 . S
C1311 C1305 1.390 1_655 S
C1311 C1308 1.386 . S
C1312 C1307 1.490 . S
C1312 C1314 1.395 . S
C1312 C1315 1.403 . S
H1313 C1319 0.930 . S
C1314 H1300 0.930 . S
C1314 C1312 1.395 . S
C1314 C1317 1.377 . S
C1315 C1312 1.403 . S
C1315 C1316 1.524 . S
C1315 C1319 1.400 . S
C1316 H1301 0.960 . S
C1316 H1302 0.960 . S
C1316 H1303 0.960 . S
C1316 C1315 1.524 . S
C1317 C1314 1.377 . S
C1317 C1318 1.397 . S
C1317 C1321 1.520 1_455 S
C1318 C1317 1.397 . S
C1318 C1319 1.385 . S
C1318 C1320 1.478 . S
C1319 H1313 0.930 . S
C1319 C1315 1.400 . S
C1319 C1318 1.385 . S
C1320 C1318 1.478 . S
C1320 C1322 1.381 . S
C1320 C1326 1.383 1_455 S
C1321 C1317 1.520 1_655 S
C1321 H1327 0.959 . S
C1321 H1328 0.961 . S
C1321 H1329 0.960 1_655 S
C1322 C1320 1.381 . S
C1322 C1323 1.394 . S
C1322 H1330 0.930 . S
C1323 C1322 1.394 . S
C1323 C1324 1.383 . S
C1323 H1331 0.929 . S
C1324 C1323 1.383 . S
C1324 C1325 1.377 1_455 S
C1325 H1309 0.930 . S
C1325 C1324 1.377 1_655 S
C1325 C1326 1.379 . S
C1326 H1310 0.931 . S
C1326 C1320 1.383 1_655 S
C1326 C1325 1.379 . S
H1327 C1321 0.959 . S
H1328 C1321 0.961 . S
H1329 C1321 0.960 1_455 S
H1330 C1322 0.930 . S
H1331 C1323 0.929 . S
H1332 C1340 0.929 . S
H1333 C1342 0.930 . S
H1334 C1344 0.930 . S
H1335 C1347 0.929 . S
H1336 C1350 0.930 . S
H1337 C1352 0.960 . S
H1338 C1352 0.960 . S
H1339 C1352 0.960 . S
C1340 H1332 0.929 . S
C1340 C1341 1.377 . S
C1340 C1342 1.384 . S
C1341 C1340 1.377 . S
C1341 C1347 1.390 . S
C1342 H1333 0.930 . S
C1342 C1340 1.384 . S
C1342 C1343 1.372 . S
C1343 C1342 1.372 . S
C1343 C1344 1.400 . S
C1343 C1348 1.490 . S
C1344 H1334 0.930 . S
C1344 C1343 1.400 . S
C1344 C1347 1.386 . S
H1345 C1361 0.930 . S
H1346 C1362 0.931 . S
C1347 H1335 0.929 . S
C1347 C1341 1.390 . S
C1347 C1344 1.386 . S
C1348 C1343 1.490 . S
C1348 C1350 1.395 . S
C1348 C1351 1.403 . S
H1349 C1355 0.930 . S
C1350 H1336 0.930 . S
C1350 C1348 1.395 . S
C1350 C1353 1.403 . S
C1351 C1348 1.403 . S
C1351 C1352 1.524 . S
C1351 C1355 1.400 . S
C1352 H1337 0.960 . S
C1352 H1338 0.960 . S
C1352 H1339 0.960 . S
C1352 C1351 1.524 . S
C1353 C1350 1.403 . S
C1353 C1354 1.392 . S
C1353 C1357 1.495 . S
C1354 C1353 1.392 . S
C1354 C1355 1.385 . S
C1354 C1356 1.478 . S
C1355 H1349 0.930 . S
C1355 C1351 1.400 . S
C1355 C1354 1.385 . S
C1356 C1354 1.478 . S
C1356 C1358 1.381 . S
C1356 C1362 1.383 . S
C1357 C1353 1.495 . S
C1357 H1363 0.959 . S
C1357 H1364 0.961 . S
C1357 H1365 0.960 . S
C1358 C1356 1.381 . S
C1358 C1359 1.394 . S
C1358 H1366 0.930 . S
C1359 C1358 1.394 . S
C1359 C1360 1.383 . S
C1359 H1367 0.929 . S
C1360 C1359 1.383 . S
C1360 C1361 1.377 . S
C1361 H1345 0.930 . S
C1361 C1360 1.377 . S
C1361 C1362 1.379 . S
C1362 H1346 0.931 . S
C1362 C1356 1.383 . S
C1362 C1361 1.379 . S
H1363 C1357 0.959 . S
H1364 C1357 0.961 . S
H1365 C1357 0.960 . S
H1366 C1358 0.930 . S
H1367 C1359 0.929 . S
H1368 C1376 0.929 . S
H1369 C1378 0.930 . S
H1370 C1380 0.930 . S
H1371 C1383 0.929 . S
H1372 C1386 0.930 . S
H1373 C1388 0.960 . S
H1374 C1388 0.960 . S
H1375 C1388 0.960 . S
C1376 H1368 0.929 . S
C1376 C1377 1.377 1_545 S
C1376 C1378 1.384 . S
C1377 C1376 1.377 1_565 S
C1377 C1383 1.390 . S
C1378 H1369 0.930 . S
C1378 C1376 1.384 . S
C1378 C1379 1.372 1_545 S
C1379 C1378 1.372 1_565 S
C1379 C1380 1.400 . S
C1379 C1384 1.490 . S
C1380 H1370 0.930 . S
C1380 C1379 1.400 . S
C1380 C1383 1.386 . S
H1381 C1397 0.930 . S
H1382 C1398 0.931 . S
C1383 H1371 0.929 . S
C1383 C1377 1.390 . S
C1383 C1380 1.386 . S
C1384 C1379 1.490 . S
C1384 C1386 1.395 1_565 S
C1384 C1387 1.403 . S
H1385 C1391 0.930 . S
C1386 H1372 0.930 . S
C1386 C1384 1.395 1_545 S
C1386 C1389 1.403 . S
C1387 C1384 1.403 . S
C1387 C1388 1.524 . S
C1387 C1391 1.400 . S
C1388 H1373 0.960 . S
C1388 H1374 0.960 . S
C1388 H1375 0.960 . S
C1388 C1387 1.524 . S
C1389 C1386 1.403 . S
C1389 C1390 1.392 1_545 S
C1389 C1393 1.495 . S
C1390 C1389 1.392 1_565 S
C1390 C1391 1.385 . S
C1390 C1392 1.478 . S
C1391 H1385 0.930 . S
C1391 C1387 1.400 . S
C1391 C1390 1.385 . S
C1392 C1390 1.478 . S
C1392 C1394 1.381 1_565 S
C1392 C1398 1.383 . S
C1393 C1389 1.495 . S
C1393 H1399 0.959 . S
C1393 H1400 0.961 . S
C1393 H1401 0.960 . S
C1394 C1392 1.381 1_545 S
C1394 C1395 1.394 . S
C1394 H1402 0.930 . S
C1395 C1394 1.394 . S
C1395 C1396 1.383 1_545 S
C1395 H1403 0.929 . S
C1396 C1395 1.383 1_565 S
C1396 C1397 1.377 . S
C1397 H1381 0.930 . S
C1397 C1396 1.377 . S
C1397 C1398 1.379 . S
C1398 H1382 0.931 . S
C1398 C1392 1.383 . S
C1398 C1397 1.379 . S
H1399 C1393 0.959 . S
H1400 C1393 0.961 . S
H1401 C1393 0.960 . S
H1402 C1394 0.930 . S
H1403 C1395 0.929 . S
H1404 C1412 0.929 . S
H1405 C1414 0.930 . S
H1406 C1416 0.930 . S
H1407 C1419 0.929 . S
H1408 C1422 0.930 . S
H1409 C1424 0.960 . S
H1410 C1424 0.960 . S
H1411 C1424 0.960 . S
C1412 H1404 0.929 . S
C1412 C1413 1.377 . S
C1412 C1414 1.384 . S
C1413 C1412 1.377 . S
C1413 C1419 1.390 1_545 S
C1414 H1405 0.930 . S
C1414 C1412 1.384 . S
C1414 C1415 1.372 . S
C1415 C1414 1.372 . S
C1415 C1416 1.400 1_545 S
C1415 C1420 1.490 . S
C1416 H1406 0.930 . S
C1416 C1415 1.400 1_565 S
C1416 C1419 1.386 . S
H1417 C1433 0.930 . S
H1418 C1434 0.931 . S
C1419 H1407 0.929 . S
C1419 C1413 1.390 1_565 S
C1419 C1416 1.386 . S
C1420 C1415 1.490 . S
C1420 C1422 1.395 1_545 S
C1420 C1423 1.403 . S
H1421 C1427 0.930 . S
C1422 H1408 0.930 . S
C1422 C1420 1.395 1_565 S
C1422 C1425 1.403 . S
C1423 C1420 1.403 . S
C1423 C1424 1.524 . S
C1423 C1427 1.400 . S
C1424 H1409 0.960 . S
C1424 H1410 0.960 . S
C1424 H1411 0.960 . S
C1424 C1423 1.524 . S
C1425 C1422 1.403 . S
C1425 C1426 1.392 1_565 S
C1425 C1429 1.495 . S
C1426 C1425 1.392 1_545 S
C1426 C1427 1.385 . S
C1426 C1428 1.478 . S
C1427 H1421 0.930 . S
C1427 C1423 1.400 . S
C1427 C1426 1.385 . S
C1428 C1426 1.478 . S
C1428 C1430 1.381 . S
C1428 C1434 1.383 1_545 S
C1429 C1425 1.495 . S
C1429 H1435 0.959 . S
C1429 H1436 0.961 . S
C1429 H1437 0.960 . S
C1430 C1428 1.381 . S
C1430 C1431 1.394 . S
C1430 H1438 0.930 . S
C1431 C1430 1.394 . S
C1431 C1432 1.383 . S
C1431 H1439 0.929 . S
C1432 C1431 1.383 . S
C1432 C1433 1.377 1_545 S
C1433 H1417 0.930 . S
C1433 C1432 1.377 1_565 S
C1433 C1434 1.379 . S
C1434 H1418 0.931 . S
C1434 C1428 1.383 1_565 S
C1434 C1433 1.379 . S
H1435 C1429 0.959 . S
H1436 C1429 0.961 . S
H1437 C1429 0.960 . S
H1438 C1430 0.930 . S
H1439 C1431 0.929 . S
H1440 C1448 0.929 . S
H1441 C1450 0.930 . S
H1442 C1452 0.930 . S
H1443 C1455 0.929 . S
H1444 C1458 0.930 . S
H1445 C1460 0.960 . S
H1446 C1460 0.960 . S
H1447 C1460 0.960 . S
C1448 H1440 0.929 . S
C1448 C1449 1.377 . S
C1448 C1450 1.384 . S
C1449 C1448 1.377 . S
C1449 C1455 1.390 1_655 S
C1450 H1441 0.930 . S
C1450 C1448 1.384 . S
C1450 C1451 1.372 . S
C1451 C1450 1.372 . S
C1451 C1452 1.400 1_655 S
C1451 C1456 1.490 . S
C1452 H1442 0.930 . S
C1452 C1451 1.400 1_455 S
C1452 C1455 1.386 . S
H1453 C1469 0.930 . S
H1454 C1470 0.931 . S
C1455 H1443 0.929 . S
C1455 C1449 1.390 1_455 S
C1455 C1452 1.386 . S
C1456 C1451 1.490 . S
C1456 C1458 1.395 . S
C1456 C1459 1.403 1_655 S
H1457 C1463 0.930 . S
C1458 H1444 0.930 . S
C1458 C1456 1.395 . S
C1458 C1461 1.403 . S
C1459 C1456 1.403 1_455 S
C1459 C1460 1.524 . S
C1459 C1463 1.400 . S
C1460 H1445 0.960 . S
C1460 H1446 0.960 . S
C1460 H1447 0.960 . S
C1460 C1459 1.524 . S
C1461 C1458 1.403 . S
C1461 C1462 1.392 . S
C1461 C1465 1.495 . S
C1462 C1461 1.392 . S
C1462 C1463 1.385 1_655 S
C1462 C1464 1.478 . S
C1463 H1457 0.930 . S
C1463 C1459 1.400 . S
C1463 C1462 1.385 1_455 S
C1464 C1462 1.478 . S
C1464 C1466 1.381 . S
C1464 C1470 1.383 1_655 S
C1465 C1461 1.495 . S
C1465 H1471 0.959 . S
C1465 H1472 0.961 . S
C1465 H1473 0.960 . S
C1466 C1464 1.381 . S
C1466 C1467 1.394 . S
C1466 H1474 0.930 . S
C1467 C1466 1.394 . S
C1467 C1468 1.383 . S
C1467 H1475 0.929 . S
C1468 C1467 1.383 . S
C1468 C1469 1.377 1_655 S
C1469 H1453 0.930 . S
C1469 C1468 1.377 1_455 S
C1469 C1470 1.379 . S
C1470 H1454 0.931 . S
C1470 C1464 1.383 1_455 S
C1470 C1469 1.379 . S
H1471 C1465 0.959 . S
H1472 C1465 0.961 . S
H1473 C1465 0.960 . S
H1474 C1466 0.930 . S
H1475 C1467 0.929 . S
H1476 C1484 0.929 . S
H1477 C1486 0.930 . S
H1478 C1488 0.930 . S
H1479 C1491 0.929 . S
H1480 C1494 0.930 . S
H1481 C1496 0.960 . S
H1482 C1496 0.960 . S
H1483 C1496 0.960 . S
C1484 H1476 0.929 . S
C1484 C1485 1.377 . S
C1484 C1486 1.384 . S
C1485 C1484 1.377 . S
C1485 C1491 1.390 . S
C1486 H1477 0.930 . S
C1486 C1484 1.384 . S
C1486 C1487 1.372 . S
C1487 C1486 1.372 . S
C1487 C1488 1.400 . S
C1487 C1492 1.490 . S
C1488 H1478 0.930 . S
C1488 C1487 1.400 . S
C1488 C1491 1.386 . S
H1489 C1505 0.930 . S
H1490 C1506 0.931 . S
C1491 H1479 0.929 . S
C1491 C1485 1.390 . S
C1491 C1488 1.386 . S
C1492 C1487 1.490 . S
C1492 C1494 1.395 . S
C1492 C1495 1.403 . S
H1493 C1499 0.930 . S
C1494 H1480 0.930 . S
C1494 C1492 1.395 . S
C1494 C1497 1.403 . S
C1495 C1492 1.403 . S
C1495 C1496 1.524 . S
C1495 C1499 1.400 . S
C1496 H1481 0.960 . S
C1496 H1482 0.960 . S
C1496 H1483 0.960 . S
C1496 C1495 1.524 . S
C1497 C1494 1.403 . S
C1497 C1498 1.392 . S
C1497 C1501 1.495 . S
C1498 C1497 1.392 . S
C1498 C1499 1.385 . S
C1498 C1500 1.478 . S
C1499 H1493 0.930 . S
C1499 C1495 1.400 . S
C1499 C1498 1.385 . S
C1500 C1498 1.478 . S
C1500 C1502 1.381 . S
C1500 C1506 1.383 . S
C1501 C1497 1.495 . S
C1501 H1507 0.959 . S
C1501 H1508 0.961 . S
C1501 H1509 0.960 . S
C1502 C1500 1.381 . S
C1502 C1503 1.394 . S
C1502 H1510 0.930 . S
C1503 C1502 1.394 . S
C1503 C1504 1.383 . S
C1503 H1511 0.929 . S
C1504 C1503 1.383 . S
C1504 C1505 1.377 . S
C1505 H1489 0.930 . S
C1505 C1504 1.377 . S
C1505 C1506 1.379 . S
C1506 H1490 0.931 . S
C1506 C1500 1.383 . S
C1506 C1505 1.379 . S
H1507 C1501 0.959 . S
H1508 C1501 0.961 . S
H1509 C1501 0.960 . S
H1510 C1502 0.930 . S
H1511 C1503 0.929 . S
H1512 C1520 0.929 . S
H1513 C1522 0.930 . S
H1514 C1524 0.930 . S
H1515 C1527 0.929 . S
H1516 C1530 0.930 . S
H1517 C1532 0.960 . S
H1518 C1532 0.960 . S
H1519 C1532 0.960 . S
C1520 H1512 0.929 . S
C1520 C1521 1.377 . S
C1520 C1522 1.384 . S
C1521 C1520 1.377 . S
C1521 C1527 1.390 . S
C1522 H1513 0.930 . S
C1522 C1520 1.384 . S
C1522 C1523 1.372 . S
C1523 C1522 1.372 . S
C1523 C1524 1.400 . S
C1523 C1528 1.490 . S
C1524 H1514 0.930 . S
C1524 C1523 1.400 . S
C1524 C1527 1.386 . S
H1525 C1541 0.930 . S
H1526 C1542 0.931 . S
C1527 H1515 0.929 . S
C1527 C1521 1.390 . S
C1527 C1524 1.386 . S
C1528 C1523 1.490 . S
C1528 C1530 1.395 . S
C1528 C1531 1.403 . S
H1529 C1535 0.930 . S
C1530 H1516 0.930 . S
C1530 C1528 1.395 . S
C1530 C1533 1.403 . S
C1531 C1528 1.403 . S
C1531 C1532 1.524 . S
C1531 C1535 1.400 . S
C1532 H1517 0.960 . S
C1532 H1518 0.960 . S
C1532 H1519 0.960 . S
C1532 C1531 1.524 . S
C1533 C1530 1.403 . S
C1533 C1534 1.392 . S
C1533 C1537 1.495 . S
C1534 C1533 1.392 . S
C1534 C1535 1.385 . S
C1534 C1536 1.478 . S
C1535 H1529 0.930 . S
C1535 C1531 1.400 . S
C1535 C1534 1.385 . S
C1536 C1534 1.478 . S
C1536 C1538 1.381 . S
C1536 C1542 1.383 . S
C1537 C1533 1.495 . S
C1537 H1543 0.959 . S
C1537 H1544 0.961 . S
C1537 H1545 0.960 . S
C1538 C1536 1.381 . S
C1538 C1539 1.394 . S
C1538 H1546 0.930 . S
C1539 C1538 1.394 . S
C1539 C1540 1.383 . S
C1539 H1547 0.929 . S
C1540 C1539 1.383 . S
C1540 C1541 1.377 . S
C1541 H1525 0.930 . S
C1541 C1540 1.377 . S
C1541 C1542 1.379 . S
C1542 H1526 0.931 . S
C1542 C1536 1.383 . S
C1542 C1541 1.379 . S
H1543 C1537 0.959 . S
H1544 C1537 0.961 . S
H1545 C1537 0.960 . S
H1546 C1538 0.930 . S
H1547 C1539 0.929 . S
H1548 C1556 0.929 . S
H1549 C1558 0.930 . S
H1550 C1560 0.930 . S
H1551 C1563 0.929 . S
H1552 C1566 0.930 . S
H1553 C1568 0.960 . S
H1554 C1568 0.960 . S
H1555 C1568 0.960 . S
C1556 H1548 0.929 . S
C1556 C1557 1.377 . S
C1556 C1558 1.384 . S
C1557 C1556 1.377 . S
C1557 C1563 1.390 . S
C1558 H1549 0.930 . S
C1558 C1556 1.384 . S
C1558 C1559 1.372 . S
C1559 C1558 1.372 . S
C1559 C1560 1.400 . S
C1559 C1564 1.490 . S
C1560 H1550 0.930 . S
C1560 C1559 1.400 . S
C1560 C1563 1.386 . S
H1561 C1577 0.930 . S
H1562 C1578 0.931 . S
C1563 H1551 0.929 . S
C1563 C1557 1.390 . S
C1563 C1560 1.386 . S
C1564 C1559 1.490 . S
C1564 C1566 1.395 . S
C1564 C1567 1.403 . S
H1565 C1571 0.930 . S
C1566 H1552 0.930 . S
C1566 C1564 1.395 . S
C1566 C1569 1.403 . S
C1567 C1564 1.403 . S
C1567 C1568 1.524 . S
C1567 C1571 1.400 . S
C1568 H1553 0.960 . S
C1568 H1554 0.960 . S
C1568 H1555 0.960 . S
C1568 C1567 1.524 . S
C1569 C1566 1.403 . S
C1569 C1570 1.392 . S
C1569 C1573 1.495 . S
C1570 C1569 1.392 . S
C1570 C1571 1.385 . S
C1570 C1572 1.478 . S
C1571 H1565 0.930 . S
C1571 C1567 1.400 . S
C1571 C1570 1.385 . S
C1572 C1570 1.478 . S
C1572 C1574 1.381 . S
C1572 C1578 1.383 . S
C1573 C1569 1.495 . S
C1573 H1579 0.959 . S
C1573 H1580 0.961 . S
C1573 H1581 0.960 . S
C1574 C1572 1.381 . S
C1574 C1575 1.394 . S
C1574 H1582 0.930 . S
C1575 C1574 1.394 . S
C1575 C1576 1.383 . S
C1575 H1583 0.929 . S
C1576 C1575 1.383 . S
C1576 C1577 1.377 . S
C1577 H1561 0.930 . S
C1577 C1576 1.377 . S
C1577 C1578 1.379 . S
C1578 H1562 0.931 . S
C1578 C1572 1.383 . S
C1578 C1577 1.379 . S
H1579 C1573 0.959 . S
H1580 C1573 0.961 . S
H1581 C1573 0.960 . S
H1582 C1574 0.930 . S
H1583 C1575 0.929 . S
H1584 C1592 0.929 . S
H1585 C1594 0.930 . S
H1586 C1596 0.930 . S
H1587 C1599 0.929 . S
H1588 C1602 0.930 . S
H1589 C1604 0.960 . S
H1590 C1604 0.960 . S
H1591 C1604 0.960 . S
C1592 H1584 0.929 . S
C1592 C1593 1.377 . S
C1592 C1594 1.384 . S
C1593 C1592 1.377 . S
C1593 C1599 1.390 . S
C1594 H1585 0.930 . S
C1594 C1592 1.384 . S
C1594 C1595 1.372 . S
C1595 C1594 1.372 . S
C1595 C1596 1.400 . S
C1595 C1600 1.490 . S
C1596 H1586 0.930 . S
C1596 C1595 1.400 . S
C1596 C1599 1.386 . S
H1597 C1613 0.930 . S
H1598 C1614 0.931 . S
C1599 H1587 0.929 . S
C1599 C1593 1.390 . S
C1599 C1596 1.386 . S
C1600 C1595 1.490 . S
C1600 C1602 1.395 . S
C1600 C1603 1.403 . S
H1601 C1607 0.930 . S
C1602 H1588 0.930 . S
C1602 C1600 1.395 . S
C1602 C1605 1.403 . S
C1603 C1600 1.403 . S
C1603 C1604 1.524 . S
C1603 C1607 1.400 . S
C1604 H1589 0.960 . S
C1604 H1590 0.960 . S
C1604 H1591 0.960 . S
C1604 C1603 1.524 . S
C1605 C1602 1.403 . S
C1605 C1606 1.392 . S
C1605 C1609 1.495 . S
C1606 C1605 1.392 . S
C1606 C1607 1.385 . S
C1606 C1608 1.478 . S
C1607 H1601 0.930 . S
C1607 C1603 1.400 . S
C1607 C1606 1.385 . S
C1608 C1606 1.478 . S
C1608 C1610 1.381 . S
C1608 C1614 1.383 . S
C1609 C1605 1.495 . S
C1609 H1615 0.959 . S
C1609 H1616 0.961 . S
C1609 H1617 0.960 . S
C1610 C1608 1.381 . S
C1610 C1611 1.394 . S
C1610 H1618 0.930 . S
C1611 C1610 1.394 . S
C1611 C1612 1.383 . S
C1611 H1619 0.929 . S
C1612 C1611 1.383 . S
C1612 C1613 1.377 . S
C1613 H1597 0.930 . S
C1613 C1612 1.377 . S
C1613 C1614 1.379 . S
C1614 H1598 0.931 . S
C1614 C1608 1.383 . S
C1614 C1613 1.379 . S
H1615 C1609 0.959 . S
H1616 C1609 0.961 . S
H1617 C1609 0.960 . S
H1618 C1610 0.930 . S
H1619 C1611 0.929 . S
H1620 C1628 0.929 . S
H1621 C1630 0.930 . S
H1622 C1632 0.930 . S
H1623 C1635 0.929 . S
H1624 C1638 0.930 . S
H1625 C1640 0.960 . S
H1626 C1640 0.960 . S
H1627 C1640 0.960 . S
C1628 H1620 0.929 . S
C1628 C1629 1.377 . S
C1628 C1630 1.384 . S
C1629 C1628 1.377 . S
C1629 C1635 1.390 . S
C1630 H1621 0.930 . S
C1630 C1628 1.384 . S
C1630 C1631 1.372 . S
C1631 C1630 1.372 . S
C1631 C1632 1.400 . S
C1631 C1636 1.490 . S
C1632 H1622 0.930 . S
C1632 C1631 1.400 . S
C1632 C1635 1.386 . S
H1633 C1649 0.930 . S
H1634 C1650 0.931 . S
C1635 H1623 0.929 . S
C1635 C1629 1.390 . S
C1635 C1632 1.386 . S
C1636 C1631 1.490 . S
C1636 C1638 1.395 . S
C1636 C1639 1.403 . S
H1637 C1643 0.930 . S
C1638 H1624 0.930 . S
C1638 C1636 1.395 . S
C1638 C1641 1.403 . S
C1639 C1636 1.403 . S
C1639 C1640 1.524 . S
C1639 C1643 1.400 . S
C1640 H1625 0.960 . S
C1640 H1626 0.960 . S
C1640 H1627 0.960 . S
C1640 C1639 1.524 . S
C1641 C1638 1.403 . S
C1641 C1642 1.392 . S
C1641 C1645 1.495 . S
C1642 C1641 1.392 . S
C1642 C1643 1.385 . S
C1642 C1644 1.478 . S
C1643 H1637 0.930 . S
C1643 C1639 1.400 . S
C1643 C1642 1.385 . S
C1644 C1642 1.478 . S
C1644 C1646 1.381 . S
C1644 C1650 1.383 . S
C1645 C1641 1.495 . S
C1645 H1651 0.959 . S
C1645 H1652 0.961 . S
C1645 H1653 0.960 . S
C1646 C1644 1.381 . S
C1646 C1647 1.394 . S
C1646 H1654 0.930 . S
C1647 C1646 1.394 . S
C1647 C1648 1.383 . S
C1647 H1655 0.929 . S
C1648 C1647 1.383 . S
C1648 C1649 1.377 . S
C1649 H1633 0.930 . S
C1649 C1648 1.377 . S
C1649 C1650 1.379 . S
C1650 H1634 0.931 . S
C1650 C1644 1.383 . S
C1650 C1649 1.379 . S
H1651 C1645 0.959 . S
H1652 C1645 0.961 . S
H1653 C1645 0.960 . S
H1654 C1646 0.930 . S
H1655 C1647 0.929 . S
H1656 C1664 0.929 . S
H1657 C1666 0.930 . S
H1658 C1668 0.930 . S
H1659 C1671 0.929 . S
H1660 C1674 0.930 . S
H1661 C1676 0.960 . S
H1662 C1676 0.960 . S
H1663 C1676 0.960 . S
C1664 H1656 0.929 . S
C1664 C1665 1.377 . S
C1664 C1666 1.384 . S
C1665 C1664 1.377 . S
C1665 C1671 1.390 . S
C1666 H1657 0.930 . S
C1666 C1664 1.384 . S
C1666 C1667 1.372 . S
C1667 C1666 1.372 . S
C1667 C1668 1.400 . S
C1667 C1672 1.490 . S
C1668 H1658 0.930 . S
C1668 C1667 1.400 . S
C1668 C1671 1.386 . S
H1669 C1685 0.930 . S
H1670 C1686 0.931 . S
C1671 H1659 0.929 . S
C1671 C1665 1.390 . S
C1671 C1668 1.386 . S
C1672 C1667 1.490 . S
C1672 C1674 1.395 . S
C1672 C1675 1.403 . S
H1673 C1679 0.930 . S
C1674 H1660 0.930 . S
C1674 C1672 1.395 . S
C1674 C1677 1.403 . S
C1675 C1672 1.403 . S
C1675 C1676 1.524 . S
C1675 C1679 1.400 . S
C1676 H1661 0.960 . S
C1676 H1662 0.960 . S
C1676 H1663 0.960 . S
C1676 C1675 1.524 . S
C1677 C1674 1.403 . S
C1677 C1678 1.392 . S
C1677 C1681 1.495 . S
C1678 C1677 1.392 . S
C1678 C1679 1.385 . S
C1678 C1680 1.478 . S
C1679 H1673 0.930 . S
C1679 C1675 1.400 . S
C1679 C1678 1.385 . S
C1680 C1678 1.478 . S
C1680 C1682 1.381 . S
C1680 C1686 1.383 . S
C1681 C1677 1.495 . S
C1681 H1687 0.959 . S
C1681 H1688 0.961 . S
C1681 H1689 0.960 . S
C1682 C1680 1.381 . S
C1682 C1683 1.394 . S
C1682 H1690 0.930 . S
C1683 C1682 1.394 . S
C1683 C1684 1.383 . S
C1683 H1691 0.929 . S
C1684 C1683 1.383 . S
C1684 C1685 1.377 . S
C1685 H1669 0.930 . S
C1685 C1684 1.377 . S
C1685 C1686 1.379 . S
C1686 H1670 0.931 . S
C1686 C1680 1.383 . S
C1686 C1685 1.379 . S
H1687 C1681 0.959 . S
H1688 C1681 0.961 . S
H1689 C1681 0.960 . S
H1690 C1682 0.930 . S
H1691 C1683 0.929 . S
H1692 C1700 0.929 . S
H1693 C1702 0.930 . S
H1694 C1704 0.930 . S
H1695 C1707 0.929 . S
H1696 C1710 0.930 . S
H1697 C1712 0.960 . S
H1698 C1712 0.960 . S
H1699 C1712 0.960 . S
C1700 H1692 0.929 . S
C1700 C1701 1.377 . S
C1700 C1702 1.384 . S
C1701 C1700 1.377 . S
C1701 C1707 1.390 . S
C1702 H1693 0.930 . S
C1702 C1700 1.384 . S
C1702 C1703 1.372 . S
C1703 C1702 1.372 . S
C1703 C1704 1.400 . S
C1703 C1708 1.490 . S
C1704 H1694 0.930 . S
C1704 C1703 1.400 . S
C1704 C1707 1.386 . S
H1705 C1721 0.930 . S
H1706 C1722 0.931 . S
C1707 H1695 0.929 . S
C1707 C1701 1.390 . S
C1707 C1704 1.386 . S
C1708 C1703 1.490 . S
C1708 C1710 1.395 . S
C1708 C1711 1.403 . S
H1709 C1715 0.930 . S
C1710 H1696 0.930 . S
C1710 C1708 1.395 . S
C1710 C1713 1.403 . S
C1711 C1708 1.403 . S
C1711 C1712 1.524 . S
C1711 C1715 1.400 . S
C1712 H1697 0.960 . S
C1712 H1698 0.960 . S
C1712 H1699 0.960 . S
C1712 C1711 1.524 . S
C1713 C1710 1.403 . S
C1713 C1714 1.392 . S
C1713 C1717 1.495 . S
C1714 C1713 1.392 . S
C1714 C1715 1.385 . S
C1714 C1716 1.478 . S
C1715 H1709 0.930 . S
C1715 C1711 1.400 . S
C1715 C1714 1.385 . S
C1716 C1714 1.478 . S
C1716 C1718 1.381 . S
C1716 C1722 1.383 . S
C1717 C1713 1.495 . S
C1717 H1723 0.959 . S
C1717 H1724 0.961 . S
C1717 H1725 0.960 . S
C1718 C1716 1.381 . S
C1718 C1719 1.394 . S
C1718 H1726 0.930 . S
C1719 C1718 1.394 . S
C1719 C1720 1.383 . S
C1719 H1727 0.929 . S
C1720 C1719 1.383 . S
C1720 C1721 1.377 . S
C1721 H1705 0.930 . S
C1721 C1720 1.377 . S
C1721 C1722 1.379 . S
C1722 H1706 0.931 . S
C1722 C1716 1.383 . S
C1722 C1721 1.379 . S
H1723 C1717 0.959 . S
H1724 C1717 0.961 . S
H1725 C1717 0.960 . S
H1726 C1718 0.930 . S
H1727 C1719 0.929 . S
H1728 C1736 0.929 . S
H1729 C1738 0.930 . S
H1730 C1740 0.930 . S
H1731 C1743 0.929 . S
H1732 C1746 0.930 . S
H1733 C1748 0.960 . S
H1734 C1748 0.960 . S
H1735 C1748 0.960 . S
C1736 H1728 0.929 . S
C1736 C1737 1.377 . S
C1736 C1738 1.384 . S
C1737 C1736 1.377 . S
C1737 C1743 1.390 . S
C1738 H1729 0.930 . S
C1738 C1736 1.384 . S
C1738 C1739 1.372 . S
C1739 C1738 1.372 . S
C1739 C1740 1.400 . S
C1739 C1744 1.490 . S
C1740 H1730 0.930 . S
C1740 C1739 1.400 . S
C1740 C1743 1.386 . S
H1741 C1757 0.930 . S
H1742 C1758 0.931 . S
C1743 H1731 0.929 . S
C1743 C1737 1.390 . S
C1743 C1740 1.386 . S
C1744 C1739 1.490 . S
C1744 C1746 1.395 . S
C1744 C1747 1.403 . S
H1745 C1751 0.930 . S
C1746 H1732 0.930 . S
C1746 C1744 1.395 . S
C1746 C1749 1.403 . S
C1747 C1744 1.403 . S
C1747 C1748 1.524 . S
C1747 C1751 1.400 . S
C1748 H1733 0.960 . S
C1748 H1734 0.960 . S
C1748 H1735 0.960 . S
C1748 C1747 1.524 . S
C1749 C1746 1.403 . S
C1749 C1750 1.392 . S
C1749 C1753 1.495 . S
C1750 C1749 1.392 . S
C1750 C1751 1.385 . S
C1750 C1752 1.478 . S
C1751 H1745 0.930 . S
C1751 C1747 1.400 . S
C1751 C1750 1.385 . S
C1752 C1750 1.478 . S
C1752 C1754 1.381 . S
C1752 C1758 1.383 . S
C1753 C1749 1.495 . S
C1753 H1759 0.959 . S
C1753 H1760 0.961 . S
C1753 H1761 0.960 . S
C1754 C1752 1.381 . S
C1754 C1755 1.394 . S
C1754 H1762 0.930 . S
C1755 C1754 1.394 . S
C1755 C1756 1.383 . S
C1755 H1763 0.929 . S
C1756 C1755 1.383 . S
C1756 C1757 1.377 . S
C1757 H1741 0.930 . S
C1757 C1756 1.377 . S
C1757 C1758 1.379 . S
C1758 H1742 0.931 . S
C1758 C1752 1.383 . S
C1758 C1757 1.379 . S
H1759 C1753 0.959 . S
H1760 C1753 0.961 . S
H1761 C1753 0.960 . S
H1762 C1754 0.930 . S
H1763 C1755 0.929 . S
H1764 C1772 0.929 . S
H1765 C1774 0.930 . S
H1766 C1776 0.930 . S
H1767 C1779 0.929 . S
H1768 C1782 0.930 . S
H1769 C1784 0.960 . S
H1770 C1784 0.960 . S
H1771 C1784 0.960 . S
C1772 H1764 0.929 . S
C1772 C1773 1.377 . S
C1772 C1774 1.384 . S
C1773 C1772 1.377 . S
C1773 C1779 1.390 . S
C1774 H1765 0.930 . S
C1774 C1772 1.384 . S
C1774 C1775 1.372 . S
C1775 C1774 1.372 . S
C1775 C1776 1.400 . S
C1775 C1780 1.490 . S
C1776 H1766 0.930 . S
C1776 C1775 1.400 . S
C1776 C1779 1.386 . S
H1777 C1793 0.930 . S
H1778 C1794 0.931 . S
C1779 H1767 0.929 . S
C1779 C1773 1.390 . S
C1779 C1776 1.386 . S
C1780 C1775 1.490 . S
C1780 C1782 1.395 . S
C1780 C1783 1.403 . S
H1781 C1787 0.930 . S
C1782 H1768 0.930 . S
C1782 C1780 1.395 . S
C1782 C1785 1.403 . S
C1783 C1780 1.403 . S
C1783 C1784 1.524 . S
C1783 C1787 1.400 . S
C1784 H1769 0.960 . S
C1784 H1770 0.960 . S
C1784 H1771 0.960 . S
C1784 C1783 1.524 . S
C1785 C1782 1.403 . S
C1785 C1786 1.392 . S
C1785 C1789 1.495 . S
C1786 C1785 1.392 . S
C1786 C1787 1.385 . S
C1786 C1788 1.478 . S
C1787 H1781 0.930 . S
C1787 C1783 1.400 . S
C1787 C1786 1.385 . S
C1788 C1786 1.478 . S
C1788 C1790 1.381 . S
C1788 C1794 1.383 . S
C1789 C1785 1.495 . S
C1789 H1795 0.959 . S
C1789 H1796 0.961 . S
C1789 H1797 0.960 . S
C1790 C1788 1.381 . S
C1790 C1791 1.394 . S
C1790 H1798 0.930 . S
C1791 C1790 1.394 . S
C1791 C1792 1.383 . S
C1791 H1799 0.929 . S
C1792 C1791 1.383 . S
C1792 C1793 1.377 . S
C1793 H1777 0.930 . S
C1793 C1792 1.377 . S
C1793 C1794 1.379 . S
C1794 H1778 0.931 . S
C1794 C1788 1.383 . S
C1794 C1793 1.379 . S
H1795 C1789 0.959 . S
H1796 C1789 0.961 . S
H1797 C1789 0.960 . S
H1798 C1790 0.930 . S
H1799 C1791 0.929 . S
H1800 C1808 0.929 . S
H1801 C1810 0.930 . S
H1802 C1812 0.930 . S
H1803 C1815 0.929 . S
H1804 C1818 0.930 . S
H1805 C1820 0.960 . S
H1806 C1820 0.960 . S
H1807 C1820 0.960 . S
C1808 H1800 0.929 . S
C1808 C1809 1.377 . S
C1808 C1810 1.384 . S
C1809 C1808 1.377 . S
C1809 C1815 1.390 . S
C1810 H1801 0.930 . S
C1810 C1808 1.384 . S
C1810 C1811 1.372 . S
C1811 C1810 1.372 . S
C1811 C1812 1.400 . S
C1811 C1816 1.490 . S
C1812 H1802 0.930 . S
C1812 C1811 1.400 . S
C1812 C1815 1.386 . S
H1813 C1829 0.930 . S
H1814 C1830 0.931 . S
C1815 H1803 0.929 . S
C1815 C1809 1.390 . S
C1815 C1812 1.386 . S
C1816 C1811 1.490 . S
C1816 C1818 1.395 . S
C1816 C1819 1.403 . S
H1817 C1823 0.930 . S
C1818 H1804 0.930 . S
C1818 C1816 1.395 . S
C1818 C1821 1.403 . S
C1819 C1816 1.403 . S
C1819 C1820 1.524 . S
C1819 C1823 1.400 . S
C1820 H1805 0.960 . S
C1820 H1806 0.960 . S
C1820 H1807 0.960 . S
C1820 C1819 1.524 . S
C1821 C1818 1.403 . S
C1821 C1822 1.392 . S
C1821 C1825 1.495 . S
C1822 C1821 1.392 . S
C1822 C1823 1.385 . S
C1822 C1824 1.478 . S
C1823 H1817 0.930 . S
C1823 C1819 1.400 . S
C1823 C1822 1.385 . S
C1824 C1822 1.478 . S
C1824 C1826 1.381 . S
C1824 C1830 1.383 . S
C1825 C1821 1.495 . S
C1825 H1831 0.959 . S
C1825 H1832 0.961 . S
C1825 H1833 0.960 . S
C1826 C1824 1.381 . S
C1826 C1827 1.394 . S
C1826 H1834 0.930 . S
C1827 C1826 1.394 . S
C1827 C1828 1.383 . S
C1827 H1835 0.929 . S
C1828 C1827 1.383 . S
C1828 C1829 1.377 . S
C1829 H1813 0.930 . S
C1829 C1828 1.377 . S
C1829 C1830 1.379 . S
C1830 H1814 0.931 . S
C1830 C1824 1.383 . S
C1830 C1829 1.379 . S
H1831 C1825 0.959 . S
H1832 C1825 0.961 . S
H1833 C1825 0.960 . S
H1834 C1826 0.930 . S
H1835 C1827 0.929 . S
H1836 C1844 0.929 . S
H1837 C1846 0.930 . S
H1838 C1848 0.930 . S
H1839 C1851 0.929 . S
H1840 C1854 0.930 . S
H1841 C1856 0.960 . S
H1842 C1856 0.960 . S
H1843 C1856 0.960 . S
C1844 H1836 0.929 . S
C1844 C1845 1.377 . S
C1844 C1846 1.384 . S
C1845 C1844 1.377 . S
C1845 C1851 1.390 . S
C1846 H1837 0.930 . S
C1846 C1844 1.384 . S
C1846 C1847 1.372 . S
C1847 C1846 1.372 . S
C1847 C1848 1.400 . S
C1847 C1852 1.490 . S
C1848 H1838 0.930 . S
C1848 C1847 1.400 . S
C1848 C1851 1.386 . S
H1849 C1865 0.930 . S
H1850 C1866 0.931 . S
C1851 H1839 0.929 . S
C1851 C1845 1.390 . S
C1851 C1848 1.386 . S
C1852 C1847 1.490 . S
C1852 C1854 1.395 . S
C1852 C1855 1.403 . S
H1853 C1859 0.930 . S
C1854 H1840 0.930 . S
C1854 C1852 1.395 . S
C1854 C1857 1.403 . S
C1855 C1852 1.403 . S
C1855 C1856 1.524 . S
C1855 C1859 1.400 . S
C1856 H1841 0.960 . S
C1856 H1842 0.960 . S
C1856 H1843 0.960 . S
C1856 C1855 1.524 . S
C1857 C1854 1.403 . S
C1857 C1858 1.392 . S
C1857 C1861 1.495 . S
C1858 C1857 1.392 . S
C1858 C1859 1.385 . S
C1858 C1860 1.478 . S
C1859 H1853 0.930 . S
C1859 C1855 1.400 . S
C1859 C1858 1.385 . S
C1860 C1858 1.478 . S
C1860 C1862 1.381 . S
C1860 C1866 1.383 . S
C1861 C1857 1.495 . S
C1861 H1867 0.959 . S
C1861 H1868 0.961 . S
C1861 H1869 0.960 . S
C1862 C1860 1.381 . S
C1862 C1863 1.394 . S
C1862 H1870 0.930 . S
C1863 C1862 1.394 . S
C1863 C1864 1.383 . S
C1863 H1871 0.929 . S
C1864 C1863 1.383 . S
C1864 C1865 1.377 . S
C1865 H1849 0.930 . S
C1865 C1864 1.377 . S
C1865 C1866 1.379 . S
C1866 H1850 0.931 . S
C1866 C1860 1.383 . S
C1866 C1865 1.379 . S
H1867 C1861 0.959 . S
H1868 C1861 0.961 . S
H1869 C1861 0.960 . S
H1870 C1862 0.930 . S
H1871 C1863 0.929 . S
H1872 C1880 0.929 . S
H1873 C1882 0.930 . S
H1874 C1884 0.930 . S
H1875 C1887 0.929 . S
H1876 C1890 0.930 . S
H1877 C1892 0.960 . S
H1878 C1892 0.960 . S
H1879 C1892 0.960 . S
C1880 H1872 0.929 . S
C1880 C1881 1.377 . S
C1880 C1882 1.384 . S
C1881 C1880 1.377 . S
C1881 C1887 1.390 . S
C1882 H1873 0.930 . S
C1882 C1880 1.384 . S
C1882 C1883 1.372 . S
C1883 C1882 1.372 . S
C1883 C1884 1.400 . S
C1883 C1888 1.490 . S
C1884 H1874 0.930 . S
C1884 C1883 1.400 . S
C1884 C1887 1.386 . S
H1885 C1901 0.930 . S
H1886 C1902 0.931 . S
C1887 H1875 0.929 . S
C1887 C1881 1.390 . S
C1887 C1884 1.386 . S
C1888 C1883 1.490 . S
C1888 C1890 1.395 . S
C1888 C1891 1.403 . S
H1889 C1895 0.930 . S
C1890 H1876 0.930 . S
C1890 C1888 1.395 . S
C1890 C1893 1.403 . S
C1891 C1888 1.403 . S
C1891 C1892 1.524 . S
C1891 C1895 1.400 . S
C1892 H1877 0.960 . S
C1892 H1878 0.960 . S
C1892 H1879 0.960 . S
C1892 C1891 1.524 . S
C1893 C1890 1.403 . S
C1893 C1894 1.392 . S
C1893 C1897 1.495 . S
C1894 C1893 1.392 . S
C1894 C1895 1.385 . S
C1894 C1896 1.478 . S
C1895 H1889 0.930 . S
C1895 C1891 1.400 . S
C1895 C1894 1.385 . S
C1896 C1894 1.478 . S
C1896 C1898 1.381 . S
C1896 C1902 1.383 . S
C1897 C1893 1.495 . S
C1897 H1903 0.959 . S
C1897 H1904 0.961 . S
C1897 H1905 0.960 . S
C1898 C1896 1.381 . S
C1898 C1899 1.394 . S
C1898 H1906 0.930 . S
C1899 C1898 1.394 . S
C1899 C1900 1.383 . S
C1899 H1907 0.929 . S
C1900 C1899 1.383 . S
C1900 C1901 1.377 . S
C1901 H1885 0.930 . S
C1901 C1900 1.377 . S
C1901 C1902 1.379 . S
C1902 H1886 0.931 . S
C1902 C1896 1.383 . S
C1902 C1901 1.379 . S
H1903 C1897 0.959 . S
H1904 C1897 0.961 . S
H1905 C1897 0.960 . S
H1906 C1898 0.930 . S
H1907 C1899 0.929 . S
H1908 C1916 0.929 . S
H1909 C1918 0.930 . S
H1910 C1920 0.930 . S
H1911 C1923 0.929 . S
H1912 C1926 0.930 . S
H1913 C1928 0.960 . S
H1914 C1928 0.960 . S
H1915 C1928 0.960 . S
C1916 H1908 0.929 . S
C1916 C1917 1.377 . S
C1916 C1918 1.384 . S
C1917 C1916 1.377 . S
C1917 C1923 1.390 . S
C1918 H1909 0.930 . S
C1918 C1916 1.384 . S
C1918 C1919 1.372 . S
C1919 C1918 1.372 . S
C1919 C1920 1.400 . S
C1919 C1924 1.490 . S
C1920 H1910 0.930 . S
C1920 C1919 1.400 . S
C1920 C1923 1.386 . S
H1921 C1937 0.930 . S
H1922 C1938 0.931 . S
C1923 H1911 0.929 . S
C1923 C1917 1.390 . S
C1923 C1920 1.386 . S
C1924 C1919 1.490 . S
C1924 C1926 1.395 . S
C1924 C1927 1.403 . S
H1925 C1931 0.930 . S
C1926 H1912 0.930 . S
C1926 C1924 1.395 . S
C1926 C1929 1.403 . S
C1927 C1924 1.403 . S
C1927 C1928 1.524 . S
C1927 C1931 1.400 . S
C1928 H1913 0.960 . S
C1928 H1914 0.960 . S
C1928 H1915 0.960 . S
C1928 C1927 1.524 . S
C1929 C1926 1.403 . S
C1929 C1930 1.392 . S
C1929 C1933 1.495 . S
C1930 C1929 1.392 . S
C1930 C1931 1.385 . S
C1930 C1932 1.478 . S
C1931 H1925 0.930 . S
C1931 C1927 1.400 . S
C1931 C1930 1.385 . S
C1932 C1930 1.478 . S
C1932 C1934 1.381 . S
C1932 C1938 1.383 . S
C1933 C1929 1.495 . S
C1933 H1939 0.959 . S
C1933 H1940 0.961 . S
C1933 H1941 0.960 . S
C1934 C1932 1.381 . S
C1934 C1935 1.394 . S
C1934 H1942 0.930 . S
C1935 C1934 1.394 . S
C1935 C1936 1.383 . S
C1935 H1943 0.929 . S
C1936 C1935 1.383 . S
C1936 C1937 1.377 . S
C1937 H1921 0.930 . S
C1937 C1936 1.377 . S
C1937 C1938 1.379 . S
C1938 H1922 0.931 . S
C1938 C1932 1.383 . S
C1938 C1937 1.379 . S
H1939 C1933 0.959 . S
H1940 C1933 0.961 . S
H1941 C1933 0.960 . S
H1942 C1934 0.930 . S
H1943 C1935 0.929 . S
H1944 C1952 0.929 . S
H1945 C1954 0.930 . S
H1946 C1956 0.930 . S
H1947 C1959 0.929 . S
H1948 C1962 0.930 . S
H1949 C1964 0.960 . S
H1950 C1964 0.960 . S
H1951 C1964 0.960 . S
C1952 H1944 0.929 . S
C1952 C1953 1.377 . S
C1952 C1954 1.384 . S
C1953 C1952 1.377 . S
C1953 C1959 1.390 . S
C1954 H1945 0.930 . S
C1954 C1952 1.384 . S
C1954 C1955 1.372 . S
C1955 C1954 1.372 . S
C1955 C1956 1.400 . S
C1955 C1960 1.490 . S
C1956 H1946 0.930 . S
C1956 C1955 1.400 . S
C1956 C1959 1.386 . S
H1957 C1973 0.930 . S
H1958 C1974 0.931 . S
C1959 H1947 0.929 . S
C1959 C1953 1.390 . S
C1959 C1956 1.386 . S
C1960 C1955 1.490 . S
C1960 C1962 1.395 . S
C1960 C1963 1.403 . S
H1961 C1967 0.930 . S
C1962 H1948 0.930 . S
C1962 C1960 1.395 . S
C1962 C1965 1.403 . S
C1963 C1960 1.403 . S
C1963 C1964 1.524 . S
C1963 C1967 1.400 . S
C1964 H1949 0.960 . S
C1964 H1950 0.960 . S
C1964 H1951 0.960 . S
C1964 C1963 1.524 . S
C1965 C1962 1.403 . S
C1965 C1966 1.392 . S
C1965 C1969 1.495 . S
C1966 C1965 1.392 . S
C1966 C1967 1.385 . S
C1966 C1968 1.478 . S
C1967 H1961 0.930 . S
C1967 C1963 1.400 . S
C1967 C1966 1.385 . S
C1968 C1966 1.478 . S
C1968 C1970 1.381 . S
C1968 C1974 1.383 . S
C1969 C1965 1.495 . S
C1969 H1975 0.959 . S
C1969 H1976 0.961 . S
C1969 H1977 0.960 . S
C1970 C1968 1.381 . S
C1970 C1971 1.394 . S
C1970 H1978 0.930 . S
C1971 C1970 1.394 . S
C1971 C1972 1.383 . S
C1971 H1979 0.929 . S
C1972 C1971 1.383 . S
C1972 C1973 1.377 . S
C1973 H1957 0.930 . S
C1973 C1972 1.377 . S
C1973 C1974 1.379 . S
C1974 H1958 0.931 . S
C1974 C1968 1.383 . S
C1974 C1973 1.379 . S
H1975 C1969 0.959 . S
H1976 C1969 0.961 . S
H1977 C1969 0.960 . S
H1978 C1970 0.930 . S
H1979 C1971 0.929 . S
H1980 C1988 0.929 . S
H1981 C1990 0.930 . S
H1982 C1992 0.930 . S
H1983 C1995 0.929 . S
H1984 C1998 0.930 . S
H1985 C2000 0.960 . S
H1986 C2000 0.960 . S
H1987 C2000 0.960 . S
C1988 H1980 0.929 . S
C1988 C1989 1.377 . S
C1988 C1990 1.384 . S
C1989 C1988 1.377 . S
C1989 C1995 1.390 . S
C1990 H1981 0.930 . S
C1990 C1988 1.384 . S
C1990 C1991 1.372 . S
C1991 C1990 1.372 . S
C1991 C1992 1.400 . S
C1991 C1996 1.490 . S
C1992 H1982 0.930 . S
C1992 C1991 1.400 . S
C1992 C1995 1.386 . S
H1993 C2009 0.930 . S
H1994 C2010 0.931 . S
C1995 H1983 0.929 . S
C1995 C1989 1.390 . S
C1995 C1992 1.386 . S
C1996 C1991 1.490 . S
C1996 C1998 1.395 . S
C1996 C1999 1.403 . S
H1997 C2003 0.930 . S
C1998 H1984 0.930 . S
C1998 C1996 1.395 . S
C1998 C2001 1.403 . S
C1999 C1996 1.403 . S
C1999 C2000 1.524 . S
C1999 C2003 1.400 . S
C2000 H1985 0.960 . S
C2000 H1986 0.960 . S
C2000 H1987 0.960 . S
C2000 C1999 1.524 . S
C2001 C1998 1.403 . S
C2001 C2002 1.392 . S
C2001 C2005 1.495 . S
C2002 C2001 1.392 . S
C2002 C2003 1.385 . S
C2002 C2004 1.478 . S
C2003 H1997 0.930 . S
C2003 C1999 1.400 . S
C2003 C2002 1.385 . S
C2004 C2002 1.478 . S
C2004 C2006 1.381 . S
C2004 C2010 1.383 . S
C2005 C2001 1.495 . S
C2005 H2011 0.959 . S
C2005 H2012 0.961 . S
C2005 H2013 0.960 . S
C2006 C2004 1.381 . S
C2006 C2007 1.394 . S
C2006 H2014 0.930 . S
C2007 C2006 1.394 . S
C2007 C2008 1.383 . S
C2007 H2015 0.929 . S
C2008 C2007 1.383 . S
C2008 C2009 1.377 . S
C2009 H1993 0.930 . S
C2009 C2008 1.377 . S
C2009 C2010 1.379 . S
C2010 H1994 0.931 . S
C2010 C2004 1.383 . S
C2010 C2009 1.379 . S
H2011 C2005 0.959 . S
H2012 C2005 0.961 . S
H2013 C2005 0.960 . S
H2014 C2006 0.930 . S
H2015 C2007 0.929 . S
H2016 C2024 0.929 . S
H2017 C2026 0.930 . S
H2018 C2028 0.930 . S
H2019 C2031 0.929 . S
H2020 C2034 0.930 . S
H2021 C2036 0.960 . S
H2022 C2036 0.960 . S
H2023 C2036 0.960 . S
C2024 H2016 0.929 . S
C2024 C2025 1.377 . S
C2024 C2026 1.384 . S
C2025 C2024 1.377 . S
C2025 C2031 1.390 . S
C2026 H2017 0.930 . S
C2026 C2024 1.384 . S
C2026 C2027 1.372 . S
C2027 C2026 1.372 . S
C2027 C2028 1.400 . S
C2027 C2032 1.490 . S
C2028 H2018 0.930 . S
C2028 C2027 1.400 . S
C2028 C2031 1.386 . S
H2029 C2045 0.930 . S
H2030 C2046 0.931 . S
C2031 H2019 0.929 . S
C2031 C2025 1.390 . S
C2031 C2028 1.386 . S
C2032 C2027 1.490 . S
C2032 C2034 1.395 . S
C2032 C2035 1.403 . S
H2033 C2039 0.930 . S
C2034 H2020 0.930 . S
C2034 C2032 1.395 . S
C2034 C2037 1.403 . S
C2035 C2032 1.403 . S
C2035 C2036 1.524 . S
C2035 C2039 1.400 . S
C2036 H2021 0.960 . S
C2036 H2022 0.960 . S
C2036 H2023 0.960 . S
C2036 C2035 1.524 . S
C2037 C2034 1.403 . S
C2037 C2038 1.392 . S
C2037 C2041 1.495 . S
C2038 C2037 1.392 . S
C2038 C2039 1.385 . S
C2038 C2040 1.478 . S
C2039 H2033 0.930 . S
C2039 C2035 1.400 . S
C2039 C2038 1.385 . S
C2040 C2038 1.478 . S
C2040 C2042 1.381 . S
C2040 C2046 1.383 . S
C2041 C2037 1.495 . S
C2041 H2047 0.959 . S
C2041 H2048 0.961 . S
C2041 H2049 0.960 . S
C2042 C2040 1.381 . S
C2042 C2043 1.394 . S
C2042 H2050 0.930 . S
C2043 C2042 1.394 . S
C2043 C2044 1.383 . S
C2043 H2051 0.929 . S
C2044 C2043 1.383 . S
C2044 C2045 1.377 . S
C2045 H2029 0.930 . S
C2045 C2044 1.377 . S
C2045 C2046 1.379 . S
C2046 H2030 0.931 . S
C2046 C2040 1.383 . S
C2046 C2045 1.379 . S
H2047 C2041 0.959 . S
H2048 C2041 0.961 . S
H2049 C2041 0.960 . S
H2050 C2042 0.930 . S
H2051 C2043 0.929 . S
H2052 C2060 0.929 . S
H2053 C2062 0.930 . S
H2054 C2064 0.930 . S
H2055 C2067 0.929 . S
H2056 C2070 0.930 . S
H2057 C2072 0.960 . S
H2058 C2072 0.960 . S
H2059 C2072 0.960 . S
C2060 H2052 0.929 . S
C2060 C2061 1.377 . S
C2060 C2062 1.384 . S
C2061 C2060 1.377 . S
C2061 C2067 1.390 . S
C2062 H2053 0.930 . S
C2062 C2060 1.384 . S
C2062 C2063 1.372 . S
C2063 C2062 1.372 . S
C2063 C2064 1.400 . S
C2063 C2068 1.490 . S
C2064 H2054 0.930 . S
C2064 C2063 1.400 . S
C2064 C2067 1.386 . S
H2065 C2081 0.930 . S
H2066 C2082 0.931 . S
C2067 H2055 0.929 . S
C2067 C2061 1.390 . S
C2067 C2064 1.386 . S
C2068 C2063 1.490 . S
C2068 C2070 1.395 . S
C2068 C2071 1.403 . S
H2069 C2075 0.930 . S
C2070 H2056 0.930 . S
C2070 C2068 1.395 . S
C2070 C2073 1.403 . S
C2071 C2068 1.403 . S
C2071 C2072 1.524 . S
C2071 C2075 1.400 . S
C2072 H2057 0.960 . S
C2072 H2058 0.960 . S
C2072 H2059 0.960 . S
C2072 C2071 1.524 . S
C2073 C2070 1.403 . S
C2073 C2074 1.392 . S
C2073 C2077 1.495 . S
C2074 C2073 1.392 . S
C2074 C2075 1.385 . S
C2074 C2076 1.478 . S
C2075 H2069 0.930 . S
C2075 C2071 1.400 . S
C2075 C2074 1.385 . S
C2076 C2074 1.478 . S
C2076 C2078 1.381 . S
C2076 C2082 1.383 . S
C2077 C2073 1.495 . S
C2077 H2083 0.959 . S
C2077 H2084 0.961 . S
C2077 H2085 0.960 . S
C2078 C2076 1.381 . S
C2078 C2079 1.394 . S
C2078 H2086 0.930 . S
C2079 C2078 1.394 . S
C2079 C2080 1.383 . S
C2079 H2087 0.929 . S
C2080 C2079 1.383 . S
C2080 C2081 1.377 . S
C2081 H2065 0.930 . S
C2081 C2080 1.377 . S
C2081 C2082 1.379 . S
C2082 H2066 0.931 . S
C2082 C2076 1.383 . S
C2082 C2081 1.379 . S
H2083 C2077 0.959 . S
H2084 C2077 0.961 . S
H2085 C2077 0.960 . S
H2086 C2078 0.930 . S
H2087 C2079 0.929 . S
H2088 C2096 0.929 . S
H2089 C2098 0.930 . S
H2090 C2100 0.930 . S
H2091 C2103 0.929 . S
H2092 C2106 0.930 . S
H2093 C2108 0.960 . S
H2094 C2108 0.960 . S
H2095 C2108 0.960 . S
C2096 H2088 0.929 . S
C2096 C2097 1.377 . S
C2096 C2098 1.384 . S
C2097 C2096 1.377 . S
C2097 C2103 1.390 . S
C2098 H2089 0.930 . S
C2098 C2096 1.384 . S
C2098 C2099 1.372 . S
C2099 C2098 1.372 . S
C2099 C2100 1.400 . S
C2099 C2104 1.490 . S
C2100 H2090 0.930 . S
C2100 C2099 1.400 . S
C2100 C2103 1.386 . S
H2101 C2117 0.930 . S
H2102 C2118 0.931 . S
C2103 H2091 0.929 . S
C2103 C2097 1.390 . S
C2103 C2100 1.386 . S
C2104 C2099 1.490 . S
C2104 C2106 1.395 . S
C2104 C2107 1.403 . S
H2105 C2111 0.930 . S
C2106 H2092 0.930 . S
C2106 C2104 1.395 . S
C2106 C2109 1.403 . S
C2107 C2104 1.403 . S
C2107 C2108 1.524 . S
C2107 C2111 1.400 . S
C2108 H2093 0.960 . S
C2108 H2094 0.960 . S
C2108 H2095 0.960 . S
C2108 C2107 1.524 . S
C2109 C2106 1.403 . S
C2109 C2110 1.392 . S
C2109 C2113 1.495 . S
C2110 C2109 1.392 . S
C2110 C2111 1.385 . S
C2110 C2112 1.478 . S
C2111 H2105 0.930 . S
C2111 C2107 1.400 . S
C2111 C2110 1.385 . S
C2112 C2110 1.478 . S
C2112 C2114 1.381 . S
C2112 C2118 1.383 . S
C2113 C2109 1.495 . S
C2113 H2119 0.959 . S
C2113 H2120 0.961 . S
C2113 H2121 0.960 . S
C2114 C2112 1.381 . S
C2114 C2115 1.394 . S
C2114 H2122 0.930 . S
C2115 C2114 1.394 . S
C2115 C2116 1.383 . S
C2115 H2123 0.929 . S
C2116 C2115 1.383 . S
C2116 C2117 1.377 . S
C2117 H2101 0.930 . S
C2117 C2116 1.377 . S
C2117 C2118 1.379 . S
C2118 H2102 0.931 . S
C2118 C2112 1.383 . S
C2118 C2117 1.379 . S
H2119 C2113 0.959 . S
H2120 C2113 0.961 . S
H2121 C2113 0.960 . S
H2122 C2114 0.930 . S
H2123 C2115 0.929 . S
H2124 C2132 0.929 . S
H2125 C2134 0.930 . S
H2126 C2136 0.930 . S
H2127 C2139 0.929 . S
H2128 C2142 0.930 . S
H2129 C2144 0.960 . S
H2130 C2144 0.960 . S
H2131 C2144 0.960 . S
C2132 H2124 0.929 . S
C2132 C2133 1.377 . S
C2132 C2134 1.384 . S
C2133 C2132 1.377 . S
C2133 C2139 1.390 . S
C2134 H2125 0.930 . S
C2134 C2132 1.384 . S
C2134 C2135 1.372 . S
C2135 C2134 1.372 . S
C2135 C2136 1.400 . S
C2135 C2140 1.490 . S
C2136 H2126 0.930 . S
C2136 C2135 1.400 . S
C2136 C2139 1.386 . S
H2137 C2153 0.930 . S
H2138 C2154 0.931 . S
C2139 H2127 0.929 . S
C2139 C2133 1.390 . S
C2139 C2136 1.386 . S
C2140 C2135 1.490 . S
C2140 C2142 1.395 . S
C2140 C2143 1.403 . S
H2141 C2147 0.930 . S
C2142 H2128 0.930 . S
C2142 C2140 1.395 . S
C2142 C2145 1.403 . S
C2143 C2140 1.403 . S
C2143 C2144 1.524 . S
C2143 C2147 1.400 . S
C2144 H2129 0.960 . S
C2144 H2130 0.960 . S
C2144 H2131 0.960 . S
C2144 C2143 1.524 . S
C2145 C2142 1.403 . S
C2145 C2146 1.392 . S
C2145 C2149 1.495 . S
C2146 C2145 1.392 . S
C2146 C2147 1.385 . S
C2146 C2148 1.478 . S
C2147 H2141 0.930 . S
C2147 C2143 1.400 . S
C2147 C2146 1.385 . S
C2148 C2146 1.478 . S
C2148 C2150 1.381 . S
C2148 C2154 1.383 . S
C2149 C2145 1.495 . S
C2149 H2155 0.959 . S
C2149 H2156 0.961 . S
C2149 H2157 0.960 . S
C2150 C2148 1.381 . S
C2150 C2151 1.394 . S
C2150 H2158 0.930 . S
C2151 C2150 1.394 . S
C2151 C2152 1.383 . S
C2151 H2159 0.929 . S
C2152 C2151 1.383 . S
C2152 C2153 1.377 . S
C2153 H2137 0.930 . S
C2153 C2152 1.377 . S
C2153 C2154 1.379 . S
C2154 H2138 0.931 . S
C2154 C2148 1.383 . S
C2154 C2153 1.379 . S
H2155 C2149 0.959 . S
H2156 C2149 0.961 . S
H2157 C2149 0.960 . S
H2158 C2150 0.930 . S
H2159 C2151 0.929 . S
H2160 C2168 0.929 . S
H2161 C2170 0.930 . S
H2162 C2172 0.930 . S
H2163 C2175 0.929 . S
H2164 C2178 0.930 . S
H2165 C2180 0.960 . S
H2166 C2180 0.960 . S
H2167 C2180 0.960 . S
C2168 H2160 0.929 . S
C2168 C2169 1.377 . S
C2168 C2170 1.384 . S
C2169 C2168 1.377 . S
C2169 C2175 1.390 . S
C2170 H2161 0.930 . S
C2170 C2168 1.384 . S
C2170 C2171 1.372 . S
C2171 C2170 1.372 . S
C2171 C2172 1.400 . S
C2171 C2176 1.490 . S
C2172 H2162 0.930 . S
C2172 C2171 1.400 . S
C2172 C2175 1.386 . S
H2173 C2189 0.930 . S
H2174 C2190 0.931 . S
C2175 H2163 0.929 . S
C2175 C2169 1.390 . S
C2175 C2172 1.386 . S
C2176 C2171 1.490 . S
C2176 C2178 1.395 . S
C2176 C2179 1.403 . S
H2177 C2183 0.930 . S
C2178 H2164 0.930 . S
C2178 C2176 1.395 . S
C2178 C2181 1.403 . S
C2179 C2176 1.403 . S
C2179 C2180 1.524 . S
C2179 C2183 1.400 . S
C2180 H2165 0.960 . S
C2180 H2166 0.960 . S
C2180 H2167 0.960 . S
C2180 C2179 1.524 . S
C2181 C2178 1.403 . S
C2181 C2182 1.392 . S
C2181 C2185 1.495 . S
C2182 C2181 1.392 . S
C2182 C2183 1.385 . S
C2182 C2184 1.478 . S
C2183 H2177 0.930 . S
C2183 C2179 1.400 . S
C2183 C2182 1.385 . S
C2184 C2182 1.478 . S
C2184 C2186 1.381 . S
C2184 C2190 1.383 . S
C2185 C2181 1.495 . S
C2185 H2191 0.959 . S
C2185 H2192 0.961 . S
C2185 H2193 0.960 . S
C2186 C2184 1.381 . S
C2186 C2187 1.394 . S
C2186 H2194 0.930 . S
C2187 C2186 1.394 . S
C2187 C2188 1.383 . S
C2187 H2195 0.929 . S
C2188 C2187 1.383 . S
C2188 C2189 1.377 . S
C2189 H2173 0.930 . S
C2189 C2188 1.377 . S
C2189 C2190 1.379 . S
C2190 H2174 0.931 . S
C2190 C2184 1.383 . S
C2190 C2189 1.379 . S
H2191 C2185 0.959 . S
H2192 C2185 0.961 . S
H2193 C2185 0.960 . S
H2194 C2186 0.930 . S
H2195 C2187 0.929 . S
H2196 C2204 0.929 . S
H2197 C2206 0.930 . S
H2198 C2208 0.930 . S
H2199 C2211 0.929 . S
H2200 C2214 0.930 . S
H2201 C2216 0.960 . S
H2202 C2216 0.960 . S
H2203 C2216 0.960 . S
C2204 H2196 0.929 . S
C2204 C2205 1.377 . S
C2204 C2206 1.384 . S
C2205 C2204 1.377 . S
C2205 C2211 1.390 . S
C2206 H2197 0.930 . S
C2206 C2204 1.384 . S
C2206 C2207 1.372 . S
C2207 C2206 1.372 . S
C2207 C2208 1.400 . S
C2207 C2212 1.490 . S
C2208 H2198 0.930 . S
C2208 C2207 1.400 . S
C2208 C2211 1.386 . S
H2209 C2225 0.930 . S
H2210 C2226 0.931 . S
C2211 H2199 0.929 . S
C2211 C2205 1.390 . S
C2211 C2208 1.386 . S
C2212 C2207 1.490 . S
C2212 C2214 1.395 . S
C2212 C2215 1.403 . S
H2213 C2219 0.930 . S
C2214 H2200 0.930 . S
C2214 C2212 1.395 . S
C2214 C2217 1.403 . S
C2215 C2212 1.403 . S
C2215 C2216 1.524 . S
C2215 C2219 1.400 . S
C2216 H2201 0.960 . S
C2216 H2202 0.960 . S
C2216 H2203 0.960 . S
C2216 C2215 1.524 . S
C2217 C2214 1.403 . S
C2217 C2218 1.392 . S
C2217 C2221 1.495 . S
C2218 C2217 1.392 . S
C2218 C2219 1.385 . S
C2218 C2220 1.478 . S
C2219 H2213 0.930 . S
C2219 C2215 1.400 . S
C2219 C2218 1.385 . S
C2220 C2218 1.478 . S
C2220 C2222 1.381 . S
C2220 C2226 1.383 . S
C2221 C2217 1.495 . S
C2221 H2227 0.959 . S
C2221 H2228 0.961 . S
C2221 H2229 0.960 . S
C2222 C2220 1.381 . S
C2222 C2223 1.394 . S
C2222 H2230 0.930 . S
C2223 C2222 1.394 . S
C2223 C2224 1.383 . S
C2223 H2231 0.929 . S
C2224 C2223 1.383 . S
C2224 C2225 1.377 . S
C2225 H2209 0.930 . S
C2225 C2224 1.377 . S
C2225 C2226 1.379 . S
C2226 H2210 0.931 . S
C2226 C2220 1.383 . S
C2226 C2225 1.379 . S
H2227 C2221 0.959 . S
H2228 C2221 0.961 . S
H2229 C2221 0.960 . S
H2230 C2222 0.930 . S
H2231 C2223 0.929 . S
H2232 C2240 0.929 . S
H2233 C2242 0.930 . S
H2234 C2244 0.930 . S
H2235 C2247 0.929 . S
H2236 C2250 0.930 . S
H2237 C2252 0.960 . S
H2238 C2252 0.960 . S
H2239 C2252 0.960 . S
C2240 H2232 0.929 . S
C2240 C2241 1.377 . S
C2240 C2242 1.384 . S
C2241 C2240 1.377 . S
C2241 C2247 1.390 . S
C2242 H2233 0.930 . S
C2242 C2240 1.384 . S
C2242 C2243 1.372 . S
C2243 C2242 1.372 . S
C2243 C2244 1.400 . S
C2243 C2248 1.490 . S
C2244 H2234 0.930 . S
C2244 C2243 1.400 . S
C2244 C2247 1.386 . S
H2245 C2261 0.930 . S
H2246 C2262 0.931 . S
C2247 H2235 0.929 . S
C2247 C2241 1.390 . S
C2247 C2244 1.386 . S
C2248 C2243 1.490 . S
C2248 C2250 1.395 . S
C2248 C2251 1.403 . S
H2249 C2255 0.930 . S
C2250 H2236 0.930 . S
C2250 C2248 1.395 . S
C2250 C2253 1.403 . S
C2251 C2248 1.403 . S
C2251 C2252 1.524 . S
C2251 C2255 1.400 . S
C2252 H2237 0.960 . S
C2252 H2238 0.960 . S
C2252 H2239 0.960 . S
C2252 C2251 1.524 . S
C2253 C2250 1.403 . S
C2253 C2254 1.392 . S
C2253 C2257 1.495 . S
C2254 C2253 1.392 . S
C2254 C2255 1.385 . S
C2254 C2256 1.478 . S
C2255 H2249 0.930 . S
C2255 C2251 1.400 . S
C2255 C2254 1.385 . S
C2256 C2254 1.478 . S
C2256 C2258 1.381 . S
C2256 C2262 1.383 . S
C2257 C2253 1.495 . S
C2257 H2263 0.959 . S
C2257 H2264 0.961 . S
C2257 H2265 0.960 . S
C2258 C2256 1.381 . S
C2258 C2259 1.394 . S
C2258 H2266 0.930 . S
C2259 C2258 1.394 . S
C2259 C2260 1.383 . S
C2259 H2267 0.929 . S
C2260 C2259 1.383 . S
C2260 C2261 1.377 . S
C2261 H2245 0.930 . S
C2261 C2260 1.377 . S
C2261 C2262 1.379 . S
C2262 H2246 0.931 . S
C2262 C2256 1.383 . S
C2262 C2261 1.379 . S
H2263 C2257 0.959 . S
H2264 C2257 0.961 . S
H2265 C2257 0.960 . S
H2266 C2258 0.930 . S
H2267 C2259 0.929 . S
H2268 C2276 0.929 . S
H2269 C2278 0.930 . S
H2270 C2280 0.930 . S
H2271 C2283 0.929 . S
H2272 C2286 0.930 . S
H2273 C2288 0.960 . S
H2274 C2288 0.960 . S
H2275 C2288 0.960 . S
C2276 H2268 0.929 . S
C2276 C2277 1.377 . S
C2276 C2278 1.384 . S
C2277 C2276 1.377 . S
C2277 C2283 1.390 . S
C2278 H2269 0.930 . S
C2278 C2276 1.384 . S
C2278 C2279 1.372 . S
C2279 C2278 1.372 . S
C2279 C2280 1.400 . S
C2279 C2284 1.490 . S
C2280 H2270 0.930 . S
C2280 C2279 1.400 . S
C2280 C2283 1.386 . S
H2281 C2297 0.930 . S
H2282 C2298 0.931 . S
C2283 H2271 0.929 . S
C2283 C2277 1.390 . S
C2283 C2280 1.386 . S
C2284 C2279 1.490 . S
C2284 C2286 1.395 . S
C2284 C2287 1.403 . S
H2285 C2291 0.930 . S
C2286 H2272 0.930 . S
C2286 C2284 1.395 . S
C2286 C2289 1.403 . S
C2287 C2284 1.403 . S
C2287 C2288 1.524 . S
C2287 C2291 1.400 . S
C2288 H2273 0.960 . S
C2288 H2274 0.960 . S
C2288 H2275 0.960 . S
C2288 C2287 1.524 . S
C2289 C2286 1.403 . S
C2289 C2290 1.392 . S
C2289 C2293 1.495 . S
C2290 C2289 1.392 . S
C2290 C2291 1.385 . S
C2290 C2292 1.478 . S
C2291 H2285 0.930 . S
C2291 C2287 1.400 . S
C2291 C2290 1.385 . S
C2292 C2290 1.478 . S
C2292 C2294 1.381 . S
C2292 C2298 1.383 . S
C2293 C2289 1.495 . S
C2293 H2299 0.959 . S
C2293 H2300 0.961 . S
C2293 H2301 0.960 . S
C2294 C2292 1.381 . S
C2294 C2295 1.394 . S
C2294 H2302 0.930 . S
C2295 C2294 1.394 . S
C2295 C2296 1.383 . S
C2295 H2303 0.929 . S
C2296 C2295 1.383 . S
C2296 C2297 1.377 . S
C2297 H2281 0.930 . S
C2297 C2296 1.377 . S
C2297 C2298 1.379 . S
C2298 H2282 0.931 . S
C2298 C2292 1.383 . S
C2298 C2297 1.379 . S
H2299 C2293 0.959 . S
H2300 C2293 0.961 . S
H2301 C2293 0.960 . S
H2302 C2294 0.930 . S
H2303 C2295 0.929 . S
H2304 C2312 0.929 . S
H2305 C2314 0.930 . S
H2306 C2316 0.930 . S
H2307 C2319 0.929 . S
H2308 C2322 0.930 . S
H2309 C2324 0.960 . S
H2310 C2324 0.960 . S
H2311 C2324 0.960 . S
C2312 H2304 0.929 . S
C2312 C2313 1.377 . S
C2312 C2314 1.384 . S
C2313 C2312 1.377 . S
C2313 C2319 1.390 . S
C2314 H2305 0.930 . S
C2314 C2312 1.384 . S
C2314 C2315 1.372 . S
C2315 C2314 1.372 . S
C2315 C2316 1.400 . S
C2315 C2320 1.490 . S
C2316 H2306 0.930 . S
C2316 C2315 1.400 . S
C2316 C2319 1.386 . S
H2317 C2333 0.930 . S
H2318 C2334 0.931 . S
C2319 H2307 0.929 . S
C2319 C2313 1.390 . S
C2319 C2316 1.386 . S
C2320 C2315 1.490 . S
C2320 C2322 1.395 . S
C2320 C2323 1.403 . S
H2321 C2327 0.930 . S
C2322 H2308 0.930 . S
C2322 C2320 1.395 . S
C2322 C2325 1.403 . S
C2323 C2320 1.403 . S
C2323 C2324 1.524 . S
C2323 C2327 1.400 . S
C2324 H2309 0.960 . S
C2324 H2310 0.960 . S
C2324 H2311 0.960 . S
C2324 C2323 1.524 . S
C2325 C2322 1.403 . S
C2325 C2326 1.392 . S
C2325 C2329 1.495 . S
C2326 C2325 1.392 . S
C2326 C2327 1.385 . S
C2326 C2328 1.478 . S
C2327 H2321 0.930 . S
C2327 C2323 1.400 . S
C2327 C2326 1.385 . S
C2328 C2326 1.478 . S
C2328 C2330 1.381 . S
C2328 C2334 1.383 . S
C2329 C2325 1.495 . S
C2329 H2335 0.959 . S
C2329 H2336 0.961 . S
C2329 H2337 0.960 . S
C2330 C2328 1.381 . S
C2330 C2331 1.394 . S
C2330 H2338 0.930 . S
C2331 C2330 1.394 . S
C2331 C2332 1.383 . S
C2331 H2339 0.929 . S
C2332 C2331 1.383 . S
C2332 C2333 1.377 . S
C2333 H2317 0.930 . S
C2333 C2332 1.377 . S
C2333 C2334 1.379 . S
C2334 H2318 0.931 . S
C2334 C2328 1.383 . S
C2334 C2333 1.379 . S
H2335 C2329 0.959 . S
H2336 C2329 0.961 . S
H2337 C2329 0.960 . S
H2338 C2330 0.930 . S
H2339 C2331 0.929 . S
H2340 C2348 0.929 . S
H2341 C2350 0.930 . S
H2342 C2352 0.930 . S
H2343 C2355 0.929 . S
H2344 C2358 0.930 . S
H2345 C2360 0.960 . S
H2346 C2360 0.960 . S
H2347 C2360 0.960 . S
C2348 H2340 0.929 . S
C2348 C2349 1.377 . S
C2348 C2350 1.384 . S
C2349 C2348 1.377 . S
C2349 C2355 1.390 . S
C2350 H2341 0.930 . S
C2350 C2348 1.384 . S
C2350 C2351 1.372 . S
C2351 C2350 1.372 . S
C2351 C2352 1.400 . S
C2351 C2356 1.490 . S
C2352 H2342 0.930 . S
C2352 C2351 1.400 . S
C2352 C2355 1.386 . S
H2353 C2369 0.930 . S
H2354 C2370 0.931 . S
C2355 H2343 0.929 . S
C2355 C2349 1.390 . S
C2355 C2352 1.386 . S
C2356 C2351 1.490 . S
C2356 C2358 1.395 . S
C2356 C2359 1.403 . S
H2357 C2363 0.930 . S
C2358 H2344 0.930 . S
C2358 C2356 1.395 . S
C2358 C2361 1.403 . S
C2359 C2356 1.403 . S
C2359 C2360 1.524 . S
C2359 C2363 1.400 . S
C2360 H2345 0.960 . S
C2360 H2346 0.960 . S
C2360 H2347 0.960 . S
C2360 C2359 1.524 . S
C2361 C2358 1.403 . S
C2361 C2362 1.392 . S
C2361 C2365 1.495 . S
C2362 C2361 1.392 . S
C2362 C2363 1.385 . S
C2362 C2364 1.478 . S
C2363 H2357 0.930 . S
C2363 C2359 1.400 . S
C2363 C2362 1.385 . S
C2364 C2362 1.478 . S
C2364 C2366 1.381 . S
C2364 C2370 1.383 . S
C2365 C2361 1.495 . S
C2365 H2371 0.959 . S
C2365 H2372 0.961 . S
C2365 H2373 0.960 . S
C2366 C2364 1.381 . S
C2366 C2367 1.394 . S
C2366 H2374 0.930 . S
C2367 C2366 1.394 . S
C2367 C2368 1.383 . S
C2367 H2375 0.929 . S
C2368 C2367 1.383 . S
C2368 C2369 1.377 . S
C2369 H2353 0.930 . S
C2369 C2368 1.377 . S
C2369 C2370 1.379 . S
C2370 H2354 0.931 . S
C2370 C2364 1.383 . S
C2370 C2369 1.379 . S
H2371 C2365 0.959 . S
H2372 C2365 0.961 . S
H2373 C2365 0.960 . S
H2374 C2366 0.930 . S
H2375 C2367 0.929 . S
H2376 C2384 0.929 . S
H2377 C2386 0.930 . S
H2378 C2388 0.930 . S
H2379 C2391 0.929 . S
H2380 C2394 0.930 . S
H2381 C2396 0.960 . S
H2382 C2396 0.960 . S
H2383 C2396 0.960 . S
C2384 H2376 0.929 . S
C2384 C2385 1.377 . S
C2384 C2386 1.384 . S
C2385 C2384 1.377 . S
C2385 C2391 1.390 . S
C2386 H2377 0.930 . S
C2386 C2384 1.384 . S
C2386 C2387 1.372 . S
C2387 C2386 1.372 . S
C2387 C2388 1.400 . S
C2387 C2392 1.490 . S
C2388 H2378 0.930 . S
C2388 C2387 1.400 . S
C2388 C2391 1.386 . S
H2389 C2405 0.930 . S
H2390 C2406 0.931 . S
C2391 H2379 0.929 . S
C2391 C2385 1.390 . S
C2391 C2388 1.386 . S
C2392 C2387 1.490 . S
C2392 C2394 1.395 . S
C2392 C2395 1.403 . S
H2393 C2399 0.930 . S
C2394 H2380 0.930 . S
C2394 C2392 1.395 . S
C2394 C2397 1.403 . S
C2395 C2392 1.403 . S
C2395 C2396 1.524 . S
C2395 C2399 1.400 . S
C2396 H2381 0.960 . S
C2396 H2382 0.960 . S
C2396 H2383 0.960 . S
C2396 C2395 1.524 . S
C2397 C2394 1.403 . S
C2397 C2398 1.392 . S
C2397 C2401 1.495 . S
C2398 C2397 1.392 . S
C2398 C2399 1.385 . S
C2398 C2400 1.478 . S
C2399 H2393 0.930 . S
C2399 C2395 1.400 . S
C2399 C2398 1.385 . S
C2400 C2398 1.478 . S
C2400 C2402 1.381 . S
C2400 C2406 1.383 . S
C2401 C2397 1.495 . S
C2401 H2407 0.959 . S
C2401 H2408 0.961 . S
C2401 H2409 0.960 . S
C2402 C2400 1.381 . S
C2402 C2403 1.394 . S
C2402 H2410 0.930 . S
C2403 C2402 1.394 . S
C2403 C2404 1.383 . S
C2403 H2411 0.929 . S
C2404 C2403 1.383 . S
C2404 C2405 1.377 . S
C2405 H2389 0.930 . S
C2405 C2404 1.377 . S
C2405 C2406 1.379 . S
C2406 H2390 0.931 . S
C2406 C2400 1.383 . S
C2406 C2405 1.379 . S
H2407 C2401 0.959 . S
H2408 C2401 0.961 . S
H2409 C2401 0.960 . S
H2410 C2402 0.930 . S
H2411 C2403 0.929 . S
H2412 C2420 0.929 . S
H2413 C2422 0.930 . S
H2414 C2424 0.930 . S
H2415 C2427 0.929 . S
H2416 C2430 0.930 . S
H2417 C2432 0.960 . S
H2418 C2432 0.960 . S
H2419 C2432 0.960 . S
C2420 H2412 0.929 . S
C2420 C2421 1.377 . S
C2420 C2422 1.384 . S
C2421 C2420 1.377 . S
C2421 C2427 1.390 . S
C2422 H2413 0.930 . S
C2422 C2420 1.384 . S
C2422 C2423 1.372 . S
C2423 C2422 1.372 . S
C2423 C2424 1.400 . S
C2423 C2428 1.490 . S
C2424 H2414 0.930 . S
C2424 C2423 1.400 . S
C2424 C2427 1.386 . S
H2425 C2441 0.930 . S
H2426 C2442 0.931 . S
C2427 H2415 0.929 . S
C2427 C2421 1.390 . S
C2427 C2424 1.386 . S
C2428 C2423 1.490 . S
C2428 C2430 1.395 . S
C2428 C2431 1.403 . S
H2429 C2435 0.930 . S
C2430 H2416 0.930 . S
C2430 C2428 1.395 . S
C2430 C2433 1.403 . S
C2431 C2428 1.403 . S
C2431 C2432 1.524 . S
C2431 C2435 1.400 . S
C2432 H2417 0.960 . S
C2432 H2418 0.960 . S
C2432 H2419 0.960 . S
C2432 C2431 1.524 . S
C2433 C2430 1.403 . S
C2433 C2434 1.392 . S
C2433 C2437 1.495 . S
C2434 C2433 1.392 . S
C2434 C2435 1.385 . S
C2434 C2436 1.478 . S
C2435 H2429 0.930 . S
C2435 C2431 1.400 . S
C2435 C2434 1.385 . S
C2436 C2434 1.478 . S
C2436 C2438 1.381 . S
C2436 C2442 1.383 . S
C2437 C2433 1.495 . S
C2437 H2443 0.959 . S
C2437 H2444 0.961 . S
C2437 H2445 0.960 . S
C2438 C2436 1.381 . S
C2438 C2439 1.394 . S
C2438 H2446 0.930 . S
C2439 C2438 1.394 . S
C2439 C2440 1.383 . S
C2439 H2447 0.929 . S
C2440 C2439 1.383 . S
C2440 C2441 1.377 . S
C2441 H2425 0.930 . S
C2441 C2440 1.377 . S
C2441 C2442 1.379 . S
C2442 H2426 0.931 . S
C2442 C2436 1.383 . S
C2442 C2441 1.379 . S
H2443 C2437 0.959 . S
H2444 C2437 0.961 . S
H2445 C2437 0.960 . S
H2446 C2438 0.930 . S
H2447 C2439 0.929 . S
H2448 C2456 0.929 . S
H2449 C2458 0.930 . S
H2450 C2460 0.930 . S
H2451 C2463 0.929 . S
H2452 C2466 0.930 . S
H2453 C2468 0.960 . S
H2454 C2468 0.960 . S
H2455 C2468 0.960 . S
C2456 H2448 0.929 . S
C2456 C2457 1.377 . S
C2456 C2458 1.384 . S
C2457 C2456 1.377 . S
C2457 C2463 1.390 . S
C2458 H2449 0.930 . S
C2458 C2456 1.384 . S
C2458 C2459 1.372 . S
C2459 C2458 1.372 . S
C2459 C2460 1.400 . S
C2459 C2464 1.490 . S
C2460 H2450 0.930 . S
C2460 C2459 1.400 . S
C2460 C2463 1.386 . S
H2461 C2477 0.930 . S
H2462 C2478 0.931 . S
C2463 H2451 0.929 . S
C2463 C2457 1.390 . S
C2463 C2460 1.386 . S
C2464 C2459 1.490 . S
C2464 C2466 1.395 . S
C2464 C2467 1.403 . S
H2465 C2471 0.930 . S
C2466 H2452 0.930 . S
C2466 C2464 1.395 . S
C2466 C2469 1.403 . S
C2467 C2464 1.403 . S
C2467 C2468 1.524 . S
C2467 C2471 1.400 . S
C2468 H2453 0.960 . S
C2468 H2454 0.960 . S
C2468 H2455 0.960 . S
C2468 C2467 1.524 . S
C2469 C2466 1.403 . S
C2469 C2470 1.392 . S
C2469 C2473 1.495 . S
C2470 C2469 1.392 . S
C2470 C2471 1.385 . S
C2470 C2472 1.478 . S
C2471 H2465 0.930 . S
C2471 C2467 1.400 . S
C2471 C2470 1.385 . S
C2472 C2470 1.478 . S
C2472 C2474 1.381 . S
C2472 C2478 1.383 . S
C2473 C2469 1.495 . S
C2473 H2479 0.959 . S
C2473 H2480 0.961 . S
C2473 H2481 0.960 . S
C2474 C2472 1.381 . S
C2474 C2475 1.394 . S
C2474 H2482 0.930 . S
C2475 C2474 1.394 . S
C2475 C2476 1.383 . S
C2475 H2483 0.929 . S
C2476 C2475 1.383 . S
C2476 C2477 1.377 . S
C2477 H2461 0.930 . S
C2477 C2476 1.377 . S
C2477 C2478 1.379 . S
C2478 H2462 0.931 . S
C2478 C2472 1.383 . S
C2478 C2477 1.379 . S
H2479 C2473 0.959 . S
H2480 C2473 0.961 . S
H2481 C2473 0.960 . S
H2482 C2474 0.930 . S
H2483 C2475 0.929 . S
H2484 C2492 0.929 . S
H2485 C2494 0.930 . S
H2486 C2496 0.930 . S
H2487 C2499 0.929 . S
H2488 C2502 0.930 . S
H2489 C2504 0.960 . S
H2490 C2504 0.960 . S
H2491 C2504 0.960 . S
C2492 H2484 0.929 . S
C2492 C2493 1.377 . S
C2492 C2494 1.384 . S
C2493 C2492 1.377 . S
C2493 C2499 1.390 . S
C2494 H2485 0.930 . S
C2494 C2492 1.384 . S
C2494 C2495 1.372 . S
C2495 C2494 1.372 . S
C2495 C2496 1.400 . S
C2495 C2500 1.490 . S
C2496 H2486 0.930 . S
C2496 C2495 1.400 . S
C2496 C2499 1.386 . S
H2497 C2513 0.930 . S
H2498 C2514 0.931 . S
C2499 H2487 0.929 . S
C2499 C2493 1.390 . S
C2499 C2496 1.386 . S
C2500 C2495 1.490 . S
C2500 C2502 1.395 . S
C2500 C2503 1.403 . S
H2501 C2507 0.930 . S
C2502 H2488 0.930 . S
C2502 C2500 1.395 . S
C2502 C2505 1.403 . S
C2503 C2500 1.403 . S
C2503 C2504 1.524 . S
C2503 C2507 1.400 . S
C2504 H2489 0.960 . S
C2504 H2490 0.960 . S
C2504 H2491 0.960 . S
C2504 C2503 1.524 . S
C2505 C2502 1.403 . S
C2505 C2506 1.392 . S
C2505 C2509 1.495 . S
C2506 C2505 1.392 . S
C2506 C2507 1.385 . S
C2506 C2508 1.478 . S
C2507 H2501 0.930 . S
C2507 C2503 1.400 . S
C2507 C2506 1.385 . S
C2508 C2506 1.478 . S
C2508 C2510 1.381 . S
C2508 C2514 1.383 . S
C2509 C2505 1.495 . S
C2509 H2515 0.959 . S
C2509 H2516 0.961 . S
C2509 H2517 0.960 . S
C2510 C2508 1.381 . S
C2510 C2511 1.394 . S
C2510 H2518 0.930 . S
C2511 C2510 1.394 . S
C2511 C2512 1.383 . S
C2511 H2519 0.929 . S
C2512 C2511 1.383 . S
C2512 C2513 1.377 . S
C2513 H2497 0.930 . S
C2513 C2512 1.377 . S
C2513 C2514 1.379 . S
C2514 H2498 0.931 . S
C2514 C2508 1.383 . S
C2514 C2513 1.379 . S
H2515 C2509 0.959 . S
H2516 C2509 0.961 . S
H2517 C2509 0.960 . S
H2518 C2510 0.930 . S
H2519 C2511 0.929 . S
H2520 C2528 0.929 . S
H2521 C2530 0.930 . S
H2522 C2532 0.930 . S
H2523 C2535 0.929 . S
H2524 C2538 0.930 . S
H2525 C2540 0.960 . S
H2526 C2540 0.960 . S
H2527 C2540 0.960 . S
C2528 H2520 0.929 . S
C2528 C2529 1.377 . S
C2528 C2530 1.384 . S
C2529 C2528 1.377 . S
C2529 C2535 1.390 . S
C2530 H2521 0.930 . S
C2530 C2528 1.384 . S
C2530 C2531 1.372 . S
C2531 C2530 1.372 . S
C2531 C2532 1.400 . S
C2531 C2536 1.490 . S
C2532 H2522 0.930 . S
C2532 C2531 1.400 . S
C2532 C2535 1.386 . S
H2533 C2549 0.930 . S
H2534 C2550 0.931 . S
C2535 H2523 0.929 . S
C2535 C2529 1.390 . S
C2535 C2532 1.386 . S
C2536 C2531 1.490 . S
C2536 C2538 1.395 . S
C2536 C2539 1.403 . S
H2537 C2543 0.930 . S
C2538 H2524 0.930 . S
C2538 C2536 1.395 . S
C2538 C2541 1.403 . S
C2539 C2536 1.403 . S
C2539 C2540 1.524 . S
C2539 C2543 1.400 . S
C2540 H2525 0.960 . S
C2540 H2526 0.960 . S
C2540 H2527 0.960 . S
C2540 C2539 1.524 . S
C2541 C2538 1.403 . S
C2541 C2542 1.392 . S
C2541 C2545 1.495 . S
C2542 C2541 1.392 . S
C2542 C2543 1.385 . S
C2542 C2544 1.478 . S
C2543 H2537 0.930 . S
C2543 C2539 1.400 . S
C2543 C2542 1.385 . S
C2544 C2542 1.478 . S
C2544 C2546 1.381 . S
C2544 C2550 1.383 . S
C2545 C2541 1.495 . S
C2545 H2551 0.959 . S
C2545 H2552 0.961 . S
C2545 H2553 0.960 . S
C2546 C2544 1.381 . S
C2546 C2547 1.394 . S
C2546 H2554 0.930 . S
C2547 C2546 1.394 . S
C2547 C2548 1.383 . S
C2547 H2555 0.929 . S
C2548 C2547 1.383 . S
C2548 C2549 1.377 . S
C2549 H2533 0.930 . S
C2549 C2548 1.377 . S
C2549 C2550 1.379 . S
C2550 H2534 0.931 . S
C2550 C2544 1.383 . S
C2550 C2549 1.379 . S
H2551 C2545 0.959 . S
H2552 C2545 0.961 . S
H2553 C2545 0.960 . S
H2554 C2546 0.930 . S
H2555 C2547 0.929 . S
H2556 C2564 0.954 . S
H2557 C2566 0.930 . S
H2558 C2568 0.930 . S
H2559 C2571 0.929 . S
H2560 C2574 0.930 . S
H2561 C2576 0.960 . S
H2562 C2576 0.960 . S
H2563 C2576 0.960 . S
C2564 H2556 0.954 . S
C2564 C2565 1.377 . S
C2564 C2566 1.384 . S
C2565 C2564 1.377 . S
C2565 C2571 1.390 . S
C2566 H2557 0.930 . S
C2566 C2564 1.384 . S
C2566 C2567 1.372 . S
C2567 C2566 1.372 . S
C2567 C2568 1.400 . S
C2567 C2572 1.490 . S
C2568 H2558 0.930 . S
C2568 C2567 1.400 . S
C2568 C2571 1.386 . S
H2569 C2585 0.930 . S
H2570 C2586 0.931 . S
C2571 H2559 0.929 . S
C2571 C2565 1.390 . S
C2571 C2568 1.386 . S
C2572 C2567 1.490 . S
C2572 C2574 1.395 . S
C2572 C2575 1.403 . S
H2573 C2579 0.930 . S
C2574 H2560 0.930 . S
C2574 C2572 1.395 . S
C2574 C2577 1.403 . S
C2575 C2572 1.403 . S
C2575 C2576 1.524 . S
C2575 C2579 1.400 . S
C2576 H2561 0.960 . S
C2576 H2562 0.960 . S
C2576 H2563 0.960 . S
C2576 C2575 1.524 . S
C2577 C2574 1.403 . S
C2577 C2578 1.392 . S
C2577 C2581 1.495 . S
C2578 C2577 1.392 . S
C2578 C2579 1.385 . S
C2578 C2580 1.478 . S
C2579 H2573 0.930 . S
C2579 C2575 1.400 . S
C2579 C2578 1.385 . S
C2580 C2578 1.478 . S
C2580 C2582 1.381 . S
C2580 C2586 1.383 . S
C2581 C2577 1.495 . S
C2581 H2587 0.959 . S
C2581 H2588 0.961 . S
C2581 H2589 0.960 . S
C2582 C2580 1.381 . S
C2582 C2583 1.394 . S
C2582 H2590 0.930 . S
C2583 C2582 1.394 . S
C2583 C2584 1.383 . S
C2583 H2591 0.929 . S
C2584 C2583 1.383 . S
C2584 C2585 1.377 . S
C2585 H2569 0.930 . S
C2585 C2584 1.377 . S
C2585 C2586 1.379 . S
C2586 H2570 0.931 . S
C2586 C2580 1.383 . S
C2586 C2585 1.379 . S
H2587 C2581 0.959 . S
H2588 C2581 0.961 . S
H2589 C2581 0.960 . S
H2590 C2582 0.930 . S
H2591 C2583 0.929 . S
H2592 C2600 0.929 . S
H2593 C2602 0.930 . S
H2594 C2604 0.930 . S
H2595 C2607 0.929 . S
H2596 C2610 0.930 . S
H2597 C2612 0.960 . S
H2598 C2612 0.960 . S
H2599 C2612 0.960 . S
C2600 H2592 0.929 . S
C2600 C2601 1.377 . S
C2600 C2602 1.384 . S
C2601 C2600 1.377 . S
C2601 C2607 1.390 . S
C2602 H2593 0.930 . S
C2602 C2600 1.384 . S
C2602 C2603 1.372 . S
C2603 C2602 1.372 . S
C2603 C2604 1.400 . S
C2603 C2608 1.490 . S
C2604 H2594 0.930 . S
C2604 C2603 1.400 . S
C2604 C2607 1.386 . S
H2605 C2621 0.930 . S
H2606 C2622 0.931 . S
C2607 H2595 0.929 . S
C2607 C2601 1.390 . S
C2607 C2604 1.386 . S
C2608 C2603 1.490 . S
C2608 C2610 1.395 . S
C2608 C2611 1.403 . S
H2609 C2615 0.930 . S
C2610 H2596 0.930 . S
C2610 C2608 1.395 . S
C2610 C2613 1.403 . S
C2611 C2608 1.403 . S
C2611 C2612 1.524 . S
C2611 C2615 1.400 . S
C2612 H2597 0.960 . S
C2612 H2598 0.960 . S
C2612 H2599 0.960 . S
C2612 C2611 1.524 . S
C2613 C2610 1.403 . S
C2613 C2614 1.392 . S
C2613 C2617 1.495 . S
C2614 C2613 1.392 . S
C2614 C2615 1.385 . S
C2614 C2616 1.478 . S
C2615 H2609 0.930 . S
C2615 C2611 1.400 . S
C2615 C2614 1.385 . S
C2616 C2614 1.478 . S
C2616 C2618 1.381 . S
C2616 C2622 1.383 . S
C2617 C2613 1.495 . S
C2617 H2623 0.959 . S
C2617 H2624 0.961 . S
C2617 H2625 0.960 . S
C2618 C2616 1.381 . S
C2618 C2619 1.394 . S
C2618 H2626 0.930 . S
C2619 C2618 1.394 . S
C2619 C2620 1.383 . S
C2619 H2627 0.929 . S
C2620 C2619 1.383 . S
C2620 C2621 1.377 . S
C2621 H2605 0.930 . S
C2621 C2620 1.377 . S
C2621 C2622 1.379 . S
C2622 H2606 0.931 . S
C2622 C2616 1.383 . S
C2622 C2621 1.379 . S
H2623 C2617 0.959 . S
H2624 C2617 0.961 . S
H2625 C2617 0.960 . S
H2626 C2618 0.930 . S
H2627 C2619 0.929 . S
H2628 C2636 0.929 . S
H2629 C2638 0.930 . S
H2630 C2640 0.930 . S
H2631 C2643 0.929 . S
H2632 C2646 0.930 . S
H2633 C2648 0.960 . S
H2634 C2648 0.960 . S
H2635 C2648 0.960 . S
C2636 H2628 0.929 . S
C2636 C2637 1.377 . S
C2636 C2638 1.384 . S
C2637 C2636 1.377 . S
C2637 C2643 1.390 . S
C2638 H2629 0.930 . S
C2638 C2636 1.384 . S
C2638 C2639 1.372 . S
C2639 C2638 1.372 . S
C2639 C2640 1.400 . S
C2639 C2644 1.490 . S
C2640 H2630 0.930 . S
C2640 C2639 1.400 . S
C2640 C2643 1.386 . S
H2641 C2657 0.930 . S
H2642 C2658 0.931 . S
C2643 H2631 0.929 . S
C2643 C2637 1.390 . S
C2643 C2640 1.386 . S
C2644 C2639 1.490 . S
C2644 C2646 1.395 . S
C2644 C2647 1.403 . S
H2645 C2651 0.930 . S
C2646 H2632 0.930 . S
C2646 C2644 1.395 . S
C2646 C2649 1.403 . S
C2647 C2644 1.403 . S
C2647 C2648 1.524 . S
C2647 C2651 1.400 . S
C2648 H2633 0.960 . S
C2648 H2634 0.960 . S
C2648 H2635 0.960 . S
C2648 C2647 1.524 . S
C2649 C2646 1.403 . S
C2649 C2650 1.392 . S
C2649 C2653 1.495 . S
C2650 C2649 1.392 . S
C2650 C2651 1.385 . S
C2650 C2652 1.478 . S
C2651 H2645 0.930 . S
C2651 C2647 1.400 . S
C2651 C2650 1.385 . S
C2652 C2650 1.478 . S
C2652 C2654 1.381 . S
C2652 C2658 1.383 . S
C2653 C2649 1.495 . S
C2653 H2659 0.959 . S
C2653 H2660 0.961 . S
C2653 H2661 0.960 . S
C2654 C2652 1.381 . S
C2654 C2655 1.394 . S
C2654 H2662 0.930 . S
C2655 C2654 1.394 . S
C2655 C2656 1.383 . S
C2655 H2663 0.929 . S
C2656 C2655 1.383 . S
C2656 C2657 1.377 . S
C2657 H2641 0.930 . S
C2657 C2656 1.377 . S
C2657 C2658 1.379 . S
C2658 H2642 0.931 . S
C2658 C2652 1.383 . S
C2658 C2657 1.379 . S
H2659 C2653 0.959 . S
H2660 C2653 0.961 . S
H2661 C2653 0.960 . S
H2662 C2654 0.930 . S
H2663 C2655 0.929 . S
H2664 C2672 0.929 . S
H2665 C2674 0.930 . S
H2666 C2676 0.930 . S
H2667 C2679 0.929 . S
H2668 C2682 0.930 . S
H2669 C2684 0.960 . S
H2670 C2684 0.960 . S
H2671 C2684 0.960 . S
C2672 H2664 0.929 . S
C2672 C2673 1.377 . S
C2672 C2674 1.384 . S
C2673 C2672 1.377 . S
C2673 C2679 1.390 . S
C2674 H2665 0.930 . S
C2674 C2672 1.384 . S
C2674 C2675 1.372 . S
C2675 C2674 1.372 . S
C2675 C2676 1.400 . S
C2675 C2680 1.490 . S
C2676 H2666 0.930 . S
C2676 C2675 1.400 . S
C2676 C2679 1.386 . S
H2677 C2693 0.930 . S
H2678 C2694 0.931 . S
C2679 H2667 0.929 . S
C2679 C2673 1.390 . S
C2679 C2676 1.386 . S
C2680 C2675 1.490 . S
C2680 C2682 1.395 . S
C2680 C2683 1.403 . S
H2681 C2687 0.930 . S
C2682 H2668 0.930 . S
C2682 C2680 1.395 . S
C2682 C2685 1.403 . S
C2683 C2680 1.403 . S
C2683 C2684 1.524 . S
C2683 C2687 1.400 . S
C2684 H2669 0.960 . S
C2684 H2670 0.960 . S
C2684 H2671 0.960 . S
C2684 C2683 1.524 . S
C2685 C2682 1.403 . S
C2685 C2686 1.392 . S
C2685 C2689 1.495 . S
C2686 C2685 1.392 . S
C2686 C2687 1.385 . S
C2686 C2688 1.478 . S
C2687 H2681 0.930 . S
C2687 C2683 1.400 . S
C2687 C2686 1.385 . S
C2688 C2686 1.478 . S
C2688 C2690 1.381 . S
C2688 C2694 1.383 . S
C2689 C2685 1.495 . S
C2689 H2695 0.959 . S
C2689 H2696 0.961 . S
C2689 H2697 0.960 . S
C2690 C2688 1.381 . S
C2690 C2691 1.394 . S
C2690 H2698 0.930 . S
C2691 C2690 1.394 . S
C2691 C2692 1.383 . S
C2691 H2699 0.929 . S
C2692 C2691 1.383 . S
C2692 C2693 1.377 . S
C2693 H2677 0.930 . S
C2693 C2692 1.377 . S
C2693 C2694 1.379 . S
C2694 H2678 0.931 . S
C2694 C2688 1.383 . S
C2694 C2693 1.379 . S
H2695 C2689 0.959 . S
H2696 C2689 0.961 . S
H2697 C2689 0.960 . S
H2698 C2690 0.930 . S
H2699 C2691 0.929 . S
H2700 C2708 0.929 . S
H2701 C2710 0.930 . S
H2702 C2712 0.930 . S
H2703 C2715 0.929 . S
H2704 C2718 0.930 . S
H2705 C2720 0.960 . S
H2706 C2720 0.960 . S
H2707 C2720 0.960 . S
C2708 H2700 0.929 . S
C2708 C2709 1.377 . S
C2708 C2710 1.384 . S
C2709 C2708 1.377 . S
C2709 C2715 1.390 . S
C2710 H2701 0.930 . S
C2710 C2708 1.384 . S
C2710 C2711 1.372 . S
C2711 C2710 1.372 . S
C2711 C2712 1.400 . S
C2711 C2716 1.490 . S
C2712 H2702 0.930 . S
C2712 C2711 1.400 . S
C2712 C2715 1.386 . S
H2713 C2729 0.930 . S
H2714 C2730 0.931 . S
C2715 H2703 0.929 . S
C2715 C2709 1.390 . S
C2715 C2712 1.386 . S
C2716 C2711 1.490 . S
C2716 C2718 1.395 . S
C2716 C2719 1.403 . S
H2717 C2723 0.930 . S
C2718 H2704 0.930 . S
C2718 C2716 1.395 . S
C2718 C2721 1.403 . S
C2719 C2716 1.403 . S
C2719 C2720 1.524 . S
C2719 C2723 1.400 . S
C2720 H2705 0.960 . S
C2720 H2706 0.960 . S
C2720 H2707 0.960 . S
C2720 C2719 1.524 . S
C2721 C2718 1.403 . S
C2721 C2722 1.392 . S
C2721 C2725 1.495 . S
C2722 C2721 1.392 . S
C2722 C2723 1.385 . S
C2722 C2724 1.478 . S
C2723 H2717 0.930 . S
C2723 C2719 1.400 . S
C2723 C2722 1.385 . S
C2724 C2722 1.478 . S
C2724 C2726 1.381 . S
C2724 C2730 1.383 . S
C2725 C2721 1.495 . S
C2725 H2731 0.959 . S
C2725 H2732 0.961 . S
C2725 H2733 0.960 . S
C2726 C2724 1.381 . S
C2726 C2727 1.394 . S
C2726 H2734 0.930 . S
C2727 C2726 1.394 . S
C2727 C2728 1.383 . S
C2727 H2735 0.929 . S
C2728 C2727 1.383 . S
C2728 C2729 1.377 . S
C2729 H2713 0.930 . S
C2729 C2728 1.377 . S
C2729 C2730 1.379 . S
C2730 H2714 0.931 . S
C2730 C2724 1.383 . S
C2730 C2729 1.379 . S
H2731 C2725 0.959 . S
H2732 C2725 0.961 . S
H2733 C2725 0.960 . S
H2734 C2726 0.930 . S
H2735 C2727 0.929 . S
H2736 C2744 0.929 . S
H2737 C2746 0.930 . S
H2738 C2748 0.930 . S
H2739 C2751 0.929 . S
H2740 C2754 0.930 . S
H2741 C2756 0.960 . S
H2742 C2756 0.960 . S
H2743 C2756 0.960 . S
C2744 H2736 0.929 . S
C2744 C2745 1.377 . S
C2744 C2746 1.384 . S
C2745 C2744 1.377 . S
C2745 C2751 1.390 . S
C2746 H2737 0.930 . S
C2746 C2744 1.384 . S
C2746 C2747 1.372 . S
C2747 C2746 1.372 . S
C2747 C2748 1.400 . S
C2747 C2752 1.490 . S
C2748 H2738 0.930 . S
C2748 C2747 1.400 . S
C2748 C2751 1.386 . S
H2749 C2765 0.930 . S
H2750 C2766 0.931 . S
C2751 H2739 0.929 . S
C2751 C2745 1.390 . S
C2751 C2748 1.386 . S
C2752 C2747 1.490 . S
C2752 C2754 1.395 . S
C2752 C2755 1.403 . S
H2753 C2759 0.930 . S
C2754 H2740 0.930 . S
C2754 C2752 1.395 . S
C2754 C2757 1.403 . S
C2755 C2752 1.403 . S
C2755 C2756 1.524 . S
C2755 C2759 1.400 . S
C2756 H2741 0.960 . S
C2756 H2742 0.960 . S
C2756 H2743 0.960 . S
C2756 C2755 1.524 . S
C2757 C2754 1.403 . S
C2757 C2758 1.392 . S
C2757 C2761 1.495 . S
C2758 C2757 1.392 . S
C2758 C2759 1.385 . S
C2758 C2760 1.478 . S
C2759 H2753 0.930 . S
C2759 C2755 1.400 . S
C2759 C2758 1.385 . S
C2760 C2758 1.478 . S
C2760 C2762 1.381 . S
C2760 C2766 1.383 . S
C2761 C2757 1.495 . S
C2761 H2767 0.959 . S
C2761 H2768 0.961 . S
C2761 H2769 0.960 . S
C2762 C2760 1.381 . S
C2762 C2763 1.394 . S
C2762 H2770 0.930 . S
C2763 C2762 1.394 . S
C2763 C2764 1.383 . S
C2763 H2771 0.929 . S
C2764 C2763 1.383 . S
C2764 C2765 1.377 . S
C2765 H2749 0.930 . S
C2765 C2764 1.377 . S
C2765 C2766 1.379 . S
C2766 H2750 0.931 . S
C2766 C2760 1.383 . S
C2766 C2765 1.379 . S
H2767 C2761 0.959 . S
H2768 C2761 0.961 . S
H2769 C2761 0.960 . S
H2770 C2762 0.930 . S
H2771 C2763 0.929 . S
H2772 C2780 0.929 . S
H2773 C2782 0.930 . S
H2774 C2784 0.930 . S
H2775 C2787 0.929 . S
H2776 C2790 0.930 . S
H2777 C2792 0.960 . S
H2778 C2792 0.960 . S
H2779 C2792 0.960 . S
C2780 H2772 0.929 . S
C2780 C2781 1.377 . S
C2780 C2782 1.384 . S
C2781 C2780 1.377 . S
C2781 C2787 1.390 . S
C2782 H2773 0.930 . S
C2782 C2780 1.384 . S
C2782 C2783 1.372 . S
C2783 C2782 1.372 . S
C2783 C2784 1.400 . S
C2783 C2788 1.490 . S
C2784 H2774 0.930 . S
C2784 C2783 1.400 . S
C2784 C2787 1.386 . S
H2785 C2801 0.930 . S
H2786 C2802 0.931 . S
C2787 H2775 0.929 . S
C2787 C2781 1.390 . S
C2787 C2784 1.386 . S
C2788 C2783 1.490 . S
C2788 C2790 1.395 . S
C2788 C2791 1.403 . S
H2789 C2795 0.930 . S
C2790 H2776 0.930 . S
C2790 C2788 1.395 . S
C2790 C2793 1.403 . S
C2791 C2788 1.403 . S
C2791 C2792 1.524 . S
C2791 C2795 1.400 . S
C2792 H2777 0.960 . S
C2792 H2778 0.960 . S
C2792 H2779 0.960 . S
C2792 C2791 1.524 . S
C2793 C2790 1.403 . S
C2793 C2794 1.392 . S
C2793 C2797 1.495 . S
C2794 C2793 1.392 . S
C2794 C2795 1.385 . S
C2794 C2796 1.478 . S
C2795 H2789 0.930 . S
C2795 C2791 1.400 . S
C2795 C2794 1.385 . S
C2796 C2794 1.478 . S
C2796 C2798 1.381 . S
C2796 C2802 1.383 . S
C2797 C2793 1.495 . S
C2797 H2803 0.959 . S
C2797 H2804 0.961 . S
C2797 H2805 0.960 . S
C2798 C2796 1.381 . S
C2798 C2799 1.394 . S
C2798 H2806 0.930 . S
C2799 C2798 1.394 . S
C2799 C2800 1.383 . S
C2799 H2807 0.929 . S
C2800 C2799 1.383 . S
C2800 C2801 1.377 . S
C2801 H2785 0.930 . S
C2801 C2800 1.377 . S
C2801 C2802 1.379 . S
C2802 H2786 0.931 . S
C2802 C2796 1.383 . S
C2802 C2801 1.379 . S
H2803 C2797 0.959 . S
H2804 C2797 0.961 . S
H2805 C2797 0.960 . S
H2806 C2798 0.930 . S
H2807 C2799 0.929 . S
H2808 C2816 0.929 . S
H2809 C2818 0.930 . S
H2810 C2820 0.930 . S
H2811 C2823 0.929 . S
H2812 C2826 0.930 . S
H2813 C2828 0.960 . S
H2814 C2828 0.960 . S
H2815 C2828 0.960 . S
C2816 H2808 0.929 . S
C2816 C2817 1.377 . S
C2816 C2818 1.384 . S
C2817 C2816 1.377 . S
C2817 C2823 1.390 . S
C2818 H2809 0.930 . S
C2818 C2816 1.384 . S
C2818 C2819 1.372 . S
C2819 C2818 1.372 . S
C2819 C2820 1.400 . S
C2819 C2824 1.490 . S
C2820 H2810 0.930 . S
C2820 C2819 1.400 . S
C2820 C2823 1.386 . S
H2821 C2837 0.930 . S
H2822 C2838 0.931 . S
C2823 H2811 0.929 . S
C2823 C2817 1.390 . S
C2823 C2820 1.386 . S
C2824 C2819 1.490 . S
C2824 C2826 1.395 . S
C2824 C2827 1.403 . S
H2825 C2831 0.930 . S
C2826 H2812 0.930 . S
C2826 C2824 1.395 . S
C2826 C2829 1.403 . S
C2827 C2824 1.403 . S
C2827 C2828 1.524 . S
C2827 C2831 1.400 . S
C2828 H2813 0.960 . S
C2828 H2814 0.960 . S
C2828 H2815 0.960 . S
C2828 C2827 1.524 . S
C2829 C2826 1.403 . S
C2829 C2830 1.392 . S
C2829 C2833 1.495 . S
C2830 C2829 1.392 . S
C2830 C2831 1.385 . S
C2830 C2832 1.478 . S
C2831 H2825 0.930 . S
C2831 C2827 1.400 . S
C2831 C2830 1.385 . S
C2832 C2830 1.478 . S
C2832 C2834 1.381 . S
C2832 C2838 1.383 . S
C2833 C2829 1.495 . S
C2833 H2839 0.959 . S
C2833 H2840 0.961 . S
C2833 H2841 0.960 . S
C2834 C2832 1.381 . S
C2834 C2835 1.394 . S
C2834 H2842 0.930 . S
C2835 C2834 1.394 . S
C2835 C2836 1.383 . S
C2835 H2843 0.929 . S
C2836 C2835 1.383 . S
C2836 C2837 1.377 . S
C2837 H2821 0.930 . S
C2837 C2836 1.377 . S
C2837 C2838 1.379 . S
C2838 H2822 0.931 . S
C2838 C2832 1.383 . S
C2838 C2837 1.379 . S
H2839 C2833 0.959 . S
H2840 C2833 0.961 . S
H2841 C2833 0.960 . S
H2842 C2834 0.930 . S
H2843 C2835 0.929 . S
H2844 C2852 0.929 . S
H2845 C2854 0.930 . S
H2846 C2856 0.930 . S
H2847 C2859 0.929 . S
H2848 C2862 0.930 . S
H2849 C2864 0.960 . S
H2850 C2864 0.960 . S
H2851 C2864 0.960 . S
C2852 H2844 0.929 . S
C2852 C2853 1.377 . S
C2852 C2854 1.384 . S
C2853 C2852 1.377 . S
C2853 C2859 1.390 . S
C2854 H2845 0.930 . S
C2854 C2852 1.384 . S
C2854 C2855 1.372 . S
C2855 C2854 1.372 . S
C2855 C2856 1.400 . S
C2855 C2860 1.490 . S
C2856 H2846 0.930 . S
C2856 C2855 1.400 . S
C2856 C2859 1.386 . S
H2857 C2873 0.930 . S
H2858 C2874 0.931 . S
C2859 H2847 0.929 . S
C2859 C2853 1.390 . S
C2859 C2856 1.386 . S
C2860 C2855 1.490 . S
C2860 C2862 1.395 . S
C2860 C2863 1.403 . S
H2861 C2867 0.930 . S
C2862 H2848 0.930 . S
C2862 C2860 1.395 . S
C2862 C2865 1.403 . S
C2863 C2860 1.403 . S
C2863 C2864 1.524 . S
C2863 C2867 1.400 . S
C2864 H2849 0.960 . S
C2864 H2850 0.960 . S
C2864 H2851 0.960 . S
C2864 C2863 1.524 . S
C2865 C2862 1.403 . S
C2865 C2866 1.392 . S
C2865 C2869 1.495 . S
C2866 C2865 1.392 . S
C2866 C2867 1.385 . S
C2866 C2868 1.478 . S
C2867 H2861 0.930 . S
C2867 C2863 1.400 . S
C2867 C2866 1.385 . S
C2868 C2866 1.478 . S
C2868 C2870 1.381 . S
C2868 C2874 1.383 . S
C2869 C2865 1.495 . S
C2869 H2875 0.959 . S
C2869 H2876 0.961 . S
C2869 H2877 0.960 . S
C2870 C2868 1.381 . S
C2870 C2871 1.394 . S
C2870 H2878 0.930 . S
C2871 C2870 1.394 . S
C2871 C2872 1.383 . S
C2871 H2879 0.929 . S
C2872 C2871 1.383 . S
C2872 C2873 1.377 . S
C2873 H2857 0.930 . S
C2873 C2872 1.377 . S
C2873 C2874 1.379 . S
C2874 H2858 0.931 . S
C2874 C2868 1.383 . S
C2874 C2873 1.379 . S
H2875 C2869 0.959 . S
H2876 C2869 0.961 . S
H2877 C2869 0.960 . S
H2878 C2870 0.930 . S
H2879 C2871 0.929 . S
H2880 C2888 0.929 . S
H2881 C2890 0.930 . S
H2882 C2892 0.930 . S
H2883 C2895 0.929 . S
H2884 C2898 0.930 . S
H2885 C2900 0.960 . S
H2886 C2900 0.960 . S
H2887 C2900 0.960 . S
C2888 H2880 0.929 . S
C2888 C2889 1.377 . S
C2888 C2890 1.384 . S
C2889 C2888 1.377 . S
C2889 C2895 1.390 . S
C2890 H2881 0.930 . S
C2890 C2888 1.384 . S
C2890 C2891 1.372 . S
C2891 C2890 1.372 . S
C2891 C2892 1.400 . S
C2891 C2896 1.490 . S
C2892 H2882 0.930 . S
C2892 C2891 1.400 . S
C2892 C2895 1.386 . S
H2893 C2909 0.930 . S
H2894 C2910 0.931 . S
C2895 H2883 0.929 . S
C2895 C2889 1.390 . S
C2895 C2892 1.386 . S
C2896 C2891 1.490 . S
C2896 C2898 1.395 . S
C2896 C2899 1.403 . S
H2897 C2903 0.930 . S
C2898 H2884 0.930 . S
C2898 C2896 1.395 . S
C2898 C2901 1.403 . S
C2899 C2896 1.403 . S
C2899 C2900 1.524 . S
C2899 C2903 1.400 . S
C2900 H2885 0.960 . S
C2900 H2886 0.960 . S
C2900 H2887 0.960 . S
C2900 C2899 1.524 . S
C2901 C2898 1.403 . S
C2901 C2902 1.392 . S
C2901 C2905 1.495 . S
C2902 C2901 1.392 . S
C2902 C2903 1.385 . S
C2902 C2904 1.478 . S
C2903 H2897 0.930 . S
C2903 C2899 1.400 . S
C2903 C2902 1.385 . S
C2904 C2902 1.478 . S
C2904 C2906 1.381 . S
C2904 C2910 1.383 . S
C2905 C2901 1.495 . S
C2905 H2911 0.959 . S
C2905 H2912 0.961 . S
C2905 H2913 0.960 . S
C2906 C2904 1.381 . S
C2906 C2907 1.394 . S
C2906 H2914 0.930 . S
C2907 C2906 1.394 . S
C2907 C2908 1.383 . S
C2907 H2915 0.929 . S
C2908 C2907 1.383 . S
C2908 C2909 1.377 . S
C2909 H2893 0.930 . S
C2909 C2908 1.377 . S
C2909 C2910 1.379 . S
C2910 H2894 0.931 . S
C2910 C2904 1.383 . S
C2910 C2909 1.379 . S
H2911 C2905 0.959 . S
H2912 C2905 0.961 . S
H2913 C2905 0.960 . S
H2914 C2906 0.930 . S
H2915 C2907 0.929 . S
H2916 C2924 0.929 . S
H2917 C2926 0.930 . S
H2918 C2928 1.024 . S
H2919 C2931 0.934 . S
H2920 C2934 0.930 . S
H2921 C2936 0.963 . S
H2922 C2936 0.957 1_455 S
H2923 C2936 0.961 . S
C2924 H2916 0.929 . S
C2924 C2925 1.377 . S
C2924 C2926 1.384 . S
C2925 C2924 1.377 . S
C2925 C2931 1.380 1_455 S
C2926 H2917 0.930 . S
C2926 C2924 1.384 . S
C2926 C2927 1.372 . S
C2927 C2926 1.372 . S
C2927 C2928 1.356 1_455 S
C2927 C2932 1.490 . S
C2928 H2918 1.024 . S
C2928 C2927 1.356 1_655 S
C2928 C2931 1.346 . S
H2929 C2945 0.930 . S
H2930 C2946 0.931 . S
C2931 H2919 0.934 . S
C2931 C2925 1.380 1_655 S
C2931 C2928 1.346 . S
C2932 C2927 1.490 . S
C2932 C2934 1.395 . S
C2932 C2935 1.403 . S
H2933 C2939 0.935 1_655 S
C2934 H2920 0.930 . S
C2934 C2932 1.395 . S
C2934 C2937 1.403 . S
C2935 C2932 1.403 . S
C2935 C2936 1.523 1_455 S
C2935 C2939 1.400 . S
C2936 H2921 0.963 . S
C2936 H2922 0.957 1_655 S
C2936 H2923 0.961 . S
C2936 C2935 1.523 1_655 S
C2937 C2934 1.403 . S
C2937 C2938 1.392 . S
C2937 C2941 1.495 . S
C2938 C2937 1.392 . S
C2938 C2939 1.385 . S
C2938 C2940 1.478 . S
C2939 H2933 0.935 1_455 S
C2939 C2935 1.400 . S
C2939 C2938 1.385 . S
C2940 C2938 1.478 . S
C2940 C2942 1.381 . S
C2940 C2946 1.383 1_455 S
C2941 C2937 1.495 . S
C2941 H2947 0.959 . S
C2941 H2948 0.961 . S
C2941 H2949 0.960 . S
C2942 C2940 1.381 . S
C2942 C2943 1.394 . S
C2942 H2950 0.930 . S
C2943 C2942 1.394 . S
C2943 C2944 1.383 . S
C2943 H2951 0.929 . S
C2944 C2943 1.383 . S
C2944 C2945 1.377 1_455 S
C2945 H2929 0.930 . S
C2945 C2944 1.377 1_655 S
C2945 C2946 1.379 . S
C2946 H2930 0.931 . S
C2946 C2940 1.383 1_655 S
C2946 C2945 1.379 . S
H2947 C2941 0.959 . S
H2948 C2941 0.961 . S
H2949 C2941 0.960 . S
H2950 C2942 0.930 . S
H2951 C2943 0.929 . S
H2952 C2960 0.929 . S
H2953 C2962 0.930 . S
H2954 C2964 0.930 . S
H2955 C2967 0.929 . S
H2956 C2970 0.930 . S
H2957 C2972 0.960 . S
H2958 C2972 0.960 . S
H2959 C2972 0.960 . S
C2960 H2952 0.929 . S
C2960 C2961 1.377 . S
C2960 C2962 1.384 . S
C2961 C2960 1.377 . S
C2961 C2967 1.390 . S
C2962 H2953 0.930 . S
C2962 C2960 1.384 . S
C2962 C2963 1.372 . S
C2963 C2962 1.372 . S
C2963 C2964 1.400 . S
C2963 C2968 1.490 . S
C2964 H2954 0.930 . S
C2964 C2963 1.400 . S
C2964 C2967 1.386 . S
H2965 C2981 0.930 . S
H2966 C2982 0.931 . S
C2967 H2955 0.929 . S
C2967 C2961 1.390 . S
C2967 C2964 1.386 . S
C2968 C2963 1.490 . S
C2968 C2970 1.395 . S
C2968 C2971 1.403 . S
H2969 C2975 0.930 . S
C2970 H2956 0.930 . S
C2970 C2968 1.395 . S
C2970 C2973 1.403 . S
C2971 C2968 1.403 . S
C2971 C2972 1.524 . S
C2971 C2975 1.400 . S
C2972 H2957 0.960 . S
C2972 H2958 0.960 . S
C2972 H2959 0.960 . S
C2972 C2971 1.524 . S
C2973 C2970 1.403 . S
C2973 C2974 1.392 . S
C2973 C2977 1.495 . S
C2974 C2973 1.392 . S
C2974 C2975 1.385 . S
C2974 C2976 1.478 . S
C2975 H2969 0.930 . S
C2975 C2971 1.400 . S
C2975 C2974 1.385 . S
C2976 C2974 1.478 . S
C2976 C2978 1.381 . S
C2976 C2982 1.383 . S
C2977 C2973 1.495 . S
C2977 H2983 0.959 . S
C2977 H2984 0.961 . S
C2977 H2985 0.960 . S
C2978 C2976 1.381 . S
C2978 C2979 1.394 . S
C2978 H2986 0.930 . S
C2979 C2978 1.394 . S
C2979 C2980 1.383 . S
C2979 H2987 0.929 . S
C2980 C2979 1.383 . S
C2980 C2981 1.377 . S
C2981 H2965 0.930 . S
C2981 C2980 1.377 . S
C2981 C2982 1.379 . S
C2982 H2966 0.931 . S
C2982 C2976 1.383 . S
C2982 C2981 1.379 . S
H2983 C2977 0.959 . S
H2984 C2977 0.961 . S
H2985 C2977 0.960 . S
H2986 C2978 0.930 . S
H2987 C2979 0.929 . S
H2988 C2996 0.929 . S
H2989 C2998 0.930 . S
H2990 C3000 0.930 . S
H2991 C3003 0.929 . S
H2992 C3006 0.930 . S
H2993 C3008 0.960 . S
H2994 C3008 0.960 1_545 S
H2995 C3008 0.960 . S
C2996 H2988 0.929 . S
C2996 C2997 1.377 1_545 S
C2996 C2998 1.384 . S
C2997 C2996 1.377 1_565 S
C2997 C3003 1.390 . S
C2998 H2989 0.930 . S
C2998 C2996 1.384 . S
C2998 C2999 1.372 1_545 S
C2999 C2998 1.372 1_565 S
C2999 C3000 1.400 . S
C2999 C3004 1.490 . S
C3000 H2990 0.930 . S
C3000 C2999 1.400 . S
C3000 C3003 1.386 . S
H3001 C3017 0.930 . S
H3002 C3018 0.931 . S
C3003 H2991 0.929 . S
C3003 C2997 1.390 . S
C3003 C3000 1.386 . S
C3004 C2999 1.490 . S
C3004 C3006 1.395 . S
C3004 C3007 1.403 . S
H3005 C3011 0.930 . S
C3006 H2992 0.930 . S
C3006 C3004 1.395 . S
C3006 C3009 1.403 . S
C3007 C3004 1.403 . S
C3007 C3008 1.524 . S
C3007 C3011 1.400 . S
C3008 H2993 0.960 . S
C3008 H2994 0.960 1_565 S
C3008 H2995 0.960 . S
C3008 C3007 1.524 . S
C3009 C3006 1.403 . S
C3009 C3010 1.392 . S
C3009 C3013 1.495 . S
C3010 C3009 1.392 . S
C3010 C3011 1.385 . S
C3010 C3012 1.478 . S
C3011 H3005 0.930 . S
C3011 C3007 1.400 . S
C3011 C3010 1.385 . S
C3012 C3010 1.478 . S
C3012 C3014 1.381 1_565 S
C3012 C3018 1.383 . S
C3013 C3009 1.495 . S
C3013 H3019 0.959 . S
C3013 H3020 0.961 . S
C3013 H3021 0.960 1_565 S
C3014 C3012 1.381 1_545 S
C3014 C3015 1.394 . S
C3014 H3022 0.930 . S
C3015 C3014 1.394 . S
C3015 C3016 1.383 1_545 S
C3015 H3023 0.929 . S
C3016 C3015 1.383 1_565 S
C3016 C3017 1.377 . S
C3017 H3001 0.930 . S
C3017 C3016 1.377 . S
C3017 C3018 1.379 . S
C3018 H3002 0.931 . S
C3018 C3012 1.383 . S
C3018 C3017 1.379 . S
H3019 C3013 0.959 . S
H3020 C3013 0.961 . S
H3021 C3013 0.960 1_545 S
H3022 C3014 0.930 . S
H3023 C3015 0.929 . S
H3024 C3032 0.929 . S
H3025 C3034 0.930 . S
H3026 C3036 0.930 . S
H3027 C3039 0.929 . S
H3028 C3042 0.930 . S
H3029 C3044 0.960 . S
H3030 C3044 0.960 . S
H3031 C3044 0.960 . S
C3032 H3024 0.929 . S
C3032 C3033 1.377 1_545 S
C3032 C3034 1.384 . S
C3033 C3032 1.377 1_565 S
C3033 C3039 1.390 . S
C3034 H3025 0.930 . S
C3034 C3032 1.384 . S
C3034 C3035 1.372 1_545 S
C3035 C3034 1.372 1_565 S
C3035 C3036 1.400 . S
C3035 C3040 1.490 . S
C3036 H3026 0.930 . S
C3036 C3035 1.400 . S
C3036 C3039 1.386 . S
H3037 C3053 0.930 . S
H3038 C3054 0.931 . S
C3039 H3027 0.929 . S
C3039 C3033 1.390 . S
C3039 C3036 1.386 . S
C3040 C3035 1.490 . S
C3040 C3042 1.395 1_565 S
C3040 C3043 1.403 . S
H3041 C3047 0.930 . S
C3042 H3028 0.930 . S
C3042 C3040 1.395 1_545 S
C3042 C3045 1.403 . S
C3043 C3040 1.403 . S
C3043 C3044 1.524 . S
C3043 C3047 1.400 . S
C3044 H3029 0.960 . S
C3044 H3030 0.960 . S
C3044 H3031 0.960 . S
C3044 C3043 1.524 . S
C3045 C3042 1.403 . S
C3045 C3046 1.392 1_545 S
C3045 C3049 1.495 . S
C3046 C3045 1.392 1_565 S
C3046 C3047 1.385 . S
C3046 C3048 1.478 . S
C3047 H3041 0.930 . S
C3047 C3043 1.400 . S
C3047 C3046 1.385 . S
C3048 C3046 1.478 . S
C3048 C3050 1.381 1_565 S
C3048 C3054 1.383 . S
C3049 C3045 1.495 . S
C3049 H3055 0.959 . S
C3049 H3056 0.961 . S
C3049 H3057 0.960 . S
C3050 C3048 1.381 1_545 S
C3050 C3051 1.394 . S
C3050 H3058 0.930 . S
C3051 C3050 1.394 . S
C3051 C3052 1.383 1_545 S
C3051 H3059 0.929 . S
C3052 C3051 1.383 1_565 S
C3052 C3053 1.377 . S
C3053 H3037 0.930 . S
C3053 C3052 1.377 . S
C3053 C3054 1.379 . S
C3054 H3038 0.931 . S
C3054 C3048 1.383 . S
C3054 C3053 1.379 . S
H3055 C3049 0.959 . S
H3056 C3049 0.961 . S
H3057 C3049 0.960 . S
H3058 C3050 0.930 . S
H3059 C3051 0.929 . S
H3060 C3068 0.929 . S
H3061 C3070 0.930 . S
H3062 C3072 0.930 1_655 S
H3063 C3075 0.929 1_655 S
H3064 C3078 0.930 . S
H3065 C3080 0.960 . S
H3066 C3080 0.960 . S
H3067 C3080 0.960 . S
C3068 H3060 0.929 . S
C3068 C3069 1.377 . S
C3068 C3070 1.384 . S
C3069 C3068 1.377 . S
C3069 C3075 1.390 . S
C3070 H3061 0.930 . S
C3070 C3068 1.384 . S
C3070 C3071 1.372 . S
C3071 C3070 1.372 . S
C3071 C3072 1.400 . S
C3071 C3076 1.490 . S
C3072 H3062 0.930 1_455 S
C3072 C3071 1.400 . S
C3072 C3075 1.386 . S
H3073 C3089 0.927 . S
H3074 C3090 0.931 1_655 S
C3075 H3063 0.929 1_455 S
C3075 C3069 1.390 . S
C3075 C3072 1.386 . S
C3076 C3071 1.490 . S
C3076 C3078 1.395 . S
C3076 C3079 1.403 1_455 S
H3077 C3083 0.930 . S
C3078 H3064 0.930 . S
C3078 C3076 1.395 . S
C3078 C3081 1.403 . S
C3079 C3076 1.403 1_655 S
C3079 C3080 1.524 . S
C3079 C3083 1.400 . S
C3080 H3065 0.960 . S
C3080 H3066 0.960 . S
C3080 H3067 0.960 . S
C3080 C3079 1.524 . S
C3081 C3078 1.403 . S
C3081 C3082 1.392 . S
C3081 C3085 1.495 . S
C3082 C3081 1.392 . S
C3082 C3083 1.385 1_455 S
C3082 C3084 1.478 . S
C3083 H3077 0.930 . S
C3083 C3079 1.400 . S
C3083 C3082 1.385 1_655 S
C3084 C3082 1.478 . S
C3084 C3086 1.381 . S
C3084 C3090 1.383 . S
C3085 C3081 1.495 . S
C3085 H3091 0.959 . S
C3085 H3092 0.961 . S
C3085 H3093 0.960 . S
C3086 C3084 1.381 . S
C3086 C3087 1.394 . S
C3086 H3094 0.930 . S
C3087 C3086 1.394 . S
C3087 C3088 1.383 . S
C3087 H3095 0.929 . S
C3088 C3087 1.383 . S
C3088 C3089 1.361 1_455 S
C3089 H3073 0.927 . S
C3089 C3088 1.361 1_655 S
C3089 C3090 1.404 1_655 S
C3090 H3074 0.931 1_455 S
C3090 C3084 1.383 . S
C3090 C3089 1.404 1_455 S
H3091 C3085 0.959 . S
H3092 C3085 0.961 . S
H3093 C3085 0.960 . S
H3094 C3086 0.930 . S
H3095 C3087 0.929 . S
H3096 C3104 0.929 . S
H3097 C3106 0.930 . S
H3098 C3108 0.930 . S
H3099 C3111 0.929 . S
H3100 C3114 0.930 . S
H3101 C3116 0.960 . S
H3102 C3116 0.960 . S
H3103 C3116 0.960 . S
C3104 H3096 0.929 . S
C3104 C3105 1.377 . S
C3104 C3106 1.384 . S
C3105 C3104 1.377 . S
C3105 C3111 1.390 . S
C3106 H3097 0.930 . S
C3106 C3104 1.384 . S
C3106 C3107 1.372 . S
C3107 C3106 1.372 . S
C3107 C3108 1.400 . S
C3107 C3112 1.490 . S
C3108 H3098 0.930 . S
C3108 C3107 1.400 . S
C3108 C3111 1.386 . S
H3109 C3125 0.930 . S
H3110 C3126 0.931 . S
C3111 H3099 0.929 . S
C3111 C3105 1.390 . S
C3111 C3108 1.386 . S
C3112 C3107 1.490 . S
C3112 C3114 1.395 . S
C3112 C3115 1.403 . S
H3113 C3119 0.930 . S
C3114 H3100 0.930 . S
C3114 C3112 1.395 . S
C3114 C3117 1.403 . S
C3115 C3112 1.403 . S
C3115 C3116 1.524 . S
C3115 C3119 1.400 . S
C3116 H3101 0.960 . S
C3116 H3102 0.960 . S
C3116 H3103 0.960 . S
C3116 C3115 1.524 . S
C3117 C3114 1.403 . S
C3117 C3118 1.392 . S
C3117 C3121 1.495 . S
C3118 C3117 1.392 . S
C3118 C3119 1.385 . S
C3118 C3120 1.478 . S
C3119 H3113 0.930 . S
C3119 C3115 1.400 . S
C3119 C3118 1.385 . S
C3120 C3118 1.478 . S
C3120 C3122 1.381 . S
C3120 C3126 1.383 . S
C3121 C3117 1.495 . S
C3121 H3127 0.959 . S
C3121 H3128 0.961 . S
C3121 H3129 0.960 . S
C3122 C3120 1.381 . S
C3122 C3123 1.394 . S
C3122 H3130 0.930 . S
C3123 C3122 1.394 . S
C3123 C3124 1.383 . S
C3123 H3131 0.929 . S
C3124 C3123 1.383 . S
C3124 C3125 1.377 . S
C3125 H3109 0.930 . S
C3125 C3124 1.377 . S
C3125 C3126 1.379 . S
C3126 H3110 0.931 . S
C3126 C3120 1.383 . S
C3126 C3125 1.379 . S
H3127 C3121 0.959 . S
H3128 C3121 0.961 . S
H3129 C3121 0.960 . S
H3130 C3122 0.930 . S
H3131 C3123 0.929 . S
H3132 C3140 0.929 . S
H3133 C3142 0.930 . S
H3134 C3144 0.930 . S
H3135 C3147 0.929 . S
H3136 C3150 0.930 . S
H3137 C3152 0.960 . S
H3138 C3152 0.960 . S
H3139 C3152 0.960 . S
C3140 H3132 0.929 . S
C3140 C3141 1.377 . S
C3140 C3142 1.384 . S
C3141 C3140 1.377 . S
C3141 C3147 1.390 . S
C3142 H3133 0.930 . S
C3142 C3140 1.384 . S
C3142 C3143 1.372 . S
C3143 C3142 1.372 . S
C3143 C3144 1.400 . S
C3143 C3148 1.490 . S
C3144 H3134 0.930 . S
C3144 C3143 1.400 . S
C3144 C3147 1.386 . S
H3145 C3161 0.930 . S
H3146 C3162 0.931 . S
C3147 H3135 0.929 . S
C3147 C3141 1.390 . S
C3147 C3144 1.386 . S
C3148 C3143 1.490 . S
C3148 C3150 1.395 . S
C3148 C3151 1.403 . S
H3149 C3155 0.930 . S
C3150 H3136 0.930 . S
C3150 C3148 1.395 . S
C3150 C3153 1.403 . S
C3151 C3148 1.403 . S
C3151 C3152 1.524 . S
C3151 C3155 1.400 . S
C3152 H3137 0.960 . S
C3152 H3138 0.960 . S
C3152 H3139 0.960 . S
C3152 C3151 1.524 . S
C3153 C3150 1.403 . S
C3153 C3154 1.392 . S
C3153 C3157 1.495 . S
C3154 C3153 1.392 . S
C3154 C3155 1.385 . S
C3154 C3156 1.478 . S
C3155 H3149 0.930 . S
C3155 C3151 1.400 . S
C3155 C3154 1.385 . S
C3156 C3154 1.478 . S
C3156 C3158 1.381 . S
C3156 C3162 1.383 . S
C3157 C3153 1.495 . S
C3157 H3163 0.959 . S
C3157 H3164 0.961 . S
C3157 H3165 0.960 . S
C3158 C3156 1.381 . S
C3158 C3159 1.394 . S
C3158 H3166 0.930 . S
C3159 C3158 1.394 . S
C3159 C3160 1.383 . S
C3159 H3167 0.929 . S
C3160 C3159 1.383 . S
C3160 C3161 1.377 . S
C3161 H3145 0.930 . S
C3161 C3160 1.377 . S
C3161 C3162 1.379 . S
C3162 H3146 0.931 . S
C3162 C3156 1.383 . S
C3162 C3161 1.379 . S
H3163 C3157 0.959 . S
H3164 C3157 0.961 . S
H3165 C3157 0.960 . S
H3166 C3158 0.930 . S
H3167 C3159 0.929 . S
H3168 C3176 0.929 . S
H3169 C3178 0.930 . S
H3170 C3180 0.930 . S
H3171 C3183 0.929 . S
H3172 C3186 0.930 . S
H3173 C3188 0.960 . S
H3174 C3188 0.960 . S
H3175 C3188 0.960 . S
C3176 H3168 0.929 . S
C3176 C3177 1.377 . S
C3176 C3178 1.384 . S
C3177 C3176 1.377 . S
C3177 C3183 1.390 . S
C3178 H3169 0.930 . S
C3178 C3176 1.384 . S
C3178 C3179 1.372 . S
C3179 C3178 1.372 . S
C3179 C3180 1.400 . S
C3179 C3184 1.490 . S
C3180 H3170 0.930 . S
C3180 C3179 1.400 . S
C3180 C3183 1.386 . S
H3181 C3197 0.930 . S
H3182 C3198 0.931 . S
C3183 H3171 0.929 . S
C3183 C3177 1.390 . S
C3183 C3180 1.386 . S
C3184 C3179 1.490 . S
C3184 C3186 1.395 . S
C3184 C3187 1.403 . S
H3185 C3191 0.930 . S
C3186 H3172 0.930 . S
C3186 C3184 1.395 . S
C3186 C3189 1.403 . S
C3187 C3184 1.403 . S
C3187 C3188 1.524 . S
C3187 C3191 1.400 . S
C3188 H3173 0.960 . S
C3188 H3174 0.960 . S
C3188 H3175 0.960 . S
C3188 C3187 1.524 . S
C3189 C3186 1.403 . S
C3189 C3190 1.392 . S
C3189 C3193 1.495 . S
C3190 C3189 1.392 . S
C3190 C3191 1.385 . S
C3190 C3192 1.478 . S
C3191 H3185 0.930 . S
C3191 C3187 1.400 . S
C3191 C3190 1.385 . S
C3192 C3190 1.478 . S
C3192 C3194 1.381 . S
C3192 C3198 1.383 . S
C3193 C3189 1.495 . S
C3193 H3199 0.959 . S
C3193 H3200 0.961 . S
C3193 H3201 0.960 . S
C3194 C3192 1.381 . S
C3194 C3195 1.394 . S
C3194 H3202 0.930 . S
C3195 C3194 1.394 . S
C3195 C3196 1.383 . S
C3195 H3203 0.929 . S
C3196 C3195 1.383 . S
C3196 C3197 1.377 . S
C3197 H3181 0.930 . S
C3197 C3196 1.377 . S
C3197 C3198 1.379 . S
C3198 H3182 0.931 . S
C3198 C3192 1.383 . S
C3198 C3197 1.379 . S
H3199 C3193 0.959 . S
H3200 C3193 0.961 . S
H3201 C3193 0.960 . S
H3202 C3194 0.930 . S
H3203 C3195 0.929 . S
H3204 C3212 0.929 . S
H3205 C3214 0.930 . S
H3206 C3216 0.930 . S
H3207 C3219 0.929 . S
H3208 C3222 0.930 . S
H3209 C3224 0.960 . S
H3210 C3224 0.960 . S
H3211 C3224 0.960 . S
C3212 H3204 0.929 . S
C3212 C3213 1.377 . S
C3212 C3214 1.384 . S
C3213 C3212 1.377 . S
C3213 C3219 1.390 . S
C3214 H3205 0.930 . S
C3214 C3212 1.384 . S
C3214 C3215 1.372 . S
C3215 C3214 1.372 . S
C3215 C3216 1.400 . S
C3215 C3220 1.490 . S
C3216 H3206 0.930 . S
C3216 C3215 1.400 . S
C3216 C3219 1.386 . S
H3217 C3233 0.930 . S
H3218 C3234 0.931 . S
C3219 H3207 0.929 . S
C3219 C3213 1.390 . S
C3219 C3216 1.386 . S
C3220 C3215 1.490 . S
C3220 C3222 1.395 . S
C3220 C3223 1.403 . S
H3221 C3227 0.930 . S
C3222 H3208 0.930 . S
C3222 C3220 1.395 . S
C3222 C3225 1.403 . S
C3223 C3220 1.403 . S
C3223 C3224 1.524 . S
C3223 C3227 1.400 . S
C3224 H3209 0.960 . S
C3224 H3210 0.960 . S
C3224 H3211 0.960 . S
C3224 C3223 1.524 . S
C3225 C3222 1.403 . S
C3225 C3226 1.392 . S
C3225 C3229 1.495 . S
C3226 C3225 1.392 . S
C3226 C3227 1.385 . S
C3226 C3228 1.478 . S
C3227 H3221 0.930 . S
C3227 C3223 1.400 . S
C3227 C3226 1.385 . S
C3228 C3226 1.478 . S
C3228 C3230 1.381 . S
C3228 C3234 1.383 . S
C3229 C3225 1.495 . S
C3229 H3235 0.959 . S
C3229 H3236 0.961 . S
C3229 H3237 0.960 . S
C3230 C3228 1.381 . S
C3230 C3231 1.394 . S
C3230 H3238 0.930 . S
C3231 C3230 1.394 . S
C3231 C3232 1.383 . S
C3231 H3239 0.929 . S
C3232 C3231 1.383 . S
C3232 C3233 1.377 . S
C3233 H3217 0.930 . S
C3233 C3232 1.377 . S
C3233 C3234 1.379 . S
C3234 H3218 0.931 . S
C3234 C3228 1.383 . S
C3234 C3233 1.379 . S
H3235 C3229 0.959 . S
H3236 C3229 0.961 . S
H3237 C3229 0.960 . S
H3238 C3230 0.930 . S
H3239 C3231 0.929 . S
H3240 C3248 0.929 . S
H3241 C3250 0.930 . S
H3242 C3252 0.930 . S
H3243 C3255 0.929 . S
H3244 C3258 0.932 . S
H3245 C3260 0.960 . S
H3246 C3260 0.960 . S
H3247 C3260 0.960 . S
C3248 H3240 0.929 . S
C3248 C3249 1.377 . S
C3248 C3250 1.384 . S
C3249 C3248 1.377 . S
C3249 C3255 1.390 . S
C3250 H3241 0.930 . S
C3250 C3248 1.384 . S
C3250 C3251 1.372 . S
C3251 C3250 1.372 . S
C3251 C3252 1.400 . S
C3251 C3256 1.490 . S
C3252 H3242 0.930 . S
C3252 C3251 1.400 . S
C3252 C3255 1.386 . S
H3253 C3269 0.930 . S
H3254 C3270 0.931 . S
C3255 H3243 0.929 . S
C3255 C3249 1.390 . S
C3255 C3252 1.386 . S
C3256 C3251 1.490 . S
C3256 C3258 1.362 1_545 S
C3256 C3259 1.403 . S
H3257 C3263 0.930 . S
C3258 H3244 0.932 . S
C3258 C3256 1.362 1_565 S
C3258 C3261 1.438 . S
C3259 C3256 1.403 . S
C3259 C3260 1.524 . S
C3259 C3263 1.400 . S
C3260 H3245 0.960 . S
C3260 H3246 0.960 . S
C3260 H3247 0.960 . S
C3260 C3259 1.524 . S
C3261 C3258 1.438 . S
C3261 C3262 1.392 1_565 S
C3261 C3265 1.495 . S
C3262 C3261 1.392 1_545 S
C3262 C3263 1.385 . S
C3262 C3264 1.478 . S
C3263 H3257 0.930 . S
C3263 C3259 1.400 . S
C3263 C3262 1.385 . S
C3264 C3262 1.478 . S
C3264 C3266 1.381 . S
C3264 C3270 1.383 1_545 S
C3265 C3261 1.495 . S
C3265 H3271 0.959 . S
C3265 H3272 0.961 . S
C3265 H3273 0.960 . S
C3266 C3264 1.381 . S
C3266 C3267 1.394 . S
C3266 H3274 0.930 . S
C3267 C3266 1.394 . S
C3267 C3268 1.383 . S
C3267 H3275 0.929 . S
C3268 C3267 1.383 . S
C3268 C3269 1.377 1_545 S
C3269 H3253 0.930 . S
C3269 C3268 1.377 1_565 S
C3269 C3270 1.379 . S
C3270 H3254 0.931 . S
C3270 C3264 1.383 1_565 S
C3270 C3269 1.379 . S
H3271 C3265 0.959 . S
H3272 C3265 0.961 . S
H3273 C3265 0.960 . S
H3274 C3266 0.930 . S
H3275 C3267 0.929 . S
H3276 C3284 0.929 1_455 S
H3277 C3286 0.930 1_455 S
H3278 C3288 0.930 . S
H3279 C3291 0.929 . S
H3280 C3294 0.930 . S
H3281 C3296 0.960 . S
H3282 C3296 0.960 . S
H3283 C3296 0.960 . S
C3284 H3276 0.929 1_655 S
C3284 C3285 1.377 . S
C3284 C3286 1.384 . S
C3285 C3284 1.377 . S
C3285 C3291 1.390 . S
C3286 H3277 0.930 1_655 S
C3286 C3284 1.384 . S
C3286 C3287 1.372 . S
C3287 C3286 1.372 . S
C3287 C3288 1.400 . S
C3287 C3292 1.490 . S
C3288 H3278 0.930 . S
C3288 C3287 1.400 . S
C3288 C3291 1.386 . S
H3289 C3305 0.930 . S
H3290 C3306 0.931 . S
C3291 H3279 0.929 . S
C3291 C3285 1.390 . S
C3291 C3288 1.386 . S
C3292 C3287 1.490 . S
C3292 C3294 1.395 1_655 S
C3292 C3295 1.403 . S
H3293 C3299 0.930 . S
C3294 H3280 0.930 . S
C3294 C3292 1.395 1_455 S
C3294 C3297 1.403 . S
C3295 C3292 1.403 . S
C3295 C3296 1.524 . S
C3295 C3299 1.400 . S
C3296 H3281 0.960 . S
C3296 H3282 0.960 . S
C3296 H3283 0.960 . S
C3296 C3295 1.524 . S
C3297 C3294 1.403 . S
C3297 C3298 1.392 1_455 S
C3297 C3301 1.495 . S
C3298 C3297 1.392 1_655 S
C3298 C3299 1.385 . S
C3298 C3300 1.453 . S
C3299 H3293 0.930 . S
C3299 C3295 1.400 . S
C3299 C3298 1.385 . S
C3300 C3298 1.453 . S
C3300 C3302 1.368 1_655 S
C3300 C3306 1.428 . S
C3301 C3297 1.495 . S
C3301 H3307 0.959 . S
C3301 H3308 0.961 . S
C3301 H3309 0.960 . S
C3302 C3300 1.368 1_455 S
C3302 C3303 1.394 . S
C3302 H3310 0.930 . S
C3303 C3302 1.394 . S
C3303 C3304 1.383 1_455 S
C3303 H3311 0.929 . S
C3304 C3303 1.383 1_655 S
C3304 C3305 1.377 . S
C3305 H3289 0.930 . S
C3305 C3304 1.377 . S
C3305 C3306 1.379 . S
C3306 H3290 0.931 . S
C3306 C3300 1.428 . S
C3306 C3305 1.379 . S
H3307 C3301 0.959 . S
H3308 C3301 0.961 . S
H3309 C3301 0.960 . S
H3310 C3302 0.930 . S
H3311 C3303 0.929 . S
H3312 C3320 0.929 . S
H3313 C3322 0.930 . S
H3314 C3324 0.930 . S
H3315 C3327 0.929 . S
H3316 C3330 0.930 . S
H3317 C3332 0.960 . S
H3318 C3332 0.960 . S
H3319 C3332 0.960 . S
C3320 H3312 0.929 . S
C3320 C3321 1.377 . S
C3320 C3322 1.384 . S
C3321 C3320 1.377 . S
C3321 C3327 1.390 . S
C3322 H3313 0.930 . S
C3322 C3320 1.384 . S
C3322 C3323 1.372 . S
C3323 C3322 1.372 . S
C3323 C3324 1.400 . S
C3323 C3328 1.490 . S
C3324 H3314 0.930 . S
C3324 C3323 1.400 . S
C3324 C3327 1.386 . S
H3325 C3341 0.930 . S
H3326 C3342 0.931 . S
C3327 H3315 0.929 . S
C3327 C3321 1.390 . S
C3327 C3324 1.386 . S
C3328 C3323 1.490 . S
C3328 C3330 1.395 . S
C3328 C3331 1.403 . S
H3329 C3335 0.930 . S
C3330 H3316 0.930 . S
C3330 C3328 1.395 . S
C3330 C3333 1.403 . S
C3331 C3328 1.403 . S
C3331 C3332 1.524 . S
C3331 C3335 1.400 . S
C3332 H3317 0.960 . S
C3332 H3318 0.960 . S
C3332 H3319 0.960 . S
C3332 C3331 1.524 . S
C3333 C3330 1.403 . S
C3333 C3334 1.392 . S
C3333 C3337 1.495 . S
C3334 C3333 1.392 . S
C3334 C3335 1.385 . S
C3334 C3336 1.478 . S
C3335 H3329 0.930 . S
C3335 C3331 1.400 . S
C3335 C3334 1.385 . S
C3336 C3334 1.478 . S
C3336 C3338 1.381 . S
C3336 C3342 1.383 . S
C3337 C3333 1.495 . S
C3337 H3343 0.959 . S
C3337 H3344 0.961 . S
C3337 H3345 0.960 . S
C3338 C3336 1.381 . S
C3338 C3339 1.394 . S
C3338 H3346 0.930 . S
C3339 C3338 1.394 . S
C3339 C3340 1.383 . S
C3339 H3347 0.929 . S
C3340 C3339 1.383 . S
C3340 C3341 1.377 . S
C3341 H3325 0.930 . S
C3341 C3340 1.377 . S
C3341 C3342 1.379 . S
C3342 H3326 0.931 . S
C3342 C3336 1.383 . S
C3342 C3341 1.379 . S
H3343 C3337 0.959 . S
H3344 C3337 0.961 . S
H3345 C3337 0.960 . S
H3346 C3338 0.930 . S
H3347 C3339 0.929 . S
H3348 C3356 0.929 . S
H3349 C3358 0.930 . S
H3350 C3360 0.930 . S
H3351 C3363 0.929 . S
H3352 C3366 0.930 . S
H3353 C3368 0.960 . S
H3354 C3368 0.960 . S
H3355 C3368 0.960 . S
C3356 H3348 0.929 . S
C3356 C3357 1.377 . S
C3356 C3358 1.384 . S
C3357 C3356 1.377 . S
C3357 C3363 1.390 . S
C3358 H3349 0.930 . S
C3358 C3356 1.384 . S
C3358 C3359 1.372 . S
C3359 C3358 1.372 . S
C3359 C3360 1.400 . S
C3359 C3364 1.490 . S
C3360 H3350 0.930 . S
C3360 C3359 1.400 . S
C3360 C3363 1.386 . S
H3361 C3377 0.930 . S
H3362 C3378 0.931 . S
C3363 H3351 0.929 . S
C3363 C3357 1.390 . S
C3363 C3360 1.386 . S
C3364 C3359 1.490 . S
C3364 C3366 1.395 . S
C3364 C3367 1.403 . S
H3365 C3371 0.930 . S
C3366 H3352 0.930 . S
C3366 C3364 1.395 . S
C3366 C3369 1.403 . S
C3367 C3364 1.403 . S
C3367 C3368 1.524 . S
C3367 C3371 1.400 . S
C3368 H3353 0.960 . S
C3368 H3354 0.960 . S
C3368 H3355 0.960 . S
C3368 C3367 1.524 . S
C3369 C3366 1.403 . S
C3369 C3370 1.392 . S
C3369 C3373 1.495 . S
C3370 C3369 1.392 . S
C3370 C3371 1.385 . S
C3370 C3372 1.478 . S
C3371 H3365 0.930 . S
C3371 C3367 1.400 . S
C3371 C3370 1.385 . S
C3372 C3370 1.478 . S
C3372 C3374 1.381 . S
C3372 C3378 1.383 . S
C3373 C3369 1.495 . S
C3373 H3379 0.959 . S
C3373 H3380 0.961 . S
C3373 H3381 0.960 . S
C3374 C3372 1.381 . S
C3374 C3375 1.394 . S
C3374 H3382 0.930 . S
C3375 C3374 1.394 . S
C3375 C3376 1.383 . S
C3375 H3383 0.929 . S
C3376 C3375 1.383 . S
C3376 C3377 1.377 . S
C3377 H3361 0.930 . S
C3377 C3376 1.377 . S
C3377 C3378 1.379 . S
C3378 H3362 0.931 . S
C3378 C3372 1.383 . S
C3378 C3377 1.379 . S
H3379 C3373 0.959 . S
H3380 C3373 0.961 . S
H3381 C3373 0.960 . S
H3382 C3374 0.930 . S
H3383 C3375 0.929 . S
H3384 C3392 0.929 . S
H3385 C3394 0.930 . S
H3386 C3396 0.930 . S
H3387 C3399 0.929 . S
H3388 C3402 0.930 . S
H3389 C3404 0.960 . S
H3390 C3404 0.960 . S
H3391 C3404 0.960 . S
C3392 H3384 0.929 . S
C3392 C3393 1.377 . S
C3392 C3394 1.384 . S
C3393 C3392 1.377 . S
C3393 C3399 1.390 . S
C3394 H3385 0.930 . S
C3394 C3392 1.384 . S
C3394 C3395 1.372 . S
C3395 C3394 1.372 . S
C3395 C3396 1.400 . S
C3395 C3400 1.490 . S
C3396 H3386 0.930 . S
C3396 C3395 1.400 . S
C3396 C3399 1.386 . S
H3397 C3413 0.930 . S
H3398 C3414 0.931 . S
C3399 H3387 0.929 . S
C3399 C3393 1.390 . S
C3399 C3396 1.386 . S
C3400 C3395 1.490 . S
C3400 C3402 1.395 . S
C3400 C3403 1.403 . S
H3401 C3407 0.930 . S
C3402 H3388 0.930 . S
C3402 C3400 1.395 . S
C3402 C3405 1.403 . S
C3403 C3400 1.403 . S
C3403 C3404 1.524 . S
C3403 C3407 1.400 . S
C3404 H3389 0.960 . S
C3404 H3390 0.960 . S
C3404 H3391 0.960 . S
C3404 C3403 1.524 . S
C3405 C3402 1.403 . S
C3405 C3406 1.392 . S
C3405 C3409 1.495 . S
C3406 C3405 1.392 . S
C3406 C3407 1.385 . S
C3406 C3408 1.478 . S
C3407 H3401 0.930 . S
C3407 C3403 1.400 . S
C3407 C3406 1.385 . S
C3408 C3406 1.478 . S
C3408 C3410 1.381 . S
C3408 C3414 1.383 . S
C3409 C3405 1.495 . S
C3409 H3415 0.959 . S
C3409 H3416 0.961 . S
C3409 H3417 0.960 . S
C3410 C3408 1.381 . S
C3410 C3411 1.394 . S
C3410 H3418 0.930 . S
C3411 C3410 1.394 . S
C3411 C3412 1.383 . S
C3411 H3419 0.929 . S
C3412 C3411 1.383 . S
C3412 C3413 1.377 . S
C3413 H3397 0.930 . S
C3413 C3412 1.377 . S
C3413 C3414 1.379 . S
C3414 H3398 0.931 . S
C3414 C3408 1.383 . S
C3414 C3413 1.379 . S
H3415 C3409 0.959 . S
H3416 C3409 0.961 . S
H3417 C3409 0.960 . S
H3418 C3410 0.930 . S
H3419 C3411 0.929 . S
H3420 C3428 0.929 . S
H3421 C3430 0.930 . S
H3422 C3432 0.930 . S
H3423 C3435 0.929 . S
H3424 C3438 0.930 . S
H3425 C3440 0.960 . S
H3426 C3440 0.960 . S
H3427 C3440 0.960 . S
C3428 H3420 0.929 . S
C3428 C3429 1.377 . S
C3428 C3430 1.384 . S
C3429 C3428 1.377 . S
C3429 C3435 1.390 . S
C3430 H3421 0.930 . S
C3430 C3428 1.384 . S
C3430 C3431 1.372 . S
C3431 C3430 1.372 . S
C3431 C3432 1.400 . S
C3431 C3436 1.490 . S
C3432 H3422 0.930 . S
C3432 C3431 1.400 . S
C3432 C3435 1.386 . S
H3433 C3449 0.930 . S
H3434 C3450 0.931 . S
C3435 H3423 0.929 . S
C3435 C3429 1.390 . S
C3435 C3432 1.386 . S
C3436 C3431 1.490 . S
C3436 C3438 1.395 . S
C3436 C3439 1.403 . S
H3437 C3443 0.930 . S
C3438 H3424 0.930 . S
C3438 C3436 1.395 . S
C3438 C3441 1.403 . S
C3439 C3436 1.403 . S
C3439 C3440 1.524 . S
C3439 C3443 1.400 . S
C3440 H3425 0.960 . S
C3440 H3426 0.960 . S
C3440 H3427 0.960 . S
C3440 C3439 1.524 . S
C3441 C3438 1.403 . S
C3441 C3442 1.392 . S
C3441 C3445 1.495 . S
C3442 C3441 1.392 . S
C3442 C3443 1.385 . S
C3442 C3444 1.478 . S
C3443 H3437 0.930 . S
C3443 C3439 1.400 . S
C3443 C3442 1.385 . S
C3444 C3442 1.478 . S
C3444 C3446 1.381 . S
C3444 C3450 1.383 . S
C3445 C3441 1.495 . S
C3445 H3451 0.959 . S
C3445 H3452 0.961 . S
C3445 H3453 0.960 . S
C3446 C3444 1.381 . S
C3446 C3447 1.394 . S
C3446 H3454 0.930 . S
C3447 C3446 1.394 . S
C3447 C3448 1.383 . S
C3447 H3455 0.929 . S
C3448 C3447 1.383 . S
C3448 C3449 1.377 . S
C3449 H3433 0.930 . S
C3449 C3448 1.377 . S
C3449 C3450 1.379 . S
C3450 H3434 0.931 . S
C3450 C3444 1.383 . S
C3450 C3449 1.379 . S
H3451 C3445 0.959 . S
H3452 C3445 0.961 . S
H3453 C3445 0.960 . S
H3454 C3446 0.930 . S
H3455 C3447 0.929 . S
H3456 C3464 0.929 . S
H3457 C3466 0.930 . S
H3458 C3468 0.930 . S
H3459 C3471 0.929 . S
H3460 C3474 0.930 . S
H3461 C3476 0.960 . S
H3462 C3476 0.960 . S
H3463 C3476 0.960 . S
C3464 H3456 0.929 . S
C3464 C3465 1.377 . S
C3464 C3466 1.384 . S
C3465 C3464 1.377 . S
C3465 C3471 1.390 . S
C3466 H3457 0.930 . S
C3466 C3464 1.384 . S
C3466 C3467 1.372 . S
C3467 C3466 1.372 . S
C3467 C3468 1.400 . S
C3467 C3472 1.490 . S
C3468 H3458 0.930 . S
C3468 C3467 1.400 . S
C3468 C3471 1.386 . S
H3469 C3485 0.930 . S
H3470 C3486 0.931 . S
C3471 H3459 0.929 . S
C3471 C3465 1.390 . S
C3471 C3468 1.386 . S
C3472 C3467 1.490 . S
C3472 C3474 1.395 . S
C3472 C3475 1.403 . S
H3473 C3479 0.930 . S
C3474 H3460 0.930 . S
C3474 C3472 1.395 . S
C3474 C3477 1.403 . S
C3475 C3472 1.403 . S
C3475 C3476 1.524 . S
C3475 C3479 1.400 . S
C3476 H3461 0.960 . S
C3476 H3462 0.960 . S
C3476 H3463 0.960 . S
C3476 C3475 1.524 . S
C3477 C3474 1.403 . S
C3477 C3478 1.392 . S
C3477 C3481 1.495 . S
C3478 C3477 1.392 . S
C3478 C3479 1.385 . S
C3478 C3480 1.478 . S
C3479 H3473 0.930 . S
C3479 C3475 1.400 . S
C3479 C3478 1.385 . S
C3480 C3478 1.478 . S
C3480 C3482 1.381 . S
C3480 C3486 1.383 . S
C3481 C3477 1.495 . S
C3481 H3487 0.959 . S
C3481 H3488 0.961 . S
C3481 H3489 0.960 . S
C3482 C3480 1.381 . S
C3482 C3483 1.394 . S
C3482 H3490 0.930 . S
C3483 C3482 1.394 . S
C3483 C3484 1.383 . S
C3483 H3491 0.929 . S
C3484 C3483 1.383 . S
C3484 C3485 1.377 . S
C3485 H3469 0.930 . S
C3485 C3484 1.377 . S
C3485 C3486 1.379 . S
C3486 H3470 0.931 . S
C3486 C3480 1.383 . S
C3486 C3485 1.379 . S
H3487 C3481 0.959 . S
H3488 C3481 0.961 . S
H3489 C3481 0.960 . S
H3490 C3482 0.930 . S
H3491 C3483 0.929 . S
H3492 C3500 0.929 . S
H3493 C3502 0.930 . S
H3494 C3504 0.930 . S
H3495 C3507 0.929 . S
H3496 C3510 0.930 . S
H3497 C3512 0.960 . S
H3498 C3512 0.960 . S
H3499 C3512 0.960 . S
C3500 H3492 0.929 . S
C3500 C3501 1.377 . S
C3500 C3502 1.384 . S
C3501 C3500 1.377 . S
C3501 C3507 1.390 . S
C3502 H3493 0.930 . S
C3502 C3500 1.384 . S
C3502 C3503 1.372 . S
C3503 C3502 1.372 . S
C3503 C3504 1.400 . S
C3503 C3508 1.490 . S
C3504 H3494 0.930 . S
C3504 C3503 1.400 . S
C3504 C3507 1.386 . S
H3505 C3521 0.930 . S
H3506 C3522 0.931 . S
C3507 H3495 0.929 . S
C3507 C3501 1.390 . S
C3507 C3504 1.386 . S
C3508 C3503 1.490 . S
C3508 C3510 1.395 . S
C3508 C3511 1.403 . S
H3509 C3515 0.930 . S
C3510 H3496 0.930 . S
C3510 C3508 1.395 . S
C3510 C3513 1.403 . S
C3511 C3508 1.403 . S
C3511 C3512 1.524 . S
C3511 C3515 1.400 . S
C3512 H3497 0.960 . S
C3512 H3498 0.960 . S
C3512 H3499 0.960 . S
C3512 C3511 1.524 . S
C3513 C3510 1.403 . S
C3513 C3514 1.392 . S
C3513 C3517 1.495 . S
C3514 C3513 1.392 . S
C3514 C3515 1.385 . S
C3514 C3516 1.478 . S
C3515 H3509 0.930 . S
C3515 C3511 1.400 . S
C3515 C3514 1.385 . S
C3516 C3514 1.478 . S
C3516 C3518 1.381 . S
C3516 C3522 1.383 . S
C3517 C3513 1.495 . S
C3517 H3523 0.959 . S
C3517 H3524 0.961 . S
C3517 H3525 0.960 . S
C3518 C3516 1.381 . S
C3518 C3519 1.394 . S
C3518 H3526 0.930 . S
C3519 C3518 1.394 . S
C3519 C3520 1.383 . S
C3519 H3527 0.929 . S
C3520 C3519 1.383 . S
C3520 C3521 1.377 . S
C3521 H3505 0.930 . S
C3521 C3520 1.377 . S
C3521 C3522 1.379 . S
C3522 H3506 0.931 . S
C3522 C3516 1.383 . S
C3522 C3521 1.379 . S
H3523 C3517 0.959 . S
H3524 C3517 0.961 . S
H3525 C3517 0.960 . S
H3526 C3518 0.930 . S
H3527 C3519 0.929 . S
H3528 C3536 0.929 . S
H3529 C3538 0.930 . S
H3530 C3540 0.930 . S
H3531 C3543 0.929 . S
H3532 C3546 0.930 . S
H3533 C3548 0.960 . S
H3534 C3548 0.960 . S
H3535 C3548 0.960 . S
C3536 H3528 0.929 . S
C3536 C3537 1.377 . S
C3536 C3538 1.384 . S
C3537 C3536 1.377 . S
C3537 C3543 1.390 . S
C3538 H3529 0.930 . S
C3538 C3536 1.384 . S
C3538 C3539 1.372 . S
C3539 C3538 1.372 . S
C3539 C3540 1.400 . S
C3539 C3544 1.490 . S
C3540 H3530 0.930 . S
C3540 C3539 1.400 . S
C3540 C3543 1.386 . S
H3541 C3557 0.930 . S
H3542 C3558 0.931 . S
C3543 H3531 0.929 . S
C3543 C3537 1.390 . S
C3543 C3540 1.386 . S
C3544 C3539 1.490 . S
C3544 C3546 1.395 . S
C3544 C3547 1.403 . S
H3545 C3551 0.930 . S
C3546 H3532 0.930 . S
C3546 C3544 1.395 . S
C3546 C3549 1.403 . S
C3547 C3544 1.403 . S
C3547 C3548 1.524 . S
C3547 C3551 1.400 . S
C3548 H3533 0.960 . S
C3548 H3534 0.960 . S
C3548 H3535 0.960 . S
C3548 C3547 1.524 . S
C3549 C3546 1.403 . S
C3549 C3550 1.392 . S
C3549 C3553 1.495 . S
C3550 C3549 1.392 . S
C3550 C3551 1.385 . S
C3550 C3552 1.478 . S
C3551 H3545 0.930 . S
C3551 C3547 1.400 . S
C3551 C3550 1.385 . S
C3552 C3550 1.478 . S
C3552 C3554 1.381 . S
C3552 C3558 1.383 . S
C3553 C3549 1.495 . S
C3553 H3559 0.959 . S
C3553 H3560 0.961 . S
C3553 H3561 0.960 . S
C3554 C3552 1.381 . S
C3554 C3555 1.394 . S
C3554 H3562 0.930 . S
C3555 C3554 1.394 . S
C3555 C3556 1.383 . S
C3555 H3563 0.929 . S
C3556 C3555 1.383 . S
C3556 C3557 1.377 . S
C3557 H3541 0.930 . S
C3557 C3556 1.377 . S
C3557 C3558 1.379 . S
C3558 H3542 0.931 . S
C3558 C3552 1.383 . S
C3558 C3557 1.379 . S
H3559 C3553 0.959 . S
H3560 C3553 0.961 . S
H3561 C3553 0.960 . S
H3562 C3554 0.930 . S
H3563 C3555 0.929 . S
H3564 C3572 0.929 . S
H3565 C3574 0.928 . S
H3566 C3576 0.930 . S
H3567 C3579 0.929 . S
H3568 C3582 0.930 . S
H3569 C3584 0.960 . S
H3570 C3584 0.960 . S
H3571 C3584 0.960 . S
C3572 H3564 0.929 . S
C3572 C3573 1.377 . S
C3572 C3574 1.384 . S
C3573 C3572 1.377 . S
C3573 C3579 1.390 . S
C3574 H3565 0.928 . S
C3574 C3572 1.384 . S
C3574 C3575 1.372 . S
C3575 C3574 1.372 . S
C3575 C3576 1.400 . S
C3575 C3580 1.490 . S
C3576 H3566 0.930 . S
C3576 C3575 1.400 . S
C3576 C3579 1.386 . S
H3577 C3593 0.930 . S
H3578 C3594 0.931 . S
C3579 H3567 0.929 . S
C3579 C3573 1.390 . S
C3579 C3576 1.386 . S
C3580 C3575 1.490 . S
C3580 C3582 1.395 1_655 S
C3580 C3583 1.403 . S
H3581 C3587 0.930 . S
C3582 H3568 0.930 . S
C3582 C3580 1.395 1_455 S
C3582 C3585 1.403 . S
C3583 C3580 1.403 . S
C3583 C3584 1.524 . S
C3583 C3587 1.400 . S
C3584 H3569 0.960 . S
C3584 H3570 0.960 . S
C3584 H3571 0.960 . S
C3584 C3583 1.524 . S
C3585 C3582 1.403 . S
C3585 C3586 1.392 1_455 S
C3585 C3589 1.495 . S
C3586 C3585 1.392 1_655 S
C3586 C3587 1.385 . S
C3586 C3588 1.478 . S
C3587 H3581 0.930 . S
C3587 C3583 1.400 . S
C3587 C3586 1.385 . S
C3588 C3586 1.478 . S
C3588 C3590 1.381 1_655 S
C3588 C3594 1.383 . S
C3589 C3585 1.495 . S
C3589 H3595 0.959 . S
C3589 H3596 0.961 . S
C3589 H3597 0.960 . S
C3590 C3588 1.381 1_455 S
C3590 C3591 1.394 . S
C3590 H3598 0.930 . S
C3591 C3590 1.394 . S
C3591 C3592 1.383 1_455 S
C3591 H3599 0.929 . S
C3592 C3591 1.383 1_655 S
C3592 C3593 1.377 . S
C3593 H3577 0.930 . S
C3593 C3592 1.377 . S
C3593 C3594 1.379 . S
C3594 H3578 0.931 . S
C3594 C3588 1.383 . S
C3594 C3593 1.379 . S
H3595 C3589 0.959 . S
H3596 C3589 0.961 . S
H3597 C3589 0.960 . S
H3598 C3590 0.930 . S
H3599 C3591 0.929 . S
H3600 C3608 0.929 . S
H3601 C3610 0.930 . S
H3602 C3612 0.930 . S
H3603 C3615 0.929 . S
H3604 C3618 0.930 . S
H3605 C3620 0.960 . S
H3606 C3620 0.960 . S
H3607 C3620 0.960 . S
C3608 H3600 0.929 . S
C3608 C3609 1.377 . S
C3608 C3610 1.384 . S
C3609 C3608 1.377 . S
C3609 C3615 1.390 . S
C3610 H3601 0.930 . S
C3610 C3608 1.384 . S
C3610 C3611 1.372 . S
C3611 C3610 1.372 . S
C3611 C3612 1.400 . S
C3611 C3616 1.490 . S
C3612 H3602 0.930 . S
C3612 C3611 1.400 . S
C3612 C3615 1.386 . S
H3613 C3629 0.930 . S
H3614 C3630 0.931 . S
C3615 H3603 0.929 . S
C3615 C3609 1.390 . S
C3615 C3612 1.386 . S
C3616 C3611 1.490 . S
C3616 C3618 1.395 . S
C3616 C3619 1.403 . S
H3617 C3623 0.930 . S
C3618 H3604 0.930 . S
C3618 C3616 1.395 . S
C3618 C3621 1.403 . S
C3619 C3616 1.403 . S
C3619 C3620 1.524 . S
C3619 C3623 1.400 . S
C3620 H3605 0.960 . S
C3620 H3606 0.960 . S
C3620 H3607 0.960 . S
C3620 C3619 1.524 . S
C3621 C3618 1.403 . S
C3621 C3622 1.392 . S
C3621 C3625 1.495 . S
C3622 C3621 1.392 . S
C3622 C3623 1.385 . S
C3622 C3624 1.478 . S
C3623 H3617 0.930 . S
C3623 C3619 1.400 . S
C3623 C3622 1.385 . S
C3624 C3622 1.478 . S
C3624 C3626 1.381 . S
C3624 C3630 1.383 . S
C3625 C3621 1.495 . S
C3625 H3631 0.959 . S
C3625 H3632 0.961 . S
C3625 H3633 0.960 . S
C3626 C3624 1.381 . S
C3626 C3627 1.394 . S
C3626 H3634 0.930 . S
C3627 C3626 1.394 . S
C3627 C3628 1.383 . S
C3627 H3635 0.929 . S
C3628 C3627 1.383 . S
C3628 C3629 1.377 . S
C3629 H3613 0.930 . S
C3629 C3628 1.377 . S
C3629 C3630 1.379 . S
C3630 H3614 0.931 . S
C3630 C3624 1.383 . S
C3630 C3629 1.379 . S
H3631 C3625 0.959 . S
H3632 C3625 0.961 . S
H3633 C3625 0.960 . S
H3634 C3626 0.930 . S
H3635 C3627 0.929 . S
H3636 C3644 0.929 . S
H3637 C3646 0.930 . S
H3638 C3648 0.976 . S
H3639 C3651 0.923 . S
H3640 C3654 0.930 . S
H3641 C3656 0.960 . S
H3642 C3656 0.960 . S
H3643 C3656 0.960 . S
C3644 H3636 0.929 . S
C3644 C3645 1.377 . S
C3644 C3646 1.384 . S
C3645 C3644 1.377 . S
C3645 C3651 1.394 1_545 S
C3646 H3637 0.930 . S
C3646 C3644 1.384 . S
C3646 C3647 1.372 . S
C3647 C3646 1.372 . S
C3647 C3648 1.327 1_545 S
C3647 C3652 1.490 . S
C3648 H3638 0.976 . S
C3648 C3647 1.327 1_565 S
C3648 C3651 1.419 . S
H3649 C3665 0.930 . S
H3650 C3666 0.931 . S
C3651 H3639 0.923 . S
C3651 C3645 1.394 1_565 S
C3651 C3648 1.419 . S
C3652 C3647 1.490 . S
C3652 C3654 1.395 . S
C3652 C3655 1.403 . S
H3653 C3659 0.930 . S
C3654 H3640 0.930 . S
C3654 C3652 1.395 . S
C3654 C3657 1.403 . S
C3655 C3652 1.403 . S
C3655 C3656 1.524 . S
C3655 C3659 1.400 . S
C3656 H3641 0.960 . S
C3656 H3642 0.960 . S
C3656 H3643 0.960 . S
C3656 C3655 1.524 . S
C3657 C3654 1.403 . S
C3657 C3658 1.392 . S
C3657 C3661 1.495 . S
C3658 C3657 1.392 . S
C3658 C3659 1.385 . S
C3658 C3660 1.478 . S
C3659 H3653 0.930 . S
C3659 C3655 1.400 . S
C3659 C3658 1.385 . S
C3660 C3658 1.478 . S
C3660 C3662 1.381 . S
C3660 C3666 1.383 1_545 S
C3661 C3657 1.495 . S
C3661 H3667 0.959 . S
C3661 H3668 0.961 1_545 S
C3661 H3669 0.960 . S
C3662 C3660 1.381 . S
C3662 C3663 1.394 . S
C3662 H3670 0.930 . S
C3663 C3662 1.394 . S
C3663 C3664 1.383 . S
C3663 H3671 0.929 . S
C3664 C3663 1.383 . S
C3664 C3665 1.377 1_545 S
C3665 H3649 0.930 . S
C3665 C3664 1.377 1_565 S
C3665 C3666 1.379 . S
C3666 H3650 0.931 . S
C3666 C3660 1.383 1_565 S
C3666 C3665 1.379 . S
H3667 C3661 0.959 . S
H3668 C3661 0.961 1_565 S
H3669 C3661 0.960 . S
H3670 C3662 0.930 . S
H3671 C3663 0.929 . S
C1089 C7 1.414 . S
C1108 C688 1.431 . S
C1125 C23 1.592 . S
C1144 C734 1.582 . S
C1180 C766 1.461 . S
C1161 C37 1.432 . S
C1197 C35 1.419 1_545 S
C1216 C819 1.439 . S
C1233 C9 1.430 . S
C1252 C865 1.470 . S
C1269 C21 1.570 . S
C1288 C904 1.590 . S
C1305 C49 1.401 . S
C1324 C858 1.416 . S
C1360 C911 1.581 . S
C1341 C65 1.587 . S
C1396 C812 1.481 . S
C1377 C79 1.441 . S
C1413 C77 1.392 . S
C1432 C773 1.410 . S
C1468 C667 1.478 . S
C1449 C51 1.442 . S
C1485 C63 1.569 . S
C1504 C713 1.598 . S
C1521 C91 1.665 . S
C1540 C943 1.685 . S
C1557 C107 1.668 . S
C1576 C1010 1.635 . S
C1612 C1056 1.640 . S
C1593 C121 1.662 . S
C1629 C119 1.594 . S
C1648 C267 1.590 . S
C1665 C93 1.671 . S
C1684 C313 1.641 . S
C1701 C105 1.618 . S
C1720 C359 1.613 . S
C1737 C133 1.543 . S
C1756 C306 1.561 . S
C1773 C149 1.639 . S
C1792 C352 1.638 . S
C1828 C260 1.661 . S
C1809 C163 1.667 . S
C1864 C1035 1.734 . S
C1845 C161 1.713 . S
C1900 C964 1.644 . S
C1881 C135 1.645 . S
C1936 C989 1.679 . S
C1917 C147 1.653 . S
C1953 C175 1.548 . S
C1972 C391 1.561 . S
C1989 C191 1.629 . S
C2008 C444 1.639 . S
C2025 C205 1.669 . S
C2044 C490 1.656 . S
C2061 C203 1.703 . S
C2080 C536 1.739 . S
C2116 C589 1.656 . S
C2097 C177 1.659 . S
C2152 C635 1.685 . S
C2133 C189 1.649 . S
C2188 C582 1.691 . S
C2169 C217 1.674 . S
C2224 C628 1.672 . S
C2205 C233 1.674 . S
C2241 C247 1.656 . S
C2260 C543 1.637 . S
C2296 C497 1.602 . S
C2277 C245 1.583 . S
C2313 C219 1.667 . S
C2332 C412 1.653 . S
C2368 C451 1.645 . S
C2349 C231 1.623 . S
C2404 C274 1.632 . S
C2385 C8 1.635 . S
C2421 C17 1.512 . S
C2440 C320 1.502 . S
C2476 C366 1.637 . S
C2457 C31 1.629 . S
C2512 C398 1.609 . S
C2493 C36 1.650 . S
C2548 C437 1.603 . S
C2529 C3 1.606 . S
C2584 C483 1.498 . S
C2565 C22 1.524 . S
C2601 C50 1.646 . S
C2620 C504 1.635 . S
C2637 C59 1.505 . S
C2656 C405 1.471 . S
C2673 C73 1.604 . S
C2692 C458 1.586 . S
C2709 C78 1.676 . S
C2728 C299 1.665 . S
C2764 C345 1.584 . S
C2745 C45 1.597 . S
C2781 C64 1.525 . S
C2800 C253 1.519 . S
C2836 C529 1.573 . S
C2817 C92 1.585 . S
C2853 C101 1.692 . S
C2872 C596 1.685 . S
C2889 C115 1.701 . S
C2908 C642 1.696 . S
C2944 C681 1.397 . S
C2925 C120 1.401 . S
C2961 C87 1.585 . S
C2980 C727 1.583 . S
C2997 C106 1.359 . S
C3016 C759 1.366 . S
C3033 C134 1.380 . S
C3052 C780 1.367 . S
C3069 C143 1.385 . S
C3088 C674 1.385 . S
C3124 C720 1.584 . S
C3105 C157 1.604 . S
C3141 C162 1.605 . S
C3160 C575 1.596 . S
C3177 C129 1.690 . S
C3196 C621 1.660 . S
C3232 C550 1.656 . S
C3213 C148 1.689 . S
C3268 C826 1.383 . S
C3249 C176 1.385 . S
C3285 C185 1.380 . S
C3304 C872 1.378 . S
C3321 C199 1.600 . S
C3340 C897 1.576 . S
C3376 C950 1.545 . S
C3357 C204 1.587 . S
C3412 C1003 1.668 . S
C3393 C171 1.694 . S
C3429 C190 1.692 . S
C3448 C1049 1.662 . S
C3465 C218 1.595 . S
C3484 C1042 1.591 . S
C3501 C227 1.685 . S
C3520 C957 1.650 . S
C3556 C996 1.672 . S
C3537 C241 1.687 . S
C3592 C851 1.390 . S
C3573 C246 1.389 . S
C3628 C918 1.587 . S
C3609 C213 1.595 . S
C3645 C232 1.366 . S
C3664 C805 1.375 . S
