# Generated by pormake.
# Topology the, (3,8)-cn, num edge types: 1
# Building blocks:
#     Node 0, Type 0, BuildingBlock: BETDAH_clean_linker_0, # of connection points: 3
#     Node 1, Type 0, BuildingBlock: BETDAH_clean_linker_0, # of connection points: 3
#     Node 2, Type 0, BuildingBlock: BETDAH_clean_linker_0, # of connection points: 3
#     Node 3, Type 0, BuildingBlock: BETDAH_clean_linker_0, # of connection points: 3
#     Node 4, Type 0, BuildingBlock: BETDAH_clean_linker_0, # of connection points: 3
#     Node 5, Type 0, BuildingBlock: BETDAH_clean_linker_0, # of connection points: 3
#     Node 6, Type 0, BuildingBlock: BETDAH_clean_linker_0, # of connection points: 3
#     Node 7, Type 0, BuildingBlock: BETDAH_clean_linker_0, # of connection points: 3
#     Node 8, Type 1, BuildingBlock: GIZVER_clean_sbu_0, # of connection points: 8
#     Node 9, Type 1, BuildingBlock: GIZVER_clean_sbu_0, # of connection points: 8
#     Node 10, Type 1, BuildingBlock: GIZVER_clean_sbu_0, # of connection points: 8
#     Edge 11, Type (0, 1), BuildingBlock: XUDNAN_clean_linker_2, # of connection points: 2
#     Edge 12, Type (0, 1), BuildingBlock: XUDNAN_clean_linker_2, # of connection points: 2
#     Edge 13, Type (0, 1), BuildingBlock: XUDNAN_clean_linker_2, # of connection points: 2
#     Edge 14, Type (0, 1), BuildingBlock: XUDNAN_clean_linker_2, # of connection points: 2
#     Edge 15, Type (0, 1), BuildingBlock: XUDNAN_clean_linker_2, # of connection points: 2
#     Edge 16, Type (0, 1), BuildingBlock: XUDNAN_clean_linker_2, # of connection points: 2
#     Edge 17, Type (0, 1), BuildingBlock: XUDNAN_clean_linker_2, # of connection points: 2
#     Edge 18, Type (0, 1), BuildingBlock: XUDNAN_clean_linker_2, # of connection points: 2
#     Edge 19, Type (0, 1), BuildingBlock: XUDNAN_clean_linker_2, # of connection points: 2
#     Edge 20, Type (0, 1), BuildingBlock: XUDNAN_clean_linker_2, # of connection points: 2
#     Edge 21, Type (0, 1), BuildingBlock: XUDNAN_clean_linker_2, # of connection points: 2
#     Edge 22, Type (0, 1), BuildingBlock: XUDNAN_clean_linker_2, # of connection points: 2
#     Edge 23, Type (0, 1), BuildingBlock: XUDNAN_clean_linker_2, # of connection points: 2
#     Edge 24, Type (0, 1), BuildingBlock: XUDNAN_clean_linker_2, # of connection points: 2
#     Edge 25, Type (0, 1), BuildingBlock: XUDNAN_clean_linker_2, # of connection points: 2
#     Edge 26, Type (0, 1), BuildingBlock: XUDNAN_clean_linker_2, # of connection points: 2
#     Edge 27, Type (0, 1), BuildingBlock: XUDNAN_clean_linker_2, # of connection points: 2
#     Edge 28, Type (0, 1), BuildingBlock: XUDNAN_clean_linker_2, # of connection points: 2
#     Edge 29, Type (0, 1), BuildingBlock: XUDNAN_clean_linker_2, # of connection points: 2
#     Edge 30, Type (0, 1), BuildingBlock: XUDNAN_clean_linker_2, # of connection points: 2
#     Edge 31, Type (0, 1), BuildingBlock: XUDNAN_clean_linker_2, # of connection points: 2
#     Edge 32, Type (0, 1), BuildingBlock: XUDNAN_clean_linker_2, # of connection points: 2
#     Edge 33, Type (0, 1), BuildingBlock: XUDNAN_clean_linker_2, # of connection points: 2
#     Edge 34, Type (0, 1), BuildingBlock: XUDNAN_clean_linker_2, # of connection points: 2
# Relax obj value: 0.072
# Max RMSD: 0.196
# Mean RMSD: 0.130
data_MOF--net-the--node1-GIZVER_clean_sbu_0--node2-BETDAH_clean_linker_0--edge1-XUDNAN_clean_linker_2
_symmetry_space_group_name_H-M    P1
_symmetry_Int_Tables_number       1
_symmetry_cell_setting            triclinic
loop_
_symmetry_equiv_pos_as_xyz
'x, y, z'
_cell_length_a     40.364214
_cell_length_b     38.201617
_cell_length_c     36.557122
_cell_angle_alpha  86.722871
_cell_angle_beta   96.123538
_cell_angle_gamma 108.94823
loop_
_atom_site_label
_atom_site_type_symbol
_atom_site_fract_x
_atom_site_fract_y
_atom_site_fract_z
_atom_type_partial_charge
H0 H 0.41488 0.30532 0.33703 0.0
H1 H 0.3651 0.27166 0.43736 0.0
H2 H 0.3494 0.36358 0.37287 0.0
C3 C 0.39762 0.30846 0.35651 0.0
C4 C 0.38259 0.33704 0.3511 0.0
C5 C 0.39198 0.28514 0.38787 0.0
C6 C 0.37021 0.2899 0.41332 0.0
C7 C 0.35446 0.31763 0.40805 0.0
C8 C 0.36101 0.34161 0.37702 0.0
N9 N 0.33245 0.32044 0.43478 0.0
C10 C 0.31335 0.34497 0.4325 0.0
H11 H 0.77222 0.28428 0.37653 0.0
H12 H 0.78212 0.34624 0.27387 0.0
H13 H 0.70796 0.23621 0.27892 0.0
C14 C 0.76464 0.2859 0.34727 0.0
C15 C 0.73801 0.25621 0.33034 0.0
C16 C 0.78085 0.31831 0.32715 0.0
C17 C 0.77001 0.32122 0.28953 0.0
C18 C 0.74352 0.29149 0.2722 0.0
C19 C 0.72803 0.25912 0.2926 0.0
N20 N 0.73355 0.29229 0.23385 0.0
C21 C 0.72183 0.31974 0.21575 0.0
H22 H 0.77684 0.65225 0.31069 0.0
H23 H 0.77405 0.7362 0.38384 0.0
H24 H 0.7154 0.72346 0.27761 0.0
C25 C 0.7671 0.67425 0.31716 0.0
C26 C 0.7443 0.68518 0.29075 0.0
C27 C 0.77878 0.69292 0.35075 0.0
C28 C 0.7658 0.7218 0.35809 0.0
C29 C 0.74284 0.73271 0.3316 0.0
C30 C 0.73286 0.71473 0.29802 0.0
N31 N 0.73025 0.76262 0.33658 0.0
C32 C 0.72783 0.77691 0.36999 0.0
H33 H 0.32696 0.74954 0.37384 0.0
H34 H 0.41303 0.71591 0.3465 0.0
H35 H 0.31018 0.63627 0.34674 0.0
C36 C 0.3365 0.72814 0.36539 0.0
C37 C 0.31316 0.69189 0.36014 0.0
C38 C 0.37267 0.73687 0.36163 0.0
C39 C 0.38526 0.7096 0.34949 0.0
C40 C 0.36206 0.67363 0.34288 0.0
C41 C 0.32675 0.66482 0.34948 0.0
N42 N 0.3739 0.6446 0.33308 0.0
C43 C 0.396 0.64744 0.30559 0.0
H44 H 0.34004 0.7502 0.67715 0.0
H45 H 0.32027 0.64057 0.72357 0.0
H46 H 0.41631 0.7258 0.75804 0.0
C47 C 0.34844 0.73105 0.69592 0.0
C48 C 0.38136 0.74281 0.7168 0.0
C49 C 0.32657 0.69429 0.69815 0.0
C50 C 0.33705 0.66918 0.72208 0.0
C51 C 0.36867 0.68059 0.74462 0.0
C52 C 0.391 0.71747 0.74196 0.0
N53 N 0.37757 0.65344 0.76806 0.0
C54 C 0.40142 0.66026 0.79926 0.0
H55 H 0.43243 0.29342 0.75427 0.0
H56 H 0.34447 0.33525 0.73172 0.0
H57 H 0.34882 0.24483 0.67085 0.0
C58 C 0.40744 0.29232 0.73941 0.0
C59 C 0.39294 0.26617 0.71144 0.0
C60 C 0.3905 0.31794 0.74708 0.0
C61 C 0.35859 0.31677 0.72597 0.0
C62 C 0.3438 0.29057 0.69837 0.0
C63 C 0.36081 0.2653 0.6918 0.0
N64 N 0.31101 0.28746 0.67778 0.0
C65 C 0.29846 0.31682 0.66707 0.0
H66 H 0.81483 0.27836 0.68935 0.0
H67 H 0.8368 0.39384 0.71092 0.0
H68 H 0.73413 0.31741 0.7227 0.0
C69 C 0.80683 0.30073 0.69819 0.0
C70 C 0.77163 0.29363 0.7054 0.0
C71 C 0.83102 0.33681 0.70014 0.0
C72 C 0.81955 0.36542 0.71075 0.0
C73 C 0.78539 0.35854 0.72007 0.0
C74 C 0.76117 0.3226 0.71713 0.0
N75 N 0.77614 0.3892 0.73008 0.0
C76 C 0.74781 0.38693 0.74952 0.0
H77 H 0.7939 0.63151 0.69715 0.0
H78 H 0.7671 0.66537 0.58693 0.0
H79 H 0.6978 0.65769 0.6707 0.0
C80 C 0.77591 0.64023 0.67742 0.0
C81 C 0.74444 0.64272 0.68843 0.0
C82 C 0.78428 0.64839 0.64098 0.0
C83 C 0.7607 0.65867 0.61508 0.0
C84 C 0.72993 0.66277 0.62594 0.0
C85 C 0.7217 0.65457 0.66252 0.0
N86 N 0.70793 0.67599 0.59993 0.0
C87 C 0.70066 0.7083 0.60564 0.0
Co88 Co 0.12457 0.49246 0.51959 0.0
Co89 Co 0.08641 0.47697 0.45522 0.0
Co90 Co 0.05162 0.51996 0.50585 0.0
O91 O 0.07437 0.48042 0.50296 0.0
H92 H 0.06036 0.45655 0.51212 0.0
O93 O 0.03147 0.56104 0.50983 0.0
Co94 Co 0.98306 0.55436 0.49713 0.0
Co95 Co 0.0232 0.56394 0.55848 0.0
H96 H 0.04658 0.58461 0.50121 0.0
O97 O 0.10064 0.43738 0.44059 0.0
O98 O 0.13447 0.48872 0.46904 0.0
O99 O 0.0831 0.51642 0.42112 0.0
O100 O 0.07775 0.5517 0.46512 0.0
O101 O 1.01011 0.49247 0.47013 0.0
O102 O 0.93856 0.55161 0.48341 0.0
O103 O 0.98667 0.60227 0.48638 0.0
O104 O 0.97413 0.5037 0.50561 0.0
O105 O 0.02647 0.48787 0.54652 0.0
O106 O 0.02516 0.52337 0.59199 0.0
O107 O 0.97626 0.56086 0.54918 0.0
O108 O 0.02062 0.60707 0.57641 0.0
C109 C 0.15812 0.46363 0.54098 0.0
C110 C 0.12225 0.55895 0.53549 0.0
C111 C 0.08662 0.54803 0.43331 0.0
C112 C 0.13153 0.45823 0.45338 0.0
C113 C 0.95281 0.58713 0.47846 0.0
C114 C 0.97867 0.48644 0.47888 0.0
C115 C 0.02143 0.49181 0.57968 0.0
C116 C 0.98727 0.59189 0.56679 0.0
O117 O 0.16903 0.49926 0.53548 0.0
O118 O 0.12502 0.44511 0.53166 0.0
O119 O 0.09031 0.54745 0.54241 0.0
O120 O 0.13193 0.54326 0.51101 0.0
Co121 Co 0.59434 0.94512 0.52968 0.0
Co122 Co 0.61014 0.97602 0.59436 0.0
Co123 Co 0.56035 0.01364 0.54677 0.0
O124 O 0.60068 0.99374 0.5473 0.0
H125 H 0.62165 0.01208 0.53944 0.0
O126 O 0.5199 0.03355 0.54664 0.0
Co127 Co 0.52559 0.08124 0.56646 0.0
Co128 Co 0.51292 0.0557 0.50221 0.0
H129 H 0.4985 0.01471 0.55278 0.0
O130 O 0.65193 0.96652 0.61 0.0
O131 O 0.60317 0.9276 0.58088 0.0
O132 O 0.57746 0.97467 0.62955 0.0
O133 O 0.53576 0.9764 0.58515 0.0
O134 O 0.58784 0.04918 0.58547 0.0
O135 O 0.52767 0.12337 0.58708 0.0
O136 O 0.48084 0.07175 0.57918 0.0
O137 O 0.57401 0.09688 0.559 0.0
O138 O 0.586 0.05032 0.50863 0.0
O139 O 0.54724 0.06369 0.46735 0.0
O140 O 0.51263 0.1012 0.51613 0.0
O141 O 0.46987 0.05539 0.48428 0.0
C142 C 0.62603 0.91907 0.51029 0.0
C143 C 0.52727 0.94367 0.50996 0.0
C144 C 0.54528 0.96788 0.61809 0.0
C145 C 0.63443 0.93368 0.59801 0.0
C146 C 0.49533 0.10486 0.59266 0.0
C147 C 0.59368 0.08408 0.5818 0.0
C148 C 0.57842 0.06463 0.47772 0.0
C149 C 0.48428 0.09003 0.49284 0.0
O150 O 0.59264 0.90194 0.51217 0.0
O151 O 0.63979 0.95301 0.52171 0.0
O152 O 0.53281 0.97854 0.50734 0.0
O153 O 0.54554 0.93075 0.53412 0.0
Co154 Co 0.53025 0.52572 0.09825 0.0
Co155 Co 0.50709 0.45836 0.08214 0.0
Co156 Co 0.55858 0.50671 0.0208 0.0
O157 O 0.51887 0.50029 0.05235 0.0
H158 H 0.49829 0.50343 0.03834 0.0
O159 O 0.59821 0.51291 0.98997 0.0
Co160 Co 0.58823 0.49619 0.94075 0.0
Co161 Co 0.61487 0.55962 0.96981 0.0
H162 H 0.61735 0.50612 1.00319 0.0
O163 O 0.46225 0.4375 0.09645 0.0
O164 O 0.50832 0.47972 0.12684 0.0
O165 O 0.54009 0.43168 0.0874 0.0
O166 O 0.57607 0.46674 0.04756 0.0
O167 O 0.52489 0.46989 0.98497 0.0
O168 O 0.5813 0.47858 0.89598 0.0
O169 O 0.6273 0.48354 0.93849 0.0
O170 O 0.54532 0.50566 0.93755 0.0
O171 O 0.54167 0.54712 0.99445 0.0
O172 O 0.58631 0.59066 0.97075 0.0
O173 O 0.6126 0.54691 0.92123 0.0
O174 O 0.66045 0.57793 0.95826 0.0
C175 C 0.50847 0.55582 0.12709 0.0
C176 C 0.59764 0.53826 0.08916 0.0
C177 C 0.56838 0.44039 0.0718 0.0
C178 C 0.4762 0.45689 0.12555 0.0
C179 C 0.61089 0.4727 0.90628 0.0
C180 C 0.52127 0.47918 0.95088 0.0
C181 C 0.55458 0.57863 0.97833 0.0
C182 C 0.64613 0.56559 0.92599 0.0
O183 O 0.53852 0.5516 0.13871 0.0
O184 O 0.49082 0.53919 0.09738 0.0
O185 O 0.5929 0.54426 0.05468 0.0
O186 O 0.57295 0.51556 0.10527 0.0
H187 H 0.24252 0.32448 0.4235 0.0
H188 H 0.3368 0.41817 0.44525 0.0
H189 H 0.30017 0.45809 0.45208 0.0
H190 H 0.19014 0.37487 0.37095 0.0
H191 H 0.14992 0.34805 0.38999 0.0
H192 H 0.18361 0.32746 0.38577 0.0
H193 H 0.18495 0.31061 0.45565 0.0
H194 H 0.15124 0.33115 0.4599 0.0
H195 H 0.19235 0.34664 0.48827 0.0
H196 H 0.25337 0.48653 0.45933 0.0
H197 H 0.19973 0.50293 0.46368 0.0
H198 H 0.1355 0.3906 0.43624 0.0
C199 C 0.25527 0.35355 0.4292 0.0
C200 C 0.2922 0.36872 0.43357 0.0
C201 C 0.30839 0.4065 0.44154 0.0
C202 C 0.28784 0.4292 0.44554 0.0
C203 C 0.25131 0.41343 0.44141 0.0
C204 C 0.23513 0.37653 0.43321 0.0
C205 C 0.19544 0.36632 0.43084 0.0
C206 C 0.1788 0.35342 0.39207 0.0
C207 C 0.1801 0.33693 0.46042 0.0
C208 C 0.19177 0.40326 0.43885 0.0
C209 C 0.22432 0.42996 0.44512 0.0
C210 C 0.22775 0.46594 0.45416 0.0
C211 C 0.19709 0.47493 0.45665 0.0
C212 C 0.16342 0.44808 0.45005 0.0
C213 C 0.16084 0.41181 0.441 0.0
H214 H 0.66701 0.2206 0.33076 0.0
H215 H 0.76835 0.21718 0.3807 0.0
H216 H 0.73843 0.16432 0.42058 0.0
H217 H 0.62472 0.2026 0.41251 0.0
H218 H 0.5827 0.17467 0.39142 0.0
H219 H 0.61206 0.20992 0.36462 0.0
H220 H 0.60995 0.16101 0.31738 0.0
H221 H 0.58055 0.12557 0.34409 0.0
H222 H 0.62105 0.12021 0.33295 0.0
H223 H 0.69743 0.1143 0.45757 0.0
H224 H 0.64868 0.07226 0.49007 0.0
H225 H 0.57393 0.10847 0.41613 0.0
C226 C 0.68289 0.2082 0.34954 0.0
C227 C 0.72003 0.22282 0.35247 0.0
C228 C 0.73987 0.20645 0.37808 0.0
C229 C 0.72311 0.17632 0.40069 0.0
C230 C 0.68645 0.16285 0.39743 0.0
C231 C 0.66656 0.17827 0.37251 0.0
C232 C 0.62757 0.16014 0.3761 0.0
C233 C 0.61079 0.18852 0.38681 0.0
C234 C 0.60867 0.14056 0.34051 0.0
C235 C 0.62865 0.13246 0.40724 0.0
C236 C 0.66284 0.13424 0.41895 0.0
C237 C 0.67053 0.11244 0.44841 0.0
C238 C 0.64261 0.0886 0.46671 0.0
C239 C 0.60735 0.08679 0.45565 0.0
C240 C 0.60046 0.10874 0.4251 0.0
H241 H 0.78515 0.62405 0.3688 0.0
H242 H 0.8352 0.74089 0.39069 0.0
H243 H 0.88349 0.72635 0.42886 0.0
H244 H 0.8096 0.58858 0.45784 0.0
H245 H 0.81839 0.54984 0.43987 0.0
H246 H 0.78595 0.568 0.41573 0.0
H247 H 0.81728 0.57863 0.35642 0.0
H248 H 0.84946 0.55935 0.3791 0.0
H249 H 0.86343 0.60489 0.35786 0.0
H250 H 0.92932 0.69951 0.46029 0.0
H251 H 0.96721 0.6621 0.48424 0.0
H252 H 0.8873 0.56322 0.44135 0.0
C253 C 0.80612 0.64664 0.38176 0.0
C254 C 0.80613 0.68367 0.37671 0.0
C255 C 0.83408 0.71223 0.39455 0.0
C256 C 0.86184 0.70428 0.41612 0.0
C257 C 0.86135 0.66759 0.41978 0.0
C258 C 0.83407 0.63922 0.40326 0.0
C259 C 0.84048 0.60235 0.41012 0.0
C260 C 0.81193 0.57561 0.43222 0.0
C261 C 0.84281 0.58532 0.37371 0.0
C262 C 0.87586 0.61446 0.43265 0.0
C263 C 0.8875 0.65219 0.43799 0.0
C264 C 0.9203 0.66989 0.45653 0.0
C265 C 0.94174 0.64849 0.46985 0.0
C266 C 0.93024 0.6098 0.46468 0.0
C267 C 0.89674 0.59271 0.44603 0.0
H268 H 0.43051 0.75029 0.41179 0.0
H269 H 0.36831 0.80548 0.34157 0.0
H270 H 0.40275 0.8652 0.37008 0.0
H271 H 0.43406 0.79821 0.49123 0.0
H272 H 0.47848 0.80112 0.50806 0.0
H273 H 0.45232 0.76365 0.47908 0.0
H274 H 0.50023 0.78107 0.43319 0.0
H275 H 0.52677 0.81831 0.46235 0.0
H276 H 0.51528 0.82771 0.41467 0.0
H277 H 0.44103 0.91807 0.40971 0.0
H278 H 0.4812 0.96013 0.45611 0.0
H279 H 0.51689 0.86971 0.5018 0.0
C280 C 0.42496 0.77519 0.40162 0.0
C281 C 0.39708 0.77343 0.37411 0.0
C282 C 0.38976 0.80636 0.36239 0.0
C283 C 0.40915 0.84035 0.37845 0.0
C284 C 0.43576 0.84098 0.40632 0.0
C285 C 0.44387 0.8093 0.41764 0.0
C286 C 0.47206 0.81699 0.44982 0.0
C287 C 0.4584 0.7936 0.48406 0.0
C288 C 0.50557 0.81065 0.43937 0.0
C289 C 0.47804 0.85771 0.45523 0.0
C290 C 0.45712 0.87115 0.42968 0.0
C291 C 0.45771 0.90788 0.42969 0.0
C292 C 0.48052 0.93155 0.45625 0.0
C293 C 0.50224 0.91835 0.4827 0.0
C294 C 0.50069 0.88081 0.48207 0.0
H295 H 0.31194 0.64873 0.64009 0.0
H296 H 0.26656 0.71084 0.70367 0.0
H297 H 0.2092 0.68572 0.66643 0.0
H298 H 0.26417 0.661 0.55133 0.0
H299 H 0.25953 0.61529 0.53658 0.0
H300 H 0.297 0.63955 0.5672 0.0
H301 H 0.28178 0.58422 0.61391 0.0
H302 H 0.24428 0.55993 0.58347 0.0
H303 H 0.23859 0.56806 0.63012 0.0
H304 H 0.15571 0.64883 0.6259 0.0
H305 H 0.11126 0.60643 0.58278 0.0
H306 H 0.19346 0.57259 0.54289 0.0
C307 C 0.28992 0.65725 0.64575 0.0
C308 C 0.29322 0.68151 0.67453 0.0
C309 C 0.2642 0.69229 0.6815 0.0
C310 C 0.23169 0.67818 0.66056 0.0
C311 C 0.22907 0.6539 0.63247 0.0
C312 C 0.25758 0.64396 0.62472 0.0
C313 C 0.24784 0.61715 0.59343 0.0
C314 C 0.26835 0.63429 0.56017 0.0
C315 C 0.25345 0.58016 0.60601 0.0
C316 C 0.20918 0.61275 0.58541 0.0
C317 C 0.19876 0.63405 0.60822 0.0
C318 C 0.16369 0.63249 0.6075 0.0
C319 C 0.13864 0.60829 0.58301 0.0
C320 C 0.14889 0.58629 0.5594 0.0
C321 C 0.18475 0.5892 0.56032 0.0
H322 H 0.40349 0.24987 0.64255 0.0
H323 H 0.42322 0.22293 0.75786 0.0
H324 H 0.44897 0.17613 0.74024 0.0
H325 H 0.37748 0.16053 0.61151 0.0
H326 H 0.39807 0.16839 0.56959 0.0
H327 H 0.38455 0.20428 0.58708 0.0
H328 H 0.44429 0.2522 0.58998 0.0
H329 H 0.46495 0.22243 0.57196 0.0
H330 H 0.4816 0.24335 0.61549 0.0
H331 H 0.47138 0.13047 0.70838 0.0
H332 H 0.49294 0.09541 0.66658 0.0
H333 H 0.45882 0.1534 0.57269 0.0
C334 C 0.41317 0.23413 0.6642 0.0
C335 C 0.41106 0.23993 0.70163 0.0
C336 C 0.42466 0.21913 0.72901 0.0
C337 C 0.43909 0.19228 0.71921 0.0
C338 C 0.44003 0.18676 0.68189 0.0
C339 C 0.42779 0.20756 0.65497 0.0
C340 C 0.43222 0.1972 0.61689 0.0
C341 C 0.39605 0.18183 0.59489 0.0
C342 C 0.45711 0.23071 0.59735 0.0
C343 C 0.44893 0.16715 0.62617 0.0
C344 C 0.45298 0.16122 0.66385 0.0
C345 C 0.46813 0.13492 0.6789 0.0
C346 C 0.48003 0.11489 0.65496 0.0
C347 C 0.47679 0.12115 0.61639 0.0
C348 C 0.46089 0.14752 0.60194 0.0
H349 H 0.89161 0.39179 0.72458 0.0
H350 H 0.85171 0.30387 0.64527 0.0
H351 H 0.90691 0.32712 0.61623 0.0
H352 H 0.91757 0.45768 0.6606 0.0
H353 H 0.95591 0.48694 0.6869 0.0
H354 H 0.92019 0.45654 0.71018 0.0
H355 H 0.96286 0.42655 0.74726 0.0
H356 H 0.99892 0.45711 0.72398 0.0
H357 H 0.98973 0.40771 0.72323 0.0
H358 H 0.95907 0.36636 0.58718 0.0
H359 H 0.99991 0.42005 0.55762 0.0
H360 H 1.00273 0.48741 0.65036 0.0
C361 C 0.8946 0.37684 0.70157 0.0
C362 C 0.8669 0.34585 0.68745 0.0
C363 C 0.87247 0.32705 0.65751 0.0
C364 C 0.90392 0.3402 0.6406 0.0
C365 C 0.92957 0.37233 0.65365 0.0
C366 C 0.92521 0.39048 0.6835 0.0
C367 C 0.95273 0.42841 0.6873 0.0
C368 C 0.93556 0.45917 0.68613 0.0
C369 C 0.97754 0.43002 0.72254 0.0
C370 C 0.97164 0.42982 0.65338 0.0
C371 C 0.95891 0.39657 0.63532 0.0
C372 C 0.96973 0.39228 0.60143 0.0
C373 C 0.99293 0.42311 0.58478 0.0
C374 C 1.0044 0.45812 0.60157 0.0
C375 C 0.99471 0.46099 0.63701 0.0
H376 H 0.64305 0.72852 0.58296 0.0
H377 H 0.74871 0.76769 0.63731 0.0
H378 H 0.74324 0.83006 0.64187 0.0
H379 H 0.64789 0.81057 0.52963 0.0
H380 H 0.60328 0.809 0.5335 0.0
H381 H 0.61416 0.76674 0.5358 0.0
H382 H 0.58949 0.74916 0.59905 0.0
H383 H 0.57745 0.79074 0.59693 0.0
H384 H 0.6051 0.78163 0.63587 0.0
H385 H 0.72685 0.8883 0.63863 0.0
H386 H 0.70023 0.93824 0.62975 0.0
H387 H 0.60466 0.86095 0.57801 0.0
C388 C 0.66477 0.75026 0.59615 0.0
C389 C 0.69622 0.74372 0.61008 0.0
C390 C 0.72439 0.77251 0.62678 0.0
C391 C 0.72151 0.80789 0.62939 0.0
C392 C 0.69024 0.81376 0.61518 0.0
C393 C 0.66226 0.78572 0.59908 0.0
C394 C 0.63179 0.79955 0.58557 0.0
C395 C 0.6238 0.79628 0.54362 0.0
C396 C 0.59902 0.77905 0.60556 0.0
C397 C 0.64699 0.83967 0.59653 0.0
C398 C 0.68076 0.84731 0.61346 0.0
C399 C 0.70036 0.8826 0.62556 0.0
C400 C 0.68498 0.91079 0.62039 0.0
C401 C 0.6503 0.90357 0.60328 0.0
C402 C 0.63118 0.86744 0.59124 0.0
H403 H 0.42653 0.26994 0.45199 0.0
H404 H 0.3951 0.23429 0.33942 0.0
H405 H 0.41888 0.18227 0.35297 0.0
H406 H 0.50763 0.24598 0.46712 0.0
H407 H 0.49945 0.22938 0.51353 0.0
H408 H 0.48313 0.26557 0.49371 0.0
H409 H 0.4222 0.22643 0.51055 0.0
H410 H 0.43457 0.18608 0.52514 0.0
H411 H 0.40017 0.18251 0.48901 0.0
H412 H 0.43938 0.13006 0.38144 0.0
H413 H 0.4598 0.08491 0.42057 0.0
H414 H 0.48102 0.15679 0.5137 0.0
C415 C 0.42519 0.25156 0.42999 0.0
C416 C 0.40901 0.25606 0.39466 0.0
C417 C 0.40766 0.23142 0.36661 0.0
C418 C 0.42104 0.20183 0.37408 0.0
C419 C 0.43615 0.19773 0.40954 0.0
C420 C 0.43878 0.2223 0.43681 0.0
C421 C 0.4536 0.21028 0.47325 0.0
C422 C 0.48801 0.23955 0.48775 0.0
C423 C 0.42596 0.20094 0.50114 0.0
C424 C 0.45989 0.17559 0.46232 0.0
C425 C 0.44891 0.16836 0.42558 0.0
C426 C 0.44864 0.13585 0.41004 0.0
C427 C 0.46 0.11025 0.43261 0.0
C428 C 0.47195 0.11746 0.4702 0.0
C429 C 0.4723 0.1508 0.48504 0.0
H430 H 0.85328 0.34491 0.32584 0.0
H431 H 0.76627 0.36061 0.3752 0.0
H432 H 0.80808 0.40668 0.41672 0.0
H433 H 0.90884 0.34956 0.40784 0.0
H434 H 0.94953 0.37492 0.38889 0.0
H435 H 0.91336 0.34589 0.3598 0.0
H436 H 0.91498 0.40149 0.31532 0.0
H437 H 0.95149 0.43064 0.34404 0.0
H438 H 0.91231 0.44349 0.33301 0.0
H439 H 0.85692 0.44405 0.45682 0.0
H440 H 0.9116 0.4776 0.49171 0.0
H441 H 0.97113 0.44251 0.41695 0.0
C442 C 0.84328 0.35899 0.34474 0.0
C443 C 0.8066 0.34982 0.34715 0.0
C444 C 0.79423 0.36777 0.37278 0.0
C445 C 0.81778 0.39381 0.39648 0.0
C446 C 0.85371 0.40168 0.3942 0.0
C447 C 0.86667 0.38536 0.36881 0.0
C448 C 0.90682 0.39812 0.37383 0.0
C449 C 0.92043 0.36515 0.38314 0.0
C450 C 0.92232 0.41972 0.3395 0.0
C451 C 0.91414 0.42343 0.40653 0.0
C452 C 0.88282 0.42471 0.41751 0.0
C453 C 0.88167 0.44399 0.44804 0.0
C454 C 0.91327 0.46308 0.46776 0.0
C455 C 0.94625 0.46364 0.45689 0.0
C456 C 0.94659 0.44321 0.42577 0.0
H457 H 0.66361 0.77729 0.38198 0.0
H458 H 0.77373 0.82041 0.42188 0.0
H459 H 0.75942 0.85958 0.46579 0.0
H460 H 0.64597 0.86128 0.38277 0.0
H461 H 0.60212 0.84099 0.39673 0.0
H462 H 0.6209 0.81412 0.37156 0.0
H463 H 0.60847 0.76418 0.42268 0.0
H464 H 0.5914 0.79082 0.45027 0.0
H465 H 0.62755 0.77524 0.46899 0.0
H466 H 0.73311 0.89868 0.50063 0.0
H467 H 0.69708 0.93187 0.52539 0.0
H468 H 0.60418 0.86169 0.46296 0.0
C469 C 0.6845 0.79428 0.40073 0.0
C470 C 0.71962 0.79559 0.39932 0.0
C471 C 0.74659 0.81875 0.42327 0.0
C472 C 0.73867 0.84111 0.44809 0.0
C473 C 0.70369 0.83981 0.44838 0.0
C474 C 0.67702 0.81672 0.42546 0.0
C475 C 0.64193 0.82183 0.42947 0.0
C476 C 0.62687 0.83537 0.39297 0.0
C477 C 0.61578 0.78592 0.44374 0.0
C478 C 0.65297 0.85173 0.45792 0.0
C479 C 0.68867 0.86188 0.46849 0.0
C480 C 0.70509 0.89064 0.49281 0.0
C481 C 0.68451 0.90951 0.50653 0.0
C482 C 0.64791 0.89935 0.49607 0.0
C483 C 0.63206 0.86985 0.47174 0.0
H484 H 0.25544 0.63615 0.32945 0.0
H485 H 0.28451 0.72274 0.41039 0.0
H486 H 0.22376 0.70266 0.42668 0.0
H487 H 0.16231 0.63055 0.30524 0.0
H488 H 0.1479 0.5807 0.30448 0.0
H489 H 0.19129 0.60704 0.29223 0.0
H490 H 0.21895 0.57087 0.34191 0.0
H491 H 0.17573 0.5442 0.35375 0.0
H492 H 0.2083 0.56925 0.38878 0.0
H493 H 0.16227 0.66881 0.44049 0.0
H494 H 0.10898 0.61954 0.45681 0.0
H495 H 0.12127 0.55103 0.37176 0.0
C496 C 0.24931 0.6513 0.35044 0.0
C497 C 0.27538 0.68163 0.36803 0.0
C498 C 0.26537 0.70037 0.39523 0.0
C499 C 0.23069 0.68901 0.40494 0.0
C500 C 0.2061 0.65854 0.38765 0.0
C501 C 0.2151 0.63964 0.3613 0.0
C502 C 0.18558 0.60425 0.3513 0.0
C503 C 0.1709 0.60574 0.31091 0.0
C504 C 0.19788 0.57015 0.35945 0.0
C505 C 0.15906 0.60553 0.37716 0.0
C506 C 0.17097 0.63766 0.39705 0.0
C507 C 0.15246 0.64376 0.42476 0.0
C508 C 0.12203 0.61553 0.43375 0.0
C509 C 0.11079 0.58117 0.41568 0.0
C510 C 0.12873 0.57702 0.38582 0.0
H511 H 0.39302 0.7807 0.65088 0.0
H512 H 0.42649 0.79053 0.76779 0.0
H513 H 0.46867 0.85254 0.75591 0.0
H514 H 0.47582 0.8232 0.61901 0.0
H515 H 0.45992 0.84631 0.58005 0.0
H516 H 0.43139 0.80381 0.5983 0.0
H517 H 0.3855 0.83629 0.60671 0.0
H518 H 0.4141 0.87902 0.58866 0.0
H519 H 0.39848 0.87772 0.63327 0.0
H520 H 0.51032 0.91141 0.73033 0.0
H521 H 0.54841 0.9616 0.69315 0.0
H522 H 0.48458 0.91458 0.59379 0.0
C523 C 0.40854 0.79613 0.67422 0.0
C524 C 0.40613 0.78071 0.71038 0.0
C525 C 0.42795 0.80154 0.73984 0.0
C526 C 0.45177 0.83694 0.73339 0.0
C527 C 0.45326 0.85125 0.69739 0.0
C528 C 0.43213 0.83148 0.66833 0.0
C529 C 0.43981 0.85221 0.63201 0.0
C530 C 0.4525 0.83007 0.60582 0.0
C531 C 0.40755 0.86188 0.61412 0.0
C532 C 0.46908 0.88654 0.64504 0.0
C533 C 0.47644 0.88556 0.68285 0.0
C534 C 0.50437 0.91279 0.70082 0.0
C535 C 0.52581 0.94121 0.67951 0.0
C536 C 0.51901 0.94234 0.64072 0.0
C537 C 0.48975 0.9151 0.62348 0.0
H538 H 0.2295 0.30655 0.64516 0.0
H539 H 0.33347 0.38816 0.65044 0.0
H540 H 0.30863 0.43369 0.61702 0.0
H541 H 0.20033 0.33127 0.55474 0.0
H542 H 0.15566 0.32474 0.56387 0.0
H543 H 0.18033 0.29823 0.58961 0.0
H544 H 0.17024 0.32129 0.65112 0.0
H545 H 0.14432 0.34694 0.62621 0.0
H546 H 0.18136 0.37031 0.65781 0.0
H547 H 0.2731 0.46941 0.58199 0.0
H548 H 0.22908 0.4954 0.55098 0.0
H549 H 0.14661 0.39117 0.56802 0.0
C550 C 0.24683 0.33423 0.63962 0.0
C551 C 0.28331 0.34427 0.65056 0.0
C552 C 0.30543 0.38031 0.64252 0.0
C553 C 0.29155 0.40618 0.62343 0.0
C554 C 0.2555 0.39542 0.61259 0.0
C555 C 0.23332 0.36043 0.62062 0.0
C556 C 0.19556 0.35611 0.60568 0.0
C557 C 0.18217 0.32579 0.57675 0.0
C558 C 0.17145 0.3482 0.63708 0.0
C559 C 0.19992 0.39421 0.58817 0.0
C560 C 0.23482 0.41622 0.59236 0.0
C561 C 0.2457 0.45249 0.57876 0.0
C562 C 0.22031 0.467 0.56115 0.0
C563 C 0.18413 0.44553 0.55723 0.0
C564 C 0.17396 0.40834 0.57051 0.0
H565 H 0.70869 0.28004 0.66379 0.0
H566 H 0.77641 0.22492 0.72494 0.0
H567 H 0.73662 0.1645 0.70216 0.0
H568 H 0.62408 0.20611 0.67536 0.0
H569 H 0.6062 0.21359 0.62938 0.0
H570 H 0.63781 0.25161 0.65399 0.0
H571 H 0.67733 0.26413 0.60013 0.0
H572 H 0.64614 0.2259 0.5756 0.0
H573 H 0.6913 0.22739 0.58524 0.0
H574 H 0.6917 0.11077 0.66894 0.0
H575 H 0.6446 0.06777 0.62891 0.0
H576 H 0.60731 0.15873 0.58848 0.0
C577 C 0.71454 0.25512 0.67329 0.0
C578 C 0.74537 0.25703 0.69646 0.0
C579 C 0.7528 0.22396 0.70733 0.0
C580 C 0.73036 0.18958 0.69456 0.0
C581 C 0.70066 0.18878 0.67091 0.0
C582 C 0.69259 0.22068 0.66058 0.0
C583 C 0.66042 0.21266 0.633 0.0
C584 C 0.63035 0.22151 0.64889 0.0
C585 C 0.66936 0.23377 0.59633 0.0
C586 C 0.65202 0.1714 0.62891 0.0
C587 C 0.6753 0.15806 0.65124 0.0
C588 C 0.67316 0.12088 0.65156 0.0
C589 C 0.64637 0.09668 0.62864 0.0
C590 C 0.62226 0.10983 0.60548 0.0
C591 C 0.62531 0.14775 0.60576 0.0
H592 H 0.79705 0.60635 0.58911 0.0
H593 H 0.84865 0.68918 0.67099 0.0
H594 H 0.90665 0.68728 0.65705 0.0
H595 H 0.85224 0.5517 0.61093 0.0
H596 H 0.85286 0.53909 0.5643 0.0
H597 H 0.81566 0.55002 0.57735 0.0
H598 H 0.82338 0.60101 0.52568 0.0
H599 H 0.85987 0.58886 0.51232 0.0
H600 H 0.86567 0.63606 0.52308 0.0
H601 H 0.95844 0.67473 0.6363 0.0
H602 H 1.00094 0.64942 0.61327 0.0
H603 H 0.91577 0.57169 0.54729 0.0
C604 C 0.8207 0.62448 0.60352 0.0
C605 C 0.81868 0.64817 0.63086 0.0
C606 C 0.8499 0.67098 0.64989 0.0
C607 C 0.88286 0.67019 0.64203 0.0
C608 C 0.88407 0.64623 0.61525 0.0
C609 C 0.85387 0.62362 0.59639 0.0
C610 C 0.86249 0.5983 0.57111 0.0
C611 C 0.84476 0.55736 0.58157 0.0
C612 C 0.85225 0.60659 0.53064 0.0
C613 C 0.9021 0.60966 0.57934 0.0
C614 C 0.91401 0.63787 0.60432 0.0
C615 C 0.94947 0.65273 0.61661 0.0
C616 C 0.97341 0.63812 0.60334 0.0
C617 C 0.96177 0.60853 0.57845 0.0
C618 C 0.92559 0.59438 0.56616 0.0
H619 H 0.37704 0.31972 0.27874 0.0
H620 H 0.4085 0.41252 0.35195 0.0
H621 H 0.43044 0.45526 0.29991 0.0
H622 H 0.4489 0.34816 0.2284 0.0
H623 H 0.42527 0.33262 0.18453 0.0
H624 H 0.40811 0.31026 0.22628 0.0
H625 H 0.34949 0.32351 0.20741 0.0
H626 H 0.36645 0.34582 0.1654 0.0
H627 H 0.35021 0.37031 0.19619 0.0
H628 H 0.45803 0.48565 0.2427 0.0
H629 H 0.48386 0.5023 0.18336 0.0
H630 H 0.42993 0.39072 0.14591 0.0
C631 C 0.38784 0.34916 0.28354 0.0
C632 C 0.39109 0.36298 0.31919 0.0
C633 C 0.40549 0.40155 0.32468 0.0
C634 C 0.41807 0.42595 0.29534 0.0
C635 C 0.41532 0.41133 0.26063 0.0
C636 C 0.39993 0.37389 0.25447 0.0
C637 C 0.4018 0.36491 0.21509 0.0
C638 C 0.42224 0.33738 0.21351 0.0
C639 C 0.36478 0.35028 0.19483 0.0
C640 C 0.42195 0.40288 0.20041 0.0
C641 C 0.42951 0.42932 0.22707 0.0
C642 C 0.45131 0.46547 0.22124 0.0
C643 C 0.46589 0.47471 0.18743 0.0
C644 C 0.45811 0.44814 0.15963 0.0
C645 C 0.43539 0.41196 0.16615 0.0
H646 H 0.47117 0.66916 0.80872 0.0
H647 H 0.37733 0.64406 0.86585 0.0
H648 H 0.40931 0.62793 0.92248 0.0
H649 H 0.49684 0.5962 0.84411 0.0
H650 H 0.54353 0.62019 0.84834 0.0
H651 H 0.51528 0.63575 0.81465 0.0
H652 H 0.53856 0.70125 0.84226 0.0
H653 H 0.56709 0.68584 0.87602 0.0
H654 H 0.53649 0.70645 0.89059 0.0
H655 H 0.44802 0.60376 0.96856 0.0
H656 H 0.49186 0.57777 1.00182 0.0
H657 H 0.5616 0.62188 0.916 0.0
C658 C 0.45796 0.66171 0.83368 0.0
C659 C 0.42219 0.65849 0.83353 0.0
C660 C 0.40504 0.64736 0.86598 0.0
C661 C 0.42296 0.63808 0.89816 0.0
C662 C 0.45809 0.64047 0.89736 0.0
C663 C 0.47561 0.65262 0.86611 0.0
C664 C 0.51233 0.64961 0.87141 0.0
C665 C 0.51725 0.62391 0.84295 0.0
C666 C 0.54027 0.68808 0.87 0.0
C667 C 0.51223 0.63256 0.90987 0.0
C668 C 0.48079 0.6276 0.92449 0.0
C669 C 0.47315 0.60848 0.95789 0.0
C670 C 0.49812 0.59375 0.97657 0.0
C671 C 0.53044 0.59855 0.96196 0.0
C672 C 0.53767 0.61887 0.92855 0.0
H673 H 0.42896 0.31176 0.81399 0.0
H674 H 0.38847 0.3893 0.74702 0.0
H675 H 0.41163 0.43527 0.79542 0.0
H676 H 0.41479 0.33798 0.90328 0.0
H677 H 0.45565 0.33449 0.92566 0.0
H678 H 0.43405 0.30607 0.88684 0.0
H679 H 0.49053 0.33136 0.85303 0.0
H680 H 0.51249 0.35978 0.89168 0.0
H681 H 0.51007 0.38064 0.84641 0.0
H682 H 0.44105 0.47436 0.84931 0.0
H683 H 0.47895 0.50553 0.90331 0.0
H684 H 0.50239 0.40469 0.93614 0.0
C685 C 0.42499 0.3384 0.80931 0.0
C686 C 0.40601 0.34622 0.77653 0.0
C687 C 0.40172 0.38173 0.77202 0.0
C688 C 0.41504 0.40831 0.7994 0.0
C689 C 0.43304 0.39948 0.83135 0.0
C690 C 0.43847 0.36559 0.83634 0.0
C691 C 0.46062 0.3642 0.8725 0.0
C692 C 0.44004 0.33387 0.89861 0.0
C693 C 0.4955 0.35867 0.86548 0.0
C694 C 0.46676 0.40259 0.88695 0.0
C695 C 0.45035 0.42231 0.86273 0.0
C696 C 0.4536 0.45903 0.86871 0.0
C697 C 0.47496 0.47644 0.8996 0.0
C698 C 0.49265 0.45721 0.92449 0.0
C699 C 0.48801 0.41956 0.91839 0.0
H700 H 0.75992 0.42614 0.81088 0.0
H701 H 0.67717 0.35827 0.73519 0.0
H702 H 0.63237 0.37108 0.76911 0.0
H703 H 0.71321 0.40093 0.8939 0.0
H704 H 0.73098 0.44701 0.91172 0.0
H705 H 0.75598 0.43051 0.88286 0.0
H706 H 0.76073 0.48713 0.83855 0.0
H707 H 0.73554 0.50362 0.86715 0.0
H708 H 0.72114 0.49591 0.81906 0.0
H709 H 0.5976 0.39532 0.80817 0.0
H710 H 0.57431 0.4263 0.85177 0.0
H711 H 0.67993 0.47745 0.90321 0.0
C712 C 0.73227 0.4135 0.80202 0.0
C713 C 0.72152 0.39097 0.77097 0.0
C714 C 0.68548 0.37528 0.75933 0.0
C715 C 0.66003 0.3825 0.77832 0.0
C716 C 0.67141 0.40536 0.80871 0.0
C717 C 0.70666 0.42042 0.82067 0.0
C718 C 0.712 0.44511 0.85324 0.0
C719 C 0.72905 0.42997 0.88746 0.0
C720 C 0.73363 0.48531 0.84392 0.0
C721 C 0.67427 0.44171 0.85773 0.0
C722 C 0.65131 0.41883 0.83162 0.0
C723 C 0.61527 0.41291 0.829 0.0
C724 C 0.60234 0.43075 0.85378 0.0
C725 C 0.62534 0.45394 0.88101 0.0
C726 C 0.66174 0.45934 0.88306 0.0
H727 H 0.68114 0.60088 0.71347 0.0
H728 H 0.78876 0.66382 0.75083 0.0
H729 H 0.77603 0.64705 0.81518 0.0
H730 H 0.64057 0.6257 0.78548 0.0
H731 H 0.60782 0.58083 0.78955 0.0
H732 H 0.62571 0.59625 0.74619 0.0
H733 H 0.64393 0.53714 0.74496 0.0
H734 H 0.62629 0.52174 0.78851 0.0
H735 H 0.67142 0.52648 0.78324 0.0
H736 H 0.75177 0.62525 0.87511 0.0
H737 H 0.71663 0.60229 0.92764 0.0
H738 H 0.62414 0.55334 0.85232 0.0
C739 C 0.70194 0.61122 0.73524 0.0
C740 C 0.73602 0.63351 0.72713 0.0
C741 C 0.76263 0.6463 0.75636 0.0
C742 C 0.75565 0.63694 0.79299 0.0
C743 C 0.72196 0.61464 0.80002 0.0
C744 C 0.69547 0.60195 0.77207 0.0
C745 C 0.66133 0.57914 0.78746 0.0
C746 C 0.63214 0.59653 0.77652 0.0
C747 C 0.65009 0.53874 0.7753 0.0
C748 C 0.67257 0.58198 0.82839 0.0
C749 C 0.70779 0.60216 0.83491 0.0
C750 C 0.72419 0.60932 0.87039 0.0
C751 C 0.70392 0.59615 0.90007 0.0
C752 C 0.66753 0.57618 0.89418 0.0
C753 C 0.65188 0.56848 0.85778 0.0
H754 H 0.7036 0.61329 0.28003 0.0
H755 H 0.7557 0.71508 0.22196 0.0
H756 H 0.7293 0.68567 0.16244 0.0
H757 H 0.7067 0.54746 0.20996 0.0
H758 H 0.66326 0.51683 0.21734 0.0
H759 H 0.69066 0.54388 0.25466 0.0
H760 H 0.64145 0.57149 0.26408 0.0
H761 H 0.61402 0.54461 0.22684 0.0
H762 H 0.62404 0.59418 0.22578 0.0
H763 H 0.69273 0.6469 0.10971 0.0
H764 H 0.64683 0.6034 0.06877 0.0
H765 H 0.61706 0.52786 0.16181 0.0
C766 C 0.71023 0.62887 0.25464 0.0
C767 C 0.73212 0.66612 0.25529 0.0
C768 C 0.73931 0.6863 0.22177 0.0
C769 C 0.7245 0.66981 0.18793 0.0
C770 C 0.70236 0.63318 0.18814 0.0
C771 C 0.69521 0.61296 0.22066 0.0
C772 C 0.66766 0.57554 0.21367 0.0
C773 C 0.683 0.54407 0.22455 0.0
C774 C 0.63486 0.57123 0.23377 0.0
C775 C 0.65983 0.5782 0.17234 0.0
C776 C 0.6805 0.61135 0.15797 0.0
C777 C 0.67666 0.62068 0.12062 0.0
C778 C 0.65055 0.59578 0.09754 0.0
C779 C 0.6283 0.56224 0.11203 0.0
C780 C 0.63367 0.55321 0.1498 0.0
H781 H 0.37603 0.59502 0.25401 0.0
H782 H 0.46205 0.69055 0.29343 0.0
H783 H 0.49867 0.68048 0.24722 0.0
H784 H 0.42761 0.53903 0.24034 0.0
H785 H 0.40192 0.5176 0.19936 0.0
H786 H 0.38148 0.5342 0.23299 0.0
H787 H 0.36035 0.57497 0.18287 0.0
H788 H 0.38061 0.55837 0.14896 0.0
H789 H 0.39194 0.60739 0.15569 0.0
H790 H 0.52742 0.65616 0.20172 0.0
H791 H 0.54644 0.62054 0.15872 0.0
H792 H 0.44105 0.5418 0.14629 0.0
C793 C 0.40237 0.61417 0.25226 0.0
C794 C 0.41638 0.6438 0.27671 0.0
C795 C 0.451 0.66799 0.2745 0.0
C796 C 0.47185 0.66243 0.24839 0.0
C797 C 0.45747 0.63266 0.22477 0.0
C798 C 0.42344 0.60902 0.22629 0.0
C799 C 0.415 0.57799 0.19912 0.0
C800 C 0.40598 0.53997 0.21915 0.0
C801 C 0.3852 0.57981 0.16993 0.0
C802 C 0.44976 0.5875 0.18244 0.0
C803 C 0.47386 0.61915 0.19771 0.0
C804 C 0.50861 0.63181 0.18907 0.0
C805 C 0.51916 0.6114 0.16466 0.0
C806 C 0.49502 0.57892 0.14872 0.0
C807 C 0.4597 0.56718 0.15723 0.0
H808 H 0.65572 0.3225 0.21578 0.0
H809 H 0.75199 0.36819 0.16259 0.0
H810 H 0.72273 0.4029 0.11804 0.0
H811 H 0.59668 0.30951 0.13449 0.0
H812 H 0.56347 0.32225 0.1546 0.0
H813 H 0.59237 0.3025 0.18317 0.0
H814 H 0.61173 0.35929 0.22537 0.0
H815 H 0.58243 0.37888 0.19726 0.0
H816 H 0.62843 0.40516 0.20536 0.0
H817 H 0.68179 0.43102 0.07813 0.0
H818 H 0.63429 0.45368 0.04887 0.0
H819 H 0.56459 0.38871 0.1282 0.0
C820 C 0.67069 0.34036 0.19508 0.0
C821 C 0.70611 0.34328 0.19265 0.0
C822 C 0.7249 0.36618 0.16498 0.0
C823 C 0.70843 0.38575 0.13952 0.0
C824 C 0.67316 0.38191 0.14217 0.0
C825 C 0.65462 0.36003 0.1695 0.0
C826 C 0.61697 0.36036 0.16623 0.0
C827 C 0.59084 0.32133 0.1592 0.0
C828 C 0.60946 0.37692 0.20059 0.0
C829 C 0.61711 0.38566 0.13272 0.0
C830 C 0.64971 0.39776 0.11916 0.0
C831 C 0.65618 0.42171 0.08857 0.0
C832 C 0.62891 0.43428 0.07198 0.0
C833 C 0.59547 0.42294 0.08597 0.0
C834 C 0.58961 0.39779 0.11646 0.0
loop_
_geom_bond_atom_site_label_1
_geom_bond_atom_site_label_2
_geom_bond_distance
_geom_bond_site_symmetry_2
_ccdc_geom_bond_type
H0 C3 0.929 . S
H1 C6 0.929 . S
H2 C8 0.930 . S
C3 H0 0.929 . S
C3 C4 1.398 . S
C3 C5 1.396 . S
C4 C3 1.398 . S
C4 C8 1.407 . S
C5 C3 1.396 . S
C5 C6 1.394 . S
C6 H1 0.929 . S
C6 C5 1.394 . S
C6 C7 1.382 . S
C7 C6 1.382 . S
C7 C8 1.392 . S
C7 N9 1.420 . S
C8 H2 0.930 . S
C8 C4 1.407 . S
C8 C7 1.392 . S
N9 C7 1.420 . S
N9 C10 1.244 . S
C10 N9 1.244 . S
H11 C14 0.929 . S
H12 C17 0.929 . S
H13 C19 0.930 . S
C14 H11 0.929 . S
C14 C15 1.398 . S
C14 C16 1.396 . S
C15 C14 1.398 . S
C15 C19 1.407 . S
C16 C14 1.396 . S
C16 C17 1.394 . S
C17 H12 0.929 . S
C17 C16 1.394 . S
C17 C18 1.382 . S
C18 C17 1.382 . S
C18 C19 1.392 . S
C18 N20 1.420 . S
C19 H13 0.930 . S
C19 C15 1.407 . S
C19 C18 1.392 . S
N20 C18 1.420 . S
N20 C21 1.244 . S
C21 N20 1.244 . S
H22 C25 0.929 . S
H23 C28 0.929 . S
H24 C30 0.930 . S
C25 H22 0.929 . S
C25 C26 1.398 . S
C25 C27 1.396 . S
C26 C25 1.398 . S
C26 C30 1.407 . S
C27 C25 1.396 . S
C27 C28 1.394 . S
C28 H23 0.929 . S
C28 C27 1.394 . S
C28 C29 1.382 . S
C29 C28 1.382 . S
C29 C30 1.392 . S
C29 N31 1.420 . S
C30 H24 0.930 . S
C30 C26 1.407 . S
C30 C29 1.392 . S
N31 C29 1.420 . S
N31 C32 1.244 . S
C32 N31 1.244 . S
H33 C36 0.929 . S
H34 C39 0.929 . S
H35 C41 0.930 . S
C36 H33 0.929 . S
C36 C37 1.398 . S
C36 C38 1.396 . S
C37 C36 1.398 . S
C37 C41 1.407 . S
C38 C36 1.396 . S
C38 C39 1.394 . S
C39 H34 0.929 . S
C39 C38 1.394 . S
C39 C40 1.382 . S
C40 C39 1.382 . S
C40 C41 1.392 . S
C40 N42 1.420 . S
C41 H35 0.930 . S
C41 C37 1.407 . S
C41 C40 1.392 . S
N42 C40 1.420 . S
N42 C43 1.244 . S
C43 N42 1.244 . S
H44 C47 0.929 . S
H45 C50 0.929 . S
H46 C52 0.930 . S
C47 H44 0.929 . S
C47 C48 1.398 . S
C47 C49 1.396 . S
C48 C47 1.398 . S
C48 C52 1.407 . S
C49 C47 1.396 . S
C49 C50 1.394 . S
C50 H45 0.929 . S
C50 C49 1.394 . S
C50 C51 1.382 . S
C51 C50 1.382 . S
C51 C52 1.392 . S
C51 N53 1.420 . S
C52 H46 0.930 . S
C52 C48 1.407 . S
C52 C51 1.392 . S
N53 C51 1.420 . S
N53 C54 1.244 . S
C54 N53 1.244 . S
H55 C58 0.929 . S
H56 C61 0.929 . S
H57 C63 0.930 . S
C58 H55 0.929 . S
C58 C59 1.398 . S
C58 C60 1.396 . S
C59 C58 1.398 . S
C59 C63 1.407 . S
C60 C58 1.396 . S
C60 C61 1.394 . S
C61 H56 0.929 . S
C61 C60 1.394 . S
C61 C62 1.382 . S
C62 C61 1.382 . S
C62 C63 1.392 . S
C62 N64 1.420 . S
C63 H57 0.930 . S
C63 C59 1.407 . S
C63 C62 1.392 . S
N64 C62 1.420 . S
N64 C65 1.244 . S
C65 N64 1.244 . S
H66 C69 0.929 . S
H67 C72 0.929 . S
H68 C74 0.930 . S
C69 H66 0.929 . S
C69 C70 1.398 . S
C69 C71 1.396 . S
C70 C69 1.398 . S
C70 C74 1.407 . S
C71 C69 1.396 . S
C71 C72 1.394 . S
C72 H67 0.929 . S
C72 C71 1.394 . S
C72 C73 1.382 . S
C73 C72 1.382 . S
C73 C74 1.392 . S
C73 N75 1.420 . S
C74 H68 0.930 . S
C74 C70 1.407 . S
C74 C73 1.392 . S
N75 C73 1.420 . S
N75 C76 1.244 . S
C76 N75 1.244 . S
H77 C80 0.929 . S
H78 C83 0.929 . S
H79 C85 0.930 . S
C80 H77 0.929 . S
C80 C81 1.398 . S
C80 C82 1.396 . S
C81 C80 1.398 . S
C81 C85 1.407 . S
C82 C80 1.396 . S
C82 C83 1.394 . S
C83 H78 0.929 . S
C83 C82 1.394 . S
C83 C84 1.382 . S
C84 C83 1.382 . S
C84 C85 1.392 . S
C84 N86 1.420 . S
C85 H79 0.930 . S
C85 C81 1.407 . S
C85 C84 1.392 . S
N86 C84 1.420 . S
N86 C87 1.244 . S
C87 N86 1.244 . S
Co88 O91 2.042 . S
Co88 O98 2.264 . S
Co88 O117 2.286 . S
Co88 O118 2.069 . S
Co88 O120 2.015 . S
Co89 O91 2.122 . S
Co89 O97 2.073 . S
Co89 O98 2.327 . S
Co89 O99 1.976 . S
Co90 O91 2.087 . S
Co90 O93 2.087 . S
Co90 O100 2.111 . S
Co90 O101 2.143 1_455 S
Co90 O105 2.120 . S
Co90 O119 2.143 . S
O91 Co88 2.042 . S
O91 Co89 2.122 . S
O91 Co90 2.087 . S
O91 H92 0.980 . S
H92 O91 0.980 . S
O93 Co90 2.087 . S
O93 Co94 2.042 1_455 S
O93 Co95 2.122 1_455 S
O93 H96 0.980 . S
Co94 O93 2.042 1_655 S
Co94 O102 2.286 . S
Co94 O103 2.069 . S
Co94 O104 2.015 . S
Co94 O107 2.264 . S
Co95 O93 2.122 1_655 S
Co95 O106 1.976 . S
Co95 O107 2.327 . S
Co95 O108 2.073 . S
H96 O93 0.980 . S
O97 Co89 2.073 . S
O97 C112 1.245 . S
O98 Co88 2.264 . S
O98 Co89 2.327 . S
O98 C112 1.257 . S
O99 Co89 1.976 . S
O99 C111 1.251 . S
O100 Co90 2.111 . S
O100 C111 1.274 . S
O101 Co90 2.143 1_655 S
O101 C114 1.246 . S
O102 Co94 2.286 . S
O102 C113 1.259 . S
O103 Co94 2.069 . S
O103 C113 1.289 . S
O104 Co94 2.015 . S
O104 C114 1.257 . S
O105 Co90 2.120 . S
O105 C115 1.253 1_455 S
O106 Co95 1.976 . S
O106 C115 1.251 . S
O107 Co94 2.264 . S
O107 Co95 2.327 . S
O107 C116 1.257 . S
O108 Co95 2.073 . S
O108 C116 1.245 . S
C109 O117 1.259 . S
C109 O118 1.289 . S
C110 O119 1.246 . S
C110 O120 1.257 . S
C111 O99 1.251 . S
C111 O100 1.274 . S
C112 O97 1.245 . S
C112 O98 1.257 . S
C113 O102 1.259 . S
C113 O103 1.289 . S
C114 O101 1.246 . S
C114 O104 1.257 . S
C115 O105 1.253 1_655 S
C115 O106 1.251 . S
C116 O107 1.257 . S
C116 O108 1.245 . S
O117 Co88 2.286 . S
O117 C109 1.259 . S
O118 Co88 2.069 . S
O118 C109 1.289 . S
O119 Co90 2.143 . S
O119 C110 1.246 . S
O120 Co88 2.015 . S
O120 C110 1.257 . S
Co121 O124 2.042 . S
Co121 O131 2.264 . S
Co121 O150 2.286 . S
Co121 O151 2.069 . S
Co121 O153 2.015 . S
Co122 O124 2.122 . S
Co122 O130 2.073 . S
Co122 O131 2.327 . S
Co122 O132 1.976 . S
Co123 O124 2.087 1_545 S
Co123 O126 2.087 . S
Co123 O133 2.111 1_545 S
Co123 O134 2.143 . S
Co123 O138 2.111 . S
Co123 O152 2.143 1_545 S
O124 Co121 2.042 . S
O124 Co122 2.122 . S
O124 Co123 2.087 1_565 S
O124 H125 0.980 1_565 S
H125 O124 0.980 1_545 S
O126 Co123 2.087 . S
O126 Co127 2.042 . S
O126 Co128 2.122 . S
O126 H129 0.980 . S
Co127 O126 2.042 . S
Co127 O135 2.286 . S
Co127 O136 2.069 . S
Co127 O137 2.015 . S
Co127 O140 2.264 . S
Co128 O126 2.122 . S
Co128 O139 1.976 . S
Co128 O140 2.327 . S
Co128 O141 2.073 . S
H129 O126 0.980 . S
O130 Co122 2.073 . S
O130 C145 1.245 . S
O131 Co121 2.264 . S
O131 Co122 2.327 . S
O131 C145 1.257 . S
O132 Co122 1.976 . S
O132 C144 1.251 . S
O133 Co123 2.111 1_565 S
O133 C144 1.274 . S
O134 Co123 2.143 . S
O134 C147 1.246 . S
O135 Co127 2.286 . S
O135 C146 1.259 . S
O136 Co127 2.069 . S
O136 C146 1.289 . S
O137 Co127 2.015 . S
O137 C147 1.257 . S
O138 Co123 2.111 . S
O138 C148 1.274 . S
O139 Co128 1.976 . S
O139 C148 1.251 . S
O140 Co127 2.264 . S
O140 Co128 2.327 . S
O140 C149 1.257 . S
O141 Co128 2.073 . S
O141 C149 1.245 . S
C142 O150 1.259 . S
C142 O151 1.289 . S
C143 O152 1.246 . S
C143 O153 1.257 . S
C144 O132 1.251 . S
C144 O133 1.274 . S
C145 O130 1.245 . S
C145 O131 1.257 . S
C146 O135 1.259 . S
C146 O136 1.289 . S
C147 O134 1.246 . S
C147 O137 1.257 . S
C148 O138 1.274 . S
C148 O139 1.251 . S
C149 O140 1.257 . S
C149 O141 1.245 . S
O150 Co121 2.286 . S
O150 C142 1.259 . S
O151 Co121 2.069 . S
O151 C142 1.289 . S
O152 Co123 2.143 1_565 S
O152 C143 1.246 . S
O153 Co121 2.015 . S
O153 C143 1.257 . S
Co154 O157 2.042 . S
Co154 O164 2.264 . S
Co154 O183 2.286 . S
Co154 O184 2.069 . S
Co154 O186 2.015 . S
Co155 O157 2.122 . S
Co155 O163 2.073 . S
Co155 O164 2.327 . S
Co155 O165 1.976 . S
Co156 O157 2.087 . S
Co156 O159 2.087 1_554 S
Co156 O166 2.111 . S
Co156 O167 2.143 1_554 S
Co156 O171 2.111 1_554 S
Co156 O185 2.143 . S
O157 Co154 2.042 . S
O157 Co155 2.122 . S
O157 Co156 2.087 . S
O157 H158 0.980 . S
H158 O157 0.980 . S
O159 Co156 2.087 1_556 S
O159 Co160 2.042 . S
O159 Co161 2.122 . S
O159 H162 0.980 . S
Co160 O159 2.042 . S
Co160 O168 2.286 . S
Co160 O169 2.069 . S
Co160 O170 2.015 . S
Co160 O173 2.264 . S
Co161 O159 2.122 . S
Co161 O172 1.976 . S
Co161 O173 2.327 . S
Co161 O174 2.073 . S
H162 O159 0.980 . S
O163 Co155 2.073 . S
O163 C178 1.245 . S
O164 Co154 2.264 . S
O164 Co155 2.327 . S
O164 C178 1.257 . S
O165 Co155 1.976 . S
O165 C177 1.251 . S
O166 Co156 2.111 . S
O166 C177 1.274 . S
O167 Co156 2.143 1_556 S
O167 C180 1.246 . S
O168 Co160 2.286 . S
O168 C179 1.259 . S
O169 Co160 2.069 . S
O169 C179 1.289 . S
O170 Co160 2.015 . S
O170 C180 1.257 . S
O171 Co156 2.111 1_556 S
O171 C181 1.274 . S
O172 Co161 1.976 . S
O172 C181 1.251 . S
O173 Co160 2.264 . S
O173 Co161 2.327 . S
O173 C182 1.257 . S
O174 Co161 2.073 . S
O174 C182 1.245 . S
C175 O183 1.259 . S
C175 O184 1.289 . S
C176 O185 1.246 . S
C176 O186 1.257 . S
C177 O165 1.251 . S
C177 O166 1.274 . S
C178 O163 1.245 . S
C178 O164 1.257 . S
C179 O168 1.259 . S
C179 O169 1.289 . S
C180 O167 1.246 . S
C180 O170 1.257 . S
C181 O171 1.274 . S
C181 O172 1.251 . S
C182 O173 1.257 . S
C182 O174 1.245 . S
O183 Co154 2.286 . S
O183 C175 1.259 . S
O184 Co154 2.069 . S
O184 C175 1.289 . S
O185 Co156 2.143 . S
O185 C176 1.246 . S
O186 Co154 2.015 . S
O186 C176 1.257 . S
H187 C199 0.930 . S
H188 C201 0.930 . S
H189 C202 0.930 . S
H190 C206 0.959 . S
H191 C206 0.959 . S
H192 C206 0.961 . S
H193 C207 0.960 . S
H194 C207 0.961 . S
H195 C207 0.959 . S
H196 C210 0.929 . S
H197 C211 0.931 . S
H198 C213 0.930 . S
C199 H187 0.930 . S
C199 C200 1.399 . S
C199 C204 1.399 . S
C200 C199 1.399 . S
C200 C201 1.376 . S
C201 H188 0.930 . S
C201 C200 1.376 . S
C201 C202 1.388 . S
C202 H189 0.930 . S
C202 C201 1.388 . S
C202 C203 1.390 . S
C203 C202 1.390 . S
C203 C204 1.394 . S
C203 C209 1.465 . S
C204 C199 1.399 . S
C204 C203 1.394 . S
C204 C205 1.516 . S
C205 C204 1.516 . S
C205 C206 1.502 . S
C205 C207 1.561 . S
C205 C208 1.526 . S
C206 H190 0.959 . S
C206 H191 0.959 . S
C206 H192 0.961 . S
C206 C205 1.502 . S
C207 H193 0.960 . S
C207 H194 0.961 . S
C207 H195 0.959 . S
C207 C205 1.561 . S
C208 C205 1.526 . S
C208 C209 1.396 . S
C208 C213 1.390 . S
C209 C203 1.465 . S
C209 C208 1.396 . S
C209 C210 1.399 . S
C210 H196 0.929 . S
C210 C209 1.399 . S
C210 C211 1.385 . S
C211 H197 0.931 . S
C211 C210 1.385 . S
C211 C212 1.389 . S
C212 C211 1.389 . S
C212 C213 1.387 . S
C213 H198 0.930 . S
C213 C208 1.390 . S
C213 C212 1.387 . S
H214 C226 0.930 . S
H215 C228 0.930 . S
H216 C229 0.930 . S
H217 C233 0.959 . S
H218 C233 0.959 . S
H219 C233 0.961 . S
H220 C234 0.960 . S
H221 C234 0.961 . S
H222 C234 0.959 . S
H223 C237 0.929 . S
H224 C238 0.931 . S
H225 C240 0.930 . S
C226 H214 0.930 . S
C226 C227 1.399 . S
C226 C231 1.399 . S
C227 C226 1.399 . S
C227 C228 1.376 . S
C228 H215 0.930 . S
C228 C227 1.376 . S
C228 C229 1.388 . S
C229 H216 0.930 . S
C229 C228 1.388 . S
C229 C230 1.390 . S
C230 C229 1.390 . S
C230 C231 1.394 . S
C230 C236 1.465 . S
C231 C226 1.399 . S
C231 C230 1.394 . S
C231 C232 1.516 . S
C232 C231 1.516 . S
C232 C233 1.502 . S
C232 C234 1.561 . S
C232 C235 1.526 . S
C233 H217 0.959 . S
C233 H218 0.959 . S
C233 H219 0.961 . S
C233 C232 1.502 . S
C234 H220 0.960 . S
C234 H221 0.961 . S
C234 H222 0.959 . S
C234 C232 1.561 . S
C235 C232 1.526 . S
C235 C236 1.396 . S
C235 C240 1.390 . S
C236 C230 1.465 . S
C236 C235 1.396 . S
C236 C237 1.399 . S
C237 H223 0.929 . S
C237 C236 1.399 . S
C237 C238 1.385 . S
C238 H224 0.931 . S
C238 C237 1.385 . S
C238 C239 1.389 . S
C239 C238 1.389 . S
C239 C240 1.387 . S
C240 H225 0.930 . S
C240 C235 1.390 . S
C240 C239 1.387 . S
H241 C253 0.930 . S
H242 C255 0.930 . S
H243 C256 0.930 . S
H244 C260 0.959 . S
H245 C260 0.959 . S
H246 C260 0.961 . S
H247 C261 0.960 . S
H248 C261 0.961 . S
H249 C261 0.959 . S
H250 C264 0.929 . S
H251 C265 0.931 . S
H252 C267 0.930 . S
C253 H241 0.930 . S
C253 C254 1.399 . S
C253 C258 1.399 . S
C254 C253 1.399 . S
C254 C255 1.376 . S
C255 H242 0.930 . S
C255 C254 1.376 . S
C255 C256 1.388 . S
C256 H243 0.930 . S
C256 C255 1.388 . S
C256 C257 1.390 . S
C257 C256 1.390 . S
C257 C258 1.394 . S
C257 C263 1.465 . S
C258 C253 1.399 . S
C258 C257 1.394 . S
C258 C259 1.516 . S
C259 C258 1.516 . S
C259 C260 1.502 . S
C259 C261 1.561 . S
C259 C262 1.526 . S
C260 H244 0.959 . S
C260 H245 0.959 . S
C260 H246 0.961 . S
C260 C259 1.502 . S
C261 H247 0.960 . S
C261 H248 0.961 . S
C261 H249 0.959 . S
C261 C259 1.561 . S
C262 C259 1.526 . S
C262 C263 1.396 . S
C262 C267 1.390 . S
C263 C257 1.465 . S
C263 C262 1.396 . S
C263 C264 1.399 . S
C264 H250 0.929 . S
C264 C263 1.399 . S
C264 C265 1.385 . S
C265 H251 0.931 . S
C265 C264 1.385 . S
C265 C266 1.389 . S
C266 C265 1.389 . S
C266 C267 1.387 . S
C267 H252 0.930 . S
C267 C262 1.390 . S
C267 C266 1.387 . S
H268 C280 0.930 . S
H269 C282 0.930 . S
H270 C283 0.930 . S
H271 C287 0.959 . S
H272 C287 0.959 . S
H273 C287 0.961 . S
H274 C288 0.960 . S
H275 C288 0.961 . S
H276 C288 0.959 . S
H277 C291 0.929 . S
H278 C292 0.931 . S
H279 C294 0.930 . S
C280 H268 0.930 . S
C280 C281 1.399 . S
C280 C285 1.399 . S
C281 C280 1.399 . S
C281 C282 1.376 . S
C282 H269 0.930 . S
C282 C281 1.376 . S
C282 C283 1.388 . S
C283 H270 0.930 . S
C283 C282 1.388 . S
C283 C284 1.390 . S
C284 C283 1.390 . S
C284 C285 1.394 . S
C284 C290 1.465 . S
C285 C280 1.399 . S
C285 C284 1.394 . S
C285 C286 1.516 . S
C286 C285 1.516 . S
C286 C287 1.502 . S
C286 C288 1.561 . S
C286 C289 1.526 . S
C287 H271 0.959 . S
C287 H272 0.959 . S
C287 H273 0.961 . S
C287 C286 1.502 . S
C288 H274 0.960 . S
C288 H275 0.961 . S
C288 H276 0.959 . S
C288 C286 1.561 . S
C289 C286 1.526 . S
C289 C290 1.396 . S
C289 C294 1.390 . S
C290 C284 1.465 . S
C290 C289 1.396 . S
C290 C291 1.399 . S
C291 H277 0.929 . S
C291 C290 1.399 . S
C291 C292 1.385 . S
C292 H278 0.931 . S
C292 C291 1.385 . S
C292 C293 1.389 . S
C293 C292 1.389 . S
C293 C294 1.387 . S
C294 H279 0.930 . S
C294 C289 1.390 . S
C294 C293 1.387 . S
H295 C307 0.930 . S
H296 C309 0.930 . S
H297 C310 0.930 . S
H298 C314 0.959 . S
H299 C314 0.959 . S
H300 C314 0.961 . S
H301 C315 0.960 . S
H302 C315 0.961 . S
H303 C315 0.959 . S
H304 C318 0.929 . S
H305 C319 0.931 . S
H306 C321 0.930 . S
C307 H295 0.930 . S
C307 C308 1.399 . S
C307 C312 1.399 . S
C308 C307 1.399 . S
C308 C309 1.376 . S
C309 H296 0.930 . S
C309 C308 1.376 . S
C309 C310 1.388 . S
C310 H297 0.930 . S
C310 C309 1.388 . S
C310 C311 1.390 . S
C311 C310 1.390 . S
C311 C312 1.394 . S
C311 C317 1.465 . S
C312 C307 1.399 . S
C312 C311 1.394 . S
C312 C313 1.516 . S
C313 C312 1.516 . S
C313 C314 1.502 . S
C313 C315 1.561 . S
C313 C316 1.526 . S
C314 H298 0.959 . S
C314 H299 0.959 . S
C314 H300 0.961 . S
C314 C313 1.502 . S
C315 H301 0.960 . S
C315 H302 0.961 . S
C315 H303 0.959 . S
C315 C313 1.561 . S
C316 C313 1.526 . S
C316 C317 1.396 . S
C316 C321 1.390 . S
C317 C311 1.465 . S
C317 C316 1.396 . S
C317 C318 1.399 . S
C318 H304 0.929 . S
C318 C317 1.399 . S
C318 C319 1.385 . S
C319 H305 0.931 . S
C319 C318 1.385 . S
C319 C320 1.389 . S
C320 C319 1.389 . S
C320 C321 1.387 . S
C321 H306 0.930 . S
C321 C316 1.390 . S
C321 C320 1.387 . S
H322 C334 0.930 . S
H323 C336 0.930 . S
H324 C337 0.930 . S
H325 C341 0.959 . S
H326 C341 0.959 . S
H327 C341 0.961 . S
H328 C342 0.960 . S
H329 C342 0.961 . S
H330 C342 0.959 . S
H331 C345 0.929 . S
H332 C346 0.931 . S
H333 C348 0.930 . S
C334 H322 0.930 . S
C334 C335 1.399 . S
C334 C339 1.399 . S
C335 C334 1.399 . S
C335 C336 1.376 . S
C336 H323 0.930 . S
C336 C335 1.376 . S
C336 C337 1.388 . S
C337 H324 0.930 . S
C337 C336 1.388 . S
C337 C338 1.390 . S
C338 C337 1.390 . S
C338 C339 1.394 . S
C338 C344 1.465 . S
C339 C334 1.399 . S
C339 C338 1.394 . S
C339 C340 1.516 . S
C340 C339 1.516 . S
C340 C341 1.502 . S
C340 C342 1.561 . S
C340 C343 1.526 . S
C341 H325 0.959 . S
C341 H326 0.959 . S
C341 H327 0.961 . S
C341 C340 1.502 . S
C342 H328 0.960 . S
C342 H329 0.961 . S
C342 H330 0.959 . S
C342 C340 1.561 . S
C343 C340 1.526 . S
C343 C344 1.396 . S
C343 C348 1.390 . S
C344 C338 1.465 . S
C344 C343 1.396 . S
C344 C345 1.399 . S
C345 H331 0.929 . S
C345 C344 1.399 . S
C345 C346 1.385 . S
C346 H332 0.931 . S
C346 C345 1.385 . S
C346 C347 1.389 . S
C347 C346 1.389 . S
C347 C348 1.387 . S
C348 H333 0.930 . S
C348 C343 1.390 . S
C348 C347 1.387 . S
H349 C361 0.930 . S
H350 C363 0.930 . S
H351 C364 0.930 . S
H352 C368 0.959 . S
H353 C368 0.959 . S
H354 C368 0.961 . S
H355 C369 0.960 . S
H356 C369 0.961 . S
H357 C369 0.959 . S
H358 C372 0.929 . S
H359 C373 0.931 . S
H360 C375 0.930 . S
C361 H349 0.930 . S
C361 C362 1.399 . S
C361 C366 1.399 . S
C362 C361 1.399 . S
C362 C363 1.376 . S
C363 H350 0.930 . S
C363 C362 1.376 . S
C363 C364 1.388 . S
C364 H351 0.930 . S
C364 C363 1.388 . S
C364 C365 1.390 . S
C365 C364 1.390 . S
C365 C366 1.394 . S
C365 C371 1.465 . S
C366 C361 1.399 . S
C366 C365 1.394 . S
C366 C367 1.516 . S
C367 C366 1.516 . S
C367 C368 1.502 . S
C367 C369 1.561 . S
C367 C370 1.526 . S
C368 H352 0.959 . S
C368 H353 0.959 . S
C368 H354 0.961 . S
C368 C367 1.502 . S
C369 H355 0.960 . S
C369 H356 0.961 . S
C369 H357 0.959 . S
C369 C367 1.561 . S
C370 C367 1.526 . S
C370 C371 1.396 . S
C370 C375 1.390 . S
C371 C365 1.465 . S
C371 C370 1.396 . S
C371 C372 1.399 . S
C372 H358 0.929 . S
C372 C371 1.399 . S
C372 C373 1.385 . S
C373 H359 0.931 . S
C373 C372 1.385 . S
C373 C374 1.389 . S
C374 C373 1.389 . S
C374 C375 1.387 . S
C375 H360 0.930 . S
C375 C370 1.390 . S
C375 C374 1.387 . S
H376 C388 0.930 . S
H377 C390 0.930 . S
H378 C391 0.930 . S
H379 C395 0.959 . S
H380 C395 0.959 . S
H381 C395 0.961 . S
H382 C396 0.960 . S
H383 C396 0.961 . S
H384 C396 0.959 . S
H385 C399 0.929 . S
H386 C400 0.931 . S
H387 C402 0.930 . S
C388 H376 0.930 . S
C388 C389 1.399 . S
C388 C393 1.399 . S
C389 C388 1.399 . S
C389 C390 1.376 . S
C390 H377 0.930 . S
C390 C389 1.376 . S
C390 C391 1.388 . S
C391 H378 0.930 . S
C391 C390 1.388 . S
C391 C392 1.390 . S
C392 C391 1.390 . S
C392 C393 1.394 . S
C392 C398 1.465 . S
C393 C388 1.399 . S
C393 C392 1.394 . S
C393 C394 1.516 . S
C394 C393 1.516 . S
C394 C395 1.502 . S
C394 C396 1.561 . S
C394 C397 1.526 . S
C395 H379 0.959 . S
C395 H380 0.959 . S
C395 H381 0.961 . S
C395 C394 1.502 . S
C396 H382 0.960 . S
C396 H383 0.961 . S
C396 H384 0.959 . S
C396 C394 1.561 . S
C397 C394 1.526 . S
C397 C398 1.396 . S
C397 C402 1.390 . S
C398 C392 1.465 . S
C398 C397 1.396 . S
C398 C399 1.399 . S
C399 H385 0.929 . S
C399 C398 1.399 . S
C399 C400 1.385 . S
C400 H386 0.931 . S
C400 C399 1.385 . S
C400 C401 1.389 . S
C401 C400 1.389 . S
C401 C402 1.387 . S
C402 H387 0.930 . S
C402 C397 1.390 . S
C402 C401 1.387 . S
H403 C415 0.930 . S
H404 C417 0.930 . S
H405 C418 0.930 . S
H406 C422 0.959 . S
H407 C422 0.959 . S
H408 C422 0.961 . S
H409 C423 0.960 . S
H410 C423 0.961 . S
H411 C423 0.959 . S
H412 C426 0.929 . S
H413 C427 0.931 . S
H414 C429 0.930 . S
C415 H403 0.930 . S
C415 C416 1.399 . S
C415 C420 1.399 . S
C416 C415 1.399 . S
C416 C417 1.376 . S
C417 H404 0.930 . S
C417 C416 1.376 . S
C417 C418 1.388 . S
C418 H405 0.930 . S
C418 C417 1.388 . S
C418 C419 1.390 . S
C419 C418 1.390 . S
C419 C420 1.394 . S
C419 C425 1.465 . S
C420 C415 1.399 . S
C420 C419 1.394 . S
C420 C421 1.516 . S
C421 C420 1.516 . S
C421 C422 1.502 . S
C421 C423 1.561 . S
C421 C424 1.526 . S
C422 H406 0.959 . S
C422 H407 0.959 . S
C422 H408 0.961 . S
C422 C421 1.502 . S
C423 H409 0.960 . S
C423 H410 0.961 . S
C423 H411 0.959 . S
C423 C421 1.561 . S
C424 C421 1.526 . S
C424 C425 1.396 . S
C424 C429 1.390 . S
C425 C419 1.465 . S
C425 C424 1.396 . S
C425 C426 1.399 . S
C426 H412 0.929 . S
C426 C425 1.399 . S
C426 C427 1.385 . S
C427 H413 0.931 . S
C427 C426 1.385 . S
C427 C428 1.389 . S
C428 C427 1.389 . S
C428 C429 1.387 . S
C429 H414 0.930 . S
C429 C424 1.390 . S
C429 C428 1.387 . S
H430 C442 0.930 . S
H431 C444 0.930 . S
H432 C445 0.930 . S
H433 C449 0.959 . S
H434 C449 0.959 . S
H435 C449 0.961 . S
H436 C450 0.960 . S
H437 C450 0.961 . S
H438 C450 0.959 . S
H439 C453 0.929 . S
H440 C454 0.931 . S
H441 C456 0.930 . S
C442 H430 0.930 . S
C442 C443 1.399 . S
C442 C447 1.399 . S
C443 C442 1.399 . S
C443 C444 1.376 . S
C444 H431 0.930 . S
C444 C443 1.376 . S
C444 C445 1.388 . S
C445 H432 0.930 . S
C445 C444 1.388 . S
C445 C446 1.390 . S
C446 C445 1.390 . S
C446 C447 1.394 . S
C446 C452 1.465 . S
C447 C442 1.399 . S
C447 C446 1.394 . S
C447 C448 1.516 . S
C448 C447 1.516 . S
C448 C449 1.502 . S
C448 C450 1.561 . S
C448 C451 1.526 . S
C449 H433 0.959 . S
C449 H434 0.959 . S
C449 H435 0.961 . S
C449 C448 1.502 . S
C450 H436 0.960 . S
C450 H437 0.961 . S
C450 H438 0.959 . S
C450 C448 1.561 . S
C451 C448 1.526 . S
C451 C452 1.396 . S
C451 C456 1.390 . S
C452 C446 1.465 . S
C452 C451 1.396 . S
C452 C453 1.399 . S
C453 H439 0.929 . S
C453 C452 1.399 . S
C453 C454 1.385 . S
C454 H440 0.931 . S
C454 C453 1.385 . S
C454 C455 1.389 . S
C455 C454 1.389 . S
C455 C456 1.387 . S
C456 H441 0.930 . S
C456 C451 1.390 . S
C456 C455 1.387 . S
H457 C469 0.930 . S
H458 C471 0.930 . S
H459 C472 0.930 . S
H460 C476 0.959 . S
H461 C476 0.959 . S
H462 C476 0.961 . S
H463 C477 0.960 . S
H464 C477 0.961 . S
H465 C477 0.959 . S
H466 C480 0.929 . S
H467 C481 0.931 . S
H468 C483 0.930 . S
C469 H457 0.930 . S
C469 C470 1.399 . S
C469 C474 1.399 . S
C470 C469 1.399 . S
C470 C471 1.376 . S
C471 H458 0.930 . S
C471 C470 1.376 . S
C471 C472 1.388 . S
C472 H459 0.930 . S
C472 C471 1.388 . S
C472 C473 1.390 . S
C473 C472 1.390 . S
C473 C474 1.394 . S
C473 C479 1.465 . S
C474 C469 1.399 . S
C474 C473 1.394 . S
C474 C475 1.516 . S
C475 C474 1.516 . S
C475 C476 1.502 . S
C475 C477 1.561 . S
C475 C478 1.526 . S
C476 H460 0.959 . S
C476 H461 0.959 . S
C476 H462 0.961 . S
C476 C475 1.502 . S
C477 H463 0.960 . S
C477 H464 0.961 . S
C477 H465 0.959 . S
C477 C475 1.561 . S
C478 C475 1.526 . S
C478 C479 1.396 . S
C478 C483 1.390 . S
C479 C473 1.465 . S
C479 C478 1.396 . S
C479 C480 1.399 . S
C480 H466 0.929 . S
C480 C479 1.399 . S
C480 C481 1.385 . S
C481 H467 0.931 . S
C481 C480 1.385 . S
C481 C482 1.389 . S
C482 C481 1.389 . S
C482 C483 1.387 . S
C483 H468 0.930 . S
C483 C478 1.390 . S
C483 C482 1.387 . S
H484 C496 0.930 . S
H485 C498 0.930 . S
H486 C499 0.930 . S
H487 C503 0.959 . S
H488 C503 0.959 . S
H489 C503 0.961 . S
H490 C504 0.960 . S
H491 C504 0.961 . S
H492 C504 0.959 . S
H493 C507 0.929 . S
H494 C508 0.931 . S
H495 C510 0.930 . S
C496 H484 0.930 . S
C496 C497 1.399 . S
C496 C501 1.399 . S
C497 C496 1.399 . S
C497 C498 1.376 . S
C498 H485 0.930 . S
C498 C497 1.376 . S
C498 C499 1.388 . S
C499 H486 0.930 . S
C499 C498 1.388 . S
C499 C500 1.390 . S
C500 C499 1.390 . S
C500 C501 1.394 . S
C500 C506 1.465 . S
C501 C496 1.399 . S
C501 C500 1.394 . S
C501 C502 1.516 . S
C502 C501 1.516 . S
C502 C503 1.502 . S
C502 C504 1.561 . S
C502 C505 1.526 . S
C503 H487 0.959 . S
C503 H488 0.959 . S
C503 H489 0.961 . S
C503 C502 1.502 . S
C504 H490 0.960 . S
C504 H491 0.961 . S
C504 H492 0.959 . S
C504 C502 1.561 . S
C505 C502 1.526 . S
C505 C506 1.396 . S
C505 C510 1.390 . S
C506 C500 1.465 . S
C506 C505 1.396 . S
C506 C507 1.399 . S
C507 H493 0.929 . S
C507 C506 1.399 . S
C507 C508 1.385 . S
C508 H494 0.931 . S
C508 C507 1.385 . S
C508 C509 1.389 . S
C509 C508 1.389 . S
C509 C510 1.387 . S
C510 H495 0.930 . S
C510 C505 1.390 . S
C510 C509 1.387 . S
H511 C523 0.930 . S
H512 C525 0.930 . S
H513 C526 0.930 . S
H514 C530 0.959 . S
H515 C530 0.959 . S
H516 C530 0.961 . S
H517 C531 0.960 . S
H518 C531 0.961 . S
H519 C531 0.959 . S
H520 C534 0.929 . S
H521 C535 0.931 . S
H522 C537 0.930 . S
C523 H511 0.930 . S
C523 C524 1.399 . S
C523 C528 1.399 . S
C524 C523 1.399 . S
C524 C525 1.376 . S
C525 H512 0.930 . S
C525 C524 1.376 . S
C525 C526 1.388 . S
C526 H513 0.930 . S
C526 C525 1.388 . S
C526 C527 1.390 . S
C527 C526 1.390 . S
C527 C528 1.394 . S
C527 C533 1.465 . S
C528 C523 1.399 . S
C528 C527 1.394 . S
C528 C529 1.516 . S
C529 C528 1.516 . S
C529 C530 1.502 . S
C529 C531 1.561 . S
C529 C532 1.526 . S
C530 H514 0.959 . S
C530 H515 0.959 . S
C530 H516 0.961 . S
C530 C529 1.502 . S
C531 H517 0.960 . S
C531 H518 0.961 . S
C531 H519 0.959 . S
C531 C529 1.561 . S
C532 C529 1.526 . S
C532 C533 1.396 . S
C532 C537 1.390 . S
C533 C527 1.465 . S
C533 C532 1.396 . S
C533 C534 1.399 . S
C534 H520 0.929 . S
C534 C533 1.399 . S
C534 C535 1.385 . S
C535 H521 0.931 . S
C535 C534 1.385 . S
C535 C536 1.389 . S
C536 C535 1.389 . S
C536 C537 1.387 . S
C537 H522 0.930 . S
C537 C532 1.390 . S
C537 C536 1.387 . S
H538 C550 0.930 . S
H539 C552 0.930 . S
H540 C553 0.930 . S
H541 C557 0.959 . S
H542 C557 0.959 . S
H543 C557 0.961 . S
H544 C558 0.960 . S
H545 C558 0.961 . S
H546 C558 0.959 . S
H547 C561 0.929 . S
H548 C562 0.931 . S
H549 C564 0.930 . S
C550 H538 0.930 . S
C550 C551 1.399 . S
C550 C555 1.399 . S
C551 C550 1.399 . S
C551 C552 1.376 . S
C552 H539 0.930 . S
C552 C551 1.376 . S
C552 C553 1.388 . S
C553 H540 0.930 . S
C553 C552 1.388 . S
C553 C554 1.390 . S
C554 C553 1.390 . S
C554 C555 1.394 . S
C554 C560 1.465 . S
C555 C550 1.399 . S
C555 C554 1.394 . S
C555 C556 1.516 . S
C556 C555 1.516 . S
C556 C557 1.502 . S
C556 C558 1.561 . S
C556 C559 1.526 . S
C557 H541 0.959 . S
C557 H542 0.959 . S
C557 H543 0.961 . S
C557 C556 1.502 . S
C558 H544 0.960 . S
C558 H545 0.961 . S
C558 H546 0.959 . S
C558 C556 1.561 . S
C559 C556 1.526 . S
C559 C560 1.396 . S
C559 C564 1.390 . S
C560 C554 1.465 . S
C560 C559 1.396 . S
C560 C561 1.399 . S
C561 H547 0.929 . S
C561 C560 1.399 . S
C561 C562 1.385 . S
C562 H548 0.931 . S
C562 C561 1.385 . S
C562 C563 1.389 . S
C563 C562 1.389 . S
C563 C564 1.387 . S
C564 H549 0.930 . S
C564 C559 1.390 . S
C564 C563 1.387 . S
H565 C577 0.930 . S
H566 C579 0.930 . S
H567 C580 0.930 . S
H568 C584 0.959 . S
H569 C584 0.959 . S
H570 C584 0.961 . S
H571 C585 0.960 . S
H572 C585 0.961 . S
H573 C585 0.959 . S
H574 C588 0.929 . S
H575 C589 0.931 . S
H576 C591 0.930 . S
C577 H565 0.930 . S
C577 C578 1.399 . S
C577 C582 1.399 . S
C578 C577 1.399 . S
C578 C579 1.376 . S
C579 H566 0.930 . S
C579 C578 1.376 . S
C579 C580 1.388 . S
C580 H567 0.930 . S
C580 C579 1.388 . S
C580 C581 1.390 . S
C581 C580 1.390 . S
C581 C582 1.394 . S
C581 C587 1.465 . S
C582 C577 1.399 . S
C582 C581 1.394 . S
C582 C583 1.516 . S
C583 C582 1.516 . S
C583 C584 1.502 . S
C583 C585 1.561 . S
C583 C586 1.526 . S
C584 H568 0.959 . S
C584 H569 0.959 . S
C584 H570 0.961 . S
C584 C583 1.502 . S
C585 H571 0.960 . S
C585 H572 0.961 . S
C585 H573 0.959 . S
C585 C583 1.561 . S
C586 C583 1.526 . S
C586 C587 1.396 . S
C586 C591 1.390 . S
C587 C581 1.465 . S
C587 C586 1.396 . S
C587 C588 1.399 . S
C588 H574 0.929 . S
C588 C587 1.399 . S
C588 C589 1.385 . S
C589 H575 0.931 . S
C589 C588 1.385 . S
C589 C590 1.389 . S
C590 C589 1.389 . S
C590 C591 1.387 . S
C591 H576 0.930 . S
C591 C586 1.390 . S
C591 C590 1.387 . S
H592 C604 0.930 . S
H593 C606 0.930 . S
H594 C607 0.930 . S
H595 C611 0.959 . S
H596 C611 0.959 . S
H597 C611 0.961 . S
H598 C612 0.960 . S
H599 C612 0.961 . S
H600 C612 0.959 . S
H601 C615 0.929 . S
H602 C616 0.931 . S
H603 C618 0.930 . S
C604 H592 0.930 . S
C604 C605 1.399 . S
C604 C609 1.399 . S
C605 C604 1.399 . S
C605 C606 1.376 . S
C606 H593 0.930 . S
C606 C605 1.376 . S
C606 C607 1.388 . S
C607 H594 0.930 . S
C607 C606 1.388 . S
C607 C608 1.390 . S
C608 C607 1.390 . S
C608 C609 1.394 . S
C608 C614 1.465 . S
C609 C604 1.399 . S
C609 C608 1.394 . S
C609 C610 1.516 . S
C610 C609 1.516 . S
C610 C611 1.502 . S
C610 C612 1.561 . S
C610 C613 1.526 . S
C611 H595 0.959 . S
C611 H596 0.959 . S
C611 H597 0.961 . S
C611 C610 1.502 . S
C612 H598 0.960 . S
C612 H599 0.961 . S
C612 H600 0.959 . S
C612 C610 1.561 . S
C613 C610 1.526 . S
C613 C614 1.396 . S
C613 C618 1.390 . S
C614 C608 1.465 . S
C614 C613 1.396 . S
C614 C615 1.399 . S
C615 H601 0.929 . S
C615 C614 1.399 . S
C615 C616 1.385 . S
C616 H602 0.931 . S
C616 C615 1.385 . S
C616 C617 1.389 . S
C617 C616 1.389 . S
C617 C618 1.387 . S
C618 H603 0.930 . S
C618 C613 1.390 . S
C618 C617 1.387 . S
H619 C631 0.930 . S
H620 C633 0.930 . S
H621 C634 0.930 . S
H622 C638 0.959 . S
H623 C638 0.959 . S
H624 C638 0.961 . S
H625 C639 0.960 . S
H626 C639 0.961 . S
H627 C639 0.959 . S
H628 C642 0.929 . S
H629 C643 0.931 . S
H630 C645 0.930 . S
C631 H619 0.930 . S
C631 C632 1.399 . S
C631 C636 1.399 . S
C632 C631 1.399 . S
C632 C633 1.376 . S
C633 H620 0.930 . S
C633 C632 1.376 . S
C633 C634 1.388 . S
C634 H621 0.930 . S
C634 C633 1.388 . S
C634 C635 1.390 . S
C635 C634 1.390 . S
C635 C636 1.394 . S
C635 C641 1.465 . S
C636 C631 1.399 . S
C636 C635 1.394 . S
C636 C637 1.516 . S
C637 C636 1.516 . S
C637 C638 1.502 . S
C637 C639 1.561 . S
C637 C640 1.526 . S
C638 H622 0.959 . S
C638 H623 0.959 . S
C638 H624 0.961 . S
C638 C637 1.502 . S
C639 H625 0.960 . S
C639 H626 0.961 . S
C639 H627 0.959 . S
C639 C637 1.561 . S
C640 C637 1.526 . S
C640 C641 1.396 . S
C640 C645 1.390 . S
C641 C635 1.465 . S
C641 C640 1.396 . S
C641 C642 1.399 . S
C642 H628 0.929 . S
C642 C641 1.399 . S
C642 C643 1.385 . S
C643 H629 0.931 . S
C643 C642 1.385 . S
C643 C644 1.389 . S
C644 C643 1.389 . S
C644 C645 1.387 . S
C645 H630 0.930 . S
C645 C640 1.390 . S
C645 C644 1.387 . S
H646 C658 0.930 . S
H647 C660 0.930 . S
H648 C661 0.930 . S
H649 C665 0.959 . S
H650 C665 0.959 . S
H651 C665 0.961 . S
H652 C666 0.960 . S
H653 C666 0.961 . S
H654 C666 0.959 . S
H655 C669 0.929 . S
H656 C670 0.931 . S
H657 C672 0.930 . S
C658 H646 0.930 . S
C658 C659 1.399 . S
C658 C663 1.399 . S
C659 C658 1.399 . S
C659 C660 1.376 . S
C660 H647 0.930 . S
C660 C659 1.376 . S
C660 C661 1.388 . S
C661 H648 0.930 . S
C661 C660 1.388 . S
C661 C662 1.390 . S
C662 C661 1.390 . S
C662 C663 1.394 . S
C662 C668 1.465 . S
C663 C658 1.399 . S
C663 C662 1.394 . S
C663 C664 1.516 . S
C664 C663 1.516 . S
C664 C665 1.502 . S
C664 C666 1.561 . S
C664 C667 1.526 . S
C665 H649 0.959 . S
C665 H650 0.959 . S
C665 H651 0.961 . S
C665 C664 1.502 . S
C666 H652 0.960 . S
C666 H653 0.961 . S
C666 H654 0.959 . S
C666 C664 1.561 . S
C667 C664 1.526 . S
C667 C668 1.396 . S
C667 C672 1.390 . S
C668 C662 1.465 . S
C668 C667 1.396 . S
C668 C669 1.399 . S
C669 H655 0.929 . S
C669 C668 1.399 . S
C669 C670 1.385 . S
C670 H656 0.931 . S
C670 C669 1.385 . S
C670 C671 1.389 . S
C671 C670 1.389 . S
C671 C672 1.387 . S
C672 H657 0.930 . S
C672 C667 1.390 . S
C672 C671 1.387 . S
H673 C685 0.930 . S
H674 C687 0.930 . S
H675 C688 0.930 . S
H676 C692 0.959 . S
H677 C692 0.959 . S
H678 C692 0.961 . S
H679 C693 0.960 . S
H680 C693 0.961 . S
H681 C693 0.959 . S
H682 C696 0.929 . S
H683 C697 0.931 . S
H684 C699 0.930 . S
C685 H673 0.930 . S
C685 C686 1.399 . S
C685 C690 1.399 . S
C686 C685 1.399 . S
C686 C687 1.376 . S
C687 H674 0.930 . S
C687 C686 1.376 . S
C687 C688 1.388 . S
C688 H675 0.930 . S
C688 C687 1.388 . S
C688 C689 1.390 . S
C689 C688 1.390 . S
C689 C690 1.394 . S
C689 C695 1.465 . S
C690 C685 1.399 . S
C690 C689 1.394 . S
C690 C691 1.516 . S
C691 C690 1.516 . S
C691 C692 1.502 . S
C691 C693 1.561 . S
C691 C694 1.526 . S
C692 H676 0.959 . S
C692 H677 0.959 . S
C692 H678 0.961 . S
C692 C691 1.502 . S
C693 H679 0.960 . S
C693 H680 0.961 . S
C693 H681 0.959 . S
C693 C691 1.561 . S
C694 C691 1.526 . S
C694 C695 1.396 . S
C694 C699 1.390 . S
C695 C689 1.465 . S
C695 C694 1.396 . S
C695 C696 1.399 . S
C696 H682 0.929 . S
C696 C695 1.399 . S
C696 C697 1.385 . S
C697 H683 0.931 . S
C697 C696 1.385 . S
C697 C698 1.389 . S
C698 C697 1.389 . S
C698 C699 1.387 . S
C699 H684 0.930 . S
C699 C694 1.390 . S
C699 C698 1.387 . S
H700 C712 0.930 . S
H701 C714 0.930 . S
H702 C715 0.930 . S
H703 C719 0.959 . S
H704 C719 0.959 . S
H705 C719 0.961 . S
H706 C720 0.960 . S
H707 C720 0.961 . S
H708 C720 0.959 . S
H709 C723 0.929 . S
H710 C724 0.931 . S
H711 C726 0.930 . S
C712 H700 0.930 . S
C712 C713 1.399 . S
C712 C717 1.399 . S
C713 C712 1.399 . S
C713 C714 1.376 . S
C714 H701 0.930 . S
C714 C713 1.376 . S
C714 C715 1.388 . S
C715 H702 0.930 . S
C715 C714 1.388 . S
C715 C716 1.390 . S
C716 C715 1.390 . S
C716 C717 1.394 . S
C716 C722 1.465 . S
C717 C712 1.399 . S
C717 C716 1.394 . S
C717 C718 1.516 . S
C718 C717 1.516 . S
C718 C719 1.502 . S
C718 C720 1.561 . S
C718 C721 1.526 . S
C719 H703 0.959 . S
C719 H704 0.959 . S
C719 H705 0.961 . S
C719 C718 1.502 . S
C720 H706 0.960 . S
C720 H707 0.961 . S
C720 H708 0.959 . S
C720 C718 1.561 . S
C721 C718 1.526 . S
C721 C722 1.396 . S
C721 C726 1.390 . S
C722 C716 1.465 . S
C722 C721 1.396 . S
C722 C723 1.399 . S
C723 H709 0.929 . S
C723 C722 1.399 . S
C723 C724 1.385 . S
C724 H710 0.931 . S
C724 C723 1.385 . S
C724 C725 1.389 . S
C725 C724 1.389 . S
C725 C726 1.387 . S
C726 H711 0.930 . S
C726 C721 1.390 . S
C726 C725 1.387 . S
H727 C739 0.930 . S
H728 C741 0.930 . S
H729 C742 0.930 . S
H730 C746 0.959 . S
H731 C746 0.959 . S
H732 C746 0.961 . S
H733 C747 0.960 . S
H734 C747 0.961 . S
H735 C747 0.959 . S
H736 C750 0.929 . S
H737 C751 0.931 . S
H738 C753 0.930 . S
C739 H727 0.930 . S
C739 C740 1.399 . S
C739 C744 1.399 . S
C740 C739 1.399 . S
C740 C741 1.376 . S
C741 H728 0.930 . S
C741 C740 1.376 . S
C741 C742 1.388 . S
C742 H729 0.930 . S
C742 C741 1.388 . S
C742 C743 1.390 . S
C743 C742 1.390 . S
C743 C744 1.394 . S
C743 C749 1.465 . S
C744 C739 1.399 . S
C744 C743 1.394 . S
C744 C745 1.516 . S
C745 C744 1.516 . S
C745 C746 1.502 . S
C745 C747 1.561 . S
C745 C748 1.526 . S
C746 H730 0.959 . S
C746 H731 0.959 . S
C746 H732 0.961 . S
C746 C745 1.502 . S
C747 H733 0.960 . S
C747 H734 0.961 . S
C747 H735 0.959 . S
C747 C745 1.561 . S
C748 C745 1.526 . S
C748 C749 1.396 . S
C748 C753 1.390 . S
C749 C743 1.465 . S
C749 C748 1.396 . S
C749 C750 1.399 . S
C750 H736 0.929 . S
C750 C749 1.399 . S
C750 C751 1.385 . S
C751 H737 0.931 . S
C751 C750 1.385 . S
C751 C752 1.389 . S
C752 C751 1.389 . S
C752 C753 1.387 . S
C753 H738 0.930 . S
C753 C748 1.390 . S
C753 C752 1.387 . S
H754 C766 0.930 . S
H755 C768 0.930 . S
H756 C769 0.930 . S
H757 C773 0.959 . S
H758 C773 0.959 . S
H759 C773 0.961 . S
H760 C774 0.960 . S
H761 C774 0.961 . S
H762 C774 0.959 . S
H763 C777 0.929 . S
H764 C778 0.931 . S
H765 C780 0.930 . S
C766 H754 0.930 . S
C766 C767 1.399 . S
C766 C771 1.399 . S
C767 C766 1.399 . S
C767 C768 1.376 . S
C768 H755 0.930 . S
C768 C767 1.376 . S
C768 C769 1.388 . S
C769 H756 0.930 . S
C769 C768 1.388 . S
C769 C770 1.390 . S
C770 C769 1.390 . S
C770 C771 1.394 . S
C770 C776 1.465 . S
C771 C766 1.399 . S
C771 C770 1.394 . S
C771 C772 1.516 . S
C772 C771 1.516 . S
C772 C773 1.502 . S
C772 C774 1.561 . S
C772 C775 1.526 . S
C773 H757 0.959 . S
C773 H758 0.959 . S
C773 H759 0.961 . S
C773 C772 1.502 . S
C774 H760 0.960 . S
C774 H761 0.961 . S
C774 H762 0.959 . S
C774 C772 1.561 . S
C775 C772 1.526 . S
C775 C776 1.396 . S
C775 C780 1.390 . S
C776 C770 1.465 . S
C776 C775 1.396 . S
C776 C777 1.399 . S
C777 H763 0.929 . S
C777 C776 1.399 . S
C777 C778 1.385 . S
C778 H764 0.931 . S
C778 C777 1.385 . S
C778 C779 1.389 . S
C779 C778 1.389 . S
C779 C780 1.387 . S
C780 H765 0.930 . S
C780 C775 1.390 . S
C780 C779 1.387 . S
H781 C793 0.930 . S
H782 C795 0.930 . S
H783 C796 0.930 . S
H784 C800 0.959 . S
H785 C800 0.959 . S
H786 C800 0.961 . S
H787 C801 0.960 . S
H788 C801 0.961 . S
H789 C801 0.959 . S
H790 C804 0.929 . S
H791 C805 0.931 . S
H792 C807 0.930 . S
C793 H781 0.930 . S
C793 C794 1.399 . S
C793 C798 1.399 . S
C794 C793 1.399 . S
C794 C795 1.376 . S
C795 H782 0.930 . S
C795 C794 1.376 . S
C795 C796 1.388 . S
C796 H783 0.930 . S
C796 C795 1.388 . S
C796 C797 1.390 . S
C797 C796 1.390 . S
C797 C798 1.394 . S
C797 C803 1.465 . S
C798 C793 1.399 . S
C798 C797 1.394 . S
C798 C799 1.516 . S
C799 C798 1.516 . S
C799 C800 1.502 . S
C799 C801 1.561 . S
C799 C802 1.526 . S
C800 H784 0.959 . S
C800 H785 0.959 . S
C800 H786 0.961 . S
C800 C799 1.502 . S
C801 H787 0.960 . S
C801 H788 0.961 . S
C801 H789 0.959 . S
C801 C799 1.561 . S
C802 C799 1.526 . S
C802 C803 1.396 . S
C802 C807 1.390 . S
C803 C797 1.465 . S
C803 C802 1.396 . S
C803 C804 1.399 . S
C804 H790 0.929 . S
C804 C803 1.399 . S
C804 C805 1.385 . S
C805 H791 0.931 . S
C805 C804 1.385 . S
C805 C806 1.389 . S
C806 C805 1.389 . S
C806 C807 1.387 . S
C807 H792 0.930 . S
C807 C802 1.390 . S
C807 C806 1.387 . S
H808 C820 0.930 . S
H809 C822 0.930 . S
H810 C823 0.930 . S
H811 C827 0.959 . S
H812 C827 0.959 . S
H813 C827 0.961 . S
H814 C828 0.960 . S
H815 C828 0.961 . S
H816 C828 0.959 . S
H817 C831 0.929 . S
H818 C832 0.931 . S
H819 C834 0.930 . S
C820 H808 0.930 . S
C820 C821 1.399 . S
C820 C825 1.399 . S
C821 C820 1.399 . S
C821 C822 1.376 . S
C822 H809 0.930 . S
C822 C821 1.376 . S
C822 C823 1.388 . S
C823 H810 0.930 . S
C823 C822 1.388 . S
C823 C824 1.390 . S
C824 C823 1.390 . S
C824 C825 1.394 . S
C824 C830 1.465 . S
C825 C820 1.399 . S
C825 C824 1.394 . S
C825 C826 1.516 . S
C826 C825 1.516 . S
C826 C827 1.502 . S
C826 C828 1.561 . S
C826 C829 1.526 . S
C827 H811 0.959 . S
C827 H812 0.959 . S
C827 H813 0.961 . S
C827 C826 1.502 . S
C828 H814 0.960 . S
C828 H815 0.961 . S
C828 H816 0.959 . S
C828 C826 1.561 . S
C829 C826 1.526 . S
C829 C830 1.396 . S
C829 C834 1.390 . S
C830 C824 1.465 . S
C830 C829 1.396 . S
C830 C831 1.399 . S
C831 H817 0.929 . S
C831 C830 1.399 . S
C831 C832 1.385 . S
C832 H818 0.931 . S
C832 C831 1.385 . S
C832 C833 1.389 . S
C833 C832 1.389 . S
C833 C834 1.387 . S
C834 H819 0.930 . S
C834 C829 1.390 . S
C834 C833 1.387 . S
C212 C112 1.333 . S
C200 C10 1.447 . S
C239 C148 1.368 . S
C227 C15 1.408 . S
C266 C113 1.654 . S
C254 C27 1.663 . S
C293 C143 1.533 . S
C281 C38 1.611 . S
C320 C110 1.471 . S
C308 C49 1.496 . S
C335 C59 1.860 . S
C347 C146 1.852 . S
C362 C71 0.739 . S
C374 C115 0.860 . S
C401 C145 1.433 . S
C389 C87 1.501 . S
C428 C149 1.729 . S
C416 C5 1.790 . S
C455 C114 1.110 . S
C443 C16 1.179 . S
C482 C142 1.610 . S
C470 C32 1.602 . S
C509 C111 1.222 . S
C497 C37 1.266 . S
C536 C144 1.656 . S
C524 C48 1.807 . S
C551 C65 1.301 . S
C563 C109 1.296 . S
C578 C70 1.170 . S
C590 C147 1.116 . S
C617 C116 1.512 . S
C605 C82 1.551 . S
C644 C178 1.876 . S
C632 C4 1.929 . S
C659 C54 1.935 . S
C671 C181 1.803 . S
C698 C180 1.906 . S
C686 C60 1.957 . S
C713 C76 1.296 . S
C725 C179 1.258 . S
C752 C182 1.861 . S
C740 C81 2.033 . S
C767 C26 1.892 . S
C779 C176 1.814 . S
C806 C175 1.929 . S
C794 C43 1.951 . S
C821 C21 1.161 . S
C833 C177 1.125 . S
