# Generated by pormake.
# Topology ant, (3,6)-cn, num edge types: 1
# Building blocks:
#     Node 0, Type 0, BuildingBlock: QEWDON_clean_linker_0, # of connection points: 3
#     Node 1, Type 0, BuildingBlock: QEWDON_clean_linker_0, # of connection points: 3
#     Node 2, Type 0, BuildingBlock: QEWDON_clean_linker_0, # of connection points: 3
#     Node 3, Type 0, BuildingBlock: QEWDON_clean_linker_0, # of connection points: 3
#     Node 4, Type 0, BuildingBlock: QEWDON_clean_linker_0, # of connection points: 3
#     Node 5, Type 0, BuildingBlock: QEWDON_clean_linker_0, # of connection points: 3
#     Node 6, Type 0, BuildingBlock: QEWDON_clean_linker_0, # of connection points: 3
#     Node 7, Type 0, BuildingBlock: QEWDON_clean_linker_0, # of connection points: 3
#     Node 8, Type 1, BuildingBlock: MIDCAF_clean_sbu_0, # of connection points: 6
#     Node 9, Type 1, BuildingBlock: MIDCAF_clean_sbu_0, # of connection points: 6
#     Node 10, Type 1, BuildingBlock: MIDCAF_clean_sbu_0, # of connection points: 6
#     Node 11, Type 1, BuildingBlock: MIDCAF_clean_sbu_0, # of connection points: 6
#     Edge 12, Type (0, 1), BuildingBlock: EYOCIG_clean_linker_4, # of connection points: 2
#     Edge 13, Type (0, 1), BuildingBlock: EYOCIG_clean_linker_4, # of connection points: 2
#     Edge 14, Type (0, 1), BuildingBlock: EYOCIG_clean_linker_4, # of connection points: 2
#     Edge 15, Type (0, 1), BuildingBlock: EYOCIG_clean_linker_4, # of connection points: 2
#     Edge 16, Type (0, 1), BuildingBlock: EYOCIG_clean_linker_4, # of connection points: 2
#     Edge 17, Type (0, 1), BuildingBlock: EYOCIG_clean_linker_4, # of connection points: 2
#     Edge 18, Type (0, 1), BuildingBlock: EYOCIG_clean_linker_4, # of connection points: 2
#     Edge 19, Type (0, 1), BuildingBlock: EYOCIG_clean_linker_4, # of connection points: 2
#     Edge 20, Type (0, 1), BuildingBlock: EYOCIG_clean_linker_4, # of connection points: 2
#     Edge 21, Type (0, 1), BuildingBlock: EYOCIG_clean_linker_4, # of connection points: 2
#     Edge 22, Type (0, 1), BuildingBlock: EYOCIG_clean_linker_4, # of connection points: 2
#     Edge 23, Type (0, 1), BuildingBlock: EYOCIG_clean_linker_4, # of connection points: 2
#     Edge 24, Type (0, 1), BuildingBlock: EYOCIG_clean_linker_4, # of connection points: 2
#     Edge 25, Type (0, 1), BuildingBlock: EYOCIG_clean_linker_4, # of connection points: 2
#     Edge 26, Type (0, 1), BuildingBlock: EYOCIG_clean_linker_4, # of connection points: 2
#     Edge 27, Type (0, 1), BuildingBlock: EYOCIG_clean_linker_4, # of connection points: 2
#     Edge 28, Type (0, 1), BuildingBlock: EYOCIG_clean_linker_4, # of connection points: 2
#     Edge 29, Type (0, 1), BuildingBlock: EYOCIG_clean_linker_4, # of connection points: 2
#     Edge 30, Type (0, 1), BuildingBlock: EYOCIG_clean_linker_4, # of connection points: 2
#     Edge 31, Type (0, 1), BuildingBlock: EYOCIG_clean_linker_4, # of connection points: 2
#     Edge 32, Type (0, 1), BuildingBlock: EYOCIG_clean_linker_4, # of connection points: 2
#     Edge 33, Type (0, 1), BuildingBlock: EYOCIG_clean_linker_4, # of connection points: 2
#     Edge 34, Type (0, 1), BuildingBlock: EYOCIG_clean_linker_4, # of connection points: 2
#     Edge 35, Type (0, 1), BuildingBlock: EYOCIG_clean_linker_4, # of connection points: 2
# Relax obj value: 0.062
# Max RMSD: 0.160
# Mean RMSD: 0.124
data_MOF--net-ant--node1-MIDCAF_clean_sbu_0--node2-QEWDON_clean_linker_0--edge1-EYOCIG_clean_linker_4
_symmetry_space_group_name_H-M    P1
_symmetry_Int_Tables_number       1
_symmetry_cell_setting            triclinic
loop_
_symmetry_equiv_pos_as_xyz
'x, y, z'
_cell_length_a     24.691905
_cell_length_b     24.234931
_cell_length_c     54.989051
_cell_angle_alpha  96.144789
_cell_angle_beta   101.74399
_cell_angle_gamma 89.309119
loop_
_atom_site_label
_atom_site_type_symbol
_atom_site_fract_x
_atom_site_fract_y
_atom_site_fract_z
_atom_type_partial_charge
H0 H 0.15449 0.16554 0.05855 0.0
C1 C 0.15789 0.21026 0.06242 0.0
C2 C 0.14958 0.24224 0.04224 0.0
C3 C 0.1689 0.23595 0.08725 0.0
H4 H 0.14318 0.32489 0.03086 0.0
C5 C 0.15066 0.30019 0.04653 0.0
C6 C 0.16073 0.3265 0.0709 0.0
C7 C 0.17099 0.29461 0.09116 0.0
C8 C 0.17573 0.2019 0.10887 0.0
H9 H 0.18031 0.31587 0.1099 0.0
C10 C 0.19621 0.14715 0.10714 0.0
C11 C 0.19819 0.1142 0.12679 0.0
C12 C 0.15922 0.22294 0.13117 0.0
H13 H 0.14171 0.26388 0.13324 0.0
C14 C 0.16312 0.1906 0.15098 0.0
H15 H 0.20964 0.12946 0.09045 0.0
C16 C 0.18207 0.13628 0.14875 0.0
H17 H 0.18291 0.11108 0.16397 0.0
H18 H 0.14998 0.20725 0.16788 0.0
H19 H 0.02269 0.80993 0.29449 0.0
C20 C 0.06571 0.81139 0.304 0.0
C21 C 0.10632 0.79466 0.29035 0.0
C22 C 0.08073 0.83137 0.32958 0.0
H23 H 0.19362 0.78572 0.29135 0.0
C24 C 0.16221 0.79829 0.30201 0.0
C25 C 0.17798 0.8182 0.32725 0.0
C26 C 0.13749 0.83416 0.34109 0.0
C27 C 0.03754 0.85078 0.34397 0.0
H28 H 0.15035 0.84831 0.36078 0.0
C29 C 0.98468 0.8252 0.33885 0.0
C30 C 0.94385 0.84527 0.35186 0.0
C31 C 0.04844 0.89623 0.3626 0.0
H32 H 0.08788 0.91785 0.36677 0.0
C33 C 0.00797 0.91543 0.37576 0.0
H34 H 0.9752 0.78967 0.32492 0.0
C35 C 0.95585 0.89022 0.37038 0.0
H36 H 0.92477 0.90602 0.38062 0.0
H37 H 0.01687 0.95042 0.38998 0.0
H38 H 0.65747 0.66199 0.55869 0.0
C39 C 0.66102 0.7067 0.56255 0.0
C40 C 0.65218 0.73871 0.54238 0.0
C41 C 0.67277 0.73237 0.58739 0.0
H42 H 0.64555 0.82138 0.53102 0.0
C43 C 0.65345 0.79666 0.54668 0.0
C44 C 0.66425 0.82294 0.57105 0.0
C45 C 0.67504 0.79104 0.59131 0.0
C46 C 0.6802 0.69833 0.60903 0.0
H47 H 0.68493 0.81229 0.61003 0.0
C48 C 0.7005 0.64352 0.60717 0.0
C49 C 0.70307 0.61061 0.62688 0.0
C50 C 0.66449 0.71947 0.6315 0.0
H51 H 0.64715 0.76045 0.63369 0.0
C52 C 0.66901 0.68716 0.65135 0.0
H53 H 0.71331 0.62574 0.59035 0.0
C54 C 0.68776 0.63279 0.64901 0.0
H55 H 0.68908 0.60763 0.66427 0.0
H56 H 0.65648 0.70389 0.66839 0.0
H57 H 0.5242 0.30675 0.794 0.0
C58 C 0.56722 0.30877 0.8035 0.0
C59 C 0.60796 0.29229 0.78987 0.0
C60 C 0.58215 0.32922 0.82903 0.0
H61 H 0.69535 0.28439 0.79086 0.0
C62 C 0.66384 0.29671 0.8015 0.0
C63 C 0.67947 0.3171 0.82668 0.0
C64 C 0.63889 0.33269 0.84051 0.0
C65 C 0.53889 0.34844 0.84342 0.0
H66 H 0.65173 0.34712 0.86017 0.0
C67 C 0.48613 0.32267 0.83832 0.0
C68 C 0.44528 0.34257 0.85135 0.0
C69 C 0.54967 0.39387 0.86208 0.0
H70 H 0.58899 0.4157 0.86624 0.0
C71 C 0.50921 0.41283 0.87528 0.0
H72 H 0.4767 0.28717 0.82437 0.0
C73 C 0.45718 0.38744 0.86991 0.0
H74 H 0.42608 0.40309 0.88017 0.0
H75 H 0.51803 0.44778 0.88953 0.0
H76 H 0.0309 0.77141 0.94568 0.0
C77 C 0.02322 0.73335 0.93317 0.0
C78 C 0.03681 0.68215 0.94256 0.0
C79 C -0.00282 0.73498 0.90791 0.0
H80 H 0.03514 0.59339 0.9342 0.0
C81 C 0.02515 0.6329 0.92681 0.0
C82 C -0.00037 0.63396 0.90178 0.0
C83 C 0.98608 0.68467 0.89223 0.0
C84 C 0.97807 0.78834 0.89816 0.0
H85 H 0.96666 0.68485 0.87269 0.0
C86 C 0.01117 0.83693 0.9044 0.0
C87 C 0.99195 0.88648 0.89463 0.0
C88 C 0.92564 0.79072 0.88237 0.0
H89 H 0.89874 0.75453 0.87762 0.0
C90 C 0.90683 0.84 0.87278 0.0
H91 H 0.05185 0.83598 0.91634 0.0
C92 C 0.93983 0.88765 0.87882 0.0
H93 H 0.92462 0.92554 0.87108 0.0
H94 H 0.8665 0.84124 0.86064 0.0
H95 H 0.69596 0.78415 0.19648 0.0
C96 C 0.65281 0.7844 0.18726 0.0
C97 C 0.61248 0.77665 0.20119 0.0
C98 C 0.6374 0.79347 0.16184 0.0
H99 H 0.52521 0.77412 0.20107 0.0
C100 C 0.55643 0.77952 0.19016 0.0
C101 C 0.5404 0.78925 0.16514 0.0
C102 C 0.58052 0.7951 0.15089 0.0
C103 C 0.68032 0.80256 0.14699 0.0
H104 H 0.56708 0.80053 0.13129 0.0
C105 C 0.73303 0.77805 0.15246 0.0
C106 C 0.77386 0.78942 0.13929 0.0
C107 C 0.6695 0.83737 0.12759 0.0
H108 H 0.63038 0.85836 0.12313 0.0
C109 C 0.70977 0.84703 0.11401 0.0
H110 H 0.74272 0.75043 0.16695 0.0
C111 C 0.76187 0.82341 0.1199 0.0
H112 H 0.79306 0.8323 0.10951 0.0
H113 H 0.70088 0.8738 0.09917 0.0
H114 H 0.53402 0.26983 0.44594 0.0
C115 C 0.52568 0.23182 0.43343 0.0
C116 C 0.53914 0.18051 0.44273 0.0
C117 C 0.49887 0.23365 0.40828 0.0
H118 H 0.53639 0.09174 0.43433 0.0
C119 C 0.52656 0.13134 0.427 0.0
C120 C 0.50026 0.13261 0.40209 0.0
C121 C 0.48692 0.18341 0.39261 0.0
C122 C 0.47977 0.28714 0.39864 0.0
H123 H 0.46691 0.18372 0.37315 0.0
C124 C 0.51308 0.33559 0.40476 0.0
C125 C 0.49382 0.38523 0.39509 0.0
C126 C 0.42709 0.28976 0.38307 0.0
H127 H 0.4 0.25371 0.37843 0.0
C128 C 0.40828 0.33911 0.37356 0.0
H129 H 0.55393 0.33449 0.41654 0.0
C130 C 0.44148 0.38662 0.37948 0.0
H131 H 0.42626 0.42457 0.37181 0.0
H132 H 0.36777 0.34052 0.36158 0.0
H133 H 0.19977 0.28195 0.69633 0.0
C134 C 0.15664 0.28203 0.68708 0.0
C135 C 0.11626 0.27448 0.701 0.0
C136 C 0.14129 0.29068 0.6616 0.0
H137 H 0.02897 0.27186 0.70082 0.0
C138 C 0.06023 0.27712 0.68991 0.0
C139 C 0.04426 0.28643 0.66484 0.0
C140 C 0.08443 0.2921 0.6506 0.0
C141 C 0.18424 0.29954 0.64674 0.0
H142 H 0.07103 0.2972 0.63096 0.0
C143 C 0.23695 0.27508 0.6523 0.0
C144 C 0.2778 0.28619 0.63909 0.0
C145 C 0.17342 0.33404 0.62722 0.0
H146 H 0.13429 0.35496 0.62268 0.0
C147 C 0.21371 0.34345 0.61361 0.0
H148 H 0.24664 0.2477 0.66689 0.0
C149 C 0.26582 0.31988 0.61958 0.0
H150 H 0.29702 0.32857 0.60917 0.0
H151 H 0.20483 0.36998 0.59868 0.0
Zn152 Zn 0.21111 0.66365 0.1514 0.0
Zn153 Zn 0.08016 0.78717 0.0968 0.0
Zn154 Zn 0.14703 0.72421 0.1212 0.0
C155 C 0.10547 0.70193 0.06292 0.0
C156 C 0.17152 0.85191 0.11609 0.0
O157 O 0.11363 0.72122 0.15565 0.0
O158 O 0.18074 0.68443 0.18198 0.0
C159 C 0.16608 0.59472 0.1079 0.0
O160 O 0.12636 0.68009 0.08306 0.0
O161 O 0.08609 0.75022 0.06391 0.0
O162 O 0.12064 0.85783 0.10769 0.0
O163 O 0.19116 0.80369 0.1206 0.0
O164 O 0.18918 0.5925 0.13045 0.0
O165 O 0.15056 0.64152 0.09975 0.0
O166 O 0.22924 0.76477 0.13024 0.0
O167 O 0.28099 0.69969 0.14862 0.0
C168 C 0.27689 0.74557 0.13958 0.0
O169 O 0.0712 0.73618 0.13739 0.0
O170 O 0.01177 0.77551 0.10872 0.0
C171 C 0.1346 0.70818 0.17771 0.0
C172 C 0.02207 0.75326 0.12879 0.0
Zn173 Zn 0.50905 0.6836 0.33407 0.0
Zn174 Zn 0.63714 0.82637 0.40049 0.0
Zn175 Zn 0.5731 0.75475 0.36804 0.0
C176 C 0.54181 0.88183 0.38054 0.0
C177 C 0.69675 0.79222 0.36429 0.0
O178 O 0.56908 0.67632 0.38484 0.0
O179 O 0.52929 0.61775 0.35253 0.0
C180 C 0.44156 0.76894 0.34901 0.0
O181 O 0.5261 0.83214 0.37139 0.0
O182 O 0.59004 0.89158 0.39312 0.0
O183 O 0.70422 0.8173 0.38602 0.0
O184 O 0.64953 0.76966 0.35387 0.0
O185 O 0.4382 0.72106 0.33727 0.0
O186 O 0.4889 0.79035 0.36 0.0
O187 O 0.60946 0.74475 0.33444 0.0
O188 O 0.54475 0.6983 0.306 0.0
C189 C 0.59005 0.72472 0.31173 0.0
O190 O 0.59409 0.71715 0.40365 0.0
O191 O 0.63274 0.78809 0.43004 0.0
C192 C 0.55281 0.62702 0.37521 0.0
C193 C 0.61455 0.73887 0.426 0.0
Zn194 Zn 0.58426 0.28383 0.59682 0.0
Zn195 Zn 0.71504 0.16019 0.6515 0.0
Zn196 Zn 0.65097 0.22069 0.62114 0.0
C197 C 0.78084 0.24202 0.63958 0.0
C198 C 0.66998 0.09125 0.60792 0.0
O199 O 0.5751 0.23276 0.63731 0.0
O200 O 0.51577 0.2723 0.60868 0.0
C201 C 0.67566 0.3484 0.61607 0.0
O202 O 0.7332 0.26114 0.63018 0.0
O203 O 0.78494 0.19626 0.64873 0.0
O204 O 0.69305 0.08911 0.63048 0.0
O205 O 0.65447 0.13802 0.59972 0.0
O206 O 0.62479 0.35444 0.60772 0.0
O207 O 0.6952 0.30012 0.62054 0.0
O208 O 0.63031 0.17661 0.583 0.0
O209 O 0.59023 0.24693 0.56394 0.0
C210 C 0.60952 0.1986 0.56289 0.0
O211 O 0.61746 0.21772 0.65557 0.0
O212 O 0.6844 0.18099 0.68201 0.0
C213 C 0.52601 0.24996 0.62872 0.0
C214 C 0.63824 0.20469 0.67765 0.0
Zn215 Zn 0.01023 0.18452 0.83372 0.0
Zn216 Zn 0.13867 0.3272 0.90002 0.0
Zn217 Zn 0.07419 0.25552 0.86773 0.0
C218 C 0.11509 0.24022 0.92571 0.0
C219 C 0.04369 0.38306 0.88001 0.0
O220 O 0.11075 0.24478 0.83415 0.0
O221 O 0.04615 0.19844 0.80562 0.0
C222 C 0.0529 0.1281 0.87504 0.0
O223 O 0.09459 0.21826 0.90341 0.0
O224 O 0.13372 0.28928 0.92962 0.0
O225 O 0.09198 0.39265 0.89253 0.0
O226 O 0.02772 0.33338 0.87095 0.0
O227 O 0.02978 0.11878 0.8523 0.0
O228 O 0.06935 0.17736 0.88465 0.0
O229 O 0.99039 0.29167 0.85956 0.0
O230 O 0.93959 0.22248 0.8368 0.0
C231 C 0.94305 0.27039 0.84851 0.0
O232 O 0.15082 0.26947 0.85361 0.0
O233 O 0.20578 0.31732 0.8856 0.0
C234 C 0.09158 0.22462 0.81144 0.0
C235 C 0.19817 0.29181 0.86396 0.0
C236 C 0.15723 0.43639 0.07826 0.0
C237 C 0.15885 0.38634 0.07495 0.0
C238 C 0.15585 0.49474 0.08383 0.0
C239 C 0.15745 0.54305 0.0921 0.0
C240 C 0.84197 0.80542 0.34445 0.0
C241 C 0.8892 0.82063 0.34644 0.0
C242 C 0.78693 0.79381 0.34611 0.0
C243 C 0.74259 0.78955 0.35179 0.0
C244 C 0.72563 0.50348 0.62314 0.0
C245 C 0.71589 0.55243 0.62373 0.0
C246 C 0.72439 0.44507 0.62236 0.0
C247 C 0.70995 0.39726 0.62073 0.0
C248 C 0.78737 0.32148 0.84425 0.0
C249 C 0.7376 0.32111 0.83796 0.0
C250 C 0.84529 0.31419 0.84857 0.0
C251 C 0.89252 0.29929 0.85 0.0
C252 C 0.98334 0.53361 0.87855 0.0
C253 C 0.98765 0.58192 0.88651 0.0
C254 C 0.99028 0.47583 0.87465 0.0
C255 C 0.00831 0.42955 0.87523 0.0
C256 C 0.87701 0.75555 0.14852 0.0
C257 C 0.82907 0.76842 0.14598 0.0
C258 C 0.93305 0.7478 0.14721 0.0
C259 C 0.97753 0.74708 0.14142 0.0
C260 C 0.54553 0.48149 0.40132 0.0
C261 C 0.52696 0.43529 0.40023 0.0
C262 C 0.55714 0.53657 0.39767 0.0
C263 C 0.55851 0.58128 0.39006 0.0
C264 C 0.9367 0.29056 0.64722 0.0
C265 C 0.98626 0.28925 0.65391 0.0
C266 C 0.87859 0.28497 0.6419 0.0
C267 C 0.831 0.27099 0.63947 0.0
C268 C 0.38094 0.25235 0.64843 0.0
C269 C 0.333 0.26523 0.64585 0.0
C270 C 0.43697 0.24455 0.64714 0.0
C271 C 0.48146 0.24379 0.64134 0.0
C272 C 0.43285 0.79388 0.14752 0.0
C273 C 0.48239 0.79234 0.15425 0.0
C274 C 0.37472 0.78851 0.1421 0.0
C275 C 0.32706 0.77463 0.13958 0.0
C276 C 0.34339 0.30293 0.84393 0.0
C277 C 0.39065 0.31794 0.84587 0.0
C278 C 0.28831 0.29191 0.84568 0.0
C279 C 0.24399 0.28833 0.85145 0.0
C280 C 0.28593 0.82087 0.34483 0.0
C281 C 0.23615 0.82128 0.33855 0.0
C282 C 0.34378 0.81291 0.34911 0.0
C283 C 0.39096 0.79779 0.35049 0.0
C284 C 0.66103 0.93284 0.5784 0.0
C285 C 0.66252 0.88279 0.57512 0.0
C286 C 0.65971 0.99121 0.58392 0.0
C287 C 0.66134 0.03954 0.59215 0.0
C288 C 0.22109 0.00713 0.12318 0.0
C289 C 0.21122 0.05606 0.12372 0.0
C290 C 0.21999 0.94873 0.12242 0.0
C291 C 0.20567 0.90087 0.12078 0.0
C292 C 0.48209 0.03238 0.37894 0.0
C293 C 0.48718 0.08067 0.38687 0.0
C294 C 0.48845 0.97453 0.37508 0.0
C295 C 0.50635 0.92821 0.37568 0.0
C296 C 0.04374 0.98278 0.90106 0.0
C297 C 0.02499 0.93661 0.89986 0.0
C298 C 0.05589 0.0378 0.89751 0.0
C299 C 0.05788 0.08247 0.88994 0.0
C300 C 0.13034 0.20317 0.99463 0.0
C301 C 0.13931 0.21641 0.01686 0.0
C302 C 0.12108 0.20033 0.96835 0.0
C303 C 0.11526 0.21123 0.94711 0.0
C304 C 0.0882 0.75739 0.24245 0.0
C305 C 0.09187 0.77473 0.26414 0.0
C306 C 0.0944 0.73911 0.21788 0.0
C307 C 0.10926 0.72653 0.19846 0.0
C308 C 0.63158 0.70007 0.49473 0.0
C309 C 0.64118 0.71296 0.51698 0.0
C310 C 0.62165 0.69785 0.46845 0.0
C311 C 0.61536 0.7093 0.44728 0.0
C312 C 0.59047 0.2542 0.74209 0.0
C313 C 0.59371 0.27187 0.76372 0.0
C314 C 0.5973 0.23568 0.71763 0.0
C315 C 0.61263 0.22302 0.69832 0.0
C316 C 0.07806 0.67199 0.99015 0.0
C317 C 0.05931 0.67863 0.96865 0.0
C318 C 0.09495 0.66735 0.01597 0.0
C319 C 0.10396 0.67417 0.03846 0.0
C320 C 0.63323 0.75633 0.24837 0.0
C321 C 0.62777 0.76573 0.22692 0.0
C322 C 0.62926 0.74583 0.27269 0.0
C323 C 0.61546 0.73847 0.29189 0.0
C324 C 0.58154 0.16971 0.49015 0.0
C325 C 0.5623 0.17675 0.46874 0.0
C326 C 0.59878 0.16454 0.51591 0.0
C327 C 0.60793 0.17099 0.53841 0.0
C328 C 0.13648 0.25493 0.74827 0.0
C329 C 0.13142 0.26398 0.72679 0.0
C330 C 0.13186 0.24485 0.77256 0.0
C331 C 0.11752 0.23786 0.79169 0.0
loop_
_geom_bond_atom_site_label_1
_geom_bond_atom_site_label_2
_geom_bond_distance
_geom_bond_site_symmetry_2
_ccdc_geom_bond_type
H0 C1 0.949 . S
C1 H0 0.949 . S
C1 C2 1.395 . S
C1 C3 1.391 . S
C2 C1 1.395 . S
C2 C5 1.390 . S
C3 C1 1.391 . S
C3 C7 1.387 . S
C3 C8 1.491 . S
H4 C5 0.950 . S
C5 C2 1.390 . S
C5 H4 0.950 . S
C5 C6 1.378 . S
C6 C5 1.378 . S
C6 C7 1.409 . S
C7 C3 1.387 . S
C7 C6 1.409 . S
C7 H9 0.951 . S
C8 C3 1.491 . S
C8 C10 1.382 . S
C8 C12 1.404 . S
H9 C7 0.951 . S
C10 C8 1.382 . S
C10 C11 1.390 . S
C10 H15 0.949 . S
C11 C10 1.390 . S
C11 C16 1.399 . S
C12 C8 1.404 . S
C12 H13 0.950 . S
C12 C14 1.375 . S
H13 C12 0.950 . S
C14 C12 1.375 . S
C14 C16 1.382 . S
C14 H18 0.950 . S
H15 C10 0.949 . S
C16 C11 1.399 . S
C16 C14 1.382 . S
C16 H17 0.952 . S
H17 C16 0.952 . S
H18 C14 0.950 . S
H19 C20 0.949 . S
C20 H19 0.949 . S
C20 C21 1.395 . S
C20 C22 1.391 . S
C21 C20 1.395 . S
C21 C24 1.390 . S
C22 C20 1.391 . S
C22 C26 1.387 . S
C22 C27 1.491 . S
H23 C24 0.950 . S
C24 C21 1.390 . S
C24 H23 0.950 . S
C24 C25 1.378 . S
C25 C24 1.378 . S
C25 C26 1.409 . S
C26 C22 1.387 . S
C26 C25 1.409 . S
C26 H28 0.951 . S
C27 C22 1.491 . S
C27 C29 1.382 1_455 S
C27 C31 1.404 . S
H28 C26 0.951 . S
C29 C27 1.382 1_655 S
C29 C30 1.390 . S
C29 H34 0.949 . S
C30 C29 1.390 . S
C30 C35 1.399 . S
C31 C27 1.404 . S
C31 H32 0.950 . S
C31 C33 1.375 . S
H32 C31 0.950 . S
C33 C31 1.375 . S
C33 C35 1.382 1_455 S
C33 H37 0.950 . S
H34 C29 0.949 . S
C35 C30 1.399 . S
C35 C33 1.382 1_655 S
C35 H36 0.952 . S
H36 C35 0.952 . S
H37 C33 0.950 . S
H38 C39 0.949 . S
C39 H38 0.949 . S
C39 C40 1.395 . S
C39 C41 1.391 . S
C40 C39 1.395 . S
C40 C43 1.390 . S
C41 C39 1.391 . S
C41 C45 1.387 . S
C41 C46 1.491 . S
H42 C43 0.950 . S
C43 C40 1.390 . S
C43 H42 0.950 . S
C43 C44 1.378 . S
C44 C43 1.378 . S
C44 C45 1.409 . S
C45 C41 1.387 . S
C45 C44 1.409 . S
C45 H47 0.951 . S
C46 C41 1.491 . S
C46 C48 1.382 . S
C46 C50 1.404 . S
H47 C45 0.951 . S
C48 C46 1.382 . S
C48 C49 1.390 . S
C48 H53 0.949 . S
C49 C48 1.390 . S
C49 C54 1.399 . S
C50 C46 1.404 . S
C50 H51 0.950 . S
C50 C52 1.375 . S
H51 C50 0.950 . S
C52 C50 1.375 . S
C52 C54 1.382 . S
C52 H56 0.950 . S
H53 C48 0.949 . S
C54 C49 1.399 . S
C54 C52 1.382 . S
C54 H55 0.952 . S
H55 C54 0.952 . S
H56 C52 0.950 . S
H57 C58 0.949 . S
C58 H57 0.949 . S
C58 C59 1.395 . S
C58 C60 1.391 . S
C59 C58 1.395 . S
C59 C62 1.390 . S
C60 C58 1.391 . S
C60 C64 1.387 . S
C60 C65 1.491 . S
H61 C62 0.950 . S
C62 C59 1.390 . S
C62 H61 0.950 . S
C62 C63 1.378 . S
C63 C62 1.378 . S
C63 C64 1.409 . S
C64 C60 1.387 . S
C64 C63 1.409 . S
C64 H66 0.951 . S
C65 C60 1.491 . S
C65 C67 1.382 . S
C65 C69 1.404 . S
H66 C64 0.951 . S
C67 C65 1.382 . S
C67 C68 1.390 . S
C67 H72 0.949 . S
C68 C67 1.390 . S
C68 C73 1.399 . S
C69 C65 1.404 . S
C69 H70 0.950 . S
C69 C71 1.375 . S
H70 C69 0.950 . S
C71 C69 1.375 . S
C71 C73 1.382 . S
C71 H75 0.950 . S
H72 C67 0.949 . S
C73 C68 1.399 . S
C73 C71 1.382 . S
C73 H74 0.952 . S
H74 C73 0.952 . S
H75 C71 0.950 . S
H76 C77 0.949 . S
C77 H76 0.949 . S
C77 C78 1.395 . S
C77 C79 1.391 1_455 S
C78 C77 1.395 . S
C78 C81 1.390 . S
C79 C77 1.391 1_655 S
C79 C83 1.385 1_655 S
C79 C84 1.492 . S
H80 C81 0.950 . S
C81 C78 1.390 . S
C81 H80 0.950 . S
C81 C82 1.378 . S
C82 C81 1.378 . S
C82 C83 1.412 . S
C83 C79 1.385 1_455 S
C83 C82 1.412 . S
C83 H85 0.951 1_455 S
C84 C79 1.492 . S
C84 C86 1.382 1_655 S
C84 C88 1.404 . S
H85 C83 0.951 1_655 S
C86 C84 1.382 1_455 S
C86 C87 1.390 1_455 S
C86 H91 0.949 . S
C87 C86 1.390 1_655 S
C87 C92 1.399 . S
C88 C84 1.404 . S
C88 H89 0.950 . S
C88 C90 1.375 . S
H89 C88 0.950 . S
C90 C88 1.375 . S
C90 C92 1.382 . S
C90 H94 0.950 . S
H91 C86 0.949 . S
C92 C87 1.399 . S
C92 C90 1.382 . S
C92 H93 0.952 . S
H93 C92 0.952 . S
H94 C90 0.950 . S
H95 C96 0.949 . S
C96 H95 0.949 . S
C96 C97 1.395 . S
C96 C98 1.391 . S
C97 C96 1.395 . S
C97 C100 1.390 . S
C98 C96 1.391 . S
C98 C102 1.387 . S
C98 C103 1.491 . S
H99 C100 0.950 . S
C100 C97 1.390 . S
C100 H99 0.950 . S
C100 C101 1.378 . S
C101 C100 1.378 . S
C101 C102 1.409 . S
C102 C98 1.387 . S
C102 C101 1.409 . S
C102 H104 0.951 . S
C103 C98 1.491 . S
C103 C105 1.382 . S
C103 C107 1.404 . S
H104 C102 0.951 . S
C105 C103 1.382 . S
C105 C106 1.390 . S
C105 H110 0.949 . S
C106 C105 1.390 . S
C106 C111 1.399 . S
C107 C103 1.404 . S
C107 H108 0.950 . S
C107 C109 1.375 . S
H108 C107 0.950 . S
C109 C107 1.375 . S
C109 C111 1.382 . S
C109 H113 0.950 . S
H110 C105 0.949 . S
C111 C106 1.399 . S
C111 C109 1.382 . S
C111 H112 0.952 . S
H112 C111 0.952 . S
H113 C109 0.950 . S
H114 C115 0.949 . S
C115 H114 0.949 . S
C115 C116 1.395 . S
C115 C117 1.391 . S
C116 C115 1.395 . S
C116 C119 1.390 . S
C117 C115 1.391 . S
C117 C121 1.387 . S
C117 C122 1.491 . S
H118 C119 0.950 . S
C119 C116 1.390 . S
C119 H118 0.950 . S
C119 C120 1.378 . S
C120 C119 1.378 . S
C120 C121 1.409 . S
C121 C117 1.387 . S
C121 C120 1.409 . S
C121 H123 0.951 . S
C122 C117 1.491 . S
C122 C124 1.382 . S
C122 C126 1.404 . S
H123 C121 0.951 . S
C124 C122 1.382 . S
C124 C125 1.390 . S
C124 H129 0.949 . S
C125 C124 1.390 . S
C125 C130 1.399 . S
C126 C122 1.404 . S
C126 H127 0.950 . S
C126 C128 1.375 . S
H127 C126 0.950 . S
C128 C126 1.375 . S
C128 C130 1.382 . S
C128 H132 0.950 . S
H129 C124 0.949 . S
C130 C125 1.399 . S
C130 C128 1.382 . S
C130 H131 0.952 . S
H131 C130 0.952 . S
H132 C128 0.950 . S
H133 C134 0.949 . S
C134 H133 0.949 . S
C134 C135 1.395 . S
C134 C136 1.391 . S
C135 C134 1.395 . S
C135 C138 1.390 . S
C136 C134 1.391 . S
C136 C140 1.387 . S
C136 C141 1.491 . S
H137 C138 0.950 . S
C138 C135 1.390 . S
C138 H137 0.950 . S
C138 C139 1.378 . S
C139 C138 1.378 . S
C139 C140 1.409 . S
C140 C136 1.387 . S
C140 C139 1.409 . S
C140 H142 0.951 . S
C141 C136 1.491 . S
C141 C143 1.382 . S
C141 C145 1.404 . S
H142 C140 0.951 . S
C143 C141 1.382 . S
C143 C144 1.390 . S
C143 H148 0.949 . S
C144 C143 1.390 . S
C144 C149 1.399 . S
C145 C141 1.404 . S
C145 H146 0.950 . S
C145 C147 1.375 . S
H146 C145 0.950 . S
C147 C145 1.375 . S
C147 C149 1.382 . S
C147 H151 0.950 . S
H148 C143 0.949 . S
C149 C144 1.399 . S
C149 C147 1.382 . S
C149 H150 0.952 . S
H150 C149 0.952 . S
H151 C147 0.950 . S
Zn152 O158 1.920 . S
Zn152 O164 1.898 . S
Zn152 O167 1.905 . S
Zn153 O161 1.905 . S
Zn153 O162 1.898 . S
Zn153 O170 1.920 . S
Zn154 O157 2.080 . S
Zn154 O160 2.114 . S
Zn154 O163 2.120 . S
Zn154 O165 2.120 . S
Zn154 O166 2.114 . S
Zn154 O169 2.080 . S
C155 O160 1.166 . S
C155 O161 1.182 . S
C156 O162 1.167 . S
C156 O163 1.299 . S
O157 Zn154 2.080 . S
O157 C171 1.305 . S
O158 Zn152 1.920 . S
O158 C171 1.234 . S
C159 O164 1.167 . S
C159 O165 1.299 . S
O160 Zn154 2.114 . S
O160 C155 1.166 . S
O161 Zn153 1.905 . S
O161 C155 1.182 . S
O162 Zn153 1.898 . S
O162 C156 1.167 . S
O163 Zn154 2.120 . S
O163 C156 1.299 . S
O164 Zn152 1.898 . S
O164 C159 1.167 . S
O165 Zn154 2.120 . S
O165 C159 1.299 . S
O166 Zn154 2.114 . S
O166 C168 1.166 . S
O167 Zn152 1.905 . S
O167 C168 1.182 . S
C168 O166 1.166 . S
C168 O167 1.182 . S
O169 Zn154 2.080 . S
O169 C172 1.305 . S
O170 Zn153 1.920 . S
O170 C172 1.234 . S
C171 O157 1.305 . S
C171 O158 1.234 . S
C172 O169 1.305 . S
C172 O170 1.234 . S
Zn173 O179 1.920 . S
Zn173 O185 1.898 . S
Zn173 O188 1.905 . S
Zn174 O182 1.905 . S
Zn174 O183 1.898 . S
Zn174 O191 1.920 . S
Zn175 O178 2.080 . S
Zn175 O181 2.114 . S
Zn175 O184 2.120 . S
Zn175 O186 2.120 . S
Zn175 O187 2.114 . S
Zn175 O190 2.080 . S
C176 O181 1.166 . S
C176 O182 1.182 . S
C177 O183 1.167 . S
C177 O184 1.299 . S
O178 Zn175 2.080 . S
O178 C192 1.305 . S
O179 Zn173 1.920 . S
O179 C192 1.234 . S
C180 O185 1.167 . S
C180 O186 1.299 . S
O181 Zn175 2.114 . S
O181 C176 1.166 . S
O182 Zn174 1.905 . S
O182 C176 1.182 . S
O183 Zn174 1.898 . S
O183 C177 1.167 . S
O184 Zn175 2.120 . S
O184 C177 1.299 . S
O185 Zn173 1.898 . S
O185 C180 1.167 . S
O186 Zn175 2.120 . S
O186 C180 1.299 . S
O187 Zn175 2.114 . S
O187 C189 1.166 . S
O188 Zn173 1.905 . S
O188 C189 1.182 . S
C189 O187 1.166 . S
C189 O188 1.182 . S
O190 Zn175 2.080 . S
O190 C193 1.305 . S
O191 Zn174 1.920 . S
O191 C193 1.234 . S
C192 O178 1.305 . S
C192 O179 1.234 . S
C193 O190 1.305 . S
C193 O191 1.234 . S
Zn194 O200 1.920 . S
Zn194 O206 1.898 . S
Zn194 O209 1.905 . S
Zn195 O203 1.905 . S
Zn195 O204 1.898 . S
Zn195 O212 1.920 . S
Zn196 O199 2.080 . S
Zn196 O202 2.114 . S
Zn196 O205 2.120 . S
Zn196 O207 2.120 . S
Zn196 O208 2.114 . S
Zn196 O211 2.080 . S
C197 O202 1.166 . S
C197 O203 1.182 . S
C198 O204 1.167 . S
C198 O205 1.299 . S
O199 Zn196 2.080 . S
O199 C213 1.305 . S
O200 Zn194 1.920 . S
O200 C213 1.234 . S
C201 O206 1.167 . S
C201 O207 1.299 . S
O202 Zn196 2.114 . S
O202 C197 1.166 . S
O203 Zn195 1.905 . S
O203 C197 1.182 . S
O204 Zn195 1.898 . S
O204 C198 1.167 . S
O205 Zn196 2.120 . S
O205 C198 1.299 . S
O206 Zn194 1.898 . S
O206 C201 1.167 . S
O207 Zn196 2.120 . S
O207 C201 1.299 . S
O208 Zn196 2.114 . S
O208 C210 1.166 . S
O209 Zn194 1.905 . S
O209 C210 1.182 . S
C210 O208 1.166 . S
C210 O209 1.182 . S
O211 Zn196 2.080 . S
O211 C214 1.305 . S
O212 Zn195 1.920 . S
O212 C214 1.234 . S
C213 O199 1.305 . S
C213 O200 1.234 . S
C214 O211 1.305 . S
C214 O212 1.234 . S
Zn215 O221 1.920 1_655 S
Zn215 O227 1.898 1_655 S
Zn215 O230 1.905 . S
Zn216 O224 1.905 . S
Zn216 O225 1.898 . S
Zn216 O233 1.920 . S
Zn217 O220 2.080 . S
Zn217 O223 2.114 . S
Zn217 O226 2.120 . S
Zn217 O228 2.120 . S
Zn217 O229 2.114 1_455 S
Zn217 O232 2.080 . S
C218 O223 1.166 . S
C218 O224 1.182 . S
C219 O225 1.167 . S
C219 O226 1.299 . S
O220 Zn217 2.080 . S
O220 C234 1.305 . S
O221 Zn215 1.920 1_455 S
O221 C234 1.234 . S
C222 O227 1.167 . S
C222 O228 1.299 . S
O223 Zn217 2.114 . S
O223 C218 1.166 . S
O224 Zn216 1.905 . S
O224 C218 1.182 . S
O225 Zn216 1.898 . S
O225 C219 1.167 . S
O226 Zn217 2.120 . S
O226 C219 1.299 . S
O227 Zn215 1.898 1_455 S
O227 C222 1.167 . S
O228 Zn217 2.120 . S
O228 C222 1.299 . S
O229 Zn217 2.114 1_655 S
O229 C231 1.166 . S
O230 Zn215 1.905 . S
O230 C231 1.182 . S
C231 O229 1.166 . S
C231 O230 1.182 . S
O232 Zn217 2.080 . S
O232 C235 1.305 . S
O233 Zn216 1.920 . S
O233 C235 1.234 . S
C234 O220 1.305 . S
C234 O221 1.234 . S
C235 O232 1.305 . S
C235 O233 1.234 . S
C236 C237 1.170 . S
C236 C238 1.380 . S
C237 C236 1.170 . S
C238 C236 1.380 . S
C238 C239 1.170 . S
C239 C238 1.170 . S
C240 C241 1.170 . S
C240 C242 1.380 . S
C241 C240 1.170 . S
C242 C240 1.380 . S
C242 C243 1.170 . S
C243 C242 1.170 . S
C244 C245 1.170 . S
C244 C246 1.380 . S
C245 C244 1.170 . S
C246 C244 1.380 . S
C246 C247 1.170 . S
C247 C246 1.170 . S
C248 C249 1.170 . S
C248 C250 1.380 . S
C249 C248 1.170 . S
C250 C248 1.380 . S
C250 C251 1.170 . S
C251 C250 1.170 . S
C252 C253 1.170 . S
C252 C254 1.380 . S
C253 C252 1.170 . S
C254 C252 1.380 . S
C254 C255 1.170 . S
C255 C254 1.170 . S
C256 C257 1.170 . S
C256 C258 1.380 . S
C257 C256 1.170 . S
C258 C256 1.380 . S
C258 C259 1.170 . S
C259 C258 1.170 . S
C260 C261 1.170 . S
C260 C262 1.380 . S
C261 C260 1.170 . S
C262 C260 1.380 . S
C262 C263 1.170 . S
C263 C262 1.170 . S
C264 C265 1.170 . S
C264 C266 1.380 . S
C265 C264 1.170 . S
C266 C264 1.380 . S
C266 C267 1.170 . S
C267 C266 1.170 . S
C268 C269 1.170 . S
C268 C270 1.380 . S
C269 C268 1.170 . S
C270 C268 1.380 . S
C270 C271 1.170 . S
C271 C270 1.170 . S
C272 C273 1.170 . S
C272 C274 1.380 . S
C273 C272 1.170 . S
C274 C272 1.380 . S
C274 C275 1.170 . S
C275 C274 1.170 . S
C276 C277 1.170 . S
C276 C278 1.380 . S
C277 C276 1.170 . S
C278 C276 1.380 . S
C278 C279 1.170 . S
C279 C278 1.170 . S
C280 C281 1.170 . S
C280 C282 1.380 . S
C281 C280 1.170 . S
C282 C280 1.380 . S
C282 C283 1.170 . S
C283 C282 1.170 . S
C284 C285 1.170 . S
C284 C286 1.380 . S
C285 C284 1.170 . S
C286 C284 1.380 . S
C286 C287 1.170 1_565 S
C287 C286 1.170 1_545 S
C288 C289 1.170 1_565 S
C288 C290 1.380 . S
C289 C288 1.170 1_545 S
C290 C288 1.380 . S
C290 C291 1.170 . S
C291 C290 1.170 . S
C292 C293 1.170 . S
C292 C294 1.380 1_545 S
C293 C292 1.170 . S
C294 C292 1.380 1_565 S
C294 C295 1.170 . S
C295 C294 1.170 . S
C296 C297 1.165 1_545 S
C296 C298 1.385 . S
C297 C296 1.165 1_565 S
C298 C296 1.385 . S
C298 C299 1.170 . S
C299 C298 1.170 . S
C300 C301 1.169 . S
C300 C302 1.381 1_554 S
C301 C300 1.169 . S
C302 C300 1.381 1_556 S
C302 C303 1.170 . S
C303 C302 1.170 . S
C304 C305 1.170 . S
C304 C306 1.380 . S
C305 C304 1.170 . S
C306 C304 1.380 . S
C306 C307 1.170 . S
C307 C306 1.170 . S
C308 C309 1.170 . S
C308 C310 1.380 . S
C309 C308 1.170 . S
C310 C308 1.380 . S
C310 C311 1.170 . S
C311 C310 1.170 . S
C312 C313 1.170 . S
C312 C314 1.380 . S
C313 C312 1.170 . S
C314 C312 1.380 . S
C314 C315 1.170 . S
C315 C314 1.170 . S
C316 C317 1.170 . S
C316 C318 1.380 1_556 S
C317 C316 1.170 . S
C318 C316 1.380 1_554 S
C318 C319 1.170 . S
C319 C318 1.170 . S
C320 C321 1.170 . S
C320 C322 1.380 . S
C321 C320 1.170 . S
C322 C320 1.380 . S
C322 C323 1.170 . S
C323 C322 1.170 . S
C324 C325 1.170 . S
C324 C326 1.380 . S
C325 C324 1.170 . S
C326 C324 1.380 . S
C326 C327 1.170 . S
C327 C326 1.170 . S
C328 C329 1.170 . S
C328 C330 1.380 . S
C329 C328 1.170 . S
C330 C328 1.380 . S
C330 C331 1.170 . S
C331 C330 1.170 . S
C239 C159 1.412 . S
C237 C6 1.550 . S
C243 C177 1.408 . S
C241 C30 1.446 . S
C245 C49 1.365 . S
C247 C201 1.380 . S
C251 C231 1.302 . S
C249 C63 1.446 . S
C255 C219 1.274 . S
C253 C82 1.372 . S
C257 C106 1.466 . S
C259 C172 1.435 1_655 S
C261 C125 1.629 . S
C263 C192 1.528 . S
C265 C139 1.434 1_655 S
C267 C197 1.295 . S
C269 C144 1.429 . S
C271 C213 1.378 . S
C273 C101 1.436 . S
C275 C168 1.292 . S
C279 C235 1.431 . S
C277 C68 1.458 . S
C283 C180 1.285 . S
C281 C25 1.431 . S
C285 C44 1.559 . S
C287 C198 1.382 . S
C289 C11 1.357 . S
C291 C156 1.332 . S
C295 C176 1.325 . S
C293 C120 1.392 . S
C299 C222 1.508 . S
C297 C87 1.630 1_455 S
C303 C218 1.409 . S
C301 C2 1.567 . S
C307 C171 1.540 . S
C305 C21 1.565 . S
C309 C40 1.528 . S
C311 C193 1.395 . S
C313 C59 1.599 . S
C315 C214 1.570 . S
C319 C155 1.377 . S
C317 C78 1.642 . S
C321 C97 1.554 . S
C323 C189 1.519 . S
C327 C210 1.386 . S
C325 C116 1.641 . S
C331 C234 1.484 . S
C329 C135 1.530 . S
