# Generated by pormake.
# Topology ctn, (3,4)-cn, num edge types: 1
# Building blocks:
#     Node 0, Type 0, BuildingBlock: BETDAH_clean_linker_0, # of connection points: 3
#     Node 1, Type 0, BuildingBlock: BETDAH_clean_linker_0, # of connection points: 3
#     Node 2, Type 0, BuildingBlock: BETDAH_clean_linker_0, # of connection points: 3
#     Node 3, Type 0, BuildingBlock: BETDAH_clean_linker_0, # of connection points: 3
#     Node 4, Type 0, BuildingBlock: BETDAH_clean_linker_0, # of connection points: 3
#     Node 5, Type 0, BuildingBlock: BETDAH_clean_linker_0, # of connection points: 3
#     Node 6, Type 0, BuildingBlock: BETDAH_clean_linker_0, # of connection points: 3
#     Node 7, Type 0, BuildingBlock: BETDAH_clean_linker_0, # of connection points: 3
#     Node 8, Type 0, BuildingBlock: BETDAH_clean_linker_0, # of connection points: 3
#     Node 9, Type 0, BuildingBlock: BETDAH_clean_linker_0, # of connection points: 3
#     Node 10, Type 0, BuildingBlock: BETDAH_clean_linker_0, # of connection points: 3
#     Node 11, Type 0, BuildingBlock: BETDAH_clean_linker_0, # of connection points: 3
#     Node 12, Type 0, BuildingBlock: BETDAH_clean_linker_0, # of connection points: 3
#     Node 13, Type 0, BuildingBlock: BETDAH_clean_linker_0, # of connection points: 3
#     Node 14, Type 0, BuildingBlock: BETDAH_clean_linker_0, # of connection points: 3
#     Node 15, Type 0, BuildingBlock: BETDAH_clean_linker_0, # of connection points: 3
#     Node 16, Type 1, BuildingBlock: KUFVIS_clean_sbu_0, # of connection points: 4
#     Node 17, Type 1, BuildingBlock: KUFVIS_clean_sbu_0, # of connection points: 4
#     Node 18, Type 1, BuildingBlock: KUFVIS_clean_sbu_0, # of connection points: 4
#     Node 19, Type 1, BuildingBlock: KUFVIS_clean_sbu_0, # of connection points: 4
#     Node 20, Type 1, BuildingBlock: KUFVIS_clean_sbu_0, # of connection points: 4
#     Node 21, Type 1, BuildingBlock: KUFVIS_clean_sbu_0, # of connection points: 4
#     Node 22, Type 1, BuildingBlock: KUFVIS_clean_sbu_0, # of connection points: 4
#     Node 23, Type 1, BuildingBlock: KUFVIS_clean_sbu_0, # of connection points: 4
#     Node 24, Type 1, BuildingBlock: KUFVIS_clean_sbu_0, # of connection points: 4
#     Node 25, Type 1, BuildingBlock: KUFVIS_clean_sbu_0, # of connection points: 4
#     Node 26, Type 1, BuildingBlock: KUFVIS_clean_sbu_0, # of connection points: 4
#     Node 27, Type 1, BuildingBlock: KUFVIS_clean_sbu_0, # of connection points: 4
#     Edge 28, Type (0, 1), BuildingBlock: OJICUG_clean_linker_0, # of connection points: 2
#     Edge 29, Type (0, 1), BuildingBlock: OJICUG_clean_linker_0, # of connection points: 2
#     Edge 30, Type (0, 1), BuildingBlock: OJICUG_clean_linker_0, # of connection points: 2
#     Edge 31, Type (0, 1), BuildingBlock: OJICUG_clean_linker_0, # of connection points: 2
#     Edge 32, Type (0, 1), BuildingBlock: OJICUG_clean_linker_0, # of connection points: 2
#     Edge 33, Type (0, 1), BuildingBlock: OJICUG_clean_linker_0, # of connection points: 2
#     Edge 34, Type (0, 1), BuildingBlock: OJICUG_clean_linker_0, # of connection points: 2
#     Edge 35, Type (0, 1), BuildingBlock: OJICUG_clean_linker_0, # of connection points: 2
#     Edge 36, Type (0, 1), BuildingBlock: OJICUG_clean_linker_0, # of connection points: 2
#     Edge 37, Type (0, 1), BuildingBlock: OJICUG_clean_linker_0, # of connection points: 2
#     Edge 38, Type (0, 1), BuildingBlock: OJICUG_clean_linker_0, # of connection points: 2
#     Edge 39, Type (0, 1), BuildingBlock: OJICUG_clean_linker_0, # of connection points: 2
#     Edge 40, Type (0, 1), BuildingBlock: OJICUG_clean_linker_0, # of connection points: 2
#     Edge 41, Type (0, 1), BuildingBlock: OJICUG_clean_linker_0, # of connection points: 2
#     Edge 42, Type (0, 1), BuildingBlock: OJICUG_clean_linker_0, # of connection points: 2
#     Edge 43, Type (0, 1), BuildingBlock: OJICUG_clean_linker_0, # of connection points: 2
#     Edge 44, Type (0, 1), BuildingBlock: OJICUG_clean_linker_0, # of connection points: 2
#     Edge 45, Type (0, 1), BuildingBlock: OJICUG_clean_linker_0, # of connection points: 2
#     Edge 46, Type (0, 1), BuildingBlock: OJICUG_clean_linker_0, # of connection points: 2
#     Edge 47, Type (0, 1), BuildingBlock: OJICUG_clean_linker_0, # of connection points: 2
#     Edge 48, Type (0, 1), BuildingBlock: OJICUG_clean_linker_0, # of connection points: 2
#     Edge 49, Type (0, 1), BuildingBlock: OJICUG_clean_linker_0, # of connection points: 2
#     Edge 50, Type (0, 1), BuildingBlock: OJICUG_clean_linker_0, # of connection points: 2
#     Edge 51, Type (0, 1), BuildingBlock: OJICUG_clean_linker_0, # of connection points: 2
#     Edge 52, Type (0, 1), BuildingBlock: OJICUG_clean_linker_0, # of connection points: 2
#     Edge 53, Type (0, 1), BuildingBlock: OJICUG_clean_linker_0, # of connection points: 2
#     Edge 54, Type (0, 1), BuildingBlock: OJICUG_clean_linker_0, # of connection points: 2
#     Edge 55, Type (0, 1), BuildingBlock: OJICUG_clean_linker_0, # of connection points: 2
#     Edge 56, Type (0, 1), BuildingBlock: OJICUG_clean_linker_0, # of connection points: 2
#     Edge 57, Type (0, 1), BuildingBlock: OJICUG_clean_linker_0, # of connection points: 2
#     Edge 58, Type (0, 1), BuildingBlock: OJICUG_clean_linker_0, # of connection points: 2
#     Edge 59, Type (0, 1), BuildingBlock: OJICUG_clean_linker_0, # of connection points: 2
#     Edge 60, Type (0, 1), BuildingBlock: OJICUG_clean_linker_0, # of connection points: 2
#     Edge 61, Type (0, 1), BuildingBlock: OJICUG_clean_linker_0, # of connection points: 2
#     Edge 62, Type (0, 1), BuildingBlock: OJICUG_clean_linker_0, # of connection points: 2
#     Edge 63, Type (0, 1), BuildingBlock: OJICUG_clean_linker_0, # of connection points: 2
#     Edge 64, Type (0, 1), BuildingBlock: OJICUG_clean_linker_0, # of connection points: 2
#     Edge 65, Type (0, 1), BuildingBlock: OJICUG_clean_linker_0, # of connection points: 2
#     Edge 66, Type (0, 1), BuildingBlock: OJICUG_clean_linker_0, # of connection points: 2
#     Edge 67, Type (0, 1), BuildingBlock: OJICUG_clean_linker_0, # of connection points: 2
#     Edge 68, Type (0, 1), BuildingBlock: OJICUG_clean_linker_0, # of connection points: 2
#     Edge 69, Type (0, 1), BuildingBlock: OJICUG_clean_linker_0, # of connection points: 2
#     Edge 70, Type (0, 1), BuildingBlock: OJICUG_clean_linker_0, # of connection points: 2
#     Edge 71, Type (0, 1), BuildingBlock: OJICUG_clean_linker_0, # of connection points: 2
#     Edge 72, Type (0, 1), BuildingBlock: OJICUG_clean_linker_0, # of connection points: 2
#     Edge 73, Type (0, 1), BuildingBlock: OJICUG_clean_linker_0, # of connection points: 2
#     Edge 74, Type (0, 1), BuildingBlock: OJICUG_clean_linker_0, # of connection points: 2
#     Edge 75, Type (0, 1), BuildingBlock: OJICUG_clean_linker_0, # of connection points: 2
# Relax obj value: 0.062
# Max RMSD: 0.155
# Mean RMSD: 0.104
data_MOF--net-ctn--node1-KUFVIS_clean_sbu_0--node2-BETDAH_clean_linker_0--edge1-OJICUG_clean_linker_0
_symmetry_space_group_name_H-M    P1
_symmetry_Int_Tables_number       1
_symmetry_cell_setting            triclinic
loop_
_symmetry_equiv_pos_as_xyz
'x, y, z'
_cell_length_a     38.161685
_cell_length_b     37.795015
_cell_length_c     38.610101
_cell_angle_alpha  100.09277
_cell_angle_beta   90.550292
_cell_angle_gamma 96.816499
loop_
_atom_site_label
_atom_site_type_symbol
_atom_site_fract_x
_atom_site_fract_y
_atom_site_fract_z
_atom_type_partial_charge
H0 H 0.10023 0.98803 0.11632 0.0
H1 H 0.0962 0.03062 0.0196 0.0
H2 H 0.017 0.04954 0.09562 0.0
C3 C 0.08839 1.00387 0.09964 0.0
C4 C 0.05806 0.02007 0.11105 0.0
C5 C 0.10264 1.0071 0.06646 0.0
C6 C 0.08619 0.02756 0.04518 0.0
C7 C 0.05547 0.04275 0.05581 0.0
C8 C 0.04161 0.03891 0.08848 0.0
N9 N 0.03477 0.05593 0.03142 0.0
C10 C 0.0431 0.08913 0.02083 0.0
H11 H 0.37091 0.6757 0.27509 0.0
H12 H 0.43724 0.75258 0.22805 0.0
H13 H 0.33208 0.71508 0.1854 0.0
C14 C 0.37479 0.6925 0.25505 0.0
C15 C 0.34738 0.69286 0.23056 0.0
C16 C 0.40687 0.71433 0.25471 0.0
C17 C 0.41229 0.73569 0.22863 0.0
C18 C 0.38572 0.73615 0.20356 0.0
C19 C 0.35295 0.71473 0.20451 0.0
N20 N 0.39363 0.75834 0.1779 0.0
C21 C 0.36929 0.77084 0.15747 0.0
H22 H 0.06449 0.44865 0.08807 0.0
H23 H 0.03546 0.55647 0.09088 0.0
H24 H 0.99995 0.47176 1.00518 0.0
C25 C 0.05044 0.46779 0.07746 0.0
C26 C 0.03068 0.45572 0.04582 0.0
C27 C 0.05241 0.50417 0.09479 0.0
C28 C 0.0347 0.52831 0.07885 0.0
C29 C 0.0162 0.51673 0.04658 0.0
C30 C 0.01375 0.48041 0.03048 0.0
N31 N 1.00533 0.54264 0.02769 0.0
C32 C 0.97106 0.55153 0.02751 0.0
H33 H 0.79348 0.84925 0.1624 0.0
H34 H 0.68498 0.80611 0.171 0.0
H35 H 0.73177 0.89569 0.24772 0.0
C36 C 0.76881 0.84968 0.17607 0.0
C37 C 0.76622 0.87583 0.20636 0.0
C38 C 0.73978 0.82415 0.16321 0.0
C39 C 0.70777 0.82539 0.18067 0.0
C40 C 0.70516 0.85049 0.21147 0.0
C41 C 0.7344 0.87554 0.2245 0.0
N42 N 0.67207 0.85178 0.22744 0.0
C43 C 0.66688 0.84795 0.26219 0.0
H44 H 0.10278 0.02525 0.44579 0.0
H45 H 0.10176 1.00758 0.55333 0.0
H46 H 1.00599 0.98783 0.49014 0.0
C47 C 0.08917 0.01681 0.46789 0.0
C48 C 0.0527 1.00621 0.46408 0.0
C49 C 0.10735 0.01919 0.50034 0.0
C50 C 0.0886 1.00679 0.52819 0.0
C51 C 0.0522 0.99472 0.52418 0.0
C52 C 0.03428 0.99572 0.49259 0.0
N53 N 0.0324 0.9859 0.55305 0.0
C54 C 0.03527 0.95498 0.56735 0.0
H55 H 0.29986 0.70038 0.8881 0.0
H56 H 0.2125 0.73309 0.83478 0.0
H57 H 0.27147 0.65084 0.78125 0.0
C58 C 0.28269 0.69771 0.86502 0.0
C59 C 0.28861 0.67283 0.83487 0.0
C60 C 0.25551 0.71998 0.8651 0.0
C61 C 0.23321 0.71586 0.83502 0.0
C62 C 0.23896 0.69082 0.80469 0.0
C63 C 0.26686 0.66984 0.80477 0.0
N64 N 0.21812 0.68656 0.7732 0.0
C65 C 0.18756 0.70244 0.76938 0.0
H66 H 0.93853 0.58611 0.53505 0.0
H67 H 0.04163 0.58683 0.48974 0.0
H68 H 0.96899 0.48916 0.47466 0.0
C69 C 0.95811 0.57267 0.51961 0.0
C70 C 0.95002 0.53579 0.50568 0.0
C71 C 0.99183 0.59121 0.5159 0.0
C72 C 0.01596 0.57299 0.49403 0.0
C73 C 1.00734 0.53629 0.47862 0.0
C74 C 0.97506 0.51768 0.48574 0.0
N75 N 0.03116 0.5166 0.45739 0.0
C76 C 0.05406 0.53094 0.43418 0.0
H77 H 0.89278 0.77534 0.84656 0.0
H78 H 0.86727 0.87346 0.81516 0.0
H79 H 0.82429 0.84145 0.90913 0.0
C80 C 0.87932 0.79936 0.85134 0.0
C81 C 0.85812 0.80518 0.88079 0.0
C82 C 0.88304 0.82388 0.82764 0.0
C83 C 0.86508 0.85478 0.83357 0.0
C84 C 0.84393 0.86104 0.86324 0.0
C85 C 0.84125 0.83665 0.88686 0.0
N86 N 0.82496 0.89149 0.87064 0.0
C87 C 0.8114 0.90934 0.84586 0.0
H88 H 0.38689 0.2725 0.3481 0.0
H89 H 0.38559 0.37841 0.32077 0.0
H90 H 0.33241 0.35224 0.41202 0.0
C91 C 0.37913 0.29954 0.35354 0.0
C92 C 0.3579 0.30896 0.38242 0.0
C93 C 0.38943 0.32438 0.33099 0.0
C94 C 0.37827 0.35909 0.33791 0.0
C95 C 0.35764 0.36891 0.36716 0.0
C96 C 0.34819 0.34415 0.38945 0.0
N97 N 0.34758 0.40418 0.3759 0.0
C98 C 0.32772 0.41969 0.35353 0.0
H99 H 0.56023 0.95262 0.58811 0.0
H100 H 0.5261 0.05746 0.58535 0.0
H101 H 0.50921 0.97241 0.49549 0.0
C102 C 0.54686 0.9708 0.57538 0.0
C103 C 0.53344 0.95818 0.54101 0.0
C104 C 0.54511 1.00686 0.59208 0.0
C105 C 0.52822 0.02967 0.57355 0.0
C106 C 0.51534 0.01723 0.53876 0.0
C107 C 0.51844 0.9817 0.52257 0.0
N108 N 0.50433 0.04157 0.51799 0.0
C109 C 0.47198 0.05516 0.52122 0.0
H110 H 0.28841 0.34783 0.66443 0.0
H111 H 0.18065 0.30326 0.67477 0.0
H112 H 0.22645 0.39546 0.74896 0.0
C113 C 0.26384 0.34818 0.67825 0.0
C114 C 0.26102 0.37502 0.70795 0.0
C115 C 0.23515 0.32189 0.66618 0.0
C116 C 0.20323 0.32307 0.68385 0.0
C117 C 0.20037 0.34897 0.714 0.0
C118 C 0.22928 0.37476 0.72625 0.0
N119 N 0.16721 0.35039 0.72986 0.0
C120 C 0.16198 0.34774 0.76489 0.0
H121 H 0.8683 0.17182 0.76961 0.0
H122 H 0.93549 0.24826 0.72289 0.0
H123 H 0.83068 0.21104 0.67927 0.0
C124 C 0.87244 0.1885 0.74952 0.0
C125 C 0.84527 0.18887 0.72472 0.0
C126 C 0.90458 0.21035 0.74951 0.0
C127 C 0.91047 0.23141 0.72325 0.0
C128 C 0.88423 0.23178 0.69784 0.0
C129 C 0.8513 0.2106 0.69861 0.0
N130 N 0.89262 0.25358 0.67195 0.0
C131 C 0.86859 0.26739 0.65229 0.0
H132 H 0.59855 0.48507 0.61758 0.0
H133 H 0.59682 0.53383 0.52421 0.0
H134 H 0.51658 0.54917 0.59978 0.0
C135 C 0.58718 0.50207 0.60179 0.0
C136 C 0.55698 0.51819 0.61375 0.0
C137 C 0.60203 0.50713 0.56925 0.0
C138 C 0.58625 0.52927 0.54919 0.0
C139 C 0.55548 0.54419 0.56028 0.0
C140 C 0.54105 0.53845 0.59221 0.0
N141 N 0.53545 0.55993 0.5373 0.0
C142 C 0.54709 0.59117 0.52425 0.0
H143 H 0.59392 0.53637 0.94853 0.0
H144 H 0.60127 0.51479 0.05438 0.0
H145 H 0.5051 0.48148 0.99263 0.0
C146 C 0.58259 0.52506 0.97032 0.0
C147 C 0.54764 0.50834 0.96674 0.0
C148 C 0.60264 0.52762 1.00169 0.0
C149 C 0.5868 0.51272 0.02969 0.0
C150 C 0.55177 0.49578 0.02632 0.0
C151 C 0.5324 0.49366 0.99484 0.0
N152 N 0.53416 0.48615 0.05611 0.0
C153 C 0.53615 0.45355 0.06771 0.0
H154 H 0.80255 0.20411 0.38767 0.0
H155 H 0.71416 0.23348 0.33305 0.0
H156 H 0.77295 0.14952 0.2826 0.0
C157 C 0.78513 0.20034 0.36464 0.0
C158 C 0.79072 0.17417 0.3354 0.0
C159 C 0.75762 0.22211 0.36398 0.0
C160 C 0.73504 0.21656 0.33393 0.0
C161 C 0.74061 0.19029 0.30448 0.0
C162 C 0.76854 0.16953 0.30542 0.0
N163 N 0.71947 0.18442 0.27304 0.0
C164 C 0.689 0.20015 0.26843 0.0
H165 H 0.43799 0.08428 0.03372 0.0
H166 H 0.54031 0.0858 0.98673 0.0
H167 H 0.4681 0.98782 0.97208 0.0
C168 C 0.45741 0.07102 0.01787 0.0
C169 C 0.44935 0.03418 1.00379 0.0
C170 C 0.49093 0.08975 0.01374 0.0
C171 C 0.51481 0.07179 0.99133 0.0
C172 C 0.5062 0.03513 0.97578 0.0
C173 C 0.47417 0.01631 0.98328 0.0
N174 N 0.52977 0.01572 0.95396 0.0
C175 C 0.55248 0.03049 0.93085 0.0
Mn176 Mn 0.27432 0.87917 0.02858 0.0
Mn177 Mn 0.26442 0.90707 0.95114 0.0
C178 C 0.24879 0.83958 0.97961 0.0
C179 C 0.30474 0.85169 0.06728 0.0
C180 C 0.21905 0.92796 0.01369 0.0
O181 O 0.31113 0.92391 0.03337 0.0
O182 O 0.30196 0.94027 0.98062 0.0
C183 C 0.33403 0.89368 0.92171 0.0
N184 N 0.29811 0.88738 0.91922 0.0
C185 C 0.29992 0.84584 0.86452 0.0
C186 C 0.33691 0.85206 0.86644 0.0
C187 C 0.35401 0.87605 0.89517 0.0
C188 C 0.28138 0.86437 0.89164 0.0
H189 H 0.34736 0.91189 0.94383 0.0
C190 C 0.3183 0.9444 0.01056 0.0
O191 O 0.28152 0.87318 0.07838 0.0
O192 O 0.31159 0.84774 0.03407 0.0
N193 N 0.22951 0.87609 0.92031 0.0
C194 C 0.19384 0.87106 0.92364 0.0
C195 C 0.17287 0.84707 0.89751 0.0
C196 C 0.18876 0.82844 0.86828 0.0
C197 C 0.22552 0.83396 0.86546 0.0
C198 C 0.24505 0.85848 0.89215 0.0
H199 H 0.18152 0.885 0.94623 0.0
O200 O 0.24087 0.83401 0.011 0.0
O201 O 0.26941 0.86904 0.97834 0.0
O202 O 0.23405 0.91103 0.03427 0.0
O203 O 0.22797 0.92796 0.98187 0.0
C204 C 0.2436 0.81553 0.83759 0.0
C205 C 0.28078 0.82139 0.83717 0.0
H206 H 0.35243 0.8383 0.84617 0.0
H207 H 0.38256 0.88084 0.89694 0.0
H208 H 0.14453 0.84277 0.9 0.0
H209 H 0.17253 0.80966 0.84838 0.0
H210 H 0.2292 0.7964 0.8166 0.0
H211 H 0.29441 0.80661 0.81589 0.0
Mn212 Mn 0.19968 0.54128 0.27051 0.0
Mn213 Mn 0.16662 0.62112 0.27699 0.0
C214 C 0.22996 0.58857 0.24819 0.0
C215 C 0.23478 0.50391 0.29415 0.0
C216 C 0.14029 0.55527 0.22217 0.0
O217 O 0.16323 0.53816 0.3082 0.0
O218 O 0.14263 0.59195 0.31044 0.0
C219 C 0.19285 0.65282 0.34957 0.0
N220 N 0.19095 0.65492 0.31475 0.0
C221 C 0.22764 0.71235 0.32466 0.0
C222 C 0.22974 0.7109 0.36065 0.0
C223 C 0.21229 0.68099 0.37314 0.0
C224 C 0.2075 0.68369 0.30247 0.0
H225 H 0.17977 0.62975 0.35931 0.0
C226 C 0.14309 0.56158 0.32091 0.0
O227 O 0.20997 0.49037 0.2706 0.0
O228 O 0.23831 0.53867 0.30444 0.0
N229 N 0.18793 0.65243 0.24698 0.0
C230 C 0.18655 0.64787 0.21118 0.0
C231 C 0.20387 0.67473 0.19432 0.0
C232 C 0.22265 0.70589 0.21441 0.0
C233 C 0.22398 0.70988 0.2512 0.0
C234 C 0.20574 0.68246 0.26658 0.0
H235 H 0.17313 0.62355 0.1956 0.0
O236 O 0.23558 0.55546 0.23656 0.0
O237 O 0.20674 0.59297 0.27253 0.0
O238 O 0.16013 0.53376 0.23225 0.0
O239 O 0.14082 0.58842 0.23684 0.0
C240 C 0.2437 0.73939 0.27312 0.0
C241 C 0.24556 0.74061 0.30982 0.0
H242 H 0.24503 0.73238 0.37885 0.0
H243 H 0.21398 0.67956 0.40084 0.0
H244 H 0.20315 0.67118 0.16588 0.0
H245 H 0.23648 0.72626 0.20128 0.0
H246 H 0.25816 0.76093 0.26196 0.0
H247 H 0.26138 0.76308 0.32633 0.0
Mn248 Mn 0.79476 0.64806 0.01397 0.0
Mn249 Mn 0.72615 0.67294 0.97132 0.0
C250 C 0.73926 0.61479 0.01209 0.0
C251 C 0.84488 0.61836 0.01655 0.0
C252 C 0.75281 0.71037 0.04405 0.0
O253 O 0.81953 0.68305 0.98445 0.0
O254 O 0.7717 0.69627 0.95689 0.0
C255 C 0.74138 0.63593 0.89995 0.0
N256 N 0.71848 0.6419 0.92657 0.0
C257 C 0.67116 0.60405 0.89178 0.0
C258 C 0.69413 0.59773 0.86384 0.0
C259 C 0.72949 0.61354 0.86806 0.0
C260 C 0.68469 0.62615 0.92311 0.0
H261 H 0.76849 0.6482 0.90305 0.0
C262 C 0.80501 0.69934 0.96292 0.0
O263 O 0.83967 0.64646 0.03954 0.0
O264 O 0.82115 0.60767 0.99129 0.0
N265 N 0.67976 0.65305 0.98161 0.0
C266 C 0.66113 0.66151 0.01124 0.0
C267 C 0.6254 0.64739 0.01158 0.0
C268 C 0.60894 0.62561 0.98118 0.0
C269 C 0.62841 0.61806 0.95072 0.0
C270 C 0.66401 0.6325 0.95209 0.0
H271 H 0.67346 0.67884 0.03443 0.0
O272 O 0.76276 0.61307 0.03604 0.0
O273 O 0.74906 0.63516 0.98907 0.0
O274 O 0.77725 0.6906 0.04615 0.0
O275 O 0.73165 0.70611 0.01738 0.0
C276 C 0.61391 0.59686 0.91901 0.0
C277 C 0.63534 0.58944 0.88972 0.0
H278 H 0.68495 0.58073 0.8391 0.0
H279 H 0.74744 0.60868 0.84669 0.0
H280 H 0.6105 0.65352 0.03513 0.0
H281 H 0.58136 0.61484 0.98151 0.0
H282 H 0.58633 0.5859 0.91688 0.0
H283 H 0.62397 0.57261 0.8657 0.0
Mn284 Mn 0.92397 0.02755 0.28675 0.0
Mn285 Mn 0.94366 0.94144 0.27386 0.0
C286 C 0.88664 0.98128 0.25324 0.0
C287 C 0.8954 0.0754 0.3156 0.0
C288 C 0.97923 0.9983 0.23511 0.0
O289 O 0.95954 0.02896 0.32717 0.0
O290 O 0.97104 0.97077 0.31541 0.0
C291 C 0.91315 0.92013 0.33853 0.0
N292 N 0.91454 0.91465 0.30277 0.0
C293 C 0.86952 0.86347 0.29697 0.0
C294 C 0.86778 0.86845 0.33373 0.0
C295 C 0.88966 0.89692 0.35458 0.0
C296 C 0.8936 0.88731 0.28245 0.0
H297 H 0.92975 0.94207 0.35468 0.0
C298 C 0.97528 1.00273 0.33397 0.0
O299 O 0.92256 0.08098 0.29642 0.0
O300 O 0.88663 0.04237 0.32028 0.0
N301 N 0.91839 0.91019 0.23486 0.0
C302 C 0.9221 0.91011 0.19977 0.0
C303 C 0.90152 0.88375 0.1753 0.0
C304 C 0.87746 0.85768 0.18712 0.0
C305 C 0.87432 0.85812 0.22334 0.0
C306 C 0.8958 0.88482 0.2465 0.0
H307 H 0.94043 0.93016 0.1905 0.0
O308 O 0.88672 0.01436 0.24832 0.0
O309 O 0.90902 0.97615 0.27685 0.0
O310 O 0.96299 0.02409 0.25035 0.0
O311 O 0.97414 0.96634 0.2421 0.0
C312 C 0.85025 0.83352 0.23737 0.0
C313 C 0.84783 0.83623 0.27416 0.0
H314 H 0.84953 0.85075 0.34623 0.0
H315 H 0.88833 0.90104 0.38297 0.0
H316 H 0.90405 0.88363 0.1474 0.0
H317 H 0.86137 0.83762 0.16818 0.0
H318 H 0.83315 0.81275 0.22011 0.0
H319 H 0.8289 0.81745 0.28464 0.0
Mn320 Mn 0.29326 0.14972 0.51259 0.0
Mn321 Mn 0.21867 0.16967 0.4758 0.0
C322 C 0.23995 0.11276 0.51369 0.0
C323 C 0.34575 0.12307 0.51213 0.0
C324 C 0.24868 0.20836 0.54677 0.0
O325 O 0.31298 0.18572 0.48122 0.0
O326 O 0.26121 0.19624 0.45918 0.0
C327 C 0.23038 0.13552 0.40247 0.0
N328 N 0.20949 0.13914 0.43095 0.0
C329 C 0.16117 0.10066 0.39826 0.0
C330 C 0.18214 0.0965 0.36853 0.0
C331 C 0.217 0.11376 0.37074 0.0
C332 C 0.17628 0.12186 0.42939 0.0
H333 H 0.25696 0.14933 0.40393 0.0
C334 C 0.29492 0.2017 0.46197 0.0
O335 O 0.34046 0.15101 0.53525 0.0
O336 O 0.32088 0.11107 0.48821 0.0
N337 N 0.17466 0.1466 0.48887 0.0
C338 C 0.15791 0.15348 0.51991 0.0
C339 C 0.12286 0.13801 0.52225 0.0
C340 C 0.10501 0.11671 0.49236 0.0
C341 C 0.12247 0.11088 0.46045 0.0
C342 C 0.15764 0.12627 0.45993 0.0
H343 H 0.17117 0.17068 0.54269 0.0
O344 O 0.2653 0.11291 0.53636 0.0
O345 O 0.24643 0.13378 0.49061 0.0
O346 O 0.27532 0.19099 0.5465 0.0
O347 O 0.2253 0.20224 0.52191 0.0
C348 C 0.10621 0.09083 0.429 0.0
C349 C 0.12572 0.08512 0.3981 0.0
H350 H 0.17171 0.08022 0.34386 0.0
H351 H 0.23334 0.11071 0.34791 0.0
H352 H 0.10949 0.1429 0.54691 0.0
H353 H 0.07788 0.1051 0.49416 0.0
H354 H 0.0788 0.07923 0.42841 0.0
H355 H 0.1131 0.06901 0.37429 0.0
Mn356 Mn 0.42069 0.52504 0.7868 0.0
Mn357 Mn 0.43758 0.438 0.77332 0.0
C358 C 0.3823 0.47985 0.75284 0.0
C359 C 0.39317 0.57361 0.81571 0.0
C360 C 0.4761 0.49493 0.73615 0.0
O361 O 0.45607 0.52496 0.82723 0.0
O362 O 0.46351 0.46561 0.81641 0.0
C363 C 0.40325 0.41553 0.83585 0.0
N364 N 0.40635 0.4109 0.80026 0.0
C365 C 0.36056 0.36028 0.79155 0.0
C366 C 0.35714 0.36432 0.82811 0.0
C367 C 0.37853 0.39211 0.85033 0.0
C368 C 0.38581 0.3843 0.77863 0.0
H369 H 0.41939 0.43701 0.85305 0.0
C370 C 0.46912 0.49749 0.83508 0.0
O371 O 0.42062 0.57863 0.79676 0.0
O372 O 0.38363 0.5407 0.82037 0.0
N373 N 0.41312 0.40845 0.73286 0.0
C374 C 0.41812 0.40959 0.69815 0.0
C375 C 0.398 0.38422 0.67243 0.0
C376 C 0.37303 0.35789 0.68262 0.0
C377 C 0.36845 0.35713 0.71848 0.0
C378 C 0.3895 0.38289 0.74294 0.0
H379 H 0.43717 0.42983 0.69011 0.0
O380 O 0.3833 0.51311 0.74823 0.0
O381 O 0.40437 0.47397 0.7763 0.0
O382 O 0.45964 0.52084 0.75061 0.0
O383 O 0.47045 0.46305 0.74333 0.0
C384 C 0.34334 0.33226 0.73091 0.0
C385 C 0.33936 0.33388 0.76742 0.0
H386 H 0.33793 0.34647 0.83939 0.0
H387 H 0.37587 0.39557 0.87857 0.0
H388 H 0.40161 0.38506 0.64481 0.0
H389 H 0.35732 0.33859 0.66271 0.0
H390 H 0.32659 0.31215 0.71262 0.0
H391 H 0.31957 0.31498 0.77665 0.0
Mn392 Mn 0.77439 0.38061 0.52763 0.0
Mn393 Mn 0.7641 0.41024 0.45116 0.0
C394 C 0.74904 0.34178 0.47812 0.0
C395 C 0.80505 0.35224 0.56537 0.0
C396 C 0.71884 0.42967 0.5142 0.0
O397 O 0.81102 0.42557 0.53316 0.0
O398 O 0.80179 0.443 0.48091 0.0
C399 C 0.83354 0.39766 0.4209 0.0
N400 N 0.79763 0.39119 0.41867 0.0
C401 C 0.79922 0.35009 0.36366 0.0
C402 C 0.83619 0.35649 0.36531 0.0
C403 C 0.85341 0.38037 0.39406 0.0
C404 C 0.78078 0.36836 0.39103 0.0
H405 H 0.84697 0.41574 0.44305 0.0
C406 C 0.8182 0.44655 0.51076 0.0
O407 O 0.78178 0.37346 0.57705 0.0
O408 O 0.81187 0.34917 0.53221 0.0
N409 N 0.72906 0.37962 0.42019 0.0
C410 C 0.69344 0.37435 0.42381 0.0
C411 C 0.67238 0.35039 0.39773 0.0
C412 C 0.68815 0.33199 0.36828 0.0
C413 C 0.72487 0.33776 0.36517 0.0
C414 C 0.74448 0.36229 0.3918 0.0
H415 H 0.68122 0.38806 0.44659 0.0
O416 O 0.74115 0.33551 0.5093 0.0
O417 O 0.76943 0.37153 0.47741 0.0
O418 O 0.73392 0.41217 0.53419 0.0
O419 O 0.72776 0.43053 0.48251 0.0
C420 C 0.74284 0.31949 0.33711 0.0
C421 C 0.77998 0.32563 0.33638 0.0
H422 H 0.85164 0.34293 0.34483 0.0
H423 H 0.88196 0.38529 0.39561 0.0
H424 H 0.64408 0.34589 0.40044 0.0
H425 H 0.67186 0.3132 0.34843 0.0
H426 H 0.72838 0.30028 0.31622 0.0
H427 H 0.79353 0.311 0.31494 0.0
Mn428 Mn 0.69368 0.04054 0.76367 0.0
Mn429 Mn 0.66361 0.12215 0.77344 0.0
C430 C 0.72463 0.08746 0.74131 0.0
C431 C 0.72786 1.00072 0.78487 0.0
C432 C 0.633 0.05795 0.71883 0.0
O433 O 0.65874 0.03818 0.80275 0.0
O434 O 0.64004 0.09313 0.80727 0.0
C435 C 0.6936 0.15168 0.84515 0.0
N436 N 0.69042 0.15449 0.8106 0.0
C437 C 0.72951 0.2104 0.81983 0.0
C438 C 0.73298 0.20821 0.85555 0.0
C439 C 0.71495 0.17871 0.86825 0.0
C440 C 0.70748 0.1829 0.79813 0.0
H441 H 0.68009 0.12889 0.85501 0.0
C442 C 0.6399 0.06225 0.81687 0.0
O443 O 0.70193 0.98877 0.76216 0.0
O444 O 0.73323 0.03541 0.79562 0.0
N445 N 0.68475 0.15322 0.74315 0.0
C446 C 0.68181 0.14926 0.70744 0.0
C447 C 0.6995 0.1757 0.69032 0.0
C448 C 0.7202 0.20583 0.71003 0.0
C449 C 0.72304 0.20924 0.74673 0.0
C450 C 0.70436 0.1823 0.76241 0.0
H451 H 0.66672 0.12574 0.6921 0.0
O452 O 0.72864 0.05411 0.72858 0.0
O453 O 0.70242 0.09223 0.76657 0.0
O454 O 0.65264 0.03546 0.72735 0.0
O455 O 0.63517 0.09107 0.734 0.0
C456 C 0.74466 0.23764 0.7682 0.0
C457 C 0.74792 0.2382 0.80472 0.0
H458 H 0.74978 0.22875 0.87336 0.0
H459 H 0.71769 0.17669 0.89573 0.0
H460 H 0.69753 0.17262 0.66194 0.0
H461 H 0.73428 0.22586 0.69667 0.0
H462 H 0.75951 0.25876 0.75678 0.0
H463 H 0.76522 0.25976 0.82084 0.0
Mn464 Mn 0.04753 0.26193 0.90428 0.0
Mn465 Mn 0.96502 0.24696 0.9324 0.0
C466 C 1.00327 0.22821 0.86653 0.0
C467 C 0.08863 0.29816 0.87716 0.0
C468 C 0.02645 0.21054 0.95488 0.0
O469 O 0.0467 0.30065 0.94849 0.0
O470 O 0.98845 0.2934 0.95951 0.0
C471 C 0.93306 0.30718 0.90964 0.0
N472 N 0.93338 0.27101 0.90858 0.0
C473 C 0.88274 0.25677 0.86872 0.0
C474 C 0.88171 0.29387 0.86962 0.0
C475 C 0.90705 0.31917 0.89008 0.0
C476 C 0.90926 0.24643 0.8888 0.0
H477 H 0.95261 0.3267 0.92511 0.0
C478 C 0.01957 0.31083 0.96488 0.0
O479 O 0.09882 0.27611 0.89648 0.0
O480 O 0.05508 0.30009 0.87502 0.0
N481 N 0.94012 0.20297 0.90686 0.0
C482 C 0.9462 0.16816 0.90688 0.0
C483 C 0.92387 0.13957 0.88679 0.0
C484 C 0.89544 0.14701 0.867 0.0
C485 C 0.88968 0.18302 0.8674 0.0
C486 C 0.91275 0.21041 0.88798 0.0
H487 H 0.96794 0.16219 0.92208 0.0
O488 O 0.03613 0.22478 0.86019 0.0
O489 O 0.99799 0.25035 0.89497 0.0
O490 O 0.04911 0.22214 0.93409 0.0
O491 O 0.99541 0.22014 0.95763 0.0
C492 C 0.86224 0.19279 0.84777 0.0
C493 C 0.85886 0.22964 0.84826 0.0
H494 H 0.86178 0.30323 0.85446 0.0
H495 H 0.90658 0.34785 0.89071 0.0
H496 H 0.92855 0.11185 0.88656 0.0
H497 H 0.87836 0.12489 0.85141 0.0
H498 H 0.84387 0.1721 0.83196 0.0
H499 H 0.83798 0.23681 0.83258 0.0
Mn500 Mn 0.5547 0.76202 0.40409 0.0
Mn501 Mn 0.47347 0.75036 0.43638 0.0
C502 C 0.50834 0.72918 0.36885 0.0
C503 C 0.59517 0.79655 0.37467 0.0
C504 C 0.53443 0.71189 0.45634 0.0
O505 O 0.55662 0.80196 0.44737 0.0
O506 O 0.49941 0.79596 0.46275 0.0
C507 C 0.44291 0.81235 0.41569 0.0
N508 N 0.44203 0.77597 0.41414 0.0
C509 C 0.39029 0.76399 0.37572 0.0
C510 C 0.39056 0.80133 0.37706 0.0
C511 C 0.41701 0.82559 0.39708 0.0
C512 C 0.4167 0.75238 0.39493 0.0
H513 H 0.46329 0.83109 0.43086 0.0
C514 C 0.53088 0.81273 0.4657 0.0
O515 O 0.60571 0.77449 0.3938 0.0
O516 O 0.56171 0.79918 0.37374 0.0
N517 N 0.4462 0.70732 0.41172 0.0
C518 C 0.45099 0.67208 0.4113 0.0
C519 C 0.42732 0.64438 0.39166 0.0
C520 C 0.39895 0.65315 0.3727 0.0
C521 C 0.39455 0.68958 0.37353 0.0
C522 C 0.41885 0.71604 0.39373 0.0
H523 H 0.47276 0.66512 0.42576 0.0
O524 O 0.54063 0.72424 0.36117 0.0
O525 O 0.50479 0.75208 0.3973 0.0
O526 O 0.55664 0.72287 0.4348 0.0
O527 O 0.50371 0.72216 0.46001 0.0
C528 C 0.36732 0.70065 0.35463 0.0
C529 C 0.36526 0.73783 0.35559 0.0
H530 H 0.37077 0.81166 0.36258 0.0
H531 H 0.4175 0.85445 0.39809 0.0
H532 H 0.43097 0.61632 0.39106 0.0
H533 H 0.38089 0.63171 0.35739 0.0
H534 H 0.34808 0.68074 0.339 0.0
H535 H 0.34451 0.74598 0.34048 0.0
Mn536 Mn 0.02698 0.77671 0.65827 0.0
Mn537 Mn 0.98861 0.698 0.67904 0.0
C538 C 0.02534 0.72237 0.61821 0.0
C539 C 0.02614 0.82992 0.63486 0.0
C540 C 0.06051 0.73472 0.7083 0.0
O541 O 0.9959 0.79409 0.69993 0.0
O542 O 0.9693 0.73952 0.70738 0.0
C543 C 0.91535 0.69924 0.6536 0.0
N544 N 0.94476 0.68208 0.65364 0.0
C545 C 0.91472 0.62761 0.61902 0.0
C546 C 0.88399 0.64456 0.61882 0.0
C547 C 0.88443 0.68068 0.63587 0.0
C548 C 0.94496 0.64778 0.63636 0.0
H549 H 0.91548 0.7268 0.66713 0.0
C550 C 0.97307 0.77415 0.71451 0.0
O551 O 0.05005 0.82677 0.65782 0.0
O552 O 1.0017 0.8026 0.62642 0.0
N553 N 1.00443 0.65514 0.65325 0.0
C554 C 0.03673 0.64333 0.65452 0.0
C555 C 0.04125 0.60828 0.63734 0.0
C556 C 0.01232 0.5854 0.61995 0.0
C557 C 0.97922 0.59794 0.61954 0.0
C558 C 0.97652 0.63343 0.63632 0.0
H559 H 0.05884 0.66047 0.66859 0.0
O560 O 0.04884 0.74955 0.6158 0.0
O561 O 1.00371 0.72767 0.64372 0.0
O562 O 0.06208 0.76079 0.69125 0.0
O563 O 0.03373 0.71074 0.70645 0.0
C564 C 0.9487 0.57653 0.60345 0.0
C565 C 0.91652 0.59143 0.60295 0.0
H566 H 0.85996 0.63017 0.60559 0.0
H567 H 0.86086 0.694 0.63572 0.0
H568 H 0.06686 0.59876 0.63792 0.0
H569 H 0.0158 0.55824 0.60706 0.0
H570 H 0.94982 0.54876 0.59078 0.0
H571 H 0.89344 0.57492 0.58976 0.0
Mn572 Mn 0.52801 0.27422 0.15715 0.0
Mn573 Mn 0.48972 0.19541 0.17783 0.0
C574 C 0.52544 0.22019 0.11664 0.0
C575 C 0.52704 0.32772 0.13417 0.0
C576 C 0.56221 0.23138 0.20596 0.0
O577 O 0.49803 0.29145 0.1997 0.0
O578 O 0.47151 0.2369 0.20735 0.0
C579 C 0.41601 0.19786 0.15454 0.0
N580 N 0.44525 0.1803 0.15342 0.0
C581 C 0.41404 0.12651 0.11874 0.0
C582 C 0.38351 0.14392 0.11963 0.0
C583 C 0.3846 0.17988 0.13732 0.0
C584 C 0.44477 0.14613 0.13558 0.0
H585 H 0.41663 0.22527 0.16864 0.0
C586 C 0.47575 0.27151 0.21488 0.0
O587 O 0.55127 0.32422 0.15665 0.0
O588 O 0.50229 0.30065 0.12609 0.0
N589 N 0.50455 0.15251 0.15107 0.0
C590 C 0.53666 0.14017 0.15147 0.0
C591 C 0.54047 0.10513 0.13375 0.0
C592 C 0.51102 0.08278 0.11675 0.0
C593 C 0.47812 0.09585 0.11728 0.0
C594 C 0.47613 0.13131 0.13455 0.0
H595 H 0.55917 0.15689 0.16527 0.0
O596 O 0.54897 0.24729 0.11407 0.0
O597 O 0.50427 0.22538 0.14258 0.0
O598 O 0.56355 0.25771 0.18925 0.0
O599 O 0.53544 0.20739 0.20419 0.0
C600 C 0.44712 0.07497 0.10168 0.0
C601 C 0.41516 0.09039 0.10209 0.0
H602 H 0.35911 0.12996 0.10682 0.0
H603 H 0.36117 0.19352 0.13807 0.0
H604 H 0.56593 0.0952 0.13362 0.0
H605 H 0.51396 0.05562 0.10344 0.0
H606 H 0.44769 0.04722 0.08868 0.0
H607 H 0.3917 0.07431 0.08925 0.0
C608 C 0.28349 0.77187 0.90939 0.0
C609 C 0.25276 0.74966 0.89536 0.0
H610 H 0.30586 0.81753 0.94688 0.0
C611 C 0.22 0.75687 0.90974 0.0
H612 H 0.30903 0.76743 0.8986 0.0
C613 C 0.21821 0.78583 0.93772 0.0
C614 C 0.24902 0.80844 0.9508 0.0
H615 H 0.1959 0.74007 0.89946 0.0
H616 H 0.19286 0.79106 0.94852 0.0
C617 C 0.28163 0.80081 0.93678 0.0
C618 C 0.07704 0.57233 0.39432 0.0
C619 C 0.07725 0.53973 0.40677 0.0
H620 H 0.09764 0.60492 0.35728 0.0
C621 C 0.09879 0.51429 0.39105 0.0
H622 H 0.0603 0.59216 0.40604 0.0
C623 C 0.11997 0.52127 0.36307 0.0
C624 C 0.11995 0.5539 0.35021 0.0
H625 H 0.09902 0.48879 0.4002 0.0
H626 H 0.13631 0.501 0.35155 0.0
C627 C 0.09827 0.57943 0.3663 0.0
C628 C 0.84314 0.74023 0.8876 0.0
C629 C 0.85083 0.77693 0.90326 0.0
H630 H 0.82312 0.68659 0.89466 0.0
C631 C 0.84826 0.78651 0.94 0.0
H632 H 0.84438 0.7319 0.85937 0.0
C633 C 0.83629 0.76034 0.9602 0.0
C634 C 0.82671 0.72419 0.94405 0.0
H635 H 0.85425 0.81446 0.95293 0.0
H636 H 0.83246 0.76873 0.98807 0.0
C637 C 0.83097 0.7142 0.90776 0.0
C638 C 1.00496 0.02699 0.42999 0.0
C639 C 0.03393 1.00728 0.43049 0.0
H640 H 0.96428 0.04208 0.39863 0.0
C641 C 0.04526 0.98886 0.39859 0.0
H642 H 0.99606 0.04183 0.45423 0.0
C643 C 0.02699 0.9887 0.36699 0.0
C644 C 0.99754 1.00774 0.36648 0.0
H645 H 0.06765 0.97367 0.39825 0.0
H646 H 0.0355 0.9731 0.34296 0.0
C647 C 0.98714 0.02755 0.39819 0.0
C648 C 0.21147 0.28281 0.60942 0.0
C649 C 0.23861 0.29305 0.63538 0.0
H650 H 0.19328 0.24816 0.56113 0.0
C651 C 0.26898 0.27519 0.63202 0.0
H652 H 0.1879 0.29632 0.61111 0.0
C653 C 0.27212 0.24763 0.6034 0.0
C654 C 0.24502 0.23735 0.57734 0.0
H655 H 0.29016 0.28217 0.65181 0.0
H656 H 0.29591 0.23447 0.60173 0.0
C657 C 0.21466 0.25531 0.58068 0.0
C658 C 0.52719 0.54177 0.66941 0.0
C659 C 0.54043 0.51276 0.64766 0.0
H660 H 0.4971 0.55916 0.71429 0.0
C661 C 0.5352 0.47834 0.65726 0.0
H662 H 0.53124 0.56877 0.66314 0.0
C663 C 0.51561 0.47277 0.68685 0.0
C664 C 0.50082 0.5015 0.70758 0.0
H665 H 0.54483 0.45534 0.64102 0.0
H666 H 0.51096 0.44561 0.69264 0.0
C667 C 0.50768 0.53625 0.6989 0.0
C668 C 0.82726 0.31121 0.64472 0.0
C669 C 0.85013 0.28658 0.63019 0.0
H670 H 0.79509 0.35171 0.63557 0.0
C671 C 0.85833 0.28369 0.59462 0.0
H672 H 0.82112 0.31415 0.67235 0.0
C673 C 0.84394 0.30534 0.57369 0.0
C674 C 0.82114 0.33034 0.58806 0.0
H675 H 0.87642 0.26517 0.58314 0.0
H676 H 0.85078 0.3025 0.54626 0.0
C677 C 0.81273 0.33288 0.62377 0.0
C678 C 0.57864 0.05753 0.63599 0.0
C679 C 0.56384 0.02102 0.62707 0.0
H680 H 0.61083 0.09788 0.6722 0.0
C681 C 0.56979 0.99759 0.65073 0.0
H682 H 0.57543 0.07664 0.61874 0.0
C683 C 0.59195 1.00955 0.68065 0.0
C684 C 0.60756 0.04564 0.68862 0.0
H685 H 0.55791 0.96967 0.646 0.0
H686 H 0.5969 0.99051 0.69754 0.0
C687 C 0.59962 0.06976 0.66663 0.0
C688 C 0.94224 0.24843 0.79798 0.0
C689 C 0.93058 0.21391 0.77889 0.0
H690 H 0.9741 0.2795 0.84105 0.0
C691 C 0.94276 0.18337 0.78899 0.0
H692 H 0.93285 0.27231 0.79103 0.0
C693 C 0.96675 0.18755 0.81758 0.0
C694 C 0.97764 0.22215 0.83694 0.0
H695 H 0.93395 0.15646 0.77462 0.0
H696 H 0.97627 0.16392 0.82491 0.0
C697 C 0.96548 0.25249 0.82675 0.0
C698 C 0.55725 0.91302 0.49493 0.0
C699 C 0.53584 0.92047 0.52399 0.0
H700 H 0.57338 0.87246 0.45427 0.0
C701 C 0.51565 0.89185 0.53604 0.0
H702 H 0.57311 0.93483 0.4854 0.0
C703 C 0.51537 0.85634 0.51807 0.0
C704 C 0.53598 0.84884 0.4883 0.0
H705 H 0.49903 0.89717 0.55849 0.0
H706 H 0.4983 0.83486 0.52685 0.0
C707 C 0.55765 0.87739 0.47745 0.0
C708 C 0.1621 0.3149 0.81489 0.0
C709 C 0.14924 0.34132 0.79854 0.0
H710 H 0.15318 0.28084 0.8538 0.0
C711 C 0.11971 0.35721 0.81181 0.0
H712 H 0.18471 0.30209 0.80464 0.0
C713 C 0.10159 0.345 0.83953 0.0
C714 C 0.11279 0.31672 0.85448 0.0
H715 H 0.10929 0.37745 0.79929 0.0
H716 H 0.07762 0.3563 0.84791 0.0
C717 C 0.1441 0.30283 0.84297 0.0
C718 C 0.56929 0.62895 0.48063 0.0
C719 C 0.54966 0.6245 0.51043 0.0
H720 H 0.58042 0.66086 0.44019 0.0
C721 C 0.52812 0.65069 0.52429 0.0
H722 H 0.58576 0.60869 0.46933 0.0
C723 C 0.52472 0.68009 0.50762 0.0
C724 C 0.54296 0.68401 0.47675 0.0
H725 H 0.51254 0.64754 0.54713 0.0
H726 H 0.50677 0.69911 0.51826 0.0
C727 C 0.5662 0.65875 0.46403 0.0
C728 C 0.93315 0.83782 0.78762 0.0
C729 C 0.90371 0.81477 0.79561 0.0
H730 H 0.97875 0.84321 0.75546 0.0
C731 C 0.89573 0.78052 0.77463 0.0
H732 H 0.93983 0.86441 0.80354 0.0
C733 C 0.91765 0.76851 0.74767 0.0
C734 C 0.94843 0.79033 0.7407 0.0
H735 H 0.87297 0.76241 0.77988 0.0
H736 H 0.91078 0.7414 0.73289 0.0
C737 C 0.95543 0.82566 0.76026 0.0
C738 C 0.05831 0.92112 0.61013 0.0
C739 C 0.0337 0.92312 0.58362 0.0
H740 H 0.07509 0.89016 0.64732 0.0
C741 C 1.00621 0.89479 0.57428 0.0
H742 H 0.07953 0.9429 0.61791 0.0
C743 C 1.00341 0.86466 0.59117 0.0
C744 C 0.02807 0.86242 0.61779 0.0
H745 H 0.98675 0.89604 0.55404 0.0
H746 H 0.98202 0.8431 0.58329 0.0
C747 C 0.05557 0.89102 0.62704 0.0
C748 C 0.15538 0.74486 0.74336 0.0
C749 C 0.15491 0.71446 0.75962 0.0
H750 H 0.12575 0.77555 0.71464 0.0
C751 C 0.1229 0.69286 0.76202 0.0
H752 H 0.18 0.76167 0.74104 0.0
C753 C 0.09187 0.70056 0.7469 0.0
C754 C 0.09232 0.72997 0.72887 0.0
H755 H 0.12214 0.66908 0.77425 0.0
H756 H 0.06782 0.68251 0.74811 0.0
C757 C 0.12431 0.75266 0.72819 0.0
C758 C 0.03684 0.63774 0.55257 0.0
C759 C 1.00237 0.62791 0.53769 0.0
H760 H 0.07133 0.67576 0.58959 0.0
C761 C 0.977 0.65179 0.54723 0.0
H762 H 0.05712 0.6201 0.54633 0.0
C763 C 0.98492 0.68273 0.57297 0.0
C764 C 0.01859 0.69112 0.5892 0.0
H765 H 0.95054 0.64611 0.53567 0.0
H766 H 0.96442 0.69979 0.58073 0.0
C767 C 0.045 0.66941 0.57769 0.0
C768 C 0.8069 0.91244 0.25425 0.0
C769 C 0.79663 0.90367 0.21847 0.0
H770 H 0.84386 0.94396 0.29309 0.0
C771 C 0.81581 0.92144 0.19418 0.0
H772 H 0.79269 0.8992 0.27354 0.0
C773 C 0.84507 0.94699 0.20541 0.0
C774 C 0.85609 0.95442 0.2409 0.0
H775 H 0.80807 0.91571 0.16651 0.0
H776 H 0.85951 0.96035 0.18633 0.0
C777 C 0.83634 0.93768 0.26536 0.0
C778 C 0.81643 0.1209 0.35092 0.0
C779 C 0.82013 0.15196 0.33538 0.0
H780 H 0.83771 0.0723 0.35722 0.0
C781 C 0.85068 0.15982 0.31686 0.0
H782 H 0.79294 0.11432 0.36519 0.0
C783 C 0.87652 0.13615 0.31263 0.0
C784 C 0.87199 0.10385 0.32639 0.0
H785 H 0.85393 0.18364 0.3046 0.0
H786 H 0.89909 0.14223 0.29695 0.0
C787 C 0.84208 0.09696 0.34638 0.0
C788 C 0.38334 0.02476 0.99961 0.0
C789 C 0.41505 0.01417 0.01057 0.0
H790 H 0.32743 1.01076 0.99118 0.0
C791 C 0.41391 0.9832 0.02623 0.0
H792 H 0.3836 0.04861 0.98757 0.0
C793 C 0.38171 0.96214 0.02929 0.0
C794 C 0.35024 0.97127 0.01597 0.0
H795 H 0.43808 0.97475 0.03516 0.0
H796 H 0.38179 0.9374 0.03984 0.0
C797 C 0.35127 1.00323 1.00184 0.0
C798 C 0.27761 0.42288 0.3131 0.0
C799 C 0.30559 0.44015 0.33613 0.0
H800 H 0.23296 0.42957 0.2815 0.0
C801 C 0.31038 0.47796 0.34485 0.0
H802 H 0.27331 0.39361 0.30641 0.0
C803 C 0.28734 0.49842 0.33108 0.0
C804 C 0.25896 0.48146 0.30823 0.0
H805 H 0.33163 0.49173 0.36288 0.0
H806 H 0.29173 0.52762 0.33857 0.0
C807 C 0.2545 0.44343 0.29908 0.0
C808 C 0.16706 0.03867 0.47706 0.0
C809 C 0.14426 0.03848 0.50562 0.0
H810 H 0.21449 0.06314 0.45707 0.0
C811 C 0.15556 0.06057 0.53809 0.0
H812 H 0.16036 0.02119 0.45197 0.0
C813 C 0.18747 0.08367 0.54117 0.0
C814 C 0.20804 0.08617 0.5116 0.0
H815 H 0.13897 0.06168 0.56073 0.0
H816 H 0.19496 0.1012 0.5661 0.0
C817 C 0.19827 0.06259 0.4799 0.0
C818 C 0.79386 0.14387 0.69775 0.0
C819 C 0.81094 0.16659 0.72736 0.0
H820 H 0.75248 0.10065 0.67897 0.0
C821 C 0.79721 0.16497 0.76076 0.0
H822 H 0.80404 0.14426 0.67172 0.0
C823 C 0.76886 0.13951 0.76491 0.0
C824 C 0.75205 0.1165 0.7356 0.0
H825 H 0.80919 0.18268 0.78397 0.0
H826 H 0.76061 0.13725 0.79128 0.0
C827 C 0.76466 0.11879 0.70189 0.0
C828 C 0.4342 0.10211 0.54401 0.0
C829 C 0.43939 0.07099 0.52001 0.0
H830 H 0.4006 0.14308 0.5602 0.0
C831 C 0.41388 0.05689 0.49317 0.0
H832 H 0.4538 0.1136 0.56467 0.0
C833 C 0.38343 0.0738 0.49034 0.0
C834 C 0.37814 0.10518 0.51428 0.0
H835 H 0.41767 0.03304 0.47414 0.0
H836 H 0.36414 0.06236 0.46939 0.0
C837 C 0.40384 0.11903 0.54123 0.0
C838 C 0.63547 0.476 0.51877 0.0
C839 C 0.63256 0.48784 0.55525 0.0
H840 H 0.66483 0.44906 0.47734 0.0
C841 C 0.6587 0.48033 0.57803 0.0
H842 H 0.61561 0.48018 0.5002 0.0
C843 C 0.68649 0.46128 0.56478 0.0
C844 C 0.68935 0.44982 0.52835 0.0
H845 H 0.658 0.4894 0.60617 0.0
H846 H 0.70605 0.45596 0.58311 0.0
C847 C 0.66364 0.4577 0.50553 0.0
C848 C 0.78478 0.2752 0.40748 0.0
C849 C 0.75438 0.25231 0.39363 0.0
H850 H 0.80648 0.32123 0.44491 0.0
C851 C 0.72147 0.25895 0.40797 0.0
H852 H 0.81042 0.27117 0.39674 0.0
C853 C 0.71922 0.28789 0.43586 0.0
C854 C 0.74971 0.31105 0.44892 0.0
H855 H 0.69762 0.2416 0.39786 0.0
H856 H 0.69377 0.29256 0.44674 0.0
C857 C 0.78247 0.30411 0.43481 0.0
C858 C 0.59613 0.01398 0.88656 0.0
C859 C 0.57543 0.03966 0.90341 0.0
H860 H 0.63258 1.00076 0.84601 0.0
C861 C 0.57576 0.07288 0.89203 0.0
H862 H 0.59594 0.98802 0.8949 0.0
C863 C 0.59665 0.08031 0.86387 0.0
C864 C 0.61741 0.05449 0.84659 0.0
H865 H 0.55967 0.09291 0.90464 0.0
H866 H 0.59641 0.10623 0.85562 0.0
C867 C 0.61695 0.02127 0.85846 0.0
C868 C 0.3639 0.25766 0.41588 0.0
C869 C 0.34306 0.28149 0.40345 0.0
H870 H 0.36538 0.21389 0.44473 0.0
C871 C 0.30699 0.27871 0.41063 0.0
H872 H 0.39184 0.25921 0.41076 0.0
C873 C 0.29198 0.25298 0.42962 0.0
C874 C 0.31252 0.22909 0.4423 0.0
H875 H 0.29005 0.29618 0.40102 0.0
H876 H 0.26398 0.25197 0.43438 0.0
C877 C 0.34881 0.23186 0.43543 0.0
C878 C 0.51517 0.47228 0.91333 0.0
C879 C 0.52722 0.50614 0.93344 0.0
H880 H 0.48818 0.44304 0.86656 0.0
C881 C 0.52044 0.53762 0.92112 0.0
H882 H 0.52019 0.44767 0.92226 0.0
C883 C 0.5018 0.5352 0.88908 0.0
C884 C 0.48996 0.50117 0.86864 0.0
H885 H 0.52919 0.56406 0.93653 0.0
H886 H 0.49669 0.55988 0.88038 0.0
C887 C 0.49702 0.4698 0.88126 0.0
C888 C 0.77285 0.77677 0.12944 0.0
C889 C 0.74318 0.79564 0.13214 0.0
H890 H 0.79907 0.73515 0.0998 0.0
C891 C 0.71662 0.78651 0.10549 0.0
H892 H 0.79354 0.78291 0.14977 0.0
C893 C 0.71971 0.75899 0.07669 0.0
C894 C 0.74929 0.73987 0.07416 0.0
H895 H 0.69357 0.80082 0.10678 0.0
H896 H 0.6988 0.75254 0.05661 0.0
C897 C 0.77583 0.74917 0.10087 0.0
C898 C 0.02732 0.04435 0.16602 0.0
C899 C 0.04167 0.01544 0.14522 0.0
H900 H 0.99685 0.0619 0.21064 0.0
C901 C 0.03789 0.9816 0.15608 0.0
H902 H 0.03018 0.07092 0.15874 0.0
C903 C 0.01885 0.97641 0.18602 0.0
C904 C 1.0031 1.00494 0.20594 0.0
H905 H 0.04829 0.95865 0.14058 0.0
H906 H 0.01548 0.94962 0.19281 0.0
C907 C 1.0083 0.03919 0.19594 0.0
C908 C 0.32747 0.81368 0.14835 0.0
C909 C 0.35043 0.78883 0.13456 0.0
H910 H 0.29501 0.85342 0.13782 0.0
C911 C 0.35841 0.78469 0.09887 0.0
H912 H 0.3215 0.81759 0.17605 0.0
C913 C 0.34375 0.80536 0.0771 0.0
C914 C 0.32091 0.83062 0.09074 0.0
H915 H 0.37657 0.766 0.08794 0.0
H916 H 0.35046 0.80161 0.04961 0.0
C917 C 0.31267 0.83436 0.12656 0.0
C918 C 0.08081 0.49342 0.1514 0.0
C919 C 0.07405 0.51721 0.12835 0.0
H920 H 0.10753 0.48645 0.19855 0.0
C921 C 0.0888 0.55372 0.1375 0.0
H922 H 0.06937 0.46536 0.14633 0.0
C923 C 0.10904 0.56602 0.16849 0.0
C924 C 0.11676 0.54202 0.19062 0.0
H925 H 0.08556 0.57311 0.12056 0.0
H926 H 0.11941 0.59436 0.1745 0.0
C927 C 0.10244 0.50553 0.18174 0.0
C928 C 0.44523 0.68617 0.2929 0.0
C929 C 0.43347 0.71718 0.2834 0.0
H930 H 0.47903 0.6656 0.32769 0.0
C931 C 0.44618 0.75144 0.30244 0.0
H932 H 0.43566 0.65946 0.27853 0.0
C933 C 0.47006 0.75476 0.33057 0.0
C934 C 0.48178 0.72393 0.34019 0.0
H935 H 0.43714 0.77567 0.29595 0.0
H936 H 0.47956 0.78158 0.3448 0.0
C937 C 0.46982 0.68959 0.32086 0.0
C938 C 0.9952 0.39775 0.01852 0.0
C939 C 0.02836 0.41749 0.02797 0.0
H940 H 0.96643 0.34849 0.99214 0.0
C941 C 0.05895 0.40107 0.01887 0.0
H942 H 0.97126 0.40978 0.02549 0.0
C943 C 0.05634 0.36592 0.99922 0.0
C944 C 0.02306 0.34642 0.9889 0.0
H945 H 0.08484 0.41591 0.02585 0.0
H946 H 0.08035 0.35435 0.99153 0.0
C947 C 0.99255 0.36254 0.99952 0.0
C948 C 0.62527 0.85651 0.30978 0.0
C949 C 0.65443 0.84057 0.29562 0.0
H950 H 0.58391 0.85532 0.34665 0.0
C951 C 0.6673 0.81346 0.31096 0.0
H952 H 0.61486 0.87729 0.29805 0.0
C953 C 0.64971 0.80089 0.33902 0.0
C954 C 0.6188 0.81499 0.3515 0.0
H955 H 0.68963 0.80062 0.30001 0.0
H956 H 0.6588 0.77851 0.34916 0.0
C957 C 0.60756 0.84382 0.33748 0.0
C958 C 0.01827 0.14572 0.01969 0.0
C959 C 0.04361 0.12284 1.00798 0.0
H960 H 0.99324 0.19165 0.01239 0.0
C961 C 0.06581 0.1307 0.98089 0.0
H962 H 1.00071 0.13987 0.04041 0.0
C963 C 0.0617 0.16054 0.96474 0.0
C964 C 0.03496 0.18252 0.97519 0.0
H965 H 0.0853 0.11302 0.97128 0.0
H966 H 0.07823 0.16526 0.94295 0.0
C967 C 0.01393 0.17523 1.00347 0.0
C968 C 0.40156 0.27869 0.27896 0.0
C969 C 0.41044 0.31308 0.29953 0.0
H970 H 0.41459 0.23919 0.23639 0.0
C971 C 0.43981 0.33552 0.29031 0.0
H972 H 0.37862 0.26109 0.28465 0.0
C973 C 0.46077 0.32294 0.26202 0.0
C974 C 0.45264 0.28772 0.2426 0.0
H975 H 0.44726 0.36226 0.30567 0.0
H976 H 0.48386 0.34021 0.25617 0.0
C977 C 0.42228 0.26622 0.25105 0.0
C978 C 0.55977 0.41859 0.10904 0.0
C979 C 0.53469 0.42116 0.08317 0.0
H980 H 0.57689 0.38716 0.14565 0.0
C981 C 0.50672 0.39325 0.0743 0.0
H982 H 0.58133 0.44007 0.11654 0.0
C983 C 0.50392 0.363 0.09107 0.0
C984 C 0.52901 0.36025 0.11712 0.0
H985 H 0.48685 0.39497 0.05462 0.0
H986 H 0.48214 0.34179 0.0836 0.0
C987 C 0.55701 0.38841 0.12583 0.0
C988 C 0.62448 0.19004 0.26024 0.0
C989 C 0.65643 0.21177 0.258 0.0
H990 H 0.56952 0.17933 0.2459 0.0
C991 C 0.65697 0.24192 0.24136 0.0
H992 H 0.62369 0.16644 0.27275 0.0
C993 C 0.626 0.2494 0.22578 0.0
C994 C 0.59405 0.22663 0.22642 0.0
H995 H 0.68157 0.25881 0.23915 0.0
H996 H 0.62745 0.27216 0.21205 0.0
C997 C 0.59355 0.19741 0.24469 0.0
C998 C 0.47625 0.15005 0.04588 0.0
C999 C 0.5016 0.12631 0.03568 0.0
H1000 H 0.46396 0.19776 0.08007 0.0
C1001 C 0.53626 0.1361 0.05008 0.0
H1002 H 0.44964 0.14439 0.0347 0.0
C1003 C 0.54465 0.16758 0.07537 0.0
C1004 C 0.51831 0.18911 0.08755 0.0
H1005 H 0.55653 0.11856 0.04332 0.0
H1006 H 0.57114 0.1739 0.08688 0.0
C1007 C 0.48442 0.1808 0.07179 0.0
C1008 C 0.30147 0.41288 0.75522 0.0
C1009 C 0.2912 0.4033 0.71948 0.0
H1010 H 0.33872 0.44469 0.79353 0.0
C1011 C 0.31045 0.42036 0.69473 0.0
H1012 H 0.28725 0.40019 0.77486 0.0
C1013 C 0.33993 0.44581 0.70548 0.0
C1014 C 0.35103 0.45384 0.74094 0.0
H1015 H 0.30273 0.41397 0.66707 0.0
H1016 H 0.35457 0.45845 0.68605 0.0
C1017 C 0.33108 0.43799 0.76583 0.0
C1018 C 0.34665 0.65598 0.81238 0.0
C1019 C 0.31802 0.65043 0.83413 0.0
H1020 H 0.39363 0.6367 0.79049 0.0
C1021 C 0.31645 0.62183 0.85309 0.0
H1022 H 0.34837 0.67794 0.79757 0.0
C1023 C 0.34207 0.59782 0.8487 0.0
C1024 C 0.37005 0.60245 0.82579 0.0
H1025 H 0.29453 0.61708 0.86998 0.0
H1026 H 0.33926 0.5749 0.86224 0.0
C1027 C 0.37263 0.63248 0.80854 0.0
C1028 C 0.88401 0.52667 0.50056 0.0
C1029 C 0.91546 0.51596 0.51203 0.0
H1030 H 0.82816 0.51292 0.49132 0.0
C1031 C 0.91384 0.48499 0.52774 0.0
H1032 H 0.88464 0.55053 0.48847 0.0
C1033 C 0.88146 0.46405 0.53035 0.0
C1034 C 0.85027 0.47328 0.51651 0.0
H1035 H 0.93779 0.47644 0.53707 0.0
H1036 H 0.88121 0.43931 0.54095 0.0
C1037 C 0.85177 0.50527 0.50235 0.0
C1038 C 0.76379 0.91617 0.80431 0.0
C1039 C 0.79303 0.93142 0.82653 0.0
H1040 H 0.72006 0.92616 0.77339 0.0
C1041 C 0.80153 0.96908 0.83376 0.0
H1042 H 0.75652 0.88709 0.79888 0.0
C1043 C 0.78062 0.99138 0.81968 0.0
C1044 C 0.7507 0.97644 0.79806 0.0
H1045 H 0.82372 0.98138 0.85126 0.0
H1046 H 0.7876 0.02044 0.82629 0.0
C1047 C 0.74285 0.93851 0.78998 0.0
C1048 C 0.66134 0.54622 0.97625 0.0
C1049 C 0.63917 0.54759 1.00536 0.0
H1050 H 0.71016 0.56674 0.95556 0.0
C1051 C 0.65147 0.56995 0.0373 0.0
H1052 H 0.65338 0.52865 0.95148 0.0
C1053 C 0.68434 0.59129 0.03961 0.0
C1054 C 0.70511 0.59153 1.00984 0.0
H1055 H 0.63524 0.57206 0.06023 0.0
H1056 H 0.6929 0.60874 0.06431 0.0
C1057 C 0.69389 0.568 0.97848 0.0
C1058 C 0.29954 0.66895 0.26673 0.0
C1059 C 0.31343 0.67015 0.23332 0.0
H1060 H 0.26349 0.64096 0.29758 0.0
C1061 C 0.29735 0.64618 0.20397 0.0
H1062 H 0.31101 0.68744 0.28973 0.0
C1063 C 0.26906 0.62023 0.20842 0.0
C1064 C 0.25627 0.61839 0.24214 0.0
H1065 H 0.30779 0.64623 0.178 0.0
H1066 H 0.25773 0.60109 0.18574 0.0
C1067 C 0.27194 0.64277 0.27118 0.0
C1068 C 0.93041 0.59453 0.05186 0.0
C1069 C 0.93773 0.5658 0.02593 0.0
H1070 H 0.89534 0.63369 0.06916 0.0
C1071 C 0.91412 0.55351 0.99709 0.0
H1072 H 0.94856 0.6046 0.07413 0.0
C1073 C 0.88356 0.5702 0.99404 0.0
C1074 C 0.87644 0.59956 0.01971 0.0
H1075 H 0.91963 0.53153 0.97661 0.0
H1076 H 0.86589 0.56051 0.97136 0.0
C1077 C 0.90005 0.61126 0.04882 0.0
C1078 C 0.15965 0.98123 0.07613 0.0
C1079 C 0.13309 0.98737 0.05304 0.0
H1080 H 0.20724 0.95748 0.08198 0.0
C1081 C 0.13546 0.97371 0.01682 0.0
H1082 H 0.15936 0.99171 0.10405 0.0
C1083 C 0.16355 0.95501 1.00411 0.0
C1084 C 0.18967 0.94849 0.02726 0.0
H1085 H 0.11526 0.97673 0.99808 0.0
H1086 H 0.16435 0.94499 0.97611 0.0
C1087 C 0.18733 0.96172 0.06345 0.0
loop_
_geom_bond_atom_site_label_1
_geom_bond_atom_site_label_2
_geom_bond_distance
_geom_bond_site_symmetry_2
_ccdc_geom_bond_type
H0 C3 0.929 . S
H1 C6 0.929 . S
H2 C8 0.930 . S
C3 H0 0.929 . S
C3 C4 1.398 . S
C3 C5 1.396 . S
C4 C3 1.398 . S
C4 C8 1.407 . S
C5 C3 1.396 . S
C5 C6 1.394 . S
C6 H1 0.929 . S
C6 C5 1.394 . S
C6 C7 1.382 . S
C7 C6 1.382 . S
C7 C8 1.392 . S
C7 N9 1.420 . S
C8 H2 0.930 . S
C8 C4 1.407 . S
C8 C7 1.392 . S
N9 C7 1.420 . S
N9 C10 1.244 . S
C10 N9 1.244 . S
H11 C14 0.929 . S
H12 C17 0.929 . S
H13 C19 0.930 . S
C14 H11 0.929 . S
C14 C15 1.398 . S
C14 C16 1.396 . S
C15 C14 1.398 . S
C15 C19 1.407 . S
C16 C14 1.396 . S
C16 C17 1.394 . S
C17 H12 0.929 . S
C17 C16 1.394 . S
C17 C18 1.382 . S
C18 C17 1.382 . S
C18 C19 1.392 . S
C18 N20 1.420 . S
C19 H13 0.930 . S
C19 C15 1.407 . S
C19 C18 1.392 . S
N20 C18 1.420 . S
N20 C21 1.244 . S
C21 N20 1.244 . S
H22 C25 0.929 . S
H23 C28 0.929 . S
H24 C30 0.902 1_556 S
C25 H22 0.929 . S
C25 C26 1.398 . S
C25 C27 1.396 . S
C26 C25 1.398 . S
C26 C30 1.421 1_455 S
C27 C25 1.396 . S
C27 C28 1.394 . S
C28 H23 0.929 . S
C28 C27 1.394 . S
C28 C29 1.382 1_455 S
C29 C28 1.382 1_655 S
C29 C30 1.407 . S
C29 N31 1.420 . S
C30 H24 0.902 1_554 S
C30 C26 1.421 1_655 S
C30 C29 1.407 . S
N31 C29 1.420 . S
N31 C32 1.244 . S
C32 N31 1.244 . S
H33 C36 0.929 . S
H34 C39 0.929 . S
H35 C41 0.930 . S
C36 H33 0.929 . S
C36 C37 1.398 . S
C36 C38 1.396 . S
C37 C36 1.398 . S
C37 C41 1.407 . S
C38 C36 1.396 . S
C38 C39 1.394 . S
C39 H34 0.929 . S
C39 C38 1.394 . S
C39 C40 1.382 . S
C40 C39 1.382 . S
C40 C41 1.392 . S
C40 N42 1.420 . S
C41 H35 0.930 . S
C41 C37 1.407 . S
C41 C40 1.392 . S
N42 C40 1.420 . S
N42 C43 1.244 . S
C43 N42 1.244 . S
H44 C47 0.929 . S
H45 C50 0.929 . S
H46 C52 0.930 . S
C47 H44 0.929 . S
C47 C48 1.398 1_545 S
C47 C49 1.396 . S
C48 C47 1.398 1_565 S
C48 C52 1.407 . S
C49 C47 1.396 . S
C49 C50 1.394 1_545 S
C50 H45 0.929 . S
C50 C49 1.394 1_565 S
C50 C51 1.382 . S
C51 C50 1.382 . S
C51 C52 1.392 . S
C51 N53 1.420 . S
C52 H46 0.930 . S
C52 C48 1.407 . S
C52 C51 1.392 . S
N53 C51 1.420 . S
N53 C54 1.244 . S
C54 N53 1.244 . S
H55 C58 0.929 . S
H56 C61 0.929 . S
H57 C63 0.930 . S
C58 H55 0.929 . S
C58 C59 1.398 . S
C58 C60 1.396 . S
C59 C58 1.398 . S
C59 C63 1.407 . S
C60 C58 1.396 . S
C60 C61 1.394 . S
C61 H56 0.929 . S
C61 C60 1.394 . S
C61 C62 1.382 . S
C62 C61 1.382 . S
C62 C63 1.392 . S
C62 N64 1.420 . S
C63 H57 0.930 . S
C63 C59 1.407 . S
C63 C62 1.392 . S
N64 C62 1.420 . S
N64 C65 1.244 . S
C65 N64 1.244 . S
H66 C69 0.929 . S
H67 C72 0.929 . S
H68 C74 0.930 . S
C69 H66 0.929 . S
C69 C70 1.398 . S
C69 C71 1.396 . S
C70 C69 1.398 . S
C70 C74 1.407 . S
C71 C69 1.396 . S
C71 C72 1.394 1_655 S
C72 H67 0.929 . S
C72 C71 1.394 1_455 S
C72 C73 1.382 . S
C73 C72 1.382 . S
C73 C74 1.392 1_455 S
C73 N75 1.420 . S
C74 H68 0.930 . S
C74 C70 1.407 . S
C74 C73 1.392 1_655 S
N75 C73 1.420 . S
N75 C76 1.244 . S
C76 N75 1.244 . S
H77 C80 0.929 . S
H78 C83 0.929 . S
H79 C85 0.930 . S
C80 H77 0.929 . S
C80 C81 1.398 . S
C80 C82 1.396 . S
C81 C80 1.398 . S
C81 C85 1.407 . S
C82 C80 1.396 . S
C82 C83 1.394 . S
C83 H78 0.929 . S
C83 C82 1.394 . S
C83 C84 1.382 . S
C84 C83 1.382 . S
C84 C85 1.392 . S
C84 N86 1.420 . S
C85 H79 0.930 . S
C85 C81 1.407 . S
C85 C84 1.392 . S
N86 C84 1.420 . S
N86 C87 1.244 . S
C87 N86 1.244 . S
H88 C91 0.929 . S
H89 C94 0.929 . S
H90 C96 0.930 . S
C91 H88 0.929 . S
C91 C92 1.398 . S
C91 C93 1.396 . S
C92 C91 1.398 . S
C92 C96 1.407 . S
C93 C91 1.396 . S
C93 C94 1.394 . S
C94 H89 0.929 . S
C94 C93 1.394 . S
C94 C95 1.382 . S
C95 C94 1.382 . S
C95 C96 1.392 . S
C95 N97 1.420 . S
C96 H90 0.930 . S
C96 C92 1.407 . S
C96 C95 1.392 . S
N97 C95 1.420 . S
N97 C98 1.244 . S
C98 N97 1.244 . S
H99 C102 0.929 . S
H100 C105 0.929 . S
H101 C107 0.930 . S
C102 H99 0.929 . S
C102 C103 1.398 . S
C102 C104 1.396 . S
C103 C102 1.398 . S
C103 C107 1.407 . S
C104 C102 1.396 . S
C104 C105 1.394 1_565 S
C105 H100 0.929 . S
C105 C104 1.394 1_545 S
C105 C106 1.382 1_545 S
C106 C105 1.382 1_565 S
C106 C107 1.392 . S
C106 N108 1.420 1_565 S
C107 H101 0.930 . S
C107 C103 1.407 . S
C107 C106 1.392 . S
N108 C106 1.420 1_545 S
N108 C109 1.244 . S
C109 N108 1.244 . S
H110 C113 0.929 . S
H111 C116 0.929 . S
H112 C118 0.930 . S
C113 H110 0.929 . S
C113 C114 1.398 . S
C113 C115 1.396 . S
C114 C113 1.398 . S
C114 C118 1.407 . S
C115 C113 1.396 . S
C115 C116 1.394 . S
C116 H111 0.929 . S
C116 C115 1.394 . S
C116 C117 1.382 . S
C117 C116 1.382 . S
C117 C118 1.392 . S
C117 N119 1.420 . S
C118 H112 0.930 . S
C118 C114 1.407 . S
C118 C117 1.392 . S
N119 C117 1.420 . S
N119 C120 1.244 . S
C120 N119 1.244 . S
H121 C124 0.929 . S
H122 C127 0.929 . S
H123 C129 0.930 . S
C124 H121 0.929 . S
C124 C125 1.398 . S
C124 C126 1.396 . S
C125 C124 1.398 . S
C125 C129 1.407 . S
C126 C124 1.396 . S
C126 C127 1.394 . S
C127 H122 0.929 . S
C127 C126 1.394 . S
C127 C128 1.382 . S
C128 C127 1.382 . S
C128 C129 1.392 . S
C128 N130 1.420 . S
C129 H123 0.930 . S
C129 C125 1.407 . S
C129 C128 1.392 . S
N130 C128 1.420 . S
N130 C131 1.244 . S
C131 N130 1.244 . S
H132 C135 0.929 . S
H133 C138 0.929 . S
H134 C140 0.930 . S
C135 H132 0.929 . S
C135 C136 1.398 . S
C135 C137 1.396 . S
C136 C135 1.398 . S
C136 C140 1.407 . S
C137 C135 1.396 . S
C137 C138 1.394 . S
C138 H133 0.929 . S
C138 C137 1.394 . S
C138 C139 1.382 . S
C139 C138 1.382 . S
C139 C140 1.392 . S
C139 N141 1.420 . S
C140 H134 0.930 . S
C140 C136 1.407 . S
C140 C139 1.392 . S
N141 C139 1.420 . S
N141 C142 1.244 . S
C142 N141 1.244 . S
H143 C146 0.929 . S
H144 C149 0.929 . S
H145 C151 0.930 . S
C146 H143 0.929 . S
C146 C147 1.398 . S
C146 C148 1.396 . S
C147 C146 1.398 . S
C147 C151 1.407 . S
C148 C146 1.396 . S
C148 C149 1.394 1_556 S
C149 H144 0.929 . S
C149 C148 1.394 1_554 S
C149 C150 1.382 . S
C150 C149 1.382 . S
C150 C151 1.392 1_554 S
C150 N152 1.420 . S
C151 H145 0.930 . S
C151 C147 1.407 . S
C151 C150 1.392 1_556 S
N152 C150 1.420 . S
N152 C153 1.244 . S
C153 N152 1.244 . S
H154 C157 0.929 . S
H155 C160 0.929 . S
H156 C162 0.930 . S
C157 H154 0.929 . S
C157 C158 1.398 . S
C157 C159 1.396 . S
C158 C157 1.398 . S
C158 C162 1.407 . S
C159 C157 1.396 . S
C159 C160 1.394 . S
C160 H155 0.929 . S
C160 C159 1.394 . S
C160 C161 1.382 . S
C161 C160 1.382 . S
C161 C162 1.392 . S
C161 N163 1.420 . S
C162 H156 0.930 . S
C162 C158 1.407 . S
C162 C161 1.392 . S
N163 C161 1.420 . S
N163 C164 1.244 . S
C164 N163 1.244 . S
H165 C168 0.929 . S
H166 C171 0.929 . S
H167 C173 0.930 1_565 S
C168 H165 0.929 . S
C168 C169 1.398 1_554 S
C168 C170 1.396 . S
C169 C168 1.398 1_556 S
C169 C173 1.407 . S
C170 C168 1.396 . S
C170 C171 1.394 1_554 S
C171 H166 0.929 . S
C171 C170 1.394 1_556 S
C171 C172 1.382 . S
C172 C171 1.382 . S
C172 C173 1.392 . S
C172 N174 1.420 . S
C173 H167 0.930 1_545 S
C173 C169 1.407 . S
C173 C172 1.392 . S
N174 C172 1.420 . S
N174 C175 1.244 . S
C175 N174 1.244 . S
Mn176 O181 2.095 . S
Mn176 O191 2.162 . S
Mn176 O192 2.297 . S
Mn176 O200 2.385 . S
Mn176 O201 2.209 1_554 S
Mn176 O202 2.094 . S
Mn177 O182 2.115 1_556 S
Mn177 N184 2.257 . S
Mn177 N193 2.282 . S
Mn177 O201 2.215 . S
Mn177 O203 2.117 1_556 S
C178 O200 1.234 1_556 S
C178 O201 1.283 . S
C179 O191 1.281 . S
C179 O192 1.236 . S
C180 O202 1.240 . S
C180 O203 1.264 . S
O181 Mn176 2.095 . S
O181 C190 1.250 . S
O182 Mn177 2.115 1_554 S
O182 C190 1.278 . S
C183 N184 1.326 . S
C183 C187 1.460 . S
C183 H189 0.929 . S
N184 Mn177 2.257 . S
N184 C183 1.326 . S
N184 C188 1.362 . S
C185 C186 1.258 . S
C185 C188 1.431 . S
C185 C205 1.449 . S
C186 C185 1.258 . S
C186 C187 1.477 . S
C186 H206 0.931 . S
C187 C183 1.460 . S
C187 C186 1.477 . S
C187 H207 0.930 . S
C188 N184 1.362 . S
C188 C185 1.431 . S
C188 C198 1.476 . S
H189 C183 0.929 . S
C190 O181 1.250 . S
C190 O182 1.278 . S
O191 Mn176 2.162 . S
O191 C179 1.281 . S
O192 Mn176 2.297 . S
O192 C179 1.236 . S
N193 Mn177 2.282 . S
N193 C194 1.328 . S
N193 C198 1.318 . S
C194 N193 1.328 . S
C194 C195 1.457 . S
C194 H199 0.929 . S
C195 C194 1.457 . S
C195 C196 1.291 . S
C195 H208 0.931 . S
C196 C195 1.291 . S
C196 C197 1.373 . S
C196 H209 0.929 . S
C197 C196 1.373 . S
C197 C198 1.396 . S
C197 C204 1.403 . S
C198 C188 1.476 . S
C198 N193 1.318 . S
C198 C197 1.396 . S
H199 C194 0.929 . S
O200 Mn176 2.385 . S
O200 C178 1.234 1_554 S
O201 Mn176 2.209 1_556 S
O201 Mn177 2.215 . S
O201 C178 1.283 . S
O202 Mn176 2.094 . S
O202 C180 1.240 . S
O203 Mn177 2.117 1_554 S
O203 C180 1.264 . S
C204 C197 1.403 . S
C204 C205 1.399 . S
C204 H210 0.929 . S
C205 C185 1.449 . S
C205 C204 1.399 . S
C205 H211 0.930 . S
H206 C186 0.931 . S
H207 C187 0.930 . S
H208 C195 0.931 . S
H209 C196 0.929 . S
H210 C204 0.929 . S
H211 C205 0.930 . S
Mn212 O217 2.095 . S
Mn212 O227 2.162 . S
Mn212 O228 2.297 . S
Mn212 O236 2.385 . S
Mn212 O237 2.209 . S
Mn212 O238 2.094 . S
Mn213 O218 2.121 . S
Mn213 N220 2.257 . S
Mn213 N229 2.282 . S
Mn213 O237 2.215 . S
Mn213 O239 2.117 . S
C214 O236 1.234 . S
C214 O237 1.283 . S
C215 O227 1.281 . S
C215 O228 1.236 . S
C216 O238 1.240 . S
C216 O239 1.264 . S
O217 Mn212 2.095 . S
O217 C226 1.250 . S
O218 Mn213 2.121 . S
O218 C226 1.258 . S
C219 N220 1.326 . S
C219 C223 1.460 . S
C219 H225 0.929 . S
N220 Mn213 2.257 . S
N220 C219 1.326 . S
N220 C224 1.362 . S
C221 C222 1.258 . S
C221 C224 1.431 . S
C221 C241 1.449 . S
C222 C221 1.258 . S
C222 C223 1.477 . S
C222 H242 0.931 . S
C223 C219 1.460 . S
C223 C222 1.477 . S
C223 H243 0.930 . S
C224 N220 1.362 . S
C224 C221 1.431 . S
C224 C234 1.476 . S
H225 C219 0.929 . S
C226 O217 1.250 . S
C226 O218 1.258 . S
O227 Mn212 2.162 . S
O227 C215 1.281 . S
O228 Mn212 2.297 . S
O228 C215 1.236 . S
N229 Mn213 2.282 . S
N229 C230 1.328 . S
N229 C234 1.318 . S
C230 N229 1.328 . S
C230 C231 1.457 . S
C230 H235 0.929 . S
C231 C230 1.457 . S
C231 C232 1.291 . S
C231 H244 0.931 . S
C232 C231 1.291 . S
C232 C233 1.373 . S
C232 H245 0.929 . S
C233 C232 1.373 . S
C233 C234 1.396 . S
C233 C240 1.403 . S
C234 C224 1.476 . S
C234 N229 1.318 . S
C234 C233 1.396 . S
H235 C230 0.929 . S
O236 Mn212 2.385 . S
O236 C214 1.234 . S
O237 Mn212 2.209 . S
O237 Mn213 2.215 . S
O237 C214 1.283 . S
O238 Mn212 2.094 . S
O238 C216 1.240 . S
O239 Mn213 2.117 . S
O239 C216 1.264 . S
C240 C233 1.403 . S
C240 C241 1.399 . S
C240 H246 0.929 . S
C241 C221 1.449 . S
C241 C240 1.399 . S
C241 H247 0.930 . S
H242 C222 0.931 . S
H243 C223 0.930 . S
H244 C231 0.931 . S
H245 C232 0.929 . S
H246 C240 0.929 . S
H247 C241 0.930 . S
Mn248 O253 2.095 1_554 S
Mn248 O263 2.162 . S
Mn248 O264 2.297 1_554 S
Mn248 O272 2.385 . S
Mn248 O273 2.209 1_554 S
Mn248 O274 2.094 . S
Mn249 O254 2.121 . S
Mn249 N256 2.257 . S
Mn249 N265 2.267 1_556 S
Mn249 O273 2.215 . S
Mn249 O275 2.117 1_556 S
C250 O272 1.218 1_556 S
C250 O273 1.297 . S
C251 O263 1.295 . S
C251 O264 1.221 1_554 S
C252 O274 1.240 . S
C252 O275 1.264 . S
O253 Mn248 2.095 1_556 S
O253 C262 1.250 . S
O254 Mn249 2.121 . S
O254 C262 1.258 . S
C255 N256 1.326 . S
C255 C259 1.460 . S
C255 H261 0.929 . S
N256 Mn249 2.257 . S
N256 C255 1.326 . S
N256 C260 1.362 . S
C257 C258 1.258 . S
C257 C260 1.431 . S
C257 C277 1.449 . S
C258 C257 1.258 . S
C258 C259 1.477 . S
C258 H278 0.931 . S
C259 C255 1.460 . S
C259 C258 1.477 . S
C259 H279 0.930 . S
C260 N256 1.362 . S
C260 C257 1.431 . S
C260 C270 1.476 . S
H261 C255 0.929 . S
C262 O253 1.250 . S
C262 O254 1.258 . S
O263 Mn248 2.162 . S
O263 C251 1.295 . S
O264 Mn248 2.297 1_556 S
O264 C251 1.221 1_556 S
N265 Mn249 2.267 1_554 S
N265 C266 1.358 . S
N265 C270 1.301 1_554 S
C266 N265 1.358 . S
C266 C267 1.457 . S
C266 H271 0.929 . S
C267 C266 1.457 . S
C267 C268 1.291 . S
C267 H280 0.931 . S
C268 C267 1.291 . S
C268 C269 1.373 1_554 S
C268 H281 0.929 . S
C269 C268 1.373 1_556 S
C269 C270 1.396 . S
C269 C276 1.403 . S
C270 C260 1.476 . S
C270 N265 1.301 1_556 S
C270 C269 1.396 . S
H271 C266 0.929 . S
O272 Mn248 2.385 . S
O272 C250 1.218 1_554 S
O273 Mn248 2.209 1_556 S
O273 Mn249 2.215 . S
O273 C250 1.297 . S
O274 Mn248 2.094 . S
O274 C252 1.240 . S
O275 Mn249 2.117 1_554 S
O275 C252 1.264 . S
C276 C269 1.403 . S
C276 C277 1.399 . S
C276 H282 0.929 . S
C277 C257 1.449 . S
C277 C276 1.399 . S
C277 H283 0.930 . S
H278 C258 0.931 . S
H279 C259 0.930 . S
H280 C267 0.931 . S
H281 C268 0.929 . S
H282 C276 0.929 . S
H283 C277 0.930 . S
Mn284 O289 2.095 . S
Mn284 O299 2.162 . S
Mn284 O300 2.297 . S
Mn284 O308 2.385 . S
Mn284 O309 2.209 1_545 S
Mn284 O310 2.094 . S
Mn285 O290 2.121 . S
Mn285 N292 2.257 . S
Mn285 N301 2.282 . S
Mn285 O309 2.215 . S
Mn285 O311 2.117 . S
C286 O308 1.234 1_565 S
C286 O309 1.283 . S
C287 O299 1.281 . S
C287 O300 1.236 . S
C288 O310 1.240 . S
C288 O311 1.264 1_545 S
O289 Mn284 2.095 . S
O289 C298 1.250 . S
O290 Mn285 2.121 . S
O290 C298 1.258 1_565 S
C291 N292 1.326 . S
C291 C295 1.460 . S
C291 H297 0.929 . S
N292 Mn285 2.257 . S
N292 C291 1.326 . S
N292 C296 1.362 . S
C293 C294 1.258 . S
C293 C296 1.431 . S
C293 C313 1.449 . S
C294 C293 1.258 . S
C294 C295 1.477 . S
C294 H314 0.931 . S
C295 C291 1.460 . S
C295 C294 1.477 . S
C295 H315 0.930 . S
C296 N292 1.362 . S
C296 C293 1.431 . S
C296 C306 1.476 . S
H297 C291 0.929 . S
C298 O289 1.250 . S
C298 O290 1.258 1_545 S
O299 Mn284 2.162 . S
O299 C287 1.281 . S
O300 Mn284 2.297 . S
O300 C287 1.236 . S
N301 Mn285 2.282 . S
N301 C302 1.328 . S
N301 C306 1.318 . S
C302 N301 1.328 . S
C302 C303 1.457 . S
C302 H307 0.929 . S
C303 C302 1.457 . S
C303 C304 1.291 . S
C303 H316 0.931 . S
C304 C303 1.291 . S
C304 C305 1.373 . S
C304 H317 0.929 . S
C305 C304 1.373 . S
C305 C306 1.396 . S
C305 C312 1.403 . S
C306 C296 1.476 . S
C306 N301 1.318 . S
C306 C305 1.396 . S
H307 C302 0.929 . S
O308 Mn284 2.385 . S
O308 C286 1.234 1_545 S
O309 Mn284 2.209 1_565 S
O309 Mn285 2.215 . S
O309 C286 1.283 . S
O310 Mn284 2.094 . S
O310 C288 1.240 . S
O311 Mn285 2.117 . S
O311 C288 1.264 1_565 S
C312 C305 1.403 . S
C312 C313 1.399 . S
C312 H318 0.929 . S
C313 C293 1.449 . S
C313 C312 1.399 . S
C313 H319 0.930 . S
H314 C294 0.931 . S
H315 C295 0.930 . S
H316 C303 0.931 . S
H317 C304 0.929 . S
H318 C312 0.929 . S
H319 C313 0.930 . S
Mn320 O325 2.095 . S
Mn320 O335 2.162 . S
Mn320 O336 2.297 . S
Mn320 O344 2.385 . S
Mn320 O345 2.209 . S
Mn320 O346 2.094 . S
Mn321 O326 2.121 . S
Mn321 N328 2.257 . S
Mn321 N337 2.282 . S
Mn321 O345 2.215 . S
Mn321 O347 2.117 . S
C322 O344 1.234 . S
C322 O345 1.283 . S
C323 O335 1.281 . S
C323 O336 1.236 . S
C324 O346 1.240 . S
C324 O347 1.264 . S
O325 Mn320 2.095 . S
O325 C334 1.250 . S
O326 Mn321 2.121 . S
O326 C334 1.258 . S
C327 N328 1.326 . S
C327 C331 1.460 . S
C327 H333 0.929 . S
N328 Mn321 2.257 . S
N328 C327 1.326 . S
N328 C332 1.362 . S
C329 C330 1.258 . S
C329 C332 1.431 . S
C329 C349 1.449 . S
C330 C329 1.258 . S
C330 C331 1.477 . S
C330 H350 0.931 . S
C331 C327 1.460 . S
C331 C330 1.477 . S
C331 H351 0.930 . S
C332 N328 1.362 . S
C332 C329 1.431 . S
C332 C342 1.476 . S
H333 C327 0.929 . S
C334 O325 1.250 . S
C334 O326 1.258 . S
O335 Mn320 2.162 . S
O335 C323 1.281 . S
O336 Mn320 2.297 . S
O336 C323 1.236 . S
N337 Mn321 2.282 . S
N337 C338 1.328 . S
N337 C342 1.318 . S
C338 N337 1.328 . S
C338 C339 1.457 . S
C338 H343 0.929 . S
C339 C338 1.457 . S
C339 C340 1.291 . S
C339 H352 0.931 . S
C340 C339 1.291 . S
C340 C341 1.373 . S
C340 H353 0.929 . S
C341 C340 1.373 . S
C341 C342 1.396 . S
C341 C348 1.403 . S
C342 C332 1.476 . S
C342 N337 1.318 . S
C342 C341 1.396 . S
H343 C338 0.929 . S
O344 Mn320 2.385 . S
O344 C322 1.234 . S
O345 Mn320 2.209 . S
O345 Mn321 2.215 . S
O345 C322 1.283 . S
O346 Mn320 2.094 . S
O346 C324 1.240 . S
O347 Mn321 2.117 . S
O347 C324 1.264 . S
C348 C341 1.403 . S
C348 C349 1.399 . S
C348 H354 0.929 . S
C349 C329 1.449 . S
C349 C348 1.399 . S
C349 H355 0.930 . S
H350 C330 0.931 . S
H351 C331 0.930 . S
H352 C339 0.931 . S
H353 C340 0.929 . S
H354 C348 0.929 . S
H355 C349 0.930 . S
Mn356 O361 2.095 . S
Mn356 O371 2.162 . S
Mn356 O372 2.297 . S
Mn356 O380 2.385 . S
Mn356 O381 2.209 . S
Mn356 O382 2.094 . S
Mn357 O362 2.121 . S
Mn357 N364 2.257 . S
Mn357 N373 2.282 . S
Mn357 O381 2.215 . S
Mn357 O383 2.117 . S
C358 O380 1.234 . S
C358 O381 1.283 . S
C359 O371 1.281 . S
C359 O372 1.236 . S
C360 O382 1.240 . S
C360 O383 1.264 . S
O361 Mn356 2.095 . S
O361 C370 1.250 . S
O362 Mn357 2.121 . S
O362 C370 1.258 . S
C363 N364 1.326 . S
C363 C367 1.460 . S
C363 H369 0.929 . S
N364 Mn357 2.257 . S
N364 C363 1.326 . S
N364 C368 1.362 . S
C365 C366 1.258 . S
C365 C368 1.431 . S
C365 C385 1.449 . S
C366 C365 1.258 . S
C366 C367 1.477 . S
C366 H386 0.931 . S
C367 C363 1.460 . S
C367 C366 1.477 . S
C367 H387 0.930 . S
C368 N364 1.362 . S
C368 C365 1.431 . S
C368 C378 1.476 . S
H369 C363 0.929 . S
C370 O361 1.250 . S
C370 O362 1.258 . S
O371 Mn356 2.162 . S
O371 C359 1.281 . S
O372 Mn356 2.297 . S
O372 C359 1.236 . S
N373 Mn357 2.282 . S
N373 C374 1.328 . S
N373 C378 1.318 . S
C374 N373 1.328 . S
C374 C375 1.457 . S
C374 H379 0.929 . S
C375 C374 1.457 . S
C375 C376 1.291 . S
C375 H388 0.931 . S
C376 C375 1.291 . S
C376 C377 1.373 . S
C376 H389 0.929 . S
C377 C376 1.373 . S
C377 C378 1.396 . S
C377 C384 1.403 . S
C378 C368 1.476 . S
C378 N373 1.318 . S
C378 C377 1.396 . S
H379 C374 0.929 . S
O380 Mn356 2.385 . S
O380 C358 1.234 . S
O381 Mn356 2.209 . S
O381 Mn357 2.215 . S
O381 C358 1.283 . S
O382 Mn356 2.094 . S
O382 C360 1.240 . S
O383 Mn357 2.117 . S
O383 C360 1.264 . S
C384 C377 1.403 . S
C384 C385 1.399 . S
C384 H390 0.929 . S
C385 C365 1.449 . S
C385 C384 1.399 . S
C385 H391 0.930 . S
H386 C366 0.931 . S
H387 C367 0.930 . S
H388 C375 0.931 . S
H389 C376 0.929 . S
H390 C384 0.929 . S
H391 C385 0.930 . S
Mn392 O397 2.095 . S
Mn392 O407 2.162 . S
Mn392 O408 2.297 . S
Mn392 O416 2.385 . S
Mn392 O417 2.209 . S
Mn392 O418 2.094 . S
Mn393 O398 2.121 . S
Mn393 N400 2.257 . S
Mn393 N409 2.282 . S
Mn393 O417 2.215 . S
Mn393 O419 2.117 . S
C394 O416 1.234 . S
C394 O417 1.283 . S
C395 O407 1.281 . S
C395 O408 1.236 . S
C396 O418 1.240 . S
C396 O419 1.264 . S
O397 Mn392 2.095 . S
O397 C406 1.250 . S
O398 Mn393 2.121 . S
O398 C406 1.258 . S
C399 N400 1.326 . S
C399 C403 1.460 . S
C399 H405 0.929 . S
N400 Mn393 2.257 . S
N400 C399 1.326 . S
N400 C404 1.362 . S
C401 C402 1.258 . S
C401 C404 1.431 . S
C401 C421 1.449 . S
C402 C401 1.258 . S
C402 C403 1.477 . S
C402 H422 0.931 . S
C403 C399 1.460 . S
C403 C402 1.477 . S
C403 H423 0.930 . S
C404 N400 1.362 . S
C404 C401 1.431 . S
C404 C414 1.476 . S
H405 C399 0.929 . S
C406 O397 1.250 . S
C406 O398 1.258 . S
O407 Mn392 2.162 . S
O407 C395 1.281 . S
O408 Mn392 2.297 . S
O408 C395 1.236 . S
N409 Mn393 2.282 . S
N409 C410 1.328 . S
N409 C414 1.318 . S
C410 N409 1.328 . S
C410 C411 1.457 . S
C410 H415 0.929 . S
C411 C410 1.457 . S
C411 C412 1.291 . S
C411 H424 0.931 . S
C412 C411 1.291 . S
C412 C413 1.373 . S
C412 H425 0.929 . S
C413 C412 1.373 . S
C413 C414 1.396 . S
C413 C420 1.403 . S
C414 C404 1.476 . S
C414 N409 1.318 . S
C414 C413 1.396 . S
H415 C410 0.929 . S
O416 Mn392 2.385 . S
O416 C394 1.234 . S
O417 Mn392 2.209 . S
O417 Mn393 2.215 . S
O417 C394 1.283 . S
O418 Mn392 2.094 . S
O418 C396 1.240 . S
O419 Mn393 2.117 . S
O419 C396 1.264 . S
C420 C413 1.403 . S
C420 C421 1.399 . S
C420 H426 0.929 . S
C421 C401 1.449 . S
C421 C420 1.399 . S
C421 H427 0.930 . S
H422 C402 0.931 . S
H423 C403 0.930 . S
H424 C411 0.931 . S
H425 C412 0.929 . S
H426 C420 0.929 . S
H427 C421 0.930 . S
Mn428 O433 2.095 . S
Mn428 O443 2.162 . S
Mn428 O444 2.297 . S
Mn428 O452 2.385 1_565 S
Mn428 O453 2.209 1_565 S
Mn428 O454 2.094 . S
Mn429 O434 2.121 . S
Mn429 N436 2.257 . S
Mn429 N445 2.282 . S
Mn429 O453 2.215 . S
Mn429 O455 2.117 . S
C430 O452 1.234 . S
C430 O453 1.283 . S
C431 O443 1.281 . S
C431 O444 1.236 . S
C432 O454 1.240 . S
C432 O455 1.264 1_565 S
O433 Mn428 2.095 . S
O433 C442 1.250 1_565 S
O434 Mn429 2.121 . S
O434 C442 1.258 . S
C435 N436 1.326 . S
C435 C439 1.460 . S
C435 H441 0.929 . S
N436 Mn429 2.257 . S
N436 C435 1.326 . S
N436 C440 1.362 . S
C437 C438 1.258 . S
C437 C440 1.431 . S
C437 C457 1.449 . S
C438 C437 1.258 . S
C438 C439 1.477 . S
C438 H458 0.931 . S
C439 C435 1.460 . S
C439 C438 1.477 . S
C439 H459 0.930 . S
C440 N436 1.362 . S
C440 C437 1.431 . S
C440 C450 1.476 . S
H441 C435 0.929 . S
C442 O433 1.250 1_545 S
C442 O434 1.258 . S
O443 Mn428 2.162 . S
O443 C431 1.281 . S
O444 Mn428 2.297 . S
O444 C431 1.236 . S
N445 Mn429 2.282 . S
N445 C446 1.328 . S
N445 C450 1.318 . S
C446 N445 1.328 . S
C446 C447 1.457 . S
C446 H451 0.929 . S
C447 C446 1.457 . S
C447 C448 1.291 . S
C447 H460 0.931 . S
C448 C447 1.291 . S
C448 C449 1.373 . S
C448 H461 0.929 . S
C449 C448 1.373 . S
C449 C450 1.396 . S
C449 C456 1.403 . S
C450 C440 1.476 . S
C450 N445 1.318 . S
C450 C449 1.396 . S
H451 C446 0.929 . S
O452 Mn428 2.385 1_545 S
O452 C430 1.234 . S
O453 Mn428 2.209 1_545 S
O453 Mn429 2.215 . S
O453 C430 1.283 . S
O454 Mn428 2.094 . S
O454 C432 1.240 . S
O455 Mn429 2.117 . S
O455 C432 1.264 1_545 S
C456 C449 1.403 . S
C456 C457 1.399 . S
C456 H462 0.929 . S
C457 C437 1.449 . S
C457 C456 1.399 . S
C457 H463 0.930 . S
H458 C438 0.931 . S
H459 C439 0.930 . S
H460 C447 0.931 . S
H461 C448 0.929 . S
H462 C456 0.929 . S
H463 C457 0.930 . S
Mn464 O469 2.095 . S
Mn464 O479 2.162 . S
Mn464 O480 2.297 . S
Mn464 O488 2.385 . S
Mn464 O489 2.209 1_455 S
Mn464 O490 2.094 . S
Mn465 O470 2.121 . S
Mn465 N472 2.257 . S
Mn465 N481 2.282 . S
Mn465 O489 2.215 . S
Mn465 O491 2.117 . S
C466 O488 1.234 1_655 S
C466 O489 1.283 . S
C467 O479 1.281 . S
C467 O480 1.236 . S
C468 O490 1.240 . S
C468 O491 1.264 1_455 S
O469 Mn464 2.095 . S
O469 C478 1.250 . S
O470 Mn465 2.121 . S
O470 C478 1.258 1_655 S
C471 N472 1.326 . S
C471 C475 1.460 . S
C471 H477 0.929 . S
N472 Mn465 2.257 . S
N472 C471 1.326 . S
N472 C476 1.362 . S
C473 C474 1.258 . S
C473 C476 1.431 . S
C473 C493 1.449 . S
C474 C473 1.258 . S
C474 C475 1.477 . S
C474 H494 0.931 . S
C475 C471 1.460 . S
C475 C474 1.477 . S
C475 H495 0.930 . S
C476 N472 1.362 . S
C476 C473 1.431 . S
C476 C486 1.476 . S
H477 C471 0.929 . S
C478 O469 1.250 . S
C478 O470 1.258 1_455 S
O479 Mn464 2.162 . S
O479 C467 1.281 . S
O480 Mn464 2.297 . S
O480 C467 1.236 . S
N481 Mn465 2.282 . S
N481 C482 1.328 . S
N481 C486 1.318 . S
C482 N481 1.328 . S
C482 C483 1.457 . S
C482 H487 0.929 . S
C483 C482 1.457 . S
C483 C484 1.291 . S
C483 H496 0.931 . S
C484 C483 1.291 . S
C484 C485 1.373 . S
C484 H497 0.929 . S
C485 C484 1.373 . S
C485 C486 1.396 . S
C485 C492 1.403 . S
C486 C476 1.476 . S
C486 N481 1.318 . S
C486 C485 1.396 . S
H487 C482 0.929 . S
O488 Mn464 2.385 . S
O488 C466 1.234 1_455 S
O489 Mn464 2.209 1_655 S
O489 Mn465 2.215 . S
O489 C466 1.283 . S
O490 Mn464 2.094 . S
O490 C468 1.240 . S
O491 Mn465 2.117 . S
O491 C468 1.264 1_655 S
C492 C485 1.403 . S
C492 C493 1.399 . S
C492 H498 0.929 . S
C493 C473 1.449 . S
C493 C492 1.399 . S
C493 H499 0.930 . S
H494 C474 0.931 . S
H495 C475 0.930 . S
H496 C483 0.931 . S
H497 C484 0.929 . S
H498 C492 0.929 . S
H499 C493 0.930 . S
Mn500 O505 2.095 . S
Mn500 O515 2.162 . S
Mn500 O516 2.297 . S
Mn500 O524 2.385 . S
Mn500 O525 2.209 . S
Mn500 O526 2.094 . S
Mn501 O506 2.121 . S
Mn501 N508 2.257 . S
Mn501 N517 2.282 . S
Mn501 O525 2.215 . S
Mn501 O527 2.117 . S
C502 O524 1.234 . S
C502 O525 1.283 . S
C503 O515 1.281 . S
C503 O516 1.236 . S
C504 O526 1.240 . S
C504 O527 1.264 . S
O505 Mn500 2.095 . S
O505 C514 1.250 . S
O506 Mn501 2.121 . S
O506 C514 1.258 . S
C507 N508 1.326 . S
C507 C511 1.460 . S
C507 H513 0.929 . S
N508 Mn501 2.257 . S
N508 C507 1.326 . S
N508 C512 1.362 . S
C509 C510 1.258 . S
C509 C512 1.431 . S
C509 C529 1.449 . S
C510 C509 1.258 . S
C510 C511 1.477 . S
C510 H530 0.931 . S
C511 C507 1.460 . S
C511 C510 1.477 . S
C511 H531 0.930 . S
C512 N508 1.362 . S
C512 C509 1.431 . S
C512 C522 1.476 . S
H513 C507 0.929 . S
C514 O505 1.250 . S
C514 O506 1.258 . S
O515 Mn500 2.162 . S
O515 C503 1.281 . S
O516 Mn500 2.297 . S
O516 C503 1.236 . S
N517 Mn501 2.282 . S
N517 C518 1.328 . S
N517 C522 1.318 . S
C518 N517 1.328 . S
C518 C519 1.457 . S
C518 H523 0.929 . S
C519 C518 1.457 . S
C519 C520 1.291 . S
C519 H532 0.931 . S
C520 C519 1.291 . S
C520 C521 1.373 . S
C520 H533 0.929 . S
C521 C520 1.373 . S
C521 C522 1.396 . S
C521 C528 1.403 . S
C522 C512 1.476 . S
C522 N517 1.318 . S
C522 C521 1.396 . S
H523 C518 0.929 . S
O524 Mn500 2.385 . S
O524 C502 1.234 . S
O525 Mn500 2.209 . S
O525 Mn501 2.215 . S
O525 C502 1.283 . S
O526 Mn500 2.094 . S
O526 C504 1.240 . S
O527 Mn501 2.117 . S
O527 C504 1.264 . S
C528 C521 1.403 . S
C528 C529 1.399 . S
C528 H534 0.929 . S
C529 C509 1.449 . S
C529 C528 1.399 . S
C529 H535 0.930 . S
H530 C510 0.931 . S
H531 C511 0.930 . S
H532 C519 0.931 . S
H533 C520 0.929 . S
H534 C528 0.929 . S
H535 C529 0.930 . S
Mn536 O541 2.095 1_455 S
Mn536 O551 2.162 . S
Mn536 O552 2.297 1_455 S
Mn536 O560 2.385 . S
Mn536 O561 2.209 1_455 S
Mn536 O562 2.094 . S
Mn537 O542 2.121 . S
Mn537 N544 2.257 . S
Mn537 N553 2.282 1_655 S
Mn537 O561 2.215 . S
Mn537 O563 2.117 1_655 S
C538 O560 1.234 . S
C538 O561 1.283 1_455 S
C539 O551 1.281 . S
C539 O552 1.236 1_455 S
C540 O562 1.240 . S
C540 O563 1.264 . S
O541 Mn536 2.095 1_655 S
O541 C550 1.250 . S
O542 Mn537 2.121 . S
O542 C550 1.258 . S
C543 N544 1.326 . S
C543 C547 1.460 . S
C543 H549 0.929 . S
N544 Mn537 2.257 . S
N544 C543 1.326 . S
N544 C548 1.362 . S
C545 C546 1.258 . S
C545 C548 1.431 . S
C545 C565 1.449 . S
C546 C545 1.258 . S
C546 C547 1.477 . S
C546 H566 0.931 . S
C547 C543 1.460 . S
C547 C546 1.477 . S
C547 H567 0.930 . S
C548 N544 1.362 . S
C548 C545 1.431 . S
C548 C558 1.476 . S
H549 C543 0.929 . S
C550 O541 1.250 . S
C550 O542 1.258 . S
O551 Mn536 2.162 . S
O551 C539 1.281 . S
O552 Mn536 2.297 1_655 S
O552 C539 1.236 1_655 S
N553 Mn537 2.282 1_455 S
N553 C554 1.328 . S
N553 C558 1.318 1_455 S
C554 N553 1.328 . S
C554 C555 1.457 . S
C554 H559 0.929 . S
C555 C554 1.457 . S
C555 C556 1.291 . S
C555 H568 0.931 . S
C556 C555 1.291 . S
C556 C557 1.373 1_455 S
C556 H569 0.929 . S
C557 C556 1.373 1_655 S
C557 C558 1.396 . S
C557 C564 1.403 . S
C558 C548 1.476 . S
C558 N553 1.318 1_655 S
C558 C557 1.396 . S
H559 C554 0.929 . S
O560 Mn536 2.385 . S
O560 C538 1.234 . S
O561 Mn536 2.209 1_655 S
O561 Mn537 2.215 . S
O561 C538 1.283 1_655 S
O562 Mn536 2.094 . S
O562 C540 1.240 . S
O563 Mn537 2.117 1_455 S
O563 C540 1.264 . S
C564 C557 1.403 . S
C564 C565 1.399 . S
C564 H570 0.929 . S
C565 C545 1.449 . S
C565 C564 1.399 . S
C565 H571 0.930 . S
H566 C546 0.931 . S
H567 C547 0.930 . S
H568 C555 0.931 . S
H569 C556 0.929 . S
H570 C564 0.929 . S
H571 C565 0.930 . S
Mn572 O577 2.095 . S
Mn572 O587 2.162 . S
Mn572 O588 2.297 . S
Mn572 O596 2.385 . S
Mn572 O597 2.209 . S
Mn572 O598 2.094 . S
Mn573 O578 2.121 . S
Mn573 N580 2.257 . S
Mn573 N589 2.282 . S
Mn573 O597 2.215 . S
Mn573 O599 2.117 . S
C574 O596 1.234 . S
C574 O597 1.283 . S
C575 O587 1.281 . S
C575 O588 1.236 . S
C576 O598 1.240 . S
C576 O599 1.264 . S
O577 Mn572 2.095 . S
O577 C586 1.250 . S
O578 Mn573 2.121 . S
O578 C586 1.258 . S
C579 N580 1.326 . S
C579 C583 1.460 . S
C579 H585 0.929 . S
N580 Mn573 2.257 . S
N580 C579 1.326 . S
N580 C584 1.362 . S
C581 C582 1.258 . S
C581 C584 1.431 . S
C581 C601 1.449 . S
C582 C581 1.258 . S
C582 C583 1.477 . S
C582 H602 0.931 . S
C583 C579 1.460 . S
C583 C582 1.477 . S
C583 H603 0.930 . S
C584 N580 1.362 . S
C584 C581 1.431 . S
C584 C594 1.476 . S
H585 C579 0.929 . S
C586 O577 1.250 . S
C586 O578 1.258 . S
O587 Mn572 2.162 . S
O587 C575 1.281 . S
O588 Mn572 2.297 . S
O588 C575 1.236 . S
N589 Mn573 2.282 . S
N589 C590 1.328 . S
N589 C594 1.318 . S
C590 N589 1.328 . S
C590 C591 1.457 . S
C590 H595 0.929 . S
C591 C590 1.457 . S
C591 C592 1.291 . S
C591 H604 0.931 . S
C592 C591 1.291 . S
C592 C593 1.373 . S
C592 H605 0.929 . S
C593 C592 1.373 . S
C593 C594 1.396 . S
C593 C600 1.403 . S
C594 C584 1.476 . S
C594 N589 1.318 . S
C594 C593 1.396 . S
H595 C590 0.929 . S
O596 Mn572 2.385 . S
O596 C574 1.234 . S
O597 Mn572 2.209 . S
O597 Mn573 2.215 . S
O597 C574 1.283 . S
O598 Mn572 2.094 . S
O598 C576 1.240 . S
O599 Mn573 2.117 . S
O599 C576 1.264 . S
C600 C593 1.403 . S
C600 C601 1.399 . S
C600 H606 0.929 . S
C601 C581 1.449 . S
C601 C600 1.399 . S
C601 H607 0.930 . S
H602 C582 0.931 . S
H603 C583 0.930 . S
H604 C591 0.931 . S
H605 C592 0.929 . S
H606 C600 0.929 . S
H607 C601 0.930 . S
C608 C609 1.387 . S
C608 H612 0.950 . S
C608 C617 1.390 . S
C609 C608 1.387 . S
C609 C611 1.387 . S
H610 C617 0.950 . S
C611 C609 1.387 . S
C611 C613 1.390 . S
C611 H615 0.950 . S
H612 C608 0.950 . S
C613 C611 1.390 . S
C613 C614 1.387 . S
C613 H616 0.950 . S
C614 C613 1.387 . S
C614 C617 1.387 . S
H615 C611 0.950 . S
H616 C613 0.950 . S
C617 C608 1.390 . S
C617 H610 0.950 . S
C617 C614 1.387 . S
C618 C619 1.387 . S
C618 H622 0.950 . S
C618 C627 1.390 . S
C619 C618 1.387 . S
C619 C621 1.387 . S
H620 C627 0.950 . S
C621 C619 1.387 . S
C621 C623 1.390 . S
C621 H625 0.950 . S
H622 C618 0.950 . S
C623 C621 1.390 . S
C623 C624 1.387 . S
C623 H626 0.950 . S
C624 C623 1.387 . S
C624 C627 1.387 . S
H625 C621 0.950 . S
H626 C623 0.950 . S
C627 C618 1.390 . S
C627 H620 0.950 . S
C627 C624 1.387 . S
C628 C629 1.387 . S
C628 H632 0.950 . S
C628 C637 1.390 . S
C629 C628 1.387 . S
C629 C631 1.387 . S
H630 C637 0.950 . S
C631 C629 1.387 . S
C631 C633 1.390 . S
C631 H635 0.950 . S
H632 C628 0.950 . S
C633 C631 1.390 . S
C633 C634 1.387 . S
C633 H636 0.950 . S
C634 C633 1.387 . S
C634 C637 1.387 . S
H635 C631 0.950 . S
H636 C633 0.950 . S
C637 C628 1.390 . S
C637 H630 0.950 . S
C637 C634 1.387 . S
C638 C639 1.387 . S
C638 H642 0.950 . S
C638 C647 1.390 . S
C639 C638 1.387 . S
C639 C641 1.387 1_545 S
H640 C647 0.950 . S
C641 C639 1.387 1_565 S
C641 C643 1.390 1_455 S
C641 H645 0.950 . S
H642 C638 0.950 . S
C643 C641 1.390 1_655 S
C643 C644 1.387 1_565 S
C643 H646 0.950 . S
C644 C643 1.387 1_545 S
C644 C647 1.387 1_655 S
H645 C641 0.950 . S
H646 C643 0.950 . S
C647 C638 1.390 . S
C647 H640 0.950 . S
C647 C644 1.387 1_455 S
C648 C649 1.387 . S
C648 H652 0.950 . S
C648 C657 1.390 . S
C649 C648 1.387 . S
C649 C651 1.387 . S
H650 C657 0.950 . S
C651 C649 1.387 . S
C651 C653 1.390 . S
C651 H655 0.950 . S
H652 C648 0.950 . S
C653 C651 1.390 . S
C653 C654 1.387 . S
C653 H656 0.950 . S
C654 C653 1.387 . S
C654 C657 1.387 . S
H655 C651 0.950 . S
H656 C653 0.950 . S
C657 C648 1.390 . S
C657 H650 0.950 . S
C657 C654 1.387 . S
C658 C659 1.387 . S
C658 H662 0.950 . S
C658 C667 1.390 . S
C659 C658 1.387 . S
C659 C661 1.387 . S
H660 C667 0.950 . S
C661 C659 1.387 . S
C661 C663 1.390 . S
C661 H665 0.950 . S
H662 C658 0.950 . S
C663 C661 1.390 . S
C663 C664 1.387 . S
C663 H666 0.950 . S
C664 C663 1.387 . S
C664 C667 1.387 . S
H665 C661 0.950 . S
H666 C663 0.950 . S
C667 C658 1.390 . S
C667 H660 0.950 . S
C667 C664 1.387 . S
C668 C669 1.387 . S
C668 H672 0.950 . S
C668 C677 1.390 . S
C669 C668 1.387 . S
C669 C671 1.387 . S
H670 C677 0.950 . S
C671 C669 1.387 . S
C671 C673 1.390 . S
C671 H675 0.950 . S
H672 C668 0.950 . S
C673 C671 1.390 . S
C673 C674 1.387 . S
C673 H676 0.950 . S
C674 C673 1.387 . S
C674 C677 1.387 . S
H675 C671 0.950 . S
H676 C673 0.950 . S
C677 C668 1.390 . S
C677 H670 0.950 . S
C677 C674 1.387 . S
C678 C679 1.387 1_545 S
C678 H682 0.950 . S
C678 C687 1.390 . S
C679 C678 1.387 1_565 S
C679 C681 1.387 . S
H680 C687 0.950 . S
C681 C679 1.387 . S
C681 C683 1.390 . S
C681 H685 0.950 . S
H682 C678 0.950 . S
C683 C681 1.390 . S
C683 C684 1.387 . S
C683 H686 0.950 . S
C684 C683 1.387 . S
C684 C687 1.387 1_565 S
H685 C681 0.950 . S
H686 C683 0.950 . S
C687 C678 1.390 . S
C687 H680 0.950 . S
C687 C684 1.387 1_545 S
C688 C689 1.387 . S
C688 H692 0.950 . S
C688 C697 1.390 . S
C689 C688 1.387 . S
C689 C691 1.387 . S
H690 C697 0.950 . S
C691 C689 1.387 . S
C691 C693 1.390 . S
C691 H695 0.950 . S
H692 C688 0.950 . S
C693 C691 1.390 . S
C693 C694 1.387 . S
C693 H696 0.950 . S
C694 C693 1.387 . S
C694 C697 1.387 . S
H695 C691 0.950 . S
H696 C693 0.950 . S
C697 C688 1.390 . S
C697 H690 0.950 . S
C697 C694 1.387 . S
C698 C699 1.387 . S
C698 H702 0.950 . S
C698 C707 1.390 . S
C699 C698 1.387 . S
C699 C701 1.387 . S
H700 C707 0.950 . S
C701 C699 1.387 . S
C701 C703 1.390 . S
C701 H705 0.950 . S
H702 C698 0.950 . S
C703 C701 1.390 . S
C703 C704 1.387 . S
C703 H706 0.950 . S
C704 C703 1.387 . S
C704 C707 1.387 . S
H705 C701 0.950 . S
H706 C703 0.950 . S
C707 C698 1.390 . S
C707 H700 0.950 . S
C707 C704 1.387 . S
C708 C709 1.387 . S
C708 H712 0.950 . S
C708 C717 1.390 . S
C709 C708 1.387 . S
C709 C711 1.387 . S
H710 C717 0.950 . S
C711 C709 1.387 . S
C711 C713 1.390 . S
C711 H715 0.950 . S
H712 C708 0.950 . S
C713 C711 1.390 . S
C713 C714 1.387 . S
C713 H716 0.950 . S
C714 C713 1.387 . S
C714 C717 1.387 . S
H715 C711 0.950 . S
H716 C713 0.950 . S
C717 C708 1.390 . S
C717 H710 0.950 . S
C717 C714 1.387 . S
C718 C719 1.387 . S
C718 H722 0.950 . S
C718 C727 1.390 . S
C719 C718 1.387 . S
C719 C721 1.387 . S
H720 C727 0.950 . S
C721 C719 1.387 . S
C721 C723 1.390 . S
C721 H725 0.950 . S
H722 C718 0.950 . S
C723 C721 1.390 . S
C723 C724 1.387 . S
C723 H726 0.950 . S
C724 C723 1.387 . S
C724 C727 1.387 . S
H725 C721 0.950 . S
H726 C723 0.950 . S
C727 C718 1.390 . S
C727 H720 0.950 . S
C727 C724 1.387 . S
C728 C729 1.387 . S
C728 H732 0.950 . S
C728 C737 1.390 . S
C729 C728 1.387 . S
C729 C731 1.387 . S
H730 C737 0.950 . S
C731 C729 1.387 . S
C731 C733 1.390 . S
C731 H735 0.950 . S
H732 C728 0.950 . S
C733 C731 1.390 . S
C733 C734 1.387 . S
C733 H736 0.950 . S
C734 C733 1.387 . S
C734 C737 1.387 . S
H735 C731 0.950 . S
H736 C733 0.950 . S
C737 C728 1.390 . S
C737 H730 0.950 . S
C737 C734 1.387 . S
C738 C739 1.387 . S
C738 H742 0.950 . S
C738 C747 1.390 . S
C739 C738 1.387 . S
C739 C741 1.387 . S
H740 C747 0.950 . S
C741 C739 1.387 . S
C741 C743 1.390 . S
C741 H745 0.950 . S
H742 C738 0.950 . S
C743 C741 1.390 . S
C743 C744 1.387 . S
C743 H746 0.950 . S
C744 C743 1.387 . S
C744 C747 1.387 . S
H745 C741 0.950 . S
H746 C743 0.950 . S
C747 C738 1.390 . S
C747 H740 0.950 . S
C747 C744 1.387 . S
C748 C749 1.387 . S
C748 H752 0.950 . S
C748 C757 1.390 . S
C749 C748 1.387 . S
C749 C751 1.387 . S
H750 C757 0.950 . S
C751 C749 1.387 . S
C751 C753 1.390 . S
C751 H755 0.950 . S
H752 C748 0.950 . S
C753 C751 1.390 . S
C753 C754 1.387 . S
C753 H756 0.950 . S
C754 C753 1.387 . S
C754 C757 1.387 . S
H755 C751 0.950 . S
H756 C753 0.950 . S
C757 C748 1.390 . S
C757 H750 0.950 . S
C757 C754 1.387 . S
C758 C759 1.413 . S
C758 H762 0.950 . S
C758 C767 1.390 . S
C759 C758 1.413 . S
C759 C761 1.361 1_455 S
H760 C767 0.950 . S
C761 C759 1.361 1_655 S
C761 C763 1.390 . S
C761 H765 0.950 . S
H762 C758 0.950 . S
C763 C761 1.390 . S
C763 C764 1.387 1_655 S
C763 H766 0.950 . S
C764 C763 1.387 1_455 S
C764 C767 1.387 . S
H765 C761 0.950 . S
H766 C763 0.950 . S
C767 C758 1.390 . S
C767 H760 0.950 . S
C767 C764 1.387 . S
C768 C769 1.387 . S
C768 H772 0.950 . S
C768 C777 1.390 . S
C769 C768 1.387 . S
C769 C771 1.387 . S
H770 C777 0.950 . S
C771 C769 1.387 . S
C771 C773 1.390 . S
C771 H775 0.950 . S
H772 C768 0.950 . S
C773 C771 1.390 . S
C773 C774 1.387 . S
C773 H776 0.950 . S
C774 C773 1.387 . S
C774 C777 1.387 . S
H775 C771 0.950 . S
H776 C773 0.950 . S
C777 C768 1.390 . S
C777 H770 0.950 . S
C777 C774 1.387 . S
C778 C779 1.387 . S
C778 H782 0.950 . S
C778 C787 1.390 . S
C779 C778 1.387 . S
C779 C781 1.387 . S
H780 C787 0.950 . S
C781 C779 1.387 . S
C781 C783 1.390 . S
C781 H785 0.950 . S
H782 C778 0.950 . S
C783 C781 1.390 . S
C783 C784 1.387 . S
C783 H786 0.950 . S
C784 C783 1.387 . S
C784 C787 1.387 . S
H785 C781 0.950 . S
H786 C783 0.950 . S
C787 C778 1.390 . S
C787 H780 0.950 . S
C787 C784 1.387 . S
C788 C789 1.387 . S
C788 H792 0.950 1_565 S
C788 C797 1.390 . S
C789 C788 1.387 . S
C789 C791 1.387 1_554 S
H790 C797 0.950 . S
C791 C789 1.387 1_556 S
C791 C793 1.390 . S
C791 H795 0.950 . S
H792 C788 0.950 1_545 S
C793 C791 1.390 . S
C793 C794 1.387 1_556 S
C793 H796 0.950 . S
C794 C793 1.387 1_554 S
C794 C797 1.387 . S
H795 C791 0.950 . S
H796 C793 0.950 . S
C797 C788 1.390 . S
C797 H790 0.950 . S
C797 C794 1.387 . S
C798 C799 1.387 . S
C798 H802 0.950 . S
C798 C807 1.390 . S
C799 C798 1.387 . S
C799 C801 1.387 . S
H800 C807 0.950 . S
C801 C799 1.387 . S
C801 C803 1.390 . S
C801 H805 0.950 . S
H802 C798 0.950 . S
C803 C801 1.390 . S
C803 C804 1.387 . S
C803 H806 0.950 . S
C804 C803 1.387 . S
C804 C807 1.387 . S
H805 C801 0.950 . S
H806 C803 0.950 . S
C807 C798 1.390 . S
C807 H800 0.950 . S
C807 C804 1.387 . S
C808 C809 1.387 . S
C808 H812 0.950 . S
C808 C817 1.390 . S
C809 C808 1.387 . S
C809 C811 1.387 . S
H810 C817 0.950 . S
C811 C809 1.387 . S
C811 C813 1.390 . S
C811 H815 0.950 . S
H812 C808 0.950 . S
C813 C811 1.390 . S
C813 C814 1.387 . S
C813 H816 0.950 . S
C814 C813 1.387 . S
C814 C817 1.387 . S
H815 C811 0.950 . S
H816 C813 0.950 . S
C817 C808 1.390 . S
C817 H810 0.950 . S
C817 C814 1.387 . S
C818 C819 1.387 . S
C818 H822 0.950 . S
C818 C827 1.390 . S
C819 C818 1.387 . S
C819 C821 1.387 . S
H820 C827 0.950 . S
C821 C819 1.387 . S
C821 C823 1.390 . S
C821 H825 0.950 . S
H822 C818 0.950 . S
C823 C821 1.390 . S
C823 C824 1.387 . S
C823 H826 0.950 . S
C824 C823 1.387 . S
C824 C827 1.387 . S
H825 C821 0.950 . S
H826 C823 0.950 . S
C827 C818 1.390 . S
C827 H820 0.950 . S
C827 C824 1.387 . S
C828 C829 1.387 . S
C828 H832 0.950 . S
C828 C837 1.390 . S
C829 C828 1.387 . S
C829 C831 1.387 . S
H830 C837 0.950 . S
C831 C829 1.387 . S
C831 C833 1.390 . S
C831 H835 0.950 . S
H832 C828 0.950 . S
C833 C831 1.390 . S
C833 C834 1.387 . S
C833 H836 0.950 . S
C834 C833 1.387 . S
C834 C837 1.387 . S
H835 C831 0.950 . S
H836 C833 0.950 . S
C837 C828 1.390 . S
C837 H830 0.950 . S
C837 C834 1.387 . S
C838 C839 1.387 . S
C838 H842 0.950 . S
C838 C847 1.390 . S
C839 C838 1.387 . S
C839 C841 1.387 . S
H840 C847 0.950 . S
C841 C839 1.387 . S
C841 C843 1.390 . S
C841 H845 0.950 . S
H842 C838 0.950 . S
C843 C841 1.390 . S
C843 C844 1.387 . S
C843 H846 0.950 . S
C844 C843 1.387 . S
C844 C847 1.387 . S
H845 C841 0.950 . S
H846 C843 0.950 . S
C847 C838 1.390 . S
C847 H840 0.950 . S
C847 C844 1.387 . S
C848 C849 1.387 . S
C848 H852 0.950 . S
C848 C857 1.390 . S
C849 C848 1.387 . S
C849 C851 1.387 . S
H850 C857 0.950 . S
C851 C849 1.387 . S
C851 C853 1.390 . S
C851 H855 0.950 . S
H852 C848 0.950 . S
C853 C851 1.390 . S
C853 C854 1.387 . S
C853 H856 0.950 . S
C854 C853 1.387 . S
C854 C857 1.387 . S
H855 C851 0.950 . S
H856 C853 0.950 . S
C857 C848 1.390 . S
C857 H850 0.950 . S
C857 C854 1.387 . S
C858 C859 1.387 1_565 S
C858 H862 0.950 . S
C858 C867 1.390 . S
C859 C858 1.387 1_545 S
C859 C861 1.387 . S
H860 C867 0.950 . S
C861 C859 1.387 . S
C861 C863 1.390 . S
C861 H865 0.950 . S
H862 C858 0.950 . S
C863 C861 1.390 . S
C863 C864 1.387 . S
C863 H866 0.950 . S
C864 C863 1.387 . S
C864 C867 1.387 1_545 S
H865 C861 0.950 . S
H866 C863 0.950 . S
C867 C858 1.390 . S
C867 H860 0.950 . S
C867 C864 1.387 1_565 S
C868 C869 1.387 . S
C868 H872 0.950 . S
C868 C877 1.390 . S
C869 C868 1.387 . S
C869 C871 1.387 . S
H870 C877 0.950 . S
C871 C869 1.387 . S
C871 C873 1.390 . S
C871 H875 0.950 . S
H872 C868 0.950 . S
C873 C871 1.390 . S
C873 C874 1.387 . S
C873 H876 0.950 . S
C874 C873 1.387 . S
C874 C877 1.387 . S
H875 C871 0.950 . S
H876 C873 0.950 . S
C877 C868 1.390 . S
C877 H870 0.950 . S
C877 C874 1.387 . S
C878 C879 1.387 . S
C878 H882 0.950 . S
C878 C887 1.390 . S
C879 C878 1.387 . S
C879 C881 1.387 . S
H880 C887 0.950 . S
C881 C879 1.387 . S
C881 C883 1.390 . S
C881 H885 0.950 . S
H882 C878 0.950 . S
C883 C881 1.390 . S
C883 C884 1.387 . S
C883 H886 0.950 . S
C884 C883 1.387 . S
C884 C887 1.387 . S
H885 C881 0.950 . S
H886 C883 0.950 . S
C887 C878 1.390 . S
C887 H880 0.950 . S
C887 C884 1.387 . S
C888 C889 1.387 . S
C888 H892 0.950 . S
C888 C897 1.390 . S
C889 C888 1.387 . S
C889 C891 1.387 . S
H890 C897 0.950 . S
C891 C889 1.387 . S
C891 C893 1.390 . S
C891 H895 0.950 . S
H892 C888 0.950 . S
C893 C891 1.390 . S
C893 C894 1.387 . S
C893 H896 0.950 . S
C894 C893 1.387 . S
C894 C897 1.387 . S
H895 C891 0.950 . S
H896 C893 0.950 . S
C897 C888 1.390 . S
C897 H890 0.950 . S
C897 C894 1.387 . S
C898 C899 1.387 . S
C898 H902 0.950 . S
C898 C907 1.390 . S
C899 C898 1.387 . S
C899 C901 1.387 1_545 S
H900 C907 0.950 . S
C901 C899 1.387 1_565 S
C901 C903 1.383 1_455 S
C901 H905 0.950 . S
H902 C898 0.950 . S
C903 C901 1.383 1_655 S
C903 C904 1.368 1_565 S
C903 H906 0.977 . S
C904 C903 1.368 1_545 S
C904 C907 1.387 1_655 S
H905 C901 0.950 . S
H906 C903 0.977 . S
C907 C898 1.390 . S
C907 H900 0.950 . S
C907 C904 1.387 1_455 S
C908 C909 1.387 . S
C908 H912 0.950 . S
C908 C917 1.390 . S
C909 C908 1.387 . S
C909 C911 1.387 . S
H910 C917 0.950 . S
C911 C909 1.387 . S
C911 C913 1.390 . S
C911 H915 0.950 . S
H912 C908 0.950 . S
C913 C911 1.390 . S
C913 C914 1.387 . S
C913 H916 0.950 . S
C914 C913 1.387 . S
C914 C917 1.387 . S
H915 C911 0.950 . S
H916 C913 0.950 . S
C917 C908 1.390 . S
C917 H910 0.950 . S
C917 C914 1.387 . S
C918 C919 1.387 . S
C918 H922 0.950 . S
C918 C927 1.390 . S
C919 C918 1.387 . S
C919 C921 1.387 . S
H920 C927 0.950 . S
C921 C919 1.387 . S
C921 C923 1.390 . S
C921 H925 0.950 . S
H922 C918 0.950 . S
C923 C921 1.390 . S
C923 C924 1.387 . S
C923 H926 0.950 . S
C924 C923 1.387 . S
C924 C927 1.387 . S
H925 C921 0.950 . S
H926 C923 0.950 . S
C927 C918 1.390 . S
C927 H920 0.950 . S
C927 C924 1.387 . S
C928 C929 1.387 . S
C928 H932 0.950 . S
C928 C937 1.390 . S
C929 C928 1.387 . S
C929 C931 1.387 . S
H930 C937 0.950 . S
C931 C929 1.387 . S
C931 C933 1.390 . S
C931 H935 0.950 . S
H932 C928 0.950 . S
C933 C931 1.390 . S
C933 C934 1.387 . S
C933 H936 0.950 . S
C934 C933 1.387 . S
C934 C937 1.387 . S
H935 C931 0.950 . S
H936 C933 0.950 . S
C937 C928 1.390 . S
C937 H930 0.950 . S
C937 C934 1.387 . S
C938 C939 1.387 1_655 S
C938 H942 0.950 . S
C938 C947 1.390 . S
C939 C938 1.387 1_455 S
C939 C941 1.387 . S
H940 C947 0.950 . S
C941 C939 1.387 . S
C941 C943 1.390 . S
C941 H945 0.950 1_556 S
H942 C938 0.950 . S
C943 C941 1.390 . S
C943 C944 1.387 . S
C943 H946 0.950 . S
C944 C943 1.387 . S
C944 C947 1.387 1_455 S
H945 C941 0.950 1_554 S
H946 C943 0.950 . S
C947 C938 1.390 . S
C947 H940 0.950 . S
C947 C944 1.387 1_655 S
C948 C949 1.387 . S
C948 H952 0.950 . S
C948 C957 1.390 . S
C949 C948 1.387 . S
C949 C951 1.387 . S
H950 C957 0.950 . S
C951 C949 1.387 . S
C951 C953 1.390 . S
C951 H955 0.950 . S
H952 C948 0.950 . S
C953 C951 1.390 . S
C953 C954 1.387 . S
C953 H956 0.950 . S
C954 C953 1.387 . S
C954 C957 1.387 . S
H955 C951 0.950 . S
H956 C953 0.950 . S
C957 C948 1.390 . S
C957 H950 0.950 . S
C957 C954 1.387 . S
C958 C959 1.387 . S
C958 H962 0.950 1_556 S
C958 C967 1.390 . S
C959 C958 1.387 . S
C959 C961 1.387 . S
H960 C967 0.950 . S
C961 C959 1.387 . S
C961 C963 1.390 . S
C961 H965 0.950 . S
H962 C958 0.950 1_554 S
C963 C961 1.390 . S
C963 C964 1.387 . S
C963 H966 0.950 . S
C964 C963 1.387 . S
C964 C967 1.387 . S
H965 C961 0.950 . S
H966 C963 0.950 . S
C967 C958 1.390 . S
C967 H960 0.950 . S
C967 C964 1.387 . S
C968 C969 1.387 . S
C968 H972 0.950 . S
C968 C977 1.390 . S
C969 C968 1.387 . S
C969 C971 1.387 . S
H970 C977 0.950 . S
C971 C969 1.387 . S
C971 C973 1.390 . S
C971 H975 0.950 . S
H972 C968 0.950 . S
C973 C971 1.390 . S
C973 C974 1.387 . S
C973 H976 0.950 . S
C974 C973 1.387 . S
C974 C977 1.387 . S
H975 C971 0.950 . S
H976 C973 0.950 . S
C977 C968 1.390 . S
C977 H970 0.950 . S
C977 C974 1.387 . S
C978 C979 1.387 . S
C978 H982 0.950 . S
C978 C987 1.390 . S
C979 C978 1.387 . S
C979 C981 1.387 . S
H980 C987 0.950 . S
C981 C979 1.387 . S
C981 C983 1.390 . S
C981 H985 0.950 . S
H982 C978 0.950 . S
C983 C981 1.390 . S
C983 C984 1.387 . S
C983 H986 0.950 . S
C984 C983 1.387 . S
C984 C987 1.387 . S
H985 C981 0.950 . S
H986 C983 0.950 . S
C987 C978 1.390 . S
C987 H980 0.950 . S
C987 C984 1.387 . S
C988 C989 1.387 . S
C988 H992 0.950 . S
C988 C997 1.390 . S
C989 C988 1.387 . S
C989 C991 1.387 . S
H990 C997 0.950 . S
C991 C989 1.387 . S
C991 C993 1.390 . S
C991 H995 0.950 . S
H992 C988 0.950 . S
C993 C991 1.390 . S
C993 C994 1.387 . S
C993 H996 0.950 . S
C994 C993 1.387 . S
C994 C997 1.387 . S
H995 C991 0.950 . S
H996 C993 0.950 . S
C997 C988 1.390 . S
C997 H990 0.950 . S
C997 C994 1.387 . S
C998 C999 1.387 . S
C998 H1002 0.950 . S
C998 C1007 1.390 . S
C999 C998 1.387 . S
C999 C1001 1.387 . S
H1000 C1007 0.950 . S
C1001 C999 1.387 . S
C1001 C1003 1.390 . S
C1001 H1005 0.950 . S
H1002 C998 0.950 . S
C1003 C1001 1.390 . S
C1003 C1004 1.387 . S
C1003 H1006 0.950 . S
C1004 C1003 1.387 . S
C1004 C1007 1.387 . S
H1005 C1001 0.950 . S
H1006 C1003 0.950 . S
C1007 C998 1.390 . S
C1007 H1000 0.950 . S
C1007 C1004 1.387 . S
C1008 C1009 1.387 . S
C1008 H1012 0.950 . S
C1008 C1017 1.390 . S
C1009 C1008 1.387 . S
C1009 C1011 1.387 . S
H1010 C1017 0.950 . S
C1011 C1009 1.387 . S
C1011 C1013 1.390 . S
C1011 H1015 0.950 . S
H1012 C1008 0.950 . S
C1013 C1011 1.390 . S
C1013 C1014 1.387 . S
C1013 H1016 0.950 . S
C1014 C1013 1.387 . S
C1014 C1017 1.387 . S
H1015 C1011 0.950 . S
H1016 C1013 0.950 . S
C1017 C1008 1.390 . S
C1017 H1010 0.950 . S
C1017 C1014 1.387 . S
C1018 C1019 1.387 . S
C1018 H1022 0.950 . S
C1018 C1027 1.390 . S
C1019 C1018 1.387 . S
C1019 C1021 1.387 . S
H1020 C1027 0.950 . S
C1021 C1019 1.387 . S
C1021 C1023 1.390 . S
C1021 H1025 0.950 . S
H1022 C1018 0.950 . S
C1023 C1021 1.390 . S
C1023 C1024 1.387 . S
C1023 H1026 0.950 . S
C1024 C1023 1.387 . S
C1024 C1027 1.387 . S
H1025 C1021 0.950 . S
H1026 C1023 0.950 . S
C1027 C1018 1.390 . S
C1027 H1020 0.950 . S
C1027 C1024 1.387 . S
C1028 C1029 1.387 . S
C1028 H1032 0.950 . S
C1028 C1037 1.390 . S
C1029 C1028 1.387 . S
C1029 C1031 1.387 . S
H1030 C1037 0.950 . S
C1031 C1029 1.387 . S
C1031 C1033 1.390 . S
C1031 H1035 0.950 . S
H1032 C1028 0.950 . S
C1033 C1031 1.390 . S
C1033 C1034 1.387 . S
C1033 H1036 0.950 . S
C1034 C1033 1.387 . S
C1034 C1037 1.387 . S
H1035 C1031 0.950 . S
H1036 C1033 0.950 . S
C1037 C1028 1.390 . S
C1037 H1030 0.950 . S
C1037 C1034 1.387 . S
C1038 C1039 1.387 . S
C1038 H1042 0.950 . S
C1038 C1047 1.390 . S
C1039 C1038 1.387 . S
C1039 C1041 1.387 . S
H1040 C1047 0.950 . S
C1041 C1039 1.387 . S
C1041 C1043 1.390 . S
C1041 H1045 0.950 . S
H1042 C1038 0.950 . S
C1043 C1041 1.390 . S
C1043 C1044 1.387 . S
C1043 H1046 0.950 . S
C1044 C1043 1.387 . S
C1044 C1047 1.387 . S
H1045 C1041 0.950 . S
H1046 C1043 0.950 . S
C1047 C1038 1.390 . S
C1047 H1040 0.950 . S
C1047 C1044 1.387 . S
C1048 C1049 1.387 . S
C1048 H1052 0.950 . S
C1048 C1057 1.390 . S
C1049 C1048 1.387 . S
C1049 C1051 1.387 1_556 S
H1050 C1057 0.950 . S
C1051 C1049 1.387 1_554 S
C1051 C1053 1.390 . S
C1051 H1055 0.950 . S
H1052 C1048 0.950 . S
C1053 C1051 1.390 . S
C1053 C1054 1.387 1_554 S
C1053 H1056 0.950 . S
C1054 C1053 1.387 1_556 S
C1054 C1057 1.387 . S
H1055 C1051 0.950 . S
H1056 C1053 0.950 . S
C1057 C1048 1.390 . S
C1057 H1050 0.950 . S
C1057 C1054 1.387 . S
C1058 C1059 1.387 . S
C1058 H1062 0.950 . S
C1058 C1067 1.390 . S
C1059 C1058 1.387 . S
C1059 C1061 1.387 . S
H1060 C1067 0.950 . S
C1061 C1059 1.387 . S
C1061 C1063 1.390 . S
C1061 H1065 0.950 . S
H1062 C1058 0.950 . S
C1063 C1061 1.390 . S
C1063 C1064 1.387 . S
C1063 H1066 0.950 . S
C1064 C1063 1.387 . S
C1064 C1067 1.387 . S
H1065 C1061 0.950 . S
H1066 C1063 0.950 . S
C1067 C1058 1.390 . S
C1067 H1060 0.950 . S
C1067 C1064 1.387 . S
C1068 C1069 1.387 . S
C1068 H1072 0.950 . S
C1068 C1077 1.390 . S
C1069 C1068 1.387 . S
C1069 C1071 1.387 1_554 S
H1070 C1077 0.950 . S
C1071 C1069 1.387 1_556 S
C1071 C1073 1.390 . S
C1071 H1075 0.950 . S
H1072 C1068 0.950 . S
C1073 C1071 1.390 . S
C1073 C1074 1.387 1_556 S
C1073 H1076 0.950 . S
C1074 C1073 1.387 1_554 S
C1074 C1077 1.387 . S
H1075 C1071 0.950 . S
H1076 C1073 0.950 . S
C1077 C1068 1.390 . S
C1077 H1070 0.950 . S
C1077 C1074 1.387 . S
C1078 C1079 1.387 . S
C1078 H1082 0.953 . S
C1078 C1087 1.390 . S
C1079 C1078 1.387 . S
C1079 C1081 1.387 . S
H1080 C1087 0.950 . S
C1081 C1079 1.387 . S
C1081 C1083 1.390 . S
C1081 H1085 0.940 1_554 S
H1082 C1078 0.953 . S
C1083 C1081 1.390 . S
C1083 C1084 1.387 . S
C1083 H1086 0.932 1_554 S
C1084 C1083 1.387 . S
C1084 C1087 1.387 . S
H1085 C1081 0.940 1_556 S
H1086 C1083 0.932 1_556 S
C1087 C1078 1.390 . S
C1087 H1080 0.950 . S
C1087 C1084 1.387 . S
C614 C178 1.552 . S
C609 C60 1.552 . S
C624 C226 1.433 . S
C619 C76 1.466 . S
C629 C81 1.568 . S
C634 C262 1.509 . S
C644 C298 1.579 . S
C639 C48 1.653 1_545 S
C654 C324 1.470 . S
C649 C115 1.460 . S
C664 C360 1.650 . S
C659 C136 1.669 . S
C669 C131 1.452 . S
C674 C395 1.469 . S
C684 C432 1.539 . S
C679 C104 1.540 . S
C689 C126 1.490 . S
C694 C466 1.494 . S
C704 C514 1.484 . S
C699 C103 1.515 . S
C709 C120 1.404 . S
C714 C467 1.419 . S
C724 C504 1.559 . S
C719 C142 1.558 . S
C729 C82 1.456 . S
C734 C550 1.384 . S
C739 C54 1.761 . S
C744 C539 1.757 . S
C749 C65 1.464 . S
C754 C540 1.468 . S
C759 C71 1.404 1_455 S
C764 C538 1.406 . S
C769 C37 1.512 . S
C774 C286 1.511 . S
C779 C158 1.820 . S
C784 C287 1.831 . S
C794 C190 1.462 . S
C789 C169 1.547 1_564 S
C804 C215 1.289 . S
C799 C98 1.284 . S
C809 C49 1.743 . S
C814 C322 1.739 . S
C824 C430 1.459 . S
C819 C125 1.469 . S
C834 C323 1.459 . S
C829 C109 1.474 . S
C844 C396 1.771 . S
C839 C137 1.781 . S
C854 C394 1.553 . S
C849 C159 1.552 . S
C859 C175 1.466 . S
C864 C442 1.432 . S
C869 C92 1.568 . S
C874 C334 1.507 . S
C884 C370 1.580 . S
C879 C147 1.653 . S
C889 C38 1.459 . S
C894 C252 1.469 . S
C904 C288 1.650 . S
C899 C4 1.669 . S
C914 C179 1.468 . S
C909 C21 1.452 . S
C924 C216 1.539 . S
C919 C27 1.540 . S
C929 C16 1.488 . S
C934 C502 1.492 . S
C939 C26 1.515 1_556 S
C944 C478 1.484 . S
C949 C43 1.404 . S
C954 C503 1.419 . S
C959 C10 1.558 1_556 S
C964 C468 1.558 . S
C974 C586 1.386 . S
C969 C93 1.457 . S
C984 C575 1.756 . S
C979 C153 1.761 . S
C994 C576 1.468 . S
C989 C164 1.464 . S
C999 C170 1.406 . S
C1004 C574 1.406 . S
C1009 C114 1.513 . S
C1014 C358 1.511 . S
C1024 C359 1.831 . S
C1019 C59 1.820 . S
C1034 C406 1.463 . S
C1029 C70 1.547 . S
C1044 C431 1.289 . S
C1039 C87 1.284 . S
C1049 C148 1.743 . S
C1054 C250 1.739 . S
C1064 C214 1.460 . S
C1059 C15 1.470 . S
C1069 C32 1.474 . S
C1074 C251 1.463 . S
C1084 C180 1.770 . S
C1079 C5 1.781 1_565 S
