# Generated by pormake.
# Topology dag, (6,3)-cn, num edge types: 1
# Building blocks:
#     Node 0, Type 0, BuildingBlock: OJICUG_clean_sbu_0, # of connection points: 6
#     Node 1, Type 0, BuildingBlock: OJICUG_clean_sbu_0, # of connection points: 6
#     Node 2, Type 0, BuildingBlock: OJICUG_clean_sbu_0, # of connection points: 6
#     Node 3, Type 0, BuildingBlock: OJICUG_clean_sbu_0, # of connection points: 6
#     Node 4, Type 1, BuildingBlock: MIDCAF_clean_linker_0, # of connection points: 3
#     Node 5, Type 1, BuildingBlock: MIDCAF_clean_linker_0, # of connection points: 3
#     Node 6, Type 1, BuildingBlock: MIDCAF_clean_linker_0, # of connection points: 3
#     Node 7, Type 1, BuildingBlock: MIDCAF_clean_linker_0, # of connection points: 3
#     Node 8, Type 1, BuildingBlock: MIDCAF_clean_linker_0, # of connection points: 3
#     Node 9, Type 1, BuildingBlock: MIDCAF_clean_linker_0, # of connection points: 3
#     Node 10, Type 1, BuildingBlock: MIDCAF_clean_linker_0, # of connection points: 3
#     Node 11, Type 1, BuildingBlock: MIDCAF_clean_linker_0, # of connection points: 3
#     Edge 12, Type (0, 1), BuildingBlock: ZUJKAS_clean_linker_0, # of connection points: 2
#     Edge 13, Type (0, 1), BuildingBlock: ZUJKAS_clean_linker_0, # of connection points: 2
#     Edge 14, Type (0, 1), BuildingBlock: ZUJKAS_clean_linker_0, # of connection points: 2
#     Edge 15, Type (0, 1), BuildingBlock: ZUJKAS_clean_linker_0, # of connection points: 2
#     Edge 16, Type (0, 1), BuildingBlock: ZUJKAS_clean_linker_0, # of connection points: 2
#     Edge 17, Type (0, 1), BuildingBlock: ZUJKAS_clean_linker_0, # of connection points: 2
#     Edge 18, Type (0, 1), BuildingBlock: ZUJKAS_clean_linker_0, # of connection points: 2
#     Edge 19, Type (0, 1), BuildingBlock: ZUJKAS_clean_linker_0, # of connection points: 2
#     Edge 20, Type (0, 1), BuildingBlock: ZUJKAS_clean_linker_0, # of connection points: 2
#     Edge 21, Type (0, 1), BuildingBlock: ZUJKAS_clean_linker_0, # of connection points: 2
#     Edge 22, Type (0, 1), BuildingBlock: ZUJKAS_clean_linker_0, # of connection points: 2
#     Edge 23, Type (0, 1), BuildingBlock: ZUJKAS_clean_linker_0, # of connection points: 2
#     Edge 24, Type (0, 1), BuildingBlock: ZUJKAS_clean_linker_0, # of connection points: 2
#     Edge 25, Type (0, 1), BuildingBlock: ZUJKAS_clean_linker_0, # of connection points: 2
#     Edge 26, Type (0, 1), BuildingBlock: ZUJKAS_clean_linker_0, # of connection points: 2
#     Edge 27, Type (0, 1), BuildingBlock: ZUJKAS_clean_linker_0, # of connection points: 2
#     Edge 28, Type (0, 1), BuildingBlock: ZUJKAS_clean_linker_0, # of connection points: 2
#     Edge 29, Type (0, 1), BuildingBlock: ZUJKAS_clean_linker_0, # of connection points: 2
#     Edge 30, Type (0, 1), BuildingBlock: ZUJKAS_clean_linker_0, # of connection points: 2
#     Edge 31, Type (0, 1), BuildingBlock: ZUJKAS_clean_linker_0, # of connection points: 2
#     Edge 32, Type (0, 1), BuildingBlock: ZUJKAS_clean_linker_0, # of connection points: 2
#     Edge 33, Type (0, 1), BuildingBlock: ZUJKAS_clean_linker_0, # of connection points: 2
#     Edge 34, Type (0, 1), BuildingBlock: ZUJKAS_clean_linker_0, # of connection points: 2
#     Edge 35, Type (0, 1), BuildingBlock: ZUJKAS_clean_linker_0, # of connection points: 2
# Relax obj value: 0.257
# Max RMSD: 0.201
# Mean RMSD: 0.165
data_MOF--net-dag--node1-OJICUG_clean_sbu_0--node2-MIDCAF_clean_linker_0--edge1-ZUJKAS_clean_linker_0
_symmetry_space_group_name_H-M    P1
_symmetry_Int_Tables_number       1
_symmetry_cell_setting            triclinic
loop_
_symmetry_equiv_pos_as_xyz
'x, y, z'
_cell_length_a     56.569391
_cell_length_b     54.074876
_cell_length_c     55.474738
_cell_angle_alpha  89.817274
_cell_angle_beta   95.166176
_cell_angle_gamma 89.896253
loop_
_atom_site_label
_atom_site_type_symbol
_atom_site_fract_x
_atom_site_fract_y
_atom_site_fract_z
_atom_type_partial_charge
Sc0 Sc 0.15626 0.87001 0.02605 0.0
Sc1 Sc 0.17462 0.81702 0.99618 0.0
Sc2 Sc 0.21729 0.85628 0.02671 0.0
O3 O 0.18275 0.84776 0.01633 0.0
C4 C 0.19513 0.90965 0.01362 0.0
C5 C 0.13756 0.85608 0.97173 0.0
C6 C 0.22031 0.83764 0.97257 0.0
C7 C 0.13381 0.8166 0.03252 0.0
C8 C 0.19213 0.86981 0.07413 0.0
C9 C 0.21686 0.79739 0.03329 0.0
O10 O 0.1738 0.90308 0.01547 0.0
O11 O 0.15039 0.83684 0.97079 0.0
O12 O 0.22809 0.85045 0.99077 0.0
O13 O 0.13582 0.83942 0.03769 0.0
O14 O 0.21029 0.86325 0.06376 0.0
O15 O 0.19814 0.79396 0.01922 0.0
O16 O 0.17188 0.87316 0.06267 0.0
O17 O 0.14631 0.80606 0.01759 0.0
O18 O 0.22592 0.81867 0.03726 0.0
O19 O 0.13748 0.86942 0.99054 0.0
O20 O 0.21264 0.89494 0.01752 0.0
O21 O 0.20173 0.82445 0.97239 0.0
Sc22 Sc 0.71518 0.64742 0.52842 0.0
Sc23 Sc 0.67219 0.68652 0.49757 0.0
Sc24 Sc 0.65426 0.63291 0.52683 0.0
O25 O 0.68058 0.65562 0.51763 0.0
C26 C 0.69429 0.59385 0.51542 0.0
C27 C 0.71826 0.66663 0.47425 0.0
C28 C 0.63632 0.64669 0.47233 0.0
C29 C 0.71401 0.70614 0.53511 0.0
C30 C 0.68907 0.63383 0.57549 0.0
C31 C 0.6308 0.68615 0.53285 0.0
O32 O 0.7115 0.60894 0.51853 0.0
O33 O 0.69911 0.67904 0.4736 0.0
O34 O 0.6372 0.63237 0.49061 0.0
O35 O 0.72303 0.68489 0.53972 0.0
O36 O 0.66876 0.63116 0.56396 0.0
O37 O 0.64433 0.69744 0.51943 0.0
O38 O 0.70757 0.63937 0.56517 0.0
O39 O 0.69577 0.70946 0.52034 0.0
O40 O 0.63215 0.663 0.53676 0.0
O41 O 0.72644 0.65438 0.4928 0.0
O42 O 0.67296 0.6 0.5179 0.0
O43 O 0.64762 0.66701 0.47235 0.0
Sc44 Sc 0.82394 0.18727 0.09192 0.0
Sc45 Sc 0.78103 0.14793 0.06175 0.0
Sc46 Sc 0.84196 0.1336 0.063 0.0
O47 O 0.81561 0.15629 0.0722 0.0
C48 C 0.86544 0.18653 0.05652 0.0
C49 C 0.78227 0.20667 0.054 0.0
C50 C 0.80664 0.13356 0.01466 0.0
C51 C 0.77761 0.16809 0.11531 0.0
C52 C 0.85997 0.14773 0.11748 0.0
C53 C 0.80252 0.09459 0.0757 0.0
O54 O 0.8526 0.19753 0.0708 0.0
O55 O 0.77295 0.18545 0.05029 0.0
O56 O 0.82693 0.1307 0.02618 0.0
O57 O 0.79643 0.18091 0.11547 0.0
O58 O 0.85974 0.13396 0.09893 0.0
O59 O 0.78511 0.10947 0.07208 0.0
O60 O 0.84786 0.16756 0.11782 0.0
O61 O 0.76992 0.15487 0.09738 0.0
O62 O 0.82379 0.10089 0.07321 0.0
O63 O 0.80089 0.2101 0.06821 0.0
O64 O 0.86335 0.16363 0.05176 0.0
O65 O 0.78832 0.13984 0.02494 0.0
Sc66 Sc 0.34459 0.3643 0.56412 0.0
Sc67 Sc 0.28348 0.3508 0.56021 0.0
Sc68 Sc 0.325 0.30953 0.59013 0.0
O69 O 0.31767 0.34152 0.57144 0.0
C70 C 0.36781 0.31145 0.55634 0.0
C71 C 0.31071 0.36606 0.51459 0.0
C72 C 0.28389 0.2922 0.55111 0.0
C73 C 0.30516 0.4035 0.57595 0.0
C74 C 0.36062 0.34734 0.61843 0.0
C75 C 0.27844 0.32921 0.61288 0.0
O76 O 0.36591 0.33454 0.55227 0.0
O77 O 0.29203 0.35899 0.52381 0.0
O78 O 0.30267 0.28801 0.56487 0.0
O79 O 0.3266 0.39683 0.57512 0.0
O80 O 0.34808 0.32781 0.61754 0.0
O81 O 0.27184 0.34392 0.59562 0.0
O82 O 0.3614 0.36191 0.60047 0.0
O83 O 0.28776 0.38912 0.5705 0.0
O84 O 0.29648 0.31517 0.61268 0.0
O85 O 0.33049 0.36909 0.52706 0.0
O86 O 0.35454 0.29995 0.56988 0.0
O87 O 0.27466 0.31363 0.54842 0.0
C88 C 0.03362 0.03885 0.30426 0.0
C89 C 0.02397 0.06158 0.31079 0.0
C90 C 0.03487 0.0743 0.33085 0.0
C91 C 0.0556 0.06509 0.34338 0.0
H92 H 0.1074 0.08365 0.39528 0.0
H93 H 0.12968 0.11227 0.4221 0.0
H94 H 0.1922 0.06649 0.42058 0.0
H95 H 0.17005 0.03796 0.39315 0.0
H96 H 0.17082 0.99732 0.35153 0.0
H97 H 0.19184 0.96866 0.32702 0.0
H98 H 0.12531 0.94851 0.28765 0.0
H99 H 0.10435 0.97644 0.3123 0.0
H100 H 0.06165 0.0125 0.31063 0.0
H101 H 0.02582 0.02867 0.28875 0.0
H102 H 0.02766 0.09168 0.33655 0.0
H103 H 0.06391 0.07579 0.35828 0.0
N104 N 0.10129 0.04837 0.36496 0.0
N105 N 0.13486 0.02299 0.36383 0.0
N106 N 0.10076 0.01544 0.33768 0.0
C107 C 0.12387 0.04248 0.37356 0.0
C108 C 0.12333 0.00926 0.34596 0.0
C109 C 0.08957 0.03491 0.34708 0.0
C110 C 0.13694 0.05854 0.39182 0.0
C111 C 0.12584 0.07947 0.40076 0.0
C112 C 0.1386 0.09587 0.41632 0.0
C113 C 0.16275 0.09173 0.42342 0.0
C114 C 0.17369 0.07039 0.41515 0.0
C115 C 0.16093 0.05396 0.39953 0.0
C116 C 0.13589 0.98947 0.3337 0.0
C117 C 0.16063 0.98641 0.33796 0.0
C118 C 0.17271 0.97008 0.32383 0.0
C119 C 0.16031 0.95639 0.30526 0.0
C120 C 0.13545 0.95848 0.30197 0.0
C121 C 0.12341 0.97476 0.31601 0.0
C122 C 0.06593 0.04298 0.33606 0.0
C123 C 0.05432 0.02965 0.31675 0.0
C124 C 0.30662 0.67399 0.61557 0.0
C125 C 0.29375 0.66036 0.63155 0.0
C126 C 0.28868 0.67122 0.65349 0.0
C127 C 0.29728 0.69478 0.65981 0.0
H128 H 0.29437 0.75033 0.70911 0.0
H129 H 0.28583 0.76771 0.74764 0.0
H130 H 0.34334 0.81961 0.74422 0.0
H131 H 0.35194 0.80238 0.70527 0.0
H132 H 0.38767 0.79545 0.6633 0.0
H133 H 0.42577 0.80287 0.64705 0.0
H134 H 0.41082 0.74399 0.59541 0.0
H135 H 0.37283 0.73731 0.61077 0.0
H136 H 0.326 0.70698 0.60959 0.0
H137 H 0.31099 0.66605 0.59862 0.0
H138 H 0.2786 0.66122 0.66605 0.0
H139 H 0.29376 0.70224 0.67723 0.0
N140 N 0.31756 0.74289 0.67263 0.0
N141 N 0.34907 0.77069 0.66995 0.0
N142 N 0.3424 0.73905 0.64138 0.0
C143 C 0.33008 0.76289 0.68135 0.0
C144 C 0.35528 0.75886 0.64985 0.0
C145 C 0.32353 0.73095 0.65258 0.0
C146 C 0.32401 0.77478 0.70408 0.0
C147 C 0.30521 0.76552 0.71639 0.0
C148 C 0.30036 0.77538 0.7386 0.0
C149 C 0.31411 0.7948 0.7491 0.0
C150 C 0.33242 0.80467 0.73652 0.0
C151 C 0.33738 0.79472 0.71425 0.0
C152 C 0.37719 0.76562 0.63854 0.0
C153 C 0.39237 0.7844 0.64819 0.0
C154 C 0.4143 0.78856 0.63898 0.0
C155 C 0.4215 0.774 0.61995 0.0
C156 C 0.40584 0.75593 0.60975 0.0
C157 C 0.38398 0.7519 0.6188 0.0
C158 C 0.31135 0.7078 0.64443 0.0
C159 C 0.31539 0.69741 0.62196 0.0
C160 C 0.8032 0.72657 0.23987 0.0
C161 C 0.81639 0.70721 0.25147 0.0
C162 C 0.83492 0.69648 0.23983 0.0
C163 C 0.84054 0.7054 0.21734 0.0
H164 H 0.89735 0.71055 0.17304 0.0
H165 H 0.93588 0.70383 0.15732 0.0
H166 H 0.90991 0.73911 0.0901 0.0
H167 H 0.87161 0.74555 0.10555 0.0
H168 H 0.83532 0.79019 0.10982 0.0
H169 H 0.82165 0.83133 0.09741 0.0
H170 H 0.78329 0.83675 0.16106 0.0
H171 H 0.79663 0.79535 0.17342 0.0
H172 H 0.79827 0.75054 0.20922 0.0
H173 H 0.78851 0.73491 0.24816 0.0
H174 H 0.84547 0.6816 0.24839 0.0
H175 H 0.85521 0.69701 0.20907 0.0
N176 N 0.85318 0.72663 0.17207 0.0
N177 N 0.84743 0.75676 0.1416 0.0
N178 N 0.82231 0.75565 0.17284 0.0
C179 C 0.85972 0.73699 0.15132 0.0
C180 C 0.82873 0.76624 0.1522 0.0
C181 C 0.83428 0.73572 0.18279 0.0
C182 C 0.88151 0.72889 0.14066 0.0
C183 C 0.89971 0.71633 0.1547 0.0
C184 C 0.92182 0.7126 0.14576 0.0
C185 C 0.926 0.72109 0.12254 0.0
C186 C 0.90725 0.73212 0.10797 0.0
C187 C 0.88531 0.73602 0.11694 0.0
C188 C 0.81742 0.78955 0.14286 0.0
C189 C 0.82371 0.79994 0.12106 0.0
C190 C 0.81594 0.82359 0.11395 0.0
C191 C 0.80172 0.83746 0.12846 0.0
C192 C 0.79417 0.82651 0.14945 0.0
C193 C 0.80192 0.80278 0.15658 0.0
C194 C 0.82766 0.72518 0.20598 0.0
C195 C 0.80873 0.73542 0.21742 0.0
C196 C 0.66891 0.42839 0.91735 0.0
C197 C 0.65921 0.40704 0.92709 0.0
C198 C 0.6351 0.40173 0.92102 0.0
C199 C 0.62119 0.41698 0.9051 0.0
H200 H 0.55793 0.41643 0.86408 0.0
H201 H 0.52156 0.39901 0.84412 0.0
H202 H 0.51433 0.46244 0.79645 0.0
H203 H 0.55017 0.48008 0.81658 0.0
H204 H 0.59253 0.51412 0.81122 0.0
H205 H 0.61139 0.54023 0.78292 0.0
H206 H 0.6801 0.52356 0.81964 0.0
H207 H 0.66126 0.49718 0.84829 0.0
H208 H 0.66319 0.45969 0.89385 0.0
H209 H 0.68734 0.43319 0.92194 0.0
H210 H 0.6271 0.38527 0.92791 0.0
H211 H 0.60284 0.41191 0.90048 0.0
N212 N 0.59396 0.44611 0.8692 0.0
N213 N 0.59129 0.47737 0.83986 0.0
N214 N 0.62675 0.47168 0.86449 0.0
C215 C 0.58107 0.45843 0.85113 0.0
C216 C 0.61404 0.48421 0.84639 0.0
C217 C 0.61674 0.45272 0.87614 0.0
C218 C 0.55722 0.44953 0.84173 0.0
C219 C 0.54835 0.4269 0.84965 0.0
C220 C 0.52756 0.41683 0.83813 0.0
C221 C 0.51516 0.4292 0.81854 0.0
C222 C 0.52328 0.45249 0.81162 0.0
C223 C 0.54403 0.46253 0.82308 0.0
C224 C 0.62539 0.50312 0.83183 0.0
C225 C 0.61164 0.51614 0.81357 0.0
C226 C 0.62243 0.5311 0.79727 0.0
C227 C 0.64721 0.53354 0.79885 0.0
C228 C 0.66094 0.52195 0.81803 0.0
C229 C 0.65013 0.50681 0.83438 0.0
C230 C 0.63106 0.4379 0.89472 0.0
C231 C 0.655 0.44365 0.90135 0.0
C232 C 0.6003 0.23556 0.48604 0.0
C233 C 0.58193 0.22297 0.47249 0.0
C234 C 0.58643 0.21263 0.45013 0.0
C235 C 0.60848 0.2159 0.44098 0.0
H236 H 0.64912 0.19665 0.38524 0.0
H237 H 0.65856 0.17849 0.34705 0.0
H238 H 0.72122 0.2241 0.3481 0.0
H239 H 0.71211 0.24203 0.38628 0.0
H240 H 0.70788 0.29497 0.41467 0.0
H241 H 0.72207 0.33642 0.42564 0.0
H242 H 0.69161 0.33015 0.49401 0.0
H243 H 0.6775 0.28881 0.48322 0.0
H244 H 0.63563 0.24966 0.48738 0.0
H245 H 0.59736 0.24398 0.50321 0.0
H246 H 0.57266 0.20264 0.43939 0.0
H247 H 0.61108 0.20852 0.42328 0.0
N248 N 0.65449 0.22519 0.42264 0.0
N249 N 0.68573 0.25331 0.41996 0.0
N250 N 0.66079 0.25687 0.45122 0.0
C251 C 0.67345 0.23312 0.4113 0.0
C252 C 0.67955 0.26523 0.43996 0.0
C253 C 0.64817 0.2369 0.44274 0.0
C254 C 0.67978 0.22093 0.38884 0.0
C255 C 0.66504 0.20267 0.37746 0.0
C256 C 0.67035 0.19233 0.35551 0.0
C257 C 0.69061 0.19987 0.34456 0.0
C258 C 0.70564 0.21766 0.35622 0.0
C259 C 0.70029 0.22808 0.37806 0.0
C260 C 0.6913 0.28866 0.44796 0.0
C261 C 0.7046 0.30222 0.43224 0.0
C262 C 0.71263 0.32601 0.43844 0.0
C263 C 0.70781 0.33658 0.46059 0.0
C264 C 0.69576 0.32245 0.47688 0.0
C265 C 0.68752 0.2988 0.4706 0.0
C266 C 0.62633 0.22984 0.45391 0.0
C267 C 0.62221 0.23901 0.47684 0.0
C268 C 0.2039 0.29174 0.85798 0.0
C269 C 0.18625 0.30241 0.84178 0.0
C270 C 0.16273 0.30306 0.84792 0.0
C271 C 0.15689 0.29294 0.86983 0.0
H272 H 0.10408 0.29087 0.91819 0.0
H273 H 0.06563 0.29659 0.93436 0.0
H274 H 0.09143 0.25711 0.99928 0.0
H275 H 0.1297 0.25153 0.98338 0.0
H276 H 0.17249 0.21324 0.98012 0.0
H277 H 0.18782 0.17234 0.99138 0.0
H278 H 0.2206 0.16782 0.92419 0.0
H279 H 0.20517 0.20881 0.91274 0.0
H280 H 0.2119 0.27257 0.89155 0.0
H281 H 0.22214 0.29086 0.85352 0.0
H282 H 0.14885 0.31122 0.83566 0.0
H283 H 0.13854 0.29338 0.87397 0.0
N284 N 0.14832 0.27601 0.91852 0.0
N285 N 0.15539 0.24469 0.94759 0.0
N286 N 0.18109 0.24947 0.91711 0.0
C287 C 0.14206 0.26407 0.93857 0.0
C288 C 0.17486 0.2372 0.93696 0.0
C289 C 0.16801 0.26901 0.90791 0.0
C290 C 0.11988 0.27051 0.94939 0.0
C291 C 0.10168 0.28381 0.93611 0.0
C292 C 0.07963 0.287 0.94529 0.0
C293 C 0.0755 0.27724 0.96804 0.0
C294 C 0.09412 0.26509 0.98181 0.0
C295 C 0.11601 0.2617 0.97257 0.0
C296 C 0.18736 0.21422 0.94539 0.0
C297 C 0.18328 0.20374 0.96787 0.0
C298 C 0.19221 0.18034 0.97443 0.0
C299 C 0.20527 0.16681 0.95859 0.0
C300 C 0.21038 0.17775 0.93664 0.0
C301 C 0.20164 0.20129 0.93017 0.0
C302 C 0.17442 0.28149 0.88569 0.0
C303 C 0.198 0.28116 0.87963 0.0
C304 C 0.3628 0.59864 0.16757 0.0
C305 C 0.33796 0.59731 0.16351 0.0
C306 C 0.32605 0.57792 0.17423 0.0
C307 C 0.33864 0.56083 0.18944 0.0
H308 H 0.32942 0.5037 0.23812 0.0
H309 H 0.30937 0.47527 0.26386 0.0
H310 H 0.37745 0.44994 0.29634 0.0
H311 H 0.39736 0.47766 0.27048 0.0
H312 H 0.44023 0.51389 0.27266 0.0
H313 H 0.476 0.5295 0.29486 0.0
H314 H 0.47262 0.59502 0.24992 0.0
H315 H 0.43641 0.57967 0.22787 0.0
H316 H 0.39444 0.58361 0.18584 0.0
H317 H 0.37256 0.61304 0.15918 0.0
H318 H 0.3069 0.57647 0.1716 0.0
H319 H 0.32882 0.54658 0.19797 0.0
N320 N 0.36557 0.52705 0.22231 0.0
N321 N 0.40017 0.51863 0.24753 0.0
N322 N 0.39941 0.55181 0.22034 0.0
C323 C 0.37737 0.51293 0.23983 0.0
C324 C 0.41134 0.53799 0.23793 0.0
C325 C 0.3766 0.54639 0.21228 0.0
C326 C 0.36502 0.49324 0.25245 0.0
C327 C 0.3401 0.49167 0.25039 0.0
C328 C 0.32859 0.47548 0.26524 0.0
C329 C 0.34177 0.46044 0.2823 0.0
C330 C 0.36668 0.461 0.28325 0.0
C331 C 0.37814 0.47716 0.26853 0.0
C332 C 0.43516 0.54567 0.24868 0.0
C333 C 0.44723 0.53148 0.26721 0.0
C334 C 0.46791 0.54035 0.27987 0.0
C335 C 0.47706 0.56362 0.27431 0.0
C336 C 0.46579 0.57719 0.25488 0.0
C337 C 0.44509 0.5683 0.24216 0.0
C338 C 0.3634 0.56282 0.1943 0.0
C339 C 0.37536 0.58165 0.18279 0.0
C340 C 0.86147 0.04101 0.78591 0.0
C341 C 0.83661 0.04332 0.78339 0.0
C342 C 0.82357 0.02959 0.76528 0.0
C343 C 0.83504 0.01296 0.75091 0.0
H344 H 0.82409 0.9618 0.69497 0.0
H345 H 0.80148 0.93431 0.6668 0.0
H346 H 0.86251 0.88626 0.66611 0.0
H347 H 0.88524 0.91381 0.69365 0.0
H348 H 0.92347 0.91609 0.73971 0.0
H349 H 0.95939 0.90056 0.76255 0.0
H350 H 0.97462 0.97382 0.79032 0.0
H351 H 0.93856 0.98945 0.76776 0.0
H352 H 0.892 0.02254 0.77479 0.0
H353 H 0.8721 0.05103 0.79984 0.0
H354 H 0.80442 0.03118 0.76267 0.0
H355 H 0.82437 0.00199 0.73776 0.0
N356 N 0.85964 0.97573 0.72459 0.0
N357 N 0.8924 0.94919 0.72359 0.0
N358 N 0.89418 0.98265 0.75033 0.0
C359 C 0.86998 0.95572 0.71502 0.0
C360 C 0.90465 0.96262 0.74114 0.0
C361 C 0.8717 0.98937 0.7422 0.0
C362 C 0.85649 0.94002 0.69673 0.0
C363 C 0.83277 0.9455 0.68865 0.0
C364 C 0.81974 0.92967 0.67259 0.0
C365 C 0.83015 0.90805 0.66424 0.0
C366 C 0.85402 0.90292 0.67189 0.0
C367 C 0.86702 0.9187 0.68787 0.0
C368 C 0.92804 0.95398 0.7521 0.0
C369 C 0.93466 0.92901 0.75033 0.0
C370 C 0.95515 0.92006 0.76346 0.0
C371 C 0.96964 0.93599 0.77823 0.0
C372 C 0.96379 0.9612 0.77894 0.0
C373 C 0.94309 0.97009 0.76614 0.0
C374 C 0.85979 0.00962 0.75447 0.0
C375 C 0.8729 0.02442 0.77163 0.0
H376 H 0.15725 0.88352 0.10236 0.0
H377 H 0.16139 0.89474 0.14498 0.0
H378 H 0.2363 0.87873 0.14888 0.0
H379 H 0.23246 0.86736 0.10588 0.0
H380 H 0.20816 0.86027 0.19001 0.0
H381 H 0.19822 0.96013 0.16795 0.0
H382 H 0.1764 0.94062 0.15203 0.0
H383 H 0.20709 0.9376 0.14651 0.0
C384 C 0.17465 0.88219 0.11217 0.0
C385 C 0.19458 0.87476 0.10054 0.0
C386 C 0.17695 0.88864 0.13657 0.0
C387 C 0.19917 0.88781 0.1499 0.0
C388 C 0.21901 0.87955 0.13877 0.0
H389 H 0.20095 0.96919 0.28504 0.0
H390 H 0.2173 0.94983 0.25047 0.0
C391 C 0.21676 0.87311 0.11422 0.0
C392 C 0.2014 0.89669 0.17515 0.0
H393 H 0.19188 0.94811 0.20825 0.0
C394 C 0.20506 0.87953 0.19414 0.0
C395 C 0.19777 0.92187 0.18041 0.0
C396 C 0.19486 0.94121 0.16068 0.0
C397 C 0.20365 0.88675 0.2183 0.0
C398 C 0.19811 0.91164 0.22338 0.0
C399 C 0.19601 0.929 0.20442 0.0
C400 C 0.19195 0.91984 0.24753 0.0
C401 C 0.20767 0.86759 0.23805 0.0
C402 C 0.17277 0.90894 0.25794 0.0
C403 C 0.16355 0.9198 0.27791 0.0
C404 C 0.1731 0.942 0.28765 0.0
C405 C 0.19328 0.95199 0.27818 0.0
C406 C 0.20259 0.94102 0.25829 0.0
H407 H 0.2199 0.85283 0.23284 0.0
H408 H 0.21512 0.87596 0.25534 0.0
H409 H 0.19049 0.85874 0.24105 0.0
H410 H 0.16392 0.89292 0.24972 0.0
H411 H 0.1482 0.91146 0.28498 0.0
H412 H 0.629 0.73621 0.54046 0.0
H413 H 0.59828 0.75942 0.55924 0.0
H414 H 0.55982 0.69168 0.56831 0.0
H415 H 0.59072 0.66838 0.55054 0.0
H416 H 0.55318 0.76639 0.54609 0.0
H417 H 0.55959 0.71934 0.6346 0.0
H418 H 0.58167 0.71522 0.61343 0.0
H419 H 0.55494 0.69688 0.61102 0.0
C420 C 0.61407 0.72627 0.54666 0.0
C421 C 0.6124 0.70042 0.5442 0.0
C422 C 0.59655 0.73955 0.5574 0.0
C423 C 0.577 0.72724 0.56575 0.0
C424 C 0.57513 0.70152 0.56285 0.0
H425 H 0.43505 0.76922 0.57393 0.0
H426 H 0.47506 0.76339 0.56233 0.0
C427 C 0.59275 0.68821 0.55248 0.0
C428 C 0.55783 0.74119 0.57636 0.0
H429 H 0.52165 0.73867 0.6222 0.0
C430 C 0.54656 0.76066 0.56298 0.0
C431 C 0.54959 0.73437 0.59878 0.0
C432 C 0.5623 0.71551 0.61538 0.0
C433 C 0.52623 0.77219 0.57054 0.0
C434 C 0.51645 0.76342 0.59157 0.0
C435 C 0.52877 0.74521 0.60583 0.0
C436 C 0.49248 0.77088 0.59796 0.0
C437 C 0.51542 0.79348 0.55573 0.0
C438 C 0.48868 0.77696 0.62191 0.0
C439 C 0.46562 0.7794 0.62884 0.0
C440 C 0.44586 0.77594 0.61189 0.0
C441 C 0.4498 0.77154 0.58759 0.0
C442 C 0.4728 0.76867 0.58079 0.0
H443 H 0.52936 0.80425 0.54748 0.0
H444 H 0.50317 0.78615 0.54071 0.0
H445 H 0.50541 0.80617 0.5668 0.0
H446 H 0.50355 0.7787 0.63554 0.0
H447 H 0.46334 0.78257 0.64775 0.0
H448 H 0.75967 0.0721 0.08114 0.0
H449 H 0.75296 0.0291 0.09295 0.0
H450 H 0.82839 0.01561 0.09823 0.0
H451 H 0.83534 0.05825 0.08678 0.0
H452 H 0.76621 0.9854 0.06963 0.0
H453 H 0.80904 0.9902 0.16317 0.0
H454 H 0.80017 0.01748 0.14575 0.0
H455 H 0.82772 0.00212 0.1414 0.0
C456 C 0.77484 0.06002 0.08497 0.0
C457 C 0.79806 0.06873 0.08308 0.0
C458 C 0.77096 0.03547 0.09169 0.0
C459 C 0.79021 0.01934 0.09687 0.0
C460 C 0.81332 0.02792 0.09484 0.0
H461 H 0.8325 0.87194 0.11406 0.0
H462 H 0.82539 0.91597 0.10685 0.0
C463 C 0.81723 0.05233 0.08812 0.0
C464 C 0.78648 0.99318 0.10349 0.0
H465 H 0.80532 0.94954 0.14549 0.0
C466 C 0.77426 0.97759 0.08644 0.0
C467 C 0.79689 0.98311 0.12551 0.0
C468 C 0.80898 0.99915 0.14511 0.0
C469 C 0.77361 0.9519 0.09019 0.0
C470 C 0.78539 0.94175 0.11148 0.0
C471 C 0.79644 0.95746 0.1291 0.0
C472 C 0.78867 0.91482 0.11471 0.0
C473 C 0.76155 0.93554 0.07086 0.0
C474 C 0.77026 0.89965 0.12141 0.0
C475 C 0.77424 0.87435 0.12551 0.0
C476 C 0.79667 0.86391 0.12283 0.0
C477 C 0.81491 0.87926 0.11583 0.0
C478 C 0.81095 0.90445 0.11188 0.0
H479 H 0.7538 0.94629 0.05496 0.0
H480 H 0.77449 0.922 0.06472 0.0
H481 H 0.74717 0.92491 0.07847 0.0
H482 H 0.75297 0.90745 0.1238 0.0
H483 H 0.75984 0.86297 0.13082 0.0
H484 H 0.39091 0.38636 0.62715 0.0
H485 H 0.41488 0.39619 0.66463 0.0
H486 H 0.38705 0.3324 0.69922 0.0
H487 H 0.36275 0.32237 0.66178 0.0
H488 H 0.38811 0.37699 0.72739 0.0
H489 H 0.47441 0.35686 0.69133 0.0
H490 H 0.45585 0.37776 0.67284 0.0
H491 H 0.44645 0.34636 0.67666 0.0
C492 C 0.38983 0.37434 0.64266 0.0
C493 C 0.37499 0.35344 0.64133 0.0
C494 C 0.40363 0.37997 0.66406 0.0
C495 C 0.40296 0.36482 0.68454 0.0
C496 C 0.38788 0.34423 0.68353 0.0
H497 H 0.51216 0.38091 0.80428 0.0
H498 H 0.48263 0.36241 0.77497 0.0
C499 C 0.37407 0.33852 0.66208 0.0
C500 C 0.41812 0.37059 0.70693 0.0
H501 H 0.47588 0.37879 0.72859 0.0
C502 C 0.40731 0.37716 0.7278 0.0
C503 C 0.44314 0.37039 0.70747 0.0
C504 C 0.45571 0.36224 0.68596 0.0
C505 C 0.42094 0.38455 0.74898 0.0
C506 C 0.44593 0.38562 0.74906 0.0
C507 C 0.45671 0.3781 0.72846 0.0
C508 C 0.46136 0.3956 0.76975 0.0
C509 C 0.40848 0.39118 0.77099 0.0
C510 C 0.45889 0.42026 0.77696 0.0
C511 C 0.47563 0.43084 0.7939 0.0
C512 C 0.49529 0.41702 0.80377 0.0
C513 C 0.49709 0.39199 0.79731 0.0
C514 C 0.48032 0.38142 0.78041 0.0
H515 H 0.39077 0.38227 0.77058 0.0
H516 H 0.41917 0.38561 0.78792 0.0
H517 H 0.40579 0.4115 0.77138 0.0
H518 H 0.44465 0.43169 0.76866 0.0
H519 H 0.47362 0.45009 0.79866 0.0
H520 H 0.73736 0.57003 0.51703 0.0
H521 H 0.7447 0.52652 0.50813 0.0
H522 H 0.66972 0.51551 0.49 0.0
H523 H 0.66214 0.55864 0.49934 0.0
H524 H 0.68878 0.48021 0.52045 0.0
H525 H 0.74378 0.49191 0.44318 0.0
H526 H 0.75479 0.50772 0.47031 0.0
H527 H 0.72697 0.51698 0.45466 0.0
C528 C 0.72245 0.5584 0.51096 0.0
C529 C 0.69915 0.56786 0.50895 0.0
C530 C 0.72671 0.53355 0.50576 0.0
C531 C 0.70779 0.51783 0.49813 0.0
C532 C 0.68459 0.52731 0.49585 0.0
H533 H 0.69968 0.37595 0.43018 0.0
H534 H 0.70295 0.41982 0.44033 0.0
C535 C 0.6803 0.55201 0.50121 0.0
C536 C 0.71177 0.49122 0.49347 0.0
H537 H 0.73884 0.45104 0.45727 0.0
C538 C 0.6998 0.47381 0.5067 0.0
C539 C 0.72602 0.48296 0.4754 0.0
C540 C 0.73848 0.50083 0.45989 0.0
C541 C 0.70131 0.44841 0.50209 0.0
C542 C 0.71576 0.44009 0.48419 0.0
C543 C 0.72801 0.45746 0.47117 0.0
C544 C 0.71681 0.41361 0.4775 0.0
C545 C 0.68662 0.43084 0.51576 0.0
C546 C 0.72435 0.39556 0.49478 0.0
C547 C 0.72236 0.37044 0.48906 0.0
C548 C 0.71316 0.36297 0.46584 0.0
C549 C 0.70702 0.38112 0.44816 0.0
C550 C 0.70881 0.4062 0.45396 0.0
H551 H 0.67233 0.44062 0.52444 0.0
H552 H 0.67835 0.41641 0.50357 0.0
H553 H 0.69822 0.42153 0.53025 0.0
H554 H 0.73113 0.40089 0.51289 0.0
H555 H 0.72753 0.35685 0.50293 0.0
H556 H 0.89725 0.16946 0.02609 0.0
H557 H 0.9306 0.19169 0.01137 0.0
H558 H 0.91042 0.25763 0.04791 0.0
H559 H 0.87679 0.23562 0.06276 0.0
H560 H 0.92459 0.26456 0.9984 0.0
H561 H 0.98927 0.21078 0.05901 0.0
H562 H 0.96835 0.19224 0.04072 0.0
H563 H 0.95806 0.21224 0.06341 0.0
C564 C 0.89971 0.18874 0.03091 0.0
C565 C 0.88444 0.20065 0.04587 0.0
C566 C 0.91883 0.20138 0.02249 0.0
C567 C 0.9231 0.22614 0.02887 0.0
C568 C 0.90742 0.23846 0.04292 0.0
H569 H 0.06309 0.28751 0.01351 0.0
H570 H 0.02452 0.28031 0.02904 0.0
C571 C 0.88826 0.22582 0.05141 0.0
C572 C 0.94461 0.23865 0.02171 0.0
H573 H 0.00499 0.23485 0.02835 0.0
C574 C 0.94221 0.25829 0.00508 0.0
C575 C 0.9675 0.23069 0.03083 0.0
C576 C 0.97106 0.21048 0.04966 0.0
C577 C 0.96225 0.26951 0.99651 0.0
C578 C 0.98512 0.26059 0.00465 0.0
C579 C 0.98744 0.24163 0.02204 0.0
C580 C 0.00695 0.26937 0.99446 0.0
C581 C 0.95874 0.29068 0.97879 0.0
C582 C 0.0097 0.26619 0.96977 0.0
C583 C 0.03169 0.27031 0.96087 0.0
C584 C 0.05139 0.27742 0.97657 0.0
C585 C 0.04827 0.28182 0.00105 0.0
C586 C 0.02625 0.27781 0.00991 0.0
H587 H 0.94157 0.30028 0.98041 0.0
H588 H 0.97334 0.30436 0.98156 0.0
H589 H 0.95852 0.2834 0.9601 0.0
H590 H 0.99524 0.25912 0.95762 0.0
H591 H 0.03362 0.2664 0.942 0.0
H592 H 0.27114 0.369 0.48193 0.0
H593 H 0.26953 0.38191 0.4394 0.0
H594 H 0.34573 0.38899 0.44541 0.0
H595 H 0.34759 0.37642 0.4877 0.0
H596 H 0.32098 0.43113 0.4271 0.0
H597 H 0.28994 0.34555 0.37863 0.0
H598 H 0.27295 0.35597 0.40258 0.0
H599 H 0.30278 0.34519 0.40965 0.0
C600 C 0.28758 0.37301 0.47412 0.0
C601 C 0.30948 0.37182 0.48834 0.0
C602 C 0.28661 0.38027 0.44978 0.0
C603 C 0.30753 0.38626 0.43926 0.0
C604 C 0.32939 0.38444 0.45321 0.0
H605 H 0.35303 0.41413 0.30022 0.0
H606 H 0.33995 0.39544 0.33692 0.0
C607 C 0.33038 0.37728 0.47744 0.0
C608 C 0.30687 0.39617 0.4143 0.0
H609 H 0.29645 0.38063 0.35465 0.0
C610 C 0.3154 0.4202 0.41124 0.0
C611 C 0.29968 0.38175 0.39373 0.0
C612 C 0.29095 0.3556 0.39613 0.0
C613 C 0.31761 0.43003 0.38816 0.0
C614 C 0.31058 0.4156 0.36751 0.0
C615 C 0.30155 0.39172 0.37052 0.0
C616 C 0.31468 0.42435 0.34291 0.0
C617 C 0.32851 0.45535 0.38616 0.0
C618 C 0.30396 0.44616 0.33349 0.0
C619 C 0.31165 0.4571 0.31271 0.0
C620 C 0.33006 0.44625 0.3009 0.0
C621 C 0.33919 0.42322 0.30919 0.0
C622 C 0.33159 0.4124 0.33004 0.0
H623 H 0.33738 0.46174 0.40372 0.0
H624 H 0.34175 0.45538 0.37255 0.0
H625 H 0.31439 0.46889 0.38025 0.0
H626 H 0.29059 0.45546 0.34297 0.0
H627 H 0.30426 0.47485 0.3069 0.0
H628 H 0.09697 0.88343 0.97017 0.0
H629 H 0.07095 0.89541 0.93456 0.0
H630 H 0.11739 0.8584 0.8886 0.0
H631 H 0.14296 0.84537 0.92435 0.0
H632 H 0.07842 0.92366 0.89789 0.0
H633 H 0.05525 0.83004 0.86287 0.0
H634 H 0.07078 0.83491 0.89228 0.0
H635 H 0.08657 0.83587 0.86553 0.0
C636 C 0.10157 0.87772 0.95249 0.0
C637 C 0.12192 0.86332 0.95006 0.0
C638 C 0.0867 0.88459 0.93213 0.0
C639 C 0.09197 0.87749 0.90888 0.0
C640 C 0.11254 0.86349 0.90636 0.0
H641 H 0.01555 0.9523 0.784 0.0
H642 H 0.04738 0.9375 0.81352 0.0
C643 C 0.12722 0.85618 0.92679 0.0
C644 C 0.0761 0.88536 0.88743 0.0
H645 H 0.042 0.8639 0.83801 0.0
C646 C 0.07044 0.91058 0.8848 0.0
C647 C 0.06554 0.86826 0.87046 0.0
C648 C 0.06964 0.84075 0.87301 0.0
C649 C 0.0542 0.91915 0.86602 0.0
C650 C 0.04402 0.90213 0.84874 0.0
C651 C 0.05 0.87696 0.85111 0.0
C652 C 0.02576 0.90973 0.82919 0.0
C653 C 0.04736 0.94617 0.86562 0.0
C654 C 0.00347 0.89817 0.82727 0.0
C655 C 0.98556 0.90615 0.81005 0.0
C656 C 0.98952 0.92602 0.79456 0.0
C657 C 0.01203 0.93712 0.79594 0.0
C658 C 0.03012 0.92879 0.81289 0.0
H659 H 0.05161 0.95499 0.88355 0.0
H660 H 0.05742 0.95608 0.85232 0.0
H661 H 0.0281 0.94864 0.8603 0.0
H662 H -0.00032 0.8834 0.83958 0.0
H663 H 0.9683 0.89742 0.80948 0.0
H664 H 0.76631 0.13469 0.98281 0.0
H665 H 0.76281 0.12271 0.93998 0.0
H666 H 0.83808 0.10868 0.94415 0.0
H667 H 0.84189 0.12052 0.98661 0.0
H668 H 0.7909 0.14133 0.8985 0.0
H669 H 0.8025 0.04199 0.92237 0.0
H670 H 0.79305 0.0647 0.94334 0.0
H671 H 0.82382 0.06231 0.93797 0.0
C672 C 0.78216 0.12926 0.97457 0.0
C673 C 0.80435 0.12833 0.98829 0.0
C674 C 0.7801 0.12248 0.9501 0.0
C675 C 0.80016 0.1146 0.9391 0.0
C676 C 0.82238 0.11451 0.95245 0.0
H677 H 0.84961 0.08832 0.80303 0.0
H678 H 0.83492 0.10745 0.83857 0.0
C679 C 0.82448 0.12129 0.97676 0.0
C680 C 0.79814 0.10526 0.914 0.0
H681 H 0.80801 0.05333 0.88176 0.0
C682 C 0.79421 0.12203 0.8947 0.0
C683 C 0.8021 0.08003 0.90919 0.0
C684 C 0.80541 0.06111 0.92927 0.0
C685 C 0.79553 0.11437 0.87065 0.0
C686 C 0.80123 0.08944 0.86599 0.0
C687 C 0.80374 0.07247 0.88528 0.0
C688 C 0.8069 0.08074 0.84183 0.0
C689 C 0.79118 0.13311 0.85056 0.0
C690 C 0.79593 0.05948 0.83161 0.0
C691 C 0.80461 0.04821 0.81155 0.0
C692 C 0.82451 0.05795 0.80135 0.0
C693 C 0.83445 0.08017 0.81064 0.0
C694 C 0.82583 0.09135 0.83077 0.0
H695 H 0.77913 0.14808 0.8557 0.0
H696 H 0.8083 0.14176 0.84699 0.0
H697 H 0.78336 0.12438 0.83359 0.0
H698 H 0.7814 0.05088 0.83994 0.0
H699 H 0.79667 0.03099 0.80506 0.0
H700 H 0.39787 0.32876 0.52424 0.0
H701 H 0.43165 0.30748 0.50934 0.0
H702 H 0.41576 0.24212 0.54951 0.0
H703 H 0.38164 0.26316 0.56442 0.0
H704 H 0.4699 0.2893 0.53951 0.0
H705 H 0.42715 0.21498 0.48196 0.0
H706 H 0.4111 0.24182 0.49099 0.0
H707 H 0.41803 0.21708 0.51212 0.0
C708 C 0.40131 0.30976 0.52974 0.0
C709 C 0.38705 0.29774 0.54567 0.0
C710 C 0.42064 0.29763 0.52116 0.0
C711 C 0.4261 0.2732 0.52819 0.0
C712 C 0.41161 0.26085 0.54355 0.0
H713 H 0.56872 0.21451 0.51812 0.0
H714 H 0.52983 0.22278 0.53261 0.0
C715 C 0.39219 0.27297 0.55215 0.0
C716 C 0.44805 0.26156 0.52089 0.0
H717 H 0.46917 0.21458 0.48777 0.0
C718 C 0.46976 0.2729 0.52828 0.0
C719 C 0.44773 0.24025 0.50616 0.0
C720 C 0.42477 0.22785 0.49713 0.0
C721 C 0.4912 0.26372 0.52111 0.0
C722 C 0.49096 0.2423 0.50651 0.0
C723 C 0.46927 0.23081 0.49921 0.0
C724 C 0.51302 0.23283 0.49736 0.0
C725 C 0.51385 0.27755 0.52854 0.0
C726 C 0.51601 0.23445 0.47259 0.0
C727 C 0.53814 0.22966 0.46426 0.0
C728 C 0.55764 0.22317 0.4806 0.0
C729 C 0.55411 0.21985 0.50518 0.0
C730 C 0.53194 0.22455 0.51347 0.0
H731 H 0.51032 0.29638 0.53535 0.0
H732 H 0.52421 0.2672 0.54324 0.0
H733 H 0.52496 0.27927 0.5131 0.0
H734 H 0.50159 0.2408 0.45988 0.0
H735 H 0.54031 0.23258 0.44526 0.0
H736 H 0.23803 0.93353 0.0148 0.0
H737 H 0.24503 0.97731 0.00669 0.0
H738 H 0.16989 0.98853 0.98959 0.0
H739 H 0.16263 0.94506 0.99807 0.0
H740 H 0.23512 0.00606 0.96595 0.0
H741 H 0.18609 0.04057 0.04105 0.0
H742 H 0.19431 0.0085 0.0384 0.0
H743 H 0.16837 0.02055 0.02107 0.0
C744 C 0.22297 0.94529 0.00928 0.0
C745 C 0.19972 0.93579 0.00736 0.0
C746 C 0.22703 0.97031 0.00465 0.0
C747 C 0.20794 0.98626 0.99806 0.0
C748 C 0.18483 0.97667 0.9953 0.0
H749 H 0.19941 0.12742 0.92817 0.0
H750 H 0.20418 0.08368 0.93843 0.0
C751 C 0.18073 0.95176 4e-05 0.0
C752 C 0.21202 0.01297 0.99401 0.0
H753 H 0.19469 0.07028 0.01105 0.0
C754 C 0.22651 0.02014 0.97598 0.0
C755 C 0.2012 0.03132 0.00747 0.0
C756 C 0.18683 0.02488 0.02826 0.0
C757 C 0.2296 0.0452 0.97029 0.0
C758 C 0.21746 0.06347 0.98265 0.0
C759 C 0.20382 0.05629 0.0014 0.0
C760 C 0.2175 0.09001 0.97572 0.0
C761 C 0.24583 0.0518 0.95112 0.0
C762 C 0.22325 0.10821 0.99328 0.0
C763 C 0.22026 0.13327 0.98751 0.0
C764 C 0.21151 0.14059 0.96404 0.0
C765 C 0.2066 0.12238 0.94628 0.0
C766 C 0.20939 0.09734 0.95211 0.0
H767 H 0.25961 0.03736 0.94964 0.0
H768 H 0.23525 0.05315 0.93332 0.0
H769 H 0.25475 0.06981 0.95499 0.0
H770 H 0.22944 0.10298 0.01164 0.0
H771 H 0.22429 0.14692 0.00153 0.0
H772 H 0.60912 0.60509 0.46535 0.0
H773 H 0.58465 0.59286 0.42892 0.0
H774 H 0.60517 0.65892 0.39248 0.0
H775 H 0.62998 0.67133 0.42882 0.0
H776 H 0.54652 0.61956 0.40581 0.0
H777 H 0.61739 0.60299 0.34448 0.0
H778 H 0.62341 0.60498 0.37695 0.0
H779 H 0.61821 0.6326 0.35919 0.0
C780 C 0.60858 0.61704 0.44961 0.0
C781 C 0.62157 0.63923 0.45008 0.0
C782 C 0.59456 0.60998 0.42879 0.0
C783 C 0.59333 0.62483 0.40795 0.0
C784 C 0.60622 0.64698 0.40826 0.0
H785 H 0.48115 0.61114 0.29075 0.0
H786 H 0.51078 0.6276 0.32125 0.0
C787 C 0.62027 0.65411 0.42912 0.0
C788 C 0.57769 0.61751 0.38634 0.0
H789 H 0.57763 0.59996 0.32723 0.0
C790 C 0.55329 0.61535 0.3886 0.0
C791 C 0.58667 0.61182 0.36402 0.0
C792 C 0.61287 0.61298 0.36093 0.0
C793 C 0.53757 0.60761 0.36913 0.0
C794 C 0.54647 0.60225 0.3467 0.0
C795 C 0.57088 0.60435 0.3444 0.0
C796 C 0.53064 0.59345 0.32582 0.0
C797 C 0.51162 0.60461 0.37291 0.0
C798 C 0.5327 0.56914 0.31752 0.0
C799 C 0.51592 0.55971 0.2999 0.0
C800 C 0.49686 0.5745 0.29022 0.0
C801 C 0.49568 0.5993 0.29765 0.0
C802 C 0.51246 0.60869 0.31526 0.0
H803 H 0.50858 0.60432 0.39242 0.0
H804 H 0.50145 0.62035 0.36427 0.0
H805 H 0.50446 0.58728 0.36444 0.0
H806 H 0.54672 0.55715 0.32538 0.0
H807 H 0.51751 0.54066 0.2943 0.0
H808 H 0.33704 0.43746 0.59541 0.0
H809 H 0.32971 0.48057 0.60514 0.0
H810 H 0.25547 0.47166 0.58159 0.0
H811 H 0.26252 0.42822 0.57221 0.0
H812 H 0.31315 0.51653 0.57358 0.0
H813 H 0.25304 0.50566 0.64676 0.0
H814 H 0.27029 0.48035 0.63637 0.0
H815 H 0.2435 0.49008 0.61904 0.0
C816 C 0.31909 0.44454 0.59246 0.0
C817 C 0.30037 0.42933 0.58299 0.0
C818 C 0.31494 0.46921 0.59805 0.0
C819 C 0.29202 0.47927 0.5943 0.0
C820 C 0.27321 0.46415 0.58508 0.0
H821 H 0.27487 0.64033 0.58876 0.0
H822 H 0.27079 0.59632 0.57882 0.0
C823 C 0.27731 0.43935 0.57961 0.0
C824 C 0.2883 0.50591 0.59891 0.0
H825 H 0.25966 0.5465 0.63337 0.0
C826 C 0.30138 0.5231 0.58659 0.0
C827 C 0.27305 0.51438 0.61601 0.0
C828 C 0.2593 0.49669 0.63049 0.0
C829 C 0.29997 0.54851 0.59114 0.0
C830 C 0.28456 0.55705 0.60806 0.0
C831 C 0.27123 0.5399 0.6202 0.0
C832 C 0.28353 0.58353 0.61467 0.0
C833 C 0.31574 0.56587 0.57848 0.0
C834 C 0.29079 0.59087 0.63842 0.0
C835 C 0.2929 0.61593 0.64418 0.0
C836 C 0.28781 0.63411 0.62627 0.0
C837 C 0.27924 0.62672 0.60282 0.0
C838 C 0.27696 0.60162 0.59712 0.0
H839 H 0.33034 0.55587 0.57054 0.0
H840 H 0.30501 0.5755 0.56356 0.0
H841 H 0.32366 0.58006 0.59117 0.0
H842 H 0.2959 0.5772 0.65224 0.0
H843 H 0.29974 0.62103 0.66235 0.0
H844 H 0.10399 0.83236 0.06551 0.0
H845 H 0.0717 0.80952 0.08151 0.0
H846 H 0.08909 0.74523 0.04084 0.0
H847 H 0.12169 0.76786 0.02473 0.0
H848 H 0.03341 0.78923 0.05159 0.0
H849 H 0.08116 0.71791 0.10996 0.0
H850 H 0.09537 0.74581 0.10062 0.0
H851 H 0.08974 0.72088 0.07963 0.0
C852 C 0.1012 0.81328 0.06011 0.0
C853 C 0.11542 0.80202 0.04369 0.0
C854 C 0.08273 0.80025 0.06932 0.0
C855 C 0.07813 0.77567 0.06249 0.0
C856 C 0.09259 0.76409 0.04662 0.0
H857 H 0.93956 0.70977 0.07764 0.0
H858 H 0.97788 0.71888 0.0623 0.0
C859 C 0.11113 0.77712 0.03733 0.0
C860 C 0.05703 0.76304 0.07056 0.0
H861 H 0.03919 0.71586 0.10578 0.0
C862 C 0.03464 0.7731 0.06332 0.0
C863 C 0.0588 0.74209 0.08595 0.0
C864 C 0.08254 0.73104 0.09471 0.0
C865 C 0.01392 0.763 0.0713 0.0
C866 C 0.01562 0.742 0.08663 0.0
C867 C 0.03799 0.73177 0.09378 0.0
C868 C 0.99433 0.73176 0.09668 0.0
C869 C 0.99043 0.7754 0.06388 0.0
C870 C 0.99138 0.73476 0.12132 0.0
C871 C 0.96954 0.72958 0.13013 0.0
C872 C 0.9503 0.72131 0.1144 0.0
C873 C 0.95394 0.7165 0.0901 0.0
C874 C 0.9758 0.72164 0.08132 0.0
H875 H 0.99274 0.79404 0.05595 0.0
H876 H 0.9802 0.7639 0.0501 0.0
H877 H 0.97977 0.77728 0.07964 0.0
H878 H 0.0055 0.74256 0.13344 0.0
H879 H 0.96729 0.73367 0.14889 0.0
H880 H 0.65315 0.63099 0.60506 0.0
H881 H 0.65593 0.62011 0.64782 0.0
H882 H 0.73214 0.61569 0.64909 0.0
H883 H 0.72958 0.62653 0.60596 0.0
H884 H 0.71136 0.57373 0.6673 0.0
H885 H 0.67795 0.65763 0.70968 0.0
H886 H 0.65883 0.64838 0.68373 0.0
H887 H 0.68875 0.65798 0.67999 0.0
C888 C 0.67058 0.62803 0.61441 0.0
C889 C 0.69114 0.62951 0.602 0.0
C890 C 0.67213 0.62206 0.63898 0.0
C891 C 0.69426 0.61749 0.65173 0.0
C892 C 0.71492 0.61944 0.63961 0.0
H893 H 0.68242 0.5687 0.80291 0.0
H894 H 0.69987 0.59037 0.7696 0.0
C895 C 0.7134 0.62561 0.61498 0.0
C896 C 0.6952 0.60802 0.67687 0.0
H897 H 0.67261 0.61884 0.73088 0.0
C898 C 0.70349 0.58384 0.68144 0.0
C899 C 0.68523 0.62131 0.69542 0.0
C900 C 0.67742 0.64787 0.69205 0.0
C901 C 0.70013 0.57185 0.70332 0.0
C902 C 0.68805 0.58434 0.7209 0.0
C903 C 0.68165 0.60923 0.71723 0.0
C904 C 0.67881 0.57085 0.74128 0.0
C905 C 0.70846 0.54549 0.70699 0.0
C906 C 0.66113 0.553 0.73626 0.0
C907 C 0.6511 0.54091 0.75504 0.0
C908 C 0.65852 0.54641 0.77927 0.0
C909 C 0.67646 0.5641 0.78436 0.0
C910 C 0.68638 0.57646 0.76544 0.0
H911 H 0.72323 0.54117 0.69576 0.0
H912 H 0.71443 0.54182 0.7263 0.0
H913 H 0.69354 0.5328 0.70153 0.0
H914 H 0.65483 0.54868 0.71773 0.0
H915 H 0.63751 0.52716 0.75058 0.0
H916 H 0.88868 0.10704 0.12356 0.0
H917 H 0.91399 0.09482 0.15951 0.0
H918 H 0.89135 0.15894 0.19736 0.0
H919 H 0.86566 0.17136 0.16145 0.0
H920 H 0.9513 0.1229 0.18261 0.0
H921 H 0.88208 0.10071 0.24444 0.0
H922 H 0.8756 0.10324 0.21204 0.0
H923 H 0.87982 0.13062 0.23012 0.0
C924 C 0.88891 0.11856 0.13951 0.0
C925 C 0.87509 0.14023 0.13955 0.0
C926 C 0.90342 0.11151 0.16006 0.0
C927 C 0.90434 0.12583 0.18113 0.0
C928 C 0.89057 0.14742 0.18137 0.0
H929 H 0.01861 0.10986 0.29655 0.0
H930 H 0.98822 0.12729 0.26722 0.0
C931 C 0.87602 0.15455 0.16077 0.0
C932 C 0.92055 0.11852 0.20239 0.0
H933 H 0.92209 0.0979 0.26079 0.0
C934 C 0.94495 0.11756 0.19975 0.0
C935 C 0.91211 0.11137 0.22461 0.0
C936 C 0.88596 0.1113 0.22806 0.0
C937 C 0.96121 0.10945 0.2187 0.0
C938 C 0.95283 0.10248 0.241 0.0
C939 C 0.92842 0.10351 0.24372 0.0
C940 C 0.96919 0.09288 0.26119 0.0
C941 C 0.98715 0.10771 0.21446 0.0
C942 C 0.96789 0.06804 0.26827 0.0
C943 C 0.9851 0.05805 0.28522 0.0
C944 C 0.00386 0.07279 0.29542 0.0
C945 C 0.00433 0.09803 0.2892 0.0
C946 C 0.98711 0.10798 0.27227 0.0
H947 H 0.98994 0.10875 0.19491 0.0
H948 H 0.99689 0.12326 0.22377 0.0
H949 H 0.99499 0.09015 0.22195 0.0
H950 H 0.95409 0.05614 0.25999 0.0
H951 H 0.98405 0.03865 0.2899 0.0
H952 H 0.25616 0.79693 0.06599 0.0
H953 H 0.27508 0.76122 0.08679 0.0
H954 H 0.22293 0.71306 0.05022 0.0
H955 H 0.20391 0.74859 0.02909 0.0
H956 H 0.25369 0.72719 0.11743 0.0
H957 H 0.28705 0.68095 0.03768 0.0
H958 H 0.27775 0.71292 0.0371 0.0
H959 H 0.25601 0.68869 0.03492 0.0
C960 C 0.24873 0.77876 0.06221 0.0
C961 C 0.22853 0.77568 0.04575 0.0
C962 C 0.25957 0.75838 0.07416 0.0
C963 C 0.25056 0.73452 0.0698 0.0
C964 C 0.23039 0.7313 0.0535 0.0
H965 H 0.29957 0.5917 0.12997 0.0
H966 H 0.27691 0.62437 0.10742 0.0
C967 C 0.21948 0.75168 0.04154 0.0
C968 C 0.26197 0.71314 0.08291 0.0
H969 H 0.29288 0.65989 0.07514 0.0
C970 C 0.26225 0.71245 0.10821 0.0
C971 C 0.27294 0.69389 0.07075 0.0
C972 C 0.27366 0.69411 0.04363 0.0
C973 C 0.2733 0.69303 0.12175 0.0
C974 C 0.28477 0.67408 0.10966 0.0
C975 C 0.28408 0.67449 0.08432 0.0
C976 C 0.29842 0.65427 0.12314 0.0
C977 C 0.27246 0.69289 0.14886 0.0
C978 C 0.31819 0.66029 0.1391 0.0
C979 C 0.33104 0.64177 0.15205 0.0
C980 C 0.32451 0.61679 0.14913 0.0
C981 C 0.30488 0.61078 0.13282 0.0
C982 C 0.29201 0.62938 0.11985 0.0
H983 H 0.25759 0.70437 0.15443 0.0
H984 H 0.27051 0.67378 0.1558 0.0
H985 H 0.28926 0.70066 0.15753 0.0
H986 H 0.32368 0.67936 0.14157 0.0
H987 H 0.34588 0.64709 0.16465 0.0
H988 H 0.7553 0.70796 0.56502 0.0
H989 H 0.77312 0.74401 0.58587 0.0
H990 H 0.71558 0.78973 0.55491 0.0
H991 H 0.69778 0.75394 0.53361 0.0
H992 H 0.75926 0.81122 0.55198 0.0
H993 H 0.7501 0.77746 0.64516 0.0
H994 H 0.76561 0.75628 0.62733 0.0
H995 H 0.73488 0.76323 0.61878 0.0
C996 C 0.74637 0.72565 0.56264 0.0
C997 C 0.72503 0.72798 0.54768 0.0
C998 C 0.75653 0.74622 0.5747 0.0
C999 C 0.74545 0.76944 0.57226 0.0
C1000 C 0.72435 0.77193 0.55712 0.0
H1001 H 0.78437 0.89313 0.66772 0.0
H1002 H 0.76225 0.86147 0.64381 0.0
C1003 C 0.71421 0.75142 0.54498 0.0
C1004 C 0.75606 0.79123 0.58518 0.0
H1005 H 0.7744 0.81295 0.64144 0.0
C1006 C 0.76245 0.81169 0.57155 0.0
C1007 C 0.75983 0.79195 0.61072 0.0
C1008 C 0.75204 0.77117 0.6264 0.0
C1009 C 0.7731 0.83261 0.58277 0.0
C1010 C 0.77787 0.83284 0.60824 0.0
C1011 C 0.77091 0.81265 0.62189 0.0
C1012 C 0.79051 0.85355 0.62116 0.0
C1013 C 0.77895 0.85434 0.56726 0.0
C1014 C 0.81367 0.85972 0.61622 0.0
C1015 C 0.82626 0.87799 0.62967 0.0
C1016 C 0.81603 0.89026 0.64851 0.0
C1017 C 0.79265 0.88432 0.65312 0.0
C1018 C 0.78005 0.86609 0.63961 0.0
H1019 H 0.76796 0.85438 0.54961 0.0
H1020 H 0.7762 0.87213 0.57657 0.0
H1021 H 0.79785 0.85317 0.56348 0.0
H1022 H 0.82226 0.84996 0.60239 0.0
H1023 H 0.84414 0.88228 0.6255 0.0
H1024 H 0.74119 0.13776 0.12662 0.0
H1025 H 0.72034 0.13842 0.16356 0.0
H1026 H 0.76342 0.19985 0.19032 0.0
H1027 H 0.78425 0.19943 0.15377 0.0
H1028 H 0.74211 0.13402 0.21334 0.0
H1029 H 0.69357 0.22235 0.1958 0.0
H1030 H 0.70566 0.20476 0.17212 0.0
H1031 H 0.72465 0.22419 0.19164 0.0
C1032 C 0.7461 0.15152 0.1403 0.0
C1033 C 0.76436 0.16859 0.13718 0.0
C1034 C 0.73421 0.15182 0.16137 0.0
C1035 C 0.74019 0.16938 0.17945 0.0
C1036 C 0.75833 0.1864 0.17638 0.0
H1037 H 0.7334 0.1854 0.32994 0.0
H1038 H 0.7423 0.17413 0.28911 0.0
C1039 C 0.77029 0.18602 0.1555 0.0
C1040 C 0.72818 0.16971 0.20203 0.0
H1041 H 0.69741 0.20786 0.2368 0.0
C1042 C 0.73197 0.14994 0.21837 0.0
C1043 C 0.71472 0.19036 0.20835 0.0
C1044 C 0.70918 0.21154 0.19098 0.0
C1045 C 0.7238 0.15097 0.24151 0.0
C1046 C 0.71179 0.17242 0.24844 0.0
C1047 C 0.70679 0.19151 0.23154 0.0
C1048 C 0.70585 0.17641 0.2736 0.0
C1049 C 0.72845 0.1293 0.25847 0.0
C1050 C 0.68242 0.18158 0.2784 0.0
C1051 C 0.67732 0.18828 0.3017 0.0
C1052 C 0.69561 0.19018 0.32053 0.0
C1053 C 0.71896 0.1843 0.31577 0.0
C1054 C 0.72403 0.17755 0.29251 0.0
H1055 H 0.73076 0.11189 0.24835 0.0
H1056 H 0.74507 0.13265 0.27021 0.0
H1057 H 0.71376 0.12681 0.27024 0.0
H1058 H 0.66819 0.18104 0.26398 0.0
H1059 H 0.6592 0.19298 0.30472 0.0
H1060 H 0.25194 0.36653 0.63023 0.0
H1061 H 0.23438 0.36749 0.66906 0.0
H1062 H 0.25737 0.29232 0.6833 0.0
H1063 H 0.27564 0.29155 0.64513 0.0
H1064 H 0.20083 0.34156 0.68902 0.0
H1065 H 0.2868 0.32652 0.74259 0.0
H1066 H 0.28473 0.33335 0.71063 0.0
H1067 H 0.28077 0.30217 0.7211 0.0
C1068 C 0.25308 0.35017 0.64159 0.0
C1069 C 0.26543 0.32907 0.63481 0.0
C1070 C 0.2431 0.35076 0.66378 0.0
C1071 C 0.24517 0.33022 0.67938 0.0
C1072 C 0.25628 0.30868 0.67194 0.0
H1073 H 0.166 0.28891 0.79756 0.0
H1074 H 0.17917 0.29959 0.75808 0.0
C1075 C 0.26657 0.30821 0.65004 0.0
C1076 C 0.23606 0.33121 0.7036 0.0
H1077 H 0.25199 0.31901 0.76318 0.0
C1078 C 0.21205 0.33693 0.70531 0.0
C1079 C 0.25085 0.32591 0.72495 0.0
C1080 C 0.27727 0.32193 0.72477 0.0
C1081 C 0.20219 0.33627 0.72766 0.0
C1082 C 0.21656 0.3289 0.74869 0.0
C1083 C 0.24081 0.32434 0.74708 0.0
C1084 C 0.20685 0.32459 0.77235 0.0
C1085 C 0.17653 0.34362 0.72842 0.0
C1086 C 0.21825 0.33467 0.79365 0.0
C1087 C 0.21114 0.32801 0.81626 0.0
C1088 C 0.19229 0.31144 0.81793 0.0
C1089 C 0.18034 0.30203 0.79666 0.0
C1090 C 0.18775 0.3083 0.77409 0.0
H1091 H 0.171 0.35716 0.71387 0.0
H1092 H 0.16517 0.32701 0.72538 0.0
H1093 H 0.17324 0.35185 0.74612 0.0
H1094 H 0.23308 0.34719 0.79282 0.0
H1095 H 0.2206 0.33549 0.83246 0.0
H1096 H 0.70488 0.68802 0.43045 0.0
H1097 H 0.72597 0.68769 0.39412 0.0
H1098 H 0.78208 0.6442 0.4311 0.0
H1099 H 0.76114 0.64454 0.46793 0.0
H1100 H 0.79818 0.68496 0.4057 0.0
H1101 H 0.73341 0.63013 0.3475 0.0
H1102 H 0.71969 0.65545 0.36181 0.0
H1103 H 0.73345 0.63089 0.38007 0.0
C1104 C 0.72166 0.67828 0.43098 0.0
C1105 C 0.73127 0.66627 0.45219 0.0
C1106 C 0.7336 0.67795 0.41007 0.0
C1107 C 0.75534 0.66553 0.4098 0.0
C1108 C 0.76518 0.65369 0.43092 0.0
H1109 H 0.81358 0.65956 0.2681 0.0
H1110 H 0.80265 0.64596 0.30786 0.0
C1111 C 0.75319 0.65393 0.45192 0.0
C1112 C 0.7681 0.66613 0.38766 0.0
H1113 H 0.76021 0.65559 0.32687 0.0
C1114 C 0.79012 0.67813 0.38852 0.0
C1115 C 0.75776 0.65682 0.36536 0.0
C1116 C 0.73489 0.64236 0.36362 0.0
C1117 C 0.8013 0.68256 0.36735 0.0
C1118 C 0.78995 0.67508 0.34478 0.0
C1119 C 0.76875 0.66158 0.34415 0.0
C1120 C 0.79855 0.68301 0.32154 0.0
C1121 C 0.82491 0.69567 0.36928 0.0
C1122 C 0.79977 0.70829 0.31608 0.0
C1123 C 0.80599 0.71607 0.29351 0.0
C1124 C 0.81095 0.69871 0.27583 0.0
C1125 C 0.81006 0.67336 0.28143 0.0
C1126 C 0.80375 0.66557 0.30407 0.0
H1127 H 0.83467 0.69271 0.38735 0.0
H1128 H 0.83619 0.68927 0.35514 0.0
H1129 H 0.82187 0.71584 0.36688 0.0
H1130 H 0.79534 0.72206 0.32908 0.0
H1131 H 0.80678 0.73572 0.28984 0.0
H1132 H 0.74012 0.20835 0.02548 0.0
H1133 H 0.72151 0.24426 0.00475 0.0
H1134 H 0.78005 0.29 0.03254 0.0
H1135 H 0.79867 0.25433 0.05373 0.0
H1136 H 0.73679 0.31164 0.03732 0.0
H1137 H 0.74136 0.27735 0.94379 0.0
H1138 H 0.72682 0.25625 0.96264 0.0
H1139 H 0.75777 0.26317 0.96965 0.0
C1140 C 0.74913 0.226 0.02714 0.0
C1141 C 0.77097 0.22838 0.04123 0.0
C1142 C 0.7385 0.24649 0.01516 0.0
C1143 C 0.7496 0.26969 0.01678 0.0
C1144 C 0.77126 0.27222 0.03097 0.0
H1145 H 0.70462 0.39224 0.92118 0.0
H1146 H 0.72827 0.36104 0.94447 0.0
C1147 C 0.78187 0.25177 0.04305 0.0
C1148 C 0.73835 0.29143 0.0041 0.0
H1149 H 0.71693 0.31268 0.94839 0.0
C1150 C 0.73258 0.31197 0.01786 0.0
C1151 C 0.73325 0.29197 0.97867 0.0
C1152 C 0.74033 0.27112 0.96278 0.0
C1153 C 0.72122 0.33278 0.00692 0.0
C1154 C 0.71509 0.3328 0.98163 0.0
C1155 C 0.72146 0.31255 0.96781 0.0
C1156 C 0.70161 0.35335 0.96909 0.0
C1157 C 0.71608 0.3546 0.02253 0.0
C1158 C 0.67885 0.35953 0.97534 0.0
C1159 C 0.6654 0.37757 0.96225 0.0
C1160 C 0.67433 0.38958 0.94246 0.0
C1161 C 0.69733 0.38364 0.93653 0.0
C1162 C 0.7108 0.36567 0.9497 0.0
H1163 H 0.72803 0.35485 0.03956 0.0
H1164 H 0.71807 0.37233 0.01276 0.0
H1165 H 0.69756 0.35333 0.02749 0.0
H1166 H 0.67121 0.34993 0.98993 0.0
H1167 H 0.64785 0.38185 0.96744 0.0
H1168 H 0.24116 0.29208 0.52353 0.0
H1169 H 0.2213 0.25693 0.50294 0.0
H1170 H 0.28002 0.20964 0.52777 0.0
H1171 H 0.29988 0.24449 0.54878 0.0
H1172 H 0.23605 0.22727 0.46695 0.0
H1173 H 0.22313 0.17191 0.54912 0.0
H1174 H 0.23148 0.2041 0.55045 0.0
H1175 H 0.25339 0.18067 0.54654 0.0
C1176 C 0.24988 0.27422 0.52467 0.0
C1177 C 0.27207 0.27112 0.53799 0.0
C1178 C 0.23848 0.25415 0.51288 0.0
C1179 C 0.24901 0.23061 0.5142 0.0
C1180 C 0.27134 0.22753 0.52702 0.0
H1181 H 0.20779 0.1081 0.4183 0.0
H1182 H 0.22946 0.14089 0.44099 0.0
C1183 C 0.28272 0.24754 0.5389 0.0
C1184 C 0.23678 0.20941 0.50175 0.0
H1185 H 0.2142 0.15204 0.51126 0.0
C1186 C 0.23123 0.21083 0.47662 0.0
C1187 C 0.23027 0.18813 0.51449 0.0
C1188 C 0.23465 0.18612 0.54167 0.0
C1189 C 0.21955 0.19142 0.46381 0.0
C1190 C 0.21369 0.16982 0.47644 0.0
C1191 C 0.21899 0.16851 0.50161 0.0
C1192 C 0.20139 0.14872 0.46391 0.0
C1193 C 0.21312 0.19444 0.43696 0.0
C1194 C 0.17887 0.14154 0.47001 0.0
C1195 C 0.16658 0.12255 0.45735 0.0
C1196 C 0.17664 0.11034 0.43837 0.0
C1197 C 0.19959 0.11699 0.43291 0.0
C1198 C 0.21189 0.13595 0.44564 0.0
H1199 H 0.21333 0.21416 0.4313 0.0
H1200 H 0.22622 0.18431 0.42696 0.0
H1201 H 0.19524 0.18672 0.43157 0.0
H1202 H 0.17056 0.15103 0.48422 0.0
H1203 H 0.14911 0.11759 0.46227 0.0
H1204 H 0.26238 0.86092 0.96545 0.0
H1205 H 0.28287 0.86169 0.92832 0.0
H1206 H 0.22771 0.81652 0.89254 0.0
H1207 H 0.20709 0.81575 0.92916 0.0
H1208 H 0.29981 0.82114 0.90326 0.0
H1209 H 0.23307 0.87397 0.84494 0.0
H1210 H 0.23351 0.8735 0.87755 0.0
H1211 H 0.22012 0.84853 0.85985 0.0
C1212 C 0.25455 0.85126 0.94964 0.0
C1213 C 0.23304 0.8383 0.95033 0.0
C1214 C 0.26627 0.85175 0.92846 0.0
C1215 C 0.25655 0.83956 0.90759 0.0
C1216 C 0.23522 0.82654 0.90828 0.0
H1217 H 0.30602 0.76757 0.78887 0.0
H1218 H 0.29574 0.78245 0.82805 0.0
C1219 C 0.22356 0.82595 0.92936 0.0
C1220 C 0.26907 0.83912 0.88529 0.0
H1221 H 0.25995 0.84852 0.82432 0.0
C1222 C 0.29135 0.82757 0.88605 0.0
C1223 C 0.25821 0.84793 0.86293 0.0
C1224 C 0.23501 0.86192 0.86126 0.0
C1225 C 0.30224 0.82297 0.86475 0.0
C1226 C 0.29035 0.82982 0.84219 0.0
C1227 C 0.26892 0.84301 0.84161 0.0
C1228 C 0.29846 0.82124 0.81898 0.0
C1229 C 0.32608 0.81024 0.86656 0.0
C1230 C 0.30304 0.83813 0.8007 0.0
C1231 C 0.30872 0.82963 0.77811 0.0
C1232 C 0.30955 0.80412 0.77338 0.0
C1233 C 0.30527 0.78733 0.79188 0.0
C1234 C 0.29971 0.7958 0.81439 0.0
H1235 H 0.33614 0.81379 0.88434 0.0
H1236 H 0.32338 0.78997 0.86488 0.0
H1237 H 0.33691 0.81643 0.85194 0.0
H1238 H 0.3019 0.85784 0.80382 0.0
H1239 H 0.31176 0.84298 0.76413 0.0
loop_
_geom_bond_atom_site_label_1
_geom_bond_atom_site_label_2
_geom_bond_distance
_geom_bond_site_symmetry_2
_ccdc_geom_bond_type
Sc0 O3 2.025 . S
Sc0 O10 2.105 . S
Sc0 O13 2.105 . S
Sc0 O16 2.105 . S
Sc0 O19 2.105 1_554 S
Sc1 O3 2.025 . S
Sc1 O11 2.105 1_554 S
Sc1 O15 2.105 . S
Sc1 O17 2.105 . S
Sc1 O21 2.105 1_554 S
Sc2 O3 2.025 . S
Sc2 O12 2.105 1_554 S
Sc2 O14 2.105 . S
Sc2 O18 2.105 . S
Sc2 O20 2.105 . S
O3 Sc0 2.025 . S
O3 Sc1 2.025 . S
O3 Sc2 2.025 . S
C4 O10 1.268 . S
C4 O20 1.268 . S
C5 O11 1.268 . S
C5 O19 1.268 . S
C6 O12 1.268 . S
C6 O21 1.268 . S
C7 O13 1.268 . S
C7 O17 1.268 . S
C8 O14 1.268 . S
C8 O16 1.268 . S
C9 O15 1.268 . S
C9 O18 1.268 . S
O10 Sc0 2.105 . S
O10 C4 1.268 . S
O11 Sc1 2.105 1_556 S
O11 C5 1.268 . S
O12 Sc2 2.105 1_556 S
O12 C6 1.268 . S
O13 Sc0 2.105 . S
O13 C7 1.268 . S
O14 Sc2 2.105 . S
O14 C8 1.268 . S
O15 Sc1 2.105 . S
O15 C9 1.268 . S
O16 Sc0 2.105 . S
O16 C8 1.268 . S
O17 Sc1 2.105 . S
O17 C7 1.268 . S
O18 Sc2 2.105 . S
O18 C9 1.268 . S
O19 Sc0 2.105 1_556 S
O19 C5 1.268 . S
O20 Sc2 2.105 . S
O20 C4 1.268 . S
O21 Sc1 2.105 1_556 S
O21 C6 1.268 . S
Sc22 O25 2.025 . S
Sc22 O32 2.105 . S
Sc22 O35 2.105 . S
Sc22 O38 2.105 . S
Sc22 O41 2.105 . S
Sc23 O25 2.025 . S
Sc23 O33 2.105 . S
Sc23 O37 2.105 . S
Sc23 O39 2.105 . S
Sc23 O43 2.105 . S
Sc24 O25 2.025 . S
Sc24 O34 2.105 . S
Sc24 O36 2.105 . S
Sc24 O40 2.105 . S
Sc24 O42 2.105 . S
O25 Sc22 2.025 . S
O25 Sc23 2.025 . S
O25 Sc24 2.025 . S
C26 O32 1.268 . S
C26 O42 1.268 . S
C27 O33 1.268 . S
C27 O41 1.268 . S
C28 O34 1.268 . S
C28 O43 1.268 . S
C29 O35 1.268 . S
C29 O39 1.268 . S
C30 O36 1.268 . S
C30 O38 1.268 . S
C31 O37 1.268 . S
C31 O40 1.268 . S
O32 Sc22 2.105 . S
O32 C26 1.268 . S
O33 Sc23 2.105 . S
O33 C27 1.268 . S
O34 Sc24 2.105 . S
O34 C28 1.268 . S
O35 Sc22 2.105 . S
O35 C29 1.268 . S
O36 Sc24 2.105 . S
O36 C30 1.268 . S
O37 Sc23 2.105 . S
O37 C31 1.268 . S
O38 Sc22 2.105 . S
O38 C30 1.268 . S
O39 Sc23 2.105 . S
O39 C29 1.268 . S
O40 Sc24 2.105 . S
O40 C31 1.268 . S
O41 Sc22 2.105 . S
O41 C27 1.268 . S
O42 Sc24 2.105 . S
O42 C26 1.268 . S
O43 Sc23 2.105 . S
O43 C28 1.268 . S
Sc44 O47 2.025 . S
Sc44 O54 2.105 . S
Sc44 O57 2.105 . S
Sc44 O60 2.105 . S
Sc44 O63 2.105 . S
Sc45 O47 2.025 . S
Sc45 O55 2.105 . S
Sc45 O59 2.105 . S
Sc45 O61 2.105 . S
Sc45 O65 2.105 . S
Sc46 O47 2.025 . S
Sc46 O56 2.105 . S
Sc46 O58 2.105 . S
Sc46 O62 2.105 . S
Sc46 O64 2.105 . S
O47 Sc44 2.025 . S
O47 Sc45 2.025 . S
O47 Sc46 2.025 . S
C48 O54 1.268 . S
C48 O64 1.268 . S
C49 O55 1.268 . S
C49 O63 1.268 . S
C50 O56 1.268 . S
C50 O65 1.268 . S
C51 O57 1.268 . S
C51 O61 1.268 . S
C52 O58 1.268 . S
C52 O60 1.268 . S
C53 O59 1.268 . S
C53 O62 1.268 . S
O54 Sc44 2.105 . S
O54 C48 1.268 . S
O55 Sc45 2.105 . S
O55 C49 1.268 . S
O56 Sc46 2.105 . S
O56 C50 1.268 . S
O57 Sc44 2.105 . S
O57 C51 1.268 . S
O58 Sc46 2.105 . S
O58 C52 1.268 . S
O59 Sc45 2.105 . S
O59 C53 1.268 . S
O60 Sc44 2.105 . S
O60 C52 1.268 . S
O61 Sc45 2.105 . S
O61 C51 1.268 . S
O62 Sc46 2.105 . S
O62 C53 1.268 . S
O63 Sc44 2.105 . S
O63 C49 1.268 . S
O64 Sc46 2.105 . S
O64 C48 1.268 . S
O65 Sc45 2.105 . S
O65 C50 1.268 . S
Sc66 O69 2.025 . S
Sc66 O76 2.105 . S
Sc66 O79 2.105 . S
Sc66 O82 2.105 . S
Sc66 O85 2.105 . S
Sc67 O69 2.025 . S
Sc67 O77 2.105 . S
Sc67 O81 2.105 . S
Sc67 O83 2.105 . S
Sc67 O87 2.105 . S
Sc68 O69 2.025 . S
Sc68 O78 2.105 . S
Sc68 O80 2.105 . S
Sc68 O84 2.105 . S
Sc68 O86 2.105 . S
O69 Sc66 2.025 . S
O69 Sc67 2.025 . S
O69 Sc68 2.025 . S
C70 O76 1.268 . S
C70 O86 1.268 . S
C71 O77 1.268 . S
C71 O85 1.268 . S
C72 O78 1.268 . S
C72 O87 1.268 . S
C73 O79 1.268 . S
C73 O83 1.268 . S
C74 O80 1.268 . S
C74 O82 1.268 . S
C75 O81 1.268 . S
C75 O84 1.268 . S
O76 Sc66 2.105 . S
O76 C70 1.268 . S
O77 Sc67 2.105 . S
O77 C71 1.268 . S
O78 Sc68 2.105 . S
O78 C72 1.268 . S
O79 Sc66 2.105 . S
O79 C73 1.268 . S
O80 Sc68 2.105 . S
O80 C74 1.268 . S
O81 Sc67 2.105 . S
O81 C75 1.268 . S
O82 Sc66 2.105 . S
O82 C74 1.268 . S
O83 Sc67 2.105 . S
O83 C73 1.268 . S
O84 Sc68 2.105 . S
O84 C75 1.268 . S
O85 Sc66 2.105 . S
O85 C71 1.268 . S
O86 Sc68 2.105 . S
O86 C70 1.268 . S
O87 Sc67 2.105 . S
O87 C72 1.268 . S
C88 C89 1.384 . S
C88 H101 0.947 . S
C88 C123 1.382 . S
C89 C88 1.384 . S
C89 C90 1.378 . S
C90 C89 1.378 . S
C90 C91 1.378 . S
C90 H102 0.952 . S
C91 C90 1.378 . S
C91 H103 0.950 . S
C91 C122 1.383 . S
H92 C111 0.947 . S
H93 C112 0.946 . S
H94 C114 0.953 . S
H95 C115 0.945 . S
H96 C117 0.952 . S
H97 C118 0.949 . S
H98 C120 0.950 . S
H99 C121 0.948 . S
H100 C123 0.951 . S
H101 C88 0.947 . S
H102 C90 0.952 . S
H103 C91 0.950 . S
N104 C107 1.382 . S
N104 C109 1.363 . S
N105 C107 1.371 . S
N105 C108 1.372 . S
N106 C108 1.361 . S
N106 C109 1.377 . S
C107 N104 1.382 . S
C107 N105 1.371 . S
C107 C110 1.480 . S
C108 N105 1.372 . S
C108 N106 1.361 . S
C108 C116 1.457 . S
C109 N104 1.363 . S
C109 N106 1.377 . S
C109 C122 1.479 . S
C110 C107 1.480 . S
C110 C111 1.383 . S
C110 C115 1.385 . S
C111 H92 0.947 . S
C111 C110 1.383 . S
C111 C112 1.388 . S
C112 H93 0.946 . S
C112 C111 1.388 . S
C112 C113 1.384 . S
C113 C112 1.384 . S
C113 C114 1.377 . S
C114 H94 0.953 . S
C114 C113 1.377 . S
C114 C115 1.369 . S
C115 H95 0.945 . S
C115 C110 1.385 . S
C115 C114 1.369 . S
C116 C108 1.457 . S
C116 C117 1.372 . S
C116 C121 1.364 . S
C117 H96 0.952 . S
C117 C116 1.372 . S
C117 C118 1.389 1_545 S
C118 H97 0.949 . S
C118 C117 1.389 1_565 S
C118 C119 1.387 . S
C119 C118 1.387 . S
C119 C120 1.372 . S
C120 H98 0.950 . S
C120 C119 1.372 . S
C120 C121 1.379 1_565 S
C121 H99 0.948 . S
C121 C116 1.364 . S
C121 C120 1.379 1_545 S
C122 C91 1.383 . S
C122 C109 1.479 . S
C122 C123 1.398 . S
C123 C88 1.382 . S
C123 H100 0.951 . S
C123 C122 1.398 . S
C124 C125 1.384 . S
C124 H137 0.947 . S
C124 C159 1.382 . S
C125 C124 1.384 . S
C125 C126 1.378 . S
C126 C125 1.378 . S
C126 C127 1.378 . S
C126 H138 0.952 . S
C127 C126 1.378 . S
C127 H139 0.950 . S
C127 C158 1.383 . S
H128 C147 0.947 . S
H129 C148 0.946 . S
H130 C150 0.953 . S
H131 C151 0.945 . S
H132 C153 0.952 . S
H133 C154 0.949 . S
H134 C156 0.950 . S
H135 C157 0.948 . S
H136 C159 0.951 . S
H137 C124 0.947 . S
H138 C126 0.952 . S
H139 C127 0.950 . S
N140 C143 1.382 . S
N140 C145 1.363 . S
N141 C143 1.371 . S
N141 C144 1.372 . S
N142 C144 1.361 . S
N142 C145 1.377 . S
C143 N140 1.382 . S
C143 N141 1.371 . S
C143 C146 1.480 . S
C144 N141 1.372 . S
C144 N142 1.361 . S
C144 C152 1.457 . S
C145 N140 1.363 . S
C145 N142 1.377 . S
C145 C158 1.479 . S
C146 C143 1.480 . S
C146 C147 1.383 . S
C146 C151 1.385 . S
C147 H128 0.947 . S
C147 C146 1.383 . S
C147 C148 1.388 . S
C148 H129 0.946 . S
C148 C147 1.388 . S
C148 C149 1.384 . S
C149 C148 1.384 . S
C149 C150 1.377 . S
C150 H130 0.953 . S
C150 C149 1.377 . S
C150 C151 1.369 . S
C151 H131 0.945 . S
C151 C146 1.385 . S
C151 C150 1.369 . S
C152 C144 1.457 . S
C152 C153 1.372 . S
C152 C157 1.364 . S
C153 H132 0.952 . S
C153 C152 1.372 . S
C153 C154 1.389 . S
C154 H133 0.949 . S
C154 C153 1.389 . S
C154 C155 1.387 . S
C155 C154 1.387 . S
C155 C156 1.372 . S
C156 H134 0.950 . S
C156 C155 1.372 . S
C156 C157 1.379 . S
C157 H135 0.948 . S
C157 C152 1.364 . S
C157 C156 1.379 . S
C158 C127 1.383 . S
C158 C145 1.479 . S
C158 C159 1.398 . S
C159 C124 1.382 . S
C159 H136 0.951 . S
C159 C158 1.398 . S
C160 C161 1.384 . S
C160 H173 0.947 . S
C160 C195 1.382 . S
C161 C160 1.384 . S
C161 C162 1.378 . S
C162 C161 1.378 . S
C162 C163 1.378 . S
C162 H174 0.952 . S
C163 C162 1.378 . S
C163 H175 0.950 . S
C163 C194 1.383 . S
H164 C183 0.947 . S
H165 C184 0.946 . S
H166 C186 0.953 . S
H167 C187 0.945 . S
H168 C189 0.952 . S
H169 C190 0.949 . S
H170 C192 0.950 . S
H171 C193 0.948 . S
H172 C195 0.951 . S
H173 C160 0.947 . S
H174 C162 0.952 . S
H175 C163 0.950 . S
N176 C179 1.382 . S
N176 C181 1.363 . S
N177 C179 1.371 . S
N177 C180 1.372 . S
N178 C180 1.361 . S
N178 C181 1.377 . S
C179 N176 1.382 . S
C179 N177 1.371 . S
C179 C182 1.480 . S
C180 N177 1.372 . S
C180 N178 1.361 . S
C180 C188 1.457 . S
C181 N176 1.363 . S
C181 N178 1.377 . S
C181 C194 1.479 . S
C182 C179 1.480 . S
C182 C183 1.383 . S
C182 C187 1.385 . S
C183 H164 0.947 . S
C183 C182 1.383 . S
C183 C184 1.388 . S
C184 H165 0.946 . S
C184 C183 1.388 . S
C184 C185 1.384 . S
C185 C184 1.384 . S
C185 C186 1.377 . S
C186 H166 0.953 . S
C186 C185 1.377 . S
C186 C187 1.369 . S
C187 H167 0.945 . S
C187 C182 1.385 . S
C187 C186 1.369 . S
C188 C180 1.457 . S
C188 C189 1.372 . S
C188 C193 1.364 . S
C189 H168 0.952 . S
C189 C188 1.372 . S
C189 C190 1.389 . S
C190 H169 0.949 . S
C190 C189 1.389 . S
C190 C191 1.387 . S
C191 C190 1.387 . S
C191 C192 1.372 . S
C192 H170 0.950 . S
C192 C191 1.372 . S
C192 C193 1.379 . S
C193 H171 0.948 . S
C193 C188 1.364 . S
C193 C192 1.379 . S
C194 C163 1.383 . S
C194 C181 1.479 . S
C194 C195 1.398 . S
C195 C160 1.382 . S
C195 H172 0.951 . S
C195 C194 1.398 . S
C196 C197 1.384 . S
C196 H209 0.947 . S
C196 C231 1.382 . S
C197 C196 1.384 . S
C197 C198 1.378 . S
C198 C197 1.378 . S
C198 C199 1.378 . S
C198 H210 0.952 . S
C199 C198 1.378 . S
C199 H211 0.950 . S
C199 C230 1.383 . S
H200 C219 0.947 . S
H201 C220 0.946 . S
H202 C222 0.953 . S
H203 C223 0.945 . S
H204 C225 0.952 . S
H205 C226 0.949 . S
H206 C228 0.950 . S
H207 C229 0.948 . S
H208 C231 0.951 . S
H209 C196 0.947 . S
H210 C198 0.952 . S
H211 C199 0.950 . S
N212 C215 1.382 . S
N212 C217 1.363 . S
N213 C215 1.371 . S
N213 C216 1.372 . S
N214 C216 1.361 . S
N214 C217 1.377 . S
C215 N212 1.382 . S
C215 N213 1.371 . S
C215 C218 1.480 . S
C216 N213 1.372 . S
C216 N214 1.361 . S
C216 C224 1.457 . S
C217 N212 1.363 . S
C217 N214 1.377 . S
C217 C230 1.479 . S
C218 C215 1.480 . S
C218 C219 1.383 . S
C218 C223 1.385 . S
C219 H200 0.947 . S
C219 C218 1.383 . S
C219 C220 1.388 . S
C220 H201 0.946 . S
C220 C219 1.388 . S
C220 C221 1.384 . S
C221 C220 1.384 . S
C221 C222 1.377 . S
C222 H202 0.953 . S
C222 C221 1.377 . S
C222 C223 1.369 . S
C223 H203 0.945 . S
C223 C218 1.385 . S
C223 C222 1.369 . S
C224 C216 1.457 . S
C224 C225 1.372 . S
C224 C229 1.364 . S
C225 H204 0.952 . S
C225 C224 1.372 . S
C225 C226 1.389 . S
C226 H205 0.949 . S
C226 C225 1.389 . S
C226 C227 1.387 . S
C227 C226 1.387 . S
C227 C228 1.372 . S
C228 H206 0.950 . S
C228 C227 1.372 . S
C228 C229 1.379 . S
C229 H207 0.948 . S
C229 C224 1.364 . S
C229 C228 1.379 . S
C230 C199 1.383 . S
C230 C217 1.479 . S
C230 C231 1.398 . S
C231 C196 1.382 . S
C231 H208 0.951 . S
C231 C230 1.398 . S
C232 C233 1.384 . S
C232 H245 0.947 . S
C232 C267 1.382 . S
C233 C232 1.384 . S
C233 C234 1.378 . S
C234 C233 1.378 . S
C234 C235 1.378 . S
C234 H246 0.952 . S
C235 C234 1.378 . S
C235 H247 0.950 . S
C235 C266 1.383 . S
H236 C255 0.947 . S
H237 C256 0.946 . S
H238 C258 0.953 . S
H239 C259 0.945 . S
H240 C261 0.952 . S
H241 C262 0.949 . S
H242 C264 0.950 . S
H243 C265 0.948 . S
H244 C267 0.951 . S
H245 C232 0.947 . S
H246 C234 0.952 . S
H247 C235 0.950 . S
N248 C251 1.382 . S
N248 C253 1.363 . S
N249 C251 1.371 . S
N249 C252 1.372 . S
N250 C252 1.361 . S
N250 C253 1.377 . S
C251 N248 1.382 . S
C251 N249 1.371 . S
C251 C254 1.480 . S
C252 N249 1.372 . S
C252 N250 1.361 . S
C252 C260 1.457 . S
C253 N248 1.363 . S
C253 N250 1.377 . S
C253 C266 1.479 . S
C254 C251 1.480 . S
C254 C255 1.383 . S
C254 C259 1.385 . S
C255 H236 0.947 . S
C255 C254 1.383 . S
C255 C256 1.388 . S
C256 H237 0.946 . S
C256 C255 1.388 . S
C256 C257 1.384 . S
C257 C256 1.384 . S
C257 C258 1.377 . S
C258 H238 0.953 . S
C258 C257 1.377 . S
C258 C259 1.369 . S
C259 H239 0.945 . S
C259 C254 1.385 . S
C259 C258 1.369 . S
C260 C252 1.457 . S
C260 C261 1.372 . S
C260 C265 1.364 . S
C261 H240 0.952 . S
C261 C260 1.372 . S
C261 C262 1.389 . S
C262 H241 0.949 . S
C262 C261 1.389 . S
C262 C263 1.387 . S
C263 C262 1.387 . S
C263 C264 1.372 . S
C264 H242 0.950 . S
C264 C263 1.372 . S
C264 C265 1.379 . S
C265 H243 0.948 . S
C265 C260 1.364 . S
C265 C264 1.379 . S
C266 C235 1.383 . S
C266 C253 1.479 . S
C266 C267 1.398 . S
C267 C232 1.382 . S
C267 H244 0.951 . S
C267 C266 1.398 . S
C268 C269 1.384 . S
C268 H281 0.947 . S
C268 C303 1.382 . S
C269 C268 1.384 . S
C269 C270 1.378 . S
C270 C269 1.378 . S
C270 C271 1.378 . S
C270 H282 0.952 . S
C271 C270 1.378 . S
C271 H283 0.950 . S
C271 C302 1.383 . S
H272 C291 0.947 . S
H273 C292 0.946 . S
H274 C294 0.953 . S
H275 C295 0.945 . S
H276 C297 0.952 . S
H277 C298 0.949 . S
H278 C300 0.950 . S
H279 C301 0.948 . S
H280 C303 0.951 . S
H281 C268 0.947 . S
H282 C270 0.952 . S
H283 C271 0.950 . S
N284 C287 1.382 . S
N284 C289 1.363 . S
N285 C287 1.371 . S
N285 C288 1.372 . S
N286 C288 1.361 . S
N286 C289 1.377 . S
C287 N284 1.382 . S
C287 N285 1.371 . S
C287 C290 1.480 . S
C288 N285 1.372 . S
C288 N286 1.361 . S
C288 C296 1.457 . S
C289 N284 1.363 . S
C289 N286 1.377 . S
C289 C302 1.479 . S
C290 C287 1.480 . S
C290 C291 1.383 . S
C290 C295 1.385 . S
C291 H272 0.947 . S
C291 C290 1.383 . S
C291 C292 1.388 . S
C292 H273 0.946 . S
C292 C291 1.388 . S
C292 C293 1.384 . S
C293 C292 1.384 . S
C293 C294 1.377 . S
C294 H274 0.953 . S
C294 C293 1.377 . S
C294 C295 1.369 . S
C295 H275 0.945 . S
C295 C290 1.385 . S
C295 C294 1.369 . S
C296 C288 1.457 . S
C296 C297 1.372 . S
C296 C301 1.364 . S
C297 H276 0.952 . S
C297 C296 1.372 . S
C297 C298 1.389 . S
C298 H277 0.949 . S
C298 C297 1.389 . S
C298 C299 1.387 . S
C299 C298 1.387 . S
C299 C300 1.372 . S
C300 H278 0.950 . S
C300 C299 1.372 . S
C300 C301 1.379 . S
C301 H279 0.948 . S
C301 C296 1.364 . S
C301 C300 1.379 . S
C302 C271 1.383 . S
C302 C289 1.479 . S
C302 C303 1.398 . S
C303 C268 1.382 . S
C303 H280 0.951 . S
C303 C302 1.398 . S
C304 C305 1.384 . S
C304 H317 0.947 . S
C304 C339 1.382 . S
C305 C304 1.384 . S
C305 C306 1.378 . S
C306 C305 1.378 . S
C306 C307 1.378 . S
C306 H318 0.952 . S
C307 C306 1.378 . S
C307 H319 0.950 . S
C307 C338 1.383 . S
H308 C327 0.947 . S
H309 C328 0.946 . S
H310 C330 0.953 . S
H311 C331 0.945 . S
H312 C333 0.952 . S
H313 C334 0.949 . S
H314 C336 0.950 . S
H315 C337 0.948 . S
H316 C339 0.951 . S
H317 C304 0.947 . S
H318 C306 0.952 . S
H319 C307 0.950 . S
N320 C323 1.382 . S
N320 C325 1.363 . S
N321 C323 1.371 . S
N321 C324 1.372 . S
N322 C324 1.361 . S
N322 C325 1.377 . S
C323 N320 1.382 . S
C323 N321 1.371 . S
C323 C326 1.480 . S
C324 N321 1.372 . S
C324 N322 1.361 . S
C324 C332 1.457 . S
C325 N320 1.363 . S
C325 N322 1.377 . S
C325 C338 1.479 . S
C326 C323 1.480 . S
C326 C327 1.383 . S
C326 C331 1.385 . S
C327 H308 0.947 . S
C327 C326 1.383 . S
C327 C328 1.388 . S
C328 H309 0.946 . S
C328 C327 1.388 . S
C328 C329 1.384 . S
C329 C328 1.384 . S
C329 C330 1.377 . S
C330 H310 0.953 . S
C330 C329 1.377 . S
C330 C331 1.369 . S
C331 H311 0.945 . S
C331 C326 1.385 . S
C331 C330 1.369 . S
C332 C324 1.457 . S
C332 C333 1.372 . S
C332 C337 1.364 . S
C333 H312 0.952 . S
C333 C332 1.372 . S
C333 C334 1.389 . S
C334 H313 0.949 . S
C334 C333 1.389 . S
C334 C335 1.387 . S
C335 C334 1.387 . S
C335 C336 1.372 . S
C336 H314 0.950 . S
C336 C335 1.372 . S
C336 C337 1.379 . S
C337 H315 0.948 . S
C337 C332 1.364 . S
C337 C336 1.379 . S
C338 C307 1.383 . S
C338 C325 1.479 . S
C338 C339 1.398 . S
C339 C304 1.382 . S
C339 H316 0.951 . S
C339 C338 1.398 . S
C340 C341 1.384 . S
C340 H353 0.947 . S
C340 C375 1.382 1_545 S
C341 C340 1.384 . S
C341 C342 1.378 . S
C342 C341 1.378 . S
C342 C343 1.378 1_545 S
C342 H354 0.952 . S
C343 C342 1.378 1_565 S
C343 H355 0.950 . S
C343 C374 1.383 . S
H344 C363 0.947 . S
H345 C364 0.946 . S
H346 C366 0.953 . S
H347 C367 0.945 . S
H348 C369 0.952 . S
H349 C370 0.949 . S
H350 C372 0.950 . S
H351 C373 0.948 . S
H352 C375 0.951 . S
H353 C340 0.947 . S
H354 C342 0.952 . S
H355 C343 0.950 . S
N356 C359 1.382 . S
N356 C361 1.363 . S
N357 C359 1.371 . S
N357 C360 1.372 . S
N358 C360 1.361 . S
N358 C361 1.377 . S
C359 N356 1.382 . S
C359 N357 1.371 . S
C359 C362 1.480 . S
C360 N357 1.372 . S
C360 N358 1.361 . S
C360 C368 1.457 . S
C361 N356 1.363 . S
C361 N358 1.377 . S
C361 C374 1.479 . S
C362 C359 1.480 . S
C362 C363 1.383 . S
C362 C367 1.385 . S
C363 H344 0.947 . S
C363 C362 1.383 . S
C363 C364 1.388 . S
C364 H345 0.946 . S
C364 C363 1.388 . S
C364 C365 1.384 . S
C365 C364 1.384 . S
C365 C366 1.377 . S
C366 H346 0.953 . S
C366 C365 1.377 . S
C366 C367 1.369 . S
C367 H347 0.945 . S
C367 C362 1.385 . S
C367 C366 1.369 . S
C368 C360 1.457 . S
C368 C369 1.372 . S
C368 C373 1.364 . S
C369 H348 0.952 . S
C369 C368 1.372 . S
C369 C370 1.389 . S
C370 H349 0.949 . S
C370 C369 1.389 . S
C370 C371 1.387 . S
C371 C370 1.387 . S
C371 C372 1.372 . S
C372 H350 0.950 . S
C372 C371 1.372 . S
C372 C373 1.379 . S
C373 H351 0.948 . S
C373 C368 1.364 . S
C373 C372 1.379 . S
C374 C343 1.383 . S
C374 C361 1.479 . S
C374 C375 1.398 . S
C375 C340 1.382 1_565 S
C375 H352 0.951 . S
C375 C374 1.398 . S
H376 C384 0.929 . S
H377 C386 0.930 . S
H378 C388 0.930 . S
H379 C391 0.929 . S
H380 C394 0.930 . S
H381 C396 0.960 . S
H382 C396 0.960 . S
H383 C396 0.960 . S
C384 H376 0.929 . S
C384 C385 1.377 . S
C384 C386 1.384 . S
C385 C384 1.377 . S
C385 C391 1.390 . S
C386 H377 0.930 . S
C386 C384 1.384 . S
C386 C387 1.372 . S
C387 C386 1.372 . S
C387 C388 1.400 . S
C387 C392 1.490 . S
C388 H378 0.930 . S
C388 C387 1.400 . S
C388 C391 1.386 . S
H389 C405 0.930 . S
H390 C406 0.931 . S
C391 H379 0.929 . S
C391 C385 1.390 . S
C391 C388 1.386 . S
C392 C387 1.490 . S
C392 C394 1.395 . S
C392 C395 1.403 . S
H393 C399 0.930 . S
C394 H380 0.930 . S
C394 C392 1.395 . S
C394 C397 1.403 . S
C395 C392 1.403 . S
C395 C396 1.524 . S
C395 C399 1.400 . S
C396 H381 0.960 . S
C396 H382 0.960 . S
C396 H383 0.960 . S
C396 C395 1.524 . S
C397 C394 1.403 . S
C397 C398 1.392 . S
C397 C401 1.495 . S
C398 C397 1.392 . S
C398 C399 1.385 . S
C398 C400 1.478 . S
C399 H393 0.930 . S
C399 C395 1.400 . S
C399 C398 1.385 . S
C400 C398 1.478 . S
C400 C402 1.381 . S
C400 C406 1.383 . S
C401 C397 1.495 . S
C401 H407 0.959 . S
C401 H408 0.961 . S
C401 H409 0.960 . S
C402 C400 1.381 . S
C402 C403 1.394 . S
C402 H410 0.930 . S
C403 C402 1.394 . S
C403 C404 1.383 . S
C403 H411 0.929 . S
C404 C403 1.383 . S
C404 C405 1.377 . S
C405 H389 0.930 . S
C405 C404 1.377 . S
C405 C406 1.379 . S
C406 H390 0.931 . S
C406 C400 1.383 . S
C406 C405 1.379 . S
H407 C401 0.959 . S
H408 C401 0.961 . S
H409 C401 0.960 . S
H410 C402 0.930 . S
H411 C403 0.929 . S
H412 C420 0.929 . S
H413 C422 0.930 . S
H414 C424 0.930 . S
H415 C427 0.929 . S
H416 C430 0.930 . S
H417 C432 0.960 . S
H418 C432 0.960 . S
H419 C432 0.960 . S
C420 H412 0.929 . S
C420 C421 1.377 . S
C420 C422 1.384 . S
C421 C420 1.377 . S
C421 C427 1.390 . S
C422 H413 0.930 . S
C422 C420 1.384 . S
C422 C423 1.372 . S
C423 C422 1.372 . S
C423 C424 1.400 . S
C423 C428 1.490 . S
C424 H414 0.930 . S
C424 C423 1.400 . S
C424 C427 1.386 . S
H425 C441 0.930 . S
H426 C442 0.931 . S
C427 H415 0.929 . S
C427 C421 1.390 . S
C427 C424 1.386 . S
C428 C423 1.490 . S
C428 C430 1.395 . S
C428 C431 1.403 . S
H429 C435 0.930 . S
C430 H416 0.930 . S
C430 C428 1.395 . S
C430 C433 1.403 . S
C431 C428 1.403 . S
C431 C432 1.524 . S
C431 C435 1.400 . S
C432 H417 0.960 . S
C432 H418 0.960 . S
C432 H419 0.960 . S
C432 C431 1.524 . S
C433 C430 1.403 . S
C433 C434 1.392 . S
C433 C437 1.495 . S
C434 C433 1.392 . S
C434 C435 1.385 . S
C434 C436 1.478 . S
C435 H429 0.930 . S
C435 C431 1.400 . S
C435 C434 1.385 . S
C436 C434 1.478 . S
C436 C438 1.381 . S
C436 C442 1.383 . S
C437 C433 1.495 . S
C437 H443 0.959 . S
C437 H444 0.961 . S
C437 H445 0.960 . S
C438 C436 1.381 . S
C438 C439 1.394 . S
C438 H446 0.930 . S
C439 C438 1.394 . S
C439 C440 1.383 . S
C439 H447 0.929 . S
C440 C439 1.383 . S
C440 C441 1.377 . S
C441 H425 0.930 . S
C441 C440 1.377 . S
C441 C442 1.379 . S
C442 H426 0.931 . S
C442 C436 1.383 . S
C442 C441 1.379 . S
H443 C437 0.959 . S
H444 C437 0.961 . S
H445 C437 0.960 . S
H446 C438 0.930 . S
H447 C439 0.929 . S
H448 C456 0.929 . S
H449 C458 0.930 . S
H450 C460 0.930 . S
H451 C463 0.929 . S
H452 C466 0.930 . S
H453 C468 0.960 . S
H454 C468 0.960 1_545 S
H455 C468 0.960 1_545 S
C456 H448 0.929 . S
C456 C457 1.377 . S
C456 C458 1.384 . S
C457 C456 1.377 . S
C457 C463 1.390 . S
C458 H449 0.930 . S
C458 C456 1.384 . S
C458 C459 1.372 . S
C459 C458 1.372 . S
C459 C460 1.400 . S
C459 C464 1.490 1_545 S
C460 H450 0.930 . S
C460 C459 1.400 . S
C460 C463 1.386 . S
H461 C477 0.930 . S
H462 C478 0.931 . S
C463 H451 0.929 . S
C463 C457 1.390 . S
C463 C460 1.386 . S
C464 C459 1.490 1_565 S
C464 C466 1.395 . S
C464 C467 1.403 . S
H465 C471 0.930 . S
C466 H452 0.930 . S
C466 C464 1.395 . S
C466 C469 1.403 . S
C467 C464 1.403 . S
C467 C468 1.524 . S
C467 C471 1.400 . S
C468 H453 0.960 . S
C468 H454 0.960 1_565 S
C468 H455 0.960 1_565 S
C468 C467 1.524 . S
C469 C466 1.403 . S
C469 C470 1.392 . S
C469 C473 1.495 . S
C470 C469 1.392 . S
C470 C471 1.385 . S
C470 C472 1.478 . S
C471 H465 0.930 . S
C471 C467 1.400 . S
C471 C470 1.385 . S
C472 C470 1.478 . S
C472 C474 1.381 . S
C472 C478 1.383 . S
C473 C469 1.495 . S
C473 H479 0.959 . S
C473 H480 0.961 . S
C473 H481 0.960 . S
C474 C472 1.381 . S
C474 C475 1.394 . S
C474 H482 0.930 . S
C475 C474 1.394 . S
C475 C476 1.383 . S
C475 H483 0.929 . S
C476 C475 1.383 . S
C476 C477 1.377 . S
C477 H461 0.930 . S
C477 C476 1.377 . S
C477 C478 1.379 . S
C478 H462 0.931 . S
C478 C472 1.383 . S
C478 C477 1.379 . S
H479 C473 0.959 . S
H480 C473 0.961 . S
H481 C473 0.960 . S
H482 C474 0.930 . S
H483 C475 0.929 . S
H484 C492 0.929 . S
H485 C494 0.930 . S
H486 C496 0.930 . S
H487 C499 0.929 . S
H488 C502 0.930 . S
H489 C504 0.960 . S
H490 C504 0.960 . S
H491 C504 0.960 . S
C492 H484 0.929 . S
C492 C493 1.377 . S
C492 C494 1.384 . S
C493 C492 1.377 . S
C493 C499 1.390 . S
C494 H485 0.930 . S
C494 C492 1.384 . S
C494 C495 1.372 . S
C495 C494 1.372 . S
C495 C496 1.400 . S
C495 C500 1.490 . S
C496 H486 0.930 . S
C496 C495 1.400 . S
C496 C499 1.386 . S
H497 C513 0.930 . S
H498 C514 0.931 . S
C499 H487 0.929 . S
C499 C493 1.390 . S
C499 C496 1.386 . S
C500 C495 1.490 . S
C500 C502 1.395 . S
C500 C503 1.403 . S
H501 C507 0.930 . S
C502 H488 0.930 . S
C502 C500 1.395 . S
C502 C505 1.403 . S
C503 C500 1.403 . S
C503 C504 1.524 . S
C503 C507 1.400 . S
C504 H489 0.960 . S
C504 H490 0.960 . S
C504 H491 0.960 . S
C504 C503 1.524 . S
C505 C502 1.403 . S
C505 C506 1.392 . S
C505 C509 1.495 . S
C506 C505 1.392 . S
C506 C507 1.385 . S
C506 C508 1.478 . S
C507 H501 0.930 . S
C507 C503 1.400 . S
C507 C506 1.385 . S
C508 C506 1.478 . S
C508 C510 1.381 . S
C508 C514 1.383 . S
C509 C505 1.495 . S
C509 H515 0.959 . S
C509 H516 0.961 . S
C509 H517 0.960 . S
C510 C508 1.381 . S
C510 C511 1.394 . S
C510 H518 0.930 . S
C511 C510 1.394 . S
C511 C512 1.383 . S
C511 H519 0.929 . S
C512 C511 1.383 . S
C512 C513 1.377 . S
C513 H497 0.930 . S
C513 C512 1.377 . S
C513 C514 1.379 . S
C514 H498 0.931 . S
C514 C508 1.383 . S
C514 C513 1.379 . S
H515 C509 0.959 . S
H516 C509 0.961 . S
H517 C509 0.960 . S
H518 C510 0.930 . S
H519 C511 0.929 . S
H520 C528 0.929 . S
H521 C530 0.930 . S
H522 C532 0.930 . S
H523 C535 0.929 . S
H524 C538 0.930 . S
H525 C540 0.960 . S
H526 C540 0.960 . S
H527 C540 0.960 . S
C528 H520 0.929 . S
C528 C529 1.377 . S
C528 C530 1.384 . S
C529 C528 1.377 . S
C529 C535 1.390 . S
C530 H521 0.930 . S
C530 C528 1.384 . S
C530 C531 1.372 . S
C531 C530 1.372 . S
C531 C532 1.400 . S
C531 C536 1.490 . S
C532 H522 0.930 . S
C532 C531 1.400 . S
C532 C535 1.386 . S
H533 C549 0.930 . S
H534 C550 0.931 . S
C535 H523 0.929 . S
C535 C529 1.390 . S
C535 C532 1.386 . S
C536 C531 1.490 . S
C536 C538 1.395 . S
C536 C539 1.403 . S
H537 C543 0.930 . S
C538 H524 0.930 . S
C538 C536 1.395 . S
C538 C541 1.403 . S
C539 C536 1.403 . S
C539 C540 1.524 . S
C539 C543 1.400 . S
C540 H525 0.960 . S
C540 H526 0.960 . S
C540 H527 0.960 . S
C540 C539 1.524 . S
C541 C538 1.403 . S
C541 C542 1.392 . S
C541 C545 1.495 . S
C542 C541 1.392 . S
C542 C543 1.385 . S
C542 C544 1.478 . S
C543 H537 0.930 . S
C543 C539 1.400 . S
C543 C542 1.385 . S
C544 C542 1.478 . S
C544 C546 1.381 . S
C544 C550 1.383 . S
C545 C541 1.495 . S
C545 H551 0.959 . S
C545 H552 0.961 . S
C545 H553 0.960 . S
C546 C544 1.381 . S
C546 C547 1.394 . S
C546 H554 0.930 . S
C547 C546 1.394 . S
C547 C548 1.383 . S
C547 H555 0.929 . S
C548 C547 1.383 . S
C548 C549 1.377 . S
C549 H533 0.930 . S
C549 C548 1.377 . S
C549 C550 1.379 . S
C550 H534 0.931 . S
C550 C544 1.383 . S
C550 C549 1.379 . S
H551 C545 0.959 . S
H552 C545 0.961 . S
H553 C545 0.960 . S
H554 C546 0.930 . S
H555 C547 0.929 . S
H556 C564 0.929 1_556 S
H557 C566 0.930 . S
H558 C568 0.930 . S
H559 C571 0.929 . S
H560 C574 0.930 . S
H561 C576 0.960 . S
H562 C576 0.960 . S
H563 C576 0.960 . S
C564 H556 0.929 1_554 S
C564 C565 1.377 . S
C564 C566 1.384 1_554 S
C565 C564 1.377 . S
C565 C571 1.390 . S
C566 H557 0.930 . S
C566 C564 1.384 1_556 S
C566 C567 1.372 1_556 S
C567 C566 1.372 1_554 S
C567 C568 1.400 . S
C567 C572 1.490 . S
C568 H558 0.930 . S
C568 C567 1.400 . S
C568 C571 1.386 . S
H569 C585 0.930 . S
H570 C586 0.931 1_554 S
C571 H559 0.929 . S
C571 C565 1.390 . S
C571 C568 1.386 . S
C572 C567 1.490 . S
C572 C574 1.395 1_554 S
C572 C575 1.403 . S
H573 C579 0.921 1_454 S
C574 H560 0.930 . S
C574 C572 1.395 1_556 S
C574 C577 1.403 . S
C575 C572 1.403 . S
C575 C576 1.524 . S
C575 C579 1.379 1_554 S
C576 H561 0.960 . S
C576 H562 0.960 . S
C576 H563 0.960 . S
C576 C575 1.524 . S
C577 C574 1.403 . S
C577 C578 1.392 . S
C577 C581 1.495 . S
C578 C577 1.392 . S
C578 C579 1.417 . S
C578 C580 1.478 1_655 S
C579 H573 0.921 1_656 S
C579 C575 1.379 1_556 S
C579 C578 1.417 . S
C580 C578 1.478 1_455 S
C580 C582 1.381 . S
C580 C586 1.383 . S
C581 C577 1.495 . S
C581 H587 0.959 . S
C581 H588 0.961 . S
C581 H589 0.960 . S
C582 C580 1.381 . S
C582 C583 1.394 . S
C582 H590 0.930 . S
C583 C582 1.394 . S
C583 C584 1.383 . S
C583 H591 0.929 . S
C584 C583 1.383 . S
C584 C585 1.377 . S
C585 H569 0.930 . S
C585 C584 1.377 . S
C585 C586 1.379 . S
C586 H570 0.931 1_556 S
C586 C580 1.383 . S
C586 C585 1.379 . S
H587 C581 0.959 . S
H588 C581 0.961 . S
H589 C581 0.960 . S
H590 C582 0.930 . S
H591 C583 0.929 . S
H592 C600 0.929 . S
H593 C602 0.930 . S
H594 C604 0.930 . S
H595 C607 0.929 . S
H596 C610 0.930 . S
H597 C612 0.960 . S
H598 C612 0.960 . S
H599 C612 0.960 . S
C600 H592 0.929 . S
C600 C601 1.377 . S
C600 C602 1.384 . S
C601 C600 1.377 . S
C601 C607 1.390 . S
C602 H593 0.930 . S
C602 C600 1.384 . S
C602 C603 1.372 . S
C603 C602 1.372 . S
C603 C604 1.400 . S
C603 C608 1.490 . S
C604 H594 0.930 . S
C604 C603 1.400 . S
C604 C607 1.386 . S
H605 C621 0.930 . S
H606 C622 0.931 . S
C607 H595 0.929 . S
C607 C601 1.390 . S
C607 C604 1.386 . S
C608 C603 1.490 . S
C608 C610 1.395 . S
C608 C611 1.403 . S
H609 C615 0.930 . S
C610 H596 0.930 . S
C610 C608 1.395 . S
C610 C613 1.403 . S
C611 C608 1.403 . S
C611 C612 1.524 . S
C611 C615 1.400 . S
C612 H597 0.960 . S
C612 H598 0.960 . S
C612 H599 0.960 . S
C612 C611 1.524 . S
C613 C610 1.403 . S
C613 C614 1.392 . S
C613 C617 1.495 . S
C614 C613 1.392 . S
C614 C615 1.385 . S
C614 C616 1.478 . S
C615 H609 0.930 . S
C615 C611 1.400 . S
C615 C614 1.385 . S
C616 C614 1.478 . S
C616 C618 1.381 . S
C616 C622 1.383 . S
C617 C613 1.495 . S
C617 H623 0.959 . S
C617 H624 0.961 . S
C617 H625 0.960 . S
C618 C616 1.381 . S
C618 C619 1.394 . S
C618 H626 0.930 . S
C619 C618 1.394 . S
C619 C620 1.383 . S
C619 H627 0.929 . S
C620 C619 1.383 . S
C620 C621 1.377 . S
C621 H605 0.930 . S
C621 C620 1.377 . S
C621 C622 1.379 . S
C622 H606 0.931 . S
C622 C616 1.383 . S
C622 C621 1.379 . S
H623 C617 0.959 . S
H624 C617 0.961 . S
H625 C617 0.960 . S
H626 C618 0.930 . S
H627 C619 0.929 . S
H628 C636 0.929 . S
H629 C638 0.930 . S
H630 C640 0.930 . S
H631 C643 0.929 . S
H632 C646 0.930 . S
H633 C648 0.960 . S
H634 C648 0.960 . S
H635 C648 0.960 . S
C636 H628 0.929 . S
C636 C637 1.377 . S
C636 C638 1.384 . S
C637 C636 1.377 . S
C637 C643 1.390 . S
C638 H629 0.930 . S
C638 C636 1.384 . S
C638 C639 1.372 . S
C639 C638 1.372 . S
C639 C640 1.400 . S
C639 C644 1.490 . S
C640 H630 0.930 . S
C640 C639 1.400 . S
C640 C643 1.386 . S
H641 C657 0.930 . S
H642 C658 0.931 . S
C643 H631 0.929 . S
C643 C637 1.390 . S
C643 C640 1.386 . S
C644 C639 1.490 . S
C644 C646 1.395 . S
C644 C647 1.403 . S
H645 C651 0.930 . S
C646 H632 0.930 . S
C646 C644 1.395 . S
C646 C649 1.403 . S
C647 C644 1.403 . S
C647 C648 1.524 . S
C647 C651 1.400 . S
C648 H633 0.960 . S
C648 H634 0.960 . S
C648 H635 0.960 . S
C648 C647 1.524 . S
C649 C646 1.403 . S
C649 C650 1.392 . S
C649 C653 1.495 . S
C650 C649 1.392 . S
C650 C651 1.385 . S
C650 C652 1.478 . S
C651 H645 0.930 . S
C651 C647 1.400 . S
C651 C650 1.385 . S
C652 C650 1.478 . S
C652 C654 1.381 1_455 S
C652 C658 1.383 . S
C653 C649 1.495 . S
C653 H659 0.959 . S
C653 H660 0.961 . S
C653 H661 0.960 . S
C654 C652 1.381 1_655 S
C654 C655 1.394 . S
C654 H662 0.930 . S
C655 C654 1.394 . S
C655 C656 1.383 . S
C655 H663 0.929 . S
C656 C655 1.383 . S
C656 C657 1.377 1_655 S
C657 H641 0.930 . S
C657 C656 1.377 1_455 S
C657 C658 1.379 . S
C658 H642 0.931 . S
C658 C652 1.383 . S
C658 C657 1.379 . S
H659 C653 0.959 . S
H660 C653 0.961 . S
H661 C653 0.960 . S
H662 C654 0.930 . S
H663 C655 0.929 . S
H664 C672 0.962 . S
H665 C674 0.930 . S
H666 C676 0.930 . S
H667 C679 0.929 . S
H668 C682 0.930 . S
H669 C684 0.960 . S
H670 C684 0.960 . S
H671 C684 0.960 . S
C672 H664 0.962 . S
C672 C673 1.377 . S
C672 C674 1.384 . S
C673 C672 1.377 . S
C673 C679 1.390 . S
C674 H665 0.930 . S
C674 C672 1.384 . S
C674 C675 1.372 . S
C675 C674 1.372 . S
C675 C676 1.400 . S
C675 C680 1.490 . S
C676 H666 0.930 . S
C676 C675 1.400 . S
C676 C679 1.386 . S
H677 C693 0.930 . S
H678 C694 0.931 . S
C679 H667 0.929 . S
C679 C673 1.390 . S
C679 C676 1.386 . S
C680 C675 1.490 . S
C680 C682 1.395 . S
C680 C683 1.403 . S
H681 C687 0.930 . S
C682 H668 0.930 . S
C682 C680 1.395 . S
C682 C685 1.403 . S
C683 C680 1.403 . S
C683 C684 1.524 . S
C683 C687 1.400 . S
C684 H669 0.960 . S
C684 H670 0.960 . S
C684 H671 0.960 . S
C684 C683 1.524 . S
C685 C682 1.403 . S
C685 C686 1.392 . S
C685 C689 1.495 . S
C686 C685 1.392 . S
C686 C687 1.385 . S
C686 C688 1.478 . S
C687 H681 0.930 . S
C687 C683 1.400 . S
C687 C686 1.385 . S
C688 C686 1.478 . S
C688 C690 1.381 . S
C688 C694 1.383 . S
C689 C685 1.495 . S
C689 H695 0.959 . S
C689 H696 0.961 . S
C689 H697 0.960 . S
C690 C688 1.381 . S
C690 C691 1.394 . S
C690 H698 0.930 . S
C691 C690 1.394 . S
C691 C692 1.383 . S
C691 H699 0.929 . S
C692 C691 1.383 . S
C692 C693 1.377 . S
C693 H677 0.930 . S
C693 C692 1.377 . S
C693 C694 1.379 . S
C694 H678 0.931 . S
C694 C688 1.383 . S
C694 C693 1.379 . S
H695 C689 0.959 . S
H696 C689 0.961 . S
H697 C689 0.960 . S
H698 C690 0.930 . S
H699 C691 0.929 . S
H700 C708 0.929 . S
H701 C710 0.930 . S
H702 C712 0.930 . S
H703 C715 0.929 . S
H704 C718 0.930 . S
H705 C720 0.960 . S
H706 C720 0.960 . S
H707 C720 0.960 . S
C708 H700 0.929 . S
C708 C709 1.377 . S
C708 C710 1.384 . S
C709 C708 1.377 . S
C709 C715 1.390 . S
C710 H701 0.930 . S
C710 C708 1.384 . S
C710 C711 1.372 . S
C711 C710 1.372 . S
C711 C712 1.400 . S
C711 C716 1.490 . S
C712 H702 0.930 . S
C712 C711 1.400 . S
C712 C715 1.386 . S
H713 C729 0.930 . S
H714 C730 0.931 . S
C715 H703 0.929 . S
C715 C709 1.390 . S
C715 C712 1.386 . S
C716 C711 1.490 . S
C716 C718 1.395 . S
C716 C719 1.403 . S
H717 C723 0.930 . S
C718 H704 0.930 . S
C718 C716 1.395 . S
C718 C721 1.403 . S
C719 C716 1.403 . S
C719 C720 1.524 . S
C719 C723 1.400 . S
C720 H705 0.960 . S
C720 H706 0.960 . S
C720 H707 0.960 . S
C720 C719 1.524 . S
C721 C718 1.403 . S
C721 C722 1.392 . S
C721 C725 1.495 . S
C722 C721 1.392 . S
C722 C723 1.385 . S
C722 C724 1.478 . S
C723 H717 0.930 . S
C723 C719 1.400 . S
C723 C722 1.385 . S
C724 C722 1.478 . S
C724 C726 1.381 . S
C724 C730 1.383 . S
C725 C721 1.495 . S
C725 H731 0.959 . S
C725 H732 0.961 . S
C725 H733 0.960 . S
C726 C724 1.381 . S
C726 C727 1.394 . S
C726 H734 0.930 . S
C727 C726 1.394 . S
C727 C728 1.383 . S
C727 H735 0.929 . S
C728 C727 1.383 . S
C728 C729 1.377 . S
C729 H713 0.930 . S
C729 C728 1.377 . S
C729 C730 1.379 . S
C730 H714 0.931 . S
C730 C724 1.383 . S
C730 C729 1.379 . S
H731 C725 0.959 . S
H732 C725 0.961 . S
H733 C725 0.960 . S
H734 C726 0.930 . S
H735 C727 0.929 . S
H736 C744 0.929 . S
H737 C746 0.930 . S
H738 C748 0.930 . S
H739 C751 0.929 . S
H740 C754 0.930 . S
H741 C756 0.960 . S
H742 C756 0.960 . S
H743 C756 0.960 1_565 S
C744 H736 0.929 . S
C744 C745 1.377 1_554 S
C744 C746 1.384 . S
C745 C744 1.377 1_556 S
C745 C751 1.390 . S
C746 H737 0.930 . S
C746 C744 1.384 . S
C746 C747 1.372 1_554 S
C747 C746 1.372 1_556 S
C747 C748 1.400 . S
C747 C752 1.490 1_565 S
C748 H738 0.930 . S
C748 C747 1.400 . S
C748 C751 1.386 . S
H749 C765 0.930 . S
H750 C766 0.931 . S
C751 H739 0.929 . S
C751 C745 1.390 . S
C751 C748 1.386 . S
C752 C747 1.490 1_545 S
C752 C754 1.395 . S
C752 C755 1.403 . S
H753 C759 0.930 . S
C754 H740 0.930 . S
C754 C752 1.395 . S
C754 C757 1.403 . S
C755 C752 1.403 . S
C755 C756 1.524 . S
C755 C759 1.400 . S
C756 H741 0.960 . S
C756 H742 0.960 . S
C756 H743 0.960 1_545 S
C756 C755 1.524 . S
C757 C754 1.403 . S
C757 C758 1.392 . S
C757 C761 1.495 . S
C758 C757 1.392 . S
C758 C759 1.385 . S
C758 C760 1.478 . S
C759 H753 0.930 . S
C759 C755 1.400 . S
C759 C758 1.385 . S
C760 C758 1.478 . S
C760 C762 1.381 . S
C760 C766 1.383 . S
C761 C757 1.495 . S
C761 H767 0.959 . S
C761 H768 0.961 . S
C761 H769 0.960 . S
C762 C760 1.381 . S
C762 C763 1.394 . S
C762 H770 0.930 . S
C763 C762 1.394 . S
C763 C764 1.383 . S
C763 H771 0.929 . S
C764 C763 1.383 . S
C764 C765 1.377 . S
C765 H749 0.930 . S
C765 C764 1.377 . S
C765 C766 1.379 . S
C766 H750 0.931 . S
C766 C760 1.383 . S
C766 C765 1.379 . S
H767 C761 0.959 . S
H768 C761 0.961 . S
H769 C761 0.960 . S
H770 C762 0.930 . S
H771 C763 0.929 . S
H772 C780 0.929 . S
H773 C782 0.930 . S
H774 C784 0.930 . S
H775 C787 0.929 . S
H776 C790 0.930 . S
H777 C792 0.960 . S
H778 C792 0.960 . S
H779 C792 0.960 . S
C780 H772 0.929 . S
C780 C781 1.377 . S
C780 C782 1.384 . S
C781 C780 1.377 . S
C781 C787 1.390 . S
C782 H773 0.930 . S
C782 C780 1.384 . S
C782 C783 1.372 . S
C783 C782 1.372 . S
C783 C784 1.400 . S
C783 C788 1.490 . S
C784 H774 0.930 . S
C784 C783 1.400 . S
C784 C787 1.386 . S
H785 C801 0.930 . S
H786 C802 0.931 . S
C787 H775 0.929 . S
C787 C781 1.390 . S
C787 C784 1.386 . S
C788 C783 1.490 . S
C788 C790 1.395 . S
C788 C791 1.403 . S
H789 C795 0.930 . S
C790 H776 0.930 . S
C790 C788 1.395 . S
C790 C793 1.403 . S
C791 C788 1.403 . S
C791 C792 1.524 . S
C791 C795 1.400 . S
C792 H777 0.960 . S
C792 H778 0.960 . S
C792 H779 0.960 . S
C792 C791 1.524 . S
C793 C790 1.403 . S
C793 C794 1.392 . S
C793 C797 1.495 . S
C794 C793 1.392 . S
C794 C795 1.385 . S
C794 C796 1.478 . S
C795 H789 0.930 . S
C795 C791 1.400 . S
C795 C794 1.385 . S
C796 C794 1.478 . S
C796 C798 1.381 . S
C796 C802 1.383 . S
C797 C793 1.495 . S
C797 H803 0.959 . S
C797 H804 0.961 . S
C797 H805 0.960 . S
C798 C796 1.381 . S
C798 C799 1.394 . S
C798 H806 0.930 . S
C799 C798 1.394 . S
C799 C800 1.383 . S
C799 H807 0.929 . S
C800 C799 1.383 . S
C800 C801 1.377 . S
C801 H785 0.930 . S
C801 C800 1.377 . S
C801 C802 1.379 . S
C802 H786 0.931 . S
C802 C796 1.383 . S
C802 C801 1.379 . S
H803 C797 0.959 . S
H804 C797 0.961 . S
H805 C797 0.960 . S
H806 C798 0.930 . S
H807 C799 0.929 . S
H808 C816 0.929 . S
H809 C818 0.930 . S
H810 C820 0.930 . S
H811 C823 0.929 . S
H812 C826 0.930 . S
H813 C828 0.960 . S
H814 C828 0.960 . S
H815 C828 0.960 . S
C816 H808 0.929 . S
C816 C817 1.377 . S
C816 C818 1.384 . S
C817 C816 1.377 . S
C817 C823 1.390 . S
C818 H809 0.930 . S
C818 C816 1.384 . S
C818 C819 1.372 . S
C819 C818 1.372 . S
C819 C820 1.400 . S
C819 C824 1.490 . S
C820 H810 0.930 . S
C820 C819 1.400 . S
C820 C823 1.386 . S
H821 C837 0.930 . S
H822 C838 0.931 . S
C823 H811 0.929 . S
C823 C817 1.390 . S
C823 C820 1.386 . S
C824 C819 1.490 . S
C824 C826 1.395 . S
C824 C827 1.403 . S
H825 C831 0.930 . S
C826 H812 0.930 . S
C826 C824 1.395 . S
C826 C829 1.403 . S
C827 C824 1.403 . S
C827 C828 1.524 . S
C827 C831 1.400 . S
C828 H813 0.960 . S
C828 H814 0.960 . S
C828 H815 0.960 . S
C828 C827 1.524 . S
C829 C826 1.403 . S
C829 C830 1.392 . S
C829 C833 1.495 . S
C830 C829 1.392 . S
C830 C831 1.385 . S
C830 C832 1.478 . S
C831 H825 0.930 . S
C831 C827 1.400 . S
C831 C830 1.385 . S
C832 C830 1.478 . S
C832 C834 1.381 . S
C832 C838 1.383 . S
C833 C829 1.495 . S
C833 H839 0.959 . S
C833 H840 0.961 . S
C833 H841 0.960 . S
C834 C832 1.381 . S
C834 C835 1.394 . S
C834 H842 0.930 . S
C835 C834 1.394 . S
C835 C836 1.383 . S
C835 H843 0.929 . S
C836 C835 1.383 . S
C836 C837 1.377 . S
C837 H821 0.930 . S
C837 C836 1.377 . S
C837 C838 1.379 . S
C838 H822 0.931 . S
C838 C832 1.383 . S
C838 C837 1.379 . S
H839 C833 0.959 . S
H840 C833 0.961 . S
H841 C833 0.960 . S
H842 C834 0.930 . S
H843 C835 0.929 . S
H844 C852 0.929 . S
H845 C854 0.930 . S
H846 C856 0.930 . S
H847 C859 0.929 . S
H848 C862 0.930 . S
H849 C864 0.960 . S
H850 C864 0.960 . S
H851 C864 0.960 . S
C852 H844 0.929 . S
C852 C853 1.377 . S
C852 C854 1.384 . S
C853 C852 1.377 . S
C853 C859 1.390 . S
C854 H845 0.930 . S
C854 C852 1.384 . S
C854 C855 1.372 . S
C855 C854 1.372 . S
C855 C856 1.400 . S
C855 C860 1.490 . S
C856 H846 0.930 . S
C856 C855 1.400 . S
C856 C859 1.386 . S
H857 C873 0.930 . S
H858 C874 0.931 . S
C859 H847 0.929 . S
C859 C853 1.390 . S
C859 C856 1.386 . S
C860 C855 1.490 . S
C860 C862 1.395 . S
C860 C863 1.403 . S
H861 C867 0.930 . S
C862 H848 0.930 . S
C862 C860 1.395 . S
C862 C865 1.403 . S
C863 C860 1.403 . S
C863 C864 1.524 . S
C863 C867 1.400 . S
C864 H849 0.960 . S
C864 H850 0.960 . S
C864 H851 0.960 . S
C864 C863 1.524 . S
C865 C862 1.403 . S
C865 C866 1.392 . S
C865 C869 1.495 . S
C866 C865 1.392 . S
C866 C867 1.385 . S
C866 C868 1.478 1_455 S
C867 H861 0.930 . S
C867 C863 1.400 . S
C867 C866 1.385 . S
C868 C866 1.478 1_655 S
C868 C870 1.381 . S
C868 C874 1.383 . S
C869 C865 1.495 . S
C869 H875 0.959 . S
C869 H876 0.961 1_455 S
C869 H877 0.960 . S
C870 C868 1.381 . S
C870 C871 1.394 . S
C870 H878 0.914 1_655 S
C871 C870 1.394 . S
C871 C872 1.383 . S
C871 H879 0.929 . S
C872 C871 1.383 . S
C872 C873 1.377 . S
C873 H857 0.930 . S
C873 C872 1.377 . S
C873 C874 1.379 . S
C874 H858 0.931 . S
C874 C868 1.383 . S
C874 C873 1.379 . S
H875 C869 0.959 . S
H876 C869 0.961 1_655 S
H877 C869 0.960 . S
H878 C870 0.914 1_455 S
H879 C871 0.929 . S
H880 C888 0.929 . S
H881 C890 0.930 . S
H882 C892 0.930 . S
H883 C895 0.929 . S
H884 C898 0.930 . S
H885 C900 0.960 . S
H886 C900 0.960 . S
H887 C900 0.960 . S
C888 H880 0.929 . S
C888 C889 1.377 . S
C888 C890 1.384 . S
C889 C888 1.377 . S
C889 C895 1.390 . S
C890 H881 0.930 . S
C890 C888 1.384 . S
C890 C891 1.372 . S
C891 C890 1.372 . S
C891 C892 1.400 . S
C891 C896 1.490 . S
C892 H882 0.930 . S
C892 C891 1.400 . S
C892 C895 1.386 . S
H893 C909 0.930 . S
H894 C910 0.931 . S
C895 H883 0.929 . S
C895 C889 1.390 . S
C895 C892 1.386 . S
C896 C891 1.490 . S
C896 C898 1.395 . S
C896 C899 1.403 . S
H897 C903 0.930 . S
C898 H884 0.930 . S
C898 C896 1.395 . S
C898 C901 1.403 . S
C899 C896 1.403 . S
C899 C900 1.524 . S
C899 C903 1.400 . S
C900 H885 0.960 . S
C900 H886 0.960 . S
C900 H887 0.960 . S
C900 C899 1.524 . S
C901 C898 1.403 . S
C901 C902 1.392 . S
C901 C905 1.495 . S
C902 C901 1.392 . S
C902 C903 1.385 . S
C902 C904 1.478 . S
C903 H897 0.930 . S
C903 C899 1.400 . S
C903 C902 1.385 . S
C904 C902 1.478 . S
C904 C906 1.381 . S
C904 C910 1.383 . S
C905 C901 1.495 . S
C905 H911 0.959 . S
C905 H912 0.961 . S
C905 H913 0.960 . S
C906 C904 1.381 . S
C906 C907 1.394 . S
C906 H914 0.930 . S
C907 C906 1.394 . S
C907 C908 1.383 . S
C907 H915 0.929 . S
C908 C907 1.383 . S
C908 C909 1.377 . S
C909 H893 0.930 . S
C909 C908 1.377 . S
C909 C910 1.379 . S
C910 H894 0.931 . S
C910 C904 1.383 . S
C910 C909 1.379 . S
H911 C905 0.959 . S
H912 C905 0.961 . S
H913 C905 0.960 . S
H914 C906 0.930 . S
H915 C907 0.929 . S
H916 C924 0.929 . S
H917 C926 0.930 . S
H918 C928 0.930 . S
H919 C931 0.929 . S
H920 C934 0.930 . S
H921 C936 0.960 . S
H922 C936 0.960 . S
H923 C936 0.960 . S
C924 H916 0.929 . S
C924 C925 1.377 . S
C924 C926 1.384 . S
C925 C924 1.377 . S
C925 C931 1.390 . S
C926 H917 0.930 . S
C926 C924 1.384 . S
C926 C927 1.372 . S
C927 C926 1.372 . S
C927 C928 1.400 . S
C927 C932 1.490 . S
C928 H918 0.930 . S
C928 C927 1.400 . S
C928 C931 1.386 . S
H929 C945 0.930 . S
H930 C946 0.931 . S
C931 H919 0.929 . S
C931 C925 1.390 . S
C931 C928 1.386 . S
C932 C927 1.490 . S
C932 C934 1.395 . S
C932 C935 1.403 . S
H933 C939 0.930 . S
C934 H920 0.930 . S
C934 C932 1.395 . S
C934 C937 1.403 . S
C935 C932 1.403 . S
C935 C936 1.524 . S
C935 C939 1.400 . S
C936 H921 0.960 . S
C936 H922 0.960 . S
C936 H923 0.960 . S
C936 C935 1.524 . S
C937 C934 1.403 . S
C937 C938 1.392 . S
C937 C941 1.495 . S
C938 C937 1.392 . S
C938 C939 1.385 . S
C938 C940 1.478 . S
C939 H933 0.930 . S
C939 C935 1.400 . S
C939 C938 1.385 . S
C940 C938 1.478 . S
C940 C942 1.381 . S
C940 C946 1.383 . S
C941 C937 1.495 . S
C941 H947 0.959 . S
C941 H948 0.985 . S
C941 H949 0.960 . S
C942 C940 1.381 . S
C942 C943 1.394 . S
C942 H950 0.930 . S
C943 C942 1.394 . S
C943 C944 1.383 1_655 S
C943 H951 0.930 . S
C944 C943 1.383 1_455 S
C944 C945 1.377 . S
C945 H929 0.930 . S
C945 C944 1.377 . S
C945 C946 1.379 1_455 S
C946 H930 0.931 . S
C946 C940 1.383 . S
C946 C945 1.379 1_655 S
H947 C941 0.959 . S
H948 C941 0.985 . S
H949 C941 0.960 . S
H950 C942 0.930 . S
H951 C943 0.930 . S
H952 C960 0.929 . S
H953 C962 0.930 . S
H954 C964 0.930 . S
H955 C967 0.929 . S
H956 C970 0.930 . S
H957 C972 0.960 . S
H958 C972 0.960 . S
H959 C972 0.960 . S
C960 H952 0.929 . S
C960 C961 1.377 . S
C960 C962 1.384 . S
C961 C960 1.377 . S
C961 C967 1.390 . S
C962 H953 0.930 . S
C962 C960 1.384 . S
C962 C963 1.372 . S
C963 C962 1.372 . S
C963 C964 1.400 . S
C963 C968 1.490 . S
C964 H954 0.930 . S
C964 C963 1.400 . S
C964 C967 1.386 . S
H965 C981 0.930 . S
H966 C982 0.931 . S
C967 H955 0.929 . S
C967 C961 1.390 . S
C967 C964 1.386 . S
C968 C963 1.490 . S
C968 C970 1.395 . S
C968 C971 1.403 . S
H969 C975 0.930 . S
C970 H956 0.930 . S
C970 C968 1.395 . S
C970 C973 1.403 . S
C971 C968 1.403 . S
C971 C972 1.524 . S
C971 C975 1.400 . S
C972 H957 0.960 . S
C972 H958 0.960 . S
C972 H959 0.960 . S
C972 C971 1.524 . S
C973 C970 1.403 . S
C973 C974 1.392 . S
C973 C977 1.495 . S
C974 C973 1.392 . S
C974 C975 1.385 . S
C974 C976 1.478 . S
C975 H969 0.930 . S
C975 C971 1.400 . S
C975 C974 1.385 . S
C976 C974 1.478 . S
C976 C978 1.381 . S
C976 C982 1.383 . S
C977 C973 1.495 . S
C977 H983 0.959 . S
C977 H984 0.961 . S
C977 H985 0.960 . S
C978 C976 1.381 . S
C978 C979 1.394 . S
C978 H986 0.930 . S
C979 C978 1.394 . S
C979 C980 1.383 . S
C979 H987 0.929 . S
C980 C979 1.383 . S
C980 C981 1.377 . S
C981 H965 0.930 . S
C981 C980 1.377 . S
C981 C982 1.379 . S
C982 H966 0.931 . S
C982 C976 1.383 . S
C982 C981 1.379 . S
H983 C977 0.959 . S
H984 C977 0.961 . S
H985 C977 0.960 . S
H986 C978 0.930 . S
H987 C979 0.929 . S
H988 C996 0.929 . S
H989 C998 0.930 . S
H990 C1000 0.930 . S
H991 C1003 0.929 . S
H992 C1006 0.930 . S
H993 C1008 0.960 . S
H994 C1008 0.960 . S
H995 C1008 0.960 . S
C996 H988 0.929 . S
C996 C997 1.377 . S
C996 C998 1.384 . S
C997 C996 1.377 . S
C997 C1003 1.390 . S
C998 H989 0.930 . S
C998 C996 1.384 . S
C998 C999 1.372 . S
C999 C998 1.372 . S
C999 C1000 1.400 . S
C999 C1004 1.490 . S
C1000 H990 0.930 . S
C1000 C999 1.400 . S
C1000 C1003 1.386 . S
H1001 C1017 0.930 . S
H1002 C1018 0.931 . S
C1003 H991 0.929 . S
C1003 C997 1.390 . S
C1003 C1000 1.386 . S
C1004 C999 1.490 . S
C1004 C1006 1.395 . S
C1004 C1007 1.403 . S
H1005 C1011 0.930 . S
C1006 H992 0.930 . S
C1006 C1004 1.395 . S
C1006 C1009 1.403 . S
C1007 C1004 1.403 . S
C1007 C1008 1.524 . S
C1007 C1011 1.400 . S
C1008 H993 0.960 . S
C1008 H994 0.960 . S
C1008 H995 0.960 . S
C1008 C1007 1.524 . S
C1009 C1006 1.403 . S
C1009 C1010 1.392 . S
C1009 C1013 1.495 . S
C1010 C1009 1.392 . S
C1010 C1011 1.385 . S
C1010 C1012 1.478 . S
C1011 H1005 0.930 . S
C1011 C1007 1.400 . S
C1011 C1010 1.385 . S
C1012 C1010 1.478 . S
C1012 C1014 1.381 . S
C1012 C1018 1.383 . S
C1013 C1009 1.495 . S
C1013 H1019 0.959 . S
C1013 H1020 0.961 . S
C1013 H1021 0.960 . S
C1014 C1012 1.381 . S
C1014 C1015 1.394 . S
C1014 H1022 0.930 . S
C1015 C1014 1.394 . S
C1015 C1016 1.383 . S
C1015 H1023 0.929 . S
C1016 C1015 1.383 . S
C1016 C1017 1.377 . S
C1017 H1001 0.930 . S
C1017 C1016 1.377 . S
C1017 C1018 1.379 . S
C1018 H1002 0.931 . S
C1018 C1012 1.383 . S
C1018 C1017 1.379 . S
H1019 C1013 0.959 . S
H1020 C1013 0.961 . S
H1021 C1013 0.960 . S
H1022 C1014 0.930 . S
H1023 C1015 0.929 . S
H1024 C1032 0.929 . S
H1025 C1034 0.930 . S
H1026 C1036 0.930 . S
H1027 C1039 0.929 . S
H1028 C1042 0.930 . S
H1029 C1044 0.960 . S
H1030 C1044 0.960 . S
H1031 C1044 0.960 . S
C1032 H1024 0.929 . S
C1032 C1033 1.377 . S
C1032 C1034 1.384 . S
C1033 C1032 1.377 . S
C1033 C1039 1.390 . S
C1034 H1025 0.930 . S
C1034 C1032 1.384 . S
C1034 C1035 1.372 . S
C1035 C1034 1.372 . S
C1035 C1036 1.400 . S
C1035 C1040 1.490 . S
C1036 H1026 0.930 . S
C1036 C1035 1.400 . S
C1036 C1039 1.386 . S
H1037 C1053 0.930 . S
H1038 C1054 0.931 . S
C1039 H1027 0.929 . S
C1039 C1033 1.390 . S
C1039 C1036 1.386 . S
C1040 C1035 1.490 . S
C1040 C1042 1.395 . S
C1040 C1043 1.403 . S
H1041 C1047 0.930 . S
C1042 H1028 0.930 . S
C1042 C1040 1.395 . S
C1042 C1045 1.403 . S
C1043 C1040 1.403 . S
C1043 C1044 1.524 . S
C1043 C1047 1.400 . S
C1044 H1029 0.960 . S
C1044 H1030 0.960 . S
C1044 H1031 0.960 . S
C1044 C1043 1.524 . S
C1045 C1042 1.403 . S
C1045 C1046 1.392 . S
C1045 C1049 1.495 . S
C1046 C1045 1.392 . S
C1046 C1047 1.385 . S
C1046 C1048 1.478 . S
C1047 H1041 0.930 . S
C1047 C1043 1.400 . S
C1047 C1046 1.385 . S
C1048 C1046 1.478 . S
C1048 C1050 1.381 . S
C1048 C1054 1.383 . S
C1049 C1045 1.495 . S
C1049 H1055 0.959 . S
C1049 H1056 0.961 . S
C1049 H1057 0.960 . S
C1050 C1048 1.381 . S
C1050 C1051 1.394 . S
C1050 H1058 0.930 . S
C1051 C1050 1.394 . S
C1051 C1052 1.383 . S
C1051 H1059 0.929 . S
C1052 C1051 1.383 . S
C1052 C1053 1.377 . S
C1053 H1037 0.930 . S
C1053 C1052 1.377 . S
C1053 C1054 1.379 . S
C1054 H1038 0.931 . S
C1054 C1048 1.383 . S
C1054 C1053 1.379 . S
H1055 C1049 0.959 . S
H1056 C1049 0.961 . S
H1057 C1049 0.960 . S
H1058 C1050 0.930 . S
H1059 C1051 0.929 . S
H1060 C1068 0.929 . S
H1061 C1070 0.930 . S
H1062 C1072 0.930 . S
H1063 C1075 0.929 . S
H1064 C1078 0.930 . S
H1065 C1080 0.960 . S
H1066 C1080 0.960 . S
H1067 C1080 0.960 . S
C1068 H1060 0.929 . S
C1068 C1069 1.377 . S
C1068 C1070 1.384 . S
C1069 C1068 1.377 . S
C1069 C1075 1.390 . S
C1070 H1061 0.930 . S
C1070 C1068 1.384 . S
C1070 C1071 1.372 . S
C1071 C1070 1.372 . S
C1071 C1072 1.400 . S
C1071 C1076 1.490 . S
C1072 H1062 0.930 . S
C1072 C1071 1.400 . S
C1072 C1075 1.386 . S
H1073 C1089 0.930 . S
H1074 C1090 0.931 . S
C1075 H1063 0.929 . S
C1075 C1069 1.390 . S
C1075 C1072 1.386 . S
C1076 C1071 1.490 . S
C1076 C1078 1.395 . S
C1076 C1079 1.403 . S
H1077 C1083 0.930 . S
C1078 H1064 0.930 . S
C1078 C1076 1.395 . S
C1078 C1081 1.403 . S
C1079 C1076 1.403 . S
C1079 C1080 1.524 . S
C1079 C1083 1.400 . S
C1080 H1065 0.960 . S
C1080 H1066 0.960 . S
C1080 H1067 0.960 . S
C1080 C1079 1.524 . S
C1081 C1078 1.403 . S
C1081 C1082 1.392 . S
C1081 C1085 1.495 . S
C1082 C1081 1.392 . S
C1082 C1083 1.385 . S
C1082 C1084 1.478 . S
C1083 H1077 0.930 . S
C1083 C1079 1.400 . S
C1083 C1082 1.385 . S
C1084 C1082 1.478 . S
C1084 C1086 1.381 . S
C1084 C1090 1.383 . S
C1085 C1081 1.495 . S
C1085 H1091 0.959 . S
C1085 H1092 0.961 . S
C1085 H1093 0.960 . S
C1086 C1084 1.381 . S
C1086 C1087 1.394 . S
C1086 H1094 0.930 . S
C1087 C1086 1.394 . S
C1087 C1088 1.383 . S
C1087 H1095 0.929 . S
C1088 C1087 1.383 . S
C1088 C1089 1.377 . S
C1089 H1073 0.930 . S
C1089 C1088 1.377 . S
C1089 C1090 1.379 . S
C1090 H1074 0.931 . S
C1090 C1084 1.383 . S
C1090 C1089 1.379 . S
H1091 C1085 0.959 . S
H1092 C1085 0.961 . S
H1093 C1085 0.960 . S
H1094 C1086 0.930 . S
H1095 C1087 0.929 . S
H1096 C1104 0.929 . S
H1097 C1106 0.930 . S
H1098 C1108 0.930 . S
H1099 C1111 0.929 . S
H1100 C1114 0.930 . S
H1101 C1116 0.960 . S
H1102 C1116 0.960 . S
H1103 C1116 0.960 . S
C1104 H1096 0.929 . S
C1104 C1105 1.377 . S
C1104 C1106 1.384 . S
C1105 C1104 1.377 . S
C1105 C1111 1.390 . S
C1106 H1097 0.930 . S
C1106 C1104 1.384 . S
C1106 C1107 1.372 . S
C1107 C1106 1.372 . S
C1107 C1108 1.400 . S
C1107 C1112 1.490 . S
C1108 H1098 0.930 . S
C1108 C1107 1.400 . S
C1108 C1111 1.386 . S
H1109 C1125 0.930 . S
H1110 C1126 0.931 . S
C1111 H1099 0.929 . S
C1111 C1105 1.390 . S
C1111 C1108 1.386 . S
C1112 C1107 1.490 . S
C1112 C1114 1.395 . S
C1112 C1115 1.403 . S
H1113 C1119 0.930 . S
C1114 H1100 0.930 . S
C1114 C1112 1.395 . S
C1114 C1117 1.403 . S
C1115 C1112 1.403 . S
C1115 C1116 1.524 . S
C1115 C1119 1.400 . S
C1116 H1101 0.960 . S
C1116 H1102 0.960 . S
C1116 H1103 0.960 . S
C1116 C1115 1.524 . S
C1117 C1114 1.403 . S
C1117 C1118 1.392 . S
C1117 C1121 1.495 . S
C1118 C1117 1.392 . S
C1118 C1119 1.385 . S
C1118 C1120 1.478 . S
C1119 H1113 0.930 . S
C1119 C1115 1.400 . S
C1119 C1118 1.385 . S
C1120 C1118 1.478 . S
C1120 C1122 1.381 . S
C1120 C1126 1.383 . S
C1121 C1117 1.495 . S
C1121 H1127 0.959 . S
C1121 H1128 0.961 . S
C1121 H1129 0.960 . S
C1122 C1120 1.381 . S
C1122 C1123 1.394 . S
C1122 H1130 0.930 . S
C1123 C1122 1.394 . S
C1123 C1124 1.383 . S
C1123 H1131 0.929 . S
C1124 C1123 1.383 . S
C1124 C1125 1.377 . S
C1125 H1109 0.930 . S
C1125 C1124 1.377 . S
C1125 C1126 1.379 . S
C1126 H1110 0.931 . S
C1126 C1120 1.383 . S
C1126 C1125 1.379 . S
H1127 C1121 0.959 . S
H1128 C1121 0.961 . S
H1129 C1121 0.960 . S
H1130 C1122 0.930 . S
H1131 C1123 0.929 . S
H1132 C1140 0.929 . S
H1133 C1142 0.930 . S
H1134 C1144 0.948 . S
H1135 C1147 0.929 . S
H1136 C1150 0.930 . S
H1137 C1152 0.960 . S
H1138 C1152 0.960 . S
H1139 C1152 0.960 . S
C1140 H1132 0.929 . S
C1140 C1141 1.377 . S
C1140 C1142 1.384 . S
C1141 C1140 1.377 . S
C1141 C1147 1.390 . S
C1142 H1133 0.930 . S
C1142 C1140 1.384 . S
C1142 C1143 1.372 . S
C1143 C1142 1.372 . S
C1143 C1144 1.391 1_554 S
C1143 C1148 1.490 1_554 S
C1144 H1134 0.948 . S
C1144 C1143 1.391 1_556 S
C1144 C1147 1.377 1_556 S
H1145 C1161 0.930 . S
H1146 C1162 0.931 . S
C1147 H1135 0.929 . S
C1147 C1141 1.390 . S
C1147 C1144 1.377 1_554 S
C1148 C1143 1.490 1_556 S
C1148 C1150 1.395 1_556 S
C1148 C1151 1.403 . S
H1149 C1155 0.930 . S
C1150 H1136 0.930 . S
C1150 C1148 1.395 1_554 S
C1150 C1153 1.403 1_554 S
C1151 C1148 1.403 . S
C1151 C1152 1.524 . S
C1151 C1155 1.400 . S
C1152 H1137 0.960 . S
C1152 H1138 0.960 . S
C1152 H1139 0.960 . S
C1152 C1151 1.524 . S
C1153 C1150 1.403 1_556 S
C1153 C1154 1.392 . S
C1153 C1157 1.495 1_556 S
C1154 C1153 1.392 . S
C1154 C1155 1.385 . S
C1154 C1156 1.478 . S
C1155 H1149 0.930 . S
C1155 C1151 1.400 . S
C1155 C1154 1.385 . S
C1156 C1154 1.478 . S
C1156 C1158 1.381 . S
C1156 C1162 1.383 . S
C1157 C1153 1.495 1_554 S
C1157 H1163 0.959 . S
C1157 H1164 0.961 . S
C1157 H1165 0.960 . S
C1158 C1156 1.381 . S
C1158 C1159 1.394 . S
C1158 H1166 0.930 . S
C1159 C1158 1.394 . S
C1159 C1160 1.383 . S
C1159 H1167 0.929 . S
C1160 C1159 1.383 . S
C1160 C1161 1.377 . S
C1161 H1145 0.930 . S
C1161 C1160 1.377 . S
C1161 C1162 1.379 . S
C1162 H1146 0.931 . S
C1162 C1156 1.383 . S
C1162 C1161 1.379 . S
H1163 C1157 0.959 . S
H1164 C1157 0.961 . S
H1165 C1157 0.960 . S
H1166 C1158 0.930 . S
H1167 C1159 0.929 . S
H1168 C1176 0.929 . S
H1169 C1178 0.930 . S
H1170 C1180 0.930 . S
H1171 C1183 0.929 . S
H1172 C1186 0.930 . S
H1173 C1188 0.960 . S
H1174 C1188 0.960 . S
H1175 C1188 0.960 . S
C1176 H1168 0.929 . S
C1176 C1177 1.377 . S
C1176 C1178 1.384 . S
C1177 C1176 1.377 . S
C1177 C1183 1.390 . S
C1178 H1169 0.930 . S
C1178 C1176 1.384 . S
C1178 C1179 1.372 . S
C1179 C1178 1.372 . S
C1179 C1180 1.400 . S
C1179 C1184 1.490 . S
C1180 H1170 0.930 . S
C1180 C1179 1.400 . S
C1180 C1183 1.386 . S
H1181 C1197 0.930 . S
H1182 C1198 0.931 . S
C1183 H1171 0.929 . S
C1183 C1177 1.390 . S
C1183 C1180 1.386 . S
C1184 C1179 1.490 . S
C1184 C1186 1.395 . S
C1184 C1187 1.403 . S
H1185 C1191 0.930 . S
C1186 H1172 0.930 . S
C1186 C1184 1.395 . S
C1186 C1189 1.403 . S
C1187 C1184 1.403 . S
C1187 C1188 1.524 . S
C1187 C1191 1.400 . S
C1188 H1173 0.960 . S
C1188 H1174 0.960 . S
C1188 H1175 0.960 . S
C1188 C1187 1.524 . S
C1189 C1186 1.403 . S
C1189 C1190 1.392 . S
C1189 C1193 1.495 . S
C1190 C1189 1.392 . S
C1190 C1191 1.385 . S
C1190 C1192 1.478 . S
C1191 H1185 0.930 . S
C1191 C1187 1.400 . S
C1191 C1190 1.385 . S
C1192 C1190 1.478 . S
C1192 C1194 1.381 . S
C1192 C1198 1.383 . S
C1193 C1189 1.495 . S
C1193 H1199 0.959 . S
C1193 H1200 0.961 . S
C1193 H1201 0.960 . S
C1194 C1192 1.381 . S
C1194 C1195 1.394 . S
C1194 H1202 0.930 . S
C1195 C1194 1.394 . S
C1195 C1196 1.383 . S
C1195 H1203 0.929 . S
C1196 C1195 1.383 . S
C1196 C1197 1.377 . S
C1197 H1181 0.930 . S
C1197 C1196 1.377 . S
C1197 C1198 1.379 . S
C1198 H1182 0.931 . S
C1198 C1192 1.383 . S
C1198 C1197 1.379 . S
H1199 C1193 0.959 . S
H1200 C1193 0.961 . S
H1201 C1193 0.960 . S
H1202 C1194 0.930 . S
H1203 C1195 0.929 . S
H1204 C1212 0.929 . S
H1205 C1214 0.930 . S
H1206 C1216 0.930 . S
H1207 C1219 0.929 . S
H1208 C1222 0.930 . S
H1209 C1224 0.960 . S
H1210 C1224 0.960 . S
H1211 C1224 0.960 . S
C1212 H1204 0.929 . S
C1212 C1213 1.377 . S
C1212 C1214 1.384 . S
C1213 C1212 1.377 . S
C1213 C1219 1.390 . S
C1214 H1205 0.930 . S
C1214 C1212 1.384 . S
C1214 C1215 1.372 . S
C1215 C1214 1.372 . S
C1215 C1216 1.400 . S
C1215 C1220 1.490 . S
C1216 H1206 0.930 . S
C1216 C1215 1.400 . S
C1216 C1219 1.386 . S
H1217 C1233 0.930 . S
H1218 C1234 0.931 . S
C1219 H1207 0.929 . S
C1219 C1213 1.390 . S
C1219 C1216 1.386 . S
C1220 C1215 1.490 . S
C1220 C1222 1.395 . S
C1220 C1223 1.403 . S
H1221 C1227 0.930 . S
C1222 H1208 0.930 . S
C1222 C1220 1.395 . S
C1222 C1225 1.403 . S
C1223 C1220 1.403 . S
C1223 C1224 1.524 . S
C1223 C1227 1.400 . S
C1224 H1209 0.960 . S
C1224 H1210 0.960 . S
C1224 H1211 0.960 . S
C1224 C1223 1.524 . S
C1225 C1222 1.403 . S
C1225 C1226 1.392 . S
C1225 C1229 1.495 . S
C1226 C1225 1.392 . S
C1226 C1227 1.385 . S
C1226 C1228 1.478 . S
C1227 H1221 0.930 . S
C1227 C1223 1.400 . S
C1227 C1226 1.385 . S
C1228 C1226 1.478 . S
C1228 C1230 1.381 . S
C1228 C1234 1.383 . S
C1229 C1225 1.495 . S
C1229 H1235 0.959 . S
C1229 H1236 0.961 . S
C1229 H1237 0.960 . S
C1230 C1228 1.381 . S
C1230 C1231 1.394 . S
C1230 H1238 0.930 . S
C1231 C1230 1.394 . S
C1231 C1232 1.383 . S
C1231 H1239 0.929 . S
C1232 C1231 1.383 . S
C1232 C1233 1.377 . S
C1233 H1217 0.930 . S
C1233 C1232 1.377 . S
C1233 C1234 1.379 . S
C1234 H1218 0.931 . S
C1234 C1228 1.383 . S
C1234 C1233 1.379 . S
H1235 C1229 0.959 . S
H1236 C1229 0.961 . S
H1237 C1229 0.960 . S
H1238 C1230 0.930 . S
H1239 C1231 0.929 . S
C385 C8 1.326 . S
C404 C119 1.276 . S
C421 C31 1.672 . S
C440 C155 1.622 . S
C457 C53 1.352 . S
C476 C191 1.360 . S
C512 C221 1.424 . S
C493 C74 1.471 . S
C548 C263 1.363 . S
C529 C26 1.370 . S
C565 C48 1.652 . S
C584 C293 1.600 . S
C601 C71 1.320 . S
C620 C329 1.172 . S
C637 C5 1.494 . S
C656 C371 1.395 . S
C673 C50 1.311 1_556 S
C692 C341 1.272 . S
C728 C233 1.593 . S
C709 C70 1.651 . S
C764 C299 1.375 . S
C745 C4 1.337 1_556 S
C781 C28 1.504 . S
C800 C335 1.414 . S
C836 C125 1.351 . S
C817 C73 1.358 . S
C853 C7 1.661 . S
C872 C185 1.496 . S
C908 C227 1.225 . S
C889 C30 1.339 . S
C944 C89 1.391 . S
C925 C52 1.471 . S
C980 C305 1.240 . S
C961 C9 1.292 . S
C1016 C365 1.287 . S
C997 C29 1.290 . S
C1033 C51 1.444 . S
C1052 C257 1.431 . S
C1088 C269 1.411 . S
C1069 C75 1.423 . S
C1124 C161 1.351 . S
C1105 C27 1.432 . S
C1141 C49 1.293 . S
C1160 C197 1.292 . S
C1196 C113 1.241 . S
C1177 C72 1.278 . S
C1232 C149 1.435 . S
C1213 C6 1.451 . S
