# Generated by pormake.
# Topology anh, (6,3)-cn, num edge types: 1
# Building blocks:
#     Node 0, Type 0, BuildingBlock: GEDQOX_clean_sbu_0, # of connection points: 6
#     Node 1, Type 0, BuildingBlock: GEDQOX_clean_sbu_0, # of connection points: 6
#     Node 2, Type 0, BuildingBlock: GEDQOX_clean_sbu_0, # of connection points: 6
#     Node 3, Type 1, BuildingBlock: QEWDON_clean_linker_0, # of connection points: 3
#     Node 4, Type 1, BuildingBlock: QEWDON_clean_linker_0, # of connection points: 3
#     Node 5, Type 1, BuildingBlock: QEWDON_clean_linker_0, # of connection points: 3
#     Node 6, Type 1, BuildingBlock: QEWDON_clean_linker_0, # of connection points: 3
#     Node 7, Type 1, BuildingBlock: QEWDON_clean_linker_0, # of connection points: 3
#     Node 8, Type 1, BuildingBlock: QEWDON_clean_linker_0, # of connection points: 3
#     Edge 9, Type (0, 1), BuildingBlock: EZIPEK_clean_linker_0, # of connection points: 2
#     Edge 10, Type (0, 1), BuildingBlock: EZIPEK_clean_linker_0, # of connection points: 2
#     Edge 11, Type (0, 1), BuildingBlock: EZIPEK_clean_linker_0, # of connection points: 2
#     Edge 12, Type (0, 1), BuildingBlock: EZIPEK_clean_linker_0, # of connection points: 2
#     Edge 13, Type (0, 1), BuildingBlock: EZIPEK_clean_linker_0, # of connection points: 2
#     Edge 14, Type (0, 1), BuildingBlock: EZIPEK_clean_linker_0, # of connection points: 2
#     Edge 15, Type (0, 1), BuildingBlock: EZIPEK_clean_linker_0, # of connection points: 2
#     Edge 16, Type (0, 1), BuildingBlock: EZIPEK_clean_linker_0, # of connection points: 2
#     Edge 17, Type (0, 1), BuildingBlock: EZIPEK_clean_linker_0, # of connection points: 2
#     Edge 18, Type (0, 1), BuildingBlock: EZIPEK_clean_linker_0, # of connection points: 2
#     Edge 19, Type (0, 1), BuildingBlock: EZIPEK_clean_linker_0, # of connection points: 2
#     Edge 20, Type (0, 1), BuildingBlock: EZIPEK_clean_linker_0, # of connection points: 2
#     Edge 21, Type (0, 1), BuildingBlock: EZIPEK_clean_linker_0, # of connection points: 2
#     Edge 22, Type (0, 1), BuildingBlock: EZIPEK_clean_linker_0, # of connection points: 2
#     Edge 23, Type (0, 1), BuildingBlock: EZIPEK_clean_linker_0, # of connection points: 2
#     Edge 24, Type (0, 1), BuildingBlock: EZIPEK_clean_linker_0, # of connection points: 2
#     Edge 25, Type (0, 1), BuildingBlock: EZIPEK_clean_linker_0, # of connection points: 2
#     Edge 26, Type (0, 1), BuildingBlock: EZIPEK_clean_linker_0, # of connection points: 2
# Relax obj value: 0.184
# Max RMSD: 0.199
# Mean RMSD: 0.126
data_MOF--net-anh--node1-GEDQOX_clean_sbu_0--node2-QEWDON_clean_linker_0--edge1-EZIPEK_clean_linker_0
_symmetry_space_group_name_H-M    P1
_symmetry_Int_Tables_number       1
_symmetry_cell_setting            triclinic
loop_
_symmetry_equiv_pos_as_xyz
'x, y, z'
_cell_length_a     24.050243
_cell_length_b     23.238312
_cell_length_c     35.882864
_cell_angle_alpha  97.131499
_cell_angle_beta   94.486087
_cell_angle_gamma 98.12546
loop_
_atom_site_label
_atom_site_type_symbol
_atom_site_fract_x
_atom_site_fract_y
_atom_site_fract_z
_atom_type_partial_charge
Nd0 Nd 0.16354 0.63771 0.13208 0.0
Nd1 Nd 0.14245 0.50912 0.14243 0.0
C2 C 0.20145 0.74161 0.11386 0.0
C3 C 0.25622 0.77857 0.12519 0.0
C4 C 0.27831 0.81969 0.10267 0.0
C5 C 0.32982 0.85585 0.11464 0.0
C6 C 0.35907 0.85135 0.14936 0.0
C7 C 0.33767 0.80914 0.17129 0.0
C8 C 0.28679 0.7727 0.15917 0.0
C9 C 0.14844 0.61798 0.20482 0.0
C10 C 0.27697 0.57013 0.14092 0.0
C11 C 0.12635 0.40707 0.16759 0.0
C12 C 1.07475 0.36456 0.16545 0.0
C13 C 1.0254 0.37555 0.14583 0.0
C14 C 0.97397 0.34067 0.14787 0.0
C15 C 0.9713 0.29422 0.16939 0.0
C16 C 1.02089 0.28158 0.18786 0.0
C17 C 1.07255 0.31695 0.18604 0.0
C18 C 0.12167 0.52886 0.06933 0.0
C19 C 1.03021 0.57762 0.12917 0.0
O20 O 0.20233 0.69283 0.09164 0.0
O21 O 0.16972 0.73423 0.14128 0.0
O22 O 0.13151 0.66113 0.18987 0.0
O23 O 0.17592 0.59001 0.18236 0.0
O24 O 0.25712 0.62039 0.13906 0.0
O25 O 0.24142 0.52101 0.1423 0.0
O26 O 0.12449 0.45697 0.18863 0.0
O27 O 0.14712 0.41385 0.13541 0.0
O28 O 1.09319 0.48655 0.08347 0.0
O29 O 0.16179 0.55502 0.09262 0.0
O30 O 1.05116 0.53462 0.14424 0.0
O31 O 1.06603 0.61893 0.11736 0.0
H32 H 0.25545 0.82431 0.07625 0.0
H33 H 0.3461 0.88837 0.09748 0.0
H34 H 0.35997 0.80507 0.19804 0.0
H35 H 0.27073 0.74063 0.17672 0.0
H36 H 1.02634 0.41247 0.13007 0.0
H37 H 0.93596 0.35094 0.13358 0.0
H38 H 1.01918 0.24585 0.20466 0.0
H39 H 1.11025 0.30838 0.20162 0.0
Nd40 Nd 0.58416 0.03964 0.50188 0.0
Nd41 Nd 0.70922 0.05628 0.49809 0.0
C42 C 0.47904 1.01076 0.51764 0.0
C43 C 0.43658 0.9581 0.50949 0.0
C44 C 0.44568 0.91045 0.48382 0.0
C45 C 0.40293 0.86267 0.47325 0.0
C46 C 0.35087 0.86205 0.48839 0.0
C47 C 0.34264 0.90857 0.51527 0.0
C48 C 0.38536 0.95655 0.5257 0.0
C49 C 0.616 0.05183 0.43097 0.0
C50 C 0.64874 0.92196 0.49238 0.0
C51 C 0.81182 0.09142 0.48022 0.0
C52 C 0.84406 0.14989 0.48011 0.0
C53 C 0.88213 0.15884 0.45296 0.0
C54 C 0.90759 0.21561 0.44954 0.0
C55 C 0.89506 0.26381 0.47324 0.0
C56 C 0.85799 0.25481 0.50093 0.0
C57 C 0.83252 0.19817 0.50432 0.0
C58 C 0.67841 0.0495 0.56964 0.0
C59 C 0.64391 0.17403 0.5087 0.0
O60 O 0.52297 1.00746 0.54061 0.0
O61 O 0.49241 0.03603 0.48837 0.0
O62 O 0.57189 0.06999 0.44402 0.0
O63 O 0.63762 0.02204 0.45377 0.0
O64 O 0.60322 0.94449 0.50126 0.0
O65 O 0.6952 0.95547 0.486 0.0
O66 O 0.76763 0.07818 0.45545 0.0
O67 O 0.80171 0.07631 0.51325 0.0
O68 O 0.71951 0.02556 0.55602 0.0
O69 O 0.65623 0.07778 0.54601 0.0
O70 O 0.69015 0.15216 0.50069 0.0
O71 O 0.59806 0.13928 0.51448 0.0
H72 H 0.48516 0.9111 0.47113 0.0
H73 H 0.40975 0.82704 0.45244 0.0
H74 H 0.30256 0.90856 0.52711 0.0
H75 H 0.37789 0.99307 0.54557 0.0
H76 H 0.89084 0.12214 0.43375 0.0
H77 H 0.93599 0.22215 0.42794 0.0
H78 H 0.84772 0.29176 0.51922 0.0
H79 H 0.80267 0.19227 0.52513 0.0
Nd80 Nd 0.59843 0.55602 0.81727 0.0
Nd81 Nd 0.7182 0.56771 0.81695 0.0
C82 C 0.48718 0.53825 0.80474 0.0
C83 C 0.44673 0.57592 0.79327 0.0
C84 C 0.39147 0.56572 0.80325 0.0
C85 C 0.35508 0.60633 0.79794 0.0
C86 C 0.37354 0.65761 0.78261 0.0
C87 C 0.42791 0.66654 0.77082 0.0
C88 C 0.46456 0.62606 0.77645 0.0
C89 C 0.65307 0.58085 0.8895 0.0
C90 C 0.6606 0.68608 0.82015 0.0
C91 C 0.82846 0.58619 0.81618 0.0
C92 C 0.86403 0.54943 0.79564 0.0
C93 C 0.84266 0.49085 0.7811 0.0
C94 C 0.87781 0.45402 0.76472 0.0
C95 C 0.93528 0.47489 0.7632 0.0
C96 C 0.95418 0.53573 0.77343 0.0
C97 C 0.91903 0.57244 0.78992 0.0
C98 C 0.66289 0.53153 0.74589 0.0
C99 C 0.65619 0.43514 0.81492 0.0
O100 O 0.52007 0.52136 0.77959 0.0
O101 O 0.51417 0.55539 0.8381 0.0
O102 O 0.61155 0.60588 0.87763 0.0
O103 O 0.6655 0.54466 0.86346 0.0
O104 O 0.61469 0.65089 0.80504 0.0
O105 O 0.70419 0.66384 0.8338 0.0
O106 O 0.80371 0.56379 0.84351 0.0
O107 O 0.79465 0.61026 0.79478 0.0
O108 O 0.70416 0.50987 0.76091 0.0
O109 O 0.65127 0.57266 0.7692 0.0
O110 O 0.70548 0.46938 0.82163 0.0
O111 O 0.6091 0.45787 0.81082 0.0
H112 H 0.37725 0.52761 0.81656 0.0
H113 H 0.3131 0.5989 0.80713 0.0
H114 H 0.44269 0.70595 0.75899 0.0
H115 H 0.50737 0.6351 0.76905 0.0
H116 H 0.79953 0.47269 0.78409 0.0
H117 H 0.86107 0.40818 0.75616 0.0
H118 H 0.99757 0.55438 0.77194 0.0
H119 H 0.93563 0.61808 0.79977 0.0
H120 H 0.6794 0.12992 0.2652 0.0
C121 C 0.64686 0.09537 0.25101 0.0
C122 C 0.61861 0.05535 0.27209 0.0
C123 C 0.63052 0.09294 0.21223 0.0
H124 H 0.55211 0.98211 0.27063 0.0
C125 C 0.57509 1.01194 0.25423 0.0
C126 C 0.55863 1.00941 0.21573 0.0
C127 C 0.58654 0.04939 0.19481 0.0
C128 C 0.6566 0.13762 0.19016 0.0
H129 H 0.57302 0.04713 0.16505 0.0
C130 C 0.7154 0.15477 0.19357 0.0
C131 C 0.73958 0.196 0.17176 0.0
C132 C 0.62248 0.16298 0.16507 0.0
H133 H 0.57697 0.15139 0.16232 0.0
C134 C 0.64668 0.20408 0.1435 0.0
H135 H 0.74243 0.13562 0.21261 0.0
C136 C 0.70505 0.22048 0.14671 0.0
H137 H 0.72337 0.25249 0.12985 0.0
H138 H 0.62009 0.22333 0.12431 0.0
H139 H 0.63066 0.5899 0.56805 0.0
C140 C 0.63196 0.5446 0.55704 0.0
C141 C 0.63925 0.50462 0.58259 0.0
C142 C 0.62258 0.52541 0.51785 0.0
H143 H 0.64579 0.41483 0.58861 0.0
C144 C 0.64011 0.44573 0.56881 0.0
C145 C 0.63294 0.42535 0.5302 0.0
C146 C 0.62367 0.46529 0.50465 0.0
C147 C 0.60627 0.56692 0.49154 0.0
H148 H 0.61688 0.4493 0.47475 0.0
C149 C 0.62807 0.62772 0.49815 0.0
C150 C 0.60692 0.66717 0.47569 0.0
C151 C 0.56472 0.54649 0.46111 0.0
H152 H 0.5459 0.50076 0.45549 0.0
C153 C 0.54488 0.58518 0.43835 0.0
H154 H 0.66056 0.64477 0.52103 0.0
C155 C 0.56532 0.64503 0.44574 0.0
H156 H 0.54839 0.67435 0.42813 0.0
H157 H 0.51255 0.56879 0.41529 0.0
H158 H 0.13191 0.66158 0.92431 0.0
C159 C 0.12086 0.62322 0.90315 0.0
C160 C 0.11761 0.56684 0.91368 0.0
C161 C 1.11103 0.6296 0.86509 0.0
H162 H 1.10743 0.47407 0.89451 0.0
C163 C 1.10655 0.51721 0.88617 0.0
C164 C 1.08888 0.52299 0.84892 0.0
C165 C 1.09329 0.57979 0.83844 0.0
C166 C 0.12558 0.68681 0.85196 0.0
H167 H 1.08321 0.58576 0.80936 0.0
C168 C 0.17331 0.69534 0.83237 0.0
C169 C 0.18844 0.74791 0.8179 0.0
C170 C 1.09241 0.73158 0.85733 0.0
H171 H 1.05514 0.72551 0.87237 0.0
C172 C 1.10693 0.78415 0.84247 0.0
H173 H 0.19917 0.66074 0.82847 0.0
C174 C 0.15475 0.79235 0.82259 0.0
H175 H 0.16569 0.8331 0.81128 0.0
H176 H 1.08105 0.81852 0.84631 0.0
H177 H 1.05333 0.55857 0.36823 0.0
C178 C 1.08744 0.59019 0.3836 0.0
C179 C 0.13031 0.61669 0.36398 0.0
C180 C 1.08642 0.60812 0.42245 0.0
H181 H 0.20632 0.67976 0.36869 0.0
C182 C 0.17359 0.65858 0.38375 0.0
C183 C 0.17353 0.67547 0.42251 0.0
C184 C 0.12993 0.6505 0.44177 0.0
C185 C 1.03801 0.58638 0.44251 0.0
H186 H 0.12935 0.66502 0.47163 0.0
C187 C 1.02037 0.52594 0.44161 0.0
C188 C 0.97544 0.50608 0.46182 0.0
C189 C 1.00974 0.62656 0.46334 0.0
H190 H 1.02243 0.67338 0.46423 0.0
C191 C 0.96454 0.60668 0.48294 0.0
H192 H 1.04216 0.49449 0.42598 0.0
C193 C 0.94742 0.54663 0.48227 0.0
H194 H 0.91265 0.53171 0.4979 0.0
H195 H 0.94292 0.63789 0.49882 0.0
H196 H 0.68819 0.02529 0.74582 0.0
C197 C 0.68019 0.06867 0.75656 0.0
C198 C 0.67548 0.1094 0.73111 0.0
C199 C 0.67579 0.08419 0.79536 0.0
H200 H 0.66714 0.19862 0.72476 0.0
C201 C 0.66904 0.16701 0.7445 0.0
C202 C 0.6644 0.18417 0.78286 0.0
C203 C 0.66595 0.14201 0.80792 0.0
C204 C 0.68465 0.04143 0.8228 0.0
H205 H 0.66036 0.155 0.83725 0.0
C206 C 0.67163 0.97961 0.81221 0.0
C207 C 0.68342 0.94068 0.83809 0.0
C208 C 0.70923 0.06255 0.85983 0.0
H209 H 0.72187 0.10902 0.86901 0.0
C210 C 0.71969 0.02402 0.8855 0.0
H211 H 0.65244 0.9614 0.78417 0.0
C212 C 0.70698 0.96359 0.87477 0.0
H213 H 0.71625 0.93449 0.89501 0.0
H214 H 0.73864 0.04116 0.91378 0.0
H215 H 0.62157 0.56658 0.06122 0.0
C216 C 0.6645 0.57006 0.07368 0.0
C217 C 0.70767 0.57263 0.04941 0.0
C218 C 0.67624 0.57108 0.11292 0.0
H219 H 0.79619 0.575 0.04411 0.0
C220 C 0.76391 0.57416 0.06361 0.0
C221 C 0.77944 0.57587 0.10235 0.0
C222 C 0.73513 0.57532 0.12696 0.0
C223 C 0.62699 0.56539 0.1382 0.0
H224 H 0.74736 0.57882 0.15685 0.0
C225 C 0.56971 0.57432 0.12717 0.0
C226 C 0.52528 0.56557 0.15152 0.0
C227 C 0.63672 0.54762 0.17399 0.0
H228 H 0.67738 0.53774 0.1839 0.0
C229 C 0.59389 0.54024 0.19783 0.0
H230 H 0.5591 0.58813 0.1002 0.0
C231 C 0.53924 0.54905 0.18687 0.0
H232 H 0.50715 0.54206 0.20611 0.0
H233 H 0.60307 0.52659 0.22514 0.0
C234 C 0.38061 0.61567 0.1638 0.0
C235 C 0.34138 0.56974 0.14157 0.0
C236 C 0.42439 0.52354 0.12196 0.0
C237 C 0.46305 0.57148 0.14203 0.0
N238 N 0.47654 0.66909 0.17564 0.0
N239 N 0.32954 0.48563 0.09307 0.0
C240 C 0.44044 0.61941 0.1607 0.0
C241 C 0.36443 0.5253 0.1189 0.0
N242 N 0.36138 0.65374 0.19017 0.0
N243 N 0.44475 0.47479 0.10675 0.0
H244 H 0.28615 0.48452 0.08969 0.0
H245 H 0.3441 0.45712 0.07263 0.0
H246 H 0.48781 0.47273 0.10685 0.0
H247 H 0.41906 0.43525 0.09628 0.0
H248 H 0.38791 0.68448 0.20967 0.0
H249 H 0.31926 0.65036 0.19568 0.0
H250 H 0.46303 0.70803 0.18619 0.0
H251 H 0.52001 0.67301 0.17388 0.0
C252 C 0.88923 0.35378 0.44223 0.0
C253 C 0.91854 0.32433 0.46803 0.0
C254 C 0.98616 0.41372 0.4892 0.0
C255 C 0.95805 0.44254 0.46243 0.0
N256 N 0.88952 0.43877 0.40915 0.0
N257 N 0.99935 0.32171 0.51156 0.0
C258 C 0.91155 0.41211 0.43759 0.0
C259 C 0.9685 0.35296 0.49013 0.0
N260 N 0.83913 0.32654 0.42308 0.0
N261 N 1.0284 0.44502 0.51457 0.0
H262 H 0.98695 0.27737 0.51341 0.0
H263 H 1.03922 0.33824 0.52523 0.0
H264 H 1.04347 0.48926 0.51412 0.0
H265 H 1.04616 0.42844 0.53758 0.0
H266 H 0.81219 0.34788 0.40745 0.0
H267 H 0.82239 0.28311 0.42475 0.0
H268 H 0.85954 0.4171 0.38764 0.0
H269 H 0.90447 0.48179 0.40527 0.0
C270 C 0.7078 0.78371 0.80536 0.0
C271 C 0.66348 0.75111 0.82149 0.0
C272 C 0.62444 0.84228 0.83864 0.0
C273 C 0.67301 0.8754 0.82752 0.0
N274 N 0.76356 0.8785 0.80285 0.0
N275 N 0.5823 0.75039 0.8572 0.0
C276 C 0.71529 0.8463 0.81137 0.0
C277 C 0.62206 0.78057 0.83875 0.0
N278 N 0.74138 0.75486 0.78296 0.0
N279 N 0.5804 0.86997 0.84895 0.0
H280 H 0.57962 0.70567 0.85882 0.0
H281 H 0.55492 0.77047 0.87377 0.0
H282 H 0.5812 0.91508 0.84943 0.0
H283 H 0.54134 0.84781 0.85358 0.0
H284 H 0.77065 0.77598 0.76731 0.0
H285 H 0.7362 0.70923 0.77694 0.0
H286 H 0.79895 0.86018 0.79552 0.0
H287 H 0.76965 0.92422 0.80541 0.0
C288 C 0.92594 0.54309 0.1441 0.0
C289 C 0.9652 0.57935 0.12506 0.0
C290 C 0.88218 0.62464 0.10344 0.0
C291 C 0.84293 0.58042 0.11521 0.0
N292 N 0.83081 0.48953 0.14155 0.0
N293 N 0.97007 0.64487 0.07654 0.0
C294 C 0.86582 0.53732 0.13401 0.0
C295 C 0.94046 0.61766 0.1021 0.0
N296 N 0.94455 0.51634 0.17347 0.0
N297 N 0.86391 0.67398 0.09322 0.0
H298 H 1.00945 0.63681 0.06944 0.0
H299 H 0.95154 0.66896 0.05768 0.0
H300 H 0.82229 0.68139 0.09476 0.0
H301 H 0.89148 0.71005 0.08761 0.0
H302 H 0.91707 0.49328 0.18943 0.0
H303 H 0.98584 0.52407 0.18584 0.0
H304 H 0.84587 0.45373 0.15145 0.0
H305 H 0.78729 0.48326 0.13459 0.0
C306 C 0.3038 0.75764 0.48384 0.0
C307 C 0.30357 0.81472 0.47375 0.0
C308 C 0.21318 0.78191 0.43565 0.0
C309 C 0.21681 0.72355 0.44209 0.0
N310 N 0.26775 0.65374 0.46878 0.0
N311 N 0.26307 0.87981 0.43555 0.0
C312 C 0.26261 0.71076 0.46539 0.0
C313 C 0.25948 0.82663 0.44854 0.0
N314 N 0.34267 0.74866 0.51157 0.0
N315 N 0.16497 0.79472 0.41783 0.0
H316 H 0.29649 0.91387 0.44406 0.0
H317 H 0.23546 0.88855 0.41386 0.0
H318 H 0.13002 0.763 0.40795 0.0
H319 H 0.15756 0.83738 0.4159 0.0
H320 H 0.34157 0.70943 0.5229 0.0
H321 H 0.37351 0.78214 0.52556 0.0
H322 H 0.3034 0.64117 0.48189 0.0
H323 H 0.23793 0.61834 0.45606 0.0
C324 C 0.69043 0.34326 0.8334 0.0
C325 C 0.65416 0.36975 0.80977 0.0
C326 C 0.61417 0.27147 0.77741 0.0
C327 C 0.65772 0.24677 0.79575 0.0
N328 N 0.74459 0.26368 0.83712 0.0
N329 N 0.59072 0.35751 0.75239 0.0
C330 C 0.69778 0.28378 0.82286 0.0
C331 C 0.6181 0.33347 0.78002 0.0
N332 N 0.71667 0.37407 0.8665 0.0
N333 N 0.5688 0.23575 0.7575 0.0
H334 H 0.59617 0.40231 0.75061 0.0
H335 H 0.56818 0.33222 0.72849 0.0
H336 H 0.56358 0.19014 0.75602 0.0
H337 H 0.53374 0.2518 0.74619 0.0
H338 H 0.73972 0.355 0.88615 0.0
H339 H 0.70987 0.41642 0.87633 0.0
H340 H 0.7776 0.29098 0.854 0.0
H341 H 0.75327 0.22147 0.82914 0.0
C342 C 0.65525 0.82257 0.45583 0.0
C343 C 0.64661 0.85682 0.48991 0.0
C344 C 0.61513 0.76631 0.51633 0.0
C345 C 0.62681 0.73209 0.48301 0.0
N346 N 0.67285 0.72847 0.42565 0.0
N347 N 0.6354 0.86032 0.55621 0.0
C348 C 0.65188 0.76062 0.4543 0.0
C349 C 0.63178 0.82832 0.5213 0.0
N350 N 0.66308 0.84843 0.42414 0.0
N351 N 0.58563 0.74039 0.54243 0.0
H352 H 0.6511 0.90504 0.56102 0.0
H353 H 0.62957 0.84142 0.58075 0.0
H354 H 0.57157 0.69542 0.53974 0.0
H355 H 0.57081 0.76428 0.5651 0.0
H356 H 0.66376 0.82482 0.39757 0.0
H357 H 0.66313 0.89307 0.42375 0.0
H358 H 0.69615 0.74745 0.40582 0.0
H359 H 0.67199 0.6832 0.42412 0.0
C360 C 1.03116 0.45332 0.75321 0.0
C361 C 0.9772 0.43299 0.76335 0.0
C362 C 1.01252 0.4338 0.82757 0.0
C363 C 1.06196 0.47185 0.82077 0.0
N364 N 0.12953 0.49083 0.77579 0.0
N365 N 0.93828 0.35662 0.79708 0.0
C366 C 1.07579 0.47099 0.78276 0.0
C367 C 0.97679 0.40492 0.7957 0.0
N368 N 1.0364 0.46381 0.71711 0.0
N369 N 0.99529 0.43001 0.86263 0.0
H370 H 0.91167 0.33686 0.77315 0.0
H371 H 0.9374 0.33413 0.82051 0.0
H372 H 1.01641 0.4528 0.88751 0.0
H373 H 0.95638 0.40651 0.86653 0.0
H374 H 1.07337 0.48413 0.70806 0.0
H375 H 1.00185 0.45244 0.69665 0.0
H376 H 0.14254 0.49016 0.74876 0.0
H377 H 0.16166 0.50404 0.79779 0.0
C378 C 0.40522 0.94916 0.18281 0.0
C379 C 0.41066 0.8929 0.16425 0.0
C380 C 0.51362 0.91435 0.17739 0.0
C381 C 0.50783 0.969 0.19797 0.0
N382 N 0.44957 0.03789 0.22324 0.0
N383 N 0.46786 0.81894 0.14584 0.0
C384 C 0.45399 0.98636 0.2014 0.0
C385 C 0.46434 0.87466 0.162 0.0
N386 N 0.35337 0.96708 0.18232 0.0
N387 N 0.56632 0.90104 0.17211 0.0
H388 H 0.43292 0.78974 0.13261 0.0
H389 H 0.50467 0.80023 0.1471 0.0
H390 H 0.60324 0.92819 0.18422 0.0
H391 H 0.57395 0.86498 0.15408 0.0
H392 H 0.34713 1.00981 0.19125 0.0
H393 H 0.31611 0.94003 0.17083 0.0
H394 H 0.41155 0.04999 0.23083 0.0
H395 H 0.4844 0.06779 0.23585 0.0
C396 C 0.6739 0.27698 0.49032 0.0
C397 C 0.64296 0.23923 0.51268 0.0
C398 C 0.59451 0.32099 0.5352 0.0
C399 C 0.63188 0.36079 0.51854 0.0
N400 N 0.71541 0.37691 0.48568 0.0
N401 N 0.58883 0.23539 0.56683 0.0
C402 C 0.67393 0.33894 0.49751 0.0
C403 C 0.60724 0.26396 0.53799 0.0
N404 N 0.70153 0.25458 0.46134 0.0
N405 N 0.54722 0.33796 0.54909 0.0
H406 H 0.60332 0.19735 0.57355 0.0
H407 H 0.56596 0.25417 0.58737 0.0
H408 H 0.53581 0.37913 0.54663 0.0
H409 H 0.51673 0.30885 0.55917 0.0
H410 H 0.71951 0.28037 0.44232 0.0
H411 H 0.70145 0.21003 0.4534 0.0
H412 H 0.75057 0.36328 0.47408 0.0
H413 H 0.71731 0.42234 0.49049 0.0
C414 C 0.28851 0.69285 0.75511 0.0
C415 C 0.33614 0.70298 0.78205 0.0
C416 C 0.29218 0.77466 0.82104 0.0
C417 C 0.24067 0.75367 0.79857 0.0
N418 N 0.19292 0.7046 0.73899 0.0
N419 N 0.38855 0.75967 0.8378 0.0
C420 C 0.24033 0.71814 0.76357 0.0
C421 C 0.3403 0.74734 0.81362 0.0
N422 N 0.28788 0.65599 0.72233 0.0
N423 N 0.29372 0.81871 0.85023 0.0
H424 H 0.42472 0.74128 0.83247 0.0
H425 H 0.39286 0.78706 0.86341 0.0
H426 H 0.25834 0.83851 0.85569 0.0
H427 H 0.33023 0.83871 0.867 0.0
H428 H 0.2528 0.64622 0.70229 0.0
H429 H 0.32308 0.63699 0.71509 0.0
H430 H 0.15579 0.72179 0.74358 0.0
H431 H 0.15579 0.72179 0.74358 0.0
C432 C 0.88459 0.28404 0.20339 0.0
C433 C 0.91539 0.26176 0.17417 0.0
C434 C 0.8342 0.18731 0.14918 0.0
C435 C 0.80137 0.21468 0.17522 0.0
N436 N 0.79303 0.28964 0.2264 0.0
N437 N 0.92104 0.19385 0.11865 0.0
C438 C 0.8261 0.26278 0.2025 0.0
C439 C 0.89082 0.21333 0.1471 0.0
N440 N 0.91147 0.32551 0.23195 0.0
N441 N 0.81113 0.13628 0.12672 0.0
H442 H 0.96338 0.2104 0.11727 0.0
H443 H 0.90374 0.1635 0.09541 0.0
H444 H 0.76949 0.1166 0.12731 0.0
H445 H 0.83411 0.11094 0.10964 0.0
H446 H 0.89307 0.33941 0.25611 0.0
H447 H 0.95406 0.34299 0.233 0.0
H448 H 0.8067 0.32919 0.2438 0.0
H449 H 0.75039 0.27402 0.22743 0.0
C450 C 1.06711 0.53948 0.00843 0.0
C451 C 0.11885 0.53367 0.02848 0.0
C452 C 0.17014 0.55435 0.97411 0.0
C453 C 0.11856 0.55861 0.95377 0.0
N454 N 1.0169 0.54889 0.94863 0.0
N455 N 0.21488 0.51574 0.02613 0.0
C456 C 1.06664 0.54925 0.97009 0.0
C457 C 0.16923 0.53588 0.01021 0.0
N458 N 1.01878 0.53713 0.02622 0.0
N459 N 0.21995 0.56799 0.95896 0.0
H460 H 0.21307 0.49561 0.05044 0.0
H461 H 0.25138 0.51164 0.01286 0.0
H462 H 0.22197 0.58032 0.93205 0.0
H463 H 0.25927 0.57174 0.9742 0.0
H464 H 0.98115 0.54796 0.01481 0.0
H465 H 1.01658 0.52712 0.05357 0.0
H466 H 0.9773 0.53511 0.95699 0.0
H467 H 1.01493 0.55943 0.92119 0.0
C468 C 0.66277 0.02301 0.37062 0.0
C469 C 0.63316 0.06182 0.39261 0.0
C470 C 0.60457 0.10408 0.33614 0.0
C471 C 0.62972 0.06228 0.31377 0.0
N472 N 0.69422 0.99226 0.30925 0.0
N473 N 0.60168 0.15645 0.39818 0.0
C474 C 0.66255 0.02491 0.33095 0.0
C475 C 0.61219 0.10783 0.37592 0.0
N476 N 0.69083 0.98439 0.38724 0.0
N477 N 0.57116 0.13853 0.31947 0.0
H478 H 0.61045 0.16265 0.42741 0.0
H479 H 0.59135 0.19369 0.38749 0.0
H480 H 0.56495 0.13803 0.29033 0.0
H481 H 0.5462 0.16446 0.33448 0.0
H482 H 0.70504 0.94881 0.37243 0.0
H483 H 0.70158 0.98871 0.41611 0.0
H484 H 0.72317 0.96774 0.31994 0.0
H485 H 0.69457 0.99305 0.28025 0.0
C486 C 0.60892 0.551 0.68469 0.0
C487 C 0.65008 0.52346 0.70378 0.0
C488 C 0.69142 0.50326 0.64467 0.0
C489 C 0.64627 0.52194 0.62434 0.0
N490 N 0.55417 0.5525 0.6252 0.0
N491 N 0.70844 0.44635 0.69416 0.0
C492 C 0.60285 0.54342 0.64432 0.0
C493 C 0.68516 0.49163 0.68167 0.0
N494 N 0.57419 0.58229 0.70433 0.0
N495 N 0.73903 0.49351 0.62809 0.0
H496 H 0.69574 0.42744 0.71759 0.0
H497 H 0.73237 0.42125 0.67755 0.0
H498 H 0.74531 0.50277 0.60085 0.0
H499 H 0.77392 0.48218 0.64307 0.0
H500 H 0.54928 0.60933 0.69191 0.0
H501 H 0.57096 0.58244 0.733 0.0
H502 H 0.51892 0.56188 0.63857 0.0
H503 H 0.54678 0.5454 0.5959 0.0
C504 C 0.63424 0.03556 0.62971 0.0
C505 C 0.6773 0.06463 0.61091 0.0
C506 C 0.7233 0.11648 0.67161 0.0
C507 C 0.67713 0.09207 0.6899 0.0
N508 N 0.58356 0.03643 0.68545 0.0
N509 N 0.7578 0.14026 0.61287 0.0
C510 C 0.63116 0.05369 0.66872 0.0
C511 C 0.72046 0.10729 0.63155 0.0
N512 N 0.59719 0.9895 0.61057 0.0
N513 N 0.77063 0.1469 0.69261 0.0
H514 H 0.75714 0.13503 0.58354 0.0
H515 H 0.78624 0.17628 0.62619 0.0
H516 H 0.77455 0.15376 0.72205 0.0
H517 H 0.80787 0.16055 0.68107 0.0
H518 H 0.5688 0.96237 0.62363 0.0
H519 H 0.59821 0.97535 0.58198 0.0
H520 H 0.54645 1.01378 0.67046 0.0
H521 H 0.57929 0.04913 0.71387 0.0
C522 C 0.65652 0.52444 0.94525 0.0
C523 C 0.66743 0.57849 0.93038 0.0
C524 C 0.69983 0.62942 -0.00572 0.0
C525 C 0.69394 0.5746 0.00835 0.0
N526 N 0.67537 0.46901 -0.00339 0.0
N527 N 0.70557 0.68145 0.93972 0.0
C528 C 0.67496 0.52182 0.9836 0.0
C529 C 0.69064 0.63079 0.95467 0.0
N530 N 0.62546 0.47637 0.92351 0.0
N531 N 0.71294 0.68028 0.01893 0.0
H532 H 0.69887 0.68439 0.911 0.0
H533 H 0.72846 0.71943 0.95519 0.0
H534 H 0.7211 0.68098 0.04798 0.0
H535 H 0.71165 0.72175 0.01108 0.0
H536 H 0.6114 0.43762 0.93399 0.0
H537 H 0.60842 0.47684 0.89597 0.0
H538 H 0.66839 0.42901 0.97901 0.0
H539 H 0.68732 0.46536 0.0247 0.0
C540 C 1.08977 0.62026 0.25966 0.0
C541 C 0.14028 0.60763 0.24439 0.0
C542 C 0.17321 0.58139 0.30567 0.0
C543 C 0.12856 0.60551 0.32218 0.0
N544 N 1.04819 0.65648 0.31527 0.0
N545 N 0.23502 0.58435 0.25597 0.0
C546 C 1.08751 0.62683 0.29929 0.0
C547 C 0.18317 0.58947 0.26798 0.0
N548 N 1.04329 0.62483 0.23642 0.0
N549 N 0.20646 0.55131 0.32622 0.0
H550 H 0.24665 0.59344 0.22979 0.0
H551 H 0.26903 0.57723 0.27373 0.0
H552 H 0.19994 0.54471 0.3539 0.0
H553 H 0.23632 0.52796 0.31455 0.0
H554 H 1.00399 0.62823 0.24612 0.0
H555 H 1.04202 0.61832 0.20714 0.0
H556 H 1.02166 0.67871 0.29991 0.0
H557 H 1.04528 0.66361 0.34425 0.0
loop_
_geom_bond_atom_site_label_1
_geom_bond_atom_site_label_2
_geom_bond_distance
_geom_bond_site_symmetry_2
_ccdc_geom_bond_type
Nd0 C2 2.836 . S
Nd0 O20 2.500 . S
Nd0 O21 2.492 . S
Nd0 O22 2.487 . S
Nd0 O23 2.682 . S
Nd0 O24 2.410 . S
Nd0 O29 2.414 . S
Nd0 O31 2.424 1_455 S
Nd1 C11 2.836 1_455 S
Nd1 O23 2.414 . S
Nd1 O25 2.424 . S
Nd1 O26 2.500 1_455 S
Nd1 O27 2.492 1_455 S
Nd1 O28 2.487 . S
Nd1 O29 2.682 . S
Nd1 O30 2.410 1_455 S
C2 Nd0 2.836 . S
C2 C3 1.498 . S
C2 O20 1.258 . S
C2 O21 1.239 . S
C3 C2 1.498 . S
C3 C4 1.366 . S
C3 C8 1.407 . S
C4 C3 1.366 . S
C4 C5 1.392 . S
C4 H32 0.930 . S
C5 C4 1.392 . S
C5 C6 1.398 . S
C5 H33 0.929 . S
C6 C5 1.398 . S
C6 C7 1.352 . S
C7 C6 1.352 . S
C7 C8 1.384 . S
C7 H34 0.930 . S
C8 C3 1.407 . S
C8 C7 1.384 . S
C8 H35 0.929 . S
C9 O22 1.241 . S
C9 O23 1.273 . S
C10 O24 1.251 . S
C10 O25 1.268 . S
C11 Nd1 2.836 1_655 S
C11 C12 1.498 . S
C11 O26 1.258 . S
C11 O27 1.239 . S
C12 C11 1.498 . S
C12 C13 1.366 . S
C12 C17 1.407 . S
C13 C12 1.366 . S
C13 C14 1.392 . S
C13 H36 0.930 . S
C14 C13 1.392 . S
C14 C15 1.398 . S
C14 H37 0.929 . S
C15 C14 1.398 . S
C15 C16 1.352 . S
C16 C15 1.352 . S
C16 C17 1.384 . S
C16 H38 0.930 . S
C17 C12 1.407 . S
C17 C16 1.384 . S
C17 H39 0.929 . S
C18 O28 1.241 . S
C18 O29 1.273 . S
C19 O30 1.251 . S
C19 O31 1.268 . S
O20 Nd0 2.500 . S
O20 C2 1.258 . S
O21 Nd0 2.492 . S
O21 C2 1.239 . S
O22 Nd0 2.487 . S
O22 C9 1.241 . S
O23 Nd0 2.682 . S
O23 Nd1 2.414 . S
O23 C9 1.273 . S
O24 Nd0 2.410 . S
O24 C10 1.251 . S
O25 Nd1 2.424 . S
O25 C10 1.268 . S
O26 Nd1 2.500 1_655 S
O26 C11 1.258 . S
O27 Nd1 2.492 1_655 S
O27 C11 1.239 . S
O28 Nd1 2.487 . S
O28 C18 1.241 . S
O29 Nd0 2.414 . S
O29 Nd1 2.682 . S
O29 C18 1.273 . S
O30 Nd1 2.410 1_655 S
O30 C19 1.251 . S
O31 Nd0 2.424 1_655 S
O31 C19 1.268 . S
H32 C4 0.930 . S
H33 C5 0.929 . S
H34 C7 0.930 . S
H35 C8 0.929 . S
H36 C13 0.930 . S
H37 C14 0.929 . S
H38 C16 0.930 . S
H39 C17 0.929 . S
Nd40 C42 2.836 1_545 S
Nd40 O60 2.500 1_545 S
Nd40 O61 2.492 1_545 S
Nd40 O62 2.487 . S
Nd40 O63 2.682 . S
Nd40 O64 2.410 1_545 S
Nd40 O69 2.414 . S
Nd40 O71 2.424 . S
Nd41 C51 2.836 . S
Nd41 O63 2.414 . S
Nd41 O65 2.424 1_545 S
Nd41 O66 2.500 . S
Nd41 O67 2.492 . S
Nd41 O68 2.487 . S
Nd41 O69 2.682 . S
Nd41 O70 2.410 . S
C42 Nd40 2.836 1_565 S
C42 C43 1.498 . S
C42 O60 1.258 . S
C42 O61 1.239 . S
C43 C42 1.498 . S
C43 C44 1.366 . S
C43 C48 1.407 . S
C44 C43 1.366 . S
C44 C45 1.392 . S
C44 H72 0.930 . S
C45 C44 1.392 . S
C45 C46 1.398 . S
C45 H73 0.929 . S
C46 C45 1.398 . S
C46 C47 1.352 . S
C47 C46 1.352 . S
C47 C48 1.384 . S
C47 H74 0.930 . S
C48 C43 1.407 . S
C48 C47 1.384 . S
C48 H75 0.929 . S
C49 O62 1.241 . S
C49 O63 1.273 . S
C50 O64 1.251 . S
C50 O65 1.268 . S
C51 Nd41 2.836 . S
C51 C52 1.498 . S
C51 O66 1.258 . S
C51 O67 1.239 . S
C52 C51 1.498 . S
C52 C53 1.366 . S
C52 C57 1.407 . S
C53 C52 1.366 . S
C53 C54 1.392 . S
C53 H76 0.930 . S
C54 C53 1.392 . S
C54 C55 1.398 . S
C54 H77 0.929 . S
C55 C54 1.398 . S
C55 C56 1.352 . S
C56 C55 1.352 . S
C56 C57 1.384 . S
C56 H78 0.930 . S
C57 C52 1.407 . S
C57 C56 1.384 . S
C57 H79 0.929 . S
C58 O68 1.241 . S
C58 O69 1.273 . S
C59 O70 1.251 . S
C59 O71 1.268 . S
O60 Nd40 2.500 1_565 S
O60 C42 1.258 . S
O61 Nd40 2.492 1_565 S
O61 C42 1.239 . S
O62 Nd40 2.487 . S
O62 C49 1.241 . S
O63 Nd40 2.682 . S
O63 Nd41 2.414 . S
O63 C49 1.273 . S
O64 Nd40 2.410 1_565 S
O64 C50 1.251 . S
O65 Nd41 2.424 1_565 S
O65 C50 1.268 . S
O66 Nd41 2.500 . S
O66 C51 1.258 . S
O67 Nd41 2.492 . S
O67 C51 1.239 . S
O68 Nd41 2.487 . S
O68 C58 1.241 . S
O69 Nd40 2.414 . S
O69 Nd41 2.682 . S
O69 C58 1.273 . S
O70 Nd41 2.410 . S
O70 C59 1.251 . S
O71 Nd40 2.424 . S
O71 C59 1.268 . S
H72 C44 0.930 . S
H73 C45 0.929 . S
H74 C47 0.930 . S
H75 C48 0.929 . S
H76 C53 0.930 . S
H77 C54 0.929 . S
H78 C56 0.930 . S
H79 C57 0.929 . S
Nd80 C82 2.836 . S
Nd80 O100 2.500 . S
Nd80 O101 2.492 . S
Nd80 O102 2.487 . S
Nd80 O103 2.682 . S
Nd80 O104 2.410 . S
Nd80 O109 2.414 . S
Nd80 O111 2.424 . S
Nd81 C91 2.836 . S
Nd81 O103 2.414 . S
Nd81 O105 2.424 . S
Nd81 O106 2.500 . S
Nd81 O107 2.492 . S
Nd81 O108 2.487 . S
Nd81 O109 2.682 . S
Nd81 O110 2.410 . S
C82 Nd80 2.836 . S
C82 C83 1.498 . S
C82 O100 1.258 . S
C82 O101 1.239 . S
C83 C82 1.498 . S
C83 C84 1.366 . S
C83 C88 1.407 . S
C84 C83 1.366 . S
C84 C85 1.392 . S
C84 H112 0.930 . S
C85 C84 1.392 . S
C85 C86 1.398 . S
C85 H113 0.929 . S
C86 C85 1.398 . S
C86 C87 1.352 . S
C87 C86 1.352 . S
C87 C88 1.384 . S
C87 H114 0.930 . S
C88 C83 1.407 . S
C88 C87 1.384 . S
C88 H115 0.929 . S
C89 O102 1.241 . S
C89 O103 1.273 . S
C90 O104 1.251 . S
C90 O105 1.268 . S
C91 Nd81 2.836 . S
C91 C92 1.498 . S
C91 O106 1.258 . S
C91 O107 1.239 . S
C92 C91 1.498 . S
C92 C93 1.366 . S
C92 C97 1.407 . S
C93 C92 1.366 . S
C93 C94 1.392 . S
C93 H116 0.930 . S
C94 C93 1.392 . S
C94 C95 1.398 . S
C94 H117 0.929 . S
C95 C94 1.398 . S
C95 C96 1.352 . S
C96 C95 1.352 . S
C96 C97 1.384 . S
C96 H118 0.930 . S
C97 C92 1.407 . S
C97 C96 1.384 . S
C97 H119 0.929 . S
C98 O108 1.241 . S
C98 O109 1.273 . S
C99 O110 1.251 . S
C99 O111 1.268 . S
O100 Nd80 2.500 . S
O100 C82 1.258 . S
O101 Nd80 2.492 . S
O101 C82 1.239 . S
O102 Nd80 2.487 . S
O102 C89 1.241 . S
O103 Nd80 2.682 . S
O103 Nd81 2.414 . S
O103 C89 1.273 . S
O104 Nd80 2.410 . S
O104 C90 1.251 . S
O105 Nd81 2.424 . S
O105 C90 1.268 . S
O106 Nd81 2.500 . S
O106 C91 1.258 . S
O107 Nd81 2.492 . S
O107 C91 1.239 . S
O108 Nd81 2.487 . S
O108 C98 1.241 . S
O109 Nd80 2.414 . S
O109 Nd81 2.682 . S
O109 C98 1.273 . S
O110 Nd81 2.410 . S
O110 C99 1.251 . S
O111 Nd80 2.424 . S
O111 C99 1.268 . S
H112 C84 0.930 . S
H113 C85 0.929 . S
H114 C87 0.930 . S
H115 C88 0.929 . S
H116 C93 0.930 . S
H117 C94 0.929 . S
H118 C96 0.930 . S
H119 C97 0.929 . S
H120 C121 0.949 . S
C121 H120 0.949 . S
C121 C122 1.395 . S
C121 C123 1.391 . S
C122 C121 1.395 . S
C122 C125 1.390 . S
C123 C121 1.391 . S
C123 C127 1.387 . S
C123 C128 1.491 . S
H124 C125 0.950 1_565 S
C125 C122 1.390 . S
C125 H124 0.950 1_545 S
C125 C126 1.378 1_545 S
C126 C125 1.378 1_565 S
C126 C127 1.409 1_565 S
C127 C123 1.387 . S
C127 C126 1.409 1_545 S
C127 H129 0.951 . S
C128 C123 1.491 . S
C128 C130 1.382 . S
C128 C132 1.404 . S
H129 C127 0.951 . S
C130 C128 1.382 . S
C130 C131 1.390 . S
C130 H135 0.949 . S
C131 C130 1.390 . S
C131 C136 1.399 . S
C132 C128 1.404 . S
C132 H133 0.950 . S
C132 C134 1.375 . S
H133 C132 0.950 . S
C134 C132 1.375 . S
C134 C136 1.382 . S
C134 H138 0.950 . S
H135 C130 0.949 . S
C136 C131 1.399 . S
C136 C134 1.382 . S
C136 H137 0.952 . S
H137 C136 0.952 . S
H138 C134 0.950 . S
H139 C140 0.949 . S
C140 H139 0.949 . S
C140 C141 1.395 . S
C140 C142 1.391 . S
C141 C140 1.395 . S
C141 C144 1.390 . S
C142 C140 1.391 . S
C142 C146 1.387 . S
C142 C147 1.491 . S
H143 C144 0.950 . S
C144 C141 1.390 . S
C144 H143 0.950 . S
C144 C145 1.378 . S
C145 C144 1.378 . S
C145 C146 1.409 . S
C146 C142 1.387 . S
C146 C145 1.409 . S
C146 H148 0.951 . S
C147 C142 1.491 . S
C147 C149 1.382 . S
C147 C151 1.404 . S
H148 C146 0.951 . S
C149 C147 1.382 . S
C149 C150 1.390 . S
C149 H154 0.949 . S
C150 C149 1.390 . S
C150 C155 1.399 . S
C151 C147 1.404 . S
C151 H152 0.950 . S
C151 C153 1.375 . S
H152 C151 0.950 . S
C153 C151 1.375 . S
C153 C155 1.382 . S
C153 H157 0.950 . S
H154 C149 0.949 . S
C155 C150 1.399 . S
C155 C153 1.382 . S
C155 H156 0.952 . S
H156 C155 0.952 . S
H157 C153 0.950 . S
H158 C159 0.949 . S
C159 H158 0.949 . S
C159 C160 1.395 . S
C159 C161 1.391 . S
C160 C159 1.395 . S
C160 C163 1.390 1_455 S
C161 C159 1.391 . S
C161 C165 1.387 . S
C161 C166 1.491 . S
H162 C163 0.950 . S
C163 C160 1.390 1_655 S
C163 H162 0.950 . S
C163 C164 1.378 . S
C164 C163 1.378 . S
C164 C165 1.409 1_655 S
C165 C161 1.387 . S
C165 C164 1.409 1_455 S
C165 H167 0.951 . S
C166 C161 1.491 . S
C166 C168 1.382 . S
C166 C170 1.404 . S
H167 C165 0.951 . S
C168 C166 1.382 . S
C168 C169 1.390 . S
C168 H173 0.949 . S
C169 C168 1.390 . S
C169 C174 1.399 . S
C170 C166 1.404 . S
C170 H171 0.950 . S
C170 C172 1.375 . S
H171 C170 0.950 . S
C172 C170 1.375 . S
C172 C174 1.382 . S
C172 H176 0.950 . S
H173 C168 0.949 . S
C174 C169 1.399 . S
C174 C172 1.382 . S
C174 H175 0.952 . S
H175 C174 0.952 . S
H176 C172 0.950 . S
H177 C178 0.946 1_655 S
C178 H177 0.946 1_455 S
C178 C179 1.398 . S
C178 C180 1.391 . S
C179 C178 1.398 . S
C179 C182 1.390 . S
C180 C178 1.391 . S
C180 C184 1.387 . S
C180 C185 1.491 1_455 S
H181 C182 0.950 . S
C182 C179 1.390 . S
C182 H181 0.950 . S
C182 C183 1.378 . S
C183 C182 1.378 . S
C183 C184 1.409 . S
C184 C180 1.387 . S
C184 C183 1.409 . S
C184 H186 0.951 . S
C185 C180 1.491 1_655 S
C185 C187 1.382 . S
C185 C189 1.404 . S
H186 C184 0.951 . S
C187 C185 1.382 . S
C187 C188 1.390 . S
C187 H192 0.949 . S
C188 C187 1.390 . S
C188 C193 1.399 . S
C189 C185 1.404 . S
C189 H190 0.950 . S
C189 C191 1.375 . S
H190 C189 0.950 . S
C191 C189 1.375 . S
C191 C193 1.382 . S
C191 H195 0.950 . S
H192 C187 0.949 . S
C193 C188 1.399 . S
C193 C191 1.382 . S
C193 H194 0.952 . S
H194 C193 0.952 . S
H195 C191 0.950 . S
H196 C197 0.949 1_565 S
C197 H196 0.949 1_545 S
C197 C198 1.395 . S
C197 C199 1.391 . S
C198 C197 1.395 . S
C198 C201 1.390 . S
C199 C197 1.391 . S
C199 C203 1.387 . S
C199 C204 1.491 1_545 S
H200 C201 0.950 . S
C201 C198 1.390 . S
C201 H200 0.950 . S
C201 C202 1.378 . S
C202 C201 1.378 . S
C202 C203 1.409 . S
C203 C199 1.387 . S
C203 C202 1.409 . S
C203 H205 0.951 . S
C204 C199 1.491 1_565 S
C204 C206 1.382 . S
C204 C208 1.404 . S
H205 C203 0.951 . S
C206 C204 1.382 . S
C206 C207 1.390 . S
C206 H211 0.949 . S
C207 C206 1.390 . S
C207 C212 1.399 . S
C208 C204 1.404 . S
C208 H209 0.950 1_565 S
C208 C210 1.375 . S
H209 C208 0.950 1_545 S
C210 C208 1.375 . S
C210 C212 1.382 . S
C210 H214 0.950 . S
H211 C206 0.949 . S
C212 C207 1.399 . S
C212 C210 1.382 . S
C212 H213 0.952 . S
H213 C212 0.952 . S
H214 C210 0.950 . S
H215 C216 0.949 . S
C216 H215 0.949 . S
C216 C217 1.395 . S
C216 C218 1.391 . S
C217 C216 1.395 . S
C217 C220 1.390 . S
C218 C216 1.391 . S
C218 C222 1.387 . S
C218 C223 1.491 . S
H219 C220 0.950 . S
C220 C217 1.390 . S
C220 H219 0.950 . S
C220 C221 1.378 . S
C221 C220 1.378 . S
C221 C222 1.409 . S
C222 C218 1.387 . S
C222 C221 1.409 . S
C222 H224 0.951 . S
C223 C218 1.491 . S
C223 C225 1.382 . S
C223 C227 1.404 . S
H224 C222 0.951 . S
C225 C223 1.382 . S
C225 C226 1.390 . S
C225 H230 0.949 . S
C226 C225 1.390 . S
C226 C231 1.399 . S
C227 C223 1.404 . S
C227 H228 0.950 . S
C227 C229 1.375 . S
H228 C227 0.950 . S
C229 C227 1.375 . S
C229 C231 1.382 . S
C229 H233 0.950 . S
H230 C225 0.949 . S
C231 C226 1.399 . S
C231 C229 1.382 . S
C231 H232 0.952 . S
H232 C231 0.952 . S
H233 C229 0.950 . S
C234 C235 1.363 . S
C234 C240 1.379 . S
C234 N242 1.356 . S
C235 C234 1.363 . S
C235 C241 1.363 . S
C236 C237 1.363 . S
C236 C241 1.379 . S
C236 N243 1.356 . S
C237 C236 1.363 . S
C237 C240 1.363 . S
N238 C240 1.356 . S
N238 H250 0.984 . S
N238 H251 0.985 . S
N239 C241 1.356 . S
N239 H244 0.984 . S
N239 H245 0.985 . S
C240 C234 1.379 . S
C240 C237 1.363 . S
C240 N238 1.356 . S
C241 C235 1.363 . S
C241 C236 1.379 . S
C241 N239 1.356 . S
N242 C234 1.356 . S
N242 H248 0.984 . S
N242 H249 0.984 . S
N243 C236 1.356 . S
N243 H246 0.984 . S
N243 H247 0.985 . S
H244 N239 0.984 . S
H245 N239 0.985 . S
H246 N243 0.984 . S
H247 N243 0.985 . S
H248 N242 0.984 . S
H249 N242 0.984 . S
H250 N238 0.984 . S
H251 N238 0.985 . S
C252 C253 1.363 . S
C252 C258 1.379 . S
C252 N260 1.356 . S
C253 C252 1.363 . S
C253 C259 1.363 . S
C254 C255 1.363 . S
C254 C259 1.379 . S
C254 N261 1.356 . S
C255 C254 1.363 . S
C255 C258 1.363 . S
N256 C258 1.356 . S
N256 H268 0.984 . S
N256 H269 0.985 . S
N257 C259 1.356 . S
N257 H262 0.984 . S
N257 H263 0.985 . S
C258 C252 1.379 . S
C258 C255 1.363 . S
C258 N256 1.356 . S
C259 C253 1.363 . S
C259 C254 1.379 . S
C259 N257 1.356 . S
N260 C252 1.356 . S
N260 H266 0.984 . S
N260 H267 0.984 . S
N261 C254 1.356 . S
N261 H264 0.984 . S
N261 H265 0.985 . S
H262 N257 0.984 . S
H263 N257 0.985 . S
H264 N261 0.984 . S
H265 N261 0.985 . S
H266 N260 0.984 . S
H267 N260 0.984 . S
H268 N256 0.984 . S
H269 N256 0.985 . S
C270 C271 1.363 . S
C270 C276 1.379 . S
C270 N278 1.356 . S
C271 C270 1.363 . S
C271 C277 1.363 . S
C272 C273 1.363 . S
C272 C277 1.379 . S
C272 N279 1.356 . S
C273 C272 1.363 . S
C273 C276 1.363 . S
N274 C276 1.356 . S
N274 H286 0.984 . S
N274 H287 0.985 . S
N275 C277 1.356 . S
N275 H280 0.984 . S
N275 H281 0.985 . S
C276 C270 1.379 . S
C276 C273 1.363 . S
C276 N274 1.356 . S
C277 C271 1.363 . S
C277 C272 1.379 . S
C277 N275 1.356 . S
N278 C270 1.356 . S
N278 H284 0.984 . S
N278 H285 0.984 . S
N279 C272 1.356 . S
N279 H282 0.984 . S
N279 H283 0.985 . S
H280 N275 0.984 . S
H281 N275 0.985 . S
H282 N279 0.984 . S
H283 N279 0.985 . S
H284 N278 0.984 . S
H285 N278 0.984 . S
H286 N274 0.984 . S
H287 N274 0.985 . S
C288 C289 1.363 . S
C288 C294 1.379 . S
C288 N296 1.356 . S
C289 C288 1.363 . S
C289 C295 1.363 . S
C290 C291 1.363 . S
C290 C295 1.379 . S
C290 N297 1.356 . S
C291 C290 1.363 . S
C291 C294 1.363 . S
N292 C294 1.356 . S
N292 H304 0.984 . S
N292 H305 0.985 . S
N293 C295 1.356 . S
N293 H298 0.984 . S
N293 H299 0.985 . S
C294 C288 1.379 . S
C294 C291 1.363 . S
C294 N292 1.356 . S
C295 C289 1.363 . S
C295 C290 1.379 . S
C295 N293 1.356 . S
N296 C288 1.356 . S
N296 H302 0.984 . S
N296 H303 0.984 . S
N297 C290 1.356 . S
N297 H300 0.984 . S
N297 H301 0.985 . S
H298 N293 0.984 . S
H299 N293 0.985 . S
H300 N297 0.984 . S
H301 N297 0.985 . S
H302 N296 0.984 . S
H303 N296 0.984 . S
H304 N292 0.984 . S
H305 N292 0.985 . S
C306 C307 1.363 . S
C306 C312 1.379 . S
C306 N314 1.356 . S
C307 C306 1.363 . S
C307 C313 1.363 . S
C308 C309 1.363 . S
C308 C313 1.379 . S
C308 N315 1.356 . S
C309 C308 1.363 . S
C309 C312 1.363 . S
N310 C312 1.356 . S
N310 H322 0.984 . S
N310 H323 0.985 . S
N311 C313 1.356 . S
N311 H316 0.984 . S
N311 H317 0.985 . S
C312 C306 1.379 . S
C312 C309 1.363 . S
C312 N310 1.356 . S
C313 C307 1.363 . S
C313 C308 1.379 . S
C313 N311 1.356 . S
N314 C306 1.356 . S
N314 H320 0.984 . S
N314 H321 0.984 . S
N315 C308 1.356 . S
N315 H318 0.984 . S
N315 H319 0.985 . S
H316 N311 0.984 . S
H317 N311 0.985 . S
H318 N315 0.984 . S
H319 N315 0.985 . S
H320 N314 0.984 . S
H321 N314 0.984 . S
H322 N310 0.984 . S
H323 N310 0.985 . S
C324 C325 1.363 . S
C324 C330 1.379 . S
C324 N332 1.356 . S
C325 C324 1.363 . S
C325 C331 1.363 . S
C326 C327 1.363 . S
C326 C331 1.379 . S
C326 N333 1.356 . S
C327 C326 1.363 . S
C327 C330 1.363 . S
N328 C330 1.356 . S
N328 H340 0.984 . S
N328 H341 0.985 . S
N329 C331 1.356 . S
N329 H334 0.984 . S
N329 H335 0.985 . S
C330 C324 1.379 . S
C330 C327 1.363 . S
C330 N328 1.356 . S
C331 C325 1.363 . S
C331 C326 1.379 . S
C331 N329 1.356 . S
N332 C324 1.356 . S
N332 H338 0.984 . S
N332 H339 0.984 . S
N333 C326 1.356 . S
N333 H336 0.984 . S
N333 H337 0.985 . S
H334 N329 0.984 . S
H335 N329 0.985 . S
H336 N333 0.984 . S
H337 N333 0.985 . S
H338 N332 0.984 . S
H339 N332 0.984 . S
H340 N328 0.984 . S
H341 N328 0.985 . S
C342 C343 1.363 . S
C342 C348 1.379 . S
C342 N350 1.356 . S
C343 C342 1.363 . S
C343 C349 1.363 . S
C344 C345 1.363 . S
C344 C349 1.379 . S
C344 N351 1.356 . S
C345 C344 1.363 . S
C345 C348 1.363 . S
N346 C348 1.356 . S
N346 H358 0.984 . S
N346 H359 0.985 . S
N347 C349 1.356 . S
N347 H352 0.984 . S
N347 H353 0.985 . S
C348 C342 1.379 . S
C348 C345 1.363 . S
C348 N346 1.356 . S
C349 C343 1.363 . S
C349 C344 1.379 . S
C349 N347 1.356 . S
N350 C342 1.356 . S
N350 H356 0.984 . S
N350 H357 0.984 . S
N351 C344 1.356 . S
N351 H354 0.984 . S
N351 H355 0.985 . S
H352 N347 0.984 . S
H353 N347 0.985 . S
H354 N351 0.984 . S
H355 N351 0.985 . S
H356 N350 0.984 . S
H357 N350 0.984 . S
H358 N346 0.984 . S
H359 N346 0.985 . S
C360 C361 1.363 . S
C360 C366 1.379 . S
C360 N368 1.356 . S
C361 C360 1.363 . S
C361 C367 1.363 . S
C362 C363 1.363 . S
C362 C367 1.379 . S
C362 N369 1.356 . S
C363 C362 1.363 . S
C363 C366 1.363 . S
N364 C366 1.356 . S
N364 H376 0.984 . S
N364 H377 0.985 1_655 S
N365 C367 1.356 . S
N365 H370 0.984 . S
N365 H371 0.985 . S
C366 C360 1.379 . S
C366 C363 1.363 . S
C366 N364 1.356 . S
C367 C361 1.363 . S
C367 C362 1.379 . S
C367 N365 1.356 . S
N368 C360 1.356 . S
N368 H374 0.984 . S
N368 H375 0.984 . S
N369 C362 1.356 . S
N369 H372 0.984 . S
N369 H373 0.985 . S
H370 N365 0.984 . S
H371 N365 0.985 . S
H372 N369 0.984 . S
H373 N369 0.985 . S
H374 N368 0.984 . S
H375 N368 0.984 . S
H376 N364 0.984 . S
H377 N364 0.985 1_455 S
C378 C379 1.363 . S
C378 C384 1.379 . S
C378 N386 1.356 . S
C379 C378 1.363 . S
C379 C385 1.363 . S
C380 C381 1.363 . S
C380 C385 1.379 . S
C380 N387 1.356 . S
C381 C380 1.363 . S
C381 C384 1.363 . S
N382 C384 1.356 1_545 S
N382 H394 0.984 . S
N382 H395 0.985 . S
N383 C385 1.356 . S
N383 H388 0.984 . S
N383 H389 0.985 . S
C384 C378 1.379 . S
C384 C381 1.363 . S
C384 N382 1.356 1_565 S
C385 C379 1.363 . S
C385 C380 1.379 . S
C385 N383 1.356 . S
N386 C378 1.356 . S
N386 H392 0.984 . S
N386 H393 0.984 . S
N387 C380 1.356 . S
N387 H390 0.984 . S
N387 H391 0.985 . S
H388 N383 0.984 . S
H389 N383 0.985 . S
H390 N387 0.984 . S
H391 N387 0.985 . S
H392 N386 0.984 . S
H393 N386 0.984 . S
H394 N382 0.984 . S
H395 N382 0.985 . S
C396 C397 1.363 . S
C396 C402 1.379 . S
C396 N404 1.356 . S
C397 C396 1.363 . S
C397 C403 1.363 . S
C398 C399 1.363 . S
C398 C403 1.379 . S
C398 N405 1.356 . S
C399 C398 1.363 . S
C399 C402 1.363 . S
N400 C402 1.356 . S
N400 H412 0.984 . S
N400 H413 0.985 . S
N401 C403 1.356 . S
N401 H406 0.984 . S
N401 H407 0.985 . S
C402 C396 1.379 . S
C402 C399 1.363 . S
C402 N400 1.356 . S
C403 C397 1.363 . S
C403 C398 1.379 . S
C403 N401 1.356 . S
N404 C396 1.356 . S
N404 H410 0.984 . S
N404 H411 0.984 . S
N405 C398 1.356 . S
N405 H408 0.984 . S
N405 H409 0.985 . S
H406 N401 0.984 . S
H407 N401 0.985 . S
H408 N405 0.984 . S
H409 N405 0.985 . S
H410 N404 0.984 . S
H411 N404 0.984 . S
H412 N400 0.984 . S
H413 N400 0.985 . S
C414 C415 1.363 . S
C414 C420 1.379 . S
C414 N422 1.356 . S
C415 C414 1.363 . S
C415 C421 1.363 . S
C416 C417 1.363 . S
C416 C421 1.379 . S
C416 N423 1.356 . S
C417 C416 1.363 . S
C417 C420 1.363 . S
N418 C420 1.356 . S
N418 H430 0.984 . S
N418 H431 0.985 . S
N419 C421 1.356 . S
N419 H424 0.984 . S
N419 H425 0.985 . S
C420 C414 1.379 . S
C420 C417 1.363 . S
C420 N418 1.356 . S
C421 C415 1.363 . S
C421 C416 1.379 . S
C421 N419 1.356 . S
N422 C414 1.356 . S
N422 H428 0.984 . S
N422 H429 0.984 . S
N423 C416 1.356 . S
N423 H426 0.984 . S
N423 H427 0.985 . S
H424 N419 0.984 . S
H425 N419 0.985 . S
H426 N423 0.984 . S
H427 N423 0.985 . S
H428 N422 0.984 . S
H429 N422 0.984 . S
H430 N418 0.984 . S
H431 N418 0.985 . S
C432 C433 1.363 . S
C432 C438 1.379 . S
C432 N440 1.356 . S
C433 C432 1.363 . S
C433 C439 1.363 . S
C434 C435 1.363 . S
C434 C439 1.379 . S
C434 N441 1.356 . S
C435 C434 1.363 . S
C435 C438 1.363 . S
N436 C438 1.356 . S
N436 H448 0.984 . S
N436 H449 0.985 . S
N437 C439 1.356 . S
N437 H442 0.984 . S
N437 H443 0.985 . S
C438 C432 1.379 . S
C438 C435 1.363 . S
C438 N436 1.356 . S
C439 C433 1.363 . S
C439 C434 1.379 . S
C439 N437 1.356 . S
N440 C432 1.356 . S
N440 H446 0.984 . S
N440 H447 0.984 . S
N441 C434 1.356 . S
N441 H444 0.984 . S
N441 H445 0.985 . S
H442 N437 0.984 . S
H443 N437 0.985 . S
H444 N441 0.984 . S
H445 N441 0.985 . S
H446 N440 0.984 . S
H447 N440 0.984 . S
H448 N436 0.984 . S
H449 N436 0.985 . S
C450 C451 1.363 . S
C450 C456 1.379 1_554 S
C450 N458 1.356 . S
C451 C450 1.363 . S
C451 C457 1.363 . S
C452 C453 1.363 . S
C452 C457 1.379 1_556 S
C452 N459 1.356 . S
C453 C452 1.363 . S
C453 C456 1.363 . S
N454 C456 1.356 . S
N454 H466 0.984 . S
N454 H467 0.985 . S
N455 C457 1.356 . S
N455 H460 0.984 . S
N455 H461 0.985 . S
C456 C450 1.379 1_556 S
C456 C453 1.363 . S
C456 N454 1.356 . S
C457 C451 1.363 . S
C457 C452 1.379 1_554 S
C457 N455 1.356 . S
N458 C450 1.356 . S
N458 H464 0.984 . S
N458 H465 0.984 . S
N459 C452 1.356 . S
N459 H462 0.984 . S
N459 H463 0.985 . S
H460 N455 0.984 . S
H461 N455 0.985 . S
H462 N459 0.984 . S
H463 N459 0.985 . S
H464 N458 0.984 . S
H465 N458 0.984 . S
H466 N454 0.984 . S
H467 N454 0.985 . S
C468 C469 1.363 . S
C468 C474 1.379 . S
C468 N476 1.356 1_545 S
C469 C468 1.363 . S
C469 C475 1.363 . S
C470 C471 1.363 . S
C470 C475 1.379 . S
C470 N477 1.356 . S
C471 C470 1.363 . S
C471 C474 1.363 . S
N472 C474 1.356 1_565 S
N472 H484 0.984 . S
N472 H485 0.985 . S
N473 C475 1.356 . S
N473 H478 0.984 . S
N473 H479 0.985 . S
C474 C468 1.379 . S
C474 C471 1.363 . S
C474 N472 1.356 1_545 S
C475 C469 1.363 . S
C475 C470 1.379 . S
C475 N473 1.356 . S
N476 C468 1.356 1_565 S
N476 H482 0.984 . S
N476 H483 0.984 . S
N477 C470 1.356 . S
N477 H480 0.984 . S
N477 H481 0.985 . S
H478 N473 0.984 . S
H479 N473 0.985 . S
H480 N477 0.984 . S
H481 N477 0.985 . S
H482 N476 0.984 . S
H483 N476 0.984 . S
H484 N472 0.984 . S
H485 N472 0.985 . S
C486 C487 1.363 . S
C486 C492 1.379 . S
C486 N494 1.356 . S
C487 C486 1.363 . S
C487 C493 1.363 . S
C488 C489 1.363 . S
C488 C493 1.379 . S
C488 N495 1.356 . S
C489 C488 1.363 . S
C489 C492 1.363 . S
N490 C492 1.356 . S
N490 H502 0.984 . S
N490 H503 0.985 . S
N491 C493 1.356 . S
N491 H496 0.984 . S
N491 H497 0.985 . S
C492 C486 1.379 . S
C492 C489 1.363 . S
C492 N490 1.356 . S
C493 C487 1.363 . S
C493 C488 1.379 . S
C493 N491 1.356 . S
N494 C486 1.356 . S
N494 H500 0.984 . S
N494 H501 0.984 . S
N495 C488 1.356 . S
N495 H498 0.984 . S
N495 H499 0.985 . S
H496 N491 0.984 . S
H497 N491 0.985 . S
H498 N495 0.984 . S
H499 N495 0.985 . S
H500 N494 0.984 . S
H501 N494 0.984 . S
H502 N490 0.984 . S
H503 N490 0.985 . S
C504 C505 1.363 . S
C504 C510 1.379 . S
C504 N512 1.356 1_545 S
C505 C504 1.363 . S
C505 C511 1.363 . S
C506 C507 1.363 . S
C506 C511 1.379 . S
C506 N513 1.356 . S
C507 C506 1.363 . S
C507 C510 1.363 . S
N508 C510 1.356 1_565 S
N508 H520 0.984 . S
N508 H521 0.985 . S
N509 C511 1.356 . S
N509 H514 0.984 . S
N509 H515 0.985 . S
C510 C504 1.379 . S
C510 C507 1.363 . S
C510 N508 1.356 1_545 S
C511 C505 1.363 . S
C511 C506 1.379 . S
C511 N509 1.356 . S
N512 C504 1.356 1_565 S
N512 H518 0.984 . S
N512 H519 0.984 1_565 S
N513 C506 1.356 . S
N513 H516 0.984 . S
N513 H517 0.985 . S
H514 N509 0.984 . S
H515 N509 0.985 . S
H516 N513 0.984 . S
H517 N513 0.985 . S
H518 N512 0.984 . S
H519 N512 0.984 1_545 S
H520 N508 0.984 . S
H521 N508 0.985 . S
C522 C523 1.363 . S
C522 C528 1.379 . S
C522 N530 1.356 . S
C523 C522 1.363 . S
C523 C529 1.363 . S
C524 C525 1.363 . S
C524 C529 1.379 1_554 S
C524 N531 1.356 . S
C525 C524 1.363 . S
C525 C528 1.363 1_554 S
N526 C528 1.356 1_554 S
N526 H538 0.984 . S
N526 H539 0.985 . S
N527 C529 1.356 . S
N527 H532 0.984 . S
N527 H533 0.985 . S
C528 C522 1.379 . S
C528 C525 1.363 1_556 S
C528 N526 1.356 1_556 S
C529 C523 1.363 . S
C529 C524 1.379 1_556 S
C529 N527 1.356 . S
N530 C522 1.356 . S
N530 H536 0.984 . S
N530 H537 0.984 . S
N531 C524 1.356 . S
N531 H534 0.984 . S
N531 H535 0.985 . S
H532 N527 0.984 . S
H533 N527 0.985 . S
H534 N531 0.984 . S
H535 N531 0.985 . S
H536 N530 0.984 . S
H537 N530 0.984 . S
H538 N526 0.984 . S
H539 N526 0.985 . S
C540 C541 1.363 1_655 S
C540 C546 1.379 . S
C540 N548 1.356 . S
C541 C540 1.363 1_455 S
C541 C547 1.363 . S
C542 C543 1.363 . S
C542 C547 1.379 . S
C542 N549 1.356 . S
C543 C542 1.363 . S
C543 C546 1.363 1_455 S
N544 C546 1.356 . S
N544 H556 0.984 . S
N544 H557 0.985 . S
N545 C547 1.356 . S
N545 H550 0.984 . S
N545 H551 0.985 . S
C546 C540 1.379 . S
C546 C543 1.363 1_655 S
C546 N544 1.356 . S
C547 C541 1.363 . S
C547 C542 1.379 . S
C547 N545 1.356 . S
N548 C540 1.356 . S
N548 H554 0.984 . S
N548 H555 0.984 . S
N549 C542 1.356 . S
N549 H552 0.984 . S
N549 H553 0.985 . S
H550 N545 0.984 . S
H551 N545 0.985 . S
H552 N549 0.984 . S
H553 N549 0.985 . S
H554 N548 0.984 . S
H555 N548 0.984 . S
H556 N544 0.984 . S
H557 N544 0.985 . S
C235 C10 3.227 . S
C237 C226 3.157 . S
C253 C55 1.352 . S
C255 C188 1.257 . S
C271 C90 2.014 . S
C273 C207 1.982 . S
C289 C19 3.038 . S
C291 C221 3.010 . S
C309 C183 1.161 . S
C307 C46 1.155 . S
C327 C202 1.965 . S
C325 C99 1.964 . S
C343 C50 2.010 . S
C345 C150 1.958 . S
C361 C95 0.746 . S
C363 C164 0.743 . S
C379 C6 1.223 . S
C381 C126 1.215 . S
C399 C145 1.892 . S
C397 C59 1.935 . S
C417 C169 0.761 . S
C415 C86 0.770 . S
C433 C15 1.358 . S
C435 C131 1.292 . S
C453 C160 1.274 . S
C451 C18 1.221 . S
C469 C49 1.563 . S
C471 C122 1.548 . S
C487 C98 1.493 . S
C489 C141 1.502 . S
C507 C198 1.511 . S
C505 C58 1.440 . S
C525 C217 1.795 . S
C523 C89 1.701 . S
C541 C9 1.573 . S
C543 C179 1.563 . S
