# Generated by pormake.
# Topology pyr, (3,6)-cn, num edge types: 1
# Building blocks:
#     Node 0, Type 0, BuildingBlock: MIDCAF_clean_linker_0, # of connection points: 3
#     Node 1, Type 0, BuildingBlock: MIDCAF_clean_linker_0, # of connection points: 3
#     Node 2, Type 0, BuildingBlock: MIDCAF_clean_linker_0, # of connection points: 3
#     Node 3, Type 0, BuildingBlock: MIDCAF_clean_linker_0, # of connection points: 3
#     Node 4, Type 0, BuildingBlock: MIDCAF_clean_linker_0, # of connection points: 3
#     Node 5, Type 0, BuildingBlock: MIDCAF_clean_linker_0, # of connection points: 3
#     Node 6, Type 0, BuildingBlock: MIDCAF_clean_linker_0, # of connection points: 3
#     Node 7, Type 0, BuildingBlock: MIDCAF_clean_linker_0, # of connection points: 3
#     Node 8, Type 1, BuildingBlock: VOLQOD_clean_sbu_1, # of connection points: 6
#     Node 9, Type 1, BuildingBlock: VOLQOD_clean_sbu_1, # of connection points: 6
#     Node 10, Type 1, BuildingBlock: VOLQOD_clean_sbu_1, # of connection points: 6
#     Node 11, Type 1, BuildingBlock: VOLQOD_clean_sbu_1, # of connection points: 6
#     Edge 12, Type (0, 1), BuildingBlock: UVAHIK_clean_linker_0, # of connection points: 2
#     Edge 13, Type (0, 1), BuildingBlock: UVAHIK_clean_linker_0, # of connection points: 2
#     Edge 14, Type (0, 1), BuildingBlock: UVAHIK_clean_linker_0, # of connection points: 2
#     Edge 15, Type (0, 1), BuildingBlock: UVAHIK_clean_linker_0, # of connection points: 2
#     Edge 16, Type (0, 1), BuildingBlock: UVAHIK_clean_linker_0, # of connection points: 2
#     Edge 17, Type (0, 1), BuildingBlock: UVAHIK_clean_linker_0, # of connection points: 2
#     Edge 18, Type (0, 1), BuildingBlock: UVAHIK_clean_linker_0, # of connection points: 2
#     Edge 19, Type (0, 1), BuildingBlock: UVAHIK_clean_linker_0, # of connection points: 2
#     Edge 20, Type (0, 1), BuildingBlock: UVAHIK_clean_linker_0, # of connection points: 2
#     Edge 21, Type (0, 1), BuildingBlock: UVAHIK_clean_linker_0, # of connection points: 2
#     Edge 22, Type (0, 1), BuildingBlock: UVAHIK_clean_linker_0, # of connection points: 2
#     Edge 23, Type (0, 1), BuildingBlock: UVAHIK_clean_linker_0, # of connection points: 2
#     Edge 24, Type (0, 1), BuildingBlock: UVAHIK_clean_linker_0, # of connection points: 2
#     Edge 25, Type (0, 1), BuildingBlock: UVAHIK_clean_linker_0, # of connection points: 2
#     Edge 26, Type (0, 1), BuildingBlock: UVAHIK_clean_linker_0, # of connection points: 2
#     Edge 27, Type (0, 1), BuildingBlock: UVAHIK_clean_linker_0, # of connection points: 2
#     Edge 28, Type (0, 1), BuildingBlock: UVAHIK_clean_linker_0, # of connection points: 2
#     Edge 29, Type (0, 1), BuildingBlock: UVAHIK_clean_linker_0, # of connection points: 2
#     Edge 30, Type (0, 1), BuildingBlock: UVAHIK_clean_linker_0, # of connection points: 2
#     Edge 31, Type (0, 1), BuildingBlock: UVAHIK_clean_linker_0, # of connection points: 2
#     Edge 32, Type (0, 1), BuildingBlock: UVAHIK_clean_linker_0, # of connection points: 2
#     Edge 33, Type (0, 1), BuildingBlock: UVAHIK_clean_linker_0, # of connection points: 2
#     Edge 34, Type (0, 1), BuildingBlock: UVAHIK_clean_linker_0, # of connection points: 2
#     Edge 35, Type (0, 1), BuildingBlock: UVAHIK_clean_linker_0, # of connection points: 2
# Relax obj value: 0.035
# Max RMSD: 0.119
# Mean RMSD: 0.044
data_MOF--net-pry--node1-VOLQOD_clean_sbu_1--node2-MIDCAF_clean_linker_0--edge1-UVAHIK_clean_linker_0
_symmetry_space_group_name_H-M    P1
_symmetry_Int_Tables_number       1
_symmetry_cell_setting            triclinic
loop_
_symmetry_equiv_pos_as_xyz
'x, y, z'
_cell_length_a     55.692029
_cell_length_b     55.713157
_cell_length_c     55.9641
_cell_angle_alpha  90.023993
_cell_angle_beta   90.100241
_cell_angle_gamma 90.208858
loop_
_atom_site_label
_atom_site_type_symbol
_atom_site_fract_x
_atom_site_fract_y
_atom_site_fract_z
_atom_type_partial_charge
C0 C 0.08715 0.1314 0.21569 0.0
C1 C 0.09216 0.10791 0.22325 0.0
C2 C 0.1065 0.09316 0.20881 0.0
C3 C 0.11609 0.10192 0.18746 0.0
H4 H 0.18149 0.10036 0.14926 0.0
H5 H 0.21804 0.08291 0.1333 0.0
H6 H 0.20771 0.12198 0.06737 0.0
H7 H 0.17164 0.14014 0.08369 0.0
H8 H 0.14552 0.19392 0.09524 0.0
H9 H 0.13026 0.23078 0.07785 0.0
H10 H 0.06328 0.22086 0.11561 0.0
H11 H 0.07899 0.18448 0.13381 0.0
H12 H 0.09237 0.15831 0.18893 0.0
H13 H 0.076 0.14307 0.22644 0.0
H14 H 0.11075 0.07503 0.21433 0.0
H15 H 0.12734 0.0902 0.17688 0.0
N16 N 0.14156 0.12425 0.14799 0.0
N17 N 0.1427 0.15321 0.11765 0.0
N18 N 0.11295 0.15504 0.14718 0.0
C19 C 0.15198 0.13321 0.12795 0.0
C20 C 0.12317 0.1642 0.12712 0.0
C21 C 0.12203 0.13504 0.1577 0.0
C22 C 0.17365 0.12174 0.11781 0.0
C23 C 0.18694 0.10517 0.13132 0.0
C24 C 0.20788 0.09504 0.12209 0.0
C25 C 0.2159 0.10102 0.09902 0.0
C26 C 0.20234 0.11728 0.08536 0.0
C27 C 0.18155 0.12761 0.09468 0.0
C28 C 0.11351 0.18625 0.11597 0.0
C29 C 0.12751 0.19955 0.0998 0.0
C30 C 0.11867 0.22066 0.08968 0.0
C31 C 0.09548 0.22887 0.09524 0.0
C32 C 0.08137 0.21537 0.11121 0.0
C33 C 0.09033 0.1944 0.12157 0.0
C34 C 0.11123 0.1255 0.17993 0.0
C35 C 0.09643 0.14005 0.19416 0.0
C36 C 0.31429 0.92216 0.6145 0.0
C37 C 0.30129 0.90925 0.5972 0.0
C38 C 0.31051 0.88739 0.5888 0.0
C39 C 0.33214 0.87846 0.59772 0.0
H40 H 0.3876 0.83146 0.58215 0.0
H41 H 0.40269 0.79407 0.56579 0.0
H42 H 0.44504 0.78306 0.62962 0.0
H43 H 0.43053 0.82097 0.64571 0.0
H44 H 0.44131 0.87235 0.67586 0.0
H45 H 0.45819 0.89011 0.71197 0.0
H46 H 0.39408 0.9327 0.72071 0.0
H47 H 0.37759 0.91563 0.68429 0.0
H48 H 0.34524 0.92343 0.63714 0.0
H49 H 0.30751 0.93897 0.62144 0.0
H50 H 0.30099 0.87718 0.57527 0.0
H51 H 0.33858 0.86145 0.59097 0.0
N52 N 0.37743 0.86119 0.61599 0.0
N53 N 0.40746 0.86167 0.64542 0.0
N54 N 0.37749 0.89115 0.64534 0.0
C55 C 0.3975 0.85139 0.6257 0.0
C56 C 0.39757 0.88162 0.6553 0.0
C57 C 0.36732 0.88107 0.62567 0.0
C58 C 0.40773 0.82919 0.61533 0.0
C59 C 0.40022 0.82116 0.59269 0.0
C60 C 0.40878 0.79961 0.58334 0.0
C61 C 0.4249 0.78539 0.59647 0.0
C62 C 0.43284 0.79367 0.6189 0.0
C63 C 0.42442 0.81537 0.62818 0.0
C64 C 0.40808 0.89254 0.67712 0.0
C65 C 0.43084 0.88556 0.68544 0.0
C66 C 0.44048 0.89567 0.70624 0.0
C67 C 0.42751 0.91286 0.71931 0.0
C68 C 0.40479 0.91986 0.71091 0.0
C69 C 0.39525 0.90992 0.69004 0.0
C70 C 0.34495 0.89111 0.6154 0.0
C71 C 0.33584 0.91316 0.62358 0.0
C72 C 0.60765 0.31919 0.94351 0.0
C73 C 0.58448 0.3108 0.93777 0.0
C74 C 0.56982 0.32502 0.923 0.0
C75 C 0.57844 0.34655 0.91344 0.0
H76 H 0.56737 0.39156 0.85549 0.0
H77 H 0.55071 0.40428 0.8173 0.0
H78 H 0.61374 0.4479 0.80463 0.0
H79 H 0.63004 0.43583 0.84301 0.0
H80 H 0.67203 0.43618 0.87947 0.0
H81 H 0.70997 0.45301 0.89295 0.0
H82 H 0.70112 0.41781 0.96122 0.0
H83 H 0.66351 0.40019 0.94737 0.0
H84 H 0.63432 0.34642 0.93849 0.0
H85 H 0.6196 0.30862 0.95454 0.0
H86 H 0.5517 0.31943 0.91861 0.0
H87 H 0.56681 0.35679 0.90177 0.0
N88 N 0.60114 0.38504 0.88683 0.0
N89 N 0.63139 0.41416 0.88347 0.0
N90 N 0.63216 0.38674 0.91521 0.0
C91 C 0.6109 0.40398 0.87499 0.0
C92 C 0.64205 0.40578 0.90363 0.0
C93 C 0.61168 0.37628 0.90693 0.0
C94 C 0.6001 0.41259 0.85234 0.0
C95 C 0.57761 0.40399 0.84464 0.0
C96 C 0.5681 0.41119 0.82266 0.0
C97 C 0.58091 0.42705 0.80781 0.0
C98 C 0.60319 0.43596 0.81573 0.0
C99 C 0.61263 0.4289 0.83775 0.0
C100 C 0.66472 0.41675 0.9123 0.0
C101 C 0.67809 0.43207 0.8974 0.0
C102 C 0.69984 0.44187 0.90521 0.0
C103 C 0.70867 0.43682 0.92821 0.0
C104 C 0.6951 0.42178 0.94325 0.0
C105 C 0.67345 0.41176 0.93535 0.0
C106 C 0.60183 0.35455 0.91865 0.0
C107 C 0.61616 0.34086 0.93418 0.0
C108 C 0.81525 0.59575 0.43795 0.0
C109 C 0.80739 0.57329 0.42945 0.0
C110 C 0.82202 0.56075 0.41328 0.0
C111 C 0.84363 0.57069 0.40532 0.0
H112 H 0.88499 0.57268 0.34374 0.0
H113 H 0.90114 0.55994 0.30549 0.0
H114 H 0.96415 0.6039 0.3174 0.0
H115 H 0.94761 0.61732 0.3553 0.0
H116 H 0.93741 0.66492 0.3863 0.0
H117 H 0.95046 0.70388 0.40115 0.0
H118 H 0.90076 0.69798 0.45998 0.0
H119 H 0.88764 0.65881 0.44529 0.0
H120 H 0.84218 0.62317 0.43672 0.0
H121 H 0.80431 0.60608 0.45017 0.0
H122 H 0.81676 0.54321 0.4067 0.0
H123 H 0.85428 0.56061 0.39265 0.0
N124 N 0.88429 0.59509 0.3843 0.0
N125 N 0.91288 0.62601 0.38492 0.0
N126 N 0.8825 0.62491 0.41384 0.0
C127 C 0.90405 0.60569 0.37475 0.0
C128 C 0.90228 0.63574 0.40448 0.0
C129 C 0.87346 0.60451 0.4039 0.0
C130 C 0.91489 0.5962 0.35253 0.0
C131 C 0.90239 0.57949 0.33833 0.0
C132 C 0.91173 0.57207 0.31639 0.0
C133 C 0.93391 0.58099 0.30823 0.0
C134 C 0.9468 0.59704 0.32287 0.0
C135 C 0.93736 0.60464 0.3447 0.0
C136 C 0.91132 0.65872 0.41449 0.0
C137 C 0.92932 0.67175 0.40251 0.0
C138 C 0.93675 0.69417 0.41093 0.0
C139 C 0.92651 0.70403 0.43161 0.0
C140 C 0.90906 0.69075 0.44406 0.0
C141 C 0.90148 0.66836 0.43554 0.0
C142 C 0.85125 0.59336 0.41346 0.0
C143 C 0.83695 0.60563 0.43012 0.0
C144 C 0.83795 0.96966 0.93564 0.0
C145 C 0.8286 0.96032 0.95698 0.0
C146 C 0.84322 0.94579 0.9714 0.0
C147 C 0.86643 0.93979 0.96401 0.0
H148 H 0.91709 0.88549 0.9722 0.0
H149 H 0.93087 0.84535 0.98307 0.0
H150 H 0.98131 0.84676 0.92462 0.0
H151 H 0.96776 0.88668 0.91367 0.0
H152 H 0.97201 0.93296 0.88139 0.0
H153 H 0.98447 0.94505 0.84151 0.0
H154 H 0.91852 0.98479 0.83296 0.0
H155 H 0.90635 0.97334 0.87305 0.0
H156 H 0.86754 0.97103 0.91153 0.0
H157 H 0.82711 0.98112 0.92434 0.0
H158 H 0.83637 0.93832 0.98791 0.0
H159 H 0.87702 0.92796 0.97514 0.0
N160 N 0.91011 0.92091 0.94278 0.0
N161 N 0.93989 0.92277 0.91329 0.0
N162 N 0.90858 0.95065 0.91317 0.0
C163 C 0.9306 0.91206 0.93303 0.0
C164 C 0.92909 0.94212 0.9033 0.0
C165 C 0.89906 0.94031 0.933 0.0
C166 C 0.94107 0.88927 0.94185 0.0
C167 C 0.93136 0.87741 0.96185 0.0
C168 C 0.93929 0.85446 0.96816 0.0
C169 C 0.95692 0.84288 0.95448 0.0
C170 C 0.96742 0.85515 0.93524 0.0
C171 C 0.95968 0.87811 0.92906 0.0
C172 C 0.93804 0.95193 0.88037 0.0
C173 C 0.96028 0.94454 0.87115 0.0
C174 C 0.96739 0.95136 0.84821 0.0
C175 C 0.95235 0.96561 0.83388 0.0
C176 C 0.93065 0.97397 0.84355 0.0
C177 C 0.92361 0.96728 0.86656 0.0
C178 C 0.87552 0.94848 0.9422 0.0
C179 C 0.86118 0.96393 0.92839 0.0
C180 C 0.58862 0.03263 0.34493 0.0
C181 C 0.56782 0.04107 0.33352 0.0
C182 C 0.5526 0.0568 0.34588 0.0
C183 C 0.55875 0.06497 0.3687 0.0
H184 H 0.5523 0.1269 0.40641 0.0
H185 H 0.53827 0.16707 0.41602 0.0
H186 H 0.58281 0.16775 0.47922 0.0
H187 H 0.59695 0.12745 0.46976 0.0
H188 H 0.64534 0.09559 0.46574 0.0
H189 H 0.68527 0.08466 0.47942 0.0
H190 H 0.68076 0.01845 0.4394 0.0
H191 H 0.64108 0.02965 0.42512 0.0
H192 H 0.61125 0.03432 0.37575 0.0
H193 H 0.60052 0.02026 0.33589 0.0
H194 H 0.53652 0.06371 0.33747 0.0
H195 H 0.54705 0.07779 0.37736 0.0
N196 N 0.57767 0.08886 0.4105 0.0
N197 N 0.60626 0.09202 0.44112 0.0
N198 N 0.60816 0.06021 0.41376 0.0
C199 C 0.58642 0.10064 0.42992 0.0
C200 C 0.61717 0.07173 0.43323 0.0
C201 C 0.58835 0.06859 0.40235 0.0
C202 C 0.57595 0.12396 0.43719 0.0
C203 C 0.55895 0.13541 0.42252 0.0
C204 C 0.55098 0.15851 0.42793 0.0
C205 C 0.55962 0.17059 0.44823 0.0
C206 C 0.57578 0.1588 0.4635 0.0
C207 C 0.58395 0.13576 0.45799 0.0
C208 C 0.64006 0.06366 0.44406 0.0
C209 C 0.65269 0.07856 0.46006 0.0
C210 C 0.67561 0.07223 0.46803 0.0
C211 C 0.68636 0.05078 0.46032 0.0
C212 C 0.67322 0.03534 0.44527 0.0
C213 C 0.65039 0.04172 0.43719 0.0
C214 C 0.58017 0.05744 0.37969 0.0
C215 C 0.59468 0.04062 0.36782 0.0
C216 C 0.33679 0.55974 0.0862 0.0
C217 C 0.32764 0.56982 0.0651 0.0
C218 C 0.34239 0.585 0.05145 0.0
C219 C 0.36546 0.59099 0.05945 0.0
H220 H 0.41718 0.64489 0.05244 0.0
H221 H 0.43113 0.68503 0.0415 0.0
H222 H 0.47548 0.68732 0.10479 0.0
H223 H 0.4617 0.64737 0.11584 0.0
H224 H 0.45705 0.60888 0.15446 0.0
H225 H 0.46817 0.59331 0.19361 0.0
H226 H 0.42744 0.52873 0.17977 0.0
H227 H 0.41606 0.54426 0.14052 0.0
H228 H 0.36607 0.55786 0.11076 0.0
H229 H 0.32584 0.54776 0.0969 0.0
H230 H 0.33571 0.59305 0.03514 0.0
H231 H 0.37611 0.60341 0.04896 0.0
N232 N 0.40808 0.61036 0.08249 0.0
N233 N 0.43697 0.60875 0.11295 0.0
N234 N 0.40683 0.57941 0.11087 0.0
C235 C 0.42792 0.61971 0.09324 0.0
C236 C 0.42667 0.5885 0.12177 0.0
C237 C 0.39744 0.59018 0.09119 0.0
C238 C 0.43813 0.64293 0.08514 0.0
C239 C 0.43009 0.65383 0.06391 0.0
C240 C 0.43815 0.67676 0.05757 0.0
C241 C 0.4542 0.68932 0.07243 0.0
C242 C 0.46286 0.67814 0.09318 0.0
C243 C 0.45502 0.65517 0.09941 0.0
C244 C 0.43548 0.5779 0.14439 0.0
C245 C 0.45067 0.59123 0.15955 0.0
C246 C 0.45697 0.5824 0.18203 0.0
C247 C 0.44851 0.55993 0.18971 0.0
C248 C 0.43426 0.54608 0.1742 0.0
C249 C 0.42766 0.55505 0.15181 0.0
C250 C 0.37429 0.58166 0.08111 0.0
C251 C 0.35991 0.56546 0.09405 0.0
C252 C 0.0786 0.33478 0.56058 0.0
C253 C 0.06056 0.3235 0.57409 0.0
C254 C 0.05008 0.33607 0.59314 0.0
C255 C 0.05808 0.35908 0.59914 0.0
H256 H 0.05653 0.40539 0.65456 0.0
H257 H 0.04473 0.42163 0.69321 0.0
H258 H 0.08651 0.48554 0.67962 0.0
H259 H 0.0986 0.46934 0.64088 0.0
H260 H 0.14995 0.45359 0.61323 0.0
H261 H 0.19037 0.46328 0.59965 0.0
H262 H 0.17954 0.41959 0.53683 0.0
H263 H 0.13901 0.40963 0.55039 0.0
H264 H 0.10112 0.36564 0.55627 0.0
H265 H 0.0871 0.32547 0.54587 0.0
H266 H 0.03589 0.32796 0.60365 0.0
H267 H 0.04992 0.36796 0.61429 0.0
N268 N 0.07767 0.40464 0.61365 0.0
N269 N 0.10818 0.43364 0.61199 0.0
N270 N 0.10727 0.40226 0.58405 0.0
C271 C 0.08798 0.42492 0.62246 0.0
C272 C 0.1179 0.42247 0.59273 0.0
C273 C 0.08709 0.39326 0.59437 0.0
C274 C 0.07871 0.43597 0.64467 0.0
C275 C 0.063 0.42305 0.65959 0.0
C276 C 0.05629 0.43226 0.68178 0.0
C277 C 0.06485 0.45473 0.68939 0.0
C278 C 0.0796 0.4682 0.67408 0.0
C279 C 0.0866 0.45885 0.65198 0.0
C280 C 0.14127 0.43065 0.583 0.0
C281 C 0.15598 0.44627 0.59635 0.0
C282 C 0.17919 0.45174 0.58867 0.0
C283 C 0.18809 0.44201 0.56732 0.0
C284 C 0.17305 0.42737 0.55334 0.0
C285 C 0.14991 0.4216 0.56118 0.0
C286 C 0.07685 0.37002 0.58629 0.0
C287 C 0.0867 0.35777 0.56664 0.0
O288 O 0.99421 0.06277 0.53788 0.0
Zn289 Zn 0.98231 0.02859 0.53697 0.0
O290 O 0.0031 0.00838 0.51746 0.0
Zn291 Zn 0.98594 0.99814 0.48866 0.0
Zn292 Zn 0.03167 0.02678 0.50866 0.0
Zn293 Zn 0.01247 0.98009 0.53576 0.0
O294 O 0.98466 0.96207 0.48637 0.0
O295 O -0.00042 0.94964 0.52101 0.0
O296 O 0.94854 0.02854 0.5242 0.0
O297 O 0.95148 0.00915 0.48967 0.0
O298 O 0.00158 0.01117 0.45879 0.0
O299 O 0.03342 0.03065 0.473 0.0
O300 O 0.06203 0.01055 0.51986 0.0
O301 O 0.98126 0.01682 0.57094 0.0
O302 O 0.04841 0.97723 0.53696 0.0
O303 O 0.00104 0.98232 0.56981 0.0
C304 C 0.01412 0.07243 0.53207 0.0
C305 C 0.98979 0.94524 0.50088 0.0
C306 C 0.02041 0.02381 0.45553 0.0
C307 C 0.93907 0.02048 0.50507 0.0
C308 C 0.06575 0.99067 0.53045 0.0
C309 C 0.98923 0.9981 0.58127 0.0
O310 O 0.03057 0.06033 0.52192 0.0
O311 O 0.50691 0.05757 0.99395 0.0
Zn312 Zn 0.49309 0.02423 0.99606 0.0
O313 O 0.51276 0.00397 0.01687 0.0
Zn314 Zn 0.52684 0.97814 0.99796 0.0
Zn315 Zn 0.53839 0.02326 0.03139 0.0
Zn316 Zn 0.49274 0.99011 0.04205 0.0
O317 O 0.51753 0.9457 0.01083 0.0
O318 O 0.49268 0.954 0.04065 0.0
O319 O 0.49094 0.0107 0.96255 0.0
O320 O 0.515 0.97908 0.96414 0.0
O321 O 0.56293 0.98049 0.99745 0.0
O322 O 0.57094 0.01083 0.02199 0.0
O323 O 0.53668 0.02243 0.06731 0.0
O324 O 0.45942 0.02719 0.00899 0.0
O325 O 0.50488 -0.00053 0.07465 0.0
O326 O 0.45871 0.00185 0.03961 0.0
C327 C 0.52371 0.0685 0.00501 0.0
C328 C 0.5036 0.93889 0.02754 0.0
C329 C 0.5779 0.99409 0.00816 0.0
C330 C 0.50081 0.99269 0.9526 0.0
C331 C 0.52243 0.01223 0.08194 0.0
C332 C 0.44827 0.01691 0.02603 0.0
O333 O 0.53669 0.05775 0.0204 0.0
O334 O 0.5254 0.49413 0.55303 0.0
Zn335 Zn 0.52318 0.50656 0.51931 0.0
O336 O 0.50259 0.48603 0.49952 0.0
Zn337 Zn 0.5212 0.47252 0.47306 0.0
Zn338 Zn 0.48958 0.46006 0.5192 0.0
Zn339 Zn 0.47619 0.50508 0.4866 0.0
O340 O 0.50753 0.48237 0.44114 0.0
O341 O 0.4776 0.50672 0.45075 0.0
O342 O 0.55666 0.50817 0.50598 0.0
O343 O 0.55552 0.48436 0.47415 0.0
O344 O 0.52136 0.43631 0.47435 0.0
O345 O 0.49944 0.42785 0.5064 0.0
O346 O 0.45342 0.46106 0.52016 0.0
O347 O 0.5102 0.54021 0.52141 0.0
O348 O 0.44415 0.49102 0.4957 0.0
O349 O 0.47704 0.53883 0.49941 0.0
C350 C 0.51581 0.47643 0.56383 0.0
C351 C 0.49058 0.49643 0.43513 0.0
C352 C 0.51197 0.42114 0.48862 0.0
C353 C 0.56692 0.49845 0.48813 0.0
C354 C 0.43789 0.474 0.50956 0.0
C355 C 0.49158 0.55027 0.51284 0.0
O356 O 0.50168 0.46205 0.55302 0.0
O357 O 0.98958 0.51723 0.05276 0.0
Zn358 Zn 0.9922 0.50526 0.01894 0.0
O359 O 0.01246 0.52627 -0.00047 0.0
Zn360 Zn 0.99345 0.54067 0.97373 0.0
Zn361 Zn 0.02583 0.55156 0.01988 0.0
Zn362 Zn 0.03848 0.50736 0.98572 0.0
O363 O 0.00644 0.53153 0.94125 0.0
O364 O 0.0365 0.50694 0.94994 0.0
O365 O 0.95891 0.50307 0.0052 0.0
O366 O 0.95904 0.52905 0.97509 0.0
O367 O 0.99363 0.57682 0.97606 0.0
O368 O 0.01604 0.58421 0.00812 0.0
O369 O 0.06199 0.55021 0.02046 0.0
O370 O 0.00573 0.47194 0.02091 0.0
O371 O 0.07073 0.52096 0.99497 0.0
O372 O 0.03762 0.47307 0.99723 0.0
C373 C -0.00053 0.53447 0.06406 0.0
C374 C 0.02329 0.5176 0.93472 0.0
C375 C 0.00331 0.59151 0.99067 0.0
C376 C 0.94817 0.51378 0.98818 0.0
C377 C 0.07728 0.53751 0.00929 0.0
C378 C 0.0237 0.46172 0.01132 0.0
O379 O 0.01395 0.5488 0.05371 0.0
C380 C 0.07171 0.07655 0.24815 0.0
C381 C 0.08304 0.09904 0.24647 0.0
C382 C 0.06346 0.06811 0.27019 0.0
C383 C 0.04946 0.08853 0.33209 0.0
H384 H 0.05505 0.02077 0.34694 0.0
C385 C 0.04267 0.05097 0.4277 0.0
C386 C 0.02697 0.03145 0.43108 0.0
C387 C 0.04836 0.05884 0.40472 0.0
C388 C 0.05321 0.0397 0.34291 0.0
H389 H 0.09503 0.13016 0.26644 0.0
H390 H 0.08142 0.11521 0.30499 0.0
H391 H 0.06732 0.03537 0.30768 0.0
H392 H 0.00525 0.00462 0.41297 0.0
H393 H 0.01571 0.01814 0.37264 0.0
H394 H 0.03619 0.09284 0.36774 0.0
C395 C 0.07812 0.10433 0.28928 0.0
C396 C 0.06013 0.04809 0.3204 0.0
C397 C 0.08604 0.1129 0.26721 0.0
C398 C 0.01735 0.01974 0.41094 0.0
C399 C 0.02338 0.02739 0.3879 0.0
C400 C 0.0429 0.08017 0.35468 0.0
C401 C 0.06667 0.08183 0.29109 0.0
C402 C 0.05849 0.07266 0.31474 0.0
C403 C 0.03877 0.04715 0.38462 0.0
C404 C 0.04484 0.05572 0.36034 0.0
H405 H 0.069 0.06562 0.23235 0.0
H406 H 0.05437 0.0509 0.27077 0.0
H407 H 0.04739 0.10745 0.32826 0.0
H408 H 0.05032 0.06044 0.44282 0.0
H409 H 0.06043 0.07398 0.40264 0.0
C410 C 0.43343 0.94732 0.74784 0.0
C411 C 0.43733 0.9231 0.74189 0.0
C412 C 0.44167 0.95663 0.76955 0.0
C413 C 0.48532 0.94662 0.81782 0.0
H414 H 0.44054 0.9825 0.85685 0.0
C415 C 0.50287 0.96501 0.91744 0.0
C416 C 0.49522 0.98687 0.92735 0.0
C417 C 0.49695 0.95893 0.89397 0.0
C418 C 0.45344 0.9729 0.84604 0.0
H419 H 0.45315 0.88976 0.75423 0.0
H420 H 0.46794 0.90619 0.79185 0.0
H421 H 0.4284 0.96891 0.8172 0.0
H422 H 0.47575 0.01974 0.92011 0.0
H423 H 0.46585 0.00934 0.87889 0.0
H424 H 0.51042 0.95062 0.8465 0.0
C425 C 0.45858 0.91796 0.7796 0.0
C426 C 0.44644 0.96506 0.82334 0.0
C427 C 0.45015 0.90858 0.75799 0.0
C428 C 0.48182 0.00269 0.91307 0.0
C429 C 0.47603 0.99667 0.88948 0.0
C430 C 0.49241 0.95463 0.84042 0.0
C431 C 0.45423 0.94201 0.7857 0.0
C432 C 0.4622 0.95157 0.80914 0.0
C433 C 0.4834 0.97462 0.87969 0.0
C434 C 0.47644 0.96758 0.85496 0.0
H435 H 0.42404 0.95916 0.73569 0.0
H436 H 0.43833 0.97532 0.77367 0.0
H437 H 0.49796 0.93654 0.80711 0.0
H438 H 0.51309 0.9523 0.92795 0.0
H439 H 0.50256 0.94162 0.88722 0.0
C440 C 0.56013 0.41634 0.76933 0.0
C441 C 0.57158 0.43362 0.78377 0.0
C442 C 0.55258 0.42211 0.74623 0.0
C443 C 0.56584 0.46324 0.69708 0.0
H444 H 0.50405 0.44259 0.67234 0.0
C445 C 0.53351 0.48995 0.60283 0.0
C446 C 0.5212 0.47244 0.58944 0.0
C447 C 0.53866 0.48612 0.62697 0.0
C448 C 0.52149 0.44825 0.67888 0.0
H449 H 0.58319 0.47081 0.78546 0.0
H450 H 0.57036 0.48072 0.74496 0.0
H451 H 0.51456 0.43424 0.71385 0.0
H452 H 0.50474 0.4371 0.59094 0.0
H453 H 0.51422 0.4302 0.63282 0.0
H454 H 0.57311 0.47672 0.66207 0.0
C455 C 0.56747 0.46265 0.75152 0.0
C456 C 0.52745 0.44353 0.70267 0.0
C457 C 0.57486 0.45694 0.77469 0.0
C458 C 0.51414 0.45103 0.60075 0.0
C459 C 0.51944 0.44713 0.62484 0.0
C460 C 0.55997 0.46779 0.67324 0.0
C461 C 0.55644 0.44524 0.73699 0.0
C462 C 0.54971 0.45092 0.71199 0.0
C463 C 0.53178 0.46462 0.63826 0.0
C464 C 0.53776 0.46028 0.6638 0.0
H465 H 0.55765 0.3981 0.77557 0.0
H466 H 0.54438 0.40825 0.73533 0.0
H467 H 0.58328 0.46883 0.70368 0.0
H468 H 0.53907 0.50672 0.59472 0.0
H469 H 0.54785 0.50014 0.63684 0.0
C470 C 0.93961 0.55115 0.27493 0.0
C471 C 0.943 0.57443 0.28413 0.0
C472 C 0.94699 0.54549 0.25175 0.0
C473 C 0.9874 0.56464 0.20342 0.0
H474 H 0.94175 0.53238 0.16189 0.0
C475 C 0.00118 0.55904 0.10155 0.0
C476 C 0.99399 0.53795 0.0897 0.0
C477 C 0.99578 0.56245 0.12567 0.0
C478 C 0.95489 0.54105 0.17332 0.0
H479 H 0.95692 0.60997 0.27601 0.0
H480 H 0.97021 0.59988 0.23584 0.0
H481 H 0.93141 0.53969 0.20355 0.0
H482 H 0.97582 0.50371 0.09406 0.0
H483 H 0.9669 0.50942 0.13625 0.0
H484 H 0.01097 0.56591 0.17333 0.0
C485 C 0.96197 0.586 0.24666 0.0
C486 C 0.94892 0.54526 0.19718 0.0
C487 C 0.95441 0.59174 0.26973 0.0
C488 C 0.98147 0.52026 0.10259 0.0
C489 C 0.97625 0.52358 0.12677 0.0
C490 C 0.99347 0.56025 0.17961 0.0
C491 C 0.95812 0.5629 0.23735 0.0
C492 C 0.96502 0.5573 0.21241 0.0
C493 C 0.98324 0.54477 0.1386 0.0
C494 C 0.97719 0.5486 0.16419 0.0
H495 H 0.93126 0.53727 0.28564 0.0
H496 H 0.94406 0.52745 0.24511 0.0
H497 H 0.00027 0.5737 0.21486 0.0
H498 H 0.01073 0.5731 0.09212 0.0
H499 H 0.0011 0.57917 0.13407 0.0
C500 C 0.25417 0.10479 0.07546 0.0
C501 C 0.23857 0.09071 0.08946 0.0
C502 C 0.27576 0.09536 0.06703 0.0
C503 C 0.32084 0.05014 0.08083 0.0
H504 H 0.34132 0.05953 0.01529 0.0
C505 C 0.40891 0.00917 0.04625 0.0
C506 C 0.42297 0.02333 0.03088 0.0
C507 C 0.38549 0.01595 0.05196 0.0
C508 C 0.33602 0.05698 0.03373 0.0
H509 H 0.23334 0.05537 0.10498 0.0
H510 H 0.27136 0.03917 0.09076 0.0
H511 H 0.30222 0.0744 0.02808 0.0
H512 H 0.42335 0.05559 0.00919 0.0
H513 H 0.38281 0.06781 0.01968 0.0
H514 H 0.35478 0.03347 0.08684 0.0
C515 C 0.2668 0.05755 0.08643 0.0
C516 C 0.31358 0.06543 0.041 0.0
C517 C 0.24508 0.06689 0.09465 0.0
C518 C 0.41294 0.0442 0.02099 0.0
C519 C 0.38961 0.05114 0.02692 0.0
C520 C 0.34337 0.04193 0.07365 0.0
C521 C 0.28238 0.07172 0.07262 0.0
C522 C 0.30582 0.06214 0.06463 0.0
C523 C 0.37565 0.03723 0.04267 0.0
C524 C 0.3513 0.0453 0.05002 0.0
H525 H 0.25 0.12333 0.07145 0.0
H526 H 0.28759 0.10677 0.05667 0.0
H527 H 0.31543 0.04766 0.09925 0.0
H528 H 0.41602 0.99285 0.054 0.0
H529 H 0.37512 0.00452 0.06374 0.0
C530 C 0.25813 0.90256 0.58644 0.0
C531 C 0.27786 0.91822 0.58839 0.0
C532 C 0.23588 0.91101 0.57869 0.0
C533 C 0.20067 0.96685 0.57219 0.0
H534 H 0.16005 0.9265 0.53251 0.0
C535 C 0.11006 0.99892 0.53263 0.0
C536 C 0.09067 0.98294 0.53544 0.0
C537 C 0.13349 0.99161 0.53782 0.0
C538 C 0.17117 0.93791 0.54368 0.0
H539 H 0.2899 0.95489 0.58335 0.0
H540 H 0.2511 0.96963 0.5694 0.0
H541 H 0.20006 0.91276 0.54358 0.0
H542 H 0.08077 0.94663 0.54565 0.0
H543 H 0.1216 0.93392 0.55454 0.0
H544 H 0.17169 0.99204 0.57212 0.0
C545 C 0.25268 0.95091 0.57432 0.0
C546 C 0.19406 0.93002 0.5501 0.0
C547 C 0.27492 0.94248 0.58225 0.0
C548 C 0.09527 0.95943 0.54331 0.0
C549 C 0.11868 0.95207 0.54826 0.0
C550 C 0.17783 0.97481 0.56561 0.0
C551 C 0.23285 0.93529 0.57253 0.0
C552 C 0.20899 0.94426 0.56468 0.0
C553 C 0.13802 0.9681 0.54567 0.0
C554 C 0.16275 0.96029 0.55153 0.0
H555 H 0.25977 0.88385 0.59141 0.0
H556 H 0.22091 0.89856 0.57799 0.0
H557 H 0.21153 0.97814 0.58371 0.0
H558 H 0.10715 0.01716 0.52662 0.0
H559 H 0.14811 0.00428 0.53552 0.0
C560 C 0.73946 0.47001 0.92939 0.0
C561 C 0.7322 0.44677 0.9362 0.0
C562 C 0.76202 0.4789 0.93597 0.0
C563 C 0.8108 0.47148 0.97944 0.0
H564 H 0.85116 0.49899 0.93005 0.0
C565 C 0.91186 0.48784 0.99403 0.0
C566 C 0.92267 0.50794 0.98329 0.0
C567 C 0.88803 0.48183 0.98899 0.0
C568 C 0.84002 0.49176 0.94418 0.0
H569 H 0.74313 0.41476 0.95543 0.0
H570 H 0.7822 0.43056 0.96737 0.0
H571 H 0.81039 0.4862 0.92032 0.0
H572 H 0.9167 0.53782 0.95917 0.0
H573 H 0.87489 0.52771 0.95086 0.0
H574 H 0.8402 0.47719 0.0034 0.0
C575 C 0.77033 0.44187 0.95699 0.0
C576 C 0.81668 0.48437 0.93856 0.0
C577 C 0.74789 0.43287 0.9502 0.0
C578 C 0.90897 0.52211 0.96763 0.0
C579 C 0.88502 0.51623 0.96276 0.0
C580 C 0.83404 0.4791 0.98514 0.0
C581 C 0.7777 0.46487 0.94975 0.0
C582 C 0.80195 0.4739 0.95606 0.0
C583 C 0.87429 0.49592 0.97327 0.0
C584 C 0.84907 0.48906 0.96752 0.0
H585 H 0.7277 0.48142 0.91902 0.0
H586 H 0.76716 0.49681 0.9304 0.0
H587 H 0.7997 0.46375 0.99335 0.0
H588 H 0.92193 0.47642 0.00605 0.0
H589 H 0.88056 0.46581 0.99707 0.0
C590 C 0.76896 0.55139 0.42014 0.0
C591 C 0.78368 0.56337 0.4368 0.0
C592 C 0.74631 0.54285 0.42674 0.0
C593 C 0.69805 0.55342 0.46973 0.0
H594 H 0.67533 0.49063 0.44981 0.0
C595 C 0.60635 0.51659 0.50026 0.0
C596 C 0.59249 0.50405 0.48331 0.0
C597 C 0.63023 0.52258 0.49548 0.0
C598 C 0.68129 0.50832 0.45529 0.0
H599 H 0.78628 0.57513 0.4737 0.0
H600 H 0.74654 0.56055 0.48506 0.0
H601 H 0.71608 0.50334 0.43979 0.0
H602 H 0.59299 0.48782 0.44807 0.0
H603 H 0.63447 0.49874 0.4395 0.0
H604 H 0.66322 0.55875 0.48473 0.0
C605 C 0.75253 0.55796 0.46684 0.0
C606 C 0.70466 0.51555 0.44961 0.0
C607 C 0.77527 0.56636 0.4603 0.0
C608 C 0.60317 0.4974 0.46157 0.0
C609 C 0.62703 0.50355 0.45671 0.0
C610 C 0.67465 0.54628 0.47526 0.0
C611 C 0.73777 0.54624 0.45009 0.0
C612 C 0.71325 0.5382 0.45672 0.0
C613 C 0.64082 0.51635 0.47355 0.0
C614 C 0.66594 0.52366 0.46807 0.0
H615 H 0.77464 0.54913 0.40179 0.0
H616 H 0.73519 0.53417 0.41336 0.0
H617 H 0.70406 0.57113 0.47514 0.0
H618 H 0.59876 0.52182 0.51728 0.0
H619 H 0.64043 0.53204 0.50905 0.0
C620 C 0.09216 0.25816 0.06115 0.0
C621 C 0.08626 0.2516 0.08471 0.0
C622 C 0.08429 0.27994 0.05161 0.0
C623 C 0.0384 0.32638 0.05768 0.0
H624 H 0.08564 0.36846 0.02862 0.0
C625 C 0.0183 0.42569 0.03748 0.0
C626 C 0.02905 0.43646 0.01746 0.0
C627 C 0.02431 0.40232 0.04416 0.0
C628 C 0.07208 0.3568 0.03624 0.0
H629 H 0.06729 0.26298 0.11663 0.0
H630 H 0.05302 0.30061 0.09966 0.0
H631 H 0.09769 0.32896 0.04281 0.0
H632 H 0.05395 0.43084 0.98825 0.0
H633 H 0.06386 0.38979 -0.00058 0.0
H634 H 0.01268 0.35394 0.05088 0.0
C635 C 0.06373 0.2888 0.08864 0.0
C636 C 0.07905 0.3342 0.04446 0.0
C637 C 0.07186 0.26718 0.0983 0.0
C638 C 0.0455 0.42312 0.0039 0.0
C639 C 0.05129 0.39962 0.01041 0.0
C640 C 0.03135 0.34886 0.04917 0.0
C641 C 0.07006 0.29547 0.06529 0.0
C642 C 0.06234 0.3189 0.0555 0.0
C643 C 0.041 0.38901 0.0308 0.0
C644 C 0.04816 0.3645 0.0386 0.0
H645 H 0.10279 0.24644 0.04997 0.0
H646 H 0.08919 0.28456 0.03346 0.0
H647 H 0.02511 0.31479 0.06587 0.0
H648 H 0.00567 0.43552 0.04842 0.0
H649 H 0.01631 0.39497 0.0602 0.0
C650 C 0.58261 0.27812 0.96886 0.0
C651 C 0.57614 0.28682 0.94616 0.0
C652 C 0.57597 0.25499 0.97604 0.0
C653 C 0.55666 0.19642 0.95081 0.0
H654 H 0.53994 0.18203 0.01652 0.0
C655 C 0.5179 0.10486 0.97935 0.0
C656 C 0.52855 0.09405 -0.00057 0.0
C657 C 0.52308 0.12868 0.97351 0.0
C658 C 0.54472 0.1858 0.99814 0.0
H659 H 0.55727 0.27787 0.91333 0.0
H660 H 0.54482 0.23817 0.92621 0.0
H661 H 0.54955 0.22328 0.00513 0.0
H662 H 0.5526 0.10005 0.02943 0.0
H663 H 0.56143 0.14181 0.01928 0.0
H664 H 0.55146 0.15899 0.94381 0.0
C665 C 0.55553 0.24899 0.93831 0.0
C666 C 0.5503 0.2094 0.9916 0.0
C667 C 0.56235 0.27199 0.93106 0.0
C668 C 0.54415 0.10779 0.0138 0.0
C669 C 0.54911 0.13174 0.00809 0.0
C670 C 0.55085 0.17292 0.9573 0.0
C671 C 0.56253 0.24004 0.96075 0.0
C672 C 0.55635 0.21501 0.96784 0.0
C673 C 0.53881 0.14233 0.98775 0.0
C674 C 0.54484 0.16736 0.98102 0.0
H675 H 0.59293 0.28914 0.98111 0.0
H676 H 0.58187 0.24867 0.99336 0.0
H677 H 0.56175 0.19991 0.93247 0.0
H678 H 0.50581 0.09482 0.96789 0.0
H679 H 0.5147 0.13648 0.95786 0.0
C680 C 0.93805 0.73337 0.46381 0.0
C681 C 0.93337 0.7285 0.43959 0.0
C682 C 0.94432 0.75656 0.47116 0.0
C683 C 0.93891 0.81974 0.45344 0.0
H684 H 0.99295 0.83034 0.49598 0.0
C685 C 0.9763 0.91447 0.47103 0.0
C686 C 0.98391 0.92013 0.49433 0.0
C687 C 0.9703 0.8909 0.4649 0.0
C688 C 0.9776 0.82769 0.48436 0.0
H689 H 0.93126 0.74412 0.40417 0.0
H690 H 0.94222 0.78455 0.417 0.0
H691 H 0.98182 0.78946 0.48464 0.0
H692 H 0.99121 0.90536 0.52946 0.0
H693 H 0.98025 0.86433 0.5189 0.0
H694 H 0.93439 0.85781 0.4533 0.0
C695 C 0.94104 0.77047 0.43029 0.0
C696 C 0.97127 0.80427 0.47785 0.0
C697 C 0.935 0.74728 0.42292 0.0
C698 C 0.98551 0.90162 0.51132 0.0
C699 C 0.97934 0.87804 0.50523 0.0
C700 C 0.9451 0.84311 0.46009 0.0
C701 C 0.94574 0.77536 0.45447 0.0
C702 C 0.95199 0.80009 0.46215 0.0
C703 C 0.97157 0.87241 0.48196 0.0
C704 C 0.96465 0.84742 0.47546 0.0
H705 H 0.93705 0.71919 0.47701 0.0
H706 H 0.94772 0.75987 0.48994 0.0
H707 H 0.92372 0.81702 0.44162 0.0
H708 H 0.97504 0.92824 0.45744 0.0
H709 H 0.96485 0.88716 0.44669 0.0
C710 C 0.4164 0.74676 0.57489 0.0
C711 C 0.43275 0.76169 0.58708 0.0
C712 C 0.4235 0.72439 0.56628 0.0
C713 C 0.47718 0.68839 0.55095 0.0
H714 H 0.43223 0.63527 0.55557 0.0
C715 C 0.50266 0.58914 0.53283 0.0
C716 C 0.48614 0.57541 0.51952 0.0
C717 C 0.49688 0.61237 0.54028 0.0
C718 C 0.44489 0.64999 0.55394 0.0
H719 H 0.46955 0.76474 0.59952 0.0
H720 H 0.48174 0.72531 0.58515 0.0
H721 H 0.42085 0.67459 0.57065 0.0
H722 H 0.45075 0.57561 0.50316 0.0
H723 H 0.44072 0.61606 0.51621 0.0
H724 H 0.50135 0.66347 0.53456 0.0
C725 C 0.4635 0.73113 0.58192 0.0
C726 C 0.43837 0.67255 0.56254 0.0
C727 C 0.45642 0.75362 0.59043 0.0
C728 C 0.4639 0.58563 0.51343 0.0
C729 C 0.45807 0.60876 0.52102 0.0
C730 C 0.48377 0.66573 0.54249 0.0
C731 C 0.44709 0.7162 0.5698 0.0
C732 C 0.45436 0.69209 0.56102 0.0
C733 C 0.47439 0.62228 0.53473 0.0
C734 C 0.46763 0.64634 0.54378 0.0
H735 H 0.39793 0.7522 0.57226 0.0
H736 H 0.41046 0.71354 0.55673 0.0
H737 H 0.48982 0.7031 0.54921 0.0
H738 H 0.51997 0.58185 0.5378 0.0
H739 H 0.50976 0.62233 0.55094 0.0
C740 C 0.96832 0.95195 0.79431 0.0
C741 C 0.95841 0.97027 0.80844 0.0
C742 C 0.97243 0.95554 0.76998 0.0
C743 C 0.97827 0.0025 0.72353 0.0
H744 H 0.96197 0.95006 0.68079 0.0
C745 C 0.97461 0.01329 0.62085 0.0
C746 C 0.98522 0.99494 0.60724 0.0
C747 C 0.97147 0.01058 0.64546 0.0
C748 C 0.96682 0.96479 0.69251 0.0
H749 H 0.94577 0.00706 0.80813 0.0
H750 H 0.95238 0.01313 0.76548 0.0
H751 H 0.95677 0.94508 0.7237 0.0
H752 H 0.00068 0.95926 0.6089 0.0
H753 H 0.99514 0.95457 0.65183 0.0
H754 H 0.98808 0.02226 0.69218 0.0
C755 C 0.95721 0.99605 0.77332 0.0
C756 C 0.9639 0.96193 0.71711 0.0
C757 C 0.95318 0.99248 0.79772 0.0
C758 C 0.99242 0.97374 0.6188 0.0
C759 C 0.98915 0.971 0.64339 0.0
C760 C 0.9811 0.00539 0.69889 0.0
C761 C 0.96659 0.9775 0.75911 0.0
C762 C 0.96968 0.98071 0.73294 0.0
C763 C 0.97873 0.98942 0.65699 0.0
C764 C 0.97547 0.98652 0.68313 0.0
H765 H 0.97229 0.93451 0.80186 0.0
H766 H 0.98003 0.941 0.75965 0.0
H767 H 0.98317 0.01722 0.73524 0.0
H768 H 0.96887 0.02986 0.61254 0.0
H769 H 0.96314 0.02497 0.65544 0.0
C770 C 0.5816 0.03716 0.29124 0.0
C771 C 0.56306 0.03517 0.30812 0.0
C772 C 0.5769 0.03372 0.26698 0.0
C773 C 0.53516 0.0063 0.22433 0.0
H774 H 0.55885 0.0553 0.18108 0.0
C775 C 0.50886 0.00796 0.12442 0.0
C776 C 0.52659 0.01491 0.10793 0.0
C777 C 0.51292 0.01023 0.14897 0.0
C778 C 0.55239 0.04126 0.19282 0.0
H779 H 0.52526 0.02726 0.31299 0.0
H780 H 0.51706 0.02098 0.2704 0.0
H781 H 0.56703 0.05865 0.2237 0.0
H782 H 0.56258 0.02945 0.10433 0.0
H783 H 0.56991 0.03281 0.14704 0.0
H784 H 0.52092 0.9886 0.19345 0.0
C785 C 0.5352 0.02528 0.27603 0.0
C786 C 0.55703 0.04324 0.21725 0.0
C787 C 0.53984 0.02899 0.30033 0.0
C788 C 0.54847 0.02412 0.11654 0.0
C789 C 0.55261 0.02616 0.14107 0.0
C790 C 0.53073 0.00415 0.19982 0.0
C791 C 0.55362 0.02802 0.25911 0.0
C792 C 0.54851 0.02577 0.23323 0.0
C793 C 0.53488 0.0193 0.15761 0.0
C794 C 0.53933 0.0216 0.18374 0.0
H795 H 0.59961 0.04216 0.29669 0.0
H796 H 0.59147 0.03571 0.25432 0.0
H797 H 0.52855 0.99249 0.23627 0.0
H798 H 0.49174 0.00091 0.11838 0.0
H799 H 0.4987 0.00514 0.16115 0.0
C800 C 0.4618 0.52842 0.21889 0.0
C801 C 0.45331 0.5517 0.21439 0.0
C802 C 0.46586 0.52077 0.24237 0.0
C803 C 0.44664 0.53147 0.30365 0.0
H804 H 0.50804 0.50499 0.32269 0.0
C805 C 0.47188 0.52079 0.40256 0.0
C806 C 0.48597 0.50113 0.40951 0.0
C807 C 0.46768 0.52551 0.37843 0.0
C808 C 0.49063 0.51194 0.31763 0.0
H809 H 0.44206 0.58509 0.23071 0.0
H810 H 0.44883 0.57162 0.27169 0.0
H811 H 0.50096 0.51537 0.28087 0.0
H812 H 0.50647 0.47078 0.39654 0.0
H813 H 0.49852 0.47856 0.3544 0.0
H814 H 0.43598 0.52777 0.34009 0.0
C815 C 0.4525 0.55938 0.25711 0.0
C816 C 0.48665 0.51795 0.29369 0.0
C817 C 0.44883 0.56713 0.23371 0.0
C818 C 0.49565 0.48617 0.39176 0.0
C819 C 0.49119 0.49072 0.36758 0.0
C820 C 0.45046 0.52517 0.32748 0.0
C821 C 0.46103 0.53614 0.26167 0.0
C822 C 0.46476 0.52813 0.2866 0.0
C823 C 0.47718 0.51049 0.3606 0.0
C824 C 0.47265 0.51571 0.33489 0.0
H825 H 0.46543 0.51623 0.20427 0.0
H826 H 0.47238 0.50274 0.24547 0.0
H827 H 0.42946 0.53898 0.29853 0.0
H828 H 0.46434 0.53281 0.41577 0.0
H829 H 0.45727 0.54121 0.37379 0.0
C830 C 0.05146 0.48664 0.71811 0.0
C831 C 0.05979 0.46324 0.71391 0.0
C832 C 0.04731 0.49457 0.74147 0.0
C833 C 0.06658 0.48458 0.80279 0.0
H834 H 0.00505 0.51055 0.82197 0.0
C835 C 0.04168 0.49387 0.90162 0.0
C836 C 0.02756 0.51335 0.90897 0.0
C837 C 0.04573 0.48958 0.87741 0.0
C838 C 0.02249 0.50376 0.81686 0.0
H839 H 0.07062 0.42992 0.73067 0.0
H840 H 0.06373 0.44389 0.77144 0.0
H841 H 0.01201 0.5002 0.78009 0.0
H842 H 0.00675 0.54376 0.89662 0.0
H843 H 0.01442 0.53669 0.85427 0.0
H844 H 0.07739 0.48837 0.8392 0.0
C845 C 0.06023 0.456 0.75671 0.0
C846 C 0.0264 0.49777 0.7929 0.0
C847 C 0.06398 0.44796 0.73342 0.0
C848 C 0.01762 0.52852 0.89152 0.0
C849 C 0.02193 0.52439 0.86723 0.0
C850 C 0.06283 0.49087 0.82662 0.0
C851 C 0.05191 0.47937 0.76096 0.0
C852 C 0.04832 0.48769 0.78579 0.0
C853 C 0.03605 0.50485 0.85988 0.0
C854 C 0.04057 0.50005 0.83409 0.0
H855 H 0.04807 0.49871 0.70332 0.0
H856 H 0.04094 0.51269 0.74435 0.0
H857 H 0.08377 0.47717 0.79764 0.0
H858 H 0.04939 0.48167 0.91457 0.0
H859 H 0.0562 0.47401 0.87247 0.0
C860 C 0.78513 0.96078 0.94623 0.0
C861 C 0.80319 0.96463 0.96333 0.0
C862 C 0.76108 0.96454 0.95196 0.0
C863 C 0.71957 0.97119 0.00344 0.0
H864 H 0.67688 0.99554 0.95434 0.0
C865 C 0.62088 0.00048 0.02005 0.0
C866 C 0.6039 0.99068 0.00413 0.0
C867 C 0.64545 0.99758 0.01595 0.0
C868 C 0.6886 0.98863 0.96817 0.0
H869 H 0.81041 0.97551 -0.00021 0.0
H870 H 0.76833 0.98289 0.00971 0.0
H871 H 0.71945 0.99092 0.94571 0.0
H872 H 0.5994 0.97018 0.97144 0.0
H873 H 0.64235 0.96556 0.96409 0.0
H874 H 0.68851 0.96955 0.02602 0.0
C875 C 0.77266 0.97641 0.992 0.0
C876 C 0.71298 0.98585 0.96324 0.0
C877 C 0.79676 0.97231 0.98633 0.0
C878 C 0.61201 0.9779 0.98406 0.0
C879 C 0.63657 0.97535 0.97978 0.0
C880 C 0.69519 0.97432 0.00848 0.0
C881 C 0.75449 0.97259 0.97485 0.0
C882 C 0.72876 0.97676 0.98068 0.0
C883 C 0.65349 0.98519 0.99565 0.0
C884 C 0.67947 0.98277 0.99078 0.0
H885 H 0.78958 0.95444 0.92848 0.0
H886 H 0.74763 0.96078 0.93846 0.0
H887 H 0.73106 0.96385 0.01723 0.0
H888 H 0.61518 0.01035 0.03572 0.0
H889 H 0.65818 0.00541 0.0284 0.0
C890 C 0.72079 0.05078 0.48954 0.0
C891 C 0.71168 0.04531 0.46671 0.0
C892 C 0.74503 0.04706 0.49487 0.0
C893 C 0.79889 0.01418 0.47509 0.0
H894 H 0.83369 0.06552 0.50686 0.0
C895 C 0.90224 0.01606 0.47956 0.0
C896 C 0.91298 0.02366 0.50104 0.0
C897 C 0.8775 0.01835 0.47609 0.0
C898 C 0.82419 0.05087 0.49826 0.0
H899 H 0.72101 0.0316 0.43163 0.0
H900 H 0.76309 0.02485 0.44105 0.0
H901 H 0.79059 0.0693 0.5002 0.0
H902 H 0.90605 0.03974 0.53568 0.0
H903 H 0.86292 0.04343 0.52973 0.0
H904 H 0.83243 0.99572 0.47313 0.0
C905 C 0.75144 0.03176 0.4549 0.0
C906 C 0.79949 0.05304 0.49447 0.0
C907 C 0.72727 0.03558 0.44953 0.0
C908 C 0.89842 0.03379 0.51887 0.0
C909 C 0.87367 0.036 0.51543 0.0
C910 C 0.82356 0.01196 0.47897 0.0
C911 C 0.76064 0.03769 0.47753 0.0
C912 C 0.78662 0.03481 0.48267 0.0
C913 C 0.8629 0.02822 0.49403 0.0
C914 C 0.83655 0.03036 0.49043 0.0
H915 H 0.70921 0.05797 0.50329 0.0
H916 H 0.75156 0.0515 0.51257 0.0
H917 H 0.78938 -0.00031 0.46624 0.0
H918 H 0.91291 0.00827 0.4654 0.0
H919 H 0.86985 0.01255 0.45924 0.0
C920 C 0.29594 0.55909 0.03493 0.0
C921 C 0.30226 0.56574 0.05831 0.0
C922 C 0.27183 0.55545 0.02877 0.0
C923 C 0.21167 0.54547 0.05629 0.0
H924 H 0.18825 0.56434 0.99378 0.0
C925 C 0.11102 0.55384 0.03411 0.0
C926 C 0.1032 0.54155 0.01357 0.0
C927 C 0.13551 0.55662 0.0388 0.0
C928 C 0.19463 0.55888 0.01124 0.0
H929 H 0.28845 0.57455 0.09337 0.0
H930 H 0.24651 0.56902 0.08259 0.0
H931 H 0.23075 0.56944 0.00349 0.0
H932 H 0.11494 0.52314 0.98149 0.0
H933 H 0.15782 0.52849 0.98953 0.0
H934 H 0.17533 0.53566 0.0642 0.0
C935 C 0.26003 0.5657 0.06913 0.0
C936 C 0.21899 0.56166 0.01679 0.0
C937 C 0.28408 0.56899 0.07532 0.0
C938 C 0.12041 0.53261 0.99752 0.0
C939 C 0.14492 0.53575 0.00203 0.0
C940 C 0.18732 0.54306 0.05085 0.0
C941 C 0.25355 0.55873 0.04582 0.0
C942 C 0.2278 0.5551 0.03946 0.0
C943 C 0.15266 0.54751 0.02286 0.0
C944 C 0.17857 0.54982 0.02833 0.0
H945 H 0.30967 0.55638 0.02152 0.0
H946 H 0.26758 0.54978 0.01075 0.0
H947 H 0.21782 0.53965 0.0737 0.0
H948 H 0.09823 0.5609 0.04684 0.0
H949 H 0.14106 0.56592 0.0549 0.0
C950 C 0.21962 0.4531 0.53724 0.0
C951 C 0.21346 0.44596 0.56049 0.0
C952 C 0.2437 0.45655 0.53099 0.0
C953 C 0.30436 0.46492 0.55819 0.0
H954 H 0.32657 0.44765 0.49485 0.0
C955 C 0.40461 0.45681 0.5343 0.0
C956 C 0.41206 0.46972 0.51403 0.0
C957 C 0.3802 0.4539 0.53927 0.0
C958 C 0.32053 0.45265 0.51255 0.0
H959 H 0.22751 0.43611 0.59522 0.0
H960 H 0.26942 0.4413 0.58425 0.0
H961 H 0.28419 0.44267 0.50495 0.0
H962 H 0.39973 0.48906 0.4827 0.0
H963 H 0.35701 0.48348 0.49121 0.0
H964 H 0.34092 0.47416 0.5659 0.0
C965 C 0.2558 0.44514 0.57098 0.0
C966 C 0.29625 0.44995 0.51834 0.0
C967 C 0.23177 0.44205 0.57729 0.0
C968 C 0.39456 0.47911 0.49851 0.0
C969 C 0.37014 0.47584 0.50329 0.0
C970 C 0.32864 0.46725 0.5525 0.0
C971 C 0.26213 0.45257 0.54779 0.0
C972 C 0.28785 0.45597 0.54128 0.0
C973 C 0.36276 0.46348 0.52388 0.0
C974 C 0.33696 0.46109 0.52967 0.0
H975 H 0.20578 0.45633 0.52401 0.0
H976 H 0.24782 0.46262 0.51308 0.0
H977 H 0.29854 0.47031 0.57583 0.0
H978 H 0.41763 0.4494 0.54663 0.0
H979 H 0.37494 0.44413 0.55517 0.0
C980 C 0.96809 0.80937 0.98237 0.0
C981 C 0.96322 0.81749 0.95913 0.0
C982 C 0.9737 0.78525 0.98647 0.0
C983 C 0.99289 0.72971 0.95472 0.0
H984 H 0.96859 0.6979 0.01139 0.0
C985 C 0.99083 0.62669 0.96572 0.0
C986 C -0.00043 0.6176 0.98747 0.0
C987 C 0.98737 0.65134 0.96273 0.0
C988 C 0.97564 0.70663 0.99559 0.0
H989 H 0.95971 0.80675 0.92206 0.0
H990 H 0.96881 0.76473 0.92918 0.0
H991 H 0.96073 0.74054 0.00541 0.0
H992 H 0.01129 0.62726 0.02323 0.0
H993 H 0.00486 0.67029 0.01805 0.0
H994 H 0.00715 0.69552 0.94463 0.0
C995 C 0.96916 0.77697 0.94422 0.0
C996 C 0.97125 0.73109 0.99219 0.0
C997 C 0.96385 0.80106 0.94012 0.0
C998 C 0.00461 0.63369 0.00622 0.0
C999 C 0.00082 0.65829 0.00333 0.0
C1000 C 0.997 0.70522 0.95799 0.0
C1001 C 0.97424 0.76872 0.96743 0.0
C1002 C 0.9797 0.74292 0.97162 0.0
C1003 C 0.99225 0.66735 0.98153 0.0
C1004 C 0.98833 0.69343 0.97839 0.0
H1005 H 0.96784 0.82172 0.99732 0.0
H1006 H 0.97782 0.77963 0.00453 0.0
H1007 H 0.00015 0.73829 0.93893 0.0
H1008 H 0.9868 0.61479 0.95092 0.0
H1009 H 0.98055 0.65786 0.9458 0.0
C1010 C 0.46806 0.72137 0.04402 0.0
C1011 C 0.46094 0.71449 0.06708 0.0
C1012 C 0.47415 0.74526 0.03917 0.0
C1013 C 0.49065 0.80255 0.06949 0.0
H1014 H 0.47166 0.83105 0.00917 0.0
C1015 C 0.48946 0.90474 0.05305 0.0
C1016 C 0.49991 0.91291 0.03169 0.0
C1017 C 0.48595 0.88022 0.05697 0.0
C1018 C 0.47726 0.82324 0.026 0.0
H1019 H 0.45401 0.72721 0.103 0.0
H1020 H 0.46399 0.76886 0.09451 0.0
H1021 H 0.46312 0.78874 0.01669 0.0
H1022 H 0.5147 0.90174 0.99761 0.0
H1023 H 0.50818 0.85888 0.00438 0.0
H1024 H 0.5041 0.83734 0.07899 0.0
C1025 C 0.46567 0.75581 0.08027 0.0
C1026 C 0.47247 0.79898 0.0303 0.0
C1027 C 0.45985 0.73194 0.08515 0.0
C1028 C 0.50666 0.89602 0.01429 0.0
C1029 C 0.50284 0.87152 0.01808 0.0
C1030 C 0.49517 0.82684 0.06529 0.0
C1031 C 0.47297 0.7628 0.05725 0.0
C1032 C 0.47895 0.78836 0.05218 0.0
C1033 C 0.49251 0.86339 0.03948 0.0
C1034 C 0.48839 0.83745 0.04357 0.0
H1035 H 0.4692 0.70821 0.02981 0.0
H1036 H 0.48001 0.7499 0.02132 0.0
H1037 H 0.4964 0.79489 0.08632 0.0
H1038 H 0.4841 0.91727 0.06684 0.0
H1039 H 0.47776 0.87443 0.07355 0.0
C1040 C 0.05114 0.28189 0.58814 0.0
C1041 C 0.05361 0.29824 0.56919 0.0
C1042 C 0.04562 0.25785 0.58368 0.0
C1043 C 0.04796 0.21193 0.5361 0.0
H1044 H 0.0067 0.17649 0.57939 0.0
C1045 C 0.04072 0.10881 0.53289 0.0
C1046 C 0.01804 0.09834 0.53663 0.0
C1047 C 0.0443 0.13335 0.53661 0.0
C1048 C 0.01807 0.18615 0.56697 0.0
H1049 H 0.05171 0.30236 0.53073 0.0
H1050 H 0.04169 0.26036 0.52289 0.0
H1051 H 0.01321 0.21925 0.58567 0.0
H1052 H 0.98128 0.10554 0.54718 0.0
H1053 H 0.98742 0.14841 0.55324 0.0
H1054 H 0.05236 0.17896 0.51706 0.0
C1055 C 0.04448 0.26604 0.5412 0.0
C1056 C 0.02204 0.21063 0.57075 0.0
C1057 C 0.05016 0.2901 0.54567 0.0
C1058 C 0.99903 0.11298 0.54427 0.0
C1059 C 0.00257 0.13757 0.54784 0.0
C1060 C 0.04389 0.18748 0.53225 0.0
C1061 C 0.04231 0.24958 0.56015 0.0
C1062 C 0.0372 0.22379 0.55548 0.0
C1063 C 0.02524 0.14807 0.54401 0.0
C1064 C 0.02905 0.17424 0.54775 0.0
H1065 H 0.05411 0.28754 0.60643 0.0
H1066 H 0.04454 0.24562 0.59867 0.0
H1067 H 0.05994 0.22142 0.52413 0.0
H1068 H 0.0558 0.09804 0.52714 0.0
H1069 H 0.0621 0.14074 0.53391 0.0
C1070 C 0.55355 0.21267 0.43402 0.0
C1071 C 0.55281 0.19588 0.45271 0.0
C1072 C 0.54805 0.23672 0.4382 0.0
C1073 C 0.54346 0.2815 0.48697 0.0
H1074 H 0.51059 0.31868 0.4384 0.0
C1075 C 0.51014 0.37843 0.50256 0.0
C1076 C 0.5158 0.39516 0.48459 0.0
C1077 C 0.51398 0.35394 0.49892 0.0
C1078 C 0.51991 0.30853 0.45205 0.0
H1079 H 0.54529 0.19095 0.49035 0.0
H1080 H 0.53508 0.23293 0.49764 0.0
H1081 H 0.51773 0.27604 0.43184 0.0
H1082 H 0.52972 0.39922 0.44862 0.0
H1083 H 0.53616 0.35636 0.44222 0.0
H1084 H 0.54525 0.31406 0.50727 0.0
C1085 C 0.54045 0.22763 0.47983 0.0
C1086 C 0.52408 0.28412 0.44829 0.0
C1087 C 0.5462 0.20358 0.47567 0.0
C1088 C 0.5252 0.38682 0.46283 0.0
C1089 C 0.52877 0.36228 0.4591 0.0
C1090 C 0.53905 0.30587 0.49082 0.0
C1091 C 0.54145 0.24455 0.46116 0.0
C1092 C 0.5361 0.27032 0.46561 0.0
C1093 C 0.52328 0.34563 0.47715 0.0
C1094 C 0.52741 0.31965 0.47331 0.0
H1095 H 0.55898 0.20731 0.41622 0.0
H1096 H 0.54951 0.24927 0.4235 0.0
H1097 H 0.55312 0.27157 0.50053 0.0
H1098 H 0.50291 0.38425 0.51955 0.0
H1099 H 0.50942 0.34146 0.51306 0.0
loop_
_geom_bond_atom_site_label_1
_geom_bond_atom_site_label_2
_geom_bond_distance
_geom_bond_site_symmetry_2
_ccdc_geom_bond_type
C0 C1 1.384 . S
C0 H13 0.947 . S
C0 C35 1.382 . S
C1 C0 1.384 . S
C1 C2 1.378 . S
C2 C1 1.378 . S
C2 C3 1.378 . S
C2 H14 0.952 . S
C3 C2 1.378 . S
C3 H15 0.950 . S
C3 C34 1.383 . S
H4 C23 0.947 . S
H5 C24 0.946 . S
H6 C26 0.953 . S
H7 C27 0.945 . S
H8 C29 0.952 . S
H9 C30 0.949 . S
H10 C32 0.950 . S
H11 C33 0.948 . S
H12 C35 0.951 . S
H13 C0 0.947 . S
H14 C2 0.952 . S
H15 C3 0.950 . S
N16 C19 1.382 . S
N16 C21 1.363 . S
N17 C19 1.371 . S
N17 C20 1.372 . S
N18 C20 1.361 . S
N18 C21 1.377 . S
C19 N16 1.382 . S
C19 N17 1.371 . S
C19 C22 1.480 . S
C20 N17 1.372 . S
C20 N18 1.361 . S
C20 C28 1.457 . S
C21 N16 1.363 . S
C21 N18 1.377 . S
C21 C34 1.479 . S
C22 C19 1.480 . S
C22 C23 1.383 . S
C22 C27 1.385 . S
C23 H4 0.947 . S
C23 C22 1.383 . S
C23 C24 1.388 . S
C24 H5 0.946 . S
C24 C23 1.388 . S
C24 C25 1.384 . S
C25 C24 1.384 . S
C25 C26 1.377 . S
C26 H6 0.953 . S
C26 C25 1.377 . S
C26 C27 1.369 . S
C27 H7 0.945 . S
C27 C22 1.385 . S
C27 C26 1.369 . S
C28 C20 1.457 . S
C28 C29 1.372 . S
C28 C33 1.364 . S
C29 H8 0.952 . S
C29 C28 1.372 . S
C29 C30 1.389 . S
C30 H9 0.949 . S
C30 C29 1.389 . S
C30 C31 1.387 . S
C31 C30 1.387 . S
C31 C32 1.372 . S
C32 H10 0.950 . S
C32 C31 1.372 . S
C32 C33 1.379 . S
C33 H11 0.948 . S
C33 C28 1.364 . S
C33 C32 1.379 . S
C34 C3 1.383 . S
C34 C21 1.479 . S
C34 C35 1.398 . S
C35 C0 1.382 . S
C35 H12 0.951 . S
C35 C34 1.398 . S
C36 C37 1.384 . S
C36 H49 0.947 . S
C36 C71 1.382 . S
C37 C36 1.384 . S
C37 C38 1.378 . S
C38 C37 1.378 . S
C38 C39 1.378 . S
C38 H50 0.952 . S
C39 C38 1.378 . S
C39 H51 0.950 . S
C39 C70 1.383 . S
H40 C59 0.947 . S
H41 C60 0.946 . S
H42 C62 0.953 . S
H43 C63 0.945 . S
H44 C65 0.952 . S
H45 C66 0.949 . S
H46 C68 0.950 . S
H47 C69 0.948 . S
H48 C71 0.951 . S
H49 C36 0.947 . S
H50 C38 0.952 . S
H51 C39 0.950 . S
N52 C55 1.382 . S
N52 C57 1.363 . S
N53 C55 1.371 . S
N53 C56 1.372 . S
N54 C56 1.361 . S
N54 C57 1.377 . S
C55 N52 1.382 . S
C55 N53 1.371 . S
C55 C58 1.480 . S
C56 N53 1.372 . S
C56 N54 1.361 . S
C56 C64 1.457 . S
C57 N52 1.363 . S
C57 N54 1.377 . S
C57 C70 1.479 . S
C58 C55 1.480 . S
C58 C59 1.383 . S
C58 C63 1.385 . S
C59 H40 0.947 . S
C59 C58 1.383 . S
C59 C60 1.388 . S
C60 H41 0.946 . S
C60 C59 1.388 . S
C60 C61 1.384 . S
C61 C60 1.384 . S
C61 C62 1.377 . S
C62 H42 0.953 . S
C62 C61 1.377 . S
C62 C63 1.369 . S
C63 H43 0.945 . S
C63 C58 1.385 . S
C63 C62 1.369 . S
C64 C56 1.457 . S
C64 C65 1.372 . S
C64 C69 1.364 . S
C65 H44 0.952 . S
C65 C64 1.372 . S
C65 C66 1.389 . S
C66 H45 0.949 . S
C66 C65 1.389 . S
C66 C67 1.387 . S
C67 C66 1.387 . S
C67 C68 1.372 . S
C68 H46 0.950 . S
C68 C67 1.372 . S
C68 C69 1.379 . S
C69 H47 0.948 . S
C69 C64 1.364 . S
C69 C68 1.379 . S
C70 C39 1.383 . S
C70 C57 1.479 . S
C70 C71 1.398 . S
C71 C36 1.382 . S
C71 H48 0.951 . S
C71 C70 1.398 . S
C72 C73 1.384 . S
C72 H85 0.947 . S
C72 C107 1.382 . S
C73 C72 1.384 . S
C73 C74 1.378 . S
C74 C73 1.378 . S
C74 C75 1.378 . S
C74 H86 0.952 . S
C75 C74 1.378 . S
C75 H87 0.950 . S
C75 C106 1.383 . S
H76 C95 0.947 . S
H77 C96 0.946 . S
H78 C98 0.953 . S
H79 C99 0.945 . S
H80 C101 0.952 . S
H81 C102 0.949 . S
H82 C104 0.950 . S
H83 C105 0.948 . S
H84 C107 0.951 . S
H85 C72 0.947 . S
H86 C74 0.952 . S
H87 C75 0.950 . S
N88 C91 1.382 . S
N88 C93 1.363 . S
N89 C91 1.371 . S
N89 C92 1.372 . S
N90 C92 1.361 . S
N90 C93 1.377 . S
C91 N88 1.382 . S
C91 N89 1.371 . S
C91 C94 1.480 . S
C92 N89 1.372 . S
C92 N90 1.361 . S
C92 C100 1.457 . S
C93 N88 1.363 . S
C93 N90 1.377 . S
C93 C106 1.479 . S
C94 C91 1.480 . S
C94 C95 1.383 . S
C94 C99 1.385 . S
C95 H76 0.947 . S
C95 C94 1.383 . S
C95 C96 1.388 . S
C96 H77 0.946 . S
C96 C95 1.388 . S
C96 C97 1.384 . S
C97 C96 1.384 . S
C97 C98 1.377 . S
C98 H78 0.953 . S
C98 C97 1.377 . S
C98 C99 1.369 . S
C99 H79 0.945 . S
C99 C94 1.385 . S
C99 C98 1.369 . S
C100 C92 1.457 . S
C100 C101 1.372 . S
C100 C105 1.364 . S
C101 H80 0.952 . S
C101 C100 1.372 . S
C101 C102 1.389 . S
C102 H81 0.949 . S
C102 C101 1.389 . S
C102 C103 1.387 . S
C103 C102 1.387 . S
C103 C104 1.372 . S
C104 H82 0.950 . S
C104 C103 1.372 . S
C104 C105 1.379 . S
C105 H83 0.948 . S
C105 C100 1.364 . S
C105 C104 1.379 . S
C106 C75 1.383 . S
C106 C93 1.479 . S
C106 C107 1.398 . S
C107 C72 1.382 . S
C107 H84 0.951 . S
C107 C106 1.398 . S
C108 C109 1.384 . S
C108 H121 0.947 . S
C108 C143 1.382 . S
C109 C108 1.384 . S
C109 C110 1.378 . S
C110 C109 1.378 . S
C110 C111 1.378 . S
C110 H122 0.952 . S
C111 C110 1.378 . S
C111 H123 0.950 . S
C111 C142 1.383 . S
H112 C131 0.947 . S
H113 C132 0.946 . S
H114 C134 0.953 . S
H115 C135 0.945 . S
H116 C137 0.952 . S
H117 C138 0.949 . S
H118 C140 0.950 . S
H119 C141 0.948 . S
H120 C143 0.951 . S
H121 C108 0.947 . S
H122 C110 0.952 . S
H123 C111 0.950 . S
N124 C127 1.382 . S
N124 C129 1.363 . S
N125 C127 1.371 . S
N125 C128 1.372 . S
N126 C128 1.361 . S
N126 C129 1.377 . S
C127 N124 1.382 . S
C127 N125 1.371 . S
C127 C130 1.480 . S
C128 N125 1.372 . S
C128 N126 1.361 . S
C128 C136 1.457 . S
C129 N124 1.363 . S
C129 N126 1.377 . S
C129 C142 1.479 . S
C130 C127 1.480 . S
C130 C131 1.383 . S
C130 C135 1.385 . S
C131 H112 0.947 . S
C131 C130 1.383 . S
C131 C132 1.388 . S
C132 H113 0.946 . S
C132 C131 1.388 . S
C132 C133 1.384 . S
C133 C132 1.384 . S
C133 C134 1.377 . S
C134 H114 0.953 . S
C134 C133 1.377 . S
C134 C135 1.369 . S
C135 H115 0.945 . S
C135 C130 1.385 . S
C135 C134 1.369 . S
C136 C128 1.457 . S
C136 C137 1.372 . S
C136 C141 1.364 . S
C137 H116 0.952 . S
C137 C136 1.372 . S
C137 C138 1.389 . S
C138 H117 0.949 . S
C138 C137 1.389 . S
C138 C139 1.387 . S
C139 C138 1.387 . S
C139 C140 1.372 . S
C140 H118 0.950 . S
C140 C139 1.372 . S
C140 C141 1.379 . S
C141 H119 0.948 . S
C141 C136 1.364 . S
C141 C140 1.379 . S
C142 C111 1.383 . S
C142 C129 1.479 . S
C142 C143 1.398 . S
C143 C108 1.382 . S
C143 H120 0.951 . S
C143 C142 1.398 . S
C144 C145 1.384 . S
C144 H157 0.947 . S
C144 C179 1.382 . S
C145 C144 1.384 . S
C145 C146 1.378 . S
C146 C145 1.378 . S
C146 C147 1.378 . S
C146 H158 0.952 . S
C147 C146 1.378 . S
C147 H159 0.950 . S
C147 C178 1.383 . S
H148 C167 0.947 . S
H149 C168 0.946 . S
H150 C170 0.953 . S
H151 C171 0.945 . S
H152 C173 0.952 . S
H153 C174 0.949 . S
H154 C176 0.950 . S
H155 C177 0.948 . S
H156 C179 0.951 . S
H157 C144 0.947 . S
H158 C146 0.952 . S
H159 C147 0.950 . S
N160 C163 1.382 . S
N160 C165 1.363 . S
N161 C163 1.371 . S
N161 C164 1.372 . S
N162 C164 1.361 . S
N162 C165 1.377 . S
C163 N160 1.382 . S
C163 N161 1.371 . S
C163 C166 1.480 . S
C164 N161 1.372 . S
C164 N162 1.361 . S
C164 C172 1.457 . S
C165 N160 1.363 . S
C165 N162 1.377 . S
C165 C178 1.479 . S
C166 C163 1.480 . S
C166 C167 1.383 . S
C166 C171 1.385 . S
C167 H148 0.947 . S
C167 C166 1.383 . S
C167 C168 1.388 . S
C168 H149 0.946 . S
C168 C167 1.388 . S
C168 C169 1.384 . S
C169 C168 1.384 . S
C169 C170 1.377 . S
C170 H150 0.953 . S
C170 C169 1.377 . S
C170 C171 1.369 . S
C171 H151 0.945 . S
C171 C166 1.385 . S
C171 C170 1.369 . S
C172 C164 1.457 . S
C172 C173 1.372 . S
C172 C177 1.364 . S
C173 H152 0.952 . S
C173 C172 1.372 . S
C173 C174 1.389 . S
C174 H153 0.949 . S
C174 C173 1.389 . S
C174 C175 1.387 . S
C175 C174 1.387 . S
C175 C176 1.372 . S
C176 H154 0.950 . S
C176 C175 1.372 . S
C176 C177 1.379 . S
C177 H155 0.948 . S
C177 C172 1.364 . S
C177 C176 1.379 . S
C178 C147 1.383 . S
C178 C165 1.479 . S
C178 C179 1.398 . S
C179 C144 1.382 . S
C179 H156 0.951 . S
C179 C178 1.398 . S
C180 C181 1.384 . S
C180 H193 0.947 . S
C180 C215 1.382 . S
C181 C180 1.384 . S
C181 C182 1.378 . S
C182 C181 1.378 . S
C182 C183 1.378 . S
C182 H194 0.952 . S
C183 C182 1.378 . S
C183 H195 0.950 . S
C183 C214 1.383 . S
H184 C203 0.947 . S
H185 C204 0.946 . S
H186 C206 0.953 . S
H187 C207 0.945 . S
H188 C209 0.952 . S
H189 C210 0.949 . S
H190 C212 0.950 . S
H191 C213 0.948 . S
H192 C215 0.951 . S
H193 C180 0.947 . S
H194 C182 0.952 . S
H195 C183 0.950 . S
N196 C199 1.382 . S
N196 C201 1.363 . S
N197 C199 1.371 . S
N197 C200 1.372 . S
N198 C200 1.361 . S
N198 C201 1.377 . S
C199 N196 1.382 . S
C199 N197 1.371 . S
C199 C202 1.480 . S
C200 N197 1.372 . S
C200 N198 1.361 . S
C200 C208 1.457 . S
C201 N196 1.363 . S
C201 N198 1.377 . S
C201 C214 1.479 . S
C202 C199 1.480 . S
C202 C203 1.383 . S
C202 C207 1.385 . S
C203 H184 0.947 . S
C203 C202 1.383 . S
C203 C204 1.388 . S
C204 H185 0.946 . S
C204 C203 1.388 . S
C204 C205 1.384 . S
C205 C204 1.384 . S
C205 C206 1.377 . S
C206 H186 0.953 . S
C206 C205 1.377 . S
C206 C207 1.369 . S
C207 H187 0.945 . S
C207 C202 1.385 . S
C207 C206 1.369 . S
C208 C200 1.457 . S
C208 C209 1.372 . S
C208 C213 1.364 . S
C209 H188 0.952 . S
C209 C208 1.372 . S
C209 C210 1.389 . S
C210 H189 0.949 . S
C210 C209 1.389 . S
C210 C211 1.387 . S
C211 C210 1.387 . S
C211 C212 1.372 . S
C212 H190 0.950 . S
C212 C211 1.372 . S
C212 C213 1.379 . S
C213 H191 0.948 . S
C213 C208 1.364 . S
C213 C212 1.379 . S
C214 C183 1.383 . S
C214 C201 1.479 . S
C214 C215 1.398 . S
C215 C180 1.382 . S
C215 H192 0.951 . S
C215 C214 1.398 . S
C216 C217 1.384 . S
C216 H229 0.947 . S
C216 C251 1.382 . S
C217 C216 1.384 . S
C217 C218 1.378 . S
C218 C217 1.378 . S
C218 C219 1.378 . S
C218 H230 0.952 . S
C219 C218 1.378 . S
C219 H231 0.950 . S
C219 C250 1.383 . S
H220 C239 0.947 . S
H221 C240 0.946 . S
H222 C242 0.953 . S
H223 C243 0.945 . S
H224 C245 0.952 . S
H225 C246 0.949 . S
H226 C248 0.950 . S
H227 C249 0.948 . S
H228 C251 0.951 . S
H229 C216 0.947 . S
H230 C218 0.952 . S
H231 C219 0.950 . S
N232 C235 1.382 . S
N232 C237 1.363 . S
N233 C235 1.371 . S
N233 C236 1.372 . S
N234 C236 1.361 . S
N234 C237 1.377 . S
C235 N232 1.382 . S
C235 N233 1.371 . S
C235 C238 1.480 . S
C236 N233 1.372 . S
C236 N234 1.361 . S
C236 C244 1.457 . S
C237 N232 1.363 . S
C237 N234 1.377 . S
C237 C250 1.479 . S
C238 C235 1.480 . S
C238 C239 1.383 . S
C238 C243 1.385 . S
C239 H220 0.947 . S
C239 C238 1.383 . S
C239 C240 1.388 . S
C240 H221 0.946 . S
C240 C239 1.388 . S
C240 C241 1.384 . S
C241 C240 1.384 . S
C241 C242 1.377 . S
C242 H222 0.953 . S
C242 C241 1.377 . S
C242 C243 1.369 . S
C243 H223 0.945 . S
C243 C238 1.385 . S
C243 C242 1.369 . S
C244 C236 1.457 . S
C244 C245 1.372 . S
C244 C249 1.364 . S
C245 H224 0.952 . S
C245 C244 1.372 . S
C245 C246 1.389 . S
C246 H225 0.949 . S
C246 C245 1.389 . S
C246 C247 1.387 . S
C247 C246 1.387 . S
C247 C248 1.372 . S
C248 H226 0.950 . S
C248 C247 1.372 . S
C248 C249 1.379 . S
C249 H227 0.948 . S
C249 C244 1.364 . S
C249 C248 1.379 . S
C250 C219 1.383 . S
C250 C237 1.479 . S
C250 C251 1.398 . S
C251 C216 1.382 . S
C251 H228 0.951 . S
C251 C250 1.398 . S
C252 C253 1.384 . S
C252 H265 0.947 . S
C252 C287 1.382 . S
C253 C252 1.384 . S
C253 C254 1.378 . S
C254 C253 1.378 . S
C254 C255 1.378 . S
C254 H266 0.952 . S
C255 C254 1.378 . S
C255 H267 0.950 . S
C255 C286 1.383 . S
H256 C275 0.947 . S
H257 C276 0.946 . S
H258 C278 0.953 . S
H259 C279 0.945 . S
H260 C281 0.952 . S
H261 C282 0.949 . S
H262 C284 0.950 . S
H263 C285 0.948 . S
H264 C287 0.951 . S
H265 C252 0.947 . S
H266 C254 0.952 . S
H267 C255 0.950 . S
N268 C271 1.382 . S
N268 C273 1.363 . S
N269 C271 1.371 . S
N269 C272 1.372 . S
N270 C272 1.361 . S
N270 C273 1.377 . S
C271 N268 1.382 . S
C271 N269 1.371 . S
C271 C274 1.480 . S
C272 N269 1.372 . S
C272 N270 1.361 . S
C272 C280 1.457 . S
C273 N268 1.363 . S
C273 N270 1.377 . S
C273 C286 1.479 . S
C274 C271 1.480 . S
C274 C275 1.383 . S
C274 C279 1.385 . S
C275 H256 0.947 . S
C275 C274 1.383 . S
C275 C276 1.388 . S
C276 H257 0.946 . S
C276 C275 1.388 . S
C276 C277 1.384 . S
C277 C276 1.384 . S
C277 C278 1.377 . S
C278 H258 0.953 . S
C278 C277 1.377 . S
C278 C279 1.369 . S
C279 H259 0.945 . S
C279 C274 1.385 . S
C279 C278 1.369 . S
C280 C272 1.457 . S
C280 C281 1.372 . S
C280 C285 1.364 . S
C281 H260 0.952 . S
C281 C280 1.372 . S
C281 C282 1.389 . S
C282 H261 0.949 . S
C282 C281 1.389 . S
C282 C283 1.387 . S
C283 C282 1.387 . S
C283 C284 1.372 . S
C284 H262 0.950 . S
C284 C283 1.372 . S
C284 C285 1.379 . S
C285 H263 0.948 . S
C285 C280 1.364 . S
C285 C284 1.379 . S
C286 C255 1.383 . S
C286 C273 1.479 . S
C286 C287 1.398 . S
C287 C252 1.382 . S
C287 H264 0.951 . S
C287 C286 1.398 . S
O288 Zn289 1.965 . S
O288 C304 1.199 1_655 S
Zn289 O288 1.965 . S
Zn289 O290 1.949 1_655 S
Zn289 O296 1.919 . S
Zn289 O301 1.924 . S
O290 Zn289 1.949 1_455 S
O290 Zn291 1.923 1_445 S
O290 Zn292 1.950 . S
O290 Zn293 1.945 1_545 S
Zn291 O290 1.923 1_665 S
Zn291 O294 1.933 . S
Zn291 O297 1.941 1_565 S
Zn291 O298 1.965 1_665 S
Zn292 O290 1.950 . S
Zn292 O299 1.938 . S
Zn292 O300 1.910 . S
Zn292 O310 1.953 . S
Zn293 O290 1.945 1_565 S
Zn293 O295 1.932 1_455 S
Zn293 O302 1.977 . S
Zn293 O303 1.910 1_455 S
O294 Zn291 1.933 . S
O294 C305 1.226 . S
O295 Zn293 1.932 1_655 S
O295 C305 1.307 . S
O296 Zn289 1.919 . S
O296 C307 1.253 . S
O297 Zn291 1.941 1_545 S
O297 C307 1.283 . S
O298 Zn291 1.965 1_445 S
O298 C306 1.303 . S
O299 Zn292 1.938 . S
O299 C306 1.247 . S
O300 Zn292 1.910 . S
O300 C308 1.299 1_545 S
O301 Zn289 1.924 . S
O301 C309 1.309 1_545 S
O302 Zn293 1.977 . S
O302 C308 1.272 . S
O303 Zn293 1.910 1_655 S
O303 C309 1.234 . S
C304 O288 1.199 1_455 S
C304 O310 1.298 . S
C305 O294 1.226 . S
C305 O295 1.307 . S
C306 O298 1.303 . S
C306 O299 1.247 . S
C307 O296 1.253 . S
C307 O297 1.283 . S
C308 O300 1.299 1_565 S
C308 O302 1.272 . S
C309 O301 1.309 1_565 S
C309 O303 1.234 . S
O310 Zn292 1.953 . S
O310 C304 1.298 . S
O311 Zn312 1.953 . S
O311 C327 1.225 . S
Zn312 O311 1.953 . S
Zn312 O313 1.949 1_556 S
Zn312 O319 1.919 . S
Zn312 O324 1.924 1_556 S
O313 Zn312 1.949 1_554 S
O313 Zn314 1.923 1_545 S
O313 Zn315 1.950 . S
O313 Zn316 1.935 1_545 S
Zn314 O313 1.923 1_565 S
Zn314 O317 1.933 . S
Zn314 O320 1.941 1_554 S
Zn314 O321 1.965 . S
Zn315 O313 1.950 . S
Zn315 O322 1.938 . S
Zn315 O323 1.906 . S
Zn315 O333 1.953 . S
Zn316 O313 1.935 1_565 S
Zn316 O318 1.977 . S
Zn316 O325 1.965 1_565 S
Zn316 O326 1.886 1_565 S
O317 Zn314 1.933 . S
O317 C328 1.226 . S
O318 Zn316 1.977 . S
O318 C328 1.307 . S
O319 Zn312 1.919 . S
O319 C330 1.253 1_545 S
O320 Zn314 1.941 1_556 S
O320 C330 1.283 . S
O321 Zn314 1.965 . S
O321 C329 1.303 . S
O322 Zn315 1.938 . S
O322 C329 1.247 1_545 S
O323 Zn315 1.906 . S
O323 C331 1.304 . S
O324 Zn312 1.924 1_554 S
O324 C332 1.311 . S
O325 Zn316 1.965 1_545 S
O325 C331 1.272 . S
O326 Zn316 1.886 1_545 S
O326 C332 1.231 . S
C327 O311 1.225 . S
C327 O333 1.298 1_556 S
C328 O317 1.226 . S
C328 O318 1.307 . S
C329 O321 1.303 . S
C329 O322 1.247 1_565 S
C330 O319 1.253 1_565 S
C330 O320 1.283 . S
C331 O323 1.304 . S
C331 O325 1.272 . S
C332 O324 1.311 . S
C332 O326 1.231 . S
O333 Zn315 1.953 . S
O333 C327 1.298 1_554 S
O334 Zn335 1.953 . S
O334 C350 1.225 . S
Zn335 O334 1.953 . S
Zn335 O336 1.949 . S
Zn335 O342 1.919 . S
Zn335 O347 1.924 . S
O336 Zn335 1.949 . S
O336 Zn337 1.923 . S
O336 Zn338 1.950 . S
O336 Zn339 1.945 . S
Zn337 O336 1.923 . S
Zn337 O340 1.933 . S
Zn337 O343 1.941 . S
Zn337 O344 1.965 . S
Zn338 O336 1.950 . S
Zn338 O345 1.938 . S
Zn338 O346 1.906 . S
Zn338 O356 1.953 . S
Zn339 O336 1.945 . S
Zn339 O341 1.932 . S
Zn339 O348 1.977 . S
Zn339 O349 1.910 . S
O340 Zn337 1.933 . S
O340 C351 1.226 . S
O341 Zn339 1.932 . S
O341 C351 1.307 . S
O342 Zn335 1.919 . S
O342 C353 1.253 . S
O343 Zn337 1.941 . S
O343 C353 1.283 . S
O344 Zn337 1.965 . S
O344 C352 1.303 . S
O345 Zn338 1.938 . S
O345 C352 1.247 . S
O346 Zn338 1.906 . S
O346 C354 1.304 . S
O347 Zn335 1.924 . S
O347 C355 1.311 . S
O348 Zn339 1.977 . S
O348 C354 1.272 . S
O349 Zn339 1.910 . S
O349 C355 1.231 . S
C350 O334 1.225 . S
C350 O356 1.298 . S
C351 O340 1.226 . S
C351 O341 1.307 . S
C352 O344 1.303 . S
C352 O345 1.247 . S
C353 O342 1.253 . S
C353 O343 1.283 . S
C354 O346 1.304 . S
C354 O348 1.272 . S
C355 O347 1.311 . S
C355 O349 1.231 . S
O356 Zn338 1.953 . S
O356 C350 1.298 . S
O357 Zn358 1.953 . S
O357 C373 1.225 . S
Zn358 O357 1.953 . S
Zn358 O359 1.949 1_655 S
Zn358 O365 1.919 . S
Zn358 O370 1.939 . S
O359 Zn358 1.949 1_455 S
O359 Zn360 1.923 1_454 S
O359 Zn361 1.950 . S
O359 Zn362 1.945 1_554 S
Zn360 O359 1.923 1_656 S
Zn360 O363 1.933 1_655 S
Zn360 O366 1.941 . S
Zn360 O367 1.965 . S
Zn361 O359 1.950 . S
Zn361 O368 1.938 . S
Zn361 O369 1.906 . S
Zn361 O379 1.953 . S
Zn362 O359 1.945 1_556 S
Zn362 O364 1.932 . S
Zn362 O371 1.977 1_556 S
Zn362 O372 1.910 1_556 S
O363 Zn360 1.933 1_455 S
O363 C374 1.226 . S
O364 Zn362 1.932 . S
O364 C374 1.307 . S
O365 Zn358 1.919 . S
O365 C376 1.253 1_554 S
O366 Zn360 1.941 . S
O366 C376 1.283 . S
O367 Zn360 1.965 . S
O367 C375 1.303 . S
O368 Zn361 1.938 . S
O368 C375 1.247 1_454 S
O369 Zn361 1.906 . S
O369 C377 1.304 . S
O370 Zn358 1.939 . S
O370 C378 1.278 1_655 S
O371 Zn362 1.977 1_554 S
O371 C377 1.272 . S
O372 Zn362 1.910 1_554 S
O372 C378 1.231 . S
C373 O357 1.225 . S
C373 O379 1.298 1_655 S
C374 O363 1.226 . S
C374 O364 1.307 . S
C375 O367 1.303 . S
C375 O368 1.247 1_656 S
C376 O365 1.253 1_556 S
C376 O366 1.283 . S
C377 O369 1.304 . S
C377 O371 1.272 . S
C378 O370 1.278 1_455 S
C378 O372 1.231 . S
O379 Zn361 1.953 . S
O379 C373 1.298 1_455 S
C380 C381 1.349 . S
C380 C382 1.327 . S
C380 H405 0.950 . S
C381 C380 1.349 . S
C381 C397 1.349 . S
C382 C380 1.327 . S
C382 C401 1.429 . S
C382 H406 0.950 . S
C383 C400 1.574 . S
C383 C402 1.368 . S
C383 H407 0.949 . S
H384 C388 0.949 . S
C385 C386 1.349 . S
C385 C387 1.327 . S
C385 H408 0.950 . S
C386 C385 1.349 . S
C386 C398 1.349 . S
C387 C385 1.327 . S
C387 C403 1.429 . S
C387 H409 0.950 . S
C388 H384 0.949 . S
C388 C396 1.574 . S
C388 C404 1.368 . S
H389 C397 0.950 . S
H390 C395 0.950 . S
H391 C396 0.949 . S
H392 C398 0.950 . S
H393 C399 0.950 . S
H394 C400 0.949 . S
C395 H390 0.950 . S
C395 C397 1.327 . S
C395 C401 1.429 . S
C396 C388 1.574 . S
C396 H391 0.949 . S
C396 C402 1.368 . S
C397 C381 1.349 . S
C397 H389 0.950 . S
C397 C395 1.327 . S
C398 C386 1.349 . S
C398 H392 0.950 . S
C398 C399 1.327 . S
C399 H393 0.950 . S
C399 C398 1.327 . S
C399 C403 1.429 . S
C400 C383 1.574 . S
C400 H394 0.949 . S
C400 C404 1.368 . S
C401 C382 1.429 . S
C401 C395 1.429 . S
C401 C402 1.523 . S
C402 C383 1.368 . S
C402 C396 1.368 . S
C402 C401 1.523 . S
C403 C387 1.429 . S
C403 C399 1.429 . S
C403 C404 1.523 . S
C404 C388 1.368 . S
C404 C400 1.368 . S
C404 C403 1.523 . S
H405 C380 0.950 . S
H406 C382 0.950 . S
H407 C383 0.949 . S
H408 C385 0.950 . S
H409 C387 0.950 . S
C410 C411 1.349 . S
C410 C412 1.327 . S
C410 H435 0.950 . S
C411 C410 1.349 . S
C411 C427 1.349 . S
C412 C410 1.327 . S
C412 C431 1.429 . S
C412 H436 0.950 . S
C413 C430 1.574 . S
C413 C432 1.368 . S
C413 H437 0.949 . S
H414 C418 0.949 . S
C415 C416 1.349 . S
C415 C417 1.327 . S
C415 H438 0.950 . S
C416 C415 1.349 . S
C416 C428 1.349 . S
C417 C415 1.327 . S
C417 C433 1.429 . S
C417 H439 0.950 . S
C418 H414 0.949 . S
C418 C426 1.574 . S
C418 C434 1.368 . S
H419 C427 0.950 . S
H420 C425 0.950 . S
H421 C426 0.949 . S
H422 C428 0.950 1_545 S
H423 C429 0.950 . S
H424 C430 0.949 . S
C425 H420 0.950 . S
C425 C427 1.327 . S
C425 C431 1.429 . S
C426 C418 1.574 . S
C426 H421 0.949 . S
C426 C432 1.368 . S
C427 C411 1.349 . S
C427 H419 0.950 . S
C427 C425 1.327 . S
C428 C416 1.349 . S
C428 H422 0.950 1_565 S
C428 C429 1.327 . S
C429 H423 0.950 . S
C429 C428 1.327 . S
C429 C433 1.429 . S
C430 C413 1.574 . S
C430 H424 0.949 . S
C430 C434 1.368 . S
C431 C412 1.429 . S
C431 C425 1.429 . S
C431 C432 1.523 . S
C432 C413 1.368 . S
C432 C426 1.368 . S
C432 C431 1.523 . S
C433 C417 1.429 . S
C433 C429 1.429 . S
C433 C434 1.523 . S
C434 C418 1.368 . S
C434 C430 1.368 . S
C434 C433 1.523 . S
H435 C410 0.950 . S
H436 C412 0.950 . S
H437 C413 0.949 . S
H438 C415 0.950 . S
H439 C417 0.950 . S
C440 C441 1.349 . S
C440 C442 1.327 . S
C440 H465 0.950 . S
C441 C440 1.349 . S
C441 C457 1.349 . S
C442 C440 1.327 . S
C442 C461 1.429 . S
C442 H466 0.950 . S
C443 C460 1.574 . S
C443 C462 1.368 . S
C443 H467 0.949 . S
H444 C448 0.949 . S
C445 C446 1.349 . S
C445 C447 1.327 . S
C445 H468 0.950 . S
C446 C445 1.349 . S
C446 C458 1.349 . S
C447 C445 1.327 . S
C447 C463 1.429 . S
C447 H469 0.950 . S
C448 H444 0.949 . S
C448 C456 1.574 . S
C448 C464 1.368 . S
H449 C457 0.950 . S
H450 C455 0.950 . S
H451 C456 0.949 . S
H452 C458 0.950 . S
H453 C459 0.950 . S
H454 C460 0.949 . S
C455 H450 0.950 . S
C455 C457 1.327 . S
C455 C461 1.429 . S
C456 C448 1.574 . S
C456 H451 0.949 . S
C456 C462 1.368 . S
C457 C441 1.349 . S
C457 H449 0.950 . S
C457 C455 1.327 . S
C458 C446 1.349 . S
C458 H452 0.950 . S
C458 C459 1.327 . S
C459 H453 0.950 . S
C459 C458 1.327 . S
C459 C463 1.429 . S
C460 C443 1.574 . S
C460 H454 0.949 . S
C460 C464 1.368 . S
C461 C442 1.429 . S
C461 C455 1.429 . S
C461 C462 1.523 . S
C462 C443 1.368 . S
C462 C456 1.368 . S
C462 C461 1.523 . S
C463 C447 1.429 . S
C463 C459 1.429 . S
C463 C464 1.523 . S
C464 C448 1.368 . S
C464 C460 1.368 . S
C464 C463 1.523 . S
H465 C440 0.950 . S
H466 C442 0.950 . S
H467 C443 0.949 . S
H468 C445 0.950 . S
H469 C447 0.950 . S
C470 C471 1.349 . S
C470 C472 1.327 . S
C470 H495 0.950 . S
C471 C470 1.349 . S
C471 C487 1.349 . S
C472 C470 1.327 . S
C472 C491 1.429 . S
C472 H496 0.950 . S
C473 C490 1.574 . S
C473 C492 1.368 . S
C473 H497 0.949 . S
H474 C478 0.949 . S
C475 C476 1.349 . S
C475 C477 1.327 . S
C475 H498 0.929 1_655 S
C476 C475 1.349 . S
C476 C488 1.349 . S
C477 C475 1.327 . S
C477 C493 1.429 . S
C477 H499 0.950 . S
C478 H474 0.949 . S
C478 C486 1.574 . S
C478 C494 1.368 . S
H479 C487 0.950 . S
H480 C485 0.950 . S
H481 C486 0.949 . S
H482 C488 0.950 . S
H483 C489 0.950 . S
H484 C490 0.949 . S
C485 H480 0.950 . S
C485 C487 1.327 . S
C485 C491 1.429 . S
C486 C478 1.574 . S
C486 H481 0.949 . S
C486 C492 1.368 . S
C487 C471 1.349 . S
C487 H479 0.950 . S
C487 C485 1.327 . S
C488 C476 1.349 . S
C488 H482 0.950 . S
C488 C489 1.327 . S
C489 H483 0.950 . S
C489 C488 1.327 . S
C489 C493 1.429 . S
C490 C473 1.574 . S
C490 H484 0.949 . S
C490 C494 1.368 . S
C491 C472 1.429 . S
C491 C485 1.429 . S
C491 C492 1.523 . S
C492 C473 1.368 . S
C492 C486 1.368 . S
C492 C491 1.523 . S
C493 C477 1.429 . S
C493 C489 1.429 . S
C493 C494 1.523 . S
C494 C478 1.368 . S
C494 C490 1.368 . S
C494 C493 1.523 . S
H495 C470 0.950 . S
H496 C472 0.950 . S
H497 C473 0.949 . S
H498 C475 0.929 1_455 S
H499 C477 0.950 . S
C500 C501 1.349 . S
C500 C502 1.327 . S
C500 H525 0.950 . S
C501 C500 1.349 . S
C501 C517 1.349 . S
C502 C500 1.327 . S
C502 C521 1.429 . S
C502 H526 0.950 . S
C503 C520 1.574 . S
C503 C522 1.368 . S
C503 H527 0.949 . S
H504 C508 0.949 . S
C505 C506 1.349 . S
C505 C507 1.327 . S
C505 H528 0.950 . S
C506 C505 1.349 . S
C506 C518 1.349 . S
C507 C505 1.327 . S
C507 C523 1.429 . S
C507 H529 0.950 . S
C508 H504 0.949 . S
C508 C516 1.574 . S
C508 C524 1.368 . S
H509 C517 0.950 . S
H510 C515 0.950 . S
H511 C516 0.949 . S
H512 C518 0.950 . S
H513 C519 0.950 . S
H514 C520 0.949 . S
C515 H510 0.950 . S
C515 C517 1.327 . S
C515 C521 1.429 . S
C516 C508 1.574 . S
C516 H511 0.949 . S
C516 C522 1.368 . S
C517 C501 1.349 . S
C517 H509 0.950 . S
C517 C515 1.327 . S
C518 C506 1.349 . S
C518 H512 0.950 . S
C518 C519 1.327 . S
C519 H513 0.950 . S
C519 C518 1.327 . S
C519 C523 1.429 . S
C520 C503 1.574 . S
C520 H514 0.949 . S
C520 C524 1.368 . S
C521 C502 1.429 . S
C521 C515 1.429 . S
C521 C522 1.523 . S
C522 C503 1.368 . S
C522 C516 1.368 . S
C522 C521 1.523 . S
C523 C507 1.429 . S
C523 C519 1.429 . S
C523 C524 1.523 . S
C524 C508 1.368 . S
C524 C520 1.368 . S
C524 C523 1.523 . S
H525 C500 0.950 . S
H526 C502 0.950 . S
H527 C503 0.949 . S
H528 C505 0.950 . S
H529 C507 0.950 . S
C530 C531 1.349 . S
C530 C532 1.327 . S
C530 H555 0.950 . S
C531 C530 1.349 . S
C531 C547 1.349 . S
C532 C530 1.327 . S
C532 C551 1.429 . S
C532 H556 0.950 . S
C533 C550 1.574 . S
C533 C552 1.368 . S
C533 H557 0.949 . S
H534 C538 0.949 . S
C535 C536 1.349 . S
C535 C537 1.327 . S
C535 H558 0.997 . S
C536 C535 1.349 . S
C536 C548 1.349 . S
C537 C535 1.327 . S
C537 C553 1.429 . S
C537 H559 0.950 . S
C538 H534 0.949 . S
C538 C546 1.574 . S
C538 C554 1.368 . S
H539 C547 0.950 . S
H540 C545 0.950 . S
H541 C546 0.949 . S
H542 C548 0.950 . S
H543 C549 0.950 . S
H544 C550 0.949 . S
C545 H540 0.950 . S
C545 C547 1.327 . S
C545 C551 1.429 . S
C546 C538 1.574 . S
C546 H541 0.949 . S
C546 C552 1.368 . S
C547 C531 1.349 . S
C547 H539 0.950 . S
C547 C545 1.327 . S
C548 C536 1.349 . S
C548 H542 0.950 . S
C548 C549 1.327 . S
C549 H543 0.950 . S
C549 C548 1.327 . S
C549 C553 1.429 . S
C550 C533 1.574 . S
C550 H544 0.949 . S
C550 C554 1.368 . S
C551 C532 1.429 . S
C551 C545 1.429 . S
C551 C552 1.523 . S
C552 C533 1.368 . S
C552 C546 1.368 . S
C552 C551 1.523 . S
C553 C537 1.429 . S
C553 C549 1.429 . S
C553 C554 1.523 . S
C554 C538 1.368 . S
C554 C550 1.368 . S
C554 C553 1.523 . S
H555 C530 0.950 . S
H556 C532 0.950 . S
H557 C533 0.949 . S
H558 C535 0.997 . S
H559 C537 0.950 . S
C560 C561 1.349 . S
C560 C562 1.327 . S
C560 H585 0.950 . S
C561 C560 1.349 . S
C561 C577 1.349 . S
C562 C560 1.327 . S
C562 C581 1.429 . S
C562 H586 0.950 . S
C563 C580 1.574 . S
C563 C582 1.368 . S
C563 H587 0.949 . S
H564 C568 0.949 . S
C565 C566 1.349 . S
C565 C567 1.327 . S
C565 H588 0.950 . S
C566 C565 1.349 . S
C566 C578 1.349 . S
C567 C565 1.327 . S
C567 C583 1.429 . S
C567 H589 0.950 . S
C568 H564 0.949 . S
C568 C576 1.574 . S
C568 C584 1.368 . S
H569 C577 0.950 . S
H570 C575 0.950 . S
H571 C576 0.949 . S
H572 C578 0.950 . S
H573 C579 0.950 . S
H574 C580 0.949 . S
C575 H570 0.950 . S
C575 C577 1.327 . S
C575 C581 1.429 . S
C576 C568 1.574 . S
C576 H571 0.949 . S
C576 C582 1.368 . S
C577 C561 1.349 . S
C577 H569 0.950 . S
C577 C575 1.327 . S
C578 C566 1.349 . S
C578 H572 0.950 . S
C578 C579 1.327 . S
C579 H573 0.950 . S
C579 C578 1.327 . S
C579 C583 1.429 . S
C580 C563 1.574 . S
C580 H574 0.949 . S
C580 C584 1.368 . S
C581 C562 1.429 . S
C581 C575 1.429 . S
C581 C582 1.523 . S
C582 C563 1.368 . S
C582 C576 1.368 . S
C582 C581 1.523 . S
C583 C567 1.429 . S
C583 C579 1.429 . S
C583 C584 1.523 . S
C584 C568 1.368 . S
C584 C580 1.368 . S
C584 C583 1.523 . S
H585 C560 0.950 . S
H586 C562 0.950 . S
H587 C563 0.949 . S
H588 C565 0.950 . S
H589 C567 0.950 . S
C590 C591 1.349 . S
C590 C592 1.327 . S
C590 H615 0.950 . S
C591 C590 1.349 . S
C591 C607 1.349 . S
C592 C590 1.327 . S
C592 C611 1.429 . S
C592 H616 0.950 . S
C593 C610 1.574 . S
C593 C612 1.368 . S
C593 H617 0.949 . S
H594 C598 0.949 . S
C595 C596 1.349 . S
C595 C597 1.327 . S
C595 H618 0.950 . S
C596 C595 1.349 . S
C596 C608 1.349 . S
C597 C595 1.327 . S
C597 C613 1.429 . S
C597 H619 0.950 . S
C598 H594 0.949 . S
C598 C606 1.574 . S
C598 C614 1.368 . S
H599 C607 0.950 . S
H600 C605 0.950 . S
H601 C606 0.949 . S
H602 C608 0.950 . S
H603 C609 0.950 . S
H604 C610 0.949 . S
C605 H600 0.950 . S
C605 C607 1.327 . S
C605 C611 1.429 . S
C606 C598 1.574 . S
C606 H601 0.949 . S
C606 C612 1.368 . S
C607 C591 1.349 . S
C607 H599 0.950 . S
C607 C605 1.327 . S
C608 C596 1.349 . S
C608 H602 0.950 . S
C608 C609 1.327 . S
C609 H603 0.950 . S
C609 C608 1.327 . S
C609 C613 1.429 . S
C610 C593 1.574 . S
C610 H604 0.949 . S
C610 C614 1.368 . S
C611 C592 1.429 . S
C611 C605 1.429 . S
C611 C612 1.523 . S
C612 C593 1.368 . S
C612 C606 1.368 . S
C612 C611 1.523 . S
C613 C597 1.429 . S
C613 C609 1.429 . S
C613 C614 1.523 . S
C614 C598 1.368 . S
C614 C610 1.368 . S
C614 C613 1.523 . S
H615 C590 0.950 . S
H616 C592 0.950 . S
H617 C593 0.949 . S
H618 C595 0.950 . S
H619 C597 0.950 . S
C620 C621 1.349 . S
C620 C622 1.327 . S
C620 H645 0.950 . S
C621 C620 1.349 . S
C621 C637 1.349 . S
C622 C620 1.327 . S
C622 C641 1.429 . S
C622 H646 0.950 . S
C623 C640 1.574 . S
C623 C642 1.368 . S
C623 H647 0.949 . S
H624 C628 0.949 . S
C625 C626 1.349 . S
C625 C627 1.327 . S
C625 H648 0.950 . S
C626 C625 1.349 . S
C626 C638 1.349 . S
C627 C625 1.327 . S
C627 C643 1.429 . S
C627 H649 0.950 . S
C628 H624 0.949 . S
C628 C636 1.574 . S
C628 C644 1.368 . S
H629 C637 0.950 . S
H630 C635 0.950 . S
H631 C636 0.949 . S
H632 C638 0.950 . S
H633 C639 0.950 . S
H634 C640 0.949 . S
C635 H630 0.950 . S
C635 C637 1.327 . S
C635 C641 1.429 . S
C636 C628 1.574 . S
C636 H631 0.949 . S
C636 C642 1.368 . S
C637 C621 1.349 . S
C637 H629 0.950 . S
C637 C635 1.327 . S
C638 C626 1.349 . S
C638 H632 0.950 . S
C638 C639 1.327 . S
C639 H633 0.950 . S
C639 C638 1.327 . S
C639 C643 1.429 . S
C640 C623 1.574 . S
C640 H634 0.949 . S
C640 C644 1.368 . S
C641 C622 1.429 . S
C641 C635 1.429 . S
C641 C642 1.523 . S
C642 C623 1.368 . S
C642 C636 1.368 . S
C642 C641 1.523 . S
C643 C627 1.429 . S
C643 C639 1.429 . S
C643 C644 1.523 . S
C644 C628 1.368 . S
C644 C640 1.368 . S
C644 C643 1.523 . S
H645 C620 0.950 . S
H646 C622 0.950 . S
H647 C623 0.949 . S
H648 C625 0.950 . S
H649 C627 0.950 . S
C650 C651 1.349 . S
C650 C652 1.327 . S
C650 H675 0.950 . S
C651 C650 1.349 . S
C651 C667 1.349 . S
C652 C650 1.327 . S
C652 C671 1.429 . S
C652 H676 0.950 . S
C653 C670 1.574 . S
C653 C672 1.368 . S
C653 H677 0.949 . S
H654 C658 0.949 . S
C655 C656 1.349 . S
C655 C657 1.327 . S
C655 H678 0.950 . S
C656 C655 1.349 . S
C656 C668 1.349 1_556 S
C657 C655 1.327 . S
C657 C673 1.429 . S
C657 H679 0.950 . S
C658 H654 0.949 . S
C658 C666 1.574 . S
C658 C674 1.368 . S
H659 C667 0.950 . S
H660 C665 0.950 . S
H661 C666 0.949 . S
H662 C668 0.950 . S
H663 C669 0.950 1_554 S
H664 C670 0.949 . S
C665 H660 0.950 . S
C665 C667 1.327 . S
C665 C671 1.429 . S
C666 C658 1.574 . S
C666 H661 0.949 . S
C666 C672 1.368 . S
C667 C651 1.349 . S
C667 H659 0.950 . S
C667 C665 1.327 . S
C668 C656 1.349 1_554 S
C668 H662 0.950 . S
C668 C669 1.327 1_554 S
C669 H663 0.950 1_556 S
C669 C668 1.327 1_556 S
C669 C673 1.429 . S
C670 C653 1.574 . S
C670 H664 0.949 . S
C670 C674 1.368 . S
C671 C652 1.429 . S
C671 C665 1.429 . S
C671 C672 1.523 . S
C672 C653 1.368 . S
C672 C666 1.368 . S
C672 C671 1.523 . S
C673 C657 1.429 . S
C673 C669 1.429 . S
C673 C674 1.523 . S
C674 C658 1.368 . S
C674 C670 1.368 . S
C674 C673 1.523 . S
H675 C650 0.950 . S
H676 C652 0.950 . S
H677 C653 0.949 . S
H678 C655 0.950 . S
H679 C657 0.950 . S
C680 C681 1.349 . S
C680 C682 1.327 . S
C680 H705 0.950 . S
C681 C680 1.349 . S
C681 C697 1.349 . S
C682 C680 1.327 . S
C682 C701 1.429 . S
C682 H706 0.950 . S
C683 C700 1.574 . S
C683 C702 1.368 . S
C683 H707 0.949 . S
H684 C688 0.949 . S
C685 C686 1.349 . S
C685 C687 1.327 . S
C685 H708 0.950 . S
C686 C685 1.349 . S
C686 C698 1.349 . S
C687 C685 1.327 . S
C687 C703 1.429 . S
C687 H709 0.950 . S
C688 H684 0.949 . S
C688 C696 1.574 . S
C688 C704 1.368 . S
H689 C697 0.950 . S
H690 C695 0.950 . S
H691 C696 0.949 . S
H692 C698 0.950 1_455 S
H693 C699 0.950 . S
H694 C700 0.949 . S
C695 H690 0.950 . S
C695 C697 1.327 . S
C695 C701 1.429 . S
C696 C688 1.574 . S
C696 H691 0.949 . S
C696 C702 1.368 . S
C697 C681 1.349 . S
C697 H689 0.950 . S
C697 C695 1.327 . S
C698 C686 1.349 . S
C698 H692 0.950 1_655 S
C698 C699 1.327 . S
C699 H693 0.950 . S
C699 C698 1.327 . S
C699 C703 1.429 . S
C700 C683 1.574 . S
C700 H694 0.949 . S
C700 C704 1.368 . S
C701 C682 1.429 . S
C701 C695 1.429 . S
C701 C702 1.523 . S
C702 C683 1.368 . S
C702 C696 1.368 . S
C702 C701 1.523 . S
C703 C687 1.429 . S
C703 C699 1.429 . S
C703 C704 1.523 . S
C704 C688 1.368 . S
C704 C700 1.368 . S
C704 C703 1.523 . S
H705 C680 0.950 . S
H706 C682 0.950 . S
H707 C683 0.949 . S
H708 C685 0.950 . S
H709 C687 0.950 . S
C710 C711 1.349 . S
C710 C712 1.327 . S
C710 H735 0.950 . S
C711 C710 1.349 . S
C711 C727 1.349 . S
C712 C710 1.327 . S
C712 C731 1.429 . S
C712 H736 0.950 . S
C713 C730 1.574 . S
C713 C732 1.368 . S
C713 H737 0.949 . S
H714 C718 0.949 . S
C715 C716 1.349 . S
C715 C717 1.327 . S
C715 H738 0.950 . S
C716 C715 1.349 . S
C716 C728 1.349 . S
C717 C715 1.327 . S
C717 C733 1.429 . S
C717 H739 0.950 . S
C718 H714 0.949 . S
C718 C726 1.574 . S
C718 C734 1.368 . S
H719 C727 0.950 . S
H720 C725 0.950 . S
H721 C726 0.949 . S
H722 C728 0.950 . S
H723 C729 0.950 . S
H724 C730 0.949 . S
C725 H720 0.950 . S
C725 C727 1.327 . S
C725 C731 1.429 . S
C726 C718 1.574 . S
C726 H721 0.949 . S
C726 C732 1.368 . S
C727 C711 1.349 . S
C727 H719 0.950 . S
C727 C725 1.327 . S
C728 C716 1.349 . S
C728 H722 0.950 . S
C728 C729 1.327 . S
C729 H723 0.950 . S
C729 C728 1.327 . S
C729 C733 1.429 . S
C730 C713 1.574 . S
C730 H724 0.949 . S
C730 C734 1.368 . S
C731 C712 1.429 . S
C731 C725 1.429 . S
C731 C732 1.523 . S
C732 C713 1.368 . S
C732 C726 1.368 . S
C732 C731 1.523 . S
C733 C717 1.429 . S
C733 C729 1.429 . S
C733 C734 1.523 . S
C734 C718 1.368 . S
C734 C730 1.368 . S
C734 C733 1.523 . S
H735 C710 0.950 . S
H736 C712 0.950 . S
H737 C713 0.949 . S
H738 C715 0.950 . S
H739 C717 0.950 . S
C740 C741 1.349 . S
C740 C742 1.327 . S
C740 H765 0.950 . S
C741 C740 1.349 . S
C741 C757 1.349 . S
C742 C740 1.327 . S
C742 C761 1.429 . S
C742 H766 0.950 . S
C743 C760 1.574 . S
C743 C762 1.368 1_545 S
C743 H767 0.949 . S
H744 C748 0.949 . S
C745 C746 1.336 1_545 S
C745 C747 1.327 . S
C745 H768 0.950 1_655 S
C746 C745 1.336 1_565 S
C746 C758 1.364 . S
C747 C745 1.327 . S
C747 C763 1.429 1_545 S
C747 H769 0.951 . S
C748 H744 0.949 . S
C748 C756 1.574 . S
C748 C764 1.368 . S
H749 C757 0.950 1_545 S
H750 C755 0.950 1_545 S
H751 C756 0.949 . S
H752 C758 0.950 . S
H753 C759 0.950 . S
H754 C760 0.949 . S
C755 H750 0.950 1_565 S
C755 C757 1.327 . S
C755 C761 1.429 . S
C756 C748 1.574 . S
C756 H751 0.949 . S
C756 C762 1.368 . S
C757 C741 1.349 . S
C757 H749 0.950 1_565 S
C757 C755 1.327 . S
C758 C746 1.364 . S
C758 H752 0.950 . S
C758 C759 1.327 . S
C759 H753 0.950 . S
C759 C758 1.327 . S
C759 C763 1.429 . S
C760 C743 1.574 . S
C760 H754 0.949 . S
C760 C764 1.368 1_545 S
C761 C742 1.429 . S
C761 C755 1.429 . S
C761 C762 1.523 . S
C762 C743 1.368 1_565 S
C762 C756 1.368 . S
C762 C761 1.523 . S
C763 C747 1.429 1_565 S
C763 C759 1.429 . S
C763 C764 1.523 . S
C764 C748 1.368 . S
C764 C760 1.368 1_565 S
C764 C763 1.523 . S
H765 C740 0.950 . S
H766 C742 0.950 . S
H767 C743 0.949 . S
H768 C745 0.950 1_455 S
H769 C747 0.951 . S
C770 C771 1.349 . S
C770 C772 1.327 . S
C770 H795 0.950 . S
C771 C770 1.349 . S
C771 C787 1.349 . S
C772 C770 1.327 . S
C772 C791 1.429 . S
C772 H796 0.950 . S
C773 C790 1.574 . S
C773 C792 1.368 . S
C773 H797 0.949 . S
H774 C778 0.949 . S
C775 C776 1.352 . S
C775 C777 1.328 . S
C775 H798 0.946 1_545 S
C776 C775 1.352 . S
C776 C788 1.349 . S
C777 C775 1.328 . S
C777 C793 1.429 . S
C777 H799 0.950 1_545 S
C778 H774 0.949 . S
C778 C786 1.574 . S
C778 C794 1.368 . S
H779 C787 0.950 . S
H780 C785 0.950 . S
H781 C786 0.949 . S
H782 C788 0.950 . S
H783 C789 0.950 . S
H784 C790 0.949 1_565 S
C785 H780 0.950 . S
C785 C787 1.327 . S
C785 C791 1.429 . S
C786 C778 1.574 . S
C786 H781 0.949 . S
C786 C792 1.368 . S
C787 C771 1.349 . S
C787 H779 0.950 . S
C787 C785 1.327 . S
C788 C776 1.349 . S
C788 H782 0.950 . S
C788 C789 1.327 . S
C789 H783 0.950 . S
C789 C788 1.327 . S
C789 C793 1.429 . S
C790 C773 1.574 . S
C790 H784 0.949 1_545 S
C790 C794 1.368 . S
C791 C772 1.429 . S
C791 C785 1.429 . S
C791 C792 1.523 . S
C792 C773 1.368 . S
C792 C786 1.368 . S
C792 C791 1.523 . S
C793 C777 1.429 . S
C793 C789 1.429 . S
C793 C794 1.523 . S
C794 C778 1.368 . S
C794 C790 1.368 . S
C794 C793 1.523 . S
H795 C770 0.950 . S
H796 C772 0.950 . S
H797 C773 0.949 . S
H798 C775 0.946 1_565 S
H799 C777 0.950 1_565 S
C800 C801 1.349 . S
C800 C802 1.327 . S
C800 H825 0.950 . S
C801 C800 1.349 . S
C801 C817 1.349 . S
C802 C800 1.327 . S
C802 C821 1.429 . S
C802 H826 0.950 . S
C803 C820 1.574 . S
C803 C822 1.368 . S
C803 H827 0.949 . S
H804 C808 0.949 . S
C805 C806 1.349 . S
C805 C807 1.327 . S
C805 H828 0.950 . S
C806 C805 1.349 . S
C806 C818 1.349 . S
C807 C805 1.327 . S
C807 C823 1.429 . S
C807 H829 0.950 . S
C808 H804 0.949 . S
C808 C816 1.574 . S
C808 C824 1.368 . S
H809 C817 0.950 . S
H810 C815 0.950 . S
H811 C816 0.949 . S
H812 C818 0.950 . S
H813 C819 0.950 . S
H814 C820 0.949 . S
C815 H810 0.950 . S
C815 C817 1.327 . S
C815 C821 1.429 . S
C816 C808 1.574 . S
C816 H811 0.949 . S
C816 C822 1.368 . S
C817 C801 1.349 . S
C817 H809 0.950 . S
C817 C815 1.327 . S
C818 C806 1.349 . S
C818 H812 0.950 . S
C818 C819 1.327 . S
C819 H813 0.950 . S
C819 C818 1.327 . S
C819 C823 1.429 . S
C820 C803 1.574 . S
C820 H814 0.949 . S
C820 C824 1.368 . S
C821 C802 1.429 . S
C821 C815 1.429 . S
C821 C822 1.523 . S
C822 C803 1.368 . S
C822 C816 1.368 . S
C822 C821 1.523 . S
C823 C807 1.429 . S
C823 C819 1.429 . S
C823 C824 1.523 . S
C824 C808 1.368 . S
C824 C820 1.368 . S
C824 C823 1.523 . S
H825 C800 0.950 . S
H826 C802 0.950 . S
H827 C803 0.949 . S
H828 C805 0.950 . S
H829 C807 0.950 . S
C830 C831 1.349 . S
C830 C832 1.327 . S
C830 H855 0.950 . S
C831 C830 1.349 . S
C831 C847 1.349 . S
C832 C830 1.327 . S
C832 C851 1.429 . S
C832 H856 0.950 . S
C833 C850 1.574 . S
C833 C852 1.368 . S
C833 H857 0.949 . S
H834 C838 0.949 . S
C835 C836 1.349 . S
C835 C837 1.327 . S
C835 H858 0.950 . S
C836 C835 1.349 . S
C836 C848 1.349 . S
C837 C835 1.327 . S
C837 C853 1.429 . S
C837 H859 0.950 . S
C838 H834 0.949 . S
C838 C846 1.574 . S
C838 C854 1.368 . S
H839 C847 0.950 . S
H840 C845 0.950 . S
H841 C846 0.949 . S
H842 C848 0.950 . S
H843 C849 0.950 . S
H844 C850 0.949 . S
C845 H840 0.950 . S
C845 C847 1.327 . S
C845 C851 1.429 . S
C846 C838 1.574 . S
C846 H841 0.949 . S
C846 C852 1.368 . S
C847 C831 1.349 . S
C847 H839 0.950 . S
C847 C845 1.327 . S
C848 C836 1.349 . S
C848 H842 0.950 . S
C848 C849 1.327 . S
C849 H843 0.950 . S
C849 C848 1.327 . S
C849 C853 1.429 . S
C850 C833 1.574 . S
C850 H844 0.949 . S
C850 C854 1.368 . S
C851 C832 1.429 . S
C851 C845 1.429 . S
C851 C852 1.523 . S
C852 C833 1.368 . S
C852 C846 1.368 . S
C852 C851 1.523 . S
C853 C837 1.429 . S
C853 C849 1.429 . S
C853 C854 1.523 . S
C854 C838 1.368 . S
C854 C850 1.368 . S
C854 C853 1.523 . S
H855 C830 0.950 . S
H856 C832 0.950 . S
H857 C833 0.949 . S
H858 C835 0.950 . S
H859 C837 0.950 . S
C860 C861 1.349 . S
C860 C862 1.327 . S
C860 H885 0.950 . S
C861 C860 1.349 . S
C861 C877 1.349 . S
C862 C860 1.327 . S
C862 C881 1.429 . S
C862 H886 0.950 . S
C863 C880 1.574 1_556 S
C863 C882 1.368 . S
C863 H887 0.949 1_556 S
H864 C868 0.949 . S
C865 C866 1.349 1_554 S
C865 C867 1.327 . S
C865 H888 0.950 . S
C866 C865 1.349 1_556 S
C866 C878 1.349 . S
C867 C865 1.327 . S
C867 C883 1.429 1_554 S
C867 H889 0.950 . S
C868 H864 0.949 . S
C868 C876 1.574 . S
C868 C884 1.368 . S
H869 C877 0.950 . S
H870 C875 0.950 1_554 S
H871 C876 0.949 . S
H872 C878 0.950 . S
H873 C879 0.950 . S
H874 C880 0.949 . S
C875 H870 0.950 1_556 S
C875 C877 1.327 . S
C875 C881 1.429 . S
C876 C868 1.574 . S
C876 H871 0.949 . S
C876 C882 1.368 . S
C877 C861 1.349 . S
C877 H869 0.950 . S
C877 C875 1.327 . S
C878 C866 1.349 . S
C878 H872 0.950 . S
C878 C879 1.327 . S
C879 H873 0.950 . S
C879 C878 1.327 . S
C879 C883 1.429 . S
C880 C863 1.574 1_554 S
C880 H874 0.949 . S
C880 C884 1.368 1_554 S
C881 C862 1.429 . S
C881 C875 1.429 . S
C881 C882 1.523 . S
C882 C863 1.368 . S
C882 C876 1.368 . S
C882 C881 1.523 . S
C883 C867 1.429 1_556 S
C883 C879 1.429 . S
C883 C884 1.523 . S
C884 C868 1.368 . S
C884 C880 1.368 1_556 S
C884 C883 1.523 . S
H885 C860 0.950 . S
H886 C862 0.950 . S
H887 C863 0.949 1_554 S
H888 C865 0.950 . S
H889 C867 0.950 . S
C890 C891 1.349 . S
C890 C892 1.327 . S
C890 H915 0.950 . S
C891 C890 1.349 . S
C891 C907 1.349 . S
C892 C890 1.327 . S
C892 C911 1.429 . S
C892 H916 0.950 . S
C893 C910 1.574 . S
C893 C912 1.368 . S
C893 H917 0.949 . S
H894 C898 0.949 . S
C895 C896 1.349 . S
C895 C897 1.327 . S
C895 H918 0.950 . S
C896 C895 1.349 . S
C896 C908 1.349 . S
C897 C895 1.327 . S
C897 C913 1.429 . S
C897 H919 0.950 . S
C898 H894 0.949 . S
C898 C906 1.574 . S
C898 C914 1.368 . S
H899 C907 0.950 . S
H900 C905 0.950 . S
H901 C906 0.949 . S
H902 C908 0.950 . S
H903 C909 0.950 . S
H904 C910 0.949 . S
C905 H900 0.950 . S
C905 C907 1.327 . S
C905 C911 1.429 . S
C906 C898 1.574 . S
C906 H901 0.949 . S
C906 C912 1.368 . S
C907 C891 1.349 . S
C907 H899 0.950 . S
C907 C905 1.327 . S
C908 C896 1.349 . S
C908 H902 0.950 . S
C908 C909 1.327 . S
C909 H903 0.950 . S
C909 C908 1.327 . S
C909 C913 1.429 . S
C910 C893 1.574 . S
C910 H904 0.949 . S
C910 C914 1.368 . S
C911 C892 1.429 . S
C911 C905 1.429 . S
C911 C912 1.523 . S
C912 C893 1.368 . S
C912 C906 1.368 . S
C912 C911 1.523 . S
C913 C897 1.429 . S
C913 C909 1.429 . S
C913 C914 1.523 . S
C914 C898 1.368 . S
C914 C910 1.368 . S
C914 C913 1.523 . S
H915 C890 0.950 . S
H916 C892 0.950 . S
H917 C893 0.949 . S
H918 C895 0.950 . S
H919 C897 0.950 . S
C920 C921 1.349 . S
C920 C922 1.327 . S
C920 H945 0.950 . S
C921 C920 1.349 . S
C921 C937 1.349 . S
C922 C920 1.327 . S
C922 C941 1.429 . S
C922 H946 0.950 . S
C923 C940 1.574 . S
C923 C942 1.368 . S
C923 H947 0.949 . S
H924 C928 0.949 1_556 S
C925 C926 1.349 . S
C925 C927 1.327 . S
C925 H948 0.950 . S
C926 C925 1.349 . S
C926 C938 1.349 1_554 S
C927 C925 1.327 . S
C927 C943 1.429 . S
C927 H949 0.950 . S
C928 H924 0.949 1_554 S
C928 C936 1.574 . S
C928 C944 1.368 . S
H929 C937 0.950 . S
H930 C935 0.950 . S
H931 C936 0.949 . S
H932 C938 0.950 . S
H933 C939 0.950 1_556 S
H934 C940 0.949 . S
C935 H930 0.950 . S
C935 C937 1.327 . S
C935 C941 1.429 . S
C936 C928 1.574 . S
C936 H931 0.949 . S
C936 C942 1.368 . S
C937 C921 1.349 . S
C937 H929 0.950 . S
C937 C935 1.327 . S
C938 C926 1.349 1_556 S
C938 H932 0.950 . S
C938 C939 1.327 1_556 S
C939 H933 0.950 1_554 S
C939 C938 1.327 1_554 S
C939 C943 1.429 . S
C940 C923 1.574 . S
C940 H934 0.949 . S
C940 C944 1.368 . S
C941 C922 1.429 . S
C941 C935 1.429 . S
C941 C942 1.523 . S
C942 C923 1.368 . S
C942 C936 1.368 . S
C942 C941 1.523 . S
C943 C927 1.429 . S
C943 C939 1.429 . S
C943 C944 1.523 . S
C944 C928 1.368 . S
C944 C940 1.368 . S
C944 C943 1.523 . S
H945 C920 0.950 . S
H946 C922 0.950 . S
H947 C923 0.949 . S
H948 C925 0.950 . S
H949 C927 0.950 . S
C950 C951 1.349 . S
C950 C952 1.327 . S
C950 H975 0.950 . S
C951 C950 1.349 . S
C951 C967 1.349 . S
C952 C950 1.327 . S
C952 C971 1.429 . S
C952 H976 0.950 . S
C953 C970 1.574 . S
C953 C972 1.368 . S
C953 H977 0.949 . S
H954 C958 0.949 . S
C955 C956 1.349 . S
C955 C957 1.327 . S
C955 H978 0.950 . S
C956 C955 1.349 . S
C956 C968 1.349 . S
C957 C955 1.327 . S
C957 C973 1.429 . S
C957 H979 0.950 . S
C958 H954 0.949 . S
C958 C966 1.574 . S
C958 C974 1.368 . S
H959 C967 0.950 . S
H960 C965 0.950 . S
H961 C966 0.949 . S
H962 C968 0.950 . S
H963 C969 0.950 . S
H964 C970 0.949 . S
C965 H960 0.950 . S
C965 C967 1.327 . S
C965 C971 1.429 . S
C966 C958 1.574 . S
C966 H961 0.949 . S
C966 C972 1.368 . S
C967 C951 1.349 . S
C967 H959 0.950 . S
C967 C965 1.327 . S
C968 C956 1.349 . S
C968 H962 0.950 . S
C968 C969 1.327 . S
C969 H963 0.950 . S
C969 C968 1.327 . S
C969 C973 1.429 . S
C970 C953 1.574 . S
C970 H964 0.949 . S
C970 C974 1.368 . S
C971 C952 1.429 . S
C971 C965 1.429 . S
C971 C972 1.523 . S
C972 C953 1.368 . S
C972 C966 1.368 . S
C972 C971 1.523 . S
C973 C957 1.429 . S
C973 C969 1.429 . S
C973 C974 1.523 . S
C974 C958 1.368 . S
C974 C970 1.368 . S
C974 C973 1.523 . S
H975 C950 0.950 . S
H976 C952 0.950 . S
H977 C953 0.949 . S
H978 C955 0.950 . S
H979 C957 0.950 . S
C980 C981 1.349 . S
C980 C982 1.327 . S
C980 H1005 0.950 . S
C981 C980 1.349 . S
C981 C997 1.349 . S
C982 C980 1.327 . S
C982 C1001 1.429 . S
C982 H1006 0.950 . S
C983 C1000 1.574 . S
C983 C1002 1.368 . S
C983 H1007 0.949 . S
H984 C988 0.949 1_554 S
C985 C986 1.349 . S
C985 C987 1.327 . S
C985 H1008 0.950 1_655 S
C986 C985 1.349 . S
C986 C998 1.349 1_556 S
C987 C985 1.327 . S
C987 C1003 1.429 . S
C987 H1009 0.949 1_655 S
C988 H984 0.949 1_556 S
C988 C996 1.574 . S
C988 C1004 1.368 . S
H989 C997 0.950 . S
H990 C995 0.950 . S
H991 C996 0.932 1_554 S
H992 C998 0.950 . S
H993 C999 0.950 . S
H994 C1000 0.949 . S
C995 H990 0.950 . S
C995 C997 1.327 . S
C995 C1001 1.429 . S
C996 C988 1.574 . S
C996 H991 0.932 1_556 S
C996 C1002 1.368 . S
C997 C981 1.349 . S
C997 H989 0.950 . S
C997 C995 1.327 . S
C998 C986 1.349 1_554 S
C998 H992 0.950 . S
C998 C999 1.327 . S
C999 H993 0.950 . S
C999 C998 1.327 . S
C999 C1003 1.429 1_554 S
C1000 C983 1.574 . S
C1000 H994 0.949 . S
C1000 C1004 1.368 . S
C1001 C982 1.429 . S
C1001 C995 1.429 . S
C1001 C1002 1.523 . S
C1002 C983 1.368 . S
C1002 C996 1.368 . S
C1002 C1001 1.523 . S
C1003 C987 1.429 . S
C1003 C999 1.429 1_556 S
C1003 C1004 1.523 . S
C1004 C988 1.368 . S
C1004 C1000 1.368 . S
C1004 C1003 1.523 . S
H1005 C980 0.950 . S
H1006 C982 0.950 . S
H1007 C983 0.949 . S
H1008 C985 0.950 1_455 S
H1009 C987 0.949 1_455 S
C1010 C1011 1.349 . S
C1010 C1012 1.327 . S
C1010 H1035 0.950 . S
C1011 C1010 1.349 . S
C1011 C1027 1.349 . S
C1012 C1010 1.327 . S
C1012 C1031 1.429 . S
C1012 H1036 0.950 . S
C1013 C1030 1.574 . S
C1013 C1032 1.368 . S
C1013 H1037 0.949 . S
H1014 C1018 0.949 . S
C1015 C1016 1.349 . S
C1015 C1017 1.327 . S
C1015 H1038 0.950 . S
C1016 C1015 1.349 . S
C1016 C1028 1.349 . S
C1017 C1015 1.327 . S
C1017 C1033 1.429 . S
C1017 H1039 0.950 . S
C1018 H1014 0.949 . S
C1018 C1026 1.574 . S
C1018 C1034 1.368 . S
H1019 C1027 0.950 . S
H1020 C1025 0.950 . S
H1021 C1026 0.949 . S
H1022 C1028 0.950 . S
H1023 C1029 0.950 . S
H1024 C1030 0.949 . S
C1025 H1020 0.950 . S
C1025 C1027 1.327 . S
C1025 C1031 1.429 . S
C1026 C1018 1.574 . S
C1026 H1021 0.949 . S
C1026 C1032 1.368 . S
C1027 C1011 1.349 . S
C1027 H1019 0.950 . S
C1027 C1025 1.327 . S
C1028 C1016 1.349 . S
C1028 H1022 0.950 . S
C1028 C1029 1.327 . S
C1029 H1023 0.950 . S
C1029 C1028 1.327 . S
C1029 C1033 1.429 . S
C1030 C1013 1.574 . S
C1030 H1024 0.949 . S
C1030 C1034 1.368 . S
C1031 C1012 1.429 . S
C1031 C1025 1.429 . S
C1031 C1032 1.523 . S
C1032 C1013 1.368 . S
C1032 C1026 1.368 . S
C1032 C1031 1.523 . S
C1033 C1017 1.429 . S
C1033 C1029 1.429 . S
C1033 C1034 1.523 . S
C1034 C1018 1.368 . S
C1034 C1030 1.368 . S
C1034 C1033 1.523 . S
H1035 C1010 0.950 . S
H1036 C1012 0.950 . S
H1037 C1013 0.949 . S
H1038 C1015 0.950 . S
H1039 C1017 0.950 . S
C1040 C1041 1.349 . S
C1040 C1042 1.327 . S
C1040 H1065 0.950 . S
C1041 C1040 1.349 . S
C1041 C1057 1.349 . S
C1042 C1040 1.327 . S
C1042 C1061 1.429 . S
C1042 H1066 0.950 . S
C1043 C1060 1.574 . S
C1043 C1062 1.368 . S
C1043 H1067 0.949 . S
H1044 C1048 0.949 . S
C1045 C1046 1.349 . S
C1045 C1047 1.327 . S
C1045 H1068 0.950 . S
C1046 C1045 1.349 . S
C1046 C1058 1.349 . S
C1047 C1045 1.327 . S
C1047 C1063 1.429 . S
C1047 H1069 0.950 . S
C1048 H1044 0.949 . S
C1048 C1056 1.574 . S
C1048 C1064 1.368 . S
H1049 C1057 0.950 . S
H1050 C1055 0.950 . S
H1051 C1056 0.949 . S
H1052 C1058 0.950 . S
H1053 C1059 0.950 . S
H1054 C1060 0.949 . S
C1055 H1050 0.950 . S
C1055 C1057 1.327 . S
C1055 C1061 1.429 . S
C1056 C1048 1.574 . S
C1056 H1051 0.949 . S
C1056 C1062 1.368 . S
C1057 C1041 1.349 . S
C1057 H1049 0.950 . S
C1057 C1055 1.327 . S
C1058 C1046 1.349 . S
C1058 H1052 0.950 . S
C1058 C1059 1.327 . S
C1059 H1053 0.950 . S
C1059 C1058 1.327 . S
C1059 C1063 1.429 . S
C1060 C1043 1.574 . S
C1060 H1054 0.949 . S
C1060 C1064 1.368 . S
C1061 C1042 1.429 . S
C1061 C1055 1.429 . S
C1061 C1062 1.523 . S
C1062 C1043 1.368 . S
C1062 C1056 1.368 . S
C1062 C1061 1.523 . S
C1063 C1047 1.429 . S
C1063 C1059 1.429 . S
C1063 C1064 1.523 . S
C1064 C1048 1.368 . S
C1064 C1060 1.368 . S
C1064 C1063 1.523 . S
H1065 C1040 0.950 . S
H1066 C1042 0.950 . S
H1067 C1043 0.949 . S
H1068 C1045 0.950 . S
H1069 C1047 0.950 . S
C1070 C1071 1.349 . S
C1070 C1072 1.327 . S
C1070 H1095 0.950 . S
C1071 C1070 1.349 . S
C1071 C1087 1.349 . S
C1072 C1070 1.327 . S
C1072 C1091 1.429 . S
C1072 H1096 0.950 . S
C1073 C1090 1.574 . S
C1073 C1092 1.368 . S
C1073 H1097 0.949 . S
H1074 C1078 0.949 . S
C1075 C1076 1.349 . S
C1075 C1077 1.327 . S
C1075 H1098 0.950 . S
C1076 C1075 1.349 . S
C1076 C1088 1.349 . S
C1077 C1075 1.327 . S
C1077 C1093 1.429 . S
C1077 H1099 0.950 . S
C1078 H1074 0.949 . S
C1078 C1086 1.574 . S
C1078 C1094 1.368 . S
H1079 C1087 0.950 . S
H1080 C1085 0.950 . S
H1081 C1086 0.949 . S
H1082 C1088 0.950 . S
H1083 C1089 0.950 . S
H1084 C1090 0.949 . S
C1085 H1080 0.950 . S
C1085 C1087 1.327 . S
C1085 C1091 1.429 . S
C1086 C1078 1.574 . S
C1086 H1081 0.949 . S
C1086 C1092 1.368 . S
C1087 C1071 1.349 . S
C1087 H1079 0.950 . S
C1087 C1085 1.327 . S
C1088 C1076 1.349 . S
C1088 H1082 0.950 . S
C1088 C1089 1.327 . S
C1089 H1083 0.950 . S
C1089 C1088 1.327 . S
C1089 C1093 1.429 . S
C1090 C1073 1.574 . S
C1090 H1084 0.949 . S
C1090 C1094 1.368 . S
C1091 C1072 1.429 . S
C1091 C1085 1.429 . S
C1091 C1092 1.523 . S
C1092 C1073 1.368 . S
C1092 C1086 1.368 . S
C1092 C1091 1.523 . S
C1093 C1077 1.429 . S
C1093 C1089 1.429 . S
C1093 C1094 1.523 . S
C1094 C1078 1.368 . S
C1094 C1090 1.368 . S
C1094 C1093 1.523 . S
H1095 C1070 0.950 . S
H1096 C1072 0.950 . S
H1097 C1073 0.949 . S
H1098 C1075 0.950 . S
H1099 C1077 0.950 . S
C381 C1 1.594 . S
C386 C306 1.587 . S
C411 C67 1.596 . S
C416 C330 1.584 . S
C446 C350 1.391 . S
C441 C97 1.362 . S
C471 C133 1.425 . S
C476 C373 1.428 . S
C506 C332 1.697 . S
C501 C25 1.719 . S
C536 C308 1.681 . S
C531 C37 1.710 . S
C566 C376 1.589 . S
C561 C103 1.607 . S
C596 C353 1.565 . S
C591 C109 1.612 . S
C621 C31 1.345 . S
C626 C378 1.326 . S
C656 C327 1.661 . S
C651 C73 1.634 . S
C681 C139 1.672 . S
C686 C305 1.675 . S
C711 C61 1.319 . S
C716 C355 1.303 . S
C746 C309 1.696 . S
C741 C175 1.699 . S
C771 C181 1.607 . S
C776 C331 1.632 . S
C801 C247 1.850 . S
C806 C351 1.857 . S
C831 C277 1.842 . S
C836 C374 1.850 . S
C861 C145 1.586 . S
C866 C329 1.558 1_556 S
C896 C307 1.588 . S
C891 C211 1.540 . S
C926 C377 1.467 . S
C921 C217 1.498 . S
C956 C354 1.536 . S
C951 C283 1.571 . S
C981 C169 1.984 . S
C986 C375 1.941 . S
C1016 C328 1.574 . S
C1011 C241 1.569 . S
C1046 C304 1.589 . S
C1041 C253 1.579 . S
C1071 C205 1.910 . S
C1076 C352 1.922 . S
