# Generated by pormake.
# Topology pyr, (3,6)-cn, num edge types: 1
# Building blocks:
#     Node 0, Type 0, BuildingBlock: VETTIZ_charged_linker_0, # of connection points: 3
#     Node 1, Type 0, BuildingBlock: VETTIZ_charged_linker_0, # of connection points: 3
#     Node 2, Type 0, BuildingBlock: VETTIZ_charged_linker_0, # of connection points: 3
#     Node 3, Type 0, BuildingBlock: VETTIZ_charged_linker_0, # of connection points: 3
#     Node 4, Type 0, BuildingBlock: VETTIZ_charged_linker_0, # of connection points: 3
#     Node 5, Type 0, BuildingBlock: VETTIZ_charged_linker_0, # of connection points: 3
#     Node 6, Type 0, BuildingBlock: VETTIZ_charged_linker_0, # of connection points: 3
#     Node 7, Type 0, BuildingBlock: VETTIZ_charged_linker_0, # of connection points: 3
#     Node 8, Type 1, BuildingBlock: BETDAH_clean_sbu_0, # of connection points: 6
#     Node 9, Type 1, BuildingBlock: BETDAH_clean_sbu_0, # of connection points: 6
#     Node 10, Type 1, BuildingBlock: BETDAH_clean_sbu_0, # of connection points: 6
#     Node 11, Type 1, BuildingBlock: BETDAH_clean_sbu_0, # of connection points: 6
#     Edge 12, Type (0, 1), BuildingBlock: CIFDUS_clean_linker_0, # of connection points: 2
#     Edge 13, Type (0, 1), BuildingBlock: CIFDUS_clean_linker_0, # of connection points: 2
#     Edge 14, Type (0, 1), BuildingBlock: CIFDUS_clean_linker_0, # of connection points: 2
#     Edge 15, Type (0, 1), BuildingBlock: CIFDUS_clean_linker_0, # of connection points: 2
#     Edge 16, Type (0, 1), BuildingBlock: CIFDUS_clean_linker_0, # of connection points: 2
#     Edge 17, Type (0, 1), BuildingBlock: CIFDUS_clean_linker_0, # of connection points: 2
#     Edge 18, Type (0, 1), BuildingBlock: CIFDUS_clean_linker_0, # of connection points: 2
#     Edge 19, Type (0, 1), BuildingBlock: CIFDUS_clean_linker_0, # of connection points: 2
#     Edge 20, Type (0, 1), BuildingBlock: CIFDUS_clean_linker_0, # of connection points: 2
#     Edge 21, Type (0, 1), BuildingBlock: CIFDUS_clean_linker_0, # of connection points: 2
#     Edge 22, Type (0, 1), BuildingBlock: CIFDUS_clean_linker_0, # of connection points: 2
#     Edge 23, Type (0, 1), BuildingBlock: CIFDUS_clean_linker_0, # of connection points: 2
#     Edge 24, Type (0, 1), BuildingBlock: CIFDUS_clean_linker_0, # of connection points: 2
#     Edge 25, Type (0, 1), BuildingBlock: CIFDUS_clean_linker_0, # of connection points: 2
#     Edge 26, Type (0, 1), BuildingBlock: CIFDUS_clean_linker_0, # of connection points: 2
#     Edge 27, Type (0, 1), BuildingBlock: CIFDUS_clean_linker_0, # of connection points: 2
#     Edge 28, Type (0, 1), BuildingBlock: CIFDUS_clean_linker_0, # of connection points: 2
#     Edge 29, Type (0, 1), BuildingBlock: CIFDUS_clean_linker_0, # of connection points: 2
#     Edge 30, Type (0, 1), BuildingBlock: CIFDUS_clean_linker_0, # of connection points: 2
#     Edge 31, Type (0, 1), BuildingBlock: CIFDUS_clean_linker_0, # of connection points: 2
#     Edge 32, Type (0, 1), BuildingBlock: CIFDUS_clean_linker_0, # of connection points: 2
#     Edge 33, Type (0, 1), BuildingBlock: CIFDUS_clean_linker_0, # of connection points: 2
#     Edge 34, Type (0, 1), BuildingBlock: CIFDUS_clean_linker_0, # of connection points: 2
#     Edge 35, Type (0, 1), BuildingBlock: CIFDUS_clean_linker_0, # of connection points: 2
# Relax obj value: 0.111
# Max RMSD: 0.128
# Mean RMSD: 0.062
data_MOF--net-pyr--node1-BETDAH_clean_sbu_0--node2-VETTIZ_charged_linker_0--edge1-CIFDUS_clean_linker_0
_symmetry_space_group_name_H-M    P1
_symmetry_Int_Tables_number       1
_symmetry_cell_setting            triclinic
loop_
_symmetry_equiv_pos_as_xyz
'x, y, z'
_cell_length_a     41.227985
_cell_length_b     43.971071
_cell_length_c     40.184656
_cell_angle_alpha  90.818208
_cell_angle_beta   88.862568
_cell_angle_gamma 101.0825
loop_
_atom_site_label
_atom_site_type_symbol
_atom_site_fract_x
_atom_site_fract_y
_atom_site_fract_z
_atom_type_partial_charge
C0 C 0.31671 0.25717 0.33496 0.0
C1 C 0.28963 0.26796 0.34956 0.0
C2 C 0.28007 0.2942 0.33587 0.0
C3 C 0.31787 0.29277 0.28931 0.0
C4 C 0.3299 0.26934 0.30447 0.0
C5 C 0.35339 0.25593 0.282 0.0
H6 H 0.40021 0.228 0.12543 0.0
C7 C 0.33083 0.29541 0.25475 0.0
C8 C 0.35194 0.27412 0.25029 0.0
H9 H 0.42885 0.19006 0.21657 0.0
H10 H 0.40394 0.22661 0.24876 0.0
H11 H 0.41863 0.30009 0.15086 0.0
H12 H 0.32666 0.234 0.1487 0.0
H13 H 0.32077 0.26933 0.13198 0.0
H14 H 0.34939 0.24877 0.11187 0.0
H15 H 0.39602 0.29116 0.11314 0.0
H16 H 0.38732 0.32064 0.14194 0.0
C17 C 0.38819 0.26315 0.29746 0.0
C18 C 0.33913 0.22085 0.27726 0.0
C19 C 0.27603 0.35527 0.17321 0.0
C20 C 0.27731 0.35745 0.13844 0.0
C21 C 0.30117 0.34484 0.12025 0.0
C22 C 0.32222 0.32847 0.13657 0.0
C23 C 0.31909 0.32465 0.17132 0.0
C24 C 0.29706 0.33892 0.18908 0.0
C25 C 0.29659 0.33236 0.22563 0.0
C26 C 0.32165 0.31128 0.227 0.0
C27 C 0.3345 0.30651 0.19511 0.0
C28 C 0.30896 0.36337 0.24426 0.0
C29 C 0.26107 0.31565 0.23594 0.0
C30 C 0.40101 0.22757 0.15234 0.0
C31 C 0.41578 0.20567 0.16852 0.0
C32 C 0.41745 0.20655 0.20352 0.0
C33 C 0.40273 0.22757 0.22218 0.0
C34 C 0.38572 0.24756 0.20573 0.0
C35 C 0.38637 0.24839 0.17138 0.0
C36 C 0.36839 0.27235 0.15832 0.0
C37 C 0.35578 0.28486 0.19052 0.0
C38 C 0.36531 0.26958 0.21814 0.0
C39 C 0.39367 0.29736 0.13985 0.0
C40 C 0.33983 0.25549 0.13638 0.0
H41 H 0.28473 0.32568 0.29602 0.0
H42 H 0.32542 0.2377 0.34541 0.0
H43 H 0.31211 0.21699 0.27266 0.0
H44 H 0.34983 0.21019 0.25585 0.0
H45 H 0.34285 0.20768 0.2998 0.0
H46 H 0.39145 0.28436 0.31344 0.0
H47 H 0.39249 0.24377 0.31317 0.0
H48 H 0.40813 0.26819 0.27832 0.0
H49 H 0.25789 0.36492 0.18768 0.0
H50 H 0.30245 0.34642 0.09336 0.0
H51 H 0.33925 0.31845 0.12144 0.0
H52 H 0.33002 0.37771 0.23049 0.0
H53 H 0.28904 0.37709 0.24679 0.0
H54 H 0.31855 0.3601 0.26918 0.0
H55 H 0.24621 0.30592 0.2141 0.0
H56 H 0.26101 0.29532 0.25184 0.0
H57 H 0.24725 0.33172 0.24904 0.0
H58 H 0.2595 0.30333 0.34641 0.0
C59 C 0.29437 0.30688 0.30608 0.0
C60 C 0.18557 0.87256 0.57405 0.0
C61 C 0.16225 0.88394 0.59428 0.0
C62 C 0.16267 0.87991 0.62902 0.0
C63 C 0.21223 0.85831 0.62307 0.0
C64 C 0.2102 0.85984 0.58889 0.0
C65 C 0.23802 0.84841 0.57107 0.0
H66 H 0.38678 0.80675 0.57921 0.0
C67 C 0.24312 0.84783 0.63068 0.0
C68 C 0.25819 0.84171 0.60029 0.0
H69 H 0.32592 0.80426 0.49268 0.0
H70 H 0.28399 0.82313 0.52611 0.0
H71 H 0.36897 0.87126 0.61514 0.0
H72 H 0.33319 0.77307 0.62241 0.0
H73 H 0.32896 0.78803 0.6626 0.0
H74 H 0.36961 0.79188 0.64359 0.0
H75 H 0.39249 0.84481 0.63179 0.0
H76 H 0.36457 0.86201 0.65761 0.0
C77 C 0.25714 0.87496 0.54926 0.0
C78 C 0.22337 0.81854 0.5513 0.0
C79 C 0.28562 0.85752 0.74894 0.0
C80 C 0.31611 0.85457 0.76225 0.0
C81 C 0.33886 0.8421 0.74225 0.0
C82 C 0.33229 0.83452 0.70883 0.0
C83 C 0.30281 0.83979 0.69514 0.0
C84 C 0.27957 0.85017 0.71531 0.0
C85 C 0.25009 0.85515 0.69611 0.0
C86 C 0.25978 0.84645 0.66105 0.0
C87 C 0.29085 0.83791 0.66069 0.0
C88 C 0.24798 0.8899 0.69931 0.0
C89 C 0.21915 0.83256 0.70943 0.0
C90 C 0.36497 0.81146 0.56721 0.0
C91 C 0.35995 0.80519 0.53318 0.0
C92 C 0.33048 0.80979 0.51873 0.0
C93 C 0.30612 0.82028 0.53826 0.0
C94 C 0.31115 0.82553 0.5726 0.0
C95 C 0.34015 0.8209 0.58646 0.0
C96 C 0.34004 0.82431 0.62368 0.0
C97 C 0.30606 0.83172 0.63004 0.0
C98 C 0.28959 0.83312 0.60004 0.0
C99 C 0.36802 0.85187 0.63285 0.0
C100 C 0.34334 0.79288 0.6391 0.0
H101 H 0.18714 0.86549 0.67012 0.0
H102 H 0.18597 0.87516 0.54729 0.0
H103 H 0.19927 0.80672 0.56218 0.0
H104 H 0.23931 0.80097 0.55201 0.0
H105 H 0.21907 0.82376 0.52497 0.0
H106 H 0.26177 0.89716 0.5636 0.0
H107 H 0.24282 0.87829 0.52692 0.0
H108 H 0.28162 0.87109 0.54081 0.0
H109 H 0.26785 0.86734 0.76374 0.0
H110 H 0.36236 0.83938 0.75219 0.0
H111 H 0.35103 0.82597 0.6947 0.0
H112 H 0.27304 0.90474 0.69724 0.0
H113 H 0.23707 0.89497 0.72378 0.0
H114 H 0.23364 0.89793 0.67955 0.0
H115 H 0.22576 0.81085 0.7187 0.0
H116 H 0.20082 0.82479 0.68985 0.0
H117 H 0.20708 0.84316 0.73036 0.0
H118 H 0.14443 0.88764 0.64512 0.0
C119 C 0.18749 0.86706 0.6435 0.0
C120 C 0.62992 0.26578 0.90942 0.0
C121 C 0.60115 0.24653 0.89697 0.0
C122 C 0.58516 0.25855 0.87051 0.0
C123 C 0.62652 0.30677 0.86923 0.0
C124 C 0.642 0.2953 0.8953 0.0
C125 C 0.67267 0.31769 0.90553 0.0
H126 H 0.78487 0.45156 0.88717 0.0
C127 C 0.64609 0.33834 0.86007 0.0
C128 C 0.67324 0.34447 0.88166 0.0
H129 H 0.78336 0.3779 0.95776 0.0
H130 H 0.73233 0.3506 0.93596 0.0
H131 H 0.70485 0.45217 0.89599 0.0
H132 H 0.7574 0.40656 0.82267 0.0
H133 H 0.72922 0.4255 0.80273 0.0
H134 H 0.76256 0.44801 0.82592 0.0
H135 H 0.73023 0.47338 0.86399 0.0
H136 H 0.68773 0.45543 0.8568 0.0
C137 C 0.66763 0.32759 0.94218 0.0
C138 C 0.70264 0.30157 0.89947 0.0
C139 C 0.61058 0.40387 0.76554 0.0
C140 C 0.62336 0.43413 0.75341 0.0
C141 C 0.6524 0.45068 0.76818 0.0
C142 C 0.66838 0.43793 0.79384 0.0
C143 C 0.65531 0.40805 0.80593 0.0
C144 C 0.62671 0.39147 0.79191 0.0
C145 C 0.61584 0.36045 0.80915 0.0
C146 C 0.64245 0.3611 0.8355 0.0
C147 C 0.66585 0.38924 0.83329 0.0
C148 C 0.58141 0.35975 0.82528 0.0
C149 C 0.61643 0.33437 0.78318 0.0
C150 C 0.77342 0.42963 0.89801 0.0
C151 C 0.78924 0.41682 0.92405 0.0
C152 C 0.77285 0.38822 0.93726 0.0
C153 C 0.74276 0.37227 0.92458 0.0
C154 C 0.72787 0.38466 0.89811 0.0
C155 C 0.74287 0.4131 0.88543 0.0
C156 C 0.72248 0.4226 0.85765 0.0
C157 C 0.69349 0.39493 0.85538 0.0
C158 C 0.69697 0.37276 0.87932 0.0
C159 C 0.71078 0.45259 0.86884 0.0
C160 C 0.74392 0.4261 0.82544 0.0
H161 H 0.58406 0.29544 0.83672 0.0
H162 H 0.64344 0.2578 0.92929 0.0
H163 H 0.69896 0.28621 0.87707 0.0
H164 H 0.72591 0.31805 0.89421 0.0
H165 H 0.70623 0.28705 0.92098 0.0
H166 H 0.64124 0.32843 0.9476 0.0
H167 H 0.67507 0.31104 0.9598 0.0
H168 H 0.68112 0.35125 0.94799 0.0
H169 H 0.58806 0.39052 0.75538 0.0
H170 H 0.66282 0.47389 0.75983 0.0
H171 H 0.69034 0.45207 0.80357 0.0
H172 H 0.58062 0.38209 0.83833 0.0
H173 H 0.5619 0.35607 0.80616 0.0
H174 H 0.57505 0.34166 0.84431 0.0
H175 H 0.63972 0.33917 0.76808 0.0
H176 H 0.61562 0.31162 0.79469 0.0
H177 H 0.59538 0.33249 0.76594 0.0
H178 H 0.5627 0.2451 0.86036 0.0
C179 C 0.59753 0.28815 0.85674 0.0
C180 C 0.92668 0.79474 0.38797 0.0
C181 C 0.9162 0.8084 0.41761 0.0
C182 C 0.88665 0.7934 0.43322 0.0
C183 C 0.87887 0.75207 0.39144 0.0
C184 C 0.90773 0.76638 0.37549 0.0
C185 C 0.91523 0.74726 0.34532 0.0
H186 H 0.87185 0.61348 0.25104 0.0
C187 C 0.86494 0.72281 0.37322 0.0
C188 C 0.88615 0.71953 0.34591 0.0
H189 H 0.95763 0.6856 0.23522 0.0
H190 H 0.93988 0.71542 0.2815 0.0
H191 H 0.87454 0.61276 0.33082 0.0
H192 H 0.82077 0.65965 0.26381 0.0
H193 H 0.79415 0.64665 0.29746 0.0
H194 H 0.80943 0.61877 0.27104 0.0
H195 H 0.84164 0.59263 0.30551 0.0
H196 H 0.8335 0.60847 0.3457 0.0
C197 C 0.94851 0.73713 0.35082 0.0
C198 C 0.91518 0.76692 0.31386 0.0
C199 C 0.75684 0.65618 0.41674 0.0
C200 C 0.73661 0.62839 0.40555 0.0
C201 C 0.74713 0.61393 0.3767 0.0
C202 C 0.77669 0.62665 0.35952 0.0
C203 C 0.79645 0.65449 0.37089 0.0
C204 C 0.78625 0.66879 0.39903 0.0
C205 C 0.80987 0.69854 0.40715 0.0
C206 C 0.83589 0.69985 0.37936 0.0
C207 C 0.82813 0.67385 0.35821 0.0
C208 C 0.82449 0.69494 0.44181 0.0
C209 C 0.79071 0.72552 0.40484 0.0
C210 C 0.88705 0.63565 0.2574 0.0
C211 C 0.91655 0.64673 0.23918 0.0
C212 C 0.93481 0.67623 0.2484 0.0
C213 C 0.92459 0.69345 0.2756 0.0
C214 C 0.89554 0.6814 0.29411 0.0
C215 C 0.87715 0.65304 0.28428 0.0
C216 C 0.8466 0.64351 0.30576 0.0
C217 C 0.8497 0.6702 0.33072 0.0
C218 C 0.87855 0.69275 0.3242 0.0
C219 C 0.84883 0.61262 0.3228 0.0
C220 C 0.81599 0.64176 0.28355 0.0
H221 H 0.846 0.75596 0.43397 0.0
H222 H 0.94942 0.80537 0.37541 0.0
H223 H 0.89307 0.77798 0.31402 0.0
H224 H 0.91406 0.75293 0.29078 0.0
H225 H 0.93754 0.78559 0.31265 0.0
H226 H 0.94919 0.72767 0.37627 0.0
H227 H 0.96945 0.75708 0.34815 0.0
H228 H 0.95267 0.7186 0.33342 0.0
H229 H 0.74963 0.66831 0.43847 0.0
H230 H 0.73258 0.59241 0.36748 0.0
H231 H 0.78306 0.61423 0.33794 0.0
H232 H 0.82718 0.67057 0.44589 0.0
H233 H 0.80829 0.7013 0.46212 0.0
H234 H 0.84971 0.70868 0.44464 0.0
H235 H 0.77214 0.72102 0.38477 0.0
H236 H 0.80675 0.74778 0.39813 0.0
H237 H 0.77729 0.72855 0.42853 0.0
H238 H 0.87781 0.80316 0.45578 0.0
C239 C 0.86809 0.76577 0.42042 0.0
C240 C 0.73022 0.71853 0.92618 0.0
C241 C 0.75156 0.69937 0.91394 0.0
C242 C 0.75547 0.69563 0.87935 0.0
C243 C 0.72114 0.7332 0.86962 0.0
C244 C 0.71459 0.73471 0.90337 0.0
C245 C 0.68996 0.75532 0.91102 0.0
H246 H 0.61296 0.86875 0.85959 0.0
C247 C 0.70448 0.75519 0.85271 0.0
C248 C 0.68508 0.76752 0.87649 0.0
H249 H 0.60359 0.82448 0.95548 0.0
H250 H 0.6375 0.78836 0.93564 0.0
H251 H 0.60228 0.80768 0.81623 0.0
H252 H 0.69138 0.86775 0.8487 0.0
H253 H 0.69566 0.86003 0.806 0.0
H254 H 0.6632 0.87924 0.82008 0.0
H255 H 0.61842 0.84353 0.79571 0.0
H256 H 0.6316 0.80792 0.78387 0.0
C257 C 0.65782 0.73503 0.92514 0.0
C258 C 0.70615 0.78148 0.93494 0.0
C259 C 0.74911 0.79518 0.74013 0.0
C260 C 0.74327 0.81978 0.72057 0.0
C261 C 0.71506 0.83266 0.7278 0.0
C262 C 0.69524 0.8235 0.75601 0.0
C263 C 0.70381 0.8014 0.77736 0.0
C264 C 0.7292 0.78642 0.7683 0.0
C265 C 0.73416 0.76279 0.79341 0.0
C266 C 0.70897 0.76766 0.82019 0.0
C267 C 0.69175 0.7907 0.81088 0.0
C268 C 0.72561 0.73012 0.77697 0.0
C269 C 0.77016 0.77154 0.80585 0.0
C270 C 0.61816 0.85118 0.87623 0.0
C271 C 0.60594 0.84953 0.90913 0.0
C272 C 0.61273 0.82608 0.92998 0.0
C273 C 0.63251 0.80529 0.9185 0.0
C274 C 0.64552 0.80795 0.88585 0.0
C275 C 0.63756 0.83012 0.86508 0.0
C276 C 0.65299 0.82924 0.831 0.0
C277 C 0.67112 0.80252 0.83449 0.0
C278 C 0.66736 0.79064 0.86695 0.0
C279 C 0.62506 0.82195 0.80516 0.0
C280 C 0.67699 0.86065 0.82581 0.0
H281 H 0.74478 0.70918 0.83114 0.0
H282 H 0.7262 0.72107 0.9527 0.0
H283 H 0.73107 0.79252 0.92537 0.0
H284 H 0.69189 0.80017 0.93784 0.0
H285 H 0.70909 0.77219 0.96003 0.0
H286 H 0.65543 0.71036 0.91721 0.0
H287 H 0.65721 0.73566 0.95279 0.0
H288 H 0.63534 0.74212 0.91578 0.0
H289 H 0.77028 0.78447 0.73521 0.0
H290 H 0.7092 0.85089 0.71251 0.0
H291 H 0.67495 0.83504 0.76095 0.0
H292 H 0.7121 0.7303 0.75329 0.0
H293 H 0.74826 0.72077 0.77104 0.0
H294 H 0.7089 0.71342 0.79303 0.0
H295 H 0.77605 0.79643 0.81329 0.0
H296 H 0.7749 0.75834 0.82768 0.0
H297 H 0.78808 0.76757 0.78603 0.0
H298 H 0.7716 0.68077 0.8695 0.0
C299 C 0.74022 0.71231 0.85715 0.0
C300 C 0.80683 0.14482 0.49104 0.0
C301 C 0.81502 0.11925 0.4738 0.0
C302 C 0.80435 0.11313 0.44085 0.0
C303 C 0.78079 0.15947 0.44182 0.0
C304 C 0.78986 0.16455 0.47463 0.0
C305 C 0.781 0.19371 0.48886 0.0
H306 H 0.72008 0.32319 0.46516 0.0
C307 C 0.76618 0.18577 0.43132 0.0
C308 C 0.76619 0.20584 0.45876 0.0
H309 H 0.7509 0.28965 0.55762 0.0
H310 H 0.7658 0.24551 0.52845 0.0
H311 H 0.67983 0.26199 0.44386 0.0
H312 H 0.77953 0.30354 0.41535 0.0
H313 H 0.75796 0.2891 0.37926 0.0
H314 H 0.74391 0.31872 0.4039 0.0
H315 H 0.68837 0.29157 0.41289 0.0
H316 H 0.68501 0.25105 0.40227 0.0
C317 C 0.75508 0.18466 0.5173 0.0
C318 C 0.81325 0.21557 0.49974 0.0
C319 C 0.73018 0.19128 0.31211 0.0
C320 C 0.71507 0.21238 0.29513 0.0
C321 C 0.70905 0.23914 0.31189 0.0
C322 C 0.71797 0.24473 0.34525 0.0
C323 C 0.73262 0.2231 0.36206 0.0
C324 C 0.73847 0.19693 0.34542 0.0
C325 C 0.75305 0.17588 0.36739 0.0
C326 C 0.75478 0.1936 0.40012 0.0
C327 C 0.7431 0.22132 0.39678 0.0
C328 C 0.72868 0.14431 0.36942 0.0
C329 C 0.78784 0.17393 0.35324 0.0
C330 C 0.73111 0.30687 0.47893 0.0
C331 C 0.73528 0.31013 0.51348 0.0
C332 C 0.74808 0.28768 0.53089 0.0
C333 C 0.75638 0.26206 0.51393 0.0
C334 C 0.75121 0.25874 0.47942 0.0
C335 C 0.73878 0.28098 0.46255 0.0
C336 C 0.7321 0.2725 0.42664 0.0
C337 C 0.743 0.24156 0.42454 0.0
C338 C 0.75438 0.23378 0.45538 0.0
C339 C 0.69448 0.26926 0.42079 0.0
C340 C 0.7543 0.29724 0.40491 0.0
H341 H 0.78036 0.12757 0.39948 0.0
H342 H 0.81495 0.15036 0.51625 0.0
H343 H 0.83342 0.21512 0.48103 0.0
H344 H 0.81083 0.24007 0.50177 0.0
H345 H 0.82168 0.20837 0.52398 0.0
H346 H 0.74024 0.16097 0.51335 0.0
H347 H 0.76715 0.18492 0.5418 0.0
H348 H 0.73659 0.19985 0.51864 0.0
H349 H 0.73438 0.17014 0.30005 0.0
H350 H 0.69729 0.25559 0.29921 0.0
H351 H 0.71272 0.26545 0.35676 0.0
H352 H 0.70261 0.14747 0.3679 0.0
H353 H 0.73318 0.12857 0.3487 0.0
H354 H 0.72976 0.13249 0.39335 0.0
H355 H 0.80057 0.19676 0.34342 0.0
H356 H 0.80458 0.16807 0.37218 0.0
H357 H 0.78619 0.15679 0.33247 0.0
H358 H 0.80996 0.09328 0.42724 0.0
C359 C 0.78723 0.13309 0.42477 0.0
C360 C 0.42916 0.68047 0.31511 0.0
C361 C 0.41671 0.65138 0.33034 0.0
C362 C 0.3883 0.63296 0.31606 0.0
C363 C 0.38565 0.67154 0.27324 0.0
C364 C 0.41351 0.68989 0.28669 0.0
C365 C 0.42391 0.71958 0.26699 0.0
H366 H 0.39626 0.81314 0.13835 0.0
C367 C 0.37515 0.68779 0.24371 0.0
C368 C 0.3978 0.71615 0.2398 0.0
H369 H 0.47537 0.83097 0.20921 0.0
H370 H 0.45462 0.78186 0.23534 0.0
H371 H 0.33873 0.78421 0.19116 0.0
H372 H 0.40068 0.74126 0.12536 0.0
H373 H 0.3611 0.71779 0.125 0.0
H374 H 0.3668 0.75716 0.11043 0.0
H375 H 0.33461 0.78334 0.14674 0.0
H376 H 0.31375 0.75194 0.17227 0.0
C377 C 0.42192 0.74729 0.29048 0.0
C378 C 0.45883 0.72 0.25211 0.0
C379 C 0.27081 0.63871 0.17864 0.0
C380 C 0.25517 0.64785 0.1502 0.0
C381 C 0.27042 0.676 0.13502 0.0
C382 C 0.2993 0.69459 0.14774 0.0
C383 C 0.31417 0.68536 0.17617 0.0
C384 C 0.3001 0.65764 0.19099 0.0
C385 C 0.32015 0.65122 0.22048 0.0
C386 C 0.34811 0.67976 0.22116 0.0
C387 C 0.34436 0.69983 0.19505 0.0
C388 C 0.29783 0.64953 0.25204 0.0
C389 C 0.33337 0.62118 0.21286 0.0
C390 C 0.40943 0.80651 0.15925 0.0
C391 C 0.43755 0.82698 0.17157 0.0
C392 C 0.45333 0.81665 0.1992 0.0
C393 C 0.44131 0.78775 0.21445 0.0
C394 C 0.4129 0.76803 0.20231 0.0
C395 C 0.39765 0.77755 0.17491 0.0
C396 C 0.36777 0.75368 0.16518 0.0
C397 C 0.36737 0.72849 0.19111 0.0
C398 C 0.39396 0.7368 0.21316 0.0
C399 C 0.33697 0.76892 0.16871 0.0
C400 C 0.37405 0.74187 0.12957 0.0
H401 H 0.35135 0.6274 0.27907 0.0
H402 H 0.45097 0.69544 0.32476 0.0
H403 H 0.46085 0.69669 0.24216 0.0
H404 H 0.46476 0.73586 0.23089 0.0
H405 H 0.47801 0.72656 0.27132 0.0
H406 H 0.39871 0.74262 0.30573 0.0
H407 H 0.44305 0.75157 0.30777 0.0
H408 H 0.42137 0.76883 0.27696 0.0
H409 H 0.26039 0.61746 0.19138 0.0
H410 H 0.26036 0.68372 0.11268 0.0
H411 H 0.30908 0.71557 0.13471 0.0
H412 H 0.28303 0.66818 0.25196 0.0
H413 H 0.28032 0.62694 0.2533 0.0
H414 H 0.31199 0.6531 0.27523 0.0
H415 H 0.3403 0.6198 0.18606 0.0
H416 H 0.35617 0.6201 0.22636 0.0
H417 H 0.31439 0.6003 0.21872 0.0
H418 H 0.37741 0.61088 0.32693 0.0
C419 C 0.37289 0.64275 0.28809 0.0
C420 C 0.10625 0.26864 0.69327 0.0
C421 C 0.11691 0.2521 0.6656 0.0
C422 C 0.14625 0.26605 0.64878 0.0
C423 C 0.15293 0.31169 0.68492 0.0
C424 C 0.12459 0.29851 0.70236 0.0
C425 C 0.11736 0.32025 0.7304 0.0
H426 H 0.1614 0.46273 0.80969 0.0
C427 C 0.16648 0.3428 0.69958 0.0
C428 C 0.14584 0.34837 0.72653 0.0
H429 H 0.07767 0.39108 0.83487 0.0
H430 H 0.09407 0.35784 0.79107 0.0
H431 H 0.15464 0.45573 0.72979 0.0
H432 H 0.21386 0.41656 0.7988 0.0
H433 H 0.23848 0.42949 0.76365 0.0
H434 H 0.22197 0.45712 0.78925 0.0
H435 H 0.18831 0.47898 0.75171 0.0
H436 H 0.19503 0.45941 0.71324 0.0
C437 C 0.08352 0.32895 0.72423 0.0
C438 C 0.1188 0.30389 0.76387 0.0
C439 C 0.27045 0.40636 0.64559 0.0
C440 C 0.2898 0.43606 0.65144 0.0
C441 C 0.28042 0.45351 0.67862 0.0
C442 C 0.25238 0.44194 0.69884 0.0
C443 C 0.23311 0.41237 0.6922 0.0
C444 C 0.2426 0.39518 0.66597 0.0
C445 C 0.21973 0.36429 0.66223 0.0
C446 C 0.19471 0.36554 0.69039 0.0
C447 C 0.20243 0.39375 0.70803 0.0
C448 C 0.20361 0.36333 0.62755 0.0
C449 C 0.24014 0.33864 0.66782 0.0
C450 C 0.14629 0.43998 0.8059 0.0
C451 C 0.1178 0.43006 0.82612 0.0
C452 C 0.09974 0.39968 0.82018 0.0
C453 C 0.10919 0.38039 0.79443 0.0
C454 C 0.1373 0.39114 0.77405 0.0
C455 C 0.15544 0.42052 0.78048 0.0
C456 C 0.18487 0.4286 0.75717 0.0
C457 C 0.18157 0.39966 0.73532 0.0
C458 C 0.15345 0.37731 0.74493 0.0
C459 C 0.18085 0.4573 0.73693 0.0
C460 C 0.21661 0.43346 0.7781 0.0
H461 H 0.18591 0.30393 0.64376 0.0
H462 H 0.08397 0.25886 0.70708 0.0
H463 H 0.14141 0.29363 0.76478 0.0
H464 H 0.11994 0.31996 0.78531 0.0
H465 H 0.09697 0.2849 0.76724 0.0
H466 H 0.08208 0.33636 0.69804 0.0
H467 H 0.06314 0.30882 0.72873 0.0
H468 H 0.07911 0.34845 0.74011 0.0
H469 H 0.27687 0.3918 0.62552 0.0
H470 H 0.29437 0.47649 0.68388 0.0
H471 H 0.24659 0.45662 0.71879 0.0
H472 H 0.20002 0.38677 0.62026 0.0
H473 H 0.2193 0.35503 0.60797 0.0
H474 H 0.17855 0.34887 0.62696 0.0
H475 H 0.26025 0.34644 0.68587 0.0
H476 H 0.22533 0.31748 0.67898 0.0
H477 H 0.25184 0.33235 0.64423 0.0
H478 H 0.15598 0.25411 0.62824 0.0
C479 C 0.164 0.29526 0.65811 0.0
Ho480 Ho 0.03375 0.04752 0.49811 0.0
Ho481 Ho 1.00988 1.01963 0.56371 0.0
C482 C 0.04643 0.0906 0.56603 0.0
C483 C 0.05227 0.08265 0.44777 0.0
C484 C 0.08399 0.10343 0.44043 0.0
C485 C 0.08461 0.13243 0.42612 0.0
C486 C 0.11483 0.15198 0.4188 0.0
C487 C 0.14476 0.1426 0.42547 0.0
C488 C 0.14405 0.11392 0.44059 0.0
C489 C 0.11394 0.09463 0.44829 0.0
C490 C 0.07592 1.01732 0.52844 0.0
C491 C 0.9944 0.97835 0.49425 0.0
C492 C 0.99348 0.98353 0.61374 0.0
C493 C 0.96151 0.96345 0.62131 0.0
C494 C 0.95932 0.93821 0.64268 0.0
C495 C 0.92837 0.92039 0.65105 0.0
C496 C 0.89938 0.92794 0.6384 0.0
C497 C 0.90181 0.95258 0.61617 0.0
C498 C 0.93264 0.97 0.60743 0.0
C499 C 0.9662 0.04823 0.53372 0.0
O500 O 0.04196 0.08915 0.53339 0.0
O501 O 0.04031 0.06482 0.58378 0.0
O502 O 0.05306 0.05308 0.44786 0.0
O503 O 0.03503 0.09099 0.47275 0.0
O504 O 0.07206 1.01724 0.49665 0.0
O505 O 0.05904 1.03488 0.54223 0.0
O506 O 1.00005 0.97808 0.5268 0.0
O507 O 0.99989 1.00506 0.47831 0.0
O508 O 0.99317 1.01318 0.61476 0.0
O509 O 1.0094 0.97558 0.58758 0.0
O510 O 0.96854 0.04641 0.5656 0.0
O511 O 0.98437 1.03206 0.51958 0.0
H512 H 0.06178 0.13976 0.42025 0.0
H513 H 0.11483 0.17393 0.4069 0.0
H514 H 0.16682 0.10632 0.44615 0.0
H515 H 0.11414 0.07263 0.46001 0.0
H516 H 0.98138 0.93271 0.65336 0.0
H517 H 0.92696 0.90154 0.66841 0.0
H518 H 0.87979 0.95866 0.60599 0.0
H519 H 0.93387 0.9891 0.59042 0.0
Ho520 Ho 0.5507 0.03902 0.04981 0.0
Ho521 Ho 0.49144 1.03231 1.01504 0.0
C522 C 0.4997 0.07566 0.08062 0.0
C523 C 0.61135 0.05023 0.06929 0.0
C524 C 0.63207 0.07616 0.08661 0.0
C525 C 0.62299 0.1053 0.08846 0.0
C526 C 0.64083 0.12885 0.10822 0.0
C527 C 0.66782 0.12347 0.12662 0.0
C528 C 0.67749 0.09453 0.12355 0.0
C529 C 0.65974 0.07109 0.10367 0.0
C530 C 0.50511 0.98936 0.07336 0.0
C531 C 0.54284 0.99622 0.98402 0.0
C532 C 0.43177 1.02168 0.99279 0.0
C533 C 0.41418 0.99998 0.96792 0.0
C534 C 0.41138 0.96769 0.97067 0.0
C535 C 0.39874 0.94804 0.94439 0.0
C536 C 0.38925 0.96049 0.91501 0.0
C537 C 0.39071 0.99251 0.91284 0.0
C538 C 0.40278 1.01207 0.93922 0.0
C539 C 0.53746 0.08151 0.99154 0.0
O540 O 0.53159 0.07657 0.07701 0.0
O541 O 0.47866 0.05652 0.06216 0.0
O542 O 0.58681 1.03503 0.08695 0.0
O543 O 0.60266 0.05571 0.03924 0.0
O544 O 0.52404 1.00963 0.09153 0.0
O545 O 0.51105 0.9966 0.04305 0.0
O546 O 0.51087 0.99479 0.98769 0.0
O547 O 0.56362 1.01551 1.00242 0.0
O548 O 0.45558 0.04267 0.9807 0.0
O549 O 0.43991 1.0101 1.02048 0.0
O550 O 0.51938 0.06068 0.9732 0.0
O551 O 0.53107 0.07458 1.02187 0.0
H552 H 0.60155 0.10953 0.07545 0.0
H553 H 0.63297 0.15096 0.10981 0.0
H554 H 0.69776 0.08938 0.13781 0.0
H555 H 0.66687 0.04861 0.10263 0.0
H556 H 0.42009 0.95771 0.99248 0.0
H557 H 0.39792 0.92335 0.94632 0.0
H558 H 0.38343 1.00246 0.8903 0.0
H559 H 0.40464 0.03684 0.93659 0.0
Ho560 Ho 0.51866 0.50972 0.51859 0.0
Ho561 Ho 0.51982 0.56359 0.5584 0.0
C562 C 0.55022 0.51105 0.59297 0.0
C563 C 0.53705 0.46341 0.48936 0.0
C564 C 0.56697 0.45135 0.49622 0.0
C565 C 0.5961 0.47183 0.50534 0.0
C566 C 0.62381 0.46046 0.5147 0.0
C567 C 0.62273 0.42843 0.51549 0.0
C568 C 0.59347 0.40796 0.50669 0.0
C569 C 0.56575 0.41937 0.49712 0.0
C570 C 0.46082 0.50754 0.5535 0.0
C571 C 0.48959 0.56173 0.48179 0.0
C572 C 0.50199 0.61057 0.58698 0.0
C573 C 0.48706 0.63491 0.57219 0.0
C574 C 0.4561 0.63924 0.58413 0.0
C575 C 0.43871 0.65818 0.56711 0.0
C576 C 0.45212 0.67339 0.53803 0.0
C577 C 0.48361 0.67005 0.52665 0.0
C578 C 0.50085 0.65065 0.54341 0.0
C579 C 0.57879 0.56519 0.52658 0.0
O580 O 0.55144 0.50149 0.56161 0.0
O581 O 0.5354 0.53466 0.59985 0.0
O582 O 0.51514 0.4601 0.51356 0.0
O583 O 0.54203 0.49106 0.47648 0.0
O584 O 0.46274 0.49827 0.52285 0.0
O585 O 0.48974 0.51694 0.56407 0.0
O586 O 0.49459 0.57666 0.51084 0.0
O587 O 0.49793 0.5344 0.47802 0.0
O588 O 0.53274 0.61012 0.57877 0.0
O589 O 0.48323 0.58302 0.58621 0.0
O590 O 0.57516 0.57338 0.55739 0.0
O591 O 0.5505 0.55636 0.51381 0.0
H592 H 0.59736 0.49668 0.50563 0.0
H593 H 0.64603 0.47666 0.52145 0.0
H594 H 0.59222 0.38312 0.50657 0.0
H595 H 0.54334 0.40327 0.49071 0.0
H596 H 0.44488 0.62712 0.60601 0.0
H597 H 0.4147 0.66099 0.57672 0.0
H598 H 0.49443 0.68178 0.5044 0.0
H599 H 0.52446 0.64729 0.53326 0.0
Ho600 Ho 0.02112 0.51194 0.05232 0.0
Ho601 Ho 0.01968 0.57375 1.01037 0.0
C602 C 0.08268 0.57232 0.05795 0.0
C603 C 0.03197 0.45912 0.07189 0.0
C604 C 0.05973 0.44302 0.07611 0.0
C605 C 0.08593 0.44519 0.05282 0.0
C606 C 0.11218 0.42992 0.0584 0.0
C607 C 0.11267 0.41244 0.08742 0.0
C608 C 0.08645 0.41076 0.1107 0.0
C609 C 0.06026 0.42575 0.105 0.0
C610 C 0.98855 0.55177 0.08785 0.0
C611 C 0.95732 0.51493 1.00608 0.0
C612 C 1.00435 0.62511 0.99223 0.0
C613 C 0.97253 0.63599 0.99047 0.0
C614 C 0.96377 0.65656 1.01464 0.0
C615 C 0.9336 0.66665 1.0129 0.0
C616 C 0.9116 0.65635 0.98696 0.0
C617 C 0.92049 0.63581 0.96287 0.0
C618 C 0.9505 0.62578 0.96457 0.0
C619 C 0.05079 0.53287 0.97431 0.0
O620 O 0.07222 0.54192 0.06256 0.0
O621 O 0.06574 0.5891 0.04024 0.0
O622 O 0.03163 0.48279 0.09184 0.0
O623 O 0.02329 0.46399 0.04154 0.0
O624 O 0.99188 0.52459 0.09756 0.0
O625 O 1.00142 0.55473 0.05883 0.0
O626 O 0.96842 0.54519 1.00259 0.0
O627 O 0.97427 0.49694 1.02218 0.0
O628 O 1.00837 0.60294 0.97137 0.0
O629 O 1.01525 0.62113 1.02196 0.0
O630 O 0.04762 0.56009 0.96435 0.0
O631 O 0.03859 0.53054 1.0036 0.0
H632 H 0.08621 0.45872 1.03048 0.0
H633 H 0.13189 0.43159 0.03991 0.0
H634 H 0.08635 0.39823 0.13372 0.0
H635 H 0.04048 0.42411 0.12344 0.0
H636 H 0.98024 0.66487 0.03487 0.0
H637 H 0.92746 0.68242 1.0319 0.0
H638 H 0.90457 0.62796 0.94209 0.0
H639 H 0.95641 0.61011 0.94535 0.0
H640 H 0.2745 0.20515 0.35109 0.0
H641 H 0.25307 0.28655 0.40172 0.0
H642 H 0.20666 0.25446 0.4312 0.0
H643 H 0.16852 0.20389 0.43758 0.0
H644 H 0.192 0.12313 0.38774 0.0
H645 H 0.24193 0.15445 0.3635 0.0
C646 C 0.26064 0.21599 0.36943 0.0
C647 C 0.2672 0.24843 0.37374 0.0
C648 C 0.23404 0.19751 0.38615 0.0
C649 C 0.24825 0.26175 0.39732 0.0
C650 C 0.22166 0.24341 0.4142 0.0
C651 C 0.18485 0.19324 0.42167 0.0
C652 C 0.17657 0.16141 0.41411 0.0
C653 C 0.21363 0.21141 0.40787 0.0
C654 C 0.19799 0.14762 0.39389 0.0
C655 C 0.22644 0.16551 0.37996 0.0
H656 H 0.37203 0.89492 0.77518 0.0
H657 H 0.28208 0.84674 0.82184 0.0
H658 H 0.29778 0.87403 0.87458 0.0
H659 H 0.3363 0.91378 0.90641 0.0
H660 H 0.42402 0.96381 0.85745 0.0
H661 H 0.41031 0.9334 0.80652 0.0
C662 C 0.35616 0.88997 0.79709 0.0
C663 C 0.32621 0.86866 0.79493 0.0
C664 C 0.36493 0.90623 0.82674 0.0
C665 C 0.30536 0.86303 0.82314 0.0
C666 C 0.31431 0.87863 0.85317 0.0
C667 C 0.35237 0.91767 0.88456 0.0
C668 C 0.38103 0.94081 0.88531 0.0
C669 C 0.34387 0.90058 0.85513 0.0
C670 C 0.40176 0.94609 0.85707 0.0
C671 C 0.39396 0.92875 0.82808 0.0
H672 H 0.61404 0.42041 0.6858 0.0
H673 H 0.59517 0.48507 0.76179 0.0
H674 H 0.57114 0.51436 0.72051 0.0
H675 H 0.55601 0.5228 0.66181 0.0
H676 H 0.5776 0.45921 0.58551 0.0
H677 H 0.59968 0.42925 0.62704 0.0
C678 C 0.6043 0.44068 0.69343 0.0
C679 C 0.60614 0.45001 0.72739 0.0
C680 C 0.59107 0.45814 0.66906 0.0
C681 C 0.59392 0.47693 0.73619 0.0
C682 C 0.58022 0.49388 0.7124 0.0
C683 C 0.56558 0.50245 0.65415 0.0
C684 C 0.56481 0.49374 0.61992 0.0
C685 C 0.57878 0.48496 0.67857 0.0
C686 C 0.5776 0.46702 0.6112 0.0
C687 C 0.59031 0.44957 0.63518 0.0
H688 H 0.94483 0.66149 0.17562 0.0
H689 H 0.91661 0.58502 0.24307 0.0
H690 H 0.93475 0.55008 0.20246 0.0
H691 H 0.95922 0.5403 0.14835 0.0
H692 H 0.98763 0.61481 0.07906 0.0
H693 H 0.96885 0.65089 0.11915 0.0
C694 C 0.94272 0.63721 0.18147 0.0
C695 C 0.92888 0.62621 0.21283 0.0
C696 C 0.95321 0.61662 0.15741 0.0
C697 C 0.92644 0.59444 0.21939 0.0
C698 C 0.93702 0.57427 0.19606 0.0
C699 C 0.96123 0.56442 0.14171 0.0
C700 C 0.97502 0.57454 0.1103 0.0
C701 C 0.95039 0.58497 0.16502 0.0
C702 C 0.97718 0.60603 0.10266 0.0
C703 C 0.96648 0.62678 0.12586 0.0
H704 H 0.47335 0.18458 0.17511 0.0
H705 H 0.38339 0.17018 0.11907 0.0
H706 H 0.40052 0.12747 0.08839 0.0
H707 H 0.44113 0.09455 0.07707 0.0
H708 H 0.53223 0.10989 0.13128 0.0
H709 H 0.51434 0.15151 0.16353 0.0
C710 C 0.45751 0.172 0.15623 0.0
C711 C 0.42725 0.18062 0.14924 0.0
C712 C 0.46757 0.14749 0.13859 0.0
C713 C 0.40705 0.16431 0.12453 0.0
C714 C 0.41669 0.13972 0.10718 0.0
C715 C 0.45691 0.10674 0.09622 0.0
C716 C 0.48782 0.09899 0.10198 0.0
C717 C 0.44687 0.13111 0.114 0.0
C718 C 0.50824 0.11536 0.12647 0.0
C719 C 0.49809 0.13922 0.14483 0.0
H720 H 0.14618 0.93655 0.62008 0.0
H721 H 0.12993 0.87488 0.53486 0.0
H722 H 0.10208 0.91124 0.50673 0.0
H723 H 0.0854 0.9619 0.50513 0.0
H724 H 0.09858 1.02195 0.59154 0.0
H725 H 0.12439 0.98452 0.62079 0.0
C726 C 0.1358 0.93057 0.59573 0.0
C727 C 0.14045 0.90313 0.5795 0.0
C728 C 0.11971 0.95145 0.5798 0.0
C729 C 0.12723 0.89611 0.54768 0.0
C730 C 0.11129 0.91685 0.53159 0.0
C731 C 0.09404 0.96674 0.53034 0.0
C732 C 0.09089 0.99472 0.54608 0.0
C733 C 0.10811 0.94489 0.54711 0.0
C734 C 0.10126 1.00059 0.57896 0.0
C735 C 0.11587 0.97922 0.59564 0.0
H736 H 0.81563 0.47914 0.93757 0.0
H737 H 0.83974 0.388 0.94088 0.0
H738 H 0.89186 0.40925 0.96736 0.0
H739 H 0.93131 0.45356 0.99079 0.0
H740 H 0.90898 0.54523 0.98559 0.0
H741 H 0.85652 0.52412 0.9591 0.0
C742 C 0.83238 0.46393 0.94374 0.0
C743 C 0.82288 0.43168 0.93746 0.0
C744 C 0.86304 0.47645 0.95909 0.0
C745 C 0.84545 0.41269 0.94591 0.0
C746 C 0.87561 0.42488 0.96106 0.0
C747 C 0.91495 0.46897 0.98409 0.0
C748 C 0.92448 0.50109 0.9907 0.0
C749 C 0.88465 0.45668 0.96819 0.0
C750 C 0.90272 0.52046 0.98113 0.0
C751 C 0.87249 0.50836 0.96581 0.0
H752 H 0.7234 0.6234 0.47301 0.0
H753 H 0.67699 0.60212 0.37809 0.0
H754 H 0.62491 0.57963 0.40614 0.0
H755 H 0.59138 0.56675 0.45824 0.0
H756 H 0.63874 0.58792 0.55276 0.0
H757 H 0.69078 0.60931 0.52452 0.0
C758 C 0.70189 0.61402 0.45838 0.0
C759 C 0.70453 0.61466 0.42327 0.0
C760 C 0.67178 0.60086 0.47475 0.0
C761 C 0.67617 0.60183 0.40504 0.0
C762 C 0.64615 0.58899 0.42113 0.0
C763 C 0.61315 0.57584 0.47262 0.0
C764 C 0.61078 0.57575 0.50777 0.0
C765 C 0.6435 0.58837 0.45605 0.0
C766 C 0.63948 0.5877 0.5258 0.0
C767 C 0.66944 0.60007 0.50962 0.0
H768 H 0.21269 0.33329 0.13997 0.0
H769 H 0.28378 0.40925 0.09999 0.0
H770 H 0.23879 0.43247 0.0784 0.0
H771 H 0.17896 0.43293 0.07552 0.0
H772 H 0.10865 0.35522 0.11427 0.0
H773 H 0.15364 0.33095 0.13193 0.0
C774 C 0.21822 0.35476 0.12616 0.0
C775 C 0.25119 0.36981 0.12166 0.0
C776 C 0.19241 0.36775 0.114 0.0
C777 C 0.25841 0.39741 0.10361 0.0
C778 C 0.23273 0.41067 0.09147 0.0
C779 C 0.17346 0.41041 0.08722 0.0
C780 C 0.14038 0.39626 0.09414 0.0
C781 C 0.19957 0.39632 0.09711 0.0
C782 C 0.13382 0.36709 0.10945 0.0
C783 C 0.15953 0.35305 0.11939 0.0
H784 H 0.60201 0.22374 0.9618 0.0
H785 H 0.57174 0.19429 0.86232 0.0
H786 H 0.55042 0.14211 0.88214 0.0
H787 H 0.53951 0.10382 0.92758 0.0
H788 H 0.56939 0.13224 1.02718 0.0
H789 H 0.5918 0.18482 1.00749 0.0
C790 C 0.59098 0.20597 0.94427 0.0
C791 C 0.58845 0.21387 0.91029 0.0
C792 C 0.5786 0.1753 0.95594 0.0
C793 C 0.57365 0.18988 0.88856 0.0
C794 C 0.56156 0.15963 0.8999 0.0
C795 C 0.55105 0.12142 0.94507 0.0
C796 C 0.55263 0.1136 0.97904 0.0
C797 C 0.56372 0.15195 0.93353 0.0
C798 C 0.56771 0.13716 1.001 0.0
C799 C 0.58054 0.16743 0.98967 0.0
H800 H 0.93544 0.86813 0.3932 0.0
H801 H 0.93937 0.81363 0.48071 0.0
H802 H 0.96368 0.86022 0.51208 0.0
H803 H 0.98176 0.91736 0.51598 0.0
H804 H 0.97697 0.97213 0.42865 0.0
H805 H 0.95537 0.92534 0.39664 0.0
C806 C 0.94221 0.86639 0.41894 0.0
C807 C 0.9357 0.83705 0.43432 0.0
C808 C 0.95576 0.89371 0.43731 0.0
C809 C 0.94416 0.83566 0.46802 0.0
C810 C 0.95796 0.86245 0.48613 0.0
C811 C 0.97604 0.91916 0.48995 0.0
C812 C 0.98106 0.94876 0.47515 0.0
C813 C 0.96346 0.89178 0.4713 0.0
C814 C 0.97346 0.95006 0.44115 0.0
C815 C 0.96105 0.9231 0.4226 0.0
H816 H 0.34413 0.74793 0.50746 0.0
H817 H 0.42633 0.82322 0.52278 0.0
H818 H 0.4649 0.78748 0.51738 0.0
H819 H 0.47286 0.73388 0.52371 0.0
H820 H 0.38942 0.65851 0.51532 0.0
H821 H 0.35366 0.69487 0.5021 0.0
C822 C 0.37061 0.75663 0.50791 0.0
C823 C 0.38255 0.78791 0.51574 0.0
C824 C 0.39226 0.73567 0.50705 0.0
C825 C 0.41679 0.7991 0.51675 0.0
C826 C 0.43873 0.77861 0.51415 0.0
C827 C 0.44711 0.72547 0.51777 0.0
C828 C 0.43345 0.69386 0.52106 0.0
C829 C 0.42649 0.74663 0.51168 0.0
C830 C 0.40013 0.68295 0.51342 0.0
C831 C 0.37974 0.7037 0.50594 0.0
H832 H 0.76266 0.88137 0.70951 0.0
H833 H 0.78317 0.79243 0.67851 0.0
H834 H 0.8333 0.81818 0.64937 0.0
H835 H 0.87405 0.86606 0.63729 0.0
H836 H 0.85157 0.95449 0.66668 0.0
H837 H 0.79901 0.92878 0.69138 0.0
C838 C 0.77736 0.86748 0.69553 0.0
C839 C 0.76924 0.83492 0.69667 0.0
C840 C 0.80606 0.88238 0.67884 0.0
C841 C 0.78913 0.81751 0.6787 0.0
C842 C 0.81782 0.83221 0.66199 0.0
C843 C 0.85739 0.87955 0.64889 0.0
C844 C 0.86658 0.91198 0.65054 0.0
C845 C 0.82706 0.86461 0.6628 0.0
C846 C 0.84484 0.92945 0.66518 0.0
C847 C 0.81488 0.91478 0.67934 0.0
H848 H 0.74997 0.19446 0.24318 0.0
H849 H 0.65394 0.2127 0.271 0.0
H850 H 0.63155 0.19021 0.21831 0.0
H851 H 0.63757 0.15842 0.16886 0.0
H852 H 0.73356 0.13961 0.14117 0.0
H853 H 0.75772 0.16919 0.18949 0.0
C854 C 0.72429 0.19395 0.23735 0.0
C855 C 0.70349 0.2048 0.26092 0.0
C856 C 0.71152 0.18049 0.20738 0.0
C857 C 0.67039 0.20451 0.2531 0.0
C858 C 0.65754 0.19143 0.22314 0.0
C859 C 0.66396 0.16154 0.17275 0.0
C860 C 0.68363 0.14639 0.15172 0.0
C861 C 0.67762 0.17837 0.20068 0.0
C862 C 0.71774 0.15047 0.15741 0.0
C863 C 0.73159 0.16744 0.18497 0.0
H864 H 0.42423 0.59179 0.34568 0.0
H865 H 0.44499 0.68503 0.38513 0.0
H866 H 0.46796 0.66653 0.43517 0.0
H867 H 0.48248 0.62312 0.46877 0.0
H868 H 0.4621 0.53055 0.42708 0.0
H869 H 0.43881 0.54941 0.37813 0.0
C870 C 0.43355 0.60826 0.36517 0.0
C871 C 0.43244 0.64006 0.36094 0.0
C872 C 0.447 0.5974 0.39412 0.0
C873 C 0.44551 0.66058 0.38685 0.0
C874 C 0.45859 0.64989 0.41585 0.0
C875 C 0.4728 0.60701 0.4491 0.0
C876 C 0.4743 0.57509 0.45235 0.0
C877 C 0.4595 0.61824 0.41997 0.0
C878 C 0.46169 0.55507 0.42592 0.0
C879 C 0.4482 0.5659 0.39758 0.0
H880 H 0.09031 0.41881 0.89056 0.0
H881 H 0.11898 0.49206 0.81928 0.0
H882 H 0.10239 0.52914 0.85839 0.0
H883 H 0.07908 0.54176 0.91253 0.0
H884 H 0.04975 0.47005 0.98478 0.0
H885 H 0.06714 0.43207 0.94629 0.0
C886 C 0.09287 0.44285 0.88347 0.0
C887 C 0.10646 0.45221 0.85151 0.0
C888 C 0.08317 0.46468 0.90658 0.0
C889 C 0.10943 0.48377 0.84347 0.0
C890 C 0.09969 0.50521 0.86594 0.0
C891 C 0.0766 0.51785 0.92012 0.0
C892 C 0.06314 0.50913 0.95209 0.0
C893 C 0.08658 0.49606 0.89757 0.0
C894 C 0.06021 0.47783 0.96088 0.0
C895 C 0.07006 0.45595 0.93855 0.0
H896 H 0.62536 0.91162 0.90557 0.0
H897 H 0.54636 0.84053 0.94218 0.0
H898 H 0.5176 0.8802 0.96527 0.0
H899 H 0.51678 0.93516 0.97784 0.0
H900 H 0.59862 1.00564 0.94568 0.0
H901 H 0.62423 0.96633 0.91741 0.0
C902 C 0.60165 0.9049 0.91828 0.0
C903 C 0.58785 0.87332 0.92213 0.0
C904 C 0.58579 0.92775 0.93211 0.0
C905 C 0.55743 0.86476 0.9391 0.0
C906 C 0.54099 0.88741 0.95218 0.0
C907 C 0.53988 0.94186 0.96402 0.0
C908 C 0.5557 0.97315 0.96334 0.0
C909 C 0.55513 0.91897 0.94914 0.0
C910 C 0.586 0.98163 0.94623 0.0
C911 C 0.60068 0.95918 0.93024 0.0
H912 H 0.86708 0.1001 0.44401 0.0
H913 H 0.8142 0.09907 0.53793 0.0
H914 H 0.85677 0.07692 0.56491 0.0
H915 H 0.91052 0.06083 0.56231 0.0
H916 H 0.96235 0.06013 0.46809 0.0
H917 H 0.91836 0.07989 0.44046 0.0
C918 C 0.8644 0.09431 0.4702 0.0
C919 C 0.83766 0.10135 0.489 0.0
C920 C 0.88892 0.0817 0.48549 0.0
C921 C 0.83484 0.0942 0.52305 0.0
C922 C 0.85912 0.08157 0.53847 0.0
C923 C 0.91209 0.06501 0.53573 0.0
C924 C 0.93957 0.0595 0.51718 0.0
C925 C 0.8866 0.07588 0.52006 0.0
C926 C 0.94132 0.06446 0.48274 0.0
C927 C 0.91623 0.07567 0.46699 0.0
H928 H 0.20482 0.66767 0.11707 0.0
H929 H 0.23299 0.5838 0.15065 0.0
H930 H 0.18307 0.55315 0.12628 0.0
H931 H 0.13095 0.54969 0.09375 0.0
H932 H 0.10615 0.63468 0.05868 0.0
H933 H 0.15503 0.66445 0.08428 0.0
C934 C 0.20068 0.64267 0.11881 0.0
C935 C 0.22359 0.62855 0.13591 0.0
C936 C 0.17209 0.62493 0.10402 0.0
C937 C 0.21623 0.5959 0.13827 0.0
C938 C 0.18755 0.57813 0.12395 0.0
C939 C 0.13624 0.5747 0.09159 0.0
C940 C 0.11422 0.58948 0.07383 0.0
C941 C 0.1652 0.59231 0.10653 0.0
C942 C 0.12208 0.62211 0.07172 0.0
C943 C 0.15028 0.63945 0.08657 0.0
H944 H 0.35047 0.47233 0.66732 0.0
H945 H 0.29497 0.42884 0.58367 0.0
H946 H 0.3418 0.44724 0.54648 0.0
H947 H 0.39931 0.47502 0.53711 0.0
H948 H 0.45501 0.51883 0.62028 0.0
H949 H 0.40759 0.50156 0.65764 0.0
C950 C 0.3484 0.46708 0.64093 0.0
C951 C 0.31887 0.44874 0.62874 0.0
C952 C 0.37571 0.47793 0.6193 0.0
C953 C 0.31727 0.44219 0.59428 0.0
C954 C 0.34412 0.45295 0.57276 0.0
C955 C 0.40105 0.48095 0.56338 0.0
C956 C 0.43093 0.49826 0.57572 0.0
C957 C 0.37359 0.47068 0.58493 0.0
C958 C 0.4325 0.50559 0.60994 0.0
C959 C 0.4053 0.49563 0.63141 0.0
H960 H 0.79945 0.72946 0.95372 0.0
H961 H 0.75193 0.63819 0.92151 0.0
H962 H 0.79583 0.61591 0.9461 0.0
H963 H 0.8514 0.62357 0.96924 0.0
H964 H 0.90149 0.71563 0.99674 0.0
H965 H 0.85276 0.73635 0.98239 0.0
C966 C 0.79827 0.70459 0.95317 0.0
C967 C 0.77257 0.68536 0.93614 0.0
C968 C 0.82434 0.6922 0.96607 0.0
C969 C 0.77145 0.65327 0.9348 0.0
C970 C 0.79667 0.64062 0.94857 0.0
C971 C 0.85158 0.64815 0.97232 0.0
C972 C 0.88029 0.66806 0.98354 0.0
C973 C 0.82388 0.66004 0.96301 0.0
C974 C 0.87977 0.69973 0.98822 0.0
C975 C 0.85197 0.71165 0.97977 0.0
H976 H 0.43916 0.84766 0.10542 0.0
H977 H 0.4637 0.8806 0.20525 0.0
H978 H 0.48582 0.93208 0.18424 0.0
H979 H 0.49947 0.96874 0.13781 0.0
H980 H 0.47498 0.93756 0.03771 0.0
H981 H 0.45161 0.88544 0.05839 0.0
C982 C 0.44912 0.86606 0.12271 0.0
C983 C 0.44994 0.85929 0.15722 0.0
C984 C 0.46198 0.89644 0.11031 0.0
C985 C 0.46322 0.8841 0.17867 0.0
C986 C 0.47579 0.91397 0.16664 0.0
C987 C 0.48893 0.95064 0.1204 0.0
C988 C 0.48921 0.95751 0.08603 0.0
C989 C 0.47557 0.9205 0.13254 0.0
C990 C 0.47526 0.93336 0.06419 0.0
C991 C 0.46187 0.90335 0.07611 0.0
H992 H 0.10639 0.23174 0.60116 0.0
H993 H 0.08662 0.20056 0.70199 0.0
H994 H 0.06341 0.14814 0.68118 0.0
H995 H 0.05067 0.10991 0.6334 0.0
H996 H 0.07207 0.14366 0.53334 0.0
H997 H 0.09299 0.19529 0.55481 0.0
C998 C 0.09716 0.21358 0.61883 0.0
C999 C 0.09881 0.22056 0.65336 0.0
C1000 C 0.08427 0.18337 0.60667 0.0
C1001 C 0.08573 0.1964 0.67537 0.0
C1002 C 0.07266 0.16616 0.66338 0.0
C1003 C 0.05997 0.12852 0.61629 0.0
C1004 C 0.0596 0.12218 0.58146 0.0
C1005 C 0.07215 0.15911 0.62896 0.0
C1006 C 0.07169 0.14714 0.56007 0.0
C1007 C 0.08379 0.17703 0.57237 0.0
H1008 H 0.74838 0.3713 0.50075 0.0
H1009 H 0.68968 0.30266 0.56384 0.0
H1010 H 0.6513 0.33754 0.57587 0.0
H1011 H 0.62787 0.3816 0.55702 0.0
H1012 H 0.68462 0.44797 0.48993 0.0
H1013 H 0.73053 0.42038 0.49119 0.0
C1014 C 0.72786 0.3646 0.51816 0.0
C1015 C 0.72131 0.33446 0.5309 0.0
C1016 C 0.70511 0.38408 0.5235 0.0
C1017 C 0.69504 0.32583 0.55371 0.0
C1018 C 0.67284 0.34558 0.56017 0.0
C1019 C 0.65062 0.39028 0.54328 0.0
C1020 C 0.65269 0.41619 0.52276 0.0
C1021 C 0.67649 0.37381 0.54337 0.0
C1022 C 0.68244 0.42788 0.5057 0.0
C1023 C 0.70862 0.41202 0.50626 0.0
loop_
_geom_bond_atom_site_label_1
_geom_bond_atom_site_label_2
_geom_bond_distance
_geom_bond_site_symmetry_2
_ccdc_geom_bond_type
C0 C1 1.391 . S
C0 C4 1.391 . S
C0 H42 0.948 . S
C1 C0 1.391 . S
C1 C2 1.391 . S
C2 C1 1.391 . S
C2 H58 0.947 . S
C2 C59 1.392 . S
C3 C4 1.391 . S
C3 C7 1.397 . S
C3 C59 1.419 . S
C4 C0 1.391 . S
C4 C3 1.391 . S
C4 C5 1.399 . S
C5 C4 1.399 . S
C5 C8 1.396 . S
C5 C17 1.453 . S
C5 C18 1.684 . S
H6 C30 0.948 . S
C7 C3 1.397 . S
C7 C8 1.394 . S
C7 C26 1.723 . S
C8 C5 1.396 . S
C8 C7 1.394 . S
C8 C38 1.723 . S
H9 C32 0.947 . S
H10 C33 0.948 . S
H11 C39 0.982 . S
H12 C40 0.979 . S
H13 C40 0.980 . S
H14 C40 0.983 . S
H15 C39 0.979 . S
H16 C39 0.977 . S
C17 C5 1.453 . S
C17 H46 0.982 . S
C17 H47 0.979 . S
C17 H48 0.977 . S
C18 C5 1.684 . S
C18 H43 0.979 . S
C18 H44 0.980 . S
C18 H45 0.983 . S
C19 C20 1.391 . S
C19 C24 1.391 . S
C19 H49 0.948 . S
C20 C19 1.391 . S
C20 C21 1.391 . S
C21 C20 1.391 . S
C21 C22 1.392 . S
C21 H50 0.947 . S
C22 C21 1.392 . S
C22 C23 1.419 . S
C22 H51 0.948 . S
C23 C22 1.419 . S
C23 C24 1.391 . S
C23 C27 1.397 . S
C24 C19 1.391 . S
C24 C23 1.391 . S
C24 C25 1.399 . S
C25 C24 1.399 . S
C25 C26 1.396 . S
C25 C28 1.453 . S
C25 C29 1.684 . S
C26 C7 1.723 . S
C26 C25 1.396 . S
C26 C27 1.394 . S
C27 C23 1.397 . S
C27 C26 1.394 . S
C27 C37 1.723 . S
C28 C25 1.453 . S
C28 H52 0.982 . S
C28 H53 0.979 . S
C28 H54 0.977 . S
C29 C25 1.684 . S
C29 H55 0.979 . S
C29 H56 0.980 . S
C29 H57 0.983 . S
C30 H6 0.948 . S
C30 C31 1.391 . S
C30 C35 1.391 . S
C31 C30 1.391 . S
C31 C32 1.391 . S
C32 H9 0.947 . S
C32 C31 1.391 . S
C32 C33 1.392 . S
C33 H10 0.948 . S
C33 C32 1.392 . S
C33 C34 1.419 . S
C34 C33 1.419 . S
C34 C35 1.391 . S
C34 C38 1.397 . S
C35 C30 1.391 . S
C35 C34 1.391 . S
C35 C36 1.399 . S
C36 C35 1.399 . S
C36 C37 1.396 . S
C36 C39 1.453 . S
C36 C40 1.684 . S
C37 C27 1.723 . S
C37 C36 1.396 . S
C37 C38 1.394 . S
C38 C8 1.723 . S
C38 C34 1.397 . S
C38 C37 1.394 . S
C39 H11 0.982 . S
C39 H15 0.979 . S
C39 H16 0.977 . S
C39 C36 1.453 . S
C40 H12 0.979 . S
C40 H13 0.980 . S
C40 H14 0.983 . S
C40 C36 1.684 . S
H41 C59 0.948 . S
H42 C0 0.948 . S
H43 C18 0.979 . S
H44 C18 0.980 . S
H45 C18 0.983 . S
H46 C17 0.982 . S
H47 C17 0.979 . S
H48 C17 0.977 . S
H49 C19 0.948 . S
H50 C21 0.947 . S
H51 C22 0.948 . S
H52 C28 0.982 . S
H53 C28 0.979 . S
H54 C28 0.977 . S
H55 C29 0.979 . S
H56 C29 0.980 . S
H57 C29 0.983 . S
H58 C2 0.947 . S
C59 C2 1.392 . S
C59 C3 1.419 . S
C59 H41 0.948 . S
C60 C61 1.391 . S
C60 C64 1.391 . S
C60 H102 0.948 . S
C61 C60 1.391 . S
C61 C62 1.391 . S
C62 C61 1.391 . S
C62 H118 0.947 . S
C62 C119 1.392 . S
C63 C64 1.391 . S
C63 C67 1.397 . S
C63 C119 1.419 . S
C64 C60 1.391 . S
C64 C63 1.391 . S
C64 C65 1.399 . S
C65 C64 1.399 . S
C65 C68 1.396 . S
C65 C77 1.453 . S
C65 C78 1.684 . S
H66 C90 0.948 . S
C67 C63 1.397 . S
C67 C68 1.394 . S
C67 C86 1.723 . S
C68 C65 1.396 . S
C68 C67 1.394 . S
C68 C98 1.723 . S
H69 C92 0.947 . S
H70 C93 0.948 . S
H71 C99 0.982 . S
H72 C100 0.979 . S
H73 C100 0.980 . S
H74 C100 0.983 . S
H75 C99 0.979 . S
H76 C99 0.977 . S
C77 C65 1.453 . S
C77 H106 0.982 . S
C77 H107 0.979 . S
C77 H108 0.977 . S
C78 C65 1.684 . S
C78 H103 0.979 . S
C78 H104 0.980 . S
C78 H105 0.983 . S
C79 C80 1.391 . S
C79 C84 1.391 . S
C79 H109 0.948 . S
C80 C79 1.391 . S
C80 C81 1.391 . S
C81 C80 1.391 . S
C81 C82 1.392 . S
C81 H110 0.947 . S
C82 C81 1.392 . S
C82 C83 1.419 . S
C82 H111 0.948 . S
C83 C82 1.419 . S
C83 C84 1.391 . S
C83 C87 1.397 . S
C84 C79 1.391 . S
C84 C83 1.391 . S
C84 C85 1.399 . S
C85 C84 1.399 . S
C85 C86 1.396 . S
C85 C88 1.453 . S
C85 C89 1.684 . S
C86 C67 1.723 . S
C86 C85 1.396 . S
C86 C87 1.394 . S
C87 C83 1.397 . S
C87 C86 1.394 . S
C87 C97 1.723 . S
C88 C85 1.453 . S
C88 H112 0.982 . S
C88 H113 0.979 . S
C88 H114 0.977 . S
C89 C85 1.684 . S
C89 H115 0.979 . S
C89 H116 0.980 . S
C89 H117 0.983 . S
C90 H66 0.948 . S
C90 C91 1.391 . S
C90 C95 1.391 . S
C91 C90 1.391 . S
C91 C92 1.391 . S
C92 H69 0.947 . S
C92 C91 1.391 . S
C92 C93 1.392 . S
C93 H70 0.948 . S
C93 C92 1.392 . S
C93 C94 1.419 . S
C94 C93 1.419 . S
C94 C95 1.391 . S
C94 C98 1.397 . S
C95 C90 1.391 . S
C95 C94 1.391 . S
C95 C96 1.399 . S
C96 C95 1.399 . S
C96 C97 1.396 . S
C96 C99 1.453 . S
C96 C100 1.684 . S
C97 C87 1.723 . S
C97 C96 1.396 . S
C97 C98 1.394 . S
C98 C68 1.723 . S
C98 C94 1.397 . S
C98 C97 1.394 . S
C99 H71 0.982 . S
C99 H75 0.979 . S
C99 H76 0.977 . S
C99 C96 1.453 . S
C100 H72 0.979 . S
C100 H73 0.980 . S
C100 H74 0.983 . S
C100 C96 1.684 . S
H101 C119 0.948 . S
H102 C60 0.948 . S
H103 C78 0.979 . S
H104 C78 0.980 . S
H105 C78 0.983 . S
H106 C77 0.982 . S
H107 C77 0.979 . S
H108 C77 0.977 . S
H109 C79 0.948 . S
H110 C81 0.947 . S
H111 C82 0.948 . S
H112 C88 0.982 . S
H113 C88 0.979 . S
H114 C88 0.977 . S
H115 C89 0.979 . S
H116 C89 0.980 . S
H117 C89 0.983 . S
H118 C62 0.947 . S
C119 C62 1.392 . S
C119 C63 1.419 . S
C119 H101 0.948 . S
C120 C121 1.391 . S
C120 C124 1.391 . S
C120 H162 0.948 . S
C121 C120 1.391 . S
C121 C122 1.391 . S
C122 C121 1.391 . S
C122 H178 0.947 . S
C122 C179 1.392 . S
C123 C124 1.391 . S
C123 C127 1.397 . S
C123 C179 1.419 . S
C124 C120 1.391 . S
C124 C123 1.391 . S
C124 C125 1.399 . S
C125 C124 1.399 . S
C125 C128 1.396 . S
C125 C137 1.453 . S
C125 C138 1.684 . S
H126 C150 0.948 . S
C127 C123 1.397 . S
C127 C128 1.394 . S
C127 C146 1.723 . S
C128 C125 1.396 . S
C128 C127 1.394 . S
C128 C158 1.723 . S
H129 C152 0.947 . S
H130 C153 0.948 . S
H131 C159 0.982 . S
H132 C160 0.979 . S
H133 C160 0.980 . S
H134 C160 0.983 . S
H135 C159 0.979 . S
H136 C159 0.977 . S
C137 C125 1.453 . S
C137 H166 0.982 . S
C137 H167 0.979 . S
C137 H168 0.977 . S
C138 C125 1.684 . S
C138 H163 0.979 . S
C138 H164 0.980 . S
C138 H165 0.983 . S
C139 C140 1.391 . S
C139 C144 1.391 . S
C139 H169 0.948 . S
C140 C139 1.391 . S
C140 C141 1.391 . S
C141 C140 1.391 . S
C141 C142 1.392 . S
C141 H170 0.947 . S
C142 C141 1.392 . S
C142 C143 1.419 . S
C142 H171 0.948 . S
C143 C142 1.419 . S
C143 C144 1.391 . S
C143 C147 1.397 . S
C144 C139 1.391 . S
C144 C143 1.391 . S
C144 C145 1.399 . S
C145 C144 1.399 . S
C145 C146 1.396 . S
C145 C148 1.453 . S
C145 C149 1.684 . S
C146 C127 1.723 . S
C146 C145 1.396 . S
C146 C147 1.394 . S
C147 C143 1.397 . S
C147 C146 1.394 . S
C147 C157 1.723 . S
C148 C145 1.453 . S
C148 H172 0.982 . S
C148 H173 0.979 . S
C148 H174 0.977 . S
C149 C145 1.684 . S
C149 H175 0.979 . S
C149 H176 0.980 . S
C149 H177 0.983 . S
C150 H126 0.948 . S
C150 C151 1.391 . S
C150 C155 1.391 . S
C151 C150 1.391 . S
C151 C152 1.391 . S
C152 H129 0.947 . S
C152 C151 1.391 . S
C152 C153 1.392 . S
C153 H130 0.948 . S
C153 C152 1.392 . S
C153 C154 1.419 . S
C154 C153 1.419 . S
C154 C155 1.391 . S
C154 C158 1.397 . S
C155 C150 1.391 . S
C155 C154 1.391 . S
C155 C156 1.399 . S
C156 C155 1.399 . S
C156 C157 1.396 . S
C156 C159 1.453 . S
C156 C160 1.684 . S
C157 C147 1.723 . S
C157 C156 1.396 . S
C157 C158 1.394 . S
C158 C128 1.723 . S
C158 C154 1.397 . S
C158 C157 1.394 . S
C159 H131 0.982 . S
C159 H135 0.979 . S
C159 H136 0.977 . S
C159 C156 1.453 . S
C160 H132 0.979 . S
C160 H133 0.980 . S
C160 H134 0.983 . S
C160 C156 1.684 . S
H161 C179 0.948 . S
H162 C120 0.948 . S
H163 C138 0.979 . S
H164 C138 0.980 . S
H165 C138 0.983 . S
H166 C137 0.982 . S
H167 C137 0.979 . S
H168 C137 0.977 . S
H169 C139 0.948 . S
H170 C141 0.947 . S
H171 C142 0.948 . S
H172 C148 0.982 . S
H173 C148 0.979 . S
H174 C148 0.977 . S
H175 C149 0.979 . S
H176 C149 0.980 . S
H177 C149 0.983 . S
H178 C122 0.947 . S
C179 C122 1.392 . S
C179 C123 1.419 . S
C179 H161 0.948 . S
C180 C181 1.391 . S
C180 C184 1.391 . S
C180 H222 0.948 . S
C181 C180 1.391 . S
C181 C182 1.391 . S
C182 C181 1.391 . S
C182 H238 0.947 . S
C182 C239 1.392 . S
C183 C184 1.391 . S
C183 C187 1.397 . S
C183 C239 1.419 . S
C184 C180 1.391 . S
C184 C183 1.391 . S
C184 C185 1.399 . S
C185 C184 1.399 . S
C185 C188 1.396 . S
C185 C197 1.453 . S
C185 C198 1.684 . S
H186 C210 0.948 . S
C187 C183 1.397 . S
C187 C188 1.394 . S
C187 C206 1.723 . S
C188 C185 1.396 . S
C188 C187 1.394 . S
C188 C218 1.723 . S
H189 C212 0.947 . S
H190 C213 0.948 . S
H191 C219 0.982 . S
H192 C220 0.979 . S
H193 C220 0.980 . S
H194 C220 0.983 . S
H195 C219 0.979 . S
H196 C219 0.977 . S
C197 C185 1.453 . S
C197 H226 0.982 . S
C197 H227 0.979 . S
C197 H228 0.977 . S
C198 C185 1.684 . S
C198 H223 0.979 . S
C198 H224 0.980 . S
C198 H225 0.983 . S
C199 C200 1.391 . S
C199 C204 1.391 . S
C199 H229 0.948 . S
C200 C199 1.391 . S
C200 C201 1.391 . S
C201 C200 1.391 . S
C201 C202 1.392 . S
C201 H230 0.947 . S
C202 C201 1.392 . S
C202 C203 1.419 . S
C202 H231 0.948 . S
C203 C202 1.419 . S
C203 C204 1.391 . S
C203 C207 1.397 . S
C204 C199 1.391 . S
C204 C203 1.391 . S
C204 C205 1.399 . S
C205 C204 1.399 . S
C205 C206 1.396 . S
C205 C208 1.453 . S
C205 C209 1.684 . S
C206 C187 1.723 . S
C206 C205 1.396 . S
C206 C207 1.394 . S
C207 C203 1.397 . S
C207 C206 1.394 . S
C207 C217 1.723 . S
C208 C205 1.453 . S
C208 H232 0.982 . S
C208 H233 0.979 . S
C208 H234 0.977 . S
C209 C205 1.684 . S
C209 H235 0.979 . S
C209 H236 0.980 . S
C209 H237 0.983 . S
C210 H186 0.948 . S
C210 C211 1.391 . S
C210 C215 1.391 . S
C211 C210 1.391 . S
C211 C212 1.391 . S
C212 H189 0.947 . S
C212 C211 1.391 . S
C212 C213 1.392 . S
C213 H190 0.948 . S
C213 C212 1.392 . S
C213 C214 1.419 . S
C214 C213 1.419 . S
C214 C215 1.391 . S
C214 C218 1.397 . S
C215 C210 1.391 . S
C215 C214 1.391 . S
C215 C216 1.399 . S
C216 C215 1.399 . S
C216 C217 1.396 . S
C216 C219 1.453 . S
C216 C220 1.684 . S
C217 C207 1.723 . S
C217 C216 1.396 . S
C217 C218 1.394 . S
C218 C188 1.723 . S
C218 C214 1.397 . S
C218 C217 1.394 . S
C219 H191 0.982 . S
C219 H195 0.979 . S
C219 H196 0.977 . S
C219 C216 1.453 . S
C220 H192 0.979 . S
C220 H193 0.980 . S
C220 H194 0.983 . S
C220 C216 1.684 . S
H221 C239 0.948 . S
H222 C180 0.948 . S
H223 C198 0.979 . S
H224 C198 0.980 . S
H225 C198 0.983 . S
H226 C197 0.982 . S
H227 C197 0.979 . S
H228 C197 0.977 . S
H229 C199 0.948 . S
H230 C201 0.947 . S
H231 C202 0.948 . S
H232 C208 0.982 . S
H233 C208 0.979 . S
H234 C208 0.977 . S
H235 C209 0.979 . S
H236 C209 0.980 . S
H237 C209 0.983 . S
H238 C182 0.947 . S
C239 C182 1.392 . S
C239 C183 1.419 . S
C239 H221 0.948 . S
C240 C241 1.391 . S
C240 C244 1.391 . S
C240 H282 0.948 . S
C241 C240 1.391 . S
C241 C242 1.391 . S
C242 C241 1.391 . S
C242 H298 0.947 . S
C242 C299 1.392 . S
C243 C244 1.391 . S
C243 C247 1.397 . S
C243 C299 1.419 . S
C244 C240 1.391 . S
C244 C243 1.391 . S
C244 C245 1.399 . S
C245 C244 1.399 . S
C245 C248 1.396 . S
C245 C257 1.453 . S
C245 C258 1.684 . S
H246 C270 0.948 . S
C247 C243 1.397 . S
C247 C248 1.394 . S
C247 C266 1.723 . S
C248 C245 1.396 . S
C248 C247 1.394 . S
C248 C278 1.723 . S
H249 C272 0.947 . S
H250 C273 0.948 . S
H251 C279 0.982 . S
H252 C280 0.979 . S
H253 C280 0.980 . S
H254 C280 0.983 . S
H255 C279 0.979 . S
H256 C279 0.977 . S
C257 C245 1.453 . S
C257 H286 0.982 . S
C257 H287 0.979 . S
C257 H288 0.977 . S
C258 C245 1.684 . S
C258 H283 0.979 . S
C258 H284 0.980 . S
C258 H285 0.983 . S
C259 C260 1.391 . S
C259 C264 1.391 . S
C259 H289 0.948 . S
C260 C259 1.391 . S
C260 C261 1.391 . S
C261 C260 1.391 . S
C261 C262 1.392 . S
C261 H290 0.947 . S
C262 C261 1.392 . S
C262 C263 1.419 . S
C262 H291 0.948 . S
C263 C262 1.419 . S
C263 C264 1.391 . S
C263 C267 1.397 . S
C264 C259 1.391 . S
C264 C263 1.391 . S
C264 C265 1.399 . S
C265 C264 1.399 . S
C265 C266 1.396 . S
C265 C268 1.453 . S
C265 C269 1.684 . S
C266 C247 1.723 . S
C266 C265 1.396 . S
C266 C267 1.394 . S
C267 C263 1.397 . S
C267 C266 1.394 . S
C267 C277 1.723 . S
C268 C265 1.453 . S
C268 H292 0.982 . S
C268 H293 0.979 . S
C268 H294 0.977 . S
C269 C265 1.684 . S
C269 H295 0.979 . S
C269 H296 0.980 . S
C269 H297 0.983 . S
C270 H246 0.948 . S
C270 C271 1.391 . S
C270 C275 1.391 . S
C271 C270 1.391 . S
C271 C272 1.391 . S
C272 H249 0.947 . S
C272 C271 1.391 . S
C272 C273 1.392 . S
C273 H250 0.948 . S
C273 C272 1.392 . S
C273 C274 1.419 . S
C274 C273 1.419 . S
C274 C275 1.391 . S
C274 C278 1.397 . S
C275 C270 1.391 . S
C275 C274 1.391 . S
C275 C276 1.399 . S
C276 C275 1.399 . S
C276 C277 1.396 . S
C276 C279 1.453 . S
C276 C280 1.684 . S
C277 C267 1.723 . S
C277 C276 1.396 . S
C277 C278 1.394 . S
C278 C248 1.723 . S
C278 C274 1.397 . S
C278 C277 1.394 . S
C279 H251 0.982 . S
C279 H255 0.979 . S
C279 H256 0.977 . S
C279 C276 1.453 . S
C280 H252 0.979 . S
C280 H253 0.980 . S
C280 H254 0.983 . S
C280 C276 1.684 . S
H281 C299 0.948 . S
H282 C240 0.948 . S
H283 C258 0.979 . S
H284 C258 0.980 . S
H285 C258 0.983 . S
H286 C257 0.982 . S
H287 C257 0.979 . S
H288 C257 0.977 . S
H289 C259 0.948 . S
H290 C261 0.947 . S
H291 C262 0.948 . S
H292 C268 0.982 . S
H293 C268 0.979 . S
H294 C268 0.977 . S
H295 C269 0.979 . S
H296 C269 0.980 . S
H297 C269 0.983 . S
H298 C242 0.947 . S
C299 C242 1.392 . S
C299 C243 1.419 . S
C299 H281 0.948 . S
C300 C301 1.391 . S
C300 C304 1.391 . S
C300 H342 0.948 . S
C301 C300 1.391 . S
C301 C302 1.391 . S
C302 C301 1.391 . S
C302 H358 0.947 . S
C302 C359 1.392 . S
C303 C304 1.391 . S
C303 C307 1.397 . S
C303 C359 1.419 . S
C304 C300 1.391 . S
C304 C303 1.391 . S
C304 C305 1.399 . S
C305 C304 1.399 . S
C305 C308 1.396 . S
C305 C317 1.453 . S
C305 C318 1.684 . S
H306 C330 0.948 . S
C307 C303 1.397 . S
C307 C308 1.394 . S
C307 C326 1.723 . S
C308 C305 1.396 . S
C308 C307 1.394 . S
C308 C338 1.723 . S
H309 C332 0.947 . S
H310 C333 0.948 . S
H311 C339 0.982 . S
H312 C340 0.979 . S
H313 C340 0.980 . S
H314 C340 0.983 . S
H315 C339 0.979 . S
H316 C339 0.977 . S
C317 C305 1.453 . S
C317 H346 0.982 . S
C317 H347 0.979 . S
C317 H348 0.977 . S
C318 C305 1.684 . S
C318 H343 0.979 . S
C318 H344 0.980 . S
C318 H345 0.983 . S
C319 C320 1.391 . S
C319 C324 1.391 . S
C319 H349 0.948 . S
C320 C319 1.391 . S
C320 C321 1.391 . S
C321 C320 1.391 . S
C321 C322 1.392 . S
C321 H350 0.947 . S
C322 C321 1.392 . S
C322 C323 1.419 . S
C322 H351 0.948 . S
C323 C322 1.419 . S
C323 C324 1.391 . S
C323 C327 1.397 . S
C324 C319 1.391 . S
C324 C323 1.391 . S
C324 C325 1.399 . S
C325 C324 1.399 . S
C325 C326 1.396 . S
C325 C328 1.453 . S
C325 C329 1.684 . S
C326 C307 1.723 . S
C326 C325 1.396 . S
C326 C327 1.394 . S
C327 C323 1.397 . S
C327 C326 1.394 . S
C327 C337 1.723 . S
C328 C325 1.453 . S
C328 H352 0.982 . S
C328 H353 0.979 . S
C328 H354 0.977 . S
C329 C325 1.684 . S
C329 H355 0.979 . S
C329 H356 0.980 . S
C329 H357 0.983 . S
C330 H306 0.948 . S
C330 C331 1.391 . S
C330 C335 1.391 . S
C331 C330 1.391 . S
C331 C332 1.391 . S
C332 H309 0.947 . S
C332 C331 1.391 . S
C332 C333 1.392 . S
C333 H310 0.948 . S
C333 C332 1.392 . S
C333 C334 1.419 . S
C334 C333 1.419 . S
C334 C335 1.391 . S
C334 C338 1.397 . S
C335 C330 1.391 . S
C335 C334 1.391 . S
C335 C336 1.399 . S
C336 C335 1.399 . S
C336 C337 1.396 . S
C336 C339 1.453 . S
C336 C340 1.684 . S
C337 C327 1.723 . S
C337 C336 1.396 . S
C337 C338 1.394 . S
C338 C308 1.723 . S
C338 C334 1.397 . S
C338 C337 1.394 . S
C339 H311 0.982 . S
C339 H315 0.979 . S
C339 H316 0.977 . S
C339 C336 1.453 . S
C340 H312 0.979 . S
C340 H313 0.980 . S
C340 H314 0.983 . S
C340 C336 1.684 . S
H341 C359 0.948 . S
H342 C300 0.948 . S
H343 C318 0.979 . S
H344 C318 0.980 . S
H345 C318 0.983 . S
H346 C317 0.982 . S
H347 C317 0.979 . S
H348 C317 0.977 . S
H349 C319 0.948 . S
H350 C321 0.947 . S
H351 C322 0.948 . S
H352 C328 0.982 . S
H353 C328 0.979 . S
H354 C328 0.977 . S
H355 C329 0.979 . S
H356 C329 0.980 . S
H357 C329 0.983 . S
H358 C302 0.947 . S
C359 C302 1.392 . S
C359 C303 1.419 . S
C359 H341 0.948 . S
C360 C361 1.391 . S
C360 C364 1.391 . S
C360 H402 0.948 . S
C361 C360 1.391 . S
C361 C362 1.391 . S
C362 C361 1.391 . S
C362 H418 0.947 . S
C362 C419 1.392 . S
C363 C364 1.391 . S
C363 C367 1.397 . S
C363 C419 1.419 . S
C364 C360 1.391 . S
C364 C363 1.391 . S
C364 C365 1.399 . S
C365 C364 1.399 . S
C365 C368 1.396 . S
C365 C377 1.453 . S
C365 C378 1.684 . S
H366 C390 0.948 . S
C367 C363 1.397 . S
C367 C368 1.394 . S
C367 C386 1.723 . S
C368 C365 1.396 . S
C368 C367 1.394 . S
C368 C398 1.723 . S
H369 C392 0.947 . S
H370 C393 0.948 . S
H371 C399 0.982 . S
H372 C400 0.979 . S
H373 C400 0.980 . S
H374 C400 0.983 . S
H375 C399 0.979 . S
H376 C399 0.977 . S
C377 C365 1.453 . S
C377 H406 0.982 . S
C377 H407 0.979 . S
C377 H408 0.977 . S
C378 C365 1.684 . S
C378 H403 0.979 . S
C378 H404 0.980 . S
C378 H405 0.983 . S
C379 C380 1.391 . S
C379 C384 1.391 . S
C379 H409 0.948 . S
C380 C379 1.391 . S
C380 C381 1.391 . S
C381 C380 1.391 . S
C381 C382 1.392 . S
C381 H410 0.947 . S
C382 C381 1.392 . S
C382 C383 1.419 . S
C382 H411 0.948 . S
C383 C382 1.419 . S
C383 C384 1.391 . S
C383 C387 1.397 . S
C384 C379 1.391 . S
C384 C383 1.391 . S
C384 C385 1.399 . S
C385 C384 1.399 . S
C385 C386 1.396 . S
C385 C388 1.453 . S
C385 C389 1.684 . S
C386 C367 1.723 . S
C386 C385 1.396 . S
C386 C387 1.394 . S
C387 C383 1.397 . S
C387 C386 1.394 . S
C387 C397 1.723 . S
C388 C385 1.453 . S
C388 H412 0.982 . S
C388 H413 0.979 . S
C388 H414 0.977 . S
C389 C385 1.684 . S
C389 H415 0.979 . S
C389 H416 0.980 . S
C389 H417 0.983 . S
C390 H366 0.948 . S
C390 C391 1.391 . S
C390 C395 1.391 . S
C391 C390 1.391 . S
C391 C392 1.391 . S
C392 H369 0.947 . S
C392 C391 1.391 . S
C392 C393 1.392 . S
C393 H370 0.948 . S
C393 C392 1.392 . S
C393 C394 1.419 . S
C394 C393 1.419 . S
C394 C395 1.391 . S
C394 C398 1.397 . S
C395 C390 1.391 . S
C395 C394 1.391 . S
C395 C396 1.399 . S
C396 C395 1.399 . S
C396 C397 1.396 . S
C396 C399 1.453 . S
C396 C400 1.684 . S
C397 C387 1.723 . S
C397 C396 1.396 . S
C397 C398 1.394 . S
C398 C368 1.723 . S
C398 C394 1.397 . S
C398 C397 1.394 . S
C399 H371 0.982 . S
C399 H375 0.979 . S
C399 H376 0.977 . S
C399 C396 1.453 . S
C400 H372 0.979 . S
C400 H373 0.980 . S
C400 H374 0.983 . S
C400 C396 1.684 . S
H401 C419 0.948 . S
H402 C360 0.948 . S
H403 C378 0.979 . S
H404 C378 0.980 . S
H405 C378 0.983 . S
H406 C377 0.982 . S
H407 C377 0.979 . S
H408 C377 0.977 . S
H409 C379 0.948 . S
H410 C381 0.947 . S
H411 C382 0.948 . S
H412 C388 0.982 . S
H413 C388 0.979 . S
H414 C388 0.977 . S
H415 C389 0.979 . S
H416 C389 0.980 . S
H417 C389 0.983 . S
H418 C362 0.947 . S
C419 C362 1.392 . S
C419 C363 1.419 . S
C419 H401 0.948 . S
C420 C421 1.391 . S
C420 C424 1.391 . S
C420 H462 0.948 . S
C421 C420 1.391 . S
C421 C422 1.391 . S
C422 C421 1.391 . S
C422 H478 0.947 . S
C422 C479 1.392 . S
C423 C424 1.391 . S
C423 C427 1.397 . S
C423 C479 1.419 . S
C424 C420 1.391 . S
C424 C423 1.391 . S
C424 C425 1.399 . S
C425 C424 1.399 . S
C425 C428 1.396 . S
C425 C437 1.453 . S
C425 C438 1.684 . S
H426 C450 0.948 . S
C427 C423 1.397 . S
C427 C428 1.394 . S
C427 C446 1.723 . S
C428 C425 1.396 . S
C428 C427 1.394 . S
C428 C458 1.723 . S
H429 C452 0.947 . S
H430 C453 0.948 . S
H431 C459 0.982 . S
H432 C460 0.979 . S
H433 C460 0.980 . S
H434 C460 0.983 . S
H435 C459 0.979 . S
H436 C459 0.977 . S
C437 C425 1.453 . S
C437 H466 0.982 . S
C437 H467 0.979 . S
C437 H468 0.977 . S
C438 C425 1.684 . S
C438 H463 0.979 . S
C438 H464 0.980 . S
C438 H465 0.983 . S
C439 C440 1.391 . S
C439 C444 1.391 . S
C439 H469 0.948 . S
C440 C439 1.391 . S
C440 C441 1.391 . S
C441 C440 1.391 . S
C441 C442 1.392 . S
C441 H470 0.947 . S
C442 C441 1.392 . S
C442 C443 1.419 . S
C442 H471 0.948 . S
C443 C442 1.419 . S
C443 C444 1.391 . S
C443 C447 1.397 . S
C444 C439 1.391 . S
C444 C443 1.391 . S
C444 C445 1.399 . S
C445 C444 1.399 . S
C445 C446 1.396 . S
C445 C448 1.453 . S
C445 C449 1.684 . S
C446 C427 1.723 . S
C446 C445 1.396 . S
C446 C447 1.394 . S
C447 C443 1.397 . S
C447 C446 1.394 . S
C447 C457 1.723 . S
C448 C445 1.453 . S
C448 H472 0.982 . S
C448 H473 0.979 . S
C448 H474 0.977 . S
C449 C445 1.684 . S
C449 H475 0.979 . S
C449 H476 0.980 . S
C449 H477 0.983 . S
C450 H426 0.948 . S
C450 C451 1.391 . S
C450 C455 1.391 . S
C451 C450 1.391 . S
C451 C452 1.391 . S
C452 H429 0.947 . S
C452 C451 1.391 . S
C452 C453 1.392 . S
C453 H430 0.948 . S
C453 C452 1.392 . S
C453 C454 1.419 . S
C454 C453 1.419 . S
C454 C455 1.391 . S
C454 C458 1.397 . S
C455 C450 1.391 . S
C455 C454 1.391 . S
C455 C456 1.399 . S
C456 C455 1.399 . S
C456 C457 1.396 . S
C456 C459 1.453 . S
C456 C460 1.684 . S
C457 C447 1.723 . S
C457 C456 1.396 . S
C457 C458 1.394 . S
C458 C428 1.723 . S
C458 C454 1.397 . S
C458 C457 1.394 . S
C459 H431 0.982 . S
C459 H435 0.979 . S
C459 H436 0.977 . S
C459 C456 1.453 . S
C460 H432 0.979 . S
C460 H433 0.980 . S
C460 H434 0.983 . S
C460 C456 1.684 . S
H461 C479 0.948 . S
H462 C420 0.948 . S
H463 C438 0.979 . S
H464 C438 0.980 . S
H465 C438 0.983 . S
H466 C437 0.982 . S
H467 C437 0.979 . S
H468 C437 0.977 . S
H469 C439 0.948 . S
H470 C441 0.947 . S
H471 C442 0.948 . S
H472 C448 0.982 . S
H473 C448 0.979 . S
H474 C448 0.977 . S
H475 C449 0.979 . S
H476 C449 0.980 . S
H477 C449 0.983 . S
H478 C422 0.947 . S
C479 C422 1.392 . S
C479 C423 1.419 . S
C479 H461 0.948 . S
Ho480 C483 2.811 . S
Ho480 O500 2.322 . S
Ho480 O502 2.378 . S
Ho480 O503 2.524 . S
Ho480 O504 2.381 1_545 S
Ho480 O505 2.669 1_545 S
Ho480 O507 2.346 1_445 S
Ho480 O511 2.305 1_455 S
Ho481 C492 2.811 . S
Ho481 O501 2.346 1_665 S
Ho481 O505 2.305 1_655 S
Ho481 O506 2.322 . S
Ho481 O508 2.378 . S
Ho481 O509 2.524 . S
Ho481 O510 2.381 1_565 S
Ho481 O511 2.669 1_565 S
C482 O500 1.259 . S
C482 O501 1.268 . S
C483 Ho480 2.811 . S
C483 C484 1.488 . S
C483 O502 1.215 . S
C483 O503 1.289 . S
C484 C483 1.488 . S
C484 C485 1.348 . S
C484 C489 1.413 . S
C485 C484 1.348 . S
C485 C486 1.442 . S
C485 H512 0.930 . S
C486 C485 1.442 . S
C486 C487 1.381 . S
C486 H513 0.931 . S
C487 C486 1.381 . S
C487 C488 1.321 . S
C488 C487 1.321 . S
C488 C489 1.403 . S
C488 H514 0.934 . S
C489 C484 1.413 . S
C489 C488 1.403 . S
C489 H515 0.930 . S
C490 O504 1.275 . S
C490 O505 1.256 . S
C491 O506 1.259 . S
C491 O507 1.268 . S
C492 Ho481 2.811 . S
C492 C493 1.488 . S
C492 O508 1.215 . S
C492 O509 1.289 . S
C493 C492 1.488 . S
C493 C494 1.348 . S
C493 C498 1.413 . S
C494 C493 1.348 . S
C494 C495 1.442 . S
C494 H516 0.930 . S
C495 C494 1.442 . S
C495 C496 1.381 . S
C495 H517 0.931 . S
C496 C495 1.381 . S
C496 C497 1.321 . S
C497 C496 1.321 . S
C497 C498 1.403 . S
C497 H518 0.934 . S
C498 C493 1.413 . S
C498 C497 1.403 . S
C498 H519 0.930 . S
C499 O510 1.275 . S
C499 O511 1.256 . S
O500 Ho480 2.322 . S
O500 C482 1.259 . S
O501 Ho481 2.346 1_445 S
O501 C482 1.268 . S
O502 Ho480 2.378 . S
O502 C483 1.215 . S
O503 Ho480 2.524 . S
O503 C483 1.289 . S
O504 Ho480 2.381 1_565 S
O504 C490 1.275 . S
O505 Ho480 2.669 1_565 S
O505 Ho481 2.305 1_455 S
O505 C490 1.256 . S
O506 Ho481 2.322 . S
O506 C491 1.259 . S
O507 Ho480 2.346 1_665 S
O507 C491 1.268 . S
O508 Ho481 2.378 . S
O508 C492 1.215 . S
O509 Ho481 2.524 . S
O509 C492 1.289 . S
O510 Ho481 2.381 1_545 S
O510 C499 1.275 . S
O511 Ho480 2.305 1_655 S
O511 Ho481 2.669 1_545 S
O511 C499 1.256 . S
H512 C485 0.930 . S
H513 C486 0.931 . S
H514 C488 0.934 . S
H515 C489 0.930 . S
H516 C494 0.930 . S
H517 C495 0.931 . S
H518 C497 0.934 . S
H519 C498 0.930 . S
Ho520 C523 2.811 1_565 S
Ho520 O540 2.322 1_565 S
Ho520 O542 2.378 1_565 S
Ho520 O543 2.524 1_565 S
Ho520 O544 2.381 . S
Ho520 O545 2.669 . S
Ho520 O547 2.346 1_554 S
Ho520 O551 2.305 1_564 S
Ho521 C532 2.811 1_545 S
Ho521 O541 2.346 1_556 S
Ho521 O545 2.305 1_546 S
Ho521 O546 2.322 1_545 S
Ho521 O548 2.378 1_545 S
Ho521 O549 2.524 1_545 S
Ho521 O550 2.381 . S
Ho521 O551 2.669 . S
C522 O540 1.259 . S
C522 O541 1.268 . S
C523 Ho520 2.811 1_545 S
C523 C524 1.488 . S
C523 O542 1.215 . S
C523 O543 1.289 . S
C524 C523 1.488 . S
C524 C525 1.348 . S
C524 C529 1.413 . S
C525 C524 1.348 . S
C525 C526 1.442 . S
C525 H552 0.930 . S
C526 C525 1.442 . S
C526 C527 1.381 . S
C526 H553 0.931 . S
C527 C526 1.381 . S
C527 C528 1.321 . S
C528 C527 1.321 . S
C528 C529 1.403 . S
C528 H554 0.934 . S
C529 C524 1.413 . S
C529 C528 1.403 . S
C529 H555 0.930 . S
C530 O544 1.275 . S
C530 O545 1.256 . S
C531 O546 1.259 . S
C531 O547 1.268 . S
C532 Ho521 2.811 1_565 S
C532 C533 1.488 . S
C532 O548 1.215 . S
C532 O549 1.289 . S
C533 C532 1.488 . S
C533 C534 1.348 . S
C533 C538 1.413 . S
C534 C533 1.348 . S
C534 C535 1.442 . S
C534 H556 0.930 . S
C535 C534 1.442 . S
C535 C536 1.381 . S
C535 H557 0.931 . S
C536 C535 1.381 . S
C536 C537 1.321 . S
C537 C536 1.321 . S
C537 C538 1.403 . S
C537 H558 0.934 . S
C538 C533 1.413 . S
C538 C537 1.403 . S
C538 H559 0.930 . S
C539 O550 1.275 . S
C539 O551 1.256 . S
O540 Ho520 2.322 1_545 S
O540 C522 1.259 . S
O541 Ho521 2.346 1_554 S
O541 C522 1.268 . S
O542 Ho520 2.378 1_545 S
O542 C523 1.215 . S
O543 Ho520 2.524 1_545 S
O543 C523 1.289 . S
O544 Ho520 2.381 . S
O544 C530 1.275 . S
O545 Ho520 2.669 . S
O545 Ho521 2.305 1_564 S
O545 C530 1.256 . S
O546 Ho521 2.322 1_565 S
O546 C531 1.259 . S
O547 Ho520 2.346 1_556 S
O547 C531 1.268 . S
O548 Ho521 2.378 1_565 S
O548 C532 1.215 . S
O549 Ho521 2.524 1_565 S
O549 C532 1.289 . S
O550 Ho521 2.381 . S
O550 C539 1.275 . S
O551 Ho520 2.305 1_546 S
O551 Ho521 2.669 . S
O551 C539 1.256 . S
H552 C525 0.930 . S
H553 C526 0.931 . S
H554 C528 0.934 . S
H555 C529 0.930 . S
H556 C534 0.930 . S
H557 C535 0.931 . S
H558 C537 0.934 . S
H559 C538 0.930 . S
Ho560 C563 2.811 . S
Ho560 O580 2.322 . S
Ho560 O582 2.378 . S
Ho560 O583 2.524 . S
Ho560 O584 2.381 . S
Ho560 O585 2.669 . S
Ho560 O587 2.346 . S
Ho560 O591 2.305 . S
Ho561 C572 2.811 . S
Ho561 O581 2.346 . S
Ho561 O585 2.305 . S
Ho561 O586 2.322 . S
Ho561 O588 2.378 . S
Ho561 O589 2.524 . S
Ho561 O590 2.381 . S
Ho561 O591 2.669 . S
C562 O580 1.259 . S
C562 O581 1.268 . S
C563 Ho560 2.811 . S
C563 C564 1.488 . S
C563 O582 1.215 . S
C563 O583 1.289 . S
C564 C563 1.488 . S
C564 C565 1.348 . S
C564 C569 1.413 . S
C565 C564 1.348 . S
C565 C566 1.442 . S
C565 H592 0.930 . S
C566 C565 1.442 . S
C566 C567 1.381 . S
C566 H593 0.931 . S
C567 C566 1.381 . S
C567 C568 1.321 . S
C568 C567 1.321 . S
C568 C569 1.403 . S
C568 H594 0.934 . S
C569 C564 1.413 . S
C569 C568 1.403 . S
C569 H595 0.930 . S
C570 O584 1.275 . S
C570 O585 1.256 . S
C571 O586 1.259 . S
C571 O587 1.268 . S
C572 Ho561 2.811 . S
C572 C573 1.488 . S
C572 O588 1.215 . S
C572 O589 1.289 . S
C573 C572 1.488 . S
C573 C574 1.348 . S
C573 C578 1.413 . S
C574 C573 1.348 . S
C574 C575 1.442 . S
C574 H596 0.930 . S
C575 C574 1.442 . S
C575 C576 1.381 . S
C575 H597 0.931 . S
C576 C575 1.381 . S
C576 C577 1.321 . S
C577 C576 1.321 . S
C577 C578 1.403 . S
C577 H598 0.934 . S
C578 C573 1.413 . S
C578 C577 1.403 . S
C578 H599 0.930 . S
C579 O590 1.275 . S
C579 O591 1.256 . S
O580 Ho560 2.322 . S
O580 C562 1.259 . S
O581 Ho561 2.346 . S
O581 C562 1.268 . S
O582 Ho560 2.378 . S
O582 C563 1.215 . S
O583 Ho560 2.524 . S
O583 C563 1.289 . S
O584 Ho560 2.381 . S
O584 C570 1.275 . S
O585 Ho560 2.669 . S
O585 Ho561 2.305 . S
O585 C570 1.256 . S
O586 Ho561 2.322 . S
O586 C571 1.259 . S
O587 Ho560 2.346 . S
O587 C571 1.268 . S
O588 Ho561 2.378 . S
O588 C572 1.215 . S
O589 Ho561 2.524 . S
O589 C572 1.289 . S
O590 Ho561 2.381 . S
O590 C579 1.275 . S
O591 Ho560 2.305 . S
O591 Ho561 2.669 . S
O591 C579 1.256 . S
H592 C565 0.930 . S
H593 C566 0.931 . S
H594 C568 0.934 . S
H595 C569 0.930 . S
H596 C574 0.930 . S
H597 C575 0.931 . S
H598 C577 0.934 . S
H599 C578 0.930 . S
Ho600 C603 2.811 . S
Ho600 O620 2.322 . S
Ho600 O622 2.378 . S
Ho600 O623 2.524 . S
Ho600 O624 2.381 1_455 S
Ho600 O625 2.669 1_455 S
Ho600 O627 2.346 1_454 S
Ho600 O631 2.305 1_554 S
Ho601 C612 2.811 . S
Ho601 O621 2.346 1_656 S
Ho601 O625 2.305 1_556 S
Ho601 O626 2.322 . S
Ho601 O628 2.378 . S
Ho601 O629 2.524 . S
Ho601 O630 2.381 1_655 S
Ho601 O631 2.669 1_655 S
C602 O620 1.259 . S
C602 O621 1.268 . S
C603 Ho600 2.811 . S
C603 C604 1.488 . S
C603 O622 1.215 . S
C603 O623 1.289 . S
C604 C603 1.488 . S
C604 C605 1.348 . S
C604 C609 1.413 . S
C605 C604 1.348 . S
C605 C606 1.442 . S
C605 H632 0.930 . S
C606 C605 1.442 . S
C606 C607 1.381 . S
C606 H633 0.931 . S
C607 C606 1.381 . S
C607 C608 1.321 . S
C608 C607 1.321 . S
C608 C609 1.403 . S
C608 H634 0.934 . S
C609 C604 1.413 . S
C609 C608 1.403 . S
C609 H635 0.930 . S
C610 O624 1.275 . S
C610 O625 1.256 . S
C611 O626 1.259 . S
C611 O627 1.268 . S
C612 Ho601 2.811 . S
C612 C613 1.488 . S
C612 O628 1.215 . S
C612 O629 1.289 . S
C613 C612 1.488 . S
C613 C614 1.348 . S
C613 C618 1.413 . S
C614 C613 1.348 . S
C614 C615 1.442 . S
C614 H636 0.930 . S
C615 C614 1.442 . S
C615 C616 1.381 . S
C615 H637 0.931 . S
C616 C615 1.381 . S
C616 C617 1.321 . S
C617 C616 1.321 . S
C617 C618 1.403 . S
C617 H638 0.934 . S
C618 C613 1.413 . S
C618 C617 1.403 . S
C618 H639 0.930 . S
C619 O630 1.275 . S
C619 O631 1.256 . S
O620 Ho600 2.322 . S
O620 C602 1.259 . S
O621 Ho601 2.346 1_454 S
O621 C602 1.268 . S
O622 Ho600 2.378 . S
O622 C603 1.215 . S
O623 Ho600 2.524 . S
O623 C603 1.289 . S
O624 Ho600 2.381 1_655 S
O624 C610 1.275 . S
O625 Ho600 2.669 1_655 S
O625 Ho601 2.305 1_554 S
O625 C610 1.256 . S
O626 Ho601 2.322 . S
O626 C611 1.259 . S
O627 Ho600 2.346 1_656 S
O627 C611 1.268 . S
O628 Ho601 2.378 . S
O628 C612 1.215 . S
O629 Ho601 2.524 . S
O629 C612 1.289 . S
O630 Ho601 2.381 1_455 S
O630 C619 1.275 . S
O631 Ho600 2.305 1_556 S
O631 Ho601 2.669 1_455 S
O631 C619 1.256 . S
H632 C605 0.930 . S
H633 C606 0.931 . S
H634 C608 0.934 . S
H635 C609 0.930 . S
H636 C614 0.930 . S
H637 C615 0.931 . S
H638 C617 0.934 . S
H639 C618 0.930 . S
H640 C646 0.930 . S
H641 C649 0.930 . S
H642 C650 0.930 . S
H643 C651 0.930 . S
H644 C654 0.930 . S
H645 C655 0.930 . S
C646 H640 0.930 . S
C646 C647 1.355 . S
C646 C648 1.415 . S
C647 C646 1.355 . S
C647 C649 1.419 . S
C648 C646 1.415 . S
C648 C653 1.425 . S
C648 C655 1.409 . S
C649 H641 0.930 . S
C649 C647 1.419 . S
C649 C650 1.362 . S
C650 H642 0.930 . S
C650 C649 1.362 . S
C650 C653 1.409 . S
C651 H643 0.930 . S
C651 C652 1.355 . S
C651 C653 1.415 . S
C652 C651 1.355 . S
C652 C654 1.419 . S
C653 C648 1.425 . S
C653 C650 1.409 . S
C653 C651 1.415 . S
C654 H644 0.930 . S
C654 C652 1.419 . S
C654 C655 1.362 . S
C655 H645 0.930 . S
C655 C648 1.409 . S
C655 C654 1.362 . S
H656 C662 0.930 . S
H657 C665 0.930 . S
H658 C666 0.930 . S
H659 C667 0.930 . S
H660 C670 0.930 . S
H661 C671 0.930 . S
C662 H656 0.930 . S
C662 C663 1.355 . S
C662 C664 1.415 . S
C663 C662 1.355 . S
C663 C665 1.419 . S
C664 C662 1.415 . S
C664 C669 1.425 . S
C664 C671 1.409 . S
C665 H657 0.930 . S
C665 C663 1.419 . S
C665 C666 1.362 . S
C666 H658 0.930 . S
C666 C665 1.362 . S
C666 C669 1.409 . S
C667 H659 0.930 . S
C667 C668 1.355 . S
C667 C669 1.415 . S
C668 C667 1.355 . S
C668 C670 1.419 . S
C669 C664 1.425 . S
C669 C666 1.409 . S
C669 C667 1.415 . S
C670 H660 0.930 . S
C670 C668 1.419 . S
C670 C671 1.362 . S
C671 H661 0.930 . S
C671 C664 1.409 . S
C671 C670 1.362 . S
H672 C678 0.930 . S
H673 C681 0.930 . S
H674 C682 0.930 . S
H675 C683 0.930 . S
H676 C686 0.930 . S
H677 C687 0.930 . S
C678 H672 0.930 . S
C678 C679 1.355 . S
C678 C680 1.415 . S
C679 C678 1.355 . S
C679 C681 1.419 . S
C680 C678 1.415 . S
C680 C685 1.425 . S
C680 C687 1.409 . S
C681 H673 0.930 . S
C681 C679 1.419 . S
C681 C682 1.362 . S
C682 H674 0.930 . S
C682 C681 1.362 . S
C682 C685 1.409 . S
C683 H675 0.930 . S
C683 C684 1.355 . S
C683 C685 1.415 . S
C684 C683 1.355 . S
C684 C686 1.419 . S
C685 C680 1.425 . S
C685 C682 1.409 . S
C685 C683 1.415 . S
C686 H676 0.930 . S
C686 C684 1.419 . S
C686 C687 1.362 . S
C687 H677 0.930 . S
C687 C680 1.409 . S
C687 C686 1.362 . S
H688 C694 0.930 . S
H689 C697 0.930 . S
H690 C698 0.930 . S
H691 C699 0.930 . S
H692 C702 0.930 . S
H693 C703 0.930 . S
C694 H688 0.930 . S
C694 C695 1.355 . S
C694 C696 1.415 . S
C695 C694 1.355 . S
C695 C697 1.419 . S
C696 C694 1.415 . S
C696 C701 1.425 . S
C696 C703 1.409 . S
C697 H689 0.930 . S
C697 C695 1.419 . S
C697 C698 1.362 . S
C698 H690 0.930 . S
C698 C697 1.362 . S
C698 C701 1.409 . S
C699 H691 0.930 . S
C699 C700 1.355 . S
C699 C701 1.415 . S
C700 C699 1.355 . S
C700 C702 1.419 . S
C701 C696 1.425 . S
C701 C698 1.409 . S
C701 C699 1.415 . S
C702 H692 0.930 . S
C702 C700 1.419 . S
C702 C703 1.362 . S
C703 H693 0.930 . S
C703 C696 1.409 . S
C703 C702 1.362 . S
H704 C710 0.930 . S
H705 C713 0.930 . S
H706 C714 0.930 . S
H707 C715 0.930 . S
H708 C718 0.930 . S
H709 C719 0.930 . S
C710 H704 0.930 . S
C710 C711 1.355 . S
C710 C712 1.415 . S
C711 C710 1.355 . S
C711 C713 1.419 . S
C712 C710 1.415 . S
C712 C717 1.425 . S
C712 C719 1.409 . S
C713 H705 0.930 . S
C713 C711 1.419 . S
C713 C714 1.362 . S
C714 H706 0.930 . S
C714 C713 1.362 . S
C714 C717 1.409 . S
C715 H707 0.930 . S
C715 C716 1.355 . S
C715 C717 1.415 . S
C716 C715 1.355 . S
C716 C718 1.419 . S
C717 C712 1.425 . S
C717 C714 1.409 . S
C717 C715 1.415 . S
C718 H708 0.930 . S
C718 C716 1.419 . S
C718 C719 1.362 . S
C719 H709 0.930 . S
C719 C712 1.409 . S
C719 C718 1.362 . S
H720 C726 0.930 . S
H721 C729 0.930 . S
H722 C730 0.930 . S
H723 C731 0.930 . S
H724 C734 0.930 1_545 S
H725 C735 0.930 . S
C726 H720 0.930 . S
C726 C727 1.355 . S
C726 C728 1.415 . S
C727 C726 1.355 . S
C727 C729 1.419 . S
C728 C726 1.415 . S
C728 C733 1.425 . S
C728 C735 1.409 . S
C729 H721 0.930 . S
C729 C727 1.419 . S
C729 C730 1.362 . S
C730 H722 0.930 . S
C730 C729 1.362 . S
C730 C733 1.409 . S
C731 H723 0.930 . S
C731 C732 1.355 . S
C731 C733 1.415 . S
C732 C731 1.355 . S
C732 C734 1.419 . S
C733 C728 1.425 . S
C733 C730 1.409 . S
C733 C731 1.415 . S
C734 H724 0.930 1_565 S
C734 C732 1.419 . S
C734 C735 1.362 . S
C735 H725 0.930 . S
C735 C728 1.409 . S
C735 C734 1.362 . S
H736 C742 0.930 . S
H737 C745 0.930 . S
H738 C746 0.930 . S
H739 C747 0.930 . S
H740 C750 0.930 . S
H741 C751 0.930 . S
C742 H736 0.930 . S
C742 C743 1.355 . S
C742 C744 1.415 . S
C743 C742 1.355 . S
C743 C745 1.419 . S
C744 C742 1.415 . S
C744 C749 1.425 . S
C744 C751 1.409 . S
C745 H737 0.930 . S
C745 C743 1.419 . S
C745 C746 1.362 . S
C746 H738 0.930 . S
C746 C745 1.362 . S
C746 C749 1.409 . S
C747 H739 0.930 . S
C747 C748 1.355 . S
C747 C749 1.415 . S
C748 C747 1.355 . S
C748 C750 1.419 . S
C749 C744 1.425 . S
C749 C746 1.409 . S
C749 C747 1.415 . S
C750 H740 0.930 . S
C750 C748 1.419 . S
C750 C751 1.362 . S
C751 H741 0.930 . S
C751 C744 1.409 . S
C751 C750 1.362 . S
H752 C758 0.930 . S
H753 C761 0.930 . S
H754 C762 0.930 . S
H755 C763 0.930 . S
H756 C766 0.930 . S
H757 C767 0.930 . S
C758 H752 0.930 . S
C758 C759 1.355 . S
C758 C760 1.415 . S
C759 C758 1.355 . S
C759 C761 1.419 . S
C760 C758 1.415 . S
C760 C765 1.425 . S
C760 C767 1.409 . S
C761 H753 0.930 . S
C761 C759 1.419 . S
C761 C762 1.362 . S
C762 H754 0.930 . S
C762 C761 1.362 . S
C762 C765 1.409 . S
C763 H755 0.930 . S
C763 C764 1.355 . S
C763 C765 1.415 . S
C764 C763 1.355 . S
C764 C766 1.419 . S
C765 C760 1.425 . S
C765 C762 1.409 . S
C765 C763 1.415 . S
C766 H756 0.930 . S
C766 C764 1.419 . S
C766 C767 1.362 . S
C767 H757 0.930 . S
C767 C760 1.409 . S
C767 C766 1.362 . S
H768 C774 0.930 . S
H769 C777 0.930 . S
H770 C778 0.930 . S
H771 C779 0.930 . S
H772 C782 0.930 . S
H773 C783 0.930 . S
C774 H768 0.930 . S
C774 C775 1.355 . S
C774 C776 1.415 . S
C775 C774 1.355 . S
C775 C777 1.419 . S
C776 C774 1.415 . S
C776 C781 1.425 . S
C776 C783 1.409 . S
C777 H769 0.930 . S
C777 C775 1.419 . S
C777 C778 1.362 . S
C778 H770 0.930 . S
C778 C777 1.362 . S
C778 C781 1.409 . S
C779 H771 0.930 . S
C779 C780 1.355 . S
C779 C781 1.415 . S
C780 C779 1.355 . S
C780 C782 1.419 . S
C781 C776 1.425 . S
C781 C778 1.409 . S
C781 C779 1.415 . S
C782 H772 0.930 . S
C782 C780 1.419 . S
C782 C783 1.362 . S
C783 H773 0.930 . S
C783 C776 1.409 . S
C783 C782 1.362 . S
H784 C790 0.930 . S
H785 C793 0.930 . S
H786 C794 0.930 . S
H787 C795 0.930 . S
H788 C798 0.930 . S
H789 C799 0.930 . S
C790 H784 0.930 . S
C790 C791 1.355 . S
C790 C792 1.415 . S
C791 C790 1.355 . S
C791 C793 1.419 . S
C792 C790 1.415 . S
C792 C797 1.425 . S
C792 C799 1.409 . S
C793 H785 0.930 . S
C793 C791 1.419 . S
C793 C794 1.362 . S
C794 H786 0.930 . S
C794 C793 1.362 . S
C794 C797 1.409 . S
C795 H787 0.930 . S
C795 C796 1.355 . S
C795 C797 1.415 . S
C796 C795 1.355 . S
C796 C798 1.419 . S
C797 C792 1.425 . S
C797 C794 1.409 . S
C797 C795 1.415 . S
C798 H788 0.930 . S
C798 C796 1.419 . S
C798 C799 1.362 . S
C799 H789 0.930 . S
C799 C792 1.409 . S
C799 C798 1.362 . S
H800 C806 0.930 . S
H801 C809 0.930 . S
H802 C810 0.930 . S
H803 C811 0.930 . S
H804 C814 0.930 . S
H805 C815 0.930 . S
C806 H800 0.930 . S
C806 C807 1.355 . S
C806 C808 1.415 . S
C807 C806 1.355 . S
C807 C809 1.419 . S
C808 C806 1.415 . S
C808 C813 1.425 . S
C808 C815 1.409 . S
C809 H801 0.930 . S
C809 C807 1.419 . S
C809 C810 1.362 . S
C810 H802 0.930 . S
C810 C809 1.362 . S
C810 C813 1.409 . S
C811 H803 0.930 . S
C811 C812 1.355 . S
C811 C813 1.415 . S
C812 C811 1.355 . S
C812 C814 1.419 . S
C813 C808 1.425 . S
C813 C810 1.409 . S
C813 C811 1.415 . S
C814 H804 0.930 . S
C814 C812 1.419 . S
C814 C815 1.362 . S
C815 H805 0.930 . S
C815 C808 1.409 . S
C815 C814 1.362 . S
H816 C822 0.930 . S
H817 C825 0.930 . S
H818 C826 0.930 . S
H819 C827 0.930 . S
H820 C830 0.930 . S
H821 C831 0.930 . S
C822 H816 0.930 . S
C822 C823 1.355 . S
C822 C824 1.415 . S
C823 C822 1.355 . S
C823 C825 1.419 . S
C824 C822 1.415 . S
C824 C829 1.425 . S
C824 C831 1.409 . S
C825 H817 0.930 . S
C825 C823 1.419 . S
C825 C826 1.362 . S
C826 H818 0.930 . S
C826 C825 1.362 . S
C826 C829 1.409 . S
C827 H819 0.930 . S
C827 C828 1.355 . S
C827 C829 1.415 . S
C828 C827 1.355 . S
C828 C830 1.419 . S
C829 C824 1.425 . S
C829 C826 1.409 . S
C829 C827 1.415 . S
C830 H820 0.930 . S
C830 C828 1.419 . S
C830 C831 1.362 . S
C831 H821 0.930 . S
C831 C824 1.409 . S
C831 C830 1.362 . S
H832 C838 0.930 . S
H833 C841 0.930 . S
H834 C842 0.930 . S
H835 C843 0.930 . S
H836 C846 0.930 . S
H837 C847 0.930 . S
C838 H832 0.930 . S
C838 C839 1.355 . S
C838 C840 1.415 . S
C839 C838 1.355 . S
C839 C841 1.419 . S
C840 C838 1.415 . S
C840 C845 1.425 . S
C840 C847 1.409 . S
C841 H833 0.930 . S
C841 C839 1.419 . S
C841 C842 1.362 . S
C842 H834 0.930 . S
C842 C841 1.362 . S
C842 C845 1.409 . S
C843 H835 0.930 . S
C843 C844 1.355 . S
C843 C845 1.415 . S
C844 C843 1.355 . S
C844 C846 1.419 . S
C845 C840 1.425 . S
C845 C842 1.409 . S
C845 C843 1.415 . S
C846 H836 0.930 . S
C846 C844 1.419 . S
C846 C847 1.362 . S
C847 H837 0.930 . S
C847 C840 1.409 . S
C847 C846 1.362 . S
H848 C854 0.930 . S
H849 C857 0.930 . S
H850 C858 0.930 . S
H851 C859 0.930 . S
H852 C862 0.930 . S
H853 C863 0.930 . S
C854 H848 0.930 . S
C854 C855 1.355 . S
C854 C856 1.415 . S
C855 C854 1.355 . S
C855 C857 1.419 . S
C856 C854 1.415 . S
C856 C861 1.425 . S
C856 C863 1.409 . S
C857 H849 0.930 . S
C857 C855 1.419 . S
C857 C858 1.362 . S
C858 H850 0.930 . S
C858 C857 1.362 . S
C858 C861 1.409 . S
C859 H851 0.930 . S
C859 C860 1.355 . S
C859 C861 1.415 . S
C860 C859 1.355 . S
C860 C862 1.419 . S
C861 C856 1.425 . S
C861 C858 1.409 . S
C861 C859 1.415 . S
C862 H852 0.930 . S
C862 C860 1.419 . S
C862 C863 1.362 . S
C863 H853 0.930 . S
C863 C856 1.409 . S
C863 C862 1.362 . S
H864 C870 0.930 . S
H865 C873 0.930 . S
H866 C874 0.930 . S
H867 C875 0.930 . S
H868 C878 0.930 . S
H869 C879 0.930 . S
C870 H864 0.930 . S
C870 C871 1.355 . S
C870 C872 1.415 . S
C871 C870 1.355 . S
C871 C873 1.419 . S
C872 C870 1.415 . S
C872 C877 1.425 . S
C872 C879 1.409 . S
C873 H865 0.930 . S
C873 C871 1.419 . S
C873 C874 1.362 . S
C874 H866 0.930 . S
C874 C873 1.362 . S
C874 C877 1.409 . S
C875 H867 0.930 . S
C875 C876 1.355 . S
C875 C877 1.415 . S
C876 C875 1.355 . S
C876 C878 1.419 . S
C877 C872 1.425 . S
C877 C874 1.409 . S
C877 C875 1.415 . S
C878 H868 0.930 . S
C878 C876 1.419 . S
C878 C879 1.362 . S
C879 H869 0.930 . S
C879 C872 1.409 . S
C879 C878 1.362 . S
H880 C886 0.930 . S
H881 C889 0.930 . S
H882 C890 0.930 . S
H883 C891 0.930 . S
H884 C894 0.930 . S
H885 C895 0.930 . S
C886 H880 0.930 . S
C886 C887 1.355 . S
C886 C888 1.415 . S
C887 C886 1.355 . S
C887 C889 1.419 . S
C888 C886 1.415 . S
C888 C893 1.425 . S
C888 C895 1.409 . S
C889 H881 0.930 . S
C889 C887 1.419 . S
C889 C890 1.362 . S
C890 H882 0.930 . S
C890 C889 1.362 . S
C890 C893 1.409 . S
C891 H883 0.930 . S
C891 C892 1.355 . S
C891 C893 1.415 . S
C892 C891 1.355 . S
C892 C894 1.419 . S
C893 C888 1.425 . S
C893 C890 1.409 . S
C893 C891 1.415 . S
C894 H884 0.930 . S
C894 C892 1.419 . S
C894 C895 1.362 . S
C895 H885 0.930 . S
C895 C888 1.409 . S
C895 C894 1.362 . S
H896 C902 0.930 . S
H897 C905 0.930 . S
H898 C906 0.930 . S
H899 C907 0.930 . S
H900 C910 0.930 . S
H901 C911 0.930 . S
C902 H896 0.930 . S
C902 C903 1.355 . S
C902 C904 1.415 . S
C903 C902 1.355 . S
C903 C905 1.419 . S
C904 C902 1.415 . S
C904 C909 1.425 . S
C904 C911 1.409 . S
C905 H897 0.930 . S
C905 C903 1.419 . S
C905 C906 1.362 . S
C906 H898 0.930 . S
C906 C905 1.362 . S
C906 C909 1.409 . S
C907 H899 0.930 . S
C907 C908 1.355 . S
C907 C909 1.415 . S
C908 C907 1.355 . S
C908 C910 1.419 . S
C909 C904 1.425 . S
C909 C906 1.409 . S
C909 C907 1.415 . S
C910 H900 0.930 . S
C910 C908 1.419 . S
C910 C911 1.362 . S
C911 H901 0.930 . S
C911 C904 1.409 . S
C911 C910 1.362 . S
H912 C918 0.930 . S
H913 C921 0.930 . S
H914 C922 0.930 . S
H915 C923 0.930 . S
H916 C926 0.930 . S
H917 C927 0.930 . S
C918 H912 0.930 . S
C918 C919 1.355 . S
C918 C920 1.415 . S
C919 C918 1.355 . S
C919 C921 1.419 . S
C920 C918 1.415 . S
C920 C925 1.425 . S
C920 C927 1.409 . S
C921 H913 0.930 . S
C921 C919 1.419 . S
C921 C922 1.362 . S
C922 H914 0.930 . S
C922 C921 1.362 . S
C922 C925 1.409 . S
C923 H915 0.930 . S
C923 C924 1.355 . S
C923 C925 1.415 . S
C924 C923 1.355 . S
C924 C926 1.419 . S
C925 C920 1.425 . S
C925 C922 1.409 . S
C925 C923 1.415 . S
C926 H916 0.930 . S
C926 C924 1.419 . S
C926 C927 1.362 . S
C927 H917 0.930 . S
C927 C920 1.409 . S
C927 C926 1.362 . S
H928 C934 0.930 . S
H929 C937 0.930 . S
H930 C938 0.930 . S
H931 C939 0.930 . S
H932 C942 0.930 1_556 S
H933 C943 0.930 . S
C934 H928 0.930 . S
C934 C935 1.355 . S
C934 C936 1.415 . S
C935 C934 1.355 . S
C935 C937 1.419 . S
C936 C934 1.415 . S
C936 C941 1.425 . S
C936 C943 1.409 . S
C937 H929 0.930 . S
C937 C935 1.419 . S
C937 C938 1.362 . S
C938 H930 0.930 . S
C938 C937 1.362 . S
C938 C941 1.409 . S
C939 H931 0.930 . S
C939 C940 1.355 . S
C939 C941 1.415 . S
C940 C939 1.355 . S
C940 C942 1.419 . S
C941 C936 1.425 . S
C941 C938 1.409 . S
C941 C939 1.415 . S
C942 H932 0.930 1_554 S
C942 C940 1.419 . S
C942 C943 1.362 . S
C943 H933 0.930 . S
C943 C936 1.409 . S
C943 C942 1.362 . S
H944 C950 0.930 . S
H945 C953 0.930 . S
H946 C954 0.930 . S
H947 C955 0.930 . S
H948 C958 0.930 . S
H949 C959 0.930 . S
C950 H944 0.930 . S
C950 C951 1.355 . S
C950 C952 1.415 . S
C951 C950 1.355 . S
C951 C953 1.419 . S
C952 C950 1.415 . S
C952 C957 1.425 . S
C952 C959 1.409 . S
C953 H945 0.930 . S
C953 C951 1.419 . S
C953 C954 1.362 . S
C954 H946 0.930 . S
C954 C953 1.362 . S
C954 C957 1.409 . S
C955 H947 0.930 . S
C955 C956 1.355 . S
C955 C957 1.415 . S
C956 C955 1.355 . S
C956 C958 1.419 . S
C957 C952 1.425 . S
C957 C954 1.409 . S
C957 C955 1.415 . S
C958 H948 0.930 . S
C958 C956 1.419 . S
C958 C959 1.362 . S
C959 H949 0.930 . S
C959 C952 1.409 . S
C959 C958 1.362 . S
H960 C966 0.930 . S
H961 C969 0.930 . S
H962 C970 0.930 . S
H963 C971 0.930 . S
H964 C974 0.930 . S
H965 C975 0.930 . S
C966 H960 0.930 . S
C966 C967 1.355 . S
C966 C968 1.415 . S
C967 C966 1.355 . S
C967 C969 1.419 . S
C968 C966 1.415 . S
C968 C973 1.425 . S
C968 C975 1.409 . S
C969 H961 0.930 . S
C969 C967 1.419 . S
C969 C970 1.362 . S
C970 H962 0.930 . S
C970 C969 1.362 . S
C970 C973 1.409 . S
C971 H963 0.930 . S
C971 C972 1.355 . S
C971 C973 1.415 . S
C972 C971 1.355 . S
C972 C974 1.419 . S
C973 C968 1.425 . S
C973 C970 1.409 . S
C973 C971 1.415 . S
C974 H964 0.930 . S
C974 C972 1.419 . S
C974 C975 1.362 . S
C975 H965 0.930 . S
C975 C968 1.409 . S
C975 C974 1.362 . S
H976 C982 0.930 . S
H977 C985 0.930 . S
H978 C986 0.930 . S
H979 C987 0.930 . S
H980 C990 0.930 . S
H981 C991 0.930 . S
C982 H976 0.930 . S
C982 C983 1.355 . S
C982 C984 1.415 . S
C983 C982 1.355 . S
C983 C985 1.419 . S
C984 C982 1.415 . S
C984 C989 1.425 . S
C984 C991 1.409 . S
C985 H977 0.930 . S
C985 C983 1.419 . S
C985 C986 1.362 . S
C986 H978 0.930 . S
C986 C985 1.362 . S
C986 C989 1.409 . S
C987 H979 0.930 . S
C987 C988 1.355 . S
C987 C989 1.415 . S
C988 C987 1.355 . S
C988 C990 1.419 . S
C989 C984 1.425 . S
C989 C986 1.409 . S
C989 C987 1.415 . S
C990 H980 0.930 . S
C990 C988 1.419 . S
C990 C991 1.362 . S
C991 H981 0.930 . S
C991 C984 1.409 . S
C991 C990 1.362 . S
H992 C998 0.930 . S
H993 C1001 0.930 . S
H994 C1002 0.930 . S
H995 C1003 0.930 . S
H996 C1006 0.930 . S
H997 C1007 0.930 . S
C998 H992 0.930 . S
C998 C999 1.355 . S
C998 C1000 1.415 . S
C999 C998 1.355 . S
C999 C1001 1.419 . S
C1000 C998 1.415 . S
C1000 C1005 1.425 . S
C1000 C1007 1.409 . S
C1001 H993 0.930 . S
C1001 C999 1.419 . S
C1001 C1002 1.362 . S
C1002 H994 0.930 . S
C1002 C1001 1.362 . S
C1002 C1005 1.409 . S
C1003 H995 0.930 . S
C1003 C1004 1.355 . S
C1003 C1005 1.415 . S
C1004 C1003 1.355 . S
C1004 C1006 1.419 . S
C1005 C1000 1.425 . S
C1005 C1002 1.409 . S
C1005 C1003 1.415 . S
C1006 H996 0.930 . S
C1006 C1004 1.419 . S
C1006 C1007 1.362 . S
C1007 H997 0.930 . S
C1007 C1000 1.409 . S
C1007 C1006 1.362 . S
H1008 C1014 0.930 . S
H1009 C1017 0.930 . S
H1010 C1018 0.930 . S
H1011 C1019 0.930 . S
H1012 C1022 0.930 . S
H1013 C1023 0.930 . S
C1014 H1008 0.930 . S
C1014 C1015 1.355 . S
C1014 C1016 1.415 . S
C1015 C1014 1.355 . S
C1015 C1017 1.419 . S
C1016 C1014 1.415 . S
C1016 C1021 1.425 . S
C1016 C1023 1.409 . S
C1017 H1009 0.930 . S
C1017 C1015 1.419 . S
C1017 C1018 1.362 . S
C1018 H1010 0.930 . S
C1018 C1017 1.362 . S
C1018 C1021 1.409 . S
C1019 H1011 0.930 . S
C1019 C1020 1.355 . S
C1019 C1021 1.415 . S
C1020 C1019 1.355 . S
C1020 C1022 1.419 . S
C1021 C1016 1.425 . S
C1021 C1018 1.409 . S
C1021 C1019 1.415 . S
C1022 H1012 0.930 . S
C1022 C1020 1.419 . S
C1022 C1023 1.362 . S
C1023 H1013 0.930 . S
C1023 C1016 1.409 . S
C1023 C1022 1.362 . S
C647 C1 1.199 . S
C652 C487 1.319 . S
C663 C80 0.944 . S
C668 C536 1.000 . S
C684 C562 2.468 . S
C679 C140 2.455 . S
C695 C211 2.390 . S
C700 C610 2.362 . S
C716 C522 2.526 . S
C711 C31 2.192 . S
C732 C490 0.803 . S
C727 C61 0.836 . S
C748 C611 1.920 . S
C743 C151 1.908 . S
C764 C579 1.636 . S
C759 C200 1.620 . S
C775 C20 1.658 . S
C780 C607 1.776 . S
C796 C539 2.352 . S
C791 C121 2.390 . S
C807 C181 2.299 . S
C812 C491 2.326 . S
C823 C91 0.939 . S
C828 C576 0.928 . S
C844 C496 1.306 . S
C839 C260 1.267 . S
C855 C320 0.896 . S
C860 C527 0.962 . S
C871 C361 2.471 . S
C876 C571 2.459 . S
C887 C451 2.378 . S
C892 C619 2.370 . S
C903 C271 2.345 . S
C908 C531 2.534 . S
C924 C499 0.837 . S
C919 C301 0.794 . S
C940 C602 1.928 . S
C935 C380 1.926 . S
C956 C570 1.643 . S
C951 C440 1.659 . S
C967 C241 1.550 . S
C972 C616 1.760 . S
C988 C530 2.353 . S
C983 C391 2.386 . S
C1004 C482 2.343 . S
C999 C421 2.286 . S
C1015 C331 0.974 . S
C1020 C567 0.940 . S
