# Generated by pormake.
# Topology tsx, (6,3)-cn, num edge types: 1
# Building blocks:
#     Node 0, Type 0, BuildingBlock: CIFDUS_clean_sbu_1, # of connection points: 6
#     Node 1, Type 0, BuildingBlock: CIFDUS_clean_sbu_1, # of connection points: 6
#     Node 2, Type 1, BuildingBlock: CUQRIR_clean_linker_1, # of connection points: 3
#     Node 3, Type 1, BuildingBlock: CUQRIR_clean_linker_1, # of connection points: 3
#     Node 4, Type 1, BuildingBlock: CUQRIR_clean_linker_1, # of connection points: 3
#     Node 5, Type 1, BuildingBlock: CUQRIR_clean_linker_1, # of connection points: 3
#     Edge 6, Type (0, 1), BuildingBlock: FUNLAD_clean_linker_0, # of connection points: 2
#     Edge 7, Type (0, 1), BuildingBlock: FUNLAD_clean_linker_0, # of connection points: 2
#     Edge 8, Type (0, 1), BuildingBlock: FUNLAD_clean_linker_0, # of connection points: 2
#     Edge 9, Type (0, 1), BuildingBlock: FUNLAD_clean_linker_0, # of connection points: 2
#     Edge 10, Type (0, 1), BuildingBlock: FUNLAD_clean_linker_0, # of connection points: 2
#     Edge 11, Type (0, 1), BuildingBlock: FUNLAD_clean_linker_0, # of connection points: 2
#     Edge 12, Type (0, 1), BuildingBlock: FUNLAD_clean_linker_0, # of connection points: 2
#     Edge 13, Type (0, 1), BuildingBlock: FUNLAD_clean_linker_0, # of connection points: 2
#     Edge 14, Type (0, 1), BuildingBlock: FUNLAD_clean_linker_0, # of connection points: 2
#     Edge 15, Type (0, 1), BuildingBlock: FUNLAD_clean_linker_0, # of connection points: 2
#     Edge 16, Type (0, 1), BuildingBlock: FUNLAD_clean_linker_0, # of connection points: 2
#     Edge 17, Type (0, 1), BuildingBlock: FUNLAD_clean_linker_0, # of connection points: 2
# Relax obj value: 0.156
# Max RMSD: 0.176
# Mean RMSD: 0.161
data_MOF--net-tsx--node1-CIFDUS_clean_sbu_1--node2-CUQRIR_clean_linker_1--edge1-FUNLAD_clean_linker_0
_symmetry_space_group_name_H-M    P1
_symmetry_Int_Tables_number       1
_symmetry_cell_setting            triclinic
loop_
_symmetry_equiv_pos_as_xyz
'x, y, z'
_cell_length_a     20.232153
_cell_length_b     24.368404
_cell_length_c     38.574781
_cell_angle_alpha  86.790549
_cell_angle_beta   91.310776
_cell_angle_gamma 91.303916
loop_
_atom_site_label
_atom_site_type_symbol
_atom_site_fract_x
_atom_site_fract_y
_atom_site_fract_z
_atom_type_partial_charge
O0 O 1.00604 0.11267 -0.00467 0.0
Mn1 Mn 0.06544 0.04332 -0.00905 0.0
O2 O 0.91272 0.09333 0.96569 0.0
Mn3 Mn 0.94144 0.02757 0.95138 0.0
O4 O 0.12364 0.97329 0.98522 0.0
O5 O 0.14455 0.0953 -0.00168 0.0
Mn6 Mn 0.20496 0.05413 0.02007 0.0
O7 O 0.0616 0.02608 0.0446 0.0
O8 O 0.22876 1.00061 -0.00846 0.0
O9 O 0.07688 0.06162 0.93725 0.0
O10 O 0.98657 0.02988 0.9108 0.0
O11 O 0.24397 0.1221 0.01533 0.0
O12 O 0.16875 0.02975 0.0621 0.0
C13 C 0.93256 0.95613 0.98213 0.0
C14 C 0.94767 0.12497 0.98397 0.0
C15 C 0.18587 0.96538 0.98233 0.0
C16 C 0.18768 0.13548 0.00104 0.0
C17 C 0.10749 0.02099 0.06823 0.0
C18 C 0.04465 0.04989 0.90956 0.0
O19 O 0.98405 0.98985 0.98558 0.0
O20 O 0.88789 0.96946 0.95871 0.0
O21 O 0.51013 0.61356 0.49091 0.0
Mn22 Mn 0.57032 0.54394 0.49099 0.0
O23 O 0.41714 0.5909 0.46127 0.0
Mn24 Mn 0.4438 0.52266 0.44947 0.0
O25 O 0.63136 0.47314 0.48918 0.0
O26 O 0.65204 0.5952 0.4969 0.0
Mn27 Mn 0.70112 0.55317 0.52652 0.0
O28 O 0.55627 0.53171 0.54434 0.0
O29 O 0.73494 0.50435 0.49803 0.0
O30 O 0.58467 0.55512 0.4369 0.0
O31 O 0.49459 0.51973 0.41087 0.0
O32 O 0.72586 0.62294 0.53492 0.0
O33 O 0.65891 0.51936 0.5643 0.0
C34 C 0.44061 0.45641 0.48661 0.0
C35 C 0.45175 0.6243 0.47868 0.0
C36 C 0.69481 0.46766 0.48749 0.0
C37 C 0.67784 0.63617 0.51355 0.0
C38 C 0.59713 0.51755 0.56878 0.0
C39 C 0.5534 0.53877 0.40982 0.0
O40 O 0.4888 0.49308 0.48542 0.0
O41 O 0.39447 0.46257 0.463 0.0
C42 C 0.02755 0.01391 0.43397 0.0
N43 N 0.0619 0.98726 0.41064 0.0
N44 N 0.97929 0.04417 0.41781 0.0
C45 C 0.04146 0.01033 0.47231 0.0
C46 C 0.98597 0.03516 0.38384 0.0
N47 N 0.03548 0.99995 0.3795 0.0
C48 C 0.94697 0.06432 0.35492 0.0
H49 H 0.99647 0.01938 0.48645 0.0
H50 H 0.0814 0.04038 0.47846 0.0
H51 H 0.0586 0.96872 0.48091 0.0
H52 H 0.94595 0.10898 0.35904 0.0
H53 H 0.89513 0.04849 0.35543 0.0
H54 H 0.96756 0.05861 0.32903 0.0
C55 C 0.99677 0.09891 0.55253 0.0
N56 N 0.03402 0.12192 0.57764 0.0
N57 N 0.96116 0.05507 0.56585 0.0
C58 C 0.99092 0.12287 0.51612 0.0
C59 C 0.97728 0.05337 0.60015 0.0
N60 N 0.02154 0.09392 0.60727 0.0
C61 C 0.94687 0.01384 0.62689 0.0
H62 H 0.98057 0.16736 0.51649 0.0
H63 H 0.95049 0.10229 0.50181 0.0
H64 H 0.03857 0.1193 0.50292 0.0
H65 H 0.94611 0.9715 0.61775 0.0
H66 H 0.89488 0.02541 0.63063 0.0
H67 H 0.97418 0.01431 0.65215 0.0
C68 C 0.55622 0.53384 0.93051 0.0
N69 N 0.57968 0.49914 0.90777 0.0
N70 N 0.50232 0.5599 0.91691 0.0
C71 C 0.5859 0.54246 0.96588 0.0
C72 C 0.49431 0.54014 0.88495 0.0
N73 N 0.5409 0.50266 0.87948 0.0
C74 C 0.44632 0.56252 0.85751 0.0
H75 H 0.54613 0.54598 0.98467 0.0
H76 H 0.61546 0.58139 0.96499 0.0
H77 H 0.61834 0.50827 0.97496 0.0
H78 H 0.4263 0.60252 0.86406 0.0
H79 H 0.40455 0.53264 0.85489 0.0
H80 H 0.47055 0.56805 0.832 0.0
C81 C 0.48642 0.59349 0.05658 0.0
N82 N 0.53206 0.613 0.07946 0.0
N83 N 0.45253 0.54942 0.07083 0.0
C84 C 0.47349 0.61803 0.02067 0.0
C85 C 0.47905 0.54282 0.10325 0.0
N86 N 0.52745 0.58104 0.1084 0.0
C87 C 0.45832 0.49811 0.12952 0.0
H88 H 0.44209 0.65446 0.02233 0.0
H89 H 0.44661 0.58857 0.00438 0.0
H90 H 0.52055 0.63169 0.00845 0.0
H91 H 0.48288 0.45952 0.12374 0.0
H92 H 0.40415 0.49054 0.12789 0.0
H93 H 0.47207 0.50862 0.15638 0.0
C94 C 0.21547 0.22473 0.9714 0.0
C95 C 0.17464 0.1944 -0.00529 0.0
C96 C 0.23124 0.28004 0.97631 0.0
C97 C 0.20761 0.30587 0.00524 0.0
C98 C 0.1604 0.27727 0.02601 0.0
C99 C 0.14413 0.22197 0.02083 0.0
C100 C 0.23544 0.35982 0.0164 0.0
C101 C 0.29735 0.37804 0.00853 0.0
C102 C 0.33309 0.4263 0.02331 0.0
C103 C 0.39932 0.43629 0.01396 0.0
C104 C 0.43763 0.47747 0.02897 0.0
C105 C 0.41065 0.51042 0.05339 0.0
H106 H 0.25489 0.45486 0.05539 0.0
C107 C 0.34409 0.5021 0.0622 0.0
C108 C 0.30551 0.46043 0.04736 0.0
H109 H 0.3225 0.5272 0.08109 0.0
H110 H 0.24038 0.20425 0.95134 0.0
H111 H 0.26506 0.30114 0.95852 0.0
H112 H 0.14034 0.29618 0.04814 0.0
H113 H 0.11372 0.19924 0.03969 0.0
H114 H 0.20662 0.38161 0.03433 0.0
H115 H 0.32636 0.35398 -0.00813 0.0
H116 H 0.42237 0.41102 -0.00438 0.0
H117 H 0.48915 0.48255 0.02236 0.0
C118 C 0.27572 0.91012 0.95965 0.0
C119 C 0.2106 0.91236 0.97138 0.0
C120 C 0.30373 0.86005 0.95332 0.0
C121 C 0.26767 0.81047 0.95894 0.0
C122 C 0.20141 0.81272 0.96903 0.0
C123 C 0.17305 0.86324 0.97527 0.0
C124 C 0.29781 0.75644 0.95341 0.0
C125 C 0.36347 0.74821 0.95743 0.0
C126 C 0.39777 0.6973 0.94895 0.0
C127 C 0.46677 0.70028 0.94505 0.0
C128 C 0.5014 0.65464 0.93562 0.0
C129 C 0.46788 0.60487 0.93024 0.0
H130 H 0.31173 0.64199 0.94776 0.0
C131 C 0.39929 0.60107 0.93481 0.0
C132 C 0.36443 0.64675 0.94426 0.0
H133 H 0.37281 0.56281 0.93064 0.0
H134 H 0.30569 0.94728 0.95576 0.0
H135 H 0.35371 0.8606 0.94389 0.0
H136 H 0.17208 0.77523 0.97296 0.0
H137 H 0.12277 0.86362 0.98432 0.0
H138 H 0.26482 0.72341 0.9457 0.0
H139 H 0.39498 0.7815 0.96631 0.0
H140 H 0.49396 0.73844 0.94862 0.0
H141 H 0.55414 0.65851 0.93165 0.0
C142 C 0.89303 0.86 0.98472 0.0
C143 C 0.92043 0.904 0.00276 0.0
C144 C 0.85541 0.81859 0.00177 0.0
C145 C 0.84495 0.8195 0.03754 0.0
C146 C 0.87829 0.85999 0.05643 0.0
C147 C 0.91533 0.90248 0.03908 0.0
C148 C 0.79616 0.78032 0.05443 0.0
C149 C 0.73597 0.77147 0.03954 0.0
C150 C 0.6843 0.7324 0.05376 0.0
C151 C 0.61737 0.74407 0.04694 0.0
C152 C 0.56736 0.70603 0.05668 0.0
C153 C 0.58314 0.65456 0.07248 0.0
H154 H 0.75125 0.67088 0.07575 0.0
C155 C 0.65006 0.64305 0.07978 0.0
C156 C 0.70016 0.68173 0.07081 0.0
H157 H 0.66378 0.60332 0.09133 0.0
H158 H 0.89579 0.86022 0.95667 0.0
H159 H 0.83183 0.78721 0.98662 0.0
H160 H 0.8716 0.86113 0.08415 0.0
H161 H 0.93475 0.93632 0.05356 0.0
H162 H 0.8083 0.76113 0.07979 0.0
H163 H 0.72275 0.7955 0.01588 0.0
H164 H 0.6037 0.78268 0.0337 0.0
H165 H 0.51633 0.7165 0.05132 0.0
C166 C 0.94161 0.22601 0.97146 0.0
C167 C 0.91849 0.17831 -0.0102 0.0
C168 C 0.90063 0.27157 0.96594 0.0
C169 C 0.83576 0.26995 0.97882 0.0
C170 C 0.81559 0.22385 -0.00023 0.0
C171 C 0.85615 0.17841 0.00492 0.0
C172 C 0.78523 0.31229 0.96916 0.0
C173 C 0.79279 0.35426 0.94514 0.0
C174 C 0.73737 0.39096 0.93414 0.0
C175 C 0.75045 0.44698 0.92591 0.0
C176 C 0.69879 0.48245 0.91643 0.0
C177 C 0.63356 0.46211 0.91395 0.0
H178 H 0.66028 0.32734 0.93609 0.0
C179 C 0.62053 0.40592 0.92076 0.0
C180 C 0.67188 0.37057 0.93092 0.0
H181 H 0.57028 0.38983 0.91915 0.0
H182 H 0.98901 0.22636 0.95891 0.0
H183 H 0.91912 0.30643 0.95024 0.0
H184 H 0.7664 0.22132 0.01036 0.0
H185 H 0.83675 0.14165 0.01858 0.0
H186 H 0.73754 0.3069 0.98148 0.0
H187 H 0.84023 0.36294 0.93332 0.0
H188 H 0.80046 0.46358 0.92776 0.0
H189 H 0.70935 0.52589 0.91145 0.0
C190 C 0.66277 0.73528 0.5203 0.0
C191 C 0.68165 0.69355 0.49909 0.0
C192 C 0.69477 0.78709 0.51834 0.0
C193 C 0.74713 0.79805 0.49528 0.0
C194 C 0.76154 0.75795 0.47187 0.0
C195 C 0.72876 0.70651 0.47352 0.0
C196 C 0.79401 0.8461 0.49871 0.0
C197 C 0.77919 0.89298 0.51373 0.0
C198 C 0.82968 0.93615 0.5226 0.0
C199 C 0.81017 0.99088 0.52501 0.0
C200 C 0.85436 0.03083 0.53751 0.0
C201 C 0.91863 0.0166 0.54835 0.0
H202 H 0.9118 0.88082 0.53171 0.0
C203 C 0.93887 0.96242 0.54522 0.0
C204 C 0.89514 0.92264 0.53232 0.0
H205 H 0.98815 0.95066 0.5538 0.0
H206 H 0.62832 0.72596 0.54102 0.0
H207 H 0.68253 0.81624 0.53721 0.0
H208 H 0.80169 0.76487 0.45393 0.0
H209 H 0.74613 0.67471 0.45764 0.0
H210 H 0.8438 0.84165 0.48942 0.0
H211 H 0.72831 0.90005 0.52031 0.0
H212 H 0.76006 1.00249 0.51796 0.0
H213 H 0.83773 0.07232 0.54 0.0
C214 C 0.69119 0.36479 0.47898 0.0
C215 C 0.72471 0.41612 0.47688 0.0
C216 C 0.7253 0.31615 0.47374 0.0
C217 C 0.79339 0.3184 0.46632 0.0
C218 C 0.82538 0.36994 0.46289 0.0
C219 C 0.7917 0.41788 0.46784 0.0
C220 C 0.83506 0.26923 0.46322 0.0
C221 C 0.81301 0.21858 0.45557 0.0
C222 C 0.85883 0.17313 0.44868 0.0
C223 C 0.83526 0.11825 0.45082 0.0
C224 C 0.87576 0.07527 0.44213 0.0
C225 C 0.94063 0.08646 0.43136 0.0
H226 H 0.94437 0.22508 0.43431 0.0
C227 C 0.96466 0.1408 0.42949 0.0
C228 C 0.92434 0.18372 0.43782 0.0
H229 H 0.01411 0.15004 0.42035 0.0
H230 H 0.6397 0.36201 0.4861 0.0
H231 H 0.69894 0.27714 0.47684 0.0
H232 H 0.87744 0.37327 0.45686 0.0
H233 H 0.81916 0.45656 0.46553 0.0
H234 H 0.88789 0.27643 0.46646 0.0
H235 H 0.76022 0.21018 0.45336 0.0
H236 H 0.78508 0.10868 0.45871 0.0
H237 H 0.85621 0.0335 0.44307 0.0
C238 C 0.38634 0.42069 0.53984 0.0
C239 C 0.43132 0.41204 0.51358 0.0
C240 C 0.34788 0.37693 0.55423 0.0
C241 C 0.35372 0.32359 0.5425 0.0
C242 C 0.40414 0.3141 0.51922 0.0
C243 C 0.44213 0.35798 0.50465 0.0
C244 C 0.30568 0.27798 0.55195 0.0
C245 C 0.24131 0.28657 0.55844 0.0
C246 C 0.18906 0.24244 0.56385 0.0
C247 C 0.1233 0.25824 0.56837 0.0
C248 C 0.07218 0.21885 0.57283 0.0
C249 C 0.08578 0.16287 0.57285 0.0
H250 H 0.25133 0.17093 0.56084 0.0
C251 C 0.15086 0.14657 0.56847 0.0
C252 C 0.20211 0.18576 0.56406 0.0
H253 H 0.16182 0.10327 0.56851 0.0
H254 H 0.37587 0.46213 0.54662 0.0
H255 H 0.3113 0.38559 0.5731 0.0
H256 H 0.41047 0.27338 0.51002 0.0
H257 H 0.47498 0.35032 0.48373 0.0
H258 H 0.32303 0.23655 0.55015 0.0
H259 H 0.22468 0.32866 0.55815 0.0
H260 H 0.11127 0.30134 0.56834 0.0
H261 H 0.02207 0.23192 0.57627 0.0
C262 C 0.4377 0.72416 0.46384 0.0
C263 C 0.42052 0.67687 0.48435 0.0
C264 C 0.39396 0.76808 0.45973 0.0
C265 C 0.33227 0.76524 0.47624 0.0
C266 C 0.31815 0.71953 0.49891 0.0
C267 C 0.36149 0.67573 0.50273 0.0
C268 C 0.27816 0.80493 0.46795 0.0
C269 C 0.28417 0.85201 0.44805 0.0
C270 C 0.22621 0.88641 0.43779 0.0
C271 C 0.23453 0.94376 0.43341 0.0
C272 C 0.18063 0.97689 0.42401 0.0
C273 C 0.11803 0.95309 0.41792 0.0
H274 H 0.15536 0.81859 0.43327 0.0
C275 C 0.1097 0.89589 0.42128 0.0
C276 C 0.16325 0.86272 0.43118 0.0
H277 H 0.06146 0.87715 0.41675 0.0
H278 H 0.48224 0.72523 0.44872 0.0
H279 H 0.40717 0.80212 0.44191 0.0
H280 H 0.27138 0.716 0.51209 0.0
H281 H 0.34659 0.63914 0.51812 0.0
H282 H 0.2298 0.79376 0.47822 0.0
H283 H 0.33238 0.86687 0.43957 0.0
H284 H 0.2825 0.96302 0.43796 0.0
H285 H 0.18746 0.02113 0.42168 0.0
C286 C 0.13931 0.98219 0.12718 0.0
C287 C 0.09058 0.00533 0.10462 0.0
C288 C 0.12737 0.97206 0.16241 0.0
C289 C 0.06651 0.98554 0.17618 0.0
C290 C 0.01659 0.00632 0.15339 0.0
C291 C 0.02843 0.01611 0.11787 0.0
C292 C 0.05375 0.97851 0.21403 0.0
C293 C 0.10227 0.97836 0.2387 0.0
C294 C 0.08891 0.97606 0.27647 0.0
C295 C 0.13361 1.0021 0.29904 0.0
C296 C 0.11854 0.00635 0.33398 0.0
C297 C 0.05902 0.98399 0.34685 0.0
H298 H 0.99739 0.92783 0.27394 0.0
C299 C 0.01691 0.95419 0.32514 0.0
C300 C 0.03169 0.95007 0.29022 0.0
H301 H 0.97075 0.93682 0.33487 0.0
H302 H 0.18731 0.97226 0.11765 0.0
H303 H 0.16616 0.95372 0.17864 0.0
H304 H 0.96889 0.0164 0.16322 0.0
H305 H 0.98988 0.03383 0.10112 0.0
H306 H 1.00243 0.97741 0.22175 0.0
H307 H 0.15334 0.98509 0.23124 0.0
H308 H 0.17849 0.0218 0.28921 0.0
H309 H 0.1511 0.03002 0.3504 0.0
C310 C 0.0427 0.03739 0.84616 0.0
C311 C 0.07215 0.06259 0.87472 0.0
C312 C 0.05974 0.05413 0.8125 0.0
C313 C 0.10677 0.09648 0.80637 0.0
C314 C 0.14011 0.11925 0.83468 0.0
C315 C 0.12267 0.10252 0.86882 0.0
C316 C 0.11765 0.1172 0.77012 0.0
C317 C 0.06477 0.13141 0.75 0.0
C318 C 0.06147 0.13286 0.71143 0.0
C319 C 1.00021 0.14502 0.69522 0.0
C320 C 0.98852 0.13479 0.66044 0.0
C321 C 0.03794 0.11257 0.64107 0.0
H322 H 0.16063 0.10438 0.70245 0.0
C323 C 0.10085 0.1043 0.65608 0.0
C324 C 0.11273 0.1143 0.69114 0.0
H325 H 0.13943 0.08729 0.64121 0.0
H326 H 1.00465 0.00569 0.84972 0.0
H327 H 0.03468 0.0349 0.79104 0.0
H328 H 0.17718 0.15154 0.83041 0.0
H329 H 0.14642 0.12245 0.89035 0.0
H330 H 0.16681 0.11526 0.75971 0.0
H331 H 0.01792 0.13559 0.76287 0.0
H332 H 0.95976 0.15933 0.71004 0.0
H333 H 0.93981 0.14159 0.64897 0.0
C334 C 0.61614 0.46772 0.62597 0.0
C335 C 0.57446 0.50014 0.60399 0.0
C336 C 0.60158 0.45708 0.66083 0.0
C337 C 0.54531 0.47931 0.67488 0.0
C338 C 0.50102 0.50851 0.65244 0.0
C339 C 0.51544 0.5189 0.6172 0.0
C340 C 0.53331 0.47405 0.71289 0.0
C341 C 0.58336 0.47054 0.73667 0.0
C342 C 0.57414 0.47127 0.77472 0.0
C343 C 0.62504 0.49367 0.7953 0.0
C344 C 0.61604 0.5001 0.83062 0.0
C345 C 0.55638 0.48343 0.84611 0.0
H346 H 0.47667 0.43206 0.77594 0.0
C347 C 0.5074 0.45714 0.82625 0.0
C348 C 0.516 0.45123 0.79077 0.0
H349 H 0.4611 0.4439 0.83789 0.0
H350 H 0.66123 0.45146 0.61639 0.0
H351 H 0.63529 0.43212 0.67678 0.0
H352 H 0.45664 0.5253 0.66248 0.0
H353 H 0.48218 0.54369 0.60082 0.0
H354 H 0.48291 0.47801 0.72138 0.0
H355 H 0.63408 0.47244 0.72797 0.0
H356 H 0.67061 0.50893 0.78367 0.0
H357 H 0.65387 0.52144 0.8453 0.0
C358 C 0.61815 0.58754 0.36187 0.0
C359 C 0.5851 0.54028 0.37574 0.0
C360 C 0.63611 0.591 0.32681 0.0
C361 C 0.62196 0.54682 0.30551 0.0
C362 C 0.59337 0.49839 0.32039 0.0
C363 C 0.57448 0.49538 0.35491 0.0
C364 C 0.63141 0.54984 0.26735 0.0
C365 C 0.62571 0.59654 0.24713 0.0
C366 C 0.61255 0.59622 0.20892 0.0
C367 C 0.57725 0.63985 0.19255 0.0
C368 C 0.55258 0.63633 0.15856 0.0
C369 C 0.56285 0.58915 0.14047 0.0
H370 H 0.65778 0.51796 0.20014 0.0
C371 C 0.60277 0.54763 0.15547 0.0
C372 C 0.6281 0.5513 0.18928 0.0
H373 H 0.61204 0.51145 0.1414 0.0
H374 H 0.62672 0.6227 0.37749 0.0
H375 H 0.65955 0.62851 0.31634 0.0
H376 H 0.58226 0.46359 0.30477 0.0
H377 H 0.54933 0.45835 0.36507 0.0
H378 H 0.632 0.51071 0.25528 0.0
H379 H 0.61989 0.63518 0.25933 0.0
H380 H 0.56527 0.6753 0.20675 0.0
H381 H 0.52218 0.66885 0.14709 0.0
loop_
_geom_bond_atom_site_label_1
_geom_bond_atom_site_label_2
_geom_bond_distance
_geom_bond_site_symmetry_2
_ccdc_geom_bond_type
O0 Mn1 2.163 . S
O0 C14 1.244 1_454 S
Mn1 O0 2.163 . S
Mn1 O4 2.157 1_544 S
Mn1 O5 2.221 . S
Mn1 O7 2.163 . S
Mn1 O9 2.160 1_554 S
Mn1 O19 2.221 1_444 S
O2 Mn3 2.087 . S
O2 C14 1.256 . S
Mn3 O2 2.087 . S
Mn3 O10 2.089 . S
Mn3 O19 2.290 1_545 S
Mn3 O20 2.236 1_546 S
O4 Mn1 2.157 1_566 S
O4 C15 1.225 1_556 S
O5 Mn1 2.221 . S
O5 Mn6 2.290 . S
O5 C16 1.278 . S
Mn6 O5 2.290 . S
Mn6 O8 2.089 1_545 S
Mn6 O11 2.251 . S
Mn6 O12 2.087 . S
O7 Mn1 2.163 . S
O7 C17 1.244 . S
O8 Mn6 2.089 1_565 S
O8 C15 1.256 . S
O9 Mn1 2.160 1_556 S
O9 C18 1.239 . S
O10 Mn3 2.089 . S
O10 C18 1.256 1_655 S
O11 Mn6 2.251 . S
O11 C16 1.241 . S
O12 Mn6 2.087 . S
O12 C17 1.256 . S
C13 O19 1.278 1_554 S
C13 O20 1.245 . S
C14 O0 1.244 1_656 S
C14 O2 1.256 . S
C15 O4 1.225 1_554 S
C15 O8 1.256 . S
C16 O5 1.278 . S
C16 O11 1.241 . S
C17 O7 1.244 . S
C17 O12 1.256 . S
C18 O9 1.239 . S
C18 O10 1.256 1_455 S
O19 Mn1 2.221 1_666 S
O19 Mn3 2.290 1_565 S
O19 C13 1.278 1_556 S
O20 Mn3 2.236 1_564 S
O20 C13 1.245 . S
O21 Mn22 2.163 . S
O21 C35 1.244 . S
Mn22 O21 2.163 . S
Mn22 O25 2.160 . S
Mn22 O26 2.221 . S
Mn22 O28 2.163 . S
Mn22 O30 2.160 . S
Mn22 O40 2.221 . S
O23 Mn24 2.087 . S
O23 C35 1.256 . S
Mn24 O23 2.087 . S
Mn24 O31 2.089 . S
Mn24 O40 2.290 . S
Mn24 O41 2.251 . S
O25 Mn22 2.160 . S
O25 C36 1.239 . S
O26 Mn22 2.221 . S
O26 Mn27 2.290 . S
O26 C37 1.278 . S
Mn27 O26 2.290 . S
Mn27 O29 2.089 . S
Mn27 O32 2.251 . S
Mn27 O33 2.087 . S
O28 Mn22 2.163 . S
O28 C38 1.244 . S
O29 Mn27 2.089 . S
O29 C36 1.256 . S
O30 Mn22 2.160 . S
O30 C39 1.239 . S
O31 Mn24 2.089 . S
O31 C39 1.256 . S
O32 Mn27 2.251 . S
O32 C37 1.241 . S
O33 Mn27 2.087 . S
O33 C38 1.256 . S
C34 O40 1.278 . S
C34 O41 1.241 . S
C35 O21 1.244 . S
C35 O23 1.256 . S
C36 O25 1.239 . S
C36 O29 1.256 . S
C37 O26 1.278 . S
C37 O32 1.241 . S
C38 O28 1.244 . S
C38 O33 1.256 . S
C39 O30 1.239 . S
C39 O31 1.256 . S
O40 Mn22 2.221 . S
O40 Mn24 2.290 . S
O40 C34 1.278 . S
O41 Mn24 2.251 . S
O41 C34 1.241 . S
C42 N43 1.317 1_545 S
C42 N44 1.339 1_455 S
C42 C45 1.485 . S
N43 C42 1.317 1_565 S
N43 N47 1.370 1_565 S
N44 C42 1.339 1_655 S
N44 C46 1.346 1_655 S
C45 C42 1.485 . S
C45 H49 0.960 1_545 S
C45 H50 0.961 . S
C45 H51 0.960 1_545 S
C46 N44 1.346 1_455 S
C46 N47 1.307 . S
C46 C48 1.486 1_455 S
N47 N43 1.370 1_545 S
N47 C46 1.307 . S
C48 C46 1.486 1_655 S
C48 H52 0.960 . S
C48 H53 0.960 . S
C48 H54 0.959 . S
H49 C45 0.960 1_565 S
H50 C45 0.961 . S
H51 C45 0.960 1_565 S
H52 C48 0.960 . S
H53 C48 0.960 . S
H54 C48 0.959 . S
C55 N56 1.317 . S
C55 N57 1.348 1_455 S
C55 C58 1.485 . S
N56 C55 1.317 . S
N56 N60 1.370 . S
N57 C55 1.348 1_655 S
N57 C59 1.346 . S
C58 C55 1.485 . S
C58 H62 0.960 1_455 S
C58 H63 0.961 . S
C58 H64 0.960 . S
C59 N57 1.346 . S
C59 N60 1.307 1_655 S
C59 C61 1.486 . S
N60 N56 1.370 . S
N60 C59 1.307 1_455 S
C61 C59 1.486 . S
C61 H65 0.960 1_545 S
C61 H66 0.960 . S
C61 H67 0.959 . S
H62 C58 0.960 1_655 S
H63 C58 0.961 . S
H64 C58 0.960 . S
H65 C61 0.960 1_565 S
H66 C61 0.960 . S
H67 C61 0.959 . S
C68 N69 1.317 . S
C68 N70 1.348 . S
C68 C71 1.485 1_556 S
N69 C68 1.317 . S
N69 N73 1.370 . S
N70 C68 1.348 . S
N70 C72 1.346 . S
C71 C68 1.485 1_554 S
C71 H75 0.960 . S
C71 H76 0.961 . S
C71 H77 0.960 . S
C72 N70 1.346 . S
C72 N73 1.307 . S
C72 C74 1.486 . S
N73 N69 1.370 . S
N73 C72 1.307 . S
C74 C72 1.486 . S
C74 H78 0.960 . S
C74 H79 0.960 . S
C74 H80 0.959 . S
H75 C71 0.960 . S
H76 C71 0.961 . S
H77 C71 0.960 . S
H78 C74 0.960 . S
H79 C74 0.960 . S
H80 C74 0.959 . S
C81 N82 1.317 . S
C81 N83 1.348 . S
C81 C84 1.485 . S
N82 C81 1.317 . S
N82 N86 1.370 . S
N83 C81 1.348 . S
N83 C85 1.346 . S
C84 C81 1.485 . S
C84 H88 0.960 1_554 S
C84 H89 0.961 1_554 S
C84 H90 0.961 . S
C85 N83 1.346 . S
C85 N86 1.307 . S
C85 C87 1.486 . S
N86 N82 1.370 . S
N86 C85 1.307 . S
C87 C85 1.486 . S
C87 H91 0.960 . S
C87 H92 0.960 . S
C87 H93 0.959 . S
H88 C84 0.960 1_556 S
H89 C84 0.961 1_556 S
H90 C84 0.961 . S
H91 C87 0.960 . S
H92 C87 0.960 . S
H93 C87 0.959 . S
C94 C95 1.386 1_556 S
C94 C96 1.383 . S
C94 H110 0.951 . S
C95 C94 1.386 1_554 S
C95 C99 1.383 . S
C96 C94 1.383 . S
C96 C97 1.402 1_556 S
C96 H111 0.951 . S
C97 C96 1.402 1_554 S
C97 C98 1.375 . S
C97 C100 1.481 . S
C98 C97 1.375 . S
C98 C99 1.367 . S
C98 H112 0.951 . S
C99 C95 1.383 . S
C99 C98 1.367 . S
C99 H113 0.950 . S
C100 C97 1.481 . S
C100 C101 1.297 . S
C100 H114 0.950 . S
C101 C100 1.297 . S
C101 C102 1.479 . S
C101 H115 0.950 1_554 S
C102 C101 1.479 . S
C102 C103 1.371 1_554 S
C102 C108 1.404 . S
C103 C102 1.371 1_556 S
C103 C104 1.367 1_556 S
C103 H116 0.956 . S
C104 C103 1.367 1_554 S
C104 C105 1.392 . S
C104 H117 0.951 1_554 S
C105 C104 1.392 . S
C105 C107 1.384 . S
H106 C108 0.949 . S
C107 C105 1.384 . S
C107 C108 1.385 . S
C107 H109 0.950 . S
C108 C102 1.404 . S
C108 H106 0.949 . S
C108 C107 1.385 . S
H109 C107 0.950 . S
H110 C94 0.951 . S
H111 C96 0.951 . S
H112 C98 0.951 . S
H113 C99 0.950 . S
H114 C100 0.950 . S
H115 C101 0.950 1_556 S
H116 C103 0.956 . S
H117 C104 0.951 1_556 S
C118 C119 1.386 . S
C118 C120 1.386 . S
C118 H134 0.951 1_554 S
C119 C118 1.386 . S
C119 C123 1.383 . S
C120 C118 1.386 . S
C120 C121 1.408 . S
C120 H135 0.942 1_554 S
C121 C120 1.408 . S
C121 C122 1.375 . S
C121 C124 1.481 . S
C122 C121 1.375 . S
C122 C123 1.367 . S
C122 H136 0.951 . S
C123 C119 1.383 . S
C123 C122 1.367 . S
C123 H137 0.950 . S
C124 C121 1.481 . S
C124 C125 1.297 . S
C124 H138 0.950 . S
C125 C124 1.297 . S
C125 C126 1.479 1_554 S
C125 H139 0.950 . S
C126 C125 1.479 1_556 S
C126 C127 1.375 . S
C126 C132 1.404 1_556 S
C127 C126 1.375 . S
C127 C128 1.369 . S
C127 H140 0.950 . S
C128 C127 1.369 . S
C128 C129 1.392 . S
C128 H141 0.951 . S
C129 C128 1.392 . S
C129 C131 1.384 . S
H130 C132 0.949 . S
C131 C129 1.384 . S
C131 C132 1.385 1_556 S
C131 H133 0.950 . S
C132 C126 1.404 1_554 S
C132 H130 0.949 . S
C132 C131 1.385 1_554 S
H133 C131 0.950 . S
H134 C118 0.951 1_556 S
H135 C120 0.942 1_556 S
H136 C122 0.951 . S
H137 C123 0.950 . S
H138 C124 0.950 . S
H139 C125 0.950 . S
H140 C127 0.950 . S
H141 C128 0.951 . S
C142 C143 1.386 . S
C142 C144 1.383 . S
C142 H158 0.951 1_554 S
C143 C142 1.386 . S
C143 C147 1.383 . S
C144 C142 1.383 . S
C144 C145 1.402 . S
C144 H159 0.951 1_554 S
C145 C144 1.402 . S
C145 C146 1.375 . S
C145 C148 1.481 . S
C146 C145 1.375 . S
C146 C147 1.367 . S
C146 H160 0.951 . S
C147 C143 1.383 . S
C147 C146 1.367 . S
C147 H161 0.950 . S
C148 C145 1.481 . S
C148 C149 1.297 . S
C148 H162 0.950 . S
C149 C148 1.297 . S
C149 C150 1.479 . S
C149 H163 0.950 . S
C150 C149 1.479 . S
C150 C151 1.375 . S
C150 C156 1.404 . S
C151 C150 1.375 . S
C151 C152 1.369 . S
C151 H164 0.959 . S
C152 C151 1.369 . S
C152 C153 1.392 . S
C152 H165 0.951 . S
C153 C152 1.392 . S
C153 C155 1.384 . S
H154 C156 0.949 . S
C155 C153 1.384 . S
C155 C156 1.385 . S
C155 H157 0.950 . S
C156 C150 1.404 . S
C156 H154 0.949 . S
C156 C155 1.385 . S
H157 C155 0.950 . S
H158 C142 0.951 1_556 S
H159 C144 0.951 1_556 S
H160 C146 0.951 . S
H161 C147 0.950 . S
H162 C148 0.950 . S
H163 C149 0.950 . S
H164 C151 0.959 . S
H165 C152 0.951 . S
C166 C167 1.386 . S
C166 C168 1.383 . S
C166 H182 0.951 . S
C167 C166 1.386 . S
C167 C171 1.383 . S
C168 C166 1.383 . S
C168 C169 1.402 . S
C168 H183 0.951 . S
C169 C168 1.402 . S
C169 C170 1.375 . S
C169 C172 1.481 . S
C170 C169 1.375 . S
C170 C171 1.367 . S
C170 H184 0.951 . S
C171 C167 1.383 . S
C171 C170 1.367 . S
C171 H185 0.950 1_556 S
C172 C169 1.481 . S
C172 C173 1.297 . S
C172 H186 0.950 . S
C173 C172 1.297 . S
C173 C174 1.479 . S
C173 H187 0.950 . S
C174 C173 1.479 . S
C174 C175 1.375 . S
C174 C180 1.404 . S
C175 C174 1.375 . S
C175 C176 1.369 . S
C175 H188 0.950 . S
C176 C175 1.369 . S
C176 C177 1.392 . S
C176 H189 0.951 . S
C177 C176 1.392 . S
C177 C179 1.384 . S
H178 C180 0.949 . S
C179 C177 1.384 . S
C179 C180 1.385 . S
C179 H181 0.950 . S
C180 C174 1.404 . S
C180 H178 0.949 . S
C180 C179 1.385 . S
H181 C179 0.950 . S
H182 C166 0.951 . S
H183 C168 0.951 . S
H184 C170 0.951 . S
H185 C171 0.950 1_554 S
H186 C172 0.950 . S
H187 C173 0.950 . S
H188 C175 0.950 . S
H189 C176 0.951 . S
C190 C191 1.386 . S
C190 C192 1.383 . S
C190 H206 0.951 . S
C191 C190 1.386 . S
C191 C195 1.383 . S
C192 C190 1.383 . S
C192 C193 1.402 . S
C192 H207 0.951 . S
C193 C192 1.402 . S
C193 C194 1.375 . S
C193 C196 1.481 . S
C194 C193 1.375 . S
C194 C195 1.367 . S
C194 H208 0.951 . S
C195 C191 1.383 . S
C195 C194 1.367 . S
C195 H209 0.950 . S
C196 C193 1.481 . S
C196 C197 1.297 . S
C196 H210 0.950 . S
C197 C196 1.297 . S
C197 C198 1.479 . S
C197 H211 0.950 . S
C198 C197 1.479 . S
C198 C199 1.375 . S
C198 C204 1.404 . S
C199 C198 1.375 . S
C199 C200 1.369 1_565 S
C199 H212 0.950 . S
C200 C199 1.369 1_545 S
C200 C201 1.392 . S
C200 H213 0.951 . S
C201 C200 1.392 . S
C201 C203 1.384 1_545 S
H202 C204 0.949 . S
C203 C201 1.384 1_565 S
C203 C204 1.385 . S
C203 H205 0.950 . S
C204 C198 1.404 . S
C204 H202 0.949 . S
C204 C203 1.385 . S
H205 C203 0.950 . S
H206 C190 0.951 . S
H207 C192 0.951 . S
H208 C194 0.951 . S
H209 C195 0.950 . S
H210 C196 0.950 . S
H211 C197 0.950 . S
H212 C199 0.950 . S
H213 C200 0.951 . S
C214 C215 1.386 . S
C214 C216 1.383 . S
C214 H230 0.951 . S
C215 C214 1.386 . S
C215 C219 1.383 . S
C216 C214 1.383 . S
C216 C217 1.402 . S
C216 H231 0.951 . S
C217 C216 1.402 . S
C217 C218 1.375 . S
C217 C220 1.481 . S
C218 C217 1.375 . S
C218 C219 1.367 . S
C218 H232 0.951 . S
C219 C215 1.383 . S
C219 C218 1.367 . S
C219 H233 0.950 . S
C220 C217 1.481 . S
C220 C221 1.297 . S
C220 H234 0.950 . S
C221 C220 1.297 . S
C221 C222 1.479 . S
C221 H235 0.950 . S
C222 C221 1.479 . S
C222 C223 1.375 . S
C222 C228 1.404 . S
C223 C222 1.375 . S
C223 C224 1.369 . S
C223 H236 0.950 . S
C224 C223 1.369 . S
C224 C225 1.392 . S
C224 H237 0.951 . S
C225 C224 1.392 . S
C225 C227 1.384 . S
H226 C228 0.949 . S
C227 C225 1.384 . S
C227 C228 1.385 . S
C227 H229 0.950 1_655 S
C228 C222 1.404 . S
C228 H226 0.949 . S
C228 C227 1.385 . S
H229 C227 0.950 1_455 S
H230 C214 0.951 . S
H231 C216 0.951 . S
H232 C218 0.951 . S
H233 C219 0.950 . S
H234 C220 0.950 . S
H235 C221 0.950 . S
H236 C223 0.950 . S
H237 C224 0.951 . S
C238 C239 1.386 . S
C238 C240 1.383 . S
C238 H254 0.951 . S
C239 C238 1.386 . S
C239 C243 1.383 . S
C240 C238 1.383 . S
C240 C241 1.402 . S
C240 H255 0.951 . S
C241 C240 1.402 . S
C241 C242 1.375 . S
C241 C244 1.481 . S
C242 C241 1.375 . S
C242 C243 1.367 . S
C242 H256 0.951 . S
C243 C239 1.383 . S
C243 C242 1.367 . S
C243 H257 0.950 . S
C244 C241 1.481 . S
C244 C245 1.297 . S
C244 H258 0.950 . S
C245 C244 1.297 . S
C245 C246 1.479 . S
C245 H259 0.950 . S
C246 C245 1.479 . S
C246 C247 1.375 . S
C246 C252 1.404 . S
C247 C246 1.375 . S
C247 C248 1.369 . S
C247 H260 0.950 . S
C248 C247 1.369 . S
C248 C249 1.392 . S
C248 H261 0.951 . S
C249 C248 1.392 . S
C249 C251 1.384 . S
H250 C252 0.949 . S
C251 C249 1.384 . S
C251 C252 1.385 . S
C251 H253 0.950 . S
C252 C246 1.404 . S
C252 H250 0.949 . S
C252 C251 1.385 . S
H253 C251 0.950 . S
H254 C238 0.951 . S
H255 C240 0.951 . S
H256 C242 0.951 . S
H257 C243 0.950 . S
H258 C244 0.950 . S
H259 C245 0.950 . S
H260 C247 0.950 . S
H261 C248 0.951 . S
C262 C263 1.386 . S
C262 C264 1.383 . S
C262 H278 0.951 . S
C263 C262 1.386 . S
C263 C267 1.383 . S
C264 C262 1.383 . S
C264 C265 1.402 . S
C264 H279 0.951 . S
C265 C264 1.402 . S
C265 C266 1.375 . S
C265 C268 1.481 . S
C266 C265 1.375 . S
C266 C267 1.367 . S
C266 H280 0.951 . S
C267 C263 1.383 . S
C267 C266 1.367 . S
C267 H281 0.950 . S
C268 C265 1.481 . S
C268 C269 1.297 . S
C268 H282 0.950 . S
C269 C268 1.297 . S
C269 C270 1.479 . S
C269 H283 0.950 . S
C270 C269 1.479 . S
C270 C271 1.375 . S
C270 C276 1.404 . S
C271 C270 1.375 . S
C271 C272 1.369 . S
C271 H284 0.950 . S
C272 C271 1.369 . S
C272 C273 1.392 . S
C272 H285 0.951 . S
C273 C272 1.392 . S
C273 C275 1.384 . S
H274 C276 0.949 . S
C275 C273 1.384 . S
C275 C276 1.385 . S
C275 H277 0.950 . S
C276 C270 1.404 . S
C276 H274 0.949 . S
C276 C275 1.385 . S
H277 C275 0.950 . S
H278 C262 0.951 . S
H279 C264 0.951 . S
H280 C266 0.951 . S
H281 C267 0.950 . S
H282 C268 0.950 . S
H283 C269 0.950 . S
H284 C271 0.950 . S
H285 C272 0.951 . S
C286 C287 1.386 . S
C286 C288 1.383 . S
C286 H302 0.951 1_545 S
C287 C286 1.386 . S
C287 C291 1.383 . S
C288 C286 1.383 . S
C288 C289 1.402 . S
C288 H303 0.951 . S
C289 C288 1.402 . S
C289 C290 1.375 . S
C289 C292 1.481 . S
C290 C289 1.375 . S
C290 C291 1.367 . S
C290 H304 0.952 1_455 S
C291 C287 1.383 . S
C291 C290 1.367 . S
C291 H305 0.950 1_455 S
C292 C289 1.481 . S
C292 C293 1.297 . S
C292 H306 0.950 1_455 S
C293 C292 1.297 . S
C293 C294 1.479 . S
C293 H307 0.950 . S
C294 C293 1.479 . S
C294 C295 1.375 . S
C294 C300 1.404 . S
C295 C294 1.375 . S
C295 C296 1.369 1_545 S
C295 H308 0.950 . S
C296 C295 1.369 1_565 S
C296 C297 1.392 1_565 S
C296 H309 0.951 . S
C297 C296 1.392 1_545 S
C297 C299 1.384 . S
H298 C300 0.949 1_655 S
C299 C297 1.384 . S
C299 C300 1.385 . S
C299 H301 0.950 1_455 S
C300 C294 1.404 . S
C300 H298 0.949 1_455 S
C300 C299 1.385 . S
H301 C299 0.950 1_655 S
H302 C286 0.951 1_565 S
H303 C288 0.951 . S
H304 C290 0.952 1_655 S
H305 C291 0.950 1_655 S
H306 C292 0.950 1_655 S
H307 C293 0.950 . S
H308 C295 0.950 . S
H309 C296 0.951 . S
C310 C311 1.386 . S
C310 C312 1.383 . S
C310 H326 0.951 1_455 S
C311 C310 1.386 . S
C311 C315 1.383 . S
C312 C310 1.383 . S
C312 C313 1.402 . S
C312 H327 0.951 1_455 S
C313 C312 1.402 . S
C313 C314 1.375 . S
C313 C316 1.481 . S
C314 C313 1.375 . S
C314 C315 1.367 . S
C314 H328 0.951 . S
C315 C311 1.383 . S
C315 C314 1.367 . S
C315 H329 0.950 . S
C316 C313 1.481 . S
C316 C317 1.297 . S
C316 H330 0.950 . S
C317 C316 1.297 . S
C317 C318 1.479 . S
C317 H331 0.950 1_455 S
C318 C317 1.479 . S
C318 C319 1.375 1_455 S
C318 C324 1.404 . S
C319 C318 1.375 1_655 S
C319 C320 1.369 . S
C319 H332 0.950 . S
C320 C319 1.369 . S
C320 C321 1.392 1_655 S
C320 H333 0.951 . S
C321 C320 1.392 1_455 S
C321 C323 1.384 . S
H322 C324 0.949 . S
C323 C321 1.384 . S
C323 C324 1.385 . S
C323 H325 0.950 . S
C324 C318 1.404 . S
C324 H322 0.949 . S
C324 C323 1.385 . S
H325 C323 0.950 . S
H326 C310 0.951 1_655 S
H327 C312 0.951 1_655 S
H328 C314 0.951 . S
H329 C315 0.950 . S
H330 C316 0.950 . S
H331 C317 0.950 1_655 S
H332 C319 0.950 . S
H333 C320 0.951 . S
C334 C335 1.386 . S
C334 C336 1.383 . S
C334 H350 0.951 . S
C335 C334 1.386 . S
C335 C339 1.383 . S
C336 C334 1.383 . S
C336 C337 1.402 . S
C336 H351 0.951 . S
C337 C336 1.402 . S
C337 C338 1.375 . S
C337 C340 1.481 . S
C338 C337 1.375 . S
C338 C339 1.367 . S
C338 H352 0.951 . S
C339 C335 1.383 . S
C339 C338 1.367 . S
C339 H353 0.950 . S
C340 C337 1.481 . S
C340 C341 1.297 . S
C340 H354 0.950 . S
C341 C340 1.297 . S
C341 C342 1.479 . S
C341 H355 0.950 . S
C342 C341 1.479 . S
C342 C343 1.375 . S
C342 C348 1.404 . S
C343 C342 1.375 . S
C343 C344 1.369 . S
C343 H356 0.950 . S
C344 C343 1.369 . S
C344 C345 1.392 . S
C344 H357 0.951 . S
C345 C344 1.392 . S
C345 C347 1.384 . S
H346 C348 0.949 . S
C347 C345 1.384 . S
C347 C348 1.385 . S
C347 H349 0.950 . S
C348 C342 1.404 . S
C348 H346 0.949 . S
C348 C347 1.385 . S
H349 C347 0.950 . S
H350 C334 0.951 . S
H351 C336 0.951 . S
H352 C338 0.951 . S
H353 C339 0.950 . S
H354 C340 0.950 . S
H355 C341 0.950 . S
H356 C343 0.950 . S
H357 C344 0.951 . S
C358 C359 1.386 . S
C358 C360 1.383 . S
C358 H374 0.951 . S
C359 C358 1.386 . S
C359 C363 1.383 . S
C360 C358 1.383 . S
C360 C361 1.402 . S
C360 H375 0.951 . S
C361 C360 1.402 . S
C361 C362 1.375 . S
C361 C364 1.481 . S
C362 C361 1.375 . S
C362 C363 1.367 . S
C362 H376 0.951 . S
C363 C359 1.383 . S
C363 C362 1.367 . S
C363 H377 0.950 . S
C364 C361 1.481 . S
C364 C365 1.297 . S
C364 H378 0.950 . S
C365 C364 1.297 . S
C365 C366 1.479 . S
C365 H379 0.950 . S
C366 C365 1.479 . S
C366 C367 1.375 . S
C366 C372 1.404 . S
C367 C366 1.375 . S
C367 C368 1.369 . S
C367 H380 0.950 . S
C368 C367 1.369 . S
C368 C369 1.392 . S
C368 H381 0.951 . S
C369 C368 1.392 . S
C369 C371 1.384 . S
H370 C372 0.949 . S
C371 C369 1.384 . S
C371 C372 1.385 . S
C371 H373 0.950 . S
C372 C366 1.404 . S
C372 H370 0.949 . S
C372 C371 1.385 . S
H373 C371 0.950 . S
H374 C358 0.951 . S
H375 C360 0.951 . S
H376 C362 0.951 . S
H377 C363 0.950 . S
H378 C364 0.950 . S
H379 C365 0.950 . S
H380 C367 0.950 . S
H381 C368 0.951 . S
C105 N83 1.359 . S
C95 C16 1.165 . S
C119 C15 1.412 . S
C129 N70 1.417 . S
C143 C13 1.373 . S
C153 N82 1.514 . S
C167 C14 1.368 . S
C177 N69 1.461 . S
C191 C37 1.109 . S
C201 N57 1.305 . S
C215 C36 1.397 . S
C225 N44 1.373 . S
C249 N56 1.533 . S
C239 C34 1.329 . S
C273 N43 1.459 . S
C263 C35 1.368 . S
C287 C17 1.556 . S
C297 N47 1.555 . S
C311 C18 1.423 . S
C321 N60 1.451 . S
C345 N73 1.550 . S
C335 C38 1.561 . S
C359 C39 1.391 . S
C369 N86 1.416 . S
