# Generated by pormake.
# Topology rtl, (3,6)-cn, num edge types: 1
# Building blocks:
#     Node 0, Type 0, BuildingBlock: BETDAH_clean_linker_0, # of connection points: 3
#     Node 1, Type 0, BuildingBlock: BETDAH_clean_linker_0, # of connection points: 3
#     Node 2, Type 0, BuildingBlock: BETDAH_clean_linker_0, # of connection points: 3
#     Node 3, Type 0, BuildingBlock: BETDAH_clean_linker_0, # of connection points: 3
#     Node 4, Type 1, BuildingBlock: VOLQOD_clean_sbu_1, # of connection points: 6
#     Node 5, Type 1, BuildingBlock: VOLQOD_clean_sbu_1, # of connection points: 6
#     Edge 6, Type (0, 1), BuildingBlock: MIFKUJ_clean_linker_0, # of connection points: 2
#     Edge 7, Type (0, 1), BuildingBlock: MIFKUJ_clean_linker_0, # of connection points: 2
#     Edge 8, Type (0, 1), BuildingBlock: MIFKUJ_clean_linker_0, # of connection points: 2
#     Edge 9, Type (0, 1), BuildingBlock: MIFKUJ_clean_linker_0, # of connection points: 2
#     Edge 10, Type (0, 1), BuildingBlock: MIFKUJ_clean_linker_0, # of connection points: 2
#     Edge 11, Type (0, 1), BuildingBlock: MIFKUJ_clean_linker_0, # of connection points: 2
#     Edge 12, Type (0, 1), BuildingBlock: MIFKUJ_clean_linker_0, # of connection points: 2
#     Edge 13, Type (0, 1), BuildingBlock: MIFKUJ_clean_linker_0, # of connection points: 2
#     Edge 14, Type (0, 1), BuildingBlock: MIFKUJ_clean_linker_0, # of connection points: 2
#     Edge 15, Type (0, 1), BuildingBlock: MIFKUJ_clean_linker_0, # of connection points: 2
#     Edge 16, Type (0, 1), BuildingBlock: MIFKUJ_clean_linker_0, # of connection points: 2
#     Edge 17, Type (0, 1), BuildingBlock: MIFKUJ_clean_linker_0, # of connection points: 2
# Relax obj value: 0.041
# Max RMSD: 0.143
# Mean RMSD: 0.096
data_MOF--net-rtl--node1-VOLQOD_clean_sbu_1--node2-BETDAH_clean_linker_0--edge1-MIFKUJ_clean_linker_0
_symmetry_space_group_name_H-M    P1
_symmetry_Int_Tables_number       1
_symmetry_cell_setting            triclinic
loop_
_symmetry_equiv_pos_as_xyz
'x, y, z'
_cell_length_a     48.479336
_cell_length_b     48.538812
_cell_length_c     28.213692
_cell_angle_alpha  91.048898
_cell_angle_beta   91.44242
_cell_angle_gamma 90.04594
loop_
_atom_site_label
_atom_site_type_symbol
_atom_site_fract_x
_atom_site_fract_y
_atom_site_fract_z
_atom_type_partial_charge
H0 H 0.15374 0.83607 0.96408 0.0
H1 H 0.19672 0.76744 0.02605 0.0
H2 H 0.18042 0.76884 0.87549 0.0
C3 C 0.16422 0.81646 0.96016 0.0
C4 C 0.16603 0.80426 0.91497 0.0
C5 C 0.17521 0.80342 0.00045 0.0
C6 C 0.18846 0.7778 0.99512 0.0
C7 C 0.19051 0.76546 0.94973 0.0
C8 C 0.17919 0.77872 0.91014 0.0
N9 N 0.20295 0.73936 0.94236 0.0
C10 C 0.22113 0.72682 0.97402 0.0
H11 H 0.63191 0.68464 0.56792 0.0
H12 H 0.68532 0.74375 0.50498 0.0
H13 H 0.68062 0.73962 0.65691 0.0
C14 C 0.64638 0.70163 0.57184 0.0
C15 C 0.65481 0.71068 0.61735 0.0
C16 C 0.65707 0.71351 0.53118 0.0
C17 C 0.67697 0.73454 0.53624 0.0
C18 C 0.68533 0.74405 0.58192 0.0
C19 C 0.67416 0.73208 0.62197 0.0
N20 N 0.70454 0.76582 0.58954 0.0
C21 C 0.72049 0.77753 0.55501 0.0
H22 H 0.86442 0.17188 0.96867 0.0
H23 H 0.81967 0.24084 0.02552 0.0
H24 H 0.83532 0.23556 0.87619 0.0
C25 C 0.85307 0.19084 0.96316 0.0
C26 C 0.85072 0.20151 0.91742 0.0
C27 C 0.84183 0.20468 0.00226 0.0
C28 C 0.82825 0.22994 0.99548 0.0
C29 C 0.82607 0.2411 0.94976 0.0
C30 C 0.83749 0.22694 0.91124 0.0
N31 N 0.81283 0.26661 0.94105 0.0
C32 C 0.79322 0.27843 0.9701 0.0
H33 H 0.34702 0.34253 0.54658 0.0
H34 H 0.27617 0.31702 0.62359 0.0
H35 H 0.27658 0.30747 0.47197 0.0
C36 C 0.32687 0.33287 0.54735 0.0
C37 C 0.31376 0.32474 0.50439 0.0
C38 C 0.31372 0.33015 0.59078 0.0
C39 C 0.28684 0.31936 0.59062 0.0
C40 C 0.2736 0.3108 0.54818 0.0
C41 C 0.28706 0.31347 0.50494 0.0
N42 N 0.24619 0.30088 0.55002 0.0
C43 C 0.23654 0.2782 0.52391 0.0
O44 O 0.93931 0.97678 0.44967 0.0
Zn45 Zn 0.96447 0.00995 0.45061 0.0
O46 O 0.00319 0.99954 0.44649 0.0
Zn47 Zn 0.02393 0.01464 0.50151 0.0
Zn48 Zn 0.0057 0.9594 0.44661 0.0
Zn49 Zn 0.01832 0.01391 0.38779 0.0
O50 O 0.05333 0.04088 0.48132 0.0
O51 O 0.04865 0.04156 0.40286 0.0
O52 O 0.95777 0.03228 0.50966 0.0
O53 O 0.99895 0.03563 0.54555 0.0
O54 O 0.04214 0.98467 0.53939 0.0
O55 O 0.02629 0.94617 0.50478 0.0
O56 O 0.02656 0.94572 0.39036 0.0
O57 O 0.95315 0.03371 0.39649 0.0
O58 O 0.03522 0.98304 0.34871 0.0
O59 O 0.98908 0.03431 0.34924 0.0
C60 C 0.94375 0.95094 0.44692 0.0
C61 C 0.06051 0.04987 0.44133 0.0
C62 C 0.0404 0.9585 0.5374 0.0
C63 C 0.97324 0.04098 0.54384 0.0
C64 C 0.03707 0.95711 0.35472 0.0
C65 C 0.96445 0.04136 0.35871 0.0
O66 O 0.9682 0.94148 0.44498 0.0
O67 O 0.56939 0.47612 0.0675 0.0
Zn68 Zn 0.54548 0.51008 0.06747 0.0
O69 O 0.50625 0.50026 0.06599 0.0
Zn70 Zn 0.48874 0.51496 0.00873 0.0
Zn71 Zn 0.50233 0.4601 0.06492 0.0
Zn72 Zn 0.48844 0.51589 0.12215 0.0
O73 O 0.45789 0.54074 0.02502 0.0
O74 O 0.45783 0.54216 0.10365 0.0
O75 O 0.55528 0.53277 0.01101 0.0
O76 O 0.5156 0.53629 0.97072 0.0
O77 O 0.47251 0.48488 0.96685 0.0
O78 O 0.48063 0.44673 0.00704 0.0
O79 O 0.48141 0.44747 0.12108 0.0
O80 O 0.55535 0.5331 0.12552 0.0
O81 O 0.47138 0.48589 0.16093 0.0
O82 O 0.51588 0.53743 0.16324 0.0
C83 C 0.56425 0.45036 0.06654 0.0
C84 C 0.44803 0.54977 0.06368 0.0
C85 C 0.4704 0.45891 0.9711 0.0
C86 C 0.54121 0.54167 0.97577 0.0
C87 C 0.47017 0.45976 0.15585 0.0
C88 C 0.54156 0.54255 0.16002 0.0
O89 O 0.53953 0.44137 0.06542 0.0
H90 H 0.21455 0.27 0.43539 0.0
H91 H 0.18914 0.2288 0.40658 0.0
H92 H 0.20474 0.19021 0.54133 0.0
H93 H 0.23052 0.23096 0.56934 0.0
H94 H 0.20886 0.15325 0.47198 0.0
H95 H 0.14362 0.22469 0.51483 0.0
H96 H 0.12211 0.27062 0.50963 0.0
H97 H 0.10241 0.25574 0.36213 0.0
H98 H 0.12412 0.20983 0.36636 0.0
H99 H 0.09669 0.06533 0.51268 0.0
H100 H 0.13116 0.10196 0.51209 0.0
H101 H 0.10859 0.11933 0.36687 0.0
H102 H 0.07394 0.08253 0.36701 0.0
H103 H 0.11043 0.166 0.42507 0.0
H104 H 0.16896 0.09028 0.38835 0.0
H105 H 0.18886 0.04388 0.39726 0.0
H106 H 0.22005 0.06623 0.53649 0.0
H107 H 0.19998 0.11265 0.52873 0.0
C108 C 0.21286 0.25243 0.45827 0.0
C109 C 0.22433 0.25332 0.50435 0.0
C110 C 0.19828 0.22903 0.44201 0.0
C111 C 0.19474 0.20652 0.47203 0.0
C112 C 0.20723 0.20723 0.51749 0.0
C113 C 0.22187 0.23049 0.53353 0.0
C114 C 0.17673 0.18284 0.45782 0.0
C115 C 0.18733 0.15604 0.46179 0.0
C116 C 0.14879 0.18643 0.44332 0.0
C117 C 0.1358 0.21402 0.44075 0.0
C118 C 0.1349 0.23132 0.4812 0.0
C119 C 0.12264 0.25732 0.47845 0.0
C120 C 0.11099 0.26613 0.43553 0.0
C121 C 0.11151 0.24892 0.39531 0.0
C122 C 0.12378 0.22291 0.39786 0.0
C123 C 0.09916 0.07676 0.48043 0.0
C124 C 0.08252 0.07102 0.4399 0.0
C125 C 0.119 0.0976 0.48009 0.0
C126 C 0.12259 0.11319 0.43931 0.0
C127 C 0.10621 0.10743 0.39862 0.0
C128 C 0.08649 0.08636 0.39876 0.0
C129 C 0.1424 0.13649 0.44053 0.0
C130 C 0.13212 0.1632 0.43419 0.0
C131 C 0.17054 0.1328 0.45327 0.0
C132 C 0.1828 0.10492 0.45804 0.0
C133 C 0.17988 0.08525 0.42101 0.0
C134 C 0.19123 0.05895 0.42584 0.0
C135 C 0.20567 0.0521 0.46744 0.0
C136 C 0.20885 0.07156 0.50428 0.0
C137 C 0.19753 0.09789 0.49966 0.0
H138 H 0.21444 0.03172 0.4711 0.0
H139 H 0.1015 0.28627 0.43347 0.0
H140 H 0.2677 0.74645 0.01693 0.0
H141 H 0.30663 0.71867 0.04656 0.0
H142 H 0.26018 0.64443 0.01449 0.0
H143 H 0.22125 0.67223 0.98587 0.0
H144 H 0.29135 0.63795 0.09322 0.0
H145 H 0.30382 0.67077 0.93435 0.0
H146 H 0.30743 0.70622 0.87326 0.0
H147 H 0.37615 0.74302 0.94984 0.0
H148 H 0.37269 0.70795 0.01172 0.0
H149 H 0.4186 0.56609 0.98537 0.0
H150 H 0.38008 0.59819 0.98171 0.0
H151 H 0.38625 0.61089 0.13337 0.0
H152 H 0.42461 0.57817 0.13755 0.0
H153 H 0.37652 0.65084 0.00219 0.0
H154 H 0.32122 0.6249 0.17424 0.0
H155 H 0.31567 0.58581 0.22795 0.0
H156 H 0.32967 0.52888 0.11278 0.0
H157 H 0.33495 0.5676 0.05832 0.0
C158 C 0.26568 0.72423 0.0176 0.0
C159 C 0.24174 0.71127 -0.00053 0.0
C160 C 0.28788 0.70839 0.03423 0.0
C161 C 0.28645 0.67945 0.03212 0.0
C162 C 0.26174 0.66669 0.01658 0.0
C163 C 0.23956 0.68252 0.0002 0.0
C164 C 0.31135 0.66236 0.04109 0.0
C165 C 0.3101 0.64094 0.07374 0.0
C166 C 0.33565 0.66593 0.01506 0.0
C167 C 0.33778 0.68697 0.9779 0.0
C168 C 0.31956 0.68655 0.93831 0.0
C169 C 0.3216 0.70655 0.90354 0.0
C170 C 0.34195 0.72691 0.90775 0.0
C171 C 0.36035 0.72727 0.94669 0.0
C172 C 0.35837 0.70735 0.98161 0.0
C173 C 0.41182 0.57564 0.01805 0.0
C174 C 0.42469 0.56947 0.06179 0.0
C175 C 0.38981 0.5941 0.01585 0.0
C176 C 0.38016 0.60686 0.05726 0.0
C177 C 0.3931 0.601 0.10102 0.0
C178 C 0.41508 0.58235 0.10331 0.0
C179 C 0.35652 0.62622 0.05406 0.0
C180 C 0.35801 0.64813 0.02245 0.0
C181 C 0.33224 0.62262 0.08016 0.0
C182 C 0.3288 0.59916 0.1124 0.0
C183 C 0.32304 0.60403 0.16039 0.0
C184 C 0.31995 0.58194 0.19095 0.0
C185 C 0.32242 0.55488 0.17383 0.0
C186 C 0.32787 0.54985 0.12605 0.0
C187 C 0.33095 0.57186 0.09534 0.0
H188 H 0.32004 0.53782 0.19755 0.0
H189 H 0.3435 0.74237 0.88078 0.0
H190 H 0.76782 0.75738 0.52078 0.0
H191 H 0.80537 0.78451 0.48795 0.0
H192 H 0.755 0.85763 0.49637 0.0
H193 H 0.71739 0.83037 0.52864 0.0
H194 H 0.78759 0.85754 0.41755 0.0
H195 H 0.79818 0.8433 0.58575 0.0
H196 H 0.80153 0.81551 0.65796 0.0
H197 H 0.87273 0.77403 0.60412 0.0
H198 H 0.86955 0.80134 0.53124 0.0
H199 H 0.88863 0.96321 0.45012 0.0
H200 H 0.8501 0.93106 0.45538 0.0
H201 H 0.90664 0.86258 0.44978 0.0
H202 H 0.94536 0.89454 0.44501 0.0
H203 H 0.87183 0.85784 0.52125 0.0
H204 H 0.86377 0.87641 0.3557 0.0
H205 H 0.86021 0.90537 0.28493 0.0
H206 H 0.78447 0.93998 0.33445 0.0
H207 H 0.78777 0.9115 0.4059 0.0
C208 C 0.76459 0.77908 0.51417 0.0
C209 C 0.73994 0.79196 0.52682 0.0
C210 C 0.78602 0.79456 0.49573 0.0
C211 C 0.78309 0.82316 0.49038 0.0
C212 C 0.75767 0.83562 0.50016 0.0
C213 C 0.73625 0.8201 0.51853 0.0
C214 C 0.80728 0.8405 0.47965 0.0
C215 C 0.80598 0.85775 0.44028 0.0
C216 C 0.83141 0.84046 0.50899 0.0
C217 C 0.83343 0.82412 0.55284 0.0
C218 C 0.81441 0.82809 0.58916 0.0
C219 C 0.8163 0.81246 0.63023 0.0
C220 C 0.83728 0.79295 0.63556 0.0
C221 C 0.85646 0.7891 0.59989 0.0
C222 C 0.85463 0.80466 0.55871 0.0
C223 C 0.8929 0.94131 0.44961 0.0
C224 C 0.92015 0.93149 0.44731 0.0
C225 C 0.8708 0.92294 0.45233 0.0
C226 C 0.87546 0.8944 0.45255 0.0
C227 C 0.90257 0.88452 0.44956 0.0
C228 C 0.92468 0.90285 0.4468 0.0
C229 C 0.85228 0.87495 0.45902 0.0
C230 C 0.85367 0.8574 0.49795 0.0
C231 C 0.82826 0.87487 0.42937 0.0
C232 C 0.82615 0.89198 0.38637 0.0
C233 C 0.84646 0.89036 0.3517 0.0
C234 C 0.84447 0.90666 0.31142 0.0
C235 C 0.82216 0.92455 0.30525 0.0
C236 C 0.80175 0.92612 0.3393 0.0
C237 C 0.80366 0.90988 0.37967 0.0
H238 H 0.82065 0.93715 0.27404 0.0
H239 H 0.83871 0.78087 0.66739 0.0
H240 H 0.79339 0.33066 0.00343 0.0
H241 H 0.7535 0.3565 0.03212 0.0
H242 H 0.70328 0.2832 0.01727 0.0
H243 H 0.74323 0.25751 0.98795 0.0
H244 H 0.67951 0.32532 0.97377 0.0
H245 H 0.71974 0.31111 0.12721 0.0
H246 H 0.75649 0.31097 0.1892 0.0
H247 H 0.76474 0.39876 0.17952 0.0
H248 H 0.7283 0.39939 0.11695 0.0
H249 H 0.56167 0.39393 0.06177 0.0
H250 H 0.60007 0.36155 0.05614 0.0
H251 H 0.65778 0.42926 0.06284 0.0
H252 H 0.6196 0.46181 0.06905 0.0
H253 H 0.6758 0.38643 0.11634 0.0
H254 H 0.63948 0.39964 0.95754 0.0
H255 H 0.60324 0.40005 0.89464 0.0
H256 H 0.58829 0.31386 0.91434 0.0
H257 H 0.62422 0.31303 0.97785 0.0
C258 C 0.77395 0.32002 0.00747 0.0
C259 C 0.77115 0.29223 0.99404 0.0
C260 C 0.75121 0.33472 0.02392 0.0
C261 C 0.72541 0.32174 0.0272 0.0
C262 C 0.72298 0.2936 0.01517 0.0
C263 C 0.74574 0.27893 -0.0013 0.0
C264 C 0.70055 0.33817 0.03868 0.0
C265 C 0.67847 0.33821 0.00551 0.0
C266 C 0.69946 0.35554 0.07945 0.0
C267 C 0.72141 0.35526 0.11708 0.0
C268 C 0.72954 0.33036 0.138 0.0
C269 C 0.75029 0.3302 0.17331 0.0
C270 C 0.76298 0.35483 0.18822 0.0
C271 C 0.7549 0.37969 0.16792 0.0
C272 C 0.73417 0.37997 0.13256 0.0
C273 C 0.58252 0.40198 0.06235 0.0
C274 C 0.5875 0.43053 0.06549 0.0
C275 C 0.60445 0.38341 0.05904 0.0
C276 C 0.63177 0.39302 0.05856 0.0
C277 C 0.63686 0.42141 0.06315 0.0
C278 C 0.61497 0.43999 0.06647 0.0
C279 C 0.65501 0.37366 0.05126 0.0
C280 C 0.67676 0.37318 0.08504 0.0
C281 C 0.65588 0.35589 0.011 0.0
C282 C 0.6343 0.35635 0.9728 0.0
C283 C 0.6283 0.38083 0.94873 0.0
C284 C 0.60785 0.38113 0.91292 0.0
C285 C 0.59341 0.35702 0.90061 0.0
C286 C 0.59945 0.33253 0.92399 0.0
C287 C 0.61986 0.33213 0.95987 0.0
H288 H 0.57758 0.35728 0.87286 0.0
H289 H 0.77903 0.35466 0.21558 0.0
H290 H 0.15551 0.77878 0.07914 0.0
H291 H 0.13766 0.80212 0.14975 0.0
H292 H 0.16526 0.88023 0.09773 0.0
H293 H 0.18377 0.85694 0.02797 0.0
H294 H 0.16877 0.87962 0.19357 0.0
H295 H 0.10127 0.85715 0.07019 0.0
H296 H 0.07599 0.82578 0.01473 0.0
H297 H 0.04636 0.7799 0.13184 0.0
H298 H 0.07187 0.81076 0.18798 0.0
H299 H 0.07029 0.97415 0.28359 0.0
H300 H 0.09831 0.94538 0.23143 0.0
H301 H 0.06812 0.8724 0.29804 0.0
H302 H 0.04002 0.90088 0.3502 0.0
H303 H 0.06729 0.86754 0.20117 0.0
H304 H 0.13161 0.89467 0.32514 0.0
H305 H 0.15641 0.92761 0.3784 0.0
H306 H 0.19128 0.96666 0.25838 0.0
H307 H 0.16636 0.93419 0.20431 0.0
C308 C 0.15863 0.80078 0.08365 0.0
C309 C 0.17061 0.81613 0.04778 0.0
C310 C 0.14824 0.81412 0.12379 0.0
C311 C 0.14955 0.84299 0.12839 0.0
C312 C 0.16383 0.85798 0.09477 0.0
C313 C 0.17426 0.84468 0.0548 0.0
C314 C 0.13326 0.85793 0.16449 0.0
C315 C 0.14658 0.87705 0.1952 0.0
C316 C 0.10432 0.85442 0.16686 0.0
C317 C 0.08872 0.83605 0.13323 0.0
C318 C 0.08951 0.84025 0.08408 0.0
C319 C 0.07514 0.82258 0.05253 0.0
C320 C 0.05964 0.80081 0.06974 0.0
C321 C 0.05842 0.79673 0.11856 0.0
C322 C 0.07284 0.8143 0.15026 0.0
C323 C 0.06948 0.95198 0.287 0.0
C324 C 0.05292 0.93984 0.32116 0.0
C325 C 0.08566 0.93558 0.2574 0.0
C326 C 0.08555 0.90678 0.26134 0.0
C327 C 0.0686 0.89459 0.29461 0.0
C328 C 0.05256 0.91094 0.3244 0.0
C329 C 0.10275 0.88932 0.23017 0.0
C330 C 0.08954 0.86983 0.20015 0.0
C331 C 0.13171 0.89272 0.22822 0.0
C332 C 0.14692 0.91213 0.26065 0.0
C333 C 0.1444 0.91041 0.31007 0.0
C334 C 0.15851 0.92897 0.34042 0.0
C335 C 0.17536 0.94926 0.32179 0.0
C336 C 0.1782 0.95096 0.27276 0.0
C337 C 0.16411 0.93246 0.24225 0.0
H338 H 0.18626 0.96362 0.34534 0.0
H339 H 0.04851 0.78715 0.04527 0.0
H340 H 0.68326 0.69494 0.69743 0.0
H341 H 0.66563 0.66903 0.76389 0.0
H342 H 0.58424 0.66898 0.69837 0.0
H343 H 0.60151 0.69563 0.63275 0.0
H344 H 0.58159 0.67747 0.79226 0.0
H345 H 0.62689 0.61364 0.68702 0.0
H346 H 0.66584 0.59573 0.64115 0.0
H347 H 0.7146 0.58817 0.76944 0.0
H348 H 0.67603 0.60642 0.81602 0.0
H349 H 0.51764 0.56419 0.89643 0.0
H350 H 0.53895 0.59496 0.84062 0.0
H351 H 0.61602 0.59061 0.91986 0.0
H352 H 0.59496 0.55944 0.97583 0.0
H353 H 0.62344 0.58624 0.82474 0.0
H354 H 0.57575 0.64685 0.93052 0.0
H355 H 0.53589 0.66387 0.97503 0.0
H356 H 0.49072 0.67676 0.84447 0.0
H357 H 0.53017 0.65944 0.79917 0.0
C358 C 0.66151 0.68985 0.69765 0.0
C359 C 0.64382 0.6971 0.65965 0.0
C360 C 0.65152 0.67484 0.73541 0.0
C361 C 0.62372 0.6667 0.73566 0.0
C362 C 0.6058 0.67492 0.69877 0.0
C363 C 0.61574 0.68995 0.66112 0.0
C364 C 0.6134 0.64868 0.7732 0.0
C365 C 0.59061 0.65744 0.79916 0.0
C366 C 0.62555 0.6228 0.78285 0.0
C367 C 0.6487 0.61169 0.75493 0.0
C368 C 0.646 0.60836 0.7054 0.0
C369 C 0.66799 0.59812 0.67928 0.0
C370 C 0.69271 0.59089 0.70235 0.0
C371 C 0.69545 0.59383 0.75161 0.0
C372 C 0.67353 0.60411 0.77789 0.0
C373 C 0.53915 0.56967 0.90205 0.0
C374 C 0.55454 0.55943 0.94082 0.0
C375 C 0.55126 0.58739 0.87019 0.0
C376 C 0.57893 0.59542 0.87657 0.0
C377 C 0.59458 0.58476 0.91449 0.0
C378 C 0.58249 0.56698 0.94644 0.0
C379 C 0.59143 0.6149 0.8434 0.0
C380 C 0.61461 0.6064 0.81825 0.0
C381 C 0.57954 0.64097 0.83432 0.0
C382 C 0.55586 0.65164 0.86147 0.0
C383 C 0.55725 0.65314 0.9113 0.0
C384 C 0.53474 0.66286 0.93668 0.0
C385 C 0.51077 0.67134 0.9126 0.0
C386 C 0.50929 0.67017 0.86308 0.0
C387 C 0.53174 0.66043 0.83753 0.0
H388 H 0.49336 0.67885 0.93231 0.0
H389 H 0.70971 0.58296 0.68207 0.0
H390 H 0.83271 0.15162 0.02656 0.0
H391 H 0.84838 0.12908 0.09865 0.0
H392 H 0.87505 0.20753 0.15816 0.0
H393 H 0.86028 0.23012 0.08462 0.0
H394 H 0.91487 0.17262 0.16639 0.0
H395 H 0.8212 0.17007 0.20684 0.0
H396 H 0.77105 0.16302 0.19622 0.0
H397 H 0.78399 0.07672 0.16919 0.0
H398 H 0.83426 0.08329 0.17898 0.0
H399 H 0.91695 0.06913 0.37748 0.0
H400 H 0.89245 0.10187 0.32746 0.0
H401 H 0.95155 0.08845 0.21756 0.0
H402 H 0.97685 0.05628 0.26826 0.0
H403 H 0.86612 0.09808 0.24844 0.0
H404 H 0.96045 0.14525 0.15433 0.0
H405 H 0.00936 0.15596 0.17261 0.0
H406 H 0.9925 0.16048 0.32123 0.0
H407 H 0.94343 0.15019 0.30381 0.0
C408 C 0.84147 0.16415 0.05536 0.0
C409 C 0.84557 0.19256 0.04984 0.0
C410 C 0.85021 0.15128 0.0968 0.0
C411 C 0.86283 0.16658 0.13407 0.0
C412 C 0.86539 0.19529 0.12985 0.0
C413 C 0.85673 0.20822 0.08806 0.0
C414 C 0.87594 0.15196 0.17459 0.0
C415 C 0.90411 0.15653 0.1847 0.0
C416 C 0.86183 0.13136 0.19936 0.0
C417 C 0.83156 0.12722 0.19343 0.0
C418 C 0.81339 0.14962 0.19831 0.0
C419 C 0.78492 0.1457 0.19249 0.0
C420 C 0.77434 0.11945 0.18198 0.0
C421 C 0.79221 0.09705 0.17735 0.0
C422 C 0.8207 0.10085 0.18312 0.0
C423 C 0.92479 0.07307 0.34263 0.0
C424 C 0.94895 0.06011 0.32691 0.0
C425 C 0.91069 0.09184 0.31405 0.0
C426 C 0.92032 0.09798 0.26899 0.0
C427 C 0.94407 0.08457 0.25267 0.0
C428 C 0.95842 0.06601 0.28153 0.0
C429 C 0.90523 0.11806 0.23881 0.0
C430 C 0.87675 0.11446 0.23066 0.0
C431 C 0.91885 0.14013 0.217 0.0
C432 C 0.94829 0.14672 0.22774 0.0
C433 C 0.96715 0.14867 0.19089 0.0
C434 C 0.99491 0.15464 0.20111 0.0
C435 C 0.00404 0.15882 0.24806 0.0
C436 C 0.98542 0.15714 0.28489 0.0
C437 C 0.95763 0.15121 0.27486 0.0
H438 H 0.02555 0.16341 0.2559 0.0
H439 H 0.7523 0.11646 0.17747 0.0
H440 H 0.36863 0.32576 0.61512 0.0
H441 H 0.3926 0.34477 0.68502 0.0
H442 H 0.31509 0.37286 0.74022 0.0
H443 H 0.29115 0.35583 0.66842 0.0
H444 H 0.34958 0.41134 0.75226 0.0
H445 H 0.35265 0.31653 0.78809 0.0
H446 H 0.36049 0.26683 0.77487 0.0
H447 H 0.44682 0.28187 0.75653 0.0
H448 H 0.43945 0.33172 0.769 0.0
H449 H 0.44582 0.40865 0.98024 0.0
H450 H 0.4165 0.38408 0.92166 0.0
H451 H 0.43097 0.4478 0.82042 0.0
H452 H 0.45923 0.473 0.87946 0.0
H453 H 0.42282 0.36101 0.84082 0.0
H454 H 0.37664 0.4579 0.749 0.0
H455 H 0.36423 0.50575 0.77028 0.0
H456 H 0.35522 0.48294 0.9154 0.0
H457 H 0.36718 0.43489 0.89489 0.0
C458 C 0.35662 0.33617 0.64187 0.0
C459 C 0.32791 0.33942 0.63574 0.0
C460 C 0.37036 0.34664 0.68235 0.0
C461 C 0.35567 0.35995 0.71837 0.0
C462 C 0.32691 0.36262 0.713 0.0
C463 C 0.31319 0.35257 0.67207 0.0
C464 C 0.37058 0.37249 0.76012 0.0
C465 C 0.36546 0.40023 0.77178 0.0
C466 C 0.39085 0.35791 0.78657 0.0
C467 C 0.39545 0.32791 0.77917 0.0
C468 C 0.37328 0.30927 0.78093 0.0
C469 C 0.37764 0.28106 0.77361 0.0
C470 C 0.40413 0.2712 0.76478 0.0
C471 C 0.42632 0.28953 0.76336 0.0
C472 C 0.42206 0.31777 0.77062 0.0
C473 C 0.44281 0.41736 0.94541 0.0
C474 C 0.4546 0.44288 0.93457 0.0
C475 C 0.42606 0.40329 0.91195 0.0
C476 C 0.42103 0.41434 0.86689 0.0
C477 C 0.43384 0.43923 0.85537 0.0
C478 C 0.45015 0.45354 0.88906 0.0
C479 C 0.40231 0.4 0.83195 0.0
C480 C 0.40674 0.37198 0.82157 0.0
C481 C 0.38066 0.41403 0.8079 0.0
C482 C 0.37305 0.44283 0.82043 0.0
C483 C 0.37187 0.46306 0.7854 0.0
C484 C 0.36495 0.49023 0.79735 0.0
C485 C 0.35902 0.49739 0.84419 0.0
C486 C 0.3599 0.47738 0.87916 0.0
C487 C 0.36678 0.45018 0.8674 0.0
H488 H 0.35369 0.51844 0.85337 0.0
H489 H 0.40746 0.24936 0.75912 0.0
H490 H 0.68781 0.69529 0.45657 0.0
H491 H 0.67071 0.66891 0.38655 0.0
H492 H 0.58707 0.68103 0.4312 0.0
H493 H 0.60397 0.70728 0.50064 0.0
H494 H 0.60064 0.62642 0.41938 0.0
H495 H 0.60891 0.71126 0.33389 0.0
H496 H 0.63353 0.75168 0.30427 0.0
H497 H 0.68983 0.69845 0.23151 0.0
H498 H 0.66575 0.65768 0.26126 0.0
H499 H 0.51818 0.57021 0.23422 0.0
H500 H 0.54078 0.60116 0.29213 0.0
H501 H 0.61893 0.58712 0.22605 0.0
H502 H 0.59638 0.55645 0.16722 0.0
H503 H 0.61252 0.64082 0.2475 0.0
H504 H 0.60469 0.55634 0.32949 0.0
H505 H 0.58145 0.51507 0.35897 0.0
H506 H 0.52683 0.56625 0.43938 0.0
H507 H 0.54949 0.60787 0.40983 0.0
C508 C 0.66577 0.69298 0.45052 0.0
C509 C 0.64719 0.70302 0.48412 0.0
C510 C 0.65603 0.67786 0.41069 0.0
C511 C 0.62763 0.6728 0.40403 0.0
C512 C 0.60906 0.68448 0.43593 0.0
C513 C 0.61872 0.6995 0.47549 0.0
C514 C 0.61717 0.65315 0.36696 0.0
C515 C 0.60296 0.62974 0.38175 0.0
C516 C 0.62121 0.65692 0.31805 0.0
C517 C 0.63573 0.68142 0.30028 0.0
C518 C 0.62671 0.70817 0.31198 0.0
C519 C 0.64053 0.73114 0.29507 0.0
C520 C 0.66329 0.72763 0.26615 0.0
C521 C 0.67223 0.70113 0.25398 0.0
C522 C 0.65849 0.67809 0.27083 0.0
C523 C 0.54019 0.57356 0.23201 0.0
C524 C 0.55546 0.56067 0.19617 0.0
C525 C 0.55311 0.59126 0.26523 0.0
C526 C 0.58162 0.59622 0.26376 0.0
C527 C 0.59692 0.58358 0.22786 0.0
C528 C 0.58399 0.56594 0.19442 0.0
C529 C 0.59531 0.61451 0.29996 0.0
C530 C 0.61029 0.63747 0.28512 0.0
C531 C 0.59226 0.61023 0.34902 0.0
C532 C 0.57865 0.58524 0.36711 0.0
C533 C 0.58759 0.55881 0.35318 0.0
C534 C 0.57454 0.53535 0.36995 0.0
C535 C 0.55264 0.53804 0.40094 0.0
C536 C 0.54378 0.5642 0.41533 0.0
C537 C 0.55674 0.58773 0.39862 0.0
H538 H 0.54255 0.51985 0.41387 0.0
H539 H 0.67395 0.74545 0.25308 0.0
H540 H 0.84917 0.14585 0.90142 0.0
H541 H 0.8707 0.11952 0.83819 0.0
H542 H 0.89784 0.19502 0.77557 0.0
H543 H 0.87779 0.22154 0.84069 0.0
H544 H 0.86286 0.11527 0.74888 0.0
H545 H 0.95835 0.18454 0.7199 0.0
H546 H 0.98855 0.21683 0.76563 0.0
H547 H 0.96885 0.1763 0.89452 0.0
H548 H 0.93886 0.14357 0.8495 0.0
H549 H 0.92526 0.07013 0.53928 0.0
H550 H 0.90493 0.09842 0.60156 0.0
H551 H 0.97269 0.07822 0.69683 0.0
H552 H 0.99378 0.05077 0.63381 0.0
H553 H 0.96086 0.12948 0.70887 0.0
H554 H 0.90766 0.04667 0.70242 0.0
H555 H 0.8795 0.00948 0.66518 0.0
H556 H 0.81811 0.0684 0.62263 0.0
H557 H 0.8461 0.10601 0.65911 0.0
C558 C 0.86003 0.15691 0.87459 0.0
C559 C 0.86211 0.18582 0.87661 0.0
C560 C 0.87208 0.1418 0.83809 0.0
C561 C 0.88624 0.15523 0.80242 0.0
C562 C 0.88748 0.18416 0.80322 0.0
C563 C 0.8757 0.19932 0.84016 0.0
C564 C 0.89981 0.13874 0.7648 0.0
C565 C 0.88428 0.11845 0.74008 0.0
C566 C 0.92793 0.14238 0.754 0.0
C567 C 0.94612 0.16182 0.78135 0.0
C568 C 0.96054 0.18248 0.75797 0.0
C569 C 0.97761 0.20086 0.78377 0.0
C570 C 0.98053 0.19868 0.83296 0.0
C571 C 0.96648 0.17804 0.85644 0.0
C572 C 0.94942 0.15959 0.83081 0.0
C573 C 0.93583 0.07168 0.57351 0.0
C574 C 0.96102 0.05805 0.58179 0.0
C575 C 0.92414 0.08781 0.60915 0.0
C576 C 0.937 0.09007 0.65421 0.0
C577 C 0.96236 0.07678 0.66237 0.0
C578 C 0.97435 0.06102 0.62641 0.0
C579 C 0.92386 0.10612 0.69283 0.0
C580 C 0.93943 0.12637 0.7176 0.0
C581 C 0.89604 0.10175 0.70496 0.0
C582 C 0.8791 0.07918 0.68311 0.0
C583 C 0.88825 0.05172 0.68484 0.0
C584 C 0.8723 0.03056 0.66391 0.0
C585 C 0.84707 0.03658 0.64145 0.0
C586 C 0.83768 0.06377 0.63999 0.0
C587 C 0.85356 0.08502 0.66082 0.0
H588 H 0.83475 0.02017 0.62527 0.0
H589 H 0.99374 0.21294 0.85287 0.0
H590 H 0.29327 0.35196 0.42733 0.0
H591 H 0.31974 0.36972 0.36157 0.0
H592 H 0.39247 0.32836 0.41542 0.0
H593 H 0.36616 0.31093 0.48135 0.0
H594 H 0.40283 0.38087 0.40371 0.0
H595 H 0.36078 0.30859 0.30969 0.0
H596 H 0.32252 0.2805 0.27564 0.0
H597 H 0.28853 0.35184 0.20801 0.0
H598 H 0.32639 0.38045 0.2422 0.0
H599 H 0.46122 0.40406 0.15362 0.0
H600 H 0.43444 0.37704 0.20833 0.0
H601 H 0.41615 0.45087 0.28888 0.0
H602 H 0.44312 0.47811 0.23461 0.0
H603 H 0.38044 0.37891 0.23117 0.0
H604 H 0.41481 0.43478 0.40553 0.0
H605 H 0.4551 0.46035 0.43863 0.0
H606 H 0.50822 0.41612 0.34451 0.0
H607 H 0.46832 0.39004 0.31133 0.0
C608 C 0.31468 0.346 0.42421 0.0
C609 C 0.32775 0.33023 0.45945 0.0
C610 C 0.32982 0.3562 0.38672 0.0
C611 C 0.35816 0.35048 0.3837 0.0
C612 C 0.37071 0.33321 0.41724 0.0
C613 C 0.35567 0.32319 0.45475 0.0
C614 C 0.37533 0.36466 0.34875 0.0
C615 C 0.39794 0.38032 0.36596 0.0
C616 C 0.36912 0.36385 0.29947 0.0
C617 C 0.3463 0.34671 0.27887 0.0
C618 C 0.34502 0.31834 0.28789 0.0
C619 C 0.32343 0.30231 0.26849 0.0
C620 C 0.30307 0.31439 0.23978 0.0
C621 C 0.3043 0.34251 0.2303 0.0
C622 C 0.32584 0.35864 0.24964 0.0
C623 C 0.45162 0.41461 0.18307 0.0
C624 C 0.45448 0.44329 0.18983 0.0
C625 C 0.43617 0.39911 0.21413 0.0
C626 C 0.42342 0.4119 0.25276 0.0
C627 C 0.42607 0.44053 0.25954 0.0
C628 C 0.4415 0.45608 0.22846 0.0
C629 C 0.40764 0.39524 0.28634 0.0
C630 C 0.38529 0.37929 0.26892 0.0
C631 C 0.41431 0.3954 0.33542 0.0
C632 C 0.43852 0.41066 0.35565 0.0
C633 C 0.43511 0.43044 0.39205 0.0
C634 C 0.45787 0.44503 0.4108 0.0
C635 C 0.48419 0.43993 0.39357 0.0
C636 C 0.48781 0.42013 0.35769 0.0
C637 C 0.46513 0.40546 0.33887 0.0
H638 H 0.50178 0.45127 0.40809 0.0
H639 H 0.28637 0.30195 0.22479 0.0
H640 H 0.18912 0.81158 0.82863 0.0
H641 H 0.16989 0.8372 0.76144 0.0
H642 H 0.09615 0.85357 0.83966 0.0
H643 H 0.1153 0.82821 0.90684 0.0
H644 H 0.12519 0.83192 0.70487 0.0
H645 H 0.07387 0.91791 0.81828 0.0
H646 H 0.08121 0.94131 0.89596 0.0
H647 H 0.16766 0.92238 0.89276 0.0
H648 H 0.16091 0.89926 0.81478 0.0
H649 H 0.02963 0.90561 0.56277 0.0
H650 H 0.05301 0.87901 0.62442 0.0
H651 H 0.10809 0.94734 0.65488 0.0
H652 H 0.08398 0.97446 0.59469 0.0
H653 H 0.09321 0.92777 0.73321 0.0
H654 H 0.12809 0.88714 0.59145 0.0
H655 H 0.1255 0.86529 0.51186 0.0
H656 H 0.08122 0.79685 0.56729 0.0
H657 H 0.08322 0.81847 0.64712 0.0
C658 C 0.1687 0.82043 0.83122 0.0
C659 C 0.15383 0.81819 0.87311 0.0
C660 C 0.15776 0.83506 0.79289 0.0
C661 C 0.13179 0.84766 0.79587 0.0
C662 C 0.11648 0.84452 0.837 0.0
C663 C 0.12745 0.83006 0.87535 0.0
C664 C 0.12089 0.86471 0.75658 0.0
C665 C 0.11822 0.85289 0.71095 0.0
C666 C 0.11247 0.8923 0.76435 0.0
C667 C 0.11681 0.90662 0.81088 0.0
C668 C 0.09446 0.91886 0.83405 0.0
C669 C 0.09852 0.93206 0.87815 0.0
C670 C 0.12487 0.93325 0.89935 0.0
C671 C 0.14724 0.92136 0.87639 0.0
C672 C 0.1433 0.90819 0.83226 0.0
C673 C 0.04679 0.91492 0.58249 0.0
C674 C 0.05499 0.94211 0.57385 0.0
C675 C 0.06025 0.89963 0.61758 0.0
C676 C 0.08264 0.91097 0.64386 0.0
C677 C 0.09089 0.93812 0.63513 0.0
C678 C 0.07711 0.95359 0.60066 0.0
C679 C 0.09694 0.89486 0.6814 0.0
C680 C 0.10024 0.90685 0.72686 0.0
C681 C 0.10667 0.86771 0.67309 0.0
C682 C 0.10562 0.85454 0.62519 0.0
C683 C 0.11766 0.86751 0.58661 0.0
C684 C 0.11631 0.85516 0.54146 0.0
C685 C 0.10316 0.82973 0.5345 0.0
C686 C 0.09138 0.81656 0.57272 0.0
C687 C 0.09265 0.82884 0.61794 0.0
H688 H 0.10212 0.8202 0.49951 0.0
H689 H 0.12796 0.94344 0.93352 0.0
loop_
_geom_bond_atom_site_label_1
_geom_bond_atom_site_label_2
_geom_bond_distance
_geom_bond_site_symmetry_2
_ccdc_geom_bond_type
H0 C3 0.929 . S
H1 C6 0.929 . S
H2 C8 0.930 . S
C3 H0 0.929 . S
C3 C4 1.398 1_554 S
C3 C5 1.396 . S
C4 C3 1.398 1_556 S
C4 C8 1.407 . S
C5 C3 1.396 . S
C5 C6 1.394 . S
C6 H1 0.929 . S
C6 C5 1.394 . S
C6 C7 1.382 1_554 S
C7 C6 1.382 1_556 S
C7 C8 1.392 . S
C7 N9 1.420 . S
C8 H2 0.930 . S
C8 C4 1.407 . S
C8 C7 1.392 . S
N9 C7 1.420 . S
N9 C10 1.244 1_556 S
C10 N9 1.244 1_554 S
H11 C14 0.929 . S
H12 C17 0.929 . S
H13 C19 0.930 . S
C14 H11 0.929 . S
C14 C15 1.398 . S
C14 C16 1.396 . S
C15 C14 1.398 . S
C15 C19 1.407 . S
C16 C14 1.396 . S
C16 C17 1.394 . S
C17 H12 0.929 . S
C17 C16 1.394 . S
C17 C18 1.382 . S
C18 C17 1.382 . S
C18 C19 1.392 . S
C18 N20 1.420 . S
C19 H13 0.930 . S
C19 C15 1.407 . S
C19 C18 1.392 . S
N20 C18 1.420 . S
N20 C21 1.244 . S
C21 N20 1.244 . S
H22 C25 0.929 . S
H23 C28 0.929 . S
H24 C30 0.930 . S
C25 H22 0.929 . S
C25 C26 1.398 1_554 S
C25 C27 1.396 . S
C26 C25 1.398 1_556 S
C26 C30 1.407 . S
C27 C25 1.396 . S
C27 C28 1.394 . S
C28 H23 0.929 . S
C28 C27 1.394 . S
C28 C29 1.382 1_554 S
C29 C28 1.382 1_556 S
C29 C30 1.392 . S
C29 N31 1.420 . S
C30 H24 0.930 . S
C30 C26 1.407 . S
C30 C29 1.392 . S
N31 C29 1.420 . S
N31 C32 1.244 1_556 S
C32 N31 1.244 1_554 S
H33 C36 0.929 . S
H34 C39 0.929 . S
H35 C41 0.930 . S
C36 H33 0.929 . S
C36 C37 1.398 . S
C36 C38 1.396 . S
C37 C36 1.398 . S
C37 C41 1.407 . S
C38 C36 1.396 . S
C38 C39 1.394 . S
C39 H34 0.929 . S
C39 C38 1.394 . S
C39 C40 1.382 . S
C40 C39 1.382 . S
C40 C41 1.392 . S
C40 N42 1.420 . S
C41 H35 0.930 . S
C41 C37 1.407 . S
C41 C40 1.392 . S
N42 C40 1.420 . S
N42 C43 1.244 . S
C43 N42 1.244 . S
O44 Zn45 1.953 1_565 S
O44 C60 1.225 . S
Zn45 O44 1.953 1_545 S
Zn45 O46 1.949 1_655 S
Zn45 O52 1.919 . S
Zn45 O57 1.924 . S
O46 Zn45 1.949 1_455 S
O46 Zn47 1.923 . S
O46 Zn48 1.950 1_545 S
O46 Zn49 1.945 . S
Zn47 O46 1.923 . S
Zn47 O50 1.933 . S
Zn47 O53 1.918 1_455 S
Zn47 O54 1.965 1_545 S
Zn48 O46 1.950 1_565 S
Zn48 O55 1.938 . S
Zn48 O56 1.906 . S
Zn48 O66 1.953 1_455 S
Zn49 O46 1.945 . S
Zn49 O51 1.932 . S
Zn49 O58 1.977 1_545 S
Zn49 O59 1.910 1_455 S
O50 Zn47 1.933 . S
O50 C61 1.226 . S
O51 Zn49 1.932 . S
O51 C61 1.307 . S
O52 Zn45 1.919 . S
O52 C63 1.253 . S
O53 Zn47 1.918 1_655 S
O53 C63 1.317 . S
O54 Zn47 1.965 1_565 S
O54 C62 1.303 . S
O55 Zn48 1.938 . S
O55 C62 1.247 . S
O56 Zn48 1.906 . S
O56 C64 1.304 . S
O57 Zn45 1.924 . S
O57 C65 1.311 . S
O58 Zn49 1.977 1_565 S
O58 C64 1.272 . S
O59 Zn49 1.910 1_655 S
O59 C65 1.231 . S
C60 O44 1.225 . S
C60 O66 1.298 . S
C61 O50 1.226 . S
C61 O51 1.307 . S
C62 O54 1.303 . S
C62 O55 1.247 . S
C63 O52 1.253 . S
C63 O53 1.317 . S
C64 O56 1.304 . S
C64 O58 1.272 . S
C65 O57 1.311 . S
C65 O59 1.231 . S
O66 Zn48 1.953 1_655 S
O66 C60 1.298 . S
O67 Zn68 1.953 . S
O67 C83 1.225 . S
Zn68 O67 1.953 . S
Zn68 O69 1.949 . S
Zn68 O75 1.919 1_554 S
Zn68 O80 1.924 . S
O69 Zn68 1.949 . S
O69 Zn70 1.923 1_554 S
O69 Zn71 1.950 . S
O69 Zn72 1.945 . S
Zn70 O69 1.923 1_556 S
Zn70 O73 1.933 . S
Zn70 O76 1.941 . S
Zn70 O77 1.965 . S
Zn71 O69 1.950 . S
Zn71 O78 1.938 1_554 S
Zn71 O79 1.906 . S
Zn71 O89 1.953 . S
Zn72 O69 1.945 . S
Zn72 O74 1.932 . S
Zn72 O81 1.977 . S
Zn72 O82 1.910 . S
O73 Zn70 1.933 . S
O73 C84 1.226 1_556 S
O74 Zn72 1.932 . S
O74 C84 1.307 . S
O75 Zn68 1.919 1_556 S
O75 C86 1.253 . S
O76 Zn70 1.941 . S
O76 C86 1.283 . S
O77 Zn70 1.965 . S
O77 C85 1.303 . S
O78 Zn71 1.938 1_556 S
O78 C85 1.247 . S
O79 Zn71 1.906 . S
O79 C87 1.304 . S
O80 Zn68 1.924 . S
O80 C88 1.311 . S
O81 Zn72 1.977 . S
O81 C87 1.272 . S
O82 Zn72 1.910 . S
O82 C88 1.231 . S
C83 O67 1.225 . S
C83 O89 1.298 . S
C84 O73 1.226 1_554 S
C84 O74 1.307 . S
C85 O77 1.303 . S
C85 O78 1.247 . S
C86 O75 1.253 . S
C86 O76 1.283 . S
C87 O79 1.304 . S
C87 O81 1.272 . S
C88 O80 1.311 . S
C88 O82 1.231 . S
O89 Zn71 1.953 . S
O89 C83 1.298 . S
H90 C108 0.951 . S
H91 C110 0.951 . S
H92 C112 0.950 . S
H93 C113 0.950 . S
H94 C115 0.950 . S
H95 C118 0.950 . S
H96 C119 0.950 . S
H97 C121 0.950 . S
H98 C122 0.950 . S
H99 C123 0.951 . S
H100 C125 0.951 . S
H101 C127 0.950 . S
H102 C128 0.950 . S
H103 C130 0.950 . S
H104 C133 0.950 . S
H105 C134 0.950 . S
H106 C136 0.950 . S
H107 C137 0.950 . S
C108 H90 0.951 . S
C108 C109 1.366 . S
C108 C110 1.388 . S
C109 C108 1.366 . S
C109 C113 1.385 . S
C110 H91 0.951 . S
C110 C108 1.388 . S
C110 C111 1.366 . S
C111 C110 1.366 . S
C111 C112 1.414 . S
C111 C114 1.499 . S
C112 H92 0.950 . S
C112 C111 1.414 . S
C112 C113 1.374 . S
C113 H93 0.950 . S
C113 C109 1.385 . S
C113 C112 1.374 . S
C114 C111 1.499 . S
C114 C115 1.373 . S
C114 C116 1.389 . S
C115 H94 0.950 . S
C115 C114 1.373 . S
C115 C131 1.377 . S
C116 C114 1.389 . S
C116 C117 1.524 . S
C116 C130 1.377 . S
C117 C116 1.524 . S
C117 C118 1.397 . S
C117 C122 1.363 . S
C118 H95 0.950 . S
C118 C117 1.397 . S
C118 C119 1.334 . S
C119 H96 0.950 . S
C119 C118 1.334 . S
C119 C120 1.287 . S
C120 C119 1.287 . S
C120 C121 1.524 . S
C120 H139 0.913 . S
C121 H97 0.950 . S
C121 C120 1.524 . S
C121 C122 1.415 . S
C122 H98 0.950 . S
C122 C117 1.363 . S
C122 C121 1.415 . S
C123 H99 0.951 . S
C123 C124 1.366 . S
C123 C125 1.388 . S
C124 C123 1.366 . S
C124 C128 1.385 . S
C125 H100 0.951 . S
C125 C123 1.388 . S
C125 C126 1.366 . S
C126 C125 1.366 . S
C126 C127 1.414 . S
C126 C129 1.499 . S
C127 H101 0.950 . S
C127 C126 1.414 . S
C127 C128 1.374 . S
C128 H102 0.950 . S
C128 C124 1.385 . S
C128 C127 1.374 . S
C129 C126 1.499 . S
C129 C130 1.373 . S
C129 C131 1.389 . S
C130 H103 0.950 . S
C130 C116 1.377 . S
C130 C129 1.373 . S
C131 C115 1.377 . S
C131 C129 1.389 . S
C131 C132 1.524 . S
C132 C131 1.524 . S
C132 C133 1.397 . S
C132 C137 1.363 . S
C133 H104 0.950 . S
C133 C132 1.397 . S
C133 C134 1.334 . S
C134 H105 0.950 . S
C134 C133 1.334 . S
C134 C135 1.287 . S
C135 C134 1.287 . S
C135 C136 1.524 . S
C135 H138 0.999 . S
C136 H106 0.950 . S
C136 C135 1.524 . S
C136 C137 1.415 . S
C137 H107 0.950 . S
C137 C132 1.363 . S
C137 C136 1.415 . S
H138 C135 0.999 . S
H139 C120 0.913 . S
H140 C158 0.951 . S
H141 C160 0.951 . S
H142 C162 0.950 . S
H143 C163 0.950 . S
H144 C165 0.950 . S
H145 C168 0.950 . S
H146 C169 0.950 . S
H147 C171 0.950 . S
H148 C172 0.950 . S
H149 C173 0.951 . S
H150 C175 0.951 . S
H151 C177 0.950 . S
H152 C178 0.950 . S
H153 C180 0.950 . S
H154 C183 0.950 . S
H155 C184 0.950 . S
H156 C186 0.950 . S
H157 C187 0.950 . S
C158 H140 0.951 . S
C158 C159 1.366 . S
C158 C160 1.388 . S
C159 C158 1.366 . S
C159 C163 1.385 . S
C160 H141 0.951 . S
C160 C158 1.388 . S
C160 C161 1.366 . S
C161 C160 1.366 . S
C161 C162 1.414 . S
C161 C164 1.499 . S
C162 H142 0.950 . S
C162 C161 1.414 . S
C162 C163 1.374 . S
C163 H143 0.950 . S
C163 C159 1.385 . S
C163 C162 1.374 . S
C164 C161 1.499 . S
C164 C165 1.373 . S
C164 C166 1.389 1_554 S
C165 H144 0.950 . S
C165 C164 1.373 . S
C165 C181 1.377 . S
C166 C164 1.389 1_556 S
C166 C167 1.524 . S
C166 C180 1.377 . S
C167 C166 1.524 . S
C167 C168 1.397 . S
C167 C172 1.363 . S
C168 H145 0.950 . S
C168 C167 1.397 . S
C168 C169 1.334 . S
C169 H146 0.950 . S
C169 C168 1.334 . S
C169 C170 1.287 . S
C170 C169 1.287 . S
C170 C171 1.524 . S
C170 H189 0.913 . S
C171 H147 0.950 . S
C171 C170 1.524 . S
C171 C172 1.415 . S
C172 H148 0.950 . S
C172 C167 1.363 . S
C172 C171 1.415 . S
C173 H149 0.951 . S
C173 C174 1.366 . S
C173 C175 1.388 . S
C174 C173 1.366 . S
C174 C178 1.385 . S
C175 H150 0.951 . S
C175 C173 1.388 . S
C175 C176 1.366 . S
C176 C175 1.366 . S
C176 C177 1.414 . S
C176 C179 1.499 . S
C177 H151 0.950 . S
C177 C176 1.414 . S
C177 C178 1.374 . S
C178 H152 0.950 . S
C178 C174 1.385 . S
C178 C177 1.374 . S
C179 C176 1.499 . S
C179 C180 1.373 1_554 S
C179 C181 1.389 . S
C180 H153 0.950 . S
C180 C166 1.377 . S
C180 C179 1.373 1_556 S
C181 C165 1.377 . S
C181 C179 1.389 . S
C181 C182 1.524 . S
C182 C181 1.524 . S
C182 C183 1.397 . S
C182 C187 1.363 . S
C183 H154 0.950 . S
C183 C182 1.397 . S
C183 C184 1.334 . S
C184 H155 0.950 . S
C184 C183 1.334 . S
C184 C185 1.287 . S
C185 C184 1.287 . S
C185 C186 1.524 . S
C185 H188 0.999 . S
C186 H156 0.950 . S
C186 C185 1.524 . S
C186 C187 1.415 . S
C187 H157 0.950 . S
C187 C182 1.363 . S
C187 C186 1.415 . S
H188 C185 0.999 . S
H189 C170 0.913 . S
H190 C208 0.951 . S
H191 C210 0.951 . S
H192 C212 0.950 . S
H193 C213 0.950 . S
H194 C215 0.950 . S
H195 C218 0.950 . S
H196 C219 0.950 . S
H197 C221 0.950 . S
H198 C222 0.950 . S
H199 C223 0.951 . S
H200 C225 0.951 . S
H201 C227 0.950 . S
H202 C228 0.950 . S
H203 C230 0.950 . S
H204 C233 0.950 . S
H205 C234 0.950 . S
H206 C236 0.950 . S
H207 C237 0.950 . S
C208 H190 0.951 . S
C208 C209 1.366 . S
C208 C210 1.388 . S
C209 C208 1.366 . S
C209 C213 1.385 . S
C210 H191 0.951 . S
C210 C208 1.388 . S
C210 C211 1.366 . S
C211 C210 1.366 . S
C211 C212 1.414 . S
C211 C214 1.499 . S
C212 H192 0.950 . S
C212 C211 1.414 . S
C212 C213 1.374 . S
C213 H193 0.950 . S
C213 C209 1.385 . S
C213 C212 1.374 . S
C214 C211 1.499 . S
C214 C215 1.373 . S
C214 C216 1.389 . S
C215 H194 0.950 . S
C215 C214 1.373 . S
C215 C231 1.377 . S
C216 C214 1.389 . S
C216 C217 1.524 . S
C216 C230 1.377 . S
C217 C216 1.524 . S
C217 C218 1.397 . S
C217 C222 1.363 . S
C218 H195 0.950 . S
C218 C217 1.397 . S
C218 C219 1.334 . S
C219 H196 0.950 . S
C219 C218 1.334 . S
C219 C220 1.287 . S
C220 C219 1.287 . S
C220 C221 1.524 . S
C220 H239 0.913 . S
C221 H197 0.950 . S
C221 C220 1.524 . S
C221 C222 1.415 . S
C222 H198 0.950 . S
C222 C217 1.363 . S
C222 C221 1.415 . S
C223 H199 0.951 . S
C223 C224 1.366 . S
C223 C225 1.388 . S
C224 C223 1.366 . S
C224 C228 1.385 . S
C225 H200 0.951 . S
C225 C223 1.388 . S
C225 C226 1.366 . S
C226 C225 1.366 . S
C226 C227 1.414 . S
C226 C229 1.499 . S
C227 H201 0.950 . S
C227 C226 1.414 . S
C227 C228 1.374 . S
C228 H202 0.950 . S
C228 C224 1.385 . S
C228 C227 1.374 . S
C229 C226 1.499 . S
C229 C230 1.373 . S
C229 C231 1.389 . S
C230 H203 0.950 . S
C230 C216 1.377 . S
C230 C229 1.373 . S
C231 C215 1.377 . S
C231 C229 1.389 . S
C231 C232 1.524 . S
C232 C231 1.524 . S
C232 C233 1.397 . S
C232 C237 1.363 . S
C233 H204 0.950 . S
C233 C232 1.397 . S
C233 C234 1.334 . S
C234 H205 0.950 . S
C234 C233 1.334 . S
C234 C235 1.287 . S
C235 C234 1.287 . S
C235 C236 1.524 . S
C235 H238 0.999 . S
C236 H206 0.950 . S
C236 C235 1.524 . S
C236 C237 1.415 . S
C237 H207 0.950 . S
C237 C232 1.363 . S
C237 C236 1.415 . S
H238 C235 0.999 . S
H239 C220 0.913 . S
H240 C258 0.951 . S
H241 C260 0.951 . S
H242 C262 0.950 . S
H243 C263 0.956 . S
H244 C265 0.950 . S
H245 C268 0.950 . S
H246 C269 0.950 . S
H247 C271 0.950 . S
H248 C272 0.950 . S
H249 C273 0.951 1_556 S
H250 C275 0.951 . S
H251 C277 0.950 . S
H252 C278 0.950 . S
H253 C280 0.950 . S
H254 C283 0.950 . S
H255 C284 0.950 . S
H256 C286 0.950 . S
H257 C287 0.950 . S
C258 H240 0.951 . S
C258 C259 1.366 . S
C258 C260 1.388 . S
C259 C258 1.366 . S
C259 C263 1.379 1_554 S
C260 H241 0.951 . S
C260 C258 1.388 . S
C260 C261 1.366 . S
C261 C260 1.366 . S
C261 C262 1.415 1_554 S
C261 C264 1.499 . S
C262 H242 0.950 . S
C262 C261 1.415 1_556 S
C262 C263 1.373 . S
C263 H243 0.956 . S
C263 C259 1.379 1_556 S
C263 C262 1.373 . S
C264 C261 1.499 . S
C264 C265 1.373 1_554 S
C264 C266 1.389 . S
C265 H244 0.950 . S
C265 C264 1.373 1_556 S
C265 C281 1.377 . S
C266 C264 1.389 . S
C266 C267 1.524 . S
C266 C280 1.377 . S
C267 C266 1.524 . S
C267 C268 1.397 . S
C267 C272 1.363 . S
C268 H245 0.950 . S
C268 C267 1.397 . S
C268 C269 1.334 . S
C269 H246 0.950 . S
C269 C268 1.334 . S
C269 C270 1.287 . S
C270 C269 1.287 . S
C270 C271 1.524 . S
C270 H289 0.913 . S
C271 H247 0.950 . S
C271 C270 1.524 . S
C271 C272 1.415 . S
C272 H248 0.950 . S
C272 C267 1.363 . S
C272 C271 1.415 . S
C273 H249 0.951 1_554 S
C273 C274 1.366 . S
C273 C275 1.388 1_554 S
C274 C273 1.366 . S
C274 C278 1.385 . S
C275 H250 0.951 . S
C275 C273 1.388 1_556 S
C275 C276 1.366 1_556 S
C276 C275 1.366 1_554 S
C276 C277 1.414 . S
C276 C279 1.499 . S
C277 H251 0.950 . S
C277 C276 1.414 . S
C277 C278 1.374 . S
C278 H252 0.950 . S
C278 C274 1.385 . S
C278 C277 1.374 . S
C279 C276 1.499 . S
C279 C280 1.373 . S
C279 C281 1.389 1_554 S
C280 H253 0.950 . S
C280 C266 1.377 . S
C280 C279 1.373 . S
C281 C265 1.377 . S
C281 C279 1.389 1_556 S
C281 C282 1.524 . S
C282 C281 1.524 . S
C282 C283 1.397 . S
C282 C287 1.363 . S
C283 H254 0.950 . S
C283 C282 1.397 . S
C283 C284 1.334 . S
C284 H255 0.950 . S
C284 C283 1.334 . S
C284 C285 1.287 . S
C285 C284 1.287 . S
C285 C286 1.524 . S
C285 H288 0.999 . S
C286 H256 0.950 . S
C286 C285 1.524 . S
C286 C287 1.415 . S
C287 H257 0.950 . S
C287 C282 1.363 . S
C287 C286 1.415 . S
H288 C285 0.999 . S
H289 C270 0.913 . S
H290 C308 0.951 . S
H291 C310 0.951 . S
H292 C312 0.950 . S
H293 C313 0.950 . S
H294 C315 0.950 . S
H295 C318 0.950 . S
H296 C319 0.950 . S
H297 C321 0.950 . S
H298 C322 0.950 . S
H299 C323 0.951 . S
H300 C325 0.951 . S
H301 C327 0.950 . S
H302 C328 0.950 . S
H303 C330 0.950 . S
H304 C333 0.950 . S
H305 C334 0.950 . S
H306 C336 0.950 . S
H307 C337 0.950 . S
C308 H290 0.951 . S
C308 C309 1.366 . S
C308 C310 1.388 . S
C309 C308 1.366 . S
C309 C313 1.385 . S
C310 H291 0.951 . S
C310 C308 1.388 . S
C310 C311 1.366 . S
C311 C310 1.366 . S
C311 C312 1.414 . S
C311 C314 1.499 . S
C312 H292 0.950 . S
C312 C311 1.414 . S
C312 C313 1.374 . S
C313 H293 0.950 . S
C313 C309 1.385 . S
C313 C312 1.374 . S
C314 C311 1.499 . S
C314 C315 1.373 . S
C314 C316 1.389 . S
C315 H294 0.950 . S
C315 C314 1.373 . S
C315 C331 1.377 . S
C316 C314 1.389 . S
C316 C317 1.524 . S
C316 C330 1.377 . S
C317 C316 1.524 . S
C317 C318 1.397 . S
C317 C322 1.363 . S
C318 H295 0.950 . S
C318 C317 1.397 . S
C318 C319 1.334 . S
C319 H296 0.950 . S
C319 C318 1.334 . S
C319 C320 1.287 . S
C320 C319 1.287 . S
C320 C321 1.524 . S
C320 H339 0.913 . S
C321 H297 0.950 . S
C321 C320 1.524 . S
C321 C322 1.415 . S
C322 H298 0.950 . S
C322 C317 1.363 . S
C322 C321 1.415 . S
C323 H299 0.951 . S
C323 C324 1.366 . S
C323 C325 1.388 . S
C324 C323 1.366 . S
C324 C328 1.385 . S
C325 H300 0.951 . S
C325 C323 1.388 . S
C325 C326 1.366 . S
C326 C325 1.366 . S
C326 C327 1.414 . S
C326 C329 1.499 . S
C327 H301 0.950 . S
C327 C326 1.414 . S
C327 C328 1.374 . S
C328 H302 0.950 . S
C328 C324 1.385 . S
C328 C327 1.374 . S
C329 C326 1.499 . S
C329 C330 1.373 . S
C329 C331 1.389 . S
C330 H303 0.950 . S
C330 C316 1.377 . S
C330 C329 1.373 . S
C331 C315 1.377 . S
C331 C329 1.389 . S
C331 C332 1.524 . S
C332 C331 1.524 . S
C332 C333 1.397 . S
C332 C337 1.363 . S
C333 H304 0.950 . S
C333 C332 1.397 . S
C333 C334 1.334 . S
C334 H305 0.950 . S
C334 C333 1.334 . S
C334 C335 1.287 . S
C335 C334 1.287 . S
C335 C336 1.524 . S
C335 H338 0.999 . S
C336 H306 0.950 . S
C336 C335 1.524 . S
C336 C337 1.415 . S
C337 H307 0.950 . S
C337 C332 1.363 . S
C337 C336 1.415 . S
H338 C335 0.999 . S
H339 C320 0.913 . S
H340 C358 0.951 . S
H341 C360 0.951 . S
H342 C362 0.950 . S
H343 C363 0.950 . S
H344 C365 0.950 . S
H345 C368 0.950 . S
H346 C369 0.950 . S
H347 C371 0.950 . S
H348 C372 0.950 . S
H349 C373 0.951 . S
H350 C375 0.951 . S
H351 C377 0.950 . S
H352 C378 0.950 . S
H353 C380 0.950 . S
H354 C383 0.950 . S
H355 C384 0.950 . S
H356 C386 0.950 . S
H357 C387 0.950 . S
C358 H340 0.951 . S
C358 C359 1.366 . S
C358 C360 1.388 . S
C359 C358 1.366 . S
C359 C363 1.385 . S
C360 H341 0.951 . S
C360 C358 1.388 . S
C360 C361 1.366 . S
C361 C360 1.366 . S
C361 C362 1.414 . S
C361 C364 1.499 . S
C362 H342 0.950 . S
C362 C361 1.414 . S
C362 C363 1.374 . S
C363 H343 0.950 . S
C363 C359 1.385 . S
C363 C362 1.374 . S
C364 C361 1.499 . S
C364 C365 1.373 . S
C364 C366 1.389 . S
C365 H344 0.950 . S
C365 C364 1.373 . S
C365 C381 1.377 . S
C366 C364 1.389 . S
C366 C367 1.524 . S
C366 C380 1.377 . S
C367 C366 1.524 . S
C367 C368 1.397 . S
C367 C372 1.363 . S
C368 H345 0.950 . S
C368 C367 1.397 . S
C368 C369 1.334 . S
C369 H346 0.950 . S
C369 C368 1.334 . S
C369 C370 1.287 . S
C370 C369 1.287 . S
C370 C371 1.524 . S
C370 H389 0.913 . S
C371 H347 0.950 . S
C371 C370 1.524 . S
C371 C372 1.415 . S
C372 H348 0.950 . S
C372 C367 1.363 . S
C372 C371 1.415 . S
C373 H349 0.951 . S
C373 C374 1.366 . S
C373 C375 1.388 . S
C374 C373 1.366 . S
C374 C378 1.385 . S
C375 H350 0.951 . S
C375 C373 1.388 . S
C375 C376 1.366 . S
C376 C375 1.366 . S
C376 C377 1.414 . S
C376 C379 1.499 . S
C377 H351 0.950 . S
C377 C376 1.414 . S
C377 C378 1.374 . S
C378 H352 0.950 . S
C378 C374 1.385 . S
C378 C377 1.374 . S
C379 C376 1.499 . S
C379 C380 1.373 . S
C379 C381 1.389 . S
C380 H353 0.950 . S
C380 C366 1.377 . S
C380 C379 1.373 . S
C381 C365 1.377 . S
C381 C379 1.389 . S
C381 C382 1.524 . S
C382 C381 1.524 . S
C382 C383 1.397 . S
C382 C387 1.363 . S
C383 H354 0.950 . S
C383 C382 1.397 . S
C383 C384 1.334 . S
C384 H355 0.950 . S
C384 C383 1.334 . S
C384 C385 1.287 . S
C385 C384 1.287 . S
C385 C386 1.524 . S
C385 H388 0.999 . S
C386 H356 0.950 . S
C386 C385 1.524 . S
C386 C387 1.415 . S
C387 H357 0.950 . S
C387 C382 1.363 . S
C387 C386 1.415 . S
H388 C385 0.999 . S
H389 C370 0.913 . S
H390 C408 0.951 . S
H391 C410 0.951 . S
H392 C412 0.950 . S
H393 C413 0.950 . S
H394 C415 0.950 . S
H395 C418 0.950 . S
H396 C419 0.950 . S
H397 C421 0.950 . S
H398 C422 0.950 . S
H399 C423 0.951 . S
H400 C425 0.951 . S
H401 C427 0.950 . S
H402 C428 0.950 . S
H403 C430 0.950 . S
H404 C433 0.950 . S
H405 C434 0.950 . S
H406 C436 0.950 . S
H407 C437 0.950 . S
C408 H390 0.951 . S
C408 C409 1.366 . S
C408 C410 1.388 . S
C409 C408 1.366 . S
C409 C413 1.385 . S
C410 H391 0.951 . S
C410 C408 1.388 . S
C410 C411 1.366 . S
C411 C410 1.366 . S
C411 C412 1.414 . S
C411 C414 1.499 . S
C412 H392 0.950 . S
C412 C411 1.414 . S
C412 C413 1.374 . S
C413 H393 0.950 . S
C413 C409 1.385 . S
C413 C412 1.374 . S
C414 C411 1.499 . S
C414 C415 1.373 . S
C414 C416 1.389 . S
C415 H394 0.950 . S
C415 C414 1.373 . S
C415 C431 1.377 . S
C416 C414 1.389 . S
C416 C417 1.524 . S
C416 C430 1.377 . S
C417 C416 1.524 . S
C417 C418 1.397 . S
C417 C422 1.363 . S
C418 H395 0.950 . S
C418 C417 1.397 . S
C418 C419 1.334 . S
C419 H396 0.950 . S
C419 C418 1.334 . S
C419 C420 1.287 . S
C420 C419 1.287 . S
C420 C421 1.524 . S
C420 H439 0.913 . S
C421 H397 0.950 . S
C421 C420 1.524 . S
C421 C422 1.415 . S
C422 H398 0.950 . S
C422 C417 1.363 . S
C422 C421 1.415 . S
C423 H399 0.951 . S
C423 C424 1.366 . S
C423 C425 1.388 . S
C424 C423 1.366 . S
C424 C428 1.385 . S
C425 H400 0.951 . S
C425 C423 1.388 . S
C425 C426 1.366 . S
C426 C425 1.366 . S
C426 C427 1.414 . S
C426 C429 1.499 . S
C427 H401 0.950 . S
C427 C426 1.414 . S
C427 C428 1.374 . S
C428 H402 0.950 . S
C428 C424 1.385 . S
C428 C427 1.374 . S
C429 C426 1.499 . S
C429 C430 1.373 . S
C429 C431 1.389 . S
C430 H403 0.950 . S
C430 C416 1.377 . S
C430 C429 1.373 . S
C431 C415 1.377 . S
C431 C429 1.389 . S
C431 C432 1.524 . S
C432 C431 1.524 . S
C432 C433 1.397 . S
C432 C437 1.363 . S
C433 H404 0.950 . S
C433 C432 1.397 . S
C433 C434 1.334 . S
C434 H405 0.950 . S
C434 C433 1.334 . S
C434 C435 1.287 . S
C435 C434 1.287 . S
C435 C436 1.524 . S
C435 H438 0.999 . S
C436 H406 0.950 . S
C436 C435 1.524 . S
C436 C437 1.415 . S
C437 H407 0.950 . S
C437 C432 1.363 . S
C437 C436 1.415 . S
H438 C435 0.999 . S
H439 C420 0.913 . S
H440 C458 0.951 . S
H441 C460 0.951 . S
H442 C462 0.950 . S
H443 C463 0.950 . S
H444 C465 0.950 . S
H445 C468 0.950 . S
H446 C469 0.950 . S
H447 C471 0.950 . S
H448 C472 0.950 . S
H449 C473 0.951 . S
H450 C475 0.951 . S
H451 C477 0.950 . S
H452 C478 0.950 . S
H453 C480 0.950 . S
H454 C483 0.950 . S
H455 C484 0.950 . S
H456 C486 0.950 . S
H457 C487 0.950 . S
C458 H440 0.951 . S
C458 C459 1.366 . S
C458 C460 1.388 . S
C459 C458 1.366 . S
C459 C463 1.385 . S
C460 H441 0.951 . S
C460 C458 1.388 . S
C460 C461 1.366 . S
C461 C460 1.366 . S
C461 C462 1.414 . S
C461 C464 1.499 . S
C462 H442 0.950 . S
C462 C461 1.414 . S
C462 C463 1.374 . S
C463 H443 0.950 . S
C463 C459 1.385 . S
C463 C462 1.374 . S
C464 C461 1.499 . S
C464 C465 1.373 . S
C464 C466 1.389 . S
C465 H444 0.950 . S
C465 C464 1.373 . S
C465 C481 1.377 . S
C466 C464 1.389 . S
C466 C467 1.524 . S
C466 C480 1.377 . S
C467 C466 1.524 . S
C467 C468 1.397 . S
C467 C472 1.363 . S
C468 H445 0.950 . S
C468 C467 1.397 . S
C468 C469 1.334 . S
C469 H446 0.950 . S
C469 C468 1.334 . S
C469 C470 1.287 . S
C470 C469 1.287 . S
C470 C471 1.524 . S
C470 H489 0.913 . S
C471 H447 0.950 . S
C471 C470 1.524 . S
C471 C472 1.415 . S
C472 H448 0.950 . S
C472 C467 1.363 . S
C472 C471 1.415 . S
C473 H449 0.951 . S
C473 C474 1.366 . S
C473 C475 1.388 . S
C474 C473 1.366 . S
C474 C478 1.385 . S
C475 H450 0.951 . S
C475 C473 1.388 . S
C475 C476 1.366 . S
C476 C475 1.366 . S
C476 C477 1.414 . S
C476 C479 1.499 . S
C477 H451 0.950 . S
C477 C476 1.414 . S
C477 C478 1.374 . S
C478 H452 0.950 . S
C478 C474 1.385 . S
C478 C477 1.374 . S
C479 C476 1.499 . S
C479 C480 1.373 . S
C479 C481 1.389 . S
C480 H453 0.950 . S
C480 C466 1.377 . S
C480 C479 1.373 . S
C481 C465 1.377 . S
C481 C479 1.389 . S
C481 C482 1.524 . S
C482 C481 1.524 . S
C482 C483 1.397 . S
C482 C487 1.363 . S
C483 H454 0.950 . S
C483 C482 1.397 . S
C483 C484 1.334 . S
C484 H455 0.950 . S
C484 C483 1.334 . S
C484 C485 1.287 . S
C485 C484 1.287 . S
C485 C486 1.524 . S
C485 H488 0.999 . S
C486 H456 0.950 . S
C486 C485 1.524 . S
C486 C487 1.415 . S
C487 H457 0.950 . S
C487 C482 1.363 . S
C487 C486 1.415 . S
H488 C485 0.999 . S
H489 C470 0.913 . S
H490 C508 0.951 . S
H491 C510 0.951 . S
H492 C512 0.950 . S
H493 C513 0.950 . S
H494 C515 0.950 . S
H495 C518 0.950 . S
H496 C519 0.950 . S
H497 C521 0.950 . S
H498 C522 0.950 . S
H499 C523 0.951 . S
H500 C525 0.951 . S
H501 C527 0.950 . S
H502 C528 0.950 . S
H503 C530 0.950 . S
H504 C533 0.950 . S
H505 C534 0.950 . S
H506 C536 0.950 . S
H507 C537 0.950 . S
C508 H490 0.951 . S
C508 C509 1.366 . S
C508 C510 1.388 . S
C509 C508 1.366 . S
C509 C513 1.385 . S
C510 H491 0.951 . S
C510 C508 1.388 . S
C510 C511 1.366 . S
C511 C510 1.366 . S
C511 C512 1.414 . S
C511 C514 1.499 . S
C512 H492 0.950 . S
C512 C511 1.414 . S
C512 C513 1.374 . S
C513 H493 0.950 . S
C513 C509 1.385 . S
C513 C512 1.374 . S
C514 C511 1.499 . S
C514 C515 1.373 . S
C514 C516 1.389 . S
C515 H494 0.950 . S
C515 C514 1.373 . S
C515 C531 1.377 . S
C516 C514 1.389 . S
C516 C517 1.524 . S
C516 C530 1.377 . S
C517 C516 1.524 . S
C517 C518 1.397 . S
C517 C522 1.363 . S
C518 H495 0.950 . S
C518 C517 1.397 . S
C518 C519 1.334 . S
C519 H496 0.950 . S
C519 C518 1.334 . S
C519 C520 1.287 . S
C520 C519 1.287 . S
C520 C521 1.524 . S
C520 H539 0.913 . S
C521 H497 0.950 . S
C521 C520 1.524 . S
C521 C522 1.415 . S
C522 H498 0.950 . S
C522 C517 1.363 . S
C522 C521 1.415 . S
C523 H499 0.951 . S
C523 C524 1.366 . S
C523 C525 1.388 . S
C524 C523 1.366 . S
C524 C528 1.385 . S
C525 H500 0.951 . S
C525 C523 1.388 . S
C525 C526 1.366 . S
C526 C525 1.366 . S
C526 C527 1.414 . S
C526 C529 1.499 . S
C527 H501 0.950 . S
C527 C526 1.414 . S
C527 C528 1.374 . S
C528 H502 0.950 . S
C528 C524 1.385 . S
C528 C527 1.374 . S
C529 C526 1.499 . S
C529 C530 1.373 . S
C529 C531 1.389 . S
C530 H503 0.950 . S
C530 C516 1.377 . S
C530 C529 1.373 . S
C531 C515 1.377 . S
C531 C529 1.389 . S
C531 C532 1.524 . S
C532 C531 1.524 . S
C532 C533 1.397 . S
C532 C537 1.363 . S
C533 H504 0.950 . S
C533 C532 1.397 . S
C533 C534 1.334 . S
C534 H505 0.950 . S
C534 C533 1.334 . S
C534 C535 1.287 . S
C535 C534 1.287 . S
C535 C536 1.524 . S
C535 H538 0.999 . S
C536 H506 0.950 . S
C536 C535 1.524 . S
C536 C537 1.415 . S
C537 H507 0.950 . S
C537 C532 1.363 . S
C537 C536 1.415 . S
H538 C535 0.999 . S
H539 C520 0.913 . S
H540 C558 0.951 . S
H541 C560 0.951 . S
H542 C562 0.950 . S
H543 C563 0.950 . S
H544 C565 0.950 . S
H545 C568 0.950 . S
H546 C569 0.950 . S
H547 C571 0.950 . S
H548 C572 0.950 . S
H549 C573 0.951 . S
H550 C575 0.951 . S
H551 C577 0.950 . S
H552 C578 0.950 . S
H553 C580 0.950 . S
H554 C583 0.950 . S
H555 C584 0.950 . S
H556 C586 0.950 . S
H557 C587 0.950 . S
C558 H540 0.951 . S
C558 C559 1.366 . S
C558 C560 1.388 . S
C559 C558 1.366 . S
C559 C563 1.385 . S
C560 H541 0.951 . S
C560 C558 1.388 . S
C560 C561 1.366 . S
C561 C560 1.366 . S
C561 C562 1.414 . S
C561 C564 1.499 . S
C562 H542 0.950 . S
C562 C561 1.414 . S
C562 C563 1.374 . S
C563 H543 0.950 . S
C563 C559 1.385 . S
C563 C562 1.374 . S
C564 C561 1.499 . S
C564 C565 1.373 . S
C564 C566 1.389 . S
C565 H544 0.950 . S
C565 C564 1.373 . S
C565 C581 1.377 . S
C566 C564 1.389 . S
C566 C567 1.524 . S
C566 C580 1.377 . S
C567 C566 1.524 . S
C567 C568 1.397 . S
C567 C572 1.363 . S
C568 H545 0.950 . S
C568 C567 1.397 . S
C568 C569 1.334 . S
C569 H546 0.950 . S
C569 C568 1.334 . S
C569 C570 1.287 . S
C570 C569 1.287 . S
C570 C571 1.524 . S
C570 H589 0.913 . S
C571 H547 0.950 . S
C571 C570 1.524 . S
C571 C572 1.415 . S
C572 H548 0.950 . S
C572 C567 1.363 . S
C572 C571 1.415 . S
C573 H549 0.951 . S
C573 C574 1.366 . S
C573 C575 1.388 . S
C574 C573 1.366 . S
C574 C578 1.385 . S
C575 H550 0.951 . S
C575 C573 1.388 . S
C575 C576 1.366 . S
C576 C575 1.366 . S
C576 C577 1.414 . S
C576 C579 1.499 . S
C577 H551 0.950 . S
C577 C576 1.414 . S
C577 C578 1.374 . S
C578 H552 0.950 . S
C578 C574 1.385 . S
C578 C577 1.374 . S
C579 C576 1.499 . S
C579 C580 1.373 . S
C579 C581 1.389 . S
C580 H553 0.950 . S
C580 C566 1.377 . S
C580 C579 1.373 . S
C581 C565 1.377 . S
C581 C579 1.389 . S
C581 C582 1.524 . S
C582 C581 1.524 . S
C582 C583 1.397 . S
C582 C587 1.363 . S
C583 H554 0.950 . S
C583 C582 1.397 . S
C583 C584 1.334 . S
C584 H555 0.950 . S
C584 C583 1.334 . S
C584 C585 1.287 . S
C585 C584 1.287 . S
C585 C586 1.524 . S
C585 H588 0.999 . S
C586 H556 0.950 . S
C586 C585 1.524 . S
C586 C587 1.415 . S
C587 H557 0.950 . S
C587 C582 1.363 . S
C587 C586 1.415 . S
H588 C585 0.999 . S
H589 C570 0.913 . S
H590 C608 0.951 . S
H591 C610 0.951 . S
H592 C612 0.950 . S
H593 C613 0.950 . S
H594 C615 0.950 . S
H595 C618 0.950 . S
H596 C619 0.950 . S
H597 C621 0.950 . S
H598 C622 0.950 . S
H599 C623 0.951 . S
H600 C625 0.951 . S
H601 C627 0.950 . S
H602 C628 0.950 . S
H603 C630 0.950 . S
H604 C633 0.950 . S
H605 C634 0.950 . S
H606 C636 0.950 . S
H607 C637 0.950 . S
C608 H590 0.951 . S
C608 C609 1.366 . S
C608 C610 1.388 . S
C609 C608 1.366 . S
C609 C613 1.385 . S
C610 H591 0.951 . S
C610 C608 1.388 . S
C610 C611 1.366 . S
C611 C610 1.366 . S
C611 C612 1.414 . S
C611 C614 1.499 . S
C612 H592 0.950 . S
C612 C611 1.414 . S
C612 C613 1.374 . S
C613 H593 0.950 . S
C613 C609 1.385 . S
C613 C612 1.374 . S
C614 C611 1.499 . S
C614 C615 1.373 . S
C614 C616 1.389 . S
C615 H594 0.950 . S
C615 C614 1.373 . S
C615 C631 1.377 . S
C616 C614 1.389 . S
C616 C617 1.524 . S
C616 C630 1.377 . S
C617 C616 1.524 . S
C617 C618 1.397 . S
C617 C622 1.363 . S
C618 H595 0.950 . S
C618 C617 1.397 . S
C618 C619 1.334 . S
C619 H596 0.950 . S
C619 C618 1.334 . S
C619 C620 1.287 . S
C620 C619 1.287 . S
C620 C621 1.524 . S
C620 H639 0.913 . S
C621 H597 0.950 . S
C621 C620 1.524 . S
C621 C622 1.415 . S
C622 H598 0.950 . S
C622 C617 1.363 . S
C622 C621 1.415 . S
C623 H599 0.951 . S
C623 C624 1.366 . S
C623 C625 1.388 . S
C624 C623 1.366 . S
C624 C628 1.385 . S
C625 H600 0.951 . S
C625 C623 1.388 . S
C625 C626 1.366 . S
C626 C625 1.366 . S
C626 C627 1.414 . S
C626 C629 1.499 . S
C627 H601 0.950 . S
C627 C626 1.414 . S
C627 C628 1.374 . S
C628 H602 0.950 . S
C628 C624 1.385 . S
C628 C627 1.374 . S
C629 C626 1.499 . S
C629 C630 1.373 . S
C629 C631 1.389 . S
C630 H603 0.950 . S
C630 C616 1.377 . S
C630 C629 1.373 . S
C631 C615 1.377 . S
C631 C629 1.389 . S
C631 C632 1.524 . S
C632 C631 1.524 . S
C632 C633 1.397 . S
C632 C637 1.363 . S
C633 H604 0.950 . S
C633 C632 1.397 . S
C633 C634 1.334 . S
C634 H605 0.950 . S
C634 C633 1.334 . S
C634 C635 1.287 . S
C635 C634 1.287 . S
C635 C636 1.524 . S
C635 H638 0.999 . S
C636 H606 0.950 . S
C636 C635 1.524 . S
C636 C637 1.415 . S
C637 H607 0.950 . S
C637 C632 1.363 . S
C637 C636 1.415 . S
H638 C635 0.999 . S
H639 C620 0.913 . S
H640 C658 0.951 . S
H641 C660 0.951 . S
H642 C662 0.950 . S
H643 C663 0.950 . S
H644 C665 0.950 . S
H645 C668 0.950 . S
H646 C669 0.950 . S
H647 C671 0.950 . S
H648 C672 0.950 . S
H649 C673 0.951 . S
H650 C675 0.951 . S
H651 C677 0.950 . S
H652 C678 0.950 . S
H653 C680 0.950 . S
H654 C683 0.950 . S
H655 C684 0.950 . S
H656 C686 0.950 . S
H657 C687 0.950 . S
C658 H640 0.951 . S
C658 C659 1.366 . S
C658 C660 1.388 . S
C659 C658 1.366 . S
C659 C663 1.385 . S
C660 H641 0.951 . S
C660 C658 1.388 . S
C660 C661 1.366 . S
C661 C660 1.366 . S
C661 C662 1.414 . S
C661 C664 1.499 . S
C662 H642 0.950 . S
C662 C661 1.414 . S
C662 C663 1.374 . S
C663 H643 0.950 . S
C663 C659 1.385 . S
C663 C662 1.374 . S
C664 C661 1.499 . S
C664 C665 1.373 . S
C664 C666 1.389 . S
C665 H644 0.950 . S
C665 C664 1.373 . S
C665 C681 1.377 . S
C666 C664 1.389 . S
C666 C667 1.524 . S
C666 C680 1.377 . S
C667 C666 1.524 . S
C667 C668 1.397 . S
C667 C672 1.363 . S
C668 H645 0.950 . S
C668 C667 1.397 . S
C668 C669 1.334 . S
C669 H646 0.950 . S
C669 C668 1.334 . S
C669 C670 1.287 . S
C670 C669 1.287 . S
C670 C671 1.524 . S
C670 H689 0.913 . S
C671 H647 0.950 . S
C671 C670 1.524 . S
C671 C672 1.415 . S
C672 H648 0.950 . S
C672 C667 1.363 . S
C672 C671 1.415 . S
C673 H649 0.951 . S
C673 C674 1.366 . S
C673 C675 1.388 . S
C674 C673 1.366 . S
C674 C678 1.385 . S
C675 H650 0.951 . S
C675 C673 1.388 . S
C675 C676 1.366 . S
C676 C675 1.366 . S
C676 C677 1.414 . S
C676 C679 1.499 . S
C677 H651 0.950 . S
C677 C676 1.414 . S
C677 C678 1.374 . S
C678 H652 0.950 . S
C678 C674 1.385 . S
C678 C677 1.374 . S
C679 C676 1.499 . S
C679 C680 1.373 . S
C679 C681 1.389 . S
C680 H653 0.950 . S
C680 C666 1.377 . S
C680 C679 1.373 . S
C681 C665 1.377 . S
C681 C679 1.389 . S
C681 C682 1.524 . S
C682 C681 1.524 . S
C682 C683 1.397 . S
C682 C687 1.363 . S
C683 H654 0.950 . S
C683 C682 1.397 . S
C683 C684 1.334 . S
C684 H655 0.950 . S
C684 C683 1.334 . S
C684 C685 1.287 . S
C685 C684 1.287 . S
C685 C686 1.524 . S
C685 H688 0.999 . S
C686 H656 0.950 . S
C686 C685 1.524 . S
C686 C687 1.415 . S
C687 H657 0.950 . S
C687 C682 1.363 . S
C687 C686 1.415 . S
H688 C685 0.999 . S
H689 C670 0.913 . S
C124 C61 1.481 . S
C109 C43 1.480 . S
C159 C10 1.482 . S
C174 C84 1.483 . S
C209 C21 1.519 . S
C224 C60 1.523 . S
C259 C32 1.519 . S
C274 C83 1.522 . S
C324 C64 1.465 . S
C309 C5 1.481 . S
C374 C86 1.492 . S
C359 C15 1.538 . S
C409 C27 1.500 . S
C424 C65 1.472 . S
C459 C38 1.514 . S
C474 C85 1.484 . S
C524 C88 1.384 . S
C509 C16 1.410 . S
C574 C63 1.411 . S
C559 C26 1.457 . S
C624 C87 1.380 . S
C609 C37 1.412 . S
C659 C4 1.437 . S
C674 C62 1.396 . S
