# Generated by pormake.
# Topology zzz, (3,6)-cn, num edge types: 1
# Building blocks:
#     Node 0, Type 0, BuildingBlock: MIDCAF_clean_linker_0, # of connection points: 3
#     Node 1, Type 0, BuildingBlock: MIDCAF_clean_linker_0, # of connection points: 3
#     Node 2, Type 0, BuildingBlock: MIDCAF_clean_linker_0, # of connection points: 3
#     Node 3, Type 0, BuildingBlock: MIDCAF_clean_linker_0, # of connection points: 3
#     Node 4, Type 0, BuildingBlock: MIDCAF_clean_linker_0, # of connection points: 3
#     Node 5, Type 0, BuildingBlock: MIDCAF_clean_linker_0, # of connection points: 3
#     Node 6, Type 0, BuildingBlock: MIDCAF_clean_linker_0, # of connection points: 3
#     Node 7, Type 0, BuildingBlock: MIDCAF_clean_linker_0, # of connection points: 3
#     Node 8, Type 1, BuildingBlock: MIFKUJ_clean_sbu_0, # of connection points: 6
#     Node 9, Type 1, BuildingBlock: MIFKUJ_clean_sbu_0, # of connection points: 6
#     Node 10, Type 1, BuildingBlock: MIFKUJ_clean_sbu_0, # of connection points: 6
#     Node 11, Type 1, BuildingBlock: MIFKUJ_clean_sbu_0, # of connection points: 6
#     Edge 12, Type (0, 1), BuildingBlock: ZUJKAS_clean_linker_0, # of connection points: 2
#     Edge 13, Type (0, 1), BuildingBlock: ZUJKAS_clean_linker_0, # of connection points: 2
#     Edge 14, Type (0, 1), BuildingBlock: ZUJKAS_clean_linker_0, # of connection points: 2
#     Edge 15, Type (0, 1), BuildingBlock: ZUJKAS_clean_linker_0, # of connection points: 2
#     Edge 16, Type (0, 1), BuildingBlock: ZUJKAS_clean_linker_0, # of connection points: 2
#     Edge 17, Type (0, 1), BuildingBlock: ZUJKAS_clean_linker_0, # of connection points: 2
#     Edge 18, Type (0, 1), BuildingBlock: ZUJKAS_clean_linker_0, # of connection points: 2
#     Edge 19, Type (0, 1), BuildingBlock: ZUJKAS_clean_linker_0, # of connection points: 2
#     Edge 20, Type (0, 1), BuildingBlock: ZUJKAS_clean_linker_0, # of connection points: 2
#     Edge 21, Type (0, 1), BuildingBlock: ZUJKAS_clean_linker_0, # of connection points: 2
#     Edge 22, Type (0, 1), BuildingBlock: ZUJKAS_clean_linker_0, # of connection points: 2
#     Edge 23, Type (0, 1), BuildingBlock: ZUJKAS_clean_linker_0, # of connection points: 2
#     Edge 24, Type (0, 1), BuildingBlock: ZUJKAS_clean_linker_0, # of connection points: 2
#     Edge 25, Type (0, 1), BuildingBlock: ZUJKAS_clean_linker_0, # of connection points: 2
#     Edge 26, Type (0, 1), BuildingBlock: ZUJKAS_clean_linker_0, # of connection points: 2
#     Edge 27, Type (0, 1), BuildingBlock: ZUJKAS_clean_linker_0, # of connection points: 2
#     Edge 28, Type (0, 1), BuildingBlock: ZUJKAS_clean_linker_0, # of connection points: 2
#     Edge 29, Type (0, 1), BuildingBlock: ZUJKAS_clean_linker_0, # of connection points: 2
#     Edge 30, Type (0, 1), BuildingBlock: ZUJKAS_clean_linker_0, # of connection points: 2
#     Edge 31, Type (0, 1), BuildingBlock: ZUJKAS_clean_linker_0, # of connection points: 2
#     Edge 32, Type (0, 1), BuildingBlock: ZUJKAS_clean_linker_0, # of connection points: 2
#     Edge 33, Type (0, 1), BuildingBlock: ZUJKAS_clean_linker_0, # of connection points: 2
#     Edge 34, Type (0, 1), BuildingBlock: ZUJKAS_clean_linker_0, # of connection points: 2
#     Edge 35, Type (0, 1), BuildingBlock: ZUJKAS_clean_linker_0, # of connection points: 2
# Relax obj value: 0.305
# Max RMSD: 0.218
# Mean RMSD: 0.194
data_MOF--net-zzz--node1-MIFKUJ_clean_sbu_0--node2-MIDCAF_clean_linker_0--edge1-ZUJKAS_clean_linker_0
_symmetry_space_group_name_H-M    P1
_symmetry_Int_Tables_number       1
_symmetry_cell_setting            triclinic
loop_
_symmetry_equiv_pos_as_xyz
'x, y, z'
_cell_length_a     70.11563
_cell_length_b     71.531595
_cell_length_c     26.088875
_cell_angle_alpha  89.235485
_cell_angle_beta   89.76743
_cell_angle_gamma 90.725028
loop_
_atom_site_label
_atom_site_type_symbol
_atom_site_fract_x
_atom_site_fract_y
_atom_site_fract_z
_atom_type_partial_charge
C0 C 0.7767 0.5983 0.23626 0.0
C1 C 0.77066 0.58369 0.26928 0.0
C2 C 0.75361 0.57397 0.25783 0.0
C3 C 0.74406 0.57744 0.21161 0.0
H4 H 0.69249 0.57304 0.10721 0.0
H5 H 0.66085 0.56638 0.07146 0.0
H6 H 0.68079 0.58495 0.92221 0.0
H7 H 0.71207 0.59161 0.95748 0.0
H8 H 0.75651 0.57121 0.94024 0.0
H9 H 0.78339 0.55923 0.89151 0.0
H10 H 0.82223 0.57966 0.00656 0.0
H11 H 0.79553 0.59149 0.05552 0.0
H12 H 0.77328 0.61189 0.16352 0.0
H13 H 0.78978 0.60603 0.24338 0.0
H14 H 0.7484 0.56283 0.28288 0.0
H15 H 0.73199 0.56864 0.20153 0.0
N16 N 0.72813 0.5874 0.10539 0.0
N17 N 0.73934 0.58415 0.02077 0.0
N18 N 0.76095 0.58878 0.08724 0.0
C19 C 0.72452 0.58513 0.05445 0.0
C20 C 0.7576 0.5859 0.03695 0.0
C21 C 0.74645 0.58962 0.12159 0.0
C22 C 0.70482 0.58273 0.03512 0.0
C23 C 0.68999 0.57593 0.06696 0.0
C24 C 0.67193 0.57203 0.04647 0.0
C25 C 0.66834 0.57516 0.99405 0.0
C26 C 0.68301 0.58259 0.96284 0.0
C27 C 0.70102 0.58626 0.98305 0.0
C28 C 0.77381 0.58202 0.00229 0.0
C29 C 0.7708 0.5735 0.95466 0.0
C30 C 0.7862 0.56663 0.92669 0.0
C31 C 0.80485 0.56818 0.94583 0.0
C32 C 0.80795 0.57787 0.99153 0.0
C33 C 0.79262 0.58473 0.01942 0.0
C34 C 0.75151 0.59058 0.17624 0.0
C35 C 0.76726 0.60166 0.19023 0.0
C36 C 0.98875 0.79161 0.21155 0.0
C37 C 0.99707 0.78976 0.26029 0.0
C38 C 0.00966 0.77489 0.2693 0.0
C39 C 0.0152 0.7633 0.22917 0.0
H40 H 0.99613 0.71248 0.08409 0.0
H41 H 0.991 0.68329 0.0375 0.0
H42 H 0.04612 0.69044 0.96484 0.0
H43 H 0.05128 0.71922 0.01117 0.0
H44 H 0.05252 0.76664 0.96871 0.0
H45 H 0.06599 0.79273 0.91907 0.0
H46 H 0.06897 0.8258 0.05627 0.0
H47 H 0.05501 0.79993 0.10562 0.0
H48 H 0.9891 0.78294 0.13325 0.0
H49 H 0.97918 0.80299 0.20301 0.0
H50 H 0.01615 0.77297 0.30657 0.0
H51 H 0.02617 0.75303 0.23593 0.0
N52 N 0.01664 0.74209 0.11661 0.0
N53 N 0.03851 0.74959 0.05048 0.0
N54 N 0.03087 0.772 0.11119 0.0
C55 C 0.02662 0.73696 0.07408 0.0
C56 C 0.04076 0.76709 0.06894 0.0
C57 C 0.01892 0.75968 0.13522 0.0
C58 C 0.02406 0.71825 0.05112 0.0
C59 C 0.00725 0.70762 0.05879 0.0
C60 C 0.00426 0.691 0.03185 0.0
C61 C 0.01814 0.68457 0.9974 0.0
C62 C 0.03522 0.69486 0.99146 0.0
C63 C 0.03811 0.71147 0.0178 0.0
C64 C 0.05231 0.78136 0.04087 0.0
C65 C 0.05643 0.77933 0.98849 0.0
C66 C 0.06426 0.79427 0.96005 0.0
C67 C 0.06826 0.81146 0.98359 0.0
C68 C 0.06563 0.81289 0.03681 0.0
C69 C 0.05766 0.79804 0.06509 0.0
C70 C 0.00817 0.76636 0.1796 0.0
C71 C 0.99436 0.78009 0.17153 0.0
C72 C 0.71509 0.91802 0.24243 0.0
C73 C 0.71916 0.93256 0.27656 0.0
C74 C 0.73556 0.94377 0.26774 0.0
C75 C 0.74667 0.94145 0.22346 0.0
H76 H 0.79933 0.95729 0.1202 0.0
H77 H 0.83108 0.96653 0.08732 0.0
H78 H 0.82449 0.92768 0.96317 0.0
H79 H 0.793 0.91877 0.99526 0.0
H80 H 0.74612 0.94243 0.94783 0.0
H81 H 0.72071 0.94859 0.88638 0.0
H82 H 0.67961 0.9235 0.99107 0.0
H83 H 0.70487 0.91711 0.05199 0.0
H84 H 0.72171 0.90529 0.17108 0.0
H85 H 0.70253 0.90921 0.24746 0.0
H86 H 0.73923 0.95494 0.29366 0.0
H87 H 0.7584 0.95109 0.21566 0.0
N88 N 0.76768 0.93258 0.12373 0.0
N89 N 0.76067 0.93206 0.03548 0.0
N90 N 0.73636 0.92703 0.09554 0.0
C91 C 0.77361 0.93375 0.07388 0.0
C92 C 0.74199 0.92881 0.04607 0.0
C93 C 0.74897 0.92881 0.13446 0.0
C94 C 0.79375 0.93739 0.06008 0.0
C95 C 0.80493 0.9505 0.08655 0.0
C96 C 0.82297 0.95585 0.06761 0.0
C97 C 0.83023 0.9478 0.02275 0.0
C98 C 0.81939 0.93398 0.9981 0.0
C99 C 0.80131 0.92895 0.01631 0.0
C100 C 0.72749 0.92949 0.00511 0.0
C101 C 0.73174 0.93784 0.95724 0.0
C102 C 0.71718 0.94151 0.9222 0.0
C103 C 0.69816 0.93672 0.93417 0.0
C104 C 0.69413 0.92727 0.98056 0.0
C105 C 0.70862 0.92371 0.01566 0.0
C106 C 0.7414 0.92801 0.18729 0.0
C107 C 0.72604 0.91582 0.19834 0.0
C108 C 0.40237 0.68153 0.97319 0.0
C109 C 0.3987 0.68434 0.92075 0.0
C110 C 0.39844 0.70274 0.90111 0.0
C111 C 0.40337 0.71783 0.93215 0.0
H112 H 0.41315 0.77536 0.93467 0.0
H113 H 0.42078 0.80421 0.88846 0.0
H114 H 0.46673 0.81545 0.9938 0.0
H115 H 0.4592 0.78633 0.04032 0.0
H116 H 0.46996 0.75012 0.12541 0.0
H117 H 0.48651 0.73583 0.19855 0.0
H118 H 0.43701 0.70079 0.22927 0.0
H119 H 0.42068 0.71498 0.15712 0.0
H120 H 0.41093 0.6937 0.0438 0.0
H121 H 0.40284 0.66757 0.98967 0.0
H122 H 0.3953 0.70542 0.86109 0.0
H123 H 0.40401 0.7317 0.91504 0.0
N124 N 0.42108 0.74704 0.99198 0.0
N125 N 0.43905 0.75601 0.06369 0.0
N126 N 0.42481 0.72617 0.06067 0.0
C127 C 0.43159 0.76019 0.0168 0.0
C128 C 0.43541 0.73903 0.08606 0.0
C129 C 0.41765 0.72997 0.01358 0.0
C130 C 0.43562 0.77845 0.99116 0.0
C131 C 0.42485 0.78397 0.94831 0.0
C132 C 0.42912 0.8006 0.92194 0.0
C133 C 0.44435 0.81209 0.93747 0.0
C134 C 0.455 0.80677 0.98073 0.0
C135 C 0.4506 0.79016 0.00753 0.0
C136 C 0.44411 0.73353 0.13539 0.0
C137 C 0.46249 0.73974 0.1488 0.0
C138 C 0.472 0.73148 0.19037 0.0
C139 C 0.46311 0.71713 0.21958 0.0
C140 C 0.44423 0.71194 0.20806 0.0
C141 C 0.43489 0.71997 0.16639 0.0
C142 C 0.40861 0.71481 0.98356 0.0
C143 C 0.4072 0.69658 0.00425 0.0
C144 C 0.21871 0.40712 0.95544 0.0
C145 C 0.2169 0.42522 0.93438 0.0
C146 C 0.22963 0.43934 0.95055 0.0
C147 C 0.24248 0.43589 0.99049 0.0
H148 H 0.29859 0.44655 0.08718 0.0
H149 H 0.32961 0.4567 0.12148 0.0
H150 H 0.32622 0.41274 0.23622 0.0
H151 H 0.29526 0.40294 0.20295 0.0
H152 H 0.24823 0.41835 0.2582 0.0
H153 H 0.22341 0.42474 0.32098 0.0
H154 H 0.18029 0.41275 0.2078 0.0
H155 H 0.2049 0.40587 0.14569 0.0
H156 H 0.23111 0.39016 0.01449 0.0
H157 H 0.20955 0.39577 0.943 0.0
H158 H 0.22863 0.45347 0.93547 0.0
H159 H 0.2509 0.44739 0.00535 0.0
N160 N 0.26877 0.42052 0.07855 0.0
N161 N 0.2618 0.41588 0.16622 0.0
N162 N 0.23764 0.41272 0.10562 0.0
C163 C 0.27468 0.41966 0.12827 0.0
C164 C 0.2432 0.41254 0.15524 0.0
C165 C 0.25023 0.41654 0.06725 0.0
C166 C 0.29457 0.42401 0.14256 0.0
C167 C 0.30472 0.43886 0.11901 0.0
C168 C 0.32235 0.44472 0.13876 0.0
C169 C 0.33025 0.43548 0.18144 0.0
C170 C 0.32053 0.42 0.20304 0.0
C171 C 0.3028 0.41445 0.18414 0.0
C172 C 0.22859 0.412 0.19646 0.0
C173 C 0.23346 0.41658 0.24706 0.0
C174 C 0.21924 0.42038 0.283 0.0
C175 C 0.19989 0.41965 0.2691 0.0
C176 C 0.19503 0.41342 0.21993 0.0
C177 C 0.20922 0.40959 0.18408 0.0
C178 C 0.24263 0.41834 0.01504 0.0
C179 C 0.23126 0.40379 0.99585 0.0
C180 C 0.02687 0.24422 0.92669 0.0
C181 C 0.03638 0.22709 0.9326 0.0
C182 C 0.04197 0.22138 0.98199 0.0
C183 C 0.03649 0.23152 0.02481 0.0
H184 H 0.03455 0.30291 0.11237 0.0
H185 H 0.03778 0.33283 0.1567 0.0
H186 H 0.98236 0.32382 0.22623 0.0
H187 H 0.97905 0.29438 0.18212 0.0
H188 H 0.97032 0.25044 0.21485 0.0
H189 H 0.95131 0.22628 0.259 0.0
H190 H 0.96538 0.18711 0.14048 0.0
H191 H 0.98395 0.21111 0.09603 0.0
H192 H 0.01296 0.26686 0.96456 0.0
H193 H 0.02249 0.24904 0.88906 0.0
H194 H 0.0491 0.20819 0.98805 0.0
H195 H 0.0395 0.22591 0.06267 0.0
N196 N 0.01588 0.27205 0.0809 0.0
N197 N 0.99299 0.26446 0.14441 0.0
N198 N 0.00259 0.24176 0.08668 0.0
C199 C 0.00505 0.2772 0.12188 0.0
C200 C 0.99164 0.24673 0.12692 0.0
C201 C 0.01462 0.25421 0.06345 0.0
C202 C 0.00658 0.2962 0.14384 0.0
C203 C 0.02296 0.3075 0.13651 0.0
C204 C 0.02487 0.32455 0.16218 0.0
C205 C 0.01032 0.33071 0.19498 0.0
C206 C 0.99374 0.31965 0.20078 0.0
C207 C 0.99191 0.30265 0.1757 0.0
C208 C 0.97886 0.2327 0.15212 0.0
C209 C 0.96917 0.23674 0.19789 0.0
C210 C 0.95831 0.22289 0.22328 0.0
C211 C 0.95684 0.20477 0.20329 0.0
C212 C 0.96595 0.20098 0.15658 0.0
C213 C 0.97681 0.21475 0.13133 0.0
C214 C 0.02564 0.24776 0.01914 0.0
C215 C 0.02161 0.25454 0.96973 0.0
C216 C 0.26394 0.06152 0.92121 0.0
C217 C 0.27178 0.07749 0.89652 0.0
C218 C 0.26539 0.09521 0.91137 0.0
C219 C 0.25342 0.09698 0.954 0.0
H220 H 0.19084 0.06367 0.07232 0.0
H221 H 0.16091 0.05765 0.11867 0.0
H222 H 0.18022 0.09362 0.24032 0.0
H223 H 0.2102 0.09889 0.19521 0.0
H224 H 0.25607 0.0792 0.2244 0.0
H225 H 0.28388 0.07289 0.27759 0.0
H226 H 0.32069 0.0817 0.14616 0.0
H227 H 0.2931 0.08784 0.09289 0.0
H228 H 0.24766 0.05089 0.98518 0.0
H229 H 0.26858 0.04765 0.91131 0.0
H230 H 0.2708 0.10779 0.89255 0.0
H231 H 0.25042 0.11082 0.96811 0.0
N232 N 0.22498 0.08196 0.05572 0.0
N233 N 0.23753 0.08414 0.13913 0.0
N234 N 0.25808 0.08415 0.06862 0.0
C235 C 0.2222 0.08292 0.10745 0.0
C236 C 0.25552 0.08469 0.11996 0.0
C237 C 0.24305 0.08292 0.03645 0.0
C238 C 0.20293 0.08153 0.1305 0.0
C239 C 0.1885 0.07046 0.10861 0.0
C240 C 0.17135 0.06705 0.1352 0.0
C241 C 0.16827 0.07485 0.18382 0.0
C242 C 0.1823 0.08689 0.20382 0.0
C243 C 0.19945 0.09004 0.17775 0.0
C244 C 0.27229 0.08375 0.15417 0.0
C245 C 0.2701 0.08008 0.20698 0.0
C246 C 0.28603 0.07649 0.23751 0.0
C247 C 0.3044 0.0765 0.21576 0.0
C248 C 0.30666 0.08119 0.16368 0.0
C249 C 0.2908 0.0848 0.13325 0.0
C250 C 0.24732 0.08108 0.98174 0.0
C251 C 0.25181 0.06333 0.96347 0.0
C252 C 0.58938 0.32792 0.21883 0.0
C253 C 0.59122 0.32524 0.27203 0.0
C254 C 0.59 0.30695 0.29236 0.0
C255 C 0.58545 0.29191 0.26082 0.0
H256 H 0.54907 0.24485 0.27051 0.0
H257 H 0.54033 0.21558 0.31444 0.0
H258 H 0.54766 0.18565 0.17345 0.0
H259 H 0.55589 0.21517 0.12858 0.0
H260 H 0.52657 0.25909 0.05072 0.0
H261 H 0.51203 0.27409 0.97572 0.0
H262 H 0.56172 0.31001 0.9586 0.0
H263 H 0.57615 0.29503 0.03254 0.0
H264 H 0.58265 0.31569 0.14687 0.0
H265 H 0.59009 0.34181 0.20186 0.0
H266 H 0.59171 0.30438 0.33308 0.0
H267 H 0.58369 0.27816 0.27822 0.0
N268 N 0.56863 0.26309 0.1982 0.0
N269 N 0.55429 0.25374 0.12116 0.0
N270 N 0.56901 0.28329 0.12713 0.0
C271 C 0.55912 0.24996 0.17072 0.0
C272 C 0.55933 0.27045 0.09914 0.0
C273 C 0.57375 0.27976 0.17658 0.0
C274 C 0.55319 0.23224 0.19615 0.0
C275 C 0.54872 0.23206 0.24873 0.0
C276 C 0.54364 0.21538 0.27384 0.0
C277 C 0.54337 0.19851 0.24717 0.0
C278 C 0.54781 0.19858 0.19462 0.0
C279 C 0.55243 0.2154 0.16907 0.0
C280 C 0.55241 0.27603 0.04777 0.0
C281 C 0.53459 0.26978 0.02984 0.0
C282 C 0.52621 0.27847 0.9872 0.0
C283 C 0.53563 0.29336 0.96145 0.0
C284 C 0.5541 0.2985 0.97711 0.0
C285 C 0.56235 0.28998 0.01981 0.0
C286 C 0.58209 0.29484 0.20823 0.0
C287 C 0.58492 0.31289 0.18728 0.0
Zn288 Zn 0.98658 0.03593 0.58356 0.0
Zn289 Zn 0.00943 0.98881 0.60588 0.0
C290 C 0.99283 0.06712 0.64465 0.0
O291 O 0.97416 0.06525 0.64467 0.0
C292 C 0.01386 0.96098 0.5308 0.0
O293 O 0.03176 0.96519 0.54075 0.0
O294 O 0.96812 0.05173 0.5442 0.0
O295 O 0.00209 0.0229 0.52934 0.0
O296 O 0.02523 0.00934 0.57225 0.0
C297 C 0.95903 0.04683 0.50446 0.0
O298 O 0.96076 0.02972 0.48755 0.0
O299 O 0.00269 0.05504 0.62131 0.0
C300 C 0.01915 0.95866 0.66834 0.0
O301 O 0.00112 0.9552 0.65812 0.0
O302 O 0.02682 0.9736 0.65064 0.0
O303 O 0.9869 0.9947 0.65053 0.0
O304 O 0.97142 0.02102 0.63579 0.0
O305 O 0.00083 0.97041 0.55204 0.0
C306 C 0.01968 0.01948 0.53501 0.0
C307 C 0.97334 0.00571 0.66033 0.0
Zn308 Zn 0.48151 0.01666 0.62135 0.0
Zn309 Zn 0.51237 0.99366 0.56441 0.0
C310 C 0.44748 0.02035 0.67381 0.0
O311 O 0.44615 0.00385 0.65247 0.0
C312 C 0.5462 0.99149 0.50842 0.0
O313 O 0.54645 0.00887 0.52413 0.0
O314 O 0.46576 0.01473 0.55706 0.0
O315 O 0.50408 0.03354 0.60261 0.0
O316 O 0.50581 0.0181 0.53049 0.0
C317 C 0.46031 0.03079 0.54207 0.0
O318 O 0.46595 0.04556 0.56761 0.0
O319 O 0.46306 0.02958 0.66888 0.0
C320 C 0.53352 0.98229 0.64746 0.0
O321 O 0.52784 0.96655 0.62669 0.0
O322 O 0.52787 0.99766 0.62817 0.0
O323 O 0.49112 0.97551 0.58302 0.0
O324 O 0.48574 0.99127 0.65339 0.0
O325 O 0.53165 0.98127 0.51859 0.0
C326 C 0.50758 0.03331 0.55471 0.0
C327 C 0.48543 0.97593 0.62933 0.0
Zn328 Zn 0.4925 0.48872 0.62447 0.0
Zn329 Zn 0.50091 0.52429 0.56644 0.0
C330 C 0.49947 0.45975 0.69511 0.0
O331 O 0.51588 0.46885 0.69454 0.0
C332 C 0.49474 0.55333 0.49497 0.0
O333 O 0.47802 0.54482 0.49547 0.0
O334 O 0.51288 0.47908 0.57732 0.0
O335 O 0.46966 0.49533 0.58083 0.0
O336 O 0.48922 0.50505 0.51987 0.0
C337 C 0.508 0.46478 0.55189 0.0
O338 O 0.49049 0.45819 0.55685 0.0
O339 O 0.48582 0.4661 0.66839 0.0
C340 C 0.48498 0.54811 0.63956 0.0
O341 O 0.50249 0.55481 0.6361 0.0
O342 O 0.48038 0.53401 0.613 0.0
O343 O 0.52364 0.5178 0.6103 0.0
O344 O 0.50431 0.50778 0.67135 0.0
O345 O 0.50807 0.54663 0.52221 0.0
C346 C 0.47325 0.49792 0.5334 0.0
C347 C 0.52022 0.51499 0.65771 0.0
Zn348 Zn 0.01957 0.4975 0.60969 0.0
Zn349 Zn 0.97211 0.5136 0.57126 0.0
C350 C 0.04908 0.49439 0.68506 0.0
O351 O 0.04771 0.51267 0.68293 0.0
C352 C 0.9384 0.51481 0.5121 0.0
O353 O 0.93981 0.49669 0.5199 0.0
O354 O 0.03494 0.49932 0.54502 0.0
O355 O 0.99771 0.48033 0.59216 0.0
O356 O 0.98638 0.49594 0.52649 0.0
C357 C 0.05018 0.50892 0.54004 0.0
O358 O 0.05496 0.52073 0.57606 0.0
O359 O 0.0375 0.48451 0.65912 0.0
C360 C 0.96185 0.49875 0.67237 0.0
O361 O 0.97911 0.50407 0.6856 0.0
O362 O 0.95708 0.49972 0.62552 0.0
O363 O 0.98632 0.53438 0.60668 0.0
O364 O 0.01348 0.52317 0.63717 0.0
O365 O 0.95152 0.52554 0.52874 0.0
C366 C 0.99398 0.48127 0.54457 0.0
C367 C 0.00139 0.53625 0.63323 0.0
H368 H 0.13123 0.06904 0.15166 0.0
H369 H 0.10342 0.06028 0.20468 0.0
H370 H 0.13865 0.06051 0.33961 0.0
H371 H 0.1665 0.06854 0.28733 0.0
H372 H 0.10108 0.02686 0.27936 0.0
H373 H 0.09163 0.09646 0.36769 0.0
H374 H 0.10374 0.09347 0.30709 0.0
H375 H 0.11565 0.08791 0.36602 0.0
C376 C 0.13309 0.0671 0.19255 0.0
C377 C 0.15111 0.06972 0.21519 0.0
C378 C 0.11717 0.0622 0.22276 0.0
C379 C 0.119 0.06002 0.27603 0.0
C380 C 0.13692 0.06245 0.29863 0.0
H381 H 0.05656 0.00814 0.52261 0.0
H382 H 0.07921 0.01796 0.45569 0.0
C383 C 0.15281 0.06717 0.2686 0.0
C384 C 0.10238 0.05484 0.30856 0.0
H385 H 0.0747 0.07086 0.40614 0.0
C386 C 0.09512 0.03651 0.30666 0.0
C387 C 0.09464 0.06752 0.34387 0.0
C388 C 0.10166 0.08751 0.34628 0.0
C389 C 0.08075 0.03031 0.34074 0.0
C390 C 0.0736 0.04276 0.37761 0.0
C391 C 0.08032 0.06131 0.37803 0.0
C392 C 0.05967 0.0366 0.41735 0.0
C393 C 0.07344 0.01044 0.3375 0.0
C394 C 0.04129 0.0441 0.41839 0.0
C395 C 0.02827 0.0385 0.45654 0.0
C396 C 0.03351 0.02548 0.49474 0.0
C397 C 0.05204 0.01818 0.49382 0.0
C398 C 0.06498 0.02368 0.45543 0.0
H399 H 0.07706 0.00408 0.30013 0.0
H400 H 0.08004 0.00191 0.36837 0.0
H401 H 0.05773 0.0098 0.34297 0.0
H402 H 0.03699 0.05421 0.38952 0.0
H403 H 0.01414 0.04446 0.45628 0.0
H404 H 0.56684 0.16908 0.26257 0.0
H405 H 0.56066 0.14114 0.31573 0.0
H406 H 0.50367 0.16035 0.34668 0.0
H407 H 0.51034 0.18881 0.29595 0.0
H408 H 0.51834 0.14831 0.43074 0.0
H409 H 0.53192 0.09493 0.28416 0.0
H410 H 0.55236 0.1098 0.29276 0.0
H411 H 0.53054 0.11945 0.26819 0.0
C412 C 0.55295 0.16713 0.2803 0.0
C413 C 0.53898 0.18087 0.27499 0.0
C414 C 0.54936 0.15115 0.31042 0.0
C415 C 0.53154 0.14838 0.33444 0.0
C416 C 0.51751 0.1621 0.32848 0.0
H417 H 0.49454 0.04133 0.45957 0.0
H418 H 0.49962 0.06989 0.4091 0.0
C419 C 0.52125 0.17828 0.29936 0.0
C420 C 0.52774 0.13162 0.36749 0.0
H421 H 0.53014 0.08401 0.37083 0.0
C422 C 0.52077 0.13423 0.41746 0.0
C423 C 0.53066 0.11321 0.35011 0.0
C424 C 0.53658 0.10916 0.2957 0.0
C425 C 0.5167 0.11901 0.45047 0.0
C426 C 0.52048 0.10066 0.43389 0.0
C427 C 0.52742 0.09806 0.3839 0.0
C428 C 0.51666 0.08381 0.46661 0.0
C429 C 0.50784 0.12282 0.50205 0.0
C430 C 0.52438 0.08208 0.51615 0.0
C431 C 0.52103 0.06586 0.54572 0.0
C432 C 0.51048 0.0509 0.52547 0.0
C433 C 0.5029 0.0526 0.47592 0.0
C434 C 0.5058 0.06893 0.44703 0.0
H435 H 0.50041 0.13646 0.50208 0.0
H436 H 0.49743 0.11168 0.51337 0.0
H437 H 0.51922 0.12344 0.53142 0.0
H438 H 0.53327 0.09309 0.53165 0.0
H439 H 0.52716 0.06477 0.58368 0.0
H440 H 0.33728 0.47098 0.21317 0.0
H441 H 0.3636 0.48181 0.26684 0.0
H442 H 0.38877 0.42713 0.2606 0.0
H443 H 0.362 0.41608 0.20858 0.0
H444 H 0.38728 0.43795 0.35482 0.0
H445 H 0.41755 0.4967 0.24001 0.0
H446 H 0.39256 0.49972 0.25133 0.0
H447 H 0.40055 0.4803 0.2139 0.0
C448 C 0.34869 0.46143 0.22225 0.0
C449 C 0.34769 0.44273 0.2066 0.0
C450 C 0.36378 0.46764 0.2528 0.0
C451 C 0.37838 0.45538 0.26727 0.0
C452 C 0.37772 0.43687 0.24993 0.0
H453 H 0.47998 0.49239 0.43162 0.0
H454 H 0.45744 0.48142 0.36705 0.0
C455 C 0.36248 0.43057 0.22012 0.0
C456 C 0.39334 0.46133 0.30412 0.0
H457 H 0.426 0.49582 0.32915 0.0
C458 C 0.39588 0.45051 0.34885 0.0
C459 C 0.40478 0.47758 0.29626 0.0
C460 C 0.40387 0.48911 0.24749 0.0
C461 C 0.4092 0.45564 0.3863 0.0
C462 C 0.41983 0.47247 0.37983 0.0
C463 C 0.41764 0.48308 0.33456 0.0
C464 C 0.43343 0.47921 0.41929 0.0
C465 C 0.41193 0.44275 0.4319 0.0
C466 C 0.42741 0.48188 0.47009 0.0
C467 C 0.44034 0.48788 0.50728 0.0
C468 C 0.45945 0.49174 0.49412 0.0
C469 C 0.46534 0.48954 0.44298 0.0
C470 C 0.45247 0.48328 0.406 0.0
H471 H 0.40755 0.42816 0.4231 0.0
H472 H 0.42703 0.44273 0.44459 0.0
H473 H 0.40292 0.44749 0.46415 0.0
H474 H 0.41267 0.47939 0.48101 0.0
H475 H 0.43532 0.48966 0.54622 0.0
H476 H 0.04178 0.34297 0.24776 0.0
H477 H 0.0436 0.36915 0.30756 0.0
H478 H 0.9856 0.38349 0.27165 0.0
H479 H 0.98371 0.35759 0.21165 0.0
H480 H 0.03594 0.40944 0.29614 0.0
H481 H 0.98609 0.37219 0.4293 0.0
H482 H 0.99836 0.36056 0.37801 0.0
H483 H 0.97758 0.37421 0.36461 0.0
C484 C 0.02956 0.35195 0.25179 0.0
C485 C 0.01251 0.34806 0.22543 0.0
C486 C 0.0306 0.36683 0.28614 0.0
C487 C 0.01461 0.378 0.2947 0.0
C488 C 0.99797 0.3748 0.26629 0.0
H489 H 0.99208 0.48138 0.44005 0.0
H490 H 0.00032 0.45626 0.38204 0.0
C491 C 0.99692 0.35998 0.23207 0.0
C492 C 0.01478 0.39238 0.33513 0.0
H493 H 0.99233 0.4043 0.44613 0.0
C494 C 0.02656 0.40827 0.32922 0.0
C495 C 0.00281 0.39063 0.37877 0.0
C496 C 0.99061 0.37341 0.3885 0.0
C497 C 0.02598 0.42291 0.36467 0.0
C498 C 0.01314 0.42163 0.40665 0.0
C499 C 0.00206 0.40533 0.41375 0.0
C500 C 0.00999 0.43744 0.44183 0.0
C501 C 0.03901 0.43965 0.35681 0.0
C502 C 0.0125 0.43518 0.49493 0.0
C503 C 0.00772 0.44954 0.52843 0.0
C504 C 1.00009 0.46634 0.5094 0.0
C505 C 0.99789 0.46864 0.4561 0.0
C506 C 0.00277 0.45434 0.42273 0.0
H507 H 0.0517 0.43613 0.33334 0.0
H508 H 0.03115 0.45082 0.33625 0.0
H509 H 0.04391 0.44528 0.39404 0.0
H510 H 0.01792 0.42218 0.5105 0.0
H511 H 0.00961 0.44733 0.56923 0.0
H512 H 0.85966 0.92712 0.98637 0.0
H513 H 0.8863 0.93813 0.93259 0.0
H514 H 0.86721 0.9949 0.94759 0.0
H515 H 0.84078 0.98397 0.00224 0.0
H516 H 0.88143 0.95484 0.84099 0.0
H517 H 0.92402 0.00188 0.96451 0.0
H518 H 0.90636 0.98569 0.99018 0.0
H519 H 0.8992 0.00766 0.96245 0.0
C520 C 0.86144 0.942 0.97915 0.0
C521 C 0.84818 0.9547 0.99847 0.0
C522 C 0.87663 0.94827 0.94841 0.0
C523 C 0.87885 0.96735 0.93625 0.0
C524 C 0.86608 0.98017 0.95733 0.0
H525 H 0.94465 0.02693 0.70041 0.0
H526 H 0.92189 0.01792 0.76821 0.0
C527 C 0.85096 0.97391 0.98853 0.0
C528 C 0.89317 0.97349 0.89724 0.0
H529 H 0.93081 0.00336 0.87471 0.0
C530 C 0.89232 0.96534 0.84859 0.0
C531 C 0.90728 0.98731 0.90698 0.0
C532 C 0.90943 0.99602 0.95901 0.0
C533 C 0.90505 0.97071 0.80936 0.0
C534 C 0.9191 0.98452 0.81907 0.0
C535 C 0.91995 0.9928 0.86748 0.0
C536 C 0.93324 0.99021 0.77941 0.0
C537 C 0.90326 0.96176 0.75751 0.0
C538 C 0.94722 0.97765 0.76377 0.0
C539 C 0.96024 0.98271 0.72523 0.0
C540 C 0.9595 0.00047 0.70142 0.0
C541 C 0.94556 0.01311 0.71765 0.0
C542 C 0.93259 0.00804 0.7565 0.0
H543 H 0.88945 0.95416 0.75322 0.0
H544 H 0.90459 0.97246 0.72642 0.0
H545 H 0.91494 0.95161 0.75256 0.0
H546 H 0.94802 0.96387 0.78136 0.0
H547 H 0.9708 0.97263 0.71394 0.0
H548 H 0.42018 0.83858 0.89999 0.0
H549 H 0.42816 0.86565 0.84544 0.0
H550 H 0.48768 0.8513 0.85168 0.0
H551 H 0.4798 0.82426 0.90676 0.0
H552 H 0.4823 0.88854 0.86381 0.0
H553 H 0.44215 0.86393 0.69467 0.0
H554 H 0.42758 0.86506 0.75121 0.0
H555 H 0.44707 0.84895 0.7491 0.0
C556 C 0.43496 0.84117 0.88961 0.0
C557 C 0.44935 0.82922 0.90733 0.0
C558 C 0.43949 0.85658 0.85826 0.0
C559 C 0.45845 0.86023 0.84346 0.0
C560 C 0.47293 0.84865 0.86231 0.0
H561 H 0.49117 0.93975 0.59938 0.0
H562 H 0.4855 0.91114 0.65033 0.0
C563 C 0.46842 0.83328 0.89398 0.0
C564 C 0.46318 0.87628 0.80892 0.0
H565 H 0.45259 0.89588 0.69251 0.0
C566 C 0.47591 0.89008 0.82621 0.0
C567 C 0.45513 0.87809 0.75943 0.0
C568 C 0.44238 0.86312 0.73723 0.0
C569 C 0.48031 0.90597 0.79608 0.0
C570 C 0.4714 0.9083 0.74786 0.0
C571 C 0.45919 0.89419 0.72979 0.0
C572 C 0.47426 0.92548 0.71622 0.0
C573 C 0.49457 0.92005 0.81607 0.0
C574 C 0.46931 0.94292 0.73583 0.0
C575 C 0.47256 0.95923 0.707 0.0
C576 C 0.48064 0.95841 0.65765 0.0
C577 C 0.48493 0.94085 0.63724 0.0
C578 C 0.48175 0.92451 0.66633 0.0
H579 H 0.50412 0.91369 0.84516 0.0
H580 H 0.50346 0.9261 0.78452 0.0
H581 H 0.48682 0.93159 0.83465 0.0
H582 H 0.46302 0.94395 0.77366 0.0
H583 H 0.46888 0.9725 0.72365 0.0
H584 H 0.64721 0.59512 0.9252 0.0
H585 H 0.61949 0.58418 0.87698 0.0
H586 H 0.62014 0.53182 0.96082 0.0
H587 H 0.64814 0.54257 0.00866 0.0
H588 H 0.62018 0.52798 0.85412 0.0
H589 H 0.56317 0.57585 0.91581 0.0
H590 H 0.58478 0.58767 0.89615 0.0
H591 H 0.58485 0.57261 0.95188 0.0
C592 C 0.64128 0.58137 0.93386 0.0
C593 C 0.64987 0.56968 0.97062 0.0
C594 C 0.62535 0.5752 0.90659 0.0
C595 C 0.61766 0.55726 0.91565 0.0
C596 C 0.62579 0.54578 0.95353 0.0
H597 H 0.51631 0.51323 0.76206 0.0
H598 H 0.53965 0.5226 0.82661 0.0
C599 C 0.6417 0.55198 0.98104 0.0
C600 C 0.60233 0.54991 0.88224 0.0
H601 H 0.55733 0.55863 0.83927 0.0
C602 C 0.60636 0.53455 0.85127 0.0
C603 C 0.58428 0.55843 0.87883 0.0
C604 C 0.57889 0.57445 0.91278 0.0
C605 C 0.59304 0.52786 0.81571 0.0
C606 C 0.57533 0.53691 0.81066 0.0
C607 C 0.57102 0.55186 0.84288 0.0
C608 C 0.56124 0.53125 0.7715 0.0
C609 C 0.59804 0.51118 0.78373 0.0
C610 C 0.5656 0.53321 0.71915 0.0
C611 C 0.5523 0.52793 0.68213 0.0
C612 C 0.53436 0.52059 0.69684 0.0
C613 C 0.53001 0.51877 0.7494 0.0
C614 C 0.5433 0.52414 0.78637 0.0
H615 H 0.6099 0.50309 0.80086 0.0
H616 H 0.58549 0.50173 0.77924 0.0
H617 H 0.60262 0.51608 0.74501 0.0
H618 H 0.57927 0.53896 0.70692 0.0
H619 H 0.55608 0.52959 0.64203 0.0
H620 H 0.04287 0.65643 0.97585 0.0
H621 H 0.03859 0.6313 0.91405 0.0
H622 H 0.98129 0.64966 0.88449 0.0
H623 H 0.98561 0.67512 0.9455 0.0
H624 H 0.01094 0.60186 0.90839 0.0
H625 H 0.00719 0.65093 0.7417 0.0
H626 H 0.0157 0.65808 0.80374 0.0
H627 H 0.99058 0.65511 0.79281 0.0
C628 C 0.02933 0.65509 0.95631 0.0
C629 C 0.01464 0.66788 0.96521 0.0
C630 C 0.02689 0.64069 0.92117 0.0
C631 C 0.00976 0.63885 0.894 0.0
C632 C 0.99475 0.65105 0.90442 0.0
H633 H 0.97546 0.56394 0.64964 0.0
H634 H 0.97739 0.58895 0.71239 0.0
C635 C 0.99716 0.66545 0.93972 0.0
C636 C 0.00792 0.62445 0.85387 0.0
H637 H 0.00306 0.6188 0.72469 0.0
C638 C 0.00921 0.60554 0.86823 0.0
C639 C 0.00565 0.62932 0.8015 0.0
C640 C 0.00484 0.64945 0.78371 0.0
C641 C 0.00815 0.59133 0.83165 0.0
C642 C 0.00617 0.59621 0.77918 0.0
C643 C 0.00465 0.61511 0.76489 0.0
C644 C 0.00564 0.58186 0.73863 0.0
C645 C 0.00883 0.57121 0.84962 0.0
C646 C 0.02118 0.57 0.73121 0.0
C647 C 0.02016 0.55569 0.6953 0.0
C648 C 0.0036 0.553 0.66583 0.0
C649 C 0.98844 0.56554 0.6716 0.0
C650 C 0.98947 0.57983 0.70761 0.0
H651 H 0.00528 0.56973 0.89103 0.0
H652 H 0.99879 0.56234 0.82749 0.0
H653 H 0.02345 0.56586 0.84379 0.0
H654 H 0.034 0.57163 0.75383 0.0
H655 H 0.03219 0.54648 0.69155 0.0
H656 H 0.95909 0.19769 0.30616 0.0
H657 H 0.94857 0.16943 0.3521 0.0
H658 H 0.92344 0.14827 0.2136 0.0
H659 H 0.93371 0.17669 0.16722 0.0
H660 H 0.91171 0.14884 0.36423 0.0
H661 H 0.96721 0.11151 0.25265 0.0
H662 H 0.96671 0.13669 0.25549 0.0
H663 H 0.94958 0.12435 0.21734 0.0
C664 C 0.95081 0.18732 0.28573 0.0
C665 C 0.94744 0.18933 0.23287 0.0
C666 C 0.94486 0.17115 0.31205 0.0
C667 C 0.93548 0.15671 0.286 0.0
C668 C 0.93087 0.1592 0.23414 0.0
H669 H 0.94179 0.04298 0.41087 0.0
H670 H 0.92992 0.0681 0.35532 0.0
C671 C 0.93682 0.17539 0.20773 0.0
C672 C 0.93273 0.13838 0.31189 0.0
H673 H 0.95265 0.09524 0.32051 0.0
C674 C 0.92038 0.13696 0.35422 0.0
C675 C 0.94397 0.12291 0.29841 0.0
C676 C 0.95772 0.12382 0.25371 0.0
C677 C 0.91958 0.12068 0.38485 0.0
C678 C 0.9318 0.10568 0.37343 0.0
C679 C 0.94326 0.10672 0.32922 0.0
C680 C 0.93511 0.09005 0.41007 0.0
C681 C 0.90596 0.11988 0.42973 0.0
C682 C 0.9416 0.09397 0.45962 0.0
C683 C 0.94831 0.0797 0.49137 0.0
C684 C 0.94894 0.06119 0.47397 0.0
C685 C 0.94153 0.05709 0.42535 0.0
C686 C 0.93472 0.07143 0.39359 0.0
H687 H 0.89303 0.12824 0.42168 0.0
H688 H 0.90149 0.10529 0.43925 0.0
H689 H 0.91303 0.12599 0.46371 0.0
H690 H 0.94255 0.10825 0.47278 0.0
H691 H 0.95388 0.08337 0.52862 0.0
H692 H 0.31384 0.08672 0.31332 0.0
H693 H 0.34152 0.07666 0.36325 0.0
H694 H 0.35986 0.04259 0.23754 0.0
H695 H 0.33237 0.05263 0.18744 0.0
H696 H 0.35198 0.04086 0.39324 0.0
H697 H 0.40735 0.07399 0.26779 0.0
H698 H 0.38241 0.07962 0.26298 0.0
H699 H 0.39122 0.05852 0.23528 0.0
C700 C 0.32378 0.07708 0.29642 0.0
C701 C 0.32109 0.07063 0.24633 0.0
C702 C 0.33957 0.07138 0.32487 0.0
C703 C 0.35287 0.05913 0.30369 0.0
C704 C 0.35001 0.05241 0.25407 0.0
H705 H 0.43919 0.00368 0.4939 0.0
H706 H 0.41371 0.00866 0.43105 0.0
C707 C 0.33432 0.05817 0.22554 0.0
C708 C 0.3696 0.05323 0.33382 0.0
H709 H 0.41826 0.05474 0.33574 0.0
C710 C 0.36649 0.04382 0.38068 0.0
C711 C 0.38847 0.05723 0.31727 0.0
C712 C 0.39264 0.06804 0.26832 0.0
C713 C 0.38177 0.03849 0.4119 0.0
C714 C 0.40064 0.04236 0.39516 0.0
C715 C 0.40376 0.05157 0.348 0.0
C716 C 0.41722 0.03877 0.42849 0.0
C717 C 0.37758 0.02942 0.46338 0.0
C718 C 0.42811 0.05395 0.44585 0.0
C719 C 0.44265 0.05115 0.48119 0.0
C720 C 0.44661 0.0331 0.49982 0.0
C721 C 0.43637 0.01775 0.48038 0.0
C722 C 0.42175 0.02058 0.44485 0.0
H723 H 0.36237 0.03079 0.47464 0.0
H724 H 0.38085 0.01431 0.46164 0.0
H725 H 0.38661 0.03571 0.49365 0.0
H726 H 0.42491 0.06808 0.43341 0.0
H727 H 0.45044 0.06325 0.49496 0.0
H728 H 0.57169 0.32933 0.36152 0.0
H729 H 0.56719 0.3579 0.40923 0.0
H730 H 0.60634 0.38729 0.30785 0.0
H731 H 0.61107 0.3585 0.25957 0.0
H732 H 0.5907 0.3842 0.4594 0.0
H733 H 0.55531 0.41402 0.28611 0.0
H734 H 0.56122 0.38961 0.29119 0.0
H735 H 0.57966 0.4068 0.27954 0.0
C736 C 0.57987 0.34166 0.35017 0.0
C737 C 0.59163 0.34164 0.30638 0.0
C738 C 0.5772 0.35804 0.37744 0.0
C739 C 0.58618 0.37476 0.36153 0.0
C740 C 0.59902 0.37458 0.32015 0.0
H741 H 0.54673 0.47065 0.54466 0.0
H742 H 0.56964 0.45218 0.49574 0.0
C743 C 0.60169 0.35814 0.29266 0.0
C744 C 0.58021 0.39245 0.3852 0.0
H745 H 0.55141 0.4298 0.3631 0.0
C746 C 0.58251 0.39448 0.43827 0.0
C747 C 0.56944 0.40572 0.35736 0.0
C748 C 0.56609 0.404 0.30046 0.0
C749 C 0.57328 0.40874 0.46481 0.0
C750 C 0.56165 0.42135 0.43732 0.0
C751 C 0.56042 0.4201 0.38385 0.0
C752 C 0.54821 0.43372 0.4639 0.0
C753 C 0.57483 0.40936 0.52244 0.0
C754 C 0.52862 0.42975 0.46094 0.0
C755 C 0.51558 0.44019 0.48856 0.0
C756 C 0.52187 0.45491 0.51961 0.0
C757 C 0.54148 0.45935 0.52116 0.0
C758 C 0.55458 0.44878 0.49348 0.0
H759 H 0.58293 0.39738 0.53837 0.0
H760 H 0.5822 0.4225 0.53361 0.0
H761 H 0.5604 0.40929 0.54015 0.0
H762 H 0.52344 0.41818 0.43824 0.0
H763 H 0.50059 0.43649 0.48622 0.0
H764 H 0.20238 0.45127 0.32612 0.0
H765 H 0.17675 0.46679 0.37167 0.0
H766 H 0.13775 0.42227 0.33192 0.0
H767 H 0.16347 0.40637 0.28675 0.0
H768 H 0.12533 0.45916 0.30598 0.0
H769 H 0.14946 0.45364 0.5081 0.0
H770 H 0.16722 0.46235 0.46374 0.0
H771 H 0.15842 0.43876 0.4583 0.0
C772 C 0.18852 0.44444 0.32833 0.0
C773 C 0.185 0.42752 0.3029 0.0
C774 C 0.17386 0.4534 0.3542 0.0
C775 C 0.15542 0.44561 0.35533 0.0
C776 C 0.15193 0.42847 0.3314 0.0
H777 H 0.04645 0.48142 0.46895 0.0
H778 H 0.07191 0.46753 0.41914 0.0
C779 C 0.16661 0.41945 0.30559 0.0
C780 C 0.13957 0.45603 0.37851 0.0
H781 H 0.1238 0.47402 0.49109 0.0
C782 C 0.1249 0.46235 0.34649 0.0
C783 C 0.13921 0.46026 0.43122 0.0
C784 C 0.15432 0.45328 0.46753 0.0
C785 C 0.10993 0.47309 0.36574 0.0
C786 C 0.10954 0.4773 0.41854 0.0
C787 C 0.12424 0.47093 0.4505 0.0
C788 C 0.09359 0.48746 0.44233 0.0
C789 C 0.09492 0.48009 0.32919 0.0
C790 C 0.09726 0.50345 0.47154 0.0
C791 C 0.08274 0.51135 0.50067 0.0
C792 C 0.06435 0.50332 0.50123 0.0
C793 C 0.06046 0.488 0.46939 0.0
C794 C 0.07499 0.48006 0.44058 0.0
H795 H 0.10037 0.48084 0.28915 0.0
H796 H 0.08254 0.47027 0.33005 0.0
H797 H 0.08987 0.49414 0.34012 0.0
H798 H 0.11154 0.50936 0.47338 0.0
H799 H 0.0862 0.52313 0.52471 0.0
H800 H 0.09183 0.81486 0.89911 0.0
H801 H 0.09463 0.84184 0.84035 0.0
H802 H 0.0566 0.87279 0.93699 0.0
H803 H 0.05378 0.84622 0.99525 0.0
H804 H 0.06587 0.8553 0.78713 0.0
H805 H 0.09474 0.91296 0.90179 0.0
H806 H 0.09658 0.88882 0.92222 0.0
H807 H 0.07543 0.90196 0.93625 0.0
C808 C 0.0844 0.82758 0.90825 0.0
C809 C 0.07264 0.8284 0.95199 0.0
C810 C 0.08609 0.843 0.87484 0.0
C811 C 0.07613 0.85949 0.88475 0.0
C812 C 0.06498 0.86051 0.92936 0.0
H813 H 0.0061 0.92636 0.71269 0.0
H814 H 0.02434 0.90279 0.75839 0.0
C815 C 0.06333 0.8452 0.96269 0.0
C816 C 0.07479 0.87458 0.8455 0.0
H817 H 0.07184 0.92204 0.83463 0.0
C818 C 0.06773 0.86989 0.797 0.0
C819 C 0.07756 0.89364 0.8577 0.0
C820 C 0.08671 0.89958 0.90719 0.0
C821 C 0.06159 0.88373 0.76254 0.0
C822 C 0.06215 0.90265 0.77752 0.0
C823 C 0.071 0.90747 0.8237 0.0
C824 C 0.05152 0.91716 0.74903 0.0
C825 C 0.05378 0.87786 0.71133 0.0
C826 C 0.06064 0.93345 0.73026 0.0
C827 C 0.05015 0.94714 0.70436 0.0
C828 C 0.03038 0.94477 0.69729 0.0
C829 C 0.02131 0.92858 0.71708 0.0
C830 C 0.03176 0.91499 0.74286 0.0
H831 H 0.06047 0.86473 0.69834 0.0
H832 H 0.03821 0.87515 0.71505 0.0
H833 H 0.05615 0.88889 0.68155 0.0
H834 H 0.07585 0.93547 0.73527 0.0
H835 H 0.05752 0.95948 0.68959 0.0
H836 H 0.66637 0.91682 0.90634 0.0
H837 H 0.63849 0.92851 0.86041 0.0
H838 H 0.66598 0.98249 0.84247 0.0
H839 H 0.69388 0.97094 0.88847 0.0
H840 H 0.61622 0.95901 0.89242 0.0
H841 H 0.64678 0.97096 0.69733 0.0
H842 H 0.65824 0.95646 0.74495 0.0
H843 H 0.65969 0.98148 0.74911 0.0
C844 C 0.66654 0.93112 0.89217 0.0
C845 C 0.68231 0.94295 0.90091 0.0
C846 C 0.65064 0.93777 0.86597 0.0
C847 C 0.65026 0.95631 0.84789 0.0
C848 C 0.66614 0.96804 0.85539 0.0
H849 H 0.55871 0.01007 0.67403 0.0
H850 H 0.58663 0.00675 0.72979 0.0
C851 C 0.68208 0.9614 0.88152 0.0
C852 C 0.6328 0.96355 0.82357 0.0
H853 H 0.61485 0.97974 0.71028 0.0
C854 C 0.61592 0.96363 0.85267 0.0
C855 C 0.63256 0.96978 0.77194 0.0
C856 C 0.65022 0.96958 0.73873 0.0
C857 C 0.59865 0.96937 0.83109 0.0
C858 C 0.59826 0.97493 0.77895 0.0
C859 C 0.61526 0.97554 0.75037 0.0
C860 C 0.58013 0.97808 0.75169 0.0
C861 C 0.58092 0.96924 0.86407 0.0
C862 C 0.56716 0.96317 0.7464 0.0
C863 C 0.55136 0.96499 0.71465 0.0
C864 C 0.54825 0.98176 0.68752 0.0
C865 C 0.56071 0.99703 0.69481 0.0
C866 C 0.57667 0.99514 0.72639 0.0
H867 H 0.58449 0.97041 0.90536 0.0
H868 H 0.57131 0.98085 0.85318 0.0
H869 H 0.57307 0.95583 0.85886 0.0
H870 H 0.56976 0.94979 0.76488 0.0
H871 H 0.54197 0.953 0.7098 0.0
H872 H 0.4152 0.68156 0.82644 0.0
H873 H 0.41979 0.65343 0.77717 0.0
H874 H 0.38626 0.62162 0.88731 0.0
H875 H 0.38135 0.64999 0.93704 0.0
H876 H 0.42135 0.60738 0.87432 0.0
H877 H 0.38981 0.61958 0.68382 0.0
H878 H 0.40424 0.63927 0.70182 0.0
H879 H 0.38329 0.63315 0.73901 0.0
C880 C 0.4081 0.6688 0.83929 0.0
C881 C 0.39794 0.66806 0.88588 0.0
C882 C 0.41075 0.65265 0.8109 0.0
C883 C 0.4032 0.63543 0.8282 0.0
C884 C 0.39213 0.63479 0.87314 0.0
H885 H 0.44616 0.54266 0.64198 0.0
H886 H 0.42277 0.56024 0.69172 0.0
C887 C 0.38942 0.65099 0.90162 0.0
C888 C 0.40956 0.618 0.80365 0.0
H889 H 0.41773 0.59934 0.68604 0.0
C890 C 0.4201 0.60532 0.83334 0.0
C891 C 0.40772 0.61511 0.75037 0.0
C892 C 0.39545 0.62742 0.71709 0.0
C893 C 0.43025 0.59086 0.81047 0.0
C894 C 0.43004 0.58924 0.75655 0.0
C895 C 0.41812 0.6008 0.72736 0.0
C896 C 0.44391 0.57744 0.72947 0.0
C897 C 0.4418 0.57797 0.844 0.0
C898 C 0.46347 0.58137 0.73418 0.0
C899 C 0.47678 0.5715 0.70581 0.0
C900 C 0.4708 0.55751 0.67198 0.0
C901 C 0.4512 0.55332 0.66793 0.0
C902 C 0.43783 0.56333 0.6962 0.0
H903 H 0.43565 0.57682 0.88325 0.0
H904 H 0.4426 0.56377 0.8275 0.0
H905 H 0.45652 0.5837 0.84736 0.0
H906 H 0.46843 0.59247 0.75884 0.0
H907 H 0.49175 0.57508 0.70982 0.0
H908 H 0.81334 0.56729 0.84325 0.0
H909 H 0.83979 0.55098 0.80214 0.0
H910 H 0.85884 0.53128 0.95 0.0
H911 H 0.83238 0.54724 0.99121 0.0
H912 H 0.87965 0.55697 0.82423 0.0
H913 H 0.85601 0.48347 0.86051 0.0
H914 H 0.83991 0.50296 0.8633 0.0
H915 H 0.85595 0.49845 0.91534 0.0
C916 C 0.82309 0.55936 0.86687 0.0
C917 C 0.82086 0.55861 0.92041 0.0
C918 C 0.83817 0.55009 0.84343 0.0
C919 C 0.85106 0.53976 0.8731 0.0
C920 C 0.84886 0.53896 0.92646 0.0
H921 H 0.96392 0.50783 0.77377 0.0
H922 H 0.93686 0.51497 0.82925 0.0
C923 C 0.83388 0.54828 0.94993 0.0
C924 C 0.8674 0.53058 0.84854 0.0
H925 H 0.88706 0.48803 0.82552 0.0
C926 C 0.8813 0.54191 0.8245 0.0
C927 C 0.86938 0.51092 0.84896 0.0
C928 C 0.85447 0.49816 0.87303 0.0
C929 C 0.89726 0.53411 0.80094 0.0
C930 C 0.89941 0.51447 0.802 0.0
C931 C 0.88545 0.50308 0.82564 0.0
C932 C 0.91552 0.50573 0.77528 0.0
C933 C 0.91153 0.5469 0.77415 0.0
C934 C 0.91238 0.49706 0.7282 0.0
C935 C 0.92777 0.49294 0.6964 0.0
C936 C 0.94651 0.49748 0.71133 0.0
C937 C 0.94967 0.50427 0.76097 0.0
C938 C 0.93424 0.50843 0.79269 0.0
H939 H 0.90615 0.56137 0.76963 0.0
H940 H 0.92486 0.54748 0.79689 0.0
H941 H 0.91514 0.54149 0.73566 0.0
H942 H 0.89799 0.4948 0.71435 0.0
H943 H 0.92488 0.48753 0.65859 0.0
H944 H 0.00873 0.21826 0.86367 0.0
H945 H 0.00813 0.19194 0.80525 0.0
H946 H 0.06603 0.17882 0.84612 0.0
H947 H 0.06661 0.20508 0.90562 0.0
H948 H 0.02851 0.1805 0.72256 0.0
H949 H 0.03807 0.13107 0.88681 0.0
H950 H 0.03364 0.15558 0.89573 0.0
H951 H 0.05698 0.14793 0.8773 0.0
C952 C 0.02154 0.21011 0.8593 0.0
C953 C 0.03768 0.2137 0.88961 0.0
C954 C 0.02114 0.19497 0.82603 0.0
C955 C 0.03686 0.1831 0.82221 0.0
C956 C 0.05353 0.18746 0.8495 0.0
H957 H 0.03094 0.07431 0.6627 0.0
H958 H 0.04497 0.10243 0.70179 0.0
C959 C 0.05389 0.20254 0.88322 0.0
C960 C 0.03506 0.16559 0.79244 0.0
H961 H 0.03268 0.11798 0.80615 0.0
C962 C 0.0297 0.16684 0.74069 0.0
C963 C 0.03656 0.1477 0.81611 0.0
C964 C 0.04147 0.14538 0.87211 0.0
C965 C 0.02515 0.15078 0.71262 0.0
C966 C 0.02593 0.13303 0.73689 0.0
C967 C 0.03221 0.13164 0.7877 0.0
C968 C 0.01793 0.11612 0.71239 0.0
C969 C 0.01891 0.15289 0.65761 0.0
C970 C 0.99815 0.11445 0.70632 0.0
C971 C 0.99013 0.09845 0.6848 0.0
C972 C 0.00174 0.08374 0.66858 0.0
C973 C 0.02163 0.0854 0.67475 0.0
C974 C 0.02965 0.10143 0.69695 0.0
H975 H 0.02334 0.16666 0.64096 0.0
H976 H 0.02491 0.14161 0.6338 0.0
H977 H 0.00313 0.15179 0.6558 0.0
H978 H 0.98886 0.12554 0.71863 0.0
H979 H 0.97478 0.09771 0.68059 0.0
H980 H 0.30359 0.10003 0.89214 0.0
H981 H 0.33338 0.09448 0.84695 0.0
H982 H 0.30916 0.0445 0.78176 0.0
H983 H 0.27887 0.05045 0.82481 0.0
H984 H 0.35541 0.06488 0.86468 0.0
H985 H 0.33646 0.06688 0.65904 0.0
H986 H 0.32096 0.07584 0.70811 0.0
H987 H 0.32133 0.05117 0.69528 0.0
C988 C 0.30425 0.08823 0.86665 0.0
C989 C 0.28869 0.07572 0.8621 0.0
C990 C 0.32145 0.08497 0.84125 0.0
C991 C 0.32352 0.06915 0.81067 0.0
C992 C 0.30782 0.05701 0.80435 0.0
H993 H 0.41257 0.00387 0.68595 0.0
H994 H 0.38352 0.01759 0.7194 0.0
C995 C 0.29055 0.06032 0.8295 0.0
C996 C 0.34257 0.06437 0.78979 0.0
H997 H 0.36589 0.05184 0.68057 0.0
C998 C 0.35778 0.06233 0.82428 0.0
C999 C 0.34567 0.06105 0.73709 0.0
C1000 C 0.33028 0.06404 0.69768 0.0
C1001 C 0.37576 0.0563 0.80784 0.0
C1002 C 0.37862 0.05234 0.75551 0.0
C1003 C 0.3636 0.05486 0.72075 0.0
C1004 C 0.39664 0.04426 0.73664 0.0
C1005 C 0.39134 0.05346 0.84679 0.0
C1006 C 0.41373 0.05472 0.7356 0.0
C1007 C 0.4305 0.0469 0.71637 0.0
C1008 C 0.43038 0.0285 0.69793 0.0
C1009 C 0.41324 0.01806 0.69985 0.0
C1010 C 0.39656 0.02589 0.7188 0.0
H1011 H 0.38599 0.05456 0.88676 0.0
H1012 H 0.39792 0.03955 0.84204 0.0
H1013 H 0.40267 0.06424 0.84066 0.0
H1014 H 0.41402 0.06901 0.74887 0.0
H1015 H 0.44343 0.05534 0.71512 0.0
H1016 H 0.49902 0.30595 0.96579 0.0
H1017 H 0.48501 0.3307 0.9132 0.0
H1018 H 0.53603 0.33343 0.82035 0.0
H1019 H 0.54983 0.30825 0.87156 0.0
H1020 H 0.5004 0.36513 0.91106 0.0
H1021 H 0.49557 0.33998 0.71229 0.0
H1022 H 0.49836 0.32426 0.76647 0.0
H1023 H 0.51881 0.33605 0.73844 0.0
C1024 C 0.50696 0.31128 0.9329 0.0
C1025 C 0.52561 0.3052 0.92305 0.0
C1026 C 0.49897 0.32553 0.90308 0.0
C1027 C 0.5094 0.33389 0.86264 0.0
C1028 C 0.52753 0.327 0.85068 0.0
H1029 H 0.52435 0.44516 0.76415 0.0
H1030 H 0.52306 0.41441 0.80555 0.0
C1031 C 0.53551 0.31273 0.88039 0.0
C1032 C 0.50276 0.35148 0.83815 0.0
H1033 H 0.49811 0.37366 0.72221 0.0
C1034 C 0.49949 0.36686 0.86978 0.0
C1035 C 0.50137 0.35377 0.78434 0.0
C1036 C 0.50352 0.33756 0.7485 0.0
C1037 C 0.49609 0.38468 0.849 0.0
C1038 C 0.49624 0.38725 0.79521 0.0
C1039 C 0.49824 0.37169 0.7635 0.0
C1040 C 0.4962 0.40618 0.77149 0.0
C1041 C 0.49292 0.40074 0.88485 0.0
C1042 C 0.48158 0.4117 0.7382 0.0
C1043 C 0.48224 0.42939 0.71443 0.0
C1044 C 0.4977 0.44167 0.72309 0.0
C1045 C 0.51222 0.43608 0.75674 0.0
C1046 C 0.51147 0.41852 0.78064 0.0
H1047 H 0.48755 0.39574 0.92282 0.0
H1048 H 0.50667 0.40821 0.89098 0.0
H1049 H 0.48261 0.41084 0.86852 0.0
H1050 H 0.46974 0.4023 0.73043 0.0
H1051 H 0.47092 0.43324 0.6884 0.0
H1052 H 0.2152 0.44964 0.85168 0.0
H1053 H 0.18649 0.46005 0.80664 0.0
H1054 H 0.15218 0.42166 0.89763 0.0
H1055 H 0.18039 0.41176 0.94404 0.0
H1056 H 0.15761 0.44059 0.75027 0.0
H1057 H 0.12891 0.47294 0.92627 0.0
H1058 H 0.15337 0.46565 0.92071 0.0
H1059 H 0.13477 0.44871 0.93395 0.0
C1060 C 0.20155 0.44337 0.862 0.0
C1061 C 0.20018 0.42988 0.90169 0.0
C1062 C 0.18519 0.44926 0.83602 0.0
C1063 C 0.16719 0.44183 0.84945 0.0
C1064 C 0.1659 0.42777 0.88722 0.0
H1065 H 0.05905 0.45736 0.68894 0.0
H1066 H 0.08756 0.44397 0.72845 0.0
C1067 C 0.18216 0.42194 0.91325 0.0
C1068 C 0.14962 0.44932 0.8259 0.0
H1069 H 0.10819 0.47151 0.85489 0.0
C1070 C 0.1468 0.44738 0.77301 0.0
C1071 C 0.13566 0.45837 0.85567 0.0
C1072 C 0.13834 0.46173 0.91221 0.0
C1073 C 0.13022 0.45405 0.74917 0.0
C1074 C 0.11602 0.46262 0.77926 0.0
C1075 C 0.11898 0.46473 0.83202 0.0
C1076 C 0.09839 0.47037 0.75652 0.0
C1077 C 0.12824 0.45225 0.69187 0.0
C1078 C 0.09468 0.4895 0.76085 0.0
C1079 C 0.07836 0.49714 0.7389 0.0
C1080 C 0.06535 0.48578 0.71222 0.0
C1081 C 0.0688 0.46649 0.70914 0.0
C1082 C 0.08518 0.45885 0.73124 0.0
H1083 H 0.14215 0.44947 0.67308 0.0
H1084 H 0.11842 0.44041 0.68349 0.0
H1085 H 0.12218 0.46514 0.67465 0.0
H1086 H 0.10461 0.49863 0.78051 0.0
H1087 H 0.07615 0.51203 0.74212 0.0
H1088 H 0.96459 0.80868 0.2869 0.0
H1089 H 0.96266 0.83699 0.3386 0.0
H1090 H 0.02294 0.83398 0.36919 0.0
H1091 H 0.02496 0.80579 0.31818 0.0
H1092 H 0.00257 0.84414 0.45395 0.0
H1093 H 0.98203 0.8873 0.28441 0.0
H1094 H 0.96627 0.86801 0.29959 0.0
H1095 H 0.99024 0.86362 0.2787 0.0
C1096 C 0.97737 0.81395 0.30516 0.0
C1097 C 0.99494 0.80498 0.29823 0.0
C1098 C 0.97627 0.83018 0.33444 0.0
C1099 C 0.99275 0.83785 0.35681 0.0
C1100 C 0.01005 0.82837 0.35218 0.0
H1101 H 0.0387 0.93597 0.49092 0.0
H1102 H 0.03124 0.90622 0.45045 0.0
C1103 C 0.01115 0.81213 0.32323 0.0
C1104 C 0.99241 0.85614 0.38317 0.0
H1105 H 0.98611 0.90298 0.3624 0.0
C1106 C 0.99879 0.85697 0.43405 0.0
C1107 C 0.9875 0.87292 0.35715 0.0
C1108 C 0.98127 0.87305 0.30183 0.0
C1109 C 0.00082 0.87411 0.45916 0.0
C1110 C 0.99648 0.89087 0.43262 0.0
C1111 C 0.9894 0.89006 0.38253 0.0
C1112 C 0.00067 0.90939 0.45505 0.0
C1113 C 0.00792 0.87425 0.51367 0.0
C1114 C 0.9859 0.92129 0.46964 0.0
C1115 C 0.9901 0.93838 0.49299 0.0
C1116 C 0.00916 0.9439 0.50156 0.0
C1117 C 0.02387 0.93219 0.48506 0.0
C1118 C 0.01965 0.91511 0.46214 0.0
H1119 H 0.00643 0.86027 0.53245 0.0
H1120 H 0.02324 0.87833 0.51375 0.0
H1121 H 1.00004 0.8846 0.53669 0.0
H1122 H 0.97115 0.91714 0.46409 0.0
H1123 H 0.97844 0.94708 0.50522 0.0
H1124 H 0.70732 0.96741 0.30302 0.0
H1125 H 0.6792 0.97519 0.35337 0.0
H1126 H 0.6692 0.91674 0.38727 0.0
H1127 H 0.69767 0.90879 0.33793 0.0
H1128 H 0.63822 0.93591 0.33866 0.0
H1129 H 0.66522 0.97393 0.50811 0.0
H1130 H 0.67547 0.98157 0.44802 0.0
H1131 H 0.67988 0.9583 0.47152 0.0
C1132 C 0.69963 0.95622 0.32276 0.0
C1133 C 0.70475 0.93745 0.31613 0.0
C1134 C 0.68346 0.96071 0.35139 0.0
C1135 C 0.67214 0.94654 0.37405 0.0
C1136 C 0.67776 0.92787 0.37001 0.0
H1137 H 0.55519 0.9546 0.49541 0.0
H1138 H 0.58547 0.94218 0.46426 0.0
C1139 C 0.69401 0.92337 0.34168 0.0
C1140 C 0.65338 0.95111 0.39671 0.0
H1141 H 0.63219 0.97713 0.48903 0.0
C1142 C 0.63684 0.94471 0.37197 0.0
C1143 C 0.6517 0.96267 0.43991 0.0
C1144 C 0.66899 0.96941 0.46881 0.0
C1145 C 0.61863 0.95023 0.38796 0.0
C1146 C 0.61694 0.96212 0.43062 0.0
C1147 C 0.6335 0.96807 0.45623 0.0
C1148 C 0.59825 0.96934 0.44791 0.0
C1149 C 0.60148 0.94397 0.35761 0.0
C1150 C 0.59542 0.9887 0.44955 0.0
C1151 C 0.57826 0.9958 0.46774 0.0
C1152 C 0.56352 0.9837 0.48461 0.0
C1153 C 0.56619 0.96428 0.48207 0.0
C1154 C 0.58348 0.95716 0.46421 0.0
H1155 H 0.60556 0.93893 0.31904 0.0
H1156 H 0.59417 0.93228 0.37839 0.0
H1157 H 0.59117 0.95552 0.35284 0.0
H1158 H 0.60659 0.99836 0.4371 0.0
H1159 H 0.57667 0.01083 0.4692 0.0
H1160 H 0.45103 0.70464 0.31398 0.0
H1161 H 0.46529 0.67993 0.36582 0.0
H1162 H 0.51376 0.67922 0.26354 0.0
H1163 H 0.4992 0.70351 0.21036 0.0
H1164 H 0.49741 0.64562 0.27209 0.0
H1165 H 0.5077 0.67277 0.46701 0.0
H1166 H 0.48403 0.67744 0.44503 0.0
H1167 H 0.50418 0.68801 0.41217 0.0
C1168 C 0.46494 0.69954 0.3032 0.0
C1169 C 0.47388 0.7059 0.25777 0.0
C1170 C 0.47321 0.68554 0.33325 0.0
C1171 C 0.49069 0.67777 0.31885 0.0
C1172 C 0.50031 0.68507 0.27555 0.0
H1173 H 0.52498 0.57809 0.49845 0.0
H1174 H 0.52794 0.60846 0.45387 0.0
C1175 C 0.49202 0.69906 0.24536 0.0
C1176 C 0.49712 0.66021 0.34392 0.0
H1177 H 0.50234 0.63906 0.46106 0.0
C1178 C 0.49895 0.64431 0.31333 0.0
C1179 C 0.49937 0.65844 0.39764 0.0
C1180 C 0.49892 0.67515 0.43222 0.0
C1181 C 0.50156 0.62654 0.33527 0.0
C1182 C 0.50205 0.62456 0.38921 0.0
C1183 C 0.50167 0.64058 0.41968 0.0
C1184 C 0.50096 0.60592 0.41454 0.0
C1185 C 0.50315 0.60993 0.30054 0.0
C1186 C 0.48478 0.59454 0.40731 0.0
C1187 C 0.48302 0.57731 0.43265 0.0
C1188 C 0.49739 0.5711 0.46591 0.0
C1189 C 0.51371 0.58243 0.47279 0.0
C1190 C 0.51541 0.59979 0.44754 0.0
H1191 H 0.50851 0.61416 0.26191 0.0
H1192 H 0.5128 0.59924 0.31697 0.0
H1193 H 0.48882 0.60343 0.29577 0.0
H1194 H 0.4733 0.59917 0.38274 0.0
H1195 H 0.47024 0.56897 0.42661 0.0
H1196 H 0.79349 0.60409 0.33416 0.0
H1197 H 0.82094 0.59252 0.38221 0.0
H1198 H 0.80542 0.53594 0.34376 0.0
H1199 H 0.77852 0.54733 0.29397 0.0
H1200 H 0.82727 0.56622 0.46256 0.0
H1201 H 0.85829 0.54346 0.27778 0.0
H1202 H 0.83781 0.55843 0.28113 0.0
H1203 H 0.83511 0.53363 0.29154 0.0
C1204 C 0.79576 0.58916 0.33651 0.0
C1205 C 0.78394 0.57669 0.3094 0.0
C1206 C 0.81141 0.58257 0.36416 0.0
C1207 C 0.81548 0.56343 0.3653 0.0
C1208 C 0.80274 0.55082 0.34237 0.0
H1209 H 0.90897 0.49552 0.46851 0.0
H1210 H 0.87925 0.50801 0.43446 0.0
C1211 C 0.78717 0.55737 0.31449 0.0
C1212 C 0.8338 0.55678 0.38657 0.0
H1213 H 0.87497 0.53492 0.35308 0.0
C1214 C 0.83774 0.55943 0.43869 0.0
C1215 C 0.84752 0.54811 0.3551 0.0
C1216 C 0.84461 0.54588 0.29818 0.0
C1217 C 0.85484 0.55313 0.4605 0.0
C1218 C 0.86838 0.54418 0.42915 0.0
C1219 C 0.86451 0.54172 0.37699 0.0
C1220 C 0.8865 0.53687 0.4498 0.0
C1221 C 0.85814 0.55568 0.51709 0.0
C1222 C 0.90059 0.54902 0.46873 0.0
C1223 C 0.91769 0.54194 0.48796 0.0
C1224 C 0.92096 0.52256 0.48859 0.0
C1225 C 0.90691 0.5105 0.46871 0.0
C1226 C 0.8899 0.5176 0.44931 0.0
H1227 H 0.84482 0.55933 0.53767 0.0
H1228 H 0.86402 0.54276 0.53467 0.0
H1229 H 0.8687 0.56716 0.52261 0.0
H1230 H 0.89838 0.56398 0.46854 0.0
H1231 H 0.92821 0.55161 0.50297 0.0
loop_
_geom_bond_atom_site_label_1
_geom_bond_atom_site_label_2
_geom_bond_distance
_geom_bond_site_symmetry_2
_ccdc_geom_bond_type
C0 C1 1.384 . S
C0 H13 0.947 . S
C0 C35 1.382 . S
C1 C0 1.384 . S
C1 C2 1.378 . S
C2 C1 1.378 . S
C2 C3 1.378 . S
C2 H14 0.952 . S
C3 C2 1.378 . S
C3 H15 0.950 . S
C3 C34 1.383 . S
H4 C23 0.947 . S
H5 C24 0.946 . S
H6 C26 0.953 . S
H7 C27 0.945 . S
H8 C29 0.952 . S
H9 C30 0.949 . S
H10 C32 0.950 . S
H11 C33 0.948 . S
H12 C35 0.951 . S
H13 C0 0.947 . S
H14 C2 0.952 . S
H15 C3 0.950 . S
N16 C19 1.382 1_554 S
N16 C21 1.363 . S
N17 C19 1.371 . S
N17 C20 1.372 . S
N18 C20 1.361 1_554 S
N18 C21 1.377 . S
C19 N16 1.382 1_556 S
C19 N17 1.371 . S
C19 C22 1.480 . S
C20 N17 1.372 . S
C20 N18 1.361 1_556 S
C20 C28 1.457 . S
C21 N16 1.363 . S
C21 N18 1.377 . S
C21 C34 1.479 . S
C22 C19 1.480 . S
C22 C23 1.383 1_556 S
C22 C27 1.385 . S
C23 H4 0.947 . S
C23 C22 1.383 1_554 S
C23 C24 1.388 . S
C24 H5 0.946 . S
C24 C23 1.388 . S
C24 C25 1.384 1_554 S
C25 C24 1.384 1_556 S
C25 C26 1.377 . S
C26 H6 0.953 . S
C26 C25 1.377 . S
C26 C27 1.369 . S
C27 H7 0.945 . S
C27 C22 1.385 . S
C27 C26 1.369 . S
C28 C20 1.457 . S
C28 C29 1.372 . S
C28 C33 1.364 . S
C29 H8 0.952 . S
C29 C28 1.372 . S
C29 C30 1.389 . S
C30 H9 0.949 . S
C30 C29 1.389 . S
C30 C31 1.387 . S
C31 C30 1.387 . S
C31 C32 1.372 . S
C32 H10 0.950 . S
C32 C31 1.372 . S
C32 C33 1.379 . S
C33 H11 0.948 . S
C33 C28 1.364 . S
C33 C32 1.379 . S
C34 C3 1.383 . S
C34 C21 1.479 . S
C34 C35 1.398 . S
C35 C0 1.382 . S
C35 H12 0.951 . S
C35 C34 1.398 . S
C36 C37 1.383 1_655 S
C36 H49 0.948 . S
C36 C71 1.382 1_655 S
C37 C36 1.383 1_455 S
C37 C38 1.378 . S
C38 C37 1.378 . S
C38 C39 1.378 . S
C38 H50 0.952 . S
C39 C38 1.378 . S
C39 H51 0.950 . S
C39 C70 1.383 . S
H40 C59 0.947 . S
H41 C60 0.952 . S
H42 C62 0.953 . S
H43 C63 0.945 . S
H44 C65 0.950 1_655 S
H45 C66 0.956 . S
H46 C68 0.950 . S
H47 C69 0.948 1_554 S
H48 C71 0.952 1_655 S
H49 C36 0.948 . S
H50 C38 0.952 . S
H51 C39 0.950 . S
N52 C55 1.382 . S
N52 C57 1.363 . S
N53 C55 1.371 1_556 S
N53 C56 1.372 . S
N54 C56 1.361 1_554 S
N54 C57 1.377 . S
C55 N52 1.382 . S
C55 N53 1.371 1_554 S
C55 C58 1.480 . S
C56 N53 1.372 . S
C56 N54 1.361 1_556 S
C56 C64 1.457 . S
C57 N52 1.363 . S
C57 N54 1.377 . S
C57 C70 1.479 . S
C58 C55 1.480 . S
C58 C59 1.383 . S
C58 C63 1.385 1_554 S
C59 H40 0.947 . S
C59 C58 1.383 . S
C59 C60 1.386 1_455 S
C60 H41 0.952 . S
C60 C59 1.386 1_655 S
C60 C61 1.381 1_654 S
C61 C60 1.381 1_456 S
C61 C62 1.377 . S
C62 H42 0.953 . S
C62 C61 1.377 . S
C62 C63 1.369 . S
C63 H43 0.945 . S
C63 C58 1.385 1_556 S
C63 C62 1.369 . S
C64 C56 1.457 . S
C64 C65 1.376 . S
C64 C69 1.364 . S
C65 H44 0.950 1_455 S
C65 C64 1.376 . S
C65 C66 1.386 1_455 S
C66 H45 0.956 . S
C66 C65 1.386 1_655 S
C66 C67 1.383 1_655 S
C67 C66 1.383 1_455 S
C67 C68 1.372 . S
C68 H46 0.950 . S
C68 C67 1.372 . S
C68 C69 1.379 . S
C69 H47 0.948 1_556 S
C69 C64 1.364 . S
C69 C68 1.379 . S
C70 C39 1.383 . S
C70 C57 1.479 . S
C70 C71 1.398 . S
C71 C36 1.382 1_455 S
C71 H48 0.952 1_455 S
C71 C70 1.398 . S
C72 C73 1.384 . S
C72 H85 0.947 . S
C72 C107 1.382 . S
C73 C72 1.384 . S
C73 C74 1.378 . S
C74 C73 1.378 . S
C74 C75 1.378 . S
C74 H86 0.952 . S
C75 C74 1.378 . S
C75 H87 0.950 . S
C75 C106 1.383 . S
H76 C95 0.947 . S
H77 C96 0.946 . S
H78 C98 0.953 . S
H79 C99 0.945 . S
H80 C101 0.952 . S
H81 C102 0.949 . S
H82 C104 0.950 . S
H83 C105 0.948 1_554 S
H84 C107 0.951 . S
H85 C72 0.947 . S
H86 C74 0.952 . S
H87 C75 0.950 . S
N88 C91 1.382 . S
N88 C93 1.363 . S
N89 C91 1.371 1_556 S
N89 C92 1.372 . S
N90 C92 1.361 1_554 S
N90 C93 1.377 . S
C91 N88 1.382 . S
C91 N89 1.371 1_554 S
C91 C94 1.480 . S
C92 N89 1.372 . S
C92 N90 1.361 1_556 S
C92 C100 1.457 . S
C93 N88 1.363 . S
C93 N90 1.377 . S
C93 C106 1.479 . S
C94 C91 1.480 . S
C94 C95 1.383 . S
C94 C99 1.385 1_554 S
C95 H76 0.947 . S
C95 C94 1.383 . S
C95 C96 1.388 . S
C96 H77 0.946 . S
C96 C95 1.388 . S
C96 C97 1.384 1_554 S
C97 C96 1.384 1_556 S
C97 C98 1.377 . S
C98 H78 0.953 . S
C98 C97 1.377 . S
C98 C99 1.369 . S
C99 H79 0.945 . S
C99 C94 1.385 1_556 S
C99 C98 1.369 . S
C100 C92 1.457 . S
C100 C101 1.372 . S
C100 C105 1.364 . S
C101 H80 0.952 . S
C101 C100 1.372 . S
C101 C102 1.389 . S
C102 H81 0.949 . S
C102 C101 1.389 . S
C102 C103 1.387 . S
C103 C102 1.387 . S
C103 C104 1.372 . S
C104 H82 0.950 . S
C104 C103 1.372 . S
C104 C105 1.379 . S
C105 H83 0.948 1_556 S
C105 C100 1.364 . S
C105 C104 1.379 . S
C106 C75 1.383 . S
C106 C93 1.479 . S
C106 C107 1.398 . S
C107 C72 1.382 . S
C107 H84 0.951 . S
C107 C106 1.398 . S
C108 C109 1.384 . S
C108 H121 0.947 . S
C108 C143 1.382 . S
C109 C108 1.384 . S
C109 C110 1.378 . S
C110 C109 1.378 . S
C110 C111 1.378 . S
C110 H122 0.952 . S
C111 C110 1.378 . S
C111 H123 0.950 . S
C111 C142 1.383 . S
H112 C131 0.947 . S
H113 C132 0.946 . S
H114 C134 0.953 . S
H115 C135 0.945 . S
H116 C137 0.952 . S
H117 C138 0.949 . S
H118 C140 0.950 . S
H119 C141 0.948 . S
H120 C143 0.951 1_554 S
H121 C108 0.947 . S
H122 C110 0.952 . S
H123 C111 0.950 . S
N124 C127 1.382 1_556 S
N124 C129 1.359 1_556 S
N125 C127 1.371 . S
N125 C128 1.372 . S
N126 C128 1.361 . S
N126 C129 1.394 . S
C127 N124 1.382 1_554 S
C127 N125 1.371 . S
C127 C130 1.480 . S
C128 N125 1.372 . S
C128 N126 1.361 . S
C128 C136 1.457 . S
C129 N124 1.359 1_554 S
C129 N126 1.394 . S
C129 C142 1.465 1_554 S
C130 C127 1.480 . S
C130 C131 1.383 1_554 S
C130 C135 1.385 . S
C131 H112 0.947 . S
C131 C130 1.383 1_556 S
C131 C132 1.388 . S
C132 H113 0.946 . S
C132 C131 1.388 . S
C132 C133 1.384 . S
C133 C132 1.384 . S
C133 C134 1.377 1_556 S
C134 H114 0.953 . S
C134 C133 1.377 1_554 S
C134 C135 1.369 . S
C135 H115 0.945 . S
C135 C130 1.385 . S
C135 C134 1.369 . S
C136 C128 1.457 . S
C136 C137 1.372 . S
C136 C141 1.364 . S
C137 H116 0.952 . S
C137 C136 1.372 . S
C137 C138 1.389 . S
C138 H117 0.949 . S
C138 C137 1.389 . S
C138 C139 1.387 . S
C139 C138 1.387 . S
C139 C140 1.372 . S
C140 H118 0.950 . S
C140 C139 1.372 . S
C140 C141 1.379 . S
C141 H119 0.948 . S
C141 C136 1.364 . S
C141 C140 1.379 . S
C142 C111 1.383 . S
C142 C129 1.465 1_556 S
C142 C143 1.398 . S
C143 C108 1.382 . S
C143 H120 0.951 1_556 S
C143 C142 1.398 . S
C144 C145 1.384 1_554 S
C144 H157 0.947 . S
C144 C179 1.382 . S
C145 C144 1.384 1_556 S
C145 C146 1.378 . S
C146 C145 1.378 . S
C146 C147 1.378 1_556 S
C146 H158 0.952 . S
C147 C146 1.378 1_554 S
C147 H159 0.950 . S
C147 C178 1.383 . S
H148 C167 0.947 . S
H149 C168 0.946 . S
H150 C170 0.953 . S
H151 C171 0.945 . S
H152 C173 0.952 . S
H153 C174 0.949 . S
H154 C176 0.950 . S
H155 C177 0.948 . S
H156 C179 0.951 . S
H157 C144 0.947 . S
H158 C146 0.952 . S
H159 C147 0.950 . S
N160 C163 1.382 . S
N160 C165 1.363 . S
N161 C163 1.371 . S
N161 C164 1.372 . S
N162 C164 1.361 . S
N162 C165 1.377 . S
C163 N160 1.382 . S
C163 N161 1.371 . S
C163 C166 1.480 . S
C164 N161 1.372 . S
C164 N162 1.361 . S
C164 C172 1.457 . S
C165 N160 1.363 . S
C165 N162 1.377 . S
C165 C178 1.479 . S
C166 C163 1.480 . S
C166 C167 1.383 . S
C166 C171 1.385 . S
C167 H148 0.947 . S
C167 C166 1.383 . S
C167 C168 1.388 . S
C168 H149 0.946 . S
C168 C167 1.388 . S
C168 C169 1.384 . S
C169 C168 1.384 . S
C169 C170 1.377 . S
C170 H150 0.953 . S
C170 C169 1.377 . S
C170 C171 1.369 . S
C171 H151 0.945 . S
C171 C166 1.385 . S
C171 C170 1.369 . S
C172 C164 1.457 . S
C172 C173 1.372 . S
C172 C177 1.364 . S
C173 H152 0.952 . S
C173 C172 1.372 . S
C173 C174 1.389 . S
C174 H153 0.949 . S
C174 C173 1.389 . S
C174 C175 1.387 . S
C175 C174 1.387 . S
C175 C176 1.372 . S
C176 H154 0.950 . S
C176 C175 1.372 . S
C176 C177 1.379 . S
C177 H155 0.948 . S
C177 C172 1.364 . S
C177 C176 1.379 . S
C178 C147 1.383 . S
C178 C165 1.479 . S
C178 C179 1.398 . S
C179 C144 1.382 . S
C179 H156 0.951 . S
C179 C178 1.398 . S
C180 C181 1.384 . S
C180 H193 0.948 1_455 S
C180 C215 1.382 1_556 S
C181 C180 1.384 . S
C181 C182 1.378 . S
C182 C181 1.378 . S
C182 C183 1.378 1_556 S
C182 H194 0.952 . S
C183 C182 1.378 1_554 S
C183 H195 0.950 . S
C183 C214 1.383 . S
H184 C203 0.947 . S
H185 C204 0.949 . S
H186 C206 0.953 . S
H187 C207 0.945 . S
H188 C209 0.947 1_655 S
H189 C210 0.954 . S
H190 C212 0.950 . S
H191 C213 0.948 . S
H192 C215 0.950 1_655 S
H193 C180 0.948 1_655 S
H194 C182 0.952 . S
H195 C183 0.950 . S
N196 C199 1.382 . S
N196 C201 1.363 . S
N197 C199 1.371 . S
N197 C200 1.372 . S
N198 C200 1.361 . S
N198 C201 1.377 . S
C199 N196 1.382 . S
C199 N197 1.371 . S
C199 C202 1.480 . S
C200 N197 1.372 . S
C200 N198 1.361 . S
C200 C208 1.457 . S
C201 N196 1.363 . S
C201 N198 1.377 . S
C201 C214 1.479 . S
C202 C199 1.480 . S
C202 C203 1.383 . S
C202 C207 1.385 . S
C203 H184 0.947 . S
C203 C202 1.383 . S
C203 C204 1.387 1_455 S
C204 H185 0.949 . S
C204 C203 1.387 1_655 S
C204 C205 1.383 1_655 S
C205 C204 1.383 1_455 S
C205 C206 1.377 . S
C206 H186 0.953 . S
C206 C205 1.377 . S
C206 C207 1.369 . S
C207 H187 0.945 . S
C207 C202 1.385 . S
C207 C206 1.369 . S
C208 C200 1.457 . S
C208 C209 1.379 . S
C208 C213 1.364 . S
C209 H188 0.947 1_455 S
C209 C208 1.379 . S
C209 C210 1.387 1_455 S
C210 H189 0.954 . S
C210 C209 1.387 1_655 S
C210 C211 1.383 1_655 S
C211 C210 1.383 1_455 S
C211 C212 1.372 . S
C212 H190 0.950 . S
C212 C211 1.372 . S
C212 C213 1.379 . S
C213 H191 0.948 . S
C213 C208 1.364 . S
C213 C212 1.379 . S
C214 C183 1.383 . S
C214 C201 1.479 . S
C214 C215 1.399 . S
C215 C180 1.382 1_554 S
C215 H192 0.950 1_455 S
C215 C214 1.399 . S
C216 C217 1.384 . S
C216 H229 0.947 . S
C216 C251 1.382 1_556 S
C217 C216 1.384 . S
C217 C218 1.378 . S
C218 C217 1.378 . S
C218 C219 1.378 1_556 S
C218 H230 0.952 . S
C219 C218 1.378 1_554 S
C219 H231 0.950 . S
C219 C250 1.383 . S
H220 C239 0.947 . S
H221 C240 0.946 . S
H222 C242 0.953 . S
H223 C243 0.945 . S
H224 C245 0.952 . S
H225 C246 0.949 . S
H226 C248 0.950 . S
H227 C249 0.948 . S
H228 C251 0.951 . S
H229 C216 0.947 . S
H230 C218 0.952 . S
H231 C219 0.950 . S
N232 C235 1.382 . S
N232 C237 1.363 . S
N233 C235 1.371 . S
N233 C236 1.372 . S
N234 C236 1.361 . S
N234 C237 1.377 . S
C235 N232 1.382 . S
C235 N233 1.371 . S
C235 C238 1.480 . S
C236 N233 1.372 . S
C236 N234 1.361 . S
C236 C244 1.457 . S
C237 N232 1.363 . S
C237 N234 1.377 . S
C237 C250 1.479 . S
C238 C235 1.480 . S
C238 C239 1.383 . S
C238 C243 1.385 . S
C239 H220 0.947 . S
C239 C238 1.383 . S
C239 C240 1.388 . S
C240 H221 0.946 . S
C240 C239 1.388 . S
C240 C241 1.384 . S
C241 C240 1.384 . S
C241 C242 1.377 . S
C242 H222 0.953 . S
C242 C241 1.377 . S
C242 C243 1.369 . S
C243 H223 0.945 . S
C243 C238 1.385 . S
C243 C242 1.369 . S
C244 C236 1.457 . S
C244 C245 1.372 . S
C244 C249 1.364 . S
C245 H224 0.952 . S
C245 C244 1.372 . S
C245 C246 1.389 . S
C246 H225 0.949 . S
C246 C245 1.389 . S
C246 C247 1.387 . S
C247 C246 1.387 . S
C247 C248 1.372 . S
C248 H226 0.950 . S
C248 C247 1.372 . S
C248 C249 1.379 . S
C249 H227 0.948 . S
C249 C244 1.364 . S
C249 C248 1.379 . S
C250 C219 1.383 . S
C250 C237 1.479 . S
C250 C251 1.398 . S
C251 C216 1.382 1_554 S
C251 H228 0.951 . S
C251 C250 1.398 . S
C252 C253 1.384 . S
C252 H265 0.947 . S
C252 C287 1.382 . S
C253 C252 1.384 . S
C253 C254 1.378 . S
C254 C253 1.378 . S
C254 C255 1.378 . S
C254 H266 0.952 . S
C255 C254 1.378 . S
C255 H267 0.950 . S
C255 C286 1.383 . S
H256 C275 0.947 . S
H257 C276 0.946 . S
H258 C278 0.953 . S
H259 C279 0.945 . S
H260 C281 0.952 . S
H261 C282 0.949 . S
H262 C284 0.950 . S
H263 C285 0.948 . S
H264 C287 0.951 . S
H265 C252 0.947 . S
H266 C254 0.952 . S
H267 C255 0.950 . S
N268 C271 1.382 . S
N268 C273 1.363 . S
N269 C271 1.371 . S
N269 C272 1.372 . S
N270 C272 1.361 . S
N270 C273 1.377 . S
C271 N268 1.382 . S
C271 N269 1.371 . S
C271 C274 1.480 . S
C272 N269 1.372 . S
C272 N270 1.361 . S
C272 C280 1.457 . S
C273 N268 1.363 . S
C273 N270 1.377 . S
C273 C286 1.479 . S
C274 C271 1.480 . S
C274 C275 1.383 . S
C274 C279 1.385 . S
C275 H256 0.947 . S
C275 C274 1.383 . S
C275 C276 1.388 . S
C276 H257 0.946 . S
C276 C275 1.388 . S
C276 C277 1.384 . S
C277 C276 1.384 . S
C277 C278 1.377 . S
C278 H258 0.953 . S
C278 C277 1.377 . S
C278 C279 1.369 . S
C279 H259 0.945 . S
C279 C274 1.385 . S
C279 C278 1.369 . S
C280 C272 1.457 . S
C280 C281 1.372 . S
C280 C285 1.364 . S
C281 H260 0.952 . S
C281 C280 1.372 . S
C281 C282 1.389 1_554 S
C282 H261 0.949 . S
C282 C281 1.389 1_556 S
C282 C283 1.387 . S
C283 C282 1.387 . S
C283 C284 1.372 . S
C284 H262 0.950 . S
C284 C283 1.372 . S
C284 C285 1.379 1_556 S
C285 H263 0.948 . S
C285 C280 1.364 . S
C285 C284 1.379 1_554 S
C286 C255 1.383 . S
C286 C273 1.479 . S
C286 C287 1.398 . S
C287 C252 1.382 . S
C287 H264 0.951 . S
C287 C286 1.398 . S
Zn288 O294 1.969 . S
Zn288 O295 1.965 1_655 S
Zn288 O299 2.024 1_655 S
Zn288 O304 1.969 . S
Zn289 O296 1.969 . S
Zn289 O302 1.969 . S
Zn289 O303 1.965 1_455 S
Zn289 O305 2.024 1_455 S
C290 O291 1.229 1_455 S
C290 O299 1.058 . S
O291 C290 1.229 1_655 S
C292 O293 1.229 1_655 S
C292 O305 1.058 . S
O293 C292 1.229 1_455 S
O294 Zn288 1.969 . S
O294 C297 1.267 . S
O295 Zn288 1.965 1_455 S
O295 C306 1.260 . S
O296 Zn289 1.969 . S
O296 C306 1.258 1_565 S
C297 O294 1.267 . S
C297 O298 1.228 1_655 S
O298 C297 1.228 1_455 S
O299 Zn288 2.024 1_455 S
O299 C290 1.058 . S
C300 O301 1.228 1_455 S
C300 O302 1.267 . S
O301 C300 1.228 1_655 S
O302 Zn289 1.969 . S
O302 C300 1.267 . S
O303 Zn289 1.965 1_655 S
O303 C307 1.260 1_565 S
O304 Zn288 1.969 . S
O304 C307 1.258 . S
O305 Zn289 2.024 1_655 S
O305 C292 1.058 . S
C306 O295 1.260 . S
C306 O296 1.258 1_545 S
C307 O303 1.260 1_545 S
C307 O304 1.258 . S
Zn308 O314 1.969 . S
Zn308 O315 1.965 . S
Zn308 O319 2.024 . S
Zn308 O324 1.969 1_545 S
Zn309 O316 1.956 1_565 S
Zn309 O322 1.965 1_565 S
Zn309 O323 1.969 . S
Zn309 O325 2.033 . S
C310 O311 1.229 . S
C310 O319 1.058 . S
O311 C310 1.229 . S
C312 O313 1.267 . S
C312 O325 1.058 . S
O313 C312 1.267 . S
O314 Zn308 1.969 . S
O314 C317 1.267 . S
O315 Zn308 1.965 . S
O315 C326 1.260 . S
O316 Zn309 1.956 1_545 S
O316 C326 1.258 . S
C317 O314 1.267 . S
C317 O318 1.228 . S
O318 C317 1.228 . S
O319 Zn308 2.024 . S
O319 C310 1.058 . S
C320 O321 1.228 . S
C320 O322 1.267 1_565 S
O321 C320 1.228 . S
O322 Zn309 1.965 1_545 S
O322 C320 1.267 1_545 S
O323 Zn309 1.969 . S
O323 C327 1.260 . S
O324 Zn308 1.969 1_565 S
O324 C327 1.258 . S
O325 Zn309 2.033 . S
O325 C312 1.058 . S
C326 O315 1.260 . S
C326 O316 1.258 . S
C327 O323 1.260 . S
C327 O324 1.258 . S
Zn328 O334 1.969 . S
Zn328 O335 1.965 . S
Zn328 O339 2.024 . S
Zn328 O344 1.969 . S
Zn329 O336 1.969 . S
Zn329 O342 1.969 . S
Zn329 O343 1.965 . S
Zn329 O345 2.024 . S
C330 O331 1.229 . S
C330 O339 1.058 . S
O331 C330 1.229 . S
C332 O333 1.229 . S
C332 O345 1.058 . S
O333 C332 1.229 . S
O334 Zn328 1.969 . S
O334 C337 1.267 . S
O335 Zn328 1.965 . S
O335 C346 1.260 . S
O336 Zn329 1.969 . S
O336 C346 1.258 . S
C337 O334 1.267 . S
C337 O338 1.228 . S
O338 C337 1.228 . S
O339 Zn328 2.024 . S
O339 C330 1.058 . S
C340 O341 1.228 . S
C340 O342 1.267 . S
O341 C340 1.228 . S
O342 Zn329 1.969 . S
O342 C340 1.267 . S
O343 Zn329 1.965 . S
O343 C347 1.260 . S
O344 Zn328 1.969 . S
O344 C347 1.258 . S
O345 Zn329 2.024 . S
O345 C332 1.058 . S
C346 O335 1.260 . S
C346 O336 1.258 . S
C347 O343 1.260 . S
C347 O344 1.258 . S
Zn348 O354 1.969 . S
Zn348 O355 1.965 . S
Zn348 O359 2.024 . S
Zn348 O364 1.969 . S
Zn349 O356 1.969 . S
Zn349 O362 1.969 . S
Zn349 O363 1.965 . S
Zn349 O365 2.024 . S
C350 O351 1.229 . S
C350 O359 1.058 . S
O351 C350 1.229 . S
C352 O353 1.229 . S
C352 O365 1.058 . S
O353 C352 1.229 . S
O354 Zn348 1.969 . S
O354 C357 1.267 . S
O355 Zn348 1.965 . S
O355 C366 1.260 1_455 S
O356 Zn349 1.969 . S
O356 C366 1.258 . S
C357 O354 1.267 . S
C357 O358 1.228 . S
O358 C357 1.228 . S
O359 Zn348 2.024 . S
O359 C350 1.058 . S
C360 O361 1.228 . S
C360 O362 1.267 . S
O361 C360 1.228 . S
O362 Zn349 1.969 . S
O362 C360 1.267 . S
O363 Zn349 1.965 . S
O363 C367 1.260 1_655 S
O364 Zn348 1.969 . S
O364 C367 1.258 . S
O365 Zn349 2.024 . S
O365 C352 1.058 . S
C366 O355 1.260 1_655 S
C366 O356 1.258 . S
C367 O363 1.260 1_455 S
C367 O364 1.258 . S
H368 C376 0.929 . S
H369 C378 0.930 . S
H370 C380 0.930 . S
H371 C383 0.929 . S
H372 C386 0.930 . S
H373 C388 0.960 . S
H374 C388 0.960 . S
H375 C388 0.960 . S
C376 H368 0.929 . S
C376 C377 1.377 . S
C376 C378 1.384 . S
C377 C376 1.377 . S
C377 C383 1.390 . S
C378 H369 0.930 . S
C378 C376 1.384 . S
C378 C379 1.372 . S
C379 C378 1.372 . S
C379 C380 1.400 . S
C379 C384 1.490 . S
C380 H370 0.930 . S
C380 C379 1.400 . S
C380 C383 1.386 . S
H381 C397 0.930 . S
H382 C398 0.931 . S
C383 H371 0.929 . S
C383 C377 1.390 . S
C383 C380 1.386 . S
C384 C379 1.490 . S
C384 C386 1.395 . S
C384 C387 1.403 . S
H385 C391 0.930 . S
C386 H372 0.930 . S
C386 C384 1.395 . S
C386 C389 1.403 . S
C387 C384 1.403 . S
C387 C388 1.524 . S
C387 C391 1.400 . S
C388 H373 0.960 . S
C388 H374 0.960 . S
C388 H375 0.960 . S
C388 C387 1.524 . S
C389 C386 1.403 . S
C389 C390 1.392 . S
C389 C393 1.495 . S
C390 C389 1.392 . S
C390 C391 1.385 . S
C390 C392 1.478 . S
C391 H385 0.930 . S
C391 C387 1.400 . S
C391 C390 1.385 . S
C392 C390 1.478 . S
C392 C394 1.381 . S
C392 C398 1.383 . S
C393 C389 1.495 . S
C393 H399 0.959 . S
C393 H400 1.001 . S
C393 H401 0.960 . S
C394 C392 1.381 . S
C394 C395 1.394 . S
C394 H402 0.930 . S
C395 C394 1.394 . S
C395 C396 1.383 . S
C395 H403 0.929 . S
C396 C395 1.383 . S
C396 C397 1.377 . S
C397 H381 0.930 . S
C397 C396 1.377 . S
C397 C398 1.379 . S
C398 H382 0.931 . S
C398 C392 1.383 . S
C398 C397 1.379 . S
H399 C393 0.959 . S
H400 C393 1.001 . S
H401 C393 0.960 . S
H402 C394 0.930 . S
H403 C395 0.929 . S
H404 C412 0.929 . S
H405 C414 0.930 . S
H406 C416 0.930 . S
H407 C419 0.929 . S
H408 C422 0.930 . S
H409 C424 0.960 . S
H410 C424 0.960 . S
H411 C424 0.960 . S
C412 H404 0.929 . S
C412 C413 1.377 . S
C412 C414 1.384 . S
C413 C412 1.377 . S
C413 C419 1.390 . S
C414 H405 0.930 . S
C414 C412 1.384 . S
C414 C415 1.372 . S
C415 C414 1.372 . S
C415 C416 1.400 . S
C415 C420 1.490 . S
C416 H406 0.930 . S
C416 C415 1.400 . S
C416 C419 1.386 . S
H417 C433 0.930 . S
H418 C434 0.931 . S
C419 H407 0.929 . S
C419 C413 1.390 . S
C419 C416 1.386 . S
C420 C415 1.490 . S
C420 C422 1.395 . S
C420 C423 1.403 . S
H421 C427 0.930 . S
C422 H408 0.930 . S
C422 C420 1.395 . S
C422 C425 1.403 . S
C423 C420 1.403 . S
C423 C424 1.524 . S
C423 C427 1.400 . S
C424 H409 0.960 . S
C424 H410 0.960 . S
C424 H411 0.960 . S
C424 C423 1.524 . S
C425 C422 1.403 . S
C425 C426 1.392 . S
C425 C429 1.495 . S
C426 C425 1.392 . S
C426 C427 1.385 . S
C426 C428 1.478 . S
C427 H421 0.930 . S
C427 C423 1.400 . S
C427 C426 1.385 . S
C428 C426 1.478 . S
C428 C430 1.381 . S
C428 C434 1.383 . S
C429 C425 1.495 . S
C429 H435 0.959 . S
C429 H436 0.961 . S
C429 H437 0.960 . S
C430 C428 1.381 . S
C430 C431 1.394 . S
C430 H438 0.930 . S
C431 C430 1.394 . S
C431 C432 1.383 . S
C431 H439 0.929 . S
C432 C431 1.383 . S
C432 C433 1.377 . S
C433 H417 0.930 . S
C433 C432 1.377 . S
C433 C434 1.379 . S
C434 H418 0.931 . S
C434 C428 1.383 . S
C434 C433 1.379 . S
H435 C429 0.959 . S
H436 C429 0.961 . S
H437 C429 0.960 . S
H438 C430 0.930 . S
H439 C431 0.929 . S
H440 C448 0.929 . S
H441 C450 0.930 . S
H442 C452 0.930 . S
H443 C455 0.929 . S
H444 C458 0.930 . S
H445 C460 0.960 . S
H446 C460 0.960 . S
H447 C460 0.960 . S
C448 H440 0.929 . S
C448 C449 1.377 . S
C448 C450 1.384 . S
C449 C448 1.377 . S
C449 C455 1.390 . S
C450 H441 0.930 . S
C450 C448 1.384 . S
C450 C451 1.372 . S
C451 C450 1.372 . S
C451 C452 1.400 . S
C451 C456 1.490 . S
C452 H442 0.930 . S
C452 C451 1.400 . S
C452 C455 1.386 . S
H453 C469 0.930 . S
H454 C470 0.931 . S
C455 H443 0.929 . S
C455 C449 1.390 . S
C455 C452 1.386 . S
C456 C451 1.490 . S
C456 C458 1.395 . S
C456 C459 1.403 . S
H457 C463 0.930 . S
C458 H444 0.930 . S
C458 C456 1.395 . S
C458 C461 1.403 . S
C459 C456 1.403 . S
C459 C460 1.524 . S
C459 C463 1.400 . S
C460 H445 0.960 . S
C460 H446 0.960 . S
C460 H447 0.960 . S
C460 C459 1.524 . S
C461 C458 1.403 . S
C461 C462 1.392 . S
C461 C465 1.495 . S
C462 C461 1.392 . S
C462 C463 1.385 . S
C462 C464 1.478 . S
C463 H457 0.930 . S
C463 C459 1.400 . S
C463 C462 1.385 . S
C464 C462 1.478 . S
C464 C466 1.381 . S
C464 C470 1.383 . S
C465 C461 1.495 . S
C465 H471 0.959 . S
C465 H472 0.961 . S
C465 H473 0.960 . S
C466 C464 1.381 . S
C466 C467 1.394 . S
C466 H474 0.930 . S
C467 C466 1.394 . S
C467 C468 1.383 . S
C467 H475 0.929 . S
C468 C467 1.383 . S
C468 C469 1.377 . S
C469 H453 0.930 . S
C469 C468 1.377 . S
C469 C470 1.379 . S
C470 H454 0.931 . S
C470 C464 1.383 . S
C470 C469 1.379 . S
H471 C465 0.959 . S
H472 C465 0.961 . S
H473 C465 0.960 . S
H474 C466 0.930 . S
H475 C467 0.929 . S
H476 C484 0.929 . S
H477 C486 0.930 . S
H478 C488 0.930 . S
H479 C491 0.929 . S
H480 C494 0.930 . S
H481 C496 0.960 . S
H482 C496 0.960 . S
H483 C496 0.960 . S
C484 H476 0.929 . S
C484 C485 1.373 1_455 S
C484 C486 1.384 . S
C485 C484 1.373 1_655 S
C485 C491 1.394 . S
C486 H477 0.930 . S
C486 C484 1.384 . S
C486 C487 1.354 1_455 S
C487 C486 1.354 1_655 S
C487 C488 1.418 . S
C487 C492 1.490 . S
C488 H478 0.930 . S
C488 C487 1.418 . S
C488 C491 1.386 . S
H489 C505 0.930 . S
H490 C506 0.931 . S
C491 H479 0.929 . S
C491 C485 1.394 . S
C491 C488 1.386 . S
C492 C487 1.490 . S
C492 C494 1.379 1_655 S
C492 C495 1.418 . S
H493 C499 0.930 . S
C494 H480 0.930 . S
C494 C492 1.379 1_455 S
C494 C497 1.403 . S
C495 C492 1.418 . S
C495 C496 1.524 . S
C495 C499 1.400 . S
C496 H481 0.960 . S
C496 H482 0.960 . S
C496 H483 0.960 . S
C496 C495 1.524 . S
C497 C494 1.403 . S
C497 C498 1.392 . S
C497 C501 1.495 . S
C498 C497 1.392 . S
C498 C499 1.385 1_455 S
C498 C500 1.480 . S
C499 H493 0.930 . S
C499 C495 1.400 . S
C499 C498 1.385 1_655 S
C500 C498 1.480 . S
C500 C502 1.405 . S
C500 C506 1.356 1_455 S
C501 C497 1.495 . S
C501 H507 0.959 . S
C501 H508 0.961 . S
C501 H509 0.960 . S
C502 C500 1.405 . S
C502 C503 1.394 . S
C502 H510 0.930 . S
C503 C502 1.394 . S
C503 C504 1.383 1_455 S
C503 H511 0.929 . S
C504 C503 1.383 1_655 S
C504 C505 1.377 . S
C505 H489 0.930 . S
C505 C504 1.377 . S
C505 C506 1.379 . S
C506 H490 0.931 . S
C506 C500 1.356 1_655 S
C506 C505 1.379 . S
H507 C501 0.959 . S
H508 C501 0.961 . S
H509 C501 0.960 . S
H510 C502 0.930 . S
H511 C503 0.929 . S
H512 C520 0.929 . S
H513 C522 0.930 . S
H514 C524 0.930 . S
H515 C527 0.929 . S
H516 C530 0.930 . S
H517 C532 0.960 . S
H518 C532 0.960 . S
H519 C532 0.960 . S
C520 H512 0.929 . S
C520 C521 1.377 . S
C520 C522 1.384 . S
C521 C520 1.377 . S
C521 C527 1.390 . S
C522 H513 0.930 . S
C522 C520 1.384 . S
C522 C523 1.372 . S
C523 C522 1.372 . S
C523 C524 1.400 . S
C523 C528 1.490 . S
C524 H514 0.930 . S
C524 C523 1.400 . S
C524 C527 1.386 . S
H525 C541 0.930 1_545 S
H526 C542 0.931 . S
C527 H515 0.929 . S
C527 C521 1.390 . S
C527 C524 1.386 . S
C528 C523 1.490 . S
C528 C530 1.395 . S
C528 C531 1.403 . S
H529 C535 0.930 . S
C530 H516 0.930 . S
C530 C528 1.395 . S
C530 C533 1.403 . S
C531 C528 1.403 . S
C531 C532 1.524 . S
C531 C535 1.400 . S
C532 H517 0.960 . S
C532 H518 0.960 . S
C532 H519 0.960 . S
C532 C531 1.524 . S
C533 C530 1.403 . S
C533 C534 1.392 . S
C533 C537 1.495 . S
C534 C533 1.392 . S
C534 C535 1.385 . S
C534 C536 1.478 . S
C535 H529 0.930 . S
C535 C531 1.400 . S
C535 C534 1.385 . S
C536 C534 1.478 . S
C536 C538 1.381 . S
C536 C542 1.383 . S
C537 C533 1.495 . S
C537 H543 0.959 . S
C537 H544 0.961 . S
C537 H545 0.960 . S
C538 C536 1.381 . S
C538 C539 1.394 . S
C538 H546 0.930 . S
C539 C538 1.394 . S
C539 C540 1.383 . S
C539 H547 0.929 . S
C540 C539 1.383 . S
C540 C541 1.377 . S
C541 H525 0.930 1_565 S
C541 C540 1.377 . S
C541 C542 1.379 . S
C542 H526 0.931 . S
C542 C536 1.383 . S
C542 C541 1.379 . S
H543 C537 0.959 . S
H544 C537 0.961 . S
H545 C537 0.960 . S
H546 C538 0.930 . S
H547 C539 0.929 . S
H548 C556 0.929 . S
H549 C558 0.930 . S
H550 C560 0.930 . S
H551 C563 0.929 . S
H552 C566 0.930 . S
H553 C568 0.960 . S
H554 C568 0.960 . S
H555 C568 0.960 . S
C556 H548 0.929 . S
C556 C557 1.377 . S
C556 C558 1.384 . S
C557 C556 1.377 . S
C557 C563 1.390 . S
C558 H549 0.930 . S
C558 C556 1.384 . S
C558 C559 1.372 . S
C559 C558 1.372 . S
C559 C560 1.400 . S
C559 C564 1.490 . S
C560 H550 0.930 . S
C560 C559 1.400 . S
C560 C563 1.386 . S
H561 C577 0.930 . S
H562 C578 0.931 . S
C563 H551 0.929 . S
C563 C557 1.390 . S
C563 C560 1.386 . S
C564 C559 1.490 . S
C564 C566 1.395 . S
C564 C567 1.403 . S
H565 C571 0.930 . S
C566 H552 0.930 . S
C566 C564 1.395 . S
C566 C569 1.403 . S
C567 C564 1.403 . S
C567 C568 1.524 . S
C567 C571 1.400 . S
C568 H553 0.960 . S
C568 H554 0.960 . S
C568 H555 0.960 . S
C568 C567 1.524 . S
C569 C566 1.403 . S
C569 C570 1.392 . S
C569 C573 1.495 . S
C570 C569 1.392 . S
C570 C571 1.385 . S
C570 C572 1.478 . S
C571 H565 0.930 . S
C571 C567 1.400 . S
C571 C570 1.385 . S
C572 C570 1.478 . S
C572 C574 1.381 . S
C572 C578 1.383 . S
C573 C569 1.495 . S
C573 H579 0.959 . S
C573 H580 0.961 . S
C573 H581 0.960 . S
C574 C572 1.381 . S
C574 C575 1.394 . S
C574 H582 0.930 . S
C575 C574 1.394 . S
C575 C576 1.383 . S
C575 H583 0.929 . S
C576 C575 1.383 . S
C576 C577 1.377 . S
C577 H561 0.930 . S
C577 C576 1.377 . S
C577 C578 1.379 . S
C578 H562 0.931 . S
C578 C572 1.383 . S
C578 C577 1.379 . S
H579 C573 0.959 . S
H580 C573 0.961 . S
H581 C573 0.960 . S
H582 C574 0.930 . S
H583 C575 0.929 . S
H584 C592 0.929 . S
H585 C594 0.930 . S
H586 C596 0.930 . S
H587 C599 0.929 . S
H588 C602 0.930 . S
H589 C604 0.960 . S
H590 C604 0.960 . S
H591 C604 0.960 . S
C592 H584 0.929 . S
C592 C593 1.377 . S
C592 C594 1.384 . S
C593 C592 1.377 . S
C593 C599 1.390 . S
C594 H585 0.930 . S
C594 C592 1.384 . S
C594 C595 1.372 . S
C595 C594 1.372 . S
C595 C596 1.400 . S
C595 C600 1.490 . S
C596 H586 0.930 . S
C596 C595 1.400 . S
C596 C599 1.386 . S
H597 C613 0.930 . S
H598 C614 0.931 . S
C599 H587 0.929 . S
C599 C593 1.390 . S
C599 C596 1.386 . S
C600 C595 1.490 . S
C600 C602 1.395 . S
C600 C603 1.403 . S
H601 C607 0.930 . S
C602 H588 0.930 . S
C602 C600 1.395 . S
C602 C605 1.403 . S
C603 C600 1.403 . S
C603 C604 1.524 . S
C603 C607 1.400 . S
C604 H589 0.960 . S
C604 H590 0.960 . S
C604 H591 0.960 . S
C604 C603 1.524 . S
C605 C602 1.403 . S
C605 C606 1.392 . S
C605 C609 1.495 . S
C606 C605 1.392 . S
C606 C607 1.385 . S
C606 C608 1.478 . S
C607 H601 0.930 . S
C607 C603 1.400 . S
C607 C606 1.385 . S
C608 C606 1.478 . S
C608 C610 1.381 . S
C608 C614 1.383 . S
C609 C605 1.495 . S
C609 H615 0.959 . S
C609 H616 0.961 . S
C609 H617 0.960 . S
C610 C608 1.381 . S
C610 C611 1.394 . S
C610 H618 0.930 . S
C611 C610 1.394 . S
C611 C612 1.383 . S
C611 H619 0.929 . S
C612 C611 1.383 . S
C612 C613 1.377 . S
C613 H597 0.930 . S
C613 C612 1.377 . S
C613 C614 1.379 . S
C614 H598 0.931 . S
C614 C608 1.383 . S
C614 C613 1.379 . S
H615 C609 0.959 . S
H616 C609 0.961 . S
H617 C609 0.960 . S
H618 C610 0.930 . S
H619 C611 0.929 . S
H620 C628 0.929 . S
H621 C630 0.930 . S
H622 C632 0.930 . S
H623 C635 0.929 . S
H624 C638 0.930 . S
H625 C640 0.960 . S
H626 C640 0.931 1_455 S
H627 C640 0.960 . S
C628 H620 0.929 . S
C628 C629 1.393 . S
C628 C630 1.384 . S
C629 C628 1.393 . S
C629 C635 1.375 1_455 S
C630 H621 0.930 . S
C630 C628 1.384 . S
C630 C631 1.372 . S
C631 C630 1.372 . S
C631 C632 1.400 1_455 S
C631 C636 1.490 . S
C632 H622 0.930 . S
C632 C631 1.400 1_655 S
C632 C635 1.386 . S
H633 C649 0.930 . S
H634 C650 0.931 . S
C635 H623 0.929 . S
C635 C629 1.375 1_655 S
C635 C632 1.386 . S
C636 C631 1.490 . S
C636 C638 1.395 . S
C636 C639 1.403 1_455 S
H637 C643 0.930 . S
C638 H624 0.930 . S
C638 C636 1.395 . S
C638 C641 1.403 . S
C639 C636 1.403 1_655 S
C639 C640 1.524 . S
C639 C643 1.400 . S
C640 H625 0.960 . S
C640 H626 0.931 1_655 S
C640 H627 0.960 . S
C640 C639 1.524 . S
C641 C638 1.403 . S
C641 C642 1.392 . S
C641 C645 1.495 . S
C642 C641 1.392 . S
C642 C643 1.385 1_455 S
C642 C644 1.478 . S
C643 H637 0.930 . S
C643 C639 1.400 . S
C643 C642 1.385 1_655 S
C644 C642 1.478 . S
C644 C646 1.381 . S
C644 C650 1.383 1_455 S
C645 C641 1.495 . S
C645 H651 0.959 . S
C645 H652 0.961 . S
C645 H653 0.960 . S
C646 C644 1.381 . S
C646 C647 1.394 . S
C646 H654 0.930 . S
C647 C646 1.394 . S
C647 C648 1.383 . S
C647 H655 0.929 . S
C648 C647 1.383 . S
C648 C649 1.377 1_455 S
C649 H633 0.930 . S
C649 C648 1.377 1_655 S
C649 C650 1.379 . S
C650 H634 0.931 . S
C650 C644 1.383 1_655 S
C650 C649 1.379 . S
H651 C645 0.959 . S
H652 C645 0.961 . S
H653 C645 0.960 . S
H654 C646 0.930 . S
H655 C647 0.929 . S
H656 C664 0.929 . S
H657 C666 0.930 . S
H658 C668 0.930 . S
H659 C671 0.929 . S
H660 C674 0.930 . S
H661 C676 0.960 . S
H662 C676 0.960 . S
H663 C676 0.960 . S
C664 H656 0.929 . S
C664 C665 1.381 . S
C664 C666 1.382 1_455 S
C665 C664 1.381 . S
C665 C671 1.385 1_455 S
C666 H657 0.930 . S
C666 C664 1.382 1_655 S
C666 C667 1.374 . S
C667 C666 1.374 . S
C667 C668 1.400 . S
C667 C672 1.490 . S
C668 H658 0.930 . S
C668 C667 1.400 . S
C668 C671 1.386 . S
H669 C685 0.930 . S
H670 C686 0.931 . S
C671 H659 0.929 . S
C671 C665 1.385 1_655 S
C671 C668 1.386 . S
C672 C667 1.490 . S
C672 C674 1.395 . S
C672 C675 1.403 1_655 S
H673 C679 0.930 . S
C674 H660 0.930 . S
C674 C672 1.395 . S
C674 C677 1.403 . S
C675 C672 1.403 1_455 S
C675 C676 1.524 . S
C675 C679 1.400 . S
C676 H661 0.960 . S
C676 H662 0.960 . S
C676 H663 0.960 . S
C676 C675 1.524 . S
C677 C674 1.403 . S
C677 C678 1.392 . S
C677 C681 1.495 . S
C678 C677 1.392 . S
C678 C679 1.385 1_655 S
C678 C680 1.478 . S
C679 H673 0.930 . S
C679 C675 1.400 . S
C679 C678 1.385 1_455 S
C680 C678 1.478 . S
C680 C682 1.381 . S
C680 C686 1.383 . S
C681 C677 1.495 . S
C681 H687 0.959 . S
C681 H688 0.961 . S
C681 H689 0.960 . S
C682 C680 1.381 . S
C682 C683 1.394 . S
C682 H690 0.930 . S
C683 C682 1.394 . S
C683 C684 1.383 . S
C683 H691 0.929 . S
C684 C683 1.383 . S
C684 C685 1.377 . S
C685 H669 0.930 . S
C685 C684 1.377 . S
C685 C686 1.379 . S
C686 H670 0.931 . S
C686 C680 1.383 . S
C686 C685 1.379 . S
H687 C681 0.959 . S
H688 C681 0.961 . S
H689 C681 0.960 . S
H690 C682 0.930 . S
H691 C683 0.929 . S
H692 C700 0.929 . S
H693 C702 0.930 . S
H694 C704 0.930 . S
H695 C707 0.929 . S
H696 C710 0.930 . S
H697 C712 0.960 . S
H698 C712 0.960 . S
H699 C712 0.960 . S
C700 H692 0.929 . S
C700 C701 1.377 . S
C700 C702 1.384 . S
C701 C700 1.377 . S
C701 C707 1.390 . S
C702 H693 0.930 . S
C702 C700 1.384 . S
C702 C703 1.372 . S
C703 C702 1.372 . S
C703 C704 1.400 . S
C703 C708 1.490 . S
C704 H694 0.930 . S
C704 C703 1.400 . S
C704 C707 1.386 . S
H705 C721 0.930 . S
H706 C722 0.931 . S
C707 H695 0.929 . S
C707 C701 1.390 . S
C707 C704 1.386 . S
C708 C703 1.490 . S
C708 C710 1.395 . S
C708 C711 1.403 . S
H709 C715 0.930 . S
C710 H696 0.930 . S
C710 C708 1.395 . S
C710 C713 1.403 . S
C711 C708 1.403 . S
C711 C712 1.524 . S
C711 C715 1.400 . S
C712 H697 0.960 . S
C712 H698 0.960 . S
C712 H699 0.960 . S
C712 C711 1.524 . S
C713 C710 1.403 . S
C713 C714 1.392 . S
C713 C717 1.495 . S
C714 C713 1.392 . S
C714 C715 1.385 . S
C714 C716 1.478 . S
C715 H709 0.930 . S
C715 C711 1.400 . S
C715 C714 1.385 . S
C716 C714 1.478 . S
C716 C718 1.381 . S
C716 C722 1.383 . S
C717 C713 1.495 . S
C717 H723 0.959 . S
C717 H724 0.961 . S
C717 H725 0.960 . S
C718 C716 1.381 . S
C718 C719 1.394 . S
C718 H726 0.930 . S
C719 C718 1.394 . S
C719 C720 1.383 . S
C719 H727 0.929 . S
C720 C719 1.383 . S
C720 C721 1.377 . S
C721 H705 0.930 . S
C721 C720 1.377 . S
C721 C722 1.379 . S
C722 H706 0.931 . S
C722 C716 1.383 . S
C722 C721 1.379 . S
H723 C717 0.959 . S
H724 C717 0.961 . S
H725 C717 0.960 . S
H726 C718 0.930 . S
H727 C719 0.929 . S
H728 C736 0.929 . S
H729 C738 0.930 . S
H730 C740 0.930 . S
H731 C743 0.929 . S
H732 C746 0.930 . S
H733 C748 0.960 . S
H734 C748 0.960 . S
H735 C748 0.960 . S
C736 H728 0.929 . S
C736 C737 1.377 . S
C736 C738 1.384 . S
C737 C736 1.377 . S
C737 C743 1.390 . S
C738 H729 0.930 . S
C738 C736 1.384 . S
C738 C739 1.372 . S
C739 C738 1.372 . S
C739 C740 1.400 . S
C739 C744 1.490 . S
C740 H730 0.930 . S
C740 C739 1.400 . S
C740 C743 1.386 . S
H741 C757 0.930 . S
H742 C758 0.931 . S
C743 H731 0.929 . S
C743 C737 1.390 . S
C743 C740 1.386 . S
C744 C739 1.490 . S
C744 C746 1.395 . S
C744 C747 1.403 . S
H745 C751 0.930 . S
C746 H732 0.930 . S
C746 C744 1.395 . S
C746 C749 1.403 . S
C747 C744 1.403 . S
C747 C748 1.524 . S
C747 C751 1.400 . S
C748 H733 0.960 . S
C748 H734 0.960 . S
C748 H735 0.960 . S
C748 C747 1.524 . S
C749 C746 1.403 . S
C749 C750 1.392 . S
C749 C753 1.495 . S
C750 C749 1.392 . S
C750 C751 1.385 . S
C750 C752 1.478 . S
C751 H745 0.930 . S
C751 C747 1.400 . S
C751 C750 1.385 . S
C752 C750 1.478 . S
C752 C754 1.381 . S
C752 C758 1.383 . S
C753 C749 1.495 . S
C753 H759 0.959 . S
C753 H760 0.961 . S
C753 H761 0.960 . S
C754 C752 1.381 . S
C754 C755 1.394 . S
C754 H762 0.930 . S
C755 C754 1.394 . S
C755 C756 1.383 . S
C755 H763 0.929 . S
C756 C755 1.383 . S
C756 C757 1.377 . S
C757 H741 0.930 . S
C757 C756 1.377 . S
C757 C758 1.379 . S
C758 H742 0.931 . S
C758 C752 1.383 . S
C758 C757 1.379 . S
H759 C753 0.959 . S
H760 C753 0.961 . S
H761 C753 0.960 . S
H762 C754 0.930 . S
H763 C755 0.929 . S
H764 C772 0.929 . S
H765 C774 0.930 . S
H766 C776 0.930 . S
H767 C779 0.929 . S
H768 C782 0.930 . S
H769 C784 0.960 . S
H770 C784 0.960 . S
H771 C784 0.960 . S
C772 H764 0.929 . S
C772 C773 1.377 . S
C772 C774 1.384 . S
C773 C772 1.377 . S
C773 C779 1.390 . S
C774 H765 0.930 . S
C774 C772 1.384 . S
C774 C775 1.372 . S
C775 C774 1.372 . S
C775 C776 1.400 . S
C775 C780 1.490 . S
C776 H766 0.930 . S
C776 C775 1.400 . S
C776 C779 1.386 . S
H777 C793 0.930 . S
H778 C794 0.931 . S
C779 H767 0.929 . S
C779 C773 1.390 . S
C779 C776 1.386 . S
C780 C775 1.490 . S
C780 C782 1.395 . S
C780 C783 1.403 . S
H781 C787 0.930 . S
C782 H768 0.930 . S
C782 C780 1.395 . S
C782 C785 1.403 . S
C783 C780 1.403 . S
C783 C784 1.524 . S
C783 C787 1.400 . S
C784 H769 0.960 . S
C784 H770 0.960 . S
C784 H771 0.960 . S
C784 C783 1.524 . S
C785 C782 1.403 . S
C785 C786 1.392 . S
C785 C789 1.495 . S
C786 C785 1.392 . S
C786 C787 1.385 . S
C786 C788 1.478 . S
C787 H781 0.930 . S
C787 C783 1.400 . S
C787 C786 1.385 . S
C788 C786 1.478 . S
C788 C790 1.381 . S
C788 C794 1.383 . S
C789 C785 1.495 . S
C789 H795 0.959 . S
C789 H796 0.961 . S
C789 H797 0.960 . S
C790 C788 1.381 . S
C790 C791 1.394 . S
C790 H798 0.930 . S
C791 C790 1.394 . S
C791 C792 1.383 . S
C791 H799 0.929 . S
C792 C791 1.383 . S
C792 C793 1.377 . S
C793 H777 0.930 . S
C793 C792 1.377 . S
C793 C794 1.379 . S
C794 H778 0.931 . S
C794 C788 1.383 . S
C794 C793 1.379 . S
H795 C789 0.959 . S
H796 C789 0.961 . S
H797 C789 0.960 . S
H798 C790 0.930 . S
H799 C791 0.929 . S
H800 C808 0.929 . S
H801 C810 0.930 . S
H802 C812 0.930 . S
H803 C815 0.929 . S
H804 C818 0.930 . S
H805 C820 0.960 . S
H806 C820 0.960 . S
H807 C820 0.960 . S
C808 H800 0.929 . S
C808 C809 1.348 1_455 S
C808 C810 1.384 . S
C809 C808 1.348 1_655 S
C809 C815 1.417 . S
C810 H801 0.930 . S
C810 C808 1.384 . S
C810 C811 1.372 . S
C811 C810 1.372 . S
C811 C812 1.400 1_455 S
C811 C816 1.490 . S
C812 H802 0.930 . S
C812 C811 1.400 1_655 S
C812 C815 1.386 . S
H813 C829 0.978 . S
H814 C830 0.931 . S
C815 H803 0.929 . S
C815 C809 1.417 . S
C815 C812 1.386 . S
C816 C811 1.490 . S
C816 C818 1.395 . S
C816 C819 1.403 1_455 S
H817 C823 0.930 . S
C818 H804 0.930 . S
C818 C816 1.395 . S
C818 C821 1.403 . S
C819 C816 1.403 1_655 S
C819 C820 1.524 . S
C819 C823 1.400 . S
C820 H805 0.960 . S
C820 H806 0.960 . S
C820 H807 0.960 . S
C820 C819 1.524 . S
C821 C818 1.403 . S
C821 C822 1.392 . S
C821 C825 1.495 . S
C822 C821 1.392 . S
C822 C823 1.385 1_455 S
C822 C824 1.478 . S
C823 H817 0.930 . S
C823 C819 1.400 . S
C823 C822 1.385 1_655 S
C824 C822 1.478 . S
C824 C826 1.381 . S
C824 C830 1.383 1_455 S
C825 C821 1.495 . S
C825 H831 0.959 . S
C825 H832 0.961 . S
C825 H833 0.960 . S
C826 C824 1.381 . S
C826 C827 1.394 . S
C826 H834 0.930 . S
C827 C826 1.394 . S
C827 C828 1.383 . S
C827 H835 0.929 . S
C828 C827 1.383 . S
C828 C829 1.329 1_455 S
C829 H813 0.978 . S
C829 C828 1.329 1_655 S
C829 C830 1.382 . S
C830 H814 0.931 . S
C830 C824 1.383 1_655 S
C830 C829 1.382 . S
H831 C825 0.959 . S
H832 C825 0.961 . S
H833 C825 0.960 . S
H834 C826 0.930 . S
H835 C827 0.929 . S
H836 C844 0.929 . S
H837 C846 0.930 . S
H838 C848 0.930 . S
H839 C851 0.929 . S
H840 C854 0.930 . S
H841 C856 0.960 . S
H842 C856 0.960 . S
H843 C856 0.960 . S
C844 H836 0.929 . S
C844 C845 1.377 . S
C844 C846 1.384 . S
C845 C844 1.377 . S
C845 C851 1.390 . S
C846 H837 0.930 . S
C846 C844 1.384 . S
C846 C847 1.372 . S
C847 C846 1.372 . S
C847 C848 1.400 . S
C847 C852 1.490 . S
C848 H838 0.930 . S
C848 C847 1.400 . S
C848 C851 1.386 . S
H849 C865 0.930 . S
H850 C866 0.931 . S
C851 H839 0.929 . S
C851 C845 1.390 . S
C851 C848 1.386 . S
C852 C847 1.490 . S
C852 C854 1.395 . S
C852 C855 1.403 . S
H853 C859 0.930 . S
C854 H840 0.930 . S
C854 C852 1.395 . S
C854 C857 1.403 . S
C855 C852 1.403 . S
C855 C856 1.524 . S
C855 C859 1.400 . S
C856 H841 0.960 . S
C856 H842 0.960 . S
C856 H843 0.960 . S
C856 C855 1.524 . S
C857 C854 1.403 . S
C857 C858 1.392 . S
C857 C861 1.495 . S
C858 C857 1.392 . S
C858 C859 1.385 . S
C858 C860 1.478 . S
C859 H853 0.930 . S
C859 C855 1.400 . S
C859 C858 1.385 . S
C860 C858 1.478 . S
C860 C862 1.381 . S
C860 C866 1.383 . S
C861 C857 1.495 . S
C861 H867 0.959 . S
C861 H868 0.961 . S
C861 H869 0.960 . S
C862 C860 1.381 . S
C862 C863 1.394 . S
C862 H870 0.930 . S
C863 C862 1.394 . S
C863 C864 1.383 . S
C863 H871 0.929 . S
C864 C863 1.383 . S
C864 C865 1.377 1_565 S
C865 H849 0.930 . S
C865 C864 1.377 1_545 S
C865 C866 1.379 1_545 S
C866 H850 0.931 . S
C866 C860 1.383 . S
C866 C865 1.379 1_565 S
H867 C861 0.959 . S
H868 C861 0.961 . S
H869 C861 0.960 . S
H870 C862 0.930 . S
H871 C863 0.929 . S
H872 C880 0.929 . S
H873 C882 0.930 . S
H874 C884 0.930 . S
H875 C887 0.929 . S
H876 C890 0.930 . S
H877 C892 0.960 . S
H878 C892 0.960 . S
H879 C892 0.960 . S
C880 H872 0.929 . S
C880 C881 1.377 . S
C880 C882 1.384 . S
C881 C880 1.377 . S
C881 C887 1.390 . S
C882 H873 0.930 . S
C882 C880 1.384 . S
C882 C883 1.372 . S
C883 C882 1.372 . S
C883 C884 1.400 . S
C883 C888 1.490 . S
C884 H874 0.930 . S
C884 C883 1.400 . S
C884 C887 1.386 . S
H885 C901 0.930 . S
H886 C902 0.931 . S
C887 H875 0.929 . S
C887 C881 1.390 . S
C887 C884 1.386 . S
C888 C883 1.490 . S
C888 C890 1.395 . S
C888 C891 1.403 . S
H889 C895 0.930 . S
C890 H876 0.930 . S
C890 C888 1.395 . S
C890 C893 1.403 . S
C891 C888 1.403 . S
C891 C892 1.524 . S
C891 C895 1.400 . S
C892 H877 0.960 . S
C892 H878 0.960 . S
C892 H879 0.960 . S
C892 C891 1.524 . S
C893 C890 1.403 . S
C893 C894 1.392 . S
C893 C897 1.495 . S
C894 C893 1.392 . S
C894 C895 1.385 . S
C894 C896 1.478 . S
C895 H889 0.930 . S
C895 C891 1.400 . S
C895 C894 1.385 . S
C896 C894 1.478 . S
C896 C898 1.381 . S
C896 C902 1.383 . S
C897 C893 1.495 . S
C897 H903 0.959 . S
C897 H904 0.961 . S
C897 H905 0.960 . S
C898 C896 1.381 . S
C898 C899 1.394 . S
C898 H906 0.930 . S
C899 C898 1.394 . S
C899 C900 1.383 . S
C899 H907 0.929 . S
C900 C899 1.383 . S
C900 C901 1.377 . S
C901 H885 0.930 . S
C901 C900 1.377 . S
C901 C902 1.379 . S
C902 H886 0.931 . S
C902 C896 1.383 . S
C902 C901 1.379 . S
H903 C897 0.959 . S
H904 C897 0.961 . S
H905 C897 0.960 . S
H906 C898 0.930 . S
H907 C899 0.929 . S
H908 C916 0.929 . S
H909 C918 0.930 . S
H910 C920 0.930 . S
H911 C923 0.929 . S
H912 C926 0.930 . S
H913 C928 0.960 . S
H914 C928 0.960 . S
H915 C928 0.960 . S
C916 H908 0.929 . S
C916 C917 1.377 . S
C916 C918 1.384 . S
C917 C916 1.377 . S
C917 C923 1.390 . S
C918 H909 0.930 . S
C918 C916 1.384 . S
C918 C919 1.372 . S
C919 C918 1.372 . S
C919 C920 1.400 . S
C919 C924 1.490 . S
C920 H910 0.930 . S
C920 C919 1.400 . S
C920 C923 1.386 . S
H921 C937 0.930 . S
H922 C938 0.931 . S
C923 H911 0.929 . S
C923 C917 1.390 . S
C923 C920 1.386 . S
C924 C919 1.490 . S
C924 C926 1.395 . S
C924 C927 1.403 . S
H925 C931 0.930 . S
C926 H912 0.930 . S
C926 C924 1.395 . S
C926 C929 1.403 . S
C927 C924 1.403 . S
C927 C928 1.524 . S
C927 C931 1.400 . S
C928 H913 0.960 . S
C928 H914 0.960 . S
C928 H915 0.960 . S
C928 C927 1.524 . S
C929 C926 1.403 . S
C929 C930 1.392 . S
C929 C933 1.495 . S
C930 C929 1.392 . S
C930 C931 1.385 . S
C930 C932 1.478 . S
C931 H925 0.930 . S
C931 C927 1.400 . S
C931 C930 1.385 . S
C932 C930 1.478 . S
C932 C934 1.381 . S
C932 C938 1.383 . S
C933 C929 1.495 . S
C933 H939 0.959 . S
C933 H940 0.961 . S
C933 H941 0.960 . S
C934 C932 1.381 . S
C934 C935 1.394 . S
C934 H942 0.930 . S
C935 C934 1.394 . S
C935 C936 1.383 . S
C935 H943 0.929 . S
C936 C935 1.383 . S
C936 C937 1.377 . S
C937 H921 0.930 . S
C937 C936 1.377 . S
C937 C938 1.379 . S
C938 H922 0.931 . S
C938 C932 1.383 . S
C938 C937 1.379 . S
H939 C933 0.959 . S
H940 C933 0.961 . S
H941 C933 0.960 . S
H942 C934 0.930 . S
H943 C935 0.929 . S
H944 C952 0.929 . S
H945 C954 0.930 . S
H946 C956 0.930 . S
H947 C959 0.933 . S
H948 C962 0.930 . S
H949 C964 0.960 . S
H950 C964 0.960 . S
H951 C964 0.960 . S
C952 H944 0.929 . S
C952 C953 1.381 . S
C952 C954 1.384 . S
C953 C952 1.381 . S
C953 C959 1.392 . S
C954 H945 0.930 . S
C954 C952 1.384 . S
C954 C955 1.372 . S
C955 C954 1.372 . S
C955 C956 1.400 . S
C955 C960 1.490 . S
C956 H946 0.930 . S
C956 C955 1.400 . S
C956 C959 1.386 . S
H957 C973 0.932 . S
H958 C974 0.934 . S
C959 H947 0.933 . S
C959 C953 1.392 . S
C959 C956 1.386 . S
C960 C955 1.490 . S
C960 C962 1.395 1_455 S
C960 C963 1.403 . S
H961 C967 0.930 . S
C962 H948 0.930 . S
C962 C960 1.395 1_655 S
C962 C965 1.403 . S
C963 C960 1.403 . S
C963 C964 1.524 . S
C963 C967 1.400 . S
C964 H949 0.960 . S
C964 H950 0.960 . S
C964 H951 0.960 . S
C964 C963 1.524 . S
C965 C962 1.403 . S
C965 C966 1.366 1_655 S
C965 C969 1.495 . S
C966 C965 1.366 1_455 S
C966 C967 1.413 . S
C966 C968 1.477 . S
C967 H961 0.930 . S
C967 C963 1.400 . S
C967 C966 1.413 . S
C968 C966 1.477 . S
C968 C970 1.391 . S
C968 C974 1.380 1_455 S
C969 C965 1.495 . S
C969 H975 0.959 . S
C969 H976 0.961 . S
C969 H977 0.960 . S
C970 C968 1.391 . S
C970 C971 1.394 . S
C970 H978 0.930 . S
C971 C970 1.394 . S
C971 C972 1.383 . S
C971 H979 0.929 . S
C972 C971 1.383 . S
C972 C973 1.377 . S
C973 H957 0.932 . S
C973 C972 1.377 . S
C973 C974 1.378 1_455 S
C974 H958 0.934 . S
C974 C968 1.380 1_655 S
C974 C973 1.378 1_655 S
H975 C969 0.959 . S
H976 C969 0.961 . S
H977 C969 0.960 . S
H978 C970 0.930 . S
H979 C971 0.929 . S
H980 C988 0.929 . S
H981 C990 0.930 . S
H982 C992 0.930 . S
H983 C995 0.929 . S
H984 C998 0.930 . S
H985 C1000 0.960 . S
H986 C1000 0.960 . S
H987 C1000 0.960 . S
C988 H980 0.929 . S
C988 C989 1.377 . S
C988 C990 1.384 . S
C989 C988 1.377 . S
C989 C995 1.390 . S
C990 H981 0.930 . S
C990 C988 1.384 . S
C990 C991 1.372 . S
C991 C990 1.372 . S
C991 C992 1.400 . S
C991 C996 1.490 . S
C992 H982 0.930 . S
C992 C991 1.400 . S
C992 C995 1.386 . S
H993 C1009 0.930 . S
H994 C1010 0.931 . S
C995 H983 0.929 . S
C995 C989 1.390 . S
C995 C992 1.386 . S
C996 C991 1.490 . S
C996 C998 1.395 . S
C996 C999 1.403 . S
H997 C1003 0.930 . S
C998 H984 0.930 . S
C998 C996 1.395 . S
C998 C1001 1.403 . S
C999 C996 1.403 . S
C999 C1000 1.524 . S
C999 C1003 1.400 . S
C1000 H985 0.960 . S
C1000 H986 0.960 . S
C1000 H987 0.960 . S
C1000 C999 1.524 . S
C1001 C998 1.403 . S
C1001 C1002 1.392 . S
C1001 C1005 1.495 . S
C1002 C1001 1.392 . S
C1002 C1003 1.385 . S
C1002 C1004 1.478 . S
C1003 H997 0.930 . S
C1003 C999 1.400 . S
C1003 C1002 1.385 . S
C1004 C1002 1.478 . S
C1004 C1006 1.381 . S
C1004 C1010 1.383 . S
C1005 C1001 1.495 . S
C1005 H1011 0.959 . S
C1005 H1012 0.961 . S
C1005 H1013 0.960 . S
C1006 C1004 1.381 . S
C1006 C1007 1.394 . S
C1006 H1014 0.930 . S
C1007 C1006 1.394 . S
C1007 C1008 1.383 . S
C1007 H1015 0.929 . S
C1008 C1007 1.383 . S
C1008 C1009 1.377 . S
C1009 H993 0.930 . S
C1009 C1008 1.377 . S
C1009 C1010 1.379 . S
C1010 H994 0.931 . S
C1010 C1004 1.383 . S
C1010 C1009 1.379 . S
H1011 C1005 0.959 . S
H1012 C1005 0.961 . S
H1013 C1005 0.960 . S
H1014 C1006 0.930 . S
H1015 C1007 0.929 . S
H1016 C1024 0.929 . S
H1017 C1026 0.930 . S
H1018 C1028 0.930 . S
H1019 C1031 0.929 . S
H1020 C1034 0.930 . S
H1021 C1036 0.960 . S
H1022 C1036 0.960 . S
H1023 C1036 0.960 . S
C1024 H1016 0.929 . S
C1024 C1025 1.377 . S
C1024 C1026 1.384 . S
C1025 C1024 1.377 . S
C1025 C1031 1.390 . S
C1026 H1017 0.930 . S
C1026 C1024 1.384 . S
C1026 C1027 1.372 . S
C1027 C1026 1.372 . S
C1027 C1028 1.400 . S
C1027 C1032 1.490 . S
C1028 H1018 0.930 . S
C1028 C1027 1.400 . S
C1028 C1031 1.386 . S
H1029 C1045 0.930 . S
H1030 C1046 0.931 . S
C1031 H1019 0.929 . S
C1031 C1025 1.390 . S
C1031 C1028 1.386 . S
C1032 C1027 1.490 . S
C1032 C1034 1.395 . S
C1032 C1035 1.403 . S
H1033 C1039 0.930 . S
C1034 H1020 0.930 . S
C1034 C1032 1.395 . S
C1034 C1037 1.403 . S
C1035 C1032 1.403 . S
C1035 C1036 1.524 . S
C1035 C1039 1.400 . S
C1036 H1021 0.960 . S
C1036 H1022 0.960 . S
C1036 H1023 0.960 . S
C1036 C1035 1.524 . S
C1037 C1034 1.403 . S
C1037 C1038 1.392 . S
C1037 C1041 1.495 . S
C1038 C1037 1.392 . S
C1038 C1039 1.385 . S
C1038 C1040 1.478 . S
C1039 H1033 0.930 . S
C1039 C1035 1.400 . S
C1039 C1038 1.385 . S
C1040 C1038 1.478 . S
C1040 C1042 1.381 . S
C1040 C1046 1.383 . S
C1041 C1037 1.495 . S
C1041 H1047 0.959 . S
C1041 H1048 0.961 . S
C1041 H1049 0.960 . S
C1042 C1040 1.381 . S
C1042 C1043 1.394 . S
C1042 H1050 0.930 . S
C1043 C1042 1.394 . S
C1043 C1044 1.383 . S
C1043 H1051 0.929 . S
C1044 C1043 1.383 . S
C1044 C1045 1.377 . S
C1045 H1029 0.930 . S
C1045 C1044 1.377 . S
C1045 C1046 1.379 . S
C1046 H1030 0.931 . S
C1046 C1040 1.383 . S
C1046 C1045 1.379 . S
H1047 C1041 0.959 . S
H1048 C1041 0.961 . S
H1049 C1041 0.960 . S
H1050 C1042 0.930 . S
H1051 C1043 0.929 . S
H1052 C1060 0.929 . S
H1053 C1062 0.930 . S
H1054 C1064 0.930 . S
H1055 C1067 0.929 . S
H1056 C1070 0.930 . S
H1057 C1072 0.960 . S
H1058 C1072 0.960 . S
H1059 C1072 0.960 . S
C1060 H1052 0.929 . S
C1060 C1061 1.377 . S
C1060 C1062 1.384 . S
C1061 C1060 1.377 . S
C1061 C1067 1.390 . S
C1062 H1053 0.930 . S
C1062 C1060 1.384 . S
C1062 C1063 1.372 . S
C1063 C1062 1.372 . S
C1063 C1064 1.400 . S
C1063 C1068 1.490 . S
C1064 H1054 0.930 . S
C1064 C1063 1.400 . S
C1064 C1067 1.386 . S
H1065 C1081 0.930 . S
H1066 C1082 0.931 . S
C1067 H1055 0.929 . S
C1067 C1061 1.390 . S
C1067 C1064 1.386 . S
C1068 C1063 1.490 . S
C1068 C1070 1.395 . S
C1068 C1071 1.403 . S
H1069 C1075 0.930 . S
C1070 H1056 0.930 . S
C1070 C1068 1.395 . S
C1070 C1073 1.403 . S
C1071 C1068 1.403 . S
C1071 C1072 1.524 . S
C1071 C1075 1.400 . S
C1072 H1057 0.960 . S
C1072 H1058 0.960 . S
C1072 H1059 0.960 . S
C1072 C1071 1.524 . S
C1073 C1070 1.403 . S
C1073 C1074 1.392 . S
C1073 C1077 1.495 . S
C1074 C1073 1.392 . S
C1074 C1075 1.385 . S
C1074 C1076 1.478 . S
C1075 H1069 0.930 . S
C1075 C1071 1.400 . S
C1075 C1074 1.385 . S
C1076 C1074 1.478 . S
C1076 C1078 1.381 . S
C1076 C1082 1.383 . S
C1077 C1073 1.495 . S
C1077 H1083 0.959 . S
C1077 H1084 0.961 . S
C1077 H1085 0.960 . S
C1078 C1076 1.381 . S
C1078 C1079 1.394 . S
C1078 H1086 0.930 . S
C1079 C1078 1.394 . S
C1079 C1080 1.383 . S
C1079 H1087 0.929 . S
C1080 C1079 1.383 . S
C1080 C1081 1.377 . S
C1081 H1065 0.930 . S
C1081 C1080 1.377 . S
C1081 C1082 1.379 . S
C1082 H1066 0.931 . S
C1082 C1076 1.383 . S
C1082 C1081 1.379 . S
H1083 C1077 0.959 . S
H1084 C1077 0.961 . S
H1085 C1077 0.960 . S
H1086 C1078 0.930 . S
H1087 C1079 0.929 . S
H1088 C1096 0.929 . S
H1089 C1098 0.930 . S
H1090 C1100 0.931 . S
H1091 C1103 0.929 . S
H1092 C1106 0.930 . S
H1093 C1108 0.960 . S
H1094 C1108 0.960 . S
H1095 C1108 0.960 . S
C1096 H1088 0.929 . S
C1096 C1097 1.387 . S
C1096 C1098 1.384 . S
C1097 C1096 1.387 . S
C1097 C1103 1.386 1_655 S
C1098 H1089 0.930 . S
C1098 C1096 1.384 . S
C1098 C1099 1.372 . S
C1099 C1098 1.372 . S
C1099 C1100 1.398 1_655 S
C1099 C1104 1.490 . S
C1100 H1090 0.931 . S
C1100 C1099 1.398 1_455 S
C1100 C1103 1.386 . S
H1101 C1117 0.938 . S
H1102 C1118 0.931 . S
C1103 H1091 0.929 . S
C1103 C1097 1.386 1_455 S
C1103 C1100 1.386 . S
C1104 C1099 1.490 . S
C1104 C1106 1.395 1_655 S
C1104 C1107 1.403 . S
H1105 C1111 0.930 . S
C1106 H1092 0.930 . S
C1106 C1104 1.395 1_455 S
C1106 C1109 1.403 . S
C1107 C1104 1.403 . S
C1107 C1108 1.524 . S
C1107 C1111 1.400 . S
C1108 H1093 0.960 . S
C1108 H1094 0.960 . S
C1108 H1095 0.960 . S
C1108 C1107 1.524 . S
C1109 C1106 1.403 . S
C1109 C1110 1.351 1_455 S
C1109 C1113 1.495 . S
C1110 C1109 1.351 1_655 S
C1110 C1111 1.428 . S
C1110 C1112 1.480 . S
C1111 H1105 0.930 . S
C1111 C1107 1.400 . S
C1111 C1110 1.428 . S
C1112 C1110 1.480 . S
C1112 C1114 1.381 . S
C1112 C1118 1.383 1_655 S
C1113 C1109 1.495 . S
C1113 H1119 0.959 . S
C1113 H1120 0.961 . S
C1113 H1121 0.960 . S
C1114 C1112 1.381 . S
C1114 C1115 1.394 . S
C1114 H1122 0.930 . S
C1115 C1114 1.394 . S
C1115 C1116 1.383 . S
C1115 H1123 0.929 . S
C1116 C1115 1.383 . S
C1116 C1117 1.367 1_655 S
C1117 H1101 0.938 . S
C1117 C1116 1.367 1_455 S
C1117 C1118 1.384 . S
C1118 H1102 0.931 . S
C1118 C1112 1.383 1_455 S
C1118 C1117 1.384 . S
H1119 C1113 0.959 . S
H1120 C1113 0.961 . S
H1121 C1113 0.960 . S
H1122 C1114 0.930 . S
H1123 C1115 0.929 . S
H1124 C1132 0.929 . S
H1125 C1134 0.930 . S
H1126 C1136 0.930 . S
H1127 C1139 0.929 . S
H1128 C1142 0.930 . S
H1129 C1144 0.960 . S
H1130 C1144 0.960 . S
H1131 C1144 0.960 . S
C1132 H1124 0.929 . S
C1132 C1133 1.377 . S
C1132 C1134 1.384 . S
C1133 C1132 1.377 . S
C1133 C1139 1.390 . S
C1134 H1125 0.930 . S
C1134 C1132 1.384 . S
C1134 C1135 1.372 . S
C1135 C1134 1.372 . S
C1135 C1136 1.400 . S
C1135 C1140 1.490 . S
C1136 H1126 0.930 . S
C1136 C1135 1.400 . S
C1136 C1139 1.386 . S
H1137 C1153 0.930 . S
H1138 C1154 0.931 . S
C1139 H1127 0.929 . S
C1139 C1133 1.390 . S
C1139 C1136 1.386 . S
C1140 C1135 1.490 . S
C1140 C1142 1.395 . S
C1140 C1143 1.403 . S
H1141 C1147 0.930 . S
C1142 H1128 0.930 . S
C1142 C1140 1.395 . S
C1142 C1145 1.403 . S
C1143 C1140 1.403 . S
C1143 C1144 1.524 . S
C1143 C1147 1.400 . S
C1144 H1129 0.960 . S
C1144 H1130 0.960 . S
C1144 H1131 0.960 . S
C1144 C1143 1.524 . S
C1145 C1142 1.403 . S
C1145 C1146 1.392 . S
C1145 C1149 1.495 . S
C1146 C1145 1.392 . S
C1146 C1147 1.385 . S
C1146 C1148 1.478 . S
C1147 H1141 0.930 . S
C1147 C1143 1.400 . S
C1147 C1146 1.385 . S
C1148 C1146 1.478 . S
C1148 C1150 1.381 . S
C1148 C1154 1.383 . S
C1149 C1145 1.495 . S
C1149 H1155 0.959 . S
C1149 H1156 0.961 . S
C1149 H1157 0.960 . S
C1150 C1148 1.381 . S
C1150 C1151 1.394 . S
C1150 H1158 0.930 . S
C1151 C1150 1.394 . S
C1151 C1152 1.383 . S
C1151 H1159 0.929 . S
C1152 C1151 1.383 . S
C1152 C1153 1.377 . S
C1153 H1137 0.930 . S
C1153 C1152 1.377 . S
C1153 C1154 1.379 . S
C1154 H1138 0.931 . S
C1154 C1148 1.383 . S
C1154 C1153 1.379 . S
H1155 C1149 0.959 . S
H1156 C1149 0.961 . S
H1157 C1149 0.960 . S
H1158 C1150 0.930 . S
H1159 C1151 0.929 . S
H1160 C1168 0.929 . S
H1161 C1170 0.930 . S
H1162 C1172 0.930 . S
H1163 C1175 0.929 . S
H1164 C1178 0.930 . S
H1165 C1180 0.960 . S
H1166 C1180 0.960 . S
H1167 C1180 0.960 . S
C1168 H1160 0.929 . S
C1168 C1169 1.377 . S
C1168 C1170 1.384 . S
C1169 C1168 1.377 . S
C1169 C1175 1.390 . S
C1170 H1161 0.930 . S
C1170 C1168 1.384 . S
C1170 C1171 1.372 . S
C1171 C1170 1.372 . S
C1171 C1172 1.400 . S
C1171 C1176 1.490 . S
C1172 H1162 0.930 . S
C1172 C1171 1.400 . S
C1172 C1175 1.386 . S
H1173 C1189 0.930 . S
H1174 C1190 0.931 . S
C1175 H1163 0.929 . S
C1175 C1169 1.390 . S
C1175 C1172 1.386 . S
C1176 C1171 1.490 . S
C1176 C1178 1.395 . S
C1176 C1179 1.403 . S
H1177 C1183 0.930 . S
C1178 H1164 0.930 . S
C1178 C1176 1.395 . S
C1178 C1181 1.403 . S
C1179 C1176 1.403 . S
C1179 C1180 1.524 . S
C1179 C1183 1.400 . S
C1180 H1165 0.960 . S
C1180 H1166 0.960 . S
C1180 H1167 0.960 . S
C1180 C1179 1.524 . S
C1181 C1178 1.403 . S
C1181 C1182 1.392 . S
C1181 C1185 1.495 . S
C1182 C1181 1.392 . S
C1182 C1183 1.385 . S
C1182 C1184 1.478 . S
C1183 H1177 0.930 . S
C1183 C1179 1.400 . S
C1183 C1182 1.385 . S
C1184 C1182 1.478 . S
C1184 C1186 1.381 . S
C1184 C1190 1.383 . S
C1185 C1181 1.495 . S
C1185 H1191 0.959 . S
C1185 H1192 0.961 . S
C1185 H1193 0.960 . S
C1186 C1184 1.381 . S
C1186 C1187 1.394 . S
C1186 H1194 0.930 . S
C1187 C1186 1.394 . S
C1187 C1188 1.383 . S
C1187 H1195 0.929 . S
C1188 C1187 1.383 . S
C1188 C1189 1.377 . S
C1189 H1173 0.930 . S
C1189 C1188 1.377 . S
C1189 C1190 1.379 . S
C1190 H1174 0.931 . S
C1190 C1184 1.383 . S
C1190 C1189 1.379 . S
H1191 C1185 0.959 . S
H1192 C1185 0.961 . S
H1193 C1185 0.960 . S
H1194 C1186 0.930 . S
H1195 C1187 0.929 . S
H1196 C1204 0.929 . S
H1197 C1206 0.930 . S
H1198 C1208 0.930 . S
H1199 C1211 0.929 . S
H1200 C1214 0.930 . S
H1201 C1216 0.960 . S
H1202 C1216 0.960 . S
H1203 C1216 0.960 . S
C1204 H1196 0.929 . S
C1204 C1205 1.377 . S
C1204 C1206 1.384 . S
C1205 C1204 1.377 . S
C1205 C1211 1.390 . S
C1206 H1197 0.930 . S
C1206 C1204 1.384 . S
C1206 C1207 1.372 . S
C1207 C1206 1.372 . S
C1207 C1208 1.400 . S
C1207 C1212 1.490 . S
C1208 H1198 0.930 . S
C1208 C1207 1.400 . S
C1208 C1211 1.386 . S
H1209 C1225 0.930 . S
H1210 C1226 0.931 . S
C1211 H1199 0.929 . S
C1211 C1205 1.390 . S
C1211 C1208 1.386 . S
C1212 C1207 1.490 . S
C1212 C1214 1.395 . S
C1212 C1215 1.403 . S
H1213 C1219 0.930 . S
C1214 H1200 0.930 . S
C1214 C1212 1.395 . S
C1214 C1217 1.403 . S
C1215 C1212 1.403 . S
C1215 C1216 1.524 . S
C1215 C1219 1.400 . S
C1216 H1201 0.960 . S
C1216 H1202 0.960 . S
C1216 H1203 0.960 . S
C1216 C1215 1.524 . S
C1217 C1214 1.403 . S
C1217 C1218 1.392 . S
C1217 C1221 1.495 . S
C1218 C1217 1.392 . S
C1218 C1219 1.385 . S
C1218 C1220 1.478 . S
C1219 H1213 0.930 . S
C1219 C1215 1.400 . S
C1219 C1218 1.385 . S
C1220 C1218 1.478 . S
C1220 C1222 1.381 . S
C1220 C1226 1.383 . S
C1221 C1217 1.495 . S
C1221 H1227 0.959 . S
C1221 H1228 0.961 . S
C1221 H1229 0.960 . S
C1222 C1220 1.381 . S
C1222 C1223 1.394 . S
C1222 H1230 0.930 . S
C1223 C1222 1.394 . S
C1223 C1224 1.383 . S
C1223 H1231 0.929 . S
C1224 C1223 1.383 . S
C1224 C1225 1.377 . S
C1225 H1209 0.930 . S
C1225 C1224 1.377 . S
C1225 C1226 1.379 . S
C1226 H1210 0.931 . S
C1226 C1220 1.383 . S
C1226 C1225 1.379 . S
H1227 C1221 0.959 . S
H1228 C1221 0.961 . S
H1229 C1221 0.960 . S
H1230 C1222 0.930 . S
H1231 C1223 0.929 . S
C377 C241 1.737 . S
C396 C306 1.737 . S
C432 C326 1.469 . S
C413 C277 1.479 . S
C468 C346 1.736 . S
C449 C169 1.695 . S
C504 C366 1.404 . S
C485 C205 1.398 1_655 S
C540 C307 1.769 1_565 S
C521 C97 1.695 . S
C557 C133 1.455 . S
C576 C327 1.408 . S
C593 C25 1.654 . S
C612 C347 1.734 . S
C629 C61 1.397 . S
C648 C367 1.379 . S
C684 C297 0.530 . S
C665 C211 0.387 . S
C720 C317 0.639 . S
C701 C247 0.574 . S
C756 C337 0.424 . S
C737 C253 0.410 . S
C773 C175 0.509 . S
C792 C357 0.614 . S
C809 C67 0.361 1_655 S
C828 C300 0.492 . S
C864 C320 0.683 . S
C845 C103 0.611 . S
C900 C340 0.433 . S
C881 C109 0.449 . S
C917 C31 0.583 . S
C936 C360 0.543 . S
C953 C181 1.960 . S
C972 C290 1.912 . S
C989 C217 2.020 . S
C1008 C310 1.977 . S
C1044 C330 1.832 . S
C1025 C283 1.838 . S
C1080 C350 2.096 . S
C1061 C145 2.151 . S
C1097 C37 1.966 1_655 S
C1116 C292 1.889 . S
C1152 C312 1.992 . S
C1133 C73 1.987 . S
C1188 C332 1.810 . S
C1169 C139 1.811 . S
C1205 C1 2.123 . S
C1224 C352 2.070 . S
