# Generated by pormake.
# Topology hwx, (6,3)-cn, num edge types: 1
# Building blocks:
#     Node 0, Type 0, BuildingBlock: IZENUY_clean_sbu_0, # of connection points: 6
#     Node 1, Type 0, BuildingBlock: IZENUY_clean_sbu_0, # of connection points: 6
#     Node 2, Type 0, BuildingBlock: IZENUY_clean_sbu_0, # of connection points: 6
#     Node 3, Type 0, BuildingBlock: IZENUY_clean_sbu_0, # of connection points: 6
#     Node 4, Type 1, BuildingBlock: INOVEN_clean_linker_0, # of connection points: 3
#     Node 5, Type 1, BuildingBlock: INOVEN_clean_linker_0, # of connection points: 3
#     Node 6, Type 1, BuildingBlock: INOVEN_clean_linker_0, # of connection points: 3
#     Node 7, Type 1, BuildingBlock: INOVEN_clean_linker_0, # of connection points: 3
#     Node 8, Type 1, BuildingBlock: INOVEN_clean_linker_0, # of connection points: 3
#     Node 9, Type 1, BuildingBlock: INOVEN_clean_linker_0, # of connection points: 3
#     Node 10, Type 1, BuildingBlock: INOVEN_clean_linker_0, # of connection points: 3
#     Node 11, Type 1, BuildingBlock: INOVEN_clean_linker_0, # of connection points: 3
#     Edge 12, Type (0, 1), BuildingBlock: EZIPEK_clean_linker_0, # of connection points: 2
#     Edge 13, Type (0, 1), BuildingBlock: EZIPEK_clean_linker_0, # of connection points: 2
#     Edge 14, Type (0, 1), BuildingBlock: EZIPEK_clean_linker_0, # of connection points: 2
#     Edge 15, Type (0, 1), BuildingBlock: EZIPEK_clean_linker_0, # of connection points: 2
#     Edge 16, Type (0, 1), BuildingBlock: EZIPEK_clean_linker_0, # of connection points: 2
#     Edge 17, Type (0, 1), BuildingBlock: EZIPEK_clean_linker_0, # of connection points: 2
#     Edge 18, Type (0, 1), BuildingBlock: EZIPEK_clean_linker_0, # of connection points: 2
#     Edge 19, Type (0, 1), BuildingBlock: EZIPEK_clean_linker_0, # of connection points: 2
#     Edge 20, Type (0, 1), BuildingBlock: EZIPEK_clean_linker_0, # of connection points: 2
#     Edge 21, Type (0, 1), BuildingBlock: EZIPEK_clean_linker_0, # of connection points: 2
#     Edge 22, Type (0, 1), BuildingBlock: EZIPEK_clean_linker_0, # of connection points: 2
#     Edge 23, Type (0, 1), BuildingBlock: EZIPEK_clean_linker_0, # of connection points: 2
#     Edge 24, Type (0, 1), BuildingBlock: EZIPEK_clean_linker_0, # of connection points: 2
#     Edge 25, Type (0, 1), BuildingBlock: EZIPEK_clean_linker_0, # of connection points: 2
#     Edge 26, Type (0, 1), BuildingBlock: EZIPEK_clean_linker_0, # of connection points: 2
#     Edge 27, Type (0, 1), BuildingBlock: EZIPEK_clean_linker_0, # of connection points: 2
#     Edge 28, Type (0, 1), BuildingBlock: EZIPEK_clean_linker_0, # of connection points: 2
#     Edge 29, Type (0, 1), BuildingBlock: EZIPEK_clean_linker_0, # of connection points: 2
#     Edge 30, Type (0, 1), BuildingBlock: EZIPEK_clean_linker_0, # of connection points: 2
#     Edge 31, Type (0, 1), BuildingBlock: EZIPEK_clean_linker_0, # of connection points: 2
#     Edge 32, Type (0, 1), BuildingBlock: EZIPEK_clean_linker_0, # of connection points: 2
#     Edge 33, Type (0, 1), BuildingBlock: EZIPEK_clean_linker_0, # of connection points: 2
#     Edge 34, Type (0, 1), BuildingBlock: EZIPEK_clean_linker_0, # of connection points: 2
#     Edge 35, Type (0, 1), BuildingBlock: EZIPEK_clean_linker_0, # of connection points: 2
# Relax obj value: 0.005
# Max RMSD: 0.053
# Mean RMSD: 0.045
data_MOF--net-hwx--node1-IZENUY_clean_sbu_0--node2-INOVEN_clean_linker_0--edge1-EZIPEK_clean_linker_0
_symmetry_space_group_name_H-M    P1
_symmetry_Int_Tables_number       1
_symmetry_cell_setting            triclinic
loop_
_symmetry_equiv_pos_as_xyz
'x, y, z'
_cell_length_a     37.453947
_cell_length_b     37.379532
_cell_length_c     15.163541
_cell_angle_alpha  92.572412
_cell_angle_beta   92.573168
_cell_angle_gamma 89.956142
loop_
_atom_site_label
_atom_site_type_symbol
_atom_site_fract_x
_atom_site_fract_y
_atom_site_fract_z
_atom_type_partial_charge
Fe0 Fe 0.24949 0.24931 0.11775 0.0
Fe1 Fe 0.247 0.24291 0.91493 0.0
O2 O 0.23119 0.22999 0.0173 0.0
Fe3 Fe 0.19708 0.19725 0.01895 0.0
O4 O 0.17747 0.21555 0.12061 0.0
O5 O 0.206 0.26605 0.14884 0.0
O6 O 0.25704 0.29356 0.07351 0.0
C7 C 0.2439 0.30797 0.00536 0.0
C8 C 0.24059 0.17578 0.1548 0.0
O9 O 0.23435 0.2894 0.9367 0.0
C10 C 0.24062 0.16989 0.88556 0.0
O11 O 0.29425 0.23413 0.09303 0.0
O12 O 0.2932 0.25199 0.95712 0.0
O13 O 0.22597 0.16745 0.08033 0.0
O14 O 0.24504 0.20834 0.18039 0.0
C15 C 0.17198 0.23575 0.88155 0.0
O16 O 0.26087 0.19702 0.88692 0.0
O17 O 0.21038 0.17285 0.91841 0.0
C18 C 0.31049 0.24193 0.02528 0.0
O19 O 0.20347 0.23675 0.85421 0.0
O20 O 0.16604 0.22481 0.95693 0.0
C21 C 0.17938 0.24632 0.15883 0.0
Fe22 Fe 0.26259 0.74221 0.59369 0.0
Fe23 Fe 0.31685 0.69981 0.48217 0.0
O24 O 0.28049 0.73032 0.48989 0.0
Fe25 Fe 0.26252 0.74892 0.39162 0.0
O26 O 0.27362 0.79428 0.43282 0.0
O27 O 0.25541 0.78932 0.56849 0.0
O28 O 0.30582 0.75668 0.64228 0.0
C29 C 0.33441 0.73901 0.64287 0.0
C30 C 0.20016 0.74178 0.48943 0.0
O31 O 0.33819 0.71231 0.59037 0.0
C32 C 0.27182 0.67975 0.33185 0.0
O33 O 0.26783 0.69679 0.63582 0.0
O34 O 0.29205 0.6643 0.52877 0.0
O35 O 0.2169 0.7539 0.42714 0.0
O36 O 0.21697 0.72977 0.55602 0.0
C37 C 0.33703 0.74683 0.36311 0.0
O38 O 0.30236 0.68068 0.37163 0.0
O39 O 0.24971 0.70456 0.34654 0.0
C40 C 0.27691 0.66669 0.60129 0.0
O41 O 0.34461 0.73354 0.43637 0.0
O42 O 0.30488 0.74776 0.33384 0.0
C43 C 0.26551 0.80836 0.50699 0.0
Fe44 Fe 0.76808 0.78253 0.91598 0.0
Fe45 Fe 0.76247 0.78079 0.11772 0.0
O46 O 0.78162 0.79852 0.02421 0.0
Fe47 Fe 0.81502 0.8322 0.03965 0.0
O48 O 0.80368 0.85438 0.93627 0.0
O49 O 0.75488 0.82701 0.88389 0.0
O50 O 0.72115 0.77499 0.94187 0.0
C51 C 0.70284 0.78508 0.00681 0.0
C52 C 0.84358 0.79056 0.90897 0.0
O53 O 0.71761 0.7938 0.0812 0.0
C54 C 0.8319 0.78648 0.18011 0.0
O55 O 0.78032 0.73689 0.93904 0.0
O56 O 0.75634 0.73524 0.0686 0.0
O57 O 0.8477 0.80375 0.98667 0.0
O58 O 0.81272 0.78709 0.87146 0.0
C59 C 0.76919 0.85563 0.16295 0.0
O60 O 0.80596 0.76587 0.15992 0.0
O61 O 0.83314 0.81684 0.14668 0.0
C62 C 0.77013 0.71964 0.00274 0.0
O63 O 0.7652 0.82347 0.18457 0.0
O64 O 0.78422 0.86262 0.09306 0.0
C65 C 0.77535 0.85381 0.88764 0.0
Fe66 Fe 0.69707 0.33299 0.50713 0.0
Fe67 Fe 0.74486 0.28281 0.61617 0.0
O68 O 0.73046 0.2993 0.51267 0.0
Fe69 Fe 0.74869 0.28202 0.41379 0.0
O70 O 0.74543 0.32489 0.35749 0.0
O71 O 0.7275 0.36368 0.45971 0.0
O72 O 0.7093 0.35471 0.61537 0.0
C73 C 0.73789 0.35391 0.66275 0.0
C74 C 0.67898 0.2878 0.35644 0.0
O75 O 0.75835 0.32717 0.65885 0.0
C76 C 0.74214 0.22035 0.5139 0.0
O77 O 0.66477 0.30431 0.55477 0.0
O78 O 0.70058 0.28706 0.66412 0.0
O79 O 0.70489 0.26709 0.37072 0.0
O80 O 0.67813 0.31806 0.39717 0.0
C81 C 0.80925 0.28609 0.52201 0.0
O82 O 0.73236 0.2372 0.58236 0.0
O83 O 0.75536 0.23638 0.45139 0.0
C84 C 0.66943 0.29105 0.62937 0.0
O85 O 0.79161 0.27562 0.58567 0.0
O86 O 0.79374 0.29513 0.45082 0.0
C87 C 0.74209 0.35693 0.38759 0.0
H88 H 0.25391 0.51733 0.81626 0.0
H89 H 0.26469 0.6197 0.95421 0.0
H90 H 0.24276 0.526 0.0982 0.0
N91 N 0.24603 0.47902 0.9548 0.0
N92 N 0.24469 0.4616 0.02289 0.0
C93 C 0.25339 0.53349 0.87736 0.0
C94 C 0.25876 0.57051 0.87631 0.0
C95 C 0.24817 0.51703 0.95698 0.0
C96 C 0.24727 0.53831 0.03633 0.0
C97 C 0.25351 0.57556 0.03596 0.0
C98 C 0.25952 0.59117 0.95546 0.0
H99 H 0.99275 0.75606 0.68998 0.0
H100 H 0.89091 0.77392 0.55835 0.0
H101 H 0.98219 0.7479 0.40536 0.0
N102 N 0.02987 0.74748 0.54702 0.0
N103 N 0.04611 0.74518 0.47697 0.0
C104 C 0.9764 0.75703 0.62933 0.0
C105 C 0.93981 0.7644 0.63299 0.0
C106 C 0.99212 0.75163 0.54765 0.0
C107 C 0.97051 0.75257 0.46892 0.0
C108 C 0.93386 0.76098 0.47217 0.0
C109 C 0.919 0.76715 0.55476 0.0
H110 H 0.77625 0.50751 0.18366 0.0
H111 H 0.76576 0.40689 0.03642 0.0
H112 H 0.7707 0.50451 0.89865 0.0
N113 N 0.77654 0.54866 0.04639 0.0
N114 N 0.77457 0.56641 0.97857 0.0
C115 C 0.77533 0.49241 0.12088 0.0
C116 C 0.77185 0.455 0.11894 0.0
C117 C 0.77553 0.51059 0.04183 0.0
C118 C 0.77216 0.49087 0.96026 0.0
C119 C 0.76899 0.45342 0.95826 0.0
C120 C 0.76959 0.43569 0.03776 0.0
H121 H 0.02829 0.28244 0.36348 0.0
H122 H 0.12173 0.25417 0.5211 0.0
H123 H 0.02165 0.26972 0.6437 0.0
N124 N 0.98246 0.28011 0.49122 0.0
N125 N 0.96256 0.2777 0.55459 0.0
C126 C 0.04094 0.27661 0.4269 0.0
C127 C 0.07765 0.26838 0.43298 0.0
C128 C 0.02017 0.27593 0.50178 0.0
C129 C 0.03696 0.26947 0.58473 0.0
C130 C 0.07367 0.26211 0.59141 0.0
C131 C 0.09349 0.26063 0.51548 0.0
H132 H 0.74336 1.00492 0.68374 0.0
H133 H 0.74664 0.90635 0.52693 0.0
H134 H 0.73706 1.00622 0.39916 0.0
N135 N 0.73814 0.04823 0.55081 0.0
N136 N 0.73697 0.06709 0.48488 0.0
C137 C 0.74147 0.99074 0.61976 0.0
C138 C 0.74425 0.95325 0.61437 0.0
C139 C 0.73817 1.01017 0.54264 0.0
C140 C 0.73791 0.99165 0.45939 0.0
C141 C 0.74082 0.95418 0.45393 0.0
C142 C 0.74313 0.93519 0.53133 0.0
H143 H 0.51893 0.25767 0.839 0.0
H144 H 0.62003 0.27712 0.97716 0.0
H145 H 0.52812 0.25111 0.12237 0.0
N146 N 0.48112 0.24962 0.97938 0.0
N147 N 0.46434 0.24769 0.04832 0.0
C148 C 0.53495 0.25934 0.90038 0.0
C149 C 0.57153 0.26704 0.89918 0.0
C150 C 0.5188 0.25447 0.9807 0.0
C151 C 0.54004 0.2558 0.06014 0.0
C152 C 0.57669 0.26424 0.05945 0.0
C153 C 0.5919 0.27038 0.97859 0.0
H154 H 0.27079 0.02637 0.35956 0.0
H155 H 0.26404 0.12328 0.52191 0.0
H156 H 0.27243 0.02188 0.64338 0.0
N157 N 0.27352 0.98142 0.48962 0.0
N158 N 0.27375 0.96198 0.55446 0.0
C159 C 0.27122 0.03979 0.42446 0.0
C160 C 0.26825 0.07725 0.43223 0.0
C161 C 0.27313 0.01946 0.50013 0.0
C162 C 0.27214 0.03711 0.58423 0.0
C163 C 0.26902 0.07456 0.59199 0.0
C164 C 0.26757 0.09447 0.51602 0.0
H165 H 0.48881 0.77883 0.16193 0.0
H166 H 0.38931 0.76755 0.01175 0.0
H167 H 0.48784 0.77006 0.87709 0.0
N168 N 0.53083 0.77814 0.02766 0.0
N169 N 0.54975 0.77732 0.96194 0.0
C170 C 0.47419 0.77706 0.09855 0.0
C171 C 0.43691 0.77364 0.09533 0.0
C172 C 0.49288 0.77644 0.02036 0.0
C173 C 0.47376 0.77211 0.93796 0.0
C174 C 0.43621 0.76922 0.93477 0.0
C175 C 0.41813 0.77083 0.01371 0.0
C176 C 0.16068 0.27713 0.30332 0.0
C177 C 0.15169 0.25711 0.22315 0.0
C178 C 0.09259 0.24502 0.2789 0.0
C179 C 0.10052 0.2678 0.3546 0.0
N180 N 0.13776 0.31541 0.42038 0.0
N181 N 0.10357 0.23408 0.12459 0.0
C182 C 0.13304 0.28736 0.36017 0.0
C183 C 0.11586 0.2449 0.20758 0.0
N184 N 0.19542 0.28393 0.33017 0.0
N185 N 0.06429 0.22193 0.27618 0.0
H186 H 0.11873 0.23654 0.06929 0.0
H187 H 0.07689 0.22735 0.10968 0.0
H188 H 0.04763 0.21934 0.3287 0.0
H189 H 0.05981 0.20265 0.22503 0.0
H190 H 0.20252 0.29599 0.39181 0.0
H191 H 0.21729 0.27351 0.29787 0.0
H192 H 0.16012 0.33209 0.42215 0.0
H193 H 0.11758 0.32428 0.4613 0.0
C194 C 0.24033 0.61885 0.66386 0.0
C195 C 0.27416 0.63429 0.65394 0.0
C196 C 0.29974 0.59872 0.77312 0.0
C197 C 0.26461 0.58822 0.79256 0.0
N198 N 0.20105 0.58818 0.75813 0.0
N199 N 0.33804 0.62948 0.67564 0.0
C200 C 0.23478 0.59774 0.73749 0.0
C201 C 0.30463 0.62119 0.70122 0.0
N202 N 0.21438 0.62253 0.59907 0.0
N203 N 0.32809 0.58848 0.82622 0.0
H204 H 0.34236 0.64517 0.62215 0.0
H205 H 0.36155 0.61882 0.70244 0.0
H206 H 0.32557 0.57045 0.87616 0.0
H207 H 0.35385 0.59862 0.82357 0.0
H208 H 0.18961 0.60985 0.59793 0.0
H209 H 0.22008 0.63432 0.5403 0.0
H210 H 0.17802 0.59796 0.7266 0.0
H211 H 0.19592 0.57212 0.81062 0.0
C212 C 0.89511 0.78957 0.24785 0.0
C213 C 0.85929 0.77693 0.25053 0.0
C214 C 0.8774 0.74495 0.38294 0.0
C215 C 0.91028 0.76391 0.39043 0.0
N216 N 0.94651 0.81112 0.33618 0.0
N217 N 0.8151 0.74996 0.34006 0.0
C218 C 0.91821 0.78811 0.32452 0.0
C219 C 0.84998 0.75635 0.32303 0.0
N220 N 0.90781 0.80176 0.17175 0.0
N221 N 0.87217 0.71615 0.43316 0.0
H222 H 0.79357 0.76154 0.30626 0.0
H223 H 0.80771 0.73728 0.39635 0.0
H224 H 0.89218 0.70625 0.47555 0.0
H225 H 0.8495 0.69996 0.42481 0.0
H226 H 0.93454 0.80866 0.16583 0.0
H227 H 0.89308 0.80033 0.11193 0.0
H228 H 0.95104 0.83136 0.29285 0.0
H229 H 0.96303 0.81267 0.39335 0.0
C230 C 0.71988 0.38774 0.80081 0.0
C231 C 0.74464 0.38224 0.73327 0.0
C232 C 0.7854 0.42592 0.80988 0.0
C233 C 0.75973 0.43252 0.87465 0.0
N234 N 0.69851 0.42803 0.91592 0.0
N235 N 0.79595 0.40353 0.66069 0.0
C236 C 0.7256 0.41616 0.86469 0.0
C237 C 0.77598 0.40359 0.73386 0.0
N238 N 0.69201 0.36464 0.8075 0.0
N239 N 0.81905 0.4398 0.8223 0.0
H240 H 0.78884 0.38856 0.60279 0.0
H241 H 0.81735 0.42088 0.65445 0.0
H242 H 0.82677 0.45648 0.87679 0.0
H243 H 0.83992 0.43263 0.78191 0.0
H244 H 0.67539 0.36537 0.86085 0.0
H245 H 0.68774 0.34242 0.76477 0.0
H246 H 0.67219 0.41923 0.90581 0.0
H247 H 0.70157 0.44949 0.96203 0.0
C248 C 0.61569 0.29146 0.29068 0.0
C249 C 0.65138 0.27865 0.28432 0.0
C250 C 0.63274 0.2472 0.14465 0.0
C251 C 0.60013 0.26652 0.14198 0.0
N252 N 0.56428 0.31356 0.20834 0.0
N253 N 0.69513 0.25179 0.18748 0.0
C254 C 0.59245 0.29044 0.21396 0.0
C255 C 0.66037 0.25826 0.20677 0.0
N256 N 0.60331 0.30345 0.36995 0.0
N257 N 0.63753 0.21847 0.08762 0.0
H258 H 0.71686 0.26328 0.22341 0.0
H259 H 0.70224 0.2392 0.12805 0.0
H260 H 0.61732 0.20881 0.04322 0.0
H261 H 0.66004 0.20207 0.09187 0.0
H262 H 0.57667 0.3105 0.37797 0.0
H263 H 0.61818 0.30176 0.4292 0.0
H264 H 0.55994 0.33361 0.25672 0.0
H265 H 0.54763 0.31535 0.15181 0.0
C266 C 0.28505 0.13022 0.80703 0.0
C267 C 0.24926 0.13717 0.82905 0.0
C268 C 0.22785 0.09531 0.70946 0.0
C269 C 0.26305 0.09299 0.6788 0.0
N270 N 0.32577 0.10701 0.69827 0.0
N271 N 0.19154 0.10833 0.83428 0.0
C272 C 0.29198 0.10965 0.72836 0.0
C273 C 0.22184 0.11445 0.79033 0.0
N274 N 0.31213 0.14053 0.86586 0.0
N275 N 0.19986 0.08041 0.65974 0.0
H276 H 0.18893 0.11614 0.90043 0.0
H277 H 0.17178 0.09025 0.81101 0.0
H278 H 0.20306 0.06522 0.60124 0.0
H279 H 0.17323 0.0854 0.67319 0.0
H280 H 0.33878 0.13358 0.85836 0.0
H281 H 0.30714 0.15239 0.92776 0.0
H282 H 0.34727 0.12207 0.72535 0.0
H283 H 0.3319 0.09105 0.64277 0.0
C284 C 0.36817 0.78945 0.26723 0.0
C285 C 0.3661 0.75495 0.30305 0.0
C286 C 0.41425 0.73372 0.20868 0.0
C287 C 0.41699 0.76853 0.17618 0.0
N288 N 0.40283 0.83116 0.18729 0.0
N289 N 0.39072 0.69513 0.31561 0.0
C290 C 0.39598 0.79694 0.20997 0.0
C291 C 0.39056 0.72753 0.27712 0.0
N292 N 0.34283 0.81474 0.28505 0.0
N293 N 0.43257 0.70595 0.16992 0.0
H294 H 0.37146 0.68697 0.35769 0.0
H295 H 0.41128 0.67657 0.3091 0.0
H296 H 0.451 0.70936 0.12143 0.0
H297 H 0.42789 0.67913 0.18123 0.0
H298 H 0.34057 0.83875 0.253 0.0
H299 H 0.32217 0.81076 0.32699 0.0
H300 H 0.39101 0.85368 0.21651 0.0
H301 H 0.423 0.83726 0.14507 0.0
C302 C 0.7377 0.90387 0.82858 0.0
C303 C 0.76893 0.88246 0.82412 0.0
C304 C 0.78782 0.91622 0.69966 0.0
C305 C 0.75372 0.93261 0.69368 0.0
N306 N 0.69462 0.94015 0.74864 0.0
N307 N 0.82152 0.8649 0.74604 0.0
C308 C 0.72821 0.92617 0.75752 0.0
C309 C 0.79363 0.88792 0.75762 0.0
N310 N 0.71785 0.90383 0.90195 0.0
N311 N 0.81477 0.92794 0.65032 0.0
H312 H 0.82596 0.8429 0.78448 0.0
H313 H 0.83807 0.86552 0.69271 0.0
H314 H 0.81162 0.94927 0.60861 0.0
H315 H 0.84109 0.91916 0.65808 0.0
H316 H 0.69655 0.92122 0.9123 0.0
H317 H 0.72497 0.88881 0.95641 0.0
H318 H 0.67381 0.93308 0.78779 0.0
H319 H 0.68687 0.95685 0.69793 0.0
C320 C 0.896 0.81157 0.82709 0.0
C321 C 0.87519 0.78284 0.85566 0.0
C322 C 0.90635 0.74067 0.75695 0.0
C323 C 0.92251 0.77013 0.71854 0.0
N324 N 0.93366 0.83344 0.71489 0.0
N325 N 0.8625 0.71978 0.85627 0.0
C326 C 0.91813 0.80549 0.75414 0.0
C327 C 0.88129 0.74719 0.82364 0.0
N328 N 0.89434 0.84469 0.86883 0.0
N329 N 0.91502 0.70658 0.72907 0.0
H330 H 0.84657 0.72348 0.9105 0.0
H331 H 0.86204 0.69366 0.82958 0.0
H332 H 0.93301 0.70114 0.67964 0.0
H333 H 0.90651 0.68362 0.75826 0.0
H334 H 0.91158 0.86562 0.85735 0.0
H335 H 0.87748 0.85083 0.92004 0.0
H336 H 0.92772 0.86022 0.72914 0.0
H337 H 0.95137 0.82981 0.66406 0.0
C338 C 0.7218 0.40653 0.29051 0.0
C339 C 0.75026 0.38682 0.33032 0.0
C340 C 0.79373 0.41965 0.24758 0.0
C341 C 0.76499 0.43578 0.20016 0.0
N342 N 0.70182 0.44499 0.17346 0.0
N343 N 0.81327 0.37573 0.35311 0.0
C344 C 0.72909 0.42977 0.22184 0.0
C345 C 0.7863 0.39392 0.31102 0.0
N346 N 0.68774 0.40307 0.3181 0.0
N347 N 0.82801 0.42929 0.23186 0.0
H348 H 0.80886 0.3592 0.40512 0.0
H349 H 0.83985 0.37629 0.33623 0.0
H350 H 0.83395 0.44799 0.18558 0.0
H351 H 0.85049 0.42078 0.26777 0.0
H352 H 0.66673 0.41978 0.29971 0.0
H353 H 0.68053 0.38514 0.36466 0.0
H354 H 0.67509 0.43775 0.17619 0.0
H355 H 0.706 0.46393 0.12652 0.0
C356 C 0.12159 0.2143 0.77708 0.0
C357 C 0.14151 0.24312 0.81919 0.0
C358 C 0.11183 0.28546 0.72125 0.0
C359 C 0.09257 0.25658 0.67785 0.0
N360 N 0.0729 0.19525 0.67433 0.0
N361 N 0.14942 0.30651 0.84752 0.0
C362 C 0.09535 0.22154 0.70943 0.0
C363 C 0.13464 0.27889 0.79624 0.0
N364 N 0.12901 0.17988 0.79867 0.0
N365 N 0.10923 0.31893 0.68862 0.0
H366 H 0.16568 0.30233 0.90367 0.0
H367 H 0.14308 0.33333 0.83966 0.0
H368 H 0.09139 0.3251 0.63668 0.0
H369 H 0.12587 0.34019 0.70986 0.0
H370 H 0.11907 0.1574 0.76274 0.0
H371 H 0.14667 0.17357 0.85058 0.0
H372 H 0.07095 0.16999 0.6999 0.0
H373 H 0.05395 0.19962 0.62342 0.0
C374 C 0.24299 0.65919 0.18239 0.0
C375 C 0.26394 0.65147 0.26004 0.0
C376 C 0.27872 0.59297 0.19048 0.0
C377 C 0.25434 0.59917 0.11845 0.0
N378 N 0.20463 0.63406 0.06301 0.0
N379 N 0.2913 0.60478 0.34617 0.0
C380 C 0.23344 0.63084 0.12052 0.0
C381 C 0.27862 0.61644 0.26679 0.0
N382 N 0.23454 0.69359 0.1628 0.0
N383 N 0.30329 0.56604 0.18528 0.0
H384 H 0.28877 0.61964 0.40511 0.0
H385 H 0.29975 0.57852 0.35463 0.0
H386 H 0.30588 0.54931 0.12912 0.0
H387 H 0.32363 0.56294 0.2336 0.0
H388 H 0.22157 0.69997 0.10326 0.0
H389 H 0.24468 0.71598 0.19874 0.0
H390 H 0.18708 0.6557 0.06676 0.0
H391 H 0.19618 0.6133 0.01863 0.0
C392 C 0.36672 0.72268 0.78381 0.0
C393 C 0.36228 0.74658 0.71422 0.0
C394 C 0.4089 0.78557 0.78577 0.0
C395 C 0.41502 0.76001 0.85128 0.0
N396 N 0.40674 0.69974 0.89722 0.0
N397 N 0.38411 0.797 0.63901 0.0
C398 C 0.39626 0.72701 0.84484 0.0
C399 C 0.38494 0.77693 0.71207 0.0
N400 N 0.3415 0.69719 0.79529 0.0
N401 N 0.42467 0.81852 0.79563 0.0
H402 H 0.36731 0.79081 0.58382 0.0
H403 H 0.40221 0.81752 0.63001 0.0
H404 H 0.44251 0.82565 0.84824 0.0
H405 H 0.41812 0.83955 0.75512 0.0
H406 H 0.34174 0.68124 0.84996 0.0
H407 H 0.31824 0.6948 0.75538 0.0
H408 H 0.39588 0.67406 0.88971 0.0
H409 H 0.42885 0.70178 0.94158 0.0
C410 C 0.78995 0.90526 0.27084 0.0
C411 C 0.76131 0.88532 0.22775 0.0
C412 C 0.71831 0.91811 0.31906 0.0
C413 C 0.74726 0.93455 0.36874 0.0
N414 N 0.81053 0.94388 0.39561 0.0
N415 N 0.69824 0.87355 0.2058 0.0
C416 C 0.78302 0.92858 0.3447 0.0
C417 C 0.72541 0.89216 0.25017 0.0
N418 N 0.82387 0.90195 0.24156 0.0
N419 N 0.68413 0.9277 0.33775 0.0
H420 H 0.70229 0.85677 0.1504 0.0
H421 H 0.67184 0.87391 0.2243 0.0
H422 H 0.67841 0.94655 0.388 0.0
H423 H 0.6615 0.91906 0.30062 0.0
H424 H 0.84481 0.91902 0.26243 0.0
H425 H 0.83107 0.88375 0.19167 0.0
H426 H 0.8372 0.9366 0.39063 0.0
H427 H 0.80664 0.96285 0.44681 0.0
C428 C 0.6164 0.3125 0.71432 0.0
C429 C 0.63818 0.28381 0.68297 0.0
C430 C 0.60867 0.24238 0.77761 0.0
C431 C 0.58952 0.27164 0.8151 0.0
N432 N 0.57368 0.33402 0.8208 0.0
N433 N 0.6484 0.22045 0.66498 0.0
C434 C 0.59235 0.30643 0.78235 0.0
C435 C 0.63225 0.24838 0.70879 0.0
N436 N 0.61889 0.34552 0.67961 0.0
N437 N 0.60552 0.20922 0.8112 0.0
H438 H 0.6649 0.22416 0.61263 0.0
H439 H 0.64321 0.1936 0.67449 0.0
H440 H 0.58717 0.20358 0.85847 0.0
H441 H 0.62187 0.18758 0.7954 0.0
H442 H 0.60143 0.36656 0.69231 0.0
H443 H 0.63743 0.35187 0.63373 0.0
H444 H 0.57744 0.36091 0.80901 0.0
H445 H 0.55487 0.33016 0.86817 0.0
C446 C 0.21884 0.12958 0.25532 0.0
C447 C 0.24788 0.14728 0.21835 0.0
C448 C 0.29051 0.11322 0.30988 0.0
C449 C 0.26143 0.09864 0.35309 0.0
N450 N 0.19812 0.0937 0.37229 0.0
N451 N 0.31123 0.15597 0.20727 0.0
C452 C 0.22564 0.10676 0.32663 0.0
C453 C 0.28374 0.13898 0.24459 0.0
N454 N 0.1847 0.13434 0.22202 0.0
N455 N 0.32449 0.102 0.33086 0.0
H456 H 0.30731 0.17246 0.15412 0.0
H457 H 0.3378 0.15471 0.22992 0.0
H458 H 0.3302 0.08363 0.37932 0.0
H459 H 0.34685 0.10889 0.29708 0.0
H460 H 0.16304 0.11892 0.23835 0.0
H461 H 0.17798 0.15196 0.17283 0.0
H462 H 0.17182 0.10247 0.3652 0.0
H463 H 0.20177 0.07533 0.42169 0.0
C464 C 0.2142 0.36676 0.04063 0.0
C465 C 0.24331 0.34769 0.00424 0.0
C466 C 0.27373 0.40449 0.97977 0.0
C467 C 0.24482 0.4234 0.01752 0.0
N468 N 0.19056 0.42388 0.09517 0.0
N469 N 0.30182 0.3472 0.94437 0.0
C470 C 0.21597 0.40481 0.05143 0.0
C471 C 0.27329 0.36627 0.97453 0.0
N472 N 0.18458 0.34843 0.06294 0.0
N473 N 0.302 0.4233 0.95142 0.0
H474 H 0.30188 0.31937 0.93717 0.0
H475 H 0.32601 0.35837 0.92884 0.0
H476 H 0.30522 0.45075 0.96458 0.0
H477 H 0.32227 0.41221 0.91442 0.0
H478 H 0.16103 0.36059 0.0823 0.0
H479 H 0.18255 0.32062 0.05635 0.0
H480 H 0.17036 0.41236 0.12933 0.0
H481 H 0.19109 0.4518 0.10197 0.0
C482 C 0.14088 0.77275 0.45236 0.0
C483 C 0.15997 0.74219 0.48306 0.0
C484 C 0.10262 0.71345 0.51134 0.0
C485 C 0.08409 0.74329 0.47799 0.0
N486 N 0.08426 0.79705 0.39808 0.0
N487 N 0.15752 0.67943 0.51179 0.0
C488 C 0.10294 0.77146 0.44232 0.0
C489 C 0.14041 0.71146 0.50517 0.0
N490 N 0.15843 0.80365 0.43604 0.0
N491 N 0.08403 0.68646 0.54615 0.0
H492 H 0.1841 0.67637 0.49593 0.0
H493 H 0.1445 0.65533 0.52053 0.0
H494 H 0.05618 0.68554 0.54406 0.0
H495 H 0.0963 0.66604 0.58094 0.0
H496 H 0.1454 0.8278 0.42534 0.0
H497 H 0.18601 0.80655 0.43962 0.0
H498 H 0.09629 0.81614 0.36115 0.0
H499 H 0.05638 0.79721 0.3921 0.0
C500 C 0.80292 0.66216 0.02837 0.0
C501 C 0.77166 0.68001 0.99685 0.0
C502 C 0.74461 0.62249 0.94683 0.0
C503 C 0.77452 0.60452 0.98378 0.0
N504 N 0.83304 0.60564 0.05563 0.0
N505 N 0.71116 0.67779 0.93529 0.0
C506 C 0.80395 0.62394 0.0239 0.0
C507 C 0.74206 0.66034 0.95837 0.0
N508 N 0.83175 0.68193 0.06067 0.0
N509 N 0.71881 0.603 0.89966 0.0
H510 H 0.70851 0.70553 0.94128 0.0
H511 H 0.68731 0.66485 0.91591 0.0
H512 H 0.71978 0.57511 0.89218 0.0
H513 H 0.69792 0.6143 0.86291 0.0
H514 H 0.85645 0.67125 0.07912 0.0
H515 H 0.83159 0.70984 0.06589 0.0
H516 H 0.85418 0.61726 0.09332 0.0
H517 H 0.83594 0.57807 0.04485 0.0
C518 C 0.86854 0.30753 0.59038 0.0
C519 C 0.8491 0.28438 0.52852 0.0
C520 C 0.90536 0.25608 0.48432 0.0
C521 C 0.92465 0.28014 0.54365 0.0
N522 N 0.92589 0.32459 0.6623 0.0
N523 N 0.84888 0.2387 0.41046 0.0
C524 C 0.90648 0.30466 0.59932 0.0
C525 C 0.86752 0.25938 0.47338 0.0
N526 N 0.85077 0.33338 0.63745 0.0
N527 N 0.92294 0.22807 0.44462 0.0
H528 H 0.8211 0.23796 0.40454 0.0
H529 H 0.86086 0.22363 0.36058 0.0
H530 H 0.95021 0.22358 0.45556 0.0
H531 H 0.91028 0.2072 0.40786 0.0
H532 H 0.86306 0.35344 0.67768 0.0
H533 H 0.82318 0.33621 0.63209 0.0
H534 H 0.91481 0.34067 0.71166 0.0
H535 H 0.95375 0.32353 0.66813 0.0
C536 C 0.70938 0.16315 0.47276 0.0
C537 C 0.74068 0.18069 0.50899 0.0
C538 C 0.76951 0.12253 0.53196 0.0
C539 C 0.73846 0.10515 0.49398 0.0
N540 N 0.6814 0.10744 0.4166 0.0
N541 N 0.80186 0.17829 0.56481 0.0
C542 C 0.70917 0.12515 0.46084 0.0
C543 C 0.77112 0.16068 0.53676 0.0
N544 N 0.67975 0.18288 0.45113 0.0
N545 N 0.79763 0.10235 0.56172 0.0
H546 H 0.80368 0.20611 0.57106 0.0
H547 H 0.82622 0.16581 0.57792 0.0
H548 H 0.79876 0.07465 0.55065 0.0
H549 H 0.81952 0.11259 0.59921 0.0
H550 H 0.6549 0.17181 0.43268 0.0
H551 H 0.67929 0.21078 0.45681 0.0
H552 H 0.66054 0.12007 0.38273 0.0
H553 H 0.68042 0.07955 0.40918 0.0
C554 C 0.37082 0.22482 0.96624 0.0
C555 C 0.35049 0.24397 0.03009 0.0
C556 C 0.40673 0.26529 0.10597 0.0
C557 C 0.42634 0.24415 0.04559 0.0
N558 N 0.42687 0.19525 0.93721 0.0
N559 N 0.34937 0.28315 0.16155 0.0
C560 C 0.40837 0.22156 0.98082 0.0
C561 C 0.36858 0.26415 0.10082 0.0
N562 N 0.35476 0.21023 0.89044 0.0
N563 N 0.42495 0.28781 0.16565 0.0
H564 H 0.32201 0.28769 0.15362 0.0
H565 H 0.36035 0.29414 0.22092 0.0
H566 H 0.45282 0.28832 0.17185 0.0
H567 H 0.41294 0.30715 0.20587 0.0
H568 H 0.36911 0.19979 0.83788 0.0
H569 H 0.32746 0.21128 0.87585 0.0
H570 H 0.41457 0.17562 0.89535 0.0
H571 H 0.45384 0.19025 0.95175 0.0
C572 C 0.2996 0.86644 0.49979 0.0
C573 C 0.26823 0.84818 0.5232 0.0
C574 C 0.24425 0.90566 0.58035 0.0
C575 C 0.27271 0.92392 0.54417 0.0
N576 N 0.32796 0.92262 0.46917 0.0
N577 N 0.20916 0.85165 0.58335 0.0
C578 C 0.30038 0.90459 0.50299 0.0
C579 C 0.24023 0.86806 0.56363 0.0
N580 N 0.32976 0.8474 0.48172 0.0
N581 N 0.22112 0.92455 0.63184 0.0
H582 H 0.20487 0.82421 0.5771 0.0
H583 H 0.18628 0.86561 0.60083 0.0
H584 H 0.22289 0.95228 0.64285 0.0
H585 H 0.20218 0.91262 0.6693 0.0
H586 H 0.35451 0.85912 0.47332 0.0
H587 H 0.33108 0.81964 0.48396 0.0
H588 H 0.34642 0.91042 0.42815 0.0
H589 H 0.33148 0.95019 0.47889 0.0
C590 C 0.64402 0.75718 0.04139 0.0
C591 C 0.66306 0.78329 0.99657 0.0
C592 C 0.6066 0.80367 0.92568 0.0
C593 C 0.58778 0.77831 0.97204 0.0
N594 N 0.58846 0.72462 0.05342 0.0
N595 N 0.66274 0.83347 0.90219 0.0
C596 C 0.6064 0.75349 0.0251 0.0
C597 C 0.6444 0.80689 0.93952 0.0
N598 N 0.66183 0.73593 0.0998 0.0
N599 N 0.58793 0.82426 0.86729 0.0
H600 H 0.69017 0.83678 0.91228 0.0
H601 H 0.65099 0.85361 0.86576 0.0
H602 H 0.56019 0.82263 0.85777 0.0
H603 H 0.59956 0.84142 0.82474 0.0
H604 H 0.64914 0.71974 0.14287 0.0
H605 H 0.68952 0.73588 0.10944 0.0
H606 H 0.60072 0.70342 0.08498 0.0
H607 H 0.5615 0.71983 0.03703 0.0
loop_
_geom_bond_atom_site_label_1
_geom_bond_atom_site_label_2
_geom_bond_distance
_geom_bond_site_symmetry_2
_ccdc_geom_bond_type
Fe0 O2 1.918 . S
Fe0 O5 1.997 . S
Fe0 O6 2.002 . S
Fe0 O11 1.976 . S
Fe0 O14 1.996 . S
Fe1 O2 1.918 1_556 S
Fe1 O9 1.997 . S
Fe1 O12 1.996 . S
Fe1 O16 1.976 . S
Fe1 O19 2.002 . S
O2 Fe0 1.918 . S
O2 Fe1 1.918 1_554 S
O2 Fe3 1.918 1_554 S
Fe3 O2 1.918 1_556 S
Fe3 O4 1.997 1_556 S
Fe3 O13 1.971 1_556 S
Fe3 O17 2.001 . S
Fe3 O20 2.002 . S
O4 Fe3 1.997 1_554 S
O4 C21 1.295 . S
O5 Fe0 1.997 . S
O5 C21 1.235 . S
O6 Fe0 2.002 . S
O6 C7 1.295 . S
C7 O6 1.295 . S
C7 O9 1.235 1_554 S
C8 O13 1.287 . S
C8 O14 1.255 . S
O9 Fe1 1.997 . S
O9 C7 1.235 1_556 S
C10 O16 1.287 . S
C10 O17 1.255 . S
O11 Fe0 1.976 . S
O11 C18 1.287 . S
O12 Fe1 1.996 . S
O12 C18 1.255 1_556 S
O13 Fe3 1.971 1_554 S
O13 C8 1.287 . S
O14 Fe0 1.996 . S
O14 C8 1.255 . S
C15 O19 1.295 . S
C15 O20 1.235 . S
O16 Fe1 1.976 . S
O16 C10 1.287 . S
O17 Fe3 2.001 . S
O17 C10 1.255 . S
C18 O11 1.287 . S
C18 O12 1.255 1_554 S
O19 Fe1 2.002 . S
O19 C15 1.295 . S
O20 Fe3 2.002 . S
O20 C15 1.235 . S
C21 O4 1.295 . S
C21 O5 1.235 . S
Fe22 O24 1.918 . S
Fe22 O27 1.997 . S
Fe22 O28 2.002 . S
Fe22 O33 1.976 . S
Fe22 O36 1.996 . S
Fe23 O24 1.918 . S
Fe23 O31 1.997 . S
Fe23 O34 1.996 . S
Fe23 O38 1.976 . S
Fe23 O41 2.002 . S
O24 Fe22 1.918 . S
O24 Fe23 1.918 . S
O24 Fe25 1.918 . S
Fe25 O24 1.918 . S
Fe25 O26 2.002 . S
Fe25 O35 1.976 . S
Fe25 O39 1.996 . S
Fe25 O42 1.997 . S
O26 Fe25 2.002 . S
O26 C43 1.295 . S
O27 Fe22 1.997 . S
O27 C43 1.235 . S
O28 Fe22 2.002 . S
O28 C29 1.295 . S
C29 O28 1.295 . S
C29 O31 1.235 . S
C30 O35 1.287 . S
C30 O36 1.255 . S
O31 Fe23 1.997 . S
O31 C29 1.235 . S
C32 O38 1.287 . S
C32 O39 1.255 . S
O33 Fe22 1.976 . S
O33 C40 1.287 . S
O34 Fe23 1.996 . S
O34 C40 1.255 . S
O35 Fe25 1.976 . S
O35 C30 1.287 . S
O36 Fe22 1.996 . S
O36 C30 1.255 . S
C37 O41 1.295 . S
C37 O42 1.235 . S
O38 Fe23 1.976 . S
O38 C32 1.287 . S
O39 Fe25 1.996 . S
O39 C32 1.255 . S
C40 O33 1.287 . S
C40 O34 1.255 . S
O41 Fe23 2.002 . S
O41 C37 1.295 . S
O42 Fe25 1.997 . S
O42 C37 1.235 . S
C43 O26 1.295 . S
C43 O27 1.235 . S
Fe44 O46 1.918 1_556 S
Fe44 O49 1.997 . S
Fe44 O50 2.002 . S
Fe44 O55 1.976 . S
Fe44 O58 1.996 . S
Fe45 O46 1.918 . S
Fe45 O53 1.997 . S
Fe45 O56 1.996 . S
Fe45 O60 1.976 . S
Fe45 O63 2.002 . S
O46 Fe44 1.918 1_554 S
O46 Fe45 1.918 . S
O46 Fe47 1.918 . S
Fe47 O46 1.918 . S
Fe47 O48 2.002 1_554 S
Fe47 O57 1.976 1_554 S
Fe47 O61 1.996 . S
Fe47 O64 1.997 . S
O48 Fe47 2.002 1_556 S
O48 C65 1.295 . S
O49 Fe44 1.997 . S
O49 C65 1.235 . S
O50 Fe44 2.002 . S
O50 C51 1.295 1_556 S
C51 O50 1.295 1_554 S
C51 O53 1.235 . S
C52 O57 1.287 . S
C52 O58 1.255 . S
O53 Fe45 1.997 . S
O53 C51 1.235 . S
C54 O60 1.287 . S
C54 O61 1.255 . S
O55 Fe44 1.976 . S
O55 C62 1.287 1_556 S
O56 Fe45 1.996 . S
O56 C62 1.255 . S
O57 Fe47 1.976 1_556 S
O57 C52 1.287 . S
O58 Fe44 1.996 . S
O58 C52 1.255 . S
C59 O63 1.295 . S
C59 O64 1.235 . S
O60 Fe45 1.976 . S
O60 C54 1.287 . S
O61 Fe47 1.996 . S
O61 C54 1.255 . S
C62 O55 1.287 1_554 S
C62 O56 1.255 . S
O63 Fe45 2.002 . S
O63 C59 1.295 . S
O64 Fe47 1.997 . S
O64 C59 1.235 . S
C65 O48 1.295 . S
C65 O49 1.235 . S
Fe66 O68 1.918 . S
Fe66 O71 1.997 . S
Fe66 O72 2.002 . S
Fe66 O77 1.976 . S
Fe66 O80 1.996 . S
Fe67 O68 1.918 . S
Fe67 O75 1.997 . S
Fe67 O78 1.996 . S
Fe67 O82 1.976 . S
Fe67 O85 2.002 . S
O68 Fe66 1.918 . S
O68 Fe67 1.918 . S
O68 Fe69 1.918 . S
Fe69 O68 1.918 . S
Fe69 O70 2.002 . S
Fe69 O79 1.976 . S
Fe69 O83 1.996 . S
Fe69 O86 1.997 . S
O70 Fe69 2.002 . S
O70 C87 1.295 . S
O71 Fe66 1.997 . S
O71 C87 1.235 . S
O72 Fe66 2.002 . S
O72 C73 1.295 . S
C73 O72 1.295 . S
C73 O75 1.235 . S
C74 O79 1.287 . S
C74 O80 1.255 . S
O75 Fe67 1.997 . S
O75 C73 1.235 . S
C76 O82 1.287 . S
C76 O83 1.255 . S
O77 Fe66 1.976 . S
O77 C84 1.287 . S
O78 Fe67 1.996 . S
O78 C84 1.255 . S
O79 Fe69 1.976 . S
O79 C74 1.287 . S
O80 Fe66 1.996 . S
O80 C74 1.255 . S
C81 O85 1.295 . S
C81 O86 1.235 . S
O82 Fe67 1.976 . S
O82 C76 1.287 . S
O83 Fe69 1.996 . S
O83 C76 1.255 . S
C84 O77 1.287 . S
C84 O78 1.255 . S
O85 Fe67 2.002 . S
O85 C81 1.295 . S
O86 Fe69 1.997 . S
O86 C81 1.235 . S
C87 O70 1.295 . S
C87 O71 1.235 . S
H88 C93 0.929 . S
H89 C98 0.931 . S
H90 C96 0.930 . S
N91 N92 1.234 1_556 S
N91 C95 1.453 . S
N92 N91 1.234 1_554 S
C93 H88 0.929 . S
C93 C94 1.373 . S
C93 C95 1.368 . S
C94 C93 1.373 . S
C94 C98 1.397 1_556 S
C95 N91 1.453 . S
C95 C93 1.368 . S
C95 C96 1.373 1_556 S
C96 H90 0.930 . S
C96 C95 1.373 1_554 S
C96 C97 1.371 . S
C97 C96 1.371 . S
C97 C98 1.383 . S
C98 H89 0.931 . S
C98 C94 1.397 1_554 S
C98 C97 1.383 . S
H99 C104 0.929 . S
H100 C109 0.931 . S
H101 C107 0.918 1_455 S
N102 N103 1.234 . S
N102 C106 1.453 . S
N103 N102 1.234 . S
C104 H99 0.929 . S
C104 C105 1.373 . S
C104 C106 1.368 1_655 S
C105 C104 1.373 . S
C105 C109 1.397 . S
C106 N102 1.453 . S
C106 C104 1.368 1_455 S
C106 C107 1.373 1_455 S
C107 H101 0.918 1_655 S
C107 C106 1.373 1_655 S
C107 C108 1.371 . S
C108 C107 1.371 . S
C108 C109 1.383 . S
C109 H100 0.931 . S
C109 C105 1.397 . S
C109 C108 1.383 . S
H110 C115 0.929 . S
H111 C120 0.931 . S
H112 C118 0.930 . S
N113 N114 1.234 . S
N113 C117 1.453 . S
N114 N113 1.234 . S
C115 H110 0.929 . S
C115 C116 1.373 . S
C115 C117 1.368 . S
C116 C115 1.373 . S
C116 C120 1.397 . S
C117 N113 1.453 . S
C117 C115 1.368 . S
C117 C118 1.373 1_554 S
C118 H112 0.930 . S
C118 C117 1.373 1_556 S
C118 C119 1.371 . S
C119 C118 1.371 . S
C119 C120 1.383 1_556 S
C120 H111 0.931 . S
C120 C116 1.397 . S
C120 C119 1.383 1_554 S
H121 C126 0.929 . S
H122 C131 0.931 . S
H123 C129 0.915 1_655 S
N124 N125 1.234 . S
N124 C128 1.453 . S
N125 N124 1.234 . S
C126 H121 0.929 . S
C126 C127 1.373 . S
C126 C128 1.368 1_455 S
C127 C126 1.373 . S
C127 C131 1.397 . S
C128 N124 1.453 . S
C128 C126 1.368 1_655 S
C128 C129 1.373 1_655 S
C129 H123 0.915 1_455 S
C129 C128 1.373 1_455 S
C129 C130 1.371 . S
C130 C129 1.371 . S
C130 C131 1.383 . S
C131 H122 0.931 . S
C131 C127 1.397 . S
C131 C130 1.383 . S
H132 C137 0.929 . S
H133 C142 0.931 . S
H134 C140 0.930 1_545 S
N135 N136 1.234 . S
N135 C139 1.453 . S
N136 N135 1.234 . S
C137 H132 0.929 . S
C137 C138 1.373 . S
C137 C139 1.368 1_565 S
C138 C137 1.373 . S
C138 C142 1.397 . S
C139 N135 1.453 . S
C139 C137 1.368 1_545 S
C139 C140 1.373 1_545 S
C140 H134 0.930 1_565 S
C140 C139 1.373 1_565 S
C140 C141 1.371 . S
C141 C140 1.371 . S
C141 C142 1.383 . S
C142 H133 0.931 . S
C142 C138 1.397 . S
C142 C141 1.383 . S
H143 C148 0.929 . S
H144 C153 0.931 . S
H145 C151 0.930 . S
N146 N147 1.234 1_556 S
N146 C150 1.453 . S
N147 N146 1.234 1_554 S
C148 H143 0.929 . S
C148 C149 1.373 . S
C148 C150 1.368 . S
C149 C148 1.373 . S
C149 C153 1.397 1_556 S
C150 N146 1.453 . S
C150 C148 1.368 . S
C150 C151 1.373 1_556 S
C151 H145 0.930 . S
C151 C150 1.373 1_554 S
C151 C152 1.371 . S
C152 C151 1.371 . S
C152 C153 1.383 . S
C153 H144 0.931 . S
C153 C149 1.397 1_554 S
C153 C152 1.383 . S
H154 C159 0.929 . S
H155 C164 0.931 . S
H156 C162 0.930 1_565 S
N157 N158 1.234 . S
N157 C161 1.453 . S
N158 N157 1.234 . S
C159 H154 0.929 . S
C159 C160 1.373 . S
C159 C161 1.368 1_545 S
C160 C159 1.373 . S
C160 C164 1.397 . S
C161 N157 1.453 . S
C161 C159 1.368 1_565 S
C161 C162 1.373 1_565 S
C162 H156 0.930 1_545 S
C162 C161 1.373 1_545 S
C162 C163 1.371 . S
C163 C162 1.371 . S
C163 C164 1.383 . S
C164 H155 0.931 . S
C164 C160 1.397 . S
C164 C163 1.383 . S
H165 C170 0.929 . S
H166 C175 0.931 . S
H167 C173 0.930 . S
N168 N169 1.234 1_554 S
N168 C172 1.453 . S
N169 N168 1.234 1_556 S
C170 H165 0.929 . S
C170 C171 1.373 . S
C170 C172 1.368 . S
C171 C170 1.373 . S
C171 C175 1.397 . S
C172 N168 1.453 . S
C172 C170 1.368 . S
C172 C173 1.373 1_554 S
C173 H167 0.930 . S
C173 C172 1.373 1_556 S
C173 C174 1.371 . S
C174 C173 1.371 . S
C174 C175 1.383 1_556 S
C175 H166 0.931 . S
C175 C171 1.397 . S
C175 C174 1.383 1_554 S
C176 C177 1.363 . S
C176 C182 1.379 . S
C176 N184 1.356 . S
C177 C176 1.363 . S
C177 C183 1.363 . S
C178 C179 1.363 . S
C178 C183 1.379 . S
C178 N185 1.356 . S
C179 C178 1.363 . S
C179 C182 1.363 . S
N180 C182 1.356 . S
N180 H192 0.984 . S
N180 H193 0.985 . S
N181 C183 1.356 . S
N181 H186 0.984 . S
N181 H187 0.985 . S
C182 C176 1.379 . S
C182 C179 1.363 . S
C182 N180 1.356 . S
C183 C177 1.363 . S
C183 C178 1.379 . S
C183 N181 1.356 . S
N184 C176 1.356 . S
N184 H190 0.984 . S
N184 H191 0.984 . S
N185 C178 1.356 . S
N185 H188 0.984 . S
N185 H189 0.985 . S
H186 N181 0.984 . S
H187 N181 0.985 . S
H188 N185 0.984 . S
H189 N185 0.985 . S
H190 N184 0.984 . S
H191 N184 0.984 . S
H192 N180 0.984 . S
H193 N180 0.985 . S
C194 C195 1.363 . S
C194 C200 1.379 . S
C194 N202 1.356 . S
C195 C194 1.363 . S
C195 C201 1.363 . S
C196 C197 1.363 . S
C196 C201 1.379 . S
C196 N203 1.356 . S
C197 C196 1.363 . S
C197 C200 1.363 . S
N198 C200 1.356 . S
N198 H210 0.984 . S
N198 H211 0.985 . S
N199 C201 1.356 . S
N199 H204 0.984 . S
N199 H205 0.985 . S
C200 C194 1.379 . S
C200 C197 1.363 . S
C200 N198 1.356 . S
C201 C195 1.363 . S
C201 C196 1.379 . S
C201 N199 1.356 . S
N202 C194 1.356 . S
N202 H208 0.984 . S
N202 H209 0.984 . S
N203 C196 1.356 . S
N203 H206 0.984 . S
N203 H207 0.985 . S
H204 N199 0.984 . S
H205 N199 0.985 . S
H206 N203 0.984 . S
H207 N203 0.985 . S
H208 N202 0.984 . S
H209 N202 0.984 . S
H210 N198 0.984 . S
H211 N198 0.985 . S
C212 C213 1.363 . S
C212 C218 1.379 . S
C212 N220 1.356 . S
C213 C212 1.363 . S
C213 C219 1.363 . S
C214 C215 1.363 . S
C214 C219 1.379 . S
C214 N221 1.356 . S
C215 C214 1.363 . S
C215 C218 1.363 . S
N216 C218 1.356 . S
N216 H228 0.984 . S
N216 H229 0.985 . S
N217 C219 1.356 . S
N217 H222 0.984 . S
N217 H223 0.985 . S
C218 C212 1.379 . S
C218 C215 1.363 . S
C218 N216 1.356 . S
C219 C213 1.363 . S
C219 C214 1.379 . S
C219 N217 1.356 . S
N220 C212 1.356 . S
N220 H226 0.984 . S
N220 H227 0.984 . S
N221 C214 1.356 . S
N221 H224 0.984 . S
N221 H225 0.985 . S
H222 N217 0.984 . S
H223 N217 0.985 . S
H224 N221 0.984 . S
H225 N221 0.985 . S
H226 N220 0.984 . S
H227 N220 0.984 . S
H228 N216 0.984 . S
H229 N216 0.985 . S
C230 C231 1.363 . S
C230 C236 1.379 . S
C230 N238 1.356 . S
C231 C230 1.363 . S
C231 C237 1.363 . S
C232 C233 1.363 . S
C232 C237 1.379 . S
C232 N239 1.356 . S
C233 C232 1.363 . S
C233 C236 1.363 . S
N234 C236 1.356 . S
N234 H246 0.984 . S
N234 H247 0.985 . S
N235 C237 1.356 . S
N235 H240 0.984 . S
N235 H241 0.985 . S
C236 C230 1.379 . S
C236 C233 1.363 . S
C236 N234 1.356 . S
C237 C231 1.363 . S
C237 C232 1.379 . S
C237 N235 1.356 . S
N238 C230 1.356 . S
N238 H244 0.984 . S
N238 H245 0.984 . S
N239 C232 1.356 . S
N239 H242 0.984 . S
N239 H243 0.985 . S
H240 N235 0.984 . S
H241 N235 0.985 . S
H242 N239 0.984 . S
H243 N239 0.985 . S
H244 N238 0.984 . S
H245 N238 0.984 . S
H246 N234 0.984 . S
H247 N234 0.985 . S
C248 C249 1.363 . S
C248 C254 1.379 . S
C248 N256 1.356 . S
C249 C248 1.363 . S
C249 C255 1.363 . S
C250 C251 1.363 . S
C250 C255 1.379 . S
C250 N257 1.356 . S
C251 C250 1.363 . S
C251 C254 1.363 . S
N252 C254 1.356 . S
N252 H264 0.984 . S
N252 H265 0.985 . S
N253 C255 1.356 . S
N253 H258 0.984 . S
N253 H259 0.985 . S
C254 C248 1.379 . S
C254 C251 1.363 . S
C254 N252 1.356 . S
C255 C249 1.363 . S
C255 C250 1.379 . S
C255 N253 1.356 . S
N256 C248 1.356 . S
N256 H262 0.984 . S
N256 H263 0.984 . S
N257 C250 1.356 . S
N257 H260 0.984 . S
N257 H261 0.985 . S
H258 N253 0.984 . S
H259 N253 0.985 . S
H260 N257 0.984 . S
H261 N257 0.985 . S
H262 N256 0.984 . S
H263 N256 0.984 . S
H264 N252 0.984 . S
H265 N252 0.985 . S
C266 C267 1.363 . S
C266 C272 1.379 . S
C266 N274 1.356 . S
C267 C266 1.363 . S
C267 C273 1.363 . S
C268 C269 1.363 . S
C268 C273 1.379 . S
C268 N275 1.356 . S
C269 C268 1.363 . S
C269 C272 1.363 . S
N270 C272 1.356 . S
N270 H282 0.984 . S
N270 H283 0.985 . S
N271 C273 1.356 . S
N271 H276 0.984 . S
N271 H277 0.985 . S
C272 C266 1.379 . S
C272 C269 1.363 . S
C272 N270 1.356 . S
C273 C267 1.363 . S
C273 C268 1.379 . S
C273 N271 1.356 . S
N274 C266 1.356 . S
N274 H280 0.984 . S
N274 H281 0.984 . S
N275 C268 1.356 . S
N275 H278 0.984 . S
N275 H279 0.985 . S
H276 N271 0.984 . S
H277 N271 0.985 . S
H278 N275 0.984 . S
H279 N275 0.985 . S
H280 N274 0.984 . S
H281 N274 0.984 . S
H282 N270 0.984 . S
H283 N270 0.985 . S
C284 C285 1.363 . S
C284 C290 1.379 . S
C284 N292 1.356 . S
C285 C284 1.363 . S
C285 C291 1.363 . S
C286 C287 1.363 . S
C286 C291 1.379 . S
C286 N293 1.356 . S
C287 C286 1.363 . S
C287 C290 1.363 . S
N288 C290 1.356 . S
N288 H300 0.984 . S
N288 H301 0.985 . S
N289 C291 1.356 . S
N289 H294 0.984 . S
N289 H295 0.985 . S
C290 C284 1.379 . S
C290 C287 1.363 . S
C290 N288 1.356 . S
C291 C285 1.363 . S
C291 C286 1.379 . S
C291 N289 1.356 . S
N292 C284 1.356 . S
N292 H298 0.984 . S
N292 H299 0.984 . S
N293 C286 1.356 . S
N293 H296 0.984 . S
N293 H297 0.985 . S
H294 N289 0.984 . S
H295 N289 0.985 . S
H296 N293 0.984 . S
H297 N293 0.985 . S
H298 N292 0.984 . S
H299 N292 0.984 . S
H300 N288 0.984 . S
H301 N288 0.985 . S
C302 C303 1.363 . S
C302 C308 1.379 . S
C302 N310 1.356 . S
C303 C302 1.363 . S
C303 C309 1.363 . S
C304 C305 1.363 . S
C304 C309 1.379 . S
C304 N311 1.356 . S
C305 C304 1.363 . S
C305 C308 1.363 . S
N306 C308 1.356 . S
N306 H318 0.984 . S
N306 H319 0.985 . S
N307 C309 1.356 . S
N307 H312 0.984 . S
N307 H313 0.985 . S
C308 C302 1.379 . S
C308 C305 1.363 . S
C308 N306 1.356 . S
C309 C303 1.363 . S
C309 C304 1.379 . S
C309 N307 1.356 . S
N310 C302 1.356 . S
N310 H316 0.984 . S
N310 H317 0.984 . S
N311 C304 1.356 . S
N311 H314 0.984 . S
N311 H315 0.985 . S
H312 N307 0.984 . S
H313 N307 0.985 . S
H314 N311 0.984 . S
H315 N311 0.985 . S
H316 N310 0.984 . S
H317 N310 0.984 . S
H318 N306 0.984 . S
H319 N306 0.985 . S
C320 C321 1.363 . S
C320 C326 1.379 . S
C320 N328 1.356 . S
C321 C320 1.363 . S
C321 C327 1.363 . S
C322 C323 1.363 . S
C322 C327 1.379 . S
C322 N329 1.356 . S
C323 C322 1.363 . S
C323 C326 1.363 . S
N324 C326 1.356 . S
N324 H336 0.984 . S
N324 H337 0.985 . S
N325 C327 1.356 . S
N325 H330 0.984 . S
N325 H331 0.985 . S
C326 C320 1.379 . S
C326 C323 1.363 . S
C326 N324 1.356 . S
C327 C321 1.363 . S
C327 C322 1.379 . S
C327 N325 1.356 . S
N328 C320 1.356 . S
N328 H334 0.984 . S
N328 H335 0.984 . S
N329 C322 1.356 . S
N329 H332 0.984 . S
N329 H333 0.985 . S
H330 N325 0.984 . S
H331 N325 0.985 . S
H332 N329 0.984 . S
H333 N329 0.985 . S
H334 N328 0.984 . S
H335 N328 0.984 . S
H336 N324 0.984 . S
H337 N324 0.985 . S
C338 C339 1.363 . S
C338 C344 1.379 . S
C338 N346 1.356 . S
C339 C338 1.363 . S
C339 C345 1.363 . S
C340 C341 1.363 . S
C340 C345 1.379 . S
C340 N347 1.356 . S
C341 C340 1.363 . S
C341 C344 1.363 . S
N342 C344 1.356 . S
N342 H354 0.984 . S
N342 H355 0.985 . S
N343 C345 1.356 . S
N343 H348 0.984 . S
N343 H349 0.985 . S
C344 C338 1.379 . S
C344 C341 1.363 . S
C344 N342 1.356 . S
C345 C339 1.363 . S
C345 C340 1.379 . S
C345 N343 1.356 . S
N346 C338 1.356 . S
N346 H352 0.984 . S
N346 H353 0.984 . S
N347 C340 1.356 . S
N347 H350 0.984 . S
N347 H351 0.985 . S
H348 N343 0.984 . S
H349 N343 0.985 . S
H350 N347 0.984 . S
H351 N347 0.985 . S
H352 N346 0.984 . S
H353 N346 0.984 . S
H354 N342 0.984 . S
H355 N342 0.985 . S
C356 C357 1.363 . S
C356 C362 1.379 . S
C356 N364 1.356 . S
C357 C356 1.363 . S
C357 C363 1.363 . S
C358 C359 1.363 . S
C358 C363 1.379 . S
C358 N365 1.356 . S
C359 C358 1.363 . S
C359 C362 1.363 . S
N360 C362 1.356 . S
N360 H372 0.984 . S
N360 H373 0.985 . S
N361 C363 1.356 . S
N361 H366 0.984 . S
N361 H367 0.985 . S
C362 C356 1.379 . S
C362 C359 1.363 . S
C362 N360 1.356 . S
C363 C357 1.363 . S
C363 C358 1.379 . S
C363 N361 1.356 . S
N364 C356 1.356 . S
N364 H370 0.984 . S
N364 H371 0.984 . S
N365 C358 1.356 . S
N365 H368 0.984 . S
N365 H369 0.985 . S
H366 N361 0.984 . S
H367 N361 0.985 . S
H368 N365 0.984 . S
H369 N365 0.985 . S
H370 N364 0.984 . S
H371 N364 0.984 . S
H372 N360 0.984 . S
H373 N360 0.985 . S
C374 C375 1.363 . S
C374 C380 1.379 . S
C374 N382 1.356 . S
C375 C374 1.363 . S
C375 C381 1.363 . S
C376 C377 1.363 . S
C376 C381 1.379 . S
C376 N383 1.356 . S
C377 C376 1.363 . S
C377 C380 1.363 . S
N378 C380 1.356 . S
N378 H390 0.984 . S
N378 H391 0.985 . S
N379 C381 1.356 . S
N379 H384 0.984 . S
N379 H385 0.985 . S
C380 C374 1.379 . S
C380 C377 1.363 . S
C380 N378 1.356 . S
C381 C375 1.363 . S
C381 C376 1.379 . S
C381 N379 1.356 . S
N382 C374 1.356 . S
N382 H388 0.984 . S
N382 H389 0.984 . S
N383 C376 1.356 . S
N383 H386 0.984 . S
N383 H387 0.985 . S
H384 N379 0.984 . S
H385 N379 0.985 . S
H386 N383 0.984 . S
H387 N383 0.985 . S
H388 N382 0.984 . S
H389 N382 0.984 . S
H390 N378 0.984 . S
H391 N378 0.985 . S
C392 C393 1.363 . S
C392 C398 1.379 . S
C392 N400 1.356 . S
C393 C392 1.363 . S
C393 C399 1.363 . S
C394 C395 1.363 . S
C394 C399 1.379 . S
C394 N401 1.356 . S
C395 C394 1.363 . S
C395 C398 1.363 . S
N396 C398 1.356 . S
N396 H408 0.984 . S
N396 H409 0.985 . S
N397 C399 1.356 . S
N397 H402 0.984 . S
N397 H403 0.985 . S
C398 C392 1.379 . S
C398 C395 1.363 . S
C398 N396 1.356 . S
C399 C393 1.363 . S
C399 C394 1.379 . S
C399 N397 1.356 . S
N400 C392 1.356 . S
N400 H406 0.984 . S
N400 H407 0.984 . S
N401 C394 1.356 . S
N401 H404 0.984 . S
N401 H405 0.985 . S
H402 N397 0.984 . S
H403 N397 0.985 . S
H404 N401 0.984 . S
H405 N401 0.985 . S
H406 N400 0.984 . S
H407 N400 0.984 . S
H408 N396 0.984 . S
H409 N396 0.985 . S
C410 C411 1.363 . S
C410 C416 1.379 . S
C410 N418 1.356 . S
C411 C410 1.363 . S
C411 C417 1.363 . S
C412 C413 1.363 . S
C412 C417 1.379 . S
C412 N419 1.356 . S
C413 C412 1.363 . S
C413 C416 1.363 . S
N414 C416 1.356 . S
N414 H426 0.984 . S
N414 H427 0.985 . S
N415 C417 1.356 . S
N415 H420 0.984 . S
N415 H421 0.985 . S
C416 C410 1.379 . S
C416 C413 1.363 . S
C416 N414 1.356 . S
C417 C411 1.363 . S
C417 C412 1.379 . S
C417 N415 1.356 . S
N418 C410 1.356 . S
N418 H424 0.984 . S
N418 H425 0.984 . S
N419 C412 1.356 . S
N419 H422 0.984 . S
N419 H423 0.985 . S
H420 N415 0.984 . S
H421 N415 0.985 . S
H422 N419 0.984 . S
H423 N419 0.985 . S
H424 N418 0.984 . S
H425 N418 0.984 . S
H426 N414 0.984 . S
H427 N414 0.985 . S
C428 C429 1.363 . S
C428 C434 1.379 . S
C428 N436 1.356 . S
C429 C428 1.363 . S
C429 C435 1.363 . S
C430 C431 1.363 . S
C430 C435 1.379 . S
C430 N437 1.356 . S
C431 C430 1.363 . S
C431 C434 1.363 . S
N432 C434 1.356 . S
N432 H444 0.984 . S
N432 H445 0.985 . S
N433 C435 1.356 . S
N433 H438 0.984 . S
N433 H439 0.985 . S
C434 C428 1.379 . S
C434 C431 1.363 . S
C434 N432 1.356 . S
C435 C429 1.363 . S
C435 C430 1.379 . S
C435 N433 1.356 . S
N436 C428 1.356 . S
N436 H442 0.984 . S
N436 H443 0.984 . S
N437 C430 1.356 . S
N437 H440 0.984 . S
N437 H441 0.985 . S
H438 N433 0.984 . S
H439 N433 0.985 . S
H440 N437 0.984 . S
H441 N437 0.985 . S
H442 N436 0.984 . S
H443 N436 0.984 . S
H444 N432 0.984 . S
H445 N432 0.985 . S
C446 C447 1.363 . S
C446 C452 1.379 . S
C446 N454 1.356 . S
C447 C446 1.363 . S
C447 C453 1.363 . S
C448 C449 1.363 . S
C448 C453 1.379 . S
C448 N455 1.356 . S
C449 C448 1.363 . S
C449 C452 1.363 . S
N450 C452 1.356 . S
N450 H462 0.984 . S
N450 H463 0.985 . S
N451 C453 1.356 . S
N451 H456 0.984 . S
N451 H457 0.985 . S
C452 C446 1.379 . S
C452 C449 1.363 . S
C452 N450 1.356 . S
C453 C447 1.363 . S
C453 C448 1.379 . S
C453 N451 1.356 . S
N454 C446 1.356 . S
N454 H460 0.984 . S
N454 H461 0.984 . S
N455 C448 1.356 . S
N455 H458 0.984 . S
N455 H459 0.985 . S
H456 N451 0.984 . S
H457 N451 0.985 . S
H458 N455 0.984 . S
H459 N455 0.985 . S
H460 N454 0.984 . S
H461 N454 0.984 . S
H462 N450 0.984 . S
H463 N450 0.985 . S
C464 C465 1.363 . S
C464 C470 1.379 . S
C464 N472 1.356 . S
C465 C464 1.363 . S
C465 C471 1.363 1_554 S
C466 C467 1.363 1_556 S
C466 C471 1.379 . S
C466 N473 1.356 . S
C467 C466 1.363 1_554 S
C467 C470 1.363 . S
N468 C470 1.356 . S
N468 H480 0.984 . S
N468 H481 0.985 . S
N469 C471 1.356 . S
N469 H474 0.984 . S
N469 H475 0.985 . S
C470 C464 1.379 . S
C470 C467 1.363 . S
C470 N468 1.356 . S
C471 C465 1.363 1_556 S
C471 C466 1.379 . S
C471 N469 1.356 . S
N472 C464 1.356 . S
N472 H478 0.984 . S
N472 H479 0.984 . S
N473 C466 1.356 . S
N473 H476 0.984 . S
N473 H477 0.985 . S
H474 N469 0.984 . S
H475 N469 0.985 . S
H476 N473 0.984 . S
H477 N473 0.985 . S
H478 N472 0.984 . S
H479 N472 0.984 . S
H480 N468 0.984 . S
H481 N468 0.985 . S
C482 C483 1.363 . S
C482 C488 1.379 . S
C482 N490 1.356 . S
C483 C482 1.363 . S
C483 C489 1.363 . S
C484 C485 1.363 . S
C484 C489 1.379 . S
C484 N491 1.356 . S
C485 C484 1.363 . S
C485 C488 1.363 . S
N486 C488 1.356 . S
N486 H498 0.984 . S
N486 H499 0.985 . S
N487 C489 1.356 . S
N487 H492 0.984 . S
N487 H493 0.985 . S
C488 C482 1.379 . S
C488 C485 1.363 . S
C488 N486 1.356 . S
C489 C483 1.363 . S
C489 C484 1.379 . S
C489 N487 1.356 . S
N490 C482 1.356 . S
N490 H496 0.984 . S
N490 H497 0.984 . S
N491 C484 1.356 . S
N491 H494 0.984 . S
N491 H495 0.985 . S
H492 N487 0.984 . S
H493 N487 0.985 . S
H494 N491 0.984 . S
H495 N491 0.985 . S
H496 N490 0.984 . S
H497 N490 0.984 . S
H498 N486 0.984 . S
H499 N486 0.985 . S
C500 C501 1.363 . S
C500 C506 1.379 . S
C500 N508 1.356 . S
C501 C500 1.363 . S
C501 C507 1.363 1_554 S
C502 C503 1.363 1_556 S
C502 C507 1.379 . S
C502 N509 1.356 . S
C503 C502 1.363 1_554 S
C503 C506 1.363 . S
N504 C506 1.356 . S
N504 H516 0.984 . S
N504 H517 0.985 . S
N505 C507 1.356 . S
N505 H510 0.984 . S
N505 H511 0.985 . S
C506 C500 1.379 . S
C506 C503 1.363 . S
C506 N504 1.356 . S
C507 C501 1.363 1_556 S
C507 C502 1.379 . S
C507 N505 1.356 . S
N508 C500 1.356 . S
N508 H514 0.984 . S
N508 H515 0.984 . S
N509 C502 1.356 . S
N509 H512 0.984 . S
N509 H513 0.985 . S
H510 N505 0.984 . S
H511 N505 0.985 . S
H512 N509 0.984 . S
H513 N509 0.985 . S
H514 N508 0.984 . S
H515 N508 0.984 . S
H516 N504 0.984 . S
H517 N504 0.985 . S
C518 C519 1.363 . S
C518 C524 1.379 . S
C518 N526 1.356 . S
C519 C518 1.363 . S
C519 C525 1.363 . S
C520 C521 1.363 . S
C520 C525 1.379 . S
C520 N527 1.356 . S
C521 C520 1.363 . S
C521 C524 1.363 . S
N522 C524 1.356 . S
N522 H534 0.984 . S
N522 H535 0.985 . S
N523 C525 1.356 . S
N523 H528 0.984 . S
N523 H529 0.985 . S
C524 C518 1.379 . S
C524 C521 1.363 . S
C524 N522 1.356 . S
C525 C519 1.363 . S
C525 C520 1.379 . S
C525 N523 1.356 . S
N526 C518 1.356 . S
N526 H532 0.984 . S
N526 H533 0.984 . S
N527 C520 1.356 . S
N527 H530 0.984 . S
N527 H531 0.985 . S
H528 N523 0.984 . S
H529 N523 0.985 . S
H530 N527 0.984 . S
H531 N527 0.985 . S
H532 N526 0.984 . S
H533 N526 0.984 . S
H534 N522 0.984 . S
H535 N522 0.985 . S
C536 C537 1.363 . S
C536 C542 1.379 . S
C536 N544 1.356 . S
C537 C536 1.363 . S
C537 C543 1.363 . S
C538 C539 1.363 . S
C538 C543 1.379 . S
C538 N545 1.356 . S
C539 C538 1.363 . S
C539 C542 1.363 . S
N540 C542 1.356 . S
N540 H552 0.984 . S
N540 H553 0.985 . S
N541 C543 1.356 . S
N541 H546 0.984 . S
N541 H547 0.985 . S
C542 C536 1.379 . S
C542 C539 1.363 . S
C542 N540 1.356 . S
C543 C537 1.363 . S
C543 C538 1.379 . S
C543 N541 1.356 . S
N544 C536 1.356 . S
N544 H550 0.984 . S
N544 H551 0.984 . S
N545 C538 1.356 . S
N545 H548 0.984 . S
N545 H549 0.985 . S
H546 N541 0.984 . S
H547 N541 0.985 . S
H548 N545 0.984 . S
H549 N545 0.985 . S
H550 N544 0.984 . S
H551 N544 0.984 . S
H552 N540 0.984 . S
H553 N540 0.985 . S
C554 C555 1.363 1_556 S
C554 C560 1.379 . S
C554 N562 1.356 . S
C555 C554 1.363 1_554 S
C555 C561 1.363 . S
C556 C557 1.363 . S
C556 C561 1.379 . S
C556 N563 1.356 . S
C557 C556 1.363 . S
C557 C560 1.363 1_554 S
N558 C560 1.356 . S
N558 H570 0.984 . S
N558 H571 0.985 . S
N559 C561 1.356 . S
N559 H564 0.984 . S
N559 H565 0.985 . S
C560 C554 1.379 . S
C560 C557 1.363 1_556 S
C560 N558 1.356 . S
C561 C555 1.363 . S
C561 C556 1.379 . S
C561 N559 1.356 . S
N562 C554 1.356 . S
N562 H568 0.984 . S
N562 H569 0.984 . S
N563 C556 1.356 . S
N563 H566 0.984 . S
N563 H567 0.985 . S
H564 N559 0.984 . S
H565 N559 0.985 . S
H566 N563 0.984 . S
H567 N563 0.985 . S
H568 N562 0.984 . S
H569 N562 0.984 . S
H570 N558 0.984 . S
H571 N558 0.985 . S
C572 C573 1.363 . S
C572 C578 1.379 . S
C572 N580 1.356 . S
C573 C572 1.363 . S
C573 C579 1.363 . S
C574 C575 1.363 . S
C574 C579 1.379 . S
C574 N581 1.356 . S
C575 C574 1.363 . S
C575 C578 1.363 . S
N576 C578 1.356 . S
N576 H588 0.984 . S
N576 H589 0.985 . S
N577 C579 1.356 . S
N577 H582 0.984 . S
N577 H583 0.985 . S
C578 C572 1.379 . S
C578 C575 1.363 . S
C578 N576 1.356 . S
C579 C573 1.363 . S
C579 C574 1.379 . S
C579 N577 1.356 . S
N580 C572 1.356 . S
N580 H586 0.984 . S
N580 H587 0.984 . S
N581 C574 1.356 . S
N581 H584 0.984 . S
N581 H585 0.985 . S
H582 N577 0.984 . S
H583 N577 0.985 . S
H584 N581 0.984 . S
H585 N581 0.985 . S
H586 N580 0.984 . S
H587 N580 0.984 . S
H588 N576 0.984 . S
H589 N576 0.985 . S
C590 C591 1.363 . S
C590 C596 1.379 . S
C590 N598 1.356 . S
C591 C590 1.363 . S
C591 C597 1.363 1_554 S
C592 C593 1.363 1_556 S
C592 C597 1.379 . S
C592 N599 1.356 . S
C593 C592 1.363 1_554 S
C593 C596 1.363 . S
N594 C596 1.356 . S
N594 H606 0.984 . S
N594 H607 0.985 . S
N595 C597 1.356 . S
N595 H600 0.984 . S
N595 H601 0.985 . S
C596 C590 1.379 . S
C596 C593 1.363 . S
C596 N594 1.356 . S
C597 C591 1.363 1_556 S
C597 C592 1.379 . S
C597 N595 1.356 . S
N598 C590 1.356 . S
N598 H604 0.984 . S
N598 H605 0.984 . S
N599 C592 1.356 . S
N599 H602 0.984 . S
N599 H603 0.985 . S
H600 N595 0.984 . S
H601 N595 0.985 . S
H602 N599 0.984 . S
H603 N599 0.985 . S
H604 N598 0.984 . S
H605 N598 0.984 . S
H606 N594 0.984 . S
H607 N594 0.985 . S
C177 C21 1.482 . S
C179 C127 1.492 . S
C195 C40 1.506 . S
C197 C94 1.496 . S
C215 C108 1.457 . S
C213 C54 1.484 . S
C231 C73 1.532 . S
C233 C119 1.505 . S
C251 C152 1.449 . S
C249 C74 1.473 . S
C269 C163 1.484 . S
C267 C10 1.528 . S
C287 C171 1.500 . S
C285 C37 1.494 . S
C305 C138 1.515 . S
C303 C65 1.510 . S
C321 C52 1.451 . S
C323 C105 1.451 . S
C339 C87 1.522 . S
C341 C116 1.510 . S
C357 C15 1.519 . S
C359 C130 1.501 . S
C377 C97 1.477 . S
C375 C32 1.510 . S
C393 C29 1.506 . S
C395 C174 1.493 . S
C413 C141 1.520 . S
C411 C59 1.544 . S
C431 C149 1.457 . S
C429 C84 1.459 . S
C447 C8 1.487 . S
C449 C160 1.469 . S
C467 N92 1.528 . S
C465 C7 1.541 . S
C485 N103 1.489 . S
C483 C30 1.494 . S
C501 C62 1.547 . S
C503 N114 1.535 . S
C519 C81 1.503 . S
C521 N125 1.513 . S
C539 N136 1.525 . S
C537 C76 1.547 . S
C555 C18 1.494 . S
C557 N147 1.489 . S
C573 C43 1.541 . S
C575 N158 1.535 . S
C591 C51 1.503 . S
C593 N169 1.513 1_554 S
