# Generated by pormake.
# Topology pto, (3,4)-cn, num edge types: 1
# Building blocks:
#     Node 0, Type 0, BuildingBlock: BELTOD_clean_linker_0, # of connection points: 3
#     Node 1, Type 0, BuildingBlock: BELTOD_clean_linker_0, # of connection points: 3
#     Node 2, Type 0, BuildingBlock: BELTOD_clean_linker_0, # of connection points: 3
#     Node 3, Type 0, BuildingBlock: BELTOD_clean_linker_0, # of connection points: 3
#     Node 4, Type 0, BuildingBlock: BELTOD_clean_linker_0, # of connection points: 3
#     Node 5, Type 0, BuildingBlock: BELTOD_clean_linker_0, # of connection points: 3
#     Node 6, Type 0, BuildingBlock: BELTOD_clean_linker_0, # of connection points: 3
#     Node 7, Type 0, BuildingBlock: BELTOD_clean_linker_0, # of connection points: 3
#     Node 8, Type 1, BuildingBlock: KOZSID_clean_sbu_0, # of connection points: 4
#     Node 9, Type 1, BuildingBlock: KOZSID_clean_sbu_0, # of connection points: 4
#     Node 10, Type 1, BuildingBlock: KOZSID_clean_sbu_0, # of connection points: 4
#     Node 11, Type 1, BuildingBlock: KOZSID_clean_sbu_0, # of connection points: 4
#     Node 12, Type 1, BuildingBlock: KOZSID_clean_sbu_0, # of connection points: 4
#     Node 13, Type 1, BuildingBlock: KOZSID_clean_sbu_0, # of connection points: 4
#     Edge 14, Type (0, 1), BuildingBlock: ZUJKAS_clean_linker_0, # of connection points: 2
#     Edge 15, Type (0, 1), BuildingBlock: ZUJKAS_clean_linker_0, # of connection points: 2
#     Edge 16, Type (0, 1), BuildingBlock: ZUJKAS_clean_linker_0, # of connection points: 2
#     Edge 17, Type (0, 1), BuildingBlock: ZUJKAS_clean_linker_0, # of connection points: 2
#     Edge 18, Type (0, 1), BuildingBlock: ZUJKAS_clean_linker_0, # of connection points: 2
#     Edge 19, Type (0, 1), BuildingBlock: ZUJKAS_clean_linker_0, # of connection points: 2
#     Edge 20, Type (0, 1), BuildingBlock: ZUJKAS_clean_linker_0, # of connection points: 2
#     Edge 21, Type (0, 1), BuildingBlock: ZUJKAS_clean_linker_0, # of connection points: 2
#     Edge 22, Type (0, 1), BuildingBlock: ZUJKAS_clean_linker_0, # of connection points: 2
#     Edge 23, Type (0, 1), BuildingBlock: ZUJKAS_clean_linker_0, # of connection points: 2
#     Edge 24, Type (0, 1), BuildingBlock: ZUJKAS_clean_linker_0, # of connection points: 2
#     Edge 25, Type (0, 1), BuildingBlock: ZUJKAS_clean_linker_0, # of connection points: 2
#     Edge 26, Type (0, 1), BuildingBlock: ZUJKAS_clean_linker_0, # of connection points: 2
#     Edge 27, Type (0, 1), BuildingBlock: ZUJKAS_clean_linker_0, # of connection points: 2
#     Edge 28, Type (0, 1), BuildingBlock: ZUJKAS_clean_linker_0, # of connection points: 2
#     Edge 29, Type (0, 1), BuildingBlock: ZUJKAS_clean_linker_0, # of connection points: 2
#     Edge 30, Type (0, 1), BuildingBlock: ZUJKAS_clean_linker_0, # of connection points: 2
#     Edge 31, Type (0, 1), BuildingBlock: ZUJKAS_clean_linker_0, # of connection points: 2
#     Edge 32, Type (0, 1), BuildingBlock: ZUJKAS_clean_linker_0, # of connection points: 2
#     Edge 33, Type (0, 1), BuildingBlock: ZUJKAS_clean_linker_0, # of connection points: 2
#     Edge 34, Type (0, 1), BuildingBlock: ZUJKAS_clean_linker_0, # of connection points: 2
#     Edge 35, Type (0, 1), BuildingBlock: ZUJKAS_clean_linker_0, # of connection points: 2
#     Edge 36, Type (0, 1), BuildingBlock: ZUJKAS_clean_linker_0, # of connection points: 2
#     Edge 37, Type (0, 1), BuildingBlock: ZUJKAS_clean_linker_0, # of connection points: 2
# Relax obj value: 0.000
# Max RMSD: 0.024
# Mean RMSD: 0.009
data_MOF--net-pto--node1-KOZSID_clean_sbu_0--node2-BELTOD_clean_linker_0--edge1-ZUJKAS_clean_linker_0
_symmetry_space_group_name_H-M    P1
_symmetry_Int_Tables_number       1
_symmetry_cell_setting            triclinic
loop_
_symmetry_equiv_pos_as_xyz
'x, y, z'
_cell_length_a     54.054441
_cell_length_b     73.311204
_cell_length_c     63.63859
_cell_angle_alpha  87.422664
_cell_angle_beta   89.724723
_cell_angle_gamma 94.547543
loop_
_atom_site_label
_atom_site_type_symbol
_atom_site_fract_x
_atom_site_fract_y
_atom_site_fract_z
_atom_type_partial_charge
P0 P 0.30841 0.27918 0.32869 0.0
H1 H 0.34305 0.30155 0.30133 0.0
H2 H 0.35941 0.29764 0.26609 0.0
H3 H 0.31405 0.24659 0.26283 0.0
H4 H 0.29801 0.25051 0.29819 0.0
H5 H 0.2813 0.29381 0.36268 0.0
H6 H 0.24952 0.31571 0.36362 0.0
H7 H 0.24916 0.3194 0.29564 0.0
H8 H 0.28117 0.29771 0.29486 0.0
H9 H 0.33421 0.25353 0.35528 0.0
H10 H 0.26092 0.2568 0.32965 0.0
O11 O 0.33172 0.28887 0.34247 0.0
H12 H 0.32106 0.22397 0.37277 0.0
H13 H 0.24754 0.22718 0.34722 0.0
C14 C 0.31974 0.27615 0.30253 0.0
C15 C 0.3367 0.28949 0.29304 0.0
C16 C 0.34587 0.28731 0.27283 0.0
C17 C 0.33812 0.27175 0.26168 0.0
C18 C 0.32069 0.25858 0.27113 0.0
C19 C 0.31146 0.26082 0.29134 0.0
C20 C 0.28369 0.29423 0.32875 0.0
C21 C 0.27425 0.29927 0.348 0.0
C22 C 0.25599 0.31171 0.34849 0.0
C23 C 0.24685 0.31936 0.32969 0.0
C24 C 0.25606 0.31396 0.3104 0.0
C25 C 0.27431 0.30148 0.30993 0.0
C26 C 0.2984 0.25748 0.34155 0.0
C27 C 0.31522 0.24794 0.35357 0.0
C28 C 0.30767 0.23106 0.36359 0.0
C29 C 0.2832 0.22332 0.36152 0.0
C30 C 0.26652 0.23277 0.34905 0.0
C31 C 0.27408 0.24973 0.33914 0.0
P32 P 0.28045 0.7586 0.70287 0.0
H33 H 0.26805 0.73089 0.67229 0.0
H34 H 0.23632 0.70527 0.67175 0.0
H35 H 0.20743 0.72078 0.73126 0.0
H36 H 0.23905 0.74662 0.73146 0.0
H37 H 0.30547 0.79513 0.69979 0.0
H38 H 0.29415 0.82426 0.68394 0.0
H39 H 0.22304 0.79842 0.6665 0.0
H40 H 0.23454 0.76929 0.68232 0.0
H41 H 0.31108 0.73576 0.72846 0.0
H42 H 0.27308 0.78463 0.73602 0.0
O43 O 0.30412 0.75327 0.68801 0.0
H44 H 0.32733 0.73793 0.76415 0.0
H45 H 0.28951 0.78701 0.77166 0.0
C46 C 0.25618 0.74038 0.70213 0.0
C47 C 0.25489 0.72877 0.68522 0.0
C48 C 0.23679 0.71409 0.68497 0.0
C49 C 0.21953 0.71083 0.7016 0.0
C50 C 0.22038 0.72294 0.71818 0.0
C51 C 0.23854 0.73763 0.7184 0.0
C52 C 0.27078 0.78012 0.69245 0.0
C53 C 0.28733 0.7958 0.69277 0.0
C54 C 0.28079 0.81245 0.68378 0.0
C55 C 0.25765 0.81366 0.67404 0.0
C56 C 0.24105 0.79789 0.67378 0.0
C57 C 0.24756 0.78124 0.68293 0.0
C58 C 0.29143 0.76027 0.72942 0.0
C59 C 0.30629 0.74698 0.7378 0.0
C60 C 0.31541 0.74817 0.75823 0.0
C61 C 0.30982 0.76272 0.77063 0.0
C62 C 0.29442 0.7758 0.76234 0.0
C63 C 0.28507 0.77447 0.74196 0.0
P64 P 0.81118 0.77518 0.28592 0.0
H65 H 0.84708 0.79605 0.31104 0.0
H66 H 0.84287 0.81753 0.33886 0.0
H67 H 0.76305 0.8077 0.3363 0.0
H68 H 0.7675 0.78588 0.30881 0.0
H69 H 0.82105 0.74355 0.26249 0.0
H70 H 0.8359 0.71382 0.2727 0.0
H71 H 0.83452 0.7277 0.33796 0.0
H72 H 0.8191 0.75724 0.32764 0.0
H73 H 0.79273 0.80171 0.25593 0.0
H74 H 0.76934 0.74736 0.28081 0.0
O75 O 0.83481 0.78457 0.2711 0.0
H76 H 0.75698 0.80088 0.23255 0.0
H77 H 0.7334 0.74643 0.25746 0.0
C78 C 0.80761 0.78972 0.30758 0.0
C79 C 0.82869 0.79847 0.31655 0.0
C80 C 0.82624 0.8108 0.33238 0.0
C81 C 0.80261 0.81455 0.33959 0.0
C82 C 0.78152 0.80509 0.33116 0.0
C83 C 0.78402 0.79271 0.31532 0.0
C84 C 0.81901 0.75259 0.29426 0.0
C85 C 0.82362 0.74007 0.27902 0.0
C86 C 0.83226 0.72314 0.28487 0.0
C87 C 0.83664 0.71847 0.30613 0.0
C88 C 0.83116 0.73083 0.32147 0.0
C89 C 0.82246 0.74778 0.31557 0.0
C90 C 0.78396 0.77446 0.26971 0.0
C91 C 0.77984 0.78961 0.25637 0.0
C92 C 0.75929 0.78916 0.24313 0.0
C93 C 0.74243 0.77354 0.24306 0.0
C94 C 0.74628 0.75854 0.25693 0.0
C95 C 0.7668 0.75906 0.27028 0.0
P96 P 0.80199 0.24452 0.77572 0.0
H97 H 0.79164 0.22429 0.8157 0.0
H98 H 0.75725 0.22345 0.84084 0.0
H99 H 0.7195 0.26012 0.79926 0.0
H100 H 0.75399 0.26073 0.77402 0.0
H101 H 0.83726 0.22385 0.75405 0.0
H102 H 0.83273 0.20097 0.72739 0.0
H103 H 0.75363 0.20611 0.72626 0.0
H104 H 0.75845 0.22937 0.75267 0.0
H105 H 0.79965 0.28007 0.79382 0.0
H106 H 0.81903 0.25955 0.73394 0.0
O107 O 0.82685 0.23989 0.78984 0.0
H108 H 0.81245 0.31123 0.78083 0.0
H109 H 0.83255 0.29064 0.72103 0.0
C110 C 0.77557 0.24288 0.79324 0.0
C111 C 0.77595 0.23212 0.81196 0.0
C112 C 0.75631 0.2317 0.82635 0.0
C113 C 0.73581 0.24193 0.82218 0.0
C114 C 0.73501 0.25208 0.80292 0.0
C115 C 0.75475 0.25252 0.78855 0.0
C116 C 0.79813 0.22798 0.75569 0.0
C117 C 0.81892 0.22001 0.74812 0.0
C118 C 0.81629 0.20688 0.73291 0.0
C119 C 0.79277 0.20151 0.72488 0.0
C120 C 0.77202 0.20997 0.73206 0.0
C121 C 0.77471 0.22317 0.7473 0.0
C122 C 0.80794 0.26752 0.76475 0.0
C123 C 0.80626 0.2823 0.77774 0.0
C124 C 0.81384 0.3001 0.77036 0.0
C125 C 0.82366 0.30343 0.74992 0.0
C126 C 0.82477 0.28859 0.73675 0.0
C127 C 0.81709 0.27077 0.74415 0.0
P128 P 0.7927 0.77305 0.76586 0.0
H129 H 0.78799 0.75836 0.80902 0.0
H130 H 0.7533 0.75473 0.834 0.0
H131 H 0.70446 0.77388 0.78567 0.0
H132 H 0.73938 0.77758 0.76078 0.0
H133 H 0.83852 0.76359 0.74688 0.0
H134 H 0.85135 0.73559 0.73221 0.0
H135 H 0.77786 0.70932 0.74398 0.0
H136 H 0.7652 0.73746 0.75883 0.0
H137 H 0.77923 0.81028 0.76944 0.0
H138 H 0.79454 0.77497 0.71935 0.0
O139 O 0.81666 0.78089 0.78023 0.0
H140 H 0.77416 0.83539 0.74368 0.0
H141 H 0.7904 0.80014 0.69355 0.0
C142 C 0.76635 0.76866 0.78326 0.0
C143 C 0.76978 0.76167 0.80378 0.0
C144 C 0.74988 0.75948 0.818 0.0
C145 C 0.72616 0.76419 0.81187 0.0
C146 C 0.7226 0.77045 0.79096 0.0
C147 C 0.74253 0.77254 0.77672 0.0
C148 C 0.8011 0.75246 0.75426 0.0
C149 C 0.82517 0.7518 0.74627 0.0
C150 C 0.83239 0.73584 0.73771 0.0
C151 C 0.81562 0.72021 0.73696 0.0
C152 C 0.79127 0.72107 0.74457 0.0
C153 C 0.78401 0.73714 0.75304 0.0
C154 C 0.78728 0.79079 0.74634 0.0
C155 C 0.78145 0.80794 0.75287 0.0
C156 C 0.77875 0.82231 0.73813 0.0
C157 C 0.78208 0.81985 0.71652 0.0
C158 C 0.78746 0.80248 0.71002 0.0
C159 C 0.79001 0.78807 0.72481 0.0
P160 P 0.81633 0.2423 0.28754 0.0
H161 H 0.86665 0.25817 0.29363 0.0
H162 H 0.88351 0.28724 0.30682 0.0
H163 H 0.80907 0.30193 0.31911 0.0
H164 H 0.79232 0.27282 0.30534 0.0
H165 H 0.83357 0.20563 0.29326 0.0
H166 H 0.82786 0.18204 0.32146 0.0
H167 H 0.78403 0.21733 0.35638 0.0
H168 H 0.7895 0.24085 0.32775 0.0
H169 H 0.80126 0.2707 0.25798 0.0
H170 H 0.7699 0.2188 0.28463 0.0
O171 O 0.83711 0.23598 0.27037 0.0
H172 H 0.76542 0.27252 0.23496 0.0
H173 H 0.73377 0.22068 0.262 0.0
C174 C 0.82827 0.26356 0.29807 0.0
C175 C 0.85395 0.26766 0.29911 0.0
C176 C 0.86357 0.28423 0.30688 0.0
C177 C 0.84764 0.29697 0.314 0.0
C178 C 0.82183 0.29256 0.31346 0.0
C179 C 0.81223 0.27592 0.30565 0.0
C180 C 0.81221 0.22506 0.30855 0.0
C181 C 0.82282 0.20836 0.307 0.0
C182 C 0.81963 0.19489 0.3232 0.0
C183 C 0.80566 0.19785 0.34126 0.0
C184 C 0.79478 0.21458 0.34263 0.0
C185 C 0.79803 0.22808 0.32638 0.0
C186 C 0.78804 0.24481 0.27329 0.0
C187 C 0.78635 0.25992 0.25925 0.0
C188 C 0.76581 0.26095 0.24612 0.0
C189 C 0.7467 0.24674 0.24664 0.0
C190 C 0.74827 0.23177 0.26107 0.0
C191 C 0.76883 0.23077 0.27419 0.0
P192 P 0.28579 0.2832 0.70827 0.0
H193 H 0.2795 0.27506 0.66424 0.0
H194 H 0.26716 0.24692 0.6465 0.0
H195 H 0.25533 0.21805 0.70689 0.0
H196 H 0.26719 0.24638 0.72448 0.0
H197 H 0.28837 0.32178 0.71684 0.0
H198 H 0.2572 0.34408 0.7181 0.0
H199 H 0.19988 0.30156 0.70541 0.0
H200 H 0.23131 0.27938 0.70386 0.0
H201 H 0.33266 0.26985 0.72155 0.0
H202 H 0.26515 0.28372 0.75114 0.0
O203 O 0.30904 0.2935 0.69371 0.0
H204 H 0.35008 0.26277 0.75603 0.0
H205 H 0.2823 0.2764 0.78576 0.0
C206 C 0.27481 0.26267 0.69562 0.0
C207 C 0.27415 0.26268 0.67364 0.0
C208 C 0.26718 0.24657 0.66353 0.0
C209 C 0.2606 0.23017 0.67528 0.0
C210 C 0.26023 0.23045 0.69738 0.0
C211 C 0.26721 0.2466 0.70746 0.0
C212 C 0.26219 0.29905 0.70993 0.0
C213 C 0.26908 0.31728 0.71433 0.0
C214 C 0.2512 0.32997 0.71521 0.0
C215 C 0.22603 0.32462 0.71179 0.0
C216 C 0.21914 0.30618 0.7078 0.0
C217 C 0.23709 0.29347 0.70697 0.0
C218 C 0.29789 0.27769 0.73385 0.0
C219 C 0.3216 0.27136 0.73551 0.0
C220 C 0.33143 0.26716 0.75523 0.0
C221 C 0.31761 0.26909 0.77367 0.0
C222 C 0.29356 0.27506 0.77188 0.0
C223 C 0.28373 0.27922 0.75211 0.0
P224 P 0.29815 0.75511 0.32389 0.0
H225 H 0.34645 0.76997 0.3078 0.0
H226 H 0.36338 0.77571 0.27223 0.0
H227 H 0.29184 0.75852 0.24656 0.0
H228 H 0.27513 0.75262 0.28226 0.0
H229 H 0.3024 0.76933 0.36586 0.0
H230 H 0.2884 0.79659 0.38129 0.0
H231 H 0.25521 0.81205 0.3221 0.0
H232 H 0.26985 0.7848 0.30662 0.0
H233 H 0.29641 0.71883 0.30721 0.0
H234 H 0.24727 0.75057 0.34148 0.0
O235 O 0.32141 0.74794 0.33842 0.0
H236 H 0.2651 0.69284 0.30869 0.0
H237 H 0.21574 0.72477 0.34273 0.0
C238 C 0.30976 0.76044 0.29761 0.0
C239 C 0.33442 0.76746 0.2945 0.0
C240 C 0.34401 0.77089 0.27416 0.0
C241 C 0.329 0.76743 0.25655 0.0
C242 C 0.30398 0.76101 0.25979 0.0
C243 C 0.29441 0.75765 0.28017 0.0
C244 C 0.28761 0.77528 0.335 0.0
C245 C 0.29224 0.77863 0.35616 0.0
C246 C 0.28397 0.79414 0.36503 0.0
C247 C 0.27067 0.80653 0.35293 0.0
C248 C 0.26571 0.80293 0.33176 0.0
C249 C 0.27403 0.78736 0.3229 0.0
C250 C 0.27411 0.73666 0.32405 0.0
C251 C 0.27876 0.72026 0.31484 0.0
C252 C 0.2608 0.70545 0.31563 0.0
C253 C 0.23789 0.70675 0.3258 0.0
C254 C 0.23328 0.72328 0.33496 0.0
C255 C 0.25126 0.7381 0.33412 0.0
C256 C 0.0605 0.53635 0.35928 0.0
C257 C 0.0699 0.54192 0.37843 0.0
C258 C 0.05699 0.53145 0.39368 0.0
C259 C 0.04061 0.52009 0.38302 0.0
N260 N 0.04237 0.52255 0.36185 0.0
Co261 Co 0.02213 0.50891 0.34036 0.0
N262 N 0.00215 0.4943 0.36285 0.0
C263 C 0.00392 0.49598 0.38389 0.0
C264 C 0.98775 0.48404 0.39537 0.0
C265 C 0.97505 0.47398 0.38082 0.0
C266 C 0.98437 0.48033 0.36125 0.0
N267 N 0.0022 0.495 0.31888 0.0
C268 C 0.98481 0.48068 0.32147 0.0
C269 C 0.97667 0.47427 0.30227 0.0
C270 C 0.98933 0.4849 0.28703 0.0
C271 C 0.00455 0.49704 0.29769 0.0
N272 N 0.04184 0.52377 0.31785 0.0
C273 C 0.03913 0.52279 0.29679 0.0
C274 C 0.05459 0.5352 0.28529 0.0
C275 C 0.06785 0.54486 0.29985 0.0
C276 C 0.05974 0.53767 0.31948 0.0
N277 N 0.04652 0.49 0.34053 0.0
C278 C 0.08004 0.46239 0.3405 0.0
C279 C 0.07262 0.47083 0.32171 0.0
C280 C 0.05603 0.48446 0.32209 0.0
C281 C 0.07052 0.46813 0.35934 0.0
C282 C 0.05397 0.48187 0.359 0.0
N283 N 0.99777 0.52787 0.34017 0.0
C284 C 0.97262 0.54861 0.32086 0.0
C285 C 0.96635 0.55684 0.33931 0.0
C286 C 0.97533 0.54985 0.35832 0.0
C287 C 0.99084 0.53545 0.35839 0.0
C288 C 0.98815 0.53428 0.32164 0.0
H289 H 0.99732 0.53094 0.37335 0.0
H290 H 0.99233 0.52881 0.30698 0.0
H291 H 0.05103 0.49019 0.30721 0.0
H292 H 0.0474 0.48562 0.37388 0.0
C293 C 0.02227 0.50786 0.39243 0.0
C294 C 0.06897 0.54496 0.33915 0.0
C295 C 0.97636 0.47217 0.3417 0.0
C296 C 0.02175 0.51014 0.28827 0.0
H297 H 0.08434 0.55264 0.38109 0.0
H298 H 0.05892 0.5323 0.41054 0.0
H299 H 0.98592 0.48249 0.41232 0.0
H300 H 0.96089 0.46295 0.38423 0.0
H301 H 0.96335 0.46286 0.29947 0.0
H302 H 0.988 0.48365 0.27018 0.0
H303 H 0.05584 0.53715 0.26835 0.0
H304 H 0.08168 0.5561 0.29638 0.0
H305 H 0.07919 0.46672 0.30667 0.0
H306 H 0.07595 0.46218 0.37434 0.0
H307 H 0.96567 0.55325 0.30576 0.0
H308 H 0.97106 0.55578 0.37306 0.0
C309 C 0.0385 0.54232 0.7219 0.0
C310 C 0.04763 0.54802 0.74109 0.0
C311 C 0.03467 0.53756 0.75631 0.0
C312 C 0.01853 0.52605 0.74561 0.0
N313 N 0.02052 0.52841 0.72443 0.0
Co314 Co 0.00069 0.51453 0.70287 0.0
N315 N 0.98068 0.49988 0.72532 0.0
C316 C 0.98234 0.50155 0.74638 0.0
C317 C 0.96617 0.48958 0.7578 0.0
C318 C 0.95359 0.47951 0.74321 0.0
C319 C 0.96297 0.48588 0.72366 0.0
N320 N 0.98103 0.50047 0.68134 0.0
C321 C 0.96358 0.48619 0.6839 0.0
C322 C 0.95532 0.47985 0.66472 0.0
C323 C 0.96808 0.49044 0.64949 0.0
C324 C 0.9834 0.50253 0.66017 0.0
N325 N 0.02056 0.52935 0.68042 0.0
C326 C 0.0182 0.52814 0.65936 0.0
C327 C 0.03372 0.54054 0.6479 0.0
C328 C 0.04665 0.55041 0.66248 0.0
C329 C 0.0383 0.54335 0.68209 0.0
N330 N 0.02527 0.49575 0.70337 0.0
C331 C 0.05882 0.46813 0.70417 0.0
C332 C 0.05127 0.47608 0.68513 0.0
C333 C 0.03466 0.48976 0.68509 0.0
C334 C 0.04945 0.47439 0.72279 0.0
C335 C 0.0329 0.48808 0.72203 0.0
N336 N 0.97608 0.5333 0.70239 0.0
C337 C 0.95037 0.55377 0.68316 0.0
C338 C 0.94276 0.56107 0.70182 0.0
C339 C 0.95183 0.55401 0.72075 0.0
C340 C 0.96827 0.54027 0.72068 0.0
C341 C 0.96684 0.53999 0.68381 0.0
H342 H 0.97463 0.53571 0.73563 0.0
H343 H 0.97197 0.53508 0.66905 0.0
H344 H 0.02962 0.49522 0.67008 0.0
H345 H 0.02636 0.49209 0.73678 0.0
C346 C 0.00039 0.51365 0.75499 0.0
C347 C 0.04713 0.55087 0.70178 0.0
C348 C 0.95511 0.4777 0.70408 0.0
C349 C 0.00082 0.51552 0.6508 0.0
H350 H 0.06195 0.55881 0.74382 0.0
H351 H 0.03645 0.53847 0.77317 0.0
H352 H 0.96421 0.48806 0.77474 0.0
H353 H 0.93943 0.46846 0.74659 0.0
H354 H 0.94182 0.46852 0.66201 0.0
H355 H 0.96675 0.48921 0.63263 0.0
H356 H 0.03516 0.5424 0.63095 0.0
H357 H 0.06039 0.56171 0.65902 0.0
H358 H 0.05827 0.4719 0.67027 0.0
H359 H 0.05447 0.46853 0.73795 0.0
H360 H 0.94362 0.55862 0.66809 0.0
H361 H 0.94681 0.55937 0.73564 0.0
C362 C 0.25433 0.99012 0.54769 0.0
C363 C 0.27685 0.98503 0.55553 0.0
C364 C 0.29501 0.99552 0.54469 0.0
C365 C 0.28267 0.00631 0.53084 0.0
N366 N 0.25764 0.00351 0.5323 0.0
Co367 Co 0.23258 0.01568 0.51444 0.0
N368 N 0.25944 0.03034 0.49773 0.0
C369 C 0.28425 0.02965 0.49986 0.0
C370 C 0.29801 0.04156 0.48636 0.0
C371 C 0.28101 0.05064 0.47514 0.0
C372 C 0.25777 0.04376 0.48258 0.0
N373 N 0.20757 0.0279 0.49659 0.0
C374 C 0.21089 0.04168 0.48164 0.0
C375 C 0.18841 0.04679 0.47377 0.0
C376 C 0.17024 0.03595 0.48421 0.0
C377 C 0.18256 0.02495 0.49785 0.0
N378 N 0.20574 0.00102 0.53116 0.0
C379 C 0.18094 0.00155 0.5288 0.0
C380 C 0.16715 0.98969 0.54233 0.0
C381 C 0.18412 0.98087 0.55389 0.0
C382 C 0.20738 0.98785 0.54663 0.0
N383 N 0.23221 0.03568 0.53446 0.0
C384 C 0.23226 0.06579 0.56053 0.0
C385 C 0.20999 0.05705 0.55376 0.0
C386 C 0.21039 0.04212 0.54084 0.0
C387 C 0.25441 0.05883 0.55455 0.0
C388 C 0.25397 0.04391 0.54168 0.0
N389 N 0.23297 0.99567 0.49438 0.0
C390 C 0.21136 0.97252 0.47376 0.0
C391 C 0.23378 0.96582 0.46799 0.0
C392 C 0.25575 0.97464 0.47516 0.0
C393 C 0.25493 0.9894 0.48814 0.0
C394 C 0.21138 0.98733 0.48689 0.0
H395 H 0.27236 0.99536 0.49305 0.0
H396 H 0.1937 0.9916 0.49099 0.0
H397 H 0.19284 0.03621 0.53597 0.0
H398 H 0.27152 0.03944 0.53759 0.0
C399 C 0.29407 0.01845 0.51552 0.0
C400 C 0.2304 0.98116 0.55457 0.0
C401 C 0.23479 0.05102 0.47539 0.0
C402 C 0.17118 0.01274 0.5131 0.0
H403 H 0.27993 0.97452 0.56749 0.0
H404 H 0.31487 0.99498 0.5463 0.0
H405 H 0.31802 0.04372 0.48521 0.0
H406 H 0.28522 0.0614 0.46316 0.0
H407 H 0.18538 0.05757 0.46213 0.0
H408 H 0.15038 0.03649 0.48257 0.0
H409 H 0.14713 0.98747 0.54339 0.0
H410 H 0.17989 0.97029 0.56608 0.0
H411 H 0.19232 0.06196 0.55792 0.0
H412 H 0.27215 0.06486 0.55978 0.0
H413 H 0.19382 0.96609 0.46863 0.0
H414 H 0.27363 0.9702 0.47075 0.0
C415 C 0.47164 0.79163 0.04945 0.0
C416 C 0.46622 0.80892 0.05522 0.0
C417 C 0.48073 0.82123 0.04292 0.0
C418 C 0.49411 0.81079 0.03042 0.0
N419 N 0.48878 0.79254 0.03374 0.0
Co420 Co 0.50494 0.77238 0.01994 0.0
N421 N 0.52722 0.79049 0.00262 0.0
C422 C 0.52756 0.80898 0.0024 0.0
C423 C 0.54428 0.81777 0.98837 0.0
C424 C 0.55511 0.80409 0.97884 0.0
C425 C 0.54429 0.78769 0.98766 0.0
N426 N 0.52161 0.75222 0.00662 0.0
C427 C 0.53975 0.75308 0.99174 0.0
C428 C 0.54605 0.73575 0.98686 0.0
C429 C 0.5313 0.7235 0.99902 0.0
C430 C 0.5169 0.73398 0.01058 0.0
N431 N 0.48216 0.75428 0.03679 0.0
C432 C 0.48075 0.73581 0.03605 0.0
C433 C 0.46343 0.72702 0.04956 0.0
C434 C 0.45327 0.74068 0.05968 0.0
C435 C 0.46507 0.75706 0.05172 0.0
N436 N 0.48018 0.7724 0.99693 0.0
C437 C 0.44684 0.77242 0.96291 0.0
C438 C 0.45443 0.75604 0.97185 0.0
C439 C 0.47084 0.75634 0.98872 0.0
C440 C 0.45591 0.78878 0.97159 0.0
C441 C 0.47241 0.78846 0.98842 0.0
N442 N 0.52967 0.77237 0.04292 0.0
C443 C 0.55067 0.75624 0.07069 0.0
C444 C 0.56352 0.77249 0.07656 0.0
C445 C 0.5593 0.78865 0.0651 0.0
C446 C 0.54245 0.78828 0.04852 0.0
C447 C 0.53406 0.75648 0.05396 0.0
H448 H 0.54001 0.80107 0.04053 0.0
H449 H 0.52482 0.74364 0.05038 0.0
H450 H 0.47592 0.74339 0.99464 0.0
H451 H 0.47874 0.80141 0.99414 0.0
C452 C 0.51204 0.81769 0.01565 0.0
C453 C 0.46043 0.77481 0.05969 0.0
C454 C 0.55071 0.76984 0.98114 0.0
C455 C 0.49753 0.72708 0.024 0.0
H456 H 0.45331 0.81225 0.06725 0.0
H457 H 0.48167 0.83602 0.04325 0.0
H458 H 0.54804 0.83237 0.98535 0.0
H459 H 0.56928 0.80596 0.96669 0.0
H460 H 0.55955 0.73231 0.97538 0.0
H461 H 0.53067 0.70871 0.99901 0.0
H462 H 0.45929 0.71241 0.05225 0.0
H463 H 0.43924 0.73876 0.07194 0.0
H464 H 0.44822 0.74298 0.96558 0.0
H465 H 0.4503 0.80184 0.96549 0.0
H466 H 0.55302 0.74336 0.07918 0.0
H467 H 0.56909 0.80157 0.06876 0.0
C468 C 0.80583 0.98316 0.56172 0.0
C469 C 0.82848 0.97784 0.56898 0.0
C470 C 0.84645 0.98855 0.55819 0.0
C471 C 0.83385 0.99968 0.54491 0.0
N472 N 0.80886 0.99686 0.54666 0.0
Co473 Co 0.78352 0.00928 0.52939 0.0
N474 N 0.81009 0.02459 0.513 0.0
C475 C 0.83493 0.02448 0.5155 0.0
C476 C 0.84849 0.03701 0.50258 0.0
C477 C 0.83131 0.04583 0.49127 0.0
C478 C 0.80816 0.03805 0.49791 0.0
N479 N 0.7582 0.02149 0.51192 0.0
C480 C 0.76123 0.03504 0.4967 0.0
C481 C 0.73867 0.03953 0.48842 0.0
C482 C 0.72069 0.02864 0.49902 0.0
C483 C 0.73323 0.01811 0.51302 0.0
N484 N 0.75695 0.9942 0.54599 0.0
C485 C 0.7321 0.99481 0.54401 0.0
C486 C 0.71852 0.98297 0.5577 0.0
C487 C 0.73568 0.97413 0.56902 0.0
C488 C 0.75884 0.98106 0.56144 0.0
N489 N 0.78292 0.02878 0.55006 0.0
C490 C 0.78217 0.05707 0.57863 0.0
C491 C 0.76024 0.04941 0.57001 0.0
C492 C 0.76102 0.03538 0.55594 0.0
C493 C 0.80448 0.05024 0.57278 0.0
C494 C 0.80443 0.03624 0.5586 0.0
N495 N 0.78412 0.98976 0.50874 0.0
C496 C 0.76263 0.96641 0.48838 0.0
C497 C 0.78508 0.96099 0.4808 0.0
C498 C 0.80702 0.9704 0.48724 0.0
C499 C 0.80613 0.9846 0.50107 0.0
C500 C 0.76257 0.98071 0.50216 0.0
H501 H 0.82352 0.99107 0.50546 0.0
H502 H 0.74485 0.98413 0.50734 0.0
H503 H 0.74365 0.03014 0.55001 0.0
H504 H 0.82206 0.03178 0.55469 0.0
C505 C 0.84497 0.01266 0.53037 0.0
C506 C 0.782 0.9744 0.56913 0.0
C507 C 0.78493 0.04437 0.48994 0.0
C508 C 0.72207 0.00587 0.52833 0.0
H509 H 0.83175 0.96712 0.58065 0.0
H510 H 0.86634 0.98809 0.55961 0.0
H511 H 0.86847 0.03962 0.50173 0.0
H512 H 0.83539 0.05692 0.47967 0.0
H513 H 0.73553 0.04983 0.47621 0.0
H514 H 0.70081 0.0287 0.49709 0.0
H515 H 0.69853 0.98076 0.55901 0.0
H516 H 0.7316 0.9636 0.58129 0.0
H517 H 0.74244 0.05406 0.57427 0.0
H518 H 0.82202 0.05585 0.57885 0.0
H519 H 0.74508 0.95975 0.48359 0.0
H520 H 0.82493 0.96662 0.48197 0.0
C521 C 0.47393 0.2693 0.05436 0.0
C522 C 0.46842 0.28663 0.05991 0.0
C523 C 0.48269 0.29889 0.04739 0.0
C524 C 0.49613 0.28841 0.03501 0.0
N525 N 0.49111 0.27016 0.03867 0.0
Co526 Co 0.50733 0.24998 0.02495 0.0
N527 N 0.52987 0.26807 0.00782 0.0
C528 C 0.53059 0.28657 0.00791 0.0
C529 C 0.54767 0.29535 0.99419 0.0
C530 C 0.55844 0.28168 0.98462 0.0
C531 C 0.54729 0.26527 0.99315 0.0
N532 N 0.52359 0.22979 0.01128 0.0
C533 C 0.54155 0.23064 0.99625 0.0
C534 C 0.54742 0.21332 0.99097 0.0
C535 C 0.53243 0.20106 0.00292 0.0
C536 C 0.51838 0.21154 0.01479 0.0
N537 N 0.48481 0.23189 0.04209 0.0
C538 C 0.48357 0.21341 0.04158 0.0
C539 C 0.46666 0.20465 0.05547 0.0
C540 C 0.4567 0.21833 0.06569 0.0
C541 C 0.46824 0.2347 0.05743 0.0
N542 N 0.48246 0.2501 0.00201 0.0
C543 C 0.44949 0.25025 0.96776 0.0
C544 C 0.45516 0.23383 0.97791 0.0
C545 C 0.47147 0.23407 0.99487 0.0
C546 C 0.46014 0.2666 0.9754 0.0
C547 C 0.47637 0.26621 0.99238 0.0
N548 N 0.53218 0.24986 0.04783 0.0
C549 C 0.55479 0.23345 0.07432 0.0
C550 C 0.56628 0.24983 0.08124 0.0
C551 C 0.56056 0.2662 0.071 0.0
C552 C 0.54363 0.2659 0.05449 0.0
C553 C 0.53799 0.23378 0.05772 0.0
H554 H 0.53996 0.27885 0.04748 0.0
H555 H 0.52987 0.22085 0.05321 0.0
H556 H 0.47506 0.22109 0.00179 0.0
H557 H 0.48401 0.27914 0.9972 0.0
C558 C 0.5146 0.2953 0.02071 0.0
C559 C 0.46338 0.25248 0.06517 0.0
C560 C 0.55335 0.24743 0.98631 0.0
C561 C 0.49963 0.20466 0.02884 0.0
H562 H 0.45582 0.29011 0.0721 0.0
H563 H 0.48369 0.31368 0.04769 0.0
H564 H 0.55158 0.30996 0.99128 0.0
H565 H 0.57268 0.28358 0.97253 0.0
H566 H 0.56098 0.2099 0.97951 0.0
H567 H 0.53164 0.18626 0.00277 0.0
H568 H 0.46254 0.19004 0.05822 0.0
H569 H 0.44283 0.21649 0.0781 0.0
H570 H 0.44705 0.2208 0.97281 0.0
H571 H 0.45654 0.2797 0.96797 0.0
H572 H 0.55889 0.22038 0.08153 0.0
H573 H 0.56876 0.27927 0.07591 0.0
H574 H 0.20616 0.31945 0.35557 0.0
H575 H 0.17688 0.34318 0.3574 0.0
H576 H 0.21666 0.37462 0.30729 0.0
H577 H 0.24604 0.35105 0.3054 0.0
H578 H 0.18723 0.37995 0.36592 0.0
H579 H 0.14491 0.373 0.28714 0.0
H580 H 0.16319 0.35582 0.2991 0.0
H581 H 0.17818 0.37627 0.28656 0.0
C582 C 0.20867 0.33142 0.34493 0.0
C583 C 0.22839 0.33332 0.33027 0.0
C584 C 0.19188 0.34492 0.34595 0.0
C585 C 0.19439 0.36053 0.33228 0.0
C586 C 0.21403 0.36248 0.31765 0.0
H587 H 0.12127 0.46078 0.31567 0.0
H588 H 0.14879 0.43593 0.31446 0.0
C589 C 0.2308 0.34898 0.31659 0.0
C590 C 0.17706 0.37511 0.33386 0.0
H591 H 0.13566 0.39906 0.3058 0.0
C592 C 0.1758 0.38405 0.35284 0.0
C593 C 0.16222 0.38043 0.31675 0.0
C594 C 0.16196 0.37078 0.29629 0.0
C595 C 0.16054 0.3985 0.35501 0.0
C596 C 0.14589 0.40393 0.33784 0.0
C597 C 0.14699 0.39489 0.31891 0.0
C598 C 0.12942 0.41909 0.33907 0.0
C599 C 0.16072 0.40815 0.37547 0.0
C600 C 0.10932 0.4178 0.35324 0.0
C601 C 0.09347 0.43195 0.35392 0.0
C602 C 0.09735 0.44761 0.34032 0.0
C603 C 0.11757 0.44883 0.32618 0.0
C604 C 0.13338 0.43468 0.32552 0.0
H605 H 0.17719 0.40533 0.38511 0.0
H606 H 0.16055 0.42319 0.37257 0.0
H607 H 0.14385 0.40328 0.38474 0.0
H608 H 0.10563 0.40571 0.36353 0.0
H609 H 0.07785 0.43043 0.36474 0.0
H610 H 0.17024 0.70889 0.71273 0.0
H611 H 0.14043 0.68186 0.71353 0.0
H612 H 0.19734 0.64927 0.69136 0.0
H613 H 0.22735 0.67601 0.69103 0.0
H614 H 0.12576 0.65945 0.67974 0.0
H615 H 0.16945 0.61992 0.74401 0.0
H616 H 0.17681 0.64418 0.73896 0.0
H617 H 0.19025 0.62793 0.72289 0.0
C618 C 0.17646 0.69592 0.70823 0.0
C619 C 0.20119 0.6946 0.70185 0.0
C620 C 0.15938 0.68053 0.70859 0.0
C621 C 0.16678 0.66353 0.70278 0.0
C622 C 0.19135 0.6622 0.69623 0.0
H623 H 0.09625 0.55415 0.69146 0.0
H624 H 0.12487 0.58196 0.69134 0.0
C625 C 0.20841 0.67755 0.69582 0.0
C626 C 0.14872 0.64722 0.70312 0.0
H627 H 0.13741 0.60398 0.72507 0.0
C628 C 0.12817 0.64735 0.68975 0.0
C629 C 0.152 0.63147 0.71617 0.0
C630 C 0.17319 0.63084 0.73147 0.0
C631 C 0.1111 0.63195 0.68867 0.0
C632 C 0.11448 0.61615 0.70161 0.0
C633 C 0.13493 0.61609 0.71511 0.0
C634 C 0.09706 0.5995 0.70135 0.0
C635 C 0.08999 0.63255 0.67329 0.0
C636 C 0.07207 0.60014 0.70721 0.0
C637 C 0.05582 0.58433 0.70719 0.0
C638 C 0.06436 0.56767 0.70143 0.0
C639 C 0.08936 0.56695 0.69579 0.0
C640 C 0.10562 0.58276 0.69577 0.0
H641 H 0.09358 0.64366 0.66094 0.0
H642 H 0.08668 0.6193 0.66557 0.0
H643 H 0.07278 0.63516 0.68186 0.0
H644 H 0.06522 0.61281 0.712 0.0
H645 H 0.0366 0.58505 0.71177 0.0
H646 H 0.82503 0.69414 0.33955 0.0
H647 H 0.84556 0.66634 0.34953 0.0
H648 H 0.89466 0.67615 0.29593 0.0
H649 H 0.8748 0.704 0.28617 0.0
H650 H 0.85166 0.63484 0.32504 0.0
H651 H 0.94184 0.67034 0.34619 0.0
H652 H 0.91366 0.68196 0.3439 0.0
H653 H 0.93099 0.67749 0.32074 0.0
C654 C 0.84032 0.69042 0.33 0.0
C655 C 0.84828 0.70128 0.31206 0.0
C656 C 0.85192 0.67451 0.33566 0.0
C657 C 0.87183 0.66937 0.32363 0.0
C658 C 0.87957 0.68005 0.30561 0.0
H659 H 0.97 0.58587 0.31078 0.0
H660 H 0.94552 0.61245 0.30921 0.0
C661 C 0.86799 0.69585 0.29991 0.0
C662 C 0.88454 0.65274 0.32954 0.0
H663 H 0.94176 0.63831 0.34051 0.0
C664 C 0.87127 0.63554 0.32875 0.0
C665 C 0.91007 0.65377 0.33447 0.0
C666 C 0.92495 0.67188 0.33659 0.0
C667 C 0.88323 0.61928 0.33162 0.0
C668 C 0.90901 0.62034 0.33565 0.0
C669 C 0.92202 0.63755 0.33728 0.0
C670 C 0.92327 0.60389 0.33677 0.0
C671 C 0.8685 0.60113 0.32932 0.0
C672 C 0.91896 0.59028 0.35289 0.0
C673 C 0.93286 0.57494 0.35376 0.0
C674 C 0.95131 0.57299 0.33853 0.0
C675 C 0.95563 0.58675 0.32252 0.0
C676 C 0.94179 0.60204 0.32169 0.0
H677 H 0.84992 0.60281 0.32243 0.0
H678 H 0.87865 0.59219 0.31925 0.0
H679 H 0.86579 0.59406 0.34504 0.0
H680 H 0.90499 0.5916 0.36487 0.0
H681 H 0.92901 0.56455 0.36624 0.0
H682 H 0.81962 0.32119 0.71124 0.0
H683 H 0.83869 0.35149 0.69971 0.0
H684 H 0.87062 0.35795 0.76115 0.0
H685 H 0.8519 0.3278 0.77272 0.0
H686 H 0.84833 0.38894 0.74532 0.0
H687 H 0.91326 0.36346 0.68731 0.0
H688 H 0.88093 0.35642 0.68408 0.0
H689 H 0.89693 0.34852 0.70698 0.0
C690 C 0.83079 0.32905 0.72225 0.0
C691 C 0.83421 0.32207 0.74291 0.0
C692 C 0.84167 0.34634 0.71564 0.0
C693 C 0.85627 0.35686 0.72952 0.0
C694 C 0.85937 0.35006 0.7502 0.0
H695 H 0.96979 0.44434 0.71595 0.0
H696 H 0.94401 0.41527 0.72008 0.0
C697 C 0.84853 0.33285 0.75682 0.0
C698 C 0.86865 0.37493 0.7227 0.0
H699 H 0.91492 0.39536 0.69096 0.0
C700 C 0.86273 0.39041 0.73329 0.0
C701 C 0.88757 0.37671 0.70714 0.0
C702 C 0.89528 0.36042 0.69578 0.0
C703 C 0.87558 0.40759 0.72907 0.0
C704 C 0.8946 0.40936 0.7136 0.0
C705 C 0.9002 0.39396 0.7027 0.0
C706 C 0.91019 0.42674 0.70972 0.0
C707 C 0.86941 0.42352 0.74183 0.0
C708 C 0.89979 0.44271 0.70217 0.0
C709 C 0.91449 0.45927 0.6999 0.0
C710 C 0.93977 0.46 0.70496 0.0
C711 C 0.9503 0.44396 0.71194 0.0
C712 C 0.93563 0.42744 0.71425 0.0
H713 H 0.85794 0.41901 0.75594 0.0
H714 H 0.8866 0.43129 0.74703 0.0
H715 H 0.8588 0.43297 0.73196 0.0
H716 H 0.88028 0.44239 0.6983 0.0
H717 H 0.9061 0.47157 0.69452 0.0
H718 H 0.29275 0.21222 0.40199 0.0
H719 H 0.28081 0.18247 0.41971 0.0
H720 H 0.24345 0.16447 0.36372 0.0
H721 H 0.25557 0.19417 0.34574 0.0
H722 H 0.22987 0.16437 0.42515 0.0
H723 H 0.29403 0.12514 0.37935 0.0
H724 H 0.29835 0.14972 0.381 0.0
H725 H 0.27438 0.13974 0.36472 0.0
C726 C 0.28211 0.20189 0.3934 0.0
C727 C 0.27523 0.20548 0.37243 0.0
C728 C 0.27519 0.18497 0.40358 0.0
C729 C 0.26147 0.17128 0.39294 0.0
C730 C 0.25424 0.17485 0.37211 0.0
H731 H 0.22378 0.05683 0.43394 0.0
H732 H 0.22751 0.08611 0.41329 0.0
C733 C 0.26103 0.19184 0.36193 0.0
C734 C 0.25498 0.15322 0.40371 0.0
H735 H 0.26905 0.10862 0.40517 0.0
C736 C 0.23831 0.15213 0.42076 0.0
C737 C 0.26593 0.13732 0.3978 0.0
C738 C 0.2843 0.13791 0.3798 0.0
C739 C 0.23239 0.13553 0.43219 0.0
C740 C 0.24398 0.11972 0.42673 0.0
C741 C 0.26022 0.12075 0.40935 0.0
C742 C 0.24041 0.1022 0.43938 0.0
C743 C 0.21364 0.13505 0.44989 0.0
C744 C 0.24659 0.10153 0.4608 0.0
C745 C 0.24426 0.08492 0.47254 0.0
C746 C 0.23594 0.0687 0.463 0.0
C747 C 0.22993 0.06928 0.44158 0.0
C748 C 0.23213 0.08593 0.42984 0.0
H749 H 0.20096 0.14619 0.44771 0.0
H750 H 0.20236 0.12171 0.45116 0.0
H751 H 0.22353 0.13707 0.46495 0.0
H752 H 0.25368 0.11379 0.46835 0.0
H753 H 0.24927 0.08465 0.48901 0.0
H754 H 0.31225 0.73588 0.8016 0.0
H755 H 0.33233 0.73836 0.83586 0.0
H756 H 0.35268 0.79569 0.82155 0.0
H757 H 0.33222 0.79335 0.78746 0.0
H758 H 0.38037 0.74697 0.84332 0.0
H759 H 0.32493 0.7976 0.88009 0.0
H760 H 0.31513 0.78627 0.85659 0.0
H761 H 0.33774 0.80569 0.85502 0.0
C762 C 0.32084 0.74904 0.80586 0.0
C763 C 0.32062 0.76444 0.7919 0.0
C764 C 0.33224 0.75045 0.82544 0.0
C765 C 0.3437 0.76727 0.83143 0.0
C766 C 0.34338 0.78269 0.81755 0.0
H767 H 0.4488 0.79663 0.92867 0.0
H768 H 0.42253 0.79565 0.89747 0.0
C769 C 0.33175 0.78133 0.79804 0.0
C770 C 0.3574 0.76833 0.85155 0.0
H771 H 0.36294 0.79134 0.89707 0.0
C772 C 0.37637 0.75656 0.85514 0.0
C773 C 0.35221 0.78087 0.86698 0.0
C774 C 0.33123 0.7932 0.8646 0.0
C775 C 0.39055 0.75721 0.87353 0.0
C776 C 0.38563 0.76994 0.8887 0.0
C777 C 0.36665 0.78166 0.88527 0.0
C778 C 0.40023 0.77121 0.9082 0.0
C779 C 0.411 0.7445 0.87656 0.0
C780 C 0.39602 0.75793 0.92463 0.0
C781 C 0.41078 0.75853 0.94258 0.0
C782 C 0.43013 0.7724 0.94438 0.0
C783 C 0.4339 0.7859 0.92798 0.0
C784 C 0.41901 0.78533 0.91008 0.0
H785 H 0.41422 0.73678 0.8623 0.0
H786 H 0.42856 0.75239 0.88067 0.0
H787 H 0.40603 0.73452 0.88984 0.0
H788 H 0.38147 0.74699 0.92343 0.0
H789 H 0.40706 0.74811 0.95504 0.0
H790 H 0.82866 0.84795 0.34086 0.0
H791 H 0.82422 0.87174 0.36594 0.0
H792 H 0.76559 0.83788 0.39797 0.0
H793 H 0.77042 0.81369 0.37326 0.0
H794 H 0.78153 0.88991 0.37356 0.0
H795 H 0.81251 0.85321 0.44591 0.0
H796 H 0.81838 0.84567 0.41986 0.0
H797 H 0.78812 0.84123 0.43166 0.0
C798 C 0.8151 0.8454 0.35345 0.0
C799 C 0.80003 0.82884 0.35515 0.0
C800 C 0.81246 0.85908 0.36767 0.0
C801 C 0.79479 0.85649 0.38395 0.0
C802 C 0.77963 0.84003 0.38571 0.0
H803 H 0.75667 0.92829 0.48288 0.0
H804 H 0.75767 0.90301 0.45911 0.0
C805 C 0.78224 0.8263 0.37146 0.0
C806 C 0.79184 0.87134 0.39859 0.0
H807 H 0.79771 0.88235 0.45 0.0
C808 C 0.78506 0.88827 0.39028 0.0
C809 C 0.79635 0.86911 0.42039 0.0
C810 C 0.80444 0.85139 0.43004 0.0
C811 C 0.78264 0.90306 0.40319 0.0
C812 C 0.78759 0.90094 0.42493 0.0
C813 C 0.79397 0.88392 0.43331 0.0
C814 C 0.78679 0.91636 0.43913 0.0
C815 C 0.77456 0.92076 0.39348 0.0
C816 C 0.80301 0.93216 0.43588 0.0
C817 C 0.80239 0.94667 0.44933 0.0
C818 C 0.78562 0.94561 0.4664 0.0
C819 C 0.76953 0.92967 0.4697 0.0
C820 C 0.77019 0.91516 0.45623 0.0
H821 H 0.76506 0.91863 0.37823 0.0
H822 H 0.76186 0.92717 0.4042 0.0
H823 H 0.79113 0.93047 0.39047 0.0
H824 H 0.81627 0.93324 0.42298 0.0
H825 H 0.81491 0.95878 0.44625 0.0
H826 H 0.68541 0.23972 0.81624 0.0
H827 H 0.65283 0.24107 0.84302 0.0
H828 H 0.70862 0.24653 0.89101 0.0
H829 H 0.74119 0.2455 0.86442 0.0
H830 H 0.64434 0.21715 0.88062 0.0
H831 H 0.66521 0.29012 0.89878 0.0
H832 H 0.67583 0.28064 0.87494 0.0
H833 H 0.69159 0.27666 0.89932 0.0
C834 C 0.69071 0.24135 0.83248 0.0
C835 C 0.71587 0.2425 0.83822 0.0
C836 C 0.6721 0.24203 0.84775 0.0
C837 C 0.67838 0.24411 0.86892 0.0
C838 C 0.70343 0.24516 0.8747 0.0
H839 H 0.60367 0.25176 0.98794 0.0
H840 H 0.63334 0.25045 0.95875 0.0
C841 C 0.72199 0.24438 0.85952 0.0
C842 C 0.65883 0.24488 0.88516 0.0
H843 H 0.63756 0.27228 0.92209 0.0
C844 C 0.64265 0.22924 0.88959 0.0
C845 C 0.65679 0.26066 0.89682 0.0
C846 C 0.67312 0.27805 0.89216 0.0
C847 C 0.62496 0.22876 0.90589 0.0
C848 C 0.62313 0.24449 0.91774 0.0
C849 C 0.63906 0.26022 0.91305 0.0
C850 C 0.60512 0.24486 0.93534 0.0
C851 C 0.60898 0.21124 0.91074 0.0
C852 C 0.57947 0.24228 0.93181 0.0
C853 C 0.56264 0.24296 0.94845 0.0
C854 C 0.57123 0.24638 0.96877 0.0
C855 C 0.5968 0.24906 0.97233 0.0
C856 C 0.61364 0.24834 0.95571 0.0
H857 H 0.61693 0.19926 0.90396 0.0
H858 H 0.60665 0.20858 0.92798 0.0
H859 H 0.59034 0.21246 0.90384 0.0
H860 H 0.57248 0.23997 0.91616 0.0
H861 H 0.54291 0.24099 0.94548 0.0
H862 H 0.23627 0.81875 0.63557 0.0
H863 H 0.22884 0.84783 0.61717 0.0
H864 H 0.25731 0.87718 0.67028 0.0
H865 H 0.26493 0.84817 0.68872 0.0
H866 H 0.20053 0.87631 0.62725 0.0
H867 H 0.30066 0.89991 0.62193 0.0
H868 H 0.28989 0.87661 0.62952 0.0
H869 H 0.28962 0.89425 0.64825 0.0
C870 C 0.24067 0.83139 0.64343 0.0
C871 C 0.25139 0.83118 0.66352 0.0
C872 C 0.2365 0.84799 0.63287 0.0
C873 C 0.24297 0.86467 0.64219 0.0
C874 C 0.25276 0.86448 0.66258 0.0
H875 H 0.24127 0.97841 0.59631 0.0
H876 H 0.24236 0.95022 0.61866 0.0
C877 C 0.25707 0.8479 0.6731 0.0
C878 C 0.23997 0.88225 0.63038 0.0
H879 H 0.27232 0.92105 0.61018 0.0
C880 C 0.21621 0.8861 0.6235 0.0
C881 C 0.26049 0.89497 0.62546 0.0
C882 C 0.28664 0.89121 0.63148 0.0
C883 C 0.21239 0.90243 0.612 0.0
C884 C 0.23292 0.9151 0.60709 0.0
C885 C 0.25661 0.91133 0.6141 0.0
C886 C 0.23046 0.93211 0.59408 0.0
C887 C 0.18643 0.9061 0.60537 0.0
C888 C 0.2234 0.93121 0.57292 0.0
C889 C 0.22291 0.94722 0.56021 0.0
C890 C 0.22955 0.96432 0.56847 0.0
C891 C 0.23613 0.96529 0.58971 0.0
C892 C 0.23674 0.94927 0.60241 0.0
H893 H 0.17218 0.89741 0.61469 0.0
H894 H 0.18311 0.92072 0.6071 0.0
H895 H 0.18402 0.90301 0.58856 0.0
H896 H 0.21892 0.91809 0.56611 0.0
H897 H 0.21787 0.94626 0.54382 0.0
H898 H 0.71145 0.80031 0.2329 0.0
H899 H 0.67895 0.79971 0.20623 0.0
H900 H 0.69403 0.74463 0.19222 0.0
H901 H 0.72642 0.7451 0.21892 0.0
H902 H 0.68488 0.79559 0.16423 0.0
H903 H 0.61907 0.73989 0.19781 0.0
H904 H 0.64378 0.75071 0.21298 0.0
H905 H 0.65013 0.73322 0.19521 0.0
C906 C 0.70772 0.78803 0.22422 0.0
C907 C 0.72148 0.77274 0.22803 0.0
C908 C 0.68911 0.78769 0.20904 0.0
C909 C 0.68383 0.77204 0.19742 0.0
C910 C 0.69734 0.75668 0.20135 0.0
H911 H 0.5961 0.74689 0.08758 0.0
H912 H 0.6247 0.74705 0.11726 0.0
C913 C 0.71588 0.75698 0.2166 0.0
C914 C 0.66531 0.77223 0.18029 0.0
H915 H 0.61255 0.74963 0.16211 0.0
C916 C 0.66894 0.78564 0.16387 0.0
C917 C 0.64455 0.75922 0.17982 0.0
C918 C 0.63897 0.74506 0.1975 0.0
C919 C 0.65269 0.78615 0.14676 0.0
C920 C 0.63215 0.773 0.14617 0.0
C921 C 0.62839 0.75965 0.16261 0.0
C922 C 0.61446 0.77284 0.1285 0.0
C923 C 0.65789 0.80047 0.12918 0.0
C924 C 0.59905 0.78719 0.12518 0.0
C925 C 0.58252 0.78708 0.10835 0.0
C926 C 0.58108 0.77259 0.09451 0.0
C927 C 0.59648 0.75815 0.09804 0.0
C928 C 0.61292 0.75825 0.11493 0.0
H929 H 0.67701 0.80719 0.12995 0.0
H930 H 0.65536 0.79431 0.11363 0.0
H931 H 0.64461 0.81118 0.13032 0.0
H932 H 0.59972 0.79843 0.1357 0.0
H933 H 0.57063 0.79823 0.10637 0.0
H934 H 0.81573 0.16961 0.72503 0.0
H935 H 0.81202 0.14583 0.69932 0.0
H936 H 0.75906 0.17594 0.66451 0.0
H937 H 0.7633 0.20017 0.68984 0.0
H938 H 0.76987 0.12425 0.68808 0.0
H939 H 0.81002 0.16611 0.61935 0.0
H940 H 0.81315 0.17343 0.64598 0.0
H941 H 0.78449 0.17542 0.63219 0.0
C942 C 0.80354 0.17133 0.71176 0.0
C943 C 0.78999 0.1869 0.70939 0.0
C944 C 0.8013 0.15765 0.69716 0.0
C945 C 0.78554 0.15924 0.67985 0.0
C946 C 0.77167 0.1746 0.67756 0.0
H947 H 0.7546 0.08686 0.57629 0.0
H948 H 0.75397 0.11147 0.60104 0.0
C949 C 0.77391 0.18833 0.69217 0.0
C950 C 0.78345 0.14461 0.66448 0.0
H951 H 0.79428 0.13583 0.61312 0.0
C952 C 0.77518 0.12677 0.67169 0.0
C953 C 0.79035 0.14797 0.6431 0.0
C954 C 0.8002 0.16672 0.63465 0.0
C955 C 0.77362 0.11219 0.65808 0.0
C956 C 0.78089 0.11549 0.63679 0.0
C957 C 0.78875 0.13337 0.62948 0.0
C958 C 0.78106 0.10048 0.62198 0.0
C959 C 0.764 0.0934 0.66657 0.0
C960 C 0.7967 0.08627 0.62546 0.0
C961 C 0.79704 0.07218 0.61142 0.0
C962 C 0.7818 0.07206 0.59357 0.0
C963 C 0.76629 0.08641 0.59005 0.0
C964 C 0.76601 0.10053 0.60409 0.0
H965 H 0.75323 0.09408 0.68139 0.0
H966 H 0.75204 0.08622 0.65489 0.0
H967 H 0.77993 0.08511 0.66999 0.0
H968 H 0.80876 0.08614 0.63901 0.0
H969 H 0.80907 0.06128 0.61466 0.0
H970 H 0.3467 0.29744 0.22936 0.0
H971 H 0.36585 0.29348 0.19512 0.0
H972 H 0.37262 0.23645 0.21186 0.0
H973 H 0.35352 0.24029 0.24614 0.0
H974 H 0.41261 0.28278 0.18762 0.0
H975 H 0.34117 0.23432 0.15373 0.0
H976 H 0.33529 0.24715 0.17655 0.0
H977 H 0.35191 0.22688 0.17912 0.0
C978 C 0.35224 0.28404 0.22574 0.0
C979 C 0.34857 0.26917 0.24047 0.0
C980 C 0.36307 0.28179 0.20615 0.0
C981 C 0.37037 0.26462 0.20084 0.0
C982 C 0.36661 0.24972 0.21543 0.0
H983 H 0.47853 0.24465 0.10488 0.0
H984 H 0.45554 0.24722 0.13788 0.0
C985 C 0.35571 0.25194 0.23503 0.0
C986 C 0.3831 0.26258 0.18048 0.0
H987 H 0.37977 0.23907 0.13531 0.0
C988 C 0.40538 0.27328 0.17614 0.0
C989 C 0.37349 0.25031 0.16545 0.0
C990 C 0.34903 0.23912 0.1688 0.0
C991 C 0.41855 0.27184 0.15731 0.0
C992 C 0.40939 0.25913 0.1426 0.0
C993 C 0.38688 0.24866 0.14674 0.0
C994 C 0.42283 0.25669 0.1227 0.0
C995 C 0.44197 0.28414 0.15321 0.0
C996 C 0.41174 0.26057 0.10327 0.0
C997 C 0.42478 0.25898 0.0845 0.0
C998 C 0.44904 0.25345 0.08495 0.0
C999 C 0.45988 0.24907 0.10431 0.0
C1000 C 0.44684 0.25063 0.12307 0.0
H1001 H 0.44295 0.29617 0.16329 0.0
H1002 H 0.4583 0.2763 0.15675 0.0
H1003 H 0.44327 0.28913 0.13647 0.0
H1004 H 0.39318 0.26515 0.10266 0.0
H1005 H 0.41612 0.26228 0.06964 0.0
H1006 H 0.84455 0.71593 0.70238 0.0
H1007 H 0.86233 0.68799 0.69196 0.0
H1008 H 0.82402 0.65761 0.74361 0.0
H1009 H 0.80621 0.68547 0.75413 0.0
H1010 H 0.89314 0.66866 0.71704 0.0
H1011 H 0.81093 0.62359 0.69527 0.0
H1012 H 0.80994 0.648 0.69748 0.0
H1013 H 0.80818 0.63298 0.72067 0.0
C1014 C 0.83972 0.70325 0.71139 0.0
C1015 C 0.82404 0.70292 0.72913 0.0
C1016 C 0.84979 0.6873 0.70536 0.0
C1017 C 0.84429 0.67068 0.71686 0.0
C1018 C 0.82806 0.67018 0.7342 0.0
H1019 H 0.90433 0.56569 0.72879 0.0
H1020 H 0.8799 0.59228 0.73052 0.0
C1021 C 0.81792 0.68613 0.74022 0.0
C1022 C 0.85746 0.65436 0.71204 0.0
H1023 H 0.8487 0.60917 0.70088 0.0
C1024 C 0.88345 0.65571 0.71323 0.0
C1025 C 0.84475 0.63747 0.70721 0.0
C1026 C 0.81692 0.63541 0.70488 0.0
C1027 C 0.89707 0.64049 0.71038 0.0
C1028 C 0.88436 0.62353 0.70584 0.0
C1029 C 0.85838 0.62221 0.70434 0.0
C1030 C 0.89775 0.60686 0.70354 0.0
C1031 C 0.92488 0.64254 0.71304 0.0
C1032 C 0.91545 0.60607 0.68746 0.0
C1033 C 0.92961 0.59098 0.68654 0.0
C1034 C 0.92623 0.57635 0.70163 0.0
C1035 C 0.90772 0.57687 0.71717 0.0
C1036 C 0.89359 0.59198 0.71808 0.0
H1037 H 0.93105 0.65521 0.72113 0.0
H1038 H 0.93139 0.6306 0.72217 0.0
H1039 H 0.93396 0.64327 0.69732 0.0
H1040 H 0.91866 0.61731 0.67589 0.0
H1041 H 0.94378 0.59107 0.67444 0.0
H1042 H 0.88882 0.30409 0.33815 0.0
H1043 H 0.90856 0.33403 0.34653 0.0
H1044 H 0.85001 0.36057 0.31473 0.0
H1045 H 0.83036 0.33071 0.30588 0.0
H1046 H 0.92407 0.36146 0.31427 0.0
H1047 H 0.85817 0.38664 0.37156 0.0
H1048 H 0.85892 0.36266 0.36634 0.0
H1049 H 0.84471 0.3778 0.34792 0.0
C1050 C 0.88006 0.31628 0.333 0.0
C1051 C 0.85809 0.31499 0.3212 0.0
C1052 C 0.89128 0.33336 0.33793 0.0
C1053 C 0.88063 0.34947 0.33139 0.0
C1054 C 0.85828 0.34827 0.32024 0.0
H1055 H 0.9281 0.4653 0.33015 0.0
H1056 H 0.90457 0.43528 0.3287 0.0
C1057 C 0.84707 0.33118 0.31521 0.0
C1058 C 0.8941 0.3675 0.33454 0.0
H1059 H 0.89081 0.40786 0.35878 0.0
C1060 C 0.91692 0.37157 0.32411 0.0
C1061 C 0.88453 0.38067 0.34722 0.0
C1062 C 0.86032 0.37676 0.35906 0.0
C1063 C 0.93029 0.38863 0.32572 0.0
C1064 C 0.92089 0.40179 0.33858 0.0
C1065 C 0.89803 0.39771 0.34902 0.0
C1066 C 0.93439 0.41997 0.34099 0.0
C1067 C 0.95399 0.39257 0.3131 0.0
C1068 C 0.95863 0.42133 0.34893 0.0
C1069 C 0.97208 0.43837 0.34952 0.0
C1070 C 0.96136 0.4543 0.34242 0.0
C1071 C 0.93671 0.45309 0.33548 0.0
C1072 C 0.92332 0.43602 0.33472 0.0
H1073 H 0.95496 0.38324 0.29988 0.0
H1074 H 0.95577 0.40693 0.30659 0.0
H1075 H 0.97008 0.39053 0.32346 0.0
H1076 H 0.96731 0.40917 0.35433 0.0
H1077 H 0.99101 0.43911 0.35513 0.0
H1078 H 0.22242 0.35227 0.73892 0.0
H1079 H 0.19302 0.37599 0.73771 0.0
H1080 H 0.15791 0.35197 0.68371 0.0
H1081 H 0.18735 0.32827 0.68468 0.0
H1082 H 0.18641 0.40117 0.70401 0.0
H1083 H 0.09913 0.35832 0.72312 0.0
H1084 H 0.12943 0.35032 0.72794 0.0
H1085 H 0.11693 0.35059 0.70182 0.0
C1086 C 0.20843 0.35202 0.72679 0.0
C1087 C 0.20724 0.33837 0.71189 0.0
C1088 C 0.1916 0.36554 0.72618 0.0
C1089 C 0.17313 0.36562 0.71077 0.0
C1090 C 0.1717 0.35194 0.696 0.0
H1091 H 0.05944 0.43927 0.6783 0.0
H1092 H 0.08776 0.4148 0.67937 0.0
C1093 C 0.18853 0.33839 0.69659 0.0
C1094 C 0.15618 0.38055 0.70957 0.0
H1095 H 0.09516 0.38932 0.71225 0.0
C1096 C 0.16646 0.3986 0.7059 0.0
C1097 C 0.13017 0.37713 0.71193 0.0
C1098 C 0.1182 0.35807 0.7166 0.0
C1099 C 0.15141 0.41334 0.70427 0.0
C1100 C 0.12541 0.40994 0.70676 0.0
C1101 C 0.1151 0.39187 0.71033 0.0
C1102 C 0.1086 0.42497 0.70593 0.0
C1103 C 0.16344 0.43236 0.69946 0.0
C1104 C 0.11083 0.43872 0.7206 0.0
C1105 C 0.09482 0.4528 0.71992 0.0
C1106 C 0.07613 0.45333 0.70465 0.0
C1107 C 0.07387 0.43944 0.69005 0.0
C1108 C 0.08991 0.42537 0.69074 0.0
H1109 H 0.18225 0.43201 0.69243 0.0
H1110 H 0.15195 0.44026 0.68849 0.0
H1111 H 0.16541 0.43975 0.71428 0.0
H1112 H 0.12485 0.4385 0.73269 0.0
H1113 H 0.09722 0.46333 0.7313 0.0
H1114 H 0.22432 0.68296 0.29514 0.0
H1115 H 0.1947 0.65593 0.2981 0.0
H1116 H 0.17924 0.66743 0.3625 0.0
H1117 H 0.20934 0.6942 0.35987 0.0
H1118 H 0.18837 0.63089 0.35678 0.0
H1119 H 0.11861 0.65459 0.3002 0.0
H1120 H 0.1497 0.65584 0.28985 0.0
H1121 H 0.14248 0.66996 0.31106 0.0
C1122 C 0.21466 0.67972 0.30995 0.0
C1123 C 0.21915 0.69076 0.32726 0.0
C1124 C 0.19755 0.66438 0.31154 0.0
C1125 C 0.18454 0.65983 0.33043 0.0
C1126 C 0.18897 0.67079 0.34774 0.0
H1127 H 0.05801 0.5793 0.34792 0.0
H1128 H 0.08621 0.60735 0.34673 0.0
C1129 C 0.20604 0.68615 0.34616 0.0
C1130 C 0.16696 0.64328 0.33236 0.0
H1131 H 0.11366 0.62327 0.31206 0.0
C1132 C 0.17197 0.62924 0.34708 0.0
C1133 C 0.14545 0.64127 0.31984 0.0
C1134 C 0.13854 0.65627 0.30447 0.0
C1135 C 0.15629 0.61306 0.34932 0.0
C1136 C 0.13524 0.61079 0.3363 0.0
C1137 C 0.12995 0.62499 0.32188 0.0
C1138 C 0.11843 0.59381 0.33741 0.0
C1139 C 0.16221 0.59861 0.36577 0.0
C1140 C 0.1272 0.57698 0.33244 0.0
C1141 C 0.11116 0.56104 0.33316 0.0
C1142 C 0.08614 0.56177 0.33871 0.0
C1143 C 0.07732 0.57855 0.34365 0.0
C1144 C 0.09335 0.59449 0.34293 0.0
H1145 H 0.17503 0.6043 0.37786 0.0
H1146 H 0.14504 0.59239 0.37372 0.0
H1147 H 0.17133 0.58759 0.35809 0.0
H1148 H 0.14638 0.57623 0.32779 0.0
H1149 H 0.11819 0.54817 0.32924 0.0
H1150 H 0.79995 0.85547 0.7206 0.0
H1151 H 0.79815 0.88119 0.6951 0.0
H1152 H 0.761 0.84537 0.65123 0.0
H1153 H 0.7617 0.81967 0.67704 0.0
H1154 H 0.81883 0.8853 0.65578 0.0
H1155 H 0.71655 0.88751 0.65109 0.0
H1156 H 0.73126 0.87454 0.67159 0.0
H1157 H 0.72738 0.86563 0.64583 0.0
C1158 C 0.79094 0.8531 0.7057 0.0
C1159 C 0.78077 0.83551 0.70097 0.0
C1160 C 0.79013 0.8678 0.69106 0.0
C1161 C 0.77913 0.86526 0.67138 0.0
C1162 C 0.76913 0.84772 0.66649 0.0
H1163 H 0.76742 0.93905 0.56126 0.0
H1164 H 0.76668 0.91216 0.5859 0.0
C1165 C 0.76983 0.83299 0.68117 0.0
C1166 C 0.77895 0.88092 0.65582 0.0
H1167 H 0.74076 0.90693 0.6267 0.0
C1168 C 0.80176 0.89006 0.64947 0.0
C1169 C 0.75664 0.88708 0.64758 0.0
C1170 C 0.73155 0.87831 0.65448 0.0
C1171 C 0.80288 0.90514 0.63503 0.0
C1172 C 0.78059 0.91132 0.62688 0.0
C1173 C 0.75779 0.9021 0.63301 0.0
C1174 C 0.78062 0.92752 0.61218 0.0
C1175 C 0.82788 0.91424 0.62838 0.0
C1176 C 0.78834 0.94501 0.61898 0.0
C1177 C 0.78862 0.96029 0.60502 0.0
C1178 C 0.78128 0.95825 0.58409 0.0
C1179 C 0.77323 0.94082 0.57736 0.0
C1180 C 0.7728 0.92554 0.59136 0.0
H1181 H 0.84319 0.9055 0.63247 0.0
H1182 H 0.82845 0.91752 0.61117 0.0
H1183 H 0.83121 0.92728 0.6365 0.0
H1184 H 0.79409 0.94681 0.63508 0.0
H1185 H 0.79468 0.97369 0.61048 0.0
H1186 H 0.72591 0.2182 0.22476 0.0
H1187 H 0.6939 0.21903 0.19784 0.0
H1188 H 0.68941 0.27673 0.20607 0.0
H1189 H 0.72097 0.27594 0.23354 0.0
H1190 H 0.64262 0.25656 0.20267 0.0
H1191 H 0.70758 0.24264 0.13853 0.0
H1192 H 0.70652 0.22618 0.16036 0.0
H1193 H 0.7181 0.24946 0.1641 0.0
C1194 C 0.71785 0.23102 0.22113 0.0
C1195 C 0.72608 0.24703 0.23126 0.0
C1196 C 0.69976 0.2315 0.20556 0.0
C1197 C 0.68963 0.248 0.19973 0.0
C1198 C 0.69716 0.26389 0.21025 0.0
H1199 H 0.61011 0.27088 0.08463 0.0
H1200 H 0.63919 0.27107 0.11395 0.0
C1201 C 0.71529 0.26343 0.22584 0.0
C1202 C 0.67155 0.24874 0.18235 0.0
H1203 H 0.66495 0.24231 0.12982 0.0
C1204 C 0.64747 0.25349 0.18672 0.0
C1205 C 0.67808 0.24497 0.16153 0.0
C1206 C 0.70403 0.24069 0.15572 0.0
C1207 C 0.62957 0.25424 0.17084 0.0
C1208 C 0.63589 0.2499 0.15015 0.0
C1209 C 0.6601 0.24547 0.14573 0.0
C1210 C 0.61778 0.25005 0.13274 0.0
C1211 C 0.60419 0.25994 0.17626 0.0
C1212 C 0.59621 0.23806 0.13351 0.0
C1213 C 0.57947 0.23799 0.11682 0.0
C1214 C 0.58407 0.24986 0.09899 0.0
C1215 C 0.60582 0.26177 0.09825 0.0
C1216 C 0.62253 0.26182 0.11493 0.0
H1217 H 0.60431 0.26725 0.19118 0.0
H1218 H 0.59718 0.26896 0.16351 0.0
H1219 H 0.59104 0.24756 0.17823 0.0
H1220 H 0.59241 0.22863 0.14694 0.0
H1221 H 0.56282 0.22875 0.11797 0.0
H1222 H 0.22405 0.20269 0.68443 0.0
H1223 H 0.21679 0.17347 0.6672 0.0
H1224 H 0.27763 0.18924 0.62444 0.0
H1225 H 0.28541 0.21812 0.6418 0.0
H1226 H 0.20651 0.16714 0.62381 0.0
H1227 H 0.29409 0.13892 0.64978 0.0
H1228 H 0.28172 0.15812 0.66187 0.0
H1229 H 0.2985 0.16143 0.63735 0.0
C1230 C 0.23597 0.19986 0.67145 0.0
C1231 C 0.25534 0.21272 0.66451 0.0
C1232 C 0.23171 0.18323 0.66157 0.0
C1233 C 0.2469 0.17912 0.64476 0.0
C1234 C 0.26595 0.19204 0.6376 0.0
H1235 H 0.26375 0.09678 0.55653 0.0
H1236 H 0.26533 0.12353 0.57812 0.0
C1237 C 0.27018 0.20863 0.6474 0.0
C1238 C 0.24293 0.16141 0.63448 0.0
H1239 H 0.27234 0.12373 0.62221 0.0
C1240 C 0.22072 0.1575 0.62365 0.0
C1241 C 0.26151 0.14887 0.63441 0.0
C1242 C 0.28521 0.15192 0.64664 0.0
C1243 C 0.21708 0.14174 0.61189 0.0
C1244 C 0.23604 0.12953 0.61125 0.0
C1245 C 0.2579 0.13318 0.62264 0.0
C1246 C 0.23424 0.11338 0.59802 0.0
C1247 C 0.19347 0.13865 0.59956 0.0
C1248 C 0.21623 0.09876 0.60209 0.0
C1249 C 0.21535 0.08335 0.58982 0.0
C1250 C 0.23258 0.08226 0.57336 0.0
C1251 C 0.25046 0.09702 0.5693 0.0
C1252 C 0.25132 0.11237 0.58154 0.0
H1253 H 0.18295 0.15107 0.59844 0.0
H1254 H 0.19759 0.13452 0.58342 0.0
H1255 H 0.18142 0.12741 0.60747 0.0
H1256 H 0.20315 0.09914 0.61498 0.0
H1257 H 0.20154 0.07212 0.5935 0.0
H1258 H 0.3612 0.79539 0.24038 0.0
H1259 H 0.3814 0.79778 0.20575 0.0
H1260 H 0.34134 0.74728 0.1893 0.0
H1261 H 0.32153 0.74454 0.22406 0.0
H1262 H 0.39262 0.74839 0.18208 0.0
H1263 H 0.35302 0.81043 0.14737 0.0
H1264 H 0.36638 0.81319 0.17294 0.0
H1265 H 0.33941 0.79757 0.17001 0.0
C1266 C 0.35662 0.78483 0.22936 0.0
C1267 C 0.33976 0.76977 0.23497 0.0
C1268 C 0.36799 0.78632 0.20951 0.0
C1269 C 0.36264 0.77282 0.19489 0.0
C1270 C 0.34557 0.75791 0.20032 0.0
H1271 H 0.41015 0.77281 0.06385 0.0
H1272 H 0.38586 0.77263 0.09671 0.0
C1273 C 0.33415 0.75643 0.22013 0.0
C1274 C 0.37604 0.77359 0.17447 0.0
H1275 H 0.38671 0.79937 0.12881 0.0
C1276 C 0.39126 0.75949 0.17039 0.0
C1277 C 0.37404 0.78801 0.15921 0.0
C1278 C 0.35717 0.8031 0.16244 0.0
C1279 C 0.4049 0.75959 0.15158 0.0
C1280 C 0.4035 0.7743 0.13659 0.0
C1281 C 0.38791 0.78822 0.14046 0.0
C1282 C 0.41805 0.77534 0.11676 0.0
C1283 C 0.42054 0.74387 0.14779 0.0
C1284 C 0.4441 0.77727 0.11721 0.0
C1285 C 0.45785 0.77739 0.09856 0.0
C1286 C 0.44572 0.77562 0.07926 0.0
C1287 C 0.41972 0.77415 0.07869 0.0
C1288 C 0.40594 0.77407 0.09735 0.0
H1289 H 0.41512 0.73175 0.1584 0.0
H1290 H 0.41897 0.73975 0.13124 0.0
H1291 H 0.44029 0.74824 0.15075 0.0
H1292 H 0.45376 0.77854 0.13201 0.0
H1293 H 0.47794 0.77861 0.09919 0.0
H1294 H 0.76337 0.18659 0.36374 0.0
H1295 H 0.75801 0.16205 0.3912 0.0
H1296 H 0.83497 0.15159 0.38448 0.0
H1297 H 0.84068 0.17639 0.35754 0.0
H1298 H 0.7651 0.12528 0.38706 0.0
H1299 H 0.82706 0.15489 0.44803 0.0
H1300 H 0.81631 0.16843 0.426 0.0
H1301 H 0.84186 0.15448 0.42276 0.0
C1302 C 0.77925 0.17928 0.36838 0.0
C1303 C 0.80246 0.18345 0.35847 0.0
C1304 C 0.77612 0.1652 0.38397 0.0
C1305 C 0.79616 0.15516 0.39005 0.0
C1306 C 0.81936 0.15937 0.38029 0.0
H1307 H 0.79765 0.04681 0.44845 0.0
H1308 H 0.79888 0.0741 0.42447 0.0
C1309 C 0.82251 0.17341 0.36472 0.0
C1310 C 0.79263 0.13968 0.40583 0.0
H1311 H 0.81452 0.12293 0.45248 0.0
C1312 C 0.77573 0.12482 0.40146 0.0
C1313 C 0.8063 0.13922 0.42472 0.0
C1314 C 0.82372 0.15519 0.4308 0.0
C1315 C 0.77273 0.10924 0.41515 0.0
C1316 C 0.7873 0.10841 0.43352 0.0
C1317 C 0.80358 0.12352 0.43825 0.0
C1318 C 0.78622 0.09189 0.44787 0.0
C1319 C 0.75393 0.09383 0.40987 0.0
C1320 C 0.77921 0.09296 0.46902 0.0
C1321 C 0.77868 0.07746 0.48267 0.0
C1322 C 0.78533 0.06074 0.47537 0.0
C1323 C 0.79241 0.05964 0.45428 0.0
C1324 C 0.79295 0.07513 0.44062 0.0
H1325 H 0.73976 0.09858 0.39875 0.0
H1326 H 0.76357 0.08301 0.4023 0.0
H1327 H 0.74438 0.08765 0.42427 0.0
H1328 H 0.77408 0.10578 0.47493 0.0
H1329 H 0.77319 0.0785 0.49895 0.0
H1330 H 0.31484 0.28891 0.80896 0.0
H1331 H 0.33519 0.28377 0.84275 0.0
H1332 H 0.36568 0.23584 0.81962 0.0
H1333 H 0.34526 0.24077 0.78584 0.0
H1334 H 0.33209 0.25282 0.87179 0.0
H1335 H 0.42702 0.26795 0.83827 0.0
H1336 H 0.39952 0.2737 0.82428 0.0
H1337 H 0.40821 0.25052 0.82544 0.0
C1338 C 0.3256 0.27713 0.81114 0.0
C1339 C 0.3286 0.26533 0.79464 0.0
C1340 C 0.33729 0.27427 0.83043 0.0
C1341 C 0.35225 0.25961 0.83353 0.0
C1342 C 0.35463 0.24746 0.81737 0.0
H1343 H 0.44886 0.22732 0.93497 0.0
H1344 H 0.42361 0.22844 0.90323 0.0
C1345 C 0.34297 0.25031 0.79808 0.0
C1346 C 0.36582 0.25729 0.85352 0.0
H1347 H 0.42411 0.25763 0.87396 0.0
C1348 C 0.3522 0.25388 0.87231 0.0
C1349 C 0.39205 0.25869 0.8541 0.0
C1350 C 0.40763 0.26307 0.8345 0.0
C1351 C 0.36417 0.2516 0.89169 0.0
C1352 C 0.39041 0.2531 0.89227 0.0
C1353 C 0.40399 0.25642 0.87345 0.0
C1354 C 0.40427 0.25165 0.91223 0.0
C1355 C 0.34863 0.24731 0.91131 0.0
C1356 C 0.40175 0.26433 0.92783 0.0
C1357 C 0.41604 0.26366 0.94605 0.0
C1358 C 0.43325 0.25036 0.94897 0.0
C1359 C 0.43552 0.23756 0.93338 0.0
C1360 C 0.42123 0.23825 0.91517 0.0
H1361 H 0.32954 0.24171 0.90756 0.0
H1362 H 0.35727 0.2373 0.92203 0.0
H1363 H 0.34715 0.26008 0.91979 0.0
H1364 H 0.38912 0.275 0.92571 0.0
H1365 H 0.4137 0.27362 0.95782 0.0
H1366 H 0.27175 0.84132 0.335 0.0
H1367 H 0.26134 0.86921 0.35166 0.0
H1368 H 0.24178 0.83771 0.40902 0.0
H1369 H 0.25121 0.80969 0.39228 0.0
H1370 H 0.20896 0.86434 0.39914 0.0
H1371 H 0.30721 0.89327 0.39519 0.0
H1372 H 0.29384 0.88743 0.37036 0.0
H1373 H 0.29821 0.86967 0.39008 0.0
C1374 C 0.26482 0.84027 0.35104 0.0
C1375 C 0.26259 0.82329 0.36239 0.0
C1376 C 0.25912 0.85626 0.36059 0.0
C1377 C 0.25125 0.85556 0.38169 0.0
C1378 C 0.24801 0.83856 0.39276 0.0
H1379 H 0.26259 0.93715 0.47374 0.0
H1380 H 0.26508 0.91089 0.45178 0.0
C1381 C 0.25362 0.82259 0.38323 0.0
C1382 C 0.24745 0.87256 0.39263 0.0
H1383 H 0.27818 0.91154 0.40973 0.0
C1384 C 0.22402 0.87474 0.40137 0.0
C1385 C 0.26724 0.88597 0.39569 0.0
C1386 C 0.29311 0.88397 0.38752 0.0
C1387 C 0.21991 0.8899 0.4133 0.0
C1388 C 0.2397 0.90333 0.41629 0.0
C1389 C 0.26301 0.90126 0.4073 0.0
C1390 C 0.2372 0.91907 0.42976 0.0
C1391 C 0.19472 0.89109 0.42323 0.0
C1392 C 0.22065 0.93239 0.42468 0.0
C1393 C 0.21919 0.94747 0.43724 0.0
C1394 C 0.23446 0.94956 0.45496 0.0
C1395 C 0.25085 0.93609 0.46003 0.0
C1396 C 0.25223 0.92104 0.44755 0.0
H1397 H 0.1833 0.8778 0.42326 0.0
H1398 H 0.19655 0.89545 0.43967 0.0
H1399 H 0.18466 0.90144 0.4142 0.0
H1400 H 0.20921 0.9313 0.4108 0.0
H1401 H 0.20658 0.95772 0.43281 0.0
H1402 H 0.69264 0.78967 0.81717 0.0
H1403 H 0.66115 0.78986 0.84489 0.0
H1404 H 0.68227 0.73787 0.87024 0.0
H1405 H 0.71352 0.73737 0.84229 0.0
H1406 H 0.62926 0.74135 0.86789 0.0
H1407 H 0.68065 0.79899 0.907 0.0
H1408 H 0.67469 0.80299 0.87947 0.0
H1409 H 0.69491 0.78578 0.88768 0.0
C1410 C 0.69031 0.77812 0.82842 0.0
C1411 C 0.70567 0.76354 0.8276 0.0
C1412 C 0.67248 0.77834 0.84436 0.0
C1413 C 0.66968 0.76402 0.85976 0.0
C1414 C 0.68429 0.74911 0.85856 0.0
H1415 H 0.59951 0.76339 0.98263 0.0
H1416 H 0.62812 0.76146 0.95278 0.0
C1417 C 0.7022 0.7489 0.84267 0.0
C1418 C 0.65208 0.76485 0.87752 0.0
H1419 H 0.64101 0.78886 0.92088 0.0
C1420 C 0.63177 0.75172 0.87949 0.0
C1421 C 0.65566 0.77828 0.89273 0.0
C1422 C 0.67775 0.79225 0.89182 0.0
C1423 C 0.61469 0.75182 0.89619 0.0
C1424 C 0.61798 0.76549 0.91114 0.0
C1425 C 0.63847 0.77848 0.90929 0.0
C1426 C 0.60059 0.76643 0.92904 0.0
C1427 C 0.59351 0.73712 0.89791 0.0
C1428 C 0.57579 0.77005 0.92552 0.0
C1429 C 0.55957 0.77118 0.9425 0.0
C1430 C 0.56797 0.76873 0.96317 0.0
C1431 C 0.59277 0.76525 0.96674 0.0
C1432 C 0.60901 0.76417 0.94976 0.0
H1433 H 0.5968 0.72535 0.88815 0.0
H1434 H 0.59054 0.73203 0.91451 0.0
H1435 H 0.57623 0.74294 0.89239 0.0
H1436 H 0.56907 0.77217 0.90966 0.0
H1437 H 0.54048 0.77396 0.93955 0.0
loop_
_geom_bond_atom_site_label_1
_geom_bond_atom_site_label_2
_geom_bond_distance
_geom_bond_site_symmetry_2
_ccdc_geom_bond_type
P0 O11 1.490 . S
P0 C14 1.812 . S
P0 C20 1.803 . S
P0 C26 1.819 . S
H1 C15 0.941 . S
H2 C16 0.939 . S
H3 C18 0.940 . S
H4 C19 0.940 . S
H5 C21 0.939 . S
H6 C22 0.942 . S
H7 C24 0.940 . S
H8 C25 0.939 . S
H9 C27 0.941 . S
H10 C31 0.939 . S
O11 P0 1.490 . S
H12 C28 0.939 . S
H13 C30 0.940 . S
C14 P0 1.812 . S
C14 C15 1.389 . S
C14 C19 1.391 . S
C15 H1 0.941 . S
C15 C14 1.389 . S
C15 C16 1.397 . S
C16 H2 0.939 . S
C16 C15 1.397 . S
C16 C17 1.378 . S
C17 C16 1.378 . S
C17 C18 1.378 . S
C18 H3 0.940 . S
C18 C17 1.378 . S
C18 C19 1.396 . S
C19 H4 0.940 . S
C19 C14 1.391 . S
C19 C18 1.396 . S
C20 P0 1.803 . S
C20 C21 1.378 . S
C20 C25 1.400 . S
C21 H5 0.939 . S
C21 C20 1.378 . S
C21 C22 1.361 . S
C22 H6 0.942 . S
C22 C21 1.361 . S
C22 C23 1.369 . S
C23 C22 1.369 . S
C23 C24 1.404 . S
C24 H7 0.940 . S
C24 C23 1.404 . S
C24 C25 1.389 . S
C25 H8 0.939 . S
C25 C20 1.400 . S
C25 C24 1.389 . S
C26 P0 1.819 . S
C26 C27 1.391 . S
C26 C31 1.391 . S
C27 H9 0.941 . S
C27 C26 1.391 . S
C27 C28 1.396 . S
C28 H12 0.939 . S
C28 C27 1.396 . S
C28 C29 1.397 . S
C29 C28 1.397 . S
C29 C30 1.385 . S
C30 H13 0.940 . S
C30 C29 1.385 . S
C30 C31 1.388 . S
C31 H10 0.939 . S
C31 C26 1.391 . S
C31 C30 1.388 . S
P32 O43 1.490 . S
P32 C46 1.812 . S
P32 C52 1.803 . S
P32 C58 1.819 . S
H33 C47 0.941 . S
H34 C48 0.939 . S
H35 C50 0.940 . S
H36 C51 0.940 . S
H37 C53 0.939 . S
H38 C54 0.942 . S
H39 C56 0.940 . S
H40 C57 0.939 . S
H41 C59 0.941 . S
H42 C63 0.939 . S
O43 P32 1.490 . S
H44 C60 0.939 . S
H45 C62 0.940 . S
C46 P32 1.812 . S
C46 C47 1.389 . S
C46 C51 1.391 . S
C47 H33 0.941 . S
C47 C46 1.389 . S
C47 C48 1.397 . S
C48 H34 0.939 . S
C48 C47 1.397 . S
C48 C49 1.378 . S
C49 C48 1.378 . S
C49 C50 1.378 . S
C50 H35 0.940 . S
C50 C49 1.378 . S
C50 C51 1.396 . S
C51 H36 0.940 . S
C51 C46 1.391 . S
C51 C50 1.396 . S
C52 P32 1.803 . S
C52 C53 1.378 . S
C52 C57 1.400 . S
C53 H37 0.939 . S
C53 C52 1.378 . S
C53 C54 1.361 . S
C54 H38 0.942 . S
C54 C53 1.361 . S
C54 C55 1.369 . S
C55 C54 1.369 . S
C55 C56 1.404 . S
C56 H39 0.940 . S
C56 C55 1.404 . S
C56 C57 1.389 . S
C57 H40 0.939 . S
C57 C52 1.400 . S
C57 C56 1.389 . S
C58 P32 1.819 . S
C58 C59 1.391 . S
C58 C63 1.391 . S
C59 H41 0.941 . S
C59 C58 1.391 . S
C59 C60 1.396 . S
C60 H44 0.939 . S
C60 C59 1.396 . S
C60 C61 1.397 . S
C61 C60 1.397 . S
C61 C62 1.385 . S
C62 H45 0.940 . S
C62 C61 1.385 . S
C62 C63 1.388 . S
C63 H42 0.939 . S
C63 C58 1.391 . S
C63 C62 1.388 . S
P64 O75 1.490 . S
P64 C78 1.812 . S
P64 C84 1.803 . S
P64 C90 1.819 . S
H65 C79 0.941 . S
H66 C80 0.939 . S
H67 C82 0.940 . S
H68 C83 0.940 . S
H69 C85 0.939 . S
H70 C86 0.942 . S
H71 C88 0.940 . S
H72 C89 0.939 . S
H73 C91 0.941 . S
H74 C95 0.939 . S
O75 P64 1.490 . S
H76 C92 0.939 . S
H77 C94 0.940 . S
C78 P64 1.812 . S
C78 C79 1.389 . S
C78 C83 1.391 . S
C79 H65 0.941 . S
C79 C78 1.389 . S
C79 C80 1.397 . S
C80 H66 0.939 . S
C80 C79 1.397 . S
C80 C81 1.378 . S
C81 C80 1.378 . S
C81 C82 1.378 . S
C82 H67 0.940 . S
C82 C81 1.378 . S
C82 C83 1.396 . S
C83 H68 0.940 . S
C83 C78 1.391 . S
C83 C82 1.396 . S
C84 P64 1.803 . S
C84 C85 1.378 . S
C84 C89 1.400 . S
C85 H69 0.939 . S
C85 C84 1.378 . S
C85 C86 1.361 . S
C86 H70 0.942 . S
C86 C85 1.361 . S
C86 C87 1.369 . S
C87 C86 1.369 . S
C87 C88 1.404 . S
C88 H71 0.940 . S
C88 C87 1.404 . S
C88 C89 1.389 . S
C89 H72 0.939 . S
C89 C84 1.400 . S
C89 C88 1.389 . S
C90 P64 1.819 . S
C90 C91 1.391 . S
C90 C95 1.391 . S
C91 H73 0.941 . S
C91 C90 1.391 . S
C91 C92 1.396 . S
C92 H76 0.939 . S
C92 C91 1.396 . S
C92 C93 1.397 . S
C93 C92 1.397 . S
C93 C94 1.385 . S
C94 H77 0.940 . S
C94 C93 1.385 . S
C94 C95 1.388 . S
C95 H74 0.939 . S
C95 C90 1.391 . S
C95 C94 1.388 . S
P96 O107 1.490 . S
P96 C110 1.812 . S
P96 C116 1.803 . S
P96 C122 1.819 . S
H97 C111 0.941 . S
H98 C112 0.939 . S
H99 C114 0.940 . S
H100 C115 0.940 . S
H101 C117 0.939 . S
H102 C118 0.942 . S
H103 C120 0.940 . S
H104 C121 0.939 . S
H105 C123 0.941 . S
H106 C127 0.939 . S
O107 P96 1.490 . S
H108 C124 0.939 . S
H109 C126 0.940 . S
C110 P96 1.812 . S
C110 C111 1.389 . S
C110 C115 1.391 . S
C111 H97 0.941 . S
C111 C110 1.389 . S
C111 C112 1.397 . S
C112 H98 0.939 . S
C112 C111 1.397 . S
C112 C113 1.378 . S
C113 C112 1.378 . S
C113 C114 1.378 . S
C114 H99 0.940 . S
C114 C113 1.378 . S
C114 C115 1.396 . S
C115 H100 0.940 . S
C115 C110 1.391 . S
C115 C114 1.396 . S
C116 P96 1.803 . S
C116 C117 1.378 . S
C116 C121 1.400 . S
C117 H101 0.939 . S
C117 C116 1.378 . S
C117 C118 1.361 . S
C118 H102 0.942 . S
C118 C117 1.361 . S
C118 C119 1.369 . S
C119 C118 1.369 . S
C119 C120 1.404 . S
C120 H103 0.940 . S
C120 C119 1.404 . S
C120 C121 1.389 . S
C121 H104 0.939 . S
C121 C116 1.400 . S
C121 C120 1.389 . S
C122 P96 1.819 . S
C122 C123 1.391 . S
C122 C127 1.391 . S
C123 H105 0.941 . S
C123 C122 1.391 . S
C123 C124 1.396 . S
C124 H108 0.939 . S
C124 C123 1.396 . S
C124 C125 1.397 . S
C125 C124 1.397 . S
C125 C126 1.385 . S
C126 H109 0.940 . S
C126 C125 1.385 . S
C126 C127 1.388 . S
C127 H106 0.939 . S
C127 C122 1.391 . S
C127 C126 1.388 . S
P128 O139 1.490 . S
P128 C142 1.812 . S
P128 C148 1.803 . S
P128 C154 1.819 . S
H129 C143 0.941 . S
H130 C144 0.939 . S
H131 C146 0.940 . S
H132 C147 0.940 . S
H133 C149 0.939 . S
H134 C150 0.942 . S
H135 C152 0.940 . S
H136 C153 0.939 . S
H137 C155 0.941 . S
H138 C159 0.939 . S
O139 P128 1.490 . S
H140 C156 0.939 . S
H141 C158 0.940 . S
C142 P128 1.812 . S
C142 C143 1.389 . S
C142 C147 1.391 . S
C143 H129 0.941 . S
C143 C142 1.389 . S
C143 C144 1.397 . S
C144 H130 0.939 . S
C144 C143 1.397 . S
C144 C145 1.378 . S
C145 C144 1.378 . S
C145 C146 1.378 . S
C146 H131 0.940 . S
C146 C145 1.378 . S
C146 C147 1.396 . S
C147 H132 0.940 . S
C147 C142 1.391 . S
C147 C146 1.396 . S
C148 P128 1.803 . S
C148 C149 1.378 . S
C148 C153 1.400 . S
C149 H133 0.939 . S
C149 C148 1.378 . S
C149 C150 1.361 . S
C150 H134 0.942 . S
C150 C149 1.361 . S
C150 C151 1.369 . S
C151 C150 1.369 . S
C151 C152 1.404 . S
C152 H135 0.940 . S
C152 C151 1.404 . S
C152 C153 1.389 . S
C153 H136 0.939 . S
C153 C148 1.400 . S
C153 C152 1.389 . S
C154 P128 1.819 . S
C154 C155 1.391 . S
C154 C159 1.391 . S
C155 H137 0.941 . S
C155 C154 1.391 . S
C155 C156 1.396 . S
C156 H140 0.939 . S
C156 C155 1.396 . S
C156 C157 1.397 . S
C157 C156 1.397 . S
C157 C158 1.385 . S
C158 H141 0.940 . S
C158 C157 1.385 . S
C158 C159 1.388 . S
C159 H138 0.939 . S
C159 C154 1.391 . S
C159 C158 1.388 . S
P160 O171 1.490 . S
P160 C174 1.812 . S
P160 C180 1.803 . S
P160 C186 1.819 . S
H161 C175 0.941 . S
H162 C176 0.939 . S
H163 C178 0.940 . S
H164 C179 0.940 . S
H165 C181 0.939 . S
H166 C182 0.942 . S
H167 C184 0.940 . S
H168 C185 0.939 . S
H169 C187 0.941 . S
H170 C191 0.939 . S
O171 P160 1.490 . S
H172 C188 0.939 . S
H173 C190 0.940 . S
C174 P160 1.812 . S
C174 C175 1.389 . S
C174 C179 1.391 . S
C175 H161 0.941 . S
C175 C174 1.389 . S
C175 C176 1.397 . S
C176 H162 0.939 . S
C176 C175 1.397 . S
C176 C177 1.378 . S
C177 C176 1.378 . S
C177 C178 1.378 . S
C178 H163 0.940 . S
C178 C177 1.378 . S
C178 C179 1.396 . S
C179 H164 0.940 . S
C179 C174 1.391 . S
C179 C178 1.396 . S
C180 P160 1.803 . S
C180 C181 1.378 . S
C180 C185 1.400 . S
C181 H165 0.939 . S
C181 C180 1.378 . S
C181 C182 1.361 . S
C182 H166 0.942 . S
C182 C181 1.361 . S
C182 C183 1.369 . S
C183 C182 1.369 . S
C183 C184 1.404 . S
C184 H167 0.940 . S
C184 C183 1.404 . S
C184 C185 1.389 . S
C185 H168 0.939 . S
C185 C180 1.400 . S
C185 C184 1.389 . S
C186 P160 1.819 . S
C186 C187 1.391 . S
C186 C191 1.391 . S
C187 H169 0.941 . S
C187 C186 1.391 . S
C187 C188 1.396 . S
C188 H172 0.939 . S
C188 C187 1.396 . S
C188 C189 1.397 . S
C189 C188 1.397 . S
C189 C190 1.385 . S
C190 H173 0.940 . S
C190 C189 1.385 . S
C190 C191 1.388 . S
C191 H170 0.939 . S
C191 C186 1.391 . S
C191 C190 1.388 . S
P192 O203 1.490 . S
P192 C206 1.812 . S
P192 C212 1.803 . S
P192 C218 1.819 . S
H193 C207 0.941 . S
H194 C208 0.939 . S
H195 C210 0.940 . S
H196 C211 0.940 . S
H197 C213 0.939 . S
H198 C214 0.942 . S
H199 C216 0.940 . S
H200 C217 0.939 . S
H201 C219 0.941 . S
H202 C223 0.939 . S
O203 P192 1.490 . S
H204 C220 0.939 . S
H205 C222 0.940 . S
C206 P192 1.812 . S
C206 C207 1.389 . S
C206 C211 1.391 . S
C207 H193 0.941 . S
C207 C206 1.389 . S
C207 C208 1.397 . S
C208 H194 0.939 . S
C208 C207 1.397 . S
C208 C209 1.378 . S
C209 C208 1.378 . S
C209 C210 1.378 . S
C210 H195 0.940 . S
C210 C209 1.378 . S
C210 C211 1.396 . S
C211 H196 0.940 . S
C211 C206 1.391 . S
C211 C210 1.396 . S
C212 P192 1.803 . S
C212 C213 1.378 . S
C212 C217 1.400 . S
C213 H197 0.939 . S
C213 C212 1.378 . S
C213 C214 1.361 . S
C214 H198 0.942 . S
C214 C213 1.361 . S
C214 C215 1.369 . S
C215 C214 1.369 . S
C215 C216 1.404 . S
C216 H199 0.940 . S
C216 C215 1.404 . S
C216 C217 1.389 . S
C217 H200 0.939 . S
C217 C212 1.400 . S
C217 C216 1.389 . S
C218 P192 1.819 . S
C218 C219 1.391 . S
C218 C223 1.391 . S
C219 H201 0.941 . S
C219 C218 1.391 . S
C219 C220 1.396 . S
C220 H204 0.939 . S
C220 C219 1.396 . S
C220 C221 1.397 . S
C221 C220 1.397 . S
C221 C222 1.385 . S
C222 H205 0.940 . S
C222 C221 1.385 . S
C222 C223 1.388 . S
C223 H202 0.939 . S
C223 C218 1.391 . S
C223 C222 1.388 . S
P224 O235 1.490 . S
P224 C238 1.812 . S
P224 C244 1.803 . S
P224 C250 1.819 . S
H225 C239 0.941 . S
H226 C240 0.939 . S
H227 C242 0.940 . S
H228 C243 0.940 . S
H229 C245 0.939 . S
H230 C246 0.942 . S
H231 C248 0.940 . S
H232 C249 0.939 . S
H233 C251 0.941 . S
H234 C255 0.939 . S
O235 P224 1.490 . S
H236 C252 0.939 . S
H237 C254 0.940 . S
C238 P224 1.812 . S
C238 C239 1.389 . S
C238 C243 1.391 . S
C239 H225 0.941 . S
C239 C238 1.389 . S
C239 C240 1.397 . S
C240 H226 0.939 . S
C240 C239 1.397 . S
C240 C241 1.378 . S
C241 C240 1.378 . S
C241 C242 1.378 . S
C242 H227 0.940 . S
C242 C241 1.378 . S
C242 C243 1.396 . S
C243 H228 0.940 . S
C243 C238 1.391 . S
C243 C242 1.396 . S
C244 P224 1.803 . S
C244 C245 1.378 . S
C244 C249 1.400 . S
C245 H229 0.939 . S
C245 C244 1.378 . S
C245 C246 1.361 . S
C246 H230 0.942 . S
C246 C245 1.361 . S
C246 C247 1.369 . S
C247 C246 1.369 . S
C247 C248 1.404 . S
C248 H231 0.940 . S
C248 C247 1.404 . S
C248 C249 1.389 . S
C249 H232 0.939 . S
C249 C244 1.400 . S
C249 C248 1.389 . S
C250 P224 1.819 . S
C250 C251 1.391 . S
C250 C255 1.391 . S
C251 H233 0.941 . S
C251 C250 1.391 . S
C251 C252 1.396 . S
C252 H236 0.939 . S
C252 C251 1.396 . S
C252 C253 1.397 . S
C253 C252 1.397 . S
C253 C254 1.385 . S
C254 H237 0.940 . S
C254 C253 1.385 . S
C254 C255 1.388 . S
C255 H234 0.939 . S
C255 C250 1.391 . S
C255 C254 1.388 . S
C256 C257 1.443 . S
C256 N260 1.376 . S
C256 C294 1.389 . S
C257 C256 1.443 . S
C257 C258 1.340 . S
C257 H297 0.951 . S
C258 C257 1.340 . S
C258 C259 1.439 . S
C258 H298 0.950 . S
C259 C258 1.439 . S
C259 N260 1.374 . S
C259 C293 1.395 . S
N260 C256 1.376 . S
N260 C259 1.374 . S
N260 Co261 2.008 . S
Co261 N260 2.008 . S
Co261 N262 1.995 . S
Co261 N267 2.008 . S
Co261 N272 1.995 . S
Co261 N277 2.282 . S
Co261 N283 2.294 . S
N262 Co261 1.995 . S
N262 C263 1.376 . S
N262 C266 1.383 1_455 S
C263 N262 1.376 . S
C263 C264 1.446 1_455 S
C263 C293 1.391 . S
C264 C263 1.446 1_655 S
C264 C265 1.339 . S
C264 H299 0.949 . S
C265 C264 1.339 . S
C265 C266 1.439 . S
C265 H300 0.950 . S
C266 N262 1.383 1_655 S
C266 C265 1.439 . S
C266 C295 1.392 . S
N267 Co261 2.008 . S
N267 C268 1.376 1_455 S
N267 C271 1.374 . S
C268 N267 1.376 1_655 S
C268 C269 1.443 . S
C268 C295 1.389 . S
C269 C268 1.443 . S
C269 C270 1.340 1_655 S
C269 H301 0.951 . S
C270 C269 1.340 1_455 S
C270 C271 1.439 . S
C270 H302 0.950 . S
C271 N267 1.374 . S
C271 C270 1.439 . S
C271 C296 1.395 . S
N272 Co261 1.995 . S
N272 C273 1.376 . S
N272 C276 1.383 . S
C273 N272 1.376 . S
C273 C274 1.446 . S
C273 C296 1.391 . S
C274 C273 1.446 . S
C274 C275 1.339 . S
C274 H303 0.949 . S
C275 C274 1.339 . S
C275 C276 1.439 . S
C275 H304 0.950 . S
C276 N272 1.383 . S
C276 C275 1.439 . S
C276 C294 1.392 . S
N277 Co261 2.282 . S
N277 C280 1.332 . S
N277 C282 1.332 . S
C278 C279 1.386 . S
C278 C281 1.388 . S
C279 C278 1.386 . S
C279 C280 1.382 . S
C279 H305 0.950 . S
C280 N277 1.332 . S
C280 C279 1.382 . S
C280 H291 0.952 . S
C281 C278 1.388 . S
C281 C282 1.382 . S
C281 H306 0.950 . S
C282 N277 1.332 . S
C282 C281 1.382 . S
C282 H292 0.948 . S
N283 Co261 2.294 . S
N283 C287 1.325 1_455 S
N283 C288 1.330 1_455 S
C284 C285 1.388 . S
C284 C288 1.382 . S
C284 H307 0.950 . S
C285 C284 1.388 . S
C285 C286 1.386 . S
C286 C285 1.386 . S
C286 C287 1.382 . S
C286 H308 0.950 . S
C287 N283 1.325 1_655 S
C287 C286 1.382 . S
C287 H289 0.952 . S
C288 N283 1.330 1_655 S
C288 C284 1.382 . S
C288 H290 0.948 1_655 S
H289 C287 0.952 . S
H290 C288 0.948 1_455 S
H291 C280 0.952 . S
H292 C282 0.948 . S
C293 C259 1.395 . S
C293 C263 1.391 . S
C294 C256 1.389 . S
C294 C276 1.392 . S
C295 C266 1.392 . S
C295 C268 1.389 . S
C296 C271 1.395 . S
C296 C273 1.391 . S
H297 C257 0.951 . S
H298 C258 0.950 . S
H299 C264 0.949 . S
H300 C265 0.950 . S
H301 C269 0.951 . S
H302 C270 0.950 . S
H303 C274 0.949 . S
H304 C275 0.950 . S
H305 C279 0.950 . S
H306 C281 0.950 . S
H307 C284 0.950 . S
H308 C286 0.950 . S
C309 C310 1.443 . S
C309 N313 1.376 . S
C309 C347 1.389 . S
C310 C309 1.443 . S
C310 C311 1.340 . S
C310 H350 0.951 . S
C311 C310 1.340 . S
C311 C312 1.439 . S
C311 H351 0.950 . S
C312 C311 1.439 . S
C312 N313 1.374 . S
C312 C346 1.395 . S
N313 C309 1.376 . S
N313 C312 1.374 . S
N313 Co314 2.008 . S
Co314 N313 2.008 . S
Co314 N315 1.995 1_455 S
Co314 N320 2.008 1_455 S
Co314 N325 1.995 . S
Co314 N330 2.282 . S
Co314 N336 2.282 1_455 S
N315 Co314 1.995 1_655 S
N315 C316 1.376 . S
N315 C319 1.383 . S
C316 N315 1.376 . S
C316 C317 1.446 . S
C316 C346 1.391 1_655 S
C317 C316 1.446 . S
C317 C318 1.339 . S
C317 H352 0.949 . S
C318 C317 1.339 . S
C318 C319 1.439 . S
C318 H353 0.950 . S
C319 N315 1.383 . S
C319 C318 1.439 . S
C319 C348 1.392 . S
N320 Co314 2.008 1_655 S
N320 C321 1.376 . S
N320 C324 1.374 . S
C321 N320 1.376 . S
C321 C322 1.443 . S
C321 C348 1.389 . S
C322 C321 1.443 . S
C322 C323 1.340 . S
C322 H354 0.951 . S
C323 C322 1.340 . S
C323 C324 1.439 . S
C323 H355 0.950 . S
C324 N320 1.374 . S
C324 C323 1.439 . S
C324 C349 1.395 1_655 S
N325 Co314 1.995 . S
N325 C326 1.376 . S
N325 C329 1.383 . S
C326 N325 1.376 . S
C326 C327 1.446 . S
C326 C349 1.391 . S
C327 C326 1.446 . S
C327 C328 1.339 . S
C327 H356 0.949 . S
C328 C327 1.339 . S
C328 C329 1.439 . S
C328 H357 0.950 . S
C329 N325 1.383 . S
C329 C328 1.439 . S
C329 C347 1.392 . S
N330 Co314 2.282 . S
N330 C333 1.332 . S
N330 C335 1.332 . S
C331 C332 1.386 . S
C331 C334 1.388 . S
C332 C331 1.386 . S
C332 C333 1.382 . S
C332 H358 0.950 . S
C333 N330 1.332 . S
C333 C332 1.382 . S
C333 H344 0.952 . S
C334 C331 1.388 . S
C334 C335 1.382 . S
C334 H359 0.950 . S
C335 N330 1.332 . S
C335 C334 1.382 . S
C335 H345 0.948 . S
N336 Co314 2.282 1_655 S
N336 C340 1.332 . S
N336 C341 1.332 . S
C337 C338 1.388 . S
C337 C341 1.382 . S
C337 H360 0.950 . S
C338 C337 1.388 . S
C338 C339 1.386 . S
C339 C338 1.386 . S
C339 C340 1.382 . S
C339 H361 0.950 . S
C340 N336 1.332 . S
C340 C339 1.382 . S
C340 H342 0.952 . S
C341 N336 1.332 . S
C341 C337 1.382 . S
C341 H343 0.948 . S
H342 C340 0.952 . S
H343 C341 0.948 . S
H344 C333 0.952 . S
H345 C335 0.948 . S
C346 C312 1.395 . S
C346 C316 1.391 1_455 S
C347 C309 1.389 . S
C347 C329 1.392 . S
C348 C319 1.392 . S
C348 C321 1.389 . S
C349 C324 1.395 1_455 S
C349 C326 1.391 . S
H350 C310 0.951 . S
H351 C311 0.950 . S
H352 C317 0.949 . S
H353 C318 0.950 . S
H354 C322 0.951 . S
H355 C323 0.950 . S
H356 C327 0.949 . S
H357 C328 0.950 . S
H358 C332 0.950 . S
H359 C334 0.950 . S
H360 C337 0.950 . S
H361 C339 0.950 . S
C362 C363 1.443 . S
C362 N366 1.420 . S
C362 C400 1.389 . S
C363 C362 1.443 . S
C363 C364 1.340 . S
C363 H403 0.951 . S
C364 C363 1.340 . S
C364 C365 1.399 1_565 S
C364 H404 0.950 . S
C365 C364 1.399 1_545 S
C365 N366 1.378 1_545 S
C365 C399 1.429 . S
N366 C362 1.420 . S
N366 C365 1.378 1_565 S
N366 Co367 1.978 1_565 S
Co367 N366 1.978 1_545 S
Co367 N368 1.995 . S
Co367 N373 2.008 . S
Co367 N378 1.995 1_545 S
Co367 N383 2.282 . S
Co367 N389 2.282 1_545 S
N368 Co367 1.995 . S
N368 C369 1.376 . S
N368 C372 1.383 . S
C369 N368 1.376 . S
C369 C370 1.446 . S
C369 C399 1.391 . S
C370 C369 1.446 . S
C370 C371 1.339 . S
C370 H405 0.949 . S
C371 C370 1.339 . S
C371 C372 1.439 . S
C371 H406 0.950 . S
C372 N368 1.383 . S
C372 C371 1.439 . S
C372 C401 1.392 . S
N373 Co367 2.008 . S
N373 C374 1.376 . S
N373 C377 1.374 . S
C374 N373 1.376 . S
C374 C375 1.443 . S
C374 C401 1.389 . S
C375 C374 1.443 . S
C375 C376 1.340 . S
C375 H407 0.951 . S
C376 C375 1.340 . S
C376 C377 1.439 . S
C376 H408 0.950 . S
C377 N373 1.374 . S
C377 C376 1.439 . S
C377 C402 1.395 . S
N378 Co367 1.995 1_565 S
N378 C379 1.375 1_565 S
N378 C382 1.383 . S
C379 N378 1.375 1_545 S
C379 C380 1.441 1_545 S
C379 C402 1.396 . S
C380 C379 1.441 1_565 S
C380 C381 1.339 . S
C380 H409 0.949 . S
C381 C380 1.339 . S
C381 C382 1.439 . S
C381 H410 0.950 . S
C382 N378 1.383 . S
C382 C381 1.439 . S
C382 C400 1.392 . S
N383 Co367 2.282 . S
N383 C386 1.332 . S
N383 C388 1.332 . S
C384 C385 1.386 . S
C384 C387 1.388 . S
C385 C384 1.386 . S
C385 C386 1.382 . S
C385 H411 0.950 . S
C386 N383 1.332 . S
C386 C385 1.382 . S
C386 H397 0.952 . S
C387 C384 1.388 . S
C387 C388 1.382 . S
C387 H412 0.950 . S
C388 N383 1.332 . S
C388 C387 1.382 . S
C388 H398 0.948 . S
N389 Co367 2.282 1_565 S
N389 C393 1.332 . S
N389 C394 1.332 . S
C390 C391 1.388 . S
C390 C394 1.382 . S
C390 H413 0.950 . S
C391 C390 1.388 . S
C391 C392 1.386 . S
C392 C391 1.386 . S
C392 C393 1.382 . S
C392 H414 0.950 . S
C393 N389 1.332 . S
C393 C392 1.382 . S
C393 H395 0.952 . S
C394 N389 1.332 . S
C394 C390 1.382 . S
C394 H396 0.948 . S
H395 C393 0.952 . S
H396 C394 0.948 . S
H397 C386 0.952 . S
H398 C388 0.948 . S
C399 C365 1.429 . S
C399 C369 1.391 . S
C400 C362 1.389 . S
C400 C382 1.392 . S
C401 C372 1.392 . S
C401 C374 1.389 . S
C402 C377 1.395 . S
C402 C379 1.396 . S
H403 C363 0.951 . S
H404 C364 0.950 . S
H405 C370 0.949 . S
H406 C371 0.950 . S
H407 C375 0.951 . S
H408 C376 0.950 . S
H409 C380 0.949 . S
H410 C381 0.950 . S
H411 C385 0.950 . S
H412 C387 0.950 . S
H413 C390 0.950 . S
H414 C392 0.950 . S
C415 C416 1.443 . S
C415 N419 1.376 . S
C415 C453 1.389 . S
C416 C415 1.443 . S
C416 C417 1.340 . S
C416 H456 0.951 . S
C417 C416 1.340 . S
C417 C418 1.439 . S
C417 H457 0.950 . S
C418 C417 1.439 . S
C418 N419 1.374 . S
C418 C452 1.395 . S
N419 C415 1.376 . S
N419 C418 1.374 . S
N419 Co420 2.008 . S
Co420 N419 2.008 . S
Co420 N421 2.023 . S
Co420 N426 2.013 . S
Co420 N431 1.995 . S
Co420 N436 2.282 1_554 S
Co420 N442 2.282 . S
N421 Co420 2.023 . S
N421 C422 1.386 . S
N421 C425 1.337 1_554 S
C422 N421 1.386 . S
C422 C423 1.446 1_554 S
C422 C452 1.391 . S
C423 C422 1.446 1_556 S
C423 C424 1.339 . S
C423 H458 0.949 . S
C424 C423 1.339 . S
C424 C425 1.439 . S
C424 H459 0.950 . S
C425 N421 1.337 1_556 S
C425 C424 1.439 . S
C425 C454 1.392 . S
N426 Co420 2.013 . S
N426 C427 1.369 1_554 S
N426 C430 1.374 . S
C427 N426 1.369 1_556 S
C427 C428 1.443 . S
C427 C454 1.389 . S
C428 C427 1.443 . S
C428 C429 1.340 . S
C428 H460 0.951 . S
C429 C428 1.340 . S
C429 C430 1.439 1_556 S
C429 H461 0.950 . S
C430 N426 1.374 . S
C430 C429 1.439 1_554 S
C430 C455 1.395 . S
N431 Co420 1.995 . S
N431 C432 1.376 . S
N431 C435 1.383 . S
C432 N431 1.376 . S
C432 C433 1.446 . S
C432 C455 1.391 . S
C433 C432 1.446 . S
C433 C434 1.339 . S
C433 H462 0.949 . S
C434 C433 1.339 . S
C434 C435 1.439 . S
C434 H463 0.950 . S
C435 N431 1.383 . S
C435 C434 1.439 . S
C435 C453 1.392 . S
N436 Co420 2.282 1_556 S
N436 C439 1.332 . S
N436 C441 1.332 . S
C437 C438 1.386 . S
C437 C440 1.388 . S
C438 C437 1.386 . S
C438 C439 1.382 . S
C438 H464 0.950 . S
C439 N436 1.332 . S
C439 C438 1.382 . S
C439 H450 0.952 . S
C440 C437 1.388 . S
C440 C441 1.382 . S
C440 H465 0.950 . S
C441 N436 1.332 . S
C441 C440 1.382 . S
C441 H451 0.948 . S
N442 Co420 2.282 . S
N442 C446 1.332 . S
N442 C447 1.332 . S
C443 C444 1.388 . S
C443 C447 1.382 . S
C443 H466 0.950 . S
C444 C443 1.388 . S
C444 C445 1.386 . S
C445 C444 1.386 . S
C445 C446 1.382 . S
C445 H467 0.950 . S
C446 N442 1.332 . S
C446 C445 1.382 . S
C446 H448 0.952 . S
C447 N442 1.332 . S
C447 C443 1.382 . S
C447 H449 0.948 . S
H448 C446 0.952 . S
H449 C447 0.948 . S
H450 C439 0.952 . S
H451 C441 0.948 . S
C452 C418 1.395 . S
C452 C422 1.391 . S
C453 C415 1.389 . S
C453 C435 1.392 . S
C454 C425 1.392 . S
C454 C427 1.389 . S
C455 C430 1.395 . S
C455 C432 1.391 . S
H456 C416 0.951 . S
H457 C417 0.950 . S
H458 C423 0.949 . S
H459 C424 0.950 . S
H460 C428 0.951 . S
H461 C429 0.950 . S
H462 C433 0.949 . S
H463 C434 0.950 . S
H464 C438 0.950 . S
H465 C440 0.950 . S
H466 C443 0.950 . S
H467 C445 0.950 . S
C468 C469 1.443 . S
C468 N472 1.376 . S
C468 C506 1.389 . S
C469 C468 1.443 . S
C469 C470 1.340 . S
C469 H509 0.951 . S
C470 C469 1.340 . S
C470 C471 1.439 . S
C470 H510 0.950 . S
C471 C470 1.439 . S
C471 N472 1.374 . S
C471 C505 1.395 1_565 S
N472 C468 1.376 . S
N472 C471 1.374 . S
N472 Co473 2.008 1_565 S
Co473 N472 2.008 1_545 S
Co473 N474 1.995 . S
Co473 N479 2.008 . S
Co473 N484 1.995 1_545 S
Co473 N489 2.282 . S
Co473 N495 2.282 1_545 S
N474 Co473 1.995 . S
N474 C475 1.376 . S
N474 C478 1.383 . S
C475 N474 1.376 . S
C475 C476 1.446 . S
C475 C505 1.391 . S
C476 C475 1.446 . S
C476 C477 1.339 . S
C476 H511 0.949 . S
C477 C476 1.339 . S
C477 C478 1.439 . S
C477 H512 0.950 . S
C478 N474 1.383 . S
C478 C477 1.439 . S
C478 C507 1.392 . S
N479 Co473 2.008 . S
N479 C480 1.376 . S
N479 C483 1.374 . S
C480 N479 1.376 . S
C480 C481 1.443 . S
C480 C507 1.389 . S
C481 C480 1.443 . S
C481 C482 1.340 . S
C481 H513 0.951 . S
C482 C481 1.340 . S
C482 C483 1.439 . S
C482 H514 0.950 . S
C483 N479 1.374 . S
C483 C482 1.439 . S
C483 C508 1.395 . S
N484 Co473 1.995 1_565 S
N484 C485 1.376 . S
N484 C488 1.383 . S
C485 N484 1.376 . S
C485 C486 1.446 . S
C485 C508 1.391 1_565 S
C486 C485 1.446 . S
C486 C487 1.339 . S
C486 H515 0.949 . S
C487 C486 1.339 . S
C487 C488 1.439 . S
C487 H516 0.950 . S
C488 N484 1.383 . S
C488 C487 1.439 . S
C488 C506 1.392 . S
N489 Co473 2.282 . S
N489 C492 1.332 . S
N489 C494 1.332 . S
C490 C491 1.386 . S
C490 C493 1.388 . S
C491 C490 1.386 . S
C491 C492 1.382 . S
C491 H517 0.950 . S
C492 N489 1.332 . S
C492 C491 1.382 . S
C492 H503 0.952 . S
C493 C490 1.388 . S
C493 C494 1.382 . S
C493 H518 0.950 . S
C494 N489 1.332 . S
C494 C493 1.382 . S
C494 H504 0.948 . S
N495 Co473 2.282 1_565 S
N495 C499 1.332 . S
N495 C500 1.332 . S
C496 C497 1.388 . S
C496 C500 1.382 . S
C496 H519 0.950 . S
C497 C496 1.388 . S
C497 C498 1.386 . S
C498 C497 1.386 . S
C498 C499 1.382 . S
C498 H520 0.950 . S
C499 N495 1.332 . S
C499 C498 1.382 . S
C499 H501 0.952 . S
C500 N495 1.332 . S
C500 C496 1.382 . S
C500 H502 0.948 . S
H501 C499 0.952 . S
H502 C500 0.948 . S
H503 C492 0.952 . S
H504 C494 0.948 . S
C505 C471 1.395 1_545 S
C505 C475 1.391 . S
C506 C468 1.389 . S
C506 C488 1.392 . S
C507 C478 1.392 . S
C507 C480 1.389 . S
C508 C483 1.395 . S
C508 C485 1.391 1_545 S
H509 C469 0.951 . S
H510 C470 0.950 . S
H511 C476 0.949 . S
H512 C477 0.950 . S
H513 C481 0.951 . S
H514 C482 0.950 . S
H515 C486 0.949 . S
H516 C487 0.950 . S
H517 C491 0.950 . S
H518 C493 0.950 . S
H519 C496 0.950 . S
H520 C498 0.950 . S
C521 C522 1.443 . S
C521 N525 1.376 . S
C521 C559 1.389 . S
C522 C521 1.443 . S
C522 C523 1.340 . S
C522 H562 0.951 . S
C523 C522 1.340 . S
C523 C524 1.439 . S
C523 H563 0.950 . S
C524 C523 1.439 . S
C524 N525 1.374 . S
C524 C558 1.395 . S
N525 C521 1.376 . S
N525 C524 1.374 . S
N525 Co526 2.008 . S
Co526 N525 2.008 . S
Co526 N527 1.995 . S
Co526 N532 2.008 . S
Co526 N537 1.995 . S
Co526 N542 2.282 . S
Co526 N548 2.282 . S
N527 Co526 1.995 . S
N527 C528 1.376 . S
N527 C531 1.383 1_554 S
C528 N527 1.376 . S
C528 C529 1.446 1_554 S
C528 C558 1.391 . S
C529 C528 1.446 1_556 S
C529 C530 1.339 . S
C529 H564 0.949 . S
C530 C529 1.339 . S
C530 C531 1.439 . S
C530 H565 0.950 . S
C531 N527 1.383 1_556 S
C531 C530 1.439 . S
C531 C560 1.392 . S
N532 Co526 2.008 . S
N532 C533 1.376 1_554 S
N532 C536 1.374 . S
C533 N532 1.376 1_556 S
C533 C534 1.443 . S
C533 C560 1.389 . S
C534 C533 1.443 . S
C534 C535 1.340 . S
C534 H566 0.951 . S
C535 C534 1.340 . S
C535 C536 1.439 1_556 S
C535 H567 0.950 . S
C536 N532 1.374 . S
C536 C535 1.439 1_554 S
C536 C561 1.395 . S
N537 Co526 1.995 . S
N537 C538 1.376 . S
N537 C541 1.383 . S
C538 N537 1.376 . S
C538 C539 1.446 . S
C538 C561 1.391 . S
C539 C538 1.446 . S
C539 C540 1.339 . S
C539 H568 0.949 . S
C540 C539 1.339 . S
C540 C541 1.439 . S
C540 H569 0.950 . S
C541 N537 1.383 . S
C541 C540 1.439 . S
C541 C559 1.392 . S
N542 Co526 2.282 . S
N542 C545 1.332 1_554 S
N542 C547 1.332 1_554 S
C543 C544 1.386 . S
C543 C546 1.388 . S
C544 C543 1.386 . S
C544 C545 1.382 . S
C544 H570 0.950 . S
C545 N542 1.332 1_556 S
C545 C544 1.382 . S
C545 H556 0.952 1_556 S
C546 C543 1.388 . S
C546 C547 1.382 . S
C546 H571 0.950 . S
C547 N542 1.332 1_556 S
C547 C546 1.382 . S
C547 H557 0.948 . S
N548 Co526 2.282 . S
N548 C552 1.332 . S
N548 C553 1.332 . S
C549 C550 1.388 . S
C549 C553 1.382 . S
C549 H572 0.950 . S
C550 C549 1.388 . S
C550 C551 1.386 . S
C551 C550 1.386 . S
C551 C552 1.382 . S
C551 H573 0.950 . S
C552 N548 1.332 . S
C552 C551 1.382 . S
C552 H554 0.952 . S
C553 N548 1.332 . S
C553 C549 1.382 . S
C553 H555 0.948 . S
H554 C552 0.952 . S
H555 C553 0.948 . S
H556 C545 0.952 1_554 S
H557 C547 0.948 . S
C558 C524 1.395 . S
C558 C528 1.391 . S
C559 C521 1.389 . S
C559 C541 1.392 . S
C560 C531 1.392 . S
C560 C533 1.389 . S
C561 C536 1.395 . S
C561 C538 1.391 . S
H562 C522 0.951 . S
H563 C523 0.950 . S
H564 C529 0.949 . S
H565 C530 0.950 . S
H566 C534 0.951 . S
H567 C535 0.950 . S
H568 C539 0.949 . S
H569 C540 0.950 . S
H570 C544 0.950 . S
H571 C546 0.950 . S
H572 C549 0.950 . S
H573 C551 0.950 . S
H574 C582 0.929 . S
H575 C584 0.930 . S
H576 C586 0.930 . S
H577 C589 0.929 . S
H578 C592 0.930 . S
H579 C594 0.960 . S
H580 C594 0.960 . S
H581 C594 0.960 . S
C582 H574 0.929 . S
C582 C583 1.377 . S
C582 C584 1.384 . S
C583 C582 1.377 . S
C583 C589 1.390 . S
C584 H575 0.930 . S
C584 C582 1.384 . S
C584 C585 1.372 . S
C585 C584 1.372 . S
C585 C586 1.400 . S
C585 C590 1.490 . S
C586 H576 0.930 . S
C586 C585 1.400 . S
C586 C589 1.386 . S
H587 C603 0.930 . S
H588 C604 0.931 . S
C589 H577 0.929 . S
C589 C583 1.390 . S
C589 C586 1.386 . S
C590 C585 1.490 . S
C590 C592 1.395 . S
C590 C593 1.403 . S
H591 C597 0.930 . S
C592 H578 0.930 . S
C592 C590 1.395 . S
C592 C595 1.403 . S
C593 C590 1.403 . S
C593 C594 1.524 . S
C593 C597 1.400 . S
C594 H579 0.960 . S
C594 H580 0.960 . S
C594 H581 0.960 . S
C594 C593 1.524 . S
C595 C592 1.403 . S
C595 C596 1.392 . S
C595 C599 1.495 . S
C596 C595 1.392 . S
C596 C597 1.385 . S
C596 C598 1.478 . S
C597 H591 0.930 . S
C597 C593 1.400 . S
C597 C596 1.385 . S
C598 C596 1.478 . S
C598 C600 1.381 . S
C598 C604 1.383 . S
C599 C595 1.495 . S
C599 H605 0.959 . S
C599 H606 0.961 . S
C599 H607 0.960 . S
C600 C598 1.381 . S
C600 C601 1.394 . S
C600 H608 0.930 . S
C601 C600 1.394 . S
C601 C602 1.383 . S
C601 H609 0.929 . S
C602 C601 1.383 . S
C602 C603 1.377 . S
C603 H587 0.930 . S
C603 C602 1.377 . S
C603 C604 1.379 . S
C604 H588 0.931 . S
C604 C598 1.383 . S
C604 C603 1.379 . S
H605 C599 0.959 . S
H606 C599 0.961 . S
H607 C599 0.960 . S
H608 C600 0.930 . S
H609 C601 0.929 . S
H610 C618 0.929 . S
H611 C620 0.930 . S
H612 C622 0.930 . S
H613 C625 0.929 . S
H614 C628 0.930 . S
H615 C630 0.960 . S
H616 C630 0.960 . S
H617 C630 0.960 . S
C618 H610 0.929 . S
C618 C619 1.377 . S
C618 C620 1.384 . S
C619 C618 1.377 . S
C619 C625 1.390 . S
C620 H611 0.930 . S
C620 C618 1.384 . S
C620 C621 1.372 . S
C621 C620 1.372 . S
C621 C622 1.400 . S
C621 C626 1.490 . S
C622 H612 0.930 . S
C622 C621 1.400 . S
C622 C625 1.386 . S
H623 C639 0.930 . S
H624 C640 0.931 . S
C625 H613 0.929 . S
C625 C619 1.390 . S
C625 C622 1.386 . S
C626 C621 1.490 . S
C626 C628 1.395 . S
C626 C629 1.403 . S
H627 C633 0.930 . S
C628 H614 0.930 . S
C628 C626 1.395 . S
C628 C631 1.403 . S
C629 C626 1.403 . S
C629 C630 1.524 . S
C629 C633 1.400 . S
C630 H615 0.960 . S
C630 H616 0.960 . S
C630 H617 0.960 . S
C630 C629 1.524 . S
C631 C628 1.403 . S
C631 C632 1.392 . S
C631 C635 1.495 . S
C632 C631 1.392 . S
C632 C633 1.385 . S
C632 C634 1.478 . S
C633 H627 0.930 . S
C633 C629 1.400 . S
C633 C632 1.385 . S
C634 C632 1.478 . S
C634 C636 1.381 . S
C634 C640 1.383 . S
C635 C631 1.495 . S
C635 H641 0.959 . S
C635 H642 0.961 . S
C635 H643 0.960 . S
C636 C634 1.381 . S
C636 C637 1.394 . S
C636 H644 0.930 . S
C637 C636 1.394 . S
C637 C638 1.383 . S
C637 H645 0.929 . S
C638 C637 1.383 . S
C638 C639 1.377 . S
C639 H623 0.930 . S
C639 C638 1.377 . S
C639 C640 1.379 . S
C640 H624 0.931 . S
C640 C634 1.383 . S
C640 C639 1.379 . S
H641 C635 0.959 . S
H642 C635 0.961 . S
H643 C635 0.960 . S
H644 C636 0.930 . S
H645 C637 0.929 . S
H646 C654 0.929 . S
H647 C656 0.930 . S
H648 C658 0.930 . S
H649 C661 0.929 . S
H650 C664 0.930 . S
H651 C666 0.960 . S
H652 C666 0.960 . S
H653 C666 0.960 . S
C654 H646 0.929 . S
C654 C655 1.377 . S
C654 C656 1.384 . S
C655 C654 1.377 . S
C655 C661 1.390 . S
C656 H647 0.930 . S
C656 C654 1.384 . S
C656 C657 1.372 . S
C657 C656 1.372 . S
C657 C658 1.400 . S
C657 C662 1.490 . S
C658 H648 0.930 . S
C658 C657 1.400 . S
C658 C661 1.386 . S
H659 C675 0.930 . S
H660 C676 0.931 . S
C661 H649 0.929 . S
C661 C655 1.390 . S
C661 C658 1.386 . S
C662 C657 1.490 . S
C662 C664 1.395 . S
C662 C665 1.403 . S
H663 C669 0.930 . S
C664 H650 0.930 . S
C664 C662 1.395 . S
C664 C667 1.403 . S
C665 C662 1.403 . S
C665 C666 1.524 . S
C665 C669 1.400 . S
C666 H651 0.960 . S
C666 H652 0.960 . S
C666 H653 0.960 . S
C666 C665 1.524 . S
C667 C664 1.403 . S
C667 C668 1.392 . S
C667 C671 1.495 . S
C668 C667 1.392 . S
C668 C669 1.385 . S
C668 C670 1.478 . S
C669 H663 0.930 . S
C669 C665 1.400 . S
C669 C668 1.385 . S
C670 C668 1.478 . S
C670 C672 1.381 . S
C670 C676 1.383 . S
C671 C667 1.495 . S
C671 H677 0.959 . S
C671 H678 0.961 . S
C671 H679 0.960 . S
C672 C670 1.381 . S
C672 C673 1.394 . S
C672 H680 0.930 . S
C673 C672 1.394 . S
C673 C674 1.383 . S
C673 H681 0.929 . S
C674 C673 1.383 . S
C674 C675 1.377 . S
C675 H659 0.930 . S
C675 C674 1.377 . S
C675 C676 1.379 . S
C676 H660 0.931 . S
C676 C670 1.383 . S
C676 C675 1.379 . S
H677 C671 0.959 . S
H678 C671 0.961 . S
H679 C671 0.960 . S
H680 C672 0.930 . S
H681 C673 0.929 . S
H682 C690 0.929 . S
H683 C692 0.930 . S
H684 C694 0.930 . S
H685 C697 0.929 . S
H686 C700 0.930 . S
H687 C702 0.960 . S
H688 C702 0.960 . S
H689 C702 0.960 . S
C690 H682 0.929 . S
C690 C691 1.377 . S
C690 C692 1.384 . S
C691 C690 1.377 . S
C691 C697 1.390 . S
C692 H683 0.930 . S
C692 C690 1.384 . S
C692 C693 1.372 . S
C693 C692 1.372 . S
C693 C694 1.400 . S
C693 C698 1.490 . S
C694 H684 0.930 . S
C694 C693 1.400 . S
C694 C697 1.386 . S
H695 C711 0.930 . S
H696 C712 0.931 . S
C697 H685 0.929 . S
C697 C691 1.390 . S
C697 C694 1.386 . S
C698 C693 1.490 . S
C698 C700 1.395 . S
C698 C701 1.403 . S
H699 C705 0.930 . S
C700 H686 0.930 . S
C700 C698 1.395 . S
C700 C703 1.403 . S
C701 C698 1.403 . S
C701 C702 1.524 . S
C701 C705 1.400 . S
C702 H687 0.960 . S
C702 H688 0.960 . S
C702 H689 0.960 . S
C702 C701 1.524 . S
C703 C700 1.403 . S
C703 C704 1.392 . S
C703 C707 1.495 . S
C704 C703 1.392 . S
C704 C705 1.385 . S
C704 C706 1.478 . S
C705 H699 0.930 . S
C705 C701 1.400 . S
C705 C704 1.385 . S
C706 C704 1.478 . S
C706 C708 1.381 . S
C706 C712 1.383 . S
C707 C703 1.495 . S
C707 H713 0.959 . S
C707 H714 0.961 . S
C707 H715 0.960 . S
C708 C706 1.381 . S
C708 C709 1.394 . S
C708 H716 0.930 . S
C709 C708 1.394 . S
C709 C710 1.383 . S
C709 H717 0.929 . S
C710 C709 1.383 . S
C710 C711 1.377 . S
C711 H695 0.930 . S
C711 C710 1.377 . S
C711 C712 1.379 . S
C712 H696 0.931 . S
C712 C706 1.383 . S
C712 C711 1.379 . S
H713 C707 0.959 . S
H714 C707 0.961 . S
H715 C707 0.960 . S
H716 C708 0.930 . S
H717 C709 0.929 . S
H718 C726 0.929 . S
H719 C728 0.930 . S
H720 C730 0.930 . S
H721 C733 0.929 . S
H722 C736 0.930 . S
H723 C738 0.960 . S
H724 C738 0.960 . S
H725 C738 0.960 . S
C726 H718 0.929 . S
C726 C727 1.377 . S
C726 C728 1.384 . S
C727 C726 1.377 . S
C727 C733 1.390 . S
C728 H719 0.930 . S
C728 C726 1.384 . S
C728 C729 1.372 . S
C729 C728 1.372 . S
C729 C730 1.400 . S
C729 C734 1.490 . S
C730 H720 0.930 . S
C730 C729 1.400 . S
C730 C733 1.386 . S
H731 C747 0.930 . S
H732 C748 0.931 . S
C733 H721 0.929 . S
C733 C727 1.390 . S
C733 C730 1.386 . S
C734 C729 1.490 . S
C734 C736 1.395 . S
C734 C737 1.403 . S
H735 C741 0.930 . S
C736 H722 0.930 . S
C736 C734 1.395 . S
C736 C739 1.403 . S
C737 C734 1.403 . S
C737 C738 1.524 . S
C737 C741 1.400 . S
C738 H723 0.960 . S
C738 H724 0.960 . S
C738 H725 0.960 . S
C738 C737 1.524 . S
C739 C736 1.403 . S
C739 C740 1.392 . S
C739 C743 1.495 . S
C740 C739 1.392 . S
C740 C741 1.385 . S
C740 C742 1.478 . S
C741 H735 0.930 . S
C741 C737 1.400 . S
C741 C740 1.385 . S
C742 C740 1.478 . S
C742 C744 1.381 . S
C742 C748 1.383 . S
C743 C739 1.495 . S
C743 H749 0.959 . S
C743 H750 0.961 . S
C743 H751 0.960 . S
C744 C742 1.381 . S
C744 C745 1.394 . S
C744 H752 0.930 . S
C745 C744 1.394 . S
C745 C746 1.383 . S
C745 H753 0.929 . S
C746 C745 1.383 . S
C746 C747 1.377 . S
C747 H731 0.930 . S
C747 C746 1.377 . S
C747 C748 1.379 . S
C748 H732 0.931 . S
C748 C742 1.383 . S
C748 C747 1.379 . S
H749 C743 0.959 . S
H750 C743 0.961 . S
H751 C743 0.960 . S
H752 C744 0.930 . S
H753 C745 0.929 . S
H754 C762 0.929 . S
H755 C764 0.930 . S
H756 C766 0.930 . S
H757 C769 0.929 . S
H758 C772 0.930 . S
H759 C774 0.960 . S
H760 C774 0.960 . S
H761 C774 0.960 . S
C762 H754 0.929 . S
C762 C763 1.377 . S
C762 C764 1.384 . S
C763 C762 1.377 . S
C763 C769 1.390 . S
C764 H755 0.930 . S
C764 C762 1.384 . S
C764 C765 1.372 . S
C765 C764 1.372 . S
C765 C766 1.400 . S
C765 C770 1.490 . S
C766 H756 0.930 . S
C766 C765 1.400 . S
C766 C769 1.386 . S
H767 C783 0.930 . S
H768 C784 0.931 . S
C769 H757 0.929 . S
C769 C763 1.390 . S
C769 C766 1.386 . S
C770 C765 1.490 . S
C770 C772 1.395 . S
C770 C773 1.403 . S
H771 C777 0.930 . S
C772 H758 0.930 . S
C772 C770 1.395 . S
C772 C775 1.403 . S
C773 C770 1.403 . S
C773 C774 1.524 . S
C773 C777 1.400 . S
C774 H759 0.960 . S
C774 H760 0.960 . S
C774 H761 0.960 . S
C774 C773 1.524 . S
C775 C772 1.403 . S
C775 C776 1.392 . S
C775 C779 1.495 . S
C776 C775 1.392 . S
C776 C777 1.385 . S
C776 C778 1.478 . S
C777 H771 0.930 . S
C777 C773 1.400 . S
C777 C776 1.385 . S
C778 C776 1.478 . S
C778 C780 1.381 . S
C778 C784 1.383 . S
C779 C775 1.495 . S
C779 H785 0.959 . S
C779 H786 0.961 . S
C779 H787 0.960 . S
C780 C778 1.381 . S
C780 C781 1.394 . S
C780 H788 0.930 . S
C781 C780 1.394 . S
C781 C782 1.383 . S
C781 H789 0.929 . S
C782 C781 1.383 . S
C782 C783 1.377 . S
C783 H767 0.930 . S
C783 C782 1.377 . S
C783 C784 1.379 . S
C784 H768 0.931 . S
C784 C778 1.383 . S
C784 C783 1.379 . S
H785 C779 0.959 . S
H786 C779 0.961 . S
H787 C779 0.960 . S
H788 C780 0.930 . S
H789 C781 0.929 . S
H790 C798 0.929 . S
H791 C800 0.930 . S
H792 C802 0.930 . S
H793 C805 0.929 . S
H794 C808 0.930 . S
H795 C810 0.960 . S
H796 C810 0.960 . S
H797 C810 0.960 . S
C798 H790 0.929 . S
C798 C799 1.377 . S
C798 C800 1.384 . S
C799 C798 1.377 . S
C799 C805 1.390 . S
C800 H791 0.930 . S
C800 C798 1.384 . S
C800 C801 1.372 . S
C801 C800 1.372 . S
C801 C802 1.400 . S
C801 C806 1.490 . S
C802 H792 0.930 . S
C802 C801 1.400 . S
C802 C805 1.386 . S
H803 C819 0.930 . S
H804 C820 0.931 . S
C805 H793 0.929 . S
C805 C799 1.390 . S
C805 C802 1.386 . S
C806 C801 1.490 . S
C806 C808 1.395 . S
C806 C809 1.403 . S
H807 C813 0.930 . S
C808 H794 0.930 . S
C808 C806 1.395 . S
C808 C811 1.403 . S
C809 C806 1.403 . S
C809 C810 1.524 . S
C809 C813 1.400 . S
C810 H795 0.960 . S
C810 H796 0.960 . S
C810 H797 0.960 . S
C810 C809 1.524 . S
C811 C808 1.403 . S
C811 C812 1.392 . S
C811 C815 1.495 . S
C812 C811 1.392 . S
C812 C813 1.385 . S
C812 C814 1.478 . S
C813 H807 0.930 . S
C813 C809 1.400 . S
C813 C812 1.385 . S
C814 C812 1.478 . S
C814 C816 1.381 . S
C814 C820 1.383 . S
C815 C811 1.495 . S
C815 H821 0.959 . S
C815 H822 0.961 . S
C815 H823 0.960 . S
C816 C814 1.381 . S
C816 C817 1.394 . S
C816 H824 0.930 . S
C817 C816 1.394 . S
C817 C818 1.383 . S
C817 H825 0.929 . S
C818 C817 1.383 . S
C818 C819 1.377 . S
C819 H803 0.930 . S
C819 C818 1.377 . S
C819 C820 1.379 . S
C820 H804 0.931 . S
C820 C814 1.383 . S
C820 C819 1.379 . S
H821 C815 0.959 . S
H822 C815 0.961 . S
H823 C815 0.960 . S
H824 C816 0.930 . S
H825 C817 0.929 . S
H826 C834 0.929 . S
H827 C836 0.930 . S
H828 C838 0.930 . S
H829 C841 0.929 . S
H830 C844 0.930 . S
H831 C846 0.960 . S
H832 C846 0.960 . S
H833 C846 0.960 . S
C834 H826 0.929 . S
C834 C835 1.377 . S
C834 C836 1.384 . S
C835 C834 1.377 . S
C835 C841 1.390 . S
C836 H827 0.930 . S
C836 C834 1.384 . S
C836 C837 1.372 . S
C837 C836 1.372 . S
C837 C838 1.400 . S
C837 C842 1.490 . S
C838 H828 0.930 . S
C838 C837 1.400 . S
C838 C841 1.386 . S
H839 C855 0.930 . S
H840 C856 0.931 . S
C841 H829 0.929 . S
C841 C835 1.390 . S
C841 C838 1.386 . S
C842 C837 1.490 . S
C842 C844 1.395 . S
C842 C845 1.403 . S
H843 C849 0.930 . S
C844 H830 0.930 . S
C844 C842 1.395 . S
C844 C847 1.403 . S
C845 C842 1.403 . S
C845 C846 1.524 . S
C845 C849 1.400 . S
C846 H831 0.960 . S
C846 H832 0.960 . S
C846 H833 0.960 . S
C846 C845 1.524 . S
C847 C844 1.403 . S
C847 C848 1.392 . S
C847 C851 1.495 . S
C848 C847 1.392 . S
C848 C849 1.385 . S
C848 C850 1.478 . S
C849 H843 0.930 . S
C849 C845 1.400 . S
C849 C848 1.385 . S
C850 C848 1.478 . S
C850 C852 1.381 . S
C850 C856 1.383 . S
C851 C847 1.495 . S
C851 H857 0.959 . S
C851 H858 0.961 . S
C851 H859 0.960 . S
C852 C850 1.381 . S
C852 C853 1.394 . S
C852 H860 0.930 . S
C853 C852 1.394 . S
C853 C854 1.383 . S
C853 H861 0.929 . S
C854 C853 1.383 . S
C854 C855 1.377 . S
C855 H839 0.930 . S
C855 C854 1.377 . S
C855 C856 1.379 . S
C856 H840 0.931 . S
C856 C850 1.383 . S
C856 C855 1.379 . S
H857 C851 0.959 . S
H858 C851 0.961 . S
H859 C851 0.960 . S
H860 C852 0.930 . S
H861 C853 0.929 . S
H862 C870 0.929 . S
H863 C872 0.930 . S
H864 C874 0.930 . S
H865 C877 0.929 . S
H866 C880 0.930 . S
H867 C882 0.960 . S
H868 C882 0.960 . S
H869 C882 0.960 . S
C870 H862 0.929 . S
C870 C871 1.377 . S
C870 C872 1.384 . S
C871 C870 1.377 . S
C871 C877 1.390 . S
C872 H863 0.930 . S
C872 C870 1.384 . S
C872 C873 1.372 . S
C873 C872 1.372 . S
C873 C874 1.400 . S
C873 C878 1.490 . S
C874 H864 0.930 . S
C874 C873 1.400 . S
C874 C877 1.386 . S
H875 C891 0.930 . S
H876 C892 0.931 . S
C877 H865 0.929 . S
C877 C871 1.390 . S
C877 C874 1.386 . S
C878 C873 1.490 . S
C878 C880 1.395 . S
C878 C881 1.403 . S
H879 C885 0.930 . S
C880 H866 0.930 . S
C880 C878 1.395 . S
C880 C883 1.403 . S
C881 C878 1.403 . S
C881 C882 1.524 . S
C881 C885 1.400 . S
C882 H867 0.960 . S
C882 H868 0.960 . S
C882 H869 0.960 . S
C882 C881 1.524 . S
C883 C880 1.403 . S
C883 C884 1.392 . S
C883 C887 1.495 . S
C884 C883 1.392 . S
C884 C885 1.385 . S
C884 C886 1.478 . S
C885 H879 0.930 . S
C885 C881 1.400 . S
C885 C884 1.385 . S
C886 C884 1.478 . S
C886 C888 1.381 . S
C886 C892 1.383 . S
C887 C883 1.495 . S
C887 H893 0.959 . S
C887 H894 0.961 . S
C887 H895 0.960 . S
C888 C886 1.381 . S
C888 C889 1.394 . S
C888 H896 0.930 . S
C889 C888 1.394 . S
C889 C890 1.383 . S
C889 H897 0.929 . S
C890 C889 1.383 . S
C890 C891 1.377 . S
C891 H875 0.930 . S
C891 C890 1.377 . S
C891 C892 1.379 . S
C892 H876 0.931 . S
C892 C886 1.383 . S
C892 C891 1.379 . S
H893 C887 0.959 . S
H894 C887 0.961 . S
H895 C887 0.960 . S
H896 C888 0.930 . S
H897 C889 0.929 . S
H898 C906 0.929 . S
H899 C908 0.930 . S
H900 C910 0.930 . S
H901 C913 0.929 . S
H902 C916 0.930 . S
H903 C918 0.960 . S
H904 C918 0.960 . S
H905 C918 0.960 . S
C906 H898 0.929 . S
C906 C907 1.377 . S
C906 C908 1.384 . S
C907 C906 1.377 . S
C907 C913 1.390 . S
C908 H899 0.930 . S
C908 C906 1.384 . S
C908 C909 1.372 . S
C909 C908 1.372 . S
C909 C910 1.400 . S
C909 C914 1.490 . S
C910 H900 0.930 . S
C910 C909 1.400 . S
C910 C913 1.386 . S
H911 C927 0.930 . S
H912 C928 0.931 . S
C913 H901 0.929 . S
C913 C907 1.390 . S
C913 C910 1.386 . S
C914 C909 1.490 . S
C914 C916 1.395 . S
C914 C917 1.403 . S
H915 C921 0.930 . S
C916 H902 0.930 . S
C916 C914 1.395 . S
C916 C919 1.403 . S
C917 C914 1.403 . S
C917 C918 1.524 . S
C917 C921 1.400 . S
C918 H903 0.960 . S
C918 H904 0.960 . S
C918 H905 0.960 . S
C918 C917 1.524 . S
C919 C916 1.403 . S
C919 C920 1.392 . S
C919 C923 1.495 . S
C920 C919 1.392 . S
C920 C921 1.385 . S
C920 C922 1.478 . S
C921 H915 0.930 . S
C921 C917 1.400 . S
C921 C920 1.385 . S
C922 C920 1.478 . S
C922 C924 1.381 . S
C922 C928 1.383 . S
C923 C919 1.495 . S
C923 H929 0.959 . S
C923 H930 0.961 . S
C923 H931 0.960 . S
C924 C922 1.381 . S
C924 C925 1.394 . S
C924 H932 0.930 . S
C925 C924 1.394 . S
C925 C926 1.383 . S
C925 H933 0.929 . S
C926 C925 1.383 . S
C926 C927 1.377 . S
C927 H911 0.930 . S
C927 C926 1.377 . S
C927 C928 1.379 . S
C928 H912 0.931 . S
C928 C922 1.383 . S
C928 C927 1.379 . S
H929 C923 0.959 . S
H930 C923 0.961 . S
H931 C923 0.960 . S
H932 C924 0.930 . S
H933 C925 0.929 . S
H934 C942 0.929 . S
H935 C944 0.930 . S
H936 C946 0.930 . S
H937 C949 0.929 . S
H938 C952 0.930 . S
H939 C954 0.960 . S
H940 C954 0.960 . S
H941 C954 0.960 . S
C942 H934 0.929 . S
C942 C943 1.377 . S
C942 C944 1.384 . S
C943 C942 1.377 . S
C943 C949 1.390 . S
C944 H935 0.930 . S
C944 C942 1.384 . S
C944 C945 1.372 . S
C945 C944 1.372 . S
C945 C946 1.400 . S
C945 C950 1.490 . S
C946 H936 0.930 . S
C946 C945 1.400 . S
C946 C949 1.386 . S
H947 C963 0.930 . S
H948 C964 0.931 . S
C949 H937 0.929 . S
C949 C943 1.390 . S
C949 C946 1.386 . S
C950 C945 1.490 . S
C950 C952 1.395 . S
C950 C953 1.403 . S
H951 C957 0.930 . S
C952 H938 0.930 . S
C952 C950 1.395 . S
C952 C955 1.403 . S
C953 C950 1.403 . S
C953 C954 1.524 . S
C953 C957 1.400 . S
C954 H939 0.960 . S
C954 H940 0.960 . S
C954 H941 0.960 . S
C954 C953 1.524 . S
C955 C952 1.403 . S
C955 C956 1.392 . S
C955 C959 1.495 . S
C956 C955 1.392 . S
C956 C957 1.385 . S
C956 C958 1.478 . S
C957 H951 0.930 . S
C957 C953 1.400 . S
C957 C956 1.385 . S
C958 C956 1.478 . S
C958 C960 1.381 . S
C958 C964 1.383 . S
C959 C955 1.495 . S
C959 H965 0.959 . S
C959 H966 0.961 . S
C959 H967 0.960 . S
C960 C958 1.381 . S
C960 C961 1.394 . S
C960 H968 0.930 . S
C961 C960 1.394 . S
C961 C962 1.383 . S
C961 H969 0.929 . S
C962 C961 1.383 . S
C962 C963 1.377 . S
C963 H947 0.930 . S
C963 C962 1.377 . S
C963 C964 1.379 . S
C964 H948 0.931 . S
C964 C958 1.383 . S
C964 C963 1.379 . S
H965 C959 0.959 . S
H966 C959 0.961 . S
H967 C959 0.960 . S
H968 C960 0.930 . S
H969 C961 0.929 . S
H970 C978 0.929 . S
H971 C980 0.930 . S
H972 C982 0.930 . S
H973 C985 0.929 . S
H974 C988 0.930 . S
H975 C990 0.960 . S
H976 C990 0.960 . S
H977 C990 0.960 . S
C978 H970 0.929 . S
C978 C979 1.377 . S
C978 C980 1.384 . S
C979 C978 1.377 . S
C979 C985 1.390 . S
C980 H971 0.930 . S
C980 C978 1.384 . S
C980 C981 1.372 . S
C981 C980 1.372 . S
C981 C982 1.400 . S
C981 C986 1.490 . S
C982 H972 0.930 . S
C982 C981 1.400 . S
C982 C985 1.386 . S
H983 C999 0.930 . S
H984 C1000 0.931 . S
C985 H973 0.929 . S
C985 C979 1.390 . S
C985 C982 1.386 . S
C986 C981 1.490 . S
C986 C988 1.395 . S
C986 C989 1.403 . S
H987 C993 0.930 . S
C988 H974 0.930 . S
C988 C986 1.395 . S
C988 C991 1.403 . S
C989 C986 1.403 . S
C989 C990 1.524 . S
C989 C993 1.400 . S
C990 H975 0.960 . S
C990 H976 0.960 . S
C990 H977 0.960 . S
C990 C989 1.524 . S
C991 C988 1.403 . S
C991 C992 1.392 . S
C991 C995 1.495 . S
C992 C991 1.392 . S
C992 C993 1.385 . S
C992 C994 1.478 . S
C993 H987 0.930 . S
C993 C989 1.400 . S
C993 C992 1.385 . S
C994 C992 1.478 . S
C994 C996 1.381 . S
C994 C1000 1.383 . S
C995 C991 1.495 . S
C995 H1001 0.959 . S
C995 H1002 0.961 . S
C995 H1003 0.960 . S
C996 C994 1.381 . S
C996 C997 1.394 . S
C996 H1004 0.930 . S
C997 C996 1.394 . S
C997 C998 1.383 . S
C997 H1005 0.929 . S
C998 C997 1.383 . S
C998 C999 1.377 . S
C999 H983 0.930 . S
C999 C998 1.377 . S
C999 C1000 1.379 . S
C1000 H984 0.931 . S
C1000 C994 1.383 . S
C1000 C999 1.379 . S
H1001 C995 0.959 . S
H1002 C995 0.961 . S
H1003 C995 0.960 . S
H1004 C996 0.930 . S
H1005 C997 0.929 . S
H1006 C1014 0.929 . S
H1007 C1016 0.930 . S
H1008 C1018 0.930 . S
H1009 C1021 0.929 . S
H1010 C1024 0.930 . S
H1011 C1026 0.960 . S
H1012 C1026 0.960 . S
H1013 C1026 0.960 . S
C1014 H1006 0.929 . S
C1014 C1015 1.377 . S
C1014 C1016 1.384 . S
C1015 C1014 1.377 . S
C1015 C1021 1.390 . S
C1016 H1007 0.930 . S
C1016 C1014 1.384 . S
C1016 C1017 1.372 . S
C1017 C1016 1.372 . S
C1017 C1018 1.400 . S
C1017 C1022 1.490 . S
C1018 H1008 0.930 . S
C1018 C1017 1.400 . S
C1018 C1021 1.386 . S
H1019 C1035 0.930 . S
H1020 C1036 0.931 . S
C1021 H1009 0.929 . S
C1021 C1015 1.390 . S
C1021 C1018 1.386 . S
C1022 C1017 1.490 . S
C1022 C1024 1.395 . S
C1022 C1025 1.403 . S
H1023 C1029 0.930 . S
C1024 H1010 0.930 . S
C1024 C1022 1.395 . S
C1024 C1027 1.403 . S
C1025 C1022 1.403 . S
C1025 C1026 1.524 . S
C1025 C1029 1.400 . S
C1026 H1011 0.960 . S
C1026 H1012 0.960 . S
C1026 H1013 0.960 . S
C1026 C1025 1.524 . S
C1027 C1024 1.403 . S
C1027 C1028 1.392 . S
C1027 C1031 1.495 . S
C1028 C1027 1.392 . S
C1028 C1029 1.385 . S
C1028 C1030 1.478 . S
C1029 H1023 0.930 . S
C1029 C1025 1.400 . S
C1029 C1028 1.385 . S
C1030 C1028 1.478 . S
C1030 C1032 1.381 . S
C1030 C1036 1.383 . S
C1031 C1027 1.495 . S
C1031 H1037 0.959 . S
C1031 H1038 0.961 . S
C1031 H1039 0.960 . S
C1032 C1030 1.381 . S
C1032 C1033 1.394 . S
C1032 H1040 0.930 . S
C1033 C1032 1.394 . S
C1033 C1034 1.383 . S
C1033 H1041 0.929 . S
C1034 C1033 1.383 . S
C1034 C1035 1.377 . S
C1035 H1019 0.930 . S
C1035 C1034 1.377 . S
C1035 C1036 1.379 . S
C1036 H1020 0.931 . S
C1036 C1030 1.383 . S
C1036 C1035 1.379 . S
H1037 C1031 0.959 . S
H1038 C1031 0.961 . S
H1039 C1031 0.960 . S
H1040 C1032 0.930 . S
H1041 C1033 0.929 . S
H1042 C1050 0.929 . S
H1043 C1052 0.930 . S
H1044 C1054 0.930 . S
H1045 C1057 0.929 . S
H1046 C1060 0.930 . S
H1047 C1062 0.960 . S
H1048 C1062 0.960 . S
H1049 C1062 0.960 . S
C1050 H1042 0.929 . S
C1050 C1051 1.377 . S
C1050 C1052 1.384 . S
C1051 C1050 1.377 . S
C1051 C1057 1.390 . S
C1052 H1043 0.930 . S
C1052 C1050 1.384 . S
C1052 C1053 1.372 . S
C1053 C1052 1.372 . S
C1053 C1054 1.400 . S
C1053 C1058 1.490 . S
C1054 H1044 0.930 . S
C1054 C1053 1.400 . S
C1054 C1057 1.386 . S
H1055 C1071 0.930 . S
H1056 C1072 0.931 . S
C1057 H1045 0.929 . S
C1057 C1051 1.390 . S
C1057 C1054 1.386 . S
C1058 C1053 1.490 . S
C1058 C1060 1.395 . S
C1058 C1061 1.403 . S
H1059 C1065 0.930 . S
C1060 H1046 0.930 . S
C1060 C1058 1.395 . S
C1060 C1063 1.403 . S
C1061 C1058 1.403 . S
C1061 C1062 1.524 . S
C1061 C1065 1.400 . S
C1062 H1047 0.960 . S
C1062 H1048 0.960 . S
C1062 H1049 0.960 . S
C1062 C1061 1.524 . S
C1063 C1060 1.403 . S
C1063 C1064 1.392 . S
C1063 C1067 1.495 . S
C1064 C1063 1.392 . S
C1064 C1065 1.385 . S
C1064 C1066 1.478 . S
C1065 H1059 0.930 . S
C1065 C1061 1.400 . S
C1065 C1064 1.385 . S
C1066 C1064 1.478 . S
C1066 C1068 1.381 . S
C1066 C1072 1.383 . S
C1067 C1063 1.495 . S
C1067 H1073 0.959 . S
C1067 H1074 0.961 . S
C1067 H1075 0.960 . S
C1068 C1066 1.381 . S
C1068 C1069 1.394 . S
C1068 H1076 0.930 . S
C1069 C1068 1.394 . S
C1069 C1070 1.383 . S
C1069 H1077 0.929 . S
C1070 C1069 1.383 . S
C1070 C1071 1.377 . S
C1071 H1055 0.930 . S
C1071 C1070 1.377 . S
C1071 C1072 1.379 . S
C1072 H1056 0.931 . S
C1072 C1066 1.383 . S
C1072 C1071 1.379 . S
H1073 C1067 0.959 . S
H1074 C1067 0.961 . S
H1075 C1067 0.960 . S
H1076 C1068 0.930 . S
H1077 C1069 0.929 . S
H1078 C1086 0.929 . S
H1079 C1088 0.930 . S
H1080 C1090 0.930 . S
H1081 C1093 0.929 . S
H1082 C1096 0.930 . S
H1083 C1098 0.960 . S
H1084 C1098 0.960 . S
H1085 C1098 0.960 . S
C1086 H1078 0.929 . S
C1086 C1087 1.377 . S
C1086 C1088 1.384 . S
C1087 C1086 1.377 . S
C1087 C1093 1.390 . S
C1088 H1079 0.930 . S
C1088 C1086 1.384 . S
C1088 C1089 1.372 . S
C1089 C1088 1.372 . S
C1089 C1090 1.400 . S
C1089 C1094 1.490 . S
C1090 H1080 0.930 . S
C1090 C1089 1.400 . S
C1090 C1093 1.386 . S
H1091 C1107 0.930 . S
H1092 C1108 0.931 . S
C1093 H1081 0.929 . S
C1093 C1087 1.390 . S
C1093 C1090 1.386 . S
C1094 C1089 1.490 . S
C1094 C1096 1.395 . S
C1094 C1097 1.403 . S
H1095 C1101 0.930 . S
C1096 H1082 0.930 . S
C1096 C1094 1.395 . S
C1096 C1099 1.403 . S
C1097 C1094 1.403 . S
C1097 C1098 1.524 . S
C1097 C1101 1.400 . S
C1098 H1083 0.960 . S
C1098 H1084 0.960 . S
C1098 H1085 0.960 . S
C1098 C1097 1.524 . S
C1099 C1096 1.403 . S
C1099 C1100 1.392 . S
C1099 C1103 1.495 . S
C1100 C1099 1.392 . S
C1100 C1101 1.385 . S
C1100 C1102 1.478 . S
C1101 H1095 0.930 . S
C1101 C1097 1.400 . S
C1101 C1100 1.385 . S
C1102 C1100 1.478 . S
C1102 C1104 1.381 . S
C1102 C1108 1.383 . S
C1103 C1099 1.495 . S
C1103 H1109 0.959 . S
C1103 H1110 0.961 . S
C1103 H1111 0.960 . S
C1104 C1102 1.381 . S
C1104 C1105 1.394 . S
C1104 H1112 0.930 . S
C1105 C1104 1.394 . S
C1105 C1106 1.383 . S
C1105 H1113 0.929 . S
C1106 C1105 1.383 . S
C1106 C1107 1.377 . S
C1107 H1091 0.930 . S
C1107 C1106 1.377 . S
C1107 C1108 1.379 . S
C1108 H1092 0.931 . S
C1108 C1102 1.383 . S
C1108 C1107 1.379 . S
H1109 C1103 0.959 . S
H1110 C1103 0.961 . S
H1111 C1103 0.960 . S
H1112 C1104 0.930 . S
H1113 C1105 0.929 . S
H1114 C1122 0.929 . S
H1115 C1124 0.930 . S
H1116 C1126 0.930 . S
H1117 C1129 0.929 . S
H1118 C1132 0.930 . S
H1119 C1134 0.960 . S
H1120 C1134 0.960 . S
H1121 C1134 0.960 . S
C1122 H1114 0.929 . S
C1122 C1123 1.377 . S
C1122 C1124 1.384 . S
C1123 C1122 1.377 . S
C1123 C1129 1.390 . S
C1124 H1115 0.930 . S
C1124 C1122 1.384 . S
C1124 C1125 1.372 . S
C1125 C1124 1.372 . S
C1125 C1126 1.400 . S
C1125 C1130 1.490 . S
C1126 H1116 0.930 . S
C1126 C1125 1.400 . S
C1126 C1129 1.386 . S
H1127 C1143 0.930 . S
H1128 C1144 0.931 . S
C1129 H1117 0.929 . S
C1129 C1123 1.390 . S
C1129 C1126 1.386 . S
C1130 C1125 1.490 . S
C1130 C1132 1.395 . S
C1130 C1133 1.403 . S
H1131 C1137 0.930 . S
C1132 H1118 0.930 . S
C1132 C1130 1.395 . S
C1132 C1135 1.403 . S
C1133 C1130 1.403 . S
C1133 C1134 1.524 . S
C1133 C1137 1.400 . S
C1134 H1119 0.960 . S
C1134 H1120 0.960 . S
C1134 H1121 0.960 . S
C1134 C1133 1.524 . S
C1135 C1132 1.403 . S
C1135 C1136 1.392 . S
C1135 C1139 1.495 . S
C1136 C1135 1.392 . S
C1136 C1137 1.385 . S
C1136 C1138 1.478 . S
C1137 H1131 0.930 . S
C1137 C1133 1.400 . S
C1137 C1136 1.385 . S
C1138 C1136 1.478 . S
C1138 C1140 1.381 . S
C1138 C1144 1.383 . S
C1139 C1135 1.495 . S
C1139 H1145 0.959 . S
C1139 H1146 0.961 . S
C1139 H1147 0.960 . S
C1140 C1138 1.381 . S
C1140 C1141 1.394 . S
C1140 H1148 0.930 . S
C1141 C1140 1.394 . S
C1141 C1142 1.383 . S
C1141 H1149 0.929 . S
C1142 C1141 1.383 . S
C1142 C1143 1.377 . S
C1143 H1127 0.930 . S
C1143 C1142 1.377 . S
C1143 C1144 1.379 . S
C1144 H1128 0.931 . S
C1144 C1138 1.383 . S
C1144 C1143 1.379 . S
H1145 C1139 0.959 . S
H1146 C1139 0.961 . S
H1147 C1139 0.960 . S
H1148 C1140 0.930 . S
H1149 C1141 0.929 . S
H1150 C1158 0.929 . S
H1151 C1160 0.930 . S
H1152 C1162 0.930 . S
H1153 C1165 0.929 . S
H1154 C1168 0.930 . S
H1155 C1170 0.960 . S
H1156 C1170 0.960 . S
H1157 C1170 0.960 . S
C1158 H1150 0.929 . S
C1158 C1159 1.377 . S
C1158 C1160 1.384 . S
C1159 C1158 1.377 . S
C1159 C1165 1.390 . S
C1160 H1151 0.930 . S
C1160 C1158 1.384 . S
C1160 C1161 1.372 . S
C1161 C1160 1.372 . S
C1161 C1162 1.400 . S
C1161 C1166 1.490 . S
C1162 H1152 0.930 . S
C1162 C1161 1.400 . S
C1162 C1165 1.386 . S
H1163 C1179 0.930 . S
H1164 C1180 0.931 . S
C1165 H1153 0.929 . S
C1165 C1159 1.390 . S
C1165 C1162 1.386 . S
C1166 C1161 1.490 . S
C1166 C1168 1.395 . S
C1166 C1169 1.403 . S
H1167 C1173 0.930 . S
C1168 H1154 0.930 . S
C1168 C1166 1.395 . S
C1168 C1171 1.403 . S
C1169 C1166 1.403 . S
C1169 C1170 1.524 . S
C1169 C1173 1.400 . S
C1170 H1155 0.960 . S
C1170 H1156 0.960 . S
C1170 H1157 0.960 . S
C1170 C1169 1.524 . S
C1171 C1168 1.403 . S
C1171 C1172 1.392 . S
C1171 C1175 1.495 . S
C1172 C1171 1.392 . S
C1172 C1173 1.385 . S
C1172 C1174 1.478 . S
C1173 H1167 0.930 . S
C1173 C1169 1.400 . S
C1173 C1172 1.385 . S
C1174 C1172 1.478 . S
C1174 C1176 1.381 . S
C1174 C1180 1.383 . S
C1175 C1171 1.495 . S
C1175 H1181 0.959 . S
C1175 H1182 0.961 . S
C1175 H1183 0.960 . S
C1176 C1174 1.381 . S
C1176 C1177 1.394 . S
C1176 H1184 0.930 . S
C1177 C1176 1.394 . S
C1177 C1178 1.383 . S
C1177 H1185 0.929 . S
C1178 C1177 1.383 . S
C1178 C1179 1.377 . S
C1179 H1163 0.930 . S
C1179 C1178 1.377 . S
C1179 C1180 1.379 . S
C1180 H1164 0.931 . S
C1180 C1174 1.383 . S
C1180 C1179 1.379 . S
H1181 C1175 0.959 . S
H1182 C1175 0.961 . S
H1183 C1175 0.960 . S
H1184 C1176 0.930 . S
H1185 C1177 0.929 . S
H1186 C1194 0.929 . S
H1187 C1196 0.930 . S
H1188 C1198 0.930 . S
H1189 C1201 0.929 . S
H1190 C1204 0.930 . S
H1191 C1206 0.960 . S
H1192 C1206 0.960 . S
H1193 C1206 0.960 . S
C1194 H1186 0.929 . S
C1194 C1195 1.377 . S
C1194 C1196 1.384 . S
C1195 C1194 1.377 . S
C1195 C1201 1.390 . S
C1196 H1187 0.930 . S
C1196 C1194 1.384 . S
C1196 C1197 1.372 . S
C1197 C1196 1.372 . S
C1197 C1198 1.400 . S
C1197 C1202 1.490 . S
C1198 H1188 0.930 . S
C1198 C1197 1.400 . S
C1198 C1201 1.386 . S
H1199 C1215 0.930 . S
H1200 C1216 0.931 . S
C1201 H1189 0.929 . S
C1201 C1195 1.390 . S
C1201 C1198 1.386 . S
C1202 C1197 1.490 . S
C1202 C1204 1.395 . S
C1202 C1205 1.403 . S
H1203 C1209 0.930 . S
C1204 H1190 0.930 . S
C1204 C1202 1.395 . S
C1204 C1207 1.403 . S
C1205 C1202 1.403 . S
C1205 C1206 1.524 . S
C1205 C1209 1.400 . S
C1206 H1191 0.960 . S
C1206 H1192 0.960 . S
C1206 H1193 0.960 . S
C1206 C1205 1.524 . S
C1207 C1204 1.403 . S
C1207 C1208 1.392 . S
C1207 C1211 1.495 . S
C1208 C1207 1.392 . S
C1208 C1209 1.385 . S
C1208 C1210 1.478 . S
C1209 H1203 0.930 . S
C1209 C1205 1.400 . S
C1209 C1208 1.385 . S
C1210 C1208 1.478 . S
C1210 C1212 1.381 . S
C1210 C1216 1.383 . S
C1211 C1207 1.495 . S
C1211 H1217 0.959 . S
C1211 H1218 0.961 . S
C1211 H1219 0.960 . S
C1212 C1210 1.381 . S
C1212 C1213 1.394 . S
C1212 H1220 0.930 . S
C1213 C1212 1.394 . S
C1213 C1214 1.383 . S
C1213 H1221 0.929 . S
C1214 C1213 1.383 . S
C1214 C1215 1.377 . S
C1215 H1199 0.930 . S
C1215 C1214 1.377 . S
C1215 C1216 1.379 . S
C1216 H1200 0.931 . S
C1216 C1210 1.383 . S
C1216 C1215 1.379 . S
H1217 C1211 0.959 . S
H1218 C1211 0.961 . S
H1219 C1211 0.960 . S
H1220 C1212 0.930 . S
H1221 C1213 0.929 . S
H1222 C1230 0.929 . S
H1223 C1232 0.930 . S
H1224 C1234 0.930 . S
H1225 C1237 0.929 . S
H1226 C1240 0.930 . S
H1227 C1242 0.960 . S
H1228 C1242 0.960 . S
H1229 C1242 0.960 . S
C1230 H1222 0.929 . S
C1230 C1231 1.377 . S
C1230 C1232 1.384 . S
C1231 C1230 1.377 . S
C1231 C1237 1.390 . S
C1232 H1223 0.930 . S
C1232 C1230 1.384 . S
C1232 C1233 1.372 . S
C1233 C1232 1.372 . S
C1233 C1234 1.400 . S
C1233 C1238 1.490 . S
C1234 H1224 0.930 . S
C1234 C1233 1.400 . S
C1234 C1237 1.386 . S
H1235 C1251 0.930 . S
H1236 C1252 0.931 . S
C1237 H1225 0.929 . S
C1237 C1231 1.390 . S
C1237 C1234 1.386 . S
C1238 C1233 1.490 . S
C1238 C1240 1.395 . S
C1238 C1241 1.403 . S
H1239 C1245 0.930 . S
C1240 H1226 0.930 . S
C1240 C1238 1.395 . S
C1240 C1243 1.403 . S
C1241 C1238 1.403 . S
C1241 C1242 1.524 . S
C1241 C1245 1.400 . S
C1242 H1227 0.960 . S
C1242 H1228 0.960 . S
C1242 H1229 0.960 . S
C1242 C1241 1.524 . S
C1243 C1240 1.403 . S
C1243 C1244 1.392 . S
C1243 C1247 1.495 . S
C1244 C1243 1.392 . S
C1244 C1245 1.385 . S
C1244 C1246 1.478 . S
C1245 H1239 0.930 . S
C1245 C1241 1.400 . S
C1245 C1244 1.385 . S
C1246 C1244 1.478 . S
C1246 C1248 1.381 . S
C1246 C1252 1.383 . S
C1247 C1243 1.495 . S
C1247 H1253 0.959 . S
C1247 H1254 0.961 . S
C1247 H1255 0.960 . S
C1248 C1246 1.381 . S
C1248 C1249 1.394 . S
C1248 H1256 0.930 . S
C1249 C1248 1.394 . S
C1249 C1250 1.383 . S
C1249 H1257 0.929 . S
C1250 C1249 1.383 . S
C1250 C1251 1.377 . S
C1251 H1235 0.930 . S
C1251 C1250 1.377 . S
C1251 C1252 1.379 . S
C1252 H1236 0.931 . S
C1252 C1246 1.383 . S
C1252 C1251 1.379 . S
H1253 C1247 0.959 . S
H1254 C1247 0.961 . S
H1255 C1247 0.960 . S
H1256 C1248 0.930 . S
H1257 C1249 0.929 . S
H1258 C1266 0.929 . S
H1259 C1268 0.930 . S
H1260 C1270 0.930 . S
H1261 C1273 0.929 . S
H1262 C1276 0.930 . S
H1263 C1278 0.960 . S
H1264 C1278 0.960 . S
H1265 C1278 0.960 . S
C1266 H1258 0.929 . S
C1266 C1267 1.377 . S
C1266 C1268 1.384 . S
C1267 C1266 1.377 . S
C1267 C1273 1.390 . S
C1268 H1259 0.930 . S
C1268 C1266 1.384 . S
C1268 C1269 1.372 . S
C1269 C1268 1.372 . S
C1269 C1270 1.400 . S
C1269 C1274 1.490 . S
C1270 H1260 0.930 . S
C1270 C1269 1.400 . S
C1270 C1273 1.386 . S
H1271 C1287 0.930 . S
H1272 C1288 0.931 . S
C1273 H1261 0.929 . S
C1273 C1267 1.390 . S
C1273 C1270 1.386 . S
C1274 C1269 1.490 . S
C1274 C1276 1.395 . S
C1274 C1277 1.403 . S
H1275 C1281 0.930 . S
C1276 H1262 0.930 . S
C1276 C1274 1.395 . S
C1276 C1279 1.403 . S
C1277 C1274 1.403 . S
C1277 C1278 1.524 . S
C1277 C1281 1.400 . S
C1278 H1263 0.960 . S
C1278 H1264 0.960 . S
C1278 H1265 0.960 . S
C1278 C1277 1.524 . S
C1279 C1276 1.403 . S
C1279 C1280 1.392 . S
C1279 C1283 1.495 . S
C1280 C1279 1.392 . S
C1280 C1281 1.385 . S
C1280 C1282 1.478 . S
C1281 H1275 0.930 . S
C1281 C1277 1.400 . S
C1281 C1280 1.385 . S
C1282 C1280 1.478 . S
C1282 C1284 1.381 . S
C1282 C1288 1.383 . S
C1283 C1279 1.495 . S
C1283 H1289 0.959 . S
C1283 H1290 0.961 . S
C1283 H1291 0.960 . S
C1284 C1282 1.381 . S
C1284 C1285 1.394 . S
C1284 H1292 0.930 . S
C1285 C1284 1.394 . S
C1285 C1286 1.383 . S
C1285 H1293 0.929 . S
C1286 C1285 1.383 . S
C1286 C1287 1.377 . S
C1287 H1271 0.930 . S
C1287 C1286 1.377 . S
C1287 C1288 1.379 . S
C1288 H1272 0.931 . S
C1288 C1282 1.383 . S
C1288 C1287 1.379 . S
H1289 C1283 0.959 . S
H1290 C1283 0.961 . S
H1291 C1283 0.960 . S
H1292 C1284 0.930 . S
H1293 C1285 0.929 . S
H1294 C1302 0.929 . S
H1295 C1304 0.930 . S
H1296 C1306 0.930 . S
H1297 C1309 0.929 . S
H1298 C1312 0.930 . S
H1299 C1314 0.960 . S
H1300 C1314 0.960 . S
H1301 C1314 0.960 . S
C1302 H1294 0.929 . S
C1302 C1303 1.377 . S
C1302 C1304 1.384 . S
C1303 C1302 1.377 . S
C1303 C1309 1.390 . S
C1304 H1295 0.930 . S
C1304 C1302 1.384 . S
C1304 C1305 1.372 . S
C1305 C1304 1.372 . S
C1305 C1306 1.400 . S
C1305 C1310 1.490 . S
C1306 H1296 0.930 . S
C1306 C1305 1.400 . S
C1306 C1309 1.386 . S
H1307 C1323 0.930 . S
H1308 C1324 0.931 . S
C1309 H1297 0.929 . S
C1309 C1303 1.390 . S
C1309 C1306 1.386 . S
C1310 C1305 1.490 . S
C1310 C1312 1.395 . S
C1310 C1313 1.403 . S
H1311 C1317 0.930 . S
C1312 H1298 0.930 . S
C1312 C1310 1.395 . S
C1312 C1315 1.403 . S
C1313 C1310 1.403 . S
C1313 C1314 1.524 . S
C1313 C1317 1.400 . S
C1314 H1299 0.960 . S
C1314 H1300 0.960 . S
C1314 H1301 0.960 . S
C1314 C1313 1.524 . S
C1315 C1312 1.403 . S
C1315 C1316 1.392 . S
C1315 C1319 1.495 . S
C1316 C1315 1.392 . S
C1316 C1317 1.385 . S
C1316 C1318 1.478 . S
C1317 H1311 0.930 . S
C1317 C1313 1.400 . S
C1317 C1316 1.385 . S
C1318 C1316 1.478 . S
C1318 C1320 1.381 . S
C1318 C1324 1.383 . S
C1319 C1315 1.495 . S
C1319 H1325 0.959 . S
C1319 H1326 0.961 . S
C1319 H1327 0.960 . S
C1320 C1318 1.381 . S
C1320 C1321 1.394 . S
C1320 H1328 0.930 . S
C1321 C1320 1.394 . S
C1321 C1322 1.383 . S
C1321 H1329 0.929 . S
C1322 C1321 1.383 . S
C1322 C1323 1.377 . S
C1323 H1307 0.930 . S
C1323 C1322 1.377 . S
C1323 C1324 1.379 . S
C1324 H1308 0.931 . S
C1324 C1318 1.383 . S
C1324 C1323 1.379 . S
H1325 C1319 0.959 . S
H1326 C1319 0.961 . S
H1327 C1319 0.960 . S
H1328 C1320 0.930 . S
H1329 C1321 0.929 . S
H1330 C1338 0.929 . S
H1331 C1340 0.930 . S
H1332 C1342 0.930 . S
H1333 C1345 0.929 . S
H1334 C1348 0.930 . S
H1335 C1350 0.960 . S
H1336 C1350 0.960 . S
H1337 C1350 0.960 . S
C1338 H1330 0.929 . S
C1338 C1339 1.377 . S
C1338 C1340 1.384 . S
C1339 C1338 1.377 . S
C1339 C1345 1.390 . S
C1340 H1331 0.930 . S
C1340 C1338 1.384 . S
C1340 C1341 1.372 . S
C1341 C1340 1.372 . S
C1341 C1342 1.400 . S
C1341 C1346 1.490 . S
C1342 H1332 0.930 . S
C1342 C1341 1.400 . S
C1342 C1345 1.386 . S
H1343 C1359 0.930 . S
H1344 C1360 0.931 . S
C1345 H1333 0.929 . S
C1345 C1339 1.390 . S
C1345 C1342 1.386 . S
C1346 C1341 1.490 . S
C1346 C1348 1.395 . S
C1346 C1349 1.403 . S
H1347 C1353 0.930 . S
C1348 H1334 0.930 . S
C1348 C1346 1.395 . S
C1348 C1351 1.403 . S
C1349 C1346 1.403 . S
C1349 C1350 1.524 . S
C1349 C1353 1.400 . S
C1350 H1335 0.960 . S
C1350 H1336 0.960 . S
C1350 H1337 0.960 . S
C1350 C1349 1.524 . S
C1351 C1348 1.403 . S
C1351 C1352 1.392 . S
C1351 C1355 1.495 . S
C1352 C1351 1.392 . S
C1352 C1353 1.385 . S
C1352 C1354 1.478 . S
C1353 H1347 0.930 . S
C1353 C1349 1.400 . S
C1353 C1352 1.385 . S
C1354 C1352 1.478 . S
C1354 C1356 1.381 . S
C1354 C1360 1.383 . S
C1355 C1351 1.495 . S
C1355 H1361 0.959 . S
C1355 H1362 0.961 . S
C1355 H1363 0.960 . S
C1356 C1354 1.381 . S
C1356 C1357 1.394 . S
C1356 H1364 0.930 . S
C1357 C1356 1.394 . S
C1357 C1358 1.383 . S
C1357 H1365 0.929 . S
C1358 C1357 1.383 . S
C1358 C1359 1.377 . S
C1359 H1343 0.930 . S
C1359 C1358 1.377 . S
C1359 C1360 1.379 . S
C1360 H1344 0.931 . S
C1360 C1354 1.383 . S
C1360 C1359 1.379 . S
H1361 C1355 0.959 . S
H1362 C1355 0.961 . S
H1363 C1355 0.960 . S
H1364 C1356 0.930 . S
H1365 C1357 0.929 . S
H1366 C1374 0.929 . S
H1367 C1376 0.930 . S
H1368 C1378 0.930 . S
H1369 C1381 0.929 . S
H1370 C1384 0.930 . S
H1371 C1386 0.960 . S
H1372 C1386 0.960 . S
H1373 C1386 0.960 . S
C1374 H1366 0.929 . S
C1374 C1375 1.377 . S
C1374 C1376 1.384 . S
C1375 C1374 1.377 . S
C1375 C1381 1.390 . S
C1376 H1367 0.930 . S
C1376 C1374 1.384 . S
C1376 C1377 1.372 . S
C1377 C1376 1.372 . S
C1377 C1378 1.400 . S
C1377 C1382 1.490 . S
C1378 H1368 0.930 . S
C1378 C1377 1.400 . S
C1378 C1381 1.386 . S
H1379 C1395 0.930 . S
H1380 C1396 0.931 . S
C1381 H1369 0.929 . S
C1381 C1375 1.390 . S
C1381 C1378 1.386 . S
C1382 C1377 1.490 . S
C1382 C1384 1.395 . S
C1382 C1385 1.403 . S
H1383 C1389 0.930 . S
C1384 H1370 0.930 . S
C1384 C1382 1.395 . S
C1384 C1387 1.403 . S
C1385 C1382 1.403 . S
C1385 C1386 1.524 . S
C1385 C1389 1.400 . S
C1386 H1371 0.960 . S
C1386 H1372 0.960 . S
C1386 H1373 0.960 . S
C1386 C1385 1.524 . S
C1387 C1384 1.403 . S
C1387 C1388 1.392 . S
C1387 C1391 1.495 . S
C1388 C1387 1.392 . S
C1388 C1389 1.385 . S
C1388 C1390 1.478 . S
C1389 H1383 0.930 . S
C1389 C1385 1.400 . S
C1389 C1388 1.385 . S
C1390 C1388 1.478 . S
C1390 C1392 1.381 . S
C1390 C1396 1.383 . S
C1391 C1387 1.495 . S
C1391 H1397 0.959 . S
C1391 H1398 0.961 . S
C1391 H1399 0.960 . S
C1392 C1390 1.381 . S
C1392 C1393 1.394 . S
C1392 H1400 0.930 . S
C1393 C1392 1.394 . S
C1393 C1394 1.383 . S
C1393 H1401 0.929 . S
C1394 C1393 1.383 . S
C1394 C1395 1.377 . S
C1395 H1379 0.930 . S
C1395 C1394 1.377 . S
C1395 C1396 1.379 . S
C1396 H1380 0.931 . S
C1396 C1390 1.383 . S
C1396 C1395 1.379 . S
H1397 C1391 0.959 . S
H1398 C1391 0.961 . S
H1399 C1391 0.960 . S
H1400 C1392 0.930 . S
H1401 C1393 0.929 . S
H1402 C1410 0.929 . S
H1403 C1412 0.930 . S
H1404 C1414 0.930 . S
H1405 C1417 0.929 . S
H1406 C1420 0.930 . S
H1407 C1422 0.960 . S
H1408 C1422 0.960 . S
H1409 C1422 0.960 . S
C1410 H1402 0.929 . S
C1410 C1411 1.377 . S
C1410 C1412 1.384 . S
C1411 C1410 1.377 . S
C1411 C1417 1.390 . S
C1412 H1403 0.930 . S
C1412 C1410 1.384 . S
C1412 C1413 1.372 . S
C1413 C1412 1.372 . S
C1413 C1414 1.400 . S
C1413 C1418 1.490 . S
C1414 H1404 0.930 . S
C1414 C1413 1.400 . S
C1414 C1417 1.386 . S
H1415 C1431 0.930 . S
H1416 C1432 0.931 . S
C1417 H1405 0.929 . S
C1417 C1411 1.390 . S
C1417 C1414 1.386 . S
C1418 C1413 1.490 . S
C1418 C1420 1.395 . S
C1418 C1421 1.403 . S
H1419 C1425 0.930 . S
C1420 H1406 0.930 . S
C1420 C1418 1.395 . S
C1420 C1423 1.403 . S
C1421 C1418 1.403 . S
C1421 C1422 1.524 . S
C1421 C1425 1.400 . S
C1422 H1407 0.960 . S
C1422 H1408 0.960 . S
C1422 H1409 0.960 . S
C1422 C1421 1.524 . S
C1423 C1420 1.403 . S
C1423 C1424 1.392 . S
C1423 C1427 1.495 . S
C1424 C1423 1.392 . S
C1424 C1425 1.385 . S
C1424 C1426 1.478 . S
C1425 H1419 0.930 . S
C1425 C1421 1.400 . S
C1425 C1424 1.385 . S
C1426 C1424 1.478 . S
C1426 C1428 1.381 . S
C1426 C1432 1.383 . S
C1427 C1423 1.495 . S
C1427 H1433 0.959 . S
C1427 H1434 0.961 . S
C1427 H1435 0.960 . S
C1428 C1426 1.381 . S
C1428 C1429 1.394 . S
C1428 H1436 0.930 . S
C1429 C1428 1.394 . S
C1429 C1430 1.383 . S
C1429 H1437 0.929 . S
C1430 C1429 1.383 . S
C1430 C1431 1.377 . S
C1431 H1415 0.930 . S
C1431 C1430 1.377 . S
C1431 C1432 1.379 . S
C1432 H1416 0.931 . S
C1432 C1426 1.383 . S
C1432 C1431 1.379 . S
H1433 C1427 0.959 . S
H1434 C1427 0.961 . S
H1435 C1427 0.960 . S
H1436 C1428 0.930 . S
H1437 C1429 0.929 . S
C602 C278 1.555 . S
C583 C23 1.541 . S
C638 C347 1.538 . S
C619 C49 1.521 . S
C674 C285 1.533 . S
C655 C87 1.513 . S
C710 C348 1.544 . S
C691 C125 1.512 . S
C746 C401 1.557 . S
C727 C29 1.541 . S
C782 C437 1.511 . S
C763 C61 1.496 . S
C799 C81 1.502 . S
C818 C497 1.534 . S
C854 C560 1.517 . S
C835 C113 1.489 . S
C890 C400 1.528 . S
C871 C55 1.508 . S
C907 C93 1.486 . S
C926 C444 1.526 . S
C962 C490 1.530 . S
C943 C119 1.498 . S
C998 C559 1.526 . S
C979 C17 1.523 . S
C1015 C151 1.524 . S
C1034 C338 1.552 . S
C1070 C295 1.533 . S
C1051 C177 1.511 . S
C1087 C215 1.529 . S
C1106 C331 1.534 . S
C1123 C253 1.529 . S
C1142 C294 1.543 . S
C1178 C506 1.561 . S
C1159 C157 1.504 . S
C1214 C550 1.513 . S
C1195 C189 1.470 . S
C1250 C384 1.545 . S
C1231 C209 1.534 . S
C1267 C241 1.502 . S
C1286 C453 1.515 . S
C1322 C507 1.514 . S
C1303 C183 1.493 . S
C1358 C543 1.524 . S
C1339 C221 1.507 . S
C1394 C391 1.542 . S
C1375 C247 1.527 . S
C1411 C145 1.492 . S
C1430 C454 1.527 . S
