# Generated by pormake.
# Topology pto, (3,4)-cn, num edge types: 1
# Building blocks:
#     Node 0, Type 0, BuildingBlock: OLANEW_clean_sbu_2, # of connection points: 3
#     Node 1, Type 0, BuildingBlock: OLANEW_clean_sbu_2, # of connection points: 3
#     Node 2, Type 0, BuildingBlock: OLANEW_clean_sbu_2, # of connection points: 3
#     Node 3, Type 0, BuildingBlock: OLANEW_clean_sbu_2, # of connection points: 3
#     Node 4, Type 0, BuildingBlock: OLANEW_clean_sbu_2, # of connection points: 3
#     Node 5, Type 0, BuildingBlock: OLANEW_clean_sbu_2, # of connection points: 3
#     Node 6, Type 0, BuildingBlock: OLANEW_clean_sbu_2, # of connection points: 3
#     Node 7, Type 0, BuildingBlock: OLANEW_clean_sbu_2, # of connection points: 3
#     Node 8, Type 1, BuildingBlock: GIZVER_clean_linker_0, # of connection points: 4
#     Node 9, Type 1, BuildingBlock: GIZVER_clean_linker_0, # of connection points: 4
#     Node 10, Type 1, BuildingBlock: GIZVER_clean_linker_0, # of connection points: 4
#     Node 11, Type 1, BuildingBlock: GIZVER_clean_linker_0, # of connection points: 4
#     Node 12, Type 1, BuildingBlock: GIZVER_clean_linker_0, # of connection points: 4
#     Node 13, Type 1, BuildingBlock: GIZVER_clean_linker_0, # of connection points: 4
#     Edge 14, Type (0, 1), BuildingBlock: ZUJKAS_clean_linker_0, # of connection points: 2
#     Edge 15, Type (0, 1), BuildingBlock: ZUJKAS_clean_linker_0, # of connection points: 2
#     Edge 16, Type (0, 1), BuildingBlock: ZUJKAS_clean_linker_0, # of connection points: 2
#     Edge 17, Type (0, 1), BuildingBlock: ZUJKAS_clean_linker_0, # of connection points: 2
#     Edge 18, Type (0, 1), BuildingBlock: ZUJKAS_clean_linker_0, # of connection points: 2
#     Edge 19, Type (0, 1), BuildingBlock: ZUJKAS_clean_linker_0, # of connection points: 2
#     Edge 20, Type (0, 1), BuildingBlock: ZUJKAS_clean_linker_0, # of connection points: 2
#     Edge 21, Type (0, 1), BuildingBlock: ZUJKAS_clean_linker_0, # of connection points: 2
#     Edge 22, Type (0, 1), BuildingBlock: ZUJKAS_clean_linker_0, # of connection points: 2
#     Edge 23, Type (0, 1), BuildingBlock: ZUJKAS_clean_linker_0, # of connection points: 2
#     Edge 24, Type (0, 1), BuildingBlock: ZUJKAS_clean_linker_0, # of connection points: 2
#     Edge 25, Type (0, 1), BuildingBlock: ZUJKAS_clean_linker_0, # of connection points: 2
#     Edge 26, Type (0, 1), BuildingBlock: ZUJKAS_clean_linker_0, # of connection points: 2
#     Edge 27, Type (0, 1), BuildingBlock: ZUJKAS_clean_linker_0, # of connection points: 2
#     Edge 28, Type (0, 1), BuildingBlock: ZUJKAS_clean_linker_0, # of connection points: 2
#     Edge 29, Type (0, 1), BuildingBlock: ZUJKAS_clean_linker_0, # of connection points: 2
#     Edge 30, Type (0, 1), BuildingBlock: ZUJKAS_clean_linker_0, # of connection points: 2
#     Edge 31, Type (0, 1), BuildingBlock: ZUJKAS_clean_linker_0, # of connection points: 2
#     Edge 32, Type (0, 1), BuildingBlock: ZUJKAS_clean_linker_0, # of connection points: 2
#     Edge 33, Type (0, 1), BuildingBlock: ZUJKAS_clean_linker_0, # of connection points: 2
#     Edge 34, Type (0, 1), BuildingBlock: ZUJKAS_clean_linker_0, # of connection points: 2
#     Edge 35, Type (0, 1), BuildingBlock: ZUJKAS_clean_linker_0, # of connection points: 2
#     Edge 36, Type (0, 1), BuildingBlock: ZUJKAS_clean_linker_0, # of connection points: 2
#     Edge 37, Type (0, 1), BuildingBlock: ZUJKAS_clean_linker_0, # of connection points: 2
# Relax obj value: 0.016
# Max RMSD: 0.163
# Mean RMSD: 0.075
data_MOF--net-pto--node1-OLANEW_clean_sbu_2--node2-GIZVER_clean_linker_0--edge1-ZUJKAS_clean_linker_0
_symmetry_space_group_name_H-M    P1
_symmetry_Int_Tables_number       1
_symmetry_cell_setting            triclinic
loop_
_symmetry_equiv_pos_as_xyz
'x, y, z'
_cell_length_a     67.283228
_cell_length_b     56.689052
_cell_length_c     40.270232
_cell_angle_alpha  94.030925
_cell_angle_beta   90.129121
_cell_angle_gamma 99.967929
loop_
_atom_site_label
_atom_site_type_symbol
_atom_site_fract_x
_atom_site_fract_y
_atom_site_fract_z
_atom_type_partial_charge
O0 O 0.31439 0.40073 0.21403 0.0
Cd1 Cd 0.27913 0.38335 0.22234 0.0
O2 O 0.31509 0.43088 0.25175 0.0
Cd3 Cd 0.28234 0.42368 0.25812 0.0
O4 O 0.25038 0.42693 0.25938 0.0
C5 C 0.23899 0.42006 0.23404 0.0
O6 O 0.24649 0.41005 0.20761 0.0
C7 C 0.32421 0.41893 0.23072 0.0
C8 C 0.27899 0.34343 0.25894 0.0
O9 O 0.27911 0.34146 0.22704 0.0
O10 O 0.27825 0.36413 0.27341 0.0
O11 O 0.30132 0.88744 0.89394 0.0
Cd12 Cd 0.28173 0.91975 0.90322 0.0
O13 O 0.27366 0.86238 0.87968 0.0
Cd14 Cd 0.25327 0.82911 0.86332 0.0
O15 O 0.22833 0.79918 0.85312 0.0
C16 C 0.21185 0.79957 0.86837 0.0
O17 O 0.21047 0.81788 0.88962 0.0
C18 C 0.29267 0.86622 0.88479 0.0
C19 C 0.28964 0.95392 0.85631 0.0
O20 O 0.30025 0.95583 0.88316 0.0
O21 O 0.27534 0.93582 0.85168 0.0
O22 O 0.78211 0.73559 0.20243 0.0
Cd23 Cd 0.77837 0.69683 0.17034 0.0
O24 O 0.7522 0.72766 0.22531 0.0
Cd25 Cd 0.74033 0.69465 0.19522 0.0
O26 O 0.71266 0.67809 0.16809 0.0
C27 C 0.70565 0.69223 0.14989 0.0
O28 O 0.71603 0.71393 0.14763 0.0
C29 C 0.76902 0.74157 0.22258 0.0
C30 C 0.81498 0.67978 0.16825 0.0
O31 O 0.81005 0.69241 0.14538 0.0
O32 O 0.80255 0.67513 0.19195 0.0
O33 O 0.7977 0.32553 0.78391 0.0
Cd34 Cd 0.76586 0.29761 0.77432 0.0
O35 O 0.77914 0.3524 0.79876 0.0
Cd36 Cd 0.77064 0.38722 0.81358 0.0
O37 O 0.75167 0.41294 0.83184 0.0
C38 C 0.7408 0.42208 0.81216 0.0
O39 O 0.74178 0.41688 0.77995 0.0
C40 C 0.79655 0.34699 0.79405 0.0
C41 C 0.77003 0.25561 0.73669 0.0
O42 O 0.7685 0.27487 0.72274 0.0
O43 O 0.76975 0.25621 0.76857 0.0
O44 O 0.80725 0.79433 0.76398 0.0
Cd45 Cd 0.8115 0.76641 0.80602 0.0
O46 O 0.77456 0.78508 0.7701 0.0
Cd47 Cd 0.74242 0.78457 0.76014 0.0
O48 O 0.70944 0.77817 0.7625 0.0
C49 C 0.69955 0.75736 0.75428 0.0
O50 O 0.70938 0.7404 0.7431 0.0
C51 C 0.78955 0.79727 0.75626 0.0
C52 C 0.84441 0.74291 0.79554 0.0
O53 O 0.82701 0.73415 0.78272 0.0
O54 O 0.84633 0.76302 0.81295 0.0
O55 O 0.79991 0.31694 0.20901 0.0
Cd56 Cd 0.76604 0.29332 0.21267 0.0
O57 O 0.79117 0.35014 0.23141 0.0
Cd58 Cd 0.75868 0.33711 0.23367 0.0
O59 O 0.72804 0.34453 0.22786 0.0
C60 C 0.72268 0.34818 0.19865 0.0
O61 O 0.73509 0.34561 0.17403 0.0
C62 C 0.80465 0.3389 0.21947 0.0
C63 C 0.7677 0.25042 0.24184 0.0
O64 O 0.76895 0.25159 0.21022 0.0
O65 O 0.76546 0.26946 0.25953 0.0
O66 O 0.31241 0.45329 0.86527 0.0
Cd67 Cd 0.28213 0.42559 0.84405 0.0
O68 O 0.32123 0.46594 0.81616 0.0
Cd69 Cd 0.29744 0.43973 0.79119 0.0
O70 O 0.28936 0.40341 0.76797 0.0
C71 C 0.3023 0.39005 0.77276 0.0
O72 O 0.31831 0.39887 0.79133 0.0
C73 C 0.32449 0.46666 0.84735 0.0
C74 C 0.24607 0.44376 0.84749 0.0
O75 O 0.25165 0.43236 0.87124 0.0
O76 O 0.25772 0.44698 0.82247 0.0
O77 O 0.32788 0.77335 0.33613 0.0
Cd78 Cd 0.30877 0.78823 0.38201 0.0
O79 O 0.30151 0.77296 0.30408 0.0
Cd80 Cd 0.28228 0.76399 0.25952 0.0
O81 O 0.25373 0.74952 0.23345 0.0
C82 C 0.23823 0.74659 0.25172 0.0
O83 O 0.24046 0.7529 0.28372 0.0
C84 C 0.31943 0.76909 0.3076 0.0
C85 C 0.31352 0.83821 0.38826 0.0
O86 O 0.32541 0.82705 0.40347 0.0
O87 O 0.29945 0.82571 0.36975 0.0
H88 H 0.004 0.49426 0.14529 0.0
H89 H 0.00416 0.56942 0.13514 0.0
H90 H 0.9541 0.52648 0.18087 0.0
H91 H 0.02668 0.51642 0.10593 0.0
H92 H 0.02653 0.54749 0.10122 0.0
H93 H 0.04611 0.5038 0.15142 0.0
H94 H 0.09184 0.55766 0.19973 0.0
H95 H 0.04628 0.57874 0.13898 0.0
C96 C 0.99696 0.50999 0.14968 0.0
C97 C 0.9782 0.50794 0.16541 0.0
C98 C 0.00645 0.53217 0.13888 0.0
C99 C 0.99701 0.55241 0.14392 0.0
C100 C 0.97818 0.55059 0.15949 0.0
C101 C 0.96906 0.52833 0.17035 0.0
C102 C 0.02591 0.53386 0.11996 0.0
C103 C 0.04389 0.54055 0.14328 0.0
C104 C 0.05251 0.52253 0.15728 0.0
C105 C 0.06971 0.52864 0.17799 0.0
C106 C 0.07801 0.55293 0.18504 0.0
C107 C 0.06979 0.57109 0.17094 0.0
C108 C 0.0526 0.56482 0.15025 0.0
H109 H 0.03967 0.5934 0.79237 0.0
H110 H 0.04591 0.51926 0.79586 0.0
H111 H 0.0879 0.57476 0.84935 0.0
H112 H 0.02627 0.5604 0.74625 0.0
H113 H 0.02347 0.5298 0.75573 0.0
H114 H 0.00449 0.58728 0.77189 0.0
H115 H 0.94809 0.55241 0.80923 0.0
H116 H 0.99646 0.5126 0.79201 0.0
C117 C 0.04709 0.57983 0.80221 0.0
C118 C 0.06406 0.58685 0.82325 0.0
C119 C 0.04022 0.55542 0.79266 0.0
C120 C 0.05068 0.53801 0.80411 0.0
C121 C 0.06784 0.54484 0.82487 0.0
C122 C 0.0741 0.56923 0.83477 0.0
C123 C 0.02348 0.54831 0.76697 0.0
C124 C 0.00299 0.54993 0.78131 0.0
C125 C 0.99536 0.57155 0.78129 0.0
C126 C 0.97552 0.57247 0.79121 0.0
C127 C 0.96355 0.5518 0.8022 0.0
C128 C 0.97087 0.53009 0.8026 0.0
C129 C 0.99073 0.52934 0.79236 0.0
H130 H 0.33667 0.15674 0.4724 0.0
H131 H 0.33788 0.16883 0.57917 0.0
H132 H 0.3038 0.20811 0.51978 0.0
H133 H 0.36184 0.14219 0.50519 0.0
H134 H 0.36426 0.14977 0.54905 0.0
H135 H 0.34137 0.10466 0.48397 0.0
H136 H 0.31389 0.0552 0.55347 0.0
H137 H 0.34043 0.12715 0.58834 0.0
C138 C 0.33176 0.16569 0.49479 0.0
C139 C 0.31898 0.18265 0.49233 0.0
C140 C 0.33858 0.16059 0.52608 0.0
C141 C 0.33242 0.17248 0.55506 0.0
C142 C 0.31948 0.18929 0.55301 0.0
C143 C 0.31284 0.19416 0.52158 0.0
C144 C 0.35312 0.14328 0.52853 0.0
C145 C 0.34194 0.11872 0.53536 0.0
C146 C 0.33698 0.10086 0.50919 0.0
C147 C 0.32665 0.07799 0.51563 0.0
C148 C 0.32111 0.07318 0.54834 0.0
C149 C 0.32605 0.09071 0.57478 0.0
C150 C 0.33645 0.11351 0.56809 0.0
H151 H 0.46206 0.74383 0.94167 0.0
H152 H 0.47076 0.73375 0.04526 0.0
H153 H 0.41095 0.72223 0.00345 0.0
H154 H 0.493 0.76348 0.97279 0.0
H155 H 0.49722 0.75707 0.01461 0.0
H156 H 0.50445 0.7401 0.92727 0.0
H157 H 0.54151 0.68872 0.95 0.0
H158 H 0.50654 0.71759 0.0269 0.0
C159 C 0.45589 0.73813 0.96522 0.0
C160 C 0.43485 0.73221 0.96879 0.0
C161 C 0.46897 0.73843 0.99262 0.0
C162 C 0.46087 0.73236 0.02365 0.0
C163 C 0.43995 0.72605 0.02739 0.0
C164 C 0.42714 0.72549 -0.00022 0.0
C165 C 0.49107 0.74876 0.99002 0.0
C166 C 0.50326 0.72994 0.97802 0.0
C167 C 0.50939 0.72849 0.94469 0.0
C168 C 0.52307 0.71344 0.93435 0.0
C169 C 0.52995 0.69913 0.95739 0.0
C170 C 0.52426 0.7006 0.99088 0.0
C171 C 0.51058 0.71575 0.00091 0.0
H172 H 0.80788 0.03593 0.41748 0.0
H173 H 0.80989 0.03942 0.52465 0.0
H174 H 0.77807 0.08625 0.47468 0.0
H175 H 0.83253 0.01745 0.44674 0.0
H176 H 0.83406 0.01977 0.49119 0.0
H177 H 0.81104 0.98379 0.4173 0.0
H178 H 0.78171 0.92635 0.47352 0.0
H179 H 0.80878 0.99348 0.52421 0.0
C180 C 0.80342 0.0434 0.44126 0.0
C181 C 0.79187 0.06189 0.4423 0.0
C182 C 0.80979 0.03501 0.47088 0.0
C183 C 0.80451 0.04523 0.50171 0.0
C184 C 0.79271 0.06334 0.50302 0.0
C185 C 0.78627 0.07135 0.47337 0.0
C186 C 0.8233 0.01636 0.46966 0.0
C187 C 0.811 0.99151 0.47062 0.0
C188 C 0.80612 0.97699 0.44096 0.0
C189 C 0.79534 0.95352 0.44185 0.0
C190 C 0.78918 0.94485 0.47263 0.0
C191 C 0.79396 0.95902 0.50248 0.0
C192 C 0.80481 0.98245 0.50129 0.0
H193 H 0.53254 0.52564 0.00358 0.0
H194 H 0.53428 0.50554 0.10478 0.0
H195 H 0.47993 0.48527 0.04584 0.0
H196 H 0.56032 0.54437 0.04132 0.0
H197 H 0.56038 0.5375 0.08397 0.0
H198 H 0.5744 0.51944 0.99812 0.0
H199 H 0.61122 0.47048 0.03093 0.0
H200 H 0.57325 0.50161 0.10066 0.0
C201 C 0.52528 0.51646 0.02422 0.0
C202 C 0.5051 0.50491 0.02097 0.0
C203 C 0.53602 0.51641 0.05428 0.0
C204 C 0.52626 0.50509 0.08131 0.0
C205 C 0.50608 0.49351 0.0782 0.0
C206 C 0.49578 0.49331 0.04788 0.0
C207 C 0.55753 0.52937 0.05807 0.0
C208 C 0.57208 0.51233 0.05022 0.0
C209 C 0.57942 0.50955 0.01767 0.0
C210 C 0.59337 0.4942 0.01048 0.0
C211 C 0.60003 0.48187 0.03612 0.0
C212 C 0.593 0.48452 0.06863 0.0
C213 C 0.57867 0.49939 0.0755 0.0
H214 H 0.21959 0.44289 0.28299 0.0
H215 H 0.18665 0.45526 0.27914 0.0
H216 H 0.17862 0.42236 0.17907 0.0
H217 H 0.2114 0.40968 0.18278 0.0
H218 H 0.17778 0.48585 0.23298 0.0
H219 H 0.12349 0.4001 0.21978 0.0
H220 H 0.149 0.40203 0.23517 0.0
H221 H 0.14405 0.40159 0.19122 0.0
C222 C 0.21068 0.43791 0.26035 0.0
C223 C 0.21819 0.42537 0.23313 0.0
C224 C 0.19184 0.44498 0.25822 0.0
C225 C 0.18007 0.43949 0.22898 0.0
C226 C 0.18723 0.42634 0.20214 0.0
H227 H 0.08122 0.49145 0.14052 0.0
H228 H 0.10621 0.46729 0.15606 0.0
C229 C 0.20608 0.41927 0.20423 0.0
C230 C 0.16141 0.44974 0.22522 0.0
H231 H 0.11101 0.43537 0.20633 0.0
C232 C 0.16313 0.47481 0.22761 0.0
C233 C 0.14235 0.43528 0.21789 0.0
C234 C 0.13951 0.40824 0.21614 0.0
C235 C 0.14648 0.48589 0.22192 0.0
C236 C 0.12742 0.47147 0.21436 0.0
C237 C 0.1256 0.44636 0.21231 0.0
C238 C 0.10957 0.48242 0.20702 0.0
C239 C 0.14963 0.51296 0.22278 0.0
C240 C 0.10242 0.49796 0.231 0.0
C241 C 0.08824 0.51182 0.22216 0.0
C242 C 0.08078 0.51012 0.18929 0.0
C243 C 0.08662 0.493 0.16608 0.0
C244 C 0.10095 0.47927 0.17489 0.0
H245 H 0.16584 0.521 0.22117 0.0
H246 H 0.1413 0.51895 0.20201 0.0
H247 H 0.14386 0.52007 0.24656 0.0
H248 H 0.10859 0.50028 0.25612 0.0
H249 H 0.08384 0.52472 0.24059 0.0
H250 H 0.20921 0.75987 0.82472 0.0
H251 H 0.18092 0.72645 0.81658 0.0
H252 H 0.14738 0.76023 0.89161 0.0
H253 H 0.17543 0.79391 0.89954 0.0
H254 H 0.16498 0.69592 0.86304 0.0
H255 H 0.10616 0.74302 0.81554 0.0
H256 H 0.1326 0.75619 0.8173 0.0
H257 H 0.11767 0.75627 0.85426 0.0
C258 C 0.19575 0.7603 0.83931 0.0
C259 C 0.19458 0.77958 0.86275 0.0
C260 C 0.1796 0.7412 0.83461 0.0
C261 C 0.16193 0.74102 0.85314 0.0
C262 C 0.16068 0.76025 0.8765 0.0
H263 H 0.07739 0.61025 0.88283 0.0
H264 H 0.09928 0.64952 0.89145 0.0
C265 C 0.17681 0.77941 0.88116 0.0
C266 C 0.14536 0.72001 0.8494 0.0
H267 H 0.09528 0.70275 0.82957 0.0
C268 C 0.14975 0.69742 0.85567 0.0
C269 C 0.12555 0.72199 0.8395 0.0
C270 C 0.12019 0.74562 0.83094 0.0
C271 C 0.13487 0.67675 0.85255 0.0
C272 C 0.11491 0.6788 0.8436 0.0
C273 C 0.11052 0.70133 0.83693 0.0
C274 C 0.09875 0.65741 0.83969 0.0
C275 C 0.14076 0.6528 0.85818 0.0
C276 C 0.09021 0.64959 0.80815 0.0
C277 C 0.07755 0.62727 0.80323 0.0
C278 C 0.07329 0.61247 0.82982 0.0
C279 C 0.08061 0.62121 0.86186 0.0
C280 C 0.09316 0.64355 0.86678 0.0
H281 H 0.15735 0.65358 0.85703 0.0
H282 H 0.13577 0.64741 0.88321 0.0
H283 H 0.1334 0.63868 0.83941 0.0
H284 H 0.09429 0.66009 0.78696 0.0
H285 H 0.07225 0.62092 0.77823 0.0
H286 H 0.83087 0.65573 0.21544 0.0
H287 H 0.86242 0.63984 0.21311 0.0
H288 H 0.87453 0.66726 0.11666 0.0
H289 H 0.84292 0.68321 0.1187 0.0
H290 H 0.87781 0.61816 0.12054 0.0
H291 H 0.92134 0.67606 0.22197 0.0
H292 H 0.89642 0.66235 0.23335 0.0
H293 H 0.89945 0.68389 0.20227 0.0
C294 C 0.84029 0.65854 0.19381 0.0
C295 C 0.83437 0.67074 0.16725 0.0
C296 C 0.8584 0.64961 0.19265 0.0
C297 C 0.87095 0.65271 0.16494 0.0
C298 C 0.86512 0.66488 0.13839 0.0
H299 H 0.97387 0.58176 0.11192 0.0
H300 H 0.95036 0.61027 0.11234 0.0
C301 C 0.84706 0.67395 0.13961 0.0
C302 C 0.88946 0.64183 0.16284 0.0
H303 H 0.93424 0.64101 0.20247 0.0
C304 C 0.89031 0.62335 0.13812 0.0
C305 C 0.90566 0.64864 0.18591 0.0
C306 C 0.90583 0.66897 0.21222 0.0
C307 C 0.90652 0.61072 0.13672 0.0
C308 C 0.92258 0.61719 0.16022 0.0
C309 C 0.92197 0.63614 0.18441 0.0
C310 C 0.93923 0.60318 0.16168 0.0
C311 C 0.90577 0.58978 0.11114 0.0
C312 C 0.94172 0.59096 0.19008 0.0
C313 C 0.95539 0.57502 0.19015 0.0
C314 C 0.96681 0.57093 0.16176 0.0
C315 C 0.96534 0.58451 0.13421 0.0
C316 C 0.95171 0.60058 0.13424 0.0
H317 H 0.89041 0.58386 0.10013 0.0
H318 H 0.91621 0.59518 0.09066 0.0
H319 H 0.91057 0.57426 0.1223 0.0
H320 H 0.9324 0.59288 0.21168 0.0
H321 H 0.95644 0.56517 0.212 0.0
H322 H 0.80335 0.38675 0.83821 0.0
H323 H 0.83432 0.41651 0.84575 0.0
H324 H 0.86303 0.37735 0.76965 0.0
H325 H 0.83218 0.34744 0.76227 0.0
H326 H 0.88781 0.39181 0.82341 0.0
H327 H 0.85417 0.46828 0.78365 0.0
H328 H 0.84145 0.45373 0.81776 0.0
H329 H 0.84134 0.43758 0.77766 0.0
C330 C 0.81612 0.38474 0.82267 0.0
C331 C 0.81517 0.36509 0.79907 0.0
C332 C 0.83386 0.40169 0.8271 0.0
C333 C 0.85087 0.39944 0.80776 0.0
C334 C 0.85007 0.37953 0.78473 0.0
H335 H 0.96548 0.48595 0.76844 0.0
H336 H 0.93763 0.45251 0.77409 0.0
C337 C 0.83242 0.36248 0.7805 0.0
C338 C 0.86953 0.41779 0.81132 0.0
H339 H 0.88773 0.47727 0.80429 0.0
C340 C 0.8878 0.41051 0.81926 0.0
C341 C 0.8695 0.44217 0.80579 0.0
C342 C 0.85062 0.45092 0.79543 0.0
C343 C 0.90602 0.42698 0.82193 0.0
C344 C 0.90595 0.45128 0.81634 0.0
C345 C 0.88768 0.45862 0.80881 0.0
C346 C 0.92469 0.4694 0.81668 0.0
C347 C 0.92519 0.41834 0.83088 0.0
C348 C 0.92689 0.48973 0.83921 0.0
C349 C 0.94283 0.50878 0.83616 0.0
C350 C 0.95675 0.50799 0.81025 0.0
C351 C 0.95518 0.48699 0.78891 0.0
C352 C 0.93924 0.46788 0.79206 0.0
H353 H 0.92204 0.40072 0.84203 0.0
H354 H 0.93408 0.41624 0.80802 0.0
H355 H 0.93458 0.43159 0.84865 0.0
H356 H 0.9158 0.49123 0.85837 0.0
H357 H 0.94377 0.5246 0.85321 0.0
H358 H 0.27807 0.34178 0.32654 0.0
H359 H 0.28434 0.30896 0.35908 0.0
H360 H 0.29094 0.26577 0.26861 0.0
H361 H 0.28438 0.29843 0.23573 0.0
H362 H 0.26861 0.24 0.31751 0.0
H363 H 0.34084 0.29204 0.36867 0.0
H364 H 0.31992 0.30751 0.37555 0.0
H365 H 0.32785 0.3011 0.33374 0.0
C366 C 0.28069 0.32524 0.31351 0.0
C367 C 0.2809 0.32279 0.27854 0.0
C368 C 0.28438 0.30656 0.33215 0.0
C369 C 0.28852 0.28516 0.31622 0.0
C370 C 0.28792 0.28223 0.28134 0.0
H371 H 0.34336 0.19234 0.43892 0.0
H372 H 0.33592 0.21261 0.38989 0.0
C373 C 0.28417 0.30091 0.26263 0.0
C374 C 0.29398 0.26618 0.33614 0.0
H375 H 0.32732 0.25669 0.39555 0.0
C376 C 0.28156 0.2435 0.33433 0.0
C377 C 0.31116 0.27061 0.35743 0.0
C378 C 0.32584 0.29405 0.35877 0.0
C379 C 0.28532 0.22552 0.3546 0.0
C380 C 0.30172 0.23055 0.37756 0.0
C381 C 0.31467 0.25284 0.37811 0.0
C382 C 0.30496 0.21396 0.40316 0.0
C383 C 0.27164 0.20139 0.35132 0.0
C384 C 0.28985 0.20729 0.42635 0.0
C385 C 0.29399 0.19546 0.45414 0.0
C386 C 0.31343 0.19039 0.45958 0.0
C387 C 0.3282 0.19578 0.43531 0.0
C388 C 0.324 0.20752 0.40739 0.0
H389 H 0.26489 0.19756 0.32589 0.0
H390 H 0.27986 0.1867 0.35683 0.0
H391 H 0.25909 0.20144 0.36914 0.0
H392 H 0.27517 0.21246 0.42406 0.0
H393 H 0.28225 0.19133 0.47225 0.0
H394 H 0.28036 0.8176 0.88988 0.0
H395 H 0.30154 0.78669 0.88904 0.0
H396 H 0.35413 0.84023 0.87485 0.0
H397 H 0.33289 0.87096 0.87355 0.0
H398 H 0.35624 0.7976 0.83911 0.0
H399 H 0.33533 0.78223 0.97048 0.0
H400 H 0.31459 0.77681 0.94126 0.0
H401 H 0.32851 0.80674 0.94942 0.0
C402 C 0.29626 0.8227 0.88524 0.0
C403 C 0.30484 0.84676 0.88134 0.0
C404 C 0.30845 0.80503 0.8854 0.0
C405 C 0.32947 0.81121 0.88244 0.0
C406 C 0.33795 0.83503 0.87721 0.0
H407 H 0.43892 0.77146 0.93217 0.0
H408 H 0.4122 0.78557 0.9025 0.0
C409 C 0.32579 0.85261 0.8767 0.0
C410 C 0.34294 0.79357 0.88747 0.0
H411 H 0.3592 0.76094 0.94685 0.0
C412 C 0.35673 0.78932 0.86251 0.0
C413 C 0.34359 0.78278 0.91804 0.0
C414 C 0.32986 0.78747 0.94647 0.0
C415 C 0.37152 0.77517 0.8677 0.0
C416 C 0.37261 0.76519 0.89869 0.0
C417 C 0.35823 0.76848 0.92299 0.0
C418 C 0.38982 0.75384 0.90841 0.0
C419 C 0.38609 0.77142 0.84025 0.0
C420 C 0.38635 0.73094 0.92068 0.0
C421 C 0.40169 0.72273 0.93761 0.0
C422 C 0.4207 0.73744 0.94295 0.0
C423 C 0.42459 0.7595 0.92816 0.0
C424 C 0.40927 0.76764 0.91114 0.0
H425 H 0.3795 0.77321 0.81542 0.0
H426 H 0.3999 0.78527 0.84387 0.0
H427 H 0.39056 0.75346 0.84047 0.0
H428 H 0.37143 0.72004 0.91892 0.0
H429 H 0.3983 0.70555 0.94841 0.0
H430 H 0.74393 0.75973 0.26685 0.0
H431 H 0.74987 0.79848 0.29884 0.0
H432 H 0.80881 0.8153 0.25579 0.0
H433 H 0.80292 0.7765 0.22316 0.0
H434 H 0.78084 0.81502 0.34536 0.0
H435 H 0.78364 0.87524 0.24155 0.0
H436 H 0.77347 0.84354 0.23629 0.0
H437 H 0.80028 0.85359 0.23829 0.0
C438 C 0.75816 0.77163 0.26402 0.0
C439 C 0.77294 0.76499 0.24237 0.0
C440 C 0.76151 0.79381 0.28232 0.0
C441 C 0.77965 0.80988 0.27932 0.0
C442 C 0.79454 0.80333 0.25794 0.0
H443 H 0.82297 0.94529 0.39467 0.0
H444 H 0.81948 0.91178 0.35185 0.0
C445 C 0.7912 0.78108 0.23954 0.0
C446 C 0.78311 0.83298 0.29982 0.0
H447 H 0.78975 0.8939 0.29596 0.0
C448 C 0.78281 0.83226 0.33455 0.0
C449 C 0.78578 0.85543 0.28559 0.0
C450 C 0.78568 0.85715 0.24839 0.0
C451 C 0.78496 0.85336 0.35551 0.0
C452 C 0.78715 0.87577 0.34133 0.0
C453 C 0.78794 0.87662 0.30663 0.0
C454 C 0.78827 0.89832 0.36259 0.0
C455 C 0.78491 0.85152 0.39273 0.0
C456 C 0.77158 0.90239 0.38156 0.0
C457 C 0.7735 0.92146 0.40587 0.0
C458 C 0.79214 0.93684 0.41152 0.0
C459 C 0.8084 0.93382 0.39071 0.0
C460 C 0.80647 0.91465 0.36638 0.0
H461 H 0.78773 0.83372 0.39953 0.0
H462 H 0.79653 0.86571 0.40519 0.0
H463 H 0.76995 0.85404 0.4025 0.0
H464 H 0.75733 0.89012 0.37862 0.0
H465 H 0.76067 0.92355 0.42131 0.0
H466 H 0.71526 0.4445 0.77738 0.0
H467 H 0.68882 0.46558 0.79985 0.0
H468 H 0.7056 0.45245 0.89944 0.0
H469 H 0.73224 0.43198 0.87739 0.0
H470 H 0.65645 0.44772 0.83373 0.0
H471 H 0.70081 0.522 0.91205 0.0
H472 H 0.71236 0.50431 0.88111 0.0
H473 H 0.70743 0.49405 0.92216 0.0
C474 C 0.71353 0.44646 0.80411 0.0
C475 C 0.7259 0.43658 0.82559 0.0
C476 C 0.6984 0.45851 0.81689 0.0
C477 C 0.69543 0.461 0.85137 0.0
C478 C 0.70795 0.45141 0.87282 0.0
H479 H 0.59737 0.45294 0.97461 0.0
H480 H 0.61972 0.44877 0.92797 0.0
C481 C 0.72311 0.4395 0.86012 0.0
C482 C 0.67824 0.47166 0.86512 0.0
H483 H 0.6662 0.50884 0.92934 0.0
C484 C 0.65859 0.4615 0.85414 0.0
C485 C 0.68092 0.49013 0.89107 0.0
C486 C 0.70156 0.50342 0.90197 0.0
C487 C 0.64161 0.4678 0.87038 0.0
C488 C 0.64438 0.48422 0.89884 0.0
C489 C 0.66398 0.49594 0.90788 0.0
C490 C 0.62776 0.48695 0.92228 0.0
C491 C 0.62091 0.45626 0.85739 0.0
C492 C 0.62453 0.5098 0.93458 0.0
C493 C 0.61187 0.51222 0.96174 0.0
C494 C 0.60242 0.49182 0.97713 0.0
C495 C 0.60453 0.46896 0.96326 0.0
C496 C 0.61717 0.46656 0.93631 0.0
H497 H 0.62095 0.45289 0.82987 0.0
H498 H 0.6165 0.43863 0.86808 0.0
H499 H 0.6094 0.46759 0.86407 0.0
H500 H 0.63262 0.5258 0.92429 0.0
H501 H 0.61064 0.53005 0.97214 0.0
H502 H 0.26835 0.95621 0.79914 0.0
H503 H 0.27564 0.98563 0.75726 0.0
H504 H 0.32742 0.02202 0.8149 0.0
H505 H 0.32031 0.99263 0.857 0.0
H506 H 0.28017 0.0384 0.76672 0.0
H507 H 0.3492 0.0057 0.72016 0.0
H508 H 0.33054 0.98771 0.74429 0.0
H509 H 0.34769 0.01239 0.76433 0.0
C510 C 0.28128 0.97047 0.80297 0.0
C511 C 0.29381 0.97201 0.83131 0.0
C512 C 0.28537 0.9873 0.77908 0.0
C513 C 0.30213 0.00583 0.78294 0.0
C514 C 0.31453 0.00767 0.81137 0.0
H515 H 0.35086 0.10096 0.62978 0.0
H516 H 0.34511 0.08495 0.68454 0.0
C517 C 0.31041 0.99089 0.83539 0.0
C518 C 0.30676 0.02287 0.75671 0.0
H519 H 0.33934 0.03748 0.69367 0.0
C520 C 0.29319 0.03839 0.75088 0.0
C521 C 0.32384 0.0229 0.73636 0.0
C522 C 0.33865 0.00622 0.74129 0.0
C523 C 0.29607 0.05367 0.7247 0.0
C524 C 0.31269 0.05296 0.70342 0.0
C525 C 0.32663 0.03804 0.71005 0.0
C526 C 0.315 0.06577 0.67242 0.0
C527 C 0.28123 0.07035 0.72004 0.0
C528 C 0.29984 0.06067 0.64768 0.0
C529 C 0.30302 0.06994 0.61656 0.0
C530 C 0.32152 0.08425 0.60939 0.0
C531 C 0.33637 0.0902 0.63466 0.0
C532 C 0.33316 0.08094 0.66587 0.0
H533 H 0.27407 0.07486 0.74394 0.0
H534 H 0.28863 0.08726 0.70968 0.0
H535 H 0.26908 0.06133 0.7025 0.0
H536 H 0.28588 0.0486 0.65186 0.0
H537 H 0.29124 0.06519 0.59768 0.0
H538 H 0.68791 0.71814 0.10786 0.0
H539 H 0.65376 0.70909 0.08466 0.0
H540 H 0.64323 0.64217 0.13185 0.0
H541 H 0.67757 0.65124 0.15571 0.0
H542 H 0.63518 0.66939 0.04293 0.0
H543 H 0.59634 0.67645 0.16434 0.0
H544 H 0.62293 0.68769 0.15998 0.0
H545 H 0.614 0.65598 0.15999 0.0
C546 C 0.67843 0.70142 0.11327 0.0
C547 C 0.68545 0.68548 0.13381 0.0
C548 C 0.65889 0.69627 0.09993 0.0
C549 C 0.64589 0.67512 0.10688 0.0
C550 C 0.65294 0.65877 0.12663 0.0
H551 H 0.53334 0.65519 0.98891 0.0
H552 H 0.5602 0.64245 0.02089 0.0
C553 C 0.67259 0.66392 0.14002 0.0
C554 C 0.62494 0.67081 0.09344 0.0
H555 H 0.5762 0.67226 0.11587 0.0
C556 C 0.62219 0.66953 0.0588 0.0
C557 C 0.60811 0.67116 0.11433 0.0
C558 C 0.61035 0.67303 0.15175 0.0
C559 C 0.60325 0.66992 0.04442 0.0
C560 C 0.58648 0.67108 0.06533 0.0
C561 C 0.58904 0.67116 0.09996 0.0
C562 C 0.56709 0.6757 0.05182 0.0
C563 C 0.60171 0.67077 0.00711 0.0
C564 C 0.56105 0.69779 0.06039 0.0
C565 C 0.54558 0.70496 0.04251 0.0
C566 C 0.53593 0.69015 0.01566 0.0
C567 C 0.54068 0.66705 0.00927 0.0
C568 C 0.55607 0.65981 0.02738 0.0
H569 H 0.61677 0.67407 0.99536 0.0
H570 H 0.59338 0.65333 0.99616 0.0
H571 H 0.59332 0.68509 0.00062 0.0
H572 H 0.56931 0.7103 0.07925 0.0
H573 H 0.54242 0.72292 0.04788 0.0
H574 H 0.7811 0.25119 0.67183 0.0
H575 H 0.78316 0.21431 0.63788 0.0
H576 H 0.76413 0.17258 0.72134 0.0
H577 H 0.76292 0.20962 0.75594 0.0
H578 H 0.79311 0.15512 0.6899 0.0
H579 H 0.73684 0.16846 0.59623 0.0
H580 H 0.75716 0.19354 0.59952 0.0
H581 H 0.74115 0.18695 0.63473 0.0
C582 C 0.77735 0.23416 0.68296 0.0
C583 C 0.7717 0.23327 0.71646 0.0
C584 C 0.77837 0.21306 0.66345 0.0
C585 C 0.77324 0.1906 0.67676 0.0
C586 C 0.76799 0.18969 0.71044 0.0
H587 H 0.75637 0.06778 0.52992 0.0
H588 H 0.75016 0.09479 0.57754 0.0
C589 C 0.7673 0.21085 0.73017 0.0
C590 C 0.77366 0.16817 0.65554 0.0
H591 H 0.75841 0.14021 0.57976 0.0
C592 C 0.7853 0.15167 0.66599 0.0
C593 C 0.76303 0.16326 0.62476 0.0
C594 C 0.74866 0.17887 0.61336 0.0
C595 C 0.78737 0.13101 0.64581 0.0
C596 C 0.77812 0.12721 0.6138 0.0
C597 C 0.76575 0.14317 0.60407 0.0
C598 C 0.78181 0.10772 0.58911 0.0
C599 C 0.79935 0.1135 0.65919 0.0
C600 C 0.80163 0.1054 0.58028 0.0
C601 C 0.80513 0.08951 0.55369 0.0
C602 C 0.78889 0.07614 0.53493 0.0
C603 C 0.76909 0.07782 0.54429 0.0
C604 C 0.76557 0.09332 0.57134 0.0
H605 H 0.79853 0.11378 0.68677 0.0
H606 H 0.79388 0.09487 0.64863 0.0
H607 H 0.81545 0.11877 0.65273 0.0
H608 H 0.81444 0.1168 0.59273 0.0
H609 H 0.82053 0.08882 0.54643 0.0
H610 H 0.34837 0.39638 0.18951 0.0
H611 H 0.38401 0.40944 0.17823 0.0
H612 H 0.38556 0.47099 0.2481 0.0
H613 H 0.3497 0.45819 0.25937 0.0
H614 H 0.40107 0.48262 0.18734 0.0
H615 H 0.43522 0.40843 0.23166 0.0
H616 H 0.41404 0.39767 0.20425 0.0
H617 H 0.4103 0.41329 0.24363 0.0
C618 C 0.35629 0.41257 0.2028 0.0
C619 C 0.34613 0.42627 0.2253 0.0
C620 C 0.37675 0.41988 0.19656 0.0
C621 C 0.38755 0.44093 0.21282 0.0
C622 C 0.37756 0.45454 0.23558 0.0
H623 H 0.50354 0.51528 0.14044 0.0
H624 H 0.47787 0.50302 0.18201 0.0
C625 C 0.35705 0.44721 0.24191 0.0
C626 C 0.40866 0.44982 0.20332 0.0
H627 H 0.45423 0.43211 0.19087 0.0
C628 C 0.41287 0.47189 0.18883 0.0
C629 C 0.42402 0.43578 0.20537 0.0
C630 C 0.42073 0.41259 0.2224 0.0
C631 C 0.43155 0.47948 0.17409 0.0
C632 C 0.44655 0.46478 0.17448 0.0
C633 C 0.44273 0.44335 0.19064 0.0
C634 C 0.46496 0.4698 0.15426 0.0
C635 C 0.43454 0.50236 0.15622 0.0
C636 C 0.46705 0.45439 0.12617 0.0
C637 C 0.48176 0.46121 0.1027 0.0
C638 C 0.49465 0.48355 0.10694 0.0
C639 C 0.49382 0.49794 0.13662 0.0
C640 C 0.47905 0.49108 0.16018 0.0
H641 H 0.4203 0.50954 0.15377 0.0
H642 H 0.44563 0.51623 0.17035 0.0
H643 H 0.44059 0.4993 0.13095 0.0
H644 H 0.45641 0.43782 0.12122 0.0
H645 H 0.48222 0.4497 0.08016 0.0
H646 H 0.88274 0.75592 0.82148 0.0
H647 H 0.91034 0.73283 0.81712 0.0
H648 H 0.87228 0.67692 0.75672 0.0
H649 H 0.84478 0.69993 0.76055 0.0
H650 H 0.90993 0.68797 0.83907 0.0
H651 H 0.92406 0.68615 0.70376 0.0
H652 H 0.90982 0.70693 0.72456 0.0
H653 H 0.89792 0.67655 0.71267 0.0
C654 C 0.88033 0.73885 0.8069 0.0
C655 C 0.86156 0.72977 0.79132 0.0
C656 C 0.89612 0.72569 0.80445 0.0
C657 C 0.89348 0.70334 0.78616 0.0
C658 C 0.87483 0.69439 0.77028 0.0
H659 H 0.93952 0.57495 0.76223 0.0
H660 H 0.92287 0.60985 0.7607 0.0
C661 C 0.85906 0.7075 0.77272 0.0
C662 C 0.90957 0.68843 0.78566 0.0
H663 H 0.93592 0.6556 0.73331 0.0
C664 C 0.91595 0.68127 0.81601 0.0
C665 C 0.91746 0.6798 0.75555 0.0
C666 C 0.91212 0.68795 0.72232 0.0
C667 C 0.92903 0.6645 0.81693 0.0
C668 C 0.93607 0.65493 0.7867 0.0
C669 C 0.93046 0.66296 0.75645 0.0
C670 C 0.94727 0.63459 0.78578 0.0
C671 C 0.93428 0.65609 0.85006 0.0
C672 C 0.96674 0.63707 0.79977 0.0
C673 C 0.97632 0.61703 0.80074 0.0
C674 C 0.96647 0.59429 0.78792 0.0
C675 C 0.94731 0.59216 0.77286 0.0
C676 C 0.93784 0.6121 0.77176 0.0
H677 H 0.92534 0.66281 0.87069 0.0
H678 H 0.93166 0.63617 0.84909 0.0
H679 H 0.95052 0.66265 0.85581 0.0
H680 H 0.97435 0.65437 0.81036 0.0
H681 H 0.99111 0.61916 0.81239 0.0
H682 H 0.83785 0.32101 0.19604 0.0
H683 H 0.87176 0.34366 0.18736 0.0
H684 H 0.85263 0.40868 0.22658 0.0
H685 H 0.81889 0.38641 0.23548 0.0
H686 H 0.87173 0.40703 0.15772 0.0
H687 H 0.91587 0.37975 0.26139 0.0
H688 H 0.89821 0.35735 0.23742 0.0
H689 H 0.88903 0.37944 0.26437 0.0
C690 C 0.84092 0.34008 0.20316 0.0
C691 C 0.82561 0.3519 0.21636 0.0
C692 C 0.8603 0.35294 0.19826 0.0
C693 C 0.86463 0.37777 0.20646 0.0
C694 C 0.84954 0.38949 0.22022 0.0
H695 H 0.95859 0.49703 0.22302 0.0
H696 H 0.93359 0.46127 0.23178 0.0
C697 C 0.83026 0.3767 0.22527 0.0
C698 C 0.88439 0.39209 0.19881 0.0
H699 H 0.93275 0.40938 0.22818 0.0
C700 C 0.8852 0.40731 0.17272 0.0
C701 C 0.90178 0.39238 0.21865 0.0
C702 C 0.90137 0.37645 0.24716 0.0
C703 C 0.90282 0.42348 0.16655 0.0
C704 C 0.92015 0.42424 0.18686 0.0
C705 C 0.9195 0.40853 0.21246 0.0
C706 C 0.93812 0.44314 0.18404 0.0
C707 C 0.90244 0.44051 0.13944 0.0
C708 C 0.9496 0.44425 0.15494 0.0
C709 C 0.96388 0.46472 0.14984 0.0
C710 C 0.96682 0.48433 0.17379 0.0
C711 C 0.95646 0.48227 0.20401 0.0
C712 C 0.94225 0.46183 0.20911 0.0
H713 H 0.88693 0.44014 0.12964 0.0
H714 H 0.9088 0.45919 0.14882 0.0
H715 H 0.91187 0.43539 0.11847 0.0
H716 H 0.94674 0.42987 0.13544 0.0
H717 H 0.97157 0.46584 0.12626 0.0
H718 H 0.23168 0.47173 0.80372 0.0
H719 H 0.19918 0.48555 0.80488 0.0
H720 H 0.1836 0.44928 0.89421 0.0
H721 H 0.21614 0.43536 0.89337 0.0
H722 H 0.15245 0.44154 0.84074 0.0
H723 H 0.18349 0.53761 0.87447 0.0
H724 H 0.19551 0.52403 0.84009 0.0
H725 H 0.19746 0.51379 0.88098 0.0
C726 C 0.22139 0.46674 0.82371 0.0
C727 C 0.22655 0.45253 0.84855 0.0
C728 C 0.20285 0.47469 0.82434 0.0
C729 C 0.18909 0.46856 0.84976 0.0
C730 C 0.19406 0.45422 0.87444 0.0
H731 H 0.08607 0.54056 0.88443 0.0
H732 H 0.11376 0.51878 0.89367 0.0
C733 C 0.21268 0.44638 0.87396 0.0
C734 C 0.16952 0.47718 0.85042 0.0
H735 H 0.14907 0.52829 0.85754 0.0
C736 C 0.15163 0.46047 0.84466 0.0
C737 C 0.16854 0.50183 0.85594 0.0
C738 C 0.18723 0.5204 0.86351 0.0
C739 C 0.13279 0.46794 0.84319 0.0
C740 C 0.13192 0.49271 0.84741 0.0
C741 C 0.14977 0.50929 0.85422 0.0
C742 C 0.11288 0.50217 0.84353 0.0
C743 C 0.11401 0.4493 0.83713 0.0
C744 C 0.10281 0.49948 0.81257 0.0
C745 C 0.087 0.51195 0.8072 0.0
C746 C 0.0811 0.52746 0.83267 0.0
C747 C 0.09039 0.52889 0.86426 0.0
C748 C 0.10619 0.51645 0.86959 0.0
H749 H 0.11647 0.43126 0.84347 0.0
H750 H 0.10123 0.45424 0.85191 0.0
H751 H 0.10968 0.44814 0.81039 0.0
H752 H 0.10796 0.4889 0.79194 0.0
H753 H 0.08039 0.51073 0.78246 0.0
H754 H 0.22756 0.73295 0.18642 0.0
H755 H 0.1951 0.71062 0.1649 0.0
H756 H 0.17177 0.7102 0.26459 0.0
H757 H 0.20377 0.73299 0.28604 0.0
H758 H 0.17871 0.66677 0.17881 0.0
H759 H 0.12475 0.72651 0.21574 0.0
H760 H 0.15169 0.73691 0.21642 0.0
H761 H 0.1396 0.72183 0.25089 0.0
C762 C 0.21539 0.72846 0.20365 0.0
C763 C 0.21827 0.73474 0.23796 0.0
C764 C 0.19684 0.71573 0.19131 0.0
C765 C 0.18083 0.70909 0.21302 0.0
C766 C 0.18362 0.71573 0.24717 0.0
H767 H 0.08341 0.5966 0.22884 0.0
H768 H 0.10832 0.63371 0.23467 0.0
C769 C 0.20205 0.72858 0.25947 0.0
C770 C 0.16206 0.69296 0.20081 0.0
H771 H 0.11066 0.68397 0.20706 0.0
C772 C 0.16383 0.6708 0.18426 0.0
C773 C 0.14259 0.69819 0.20787 0.0
C774 C 0.13955 0.72228 0.22339 0.0
C775 C 0.14679 0.6532 0.17646 0.0
C776 C 0.12747 0.65793 0.18529 0.0
C777 C 0.12554 0.68042 0.20046 0.0
C778 C 0.10954 0.63869 0.18192 0.0
C779 C 0.14961 0.62913 0.16044 0.0
C780 C 0.10141 0.62987 0.15045 0.0
C781 C 0.08709 0.60874 0.14708 0.0
C782 C 0.08088 0.59611 0.17515 0.0
C783 C 0.08801 0.60596 0.20683 0.0
C784 C 0.10218 0.62714 0.21019 0.0
H785 H 0.16579 0.62756 0.1581 0.0
H786 H 0.14197 0.61445 0.1752 0.0
H787 H 0.14261 0.62653 0.13518 0.0
H788 H 0.10694 0.63861 0.12837 0.0
H789 H 0.08197 0.60141 0.12236 0.0
H790 H 0.75985 0.82469 0.75348 0.0
H791 H 0.7561 0.85386 0.71275 0.0
H792 H 0.81007 0.83918 0.66393 0.0
H793 H 0.81367 0.80968 0.70408 0.0
H794 H 0.78534 0.89573 0.69856 0.0
H795 H 0.76671 0.8312 0.58821 0.0
H796 H 0.76439 0.82218 0.63037 0.0
H797 H 0.78871 0.82738 0.61122 0.0
C798 C 0.7706 0.82721 0.73356 0.0
C799 C 0.78676 0.81446 0.73143 0.0
C800 C 0.76859 0.84411 0.71061 0.0
C801 C 0.78264 0.84838 0.6851 0.0
C802 C 0.79888 0.83583 0.68312 0.0
H803 H 0.81901 0.96082 0.55642 0.0
H804 H 0.81357 0.93621 0.60416 0.0
C805 C 0.80096 0.81908 0.70613 0.0
C806 C 0.78074 0.86635 0.66086 0.0
H807 H 0.77606 0.87244 0.57773 0.0
C808 C 0.78308 0.89068 0.67216 0.0
C809 C 0.77753 0.85963 0.62656 0.0
C810 C 0.774 0.83366 0.6133 0.0
C811 C 0.78313 0.90861 0.64976 0.0
C812 C 0.78098 0.90197 0.61526 0.0
C813 C 0.77782 0.87754 0.60418 0.0
C814 C 0.78297 0.91989 0.58984 0.0
C815 C 0.78558 0.93448 0.66316 0.0
C816 C 0.76749 0.91918 0.56621 0.0
C817 C 0.77058 0.93319 0.5389 0.0
C818 C 0.78928 0.94807 0.53459 0.0
C819 C 0.80436 0.9498 0.55929 0.0
C820 C 0.80126 0.93573 0.58661 0.0
H821 H 0.781 0.936 0.68961 0.0
H822 H 0.8017 0.94292 0.66184 0.0
H823 H 0.77654 0.9447 0.6483 0.0
H824 H 0.75327 0.90706 0.56822 0.0
H825 H 0.75863 0.93165 0.52039 0.0
H826 H 0.70807 0.35895 0.13944 0.0
H827 H 0.67976 0.37941 0.13021 0.0
H828 H 0.66635 0.37991 0.2349 0.0
H829 H 0.69506 0.3597 0.24456 0.0
H830 H 0.6386 0.36842 0.14261 0.0
H831 H 0.67507 0.45121 0.21708 0.0
H832 H 0.68862 0.42731 0.20465 0.0
H833 H 0.67086 0.42379 0.2379 0.0
C834 C 0.69904 0.36318 0.16054 0.0
C835 C 0.704 0.35793 0.19281 0.0
C836 C 0.6828 0.37484 0.15518 0.0
C837 C 0.67114 0.38152 0.18193 0.0
C838 C 0.67539 0.3753 0.214 0.0
H839 H 0.57324 0.45362 0.11215 0.0
H840 H 0.58875 0.42834 0.1484 0.0
C841 C 0.69173 0.36364 0.21942 0.0
C842 C 0.65539 0.39616 0.17587 0.0
H843 H 0.64588 0.45344 0.18666 0.0
C844 C 0.63988 0.38687 0.15274 0.0
C845 C 0.6572 0.42025 0.1891 0.0
C846 C 0.67387 0.43141 0.2134 0.0
C847 C 0.6269 0.40142 0.1409 0.0
C848 C 0.62932 0.42582 0.15298 0.0
C849 C 0.644 0.43469 0.17767 0.0
C850 C 0.61946 0.44325 0.13605 0.0
C851 C 0.61173 0.39104 0.11376 0.0
C852 C 0.63158 0.46075 0.11856 0.0
C853 C 0.62282 0.47513 0.09824 0.0
C854 C 0.60175 0.47237 0.09503 0.0
C855 C 0.58953 0.45603 0.11427 0.0
C856 C 0.59836 0.4415 0.13468 0.0
H857 H 0.61361 0.3727 0.10421 0.0
H858 H 0.59625 0.39003 0.12365 0.0
H859 H 0.61313 0.40276 0.09262 0.0
H860 H 0.64787 0.46249 0.11931 0.0
H861 H 0.63255 0.48778 0.08388 0.0
H862 H 0.33019 0.3604 0.77078 0.0
H863 H 0.32853 0.32201 0.73856 0.0
H864 H 0.26837 0.32582 0.70472 0.0
H865 H 0.27013 0.36473 0.73622 0.0
H866 H 0.30346 0.27846 0.7382 0.0
H867 H 0.29789 0.31957 0.61793 0.0
H868 H 0.30383 0.33735 0.6567 0.0
H869 H 0.27818 0.32366 0.6466 0.0
C870 C 0.31654 0.35305 0.75664 0.0
C871 C 0.30038 0.36578 0.75568 0.0
C872 C 0.3156 0.33105 0.73831 0.0
C873 C 0.29849 0.32128 0.71876 0.0
C874 C 0.28192 0.33333 0.71903 0.0
H875 H 0.2827 0.20098 0.56862 0.0
H876 H 0.27542 0.23023 0.61251 0.0
C877 C 0.28291 0.3555 0.73714 0.0
C878 C 0.29856 0.29911 0.69695 0.0
H879 H 0.2971 0.27786 0.6154 0.0
C880 C 0.30195 0.27826 0.71136 0.0
C881 C 0.2967 0.29895 0.66191 0.0
C882 C 0.29413 0.32111 0.64476 0.0
C883 C 0.30366 0.25729 0.6916 0.0
C884 C 0.30205 0.25729 0.65663 0.0
C885 C 0.29819 0.27792 0.64229 0.0
C886 C 0.30552 0.23673 0.63401 0.0
C887 C 0.30725 0.23534 0.70821 0.0
C888 C 0.32475 0.23037 0.63204 0.0
C889 C 0.32902 0.2138 0.60683 0.0
C890 C 0.31412 0.20345 0.58307 0.0
C891 C 0.29456 0.2089 0.5863 0.0
C892 C 0.29034 0.22549 0.61143 0.0
H893 H 0.30296 0.23613 0.73484 0.0
H894 H 0.29861 0.21874 0.69532 0.0
H895 H 0.32353 0.23418 0.70697 0.0
H896 H 0.33678 0.23919 0.64886 0.0
H897 H 0.34429 0.21024 0.60478 0.0
H898 H 0.34503 0.73701 0.30898 0.0
H899 H 0.36541 0.7238 0.26338 0.0
H900 H 0.34018 0.76842 0.19789 0.0
H901 H 0.31894 0.78053 0.24302 0.0
H902 H 0.34394 0.72864 0.16533 0.0
H903 H 0.41604 0.76218 0.23344 0.0
H904 H 0.40005 0.73954 0.2546 0.0
H905 H 0.39217 0.76786 0.24924 0.0
C906 C 0.34373 0.74377 0.28471 0.0
C907 C 0.33045 0.75977 0.27942 0.0
C908 C 0.35553 0.73642 0.25877 0.0
C909 C 0.35483 0.74565 0.2274 0.0
C910 C 0.34109 0.76111 0.22189 0.0
H911 H 0.44568 0.76043 0.07824 0.0
H912 H 0.42533 0.76243 0.12817 0.0
C913 C 0.3289 0.76798 0.24762 0.0
C914 C 0.36855 0.73958 0.20042 0.0
H915 H 0.41815 0.74026 0.18175 0.0
C916 C 0.36017 0.7312 0.16892 0.0
C917 C 0.38979 0.74318 0.20495 0.0
C918 C 0.40006 0.75392 0.23727 0.0
C919 C 0.37237 0.7268 0.14173 0.0
C920 C 0.39357 0.72975 0.1465 0.0
C921 C 0.40191 0.73767 0.17817 0.0
C922 C 0.40748 0.72693 0.1184 0.0
C923 C 0.3624 0.72021 0.10792 0.0
C924 C 0.4049 0.70592 0.09698 0.0
C925 C 0.4163 0.70496 0.06806 0.0
C926 C 0.43095 0.72467 0.06078 0.0
C927 C 0.43464 0.74489 0.08355 0.0
C928 C 0.42294 0.74606 0.112 0.0
H929 H 0.34716 0.72522 0.10699 0.0
H930 H 0.37164 0.72919 0.0881 0.0
H931 H 0.36056 0.7005 0.10238 0.0
H932 H 0.39358 0.69059 0.10196 0.0
H933 H 0.41323 0.68919 0.05079 0.0
H934 H 0.76589 0.24273 0.30804 0.0
H935 H 0.76987 0.20623 0.33428 0.0
H936 H 0.77719 0.1708 0.23793 0.0
H937 H 0.77304 0.20725 0.21129 0.0
H938 H 0.75124 0.14223 0.28102 0.0
H939 H 0.82419 0.18278 0.34242 0.0
H940 H 0.80449 0.19997 0.35083 0.0
H941 H 0.81339 0.19631 0.30901 0.0
C942 C 0.7683 0.22719 0.29236 0.0
C943 C 0.76929 0.22797 0.25758 0.0
C944 C 0.77066 0.20637 0.30743 0.0
C945 C 0.77415 0.18597 0.28807 0.0
C946 C 0.77462 0.18642 0.25329 0.0
H947 H 0.81752 0.07422 0.39132 0.0
H948 H 0.81287 0.10046 0.34734 0.0
C949 C 0.77227 0.20727 0.23816 0.0
C950 C 0.77751 0.16433 0.30438 0.0
H951 H 0.8076 0.14576 0.36186 0.0
C952 C 0.76368 0.14286 0.29843 0.0
C953 C 0.79397 0.16508 0.32654 0.0
C954 C 0.80999 0.1872 0.33238 0.0
C955 C 0.76536 0.12241 0.31535 0.0
C956 C 0.78111 0.12365 0.33909 0.0
C957 C 0.79544 0.14482 0.34381 0.0
C958 C 0.7824 0.10402 0.36111 0.0
C959 C 0.7502 0.09975 0.30776 0.0
C960 C 0.7666 0.09668 0.3828 0.0
C961 C 0.76913 0.08147 0.40773 0.0
C962 C 0.78763 0.07355 0.41174 0.0
C963 C 0.80301 0.07977 0.38873 0.0
C964 C 0.80043 0.09492 0.36371 0.0
H965 H 0.74377 0.09904 0.28219 0.0
H966 H 0.75707 0.0835 0.31026 0.0
H967 H 0.73756 0.09936 0.32549 0.0
H968 H 0.75269 0.10379 0.38174 0.0
H969 H 0.75694 0.07684 0.4249 0.0
H970 H 0.3379 0.46928 0.91191 0.0
H971 H 0.37174 0.4858 0.93329 0.0
H972 H 0.38856 0.51165 0.83734 0.0
H973 H 0.35476 0.49481 0.8155 0.0
H974 H 0.41453 0.48481 0.85912 0.0
H975 H 0.4029 0.55187 0.96001 0.0
H976 H 0.38646 0.52383 0.96448 0.0
H977 H 0.38381 0.54036 0.92858 0.0
C978 C 0.3486 0.47898 0.89551 0.0
C979 C 0.34361 0.48058 0.86192 0.0
C980 C 0.36796 0.48857 0.90786 0.0
C981 C 0.38266 0.50018 0.88702 0.0
C982 C 0.37744 0.50285 0.85391 0.0
H983 H 0.49931 0.54517 0.99144 0.0
H984 H 0.47248 0.54796 0.95115 0.0
C985 C 0.35807 0.49324 0.8415 0.0
C986 C 0.40395 0.50681 0.89883 0.0
H987 H 0.43289 0.53378 0.96515 0.0
C988 C 0.41866 0.49598 0.88191 0.0
C989 C 0.4095 0.52174 0.92817 0.0
C990 C 0.39485 0.53532 0.94612 0.0
C991 C 0.43831 0.49817 0.89495 0.0
C992 C 0.44326 0.51117 0.92597 0.0
C993 C 0.42905 0.52356 0.94153 0.0
C994 C 0.46191 0.5096 0.94482 0.0
C995 C 0.45338 0.48592 0.87583 0.0
C996 C 0.46522 0.48711 0.95387 0.0
C997 C 0.48049 0.48551 0.97666 0.0
C998 C 0.49269 0.50638 0.99101 0.0
C999 C 0.49027 0.52881 0.98039 0.0
C1000 C 0.47487 0.53042 0.95761 0.0
H1001 H 0.45017 0.48474 0.84863 0.0
H1002 H 0.46906 0.49553 0.88064 0.0
H1003 H 0.45226 0.46733 0.88355 0.0
H1004 H 0.45518 0.47083 0.94497 0.0
H1005 H 0.482 0.46803 0.9846 0.0
H1006 H 0.34117 0.86918 0.42707 0.0
H1007 H 0.34245 0.91227 0.4392 0.0
H1008 H 0.29161 0.91029 0.37312 0.0
H1009 H 0.29021 0.86707 0.36063 0.0
H1010 H 0.32548 0.95219 0.37009 0.0
H1011 H 0.2963 0.93522 0.49681 0.0
H1012 H 0.31786 0.92178 0.48539 0.0
H1013 H 0.29428 0.91187 0.46348 0.0
C1014 C 0.33038 0.8779 0.41481 0.0
C1015 C 0.31544 0.86464 0.39316 0.0
C1016 C 0.33114 0.90252 0.42178 0.0
C1017 C 0.317 0.91432 0.40729 0.0
C1018 C 0.30263 0.90143 0.38454 0.0
H1019 H 0.29134 0.04785 0.49981 0.0
H1020 H 0.28728 0.00946 0.46658 0.0
C1021 C 0.30183 0.87675 0.37756 0.0
C1022 C 0.31635 0.93968 0.41791 0.0
H1023 H 0.3077 0.97569 0.48577 0.0
C1024 C 0.32147 0.95742 0.39529 0.0
C1025 C 0.31081 0.94628 0.45062 0.0
C1026 C 0.30432 0.92782 0.47548 0.0
C1027 C 0.32179 0.98182 0.40497 0.0
C1028 C 0.31701 0.98848 0.43812 0.0
C1029 C 0.31137 0.97059 0.46035 0.0
C1030 C 0.31843 0.01384 0.45121 0.0
C1031 C 0.32716 0.0002 0.37968 0.0
C1032 C 0.33709 0.02948 0.45248 0.0
C1033 C 0.33938 0.05154 0.47124 0.0
C1034 C 0.3231 0.05807 0.48934 0.0
C1035 C 0.30412 0.04316 0.48614 0.0
C1036 C 0.3018 0.02125 0.4672 0.0
H1037 H 0.32451 0.99197 0.35384 0.0
H1038 H 0.31828 0.01495 0.38344 0.0
H1039 H 0.3434 0.0081 0.38246 0.0
H1040 H 0.35022 0.02396 0.44093 0.0
H1041 H 0.35422 0.0626 0.47366 0.0
H1042 H 0.67479 0.71364 0.74573 0.0
H1043 H 0.63967 0.70336 0.76273 0.0
H1044 H 0.63962 0.77752 0.79488 0.0
H1045 H 0.67468 0.78802 0.77781 0.0
H1046 H 0.62863 0.71077 0.8286 0.0
H1047 H 0.58493 0.75774 0.74608 0.0
H1048 H 0.60982 0.75174 0.73591 0.0
H1049 H 0.60691 0.77663 0.76462 0.0
C1050 C 0.66721 0.72787 0.75581 0.0
C1051 C 0.6776 0.75164 0.76062 0.0
C1052 C 0.64712 0.72194 0.76545 0.0
C1053 C 0.63696 0.7397 0.77971 0.0
C1054 C 0.64703 0.7636 0.78329 0.0
H1055 H 0.54032 0.75483 0.90794 0.0
H1056 H 0.5653 0.75881 0.8639 0.0
C1057 C 0.66714 0.76954 0.77377 0.0
C1058 C 0.61689 0.73288 0.79479 0.0
H1059 H 0.56893 0.74511 0.79668 0.0
C1060 C 0.61545 0.71789 0.82123 0.0
C1061 C 0.5998 0.74235 0.78523 0.0
C1062 C 0.60033 0.75784 0.7562 0.0
C1063 C 0.5977 0.71308 0.83958 0.0
C1064 C 0.5807 0.72302 0.8306 0.0
C1065 C 0.58192 0.73739 0.80339 0.0
C1066 C 0.56238 0.7206 0.85138 0.0
C1067 C 0.59777 0.69855 0.86962 0.0
C1068 C 0.55156 0.69788 0.85756 0.0
C1069 C 0.53734 0.69555 0.88292 0.0
C1070 C 0.53348 0.71595 0.90204 0.0
C1071 C 0.54283 0.7388 0.89346 0.0
C1072 C 0.5572 0.7411 0.86837 0.0
H1073 H 0.6133 0.69673 0.87719 0.0
H1074 H 0.59058 0.70689 0.89115 0.0
H1075 H 0.5891 0.68023 0.86364 0.0
H1076 H 0.55499 0.68186 0.84417 0.0
H1077 H 0.53022 0.67774 0.8889 0.0
loop_
_geom_bond_atom_site_label_1
_geom_bond_atom_site_label_2
_geom_bond_distance
_geom_bond_site_symmetry_2
_ccdc_geom_bond_type
O0 Cd1 2.300 . S
O0 C7 1.275 . S
Cd1 O0 2.300 . S
Cd1 O9 2.381 . S
Cd1 O10 2.378 . S
O2 Cd3 2.385 . S
O2 C7 1.255 . S
Cd3 O2 2.385 . S
Cd3 O4 2.317 . S
O4 Cd3 2.317 . S
O4 C5 1.232 . S
C5 O4 1.232 . S
C5 O6 1.218 . S
O6 C5 1.218 . S
C7 O0 1.275 . S
C7 O2 1.255 . S
C8 O9 1.258 . S
C8 O10 1.256 . S
O9 Cd1 2.381 . S
O9 C8 1.258 . S
O10 Cd1 2.378 . S
O10 C8 1.256 . S
O11 Cd12 2.300 . S
O11 C18 1.275 . S
Cd12 O11 2.300 . S
Cd12 O20 2.381 . S
Cd12 O21 2.378 . S
O13 Cd14 2.385 . S
O13 C18 1.255 . S
Cd14 O13 2.385 . S
Cd14 O15 2.317 . S
O15 Cd14 2.317 . S
O15 C16 1.232 . S
C16 O15 1.232 . S
C16 O17 1.218 . S
O17 C16 1.218 . S
C18 O11 1.275 . S
C18 O13 1.255 . S
C19 O20 1.258 . S
C19 O21 1.256 . S
O20 Cd12 2.381 . S
O20 C19 1.258 . S
O21 Cd12 2.378 . S
O21 C19 1.256 . S
O22 Cd23 2.300 . S
O22 C29 1.275 . S
Cd23 O22 2.300 . S
Cd23 O31 2.381 . S
Cd23 O32 2.378 . S
O24 Cd25 2.385 . S
O24 C29 1.255 . S
Cd25 O24 2.385 . S
Cd25 O26 2.317 . S
O26 Cd25 2.317 . S
O26 C27 1.232 . S
C27 O26 1.232 . S
C27 O28 1.218 . S
O28 C27 1.218 . S
C29 O22 1.275 . S
C29 O24 1.255 . S
C30 O31 1.258 . S
C30 O32 1.256 . S
O31 Cd23 2.381 . S
O31 C30 1.258 . S
O32 Cd23 2.378 . S
O32 C30 1.256 . S
O33 Cd34 2.300 . S
O33 C40 1.275 . S
Cd34 O33 2.300 . S
Cd34 O42 2.381 . S
Cd34 O43 2.378 . S
O35 Cd36 2.385 . S
O35 C40 1.255 . S
Cd36 O35 2.385 . S
Cd36 O37 2.317 . S
O37 Cd36 2.317 . S
O37 C38 1.232 . S
C38 O37 1.232 . S
C38 O39 1.218 . S
O39 C38 1.218 . S
C40 O33 1.275 . S
C40 O35 1.255 . S
C41 O42 1.258 . S
C41 O43 1.256 . S
O42 Cd34 2.381 . S
O42 C41 1.258 . S
O43 Cd34 2.378 . S
O43 C41 1.256 . S
O44 Cd45 2.300 . S
O44 C51 1.275 . S
Cd45 O44 2.300 . S
Cd45 O53 2.381 . S
Cd45 O54 2.378 . S
O46 Cd47 2.385 . S
O46 C51 1.255 . S
Cd47 O46 2.385 . S
Cd47 O48 2.317 . S
O48 Cd47 2.317 . S
O48 C49 1.232 . S
C49 O48 1.232 . S
C49 O50 1.218 . S
O50 C49 1.218 . S
C51 O44 1.275 . S
C51 O46 1.255 . S
C52 O53 1.258 . S
C52 O54 1.256 . S
O53 Cd45 2.381 . S
O53 C52 1.258 . S
O54 Cd45 2.378 . S
O54 C52 1.256 . S
O55 Cd56 2.300 . S
O55 C62 1.275 . S
Cd56 O55 2.300 . S
Cd56 O64 2.381 . S
Cd56 O65 2.378 . S
O57 Cd58 2.385 . S
O57 C62 1.255 . S
Cd58 O57 2.385 . S
Cd58 O59 2.317 . S
O59 Cd58 2.317 . S
O59 C60 1.232 . S
C60 O59 1.232 . S
C60 O61 1.218 . S
O61 C60 1.218 . S
C62 O55 1.275 . S
C62 O57 1.255 . S
C63 O64 1.258 . S
C63 O65 1.256 . S
O64 Cd56 2.381 . S
O64 C63 1.258 . S
O65 Cd56 2.378 . S
O65 C63 1.256 . S
O66 Cd67 2.300 . S
O66 C73 1.275 . S
Cd67 O66 2.300 . S
Cd67 O75 2.381 . S
Cd67 O76 2.378 . S
O68 Cd69 2.385 . S
O68 C73 1.255 . S
Cd69 O68 2.385 . S
Cd69 O70 2.317 . S
O70 Cd69 2.317 . S
O70 C71 1.232 . S
C71 O70 1.232 . S
C71 O72 1.218 . S
O72 C71 1.218 . S
C73 O66 1.275 . S
C73 O68 1.255 . S
C74 O75 1.258 . S
C74 O76 1.256 . S
O75 Cd67 2.381 . S
O75 C74 1.258 . S
O76 Cd67 2.378 . S
O76 C74 1.256 . S
O77 Cd78 2.300 . S
O77 C84 1.275 . S
Cd78 O77 2.300 . S
Cd78 O86 2.381 . S
Cd78 O87 2.378 . S
O79 Cd80 2.385 . S
O79 C84 1.255 . S
Cd80 O79 2.385 . S
Cd80 O81 2.317 . S
O81 Cd80 2.317 . S
O81 C82 1.232 . S
C82 O81 1.232 . S
C82 O83 1.218 . S
O83 C82 1.218 . S
C84 O77 1.275 . S
C84 O79 1.255 . S
C85 O86 1.258 . S
C85 O87 1.256 . S
O86 Cd78 2.381 . S
O86 C85 1.258 . S
O87 Cd78 2.378 . S
O87 C85 1.256 . S
H88 C96 0.930 . S
H89 C99 0.930 . S
H90 C101 0.930 . S
H91 C102 0.970 . S
H92 C102 0.970 . S
H93 C104 0.930 . S
H94 C106 0.930 . S
H95 C108 0.930 . S
C96 H88 0.930 . S
C96 C97 1.382 1_455 S
C96 C98 1.426 . S
C97 C96 1.382 1_655 S
C97 C101 1.389 . S
C98 C96 1.426 . S
C98 C99 1.375 . S
C98 C102 1.532 . S
C99 H89 0.930 . S
C99 C98 1.375 . S
C99 C100 1.416 1_455 S
C100 C99 1.416 1_655 S
C100 C101 1.371 . S
C101 H90 0.930 . S
C101 C97 1.389 . S
C101 C100 1.371 . S
C102 H91 0.970 . S
C102 H92 0.970 . S
C102 C98 1.532 . S
C102 C103 1.499 . S
C103 C102 1.499 . S
C103 C104 1.370 . S
C103 C108 1.415 . S
C104 H93 0.930 . S
C104 C103 1.370 . S
C104 C105 1.407 . S
C105 C104 1.407 . S
C105 C106 1.365 . S
C106 H94 0.930 . S
C106 C105 1.365 . S
C106 C107 1.393 . S
C107 C106 1.393 . S
C107 C108 1.387 . S
C108 H95 0.930 . S
C108 C103 1.415 . S
C108 C107 1.387 . S
H109 C117 0.930 . S
H110 C120 0.930 . S
H111 C122 0.930 . S
H112 C123 0.970 . S
H113 C123 0.970 . S
H114 C125 0.930 . S
H115 C127 0.930 . S
H116 C129 0.930 . S
C117 H109 0.930 . S
C117 C118 1.382 . S
C117 C119 1.426 . S
C118 C117 1.382 . S
C118 C122 1.389 . S
C119 C117 1.426 . S
C119 C120 1.375 . S
C119 C123 1.532 . S
C120 H110 0.930 . S
C120 C119 1.375 . S
C120 C121 1.416 . S
C121 C120 1.416 . S
C121 C122 1.371 . S
C122 H111 0.930 . S
C122 C118 1.389 . S
C122 C121 1.371 . S
C123 H112 0.970 . S
C123 H113 0.970 . S
C123 C119 1.532 . S
C123 C124 1.499 1_455 S
C124 C123 1.499 1_655 S
C124 C125 1.370 . S
C124 C129 1.415 . S
C125 H114 0.930 . S
C125 C124 1.370 . S
C125 C126 1.407 . S
C126 C125 1.407 . S
C126 C127 1.365 . S
C127 H115 0.930 . S
C127 C126 1.365 . S
C127 C128 1.393 . S
C128 C127 1.393 . S
C128 C129 1.387 . S
C129 H116 0.930 . S
C129 C124 1.415 . S
C129 C128 1.387 . S
H130 C138 0.930 . S
H131 C141 0.930 . S
H132 C143 0.930 . S
H133 C144 0.970 . S
H134 C144 0.970 . S
H135 C146 0.930 . S
H136 C148 0.930 . S
H137 C150 0.930 . S
C138 H130 0.930 . S
C138 C139 1.382 . S
C138 C140 1.426 . S
C139 C138 1.382 . S
C139 C143 1.389 . S
C140 C138 1.426 . S
C140 C141 1.375 . S
C140 C144 1.532 . S
C141 H131 0.930 . S
C141 C140 1.375 . S
C141 C142 1.416 . S
C142 C141 1.416 . S
C142 C143 1.371 . S
C143 H132 0.930 . S
C143 C139 1.389 . S
C143 C142 1.371 . S
C144 H133 0.970 . S
C144 H134 0.970 . S
C144 C140 1.532 . S
C144 C145 1.499 . S
C145 C144 1.499 . S
C145 C146 1.370 . S
C145 C150 1.415 . S
C146 H135 0.930 . S
C146 C145 1.370 . S
C146 C147 1.407 . S
C147 C146 1.407 . S
C147 C148 1.365 . S
C148 H136 0.930 . S
C148 C147 1.365 . S
C148 C149 1.393 . S
C149 C148 1.393 . S
C149 C150 1.387 . S
C150 H137 0.930 . S
C150 C145 1.415 . S
C150 C149 1.387 . S
H151 C159 0.930 . S
H152 C162 0.930 . S
H153 C164 0.930 . S
H154 C165 0.970 1_556 S
H155 C165 0.970 . S
H156 C167 0.930 . S
H157 C169 0.930 . S
H158 C171 0.930 . S
C159 H151 0.930 . S
C159 C160 1.382 . S
C159 C161 1.426 1_556 S
C160 C159 1.382 . S
C160 C164 1.389 1_556 S
C161 C159 1.426 1_554 S
C161 C162 1.375 . S
C161 C165 1.532 . S
C162 H152 0.930 . S
C162 C161 1.375 . S
C162 C163 1.416 . S
C163 C162 1.416 . S
C163 C164 1.371 . S
C164 H153 0.930 . S
C164 C160 1.389 1_554 S
C164 C163 1.371 . S
C165 H154 0.970 1_554 S
C165 H155 0.970 . S
C165 C161 1.532 . S
C165 C166 1.499 . S
C166 C165 1.499 . S
C166 C167 1.370 1_554 S
C166 C171 1.415 . S
C167 H156 0.930 . S
C167 C166 1.370 1_556 S
C167 C168 1.407 . S
C168 C167 1.407 . S
C168 C169 1.365 . S
C169 H157 0.930 . S
C169 C168 1.365 . S
C169 C170 1.393 1_556 S
C170 C169 1.393 1_554 S
C170 C171 1.387 . S
C171 H158 0.930 . S
C171 C166 1.415 . S
C171 C170 1.387 . S
H172 C180 0.930 . S
H173 C183 0.930 . S
H174 C185 0.930 . S
H175 C186 0.970 . S
H176 C186 0.970 . S
H177 C188 0.930 . S
H178 C190 0.930 . S
H179 C192 0.930 . S
C180 H172 0.930 . S
C180 C181 1.382 . S
C180 C182 1.426 . S
C181 C180 1.382 . S
C181 C185 1.389 . S
C182 C180 1.426 . S
C182 C183 1.375 . S
C182 C186 1.532 . S
C183 H173 0.930 . S
C183 C182 1.375 . S
C183 C184 1.416 . S
C184 C183 1.416 . S
C184 C185 1.371 . S
C185 H174 0.930 . S
C185 C181 1.389 . S
C185 C184 1.371 . S
C186 H175 0.970 . S
C186 H176 0.970 . S
C186 C182 1.532 . S
C186 C187 1.499 1_545 S
C187 C186 1.499 1_565 S
C187 C188 1.370 . S
C187 C192 1.415 . S
C188 H177 0.930 . S
C188 C187 1.370 . S
C188 C189 1.407 . S
C189 C188 1.407 . S
C189 C190 1.365 . S
C190 H178 0.930 . S
C190 C189 1.365 . S
C190 C191 1.393 . S
C191 C190 1.393 . S
C191 C192 1.387 . S
C192 H179 0.930 . S
C192 C187 1.415 . S
C192 C191 1.387 . S
H193 C201 0.930 . S
H194 C204 0.930 . S
H195 C206 0.930 . S
H196 C207 0.970 . S
H197 C207 0.970 . S
H198 C209 0.930 . S
H199 C211 0.930 . S
H200 C213 0.930 . S
C201 H193 0.930 . S
C201 C202 1.382 . S
C201 C203 1.426 1_556 S
C202 C201 1.382 . S
C202 C206 1.389 1_556 S
C203 C201 1.426 1_554 S
C203 C204 1.375 . S
C203 C207 1.532 . S
C204 H194 0.930 . S
C204 C203 1.375 . S
C204 C205 1.416 . S
C205 C204 1.416 . S
C205 C206 1.371 . S
C206 H195 0.930 . S
C206 C202 1.389 1_554 S
C206 C205 1.371 . S
C207 H196 0.970 . S
C207 H197 0.970 . S
C207 C203 1.532 . S
C207 C208 1.499 . S
C208 C207 1.499 . S
C208 C209 1.370 1_554 S
C208 C213 1.415 . S
C209 H198 0.930 . S
C209 C208 1.370 1_556 S
C209 C210 1.407 . S
C210 C209 1.407 . S
C210 C211 1.365 1_556 S
C211 H199 0.930 . S
C211 C210 1.365 1_554 S
C211 C212 1.393 . S
C212 C211 1.393 . S
C212 C213 1.387 . S
C213 H200 0.930 . S
C213 C208 1.415 . S
C213 C212 1.387 . S
H214 C222 0.929 . S
H215 C224 0.930 . S
H216 C226 0.930 . S
H217 C229 0.929 . S
H218 C232 0.930 . S
H219 C234 0.960 . S
H220 C234 0.960 . S
H221 C234 0.960 . S
C222 H214 0.929 . S
C222 C223 1.377 . S
C222 C224 1.384 . S
C223 C222 1.377 . S
C223 C229 1.390 . S
C224 H215 0.930 . S
C224 C222 1.384 . S
C224 C225 1.372 . S
C225 C224 1.372 . S
C225 C226 1.400 . S
C225 C230 1.490 . S
C226 H216 0.930 . S
C226 C225 1.400 . S
C226 C229 1.386 . S
H227 C243 0.930 . S
H228 C244 0.931 . S
C229 H217 0.929 . S
C229 C223 1.390 . S
C229 C226 1.386 . S
C230 C225 1.490 . S
C230 C232 1.395 . S
C230 C233 1.403 . S
H231 C237 0.930 . S
C232 H218 0.930 . S
C232 C230 1.395 . S
C232 C235 1.403 . S
C233 C230 1.403 . S
C233 C234 1.524 . S
C233 C237 1.400 . S
C234 H219 0.960 . S
C234 H220 0.960 . S
C234 H221 0.960 . S
C234 C233 1.524 . S
C235 C232 1.403 . S
C235 C236 1.392 . S
C235 C239 1.495 . S
C236 C235 1.392 . S
C236 C237 1.385 . S
C236 C238 1.478 . S
C237 H231 0.930 . S
C237 C233 1.400 . S
C237 C236 1.385 . S
C238 C236 1.478 . S
C238 C240 1.381 . S
C238 C244 1.383 . S
C239 C235 1.495 . S
C239 H245 0.959 . S
C239 H246 0.961 . S
C239 H247 0.960 . S
C240 C238 1.381 . S
C240 C241 1.394 . S
C240 H248 0.930 . S
C241 C240 1.394 . S
C241 C242 1.383 . S
C241 H249 0.929 . S
C242 C241 1.383 . S
C242 C243 1.377 . S
C243 H227 0.930 . S
C243 C242 1.377 . S
C243 C244 1.379 . S
C244 H228 0.931 . S
C244 C238 1.383 . S
C244 C243 1.379 . S
H245 C239 0.959 . S
H246 C239 0.961 . S
H247 C239 0.960 . S
H248 C240 0.930 . S
H249 C241 0.929 . S
H250 C258 0.929 . S
H251 C260 0.930 . S
H252 C262 0.930 . S
H253 C265 0.929 . S
H254 C268 0.930 . S
H255 C270 0.960 . S
H256 C270 0.960 . S
H257 C270 0.960 . S
C258 H250 0.929 . S
C258 C259 1.377 . S
C258 C260 1.384 . S
C259 C258 1.377 . S
C259 C265 1.390 . S
C260 H251 0.930 . S
C260 C258 1.384 . S
C260 C261 1.372 . S
C261 C260 1.372 . S
C261 C262 1.400 . S
C261 C266 1.490 . S
C262 H252 0.930 . S
C262 C261 1.400 . S
C262 C265 1.386 . S
H263 C279 0.930 . S
H264 C280 0.931 . S
C265 H253 0.929 . S
C265 C259 1.390 . S
C265 C262 1.386 . S
C266 C261 1.490 . S
C266 C268 1.395 . S
C266 C269 1.403 . S
H267 C273 0.930 . S
C268 H254 0.930 . S
C268 C266 1.395 . S
C268 C271 1.403 . S
C269 C266 1.403 . S
C269 C270 1.524 . S
C269 C273 1.400 . S
C270 H255 0.960 . S
C270 H256 0.960 . S
C270 H257 0.960 . S
C270 C269 1.524 . S
C271 C268 1.403 . S
C271 C272 1.392 . S
C271 C275 1.495 . S
C272 C271 1.392 . S
C272 C273 1.385 . S
C272 C274 1.478 . S
C273 H267 0.930 . S
C273 C269 1.400 . S
C273 C272 1.385 . S
C274 C272 1.478 . S
C274 C276 1.381 . S
C274 C280 1.383 . S
C275 C271 1.495 . S
C275 H281 0.959 . S
C275 H282 0.961 . S
C275 H283 0.960 . S
C276 C274 1.381 . S
C276 C277 1.394 . S
C276 H284 0.930 . S
C277 C276 1.394 . S
C277 C278 1.383 . S
C277 H285 0.929 . S
C278 C277 1.383 . S
C278 C279 1.377 . S
C279 H263 0.930 . S
C279 C278 1.377 . S
C279 C280 1.379 . S
C280 H264 0.931 . S
C280 C274 1.383 . S
C280 C279 1.379 . S
H281 C275 0.959 . S
H282 C275 0.961 . S
H283 C275 0.960 . S
H284 C276 0.930 . S
H285 C277 0.929 . S
H286 C294 0.929 . S
H287 C296 0.930 . S
H288 C298 0.930 . S
H289 C301 0.929 . S
H290 C304 0.930 . S
H291 C306 0.960 . S
H292 C306 0.960 . S
H293 C306 0.960 . S
C294 H286 0.929 . S
C294 C295 1.377 . S
C294 C296 1.384 . S
C295 C294 1.377 . S
C295 C301 1.390 . S
C296 H287 0.930 . S
C296 C294 1.384 . S
C296 C297 1.372 . S
C297 C296 1.372 . S
C297 C298 1.400 . S
C297 C302 1.490 . S
C298 H288 0.930 . S
C298 C297 1.400 . S
C298 C301 1.386 . S
H299 C315 0.930 . S
H300 C316 0.931 . S
C301 H289 0.929 . S
C301 C295 1.390 . S
C301 C298 1.386 . S
C302 C297 1.490 . S
C302 C304 1.395 . S
C302 C305 1.403 . S
H303 C309 0.930 . S
C304 H290 0.930 . S
C304 C302 1.395 . S
C304 C307 1.403 . S
C305 C302 1.403 . S
C305 C306 1.524 . S
C305 C309 1.400 . S
C306 H291 0.960 . S
C306 H292 0.960 . S
C306 H293 0.960 . S
C306 C305 1.524 . S
C307 C304 1.403 . S
C307 C308 1.392 . S
C307 C311 1.495 . S
C308 C307 1.392 . S
C308 C309 1.385 . S
C308 C310 1.478 . S
C309 H303 0.930 . S
C309 C305 1.400 . S
C309 C308 1.385 . S
C310 C308 1.478 . S
C310 C312 1.381 . S
C310 C316 1.383 . S
C311 C307 1.495 . S
C311 H317 0.959 . S
C311 H318 0.961 . S
C311 H319 0.960 . S
C312 C310 1.381 . S
C312 C313 1.394 . S
C312 H320 0.930 . S
C313 C312 1.394 . S
C313 C314 1.383 . S
C313 H321 0.929 . S
C314 C313 1.383 . S
C314 C315 1.377 . S
C315 H299 0.930 . S
C315 C314 1.377 . S
C315 C316 1.379 . S
C316 H300 0.931 . S
C316 C310 1.383 . S
C316 C315 1.379 . S
H317 C311 0.959 . S
H318 C311 0.961 . S
H319 C311 0.960 . S
H320 C312 0.930 . S
H321 C313 0.929 . S
H322 C330 0.929 . S
H323 C332 0.930 . S
H324 C334 0.930 . S
H325 C337 0.929 . S
H326 C340 0.930 . S
H327 C342 0.960 . S
H328 C342 0.960 . S
H329 C342 0.960 . S
C330 H322 0.929 . S
C330 C331 1.377 . S
C330 C332 1.384 . S
C331 C330 1.377 . S
C331 C337 1.390 . S
C332 H323 0.930 . S
C332 C330 1.384 . S
C332 C333 1.372 . S
C333 C332 1.372 . S
C333 C334 1.400 . S
C333 C338 1.490 . S
C334 H324 0.930 . S
C334 C333 1.400 . S
C334 C337 1.386 . S
H335 C351 0.930 . S
H336 C352 0.931 . S
C337 H325 0.929 . S
C337 C331 1.390 . S
C337 C334 1.386 . S
C338 C333 1.490 . S
C338 C340 1.395 . S
C338 C341 1.403 . S
H339 C345 0.930 . S
C340 H326 0.930 . S
C340 C338 1.395 . S
C340 C343 1.403 . S
C341 C338 1.403 . S
C341 C342 1.524 . S
C341 C345 1.400 . S
C342 H327 0.960 . S
C342 H328 0.960 . S
C342 H329 0.960 . S
C342 C341 1.524 . S
C343 C340 1.403 . S
C343 C344 1.392 . S
C343 C347 1.495 . S
C344 C343 1.392 . S
C344 C345 1.385 . S
C344 C346 1.478 . S
C345 H339 0.930 . S
C345 C341 1.400 . S
C345 C344 1.385 . S
C346 C344 1.478 . S
C346 C348 1.381 . S
C346 C352 1.383 . S
C347 C343 1.495 . S
C347 H353 0.959 . S
C347 H354 0.961 . S
C347 H355 0.960 . S
C348 C346 1.381 . S
C348 C349 1.394 . S
C348 H356 0.930 . S
C349 C348 1.394 . S
C349 C350 1.383 . S
C349 H357 0.929 . S
C350 C349 1.383 . S
C350 C351 1.377 . S
C351 H335 0.930 . S
C351 C350 1.377 . S
C351 C352 1.379 . S
C352 H336 0.931 . S
C352 C346 1.383 . S
C352 C351 1.379 . S
H353 C347 0.959 . S
H354 C347 0.961 . S
H355 C347 0.960 . S
H356 C348 0.930 . S
H357 C349 0.929 . S
H358 C366 0.929 . S
H359 C368 0.930 . S
H360 C370 0.930 . S
H361 C373 0.929 . S
H362 C376 0.930 . S
H363 C378 0.960 . S
H364 C378 0.960 . S
H365 C378 0.960 . S
C366 H358 0.929 . S
C366 C367 1.377 . S
C366 C368 1.384 . S
C367 C366 1.377 . S
C367 C373 1.390 . S
C368 H359 0.930 . S
C368 C366 1.384 . S
C368 C369 1.372 . S
C369 C368 1.372 . S
C369 C370 1.400 . S
C369 C374 1.490 . S
C370 H360 0.930 . S
C370 C369 1.400 . S
C370 C373 1.386 . S
H371 C387 0.930 . S
H372 C388 0.931 . S
C373 H361 0.929 . S
C373 C367 1.390 . S
C373 C370 1.386 . S
C374 C369 1.490 . S
C374 C376 1.395 . S
C374 C377 1.403 . S
H375 C381 0.930 . S
C376 H362 0.930 . S
C376 C374 1.395 . S
C376 C379 1.403 . S
C377 C374 1.403 . S
C377 C378 1.524 . S
C377 C381 1.400 . S
C378 H363 0.960 . S
C378 H364 0.960 . S
C378 H365 0.960 . S
C378 C377 1.524 . S
C379 C376 1.403 . S
C379 C380 1.392 . S
C379 C383 1.495 . S
C380 C379 1.392 . S
C380 C381 1.385 . S
C380 C382 1.478 . S
C381 H375 0.930 . S
C381 C377 1.400 . S
C381 C380 1.385 . S
C382 C380 1.478 . S
C382 C384 1.381 . S
C382 C388 1.383 . S
C383 C379 1.495 . S
C383 H389 0.959 . S
C383 H390 0.961 . S
C383 H391 0.960 . S
C384 C382 1.381 . S
C384 C385 1.394 . S
C384 H392 0.930 . S
C385 C384 1.394 . S
C385 C386 1.383 . S
C385 H393 0.929 . S
C386 C385 1.383 . S
C386 C387 1.377 . S
C387 H371 0.930 . S
C387 C386 1.377 . S
C387 C388 1.379 . S
C388 H372 0.931 . S
C388 C382 1.383 . S
C388 C387 1.379 . S
H389 C383 0.959 . S
H390 C383 0.961 . S
H391 C383 0.960 . S
H392 C384 0.930 . S
H393 C385 0.929 . S
H394 C402 0.929 . S
H395 C404 0.930 . S
H396 C406 0.930 . S
H397 C409 0.929 . S
H398 C412 0.930 . S
H399 C414 0.960 . S
H400 C414 0.960 . S
H401 C414 0.960 . S
C402 H394 0.929 . S
C402 C403 1.377 . S
C402 C404 1.384 . S
C403 C402 1.377 . S
C403 C409 1.390 . S
C404 H395 0.930 . S
C404 C402 1.384 . S
C404 C405 1.372 . S
C405 C404 1.372 . S
C405 C406 1.400 . S
C405 C410 1.490 . S
C406 H396 0.930 . S
C406 C405 1.400 . S
C406 C409 1.386 . S
H407 C423 0.930 . S
H408 C424 0.931 . S
C409 H397 0.929 . S
C409 C403 1.390 . S
C409 C406 1.386 . S
C410 C405 1.490 . S
C410 C412 1.395 . S
C410 C413 1.403 . S
H411 C417 0.930 . S
C412 H398 0.930 . S
C412 C410 1.395 . S
C412 C415 1.403 . S
C413 C410 1.403 . S
C413 C414 1.524 . S
C413 C417 1.400 . S
C414 H399 0.960 . S
C414 H400 0.960 . S
C414 H401 0.960 . S
C414 C413 1.524 . S
C415 C412 1.403 . S
C415 C416 1.392 . S
C415 C419 1.495 . S
C416 C415 1.392 . S
C416 C417 1.385 . S
C416 C418 1.478 . S
C417 H411 0.930 . S
C417 C413 1.400 . S
C417 C416 1.385 . S
C418 C416 1.478 . S
C418 C420 1.381 . S
C418 C424 1.383 . S
C419 C415 1.495 . S
C419 H425 0.959 . S
C419 H426 0.961 . S
C419 H427 0.960 . S
C420 C418 1.381 . S
C420 C421 1.394 . S
C420 H428 0.930 . S
C421 C420 1.394 . S
C421 C422 1.383 . S
C421 H429 0.929 . S
C422 C421 1.383 . S
C422 C423 1.377 . S
C423 H407 0.930 . S
C423 C422 1.377 . S
C423 C424 1.379 . S
C424 H408 0.931 . S
C424 C418 1.383 . S
C424 C423 1.379 . S
H425 C419 0.959 . S
H426 C419 0.961 . S
H427 C419 0.960 . S
H428 C420 0.930 . S
H429 C421 0.929 . S
H430 C438 0.929 . S
H431 C440 0.930 . S
H432 C442 0.930 . S
H433 C445 0.929 . S
H434 C448 0.930 . S
H435 C450 0.960 . S
H436 C450 0.960 . S
H437 C450 0.960 . S
C438 H430 0.929 . S
C438 C439 1.377 . S
C438 C440 1.384 . S
C439 C438 1.377 . S
C439 C445 1.390 . S
C440 H431 0.930 . S
C440 C438 1.384 . S
C440 C441 1.372 . S
C441 C440 1.372 . S
C441 C442 1.400 . S
C441 C446 1.490 . S
C442 H432 0.930 . S
C442 C441 1.400 . S
C442 C445 1.386 . S
H443 C459 0.930 . S
H444 C460 0.931 . S
C445 H433 0.929 . S
C445 C439 1.390 . S
C445 C442 1.386 . S
C446 C441 1.490 . S
C446 C448 1.395 . S
C446 C449 1.403 . S
H447 C453 0.930 . S
C448 H434 0.930 . S
C448 C446 1.395 . S
C448 C451 1.403 . S
C449 C446 1.403 . S
C449 C450 1.524 . S
C449 C453 1.400 . S
C450 H435 0.960 . S
C450 H436 0.960 . S
C450 H437 0.960 . S
C450 C449 1.524 . S
C451 C448 1.403 . S
C451 C452 1.392 . S
C451 C455 1.495 . S
C452 C451 1.392 . S
C452 C453 1.385 . S
C452 C454 1.478 . S
C453 H447 0.930 . S
C453 C449 1.400 . S
C453 C452 1.385 . S
C454 C452 1.478 . S
C454 C456 1.381 . S
C454 C460 1.383 . S
C455 C451 1.495 . S
C455 H461 0.959 . S
C455 H462 0.961 . S
C455 H463 0.960 . S
C456 C454 1.381 . S
C456 C457 1.394 . S
C456 H464 0.930 . S
C457 C456 1.394 . S
C457 C458 1.383 . S
C457 H465 0.929 . S
C458 C457 1.383 . S
C458 C459 1.377 . S
C459 H443 0.930 . S
C459 C458 1.377 . S
C459 C460 1.379 . S
C460 H444 0.931 . S
C460 C454 1.383 . S
C460 C459 1.379 . S
H461 C455 0.959 . S
H462 C455 0.961 . S
H463 C455 0.960 . S
H464 C456 0.930 . S
H465 C457 0.929 . S
H466 C474 0.929 . S
H467 C476 0.930 . S
H468 C478 0.930 . S
H469 C481 0.929 . S
H470 C484 0.930 . S
H471 C486 0.960 . S
H472 C486 0.960 . S
H473 C486 0.960 . S
C474 H466 0.929 . S
C474 C475 1.377 . S
C474 C476 1.384 . S
C475 C474 1.377 . S
C475 C481 1.390 . S
C476 H467 0.930 . S
C476 C474 1.384 . S
C476 C477 1.372 . S
C477 C476 1.372 . S
C477 C478 1.400 . S
C477 C482 1.490 . S
C478 H468 0.930 . S
C478 C477 1.400 . S
C478 C481 1.386 . S
H479 C495 0.930 . S
H480 C496 0.931 . S
C481 H469 0.929 . S
C481 C475 1.390 . S
C481 C478 1.386 . S
C482 C477 1.490 . S
C482 C484 1.395 . S
C482 C485 1.403 . S
H483 C489 0.930 . S
C484 H470 0.930 . S
C484 C482 1.395 . S
C484 C487 1.403 . S
C485 C482 1.403 . S
C485 C486 1.524 . S
C485 C489 1.400 . S
C486 H471 0.960 . S
C486 H472 0.960 . S
C486 H473 0.960 . S
C486 C485 1.524 . S
C487 C484 1.403 . S
C487 C488 1.392 . S
C487 C491 1.495 . S
C488 C487 1.392 . S
C488 C489 1.385 . S
C488 C490 1.478 . S
C489 H483 0.930 . S
C489 C485 1.400 . S
C489 C488 1.385 . S
C490 C488 1.478 . S
C490 C492 1.381 . S
C490 C496 1.383 . S
C491 C487 1.495 . S
C491 H497 0.959 . S
C491 H498 0.961 . S
C491 H499 0.960 . S
C492 C490 1.381 . S
C492 C493 1.394 . S
C492 H500 0.930 . S
C493 C492 1.394 . S
C493 C494 1.383 . S
C493 H501 0.929 . S
C494 C493 1.383 . S
C494 C495 1.377 . S
C495 H479 0.930 . S
C495 C494 1.377 . S
C495 C496 1.379 . S
C496 H480 0.931 . S
C496 C490 1.383 . S
C496 C495 1.379 . S
H497 C491 0.959 . S
H498 C491 0.961 . S
H499 C491 0.960 . S
H500 C492 0.930 . S
H501 C493 0.929 . S
H502 C510 0.929 . S
H503 C512 0.930 . S
H504 C514 0.930 . S
H505 C517 0.929 . S
H506 C520 0.930 . S
H507 C522 0.960 . S
H508 C522 0.960 . S
H509 C522 0.960 . S
C510 H502 0.929 . S
C510 C511 1.377 . S
C510 C512 1.384 . S
C511 C510 1.377 . S
C511 C517 1.390 . S
C512 H503 0.930 . S
C512 C510 1.384 . S
C512 C513 1.372 . S
C513 C512 1.372 . S
C513 C514 1.400 . S
C513 C518 1.490 . S
C514 H504 0.930 . S
C514 C513 1.400 . S
C514 C517 1.386 . S
H515 C531 0.930 . S
H516 C532 0.931 . S
C517 H505 0.929 . S
C517 C511 1.390 . S
C517 C514 1.386 . S
C518 C513 1.490 . S
C518 C520 1.395 . S
C518 C521 1.403 . S
H519 C525 0.930 1_545 S
C520 H506 0.930 . S
C520 C518 1.395 . S
C520 C523 1.425 . S
C521 C518 1.403 . S
C521 C522 1.524 . S
C521 C525 1.400 . S
C522 H507 0.960 . S
C522 H508 0.960 . S
C522 H509 0.960 . S
C522 C521 1.524 . S
C523 C520 1.425 . S
C523 C524 1.386 1_565 S
C523 C527 1.481 1_565 S
C524 C523 1.386 1_545 S
C524 C525 1.385 1_545 S
C524 C526 1.478 . S
C525 H519 0.930 1_565 S
C525 C521 1.400 . S
C525 C524 1.385 1_565 S
C526 C524 1.478 . S
C526 C528 1.381 . S
C526 C532 1.383 . S
C527 C523 1.481 1_545 S
C527 H533 0.976 . S
C527 H534 0.961 . S
C527 H535 0.960 . S
C528 C526 1.381 . S
C528 C529 1.394 . S
C528 H536 0.930 . S
C529 C528 1.394 . S
C529 C530 1.383 . S
C529 H537 0.929 . S
C530 C529 1.383 . S
C530 C531 1.377 . S
C531 H515 0.930 . S
C531 C530 1.377 . S
C531 C532 1.379 . S
C532 H516 0.931 . S
C532 C526 1.383 . S
C532 C531 1.379 . S
H533 C527 0.976 . S
H534 C527 0.961 . S
H535 C527 0.960 . S
H536 C528 0.930 . S
H537 C529 0.929 . S
H538 C546 0.929 . S
H539 C548 0.930 . S
H540 C550 0.930 . S
H541 C553 0.929 . S
H542 C556 0.930 . S
H543 C558 0.960 . S
H544 C558 0.960 . S
H545 C558 0.960 . S
C546 H538 0.929 . S
C546 C547 1.377 . S
C546 C548 1.384 . S
C547 C546 1.377 . S
C547 C553 1.390 . S
C548 H539 0.930 . S
C548 C546 1.384 . S
C548 C549 1.372 . S
C549 C548 1.372 . S
C549 C550 1.400 . S
C549 C554 1.490 . S
C550 H540 0.930 . S
C550 C549 1.400 . S
C550 C553 1.386 . S
H551 C567 0.930 . S
H552 C568 0.931 . S
C553 H541 0.929 . S
C553 C547 1.390 . S
C553 C550 1.386 . S
C554 C549 1.490 . S
C554 C556 1.395 . S
C554 C557 1.403 . S
H555 C561 0.930 . S
C556 H542 0.930 . S
C556 C554 1.395 . S
C556 C559 1.403 . S
C557 C554 1.403 . S
C557 C558 1.524 . S
C557 C561 1.400 . S
C558 H543 0.960 . S
C558 H544 0.960 . S
C558 H545 0.960 . S
C558 C557 1.524 . S
C559 C556 1.403 . S
C559 C560 1.392 . S
C559 C563 1.495 . S
C560 C559 1.392 . S
C560 C561 1.385 . S
C560 C562 1.478 . S
C561 H555 0.930 . S
C561 C557 1.400 . S
C561 C560 1.385 . S
C562 C560 1.478 . S
C562 C564 1.381 . S
C562 C568 1.383 . S
C563 C559 1.495 . S
C563 H569 0.959 . S
C563 H570 0.961 . S
C563 H571 0.960 . S
C564 C562 1.381 . S
C564 C565 1.394 . S
C564 H572 0.930 . S
C565 C564 1.394 . S
C565 C566 1.383 . S
C565 H573 0.929 . S
C566 C565 1.383 . S
C566 C567 1.377 . S
C567 H551 0.930 . S
C567 C566 1.377 . S
C567 C568 1.379 . S
C568 H552 0.931 . S
C568 C562 1.383 . S
C568 C567 1.379 . S
H569 C563 0.959 . S
H570 C563 0.961 . S
H571 C563 0.960 . S
H572 C564 0.930 . S
H573 C565 0.929 . S
H574 C582 0.929 . S
H575 C584 0.930 . S
H576 C586 0.930 . S
H577 C589 0.929 . S
H578 C592 0.930 . S
H579 C594 0.960 . S
H580 C594 0.960 . S
H581 C594 0.960 . S
C582 H574 0.929 . S
C582 C583 1.377 . S
C582 C584 1.384 . S
C583 C582 1.377 . S
C583 C589 1.390 . S
C584 H575 0.930 . S
C584 C582 1.384 . S
C584 C585 1.372 . S
C585 C584 1.372 . S
C585 C586 1.400 . S
C585 C590 1.490 . S
C586 H576 0.930 . S
C586 C585 1.400 . S
C586 C589 1.386 . S
H587 C603 0.930 . S
H588 C604 0.931 . S
C589 H577 0.929 . S
C589 C583 1.390 . S
C589 C586 1.386 . S
C590 C585 1.490 . S
C590 C592 1.395 . S
C590 C593 1.403 . S
H591 C597 0.930 . S
C592 H578 0.930 . S
C592 C590 1.395 . S
C592 C595 1.403 . S
C593 C590 1.403 . S
C593 C594 1.524 . S
C593 C597 1.400 . S
C594 H579 0.960 . S
C594 H580 0.960 . S
C594 H581 0.960 . S
C594 C593 1.524 . S
C595 C592 1.403 . S
C595 C596 1.392 . S
C595 C599 1.495 . S
C596 C595 1.392 . S
C596 C597 1.385 . S
C596 C598 1.478 . S
C597 H591 0.930 . S
C597 C593 1.400 . S
C597 C596 1.385 . S
C598 C596 1.478 . S
C598 C600 1.381 . S
C598 C604 1.383 . S
C599 C595 1.495 . S
C599 H605 0.959 . S
C599 H606 0.961 . S
C599 H607 0.960 . S
C600 C598 1.381 . S
C600 C601 1.394 . S
C600 H608 0.930 . S
C601 C600 1.394 . S
C601 C602 1.383 . S
C601 H609 0.929 . S
C602 C601 1.383 . S
C602 C603 1.377 . S
C603 H587 0.930 . S
C603 C602 1.377 . S
C603 C604 1.379 . S
C604 H588 0.931 . S
C604 C598 1.383 . S
C604 C603 1.379 . S
H605 C599 0.959 . S
H606 C599 0.961 . S
H607 C599 0.960 . S
H608 C600 0.930 . S
H609 C601 0.929 . S
H610 C618 0.929 . S
H611 C620 0.930 . S
H612 C622 0.930 . S
H613 C625 0.929 . S
H614 C628 0.930 . S
H615 C630 0.960 . S
H616 C630 0.960 . S
H617 C630 0.960 . S
C618 H610 0.929 . S
C618 C619 1.377 . S
C618 C620 1.384 . S
C619 C618 1.377 . S
C619 C625 1.390 . S
C620 H611 0.930 . S
C620 C618 1.384 . S
C620 C621 1.372 . S
C621 C620 1.372 . S
C621 C622 1.400 . S
C621 C626 1.490 . S
C622 H612 0.930 . S
C622 C621 1.400 . S
C622 C625 1.386 . S
H623 C639 0.930 . S
H624 C640 0.931 . S
C625 H613 0.929 . S
C625 C619 1.390 . S
C625 C622 1.386 . S
C626 C621 1.490 . S
C626 C628 1.395 . S
C626 C629 1.403 . S
H627 C633 0.930 . S
C628 H614 0.930 . S
C628 C626 1.395 . S
C628 C631 1.403 . S
C629 C626 1.403 . S
C629 C630 1.524 . S
C629 C633 1.400 . S
C630 H615 0.960 . S
C630 H616 0.960 . S
C630 H617 0.960 . S
C630 C629 1.524 . S
C631 C628 1.403 . S
C631 C632 1.392 . S
C631 C635 1.495 . S
C632 C631 1.392 . S
C632 C633 1.385 . S
C632 C634 1.478 . S
C633 H627 0.930 . S
C633 C629 1.400 . S
C633 C632 1.385 . S
C634 C632 1.478 . S
C634 C636 1.381 . S
C634 C640 1.383 . S
C635 C631 1.495 . S
C635 H641 0.959 . S
C635 H642 0.961 . S
C635 H643 0.960 . S
C636 C634 1.381 . S
C636 C637 1.394 . S
C636 H644 0.930 . S
C637 C636 1.394 . S
C637 C638 1.383 . S
C637 H645 0.929 . S
C638 C637 1.383 . S
C638 C639 1.377 . S
C639 H623 0.930 . S
C639 C638 1.377 . S
C639 C640 1.379 . S
C640 H624 0.931 . S
C640 C634 1.383 . S
C640 C639 1.379 . S
H641 C635 0.959 . S
H642 C635 0.961 . S
H643 C635 0.960 . S
H644 C636 0.930 . S
H645 C637 0.929 . S
H646 C654 0.929 . S
H647 C656 0.930 . S
H648 C658 0.930 . S
H649 C661 0.929 . S
H650 C664 0.930 . S
H651 C666 0.960 . S
H652 C666 0.960 . S
H653 C666 0.960 . S
C654 H646 0.929 . S
C654 C655 1.377 . S
C654 C656 1.384 . S
C655 C654 1.377 . S
C655 C661 1.390 . S
C656 H647 0.930 . S
C656 C654 1.384 . S
C656 C657 1.372 . S
C657 C656 1.372 . S
C657 C658 1.400 . S
C657 C662 1.490 . S
C658 H648 0.930 . S
C658 C657 1.400 . S
C658 C661 1.386 . S
H659 C675 0.930 . S
H660 C676 0.931 . S
C661 H649 0.929 . S
C661 C655 1.390 . S
C661 C658 1.386 . S
C662 C657 1.490 . S
C662 C664 1.395 . S
C662 C665 1.403 . S
H663 C669 0.930 . S
C664 H650 0.930 . S
C664 C662 1.395 . S
C664 C667 1.403 . S
C665 C662 1.403 . S
C665 C666 1.524 . S
C665 C669 1.400 . S
C666 H651 0.960 . S
C666 H652 0.960 . S
C666 H653 0.960 . S
C666 C665 1.524 . S
C667 C664 1.403 . S
C667 C668 1.392 . S
C667 C671 1.495 . S
C668 C667 1.392 . S
C668 C669 1.385 . S
C668 C670 1.478 . S
C669 H663 0.930 . S
C669 C665 1.400 . S
C669 C668 1.385 . S
C670 C668 1.478 . S
C670 C672 1.381 . S
C670 C676 1.383 . S
C671 C667 1.495 . S
C671 H677 0.959 . S
C671 H678 0.961 . S
C671 H679 0.960 . S
C672 C670 1.381 . S
C672 C673 1.394 . S
C672 H680 0.930 . S
C673 C672 1.394 . S
C673 C674 1.383 . S
C673 H681 0.929 . S
C674 C673 1.383 . S
C674 C675 1.377 . S
C675 H659 0.930 . S
C675 C674 1.377 . S
C675 C676 1.379 . S
C676 H660 0.931 . S
C676 C670 1.383 . S
C676 C675 1.379 . S
H677 C671 0.959 . S
H678 C671 0.961 . S
H679 C671 0.960 . S
H680 C672 0.930 . S
H681 C673 0.929 . S
H682 C690 0.929 . S
H683 C692 0.930 . S
H684 C694 0.930 . S
H685 C697 0.929 . S
H686 C700 0.930 . S
H687 C702 0.960 . S
H688 C702 0.960 . S
H689 C702 0.960 . S
C690 H682 0.929 . S
C690 C691 1.377 . S
C690 C692 1.384 . S
C691 C690 1.377 . S
C691 C697 1.390 . S
C692 H683 0.930 . S
C692 C690 1.384 . S
C692 C693 1.372 . S
C693 C692 1.372 . S
C693 C694 1.400 . S
C693 C698 1.490 . S
C694 H684 0.930 . S
C694 C693 1.400 . S
C694 C697 1.386 . S
H695 C711 0.930 . S
H696 C712 0.931 . S
C697 H685 0.929 . S
C697 C691 1.390 . S
C697 C694 1.386 . S
C698 C693 1.490 . S
C698 C700 1.395 . S
C698 C701 1.403 . S
H699 C705 0.930 . S
C700 H686 0.930 . S
C700 C698 1.395 . S
C700 C703 1.403 . S
C701 C698 1.403 . S
C701 C702 1.524 . S
C701 C705 1.400 . S
C702 H687 0.960 . S
C702 H688 0.960 . S
C702 H689 0.960 . S
C702 C701 1.524 . S
C703 C700 1.403 . S
C703 C704 1.392 . S
C703 C707 1.495 . S
C704 C703 1.392 . S
C704 C705 1.385 . S
C704 C706 1.478 . S
C705 H699 0.930 . S
C705 C701 1.400 . S
C705 C704 1.385 . S
C706 C704 1.478 . S
C706 C708 1.381 . S
C706 C712 1.383 . S
C707 C703 1.495 . S
C707 H713 0.959 . S
C707 H714 0.961 . S
C707 H715 0.960 . S
C708 C706 1.381 . S
C708 C709 1.394 . S
C708 H716 0.930 . S
C709 C708 1.394 . S
C709 C710 1.383 . S
C709 H717 0.929 . S
C710 C709 1.383 . S
C710 C711 1.377 . S
C711 H695 0.930 . S
C711 C710 1.377 . S
C711 C712 1.379 . S
C712 H696 0.931 . S
C712 C706 1.383 . S
C712 C711 1.379 . S
H713 C707 0.959 . S
H714 C707 0.961 . S
H715 C707 0.960 . S
H716 C708 0.930 . S
H717 C709 0.929 . S
H718 C726 0.929 . S
H719 C728 0.930 . S
H720 C730 0.930 . S
H721 C733 0.929 . S
H722 C736 0.930 . S
H723 C738 0.960 . S
H724 C738 0.960 . S
H725 C738 0.960 . S
C726 H718 0.929 . S
C726 C727 1.377 . S
C726 C728 1.384 . S
C727 C726 1.377 . S
C727 C733 1.390 . S
C728 H719 0.930 . S
C728 C726 1.384 . S
C728 C729 1.372 . S
C729 C728 1.372 . S
C729 C730 1.400 . S
C729 C734 1.490 . S
C730 H720 0.930 . S
C730 C729 1.400 . S
C730 C733 1.386 . S
H731 C747 0.930 . S
H732 C748 0.931 . S
C733 H721 0.929 . S
C733 C727 1.390 . S
C733 C730 1.386 . S
C734 C729 1.490 . S
C734 C736 1.395 . S
C734 C737 1.403 . S
H735 C741 0.930 . S
C736 H722 0.930 . S
C736 C734 1.395 . S
C736 C739 1.403 . S
C737 C734 1.403 . S
C737 C738 1.524 . S
C737 C741 1.400 . S
C738 H723 0.960 . S
C738 H724 0.960 . S
C738 H725 0.960 . S
C738 C737 1.524 . S
C739 C736 1.403 . S
C739 C740 1.392 . S
C739 C743 1.495 . S
C740 C739 1.392 . S
C740 C741 1.385 . S
C740 C742 1.478 . S
C741 H735 0.930 . S
C741 C737 1.400 . S
C741 C740 1.385 . S
C742 C740 1.478 . S
C742 C744 1.381 . S
C742 C748 1.383 . S
C743 C739 1.495 . S
C743 H749 0.959 . S
C743 H750 0.961 . S
C743 H751 0.960 . S
C744 C742 1.381 . S
C744 C745 1.394 . S
C744 H752 0.930 . S
C745 C744 1.394 . S
C745 C746 1.383 . S
C745 H753 0.929 . S
C746 C745 1.383 . S
C746 C747 1.377 . S
C747 H731 0.930 . S
C747 C746 1.377 . S
C747 C748 1.379 . S
C748 H732 0.931 . S
C748 C742 1.383 . S
C748 C747 1.379 . S
H749 C743 0.959 . S
H750 C743 0.961 . S
H751 C743 0.960 . S
H752 C744 0.930 . S
H753 C745 0.929 . S
H754 C762 0.929 . S
H755 C764 0.930 . S
H756 C766 0.930 . S
H757 C769 0.929 . S
H758 C772 0.930 . S
H759 C774 0.960 . S
H760 C774 0.960 . S
H761 C774 0.960 . S
C762 H754 0.929 . S
C762 C763 1.377 . S
C762 C764 1.384 . S
C763 C762 1.377 . S
C763 C769 1.390 . S
C764 H755 0.930 . S
C764 C762 1.384 . S
C764 C765 1.372 . S
C765 C764 1.372 . S
C765 C766 1.400 . S
C765 C770 1.490 . S
C766 H756 0.930 . S
C766 C765 1.400 . S
C766 C769 1.386 . S
H767 C783 0.930 . S
H768 C784 0.931 . S
C769 H757 0.929 . S
C769 C763 1.390 . S
C769 C766 1.386 . S
C770 C765 1.490 . S
C770 C772 1.395 . S
C770 C773 1.403 . S
H771 C777 0.930 . S
C772 H758 0.930 . S
C772 C770 1.395 . S
C772 C775 1.403 . S
C773 C770 1.403 . S
C773 C774 1.524 . S
C773 C777 1.400 . S
C774 H759 0.960 . S
C774 H760 0.960 . S
C774 H761 0.960 . S
C774 C773 1.524 . S
C775 C772 1.403 . S
C775 C776 1.392 . S
C775 C779 1.495 . S
C776 C775 1.392 . S
C776 C777 1.385 . S
C776 C778 1.478 . S
C777 H771 0.930 . S
C777 C773 1.400 . S
C777 C776 1.385 . S
C778 C776 1.478 . S
C778 C780 1.381 . S
C778 C784 1.383 . S
C779 C775 1.495 . S
C779 H785 0.959 . S
C779 H786 0.961 . S
C779 H787 0.960 . S
C780 C778 1.381 . S
C780 C781 1.394 . S
C780 H788 0.930 . S
C781 C780 1.394 . S
C781 C782 1.383 . S
C781 H789 0.929 . S
C782 C781 1.383 . S
C782 C783 1.377 . S
C783 H767 0.930 . S
C783 C782 1.377 . S
C783 C784 1.379 . S
C784 H768 0.931 . S
C784 C778 1.383 . S
C784 C783 1.379 . S
H785 C779 0.959 . S
H786 C779 0.961 . S
H787 C779 0.960 . S
H788 C780 0.930 . S
H789 C781 0.929 . S
H790 C798 0.929 . S
H791 C800 0.930 . S
H792 C802 0.930 . S
H793 C805 0.929 . S
H794 C808 0.930 . S
H795 C810 0.960 . S
H796 C810 0.960 . S
H797 C810 0.960 . S
C798 H790 0.929 . S
C798 C799 1.377 . S
C798 C800 1.384 . S
C799 C798 1.377 . S
C799 C805 1.390 . S
C800 H791 0.930 . S
C800 C798 1.384 . S
C800 C801 1.372 . S
C801 C800 1.372 . S
C801 C802 1.400 . S
C801 C806 1.490 . S
C802 H792 0.930 . S
C802 C801 1.400 . S
C802 C805 1.386 . S
H803 C819 0.930 . S
H804 C820 0.931 . S
C805 H793 0.929 . S
C805 C799 1.390 . S
C805 C802 1.386 . S
C806 C801 1.490 . S
C806 C808 1.395 . S
C806 C809 1.403 . S
H807 C813 0.930 . S
C808 H794 0.930 . S
C808 C806 1.395 . S
C808 C811 1.403 . S
C809 C806 1.403 . S
C809 C810 1.524 . S
C809 C813 1.400 . S
C810 H795 0.960 . S
C810 H796 0.960 . S
C810 H797 0.960 . S
C810 C809 1.524 . S
C811 C808 1.403 . S
C811 C812 1.392 . S
C811 C815 1.495 . S
C812 C811 1.392 . S
C812 C813 1.385 . S
C812 C814 1.478 . S
C813 H807 0.930 . S
C813 C809 1.400 . S
C813 C812 1.385 . S
C814 C812 1.478 . S
C814 C816 1.381 . S
C814 C820 1.383 . S
C815 C811 1.495 . S
C815 H821 0.959 . S
C815 H822 0.961 . S
C815 H823 0.960 . S
C816 C814 1.381 . S
C816 C817 1.394 . S
C816 H824 0.930 . S
C817 C816 1.394 . S
C817 C818 1.383 . S
C817 H825 0.929 . S
C818 C817 1.383 . S
C818 C819 1.377 . S
C819 H803 0.930 . S
C819 C818 1.377 . S
C819 C820 1.379 . S
C820 H804 0.931 . S
C820 C814 1.383 . S
C820 C819 1.379 . S
H821 C815 0.959 . S
H822 C815 0.961 . S
H823 C815 0.960 . S
H824 C816 0.930 . S
H825 C817 0.929 . S
H826 C834 0.929 . S
H827 C836 0.930 . S
H828 C838 0.930 . S
H829 C841 0.929 . S
H830 C844 0.930 . S
H831 C846 0.960 . S
H832 C846 0.960 . S
H833 C846 0.960 . S
C834 H826 0.929 . S
C834 C835 1.377 . S
C834 C836 1.384 . S
C835 C834 1.377 . S
C835 C841 1.390 . S
C836 H827 0.930 . S
C836 C834 1.384 . S
C836 C837 1.372 . S
C837 C836 1.372 . S
C837 C838 1.400 . S
C837 C842 1.490 . S
C838 H828 0.930 . S
C838 C837 1.400 . S
C838 C841 1.386 . S
H839 C855 0.930 . S
H840 C856 0.931 . S
C841 H829 0.929 . S
C841 C835 1.390 . S
C841 C838 1.386 . S
C842 C837 1.490 . S
C842 C844 1.395 . S
C842 C845 1.403 . S
H843 C849 0.930 . S
C844 H830 0.930 . S
C844 C842 1.395 . S
C844 C847 1.403 . S
C845 C842 1.403 . S
C845 C846 1.524 . S
C845 C849 1.400 . S
C846 H831 0.960 . S
C846 H832 0.960 . S
C846 H833 0.960 . S
C846 C845 1.524 . S
C847 C844 1.403 . S
C847 C848 1.392 . S
C847 C851 1.495 . S
C848 C847 1.392 . S
C848 C849 1.385 . S
C848 C850 1.478 . S
C849 H843 0.930 . S
C849 C845 1.400 . S
C849 C848 1.385 . S
C850 C848 1.478 . S
C850 C852 1.381 . S
C850 C856 1.383 . S
C851 C847 1.495 . S
C851 H857 0.959 . S
C851 H858 0.961 . S
C851 H859 0.960 . S
C852 C850 1.381 . S
C852 C853 1.394 . S
C852 H860 0.930 . S
C853 C852 1.394 . S
C853 C854 1.383 . S
C853 H861 0.929 . S
C854 C853 1.383 . S
C854 C855 1.377 . S
C855 H839 0.930 . S
C855 C854 1.377 . S
C855 C856 1.379 . S
C856 H840 0.931 . S
C856 C850 1.383 . S
C856 C855 1.379 . S
H857 C851 0.959 . S
H858 C851 0.961 . S
H859 C851 0.960 . S
H860 C852 0.930 . S
H861 C853 0.929 . S
H862 C870 0.929 . S
H863 C872 0.930 . S
H864 C874 0.930 . S
H865 C877 0.929 . S
H866 C880 0.930 . S
H867 C882 0.960 . S
H868 C882 0.960 . S
H869 C882 0.960 . S
C870 H862 0.929 . S
C870 C871 1.377 . S
C870 C872 1.384 . S
C871 C870 1.377 . S
C871 C877 1.390 . S
C872 H863 0.930 . S
C872 C870 1.384 . S
C872 C873 1.372 . S
C873 C872 1.372 . S
C873 C874 1.400 . S
C873 C878 1.490 . S
C874 H864 0.930 . S
C874 C873 1.400 . S
C874 C877 1.386 . S
H875 C891 0.930 . S
H876 C892 0.931 . S
C877 H865 0.929 . S
C877 C871 1.390 . S
C877 C874 1.386 . S
C878 C873 1.490 . S
C878 C880 1.395 . S
C878 C881 1.403 . S
H879 C885 0.930 . S
C880 H866 0.930 . S
C880 C878 1.395 . S
C880 C883 1.403 . S
C881 C878 1.403 . S
C881 C882 1.524 . S
C881 C885 1.400 . S
C882 H867 0.960 . S
C882 H868 0.960 . S
C882 H869 0.960 . S
C882 C881 1.524 . S
C883 C880 1.403 . S
C883 C884 1.392 . S
C883 C887 1.495 . S
C884 C883 1.392 . S
C884 C885 1.385 . S
C884 C886 1.478 . S
C885 H879 0.930 . S
C885 C881 1.400 . S
C885 C884 1.385 . S
C886 C884 1.478 . S
C886 C888 1.381 . S
C886 C892 1.383 . S
C887 C883 1.495 . S
C887 H893 0.959 . S
C887 H894 0.961 . S
C887 H895 0.960 . S
C888 C886 1.381 . S
C888 C889 1.394 . S
C888 H896 0.930 . S
C889 C888 1.394 . S
C889 C890 1.383 . S
C889 H897 0.929 . S
C890 C889 1.383 . S
C890 C891 1.377 . S
C891 H875 0.930 . S
C891 C890 1.377 . S
C891 C892 1.379 . S
C892 H876 0.931 . S
C892 C886 1.383 . S
C892 C891 1.379 . S
H893 C887 0.959 . S
H894 C887 0.961 . S
H895 C887 0.960 . S
H896 C888 0.930 . S
H897 C889 0.929 . S
H898 C906 0.929 . S
H899 C908 0.930 . S
H900 C910 0.930 . S
H901 C913 0.929 . S
H902 C916 0.930 . S
H903 C918 0.960 . S
H904 C918 0.960 . S
H905 C918 0.960 . S
C906 H898 0.929 . S
C906 C907 1.377 . S
C906 C908 1.384 . S
C907 C906 1.377 . S
C907 C913 1.390 . S
C908 H899 0.930 . S
C908 C906 1.384 . S
C908 C909 1.372 . S
C909 C908 1.372 . S
C909 C910 1.400 . S
C909 C914 1.490 . S
C910 H900 0.930 . S
C910 C909 1.400 . S
C910 C913 1.386 . S
H911 C927 0.930 . S
H912 C928 0.931 . S
C913 H901 0.929 . S
C913 C907 1.390 . S
C913 C910 1.386 . S
C914 C909 1.490 . S
C914 C916 1.395 . S
C914 C917 1.403 . S
H915 C921 0.930 . S
C916 H902 0.930 . S
C916 C914 1.395 . S
C916 C919 1.403 . S
C917 C914 1.403 . S
C917 C918 1.524 . S
C917 C921 1.400 . S
C918 H903 0.960 . S
C918 H904 0.960 . S
C918 H905 0.960 . S
C918 C917 1.524 . S
C919 C916 1.403 . S
C919 C920 1.392 . S
C919 C923 1.495 . S
C920 C919 1.392 . S
C920 C921 1.385 . S
C920 C922 1.478 . S
C921 H915 0.930 . S
C921 C917 1.400 . S
C921 C920 1.385 . S
C922 C920 1.478 . S
C922 C924 1.381 . S
C922 C928 1.383 . S
C923 C919 1.495 . S
C923 H929 0.959 . S
C923 H930 0.961 . S
C923 H931 0.960 . S
C924 C922 1.381 . S
C924 C925 1.394 . S
C924 H932 0.930 . S
C925 C924 1.394 . S
C925 C926 1.383 . S
C925 H933 0.929 . S
C926 C925 1.383 . S
C926 C927 1.377 . S
C927 H911 0.930 . S
C927 C926 1.377 . S
C927 C928 1.379 . S
C928 H912 0.931 . S
C928 C922 1.383 . S
C928 C927 1.379 . S
H929 C923 0.959 . S
H930 C923 0.961 . S
H931 C923 0.960 . S
H932 C924 0.930 . S
H933 C925 0.929 . S
H934 C942 0.929 . S
H935 C944 0.930 . S
H936 C946 0.930 . S
H937 C949 0.929 . S
H938 C952 0.930 . S
H939 C954 0.960 . S
H940 C954 0.960 . S
H941 C954 0.960 . S
C942 H934 0.929 . S
C942 C943 1.377 . S
C942 C944 1.384 . S
C943 C942 1.377 . S
C943 C949 1.390 . S
C944 H935 0.930 . S
C944 C942 1.384 . S
C944 C945 1.372 . S
C945 C944 1.372 . S
C945 C946 1.400 . S
C945 C950 1.490 . S
C946 H936 0.930 . S
C946 C945 1.400 . S
C946 C949 1.386 . S
H947 C963 0.930 . S
H948 C964 0.931 . S
C949 H937 0.929 . S
C949 C943 1.390 . S
C949 C946 1.386 . S
C950 C945 1.490 . S
C950 C952 1.395 . S
C950 C953 1.403 . S
H951 C957 0.930 . S
C952 H938 0.930 . S
C952 C950 1.395 . S
C952 C955 1.403 . S
C953 C950 1.403 . S
C953 C954 1.524 . S
C953 C957 1.400 . S
C954 H939 0.960 . S
C954 H940 0.960 . S
C954 H941 0.960 . S
C954 C953 1.524 . S
C955 C952 1.403 . S
C955 C956 1.392 . S
C955 C959 1.495 . S
C956 C955 1.392 . S
C956 C957 1.385 . S
C956 C958 1.478 . S
C957 H951 0.930 . S
C957 C953 1.400 . S
C957 C956 1.385 . S
C958 C956 1.478 . S
C958 C960 1.381 . S
C958 C964 1.383 . S
C959 C955 1.495 . S
C959 H965 0.959 . S
C959 H966 0.961 . S
C959 H967 0.960 . S
C960 C958 1.381 . S
C960 C961 1.394 . S
C960 H968 0.930 . S
C961 C960 1.394 . S
C961 C962 1.383 . S
C961 H969 0.929 . S
C962 C961 1.383 . S
C962 C963 1.377 . S
C963 H947 0.930 . S
C963 C962 1.377 . S
C963 C964 1.379 . S
C964 H948 0.931 . S
C964 C958 1.383 . S
C964 C963 1.379 . S
H965 C959 0.959 . S
H966 C959 0.961 . S
H967 C959 0.960 . S
H968 C960 0.930 . S
H969 C961 0.929 . S
H970 C978 0.929 . S
H971 C980 0.930 . S
H972 C982 0.930 . S
H973 C985 0.929 . S
H974 C988 0.930 . S
H975 C990 0.960 . S
H976 C990 0.960 . S
H977 C990 0.960 . S
C978 H970 0.929 . S
C978 C979 1.377 . S
C978 C980 1.384 . S
C979 C978 1.377 . S
C979 C985 1.390 . S
C980 H971 0.930 . S
C980 C978 1.384 . S
C980 C981 1.372 . S
C981 C980 1.372 . S
C981 C982 1.400 . S
C981 C986 1.490 . S
C982 H972 0.930 . S
C982 C981 1.400 . S
C982 C985 1.386 . S
H983 C999 0.930 . S
H984 C1000 0.931 . S
C985 H973 0.929 . S
C985 C979 1.390 . S
C985 C982 1.386 . S
C986 C981 1.490 . S
C986 C988 1.395 . S
C986 C989 1.403 . S
H987 C993 0.930 . S
C988 H974 0.930 . S
C988 C986 1.395 . S
C988 C991 1.403 . S
C989 C986 1.403 . S
C989 C990 1.524 . S
C989 C993 1.400 . S
C990 H975 0.960 . S
C990 H976 0.960 . S
C990 H977 0.960 . S
C990 C989 1.524 . S
C991 C988 1.403 . S
C991 C992 1.392 . S
C991 C995 1.495 . S
C992 C991 1.392 . S
C992 C993 1.385 . S
C992 C994 1.478 . S
C993 H987 0.930 . S
C993 C989 1.400 . S
C993 C992 1.385 . S
C994 C992 1.478 . S
C994 C996 1.381 . S
C994 C1000 1.383 . S
C995 C991 1.495 . S
C995 H1001 0.959 . S
C995 H1002 0.961 . S
C995 H1003 0.960 . S
C996 C994 1.381 . S
C996 C997 1.394 . S
C996 H1004 0.930 . S
C997 C996 1.394 . S
C997 C998 1.383 . S
C997 H1005 0.929 . S
C998 C997 1.383 . S
C998 C999 1.377 . S
C999 H983 0.930 . S
C999 C998 1.377 . S
C999 C1000 1.379 . S
C1000 H984 0.931 . S
C1000 C994 1.383 . S
C1000 C999 1.379 . S
H1001 C995 0.959 . S
H1002 C995 0.961 . S
H1003 C995 0.960 . S
H1004 C996 0.930 . S
H1005 C997 0.929 . S
H1006 C1014 0.929 . S
H1007 C1016 0.930 . S
H1008 C1018 0.930 . S
H1009 C1021 0.929 . S
H1010 C1024 0.930 . S
H1011 C1026 0.960 . S
H1012 C1026 0.960 . S
H1013 C1026 0.960 . S
C1014 H1006 0.929 . S
C1014 C1015 1.377 . S
C1014 C1016 1.384 . S
C1015 C1014 1.377 . S
C1015 C1021 1.390 . S
C1016 H1007 0.930 . S
C1016 C1014 1.384 . S
C1016 C1017 1.372 . S
C1017 C1016 1.372 . S
C1017 C1018 1.400 . S
C1017 C1022 1.490 . S
C1018 H1008 0.930 . S
C1018 C1017 1.400 . S
C1018 C1021 1.386 . S
H1019 C1035 0.930 . S
H1020 C1036 0.931 . S
C1021 H1009 0.929 . S
C1021 C1015 1.390 . S
C1021 C1018 1.386 . S
C1022 C1017 1.490 . S
C1022 C1024 1.395 . S
C1022 C1025 1.403 . S
H1023 C1029 0.930 . S
C1024 H1010 0.930 . S
C1024 C1022 1.395 . S
C1024 C1027 1.403 . S
C1025 C1022 1.403 . S
C1025 C1026 1.524 . S
C1025 C1029 1.400 . S
C1026 H1011 0.960 . S
C1026 H1012 0.960 . S
C1026 H1013 0.960 . S
C1026 C1025 1.524 . S
C1027 C1024 1.403 . S
C1027 C1028 1.392 . S
C1027 C1031 1.495 1_565 S
C1028 C1027 1.392 . S
C1028 C1029 1.385 . S
C1028 C1030 1.478 1_565 S
C1029 H1023 0.930 . S
C1029 C1025 1.400 . S
C1029 C1028 1.385 . S
C1030 C1028 1.478 1_545 S
C1030 C1032 1.381 . S
C1030 C1036 1.383 . S
C1031 C1027 1.495 1_545 S
C1031 H1037 0.957 1_545 S
C1031 H1038 0.961 . S
C1031 H1039 0.960 . S
C1032 C1030 1.381 . S
C1032 C1033 1.394 . S
C1032 H1040 0.930 . S
C1033 C1032 1.394 . S
C1033 C1034 1.383 . S
C1033 H1041 0.929 . S
C1034 C1033 1.383 . S
C1034 C1035 1.377 . S
C1035 H1019 0.930 . S
C1035 C1034 1.377 . S
C1035 C1036 1.379 . S
C1036 H1020 0.931 . S
C1036 C1030 1.383 . S
C1036 C1035 1.379 . S
H1037 C1031 0.957 1_565 S
H1038 C1031 0.961 . S
H1039 C1031 0.960 . S
H1040 C1032 0.930 . S
H1041 C1033 0.929 . S
H1042 C1050 0.929 . S
H1043 C1052 0.930 . S
H1044 C1054 0.930 . S
H1045 C1057 0.929 . S
H1046 C1060 0.930 . S
H1047 C1062 0.960 . S
H1048 C1062 0.960 . S
H1049 C1062 0.960 . S
C1050 H1042 0.929 . S
C1050 C1051 1.377 . S
C1050 C1052 1.384 . S
C1051 C1050 1.377 . S
C1051 C1057 1.390 . S
C1052 H1043 0.930 . S
C1052 C1050 1.384 . S
C1052 C1053 1.372 . S
C1053 C1052 1.372 . S
C1053 C1054 1.400 . S
C1053 C1058 1.490 . S
C1054 H1044 0.930 . S
C1054 C1053 1.400 . S
C1054 C1057 1.386 . S
H1055 C1071 0.930 . S
H1056 C1072 0.931 . S
C1057 H1045 0.929 . S
C1057 C1051 1.390 . S
C1057 C1054 1.386 . S
C1058 C1053 1.490 . S
C1058 C1060 1.395 . S
C1058 C1061 1.403 . S
H1059 C1065 0.930 . S
C1060 H1046 0.930 . S
C1060 C1058 1.395 . S
C1060 C1063 1.403 . S
C1061 C1058 1.403 . S
C1061 C1062 1.524 . S
C1061 C1065 1.400 . S
C1062 H1047 0.960 . S
C1062 H1048 0.960 . S
C1062 H1049 0.960 . S
C1062 C1061 1.524 . S
C1063 C1060 1.403 . S
C1063 C1064 1.392 . S
C1063 C1067 1.495 . S
C1064 C1063 1.392 . S
C1064 C1065 1.385 . S
C1064 C1066 1.478 . S
C1065 H1059 0.930 . S
C1065 C1061 1.400 . S
C1065 C1064 1.385 . S
C1066 C1064 1.478 . S
C1066 C1068 1.381 . S
C1066 C1072 1.383 . S
C1067 C1063 1.495 . S
C1067 H1073 0.959 . S
C1067 H1074 0.961 . S
C1067 H1075 0.960 . S
C1068 C1066 1.381 . S
C1068 C1069 1.394 . S
C1068 H1076 0.930 . S
C1069 C1068 1.394 . S
C1069 C1070 1.383 . S
C1069 H1077 0.929 . S
C1070 C1069 1.383 . S
C1070 C1071 1.377 . S
C1071 H1055 0.930 . S
C1071 C1070 1.377 . S
C1071 C1072 1.379 . S
C1072 H1056 0.931 . S
C1072 C1066 1.383 . S
C1072 C1071 1.379 . S
H1073 C1067 0.959 . S
H1074 C1067 0.961 . S
H1075 C1067 0.960 . S
H1076 C1068 0.930 . S
H1077 C1069 0.929 . S
C242 C105 1.803 . S
C223 C5 1.805 . S
C278 C118 1.371 . S
C259 C16 1.302 . S
C314 C100 1.664 . S
C295 C30 1.768 . S
C350 C128 1.661 . S
C331 C40 1.700 . S
C386 C139 1.416 . S
C367 C8 1.480 . S
C422 C160 1.330 . S
C403 C18 1.364 . S
C439 C29 1.726 . S
C458 C189 1.643 . S
C494 C210 1.705 . S
C475 C38 1.534 . S
C530 C149 1.343 . S
C511 C19 1.374 . S
C547 C27 1.417 . S
C566 C170 1.460 . S
C602 C184 1.496 . S
C583 C41 1.621 . S
C638 C205 1.840 . S
C619 C7 1.851 . S
C655 C52 1.660 . S
C674 C126 1.553 . S
C710 C97 1.892 . S
C691 C62 1.945 . S
C727 C74 1.611 . S
C746 C121 1.456 . S
C763 C82 1.297 . S
C782 C107 1.509 . S
C818 C191 1.773 . S
C799 C51 1.767 . S
C854 C212 1.942 . S
C835 C60 1.752 . S
C890 C142 1.367 . S
C871 C71 1.311 . S
C907 C84 1.494 . S
C926 C163 1.415 . S
C962 C181 1.714 . S
C943 C63 1.772 . S
C998 C202 1.636 . S
C979 C73 1.653 . S
C1034 C147 1.487 . S
C1015 C85 1.539 . S
C1051 C49 1.355 . S
C1070 C168 1.450 . S
