# Generated by pormake.
# Topology dag, (6,3)-cn, num edge types: 1
# Building blocks:
#     Node 0, Type 0, BuildingBlock: OJICUG_clean_sbu_0, # of connection points: 6
#     Node 1, Type 0, BuildingBlock: OJICUG_clean_sbu_0, # of connection points: 6
#     Node 2, Type 0, BuildingBlock: OJICUG_clean_sbu_0, # of connection points: 6
#     Node 3, Type 0, BuildingBlock: OJICUG_clean_sbu_0, # of connection points: 6
#     Node 4, Type 1, BuildingBlock: QEWDON_clean_linker_0, # of connection points: 3
#     Node 5, Type 1, BuildingBlock: QEWDON_clean_linker_0, # of connection points: 3
#     Node 6, Type 1, BuildingBlock: QEWDON_clean_linker_0, # of connection points: 3
#     Node 7, Type 1, BuildingBlock: QEWDON_clean_linker_0, # of connection points: 3
#     Node 8, Type 1, BuildingBlock: QEWDON_clean_linker_0, # of connection points: 3
#     Node 9, Type 1, BuildingBlock: QEWDON_clean_linker_0, # of connection points: 3
#     Node 10, Type 1, BuildingBlock: QEWDON_clean_linker_0, # of connection points: 3
#     Node 11, Type 1, BuildingBlock: QEWDON_clean_linker_0, # of connection points: 3
#     Edge 12, Type (0, 1), BuildingBlock: UVAHIK_clean_linker_0, # of connection points: 2
#     Edge 13, Type (0, 1), BuildingBlock: UVAHIK_clean_linker_0, # of connection points: 2
#     Edge 14, Type (0, 1), BuildingBlock: UVAHIK_clean_linker_0, # of connection points: 2
#     Edge 15, Type (0, 1), BuildingBlock: UVAHIK_clean_linker_0, # of connection points: 2
#     Edge 16, Type (0, 1), BuildingBlock: UVAHIK_clean_linker_0, # of connection points: 2
#     Edge 17, Type (0, 1), BuildingBlock: UVAHIK_clean_linker_0, # of connection points: 2
#     Edge 18, Type (0, 1), BuildingBlock: UVAHIK_clean_linker_0, # of connection points: 2
#     Edge 19, Type (0, 1), BuildingBlock: UVAHIK_clean_linker_0, # of connection points: 2
#     Edge 20, Type (0, 1), BuildingBlock: UVAHIK_clean_linker_0, # of connection points: 2
#     Edge 21, Type (0, 1), BuildingBlock: UVAHIK_clean_linker_0, # of connection points: 2
#     Edge 22, Type (0, 1), BuildingBlock: UVAHIK_clean_linker_0, # of connection points: 2
#     Edge 23, Type (0, 1), BuildingBlock: UVAHIK_clean_linker_0, # of connection points: 2
#     Edge 24, Type (0, 1), BuildingBlock: UVAHIK_clean_linker_0, # of connection points: 2
#     Edge 25, Type (0, 1), BuildingBlock: UVAHIK_clean_linker_0, # of connection points: 2
#     Edge 26, Type (0, 1), BuildingBlock: UVAHIK_clean_linker_0, # of connection points: 2
#     Edge 27, Type (0, 1), BuildingBlock: UVAHIK_clean_linker_0, # of connection points: 2
#     Edge 28, Type (0, 1), BuildingBlock: UVAHIK_clean_linker_0, # of connection points: 2
#     Edge 29, Type (0, 1), BuildingBlock: UVAHIK_clean_linker_0, # of connection points: 2
#     Edge 30, Type (0, 1), BuildingBlock: UVAHIK_clean_linker_0, # of connection points: 2
#     Edge 31, Type (0, 1), BuildingBlock: UVAHIK_clean_linker_0, # of connection points: 2
#     Edge 32, Type (0, 1), BuildingBlock: UVAHIK_clean_linker_0, # of connection points: 2
#     Edge 33, Type (0, 1), BuildingBlock: UVAHIK_clean_linker_0, # of connection points: 2
#     Edge 34, Type (0, 1), BuildingBlock: UVAHIK_clean_linker_0, # of connection points: 2
#     Edge 35, Type (0, 1), BuildingBlock: UVAHIK_clean_linker_0, # of connection points: 2
# Relax obj value: 0.045
# Max RMSD: 0.066
# Mean RMSD: 0.060
data_MOF--net-dag--node1-OJICUG_clean_sbu_0--node2-QEWDON_clean_linker_0--edge1-UVAHIK_clean_linker_0
_symmetry_space_group_name_H-M    P1
_symmetry_Int_Tables_number       1
_symmetry_cell_setting            triclinic
loop_
_symmetry_equiv_pos_as_xyz
'x, y, z'
_cell_length_a     50.887046
_cell_length_b     50.841668
_cell_length_c     53.331352
_cell_angle_alpha  89.959881
_cell_angle_beta   90.054006
_cell_angle_gamma 90.075865
loop_
_atom_site_label
_atom_site_type_symbol
_atom_site_fract_x
_atom_site_fract_y
_atom_site_fract_z
_atom_type_partial_charge
Sc0 Sc 0.12783 0.87763 0.9974 0.0
Sc1 Sc 0.14238 0.8102 0.00168 0.0
Sc2 Sc 0.19371 0.85732 0.00088 0.0
O3 O 0.15467 0.84835 -0.0001 0.0
C4 C 0.17317 0.89836 0.96061 0.0
C5 C 0.10308 0.8348 0.96104 0.0
C6 C 0.19243 0.80585 0.9662 0.0
C7 C 0.09978 0.83823 0.03593 0.0
C8 C 0.16913 0.90203 0.03575 0.0
C9 C 0.18962 0.81137 0.04132 0.0
O10 O 0.14996 0.89855 0.96938 0.0
O11 O 0.11334 0.81531 0.97238 0.0
O12 O 0.20356 0.82628 0.97504 0.0
O13 O 0.10221 0.86028 0.02492 0.0
O14 O 0.18855 0.8893 0.02702 0.0
O15 O 0.16952 0.80065 0.03145 0.0
O16 O 0.14579 0.89927 0.02762 0.0
O17 O 0.11365 0.81832 0.03033 0.0
O18 O 0.20011 0.83218 0.03269 0.0
O19 O 0.10738 0.85856 0.9672 0.0
O20 O 0.19133 0.88392 0.96944 0.0
O21 O 0.1699 0.79803 0.97333 0.0
Sc22 Sc 0.6931 0.63526 0.49857 0.0
Sc23 Sc 0.64176 0.6825 0.49785 0.0
Sc24 Sc 0.62718 0.61496 0.4992 0.0
O25 O 0.65405 0.64433 0.49864 0.0
C26 C 0.66923 0.59212 0.46134 0.0
C27 C 0.68902 0.68183 0.45837 0.0
C28 C 0.59863 0.65581 0.46281 0.0
C29 C 0.69211 0.68647 0.5334 0.0
C30 C 0.67138 0.59274 0.53665 0.0
C31 C 0.60278 0.65609 0.53777 0.0
O32 O 0.68864 0.60387 0.47138 0.0
O33 O 0.66831 0.692 0.46759 0.0
O34 O 0.60191 0.6331 0.4721 0.0
O35 O 0.70274 0.66543 0.52551 0.0
O36 O 0.64873 0.59267 0.52659 0.0
O37 O 0.61385 0.67622 0.52811 0.0
O38 O 0.6897 0.608 0.52947 0.0
O39 O 0.67013 0.69475 0.52535 0.0
O40 O 0.60623 0.63288 0.52952 0.0
O41 O 0.70002 0.66148 0.46751 0.0
O42 O 0.64566 0.59506 0.46854 0.0
O43 O 0.6119 0.67565 0.46982 0.0
Sc44 Sc 0.85135 0.18016 0.99234 0.0
Sc45 Sc 0.8002 0.13297 0.9972 0.0
Sc46 Sc 0.8656 0.11258 0.98974 0.0
O47 O 0.83904 0.14196 0.99318 0.0
C48 C 0.88867 0.15427 0.95102 0.0
C49 C 0.79996 0.1801 0.95757 0.0
C50 C 0.81831 0.08905 0.9581 0.0
C51 C 0.80535 0.18347 0.03266 0.0
C52 C 0.89576 0.15321 0.02558 0.0
C53 C 0.82707 0.09072 0.03273 0.0
O54 O 0.87814 0.17405 0.96152 0.0
O55 O 0.78993 0.15948 0.96723 0.0
O56 O 0.84264 0.09182 0.96249 0.0
O57 O 0.82656 0.19178 0.02299 0.0
O58 O 0.89183 0.13051 0.01628 0.0
O59 O 0.80776 0.10558 0.0273 0.0
O60 O 0.88238 0.17332 0.0193 0.0
O61 O 0.79371 0.16287 0.02503 0.0
O62 O 0.84846 0.09077 0.02035 0.0
O63 O 0.82152 0.19017 0.96511 0.0
O64 O 0.88545 0.1309 0.9588 0.0
O65 O 0.80063 0.10153 0.9699 0.0
Sc66 Sc 0.36418 0.38122 0.49406 0.0
Sc67 Sc 0.29881 0.35935 0.49807 0.0
Sc68 Sc 0.35134 0.31365 0.49948 0.0
O69 O 0.33805 0.35135 0.49714 0.0
C70 C 0.3916 0.33705 0.46012 0.0
C71 C 0.31987 0.39879 0.45561 0.0
C72 C 0.30061 0.30745 0.46443 0.0
C73 C 0.321 0.40709 0.53005 0.0
C74 C 0.39208 0.34485 0.53437 0.0
C75 C 0.30458 0.31408 0.53935 0.0
O76 O 0.38891 0.36029 0.46841 0.0
O77 O 0.30141 0.38709 0.4673 0.0
O78 O 0.32229 0.29926 0.47339 0.0
O79 O 0.34327 0.40629 0.5194 0.0
O80 O 0.38198 0.32373 0.52589 0.0
O81 O 0.29202 0.33277 0.52896 0.0
O82 O 0.3866 0.36747 0.52565 0.0
O83 O 0.30287 0.3906 0.52533 0.0
O84 O 0.32637 0.30547 0.53109 0.0
O85 O 0.34383 0.39749 0.46232 0.0
O86 O 0.3782 0.31778 0.46835 0.0
O87 O 0.2901 0.32901 0.47114 0.0
H88 H 0.15125 0.09507 0.25031 0.0
C89 C 0.1383 0.10443 0.23685 0.0
C90 C 0.14034 0.09815 0.21135 0.0
C91 C 0.11879 0.12197 0.24505 0.0
H92 H 0.12476 0.10452 0.17444 0.0
C93 C 0.12311 0.10971 0.1941 0.0
C94 C 0.1028 0.12636 0.20209 0.0
C95 C 0.10097 0.13268 0.22765 0.0
C96 C 0.11612 0.12826 0.27195 0.0
H97 H 0.08529 0.14534 0.23418 0.0
C98 C 0.13724 0.13942 0.28518 0.0
C99 C 0.13433 0.14687 0.31046 0.0
C100 C 0.09214 0.12394 0.28426 0.0
H101 H 0.07564 0.11532 0.27437 0.0
C102 C 0.08931 0.13066 0.30947 0.0
H103 H 0.15573 0.14275 0.2756 0.0
C104 C 0.11016 0.14215 0.32249 0.0
H105 H 0.10711 0.14798 0.3418 0.0
H106 H 0.07075 0.1273 0.31885 0.0
H107 H 0.40507 0.64567 0.74648 0.0
C108 C 0.39125 0.63412 0.73559 0.0
C109 C 0.39365 0.63278 0.70937 0.0
C110 C 0.37131 0.62029 0.74806 0.0
H111 H 0.37745 0.61546 0.67573 0.0
C112 C 0.37525 0.61776 0.69582 0.0
C113 C 0.3552 0.60382 0.70814 0.0
C114 C 0.35329 0.60518 0.73434 0.0
C115 C 0.37049 0.62051 0.77562 0.0
H116 H 0.33825 0.59401 0.74407 0.0
C117 C 0.3516 0.63552 0.78828 0.0
C118 C 0.35236 0.63758 0.81456 0.0
C119 C 0.38973 0.60693 0.78929 0.0
H120 H 0.40451 0.59537 0.77971 0.0
C121 C 0.39013 0.60837 0.81542 0.0
H122 H 0.33711 0.64647 0.77763 0.0
C123 C 0.37169 0.62376 0.82802 0.0
H124 H 0.37255 0.62494 0.84829 0.0
H125 H 0.405 0.59784 0.82591 0.0
H126 H 0.85604 0.79369 0.18319 0.0
C127 C 0.84944 0.81396 0.18344 0.0
C128 C 0.86757 0.8344 0.17987 0.0
C129 C 0.8227 0.81952 0.18689 0.0
H130 H 0.87244 0.87627 0.17581 0.0
C131 C 0.85869 0.86051 0.17985 0.0
C132 C 0.83184 0.86628 0.18244 0.0
C133 C 0.8139 0.84565 0.18628 0.0
C134 C 0.80389 0.79771 0.18954 0.0
H135 H 0.79308 0.84983 0.18795 0.0
C136 C 0.79323 0.79161 0.21308 0.0
C137 C 0.77707 0.76937 0.21604 0.0
C138 C 0.79783 0.78195 0.16875 0.0
H139 H 0.80606 0.78639 0.1505 0.0
C140 C 0.78127 0.76024 0.17146 0.0
H141 H 0.79846 0.80348 0.22922 0.0
C142 C 0.77106 0.75383 0.19498 0.0
H143 H 0.7585 0.73671 0.19675 0.0
H144 H 0.77661 0.74814 0.15537 0.0
H145 H 0.70248 0.34657 0.68585 0.0
C146 C 0.68133 0.3449 0.68391 0.0
C147 C 0.66617 0.36742 0.67939 0.0
C148 C 0.66923 0.32014 0.68513 0.0
H149 H 0.6276 0.38234 0.67132 0.0
C150 C 0.63891 0.36499 0.67611 0.0
C151 C 0.6266 0.34024 0.67685 0.0
C152 C 0.642 0.31788 0.68166 0.0
C153 C 0.68504 0.29623 0.68871 0.0
H154 H 0.63293 0.29859 0.68245 0.0
C155 C 0.69503 0.28995 0.71248 0.0
C156 C 0.70812 0.26595 0.7164 0.0
C157 C 0.68872 0.27881 0.66865 0.0
H158 H 0.68095 0.28339 0.65023 0.0
C159 C 0.70228 0.25528 0.6723 0.0
H160 H 0.69159 0.30318 0.72807 0.0
C161 C 0.7118 0.24876 0.69607 0.0
H162 H 0.72201 0.23025 0.69858 0.0
H163 H 0.70512 0.24191 0.65676 0.0
H164 H 0.65079 0.39542 0.25066 0.0
C165 C 0.6377 0.38369 0.26218 0.0
C166 C 0.63675 0.3878 0.2882 0.0
C167 C 0.62103 0.36516 0.25088 0.0
H168 H 0.61791 0.37654 0.32276 0.0
C169 C 0.61947 0.37265 0.30282 0.0
C170 C 0.60252 0.35423 0.29167 0.0
C171 C 0.6034 0.35063 0.26562 0.0
C172 C 0.6212 0.36151 0.2235 0.0
H173 H 0.59034 0.33657 0.25674 0.0
C174 C 0.64322 0.35055 0.21168 0.0
C175 C 0.64274 0.34505 0.18581 0.0
C176 C 0.59884 0.36775 0.20933 0.0
H177 H 0.58166 0.37613 0.21825 0.0
C178 C 0.59851 0.36312 0.18356 0.0
H179 H 0.66041 0.34578 0.22279 0.0
C180 C 0.6202 0.35171 0.17185 0.0
H181 H 0.61898 0.34739 0.152 0.0
H182 H 0.58118 0.36793 0.1727 0.0
H183 H 0.19967 0.14562 0.81367 0.0
C184 C 0.17869 0.14917 0.81462 0.0
C185 C 0.16134 0.12845 0.82013 0.0
C186 C 0.16921 0.17474 0.8108 0.0
H187 H 0.12078 0.11835 0.82693 0.0
C188 C 0.13426 0.13379 0.82135 0.0
C189 C 0.12447 0.15928 0.8173 0.0
C190 C 0.14216 0.17976 0.81202 0.0
C191 C 0.18793 0.19649 0.80745 0.0
H192 H 0.13502 0.19965 0.80935 0.0
C193 C 0.19492 0.20499 0.78334 0.0
C194 C 0.21421 0.22455 0.78024 0.0
C195 C 0.19983 0.20791 0.82852 0.0
H196 H 0.19465 0.20143 0.84724 0.0
C197 C 0.2187 0.2276 0.82554 0.0
H198 H 0.18597 0.19583 0.76708 0.0
C199 C 0.22601 0.2358 0.80155 0.0
H200 H 0.2408 0.25101 0.79961 0.0
H201 H 0.22786 0.23636 0.84185 0.0
H202 H 0.34987 0.70232 0.32332 0.0
C203 C 0.34321 0.68207 0.32228 0.0
C204 C 0.36102 0.66155 0.32634 0.0
C205 C 0.31682 0.6766 0.31686 0.0
H206 H 0.3657 0.61987 0.33039 0.0
C207 C 0.35209 0.63547 0.32562 0.0
C208 C 0.32549 0.6296 0.32086 0.0
C209 C 0.30806 0.65044 0.31584 0.0
C210 C 0.29826 0.69849 0.31352 0.0
H211 H 0.28753 0.64648 0.31196 0.0
C212 C 0.28793 0.70416 0.28974 0.0
C213 C 0.27204 0.72645 0.28616 0.0
C214 C 0.29207 0.71473 0.33393 0.0
H215 H 0.30001 0.71062 0.35238 0.0
C216 C 0.27571 0.73645 0.3306 0.0
H217 H 0.29328 0.69194 0.27389 0.0
C218 C 0.26586 0.74244 0.30684 0.0
H219 H 0.25349 0.7596 0.30458 0.0
H220 H 0.27094 0.7489 0.34641 0.0
H221 H 0.90701 0.84763 0.75388 0.0
C222 C 0.89198 0.85805 0.76429 0.0
C223 C 0.89285 0.8586 0.79059 0.0
C224 C 0.87204 0.87137 0.75138 0.0
H225 H 0.87502 0.87416 0.82408 0.0
C226 C 0.87361 0.87265 0.80384 0.0
C227 C 0.85417 0.88689 0.791 0.0
C228 C 0.85326 0.88583 0.76472 0.0
C229 C 0.87177 0.87178 0.72383 0.0
H230 H 0.83849 0.89696 0.75459 0.0
C231 C 0.85498 0.85492 0.71053 0.0
C232 C 0.85377 0.85617 0.68424 0.0
C233 C 0.88763 0.88974 0.71081 0.0
H234 H 0.90064 0.9029 0.7209 0.0
C235 C 0.88648 0.89105 0.68468 0.0
H236 H 0.84261 0.84117 0.72067 0.0
C237 C 0.86954 0.87447 0.67142 0.0
H238 H 0.86897 0.87572 0.65114 0.0
H239 H 0.89867 0.90501 0.67468 0.0
C240 C 0.15408 0.9246 0.07474 0.0
C241 C 0.17376 0.92042 0.05673 0.0
C242 C 0.15838 0.94181 0.09472 0.0
C243 C 0.18848 0.00195 0.1105 0.0
H244 H 0.1807 0.98108 0.18005 0.0
C245 C 0.17711 0.08139 0.18501 0.0
C246 C 0.15716 0.0765 0.20251 0.0
C247 C 0.18765 0.06073 0.17095 0.0
C248 C 0.18277 0.98735 0.16076 0.0
H249 H 0.21332 0.93096 0.04541 0.0
H250 H 0.22032 0.96216 0.07993 0.0
H251 H 0.18117 0.94761 0.14722 0.0
H252 H 0.13344 0.04649 0.22016 0.0
H253 H 0.15075 0.01066 0.19515 0.0
H254 H 0.18773 0.0416 0.12325 0.0
C255 C 0.20188 0.95157 0.07874 0.0
C256 C 0.18325 0.96812 0.14203 0.0
C257 C 0.19784 0.9338 0.05907 0.0
C258 C 0.14918 0.05056 0.20704 0.0
C259 C 0.15922 0.03 0.1926 0.0
C260 C 0.18735 0.02123 0.12911 0.0
C261 C 0.18219 0.9556 0.09673 0.0
C262 C 0.18554 0.97535 0.11675 0.0
C263 C 0.17776 0.03496 0.17354 0.0
C264 C 0.18376 0.01428 0.15449 0.0
H265 H 0.13542 0.91439 0.07351 0.0
H266 H 0.14285 0.94487 0.1083 0.0
H267 H 0.19006 0.00792 0.09105 0.0
H268 H 0.18338 0.10136 0.18116 0.0
H269 H 0.20248 0.06529 0.15706 0.0
C270 C 0.57405 0.63708 0.57115 0.0
C271 C 0.58459 0.65942 0.55927 0.0
C272 C 0.55604 0.63961 0.59062 0.0
C273 C 0.5068 0.68442 0.61672 0.0
H274 H 0.50745 0.63299 0.67041 0.0
C275 C 0.41406 0.65487 0.67181 0.0
C276 C 0.41658 0.64484 0.69629 0.0
C277 C 0.43624 0.66256 0.65819 0.0
C278 C 0.5071 0.64793 0.65594 0.0
H279 H 0.58463 0.70211 0.55899 0.0
H280 H 0.55303 0.70652 0.59337 0.0
H281 H 0.5442 0.63534 0.64169 0.0
H282 H 0.44454 0.63674 0.72611 0.0
H283 H 0.48281 0.65139 0.70293 0.0
H284 H 0.4696 0.69703 0.6311 0.0
C285 C 0.55872 0.68702 0.58731 0.0
C286 C 0.52809 0.649 0.6392 0.0
C287 C 0.5769 0.68448 0.56771 0.0
C288 C 0.44167 0.64446 0.70739 0.0
C289 C 0.46378 0.65251 0.69391 0.0
C290 C 0.4858 0.68349 0.63365 0.0
C291 C 0.54804 0.66456 0.59891 0.0
C292 C 0.5278 0.66661 0.61889 0.0
C293 C 0.46148 0.66074 0.66882 0.0
C294 C 0.48533 0.6647 0.65305 0.0
H295 H 0.57944 0.61743 0.56524 0.0
H296 H 0.54785 0.62188 0.59875 0.0
H297 H 0.50595 0.69821 0.60126 0.0
H298 H 0.395 0.65602 0.66282 0.0
H299 H 0.43361 0.66865 0.63889 0.0
C300 C 0.80206 0.07178 0.06933 0.0
C301 C 0.8246 0.07211 0.05405 0.0
C302 C 0.7997 0.05354 0.0889 0.0
C303 C 0.83911 0.00678 0.12737 0.0
H304 H 0.77312 0.96946 0.13479 0.0
C305 C 0.8044 0.89785 0.15809 0.0
C306 C 0.8227 0.89338 0.17731 0.0
C307 C 0.80032 0.92325 0.14887 0.0
C308 C 0.7917 0.97969 0.133 0.0
H309 H 0.86242 0.05353 0.04766 0.0
H310 H 0.85807 0.02167 0.08113 0.0
H311 H 0.77577 0.00704 0.10651 0.0
H312 H 0.8492 0.912 0.20365 0.0
H313 H 0.84131 0.95658 0.18833 0.0
H314 H 0.85564 0.97851 0.15227 0.0
C315 C 0.84241 0.0358 0.07845 0.0
C316 C 0.79313 0.00147 0.11698 0.0
C317 C 0.84481 0.05401 0.05903 0.0
C318 C 0.83514 0.91497 0.18864 0.0
C319 C 0.83077 0.94044 0.17969 0.0
C320 C 0.83776 0.98492 0.14314 0.0
C321 C 0.81982 0.03524 0.09361 0.0
C322 C 0.8171 0.01474 0.11337 0.0
C323 C 0.81426 0.94476 0.15889 0.0
C324 C 0.81423 0.97058 0.14562 0.0
H325 H 0.78615 0.08551 0.06612 0.0
H326 H 0.78214 0.05378 0.10034 0.0
H327 H 0.85775 0.01691 0.12548 0.0
H328 H 0.79475 0.88149 0.14885 0.0
H329 H 0.78766 0.92562 0.1327 0.0
C330 C 0.42582 0.31966 0.5587 0.0
C331 C 0.4117 0.34302 0.55478 0.0
C332 C 0.44575 0.31856 0.57672 0.0
C333 C 0.49054 0.36267 0.61185 0.0
H334 H 0.50957 0.29795 0.64582 0.0
C335 C 0.58018 0.35728 0.67719 0.0
C336 C 0.5983 0.33774 0.67017 0.0
C337 C 0.55453 0.35693 0.66781 0.0
C338 C 0.50436 0.31617 0.63652 0.0
H339 H 0.40635 0.38311 0.56763 0.0
H340 H 0.44039 0.38095 0.59966 0.0
H341 H 0.46936 0.29966 0.6208 0.0
H342 H 0.60306 0.30177 0.64869 0.0
H343 H 0.55817 0.30087 0.63297 0.0
H344 H 0.52559 0.3791 0.62757 0.0
C345 C 0.43679 0.36371 0.58825 0.0
C346 C 0.48145 0.31715 0.62206 0.0
C347 C 0.41717 0.36493 0.56996 0.0
C348 C 0.58963 0.31696 0.65481 0.0
C349 C 0.56389 0.31645 0.64571 0.0
C350 C 0.5132 0.36179 0.62658 0.0
C351 C 0.45175 0.34069 0.59151 0.0
C352 C 0.47454 0.34026 0.60907 0.0
C353 C 0.54635 0.33683 0.65153 0.0
C354 C 0.52061 0.3384 0.63864 0.0
H355 H 0.42214 0.30246 0.54723 0.0
H356 H 0.45705 0.30062 0.57835 0.0
H357 H 0.48625 0.38068 0.60182 0.0
H358 H 0.58601 0.37327 0.6894 0.0
H359 H 0.54126 0.37272 0.67281 0.0
C360 C 0.65994 0.57935 0.41744 0.0
C361 C 0.6738 0.57488 0.43972 0.0
C362 C 0.66194 0.56175 0.3975 0.0
C363 C 0.69755 0.50153 0.37488 0.0
H364 H 0.63189 0.49069 0.33937 0.0
C365 C 0.66416 0.40665 0.32292 0.0
C366 C 0.65097 0.41004 0.29998 0.0
C367 C 0.67286 0.42847 0.33656 0.0
C368 C 0.6505 0.49376 0.34883 0.0
H369 H 0.70112 0.54918 0.45877 0.0
H370 H 0.70349 0.5173 0.42453 0.0
H371 H 0.63508 0.52549 0.37015 0.0
H372 H 0.63789 0.43872 0.27261 0.0
H373 H 0.65278 0.47686 0.29663 0.0
H374 H 0.71206 0.46817 0.35439 0.0
C375 C 0.6918 0.53485 0.42188 0.0
C376 C 0.65245 0.51387 0.36646 0.0
C377 C 0.69037 0.55297 0.4416 0.0
C378 C 0.64817 0.43552 0.29014 0.0
C379 C 0.65653 0.45733 0.30393 0.0
C380 C 0.69538 0.48097 0.3575 0.0
C381 C 0.67712 0.53871 0.39973 0.0
C382 C 0.67595 0.51806 0.37986 0.0
C383 C 0.66814 0.45402 0.32763 0.0
C384 C 0.67178 0.47691 0.3444 0.0
H385 H 0.64729 0.59638 0.41556 0.0
H386 H 0.65107 0.566 0.38052 0.0
H387 H 0.71609 0.5043 0.38448 0.0
H388 H 0.66662 0.38718 0.33085 0.0
H389 H 0.68163 0.42542 0.35485 0.0
C390 C 0.92123 0.182 0.92773 0.0
C391 C 0.90673 0.15856 0.92973 0.0
C392 C 0.94092 0.18453 0.9096 0.0
C393 C 0.98461 0.14207 0.87197 0.0
H394 H 0.00803 0.20852 0.84401 0.0
C395 C 0.07724 0.14642 0.81217 0.0
C396 C 0.09603 0.16443 0.82106 0.0
C397 C 0.05105 0.14828 0.81969 0.0
C398 C 0.0016 0.18983 0.85162 0.0
H399 H 0.8999 0.12029 0.91308 0.0
H400 H 0.93336 0.12508 0.88082 0.0
H401 H 0.96686 0.2066 0.86764 0.0
H402 H 0.10171 0.19967 0.84331 0.0
H403 H 0.05586 0.20301 0.85635 0.0
H404 H 0.01936 0.12537 0.85628 0.0
C405 C 0.9304 0.14113 0.89385 0.0
C406 C 0.97811 0.18871 0.86525 0.0
C407 C 0.91109 0.13841 0.91224 0.0
C408 C 0.08768 0.18558 0.83602 0.0
C409 C 0.06141 0.18749 0.8435 0.0
C410 C 0.00782 0.14315 0.85815 0.0
C411 C 0.94622 0.16384 0.89283 0.0
C412 C 0.96956 0.16488 0.876 0.0
C413 C 0.04307 0.16826 0.83619 0.0
C414 C 0.01682 0.16708 0.84819 0.0
H415 H 0.91833 0.19784 0.94101 0.0
H416 H 0.9528 0.20221 0.90963 0.0
H417 H 0.97914 0.12348 0.88038 0.0
H418 H 0.08302 0.1302 0.80023 0.0
H419 H 0.03723 0.13345 0.81342 0.0
C420 C 0.2878 0.42667 0.43173 0.0
C421 C 0.31319 0.4161 0.4342 0.0
C422 C 0.28257 0.44586 0.4136 0.0
C423 C 0.30766 0.47794 0.35614 0.0
H424 H 0.28134 0.54193 0.38645 0.0
C425 C 0.33191 0.58062 0.31796 0.0
C426 C 0.31581 0.60213 0.32414 0.0
C427 C 0.32548 0.55525 0.32596 0.0
C428 C 0.288 0.52417 0.37727 0.0
H429 H 0.35248 0.41598 0.41841 0.0
H430 H 0.34324 0.44923 0.38668 0.0
H431 H 0.28099 0.50136 0.4103 0.0
H432 H 0.27885 0.61317 0.3415 0.0
H433 H 0.26691 0.56887 0.35405 0.0
H434 H 0.31507 0.50082 0.3232 0.0
C435 C 0.32743 0.44278 0.39881 0.0
C436 C 0.28788 0.50086 0.39109 0.0
C437 C 0.33277 0.4239 0.41714 0.0
C438 C 0.29181 0.5972 0.33636 0.0
C439 C 0.28514 0.57174 0.34397 0.0
C440 C 0.30743 0.50122 0.34213 0.0
C441 C 0.30251 0.45451 0.39734 0.0
C442 C 0.29846 0.47772 0.38096 0.0
C443 C 0.3025 0.55063 0.33996 0.0
C444 C 0.29842 0.52488 0.35282 0.0
H445 H 0.27228 0.42106 0.44456 0.0
H446 H 0.26314 0.45451 0.41277 0.0
H447 H 0.31569 0.46027 0.34782 0.0
H448 H 0.3502 0.58354 0.30797 0.0
H449 H 0.33944 0.53965 0.32246 0.0
C450 C 0.08199 0.84807 0.92071 0.0
C451 C 0.08443 0.82982 0.94036 0.0
C452 C 0.06287 0.84465 0.9022 0.0
C453 C 0.99741 0.8218 0.8944 0.0
H454 H 0.01093 0.82481 0.82293 0.0
C455 C 0.91158 0.83036 0.82467 0.0
C456 C 0.91547 0.84732 0.80425 0.0
C457 C 0.93289 0.82224 0.83932 0.0
C458 C 0.00673 0.82421 0.84281 0.0
H459 H 0.06914 0.79348 0.9559 0.0
H460 H 0.03489 0.78807 0.92387 0.0
H461 H 0.04769 0.8223 0.85228 0.0
H462 H 0.94447 0.86885 0.78281 0.0
H463 H 0.98144 0.85583 0.80883 0.0
H464 H 0.95676 0.82573 0.88547 0.0
C465 C 0.04817 0.80469 0.92266 0.0
C466 C 0.02782 0.82252 0.85955 0.0
C467 C 0.06776 0.80776 0.94086 0.0
C468 C 0.94105 0.85546 0.79828 0.0
C469 C 0.96227 0.84782 0.8132 0.0
C470 C 0.97634 0.82408 0.87774 0.0
C471 C 0.04547 0.82325 0.90333 0.0
C472 C 0.02331 0.82171 0.88547 0.0
C473 C 0.95847 0.83145 0.83422 0.0
C474 C 0.9807 0.82583 0.8517 0.0
H475 H 0.09466 0.8652 0.91983 0.0
H476 H 0.06098 0.85932 0.88756 0.0
H477 H 0.99352 0.82149 0.91437 0.0
H478 H 0.89198 0.82375 0.82952 0.0
H479 H 0.92917 0.80914 0.85493 0.0
C480 C 0.82546 0.06799 0.91663 0.0
C481 C 0.81057 0.06998 0.93868 0.0
C482 C 0.82006 0.04829 0.89919 0.0
C483 C 0.8043 0.98183 0.89617 0.0
H484 H 0.79183 0.9926 0.82519 0.0
C485 C 0.82423 0.89812 0.82679 0.0
C486 C 0.83749 0.90572 0.80489 0.0
C487 C 0.81186 0.91695 0.84182 0.0
C488 C 0.79547 0.98919 0.84492 0.0
H489 H 0.77811 0.05345 0.95972 0.0
H490 H 0.76945 0.01789 0.9295 0.0
H491 H 0.78735 0.02944 0.85423 0.0
H492 H 0.84762 0.9387 0.78106 0.0
H493 H 0.82724 0.97155 0.80749 0.0
H494 H 0.81495 0.94247 0.88703 0.0
C495 C 0.78478 0.0321 0.92556 0.0
C496 C 0.79258 0.01024 0.86152 0.0
C497 C 0.78971 0.05236 0.94273 0.0
C498 C 0.83722 0.93226 0.79769 0.0
C499 C 0.82533 0.95111 0.81289 0.0
C500 C 0.80781 0.96092 0.87955 0.0
C501 C 0.80012 0.02984 0.90381 0.0
C502 C 0.79767 0.00685 0.88714 0.0
C503 C 0.81305 0.94386 0.83553 0.0
C504 C 0.80433 0.96453 0.85355 0.0
H505 H 0.84161 0.08141 0.9131 0.0
H506 H 0.8323 0.04668 0.88264 0.0
H507 H 0.8086 0.97891 0.91588 0.0
H508 H 0.82405 0.8777 0.83262 0.0
H509 H 0.8021 0.91046 0.85875 0.0
C510 C 0.42892 0.35333 0.434 0.0
C511 C 0.41239 0.33243 0.44116 0.0
C512 C 0.44993 0.3491 0.41784 0.0
C513 C 0.50252 0.33066 0.39909 0.0
H514 H 0.49458 0.29859 0.33358 0.0
C515 C 0.58862 0.33083 0.33087 0.0
C516 C 0.58226 0.34088 0.30709 0.0
C517 C 0.56885 0.32211 0.34702 0.0
C518 C 0.49712 0.30741 0.35191 0.0
H519 H 0.40458 0.29079 0.43604 0.0
H520 H 0.44148 0.28354 0.40725 0.0
H521 H 0.4573 0.29911 0.3627 0.0
H522 H 0.5504 0.34828 0.28102 0.0
H523 H 0.51589 0.3334 0.30926 0.0
H524 H 0.54169 0.34019 0.38821 0.0
C525 C 0.43802 0.30312 0.41452 0.0
C526 C 0.47587 0.30753 0.36858 0.0
C527 C 0.41696 0.30729 0.43099 0.0
C528 C 0.55593 0.34044 0.29916 0.0
C529 C 0.53613 0.33183 0.31535 0.0
C530 C 0.52369 0.33045 0.38257 0.0
C531 C 0.45497 0.32394 0.40824 0.0
C532 C 0.47819 0.31993 0.392 0.0
C533 C 0.5423 0.32343 0.33978 0.0
C534 C 0.52106 0.31949 0.35851 0.0
H535 H 0.42601 0.373 0.44125 0.0
H536 H 0.46239 0.36562 0.41291 0.0
H537 H 0.5049 0.34007 0.41718 0.0
H538 H 0.60882 0.33054 0.3373 0.0
H539 H 0.57427 0.31528 0.36556 0.0
C540 C 0.15934 0.92442 0.92321 0.0
C541 C 0.17926 0.91667 0.93991 0.0
C542 C 0.16411 0.94386 0.90529 0.0
C543 C 0.20059 0.00346 0.89831 0.0
H544 H 0.17721 0.00121 0.82913 0.0
C545 C 0.19419 0.09877 0.84128 0.0
C546 C 0.17126 0.10178 0.82681 0.0
C547 C 0.20139 0.07408 0.85056 0.0
C548 C 0.1837 0.00227 0.84844 0.0
H549 H 0.22002 0.92248 0.95041 0.0
H550 H 0.2281 0.95724 0.91943 0.0
H551 H 0.17782 0.96087 0.85402 0.0
H552 H 0.13921 0.08062 0.80904 0.0
H553 H 0.15071 0.03814 0.82638 0.0
H554 H 0.20457 0.04491 0.89372 0.0
C555 C 0.20895 0.94792 0.9201 0.0
C556 C 0.18424 0.9791 0.86258 0.0
C557 C 0.20435 0.92804 0.93772 0.0
C558 C 0.15663 0.0792 0.82064 0.0
C559 C 0.16355 0.05463 0.83028 0.0
C560 C 0.19959 0.02668 0.88436 0.0
C561 C 0.18873 0.95626 0.90401 0.0
C562 C 0.19214 0.97963 0.88779 0.0
C563 C 0.18562 0.05184 0.84598 0.0
C564 C 0.19049 0.02655 0.85941 0.0
H565 H 0.13987 0.91586 0.92438 0.0
H566 H 0.14812 0.95011 0.89326 0.0
H567 H 0.20646 0.00443 0.91782 0.0
H568 H 0.20597 0.11564 0.84654 0.0
H569 H 0.21889 0.07266 0.86204 0.0
C570 C 0.56022 0.6385 0.43869 0.0
C571 C 0.5779 0.65915 0.44353 0.0
C572 C 0.53998 0.64158 0.42134 0.0
C573 C 0.50022 0.69228 0.38977 0.0
H574 H 0.47541 0.6315 0.35282 0.0
C575 C 0.4093 0.65468 0.32093 0.0
C576 C 0.38854 0.66714 0.33344 0.0
C577 C 0.43509 0.65756 0.3295 0.0
C578 C 0.48224 0.64893 0.36249 0.0
H579 H 0.58846 0.69912 0.43337 0.0
H580 H 0.55325 0.70433 0.40256 0.0
H581 H 0.51635 0.6289 0.3758 0.0
H582 H 0.37827 0.69297 0.36413 0.0
H583 H 0.42302 0.69721 0.37981 0.0
H584 H 0.46626 0.71247 0.37604 0.0
C585 C 0.55485 0.68588 0.41261 0.0
C586 C 0.5056 0.64727 0.37608 0.0
C587 C 0.57509 0.68286 0.4302 0.0
C588 C 0.39404 0.68335 0.35406 0.0
C589 C 0.41976 0.68586 0.36293 0.0
C590 C 0.47697 0.69408 0.37586 0.0
C591 C 0.53696 0.66529 0.4081 0.0
C592 C 0.51441 0.66859 0.39061 0.0
C593 C 0.44057 0.67251 0.3511 0.0
C594 C 0.46723 0.67215 0.36269 0.0
H595 H 0.56161 0.62 0.44869 0.0
H596 H 0.52626 0.62549 0.41885 0.0
H597 H 0.50637 0.70911 0.40075 0.0
H598 H 0.40548 0.64229 0.30481 0.0
H599 H 0.45063 0.6475 0.31952 0.0
C600 C 0.33563 0.44797 0.55191 0.0
C601 C 0.31642 0.42838 0.54855 0.0
C602 C 0.33194 0.46812 0.56919 0.0
C603 C 0.31401 0.51644 0.59625 0.0
H604 H 0.29363 0.49991 0.66447 0.0
C605 C 0.32564 0.59454 0.67175 0.0
C606 C 0.33839 0.5857 0.6935 0.0
C607 C 0.31413 0.57658 0.65523 0.0
C608 C 0.29928 0.50488 0.64548 0.0
H609 H 0.27816 0.4147 0.56096 0.0
H610 H 0.27176 0.45023 0.59145 0.0
H611 H 0.29138 0.46583 0.63221 0.0
H612 H 0.34787 0.55149 0.71591 0.0
H613 H 0.32869 0.51999 0.68675 0.0
H614 H 0.32369 0.55475 0.60945 0.0
C615 C 0.28969 0.44976 0.58054 0.0
C616 C 0.2977 0.48542 0.62695 0.0
C617 C 0.29333 0.4295 0.56304 0.0
C618 C 0.33796 0.55878 0.69932 0.0
C619 C 0.32684 0.54075 0.68259 0.0
C620 C 0.31572 0.53577 0.61469 0.0
C621 C 0.30895 0.46936 0.58366 0.0
C622 C 0.30597 0.49079 0.60234 0.0
C623 C 0.31569 0.54936 0.65984 0.0
C624 C 0.30918 0.53006 0.63974 0.0
H625 H 0.35371 0.44782 0.54122 0.0
H626 H 0.34744 0.48256 0.5715 0.0
H627 H 0.32006 0.52132 0.57734 0.0
H628 H 0.32553 0.61527 0.66703 0.0
H629 H 0.30511 0.584 0.63824 0.0
C630 C 0.07837 0.81327 0.0712 0.0
C631 C 0.07961 0.83573 0.05583 0.0
C632 C 0.05889 0.81094 0.08959 0.0
C633 C 0.00915 0.85027 0.1245 0.0
H634 H 0.97343 0.7833 0.13152 0.0
C635 C 0.90066 0.81114 0.15345 0.0
C636 C 0.89518 0.82868 0.17306 0.0
C637 C 0.92616 0.80889 0.14405 0.0
C638 C 0.98315 0.80217 0.12978 0.0
H639 H 0.06131 0.87338 0.04784 0.0
H640 H 0.02717 0.86902 0.07917 0.0
H641 H 0.01214 0.78652 0.10491 0.0
H642 H 0.9122 0.85616 0.19949 0.0
H643 H 0.957 0.85161 0.1837 0.0
H644 H 0.97927 0.8664 0.14785 0.0
C645 C 0.04157 0.85345 0.07759 0.0
C646 C 0.00559 0.80393 0.11475 0.0
C647 C 0.06109 0.85586 0.0594 0.0
C648 C 0.91592 0.8427 0.18416 0.0
C649 C 0.94152 0.84018 0.175 0.0
C650 C 0.98659 0.84857 0.13927 0.0
C651 C 0.04015 0.83096 0.0929 0.0
C652 C 0.01844 0.82819 0.11139 0.0
C653 C 0.94681 0.82393 0.15424 0.0
C654 C 0.97289 0.82465 0.1416 0.0
H655 H 0.09244 0.79747 0.06907 0.0
H656 H 0.05854 0.79348 0.10122 0.0
H657 H 0.01889 0.86914 0.12281 0.0
H658 H 0.88497 0.80033 0.14435 0.0
H659 H 0.92928 0.79646 0.12785 0.0
C660 C 0.65585 0.55741 0.56568 0.0
C661 C 0.67626 0.57394 0.55744 0.0
C662 C 0.66012 0.53909 0.58466 0.0
C663 C 0.71181 0.50025 0.61493 0.0
H664 H 0.65408 0.48301 0.65936 0.0
C665 C 0.67084 0.41524 0.68873 0.0
C666 C 0.67857 0.39321 0.67478 0.0
C667 C 0.67752 0.44054 0.68067 0.0
C668 C 0.6708 0.48775 0.64767 0.0
H669 H 0.71721 0.58434 0.56315 0.0
H670 H 0.72464 0.55218 0.59662 0.0
H671 H 0.65184 0.52233 0.63396 0.0
H672 H 0.70053 0.3799 0.64253 0.0
H673 H 0.7113 0.42388 0.62774 0.0
H674 H 0.73079 0.46557 0.62873 0.0
C675 C 0.70535 0.55342 0.5881 0.0
C676 C 0.66927 0.5102 0.63273 0.0
C677 C 0.70106 0.57188 0.56899 0.0
C678 C 0.6946 0.39667 0.65369 0.0
C679 C 0.70083 0.42197 0.6453 0.0
C680 C 0.7135 0.47786 0.63016 0.0
C681 C 0.68489 0.53678 0.5961 0.0
C682 C 0.68918 0.51607 0.61537 0.0
C683 C 0.69139 0.44429 0.65809 0.0
C684 C 0.69251 0.47072 0.64598 0.0
H685 H 0.63648 0.55832 0.55728 0.0
H686 H 0.64405 0.52623 0.5899 0.0
H687 H 0.72755 0.50426 0.60183 0.0
H688 H 0.65851 0.41293 0.70513 0.0
H689 H 0.67056 0.45717 0.69144 0.0
C690 C 0.92127 0.17958 0.05748 0.0
C691 C 0.91751 0.15613 0.04388 0.0
C692 C 0.94234 0.182 0.07429 0.0
C693 C 0.0075 0.15388 0.08727 0.0
H694 H 0.99642 0.17441 0.1565 0.0
C695 C 0.07319 0.11731 0.16568 0.0
C696 C 0.08238 0.13502 0.18393 0.0
C697 C 0.05439 0.12501 0.14823 0.0
C698 C -9e-05 0.16916 0.1371 0.0
H699 H 0.93294 0.11686 0.03751 0.0
H700 H 0.96931 0.12117 0.06651 0.0
H701 H 0.96052 0.1789 0.12604 0.0
H702 H 0.07834 0.17464 0.19851 0.0
H703 H 0.04468 0.18798 0.16801 0.0
H704 H 0.0464 0.14313 0.09837 0.0
C705 C 0.95619 0.13775 0.06407 0.0
C706 C 0.97941 0.17172 0.11971 0.0
C707 C 0.93516 0.13523 0.04756 0.0
C708 C 0.07166 0.16053 0.1847 0.0
C709 C 0.0525 0.16819 0.16725 0.0
C710 C 0.02786 0.15132 0.10456 0.0
C711 C 0.96015 0.16117 0.07747 0.0
C712 C 0.98278 0.16315 0.09486 0.0
C713 C 0.04399 0.15054 0.14868 0.0
C714 C 0.02397 0.158 0.12982 0.0
H715 H 0.90798 0.19602 0.05514 0.0
H716 H 0.94496 0.20025 0.08447 0.0
H717 H 0.0108 0.14765 0.06811 0.0
H718 H 0.08029 0.09725 0.16502 0.0
H719 H 0.04768 0.11077 0.13453 0.0
C720 C 0.21709 0.81526 0.08007 0.0
C721 C 0.20021 0.80019 0.06489 0.0
C722 C 0.22516 0.80593 0.10343 0.0
C723 C 0.23426 0.74706 0.14163 0.0
H724 H 0.22427 0.79473 0.19754 0.0
C725 C 0.25191 0.71516 0.24456 0.0
C726 C 0.26313 0.73388 0.2607 0.0
C727 C 0.24379 0.72236 0.22045 0.0
C728 C 0.22757 0.78127 0.18214 0.0
H729 H 0.17947 0.76297 0.06199 0.0
H730 H 0.19401 0.74652 0.10282 0.0
H731 H 0.21219 0.80865 0.15542 0.0
H732 H 0.27543 0.77453 0.26413 0.0
H733 H 0.26197 0.78698 0.22201 0.0
H734 H 0.25028 0.71988 0.1682 0.0
C735 C 0.20077 0.76563 0.09655 0.0
C736 C 0.22055 0.78925 0.15803 0.0
C737 C 0.19239 0.77511 0.07325 0.0
C738 C 0.26637 0.75982 0.25223 0.0
C739 C 0.25857 0.76694 0.22809 0.0
C740 C 0.24163 0.73915 0.16576 0.0
C741 C 0.2168 0.7812 0.11203 0.0
C742 C 0.22396 0.7723 0.13754 0.0
C743 C 0.24703 0.74836 0.21192 0.0
C744 C 0.23851 0.75625 0.1863 0.0
H745 H 0.22348 0.83466 0.07427 0.0
H746 H 0.23776 0.81818 0.11493 0.0
H747 H 0.23718 0.73368 0.12608 0.0
H748 H 0.24909 0.69504 0.25072 0.0
H749 H 0.23468 0.70761 0.20865 0.0
C750 C 0.70048 0.72973 0.55425 0.0
C751 C 0.70662 0.7029 0.55167 0.0
C752 C 0.71544 0.74588 0.56989 0.0
C753 C 0.75915 0.74691 0.62392 0.0
H754 H 0.78815 0.8098 0.59338 0.0
C755 C 0.83647 0.81125 0.67446 0.0
C756 C 0.83599 0.83848 0.67019 0.0
C757 C 0.82013 0.79448 0.66073 0.0
C758 C 0.77987 0.79262 0.60242 0.0
H759 H 0.73264 0.67179 0.56428 0.0
H760 H 0.75848 0.70009 0.5921 0.0
H761 H 0.75987 0.78098 0.56886 0.0
H762 H 0.81763 0.86973 0.64892 0.0
H763 H 0.78834 0.84072 0.62559 0.0
H764 H 0.77846 0.75878 0.6577 0.0
C765 C 0.7422 0.70852 0.58176 0.0
C766 C 0.76378 0.77604 0.58828 0.0
C767 C 0.72749 0.6924 0.56578 0.0
C768 C 0.81858 0.84874 0.6523 0.0
C769 C 0.80192 0.83205 0.63886 0.0
C770 C 0.77491 0.76373 0.63825 0.0
C771 C 0.73657 0.73548 0.58358 0.0
C772 C 0.75334 0.75303 0.59887 0.0
C773 C 0.80265 0.80465 0.64269 0.0
C774 C 0.78555 0.7868 0.62765 0.0
H775 H 0.68458 0.73848 0.54363 0.0
H776 H 0.71062 0.76659 0.57115 0.0
H777 H 0.75115 0.72934 0.63253 0.0
H778 H 0.84991 0.80289 0.68806 0.0
H779 H 0.82162 0.77351 0.66393 0.0
C780 C 0.76761 0.19283 0.06143 0.0
C781 C 0.79296 0.19915 0.05286 0.0
C782 C 0.75502 0.20873 0.07901 0.0
C783 C 0.75514 0.27659 0.10305 0.0
H784 H 0.70715 0.24704 0.15197 0.0
C785 C 0.67758 0.31012 0.18624 0.0
C786 C 0.6649 0.33089 0.17371 0.0
C787 C 0.69682 0.29526 0.17415 0.0
C788 C 0.72077 0.25569 0.13873 0.0
H789 H 0.82538 0.22664 0.05692 0.0
H790 H 0.80353 0.25413 0.08795 0.0
H791 H 0.73456 0.21792 0.12713 0.0
H792 H 0.66349 0.35309 0.13898 0.0
H793 H 0.69628 0.32657 0.11756 0.0
H794 H 0.74151 0.3144 0.11485 0.0
C795 C 0.79319 0.23714 0.08064 0.0
C796 C 0.73624 0.23894 0.12423 0.0
C797 C 0.80576 0.22129 0.06294 0.0
C798 C 0.67257 0.33698 0.14906 0.0
C799 C 0.69167 0.32199 0.13689 0.0
C800 C 0.73977 0.29338 0.11768 0.0
C801 C 0.76752 0.23126 0.08861 0.0
C802 C 0.7532 0.24915 0.10584 0.0
C803 C 0.7037 0.30065 0.14915 0.0
C804 C 0.72201 0.2831 0.13535 0.0
H805 H 0.7571 0.17597 0.05406 0.0
H806 H 0.73511 0.20381 0.08442 0.0
H807 H 0.76784 0.28514 0.08894 0.0
H808 H 0.67203 0.30467 0.20514 0.0
H809 H 0.70598 0.27924 0.18428 0.0
C810 C 0.26758 0.30643 0.5696 0.0
C811 C 0.29401 0.30264 0.5628 0.0
C812 C 0.2581 0.29678 0.59243 0.0
C813 C 0.27987 0.28111 0.65554 0.0
H814 H 0.21591 0.23998 0.66086 0.0
C815 C 0.24947 0.23368 0.74887 0.0
C816 C 0.22264 0.2327 0.75486 0.0
C817 C 0.25761 0.2415 0.72503 0.0
C818 C 0.23359 0.25179 0.65979 0.0
H819 H 0.3311 0.28548 0.57453 0.0
H820 H 0.31456 0.26906 0.6145 0.0
H821 H 0.23083 0.25503 0.61975 0.0
H822 H 0.18325 0.23914 0.74079 0.0
H823 H 0.19742 0.2537 0.69928 0.0
H824 H 0.28244 0.27874 0.69541 0.0
C825 C 0.30123 0.27941 0.60209 0.0
C826 C 0.24217 0.26027 0.63622 0.0
C827 C 0.31062 0.28868 0.57914 0.0
C828 C 0.20406 0.23958 0.73654 0.0
C829 C 0.21222 0.24779 0.71275 0.0
C830 C 0.27114 0.27299 0.67909 0.0
C831 C 0.27496 0.28355 0.60902 0.0
C832 C 0.2655 0.27482 0.6339 0.0
C833 C 0.23913 0.24892 0.7067 0.0
C834 C 0.248 0.25802 0.68155 0.0
H835 H 0.25427 0.31703 0.55739 0.0
H836 H 0.23778 0.30031 0.59743 0.0
H837 H 0.29772 0.29268 0.65427 0.0
H838 H 0.26416 0.22807 0.76258 0.0
H839 H 0.27845 0.24148 0.72094 0.0
C840 C 0.71715 0.67824 0.42007 0.0
C841 C 0.69989 0.69312 0.43496 0.0
C842 C 0.72564 0.68773 0.3969 0.0
C843 C 0.73558 0.74693 0.35939 0.0
H844 H 0.72719 0.69978 0.30281 0.0
C845 C 0.7561 0.7801 0.25734 0.0
C846 C 0.76759 0.76159 0.24121 0.0
C847 C 0.74736 0.77257 0.28115 0.0
C848 C 0.73006 0.7131 0.31841 0.0
H849 H 0.67885 0.73013 0.43755 0.0
H850 H 0.69418 0.74689 0.39709 0.0
H851 H 0.71401 0.68539 0.34447 0.0
H852 H 0.77969 0.72095 0.23749 0.0
H853 H 0.76521 0.70792 0.27914 0.0
H854 H 0.7523 0.77443 0.33352 0.0
C855 C 0.70089 0.7278 0.40342 0.0
C856 C 0.72239 0.70485 0.34226 0.0
C857 C 0.69207 0.71814 0.4265 0.0
C858 C 0.77046 0.73551 0.2494 0.0
C859 C 0.76206 0.72806 0.27326 0.0
C860 C 0.7436 0.7551 0.33554 0.0
C861 C 0.71737 0.71245 0.38823 0.0
C862 C 0.72519 0.72162 0.36298 0.0
C863 C 0.75025 0.74643 0.28942 0.0
C864 C 0.74107 0.73821 0.31475 0.0
H865 H 0.72352 0.65887 0.42594 0.0
H866 H 0.73856 0.67564 0.38563 0.0
H867 H 0.73805 0.76017 0.37513 0.0
H868 H 0.75354 0.80032 0.25139 0.0
H869 H 0.73804 0.78718 0.29292 0.0
C870 C 0.79533 0.21608 0.92559 0.0
C871 C 0.78704 0.19169 0.93526 0.0
C872 C 0.78505 0.22558 0.90301 0.0
C873 C 0.75779 0.20143 0.84436 0.0
H874 H 0.7347 0.27321 0.83359 0.0
C875 C 0.71083 0.23316 0.75121 0.0
C876 C 0.71679 0.25828 0.74188 0.0
C877 C 0.71857 0.22587 0.77532 0.0
C878 C 0.74142 0.25319 0.83619 0.0
H879 H 0.7607 0.15864 0.92915 0.0
H880 H 0.74303 0.17517 0.88974 0.0
H881 H 0.7492 0.25943 0.87529 0.0
H882 H 0.73561 0.29548 0.75031 0.0
H883 H 0.74989 0.28253 0.79229 0.0
H884 H 0.75085 0.19517 0.80535 0.0
C885 C 0.75754 0.18684 0.89962 0.0
C886 C 0.74959 0.24531 0.86009 0.0
C887 C 0.76757 0.17748 0.92229 0.0
C888 C 0.73064 0.27603 0.75714 0.0
C889 C 0.73868 0.26863 0.78121 0.0
C890 C 0.74994 0.20935 0.82046 0.0
C891 C 0.76653 0.21073 0.88955 0.0
C892 C 0.75768 0.21931 0.8644 0.0
C893 C 0.73276 0.24343 0.79059 0.0
C894 C 0.7415 0.23528 0.81607 0.0
H895 H 0.81021 0.22758 0.93514 0.0
H896 H 0.79237 0.24402 0.89559 0.0
H897 H 0.76441 0.18139 0.84707 0.0
H898 H 0.69975 0.21927 0.73998 0.0
H899 H 0.71313 0.20653 0.78208 0.0
C900 C 0.26161 0.29809 0.43703 0.0
C901 C 0.28663 0.29083 0.44584 0.0
C902 C 0.24793 0.28195 0.42034 0.0
C903 C 0.24372 0.21319 0.39885 0.0
H904 H 0.2003 0.24363 0.3466 0.0
C905 C 0.17062 0.18038 0.31172 0.0
C906 C 0.15584 0.16078 0.3239 0.0
C907 C 0.1894 0.19496 0.32486 0.0
C908 C 0.21259 0.23473 0.36085 0.0
H909 H 0.3171 0.26107 0.44341 0.0
H910 H 0.2933 0.23311 0.41404 0.0
H911 H 0.22815 0.27204 0.37197 0.0
H912 H 0.15009 0.1404 0.35922 0.0
H913 H 0.18228 0.16632 0.38231 0.0
H914 H 0.22831 0.17584 0.38756 0.0
C915 C 0.28412 0.25111 0.4204 0.0
C916 C 0.2283 0.25108 0.37563 0.0
C917 C 0.29781 0.26724 0.43716 0.0
C918 C 0.16087 0.15559 0.34935 0.0
C919 C 0.17958 0.17024 0.36252 0.0
C920 C 0.22804 0.19681 0.38402 0.0
C921 C 0.25893 0.25819 0.41195 0.0
C922 C 0.24375 0.24057 0.39505 0.0
C923 C 0.19378 0.19038 0.35052 0.0
C924 C 0.21201 0.20743 0.36506 0.0
H925 H 0.25233 0.31606 0.44333 0.0
H926 H 0.2284 0.28782 0.41451 0.0
H927 H 0.25522 0.20446 0.41378 0.0
H928 H 0.1671 0.18508 0.29219 0.0
H929 H 0.20025 0.21007 0.31496 0.0
C930 C 0.19373 0.7707 0.93318 0.0
C931 C 0.20676 0.79008 0.94731 0.0
C932 C 0.20757 0.75521 0.91604 0.0
C933 C 0.27142 0.75124 0.88202 0.0
H934 H 0.25497 0.6768 0.87859 0.0
C935 C 0.34369 0.67367 0.84512 0.0
C936 C 0.33398 0.65525 0.82782 0.0
C937 C 0.32662 0.69079 0.8574 0.0
C938 C 0.25955 0.69761 0.87915 0.0
H939 H 0.24456 0.80843 0.95441 0.0
H940 H 0.26875 0.78103 0.92526 0.0
H941 H 0.22789 0.70576 0.90428 0.0
H942 H 0.2989 0.64009 0.80985 0.0
H943 H 0.26879 0.66986 0.83186 0.0
H944 H 0.30378 0.74271 0.85771 0.0
C945 C 0.24772 0.77817 0.92682 0.0
C946 C 0.244 0.71426 0.89378 0.0
C947 C 0.23385 0.79382 0.94372 0.0
C948 C 0.30683 0.65418 0.82309 0.0
C949 C 0.28966 0.67107 0.8357 0.0
C950 C 0.28712 0.73454 0.86769 0.0
C951 C 0.23481 0.75858 0.91284 0.0
C952 C 0.24999 0.74123 0.8957 0.0
C953 C 0.29946 0.68962 0.85286 0.0
C954 C 0.28155 0.70754 0.8664 0.0
H955 H 0.17281 0.76746 0.93533 0.0
H956 H 0.1969 0.74061 0.90531 0.0
H957 H 0.27625 0.77198 0.88254 0.0
H958 H 0.36457 0.67504 0.84892 0.0
H959 H 0.33463 0.70476 0.87071 0.0
loop_
_geom_bond_atom_site_label_1
_geom_bond_atom_site_label_2
_geom_bond_distance
_geom_bond_site_symmetry_2
_ccdc_geom_bond_type
Sc0 O3 2.025 . S
Sc0 O10 2.104 1_554 S
Sc0 O13 2.105 . S
Sc0 O16 2.105 . S
Sc0 O19 2.104 1_554 S
Sc1 O3 2.025 . S
Sc1 O11 2.104 1_554 S
Sc1 O15 2.105 . S
Sc1 O17 2.105 . S
Sc1 O21 2.104 1_554 S
Sc2 O3 2.025 . S
Sc2 O12 2.104 1_554 S
Sc2 O14 2.105 . S
Sc2 O18 2.105 . S
Sc2 O20 2.104 1_554 S
O3 Sc0 2.025 . S
O3 Sc1 2.025 . S
O3 Sc2 2.025 . S
C4 O10 1.268 . S
C4 O20 1.268 . S
C5 O11 1.268 . S
C5 O19 1.268 . S
C6 O12 1.268 . S
C6 O21 1.268 . S
C7 O13 1.268 . S
C7 O17 1.268 . S
C8 O14 1.268 . S
C8 O16 1.268 . S
C9 O15 1.268 . S
C9 O18 1.268 . S
O10 Sc0 2.104 1_556 S
O10 C4 1.268 . S
O11 Sc1 2.104 1_556 S
O11 C5 1.268 . S
O12 Sc2 2.104 1_556 S
O12 C6 1.268 . S
O13 Sc0 2.105 . S
O13 C7 1.268 . S
O14 Sc2 2.105 . S
O14 C8 1.268 . S
O15 Sc1 2.105 . S
O15 C9 1.268 . S
O16 Sc0 2.105 . S
O16 C8 1.268 . S
O17 Sc1 2.105 . S
O17 C7 1.268 . S
O18 Sc2 2.105 . S
O18 C9 1.268 . S
O19 Sc0 2.104 1_556 S
O19 C5 1.268 . S
O20 Sc2 2.104 1_556 S
O20 C4 1.268 . S
O21 Sc1 2.104 1_556 S
O21 C6 1.268 . S
Sc22 O25 2.025 . S
Sc22 O32 2.105 . S
Sc22 O35 2.105 . S
Sc22 O38 2.105 . S
Sc22 O41 2.105 . S
Sc23 O25 2.025 . S
Sc23 O33 2.105 . S
Sc23 O37 2.105 . S
Sc23 O39 2.105 . S
Sc23 O43 2.105 . S
Sc24 O25 2.025 . S
Sc24 O34 2.105 . S
Sc24 O36 2.105 . S
Sc24 O40 2.105 . S
Sc24 O42 2.105 . S
O25 Sc22 2.025 . S
O25 Sc23 2.025 . S
O25 Sc24 2.025 . S
C26 O32 1.268 . S
C26 O42 1.268 . S
C27 O33 1.268 . S
C27 O41 1.268 . S
C28 O34 1.268 . S
C28 O43 1.268 . S
C29 O35 1.268 . S
C29 O39 1.268 . S
C30 O36 1.268 . S
C30 O38 1.268 . S
C31 O37 1.268 . S
C31 O40 1.268 . S
O32 Sc22 2.105 . S
O32 C26 1.268 . S
O33 Sc23 2.105 . S
O33 C27 1.268 . S
O34 Sc24 2.105 . S
O34 C28 1.268 . S
O35 Sc22 2.105 . S
O35 C29 1.268 . S
O36 Sc24 2.105 . S
O36 C30 1.268 . S
O37 Sc23 2.105 . S
O37 C31 1.268 . S
O38 Sc22 2.105 . S
O38 C30 1.268 . S
O39 Sc23 2.105 . S
O39 C29 1.268 . S
O40 Sc24 2.105 . S
O40 C31 1.268 . S
O41 Sc22 2.105 . S
O41 C27 1.268 . S
O42 Sc24 2.105 . S
O42 C26 1.268 . S
O43 Sc23 2.105 . S
O43 C28 1.268 . S
Sc44 O47 2.025 . S
Sc44 O54 2.104 1_554 S
Sc44 O57 2.105 . S
Sc44 O60 2.105 . S
Sc44 O63 2.104 1_554 S
Sc45 O47 2.025 . S
Sc45 O55 2.104 1_554 S
Sc45 O59 2.105 . S
Sc45 O61 2.105 . S
Sc45 O65 2.104 1_554 S
Sc46 O47 2.025 . S
Sc46 O56 2.104 1_554 S
Sc46 O58 2.105 . S
Sc46 O62 2.105 . S
Sc46 O64 2.104 1_554 S
O47 Sc44 2.025 . S
O47 Sc45 2.025 . S
O47 Sc46 2.025 . S
C48 O54 1.268 . S
C48 O64 1.268 . S
C49 O55 1.268 . S
C49 O63 1.268 . S
C50 O56 1.268 . S
C50 O65 1.268 . S
C51 O57 1.268 . S
C51 O61 1.268 . S
C52 O58 1.268 . S
C52 O60 1.268 . S
C53 O59 1.268 . S
C53 O62 1.268 . S
O54 Sc44 2.104 1_556 S
O54 C48 1.268 . S
O55 Sc45 2.104 1_556 S
O55 C49 1.268 . S
O56 Sc46 2.104 1_556 S
O56 C50 1.268 . S
O57 Sc44 2.105 . S
O57 C51 1.268 . S
O58 Sc46 2.105 . S
O58 C52 1.268 . S
O59 Sc45 2.105 . S
O59 C53 1.268 . S
O60 Sc44 2.105 . S
O60 C52 1.268 . S
O61 Sc45 2.105 . S
O61 C51 1.268 . S
O62 Sc46 2.105 . S
O62 C53 1.268 . S
O63 Sc44 2.104 1_556 S
O63 C49 1.268 . S
O64 Sc46 2.104 1_556 S
O64 C48 1.268 . S
O65 Sc45 2.104 1_556 S
O65 C50 1.268 . S
Sc66 O69 2.025 . S
Sc66 O76 2.105 . S
Sc66 O79 2.105 . S
Sc66 O82 2.105 . S
Sc66 O85 2.105 . S
Sc67 O69 2.025 . S
Sc67 O77 2.105 . S
Sc67 O81 2.105 . S
Sc67 O83 2.105 . S
Sc67 O87 2.105 . S
Sc68 O69 2.025 . S
Sc68 O78 2.105 . S
Sc68 O80 2.105 . S
Sc68 O84 2.105 . S
Sc68 O86 2.105 . S
O69 Sc66 2.025 . S
O69 Sc67 2.025 . S
O69 Sc68 2.025 . S
C70 O76 1.268 . S
C70 O86 1.268 . S
C71 O77 1.268 . S
C71 O85 1.268 . S
C72 O78 1.268 . S
C72 O87 1.268 . S
C73 O79 1.268 . S
C73 O83 1.268 . S
C74 O80 1.268 . S
C74 O82 1.268 . S
C75 O81 1.268 . S
C75 O84 1.268 . S
O76 Sc66 2.105 . S
O76 C70 1.268 . S
O77 Sc67 2.105 . S
O77 C71 1.268 . S
O78 Sc68 2.105 . S
O78 C72 1.268 . S
O79 Sc66 2.105 . S
O79 C73 1.268 . S
O80 Sc68 2.105 . S
O80 C74 1.268 . S
O81 Sc67 2.105 . S
O81 C75 1.268 . S
O82 Sc66 2.105 . S
O82 C74 1.268 . S
O83 Sc67 2.105 . S
O83 C73 1.268 . S
O84 Sc68 2.105 . S
O84 C75 1.268 . S
O85 Sc66 2.105 . S
O85 C71 1.268 . S
O86 Sc68 2.105 . S
O86 C70 1.268 . S
O87 Sc67 2.105 . S
O87 C72 1.268 . S
H88 C89 0.949 . S
C89 H88 0.949 . S
C89 C90 1.395 . S
C89 C91 1.391 . S
C90 C89 1.395 . S
C90 C93 1.390 . S
C91 C89 1.391 . S
C91 C95 1.387 . S
C91 C96 1.491 . S
H92 C93 0.950 . S
C93 C90 1.390 . S
C93 H92 0.950 . S
C93 C94 1.378 . S
C94 C93 1.378 . S
C94 C95 1.409 . S
C95 C91 1.387 . S
C95 C94 1.409 . S
C95 H97 0.951 . S
C96 C91 1.491 . S
C96 C98 1.382 . S
C96 C100 1.404 . S
H97 C95 0.951 . S
C98 C96 1.382 . S
C98 C99 1.390 . S
C98 H103 0.949 . S
C99 C98 1.390 . S
C99 C104 1.399 . S
C100 C96 1.404 . S
C100 H101 0.950 . S
C100 C102 1.375 . S
H101 C100 0.950 . S
C102 C100 1.375 . S
C102 C104 1.382 . S
C102 H106 0.950 . S
H103 C98 0.949 . S
C104 C99 1.399 . S
C104 C102 1.382 . S
C104 H105 0.952 . S
H105 C104 0.952 . S
H106 C102 0.950 . S
H107 C108 0.949 . S
C108 H107 0.949 . S
C108 C109 1.395 . S
C108 C110 1.391 . S
C109 C108 1.395 . S
C109 C112 1.390 . S
C110 C108 1.391 . S
C110 C114 1.387 . S
C110 C115 1.491 . S
H111 C112 0.950 . S
C112 C109 1.390 . S
C112 H111 0.950 . S
C112 C113 1.378 . S
C113 C112 1.378 . S
C113 C114 1.409 . S
C114 C110 1.387 . S
C114 C113 1.409 . S
C114 H116 0.951 . S
C115 C110 1.491 . S
C115 C117 1.382 . S
C115 C119 1.404 . S
H116 C114 0.951 . S
C117 C115 1.382 . S
C117 C118 1.390 . S
C117 H122 0.949 . S
C118 C117 1.390 . S
C118 C123 1.399 . S
C119 C115 1.404 . S
C119 H120 0.950 . S
C119 C121 1.375 . S
H120 C119 0.950 . S
C121 C119 1.375 . S
C121 C123 1.382 . S
C121 H125 0.950 . S
H122 C117 0.949 . S
C123 C118 1.399 . S
C123 C121 1.382 . S
C123 H124 0.952 . S
H124 C123 0.952 . S
H125 C121 0.950 . S
H126 C127 0.949 . S
C127 H126 0.949 . S
C127 C128 1.395 . S
C127 C129 1.391 . S
C128 C127 1.395 . S
C128 C131 1.390 . S
C129 C127 1.391 . S
C129 C133 1.387 . S
C129 C134 1.491 . S
H130 C131 0.950 . S
C131 C128 1.390 . S
C131 H130 0.950 . S
C131 C132 1.378 . S
C132 C131 1.378 . S
C132 C133 1.409 . S
C133 C129 1.387 . S
C133 C132 1.409 . S
C133 H135 0.951 . S
C134 C129 1.491 . S
C134 C136 1.382 . S
C134 C138 1.404 . S
H135 C133 0.951 . S
C136 C134 1.382 . S
C136 C137 1.390 . S
C136 H141 0.949 . S
C137 C136 1.390 . S
C137 C142 1.399 . S
C138 C134 1.404 . S
C138 H139 0.950 . S
C138 C140 1.375 . S
H139 C138 0.950 . S
C140 C138 1.375 . S
C140 C142 1.382 . S
C140 H144 0.950 . S
H141 C136 0.949 . S
C142 C137 1.399 . S
C142 C140 1.382 . S
C142 H143 0.952 . S
H143 C142 0.952 . S
H144 C140 0.950 . S
H145 C146 0.949 . S
C146 H145 0.949 . S
C146 C147 1.395 . S
C146 C148 1.391 . S
C147 C146 1.395 . S
C147 C150 1.390 . S
C148 C146 1.391 . S
C148 C152 1.387 . S
C148 C153 1.491 . S
H149 C150 0.950 . S
C150 C147 1.390 . S
C150 H149 0.950 . S
C150 C151 1.378 . S
C151 C150 1.378 . S
C151 C152 1.409 . S
C152 C148 1.387 . S
C152 C151 1.409 . S
C152 H154 0.951 . S
C153 C148 1.491 . S
C153 C155 1.382 . S
C153 C157 1.404 . S
H154 C152 0.951 . S
C155 C153 1.382 . S
C155 C156 1.390 . S
C155 H160 0.949 . S
C156 C155 1.390 . S
C156 C161 1.399 . S
C157 C153 1.404 . S
C157 H158 0.950 . S
C157 C159 1.375 . S
H158 C157 0.950 . S
C159 C157 1.375 . S
C159 C161 1.382 . S
C159 H163 0.950 . S
H160 C155 0.949 . S
C161 C156 1.399 . S
C161 C159 1.382 . S
C161 H162 0.952 . S
H162 C161 0.952 . S
H163 C159 0.950 . S
H164 C165 0.949 . S
C165 H164 0.949 . S
C165 C166 1.395 . S
C165 C167 1.391 . S
C166 C165 1.395 . S
C166 C169 1.390 . S
C167 C165 1.391 . S
C167 C171 1.387 . S
C167 C172 1.491 . S
H168 C169 0.950 . S
C169 C166 1.390 . S
C169 H168 0.950 . S
C169 C170 1.378 . S
C170 C169 1.378 . S
C170 C171 1.409 . S
C171 C167 1.387 . S
C171 C170 1.409 . S
C171 H173 0.951 . S
C172 C167 1.491 . S
C172 C174 1.382 . S
C172 C176 1.404 . S
H173 C171 0.951 . S
C174 C172 1.382 . S
C174 C175 1.390 . S
C174 H179 0.949 . S
C175 C174 1.390 . S
C175 C180 1.399 . S
C176 C172 1.404 . S
C176 H177 0.950 . S
C176 C178 1.375 . S
H177 C176 0.950 . S
C178 C176 1.375 . S
C178 C180 1.382 . S
C178 H182 0.950 . S
H179 C174 0.949 . S
C180 C175 1.399 . S
C180 C178 1.382 . S
C180 H181 0.952 . S
H181 C180 0.952 . S
H182 C178 0.950 . S
H183 C184 0.949 . S
C184 H183 0.949 . S
C184 C185 1.395 . S
C184 C186 1.391 . S
C185 C184 1.395 . S
C185 C188 1.390 . S
C186 C184 1.391 . S
C186 C190 1.387 . S
C186 C191 1.491 . S
H187 C188 0.950 . S
C188 C185 1.390 . S
C188 H187 0.950 . S
C188 C189 1.378 . S
C189 C188 1.378 . S
C189 C190 1.409 . S
C190 C186 1.387 . S
C190 C189 1.409 . S
C190 H192 0.951 . S
C191 C186 1.491 . S
C191 C193 1.382 . S
C191 C195 1.404 . S
H192 C190 0.951 . S
C193 C191 1.382 . S
C193 C194 1.390 . S
C193 H198 0.949 . S
C194 C193 1.390 . S
C194 C199 1.399 . S
C195 C191 1.404 . S
C195 H196 0.950 . S
C195 C197 1.375 . S
H196 C195 0.950 . S
C197 C195 1.375 . S
C197 C199 1.382 . S
C197 H201 0.950 . S
H198 C193 0.949 . S
C199 C194 1.399 . S
C199 C197 1.382 . S
C199 H200 0.952 . S
H200 C199 0.952 . S
H201 C197 0.950 . S
H202 C203 0.949 . S
C203 H202 0.949 . S
C203 C204 1.395 . S
C203 C205 1.391 . S
C204 C203 1.395 . S
C204 C207 1.390 . S
C205 C203 1.391 . S
C205 C209 1.387 . S
C205 C210 1.491 . S
H206 C207 0.950 . S
C207 C204 1.390 . S
C207 H206 0.950 . S
C207 C208 1.378 . S
C208 C207 1.378 . S
C208 C209 1.409 . S
C209 C205 1.387 . S
C209 C208 1.409 . S
C209 H211 0.951 . S
C210 C205 1.491 . S
C210 C212 1.382 . S
C210 C214 1.404 . S
H211 C209 0.951 . S
C212 C210 1.382 . S
C212 C213 1.390 . S
C212 H217 0.949 . S
C213 C212 1.390 . S
C213 C218 1.399 . S
C214 C210 1.404 . S
C214 H215 0.950 . S
C214 C216 1.375 . S
H215 C214 0.950 . S
C216 C214 1.375 . S
C216 C218 1.382 . S
C216 H220 0.950 . S
H217 C212 0.949 . S
C218 C213 1.399 . S
C218 C216 1.382 . S
C218 H219 0.952 . S
H219 C218 0.952 . S
H220 C216 0.950 . S
H221 C222 0.949 . S
C222 H221 0.949 . S
C222 C223 1.395 . S
C222 C224 1.391 . S
C223 C222 1.395 . S
C223 C226 1.390 . S
C224 C222 1.391 . S
C224 C228 1.387 . S
C224 C229 1.491 . S
H225 C226 0.950 . S
C226 C223 1.390 . S
C226 H225 0.950 . S
C226 C227 1.378 . S
C227 C226 1.378 . S
C227 C228 1.409 . S
C228 C224 1.387 . S
C228 C227 1.409 . S
C228 H230 0.951 . S
C229 C224 1.491 . S
C229 C231 1.382 . S
C229 C233 1.404 . S
H230 C228 0.951 . S
C231 C229 1.382 . S
C231 C232 1.390 . S
C231 H236 0.949 . S
C232 C231 1.390 . S
C232 C237 1.399 . S
C233 C229 1.404 . S
C233 H234 0.950 . S
C233 C235 1.375 . S
H234 C233 0.950 . S
C235 C233 1.375 . S
C235 C237 1.382 . S
C235 H239 0.950 . S
H236 C231 0.949 . S
C237 C232 1.399 . S
C237 C235 1.382 . S
C237 H238 0.952 . S
H238 C237 0.952 . S
H239 C235 0.950 . S
C240 C241 1.349 . S
C240 C242 1.327 . S
C240 H265 0.950 . S
C241 C240 1.349 . S
C241 C257 1.349 . S
C242 C240 1.327 . S
C242 C261 1.429 . S
C242 H266 0.950 . S
C243 C260 1.574 . S
C243 C262 1.368 . S
C243 H267 0.949 . S
H244 C248 0.949 . S
C245 C246 1.349 . S
C245 C247 1.327 . S
C245 H268 0.950 . S
C246 C245 1.349 . S
C246 C258 1.349 . S
C247 C245 1.327 . S
C247 C263 1.429 . S
C247 H269 0.950 . S
C248 H244 0.949 . S
C248 C256 1.574 1_545 S
C248 C264 1.368 . S
H249 C257 0.950 . S
H250 C255 0.950 1_545 S
H251 C256 0.949 . S
H252 C258 0.950 . S
H253 C259 0.950 . S
H254 C260 0.949 . S
C255 H250 0.950 1_565 S
C255 C257 1.327 . S
C255 C261 1.429 . S
C256 C248 1.574 1_565 S
C256 H251 0.949 . S
C256 C262 1.368 1_565 S
C257 C241 1.349 . S
C257 H249 0.950 . S
C257 C255 1.327 . S
C258 C246 1.349 . S
C258 H252 0.950 . S
C258 C259 1.327 . S
C259 H253 0.950 . S
C259 C258 1.327 . S
C259 C263 1.429 . S
C260 C243 1.574 . S
C260 H254 0.949 . S
C260 C264 1.368 . S
C261 C242 1.429 . S
C261 C255 1.429 . S
C261 C262 1.523 1_565 S
C262 C243 1.368 . S
C262 C256 1.368 1_545 S
C262 C261 1.523 1_545 S
C263 C247 1.429 . S
C263 C259 1.429 . S
C263 C264 1.523 . S
C264 C248 1.368 . S
C264 C260 1.368 . S
C264 C263 1.523 . S
H265 C240 0.950 . S
H266 C242 0.950 . S
H267 C243 0.949 . S
H268 C245 0.950 . S
H269 C247 0.950 . S
C270 C271 1.349 . S
C270 C272 1.327 . S
C270 H295 0.950 . S
C271 C270 1.349 . S
C271 C287 1.349 . S
C272 C270 1.327 . S
C272 C291 1.429 . S
C272 H296 0.950 . S
C273 C290 1.574 . S
C273 C292 1.368 . S
C273 H297 0.949 . S
H274 C278 0.949 . S
C275 C276 1.349 . S
C275 C277 1.327 . S
C275 H298 0.950 . S
C276 C275 1.349 . S
C276 C288 1.349 . S
C277 C275 1.327 . S
C277 C293 1.429 . S
C277 H299 0.950 . S
C278 H274 0.949 . S
C278 C286 1.574 . S
C278 C294 1.368 . S
H279 C287 0.950 . S
H280 C285 0.950 . S
H281 C286 0.949 . S
H282 C288 0.950 . S
H283 C289 0.950 . S
H284 C290 0.949 . S
C285 H280 0.950 . S
C285 C287 1.327 . S
C285 C291 1.429 . S
C286 C278 1.574 . S
C286 H281 0.949 . S
C286 C292 1.368 . S
C287 C271 1.349 . S
C287 H279 0.950 . S
C287 C285 1.327 . S
C288 C276 1.349 . S
C288 H282 0.950 . S
C288 C289 1.327 . S
C289 H283 0.950 . S
C289 C288 1.327 . S
C289 C293 1.429 . S
C290 C273 1.574 . S
C290 H284 0.949 . S
C290 C294 1.368 . S
C291 C272 1.429 . S
C291 C285 1.429 . S
C291 C292 1.523 . S
C292 C273 1.368 . S
C292 C286 1.368 . S
C292 C291 1.523 . S
C293 C277 1.429 . S
C293 C289 1.429 . S
C293 C294 1.523 . S
C294 C278 1.368 . S
C294 C290 1.368 . S
C294 C293 1.523 . S
H295 C270 0.950 . S
H296 C272 0.950 . S
H297 C273 0.949 . S
H298 C275 0.950 . S
H299 C277 0.950 . S
C300 C301 1.349 . S
C300 C302 1.327 . S
C300 H325 0.950 . S
C301 C300 1.349 . S
C301 C317 1.349 . S
C302 C300 1.327 . S
C302 C321 1.429 . S
C302 H326 0.950 . S
C303 C320 1.574 . S
C303 C322 1.370 . S
C303 H327 0.949 . S
H304 C308 0.949 . S
C305 C306 1.349 . S
C305 C307 1.327 . S
C305 H328 0.950 . S
C306 C305 1.349 . S
C306 C318 1.349 . S
C307 C305 1.327 . S
C307 C323 1.429 . S
C307 H329 0.950 . S
C308 H304 0.949 . S
C308 C316 1.574 1_565 S
C308 C324 1.368 . S
H309 C317 0.950 . S
H310 C315 0.950 . S
H311 C316 0.949 . S
H312 C318 0.950 . S
H313 C319 0.950 . S
H314 C320 0.949 . S
C315 H310 0.950 . S
C315 C317 1.327 . S
C315 C321 1.429 . S
C316 C308 1.574 1_545 S
C316 H311 0.949 . S
C316 C322 1.368 1_545 S
C317 C301 1.349 . S
C317 H309 0.950 . S
C317 C315 1.327 . S
C318 C306 1.349 . S
C318 H312 0.950 . S
C318 C319 1.327 . S
C319 H313 0.950 . S
C319 C318 1.327 . S
C319 C323 1.429 . S
C320 C303 1.574 . S
C320 H314 0.949 . S
C320 C324 1.368 . S
C321 C302 1.429 . S
C321 C315 1.429 . S
C321 C322 1.521 1_545 S
C322 C303 1.370 . S
C322 C316 1.368 1_565 S
C322 C321 1.521 1_565 S
C323 C307 1.429 . S
C323 C319 1.429 . S
C323 C324 1.523 . S
C324 C308 1.368 . S
C324 C320 1.368 . S
C324 C323 1.523 . S
H325 C300 0.950 . S
H326 C302 0.950 . S
H327 C303 0.949 . S
H328 C305 0.950 . S
H329 C307 0.950 . S
C330 C331 1.349 . S
C330 C332 1.327 . S
C330 H355 0.950 . S
C331 C330 1.349 . S
C331 C347 1.349 . S
C332 C330 1.327 . S
C332 C351 1.429 . S
C332 H356 0.950 . S
C333 C350 1.574 . S
C333 C352 1.368 . S
C333 H357 0.949 . S
H334 C338 0.949 . S
C335 C336 1.349 . S
C335 C337 1.327 . S
C335 H358 0.950 . S
C336 C335 1.349 . S
C336 C348 1.349 . S
C337 C335 1.327 . S
C337 C353 1.429 . S
C337 H359 0.950 . S
C338 H334 0.949 . S
C338 C346 1.574 . S
C338 C354 1.368 . S
H339 C347 0.950 . S
H340 C345 0.950 . S
H341 C346 0.949 . S
H342 C348 0.950 . S
H343 C349 0.950 . S
H344 C350 0.949 . S
C345 H340 0.950 . S
C345 C347 1.327 . S
C345 C351 1.429 . S
C346 C338 1.574 . S
C346 H341 0.949 . S
C346 C352 1.368 . S
C347 C331 1.349 . S
C347 H339 0.950 . S
C347 C345 1.327 . S
C348 C336 1.349 . S
C348 H342 0.950 . S
C348 C349 1.327 . S
C349 H343 0.950 . S
C349 C348 1.327 . S
C349 C353 1.429 . S
C350 C333 1.574 . S
C350 H344 0.949 . S
C350 C354 1.368 . S
C351 C332 1.429 . S
C351 C345 1.429 . S
C351 C352 1.523 . S
C352 C333 1.368 . S
C352 C346 1.368 . S
C352 C351 1.523 . S
C353 C337 1.429 . S
C353 C349 1.429 . S
C353 C354 1.523 . S
C354 C338 1.368 . S
C354 C350 1.368 . S
C354 C353 1.523 . S
H355 C330 0.950 . S
H356 C332 0.950 . S
H357 C333 0.949 . S
H358 C335 0.950 . S
H359 C337 0.950 . S
C360 C361 1.349 . S
C360 C362 1.327 . S
C360 H385 0.950 . S
C361 C360 1.349 . S
C361 C377 1.349 . S
C362 C360 1.327 . S
C362 C381 1.429 . S
C362 H386 0.950 . S
C363 C380 1.574 . S
C363 C382 1.368 . S
C363 H387 0.949 . S
H364 C368 0.949 . S
C365 C366 1.349 . S
C365 C367 1.327 . S
C365 H388 0.950 . S
C366 C365 1.349 . S
C366 C378 1.349 . S
C367 C365 1.327 . S
C367 C383 1.429 . S
C367 H389 0.950 . S
C368 H364 0.949 . S
C368 C376 1.574 . S
C368 C384 1.368 . S
H369 C377 0.950 . S
H370 C375 0.950 . S
H371 C376 0.949 . S
H372 C378 0.950 . S
H373 C379 0.950 . S
H374 C380 0.949 . S
C375 H370 0.950 . S
C375 C377 1.327 . S
C375 C381 1.429 . S
C376 C368 1.574 . S
C376 H371 0.949 . S
C376 C382 1.368 . S
C377 C361 1.349 . S
C377 H369 0.950 . S
C377 C375 1.327 . S
C378 C366 1.349 . S
C378 H372 0.950 . S
C378 C379 1.327 . S
C379 H373 0.950 . S
C379 C378 1.327 . S
C379 C383 1.429 . S
C380 C363 1.574 . S
C380 H374 0.949 . S
C380 C384 1.368 . S
C381 C362 1.429 . S
C381 C375 1.429 . S
C381 C382 1.523 . S
C382 C363 1.368 . S
C382 C376 1.368 . S
C382 C381 1.523 . S
C383 C367 1.429 . S
C383 C379 1.429 . S
C383 C384 1.523 . S
C384 C368 1.368 . S
C384 C380 1.368 . S
C384 C383 1.523 . S
H385 C360 0.950 . S
H386 C362 0.950 . S
H387 C363 0.949 . S
H388 C365 0.950 . S
H389 C367 0.950 . S
C390 C391 1.349 . S
C390 C392 1.327 . S
C390 H415 0.950 . S
C391 C390 1.349 . S
C391 C407 1.349 . S
C392 C390 1.327 . S
C392 C411 1.429 . S
C392 H416 0.950 . S
C393 C410 1.554 1_655 S
C393 C412 1.367 1_655 S
C393 H417 0.968 . S
H394 C398 0.949 . S
C395 C396 1.349 . S
C395 C397 1.327 . S
C395 H418 0.950 . S
C396 C395 1.349 . S
C396 C408 1.349 . S
C397 C395 1.327 . S
C397 C413 1.429 . S
C397 H419 0.950 . S
C398 H394 0.949 . S
C398 C406 1.574 . S
C398 C414 1.368 . S
H399 C407 0.950 . S
H400 C405 0.950 . S
H401 C406 0.949 . S
H402 C408 0.950 . S
H403 C409 0.950 . S
H404 C410 0.949 . S
C405 H400 0.950 . S
C405 C407 1.327 . S
C405 C411 1.429 . S
C406 C398 1.574 . S
C406 H401 0.949 . S
C406 C412 1.381 . S
C407 C391 1.349 . S
C407 H399 0.950 . S
C407 C405 1.327 . S
C408 C396 1.349 . S
C408 H402 0.950 . S
C408 C409 1.327 . S
C409 H403 0.950 . S
C409 C408 1.327 . S
C409 C413 1.429 . S
C410 C393 1.554 1_455 S
C410 H404 0.949 . S
C410 C414 1.368 . S
C411 C392 1.429 . S
C411 C405 1.429 . S
C411 C412 1.508 1_655 S
C412 C393 1.367 1_455 S
C412 C406 1.381 . S
C412 C411 1.508 1_455 S
C413 C397 1.429 . S
C413 C409 1.429 . S
C413 C414 1.523 . S
C414 C398 1.368 . S
C414 C410 1.368 . S
C414 C413 1.523 . S
H415 C390 0.950 . S
H416 C392 0.950 . S
H417 C393 0.968 . S
H418 C395 0.950 . S
H419 C397 0.950 . S
C420 C421 1.349 . S
C420 C422 1.327 . S
C420 H445 0.950 . S
C421 C420 1.349 . S
C421 C437 1.349 . S
C422 C420 1.327 . S
C422 C441 1.429 . S
C422 H446 0.950 . S
C423 C440 1.574 . S
C423 C442 1.368 . S
C423 H447 0.949 . S
H424 C428 0.949 . S
C425 C426 1.349 . S
C425 C427 1.327 . S
C425 H448 0.950 . S
C426 C425 1.349 . S
C426 C438 1.349 . S
C427 C425 1.327 . S
C427 C443 1.429 . S
C427 H449 0.950 . S
C428 H424 0.949 . S
C428 C436 1.574 . S
C428 C444 1.368 . S
H429 C437 0.950 . S
H430 C435 0.950 . S
H431 C436 0.949 . S
H432 C438 0.950 . S
H433 C439 0.950 . S
H434 C440 0.949 . S
C435 H430 0.950 . S
C435 C437 1.327 . S
C435 C441 1.429 . S
C436 C428 1.574 . S
C436 H431 0.949 . S
C436 C442 1.368 . S
C437 C421 1.349 . S
C437 H429 0.950 . S
C437 C435 1.327 . S
C438 C426 1.349 . S
C438 H432 0.950 . S
C438 C439 1.327 . S
C439 H433 0.950 . S
C439 C438 1.327 . S
C439 C443 1.429 . S
C440 C423 1.574 . S
C440 H434 0.949 . S
C440 C444 1.368 . S
C441 C422 1.429 . S
C441 C435 1.429 . S
C441 C442 1.523 . S
C442 C423 1.368 . S
C442 C436 1.368 . S
C442 C441 1.523 . S
C443 C427 1.429 . S
C443 C439 1.429 . S
C443 C444 1.523 . S
C444 C428 1.368 . S
C444 C440 1.368 . S
C444 C443 1.523 . S
H445 C420 0.950 . S
H446 C422 0.950 . S
H447 C423 0.949 . S
H448 C425 0.950 . S
H449 C427 0.950 . S
C450 C451 1.349 . S
C450 C452 1.327 . S
C450 H475 0.950 . S
C451 C450 1.349 . S
C451 C467 1.349 . S
C452 C450 1.327 . S
C452 C471 1.429 . S
C452 H476 0.950 . S
C453 C470 1.574 . S
C453 C472 1.368 . S
C453 H477 0.949 . S
H454 C458 0.949 . S
C455 C456 1.349 . S
C455 C457 1.327 . S
C455 H478 0.950 . S
C456 C455 1.349 . S
C456 C468 1.349 . S
C457 C455 1.327 . S
C457 C473 1.429 . S
C457 H479 0.950 . S
C458 H454 0.949 . S
C458 C466 1.574 . S
C458 C474 1.368 . S
H459 C467 0.950 . S
H460 C465 0.950 . S
H461 C466 0.949 1_455 S
H462 C468 0.950 . S
H463 C469 0.950 . S
H464 C470 0.949 . S
C465 H460 0.950 . S
C465 C467 1.327 . S
C465 C471 1.429 . S
C466 C458 1.574 . S
C466 H461 0.949 1_655 S
C466 C472 1.368 . S
C467 C451 1.349 . S
C467 H459 0.950 . S
C467 C465 1.327 . S
C468 C456 1.349 . S
C468 H462 0.950 . S
C468 C469 1.327 . S
C469 H463 0.950 . S
C469 C468 1.327 . S
C469 C473 1.429 . S
C470 C453 1.574 . S
C470 H464 0.949 . S
C470 C474 1.368 . S
C471 C452 1.429 . S
C471 C465 1.429 . S
C471 C472 1.523 1_455 S
C472 C453 1.368 . S
C472 C466 1.368 . S
C472 C471 1.523 1_655 S
C473 C457 1.429 . S
C473 C469 1.429 . S
C473 C474 1.523 . S
C474 C458 1.368 . S
C474 C470 1.368 . S
C474 C473 1.523 . S
H475 C450 0.950 . S
H476 C452 0.950 . S
H477 C453 0.949 . S
H478 C455 0.950 . S
H479 C457 0.950 . S
C480 C481 1.349 . S
C480 C482 1.327 . S
C480 H505 0.950 . S
C481 C480 1.349 . S
C481 C497 1.349 . S
C482 C480 1.327 . S
C482 C501 1.429 . S
C482 H506 0.950 . S
C483 C500 1.574 . S
C483 C502 1.370 . S
C483 H507 0.949 . S
H484 C488 0.949 . S
C485 C486 1.349 . S
C485 C487 1.327 . S
C485 H508 0.950 . S
C486 C485 1.349 . S
C486 C498 1.349 . S
C487 C485 1.327 . S
C487 C503 1.429 . S
C487 H509 0.950 . S
C488 H484 0.949 . S
C488 C496 1.574 1_565 S
C488 C504 1.368 . S
H489 C497 0.950 . S
H490 C495 0.950 . S
H491 C496 0.949 . S
H492 C498 0.950 . S
H493 C499 0.950 . S
H494 C500 0.949 . S
C495 H490 0.950 . S
C495 C497 1.327 . S
C495 C501 1.429 . S
C496 C488 1.574 1_545 S
C496 H491 0.949 . S
C496 C502 1.368 1_545 S
C497 C481 1.349 . S
C497 H489 0.950 . S
C497 C495 1.327 . S
C498 C486 1.349 . S
C498 H492 0.950 . S
C498 C499 1.327 . S
C499 H493 0.950 . S
C499 C498 1.327 . S
C499 C503 1.429 . S
C500 C483 1.574 . S
C500 H494 0.949 . S
C500 C504 1.368 . S
C501 C482 1.429 . S
C501 C495 1.429 . S
C501 C502 1.521 1_545 S
C502 C483 1.370 . S
C502 C496 1.368 1_565 S
C502 C501 1.521 1_565 S
C503 C487 1.429 . S
C503 C499 1.429 . S
C503 C504 1.523 . S
C504 C488 1.368 . S
C504 C500 1.368 . S
C504 C503 1.523 . S
H505 C480 0.950 . S
H506 C482 0.950 . S
H507 C483 0.949 . S
H508 C485 0.950 . S
H509 C487 0.950 . S
C510 C511 1.349 . S
C510 C512 1.327 . S
C510 H535 0.950 . S
C511 C510 1.349 . S
C511 C527 1.349 . S
C512 C510 1.327 . S
C512 C531 1.429 . S
C512 H536 0.950 . S
C513 C530 1.574 . S
C513 C532 1.368 . S
C513 H537 0.949 . S
H514 C518 0.949 . S
C515 C516 1.349 . S
C515 C517 1.327 . S
C515 H538 0.950 . S
C516 C515 1.349 . S
C516 C528 1.349 . S
C517 C515 1.327 . S
C517 C533 1.429 . S
C517 H539 0.950 . S
C518 H514 0.949 . S
C518 C526 1.574 . S
C518 C534 1.368 . S
H519 C527 0.950 . S
H520 C525 0.950 . S
H521 C526 0.949 . S
H522 C528 0.950 . S
H523 C529 0.950 . S
H524 C530 0.949 . S
C525 H520 0.950 . S
C525 C527 1.327 . S
C525 C531 1.429 . S
C526 C518 1.574 . S
C526 H521 0.949 . S
C526 C532 1.368 . S
C527 C511 1.349 . S
C527 H519 0.950 . S
C527 C525 1.327 . S
C528 C516 1.349 . S
C528 H522 0.950 . S
C528 C529 1.327 . S
C529 H523 0.950 . S
C529 C528 1.327 . S
C529 C533 1.429 . S
C530 C513 1.574 . S
C530 H524 0.949 . S
C530 C534 1.368 . S
C531 C512 1.429 . S
C531 C525 1.429 . S
C531 C532 1.523 . S
C532 C513 1.368 . S
C532 C526 1.368 . S
C532 C531 1.523 . S
C533 C517 1.429 . S
C533 C529 1.429 . S
C533 C534 1.523 . S
C534 C518 1.368 . S
C534 C530 1.368 . S
C534 C533 1.523 . S
H535 C510 0.950 . S
H536 C512 0.950 . S
H537 C513 0.949 . S
H538 C515 0.950 . S
H539 C517 0.950 . S
C540 C541 1.349 . S
C540 C542 1.327 . S
C540 H565 0.950 . S
C541 C540 1.349 . S
C541 C557 1.349 . S
C542 C540 1.327 . S
C542 C561 1.429 . S
C542 H566 0.950 . S
C543 C560 1.574 . S
C543 C562 1.368 . S
C543 H567 0.949 . S
H544 C548 0.949 . S
C545 C546 1.349 . S
C545 C547 1.327 . S
C545 H568 0.950 . S
C546 C545 1.349 . S
C546 C558 1.349 . S
C547 C545 1.327 . S
C547 C563 1.429 . S
C547 H569 0.950 . S
C548 H544 0.949 . S
C548 C556 1.574 1_545 S
C548 C564 1.368 . S
H549 C557 0.950 . S
H550 C555 0.950 1_545 S
H551 C556 0.949 . S
H552 C558 0.950 . S
H553 C559 0.950 . S
H554 C560 0.949 . S
C555 H550 0.950 1_565 S
C555 C557 1.327 . S
C555 C561 1.429 . S
C556 C548 1.574 1_565 S
C556 H551 0.949 . S
C556 C562 1.368 1_565 S
C557 C541 1.349 . S
C557 H549 0.950 . S
C557 C555 1.327 . S
C558 C546 1.349 . S
C558 H552 0.950 . S
C558 C559 1.327 . S
C559 H553 0.950 . S
C559 C558 1.327 . S
C559 C563 1.429 . S
C560 C543 1.574 . S
C560 H554 0.949 . S
C560 C564 1.368 . S
C561 C542 1.429 . S
C561 C555 1.429 . S
C561 C562 1.523 1_565 S
C562 C543 1.368 . S
C562 C556 1.368 1_545 S
C562 C561 1.523 1_545 S
C563 C547 1.429 . S
C563 C559 1.429 . S
C563 C564 1.523 . S
C564 C548 1.368 . S
C564 C560 1.368 . S
C564 C563 1.523 . S
H565 C540 0.950 . S
H566 C542 0.950 . S
H567 C543 0.949 . S
H568 C545 0.950 . S
H569 C547 0.950 . S
C570 C571 1.349 . S
C570 C572 1.327 . S
C570 H595 0.950 . S
C571 C570 1.349 . S
C571 C587 1.349 . S
C572 C570 1.327 . S
C572 C591 1.429 . S
C572 H596 0.950 . S
C573 C590 1.574 . S
C573 C592 1.368 . S
C573 H597 0.949 . S
H574 C578 0.949 . S
C575 C576 1.349 . S
C575 C577 1.327 . S
C575 H598 0.950 . S
C576 C575 1.349 . S
C576 C588 1.349 . S
C577 C575 1.327 . S
C577 C593 1.429 . S
C577 H599 0.950 . S
C578 H574 0.949 . S
C578 C586 1.574 . S
C578 C594 1.368 . S
H579 C587 0.950 . S
H580 C585 0.950 . S
H581 C586 0.949 . S
H582 C588 0.950 . S
H583 C589 0.950 . S
H584 C590 0.949 . S
C585 H580 0.950 . S
C585 C587 1.327 . S
C585 C591 1.429 . S
C586 C578 1.574 . S
C586 H581 0.949 . S
C586 C592 1.368 . S
C587 C571 1.349 . S
C587 H579 0.950 . S
C587 C585 1.327 . S
C588 C576 1.349 . S
C588 H582 0.950 . S
C588 C589 1.327 . S
C589 H583 0.950 . S
C589 C588 1.327 . S
C589 C593 1.429 . S
C590 C573 1.574 . S
C590 H584 0.949 . S
C590 C594 1.368 . S
C591 C572 1.429 . S
C591 C585 1.429 . S
C591 C592 1.523 . S
C592 C573 1.368 . S
C592 C586 1.368 . S
C592 C591 1.523 . S
C593 C577 1.429 . S
C593 C589 1.429 . S
C593 C594 1.523 . S
C594 C578 1.368 . S
C594 C590 1.368 . S
C594 C593 1.523 . S
H595 C570 0.950 . S
H596 C572 0.950 . S
H597 C573 0.949 . S
H598 C575 0.950 . S
H599 C577 0.950 . S
C600 C601 1.349 . S
C600 C602 1.327 . S
C600 H625 0.950 . S
C601 C600 1.349 . S
C601 C617 1.349 . S
C602 C600 1.327 . S
C602 C621 1.429 . S
C602 H626 0.950 . S
C603 C620 1.574 . S
C603 C622 1.368 . S
C603 H627 0.949 . S
H604 C608 0.949 . S
C605 C606 1.349 . S
C605 C607 1.327 . S
C605 H628 0.950 . S
C606 C605 1.349 . S
C606 C618 1.349 . S
C607 C605 1.327 . S
C607 C623 1.429 . S
C607 H629 0.950 . S
C608 H604 0.949 . S
C608 C616 1.574 . S
C608 C624 1.368 . S
H609 C617 0.950 . S
H610 C615 0.950 . S
H611 C616 0.949 . S
H612 C618 0.950 . S
H613 C619 0.950 . S
H614 C620 0.949 . S
C615 H610 0.950 . S
C615 C617 1.327 . S
C615 C621 1.429 . S
C616 C608 1.574 . S
C616 H611 0.949 . S
C616 C622 1.368 . S
C617 C601 1.349 . S
C617 H609 0.950 . S
C617 C615 1.327 . S
C618 C606 1.349 . S
C618 H612 0.950 . S
C618 C619 1.327 . S
C619 H613 0.950 . S
C619 C618 1.327 . S
C619 C623 1.429 . S
C620 C603 1.574 . S
C620 H614 0.949 . S
C620 C624 1.368 . S
C621 C602 1.429 . S
C621 C615 1.429 . S
C621 C622 1.523 . S
C622 C603 1.368 . S
C622 C616 1.368 . S
C622 C621 1.523 . S
C623 C607 1.429 . S
C623 C619 1.429 . S
C623 C624 1.523 . S
C624 C608 1.368 . S
C624 C620 1.368 . S
C624 C623 1.523 . S
H625 C600 0.950 . S
H626 C602 0.950 . S
H627 C603 0.949 . S
H628 C605 0.950 . S
H629 C607 0.950 . S
C630 C631 1.349 . S
C630 C632 1.327 . S
C630 H655 0.950 . S
C631 C630 1.349 . S
C631 C647 1.349 . S
C632 C630 1.327 . S
C632 C651 1.429 . S
C632 H656 0.950 . S
C633 C650 1.574 . S
C633 C652 1.368 . S
C633 H657 0.949 . S
H634 C638 0.949 . S
C635 C636 1.349 . S
C635 C637 1.327 . S
C635 H658 0.950 . S
C636 C635 1.349 . S
C636 C648 1.349 . S
C637 C635 1.327 . S
C637 C653 1.429 . S
C637 H659 0.950 . S
C638 H634 0.949 . S
C638 C646 1.574 . S
C638 C654 1.368 . S
H639 C647 0.950 . S
H640 C645 0.950 . S
H641 C646 0.949 1_455 S
H642 C648 0.950 . S
H643 C649 0.950 . S
H644 C650 0.949 . S
C645 H640 0.950 . S
C645 C647 1.327 . S
C645 C651 1.429 . S
C646 C638 1.574 . S
C646 H641 0.949 1_655 S
C646 C652 1.368 . S
C647 C631 1.349 . S
C647 H639 0.950 . S
C647 C645 1.327 . S
C648 C636 1.349 . S
C648 H642 0.950 . S
C648 C649 1.327 . S
C649 H643 0.950 . S
C649 C648 1.327 . S
C649 C653 1.429 . S
C650 C633 1.574 . S
C650 H644 0.949 . S
C650 C654 1.368 . S
C651 C632 1.429 . S
C651 C645 1.429 . S
C651 C652 1.523 1_455 S
C652 C633 1.368 . S
C652 C646 1.368 . S
C652 C651 1.523 1_655 S
C653 C637 1.429 . S
C653 C649 1.429 . S
C653 C654 1.523 . S
C654 C638 1.368 . S
C654 C650 1.368 . S
C654 C653 1.523 . S
H655 C630 0.950 . S
H656 C632 0.950 . S
H657 C633 0.949 . S
H658 C635 0.950 . S
H659 C637 0.950 . S
C660 C661 1.349 . S
C660 C662 1.327 . S
C660 H685 0.950 . S
C661 C660 1.349 . S
C661 C677 1.349 . S
C662 C660 1.327 . S
C662 C681 1.429 . S
C662 H686 0.950 . S
C663 C680 1.574 . S
C663 C682 1.368 . S
C663 H687 0.949 . S
H664 C668 0.949 . S
C665 C666 1.349 . S
C665 C667 1.327 . S
C665 H688 0.950 . S
C666 C665 1.349 . S
C666 C678 1.349 . S
C667 C665 1.327 . S
C667 C683 1.429 . S
C667 H689 0.950 . S
C668 H664 0.949 . S
C668 C676 1.574 . S
C668 C684 1.368 . S
H669 C677 0.950 . S
H670 C675 0.950 . S
H671 C676 0.949 . S
H672 C678 0.950 . S
H673 C679 0.950 . S
H674 C680 0.949 . S
C675 H670 0.950 . S
C675 C677 1.327 . S
C675 C681 1.429 . S
C676 C668 1.574 . S
C676 H671 0.949 . S
C676 C682 1.368 . S
C677 C661 1.349 . S
C677 H669 0.950 . S
C677 C675 1.327 . S
C678 C666 1.349 . S
C678 H672 0.950 . S
C678 C679 1.327 . S
C679 H673 0.950 . S
C679 C678 1.327 . S
C679 C683 1.429 . S
C680 C663 1.574 . S
C680 H674 0.949 . S
C680 C684 1.368 . S
C681 C662 1.429 . S
C681 C675 1.429 . S
C681 C682 1.523 . S
C682 C663 1.368 . S
C682 C676 1.368 . S
C682 C681 1.523 . S
C683 C667 1.429 . S
C683 C679 1.429 . S
C683 C684 1.523 . S
C684 C668 1.368 . S
C684 C680 1.368 . S
C684 C683 1.523 . S
H685 C660 0.950 . S
H686 C662 0.950 . S
H687 C663 0.949 . S
H688 C665 0.950 . S
H689 C667 0.950 . S
C690 C691 1.349 . S
C690 C692 1.327 . S
C690 H715 0.950 . S
C691 C690 1.349 . S
C691 C707 1.349 . S
C692 C690 1.327 . S
C692 C711 1.429 . S
C692 H716 0.950 . S
C693 C710 1.574 . S
C693 C712 1.380 . S
C693 H717 0.949 . S
H694 C698 0.949 . S
C695 C696 1.349 . S
C695 C697 1.327 . S
C695 H718 0.950 . S
C696 C695 1.349 . S
C696 C708 1.349 . S
C697 C695 1.327 . S
C697 C713 1.429 . S
C697 H719 0.950 . S
C698 H694 0.949 . S
C698 C706 1.584 . S
C698 C714 1.368 . S
H699 C707 0.950 . S
H700 C705 0.950 . S
H701 C706 0.940 1_655 S
H702 C708 0.950 . S
H703 C709 0.950 . S
H704 C710 0.949 . S
C705 H700 0.950 . S
C705 C707 1.327 . S
C705 C711 1.429 . S
C706 C698 1.584 . S
C706 H701 0.940 1_455 S
C706 C712 1.368 . S
C707 C691 1.349 . S
C707 H699 0.950 . S
C707 C705 1.327 . S
C708 C696 1.349 . S
C708 H702 0.950 . S
C708 C709 1.327 . S
C709 H703 0.950 . S
C709 C708 1.327 . S
C709 C713 1.429 . S
C710 C693 1.574 . S
C710 H704 0.949 . S
C710 C714 1.368 . S
C711 C692 1.429 . S
C711 C705 1.429 . S
C711 C712 1.508 1_655 S
C712 C693 1.380 . S
C712 C706 1.368 . S
C712 C711 1.508 1_455 S
C713 C697 1.429 . S
C713 C709 1.429 . S
C713 C714 1.523 . S
C714 C698 1.368 . S
C714 C710 1.368 . S
C714 C713 1.523 . S
H715 C690 0.950 . S
H716 C692 0.950 . S
H717 C693 0.949 . S
H718 C695 0.950 . S
H719 C697 0.950 . S
C720 C721 1.349 . S
C720 C722 1.327 . S
C720 H745 0.950 . S
C721 C720 1.349 . S
C721 C737 1.349 . S
C722 C720 1.327 . S
C722 C741 1.429 . S
C722 H746 0.950 . S
C723 C740 1.574 . S
C723 C742 1.368 . S
C723 H747 0.949 . S
H724 C728 0.949 . S
C725 C726 1.349 . S
C725 C727 1.327 . S
C725 H748 0.950 . S
C726 C725 1.349 . S
C726 C738 1.349 . S
C727 C725 1.327 . S
C727 C743 1.429 . S
C727 H749 0.950 . S
C728 H724 0.949 . S
C728 C736 1.574 . S
C728 C744 1.368 . S
H729 C737 0.950 . S
H730 C735 0.950 . S
H731 C736 0.949 . S
H732 C738 0.950 . S
H733 C739 0.950 . S
H734 C740 0.949 . S
C735 H730 0.950 . S
C735 C737 1.327 . S
C735 C741 1.429 . S
C736 C728 1.574 . S
C736 H731 0.949 . S
C736 C742 1.368 . S
C737 C721 1.349 . S
C737 H729 0.950 . S
C737 C735 1.327 . S
C738 C726 1.349 . S
C738 H732 0.950 . S
C738 C739 1.327 . S
C739 H733 0.950 . S
C739 C738 1.327 . S
C739 C743 1.429 . S
C740 C723 1.574 . S
C740 H734 0.949 . S
C740 C744 1.368 . S
C741 C722 1.429 . S
C741 C735 1.429 . S
C741 C742 1.523 . S
C742 C723 1.368 . S
C742 C736 1.368 . S
C742 C741 1.523 . S
C743 C727 1.429 . S
C743 C739 1.429 . S
C743 C744 1.523 . S
C744 C728 1.368 . S
C744 C740 1.368 . S
C744 C743 1.523 . S
H745 C720 0.950 . S
H746 C722 0.950 . S
H747 C723 0.949 . S
H748 C725 0.950 . S
H749 C727 0.950 . S
C750 C751 1.349 . S
C750 C752 1.327 . S
C750 H775 0.950 . S
C751 C750 1.349 . S
C751 C767 1.349 . S
C752 C750 1.327 . S
C752 C771 1.429 . S
C752 H776 0.950 . S
C753 C770 1.574 . S
C753 C772 1.368 . S
C753 H777 0.949 . S
H754 C758 0.949 . S
C755 C756 1.349 . S
C755 C757 1.327 . S
C755 H778 0.950 . S
C756 C755 1.349 . S
C756 C768 1.349 . S
C757 C755 1.327 . S
C757 C773 1.429 . S
C757 H779 0.950 . S
C758 H754 0.949 . S
C758 C766 1.574 . S
C758 C774 1.368 . S
H759 C767 0.950 . S
H760 C765 0.950 . S
H761 C766 0.949 . S
H762 C768 0.950 . S
H763 C769 0.950 . S
H764 C770 0.949 . S
C765 H760 0.950 . S
C765 C767 1.327 . S
C765 C771 1.429 . S
C766 C758 1.574 . S
C766 H761 0.949 . S
C766 C772 1.368 . S
C767 C751 1.349 . S
C767 H759 0.950 . S
C767 C765 1.327 . S
C768 C756 1.349 . S
C768 H762 0.950 . S
C768 C769 1.327 . S
C769 H763 0.950 . S
C769 C768 1.327 . S
C769 C773 1.429 . S
C770 C753 1.574 . S
C770 H764 0.949 . S
C770 C774 1.368 . S
C771 C752 1.429 . S
C771 C765 1.429 . S
C771 C772 1.523 . S
C772 C753 1.368 . S
C772 C766 1.368 . S
C772 C771 1.523 . S
C773 C757 1.429 . S
C773 C769 1.429 . S
C773 C774 1.523 . S
C774 C758 1.368 . S
C774 C770 1.368 . S
C774 C773 1.523 . S
H775 C750 0.950 . S
H776 C752 0.950 . S
H777 C753 0.949 . S
H778 C755 0.950 . S
H779 C757 0.950 . S
C780 C781 1.349 . S
C780 C782 1.327 . S
C780 H805 0.950 . S
C781 C780 1.349 . S
C781 C797 1.349 . S
C782 C780 1.327 . S
C782 C801 1.429 . S
C782 H806 0.950 . S
C783 C800 1.574 . S
C783 C802 1.368 . S
C783 H807 0.949 . S
H784 C788 0.949 . S
C785 C786 1.349 . S
C785 C787 1.327 . S
C785 H808 0.950 . S
C786 C785 1.349 . S
C786 C798 1.349 . S
C787 C785 1.327 . S
C787 C803 1.429 . S
C787 H809 0.950 . S
C788 H784 0.949 . S
C788 C796 1.574 . S
C788 C804 1.368 . S
H789 C797 0.950 . S
H790 C795 0.950 . S
H791 C796 0.949 . S
H792 C798 0.950 . S
H793 C799 0.950 . S
H794 C800 0.949 . S
C795 H790 0.950 . S
C795 C797 1.327 . S
C795 C801 1.429 . S
C796 C788 1.574 . S
C796 H791 0.949 . S
C796 C802 1.368 . S
C797 C781 1.349 . S
C797 H789 0.950 . S
C797 C795 1.327 . S
C798 C786 1.349 . S
C798 H792 0.950 . S
C798 C799 1.327 . S
C799 H793 0.950 . S
C799 C798 1.327 . S
C799 C803 1.429 . S
C800 C783 1.574 . S
C800 H794 0.949 . S
C800 C804 1.368 . S
C801 C782 1.429 . S
C801 C795 1.429 . S
C801 C802 1.523 . S
C802 C783 1.368 . S
C802 C796 1.368 . S
C802 C801 1.523 . S
C803 C787 1.429 . S
C803 C799 1.429 . S
C803 C804 1.523 . S
C804 C788 1.368 . S
C804 C800 1.368 . S
C804 C803 1.523 . S
H805 C780 0.950 . S
H806 C782 0.950 . S
H807 C783 0.949 . S
H808 C785 0.950 . S
H809 C787 0.950 . S
C810 C811 1.349 . S
C810 C812 1.327 . S
C810 H835 0.950 . S
C811 C810 1.349 . S
C811 C827 1.349 . S
C812 C810 1.327 . S
C812 C831 1.429 . S
C812 H836 0.950 . S
C813 C830 1.574 . S
C813 C832 1.368 . S
C813 H837 0.949 . S
H814 C818 0.949 . S
C815 C816 1.349 . S
C815 C817 1.327 . S
C815 H838 0.950 . S
C816 C815 1.349 . S
C816 C828 1.349 . S
C817 C815 1.327 . S
C817 C833 1.429 . S
C817 H839 0.950 . S
C818 H814 0.949 . S
C818 C826 1.574 . S
C818 C834 1.368 . S
H819 C827 0.950 . S
H820 C825 0.950 . S
H821 C826 0.949 . S
H822 C828 0.950 . S
H823 C829 0.950 . S
H824 C830 0.949 . S
C825 H820 0.950 . S
C825 C827 1.327 . S
C825 C831 1.429 . S
C826 C818 1.574 . S
C826 H821 0.949 . S
C826 C832 1.368 . S
C827 C811 1.349 . S
C827 H819 0.950 . S
C827 C825 1.327 . S
C828 C816 1.349 . S
C828 H822 0.950 . S
C828 C829 1.327 . S
C829 H823 0.950 . S
C829 C828 1.327 . S
C829 C833 1.429 . S
C830 C813 1.574 . S
C830 H824 0.949 . S
C830 C834 1.368 . S
C831 C812 1.429 . S
C831 C825 1.429 . S
C831 C832 1.523 . S
C832 C813 1.368 . S
C832 C826 1.368 . S
C832 C831 1.523 . S
C833 C817 1.429 . S
C833 C829 1.429 . S
C833 C834 1.523 . S
C834 C818 1.368 . S
C834 C830 1.368 . S
C834 C833 1.523 . S
H835 C810 0.950 . S
H836 C812 0.950 . S
H837 C813 0.949 . S
H838 C815 0.950 . S
H839 C817 0.950 . S
C840 C841 1.349 . S
C840 C842 1.327 . S
C840 H865 0.950 . S
C841 C840 1.349 . S
C841 C857 1.349 . S
C842 C840 1.327 . S
C842 C861 1.429 . S
C842 H866 0.950 . S
C843 C860 1.574 . S
C843 C862 1.368 . S
C843 H867 0.949 . S
H844 C848 0.949 . S
C845 C846 1.349 . S
C845 C847 1.327 . S
C845 H868 0.950 . S
C846 C845 1.349 . S
C846 C858 1.349 . S
C847 C845 1.327 . S
C847 C863 1.429 . S
C847 H869 0.950 . S
C848 H844 0.949 . S
C848 C856 1.574 . S
C848 C864 1.368 . S
H849 C857 0.950 . S
H850 C855 0.950 . S
H851 C856 0.949 . S
H852 C858 0.950 . S
H853 C859 0.950 . S
H854 C860 0.949 . S
C855 H850 0.950 . S
C855 C857 1.327 . S
C855 C861 1.429 . S
C856 C848 1.574 . S
C856 H851 0.949 . S
C856 C862 1.368 . S
C857 C841 1.349 . S
C857 H849 0.950 . S
C857 C855 1.327 . S
C858 C846 1.349 . S
C858 H852 0.950 . S
C858 C859 1.327 . S
C859 H853 0.950 . S
C859 C858 1.327 . S
C859 C863 1.429 . S
C860 C843 1.574 . S
C860 H854 0.949 . S
C860 C864 1.368 . S
C861 C842 1.429 . S
C861 C855 1.429 . S
C861 C862 1.523 . S
C862 C843 1.368 . S
C862 C856 1.368 . S
C862 C861 1.523 . S
C863 C847 1.429 . S
C863 C859 1.429 . S
C863 C864 1.523 . S
C864 C848 1.368 . S
C864 C860 1.368 . S
C864 C863 1.523 . S
H865 C840 0.950 . S
H866 C842 0.950 . S
H867 C843 0.949 . S
H868 C845 0.950 . S
H869 C847 0.950 . S
C870 C871 1.349 . S
C870 C872 1.327 . S
C870 H895 0.950 . S
C871 C870 1.349 . S
C871 C887 1.349 . S
C872 C870 1.327 . S
C872 C891 1.429 . S
C872 H896 0.950 . S
C873 C890 1.574 . S
C873 C892 1.368 . S
C873 H897 0.949 . S
H874 C878 0.949 . S
C875 C876 1.349 . S
C875 C877 1.327 . S
C875 H898 0.950 . S
C876 C875 1.349 . S
C876 C888 1.349 . S
C877 C875 1.327 . S
C877 C893 1.429 . S
C877 H899 0.950 . S
C878 H874 0.949 . S
C878 C886 1.574 . S
C878 C894 1.368 . S
H879 C887 0.950 . S
H880 C885 0.950 . S
H881 C886 0.949 . S
H882 C888 0.950 . S
H883 C889 0.950 . S
H884 C890 0.949 . S
C885 H880 0.950 . S
C885 C887 1.327 . S
C885 C891 1.429 . S
C886 C878 1.574 . S
C886 H881 0.949 . S
C886 C892 1.368 . S
C887 C871 1.349 . S
C887 H879 0.950 . S
C887 C885 1.327 . S
C888 C876 1.349 . S
C888 H882 0.950 . S
C888 C889 1.327 . S
C889 H883 0.950 . S
C889 C888 1.327 . S
C889 C893 1.429 . S
C890 C873 1.574 . S
C890 H884 0.949 . S
C890 C894 1.368 . S
C891 C872 1.429 . S
C891 C885 1.429 . S
C891 C892 1.523 . S
C892 C873 1.368 . S
C892 C886 1.368 . S
C892 C891 1.523 . S
C893 C877 1.429 . S
C893 C889 1.429 . S
C893 C894 1.523 . S
C894 C878 1.368 . S
C894 C890 1.368 . S
C894 C893 1.523 . S
H895 C870 0.950 . S
H896 C872 0.950 . S
H897 C873 0.949 . S
H898 C875 0.950 . S
H899 C877 0.950 . S
C900 C901 1.349 . S
C900 C902 1.327 . S
C900 H925 0.950 . S
C901 C900 1.349 . S
C901 C917 1.349 . S
C902 C900 1.327 . S
C902 C921 1.429 . S
C902 H926 0.950 . S
C903 C920 1.574 . S
C903 C922 1.368 . S
C903 H927 0.949 . S
H904 C908 0.949 . S
C905 C906 1.349 . S
C905 C907 1.327 . S
C905 H928 0.950 . S
C906 C905 1.349 . S
C906 C918 1.349 . S
C907 C905 1.327 . S
C907 C923 1.429 . S
C907 H929 0.950 . S
C908 H904 0.949 . S
C908 C916 1.574 . S
C908 C924 1.368 . S
H909 C917 0.950 . S
H910 C915 0.950 . S
H911 C916 0.949 . S
H912 C918 0.950 . S
H913 C919 0.950 . S
H914 C920 0.949 . S
C915 H910 0.950 . S
C915 C917 1.327 . S
C915 C921 1.429 . S
C916 C908 1.574 . S
C916 H911 0.949 . S
C916 C922 1.368 . S
C917 C901 1.349 . S
C917 H909 0.950 . S
C917 C915 1.327 . S
C918 C906 1.349 . S
C918 H912 0.950 . S
C918 C919 1.327 . S
C919 H913 0.950 . S
C919 C918 1.327 . S
C919 C923 1.429 . S
C920 C903 1.574 . S
C920 H914 0.949 . S
C920 C924 1.368 . S
C921 C902 1.429 . S
C921 C915 1.429 . S
C921 C922 1.523 . S
C922 C903 1.368 . S
C922 C916 1.368 . S
C922 C921 1.523 . S
C923 C907 1.429 . S
C923 C919 1.429 . S
C923 C924 1.523 . S
C924 C908 1.368 . S
C924 C920 1.368 . S
C924 C923 1.523 . S
H925 C900 0.950 . S
H926 C902 0.950 . S
H927 C903 0.949 . S
H928 C905 0.950 . S
H929 C907 0.950 . S
C930 C931 1.349 . S
C930 C932 1.327 . S
C930 H955 0.950 . S
C931 C930 1.349 . S
C931 C947 1.349 . S
C932 C930 1.327 . S
C932 C951 1.429 . S
C932 H956 0.950 . S
C933 C950 1.574 . S
C933 C952 1.368 . S
C933 H957 0.949 . S
H934 C938 0.949 . S
C935 C936 1.349 . S
C935 C937 1.327 . S
C935 H958 0.950 . S
C936 C935 1.349 . S
C936 C948 1.349 . S
C937 C935 1.327 . S
C937 C953 1.429 . S
C937 H959 0.950 . S
C938 H934 0.949 . S
C938 C946 1.574 . S
C938 C954 1.368 . S
H939 C947 0.950 . S
H940 C945 0.950 . S
H941 C946 0.949 . S
H942 C948 0.950 . S
H943 C949 0.950 . S
H944 C950 0.949 . S
C945 H940 0.950 . S
C945 C947 1.327 . S
C945 C951 1.429 . S
C946 C938 1.574 . S
C946 H941 0.949 . S
C946 C952 1.368 . S
C947 C931 1.349 . S
C947 H939 0.950 . S
C947 C945 1.327 . S
C948 C936 1.349 . S
C948 H942 0.950 . S
C948 C949 1.327 . S
C949 H943 0.950 . S
C949 C948 1.327 . S
C949 C953 1.429 . S
C950 C933 1.574 . S
C950 H944 0.949 . S
C950 C954 1.368 . S
C951 C932 1.429 . S
C951 C945 1.429 . S
C951 C952 1.523 . S
C952 C933 1.368 . S
C952 C946 1.368 . S
C952 C951 1.523 . S
C953 C937 1.429 . S
C953 C949 1.429 . S
C953 C954 1.523 . S
C954 C938 1.368 . S
C954 C950 1.368 . S
C954 C953 1.523 . S
H955 C930 0.950 . S
H956 C932 0.950 . S
H957 C933 0.949 . S
H958 C935 0.950 . S
H959 C937 0.950 . S
C241 C8 1.366 . S
C246 C90 1.300 . S
C271 C31 1.431 . S
C276 C109 1.361 . S
C301 C53 1.182 . S
C306 C132 1.178 . S
C336 C151 1.113 . S
C331 C74 1.116 . S
C366 C166 1.300 . S
C361 C26 1.367 . S
C391 C48 1.116 . S
C396 C189 1.113 . S
C421 C71 1.182 . S
C426 C208 1.178 . S
C451 C5 1.432 . S
C456 C223 1.361 . S
C481 C50 1.182 . S
C486 C227 1.179 . S
C516 C170 1.114 . S
C511 C70 1.116 . S
C546 C185 1.300 . S
C541 C4 1.367 . S
C571 C28 1.431 . S
C576 C204 1.361 . S
C606 C113 1.179 . S
C601 C73 1.182 . S
C631 C7 1.431 . S
C636 C128 1.361 . S
C666 C147 1.300 . S
C661 C30 1.366 . S
C696 C94 1.114 . S
C691 C52 1.116 . S
C726 C213 1.266 . S
C721 C9 1.369 . S
C756 C232 1.272 . S
C751 C29 1.369 . S
C781 C51 1.262 . S
C786 C175 1.172 . S
C816 C194 1.168 . S
C811 C75 1.262 . S
C846 C137 1.266 . S
C841 C27 1.369 . S
C871 C49 1.262 . S
C876 C156 1.169 . S
C906 C99 1.172 . S
C901 C72 1.262 . S
C936 C118 1.272 . S
C931 C6 1.369 . S
