# Generated by pormake.
# Topology zzz, (3,6)-cn, num edge types: 1
# Building blocks:
#     Node 0, Type 0, BuildingBlock: PAMTOO_clean_linker_0, # of connection points: 3
#     Node 1, Type 0, BuildingBlock: PAMTOO_clean_linker_0, # of connection points: 3
#     Node 2, Type 0, BuildingBlock: PAMTOO_clean_linker_0, # of connection points: 3
#     Node 3, Type 0, BuildingBlock: PAMTOO_clean_linker_0, # of connection points: 3
#     Node 4, Type 0, BuildingBlock: PAMTOO_clean_linker_0, # of connection points: 3
#     Node 5, Type 0, BuildingBlock: PAMTOO_clean_linker_0, # of connection points: 3
#     Node 6, Type 0, BuildingBlock: PAMTOO_clean_linker_0, # of connection points: 3
#     Node 7, Type 0, BuildingBlock: PAMTOO_clean_linker_0, # of connection points: 3
#     Node 8, Type 1, BuildingBlock: HISSIN_clean_sbu_0, # of connection points: 6
#     Node 9, Type 1, BuildingBlock: HISSIN_clean_sbu_0, # of connection points: 6
#     Node 10, Type 1, BuildingBlock: HISSIN_clean_sbu_0, # of connection points: 6
#     Node 11, Type 1, BuildingBlock: HISSIN_clean_sbu_0, # of connection points: 6
#     Edge 12, Type (0, 1), BuildingBlock: XIVTED_clean_linker_0, # of connection points: 2
#     Edge 13, Type (0, 1), BuildingBlock: XIVTED_clean_linker_0, # of connection points: 2
#     Edge 14, Type (0, 1), BuildingBlock: XIVTED_clean_linker_0, # of connection points: 2
#     Edge 15, Type (0, 1), BuildingBlock: XIVTED_clean_linker_0, # of connection points: 2
#     Edge 16, Type (0, 1), BuildingBlock: XIVTED_clean_linker_0, # of connection points: 2
#     Edge 17, Type (0, 1), BuildingBlock: XIVTED_clean_linker_0, # of connection points: 2
#     Edge 18, Type (0, 1), BuildingBlock: XIVTED_clean_linker_0, # of connection points: 2
#     Edge 19, Type (0, 1), BuildingBlock: XIVTED_clean_linker_0, # of connection points: 2
#     Edge 20, Type (0, 1), BuildingBlock: XIVTED_clean_linker_0, # of connection points: 2
#     Edge 21, Type (0, 1), BuildingBlock: XIVTED_clean_linker_0, # of connection points: 2
#     Edge 22, Type (0, 1), BuildingBlock: XIVTED_clean_linker_0, # of connection points: 2
#     Edge 23, Type (0, 1), BuildingBlock: XIVTED_clean_linker_0, # of connection points: 2
#     Edge 24, Type (0, 1), BuildingBlock: XIVTED_clean_linker_0, # of connection points: 2
#     Edge 25, Type (0, 1), BuildingBlock: XIVTED_clean_linker_0, # of connection points: 2
#     Edge 26, Type (0, 1), BuildingBlock: XIVTED_clean_linker_0, # of connection points: 2
#     Edge 27, Type (0, 1), BuildingBlock: XIVTED_clean_linker_0, # of connection points: 2
#     Edge 28, Type (0, 1), BuildingBlock: XIVTED_clean_linker_0, # of connection points: 2
#     Edge 29, Type (0, 1), BuildingBlock: XIVTED_clean_linker_0, # of connection points: 2
#     Edge 30, Type (0, 1), BuildingBlock: XIVTED_clean_linker_0, # of connection points: 2
#     Edge 31, Type (0, 1), BuildingBlock: XIVTED_clean_linker_0, # of connection points: 2
#     Edge 32, Type (0, 1), BuildingBlock: XIVTED_clean_linker_0, # of connection points: 2
#     Edge 33, Type (0, 1), BuildingBlock: XIVTED_clean_linker_0, # of connection points: 2
#     Edge 34, Type (0, 1), BuildingBlock: XIVTED_clean_linker_0, # of connection points: 2
#     Edge 35, Type (0, 1), BuildingBlock: XIVTED_clean_linker_0, # of connection points: 2
# Relax obj value: 0.264
# Max RMSD: 0.185
# Mean RMSD: 0.094
data_MOF--net-zzz--node1-HISSIN_clean_sbu_0--node2-PAMTOO_clean_linker_0--edge1-XIVTED_clean_linker_0
_symmetry_space_group_name_H-M    P1
_symmetry_Int_Tables_number       1
_symmetry_cell_setting            triclinic
loop_
_symmetry_equiv_pos_as_xyz
'x, y, z'
_cell_length_a     49.830796
_cell_length_b     49.598183
_cell_length_c     16.211667
_cell_angle_alpha  90.285032
_cell_angle_beta   90.297765
_cell_angle_gamma 90.068594
loop_
_atom_site_label
_atom_site_type_symbol
_atom_site_fract_x
_atom_site_fract_y
_atom_site_fract_z
_atom_type_partial_charge
H0 H 0.82901 0.48457 0.3039 0.0
H1 H 0.75769 0.50148 0.16297 0.0
H2 H 0.77808 0.55086 0.37299 0.0
H3 H 0.71126 0.54781 0.32693 0.0
C4 C 0.71711 0.53538 0.27272 0.0
O5 O 0.74293 0.54272 0.25019 0.0
H6 H 0.71634 0.51385 0.29175 0.0
C7 C 0.81068 0.49599 0.29522 0.0
C8 C 0.80546 0.51783 0.34814 0.0
C9 C 0.79381 0.48999 0.22785 0.0
C10 C 0.77089 0.50578 0.21467 0.0
C11 C 0.76489 0.52742 0.26709 0.0
C12 C 0.78236 0.53371 0.3336 0.0
H13 H 0.97975 0.8276 0.28705 0.0
H14 H 0.99521 0.74723 0.19878 0.0
H15 H 0.02018 0.77047 0.44298 0.0
H16 H 0.98671 0.70968 0.34931 0.0
C17 C 1.00823 0.70671 0.33329 0.0
O18 O 0.0211 0.73151 0.32623 0.0
H19 H 1.01754 0.69565 0.38543 0.0
C20 C 0.98646 0.80717 0.29846 0.0
C21 C 0.99855 0.80138 0.37493 0.0
C22 C 0.98549 0.78807 0.23393 0.0
C23 C 0.99566 0.76221 0.24766 0.0
C24 C 1.00818 0.75566 0.3219 0.0
C25 C 1.00979 0.77528 0.38613 0.0
H26 H 0.72942 0.99003 0.24333 0.0
H27 H 0.81206 0.99448 0.17114 0.0
H28 H 0.78937 1.01647 0.41839 0.0
H29 H 0.85412 0.04379 0.33487 0.0
C30 C 0.84317 0.03433 0.28235 0.0
O31 O 0.83027 1.01133 0.31092 0.0
H32 H 0.82828 0.04962 0.26138 0.0
C33 C 0.75028 0.99346 0.25964 0.0
C34 C 0.75665 1.00231 0.33989 0.0
C35 C 0.76997 0.99112 0.19831 0.0
C36 C 0.79675 0.99638 0.21807 0.0
C37 C 0.80391 1.00581 0.29629 0.0
C38 C 0.78381 1.00917 0.3576 0.0
H39 H 0.4815 0.74016 0.31566 0.0
H40 H 0.49451 0.80968 0.16327 0.0
H41 H 0.55053 0.79063 0.35691 0.0
H42 H 0.54877 0.85739 0.30362 0.0
C43 C 0.53381 0.85118 0.2561 0.0
O44 O 0.53883 0.82459 0.23397 0.0
H45 H 0.51366 0.85322 0.28495 0.0
C46 C 0.49267 0.75834 0.30173 0.0
C47 C 0.51629 0.76372 0.34629 0.0
C48 C 0.48466 0.77453 0.23508 0.0
C49 C 0.50019 0.79715 0.21492 0.0
C50 C 0.5236 0.80339 0.25915 0.0
C51 C 0.53192 0.78642 0.32451 0.0
H52 H 0.23222 0.57558 0.14864 0.0
H53 H 0.31195 0.57035 0.24948 0.0
H54 H 0.28926 0.52063 0.0418 0.0
H55 H 0.3393 0.49403 0.15388 0.0
C56 C 0.33565 0.51158 0.19517 0.0
O57 O 0.32872 0.53355 0.14693 0.0
H58 H 0.31883 0.5057 0.23648 0.0
C59 C 0.25232 0.56722 0.14654 0.0
C60 C 0.25824 0.54735 0.08761 0.0
C61 C 0.27145 0.57563 0.20497 0.0
C62 C 0.29712 0.56417 0.2041 0.0
C63 C 0.30369 0.5444 0.14556 0.0
C64 C 0.28428 0.5361 0.08653 0.0
H65 H 0.08166 0.24151 0.14893 0.0
H66 H 0.07161 0.32146 0.24578 0.0
H67 H 0.03674 0.30005 1.01042 0.0
H68 H 1.01114 0.33096 0.19907 0.0
C69 C 0.02092 0.34814 0.16688 0.0
O70 O 0.04348 0.33956 0.12393 0.0
H71 H 1.0059 0.35559 0.12154 0.0
C72 C 0.07478 0.26205 0.14064 0.0
C73 C 0.06 0.26835 0.06939 0.0
C74 C 0.0788 0.2808 0.20468 0.0
C75 C 0.06869 0.30689 0.19649 0.0
C76 C 0.05334 0.31398 0.12755 0.0
C77 C 0.04865 0.29459 0.06381 0.0
H78 H 0.32322 0.98833 0.11862 0.0
H79 H 0.2494 1.00128 0.24967 0.0
H80 H 0.27498 0.05819 0.06647 0.0
H81 H 0.23079 0.0839 0.21563 0.0
C82 C 0.23362 0.06333 0.24093 0.0
O83 O 0.23645 0.04539 0.17533 0.0
H84 H 0.25236 0.06402 0.27875 0.0
C85 C 0.30506 0.99992 0.12843 0.0
C86 C 0.30125 0.02369 0.08334 0.0
C87 C 0.28683 0.99188 0.1895 0.0
C88 C 0.26377 1.00737 0.20335 0.0
C89 C 0.25933 0.03124 0.15988 0.0
C90 C 0.2783 0.03969 0.10016 0.0
H91 H 0.57407 0.33139 0.12007 0.0
H92 H 0.56043 0.25553 0.24029 0.0
H93 H 0.5106 0.2791 0.03516 0.0
H94 H 0.48197 0.23132 0.16251 0.0
C95 C 0.50054 0.23529 0.19876 0.0
O96 O 0.52135 0.2402 0.14432 0.0
H97 H 0.49642 0.25345 0.23745 0.0
C98 C 0.56329 0.31243 0.12384 0.0
C99 C 0.54194 0.30755 0.06909 0.0
C100 C 0.56991 0.29406 0.18629 0.0
C101 C 0.55543 0.26993 0.19258 0.0
C102 C 0.53419 0.26432 0.13829 0.0
C103 C 0.52709 0.28336 0.07699 0.0
Eu104 Eu 1.00948 0.04435 0.65999 0.0
Eu105 Eu 0.05097 0.02277 0.79636 0.0
C106 C 0.03895 0.08695 0.7899 0.0
C107 C 0.99587 0.08835 0.49117 0.0
C108 C 0.02227 0.08498 0.46264 0.0
C109 C 1.00121 0.13679 0.47849 0.0
C110 C 0.03852 0.10724 0.44784 0.0
C111 C 0.98506 0.11441 0.49492 0.0
C112 C 0.02854 0.13346 0.45901 0.0
C113 C 0.9836 0.06666 0.53994 0.0
O114 O 1.01009 1.01636 0.85608 0.0
O115 O 0.9818 0.0392 0.76878 0.0
C116 C 0.9863 0.02648 0.83847 0.0
O117 O 1.00123 0.9993 0.65981 0.0
O118 O 0.06231 1.01226 0.92246 0.0
O119 O 0.08886 1.00228 0.82197 0.0
O120 O 0.04265 0.98776 0.70762 0.0
C121 C 0.02008 0.9811 0.67026 0.0
O122 O 0.04989 0.03876 0.59614 0.0
O123 O 0.07772 0.04445 0.70624 0.0
O124 O 0.04892 0.06681 0.8328 0.0
O125 O 0.99456 0.04286 0.53292 0.0
O126 O 0.97952 0.07317 0.61687 0.0
O127 O 0.0261 0.0828 0.71964 0.0
C128 C 0.07724 0.96768 0.91427 0.0
C129 C 0.0759 0.94918 0.84811 0.0
C130 C 0.05223 0.93628 0.99826 0.0
C131 C 0.06123 0.92539 0.85531 0.0
C132 C 0.06676 0.96019 0.99089 0.0
C133 C 0.04798 0.9195 0.9291 0.0
C134 C 0.08156 0.9965 0.89699 0.0
C135 C 0.07399 0.04356 0.62619 0.0
H136 H 0.03128 0.06519 0.4588 0.0
H137 H 0.99254 0.1567 0.48455 0.0
H138 H 0.05937 0.1037 0.43292 0.0
H139 H 0.96482 0.11757 0.51709 0.0
H140 H 0.08399 0.95414 0.78821 0.0
H141 H 0.04315 0.93165 0.05708 0.0
H142 H 0.0587 0.9127 0.8013 0.0
H143 H 0.0676 0.97398 0.04291 0.0
Eu144 Eu 0.53682 0.05429 0.75502 0.0
Eu145 Eu 0.51403 1.01122 0.62293 0.0
C146 C 0.53112 0.99182 0.80319 0.0
C147 C 0.59063 0.08526 0.87266 0.0
C148 C 0.59868 0.07371 0.94759 0.0
C149 C 0.63479 0.07577 0.81585 0.0
C150 C 0.62375 0.06151 0.9543 0.0
C151 C 0.60958 0.08779 0.80876 0.0
C152 C 0.64128 0.06113 0.88672 0.0
C153 C 0.5617 0.08711 0.85381 0.0
O154 O 0.4761 0.02498 0.68963 0.0
O155 O 0.49393 0.04932 0.79834 0.0
C156 C 0.4733 0.03803 0.76039 0.0
O157 O 0.51393 0.07853 0.66099 0.0
O158 O 0.51406 0.97068 0.57035 0.0
O159 O 0.48969 1.00195 0.51451 0.0
O160 O 0.52195 0.05028 0.55346 0.0
C161 C 0.51637 0.07455 0.58145 0.0
O162 O 0.5719 0.0469 0.6683 0.0
O163 O 0.55931 1.00607 0.61555 0.0
O164 O 0.51264 0.98989 0.74556 0.0
O165 O 0.55551 0.09345 0.77806 0.0
O166 O 0.54736 0.06687 0.88023 0.0
O167 O 0.54727 1.01282 0.80534 0.0
C168 C 0.473 0.95783 0.50912 0.0
C169 C 0.4652 0.94824 0.43146 0.0
C170 C 0.43311 0.93789 0.56886 0.0
C171 C 0.44095 0.93453 0.42173 0.0
C172 C 0.45735 0.95184 0.57836 0.0
C173 C 0.42401 0.93015 0.48979 0.0
C174 C 0.4958 0.97637 0.51524 0.0
C175 C 0.57773 0.0247 0.62768 0.0
H176 H 0.58463 0.07168 0.99799 0.0
H177 H 0.64825 0.07607 0.7636 0.0
H178 H 0.6288 0.05092 1.01058 0.0
H179 H 0.60417 0.09682 0.7503 0.0
H180 H 0.4771 0.95274 0.37746 0.0
H181 H 0.42084 0.93452 0.62276 0.0
H182 H 0.43464 0.92937 0.35964 0.0
H183 H 0.46322 0.95908 0.63901 0.0
Eu184 Eu 0.50984 0.54597 0.77792 0.0
Eu185 Eu 0.55466 0.52706 0.64238 0.0
C186 C 0.57233 0.5408 0.8305 0.0
C187 C 0.45517 0.58475 0.88844 0.0
C188 C 0.4614 0.60858 0.84667 0.0
C189 C 0.4191 0.60792 0.95918 0.0
C190 C 0.44753 0.63229 0.86428 0.0
C191 C 0.43328 0.58423 0.94219 0.0
C192 C 0.42696 0.63255 0.92362 0.0
C193 C 0.47288 0.56128 0.88158 0.0
O194 O 0.54992 0.49074 0.72489 0.0
O195 O 0.50858 0.5001 0.77938 0.0
C196 C 0.52852 0.48323 0.76597 0.0
O197 O 0.48936 0.54966 0.65459 0.0
O198 O 0.59589 0.52671 0.59692 0.0
O199 O 0.56481 0.50576 0.52897 0.0
O200 O 0.51378 0.5183 0.58438 0.0
C201 C 0.49206 0.53315 0.59192 0.0
O202 O 0.52548 0.58556 0.72539 0.0
O203 O 0.54587 0.57015 0.60715 0.0
O204 O 0.57876 0.54232 0.75213 0.0
O205 O 0.46822 0.54491 0.81995 0.0
O206 O 0.49843 0.56633 0.89138 0.0
O207 O 0.54725 0.53782 0.85326 0.0
C208 C 0.6072 0.48592 0.53044 0.0
C209 C 0.61037 0.46872 0.59824 0.0
C210 C 0.62782 0.45241 0.4423 0.0
C211 C 0.62143 0.44306 0.58749 0.0
C212 C 0.61692 0.47807 0.45328 0.0
C213 C 0.62913 0.43413 0.50852 0.0
C214 C 0.59046 0.5101 0.53669 0.0
C215 C 0.53646 0.58999 0.65271 0.0
H216 H 0.47809 0.60922 0.80417 0.0
H217 H 0.40298 0.6072 1.00364 0.0
H218 H 0.45448 0.65073 0.836 0.0
H219 H 0.42797 0.56583 0.974 0.0
H220 H 0.60292 0.47453 0.65843 0.0
H221 H 0.63313 0.44628 0.38032 0.0
H222 H 0.6225 0.4297 0.64002 0.0
H223 H 0.61448 0.49109 0.40029 0.0
Eu224 Eu 0.03789 0.55655 0.6688 0.0
Eu225 Eu 0.02072 0.50976 0.79797 0.0
C226 C 0.08237 0.52982 0.78935 0.0
C227 C 0.0789 0.61011 0.56408 0.0
C228 C 0.09755 0.60974 0.62921 0.0
C229 C 0.11185 0.63172 0.47725 0.0
C230 C 0.12355 0.61957 0.61751 0.0
C231 C 0.08585 0.62203 0.48919 0.0
C232 C 0.13136 0.62957 0.54015 0.0
C233 C 0.05404 0.59442 0.56929 0.0
O234 O 1.00982 0.5494 0.86063 0.0
O235 O 0.03973 0.57663 0.79524 0.0
C236 C 0.0235 0.57207 0.8573 0.0
O237 O 0.99233 0.55651 0.66377 0.0
O238 O 0.99957 0.49676 0.90801 0.0
O239 O 0.02359 0.46807 0.84038 0.0
O240 O 0.98427 0.51424 0.71516 0.0
C241 C 0.97619 0.5358 0.67509 0.0
O242 O 0.02951 0.51969 0.58832 0.0
O243 O 0.03651 0.48738 0.68581 0.0
O244 O 0.06281 0.52131 0.83666 0.0
O245 O 0.05696 0.56875 0.55449 0.0
O246 O 0.03882 0.59898 0.63308 0.0
O247 O 0.07743 0.53949 0.71537 0.0
C248 C 0.98385 0.45253 0.90282 0.0
C249 C 0.96725 0.44839 0.83375 0.0
C250 C 0.95173 0.42907 0.98797 0.0
C251 C 0.94247 0.43552 0.84249 0.0
C252 C 0.97655 0.44172 0.97896 0.0
C253 C 0.93376 0.42709 0.92074 0.0
C254 C 1.0063 0.47156 0.89938 0.0
C255 C 0.03371 0.49434 0.60811 0.0
H256 H 0.0925 0.60044 0.68747 0.0
H257 H 0.11711 0.63889 0.41646 0.0
H258 H 0.13792 0.61793 0.66756 0.0
H259 H 0.07173 0.62224 0.43814 0.0
H260 H 0.97266 0.45663 0.77431 0.0
H261 H 0.94578 0.42316 0.04941 0.0
H262 H 0.92938 0.4339 0.78916 0.0
H263 H 0.98916 0.44483 0.03289 0.0
H264 H 0.18011 0.05648 0.19714 0.0
H265 H 0.12737 0.05091 0.666 0.0
H266 H 0.23224 0.05668 0.40981 0.0
H267 H 0.07476 0.04208 0.45549 0.0
H268 H 0.16567 0.05383 0.57257 0.0
H269 H 0.14123 0.05129 0.28907 0.0
C270 C 0.18341 0.05498 0.26303 0.0
C271 C 0.20958 0.05662 0.29546 0.0
C272 C 0.14576 0.0513 0.5466 0.0
C273 C 0.16502 0.05137 0.40179 0.0
C274 C 0.12375 0.04971 0.60015 0.0
C275 C 0.09753 0.04634 0.56916 0.0
C276 C 0.14179 0.04963 0.46068 0.0
C277 C 0.09443 0.04483 0.48276 0.0
C278 C 0.16119 0.0522 0.31564 0.0
C279 C 0.21254 0.05517 0.38172 0.0
N280 N 0.11617 0.04651 0.43188 0.0
N281 N 0.19067 0.05273 0.43151 0.0
H282 H 0.50608 0.18176 0.15397 0.0
H283 H 0.51 0.12802 0.62103 0.0
H284 H 0.50723 0.23361 0.3678 0.0
H285 H 0.51853 0.07511 0.41078 0.0
H286 H 0.50816 0.16654 0.52815 0.0
H287 H 0.51063 0.14238 0.24494 0.0
C288 C 0.50761 0.18484 0.22001 0.0
C289 C 0.5063 0.21102 0.25324 0.0
C290 C 0.51044 0.14654 0.50205 0.0
C291 C 0.51108 0.16603 0.35813 0.0
C292 C 0.51139 0.1244 0.55525 0.0
C293 C 0.51437 0.09806 0.5241 0.0
C294 C 0.51234 0.1426 0.41633 0.0
C295 C 0.51617 0.09494 0.43792 0.0
C296 C 0.51008 0.16237 0.27198 0.0
C297 C 0.50817 0.21385 0.33938 0.0
N298 N 0.51507 0.11686 0.38723 0.0
N299 N 0.5103 0.19172 0.38858 0.0
H300 H 0.38805 0.49531 0.17029 0.0
H301 H 0.44326 0.55854 0.5958 0.0
H302 H 0.33929 0.54064 0.33999 0.0
H303 H 0.48969 0.50373 0.44625 0.0
H304 H 0.40651 0.55519 0.4965 0.0
H305 H 0.42677 0.50142 0.26307 0.0
C306 C 0.38558 0.50679 0.22674 0.0
C307 C 0.36036 0.51741 0.24763 0.0
C308 C 0.42471 0.54389 0.48511 0.0
C309 C 0.40462 0.52447 0.35438 0.0
C310 C 0.44584 0.5458 0.54197 0.0
C311 C 0.46978 0.53132 0.52994 0.0
C312 C 0.4273 0.52746 0.41481 0.0
C313 C 0.47167 0.51521 0.45854 0.0
C314 C 0.40766 0.51018 0.27987 0.0
C315 C 0.35834 0.53217 0.32143 0.0
N316 N 0.45076 0.51371 0.40383 0.0
N317 N 0.38007 0.53516 0.37212 0.0
H318 H 0.02205 0.40342 0.14378 0.0
H319 H 0.04116 0.43959 0.62583 0.0
H320 H 0.03375 0.34377 0.33261 0.0
H321 H 0.02792 0.49978 0.43891 0.0
H322 H 0.0409 0.40471 0.51857 0.0
H323 H 0.02701 0.43911 0.24869 0.0
C324 C 0.02603 0.39784 0.2072 0.0
C325 C 0.02737 0.37049 0.22931 0.0
C326 C 0.03815 0.42554 0.50076 0.0
C327 C 0.03287 0.41139 0.3506 0.0
C328 C 0.0383 0.44559 0.56226 0.0
C329 C 0.03454 0.47292 0.54208 0.0
C330 C 0.03417 0.43257 0.4176 0.0
C331 C 0.03091 0.47912 0.45801 0.0
C332 C 0.02871 0.41824 0.26728 0.0
C333 C 0.03253 0.36453 0.31263 0.0
N334 N 0.03075 0.45921 0.39929 0.0
N335 N 0.0349 0.38469 0.36998 0.0
H336 H 0.8933 1.0106 0.29297 0.0
H337 H 0.93376 0.04337 0.82369 0.0
H338 H 0.83872 0.04462 0.11515 0.0
H339 H 0.98764 1.005 0.99587 0.0
H340 H 0.89843 0.04221 0.92781 0.0
H341 H 0.92734 1.00616 0.18423 0.0
C342 C 0.88837 1.01681 0.23076 0.0
C343 C 0.86313 0.02813 0.21344 0.0
C344 C 0.91791 0.03389 0.94287 0.0
C345 C 0.9022 0.02343 0.08817 0.0
C346 C 0.93822 0.03453 0.88314 0.0
C347 C 0.96399 0.02431 0.90036 0.0
C348 C 0.92316 0.02306 0.02139 0.0
C349 C 0.96823 1.01315 0.97916 0.0
C350 C 0.90786 1.0144 0.16866 0.0
C351 C 0.85791 0.03589 0.13156 0.0
N352 N 0.94819 1.01296 0.0365 0.0
N353 N 0.87724 0.03361 0.07249 0.0
H354 H 0.49729 0.85685 0.12892 0.0
H355 H 0.56856 0.98635 0.92845 0.0
H356 H 0.5728 0.88866 0.21594 0.0
H357 H 0.4984 0.94776 0.8245 0.0
H358 H 0.5706 0.95109 0.03401 0.0
H359 H 0.49762 0.88975 0.01647 0.0
C360 C 0.51413 0.87052 0.12366 0.0
C361 C 0.53508 0.86987 0.18186 0.0
C362 C 0.55481 0.95028 0.98791 0.0
C363 C 0.53542 0.90817 0.05375 0.0
C364 C 0.55361 0.97048 0.92752 0.0
C365 C 0.53326 0.97019 0.86706 0.0
C366 C 0.53543 0.92961 0.98862 0.0
C367 C 0.51449 0.94896 0.86948 0.0
C368 C 0.51426 0.88946 0.05967 0.0
C369 C 0.55623 0.8884 0.17249 0.0
N370 N 0.51597 0.92972 0.92912 0.0
N371 N 0.55578 0.90684 0.11024 0.0
H372 H 0.72435 0.53328 0.10158 0.0
H373 H 0.56668 0.54287 0.99897 0.0
H374 H 0.66324 0.54427 0.28578 0.0
H375 H 0.62735 0.54074 0.8101 0.0
H376 H 0.60198 0.54312 0.10403 0.0
H377 H 0.68966 0.53576 0.99374 0.0
C378 C 0.70372 0.5366 0.11942 0.0
C379 C 0.69682 0.53923 0.20311 0.0
C380 C 0.60765 0.54269 0.03965 0.0
C381 C 0.65678 0.54141 0.07964 0.0
C382 C 0.58742 0.54252 0.97934 0.0
C383 C 0.59389 0.5418 0.89505 0.0
C384 C 0.63478 0.54195 0.01618 0.0
C385 C 0.62128 0.54138 0.87409 0.0
C386 C 0.68386 0.53792 0.05771 0.0
C387 C 0.66957 0.54274 0.22214 0.0
N388 N 0.64064 0.54136 0.93404 0.0
N389 N 0.65065 0.54371 0.16125 0.0
H390 H 0.04627 0.70706 0.20531 0.0
H391 H 0.98863 0.57205 0.98881 0.0
H392 H 0.9758 0.66476 0.28718 0.0
H393 H 0.05224 0.61931 0.88241 0.0
H394 H 0.98474 0.60537 0.09988 0.0
H395 H 0.04979 0.67526 0.08862 0.0
C396 C 0.03131 0.69135 0.19829 0.0
C397 C 1.01029 0.68907 0.25556 0.0
C398 C 0.99955 0.60856 0.05226 0.0
C399 C 1.01465 0.65193 0.12273 0.0
C400 C 1.00182 0.58941 0.98852 0.0
C401 C 0.0208 0.59266 0.92536 0.0
C402 C 1.01648 0.63131 0.05417 0.0
C403 C 0.03725 0.61581 0.92924 0.0
C404 C 0.0334 0.67308 0.13168 0.0
C405 C 0.99201 0.66771 0.24393 0.0
N406 N 0.03478 0.63408 0.99232 0.0
N407 N 0.99461 0.65012 0.17947 0.0
H408 H 0.05564 0.28845 0.35482 0.0
H409 H 0.0719 0.14012 0.35668 0.0
H410 H 0.12281 0.2493 0.23857 0.0
H411 H 0.02762 0.18056 0.54948 0.0
H412 H 0.09892 0.18021 0.33954 0.0
H413 H 0.05509 0.25346 0.45887 0.0
C414 C 0.07122 0.27324 0.35351 0.0
C415 C 0.08829 0.27075 0.2854 0.0
C416 C 0.08368 0.18025 0.3869 0.0
C417 C 0.08698 0.23013 0.40173 0.0
C418 C 0.06806 0.15723 0.39656 0.0
C419 C 0.04674 0.1571 0.45282 0.0
C420 C 0.07745 0.20371 0.43174 0.0
C421 C 0.04296 0.1801 0.50248 0.0
C422 C 0.07072 0.25298 0.41273 0.0
C423 C 0.10844 0.25106 0.28818 0.0
N424 N 0.05769 0.20271 0.48932 0.0
N425 N 0.10651 0.23068 0.3433 0.0
H426 H 0.30812 0.94236 0.15026 0.0
H427 H 0.37947 0.94895 0.57084 0.0
H428 H 0.28243 0.99063 0.35732 0.0
H429 H 0.40265 0.89488 0.37416 0.0
H430 H 0.33454 0.95059 0.51394 0.0
H431 H 0.33229 0.91286 0.24516 0.0
C432 C 0.30701 0.94634 0.21592 0.0
C433 C 0.29408 0.96952 0.24572 0.0
C434 C 0.34921 0.93779 0.48409 0.0
C435 C 0.32188 0.93612 0.35451 0.0
C436 C 0.37503 0.9366 0.51723 0.0
C437 C 0.39541 0.92279 0.47496 0.0
C438 C 0.34396 0.92572 0.40711 0.0
C439 C 0.38795 0.90699 0.40637 0.0
C440 C 0.32072 0.92944 0.2702 0.0
C441 C 0.29254 0.97327 0.3314 0.0
N442 N 0.36307 0.90964 0.37278 0.0
N443 N 0.30692 0.95718 0.38261 0.0
H444 H 0.62021 0.31487 0.16321 0.0
H445 H 0.60368 0.39086 0.57831 0.0
H446 H 0.56466 0.29204 0.35356 0.0
H447 H 0.66407 0.41049 0.3981 0.0
H448 H 0.60003 0.34605 0.5191 0.0
H449 H 0.64627 0.34024 0.26535 0.0
C450 C 0.61394 0.31463 0.2271 0.0
C451 C 0.58989 0.30202 0.24975 0.0
C452 C 0.61459 0.35987 0.49355 0.0
C453 C 0.61919 0.33139 0.36654 0.0
C454 C 0.6169 0.38558 0.52799 0.0
C455 C 0.63351 0.40498 0.49123 0.0
C456 C 0.62854 0.3537 0.42085 0.0
C457 C 0.65012 0.39659 0.42625 0.0
C458 C 0.62881 0.3291 0.28547 0.0
C459 C 0.5829 0.30181 0.33339 0.0
N460 N 0.64665 0.37184 0.39153 0.0
N461 N 0.59709 0.31693 0.38844 0.0
H462 H 0.27672 0.56857 0.37105 0.0
H463 H 0.15472 0.66764 0.43978 0.0
H464 H 0.24618 0.62422 0.19013 0.0
H465 H 0.17401 0.59917 0.59245 0.0
H466 H 0.19882 0.66385 0.37541 0.0
H467 H 0.25073 0.59191 0.47734 0.0
C468 C 0.26529 0.5863 0.35433 0.0
C469 C 0.26301 0.59417 0.27166 0.0
C470 C 0.19362 0.65013 0.42461 0.0
C471 C 0.23298 0.62056 0.39204 0.0
C472 C 0.16841 0.65222 0.46119 0.0
C473 C 0.16021 0.63315 0.51973 0.0
C474 C 0.2107 0.62882 0.44666 0.0
C475 C 0.17918 0.61418 0.54701 0.0
C476 C 0.25032 0.59951 0.41483 0.0
C477 C 0.24794 0.61723 0.2531 0.0
N478 N 0.20329 0.61212 0.50892 0.0
N479 N 0.23303 0.62931 0.31254 0.0
H480 H 1.01003 0.77222 0.09038 0.0
H481 H 0.05159 0.86922 0.85692 0.0
H482 H 0.94737 0.8246 0.18016 0.0
H483 H 0.99933 0.91861 1.00575 0.0
H484 H 0.02241 0.83082 0.88097 0.0
H485 H 1.01365 0.79913 0.9691 0.0
C486 C 0.99618 0.78887 0.08354 0.0
C487 C 0.97947 0.79707 0.14851 0.0
C488 C 1.01728 0.84992 0.90907 0.0
C489 C 0.9845 0.82922 1.00938 0.0
C490 C 0.03392 0.87201 0.89458 0.0
C491 C 0.02874 0.89679 0.93341 0.0
C492 C 0.99589 0.85253 0.96492 0.0
C493 C 1.00502 0.89944 0.97886 0.0
C494 C 0.99845 0.80465 1.01331 0.0
C495 C 0.96176 0.81851 0.13391 0.0
N496 N 0.98985 0.87744 0.99499 0.0
N497 N 0.96545 0.8345 0.06724 0.0
H498 H 0.73451 0.95486 0.13024 0.0
H499 H 0.69353 0.07387 0.8514 0.0
H500 H 0.78584 0.02179 0.06862 0.0
H501 H 0.64243 1.00792 0.92291 0.0
H502 H 0.7329 0.04593 0.88155 0.0
H503 H 0.7083 0.9632 1.00543 0.0
C504 C 0.74078 0.97073 0.08883 0.0
C505 C 0.76154 0.9884 0.11125 0.0
C506 C 0.71307 0.03732 0.88873 0.0
C507 C 0.73127 0.9987 0.97077 0.0
C508 C 0.69069 0.05331 0.87188 0.0
C509 C 0.66497 0.04345 0.88857 0.0
C510 C 0.70945 1.01155 0.92304 0.0
C511 C 0.66211 1.01655 0.91292 0.0
C512 C 0.72581 0.97557 0.01766 0.0
C513 C 0.76944 1.00813 0.0546 0.0
N514 N 0.68411 1.0017 0.93113 0.0
N515 N 0.7537 1.01339 0.98819 0.0
H516 H 0.48257 0.77574 0.0661 0.0
H517 H 0.41868 0.68122 0.8444 0.0
H518 H 0.43653 0.75124 0.2778 0.0
H519 H 0.41466 0.64419 0.08468 0.0
H520 H 0.41972 0.7255 0.91131 0.0
H521 H 0.45375 0.74851 0.97854 0.0
C522 C 0.46573 0.76551 0.09402 0.0
C523 C 0.46254 0.76514 0.18002 0.0
C524 C 0.41817 0.70764 0.94911 0.0
C525 C 0.42943 0.7334 0.07951 0.0
C526 C 0.41751 0.68233 0.91101 0.0
C527 C 0.41788 0.65876 0.95893 0.0
C528 C 0.41926 0.70927 0.03557 0.0
C529 C 0.41497 0.66157 0.04472 0.0
C530 C 0.4491 0.74986 0.04354 0.0
C531 C 0.44035 0.75129 0.21213 0.0
N532 N 0.41641 0.68633 0.08029 0.0
N533 N 0.42518 0.73526 0.16222 0.0
H534 H 0.7912 0.49321 0.05933 0.0
H535 H 0.91076 0.3914 0.03025 0.0
H536 H 0.8161 0.44012 0.25544 0.0
H537 H 0.89035 0.45164 0.84904 0.0
H538 H 0.86601 0.39628 0.08935 0.0
H539 H 0.81589 0.4655 0.96149 0.0
C540 C 0.80119 0.47526 0.08164 0.0
C541 C 0.80232 0.46949 0.16626 0.0
C542 C 0.8711 0.40783 0.0351 0.0
C543 C 0.83131 0.4381 0.05461 0.0
C544 C 0.89669 0.40511 1.0014 0.0
C545 C 0.90483 0.42195 0.93669 0.0
C546 C 0.85365 0.42756 1.00388 0.0
C547 C 0.88535 0.43853 0.89984 0.0
C548 C 0.81546 0.45949 0.02561 0.0
C549 C 0.81554 0.44587 0.19113 0.0
N550 N 0.86094 0.44143 0.93531 0.0
N551 N 0.8301 0.43141 0.13589 0.0
H552 H 1.01343 0.25011 0.99 0.0
H553 H 0.07754 0.10656 0.89609 0.0
H554 H 0.09835 0.23462 1.00746 0.0
H555 H 1.00804 0.13219 0.75793 0.0
H556 H 0.08242 0.15244 0.95077 0.0
H557 H 1.008 0.20709 0.91361 0.0
C558 C 0.03099 0.23811 0.97623 0.0
C559 C 0.05637 0.24611 1.00622 0.0
C560 C 0.06612 0.14811 0.90825 0.0
C561 C 0.05014 0.19632 0.92144 0.0
C562 C 0.06326 0.1218 0.87714 0.0
C563 C 0.04238 0.11529 0.8219 0.0
C564 C 0.04763 0.16828 0.88604 0.0
C565 C 0.02456 0.13619 0.79989 0.0
C566 C 0.02784 0.21339 0.93329 0.0
C567 C 0.07831 0.22929 0.98696 0.0
N568 N 0.02738 0.16158 0.83263 0.0
N569 N 0.07463 0.20522 0.94759 0.0
H570 H 0.31405 0.99689 0.94153 0.0
H571 H 0.45751 0.06845 0.89469 0.0
H572 H 0.33806 0.06528 0.08878 0.0
H573 H 0.42688 1.0101 0.71982 0.0
H574 H 0.41402 0.06827 0.96459 0.0
H575 H 0.35439 1.00245 0.85716 0.0
C576 C 0.3275 1.01356 0.95468 0.0
C577 C 0.32231 0.03097 0.02145 0.0
C578 C 0.41671 0.05564 0.91059 0.0
C579 C 0.36946 0.03689 0.92662 0.0
C580 C 0.44166 0.05567 0.87048 0.0
C581 C 0.44617 0.03925 0.80077 0.0
C582 C 0.39587 0.03883 0.88186 0.0
C583 C 0.42456 0.0232 0.77292 0.0
C584 C 0.35071 1.0166 0.90688 0.0
C585 C 0.3409 0.05176 0.03694 0.0
N586 N 0.4006 0.02325 0.8137 0.0
N587 N 0.3637 0.05396 0.99064 0.0
H588 H 0.57467 0.32568 0.94753 0.0
H589 H 0.48917 0.45984 0.86212 0.0
H590 H 0.4966 0.33901 0.05247 0.0
H591 H 0.56566 0.44253 0.7502 0.0
H592 H 0.48959 0.41486 0.92467 0.0
H593 H 0.56952 0.36669 0.86582 0.0
C594 C 0.5561 0.33694 0.95172 0.0
C595 C 0.53591 0.32869 1.00622 0.0
C596 C 0.50618 0.42084 0.88595 0.0
C597 C 0.53013 0.37653 0.91446 0.0
C598 C 0.50598 0.4466 0.85008 0.0
C599 C 0.52747 0.45528 0.80077 0.0
C600 C 0.52807 0.40347 0.87281 0.0
C601 C 0.54865 0.437 0.7878 0.0
C602 C 0.55324 0.36055 0.90555 0.0
C603 C 0.51247 0.34438 1.01028 0.0
N604 N 0.54844 0.41221 0.82374 0.0
N605 N 0.51035 0.36767 0.96583 0.0
H606 H 0.25489 0.55009 0.91772 0.0
H607 H 0.1287 0.54997 0.71901 0.0
H608 H 0.21045 0.52549 0.13164 0.0
H609 H 0.10039 0.50884 0.93576 0.0
H610 H 0.17379 0.55108 0.77896 0.0
H611 H 0.21437 0.5436 0.83293 0.0
C612 C 0.2367 0.5428 0.9464 0.0
C613 C 0.23604 0.53829 0.03178 0.0
C614 C 0.15796 0.54135 0.8131 0.0
C615 C 0.18906 0.53176 0.93605 0.0
C616 C 0.132 0.54084 0.77877 0.0
C617 C 0.11049 0.52931 0.82215 0.0
C618 C 0.1626 0.53019 0.89172 0.0
C619 C 0.11614 0.51803 0.89973 0.0
C620 C 0.21332 0.53953 0.89825 0.0
C621 C 0.21185 0.5292 0.06603 0.0
N622 N 0.14143 0.51892 0.93186 0.0
N623 N 0.18945 0.5264 0.0184 0.0
H624 H 0.95895 0.83564 0.42714 0.0
H625 H 0.05764 0.9403 0.65951 0.0
H626 H 0.04333 0.82029 0.46111 0.0
H627 H 0.97492 0.95726 0.60086 0.0
H628 H 0.05225 0.89505 0.59997 0.0
H629 H 0.96376 0.87787 0.50423 0.0
C630 C 0.97849 0.84091 0.45204 0.0
C631 C 1.00076 0.82412 0.43708 0.0
C632 C 0.03523 0.90859 0.60037 0.0
C633 C 1.00657 0.87334 0.52558 0.0
C634 C 0.03824 0.93455 0.63476 0.0
C635 C 1.0167 0.95296 0.63581 0.0
C636 C 1.01042 0.9006 0.56633 0.0
C637 C 0.99218 0.94405 0.6017 0.0
C638 C 0.98125 0.86524 0.49583 0.0
C639 C 0.02552 0.83228 0.47143 0.0
N640 N 0.98977 0.91872 0.56858 0.0
N641 N 0.02779 0.85631 0.51321 0.0
H642 H 0.74205 0.04584 0.43918 0.0
H643 H 0.59847 0.98011 0.54855 0.0
H644 H 0.71832 0.96477 0.37591 0.0
H645 H 0.62091 0.06013 0.62818 0.0
H646 H 0.64322 0.97417 0.49039 0.0
H647 H 0.69967 0.05126 0.51594 0.0
C648 C 0.72829 0.02899 0.4429 0.0
C649 C 0.73392 1.0048 0.40065 0.0
C650 C 0.6385 0.99304 0.52081 0.0
C651 C 0.68492 1.01103 0.48713 0.0
C652 C 0.61277 0.99648 0.55414 0.0
C653 C 0.60556 0.02072 0.59359 0.0
C654 C 0.65758 1.01398 0.52606 0.0
C655 C 0.62535 0.04107 0.59858 0.0
C656 C 0.70391 0.03217 0.48606 0.0
C657 C 0.71493 0.98385 0.40689 0.0
N658 N 0.65026 0.03731 0.56507 0.0
N659 N 0.69145 0.9875 0.44829 0.0
H660 H 0.48982 0.74937 0.48659 0.0
H661 H 0.56621 0.60866 0.52269 0.0
H662 H 0.56027 0.73037 0.34531 0.0
H663 H 0.50848 0.63539 0.70268 0.0
H664 H 0.56506 0.65333 0.45973 0.0
H665 H 0.49735 0.70897 0.57022 0.0
C666 C 0.50736 0.73708 0.47481 0.0
C667 C 0.52468 0.74353 0.40962 0.0
C668 C 0.5528 0.64957 0.51343 0.0
C669 C 0.53289 0.69641 0.50325 0.0
C670 C 0.55337 0.62394 0.54949 0.0
C671 C 0.53733 0.61799 0.61829 0.0
C672 C 0.53577 0.66961 0.54524 0.0
C673 C 0.52124 0.63888 0.64997 0.0
C674 C 0.51153 0.71385 0.52214 0.0
C675 C 0.54671 0.72647 0.39585 0.0
N676 N 0.52066 0.66356 0.61278 0.0
N677 N 0.54996 0.70357 0.44135 0.0
H678 H 0.82372 0.48427 0.4686 0.0
H679 H 0.95205 0.57534 0.58077 0.0
H680 H 0.83446 0.56456 0.37434 0.0
H681 H 0.93715 0.49662 0.68318 0.0
H682 H 0.90798 0.57357 0.51276 0.0
H683 H 0.86324 0.49043 0.55671 0.0
C684 C 0.83411 0.50347 0.46788 0.0
C685 C 0.82563 0.52398 0.41429 0.0
C686 C 0.91427 0.55679 0.55064 0.0
C687 C 0.87169 0.53101 0.51384 0.0
C688 C 0.93951 0.55776 0.58965 0.0
C689 C 0.9486 0.53604 0.63784 0.0
C690 C 0.89786 0.53389 0.55942 0.0
C691 C 0.93125 0.51385 0.64664 0.0
C692 C 0.85684 0.50693 0.51784 0.0
C693 C 0.84007 0.54834 0.41539 0.0
N694 N 0.90695 0.51331 0.60762 0.0
N695 N 0.86255 0.55107 0.46348 0.0
loop_
_geom_bond_atom_site_label_1
_geom_bond_atom_site_label_2
_geom_bond_distance
_geom_bond_site_symmetry_2
_ccdc_geom_bond_type
H0 C7 0.929 . S
H1 C10 0.930 . S
H2 C12 0.929 . S
H3 C4 0.969 . S
C4 H3 0.969 . S
C4 O5 1.550 . S
C4 H6 0.973 . S
O5 C4 1.550 . S
O5 C11 1.412 . S
H6 C4 0.973 . S
C7 H0 0.929 . S
C7 C8 1.400 . S
C7 C9 1.364 . S
C8 C7 1.400 . S
C8 C12 1.377 . S
C9 C7 1.364 . S
C9 C10 1.374 . S
C10 H1 0.930 . S
C10 C9 1.374 . S
C10 C11 1.383 . S
C11 O5 1.412 . S
C11 C10 1.383 . S
C11 C12 1.394 . S
C12 H2 0.929 . S
C12 C8 1.377 . S
C12 C11 1.394 . S
H13 C20 0.929 . S
H14 C23 0.930 . S
H15 C25 0.929 . S
H16 C17 0.969 . S
C17 H16 0.969 . S
C17 O18 1.550 . S
C17 H19 0.973 . S
O18 C17 1.550 . S
O18 C24 1.412 . S
H19 C17 0.973 . S
C20 H13 0.929 . S
C20 C21 1.400 . S
C20 C22 1.364 . S
C21 C20 1.400 . S
C21 C25 1.377 . S
C22 C20 1.364 . S
C22 C23 1.374 . S
C23 H14 0.930 . S
C23 C22 1.374 . S
C23 C24 1.383 . S
C24 O18 1.412 . S
C24 C23 1.383 . S
C24 C25 1.394 . S
C25 H15 0.929 . S
C25 C21 1.377 . S
C25 C24 1.394 . S
H26 C33 0.929 . S
H27 C36 0.930 . S
H28 C38 0.929 . S
H29 C30 0.970 . S
C30 H29 0.970 . S
C30 O31 1.550 . S
C30 H32 0.973 . S
O31 C30 1.550 . S
O31 C37 1.412 . S
H32 C30 0.973 . S
C33 H26 0.929 . S
C33 C34 1.400 . S
C33 C35 1.364 . S
C34 C33 1.400 . S
C34 C38 1.377 . S
C35 C33 1.364 . S
C35 C36 1.374 . S
C36 H27 0.930 . S
C36 C35 1.374 . S
C36 C37 1.383 . S
C37 O31 1.412 . S
C37 C36 1.383 . S
C37 C38 1.394 . S
C38 H28 0.929 . S
C38 C34 1.377 . S
C38 C37 1.394 . S
H39 C46 0.929 . S
H40 C49 0.930 . S
H41 C51 0.929 . S
H42 C43 0.969 . S
C43 H42 0.969 . S
C43 O44 1.550 . S
C43 H45 0.973 . S
O44 C43 1.550 . S
O44 C50 1.412 . S
H45 C43 0.973 . S
C46 H39 0.929 . S
C46 C47 1.400 . S
C46 C48 1.364 . S
C47 C46 1.400 . S
C47 C51 1.377 . S
C48 C46 1.364 . S
C48 C49 1.374 . S
C49 H40 0.930 . S
C49 C48 1.374 . S
C49 C50 1.383 . S
C50 O44 1.412 . S
C50 C49 1.383 . S
C50 C51 1.394 . S
C51 H41 0.929 . S
C51 C47 1.377 . S
C51 C50 1.394 . S
H52 C59 0.929 . S
H53 C62 0.930 . S
H54 C64 0.929 1_556 S
H55 C56 0.969 . S
C56 H55 0.969 . S
C56 O57 1.550 . S
C56 H58 0.973 . S
O57 C56 1.550 . S
O57 C63 1.412 . S
H58 C56 0.973 . S
C59 H52 0.929 . S
C59 C60 1.400 1_554 S
C59 C61 1.364 . S
C60 C59 1.400 1_556 S
C60 C64 1.377 1_556 S
C61 C59 1.364 . S
C61 C62 1.374 . S
C62 H53 0.930 . S
C62 C61 1.374 . S
C62 C63 1.383 . S
C63 O57 1.412 . S
C63 C62 1.383 . S
C63 C64 1.394 . S
C64 H54 0.929 1_554 S
C64 C60 1.377 1_554 S
C64 C63 1.394 . S
H65 C72 0.929 . S
H66 C75 0.930 . S
H67 C77 0.929 . S
H68 C69 0.969 . S
C69 H68 0.969 . S
C69 O70 1.550 . S
C69 H71 0.973 . S
O70 C69 1.550 . S
O70 C76 1.412 . S
H71 C69 0.973 . S
C72 H65 0.929 . S
C72 C73 1.400 1_554 S
C72 C74 1.364 . S
C73 C72 1.400 1_556 S
C73 C77 1.377 . S
C74 C72 1.364 . S
C74 C75 1.374 . S
C75 H66 0.930 . S
C75 C74 1.374 . S
C75 C76 1.383 . S
C76 O70 1.412 . S
C76 C75 1.383 . S
C76 C77 1.394 1_554 S
C77 H67 0.929 . S
C77 C73 1.377 . S
C77 C76 1.394 1_556 S
H78 C85 0.929 1_556 S
H79 C88 0.930 . S
H80 C90 0.929 . S
H81 C82 0.969 . S
C82 H81 0.969 . S
C82 O83 1.550 . S
C82 H84 0.973 . S
O83 C82 1.550 . S
O83 C89 1.412 . S
H84 C82 0.973 . S
C85 H78 0.929 1_554 S
C85 C86 1.400 1_554 S
C85 C87 1.364 . S
C86 C85 1.400 1_556 S
C86 C90 1.377 . S
C87 C85 1.364 . S
C87 C88 1.374 . S
C88 H79 0.930 . S
C88 C87 1.374 . S
C88 C89 1.383 . S
C89 O83 1.412 . S
C89 C88 1.383 . S
C89 C90 1.394 1_554 S
C90 H80 0.929 . S
C90 C86 1.377 . S
C90 C89 1.394 1_556 S
H91 C98 0.929 . S
H92 C101 0.930 . S
H93 C103 0.929 . S
H94 C95 0.969 . S
C95 H94 0.969 . S
C95 O96 1.550 . S
C95 H97 0.973 . S
O96 C95 1.550 . S
O96 C102 1.412 . S
H97 C95 0.973 . S
C98 H91 0.929 . S
C98 C99 1.400 1_554 S
C98 C100 1.364 . S
C99 C98 1.400 1_556 S
C99 C103 1.377 . S
C100 C98 1.364 . S
C100 C101 1.374 . S
C101 H92 0.930 . S
C101 C100 1.374 . S
C101 C102 1.383 . S
C102 O96 1.412 . S
C102 C101 1.383 . S
C102 C103 1.394 1_554 S
C103 H93 0.929 . S
C103 C99 1.377 . S
C103 C102 1.394 1_556 S
Eu104 C113 2.828 . S
Eu104 O115 2.392 . S
Eu104 O117 2.418 1_545 S
Eu104 O122 2.373 1_655 S
Eu104 O125 2.488 . S
Eu104 O126 2.475 . S
Eu104 O127 2.349 1_655 S
Eu105 O114 2.373 1_455 S
Eu105 O118 2.488 . S
Eu105 O119 2.471 . S
Eu105 O120 2.349 . S
Eu105 O123 2.392 1_565 S
Eu105 O124 2.418 1_565 S
Eu105 C134 2.828 . S
C106 O124 1.244 . S
C106 O127 1.265 . S
C107 C108 1.379 1_655 S
C107 C111 1.373 . S
C107 C113 1.505 . S
C108 C107 1.379 1_455 S
C108 C110 1.369 . S
C108 H136 0.930 . S
C109 C111 1.383 . S
C109 C112 1.382 1_655 S
C109 H137 0.930 . S
C110 C108 1.369 . S
C110 C112 1.392 . S
C110 H138 0.930 . S
C111 C107 1.373 . S
C111 C109 1.383 . S
C111 H139 0.931 . S
C112 C109 1.382 1_455 S
C112 C110 1.392 . S
C113 Eu104 2.828 . S
C113 C107 1.505 . S
C113 O125 1.249 . S
C113 O126 1.247 . S
O114 Eu105 2.373 1_655 S
O114 C116 1.258 1_565 S
O115 Eu104 2.392 . S
O115 C116 1.242 . S
C116 O114 1.258 1_545 S
C116 O115 1.242 . S
O117 Eu104 2.418 1_565 S
O117 C121 1.244 . S
O118 Eu105 2.488 . S
O118 C134 1.249 . S
O119 Eu105 2.471 . S
O119 C134 1.244 . S
O120 Eu105 2.349 . S
O120 C121 1.265 1_455 S
C121 O117 1.244 . S
C121 O120 1.265 1_655 S
O122 Eu104 2.373 1_455 S
O122 C135 1.258 . S
O123 Eu105 2.392 1_545 S
O123 C135 1.242 . S
O124 Eu105 2.418 1_545 S
O124 C106 1.244 . S
O125 Eu104 2.488 . S
O125 C113 1.249 . S
O126 Eu104 2.475 . S
O126 C113 1.247 . S
O127 Eu104 2.349 1_455 S
O127 C106 1.265 . S
C128 C129 1.379 . S
C128 C132 1.373 1_556 S
C128 C134 1.505 . S
C129 C128 1.379 . S
C129 C131 1.369 1_556 S
C129 H140 0.930 1_455 S
C130 C132 1.383 . S
C130 C133 1.382 . S
C130 H141 0.930 . S
C131 C129 1.369 1_554 S
C131 C133 1.392 . S
C131 H142 0.930 1_455 S
C132 C128 1.373 1_554 S
C132 C130 1.383 . S
C132 H143 0.931 . S
C133 C130 1.382 . S
C133 C131 1.392 . S
C134 Eu105 2.828 . S
C134 O118 1.249 . S
C134 O119 1.244 . S
C134 C128 1.505 . S
C135 O122 1.258 . S
C135 O123 1.242 . S
H136 C108 0.930 . S
H137 C109 0.930 . S
H138 C110 0.930 . S
H139 C111 0.931 . S
H140 C129 0.930 1_655 S
H141 C130 0.930 . S
H142 C131 0.930 1_655 S
H143 C132 0.931 . S
Eu144 C153 2.828 . S
Eu144 O155 2.392 . S
Eu144 O157 2.418 . S
Eu144 O162 2.373 . S
Eu144 O165 2.488 . S
Eu144 O166 2.471 . S
Eu144 O167 2.349 1_545 S
Eu145 O154 2.373 1_565 S
Eu145 O158 2.488 . S
Eu145 O159 2.471 1_565 S
Eu145 O160 2.349 1_565 S
Eu145 O163 2.392 . S
Eu145 O164 2.418 . S
Eu145 C174 2.828 . S
C146 O164 1.244 . S
C146 O167 1.265 . S
C147 C148 1.379 . S
C147 C151 1.373 . S
C147 C153 1.505 . S
C148 C147 1.379 . S
C148 C150 1.369 . S
C148 H176 0.930 1_545 S
C149 C151 1.383 . S
C149 C152 1.382 . S
C149 H177 0.930 . S
C150 C148 1.369 . S
C150 C152 1.392 . S
C150 H178 0.930 1_545 S
C151 C147 1.373 . S
C151 C149 1.383 . S
C151 H179 0.931 . S
C152 C149 1.382 . S
C152 C150 1.392 . S
C153 Eu144 2.828 . S
C153 C147 1.505 . S
C153 O165 1.249 . S
C153 O166 1.244 . S
O154 Eu145 2.373 1_545 S
O154 C156 1.258 . S
O155 Eu144 2.392 . S
O155 C156 1.242 . S
C156 O154 1.258 . S
C156 O155 1.242 . S
O157 Eu144 2.418 . S
O157 C161 1.244 . S
O158 Eu145 2.488 . S
O158 C174 1.249 . S
O159 Eu145 2.471 1_545 S
O159 C174 1.244 1_545 S
O160 Eu145 2.349 1_545 S
O160 C161 1.265 . S
C161 O157 1.244 . S
C161 O160 1.265 . S
O162 Eu144 2.373 . S
O162 C175 1.258 1_545 S
O163 Eu145 2.392 . S
O163 C175 1.242 . S
O164 Eu145 2.418 . S
O164 C146 1.244 . S
O165 Eu144 2.488 . S
O165 C153 1.249 . S
O166 Eu144 2.471 . S
O166 C153 1.244 . S
O167 Eu144 2.349 1_565 S
O167 C146 1.265 . S
C168 C169 1.379 1_565 S
C168 C172 1.373 . S
C168 C174 1.505 . S
C169 C168 1.379 1_545 S
C169 C171 1.369 . S
C169 H180 0.930 . S
C170 C172 1.383 . S
C170 C173 1.382 . S
C170 H181 0.930 . S
C171 C169 1.369 . S
C171 C173 1.392 1_545 S
C171 H182 0.930 . S
C172 C168 1.373 . S
C172 C170 1.383 . S
C172 H183 0.931 . S
C173 C170 1.382 . S
C173 C171 1.392 1_565 S
C174 Eu145 2.828 . S
C174 O158 1.249 . S
C174 O159 1.244 1_565 S
C174 C168 1.505 . S
C175 O162 1.258 1_565 S
C175 O163 1.242 . S
H176 C148 0.930 1_565 S
H177 C149 0.930 . S
H178 C150 0.930 1_565 S
H179 C151 0.931 . S
H180 C169 0.930 . S
H181 C170 0.930 . S
H182 C171 0.930 . S
H183 C172 0.931 . S
Eu184 C193 2.828 . S
Eu184 O195 2.392 . S
Eu184 O197 2.418 . S
Eu184 O202 2.373 . S
Eu184 O205 2.488 . S
Eu184 O206 2.471 . S
Eu184 O207 2.349 . S
Eu185 O194 2.373 . S
Eu185 O198 2.488 . S
Eu185 O199 2.471 . S
Eu185 O200 2.349 . S
Eu185 O203 2.392 . S
Eu185 O204 2.418 . S
Eu185 C214 2.828 . S
C186 O204 1.244 . S
C186 O207 1.265 . S
C187 C188 1.379 . S
C187 C191 1.373 . S
C187 C193 1.505 . S
C188 C187 1.379 . S
C188 C190 1.369 . S
C188 H216 0.930 . S
C189 C191 1.383 . S
C189 C192 1.382 . S
C189 H217 0.930 . S
C190 C188 1.369 . S
C190 C192 1.392 . S
C190 H218 0.930 . S
C191 C187 1.373 . S
C191 C189 1.383 . S
C191 H219 0.931 . S
C192 C189 1.382 . S
C192 C190 1.392 . S
C193 Eu184 2.828 . S
C193 C187 1.505 . S
C193 O205 1.249 . S
C193 O206 1.244 . S
O194 Eu185 2.373 . S
O194 C196 1.258 . S
O195 Eu184 2.392 . S
O195 C196 1.242 . S
C196 O194 1.258 . S
C196 O195 1.242 . S
O197 Eu184 2.418 . S
O197 C201 1.244 . S
O198 Eu185 2.488 . S
O198 C214 1.249 . S
O199 Eu185 2.471 . S
O199 C214 1.244 . S
O200 Eu185 2.349 . S
O200 C201 1.265 . S
C201 O197 1.244 . S
C201 O200 1.265 . S
O202 Eu184 2.373 . S
O202 C215 1.258 . S
O203 Eu185 2.392 . S
O203 C215 1.242 . S
O204 Eu185 2.418 . S
O204 C186 1.244 . S
O205 Eu184 2.488 . S
O205 C193 1.249 . S
O206 Eu184 2.471 . S
O206 C193 1.244 . S
O207 Eu184 2.349 . S
O207 C186 1.265 . S
C208 C209 1.379 . S
C208 C212 1.373 . S
C208 C214 1.505 . S
C209 C208 1.379 . S
C209 C211 1.369 . S
C209 H220 0.930 . S
C210 C212 1.383 . S
C210 C213 1.382 . S
C210 H221 0.930 . S
C211 C209 1.369 . S
C211 C213 1.392 . S
C211 H222 0.930 . S
C212 C208 1.373 . S
C212 C210 1.383 . S
C212 H223 0.931 . S
C213 C210 1.382 . S
C213 C211 1.392 . S
C214 Eu185 2.828 . S
C214 O198 1.249 . S
C214 O199 1.244 . S
C214 C208 1.505 . S
C215 O202 1.258 . S
C215 O203 1.242 . S
H216 C188 0.930 . S
H217 C189 0.930 . S
H218 C190 0.930 . S
H219 C191 0.931 . S
H220 C209 0.930 . S
H221 C210 0.930 . S
H222 C211 0.930 . S
H223 C212 0.931 . S
Eu224 C233 2.828 . S
Eu224 O235 2.392 . S
Eu224 O237 2.418 1_455 S
Eu224 O242 2.373 . S
Eu224 O245 2.488 . S
Eu224 O246 2.471 . S
Eu224 O247 2.349 . S
Eu225 O234 2.373 . S
Eu225 O238 2.488 . S
Eu225 O239 2.471 . S
Eu225 O240 2.349 . S
Eu225 O243 2.392 1_655 S
Eu225 O244 2.418 1_655 S
Eu225 C254 2.828 . S
C226 O244 1.244 . S
C226 O247 1.265 . S
C227 C228 1.379 . S
C227 C231 1.373 . S
C227 C233 1.505 . S
C228 C227 1.379 . S
C228 C230 1.369 . S
C228 H256 0.930 . S
C229 C231 1.383 . S
C229 C232 1.382 . S
C229 H257 0.930 . S
C230 C228 1.369 . S
C230 C232 1.392 . S
C230 H258 0.930 . S
C231 C227 1.373 . S
C231 C229 1.383 . S
C231 H259 0.931 . S
C232 C229 1.382 . S
C232 C230 1.392 . S
C233 Eu224 2.828 . S
C233 C227 1.505 . S
C233 O245 1.249 . S
C233 O246 1.244 . S
O234 Eu225 2.373 . S
O234 C236 1.258 1_655 S
O235 Eu224 2.392 . S
O235 C236 1.242 . S
C236 O234 1.258 1_455 S
C236 O235 1.242 . S
O237 Eu224 2.418 1_655 S
O237 C241 1.244 . S
O238 Eu225 2.488 . S
O238 C254 1.249 . S
O239 Eu225 2.471 . S
O239 C254 1.244 . S
O240 Eu225 2.349 . S
O240 C241 1.265 . S
C241 O237 1.244 . S
C241 O240 1.265 . S
O242 Eu224 2.373 . S
O242 C255 1.258 . S
O243 Eu225 2.392 1_455 S
O243 C255 1.242 . S
O244 Eu225 2.418 1_455 S
O244 C226 1.244 . S
O245 Eu224 2.488 . S
O245 C233 1.249 . S
O246 Eu224 2.471 . S
O246 C233 1.244 . S
O247 Eu224 2.349 . S
O247 C226 1.265 . S
C248 C249 1.379 . S
C248 C252 1.373 1_556 S
C248 C254 1.505 . S
C249 C248 1.379 . S
C249 C251 1.369 . S
C249 H260 0.930 . S
C250 C252 1.383 . S
C250 C253 1.382 . S
C250 H261 0.930 . S
C251 C249 1.369 . S
C251 C253 1.392 1_556 S
C251 H262 0.930 . S
C252 C248 1.373 1_554 S
C252 C250 1.383 . S
C252 H263 0.931 . S
C253 C250 1.382 . S
C253 C251 1.392 1_554 S
C254 Eu225 2.828 . S
C254 O238 1.249 . S
C254 O239 1.244 . S
C254 C248 1.505 . S
C255 O242 1.258 . S
C255 O243 1.242 . S
H256 C228 0.930 . S
H257 C229 0.930 . S
H258 C230 0.930 . S
H259 C231 0.931 . S
H260 C249 0.930 . S
H261 C250 0.930 . S
H262 C251 0.930 . S
H263 C252 0.931 . S
H264 C270 0.930 . S
H265 C274 0.930 . S
H266 C279 0.929 . S
H267 C277 0.929 . S
H268 C272 0.929 . S
H269 C278 0.929 . S
C270 H264 0.930 . S
C270 C271 1.367 . S
C270 C278 1.378 . S
C271 C270 1.367 . S
C271 C279 1.433 . S
C272 H268 0.929 . S
C272 C274 1.378 . S
C272 C276 1.350 . S
C273 C276 1.463 . S
C273 C278 1.350 . S
C273 N281 1.427 . S
C274 H265 0.930 . S
C274 C272 1.378 . S
C274 C275 1.367 . S
C275 C274 1.367 . S
C275 C277 1.433 . S
C276 C272 1.350 . S
C276 C273 1.463 . S
C276 N280 1.427 . S
C277 H267 0.929 . S
C277 C275 1.433 . S
C277 N280 1.384 . S
C278 H269 0.929 . S
C278 C270 1.378 . S
C278 C273 1.350 . S
C279 H266 0.929 . S
C279 C271 1.433 . S
C279 N281 1.384 . S
N280 C276 1.427 . S
N280 C277 1.384 . S
N281 C273 1.427 . S
N281 C279 1.384 . S
H282 C288 0.930 . S
H283 C292 0.930 . S
H284 C297 0.929 . S
H285 C295 0.929 . S
H286 C290 0.929 . S
H287 C296 0.929 . S
C288 H282 0.930 . S
C288 C289 1.367 . S
C288 C296 1.378 . S
C289 C288 1.367 . S
C289 C297 1.433 . S
C290 H286 0.929 . S
C290 C292 1.378 . S
C290 C294 1.350 . S
C291 C294 1.463 . S
C291 C296 1.350 . S
C291 N299 1.427 . S
C292 H283 0.930 . S
C292 C290 1.378 . S
C292 C293 1.367 . S
C293 C292 1.367 . S
C293 C295 1.433 . S
C294 C290 1.350 . S
C294 C291 1.463 . S
C294 N298 1.427 . S
C295 H285 0.929 . S
C295 C293 1.433 . S
C295 N298 1.384 . S
C296 H287 0.929 . S
C296 C288 1.378 . S
C296 C291 1.350 . S
C297 H284 0.929 . S
C297 C289 1.433 . S
C297 N299 1.384 . S
N298 C294 1.427 . S
N298 C295 1.384 . S
N299 C291 1.427 . S
N299 C297 1.384 . S
H300 C306 0.930 . S
H301 C310 0.930 . S
H302 C315 0.929 . S
H303 C313 0.929 . S
H304 C308 0.929 . S
H305 C314 0.929 . S
C306 H300 0.930 . S
C306 C307 1.367 . S
C306 C314 1.378 . S
C307 C306 1.367 . S
C307 C315 1.433 . S
C308 H304 0.929 . S
C308 C310 1.378 . S
C308 C312 1.350 . S
C309 C312 1.463 . S
C309 C314 1.350 . S
C309 N317 1.427 . S
C310 H301 0.930 . S
C310 C308 1.378 . S
C310 C311 1.367 . S
C311 C310 1.367 . S
C311 C313 1.433 . S
C312 C308 1.350 . S
C312 C309 1.463 . S
C312 N316 1.427 . S
C313 H303 0.929 . S
C313 C311 1.433 . S
C313 N316 1.384 . S
C314 H305 0.929 . S
C314 C306 1.378 . S
C314 C309 1.350 . S
C315 H302 0.929 . S
C315 C307 1.433 . S
C315 N317 1.384 . S
N316 C312 1.427 . S
N316 C313 1.384 . S
N317 C309 1.427 . S
N317 C315 1.384 . S
H318 C324 0.930 . S
H319 C328 0.930 . S
H320 C333 0.929 . S
H321 C331 0.929 1_655 S
H322 C326 0.929 . S
H323 C332 0.929 . S
C324 H318 0.930 . S
C324 C325 1.367 . S
C324 C332 1.378 . S
C325 C324 1.367 . S
C325 C333 1.433 . S
C326 H322 0.929 . S
C326 C328 1.378 . S
C326 C330 1.350 . S
C327 C330 1.463 . S
C327 C332 1.350 . S
C327 N335 1.427 . S
C328 H319 0.930 . S
C328 C326 1.378 . S
C328 C329 1.367 . S
C329 C328 1.367 . S
C329 C331 1.433 . S
C330 C326 1.350 . S
C330 C327 1.463 . S
C330 N334 1.427 . S
C331 H321 0.929 1_455 S
C331 C329 1.433 . S
C331 N334 1.384 . S
C332 H323 0.929 . S
C332 C324 1.378 . S
C332 C327 1.350 . S
C333 H320 0.929 . S
C333 C325 1.433 . S
C333 N335 1.384 . S
N334 C330 1.427 . S
N334 C331 1.384 . S
N335 C327 1.427 . S
N335 C333 1.384 . S
H336 C342 0.930 . S
H337 C346 0.930 . S
H338 C351 0.929 . S
H339 C349 0.929 . S
H340 C344 0.929 . S
H341 C350 0.929 . S
C342 H336 0.930 . S
C342 C343 1.367 . S
C342 C350 1.378 . S
C343 C342 1.367 . S
C343 C351 1.433 1_565 S
C344 H340 0.929 . S
C344 C346 1.378 1_554 S
C344 C348 1.350 1_545 S
C345 C348 1.463 . S
C345 C350 1.350 . S
C345 N353 1.427 1_565 S
C346 H337 0.930 . S
C346 C344 1.378 1_556 S
C346 C347 1.367 1_545 S
C347 C346 1.367 1_565 S
C347 C349 1.433 . S
C348 C344 1.350 1_565 S
C348 C345 1.463 . S
C348 N352 1.427 1_554 S
C349 H339 0.929 . S
C349 C347 1.433 . S
C349 N352 1.384 . S
C350 H341 0.929 . S
C350 C342 1.378 . S
C350 C345 1.350 . S
C351 H338 0.929 . S
C351 C343 1.433 1_545 S
C351 N353 1.384 . S
N352 C348 1.427 1_556 S
N352 C349 1.384 . S
N353 C345 1.427 1_545 S
N353 C351 1.384 . S
H354 C360 0.930 . S
H355 C364 0.930 . S
H356 C369 0.929 . S
H357 C367 0.929 . S
H358 C362 0.929 . S
H359 C368 0.929 . S
C360 H354 0.930 . S
C360 C361 1.367 . S
C360 C368 1.378 . S
C361 C360 1.367 . S
C361 C369 1.433 . S
C362 H358 0.929 . S
C362 C364 1.378 1_554 S
C362 C366 1.350 1_554 S
C363 C366 1.463 1_554 S
C363 C368 1.350 . S
C363 N371 1.427 . S
C364 H355 0.930 . S
C364 C362 1.378 1_556 S
C364 C365 1.367 . S
C365 C364 1.367 . S
C365 C367 1.433 . S
C366 C362 1.350 1_556 S
C366 C363 1.463 1_556 S
C366 N370 1.427 . S
C367 H357 0.929 . S
C367 C365 1.433 . S
C367 N370 1.384 . S
C368 H359 0.929 . S
C368 C360 1.378 . S
C368 C363 1.350 . S
C369 H356 0.929 . S
C369 C361 1.433 . S
C369 N371 1.384 . S
N370 C366 1.427 . S
N370 C367 1.384 . S
N371 C363 1.427 . S
N371 C369 1.384 . S
H372 C378 0.930 . S
H373 C382 0.930 . S
H374 C387 0.929 . S
H375 C385 0.929 . S
H376 C380 0.928 . S
H377 C386 0.929 1_556 S
C378 H372 0.930 . S
C378 C379 1.367 . S
C378 C386 1.378 . S
C379 C378 1.367 . S
C379 C387 1.433 . S
C380 H376 0.928 . S
C380 C382 1.378 1_554 S
C380 C384 1.350 1_554 S
C381 C384 1.463 1_554 S
C381 C386 1.350 . S
C381 N389 1.427 . S
C382 H373 0.930 . S
C382 C380 1.378 1_556 S
C382 C383 1.367 . S
C383 C382 1.367 . S
C383 C385 1.433 . S
C384 C380 1.350 1_556 S
C384 C381 1.463 1_556 S
C384 N388 1.427 . S
C385 H375 0.929 . S
C385 C383 1.433 . S
C385 N388 1.384 . S
C386 H377 0.929 1_554 S
C386 C378 1.378 . S
C386 C381 1.350 . S
C387 H374 0.929 . S
C387 C379 1.433 . S
C387 N389 1.384 . S
N388 C384 1.427 . S
N388 C385 1.384 . S
N389 C381 1.427 . S
N389 C387 1.384 . S
H390 C396 0.930 . S
H391 C400 0.930 . S
H392 C405 0.929 . S
H393 C403 0.929 . S
H394 C398 0.929 . S
H395 C404 0.929 1_455 S
C396 H390 0.930 . S
C396 C397 1.367 . S
C396 C404 1.378 . S
C397 C396 1.367 . S
C397 C405 1.433 . S
C398 H394 0.929 . S
C398 C400 1.378 1_554 S
C398 C402 1.350 . S
C399 C402 1.463 . S
C399 C404 1.350 . S
C399 N407 1.427 . S
C400 H391 0.930 . S
C400 C398 1.378 1_556 S
C400 C401 1.367 . S
C401 C400 1.367 . S
C401 C403 1.433 1_655 S
C402 C398 1.350 . S
C402 C399 1.463 . S
C402 N406 1.427 1_654 S
C403 H393 0.929 . S
C403 C401 1.433 1_455 S
C403 N406 1.384 . S
C404 H395 0.929 1_655 S
C404 C396 1.378 . S
C404 C399 1.350 . S
C405 H392 0.929 . S
C405 C397 1.433 . S
C405 N407 1.384 . S
N406 C402 1.427 1_456 S
N406 C403 1.384 . S
N407 C399 1.427 . S
N407 C405 1.384 . S
H408 C414 0.930 . S
H409 C418 0.930 . S
H410 C423 0.929 . S
H411 C421 0.929 . S
H412 C416 0.929 . S
H413 C422 0.929 . S
C414 H408 0.930 . S
C414 C415 1.367 . S
C414 C422 1.378 . S
C415 C414 1.367 . S
C415 C423 1.433 . S
C416 H412 0.929 . S
C416 C418 1.378 . S
C416 C420 1.350 . S
C417 C420 1.463 . S
C417 C422 1.350 . S
C417 N425 1.427 . S
C418 H409 0.930 . S
C418 C416 1.378 . S
C418 C419 1.367 . S
C419 C418 1.367 . S
C419 C421 1.433 1_455 S
C420 C416 1.350 . S
C420 C417 1.463 . S
C420 N424 1.427 . S
C421 H411 0.929 . S
C421 C419 1.433 1_655 S
C421 N424 1.384 1_655 S
C422 H413 0.929 . S
C422 C414 1.378 . S
C422 C417 1.350 . S
C423 H410 0.929 . S
C423 C415 1.433 . S
C423 N425 1.384 . S
N424 C420 1.427 . S
N424 C421 1.384 1_455 S
N425 C417 1.427 . S
N425 C423 1.384 . S
H426 C432 0.930 . S
H427 C436 0.930 . S
H428 C441 0.929 . S
H429 C439 0.929 . S
H430 C434 0.929 . S
H431 C440 0.929 1_565 S
C432 H426 0.930 . S
C432 C433 1.367 . S
C432 C440 1.378 . S
C433 C432 1.367 . S
C433 C441 1.433 . S
C434 H430 0.929 . S
C434 C436 1.378 . S
C434 C438 1.350 . S
C435 C438 1.463 . S
C435 C440 1.350 . S
C435 N443 1.427 . S
C436 H427 0.930 . S
C436 C434 1.378 . S
C436 C437 1.367 1_545 S
C437 C436 1.367 1_565 S
C437 C439 1.433 . S
C438 C434 1.350 . S
C438 C435 1.463 . S
C438 N442 1.427 1_545 S
C439 H429 0.929 . S
C439 C437 1.433 . S
C439 N442 1.384 . S
C440 H431 0.929 1_545 S
C440 C432 1.378 . S
C440 C435 1.350 . S
C441 H428 0.929 . S
C441 C433 1.433 . S
C441 N443 1.384 . S
N442 C438 1.427 1_565 S
N442 C439 1.384 . S
N443 C435 1.427 . S
N443 C441 1.384 . S
H444 C450 0.930 . S
H445 C454 0.930 . S
H446 C459 0.929 . S
H447 C457 0.929 . S
H448 C452 0.929 . S
H449 C458 0.929 . S
C450 H444 0.930 . S
C450 C451 1.367 . S
C450 C458 1.378 . S
C451 C450 1.367 . S
C451 C459 1.433 . S
C452 H448 0.929 . S
C452 C454 1.378 . S
C452 C456 1.350 . S
C453 C456 1.463 . S
C453 C458 1.350 . S
C453 N461 1.427 . S
C454 H445 0.930 . S
C454 C452 1.378 . S
C454 C455 1.367 . S
C455 C454 1.367 . S
C455 C457 1.433 . S
C456 C452 1.350 . S
C456 C453 1.463 . S
C456 N460 1.427 . S
C457 H447 0.929 . S
C457 C455 1.433 . S
C457 N460 1.384 . S
C458 H449 0.929 . S
C458 C450 1.378 . S
C458 C453 1.350 . S
C459 H446 0.929 . S
C459 C451 1.433 . S
C459 N461 1.384 . S
N460 C456 1.427 . S
N460 C457 1.384 . S
N461 C453 1.427 . S
N461 C459 1.384 . S
H462 C468 0.930 . S
H463 C472 0.930 . S
H464 C477 0.929 . S
H465 C475 0.929 . S
H466 C470 0.929 . S
H467 C476 0.929 . S
C468 H462 0.930 . S
C468 C469 1.367 . S
C468 C476 1.378 . S
C469 C468 1.367 . S
C469 C477 1.433 . S
C470 H466 0.929 . S
C470 C472 1.378 . S
C470 C474 1.350 . S
C471 C474 1.463 . S
C471 C476 1.350 . S
C471 N479 1.427 . S
C472 H463 0.930 . S
C472 C470 1.378 . S
C472 C473 1.367 . S
C473 C472 1.367 . S
C473 C475 1.433 . S
C474 C470 1.350 . S
C474 C471 1.463 . S
C474 N478 1.427 . S
C475 H465 0.929 . S
C475 C473 1.433 . S
C475 N478 1.384 . S
C476 H467 0.929 . S
C476 C468 1.378 . S
C476 C471 1.350 . S
C477 H464 0.929 . S
C477 C469 1.433 . S
C477 N479 1.384 . S
N478 C474 1.427 . S
N478 C475 1.384 . S
N479 C471 1.427 . S
N479 C477 1.384 . S
H480 C486 0.930 . S
H481 C490 0.930 . S
H482 C495 0.929 . S
H483 C493 0.929 . S
H484 C488 0.929 . S
H485 C494 0.931 . S
C486 H480 0.930 . S
C486 C487 1.367 . S
C486 C494 1.378 . S
C487 C486 1.367 . S
C487 C495 1.433 . S
C488 H484 0.929 . S
C488 C490 1.378 . S
C488 C492 1.350 . S
C489 C492 1.463 . S
C489 C494 1.350 . S
C489 N497 1.427 . S
C490 H481 0.930 . S
C490 C488 1.378 . S
C490 C491 1.367 1_655 S
C491 C490 1.367 1_455 S
C491 C493 1.433 . S
C492 C488 1.350 . S
C492 C489 1.463 . S
C492 N496 1.427 1_655 S
C493 H483 0.929 . S
C493 C491 1.433 . S
C493 N496 1.384 . S
C494 H485 0.931 . S
C494 C486 1.378 . S
C494 C489 1.350 . S
C495 H482 0.929 . S
C495 C487 1.433 . S
C495 N497 1.384 . S
N496 C492 1.427 1_455 S
N496 C493 1.384 . S
N497 C489 1.427 . S
N497 C495 1.384 . S
H498 C504 0.930 . S
H499 C508 0.930 . S
H500 C513 0.929 . S
H501 C511 0.929 1_556 S
H502 C506 0.929 . S
H503 C512 0.929 . S
C504 H498 0.930 . S
C504 C505 1.367 . S
C504 C512 1.378 . S
C505 C504 1.367 . S
C505 C513 1.433 1_565 S
C506 H502 0.929 . S
C506 C508 1.378 . S
C506 C510 1.350 . S
C507 C510 1.463 1_565 S
C507 C512 1.350 . S
C507 N515 1.427 1_565 S
C508 H499 0.930 . S
C508 C506 1.378 . S
C508 C509 1.367 . S
C509 C508 1.367 . S
C509 C511 1.433 1_545 S
C510 C506 1.350 . S
C510 C507 1.463 1_545 S
C510 N514 1.427 1_545 S
C511 H501 0.929 1_554 S
C511 C509 1.433 1_565 S
C511 N514 1.384 . S
C512 H503 0.929 . S
C512 C504 1.378 . S
C512 C507 1.350 . S
C513 H500 0.929 . S
C513 C505 1.433 1_545 S
C513 N515 1.384 . S
N514 C510 1.427 1_565 S
N514 C511 1.384 . S
N515 C507 1.427 1_545 S
N515 C513 1.384 . S
H516 C522 0.930 . S
H517 C526 0.930 . S
H518 C531 0.929 . S
H519 C529 0.929 . S
H520 C524 0.929 1_556 S
H521 C530 0.929 . S
C522 H516 0.930 . S
C522 C523 1.367 . S
C522 C530 1.378 . S
C523 C522 1.367 . S
C523 C531 1.433 . S
C524 H520 0.929 1_554 S
C524 C526 1.378 1_554 S
C524 C528 1.350 . S
C525 C528 1.463 . S
C525 C530 1.350 . S
C525 N533 1.427 . S
C526 H517 0.930 . S
C526 C524 1.378 1_556 S
C526 C527 1.367 . S
C527 C526 1.367 . S
C527 C529 1.433 1_556 S
C528 C524 1.350 . S
C528 C525 1.463 . S
C528 N532 1.427 . S
C529 H519 0.929 . S
C529 C527 1.433 1_554 S
C529 N532 1.384 . S
C530 H521 0.929 . S
C530 C522 1.378 . S
C530 C525 1.350 . S
C531 H518 0.929 . S
C531 C523 1.433 . S
C531 N533 1.384 . S
N532 C528 1.427 . S
N532 C529 1.384 . S
N533 C525 1.427 . S
N533 C531 1.384 . S
H534 C540 0.930 . S
H535 C544 0.930 . S
H536 C549 0.929 . S
H537 C547 0.929 . S
H538 C542 0.929 . S
H539 C548 0.929 . S
C540 H534 0.930 . S
C540 C541 1.367 . S
C540 C548 1.378 . S
C541 C540 1.367 . S
C541 C549 1.433 . S
C542 H538 0.929 . S
C542 C544 1.378 . S
C542 C546 1.350 . S
C543 C546 1.463 . S
C543 C548 1.350 . S
C543 N551 1.427 . S
C544 H535 0.930 . S
C544 C542 1.378 . S
C544 C545 1.367 . S
C545 C544 1.367 . S
C545 C547 1.433 . S
C546 C542 1.350 . S
C546 C543 1.463 . S
C546 N550 1.427 . S
C547 H537 0.929 . S
C547 C545 1.433 . S
C547 N550 1.384 . S
C548 H539 0.929 . S
C548 C540 1.378 . S
C548 C543 1.350 . S
C549 H536 0.929 . S
C549 C541 1.433 . S
C549 N551 1.384 . S
N550 C546 1.427 . S
N550 C547 1.384 . S
N551 C543 1.427 . S
N551 C549 1.384 . S
H552 C558 0.930 . S
H553 C562 0.930 . S
H554 C567 0.929 1_554 S
H555 C565 0.929 . S
H556 C560 0.929 . S
H557 C566 0.929 . S
C558 H552 0.930 . S
C558 C559 1.367 . S
C558 C566 1.378 . S
C559 C558 1.367 . S
C559 C567 1.433 . S
C560 H556 0.929 . S
C560 C562 1.378 . S
C560 C564 1.350 . S
C561 C564 1.463 . S
C561 C566 1.350 . S
C561 N569 1.427 . S
C562 H553 0.930 . S
C562 C560 1.378 . S
C562 C563 1.367 . S
C563 C562 1.367 . S
C563 C565 1.433 . S
C564 C560 1.350 . S
C564 C561 1.463 . S
C564 N568 1.427 . S
C565 H555 0.929 . S
C565 C563 1.433 . S
C565 N568 1.384 . S
C566 H557 0.929 . S
C566 C558 1.378 . S
C566 C561 1.350 . S
C567 H554 0.929 1_556 S
C567 C559 1.433 . S
C567 N569 1.384 . S
N568 C564 1.427 . S
N568 C565 1.384 . S
N569 C561 1.427 . S
N569 C567 1.384 . S
H570 C576 0.930 . S
H571 C580 0.930 . S
H572 C585 0.929 . S
H573 C583 0.929 1_565 S
H574 C578 0.929 . S
H575 C584 0.929 1_565 S
C576 H570 0.930 . S
C576 C577 1.367 . S
C576 C584 1.378 . S
C577 C576 1.367 . S
C577 C585 1.433 . S
C578 H574 0.929 . S
C578 C580 1.378 . S
C578 C582 1.350 . S
C579 C582 1.463 . S
C579 C584 1.350 . S
C579 N587 1.427 . S
C580 H571 0.930 . S
C580 C578 1.378 . S
C580 C581 1.367 . S
C581 C580 1.367 . S
C581 C583 1.433 . S
C582 C578 1.350 . S
C582 C579 1.463 . S
C582 N586 1.427 . S
C583 H573 0.929 1_545 S
C583 C581 1.433 . S
C583 N586 1.384 . S
C584 H575 0.929 1_545 S
C584 C576 1.378 . S
C584 C579 1.350 . S
C585 H572 0.929 . S
C585 C577 1.433 . S
C585 N587 1.384 . S
N586 C582 1.427 . S
N586 C583 1.384 . S
N587 C579 1.427 . S
N587 C585 1.384 . S
H588 C594 0.930 . S
H589 C598 0.930 . S
H590 C603 0.929 . S
H591 C601 0.929 . S
H592 C596 0.929 . S
H593 C602 0.929 . S
C594 H588 0.930 . S
C594 C595 1.367 . S
C594 C602 1.378 . S
C595 C594 1.367 . S
C595 C603 1.433 . S
C596 H592 0.929 . S
C596 C598 1.378 . S
C596 C600 1.350 . S
C597 C600 1.463 . S
C597 C602 1.350 . S
C597 N605 1.427 . S
C598 H589 0.930 . S
C598 C596 1.378 . S
C598 C599 1.367 . S
C599 C598 1.367 . S
C599 C601 1.433 . S
C600 C596 1.350 . S
C600 C597 1.463 . S
C600 N604 1.427 . S
C601 H591 0.929 . S
C601 C599 1.433 . S
C601 N604 1.384 . S
C602 H593 0.929 . S
C602 C594 1.378 . S
C602 C597 1.350 . S
C603 H590 0.929 . S
C603 C595 1.433 . S
C603 N605 1.384 . S
N604 C600 1.427 . S
N604 C601 1.384 . S
N605 C597 1.427 . S
N605 C603 1.384 . S
H606 C612 0.930 1_554 S
H607 C616 0.930 . S
H608 C621 0.929 . S
H609 C619 0.929 . S
H610 C614 0.929 . S
H611 C620 0.929 1_554 S
C612 H606 0.930 1_556 S
C612 C613 1.367 . S
C612 C620 1.378 . S
C613 C612 1.367 . S
C613 C621 1.433 . S
C614 H610 0.929 . S
C614 C616 1.378 . S
C614 C618 1.350 . S
C615 C618 1.463 . S
C615 C620 1.350 . S
C615 N623 1.427 . S
C616 H607 0.930 . S
C616 C614 1.378 . S
C616 C617 1.367 . S
C617 C616 1.367 . S
C617 C619 1.433 . S
C618 C614 1.350 . S
C618 C615 1.463 . S
C618 N622 1.427 . S
C619 H609 0.929 . S
C619 C617 1.433 . S
C619 N622 1.384 . S
C620 H611 0.929 1_556 S
C620 C612 1.378 . S
C620 C615 1.350 . S
C621 H608 0.929 . S
C621 C613 1.433 . S
C621 N623 1.384 . S
N622 C618 1.427 . S
N622 C619 1.384 . S
N623 C615 1.427 . S
N623 C621 1.384 . S
H624 C630 0.930 . S
H625 C634 0.930 . S
H626 C639 0.929 1_455 S
H627 C637 0.929 . S
H628 C632 0.929 . S
H629 C638 0.929 . S
C630 H624 0.930 . S
C630 C631 1.367 . S
C630 C638 1.378 . S
C631 C630 1.367 . S
C631 C639 1.433 . S
C632 H628 0.929 . S
C632 C634 1.378 . S
C632 C636 1.350 1_455 S
C633 C636 1.463 . S
C633 C638 1.350 . S
C633 N641 1.391 1_655 S
C634 H625 0.930 . S
C634 C632 1.378 . S
C634 C635 1.367 1_455 S
C635 C634 1.367 1_655 S
C635 C637 1.433 . S
C636 C632 1.350 1_655 S
C636 C633 1.463 . S
C636 N640 1.427 . S
C637 H627 0.929 . S
C637 C635 1.433 . S
C637 N640 1.384 . S
C638 H629 0.929 . S
C638 C630 1.378 . S
C638 C633 1.350 . S
C639 H626 0.929 1_655 S
C639 C631 1.433 . S
C639 N641 1.380 1_655 S
N640 C636 1.427 . S
N640 C637 1.384 . S
N641 C633 1.391 1_455 S
N641 C639 1.380 1_455 S
H642 C648 0.908 1_545 S
H643 C652 0.930 . S
H644 C657 0.929 . S
H645 C655 0.929 . S
H646 C650 0.929 . S
H647 C656 0.960 . S
C648 H642 0.908 1_565 S
C648 C649 1.392 . S
C648 C656 1.374 1_565 S
C649 C648 1.392 . S
C649 C657 1.433 . S
C650 H646 0.929 . S
C650 C652 1.378 . S
C650 C654 1.350 . S
C651 C654 1.463 . S
C651 C656 1.322 1_565 S
C651 N659 1.427 . S
C652 H643 0.930 . S
C652 C650 1.378 . S
C652 C653 1.367 . S
C653 C652 1.367 . S
C653 C655 1.433 1_565 S
C654 C650 1.350 . S
C654 C651 1.463 . S
C654 N658 1.427 1_565 S
C655 H645 0.929 . S
C655 C653 1.433 1_545 S
C655 N658 1.384 . S
C656 H647 0.960 . S
C656 C648 1.374 1_545 S
C656 C651 1.322 1_545 S
C657 H644 0.929 . S
C657 C649 1.433 . S
C657 N659 1.384 . S
N658 C654 1.427 1_545 S
N658 C655 1.384 . S
N659 C651 1.427 . S
N659 C657 1.384 . S
H660 C666 0.930 . S
H661 C670 0.930 . S
H662 C675 0.929 . S
H663 C673 0.929 . S
H664 C668 0.929 . S
H665 C674 0.929 . S
C666 H660 0.930 . S
C666 C667 1.367 . S
C666 C674 1.378 . S
C667 C666 1.367 . S
C667 C675 1.433 . S
C668 H664 0.929 . S
C668 C670 1.378 . S
C668 C672 1.350 . S
C669 C672 1.463 . S
C669 C674 1.350 . S
C669 N677 1.427 . S
C670 H661 0.930 . S
C670 C668 1.378 . S
C670 C671 1.367 . S
C671 C670 1.367 . S
C671 C673 1.433 . S
C672 C668 1.350 . S
C672 C669 1.463 . S
C672 N676 1.427 . S
C673 H663 0.929 . S
C673 C671 1.433 . S
C673 N676 1.384 . S
C674 H665 0.929 . S
C674 C666 1.378 . S
C674 C669 1.350 . S
C675 H662 0.929 . S
C675 C667 1.433 . S
C675 N677 1.384 . S
N676 C672 1.427 . S
N676 C673 1.384 . S
N677 C669 1.427 . S
N677 C675 1.384 . S
H678 C684 0.930 . S
H679 C688 0.930 . S
H680 C693 0.929 . S
H681 C691 0.929 . S
H682 C686 0.929 . S
H683 C692 0.929 . S
C684 H678 0.930 . S
C684 C685 1.367 . S
C684 C692 1.378 . S
C685 C684 1.367 . S
C685 C693 1.433 . S
C686 H682 0.929 . S
C686 C688 1.378 . S
C686 C690 1.350 . S
C687 C690 1.463 . S
C687 C692 1.350 . S
C687 N695 1.427 . S
C688 H679 0.930 . S
C688 C686 1.378 . S
C688 C689 1.367 . S
C689 C688 1.367 . S
C689 C691 1.433 . S
C690 C686 1.350 . S
C690 C687 1.463 . S
C690 N694 1.427 . S
C691 H681 0.929 . S
C691 C689 1.433 . S
C691 N694 1.384 . S
C692 H683 0.929 . S
C692 C684 1.378 . S
C692 C687 1.350 . S
C693 H680 0.929 . S
C693 C685 1.433 . S
C693 N695 1.384 . S
N694 C690 1.427 . S
N694 C691 1.384 . S
N695 C687 1.427 . S
N695 C693 1.384 . S
C271 C82 2.010 . S
C275 C135 2.325 . S
C293 C161 1.877 . S
C289 C95 1.553 . S
C311 C201 1.946 . S
C307 C56 1.693 . S
C329 C255 2.367 . S
C325 C69 2.085 . S
C347 C116 2.321 1_565 S
C343 C30 1.966 . S
C361 C43 1.575 . S
C365 C146 1.880 . S
C379 C4 1.647 . S
C383 C186 1.947 . S
C397 C17 2.022 . S
C401 C236 2.365 1_655 S
C419 C112 0.535 . S
C415 C74 0.560 . S
C437 C173 0.680 . S
C433 C87 0.666 . S
C455 C213 0.550 . S
C451 C100 0.560 . S
C469 C61 0.492 . S
C473 C232 0.436 . S
C487 C22 0.533 . S
C491 C133 0.507 . S
C509 C152 0.685 1_554 S
C505 C35 0.690 . S
C527 C192 0.575 . S
C523 C48 0.550 . S
C541 C9 0.476 . S
C545 C253 0.418 . S
C559 C73 1.905 . S
C563 C106 2.115 . S
C577 C86 2.378 . S
C581 C156 2.595 . S
C599 C196 2.382 . S
C595 C99 2.193 . S
C617 C226 1.881 . S
C613 C60 1.687 . S
C631 C21 1.891 . S
C635 C121 2.116 . S
C653 C175 2.595 . S
C649 C34 2.382 . S
C671 C215 2.382 . S
C667 C47 2.198 . S
C685 C8 1.688 . S
C689 C241 1.879 . S
