# Generated by pormake.
# Topology ssa, (4,4)-cn, num edge types: 1
# Building blocks:
#     Node 0, Type 0, BuildingBlock: ESEHIV_clean_sbu_0, # of connection points: 4
#     Node 1, Type 0, BuildingBlock: ESEHIV_clean_sbu_0, # of connection points: 4
#     Node 2, Type 0, BuildingBlock: ESEHIV_clean_sbu_0, # of connection points: 4
#     Node 3, Type 0, BuildingBlock: ESEHIV_clean_sbu_0, # of connection points: 4
#     Node 4, Type 0, BuildingBlock: ESEHIV_clean_sbu_0, # of connection points: 4
#     Node 5, Type 0, BuildingBlock: ESEHIV_clean_sbu_0, # of connection points: 4
#     Node 6, Type 1, BuildingBlock: NAHDIM_clean_linker_0, # of connection points: 4
#     Node 7, Type 1, BuildingBlock: NAHDIM_clean_linker_0, # of connection points: 4
#     Node 8, Type 1, BuildingBlock: NAHDIM_clean_linker_0, # of connection points: 4
#     Node 9, Type 1, BuildingBlock: NAHDIM_clean_linker_0, # of connection points: 4
#     Node 10, Type 1, BuildingBlock: NAHDIM_clean_linker_0, # of connection points: 4
#     Node 11, Type 1, BuildingBlock: NAHDIM_clean_linker_0, # of connection points: 4
#     Edge 12, Type (0, 1), BuildingBlock: XUDNAN_clean_linker_2, # of connection points: 2
#     Edge 13, Type (0, 1), BuildingBlock: XUDNAN_clean_linker_2, # of connection points: 2
#     Edge 14, Type (0, 1), BuildingBlock: XUDNAN_clean_linker_2, # of connection points: 2
#     Edge 15, Type (0, 1), BuildingBlock: XUDNAN_clean_linker_2, # of connection points: 2
#     Edge 16, Type (0, 1), BuildingBlock: XUDNAN_clean_linker_2, # of connection points: 2
#     Edge 17, Type (0, 1), BuildingBlock: XUDNAN_clean_linker_2, # of connection points: 2
#     Edge 18, Type (0, 1), BuildingBlock: XUDNAN_clean_linker_2, # of connection points: 2
#     Edge 19, Type (0, 1), BuildingBlock: XUDNAN_clean_linker_2, # of connection points: 2
#     Edge 20, Type (0, 1), BuildingBlock: XUDNAN_clean_linker_2, # of connection points: 2
#     Edge 21, Type (0, 1), BuildingBlock: XUDNAN_clean_linker_2, # of connection points: 2
#     Edge 22, Type (0, 1), BuildingBlock: XUDNAN_clean_linker_2, # of connection points: 2
#     Edge 23, Type (0, 1), BuildingBlock: XUDNAN_clean_linker_2, # of connection points: 2
#     Edge 24, Type (0, 1), BuildingBlock: XUDNAN_clean_linker_2, # of connection points: 2
#     Edge 25, Type (0, 1), BuildingBlock: XUDNAN_clean_linker_2, # of connection points: 2
#     Edge 26, Type (0, 1), BuildingBlock: XUDNAN_clean_linker_2, # of connection points: 2
#     Edge 27, Type (0, 1), BuildingBlock: XUDNAN_clean_linker_2, # of connection points: 2
#     Edge 28, Type (0, 1), BuildingBlock: XUDNAN_clean_linker_2, # of connection points: 2
#     Edge 29, Type (0, 1), BuildingBlock: XUDNAN_clean_linker_2, # of connection points: 2
#     Edge 30, Type (0, 1), BuildingBlock: XUDNAN_clean_linker_2, # of connection points: 2
#     Edge 31, Type (0, 1), BuildingBlock: XUDNAN_clean_linker_2, # of connection points: 2
#     Edge 32, Type (0, 1), BuildingBlock: XUDNAN_clean_linker_2, # of connection points: 2
#     Edge 33, Type (0, 1), BuildingBlock: XUDNAN_clean_linker_2, # of connection points: 2
#     Edge 34, Type (0, 1), BuildingBlock: XUDNAN_clean_linker_2, # of connection points: 2
#     Edge 35, Type (0, 1), BuildingBlock: XUDNAN_clean_linker_2, # of connection points: 2
# Relax obj value: 0.017
# Max RMSD: 0.106
# Mean RMSD: 0.070
data_MOF--net-ssa--node1-ESEHIV_clean_sbu_0--node2-NAHDIM_clean_linker_0--edge1-XUDNAN_clean_linker_2
_symmetry_space_group_name_H-M    P1
_symmetry_Int_Tables_number       1
_symmetry_cell_setting            triclinic
loop_
_symmetry_equiv_pos_as_xyz
'x, y, z'
_cell_length_a     62.031626
_cell_length_b     65.416273
_cell_length_c     54.93875
_cell_angle_alpha  88.515382
_cell_angle_beta   91.118118
_cell_angle_gamma 121.8476
loop_
_atom_site_label
_atom_site_type_symbol
_atom_site_fract_x
_atom_site_fract_y
_atom_site_fract_z
_atom_type_partial_charge
Cu0 Cu 0.01178 0.50437 0.01056 0.0
N1 N 0.98967 0.47181 0.01741 0.0
N2 N 0.96906 0.43219 0.012 0.0
C3 C 0.97925 0.45404 0.00109 0.0
C4 C 0.97313 0.43634 0.03607 0.0
C5 C 0.98586 0.46084 0.03935 0.0
O6 O 0.00443 0.51089 0.97775 0.0
C7 C 0.05443 0.51353 0.03743 0.0
O8 O 0.04202 0.51665 0.05454 0.0
H9 H 0.98099 0.45714 0.98158 0.0
H10 H 0.99333 0.47009 0.05635 0.0
N11 N 0.0061 0.52279 0.03197 0.0
N12 N 0.01351 0.5537 0.05459 0.0
C13 C 0.02178 0.54642 0.0362 0.0
C14 C 0.98713 0.51494 0.0481 0.0
C15 C 0.99176 0.534 0.06224 0.0
C16 C 0.01392 0.53205 0.96884 0.0
O17 O 0.03252 0.55028 0.98053 0.0
H18 H 0.03971 0.55772 0.02706 0.0
H19 H 0.97147 0.49651 0.04997 0.0
O20 O 0.04551 0.50954 0.01578 0.0
H21 H 0.96832 0.42272 0.05012 0.0
H22 H 0.98031 0.53337 0.0772 0.0
Cu23 Cu 0.52116 0.01442 0.51423 0.0
N24 N 0.54238 0.02111 0.48751 0.0
N25 N 0.56229 0.01548 0.45728 0.0
C26 C 0.54503 0.00496 0.47528 0.0
C27 C 0.57083 0.03919 0.45835 0.0
C28 C 0.55858 0.04259 0.477 0.0
O29 O 0.48985 0.98386 0.50892 0.0
C30 C 0.5593 0.0363 0.54733 0.0
O31 O 0.56283 0.05435 0.53327 0.0
H32 H 0.5347 0.98591 0.47976 0.0
H33 H 0.5614 0.05958 0.48257 0.0
N34 N 0.51235 0.03754 0.51746 0.0
N35 N 0.49929 0.05978 0.53461 0.0
C36 C 0.50409 0.04202 0.53797 0.0
C37 C 0.51255 0.05281 0.50045 0.0
C38 C 0.50465 0.06665 0.511 0.0
C39 C 0.48024 0.98168 0.48775 0.0
O40 O 0.49201 0.9995 0.47188 0.0
H41 H 0.50196 0.03259 0.5551 0.0
H42 H 0.51787 0.05369 0.48165 0.0
O43 O 0.54042 0.01535 0.54292 0.0
H44 H 0.58475 0.05311 0.44635 0.0
H45 H 0.50253 0.08037 0.50189 0.0
Cu46 Cu 0.53522 0.51355 0.02107 0.0
N47 N 0.52873 0.4823 0.01879 0.0
N48 N 0.51074 0.44501 0.00437 0.0
C49 C 0.51033 0.46545 0.00457 0.0
C50 C 0.5303 0.44924 0.01914 0.0
C51 C 0.54138 0.47228 0.02798 0.0
O52 O 0.55486 0.53158 0.9928 0.0
C53 C 0.49116 0.50169 0.04299 0.0
O54 O 0.50234 0.49586 0.05989 0.0
H55 H 0.4975 0.46859 0.99385 0.0
H56 H 0.55792 0.48125 0.03969 0.0
N57 N 0.55353 0.52978 0.04902 0.0
N58 N 0.56918 0.55841 0.07709 0.0
C59 C 0.56078 0.55263 0.05396 0.0
C60 C 0.55778 0.52088 0.06971 0.0
C61 C 0.56732 0.5385 0.0871 0.0
C62 C 0.57628 0.53347 0.99139 0.0
O63 O 0.58313 0.52401 0.00897 0.0
H64 H 0.55824 0.56421 0.04137 0.0
H65 H 0.55266 0.50244 0.07251 0.0
O66 O 0.50231 0.51033 0.02275 0.0
H67 H 0.53631 0.43671 0.02318 0.0
H68 H 0.57167 0.53656 0.10589 0.0
Cu69 Cu 0.99549 0.47945 0.50144 0.0
N70 N 0.9951 0.4618 0.47509 0.0
N71 N 0.00755 0.4427 0.45151 0.0
C72 C 0.00939 0.45199 0.47362 0.0
C73 C 0.99137 0.44668 0.43857 0.0
C74 C 0.98359 0.45837 0.45323 0.0
O75 O 0.02475 0.5123 0.49918 0.0
C76 C 0.97607 0.44159 0.53445 0.0
O77 O 0.95768 0.43326 0.51818 0.0
H78 H 0.02185 0.45272 0.48811 0.0
H79 H 0.97141 0.46495 0.44792 0.0
N80 N 0.9667 0.48151 0.50236 0.0
N81 N 0.9402 0.49116 0.51764 0.0
C82 C 0.96398 0.49544 0.51798 0.0
C83 C 0.94388 0.46795 0.49156 0.0
C84 C 0.92744 0.47387 0.501 0.0
C85 C 0.03188 0.52242 0.47828 0.0
O86 O 0.02005 0.51017 0.45879 0.0
H87 H 0.97873 0.50725 0.53061 0.0
H88 H 0.93909 0.45381 0.47884 0.0
O89 O 0.99567 0.46247 0.53097 0.0
H90 H 0.98597 0.44191 0.41974 0.0
H91 H 0.90746 0.46543 0.49667 0.0
Cu92 Cu 0.52066 0.00873 0.02933 0.0
N93 N 0.51174 0.0318 0.02907 0.0
N94 N 0.49882 0.05587 0.01476 0.0
C95 C 0.50602 0.0404 0.0091 0.0
C96 C 0.50017 0.05711 0.0393 0.0
C97 C 0.50825 0.04228 0.04808 0.0
O98 O 0.53367 0.00981 0.99721 0.0
C99 C 0.46951 0.97281 0.04124 0.0
O100 O 0.46403 0.98847 0.03266 0.0
H101 H 0.50623 0.03466 0.99085 0.0
H102 H 0.51091 0.03896 0.06696 0.0
N103 N 0.54678 0.01709 0.05174 0.0
N104 N 0.57264 0.01332 0.07781 0.0
C105 C 0.55078 0.00171 0.06485 0.0
C106 C 0.5666 0.03919 0.05658 0.0
C107 C 0.58258 0.03695 0.0727 0.0
C108 C 0.54886 0.00282 0.99304 0.0
O109 O 0.553 0.99083 0.01011 0.0
H110 H 0.53807 0.98238 0.06444 0.0
H111 H 0.56958 0.05569 0.04837 0.0
O112 O 0.49213 0.97745 0.03954 0.0
H113 H 0.49551 0.06783 0.05012 0.0
H114 H 0.6006 0.05157 0.07933 0.0
Cu115 Cu 0.50254 0.48852 0.51236 0.0
N116 N 0.51702 0.51683 0.49345 0.0
N117 N 0.53022 0.553 0.47679 0.0
C118 C 0.51894 0.53818 0.49626 0.0
C119 C 0.53569 0.54057 0.4615 0.0
C120 C 0.52754 0.51839 0.4718 0.0
O121 O 0.47581 0.46362 0.49198 0.0
C122 C 0.55057 0.5022 0.52905 0.0
O123 O 0.55299 0.52325 0.52571 0.0
H124 H 0.51184 0.54255 0.51187 0.0
H125 H 0.52901 0.50415 0.46403 0.0
N126 N 0.48752 0.48894 0.54142 0.0
N127 N 0.47709 0.47481 0.57969 0.0
C128 C 0.49574 0.48543 0.56308 0.0
C129 C 0.46276 0.4808 0.54475 0.0
C130 C 0.45626 0.4719 0.56827 0.0
C131 C 0.46117 0.46963 0.48191 0.0
O132 O 0.46537 0.49113 0.48605 0.0
H133 H 0.51381 0.4868 0.5655 0.0
H134 H 0.44947 0.47815 0.53035 0.0
O135 O 0.52977 0.48337 0.5227 0.0
H136 H 0.54518 0.54716 0.44418 0.0
H137 H 0.43718 0.4615 0.57543 0.0
C138 C 0.08798 0.37602 0.3428 0.0
C139 C 0.1054 0.38909 0.36462 0.0
C140 C 0.14802 0.41143 0.34634 0.0
C141 C 0.16842 0.43433 0.3401 0.0
C142 C 0.18979 0.4374 0.32819 0.0
C143 C 0.19048 0.41691 0.32187 0.0
C144 C 0.17022 0.39368 0.32866 0.0
C145 C 0.14936 0.39118 0.34107 0.0
C146 C 0.21137 0.4625 0.32188 0.0
C147 C 0.17038 0.37143 0.3224 0.0
C148 C 0.35293 0.4064 0.38466 0.0
C149 C 0.33057 0.39932 0.36858 0.0
C150 C 0.3109 0.41825 0.34583 0.0
C151 C 0.28793 0.39672 0.34079 0.0
C152 C 0.26832 0.39702 0.32781 0.0
C153 C 0.27163 0.41928 0.3199 0.0
C154 C 0.29462 0.44098 0.32526 0.0
C155 C 0.31399 0.44013 0.338 0.0
C156 C 0.24406 0.37354 0.32249 0.0
C157 C 0.29877 0.4651 0.31751 0.0
C158 C 0.31183 0.43948 0.1559 0.0
C159 C 0.28777 0.4182 0.15681 0.0
C160 C 0.26929 0.41567 0.17304 0.0
C161 C 0.27465 0.4351 0.18806 0.0
C162 C 0.29874 0.45667 0.18694 0.0
C163 C 0.31716 0.45836 0.17117 0.0
C164 C 0.24387 0.39231 0.17377 0.0
C165 C 0.30492 0.47812 0.20198 0.0
C166 C 0.11481 0.44665 0.16357 0.0
C167 C 0.1391 0.46271 0.14903 0.0
C168 C 0.16566 0.44656 0.16002 0.0
C169 C 0.16246 0.42378 0.16169 0.0
C170 C 0.17785 0.41932 0.17718 0.0
C171 C 0.19742 0.43837 0.1908 0.0
C172 C 0.20085 0.46154 0.1891 0.0
C173 C 0.18489 0.46539 0.17376 0.0
C174 C 0.17355 0.39437 0.17857 0.0
C175 C 0.22193 0.48242 0.20287 0.0
C176 C 0.21168 0.4196 0.30708 0.0
C177 C 0.23118 0.41845 0.31899 0.0
C178 C 0.25115 0.41994 0.30597 0.0
C179 C 0.25171 0.4226 0.28028 0.0
C180 C 0.27098 0.42333 0.26647 0.0
C181 C 0.27168 0.42649 0.24127 0.0
C182 C 0.25335 0.42937 0.22894 0.0
C183 C 0.25437 0.43344 0.20346 0.0
C184 C 0.23584 0.43622 0.19183 0.0
C185 C 0.2159 0.43471 0.20478 0.0
C186 C 0.21433 0.43035 0.23023 0.0
C187 C 0.19423 0.42817 0.24379 0.0
C188 C 0.19312 0.42432 0.26889 0.0
C189 C 0.21227 0.42283 0.28147 0.0
C190 C 0.23244 0.42448 0.26807 0.0
C191 C 0.23336 0.42805 0.2424 0.0
C192 C 0.33087 0.40702 0.13243 0.0
C193 C 0.32872 0.42794 0.12216 0.0
O194 O 0.12749 0.4098 0.35698 0.0
O195 O 0.15062 0.44995 0.14428 0.0
O196 O 0.33049 0.44268 0.14077 0.0
O197 O 0.33048 0.41882 0.35811 0.0
H198 H 0.11018 0.37669 0.37403 0.0
H199 H 0.09681 0.36922 0.33067 0.0
H200 H 0.08416 0.38829 0.33183 0.0
H201 H 0.06966 0.36034 0.34922 0.0
H202 H 0.16744 0.44989 0.34444 0.0
H203 H 0.1341 0.3733 0.34616 0.0
H204 H 0.2298 0.46464 0.32723 0.0
H205 H 0.20956 0.4765 0.33097 0.0
H206 H 0.21167 0.46556 0.3019 0.0
H207 H 0.15241 0.35458 0.32748 0.0
H208 H 0.18631 0.37159 0.33211 0.0
H209 H 0.17345 0.37134 0.30256 0.0
H210 H 0.32593 0.38477 0.35551 0.0
H211 H 0.36352 0.39897 0.37571 0.0
H212 H 0.33705 0.39507 0.42015 0.0
H213 H 0.36756 0.42572 0.37983 0.0
H214 H 0.28521 0.37964 0.34682 0.0
H215 H 0.33172 0.45665 0.34203 0.0
H216 H 0.23938 0.37255 0.30277 0.0
H217 H 0.22824 0.37261 0.3326 0.0
H218 H 0.24528 0.35769 0.32786 0.0
H219 H 0.31664 0.48033 0.32511 0.0
H220 H 0.28262 0.46655 0.32345 0.0
H221 H 0.2996 0.46676 0.29735 0.0
H222 H 0.31028 0.42069 0.11237 0.0
H223 H 0.28316 0.40346 0.14498 0.0
H224 H 0.33576 0.47472 0.17031 0.0
H225 H 0.23749 0.38671 0.19286 0.0
H226 H 0.24442 0.37756 0.16481 0.0
H227 H 0.2296 0.39493 0.16414 0.0
H228 H 0.32338 0.4944 0.19686 0.0
H229 H 0.30583 0.47391 0.22152 0.0
H230 H 0.28978 0.48228 0.19979 0.0
H231 H 0.15185 0.47882 0.16 0.0
H232 H 0.10533 0.45658 0.16767 0.0
H233 H 0.11948 0.44098 0.18111 0.0
H234 H 0.10144 0.43028 0.15318 0.0
H235 H 0.14772 0.40942 0.15084 0.0
H236 H 0.18818 0.48331 0.17189 0.0
H237 H 0.17349 0.38881 0.19785 0.0
H238 H 0.18931 0.39446 0.16927 0.0
H239 H 0.15539 0.38085 0.16978 0.0
H240 H 0.22226 0.49939 0.19942 0.0
H241 H 0.24053 0.48528 0.19754 0.0
H242 H 0.21967 0.47826 0.22271 0.0
H243 H 0.23076 0.4163 0.33865 0.0
H244 H 0.28575 0.42147 0.275 0.0
H245 H 0.28694 0.42689 0.2316 0.0
H246 H 0.23697 0.43966 0.17231 0.0
H247 H 0.17914 0.42944 0.23511 0.0
H248 H 0.17715 0.42275 0.27833 0.0
H249 H 0.32981 0.39546 0.11742 0.0
H250 H 0.31523 0.39564 0.14525 0.0
H251 H 0.34912 0.41389 0.1424 0.0
C252 C 0.86587 0.26787 0.92737 0.0
C253 C 0.88865 0.28717 0.91257 0.0
C254 C 0.86659 0.27952 0.87321 0.0
C255 C 0.86786 0.25955 0.86668 0.0
C256 C 0.85204 0.24407 0.84836 0.0
C257 C 0.83442 0.2485 0.83648 0.0
C258 C 0.83372 0.26907 0.84239 0.0
C259 C 0.85014 0.28453 0.86047 0.0
C260 C 0.85367 0.22259 0.84212 0.0
C261 C 0.81507 0.27426 0.83018 0.0
C262 C 0.68813 0.13888 0.90102 0.0
C263 C 0.67474 0.12032 0.88083 0.0
C264 C 0.71112 0.13569 0.85318 0.0
C265 C 0.71106 0.15608 0.84446 0.0
C266 C 0.73165 0.17435 0.83118 0.0
C267 C 0.75268 0.17219 0.82639 0.0
C268 C 0.75238 0.15129 0.83431 0.0
C269 C 0.73148 0.13323 0.84746 0.0
C270 C 0.73119 0.19624 0.82267 0.0
C271 C 0.77443 0.14834 0.82939 0.0
C272 C 0.73691 0.14236 0.66586 0.0
C273 C 0.73707 0.1637 0.66728 0.0
C274 C 0.75443 0.18243 0.68227 0.0
C275 C 0.77258 0.17992 0.69577 0.0
C276 C 0.77292 0.15851 0.69405 0.0
C277 C 0.75478 0.13975 0.67943 0.0
C278 C 0.75326 0.20484 0.68358 0.0
C279 C 0.79232 0.15535 0.70777 0.0
C280 C 0.9405 0.35645 0.64977 0.0
C281 C 0.9281 0.33545 0.66693 0.0
C282 C 0.88528 0.30473 0.6807 0.0
C283 C 0.86077 0.29992 0.6841 0.0
C284 C 0.84231 0.27886 0.6962 0.0
C285 C 0.84836 0.26182 0.70461 0.0
C286 C 0.87309 0.26642 0.70101 0.0
C287 C 0.89142 0.28796 0.68933 0.0
C288 C 0.81629 0.27483 0.69994 0.0
C289 C 0.88008 0.24852 0.70946 0.0
C290 C 0.81554 0.23062 0.81926 0.0
C291 C 0.79385 0.21059 0.82917 0.0
C292 C 0.77555 0.19244 0.81437 0.0
C293 C 0.77907 0.19405 0.78889 0.0
C294 C 0.76128 0.17594 0.7735 0.0
C295 C 0.76499 0.1776 0.74846 0.0
C296 C 0.78657 0.19752 0.73782 0.0
C297 C 0.79053 0.1993 0.71239 0.0
C298 C 0.81131 0.22009 0.70226 0.0
C299 C 0.82857 0.23918 0.71689 0.0
C300 C 0.82568 0.2371 0.74251 0.0
C301 C 0.84327 0.25539 0.75792 0.0
C302 C 0.84025 0.25315 0.78309 0.0
C303 C 0.81907 0.2329 0.79376 0.0
C304 C 0.80088 0.2144 0.77855 0.0
C305 C 0.80446 0.21629 0.75295 0.0
C306 C 0.7335 0.10269 0.62989 0.0
C307 C 0.71412 0.10204 0.64733 0.0
O308 O 0.88032 0.29393 0.89202 0.0
O309 O 0.90215 0.32555 0.66885 0.0
O310 O 0.71936 0.12513 0.65096 0.0
O311 O 0.69233 0.11833 0.86748 0.0
H312 H 0.90047 0.27995 0.90701 0.0
H313 H 0.85426 0.25142 0.91651 0.0
H314 H 0.85367 0.27472 0.93278 0.0
H315 H 0.87239 0.26261 0.94402 0.0
H316 H 0.88095 0.25576 0.87595 0.0
H317 H 0.84946 0.3001 0.86547 0.0
H318 H 0.83613 0.20585 0.8482 0.0
H319 H 0.87024 0.22315 0.85094 0.0
H320 H 0.85503 0.22169 0.8221 0.0
H321 H 0.81663 0.29079 0.83714 0.0
H322 H 0.79541 0.25882 0.83318 0.0
H323 H 0.81834 0.27646 0.81024 0.0
H324 H 0.66428 0.12594 0.8685 0.0
H325 H 0.67401 0.14005 0.91206 0.0
H326 H 0.70136 0.15705 0.89319 0.0
H327 H 0.69912 0.13375 0.91318 0.0
H328 H 0.6952 0.15805 0.84819 0.0
H329 H 0.7313 0.11736 0.854 0.0
H330 H 0.73471 0.19911 0.80277 0.0
H331 H 0.74664 0.21242 0.83187 0.0
H332 H 0.71283 0.19461 0.82656 0.0
H333 H 0.77106 0.13078 0.83629 0.0
H334 H 0.79185 0.16303 0.83819 0.0
H335 H 0.77798 0.14979 0.80951 0.0
H336 H 0.71461 0.09366 0.66506 0.0
H337 H 0.72324 0.16555 0.65668 0.0
H338 H 0.75483 0.12327 0.67864 0.0
H339 H 0.75465 0.21041 0.70276 0.0
H340 H 0.7355 0.20228 0.67539 0.0
H341 H 0.76957 0.21969 0.67351 0.0
H342 H 0.79274 0.13957 0.70144 0.0
H343 H 0.78773 0.15271 0.72746 0.0
H344 H 0.81155 0.17172 0.70568 0.0
H345 H 0.9378 0.33786 0.68487 0.0
H346 H 0.95358 0.34443 0.62107 0.0
H347 H 0.95379 0.37217 0.66147 0.0
H348 H 0.92675 0.36262 0.64666 0.0
H349 H 0.8562 0.31292 0.67737 0.0
H350 H 0.91033 0.29144 0.68676 0.0
H351 H 0.8109 0.27061 0.7194 0.0
H352 H 0.80213 0.25916 0.68921 0.0
H353 H 0.81529 0.29072 0.69422 0.0
H354 H 0.8997 0.25414 0.70424 0.0
H355 H 0.86663 0.23064 0.70157 0.0
H356 H 0.87848 0.24637 0.72957 0.0
H357 H 0.79117 0.20911 0.84875 0.0
H358 H 0.74433 0.16021 0.78065 0.0
H359 H 0.75062 0.16308 0.73755 0.0
H360 H 0.81375 0.22167 0.68266 0.0
H361 H 0.85974 0.27155 0.75071 0.0
H362 H 0.85456 0.26764 0.79409 0.0
H363 H 0.73319 0.11103 0.6121 0.0
H364 H 0.7291 0.08415 0.6268 0.0
H365 H 0.75297 0.11331 0.63757 0.0
C366 C 0.61899 0.7158 0.39563 0.0
C367 C 0.59556 0.71351 0.40751 0.0
C368 C 0.57949 0.72962 0.37567 0.0
C369 C 0.55898 0.72363 0.36012 0.0
C370 C 0.55886 0.7409 0.34453 0.0
C371 C 0.58042 0.76462 0.34368 0.0
C372 C 0.60124 0.77088 0.35951 0.0
C373 C 0.6003 0.75348 0.37573 0.0
C374 C 0.53562 0.73363 0.32901 0.0
C375 C 0.62462 0.79594 0.35932 0.0
C376 C 0.59397 0.93763 0.37527 0.0
C377 C 0.59265 0.92006 0.35774 0.0
C378 C 0.57802 0.87761 0.3551 0.0
C379 C 0.60119 0.87943 0.35054 0.0
C380 C 0.60179 0.86045 0.33991 0.0
C381 C 0.57875 0.8391 0.33385 0.0
C382 C 0.55537 0.83686 0.33923 0.0
C383 C 0.55532 0.85611 0.35001 0.0
C384 C 0.62708 0.86321 0.33506 0.0
C385 C 0.53047 0.81425 0.33328 0.0
C386 C 0.59515 0.87681 0.17838 0.0
C387 C 0.61703 0.87783 0.18753 0.0
C388 C 0.61532 0.85802 0.19999 0.0
C389 C 0.59128 0.83676 0.20336 0.0
C390 C 0.5694 0.83522 0.19305 0.0
C391 C 0.57167 0.85528 0.18057 0.0
C392 C 0.63912 0.86012 0.21033 0.0
C393 C 0.54354 0.81272 0.19609 0.0
C394 C 0.60537 0.6853 0.2058 0.0
C395 C 0.58892 0.68529 0.18459 0.0
C396 C 0.59575 0.72552 0.18851 0.0
C397 C 0.61688 0.74887 0.19021 0.0
C398 C 0.61556 0.76685 0.2023 0.0
C399 C 0.59215 0.76153 0.21213 0.0
C400 C 0.57042 0.73806 0.20968 0.0
C401 C 0.57254 0.72022 0.19818 0.0
C402 C 0.63923 0.79153 0.20445 0.0
C403 C 0.54483 0.73185 0.21886 0.0
C404 C 0.58102 0.78299 0.32668 0.0
C405 C 0.57861 0.80119 0.33656 0.0
C406 C 0.57928 0.81924 0.32182 0.0
C407 C 0.58151 0.81873 0.29629 0.0
C408 C 0.58166 0.83628 0.28086 0.0
C409 C 0.58403 0.83577 0.2558 0.0
C410 C 0.58628 0.81766 0.24513 0.0
C411 C 0.58889 0.81717 0.21966 0.0
C412 C 0.59042 0.79857 0.20955 0.0
C413 C 0.59028 0.78069 0.22428 0.0
C414 C 0.58863 0.78145 0.24993 0.0
C415 C 0.58979 0.76465 0.2655 0.0
C416 C 0.58763 0.76528 0.29063 0.0
C417 C 0.58405 0.78263 0.30121 0.0
C418 C 0.5838 0.80031 0.28594 0.0
C419 C 0.58614 0.79975 0.2603 0.0
C420 C 0.61076 0.93803 0.15956 0.0
C421 C 0.61602 0.9199 0.16987 0.0
O422 O 0.57833 0.71175 0.38994 0.0
O423 O 0.59823 0.70884 0.1767 0.0
O424 O 0.59591 0.89627 0.16792 0.0
O425 O 0.577 0.89605 0.36467 0.0
H426 H 0.60159 0.72951 0.41891 0.0
H427 H 0.6295 0.73258 0.38455 0.0
H428 H 0.6134 0.70041 0.38349 0.0
H429 H 0.63218 0.71622 0.40988 0.0
H430 H 0.54285 0.70527 0.36039 0.0
H431 H 0.61604 0.75869 0.38813 0.0
H432 H 0.53118 0.74801 0.32838 0.0
H433 H 0.51873 0.71671 0.33589 0.0
H434 H 0.53919 0.73061 0.31013 0.0
H435 H 0.64082 0.79664 0.36913 0.0
H436 H 0.62027 0.80833 0.36833 0.0
H437 H 0.63049 0.80264 0.34035 0.0
H438 H 0.61116 0.92477 0.34985 0.0
H439 H 0.61435 0.94811 0.38159 0.0
H440 H 0.5865 0.92751 0.3931 0.0
H441 H 0.57669 0.95415 0.35601 0.0
H442 H 0.61886 0.89551 0.35556 0.0
H443 H 0.53752 0.85468 0.35397 0.0
H444 H 0.62791 0.84828 0.34414 0.0
H445 H 0.6433 0.8806 0.34161 0.0
H446 H 0.62923 0.86211 0.31521 0.0
H447 H 0.51389 0.8154 0.33832 0.0
H448 H 0.52927 0.79863 0.3431 0.0
H449 H 0.52945 0.81081 0.31348 0.0
H450 H 0.62515 0.92421 0.18828 0.0
H451 H 0.63546 0.89413 0.18532 0.0
H452 H 0.55493 0.85452 0.17318 0.0
H453 H 0.6383 0.85948 0.23053 0.0
H454 H 0.65656 0.87711 0.20452 0.0
H455 H 0.64042 0.84468 0.20453 0.0
H456 H 0.52859 0.81383 0.1858 0.0
H457 H 0.53847 0.80967 0.21569 0.0
H458 H 0.54389 0.79689 0.18982 0.0
H459 H 0.56906 0.67689 0.19098 0.0
H460 H 0.59806 0.6667 0.21278 0.0
H461 H 0.60505 0.69599 0.22102 0.0
H462 H 0.62533 0.69335 0.19986 0.0
H463 H 0.63464 0.75287 0.18241 0.0
H464 H 0.55585 0.70242 0.19616 0.0
H465 H 0.6414 0.79823 0.22326 0.0
H466 H 0.63764 0.80427 0.19193 0.0
H467 H 0.65658 0.79159 0.19967 0.0
H468 H 0.52922 0.71427 0.21202 0.0
H469 H 0.54092 0.74603 0.21327 0.0
H470 H 0.54478 0.73085 0.23905 0.0
H471 H 0.57656 0.80152 0.3561 0.0
H472 H 0.57991 0.85061 0.28799 0.0
H473 H 0.58398 0.84977 0.24491 0.0
H474 H 0.59211 0.79822 0.18997 0.0
H475 H 0.5924 0.75081 0.25843 0.0
H476 H 0.58873 0.75191 0.30167 0.0
H477 H 0.63627 0.95364 0.12967 0.0
H478 H 0.61163 0.94885 0.17559 0.0
H479 H 0.5895 0.92861 0.15737 0.0
C480 C 0.73596 0.62311 0.88508 0.0
C481 C 0.7137 0.60259 0.87104 0.0
C482 C 0.73422 0.58293 0.85284 0.0
C483 C 0.74973 0.60161 0.83633 0.0
C484 C 0.76761 0.60036 0.82219 0.0
C485 C 0.76947 0.57971 0.82403 0.0
C486 C 0.75327 0.56054 0.84001 0.0
C487 C 0.73598 0.56251 0.8543 0.0
C488 C 0.78481 0.62131 0.80558 0.0
C489 C 0.75444 0.5381 0.84226 0.0
C490 C 0.91107 0.60069 0.91199 0.0
C491 C 0.90705 0.5825 0.89262 0.0
C492 C 0.89208 0.59043 0.8545 0.0
C493 C 0.87088 0.5676 0.84962 0.0
C494 C 0.85093 0.56505 0.83482 0.0
C495 C 0.8523 0.58579 0.82457 0.0
C496 C 0.87408 0.60879 0.82879 0.0
C497 C 0.89386 0.61079 0.84354 0.0
C498 C 0.82826 0.54019 0.83029 0.0
C499 C 0.87624 0.63121 0.81796 0.0
C500 C 0.88334 0.57334 0.66803 0.0
C501 C 0.86617 0.5513 0.67968 0.0
C502 C 0.84544 0.54843 0.69264 0.0
C503 C 0.84182 0.56796 0.69405 0.0
C504 C 0.85865 0.58995 0.68186 0.0
C505 C 0.87907 0.59226 0.66883 0.0
C506 C 0.82748 0.52457 0.70501 0.0
C507 C 0.85522 0.6111 0.68291 0.0
C508 C 0.66197 0.52178 0.61805 0.0
C509 C 0.68415 0.5358 0.63444 0.0
C510 C 0.71024 0.5308 0.66503 0.0
C511 C 0.71506 0.51449 0.67698 0.0
C512 C 0.73623 0.52245 0.69242 0.0
C513 C 0.7531 0.54742 0.69588 0.0
C514 C 0.74792 0.56403 0.68451 0.0
C515 C 0.72644 0.55557 0.66939 0.0
C516 C 0.74097 0.5042 0.70452 0.0
C517 C 0.76549 0.59078 0.68783 0.0
C518 C 0.78897 0.57855 0.80991 0.0
C519 C 0.81118 0.58342 0.82208 0.0
C520 C 0.83063 0.58322 0.80988 0.0
C521 C 0.82846 0.57914 0.78456 0.0
C522 C 0.84833 0.58036 0.77142 0.0
C523 C 0.84602 0.57632 0.74651 0.0
C524 C 0.82345 0.57016 0.73393 0.0
C525 C 0.82077 0.56557 0.70872 0.0
C526 C 0.79775 0.55849 0.69698 0.0
C527 C 0.7772 0.55613 0.70965 0.0
C528 C 0.77984 0.56159 0.73471 0.0
C529 C 0.75992 0.56023 0.74793 0.0
C530 C 0.7629 0.56594 0.77252 0.0
C531 C 0.78572 0.57273 0.78494 0.0
C532 C 0.80577 0.57353 0.77214 0.0
C533 C 0.80303 0.56847 0.7469 0.0
C534 C 0.94401 0.58324 0.66666 0.0
C535 C 0.91671 0.56513 0.65854 0.0
O536 O 0.71762 0.58381 0.86793 0.0
O537 O 0.69021 0.522 0.64923 0.0
O538 O 0.90387 0.5771 0.65549 0.0
O539 O 0.91096 0.59326 0.86972 0.0
H540 H 0.71163 0.60945 0.85295 0.0
H541 H 0.75385 0.63099 0.87471 0.0
H542 H 0.73875 0.61644 0.90295 0.0
H543 H 0.73225 0.63769 0.88824 0.0
H544 H 0.74828 0.61734 0.83458 0.0
H545 H 0.72382 0.54811 0.86695 0.0
H546 H 0.80494 0.62713 0.80912 0.0
H547 H 0.78264 0.63694 0.80794 0.0
H548 H 0.78044 0.61564 0.78634 0.0
H549 H 0.73826 0.52355 0.8528 0.0
H550 H 0.77234 0.54246 0.85165 0.0
H551 H 0.75448 0.53133 0.82394 0.0
H552 H 0.88698 0.56742 0.89481 0.0
H553 H 0.91034 0.59322 0.93056 0.0
H554 H 0.89578 0.6047 0.9104 0.0
H555 H 0.92948 0.61791 0.90946 0.0
H556 H 0.86994 0.55175 0.85733 0.0
H557 H 0.91049 0.62832 0.84716 0.0
H558 H 0.82567 0.53691 0.81042 0.0
H559 H 0.81085 0.53888 0.83715 0.0
H560 H 0.83024 0.52586 0.8393 0.0
H561 H 0.89458 0.64775 0.82262 0.0
H562 H 0.8605 0.63292 0.82466 0.0
H563 H 0.87439 0.62982 0.79783 0.0
H564 H 0.9087 0.55155 0.67359 0.0
H565 H 0.8685 0.53613 0.67864 0.0
H566 H 0.89216 0.60908 0.65955 0.0
H567 H 0.82818 0.52698 0.72499 0.0
H568 H 0.83217 0.51075 0.70124 0.0
H569 H 0.80772 0.51783 0.69884 0.0
H570 H 0.87009 0.62706 0.67261 0.0
H571 H 0.85577 0.61614 0.70216 0.0
H572 H 0.83634 0.60599 0.67531 0.0
H573 H 0.70096 0.55136 0.62536 0.0
H574 H 0.63449 0.52886 0.63114 0.0
H575 H 0.65855 0.50307 0.61743 0.0
H576 H 0.6699 0.52695 0.59907 0.0
H577 H 0.70238 0.49543 0.67379 0.0
H578 H 0.72269 0.56847 0.6608 0.0
H579 H 0.74445 0.50769 0.72432 0.0
H580 H 0.75825 0.50594 0.69672 0.0
H581 H 0.72481 0.48545 0.70201 0.0
H582 H 0.75877 0.6014 0.67785 0.0
H583 H 0.78474 0.59653 0.68127 0.0
H584 H 0.7672 0.59501 0.70747 0.0
H585 H 0.81321 0.58708 0.84142 0.0
H586 H 0.86601 0.58476 0.78019 0.0
H587 H 0.86206 0.5778 0.73729 0.0
H588 H 0.79576 0.5546 0.67769 0.0
H589 H 0.74191 0.55496 0.73932 0.0
H590 H 0.747 0.56476 0.78174 0.0
H591 H 0.95316 0.59917 0.65415 0.0
H592 H 0.95541 0.57464 0.66752 0.0
H593 H 0.94386 0.5897 0.68513 0.0
C594 C 0.17607 0.69895 0.42708 0.0
C595 C 0.14884 0.68755 0.41722 0.0
C596 C 0.16002 0.70097 0.37502 0.0
C597 C 0.15774 0.72117 0.37401 0.0
C598 C 0.17145 0.73981 0.35689 0.0
C599 C 0.1883 0.73847 0.3409 0.0
C600 C 0.18987 0.71761 0.34136 0.0
C601 C 0.1752 0.69888 0.35809 0.0
C602 C 0.16853 0.7613 0.35663 0.0
C603 C 0.20791 0.71552 0.32505 0.0
C604 C 0.32114 0.90789 0.39063 0.0
C605 C 0.32013 0.88579 0.40227 0.0
C606 C 0.30353 0.85502 0.37055 0.0
C607 C 0.30887 0.84021 0.35745 0.0
C608 C 0.29031 0.82181 0.34283 0.0
C609 C 0.26611 0.81897 0.34039 0.0
C610 C 0.26075 0.83427 0.35319 0.0
C611 C 0.27928 0.85175 0.36855 0.0
C612 C 0.29653 0.80529 0.33031 0.0
C613 C 0.23528 0.83202 0.35096 0.0
C614 C 0.30729 0.85359 0.1801 0.0
C615 C 0.30656 0.83337 0.19043 0.0
C616 C 0.2857 0.81628 0.20428 0.0
C617 C 0.26506 0.81939 0.20781 0.0
C618 C 0.26543 0.83939 0.19685 0.0
C619 C 0.28648 0.85612 0.18291 0.0
C620 C 0.28563 0.79477 0.21503 0.0
C621 C 0.24366 0.84314 0.19999 0.0
C622 C 0.07654 0.69316 0.17427 0.0
C623 C 0.09745 0.69645 0.15712 0.0
C624 C 0.13613 0.7118 0.18227 0.0
C625 C 0.15424 0.70677 0.19081 0.0
C626 C 0.17581 0.72388 0.20375 0.0
C627 C 0.17892 0.74638 0.20883 0.0
C628 C 0.16067 0.75163 0.20028 0.0
C629 C 0.13961 0.73442 0.1869 0.0
C630 C 0.19522 0.71789 0.21201 0.0
C631 C 0.16337 0.77545 0.2054 0.0
C632 C 0.20648 0.75992 0.32601 0.0
C633 C 0.22699 0.77888 0.33824 0.0
C634 C 0.24584 0.79918 0.32569 0.0
C635 C 0.24487 0.80035 0.29998 0.0
C636 C 0.264 0.82005 0.28662 0.0
C637 C 0.2635 0.82041 0.26127 0.0
C638 C 0.24336 0.80149 0.24833 0.0
C639 C 0.24296 0.80138 0.22257 0.0
C640 C 0.22184 0.78307 0.21033 0.0
C641 C 0.20119 0.76451 0.22309 0.0
C642 C 0.20187 0.7636 0.24885 0.0
C643 C 0.1819 0.74469 0.2623 0.0
C644 C 0.1833 0.74345 0.28758 0.0
C645 C 0.20445 0.76135 0.30041 0.0
C646 C 0.22412 0.7813 0.28731 0.0
C647 C 0.22308 0.78216 0.26148 0.0
C648 C 0.36165 0.90209 0.18944 0.0
C649 C 0.35278 0.88032 0.17321 0.0
O650 O 0.14833 0.6835 0.39245 0.0
O651 O 0.11565 0.6943 0.16995 0.0
O652 O 0.32745 0.87059 0.16692 0.0
O653 O 0.32233 0.87221 0.38465 0.0
H654 H 0.14206 0.69996 0.42037 0.0
H655 H 0.18874 0.71656 0.41783 0.0
H656 H 0.18339 0.68698 0.42391 0.0
H657 H 0.17679 0.70223 0.4469 0.0
H658 H 0.14533 0.72248 0.38661 0.0
H659 H 0.17658 0.68303 0.35891 0.0
H660 H 0.18397 0.77566 0.36774 0.0
H661 H 0.15013 0.75673 0.36456 0.0
H662 H 0.16987 0.76853 0.33783 0.0
H663 H 0.20898 0.69945 0.32969 0.0
H664 H 0.22727 0.73182 0.32641 0.0
H665 H 0.20153 0.71416 0.30584 0.0
H666 H 0.30182 0.87465 0.41205 0.0
H667 H 0.32013 0.91904 0.40496 0.0
H668 H 0.305 0.90248 0.37791 0.0
H669 H 0.33894 0.91911 0.38019 0.0
H670 H 0.32759 0.84278 0.35916 0.0
H671 H 0.2746 0.86277 0.37876 0.0
H672 H 0.28101 0.78621 0.33295 0.0
H673 H 0.31455 0.80742 0.33719 0.0
H674 H 0.29844 0.80933 0.31046 0.0
H675 H 0.23583 0.84808 0.35795 0.0
H676 H 0.22113 0.81604 0.36168 0.0
H677 H 0.22872 0.82943 0.33171 0.0
H678 H 0.35537 0.86715 0.18397 0.0
H679 H 0.32197 0.83055 0.18732 0.0
H680 H 0.287 0.87156 0.17452 0.0
H681 H 0.28588 0.79549 0.2352 0.0
H682 H 0.30226 0.79404 0.20919 0.0
H683 H 0.26801 0.77789 0.2096 0.0
H684 H 0.2477 0.86057 0.19195 0.0
H685 H 0.23942 0.84253 0.21963 0.0
H686 H 0.22641 0.82835 0.19108 0.0
H687 H 0.10631 0.71464 0.14837 0.0
H688 H 0.06117 0.69329 0.16366 0.0
H689 H 0.08425 0.708 0.18746 0.0
H690 H 0.06832 0.67598 0.18483 0.0
H691 H 0.1515 0.68935 0.18711 0.0
H692 H 0.12593 0.73878 0.18041 0.0
H693 H 0.19516 0.71639 0.23218 0.0
H694 H 0.21452 0.73254 0.20644 0.0
H695 H 0.19138 0.70069 0.20442 0.0
H696 H 0.14652 0.77603 0.19927 0.0
H697 H 0.18033 0.79013 0.19587 0.0
H698 H 0.16628 0.77906 0.22521 0.0
H699 H 0.22834 0.77781 0.35791 0.0
H700 H 0.27985 0.83521 0.29561 0.0
H701 H 0.27901 0.83578 0.25192 0.0
H702 H 0.2215 0.78322 0.19057 0.0
H703 H 0.16515 0.73039 0.2534 0.0
H704 H 0.1676 0.72831 0.297 0.0
H705 H 0.35882 0.9158 0.18016 0.0
H706 H 0.38206 0.91041 0.19418 0.0
H707 H 0.3506 0.89628 0.20659 0.0
C708 C 0.42722 0.15093 0.61525 0.0
C709 C 0.44836 0.15178 0.63093 0.0
C710 C 0.4418 0.16298 0.67064 0.0
C711 C 0.4648 0.18433 0.67561 0.0
C712 C 0.46579 0.20121 0.69164 0.0
C713 C 0.44319 0.19676 0.70266 0.0
C714 C 0.41997 0.17507 0.69776 0.0
C715 C 0.41969 0.15824 0.68215 0.0
C716 C 0.491 0.22386 0.69669 0.0
C717 C 0.39539 0.16981 0.70871 0.0
C718 C 0.47983 0.38324 0.67475 0.0
C719 C 0.48175 0.36283 0.68444 0.0
C720 C 0.45716 0.31927 0.6905 0.0
C721 C 0.43281 0.29874 0.69252 0.0
C722 C 0.42909 0.27689 0.70189 0.0
C723 C 0.45033 0.27556 0.70918 0.0
C724 C 0.47508 0.29593 0.70608 0.0
C725 C 0.47825 0.31755 0.69686 0.0
C726 C 0.40247 0.25545 0.70478 0.0
C727 C 0.49821 0.29504 0.71322 0.0
C728 C 0.45364 0.30146 0.87095 0.0
C729 C 0.4298 0.28101 0.86546 0.0
C730 C 0.42774 0.26301 0.85041 0.0
C731 C 0.44993 0.26529 0.84083 0.0
C732 C 0.47396 0.28563 0.84662 0.0
C733 C 0.47546 0.30348 0.86153 0.0
C734 C 0.40181 0.24154 0.84467 0.0
C735 C 0.49804 0.28851 0.83697 0.0
C736 C 0.43118 0.09338 0.85949 0.0
C737 C 0.44759 0.1163 0.87401 0.0
C738 C 0.4378 0.14708 0.86213 0.0
C739 C 0.41639 0.14829 0.8568 0.0
C740 C 0.41828 0.16761 0.84321 0.0
C741 C 0.44236 0.1865 0.83521 0.0
C742 C 0.46422 0.18562 0.84085 0.0
C743 C 0.46174 0.16591 0.8543 0.0
C744 C 0.39457 0.16798 0.83764 0.0
C745 C 0.49024 0.20574 0.83306 0.0
C746 C 0.44386 0.21506 0.71883 0.0
C747 C 0.44523 0.23529 0.70785 0.0
C748 C 0.44681 0.25361 0.72183 0.0
C749 C 0.44659 0.25165 0.74754 0.0
C750 C 0.44788 0.26964 0.76214 0.0
C751 C 0.44825 0.2679 0.78741 0.0
C752 C 0.44734 0.24811 0.79912 0.0
C753 C 0.448 0.24636 0.82483 0.0
C754 C 0.44663 0.22622 0.83587 0.0
C755 C 0.44472 0.20769 0.82198 0.0
C756 C 0.44447 0.20933 0.79624 0.0
C757 C 0.44305 0.19127 0.78168 0.0
C758 C 0.44303 0.19317 0.75636 0.0
C759 C 0.44396 0.21298 0.74458 0.0
C760 C 0.4453 0.23135 0.75895 0.0
C761 C 0.4457 0.22959 0.78479 0.0
C762 C 0.44517 0.34202 0.9106 0.0
C763 C 0.43675 0.32074 0.89513 0.0
O764 O 0.44057 0.14662 0.65502 0.0
O765 O 0.43464 0.12818 0.87594 0.0
O766 O 0.45638 0.31952 0.88507 0.0
O767 O 0.45959 0.34037 0.68283 0.0
H768 H 0.46555 0.1702 0.62927 0.0
H769 H 0.42297 0.1644 0.62164 0.0
H770 H 0.40963 0.13278 0.61646 0.0
H771 H 0.43316 0.15524 0.59591 0.0
H772 H 0.48203 0.18765 0.66717 0.0
H773 H 0.40205 0.14157 0.6783 0.0
H774 H 0.49121 0.23947 0.688 0.0
H775 H 0.50716 0.22309 0.68948 0.0
H776 H 0.49378 0.22702 0.71658 0.0
H777 H 0.37866 0.15349 0.70098 0.0
H778 H 0.39301 0.18536 0.7056 0.0
H779 H 0.39582 0.16704 0.72868 0.0
H780 H 0.49139 0.36594 0.70254 0.0
H781 H 0.45893 0.37636 0.67318 0.0
H782 H 0.50465 0.39615 0.64424 0.0
H783 H 0.48302 0.39471 0.69099 0.0
H784 H 0.41663 0.30007 0.68736 0.0
H785 H 0.49728 0.33308 0.69493 0.0
H786 H 0.40053 0.23982 0.69521 0.0
H787 H 0.38796 0.2591 0.6975 0.0
H788 H 0.39863 0.25036 0.72437 0.0
H789 H 0.51616 0.31171 0.70774 0.0
H790 H 0.49734 0.27942 0.70471 0.0
H791 H 0.49855 0.2926 0.73327 0.0
H792 H 0.42132 0.31708 0.88186 0.0
H793 H 0.41269 0.27894 0.87282 0.0
H794 H 0.49378 0.31919 0.8659 0.0
H795 H 0.39911 0.23951 0.82464 0.0
H796 H 0.38629 0.24306 0.85234 0.0
H797 H 0.40034 0.22495 0.85224 0.0
H798 H 0.51531 0.3048 0.84403 0.0
H799 H 0.49801 0.2898 0.81678 0.0
H800 H 0.49894 0.27243 0.84205 0.0
H801 H 0.46574 0.12751 0.86412 0.0
H802 H 0.44122 0.08364 0.85718 0.0
H803 H 0.42709 0.09809 0.84112 0.0
H804 H 0.41288 0.08126 0.86889 0.0
H805 H 0.39807 0.13387 0.86326 0.0
H806 H 0.47861 0.16575 0.85927 0.0
H807 H 0.39318 0.17077 0.81778 0.0
H808 H 0.39557 0.18327 0.84706 0.0
H809 H 0.37709 0.15107 0.84355 0.0
H810 H 0.50541 0.20249 0.83901 0.0
H811 H 0.49429 0.22296 0.84077 0.0
H812 H 0.49078 0.20783 0.81292 0.0
H813 H 0.44557 0.23702 0.68814 0.0
H814 H 0.44866 0.28533 0.7542 0.0
H815 H 0.4493 0.28232 0.79765 0.0
H816 H 0.44689 0.22486 0.85559 0.0
H817 H 0.44212 0.17555 0.78972 0.0
H818 H 0.4422 0.17885 0.74612 0.0
H819 H 0.43284 0.32683 0.94621 0.0
H820 H 0.43805 0.35275 0.90092 0.0
H821 H 0.46571 0.35527 0.90604 0.0
H822 H 0.08565 0.53253 0.07643 0.0
H823 H 0.06777 0.48406 0.01661 0.0
H824 H 0.09344 0.4693 0.03622 0.0
H825 H 0.15175 0.54456 0.0897 0.0
H826 H 0.14725 0.54516 0.12193 0.0
H827 H 0.13242 0.55545 0.10052 0.0
H828 H 0.08872 0.52548 0.11982 0.0
H829 H 0.10321 0.51478 0.14091 0.0
H830 H 0.07773 0.49387 0.12138 0.0
H831 H 0.1127 0.45372 0.06678 0.0
H832 H 0.12762 0.44175 0.10334 0.0
H833 H 0.13401 0.50141 0.14248 0.0
C834 C 0.08803 0.51953 0.06697 0.0
C835 C 0.07493 0.50955 0.04496 0.0
C836 C 0.07804 0.49225 0.03327 0.0
C837 C 0.09248 0.48368 0.04437 0.0
C838 C 0.10403 0.49298 0.06683 0.0
C839 C 0.10246 0.51099 0.07769 0.0
C840 C 0.11425 0.51629 0.10289 0.0
C841 C 0.13782 0.54189 0.1038 0.0
C842 C 0.09481 0.51235 0.12238 0.0
C843 C 0.12149 0.49758 0.10514 0.0
C844 C 0.11573 0.48444 0.08411 0.0
C845 C 0.11812 0.46444 0.083 0.0
C846 C 0.1266 0.45775 0.10388 0.0
C847 C 0.1328 0.47117 0.12552 0.0
C848 C 0.13028 0.49138 0.12593 0.0
H849 H 0.60087 0.07933 0.55889 0.0
H850 H 0.56133 0.00335 0.57847 0.0
H851 H 0.59577 0.01173 0.60799 0.0
H852 H 0.66212 0.08928 0.55939 0.0
H853 H 0.67692 0.11919 0.57135 0.0
H854 H 0.64822 0.10718 0.55358 0.0
H855 H 0.62647 0.11506 0.58887 0.0
H856 H 0.65517 0.12718 0.60674 0.0
H857 H 0.62568 0.1027 0.61879 0.0
H858 H 0.63658 0.0291 0.63405 0.0
H859 H 0.67892 0.05344 0.65378 0.0
H860 H 0.69065 0.117 0.61486 0.0
C861 C 0.59916 0.06437 0.56952 0.0
C862 C 0.57836 0.04067 0.56641 0.0
C863 C 0.57706 0.02169 0.58065 0.0
C864 C 0.59653 0.02629 0.59742 0.0
C865 C 0.61703 0.04993 0.59966 0.0
C866 C 0.6183 0.0686 0.58606 0.0
C867 C 0.64261 0.09225 0.59076 0.0
C868 C 0.65839 0.10256 0.56738 0.0
C869 C 0.63715 0.11036 0.60196 0.0
C870 C 0.65514 0.08407 0.60897 0.0
C871 C 0.64015 0.05969 0.61415 0.0
C872 C 0.6483 0.04824 0.63027 0.0
C873 C 0.6723 0.06216 0.64139 0.0
C874 C 0.68778 0.08719 0.63632 0.0
C875 C 0.67904 0.09805 0.61963 0.0
H876 H 0.55538 0.56209 0.12254 0.0
H877 H 0.59665 0.60377 0.05876 0.0
H878 H 0.60672 0.64126 0.07909 0.0
H879 H 0.52731 0.59661 0.13505 0.0
H880 H 0.52907 0.59391 0.16766 0.0
H881 H 0.52625 0.57067 0.14851 0.0
H882 H 0.56701 0.57545 0.16804 0.0
H883 H 0.56991 0.59866 0.1873 0.0
H884 H 0.59589 0.60468 0.16803 0.0
H885 H 0.61325 0.67426 0.10721 0.0
H886 H 0.61341 0.69989 0.13947 0.0
H887 H 0.56494 0.63617 0.18365 0.0
C888 C 0.56681 0.57917 0.11303 0.0
C889 C 0.57556 0.58018 0.08922 0.0
C890 C 0.58988 0.60274 0.07704 0.0
C891 C 0.59571 0.62406 0.08846 0.0
C892 C 0.5867 0.62244 0.11194 0.0
C893 C 0.57235 0.60054 0.12399 0.0
C894 C 0.56404 0.60359 0.14868 0.0
C895 C 0.53494 0.59041 0.15004 0.0
C896 C 0.57487 0.5951 0.16922 0.0
C897 C 0.57611 0.63065 0.14874 0.0
C898 C 0.5893 0.64124 0.12751 0.0
C899 C 0.60272 0.66613 0.1238 0.0
C900 C 0.60262 0.68056 0.14225 0.0
C901 C 0.58878 0.67004 0.16403 0.0
C902 C 0.57541 0.64472 0.16712 0.0
H903 H 0.9652 0.535 0.53842 0.0
H904 H 0.89251 0.46764 0.53607 0.0
H905 H 0.87719 0.48116 0.56949 0.0
H906 H 0.97048 0.53929 0.60092 0.0
H907 H 0.98488 0.57146 0.60194 0.0
H908 H 0.98892 0.55812 0.57557 0.0
H909 H 0.9707 0.57825 0.54793 0.0
H910 H 0.96684 0.59189 0.57425 0.0
H911 H 0.94007 0.5736 0.55464 0.0
H912 H 0.87199 0.4996 0.60666 0.0
H913 H 0.87638 0.52246 0.6433 0.0
H914 H 0.95212 0.57842 0.6205 0.0
C915 C 0.94591 0.5233 0.54465 0.0
C916 C 0.93004 0.50029 0.53463 0.0
C917 C 0.90488 0.48547 0.54322 0.0
C918 C 0.89605 0.49296 0.56228 0.0
C919 C 0.9125 0.51545 0.57228 0.0
C920 C 0.93677 0.53057 0.56352 0.0
C921 C 0.9512 0.55318 0.57839 0.0
C922 C 0.97528 0.55563 0.58989 0.0
C923 C 0.95757 0.57555 0.56287 0.0
C924 C 0.93161 0.54797 0.59749 0.0
C925 C 0.90936 0.52622 0.59355 0.0
C926 C 0.8892 0.51683 0.60973 0.0
C927 C 0.89192 0.52992 0.63058 0.0
C928 C 0.91467 0.55211 0.63526 0.0
C929 C 0.93449 0.56146 0.61799 0.0
H930 H 0.42346 0.96341 0.05715 0.0
H931 H 0.47418 0.93651 0.06139 0.0
H932 H 0.44659 0.90639 0.09237 0.0
H933 H 0.41311 0.96118 0.11852 0.0
H934 H 0.38017 0.95199 0.11643 0.0
H935 H 0.40124 0.96862 0.09169 0.0
H936 H 0.37178 0.9349 0.06184 0.0
H937 H 0.3504 0.91821 0.08649 0.0
H938 H 0.36306 0.90435 0.06846 0.0
H939 H 0.41712 0.88326 0.12673 0.0
H940 H 0.38735 0.86813 0.16124 0.0
H941 H 0.35549 0.90977 0.13474 0.0
C942 C 0.42838 0.95071 0.06401 0.0
C943 C 0.45094 0.95225 0.05668 0.0
C944 C 0.45694 0.93561 0.06657 0.0
C945 C 0.44135 0.9184 0.08418 0.0
C946 C 0.41973 0.91794 0.09161 0.0
C947 C 0.41308 0.9335 0.08167 0.0
C948 C 0.39019 0.93077 0.09437 0.0
C949 C 0.39658 0.95455 0.10594 0.0
C950 C 0.36751 0.9215 0.07674 0.0
C951 C 0.38558 0.91188 0.1136 0.0
C952 C 0.40263 0.9045 0.11149 0.0
C953 C 0.40334 0.88853 0.12826 0.0
C954 C 0.38639 0.88006 0.14783 0.0
C955 C 0.36893 0.88757 0.15053 0.0
C956 C 0.36835 0.90343 0.13291 0.0
H957 H 0.4502 0.42667 0.58396 0.0
H958 H 0.50715 0.49167 0.61915 0.0
H959 H 0.51478 0.4676 0.64965 0.0
H960 H 0.4254 0.38488 0.63802 0.0
H961 H 0.4211 0.36042 0.61983 0.0
H962 H 0.41786 0.38401 0.60607 0.0
H963 H 0.4512 0.39129 0.57413 0.0
H964 H 0.45551 0.36852 0.58808 0.0
H965 H 0.48238 0.39875 0.58403 0.0
H966 H 0.53031 0.4408 0.67339 0.0
H967 H 0.53725 0.40155 0.68746 0.0
H968 H 0.4625 0.34733 0.62992 0.0
C969 C 0.46342 0.43544 0.59884 0.0
C970 C 0.4776 0.46079 0.59997 0.0
C971 C 0.49573 0.47221 0.61865 0.0
C972 C 0.50017 0.45867 0.63588 0.0
C973 C 0.48659 0.4337 0.63404 0.0
C974 C 0.46826 0.42174 0.61561 0.0
C975 C 0.45708 0.39439 0.61372 0.0
C976 C 0.42868 0.38008 0.61977 0.0
C977 C 0.46183 0.38788 0.5885 0.0
C978 C 0.47172 0.38995 0.63283 0.0
C979 C 0.49148 0.41726 0.64729 0.0
C980 C 0.51737 0.42285 0.66682 0.0
C981 C 0.52302 0.39914 0.67419 0.0
C982 C 0.49714 0.36875 0.66404 0.0
C983 C 0.47498 0.36454 0.63824 0.0
H984 H 0.5345 0.96932 0.44172 0.0
H985 H 0.60752 0.03574 0.43439 0.0
H986 H 0.62008 0.0173 0.40375 0.0
H987 H 0.55586 0.9273 0.43474 0.0
H988 H 0.5269 0.90604 0.41925 0.0
H989 H 0.52667 0.92562 0.44162 0.0
H990 H 0.50688 0.94086 0.40995 0.0
H991 H 0.50735 0.92179 0.38721 0.0
H992 H 0.52285 0.95375 0.38148 0.0
H993 H 0.62795 0.99783 0.36414 0.0
H994 H 0.62162 0.96483 0.32641 0.0
H995 H 0.53463 0.90319 0.3644 0.0
C996 C 0.55326 0.9797 0.4339 0.0
C997 C 0.56999 0.004 0.44037 0.0
C998 C 0.59423 0.01725 0.42952 0.0
C999 C 0.60163 0.00685 0.41223 0.0
C1000 C 0.58477 0.98306 0.40594 0.0
C1001 C 0.56057 0.96915 0.41649 0.0
C1002 C 0.5434 0.94337 0.40672 0.0
C1003 C 0.53788 0.92447 0.42677 0.0
C1004 C 0.51867 0.93975 0.3957 0.0
C1005 C 0.55944 0.94241 0.38727 0.0
C1006 C 0.58822 0.96996 0.38737 0.0
C1007 C 0.61145 0.97976 0.36399 0.0
C1008 C 0.60686 0.96009 0.33956 0.0
C1009 C 0.57956 0.92849 0.34415 0.0
C1010 C 0.55195 0.92073 0.36413 0.0
H1011 H 0.61894 0.53342 0.98109 0.0
H1012 H 0.57201 0.56023 0.95409 0.0
H1013 H 0.60142 0.58029 0.91944 0.0
H1014 H 0.67867 0.58521 0.96674 0.0
H1015 H 0.69262 0.56831 0.95811 0.0
H1016 H 0.66755 0.55589 0.98019 0.0
H1017 H 0.64131 0.51794 0.95392 0.0
H1018 H 0.66631 0.53025 0.93173 0.0
H1019 H 0.6345 0.52132 0.92254 0.0
H1020 H 0.6374 0.59851 0.88838 0.0
H1021 H 0.67587 0.61243 0.86354 0.0
H1022 H 0.6979 0.57274 0.91148 0.0
C1023 C 0.61474 0.54349 0.96794 0.0
C1024 C 0.59323 0.54536 0.97033 0.0
C1025 C 0.58841 0.55858 0.95259 0.0
C1026 C 0.605 0.57001 0.93288 0.0
C1027 C 0.62613 0.56784 0.93117 0.0
C1028 C 0.6309 0.55479 0.94823 0.0
C1029 C 0.65482 0.55513 0.94253 0.0
C1030 C 0.67458 0.56684 0.96311 0.0
C1031 C 0.64887 0.52965 0.93737 0.0
C1032 C 0.66308 0.57071 0.91972 0.0
C1033 C 0.64632 0.57786 0.91333 0.0
C1034 C 0.65048 0.5928 0.8931 0.0
C1035 C 0.67229 0.60057 0.8791 0.0
C1036 C 0.68953 0.59325 0.88532 0.0
C1037 C 0.68479 0.57823 0.90601 0.0
H1038 H 0.06044 0.54483 0.43814 0.0
H1039 H 0.04744 0.55823 0.51171 0.0
H1040 H 0.07676 0.60204 0.5045 0.0
H1041 H 0.12794 0.5923 0.43597 0.0
H1042 H 0.12611 0.59917 0.40429 0.0
H1043 H 0.10536 0.56906 0.41604 0.0
H1044 H 0.06643 0.57027 0.4001 0.0
H1045 H 0.08701 0.60047 0.38859 0.0
H1046 H 0.06212 0.59406 0.40956 0.0
H1047 H 0.10428 0.64463 0.48745 0.0
H1048 H 0.13115 0.6822 0.4636 0.0
H1049 H 0.12769 0.64009 0.40221 0.0
C1050 C 0.06402 0.55694 0.45287 0.0
C1051 C 0.05168 0.5482 0.47548 0.0
C1052 C 0.05688 0.56458 0.49432 0.0
C1053 C 0.07338 0.58947 0.49033 0.0
C1054 C 0.08477 0.59753 0.46756 0.0
C1055 C 0.08064 0.58168 0.44932 0.0
C1056 C 0.09489 0.5948 0.4264 0.0
C1057 C 0.11476 0.58846 0.42033 0.0
C1058 C 0.07651 0.58958 0.4049 0.0
C1059 C 0.10733 0.6206 0.43436 0.0
C1060 C 0.10117 0.62184 0.4581 0.0
C1061 C 0.10947 0.64383 0.46897 0.0
C1062 C 0.12461 0.66504 0.45528 0.0
C1063 C 0.13147 0.66418 0.43102 0.0
C1064 C 0.12278 0.64154 0.42061 0.0
H1065 H 0.51298 0.06917 0.96769 0.0
H1066 H 0.46406 0.0679 0.02383 0.0
H1067 H 0.44684 0.08507 0.9945 0.0
H1068 H 0.52672 0.12518 0.93808 0.0
H1069 H 0.52635 0.11473 0.90794 0.0
H1070 H 0.53561 0.10337 0.93367 0.0
H1071 H 0.50116 0.05977 0.92234 0.0
H1072 H 0.49171 0.07091 0.8966 0.0
H1073 H 0.4686 0.05164 0.91907 0.0
H1074 H 0.43247 0.09916 0.95815 0.0
H1075 H 0.42383 0.11153 0.91819 0.0
H1076 H 0.48327 0.10508 0.886 0.0
C1077 C 0.49869 0.07256 0.97383 0.0
C1078 C 0.48985 0.06718 0.99807 0.0
C1079 C 0.47133 0.07214 0.00546 0.0
C1080 C 0.46135 0.08177 0.98888 0.0
C1081 C 0.47027 0.08657 0.96505 0.0
C1082 C 0.48869 0.08233 0.95759 0.0
C1083 C 0.49473 0.08869 0.93086 0.0
C1084 C 0.5225 0.10922 0.92745 0.0
C1085 C 0.48868 0.06643 0.91637 0.0
C1086 C 0.47658 0.09689 0.92437 0.0
C1087 C 0.46259 0.09546 0.94432 0.0
C1088 C 0.44365 0.10082 0.9425 0.0
C1089 C 0.43894 0.10791 0.9197 0.0
C1090 C 0.45341 0.10996 0.89905 0.0
C1091 C 0.47238 0.10427 0.90158 0.0
H1092 H 0.42655 0.47834 0.46178 0.0
H1093 H 0.44597 0.42374 0.46729 0.0
H1094 H 0.40841 0.39677 0.44194 0.0
H1095 H 0.3618 0.44228 0.46841 0.0
H1096 H 0.35503 0.46017 0.44785 0.0
H1097 H 0.38465 0.474 0.46431 0.0
H1098 H 0.40956 0.48962 0.42417 0.0
H1099 H 0.38017 0.47623 0.40723 0.0
H1100 H 0.40352 0.46882 0.40031 0.0
H1101 H 0.36239 0.36705 0.41685 0.0
H1102 H 0.31484 0.35031 0.39081 0.0
H1103 H 0.32765 0.43399 0.40457 0.0
C1104 C 0.42294 0.46072 0.45753 0.0
C1105 C 0.43916 0.4531 0.46642 0.0
C1106 C 0.43381 0.42995 0.46061 0.0
C1107 C 0.41256 0.41457 0.44619 0.0
C1108 C 0.3968 0.42252 0.43773 0.0
C1109 C 0.40165 0.44547 0.44337 0.0
C1110 C 0.38232 0.45187 0.43386 0.0
C1111 C 0.37025 0.4574 0.45486 0.0
C1112 C 0.39462 0.47288 0.4153 0.0
C1113 C 0.36301 0.42931 0.42163 0.0
C1114 C 0.37363 0.40937 0.42367 0.0
C1115 C 0.35538 0.37892 0.41372 0.0
C1116 C 0.32511 0.36787 0.39896 0.0
C1117 C 0.31826 0.39193 0.39102 0.0
C1118 C 0.33332 0.42105 0.40755 0.0
H1119 H 0.93793 0.41555 0.97266 0.0
H1120 H 0.97975 0.39827 0.02453 0.0
H1121 H 0.96529 0.36015 0.00341 0.0
H1122 H 0.88374 0.35511 0.9687 0.0
H1123 H 0.87834 0.35769 0.93672 0.0
H1124 H 0.89291 0.38403 0.95532 0.0
H1125 H 0.93123 0.40499 0.92601 0.0
H1126 H 0.91683 0.37863 0.90741 0.0
H1127 H 0.94838 0.39052 0.91954 0.0
H1128 H 0.94706 0.32451 0.97626 0.0
H1129 H 0.92283 0.29159 0.94721 0.0
H1130 H 0.89047 0.33076 0.91465 0.0
C1131 C 0.94402 0.40369 0.97943 0.0
C1132 C 0.95992 0.40971 1.00014 0.0
C1133 C 0.96737 0.39377 0.0088 0.0
C1134 C 0.95942 0.37223 0.99683 0.0
C1135 C 0.94378 0.3668 0.97641 0.0
C1136 C 0.93586 0.38189 0.96795 0.0
C1137 C 0.91803 0.37121 0.94635 0.0
C1138 C 0.89169 0.36674 0.95213 0.0
C1139 C 0.9293 0.3873 0.92347 0.0
C1140 C 0.91719 0.34778 0.944 0.0
C1141 C 0.93248 0.34577 0.96129 0.0
C1142 C 0.93499 0.32585 0.96264 0.0
C1143 C 0.92126 0.30731 0.94606 0.0
C1144 C 0.90502 0.30868 0.92849 0.0
C1145 C 0.90298 0.32924 0.92757 0.0
H1146 H 0.0199 0.5751 0.95418 0.0
H1147 H 0.976 0.49864 0.93955 0.0
H1148 H 0.94744 0.50476 0.91274 0.0
H1149 H 0.97012 0.58174 0.9612 0.0
H1150 H 0.98375 0.61113 0.94703 0.0
H1151 H 0.00408 0.60203 0.96051 0.0
H1152 H 0.02781 0.61039 0.9197 0.0
H1153 H 0.00773 0.61989 0.90609 0.0
H1154 H 0.01009 0.59642 0.89234 0.0
H1155 H 0.9195 0.51775 0.89384 0.0
H1156 H 0.89497 0.53675 0.88369 0.0
H1157 H 0.95741 0.60499 0.90972 0.0
C1158 C 0.0049 0.55978 0.94458 0.0
C1159 C 1.0003 0.5364 0.94888 0.0
C1160 C 0.98001 0.51674 0.93645 0.0
C1161 C 0.9637 0.52005 0.92113 0.0
C1162 C 0.96804 0.54316 0.9182 0.0
C1163 C 0.98838 0.56278 0.9293 0.0
C1164 C 0.98717 0.5852 0.92551 0.0
C1165 C 0.98621 0.59561 0.95002 0.0
C1166 C 0.00953 0.60409 0.90998 0.0
C1167 C 0.9623 0.57486 0.91169 0.0
C1168 C 0.95178 0.55068 0.9073 0.0
C1169 C 0.92776 0.53676 0.89682 0.0
C1170 C 0.91391 0.54768 0.89122 0.0
C1171 C 0.92389 0.5722 0.89641 0.0
C1172 C 0.94891 0.58613 0.90582 0.0
H1173 H 0.4644 0.96468 0.44242 0.0
H1174 H 0.44 0.9521 0.51761 0.0
H1175 H 0.39617 0.92192 0.50431 0.0
H1176 H 0.41345 0.96416 0.41792 0.0
H1177 H 0.41165 0.94911 0.39024 0.0
H1178 H 0.44149 0.9664 0.40593 0.0
H1179 H 0.44606 0.92923 0.40859 0.0
H1180 H 0.41631 0.91183 0.39254 0.0
H1181 H 0.42088 0.9014 0.42174 0.0
H1182 H 0.35401 0.89868 0.48179 0.0
H1183 H 0.31803 0.88201 0.45253 0.0
H1184 H 0.371 0.90888 0.39252 0.0
C1185 C 0.44996 0.95509 0.45616 0.0
C1186 C 0.45544 0.96063 0.481 0.0
C1187 C 0.43614 0.94787 0.49849 0.0
C1188 C 0.41124 0.93078 0.49108 0.0
C1189 C 0.40625 0.92642 0.46622 0.0
C1190 C 0.42527 0.9379 0.4491 0.0
C1191 C 0.41493 0.93155 0.42345 0.0
C1192 C 0.42072 0.95415 0.40853 0.0
C1193 C 0.42515 0.91767 0.41084 0.0
C1194 C 0.38694 0.91552 0.42866 0.0
C1195 C 0.38222 0.91258 0.4534 0.0
C1196 C 0.35753 0.90035 0.46241 0.0
C1197 C 0.33723 0.89101 0.44569 0.0
C1198 C 0.34178 0.89392 0.4203 0.0
C1199 C 0.36699 0.90605 0.41183 0.0
H1200 H 0.52082 0.41161 0.98912 0.0
H1201 H 0.46312 0.42996 0.98819 0.0
H1202 H 0.43531 0.39452 0.96352 0.0
H1203 H 0.5122 0.38941 0.92883 0.0
H1204 H 0.51889 0.36658 0.93773 0.0
H1205 H 0.53295 0.39418 0.95435 0.0
H1206 H 0.51424 0.3701 0.99437 0.0
H1207 H 0.50001 0.34229 0.97813 0.0
H1208 H 0.48057 0.34875 0.99645 0.0
H1209 H 0.40419 0.35175 0.94011 0.0
H1210 H 0.38582 0.30672 0.91543 0.0
H1211 H 0.47315 0.31692 0.93345 0.0
C1212 C 0.50226 0.40797 0.98379 0.0
C1213 C 0.49427 0.42371 0.99045 0.0
C1214 C 0.46993 0.41852 0.983 0.0
C1215 C 0.45392 0.39834 0.96904 0.0
C1216 C 0.46229 0.38329 0.96253 0.0
C1217 C 0.48622 0.38763 0.96981 0.0
C1218 C 0.49263 0.36893 0.96183 0.0
C1219 C 0.51553 0.38047 0.94468 0.0
C1220 C 0.49713 0.35681 0.98401 0.0
C1221 C 0.46909 0.35107 0.94843 0.0
C1222 C 0.44849 0.36159 0.94876 0.0
C1223 C 0.41643 0.34479 0.93798 0.0
C1224 C 0.40432 0.31612 0.92409 0.0
C1225 C 0.42919 0.30903 0.91779 0.0
C1226 C 0.45991 0.32279 0.93523 0.0
H1227 H 0.02751 0.44825 0.40659 0.0
H1228 H 0.01993 0.41468 0.47754 0.0
H1229 H 0.04505 0.39788 0.46346 0.0
H1230 H 0.02301 0.40102 0.37076 0.0
H1231 H 0.04648 0.42126 0.34904 0.0
H1232 H 0.02774 0.43034 0.36474 0.0
H1233 H 0.06884 0.46827 0.3801 0.0
H1234 H 0.08772 0.45927 0.36451 0.0
H1235 H 0.09215 0.46488 0.39672 0.0
H1236 H 0.06976 0.38376 0.44109 0.0
H1237 H 0.0934 0.37423 0.41249 0.0
H1238 H 0.08691 0.41907 0.35689 0.0
C1239 C 0.03096 0.43717 0.41904 0.0
C1240 C 0.02167 0.43255 0.44308 0.0
C1241 C 0.02698 0.41842 0.45907 0.0
C1242 C 0.04115 0.4088 0.45122 0.0
C1243 C 0.05013 0.41377 0.42741 0.0
C1244 C 0.04539 0.42776 0.4116 0.0
C1245 C 0.05763 0.4308 0.38711 0.0
C1246 C 0.03751 0.42022 0.36671 0.0
C1247 C 0.07778 0.45738 0.38181 0.0
C1248 C 0.06968 0.41604 0.39149 0.0
C1249 C 0.06507 0.4063 0.41482 0.0
C1250 C 0.07362 0.39139 0.42282 0.0
C1251 C 0.08702 0.38609 0.40647 0.0
C1252 C 0.09188 0.3958 0.38243 0.0
C1253 C 0.08338 0.41127 0.37509 0.0
H1254 H 0.55163 0.03546 0.95893 0.0
H1255 H 0.5851 0.99354 0.97929 0.0
H1256 H 0.61826 0.01568 0.9483 0.0
H1257 H 0.56751 0.04263 0.89242 0.0
H1258 H 0.57426 0.07303 0.8916 0.0
H1259 H 0.55065 0.05101 0.91217 0.0
H1260 H 0.57424 0.07901 0.94835 0.0
H1261 H 0.59801 0.10101 0.92807 0.0
H1262 H 0.60724 0.08949 0.95371 0.0
H1263 H 0.65167 0.04687 0.92047 0.0
H1264 H 0.68138 0.08325 0.89651 0.0
H1265 H 0.62588 0.10441 0.89362 0.0
C1266 C 0.5654 0.03032 0.95634 0.0
C1267 C 0.56565 0.01264 0.9715 0.0
C1268 C 0.58438 0.00689 0.96782 0.0
C1269 C 0.60332 0.01938 0.95024 0.0
C1270 C 0.60312 0.0374 0.9363 0.0
C1271 C 0.58444 0.04265 0.93893 0.0
C1272 C 0.58987 0.06437 0.92349 0.0
C1273 C 0.56935 0.05733 0.90374 0.0
C1274 C 0.5925 0.08466 0.93936 0.0
C1275 C 0.61502 0.07109 0.91247 0.0
C1276 C 0.62223 0.05517 0.91986 0.0
C1277 C 0.64588 0.05903 0.91395 0.0
C1278 C 0.66264 0.07974 0.90027 0.0
C1279 C 0.65559 0.09625 0.89245 0.0
C1280 C 0.63137 0.09164 0.89857 0.0
H1281 H 0.53014 0.57303 0.4333 0.0
H1282 H 0.54339 0.58761 0.51039 0.0
H1283 H 0.55823 0.63048 0.50173 0.0
H1284 H 0.58463 0.62496 0.41318 0.0
H1285 H 0.57026 0.62916 0.38622 0.0
H1286 H 0.5578 0.59944 0.39898 0.0
H1287 H 0.51326 0.59369 0.40211 0.0
H1288 H 0.52556 0.6234 0.38921 0.0
H1289 H 0.50968 0.6154 0.41817 0.0
H1290 H 0.57668 0.67278 0.48349 0.0
H1291 H 0.59483 0.70988 0.45782 0.0
H1292 H 0.56858 0.66652 0.39304 0.0
C1293 C 0.53586 0.58517 0.44841 0.0
C1294 C 0.53574 0.57709 0.4725 0.0
C1295 C 0.54314 0.59345 0.49182 0.0
C1296 C 0.55167 0.6178 0.48704 0.0
C1297 C 0.55231 0.6253 0.46288 0.0
C1298 C 0.54428 0.60932 0.44395 0.0
C1299 C 0.54816 0.62186 0.41949 0.0
C1300 C 0.56629 0.61866 0.40355 0.0
C1301 C 0.52264 0.61307 0.40649 0.0
C1302 C 0.5602 0.64758 0.42747 0.0
C1303 C 0.5624 0.6493 0.45254 0.0
C1304 C 0.5746 0.67156 0.46388 0.0
C1305 C 0.58485 0.69251 0.4492 0.0
C1306 C 0.58275 0.69102 0.42349 0.0
C1307 C 0.57005 0.66818 0.41265 0.0
H1308 H 0.50909 0.10541 0.53642 0.0
H1309 H 0.4686 0.03566 0.57303 0.0
H1310 H 0.45221 0.0517 0.60294 0.0
H1311 H 0.52688 0.14107 0.59078 0.0
H1312 H 0.52284 0.16403 0.57666 0.0
H1313 H 0.53166 0.14708 0.55849 0.0
H1314 H 0.49286 0.13448 0.53017 0.0
H1315 H 0.48396 0.15144 0.5482 0.0
H1316 H 0.46157 0.11993 0.54313 0.0
H1317 H 0.43822 0.07506 0.62747 0.0
H1318 H 0.4294 0.10415 0.6455 0.0
H1319 H 0.48035 0.1589 0.59367 0.0
C1320 C 0.49671 0.09349 0.55068 0.0
C1321 C 0.4901 0.06925 0.55235 0.0
C1322 C 0.47413 0.05434 0.57151 0.0
C1323 C 0.46464 0.06327 0.58853 0.0
C1324 C 0.47148 0.08724 0.58628 0.0
C1325 C 0.48729 0.10217 0.56791 0.0
C1326 C 0.49176 0.12721 0.56945 0.0
C1327 C 0.51996 0.14595 0.57413 0.0
C1328 C 0.48194 0.13363 0.54637 0.0
C1329 C 0.47578 0.124 0.59138 0.0
C1330 C 0.46416 0.10082 0.60083 0.0
C1331 C 0.44757 0.09337 0.62047 0.0
C1332 C 0.44276 0.11005 0.63067 0.0
C1333 C 0.45481 0.13404 0.62148 0.0
C1334 C 0.47143 0.1409 0.60151 0.0
H1335 H 0.47351 0.50471 0.08621 0.0
H1336 H 0.45105 0.48604 0.01098 0.0
H1337 H 0.40609 0.46938 0.02217 0.0
H1338 H 0.42626 0.45387 0.11193 0.0
H1339 H 0.42173 0.46741 0.13794 0.0
H1340 H 0.45205 0.48205 0.12325 0.0
H1341 H 0.45076 0.52076 0.11658 0.0
H1342 H 0.42048 0.50635 0.13162 0.0
H1343 H 0.42382 0.519 0.10138 0.0
H1344 H 0.36334 0.44807 0.04339 0.0
H1345 H 0.32719 0.42696 0.07189 0.0
H1346 H 0.37865 0.4607 0.13276 0.0
C1347 C 0.45919 0.49783 0.07196 0.0
C1348 C 0.46555 0.49667 0.04777 0.0
C1349 C 0.44646 0.48737 0.02956 0.0
C1350 C 0.42093 0.47781 0.0358 0.0
C1351 C 0.41514 0.47827 0.06016 0.0
C1352 C 0.43389 0.48855 0.07784 0.0
C1353 C 0.42288 0.48498 0.10299 0.0
C1354 C 0.43122 0.47125 0.12 0.0
C1355 C 0.4299 0.50922 0.11377 0.0
C1356 C 0.39494 0.46994 0.09699 0.0
C1357 C 0.39071 0.46647 0.07221 0.0
C1358 C 0.3664 0.45125 0.06274 0.0
C1359 C 0.34602 0.4393 0.07902 0.0
C1360 C 0.3501 0.44267 0.10444 0.0
C1361 C 0.37489 0.45834 0.11337 0.0
H1362 H 0.93436 0.39913 0.54834 0.0
H1363 H 0.01255 0.44958 0.56874 0.0
H1364 H 0.00865 0.42267 0.60312 0.0
H1365 H 0.90797 0.37993 0.60825 0.0
H1366 H 0.88552 0.34983 0.59825 0.0
H1367 H 0.89647 0.37497 0.57727 0.0
H1368 H 0.91089 0.35461 0.54762 0.0
H1369 H 0.9004 0.32944 0.5684 0.0
H1370 H 0.93279 0.346 0.55801 0.0
H1371 H 0.00306 0.3871 0.63661 0.0
H1372 H 0.98081 0.34317 0.66615 0.0
H1373 H 0.89689 0.31365 0.61864 0.0
C1374 C 0.95058 0.40449 0.56019 0.0
C1375 C 0.97378 0.42635 0.5559 0.0
C1376 C 0.99459 0.43292 0.57174 0.0
C1377 C 0.99252 0.41774 0.59129 0.0
C1378 C 0.96951 0.39613 0.59497 0.0
C1379 C 0.94835 0.38928 0.57967 0.0
C1380 C 0.92421 0.3646 0.58521 0.0
C1381 C 0.90225 0.36751 0.59268 0.0
C1382 C 0.91664 0.34768 0.56353 0.0
C1383 C 0.9325 0.35546 0.60626 0.0
C1384 C 0.96381 0.37761 0.6131 0.0
C1385 C 0.98328 0.37321 0.63439 0.0
C1386 C 0.97016 0.34541 0.65163 0.0
C1387 C 0.93483 0.32537 0.6487 0.0
C1388 C 0.91675 0.32688 0.62177 0.0
H1389 H 0.56372 0.96801 0.07482 0.0
H1390 H 0.60739 0.03461 0.11413 0.0
H1391 H 0.62828 0.01739 0.13792 0.0
H1392 H 0.55227 0.92682 0.12478 0.0
H1393 H 0.55366 0.90579 0.1053 0.0
H1394 H 0.54303 0.92491 0.09322 0.0
H1395 H 0.57717 0.94082 0.05988 0.0
H1396 H 0.58832 0.92209 0.07177 0.0
H1397 H 0.61004 0.95414 0.06847 0.0
H1398 H 0.65432 0.99771 0.15903 0.0
H1399 H 0.66879 0.96371 0.17417 0.0
H1400 H 0.59929 0.90261 0.11585 0.0
C1401 C 0.57736 0.97877 0.08872 0.0
C1402 C 0.58393 0.00271 0.09255 0.0
C1403 C 0.60224 0.01639 0.11059 0.0
C1404 C 0.61411 0.0067 0.12432 0.0
C1405 C 0.60746 0.9832 0.12006 0.0
C1406 C 0.58914 0.96892 0.10247 0.0
C1407 C 0.58407 0.94332 0.09929 0.0
C1408 C 0.55663 0.92408 0.10605 0.0
C1409 C 0.59027 0.93991 0.07332 0.0
C1410 C 0.60223 0.94271 0.11717 0.0
C1411 C 0.61807 0.97042 0.13155 0.0
C1412 C 0.64434 0.9797 0.15192 0.0
C1413 C 0.65452 0.95931 0.16021 0.0
C1414 C 0.63236 0.92775 0.14999 0.0
C1415 C 0.61011 0.92039 0.12347 0.0
H1416 H 0.59862 0.53837 0.53714 0.0
H1417 H 0.54491 0.46408 0.55718 0.0
H1418 H 0.57407 0.46628 0.58987 0.0
H1419 H 0.65843 0.54122 0.55162 0.0
H1420 H 0.67264 0.57188 0.56125 0.0
H1421 H 0.64874 0.56035 0.5376 0.0
H1422 H 0.62279 0.57298 0.56225 0.0
H1423 H 0.64578 0.58366 0.58656 0.0
H1424 H 0.61305 0.56117 0.59275 0.0
H1425 H 0.60311 0.47529 0.63261 0.0
H1426 H 0.64093 0.50031 0.67077 0.0
H1427 H 0.6787 0.57709 0.61637 0.0
C1428 C 0.59342 0.52244 0.5481 0.0
C1429 C 0.56968 0.50106 0.54465 0.0
C1430 C 0.56323 0.48053 0.55925 0.0
C1431 C 0.57963 0.48171 0.57797 0.0
C1432 C 0.60245 0.50346 0.58184 0.0
C1433 C 0.60962 0.52392 0.56695 0.0
C1434 C 0.63393 0.54755 0.57433 0.0
C1435 C 0.65466 0.55573 0.55506 0.0
C1436 C 0.62854 0.56748 0.57925 0.0
C1437 C 0.64141 0.54029 0.59732 0.0
C1438 C 0.62002 0.50949 0.60205 0.0
C1439 C 0.61816 0.49388 0.63001 0.0
C1440 C 0.64043 0.50959 0.65438 0.0
C1441 C 0.6672 0.54054 0.64548 0.0
C1442 C 0.66458 0.55832 0.61977 0.0
H1443 H 0.01919 0.56363 0.10261 0.0
H1444 H 0.03799 0.59644 0.03051 0.0
H1445 H 0.06161 0.63692 0.04873 0.0
H1446 H 0.01101 0.60781 0.1315 0.0
H1447 H 0.02569 0.60671 0.15974 0.0
H1448 H 0.00968 0.58055 0.1409 0.0
H1449 H 0.05057 0.57903 0.1398 0.0
H1450 H 0.06671 0.60519 0.15862 0.0
H1451 H 0.07983 0.60522 0.12962 0.0
H1452 H 0.08232 0.67367 0.07505 0.0
H1453 H 0.10032 0.70402 0.1074 0.0
H1454 H 0.07033 0.64681 0.16224 0.0
C1455 C 0.02805 0.5794 0.09074 0.0
C1456 C 0.02662 0.57711 0.06521 0.0
C1457 C 0.03894 0.598 0.05012 0.0
C1458 C 0.05229 0.62097 0.06031 0.0
C1459 C 0.05343 0.62262 0.0856 0.0
C1460 C 0.04184 0.60239 0.10061 0.0
C1461 C 0.04677 0.60904 0.12719 0.0
C1462 C 0.0218 0.60052 0.14062 0.0
C1463 C 0.06187 0.59903 0.13953 0.0
C1464 C 0.06261 0.6362 0.12481 0.0
C1465 C 0.06614 0.6437 0.10069 0.0
C1466 C 0.07973 0.66801 0.09401 0.0
C1467 C 0.08985 0.6851 0.11249 0.0
C1468 C 0.08644 0.67781 0.13734 0.0
C1469 C 0.07293 0.65298 0.14344 0.0
loop_
_geom_bond_atom_site_label_1
_geom_bond_atom_site_label_2
_geom_bond_distance
_geom_bond_site_symmetry_2
_ccdc_geom_bond_type
Cu0 N1 1.999 1_554 S
Cu0 O6 1.974 1_554 S
Cu0 N11 1.985 . S
Cu0 O20 1.959 . S
N1 Cu0 1.999 1_556 S
N1 C3 1.263 . S
N1 C5 1.388 1_556 S
N2 C3 1.358 1_655 S
N2 C4 1.400 . S
C3 N1 1.263 . S
C3 N2 1.358 1_455 S
C3 H9 0.930 . S
C4 N2 1.400 . S
C4 C5 1.350 1_656 S
C4 H21 0.930 . S
C5 N1 1.388 1_554 S
C5 C4 1.350 1_454 S
C5 H10 0.932 . S
O6 Cu0 1.974 1_556 S
O6 C16 1.282 . S
C7 O8 1.261 . S
C7 O20 1.251 . S
O8 C7 1.261 . S
H9 C3 0.930 . S
H10 C5 0.932 . S
N11 Cu0 1.985 . S
N11 C13 1.335 . S
N11 C14 1.390 . S
N12 C13 1.345 . S
N12 C15 1.336 . S
C13 N11 1.335 . S
C13 N12 1.345 . S
C13 H18 0.930 . S
C14 N11 1.390 . S
C14 C15 1.346 . S
C14 H19 0.930 1_554 S
C15 N12 1.336 . S
C15 C14 1.346 . S
C15 H22 0.929 . S
C16 O6 1.282 . S
C16 O17 1.216 . S
O17 C16 1.216 . S
H18 C13 0.930 . S
H19 C14 0.930 1_556 S
O20 Cu0 1.959 . S
O20 C7 1.251 . S
H21 C4 0.930 . S
H22 C15 0.929 . S
Cu23 N24 1.999 . S
Cu23 O29 1.974 . S
Cu23 N34 1.985 1_565 S
Cu23 O43 1.959 1_565 S
N24 Cu23 1.999 . S
N24 C26 1.263 . S
N24 C28 1.389 . S
N25 C26 1.358 . S
N25 C27 1.400 . S
C26 N24 1.263 . S
C26 N25 1.358 . S
C26 H32 0.930 . S
C27 N25 1.400 . S
C27 C28 1.351 . S
C27 H44 0.930 . S
C28 N24 1.389 . S
C28 C27 1.351 . S
C28 H33 0.930 . S
O29 Cu23 1.974 . S
O29 C39 1.282 . S
C30 O31 1.261 . S
C30 O43 1.251 . S
O31 C30 1.261 . S
H32 C26 0.930 . S
H33 C28 0.930 . S
N34 Cu23 1.985 1_545 S
N34 C36 1.335 . S
N34 C37 1.390 . S
N35 C36 1.345 . S
N35 C38 1.336 . S
C36 N34 1.335 . S
C36 N35 1.345 . S
C36 H41 0.930 . S
C37 N34 1.390 . S
C37 C38 1.346 . S
C37 H42 0.930 . S
C38 N35 1.336 . S
C38 C37 1.346 . S
C38 H45 0.929 . S
C39 O29 1.282 . S
C39 O40 1.216 1_565 S
O40 C39 1.216 1_545 S
H41 C36 0.930 . S
H42 C37 0.930 . S
O43 Cu23 1.959 1_545 S
O43 C30 1.251 . S
H44 C27 0.930 . S
H45 C38 0.929 . S
Cu46 N47 1.999 1_554 S
Cu46 O52 1.974 1_554 S
Cu46 N57 1.985 . S
Cu46 O66 1.959 . S
N47 Cu46 1.999 1_556 S
N47 C49 1.263 . S
N47 C51 1.389 . S
N48 C49 1.358 . S
N48 C50 1.400 . S
C49 N47 1.263 . S
C49 N48 1.358 . S
C49 H55 0.930 . S
C50 N48 1.400 . S
C50 C51 1.351 . S
C50 H67 0.930 . S
C51 N47 1.389 . S
C51 C50 1.351 . S
C51 H56 0.930 . S
O52 Cu46 1.974 1_556 S
O52 C62 1.282 . S
C53 O54 1.261 . S
C53 O66 1.251 . S
O54 C53 1.261 . S
H55 C49 0.930 . S
H56 C51 0.930 . S
N57 Cu46 1.985 . S
N57 C59 1.335 . S
N57 C60 1.390 . S
N58 C59 1.345 . S
N58 C61 1.336 . S
C59 N57 1.335 . S
C59 N58 1.345 . S
C59 H64 0.930 . S
C60 N57 1.390 . S
C60 C61 1.346 . S
C60 H65 0.930 . S
C61 N58 1.336 . S
C61 C60 1.346 . S
C61 H68 0.929 . S
C62 O52 1.282 . S
C62 O63 1.216 1_556 S
O63 C62 1.216 1_554 S
H64 C59 0.930 . S
H65 C60 0.930 . S
O66 Cu46 1.959 . S
O66 C53 1.251 . S
H67 C50 0.930 . S
H68 C61 0.929 . S
Cu69 N70 1.999 1_655 S
Cu69 O75 1.974 1_655 S
Cu69 N80 1.985 . S
Cu69 O89 1.959 . S
N70 Cu69 1.999 1_455 S
N70 C72 1.263 . S
N70 C74 1.389 1_455 S
N71 C72 1.358 . S
N71 C73 1.400 . S
C72 N70 1.263 . S
C72 N71 1.358 . S
C72 H78 0.930 . S
C73 N71 1.400 . S
C73 C74 1.351 1_455 S
C73 H90 0.930 1_455 S
C74 N70 1.389 1_655 S
C74 C73 1.351 1_655 S
C74 H79 0.930 . S
O75 Cu69 1.974 1_455 S
O75 C85 1.282 . S
C76 O77 1.261 1_655 S
C76 O89 1.251 . S
O77 C76 1.261 1_455 S
H78 C72 0.930 . S
H79 C74 0.930 . S
N80 Cu69 1.985 . S
N80 C82 1.335 . S
N80 C83 1.390 . S
N81 C82 1.345 . S
N81 C84 1.336 . S
C82 N80 1.335 . S
C82 N81 1.345 . S
C82 H87 0.930 . S
C83 N80 1.390 . S
C83 C84 1.346 . S
C83 H88 0.930 1_655 S
C84 N81 1.336 . S
C84 C83 1.346 . S
C84 H91 0.929 . S
C85 O75 1.282 . S
C85 O86 1.216 . S
O86 C85 1.216 . S
H87 C82 0.930 . S
H88 C83 0.930 1_455 S
O89 Cu69 1.959 . S
O89 C76 1.251 . S
H90 C73 0.930 1_655 S
H91 C84 0.929 . S
Cu92 N93 1.999 . S
Cu92 O98 1.974 . S
Cu92 N103 1.999 . S
Cu92 O112 1.959 . S
N93 Cu92 1.999 . S
N93 C95 1.263 1_554 S
N93 C97 1.389 . S
N94 C95 1.358 . S
N94 C96 1.400 1_556 S
C95 N93 1.263 1_556 S
C95 N94 1.358 . S
C95 H101 0.930 . S
C96 N94 1.400 1_554 S
C96 C97 1.351 . S
C96 H113 0.930 . S
C97 N93 1.389 . S
C97 C96 1.351 . S
C97 H102 0.930 . S
O98 Cu92 1.974 . S
O98 C108 1.282 1_554 S
C99 O100 1.261 . S
C99 O112 1.251 1_565 S
O100 C99 1.261 . S
H101 C95 0.930 . S
H102 C97 0.930 . S
N103 Cu92 1.999 . S
N103 C105 1.329 1_545 S
N103 C106 1.380 1_545 S
N104 C105 1.345 . S
N104 C107 1.336 . S
C105 N103 1.329 1_565 S
C105 N104 1.345 . S
C105 H110 0.930 . S
C106 N103 1.380 1_565 S
C106 C107 1.346 . S
C106 H111 0.930 1_565 S
C107 N104 1.336 . S
C107 C106 1.346 . S
C107 H114 0.929 . S
C108 O98 1.282 1_556 S
C108 O109 1.216 . S
O109 C108 1.216 . S
H110 C105 0.930 . S
H111 C106 0.930 1_545 S
O112 Cu92 1.959 . S
O112 C99 1.251 1_545 S
H113 C96 0.930 . S
H114 C107 0.929 . S
Cu115 N116 1.999 . S
Cu115 O121 1.974 . S
Cu115 N126 1.985 . S
Cu115 O135 1.959 . S
N116 Cu115 1.999 . S
N116 C118 1.263 . S
N116 C120 1.389 . S
N117 C118 1.358 . S
N117 C119 1.400 . S
C118 N116 1.263 . S
C118 N117 1.358 . S
C118 H124 0.930 . S
C119 N117 1.400 . S
C119 C120 1.351 . S
C119 H136 0.930 . S
C120 N116 1.389 . S
C120 C119 1.351 . S
C120 H125 0.930 . S
O121 Cu115 1.974 . S
O121 C131 1.282 . S
C122 O123 1.261 . S
C122 O135 1.251 . S
O123 C122 1.261 . S
H124 C118 0.930 . S
H125 C120 0.930 . S
N126 Cu115 1.985 . S
N126 C128 1.335 . S
N126 C129 1.390 . S
N127 C128 1.345 . S
N127 C130 1.336 . S
C128 N126 1.335 . S
C128 N127 1.345 . S
C128 H133 0.930 . S
C129 N126 1.390 . S
C129 C130 1.346 . S
C129 H134 0.930 . S
C130 N127 1.336 . S
C130 C129 1.346 . S
C130 H137 0.929 . S
C131 O121 1.282 . S
C131 O132 1.216 . S
O132 C131 1.216 . S
H133 C128 0.930 . S
H134 C129 0.930 . S
O135 Cu115 1.959 . S
O135 C122 1.251 . S
H136 C119 0.930 . S
H137 C130 0.929 . S
C138 C139 1.560 . S
C138 H199 0.959 . S
C138 H200 0.959 . S
C138 H201 0.960 . S
C139 C138 1.560 . S
C139 O194 1.426 . S
C139 H198 0.980 . S
C140 C141 1.407 . S
C140 C145 1.418 . S
C140 O194 1.334 . S
C141 C140 1.407 . S
C141 C142 1.360 . S
C141 H202 0.929 . S
C142 C141 1.360 . S
C142 C143 1.401 . S
C142 C146 1.527 . S
C143 C142 1.401 . S
C143 C144 1.405 . S
C143 C176 1.587 . S
C144 C143 1.405 . S
C144 C145 1.332 . S
C144 C147 1.496 . S
C145 C140 1.418 . S
C145 C144 1.332 . S
C145 H203 0.929 . S
C146 C142 1.527 . S
C146 H204 0.959 . S
C146 H205 0.961 . S
C146 H206 0.961 . S
C147 C144 1.496 . S
C147 H207 0.960 . S
C147 H208 0.960 . S
C147 H209 0.961 . S
C148 C149 1.517 . S
C148 H211 0.961 . S
C148 H212 0.960 . S
C148 H213 0.959 . S
C149 C148 1.517 . S
C149 O197 1.468 . S
C149 H210 0.980 . S
C150 C151 1.349 . S
C150 C155 1.367 . S
C150 O197 1.408 . S
C151 C150 1.349 . S
C151 C152 1.407 . S
C151 H214 0.930 . S
C152 C151 1.407 . S
C152 C153 1.449 . S
C152 C156 1.535 . S
C153 C152 1.449 . S
C153 C154 1.384 . S
C153 C178 1.553 . S
C154 C153 1.384 . S
C154 C155 1.364 . S
C154 C157 1.450 . S
C155 C150 1.367 . S
C155 C154 1.364 . S
C155 H215 0.931 . S
C156 C152 1.535 . S
C156 H216 0.959 . S
C156 H217 0.961 . S
C156 H218 0.959 . S
C157 C154 1.450 . S
C157 H219 0.960 . S
C157 H220 0.960 . S
C157 H221 0.960 . S
C158 C159 1.309 . S
C158 C163 1.304 . S
C158 O196 1.435 . S
C159 C158 1.309 . S
C159 C160 1.476 . S
C159 H223 0.930 . S
C160 C159 1.476 . S
C160 C161 1.400 . S
C160 C164 1.567 . S
C161 C160 1.400 . S
C161 C162 1.373 . S
C161 C183 1.432 . S
C162 C161 1.373 . S
C162 C163 1.339 . S
C162 C165 1.530 . S
C163 C158 1.304 . S
C163 C162 1.339 . S
C163 H224 0.930 . S
C164 C160 1.567 . S
C164 H225 0.961 . S
C164 H226 0.960 . S
C164 H227 0.958 . S
C165 C162 1.530 . S
C165 H228 0.961 . S
C165 H229 0.960 . S
C165 H230 0.960 . S
C166 C167 1.530 . S
C166 H232 0.961 . S
C166 H233 0.961 . S
C166 H234 0.959 . S
C167 C166 1.530 . S
C167 O195 1.412 . S
C167 H231 0.980 . S
C168 C169 1.288 . S
C168 C173 1.377 . S
C168 O195 1.393 . S
C169 C168 1.288 . S
C169 C170 1.369 . S
C169 H235 0.932 . S
C170 C169 1.369 . S
C170 C171 1.398 . S
C170 C174 1.527 . S
C171 C170 1.398 . S
C171 C172 1.380 . S
C171 C185 1.497 . S
C172 C171 1.380 . S
C172 C173 1.383 . S
C172 C175 1.603 . S
C173 C168 1.377 . S
C173 C172 1.383 . S
C173 H236 0.929 . S
C174 C170 1.527 . S
C174 H237 0.961 . S
C174 H238 0.959 . S
C174 H239 0.959 . S
C175 C172 1.603 . S
C175 H240 0.960 . S
C175 H241 0.962 . S
C175 H242 0.961 . S
C176 C143 1.587 . S
C176 C177 1.360 . S
C176 C189 1.412 . S
C177 C176 1.360 . S
C177 C178 1.365 . S
C177 H243 0.929 . S
C178 C153 1.553 . S
C178 C177 1.365 . S
C178 C179 1.404 . S
C179 C178 1.404 . S
C179 C180 1.395 . S
C179 C190 1.451 . S
C180 C179 1.395 . S
C180 C181 1.322 . S
C180 H244 0.930 . S
C181 C180 1.322 . S
C181 C182 1.459 . S
C181 H245 0.929 . S
C182 C181 1.459 . S
C182 C183 1.445 . S
C182 C191 1.395 . S
C183 C161 1.432 . S
C183 C182 1.445 . S
C183 C184 1.370 . S
C184 C183 1.370 . S
C184 C185 1.438 . S
C184 H246 0.930 . S
C185 C171 1.497 . S
C185 C184 1.438 . S
C185 C186 1.360 . S
C186 C185 1.360 . S
C186 C187 1.401 . S
C186 C191 1.446 . S
C187 C186 1.401 . S
C187 C188 1.347 . S
C187 H247 0.929 . S
C188 C187 1.347 . S
C188 C189 1.455 . S
C188 H248 0.930 . S
C189 C176 1.412 . S
C189 C188 1.455 . S
C189 C190 1.331 . S
C190 C179 1.451 . S
C190 C189 1.331 . S
C190 C191 1.497 . S
C191 C182 1.395 . S
C191 C186 1.446 . S
C191 C190 1.497 . S
C192 C193 1.582 . S
C192 H249 0.962 . S
C192 H250 0.959 . S
C192 H251 0.958 . S
C193 C192 1.582 . S
C193 O196 1.458 . S
C193 H222 0.980 . S
O194 C139 1.426 . S
O194 C140 1.334 . S
O195 C167 1.412 . S
O195 C168 1.393 . S
O196 C158 1.435 . S
O196 C193 1.458 . S
O197 C149 1.468 . S
O197 C150 1.408 . S
H198 C139 0.980 . S
H199 C138 0.959 . S
H200 C138 0.959 . S
H201 C138 0.960 . S
H202 C141 0.929 . S
H203 C145 0.929 . S
H204 C146 0.959 . S
H205 C146 0.961 . S
H206 C146 0.961 . S
H207 C147 0.960 . S
H208 C147 0.960 . S
H209 C147 0.961 . S
H210 C149 0.980 . S
H211 C148 0.961 . S
H212 C148 0.960 . S
H213 C148 0.959 . S
H214 C151 0.930 . S
H215 C155 0.931 . S
H216 C156 0.959 . S
H217 C156 0.961 . S
H218 C156 0.959 . S
H219 C157 0.960 . S
H220 C157 0.960 . S
H221 C157 0.960 . S
H222 C193 0.980 . S
H223 C159 0.930 . S
H224 C163 0.930 . S
H225 C164 0.961 . S
H226 C164 0.960 . S
H227 C164 0.958 . S
H228 C165 0.961 . S
H229 C165 0.960 . S
H230 C165 0.960 . S
H231 C167 0.980 . S
H232 C166 0.961 . S
H233 C166 0.961 . S
H234 C166 0.959 . S
H235 C169 0.932 . S
H236 C173 0.929 . S
H237 C174 0.961 . S
H238 C174 0.959 . S
H239 C174 0.959 . S
H240 C175 0.960 . S
H241 C175 0.962 . S
H242 C175 0.961 . S
H243 C177 0.929 . S
H244 C180 0.930 . S
H245 C181 0.929 . S
H246 C184 0.930 . S
H247 C187 0.929 . S
H248 C188 0.930 . S
H249 C192 0.962 . S
H250 C192 0.959 . S
H251 C192 0.958 . S
C252 C253 1.560 . S
C252 H313 0.959 . S
C252 H314 0.959 . S
C252 H315 0.960 . S
C253 C252 1.560 . S
C253 O308 1.426 . S
C253 H312 0.980 . S
C254 C255 1.407 . S
C254 C259 1.418 . S
C254 O308 1.334 . S
C255 C254 1.407 . S
C255 C256 1.360 . S
C255 H316 0.929 . S
C256 C255 1.360 . S
C256 C257 1.401 . S
C256 C260 1.527 . S
C257 C256 1.401 . S
C257 C258 1.405 . S
C257 C290 1.587 . S
C258 C257 1.405 . S
C258 C259 1.332 . S
C258 C261 1.496 . S
C259 C254 1.418 . S
C259 C258 1.332 . S
C259 H317 0.929 . S
C260 C256 1.527 . S
C260 H318 0.959 . S
C260 H319 0.961 . S
C260 H320 0.961 . S
C261 C258 1.496 . S
C261 H321 0.960 . S
C261 H322 0.960 . S
C261 H323 0.961 . S
C262 C263 1.517 . S
C262 H325 0.961 . S
C262 H326 0.960 . S
C262 H327 0.959 . S
C263 C262 1.517 . S
C263 O311 1.468 . S
C263 H324 0.980 . S
C264 C265 1.349 . S
C264 C269 1.367 . S
C264 O311 1.408 . S
C265 C264 1.349 . S
C265 C266 1.407 . S
C265 H328 0.930 . S
C266 C265 1.407 . S
C266 C267 1.449 . S
C266 C270 1.535 . S
C267 C266 1.449 . S
C267 C268 1.384 . S
C267 C292 1.553 . S
C268 C267 1.384 . S
C268 C269 1.364 . S
C268 C271 1.450 . S
C269 C264 1.367 . S
C269 C268 1.364 . S
C269 H329 0.931 . S
C270 C266 1.535 . S
C270 H330 0.959 . S
C270 H331 0.961 . S
C270 H332 0.959 . S
C271 C268 1.450 . S
C271 H333 0.960 . S
C271 H334 0.960 . S
C271 H335 0.960 . S
C272 C273 1.309 . S
C272 C277 1.304 . S
C272 O310 1.435 . S
C273 C272 1.309 . S
C273 C274 1.476 . S
C273 H337 0.930 . S
C274 C273 1.476 . S
C274 C275 1.400 . S
C274 C278 1.567 . S
C275 C274 1.400 . S
C275 C276 1.373 . S
C275 C297 1.432 . S
C276 C275 1.373 . S
C276 C277 1.339 . S
C276 C279 1.530 . S
C277 C272 1.304 . S
C277 C276 1.339 . S
C277 H338 0.930 . S
C278 C274 1.567 . S
C278 H339 0.961 . S
C278 H340 0.960 . S
C278 H341 0.958 . S
C279 C276 1.530 . S
C279 H342 0.961 . S
C279 H343 0.960 . S
C279 H344 0.960 . S
C280 C281 1.530 . S
C280 H346 0.961 . S
C280 H347 0.961 . S
C280 H348 0.959 . S
C281 C280 1.530 . S
C281 O309 1.412 . S
C281 H345 0.980 . S
C282 C283 1.288 . S
C282 C287 1.377 . S
C282 O309 1.393 . S
C283 C282 1.288 . S
C283 C284 1.369 . S
C283 H349 0.932 . S
C284 C283 1.369 . S
C284 C285 1.398 . S
C284 C288 1.527 . S
C285 C284 1.398 . S
C285 C286 1.380 . S
C285 C299 1.497 . S
C286 C285 1.380 . S
C286 C287 1.383 . S
C286 C289 1.603 . S
C287 C282 1.377 . S
C287 C286 1.383 . S
C287 H350 0.929 . S
C288 C284 1.527 . S
C288 H351 0.961 . S
C288 H352 0.959 . S
C288 H353 0.959 . S
C289 C286 1.603 . S
C289 H354 0.960 . S
C289 H355 0.962 . S
C289 H356 0.961 . S
C290 C257 1.587 . S
C290 C291 1.360 . S
C290 C303 1.412 . S
C291 C290 1.360 . S
C291 C292 1.365 . S
C291 H357 0.929 . S
C292 C267 1.553 . S
C292 C291 1.365 . S
C292 C293 1.404 . S
C293 C292 1.404 . S
C293 C294 1.395 . S
C293 C304 1.451 . S
C294 C293 1.395 . S
C294 C295 1.322 . S
C294 H358 0.930 . S
C295 C294 1.322 . S
C295 C296 1.459 . S
C295 H359 0.929 . S
C296 C295 1.459 . S
C296 C297 1.445 . S
C296 C305 1.395 . S
C297 C275 1.432 . S
C297 C296 1.445 . S
C297 C298 1.370 . S
C298 C297 1.370 . S
C298 C299 1.438 . S
C298 H360 0.930 . S
C299 C285 1.497 . S
C299 C298 1.438 . S
C299 C300 1.360 . S
C300 C299 1.360 . S
C300 C301 1.401 . S
C300 C305 1.446 . S
C301 C300 1.401 . S
C301 C302 1.347 . S
C301 H361 0.929 . S
C302 C301 1.347 . S
C302 C303 1.455 . S
C302 H362 0.930 . S
C303 C290 1.412 . S
C303 C302 1.455 . S
C303 C304 1.331 . S
C304 C293 1.451 . S
C304 C303 1.331 . S
C304 C305 1.497 . S
C305 C296 1.395 . S
C305 C300 1.446 . S
C305 C304 1.497 . S
C306 C307 1.582 . S
C306 H363 0.962 . S
C306 H364 0.959 . S
C306 H365 0.958 . S
C307 C306 1.582 . S
C307 O310 1.458 . S
C307 H336 0.980 . S
O308 C253 1.426 . S
O308 C254 1.334 . S
O309 C281 1.412 . S
O309 C282 1.393 . S
O310 C272 1.435 . S
O310 C307 1.458 . S
O311 C263 1.468 . S
O311 C264 1.408 . S
H312 C253 0.980 . S
H313 C252 0.959 . S
H314 C252 0.959 . S
H315 C252 0.960 . S
H316 C255 0.929 . S
H317 C259 0.929 . S
H318 C260 0.959 . S
H319 C260 0.961 . S
H320 C260 0.961 . S
H321 C261 0.960 . S
H322 C261 0.960 . S
H323 C261 0.961 . S
H324 C263 0.980 . S
H325 C262 0.961 . S
H326 C262 0.960 . S
H327 C262 0.959 . S
H328 C265 0.930 . S
H329 C269 0.931 . S
H330 C270 0.959 . S
H331 C270 0.961 . S
H332 C270 0.959 . S
H333 C271 0.960 . S
H334 C271 0.960 . S
H335 C271 0.960 . S
H336 C307 0.980 . S
H337 C273 0.930 . S
H338 C277 0.930 . S
H339 C278 0.961 . S
H340 C278 0.960 . S
H341 C278 0.958 . S
H342 C279 0.961 . S
H343 C279 0.960 . S
H344 C279 0.960 . S
H345 C281 0.980 . S
H346 C280 0.961 . S
H347 C280 0.961 . S
H348 C280 0.959 . S
H349 C283 0.932 . S
H350 C287 0.929 . S
H351 C288 0.961 . S
H352 C288 0.959 . S
H353 C288 0.959 . S
H354 C289 0.960 . S
H355 C289 0.962 . S
H356 C289 0.961 . S
H357 C291 0.929 . S
H358 C294 0.930 . S
H359 C295 0.929 . S
H360 C298 0.930 . S
H361 C301 0.929 . S
H362 C302 0.930 . S
H363 C306 0.962 . S
H364 C306 0.959 . S
H365 C306 0.958 . S
C366 C367 1.560 . S
C366 H427 0.959 . S
C366 H428 0.959 . S
C366 H429 0.960 . S
C367 C366 1.560 . S
C367 O422 1.426 . S
C367 H426 0.980 . S
C368 C369 1.407 . S
C368 C373 1.418 . S
C368 O422 1.334 . S
C369 C368 1.407 . S
C369 C370 1.360 . S
C369 H430 0.929 . S
C370 C369 1.360 . S
C370 C371 1.401 . S
C370 C374 1.527 . S
C371 C370 1.401 . S
C371 C372 1.405 . S
C371 C404 1.587 . S
C372 C371 1.405 . S
C372 C373 1.332 . S
C372 C375 1.496 . S
C373 C368 1.418 . S
C373 C372 1.332 . S
C373 H431 0.929 . S
C374 C370 1.527 . S
C374 H432 0.959 . S
C374 H433 0.961 . S
C374 H434 0.961 . S
C375 C372 1.496 . S
C375 H435 0.960 . S
C375 H436 0.960 . S
C375 H437 0.961 . S
C376 C377 1.517 . S
C376 H439 0.961 . S
C376 H440 0.960 . S
C376 H441 0.959 . S
C377 C376 1.517 . S
C377 O425 1.468 . S
C377 H438 0.980 . S
C378 C379 1.349 . S
C378 C383 1.367 . S
C378 O425 1.408 . S
C379 C378 1.349 . S
C379 C380 1.407 . S
C379 H442 0.930 . S
C380 C379 1.407 . S
C380 C381 1.449 . S
C380 C384 1.535 . S
C381 C380 1.449 . S
C381 C382 1.384 . S
C381 C406 1.553 . S
C382 C381 1.384 . S
C382 C383 1.364 . S
C382 C385 1.450 . S
C383 C378 1.367 . S
C383 C382 1.364 . S
C383 H443 0.931 . S
C384 C380 1.535 . S
C384 H444 0.959 . S
C384 H445 0.961 . S
C384 H446 0.959 . S
C385 C382 1.450 . S
C385 H447 0.960 . S
C385 H448 0.960 . S
C385 H449 0.960 . S
C386 C387 1.309 . S
C386 C391 1.304 . S
C386 O424 1.435 . S
C387 C386 1.309 . S
C387 C388 1.476 . S
C387 H451 0.930 . S
C388 C387 1.476 . S
C388 C389 1.400 . S
C388 C392 1.567 . S
C389 C388 1.400 . S
C389 C390 1.373 . S
C389 C411 1.432 . S
C390 C389 1.373 . S
C390 C391 1.339 . S
C390 C393 1.530 . S
C391 C386 1.304 . S
C391 C390 1.339 . S
C391 H452 0.930 . S
C392 C388 1.567 . S
C392 H453 0.961 . S
C392 H454 0.960 . S
C392 H455 0.958 . S
C393 C390 1.530 . S
C393 H456 0.961 . S
C393 H457 0.960 . S
C393 H458 0.960 . S
C394 C395 1.530 . S
C394 H460 0.961 . S
C394 H461 0.961 . S
C394 H462 0.959 . S
C395 C394 1.530 . S
C395 O423 1.412 . S
C395 H459 0.980 . S
C396 C397 1.288 . S
C396 C401 1.377 . S
C396 O423 1.393 . S
C397 C396 1.288 . S
C397 C398 1.369 . S
C397 H463 0.932 . S
C398 C397 1.369 . S
C398 C399 1.398 . S
C398 C402 1.527 . S
C399 C398 1.398 . S
C399 C400 1.380 . S
C399 C413 1.497 . S
C400 C399 1.380 . S
C400 C401 1.383 . S
C400 C403 1.603 . S
C401 C396 1.377 . S
C401 C400 1.383 . S
C401 H464 0.929 . S
C402 C398 1.527 . S
C402 H465 0.961 . S
C402 H466 0.959 . S
C402 H467 0.959 . S
C403 C400 1.603 . S
C403 H468 0.960 . S
C403 H469 0.962 . S
C403 H470 0.961 . S
C404 C371 1.587 . S
C404 C405 1.360 . S
C404 C417 1.412 . S
C405 C404 1.360 . S
C405 C406 1.365 . S
C405 H471 0.929 . S
C406 C381 1.553 . S
C406 C405 1.365 . S
C406 C407 1.404 . S
C407 C406 1.404 . S
C407 C408 1.395 . S
C407 C418 1.451 . S
C408 C407 1.395 . S
C408 C409 1.322 . S
C408 H472 0.930 . S
C409 C408 1.322 . S
C409 C410 1.459 . S
C409 H473 0.929 . S
C410 C409 1.459 . S
C410 C411 1.445 . S
C410 C419 1.395 . S
C411 C389 1.432 . S
C411 C410 1.445 . S
C411 C412 1.370 . S
C412 C411 1.370 . S
C412 C413 1.438 . S
C412 H474 0.930 . S
C413 C399 1.497 . S
C413 C412 1.438 . S
C413 C414 1.360 . S
C414 C413 1.360 . S
C414 C415 1.401 . S
C414 C419 1.446 . S
C415 C414 1.401 . S
C415 C416 1.347 . S
C415 H475 0.929 . S
C416 C415 1.347 . S
C416 C417 1.455 . S
C416 H476 0.930 . S
C417 C404 1.412 . S
C417 C416 1.455 . S
C417 C418 1.331 . S
C418 C407 1.451 . S
C418 C417 1.331 . S
C418 C419 1.497 . S
C419 C410 1.395 . S
C419 C414 1.446 . S
C419 C418 1.497 . S
C420 C421 1.582 . S
C420 H477 0.962 . S
C420 H478 0.959 . S
C420 H479 0.958 . S
C421 C420 1.582 . S
C421 O424 1.458 . S
C421 H450 0.980 . S
O422 C367 1.426 . S
O422 C368 1.334 . S
O423 C395 1.412 . S
O423 C396 1.393 . S
O424 C386 1.435 . S
O424 C421 1.458 . S
O425 C377 1.468 . S
O425 C378 1.408 . S
H426 C367 0.980 . S
H427 C366 0.959 . S
H428 C366 0.959 . S
H429 C366 0.960 . S
H430 C369 0.929 . S
H431 C373 0.929 . S
H432 C374 0.959 . S
H433 C374 0.961 . S
H434 C374 0.961 . S
H435 C375 0.960 . S
H436 C375 0.960 . S
H437 C375 0.961 . S
H438 C377 0.980 . S
H439 C376 0.961 . S
H440 C376 0.960 . S
H441 C376 0.959 . S
H442 C379 0.930 . S
H443 C383 0.931 . S
H444 C384 0.959 . S
H445 C384 0.961 . S
H446 C384 0.959 . S
H447 C385 0.960 . S
H448 C385 0.960 . S
H449 C385 0.960 . S
H450 C421 0.980 . S
H451 C387 0.930 . S
H452 C391 0.930 . S
H453 C392 0.961 . S
H454 C392 0.960 . S
H455 C392 0.958 . S
H456 C393 0.961 . S
H457 C393 0.960 . S
H458 C393 0.960 . S
H459 C395 0.980 . S
H460 C394 0.961 . S
H461 C394 0.961 . S
H462 C394 0.959 . S
H463 C397 0.932 . S
H464 C401 0.929 . S
H465 C402 0.961 . S
H466 C402 0.959 . S
H467 C402 0.959 . S
H468 C403 0.960 . S
H469 C403 0.962 . S
H470 C403 0.961 . S
H471 C405 0.929 . S
H472 C408 0.930 . S
H473 C409 0.929 . S
H474 C412 0.930 . S
H475 C415 0.929 . S
H476 C416 0.930 . S
H477 C420 0.962 . S
H478 C420 0.959 . S
H479 C420 0.958 . S
C480 C481 1.560 . S
C480 H541 0.959 . S
C480 H542 0.959 . S
C480 H543 0.960 . S
C481 C480 1.560 . S
C481 O536 1.426 . S
C481 H540 0.980 . S
C482 C483 1.407 . S
C482 C487 1.418 . S
C482 O536 1.334 . S
C483 C482 1.407 . S
C483 C484 1.360 . S
C483 H544 0.929 . S
C484 C483 1.360 . S
C484 C485 1.401 . S
C484 C488 1.527 . S
C485 C484 1.401 . S
C485 C486 1.405 . S
C485 C518 1.587 . S
C486 C485 1.405 . S
C486 C487 1.332 . S
C486 C489 1.496 . S
C487 C482 1.418 . S
C487 C486 1.332 . S
C487 H545 0.929 . S
C488 C484 1.527 . S
C488 H546 0.959 . S
C488 H547 0.961 . S
C488 H548 0.961 . S
C489 C486 1.496 . S
C489 H549 0.960 . S
C489 H550 0.960 . S
C489 H551 0.961 . S
C490 C491 1.517 . S
C490 H553 0.961 . S
C490 H554 0.960 . S
C490 H555 0.959 . S
C491 C490 1.517 . S
C491 O539 1.468 . S
C491 H552 0.980 . S
C492 C493 1.349 . S
C492 C497 1.367 . S
C492 O539 1.408 . S
C493 C492 1.349 . S
C493 C494 1.407 . S
C493 H556 0.930 . S
C494 C493 1.407 . S
C494 C495 1.449 . S
C494 C498 1.535 . S
C495 C494 1.449 . S
C495 C496 1.384 . S
C495 C520 1.553 . S
C496 C495 1.384 . S
C496 C497 1.364 . S
C496 C499 1.450 . S
C497 C492 1.367 . S
C497 C496 1.364 . S
C497 H557 0.931 . S
C498 C494 1.535 . S
C498 H558 0.959 . S
C498 H559 0.961 . S
C498 H560 0.959 . S
C499 C496 1.450 . S
C499 H561 0.960 . S
C499 H562 0.960 . S
C499 H563 0.960 . S
C500 C501 1.309 . S
C500 C505 1.304 . S
C500 O538 1.435 . S
C501 C500 1.309 . S
C501 C502 1.476 . S
C501 H565 0.930 . S
C502 C501 1.476 . S
C502 C503 1.400 . S
C502 C506 1.567 . S
C503 C502 1.400 . S
C503 C504 1.373 . S
C503 C525 1.432 . S
C504 C503 1.373 . S
C504 C505 1.339 . S
C504 C507 1.530 . S
C505 C500 1.304 . S
C505 C504 1.339 . S
C505 H566 0.930 . S
C506 C502 1.567 . S
C506 H567 0.961 . S
C506 H568 0.960 . S
C506 H569 0.958 . S
C507 C504 1.530 . S
C507 H570 0.961 . S
C507 H571 0.960 . S
C507 H572 0.960 . S
C508 C509 1.530 . S
C508 H574 0.961 . S
C508 H575 0.961 . S
C508 H576 0.959 . S
C509 C508 1.530 . S
C509 O537 1.412 . S
C509 H573 0.980 . S
C510 C511 1.288 . S
C510 C515 1.377 . S
C510 O537 1.393 . S
C511 C510 1.288 . S
C511 C512 1.369 . S
C511 H577 0.932 . S
C512 C511 1.369 . S
C512 C513 1.398 . S
C512 C516 1.527 . S
C513 C512 1.398 . S
C513 C514 1.380 . S
C513 C527 1.497 . S
C514 C513 1.380 . S
C514 C515 1.383 . S
C514 C517 1.603 . S
C515 C510 1.377 . S
C515 C514 1.383 . S
C515 H578 0.929 . S
C516 C512 1.527 . S
C516 H579 0.961 . S
C516 H580 0.959 . S
C516 H581 0.959 . S
C517 C514 1.603 . S
C517 H582 0.960 . S
C517 H583 0.962 . S
C517 H584 0.961 . S
C518 C485 1.587 . S
C518 C519 1.360 . S
C518 C531 1.412 . S
C519 C518 1.360 . S
C519 C520 1.365 . S
C519 H585 0.929 . S
C520 C495 1.553 . S
C520 C519 1.365 . S
C520 C521 1.404 . S
C521 C520 1.404 . S
C521 C522 1.395 . S
C521 C532 1.451 . S
C522 C521 1.395 . S
C522 C523 1.322 . S
C522 H586 0.930 . S
C523 C522 1.322 . S
C523 C524 1.459 . S
C523 H587 0.929 . S
C524 C523 1.459 . S
C524 C525 1.445 . S
C524 C533 1.395 . S
C525 C503 1.432 . S
C525 C524 1.445 . S
C525 C526 1.370 . S
C526 C525 1.370 . S
C526 C527 1.438 . S
C526 H588 0.930 . S
C527 C513 1.497 . S
C527 C526 1.438 . S
C527 C528 1.360 . S
C528 C527 1.360 . S
C528 C529 1.401 . S
C528 C533 1.446 . S
C529 C528 1.401 . S
C529 C530 1.347 . S
C529 H589 0.929 . S
C530 C529 1.347 . S
C530 C531 1.455 . S
C530 H590 0.930 . S
C531 C518 1.412 . S
C531 C530 1.455 . S
C531 C532 1.331 . S
C532 C521 1.451 . S
C532 C531 1.331 . S
C532 C533 1.497 . S
C533 C524 1.395 . S
C533 C528 1.446 . S
C533 C532 1.497 . S
C534 C535 1.582 . S
C534 H591 0.962 . S
C534 H592 0.959 . S
C534 H593 0.958 . S
C535 C534 1.582 . S
C535 O538 1.458 . S
C535 H564 0.980 . S
O536 C481 1.426 . S
O536 C482 1.334 . S
O537 C509 1.412 . S
O537 C510 1.393 . S
O538 C500 1.435 . S
O538 C535 1.458 . S
O539 C491 1.468 . S
O539 C492 1.408 . S
H540 C481 0.980 . S
H541 C480 0.959 . S
H542 C480 0.959 . S
H543 C480 0.960 . S
H544 C483 0.929 . S
H545 C487 0.929 . S
H546 C488 0.959 . S
H547 C488 0.961 . S
H548 C488 0.961 . S
H549 C489 0.960 . S
H550 C489 0.960 . S
H551 C489 0.961 . S
H552 C491 0.980 . S
H553 C490 0.961 . S
H554 C490 0.960 . S
H555 C490 0.959 . S
H556 C493 0.930 . S
H557 C497 0.931 . S
H558 C498 0.959 . S
H559 C498 0.961 . S
H560 C498 0.959 . S
H561 C499 0.960 . S
H562 C499 0.960 . S
H563 C499 0.960 . S
H564 C535 0.980 . S
H565 C501 0.930 . S
H566 C505 0.930 . S
H567 C506 0.961 . S
H568 C506 0.960 . S
H569 C506 0.958 . S
H570 C507 0.961 . S
H571 C507 0.960 . S
H572 C507 0.960 . S
H573 C509 0.980 . S
H574 C508 0.961 . S
H575 C508 0.961 . S
H576 C508 0.959 . S
H577 C511 0.932 . S
H578 C515 0.929 . S
H579 C516 0.961 . S
H580 C516 0.959 . S
H581 C516 0.959 . S
H582 C517 0.960 . S
H583 C517 0.962 . S
H584 C517 0.961 . S
H585 C519 0.929 . S
H586 C522 0.930 . S
H587 C523 0.929 . S
H588 C526 0.930 . S
H589 C529 0.929 . S
H590 C530 0.930 . S
H591 C534 0.962 . S
H592 C534 0.959 . S
H593 C534 0.958 . S
C594 C595 1.560 . S
C594 H655 0.959 . S
C594 H656 0.959 . S
C594 H657 0.960 . S
C595 C594 1.560 . S
C595 O650 1.426 . S
C595 H654 0.980 . S
C596 C597 1.407 . S
C596 C601 1.418 . S
C596 O650 1.334 . S
C597 C596 1.407 . S
C597 C598 1.360 . S
C597 H658 0.929 . S
C598 C597 1.360 . S
C598 C599 1.401 . S
C598 C602 1.527 . S
C599 C598 1.401 . S
C599 C600 1.405 . S
C599 C632 1.587 . S
C600 C599 1.405 . S
C600 C601 1.332 . S
C600 C603 1.496 . S
C601 C596 1.418 . S
C601 C600 1.332 . S
C601 H659 0.929 . S
C602 C598 1.527 . S
C602 H660 0.959 . S
C602 H661 0.961 . S
C602 H662 0.961 . S
C603 C600 1.496 . S
C603 H663 0.960 . S
C603 H664 0.960 . S
C603 H665 0.961 . S
C604 C605 1.517 . S
C604 H667 0.961 . S
C604 H668 0.960 . S
C604 H669 0.959 . S
C605 C604 1.517 . S
C605 O653 1.468 . S
C605 H666 0.980 . S
C606 C607 1.349 . S
C606 C611 1.367 . S
C606 O653 1.408 . S
C607 C606 1.349 . S
C607 C608 1.407 . S
C607 H670 0.930 . S
C608 C607 1.407 . S
C608 C609 1.449 . S
C608 C612 1.535 . S
C609 C608 1.449 . S
C609 C610 1.384 . S
C609 C634 1.553 . S
C610 C609 1.384 . S
C610 C611 1.364 . S
C610 C613 1.450 . S
C611 C606 1.367 . S
C611 C610 1.364 . S
C611 H671 0.931 . S
C612 C608 1.535 . S
C612 H672 0.959 . S
C612 H673 0.961 . S
C612 H674 0.959 . S
C613 C610 1.450 . S
C613 H675 0.960 . S
C613 H676 0.960 . S
C613 H677 0.960 . S
C614 C615 1.309 . S
C614 C619 1.304 . S
C614 O652 1.435 . S
C615 C614 1.309 . S
C615 C616 1.476 . S
C615 H679 0.930 . S
C616 C615 1.476 . S
C616 C617 1.400 . S
C616 C620 1.567 . S
C617 C616 1.400 . S
C617 C618 1.373 . S
C617 C639 1.432 . S
C618 C617 1.373 . S
C618 C619 1.339 . S
C618 C621 1.530 . S
C619 C614 1.304 . S
C619 C618 1.339 . S
C619 H680 0.930 . S
C620 C616 1.567 . S
C620 H681 0.961 . S
C620 H682 0.960 . S
C620 H683 0.958 . S
C621 C618 1.530 . S
C621 H684 0.961 . S
C621 H685 0.960 . S
C621 H686 0.960 . S
C622 C623 1.530 . S
C622 H688 0.961 . S
C622 H689 0.961 . S
C622 H690 0.959 . S
C623 C622 1.530 . S
C623 O651 1.412 . S
C623 H687 0.980 . S
C624 C625 1.288 . S
C624 C629 1.377 . S
C624 O651 1.393 . S
C625 C624 1.288 . S
C625 C626 1.369 . S
C625 H691 0.932 . S
C626 C625 1.369 . S
C626 C627 1.398 . S
C626 C630 1.527 . S
C627 C626 1.398 . S
C627 C628 1.380 . S
C627 C641 1.497 . S
C628 C627 1.380 . S
C628 C629 1.383 . S
C628 C631 1.603 . S
C629 C624 1.377 . S
C629 C628 1.383 . S
C629 H692 0.929 . S
C630 C626 1.527 . S
C630 H693 0.961 . S
C630 H694 0.959 . S
C630 H695 0.959 . S
C631 C628 1.603 . S
C631 H696 0.960 . S
C631 H697 0.962 . S
C631 H698 0.961 . S
C632 C599 1.587 . S
C632 C633 1.360 . S
C632 C645 1.412 . S
C633 C632 1.360 . S
C633 C634 1.365 . S
C633 H699 0.929 . S
C634 C609 1.553 . S
C634 C633 1.365 . S
C634 C635 1.404 . S
C635 C634 1.404 . S
C635 C636 1.395 . S
C635 C646 1.451 . S
C636 C635 1.395 . S
C636 C637 1.322 . S
C636 H700 0.930 . S
C637 C636 1.322 . S
C637 C638 1.459 . S
C637 H701 0.929 . S
C638 C637 1.459 . S
C638 C639 1.445 . S
C638 C647 1.395 . S
C639 C617 1.432 . S
C639 C638 1.445 . S
C639 C640 1.370 . S
C640 C639 1.370 . S
C640 C641 1.438 . S
C640 H702 0.930 . S
C641 C627 1.497 . S
C641 C640 1.438 . S
C641 C642 1.360 . S
C642 C641 1.360 . S
C642 C643 1.401 . S
C642 C647 1.446 . S
C643 C642 1.401 . S
C643 C644 1.347 . S
C643 H703 0.929 . S
C644 C643 1.347 . S
C644 C645 1.455 . S
C644 H704 0.930 . S
C645 C632 1.412 . S
C645 C644 1.455 . S
C645 C646 1.331 . S
C646 C635 1.451 . S
C646 C645 1.331 . S
C646 C647 1.497 . S
C647 C638 1.395 . S
C647 C642 1.446 . S
C647 C646 1.497 . S
C648 C649 1.582 . S
C648 H705 0.962 . S
C648 H706 0.959 . S
C648 H707 0.958 . S
C649 C648 1.582 . S
C649 O652 1.458 . S
C649 H678 0.980 . S
O650 C595 1.426 . S
O650 C596 1.334 . S
O651 C623 1.412 . S
O651 C624 1.393 . S
O652 C614 1.435 . S
O652 C649 1.458 . S
O653 C605 1.468 . S
O653 C606 1.408 . S
H654 C595 0.980 . S
H655 C594 0.959 . S
H656 C594 0.959 . S
H657 C594 0.960 . S
H658 C597 0.929 . S
H659 C601 0.929 . S
H660 C602 0.959 . S
H661 C602 0.961 . S
H662 C602 0.961 . S
H663 C603 0.960 . S
H664 C603 0.960 . S
H665 C603 0.961 . S
H666 C605 0.980 . S
H667 C604 0.961 . S
H668 C604 0.960 . S
H669 C604 0.959 . S
H670 C607 0.930 . S
H671 C611 0.931 . S
H672 C612 0.959 . S
H673 C612 0.961 . S
H674 C612 0.959 . S
H675 C613 0.960 . S
H676 C613 0.960 . S
H677 C613 0.960 . S
H678 C649 0.980 . S
H679 C615 0.930 . S
H680 C619 0.930 . S
H681 C620 0.961 . S
H682 C620 0.960 . S
H683 C620 0.958 . S
H684 C621 0.961 . S
H685 C621 0.960 . S
H686 C621 0.960 . S
H687 C623 0.980 . S
H688 C622 0.961 . S
H689 C622 0.961 . S
H690 C622 0.959 . S
H691 C625 0.932 . S
H692 C629 0.929 . S
H693 C630 0.961 . S
H694 C630 0.959 . S
H695 C630 0.959 . S
H696 C631 0.960 . S
H697 C631 0.962 . S
H698 C631 0.961 . S
H699 C633 0.929 . S
H700 C636 0.930 . S
H701 C637 0.929 . S
H702 C640 0.930 . S
H703 C643 0.929 . S
H704 C644 0.930 . S
H705 C648 0.962 . S
H706 C648 0.959 . S
H707 C648 0.958 . S
C708 C709 1.560 . S
C708 H769 0.959 . S
C708 H770 0.959 . S
C708 H771 0.960 . S
C709 C708 1.560 . S
C709 O764 1.426 . S
C709 H768 0.980 . S
C710 C711 1.407 . S
C710 C715 1.418 . S
C710 O764 1.334 . S
C711 C710 1.407 . S
C711 C712 1.360 . S
C711 H772 0.929 . S
C712 C711 1.360 . S
C712 C713 1.401 . S
C712 C716 1.527 . S
C713 C712 1.401 . S
C713 C714 1.405 . S
C713 C746 1.587 . S
C714 C713 1.405 . S
C714 C715 1.332 . S
C714 C717 1.496 . S
C715 C710 1.418 . S
C715 C714 1.332 . S
C715 H773 0.929 . S
C716 C712 1.527 . S
C716 H774 0.959 . S
C716 H775 0.961 . S
C716 H776 0.961 . S
C717 C714 1.496 . S
C717 H777 0.960 . S
C717 H778 0.960 . S
C717 H779 0.961 . S
C718 C719 1.517 . S
C718 H781 0.961 . S
C718 H782 0.960 . S
C718 H783 0.959 . S
C719 C718 1.517 . S
C719 O767 1.468 . S
C719 H780 0.980 . S
C720 C721 1.349 . S
C720 C725 1.367 . S
C720 O767 1.408 . S
C721 C720 1.349 . S
C721 C722 1.407 . S
C721 H784 0.930 . S
C722 C721 1.407 . S
C722 C723 1.449 . S
C722 C726 1.535 . S
C723 C722 1.449 . S
C723 C724 1.384 . S
C723 C748 1.553 . S
C724 C723 1.384 . S
C724 C725 1.364 . S
C724 C727 1.450 . S
C725 C720 1.367 . S
C725 C724 1.364 . S
C725 H785 0.931 . S
C726 C722 1.535 . S
C726 H786 0.959 . S
C726 H787 0.961 . S
C726 H788 0.959 . S
C727 C724 1.450 . S
C727 H789 0.960 . S
C727 H790 0.960 . S
C727 H791 0.960 . S
C728 C729 1.309 . S
C728 C733 1.304 . S
C728 O766 1.435 . S
C729 C728 1.309 . S
C729 C730 1.476 . S
C729 H793 0.930 . S
C730 C729 1.476 . S
C730 C731 1.400 . S
C730 C734 1.567 . S
C731 C730 1.400 . S
C731 C732 1.373 . S
C731 C753 1.432 . S
C732 C731 1.373 . S
C732 C733 1.339 . S
C732 C735 1.530 . S
C733 C728 1.304 . S
C733 C732 1.339 . S
C733 H794 0.930 . S
C734 C730 1.567 . S
C734 H795 0.961 . S
C734 H796 0.960 . S
C734 H797 0.958 . S
C735 C732 1.530 . S
C735 H798 0.961 . S
C735 H799 0.960 . S
C735 H800 0.960 . S
C736 C737 1.530 . S
C736 H802 0.961 . S
C736 H803 0.961 . S
C736 H804 0.959 . S
C737 C736 1.530 . S
C737 O765 1.412 . S
C737 H801 0.980 . S
C738 C739 1.288 . S
C738 C743 1.377 . S
C738 O765 1.393 . S
C739 C738 1.288 . S
C739 C740 1.369 . S
C739 H805 0.932 . S
C740 C739 1.369 . S
C740 C741 1.398 . S
C740 C744 1.527 . S
C741 C740 1.398 . S
C741 C742 1.380 . S
C741 C755 1.497 . S
C742 C741 1.380 . S
C742 C743 1.383 . S
C742 C745 1.603 . S
C743 C738 1.377 . S
C743 C742 1.383 . S
C743 H806 0.929 . S
C744 C740 1.527 . S
C744 H807 0.961 . S
C744 H808 0.959 . S
C744 H809 0.959 . S
C745 C742 1.603 . S
C745 H810 0.960 . S
C745 H811 0.962 . S
C745 H812 0.961 . S
C746 C713 1.587 . S
C746 C747 1.360 . S
C746 C759 1.412 . S
C747 C746 1.360 . S
C747 C748 1.365 . S
C747 H813 0.929 . S
C748 C723 1.553 . S
C748 C747 1.365 . S
C748 C749 1.404 . S
C749 C748 1.404 . S
C749 C750 1.395 . S
C749 C760 1.451 . S
C750 C749 1.395 . S
C750 C751 1.322 . S
C750 H814 0.930 . S
C751 C750 1.322 . S
C751 C752 1.459 . S
C751 H815 0.929 . S
C752 C751 1.459 . S
C752 C753 1.445 . S
C752 C761 1.395 . S
C753 C731 1.432 . S
C753 C752 1.445 . S
C753 C754 1.370 . S
C754 C753 1.370 . S
C754 C755 1.438 . S
C754 H816 0.930 . S
C755 C741 1.497 . S
C755 C754 1.438 . S
C755 C756 1.360 . S
C756 C755 1.360 . S
C756 C757 1.401 . S
C756 C761 1.446 . S
C757 C756 1.401 . S
C757 C758 1.347 . S
C757 H817 0.929 . S
C758 C757 1.347 . S
C758 C759 1.455 . S
C758 H818 0.930 . S
C759 C746 1.412 . S
C759 C758 1.455 . S
C759 C760 1.331 . S
C760 C749 1.451 . S
C760 C759 1.331 . S
C760 C761 1.497 . S
C761 C752 1.395 . S
C761 C756 1.446 . S
C761 C760 1.497 . S
C762 C763 1.582 . S
C762 H819 0.962 . S
C762 H820 0.959 . S
C762 H821 0.958 . S
C763 C762 1.582 . S
C763 O766 1.458 . S
C763 H792 0.980 . S
O764 C709 1.426 . S
O764 C710 1.334 . S
O765 C737 1.412 . S
O765 C738 1.393 . S
O766 C728 1.435 . S
O766 C763 1.458 . S
O767 C719 1.468 . S
O767 C720 1.408 . S
H768 C709 0.980 . S
H769 C708 0.959 . S
H770 C708 0.959 . S
H771 C708 0.960 . S
H772 C711 0.929 . S
H773 C715 0.929 . S
H774 C716 0.959 . S
H775 C716 0.961 . S
H776 C716 0.961 . S
H777 C717 0.960 . S
H778 C717 0.960 . S
H779 C717 0.961 . S
H780 C719 0.980 . S
H781 C718 0.961 . S
H782 C718 0.960 . S
H783 C718 0.959 . S
H784 C721 0.930 . S
H785 C725 0.931 . S
H786 C726 0.959 . S
H787 C726 0.961 . S
H788 C726 0.959 . S
H789 C727 0.960 . S
H790 C727 0.960 . S
H791 C727 0.960 . S
H792 C763 0.980 . S
H793 C729 0.930 . S
H794 C733 0.930 . S
H795 C734 0.961 . S
H796 C734 0.960 . S
H797 C734 0.958 . S
H798 C735 0.961 . S
H799 C735 0.960 . S
H800 C735 0.960 . S
H801 C737 0.980 . S
H802 C736 0.961 . S
H803 C736 0.961 . S
H804 C736 0.959 . S
H805 C739 0.932 . S
H806 C743 0.929 . S
H807 C744 0.961 . S
H808 C744 0.959 . S
H809 C744 0.959 . S
H810 C745 0.960 . S
H811 C745 0.962 . S
H812 C745 0.961 . S
H813 C747 0.929 . S
H814 C750 0.930 . S
H815 C751 0.929 . S
H816 C754 0.930 . S
H817 C757 0.929 . S
H818 C758 0.930 . S
H819 C762 0.962 . S
H820 C762 0.959 . S
H821 C762 0.958 . S
H822 C834 0.930 . S
H823 C836 0.930 . S
H824 C837 0.930 . S
H825 C841 0.959 . S
H826 C841 0.959 . S
H827 C841 0.961 . S
H828 C842 0.960 . S
H829 C842 0.961 . S
H830 C842 0.959 . S
H831 C845 0.929 . S
H832 C846 0.931 . S
H833 C848 0.930 . S
C834 H822 0.930 . S
C834 C835 1.399 . S
C834 C839 1.399 . S
C835 C834 1.399 . S
C835 C836 1.376 . S
C836 H823 0.930 . S
C836 C835 1.376 . S
C836 C837 1.388 . S
C837 H824 0.930 . S
C837 C836 1.388 . S
C837 C838 1.390 . S
C838 C837 1.390 . S
C838 C839 1.394 . S
C838 C844 1.465 . S
C839 C834 1.399 . S
C839 C838 1.394 . S
C839 C840 1.516 . S
C840 C839 1.516 . S
C840 C841 1.502 . S
C840 C842 1.561 . S
C840 C843 1.526 . S
C841 H825 0.959 . S
C841 H826 0.959 . S
C841 H827 0.961 . S
C841 C840 1.502 . S
C842 H828 0.960 . S
C842 H829 0.961 . S
C842 H830 0.959 . S
C842 C840 1.561 . S
C843 C840 1.526 . S
C843 C844 1.396 . S
C843 C848 1.390 . S
C844 C838 1.465 . S
C844 C843 1.396 . S
C844 C845 1.399 . S
C845 H831 0.929 . S
C845 C844 1.399 . S
C845 C846 1.385 . S
C846 H832 0.931 . S
C846 C845 1.385 . S
C846 C847 1.389 . S
C847 C846 1.389 . S
C847 C848 1.387 . S
C848 H833 0.930 . S
C848 C843 1.390 . S
C848 C847 1.387 . S
H849 C861 0.930 . S
H850 C863 0.930 . S
H851 C864 0.930 . S
H852 C868 0.959 . S
H853 C868 0.959 . S
H854 C868 0.961 . S
H855 C869 0.960 . S
H856 C869 0.961 . S
H857 C869 0.959 . S
H858 C872 0.929 . S
H859 C873 0.931 . S
H860 C875 0.930 . S
C861 H849 0.930 . S
C861 C862 1.399 . S
C861 C866 1.399 . S
C862 C861 1.399 . S
C862 C863 1.376 . S
C863 H850 0.930 . S
C863 C862 1.376 . S
C863 C864 1.388 . S
C864 H851 0.930 . S
C864 C863 1.388 . S
C864 C865 1.390 . S
C865 C864 1.390 . S
C865 C866 1.394 . S
C865 C871 1.465 . S
C866 C861 1.399 . S
C866 C865 1.394 . S
C866 C867 1.516 . S
C867 C866 1.516 . S
C867 C868 1.502 . S
C867 C869 1.561 . S
C867 C870 1.526 . S
C868 H852 0.959 . S
C868 H853 0.959 . S
C868 H854 0.961 . S
C868 C867 1.502 . S
C869 H855 0.960 . S
C869 H856 0.961 . S
C869 H857 0.959 . S
C869 C867 1.561 . S
C870 C867 1.526 . S
C870 C871 1.396 . S
C870 C875 1.390 . S
C871 C865 1.465 . S
C871 C870 1.396 . S
C871 C872 1.399 . S
C872 H858 0.929 . S
C872 C871 1.399 . S
C872 C873 1.385 . S
C873 H859 0.931 . S
C873 C872 1.385 . S
C873 C874 1.389 . S
C874 C873 1.389 . S
C874 C875 1.387 . S
C875 H860 0.930 . S
C875 C870 1.390 . S
C875 C874 1.387 . S
H876 C888 0.930 . S
H877 C890 0.930 . S
H878 C891 0.930 . S
H879 C895 0.959 . S
H880 C895 0.959 . S
H881 C895 0.961 . S
H882 C896 0.960 . S
H883 C896 0.961 . S
H884 C896 0.959 . S
H885 C899 0.929 . S
H886 C900 0.931 . S
H887 C902 0.930 . S
C888 H876 0.930 . S
C888 C889 1.399 . S
C888 C893 1.399 . S
C889 C888 1.399 . S
C889 C890 1.376 . S
C890 H877 0.930 . S
C890 C889 1.376 . S
C890 C891 1.388 . S
C891 H878 0.930 . S
C891 C890 1.388 . S
C891 C892 1.390 . S
C892 C891 1.390 . S
C892 C893 1.394 . S
C892 C898 1.465 . S
C893 C888 1.399 . S
C893 C892 1.394 . S
C893 C894 1.516 . S
C894 C893 1.516 . S
C894 C895 1.502 . S
C894 C896 1.561 . S
C894 C897 1.526 . S
C895 H879 0.959 . S
C895 H880 0.959 . S
C895 H881 0.961 . S
C895 C894 1.502 . S
C896 H882 0.960 . S
C896 H883 0.961 . S
C896 H884 0.959 . S
C896 C894 1.561 . S
C897 C894 1.526 . S
C897 C898 1.396 . S
C897 C902 1.390 . S
C898 C892 1.465 . S
C898 C897 1.396 . S
C898 C899 1.399 . S
C899 H885 0.929 . S
C899 C898 1.399 . S
C899 C900 1.385 . S
C900 H886 0.931 . S
C900 C899 1.385 . S
C900 C901 1.389 . S
C901 C900 1.389 . S
C901 C902 1.387 . S
C902 H887 0.930 . S
C902 C897 1.390 . S
C902 C901 1.387 . S
H903 C915 0.930 . S
H904 C917 0.930 . S
H905 C918 0.930 . S
H906 C922 0.959 . S
H907 C922 0.959 . S
H908 C922 0.961 . S
H909 C923 0.960 . S
H910 C923 0.961 . S
H911 C923 0.959 . S
H912 C926 0.929 . S
H913 C927 0.931 . S
H914 C929 0.930 . S
C915 H903 0.930 . S
C915 C916 1.399 . S
C915 C920 1.399 . S
C916 C915 1.399 . S
C916 C917 1.376 . S
C917 H904 0.930 . S
C917 C916 1.376 . S
C917 C918 1.388 . S
C918 H905 0.930 . S
C918 C917 1.388 . S
C918 C919 1.390 . S
C919 C918 1.390 . S
C919 C920 1.394 . S
C919 C925 1.465 . S
C920 C915 1.399 . S
C920 C919 1.394 . S
C920 C921 1.516 . S
C921 C920 1.516 . S
C921 C922 1.502 . S
C921 C923 1.561 . S
C921 C924 1.526 . S
C922 H906 0.959 . S
C922 H907 0.959 . S
C922 H908 0.961 . S
C922 C921 1.502 . S
C923 H909 0.960 . S
C923 H910 0.961 . S
C923 H911 0.959 . S
C923 C921 1.561 . S
C924 C921 1.526 . S
C924 C925 1.396 . S
C924 C929 1.390 . S
C925 C919 1.465 . S
C925 C924 1.396 . S
C925 C926 1.399 . S
C926 H912 0.929 . S
C926 C925 1.399 . S
C926 C927 1.385 . S
C927 H913 0.931 . S
C927 C926 1.385 . S
C927 C928 1.389 . S
C928 C927 1.389 . S
C928 C929 1.387 . S
C929 H914 0.930 . S
C929 C924 1.390 . S
C929 C928 1.387 . S
H930 C942 0.930 . S
H931 C944 0.930 . S
H932 C945 0.930 . S
H933 C949 0.959 . S
H934 C949 0.959 . S
H935 C949 0.961 . S
H936 C950 0.960 . S
H937 C950 0.961 . S
H938 C950 0.959 . S
H939 C953 0.929 . S
H940 C954 0.931 . S
H941 C956 0.930 . S
C942 H930 0.930 . S
C942 C943 1.399 . S
C942 C947 1.399 . S
C943 C942 1.399 . S
C943 C944 1.376 . S
C944 H931 0.930 . S
C944 C943 1.376 . S
C944 C945 1.388 . S
C945 H932 0.930 . S
C945 C944 1.388 . S
C945 C946 1.390 . S
C946 C945 1.390 . S
C946 C947 1.394 . S
C946 C952 1.465 . S
C947 C942 1.399 . S
C947 C946 1.394 . S
C947 C948 1.516 . S
C948 C947 1.516 . S
C948 C949 1.502 . S
C948 C950 1.561 . S
C948 C951 1.526 . S
C949 H933 0.959 . S
C949 H934 0.959 . S
C949 H935 0.961 . S
C949 C948 1.502 . S
C950 H936 0.960 . S
C950 H937 0.961 . S
C950 H938 0.959 . S
C950 C948 1.561 . S
C951 C948 1.526 . S
C951 C952 1.396 . S
C951 C956 1.390 . S
C952 C946 1.465 . S
C952 C951 1.396 . S
C952 C953 1.399 . S
C953 H939 0.929 . S
C953 C952 1.399 . S
C953 C954 1.385 . S
C954 H940 0.931 . S
C954 C953 1.385 . S
C954 C955 1.389 . S
C955 C954 1.389 . S
C955 C956 1.387 . S
C956 H941 0.930 . S
C956 C951 1.390 . S
C956 C955 1.387 . S
H957 C969 0.930 . S
H958 C971 0.930 . S
H959 C972 0.930 . S
H960 C976 0.959 . S
H961 C976 0.959 . S
H962 C976 0.961 . S
H963 C977 0.960 . S
H964 C977 0.961 . S
H965 C977 0.959 . S
H966 C980 0.929 . S
H967 C981 0.931 . S
H968 C983 0.930 . S
C969 H957 0.930 . S
C969 C970 1.399 . S
C969 C974 1.399 . S
C970 C969 1.399 . S
C970 C971 1.376 . S
C971 H958 0.930 . S
C971 C970 1.376 . S
C971 C972 1.388 . S
C972 H959 0.930 . S
C972 C971 1.388 . S
C972 C973 1.390 . S
C973 C972 1.390 . S
C973 C974 1.394 . S
C973 C979 1.465 . S
C974 C969 1.399 . S
C974 C973 1.394 . S
C974 C975 1.516 . S
C975 C974 1.516 . S
C975 C976 1.502 . S
C975 C977 1.561 . S
C975 C978 1.526 . S
C976 H960 0.959 . S
C976 H961 0.959 . S
C976 H962 0.961 . S
C976 C975 1.502 . S
C977 H963 0.960 . S
C977 H964 0.961 . S
C977 H965 0.959 . S
C977 C975 1.561 . S
C978 C975 1.526 . S
C978 C979 1.396 . S
C978 C983 1.390 . S
C979 C973 1.465 . S
C979 C978 1.396 . S
C979 C980 1.399 . S
C980 H966 0.929 . S
C980 C979 1.399 . S
C980 C981 1.385 . S
C981 H967 0.931 . S
C981 C980 1.385 . S
C981 C982 1.389 . S
C982 C981 1.389 . S
C982 C983 1.387 . S
C983 H968 0.930 . S
C983 C978 1.390 . S
C983 C982 1.387 . S
H984 C996 0.930 . S
H985 C998 0.930 . S
H986 C999 0.930 . S
H987 C1003 0.959 . S
H988 C1003 0.959 . S
H989 C1003 0.961 . S
H990 C1004 0.960 . S
H991 C1004 0.961 . S
H992 C1004 0.959 . S
H993 C1007 0.929 . S
H994 C1008 0.931 . S
H995 C1010 0.930 . S
C996 H984 0.930 . S
C996 C997 1.399 . S
C996 C1001 1.399 . S
C997 C996 1.399 . S
C997 C998 1.376 . S
C998 H985 0.930 . S
C998 C997 1.376 . S
C998 C999 1.388 . S
C999 H986 0.930 . S
C999 C998 1.388 . S
C999 C1000 1.390 . S
C1000 C999 1.390 . S
C1000 C1001 1.394 . S
C1000 C1006 1.465 . S
C1001 C996 1.399 . S
C1001 C1000 1.394 . S
C1001 C1002 1.516 . S
C1002 C1001 1.516 . S
C1002 C1003 1.502 . S
C1002 C1004 1.561 . S
C1002 C1005 1.526 . S
C1003 H987 0.959 . S
C1003 H988 0.959 . S
C1003 H989 0.961 . S
C1003 C1002 1.502 . S
C1004 H990 0.960 . S
C1004 H991 0.961 . S
C1004 H992 0.959 . S
C1004 C1002 1.561 . S
C1005 C1002 1.526 . S
C1005 C1006 1.396 . S
C1005 C1010 1.390 . S
C1006 C1000 1.465 . S
C1006 C1005 1.396 . S
C1006 C1007 1.399 . S
C1007 H993 0.929 . S
C1007 C1006 1.399 . S
C1007 C1008 1.385 . S
C1008 H994 0.931 . S
C1008 C1007 1.385 . S
C1008 C1009 1.389 . S
C1009 C1008 1.389 . S
C1009 C1010 1.387 . S
C1010 H995 0.930 . S
C1010 C1005 1.390 . S
C1010 C1009 1.387 . S
H1011 C1023 0.930 . S
H1012 C1025 0.930 . S
H1013 C1026 0.930 . S
H1014 C1030 0.959 . S
H1015 C1030 0.959 . S
H1016 C1030 0.961 . S
H1017 C1031 0.960 . S
H1018 C1031 0.961 . S
H1019 C1031 0.959 . S
H1020 C1034 0.929 . S
H1021 C1035 0.931 . S
H1022 C1037 0.930 . S
C1023 H1011 0.930 . S
C1023 C1024 1.399 . S
C1023 C1028 1.399 . S
C1024 C1023 1.399 . S
C1024 C1025 1.376 . S
C1025 H1012 0.930 . S
C1025 C1024 1.376 . S
C1025 C1026 1.388 . S
C1026 H1013 0.930 . S
C1026 C1025 1.388 . S
C1026 C1027 1.390 . S
C1027 C1026 1.390 . S
C1027 C1028 1.394 . S
C1027 C1033 1.465 . S
C1028 C1023 1.399 . S
C1028 C1027 1.394 . S
C1028 C1029 1.516 . S
C1029 C1028 1.516 . S
C1029 C1030 1.502 . S
C1029 C1031 1.561 . S
C1029 C1032 1.526 . S
C1030 H1014 0.959 . S
C1030 H1015 0.959 . S
C1030 H1016 0.961 . S
C1030 C1029 1.502 . S
C1031 H1017 0.960 . S
C1031 H1018 0.961 . S
C1031 H1019 0.959 . S
C1031 C1029 1.561 . S
C1032 C1029 1.526 . S
C1032 C1033 1.396 . S
C1032 C1037 1.390 . S
C1033 C1027 1.465 . S
C1033 C1032 1.396 . S
C1033 C1034 1.399 . S
C1034 H1020 0.929 . S
C1034 C1033 1.399 . S
C1034 C1035 1.385 . S
C1035 H1021 0.931 . S
C1035 C1034 1.385 . S
C1035 C1036 1.389 . S
C1036 C1035 1.389 . S
C1036 C1037 1.387 . S
C1037 H1022 0.930 . S
C1037 C1032 1.390 . S
C1037 C1036 1.387 . S
H1038 C1050 0.930 . S
H1039 C1052 0.930 . S
H1040 C1053 0.930 . S
H1041 C1057 0.959 . S
H1042 C1057 0.959 . S
H1043 C1057 0.961 . S
H1044 C1058 0.960 . S
H1045 C1058 0.961 . S
H1046 C1058 0.959 . S
H1047 C1061 0.929 . S
H1048 C1062 0.931 . S
H1049 C1064 0.930 . S
C1050 H1038 0.930 . S
C1050 C1051 1.399 . S
C1050 C1055 1.399 . S
C1051 C1050 1.399 . S
C1051 C1052 1.376 . S
C1052 H1039 0.930 . S
C1052 C1051 1.376 . S
C1052 C1053 1.388 . S
C1053 H1040 0.930 . S
C1053 C1052 1.388 . S
C1053 C1054 1.390 . S
C1054 C1053 1.390 . S
C1054 C1055 1.394 . S
C1054 C1060 1.465 . S
C1055 C1050 1.399 . S
C1055 C1054 1.394 . S
C1055 C1056 1.516 . S
C1056 C1055 1.516 . S
C1056 C1057 1.502 . S
C1056 C1058 1.561 . S
C1056 C1059 1.526 . S
C1057 H1041 0.959 . S
C1057 H1042 0.959 . S
C1057 H1043 0.961 . S
C1057 C1056 1.502 . S
C1058 H1044 0.960 . S
C1058 H1045 0.961 . S
C1058 H1046 0.959 . S
C1058 C1056 1.561 . S
C1059 C1056 1.526 . S
C1059 C1060 1.396 . S
C1059 C1064 1.390 . S
C1060 C1054 1.465 . S
C1060 C1059 1.396 . S
C1060 C1061 1.399 . S
C1061 H1047 0.929 . S
C1061 C1060 1.399 . S
C1061 C1062 1.385 . S
C1062 H1048 0.931 . S
C1062 C1061 1.385 . S
C1062 C1063 1.389 . S
C1063 C1062 1.389 . S
C1063 C1064 1.387 . S
C1064 H1049 0.930 . S
C1064 C1059 1.390 . S
C1064 C1063 1.387 . S
H1065 C1077 0.930 . S
H1066 C1079 0.930 . S
H1067 C1080 0.930 . S
H1068 C1084 0.959 . S
H1069 C1084 0.959 . S
H1070 C1084 0.961 . S
H1071 C1085 0.960 . S
H1072 C1085 0.961 . S
H1073 C1085 0.959 . S
H1074 C1088 0.929 . S
H1075 C1089 0.931 . S
H1076 C1091 0.930 . S
C1077 H1065 0.930 . S
C1077 C1078 1.399 . S
C1077 C1082 1.399 . S
C1078 C1077 1.399 . S
C1078 C1079 1.376 . S
C1079 H1066 0.930 . S
C1079 C1078 1.376 . S
C1079 C1080 1.388 . S
C1080 H1067 0.930 . S
C1080 C1079 1.388 . S
C1080 C1081 1.390 . S
C1081 C1080 1.390 . S
C1081 C1082 1.394 . S
C1081 C1087 1.465 . S
C1082 C1077 1.399 . S
C1082 C1081 1.394 . S
C1082 C1083 1.516 . S
C1083 C1082 1.516 . S
C1083 C1084 1.502 . S
C1083 C1085 1.561 . S
C1083 C1086 1.526 . S
C1084 H1068 0.959 . S
C1084 H1069 0.959 . S
C1084 H1070 0.961 . S
C1084 C1083 1.502 . S
C1085 H1071 0.960 . S
C1085 H1072 0.961 . S
C1085 H1073 0.959 . S
C1085 C1083 1.561 . S
C1086 C1083 1.526 . S
C1086 C1087 1.396 . S
C1086 C1091 1.390 . S
C1087 C1081 1.465 . S
C1087 C1086 1.396 . S
C1087 C1088 1.399 . S
C1088 H1074 0.929 . S
C1088 C1087 1.399 . S
C1088 C1089 1.385 . S
C1089 H1075 0.931 . S
C1089 C1088 1.385 . S
C1089 C1090 1.389 . S
C1090 C1089 1.389 . S
C1090 C1091 1.387 . S
C1091 H1076 0.930 . S
C1091 C1086 1.390 . S
C1091 C1090 1.387 . S
H1092 C1104 0.930 . S
H1093 C1106 0.930 . S
H1094 C1107 0.930 . S
H1095 C1111 0.959 . S
H1096 C1111 0.959 . S
H1097 C1111 0.961 . S
H1098 C1112 0.960 . S
H1099 C1112 0.961 . S
H1100 C1112 0.959 . S
H1101 C1115 0.929 . S
H1102 C1116 0.931 . S
H1103 C1118 0.930 . S
C1104 H1092 0.930 . S
C1104 C1105 1.399 . S
C1104 C1109 1.399 . S
C1105 C1104 1.399 . S
C1105 C1106 1.376 . S
C1106 H1093 0.930 . S
C1106 C1105 1.376 . S
C1106 C1107 1.388 . S
C1107 H1094 0.930 . S
C1107 C1106 1.388 . S
C1107 C1108 1.390 . S
C1108 C1107 1.390 . S
C1108 C1109 1.394 . S
C1108 C1114 1.465 . S
C1109 C1104 1.399 . S
C1109 C1108 1.394 . S
C1109 C1110 1.516 . S
C1110 C1109 1.516 . S
C1110 C1111 1.502 . S
C1110 C1112 1.561 . S
C1110 C1113 1.526 . S
C1111 H1095 0.959 . S
C1111 H1096 0.959 . S
C1111 H1097 0.961 . S
C1111 C1110 1.502 . S
C1112 H1098 0.960 . S
C1112 H1099 0.961 . S
C1112 H1100 0.959 . S
C1112 C1110 1.561 . S
C1113 C1110 1.526 . S
C1113 C1114 1.396 . S
C1113 C1118 1.390 . S
C1114 C1108 1.465 . S
C1114 C1113 1.396 . S
C1114 C1115 1.399 . S
C1115 H1101 0.929 . S
C1115 C1114 1.399 . S
C1115 C1116 1.385 . S
C1116 H1102 0.931 . S
C1116 C1115 1.385 . S
C1116 C1117 1.389 . S
C1117 C1116 1.389 . S
C1117 C1118 1.387 . S
C1118 H1103 0.930 . S
C1118 C1113 1.390 . S
C1118 C1117 1.387 . S
H1119 C1131 0.930 . S
H1120 C1133 0.930 1_455 S
H1121 C1134 0.930 . S
H1122 C1138 0.959 . S
H1123 C1138 0.959 . S
H1124 C1138 0.961 . S
H1125 C1139 0.960 . S
H1126 C1139 0.961 . S
H1127 C1139 0.959 . S
H1128 C1142 0.929 . S
H1129 C1143 0.931 . S
H1130 C1145 0.930 . S
C1131 H1119 0.930 . S
C1131 C1132 1.399 . S
C1131 C1136 1.399 . S
C1132 C1131 1.399 . S
C1132 C1133 1.376 . S
C1133 H1120 0.930 1_655 S
C1133 C1132 1.376 . S
C1133 C1134 1.388 . S
C1134 H1121 0.930 . S
C1134 C1133 1.388 . S
C1134 C1135 1.390 . S
C1135 C1134 1.390 . S
C1135 C1136 1.394 . S
C1135 C1141 1.465 . S
C1136 C1131 1.399 . S
C1136 C1135 1.394 . S
C1136 C1137 1.516 . S
C1137 C1136 1.516 . S
C1137 C1138 1.502 . S
C1137 C1139 1.561 . S
C1137 C1140 1.526 . S
C1138 H1122 0.959 . S
C1138 H1123 0.959 . S
C1138 H1124 0.961 . S
C1138 C1137 1.502 . S
C1139 H1125 0.960 . S
C1139 H1126 0.961 . S
C1139 H1127 0.959 . S
C1139 C1137 1.561 . S
C1140 C1137 1.526 . S
C1140 C1141 1.396 . S
C1140 C1145 1.390 . S
C1141 C1135 1.465 . S
C1141 C1140 1.396 . S
C1141 C1142 1.399 . S
C1142 H1128 0.929 . S
C1142 C1141 1.399 . S
C1142 C1143 1.385 . S
C1143 H1129 0.931 . S
C1143 C1142 1.385 . S
C1143 C1144 1.389 . S
C1144 C1143 1.389 . S
C1144 C1145 1.387 . S
C1145 H1130 0.930 . S
C1145 C1140 1.390 . S
C1145 C1144 1.387 . S
H1146 C1158 0.930 . S
H1147 C1160 0.930 . S
H1148 C1161 0.930 . S
H1149 C1165 0.959 1_655 S
H1150 C1165 0.959 . S
H1151 C1165 0.961 . S
H1152 C1166 0.960 . S
H1153 C1166 0.961 . S
H1154 C1166 0.959 . S
H1155 C1169 0.929 . S
H1156 C1170 0.931 . S
H1157 C1172 0.930 . S
C1158 H1146 0.930 . S
C1158 C1159 1.399 1_455 S
C1158 C1163 1.399 1_455 S
C1159 C1158 1.399 1_655 S
C1159 C1160 1.376 . S
C1160 H1147 0.930 . S
C1160 C1159 1.376 . S
C1160 C1161 1.388 . S
C1161 H1148 0.930 . S
C1161 C1160 1.388 . S
C1161 C1162 1.390 . S
C1162 C1161 1.390 . S
C1162 C1163 1.394 . S
C1162 C1168 1.465 . S
C1163 C1158 1.399 1_655 S
C1163 C1162 1.394 . S
C1163 C1164 1.516 . S
C1164 C1163 1.516 . S
C1164 C1165 1.502 1_655 S
C1164 C1166 1.561 1_655 S
C1164 C1167 1.526 . S
C1165 H1149 0.959 1_455 S
C1165 H1150 0.959 . S
C1165 H1151 0.961 . S
C1165 C1164 1.502 1_455 S
C1166 H1152 0.960 . S
C1166 H1153 0.961 . S
C1166 H1154 0.959 . S
C1166 C1164 1.561 1_455 S
C1167 C1164 1.526 . S
C1167 C1168 1.396 . S
C1167 C1172 1.390 . S
C1168 C1162 1.465 . S
C1168 C1167 1.396 . S
C1168 C1169 1.399 . S
C1169 H1155 0.929 . S
C1169 C1168 1.399 . S
C1169 C1170 1.385 . S
C1170 H1156 0.931 . S
C1170 C1169 1.385 . S
C1170 C1171 1.389 . S
C1171 C1170 1.389 . S
C1171 C1172 1.387 . S
C1172 H1157 0.930 . S
C1172 C1167 1.390 . S
C1172 C1171 1.387 . S
H1173 C1185 0.930 . S
H1174 C1187 0.930 . S
H1175 C1188 0.930 . S
H1176 C1192 0.959 . S
H1177 C1192 0.959 . S
H1178 C1192 0.961 . S
H1179 C1193 0.960 . S
H1180 C1193 0.961 . S
H1181 C1193 0.959 . S
H1182 C1196 0.929 . S
H1183 C1197 0.931 . S
H1184 C1199 0.930 . S
C1185 H1173 0.930 . S
C1185 C1186 1.399 . S
C1185 C1190 1.399 . S
C1186 C1185 1.399 . S
C1186 C1187 1.376 . S
C1187 H1174 0.930 . S
C1187 C1186 1.376 . S
C1187 C1188 1.388 . S
C1188 H1175 0.930 . S
C1188 C1187 1.388 . S
C1188 C1189 1.390 . S
C1189 C1188 1.390 . S
C1189 C1190 1.394 . S
C1189 C1195 1.465 . S
C1190 C1185 1.399 . S
C1190 C1189 1.394 . S
C1190 C1191 1.516 . S
C1191 C1190 1.516 . S
C1191 C1192 1.502 . S
C1191 C1193 1.561 . S
C1191 C1194 1.526 . S
C1192 H1176 0.959 . S
C1192 H1177 0.959 . S
C1192 H1178 0.961 . S
C1192 C1191 1.502 . S
C1193 H1179 0.960 . S
C1193 H1180 0.961 . S
C1193 H1181 0.959 . S
C1193 C1191 1.561 . S
C1194 C1191 1.526 . S
C1194 C1195 1.396 . S
C1194 C1199 1.390 . S
C1195 C1189 1.465 . S
C1195 C1194 1.396 . S
C1195 C1196 1.399 . S
C1196 H1182 0.929 . S
C1196 C1195 1.399 . S
C1196 C1197 1.385 . S
C1197 H1183 0.931 . S
C1197 C1196 1.385 . S
C1197 C1198 1.389 . S
C1198 C1197 1.389 . S
C1198 C1199 1.387 . S
C1199 H1184 0.930 . S
C1199 C1194 1.390 . S
C1199 C1198 1.387 . S
H1200 C1212 0.930 . S
H1201 C1214 0.930 . S
H1202 C1215 0.930 . S
H1203 C1219 0.959 . S
H1204 C1219 0.959 . S
H1205 C1219 0.961 . S
H1206 C1220 0.960 . S
H1207 C1220 0.961 . S
H1208 C1220 0.959 . S
H1209 C1223 0.929 . S
H1210 C1224 0.931 . S
H1211 C1226 0.930 . S
C1212 H1200 0.930 . S
C1212 C1213 1.399 . S
C1212 C1217 1.399 . S
C1213 C1212 1.399 . S
C1213 C1214 1.376 . S
C1214 H1201 0.930 . S
C1214 C1213 1.376 . S
C1214 C1215 1.388 . S
C1215 H1202 0.930 . S
C1215 C1214 1.388 . S
C1215 C1216 1.390 . S
C1216 C1215 1.390 . S
C1216 C1217 1.394 . S
C1216 C1222 1.465 . S
C1217 C1212 1.399 . S
C1217 C1216 1.394 . S
C1217 C1218 1.516 . S
C1218 C1217 1.516 . S
C1218 C1219 1.502 . S
C1218 C1220 1.561 . S
C1218 C1221 1.526 . S
C1219 H1203 0.959 . S
C1219 H1204 0.959 . S
C1219 H1205 0.961 . S
C1219 C1218 1.502 . S
C1220 H1206 0.960 . S
C1220 H1207 0.961 . S
C1220 H1208 0.959 . S
C1220 C1218 1.561 . S
C1221 C1218 1.526 . S
C1221 C1222 1.396 . S
C1221 C1226 1.390 . S
C1222 C1216 1.465 . S
C1222 C1221 1.396 . S
C1222 C1223 1.399 . S
C1223 H1209 0.929 . S
C1223 C1222 1.399 . S
C1223 C1224 1.385 . S
C1224 H1210 0.931 . S
C1224 C1223 1.385 . S
C1224 C1225 1.389 . S
C1225 C1224 1.389 . S
C1225 C1226 1.387 . S
C1226 H1211 0.930 . S
C1226 C1221 1.390 . S
C1226 C1225 1.387 . S
H1227 C1239 0.930 . S
H1228 C1241 0.930 . S
H1229 C1242 0.930 . S
H1230 C1246 0.959 . S
H1231 C1246 0.959 . S
H1232 C1246 0.961 . S
H1233 C1247 0.960 . S
H1234 C1247 0.961 . S
H1235 C1247 0.959 . S
H1236 C1250 0.929 . S
H1237 C1251 0.931 . S
H1238 C1253 0.930 . S
C1239 H1227 0.930 . S
C1239 C1240 1.399 . S
C1239 C1244 1.399 . S
C1240 C1239 1.399 . S
C1240 C1241 1.376 . S
C1241 H1228 0.930 . S
C1241 C1240 1.376 . S
C1241 C1242 1.388 . S
C1242 H1229 0.930 . S
C1242 C1241 1.388 . S
C1242 C1243 1.390 . S
C1243 C1242 1.390 . S
C1243 C1244 1.394 . S
C1243 C1249 1.465 . S
C1244 C1239 1.399 . S
C1244 C1243 1.394 . S
C1244 C1245 1.516 . S
C1245 C1244 1.516 . S
C1245 C1246 1.502 . S
C1245 C1247 1.561 . S
C1245 C1248 1.526 . S
C1246 H1230 0.959 . S
C1246 H1231 0.959 . S
C1246 H1232 0.961 . S
C1246 C1245 1.502 . S
C1247 H1233 0.960 . S
C1247 H1234 0.961 . S
C1247 H1235 0.959 . S
C1247 C1245 1.561 . S
C1248 C1245 1.526 . S
C1248 C1249 1.396 . S
C1248 C1253 1.390 . S
C1249 C1243 1.465 . S
C1249 C1248 1.396 . S
C1249 C1250 1.399 . S
C1250 H1236 0.929 . S
C1250 C1249 1.399 . S
C1250 C1251 1.385 . S
C1251 H1237 0.931 . S
C1251 C1250 1.385 . S
C1251 C1252 1.389 . S
C1252 C1251 1.389 . S
C1252 C1253 1.387 . S
C1253 H1238 0.930 . S
C1253 C1248 1.390 . S
C1253 C1252 1.387 . S
H1254 C1266 0.930 . S
H1255 C1268 0.930 . S
H1256 C1269 0.930 . S
H1257 C1273 0.959 . S
H1258 C1273 0.959 . S
H1259 C1273 0.961 . S
H1260 C1274 0.960 . S
H1261 C1274 0.961 . S
H1262 C1274 0.959 . S
H1263 C1277 0.929 . S
H1264 C1278 0.931 . S
H1265 C1280 0.930 . S
C1266 H1254 0.930 . S
C1266 C1267 1.399 . S
C1266 C1271 1.399 . S
C1267 C1266 1.399 . S
C1267 C1268 1.376 . S
C1268 H1255 0.930 . S
C1268 C1267 1.376 . S
C1268 C1269 1.388 . S
C1269 H1256 0.930 . S
C1269 C1268 1.388 . S
C1269 C1270 1.390 . S
C1270 C1269 1.390 . S
C1270 C1271 1.394 . S
C1270 C1276 1.465 . S
C1271 C1266 1.399 . S
C1271 C1270 1.394 . S
C1271 C1272 1.516 . S
C1272 C1271 1.516 . S
C1272 C1273 1.502 . S
C1272 C1274 1.561 . S
C1272 C1275 1.526 . S
C1273 H1257 0.959 . S
C1273 H1258 0.959 . S
C1273 H1259 0.961 . S
C1273 C1272 1.502 . S
C1274 H1260 0.960 . S
C1274 H1261 0.961 . S
C1274 H1262 0.959 . S
C1274 C1272 1.561 . S
C1275 C1272 1.526 . S
C1275 C1276 1.396 . S
C1275 C1280 1.390 . S
C1276 C1270 1.465 . S
C1276 C1275 1.396 . S
C1276 C1277 1.399 . S
C1277 H1263 0.929 . S
C1277 C1276 1.399 . S
C1277 C1278 1.385 . S
C1278 H1264 0.931 . S
C1278 C1277 1.385 . S
C1278 C1279 1.389 . S
C1279 C1278 1.389 . S
C1279 C1280 1.387 . S
C1280 H1265 0.930 . S
C1280 C1275 1.390 . S
C1280 C1279 1.387 . S
H1281 C1293 0.930 . S
H1282 C1295 0.930 . S
H1283 C1296 0.930 . S
H1284 C1300 0.959 . S
H1285 C1300 0.959 . S
H1286 C1300 0.961 . S
H1287 C1301 0.960 . S
H1288 C1301 0.961 . S
H1289 C1301 0.959 . S
H1290 C1304 0.929 . S
H1291 C1305 0.931 . S
H1292 C1307 0.930 . S
C1293 H1281 0.930 . S
C1293 C1294 1.399 . S
C1293 C1298 1.399 . S
C1294 C1293 1.399 . S
C1294 C1295 1.376 . S
C1295 H1282 0.930 . S
C1295 C1294 1.376 . S
C1295 C1296 1.388 . S
C1296 H1283 0.930 . S
C1296 C1295 1.388 . S
C1296 C1297 1.390 . S
C1297 C1296 1.390 . S
C1297 C1298 1.394 . S
C1297 C1303 1.465 . S
C1298 C1293 1.399 . S
C1298 C1297 1.394 . S
C1298 C1299 1.516 . S
C1299 C1298 1.516 . S
C1299 C1300 1.502 . S
C1299 C1301 1.561 . S
C1299 C1302 1.526 . S
C1300 H1284 0.959 . S
C1300 H1285 0.959 . S
C1300 H1286 0.961 . S
C1300 C1299 1.502 . S
C1301 H1287 0.960 . S
C1301 H1288 0.961 . S
C1301 H1289 0.959 . S
C1301 C1299 1.561 . S
C1302 C1299 1.526 . S
C1302 C1303 1.396 . S
C1302 C1307 1.390 . S
C1303 C1297 1.465 . S
C1303 C1302 1.396 . S
C1303 C1304 1.399 . S
C1304 H1290 0.929 . S
C1304 C1303 1.399 . S
C1304 C1305 1.385 . S
C1305 H1291 0.931 . S
C1305 C1304 1.385 . S
C1305 C1306 1.389 . S
C1306 C1305 1.389 . S
C1306 C1307 1.387 . S
C1307 H1292 0.930 . S
C1307 C1302 1.390 . S
C1307 C1306 1.387 . S
H1308 C1320 0.930 . S
H1309 C1322 0.930 . S
H1310 C1323 0.930 . S
H1311 C1327 0.959 . S
H1312 C1327 0.959 . S
H1313 C1327 0.961 . S
H1314 C1328 0.960 . S
H1315 C1328 0.961 . S
H1316 C1328 0.959 . S
H1317 C1331 0.929 . S
H1318 C1332 0.931 . S
H1319 C1334 0.930 . S
C1320 H1308 0.930 . S
C1320 C1321 1.399 . S
C1320 C1325 1.399 . S
C1321 C1320 1.399 . S
C1321 C1322 1.376 . S
C1322 H1309 0.930 . S
C1322 C1321 1.376 . S
C1322 C1323 1.388 . S
C1323 H1310 0.930 . S
C1323 C1322 1.388 . S
C1323 C1324 1.390 . S
C1324 C1323 1.390 . S
C1324 C1325 1.394 . S
C1324 C1330 1.465 . S
C1325 C1320 1.399 . S
C1325 C1324 1.394 . S
C1325 C1326 1.516 . S
C1326 C1325 1.516 . S
C1326 C1327 1.502 . S
C1326 C1328 1.561 . S
C1326 C1329 1.526 . S
C1327 H1311 0.959 . S
C1327 H1312 0.959 . S
C1327 H1313 0.961 . S
C1327 C1326 1.502 . S
C1328 H1314 0.960 . S
C1328 H1315 0.961 . S
C1328 H1316 0.959 . S
C1328 C1326 1.561 . S
C1329 C1326 1.526 . S
C1329 C1330 1.396 . S
C1329 C1334 1.390 . S
C1330 C1324 1.465 . S
C1330 C1329 1.396 . S
C1330 C1331 1.399 . S
C1331 H1317 0.929 . S
C1331 C1330 1.399 . S
C1331 C1332 1.385 . S
C1332 H1318 0.931 . S
C1332 C1331 1.385 . S
C1332 C1333 1.389 . S
C1333 C1332 1.389 . S
C1333 C1334 1.387 . S
C1334 H1319 0.930 . S
C1334 C1329 1.390 . S
C1334 C1333 1.387 . S
H1335 C1347 0.930 . S
H1336 C1349 0.930 . S
H1337 C1350 0.930 . S
H1338 C1354 0.959 . S
H1339 C1354 0.959 . S
H1340 C1354 0.961 . S
H1341 C1355 0.960 . S
H1342 C1355 0.961 . S
H1343 C1355 0.959 . S
H1344 C1358 0.929 . S
H1345 C1359 0.931 . S
H1346 C1361 0.930 . S
C1347 H1335 0.930 . S
C1347 C1348 1.399 . S
C1347 C1352 1.399 . S
C1348 C1347 1.399 . S
C1348 C1349 1.376 . S
C1349 H1336 0.930 . S
C1349 C1348 1.376 . S
C1349 C1350 1.388 . S
C1350 H1337 0.930 . S
C1350 C1349 1.388 . S
C1350 C1351 1.390 . S
C1351 C1350 1.390 . S
C1351 C1352 1.394 . S
C1351 C1357 1.465 . S
C1352 C1347 1.399 . S
C1352 C1351 1.394 . S
C1352 C1353 1.516 . S
C1353 C1352 1.516 . S
C1353 C1354 1.502 . S
C1353 C1355 1.561 . S
C1353 C1356 1.526 . S
C1354 H1338 0.959 . S
C1354 H1339 0.959 . S
C1354 H1340 0.961 . S
C1354 C1353 1.502 . S
C1355 H1341 0.960 . S
C1355 H1342 0.961 . S
C1355 H1343 0.959 . S
C1355 C1353 1.561 . S
C1356 C1353 1.526 . S
C1356 C1357 1.396 . S
C1356 C1361 1.390 . S
C1357 C1351 1.465 . S
C1357 C1356 1.396 . S
C1357 C1358 1.399 . S
C1358 H1344 0.929 . S
C1358 C1357 1.399 . S
C1358 C1359 1.385 . S
C1359 H1345 0.931 . S
C1359 C1358 1.385 . S
C1359 C1360 1.389 . S
C1360 C1359 1.389 . S
C1360 C1361 1.387 . S
C1361 H1346 0.930 . S
C1361 C1356 1.390 . S
C1361 C1360 1.387 . S
H1362 C1374 0.930 . S
H1363 C1376 0.930 . S
H1364 C1377 0.930 . S
H1365 C1381 0.959 . S
H1366 C1381 0.959 . S
H1367 C1381 0.961 . S
H1368 C1382 0.960 . S
H1369 C1382 0.961 . S
H1370 C1382 0.959 . S
H1371 C1385 0.929 . S
H1372 C1386 0.931 . S
H1373 C1388 0.930 . S
C1374 H1362 0.930 . S
C1374 C1375 1.399 . S
C1374 C1379 1.399 . S
C1375 C1374 1.399 . S
C1375 C1376 1.376 . S
C1376 H1363 0.930 . S
C1376 C1375 1.376 . S
C1376 C1377 1.388 . S
C1377 H1364 0.930 . S
C1377 C1376 1.388 . S
C1377 C1378 1.390 . S
C1378 C1377 1.390 . S
C1378 C1379 1.394 . S
C1378 C1384 1.465 . S
C1379 C1374 1.399 . S
C1379 C1378 1.394 . S
C1379 C1380 1.516 . S
C1380 C1379 1.516 . S
C1380 C1381 1.502 . S
C1380 C1382 1.561 . S
C1380 C1383 1.526 . S
C1381 H1365 0.959 . S
C1381 H1366 0.959 . S
C1381 H1367 0.961 . S
C1381 C1380 1.502 . S
C1382 H1368 0.960 . S
C1382 H1369 0.961 . S
C1382 H1370 0.959 . S
C1382 C1380 1.561 . S
C1383 C1380 1.526 . S
C1383 C1384 1.396 . S
C1383 C1388 1.390 . S
C1384 C1378 1.465 . S
C1384 C1383 1.396 . S
C1384 C1385 1.399 . S
C1385 H1371 0.929 . S
C1385 C1384 1.399 . S
C1385 C1386 1.385 . S
C1386 H1372 0.931 . S
C1386 C1385 1.385 . S
C1386 C1387 1.389 . S
C1387 C1386 1.389 . S
C1387 C1388 1.387 . S
C1388 H1373 0.930 . S
C1388 C1383 1.390 . S
C1388 C1387 1.387 . S
H1389 C1401 0.930 . S
H1390 C1403 0.930 1_545 S
H1391 C1404 0.930 . S
H1392 C1408 0.959 . S
H1393 C1408 0.959 . S
H1394 C1408 0.961 . S
H1395 C1409 0.960 . S
H1396 C1409 0.961 . S
H1397 C1409 0.959 . S
H1398 C1412 0.929 . S
H1399 C1413 0.931 . S
H1400 C1415 0.930 . S
C1401 H1389 0.930 . S
C1401 C1402 1.399 . S
C1401 C1406 1.399 . S
C1402 C1401 1.399 . S
C1402 C1403 1.376 . S
C1403 H1390 0.930 1_565 S
C1403 C1402 1.376 . S
C1403 C1404 1.388 . S
C1404 H1391 0.930 . S
C1404 C1403 1.388 . S
C1404 C1405 1.390 . S
C1405 C1404 1.390 . S
C1405 C1406 1.394 . S
C1405 C1411 1.465 . S
C1406 C1401 1.399 . S
C1406 C1405 1.394 . S
C1406 C1407 1.516 . S
C1407 C1406 1.516 . S
C1407 C1408 1.502 . S
C1407 C1409 1.561 . S
C1407 C1410 1.526 . S
C1408 H1392 0.959 . S
C1408 H1393 0.959 . S
C1408 H1394 0.961 . S
C1408 C1407 1.502 . S
C1409 H1395 0.960 . S
C1409 H1396 0.961 . S
C1409 H1397 0.959 . S
C1409 C1407 1.561 . S
C1410 C1407 1.526 . S
C1410 C1411 1.396 . S
C1410 C1415 1.390 . S
C1411 C1405 1.465 . S
C1411 C1410 1.396 . S
C1411 C1412 1.399 . S
C1412 H1398 0.929 . S
C1412 C1411 1.399 . S
C1412 C1413 1.385 . S
C1413 H1399 0.931 . S
C1413 C1412 1.385 . S
C1413 C1414 1.389 . S
C1414 C1413 1.389 . S
C1414 C1415 1.387 . S
C1415 H1400 0.930 . S
C1415 C1410 1.390 . S
C1415 C1414 1.387 . S
H1416 C1428 0.930 . S
H1417 C1430 0.930 . S
H1418 C1431 0.930 . S
H1419 C1435 0.959 . S
H1420 C1435 0.959 . S
H1421 C1435 0.961 . S
H1422 C1436 0.960 . S
H1423 C1436 0.961 . S
H1424 C1436 0.959 . S
H1425 C1439 0.929 . S
H1426 C1440 0.931 . S
H1427 C1442 0.930 . S
C1428 H1416 0.930 . S
C1428 C1429 1.399 . S
C1428 C1433 1.399 . S
C1429 C1428 1.399 . S
C1429 C1430 1.376 . S
C1430 H1417 0.930 . S
C1430 C1429 1.376 . S
C1430 C1431 1.388 . S
C1431 H1418 0.930 . S
C1431 C1430 1.388 . S
C1431 C1432 1.390 . S
C1432 C1431 1.390 . S
C1432 C1433 1.394 . S
C1432 C1438 1.465 . S
C1433 C1428 1.399 . S
C1433 C1432 1.394 . S
C1433 C1434 1.516 . S
C1434 C1433 1.516 . S
C1434 C1435 1.502 . S
C1434 C1436 1.561 . S
C1434 C1437 1.526 . S
C1435 H1419 0.959 . S
C1435 H1420 0.959 . S
C1435 H1421 0.961 . S
C1435 C1434 1.502 . S
C1436 H1422 0.960 . S
C1436 H1423 0.961 . S
C1436 H1424 0.959 . S
C1436 C1434 1.561 . S
C1437 C1434 1.526 . S
C1437 C1438 1.396 . S
C1437 C1442 1.390 . S
C1438 C1432 1.465 . S
C1438 C1437 1.396 . S
C1438 C1439 1.399 . S
C1439 H1425 0.929 . S
C1439 C1438 1.399 . S
C1439 C1440 1.385 . S
C1440 H1426 0.931 . S
C1440 C1439 1.385 . S
C1440 C1441 1.389 . S
C1441 C1440 1.389 . S
C1441 C1442 1.387 . S
C1442 H1427 0.930 . S
C1442 C1437 1.390 . S
C1442 C1441 1.387 . S
H1443 C1455 0.930 . S
H1444 C1457 0.930 . S
H1445 C1458 0.930 . S
H1446 C1462 0.959 . S
H1447 C1462 0.959 . S
H1448 C1462 0.961 . S
H1449 C1463 0.960 . S
H1450 C1463 0.961 . S
H1451 C1463 0.959 . S
H1452 C1466 0.929 . S
H1453 C1467 0.931 . S
H1454 C1469 0.930 . S
C1455 H1443 0.930 . S
C1455 C1456 1.399 . S
C1455 C1460 1.399 . S
C1456 C1455 1.399 . S
C1456 C1457 1.376 . S
C1457 H1444 0.930 . S
C1457 C1456 1.376 . S
C1457 C1458 1.388 . S
C1458 H1445 0.930 . S
C1458 C1457 1.388 . S
C1458 C1459 1.390 . S
C1459 C1458 1.390 . S
C1459 C1460 1.394 . S
C1459 C1465 1.465 . S
C1460 C1455 1.399 . S
C1460 C1459 1.394 . S
C1460 C1461 1.516 . S
C1461 C1460 1.516 . S
C1461 C1462 1.502 . S
C1461 C1463 1.561 . S
C1461 C1464 1.526 . S
C1462 H1446 0.959 . S
C1462 H1447 0.959 . S
C1462 H1448 0.961 . S
C1462 C1461 1.502 . S
C1463 H1449 0.960 . S
C1463 H1450 0.961 . S
C1463 H1451 0.959 . S
C1463 C1461 1.561 . S
C1464 C1461 1.526 . S
C1464 C1465 1.396 . S
C1464 C1469 1.390 . S
C1465 C1459 1.465 . S
C1465 C1464 1.396 . S
C1465 C1466 1.399 . S
C1466 H1452 0.929 . S
C1466 C1465 1.399 . S
C1466 C1467 1.385 . S
C1467 H1453 0.931 . S
C1467 C1466 1.385 . S
C1467 C1468 1.389 . S
C1468 C1467 1.389 . S
C1468 C1469 1.387 . S
C1469 H1454 0.930 . S
C1469 C1464 1.390 . S
C1469 C1468 1.387 . S
C835 C7 1.997 . S
C847 C167 1.819 . S
C862 C30 1.816 . S
C874 C307 1.548 . S
C901 C395 1.679 . S
C889 N58 1.738 . S
C928 C535 1.538 . S
C916 N81 1.639 . S
C955 C649 1.662 . S
C943 C99 1.940 . S
C982 C719 0.857 . S
C970 N127 1.664 . S
C997 N25 1.861 . S
C1009 C377 1.089 . S
C1024 C62 1.654 . S
C1036 C481 1.208 . S
C1063 C595 1.345 . S
C1051 C85 1.848 . S
C1090 C737 1.548 . S
C1078 N94 1.563 . S
C1105 C131 2.075 . S
C1117 C149 1.076 . S
C1144 C253 1.101 . S
C1132 N2 1.423 . S
C1171 C491 1.641 . S
C1159 C16 2.052 1_655 S
C1186 C39 1.855 . S
C1198 C605 1.375 . S
C1225 C763 1.275 . S
C1213 N48 1.954 . S
C1240 N71 1.587 . S
C1252 C139 1.359 . S
C1267 C108 2.126 . S
C1279 C263 1.616 . S
C1294 N117 1.611 . S
C1306 C367 1.436 . S
C1321 N35 1.815 . S
C1333 C709 1.704 . S
C1360 C193 1.217 . S
C1348 C53 1.877 . S
C1375 C76 2.041 . S
C1387 C281 1.358 . S
C1402 N104 1.707 . S
C1414 C421 1.052 . S
C1429 C122 1.924 . S
C1441 C509 1.320 . S
C1456 N12 1.598 . S
C1468 C623 1.267 . S
