# Generated by pormake.
# Topology anh, (6,3)-cn, num edge types: 1
# Building blocks:
#     Node 0, Type 0, BuildingBlock: VOLQOD_clean_sbu_1, # of connection points: 6
#     Node 1, Type 0, BuildingBlock: VOLQOD_clean_sbu_1, # of connection points: 6
#     Node 2, Type 0, BuildingBlock: VOLQOD_clean_sbu_1, # of connection points: 6
#     Node 3, Type 1, BuildingBlock: QEWDON_clean_linker_0, # of connection points: 3
#     Node 4, Type 1, BuildingBlock: QEWDON_clean_linker_0, # of connection points: 3
#     Node 5, Type 1, BuildingBlock: QEWDON_clean_linker_0, # of connection points: 3
#     Node 6, Type 1, BuildingBlock: QEWDON_clean_linker_0, # of connection points: 3
#     Node 7, Type 1, BuildingBlock: QEWDON_clean_linker_0, # of connection points: 3
#     Node 8, Type 1, BuildingBlock: QEWDON_clean_linker_0, # of connection points: 3
#     Edge 9, Type (0, 1), BuildingBlock: OJICUG_clean_linker_0, # of connection points: 2
#     Edge 10, Type (0, 1), BuildingBlock: OJICUG_clean_linker_0, # of connection points: 2
#     Edge 11, Type (0, 1), BuildingBlock: OJICUG_clean_linker_0, # of connection points: 2
#     Edge 12, Type (0, 1), BuildingBlock: OJICUG_clean_linker_0, # of connection points: 2
#     Edge 13, Type (0, 1), BuildingBlock: OJICUG_clean_linker_0, # of connection points: 2
#     Edge 14, Type (0, 1), BuildingBlock: OJICUG_clean_linker_0, # of connection points: 2
#     Edge 15, Type (0, 1), BuildingBlock: OJICUG_clean_linker_0, # of connection points: 2
#     Edge 16, Type (0, 1), BuildingBlock: OJICUG_clean_linker_0, # of connection points: 2
#     Edge 17, Type (0, 1), BuildingBlock: OJICUG_clean_linker_0, # of connection points: 2
#     Edge 18, Type (0, 1), BuildingBlock: OJICUG_clean_linker_0, # of connection points: 2
#     Edge 19, Type (0, 1), BuildingBlock: OJICUG_clean_linker_0, # of connection points: 2
#     Edge 20, Type (0, 1), BuildingBlock: OJICUG_clean_linker_0, # of connection points: 2
#     Edge 21, Type (0, 1), BuildingBlock: OJICUG_clean_linker_0, # of connection points: 2
#     Edge 22, Type (0, 1), BuildingBlock: OJICUG_clean_linker_0, # of connection points: 2
#     Edge 23, Type (0, 1), BuildingBlock: OJICUG_clean_linker_0, # of connection points: 2
#     Edge 24, Type (0, 1), BuildingBlock: OJICUG_clean_linker_0, # of connection points: 2
#     Edge 25, Type (0, 1), BuildingBlock: OJICUG_clean_linker_0, # of connection points: 2
#     Edge 26, Type (0, 1), BuildingBlock: OJICUG_clean_linker_0, # of connection points: 2
# Relax obj value: 0.175
# Max RMSD: 0.225
# Mean RMSD: 0.172
data_MOF--net-anh--node1-VOLQOD_clean_sbu_1--node2-QEWDON_clean_linker_0--edge1-OJICUG_clean_linker_0
_symmetry_space_group_name_H-M    P1
_symmetry_Int_Tables_number       1
_symmetry_cell_setting            triclinic
loop_
_symmetry_equiv_pos_as_xyz
'x, y, z'
_cell_length_a     23.600605
_cell_length_b     23.343222
_cell_length_c     40.896076
_cell_angle_alpha  94.642171
_cell_angle_beta   94.465059
_cell_angle_gamma 120.45803
loop_
_atom_site_label
_atom_site_type_symbol
_atom_site_fract_x
_atom_site_fract_y
_atom_site_fract_z
_atom_type_partial_charge
O0 O 0.03666 0.59119 0.23299 0.0
Zn1 Zn 0.04215 0.61153 0.18643 0.0
O2 O 0.04147 0.54074 0.15722 0.0
Zn3 Zn 0.96478 0.49761 0.12324 0.0
Zn4 Zn 0.04129 0.47457 0.18413 0.0
Zn5 Zn 0.1178 0.58 0.13376 0.0
O6 O 0.98682 0.50632 0.07639 0.0
O7 O 0.09467 0.58105 0.08513 0.0
O8 O 0.96492 0.62247 0.17232 0.0
O9 O 0.91309 0.54274 0.12867 0.0
O10 O 0.90242 0.40237 0.12985 0.0
O11 O 0.9517 0.38851 0.17451 0.0
O12 O 0.1171 0.46008 0.17546 0.0
O13 O 0.12941 0.69836 0.18989 0.0
O14 O 0.16286 0.52802 0.13786 0.0
O15 O 0.18459 0.67414 0.15525 0.0
C16 C 0.04446 0.5502 0.24862 0.0
C17 C 0.04044 0.54605 0.06551 0.0
C18 C 0.90194 0.36719 0.1522 0.0
C19 C 0.91786 0.59029 0.14844 0.0
C20 C 0.16012 0.48454 0.15561 0.0
C21 C 0.18208 0.71472 0.17701 0.0
O22 O 0.05133 0.50466 0.23345 0.0
O23 O 0.5344 0.07396 0.43948 0.0
Zn24 Zn 0.51086 0.06133 0.48585 0.0
O25 O 0.57699 0.05303 0.51327 0.0
Zn26 Zn 0.628 0.12831 0.5478 0.0
Zn27 Zn 0.63541 0.0436 0.48501 0.0
Zn28 Zn 0.53306 0.97767 0.53656 0.0
O29 O 0.62012 0.10568 0.59469 0.0
O30 O 0.53114 0.00357 0.58423 0.0
O31 O 0.50386 0.13943 0.50597 0.0
O32 O 0.58921 0.1859 0.54637 0.0
O33 O 0.72171 0.1845 0.53896 0.0
O34 O 0.72457 0.13123 0.49204 0.0
O35 O 0.64432 0.96388 0.49502 0.0
O36 O 0.42165 0.97434 0.48024 0.0
O37 O 0.5793 0.92718 0.5344 0.0
O38 O 0.44027 0.91516 0.51471 0.0
C39 C 0.56498 0.05268 0.42266 0.0
C40 C 0.57237 0.05526 0.60461 0.0
C41 C 0.75174 0.1816 0.51486 0.0
C42 C 0.54067 0.1852 0.53015 0.0
C43 C 0.61972 0.92418 0.51652 0.0
C44 C 0.4022 0.92034 0.49295 0.0
O45 O 0.59963 0.03115 0.43645 0.0
O46 O 0.47155 0.50585 0.76653 0.0
Zn47 Zn 0.45519 0.4909 0.8137 0.0
O48 O 0.53505 0.55926 0.84338 0.0
Zn49 Zn 0.51613 0.60843 0.87634 0.0
Zn50 Zn 0.59941 0.62497 0.8185 0.0
Zn51 Zn 0.57157 0.51681 0.86804 0.0
O52 O 0.52252 0.58721 0.9226 0.0
O53 O 0.55275 0.51206 0.91537 0.0
O54 O 0.37639 0.50376 0.82064 0.0
O55 O 0.42575 0.58776 0.86246 0.0
O56 O 0.5693 0.7077 0.87609 0.0
O57 O 0.59319 0.7089 0.8248 0.0
O58 O 0.69242 0.64325 0.83435 0.0
O59 O 0.44154 0.39644 0.81516 0.0
O60 O 0.66922 0.56902 0.86988 0.0
O61 O 0.53802 0.4255 0.8445 0.0
C62 C 0.5205 0.54502 0.75237 0.0
C63 C 0.53609 0.54585 0.93401 0.0
C64 C 0.5836 0.73646 0.85028 0.0
C65 C 0.37612 0.54828 0.84093 0.0
C66 C 0.71055 0.61633 0.85558 0.0
C67 C 0.48503 0.38238 0.82565 0.0
O68 O 0.57483 0.5916 0.76918 0.0
H69 H 0.58533 0.12656 0.27199 0.0
C70 C 0.54214 0.07898 0.26097 0.0
C71 C 0.50965 0.02789 0.28062 0.0
C72 C 0.51735 0.06934 0.22735 0.0
H73 H 0.42667 0.92822 0.28157 0.0
C74 C 0.45246 0.96722 0.26634 0.0
C75 C 0.42717 0.95746 0.23282 0.0
C76 C 0.46025 0.00851 0.21348 0.0
C77 C 0.5468 0.12404 0.20687 0.0
H78 H 0.4403 0.00181 0.18773 0.0
C79 C 0.61215 0.15049 0.1997 0.0
C80 C 0.63717 0.19858 0.17775 0.0
C81 C 0.50721 0.14699 0.19267 0.0
H82 H 0.45675 0.1271 0.1979 0.0
C83 C 0.5322 0.19557 0.17157 0.0
H84 H 0.64237 0.13203 0.21026 0.0
C85 C 0.59656 0.22114 0.16407 0.0
H86 H 0.61487 0.25939 0.14785 0.0
H87 H 0.50149 0.21332 0.16089 0.0
H88 H 0.51189 0.57491 0.5934 0.0
C89 C 0.51054 0.52838 0.58651 0.0
C90 C 0.50632 0.48757 0.61088 0.0
C91 C 0.51068 0.50766 0.55313 0.0
H92 H 0.50095 0.39563 0.62049 0.0
C93 C 0.5035 0.42686 0.60174 0.0
C94 C 0.50565 0.40687 0.56886 0.0
C95 C 0.50899 0.44729 0.54479 0.0
C96 C 0.51238 0.54779 0.52644 0.0
H97 H 0.51267 0.43277 0.51955 0.0
C98 C 0.55426 0.61797 0.53106 0.0
C99 C 0.5561 0.65549 0.50539 0.0
C100 C 0.47282 0.51522 0.49561 0.0
H101 H 0.43931 0.46131 0.49139 0.0
C102 C 0.47544 0.55178 0.46992 0.0
H103 H 0.58558 0.64324 0.55456 0.0
C104 C 0.5165 0.62136 0.47471 0.0
H105 H 0.51508 0.64846 0.4547 0.0
H106 H 0.44453 0.52619 0.44638 0.0
H107 H 0.11493 0.62293 0.91871 0.0
C108 C 0.07119 0.62512 0.911 0.0
C109 C 0.02186 0.60736 0.93194 0.0
C110 C 0.06437 0.6461 0.88033 0.0
H111 H 0.92775 0.59793 0.93795 0.0
C112 C 0.96577 0.61145 0.92192 0.0
C113 C 0.95845 0.63314 0.89162 0.0
C114 C 0.00772 0.64961 0.87099 0.0
C115 C 0.11612 0.66539 0.85785 0.0
H116 H 0.00207 0.66566 0.84749 0.0
C117 C 0.15012 0.63054 0.85407 0.0
C118 C 0.19827 0.64893 0.8324 0.0
C119 C 0.13128 0.71895 0.83961 0.0
H120 H 0.10791 0.74837 0.84259 0.0
C121 C 0.17733 0.73585 0.81741 0.0
H122 H 0.14011 0.59007 0.86833 0.0
C123 C 0.21035 0.70098 0.81364 0.0
H124 H 0.24644 0.7157 0.79645 0.0
H125 H 0.18812 0.77678 0.80338 0.0
H126 H 0.98909 0.51397 0.40186 0.0
C127 C 0.03581 0.55851 0.41245 0.0
C128 C 0.08099 0.59769 0.3916 0.0
C129 C 0.04888 0.5801 0.44677 0.0
H130 H 0.17506 0.68679 0.38929 0.0
C131 C 0.14009 0.65697 0.4054 0.0
C132 C 0.15435 0.67802 0.43964 0.0
C133 C 0.10852 0.63919 0.46011 0.0
C134 C -0.00194 0.54648 0.46873 0.0
H135 H 0.11818 0.65616 0.48652 0.0
C136 C 0.9713 0.47829 0.47227 0.0
C137 C 0.9272 0.44967 0.49558 0.0
C138 C 0.97864 0.58488 0.48772 0.0
H139 H -0.00176 0.63726 0.48519 0.0
C140 C 0.93402 0.55635 0.51017 0.0
H141 H 0.98638 0.44851 0.45786 0.0
C142 C 0.90863 0.48942 0.51421 0.0
H143 H 0.87353 0.46839 0.53167 0.0
H144 H 0.91919 0.5863 0.52458 0.0
H145 H 0.48824 0.9823 0.74823 0.0
C146 C 0.48425 0.02546 0.75602 0.0
C147 C 0.50226 0.07631 0.73578 0.0
C148 C 0.46115 0.02982 0.78626 0.0
H149 H 0.51166 0.17237 0.73121 0.0
C150 C 0.49767 0.13249 0.74639 0.0
C151 C 0.47393 0.13716 0.77632 0.0
C152 C 0.45529 0.0856 0.796 0.0
C153 C 0.44415 0.97666 0.80788 0.0
H154 H 0.43896 0.09047 0.81957 0.0
C155 C 0.48507 0.9495 0.81308 0.0
C156 C 0.46944 0.89986 0.83393 0.0
C157 C 0.38694 0.95297 0.82358 0.0
H158 H 0.35403 0.97213 0.81967 0.0
C159 C 0.37098 0.90345 0.84408 0.0
H160 H 0.52984 0.968 0.80153 0.0
C161 C 0.41189 0.87714 0.84933 0.0
H162 H 0.3978 0.83809 0.86501 0.0
H163 H 0.32648 0.88508 0.85581 0.0
H164 H 0.49976 0.55651 0.09119 0.0
C165 C 0.54779 0.56317 0.09928 0.0
C166 C 0.58633 0.56033 0.0754 0.0
C167 C 0.57114 0.57447 0.13339 0.0
H168 H 0.67899 0.56858 0.06738 0.0
C169 C 0.64926 0.57074 0.08579 0.0
C170 C 0.67422 0.58396 0.11953 0.0
C171 C 0.6345 0.58487 0.14309 0.0
C172 C 0.52993 0.57545 0.15902 0.0
H173 H 0.65309 0.59355 0.16914 0.0
C174 C 0.46037 0.53336 0.15351 0.0
C175 C 0.42113 0.53599 0.17711 0.0
C176 C 0.55989 0.61882 0.18922 0.0
H177 H 0.61299 0.65333 0.19416 0.0
C178 C 0.52149 0.61943 0.21331 0.0
H179 H 0.43642 0.49887 0.1307 0.0
C180 C 0.45261 0.57867 0.20732 0.0
H181 H 0.424 0.58306 0.22577 0.0
H182 H 0.54513 0.65317 0.23634 0.0
C183 C 0.25585 0.49002 0.13164 0.0
C184 C 0.2166 0.47374 0.1574 0.0
H185 H 0.35164 0.52301 0.11776 0.0
C186 C 0.24051 0.46302 0.18741 0.0
H187 H 0.23835 0.49784 0.10809 0.0
C188 C 0.30588 0.47722 0.19299 0.0
C189 C 0.34796 0.50206 0.1686 0.0
H190 H 0.21121 0.45011 0.20767 0.0
H191 H 0.32483 0.47337 0.21718 0.0
C192 C 0.32094 0.50421 0.13719 0.0
C193 C 0.84903 0.29437 0.53737 0.0
C194 C 0.81237 0.24421 0.51014 0.0
H195 H 0.91591 0.39893 0.55398 0.0
C196 C 0.82498 0.26027 0.47802 0.0
H197 H 0.84099 0.2834 0.56241 0.0
C198 C 0.86736 0.32694 0.47315 0.0
C199 C 0.8979 0.37819 0.50036 0.0
H200 H 0.79736 0.22271 0.45651 0.0
H201 H 0.87156 0.33899 0.4481 0.0
C202 C 0.89157 0.36061 0.53252 0.0
C203 C 0.55539 0.81903 0.87483 0.0
C204 C 0.57145 0.79248 0.84737 0.0
H205 H 0.51095 0.87402 0.8921 0.0
C206 C 0.56255 0.81021 0.8161 0.0
H207 H 0.56196 0.80695 0.89933 0.0
C208 C 0.5328 0.84851 0.81198 0.0
C209 C 0.51138 0.86978 0.83901 0.0
H210 H 0.5741 0.79056 0.79437 0.0
H211 H 0.52268 0.85767 0.78727 0.0
C212 C 0.52551 0.85698 0.87067 0.0
C213 C 0.81257 0.57144 0.1653 0.0
C214 C 0.86263 0.60179 0.14536 0.0
H215 H 0.71279 0.53997 0.17221 0.0
C216 C 0.85322 0.63136 0.11868 0.0
H217 H 0.81876 0.54698 0.18554 0.0
C218 C 0.79318 0.62878 0.11135 0.0
C219 C 0.74096 0.59466 0.12999 0.0
H220 H 0.89132 0.65417 0.10282 0.0
H221 H 0.78701 0.65169 0.09043 0.0
C222 C 0.75198 0.56749 0.15759 0.0
C223 C 0.29772 0.85875 0.45215 0.0
C224 C 0.33618 0.8604 0.48064 0.0
H225 H 0.20993 0.79976 0.41685 0.0
C226 C 0.31312 0.80228 0.49609 0.0
H227 H 0.31408 0.90256 0.43961 0.0
C228 C 0.25385 0.74349 0.48296 0.0
C229 C 0.21628 0.74129 0.45402 0.0
H230 H 0.34145 0.80168 0.51807 0.0
H231 H 0.23826 0.6992 0.49504 0.0
C232 C 0.23844 0.79971 0.43892 0.0
C233 C 0.41802 0.25825 0.80372 0.0
C234 C 0.47949 0.31818 0.81297 0.0
H235 H 0.36802 0.1526 0.78541 0.0
C236 C 0.53813 0.31761 0.80956 0.0
H237 H 0.37214 0.25728 0.80602 0.0
C238 C 0.53567 0.25892 0.79716 0.0
C239 C 0.47464 0.19894 0.78848 0.0
H240 H 0.58633 0.36307 0.81604 0.0
H241 H 0.58166 0.26016 0.79471 0.0
C242 C 0.41567 0.19865 0.792 0.0
C243 C 0.63625 0.83549 0.48861 0.0
C244 C 0.62707 0.8652 0.51734 0.0
H245 H 0.62258 0.74517 0.4625 0.0
C246 C 0.60938 0.82977 0.54462 0.0
H247 H 0.65043 0.86179 0.46728 0.0
C248 C 0.59187 0.76278 0.54167 0.0
C249 C 0.59256 0.73007 0.51147 0.0
H250 H 0.60296 0.85185 0.56733 0.0
H251 H 0.57195 0.73542 0.56213 0.0
C252 C 0.61928 0.76834 0.48574 0.0
C253 C 0.81128 0.62071 0.83886 0.0
C254 C 0.78026 0.63585 0.86306 0.0
H255 H 0.89027 0.60506 0.82894 0.0
C256 C 0.81046 0.65538 0.89612 0.0
H257 H 0.78767 0.60371 0.81335 0.0
C258 C 0.86983 0.65751 0.90513 0.0
C259 C 0.89915 0.63807 0.88138 0.0
H260 H 0.78664 0.66639 0.91522 0.0
H261 H 0.89165 0.6726 0.93091 0.0
C262 C 0.86994 0.62124 0.84794 0.0
C263 C 0.29982 0.803 0.17365 0.0
C264 C 0.24348 0.77926 0.19005 0.0
H265 H 0.40226 0.8779 0.17447 0.0
C266 C 0.248 0.81505 0.22048 0.0
H267 H 0.29807 0.77649 0.15023 0.0
C268 C 0.30787 0.87243 0.23453 0.0
C269 C 0.36422 0.8957 0.21825 0.0
H270 H 0.20572 0.79791 0.2339 0.0
H271 H 0.30998 0.89896 0.25801 0.0
C272 C 0.35947 0.8609 0.18751 0.0
C273 C 0.48221 0.24861 0.52101 0.0
C274 C 0.5276 0.23898 0.54047 0.0
H275 H 0.43898 0.30937 0.51502 0.0
C276 C 0.56232 0.28249 0.57017 0.0
H277 H 0.45454 0.21573 0.49811 0.0
C278 C 0.55343 0.33556 0.57977 0.0
C279 C 0.50965 0.34652 0.55993 0.0
H280 H 0.59734 0.27629 0.58594 0.0
H281 H 0.58261 0.36939 0.60223 0.0
C282 C 0.47347 0.30218 0.53063 0.0
C283 C 0.35171 0.6372 0.8339 0.0
C284 C 0.32696 0.56863 0.83496 0.0
H285 H 0.33109 0.71572 0.83278 0.0
C286 C 0.25832 0.52459 0.83316 0.0
H287 H 0.40455 0.67229 0.83511 0.0
C288 C 0.21544 0.54995 0.83178 0.0
C289 C 0.24096 0.61924 0.83167 0.0
H290 H 0.23835 0.47161 0.8341 0.0
H291 H 0.16268 0.5157 0.83112 0.0
C292 C 0.30947 0.66213 0.83231 0.0
C293 C 0.82486 0.28877 0.18796 0.0
C294 C 0.83733 0.30842 0.15639 0.0
H295 H 0.7513 0.23908 0.21967 0.0
C296 C 0.78386 0.28115 0.13069 0.0
H297 H 0.86492 0.30893 0.20835 0.0
C298 C 0.71889 0.24095 0.13718 0.0
C299 C 0.70589 0.22751 0.16955 0.0
H300 H 0.79181 0.29459 0.106 0.0
H301 H 0.67853 0.2235 0.11718 0.0
C302 C 0.75963 0.24882 0.19452 0.0
C303 C 0.97842 0.51889 0.00825 0.0
C304 C 0.03822 0.55614 0.03007 0.0
H305 H 0.92678 0.50482 0.96014 0.0
C306 C 0.09429 0.60666 0.01829 0.0
H307 H 0.93433 0.47928 0.01629 0.0
C308 C 0.08976 0.62164 0.98603 0.0
C309 C 0.02908 0.58648 0.9648 0.0
H310 H 0.1412 0.63639 0.03435 0.0
H311 H 0.1331 0.66274 0.97825 0.0
C312 C 0.97395 0.53382 0.97606 0.0
C313 C 0.54321 0.0951 0.37166 0.0
C314 C 0.5574 0.05039 0.3862 0.0
H315 H 0.51871 0.12389 0.32662 0.0
C316 C 0.5607 0.00132 0.36553 0.0
H317 H 0.54062 0.1336 0.38696 0.0
C318 C 0.54696 0.9951 0.33107 0.0
C319 C 0.53153 0.03899 0.31667 0.0
H320 H 0.57123 0.966 0.37602 0.0
H321 H 0.54724 0.95527 0.31565 0.0
C322 C 0.53111 0.0899 0.3372 0.0
C323 C 0.56271 0.58093 0.69836 0.0
C324 C 0.51432 0.5341 0.71565 0.0
H325 H 0.59727 0.60346 0.65126 0.0
C326 C 0.46034 0.47508 0.69752 0.0
H327 H 0.60467 0.62711 0.71151 0.0
C328 C 0.45642 0.46169 0.66327 0.0
C329 C 0.50585 0.50729 0.64619 0.0
H330 H 0.42199 0.43796 0.7099 0.0
H331 H 0.41547 0.4147 0.65016 0.0
C332 C 0.55826 0.5678 0.66387 0.0
C333 C 0.50841 0.003 0.65077 0.0
C334 C 0.56006 0.05913 0.63954 0.0
H335 H 0.44933 0.96463 0.68958 0.0
C336 C 0.59529 0.1202 0.66106 0.0
H337 H 0.48011 0.95517 0.6349 0.0
C338 C 0.57752 0.12558 0.69254 0.0
C339 C 0.52436 0.06995 0.70327 0.0
H340 H 0.63528 0.16448 0.65323 0.0
H341 H 0.605 0.1735 0.70837 0.0
C342 C 0.49084 0.00834 0.68223 0.0
C343 C 0.52604 0.5829 0.99159 0.0
C344 C 0.53871 0.54174 0.97005 0.0
H345 H 0.53102 0.62089 0.04194 0.0
C346 C 0.55954 0.50093 0.98362 0.0
H347 H 0.50959 0.61473 0.98199 0.0
C348 C 0.57153 0.50441 0.0179 0.0
C349 C 0.5629 0.54866 0.03941 0.0
H350 H 0.56917 0.46816 0.96782 0.0
H351 H 0.5897 0.474 0.02763 0.0
C352 C 0.53795 0.58624 0.02595 0.0
C353 C 0.04735 0.50991 0.30389 0.0
C354 C 0.04884 0.55871 0.28525 0.0
H355 H 0.05516 0.48348 0.35259 0.0
C356 C 0.05658 0.61779 0.30205 0.0
H357 H 0.04111 0.46374 0.29169 0.0
C358 C 0.06505 0.62901 0.33652 0.0
C359 C 0.06518 0.5812 0.35513 0.0
H360 H 0.05791 0.65649 0.28861 0.0
H361 H 0.0726 0.67579 0.34875 0.0
C362 C 0.05496 0.5209 0.33863 0.0
loop_
_geom_bond_atom_site_label_1
_geom_bond_atom_site_label_2
_geom_bond_distance
_geom_bond_site_symmetry_2
_ccdc_geom_bond_type
O0 Zn1 1.953 . S
O0 C16 1.225 . S
Zn1 O0 1.953 . S
Zn1 O2 1.949 . S
Zn1 O8 1.919 1_455 S
Zn1 O13 1.924 . S
O2 Zn1 1.949 . S
O2 Zn3 1.923 1_455 S
O2 Zn4 1.950 . S
O2 Zn5 1.945 . S
Zn3 O2 1.923 1_655 S
Zn3 O6 1.933 . S
Zn3 O9 1.941 . S
Zn3 O10 1.965 . S
Zn4 O2 1.950 . S
Zn4 O11 1.938 1_455 S
Zn4 O12 1.906 . S
Zn4 O22 1.953 . S
Zn5 O2 1.945 . S
Zn5 O7 1.932 . S
Zn5 O14 1.977 . S
Zn5 O15 1.910 . S
O6 Zn3 1.933 . S
O6 C17 1.226 1_655 S
O7 Zn5 1.932 . S
O7 C17 1.307 . S
O8 Zn1 1.919 1_655 S
O8 C19 1.253 . S
O9 Zn3 1.941 . S
O9 C19 1.283 . S
O10 Zn3 1.965 . S
O10 C18 1.303 . S
O11 Zn4 1.938 1_655 S
O11 C18 1.247 . S
O12 Zn4 1.906 . S
O12 C20 1.304 . S
O13 Zn1 1.924 . S
O13 C21 1.311 . S
O14 Zn5 1.977 . S
O14 C20 1.272 . S
O15 Zn5 1.910 . S
O15 C21 1.231 . S
C16 O0 1.225 . S
C16 O22 1.298 . S
C17 O6 1.226 1_455 S
C17 O7 1.307 . S
C18 O10 1.303 . S
C18 O11 1.247 . S
C19 O8 1.253 . S
C19 O9 1.283 . S
C20 O12 1.304 . S
C20 O14 1.272 . S
C21 O13 1.311 . S
C21 O15 1.231 . S
O22 Zn4 1.953 . S
O22 C16 1.298 . S
O23 Zn24 1.953 . S
O23 C39 1.225 . S
Zn24 O23 1.953 . S
Zn24 O25 1.949 . S
Zn24 O31 1.919 . S
Zn24 O36 1.924 1_545 S
O25 Zn24 1.949 . S
O25 Zn26 1.923 . S
O25 Zn27 1.950 . S
O25 Zn28 1.945 1_545 S
Zn26 O25 1.923 . S
Zn26 O29 1.933 . S
Zn26 O32 1.941 . S
Zn26 O33 1.965 . S
Zn27 O25 1.950 . S
Zn27 O34 1.938 . S
Zn27 O35 1.906 1_545 S
Zn27 O45 1.953 . S
Zn28 O25 1.945 1_565 S
Zn28 O30 1.932 1_565 S
Zn28 O37 1.977 . S
Zn28 O38 1.910 . S
O29 Zn26 1.933 . S
O29 C40 1.226 . S
O30 Zn28 1.932 1_545 S
O30 C40 1.307 . S
O31 Zn24 1.919 . S
O31 C42 1.253 . S
O32 Zn26 1.941 . S
O32 C42 1.283 . S
O33 Zn26 1.965 . S
O33 C41 1.303 . S
O34 Zn27 1.938 . S
O34 C41 1.247 . S
O35 Zn27 1.906 1_565 S
O35 C43 1.304 . S
O36 Zn24 1.924 1_565 S
O36 C44 1.311 . S
O37 Zn28 1.977 . S
O37 C43 1.272 . S
O38 Zn28 1.910 . S
O38 C44 1.231 . S
C39 O23 1.225 . S
C39 O45 1.298 . S
C40 O29 1.226 . S
C40 O30 1.307 . S
C41 O33 1.303 . S
C41 O34 1.247 . S
C42 O31 1.253 . S
C42 O32 1.283 . S
C43 O35 1.304 . S
C43 O37 1.272 . S
C44 O36 1.311 . S
C44 O38 1.231 . S
O45 Zn27 1.953 . S
O45 C39 1.298 . S
O46 Zn47 1.953 . S
O46 C62 1.225 . S
Zn47 O46 1.953 . S
Zn47 O48 1.949 . S
Zn47 O54 1.919 . S
Zn47 O59 1.924 . S
O48 Zn47 1.949 . S
O48 Zn49 1.923 . S
O48 Zn50 1.950 . S
O48 Zn51 1.945 . S
Zn49 O48 1.923 . S
Zn49 O52 1.933 . S
Zn49 O55 1.941 . S
Zn49 O56 1.965 . S
Zn50 O48 1.950 . S
Zn50 O57 1.938 . S
Zn50 O58 1.906 . S
Zn50 O68 1.953 . S
Zn51 O48 1.945 . S
Zn51 O53 1.932 . S
Zn51 O60 1.977 . S
Zn51 O61 1.910 . S
O52 Zn49 1.933 . S
O52 C63 1.226 . S
O53 Zn51 1.932 . S
O53 C63 1.307 . S
O54 Zn47 1.919 . S
O54 C65 1.253 . S
O55 Zn49 1.941 . S
O55 C65 1.283 . S
O56 Zn49 1.965 . S
O56 C64 1.303 . S
O57 Zn50 1.938 . S
O57 C64 1.247 . S
O58 Zn50 1.906 . S
O58 C66 1.304 . S
O59 Zn47 1.924 . S
O59 C67 1.311 . S
O60 Zn51 1.977 . S
O60 C66 1.272 . S
O61 Zn51 1.910 . S
O61 C67 1.231 . S
C62 O46 1.225 . S
C62 O68 1.298 . S
C63 O52 1.226 . S
C63 O53 1.307 . S
C64 O56 1.303 . S
C64 O57 1.247 . S
C65 O54 1.253 . S
C65 O55 1.283 . S
C66 O58 1.304 . S
C66 O60 1.272 . S
C67 O59 1.311 . S
C67 O61 1.231 . S
O68 Zn50 1.953 . S
O68 C62 1.298 . S
H69 C70 0.949 . S
C70 H69 0.949 . S
C70 C71 1.395 . S
C70 C72 1.391 . S
C71 C70 1.395 . S
C71 C74 1.390 1_545 S
C72 C70 1.391 . S
C72 C76 1.387 . S
C72 C77 1.491 . S
H73 C74 0.950 . S
C74 C71 1.390 1_565 S
C74 H73 0.950 . S
C74 C75 1.378 . S
C75 C74 1.378 . S
C75 C76 1.409 1_565 S
C76 C72 1.387 . S
C76 C75 1.409 1_545 S
C76 H78 0.951 . S
C77 C72 1.491 . S
C77 C79 1.382 . S
C77 C81 1.404 . S
H78 C76 0.951 . S
C79 C77 1.382 . S
C79 C80 1.390 . S
C79 H84 0.949 . S
C80 C79 1.390 . S
C80 C85 1.399 . S
C81 C77 1.404 . S
C81 H82 0.950 . S
C81 C83 1.375 . S
H82 C81 0.950 . S
C83 C81 1.375 . S
C83 C85 1.382 . S
C83 H87 0.950 . S
H84 C79 0.949 . S
C85 C80 1.399 . S
C85 C83 1.382 . S
C85 H86 0.952 . S
H86 C85 0.952 . S
H87 C83 0.950 . S
H88 C89 0.949 . S
C89 H88 0.949 . S
C89 C90 1.395 . S
C89 C91 1.391 . S
C90 C89 1.395 . S
C90 C93 1.390 . S
C91 C89 1.391 . S
C91 C95 1.387 . S
C91 C96 1.491 . S
H92 C93 0.950 . S
C93 C90 1.390 . S
C93 H92 0.950 . S
C93 C94 1.378 . S
C94 C93 1.378 . S
C94 C95 1.409 . S
C95 C91 1.387 . S
C95 C94 1.409 . S
C95 H97 0.951 . S
C96 C91 1.491 . S
C96 C98 1.382 . S
C96 C100 1.404 . S
H97 C95 0.951 . S
C98 C96 1.382 . S
C98 C99 1.390 . S
C98 H103 0.949 . S
C99 C98 1.390 . S
C99 C104 1.399 . S
C100 C96 1.404 . S
C100 H101 0.950 . S
C100 C102 1.375 . S
H101 C100 0.950 . S
C102 C100 1.375 . S
C102 C104 1.382 . S
C102 H106 0.950 . S
H103 C98 0.949 . S
C104 C99 1.399 . S
C104 C102 1.382 . S
C104 H105 0.952 . S
H105 C104 0.952 . S
H106 C102 0.950 . S
H107 C108 0.949 . S
C108 H107 0.949 . S
C108 C109 1.395 . S
C108 C110 1.391 . S
C109 C108 1.395 . S
C109 C112 1.390 1_455 S
C110 C108 1.391 . S
C110 C114 1.387 . S
C110 C115 1.491 . S
H111 C112 0.950 . S
C112 C109 1.390 1_655 S
C112 H111 0.950 . S
C112 C113 1.378 . S
C113 C112 1.378 . S
C113 C114 1.409 1_655 S
C114 C110 1.387 . S
C114 C113 1.409 1_455 S
C114 H116 0.951 . S
C115 C110 1.491 . S
C115 C117 1.382 . S
C115 C119 1.404 . S
H116 C114 0.951 . S
C117 C115 1.382 . S
C117 C118 1.390 . S
C117 H122 0.949 . S
C118 C117 1.390 . S
C118 C123 1.399 . S
C119 C115 1.404 . S
C119 H120 0.950 . S
C119 C121 1.375 . S
H120 C119 0.950 . S
C121 C119 1.375 . S
C121 C123 1.382 . S
C121 H125 0.950 . S
H122 C117 0.949 . S
C123 C118 1.399 . S
C123 C121 1.382 . S
C123 H124 0.952 . S
H124 C123 0.952 . S
H125 C121 0.950 . S
H126 C127 0.949 1_655 S
C127 H126 0.949 1_455 S
C127 C128 1.395 . S
C127 C129 1.391 . S
C128 C127 1.395 . S
C128 C131 1.390 . S
C129 C127 1.391 . S
C129 C133 1.387 . S
C129 C134 1.491 1_455 S
H130 C131 0.950 . S
C131 C128 1.390 . S
C131 H130 0.950 . S
C131 C132 1.378 . S
C132 C131 1.378 . S
C132 C133 1.409 . S
C133 C129 1.387 . S
C133 C132 1.409 . S
C133 H135 0.951 . S
C134 C129 1.491 1_655 S
C134 C136 1.382 . S
C134 C138 1.404 . S
H135 C133 0.951 . S
C136 C134 1.382 . S
C136 C137 1.390 . S
C136 H141 0.949 . S
C137 C136 1.390 . S
C137 C142 1.399 . S
C138 C134 1.404 . S
C138 H139 0.950 . S
C138 C140 1.375 . S
H139 C138 0.950 . S
C140 C138 1.375 . S
C140 C142 1.382 . S
C140 H144 0.950 . S
H141 C136 0.949 . S
C142 C137 1.399 . S
C142 C140 1.382 . S
C142 H143 0.952 . S
H143 C142 0.952 . S
H144 C140 0.950 . S
H145 C146 0.949 1_565 S
C146 H145 0.949 1_545 S
C146 C147 1.395 . S
C146 C148 1.391 . S
C147 C146 1.395 . S
C147 C150 1.390 . S
C148 C146 1.391 . S
C148 C152 1.387 . S
C148 C153 1.491 1_545 S
H149 C150 0.950 . S
C150 C147 1.390 . S
C150 H149 0.950 . S
C150 C151 1.378 . S
C151 C150 1.378 . S
C151 C152 1.409 . S
C152 C148 1.387 . S
C152 C151 1.409 . S
C152 H154 0.951 . S
C153 C148 1.491 1_565 S
C153 C155 1.382 . S
C153 C157 1.404 . S
H154 C152 0.951 . S
C155 C153 1.382 . S
C155 C156 1.390 . S
C155 H160 0.949 . S
C156 C155 1.390 . S
C156 C161 1.399 . S
C157 C153 1.404 . S
C157 H158 0.950 . S
C157 C159 1.375 . S
H158 C157 0.950 . S
C159 C157 1.375 . S
C159 C161 1.382 . S
C159 H163 0.950 . S
H160 C155 0.949 . S
C161 C156 1.399 . S
C161 C159 1.382 . S
C161 H162 0.952 . S
H162 C161 0.952 . S
H163 C159 0.950 . S
H164 C165 0.949 . S
C165 H164 0.949 . S
C165 C166 1.395 . S
C165 C167 1.391 . S
C166 C165 1.395 . S
C166 C169 1.390 . S
C167 C165 1.391 . S
C167 C171 1.387 . S
C167 C172 1.491 . S
H168 C169 0.950 . S
C169 C166 1.390 . S
C169 H168 0.950 . S
C169 C170 1.378 . S
C170 C169 1.378 . S
C170 C171 1.409 . S
C171 C167 1.387 . S
C171 C170 1.409 . S
C171 H173 0.951 . S
C172 C167 1.491 . S
C172 C174 1.382 . S
C172 C176 1.404 . S
H173 C171 0.951 . S
C174 C172 1.382 . S
C174 C175 1.390 . S
C174 H179 0.949 . S
C175 C174 1.390 . S
C175 C180 1.399 . S
C176 C172 1.404 . S
C176 H177 0.950 . S
C176 C178 1.375 . S
H177 C176 0.950 . S
C178 C176 1.375 . S
C178 C180 1.382 . S
C178 H182 0.950 . S
H179 C174 0.949 . S
C180 C175 1.399 . S
C180 C178 1.382 . S
C180 H181 0.952 . S
H181 C180 0.952 . S
H182 C178 0.950 . S
C183 C184 1.387 . S
C183 H187 0.950 . S
C183 C192 1.390 . S
C184 C183 1.387 . S
C184 C186 1.387 . S
H185 C192 0.950 . S
C186 C184 1.387 . S
C186 C188 1.390 . S
C186 H190 0.950 . S
H187 C183 0.950 . S
C188 C186 1.390 . S
C188 C189 1.387 . S
C188 H191 0.950 . S
C189 C188 1.387 . S
C189 C192 1.387 . S
H190 C186 0.950 . S
H191 C188 0.950 . S
C192 C183 1.390 . S
C192 H185 0.950 . S
C192 C189 1.387 . S
C193 C194 1.387 . S
C193 H197 0.950 . S
C193 C202 1.390 . S
C194 C193 1.387 . S
C194 C196 1.387 . S
H195 C202 0.950 . S
C196 C194 1.387 . S
C196 C198 1.390 . S
C196 H200 0.950 . S
H197 C193 0.950 . S
C198 C196 1.390 . S
C198 C199 1.387 . S
C198 H201 0.950 . S
C199 C198 1.387 . S
C199 C202 1.387 . S
H200 C196 0.950 . S
H201 C198 0.950 . S
C202 C193 1.390 . S
C202 H195 0.950 . S
C202 C199 1.387 . S
C203 C204 1.387 . S
C203 H207 0.950 . S
C203 C212 1.390 . S
C204 C203 1.387 . S
C204 C206 1.387 . S
H205 C212 0.950 . S
C206 C204 1.387 . S
C206 C208 1.390 . S
C206 H210 0.950 . S
H207 C203 0.950 . S
C208 C206 1.390 . S
C208 C209 1.387 . S
C208 H211 0.950 . S
C209 C208 1.387 . S
C209 C212 1.387 . S
H210 C206 0.950 . S
H211 C208 0.950 . S
C212 C203 1.390 . S
C212 H205 0.950 . S
C212 C209 1.387 . S
C213 C214 1.387 . S
C213 H217 0.950 . S
C213 C222 1.390 . S
C214 C213 1.387 . S
C214 C216 1.387 . S
H215 C222 0.950 . S
C216 C214 1.387 . S
C216 C218 1.390 . S
C216 H220 0.950 . S
H217 C213 0.950 . S
C218 C216 1.390 . S
C218 C219 1.387 . S
C218 H221 0.950 . S
C219 C218 1.387 . S
C219 C222 1.387 . S
H220 C216 0.950 . S
H221 C218 0.950 . S
C222 C213 1.390 . S
C222 H215 0.950 . S
C222 C219 1.387 . S
C223 C224 1.387 . S
C223 H227 0.950 . S
C223 C232 1.390 . S
C224 C223 1.387 . S
C224 C226 1.387 . S
H225 C232 0.950 . S
C226 C224 1.387 . S
C226 C228 1.390 . S
C226 H230 0.950 . S
H227 C223 0.950 . S
C228 C226 1.390 . S
C228 C229 1.387 . S
C228 H231 0.950 . S
C229 C228 1.387 . S
C229 C232 1.387 . S
H230 C226 0.950 . S
H231 C228 0.950 . S
C232 C223 1.390 . S
C232 H225 0.950 . S
C232 C229 1.387 . S
C233 C234 1.387 . S
C233 H237 0.950 . S
C233 C242 1.390 . S
C234 C233 1.387 . S
C234 C236 1.387 . S
H235 C242 0.950 . S
C236 C234 1.387 . S
C236 C238 1.390 . S
C236 H240 0.950 . S
H237 C233 0.950 . S
C238 C236 1.390 . S
C238 C239 1.387 . S
C238 H241 0.950 . S
C239 C238 1.387 . S
C239 C242 1.387 . S
H240 C236 0.950 . S
H241 C238 0.950 . S
C242 C233 1.390 . S
C242 H235 0.950 . S
C242 C239 1.387 . S
C243 C244 1.387 . S
C243 H247 0.950 . S
C243 C252 1.390 . S
C244 C243 1.387 . S
C244 C246 1.387 . S
H245 C252 0.950 . S
C246 C244 1.387 . S
C246 C248 1.390 . S
C246 H250 0.950 . S
H247 C243 0.950 . S
C248 C246 1.390 . S
C248 C249 1.387 . S
C248 H251 0.950 . S
C249 C248 1.387 . S
C249 C252 1.387 . S
H250 C246 0.950 . S
H251 C248 0.950 . S
C252 C243 1.390 . S
C252 H245 0.950 . S
C252 C249 1.387 . S
C253 C254 1.387 . S
C253 H257 0.950 . S
C253 C262 1.390 . S
C254 C253 1.387 . S
C254 C256 1.387 . S
H255 C262 0.950 . S
C256 C254 1.387 . S
C256 C258 1.390 . S
C256 H260 0.950 . S
H257 C253 0.950 . S
C258 C256 1.390 . S
C258 C259 1.387 . S
C258 H261 0.950 . S
C259 C258 1.387 . S
C259 C262 1.387 . S
H260 C256 0.950 . S
H261 C258 0.950 . S
C262 C253 1.390 . S
C262 H255 0.950 . S
C262 C259 1.387 . S
C263 C264 1.387 . S
C263 H267 0.950 . S
C263 C272 1.390 . S
C264 C263 1.387 . S
C264 C266 1.387 . S
H265 C272 0.950 . S
C266 C264 1.387 . S
C266 C268 1.390 . S
C266 H270 0.950 . S
H267 C263 0.950 . S
C268 C266 1.390 . S
C268 C269 1.387 . S
C268 H271 0.950 . S
C269 C268 1.387 . S
C269 C272 1.387 . S
H270 C266 0.950 . S
H271 C268 0.950 . S
C272 C263 1.390 . S
C272 H265 0.950 . S
C272 C269 1.387 . S
C273 C274 1.387 . S
C273 H277 0.950 . S
C273 C282 1.390 . S
C274 C273 1.387 . S
C274 C276 1.387 . S
H275 C282 0.950 . S
C276 C274 1.387 . S
C276 C278 1.390 . S
C276 H280 0.950 . S
H277 C273 0.950 . S
C278 C276 1.390 . S
C278 C279 1.387 . S
C278 H281 0.950 . S
C279 C278 1.387 . S
C279 C282 1.387 . S
H280 C276 0.950 . S
H281 C278 0.950 . S
C282 C273 1.390 . S
C282 H275 0.950 . S
C282 C279 1.387 . S
C283 C284 1.387 . S
C283 H287 0.950 . S
C283 C292 1.390 . S
C284 C283 1.387 . S
C284 C286 1.387 . S
H285 C292 0.950 . S
C286 C284 1.387 . S
C286 C288 1.390 . S
C286 H290 0.950 . S
H287 C283 0.950 . S
C288 C286 1.390 . S
C288 C289 1.387 . S
C288 H291 0.950 . S
C289 C288 1.387 . S
C289 C292 1.387 . S
H290 C286 0.950 . S
H291 C288 0.950 . S
C292 C283 1.390 . S
C292 H285 0.950 . S
C292 C289 1.387 . S
C293 C294 1.387 . S
C293 H297 0.950 . S
C293 C302 1.390 . S
C294 C293 1.387 . S
C294 C296 1.387 . S
H295 C302 0.950 . S
C296 C294 1.387 . S
C296 C298 1.390 . S
C296 H300 0.950 . S
H297 C293 0.950 . S
C298 C296 1.390 . S
C298 C299 1.387 . S
C298 H301 0.950 . S
C299 C298 1.387 . S
C299 C302 1.387 . S
H300 C296 0.950 . S
H301 C298 0.950 . S
C302 C293 1.390 . S
C302 H295 0.950 . S
C302 C299 1.387 . S
C303 C304 1.387 . S
C303 H307 0.950 1_455 S
C303 C312 1.390 1_554 S
C304 C303 1.387 . S
C304 C306 1.387 . S
H305 C312 0.950 1_655 S
C306 C304 1.387 . S
C306 C308 1.390 1_554 S
C306 H310 0.950 . S
H307 C303 0.950 1_655 S
C308 C306 1.390 1_556 S
C308 C309 1.387 . S
C308 H311 0.950 . S
C309 C308 1.387 . S
C309 C312 1.387 . S
H310 C306 0.950 . S
H311 C308 0.950 . S
C312 C303 1.390 1_556 S
C312 H305 0.950 1_455 S
C312 C309 1.387 . S
C313 C314 1.387 . S
C313 H317 0.950 . S
C313 C322 1.390 . S
C314 C313 1.387 . S
C314 C316 1.387 1_545 S
H315 C322 0.950 . S
C316 C314 1.387 1_565 S
C316 C318 1.390 . S
C316 H320 0.950 . S
H317 C313 0.950 . S
C318 C316 1.390 . S
C318 C319 1.387 1_565 S
C318 H321 0.950 . S
C319 C318 1.387 1_545 S
C319 C322 1.387 . S
H320 C316 0.950 . S
H321 C318 0.950 . S
C322 C313 1.390 . S
C322 H315 0.950 . S
C322 C319 1.387 . S
C323 C324 1.387 . S
C323 H327 0.950 . S
C323 C332 1.390 . S
C324 C323 1.387 . S
C324 C326 1.387 . S
H325 C332 0.950 . S
C326 C324 1.387 . S
C326 C328 1.390 . S
C326 H330 0.950 . S
H327 C323 0.950 . S
C328 C326 1.390 . S
C328 C329 1.387 . S
C328 H331 0.950 . S
C329 C328 1.387 . S
C329 C332 1.387 . S
H330 C326 0.950 . S
H331 C328 0.950 . S
C332 C323 1.390 . S
C332 H325 0.950 . S
C332 C329 1.387 . S
C333 C334 1.387 . S
C333 H337 0.950 1_545 S
C333 C342 1.390 . S
C334 C333 1.387 . S
C334 C336 1.387 . S
H335 C342 0.950 1_565 S
C336 C334 1.387 . S
C336 C338 1.390 . S
C336 H340 0.950 . S
H337 C333 0.950 1_565 S
C338 C336 1.390 . S
C338 C339 1.387 . S
C338 H341 0.950 . S
C339 C338 1.387 . S
C339 C342 1.387 . S
H340 C336 0.950 . S
H341 C338 0.950 . S
C342 C333 1.390 . S
C342 H335 0.950 1_545 S
C342 C339 1.387 . S
C343 C344 1.387 . S
C343 H347 0.950 . S
C343 C352 1.390 1_556 S
C344 C343 1.387 . S
C344 C346 1.387 . S
H345 C352 0.950 . S
C346 C344 1.387 . S
C346 C348 1.390 1_556 S
C346 H350 0.950 . S
H347 C343 0.950 . S
C348 C346 1.390 1_554 S
C348 C349 1.387 . S
C348 H351 0.950 . S
C349 C348 1.387 . S
C349 C352 1.387 . S
H350 C346 0.950 . S
H351 C348 0.950 . S
C352 C343 1.390 1_554 S
C352 H345 0.950 . S
C352 C349 1.387 . S
C353 C354 1.387 . S
C353 H357 0.950 . S
C353 C362 1.390 . S
C354 C353 1.387 . S
C354 C356 1.387 . S
H355 C362 0.950 . S
C356 C354 1.387 . S
C356 C358 1.390 . S
C356 H360 0.950 1_455 S
H357 C353 0.950 . S
C358 C356 1.390 . S
C358 C359 1.387 . S
C358 H361 0.950 1_455 S
C359 C358 1.387 . S
C359 C362 1.387 . S
H360 C356 0.950 1_655 S
H361 C358 0.950 1_655 S
C362 C353 1.390 . S
C362 H355 0.950 . S
C362 C359 1.387 . S
C184 C20 1.364 . S
C189 C175 1.325 . S
C194 C41 1.394 . S
C199 C137 1.341 . S
C204 C64 1.425 . S
C209 C156 1.380 . S
C214 C19 1.385 . S
C219 C170 1.489 . S
C229 C132 1.440 . S
C224 C44 1.423 . S
C239 C151 1.368 . S
C234 C67 1.363 . S
C244 C43 1.353 . S
C249 C99 1.327 . S
C254 C66 1.284 . S
C259 C113 1.353 . S
C264 C21 1.418 . S
C269 C75 1.436 . S
C279 C94 1.467 . S
C274 C42 1.368 . S
C289 C118 1.378 . S
C284 C65 1.364 . S
C294 C18 1.396 . S
C299 C80 1.339 . S
C309 C109 1.574 . S
C304 C17 1.578 . S
C314 C39 1.597 . S
C319 C71 1.581 . S
C324 C62 1.578 . S
C329 C90 1.560 . S
C339 C147 1.574 . S
C334 C40 1.576 . S
C349 C166 1.552 . S
C344 C63 1.570 . S
C354 C16 1.592 . S
C359 C128 1.575 . S
