# Generated by pormake.
# Topology anh, (6,3)-cn, num edge types: 1
# Building blocks:
#     Node 0, Type 0, BuildingBlock: INOVEN_clean_sbu_0, # of connection points: 6
#     Node 1, Type 0, BuildingBlock: INOVEN_clean_sbu_0, # of connection points: 6
#     Node 2, Type 0, BuildingBlock: INOVEN_clean_sbu_0, # of connection points: 6
#     Node 3, Type 1, BuildingBlock: BETDAH_clean_linker_0, # of connection points: 3
#     Node 4, Type 1, BuildingBlock: BETDAH_clean_linker_0, # of connection points: 3
#     Node 5, Type 1, BuildingBlock: BETDAH_clean_linker_0, # of connection points: 3
#     Node 6, Type 1, BuildingBlock: BETDAH_clean_linker_0, # of connection points: 3
#     Node 7, Type 1, BuildingBlock: BETDAH_clean_linker_0, # of connection points: 3
#     Node 8, Type 1, BuildingBlock: BETDAH_clean_linker_0, # of connection points: 3
#     Edge 9, Type (0, 1), BuildingBlock: ZUJKAS_clean_linker_0, # of connection points: 2
#     Edge 10, Type (0, 1), BuildingBlock: ZUJKAS_clean_linker_0, # of connection points: 2
#     Edge 11, Type (0, 1), BuildingBlock: ZUJKAS_clean_linker_0, # of connection points: 2
#     Edge 12, Type (0, 1), BuildingBlock: ZUJKAS_clean_linker_0, # of connection points: 2
#     Edge 13, Type (0, 1), BuildingBlock: ZUJKAS_clean_linker_0, # of connection points: 2
#     Edge 14, Type (0, 1), BuildingBlock: ZUJKAS_clean_linker_0, # of connection points: 2
#     Edge 15, Type (0, 1), BuildingBlock: ZUJKAS_clean_linker_0, # of connection points: 2
#     Edge 16, Type (0, 1), BuildingBlock: ZUJKAS_clean_linker_0, # of connection points: 2
#     Edge 17, Type (0, 1), BuildingBlock: ZUJKAS_clean_linker_0, # of connection points: 2
#     Edge 18, Type (0, 1), BuildingBlock: ZUJKAS_clean_linker_0, # of connection points: 2
#     Edge 19, Type (0, 1), BuildingBlock: ZUJKAS_clean_linker_0, # of connection points: 2
#     Edge 20, Type (0, 1), BuildingBlock: ZUJKAS_clean_linker_0, # of connection points: 2
#     Edge 21, Type (0, 1), BuildingBlock: ZUJKAS_clean_linker_0, # of connection points: 2
#     Edge 22, Type (0, 1), BuildingBlock: ZUJKAS_clean_linker_0, # of connection points: 2
#     Edge 23, Type (0, 1), BuildingBlock: ZUJKAS_clean_linker_0, # of connection points: 2
#     Edge 24, Type (0, 1), BuildingBlock: ZUJKAS_clean_linker_0, # of connection points: 2
#     Edge 25, Type (0, 1), BuildingBlock: ZUJKAS_clean_linker_0, # of connection points: 2
#     Edge 26, Type (0, 1), BuildingBlock: ZUJKAS_clean_linker_0, # of connection points: 2
# Relax obj value: 0.114
# Max RMSD: 0.169
# Mean RMSD: 0.104
data_MOF--net-anh--node1-INOVEN_clean_sbu_0--node2-BETDAH_clean_linker_0--edge1-ZUJKAS_clean_linker_0
_symmetry_space_group_name_H-M    P1
_symmetry_Int_Tables_number       1
_symmetry_cell_setting            triclinic
loop_
_symmetry_equiv_pos_as_xyz
'x, y, z'
_cell_length_a     39.987145
_cell_length_b     47.183026
_cell_length_c     63.830763
_cell_angle_alpha  95.219483
_cell_angle_beta   90.802175
_cell_angle_gamma 127.64617
loop_
_atom_site_label
_atom_site_type_symbol
_atom_site_fract_x
_atom_site_fract_y
_atom_site_fract_z
_atom_type_partial_charge
Gd0 Gd 0.1176 0.54158 0.15208 0.0
Gd1 Gd 0.07438 0.56965 0.17434 0.0
C2 C 0.17018 0.62876 0.16649 0.0
C3 C 0.15739 0.53018 0.12548 0.0
C4 C 0.20057 0.54296 0.12251 0.0
C5 C 0.23181 0.55985 0.13956 0.0
C6 C 0.20956 0.53536 0.10263 0.0
C7 C 0.27851 0.55625 0.11749 0.0
C8 C 0.24826 0.542 0.1001 0.0
C9 C 0.27059 0.56644 0.13706 0.0
C10 C 0.12171 0.54384 0.19433 0.0
C11 C 1.02252 0.48291 0.16164 0.0
C12 C 1.02849 0.57619 0.19897 0.0
C13 C 0.98245 0.5506 0.19982 0.0
C14 C 0.95726 0.5263 0.18184 0.0
C15 C 0.96371 0.54811 0.21866 0.0
C16 C 0.89457 0.49752 0.20126 0.0
C17 C 0.91994 0.52179 0.21937 0.0
C18 C 0.91387 0.50023 0.18251 0.0
C19 C 0.06872 0.56449 0.13161 0.0
O20 O 0.16723 0.60269 0.15449 0.0
O21 O 0.13965 0.62194 0.17822 0.0
O22 O 0.14005 0.5117 0.14138 0.0
O23 O 0.14968 0.55306 0.12335 0.0
O24 O 0.12031 0.52002 0.18161 0.0
O25 O 0.12524 0.56718 0.18428 0.0
O26 O 1.02748 0.50914 0.1744 0.0
O27 O 1.05091 0.48983 0.14828 0.0
O28 O 1.04096 0.59153 0.18163 0.0
O29 O 1.04916 0.5645 0.20479 0.0
O30 O 0.07185 0.58979 0.14372 0.0
O31 O 0.06577 0.54246 0.1426 0.0
H32 H 0.2254 0.56627 0.15498 0.0
H33 H 0.18576 0.52248 0.08931 0.0
H34 H 0.25305 0.53339 0.08489 0.0
H35 H 0.29346 0.57774 0.15067 0.0
H36 H 0.97121 0.52737 0.1672 0.0
H37 H 0.98291 0.56627 0.23279 0.0
H38 H 0.90603 0.52029 0.23406 0.0
H39 H 0.89534 0.48265 0.16811 0.0
Gd40 Gd 0.65557 0.06425 0.48859 0.0
Gd41 Gd 0.59901 0.08415 0.47742 0.0
C42 C 0.55385 1.00143 0.47737 0.0
C43 C 0.68915 0.03817 0.5055 0.0
C44 C 0.67622 0.00308 0.51077 0.0
C45 C 0.65642 0.97275 0.4954 0.0
C46 C 0.68521 1.00022 0.53146 0.0
C47 C 0.6568 0.93784 0.52116 0.0
C48 C 0.67546 0.9679 0.53664 0.0
C49 C 0.64697 0.9405 0.50054 0.0
C50 C 0.64926 0.07056 0.44746 0.0
C51 C 0.70212 0.14721 0.48593 0.0
C52 C 0.56515 0.11145 0.46274 0.0
C53 C 0.57165 0.14544 0.4686 0.0
C54 C 0.59503 0.16706 0.48762 0.0
C55 C 0.55403 0.15621 0.45543 0.0
C56 C 0.58193 0.20958 0.48064 0.0
C57 C 0.55917 0.18804 0.46136 0.0
C58 C 0.59999 0.19874 0.49363 0.0
C59 C 0.60713 0.07962 0.51881 0.0
O60 O 0.58866 0.01195 0.48853 0.0
O61 O 0.55284 0.02455 0.46774 0.0
O62 O 0.68979 0.04234 0.48548 0.0
O63 O 0.67434 0.05243 0.51653 0.0
O64 O 0.68375 0.07994 0.45747 0.0
O65 O 0.61917 0.05617 0.45919 0.0
O66 O 0.66504 0.13706 0.47797 0.0
O67 O 0.70607 0.12426 0.49369 0.0
O68 O 0.54853 0.08886 0.47681 0.0
O69 O 0.59682 0.11443 0.45454 0.0
O70 O 0.57255 0.0703 0.5091 0.0
O71 O 0.63633 0.0932 0.50663 0.0
H72 H 0.64872 0.97401 0.47935 0.0
H73 H 0.70048 0.02325 0.54357 0.0
H74 H 0.68373 0.9668 0.55261 0.0
H75 H 0.63208 0.91764 0.48834 0.0
H76 H 0.60895 0.15914 0.49798 0.0
H77 H 0.53611 0.1399 0.44062 0.0
H78 H 0.54541 0.19582 0.4508 0.0
H79 H 0.61718 0.21427 0.50869 0.0
Gd80 Gd 0.62614 0.59397 0.8539 0.0
Gd81 Gd 0.56575 0.51294 0.8516 0.0
C82 C 0.52332 0.55257 0.85444 0.0
C83 C 0.66713 0.66059 0.84741 0.0
C84 C 0.65897 0.68534 0.8414 0.0
C85 C 0.69066 0.72255 0.84641 0.0
C86 C 0.62083 0.67255 0.83018 0.0
C87 C 0.64697 0.73437 0.8284 0.0
C88 C 0.61486 0.69689 0.82373 0.0
C89 C 0.68475 0.74684 0.84002 0.0
C90 C 0.61418 0.56787 0.89118 0.0
C91 C 0.66942 0.5547 0.85263 0.0
C92 C 0.52755 0.44618 0.85677 0.0
C93 C 0.53588 0.41981 0.85234 0.0
C94 C 0.50579 0.38712 0.83959 0.0
C95 C 0.57379 0.42709 0.86016 0.0
C96 C 0.55166 0.3696 0.84207 0.0
C97 C 0.58157 0.40222 0.85509 0.0
C98 C 0.5136 0.36233 0.83445 0.0
C99 C 0.57781 0.53826 0.81397 0.0
O100 O 0.56059 0.58104 0.84942 0.0
O101 O 0.51891 0.52366 0.85907 0.0
O102 O 0.65701 0.64991 0.86608 0.0
O103 O 0.65738 0.63476 0.83277 0.0
O104 O 0.65072 0.59571 0.88653 0.0
O105 O 0.58602 0.55656 0.87645 0.0
O106 O 0.63072 0.5247 0.85446 0.0
O107 O 0.67557 0.58518 0.85038 0.0
O108 O 0.51918 0.45604 0.84024 0.0
O109 O 0.55231 0.47309 0.87167 0.0
O110 O 0.54177 0.51029 0.81884 0.0
O111 O 0.60618 0.55018 0.82876 0.0
H112 H 0.72023 0.73287 0.85514 0.0
H113 H 0.59596 0.64384 0.82616 0.0
H114 H 0.58552 0.68635 0.8147 0.0
H115 H 0.70978 0.77545 0.84426 0.0
H116 H 0.47638 0.38096 0.83334 0.0
H117 H 0.59756 0.45203 0.8701 0.0
H118 H 0.61095 0.40852 0.86147 0.0
H119 H 0.49012 0.33779 0.82413 0.0
H120 H 0.53917 0.99351 0.22875 0.0
H121 H 0.63949 0.09958 0.21379 0.0
H122 H 0.55915 0.01231 0.16391 0.0
C123 C 0.55671 0.01172 0.21711 0.0
C124 C 0.5453 0.99846 0.1956 0.0
C125 C 0.59029 0.04814 0.22382 0.0
C126 C 0.61342 0.0715 0.20867 0.0
C127 C 0.60199 0.05857 0.18695 0.0
C128 C 0.56775 0.0222 0.18061 0.0
N129 N 0.62379 0.08108 0.17097 0.0
C130 C 0.6597 0.11702 0.17452 0.0
H131 H 0.61904 0.51309 0.59472 0.0
H132 H 0.61286 0.59945 0.58637 0.0
H133 H 0.59684 0.52935 0.53246 0.0
C134 C 0.61598 0.52861 0.58446 0.0
C135 C 0.60847 0.51801 0.56257 0.0
C136 C 0.61731 0.55778 0.59327 0.0
C137 C 0.61178 0.5769 0.57976 0.0
C138 C 0.60443 0.56656 0.55778 0.0
C139 C 0.60247 0.53707 0.54941 0.0
N140 N 0.5981 0.58458 0.54349 0.0
C141 C 0.6059 0.61752 0.54853 0.0
H142 H 1.01657 0.55108 0.90711 0.0
H143 H 0.12321 0.55104 0.89822 0.0
H144 H 0.05907 0.5557 0.84528 0.0
C145 C 1.03783 0.55102 0.8968 0.0
C146 C 1.03268 0.55229 0.87523 0.0
C147 C 0.07002 0.5504 0.90536 0.0
C148 C 0.09872 0.55201 0.8919 0.0
C149 C 0.09545 0.55424 0.8702 0.0
C150 C 0.06226 0.55449 0.86199 0.0
N151 N 0.12433 0.55577 0.85624 0.0
C152 C 0.15893 0.55588 0.86139 0.0
H153 H 0.18854 0.6344 0.4142 0.0
H154 H 0.08887 0.528 0.42906 0.0
H155 H 0.16533 0.61616 0.47891 0.0
C156 C 0.17056 0.61623 0.42577 0.0
C157 C 0.18096 0.62977 0.44728 0.0
C158 C 0.13779 0.57957 0.419 0.0
C159 C 0.11417 0.5563 0.43414 0.0
C160 C 0.1241 0.56952 0.45583 0.0
C161 C 0.15771 0.6061 0.46222 0.0
N162 N 0.10143 0.54704 0.47173 0.0
C163 C 0.0669 0.51053 0.46809 0.0
H164 H 0.61015 0.11481 0.7383 0.0
H165 H 0.63386 0.0396 0.74911 0.0
H166 H 0.63235 0.10233 0.80176 0.0
C167 C 0.61667 0.10204 0.74916 0.0
C168 C 0.62033 0.11174 0.77102 0.0
C169 C 0.6218 0.07629 0.74112 0.0
C170 C 0.62994 0.05951 0.75522 0.0
C171 C 0.63312 0.06865 0.77716 0.0
C172 C 0.62881 0.09493 0.78485 0.0
N173 N 0.64131 0.05257 0.79208 0.0
C174 C 0.63768 0.02138 0.78755 0.0
H175 H 0.55891 0.36911 0.07428 0.0
H176 H 0.43859 0.34407 0.05637 0.0
H177 H 0.45345 0.30659 0.11172 0.0
C178 C 0.52578 0.3554 0.07668 0.0
C179 C 0.50918 0.33719 0.09456 0.0
C180 C 0.50044 0.35773 0.06257 0.0
C181 C 0.45813 0.34128 0.06651 0.0
C182 C 0.44125 0.32281 0.08417 0.0
C183 C 0.46644 0.32004 0.0978 0.0
N184 N 0.40091 0.31105 0.08984 0.0
C185 C 0.391 0.33457 0.09007 0.0
H186 H 0.33085 0.57376 0.08546 0.0
H187 H 0.37218 0.55196 0.07831 0.0
H188 H 0.34541 0.51035 0.13834 0.0
H189 H 0.30451 0.53198 0.1456 0.0
H190 H 0.42549 0.53377 0.12543 0.0
H191 H 0.29271 0.44179 0.06274 0.0
H192 H 0.32445 0.48932 0.06095 0.0
H193 H 0.29154 0.47106 0.08239 0.0
C194 C 0.33493 0.56094 0.09738 0.0
C195 C 0.31373 0.55393 0.11589 0.0
C196 C 0.35849 0.54852 0.09328 0.0
C197 C 0.36077 0.52872 0.10756 0.0
C198 C 0.34383 0.52544 0.12707 0.0
H199 H 0.37561 0.36188 0.12391 0.0
H200 H 0.37588 0.41424 0.12634 0.0
C201 C 0.32052 0.53797 0.13123 0.0
C202 C 0.37376 0.50609 0.1011 0.0
H203 H 0.33736 0.42747 0.07078 0.0
C204 C 0.40683 0.51092 0.1132 0.0
C205 C 0.34916 0.47621 0.08516 0.0
C206 C 0.31229 0.46895 0.0721 0.0
C207 C 0.41483 0.48577 0.11036 0.0
C208 C 0.38856 0.45483 0.09531 0.0
C209 C 0.35726 0.45118 0.08235 0.0
C210 C 0.39021 0.42426 0.09399 0.0
C211 C 0.45066 0.49213 0.12381 0.0
C212 C 0.39662 0.41183 0.07481 0.0
C213 C 0.39577 0.38166 0.07336 0.0
C214 C 0.38805 0.36348 0.09101 0.0
C215 C 0.38123 0.37555 0.1101 0.0
C216 C 0.38205 0.40567 0.11157 0.0
H217 H 0.47556 0.52133 0.12914 0.0
H218 H 0.43815 0.47822 0.13809 0.0
H219 H 0.46535 0.48137 0.11512 0.0
H220 H 0.40245 0.42557 0.06102 0.0
H221 H 0.40156 0.37281 0.05855 0.0
H222 H 0.78559 0.17805 0.49688 0.0
H223 H 0.84811 0.23991 0.49385 0.0
H224 H 0.76749 0.26381 0.47006 0.0
H225 H 0.70501 0.20247 0.47325 0.0
H226 H 0.87434 0.27434 0.45715 0.0
H227 H 0.84376 0.34734 0.51687 0.0
H228 H 0.81675 0.29943 0.51534 0.0
H229 H 0.80006 0.31664 0.49735 0.0
C230 C 0.7811 0.19657 0.49124 0.0
C231 C 0.74016 0.18522 0.4854 0.0
C232 C 0.8169 0.2319 0.48944 0.0
C233 C 0.81249 0.25666 0.48196 0.0
C234 C 0.77169 0.24545 0.47625 0.0
H235 H 0.98513 0.48003 0.45664 0.0
H236 H 0.92318 0.41718 0.45868 0.0
C237 C 0.73594 0.21021 0.478 0.0
C238 C 0.8505 0.2938 0.47938 0.0
H239 H 0.89835 0.38296 0.49463 0.0
C240 C 0.87977 0.29811 0.46545 0.0
C241 C 0.85744 0.3248 0.49012 0.0
C242 C 0.82808 0.32196 0.50591 0.0
C243 C 0.9153 0.33255 0.46165 0.0
C244 C 0.9222 0.36357 0.47236 0.0
C245 C 0.89297 0.35922 0.48634 0.0
C246 C 0.95986 0.40081 0.46963 0.0
C247 C 0.94456 0.33539 0.4458 0.0
C248 C 1.00105 0.4125 0.47502 0.0
C249 C 1.0363 0.44824 0.47376 0.0
C250 C 1.03087 0.47284 0.46717 0.0
C251 C 0.98991 0.46126 0.46153 0.0
C252 C 0.95463 0.42549 0.46279 0.0
H253 H 0.9288 0.31002 0.43482 0.0
H254 H 0.95584 0.35793 0.43638 0.0
H255 H 0.9726 0.34068 0.4543 0.0
H256 H 1.0059 0.39427 0.4808 0.0
H257 H 0.06769 0.4569 0.47847 0.0
H258 H 0.70591 0.79732 0.81238 0.0
H259 H 0.69843 0.84206 0.80236 0.0
H260 H 0.56797 0.77493 0.81688 0.0
H261 H 0.5756 0.73056 0.82772 0.0
H262 H 0.64393 0.83707 0.77188 0.0
H263 H 0.61775 0.87099 0.85259 0.0
H264 H 0.63684 0.84508 0.84755 0.0
H265 H 0.58149 0.82405 0.8423 0.0
C266 C 0.67571 0.79218 0.81365 0.0
C267 C 0.64152 0.76054 0.82115 0.0
C268 C 0.67139 0.81765 0.80773 0.0
C269 C 0.63287 0.81211 0.80918 0.0
C270 C 0.59823 0.78006 0.81599 0.0
H271 H 0.56802 0.95535 0.793 0.0
H272 H 0.56363 0.90156 0.79564 0.0
C273 C 0.60253 0.75455 0.82198 0.0
C274 C 0.62947 0.84033 0.80397 0.0
H275 H 0.61309 0.89947 0.82546 0.0
C276 C 0.63707 0.85067 0.78356 0.0
C277 C 0.62061 0.85807 0.81926 0.0
C278 C 0.61406 0.8493 0.84171 0.0
C279 C 0.63594 0.87825 0.77802 0.0
C280 C 0.62754 0.89622 0.79338 0.0
C281 C 0.61933 0.88551 0.81368 0.0
C282 C 0.62874 0.92722 0.78914 0.0
C283 C 0.64343 0.88773 0.75574 0.0
C284 C 0.66663 0.95933 0.78438 0.0
C285 C 0.66906 0.98993 0.78284 0.0
C286 C 0.63367 0.98876 0.78606 0.0
C287 C 0.5955 0.95653 0.79023 0.0
C288 C 0.59305 0.92595 0.7918 0.0
H289 H 0.63766 0.86537 0.74459 0.0
H290 H 0.62269 0.89429 0.75021 0.0
H291 H 0.6769 0.91178 0.75531 0.0
H292 H 0.69481 0.96118 0.78274 0.0
H293 H 0.69896 0.01482 0.77992 0.0
H294 H 0.84275 0.42804 0.18168 0.0
H295 H 0.76667 0.39184 0.17256 0.0
H296 H 0.7634 0.4689 0.21238 0.0
H297 H 0.84021 0.50678 0.22031 0.0
H298 H 0.69151 0.35883 0.18935 0.0
H299 H 0.73399 0.48013 0.15482 0.0
H300 H 0.77355 0.47728 0.16559 0.0
H301 H 0.74566 0.48702 0.18287 0.0
C302 C 0.82581 0.43719 0.18865 0.0
C303 C 0.84777 0.47101 0.20101 0.0
C304 C 0.78219 0.41621 0.18363 0.0
C305 C 0.7597 0.42839 0.19118 0.0
C306 C 0.78051 0.45965 0.20585 0.0
H307 H 0.514 0.35546 0.13679 0.0
H308 H 0.56905 0.37144 0.16362 0.0
C309 C 0.82439 0.48109 0.21055 0.0
C310 C 0.71683 0.41146 0.18111 0.0
H311 H 0.66357 0.42825 0.14877 0.0
C312 C 0.68517 0.37407 0.18072 0.0
C313 C 0.70889 0.43135 0.16953 0.0
C314 C 0.74235 0.47106 0.168 0.0
C315 C 0.64615 0.35601 0.16867 0.0
C316 C 0.63879 0.37593 0.15699 0.0
C317 C 0.66961 0.41331 0.15796 0.0
C318 C 0.60077 0.35864 0.14226 0.0
C319 C 0.61337 0.31576 0.16796 0.0
C320 C 0.60031 0.34568 0.12151 0.0
C321 C 0.56912 0.33677 0.10608 0.0
C322 C 0.53795 0.34062 0.11127 0.0
C323 C 0.53723 0.3517 0.13238 0.0
C324 C 0.56861 0.36086 0.14773 0.0
H325 H 0.62216 0.3046 0.17951 0.0
H326 H 0.58214 0.30891 0.17123 0.0
H327 H 0.60972 0.30258 0.15186 0.0
H328 H 0.62541 0.34436 0.11702 0.0
H329 H 0.57028 0.3282 0.08996 0.0
H330 H 0.54243 0.94647 0.49631 0.0
H331 H 0.47908 0.88321 0.49293 0.0
H332 H 0.41542 0.90614 0.45081 0.0
H333 H 0.47844 0.96928 0.45399 0.0
H334 H 0.39346 0.8541 0.50194 0.0
H335 H 0.4041 0.82041 0.41789 0.0
H336 H 0.44829 0.85996 0.43426 0.0
H337 H 0.40647 0.85968 0.42325 0.0
C338 C 0.51502 0.93808 0.48627 0.0
C339 C 0.51567 0.96299 0.47533 0.0
C340 C 0.47881 0.90191 0.48441 0.0
C341 C 0.44274 0.8899 0.47144 0.0
C342 C 0.44314 0.91472 0.46066 0.0
H343 H 0.19702 0.68811 0.431 0.0
H344 H 0.25996 0.75114 0.43863 0.0
C345 C 0.47921 0.95087 0.46256 0.0
C346 C 0.40452 0.85147 0.46918 0.0
H347 H 0.34088 0.77679 0.43289 0.0
C348 C 0.38202 0.83706 0.4869 0.0
C349 C 0.38974 0.82934 0.44953 0.0
C350 C 0.41353 0.84293 0.43016 0.0
C351 C 0.34434 0.80137 0.48534 0.0
C352 C 0.3293 0.77935 0.46561 0.0
C353 C 0.35225 0.7937 0.44799 0.0
C354 C 0.28953 0.7415 0.46262 0.0
C355 C 0.32033 0.78797 0.50465 0.0
C356 C 0.28484 0.71507 0.47376 0.0
C357 C 0.24867 0.67892 0.46947 0.0
C358 C 0.21685 0.66852 0.45376 0.0
C359 C 0.22118 0.69522 0.44305 0.0
C360 C 0.25711 0.73126 0.44741 0.0
H361 H 0.32969 0.8106 0.5168 0.0
H362 H 0.28559 0.77093 0.50049 0.0
H363 H 0.32736 0.77134 0.51176 0.0
H364 H 0.30978 0.72213 0.48525 0.0
H365 H 0.24647 0.6589 0.47779 0.0
H366 H 0.62707 0.38427 0.8323 0.0
H367 H 0.64036 0.34113 0.82134 0.0
H368 H 0.50934 0.25288 0.82679 0.0
H369 H 0.49585 0.29567 0.83831 0.0
H370 H 0.62312 0.28113 0.84353 0.0
H371 H 0.53432 0.23726 0.76451 0.0
H372 H 0.55338 0.27909 0.78022 0.0
H373 H 0.50708 0.23707 0.78676 0.0
C374 C 0.60116 0.35571 0.83148 0.0
C375 C 0.56029 0.34349 0.8361 0.0
C376 C 0.60881 0.33112 0.8251 0.0
C377 C 0.57571 0.29391 0.82304 0.0
C378 C 0.53513 0.28155 0.82799 0.0
H379 H 0.57949 0.11137 0.8053 0.0
H380 H 0.57078 0.15665 0.81856 0.0
C381 C 0.52748 0.30607 0.83449 0.0
C382 C 0.58345 0.26795 0.81544 0.0
H383 H 0.5594 0.20552 0.77397 0.0
C384 C 0.60927 0.2646 0.82833 0.0
C385 C 0.56562 0.24675 0.79551 0.0
C386 C 0.53878 0.25025 0.78081 0.0
C387 C 0.61716 0.24003 0.82193 0.0
C388 C 0.59859 0.21829 0.80219 0.0
C389 C 0.57335 0.2221 0.78916 0.0
C390 C 0.60516 0.19153 0.79466 0.0
C391 C 0.64565 0.23774 0.83617 0.0
C392 C 0.62705 0.19604 0.77673 0.0
C393 C 0.63238 0.1704 0.7692 0.0
C394 C 0.61548 0.13948 0.77933 0.0
C395 C 0.5935 0.1351 0.79732 0.0
C396 C 0.5884 0.16089 0.8049 0.0
H397 H 0.66424 0.26121 0.84869 0.0
H398 H 0.62598 0.21285 0.84393 0.0
H399 H 0.66793 0.23623 0.8269 0.0
H400 H 0.64017 0.21954 0.76862 0.0
H401 H 0.65002 0.17495 0.75552 0.0
H402 H 0.67472 0.89767 0.49813 0.0
H403 H 0.66498 0.84383 0.5071 0.0
H404 H 0.61322 0.84885 0.56484 0.0
H405 H 0.62267 0.90278 0.55594 0.0
H406 H 0.70087 0.84114 0.54961 0.0
H407 H 0.52571 0.74151 0.53111 0.0
H408 H 0.55738 0.78236 0.51874 0.0
H409 H 0.5477 0.78464 0.54594 0.0
C410 C 0.66077 0.88708 0.51261 0.0
C411 C 0.64932 0.90439 0.5263 0.0
C412 C 0.65549 0.85649 0.51776 0.0
C413 C 0.63826 0.84241 0.53656 0.0
C414 C 0.6264 0.85931 0.5502 0.0
H415 H 0.57094 0.63993 0.57436 0.0
H416 H 0.58062 0.69681 0.57466 0.0
C417 C 0.632 0.89014 0.54515 0.0
C418 C 0.63372 0.81046 0.54199 0.0
H419 H 0.5614 0.71939 0.54196 0.0
C420 C 0.67039 0.81452 0.54811 0.0
C421 C 0.59386 0.77598 0.54023 0.0
C422 C 0.55373 0.77049 0.53359 0.0
C423 C 0.66833 0.78476 0.55215 0.0
C424 C 0.62865 0.7499 0.54944 0.0
C425 C 0.59179 0.74608 0.54401 0.0
C426 C 0.62506 0.71686 0.55062 0.0
C427 C 0.70871 0.79099 0.5593 0.0
C428 C 0.64672 0.70927 0.53704 0.0
C429 C 0.64138 0.67712 0.53699 0.0
C430 C 0.61405 0.65194 0.55037 0.0
C431 C 0.59253 0.65936 0.56409 0.0
C432 C 0.59795 0.69166 0.5642 0.0
H433 H 0.73258 0.81885 0.56737 0.0
H434 H 0.70269 0.77157 0.5702 0.0
H435 H 0.72258 0.78749 0.54531 0.0
H436 H 0.66686 0.72775 0.52603 0.0
H437 H 0.65774 0.67151 0.52607 0.0
H438 H 0.75227 0.60817 0.84478 0.0
H439 H 0.81277 0.60713 0.8455 0.0
H440 H 0.73324 0.49955 0.86315 0.0
H441 H 0.67243 0.50003 0.86175 0.0
H442 H 0.85561 0.60353 0.87471 0.0
H443 H 0.78622 0.48181 0.81741 0.0
H444 H 0.76085 0.50269 0.82153 0.0
H445 H 0.75445 0.47223 0.83917 0.0
C446 C 0.7474 0.58408 0.84866 0.0
C447 C 0.70683 0.55405 0.85303 0.0
C448 C 0.78234 0.58355 0.84911 0.0
C449 C 0.77816 0.55298 0.85393 0.0
C450 C 0.73776 0.52319 0.85866 0.0
H451 H 0.94904 0.5014 0.88089 0.0
H452 H 0.88952 0.50264 0.87431 0.0
C453 C 0.70272 0.52358 0.85803 0.0
C454 C 0.81611 0.5528 0.85463 0.0
H455 H 0.84967 0.50321 0.83793 0.0
C456 C 0.85422 0.58169 0.86644 0.0
C457 C 0.81525 0.52455 0.84388 0.0
C458 C 0.77716 0.49378 0.82962 0.0
C459 C 0.89025 0.58255 0.8683 0.0
C460 C 0.889 0.55394 0.85793 0.0
C461 C 0.85113 0.52525 0.84596 0.0
C462 C 0.92562 0.55234 0.86025 0.0
C463 C 0.92904 0.61365 0.88203 0.0
C464 C 0.96619 0.57915 0.85393 0.0
C465 C 1.00056 0.5782 0.85746 0.0
C466 C 0.99538 0.55052 0.86752 0.0
C467 C 0.95439 0.52311 0.87306 0.0
C468 C 0.92015 0.52385 0.86935 0.0
H469 H 0.92208 0.6293 0.89248 0.0
H470 H 0.94221 0.6039 0.89199 0.0
H471 H 0.95375 0.63217 0.87182 0.0
H472 H 0.97153 0.60119 0.84652 0.0
H473 H 1.03157 0.59997 0.85316 0.0
H474 H 0.18199 0.69005 0.18284 0.0
H475 H 0.24625 0.75227 0.18462 0.0
H476 H 0.31151 0.71538 0.15451 0.0
H477 H 0.24679 0.65296 0.15208 0.0
H478 H 0.32069 0.78309 0.20534 0.0
H479 H 0.34286 0.79465 0.12018 0.0
H480 H 0.29451 0.75735 0.12951 0.0
H481 H 0.33995 0.75801 0.12863 0.0
C482 C 0.20991 0.69512 0.17646 0.0
C483 C 0.20922 0.6665 0.1673 0.0
C484 C 0.24665 0.73076 0.17747 0.0
C485 C 0.28361 0.73864 0.16943 0.0
C486 C 0.28312 0.71011 0.16032 0.0
H487 H 0.53289 0.94026 0.20981 0.0
H488 H 0.47064 0.87689 0.20215 0.0
C489 C 0.24616 0.67439 0.1591 0.0
C490 C 0.32306 0.77657 0.17169 0.0
H491 H 0.40016 0.84274 0.14432 0.0
C492 C 0.33794 0.79613 0.19196 0.0
C493 C 0.34533 0.79379 0.15421 0.0
C494 C 0.32966 0.77501 0.13188 0.0
C495 C 0.37452 0.83221 0.1953 0.0
C496 C 0.39774 0.84901 0.17796 0.0
C497 C 0.38265 0.82968 0.15763 0.0
C498 C 0.43736 0.88682 0.18074 0.0
C499 C 0.3873 0.8522 0.21735 0.0
C500 C 0.44037 0.91322 0.17035 0.0
C501 C 0.47627 0.94945 0.17448 0.0
C502 C 0.50958 0.9598 0.18914 0.0
C503 C 0.50732 0.93307 0.19872 0.0
C504 C 0.47173 0.89691 0.19442 0.0
H505 H 0.36018 0.83921 0.22731 0.0
H506 H 0.41232 0.85208 0.22497 0.0
H507 H 0.40007 0.88067 0.21705 0.0
H508 H 0.41433 0.90598 0.15961 0.0
H509 H 0.47721 0.96953 0.16691 0.0
H510 H 0.52197 0.21995 0.47567 0.0
H511 H 0.52801 0.27364 0.4878 0.0
H512 H 0.65576 0.32696 0.51445 0.0
H513 H 0.65086 0.27418 0.5014 0.0
H514 H 0.54057 0.30429 0.52767 0.0
H515 H 0.67206 0.40372 0.48252 0.0
H516 H 0.64438 0.3558 0.47662 0.0
H517 H 0.68552 0.38159 0.49801 0.0
C518 C 0.55172 0.24336 0.48368 0.0
C519 C 0.58599 0.24269 0.48745 0.0
C520 C 0.55498 0.27395 0.49077 0.0
C521 C 0.59254 0.30456 0.50177 0.0
C522 C 0.62679 0.30401 0.50559 0.0
H523 H 0.66219 0.50248 0.57201 0.0
H524 H 0.65781 0.45037 0.55714 0.0
C525 C 0.62368 0.27354 0.49837 0.0
C526 C 0.59509 0.33632 0.51012 0.0
H527 H 0.653 0.42748 0.51029 0.0
C528 C 0.56496 0.33116 0.52373 0.0
C529 C 0.62695 0.37142 0.50498 0.0
C530 C 0.6588 0.37848 0.48957 0.0
C531 C 0.56628 0.3602 0.5326 0.0
C532 C 0.59845 0.39524 0.52769 0.0
C533 C 0.62852 0.40051 0.51408 0.0
C534 C 0.60117 0.42677 0.53649 0.0
C535 C 0.53374 0.35341 0.54746 0.0
C536 C 0.57093 0.43075 0.52963 0.0
C537 C 0.57341 0.46046 0.53803 0.0
C538 C 0.6061 0.48663 0.5535 0.0
C539 C 0.63642 0.48257 0.56027 0.0
C540 C 0.63411 0.45298 0.55174 0.0
H541 H 0.51535 0.32594 0.55236 0.0
H542 H 0.5493 0.37361 0.56179 0.0
H543 H 0.51124 0.35624 0.53949 0.0
H544 H 0.54543 0.41086 0.51778 0.0
H545 H 0.5494 0.46271 0.53262 0.0
H546 H 0.5197 0.60807 0.84803 0.0
H547 H 0.45922 0.60912 0.85029 0.0
H548 H 0.38093 0.49951 0.86468 0.0
H549 H 0.4413 0.49858 0.86292 0.0
H550 H 0.38328 0.57218 0.8287 0.0
H551 H 0.35344 0.5427 0.91117 0.0
H552 H 0.40051 0.55372 0.89981 0.0
H553 H 0.35137 0.50858 0.89486 0.0
C554 C 0.48971 0.58417 0.8518 0.0
C555 C 0.486 0.55332 0.85544 0.0
C556 C 0.45486 0.58479 0.85307 0.0
C557 C 0.41504 0.55468 0.85815 0.0
C558 C 0.41116 0.52365 0.86139 0.0
H559 H 0.16197 0.50109 0.86856 0.0
H560 H 0.22368 0.50125 0.86783 0.0
C561 C 0.44596 0.52304 0.86018 0.0
C562 C 0.3776 0.55544 0.85954 0.0
H563 H 0.30025 0.53957 0.89124 0.0
C564 C 0.36545 0.56527 0.84249 0.0
C565 C 0.35358 0.54641 0.87742 0.0
C566 C 0.36559 0.53761 0.89693 0.0
C567 C 0.33013 0.56551 0.84258 0.0
C568 C 0.30602 0.55634 0.86042 0.0
C569 C 0.31817 0.54655 0.87748 0.0
C570 C 0.26829 0.55669 0.86165 0.0
C571 C 0.31826 0.57461 0.82316 0.0
C572 C 0.27213 0.58791 0.85899 0.0
C573 C 0.23675 0.58781 0.8595 0.0
C574 C 0.19641 0.55664 0.86289 0.0
C575 C 0.19257 0.52565 0.86606 0.0
C576 C 0.22801 0.52574 0.86558 0.0
H577 H 0.33131 0.57054 0.80896 0.0
H578 H 0.28331 0.55791 0.82001 0.0
H579 H 0.33154 0.60341 0.82562 0.0
H580 H 0.30261 0.61253 0.85646 0.0
H581 H 0.24089 0.61213 0.85693 0.0
H582 H 0.95549 0.45991 0.18522 0.0
H583 H 0.89403 0.39794 0.18813 0.0
H584 H 0.94054 0.3585 0.14308 0.0
H585 H 1.00252 0.42056 0.14014 0.0
H586 H 0.8314 0.3435 0.15736 0.0
H587 H 0.92212 0.30395 0.1936 0.0
H588 H 0.94481 0.35039 0.19177 0.0
H589 H 0.94007 0.32222 0.16909 0.0
C590 C 0.95275 0.43813 0.17587 0.0
C591 C 0.98418 0.44526 0.16252 0.0
C592 C 0.91751 0.40268 0.17757 0.0
C593 C 0.91308 0.37358 0.16613 0.0
C594 C 0.9438 0.38055 0.1524 0.0
H595 H 0.72779 0.14119 0.15306 0.0
H596 H 0.78932 0.20429 0.15182 0.0
C597 C 0.97906 0.41606 0.15063 0.0
C598 C 0.8762 0.33597 0.16854 0.0
H599 H 0.84909 0.25715 0.18352 0.0
C600 C 0.8352 0.32464 0.16317 0.0
C601 C 0.88126 0.31148 0.17622 0.0
C602 C 0.92439 0.32261 0.1832 0.0
C603 C 0.79916 0.28916 0.16471 0.0
C604 C 0.80424 0.26455 0.17222 0.0
C605 C 0.84524 0.27602 0.17777 0.0
C606 C 0.76756 0.22644 0.17374 0.0
C607 C 0.75606 0.27805 0.15771 0.0
C608 C 0.73532 0.21788 0.18684 0.0
C609 C 0.7002 0.18184 0.18754 0.0
C610 C 0.69717 0.15402 0.17531 0.0
C611 C 0.72976 0.1624 0.16267 0.0
C612 C 0.76478 0.19835 0.16195 0.0
H613 H 0.75837 0.29711 0.14765 0.0
H614 H 0.73594 0.25056 0.14877 0.0
H615 H 0.74 0.27773 0.17182 0.0
H616 H 0.73721 0.23906 0.1964 0.0
H617 H 0.67523 0.17576 0.19737 0.0
H618 H 0.07138 0.51679 0.10597 0.0
H619 H 0.07893 0.51521 0.06816 0.0
H620 H 0.0714 0.60248 0.0665 0.0
H621 H 0.06816 0.6064 0.10485 0.0
H622 H 1.03207 0.4993 0.03659 0.0
H623 H 0.16944 0.64133 0.03367 0.0
H624 H 0.15213 0.62305 0.05831 0.0
H625 H 0.12741 0.63908 0.04515 0.0
C626 C 0.07232 0.53618 0.09762 0.0
C627 C 0.07034 0.56234 0.10844 0.0
C628 C 0.07628 0.5351 0.07591 0.0
C629 C 0.07694 0.55938 0.06434 0.0
C630 C 0.0729 0.58447 0.07505 0.0
H631 H 1.00493 0.51331 0.93079 0.0
H632 H 1.0094 0.51577 0.96884 0.0
C633 C 0.07041 0.58636 0.09695 0.0
C634 C 0.07989 0.55715 0.04102 0.0
H635 H 0.12789 0.6078 0.00069 0.0
C636 C 1.05354 0.52309 0.02885 0.0
C637 C 0.10858 0.58784 0.0307 0.0
C638 C 0.1413 0.62476 0.0427 0.0
C639 C 1.05418 0.51897 0.00683 0.0
C640 C 0.08006 0.55001 0.99636 0.0
C641 C 0.10742 0.58395 0.00854 0.0
C642 C 0.07783 0.54809 0.97286 0.0
C643 C 1.02762 0.48119 0.99523 0.0
C644 C 0.11489 0.56664 0.96217 0.0
C645 C 0.11257 0.56682 0.94024 0.0
C646 C 0.07306 0.54818 0.92847 0.0
C647 C 1.03607 0.52874 0.93921 0.0
C648 C 1.03848 0.52939 0.96109 0.0
H649 H 1.02442 0.46189 0.00541 0.0
H650 H 0.99523 0.47226 0.99099 0.0
H651 H 1.04146 0.47966 0.98062 0.0
H652 H 0.14575 0.58148 0.97084 0.0
H653 H 0.14181 0.58246 0.93267 0.0
H654 H 0.57847 0.05007 0.42411 0.0
H655 H 0.57101 0.05269 0.38631 0.0
H656 H 0.70271 0.09971 0.38212 0.0
H657 H 0.71052 0.09762 0.41999 0.0
H658 H 0.676 0.133 0.35987 0.0
H659 H 0.56748 0.98387 0.34035 0.0
H660 H 0.55047 1.00095 0.3602 0.0
H661 H 0.5983 0.0061 0.36551 0.0
C662 C 0.60582 0.06103 0.41513 0.0
C663 C 0.64495 0.07328 0.42488 0.0
C664 C 0.60151 0.06243 0.39355 0.0
C665 C 0.63615 0.07587 0.38137 0.0
C666 C 0.67556 0.0891 0.39123 0.0
H667 H 0.66757 0.08648 0.24663 0.0
H668 H 0.68116 0.09769 0.28528 0.0
C669 C 0.67992 0.08777 0.41281 0.0
C670 C 0.63101 0.07518 0.35823 0.0
H671 H 0.57786 0.01794 0.31272 0.0
C672 C 0.65463 0.10788 0.34951 0.0
C673 C 0.60331 0.04234 0.34479 0.0
C674 C 0.5787 0.00627 0.3531 0.0
C675 C 0.65048 0.10863 0.32769 0.0
C676 C 0.62244 0.07577 0.3143 0.0
C677 C 0.59914 0.04312 0.32305 0.0
C678 C 0.61626 0.07416 0.29113 0.0
C679 C 0.67536 0.1445 0.31919 0.0
C680 C 0.5755 0.05769 0.28163 0.0
C681 C 0.56773 0.05112 0.25969 0.0
C682 C 0.60054 0.06081 0.24678 0.0
C683 C 0.64184 0.07905 0.25623 0.0
C684 C 0.64961 0.08549 0.27829 0.0
H685 H 0.68726 0.16715 0.33188 0.0
H686 H 0.70311 0.14922 0.31187 0.0
H687 H 0.65568 0.14477 0.30688 0.0
H688 H 0.54935 0.04877 0.29124 0.0
H689 H 0.53566 0.03732 0.2528 0.0
H690 H 0.6541 0.5878 0.79865 0.0
H691 H 0.66693 0.59976 0.7618 0.0
H692 H 0.53259 0.52293 0.74381 0.0
H693 H 0.51962 0.51085 0.78043 0.0
H694 H 0.5839 0.51123 0.72036 0.0
H695 H 0.64089 0.65273 0.72377 0.0
H696 H 0.66608 0.64415 0.74299 0.0
H697 H 0.61112 0.62452 0.74394 0.0
C698 C 0.62732 0.57393 0.78686 0.0
C699 C 0.58588 0.5483 0.79235 0.0
C700 C 0.63467 0.58088 0.76586 0.0
C701 C 0.60066 0.56239 0.75012 0.0
C702 C 0.55924 0.53753 0.75573 0.0
H703 H 0.57314 0.57342 0.61747 0.0
H704 H 0.57379 0.57889 0.65604 0.0
C705 C 0.55189 0.53065 0.77665 0.0
C706 C 0.60809 0.56648 0.72754 0.0
H707 H 0.64192 0.62543 0.69098 0.0
C708 C 0.59671 0.53622 0.71394 0.0
C709 C 0.62457 0.59907 0.71924 0.0
C710 C 0.63615 0.632 0.73314 0.0
C711 C 0.60121 0.53759 0.69224 0.0
C712 C 0.61802 0.57024 0.68393 0.0
C713 C 0.62939 0.60056 0.69748 0.0
C714 C 0.6224 0.57256 0.66102 0.0
C715 C 0.58704 0.50382 0.67827 0.0
C716 C 0.6506 0.5685 0.65115 0.0
C717 C 0.65039 0.56546 0.62917 0.0
C718 C 0.622 0.56648 0.61662 0.0
C719 C 0.59556 0.57273 0.62666 0.0
C720 C 0.5958 0.57577 0.64869 0.0
H721 H 0.56713 0.47934 0.68641 0.0
H722 H 0.56875 0.50003 0.66361 0.0
H723 H 0.61533 0.50634 0.67366 0.0
H724 H 0.67177 0.56645 0.66044 0.0
H725 H 0.67169 0.56133 0.62193 0.0
H726 H 0.67937 0.10406 0.54275 0.0
H727 H 0.68562 0.09695 0.5799 0.0
H728 H 0.55141 0.04128 0.58253 0.0
H729 H 0.54483 0.0472 0.54538 0.0
H730 H 0.66925 0.12287 0.61413 0.0
H731 H 0.56501 0.97408 0.60879 0.0
H732 H 0.58389 0.99751 0.58577 0.0
H733 H 0.53847 0.98958 0.59739 0.0
C734 C 0.65116 0.08981 0.55121 0.0
C735 C 0.61154 0.0758 0.54116 0.0
C736 C 0.65476 0.08585 0.57241 0.0
C737 C 0.61881 0.06784 0.58388 0.0
C738 C 0.57935 0.05428 0.57387 0.0
H739 H 0.56131 0.06037 0.7113 0.0
H740 H 0.56322 0.05543 0.67287 0.0
C741 C 0.57571 0.05803 0.55269 0.0
C742 C 0.6227 0.06525 0.60668 0.0
H743 H 0.57882 0.00621 0.64347 0.0
C744 C 0.65009 0.0973 0.6205 0.0
C745 C 0.59782 0.03184 0.61499 0.0
C746 C 0.57 0.9963 0.60092 0.0
C747 C 0.65161 0.09698 0.64245 0.0
C748 C 0.62513 0.06379 0.65075 0.0
C749 C 0.59891 0.03161 0.63698 0.0
C750 C 0.62205 0.06259 0.67375 0.0
C751 C 0.68013 0.13219 0.65677 0.0
C752 C 0.654 0.06731 0.68683 0.0
C753 C 0.65288 0.06996 0.7088 0.0
C754 C 0.61999 0.06827 0.71793 0.0
C755 C 0.58719 0.06207 0.70468 0.0
C756 C 0.58815 0.05912 0.68277 0.0
H757 H 0.69711 0.15588 0.64785 0.0
H758 H 0.66121 0.13497 0.66812 0.0
H759 H 0.70395 0.13239 0.66608 0.0
H760 H 0.68039 0.07004 0.68007 0.0
H761 H 0.6787 0.07499 0.71866 0.0
H762 H 0.5386 0.51145 0.90282 0.0
H763 H 0.52578 0.47959 0.93342 0.0
H764 H 0.65953 0.55217 0.95353 0.0
H765 H 0.67273 0.58367 0.92242 0.0
H766 H 0.62483 0.48117 0.95529 0.0
H767 H 0.52575 0.51191 0.99428 0.0
H768 H 0.50598 0.49185 0.96741 0.0
H769 H 0.5571 0.53538 0.97306 0.0
C770 C 0.56528 0.52073 0.9138 0.0
C771 C 0.60666 0.55004 0.91029 0.0
C772 C 0.55787 0.50267 0.93137 0.0
C773 C 0.59159 0.51391 0.94597 0.0
C774 C 0.63302 0.54323 0.94252 0.0
H775 H 0.5781 0.4239 0.0627 0.0
H776 H 0.60463 0.46291 0.03459 0.0
C777 C 0.64051 0.56125 0.92483 0.0
C778 C 0.58339 0.49405 0.96437 0.0
H779 H 0.52198 0.46305 0.00582 0.0
C780 C 0.60284 0.47764 0.96653 0.0
C781 C 0.55486 0.48964 0.9791 0.0
C782 C 0.53507 0.50845 0.9785 0.0
C783 C 0.59303 0.45566 0.9825 0.0
C784 C 0.56308 0.45001 0.99653 0.0
C785 C 0.54465 0.46725 0.99482 0.0
C786 C 0.54921 0.42526 0.01271 0.0
C787 C 0.61354 0.43761 0.98396 0.0
C788 C 0.50958 0.39109 0.00949 0.0
C789 C 0.49453 0.36856 0.02536 0.0
C790 C 0.51867 0.37998 0.04486 0.0
C791 C 0.55896 0.41398 0.04778 0.0
C792 C 0.57409 0.43643 0.03181 0.0
H793 H 0.63465 0.4433 0.97116 0.0
H794 H 0.63249 0.44716 -0.00058 0.0
H795 H 0.58874 0.40796 0.98315 0.0
H796 H 0.49 0.3821 0.99479 0.0
H797 H 0.46363 0.3424 0.02249 0.0
H798 H 0.09337 0.48674 0.21561 0.0
H799 H 0.08495 0.48353 0.25341 0.0
H800 H 0.13295 0.59467 0.26237 0.0
H801 H 0.1396 0.59739 0.22438 0.0
H802 H 0.14099 0.51734 0.28538 0.0
H803 H 1.03173 0.55124 0.29509 0.0
H804 H 1.04284 0.54095 0.26943 0.0
H805 H 0.0782 0.58579 0.28355 0.0
C806 C 0.10183 0.51039 0.22566 0.0
C807 C 0.1171 0.54231 0.21715 0.0
C808 C 0.09693 0.50852 0.24724 0.0
C809 C 0.10754 0.53863 0.26075 0.0
C810 C 0.12325 0.5707 0.25223 0.0
H811 H 0.19582 0.5966 0.39058 0.0
H812 H 0.18338 0.58126 0.35243 0.0
C813 C 0.12751 0.57239 0.23057 0.0
C814 C 0.10477 0.53717 0.28389 0.0
H815 H 0.07121 0.55885 0.32693 0.0
C816 C 0.12516 0.52593 0.29439 0.0
C817 C 0.08324 0.54745 0.2957 0.0
C818 C 0.05737 0.55661 0.2853 0.0
C819 C 0.12649 0.52646 0.31641 0.0
C820 C 0.10821 0.53977 0.32838 0.0
C821 C 0.08583 0.54917 0.31782 0.0
C822 C 0.11491 0.54696 0.3518 0.0
C823 C 0.14768 0.51283 0.32656 0.0
C824 C 0.08059 0.53339 0.36428 0.0
C825 C 0.08771 0.54284 0.38624 0.0
C826 C 0.1293 0.56624 0.39605 0.0
C827 C 0.16341 0.57891 0.38352 0.0
C828 C 0.15631 0.56972 0.36168 0.0
H829 H 0.14524 0.49181 0.31561 0.0
H830 H 0.18189 0.53549 0.33044 0.0
H831 H 0.13351 0.50133 0.3413 0.0
H832 H 1.04836 0.51597 0.35698 0.0
H833 H 0.0608 0.53287 0.39543 0.0
loop_
_geom_bond_atom_site_label_1
_geom_bond_atom_site_label_2
_geom_bond_distance
_geom_bond_site_symmetry_2
_ccdc_geom_bond_type
Gd0 C3 2.818 . S
Gd0 O20 2.377 . S
Gd0 O22 2.448 . S
Gd0 O23 2.506 . S
Gd0 O24 2.435 . S
Gd0 O25 2.717 . S
Gd0 O27 2.395 1_455 S
Gd0 O31 2.327 . S
Gd1 C12 2.818 1_455 S
Gd1 O21 2.395 . S
Gd1 O25 2.327 . S
Gd1 O26 2.377 1_455 S
Gd1 O28 2.448 1_455 S
Gd1 O29 2.506 1_455 S
Gd1 O30 2.435 . S
Gd1 O31 2.717 . S
C2 O20 1.240 . S
C2 O21 1.240 . S
C3 Gd0 2.818 . S
C3 C4 1.510 . S
C3 O22 1.249 . S
C3 O23 1.252 . S
C4 C3 1.510 . S
C4 C5 1.404 . S
C4 C6 1.352 . S
C5 C4 1.404 . S
C5 C9 1.389 . S
C5 H32 0.930 . S
C6 C4 1.352 . S
C6 C8 1.374 . S
C6 H33 0.931 . S
C7 C8 1.359 . S
C7 C9 1.364 . S
C8 C6 1.374 . S
C8 C7 1.359 . S
C8 H34 0.931 . S
C9 C5 1.389 . S
C9 C7 1.364 . S
C9 H35 0.931 . S
C10 O24 1.256 . S
C10 O25 1.257 . S
C11 O26 1.240 . S
C11 O27 1.240 . S
C12 Gd1 2.818 1_655 S
C12 C13 1.510 . S
C12 O28 1.249 . S
C12 O29 1.252 . S
C13 C12 1.510 . S
C13 C14 1.404 . S
C13 C15 1.352 . S
C14 C13 1.404 . S
C14 C18 1.389 . S
C14 H36 0.930 . S
C15 C13 1.352 . S
C15 C17 1.374 . S
C15 H37 0.931 . S
C16 C17 1.359 . S
C16 C18 1.364 . S
C17 C15 1.374 . S
C17 C16 1.359 . S
C17 H38 0.931 . S
C18 C14 1.389 . S
C18 C16 1.364 . S
C18 H39 0.931 . S
C19 O30 1.256 . S
C19 O31 1.257 . S
O20 Gd0 2.377 . S
O20 C2 1.240 . S
O21 Gd1 2.395 . S
O21 C2 1.240 . S
O22 Gd0 2.448 . S
O22 C3 1.249 . S
O23 Gd0 2.506 . S
O23 C3 1.252 . S
O24 Gd0 2.435 . S
O24 C10 1.256 . S
O25 Gd0 2.717 . S
O25 Gd1 2.327 . S
O25 C10 1.257 . S
O26 Gd1 2.377 1_655 S
O26 C11 1.240 . S
O27 Gd0 2.395 1_655 S
O27 C11 1.240 . S
O28 Gd1 2.448 1_655 S
O28 C12 1.249 . S
O29 Gd1 2.506 1_655 S
O29 C12 1.252 . S
O30 Gd1 2.435 . S
O30 C19 1.256 . S
O31 Gd0 2.327 . S
O31 Gd1 2.717 . S
O31 C19 1.257 . S
H32 C5 0.930 . S
H33 C6 0.931 . S
H34 C8 0.931 . S
H35 C9 0.931 . S
H36 C14 0.930 . S
H37 C15 0.931 . S
H38 C17 0.931 . S
H39 C18 0.931 . S
Gd40 C43 2.818 1_545 S
Gd40 O60 2.377 1_545 S
Gd40 O62 2.448 1_545 S
Gd40 O63 2.506 1_545 S
Gd40 O64 2.435 . S
Gd40 O65 2.717 . S
Gd40 O67 2.395 . S
Gd40 O71 2.327 . S
Gd41 C52 2.818 . S
Gd41 O61 2.395 1_545 S
Gd41 O65 2.327 . S
Gd41 O66 2.377 . S
Gd41 O68 2.448 . S
Gd41 O69 2.506 . S
Gd41 O70 2.435 . S
Gd41 O71 2.717 . S
C42 O60 1.240 . S
C42 O61 1.240 . S
C43 Gd40 2.818 1_565 S
C43 C44 1.510 . S
C43 O62 1.249 . S
C43 O63 1.252 . S
C44 C43 1.510 . S
C44 C45 1.404 . S
C44 C46 1.352 . S
C45 C44 1.404 . S
C45 C49 1.389 . S
C45 H72 0.930 . S
C46 C44 1.352 . S
C46 C48 1.374 . S
C46 H73 0.931 . S
C47 C48 1.359 . S
C47 C49 1.364 . S
C48 C46 1.374 . S
C48 C47 1.359 . S
C48 H74 0.931 . S
C49 C45 1.389 . S
C49 C47 1.364 . S
C49 H75 0.931 . S
C50 O64 1.256 . S
C50 O65 1.257 . S
C51 O66 1.240 . S
C51 O67 1.240 . S
C52 Gd41 2.818 . S
C52 C53 1.510 . S
C52 O68 1.249 . S
C52 O69 1.252 . S
C53 C52 1.510 . S
C53 C54 1.404 . S
C53 C55 1.352 . S
C54 C53 1.404 . S
C54 C58 1.389 . S
C54 H76 0.930 . S
C55 C53 1.352 . S
C55 C57 1.374 . S
C55 H77 0.931 . S
C56 C57 1.359 . S
C56 C58 1.364 . S
C57 C55 1.374 . S
C57 C56 1.359 . S
C57 H78 0.931 . S
C58 C54 1.389 . S
C58 C56 1.364 . S
C58 H79 0.931 . S
C59 O70 1.256 . S
C59 O71 1.257 . S
O60 Gd40 2.377 1_565 S
O60 C42 1.240 . S
O61 Gd41 2.395 1_565 S
O61 C42 1.240 . S
O62 Gd40 2.448 1_565 S
O62 C43 1.249 . S
O63 Gd40 2.506 1_565 S
O63 C43 1.252 . S
O64 Gd40 2.435 . S
O64 C50 1.256 . S
O65 Gd40 2.717 . S
O65 Gd41 2.327 . S
O65 C50 1.257 . S
O66 Gd41 2.377 . S
O66 C51 1.240 . S
O67 Gd40 2.395 . S
O67 C51 1.240 . S
O68 Gd41 2.448 . S
O68 C52 1.249 . S
O69 Gd41 2.506 . S
O69 C52 1.252 . S
O70 Gd41 2.435 . S
O70 C59 1.256 . S
O71 Gd40 2.327 . S
O71 Gd41 2.717 . S
O71 C59 1.257 . S
H72 C45 0.930 . S
H73 C46 0.931 . S
H74 C48 0.931 . S
H75 C49 0.931 . S
H76 C54 0.930 . S
H77 C55 0.931 . S
H78 C57 0.931 . S
H79 C58 0.931 . S
Gd80 C83 2.818 . S
Gd80 O100 2.377 . S
Gd80 O102 2.448 . S
Gd80 O103 2.506 . S
Gd80 O104 2.435 . S
Gd80 O105 2.717 . S
Gd80 O107 2.395 . S
Gd80 O111 2.327 . S
Gd81 C92 2.818 . S
Gd81 O101 2.395 . S
Gd81 O105 2.327 . S
Gd81 O106 2.377 . S
Gd81 O108 2.448 . S
Gd81 O109 2.506 . S
Gd81 O110 2.435 . S
Gd81 O111 2.717 . S
C82 O100 1.240 . S
C82 O101 1.240 . S
C83 Gd80 2.818 . S
C83 C84 1.510 . S
C83 O102 1.249 . S
C83 O103 1.252 . S
C84 C83 1.510 . S
C84 C85 1.404 . S
C84 C86 1.352 . S
C85 C84 1.404 . S
C85 C89 1.389 . S
C85 H112 0.930 . S
C86 C84 1.352 . S
C86 C88 1.374 . S
C86 H113 0.931 . S
C87 C88 1.359 . S
C87 C89 1.364 . S
C88 C86 1.374 . S
C88 C87 1.359 . S
C88 H114 0.931 . S
C89 C85 1.389 . S
C89 C87 1.364 . S
C89 H115 0.931 . S
C90 O104 1.256 . S
C90 O105 1.257 . S
C91 O106 1.240 . S
C91 O107 1.240 . S
C92 Gd81 2.818 . S
C92 C93 1.510 . S
C92 O108 1.249 . S
C92 O109 1.252 . S
C93 C92 1.510 . S
C93 C94 1.404 . S
C93 C95 1.352 . S
C94 C93 1.404 . S
C94 C98 1.389 . S
C94 H116 0.930 . S
C95 C93 1.352 . S
C95 C97 1.374 . S
C95 H117 0.931 . S
C96 C97 1.359 . S
C96 C98 1.364 . S
C97 C95 1.374 . S
C97 C96 1.359 . S
C97 H118 0.931 . S
C98 C94 1.389 . S
C98 C96 1.364 . S
C98 H119 0.931 . S
C99 O110 1.256 . S
C99 O111 1.257 . S
O100 Gd80 2.377 . S
O100 C82 1.240 . S
O101 Gd81 2.395 . S
O101 C82 1.240 . S
O102 Gd80 2.448 . S
O102 C83 1.249 . S
O103 Gd80 2.506 . S
O103 C83 1.252 . S
O104 Gd80 2.435 . S
O104 C90 1.256 . S
O105 Gd80 2.717 . S
O105 Gd81 2.327 . S
O105 C90 1.257 . S
O106 Gd81 2.377 . S
O106 C91 1.240 . S
O107 Gd80 2.395 . S
O107 C91 1.240 . S
O108 Gd81 2.448 . S
O108 C92 1.249 . S
O109 Gd81 2.506 . S
O109 C92 1.252 . S
O110 Gd81 2.435 . S
O110 C99 1.256 . S
O111 Gd80 2.327 . S
O111 Gd81 2.717 . S
O111 C99 1.257 . S
H112 C85 0.930 . S
H113 C86 0.931 . S
H114 C88 0.931 . S
H115 C89 0.931 . S
H116 C94 0.930 . S
H117 C95 0.931 . S
H118 C97 0.931 . S
H119 C98 0.931 . S
H120 C123 0.928 1_565 S
H121 C126 0.929 . S
H122 C128 0.930 . S
C123 H120 0.928 1_545 S
C123 C124 1.398 . S
C123 C125 1.396 . S
C124 C123 1.398 . S
C124 C128 1.407 . S
C125 C123 1.396 . S
C125 C126 1.394 . S
C126 H121 0.929 . S
C126 C125 1.394 . S
C126 C127 1.382 . S
C127 C126 1.382 . S
C127 C128 1.392 . S
C127 N129 1.420 . S
C128 H122 0.930 . S
C128 C124 1.407 . S
C128 C127 1.392 . S
N129 C127 1.420 . S
N129 C130 1.244 . S
C130 N129 1.244 . S
H131 C134 0.929 . S
H132 C137 0.929 . S
H133 C139 0.930 . S
C134 H131 0.929 . S
C134 C135 1.398 . S
C134 C136 1.396 . S
C135 C134 1.398 . S
C135 C139 1.407 . S
C136 C134 1.396 . S
C136 C137 1.394 . S
C137 H132 0.929 . S
C137 C136 1.394 . S
C137 C138 1.382 . S
C138 C137 1.382 . S
C138 C139 1.392 . S
C138 N140 1.420 . S
C139 H133 0.930 . S
C139 C135 1.407 . S
C139 C138 1.392 . S
N140 C138 1.420 . S
N140 C141 1.244 . S
C141 N140 1.244 . S
H142 C145 0.929 . S
H143 C148 0.929 . S
H144 C150 0.930 . S
C145 H142 0.929 . S
C145 C146 1.398 . S
C145 C147 1.396 . S
C146 C145 1.398 . S
C146 C150 1.407 . S
C147 C145 1.396 . S
C147 C148 1.394 . S
C148 H143 0.929 . S
C148 C147 1.394 . S
C148 C149 1.382 . S
C149 C148 1.382 . S
C149 C150 1.392 . S
C149 N151 1.420 . S
C150 H144 0.930 . S
C150 C146 1.407 . S
C150 C149 1.392 . S
N151 C149 1.420 . S
N151 C152 1.244 . S
C152 N151 1.244 . S
H153 C156 0.929 . S
H154 C159 0.929 . S
H155 C161 0.930 . S
C156 H153 0.929 . S
C156 C157 1.398 . S
C156 C158 1.396 . S
C157 C156 1.398 . S
C157 C161 1.407 . S
C158 C156 1.396 . S
C158 C159 1.394 1_455 S
C159 H154 0.929 . S
C159 C158 1.394 1_655 S
C159 C160 1.382 . S
C160 C159 1.382 . S
C160 C161 1.392 1_655 S
C160 N162 1.420 . S
C161 H155 0.930 . S
C161 C157 1.407 . S
C161 C160 1.392 1_455 S
N162 C160 1.420 . S
N162 C163 1.244 . S
C163 N162 1.244 . S
H164 C167 0.929 . S
H165 C170 0.929 . S
H166 C172 0.930 . S
C167 H164 0.929 . S
C167 C168 1.398 . S
C167 C169 1.396 . S
C168 C167 1.398 . S
C168 C172 1.407 . S
C169 C167 1.396 . S
C169 C170 1.394 . S
C170 H165 0.929 . S
C170 C169 1.394 . S
C170 C171 1.382 . S
C171 C170 1.382 . S
C171 C172 1.392 . S
C171 N173 1.420 . S
C172 H166 0.930 . S
C172 C168 1.407 . S
C172 C171 1.392 . S
N173 C171 1.420 . S
N173 C174 1.244 1_545 S
C174 N173 1.244 1_565 S
H175 C178 0.929 . S
H176 C181 0.929 . S
H177 C183 0.930 . S
C178 H175 0.929 . S
C178 C179 1.398 . S
C178 C180 1.396 . S
C179 C178 1.398 . S
C179 C183 1.407 . S
C180 C178 1.396 . S
C180 C181 1.394 . S
C181 H176 0.929 . S
C181 C180 1.394 . S
C181 C182 1.382 . S
C182 C181 1.382 . S
C182 C183 1.392 . S
C182 N184 1.420 . S
C183 H177 0.930 . S
C183 C179 1.407 . S
C183 C182 1.392 . S
N184 C182 1.420 . S
N184 C185 1.244 . S
C185 N184 1.244 . S
H186 C194 0.929 . S
H187 C196 0.930 . S
H188 C198 0.930 . S
H189 C201 0.929 . S
H190 C204 0.930 . S
H191 C206 0.960 . S
H192 C206 0.960 . S
H193 C206 0.960 . S
C194 H186 0.929 . S
C194 C195 1.377 . S
C194 C196 1.384 . S
C195 C194 1.377 . S
C195 C201 1.390 . S
C196 H187 0.930 . S
C196 C194 1.384 . S
C196 C197 1.372 . S
C197 C196 1.372 . S
C197 C198 1.400 . S
C197 C202 1.490 . S
C198 H188 0.930 . S
C198 C197 1.400 . S
C198 C201 1.386 . S
H199 C215 0.930 . S
H200 C216 0.931 . S
C201 H189 0.929 . S
C201 C195 1.390 . S
C201 C198 1.386 . S
C202 C197 1.490 . S
C202 C204 1.395 . S
C202 C205 1.403 . S
H203 C209 0.930 . S
C204 H190 0.930 . S
C204 C202 1.395 . S
C204 C207 1.403 . S
C205 C202 1.403 . S
C205 C206 1.524 . S
C205 C209 1.400 . S
C206 H191 0.960 . S
C206 H192 0.960 . S
C206 H193 0.960 . S
C206 C205 1.524 . S
C207 C204 1.403 . S
C207 C208 1.392 . S
C207 C211 1.495 . S
C208 C207 1.392 . S
C208 C209 1.385 . S
C208 C210 1.478 . S
C209 H203 0.930 . S
C209 C205 1.400 . S
C209 C208 1.385 . S
C210 C208 1.478 . S
C210 C212 1.381 . S
C210 C216 1.383 . S
C211 C207 1.495 . S
C211 H217 0.959 . S
C211 H218 0.961 . S
C211 H219 0.960 . S
C212 C210 1.381 . S
C212 C213 1.394 . S
C212 H220 0.930 . S
C213 C212 1.394 . S
C213 C214 1.383 . S
C213 H221 0.929 . S
C214 C213 1.383 . S
C214 C215 1.377 . S
C215 H199 0.930 . S
C215 C214 1.377 . S
C215 C216 1.379 . S
C216 H200 0.931 . S
C216 C210 1.383 . S
C216 C215 1.379 . S
H217 C211 0.959 . S
H218 C211 0.961 . S
H219 C211 0.960 . S
H220 C212 0.930 . S
H221 C213 0.929 . S
H222 C230 0.929 . S
H223 C232 0.930 . S
H224 C234 0.930 . S
H225 C237 0.929 . S
H226 C240 0.930 . S
H227 C242 0.960 . S
H228 C242 0.960 . S
H229 C242 0.960 . S
C230 H222 0.929 . S
C230 C231 1.377 . S
C230 C232 1.384 . S
C231 C230 1.377 . S
C231 C237 1.390 . S
C232 H223 0.930 . S
C232 C230 1.384 . S
C232 C233 1.372 . S
C233 C232 1.372 . S
C233 C234 1.400 . S
C233 C238 1.490 . S
C234 H224 0.930 . S
C234 C233 1.400 . S
C234 C237 1.386 . S
H235 C251 0.930 . S
H236 C252 0.931 . S
C237 H225 0.929 . S
C237 C231 1.390 . S
C237 C234 1.386 . S
C238 C233 1.490 . S
C238 C240 1.395 . S
C238 C241 1.403 . S
H239 C245 0.930 . S
C240 H226 0.930 . S
C240 C238 1.395 . S
C240 C243 1.403 . S
C241 C238 1.403 . S
C241 C242 1.524 . S
C241 C245 1.400 . S
C242 H227 0.960 . S
C242 H228 0.960 . S
C242 H229 0.960 . S
C242 C241 1.524 . S
C243 C240 1.403 . S
C243 C244 1.392 . S
C243 C247 1.495 . S
C244 C243 1.392 . S
C244 C245 1.385 . S
C244 C246 1.478 . S
C245 H239 0.930 . S
C245 C241 1.400 . S
C245 C244 1.385 . S
C246 C244 1.478 . S
C246 C248 1.381 . S
C246 C252 1.383 . S
C247 C243 1.495 . S
C247 H253 0.959 . S
C247 H254 0.961 . S
C247 H255 0.960 . S
C248 C246 1.381 . S
C248 C249 1.394 . S
C248 H256 0.930 . S
C249 C248 1.394 . S
C249 C250 1.383 . S
C249 H257 0.929 . S
C250 C249 1.383 . S
C250 C251 1.377 . S
C251 H235 0.930 . S
C251 C250 1.377 . S
C251 C252 1.379 . S
C252 H236 0.931 . S
C252 C246 1.383 . S
C252 C251 1.379 . S
H253 C247 0.959 . S
H254 C247 0.961 . S
H255 C247 0.960 . S
H256 C248 0.930 . S
H257 C249 0.929 . S
H258 C266 0.929 . S
H259 C268 0.930 . S
H260 C270 0.930 . S
H261 C273 0.929 . S
H262 C276 0.930 . S
H263 C278 0.960 . S
H264 C278 0.960 . S
H265 C278 0.960 . S
C266 H258 0.929 . S
C266 C267 1.377 . S
C266 C268 1.384 . S
C267 C266 1.377 . S
C267 C273 1.390 . S
C268 H259 0.930 . S
C268 C266 1.384 . S
C268 C269 1.372 . S
C269 C268 1.372 . S
C269 C270 1.400 . S
C269 C274 1.490 . S
C270 H260 0.930 . S
C270 C269 1.400 . S
C270 C273 1.386 . S
H271 C287 0.930 . S
H272 C288 0.931 . S
C273 H261 0.929 . S
C273 C267 1.390 . S
C273 C270 1.386 . S
C274 C269 1.490 . S
C274 C276 1.395 . S
C274 C277 1.403 . S
H275 C281 0.930 . S
C276 H262 0.930 . S
C276 C274 1.395 . S
C276 C279 1.403 . S
C277 C274 1.403 . S
C277 C278 1.524 . S
C277 C281 1.400 . S
C278 H263 0.960 . S
C278 H264 0.960 . S
C278 H265 0.960 . S
C278 C277 1.524 . S
C279 C276 1.403 . S
C279 C280 1.392 . S
C279 C283 1.495 . S
C280 C279 1.392 . S
C280 C281 1.385 . S
C280 C282 1.478 . S
C281 H275 0.930 . S
C281 C277 1.400 . S
C281 C280 1.385 . S
C282 C280 1.478 . S
C282 C284 1.381 . S
C282 C288 1.383 . S
C283 C279 1.495 . S
C283 H289 0.959 . S
C283 H290 0.961 . S
C283 H291 0.960 . S
C284 C282 1.381 . S
C284 C285 1.394 . S
C284 H292 0.930 . S
C285 C284 1.394 . S
C285 C286 1.383 . S
C285 H293 0.929 . S
C286 C285 1.383 . S
C286 C287 1.377 . S
C287 H271 0.930 . S
C287 C286 1.377 . S
C287 C288 1.379 . S
C288 H272 0.931 . S
C288 C282 1.383 . S
C288 C287 1.379 . S
H289 C283 0.959 . S
H290 C283 0.961 . S
H291 C283 0.960 . S
H292 C284 0.930 . S
H293 C285 0.929 . S
H294 C302 0.929 . S
H295 C304 0.930 . S
H296 C306 0.930 . S
H297 C309 0.929 . S
H298 C312 0.930 . S
H299 C314 0.960 . S
H300 C314 0.960 . S
H301 C314 0.960 . S
C302 H294 0.929 . S
C302 C303 1.377 . S
C302 C304 1.384 . S
C303 C302 1.377 . S
C303 C309 1.390 . S
C304 H295 0.930 . S
C304 C302 1.384 . S
C304 C305 1.372 . S
C305 C304 1.372 . S
C305 C306 1.400 . S
C305 C310 1.490 . S
C306 H296 0.930 . S
C306 C305 1.400 . S
C306 C309 1.386 . S
H307 C323 0.930 . S
H308 C324 0.931 . S
C309 H297 0.929 . S
C309 C303 1.390 . S
C309 C306 1.386 . S
C310 C305 1.490 . S
C310 C312 1.395 . S
C310 C313 1.403 . S
H311 C317 0.930 . S
C312 H298 0.930 . S
C312 C310 1.395 . S
C312 C315 1.403 . S
C313 C310 1.403 . S
C313 C314 1.524 . S
C313 C317 1.400 . S
C314 H299 0.960 . S
C314 H300 0.960 . S
C314 H301 0.960 . S
C314 C313 1.524 . S
C315 C312 1.403 . S
C315 C316 1.392 . S
C315 C319 1.495 . S
C316 C315 1.392 . S
C316 C317 1.385 . S
C316 C318 1.478 . S
C317 H311 0.930 . S
C317 C313 1.400 . S
C317 C316 1.385 . S
C318 C316 1.478 . S
C318 C320 1.381 . S
C318 C324 1.383 . S
C319 C315 1.495 . S
C319 H325 0.959 . S
C319 H326 0.961 . S
C319 H327 0.960 . S
C320 C318 1.381 . S
C320 C321 1.394 . S
C320 H328 0.930 . S
C321 C320 1.394 . S
C321 C322 1.383 . S
C321 H329 0.929 . S
C322 C321 1.383 . S
C322 C323 1.377 . S
C323 H307 0.930 . S
C323 C322 1.377 . S
C323 C324 1.379 . S
C324 H308 0.931 . S
C324 C318 1.383 . S
C324 C323 1.379 . S
H325 C319 0.959 . S
H326 C319 0.961 . S
H327 C319 0.960 . S
H328 C320 0.930 . S
H329 C321 0.929 . S
H330 C338 0.929 . S
H331 C340 0.930 . S
H332 C342 0.930 . S
H333 C345 0.929 . S
H334 C348 0.930 . S
H335 C350 0.960 . S
H336 C350 0.960 . S
H337 C350 0.960 . S
C338 H330 0.929 . S
C338 C339 1.377 . S
C338 C340 1.384 . S
C339 C338 1.377 . S
C339 C345 1.390 . S
C340 H331 0.930 . S
C340 C338 1.384 . S
C340 C341 1.372 . S
C341 C340 1.372 . S
C341 C342 1.400 . S
C341 C346 1.490 . S
C342 H332 0.930 . S
C342 C341 1.400 . S
C342 C345 1.386 . S
H343 C359 0.930 . S
H344 C360 0.931 . S
C345 H333 0.929 . S
C345 C339 1.390 . S
C345 C342 1.386 . S
C346 C341 1.490 . S
C346 C348 1.395 . S
C346 C349 1.403 . S
H347 C353 0.930 . S
C348 H334 0.930 . S
C348 C346 1.395 . S
C348 C351 1.403 . S
C349 C346 1.403 . S
C349 C350 1.524 . S
C349 C353 1.400 . S
C350 H335 0.960 . S
C350 H336 0.960 . S
C350 H337 0.960 . S
C350 C349 1.524 . S
C351 C348 1.403 . S
C351 C352 1.392 . S
C351 C355 1.495 . S
C352 C351 1.392 . S
C352 C353 1.385 . S
C352 C354 1.478 . S
C353 H347 0.930 . S
C353 C349 1.400 . S
C353 C352 1.385 . S
C354 C352 1.478 . S
C354 C356 1.381 . S
C354 C360 1.383 . S
C355 C351 1.495 . S
C355 H361 0.959 . S
C355 H362 0.961 . S
C355 H363 0.960 . S
C356 C354 1.381 . S
C356 C357 1.394 . S
C356 H364 0.930 . S
C357 C356 1.394 . S
C357 C358 1.383 . S
C357 H365 0.929 . S
C358 C357 1.383 . S
C358 C359 1.377 . S
C359 H343 0.930 . S
C359 C358 1.377 . S
C359 C360 1.379 . S
C360 H344 0.931 . S
C360 C354 1.383 . S
C360 C359 1.379 . S
H361 C355 0.959 . S
H362 C355 0.961 . S
H363 C355 0.960 . S
H364 C356 0.930 . S
H365 C357 0.929 . S
H366 C374 0.929 . S
H367 C376 0.930 . S
H368 C378 0.930 . S
H369 C381 0.929 . S
H370 C384 0.930 . S
H371 C386 0.960 . S
H372 C386 0.960 . S
H373 C386 0.960 . S
C374 H366 0.929 . S
C374 C375 1.377 . S
C374 C376 1.384 . S
C375 C374 1.377 . S
C375 C381 1.390 . S
C376 H367 0.930 . S
C376 C374 1.384 . S
C376 C377 1.372 . S
C377 C376 1.372 . S
C377 C378 1.400 . S
C377 C382 1.490 . S
C378 H368 0.930 . S
C378 C377 1.400 . S
C378 C381 1.386 . S
H379 C395 0.930 . S
H380 C396 0.931 . S
C381 H369 0.929 . S
C381 C375 1.390 . S
C381 C378 1.386 . S
C382 C377 1.490 . S
C382 C384 1.395 . S
C382 C385 1.403 . S
H383 C389 0.930 . S
C384 H370 0.930 . S
C384 C382 1.395 . S
C384 C387 1.403 . S
C385 C382 1.403 . S
C385 C386 1.524 . S
C385 C389 1.400 . S
C386 H371 0.960 . S
C386 H372 0.960 . S
C386 H373 0.960 . S
C386 C385 1.524 . S
C387 C384 1.403 . S
C387 C388 1.392 . S
C387 C391 1.495 . S
C388 C387 1.392 . S
C388 C389 1.385 . S
C388 C390 1.478 . S
C389 H383 0.930 . S
C389 C385 1.400 . S
C389 C388 1.385 . S
C390 C388 1.478 . S
C390 C392 1.381 . S
C390 C396 1.383 . S
C391 C387 1.495 . S
C391 H397 0.959 . S
C391 H398 0.961 . S
C391 H399 0.960 . S
C392 C390 1.381 . S
C392 C393 1.394 . S
C392 H400 0.930 . S
C393 C392 1.394 . S
C393 C394 1.383 . S
C393 H401 0.929 . S
C394 C393 1.383 . S
C394 C395 1.377 . S
C395 H379 0.930 . S
C395 C394 1.377 . S
C395 C396 1.379 . S
C396 H380 0.931 . S
C396 C390 1.383 . S
C396 C395 1.379 . S
H397 C391 0.959 . S
H398 C391 0.961 . S
H399 C391 0.960 . S
H400 C392 0.930 . S
H401 C393 0.929 . S
H402 C410 0.929 . S
H403 C412 0.930 . S
H404 C414 0.930 . S
H405 C417 0.929 . S
H406 C420 0.930 . S
H407 C422 0.960 . S
H408 C422 0.960 . S
H409 C422 0.960 . S
C410 H402 0.929 . S
C410 C411 1.377 . S
C410 C412 1.384 . S
C411 C410 1.377 . S
C411 C417 1.390 . S
C412 H403 0.930 . S
C412 C410 1.384 . S
C412 C413 1.372 . S
C413 C412 1.372 . S
C413 C414 1.400 . S
C413 C418 1.490 . S
C414 H404 0.930 . S
C414 C413 1.400 . S
C414 C417 1.386 . S
H415 C431 0.930 . S
H416 C432 0.931 . S
C417 H405 0.929 . S
C417 C411 1.390 . S
C417 C414 1.386 . S
C418 C413 1.490 . S
C418 C420 1.395 . S
C418 C421 1.403 . S
H419 C425 0.930 . S
C420 H406 0.930 . S
C420 C418 1.395 . S
C420 C423 1.403 . S
C421 C418 1.403 . S
C421 C422 1.524 . S
C421 C425 1.400 . S
C422 H407 0.960 . S
C422 H408 0.960 . S
C422 H409 0.960 . S
C422 C421 1.524 . S
C423 C420 1.403 . S
C423 C424 1.392 . S
C423 C427 1.495 . S
C424 C423 1.392 . S
C424 C425 1.385 . S
C424 C426 1.478 . S
C425 H419 0.930 . S
C425 C421 1.400 . S
C425 C424 1.385 . S
C426 C424 1.478 . S
C426 C428 1.381 . S
C426 C432 1.383 . S
C427 C423 1.495 . S
C427 H433 0.959 . S
C427 H434 0.961 . S
C427 H435 0.960 . S
C428 C426 1.381 . S
C428 C429 1.394 . S
C428 H436 0.930 . S
C429 C428 1.394 . S
C429 C430 1.383 . S
C429 H437 0.929 . S
C430 C429 1.383 . S
C430 C431 1.377 . S
C431 H415 0.930 . S
C431 C430 1.377 . S
C431 C432 1.379 . S
C432 H416 0.931 . S
C432 C426 1.383 . S
C432 C431 1.379 . S
H433 C427 0.959 . S
H434 C427 0.961 . S
H435 C427 0.960 . S
H436 C428 0.930 . S
H437 C429 0.929 . S
H438 C446 0.929 . S
H439 C448 0.930 . S
H440 C450 0.930 . S
H441 C453 0.929 . S
H442 C456 0.930 . S
H443 C458 0.960 . S
H444 C458 0.960 . S
H445 C458 0.960 . S
C446 H438 0.929 . S
C446 C447 1.377 . S
C446 C448 1.384 . S
C447 C446 1.377 . S
C447 C453 1.390 . S
C448 H439 0.930 . S
C448 C446 1.384 . S
C448 C449 1.372 . S
C449 C448 1.372 . S
C449 C450 1.400 . S
C449 C454 1.490 . S
C450 H440 0.930 . S
C450 C449 1.400 . S
C450 C453 1.386 . S
H451 C467 0.930 . S
H452 C468 0.931 . S
C453 H441 0.929 . S
C453 C447 1.390 . S
C453 C450 1.386 . S
C454 C449 1.490 . S
C454 C456 1.395 . S
C454 C457 1.403 . S
H455 C461 0.930 . S
C456 H442 0.930 . S
C456 C454 1.395 . S
C456 C459 1.403 . S
C457 C454 1.403 . S
C457 C458 1.524 . S
C457 C461 1.400 . S
C458 H443 0.960 . S
C458 H444 0.960 . S
C458 H445 0.960 . S
C458 C457 1.524 . S
C459 C456 1.403 . S
C459 C460 1.392 . S
C459 C463 1.495 . S
C460 C459 1.392 . S
C460 C461 1.385 . S
C460 C462 1.478 . S
C461 H455 0.930 . S
C461 C457 1.400 . S
C461 C460 1.385 . S
C462 C460 1.478 . S
C462 C464 1.381 . S
C462 C468 1.383 . S
C463 C459 1.495 . S
C463 H469 0.959 . S
C463 H470 0.961 . S
C463 H471 0.960 . S
C464 C462 1.381 . S
C464 C465 1.394 . S
C464 H472 0.930 . S
C465 C464 1.394 . S
C465 C466 1.383 . S
C465 H473 0.929 . S
C466 C465 1.383 . S
C466 C467 1.377 . S
C467 H451 0.930 . S
C467 C466 1.377 . S
C467 C468 1.379 . S
C468 H452 0.931 . S
C468 C462 1.383 . S
C468 C467 1.379 . S
H469 C463 0.959 . S
H470 C463 0.961 . S
H471 C463 0.960 . S
H472 C464 0.930 . S
H473 C465 0.929 . S
H474 C482 0.929 . S
H475 C484 0.930 . S
H476 C486 0.930 . S
H477 C489 0.929 . S
H478 C492 0.930 . S
H479 C494 0.960 . S
H480 C494 0.960 . S
H481 C494 0.960 . S
C482 H474 0.929 . S
C482 C483 1.377 . S
C482 C484 1.384 . S
C483 C482 1.377 . S
C483 C489 1.390 . S
C484 H475 0.930 . S
C484 C482 1.384 . S
C484 C485 1.372 . S
C485 C484 1.372 . S
C485 C486 1.400 . S
C485 C490 1.490 . S
C486 H476 0.930 . S
C486 C485 1.400 . S
C486 C489 1.386 . S
H487 C503 0.930 . S
H488 C504 0.931 . S
C489 H477 0.929 . S
C489 C483 1.390 . S
C489 C486 1.386 . S
C490 C485 1.490 . S
C490 C492 1.395 . S
C490 C493 1.403 . S
H491 C497 0.930 . S
C492 H478 0.930 . S
C492 C490 1.395 . S
C492 C495 1.403 . S
C493 C490 1.403 . S
C493 C494 1.524 . S
C493 C497 1.400 . S
C494 H479 0.960 . S
C494 H480 0.960 . S
C494 H481 0.960 . S
C494 C493 1.524 . S
C495 C492 1.403 . S
C495 C496 1.392 . S
C495 C499 1.495 . S
C496 C495 1.392 . S
C496 C497 1.385 . S
C496 C498 1.478 . S
C497 H491 0.930 . S
C497 C493 1.400 . S
C497 C496 1.385 . S
C498 C496 1.478 . S
C498 C500 1.381 . S
C498 C504 1.383 . S
C499 C495 1.495 . S
C499 H505 0.959 . S
C499 H506 0.961 . S
C499 H507 0.960 . S
C500 C498 1.381 . S
C500 C501 1.394 . S
C500 H508 0.930 . S
C501 C500 1.394 . S
C501 C502 1.383 . S
C501 H509 0.929 . S
C502 C501 1.383 . S
C502 C503 1.377 . S
C503 H487 0.930 . S
C503 C502 1.377 . S
C503 C504 1.379 . S
C504 H488 0.931 . S
C504 C498 1.383 . S
C504 C503 1.379 . S
H505 C499 0.959 . S
H506 C499 0.961 . S
H507 C499 0.960 . S
H508 C500 0.930 . S
H509 C501 0.929 . S
H510 C518 0.929 . S
H511 C520 0.930 . S
H512 C522 0.930 . S
H513 C525 0.929 . S
H514 C528 0.930 . S
H515 C530 0.960 . S
H516 C530 0.960 . S
H517 C530 0.960 . S
C518 H510 0.929 . S
C518 C519 1.377 . S
C518 C520 1.384 . S
C519 C518 1.377 . S
C519 C525 1.390 . S
C520 H511 0.930 . S
C520 C518 1.384 . S
C520 C521 1.372 . S
C521 C520 1.372 . S
C521 C522 1.400 . S
C521 C526 1.490 . S
C522 H512 0.930 . S
C522 C521 1.400 . S
C522 C525 1.386 . S
H523 C539 0.930 . S
H524 C540 0.931 . S
C525 H513 0.929 . S
C525 C519 1.390 . S
C525 C522 1.386 . S
C526 C521 1.490 . S
C526 C528 1.395 . S
C526 C529 1.403 . S
H527 C533 0.930 . S
C528 H514 0.930 . S
C528 C526 1.395 . S
C528 C531 1.403 . S
C529 C526 1.403 . S
C529 C530 1.524 . S
C529 C533 1.400 . S
C530 H515 0.960 . S
C530 H516 0.960 . S
C530 H517 0.960 . S
C530 C529 1.524 . S
C531 C528 1.403 . S
C531 C532 1.392 . S
C531 C535 1.495 . S
C532 C531 1.392 . S
C532 C533 1.385 . S
C532 C534 1.478 . S
C533 H527 0.930 . S
C533 C529 1.400 . S
C533 C532 1.385 . S
C534 C532 1.478 . S
C534 C536 1.381 . S
C534 C540 1.383 . S
C535 C531 1.495 . S
C535 H541 0.959 . S
C535 H542 0.961 . S
C535 H543 0.960 . S
C536 C534 1.381 . S
C536 C537 1.394 . S
C536 H544 0.930 . S
C537 C536 1.394 . S
C537 C538 1.383 . S
C537 H545 0.929 . S
C538 C537 1.383 . S
C538 C539 1.377 . S
C539 H523 0.930 . S
C539 C538 1.377 . S
C539 C540 1.379 . S
C540 H524 0.931 . S
C540 C534 1.383 . S
C540 C539 1.379 . S
H541 C535 0.959 . S
H542 C535 0.961 . S
H543 C535 0.960 . S
H544 C536 0.930 . S
H545 C537 0.929 . S
H546 C554 0.929 . S
H547 C556 0.930 . S
H548 C558 0.930 . S
H549 C561 0.929 . S
H550 C564 0.930 . S
H551 C566 0.960 . S
H552 C566 0.960 . S
H553 C566 0.960 . S
C554 H546 0.929 . S
C554 C555 1.377 . S
C554 C556 1.384 . S
C555 C554 1.377 . S
C555 C561 1.390 . S
C556 H547 0.930 . S
C556 C554 1.384 . S
C556 C557 1.372 . S
C557 C556 1.372 . S
C557 C558 1.400 . S
C557 C562 1.490 . S
C558 H548 0.930 . S
C558 C557 1.400 . S
C558 C561 1.386 . S
H559 C575 0.930 . S
H560 C576 0.931 . S
C561 H549 0.929 . S
C561 C555 1.390 . S
C561 C558 1.386 . S
C562 C557 1.490 . S
C562 C564 1.395 . S
C562 C565 1.403 . S
H563 C569 0.930 . S
C564 H550 0.930 . S
C564 C562 1.395 . S
C564 C567 1.403 . S
C565 C562 1.403 . S
C565 C566 1.524 . S
C565 C569 1.400 . S
C566 H551 0.960 . S
C566 H552 0.960 . S
C566 H553 0.960 . S
C566 C565 1.524 . S
C567 C564 1.403 . S
C567 C568 1.392 . S
C567 C571 1.495 . S
C568 C567 1.392 . S
C568 C569 1.385 . S
C568 C570 1.478 . S
C569 H563 0.930 . S
C569 C565 1.400 . S
C569 C568 1.385 . S
C570 C568 1.478 . S
C570 C572 1.381 . S
C570 C576 1.383 . S
C571 C567 1.495 . S
C571 H577 0.959 . S
C571 H578 0.961 . S
C571 H579 0.960 . S
C572 C570 1.381 . S
C572 C573 1.394 . S
C572 H580 0.930 . S
C573 C572 1.394 . S
C573 C574 1.383 . S
C573 H581 0.929 . S
C574 C573 1.383 . S
C574 C575 1.377 . S
C575 H559 0.930 . S
C575 C574 1.377 . S
C575 C576 1.379 . S
C576 H560 0.931 . S
C576 C570 1.383 . S
C576 C575 1.379 . S
H577 C571 0.959 . S
H578 C571 0.961 . S
H579 C571 0.960 . S
H580 C572 0.930 . S
H581 C573 0.929 . S
H582 C590 0.929 . S
H583 C592 0.930 . S
H584 C594 0.930 . S
H585 C597 0.929 . S
H586 C600 0.930 . S
H587 C602 0.960 . S
H588 C602 0.960 . S
H589 C602 0.960 . S
C590 H582 0.929 . S
C590 C591 1.377 . S
C590 C592 1.384 . S
C591 C590 1.377 . S
C591 C597 1.390 . S
C592 H583 0.930 . S
C592 C590 1.384 . S
C592 C593 1.372 . S
C593 C592 1.372 . S
C593 C594 1.400 . S
C593 C598 1.490 . S
C594 H584 0.930 . S
C594 C593 1.400 . S
C594 C597 1.386 . S
H595 C611 0.930 . S
H596 C612 0.931 . S
C597 H585 0.929 . S
C597 C591 1.390 . S
C597 C594 1.386 . S
C598 C593 1.490 . S
C598 C600 1.395 . S
C598 C601 1.403 . S
H599 C605 0.930 . S
C600 H586 0.930 . S
C600 C598 1.395 . S
C600 C603 1.403 . S
C601 C598 1.403 . S
C601 C602 1.524 . S
C601 C605 1.400 . S
C602 H587 0.960 . S
C602 H588 0.960 . S
C602 H589 0.960 . S
C602 C601 1.524 . S
C603 C600 1.403 . S
C603 C604 1.392 . S
C603 C607 1.495 . S
C604 C603 1.392 . S
C604 C605 1.385 . S
C604 C606 1.478 . S
C605 H599 0.930 . S
C605 C601 1.400 . S
C605 C604 1.385 . S
C606 C604 1.478 . S
C606 C608 1.381 . S
C606 C612 1.383 . S
C607 C603 1.495 . S
C607 H613 0.959 . S
C607 H614 0.961 . S
C607 H615 0.960 . S
C608 C606 1.381 . S
C608 C609 1.394 . S
C608 H616 0.930 . S
C609 C608 1.394 . S
C609 C610 1.383 . S
C609 H617 0.929 . S
C610 C609 1.383 . S
C610 C611 1.377 . S
C611 H595 0.930 . S
C611 C610 1.377 . S
C611 C612 1.379 . S
C612 H596 0.931 . S
C612 C606 1.383 . S
C612 C611 1.379 . S
H613 C607 0.959 . S
H614 C607 0.961 . S
H615 C607 0.960 . S
H616 C608 0.930 . S
H617 C609 0.929 . S
H618 C626 0.929 . S
H619 C628 0.930 . S
H620 C630 0.930 1_655 S
H621 C633 0.929 1_655 S
H622 C636 0.930 . S
H623 C638 0.960 . S
H624 C638 0.960 1_455 S
H625 C638 0.960 . S
C626 H618 0.929 . S
C626 C627 1.377 . S
C626 C628 1.384 . S
C627 C626 1.377 . S
C627 C633 1.390 . S
C628 H619 0.930 . S
C628 C626 1.384 . S
C628 C629 1.372 . S
C629 C628 1.372 . S
C629 C630 1.400 . S
C629 C634 1.490 . S
C630 H620 0.930 1_455 S
C630 C629 1.400 . S
C630 C633 1.386 . S
H631 C647 0.930 . S
H632 C648 0.931 . S
C633 H621 0.929 1_455 S
C633 C627 1.390 . S
C633 C630 1.386 . S
C634 C629 1.490 . S
C634 C636 1.395 . S
C634 C637 1.403 . S
H635 C641 0.930 1_556 S
C636 H622 0.930 . S
C636 C634 1.395 . S
C636 C639 1.403 . S
C637 C634 1.403 . S
C637 C638 1.524 1_455 S
C637 C641 1.400 . S
C638 H623 0.960 . S
C638 H624 0.960 1_655 S
C638 H625 0.960 . S
C638 C637 1.524 1_655 S
C639 C636 1.403 . S
C639 C640 1.392 1_554 S
C639 C643 1.495 . S
C640 C639 1.392 1_556 S
C640 C641 1.385 1_556 S
C640 C642 1.478 . S
C641 H635 0.930 1_554 S
C641 C637 1.400 . S
C641 C640 1.385 1_554 S
C642 C640 1.478 . S
C642 C644 1.381 . S
C642 C648 1.383 . S
C643 C639 1.495 . S
C643 H649 0.959 . S
C643 H650 0.961 1_554 S
C643 H651 0.960 1_554 S
C644 C642 1.381 . S
C644 C645 1.394 . S
C644 H652 0.930 . S
C645 C644 1.394 . S
C645 C646 1.383 . S
C645 H653 0.929 . S
C646 C645 1.383 . S
C646 C647 1.377 . S
C647 H631 0.930 . S
C647 C646 1.377 . S
C647 C648 1.379 . S
C648 H632 0.931 . S
C648 C642 1.383 . S
C648 C647 1.379 . S
H649 C643 0.959 . S
H650 C643 0.961 1_556 S
H651 C643 0.960 1_556 S
H652 C644 0.930 . S
H653 C645 0.929 . S
H654 C662 0.929 . S
H655 C664 0.930 . S
H656 C666 0.930 . S
H657 C669 0.929 . S
H658 C672 0.930 . S
H659 C674 0.960 . S
H660 C674 0.960 . S
H661 C674 0.960 . S
C662 H654 0.929 . S
C662 C663 1.377 . S
C662 C664 1.384 . S
C663 C662 1.377 . S
C663 C669 1.390 . S
C664 H655 0.930 . S
C664 C662 1.384 . S
C664 C665 1.372 . S
C665 C664 1.372 . S
C665 C666 1.400 . S
C665 C670 1.490 . S
C666 H656 0.930 . S
C666 C665 1.400 . S
C666 C669 1.386 . S
H667 C683 0.930 . S
H668 C684 0.931 . S
C669 H657 0.929 . S
C669 C663 1.390 . S
C669 C666 1.386 . S
C670 C665 1.490 . S
C670 C672 1.395 . S
C670 C673 1.403 . S
H671 C677 0.931 . S
C672 H658 0.930 . S
C672 C670 1.395 . S
C672 C675 1.403 . S
C673 C670 1.403 . S
C673 C674 1.524 1_545 S
C673 C677 1.400 . S
C674 H659 0.960 . S
C674 H660 0.960 . S
C674 H661 0.960 . S
C674 C673 1.524 1_565 S
C675 C672 1.403 . S
C675 C676 1.392 . S
C675 C679 1.495 . S
C676 C675 1.392 . S
C676 C677 1.385 . S
C676 C678 1.478 . S
C677 H671 0.931 . S
C677 C673 1.400 . S
C677 C676 1.385 . S
C678 C676 1.478 . S
C678 C680 1.381 . S
C678 C684 1.383 . S
C679 C675 1.495 . S
C679 H685 0.959 . S
C679 H686 0.961 . S
C679 H687 0.960 . S
C680 C678 1.381 . S
C680 C681 1.394 . S
C680 H688 0.930 . S
C681 C680 1.394 . S
C681 C682 1.383 . S
C681 H689 0.929 . S
C682 C681 1.383 . S
C682 C683 1.377 . S
C683 H667 0.930 . S
C683 C682 1.377 . S
C683 C684 1.379 . S
C684 H668 0.931 . S
C684 C678 1.383 . S
C684 C683 1.379 . S
H685 C679 0.959 . S
H686 C679 0.961 . S
H687 C679 0.960 . S
H688 C680 0.930 . S
H689 C681 0.929 . S
H690 C698 0.929 . S
H691 C700 0.930 . S
H692 C702 0.930 . S
H693 C705 0.929 . S
H694 C708 0.930 . S
H695 C710 0.960 . S
H696 C710 0.960 . S
H697 C710 0.960 . S
C698 H690 0.929 . S
C698 C699 1.377 . S
C698 C700 1.384 . S
C699 C698 1.377 . S
C699 C705 1.390 . S
C700 H691 0.930 . S
C700 C698 1.384 . S
C700 C701 1.372 . S
C701 C700 1.372 . S
C701 C702 1.400 . S
C701 C706 1.490 . S
C702 H692 0.930 . S
C702 C701 1.400 . S
C702 C705 1.386 . S
H703 C719 0.930 . S
H704 C720 0.931 . S
C705 H693 0.929 . S
C705 C699 1.390 . S
C705 C702 1.386 . S
C706 C701 1.490 . S
C706 C708 1.395 . S
C706 C709 1.403 . S
H707 C713 0.930 . S
C708 H694 0.930 . S
C708 C706 1.395 . S
C708 C711 1.403 . S
C709 C706 1.403 . S
C709 C710 1.524 . S
C709 C713 1.400 . S
C710 H695 0.960 . S
C710 H696 0.960 . S
C710 H697 0.960 . S
C710 C709 1.524 . S
C711 C708 1.403 . S
C711 C712 1.392 . S
C711 C715 1.495 . S
C712 C711 1.392 . S
C712 C713 1.385 . S
C712 C714 1.478 . S
C713 H707 0.930 . S
C713 C709 1.400 . S
C713 C712 1.385 . S
C714 C712 1.478 . S
C714 C716 1.381 . S
C714 C720 1.383 . S
C715 C711 1.495 . S
C715 H721 0.959 . S
C715 H722 0.961 . S
C715 H723 0.960 . S
C716 C714 1.381 . S
C716 C717 1.394 . S
C716 H724 0.930 . S
C717 C716 1.394 . S
C717 C718 1.383 . S
C717 H725 0.929 . S
C718 C717 1.383 . S
C718 C719 1.377 . S
C719 H703 0.930 . S
C719 C718 1.377 . S
C719 C720 1.379 . S
C720 H704 0.931 . S
C720 C714 1.383 . S
C720 C719 1.379 . S
H721 C715 0.959 . S
H722 C715 0.961 . S
H723 C715 0.960 . S
H724 C716 0.930 . S
H725 C717 0.929 . S
H726 C734 0.929 . S
H727 C736 0.930 . S
H728 C738 0.930 . S
H729 C741 0.929 . S
H730 C744 0.930 . S
H731 C746 0.962 . S
H732 C746 0.986 . S
H733 C746 0.925 1_545 S
C734 H726 0.929 . S
C734 C735 1.377 . S
C734 C736 1.384 . S
C735 C734 1.377 . S
C735 C741 1.390 . S
C736 H727 0.930 . S
C736 C734 1.384 . S
C736 C737 1.372 . S
C737 C736 1.372 . S
C737 C738 1.400 . S
C737 C742 1.490 . S
C738 H728 0.930 . S
C738 C737 1.400 . S
C738 C741 1.386 . S
H739 C755 0.930 . S
H740 C756 0.931 . S
C741 H729 0.929 . S
C741 C735 1.390 . S
C741 C738 1.386 . S
C742 C737 1.490 . S
C742 C744 1.395 . S
C742 C745 1.403 . S
H743 C749 0.930 . S
C744 H730 0.930 . S
C744 C742 1.395 . S
C744 C747 1.403 . S
C745 C742 1.403 . S
C745 C746 1.531 1_545 S
C745 C749 1.400 . S
C746 H731 0.962 . S
C746 H732 0.986 . S
C746 H733 0.925 1_565 S
C746 C745 1.531 1_565 S
C747 C744 1.403 . S
C747 C748 1.392 . S
C747 C751 1.495 . S
C748 C747 1.392 . S
C748 C749 1.385 . S
C748 C750 1.478 . S
C749 H743 0.930 . S
C749 C745 1.400 . S
C749 C748 1.385 . S
C750 C748 1.478 . S
C750 C752 1.381 . S
C750 C756 1.383 . S
C751 C747 1.495 . S
C751 H757 0.959 . S
C751 H758 0.961 . S
C751 H759 0.960 . S
C752 C750 1.381 . S
C752 C753 1.394 . S
C752 H760 0.930 . S
C753 C752 1.394 . S
C753 C754 1.383 . S
C753 H761 0.918 1_545 S
C754 C753 1.383 . S
C754 C755 1.377 . S
C755 H739 0.930 . S
C755 C754 1.377 . S
C755 C756 1.379 . S
C756 H740 0.931 . S
C756 C750 1.383 . S
C756 C755 1.379 . S
H757 C751 0.959 . S
H758 C751 0.961 . S
H759 C751 0.960 . S
H760 C752 0.930 . S
H761 C753 0.918 1_565 S
H762 C770 0.929 . S
H763 C772 0.930 . S
H764 C774 0.930 . S
H765 C777 0.929 . S
H766 C780 0.930 . S
H767 C782 0.960 . S
H768 C782 0.960 . S
H769 C782 0.960 . S
C770 H762 0.929 . S
C770 C771 1.377 . S
C770 C772 1.384 . S
C771 C770 1.377 . S
C771 C777 1.390 . S
C772 H763 0.930 . S
C772 C770 1.384 . S
C772 C773 1.372 . S
C773 C772 1.372 . S
C773 C774 1.400 . S
C773 C778 1.490 . S
C774 H764 0.930 . S
C774 C773 1.400 . S
C774 C777 1.386 . S
H775 C791 0.930 . S
H776 C792 0.931 . S
C777 H765 0.929 . S
C777 C771 1.390 . S
C777 C774 1.386 . S
C778 C773 1.490 . S
C778 C780 1.395 . S
C778 C781 1.403 . S
H779 C785 0.930 . S
C780 H766 0.930 . S
C780 C778 1.395 . S
C780 C783 1.403 . S
C781 C778 1.403 . S
C781 C782 1.524 . S
C781 C785 1.400 . S
C782 H767 0.960 . S
C782 H768 0.960 . S
C782 H769 0.960 . S
C782 C781 1.524 . S
C783 C780 1.403 . S
C783 C784 1.392 1_556 S
C783 C787 1.495 1_556 S
C784 C783 1.392 1_554 S
C784 C785 1.385 1_554 S
C784 C786 1.478 . S
C785 H779 0.930 . S
C785 C781 1.400 . S
C785 C784 1.385 1_556 S
C786 C784 1.478 . S
C786 C788 1.381 . S
C786 C792 1.383 . S
C787 C783 1.495 1_554 S
C787 H793 0.959 . S
C787 H794 0.961 . S
C787 H795 0.960 . S
C788 C786 1.381 . S
C788 C789 1.394 . S
C788 H796 0.930 . S
C789 C788 1.394 . S
C789 C790 1.383 . S
C789 H797 0.929 . S
C790 C789 1.383 . S
C790 C791 1.377 . S
C791 H775 0.930 . S
C791 C790 1.377 . S
C791 C792 1.379 . S
C792 H776 0.931 . S
C792 C786 1.383 . S
C792 C791 1.379 . S
H793 C787 0.959 . S
H794 C787 0.961 . S
H795 C787 0.960 . S
H796 C788 0.930 . S
H797 C789 0.929 . S
H798 C806 0.929 1_655 S
H799 C808 0.930 1_655 S
H800 C810 0.930 . S
H801 C813 0.929 . S
H802 C816 0.930 . S
H803 C818 0.960 . S
H804 C818 0.960 1_655 S
H805 C818 0.960 . S
C806 H798 0.929 1_455 S
C806 C807 1.377 . S
C806 C808 1.384 . S
C807 C806 1.377 . S
C807 C813 1.390 . S
C808 H799 0.930 1_455 S
C808 C806 1.384 . S
C808 C809 1.372 . S
C809 C808 1.372 . S
C809 C810 1.400 . S
C809 C814 1.490 . S
C810 H800 0.930 . S
C810 C809 1.400 . S
C810 C813 1.386 . S
H811 C827 0.930 . S
H812 C828 0.931 . S
C813 H801 0.929 . S
C813 C807 1.390 . S
C813 C810 1.386 . S
C814 C809 1.490 . S
C814 C816 1.395 . S
C814 C817 1.403 . S
H815 C821 0.930 . S
C816 H802 0.930 . S
C816 C814 1.395 . S
C816 C819 1.403 . S
C817 C814 1.403 . S
C817 C818 1.524 . S
C817 C821 1.400 . S
C818 H803 0.960 . S
C818 H804 0.960 1_455 S
C818 H805 0.960 . S
C818 C817 1.524 . S
C819 C816 1.403 . S
C819 C820 1.392 . S
C819 C823 1.495 . S
C820 C819 1.392 . S
C820 C821 1.385 . S
C820 C822 1.478 . S
C821 H815 0.930 . S
C821 C817 1.400 . S
C821 C820 1.385 . S
C822 C820 1.478 . S
C822 C824 1.381 1_455 S
C822 C828 1.383 . S
C823 C819 1.495 . S
C823 H829 0.959 . S
C823 H830 0.961 . S
C823 H831 0.960 . S
C824 C822 1.381 1_655 S
C824 C825 1.394 . S
C824 H832 0.930 . S
C825 C824 1.394 . S
C825 C826 1.383 1_655 S
C825 H833 0.929 . S
C826 C825 1.383 1_455 S
C826 C827 1.377 . S
C827 H811 0.930 . S
C827 C826 1.377 . S
C827 C828 1.379 . S
C828 H812 0.931 . S
C828 C822 1.383 . S
C828 C827 1.379 . S
H829 C823 0.959 . S
H830 C823 0.961 . S
H831 C823 0.960 . S
H832 C824 0.930 . S
H833 C825 0.929 . S
C195 C7 0.624 . S
C214 C185 0.639 . S
C231 C51 1.917 . S
C250 C163 1.872 . S
C267 C87 1.224 . S
C286 C174 1.195 . S
C303 C16 0.209 . S
C322 C179 0.173 . S
C358 C157 1.839 . S
C339 C42 1.859 . S
C394 C168 1.147 . S
C375 C96 1.143 . S
C411 C47 1.263 . S
C430 C141 1.255 . S
C447 C91 3.006 . S
C466 C146 2.957 1_655 S
C483 C2 1.877 . S
C502 C124 1.837 1_565 S
C538 C135 1.116 . S
C519 C56 1.129 . S
C574 C152 2.944 . S
C555 C82 2.990 . S
C591 C11 1.915 . S
C610 C130 1.860 . S
C646 C147 1.715 . S
C627 C19 1.673 . S
C663 C50 1.430 . S
C682 C125 1.486 . S
C699 C99 1.519 . S
C718 C136 1.534 . S
C754 C169 1.521 . S
C735 C59 1.516 . S
C790 C180 1.292 . S
C771 C90 1.286 . S
C807 C10 1.406 . S
C826 C158 1.440 . S
