# Generated by pormake.
# Topology zzz, (3,6)-cn, num edge types: 1
# Building blocks:
#     Node 0, Type 0, BuildingBlock: KAKCAD_clean_linker_0, # of connection points: 3
#     Node 1, Type 0, BuildingBlock: KAKCAD_clean_linker_0, # of connection points: 3
#     Node 2, Type 0, BuildingBlock: KAKCAD_clean_linker_0, # of connection points: 3
#     Node 3, Type 0, BuildingBlock: KAKCAD_clean_linker_0, # of connection points: 3
#     Node 4, Type 0, BuildingBlock: KAKCAD_clean_linker_0, # of connection points: 3
#     Node 5, Type 0, BuildingBlock: KAKCAD_clean_linker_0, # of connection points: 3
#     Node 6, Type 0, BuildingBlock: KAKCAD_clean_linker_0, # of connection points: 3
#     Node 7, Type 0, BuildingBlock: KAKCAD_clean_linker_0, # of connection points: 3
#     Node 8, Type 1, BuildingBlock: INOVEN_clean_sbu_0, # of connection points: 6
#     Node 9, Type 1, BuildingBlock: INOVEN_clean_sbu_0, # of connection points: 6
#     Node 10, Type 1, BuildingBlock: INOVEN_clean_sbu_0, # of connection points: 6
#     Node 11, Type 1, BuildingBlock: INOVEN_clean_sbu_0, # of connection points: 6
#     Edge 12, Type (0, 1), BuildingBlock: AJUNOK_clean_linker_0, # of connection points: 2
#     Edge 13, Type (0, 1), BuildingBlock: AJUNOK_clean_linker_0, # of connection points: 2
#     Edge 14, Type (0, 1), BuildingBlock: AJUNOK_clean_linker_0, # of connection points: 2
#     Edge 15, Type (0, 1), BuildingBlock: AJUNOK_clean_linker_0, # of connection points: 2
#     Edge 16, Type (0, 1), BuildingBlock: AJUNOK_clean_linker_0, # of connection points: 2
#     Edge 17, Type (0, 1), BuildingBlock: AJUNOK_clean_linker_0, # of connection points: 2
#     Edge 18, Type (0, 1), BuildingBlock: AJUNOK_clean_linker_0, # of connection points: 2
#     Edge 19, Type (0, 1), BuildingBlock: AJUNOK_clean_linker_0, # of connection points: 2
#     Edge 20, Type (0, 1), BuildingBlock: AJUNOK_clean_linker_0, # of connection points: 2
#     Edge 21, Type (0, 1), BuildingBlock: AJUNOK_clean_linker_0, # of connection points: 2
#     Edge 22, Type (0, 1), BuildingBlock: AJUNOK_clean_linker_0, # of connection points: 2
#     Edge 23, Type (0, 1), BuildingBlock: AJUNOK_clean_linker_0, # of connection points: 2
#     Edge 24, Type (0, 1), BuildingBlock: AJUNOK_clean_linker_0, # of connection points: 2
#     Edge 25, Type (0, 1), BuildingBlock: AJUNOK_clean_linker_0, # of connection points: 2
#     Edge 26, Type (0, 1), BuildingBlock: AJUNOK_clean_linker_0, # of connection points: 2
#     Edge 27, Type (0, 1), BuildingBlock: AJUNOK_clean_linker_0, # of connection points: 2
#     Edge 28, Type (0, 1), BuildingBlock: AJUNOK_clean_linker_0, # of connection points: 2
#     Edge 29, Type (0, 1), BuildingBlock: AJUNOK_clean_linker_0, # of connection points: 2
#     Edge 30, Type (0, 1), BuildingBlock: AJUNOK_clean_linker_0, # of connection points: 2
#     Edge 31, Type (0, 1), BuildingBlock: AJUNOK_clean_linker_0, # of connection points: 2
#     Edge 32, Type (0, 1), BuildingBlock: AJUNOK_clean_linker_0, # of connection points: 2
#     Edge 33, Type (0, 1), BuildingBlock: AJUNOK_clean_linker_0, # of connection points: 2
#     Edge 34, Type (0, 1), BuildingBlock: AJUNOK_clean_linker_0, # of connection points: 2
#     Edge 35, Type (0, 1), BuildingBlock: AJUNOK_clean_linker_0, # of connection points: 2
# Relax obj value: 0.478
# Max RMSD: 0.263
# Mean RMSD: 0.252
data_MOF--net-zzz--node1-INOVEN_clean_sbu_0--node2-KAKCAD_clean_linker_0--edge1-AJUNOK_clean_linker_0
_symmetry_space_group_name_H-M    P1
_symmetry_Int_Tables_number       1
_symmetry_cell_setting            triclinic
loop_
_symmetry_equiv_pos_as_xyz
'x, y, z'
_cell_length_a     46.258633
_cell_length_b     46.514002
_cell_length_c     14.367966
_cell_angle_alpha  89.568281
_cell_angle_beta   89.930252
_cell_angle_gamma 90.048647
loop_
_atom_site_label
_atom_site_type_symbol
_atom_site_fract_x
_atom_site_fract_y
_atom_site_fract_z
_atom_type_partial_charge
C0 C 0.78493 0.44031 0.08117 0.0
C1 C 0.79777 0.41503 0.11631 0.0
C2 C 0.76403 0.45467 0.13244 0.0
C3 C 0.75639 0.44466 0.2212 0.0
C4 C 0.76684 0.41805 0.25276 0.0
C5 C 0.78697 0.40298 0.19957 0.0
C6 C 0.74416 0.4654 0.28683 0.0
C7 C 0.71833 0.47938 0.26649 0.0
C8 C 0.71015 0.5041 0.31491 0.0
C9 C 0.72883 0.51533 0.38429 0.0
C10 C 0.75481 0.50057 0.4071 0.0
C11 C 0.76177 0.47551 0.35829 0.0
C12 C 0.77713 0.51122 0.47382 0.0
C13 C 0.79193 0.53713 0.45664 0.0
C14 C 0.7888 0.49195 0.53992 0.0
C15 C 0.81572 0.49711 0.58129 0.0
C16 C 0.83181 0.52182 0.55823 0.0
C17 C 0.6828 0.51787 0.28393 0.0
C18 C 0.68341 0.53667 0.20703 0.0
C19 C 0.65631 0.50515 0.30907 0.0
C20 C 0.6313 0.51002 0.2559 0.0
C21 C 0.63219 0.52754 0.17554 0.0
C22 C 0.65849 0.54141 0.15342 0.0
C23 C 0.81885 0.54246 0.49887 0.0
H24 H 0.79319 0.45103 0.01957 0.0
H25 H 0.75655 0.47544 0.10766 0.0
H26 H 0.76125 0.41016 0.32159 0.0
H27 H 0.79621 0.38344 0.22813 0.0
H28 H 0.70512 0.4717 0.20943 0.0
H29 H 0.78241 0.46507 0.37065 0.0
H30 H 0.72331 0.53508 0.4195 0.0
H31 H 0.78378 0.55226 0.40539 0.0
H32 H 0.77807 0.47166 0.55409 0.0
H33 H 0.82475 0.48073 0.62663 0.0
H34 H 0.70376 0.54576 0.18361 0.0
H35 H 0.65543 0.48972 0.3659 0.0
H36 H 0.83009 0.56222 0.48173 0.0
H37 H 0.66046 0.55434 0.09079 0.0
H38 H 0.61154 0.49899 0.27537 0.0
C39 C 0.09683 0.78541 0.03862 0.0
C40 C 0.11426 0.8075 0.07426 0.0
C41 C 0.07962 0.76891 0.09823 0.0
C42 C 0.08043 0.77342 0.19495 0.0
C43 C 0.10125 0.79227 0.23093 0.0
C44 C 0.11751 0.80959 0.17135 0.0
C45 C 0.05683 0.76239 0.25555 0.0
C46 C 0.0433 0.73625 0.23666 0.0
C47 C 1.01773 0.72822 0.28229 0.0
C48 C 1.00606 0.74617 0.3521 0.0
C49 C 0.02059 0.77191 0.37549 0.0
C50 C 0.04543 0.77985 0.32564 0.0
C51 C 1.01066 0.79239 0.44786 0.0
C52 C 0.9869 0.81046 0.43101 0.0
C53 C 0.02984 0.79951 0.52 0.0
C54 C 0.02664 0.82509 0.56963 0.0
C55 C 1.00392 0.8442 0.54934 0.0
C56 C 1.0034 0.70202 0.24699 0.0
C57 C 0.98799 0.70412 0.16314 0.0
C58 C 1.01336 0.67491 0.27617 0.0
C59 C 1.00973 0.65075 0.21939 0.0
C60 C 0.99683 0.6534 0.13087 0.0
C61 C 0.98481 0.68017 0.10566 0.0
C62 C 0.98352 0.83605 0.48141 0.0
H63 H 0.09425 0.78284 0.96422 0.0
H64 H 0.06396 0.75455 0.06741 0.0
H65 H 0.10324 0.79551 0.30522 0.0
H66 H 0.13026 0.8265 0.20235 0.0
H67 H 0.05203 0.72239 0.18319 0.0
H68 H 0.05507 0.80065 0.33924 0.0
H69 H 0.98617 0.74026 0.38723 0.0
H70 H 0.97224 0.80594 0.37422 0.0
H71 H 0.0488 0.78639 0.5327 0.0
H72 H 0.04326 0.83076 0.61922 0.0
H73 H 0.98089 0.72494 0.13766 0.0
H74 H 0.02597 0.67286 0.33938 0.0
H75 H 0.96565 0.85013 0.46414 0.0
H76 H 0.9748 0.68325 0.03823 0.0
H77 H 0.01834 0.63034 0.24302 0.0
C78 C 0.74991 0.07145 0.02751 0.0
C79 C 0.72955 0.09274 0.04946 0.0
C80 C 0.76528 0.05759 0.09816 0.0
C81 C 0.76071 0.06507 0.19161 0.0
C82 C 0.74241 0.08813 0.21256 0.0
C83 C 0.72676 0.10164 0.14236 0.0
C84 C 0.77267 0.04716 0.26741 0.0
C85 C 0.80091 0.03707 0.26276 0.0
C86 C 0.81209 0.01877 0.33173 0.0
C87 C 0.79416 1.01014 0.40732 0.0
C88 C 0.76555 0.02104 0.41357 0.0
C89 C 0.75523 0.03912 0.34262 0.0
C90 C 0.74486 1.01455 0.49062 0.0
C91 C 0.73184 0.98736 0.49829 0.0
C92 C 0.73216 0.03769 0.53821 0.0
C93 C 0.70576 0.03443 0.58495 0.0
C94 C 0.6913 1.00782 0.58616 0.0
C95 C 0.84248 1.00945 0.3175 0.0
C96 C 0.84806 0.98233 0.27938 0.0
C97 C 0.86382 0.03089 0.30913 0.0
C98 C 0.88841 0.02659 0.25414 0.0
C99 C 0.89282 1.00033 0.20814 0.0
C100 C 0.87311 0.97773 0.22611 0.0
C101 C 0.7055 0.98396 0.54639 0.0
H102 H 0.75242 0.06414 0.95654 0.0
H103 H 0.77923 0.03979 0.08007 0.0
H104 H 0.73893 0.09465 0.28394 0.0
H105 H 0.71075 0.1174 0.16241 0.0
H106 H 0.81442 0.04346 0.20434 0.0
H107 H 0.73297 0.04645 0.34503 0.0
H108 H 0.80246 0.99587 0.46083 0.0
H109 H 0.74082 0.96922 0.46131 0.0
H110 H 0.74146 0.05902 0.53234 0.0
H111 H 0.69575 0.05332 0.61452 0.0
H112 H 0.83177 0.9656 0.28284 0.0
H113 H 0.85974 0.05224 0.33586 0.0
H114 H 0.69564 0.96286 0.5487 0.0
H115 H 0.87592 0.95703 0.19334 0.0
H116 H 0.90235 0.04486 0.24102 0.0
C117 C 0.49651 0.71066 0.56121 0.0
C118 C 0.52021 0.69605 0.60117 0.0
C119 C 0.50021 0.73742 0.51635 0.0
C120 C 0.52766 0.75036 0.51018 0.0
C121 C 0.55097 0.73661 0.55471 0.0
C122 C 0.5473 0.70993 0.59977 0.0
C123 C 0.5338 0.77066 0.43176 0.0
C124 C 0.53119 0.80109 0.43566 0.0
C125 C 0.53694 0.81784 0.35451 0.0
C126 C 0.54445 0.80409 0.27164 0.0
C127 C 0.54551 0.7743 0.26645 0.0
C128 C 0.54096 0.75783 0.34704 0.0
C129 C 0.54492 0.76011 0.17512 0.0
C130 C 0.52475 0.76952 0.10833 0.0
C131 C 0.55823 0.73328 0.16429 0.0
C132 C 0.54726 0.71397 0.09992 0.0
C133 C 0.52316 0.72161 0.04576 0.0
C134 C 0.53356 0.84951 0.34624 0.0
C135 C 0.50676 0.86045 0.31622 0.0
C136 C 0.55857 0.86583 0.328 0.0
C137 C 0.5573 0.89053 0.27171 0.0
C138 C 0.53091 0.89978 0.23351 0.0
C139 C 0.50543 0.88542 0.26059 0.0
C140 C 0.51407 0.75031 0.04305 0.0
H141 H 0.47546 0.70053 0.55847 0.0
H142 H 0.48209 0.74676 0.47927 0.0
H143 H 0.57258 0.74541 0.54814 0.0
H144 H 0.56605 0.69948 0.62978 0.0
H145 H 0.52472 0.8114 0.49969 0.0
H146 H 0.541 0.73454 0.34289 0.0
H147 H 0.54784 0.81675 0.20873 0.0
H148 H 0.5143 0.79026 0.11411 0.0
H149 H 0.57442 0.7259 0.2134 0.0
H150 H 0.555 0.69199 0.10215 0.0
H151 H 0.48725 0.84789 0.3263 0.0
H152 H 0.5796 0.85751 0.34759 0.0
H153 H 0.49599 0.75674 0.9998 0.0
H154 H 0.4848 0.89182 0.2315 0.0
H155 H 0.57729 0.90113 0.25217 0.0
C156 C 0.23137 0.45435 0.38071 0.0
C157 C 0.20564 0.44823 0.33233 0.0
C158 C 0.25757 0.45519 0.33249 0.0
C159 C 0.25815 0.44831 0.23737 0.0
C160 C 0.23476 0.43281 0.20117 0.0
C161 C 0.20808 0.43441 0.2456 0.0
C162 C 0.27467 0.46742 0.17333 0.0
C163 C 0.30201 0.47769 0.1974 0.0
C164 C 0.31332 0.5027 0.1558 0.0
C165 C 0.29685 0.51756 0.08711 0.0
C166 C 0.26991 0.50611 0.05808 0.0
C167 C 0.25964 0.48104 0.10063 0.0
C168 C 0.24906 0.52042 0.99338 0.0
C169 C 0.22803 0.53879 0.03135 0.0
C170 C 0.24288 0.50711 0.90783 0.0
C171 C 0.21569 0.51035 0.86518 0.0
C172 C 0.19393 0.52677 0.90752 0.0
C173 C 0.34068 0.51368 0.19654 0.0
C174 C 0.33919 0.53238 0.27272 0.0
C175 C 0.3665 0.49841 0.1815 0.0
C176 C 0.38959 0.50031 0.24463 0.0
C177 C 0.38714 0.51721 0.32501 0.0
C178 C 0.36211 0.53404 0.33639 0.0
C179 C 0.20074 0.54179 0.98924 0.0
H180 H 0.23074 0.46289 0.4506 0.0
H181 H 0.27572 0.46573 0.3654 0.0
H182 H 0.2353 0.42541 0.12984 0.0
H183 H 0.18952 0.42864 0.20442 0.0
H184 H 0.3137 0.46738 0.25392 0.0
H185 H 0.23804 0.47394 0.08253 0.0
H186 H 0.30463 0.53767 0.05799 0.0
H187 H 0.23156 0.54842 0.09882 0.0
H188 H 0.25806 0.49188 0.87875 0.0
H189 H 0.21093 0.49819 0.80304 0.0
H190 H 0.31927 0.54365 0.28785 0.0
H191 H 0.36786 0.48308 0.12525 0.0
H192 H 0.18428 0.55436 0.02389 0.0
H193 H 0.35956 0.54721 0.39773 0.0
H194 H 0.40834 0.48676 0.23453 0.0
C195 C 0.04676 0.23463 0.47685 0.0
C196 C 0.0585 0.20848 0.44752 0.0
C197 C 0.05299 0.25961 0.42691 0.0
C198 C 0.07071 0.25808 0.34743 0.0
C199 C 0.08833 0.23375 0.33587 0.0
C200 C 0.08193 0.20866 0.38548 0.0
C201 C 0.06123 0.27442 0.26423 0.0
C202 C 0.05247 0.30294 0.27243 0.0
C203 C 0.03381 0.3155 0.20705 0.0
C204 C 0.0245 0.2992 0.12918 0.0
C205 C 0.03494 0.27073 0.11726 0.0
C206 C 0.05331 0.25899 0.18481 0.0
C207 C 0.02597 0.25067 0.04167 0.0
C208 C 0.99962 0.23563 0.04859 0.0
C209 C 0.04745 0.23965 0.98234 0.0
C210 C 0.04351 0.21348 0.93601 0.0
C211 C 1.01788 0.19751 0.94707 0.0
C212 C 0.02324 0.34473 0.23074 0.0
C213 C 1.00107 0.34738 0.29737 0.0
C214 C 0.04163 0.36836 0.21538 0.0
C215 C 0.03932 0.3931 0.27022 0.0
C216 C 0.01901 0.39463 0.34277 0.0
C217 C 0.99891 0.37211 0.35262 0.0
C218 C 0.99556 0.20943 1.00148 0.0
H219 H 0.0291 0.23501 0.52648 0.0
H220 H 0.0397 0.27832 0.43994 0.0
H221 H 0.10301 0.23245 0.27723 0.0
H222 H 0.09179 0.18865 0.36405 0.0
H223 H 0.05839 0.3148 0.33437 0.0
H224 H 0.05925 0.23651 0.17915 0.0
H225 H 1.0094 0.30835 0.07967 0.0
H226 H 0.9831 0.24285 0.09649 0.0
H227 H 0.06832 0.25017 0.9778 0.0
H228 H 0.06113 0.20505 0.89468 0.0
H229 H 0.9872 0.32919 0.313 0.0
H230 H 0.05942 0.3667 0.1666 0.0
H231 H 0.97572 0.19755 1.01293 0.0
H232 H 0.98297 0.37264 0.40787 0.0
H233 H 0.05441 0.41049 0.25938 0.0
C234 C 0.28389 0.01844 0.46358 0.0
C235 C 0.31194 0.02934 0.45402 0.0
C236 C 0.26144 0.03115 0.41411 0.0
C237 C 0.26729 0.05434 0.35348 0.0
C238 C 0.29382 0.06879 0.36058 0.0
C239 C 0.31625 0.05618 0.41076 0.0
C240 C 0.25147 0.05507 0.26462 0.0
C241 C 0.22163 0.05159 0.26462 0.0
C242 C 0.20728 0.04027 0.1874 0.0
C243 C 0.22352 0.03318 0.10627 0.0
C244 C 0.2538 0.03887 0.10363 0.0
C245 C 0.26707 0.05018 0.18275 0.0
C246 C 0.2741 0.03041 0.0273 0.0
C247 C 0.28885 1.00404 0.03515 0.0
C248 C 0.28642 0.05196 0.97021 0.0
C249 C 0.31347 0.04789 0.92689 0.0
C250 C 0.32925 0.02237 0.94111 0.0
C251 C 0.17604 0.0339 0.20316 0.0
C252 C 0.16827 1.00735 0.2438 0.0
C253 C 0.15713 0.05728 0.21461 0.0
C254 C 0.13266 0.05499 0.2721 0.0
C255 C 0.12624 0.02916 0.31946 0.0
C256 C 0.14363 1.00497 0.30108 0.0
C257 C 0.316 1.00008 0.99273 0.0
H258 H 0.28004 0.99785 0.49717 0.0
H259 H 0.24104 0.01974 0.41116 0.0
H260 H 0.29855 0.08707 0.3159 0.0
H261 H 0.33779 0.06519 0.40466 0.0
H262 H 0.20979 0.05515 0.32884 0.0
H263 H 0.29045 0.05219 0.18339 0.0
H264 H 0.21298 0.02319 0.04754 0.0
H265 H 0.28063 0.98739 0.0812 0.0
H266 H 0.27627 0.0729 0.96556 0.0
H267 H 0.32302 0.06556 0.88811 0.0
H268 H 0.18291 0.98923 0.23956 0.0
H269 H 0.16297 0.07825 0.18712 0.0
H270 H 0.32737 0.98004 1.00458 0.0
H271 H 0.13973 0.98485 0.33737 0.0
H272 H 0.11978 0.07403 0.28438 0.0
C273 C 0.48176 0.31817 0.98497 0.0
C274 C 0.5061 0.3341 0.95403 0.0
C275 C 0.485 0.29233 0.03617 0.0
C276 C 0.51263 0.28131 0.05562 0.0
C277 C 0.53666 0.29559 1.01606 0.0
C278 C 0.5335 0.32159 0.96698 0.0
C279 C 0.51763 0.26088 0.13546 0.0
C280 C 0.50654 0.23232 0.14295 0.0
C281 C 0.51377 0.21499 0.22196 0.0
C282 C 0.53119 0.22656 0.29195 0.0
C283 C 0.54172 0.25449 0.2854 0.0
C284 C 0.5347 0.27145 0.20813 0.0
C285 C 0.55954 0.26661 0.36042 0.0
C286 C 0.5509 0.26389 0.45379 0.0
C287 C 0.58378 0.28338 0.33796 0.0
C288 C 0.59738 0.2995 0.4061 0.0
C289 C 0.5873 0.29876 0.49843 0.0
C290 C 0.50477 0.18454 0.23783 0.0
C291 C 0.47954 0.1788 0.2895 0.0
C292 C 0.52622 0.1631 0.23462 0.0
C293 C 0.52362 0.13771 0.28759 0.0
C294 C 0.49936 0.13287 0.34485 0.0
C295 C 0.4768 0.15324 0.342 0.0
C296 C 0.5648 0.27978 0.52249 0.0
H297 H 0.46012 0.32617 0.97294 0.0
H298 H 0.46603 0.28213 0.06593 0.0
H299 H 0.55832 0.28785 0.03006 0.0
H300 H 0.55287 0.33277 0.94458 0.0
H301 H 0.49319 0.22363 0.08808 0.0
H302 H 0.54229 0.29352 0.20523 0.0
H303 H 0.53686 0.21347 0.3521 0.0
H304 H 0.5322 0.25108 0.47277 0.0
H305 H 0.59113 0.2854 0.26657 0.0
H306 H 0.6141 0.3144 0.38433 0.0
H307 H 0.46316 0.19528 0.29654 0.0
H308 H 0.54635 0.16724 0.19827 0.0
H309 H 0.55657 0.27887 0.59307 0.0
H310 H 0.458 0.15058 0.38623 0.0
H311 H 0.54139 0.12257 0.28771 0.0
Gd312 Gd 0.03214 1.01285 0.82572 0.0
Gd313 Gd 0.98142 0.02413 0.70945 0.0
C314 C 1.00663 0.96136 0.69892 0.0
C315 C 0.06562 0.99481 0.95583 0.0
C316 C 0.08809 0.97289 0.95117 0.0
C317 C 0.0936 0.95942 0.86585 0.0
C318 C 0.10047 0.96211 0.03289 0.0
C319 C 0.11908 0.92134 0.94664 0.0
C320 C 0.11603 0.93644 0.03064 0.0
C321 C 0.10908 0.93379 0.86356 0.0
C322 C 0.05406 0.02277 0.65224 0.0
C323 C 1.0116 0.07799 0.81502 0.0
C324 C 0.94294 0.04316 0.59549 0.0
C325 C 0.9458 0.06848 0.53416 0.0
C326 C 0.93717 0.09547 0.56748 0.0
C327 C 0.96455 0.06719 0.45711 0.0
C328 C 0.97382 0.11804 0.47169 0.0
C329 C 0.97885 0.09185 0.42697 0.0
C330 C 0.9513 0.12019 0.53656 0.0
C331 C 0.96798 1.00237 0.88024 0.0
O332 O 0.02039 0.96791 0.77651 0.0
O333 O 0.99284 0.98127 0.65139 0.0
O334 O 0.07078 0.01841 0.90845 0.0
O335 O 0.03943 0.98478 0.94344 0.0
O336 O 0.06927 0.01805 0.72568 0.0
O337 O 0.02746 0.02327 0.67305 0.0
O338 O 0.99602 0.06984 0.74248 0.0
O339 O 0.02572 0.05889 0.86546 0.0
O340 O 0.94242 0.0487 0.68462 0.0
O341 O 0.96006 0.02168 0.57606 0.0
O342 O 0.95692 0.99378 0.80268 0.0
O343 O 0.98649 0.0217 0.86312 0.0
H344 H 0.08392 0.96739 0.80213 0.0
H345 H 0.0962 0.97223 0.09919 0.0
H346 H 0.12302 0.92697 0.09596 0.0
H347 H 0.11092 0.92237 0.79835 0.0
H348 H 0.92221 0.09715 0.62526 0.0
H349 H 0.97104 0.04678 0.42792 0.0
H350 H 0.99599 0.08974 0.376 0.0
H351 H 0.94657 0.14052 0.56944 0.0
Gd352 Gd 0.51543 0.03531 0.82595 0.0
Gd353 Gd 0.50634 0.98625 0.72732 0.0
C354 C 0.5703 1.00767 0.71547 0.0
C355 C 0.53471 0.077 0.92562 0.0
C356 C 0.56129 0.09352 0.91273 0.0
C357 C 0.57642 0.09146 0.82817 0.0
C358 C 0.57425 0.10673 0.98911 0.0
C359 C 0.61911 0.11076 0.90199 0.0
C360 C 0.60304 0.11552 0.98359 0.0
C361 C 0.6053 0.09985 0.82303 0.0
C362 C 0.49706 0.04858 0.64942 0.0
C363 C 0.45167 1.01495 0.82705 0.0
C364 C 0.48907 0.9446 0.62304 0.0
C365 C 0.46577 0.94411 0.55454 0.0
C366 C 0.44263 0.92502 0.5676 0.0
C367 C 0.46305 0.96709 0.4913 0.0
C368 C 0.41199 0.95707 0.47841 0.0
C369 C 0.43628 0.97354 0.45354 0.0
C370 C 0.41575 0.93138 0.52886 0.0
C371 C 0.52593 0.97348 0.90202 0.0
O372 O 0.56207 0.02414 0.78516 0.0
O373 O 0.5509 0.9923 0.67225 0.0
O374 O 0.51514 0.08051 0.86139 0.0
O375 O 0.53895 0.04997 0.94671 0.0
O376 O 0.4871 0.05973 0.725 0.0
O377 O 0.5158 0.02992 0.67106 0.0
O378 O 0.4602 1.00354 0.74747 0.0
O379 O 0.47145 0.02525 0.88327 0.0
O380 O 0.48044 0.9479 0.70877 0.0
O381 O 0.51103 0.96101 0.60244 0.0
O382 O 0.53592 0.96287 0.82589 0.0
O383 O 0.50657 0.99167 0.88236 0.0
H384 H 0.56665 0.08126 0.76839 0.0
H385 H 0.5629 0.1082 0.05492 0.0
H386 H 0.61348 0.12334 0.04596 0.0
H387 H 0.61744 0.09567 0.76002 0.0
H388 H 0.44451 0.907 0.61543 0.0
H389 H 0.48063 0.98207 0.47906 0.0
H390 H 0.43415 0.99335 0.41397 0.0
H391 H 0.39745 0.91779 0.54589 0.0
Gd392 Gd 0.48182 0.51869 0.816 0.0
Gd393 Gd 0.53016 0.51079 0.70793 0.0
C394 C 0.50945 0.57435 0.71379 0.0
C395 C 0.44298 0.53557 0.93239 0.0
C396 C 0.44262 0.56206 0.98688 0.0
C397 C 0.42431 0.58459 0.95892 0.0
C398 C 0.46566 0.56778 0.04779 0.0
C399 C 0.45784 0.61851 0.02474 0.0
C400 C 0.47339 0.59598 0.0658 0.0
C401 C 0.43192 0.6129 0.97813 0.0
C402 C 0.46626 0.50302 0.64053 0.0
C403 C 0.50306 0.4546 0.8178 0.0
C404 C 0.57095 0.49318 0.60044 0.0
C405 C 0.58874 0.46752 0.6121 0.0
C406 C 0.58917 0.45353 0.69913 0.0
C407 C 0.60047 0.45403 0.53411 0.0
C408 C 0.60725 0.41058 0.62599 0.0
C409 C 0.60992 0.42562 0.5412 0.0
C410 C 0.59823 0.42507 0.70591 0.0
C411 C 0.54529 0.52844 0.88132 0.0
O412 O 0.49692 0.56515 0.79145 0.0
O413 O 0.52069 0.55537 0.65689 0.0
O414 O 0.44082 0.53948 0.84259 0.0
O415 O 0.46319 0.51716 0.954 0.0
O416 O 0.45635 0.4917 0.71657 0.0
O417 O 0.48571 0.52103 0.66057 0.0
O418 O 0.52096 0.46391 0.75217 0.0
O419 O 0.48594 0.47292 0.85884 0.0
O420 O 0.57479 0.51298 0.66295 0.0
O421 O 0.54364 0.48781 0.58486 0.0
O422 O 0.55532 0.53909 0.80463 0.0
O423 O 0.52669 0.50933 0.86289 0.0
H424 H 0.4062 0.58057 0.91303 0.0
H425 H 0.47982 0.55084 0.07256 0.0
H426 H 0.4931 0.60018 0.10419 0.0
H427 H 0.41934 0.63026 0.94805 0.0
H428 H 0.5801 0.46371 0.76015 0.0
H429 H 0.60005 0.46453 0.46654 0.0
H430 H 0.61633 0.41453 0.47842 0.0
H431 H 0.59565 0.41363 0.77137 0.0
Gd432 Gd 1.00781 0.50403 0.80702 0.0
Gd433 Gd 0.01897 0.54559 0.66594 0.0
C434 C 0.95343 0.52632 0.68033 0.0
C435 C 0.99016 0.47407 0.9475 0.0
C436 C 0.96521 0.45592 0.96944 0.0
C437 C 0.95519 0.43485 0.90767 0.0
C438 C 0.95014 0.46115 0.05187 0.0
C439 C 0.91409 0.42571 1.00882 0.0
C440 C 0.92473 0.44635 0.07115 0.0
C441 C 0.92987 0.41961 0.92778 0.0
C442 C 0.02322 0.47894 0.64321 0.0
C443 C 0.07251 0.52147 0.78754 0.0
C444 C 0.04048 0.57022 0.52141 0.0
C445 C 0.05911 0.55423 0.45779 0.0
C446 C 0.08411 0.56666 0.4203 0.0
C447 C 0.05536 0.52433 0.4538 0.0
C448 C 0.10334 0.51882 0.38929 0.0
C449 C 0.07738 0.50682 0.42171 0.0
C450 C 0.10594 0.54905 0.38469 0.0
C451 C 1.003 0.57045 0.82826 0.0
O452 O 0.96153 0.51326 0.75831 0.0
O453 O 0.97281 0.53886 0.62681 0.0
O454 O 1.00845 0.46433 0.88603 0.0
O455 O 0.98449 0.50145 0.93711 0.0
O456 O 0.03258 0.47099 0.72418 0.0
O457 O 1.00622 0.4999 0.6526 0.0
O458 O 0.06413 0.52844 0.70225 0.0
O459 O 0.05271 0.51554 0.85031 0.0
O460 O 0.0515 0.57355 0.60422 0.0
O461 O 1.0137 0.56146 0.52454 0.0
O462 O 0.99491 0.57938 0.74689 0.0
O463 O 0.02021 0.54966 0.81966 0.0
H464 H 0.96651 0.43056 0.84322 0.0
H465 H 0.95753 0.47743 0.09994 0.0
H466 H 0.91282 0.45194 0.1334 0.0
H467 H 0.92241 0.40353 0.8793 0.0
H468 H 0.08755 0.58966 0.42405 0.0
H469 H 0.03635 0.51422 0.48328 0.0
H470 H 0.0747 0.48387 0.42953 0.0
H471 H 0.12555 0.55904 0.35885 0.0
C472 C 0.10551 0.05017 0.46624 0.0
C473 C 0.10438 0.02879 0.39714 0.0
C474 C 0.08772 0.04895 0.54571 0.0
C475 C 0.06741 0.02678 0.55876 0.0
H476 H 0.12133 0.0673 0.46128 0.0
H477 H 0.0906 0.06501 0.59915 0.0
S478 S 0.05463 0.9661 0.39812 0.0
N479 N 0.08043 0.98505 0.34672 0.0
N480 N 0.04672 0.98319 0.49532 0.0
C481 C 0.06518 1.00583 0.48906 0.0
C482 C 0.08372 1.00672 0.40863 0.0
C483 C 0.52356 0.10408 0.47276 0.0
C484 C 0.49924 0.10867 0.41511 0.0
C485 C 0.52325 0.08347 0.54524 0.0
C486 C 0.49863 0.06652 0.56325 0.0
H487 H 0.54266 0.11734 0.46429 0.0
H488 H 0.54201 0.08163 0.58999 0.0
S489 S 0.43059 0.06735 0.42752 0.0
N490 N 0.45073 0.09239 0.37713 0.0
N491 N 0.45012 0.05417 0.51408 0.0
C492 C 0.47462 0.07004 0.50453 0.0
C493 C 0.47492 0.09094 0.43041 0.0
C494 C 0.3982 0.50614 0.49204 0.0
C495 C 0.40832 0.51408 0.40308 0.0
C496 C 0.41722 0.50196 0.56696 0.0
C497 C 0.44727 0.50602 0.55708 0.0
H498 H 0.3753 0.50274 0.50369 0.0
H499 H 0.40808 0.49598 0.63381 0.0
S500 S 0.48499 0.5269 0.33882 0.0
N501 N 0.45053 0.52545 0.30888 0.0
N502 N 0.48625 0.51856 0.45083 0.0
C503 C 0.45776 0.51412 0.46867 0.0
C504 C 0.43834 0.51781 0.39148 0.0
C505 C 0.99703 0.43539 0.43478 0.0
C506 C 0.02095 0.41777 0.41447 0.0
C507 C 0.99823 0.45603 0.50623 0.0
C508 C 0.0231 0.4592 0.56195 0.0
H509 H 0.97722 0.43307 0.39546 0.0
H510 H 0.97921 0.46889 0.51995 0.0
S511 S 0.09179 0.41912 0.53573 0.0
N512 N 0.07059 0.40577 0.45428 0.0
N513 N 0.07239 0.44369 0.58973 0.0
C514 C 0.04716 0.44194 0.54175 0.0
C515 C 0.04622 0.42151 0.46774 0.0
C516 C 0.90701 0.98419 0.04782 0.0
C517 C 0.91473 0.99808 0.13104 0.0
C518 C 0.92508 0.98465 0.96946 0.0
C519 C 0.95164 0.99944 0.96939 0.0
H520 H 0.88615 0.97384 0.04113 0.0
H521 H 0.91747 0.97419 0.90698 0.0
S522 S 0.98398 0.03672 0.17161 0.0
N523 N 0.9526 0.02471 0.21087 0.0
N524 N 0.98595 0.02659 0.0618 0.0
C525 C 0.96037 1.01252 0.05278 0.0
C526 C 0.94207 1.01168 0.13367 0.0
C527 C 0.54819 0.91563 0.07603 0.0
C528 C 0.53073 0.92084 0.15436 0.0
C529 C 0.54705 0.93343 0.99684 0.0
C530 C 0.52843 0.95736 0.99204 0.0
H531 H 0.56227 0.89704 0.07467 0.0
H532 H 0.56048 0.92787 0.93785 0.0
S533 S 0.48074 0.98233 0.18305 0.0
N534 N 0.49581 0.95282 0.22526 0.0
N535 N 0.49382 0.98662 0.07667 0.0
C536 C 0.51167 0.96355 0.07141 0.0
C537 C 0.5127 0.94517 0.15219 0.0
C538 C 0.59159 0.50379 0.08609 0.0
C539 C 0.60686 0.52903 0.11004 0.0
C540 C 0.57013 0.50394 1.01638 0.0
C541 C 0.56322 0.52929 0.96725 0.0
H542 H 0.5972 0.48342 0.11824 0.0
H543 H 0.5601 0.48377 0.99733 0.0
S544 S 0.59336 0.60181 1.01124 0.0
N545 N 0.61063 0.5807 0.08551 0.0
N546 N 0.57123 0.58066 0.95304 0.0
C547 C 0.57715 0.55484 0.99354 0.0
C548 C 0.5987 0.5548 0.06506 0.0
C549 C 0.97425 0.62478 1.00114 0.0
C550 C 0.99785 0.62947 0.0613 0.0
C551 C 0.97591 0.6051 0.92758 0.0
C552 C 1.00096 0.58877 0.91212 0.0
H553 H 0.95443 0.63685 1.00968 0.0
H554 H 0.95749 0.6029 0.88165 0.0
S555 S 0.069 0.59241 0.04772 0.0
N556 N 0.04752 0.61603 0.09793 0.0
N557 N 0.04983 0.57808 0.96305 0.0
C558 C 0.02438 0.59231 0.97323 0.0
C559 C 0.02301 0.61284 0.04697 0.0
C560 C 0.02999 0.17287 0.53964 0.0
C561 C 0.03974 0.18303 0.45305 0.0
C562 C 1.00822 0.15207 0.54485 0.0
C563 C 0.99528 0.14121 0.46363 0.0
H564 H 0.03889 0.18143 0.60343 0.0
H565 H 1.00159 0.14431 0.61288 0.0
S566 S 1.01158 0.16255 0.22052 0.0
N567 N 0.03391 0.18182 0.2844 0.0
N568 N 0.99293 0.14266 0.29496 0.0
C569 C 1.00473 0.15127 0.3768 0.0
C570 C 0.02696 0.17226 0.37132 0.0
C571 C 0.35382 1.00483 0.38362 0.0
C572 C 0.33639 1.00943 0.46241 0.0
C573 C 0.37677 0.98555 0.38655 0.0
C574 C 0.3833 0.9704 0.46867 0.0
H575 H 0.34973 0.01631 0.31903 0.0
H576 H 0.39031 0.98341 0.32537 0.0
S577 S 0.34145 0.97184 0.68958 0.0
N578 N 0.32474 0.99502 0.62071 0.0
N579 N 0.36885 0.95932 0.62841 0.0
C580 C 0.36492 0.9735 0.54635 0.0
C581 C 0.34125 0.99297 0.54275 0.0
C582 C 0.573 0.33864 0.60149 0.0
C583 C 0.59536 0.32243 0.56132 0.0
C584 C 0.57801 0.36655 0.63192 0.0
C585 C 0.60548 0.37913 0.62348 0.0
H586 H 0.55084 0.33108 0.60031 0.0
H587 H 0.55962 0.37931 0.65286 0.0
S588 S 0.67243 0.34368 0.54367 0.0
N589 N 0.64703 0.319 0.5314 0.0
N590 N 0.6561 0.37231 0.58619 0.0
C591 C 0.6286 0.36228 0.59311 0.0
C592 C 0.62363 0.33361 0.5631 0.0
C593 C 0.18019 0.49117 0.39716 0.0
C594 C 0.17835 0.46344 0.35813 0.0
C595 C 0.15595 0.50871 0.40619 0.0
C596 C 0.12877 0.49998 0.37347 0.0
H597 H 0.20069 0.50025 0.4181 0.0
H598 H 0.15873 0.52939 0.43916 0.0
S599 S 0.11165 0.42949 0.2672 0.0
N600 N 0.1461 0.42719 0.29485 0.0
N601 N 0.10135 0.46195 0.29843 0.0
C602 C 0.12637 0.47239 0.33437 0.0
C603 C 0.15087 0.45378 0.33001 0.0
C604 C 0.10161 0.84324 0.95161 0.0
C605 C 0.1224 0.83235 1.01422 0.0
C606 C 0.10291 0.87161 0.92 0.0
C607 C 0.12476 0.8902 0.95077 0.0
H608 H 0.0824 0.83105 0.93462 0.0
H609 H 0.08491 0.8798 0.87965 0.0
S610 S 0.18876 0.87014 0.09093 0.0
N611 N 0.16929 0.84039 0.08636 0.0
N612 N 0.17069 0.89457 0.03064 0.0
C613 C 0.14762 0.87873 1.00296 0.0
C614 C 0.1467 0.84953 0.03357 0.0
C615 C 0.69217 0.07875 0.93509 0.0
C616 C 0.70685 0.10084 0.98191 0.0
C617 C 0.6646 0.08331 0.89882 0.0
C618 C 0.65082 0.11001 0.90845 0.0
H619 H 0.7005 0.05698 0.9352 0.0
H620 H 0.65285 0.06497 0.87245 0.0
S621 S 0.68287 0.1765 1.00323 0.0
N622 N 0.70814 0.15182 1.01817 0.0
N623 N 0.65551 0.16003 0.95245 0.0
C624 C 0.66652 0.13309 0.94472 0.0
C625 C 0.69483 0.1286 0.98057 0.0
C626 C 0.51432 0.67432 0.97276 0.0
C627 C 0.50326 0.69859 1.01779 0.0
C628 C 0.49878 0.64865 0.97243 0.0
C629 C 0.47165 0.64666 1.01628 0.0
H630 H 0.5359 0.67465 0.94331 0.0
H631 H 0.50848 0.6299 0.94071 0.0
S632 S 0.43199 0.70441 0.13619 0.0
N633 N 0.46264 0.71945 0.10243 0.0
N634 N 0.43319 0.671 0.09841 0.0
C635 C 0.45932 0.67115 0.05502 0.0
C636 C 0.4752 0.69727 0.05641 0.0
C637 C 0.8491 0.40206 0.14489 0.0
C638 C 0.82657 0.40639 0.08042 0.0
C639 C 0.87795 0.40499 0.1182 0.0
C640 C 0.88532 0.41293 0.02671 0.0
H641 H 0.84464 0.39941 0.21844 0.0
H642 H 0.89444 0.40364 0.17157 0.0
S643 S 0.83492 0.41915 0.82677 0.0
N644 N 0.81392 0.41197 0.917 0.0
N645 N 0.86822 0.41993 0.86791 0.0
C646 C 0.86335 0.41366 0.95913 0.0
C647 C 0.83392 0.40978 0.98591 0.0
C648 C 0.03817 0.14757 0.92721 0.0
C649 C 1.01585 0.16747 0.90934 0.0
C650 C 0.03669 0.119 0.89561 0.0
C651 C 1.01302 0.10899 0.84315 0.0
H652 H 0.05679 0.15395 0.96784 0.0
H653 H 0.05434 0.10462 0.91271 0.0
S654 S 0.94877 0.15232 0.77716 0.0
N655 N 0.96924 0.17498 0.83566 0.0
N656 N 0.96654 0.12154 0.7756 0.0
C657 C 0.99066 0.12873 0.82391 0.0
C658 C 0.99201 0.15779 0.85729 0.0
C659 C 0.36914 0.02545 0.81843 0.0
C660 C 0.36043 0.0201 0.91121 0.0
C661 C 0.39841 0.02277 0.79037 0.0
C662 C 0.42038 0.01607 0.85499 0.0
H663 H 0.35315 0.0314 0.76684 0.0
H664 H 0.40393 0.02673 0.7181 0.0
S665 S 0.40949 1.00274 0.10783 0.0
N666 N 0.37664 1.00889 0.06789 0.0
N667 N 0.43122 1.00538 1.0169 0.0
C668 C 0.412 1.01165 0.94833 0.0
C669 C 0.38224 1.01336 0.97603 0.0
C670 C 0.52221 0.37437 0.84362 0.0
C671 C 0.50356 0.36439 0.9151 0.0
C672 C 0.52172 0.40322 0.81172 0.0
C673 C 0.50252 0.42357 0.84919 0.0
H674 H 0.53753 0.3598 0.81207 0.0
H675 H 0.53677 0.40976 0.75798 0.0
S676 S 0.44952 0.40924 0.03933 0.0
N677 N 0.46586 0.37813 0.02415 0.0
N678 N 0.46415 0.43138 0.96246 0.0
C679 C 0.48352 0.41383 0.91994 0.0
C680 C 0.4842 0.38461 0.95302 0.0
C681 C 0.15376 0.53897 0.79354 0.0
C682 C 0.16326 0.52478 0.87489 0.0
C683 C 0.12461 0.53732 0.76418 0.0
C684 C 0.10384 0.52137 0.81499 0.0
H685 H 0.16886 0.55177 0.75312 0.0
H686 H 0.11819 0.54914 0.70235 0.0
S687 S 0.11877 0.47781 0.0278 0.0
N688 N 0.1502 0.49272 1.00189 0.0
N689 N 0.09592 0.4894 0.94767 0.0
C690 C 0.1135 0.50641 0.89502 0.0
C691 C 0.14302 0.50816 0.92463 0.0
C692 C 0.99787 0.89788 0.53471 0.0
C693 C 1.00336 0.87365 0.59145 0.0
C694 C 0.99899 0.92592 0.57024 0.0
C695 C 1.006 0.93118 0.66404 0.0
H696 H 0.99325 0.89528 0.46137 0.0
H697 H 0.9947 0.94366 0.52302 0.0
S698 S 0.02006 0.87536 0.84429 0.0
N699 N 1.01426 0.85691 0.74836 0.0
N700 N 1.01721 0.90957 0.81424 0.0
C701 C 1.01126 0.90722 0.72202 0.0
C702 C 1.00976 0.87856 0.68604 0.0
C703 C 0.65211 0.02092 0.70229 0.0
C704 C 0.6607 1.00592 0.62173 0.0
C705 C 0.62308 0.02127 0.73256 0.0
C706 C 0.60123 1.00661 0.68379 0.0
H707 H 0.668 0.0326 0.74236 0.0
H708 H 0.61772 0.03322 0.79459 0.0
S709 S 0.61179 0.96483 0.4664 0.0
N710 N 0.64437 0.97682 0.49206 0.0
N711 N 0.59045 0.97673 0.54963 0.0
C712 C 0.60956 0.99135 0.60341 0.0
C713 C 0.63903 0.99116 0.57238 0.0
C714 C 0.538 0.64469 0.60885 0.0
C715 C 0.51746 0.66546 0.63565 0.0
C716 C 0.53525 0.61557 0.63512 0.0
C717 C 0.51203 0.60575 0.69058 0.0
H718 H 0.55606 0.65081 0.56494 0.0
H719 H 0.55154 0.60059 0.61142 0.0
S720 S 0.45204 0.65102 0.77824 0.0
N721 N 0.47297 0.67385 0.72107 0.0
N722 N 0.46782 0.61928 0.7702 0.0
C723 C 0.49149 0.62625 0.71884 0.0
C724 C 0.49415 0.65595 0.69128 0.0
C725 C 0.87093 0.51677 0.68145 0.0
C726 C 0.86272 0.52459 0.59002 0.0
C727 C 0.90009 0.51743 0.71041 0.0
C728 C 0.92242 0.526 0.64935 0.0
H729 H 0.85467 0.51002 0.73132 0.0
H730 H 0.90511 0.51117 0.78132 0.0
S731 S 0.91299 0.54647 0.40029 0.0
N732 N 0.87991 0.53954 0.43722 0.0
N733 N 0.93412 0.54142 0.49132 0.0
C734 C 0.9145 0.53373 0.55756 0.0
C735 C 0.88491 0.5329 0.52809 0.0
loop_
_geom_bond_atom_site_label_1
_geom_bond_atom_site_label_2
_geom_bond_distance
_geom_bond_site_symmetry_2
_ccdc_geom_bond_type
C0 C1 1.386 . S
C0 C2 1.397 . S
C0 H24 0.931 . S
C1 C0 1.386 . S
C1 C5 1.397 . S
C2 C0 1.397 . S
C2 C3 1.384 . S
C2 H25 0.930 . S
C3 C2 1.384 . S
C3 C4 1.377 . S
C3 C6 1.481 . S
C4 C3 1.377 . S
C4 C5 1.389 . S
C4 H26 0.929 . S
C5 C1 1.397 . S
C5 C4 1.389 . S
C5 H27 0.931 . S
C6 C3 1.481 . S
C6 C7 1.387 . S
C6 C11 1.390 . S
C7 C6 1.387 . S
C7 C8 1.401 . S
C7 H28 0.930 . S
C8 C7 1.401 . S
C8 C9 1.376 . S
C8 C17 1.511 . S
C9 C8 1.376 . S
C9 C10 1.392 . S
C9 H30 0.931 . S
C10 C9 1.392 . S
C10 C11 1.361 . S
C10 C12 1.500 . S
C11 C6 1.390 . S
C11 C10 1.361 . S
C11 H29 0.931 . S
C12 C10 1.500 . S
C12 C13 1.371 . S
C12 C14 1.365 . S
C13 C12 1.371 . S
C13 C23 1.386 . S
C13 H31 0.931 . S
C14 C12 1.365 . S
C14 C15 1.409 . S
C14 H32 0.929 . S
C15 C14 1.409 . S
C15 C16 1.380 . S
C15 H33 0.930 . S
C16 C15 1.380 . S
C16 C23 1.357 . S
C17 C8 1.511 . S
C17 C18 1.341 . S
C17 C19 1.371 . S
C18 C17 1.341 . S
C18 C22 1.394 . S
C18 H34 0.930 . S
C19 C17 1.371 . S
C19 C20 1.392 . S
C19 H35 0.931 . S
C20 C19 1.392 . S
C20 C21 1.331 . S
C20 H38 0.932 . S
C21 C20 1.331 . S
C21 C22 1.336 . S
C22 C18 1.394 . S
C22 C21 1.336 . S
C22 H37 0.929 . S
C23 C13 1.386 . S
C23 C16 1.357 . S
C23 H36 0.928 . S
H24 C0 0.931 . S
H25 C2 0.930 . S
H26 C4 0.929 . S
H27 C5 0.931 . S
H28 C7 0.930 . S
H29 C11 0.931 . S
H30 C9 0.931 . S
H31 C13 0.931 . S
H32 C14 0.929 . S
H33 C15 0.930 . S
H34 C18 0.930 . S
H35 C19 0.931 . S
H36 C23 0.928 . S
H37 C22 0.929 . S
H38 C20 0.932 . S
C39 C40 1.394 . S
C39 C41 1.397 . S
C39 H63 0.931 . S
C40 C39 1.394 . S
C40 C44 1.389 1_655 S
C41 C39 1.397 . S
C41 C42 1.389 . S
C41 H64 0.930 . S
C42 C41 1.389 . S
C42 C43 1.373 1_655 S
C42 C45 1.480 . S
C43 C42 1.373 1_455 S
C43 C44 1.389 . S
C43 H65 0.929 . S
C44 C40 1.389 1_455 S
C44 C43 1.389 . S
C44 H66 0.931 . S
C45 C42 1.480 . S
C45 C46 1.388 . S
C45 C50 1.390 . S
C46 C45 1.388 . S
C46 C47 1.402 . S
C46 H67 0.930 . S
C47 C46 1.402 . S
C47 C48 1.377 . S
C47 C56 1.513 . S
C48 C47 1.377 . S
C48 C49 1.392 . S
C48 H69 0.931 . S
C49 C48 1.392 . S
C49 C50 1.361 . S
C49 C51 1.499 1_655 S
C50 C45 1.390 . S
C50 C49 1.361 . S
C50 H68 0.931 . S
C51 C49 1.499 1_455 S
C51 C52 1.361 1_455 S
C51 C53 1.376 . S
C52 C51 1.361 1_655 S
C52 C62 1.386 . S
C52 H70 0.931 . S
C53 C51 1.376 . S
C53 C54 1.409 . S
C53 H71 0.929 . S
C54 C53 1.409 . S
C54 C55 1.380 . S
C54 H72 0.930 . S
C55 C54 1.380 . S
C55 C62 1.357 1_455 S
C56 C47 1.513 . S
C56 C57 1.341 . S
C56 C58 1.371 1_655 S
C57 C56 1.341 . S
C57 C61 1.394 . S
C57 H73 0.930 . S
C58 C56 1.371 1_455 S
C58 C59 1.392 . S
C58 H74 0.931 . S
C59 C58 1.392 . S
C59 C60 1.322 1_455 S
C59 H77 0.932 . S
C60 C59 1.322 1_655 S
C60 C61 1.345 . S
C61 C57 1.394 . S
C61 C60 1.345 . S
C61 H76 0.929 . S
C62 C52 1.386 . S
C62 C55 1.357 1_655 S
C62 H75 0.928 . S
H63 C39 0.931 . S
H64 C41 0.930 . S
H65 C43 0.929 . S
H66 C44 0.931 . S
H67 C46 0.930 . S
H68 C50 0.931 . S
H69 C48 0.931 . S
H70 C52 0.931 . S
H71 C53 0.929 . S
H72 C54 0.930 . S
H73 C57 0.930 . S
H74 C58 0.931 . S
H75 C62 0.928 . S
H76 C61 0.929 . S
H77 C59 0.932 . S
C78 C79 1.394 . S
C78 C80 1.397 . S
C78 H102 0.931 . S
C79 C78 1.394 . S
C79 C83 1.389 1_565 S
C80 C78 1.397 . S
C80 C81 1.389 . S
C80 H103 0.930 . S
C81 C80 1.389 . S
C81 C82 1.373 1_565 S
C81 C84 1.480 . S
C82 C81 1.373 1_545 S
C82 C83 1.389 . S
C82 H104 0.929 . S
C83 C79 1.389 1_545 S
C83 C82 1.389 . S
C83 H105 0.931 . S
C84 C81 1.480 . S
C84 C85 1.388 . S
C84 C89 1.390 . S
C85 C84 1.388 . S
C85 C86 1.402 . S
C85 H106 0.930 . S
C86 C85 1.402 . S
C86 C87 1.377 . S
C86 C95 1.513 . S
C87 C86 1.377 . S
C87 C88 1.392 . S
C87 H108 0.931 . S
C88 C87 1.392 . S
C88 C89 1.361 . S
C88 C90 1.499 1_565 S
C89 C84 1.390 . S
C89 C88 1.361 . S
C89 H107 0.931 . S
C90 C88 1.499 1_545 S
C90 C91 1.361 1_545 S
C90 C92 1.376 . S
C91 C90 1.361 1_565 S
C91 C101 1.386 . S
C91 H109 0.931 . S
C92 C90 1.376 . S
C92 C93 1.409 . S
C92 H110 0.929 . S
C93 C92 1.409 . S
C93 C94 1.380 . S
C93 H111 0.930 . S
C94 C93 1.380 . S
C94 C101 1.357 1_545 S
C95 C86 1.513 . S
C95 C96 1.341 . S
C95 C97 1.371 1_565 S
C96 C95 1.341 . S
C96 C100 1.394 . S
C96 H112 0.930 . S
C97 C95 1.371 1_545 S
C97 C98 1.392 . S
C97 H113 0.931 . S
C98 C97 1.392 . S
C98 C99 1.322 1_545 S
C98 H116 0.932 . S
C99 C98 1.322 1_565 S
C99 C100 1.345 . S
C100 C96 1.394 . S
C100 C99 1.345 . S
C100 H115 0.929 . S
C101 C91 1.386 . S
C101 C94 1.357 1_565 S
C101 H114 0.928 . S
H102 C78 0.931 . S
H103 C80 0.930 . S
H104 C82 0.929 . S
H105 C83 0.931 . S
H106 C85 0.930 . S
H107 C89 0.931 . S
H108 C87 0.931 . S
H109 C91 0.931 . S
H110 C92 0.929 . S
H111 C93 0.930 . S
H112 C96 0.930 . S
H113 C97 0.931 . S
H114 C101 0.928 . S
H115 C100 0.929 . S
H116 C98 0.932 . S
C117 C118 1.386 . S
C117 C119 1.397 . S
C117 H141 0.931 . S
C118 C117 1.386 . S
C118 C122 1.397 . S
C119 C117 1.397 . S
C119 C120 1.384 . S
C119 H142 0.930 . S
C120 C119 1.384 . S
C120 C121 1.377 . S
C120 C123 1.481 . S
C121 C120 1.377 . S
C121 C122 1.389 . S
C121 H143 0.929 . S
C122 C118 1.397 . S
C122 C121 1.389 . S
C122 H144 0.931 . S
C123 C120 1.481 . S
C123 C124 1.387 . S
C123 C128 1.390 . S
C124 C123 1.387 . S
C124 C125 1.401 . S
C124 H145 0.930 . S
C125 C124 1.401 . S
C125 C126 1.376 . S
C125 C134 1.511 . S
C126 C125 1.376 . S
C126 C127 1.392 . S
C126 H147 0.931 . S
C127 C126 1.392 . S
C127 C128 1.361 . S
C127 C129 1.500 . S
C128 C123 1.390 . S
C128 C127 1.361 . S
C128 H146 0.931 . S
C129 C127 1.500 . S
C129 C130 1.371 . S
C129 C131 1.365 . S
C130 C129 1.371 . S
C130 C140 1.386 . S
C130 H148 0.931 . S
C131 C129 1.365 . S
C131 C132 1.409 . S
C131 H149 0.929 . S
C132 C131 1.409 . S
C132 C133 1.380 . S
C132 H150 0.930 . S
C133 C132 1.380 . S
C133 C140 1.357 . S
C134 C125 1.511 . S
C134 C135 1.341 . S
C134 C136 1.371 . S
C135 C134 1.341 . S
C135 C139 1.394 . S
C135 H151 0.930 . S
C136 C134 1.371 . S
C136 C137 1.392 . S
C136 H152 0.931 . S
C137 C136 1.392 . S
C137 C138 1.331 . S
C137 H155 0.932 . S
C138 C137 1.331 . S
C138 C139 1.336 . S
C139 C135 1.394 . S
C139 C138 1.336 . S
C139 H154 0.929 . S
C140 C130 1.386 . S
C140 C133 1.357 . S
C140 H153 0.928 . S
H141 C117 0.931 . S
H142 C119 0.930 . S
H143 C121 0.929 . S
H144 C122 0.931 . S
H145 C124 0.930 . S
H146 C128 0.931 . S
H147 C126 0.931 . S
H148 C130 0.931 . S
H149 C131 0.929 . S
H150 C132 0.930 . S
H151 C135 0.930 . S
H152 C136 0.931 . S
H153 C140 0.928 . S
H154 C139 0.929 . S
H155 C137 0.932 . S
C156 C157 1.386 . S
C156 C158 1.397 . S
C156 H180 0.931 . S
C157 C156 1.386 . S
C157 C161 1.397 . S
C158 C156 1.397 . S
C158 C159 1.384 . S
C158 H181 0.930 . S
C159 C158 1.384 . S
C159 C160 1.377 . S
C159 C162 1.481 . S
C160 C159 1.377 . S
C160 C161 1.389 . S
C160 H182 0.929 . S
C161 C157 1.397 . S
C161 C160 1.389 . S
C161 H183 0.931 . S
C162 C159 1.481 . S
C162 C163 1.387 . S
C162 C167 1.390 . S
C163 C162 1.387 . S
C163 C164 1.401 . S
C163 H184 0.930 . S
C164 C163 1.401 . S
C164 C165 1.376 1_554 S
C164 C173 1.511 . S
C165 C164 1.376 1_556 S
C165 C166 1.392 . S
C165 H186 0.931 . S
C166 C165 1.392 . S
C166 C167 1.361 1_556 S
C166 C168 1.500 . S
C167 C162 1.390 . S
C167 C166 1.361 1_554 S
C167 H185 0.931 . S
C168 C166 1.500 . S
C168 C169 1.371 . S
C168 C170 1.365 . S
C169 C168 1.371 . S
C169 C179 1.386 . S
C169 H187 0.931 . S
C170 C168 1.365 . S
C170 C171 1.409 . S
C170 H188 0.929 . S
C171 C170 1.409 . S
C171 C172 1.380 . S
C171 H189 0.930 . S
C172 C171 1.380 . S
C172 C179 1.357 . S
C173 C164 1.511 . S
C173 C174 1.341 . S
C173 C175 1.371 . S
C174 C173 1.341 . S
C174 C178 1.394 . S
C174 H190 0.930 . S
C175 C173 1.371 . S
C175 C176 1.392 . S
C175 H191 0.931 1_554 S
C176 C175 1.392 . S
C176 C177 1.331 . S
C176 H194 0.932 1_554 S
C177 C176 1.331 . S
C177 C178 1.336 . S
C178 C174 1.394 . S
C178 C177 1.336 . S
C178 H193 0.929 . S
C179 C169 1.386 . S
C179 C172 1.357 . S
C179 H192 0.928 . S
H180 C156 0.931 . S
H181 C158 0.930 . S
H182 C160 0.929 . S
H183 C161 0.931 . S
H184 C163 0.930 . S
H185 C167 0.931 . S
H186 C165 0.931 . S
H187 C169 0.931 . S
H188 C170 0.929 . S
H189 C171 0.930 . S
H190 C174 0.930 . S
H191 C175 0.931 1_556 S
H192 C179 0.928 . S
H193 C178 0.929 . S
H194 C176 0.932 1_556 S
C195 C196 1.389 . S
C195 C197 1.397 . S
C195 H219 0.931 . S
C196 C195 1.389 . S
C196 C200 1.394 1_655 S
C197 C195 1.397 . S
C197 C198 1.383 . S
C197 H220 0.930 . S
C198 C197 1.383 . S
C198 C199 1.378 1_655 S
C198 C201 1.480 . S
C199 C198 1.378 1_455 S
C199 C200 1.389 . S
C199 H221 0.929 . S
C200 C196 1.394 1_455 S
C200 C199 1.389 . S
C200 H222 0.931 . S
C201 C198 1.480 . S
C201 C202 1.388 . S
C201 C206 1.390 . S
C202 C201 1.388 . S
C202 C203 1.402 . S
C202 H223 0.930 . S
C203 C202 1.402 . S
C203 C204 1.376 1_554 S
C203 C212 1.512 . S
C204 C203 1.376 1_556 S
C204 C205 1.392 1_655 S
C204 H225 0.933 . S
C205 C204 1.392 1_455 S
C205 C206 1.361 1_456 S
C205 C207 1.499 . S
C206 C201 1.390 . S
C206 C205 1.361 1_654 S
C206 H224 0.931 . S
C207 C205 1.499 . S
C207 C208 1.357 1_455 S
C207 C209 1.380 . S
C208 C207 1.357 1_655 S
C208 C218 1.386 . S
C208 H226 0.931 . S
C209 C207 1.380 . S
C209 C210 1.409 . S
C209 H227 0.929 . S
C210 C209 1.409 . S
C210 C211 1.384 . S
C210 H228 0.930 . S
C211 C210 1.384 . S
C211 C218 1.353 1_455 S
C212 C203 1.512 . S
C212 C213 1.341 . S
C212 C214 1.371 1_655 S
C213 C212 1.341 . S
C213 C217 1.394 . S
C213 H229 0.930 . S
C214 C212 1.371 1_455 S
C214 C215 1.392 . S
C214 H230 0.931 1_554 S
C215 C214 1.392 . S
C215 C216 1.325 1_455 S
C215 H233 0.932 1_554 S
C216 C215 1.325 1_655 S
C216 C217 1.342 . S
C217 C213 1.394 . S
C217 C216 1.342 . S
C217 H232 0.929 . S
C218 C208 1.386 . S
C218 C211 1.353 1_655 S
C218 H231 0.928 . S
H219 C195 0.931 . S
H220 C197 0.930 . S
H221 C199 0.929 . S
H222 C200 0.931 . S
H223 C202 0.930 . S
H224 C206 0.931 . S
H225 C204 0.933 . S
H226 C208 0.931 . S
H227 C209 0.929 . S
H228 C210 0.930 . S
H229 C213 0.930 . S
H230 C214 0.931 1_556 S
H231 C218 0.928 . S
H232 C217 0.929 . S
H233 C215 0.932 1_556 S
C234 C235 1.389 . S
C234 C236 1.397 . S
C234 H258 0.931 . S
C235 C234 1.389 . S
C235 C239 1.395 1_565 S
C236 C234 1.397 . S
C236 C237 1.383 . S
C236 H259 0.930 . S
C237 C236 1.383 . S
C237 C238 1.378 1_565 S
C237 C240 1.480 . S
C238 C237 1.378 1_545 S
C238 C239 1.389 . S
C238 H260 0.929 . S
C239 C235 1.395 1_545 S
C239 C238 1.389 . S
C239 H261 0.931 . S
C240 C237 1.480 . S
C240 C241 1.388 . S
C240 C245 1.390 . S
C241 C240 1.388 . S
C241 C242 1.402 . S
C241 H262 0.930 . S
C242 C241 1.402 . S
C242 C243 1.376 1_554 S
C242 C251 1.512 . S
C243 C242 1.376 1_556 S
C243 C244 1.392 1_565 S
C243 H264 0.934 . S
C244 C243 1.392 1_545 S
C244 C245 1.361 1_546 S
C244 C246 1.499 . S
C245 C240 1.390 . S
C245 C244 1.361 1_564 S
C245 H263 0.931 . S
C246 C244 1.499 . S
C246 C247 1.357 1_545 S
C246 C248 1.380 . S
C247 C246 1.357 1_565 S
C247 C257 1.386 . S
C247 H265 0.931 . S
C248 C246 1.380 . S
C248 C249 1.409 . S
C248 H266 0.929 . S
C249 C248 1.409 . S
C249 C250 1.384 . S
C249 H267 0.930 . S
C250 C249 1.384 . S
C250 C257 1.353 1_545 S
C251 C242 1.512 . S
C251 C252 1.341 . S
C251 C253 1.371 1_565 S
C252 C251 1.341 . S
C252 C256 1.394 . S
C252 H268 0.930 . S
C253 C251 1.371 1_545 S
C253 C254 1.392 . S
C253 H269 0.931 1_554 S
C254 C253 1.392 . S
C254 C255 1.325 1_545 S
C254 H272 0.932 1_554 S
C255 C254 1.325 1_565 S
C255 C256 1.342 . S
C256 C252 1.394 . S
C256 C255 1.342 . S
C256 H271 0.929 . S
C257 C247 1.386 . S
C257 C250 1.353 1_565 S
C257 H270 0.928 . S
H258 C234 0.931 . S
H259 C236 0.930 . S
H260 C238 0.929 . S
H261 C239 0.931 . S
H262 C241 0.930 . S
H263 C245 0.931 . S
H264 C243 0.934 . S
H265 C247 0.931 . S
H266 C248 0.929 . S
H267 C249 0.930 . S
H268 C252 0.930 . S
H269 C253 0.931 1_556 S
H270 C257 0.928 . S
H271 C256 0.929 . S
H272 C254 0.932 1_556 S
C273 C274 1.386 . S
C273 C275 1.397 . S
C273 H297 0.931 . S
C274 C273 1.386 . S
C274 C278 1.397 . S
C275 C273 1.397 . S
C275 C276 1.384 . S
C275 H298 0.930 . S
C276 C275 1.384 . S
C276 C277 1.377 . S
C276 C279 1.481 . S
C277 C276 1.377 . S
C277 C278 1.389 . S
C277 H299 0.929 . S
C278 C274 1.397 . S
C278 C277 1.389 . S
C278 H300 0.931 . S
C279 C276 1.481 . S
C279 C280 1.387 . S
C279 C284 1.390 1_556 S
C280 C279 1.387 . S
C280 C281 1.401 1_556 S
C280 H301 0.930 . S
C281 C280 1.401 1_554 S
C281 C282 1.376 . S
C281 C290 1.511 . S
C282 C281 1.376 . S
C282 C283 1.392 . S
C282 H303 0.931 . S
C283 C282 1.392 . S
C283 C284 1.361 . S
C283 C285 1.500 . S
C284 C279 1.390 1_554 S
C284 C283 1.361 . S
C284 H302 0.931 . S
C285 C283 1.500 . S
C285 C286 1.371 . S
C285 C287 1.365 . S
C286 C285 1.371 . S
C286 C296 1.386 . S
C286 H304 0.931 . S
C287 C285 1.365 . S
C287 C288 1.409 . S
C287 H305 0.929 . S
C288 C287 1.409 . S
C288 C289 1.380 . S
C288 H306 0.930 . S
C289 C288 1.380 . S
C289 C296 1.357 . S
C290 C281 1.511 . S
C290 C291 1.341 . S
C290 C292 1.371 . S
C291 C290 1.341 . S
C291 C295 1.394 . S
C291 H307 0.930 1_554 S
C292 C290 1.371 . S
C292 C293 1.392 . S
C292 H308 0.931 . S
C293 C292 1.392 . S
C293 C294 1.331 . S
C293 H311 0.932 . S
C294 C293 1.331 . S
C294 C295 1.336 . S
C295 C291 1.394 . S
C295 C294 1.336 . S
C295 H310 0.929 1_554 S
C296 C286 1.386 . S
C296 C289 1.357 . S
C296 H309 0.928 . S
H297 C273 0.931 . S
H298 C275 0.930 . S
H299 C277 0.929 . S
H300 C278 0.931 . S
H301 C280 0.930 . S
H302 C284 0.931 . S
H303 C282 0.931 . S
H304 C286 0.931 . S
H305 C287 0.929 . S
H306 C288 0.930 . S
H307 C291 0.930 1_556 S
H308 C292 0.931 . S
H309 C296 0.928 . S
H310 C295 0.929 1_556 S
H311 C293 0.932 . S
Gd312 C315 2.818 . S
Gd312 O332 2.377 . S
Gd312 O334 2.448 . S
Gd312 O335 2.506 . S
Gd312 O336 2.435 . S
Gd312 O337 2.717 1_565 S
Gd312 O339 2.395 1_565 S
Gd312 O343 2.327 1_455 S
Gd313 C324 2.818 . S
Gd313 O333 2.395 1_545 S
Gd313 O337 2.327 1_655 S
Gd313 O338 2.377 . S
Gd313 O340 2.448 . S
Gd313 O341 2.506 . S
Gd313 O342 2.435 . S
Gd313 O343 2.717 1_545 S
C314 O332 1.240 1_655 S
C314 O333 1.240 . S
C315 Gd312 2.818 . S
C315 C316 1.510 . S
C315 O334 1.249 . S
C315 O335 1.252 . S
C316 C315 1.510 . S
C316 C317 1.404 . S
C316 C318 1.352 . S
C317 C316 1.404 . S
C317 C321 1.389 1_556 S
C317 H344 0.930 . S
C318 C316 1.352 . S
C318 C320 1.374 1_556 S
C318 H345 0.931 1_455 S
C319 C320 1.359 . S
C319 C321 1.364 . S
C320 C318 1.374 1_554 S
C320 C319 1.359 . S
C320 H346 0.956 . S
C321 C317 1.389 1_554 S
C321 C319 1.364 . S
C321 H347 0.931 . S
C322 O336 1.256 . S
C322 O337 1.257 1_565 S
C323 O338 1.240 1_455 S
C323 O339 1.240 . S
C324 Gd313 2.818 . S
C324 C325 1.510 . S
C324 O340 1.249 . S
C324 O341 1.252 . S
C325 C324 1.510 . S
C325 C326 1.404 . S
C325 C327 1.352 . S
C326 C325 1.404 . S
C326 C330 1.389 . S
C326 H348 0.930 . S
C327 C325 1.352 . S
C327 C329 1.374 . S
C327 H349 0.931 1_655 S
C328 C329 1.359 . S
C328 C330 1.364 . S
C329 C327 1.374 . S
C329 C328 1.359 . S
C329 H350 0.948 . S
C330 C326 1.389 . S
C330 C328 1.364 . S
C330 H351 0.931 . S
C331 O342 1.256 . S
C331 O343 1.257 1_545 S
O332 Gd312 2.377 . S
O332 C314 1.240 1_455 S
O333 Gd313 2.395 1_565 S
O333 C314 1.240 . S
O334 Gd312 2.448 . S
O334 C315 1.249 . S
O335 Gd312 2.506 . S
O335 C315 1.252 . S
O336 Gd312 2.435 . S
O336 C322 1.256 . S
O337 Gd312 2.717 1_545 S
O337 Gd313 2.327 1_455 S
O337 C322 1.257 1_545 S
O338 Gd313 2.377 . S
O338 C323 1.240 1_655 S
O339 Gd312 2.395 1_545 S
O339 C323 1.240 . S
O340 Gd313 2.448 . S
O340 C324 1.249 . S
O341 Gd313 2.506 . S
O341 C324 1.252 . S
O342 Gd313 2.435 . S
O342 C331 1.256 . S
O343 Gd312 2.327 1_655 S
O343 Gd313 2.717 1_565 S
O343 C331 1.257 1_565 S
H344 C317 0.930 . S
H345 C318 0.931 1_655 S
H346 C320 0.956 . S
H347 C321 0.931 . S
H348 C326 0.930 . S
H349 C327 0.931 1_455 S
H350 C329 0.948 . S
H351 C330 0.931 . S
Gd352 C355 2.818 . S
Gd352 O372 2.377 . S
Gd352 O374 2.448 . S
Gd352 O375 2.506 . S
Gd352 O376 2.435 . S
Gd352 O377 2.717 . S
Gd352 O379 2.395 . S
Gd352 O383 2.327 1_545 S
Gd353 C364 2.818 . S
Gd353 O373 2.395 . S
Gd353 O377 2.327 1_565 S
Gd353 O378 2.377 . S
Gd353 O380 2.448 . S
Gd353 O381 2.506 . S
Gd353 O382 2.435 . S
Gd353 O383 2.717 . S
C354 O372 1.240 1_565 S
C354 O373 1.240 . S
C355 Gd352 2.818 . S
C355 C356 1.510 . S
C355 O374 1.249 . S
C355 O375 1.252 . S
C356 C355 1.510 . S
C356 C357 1.404 . S
C356 C358 1.352 . S
C357 C356 1.404 . S
C357 C361 1.389 1_556 S
C357 H384 0.930 . S
C358 C356 1.352 . S
C358 C360 1.374 1_556 S
C358 H385 0.931 1_545 S
C359 C360 1.359 . S
C359 C361 1.364 . S
C360 C358 1.374 1_554 S
C360 C359 1.359 . S
C360 H386 0.940 . S
C361 C357 1.389 1_554 S
C361 C359 1.364 . S
C361 H387 0.931 . S
C362 O376 1.256 . S
C362 O377 1.257 . S
C363 O378 1.240 1_545 S
C363 O379 1.240 . S
C364 Gd353 2.818 . S
C364 C365 1.510 . S
C364 O380 1.249 . S
C364 O381 1.252 . S
C365 C364 1.510 . S
C365 C366 1.404 . S
C365 C367 1.352 . S
C366 C365 1.404 . S
C366 C370 1.389 . S
C366 H388 0.930 . S
C367 C365 1.352 . S
C367 C369 1.374 . S
C367 H389 0.931 1_565 S
C368 C369 1.359 . S
C368 C370 1.364 . S
C369 C367 1.374 . S
C369 C368 1.359 . S
C369 H390 0.932 . S
C370 C366 1.389 . S
C370 C368 1.364 . S
C370 H391 0.931 . S
C371 O382 1.256 . S
C371 O383 1.257 . S
O372 Gd352 2.377 . S
O372 C354 1.240 1_545 S
O373 Gd353 2.395 . S
O373 C354 1.240 . S
O374 Gd352 2.448 . S
O374 C355 1.249 . S
O375 Gd352 2.506 . S
O375 C355 1.252 . S
O376 Gd352 2.435 . S
O376 C362 1.256 . S
O377 Gd352 2.717 . S
O377 Gd353 2.327 1_545 S
O377 C362 1.257 . S
O378 Gd353 2.377 . S
O378 C363 1.240 1_565 S
O379 Gd352 2.395 . S
O379 C363 1.240 . S
O380 Gd353 2.448 . S
O380 C364 1.249 . S
O381 Gd353 2.506 . S
O381 C364 1.252 . S
O382 Gd353 2.435 . S
O382 C371 1.256 . S
O383 Gd352 2.327 1_565 S
O383 Gd353 2.717 . S
O383 C371 1.257 . S
H384 C357 0.930 . S
H385 C358 0.931 1_565 S
H386 C360 0.940 . S
H387 C361 0.931 . S
H388 C366 0.930 . S
H389 C367 0.931 1_545 S
H390 C369 0.932 . S
H391 C370 0.931 . S
Gd392 C395 2.818 . S
Gd392 O412 2.377 . S
Gd392 O414 2.448 . S
Gd392 O415 2.506 . S
Gd392 O416 2.435 . S
Gd392 O417 2.717 . S
Gd392 O419 2.395 . S
Gd392 O423 2.327 . S
Gd393 C404 2.818 . S
Gd393 O413 2.395 . S
Gd393 O417 2.327 . S
Gd393 O418 2.377 . S
Gd393 O420 2.448 . S
Gd393 O421 2.506 . S
Gd393 O422 2.435 . S
Gd393 O423 2.717 . S
C394 O412 1.240 . S
C394 O413 1.240 . S
C395 Gd392 2.818 . S
C395 C396 1.510 . S
C395 O414 1.249 . S
C395 O415 1.252 . S
C396 C395 1.510 . S
C396 C397 1.404 . S
C396 C398 1.357 . S
C397 C396 1.404 . S
C397 C401 1.389 1_556 S
C397 H424 0.930 . S
C398 C396 1.357 . S
C398 C400 1.368 1_556 S
C398 H425 0.932 . S
C399 C400 1.359 . S
C399 C401 1.364 . S
C400 C398 1.368 1_554 S
C400 C399 1.359 . S
C400 H426 0.931 . S
C401 C397 1.389 1_554 S
C401 C399 1.364 . S
C401 H427 0.931 . S
C402 O416 1.256 . S
C402 O417 1.257 . S
C403 O418 1.240 . S
C403 O419 1.240 . S
C404 Gd393 2.818 . S
C404 C405 1.510 . S
C404 O420 1.249 . S
C404 O421 1.252 . S
C405 C404 1.510 . S
C405 C406 1.404 . S
C405 C407 1.352 . S
C406 C405 1.404 . S
C406 C410 1.389 . S
C406 H428 0.930 . S
C407 C405 1.352 . S
C407 C409 1.374 . S
C407 H429 0.931 . S
C408 C409 1.359 . S
C408 C410 1.364 . S
C409 C407 1.374 . S
C409 C408 1.359 . S
C409 H430 0.931 . S
C410 C406 1.389 . S
C410 C408 1.364 . S
C410 H431 0.931 . S
C411 O422 1.256 . S
C411 O423 1.257 . S
O412 Gd392 2.377 . S
O412 C394 1.240 . S
O413 Gd393 2.395 . S
O413 C394 1.240 . S
O414 Gd392 2.448 . S
O414 C395 1.249 . S
O415 Gd392 2.506 . S
O415 C395 1.252 . S
O416 Gd392 2.435 . S
O416 C402 1.256 . S
O417 Gd392 2.717 . S
O417 Gd393 2.327 . S
O417 C402 1.257 . S
O418 Gd393 2.377 . S
O418 C403 1.240 . S
O419 Gd392 2.395 . S
O419 C403 1.240 . S
O420 Gd393 2.448 . S
O420 C404 1.249 . S
O421 Gd393 2.506 . S
O421 C404 1.252 . S
O422 Gd393 2.435 . S
O422 C411 1.256 . S
O423 Gd392 2.327 . S
O423 Gd393 2.717 . S
O423 C411 1.257 . S
H424 C397 0.930 . S
H425 C398 0.932 . S
H426 C400 0.931 . S
H427 C401 0.931 . S
H428 C406 0.930 . S
H429 C407 0.931 . S
H430 C409 0.931 . S
H431 C410 0.931 . S
Gd432 C435 2.818 . S
Gd432 O452 2.377 . S
Gd432 O454 2.448 . S
Gd432 O455 2.506 . S
Gd432 O456 2.435 . S
Gd432 O457 2.717 1_655 S
Gd432 O459 2.395 1_655 S
Gd432 O463 2.327 . S
Gd433 C444 2.818 . S
Gd433 O453 2.395 1_455 S
Gd433 O457 2.327 . S
Gd433 O458 2.377 . S
Gd433 O460 2.448 . S
Gd433 O461 2.506 . S
Gd433 O462 2.435 . S
Gd433 O463 2.717 1_455 S
C434 O452 1.240 . S
C434 O453 1.240 . S
C435 Gd432 2.818 . S
C435 C436 1.510 . S
C435 O454 1.249 . S
C435 O455 1.252 . S
C436 C435 1.510 . S
C436 C437 1.404 . S
C436 C438 1.352 . S
C437 C436 1.404 . S
C437 C441 1.389 1_556 S
C437 H464 0.930 . S
C438 C436 1.352 . S
C438 C440 1.374 1_556 S
C438 H465 0.931 . S
C439 C440 1.359 . S
C439 C441 1.364 . S
C440 C438 1.374 1_554 S
C440 C439 1.359 . S
C440 H466 0.931 . S
C441 C437 1.389 1_554 S
C441 C439 1.364 . S
C441 H467 0.931 . S
C442 O456 1.273 . S
C442 O457 1.249 1_655 S
C443 O458 1.240 . S
C443 O459 1.240 . S
C444 Gd433 2.818 . S
C444 C445 1.510 . S
C444 O460 1.249 . S
C444 O461 1.252 . S
C445 C444 1.510 . S
C445 C446 1.404 . S
C445 C447 1.352 . S
C446 C445 1.404 . S
C446 C450 1.389 . S
C446 H468 0.930 . S
C447 C445 1.352 . S
C447 C449 1.374 . S
C447 H469 0.931 . S
C448 C449 1.359 . S
C448 C450 1.364 . S
C449 C447 1.374 . S
C449 C448 1.359 . S
C449 H470 0.931 . S
C450 C446 1.389 . S
C450 C448 1.364 . S
C450 H471 0.931 . S
C451 O462 1.256 . S
C451 O463 1.257 1_455 S
O452 Gd432 2.377 . S
O452 C434 1.240 . S
O453 Gd433 2.395 1_655 S
O453 C434 1.240 . S
O454 Gd432 2.448 . S
O454 C435 1.249 . S
O455 Gd432 2.506 . S
O455 C435 1.252 . S
O456 Gd432 2.435 . S
O456 C442 1.273 . S
O457 Gd432 2.717 1_455 S
O457 Gd433 2.327 . S
O457 C442 1.249 1_455 S
O458 Gd433 2.377 . S
O458 C443 1.240 . S
O459 Gd432 2.395 1_455 S
O459 C443 1.240 . S
O460 Gd433 2.448 . S
O460 C444 1.249 . S
O461 Gd433 2.506 . S
O461 C444 1.252 . S
O462 Gd433 2.435 . S
O462 C451 1.256 . S
O463 Gd432 2.327 . S
O463 Gd433 2.717 1_655 S
O463 C451 1.257 1_655 S
H464 C437 0.930 . S
H465 C438 0.931 . S
H466 C440 0.931 . S
H467 C441 0.931 . S
H468 C446 0.930 . S
H469 C447 0.931 . S
H470 C449 0.931 . S
H471 C450 0.931 . S
C472 C473 1.379 . S
C472 C474 1.419 . S
C472 H476 0.930 . S
C473 C472 1.379 . S
C473 C482 1.419 1_545 S
C474 C472 1.419 . S
C474 C475 1.363 . S
C474 H477 0.929 . S
C475 C474 1.363 . S
C475 C481 1.428 1_545 S
H476 C472 0.930 . S
H477 C474 0.929 . S
S478 N479 1.613 . S
S478 N480 1.610 . S
N479 S478 1.613 . S
N479 C482 1.350 . S
N480 S478 1.610 . S
N480 C481 1.351 . S
C481 C475 1.428 1_565 S
C481 N480 1.351 . S
C481 C482 1.434 . S
C482 C473 1.419 1_565 S
C482 N479 1.350 . S
C482 C481 1.434 . S
C483 C484 1.369 . S
C483 C485 1.419 . S
C483 H487 0.930 . S
C484 C483 1.369 . S
C484 C493 1.429 . S
C485 C483 1.419 . S
C485 C486 1.363 . S
C485 H488 0.929 . S
C486 C485 1.363 . S
C486 C492 1.428 . S
H487 C483 0.930 . S
H488 C485 0.929 . S
S489 N490 1.613 1_565 S
S489 N491 1.610 1_565 S
N490 S489 1.613 1_545 S
N490 C493 1.350 . S
N491 S489 1.610 1_545 S
N491 C492 1.351 . S
C492 C486 1.428 . S
C492 N491 1.351 . S
C492 C493 1.434 . S
C493 C484 1.429 . S
C493 N490 1.350 . S
C493 C492 1.434 . S
C494 C495 1.369 . S
C494 C496 1.419 . S
C494 H498 0.930 . S
C495 C494 1.369 . S
C495 C504 1.429 . S
C496 C494 1.419 . S
C496 C497 1.363 . S
C496 H499 0.929 . S
C497 C496 1.363 . S
C497 C503 1.428 . S
H498 C494 0.930 . S
H499 C496 0.929 . S
S500 N501 1.613 . S
S500 N502 1.610 . S
N501 S500 1.613 . S
N501 C504 1.350 . S
N502 S500 1.610 . S
N502 C503 1.351 . S
C503 C497 1.428 . S
C503 N502 1.351 . S
C503 C504 1.434 . S
C504 C495 1.429 . S
C504 N501 1.350 . S
C504 C503 1.434 . S
C505 C506 1.369 1_655 S
C505 C507 1.419 . S
C505 H509 0.930 . S
C506 C505 1.369 1_455 S
C506 C515 1.429 . S
C507 C505 1.419 . S
C507 C508 1.363 1_655 S
C507 H510 0.929 . S
C508 C507 1.363 1_455 S
C508 C514 1.428 . S
H509 C505 0.930 . S
H510 C507 0.929 . S
S511 N512 1.613 . S
S511 N513 1.610 . S
N512 S511 1.613 . S
N512 C515 1.350 . S
N513 S511 1.610 . S
N513 C514 1.351 . S
C514 C508 1.428 . S
C514 N513 1.351 . S
C514 C515 1.434 . S
C515 C506 1.429 . S
C515 N512 1.350 . S
C515 C514 1.434 . S
C516 C517 1.370 . S
C516 C518 1.419 . S
C516 H520 0.930 . S
C517 C516 1.370 . S
C517 C526 1.428 1_565 S
C518 C516 1.419 . S
C518 C519 1.363 1_554 S
C518 H521 0.929 . S
C519 C518 1.363 1_556 S
C519 C525 1.429 1_556 S
H520 C516 0.930 . S
H521 C518 0.929 . S
S522 N523 1.613 1_455 S
S522 N524 1.610 1_455 S
N523 S522 1.613 1_655 S
N523 C526 1.351 . S
N524 S522 1.610 1_655 S
N524 C525 1.351 1_545 S
C525 C519 1.429 1_554 S
C525 N524 1.351 1_565 S
C525 C526 1.434 1_565 S
C526 C517 1.428 1_545 S
C526 N523 1.351 . S
C526 C525 1.434 1_545 S
C527 C528 1.369 . S
C527 C529 1.419 . S
C527 H531 0.930 . S
C528 C527 1.369 . S
C528 C537 1.429 . S
C529 C527 1.419 . S
C529 C530 1.363 1_554 S
C529 H532 0.929 . S
C530 C529 1.363 1_556 S
C530 C536 1.429 1_556 S
H531 C527 0.930 . S
H532 C529 0.929 . S
S533 N534 1.613 1_545 S
S533 N535 1.610 1_545 S
N534 S533 1.613 1_565 S
N534 C537 1.350 . S
N535 S533 1.610 1_565 S
N535 C536 1.351 . S
C536 C530 1.429 1_554 S
C536 N535 1.351 . S
C536 C537 1.434 . S
C537 C528 1.429 . S
C537 N534 1.350 . S
C537 C536 1.434 . S
C538 C539 1.369 . S
C538 C540 1.419 . S
C538 H542 0.930 . S
C539 C538 1.369 . S
C539 C548 1.429 . S
C540 C538 1.419 . S
C540 C541 1.363 1_554 S
C540 H543 0.929 . S
C541 C540 1.363 1_556 S
C541 C547 1.428 1_556 S
H542 C538 0.930 . S
H543 C540 0.929 . S
S544 N545 1.613 . S
S544 N546 1.610 . S
N545 S544 1.613 . S
N545 C548 1.350 . S
N546 S544 1.610 . S
N546 C547 1.351 . S
C547 C541 1.428 1_554 S
C547 N546 1.351 . S
C547 C548 1.434 . S
C548 C539 1.429 . S
C548 N545 1.350 . S
C548 C547 1.434 . S
C549 C550 1.380 . S
C549 C551 1.419 . S
C549 H553 0.930 . S
C550 C549 1.380 . S
C550 C559 1.420 1_655 S
C551 C549 1.419 . S
C551 C552 1.363 1_554 S
C551 H554 0.929 . S
C552 C551 1.363 1_556 S
C552 C558 1.428 1_656 S
H553 C549 0.930 . S
H554 C551 0.929 . S
S555 N556 1.613 . S
S555 N557 1.610 1_554 S
N556 S555 1.613 . S
N556 C559 1.350 . S
N557 S555 1.610 1_556 S
N557 C558 1.351 1_556 S
C558 C552 1.428 1_454 S
C558 N557 1.351 1_554 S
C558 C559 1.434 . S
C559 C550 1.420 1_455 S
C559 N556 1.350 . S
C559 C558 1.434 . S
C560 C561 1.400 . S
C560 C562 1.419 . S
C560 H564 0.930 . S
C561 C560 1.400 . S
C561 C570 1.427 1_655 S
C562 C560 1.419 . S
C562 C563 1.363 . S
C562 H565 0.929 . S
C563 C562 1.363 . S
C563 C569 1.428 . S
H564 C560 0.930 . S
H565 C562 0.929 . S
S566 N567 1.613 . S
S566 N568 1.610 1_455 S
N567 S566 1.613 . S
N567 C570 1.366 . S
N568 S566 1.610 1_655 S
N568 C569 1.351 . S
C569 C563 1.428 . S
C569 N568 1.351 . S
C569 C570 1.418 1_655 S
C570 C561 1.427 1_455 S
C570 N567 1.366 . S
C570 C569 1.418 1_455 S
C571 C572 1.370 . S
C571 C573 1.442 . S
C571 H575 0.905 1_565 S
C572 C571 1.370 . S
C572 C581 1.429 . S
C573 C571 1.442 . S
C573 C574 1.363 . S
C573 H576 0.929 . S
C574 C573 1.363 . S
C574 C580 1.428 . S
H575 C571 0.905 1_545 S
H576 C573 0.929 . S
S577 N578 1.613 . S
S577 N579 1.610 . S
N578 S577 1.613 . S
N578 C581 1.350 . S
N579 S577 1.610 . S
N579 C580 1.351 . S
C580 C574 1.428 . S
C580 N579 1.351 . S
C580 C581 1.434 . S
C581 C572 1.429 . S
C581 N578 1.350 . S
C581 C580 1.434 . S
C582 C583 1.369 . S
C582 C584 1.419 . S
C582 H586 0.930 . S
C583 C582 1.369 . S
C583 C592 1.429 . S
C584 C582 1.419 . S
C584 C585 1.363 . S
C584 H587 0.929 . S
C585 C584 1.363 . S
C585 C591 1.428 . S
H586 C582 0.930 . S
H587 C584 0.929 . S
S588 N589 1.613 . S
S588 N590 1.610 . S
N589 S588 1.613 . S
N589 C592 1.350 . S
N590 S588 1.610 . S
N590 C591 1.351 . S
C591 C585 1.428 . S
C591 N590 1.351 . S
C591 C592 1.434 . S
C592 C583 1.429 . S
C592 N589 1.350 . S
C592 C591 1.434 . S
C593 C594 1.369 . S
C593 C595 1.419 . S
C593 H597 0.930 . S
C594 C593 1.369 . S
C594 C603 1.429 . S
C595 C593 1.419 . S
C595 C596 1.363 . S
C595 H598 0.929 . S
C596 C595 1.363 . S
C596 C602 1.428 . S
H597 C593 0.930 . S
H598 C595 0.929 . S
S599 N600 1.613 . S
S599 N601 1.610 . S
N600 S599 1.613 . S
N600 C603 1.350 . S
N601 S599 1.610 . S
N601 C602 1.351 . S
C602 C596 1.428 . S
C602 N601 1.351 . S
C602 C603 1.434 . S
C603 C594 1.429 . S
C603 N600 1.350 . S
C603 C602 1.434 . S
C604 C605 1.369 1_655 S
C604 C606 1.419 1_655 S
C604 H608 0.930 . S
C605 C604 1.369 1_455 S
C605 C614 1.429 . S
C606 C604 1.419 1_455 S
C606 C607 1.363 . S
C606 H609 0.929 . S
C607 C606 1.363 . S
C607 C613 1.428 . S
H608 C604 0.930 . S
H609 C606 0.929 . S
S610 N611 1.613 . S
S610 N612 1.610 . S
N611 S610 1.613 . S
N611 C614 1.350 . S
N612 S610 1.610 . S
N612 C613 1.351 . S
C613 C607 1.428 . S
C613 N612 1.351 . S
C613 C614 1.434 . S
C614 C605 1.429 . S
C614 N611 1.350 . S
C614 C613 1.434 . S
C615 C616 1.369 1_565 S
C615 C617 1.419 1_565 S
C615 H619 0.930 . S
C616 C615 1.369 1_545 S
C616 C625 1.429 . S
C617 C615 1.419 1_545 S
C617 C618 1.363 . S
C617 H620 0.929 1_554 S
C618 C617 1.363 . S
C618 C624 1.428 . S
H619 C615 0.930 . S
H620 C617 0.929 1_556 S
S621 N622 1.613 . S
S621 N623 1.610 . S
N622 S621 1.613 . S
N622 C625 1.350 . S
N623 S621 1.610 . S
N623 C624 1.351 . S
C624 C618 1.428 . S
C624 N623 1.351 . S
C624 C625 1.434 . S
C625 C616 1.429 . S
C625 N622 1.350 . S
C625 C624 1.434 . S
C626 C627 1.369 . S
C626 C628 1.419 . S
C626 H630 0.930 . S
C627 C626 1.369 . S
C627 C636 1.429 . S
C628 C626 1.419 . S
C628 C629 1.363 . S
C628 H631 0.929 1_554 S
C629 C628 1.363 . S
C629 C635 1.428 . S
H630 C626 0.930 . S
H631 C628 0.929 1_556 S
S632 N633 1.613 . S
S632 N634 1.610 . S
N633 S632 1.613 . S
N633 C636 1.350 . S
N634 S632 1.610 . S
N634 C635 1.351 . S
C635 C629 1.428 . S
C635 N634 1.351 . S
C635 C636 1.434 . S
C636 C627 1.429 . S
C636 N633 1.350 . S
C636 C635 1.434 . S
C637 C638 1.369 . S
C637 C639 1.419 . S
C637 H641 0.930 . S
C638 C637 1.369 . S
C638 C647 1.429 . S
C639 C637 1.419 . S
C639 C640 1.363 . S
C639 H642 0.929 . S
C640 C639 1.363 . S
C640 C646 1.428 . S
H641 C637 0.930 . S
H642 C639 0.929 . S
S643 N644 1.613 1_556 S
S643 N645 1.610 . S
N644 S643 1.613 1_554 S
N644 C647 1.350 . S
N645 S643 1.610 . S
N645 C646 1.351 1_556 S
C646 C640 1.428 . S
C646 N645 1.351 1_554 S
C646 C647 1.434 . S
C647 C638 1.429 . S
C647 N644 1.350 . S
C647 C646 1.434 . S
C648 C649 1.369 . S
C648 C650 1.419 . S
C648 H652 0.930 . S
C649 C648 1.369 . S
C649 C658 1.429 1_455 S
C650 C648 1.419 . S
C650 C651 1.363 . S
C650 H653 0.929 . S
C651 C650 1.363 . S
C651 C657 1.428 1_455 S
H652 C648 0.930 . S
H653 C650 0.929 . S
S654 N655 1.613 . S
S654 N656 1.610 . S
N655 S654 1.613 . S
N655 C658 1.350 . S
N656 S654 1.610 . S
N656 C657 1.351 . S
C657 C651 1.428 1_655 S
C657 N656 1.351 . S
C657 C658 1.434 . S
C658 C649 1.429 1_655 S
C658 N655 1.350 . S
C658 C657 1.434 . S
C659 C660 1.369 . S
C659 C661 1.419 . S
C659 H663 0.930 . S
C660 C659 1.369 . S
C660 C669 1.429 1_545 S
C661 C659 1.419 . S
C661 C662 1.363 . S
C661 H664 0.929 . S
C662 C661 1.363 . S
C662 C668 1.428 . S
H663 C659 0.930 . S
H664 C661 0.929 . S
S665 N666 1.613 . S
S665 N667 1.610 . S
N666 S665 1.613 . S
N666 C669 1.350 . S
N667 S665 1.610 . S
N667 C668 1.351 1_565 S
C668 C662 1.428 . S
C668 N667 1.351 1_545 S
C668 C669 1.434 1_545 S
C669 C660 1.429 1_565 S
C669 N666 1.350 . S
C669 C668 1.434 1_565 S
C670 C671 1.369 . S
C670 C672 1.419 . S
C670 H674 0.930 . S
C671 C670 1.369 . S
C671 C680 1.429 . S
C672 C670 1.419 . S
C672 C673 1.363 . S
C672 H675 0.929 . S
C673 C672 1.363 . S
C673 C679 1.428 . S
H674 C670 0.930 . S
H675 C672 0.929 . S
S676 N677 1.613 . S
S676 N678 1.610 . S
N677 S676 1.613 . S
N677 C680 1.350 . S
N678 S676 1.610 . S
N678 C679 1.351 . S
C679 C673 1.428 . S
C679 N678 1.351 . S
C679 C680 1.434 . S
C680 C671 1.429 . S
C680 N677 1.350 . S
C680 C679 1.434 . S
C681 C682 1.369 . S
C681 C683 1.419 . S
C681 H685 0.930 . S
C682 C681 1.369 . S
C682 C691 1.429 . S
C683 C681 1.419 . S
C683 C684 1.363 . S
C683 H686 0.929 . S
C684 C683 1.363 . S
C684 C690 1.428 . S
H685 C681 0.930 . S
H686 C683 0.929 . S
S687 N688 1.613 . S
S687 N689 1.610 . S
N688 S687 1.613 . S
N688 C691 1.350 . S
N689 S687 1.610 . S
N689 C690 1.351 . S
C690 C684 1.428 . S
C690 N689 1.351 . S
C690 C691 1.434 . S
C691 C682 1.429 . S
C691 N688 1.350 . S
C691 C690 1.434 . S
C692 C693 1.369 . S
C692 C694 1.419 . S
C692 H696 0.930 . S
C693 C692 1.369 . S
C693 C702 1.429 . S
C694 C692 1.419 . S
C694 C695 1.363 . S
C694 H697 0.929 . S
C695 C694 1.363 . S
C695 C701 1.428 . S
H696 C692 0.930 . S
H697 C694 0.929 . S
S698 N699 1.613 . S
S698 N700 1.610 . S
N699 S698 1.613 . S
N699 C702 1.350 . S
N700 S698 1.610 . S
N700 C701 1.351 . S
C701 C695 1.428 . S
C701 N700 1.351 . S
C701 C702 1.434 . S
C702 C693 1.429 . S
C702 N699 1.350 . S
C702 C701 1.434 . S
C703 C704 1.369 . S
C703 C705 1.419 . S
C703 H707 0.930 1_565 S
C704 C703 1.369 . S
C704 C713 1.429 . S
C705 C703 1.419 . S
C705 C706 1.363 . S
C705 H708 0.929 . S
C706 C705 1.363 . S
C706 C712 1.428 . S
H707 C703 0.930 1_545 S
H708 C705 0.929 . S
S709 N710 1.613 . S
S709 N711 1.610 . S
N710 S709 1.613 . S
N710 C713 1.350 . S
N711 S709 1.610 . S
N711 C712 1.351 . S
C712 C706 1.428 . S
C712 N711 1.351 . S
C712 C713 1.434 . S
C713 C704 1.429 . S
C713 N710 1.350 . S
C713 C712 1.434 . S
C714 C715 1.369 . S
C714 C716 1.419 . S
C714 H718 0.930 . S
C715 C714 1.369 . S
C715 C724 1.429 . S
C716 C714 1.419 . S
C716 C717 1.363 . S
C716 H719 0.929 . S
C717 C716 1.363 . S
C717 C723 1.428 . S
H718 C714 0.930 . S
H719 C716 0.929 . S
S720 N721 1.613 . S
S720 N722 1.610 . S
N721 S720 1.613 . S
N721 C724 1.350 . S
N722 S720 1.610 . S
N722 C723 1.351 . S
C723 C717 1.428 . S
C723 N722 1.351 . S
C723 C724 1.434 . S
C724 C715 1.429 . S
C724 N721 1.350 . S
C724 C723 1.434 . S
C725 C726 1.369 . S
C725 C727 1.419 . S
C725 H729 0.930 . S
C726 C725 1.369 . S
C726 C735 1.429 . S
C727 C725 1.419 . S
C727 C728 1.363 . S
C727 H730 0.929 . S
C728 C727 1.363 . S
C728 C734 1.428 . S
H729 C725 0.930 . S
H730 C727 0.929 . S
S731 N732 1.613 . S
S731 N733 1.610 . S
N732 S731 1.613 . S
N732 C735 1.350 . S
N733 S731 1.610 . S
N733 C734 1.351 . S
C734 C728 1.428 . S
C734 N733 1.351 . S
C734 C735 1.434 . S
C735 C726 1.429 . S
C735 N732 1.350 . S
C735 C734 1.434 . S
C473 C255 2.528 1_545 S
C475 C322 2.839 1_545 S
C486 C362 2.858 . S
C484 C294 2.511 . S
C497 C402 2.847 . S
C495 C177 2.539 . S
C508 C442 2.847 1_455 S
C506 C216 2.536 1_455 S
C519 C331 2.840 1_565 S
C517 C99 2.536 . S
C528 C138 2.517 . S
C530 C371 2.858 . S
C539 C21 2.534 . S
C541 C411 2.847 . S
C550 C60 2.531 . S
C552 C451 2.849 1_655 S
C563 C328 0.785 . S
C561 C196 0.787 . S
C574 C368 0.790 . S
C572 C235 0.799 . S
C585 C408 0.787 . S
C583 C289 0.772 . S
C594 C157 0.789 . S
C596 C448 0.769 . S
C605 C40 0.782 1_455 S
C607 C319 0.800 . S
C618 C359 0.797 . S
C616 C79 0.783 1_545 S
C629 C399 0.785 . S
C627 C133 0.770 . S
C638 C1 0.784 . S
C640 C439 0.792 . S
C649 C211 3.199 . S
C651 C323 3.720 . S
C660 C250 3.178 . S
C662 C363 3.713 . S
C673 C403 3.717 . S
C671 C274 3.189 . S
C684 C443 3.720 . S
C682 C172 3.183 . S
C693 C55 3.201 1_655 S
C695 C314 3.729 . S
C706 C354 3.713 . S
C704 C94 3.179 1_565 S
C717 C394 3.715 . S
C715 C118 3.199 . S
C726 C16 3.186 . S
C728 C434 3.723 . S
