# Generated by pormake.
# Topology anh, (6,3)-cn, num edge types: 1
# Building blocks:
#     Node 0, Type 0, BuildingBlock: BETFEN_clean_sbu_0, # of connection points: 6
#     Node 1, Type 0, BuildingBlock: BETFEN_clean_sbu_0, # of connection points: 6
#     Node 2, Type 0, BuildingBlock: BETFEN_clean_sbu_0, # of connection points: 6
#     Node 3, Type 1, BuildingBlock: MIDCAF_clean_linker_0, # of connection points: 3
#     Node 4, Type 1, BuildingBlock: MIDCAF_clean_linker_0, # of connection points: 3
#     Node 5, Type 1, BuildingBlock: MIDCAF_clean_linker_0, # of connection points: 3
#     Node 6, Type 1, BuildingBlock: MIDCAF_clean_linker_0, # of connection points: 3
#     Node 7, Type 1, BuildingBlock: MIDCAF_clean_linker_0, # of connection points: 3
#     Node 8, Type 1, BuildingBlock: MIDCAF_clean_linker_0, # of connection points: 3
#     Edge 9, Type (0, 1), BuildingBlock: MIFKUJ_clean_linker_0, # of connection points: 2
#     Edge 10, Type (0, 1), BuildingBlock: MIFKUJ_clean_linker_0, # of connection points: 2
#     Edge 11, Type (0, 1), BuildingBlock: MIFKUJ_clean_linker_0, # of connection points: 2
#     Edge 12, Type (0, 1), BuildingBlock: MIFKUJ_clean_linker_0, # of connection points: 2
#     Edge 13, Type (0, 1), BuildingBlock: MIFKUJ_clean_linker_0, # of connection points: 2
#     Edge 14, Type (0, 1), BuildingBlock: MIFKUJ_clean_linker_0, # of connection points: 2
#     Edge 15, Type (0, 1), BuildingBlock: MIFKUJ_clean_linker_0, # of connection points: 2
#     Edge 16, Type (0, 1), BuildingBlock: MIFKUJ_clean_linker_0, # of connection points: 2
#     Edge 17, Type (0, 1), BuildingBlock: MIFKUJ_clean_linker_0, # of connection points: 2
#     Edge 18, Type (0, 1), BuildingBlock: MIFKUJ_clean_linker_0, # of connection points: 2
#     Edge 19, Type (0, 1), BuildingBlock: MIFKUJ_clean_linker_0, # of connection points: 2
#     Edge 20, Type (0, 1), BuildingBlock: MIFKUJ_clean_linker_0, # of connection points: 2
#     Edge 21, Type (0, 1), BuildingBlock: MIFKUJ_clean_linker_0, # of connection points: 2
#     Edge 22, Type (0, 1), BuildingBlock: MIFKUJ_clean_linker_0, # of connection points: 2
#     Edge 23, Type (0, 1), BuildingBlock: MIFKUJ_clean_linker_0, # of connection points: 2
#     Edge 24, Type (0, 1), BuildingBlock: MIFKUJ_clean_linker_0, # of connection points: 2
#     Edge 25, Type (0, 1), BuildingBlock: MIFKUJ_clean_linker_0, # of connection points: 2
#     Edge 26, Type (0, 1), BuildingBlock: MIFKUJ_clean_linker_0, # of connection points: 2
# Relax obj value: 0.165
# Max RMSD: 0.198
# Mean RMSD: 0.150
data_MOF--net-anh--node1-BETFEN_clean_sbu_0--node2-MIDCAF_clean_linker_0--edge1-MIFKUJ_clean_linker_0
_symmetry_space_group_name_H-M    P1
_symmetry_Int_Tables_number       1
_symmetry_cell_setting            triclinic
loop_
_symmetry_equiv_pos_as_xyz
'x, y, z'
_cell_length_a     44.851044
_cell_length_b     48.077821
_cell_length_c     82.59816
_cell_angle_alpha  90.102657
_cell_angle_beta   92.342634
_cell_angle_gamma 110.7305
loop_
_atom_site_label
_atom_site_type_symbol
_atom_site_fract_x
_atom_site_fract_y
_atom_site_fract_z
_atom_type_partial_charge
Pr0 Pr 0.01564 0.5144 0.15209 0.0
Pr1 Pr 0.04075 0.58012 0.14617 0.0
C2 C 0.98539 0.45941 0.16357 0.0
C3 C 0.9533 0.4366 0.16557 0.0
C4 C 0.94103 0.41266 0.15447 0.0
C5 C 0.91198 0.38978 0.15696 0.0
C6 C 0.89459 0.39008 0.17071 0.0
C7 C 0.90669 0.41428 0.18171 0.0
C8 C 0.93567 0.43724 0.17917 0.0
C9 C 0.02655 0.52777 0.11961 0.0
C10 C 0.96337 0.54897 0.14433 0.0
C11 C 0.07262 0.63667 0.13745 0.0
C12 C 0.10306 0.6604 0.14222 0.0
C13 C 0.11799 0.66043 0.15748 0.0
C14 C 0.14663 0.68331 0.162 0.0
C15 C 0.16107 0.70652 0.1513 0.0
C16 C 0.14614 0.70608 0.13591 0.0
C17 C 0.1174 0.68325 0.13144 0.0
C18 C 0.03113 0.56532 0.17876 0.0
C19 C 0.09312 0.54444 0.15024 0.0
O20 O 0.99386 0.48361 0.17258 0.0
O21 O 0.99576 0.46428 0.14889 0.0
O22 O 0.01404 0.54113 0.12887 0.0
O23 O 0.03182 0.5058 0.12674 0.0
O24 O 0.98721 0.57111 0.13853 0.0
O25 O 0.96874 0.52666 0.15171 0.0
O26 O 0.07463 0.61356 0.12986 0.0
O27 O 0.05073 0.62952 0.14823 0.0
O28 O 0.04409 0.55337 0.16901 0.0
O29 O 0.02345 0.5862 0.1719 0.0
O30 O 0.06992 0.52102 0.15545 0.0
O31 O 0.08745 0.56823 0.14517 0.0
H32 H 0.95411 0.41133 0.14394 0.0
H33 H 0.90323 0.37176 0.14811 0.0
H34 H 0.89424 0.4151 0.19256 0.0
H35 H 0.94455 0.45522 0.18803 0.0
H36 H 0.10736 0.64289 0.16596 0.0
H37 H 0.15713 0.68305 0.17402 0.0
H38 H 0.15677 0.72325 0.12725 0.0
H39 H 0.10634 0.68345 0.11955 0.0
Pr40 Pr 0.56176 0.04866 0.51849 0.0
Pr41 Pr 0.49153 0.0253 0.52068 0.0
C42 C 0.62233 0.07758 0.50967 0.0
C43 C 0.64611 0.10763 0.50733 0.0
C44 C 0.67858 0.11144 0.50764 0.0
C45 C 0.70161 0.13922 0.50459 0.0
C46 C 0.69271 0.16395 0.50112 0.0
C47 C 0.66006 0.16019 0.50115 0.0
C48 C 0.63698 0.13228 0.5042 0.0
C49 C 0.54209 0.03774 0.55007 0.0
C50 C 0.52415 0.10033 0.52194 0.0
C51 C 0.42993 0.99394 0.52665 0.0
C52 C 0.40608 0.96443 0.52195 0.0
C53 C 0.40572 0.95177 0.50656 0.0
C54 C 0.38239 0.9243 0.50206 0.0
C55 C 0.35904 0.90869 0.51289 0.0
C56 C 0.35992 0.92119 0.52843 0.0
C57 C 0.38313 0.94878 0.53287 0.0
C58 C 0.51127 0.0352 0.48901 0.0
C59 C 0.52982 0.97362 0.51982 0.0
O60 O 0.59769 0.06853 0.4994 0.0
O61 O 0.6151 0.06938 0.52452 0.0
O62 O 0.53021 0.05038 0.5396 0.0
O63 O 0.56557 0.03115 0.54457 0.0
O64 O 0.4984 0.0771 0.52554 0.0
O65 O 0.55004 0.09483 0.51769 0.0
O66 O 0.45377 0.99422 0.5364 0.0
O67 O 0.43864 1.01351 0.51518 0.0
O68 O 0.52293 0.02269 0.49964 0.0
O69 O 0.4884 0.04254 0.49452 0.0
O70 O 0.55612 0.9966 0.51667 0.0
O71 O 0.50328 0.97928 0.52249 0.0
H72 H 0.68617 0.09275 0.51008 0.0
H73 H 0.72647 0.1413 0.50497 0.0
H74 H 0.65225 0.17862 0.49843 0.0
H75 H 0.61202 0.12986 0.50387 0.0
H76 H 0.42337 0.96321 0.49795 0.0
H77 H 0.38277 0.91518 0.4901 0.0
H78 H 0.3422 0.90994 0.53703 0.0
H79 H 0.38298 0.95806 0.54482 0.0
Pr80 Pr 0.51386 0.516 0.81352 0.0
Pr81 Pr 0.54166 0.58565 0.82454 0.0
C82 C 0.50025 0.46445 0.79748 0.0
C83 C 0.50934 0.43908 0.80208 0.0
C84 C 0.53325 0.44287 0.81428 0.0
C85 C 0.5395 0.41838 0.82037 0.0
C86 C 0.52177 0.38965 0.81442 0.0
C87 C 0.49858 0.38608 0.80177 0.0
C88 C 0.49234 0.41066 0.79568 0.0
C89 C 0.51962 0.52229 0.84741 0.0
C90 C 0.59307 0.55113 0.82191 0.0
C91 C 0.55133 0.63693 0.84032 0.0
C92 C 0.52946 0.64833 0.84877 0.0
C93 C 0.51652 0.66718 0.84052 0.0
C94 C 0.49294 0.67529 0.84736 0.0
C95 C 0.48201 0.66514 0.86272 0.0
C96 C 0.49588 0.64744 0.87142 0.0
C97 C 0.51933 0.63889 0.86443 0.0
C98 C 0.5422 0.57337 0.79153 0.0
C99 C 0.46182 0.5493 0.81977 0.0
O100 O 0.52393 0.48854 0.79373 0.0
O101 O 0.48011 0.4696 0.80706 0.0
O102 O 0.52667 0.54191 0.8369 0.0
O103 O 0.50958 0.49634 0.84027 0.0
O104 O 0.58777 0.57397 0.82852 0.0
O105 O 0.57007 0.52904 0.81423 0.0
O106 O 0.55751 0.61479 0.84708 0.0
O107 O 0.54685 0.634 0.82452 0.0
O108 O 0.52012 0.55996 0.80081 0.0
O109 O 0.56427 0.59553 0.79904 0.0
O110 O 0.46627 0.52629 0.81277 0.0
O111 O 0.48587 0.57242 0.82589 0.0
H112 H 0.54634 0.46471 0.81951 0.0
H113 H 0.55724 0.42183 0.8302 0.0
H114 H 0.48489 0.36422 0.79677 0.0
H115 H 0.4737 0.4074 0.78633 0.0
H116 H 0.52409 0.67517 0.82857 0.0
H117 H 0.48332 0.68978 0.84063 0.0
H118 H 0.48818 0.63982 0.88341 0.0
H119 H 0.52904 0.6245 0.87117 0.0
C120 C 0.44743 0.94387 0.2297 0.0
C121 C 0.44109 0.94534 0.21298 0.0
C122 C 0.45952 0.97072 0.20464 0.0
C123 C 0.48356 0.99412 0.21288 0.0
H124 H 0.57182 0.07033 0.20781 0.0
H125 H 0.61083 0.11325 0.19517 0.0
H126 H 0.62771 0.162 0.24061 0.0
H127 H 0.589 0.11962 0.25317 0.0
H128 H 0.5647 0.08702 0.28532 0.0
H129 H 0.5658 0.08612 0.31488 0.0
H130 H 0.51286 0.99163 0.31309 0.0
H131 H 0.51157 0.99237 0.28352 0.0
H132 H 0.47504 0.96516 0.25082 0.0
H133 H 0.43344 0.92491 0.23657 0.0
H134 H 0.45542 0.97246 0.19173 0.0
H135 H 0.49712 1.01342 0.20611 0.0
N136 N 0.53375 0.0419 0.23105 0.0
N137 N 0.55613 0.06422 0.25616 0.0
N138 N 0.51556 0.01743 0.25528 0.0
C139 C 0.55506 0.06516 0.2397 0.0
C140 C 0.53661 0.04043 0.26404 0.0
C141 C 0.51378 0.01793 0.23881 0.0
C142 C 0.5773 0.09142 0.23153 0.0
C143 C 0.58367 0.09031 0.21505 0.0
C144 C 0.60614 0.1148 0.20783 0.0
C145 C 0.62232 0.14104 0.21689 0.0
C146 C 0.61541 0.14229 0.23324 0.0
C147 C 0.59332 0.11782 0.24048 0.0
C148 C 0.53795 0.03977 0.28201 0.0
C149 C 0.55338 0.066 0.2912 0.0
C150 C 0.55391 0.06554 0.30813 0.0
C151 C 0.5394 0.03882 0.31627 0.0
C152 C 0.52446 1.01251 0.30713 0.0
C153 C 0.52355 1.01301 0.29019 0.0
C154 C 0.48954 0.99274 0.22967 0.0
C155 C 0.47126 0.96718 0.23791 0.0
C156 C 0.55611 0.44473 0.5326 0.0
C157 C 0.52759 0.41979 0.52929 0.0
C158 C 0.49966 0.42747 0.52746 0.0
C159 C 0.50017 0.45747 0.52926 0.0
H160 H 0.56803 0.60776 0.52036 0.0
H161 H 0.56864 0.65866 0.51601 0.0
H162 H 0.48272 0.63784 0.5424 0.0
H163 H 0.4821 0.58761 0.54627 0.0
H164 H 0.53804 0.58531 0.58527 0.0
H165 H 0.53954 0.58637 0.61469 0.0
H166 H 0.52334 0.49227 0.61507 0.0
H167 H 0.52286 0.49139 0.58556 0.0
H168 H 0.57896 0.49188 0.53801 0.0
H169 H 0.57851 0.44126 0.53453 0.0
H170 H 0.47679 0.41013 0.52486 0.0
H171 H 0.47765 0.46108 0.52863 0.0
N172 N 0.52709 0.53719 0.53164 0.0
N173 N 0.52796 0.5617 0.5566 0.0
N174 N 0.52943 0.51342 0.55653 0.0
C175 C 0.52698 0.56258 0.54016 0.0
C176 C 0.5293 0.53776 0.56486 0.0
C177 C 0.52829 0.51208 0.54007 0.0
C178 C 0.52418 0.59185 0.53314 0.0
C179 C 0.54847 0.61353 0.52468 0.0
C180 C 0.54912 0.64358 0.52249 0.0
C181 C 0.5257 0.65418 0.52874 0.0
C182 C 0.50127 0.63209 0.53692 0.0
C183 C 0.50073 0.60238 0.53911 0.0
C184 C 0.5303 0.53825 0.58293 0.0
C185 C 0.5348 0.56478 0.59158 0.0
C186 C 0.53546 0.56536 0.60853 0.0
C187 C 0.5314 0.53938 0.61738 0.0
C188 C 0.52699 0.51283 0.60874 0.0
C189 C 0.52654 0.51229 0.59175 0.0
C190 C 0.52866 0.48218 0.53276 0.0
C191 C 0.55652 0.4746 0.53445 0.0
C192 C 0.9251 0.55995 0.86533 0.0
C193 C 0.91418 0.55079 0.84933 0.0
C194 C 0.93382 0.54109 0.83952 0.0
C195 C 0.96345 0.54048 0.84567 0.0
H196 H 0.08532 0.57393 0.8427 0.0
H197 H 0.13631 0.57483 0.83219 0.0
H198 H 0.13751 0.50645 0.86572 0.0
H199 H 0.08736 0.50589 0.87621 0.0
H200 H 0.08493 0.56013 0.9143 0.0
H201 H 0.08724 0.56137 0.94401 0.0
H202 H 0.98439 0.52667 0.9438 0.0
H203 H 0.9819 0.52597 0.91419 0.0
H204 H 0.96126 0.56628 0.88391 0.0
H205 H 0.91068 0.56706 0.87341 0.0
H206 H 0.92632 0.53403 0.82709 0.0
H207 H 0.97774 0.53252 0.83793 0.0
N208 N 0.02828 0.54476 0.86084 0.0
N209 N 0.05588 0.54149 0.8853 0.0
N210 N 1.00562 0.54554 0.88596 0.0
C211 C 0.05459 0.54214 0.86883 0.0
C212 C 0.03156 0.54322 0.89394 0.0
C213 C 1.00351 0.54643 0.86953 0.0
C214 C 0.08222 0.53977 0.86025 0.0
C215 C 0.09621 0.5587 0.84753 0.0
C216 C 0.12557 0.55941 0.84165 0.0
C217 C 0.14113 0.54075 0.84813 0.0
C218 C 0.12622 0.52095 0.86032 0.0
C219 C 0.09742 0.52067 0.86637 0.0
C220 C 0.03323 0.54297 0.91189 0.0
C221 C 0.06283 0.55268 0.92059 0.0
C222 C 0.06418 0.55357 0.93756 0.0
C223 C 0.03599 0.54414 0.94613 0.0
C224 C 1.00645 0.53395 0.93746 0.0
C225 C 1.00507 0.53366 0.92052 0.0
C226 C 0.97387 0.54921 0.86183 0.0
C227 C 0.95429 0.55922 0.87143 0.0
C228 C 0.11833 0.62891 0.43723 0.0
C229 C 0.11663 0.63465 0.45378 0.0
C230 C 0.09272 0.61373 0.46256 0.0
C231 C 0.07061 0.5882 0.45481 0.0
H232 H 0.98946 0.50511 0.46108 0.0
H233 H 0.9506 0.46209 0.47385 0.0
H234 H 0.92716 0.41622 0.42751 0.0
H235 H 0.9655 0.45845 0.41485 0.0
H236 H 0.9761 0.5038 0.38298 0.0
H237 H 0.97539 0.50407 0.35334 0.0
H238 H 0.07436 0.56142 0.35505 0.0
H239 H 0.07508 0.56171 0.38469 0.0
H240 H 0.09866 0.60041 0.41672 0.0
H241 H 0.13681 0.644 0.43012 0.0
H242 H 0.0906 0.61743 0.47533 0.0
H243 H 0.05219 0.57287 0.46184 0.0
N244 N 0.02608 0.53441 0.43724 0.0
N245 N 1.00444 0.51097 0.41222 0.0
N246 N 0.04757 0.55599 0.41282 0.0
C247 C 1.00432 0.51111 0.42869 0.0
C248 C 0.02591 0.53323 0.40419 0.0
C249 C 0.04789 0.55701 0.42929 0.0
C250 C 0.98083 0.48544 0.4369 0.0
C251 C 0.97604 0.48582 0.45363 0.0
C252 C 0.95366 0.46122 0.46095 0.0
C253 C 0.93591 0.43557 0.45173 0.0
C254 C 0.94072 0.43534 0.43504 0.0
C255 C 0.9627 0.45983 0.42775 0.0
C256 C 0.02564 0.53278 0.38621 0.0
C257 C 0.99775 0.51641 0.37705 0.0
C258 C 0.99727 0.51664 0.3601 0.0
C259 C 0.02483 0.53272 0.35194 0.0
C260 C 0.05285 0.54868 0.36106 0.0
C261 C 0.05317 0.54896 0.37801 0.0
C262 C 0.07194 0.583 0.43812 0.0
C263 C 0.09638 0.60363 0.42953 0.0
C264 C 0.47012 0.10245 0.80309 0.0
C265 C 0.48098 0.10377 0.81936 0.0
C266 C 0.48167 0.07787 0.82685 0.0
C267 C 0.471 0.05083 0.81825 0.0
H268 H 0.42676 0.96251 0.8254 0.0
H269 H 0.41467 0.91734 0.84077 0.0
H270 H 0.39579 0.86554 0.79623 0.0
H271 H 0.40883 0.91109 0.78067 0.0
H272 H 0.44513 0.95062 0.74796 0.0
H273 H 0.45508 0.9539 0.71906 0.0
H274 H 0.45035 0.04216 0.71872 0.0
H275 H 0.44165 0.03928 0.74758 0.0
H276 H 0.45178 0.07525 0.78187 0.0
H277 H 0.46972 0.12231 0.79705 0.0
H278 H 0.49003 0.07851 0.83939 0.0
H279 H 0.4716 0.03108 0.82433 0.0
N280 N 0.43917 0.99497 0.80075 0.0
N281 N 0.43056 0.96839 0.7761 0.0
N282 N 0.44956 0.02061 0.77638 0.0
C283 C 0.42956 0.96857 0.79256 0.0
C284 C 0.44045 0.99445 0.76794 0.0
C285 C 0.44915 0.02101 0.79278 0.0
C286 C 0.41928 0.94055 0.80174 0.0
C287 C 0.4198 0.94155 0.81879 0.0
C288 C 0.41249 0.91554 0.82767 0.0
C289 C 0.40435 0.88783 0.81975 0.0
C290 C 0.40241 0.88663 0.80269 0.0
C291 C 0.40984 0.91273 0.79377 0.0
C292 C 0.44296 0.99481 0.75011 0.0
C293 C 0.44593 0.97059 0.74166 0.0
C294 C 0.45154 0.97246 0.72507 0.0
C295 C 0.45397 0.99847 0.71656 0.0
C296 C 0.44953 0.0221 0.72494 0.0
C297 C 0.44431 0.02037 0.7415 0.0
C298 C 0.46014 0.04947 0.80193 0.0
C299 C 0.46002 0.07559 0.79441 0.0
C300 C 0.63719 0.55668 0.10019 0.0
C301 C 0.64162 0.54951 0.11634 0.0
C302 C 0.61621 0.54475 0.12679 0.0
C303 C 0.58656 0.54579 0.1209 0.0
H304 H 0.48898 0.57133 0.12706 0.0
H305 H 0.43867 0.57001 0.13859 0.0
H306 H 0.38554 0.5106 0.09979 0.0
H307 H 0.43516 0.51207 0.0884 0.0
H308 H 0.46944 0.55001 0.05272 0.0
H309 H 0.46642 0.54963 0.02309 0.0
H310 H 0.56232 0.54884 0.02246 0.0
H311 H 0.56541 0.54898 0.05188 0.0
H312 H 0.60612 0.56333 0.08177 0.0
H313 H 0.65636 0.56112 0.09189 0.0
H314 H 0.61894 0.53929 0.13934 0.0
H315 H 0.56715 0.54107 0.12906 0.0
N316 N 0.52417 0.54779 0.1059 0.0
N317 N 0.49392 0.54605 0.08158 0.0
N318 N 0.54743 0.55114 0.08064 0.0
C319 C 0.49575 0.54546 0.09807 0.0
C320 C 0.51965 0.54902 0.07278 0.0
C321 C 0.5503 0.55056 0.09706 0.0
C322 C 0.46614 0.54181 0.10681 0.0
C323 C 0.46651 0.55758 0.12122 0.0
C324 C 0.43768 0.55704 0.12772 0.0
C325 C 0.40793 0.54022 0.12011 0.0
C326 C 0.40782 0.52356 0.1061 0.0
C327 C 0.4364 0.52451 0.09951 0.0
C328 C 0.51762 0.5494 0.05476 0.0
C329 C 0.48991 0.54978 0.04627 0.0
C330 C 0.48821 0.54975 0.02929 0.0
C331 C 0.51408 0.54907 0.02043 0.0
C332 C 0.54182 0.54896 0.02892 0.0
C333 C 0.54361 0.54919 0.04583 0.0
C334 C 0.58193 0.55192 0.10449 0.0
C335 C 0.60808 0.55799 0.09441 0.0
H336 H 0.14895 0.59208 0.14882 0.0
H337 H 0.20282 0.59185 0.14598 0.0
H338 H 0.16635 0.49591 0.14622 0.0
H339 H 0.11246 0.49613 0.14985 0.0
H340 H 0.22045 0.51347 0.16182 0.0
H341 H 0.18701 0.53968 0.11008 0.0
H342 H 0.16603 0.56837 0.09098 0.0
H343 H 0.24513 0.6479 0.10404 0.0
H344 H 0.26637 0.61974 0.12338 0.0
H345 H 0.35168 0.49328 0.1232 0.0
H346 H 0.29978 0.49471 0.13026 0.0
H347 H 0.3416 0.58976 0.13738 0.0
H348 H 0.39368 0.58849 0.13019 0.0
H349 H 0.28582 0.57343 0.11853 0.0
H350 H 0.31999 0.54439 0.16957 0.0
H351 H 0.34009 0.51368 0.18772 0.0
H352 H 0.25832 0.43656 0.17439 0.0
H353 H 0.23793 0.46674 0.15598 0.0
C354 C 0.15236 0.57089 0.14836 0.0
C355 C 0.12621 0.5441 0.14947 0.0
C356 C 0.18329 0.57077 0.14661 0.0
C357 C 0.18892 0.54384 0.14543 0.0
C358 C 0.16291 0.51705 0.147 0.0
C359 C 0.13199 0.51718 0.14907 0.0
C360 C 0.2217 0.54362 0.14238 0.0
C361 C 0.23448 0.52632 0.1522 0.0
C362 C 0.24065 0.56072 0.13002 0.0
C363 C 0.22811 0.57765 0.11828 0.0
C364 C 0.19983 0.56332 0.10894 0.0
C365 C 0.1879 0.57948 0.09807 0.0
C366 C 0.2042 0.60995 0.09633 0.0
C367 C 0.23251 0.62431 0.10542 0.0
C368 C 0.24453 0.60825 0.11633 0.0
C369 C 0.34994 0.51451 0.12637 0.0
C370 C 0.377 0.54078 0.12611 0.0
C371 C 0.32019 0.51527 0.1305 0.0
C372 C 0.31659 0.54233 0.13444 0.0
C373 C 0.34364 0.56857 0.13441 0.0
C374 C 0.37353 0.56779 0.13043 0.0
C375 C 0.28441 0.5433 0.13796 0.0
C376 C 0.27176 0.56069 0.12818 0.0
C377 C 0.26543 0.52595 0.15018 0.0
C378 C 0.27759 0.50779 0.16128 0.0
C379 C 0.30642 0.52084 0.17041 0.0
C380 C 0.31784 0.50353 0.18076 0.0
C381 C 0.30053 0.47317 0.18218 0.0
C382 C 0.27172 0.46007 0.17327 0.0
C383 C 0.2602 0.47728 0.16289 0.0
H384 H 0.30942 0.45981 0.1902 0.0
H385 H 0.19491 0.62243 0.08791 0.0
H386 H 0.74475 0.17415 0.48258 0.0
H387 H 0.78581 0.22157 0.47651 0.0
H388 H 0.73797 0.26789 0.50429 0.0
H389 H 0.69662 0.2203 0.51046 0.0
H390 H 0.75767 0.29651 0.47682 0.0
H391 H 0.80649 0.25845 0.51939 0.0
H392 H 0.82383 0.2214 0.53365 0.0
H393 H 0.88286 0.21951 0.49433 0.0
H394 H 0.86552 0.25625 0.47972 0.0
H395 H 0.89098 0.43368 0.47388 0.0
H396 H 0.85003 0.38945 0.48446 0.0
H397 H 0.88632 0.33313 0.45683 0.0
H398 H 0.92743 0.37703 0.44647 0.0
H399 H 0.87225 0.31178 0.48684 0.0
H400 H 0.82005 0.3473 0.44363 0.0
H401 H 0.80254 0.38438 0.4295 0.0
H402 H 0.75 0.39143 0.47065 0.0
H403 H 0.76757 0.35466 0.48512 0.0
C404 C 0.74305 0.19435 0.48758 0.0
C405 C 0.71743 0.19323 0.49718 0.0
C406 C 0.76661 0.22155 0.48406 0.0
C407 C 0.76543 0.24843 0.49016 0.0
C408 C 0.73955 0.24752 0.49947 0.0
C409 C 0.71585 0.22024 0.50296 0.0
C410 C 0.79111 0.27734 0.48665 0.0
C411 C 0.78269 0.30002 0.47929 0.0
C412 C 0.82389 0.28196 0.48963 0.0
C413 C 0.83449 0.25993 0.4984 0.0
C414 C 0.82299 0.24997 0.51373 0.0
C415 C 0.83285 0.22905 0.52188 0.0
C416 C 0.85438 0.21806 0.51489 0.0
C417 C 0.86616 0.22802 0.49973 0.0
C418 C 0.85635 0.24892 0.49151 0.0
C419 C 0.89047 0.41186 0.47023 0.0
C420 C 0.91236 0.40894 0.45922 0.0
C421 C 0.86687 0.38658 0.47618 0.0
C422 C 0.86475 0.35785 0.47129 0.0
C423 C 0.88729 0.35496 0.46075 0.0
C424 C 0.91069 0.38014 0.45474 0.0
C425 C 0.83882 0.33071 0.4768 0.0
C426 C 0.84721 0.30836 0.48453 0.0
C427 C 0.80605 0.32646 0.47422 0.0
C428 C 0.79543 0.3485 0.46553 0.0
C429 C 0.80498 0.35694 0.44972 0.0
C430 C 0.79501 0.37787 0.44164 0.0
C431 C 0.77525 0.39033 0.44919 0.0
C432 C 0.76536 0.38181 0.46483 0.0
C433 C 0.7753 0.36092 0.47297 0.0
H434 H 0.76755 0.40651 0.44291 0.0
H435 H 0.86199 0.20186 0.52122 0.0
H436 H 0.42463 0.66008 0.84872 0.0
H437 H 0.39645 0.69387 0.85383 0.0
H438 H 0.45572 0.72668 0.89719 0.0
H439 H 0.48468 0.69321 0.89181 0.0
H440 H 0.36818 0.7216 0.87415 0.0
H441 H 0.49149 0.79682 0.89259 0.0
H442 H 0.54715 0.7982 0.89424 0.0
H443 H 0.52949 0.74413 0.85095 0.0
H444 H 0.47383 0.74263 0.84904 0.0
H445 H 0.37509 0.87085 0.84865 0.0
H446 H 0.37726 0.83 0.86591 0.0
H447 H 0.42875 0.80344 0.82959 0.0
H448 H 0.4276 0.84433 0.81263 0.0
H449 H 0.45883 0.8116 0.85976 0.0
H450 H 0.35129 0.7643 0.83492 0.0
H451 H 0.29536 0.76032 0.82967 0.0
H452 H 0.28076 0.75622 0.8808 0.0
H453 H 0.33675 0.76053 0.88634 0.0
C454 C 0.43069 0.67359 0.85973 0.0
C455 C 0.45747 0.67499 0.86956 0.0
C456 C 0.41433 0.69269 0.86276 0.0
C457 C 0.42476 0.71352 0.87558 0.0
C458 C 0.44767 0.71106 0.88708 0.0
C459 C 0.46423 0.69195 0.884 0.0
C460 C 0.41933 0.74197 0.87357 0.0
C461 C 0.38797 0.74166 0.8715 0.0
C462 C 0.44512 0.76807 0.86991 0.0
C463 C 0.47862 0.76943 0.87077 0.0
C464 C 0.4996 0.78533 0.88342 0.0
C465 C 0.53108 0.7861 0.88441 0.0
C466 C 0.54181 0.77118 0.87274 0.0
C467 C 0.52113 0.75561 0.86 0.0
C468 C 0.48966 0.75482 0.85895 0.0
C469 C 0.3867 0.85615 0.84433 0.0
C470 C 0.40128 0.86089 0.82928 0.0
C471 C 0.38776 0.8328 0.85417 0.0
C472 C 0.40339 0.81394 0.84906 0.0
C473 C 0.41675 0.81793 0.83379 0.0
C474 C 0.41573 0.84113 0.82401 0.0
C475 C 0.40767 0.79077 0.85965 0.0
C476 C 0.43897 0.79226 0.8633 0.0
C477 C 0.3818 0.76576 0.86442 0.0
C478 C 0.34825 0.76315 0.86105 0.0
C479 C 0.33621 0.76282 0.84504 0.0
C480 C 0.3045 0.76044 0.84201 0.0
C481 C 0.28455 0.75813 0.85489 0.0
C482 C 0.29625 0.75809 0.87083 0.0
C483 C 0.32796 0.76049 0.87393 0.0
H484 H 0.26 0.75628 0.85252 0.0
H485 H 0.56616 0.77173 0.87355 0.0
H486 H 0.90765 0.50535 0.1528 0.0
H487 H 0.85304 0.50479 0.14917 0.0
H488 H 0.88846 0.59188 0.1282 0.0
H489 H 0.94303 0.59227 0.13143 0.0
H490 H 0.82087 0.53534 0.1604 0.0
H491 H 0.83531 0.60113 0.10069 0.0
H492 H 0.86467 0.6083 0.07549 0.0
H493 H 0.87646 0.52409 0.08174 0.0
H494 H 0.84706 0.51637 0.10691 0.0
H495 H 0.68104 0.57412 0.14322 0.0
H496 H 0.73486 0.5734 0.14949 0.0
H497 H 0.72569 0.51679 0.10759 0.0
H498 H 0.67265 0.51807 0.10118 0.0
H499 H 0.78006 0.55777 0.10721 0.0
H500 H 0.72386 0.49218 0.14824 0.0
H501 H 0.68951 0.47666 0.17158 0.0
H502 H 0.75556 0.54787 0.20057 0.0
H503 H 0.79013 0.56405 0.17732 0.0
C504 C 0.90389 0.5244 0.14737 0.0
C505 C 0.92995 0.54879 0.14232 0.0
C506 C 0.87252 0.5241 0.14536 0.0
C507 C 0.86624 0.54813 0.13823 0.0
C508 C 0.89231 0.57273 0.13344 0.0
C509 C 0.92368 0.57299 0.13537 0.0
C510 C 0.83254 0.54734 0.13571 0.0
C511 C 0.81204 0.54034 0.14876 0.0
C512 C 0.82042 0.55334 0.12051 0.0
C513 C 0.83927 0.55834 0.10576 0.0
C514 C 0.84428 0.58421 0.0967 0.0
C515 C 0.8609 0.58836 0.08243 0.0
C516 C 0.87243 0.56668 0.07702 0.0
C517 C 0.86761 0.54092 0.08597 0.0
C518 C 0.85106 0.53668 0.10027 0.0
C519 C 0.69039 0.56118 0.13552 0.0
C520 C 0.67259 0.54633 0.12164 0.0
C521 C 0.72122 0.56075 0.1391 0.0
C522 C 0.73471 0.54506 0.12901 0.0
C523 C 0.71629 0.52937 0.11551 0.0
C524 C 0.68581 0.53004 0.11187 0.0
C525 C 0.76832 0.54583 0.13189 0.0
C526 C 0.7889 0.55296 0.1189 0.0
C527 C 0.78013 0.53914 0.14701 0.0
C528 C 0.7594 0.52951 0.16099 0.0
C529 C 0.73093 0.50467 0.15956 0.0
C530 C 0.71144 0.49573 0.17277 0.0
C531 C 0.7203 0.51132 0.18753 0.0
C532 C 0.7487 0.53584 0.18912 0.0
C533 C 0.76826 0.5449 0.17593 0.0
H534 H 0.70518 0.50436 0.19776 0.0
H535 H 0.88493 0.56977 0.06586 0.0
H536 H 0.32498 0.89418 0.48384 0.0
H537 H 0.28302 0.84721 0.47569 0.0
H538 H 0.2929 0.81082 0.52242 0.0
H539 H 0.33534 0.85773 0.5306 0.0
H540 H 0.28809 0.77097 0.49761 0.0
H541 H 0.23067 0.83246 0.51416 0.0
H542 H 0.21653 0.87755 0.51465 0.0
H543 H 0.19002 0.8658 0.46386 0.0
H544 H 0.20444 0.82085 0.46302 0.0
H545 H 0.14687 0.64243 0.48415 0.0
H546 H 0.1863 0.68809 0.49604 0.0
H547 H 0.17859 0.73555 0.45275 0.0
H548 H 0.13847 0.69054 0.44111 0.0
H549 H 0.18133 0.76918 0.47809 0.0
H550 H 0.24181 0.71022 0.46085 0.0
H551 H 0.25695 0.66571 0.45974 0.0
H552 H 0.2785 0.67311 0.51105 0.0
H553 H 0.26307 0.71746 0.5125 0.0
C554 C 0.31845 0.87614 0.49236 0.0
C555 C 0.33358 0.87983 0.5079 0.0
C556 C 0.29422 0.84933 0.48772 0.0
C557 C 0.28448 0.82549 0.49848 0.0
C558 C 0.29986 0.82889 0.51391 0.0
C559 C 0.32398 0.85581 0.51861 0.0
C560 C 0.25827 0.79711 0.49357 0.0
C561 C 0.26457 0.77049 0.49359 0.0
C562 C 0.22772 0.79646 0.48803 0.0
C563 C 0.21891 0.82342 0.4885 0.0
C564 C 0.22206 0.83962 0.50307 0.0
C565 C 0.21395 0.86513 0.50341 0.0
C566 C 0.20245 0.87457 0.48929 0.0
C567 C 0.19896 0.85848 0.47479 0.0
C568 C 0.20707 0.83296 0.47438 0.0
C569 C 0.15328 0.66267 0.47724 0.0
C570 C 0.13964 0.66259 0.46157 0.0
C571 C 0.17611 0.68874 0.484 0.0
C572 C 0.18594 0.71531 0.47521 0.0
C573 C 0.17166 0.71542 0.45978 0.0
C574 C 0.14887 0.68948 0.45306 0.0
C575 C 0.21122 0.743 0.48189 0.0
C576 C 0.20475 0.76955 0.48221 0.0
C577 C 0.24166 0.74359 0.48766 0.0
C578 C 0.25093 0.71694 0.48681 0.0
C579 C 0.24952 0.70221 0.47192 0.0
C580 C 0.2582 0.67704 0.47122 0.0
C581 C 0.26858 0.66653 0.48532 0.0
C582 C 0.27039 0.68123 0.50014 0.0
C583 C 0.26169 0.70639 0.50091 0.0
H584 H 0.2753 0.64705 0.48476 0.0
H585 H 0.19619 0.89433 0.48958 0.0
H586 H 0.47546 0.33779 0.82221 0.0
H587 H 0.48206 0.29367 0.8336 0.0
H588 H 0.58434 0.33813 0.83605 0.0
H589 H 0.57788 0.38236 0.824 0.0
H590 H 0.5689 0.28562 0.82212 0.0
H591 H 0.54434 0.31819 0.87147 0.0
H592 H 0.51738 0.33985 0.89056 0.0
H593 H 0.42931 0.26706 0.88092 0.0
H594 H 0.45553 0.24516 0.86157 0.0
H595 H 0.53868 0.13227 0.83499 0.0
H596 H 0.55882 0.18386 0.84545 0.0
H597 H 0.46695 0.1907 0.83394 0.0
H598 H 0.44703 0.13959 0.82348 0.0
H599 H 0.49737 0.22265 0.86251 0.0
H600 H 0.5213 0.20658 0.80557 0.0
H601 H 0.54753 0.18548 0.78574 0.0
H602 H 0.63813 0.22883 0.81083 0.0
H603 H 0.61227 0.24987 0.83092 0.0
C604 C 0.49938 0.33821 0.82512 0.0
C605 C 0.52615 0.36338 0.82199 0.0
C606 C 0.50313 0.31316 0.83195 0.0
C607 C 0.53369 0.31279 0.836 0.0
C608 C 0.56053 0.3381 0.8332 0.0
C609 C 0.55679 0.36328 0.82632 0.0
C610 C 0.53704 0.28454 0.84118 0.0
C611 C 0.55423 0.27225 0.83141 0.0
C612 C 0.51809 0.26709 0.85335 0.0
C613 C 0.50201 0.27999 0.86505 0.0
C614 C 0.51918 0.30685 0.87335 0.0
C615 C 0.50402 0.31917 0.88423 0.0
C616 C 0.47166 0.30483 0.88696 0.0
C617 C 0.4544 0.27811 0.87882 0.0
C618 C 0.46944 0.26569 0.86792 0.0
C619 C 0.52267 0.14466 0.83516 0.0
C620 C 0.49152 0.13238 0.82829 0.0
C621 C 0.53413 0.17397 0.84114 0.0
C622 C 0.51437 0.19103 0.84039 0.0
C623 C 0.4825 0.17783 0.83472 0.0
C624 C 0.47122 0.14881 0.82861 0.0
C625 C 0.52745 0.22363 0.84274 0.0
C626 C 0.51338 0.23666 0.8539 0.0
C627 C 0.54939 0.24189 0.83193 0.0
C628 C 0.56486 0.22945 0.81981 0.0
C629 C 0.54678 0.21144 0.80689 0.0
C630 C 0.56157 0.19952 0.79561 0.0
C631 C 0.59446 0.20574 0.79705 0.0
C632 C 0.61264 0.22397 0.80975 0.0
C633 C 0.59794 0.23588 0.82109 0.0
H634 H 0.60588 0.1965 0.78831 0.0
H635 H 0.45996 0.31441 0.89538 0.0
H636 H 0.47981 0.91968 0.52551 0.0
H637 H 0.47923 0.86855 0.52653 0.0
H638 H 0.57913 0.89982 0.51687 0.0
H639 H 0.57949 0.95109 0.51547 0.0
H640 H 0.55785 0.84907 0.50257 0.0
H641 H 0.53958 0.87033 0.55713 0.0
H642 H 0.51275 0.88573 0.57907 0.0
H643 H 0.42485 0.81524 0.56557 0.0
H644 H 0.45108 0.79963 0.54342 0.0
H645 H 0.57687 0.70808 0.52217 0.0
H646 H 0.57833 0.75933 0.52062 0.0
H647 H 0.47863 0.72998 0.53037 0.0
H648 H 0.47691 0.67881 0.53193 0.0
H649 H 0.5005 0.78005 0.54477 0.0
H650 H 0.51875 0.75887 0.49016 0.0
H651 H 0.54554 0.74365 0.46813 0.0
H652 H 0.6335 0.81396 0.48175 0.0
H653 H 0.60731 0.82939 0.50398 0.0
C654 C 0.50191 0.91605 0.52362 0.0
C655 C 0.52974 0.94088 0.52046 0.0
C656 C 0.50166 0.8861 0.52437 0.0
C657 C 0.52931 0.87866 0.52218 0.0
C658 C 0.55705 0.90348 0.51876 0.0
C659 C 0.55729 0.93348 0.51799 0.0
C660 C 0.5293 0.84574 0.52329 0.0
C661 C 0.54554 0.83443 0.51205 0.0
C662 C 0.51303 0.82478 0.53522 0.0
C663 C 0.49721 0.83402 0.54852 0.0
C664 C 0.51448 0.85823 0.55879 0.0
C665 C 0.49939 0.86698 0.57126 0.0
C666 C 0.46709 0.85152 0.57369 0.0
C667 C 0.44985 0.82722 0.56366 0.0
C668 C 0.46482 0.8184 0.55115 0.0
C669 C 0.55486 0.71193 0.52384 0.0
C670 C 0.52674 0.68744 0.52724 0.0
C671 C 0.55572 0.74212 0.52288 0.0
C672 C 0.52848 0.75024 0.52509 0.0
C673 C 0.50049 0.72587 0.52857 0.0
C674 C 0.49959 0.69574 0.52953 0.0
C675 C 0.52898 0.78332 0.52403 0.0
C676 C 0.51282 0.79467 0.53529 0.0
C677 C 0.54533 0.8043 0.51213 0.0
C678 C 0.56116 0.79507 0.49883 0.0
C679 C 0.54387 0.77095 0.48852 0.0
C680 C 0.55893 0.7623 0.47599 0.0
C681 C 0.59122 0.77777 0.47357 0.0
C682 C 0.6085 0.80196 0.48366 0.0
C683 C 0.59356 0.81068 0.49622 0.0
H684 H 0.60284 0.77105 0.46387 0.0
H685 H 0.45545 0.85833 0.58335 0.0
H686 H 0.61501 0.50963 0.80879 0.0
H687 H 0.6691 0.5084 0.81084 0.0
H688 H 0.70018 0.58896 0.83995 0.0
H689 H 0.64641 0.59071 0.83768 0.0
H690 H 0.74318 0.59172 0.81829 0.0
H691 H 0.68488 0.51769 0.85633 0.0
H692 H 0.64073 0.47255 0.86391 0.0
H693 H 0.66933 0.42078 0.82953 0.0
H694 H 0.71344 0.46571 0.82161 0.0
H695 H 0.88737 0.59272 0.85551 0.0
H696 H 0.83344 0.59087 0.84865 0.0
H697 H 0.81389 0.50829 0.82237 0.0
H698 H 0.86782 0.50931 0.8299 0.0
H699 H 0.76461 0.50402 0.83976 0.0
H700 H 0.82449 0.57578 0.80278 0.0
H701 H 0.8676 0.62038 0.79376 0.0
H702 H 0.83548 0.67558 0.82423 0.0
H703 H 0.79242 0.63127 0.83361 0.0
C704 C 0.63331 0.52714 0.81563 0.0
C705 C 0.6261 0.55025 0.8231 0.0
C706 C 0.66432 0.52632 0.81686 0.0
C707 C 0.68889 0.54839 0.82573 0.0
C708 C 0.6818 0.57162 0.83304 0.0
C709 C 0.65088 0.57254 0.83176 0.0
C710 C 0.72198 0.5475 0.82745 0.0
C711 C 0.74784 0.57264 0.82316 0.0
C712 C 0.72825 0.52224 0.83321 0.0
C713 C 0.70227 0.49511 0.83828 0.0
C714 C 0.68166 0.4967 0.85034 0.0
C715 C 0.65665 0.47116 0.8547 0.0
C716 C 0.65216 0.44383 0.84717 0.0
C717 C 0.6728 0.44197 0.83533 0.0
C718 C 0.69783 0.46746 0.83092 0.0
C719 C 0.87171 0.57405 0.84829 0.0
C720 C 0.88216 0.55105 0.84338 0.0
C721 C 0.84079 0.57319 0.8442 0.0
C722 C 0.81936 0.5496 0.8348 0.0
C723 C 0.82982 0.52681 0.8296 0.0
C724 C 0.86087 0.52758 0.83377 0.0
C725 C 0.78595 0.54856 0.83094 0.0
C726 C 0.76 0.52305 0.83479 0.0
C727 C 0.77954 0.57341 0.82462 0.0
C728 C 0.80537 0.60015 0.81899 0.0
C729 C 0.82675 0.59741 0.80765 0.0
C730 C 0.85116 0.62264 0.80245 0.0
C731 C 0.85432 0.65079 0.80844 0.0
C732 C 0.83302 0.65376 0.81961 0.0
C733 C 0.80858 0.6286 0.82486 0.0
H734 H 0.87323 0.6703 0.80441 0.0
H735 H 0.63273 0.4241 0.85052 0.0
H736 H 0.21266 0.7031 0.16916 0.0
H737 H 0.26102 0.74384 0.17832 0.0
H738 H 0.22708 0.80656 0.15363 0.0
H739 H 0.17824 0.76604 0.1447 0.0
H740 H 0.29111 0.81781 0.14906 0.0
H741 H 0.22134 0.80043 0.19339 0.0
H742 H 0.18569 0.77033 0.21379 0.0
H743 H 0.26242 0.7465 0.23464 0.0
H744 H 0.29844 0.77613 0.21421 0.0
H745 H 0.39668 0.94945 0.19013 0.0
H746 H 0.35091 0.90898 0.17807 0.0
H747 H 0.37972 0.84511 0.20488 0.0
H748 H 0.42554 0.88537 0.2169 0.0
H749 H 0.31793 0.83474 0.20798 0.0
H750 H 0.38803 0.85244 0.16383 0.0
H751 H 0.42367 0.88226 0.14335 0.0
H752 H 0.34679 0.90544 0.12212 0.0
H753 H 0.31078 0.87607 0.14263 0.0
C754 C 0.21527 0.72556 0.16577 0.0
C755 C 0.19131 0.73121 0.15627 0.0
C756 C 0.24306 0.74883 0.17095 0.0
C757 C 0.24755 0.7783 0.16678 0.0
C758 C 0.22415 0.78399 0.15696 0.0
C759 C 0.19626 0.76073 0.15182 0.0
C760 C 0.2763 0.80319 0.17302 0.0
C761 C 0.2968 0.82178 0.16194 0.0
C762 C 0.28405 0.80801 0.18982 0.0
C763 C 0.26249 0.79026 0.20217 0.0
C764 C 0.23054 0.78857 0.20224 0.0
C765 C 0.21028 0.77163 0.21382 0.0
C766 C 0.22176 0.75644 0.22547 0.0
C767 C 0.25355 0.75824 0.22559 0.0
C768 C 0.27391 0.77512 0.21402 0.0
C769 C 0.3936 0.92676 0.19324 0.0
C770 C 0.41474 0.9207 0.20455 0.0
C771 C 0.36736 0.90362 0.18635 0.0
C772 C 0.36186 0.87393 0.19052 0.0
C773 C 0.38332 0.86781 0.20154 0.0
C774 C 0.40949 0.89089 0.20843 0.0
C775 C 0.33302 0.84933 0.18403 0.0
C776 C 0.31237 0.83081 0.19509 0.0
C777 C 0.3252 0.84461 0.16721 0.0
C778 C 0.3468 0.86231 0.15487 0.0
C779 C 0.37879 0.86411 0.15489 0.0
C780 C 0.39905 0.88089 0.14326 0.0
C781 C 0.38753 0.89581 0.13147 0.0
C782 C 0.3557 0.89391 0.13127 0.0
C783 C 0.33534 0.87718 0.14289 0.0
H784 H 0.40324 0.90878 0.12247 0.0
H785 H 0.20604 0.74334 0.23443 0.0
H786 H 0.47489 0.12195 0.52876 0.0
H787 H 0.47512 0.17305 0.53 0.0
H788 H 0.57391 0.20639 0.51814 0.0
H789 H 0.57376 0.15521 0.51709 0.0
H790 H 0.56965 0.2462 0.53779 0.0
H791 H 0.50204 0.20426 0.49102 0.0
H792 H 0.4566 0.16834 0.47541 0.0
H793 H 0.39117 0.18677 0.50649 0.0
H794 H 0.43626 0.22255 0.52242 0.0
H795 H 0.57697 0.3973 0.52309 0.0
H796 H 0.57643 0.34646 0.52178 0.0
H797 H 0.47669 0.31316 0.53166 0.0
H798 H 0.47696 0.36413 0.53285 0.0
H799 H 0.48136 0.27315 0.51307 0.0
H800 H 0.54873 0.3147 0.56002 0.0
H801 H 0.59405 0.35036 0.57583 0.0
H802 H 0.65975 0.33243 0.54472 0.0
H803 H 0.61479 0.2969 0.52861 0.0
C804 C 0.49685 0.13994 0.52634 0.0
C805 C 0.52425 0.13309 0.52273 0.0
C806 C 0.49693 0.16988 0.52693 0.0
C807 C 0.52442 0.19527 0.52391 0.0
C808 C 0.55194 0.1884 0.52054 0.0
C809 C 0.55182 0.15844 0.51988 0.0
C810 C 0.52465 0.2283 0.52439 0.0
C811 C 0.55032 0.25175 0.53211 0.0
C812 C 0.49965 0.23731 0.51751 0.0
C813 C 0.47252 0.21583 0.50801 0.0
C814 C 0.47796 0.20049 0.49459 0.0
C815 C 0.45227 0.18019 0.48568 0.0
C816 C 0.42102 0.17521 0.48998 0.0
C817 C 0.41539 0.1906 0.50319 0.0
C818 C 0.441 0.21091 0.51216 0.0
C819 C 0.55468 0.37957 0.52522 0.0
C820 C 0.52708 0.38665 0.52824 0.0
C821 C 0.55443 0.34959 0.52451 0.0
C822 C 0.52666 0.32418 0.52695 0.0
C823 C 0.49892 0.33113 0.52969 0.0
C824 C 0.49912 0.36114 0.53036 0.0
C825 C 0.52637 0.2911 0.52649 0.0
C826 C 0.5007 0.26764 0.51877 0.0
C827 C 0.55134 0.28205 0.5334 0.0
C828 C 0.57839 0.3034 0.54301 0.0
C829 C 0.57284 0.31852 0.55649 0.0
C830 C 0.59846 0.33868 0.56551 0.0
C831 C 0.62976 0.34373 0.56125 0.0
C832 C 0.6355 0.32855 0.54799 0.0
C833 C 0.60996 0.30838 0.53891 0.0
H834 H 0.64956 0.35934 0.56826 0.0
H835 H 0.40116 0.15949 0.48307 0.0
H836 H 0.44335 0.59617 0.82759 0.0
H837 H 0.38947 0.59593 0.831 0.0
H838 H 0.35099 0.50198 0.81949 0.0
H839 H 0.40488 0.50238 0.81541 0.0
H840 H 0.31351 0.52537 0.80613 0.0
H841 H 0.36216 0.53426 0.85916 0.0
H842 H 0.40217 0.55566 0.88141 0.0
H843 H 0.38041 0.6357 0.88059 0.0
H844 H 0.34141 0.61545 0.85777 0.0
H845 H 0.16177 0.49488 0.84112 0.0
H846 H 0.21576 0.49766 0.8351 0.0
H847 H 0.24813 0.59338 0.83782 0.0
H848 H 0.19403 0.59072 0.84386 0.0
H849 H 0.28829 0.57005 0.85551 0.0
H850 H 0.23974 0.55958 0.80176 0.0
H851 H 0.19866 0.53597 0.78026 0.0
H852 H 0.21815 0.455 0.78466 0.0
H853 H 0.25905 0.478 0.80635 0.0
C854 C 0.42345 0.57542 0.8257 0.0
C855 C 0.42866 0.54924 0.82125 0.0
C856 C 0.3925 0.57528 0.82777 0.0
C857 C 0.36582 0.5488 0.82586 0.0
C858 C 0.37095 0.52275 0.82111 0.0
C859 C 0.4019 0.52298 0.81879 0.0
C860 C 0.33271 0.54819 0.82881 0.0
C861 C 0.30808 0.53486 0.81706 0.0
C862 C 0.32528 0.56099 0.84293 0.0
C863 C 0.34911 0.57344 0.85655 0.0
C864 C 0.36625 0.55663 0.86352 0.0
C865 C 0.38883 0.5686 0.87622 0.0
C866 C 0.39406 0.59715 0.88229 0.0
C867 C 0.37661 0.61373 0.87573 0.0
C868 C 0.35436 0.60207 0.86286 0.0
C869 C 0.18031 0.51656 0.84034 0.0
C870 C 0.17343 0.54258 0.84295 0.0
C871 C 0.21122 0.51812 0.83683 0.0
C872 C 0.23618 0.54574 0.83596 0.0
C873 C 0.22936 0.57179 0.83842 0.0
C874 C 0.19832 0.57025 0.84173 0.0
C875 C 0.26945 0.54731 0.83285 0.0
C876 C 0.29398 0.56074 0.84459 0.0
C877 C 0.27674 0.53426 0.81888 0.0
C878 C 0.25225 0.52044 0.80579 0.0
C879 C 0.23509 0.53666 0.79824 0.0
C880 C 0.21187 0.5234 0.786 0.0
C881 C 0.20574 0.49398 0.78113 0.0
C882 C 0.22289 0.47778 0.78846 0.0
C883 C 0.24612 0.49093 0.80071 0.0
H884 H 0.18776 0.48375 0.77165 0.0
H885 H 0.4115 0.60637 0.89215 0.0
H886 H 0.83945 0.39228 0.18306 0.0
H887 H 0.79127 0.35055 0.18927 0.0
H888 H 0.83319 0.28898 0.17154 0.0
H889 H 0.88161 0.33047 0.16553 0.0
H890 H 0.77041 0.27341 0.16117 0.0
H891 H 0.83238 0.30074 0.21152 0.0
H892 H 0.86221 0.33529 0.23357 0.0
H893 H 0.77804 0.35365 0.24426 0.0
H894 H 0.74782 0.31951 0.22211 0.0
H895 H 0.67047 0.14045 0.19767 0.0
H896 H 0.71419 0.1832 0.188 0.0
H897 H 0.67415 0.24267 0.21012 0.0
H898 H 0.63066 0.20001 0.21998 0.0
H899 H 0.73507 0.26025 0.21769 0.0
H900 H 0.67218 0.23187 0.16813 0.0
H901 H 0.64208 0.19792 0.14592 0.0
H902 H 0.72678 0.18206 0.13347 0.0
H903 H 0.75731 0.21561 0.15576 0.0
C904 C 0.83854 0.36987 0.18056 0.0
C905 C 0.86456 0.36482 0.17385 0.0
C906 C 0.8109 0.34603 0.18406 0.0
C907 C 0.80871 0.3166 0.181 0.0
C908 C 0.83428 0.31149 0.17395 0.0
C909 C 0.86195 0.33529 0.17048 0.0
C910 C 0.78018 0.29111 0.18557 0.0
C911 C 0.76283 0.27032 0.17356 0.0
C912 C 0.76987 0.28745 0.20165 0.0
C913 C 0.78793 0.30781 0.21505 0.0
C914 C 0.8203 0.31232 0.2185 0.0
C915 C 0.83727 0.3318 0.23102 0.0
C916 C 0.82205 0.34672 0.24028 0.0
C917 C 0.78981 0.34212 0.23706 0.0
C918 C 0.77274 0.32269 0.22453 0.0
C919 C 0.67069 0.16263 0.20022 0.0
C920 C 0.64714 0.16684 0.20962 0.0
C921 C 0.69572 0.1871 0.19469 0.0
C922 C 0.69745 0.21627 0.19823 0.0
C923 C 0.67347 0.22044 0.20727 0.0
C924 C 0.64862 0.19603 0.21291 0.0
C925 C 0.72507 0.24241 0.19328 0.0
C926 C 0.7424 0.26333 0.20526 0.0
C927 C 0.73523 0.24621 0.17715 0.0
C928 C 0.71696 0.22604 0.16372 0.0
C929 C 0.68433 0.22096 0.16074 0.0
C930 C 0.66721 0.20182 0.14812 0.0
C931 C 0.68249 0.18778 0.13831 0.0
C932 C 0.71496 0.19292 0.14109 0.0
C933 C 0.7322 0.21202 0.15371 0.0
H934 H 0.66919 0.17298 0.12855 0.0
H935 H 0.83523 0.3618 0.24997 0.0
H936 H 0.0374 0.57942 0.10312 0.0
H937 H 0.04344 0.58657 0.07388 0.0
H938 H 0.02455 0.4926 0.06729 0.0
H939 H 0.02126 0.4861 0.0965 0.0
H940 H 0.06739 0.51844 0.04885 0.0
H941 H 0.96806 0.53097 0.0593 0.0
H942 H 0.93423 0.55367 0.07291 0.0
H943 H 0.98761 0.63863 0.05337 0.0
H944 H 0.02241 0.61657 0.04 0.0
H945 H 1.00707 0.49874 0.96633 0.0
H946 H 1.00882 0.50002 0.99607 0.0
H947 H 0.06856 0.59271 0.99611 0.0
H948 H 0.06754 0.59136 0.96631 0.0
H949 H 1.00918 0.5724 0.01729 0.0
H950 H 0.10661 0.55569 0.00566 0.0
H951 H 0.13749 0.52974 0.99207 0.0
H952 H 0.08092 0.44746 0.01328 0.0
H953 H 0.04937 0.47286 0.0268 0.0
C954 C 0.03464 0.56042 0.09535 0.0
C955 C 0.02881 0.53223 0.10199 0.0
C956 C 0.03786 0.56442 0.07863 0.0
C957 C 0.03389 0.54003 0.06819 0.0
C958 C 0.02789 0.51186 0.07496 0.0
C959 C 0.0258 0.50809 0.09167 0.0
C960 C 0.03595 0.54346 0.05026 0.0
C961 C 0.05434 0.53004 0.04203 0.0
C962 C 0.01954 0.55908 0.04118 0.0
C963 C 0.99806 0.57218 0.0488 0.0
C964 C 0.97268 0.55453 0.05797 0.0
C965 C 0.95334 0.56729 0.06565 0.0
C966 C 0.95875 0.59759 0.06402 0.0
C967 C 0.98348 0.61517 0.05465 0.0
C968 C 1.00306 0.60256 0.04703 0.0
C969 C 0.02057 0.51936 0.9727 0.0
C970 C 0.03725 0.54493 0.96409 0.0
C971 C 0.02156 0.52006 0.98964 0.0
C972 C 0.03878 0.54647 -0.00178 0.0
C973 C 0.05511 0.57217 0.98966 0.0
C974 C 0.05468 0.57131 0.97271 0.0
C975 C 0.03994 0.5469 0.01616 0.0
C976 C 0.02224 0.56102 0.02428 0.0
C977 C 0.05633 0.53137 0.02513 0.0
C978 C 0.07544 0.51613 0.01711 0.0
C979 C 0.10057 0.53202 0.0073 0.0
C980 C 0.11823 0.51742 -0.00036 0.0
C981 C 0.11112 0.48696 0.00178 0.0
C982 C 0.08638 0.47105 0.01162 0.0
C983 C 0.06862 0.48554 0.0193 0.0
H984 H 0.12483 0.47569 0.99583 0.0
H985 H 0.94379 0.60746 0.07001 0.0
H986 H 0.49557 0.06865 0.46623 0.0
H987 H 0.50356 0.069 0.43718 0.0
H988 H 0.54971 1.00448 0.44341 0.0
H989 H 0.5429 1.00508 0.47275 0.0
H990 H 0.57905 0.04282 0.42163 0.0
H991 H 0.47029 0.98418 0.42937 0.0
H992 H 0.41637 0.97216 0.43962 0.0
H993 H 0.40495 0.0449 0.41326 0.0
H994 H 0.45901 0.05763 0.40303 0.0
H995 H 0.55368 1.00026 0.33683 0.0
H996 H 0.55186 0.99933 0.3665 0.0
H997 H 0.52231 0.0755 0.36579 0.0
H998 H 0.52418 0.07659 0.3362 0.0
H999 H 0.48449 0.02766 0.38458 0.0
H1000 H 0.59567 0.08563 0.3774 0.0
H1001 H 0.64896 0.09469 0.36694 0.0
H1002 H 0.65422 0.01819 0.39192 0.0
H1003 H 0.60073 1.00843 0.40234 0.0
C1004 C 0.50761 0.05468 0.46142 0.0
C1005 C 0.5183 0.03658 0.47168 0.0
C1006 C 0.51202 0.05476 0.4448 0.0
C1007 C 0.52647 0.03615 0.438 0.0
C1008 C 0.53827 0.01885 0.44833 0.0
C1009 C 0.53433 0.01916 0.46507 0.0
C1010 C 0.52851 0.03445 0.42011 0.0
C1011 C 0.55826 0.03905 0.41355 0.0
C1012 C 0.50145 0.0297 0.40949 0.0
C1013 C 0.46882 0.02201 0.41554 0.0
C1014 C 0.45637 0.99774 0.42584 0.0
C1015 C 0.42576 0.99078 0.43164 0.0
C1016 C 0.40727 1.00779 0.42712 0.0
C1017 C 0.41932 0.03175 0.41676 0.0
C1018 C 0.44992 0.03884 0.41094 0.0
C1019 C 0.54683 0.01679 0.34303 0.0
C1020 C 0.53912 0.03853 0.33423 0.0
C1021 C 0.54596 0.01634 0.35995 0.0
C1022 C 0.53708 0.03743 0.36831 0.0
C1023 C 0.52929 0.05908 0.35955 0.0
C1024 C 0.53054 0.05978 0.34268 0.0
C1025 C 0.53502 0.03655 0.38618 0.0
C1026 C 0.5052 0.03131 0.3927 0.0
C1027 C 0.56186 0.04019 0.39671 0.0
C1028 C 0.59405 0.04611 0.3905 0.0
C1029 C 0.60806 0.07058 0.38054 0.0
C1030 C 0.63833 0.07588 0.37464 0.0
C1031 C 0.65493 0.05698 0.37872 0.0
C1032 C 0.64132 0.03279 0.38875 0.0
C1033 C 0.61104 0.02738 0.39466 0.0
H1034 H 0.67836 0.06112 0.37415 0.0
H1035 H 0.38359 1.00237 0.43163 0.0
H1036 H 0.50056 0.52584 0.77432 0.0
H1037 H 0.49887 0.51575 0.74515 0.0
H1038 H 0.57853 0.5976 0.73971 0.0
H1039 H 0.58122 0.6069 0.76892 0.0
H1040 H 0.48672 0.54098 0.72011 0.0
H1041 H 0.62221 0.5949 0.70841 0.0
H1042 H 0.67392 0.60224 0.72267 0.0
H1043 H 0.6294 0.52645 0.75207 0.0
H1044 H 0.57753 0.51839 0.73784 0.0
H1045 H 0.50688 0.57136 0.6371 0.0
H1046 H 0.50869 0.57362 0.66661 0.0
H1047 H 0.55677 0.5102 0.66851 0.0
H1048 H 0.55665 0.50905 0.63893 0.0
H1049 H 0.58352 0.55104 0.69015 0.0
H1050 H 0.47619 0.49066 0.67688 0.0
H1051 H 0.42292 0.47609 0.66312 0.0
H1052 H 0.40858 0.55165 0.68444 0.0
H1053 H 0.46197 0.56692 0.69815 0.0
C1054 C 0.51793 0.54148 0.7669 0.0
C1055 C 0.54121 0.56703 0.77392 0.0
C1056 C 0.51685 0.53578 0.7502 0.0
C1057 C 0.53884 0.55566 0.74013 0.0
C1058 C 0.56179 0.58145 0.74717 0.0
C1059 C 0.5632 0.58688 0.76389 0.0
C1060 C 0.53732 0.54988 0.72227 0.0
C1061 C 0.50792 0.54313 0.7136 0.0
C1062 C 0.56471 0.55184 0.71368 0.0
C1063 C 0.59593 0.55622 0.72214 0.0
C1064 C 0.62349 0.57971 0.71786 0.0
C1065 C 0.65282 0.58401 0.72595 0.0
C1066 C 0.65492 0.56487 0.7383 0.0
C1067 C 0.62772 0.54132 0.74254 0.0
C1068 C 0.59834 0.53689 0.73448 0.0
C1069 C 0.51819 0.5581 0.64374 0.0
C1070 C 0.53167 0.54004 0.63551 0.0
C1071 C 0.51882 0.55912 0.66069 0.0
C1072 C 0.53246 0.54176 0.66989 0.0
C1073 C 0.54599 0.52375 0.66174 0.0
C1074 C 0.5456 0.52288 0.64477 0.0
C1075 C 0.53309 0.54288 0.68798 0.0
C1076 C 0.56232 0.54877 0.69668 0.0
C1077 C 0.50534 0.53912 0.69666 0.0
C1078 C 0.47321 0.53008 0.68843 0.0
C1079 C 0.46178 0.5043 0.67853 0.0
C1080 C 0.43155 0.4959 0.67076 0.0
C1081 C 0.41241 0.51298 0.67287 0.0
C1082 C 0.42345 0.53847 0.6828 0.0
C1083 C 0.45368 0.54699 0.69059 0.0
H1084 H 0.389 0.50642 0.66685 0.0
H1085 H 0.67764 0.56827 0.74456 0.0
H1086 H 0.49866 0.05621 0.56466 0.0
H1087 H 0.48296 0.0489 0.59284 0.0
H1088 H 0.54572 0.9995 0.60131 0.0
H1089 H 0.56212 1.00749 0.57331 0.0
H1090 H 0.45443 1.00211 0.61027 0.0
H1091 H 0.57758 1.01197 0.63949 0.0
H1092 H 0.63474 0.03699 0.63454 0.0
H1093 H 0.61356 0.10492 0.60797 0.0
H1094 H 0.55637 0.08053 0.61294 0.0
H1095 H 0.43424 0.95599 0.69214 0.0
H1096 H 0.44881 0.96159 0.6638 0.0
H1097 H 0.50595 0.05381 0.67326 0.0
H1098 H 0.49307 0.04799 0.70168 0.0
H1099 H 0.53689 0.03086 0.65522 0.0
H1100 H 0.43022 0.03143 0.65378 0.0
H1101 H 0.37271 1.0123 0.65882 0.0
H1102 H 0.36023 0.93416 0.63006 0.0
H1103 H 0.41778 0.95266 0.62502 0.0
C1104 C 0.50913 0.04386 0.57257 0.0
C1105 C 0.53187 0.03271 0.56689 0.0
C1106 C 0.50004 0.03956 0.58863 0.0
C1107 C 0.51346 0.02399 0.59926 0.0
C1108 C 0.53551 1.01211 0.59344 0.0
C1109 C 0.54481 0.01662 0.57743 0.0
C1110 C 0.50481 0.02057 0.6165 0.0
C1111 C 0.47246 1.00835 0.6201 0.0
C1112 C 0.52827 0.0292 0.62936 0.0
C1113 C 0.56267 0.04423 0.62645 0.0
C1114 C 0.58515 0.0323 0.63264 0.0
C1115 C 0.61755 0.04636 0.62983 0.0
C1116 C 0.62776 0.07247 0.6209 0.0
C1117 C 0.60561 0.08464 0.61482 0.0
C1118 C 0.5732 0.07068 0.61762 0.0
C1119 C 0.45017 0.97738 0.68823 0.0
C1120 C 0.46225 1.00159 0.69921 0.0
C1121 C 0.4582 0.98064 0.67197 0.0
C1122 C 0.47813 1.00825 0.66632 0.0
C1123 C 0.49044 0.03231 0.67729 0.0
C1124 C 0.4827 0.02902 0.69353 0.0
C1125 C 0.48648 1.01221 0.64903 0.0
C1126 C 0.51882 0.02448 0.64541 0.0
C1127 C 0.46296 1.00443 0.63619 0.0
C1128 C 0.42835 0.99329 0.63916 0.0
C1129 C 0.41525 1.01006 0.64863 0.0
C1130 C 0.38264 0.99935 0.65147 0.0
C1131 C 0.36285 0.972 0.6448 0.0
C1132 C 0.3756 0.95533 0.63524 0.0
C1133 C 0.40821 0.96592 0.63238 0.0
H1134 H 0.33761 0.96375 0.64701 0.0
H1135 H 0.65284 0.08331 0.61872 0.0
H1136 H 0.50695 0.5672 0.86216 0.0
H1137 H 0.50155 0.57372 0.89115 0.0
H1138 H 0.5265 0.49622 0.90096 0.0
H1139 H 0.52935 0.48852 0.87186 0.0
H1140 H 0.48143 0.49378 0.91861 0.0
H1141 H 0.58013 0.57549 0.90753 0.0
H1142 H 0.61089 0.6202 0.89261 0.0
H1143 H 0.54841 0.66448 0.90771 0.0
H1144 H 0.51718 0.61995 0.92264 0.0
H1145 H 0.53312 0.51372 0.00056 0.0
H1146 H 0.53095 0.51198 0.97098 0.0
H1147 H 0.48818 0.57944 0.96977 0.0
H1148 H 0.49072 0.58162 -0.00047 0.0
H1149 H 0.53647 0.58974 0.94782 0.0
H1150 H 0.44202 0.51038 0.96145 0.0
H1151 H 0.40999 0.46547 0.97577 0.0
H1152 H 0.46348 0.41656 0.95536 0.0
H1153 H 0.49617 0.46132 0.94109 0.0
C1154 C 0.51155 0.5518 0.87059 0.0
C1155 C 0.51892 0.52757 0.86491 0.0
C1156 C 0.5086 0.55557 0.88717 0.0
C1157 C 0.51429 0.53586 0.89842 0.0
C1158 C 0.52196 0.51178 0.89262 0.0
C1159 C 0.52382 0.50746 0.87601 0.0
C1160 C 0.5117 0.53965 0.91618 0.0
C1161 C 0.49388 0.51471 0.92497 0.0
C1162 C 0.5267 0.56723 0.92452 0.0
C1163 C 0.54627 0.59438 0.91613 0.0
C1164 C 0.57301 0.59479 0.90768 0.0
C1165 C 0.5905 0.62008 0.89921 0.0
C1166 C 0.58161 0.64516 0.89922 0.0
C1167 C 0.55531 0.64507 0.90776 0.0
C1168 C 0.53775 0.61984 0.91624 0.0
C1169 C 0.52343 0.52834 0.99402 0.0
C1170 C 0.51212 0.54783 0.0024 0.0
C1171 C 0.522 0.52718 0.97711 0.0
C1172 C 0.50918 0.54542 0.96817 0.0
C1173 C 0.49811 0.56514 0.97644 0.0
C1174 C 0.49934 0.56618 0.99343 0.0
C1175 C 0.50739 0.54357 0.95018 0.0
C1176 C 0.52409 0.56887 0.94138 0.0
C1177 C 0.49143 0.51632 0.94179 0.0
C1178 C 0.47172 0.48929 0.9503 0.0
C1179 C 0.44712 0.49011 0.96011 0.0
C1180 C 0.42882 0.46467 0.9682 0.0
C1181 C 0.43474 0.43819 0.9665 0.0
C1182 C 0.45894 0.43709 0.95667 0.0
C1183 C 0.47734 0.46249 0.94857 0.0
H1184 H 0.42054 0.41852 0.97278 0.0
H1185 H 0.59508 0.66466 0.89259 0.0
H1186 H 0.05595 0.52996 0.19653 0.0
H1187 H 0.05346 0.52189 0.2258 0.0
H1188 H 0.99678 0.57766 0.22959 0.0
H1189 H 1.00021 0.58656 0.20049 0.0
H1190 H 0.0394 0.59224 0.25261 0.0
H1191 H 0.96356 0.49919 0.23383 0.0
H1192 H 0.94244 0.45259 0.2177 0.0
H1193 H 0.01681 0.42474 0.23798 0.0
H1194 H 0.03821 0.47114 0.25437 0.0
H1195 H 0.98257 0.54616 0.33162 0.0
H1196 H 0.98289 0.5493 0.30196 0.0
H1197 H 0.0656 0.52339 0.30205 0.0
H1198 H 0.06584 0.52088 0.33178 0.0
H1199 H 1.00984 0.49279 0.27752 0.0
H1200 H 0.08282 0.58907 0.29742 0.0
H1201 H 0.09732 0.63473 0.31426 0.0
H1202 H 0.02028 0.65571 0.29149 0.0
H1203 H 1.00501 0.6099 0.27468 0.0
C1204 C 0.04286 0.54037 0.20363 0.0
C1205 C 0.0284 0.559 0.19626 0.0
C1206 C 0.04125 0.53559 0.22035 0.0
C1207 C 0.02466 0.54894 0.22997 0.0
C1208 C 1.00982 0.56718 0.22251 0.0
C1209 C 0.01173 0.57221 0.20585 0.0
C1210 C 0.02385 0.54498 0.24788 0.0
C1211 C 0.03254 0.57041 0.25798 0.0
C1212 C 0.01527 0.5166 0.25504 0.0
C1213 C 1.00268 0.48876 0.24518 0.0
C1214 C 0.97554 0.48322 0.23476 0.0
C1215 C 0.96349 0.45682 0.22559 0.0
C1216 C 0.97843 0.43582 0.2267 0.0
C1217 C 1.00531 0.44107 0.23709 0.0
C1218 C 0.01734 0.46735 0.24638 0.0
C1219 C 1.00067 0.54094 0.32529 0.0
C1220 C 0.02423 0.53334 0.33396 0.0
C1221 C 1.00085 0.54277 0.30839 0.0
C1222 C 0.02425 0.53654 0.29986 0.0
C1223 C 0.04731 0.52819 0.30844 0.0
C1224 C 0.04753 0.52693 0.32538 0.0
C1225 C 0.02534 0.53999 0.28203 0.0
C1226 C 0.01673 0.51451 0.27202 0.0
C1227 C 0.03325 0.56826 0.27492 0.0
C1228 C 0.04257 0.5959 0.28493 0.0
C1229 C 0.06878 0.60327 0.29612 0.0
C1230 C 0.07718 0.62921 0.30563 0.0
C1231 C 0.05968 0.64807 0.30398 0.0
C1232 C 0.03379 0.64106 0.29277 0.0
C1233 C 0.02527 0.61513 0.28324 0.0
H1234 H 0.06622 0.66814 0.31136 0.0
H1235 H 0.9691 0.41543 0.21955 0.0
loop_
_geom_bond_atom_site_label_1
_geom_bond_atom_site_label_2
_geom_bond_distance
_geom_bond_site_symmetry_2
_ccdc_geom_bond_type
Pr0 C2 2.880 . S
Pr0 O20 2.562 . S
Pr0 O21 2.490 . S
Pr0 O22 2.695 1_655 S
Pr0 O23 2.512 . S
Pr0 O25 2.437 . S
Pr0 O28 2.436 . S
Pr0 O30 2.438 1_655 S
Pr1 C11 2.880 . S
Pr1 O22 2.436 . S
Pr1 O24 2.438 1_455 S
Pr1 O26 2.562 . S
Pr1 O27 2.490 . S
Pr1 O28 2.695 1_455 S
Pr1 O29 2.512 . S
Pr1 O31 2.437 . S
C2 Pr0 2.880 . S
C2 C3 1.491 . S
C2 O20 1.254 . S
C2 O21 1.225 . S
C3 C2 1.491 . S
C3 C4 1.392 . S
C3 C8 1.356 . S
C4 C3 1.392 . S
C4 C5 1.368 . S
C4 H32 0.929 . S
C5 C4 1.368 . S
C5 C6 1.386 . S
C5 H33 0.929 . S
C6 C5 1.386 . S
C6 C7 1.373 . S
C7 C6 1.373 . S
C7 C8 1.409 . S
C7 H34 0.931 . S
C8 C3 1.356 . S
C8 C7 1.409 . S
C8 H35 0.930 . S
C9 O22 1.270 . S
C9 O23 1.248 1_455 S
C10 O24 1.267 . S
C10 O25 1.278 . S
C11 Pr1 2.880 . S
C11 C12 1.491 . S
C11 O26 1.254 . S
C11 O27 1.225 . S
C12 C11 1.491 . S
C12 C13 1.392 . S
C12 C17 1.356 . S
C13 C12 1.392 . S
C13 C14 1.368 . S
C13 H36 0.929 . S
C14 C13 1.368 . S
C14 C15 1.386 . S
C14 H37 0.929 . S
C15 C14 1.386 . S
C15 C16 1.373 . S
C16 C15 1.373 . S
C16 C17 1.409 . S
C16 H38 0.931 . S
C17 C12 1.356 . S
C17 C16 1.409 . S
C17 H39 0.930 . S
C18 O28 1.270 1_455 S
C18 O29 1.248 . S
C19 O30 1.267 . S
C19 O31 1.278 . S
O20 Pr0 2.562 . S
O20 C2 1.254 . S
O21 Pr0 2.490 . S
O21 C2 1.225 . S
O22 Pr0 2.695 1_455 S
O22 Pr1 2.436 . S
O22 C9 1.270 . S
O23 Pr0 2.512 . S
O23 C9 1.248 1_655 S
O24 Pr1 2.438 1_655 S
O24 C10 1.267 . S
O25 Pr0 2.437 . S
O25 C10 1.278 . S
O26 Pr1 2.562 . S
O26 C11 1.254 . S
O27 Pr1 2.490 . S
O27 C11 1.225 . S
O28 Pr0 2.436 . S
O28 Pr1 2.695 1_655 S
O28 C18 1.270 1_655 S
O29 Pr1 2.512 . S
O29 C18 1.248 . S
O30 Pr0 2.438 1_455 S
O30 C19 1.267 . S
O31 Pr1 2.437 . S
O31 C19 1.278 . S
H32 C4 0.929 . S
H33 C5 0.929 . S
H34 C7 0.931 . S
H35 C8 0.930 . S
H36 C13 0.929 . S
H37 C14 0.929 . S
H38 C16 0.931 . S
H39 C17 0.930 . S
Pr40 C42 2.880 . S
Pr40 O60 2.562 . S
Pr40 O61 2.490 . S
Pr40 O62 2.695 . S
Pr40 O63 2.512 . S
Pr40 O65 2.437 . S
Pr40 O68 2.436 . S
Pr40 O70 2.438 1_545 S
Pr41 C51 2.862 1_545 S
Pr41 O62 2.433 . S
Pr41 O64 2.462 . S
Pr41 O66 2.544 1_545 S
Pr41 O67 2.475 1_545 S
Pr41 O68 2.699 . S
Pr41 O69 2.512 . S
Pr41 O71 2.415 1_545 S
C42 Pr40 2.880 . S
C42 C43 1.491 . S
C42 O60 1.254 . S
C42 O61 1.225 . S
C43 C42 1.491 . S
C43 C44 1.392 . S
C43 C48 1.356 . S
C44 C43 1.392 . S
C44 C45 1.368 . S
C44 H72 0.929 . S
C45 C44 1.368 . S
C45 C46 1.386 . S
C45 H73 0.929 . S
C46 C45 1.386 . S
C46 C47 1.373 . S
C47 C46 1.373 . S
C47 C48 1.409 . S
C47 H74 0.931 . S
C48 C43 1.356 . S
C48 C47 1.409 . S
C48 H75 0.930 . S
C49 O62 1.270 . S
C49 O63 1.248 . S
C50 O64 1.267 . S
C50 O65 1.278 . S
C51 Pr41 2.862 1_565 S
C51 C52 1.491 . S
C51 O66 1.254 . S
C51 O67 1.225 . S
C52 C51 1.491 . S
C52 C53 1.392 . S
C52 C57 1.356 . S
C53 C52 1.392 . S
C53 C54 1.368 . S
C53 H76 0.929 . S
C54 C53 1.368 . S
C54 C55 1.386 . S
C54 H77 0.929 . S
C55 C54 1.386 . S
C55 C56 1.373 . S
C56 C55 1.373 . S
C56 C57 1.409 . S
C56 H78 0.931 . S
C57 C52 1.356 . S
C57 C56 1.409 . S
C57 H79 0.930 . S
C58 O68 1.270 . S
C58 O69 1.248 . S
C59 O70 1.267 . S
C59 O71 1.278 . S
O60 Pr40 2.562 . S
O60 C42 1.254 . S
O61 Pr40 2.490 . S
O61 C42 1.225 . S
O62 Pr40 2.695 . S
O62 Pr41 2.433 . S
O62 C49 1.270 . S
O63 Pr40 2.512 . S
O63 C49 1.248 . S
O64 Pr41 2.462 . S
O64 C50 1.267 . S
O65 Pr40 2.437 . S
O65 C50 1.278 . S
O66 Pr41 2.544 1_565 S
O66 C51 1.254 . S
O67 Pr41 2.475 1_565 S
O67 C51 1.225 . S
O68 Pr40 2.436 . S
O68 Pr41 2.699 . S
O68 C58 1.270 . S
O69 Pr41 2.512 . S
O69 C58 1.248 . S
O70 Pr40 2.438 1_565 S
O70 C59 1.267 . S
O71 Pr41 2.415 1_565 S
O71 C59 1.278 . S
H72 C44 0.929 . S
H73 C45 0.929 . S
H74 C47 0.931 . S
H75 C48 0.930 . S
H76 C53 0.929 . S
H77 C54 0.929 . S
H78 C56 0.931 . S
H79 C57 0.930 . S
Pr80 C82 2.880 . S
Pr80 O100 2.562 . S
Pr80 O101 2.490 . S
Pr80 O102 2.695 . S
Pr80 O103 2.512 . S
Pr80 O105 2.437 . S
Pr80 O108 2.436 . S
Pr80 O110 2.438 . S
Pr81 C91 2.880 . S
Pr81 O102 2.436 . S
Pr81 O104 2.438 . S
Pr81 O106 2.562 . S
Pr81 O107 2.490 . S
Pr81 O108 2.695 . S
Pr81 O109 2.512 . S
Pr81 O111 2.437 . S
C82 Pr80 2.880 . S
C82 C83 1.491 . S
C82 O100 1.254 . S
C82 O101 1.225 . S
C83 C82 1.491 . S
C83 C84 1.392 . S
C83 C88 1.356 . S
C84 C83 1.392 . S
C84 C85 1.368 . S
C84 H112 0.929 . S
C85 C84 1.368 . S
C85 C86 1.386 . S
C85 H113 0.929 . S
C86 C85 1.386 . S
C86 C87 1.373 . S
C87 C86 1.373 . S
C87 C88 1.409 . S
C87 H114 0.931 . S
C88 C83 1.356 . S
C88 C87 1.409 . S
C88 H115 0.930 . S
C89 O102 1.270 . S
C89 O103 1.248 . S
C90 O104 1.267 . S
C90 O105 1.278 . S
C91 Pr81 2.880 . S
C91 C92 1.491 . S
C91 O106 1.254 . S
C91 O107 1.225 . S
C92 C91 1.491 . S
C92 C93 1.392 . S
C92 C97 1.356 . S
C93 C92 1.392 . S
C93 C94 1.368 . S
C93 H116 0.929 . S
C94 C93 1.368 . S
C94 C95 1.386 . S
C94 H117 0.929 . S
C95 C94 1.386 . S
C95 C96 1.373 . S
C96 C95 1.373 . S
C96 C97 1.409 . S
C96 H118 0.931 . S
C97 C92 1.356 . S
C97 C96 1.409 . S
C97 H119 0.930 . S
C98 O108 1.270 . S
C98 O109 1.248 . S
C99 O110 1.267 . S
C99 O111 1.278 . S
O100 Pr80 2.562 . S
O100 C82 1.254 . S
O101 Pr80 2.490 . S
O101 C82 1.225 . S
O102 Pr80 2.695 . S
O102 Pr81 2.436 . S
O102 C89 1.270 . S
O103 Pr80 2.512 . S
O103 C89 1.248 . S
O104 Pr81 2.438 . S
O104 C90 1.267 . S
O105 Pr80 2.437 . S
O105 C90 1.278 . S
O106 Pr81 2.562 . S
O106 C91 1.254 . S
O107 Pr81 2.490 . S
O107 C91 1.225 . S
O108 Pr80 2.436 . S
O108 Pr81 2.695 . S
O108 C98 1.270 . S
O109 Pr81 2.512 . S
O109 C98 1.248 . S
O110 Pr80 2.438 . S
O110 C99 1.267 . S
O111 Pr81 2.437 . S
O111 C99 1.278 . S
H112 C84 0.929 . S
H113 C85 0.929 . S
H114 C87 0.931 . S
H115 C88 0.930 . S
H116 C93 0.929 . S
H117 C94 0.929 . S
H118 C96 0.931 . S
H119 C97 0.930 . S
C120 C121 1.384 . S
C120 H133 0.947 . S
C120 C155 1.382 . S
C121 C120 1.384 . S
C121 C122 1.378 . S
C122 C121 1.378 . S
C122 C123 1.378 . S
C122 H134 0.952 . S
C123 C122 1.378 . S
C123 H135 0.950 . S
C123 C154 1.383 . S
H124 C143 0.947 . S
H125 C144 0.946 . S
H126 C146 0.953 . S
H127 C147 0.945 . S
H128 C149 0.952 . S
H129 C150 0.949 . S
H130 C152 0.950 1_565 S
H131 C153 0.948 1_565 S
H132 C155 0.951 . S
H133 C120 0.947 . S
H134 C122 0.952 . S
H135 C123 0.950 . S
N136 C139 1.382 . S
N136 C141 1.363 . S
N137 C139 1.371 . S
N137 C140 1.372 . S
N138 C140 1.361 . S
N138 C141 1.377 . S
C139 N136 1.382 . S
C139 N137 1.371 . S
C139 C142 1.480 . S
C140 N137 1.372 . S
C140 N138 1.361 . S
C140 C148 1.457 . S
C141 N136 1.363 . S
C141 N138 1.377 . S
C141 C154 1.479 1_545 S
C142 C139 1.480 . S
C142 C143 1.383 . S
C142 C147 1.385 . S
C143 H124 0.947 . S
C143 C142 1.383 . S
C143 C144 1.388 . S
C144 H125 0.946 . S
C144 C143 1.388 . S
C144 C145 1.384 . S
C145 C144 1.384 . S
C145 C146 1.377 . S
C146 H126 0.953 . S
C146 C145 1.377 . S
C146 C147 1.369 . S
C147 H127 0.945 . S
C147 C142 1.385 . S
C147 C146 1.369 . S
C148 C140 1.457 . S
C148 C149 1.372 . S
C148 C153 1.364 . S
C149 H128 0.952 . S
C149 C148 1.372 . S
C149 C150 1.389 . S
C150 H129 0.949 . S
C150 C149 1.389 . S
C150 C151 1.387 . S
C151 C150 1.387 . S
C151 C152 1.372 . S
C152 H130 0.950 1_545 S
C152 C151 1.372 . S
C152 C153 1.379 . S
C153 H131 0.948 1_545 S
C153 C148 1.364 . S
C153 C152 1.379 . S
C154 C123 1.383 . S
C154 C141 1.479 1_565 S
C154 C155 1.398 . S
C155 C120 1.382 . S
C155 H132 0.951 . S
C155 C154 1.398 . S
C156 C157 1.384 . S
C156 H169 0.947 . S
C156 C191 1.382 . S
C157 C156 1.384 . S
C157 C158 1.378 . S
C158 C157 1.378 . S
C158 C159 1.378 . S
C158 H170 0.952 . S
C159 C158 1.378 . S
C159 H171 0.950 . S
C159 C190 1.383 . S
H160 C179 0.947 . S
H161 C180 0.946 . S
H162 C182 0.953 . S
H163 C183 0.945 . S
H164 C185 0.952 . S
H165 C186 0.949 . S
H166 C188 0.950 . S
H167 C189 0.948 . S
H168 C191 0.951 . S
H169 C156 0.947 . S
H170 C158 0.952 . S
H171 C159 0.950 . S
N172 C175 1.382 . S
N172 C177 1.363 . S
N173 C175 1.371 . S
N173 C176 1.372 . S
N174 C176 1.361 . S
N174 C177 1.377 . S
C175 N172 1.382 . S
C175 N173 1.371 . S
C175 C178 1.480 . S
C176 N173 1.372 . S
C176 N174 1.361 . S
C176 C184 1.457 . S
C177 N172 1.363 . S
C177 N174 1.377 . S
C177 C190 1.479 . S
C178 C175 1.480 . S
C178 C179 1.383 . S
C178 C183 1.385 . S
C179 H160 0.947 . S
C179 C178 1.383 . S
C179 C180 1.388 . S
C180 H161 0.946 . S
C180 C179 1.388 . S
C180 C181 1.384 . S
C181 C180 1.384 . S
C181 C182 1.377 . S
C182 H162 0.953 . S
C182 C181 1.377 . S
C182 C183 1.369 . S
C183 H163 0.945 . S
C183 C178 1.385 . S
C183 C182 1.369 . S
C184 C176 1.457 . S
C184 C185 1.372 . S
C184 C189 1.364 . S
C185 H164 0.952 . S
C185 C184 1.372 . S
C185 C186 1.389 . S
C186 H165 0.949 . S
C186 C185 1.389 . S
C186 C187 1.387 . S
C187 C186 1.387 . S
C187 C188 1.372 . S
C188 H166 0.950 . S
C188 C187 1.372 . S
C188 C189 1.379 . S
C189 H167 0.948 . S
C189 C184 1.364 . S
C189 C188 1.379 . S
C190 C159 1.383 . S
C190 C177 1.479 . S
C190 C191 1.398 . S
C191 C156 1.382 . S
C191 H168 0.951 . S
C191 C190 1.398 . S
C192 C193 1.384 . S
C192 H205 0.947 . S
C192 C227 1.382 . S
C193 C192 1.384 . S
C193 C194 1.378 . S
C194 C193 1.378 . S
C194 C195 1.378 . S
C194 H206 0.952 . S
C195 C194 1.378 . S
C195 H207 0.950 . S
C195 C226 1.383 . S
H196 C215 0.947 . S
H197 C216 0.946 . S
H198 C218 0.953 . S
H199 C219 0.945 . S
H200 C221 0.952 . S
H201 C222 0.949 . S
H202 C224 0.950 . S
H203 C225 0.948 . S
H204 C227 0.951 . S
H205 C192 0.947 . S
H206 C194 0.952 . S
H207 C195 0.950 . S
N208 C211 1.382 . S
N208 C213 1.363 1_455 S
N209 C211 1.371 . S
N209 C212 1.372 . S
N210 C212 1.361 1_655 S
N210 C213 1.377 . S
C211 N208 1.382 . S
C211 N209 1.371 . S
C211 C214 1.480 . S
C212 N209 1.372 . S
C212 N210 1.361 1_455 S
C212 C220 1.457 . S
C213 N208 1.363 1_655 S
C213 N210 1.377 . S
C213 C226 1.479 . S
C214 C211 1.480 . S
C214 C215 1.383 . S
C214 C219 1.385 . S
C215 H196 0.947 . S
C215 C214 1.383 . S
C215 C216 1.388 . S
C216 H197 0.946 . S
C216 C215 1.388 . S
C216 C217 1.384 . S
C217 C216 1.384 . S
C217 C218 1.377 . S
C218 H198 0.953 . S
C218 C217 1.377 . S
C218 C219 1.369 . S
C219 H199 0.945 . S
C219 C214 1.385 . S
C219 C218 1.369 . S
C220 C212 1.457 . S
C220 C221 1.372 . S
C220 C225 1.364 1_455 S
C221 H200 0.952 . S
C221 C220 1.372 . S
C221 C222 1.389 . S
C222 H201 0.949 . S
C222 C221 1.389 . S
C222 C223 1.387 . S
C223 C222 1.387 . S
C223 C224 1.372 1_455 S
C224 H202 0.950 . S
C224 C223 1.372 1_655 S
C224 C225 1.379 . S
C225 H203 0.948 . S
C225 C220 1.364 1_655 S
C225 C224 1.379 . S
C226 C195 1.383 . S
C226 C213 1.479 . S
C226 C227 1.398 . S
C227 C192 1.382 . S
C227 H204 0.951 . S
C227 C226 1.398 . S
C228 C229 1.384 . S
C228 H241 0.947 . S
C228 C263 1.382 . S
C229 C228 1.384 . S
C229 C230 1.378 . S
C230 C229 1.378 . S
C230 C231 1.378 . S
C230 H242 0.952 . S
C231 C230 1.378 . S
C231 H243 0.950 . S
C231 C262 1.383 . S
H232 C251 0.947 . S
H233 C252 0.946 . S
H234 C254 0.953 . S
H235 C255 0.945 . S
H236 C257 0.952 . S
H237 C258 0.949 . S
H238 C260 0.950 . S
H239 C261 0.948 . S
H240 C263 0.951 . S
H241 C228 0.947 . S
H242 C230 0.952 . S
H243 C231 0.950 . S
N244 C247 1.382 1_455 S
N244 C249 1.363 . S
N245 C247 1.371 . S
N245 C248 1.372 1_655 S
N246 C248 1.361 . S
N246 C249 1.377 . S
C247 N244 1.382 1_655 S
C247 N245 1.371 . S
C247 C250 1.480 . S
C248 N245 1.372 1_455 S
C248 N246 1.361 . S
C248 C256 1.457 . S
C249 N244 1.363 . S
C249 N246 1.377 . S
C249 C262 1.479 . S
C250 C247 1.480 . S
C250 C251 1.383 . S
C250 C255 1.385 . S
C251 H232 0.947 . S
C251 C250 1.383 . S
C251 C252 1.388 . S
C252 H233 0.946 . S
C252 C251 1.388 . S
C252 C253 1.384 . S
C253 C252 1.384 . S
C253 C254 1.377 . S
C254 H234 0.953 . S
C254 C253 1.377 . S
C254 C255 1.369 . S
C255 H235 0.945 . S
C255 C250 1.385 . S
C255 C254 1.369 . S
C256 C248 1.457 . S
C256 C257 1.372 1_455 S
C256 C261 1.364 . S
C257 H236 0.952 . S
C257 C256 1.372 1_655 S
C257 C258 1.389 . S
C258 H237 0.949 . S
C258 C257 1.389 . S
C258 C259 1.395 . S
C259 C258 1.395 . S
C259 C260 1.363 1_655 S
C260 H238 0.950 . S
C260 C259 1.363 1_455 S
C260 C261 1.379 . S
C261 H239 0.948 . S
C261 C256 1.364 . S
C261 C260 1.379 . S
C262 C231 1.383 . S
C262 C249 1.479 . S
C262 C263 1.398 . S
C263 C228 1.382 . S
C263 H240 0.951 . S
C263 C262 1.398 . S
C264 C265 1.384 . S
C264 H277 0.947 . S
C264 C299 1.382 . S
C265 C264 1.384 . S
C265 C266 1.378 . S
C266 C265 1.378 . S
C266 C267 1.378 . S
C266 H278 0.952 . S
C267 C266 1.378 . S
C267 H279 0.950 . S
C267 C298 1.383 . S
H268 C287 0.947 . S
H269 C288 0.946 . S
H270 C290 0.953 . S
H271 C291 0.945 . S
H272 C293 0.952 . S
H273 C294 0.949 . S
H274 C296 0.950 . S
H275 C297 0.948 . S
H276 C299 0.951 . S
H277 C264 0.947 . S
H278 C266 0.952 . S
H279 C267 0.950 . S
N280 C283 1.382 1_545 S
N280 C285 1.363 . S
N281 C283 1.371 . S
N281 C284 1.372 1_565 S
N282 C284 1.361 . S
N282 C285 1.377 . S
C283 N280 1.382 1_565 S
C283 N281 1.371 . S
C283 C286 1.480 . S
C284 N281 1.372 1_545 S
C284 N282 1.361 . S
C284 C292 1.457 . S
C285 N280 1.363 . S
C285 N282 1.377 . S
C285 C298 1.479 . S
C286 C283 1.480 . S
C286 C287 1.383 . S
C286 C291 1.385 . S
C287 H268 0.947 . S
C287 C286 1.383 . S
C287 C288 1.388 . S
C288 H269 0.946 . S
C288 C287 1.388 . S
C288 C289 1.384 . S
C289 C288 1.384 . S
C289 C290 1.377 . S
C290 H270 0.953 . S
C290 C289 1.377 . S
C290 C291 1.369 . S
C291 H271 0.945 . S
C291 C286 1.385 . S
C291 C290 1.369 . S
C292 C284 1.457 . S
C292 C293 1.372 1_545 S
C292 C297 1.364 . S
C293 H272 0.952 . S
C293 C292 1.372 1_565 S
C293 C294 1.389 . S
C294 H273 0.949 . S
C294 C293 1.389 . S
C294 C295 1.387 1_565 S
C295 C294 1.387 1_545 S
C295 C296 1.372 . S
C296 H274 0.950 . S
C296 C295 1.372 . S
C296 C297 1.379 . S
C297 H275 0.948 . S
C297 C292 1.364 . S
C297 C296 1.379 . S
C298 C267 1.383 . S
C298 C285 1.479 . S
C298 C299 1.398 . S
C299 C264 1.382 . S
C299 H276 0.951 . S
C299 C298 1.398 . S
C300 C301 1.384 . S
C300 H313 0.947 . S
C300 C335 1.382 . S
C301 C300 1.384 . S
C301 C302 1.378 . S
C302 C301 1.378 . S
C302 C303 1.378 . S
C302 H314 0.952 . S
C303 C302 1.378 . S
C303 H315 0.950 . S
C303 C334 1.383 . S
H304 C323 0.947 . S
H305 C324 0.946 . S
H306 C326 0.953 . S
H307 C327 0.945 . S
H308 C329 0.952 . S
H309 C330 0.949 . S
H310 C332 0.950 . S
H311 C333 0.948 . S
H312 C335 0.951 . S
H313 C300 0.947 . S
H314 C302 0.952 . S
H315 C303 0.950 . S
N316 C319 1.382 . S
N316 C321 1.363 . S
N317 C319 1.371 . S
N317 C320 1.372 . S
N318 C320 1.361 . S
N318 C321 1.377 . S
C319 N316 1.382 . S
C319 N317 1.371 . S
C319 C322 1.480 . S
C320 N317 1.372 . S
C320 N318 1.361 . S
C320 C328 1.457 . S
C321 N316 1.363 . S
C321 N318 1.377 . S
C321 C334 1.479 . S
C322 C319 1.480 . S
C322 C323 1.383 . S
C322 C327 1.385 . S
C323 H304 0.947 . S
C323 C322 1.383 . S
C323 C324 1.388 . S
C324 H305 0.946 . S
C324 C323 1.388 . S
C324 C325 1.384 . S
C325 C324 1.384 . S
C325 C326 1.377 . S
C326 H306 0.953 . S
C326 C325 1.377 . S
C326 C327 1.369 . S
C327 H307 0.945 . S
C327 C322 1.385 . S
C327 C326 1.369 . S
C328 C320 1.457 . S
C328 C329 1.372 . S
C328 C333 1.364 . S
C329 H308 0.952 . S
C329 C328 1.372 . S
C329 C330 1.389 . S
C330 H309 0.949 . S
C330 C329 1.389 . S
C330 C331 1.387 . S
C331 C330 1.387 . S
C331 C332 1.372 . S
C332 H310 0.950 . S
C332 C331 1.372 . S
C332 C333 1.379 . S
C333 H311 0.948 . S
C333 C328 1.364 . S
C333 C332 1.379 . S
C334 C303 1.383 . S
C334 C321 1.479 . S
C334 C335 1.398 . S
C335 C300 1.382 . S
C335 H312 0.951 . S
C335 C334 1.398 . S
H336 C354 0.951 . S
H337 C356 0.951 . S
H338 C358 0.950 . S
H339 C359 0.950 . S
H340 C361 0.950 . S
H341 C364 0.950 . S
H342 C365 0.950 . S
H343 C367 0.950 . S
H344 C368 0.950 . S
H345 C369 0.951 . S
H346 C371 0.951 . S
H347 C373 0.950 . S
H348 C374 0.950 . S
H349 C376 0.950 . S
H350 C379 0.950 . S
H351 C380 0.950 . S
H352 C382 0.950 . S
H353 C383 0.950 . S
C354 H336 0.951 . S
C354 C355 1.366 . S
C354 C356 1.388 . S
C355 C354 1.366 . S
C355 C359 1.385 . S
C356 H337 0.951 . S
C356 C354 1.388 . S
C356 C357 1.366 . S
C357 C356 1.366 . S
C357 C358 1.414 . S
C357 C360 1.499 . S
C358 H338 0.950 . S
C358 C357 1.414 . S
C358 C359 1.374 . S
C359 H339 0.950 . S
C359 C355 1.385 . S
C359 C358 1.374 . S
C360 C357 1.499 . S
C360 C361 1.373 . S
C360 C362 1.389 . S
C361 H340 0.950 . S
C361 C360 1.373 . S
C361 C377 1.377 . S
C362 C360 1.389 . S
C362 C363 1.524 . S
C362 C376 1.377 . S
C363 C362 1.524 . S
C363 C364 1.397 . S
C363 C368 1.363 . S
C364 H341 0.950 . S
C364 C363 1.397 . S
C364 C365 1.334 . S
C365 H342 0.950 . S
C365 C364 1.334 . S
C365 C366 1.287 . S
C366 C365 1.287 . S
C366 C367 1.524 . S
C366 H385 0.913 . S
C367 H343 0.950 . S
C367 C366 1.524 . S
C367 C368 1.415 . S
C368 H344 0.950 . S
C368 C363 1.363 . S
C368 C367 1.415 . S
C369 H345 0.951 . S
C369 C370 1.366 . S
C369 C371 1.388 . S
C370 C369 1.366 . S
C370 C374 1.385 . S
C371 H346 0.951 . S
C371 C369 1.388 . S
C371 C372 1.366 . S
C372 C371 1.366 . S
C372 C373 1.414 . S
C372 C375 1.499 . S
C373 H347 0.950 . S
C373 C372 1.414 . S
C373 C374 1.374 . S
C374 H348 0.950 . S
C374 C370 1.385 . S
C374 C373 1.374 . S
C375 C372 1.499 . S
C375 C376 1.373 . S
C375 C377 1.389 . S
C376 H349 0.950 . S
C376 C362 1.377 . S
C376 C375 1.373 . S
C377 C361 1.377 . S
C377 C375 1.389 . S
C377 C378 1.524 . S
C378 C377 1.524 . S
C378 C379 1.397 . S
C378 C383 1.363 . S
C379 H350 0.950 . S
C379 C378 1.397 . S
C379 C380 1.334 . S
C380 H351 0.950 . S
C380 C379 1.334 . S
C380 C381 1.287 . S
C381 C380 1.287 . S
C381 C382 1.524 . S
C381 H384 0.999 . S
C382 H352 0.950 . S
C382 C381 1.524 . S
C382 C383 1.415 . S
C383 H353 0.950 . S
C383 C378 1.363 . S
C383 C382 1.415 . S
H384 C381 0.999 . S
H385 C366 0.913 . S
H386 C404 0.951 . S
H387 C406 0.951 . S
H388 C408 0.950 . S
H389 C409 0.950 . S
H390 C411 0.950 . S
H391 C414 0.950 . S
H392 C415 0.950 . S
H393 C417 0.950 . S
H394 C418 0.950 . S
H395 C419 0.951 . S
H396 C421 0.951 . S
H397 C423 0.950 . S
H398 C424 0.950 . S
H399 C426 0.950 . S
H400 C429 0.950 . S
H401 C430 0.950 . S
H402 C432 0.950 . S
H403 C433 0.950 . S
C404 H386 0.951 . S
C404 C405 1.366 . S
C404 C406 1.388 . S
C405 C404 1.366 . S
C405 C409 1.385 . S
C406 H387 0.951 . S
C406 C404 1.388 . S
C406 C407 1.366 . S
C407 C406 1.366 . S
C407 C408 1.414 . S
C407 C410 1.499 . S
C408 H388 0.950 . S
C408 C407 1.414 . S
C408 C409 1.374 . S
C409 H389 0.950 . S
C409 C405 1.385 . S
C409 C408 1.374 . S
C410 C407 1.499 . S
C410 C411 1.373 . S
C410 C412 1.389 . S
C411 H390 0.950 . S
C411 C410 1.373 . S
C411 C427 1.377 . S
C412 C410 1.389 . S
C412 C413 1.524 . S
C412 C426 1.377 . S
C413 C412 1.524 . S
C413 C414 1.397 . S
C413 C418 1.363 . S
C414 H391 0.950 . S
C414 C413 1.397 . S
C414 C415 1.334 . S
C415 H392 0.950 . S
C415 C414 1.334 . S
C415 C416 1.287 . S
C416 C415 1.287 . S
C416 C417 1.524 . S
C416 H435 0.913 . S
C417 H393 0.950 . S
C417 C416 1.524 . S
C417 C418 1.415 . S
C418 H394 0.950 . S
C418 C413 1.363 . S
C418 C417 1.415 . S
C419 H395 0.951 . S
C419 C420 1.366 . S
C419 C421 1.388 . S
C420 C419 1.366 . S
C420 C424 1.385 . S
C421 H396 0.951 . S
C421 C419 1.388 . S
C421 C422 1.366 . S
C422 C421 1.366 . S
C422 C423 1.414 . S
C422 C425 1.499 . S
C423 H397 0.950 . S
C423 C422 1.414 . S
C423 C424 1.374 . S
C424 H398 0.950 . S
C424 C420 1.385 . S
C424 C423 1.374 . S
C425 C422 1.499 . S
C425 C426 1.373 . S
C425 C427 1.389 . S
C426 H399 0.950 . S
C426 C412 1.377 . S
C426 C425 1.373 . S
C427 C411 1.377 . S
C427 C425 1.389 . S
C427 C428 1.524 . S
C428 C427 1.524 . S
C428 C429 1.397 . S
C428 C433 1.363 . S
C429 H400 0.950 . S
C429 C428 1.397 . S
C429 C430 1.334 . S
C430 H401 0.950 . S
C430 C429 1.334 . S
C430 C431 1.287 . S
C431 C430 1.287 . S
C431 C432 1.524 . S
C431 H434 0.999 . S
C432 H402 0.950 . S
C432 C431 1.524 . S
C432 C433 1.415 . S
C433 H403 0.950 . S
C433 C428 1.363 . S
C433 C432 1.415 . S
H434 C431 0.999 . S
H435 C416 0.913 . S
H436 C454 0.951 . S
H437 C456 0.951 . S
H438 C458 0.950 . S
H439 C459 0.950 . S
H440 C461 0.950 . S
H441 C464 0.950 . S
H442 C465 0.950 . S
H443 C467 0.950 . S
H444 C468 0.950 . S
H445 C469 0.951 . S
H446 C471 0.951 . S
H447 C473 0.950 . S
H448 C474 0.950 . S
H449 C476 0.950 . S
H450 C479 0.950 . S
H451 C480 0.950 . S
H452 C482 0.950 . S
H453 C483 0.950 . S
C454 H436 0.951 . S
C454 C455 1.366 . S
C454 C456 1.388 . S
C455 C454 1.366 . S
C455 C459 1.385 . S
C456 H437 0.951 . S
C456 C454 1.388 . S
C456 C457 1.366 . S
C457 C456 1.366 . S
C457 C458 1.414 . S
C457 C460 1.499 . S
C458 H438 0.950 . S
C458 C457 1.414 . S
C458 C459 1.374 . S
C459 H439 0.950 . S
C459 C455 1.385 . S
C459 C458 1.374 . S
C460 C457 1.499 . S
C460 C461 1.373 . S
C460 C462 1.389 . S
C461 H440 0.950 . S
C461 C460 1.373 . S
C461 C477 1.377 . S
C462 C460 1.389 . S
C462 C463 1.524 . S
C462 C476 1.377 . S
C463 C462 1.524 . S
C463 C464 1.397 . S
C463 C468 1.363 . S
C464 H441 0.950 . S
C464 C463 1.397 . S
C464 C465 1.334 . S
C465 H442 0.950 . S
C465 C464 1.334 . S
C465 C466 1.287 . S
C466 C465 1.287 . S
C466 C467 1.524 . S
C466 H485 0.913 . S
C467 H443 0.950 . S
C467 C466 1.524 . S
C467 C468 1.415 . S
C468 H444 0.950 . S
C468 C463 1.363 . S
C468 C467 1.415 . S
C469 H445 0.951 . S
C469 C470 1.366 . S
C469 C471 1.388 . S
C470 C469 1.366 . S
C470 C474 1.385 . S
C471 H446 0.951 . S
C471 C469 1.388 . S
C471 C472 1.366 . S
C472 C471 1.366 . S
C472 C473 1.414 . S
C472 C475 1.499 . S
C473 H447 0.950 . S
C473 C472 1.414 . S
C473 C474 1.374 . S
C474 H448 0.950 . S
C474 C470 1.385 . S
C474 C473 1.374 . S
C475 C472 1.499 . S
C475 C476 1.373 . S
C475 C477 1.389 . S
C476 H449 0.950 . S
C476 C462 1.377 . S
C476 C475 1.373 . S
C477 C461 1.377 . S
C477 C475 1.389 . S
C477 C478 1.524 . S
C478 C477 1.524 . S
C478 C479 1.397 . S
C478 C483 1.363 . S
C479 H450 0.950 . S
C479 C478 1.397 . S
C479 C480 1.334 . S
C480 H451 0.950 . S
C480 C479 1.334 . S
C480 C481 1.287 . S
C481 C480 1.287 . S
C481 C482 1.524 . S
C481 H484 0.999 . S
C482 H452 0.950 . S
C482 C481 1.524 . S
C482 C483 1.415 . S
C483 H453 0.950 . S
C483 C478 1.363 . S
C483 C482 1.415 . S
H484 C481 0.999 . S
H485 C466 0.913 . S
H486 C504 0.951 . S
H487 C506 0.951 . S
H488 C508 0.950 . S
H489 C509 0.950 . S
H490 C511 0.950 . S
H491 C514 0.950 . S
H492 C515 0.950 . S
H493 C517 0.950 . S
H494 C518 0.950 . S
H495 C519 0.951 . S
H496 C521 0.951 . S
H497 C523 0.950 . S
H498 C524 0.950 . S
H499 C526 0.950 . S
H500 C529 0.950 . S
H501 C530 0.950 . S
H502 C532 0.950 . S
H503 C533 0.950 . S
C504 H486 0.951 . S
C504 C505 1.366 . S
C504 C506 1.388 . S
C505 C504 1.366 . S
C505 C509 1.385 . S
C506 H487 0.951 . S
C506 C504 1.388 . S
C506 C507 1.366 . S
C507 C506 1.366 . S
C507 C508 1.414 . S
C507 C510 1.499 . S
C508 H488 0.950 . S
C508 C507 1.414 . S
C508 C509 1.374 . S
C509 H489 0.950 . S
C509 C505 1.385 . S
C509 C508 1.374 . S
C510 C507 1.499 . S
C510 C511 1.373 . S
C510 C512 1.389 . S
C511 H490 0.950 . S
C511 C510 1.373 . S
C511 C527 1.377 . S
C512 C510 1.389 . S
C512 C513 1.524 . S
C512 C526 1.377 . S
C513 C512 1.524 . S
C513 C514 1.397 . S
C513 C518 1.363 . S
C514 H491 0.950 . S
C514 C513 1.397 . S
C514 C515 1.334 . S
C515 H492 0.950 . S
C515 C514 1.334 . S
C515 C516 1.287 . S
C516 C515 1.287 . S
C516 C517 1.524 . S
C516 H535 0.913 . S
C517 H493 0.950 . S
C517 C516 1.524 . S
C517 C518 1.415 . S
C518 H494 0.950 . S
C518 C513 1.363 . S
C518 C517 1.415 . S
C519 H495 0.951 . S
C519 C520 1.366 . S
C519 C521 1.388 . S
C520 C519 1.366 . S
C520 C524 1.385 . S
C521 H496 0.951 . S
C521 C519 1.388 . S
C521 C522 1.366 . S
C522 C521 1.366 . S
C522 C523 1.414 . S
C522 C525 1.499 . S
C523 H497 0.950 . S
C523 C522 1.414 . S
C523 C524 1.374 . S
C524 H498 0.950 . S
C524 C520 1.385 . S
C524 C523 1.374 . S
C525 C522 1.499 . S
C525 C526 1.373 . S
C525 C527 1.389 . S
C526 H499 0.950 . S
C526 C512 1.377 . S
C526 C525 1.373 . S
C527 C511 1.377 . S
C527 C525 1.389 . S
C527 C528 1.524 . S
C528 C527 1.524 . S
C528 C529 1.397 . S
C528 C533 1.363 . S
C529 H500 0.950 . S
C529 C528 1.397 . S
C529 C530 1.334 . S
C530 H501 0.950 . S
C530 C529 1.334 . S
C530 C531 1.287 . S
C531 C530 1.287 . S
C531 C532 1.524 . S
C531 H534 0.999 . S
C532 H502 0.950 . S
C532 C531 1.524 . S
C532 C533 1.415 . S
C533 H503 0.950 . S
C533 C528 1.363 . S
C533 C532 1.415 . S
H534 C531 0.999 . S
H535 C516 0.913 . S
H536 C554 0.951 . S
H537 C556 0.951 . S
H538 C558 0.950 . S
H539 C559 0.950 . S
H540 C561 0.950 . S
H541 C564 0.950 . S
H542 C565 0.950 . S
H543 C567 0.950 . S
H544 C568 0.950 . S
H545 C569 0.951 . S
H546 C571 0.951 . S
H547 C573 0.950 . S
H548 C574 0.950 . S
H549 C576 0.950 . S
H550 C579 0.950 . S
H551 C580 0.950 . S
H552 C582 0.950 . S
H553 C583 0.950 . S
C554 H536 0.951 . S
C554 C555 1.366 . S
C554 C556 1.388 . S
C555 C554 1.366 . S
C555 C559 1.385 . S
C556 H537 0.951 . S
C556 C554 1.388 . S
C556 C557 1.366 . S
C557 C556 1.366 . S
C557 C558 1.414 . S
C557 C560 1.499 . S
C558 H538 0.950 . S
C558 C557 1.414 . S
C558 C559 1.374 . S
C559 H539 0.950 . S
C559 C555 1.385 . S
C559 C558 1.374 . S
C560 C557 1.499 . S
C560 C561 1.373 . S
C560 C562 1.389 . S
C561 H540 0.950 . S
C561 C560 1.373 . S
C561 C577 1.377 . S
C562 C560 1.389 . S
C562 C563 1.524 . S
C562 C576 1.377 . S
C563 C562 1.524 . S
C563 C564 1.397 . S
C563 C568 1.363 . S
C564 H541 0.950 . S
C564 C563 1.397 . S
C564 C565 1.334 . S
C565 H542 0.950 . S
C565 C564 1.334 . S
C565 C566 1.287 . S
C566 C565 1.287 . S
C566 C567 1.524 . S
C566 H585 0.913 . S
C567 H543 0.950 . S
C567 C566 1.524 . S
C567 C568 1.415 . S
C568 H544 0.950 . S
C568 C563 1.363 . S
C568 C567 1.415 . S
C569 H545 0.951 . S
C569 C570 1.366 . S
C569 C571 1.388 . S
C570 C569 1.366 . S
C570 C574 1.385 . S
C571 H546 0.951 . S
C571 C569 1.388 . S
C571 C572 1.366 . S
C572 C571 1.366 . S
C572 C573 1.414 . S
C572 C575 1.499 . S
C573 H547 0.950 . S
C573 C572 1.414 . S
C573 C574 1.374 . S
C574 H548 0.950 . S
C574 C570 1.385 . S
C574 C573 1.374 . S
C575 C572 1.499 . S
C575 C576 1.373 . S
C575 C577 1.389 . S
C576 H549 0.950 . S
C576 C562 1.377 . S
C576 C575 1.373 . S
C577 C561 1.377 . S
C577 C575 1.389 . S
C577 C578 1.524 . S
C578 C577 1.524 . S
C578 C579 1.397 . S
C578 C583 1.363 . S
C579 H550 0.950 . S
C579 C578 1.397 . S
C579 C580 1.334 . S
C580 H551 0.950 . S
C580 C579 1.334 . S
C580 C581 1.287 . S
C581 C580 1.287 . S
C581 C582 1.524 . S
C581 H584 0.999 . S
C582 H552 0.950 . S
C582 C581 1.524 . S
C582 C583 1.415 . S
C583 H553 0.950 . S
C583 C578 1.363 . S
C583 C582 1.415 . S
H584 C581 0.999 . S
H585 C566 0.913 . S
H586 C604 0.951 . S
H587 C606 0.951 . S
H588 C608 0.950 . S
H589 C609 0.950 . S
H590 C611 0.950 . S
H591 C614 0.950 . S
H592 C615 0.950 . S
H593 C617 0.950 . S
H594 C618 0.950 . S
H595 C619 0.951 . S
H596 C621 0.951 . S
H597 C623 0.950 . S
H598 C624 0.950 . S
H599 C626 0.950 . S
H600 C629 0.950 . S
H601 C630 0.950 . S
H602 C632 0.950 . S
H603 C633 0.950 . S
C604 H586 0.951 . S
C604 C605 1.366 . S
C604 C606 1.388 . S
C605 C604 1.366 . S
C605 C609 1.385 . S
C606 H587 0.951 . S
C606 C604 1.388 . S
C606 C607 1.366 . S
C607 C606 1.366 . S
C607 C608 1.414 . S
C607 C610 1.499 . S
C608 H588 0.950 . S
C608 C607 1.414 . S
C608 C609 1.374 . S
C609 H589 0.950 . S
C609 C605 1.385 . S
C609 C608 1.374 . S
C610 C607 1.499 . S
C610 C611 1.373 . S
C610 C612 1.389 . S
C611 H590 0.950 . S
C611 C610 1.373 . S
C611 C627 1.377 . S
C612 C610 1.389 . S
C612 C613 1.524 . S
C612 C626 1.377 . S
C613 C612 1.524 . S
C613 C614 1.397 . S
C613 C618 1.363 . S
C614 H591 0.950 . S
C614 C613 1.397 . S
C614 C615 1.334 . S
C615 H592 0.950 . S
C615 C614 1.334 . S
C615 C616 1.287 . S
C616 C615 1.287 . S
C616 C617 1.524 . S
C616 H635 0.913 . S
C617 H593 0.950 . S
C617 C616 1.524 . S
C617 C618 1.415 . S
C618 H594 0.950 . S
C618 C613 1.363 . S
C618 C617 1.415 . S
C619 H595 0.951 . S
C619 C620 1.366 . S
C619 C621 1.388 . S
C620 C619 1.366 . S
C620 C624 1.385 . S
C621 H596 0.951 . S
C621 C619 1.388 . S
C621 C622 1.366 . S
C622 C621 1.366 . S
C622 C623 1.414 . S
C622 C625 1.499 . S
C623 H597 0.950 . S
C623 C622 1.414 . S
C623 C624 1.374 . S
C624 H598 0.950 . S
C624 C620 1.385 . S
C624 C623 1.374 . S
C625 C622 1.499 . S
C625 C626 1.373 . S
C625 C627 1.389 . S
C626 H599 0.950 . S
C626 C612 1.377 . S
C626 C625 1.373 . S
C627 C611 1.377 . S
C627 C625 1.389 . S
C627 C628 1.524 . S
C628 C627 1.524 . S
C628 C629 1.397 . S
C628 C633 1.363 . S
C629 H600 0.950 . S
C629 C628 1.397 . S
C629 C630 1.334 . S
C630 H601 0.950 . S
C630 C629 1.334 . S
C630 C631 1.287 . S
C631 C630 1.287 . S
C631 C632 1.524 . S
C631 H634 0.999 . S
C632 H602 0.950 . S
C632 C631 1.524 . S
C632 C633 1.415 . S
C633 H603 0.950 . S
C633 C628 1.363 . S
C633 C632 1.415 . S
H634 C631 0.999 . S
H635 C616 0.913 . S
H636 C654 0.951 . S
H637 C656 0.951 . S
H638 C658 0.950 . S
H639 C659 0.950 . S
H640 C661 0.950 . S
H641 C664 0.950 . S
H642 C665 0.950 . S
H643 C667 0.950 . S
H644 C668 0.950 . S
H645 C669 0.951 . S
H646 C671 0.951 . S
H647 C673 0.950 . S
H648 C674 0.950 . S
H649 C676 0.950 . S
H650 C679 0.950 . S
H651 C680 0.950 . S
H652 C682 0.950 . S
H653 C683 0.950 . S
C654 H636 0.951 . S
C654 C655 1.366 . S
C654 C656 1.388 . S
C655 C654 1.366 . S
C655 C659 1.385 . S
C656 H637 0.951 . S
C656 C654 1.388 . S
C656 C657 1.366 . S
C657 C656 1.366 . S
C657 C658 1.414 . S
C657 C660 1.499 . S
C658 H638 0.950 . S
C658 C657 1.414 . S
C658 C659 1.374 . S
C659 H639 0.950 . S
C659 C655 1.385 . S
C659 C658 1.374 . S
C660 C657 1.499 . S
C660 C661 1.373 . S
C660 C662 1.389 . S
C661 H640 0.950 . S
C661 C660 1.373 . S
C661 C677 1.377 . S
C662 C660 1.389 . S
C662 C663 1.524 . S
C662 C676 1.377 . S
C663 C662 1.524 . S
C663 C664 1.397 . S
C663 C668 1.363 . S
C664 H641 0.950 . S
C664 C663 1.397 . S
C664 C665 1.334 . S
C665 H642 0.950 . S
C665 C664 1.334 . S
C665 C666 1.287 . S
C666 C665 1.287 . S
C666 C667 1.524 . S
C666 H685 0.913 . S
C667 H643 0.950 . S
C667 C666 1.524 . S
C667 C668 1.415 . S
C668 H644 0.950 . S
C668 C663 1.363 . S
C668 C667 1.415 . S
C669 H645 0.951 . S
C669 C670 1.366 . S
C669 C671 1.388 . S
C670 C669 1.366 . S
C670 C674 1.385 . S
C671 H646 0.951 . S
C671 C669 1.388 . S
C671 C672 1.366 . S
C672 C671 1.366 . S
C672 C673 1.414 . S
C672 C675 1.499 . S
C673 H647 0.950 . S
C673 C672 1.414 . S
C673 C674 1.374 . S
C674 H648 0.950 . S
C674 C670 1.385 . S
C674 C673 1.374 . S
C675 C672 1.499 . S
C675 C676 1.373 . S
C675 C677 1.389 . S
C676 H649 0.950 . S
C676 C662 1.377 . S
C676 C675 1.373 . S
C677 C661 1.377 . S
C677 C675 1.389 . S
C677 C678 1.524 . S
C678 C677 1.524 . S
C678 C679 1.397 . S
C678 C683 1.363 . S
C679 H650 0.950 . S
C679 C678 1.397 . S
C679 C680 1.334 . S
C680 H651 0.950 . S
C680 C679 1.334 . S
C680 C681 1.287 . S
C681 C680 1.287 . S
C681 C682 1.524 . S
C681 H684 0.999 . S
C682 H652 0.950 . S
C682 C681 1.524 . S
C682 C683 1.415 . S
C683 H653 0.950 . S
C683 C678 1.363 . S
C683 C682 1.415 . S
H684 C681 0.999 . S
H685 C666 0.913 . S
H686 C704 0.951 . S
H687 C706 0.951 . S
H688 C708 0.950 . S
H689 C709 0.950 . S
H690 C711 0.950 . S
H691 C714 0.950 . S
H692 C715 0.950 . S
H693 C717 0.950 . S
H694 C718 0.950 . S
H695 C719 0.951 . S
H696 C721 0.951 . S
H697 C723 0.950 . S
H698 C724 0.950 . S
H699 C726 0.950 . S
H700 C729 0.950 . S
H701 C730 0.950 . S
H702 C732 0.950 . S
H703 C733 0.950 . S
C704 H686 0.951 . S
C704 C705 1.366 . S
C704 C706 1.388 . S
C705 C704 1.366 . S
C705 C709 1.385 . S
C706 H687 0.951 . S
C706 C704 1.388 . S
C706 C707 1.366 . S
C707 C706 1.366 . S
C707 C708 1.414 . S
C707 C710 1.499 . S
C708 H688 0.950 . S
C708 C707 1.414 . S
C708 C709 1.374 . S
C709 H689 0.950 . S
C709 C705 1.385 . S
C709 C708 1.374 . S
C710 C707 1.499 . S
C710 C711 1.373 . S
C710 C712 1.389 . S
C711 H690 0.950 . S
C711 C710 1.373 . S
C711 C727 1.377 . S
C712 C710 1.389 . S
C712 C713 1.524 . S
C712 C726 1.377 . S
C713 C712 1.524 . S
C713 C714 1.397 . S
C713 C718 1.363 . S
C714 H691 0.950 . S
C714 C713 1.397 . S
C714 C715 1.334 . S
C715 H692 0.950 . S
C715 C714 1.334 . S
C715 C716 1.287 . S
C716 C715 1.287 . S
C716 C717 1.524 . S
C716 H735 0.913 . S
C717 H693 0.950 . S
C717 C716 1.524 . S
C717 C718 1.415 . S
C718 H694 0.950 . S
C718 C713 1.363 . S
C718 C717 1.415 . S
C719 H695 0.951 . S
C719 C720 1.366 . S
C719 C721 1.388 . S
C720 C719 1.366 . S
C720 C724 1.385 . S
C721 H696 0.951 . S
C721 C719 1.388 . S
C721 C722 1.366 . S
C722 C721 1.366 . S
C722 C723 1.414 . S
C722 C725 1.499 . S
C723 H697 0.950 . S
C723 C722 1.414 . S
C723 C724 1.374 . S
C724 H698 0.950 . S
C724 C720 1.385 . S
C724 C723 1.374 . S
C725 C722 1.499 . S
C725 C726 1.373 . S
C725 C727 1.389 . S
C726 H699 0.950 . S
C726 C712 1.377 . S
C726 C725 1.373 . S
C727 C711 1.377 . S
C727 C725 1.389 . S
C727 C728 1.524 . S
C728 C727 1.524 . S
C728 C729 1.397 . S
C728 C733 1.363 . S
C729 H700 0.950 . S
C729 C728 1.397 . S
C729 C730 1.334 . S
C730 H701 0.950 . S
C730 C729 1.334 . S
C730 C731 1.287 . S
C731 C730 1.287 . S
C731 C732 1.524 . S
C731 H734 0.999 . S
C732 H702 0.950 . S
C732 C731 1.524 . S
C732 C733 1.415 . S
C733 H703 0.950 . S
C733 C728 1.363 . S
C733 C732 1.415 . S
H734 C731 0.999 . S
H735 C716 0.913 . S
H736 C754 0.951 . S
H737 C756 0.951 . S
H738 C758 0.950 . S
H739 C759 0.950 . S
H740 C761 0.950 . S
H741 C764 0.950 . S
H742 C765 0.950 . S
H743 C767 0.950 . S
H744 C768 0.950 . S
H745 C769 0.951 . S
H746 C771 0.951 . S
H747 C773 0.950 . S
H748 C774 0.950 . S
H749 C776 0.950 . S
H750 C779 0.950 . S
H751 C780 0.950 . S
H752 C782 0.950 . S
H753 C783 0.950 . S
C754 H736 0.951 . S
C754 C755 1.366 . S
C754 C756 1.388 . S
C755 C754 1.366 . S
C755 C759 1.385 . S
C756 H737 0.951 . S
C756 C754 1.388 . S
C756 C757 1.366 . S
C757 C756 1.366 . S
C757 C758 1.414 . S
C757 C760 1.499 . S
C758 H738 0.950 . S
C758 C757 1.414 . S
C758 C759 1.374 . S
C759 H739 0.950 . S
C759 C755 1.385 . S
C759 C758 1.374 . S
C760 C757 1.499 . S
C760 C761 1.373 . S
C760 C762 1.389 . S
C761 H740 0.950 . S
C761 C760 1.373 . S
C761 C777 1.377 . S
C762 C760 1.389 . S
C762 C763 1.524 . S
C762 C776 1.377 . S
C763 C762 1.524 . S
C763 C764 1.397 . S
C763 C768 1.363 . S
C764 H741 0.950 . S
C764 C763 1.397 . S
C764 C765 1.334 . S
C765 H742 0.950 . S
C765 C764 1.334 . S
C765 C766 1.287 . S
C766 C765 1.287 . S
C766 C767 1.524 . S
C766 H785 0.913 . S
C767 H743 0.950 . S
C767 C766 1.524 . S
C767 C768 1.415 . S
C768 H744 0.950 . S
C768 C763 1.363 . S
C768 C767 1.415 . S
C769 H745 0.951 . S
C769 C770 1.366 . S
C769 C771 1.388 . S
C770 C769 1.366 . S
C770 C774 1.385 . S
C771 H746 0.951 . S
C771 C769 1.388 . S
C771 C772 1.366 . S
C772 C771 1.366 . S
C772 C773 1.414 . S
C772 C775 1.499 . S
C773 H747 0.950 . S
C773 C772 1.414 . S
C773 C774 1.374 . S
C774 H748 0.950 . S
C774 C770 1.385 . S
C774 C773 1.374 . S
C775 C772 1.499 . S
C775 C776 1.373 . S
C775 C777 1.389 . S
C776 H749 0.950 . S
C776 C762 1.377 . S
C776 C775 1.373 . S
C777 C761 1.377 . S
C777 C775 1.389 . S
C777 C778 1.524 . S
C778 C777 1.524 . S
C778 C779 1.397 . S
C778 C783 1.363 . S
C779 H750 0.950 . S
C779 C778 1.397 . S
C779 C780 1.334 . S
C780 H751 0.950 . S
C780 C779 1.334 . S
C780 C781 1.287 . S
C781 C780 1.287 . S
C781 C782 1.524 . S
C781 H784 0.999 . S
C782 H752 0.950 . S
C782 C781 1.524 . S
C782 C783 1.415 . S
C783 H753 0.950 . S
C783 C778 1.363 . S
C783 C782 1.415 . S
H784 C781 0.999 . S
H785 C766 0.913 . S
H786 C804 0.951 . S
H787 C806 0.951 . S
H788 C808 0.950 . S
H789 C809 0.950 . S
H790 C811 0.950 . S
H791 C814 0.950 . S
H792 C815 0.950 . S
H793 C817 0.950 . S
H794 C818 0.950 . S
H795 C819 0.951 . S
H796 C821 0.951 . S
H797 C823 0.950 . S
H798 C824 0.950 . S
H799 C826 0.950 . S
H800 C829 0.950 . S
H801 C830 0.950 . S
H802 C832 0.950 . S
H803 C833 0.950 . S
C804 H786 0.951 . S
C804 C805 1.366 . S
C804 C806 1.388 . S
C805 C804 1.366 . S
C805 C809 1.385 . S
C806 H787 0.951 . S
C806 C804 1.388 . S
C806 C807 1.366 . S
C807 C806 1.366 . S
C807 C808 1.414 . S
C807 C810 1.499 . S
C808 H788 0.950 . S
C808 C807 1.414 . S
C808 C809 1.374 . S
C809 H789 0.950 . S
C809 C805 1.385 . S
C809 C808 1.374 . S
C810 C807 1.499 . S
C810 C811 1.373 . S
C810 C812 1.389 . S
C811 H790 0.950 . S
C811 C810 1.373 . S
C811 C827 1.377 . S
C812 C810 1.389 . S
C812 C813 1.524 . S
C812 C826 1.377 . S
C813 C812 1.524 . S
C813 C814 1.397 . S
C813 C818 1.363 . S
C814 H791 0.950 . S
C814 C813 1.397 . S
C814 C815 1.334 . S
C815 H792 0.950 . S
C815 C814 1.334 . S
C815 C816 1.287 . S
C816 C815 1.287 . S
C816 C817 1.524 . S
C816 H835 0.913 . S
C817 H793 0.950 . S
C817 C816 1.524 . S
C817 C818 1.415 . S
C818 H794 0.950 . S
C818 C813 1.363 . S
C818 C817 1.415 . S
C819 H795 0.951 . S
C819 C820 1.366 . S
C819 C821 1.388 . S
C820 C819 1.366 . S
C820 C824 1.385 . S
C821 H796 0.951 . S
C821 C819 1.388 . S
C821 C822 1.366 . S
C822 C821 1.366 . S
C822 C823 1.414 . S
C822 C825 1.499 . S
C823 H797 0.950 . S
C823 C822 1.414 . S
C823 C824 1.374 . S
C824 H798 0.950 . S
C824 C820 1.385 . S
C824 C823 1.374 . S
C825 C822 1.499 . S
C825 C826 1.373 . S
C825 C827 1.389 . S
C826 H799 0.950 . S
C826 C812 1.377 . S
C826 C825 1.373 . S
C827 C811 1.377 . S
C827 C825 1.389 . S
C827 C828 1.524 . S
C828 C827 1.524 . S
C828 C829 1.397 . S
C828 C833 1.363 . S
C829 H800 0.950 . S
C829 C828 1.397 . S
C829 C830 1.334 . S
C830 H801 0.950 . S
C830 C829 1.334 . S
C830 C831 1.287 . S
C831 C830 1.287 . S
C831 C832 1.524 . S
C831 H834 0.999 . S
C832 H802 0.950 . S
C832 C831 1.524 . S
C832 C833 1.415 . S
C833 H803 0.950 . S
C833 C828 1.363 . S
C833 C832 1.415 . S
H834 C831 0.999 . S
H835 C816 0.913 . S
H836 C854 0.951 . S
H837 C856 0.951 . S
H838 C858 0.950 . S
H839 C859 0.950 . S
H840 C861 0.950 . S
H841 C864 0.950 . S
H842 C865 0.950 . S
H843 C867 0.950 . S
H844 C868 0.950 . S
H845 C869 0.951 . S
H846 C871 0.951 . S
H847 C873 0.950 . S
H848 C874 0.950 . S
H849 C876 0.950 . S
H850 C879 0.950 . S
H851 C880 0.950 . S
H852 C882 0.950 . S
H853 C883 0.950 . S
C854 H836 0.951 . S
C854 C855 1.366 . S
C854 C856 1.388 . S
C855 C854 1.366 . S
C855 C859 1.385 . S
C856 H837 0.951 . S
C856 C854 1.388 . S
C856 C857 1.366 . S
C857 C856 1.366 . S
C857 C858 1.414 . S
C857 C860 1.499 . S
C858 H838 0.950 . S
C858 C857 1.414 . S
C858 C859 1.374 . S
C859 H839 0.950 . S
C859 C855 1.385 . S
C859 C858 1.374 . S
C860 C857 1.499 . S
C860 C861 1.373 . S
C860 C862 1.389 . S
C861 H840 0.950 . S
C861 C860 1.373 . S
C861 C877 1.377 . S
C862 C860 1.389 . S
C862 C863 1.524 . S
C862 C876 1.377 . S
C863 C862 1.524 . S
C863 C864 1.397 . S
C863 C868 1.363 . S
C864 H841 0.950 . S
C864 C863 1.397 . S
C864 C865 1.334 . S
C865 H842 0.950 . S
C865 C864 1.334 . S
C865 C866 1.287 . S
C866 C865 1.287 . S
C866 C867 1.524 . S
C866 H885 0.913 . S
C867 H843 0.950 . S
C867 C866 1.524 . S
C867 C868 1.415 . S
C868 H844 0.950 . S
C868 C863 1.363 . S
C868 C867 1.415 . S
C869 H845 0.951 . S
C869 C870 1.366 . S
C869 C871 1.388 . S
C870 C869 1.366 . S
C870 C874 1.385 . S
C871 H846 0.951 . S
C871 C869 1.388 . S
C871 C872 1.366 . S
C872 C871 1.366 . S
C872 C873 1.414 . S
C872 C875 1.499 . S
C873 H847 0.950 . S
C873 C872 1.414 . S
C873 C874 1.374 . S
C874 H848 0.950 . S
C874 C870 1.385 . S
C874 C873 1.374 . S
C875 C872 1.499 . S
C875 C876 1.373 . S
C875 C877 1.389 . S
C876 H849 0.950 . S
C876 C862 1.377 . S
C876 C875 1.373 . S
C877 C861 1.377 . S
C877 C875 1.389 . S
C877 C878 1.524 . S
C878 C877 1.524 . S
C878 C879 1.397 . S
C878 C883 1.363 . S
C879 H850 0.950 . S
C879 C878 1.397 . S
C879 C880 1.334 . S
C880 H851 0.950 . S
C880 C879 1.334 . S
C880 C881 1.287 . S
C881 C880 1.287 . S
C881 C882 1.524 . S
C881 H884 0.999 . S
C882 H852 0.950 . S
C882 C881 1.524 . S
C882 C883 1.415 . S
C883 H853 0.950 . S
C883 C878 1.363 . S
C883 C882 1.415 . S
H884 C881 0.999 . S
H885 C866 0.913 . S
H886 C904 0.951 . S
H887 C906 0.951 . S
H888 C908 0.950 . S
H889 C909 0.950 . S
H890 C911 0.950 . S
H891 C914 0.950 . S
H892 C915 0.950 . S
H893 C917 0.950 . S
H894 C918 0.950 . S
H895 C919 0.951 . S
H896 C921 0.951 . S
H897 C923 0.950 . S
H898 C924 0.950 . S
H899 C926 0.950 . S
H900 C929 0.950 . S
H901 C930 0.950 . S
H902 C932 0.950 . S
H903 C933 0.950 . S
C904 H886 0.951 . S
C904 C905 1.366 . S
C904 C906 1.388 . S
C905 C904 1.366 . S
C905 C909 1.385 . S
C906 H887 0.951 . S
C906 C904 1.388 . S
C906 C907 1.366 . S
C907 C906 1.366 . S
C907 C908 1.414 . S
C907 C910 1.499 . S
C908 H888 0.950 . S
C908 C907 1.414 . S
C908 C909 1.374 . S
C909 H889 0.950 . S
C909 C905 1.385 . S
C909 C908 1.374 . S
C910 C907 1.499 . S
C910 C911 1.373 . S
C910 C912 1.389 . S
C911 H890 0.950 . S
C911 C910 1.373 . S
C911 C927 1.377 . S
C912 C910 1.389 . S
C912 C913 1.524 . S
C912 C926 1.377 . S
C913 C912 1.524 . S
C913 C914 1.397 . S
C913 C918 1.363 . S
C914 H891 0.950 . S
C914 C913 1.397 . S
C914 C915 1.334 . S
C915 H892 0.950 . S
C915 C914 1.334 . S
C915 C916 1.287 . S
C916 C915 1.287 . S
C916 C917 1.524 . S
C916 H935 0.913 . S
C917 H893 0.950 . S
C917 C916 1.524 . S
C917 C918 1.415 . S
C918 H894 0.950 . S
C918 C913 1.363 . S
C918 C917 1.415 . S
C919 H895 0.951 . S
C919 C920 1.366 . S
C919 C921 1.388 . S
C920 C919 1.366 . S
C920 C924 1.385 . S
C921 H896 0.951 . S
C921 C919 1.388 . S
C921 C922 1.366 . S
C922 C921 1.366 . S
C922 C923 1.414 . S
C922 C925 1.499 . S
C923 H897 0.950 . S
C923 C922 1.414 . S
C923 C924 1.374 . S
C924 H898 0.950 . S
C924 C920 1.385 . S
C924 C923 1.374 . S
C925 C922 1.499 . S
C925 C926 1.373 . S
C925 C927 1.389 . S
C926 H899 0.950 . S
C926 C912 1.377 . S
C926 C925 1.373 . S
C927 C911 1.377 . S
C927 C925 1.389 . S
C927 C928 1.524 . S
C928 C927 1.524 . S
C928 C929 1.397 . S
C928 C933 1.363 . S
C929 H900 0.950 . S
C929 C928 1.397 . S
C929 C930 1.334 . S
C930 H901 0.950 . S
C930 C929 1.334 . S
C930 C931 1.287 . S
C931 C930 1.287 . S
C931 C932 1.524 . S
C931 H934 0.999 . S
C932 H902 0.950 . S
C932 C931 1.524 . S
C932 C933 1.415 . S
C933 H903 0.950 . S
C933 C928 1.363 . S
C933 C932 1.415 . S
H934 C931 0.999 . S
H935 C916 0.913 . S
H936 C954 0.951 . S
H937 C956 0.951 . S
H938 C958 0.950 . S
H939 C959 0.950 . S
H940 C961 0.950 . S
H941 C964 0.950 . S
H942 C965 0.950 . S
H943 C967 0.950 . S
H944 C968 0.950 . S
H945 C969 0.951 . S
H946 C971 0.951 1_554 S
H947 C973 0.956 . S
H948 C974 0.950 . S
H949 C976 0.950 . S
H950 C979 0.950 . S
H951 C980 0.950 . S
H952 C982 0.950 . S
H953 C983 0.950 . S
C954 H936 0.951 . S
C954 C955 1.366 . S
C954 C956 1.388 . S
C955 C954 1.366 . S
C955 C959 1.385 1_455 S
C956 H937 0.951 . S
C956 C954 1.388 . S
C956 C957 1.366 . S
C957 C956 1.366 . S
C957 C958 1.414 1_455 S
C957 C960 1.499 . S
C958 H938 0.950 . S
C958 C957 1.414 1_655 S
C958 C959 1.374 . S
C959 H939 0.950 . S
C959 C955 1.385 1_655 S
C959 C958 1.374 . S
C960 C957 1.499 . S
C960 C961 1.373 . S
C960 C962 1.389 . S
C961 H940 0.950 . S
C961 C960 1.373 . S
C961 C977 1.377 . S
C962 C960 1.389 . S
C962 C963 1.524 . S
C962 C976 1.377 . S
C963 C962 1.524 . S
C963 C964 1.397 1_455 S
C963 C968 1.363 . S
C964 H941 0.950 . S
C964 C963 1.397 1_655 S
C964 C965 1.334 . S
C965 H942 0.950 . S
C965 C964 1.334 . S
C965 C966 1.287 1_655 S
C966 C965 1.287 1_455 S
C966 C967 1.524 . S
C966 H985 0.913 . S
C967 H943 0.950 . S
C967 C966 1.524 . S
C967 C968 1.415 . S
C968 H944 0.950 . S
C968 C963 1.363 . S
C968 C967 1.415 . S
C969 H945 0.951 . S
C969 C970 1.366 1_655 S
C969 C971 1.388 . S
C970 C969 1.366 1_455 S
C970 C974 1.385 . S
C971 H946 0.951 1_556 S
C971 C969 1.388 . S
C971 C972 1.366 1_656 S
C972 C971 1.366 1_454 S
C972 C973 1.419 . S
C972 C975 1.499 . S
C973 H947 0.956 . S
C973 C972 1.419 . S
C973 C974 1.364 1_554 S
C974 H948 0.950 . S
C974 C970 1.385 . S
C974 C973 1.364 1_556 S
C975 C972 1.499 . S
C975 C976 1.373 . S
C975 C977 1.389 . S
C976 H949 0.950 . S
C976 C962 1.377 . S
C976 C975 1.373 . S
C977 C961 1.377 . S
C977 C975 1.389 . S
C977 C978 1.524 . S
C978 C977 1.524 . S
C978 C979 1.397 . S
C978 C983 1.363 1_455 S
C979 H950 0.950 . S
C979 C978 1.397 . S
C979 C980 1.334 . S
C980 H951 0.950 . S
C980 C979 1.334 . S
C980 C981 1.287 . S
C981 C980 1.287 . S
C981 C982 1.524 1_455 S
C981 H984 0.999 . S
C982 H952 0.950 . S
C982 C981 1.524 1_655 S
C982 C983 1.415 . S
C983 H953 0.950 . S
C983 C978 1.363 1_655 S
C983 C982 1.415 . S
H984 C981 0.999 . S
H985 C966 0.913 . S
H986 C1004 0.951 . S
H987 C1006 0.951 . S
H988 C1008 0.950 . S
H989 C1009 0.950 . S
H990 C1011 0.950 1_565 S
H991 C1014 0.950 . S
H992 C1015 0.950 . S
H993 C1017 0.950 . S
H994 C1018 0.950 . S
H995 C1019 0.951 1_565 S
H996 C1021 0.951 1_565 S
H997 C1023 0.950 . S
H998 C1024 0.950 . S
H999 C1026 0.950 . S
H1000 C1029 0.950 . S
H1001 C1030 0.950 . S
H1002 C1032 0.950 . S
H1003 C1033 0.950 . S
C1004 H986 0.951 . S
C1004 C1005 1.366 . S
C1004 C1006 1.388 . S
C1005 C1004 1.366 . S
C1005 C1009 1.385 1_545 S
C1006 H987 0.951 . S
C1006 C1004 1.388 . S
C1006 C1007 1.366 . S
C1007 C1006 1.366 . S
C1007 C1008 1.414 1_545 S
C1007 C1010 1.499 . S
C1008 H988 0.950 . S
C1008 C1007 1.414 1_565 S
C1008 C1009 1.374 . S
C1009 H989 0.950 . S
C1009 C1005 1.385 1_565 S
C1009 C1008 1.374 . S
C1010 C1007 1.499 . S
C1010 C1011 1.373 . S
C1010 C1012 1.389 . S
C1011 H990 0.950 1_545 S
C1011 C1010 1.373 . S
C1011 C1027 1.377 . S
C1012 C1010 1.389 . S
C1012 C1013 1.524 . S
C1012 C1026 1.377 . S
C1013 C1012 1.524 . S
C1013 C1014 1.397 . S
C1013 C1018 1.363 . S
C1014 H991 0.950 . S
C1014 C1013 1.397 . S
C1014 C1015 1.334 . S
C1015 H992 0.950 . S
C1015 C1014 1.334 . S
C1015 C1016 1.287 . S
C1016 C1015 1.287 . S
C1016 C1017 1.524 . S
C1016 H1035 0.913 . S
C1017 H993 0.950 . S
C1017 C1016 1.524 . S
C1017 C1018 1.415 . S
C1018 H994 0.950 . S
C1018 C1013 1.363 . S
C1018 C1017 1.415 . S
C1019 H995 0.951 1_545 S
C1019 C1020 1.366 . S
C1019 C1021 1.388 . S
C1020 C1019 1.366 . S
C1020 C1024 1.385 . S
C1021 H996 0.951 1_545 S
C1021 C1019 1.388 . S
C1021 C1022 1.366 . S
C1022 C1021 1.366 . S
C1022 C1023 1.414 . S
C1022 C1025 1.499 . S
C1023 H997 0.950 . S
C1023 C1022 1.414 . S
C1023 C1024 1.374 . S
C1024 H998 0.950 . S
C1024 C1020 1.385 . S
C1024 C1023 1.374 . S
C1025 C1022 1.499 . S
C1025 C1026 1.373 . S
C1025 C1027 1.389 . S
C1026 H999 0.950 . S
C1026 C1012 1.377 . S
C1026 C1025 1.373 . S
C1027 C1011 1.377 . S
C1027 C1025 1.389 . S
C1027 C1028 1.524 1_545 S
C1028 C1027 1.524 1_565 S
C1028 C1029 1.397 1_565 S
C1028 C1033 1.363 . S
C1029 H1000 0.950 . S
C1029 C1028 1.397 1_545 S
C1029 C1030 1.334 . S
C1030 H1001 0.950 . S
C1030 C1029 1.334 . S
C1030 C1031 1.287 1_545 S
C1031 C1030 1.287 1_565 S
C1031 C1032 1.524 . S
C1031 H1034 0.999 . S
C1032 H1002 0.950 . S
C1032 C1031 1.524 . S
C1032 C1033 1.415 . S
C1033 H1003 0.950 . S
C1033 C1028 1.363 . S
C1033 C1032 1.415 . S
H1034 C1031 0.999 . S
H1035 C1016 0.913 . S
H1036 C1054 0.951 . S
H1037 C1056 0.951 . S
H1038 C1058 0.950 . S
H1039 C1059 0.950 . S
H1040 C1061 0.950 . S
H1041 C1064 0.950 . S
H1042 C1065 0.950 . S
H1043 C1067 0.950 . S
H1044 C1068 0.950 . S
H1045 C1069 0.951 . S
H1046 C1071 0.951 . S
H1047 C1073 0.950 . S
H1048 C1074 0.950 . S
H1049 C1076 0.950 . S
H1050 C1079 0.950 . S
H1051 C1080 0.950 . S
H1052 C1082 0.950 . S
H1053 C1083 0.950 . S
C1054 H1036 0.951 . S
C1054 C1055 1.366 . S
C1054 C1056 1.388 . S
C1055 C1054 1.366 . S
C1055 C1059 1.385 . S
C1056 H1037 0.951 . S
C1056 C1054 1.388 . S
C1056 C1057 1.366 . S
C1057 C1056 1.366 . S
C1057 C1058 1.414 . S
C1057 C1060 1.499 . S
C1058 H1038 0.950 . S
C1058 C1057 1.414 . S
C1058 C1059 1.374 . S
C1059 H1039 0.950 . S
C1059 C1055 1.385 . S
C1059 C1058 1.374 . S
C1060 C1057 1.499 . S
C1060 C1061 1.373 . S
C1060 C1062 1.389 . S
C1061 H1040 0.950 . S
C1061 C1060 1.373 . S
C1061 C1077 1.377 . S
C1062 C1060 1.389 . S
C1062 C1063 1.524 . S
C1062 C1076 1.377 . S
C1063 C1062 1.524 . S
C1063 C1064 1.397 . S
C1063 C1068 1.363 . S
C1064 H1041 0.950 . S
C1064 C1063 1.397 . S
C1064 C1065 1.334 . S
C1065 H1042 0.950 . S
C1065 C1064 1.334 . S
C1065 C1066 1.287 . S
C1066 C1065 1.287 . S
C1066 C1067 1.524 . S
C1066 H1085 0.913 . S
C1067 H1043 0.950 . S
C1067 C1066 1.524 . S
C1067 C1068 1.415 . S
C1068 H1044 0.950 . S
C1068 C1063 1.363 . S
C1068 C1067 1.415 . S
C1069 H1045 0.951 . S
C1069 C1070 1.366 . S
C1069 C1071 1.388 . S
C1070 C1069 1.366 . S
C1070 C1074 1.385 . S
C1071 H1046 0.951 . S
C1071 C1069 1.388 . S
C1071 C1072 1.366 . S
C1072 C1071 1.366 . S
C1072 C1073 1.414 . S
C1072 C1075 1.499 . S
C1073 H1047 0.950 . S
C1073 C1072 1.414 . S
C1073 C1074 1.374 . S
C1074 H1048 0.950 . S
C1074 C1070 1.385 . S
C1074 C1073 1.374 . S
C1075 C1072 1.499 . S
C1075 C1076 1.373 . S
C1075 C1077 1.389 . S
C1076 H1049 0.950 . S
C1076 C1062 1.377 . S
C1076 C1075 1.373 . S
C1077 C1061 1.377 . S
C1077 C1075 1.389 . S
C1077 C1078 1.524 . S
C1078 C1077 1.524 . S
C1078 C1079 1.397 . S
C1078 C1083 1.363 . S
C1079 H1050 0.950 . S
C1079 C1078 1.397 . S
C1079 C1080 1.334 . S
C1080 H1051 0.950 . S
C1080 C1079 1.334 . S
C1080 C1081 1.287 . S
C1081 C1080 1.287 . S
C1081 C1082 1.524 . S
C1081 H1084 0.999 . S
C1082 H1052 0.950 . S
C1082 C1081 1.524 . S
C1082 C1083 1.415 . S
C1083 H1053 0.950 . S
C1083 C1078 1.363 . S
C1083 C1082 1.415 . S
H1084 C1081 0.999 . S
H1085 C1066 0.913 . S
H1086 C1104 0.951 . S
H1087 C1106 0.951 . S
H1088 C1108 0.950 . S
H1089 C1109 0.950 . S
H1090 C1111 0.956 . S
H1091 C1114 0.950 1_565 S
H1092 C1115 0.950 . S
H1093 C1117 0.950 . S
H1094 C1118 0.950 . S
H1095 C1119 0.951 . S
H1096 C1121 0.951 . S
H1097 C1123 0.950 . S
H1098 C1124 0.950 . S
H1099 C1126 0.950 . S
H1100 C1129 0.950 . S
H1101 C1130 0.939 1_545 S
H1102 C1132 0.950 . S
H1103 C1133 0.950 . S
C1104 H1086 0.951 . S
C1104 C1105 1.366 . S
C1104 C1106 1.388 . S
C1105 C1104 1.366 . S
C1105 C1109 1.385 1_545 S
C1106 H1087 0.951 . S
C1106 C1104 1.388 . S
C1106 C1107 1.366 . S
C1107 C1106 1.366 . S
C1107 C1108 1.414 1_545 S
C1107 C1110 1.499 . S
C1108 H1088 0.950 . S
C1108 C1107 1.414 1_565 S
C1108 C1109 1.374 . S
C1109 H1089 0.950 . S
C1109 C1105 1.385 1_565 S
C1109 C1108 1.374 . S
C1110 C1107 1.499 . S
C1110 C1111 1.371 1_545 S
C1110 C1112 1.389 . S
C1111 H1090 0.956 . S
C1111 C1110 1.371 1_565 S
C1111 C1127 1.374 . S
C1112 C1110 1.389 . S
C1112 C1113 1.524 . S
C1112 C1126 1.377 . S
C1113 C1112 1.524 . S
C1113 C1114 1.397 . S
C1113 C1118 1.363 . S
C1114 H1091 0.950 1_545 S
C1114 C1113 1.397 . S
C1114 C1115 1.334 . S
C1115 H1092 0.950 . S
C1115 C1114 1.334 . S
C1115 C1116 1.287 . S
C1116 C1115 1.287 . S
C1116 C1117 1.524 . S
C1116 H1135 0.913 . S
C1117 H1093 0.950 . S
C1117 C1116 1.524 . S
C1117 C1118 1.415 . S
C1118 H1094 0.950 . S
C1118 C1113 1.363 . S
C1118 C1117 1.415 . S
C1119 H1095 0.951 . S
C1119 C1120 1.366 1_565 S
C1119 C1121 1.388 . S
C1120 C1119 1.366 1_545 S
C1120 C1124 1.385 . S
C1121 H1096 0.951 . S
C1121 C1119 1.388 . S
C1121 C1122 1.366 1_565 S
C1122 C1121 1.366 1_545 S
C1122 C1123 1.414 . S
C1122 C1125 1.499 . S
C1123 H1097 0.950 . S
C1123 C1122 1.414 . S
C1123 C1124 1.374 . S
C1124 H1098 0.950 . S
C1124 C1120 1.385 . S
C1124 C1123 1.374 . S
C1125 C1122 1.499 . S
C1125 C1126 1.373 . S
C1125 C1127 1.389 1_545 S
C1126 H1099 0.950 . S
C1126 C1112 1.377 . S
C1126 C1125 1.373 . S
C1127 C1111 1.374 . S
C1127 C1125 1.389 1_565 S
C1127 C1128 1.524 . S
C1128 C1127 1.524 . S
C1128 C1129 1.397 1_565 S
C1128 C1133 1.363 . S
C1129 H1100 0.950 . S
C1129 C1128 1.397 1_545 S
C1129 C1130 1.335 1_545 S
C1130 H1101 0.939 1_565 S
C1130 C1129 1.335 1_565 S
C1130 C1131 1.297 . S
C1131 C1130 1.297 . S
C1131 C1132 1.524 . S
C1131 H1134 0.999 . S
C1132 H1102 0.950 . S
C1132 C1131 1.524 . S
C1132 C1133 1.415 . S
C1133 H1103 0.950 . S
C1133 C1128 1.363 . S
C1133 C1132 1.415 . S
H1134 C1131 0.999 . S
H1135 C1116 0.913 . S
H1136 C1154 0.951 . S
H1137 C1156 0.951 . S
H1138 C1158 0.950 . S
H1139 C1159 0.950 . S
H1140 C1161 0.950 . S
H1141 C1164 0.950 . S
H1142 C1165 0.950 . S
H1143 C1167 0.950 . S
H1144 C1168 0.950 . S
H1145 C1169 0.951 . S
H1146 C1171 0.951 1_556 S
H1147 C1173 0.950 1_556 S
H1148 C1174 0.950 . S
H1149 C1176 0.950 . S
H1150 C1179 0.950 . S
H1151 C1180 0.950 . S
H1152 C1182 0.950 . S
H1153 C1183 0.950 . S
C1154 H1136 0.951 . S
C1154 C1155 1.366 . S
C1154 C1156 1.388 . S
C1155 C1154 1.366 . S
C1155 C1159 1.385 . S
C1156 H1137 0.951 . S
C1156 C1154 1.388 . S
C1156 C1157 1.366 . S
C1157 C1156 1.366 . S
C1157 C1158 1.414 . S
C1157 C1160 1.499 . S
C1158 H1138 0.950 . S
C1158 C1157 1.414 . S
C1158 C1159 1.374 . S
C1159 H1139 0.950 . S
C1159 C1155 1.385 . S
C1159 C1158 1.374 . S
C1160 C1157 1.499 . S
C1160 C1161 1.373 . S
C1160 C1162 1.389 . S
C1161 H1140 0.950 . S
C1161 C1160 1.373 . S
C1161 C1177 1.377 . S
C1162 C1160 1.389 . S
C1162 C1163 1.524 . S
C1162 C1176 1.377 . S
C1163 C1162 1.524 . S
C1163 C1164 1.397 . S
C1163 C1168 1.363 . S
C1164 H1141 0.950 . S
C1164 C1163 1.397 . S
C1164 C1165 1.334 . S
C1165 H1142 0.950 . S
C1165 C1164 1.334 . S
C1165 C1166 1.287 . S
C1166 C1165 1.287 . S
C1166 C1167 1.524 . S
C1166 H1185 0.913 . S
C1167 H1143 0.950 . S
C1167 C1166 1.524 . S
C1167 C1168 1.415 . S
C1168 H1144 0.950 . S
C1168 C1163 1.363 . S
C1168 C1167 1.415 . S
C1169 H1145 0.951 . S
C1169 C1170 1.366 . S
C1169 C1171 1.388 . S
C1170 C1169 1.366 . S
C1170 C1174 1.385 . S
C1171 H1146 0.951 1_554 S
C1171 C1169 1.388 . S
C1171 C1172 1.366 1_554 S
C1172 C1171 1.366 1_556 S
C1172 C1173 1.414 1_556 S
C1172 C1175 1.499 . S
C1173 H1147 0.950 1_554 S
C1173 C1172 1.414 1_554 S
C1173 C1174 1.374 . S
C1174 H1148 0.950 . S
C1174 C1170 1.385 . S
C1174 C1173 1.374 . S
C1175 C1172 1.499 . S
C1175 C1176 1.373 . S
C1175 C1177 1.389 . S
C1176 H1149 0.950 . S
C1176 C1162 1.377 . S
C1176 C1175 1.373 . S
C1177 C1161 1.377 . S
C1177 C1175 1.389 . S
C1177 C1178 1.524 . S
C1178 C1177 1.524 . S
C1178 C1179 1.397 . S
C1178 C1183 1.363 . S
C1179 H1150 0.950 . S
C1179 C1178 1.397 . S
C1179 C1180 1.334 . S
C1180 H1151 0.950 . S
C1180 C1179 1.334 . S
C1180 C1181 1.287 . S
C1181 C1180 1.287 . S
C1181 C1182 1.524 . S
C1181 H1184 0.999 . S
C1182 H1152 0.950 . S
C1182 C1181 1.524 . S
C1182 C1183 1.415 . S
C1183 H1153 0.950 . S
C1183 C1178 1.363 . S
C1183 C1182 1.415 . S
H1184 C1181 0.999 . S
H1185 C1166 0.913 . S
H1186 C1204 0.951 . S
H1187 C1206 0.951 . S
H1188 C1208 0.950 . S
H1189 C1209 0.950 . S
H1190 C1211 0.950 . S
H1191 C1214 0.950 . S
H1192 C1215 0.950 . S
H1193 C1217 0.950 . S
H1194 C1218 0.950 1_455 S
H1195 C1219 0.951 . S
H1196 C1221 0.951 . S
H1197 C1223 0.950 . S
H1198 C1224 0.950 . S
H1199 C1226 0.950 . S
H1200 C1229 0.950 . S
H1201 C1230 0.950 . S
H1202 C1232 0.950 . S
H1203 C1233 0.950 1_655 S
C1204 H1186 0.951 . S
C1204 C1205 1.366 . S
C1204 C1206 1.388 . S
C1205 C1204 1.366 . S
C1205 C1209 1.385 1_455 S
C1206 H1187 0.951 . S
C1206 C1204 1.388 . S
C1206 C1207 1.366 . S
C1207 C1206 1.366 . S
C1207 C1208 1.414 1_455 S
C1207 C1210 1.498 1_455 S
C1208 H1188 0.950 . S
C1208 C1207 1.414 1_655 S
C1208 C1209 1.374 . S
C1209 H1189 0.950 . S
C1209 C1205 1.385 1_655 S
C1209 C1208 1.374 . S
C1210 C1207 1.498 1_655 S
C1210 C1211 1.374 1_655 S
C1210 C1212 1.388 . S
C1211 H1190 0.950 . S
C1211 C1210 1.374 1_455 S
C1211 C1227 1.377 . S
C1212 C1210 1.388 . S
C1212 C1213 1.524 . S
C1212 C1226 1.377 . S
C1213 C1212 1.524 . S
C1213 C1214 1.397 . S
C1213 C1218 1.363 . S
C1214 H1191 0.950 . S
C1214 C1213 1.397 . S
C1214 C1215 1.334 . S
C1215 H1192 0.950 . S
C1215 C1214 1.334 . S
C1215 C1216 1.287 . S
C1216 C1215 1.287 . S
C1216 C1217 1.524 . S
C1216 H1235 0.913 . S
C1217 H1193 0.950 . S
C1217 C1216 1.524 . S
C1217 C1218 1.415 . S
C1218 H1194 0.950 1_655 S
C1218 C1213 1.363 . S
C1218 C1217 1.415 . S
C1219 H1195 0.951 . S
C1219 C1220 1.366 . S
C1219 C1221 1.388 . S
C1220 C1219 1.366 . S
C1220 C1224 1.385 1_655 S
C1221 H1196 0.951 . S
C1221 C1219 1.388 . S
C1221 C1222 1.353 1_655 S
C1222 C1221 1.353 1_455 S
C1222 C1223 1.425 . S
C1222 C1225 1.500 . S
C1223 H1197 0.950 . S
C1223 C1222 1.425 . S
C1223 C1224 1.374 . S
C1224 H1198 0.950 . S
C1224 C1220 1.385 1_455 S
C1224 C1223 1.374 . S
C1225 C1222 1.500 . S
C1225 C1226 1.373 1_455 S
C1225 C1227 1.389 . S
C1226 H1199 0.950 . S
C1226 C1212 1.377 . S
C1226 C1225 1.373 1_655 S
C1227 C1211 1.377 . S
C1227 C1225 1.389 . S
C1227 C1228 1.524 . S
C1228 C1227 1.524 . S
C1228 C1229 1.397 . S
C1228 C1233 1.363 . S
C1229 H1200 0.950 . S
C1229 C1228 1.397 . S
C1229 C1230 1.334 . S
C1230 H1201 0.950 . S
C1230 C1229 1.334 . S
C1230 C1231 1.287 . S
C1231 C1230 1.287 . S
C1231 C1232 1.524 . S
C1231 H1234 0.999 . S
C1232 H1202 0.950 . S
C1232 C1231 1.524 . S
C1232 C1233 1.415 . S
C1233 H1203 0.950 1_455 S
C1233 C1228 1.363 . S
C1233 C1232 1.415 . S
H1234 C1231 0.999 . S
H1235 C1216 0.913 . S
C355 C19 1.856 . S
C370 C325 1.801 . S
C405 C46 1.148 . S
C420 C253 1.138 . S
C455 C95 0.330 . S
C470 C289 0.281 . S
C505 C10 1.948 . S
C520 C301 1.928 . S
C570 C229 1.256 . S
C555 C55 1.253 . S
C620 C265 0.422 . S
C605 C86 0.431 . S
C655 C59 3.048 . S
C670 C181 2.977 . S
C705 C90 1.972 . S
C720 C193 1.960 . S
C755 C15 1.234 . S
C770 C121 1.242 . S
C820 C157 2.916 . S
C805 C50 2.924 . S
C870 C217 1.800 . S
C855 C99 1.848 . S
C905 C6 1.150 . S
C920 C145 1.143 . S
C970 C223 1.375 . S
C955 C9 1.332 . S
C1005 C58 1.450 . S
C1020 C151 1.502 . S
C1055 C98 1.690 . S
C1070 C187 1.757 . S
C1120 C295 1.105 . S
C1105 C49 1.088 . S
C1170 C331 1.366 . S
C1155 C89 1.328 . S
C1205 C18 1.439 . S
C1220 C259 1.482 . S
