# Generated by pormake.
# Topology pth, (4,4)-cn, num edge types: 1
# Building blocks:
#     Node 0, Type 0, BuildingBlock: QUQFOY_clean_sbu_1, # of connection points: 4
#     Node 1, Type 0, BuildingBlock: QUQFOY_clean_sbu_1, # of connection points: 4
#     Node 2, Type 0, BuildingBlock: QUQFOY_clean_sbu_1, # of connection points: 4
#     Node 3, Type 1, BuildingBlock: MIFKUJ_clean_linker_1, # of connection points: 4
#     Node 4, Type 1, BuildingBlock: MIFKUJ_clean_linker_1, # of connection points: 4
#     Node 5, Type 1, BuildingBlock: MIFKUJ_clean_linker_1, # of connection points: 4
#     Edge 6, Type (0, 1), BuildingBlock: MIFKUJ_clean_linker_0, # of connection points: 2
#     Edge 7, Type (0, 1), BuildingBlock: MIFKUJ_clean_linker_0, # of connection points: 2
#     Edge 8, Type (0, 1), BuildingBlock: MIFKUJ_clean_linker_0, # of connection points: 2
#     Edge 9, Type (0, 1), BuildingBlock: MIFKUJ_clean_linker_0, # of connection points: 2
#     Edge 10, Type (0, 1), BuildingBlock: MIFKUJ_clean_linker_0, # of connection points: 2
#     Edge 11, Type (0, 1), BuildingBlock: MIFKUJ_clean_linker_0, # of connection points: 2
#     Edge 12, Type (0, 1), BuildingBlock: MIFKUJ_clean_linker_0, # of connection points: 2
#     Edge 13, Type (0, 1), BuildingBlock: MIFKUJ_clean_linker_0, # of connection points: 2
#     Edge 14, Type (0, 1), BuildingBlock: MIFKUJ_clean_linker_0, # of connection points: 2
#     Edge 15, Type (0, 1), BuildingBlock: MIFKUJ_clean_linker_0, # of connection points: 2
#     Edge 16, Type (0, 1), BuildingBlock: MIFKUJ_clean_linker_0, # of connection points: 2
#     Edge 17, Type (0, 1), BuildingBlock: MIFKUJ_clean_linker_0, # of connection points: 2
# Relax obj value: 0.028
# Max RMSD: 0.131
# Mean RMSD: 0.087
data_MOF--net-pth--node1-QUQFOY_clean_sbu_1--node2-MIFKUJ_clean_linker_1--edge1-MIFKUJ_clean_linker_0
_symmetry_space_group_name_H-M    P1
_symmetry_Int_Tables_number       1
_symmetry_cell_setting            triclinic
loop_
_symmetry_equiv_pos_as_xyz
'x, y, z'
_cell_length_a     35.572009
_cell_length_b     38.241895
_cell_length_c     81.968185
_cell_angle_alpha  89.998059
_cell_angle_beta   89.960918
_cell_angle_gamma 120.10037
loop_
_atom_site_label
_atom_site_type_symbol
_atom_site_fract_x
_atom_site_fract_y
_atom_site_fract_z
_atom_type_partial_charge
O0 O 0.02868 0.06288 0.03667 0.0
Cd1 Cd 0.97815 0.02511 0.05179 0.0
Cd2 Cd 0.02142 0.98421 0.052 0.0
O3 O 0.06995 0.03589 0.04092 0.0
O4 O 0.95193 0.05747 0.05965 0.0
O5 O 0.987 0.03709 0.07585 0.0
C6 C 0.96707 0.05726 0.07392 0.0
C7 C 0.03606 0.95166 0.07311 0.0
C8 C 0.0643 0.06326 0.03457 0.0
C9 C 0.93381 0.94494 0.03555 0.0
O10 O 0.96941 0.94537 0.0377 0.0
O11 O 0.92859 0.97297 0.04144 0.0
O12 O 0.04799 0.95109 0.05831 0.0
O13 O 0.01766 0.97274 0.07616 0.0
O14 O 0.96869 0.03009 0.38897 0.0
Cd15 Cd 0.02204 0.04382 0.3747 0.0
Cd16 Cd 0.98355 0.96263 0.3743 0.0
O17 O 0.9315 0.96441 0.38471 0.0
O18 O 0.04498 0.10182 0.36927 0.0
O19 O 0.01964 0.05365 0.35061 0.0
C20 C 0.03513 0.0913 0.35425 0.0
C21 C 0.97531 0.92195 0.35185 0.0
C22 C 0.93436 0.99611 0.39092 0.0
C23 C 0.06885 0.00835 0.39195 0.0
O24 O 0.03482 0.97435 0.3895 0.0
O25 O 0.07216 0.04039 0.38588 0.0
O26 O 0.96051 0.90652 0.36602 0.0
O27 O 0.99348 0.9607 0.35021 0.0
O28 O 0.93931 0.96995 0.70371 0.0
Cd29 Cd 0.9809 0.96248 0.71894 0.0
Cd30 Cd 0.02389 0.04274 0.71836 0.0
O31 O 0.96804 0.03556 0.70746 0.0
O32 O 0.94763 0.90651 0.72783 0.0
O33 O 0.97025 0.96125 0.7431 0.0
C34 C 0.94931 0.9223 0.74191 0.0
C35 C 0.05718 0.08688 0.74016 0.0
C36 C 0.93864 1.00249 0.70134 0.0
C37 C 0.06627 1.00088 0.70211 0.0
O38 O 0.0657 0.0336 0.70392 0.0
O39 O 0.03657 0.96833 0.70844 0.0
O40 O 0.05922 0.10004 0.72551 0.0
O41 O 0.03425 0.04836 0.7426 0.0
H42 H 0.06789 0.47562 0.18121 0.0
H43 H 0.06009 0.41713 0.16595 0.0
H44 H 0.93806 0.3405 0.19031 0.0
H45 H 0.94608 0.39896 0.20556 0.0
H46 H 0.01395 0.50894 0.18219 0.0
H47 H 0.06909 0.44825 0.21762 0.0
H48 H 0.07104 0.39472 0.23325 0.0
H49 H 0.96517 0.38232 0.26318 0.0
H50 H 0.96193 0.43472 0.24709 0.0
H51 H 0.95606 0.53275 0.24485 0.0
H52 H 0.95196 0.58518 0.26021 0.0
H53 H 0.0619 0.67666 0.23315 0.0
H54 H 0.06798 0.62385 0.21884 0.0
H55 H 0.01344 0.51005 0.24271 0.0
H56 H 0.95381 0.56582 0.20315 0.0
H57 H 0.95612 0.62122 0.18737 0.0
H58 H 0.07894 0.64682 0.16643 0.0
H59 H 0.07594 0.59104 0.18201 0.0
C60 C 0.00768 0.44158 0.19457 0.0
C61 C 0.03946 0.44622 0.18323 0.0
C62 C 0.03512 0.41279 0.17462 0.0
C63 C 0.99851 0.37428 0.17698 0.0
C64 C 0.96648 0.36984 0.18819 0.0
C65 C 0.97111 0.40315 0.19695 0.0
C66 C 0.01258 0.47681 0.20397 0.0
C67 C 0.01431 0.5094 0.19543 0.0
C68 C 0.01305 0.4773 0.22124 0.0
C69 C 0.01481 0.44517 0.23094 0.0
C70 C 0.04567 0.43354 0.22733 0.0
C71 C 0.04694 0.40307 0.2363 0.0
C72 C 0.01816 0.38433 0.24937 0.0
C73 C 0.98785 0.39643 0.25321 0.0
C74 C 0.98605 0.42641 0.24403 0.0
C75 C 0.01186 0.57417 0.23045 0.0
C76 C 0.97962 0.5641 0.24235 0.0
C77 C 0.97693 0.59429 0.25098 0.0
C78 C 0.00614 0.63545 0.24781 0.0
C79 C 0.03895 0.64544 0.23607 0.0
C80 C 0.0421 0.61516 0.22766 0.0
C81 C 0.01321 0.54157 0.22095 0.0
C82 C 0.01292 0.5095 0.22948 0.0
C83 C 0.0144 0.54166 0.20366 0.0
C84 C 0.01484 0.57446 0.19382 0.0
C85 C 0.9812 0.58342 0.19515 0.0
C86 C 0.9827 0.61525 0.18619 0.0
C87 C 0.01779 0.63861 0.17564 0.0
C88 C 0.05115 0.62917 0.17424 0.0
C89 C 0.04956 0.59734 0.18317 0.0
H90 H 0.59266 0.05934 0.51646 0.0
H91 H 0.64503 0.05544 0.49838 0.0
H92 H 0.61068 0.9389 0.51874 0.0
H93 H 0.5574 0.9425 0.5365 0.0
H94 H 0.50777 0.01208 0.51649 0.0
H95 H 0.62125 0.04818 0.55507 0.0
H96 H 0.67487 0.0472 0.57347 0.0
H97 H 0.574 0.93763 0.59564 0.0
H98 H 0.52064 0.93818 0.57703 0.0
H99 H 0.41183 0.9392 0.57548 0.0
H100 H 0.35835 0.93909 0.59419 0.0
H101 H 0.38638 0.05545 0.57564 0.0
H102 H 0.44038 0.05565 0.55698 0.0
H103 H 0.49557 0.99022 0.57626 0.0
H104 H 0.38244 0.95384 0.53593 0.0
H105 H 0.33057 0.95847 0.51772 0.0
H106 H 0.43316 0.07309 0.49966 0.0
H107 H 0.48477 0.06825 0.51782 0.0
C108 C 0.57126 1.00134 0.5279 0.0
C109 C 0.5966 0.03306 0.5171 0.0
C110 C 0.62674 0.0309 0.50685 0.0
C111 C 0.63201 0.99684 0.50711 0.0
C112 C 0.60708 0.96536 0.51813 0.0
C113 C 0.57697 0.96759 0.52842 0.0
C114 C 0.53682 1.00236 0.53776 0.0
C115 C 0.50545 0.00787 0.52962 0.0
C116 C 0.5333 0.996 0.55483 0.0
C117 C 0.56685 0.99314 0.56459 0.0
C118 C 0.61082 0.02335 0.56359 0.0
C119 C 0.64143 0.02287 0.57415 0.0
C120 C 0.62848 0.99252 0.58606 0.0
C121 C 0.58475 0.96169 0.58672 0.0
C122 C 0.5543 0.96194 0.57607 0.0
C123 C 0.43011 0.99738 0.56479 0.0
C124 C 0.40626 0.96458 0.57533 0.0
C125 C 0.37584 0.96461 0.58607 0.0
C126 C 0.36852 0.99744 0.58649 0.0
C127 C 0.39117 0.02962 0.5755 0.0
C128 C 0.42192 0.02971 0.5648 0.0
C129 C 0.46601 0.99901 0.55494 0.0
C130 C 0.49783 0.99424 0.56312 0.0
C131 C 0.47009 0.00631 0.53794 0.0
C132 C 0.43749 0.01077 0.52827 0.0
C133 C 0.39356 0.98033 0.52828 0.0
C134 C 0.36396 0.983 0.51785 0.0
C135 C 0.37786 0.016 0.50715 0.0
C136 C 0.42159 0.04696 0.50755 0.0
C137 C 0.45108 0.04433 0.51798 0.0
H138 H 0.47864 0.42986 0.85598 0.0
H139 H 0.4224 0.37598 0.83927 0.0
H140 H 0.32318 0.38123 0.86768 0.0
H141 H 0.37935 0.43642 0.8839 0.0
H142 H 0.50231 0.50372 0.85961 0.0
H143 H 0.44844 0.39279 0.89721 0.0
H144 H 0.39545 0.3359 0.91368 0.0
H145 H 0.3608 0.41549 0.9385 0.0
H146 H 0.41279 0.47186 0.92168 0.0
H147 H 0.51745 0.58222 0.92082 0.0
H148 H 0.57013 0.63747 0.93779 0.0
H149 H 0.67416 0.6274 0.91517 0.0
H150 H 0.62087 0.57066 0.8988 0.0
H151 H 0.49816 0.50539 0.92003 0.0
H152 H 0.56287 0.61892 0.88271 0.0
H153 H 0.62334 0.67324 0.86784 0.0
H154 H 0.64225 0.58474 0.84187 0.0
H155 H 0.58445 0.53112 0.8578 0.0
C156 C 0.43342 0.43704 0.87138 0.0
C157 C 0.44482 0.41962 0.8586 0.0
C158 C 0.41272 0.38879 0.84908 0.0
C159 C 0.36856 0.37439 0.85228 0.0
C160 C 0.35703 0.39146 0.86513 0.0
C161 C 0.38915 0.42287 0.87444 0.0
C162 C 0.46785 0.47081 0.88112 0.0
C163 C 0.50174 0.50379 0.87284 0.0
C164 C 0.46692 0.47131 0.89839 0.0
C165 C 0.43427 0.4365 0.90811 0.0
C166 C 0.42905 0.39784 0.90608 0.0
C167 C 0.39907 0.36545 0.9156 0.0
C168 C 0.37387 0.37116 0.92739 0.0
C169 C 0.37923 0.40994 0.92938 0.0
C170 C 0.40919 0.44226 0.91986 0.0
C171 C 0.5652 0.57252 0.90843 0.0
C172 C 0.55161 0.59184 0.91955 0.0
C173 C 0.58186 0.62375 0.92913 0.0
C174 C 0.62649 0.63715 0.92779 0.0
C175 C 0.64004 0.61766 0.91664 0.0
C176 C 0.60966 0.58547 0.90714 0.0
C177 C 0.53243 0.53824 0.89853 0.0
C178 C 0.49878 0.50522 0.9068 0.0
C179 C 0.53427 0.53743 0.88127 0.0
C180 C 0.56955 0.57084 0.87166 0.0
C181 C 0.58058 0.61128 0.87403 0.0
C182 C 0.6149 0.64238 0.8653 0.0
C183 C 0.63823 0.63368 0.85366 0.0
C184 C 0.62608 0.59297 0.851 0.0
C185 C 0.59243 0.56205 0.85996 0.0
H186 H 0.90657 0.08028 0.07789 0.0
H187 H 0.90818 0.12931 0.09739 0.0
H188 H 0.02588 0.14264 0.11844 0.0
H189 H 0.02285 0.09173 0.09952 0.0
H190 H 0.98151 0.14974 0.1415 0.0
H191 H 0.02494 0.21017 0.08871 0.0
H192 H 0.0188 0.21686 0.05905 0.0
H193 H 0.9029 0.22329 0.06643 0.0
H194 H 0.90804 0.21611 0.09614 0.0
H195 H 0.05873 0.35074 0.17231 0.0
H196 H 0.05034 0.29274 0.15651 0.0
H197 H 0.91874 0.26045 0.14463 0.0
H198 H 0.92685 0.3182 0.16048 0.0
H199 H 0.97038 0.26333 0.11748 0.0
H200 H 0.93268 0.20609 0.17161 0.0
H201 H 0.94567 0.204 0.20105 0.0
H202 H 0.06026 0.19745 0.19055 0.0
H203 H 0.04831 0.20012 0.16104 0.0
C204 C 0.93235 0.09316 0.08688 0.0
C205 C 0.96475 0.08243 0.08712 0.0
C206 C 0.93348 0.12147 0.09794 0.0
C207 C 0.96794 0.14077 0.10909 0.0
C208 C 0.99911 0.12848 0.10991 0.0
C209 C 0.99736 0.09935 0.09909 0.0
C210 C 0.97252 0.17497 0.11931 0.0
C211 C 0.97953 0.17474 0.13618 0.0
C212 C 0.96975 0.20771 0.11248 0.0
C213 C 0.96665 0.21219 0.09463 0.0
C214 C 0.99799 0.21274 0.084 0.0
C215 C 0.99471 0.21666 0.06718 0.0
C216 C 0.96042 0.22039 0.06086 0.0
C217 C 0.92941 0.22034 0.07134 0.0
C218 C 0.9325 0.21637 0.08817 0.0
C219 C 0.02804 0.33124 0.16632 0.0
C220 C 0.99342 0.33893 0.16762 0.0
C221 C 0.02321 0.29804 0.1574 0.0
C222 C 0.98383 0.27221 0.14949 0.0
C223 C 0.94932 0.27996 0.15069 0.0
C224 C 0.95393 0.3128 0.1598 0.0
C225 C 0.97898 0.23777 0.13955 0.0
C226 C 0.97215 0.23815 0.12274 0.0
C227 C 0.9829 0.20576 0.14638 0.0
C228 C 0.98982 0.20369 0.16412 0.0
C229 C 0.96084 0.20453 0.17558 0.0
C230 C 0.96798 0.20318 0.19228 0.0
C231 C 0.00383 0.2007 0.19767 0.0
C232 C 0.03253 0.19942 0.18636 0.0
C233 C 0.02557 0.20081 0.16965 0.0
H234 H 0.00931 0.19968 0.2106 0.0
H235 H 0.95794 0.22342 0.04783 0.0
H236 H 0.93378 0.05729 0.40782 0.0
H237 H 0.87943 0.05255 0.42718 0.0
H238 H 0.8009 0.92484 0.41761 0.0
H239 H 0.85544 0.92918 0.3981 0.0
H240 H 0.75274 0.96556 0.41968 0.0
H241 H 0.85826 0.95129 0.4507 0.0
H242 H 0.93199 0.96968 0.45977 0.0
H243 H 0.9522 0.08348 0.47753 0.0
H244 H 0.87879 0.06602 0.46833 0.0
H245 H 0.6187 0.93075 0.48947 0.0
H246 H 0.66767 0.92655 0.46962 0.0
H247 H 0.76217 0.05184 0.47829 0.0
H248 H 0.71393 0.05594 0.4985 0.0
H249 H 0.80022 0.00654 0.47687 0.0
H250 H 0.69729 0.0232 0.4447 0.0
H251 H 0.62437 0.00644 0.43521 0.0
H252 H 0.59978 0.88979 0.41938 0.0
H253 H 0.67239 0.90565 0.42899 0.0
C254 C 0.90484 0.02817 0.40967 0.0
C255 C 0.89916 0.99352 0.40147 0.0
C256 C 0.87385 0.02553 0.42081 0.0
C257 C 0.83649 0.98826 0.42399 0.0
C258 C 0.82967 0.95386 0.41536 0.0
C259 C 0.86088 0.9564 0.40424 0.0
C260 C 0.80552 0.98539 0.43674 0.0
C261 C 0.76281 0.97381 0.43225 0.0
C262 C 0.81905 0.99694 0.45306 0.0
C263 C 0.86315 0.00747 0.45869 0.0
C264 C 0.87855 0.98037 0.45642 0.0
C265 C 0.92027 0.99061 0.4616 0.0
C266 C 0.9468 0.02777 0.46919 0.0
C267 C 0.93163 0.05473 0.47164 0.0
C268 C 0.88995 0.04466 0.46645 0.0
C269 C 0.65015 0.95726 0.48731 0.0
C270 C 0.66239 0.99373 0.49554 0.0
C271 C 0.67791 0.95492 0.47584 0.0
C272 C 0.71834 0.98903 0.47232 0.0
C273 C 0.73104 0.0252 0.48077 0.0
C274 C 0.70331 0.02757 0.49222 0.0
C275 C 0.74748 0.98725 0.45979 0.0
C276 C 0.78994 0.99794 0.46433 0.0
C277 C 0.73372 0.97503 0.44352 0.0
C278 C 0.69007 0.96543 0.43773 0.0
C279 C 0.67619 0.99383 0.43933 0.0
C280 C 0.63494 0.98453 0.4339 0.0
C281 C 0.6074 0.94703 0.42675 0.0
C282 C 0.62111 0.91879 0.42496 0.0
C283 C 0.66232 0.92793 0.43038 0.0
H284 H 0.57549 0.93988 0.42255 0.0
H285 H 0.97909 0.03564 0.4732 0.0
H286 H 0.92956 0.84474 0.74729 0.0
H287 H 0.88264 0.79883 0.76856 0.0
H288 H 0.86525 0.89413 0.78866 0.0
H289 H 0.91442 0.94084 0.76791 0.0
H290 H 0.86536 0.85077 0.81248 0.0
H291 H 0.78919 0.81905 0.76184 0.0
H292 H 0.7763 0.80228 0.73258 0.0
H293 H 0.7795 0.69296 0.74097 0.0
H294 H 0.79297 0.70935 0.77026 0.0
H295 H 0.64642 0.70547 0.84281 0.0
H296 H 0.70518 0.75793 0.82647 0.0
H297 H 0.7701 0.68848 0.82568 0.0
H298 H 0.71327 0.63704 0.8429 0.0
H299 H 0.74476 0.71928 0.79291 0.0
H300 H 0.82116 0.75592 0.84517 0.0
H301 H 0.82724 0.77448 0.87427 0.0
H302 H 0.81466 0.87735 0.8621 0.0
H303 H 0.80777 0.85898 0.83295 0.0
C304 C 0.91624 0.85603 0.75641 0.0
C305 C 0.92529 0.89621 0.75589 0.0
C306 C 0.88915 0.8297 0.7685 0.0
C307 C 0.86919 0.84257 0.77995 0.0
C308 C 0.87994 0.88331 0.77992 0.0
C309 C 0.90802 0.91 0.76805 0.0
C310 C 0.83568 0.81306 0.79138 0.0
C311 C 0.83887 0.82221 0.80813 0.0
C312 C 0.80076 0.77568 0.78582 0.0
C313 C 0.79251 0.76563 0.76822 0.0
C314 C 0.78743 0.79157 0.75743 0.0
C315 C 0.77998 0.78211 0.74084 0.0
C316 C 0.7772 0.74663 0.73491 0.0
C317 C 0.78173 0.72046 0.74557 0.0
C318 C 0.78923 0.7298 0.76217 0.0
C319 C 0.67362 0.70162 0.83955 0.0
C320 C 0.67469 0.66662 0.84418 0.0
C321 C 0.70703 0.7316 0.83011 0.0
C322 C 0.74181 0.72694 0.82494 0.0
C323 C 0.74338 0.69247 0.82958 0.0
C324 C 0.71052 0.66289 0.83929 0.0
C325 C 0.77519 0.75686 0.81383 0.0
C326 C 0.77157 0.74782 0.79716 0.0
C327 C 0.8089 0.79458 0.81941 0.0
C328 C 0.8134 0.80578 0.83691 0.0
C329 C 0.81919 0.78223 0.84872 0.0
C330 C 0.82291 0.79277 0.86522 0.0
C331 C 0.82119 0.82699 0.87003 0.0
C332 C 0.8159 0.85081 0.85836 0.0
C333 C 0.81212 0.84036 0.84185 0.0
H334 H 0.8241 0.83512 0.88281 0.0
H335 H 0.77143 0.73936 0.72206 0.0
H336 H 0.07276 0.90434 0.06972 0.0
H337 H 0.07036 0.85462 0.08895 0.0
H338 H 0.00527 0.88967 0.12416 0.0
H339 H 0.00758 0.93989 0.1049 0.0
H340 H 0.06839 0.87405 0.13814 0.0
H341 H 0.94533 0.80957 0.10249 0.0
H342 H 0.90787 0.79162 0.07592 0.0
H343 H 0.97963 0.73374 0.06169 0.0
H344 H 0.01804 0.75191 0.0881 0.0
H345 H 0.99485 0.6941 0.18549 0.0
H346 H 0.99793 0.74965 0.16962 0.0
H347 H 0.0495 0.7166 0.12856 0.0
H348 H 0.04471 0.66005 0.14406 0.0
H349 H 0.98899 0.73202 0.11871 0.0
H350 H 0.11433 0.79864 0.15367 0.0
H351 H 0.15303 0.81726 0.18 0.0
H352 H 0.07813 0.87113 0.19542 0.0
H353 H 0.03856 0.85234 0.16925 0.0
C354 C 0.05845 0.90199 0.08163 0.0
C355 C 0.03999 0.92587 0.08571 0.0
C356 C 0.05701 0.87343 0.09259 0.0
C357 C 0.03701 0.86801 0.10787 0.0
C358 C 0.0207 0.89329 0.11239 0.0
C359 C 0.02203 0.92193 0.10137 0.0
C360 C 0.03098 0.83425 0.11857 0.0
C361 C 0.0505 0.84291 0.13403 0.0
C362 C 0.00815 0.79371 0.11308 0.0
C363 C 0.98484 0.78242 0.09723 0.0
C364 C 0.95337 0.79329 0.09365 0.0
C365 C 0.93193 0.78303 0.07862 0.0
C366 C 0.94143 0.76164 0.06711 0.0
C367 C 0.97233 0.75035 0.07062 0.0
C368 C 0.99392 0.76059 0.08562 0.0
C369 C 0.00643 0.69839 0.17303 0.0
C370 C 0.01965 0.6726 0.16608 0.0
C371 C 0.00866 0.73049 0.16403 0.0
C372 C 0.02451 0.7377 0.14795 0.0
C373 C 0.03733 0.71179 0.14096 0.0
C374 C 0.03494 0.67964 0.1499 0.0
C375 C 0.02716 0.77172 0.13822 0.0
C376 C 0.00678 0.76309 0.12292 0.0
C377 C 0.04929 0.81222 0.14387 0.0
C378 C 0.07317 0.82369 0.15957 0.0
C379 C 0.10588 0.81418 0.16273 0.0
C380 C 0.12801 0.82481 0.17761 0.0
C381 C 0.11795 0.84526 0.1894 0.0
C382 C 0.08583 0.85523 0.18629 0.0
C383 C 0.06357 0.84462 0.17143 0.0
H384 H 0.13512 0.85346 0.20092 0.0
H385 H 0.9248 0.75373 0.05548 0.0
H386 H 0.144 0.07602 0.40149 0.0
H387 H 0.19955 0.07967 0.42013 0.0
H388 H 0.12777 0.94998 0.42544 0.0
H389 H 0.07243 0.94594 0.40672 0.0
H390 H 0.19329 0.0581 0.45169 0.0
H391 H 0.19852 0.91584 0.43088 0.0
H392 H 0.1882 0.87644 0.40577 0.0
H393 H 0.22354 0.98193 0.37671 0.0
H394 H 0.23464 0.02207 0.40164 0.0
H395 H 0.29326 0.99694 0.51181 0.0
H396 H 0.24327 0.99793 0.49151 0.0
H397 H 0.34399 0.03928 0.45497 0.0
H398 H 0.39368 0.03743 0.47504 0.0
H399 H 0.2684 0.97974 0.44331 0.0
H400 H 0.3177 0.10449 0.47191 0.0
H401 H 0.33216 0.1479 0.49605 0.0
H402 H 0.19603 0.08548 0.50757 0.0
H403 H 0.18082 0.0413 0.48361 0.0
C404 C 0.14019 0.04823 0.40651 0.0
C405 C 0.10377 0.01067 0.40256 0.0
C406 C 0.17188 0.05041 0.41722 0.0
C407 C 0.16794 0.0151 0.4241 0.0
C408 C 0.13178 0.97758 0.42012 0.0
C409 C 0.1001 0.97536 0.40942 0.0
C410 C 0.20113 0.01747 0.43571 0.0
C411 C 0.20975 0.04101 0.44985 0.0
C412 C 0.22303 0.99558 0.43321 0.0
C413 C 0.217 0.97184 0.41814 0.0
C414 C 0.20426 0.93066 0.41913 0.0
C415 C 0.19824 0.90819 0.40493 0.0
C416 C 0.20508 0.92664 0.38966 0.0
C417 C 0.21809 0.96763 0.38855 0.0
C418 C 0.22419 0.99024 0.40271 0.0
C419 C 0.30465 0.00607 0.49943 0.0
C420 C 0.34749 0.01732 0.49506 0.0
C421 C 0.27618 0.00691 0.48788 0.0
C422 C 0.29004 0.01902 0.47176 0.0
C423 C 0.33266 0.02995 0.46735 0.0
C424 C 0.36113 0.02923 0.47888 0.0
C425 C 0.26005 0.01986 0.4594 0.0
C426 C 0.25195 0.99685 0.44514 0.0
C427 C 0.23918 0.04274 0.46167 0.0
C428 C 0.24819 0.06934 0.47605 0.0
C429 C 0.29089 0.09981 0.47967 0.0
C430 C 0.29922 0.12459 0.4933 0.0
C431 C 0.26505 0.11939 0.50336 0.0
C432 C 0.22247 0.08945 0.49978 0.0
C433 C 0.21397 0.06455 0.48616 0.0
H434 H 0.27156 0.13861 0.51391 0.0
H435 H 0.20037 0.90919 0.37868 0.0
H436 H 0.11631 0.16712 0.73739 0.0
H437 H 0.16554 0.2121 0.75831 0.0
H438 H 0.1072 0.11606 0.79375 0.0
H439 H 0.05774 0.07035 0.77275 0.0
H440 H 0.12545 0.19581 0.80511 0.0
H441 H 0.19588 0.13122 0.77915 0.0
H442 H 0.22145 0.10864 0.75561 0.0
H443 H 0.30175 0.23178 0.74019 0.0
H444 H 0.27612 0.25507 0.7635 0.0
H445 H 0.29771 0.30364 0.862 0.0
H446 H 0.24197 0.25094 0.84466 0.0
H447 H 0.30657 0.32185 0.8019 0.0
H448 H 0.36321 0.37345 0.81919 0.0
H449 H 0.28269 0.24838 0.79576 0.0
H450 H 0.20969 0.31365 0.81971 0.0
H451 H 0.18335 0.33815 0.84237 0.0
H452 H 0.10779 0.21705 0.86071 0.0
H453 H 0.13407 0.1919 0.83824 0.0
C454 C 0.11346 0.15556 0.74966 0.0
C455 C 0.08324 0.11504 0.75338 0.0
C456 C 0.14174 0.18133 0.76159 0.0
C457 C 0.14026 0.16724 0.7775 0.0
C458 C 0.10884 0.12741 0.78151 0.0
C459 C 0.0807 0.10137 0.7695 0.0
C460 C 0.17316 0.19383 0.7896 0.0
C461 C 0.15982 0.20689 0.80326 0.0
C462 C 0.21795 0.20875 0.78695 0.0
C463 C 0.23378 0.19486 0.773 0.0
C464 C 0.21872 0.15347 0.77067 0.0
C465 C 0.23327 0.14054 0.75737 0.0
C466 C 0.26313 0.16875 0.74639 0.0
C467 C 0.27859 0.20996 0.7487 0.0
C468 C 0.26409 0.22304 0.76196 0.0
C469 C 0.29983 0.30782 0.84889 0.0
C470 C 0.33464 0.34251 0.8419 0.0
C471 C 0.26789 0.27784 0.83899 0.0
C472 C 0.26954 0.28259 0.82194 0.0
C473 C 0.3045 0.31732 0.81499 0.0
C474 C 0.33684 0.34683 0.82486 0.0
C475 C 0.23533 0.25147 0.81121 0.0
C476 C 0.24838 0.23731 0.79777 0.0
C477 C 0.19033 0.23595 0.81398 0.0
C478 C 0.17417 0.25097 0.82739 0.0
C479 C 0.18765 0.2923 0.82863 0.0
C480 C 0.17271 0.30629 0.84143 0.0
C481 C 0.14401 0.27919 0.853 0.0
C482 C 0.13006 0.23801 0.85176 0.0
C483 C 0.14493 0.22386 0.83898 0.0
H484 H 0.1325 0.29009 0.86291 0.0
H485 H 0.27435 0.15868 0.7361 0.0
H486 H 0.91855 0.0624 0.69719 0.0
H487 H 0.86377 0.06185 0.67896 0.0
H488 H 0.82891 0.94193 0.66278 0.0
H489 H 0.88231 0.94171 0.68132 0.0
H490 H 0.85599 0.05866 0.64756 0.0
H491 H 0.72447 0.88851 0.65207 0.0
H492 H 0.69619 0.83351 0.67239 0.0
H493 H 0.73929 0.92052 0.71121 0.0
H494 H 0.76729 0.976 0.69113 0.0
H495 H 0.71061 0.00555 0.58094 0.0
H496 H 0.76218 0.0086 0.60148 0.0
H497 H 0.66897 0.9875 0.63946 0.0
H498 H 0.61711 0.98341 0.61895 0.0
H499 H 0.70411 0.94458 0.64553 0.0
H500 H 0.75895 0.08306 0.63182 0.0
H501 H 0.78477 0.14229 0.61375 0.0
H502 H 0.89012 0.12647 0.59755 0.0
H503 H 0.86457 0.06678 0.61538 0.0
C504 C 0.89892 0.03578 0.68985 0.0
C505 C 0.90461 1.002 0.69079 0.0
C506 C 0.86773 0.03556 0.67939 0.0
C507 C 0.84181 1.00168 0.66962 0.0
C508 C 0.84775 0.96809 0.67046 0.0
C509 C 0.87846 0.96807 0.68104 0.0
C510 C 0.80926 1.00168 0.65826 0.0
C511 C 0.82275 0.03376 0.64716 0.0
C512 C 0.76561 0.96962 0.6579 0.0
C513 C 0.74833 0.93641 0.67008 0.0
C514 C 0.72773 0.8959 0.66494 0.0
C515 C 0.71179 0.86464 0.67642 0.0
C516 C 0.71606 0.87352 0.69308 0.0
C517 C 0.73614 0.91368 0.69831 0.0
C518 C 0.7521 0.94505 0.68688 0.0
C519 C 0.70127 1.00166 0.59368 0.0
C520 C 0.65986 0.99414 0.59836 0.0
C521 C 0.73076 1.00354 0.60542 0.0
C522 C 0.7197 0.99878 0.62207 0.0
C523 C 0.67825 0.99114 0.62671 0.0
C524 C 0.64862 0.98874 0.61498 0.0
C525 C 0.751 1.00126 0.63466 0.0
C526 C 0.7373 0.96957 0.64597 0.0
C527 C 0.79406 0.03428 0.63553 0.0
C528 C 0.80961 0.07023 0.62483 0.0
C529 C 0.78744 0.09203 0.62432 0.0
C530 C 0.80205 0.12572 0.61413 0.0
C531 C 0.839 0.13807 0.60448 0.0
C532 C 0.86147 0.11683 0.60503 0.0
C533 C 0.84697 0.08309 0.61518 0.0
H534 H 0.85026 0.16416 0.5966 0.0
H535 H 0.70374 0.84928 0.70195 0.0
H536 H 0.85888 0.94001 0.02401 0.0
H537 H 0.80546 0.88903 0.00555 0.0
H538 H 0.87752 0.82587 0.00576 0.0
H539 H 0.93136 0.87695 0.0239 0.0
H540 H 0.85625 0.83348 0.9755 0.0
H541 H 0.78104 0.79057 0.02697 0.0
H542 H 0.75004 0.7988 0.05262 0.0
H543 H 0.66662 0.82859 0.02551 0.0
H544 H 0.69754 0.82104 0.99969 0.0
H545 H 0.69887 0.64408 0.94274 0.0
H546 H 0.75027 0.69853 0.96042 0.0
H547 H 0.67752 0.76017 0.95471 0.0
H548 H 0.62651 0.70637 0.93664 0.0
H549 H 0.69798 0.75579 0.98691 0.0
H550 H 0.77078 0.79611 0.9355 0.0
H551 H 0.80104 0.78739 0.90975 0.0
H552 H 0.8886 0.76252 0.93662 0.0
H553 H 0.8584 0.77049 0.96255 0.0
C554 C 0.86314 0.91507 0.02024 0.0
C555 C 0.89944 0.91262 0.02542 0.0
C556 C 0.83253 0.8859 0.00971 0.0
C557 C 0.83736 0.85348 0.00432 0.0
C558 C 0.8732 0.85068 0.00969 0.0
C559 C 0.90388 0.87988 0.02012 0.0
C560 C 0.80586 0.82298 0.99275 0.0
C561 C 0.82171 0.81615 0.9781 0.0
C562 C 0.76062 0.8012 0.99589 0.0
C563 C 0.74193 0.80565 0.01141 0.0
C564 C 0.75633 0.79919 0.02648 0.0
C565 C 0.73872 0.80367 0.04105 0.0
C566 C 0.70647 0.81432 0.0407 0.0
C567 C 0.69165 0.8204 0.02577 0.0
C568 C 0.70918 0.81599 0.01116 0.0
C569 C 0.69412 0.66949 0.945 0.0
C570 C 0.65851 0.67079 0.93823 0.0
C571 C 0.72344 0.70051 0.95519 0.0
C572 C 0.71777 0.73344 0.95881 0.0
C573 C 0.68235 0.73492 0.95211 0.0
C574 C 0.65315 0.70404 0.94183 0.0
C575 C 0.74852 0.76599 0.96983 0.0
C576 C 0.73252 0.77324 0.98432 0.0
C577 C 0.79362 0.78818 0.96655 0.0
C578 C 0.81203 0.78354 0.95098 0.0
C579 C 0.79624 0.78846 0.93592 0.0
C580 C 0.81343 0.78372 0.92129 0.0
C581 C 0.84666 0.77433 0.92155 0.0
C582 C 0.86283 0.76976 0.93644 0.0
C583 C 0.84571 0.77442 0.95111 0.0
H584 H 0.85992 0.77068 0.91021 0.0
H585 H 0.69287 0.81778 0.05199 0.0
H586 H 0.03555 0.9407 0.32786 0.0
H587 H 0.03935 0.89429 0.30832 0.0
H588 H 0.91545 0.79826 0.32556 0.0
H589 H 0.91339 0.84402 0.34588 0.0
H590 H 0.96361 0.76939 0.32365 0.0
H591 H 0.93557 0.84831 0.28566 0.0
H592 H 0.94597 0.91004 0.27202 0.0
H593 H 0.07405 0.93884 0.25704 0.0
H594 H 0.06464 0.87755 0.27078 0.0
H595 H 0.93174 0.63397 0.25815 0.0
H596 H 0.92576 0.68479 0.27413 0.0
H597 H 0.06488 0.76185 0.273 0.0
H598 H 0.07172 0.71033 0.25779 0.0
H599 H 0.00882 0.79979 0.26572 0.0
H600 H 0.03261 0.71796 0.30525 0.0
H601 H 0.01612 0.65312 0.31774 0.0
H602 H 0.88621 0.62671 0.3283 0.0
H603 H 0.90176 0.69117 0.31563 0.0
C604 C 0.00883 0.90985 0.32725 0.0
C605 C 0.97415 0.8959 0.33833 0.0
C606 C 0.01087 0.88328 0.316 0.0
C607 C 0.97745 0.84259 0.31524 0.0
C608 C 0.94185 0.8293 0.3259 0.0
C609 C 0.94049 0.85551 0.33745 0.0
C610 C 0.98095 0.81314 0.30427 0.0
C611 C 0.97276 0.77604 0.31092 0.0
C612 C 0.99377 0.82164 0.28767 0.0
C613 C 0.99953 0.85852 0.27939 0.0
C614 C 0.96607 0.86796 0.27956 0.0
C615 C 0.97177 0.90285 0.27179 0.0
C616 C 0.01068 0.92839 0.26371 0.0
C617 C 0.04394 0.91905 0.26333 0.0
C618 C 0.03843 0.88422 0.27109 0.0
C619 C 0.96126 0.66141 0.26143 0.0
C620 C 1.0023 0.6676 0.25676 0.0
C621 C 0.95765 0.69064 0.27042 0.0
C622 C 0.99487 0.72698 0.27472 0.0
C623 C 0.03576 0.73404 0.26968 0.0
C624 C 0.03952 0.70452 0.26092 0.0
C625 C 0.9911 0.75665 0.28519 0.0
C626 C 0.99939 0.79355 0.27845 0.0
C627 C 0.97742 0.74772 0.30159 0.0
C628 C 0.96821 0.70916 0.30934 0.0
C629 C 1.00042 0.69816 0.3101 0.0
C630 C 0.99126 0.66151 0.31724 0.0
C631 C 0.95011 0.63576 0.32377 0.0
C632 C 0.91805 0.64666 0.32322 0.0
C633 C 0.92703 0.68325 0.31607 0.0
H634 H 0.94308 0.6074 0.32929 0.0
H635 H 0.01503 0.95539 0.2577 0.0
H636 H 0.07454 0.93573 0.69358 0.0
H637 H 0.12807 0.93489 0.67508 0.0
H638 H 0.18752 0.06377 0.66841 0.0
H639 H 0.13464 0.06504 0.68701 0.0
H640 H 0.1421 0.95504 0.64325 0.0
H641 H 0.29601 0.10366 0.66206 0.0
H642 H 0.32679 0.14595 0.6866 0.0
H643 H 0.25554 0.04172 0.71713 0.0
H644 H 0.22482 0.99872 0.69278 0.0
H645 H 0.30596 0.01841 0.58211 0.0
H646 H 0.25626 0.01913 0.6027 0.0
H647 H 0.31432 0.98001 0.63929 0.0
H648 H 0.36426 0.97965 0.61886 0.0
H649 H 0.30157 0.04102 0.65041 0.0
H650 H 0.22019 0.91289 0.62332 0.0
H651 H 0.18889 0.86778 0.59958 0.0
H652 H 0.11489 0.92479 0.58741 0.0
H653 H 0.14624 0.97066 0.61097 0.0
C654 C 0.09927 0.96398 0.68832 0.0
C655 C 0.10029 1.00046 0.6918 0.0
C656 C 0.1297 0.9634 0.67768 0.0
C657 C 0.16189 0.99928 0.67043 0.0
C658 C 0.16331 0.03579 0.67403 0.0
C659 C 0.13293 0.03642 0.68465 0.0
C660 C 0.19322 0.99841 0.65872 0.0
C661 C 0.17696 0.97382 0.64483 0.0
C662 C 0.23871 0.02266 0.66085 0.0
C663 C 0.25782 0.04806 0.67558 0.0
C664 C 0.2871 0.08973 0.67401 0.0
C665 C 0.3045 0.11384 0.68788 0.0
C666 C 0.29301 0.09656 0.70342 0.0
C667 C 0.26428 0.05509 0.7051 0.0
C668 C 0.24684 0.03085 0.69126 0.0
C669 C 0.30826 0.01024 0.59457 0.0
C670 C 0.33872 0.99865 0.59886 0.0
C671 C 0.27977 0.01047 0.60629 0.0
C672 C 0.28145 0.99933 0.62249 0.0
C673 C 0.31246 0.98864 0.62686 0.0
C674 C 0.34068 0.98811 0.61515 0.0
C675 C 0.25038 0.99807 0.63487 0.0
C676 C 0.2667 0.0223 0.64884 0.0
C677 C 0.20495 0.97312 0.63293 0.0
C678 C 0.18589 0.94546 0.61881 0.0
C679 C 0.19751 0.91602 0.61551 0.0
C680 C 0.17971 0.89028 0.6021 0.0
C681 C 0.15 0.89348 0.59197 0.0
C682 C 0.13795 0.92238 0.59525 0.0
C683 C 0.15569 0.94823 0.60864 0.0
H684 H 0.13626 0.87352 0.58159 0.0
H685 H 0.30643 0.11529 0.71414 0.0
H686 H 0.14422 0.07341 0.02667 0.0
H687 H 0.19855 0.12385 0.00825 0.0
H688 H 0.11598 0.17485 1.00033 0.0
H689 H 0.06146 0.12453 0.01855 0.0
H690 H 0.14741 0.16407 0.9719 0.0
H691 H 0.20467 0.22189 0.02467 0.0
H692 H 0.23058 0.22244 0.05262 0.0
H693 H 0.33098 0.20255 0.03377 0.0
H694 H 0.30528 0.20134 0.00571 0.0
H695 H 0.29181 0.3527 0.93627 0.0
H696 H 0.24131 0.29826 0.95418 0.0
H697 H 0.33375 0.2574 0.95963 0.0
H698 H 0.38511 0.31269 0.94209 0.0
H699 H 0.29926 0.25957 0.98861 0.0
H700 H 0.24492 0.20561 0.93573 0.0
H701 H 0.21955 0.20552 0.90774 0.0
H702 H 0.11393 0.21757 0.92655 0.0
H703 H 0.13904 0.21835 0.95467 0.0
C704 C 0.13772 0.0955 0.02109 0.0
C705 C 0.09844 0.09489 0.02411 0.0
C706 C 0.16885 0.12435 0.01058 0.0
C707 C 0.16137 0.1532 0.00297 0.0
C708 C 0.12236 0.1528 0.00604 0.0
C709 C 0.0913 0.12407 0.01653 0.0
C710 C 0.19372 0.1835 0.99156 0.0
C711 C 0.18049 0.18523 0.9756 0.0
C712 C 0.23722 0.21028 0.99625 0.0
C713 C 0.25275 0.21107 0.01311 0.0
C714 C 0.23204 0.21728 0.0265 0.0
C715 C 0.24673 0.21779 0.04236 0.0
C716 C 0.28232 0.21241 0.04497 0.0
C717 C 0.30337 0.20664 0.03173 0.0
C718 C 0.28877 0.20607 0.01584 0.0
C719 C 0.30151 0.33227 0.94134 0.0
C720 C 0.34249 0.33704 0.93775 0.0
C721 C 0.27244 0.30092 0.95145 0.0
C722 C 0.28357 0.27349 0.9581 0.0
C723 C 0.32444 0.27814 0.95457 0.0
C724 C 0.35358 0.30952 0.94444 0.0
C725 C 0.25276 0.24052 0.96901 0.0
C726 C 0.26627 0.23823 0.98487 0.0
C727 C 0.20951 0.21314 0.96421 0.0
C728 C 0.1941 0.21238 0.94731 0.0
C729 C 0.21646 0.20854 0.9339 0.0
C730 C 0.2021 0.20832 0.91801 0.0
C731 C 0.16521 0.21163 0.91537 0.0
C732 C 0.14253 0.21505 0.92862 0.0
C733 C 0.15679 0.21534 0.94454 0.0
H734 H 0.15415 0.21147 0.90305 0.0
H735 H 0.29365 0.21282 0.05726 0.0
H736 H 0.02185 0.08121 0.32111 0.0
H737 H 0.02059 0.1294 0.30161 0.0
H738 H 0.05308 0.2163 0.34029 0.0
H739 H 0.05493 0.1689 0.35972 0.0
H740 H 0.97921 0.20125 0.32177 0.0
H741 H 0.12772 0.23193 0.31364 0.0
H742 H 0.18425 0.21499 0.30684 0.0
H743 H 0.12741 0.17361 0.25951 0.0
H744 H 0.07015 0.18981 0.26613 0.0
H745 H 0.02213 0.38032 0.28244 0.0
H746 H 0.02603 0.32867 0.29869 0.0
H747 H 0.02171 0.26479 0.25466 0.0
H748 H 0.01955 0.31751 0.23834 0.0
H749 H 0.07711 0.26262 0.27423 0.0
H750 H 0.93105 0.23285 0.28069 0.0
H751 H 0.87148 0.24628 0.2866 0.0
H752 H 0.91778 0.27993 0.33568 0.0
H753 H 0.97802 0.26724 0.33 0.0
C754 C 0.02929 0.11079 0.3254 0.0
C755 C 0.03843 0.12118 0.34197 0.0
C756 C 0.02857 0.13825 0.31425 0.0
C757 C 0.03663 0.17634 0.31954 0.0
C758 C 0.04663 0.18701 0.33598 0.0
C759 C 0.04785 0.15988 0.34705 0.0
C760 C 0.03277 0.20466 0.30822 0.0
C761 C 1.00085 0.215 0.31145 0.0
C762 C 0.05991 0.22129 0.29442 0.0
C763 C 0.09436 0.21164 0.29045 0.0
C764 C 0.12703 0.21886 0.30184 0.0
C765 C 0.15926 0.20948 0.29801 0.0
C766 C 0.15934 0.19311 0.28277 0.0
C767 C 0.12726 0.18622 0.27132 0.0
C768 C 0.09493 0.19552 0.2751 0.0
C769 C 0.02182 0.35515 0.27626 0.0
C770 C 0.02022 0.35272 0.25916 0.0
C771 C 0.0239 0.32553 0.28554 0.0
C772 C 0.02323 0.29223 0.27796 0.0
C773 C 0.02215 0.29005 0.26083 0.0
C774 C 0.02085 0.32011 0.25152 0.0
C775 C 0.02399 0.26003 0.28794 0.0
C776 C 0.05517 0.24875 0.28445 0.0
C777 C 0.99558 0.2419 0.30137 0.0
C778 C 0.95926 0.24939 0.30488 0.0
C779 C 0.9287 0.24337 0.29271 0.0
C780 C 0.89479 0.25082 0.29603 0.0
C781 C 0.8909 0.26403 0.3115 0.0
C782 C 0.92086 0.26972 0.3237 0.0
C783 C 0.95486 0.26236 0.32045 0.0
H784 H 0.86462 0.26979 0.31404 0.0
H785 H 0.18433 0.18587 0.27983 0.0
loop_
_geom_bond_atom_site_label_1
_geom_bond_atom_site_label_2
_geom_bond_distance
_geom_bond_site_symmetry_2
_ccdc_geom_bond_type
O0 Cd1 2.223 1_455 S
O0 C8 1.315 . S
Cd1 O0 2.223 1_655 S
Cd1 O4 2.297 . S
Cd1 O5 2.439 . S
Cd1 O11 2.240 1_545 S
Cd2 O3 2.240 1_565 S
Cd2 O10 2.223 1_455 S
Cd2 O12 2.297 . S
Cd2 O13 2.439 . S
O3 Cd2 2.240 1_545 S
O3 C8 1.279 . S
O4 Cd1 2.297 . S
O4 C6 1.247 . S
O5 Cd1 2.439 . S
O5 C6 1.208 . S
C6 O4 1.247 . S
C6 O5 1.208 . S
C7 O12 1.247 . S
C7 O13 1.208 . S
C8 O0 1.315 . S
C8 O3 1.279 . S
C9 O10 1.315 . S
C9 O11 1.279 . S
O10 Cd2 2.223 1_655 S
O10 C9 1.315 . S
O11 Cd1 2.240 1_565 S
O11 C9 1.279 . S
O12 Cd2 2.297 . S
O12 C7 1.247 . S
O13 Cd2 2.439 . S
O13 C7 1.208 . S
O14 Cd15 2.223 1_655 S
O14 C22 1.315 . S
Cd15 O14 2.223 1_455 S
Cd15 O18 2.297 . S
Cd15 O19 2.439 . S
Cd15 O25 2.240 . S
Cd16 O17 2.240 . S
Cd16 O24 2.223 1_655 S
Cd16 O26 2.297 . S
Cd16 O27 2.451 . S
O17 Cd16 2.240 . S
O17 C22 1.279 1_565 S
O18 Cd15 2.297 . S
O18 C20 1.247 . S
O19 Cd15 2.439 . S
O19 C20 1.208 . S
C20 O18 1.247 . S
C20 O19 1.208 . S
C21 O26 1.247 . S
C21 O27 1.195 . S
C22 O14 1.315 . S
C22 O17 1.279 1_545 S
C23 O24 1.315 . S
C23 O25 1.279 1_565 S
O24 Cd16 2.223 1_455 S
O24 C23 1.315 . S
O25 Cd15 2.240 . S
O25 C23 1.279 1_545 S
O26 Cd16 2.297 . S
O26 C21 1.247 . S
O27 Cd16 2.451 . S
O27 C21 1.195 . S
O28 Cd29 2.223 . S
O28 C36 1.315 . S
Cd29 O28 2.223 . S
Cd29 O32 2.297 . S
Cd29 O33 2.439 . S
Cd29 O39 2.240 1_655 S
Cd30 O31 2.240 1_455 S
Cd30 O38 2.223 . S
Cd30 O40 2.297 . S
Cd30 O41 2.439 . S
O31 Cd30 2.240 1_655 S
O31 C36 1.279 1_545 S
O32 Cd29 2.297 . S
O32 C34 1.247 . S
O33 Cd29 2.439 . S
O33 C34 1.208 . S
C34 O32 1.247 . S
C34 O33 1.208 . S
C35 O40 1.247 . S
C35 O41 1.208 . S
C36 O28 1.315 . S
C36 O31 1.279 1_565 S
C37 O38 1.315 . S
C37 O39 1.279 1_545 S
O38 Cd30 2.223 . S
O38 C37 1.315 . S
O39 Cd29 2.240 1_455 S
O39 C37 1.279 1_565 S
O40 Cd30 2.297 . S
O40 C35 1.247 . S
O41 Cd30 2.439 . S
O41 C35 1.208 . S
H42 C61 0.949 . S
H43 C62 0.950 . S
H44 C64 0.950 . S
H45 C65 0.950 . S
H46 C67 0.950 . S
H47 C70 0.950 . S
H48 C71 0.950 . S
H49 C73 0.951 . S
H50 C74 0.949 . S
H51 C76 0.949 . S
H52 C77 0.950 . S
H53 C79 0.950 . S
H54 C80 0.950 . S
H55 C82 0.950 . S
H56 C85 0.950 . S
H57 C86 0.950 . S
H58 C88 0.951 . S
H59 C89 0.949 . S
C60 C61 1.376 . S
C60 C65 1.386 1_455 S
C60 C66 1.483 . S
C61 H42 0.949 . S
C61 C60 1.376 . S
C61 C62 1.397 . S
C62 H43 0.950 . S
C62 C61 1.397 . S
C62 C63 1.391 . S
C63 C62 1.391 . S
C63 C64 1.405 1_455 S
C64 H44 0.950 . S
C64 C63 1.405 1_655 S
C64 C65 1.367 . S
C65 H45 0.950 . S
C65 C60 1.386 1_655 S
C65 C64 1.367 . S
C66 C60 1.483 . S
C66 C67 1.382 . S
C66 C68 1.403 1_455 S
C67 H46 0.950 . S
C67 C66 1.382 . S
C67 C83 1.411 . S
C68 C66 1.403 1_655 S
C68 C69 1.489 . S
C68 C82 1.411 . S
C69 C68 1.489 . S
C69 C70 1.383 1_655 S
C69 C74 1.382 . S
C70 H47 0.950 . S
C70 C69 1.383 1_455 S
C70 C71 1.395 . S
C71 H48 0.950 . S
C71 C70 1.395 . S
C71 C72 1.288 1_455 S
C72 C71 1.288 1_655 S
C72 C73 1.392 . S
C73 H49 0.951 . S
C73 C72 1.392 . S
C73 C74 1.392 . S
C74 H50 0.949 . S
C74 C69 1.382 . S
C74 C73 1.392 . S
C75 C76 1.376 . S
C75 C80 1.386 1_655 S
C75 C81 1.483 . S
C76 H51 0.949 . S
C76 C75 1.376 . S
C76 C77 1.397 . S
C77 H52 0.950 . S
C77 C76 1.397 . S
C77 C78 1.391 . S
C78 C77 1.391 . S
C78 C79 1.405 1_655 S
C79 H53 0.950 . S
C79 C78 1.405 1_455 S
C79 C80 1.367 . S
C80 H54 0.950 . S
C80 C75 1.386 1_455 S
C80 C79 1.367 . S
C81 C75 1.483 . S
C81 C82 1.382 . S
C81 C83 1.403 1_655 S
C82 H55 0.950 . S
C82 C68 1.411 . S
C82 C81 1.382 . S
C83 C67 1.411 . S
C83 C81 1.403 1_455 S
C83 C84 1.489 . S
C84 C83 1.489 . S
C84 C85 1.383 1_455 S
C84 C89 1.382 . S
C85 H56 0.950 . S
C85 C84 1.383 1_655 S
C85 C86 1.395 . S
C86 H57 0.950 . S
C86 C85 1.395 . S
C86 C87 1.288 1_655 S
C87 C86 1.288 1_455 S
C87 C88 1.392 . S
C88 H58 0.951 . S
C88 C87 1.392 . S
C88 C89 1.392 . S
C89 H59 0.949 . S
C89 C84 1.382 . S
C89 C88 1.392 . S
H90 C109 0.949 . S
H91 C110 0.950 . S
H92 C112 0.950 . S
H93 C113 0.950 . S
H94 C115 0.950 . S
H95 C118 0.950 . S
H96 C119 0.950 . S
H97 C121 0.951 . S
H98 C122 0.949 . S
H99 C124 0.949 . S
H100 C125 0.950 . S
H101 C127 0.950 . S
H102 C128 0.950 . S
H103 C130 0.950 . S
H104 C133 0.950 . S
H105 C134 0.950 . S
H106 C136 0.951 . S
H107 C137 0.949 . S
C108 C109 1.376 . S
C108 C113 1.386 1_545 S
C108 C114 1.483 . S
C109 H90 0.949 . S
C109 C108 1.376 . S
C109 C110 1.397 . S
C110 H91 0.950 . S
C110 C109 1.397 . S
C110 C111 1.391 . S
C111 C110 1.391 . S
C111 C112 1.405 1_545 S
C112 H92 0.950 . S
C112 C111 1.405 1_565 S
C112 C113 1.367 . S
C113 H93 0.950 . S
C113 C108 1.386 1_565 S
C113 C112 1.367 . S
C114 C108 1.483 . S
C114 C115 1.382 . S
C114 C116 1.403 1_545 S
C115 H94 0.950 . S
C115 C114 1.382 . S
C115 C131 1.411 . S
C116 C114 1.403 1_565 S
C116 C117 1.489 . S
C116 C130 1.411 . S
C117 C116 1.489 . S
C117 C118 1.383 1_565 S
C117 C122 1.382 . S
C118 H95 0.950 . S
C118 C117 1.383 1_545 S
C118 C119 1.395 . S
C119 H96 0.950 . S
C119 C118 1.395 . S
C119 C120 1.288 1_545 S
C120 C119 1.288 1_565 S
C120 C121 1.392 . S
C121 H97 0.951 . S
C121 C120 1.392 . S
C121 C122 1.392 . S
C122 H98 0.949 . S
C122 C117 1.382 . S
C122 C121 1.392 . S
C123 C124 1.376 . S
C123 C128 1.386 1_565 S
C123 C129 1.483 . S
C124 H99 0.949 . S
C124 C123 1.376 . S
C124 C125 1.397 . S
C125 H100 0.950 . S
C125 C124 1.397 . S
C125 C126 1.423 . S
C126 C125 1.423 . S
C126 C127 1.388 1_565 S
C127 H101 0.950 . S
C127 C126 1.388 1_545 S
C127 C128 1.367 . S
C128 H102 0.950 . S
C128 C123 1.386 1_545 S
C128 C127 1.367 . S
C129 C123 1.483 . S
C129 C130 1.382 . S
C129 C131 1.403 1_565 S
C130 H103 0.950 . S
C130 C116 1.411 . S
C130 C129 1.382 . S
C131 C115 1.411 . S
C131 C129 1.403 1_545 S
C131 C132 1.489 . S
C132 C131 1.489 . S
C132 C133 1.383 1_545 S
C132 C137 1.382 . S
C133 H104 0.950 . S
C133 C132 1.383 1_565 S
C133 C134 1.395 . S
C134 H105 0.950 . S
C134 C133 1.395 . S
C134 C135 1.288 1_565 S
C135 C134 1.288 1_545 S
C135 C136 1.392 . S
C136 H106 0.951 . S
C136 C135 1.392 . S
C136 C137 1.392 . S
C137 H107 0.949 . S
C137 C132 1.382 . S
C137 C136 1.392 . S
H138 C157 0.949 . S
H139 C158 0.950 . S
H140 C160 0.950 . S
H141 C161 0.950 . S
H142 C163 0.950 . S
H143 C166 0.950 . S
H144 C167 0.950 . S
H145 C169 0.951 . S
H146 C170 0.949 . S
H147 C172 0.949 . S
H148 C173 0.950 . S
H149 C175 0.950 . S
H150 C176 0.950 . S
H151 C178 0.950 . S
H152 C181 0.950 . S
H153 C182 0.950 . S
H154 C184 0.951 . S
H155 C185 0.949 . S
C156 C157 1.376 . S
C156 C161 1.386 . S
C156 C162 1.483 . S
C157 H138 0.949 . S
C157 C156 1.376 . S
C157 C158 1.397 . S
C158 H139 0.950 . S
C158 C157 1.397 . S
C158 C159 1.391 . S
C159 C158 1.391 . S
C159 C160 1.405 . S
C160 H140 0.950 . S
C160 C159 1.405 . S
C160 C161 1.367 . S
C161 H141 0.950 . S
C161 C156 1.386 . S
C161 C160 1.367 . S
C162 C156 1.483 . S
C162 C163 1.382 . S
C162 C164 1.403 . S
C163 H142 0.950 . S
C163 C162 1.382 . S
C163 C179 1.411 . S
C164 C162 1.403 . S
C164 C165 1.489 . S
C164 C178 1.411 . S
C165 C164 1.489 . S
C165 C166 1.383 . S
C165 C170 1.382 . S
C166 H143 0.950 . S
C166 C165 1.383 . S
C166 C167 1.395 . S
C167 H144 0.950 . S
C167 C166 1.395 . S
C167 C168 1.288 . S
C168 C167 1.288 . S
C168 C169 1.392 . S
C169 H145 0.951 . S
C169 C168 1.392 . S
C169 C170 1.392 . S
C170 H146 0.949 . S
C170 C165 1.382 . S
C170 C169 1.392 . S
C171 C172 1.376 . S
C171 C176 1.386 . S
C171 C177 1.483 . S
C172 H147 0.949 . S
C172 C171 1.376 . S
C172 C173 1.397 . S
C173 H148 0.950 . S
C173 C172 1.397 . S
C173 C174 1.391 . S
C174 C173 1.391 . S
C174 C175 1.405 . S
C175 H149 0.950 . S
C175 C174 1.405 . S
C175 C176 1.367 . S
C176 H150 0.950 . S
C176 C171 1.386 . S
C176 C175 1.367 . S
C177 C171 1.483 . S
C177 C178 1.382 . S
C177 C179 1.403 . S
C178 H151 0.950 . S
C178 C164 1.411 . S
C178 C177 1.382 . S
C179 C163 1.411 . S
C179 C177 1.403 . S
C179 C180 1.489 . S
C180 C179 1.489 . S
C180 C181 1.383 . S
C180 C185 1.382 . S
C181 H152 0.950 . S
C181 C180 1.383 . S
C181 C182 1.395 . S
C182 H153 0.950 . S
C182 C181 1.395 . S
C182 C183 1.288 . S
C183 C182 1.288 . S
C183 C184 1.392 . S
C184 H154 0.951 . S
C184 C183 1.392 . S
C184 C185 1.392 . S
C185 H155 0.949 . S
C185 C180 1.382 . S
C185 C184 1.392 . S
H186 C204 0.951 . S
H187 C206 0.951 . S
H188 C208 0.950 . S
H189 C209 0.950 . S
H190 C211 0.950 . S
H191 C214 0.950 . S
H192 C215 0.950 . S
H193 C217 0.950 . S
H194 C218 0.950 . S
H195 C219 0.951 . S
H196 C221 0.951 . S
H197 C223 0.950 . S
H198 C224 0.950 . S
H199 C226 0.950 . S
H200 C229 0.950 . S
H201 C230 0.950 . S
H202 C232 0.950 . S
H203 C233 0.950 . S
C204 H186 0.951 . S
C204 C205 1.366 1_655 S
C204 C206 1.388 . S
C205 C204 1.366 1_455 S
C205 C209 1.385 . S
C206 H187 0.951 . S
C206 C204 1.388 . S
C206 C207 1.361 1_655 S
C207 C206 1.361 1_455 S
C207 C208 1.423 . S
C207 C210 1.494 . S
C208 H188 0.950 . S
C208 C207 1.423 . S
C208 C209 1.374 . S
C209 H189 0.950 . S
C209 C205 1.385 . S
C209 C208 1.374 . S
C210 C207 1.494 . S
C210 C211 1.373 . S
C210 C212 1.389 1_455 S
C211 H190 0.950 . S
C211 C210 1.373 . S
C211 C227 1.377 . S
C212 C210 1.389 1_655 S
C212 C213 1.524 . S
C212 C226 1.377 . S
C213 C212 1.524 . S
C213 C214 1.397 . S
C213 C218 1.363 . S
C214 H191 0.950 . S
C214 C213 1.397 . S
C214 C215 1.334 . S
C215 H192 0.950 . S
C215 C214 1.334 . S
C215 C216 1.287 . S
C216 C215 1.287 . S
C216 C217 1.524 . S
C216 H235 0.913 . S
C217 H193 0.950 . S
C217 C216 1.524 . S
C217 C218 1.415 . S
C218 H194 0.950 . S
C218 C213 1.363 . S
C218 C217 1.415 . S
C219 H195 0.951 . S
C219 C220 1.370 . S
C219 C221 1.388 . S
C220 C219 1.370 . S
C220 C224 1.383 1_455 S
C221 H196 0.951 . S
C221 C219 1.388 . S
C221 C222 1.366 . S
C222 C221 1.366 . S
C222 C223 1.414 1_455 S
C222 C225 1.500 . S
C223 H197 0.950 . S
C223 C222 1.414 1_655 S
C223 C224 1.374 . S
C224 H198 0.950 . S
C224 C220 1.383 1_655 S
C224 C223 1.374 . S
C225 C222 1.500 . S
C225 C226 1.375 1_455 S
C225 C227 1.386 . S
C226 H199 0.950 . S
C226 C212 1.377 . S
C226 C225 1.375 1_655 S
C227 C211 1.377 . S
C227 C225 1.386 . S
C227 C228 1.524 . S
C228 C227 1.524 . S
C228 C229 1.397 . S
C228 C233 1.363 . S
C229 H200 0.950 . S
C229 C228 1.397 . S
C229 C230 1.334 . S
C230 H201 0.950 . S
C230 C229 1.334 . S
C230 C231 1.287 . S
C231 C230 1.287 . S
C231 C232 1.524 . S
C231 H234 0.999 . S
C232 H202 0.950 . S
C232 C231 1.524 . S
C232 C233 1.415 . S
C233 H203 0.950 . S
C233 C228 1.363 . S
C233 C232 1.415 . S
H234 C231 0.999 . S
H235 C216 0.913 . S
H236 C254 0.951 . S
H237 C256 0.951 . S
H238 C258 0.950 . S
H239 C259 0.950 . S
H240 C261 0.950 . S
H241 C264 0.950 . S
H242 C265 0.950 . S
H243 C267 0.950 1_545 S
H244 C268 0.950 . S
H245 C269 0.951 . S
H246 C271 0.951 . S
H247 C273 0.950 . S
H248 C274 0.950 . S
H249 C276 0.950 . S
H250 C279 0.950 . S
H251 C280 0.950 . S
H252 C282 0.945 1_565 S
H253 C283 0.925 1_565 S
C254 H236 0.951 . S
C254 C255 1.366 . S
C254 C256 1.388 . S
C255 C254 1.366 . S
C255 C259 1.385 1_545 S
C256 H237 0.951 . S
C256 C254 1.388 . S
C256 C257 1.368 . S
C257 C256 1.368 . S
C257 C258 1.403 1_545 S
C257 C260 1.514 1_545 S
C258 H238 0.950 . S
C258 C257 1.403 1_565 S
C258 C259 1.374 . S
C259 H239 0.950 . S
C259 C255 1.385 1_565 S
C259 C258 1.374 . S
C260 C257 1.514 1_565 S
C260 C261 1.363 1_565 S
C260 C262 1.392 . S
C261 H240 0.950 . S
C261 C260 1.363 1_545 S
C261 C277 1.377 . S
C262 C260 1.392 . S
C262 C263 1.524 . S
C262 C276 1.377 . S
C263 C262 1.524 . S
C263 C264 1.397 . S
C263 C268 1.363 1_565 S
C264 H241 0.950 . S
C264 C263 1.397 . S
C264 C265 1.334 . S
C265 H242 0.950 . S
C265 C264 1.334 . S
C265 C266 1.287 . S
C266 C265 1.287 . S
C266 C267 1.524 . S
C266 H285 0.913 . S
C267 H243 0.950 1_565 S
C267 C266 1.524 . S
C267 C268 1.415 1_565 S
C268 H244 0.950 . S
C268 C263 1.363 1_545 S
C268 C267 1.415 1_545 S
C269 H245 0.951 . S
C269 C270 1.359 1_565 S
C269 C271 1.388 . S
C270 C269 1.359 1_545 S
C270 C274 1.386 . S
C271 H246 0.951 . S
C271 C269 1.388 . S
C271 C272 1.366 1_565 S
C272 C271 1.366 1_545 S
C272 C273 1.414 . S
C272 C275 1.499 . S
C273 H247 0.950 . S
C273 C272 1.414 . S
C273 C274 1.374 . S
C274 H248 0.950 . S
C274 C270 1.386 . S
C274 C273 1.374 . S
C275 C272 1.499 . S
C275 C276 1.373 1_545 S
C275 C277 1.389 . S
C276 H249 0.950 . S
C276 C262 1.377 . S
C276 C275 1.373 1_565 S
C277 C261 1.377 . S
C277 C275 1.389 . S
C277 C278 1.524 . S
C278 C277 1.524 . S
C278 C279 1.397 . S
C278 C283 1.370 . S
C279 H250 0.950 . S
C279 C278 1.397 . S
C279 C280 1.334 . S
C280 H251 0.950 . S
C280 C279 1.334 . S
C280 C281 1.287 . S
C281 C280 1.287 . S
C281 C282 1.524 . S
C281 H284 0.999 . S
C282 H252 0.945 1_545 S
C282 C281 1.524 . S
C282 C283 1.433 . S
C283 H253 0.925 1_545 S
C283 C278 1.370 . S
C283 C282 1.433 . S
H284 C281 0.999 . S
H285 C266 0.913 . S
H286 C304 0.951 . S
H287 C306 0.951 . S
H288 C308 0.950 . S
H289 C309 0.950 . S
H290 C311 0.950 . S
H291 C314 0.950 . S
H292 C315 0.950 . S
H293 C317 0.950 . S
H294 C318 0.950 . S
H295 C319 0.951 . S
H296 C321 0.951 . S
H297 C323 0.950 . S
H298 C324 0.950 . S
H299 C326 0.950 . S
H300 C329 0.950 . S
H301 C330 0.950 . S
H302 C332 0.950 . S
H303 C333 0.950 . S
C304 H286 0.951 . S
C304 C305 1.366 . S
C304 C306 1.388 . S
C305 C304 1.366 . S
C305 C309 1.385 . S
C306 H287 0.951 . S
C306 C304 1.388 . S
C306 C307 1.366 . S
C307 C306 1.366 . S
C307 C308 1.414 . S
C307 C310 1.499 . S
C308 H288 0.950 . S
C308 C307 1.414 . S
C308 C309 1.374 . S
C309 H289 0.950 . S
C309 C305 1.385 . S
C309 C308 1.374 . S
C310 C307 1.499 . S
C310 C311 1.373 . S
C310 C312 1.389 . S
C311 H290 0.950 . S
C311 C310 1.373 . S
C311 C327 1.377 . S
C312 C310 1.389 . S
C312 C313 1.524 . S
C312 C326 1.377 . S
C313 C312 1.524 . S
C313 C314 1.397 . S
C313 C318 1.363 . S
C314 H291 0.950 . S
C314 C313 1.397 . S
C314 C315 1.334 . S
C315 H292 0.950 . S
C315 C314 1.334 . S
C315 C316 1.287 . S
C316 C315 1.287 . S
C316 C317 1.524 . S
C316 H335 0.913 . S
C317 H293 0.950 . S
C317 C316 1.524 . S
C317 C318 1.415 . S
C318 H294 0.950 . S
C318 C313 1.363 . S
C318 C317 1.415 . S
C319 H295 0.951 . S
C319 C320 1.366 . S
C319 C321 1.388 . S
C320 C319 1.366 . S
C320 C324 1.385 . S
C321 H296 0.951 . S
C321 C319 1.388 . S
C321 C322 1.366 . S
C322 C321 1.366 . S
C322 C323 1.414 . S
C322 C325 1.499 . S
C323 H297 0.950 . S
C323 C322 1.414 . S
C323 C324 1.374 . S
C324 H298 0.950 . S
C324 C320 1.385 . S
C324 C323 1.374 . S
C325 C322 1.499 . S
C325 C326 1.373 . S
C325 C327 1.389 . S
C326 H299 0.950 . S
C326 C312 1.377 . S
C326 C325 1.373 . S
C327 C311 1.377 . S
C327 C325 1.389 . S
C327 C328 1.524 . S
C328 C327 1.524 . S
C328 C329 1.397 . S
C328 C333 1.363 . S
C329 H300 0.950 . S
C329 C328 1.397 . S
C329 C330 1.334 . S
C330 H301 0.950 . S
C330 C329 1.334 . S
C330 C331 1.287 . S
C331 C330 1.287 . S
C331 C332 1.524 . S
C331 H334 0.999 . S
C332 H302 0.950 . S
C332 C331 1.524 . S
C332 C333 1.415 . S
C333 H303 0.950 . S
C333 C328 1.363 . S
C333 C332 1.415 . S
H334 C331 0.999 . S
H335 C316 0.913 . S
H336 C354 0.951 . S
H337 C356 0.951 . S
H338 C358 0.950 . S
H339 C359 0.950 . S
H340 C361 0.950 . S
H341 C364 0.950 . S
H342 C365 0.950 . S
H343 C367 0.950 . S
H344 C368 0.950 . S
H345 C369 0.951 . S
H346 C371 0.951 . S
H347 C373 0.950 . S
H348 C374 0.950 . S
H349 C376 0.950 . S
H350 C379 0.950 . S
H351 C380 0.950 . S
H352 C382 0.950 . S
H353 C383 0.950 . S
C354 H336 0.951 . S
C354 C355 1.356 1_455 S
C354 C356 1.388 . S
C355 C354 1.356 1_655 S
C355 C359 1.388 . S
C356 H337 0.951 . S
C356 C354 1.388 . S
C356 C357 1.366 1_455 S
C357 C356 1.366 1_655 S
C357 C358 1.414 . S
C357 C360 1.499 . S
C358 H338 0.950 . S
C358 C357 1.414 . S
C358 C359 1.374 . S
C359 H339 0.950 . S
C359 C355 1.388 . S
C359 C358 1.374 . S
C360 C357 1.499 . S
C360 C361 1.373 1_655 S
C360 C362 1.389 . S
C361 H340 0.950 . S
C361 C360 1.373 1_455 S
C361 C377 1.377 . S
C362 C360 1.389 . S
C362 C363 1.524 . S
C362 C376 1.377 . S
C363 C362 1.524 . S
C363 C364 1.397 . S
C363 C368 1.363 . S
C364 H341 0.950 . S
C364 C363 1.397 . S
C364 C365 1.334 . S
C365 H342 0.950 . S
C365 C364 1.334 . S
C365 C366 1.287 . S
C366 C365 1.287 . S
C366 C367 1.524 . S
C366 H385 0.913 . S
C367 H343 0.950 . S
C367 C366 1.524 . S
C367 C368 1.415 . S
C368 H344 0.950 . S
C368 C363 1.363 . S
C368 C367 1.415 . S
C369 H345 0.951 . S
C369 C370 1.366 1_655 S
C369 C371 1.388 . S
C370 C369 1.366 1_455 S
C370 C374 1.385 . S
C371 H346 0.951 . S
C371 C369 1.388 . S
C371 C372 1.366 1_655 S
C372 C371 1.366 1_455 S
C372 C373 1.414 . S
C372 C375 1.499 . S
C373 H347 0.950 . S
C373 C372 1.414 . S
C373 C374 1.374 . S
C374 H348 0.950 . S
C374 C370 1.385 . S
C374 C373 1.374 . S
C375 C372 1.499 . S
C375 C376 1.373 1_455 S
C375 C377 1.389 . S
C376 H349 0.950 . S
C376 C362 1.377 . S
C376 C375 1.373 1_655 S
C377 C361 1.377 . S
C377 C375 1.389 . S
C377 C378 1.524 . S
C378 C377 1.524 . S
C378 C379 1.397 . S
C378 C383 1.363 . S
C379 H350 0.950 . S
C379 C378 1.397 . S
C379 C380 1.334 . S
C380 H351 0.950 . S
C380 C379 1.334 . S
C380 C381 1.287 . S
C381 C380 1.287 . S
C381 C382 1.524 . S
C381 H384 0.999 . S
C382 H352 0.950 . S
C382 C381 1.524 . S
C382 C383 1.415 . S
C383 H353 0.950 . S
C383 C378 1.363 . S
C383 C382 1.415 . S
H384 C381 0.999 . S
H385 C366 0.913 . S
H386 C404 0.951 . S
H387 C406 0.951 . S
H388 C408 0.950 . S
H389 C409 0.950 . S
H390 C411 0.950 . S
H391 C414 0.950 . S
H392 C415 0.950 . S
H393 C417 0.950 . S
H394 C418 0.950 . S
H395 C419 0.951 . S
H396 C421 0.951 . S
H397 C423 0.948 1_565 S
H398 C424 0.945 . S
H399 C426 0.950 . S
H400 C429 0.950 . S
H401 C430 0.950 . S
H402 C432 0.950 . S
H403 C433 0.950 . S
C404 H386 0.951 . S
C404 C405 1.366 . S
C404 C406 1.388 . S
C405 C404 1.366 . S
C405 C409 1.385 . S
C406 H387 0.951 . S
C406 C404 1.388 . S
C406 C407 1.366 . S
C407 C406 1.366 . S
C407 C408 1.414 . S
C407 C410 1.499 . S
C408 H388 0.950 . S
C408 C407 1.414 . S
C408 C409 1.374 . S
C409 H389 0.950 . S
C409 C405 1.385 . S
C409 C408 1.374 . S
C410 C407 1.499 . S
C410 C411 1.373 1_565 S
C410 C412 1.389 . S
C411 H390 0.950 . S
C411 C410 1.373 1_545 S
C411 C427 1.377 . S
C412 C410 1.389 . S
C412 C413 1.524 . S
C412 C426 1.377 . S
C413 C412 1.524 . S
C413 C414 1.397 . S
C413 C418 1.363 . S
C414 H391 0.950 . S
C414 C413 1.397 . S
C414 C415 1.334 . S
C415 H392 0.950 . S
C415 C414 1.334 . S
C415 C416 1.287 . S
C416 C415 1.287 . S
C416 C417 1.524 . S
C416 H435 0.913 . S
C417 H393 0.950 . S
C417 C416 1.524 . S
C417 C418 1.415 . S
C418 H394 0.950 . S
C418 C413 1.363 . S
C418 C417 1.415 . S
C419 H395 0.951 . S
C419 C420 1.353 . S
C419 C421 1.398 . S
C420 C419 1.353 . S
C420 C424 1.385 1_545 S
C421 H396 0.951 . S
C421 C419 1.398 . S
C421 C422 1.366 . S
C422 C421 1.366 . S
C422 C423 1.414 . S
C422 C425 1.499 . S
C423 H397 0.948 1_545 S
C423 C422 1.414 . S
C423 C424 1.373 1_545 S
C424 H398 0.945 . S
C424 C420 1.385 1_565 S
C424 C423 1.373 1_565 S
C425 C422 1.499 . S
C425 C426 1.373 1_545 S
C425 C427 1.389 . S
C426 H399 0.950 . S
C426 C412 1.377 . S
C426 C425 1.373 1_565 S
C427 C411 1.377 . S
C427 C425 1.389 . S
C427 C428 1.524 . S
C428 C427 1.524 . S
C428 C429 1.397 . S
C428 C433 1.363 . S
C429 H400 0.950 . S
C429 C428 1.397 . S
C429 C430 1.334 . S
C430 H401 0.950 . S
C430 C429 1.334 . S
C430 C431 1.287 . S
C431 C430 1.287 . S
C431 C432 1.524 . S
C431 H434 0.999 . S
C432 H402 0.950 . S
C432 C431 1.524 . S
C432 C433 1.415 . S
C433 H403 0.950 . S
C433 C428 1.363 . S
C433 C432 1.415 . S
H434 C431 0.999 . S
H435 C416 0.913 . S
H436 C454 0.951 . S
H437 C456 0.951 . S
H438 C458 0.950 . S
H439 C459 0.950 . S
H440 C461 0.950 . S
H441 C464 0.950 . S
H442 C465 0.950 . S
H443 C467 0.950 . S
H444 C468 0.950 . S
H445 C469 0.951 . S
H446 C471 0.951 . S
H447 C473 0.950 . S
H448 C474 0.950 . S
H449 C476 0.950 . S
H450 C479 0.950 . S
H451 C480 0.950 . S
H452 C482 0.950 . S
H453 C483 0.950 . S
C454 H436 0.951 . S
C454 C455 1.366 . S
C454 C456 1.388 . S
C455 C454 1.366 . S
C455 C459 1.385 . S
C456 H437 0.951 . S
C456 C454 1.388 . S
C456 C457 1.366 . S
C457 C456 1.366 . S
C457 C458 1.414 . S
C457 C460 1.499 . S
C458 H438 0.950 . S
C458 C457 1.414 . S
C458 C459 1.374 . S
C459 H439 0.950 . S
C459 C455 1.385 . S
C459 C458 1.374 . S
C460 C457 1.499 . S
C460 C461 1.373 . S
C460 C462 1.389 . S
C461 H440 0.950 . S
C461 C460 1.373 . S
C461 C477 1.377 . S
C462 C460 1.389 . S
C462 C463 1.524 . S
C462 C476 1.377 . S
C463 C462 1.524 . S
C463 C464 1.397 . S
C463 C468 1.363 . S
C464 H441 0.950 . S
C464 C463 1.397 . S
C464 C465 1.334 . S
C465 H442 0.950 . S
C465 C464 1.334 . S
C465 C466 1.287 . S
C466 C465 1.287 . S
C466 C467 1.524 . S
C466 H485 0.913 . S
C467 H443 0.950 . S
C467 C466 1.524 . S
C467 C468 1.415 . S
C468 H444 0.950 . S
C468 C463 1.363 . S
C468 C467 1.415 . S
C469 H445 0.951 . S
C469 C470 1.366 . S
C469 C471 1.388 . S
C470 C469 1.366 . S
C470 C474 1.385 . S
C471 H446 0.951 . S
C471 C469 1.388 . S
C471 C472 1.366 . S
C472 C471 1.366 . S
C472 C473 1.414 . S
C472 C475 1.499 . S
C473 H447 0.950 . S
C473 C472 1.414 . S
C473 C474 1.374 . S
C474 H448 0.950 . S
C474 C470 1.385 . S
C474 C473 1.374 . S
C475 C472 1.499 . S
C475 C476 1.373 . S
C475 C477 1.389 . S
C476 H449 0.950 . S
C476 C462 1.377 . S
C476 C475 1.373 . S
C477 C461 1.377 . S
C477 C475 1.389 . S
C477 C478 1.524 . S
C478 C477 1.524 . S
C478 C479 1.397 . S
C478 C483 1.363 . S
C479 H450 0.950 . S
C479 C478 1.397 . S
C479 C480 1.334 . S
C480 H451 0.950 . S
C480 C479 1.334 . S
C480 C481 1.287 . S
C481 C480 1.287 . S
C481 C482 1.524 . S
C481 H484 0.999 . S
C482 H452 0.950 . S
C482 C481 1.524 . S
C482 C483 1.415 . S
C483 H453 0.950 . S
C483 C478 1.363 . S
C483 C482 1.415 . S
H484 C481 0.999 . S
H485 C466 0.913 . S
H486 C504 0.951 . S
H487 C506 0.951 . S
H488 C508 0.951 . S
H489 C509 0.951 . S
H490 C511 0.950 . S
H491 C514 0.950 . S
H492 C515 0.950 . S
H493 C517 0.950 . S
H494 C518 0.950 . S
H495 C519 0.951 . S
H496 C521 0.951 . S
H497 C523 0.950 . S
H498 C524 0.950 . S
H499 C526 0.950 . S
H500 C529 0.950 . S
H501 C530 0.950 . S
H502 C532 0.950 . S
H503 C533 0.950 . S
C504 H486 0.951 . S
C504 C505 1.366 . S
C504 C506 1.388 . S
C505 C504 1.366 . S
C505 C509 1.385 1_565 S
C506 H487 0.951 . S
C506 C504 1.388 . S
C506 C507 1.366 . S
C507 C506 1.366 . S
C507 C508 1.414 1_565 S
C507 C510 1.499 . S
C508 H488 0.951 . S
C508 C507 1.414 1_545 S
C508 C509 1.373 . S
C509 H489 0.951 . S
C509 C505 1.385 1_545 S
C509 C508 1.373 . S
C510 C507 1.499 . S
C510 C511 1.373 1_565 S
C510 C512 1.389 . S
C511 H490 0.950 . S
C511 C510 1.373 1_545 S
C511 C527 1.377 . S
C512 C510 1.389 . S
C512 C513 1.524 . S
C512 C526 1.377 . S
C513 C512 1.524 . S
C513 C514 1.397 . S
C513 C518 1.363 . S
C514 H491 0.950 . S
C514 C513 1.397 . S
C514 C515 1.334 . S
C515 H492 0.950 . S
C515 C514 1.334 . S
C515 C516 1.287 . S
C516 C515 1.287 . S
C516 C517 1.524 . S
C516 H535 0.913 . S
C517 H493 0.950 . S
C517 C516 1.524 . S
C517 C518 1.415 . S
C518 H494 0.950 . S
C518 C513 1.363 . S
C518 C517 1.415 . S
C519 H495 0.951 . S
C519 C520 1.365 1_545 S
C519 C521 1.388 . S
C520 C519 1.365 1_565 S
C520 C524 1.385 . S
C521 H496 0.951 . S
C521 C519 1.388 . S
C521 C522 1.367 . S
C522 C521 1.367 . S
C522 C523 1.425 1_545 S
C522 C525 1.489 . S
C523 H497 0.950 . S
C523 C522 1.425 1_565 S
C523 C524 1.374 . S
C524 H498 0.950 . S
C524 C520 1.385 . S
C524 C523 1.374 . S
C525 C522 1.489 . S
C525 C526 1.369 1_545 S
C525 C527 1.391 . S
C526 H499 0.950 . S
C526 C512 1.377 . S
C526 C525 1.369 1_565 S
C527 C511 1.377 . S
C527 C525 1.391 . S
C527 C528 1.524 . S
C528 C527 1.524 . S
C528 C529 1.397 . S
C528 C533 1.363 . S
C529 H500 0.950 . S
C529 C528 1.397 . S
C529 C530 1.334 . S
C530 H501 0.950 . S
C530 C529 1.334 . S
C530 C531 1.287 . S
C531 C530 1.287 . S
C531 C532 1.524 . S
C531 H534 0.999 . S
C532 H502 0.950 . S
C532 C531 1.524 . S
C532 C533 1.415 . S
C533 H503 0.950 . S
C533 C528 1.363 . S
C533 C532 1.415 . S
H534 C531 0.999 . S
H535 C516 0.913 . S
H536 C554 0.951 . S
H537 C556 0.951 . S
H538 C558 0.950 . S
H539 C559 0.950 . S
H540 C561 0.950 . S
H541 C564 0.950 . S
H542 C565 0.950 . S
H543 C567 0.950 . S
H544 C568 0.950 . S
H545 C569 0.951 . S
H546 C571 0.951 . S
H547 C573 0.950 . S
H548 C574 0.950 . S
H549 C576 0.950 . S
H550 C579 0.950 . S
H551 C580 0.950 . S
H552 C582 0.950 . S
H553 C583 0.950 . S
C554 H536 0.951 . S
C554 C555 1.366 . S
C554 C556 1.388 1_554 S
C555 C554 1.366 . S
C555 C559 1.385 . S
C556 H537 0.951 . S
C556 C554 1.388 1_556 S
C556 C557 1.366 . S
C557 C556 1.366 . S
C557 C558 1.414 1_556 S
C557 C560 1.499 . S
C558 H538 0.950 . S
C558 C557 1.414 1_554 S
C558 C559 1.374 . S
C559 H539 0.950 . S
C559 C555 1.385 . S
C559 C558 1.374 . S
C560 C557 1.499 . S
C560 C561 1.373 . S
C560 C562 1.389 . S
C561 H540 0.950 . S
C561 C560 1.373 . S
C561 C577 1.377 . S
C562 C560 1.389 . S
C562 C563 1.524 . S
C562 C576 1.377 . S
C563 C562 1.524 . S
C563 C564 1.397 1_556 S
C563 C568 1.363 . S
C564 H541 0.950 . S
C564 C563 1.397 1_554 S
C564 C565 1.334 . S
C565 H542 0.950 . S
C565 C564 1.334 . S
C565 C566 1.287 . S
C566 C565 1.287 . S
C566 C567 1.524 1_554 S
C566 H585 0.913 . S
C567 H543 0.950 . S
C567 C566 1.524 1_556 S
C567 C568 1.415 . S
C568 H544 0.950 . S
C568 C563 1.363 . S
C568 C567 1.415 . S
C569 H545 0.951 . S
C569 C570 1.366 . S
C569 C571 1.388 . S
C570 C569 1.366 . S
C570 C574 1.385 . S
C571 H546 0.951 . S
C571 C569 1.388 . S
C571 C572 1.366 . S
C572 C571 1.366 . S
C572 C573 1.414 . S
C572 C575 1.499 . S
C573 H547 0.950 . S
C573 C572 1.414 . S
C573 C574 1.374 . S
C574 H548 0.950 . S
C574 C570 1.385 . S
C574 C573 1.374 . S
C575 C572 1.499 . S
C575 C576 1.373 . S
C575 C577 1.389 . S
C576 H549 0.950 . S
C576 C562 1.377 . S
C576 C575 1.373 . S
C577 C561 1.377 . S
C577 C575 1.389 . S
C577 C578 1.524 . S
C578 C577 1.524 . S
C578 C579 1.397 . S
C578 C583 1.363 . S
C579 H550 0.950 . S
C579 C578 1.397 . S
C579 C580 1.334 . S
C580 H551 0.950 . S
C580 C579 1.334 . S
C580 C581 1.287 . S
C581 C580 1.287 . S
C581 C582 1.524 . S
C581 H584 0.999 . S
C582 H552 0.950 . S
C582 C581 1.524 . S
C582 C583 1.415 . S
C583 H553 0.950 . S
C583 C578 1.363 . S
C583 C582 1.415 . S
H584 C581 0.999 . S
H585 C566 0.913 . S
H586 C604 0.951 . S
H587 C606 0.951 . S
H588 C608 0.950 . S
H589 C609 0.950 . S
H590 C611 0.950 . S
H591 C614 0.950 . S
H592 C615 0.950 . S
H593 C617 0.950 . S
H594 C618 0.950 . S
H595 C619 0.951 . S
H596 C621 0.951 . S
H597 C623 0.950 . S
H598 C624 0.950 . S
H599 C626 0.950 . S
H600 C629 0.950 . S
H601 C630 0.950 . S
H602 C632 0.950 . S
H603 C633 0.950 . S
C604 H586 0.951 . S
C604 C605 1.366 . S
C604 C606 1.388 . S
C605 C604 1.366 . S
C605 C609 1.385 1_455 S
C606 H587 0.951 . S
C606 C604 1.388 . S
C606 C607 1.366 . S
C607 C606 1.366 . S
C607 C608 1.414 1_455 S
C607 C610 1.499 . S
C608 H588 0.950 . S
C608 C607 1.414 1_655 S
C608 C609 1.374 . S
C609 H589 0.950 . S
C609 C605 1.385 1_655 S
C609 C608 1.374 . S
C610 C607 1.499 . S
C610 C611 1.373 1_455 S
C610 C612 1.389 . S
C611 H590 0.950 . S
C611 C610 1.373 1_655 S
C611 C627 1.377 . S
C612 C610 1.389 . S
C612 C613 1.524 . S
C612 C626 1.377 . S
C613 C612 1.524 . S
C613 C614 1.397 . S
C613 C618 1.363 . S
C614 H591 0.950 . S
C614 C613 1.397 . S
C614 C615 1.334 . S
C615 H592 0.950 . S
C615 C614 1.334 . S
C615 C616 1.287 . S
C616 C615 1.287 . S
C616 C617 1.524 . S
C616 H635 0.913 . S
C617 H593 0.950 . S
C617 C616 1.524 . S
C617 C618 1.415 . S
C618 H594 0.950 . S
C618 C613 1.363 . S
C618 C617 1.415 . S
C619 H595 0.951 . S
C619 C620 1.352 1_655 S
C619 C621 1.388 . S
C620 C619 1.352 1_455 S
C620 C624 1.393 . S
C621 H596 0.951 . S
C621 C619 1.388 . S
C621 C622 1.348 1_655 S
C622 C621 1.348 1_455 S
C622 C623 1.444 . S
C622 C625 1.488 . S
C623 H597 0.950 . S
C623 C622 1.444 . S
C623 C624 1.374 . S
C624 H598 0.950 . S
C624 C620 1.393 . S
C624 C623 1.374 . S
C625 C622 1.488 . S
C625 C626 1.373 . S
C625 C627 1.389 1_455 S
C626 H599 0.950 . S
C626 C612 1.377 . S
C626 C625 1.373 . S
C627 C611 1.377 . S
C627 C625 1.389 1_655 S
C627 C628 1.524 . S
C628 C627 1.524 . S
C628 C629 1.397 . S
C628 C633 1.363 . S
C629 H600 0.950 . S
C629 C628 1.397 . S
C629 C630 1.334 . S
C630 H601 0.950 . S
C630 C629 1.334 . S
C630 C631 1.287 . S
C631 C630 1.287 . S
C631 C632 1.524 . S
C631 H634 0.999 . S
C632 H602 0.950 . S
C632 C631 1.524 . S
C632 C633 1.415 . S
C633 H603 0.950 . S
C633 C628 1.363 . S
C633 C632 1.415 . S
H634 C631 0.999 . S
H635 C616 0.913 . S
H636 C654 0.951 . S
H637 C656 0.951 . S
H638 C658 0.951 . S
H639 C659 0.950 . S
H640 C661 0.950 . S
H641 C664 0.950 . S
H642 C665 0.950 . S
H643 C667 0.950 . S
H644 C668 0.950 . S
H645 C669 0.951 . S
H646 C671 0.951 . S
H647 C673 0.950 . S
H648 C674 0.950 . S
H649 C676 0.950 . S
H650 C679 0.950 . S
H651 C680 0.950 . S
H652 C682 0.950 . S
H653 C683 0.950 . S
C654 H636 0.951 . S
C654 C655 1.366 . S
C654 C656 1.388 . S
C655 C654 1.366 . S
C655 C659 1.385 . S
C656 H637 0.951 . S
C656 C654 1.388 . S
C656 C657 1.366 . S
C657 C656 1.366 . S
C657 C658 1.414 . S
C657 C660 1.499 . S
C658 H638 0.951 . S
C658 C657 1.414 . S
C658 C659 1.374 . S
C659 H639 0.950 . S
C659 C655 1.385 . S
C659 C658 1.374 . S
C660 C657 1.499 . S
C660 C661 1.373 1_545 S
C660 C662 1.389 . S
C661 H640 0.950 . S
C661 C660 1.373 1_565 S
C661 C677 1.377 . S
C662 C660 1.389 . S
C662 C663 1.524 . S
C662 C676 1.377 . S
C663 C662 1.524 . S
C663 C664 1.397 . S
C663 C668 1.363 . S
C664 H641 0.950 . S
C664 C663 1.397 . S
C664 C665 1.334 . S
C665 H642 0.950 . S
C665 C664 1.334 . S
C665 C666 1.287 . S
C666 C665 1.287 . S
C666 C667 1.524 . S
C666 H685 0.913 . S
C667 H643 0.950 . S
C667 C666 1.524 . S
C667 C668 1.415 . S
C668 H644 0.950 . S
C668 C663 1.363 . S
C668 C667 1.415 . S
C669 H645 0.951 . S
C669 C670 1.378 1_565 S
C669 C671 1.388 . S
C670 C669 1.378 1_545 S
C670 C674 1.384 . S
C671 H646 0.951 . S
C671 C669 1.388 . S
C671 C672 1.365 . S
C672 C671 1.365 . S
C672 C673 1.415 1_565 S
C672 C675 1.494 1_565 S
C673 H647 0.950 . S
C673 C672 1.415 1_545 S
C673 C674 1.374 . S
C674 H648 0.950 . S
C674 C670 1.384 . S
C674 C673 1.374 . S
C675 C672 1.494 1_545 S
C675 C676 1.380 . S
C675 C677 1.388 1_545 S
C676 H649 0.950 . S
C676 C662 1.377 . S
C676 C675 1.380 . S
C677 C661 1.377 . S
C677 C675 1.388 1_565 S
C677 C678 1.524 . S
C678 C677 1.524 . S
C678 C679 1.397 . S
C678 C683 1.363 . S
C679 H650 0.950 . S
C679 C678 1.397 . S
C679 C680 1.334 . S
C680 H651 0.950 . S
C680 C679 1.334 . S
C680 C681 1.287 . S
C681 C680 1.287 . S
C681 C682 1.524 . S
C681 H684 0.999 . S
C682 H652 0.950 . S
C682 C681 1.524 . S
C682 C683 1.415 . S
C683 H653 0.950 . S
C683 C678 1.363 . S
C683 C682 1.415 . S
H684 C681 0.999 . S
H685 C666 0.913 . S
H686 C704 0.951 . S
H687 C706 0.951 . S
H688 C708 0.950 . S
H689 C709 0.950 . S
H690 C711 0.950 . S
H691 C714 0.950 . S
H692 C715 0.950 . S
H693 C717 0.950 . S
H694 C718 0.950 . S
H695 C719 0.951 . S
H696 C721 0.951 . S
H697 C723 0.950 . S
H698 C724 0.950 . S
H699 C726 0.950 . S
H700 C729 0.950 . S
H701 C730 0.950 . S
H702 C732 0.950 . S
H703 C733 0.950 . S
C704 H686 0.951 . S
C704 C705 1.366 . S
C704 C706 1.388 . S
C705 C704 1.366 . S
C705 C709 1.385 . S
C706 H687 0.951 . S
C706 C704 1.388 . S
C706 C707 1.366 1_554 S
C707 C706 1.366 1_556 S
C707 C708 1.414 . S
C707 C710 1.499 . S
C708 H688 0.950 . S
C708 C707 1.414 . S
C708 C709 1.374 1_556 S
C709 H689 0.950 . S
C709 C705 1.385 . S
C709 C708 1.374 1_554 S
C710 C707 1.499 . S
C710 C711 1.373 . S
C710 C712 1.389 . S
C711 H690 0.950 . S
C711 C710 1.373 . S
C711 C727 1.377 . S
C712 C710 1.389 . S
C712 C713 1.524 1_556 S
C712 C726 1.377 . S
C713 C712 1.524 1_554 S
C713 C714 1.397 . S
C713 C718 1.363 . S
C714 H691 0.950 . S
C714 C713 1.397 . S
C714 C715 1.334 . S
C715 H692 0.950 . S
C715 C714 1.334 . S
C715 C716 1.287 . S
C716 C715 1.287 . S
C716 C717 1.524 . S
C716 H735 0.913 . S
C717 H693 0.950 . S
C717 C716 1.524 . S
C717 C718 1.415 . S
C718 H694 0.950 . S
C718 C713 1.363 . S
C718 C717 1.415 . S
C719 H695 0.951 . S
C719 C720 1.366 . S
C719 C721 1.388 . S
C720 C719 1.366 . S
C720 C724 1.385 . S
C721 H696 0.951 . S
C721 C719 1.388 . S
C721 C722 1.366 . S
C722 C721 1.366 . S
C722 C723 1.414 . S
C722 C725 1.499 . S
C723 H697 0.950 . S
C723 C722 1.414 . S
C723 C724 1.374 . S
C724 H698 0.950 . S
C724 C720 1.385 . S
C724 C723 1.374 . S
C725 C722 1.499 . S
C725 C726 1.373 . S
C725 C727 1.389 . S
C726 H699 0.950 . S
C726 C712 1.377 . S
C726 C725 1.373 . S
C727 C711 1.377 . S
C727 C725 1.389 . S
C727 C728 1.524 . S
C728 C727 1.524 . S
C728 C729 1.397 . S
C728 C733 1.363 . S
C729 H700 0.950 . S
C729 C728 1.397 . S
C729 C730 1.334 . S
C730 H701 0.950 . S
C730 C729 1.334 . S
C730 C731 1.287 . S
C731 C730 1.287 . S
C731 C732 1.524 . S
C731 H734 0.999 . S
C732 H702 0.950 . S
C732 C731 1.524 . S
C732 C733 1.415 . S
C733 H703 0.950 . S
C733 C728 1.363 . S
C733 C732 1.415 . S
H734 C731 0.999 . S
H735 C716 0.913 . S
H736 C754 0.951 . S
H737 C756 0.951 . S
H738 C758 0.950 . S
H739 C759 0.950 . S
H740 C761 0.950 . S
H741 C764 0.950 . S
H742 C765 0.950 . S
H743 C767 0.950 . S
H744 C768 0.950 . S
H745 C769 0.951 . S
H746 C771 0.951 . S
H747 C773 0.950 . S
H748 C774 0.950 . S
H749 C776 0.950 . S
H750 C779 0.950 . S
H751 C780 0.950 . S
H752 C782 0.950 . S
H753 C783 0.950 . S
C754 H736 0.951 . S
C754 C755 1.366 . S
C754 C756 1.388 . S
C755 C754 1.366 . S
C755 C759 1.385 1_655 S
C756 H737 0.951 . S
C756 C754 1.388 . S
C756 C757 1.363 . S
C757 C756 1.363 . S
C757 C758 1.411 1_655 S
C757 C760 1.511 1_655 S
C758 H738 0.950 . S
C758 C757 1.411 1_455 S
C758 C759 1.374 . S
C759 H739 0.950 . S
C759 C755 1.385 1_455 S
C759 C758 1.374 . S
C760 C757 1.511 1_455 S
C760 C761 1.361 1_455 S
C760 C762 1.395 . S
C761 H740 0.950 . S
C761 C760 1.361 1_655 S
C761 C777 1.377 . S
C762 C760 1.395 . S
C762 C763 1.524 . S
C762 C776 1.377 . S
C763 C762 1.524 . S
C763 C764 1.397 . S
C763 C768 1.363 . S
C764 H741 0.950 . S
C764 C763 1.397 . S
C764 C765 1.334 . S
C765 H742 0.950 . S
C765 C764 1.334 . S
C765 C766 1.287 . S
C766 C765 1.287 . S
C766 C767 1.524 . S
C766 H785 0.913 . S
C767 H743 0.950 . S
C767 C766 1.524 . S
C767 C768 1.415 . S
C768 H744 0.950 . S
C768 C763 1.363 . S
C768 C767 1.415 . S
C769 H745 0.951 . S
C769 C770 1.365 . S
C769 C771 1.388 . S
C770 C769 1.365 . S
C770 C774 1.384 1_455 S
C771 H746 0.951 . S
C771 C769 1.388 . S
C771 C772 1.366 1_455 S
C772 C771 1.366 1_655 S
C772 C773 1.414 . S
C772 C775 1.499 . S
C773 H747 0.950 . S
C773 C772 1.414 . S
C773 C774 1.374 . S
C774 H748 0.950 . S
C774 C770 1.384 1_655 S
C774 C773 1.374 . S
C775 C772 1.499 . S
C775 C776 1.373 1_655 S
C775 C777 1.389 . S
C776 H749 0.950 . S
C776 C762 1.377 . S
C776 C775 1.373 1_455 S
C777 C761 1.377 . S
C777 C775 1.389 . S
C777 C778 1.524 . S
C778 C777 1.524 . S
C778 C779 1.397 . S
C778 C783 1.363 . S
C779 H750 0.950 . S
C779 C778 1.397 . S
C779 C780 1.334 . S
C780 H751 0.950 . S
C780 C779 1.334 . S
C780 C781 1.287 . S
C781 C780 1.287 . S
C781 C782 1.524 . S
C781 H784 0.999 . S
C782 H752 0.950 . S
C782 C781 1.524 . S
C782 C783 1.415 . S
C783 H753 0.950 . S
C783 C778 1.363 . S
C783 C782 1.415 . S
H784 C781 0.999 . S
H785 C766 0.913 . S
C220 C63 1.500 . S
C205 C6 1.479 1_455 S
C255 C22 1.616 . S
C270 C111 1.648 . S
C305 C34 1.226 . S
C320 C183 1.243 . S
C355 C7 1.482 1_655 S
C370 C87 1.497 . S
C420 C135 1.635 . S
C405 C23 1.616 . S
C455 C35 1.225 . S
C470 C159 1.246 . S
C520 C120 1.632 . S
C505 C36 1.620 . S
C555 C9 1.868 . S
C570 C174 1.904 . S
C620 C78 1.505 1_455 S
C605 C21 1.473 1_455 S
C670 C126 1.616 1_545 S
C655 C37 1.620 . S
C720 C168 1.898 . S
C705 C8 1.868 . S
C755 C20 1.473 1_655 S
C770 C72 1.496 1_455 S
