# Generated by pormake.
# Topology anh, (6,3)-cn, num edge types: 1
# Building blocks:
#     Node 0, Type 0, BuildingBlock: HISSIN_clean_sbu_0, # of connection points: 6
#     Node 1, Type 0, BuildingBlock: HISSIN_clean_sbu_0, # of connection points: 6
#     Node 2, Type 0, BuildingBlock: HISSIN_clean_sbu_0, # of connection points: 6
#     Node 3, Type 1, BuildingBlock: VETTIZ_charged_linker_0, # of connection points: 3
#     Node 4, Type 1, BuildingBlock: VETTIZ_charged_linker_0, # of connection points: 3
#     Node 5, Type 1, BuildingBlock: VETTIZ_charged_linker_0, # of connection points: 3
#     Node 6, Type 1, BuildingBlock: VETTIZ_charged_linker_0, # of connection points: 3
#     Node 7, Type 1, BuildingBlock: VETTIZ_charged_linker_0, # of connection points: 3
#     Node 8, Type 1, BuildingBlock: VETTIZ_charged_linker_0, # of connection points: 3
#     Edge 9, Type (0, 1), BuildingBlock: MIFKUJ_clean_linker_0, # of connection points: 2
#     Edge 10, Type (0, 1), BuildingBlock: MIFKUJ_clean_linker_0, # of connection points: 2
#     Edge 11, Type (0, 1), BuildingBlock: MIFKUJ_clean_linker_0, # of connection points: 2
#     Edge 12, Type (0, 1), BuildingBlock: MIFKUJ_clean_linker_0, # of connection points: 2
#     Edge 13, Type (0, 1), BuildingBlock: MIFKUJ_clean_linker_0, # of connection points: 2
#     Edge 14, Type (0, 1), BuildingBlock: MIFKUJ_clean_linker_0, # of connection points: 2
#     Edge 15, Type (0, 1), BuildingBlock: MIFKUJ_clean_linker_0, # of connection points: 2
#     Edge 16, Type (0, 1), BuildingBlock: MIFKUJ_clean_linker_0, # of connection points: 2
#     Edge 17, Type (0, 1), BuildingBlock: MIFKUJ_clean_linker_0, # of connection points: 2
#     Edge 18, Type (0, 1), BuildingBlock: MIFKUJ_clean_linker_0, # of connection points: 2
#     Edge 19, Type (0, 1), BuildingBlock: MIFKUJ_clean_linker_0, # of connection points: 2
#     Edge 20, Type (0, 1), BuildingBlock: MIFKUJ_clean_linker_0, # of connection points: 2
#     Edge 21, Type (0, 1), BuildingBlock: MIFKUJ_clean_linker_0, # of connection points: 2
#     Edge 22, Type (0, 1), BuildingBlock: MIFKUJ_clean_linker_0, # of connection points: 2
#     Edge 23, Type (0, 1), BuildingBlock: MIFKUJ_clean_linker_0, # of connection points: 2
#     Edge 24, Type (0, 1), BuildingBlock: MIFKUJ_clean_linker_0, # of connection points: 2
#     Edge 25, Type (0, 1), BuildingBlock: MIFKUJ_clean_linker_0, # of connection points: 2
#     Edge 26, Type (0, 1), BuildingBlock: MIFKUJ_clean_linker_0, # of connection points: 2
# Relax obj value: 0.205
# Max RMSD: 0.185
# Mean RMSD: 0.152
data_MOF--net-anh--node1-HISSIN_clean_sbu_0--node2-VETTIZ_charged_linker_0--edge1-MIFKUJ_clean_linker_0
_symmetry_space_group_name_H-M    P1
_symmetry_Int_Tables_number       1
_symmetry_cell_setting            triclinic
loop_
_symmetry_equiv_pos_as_xyz
'x, y, z'
_cell_length_a     44.373479
_cell_length_b     44.295688
_cell_length_c     82.942224
_cell_angle_alpha  92.121632
_cell_angle_beta   90.333341
_cell_angle_gamma 120.14711
loop_
_atom_site_label
_atom_site_type_symbol
_atom_site_fract_x
_atom_site_fract_y
_atom_site_fract_z
_atom_type_partial_charge
Eu0 Eu 1.07007 0.50678 0.16098 0.0
Eu1 Eu 0.11194 0.59205 0.16485 0.0
C2 C 1.08353 0.54597 0.19671 0.0
C3 C 0.99125 0.42065 0.15683 0.0
C4 C 0.97604 0.43234 0.16844 0.0
C5 C 0.93465 0.38574 0.14323 0.0
C6 C 0.94083 0.42179 0.16715 0.0
C7 C 0.97015 0.39645 0.14449 0.0
C8 C 0.9203 0.39954 0.15422 0.0
C9 C 1.02927 0.43997 0.15545 0.0
O10 O 0.15354 0.57676 0.16091 0.0
O11 O 0.12497 0.5184 0.16627 0.0
C12 C 0.1539 0.54785 0.16381 0.0
O13 O 0.09885 0.5277 0.13799 0.0
O14 O 0.15298 0.6417 0.17551 0.0
O15 O 0.12257 0.64134 0.15494 0.0
O16 O 0.09321 0.57562 0.13916 0.0
C17 C 0.09825 0.55312 0.13079 0.0
O18 O 1.02894 0.52303 0.15822 0.0
O19 O 1.05662 0.5792 0.16924 0.0
O20 O 0.10275 0.5767 0.19061 0.0
O21 O 1.03994 0.46241 0.14412 0.0
O22 O 1.04759 0.4533 0.16888 0.0
O23 O 1.06743 0.51681 0.1877 0.0
C24 C 0.18248 0.68146 0.15541 0.0
C25 C 0.19099 0.71502 0.15108 0.0
C26 C 0.23524 0.689 0.14312 0.0
C27 C 0.22178 0.73571 0.143 0.0
C28 C 0.20436 0.66827 0.15104 0.0
C29 C 0.24449 0.72309 0.13924 0.0
C30 C 0.15041 0.65977 0.16406 0.0
C31 C 1.02816 0.55095 0.16376 0.0
H32 H 0.9918 0.45156 0.17789 0.0
H33 H 0.91895 0.36838 0.13322 0.0
H34 H 0.92993 0.43233 0.17582 0.0
H35 H 0.98157 0.38769 0.13525 0.0
H36 H 0.17417 0.7254 0.15418 0.0
H37 H 0.25226 0.67868 0.14033 0.0
H38 H 0.22857 0.76211 0.14034 0.0
H39 H 0.1979 0.64215 0.15401 0.0
Eu40 Eu 0.60912 1.04573 0.49911 0.0
Eu41 Eu 0.56284 0.08355 0.50153 0.0
C42 C 0.58892 0.06466 0.5343 0.0
C43 C 0.63283 0.97843 0.48532 0.0
C44 C 0.59881 0.95611 0.4792 0.0
C45 C 0.64917 0.93619 0.47635 0.0
C46 C 0.58963 0.92329 0.47228 0.0
C47 C 0.65822 0.96884 0.48339 0.0
C48 C 0.61446 0.91251 0.47131 0.0
C49 C 0.64135 1.01062 0.49459 0.0
O50 O 0.61888 0.12523 0.49625 0.0
O51 O 0.64991 0.10132 0.50613 0.0
C52 C 0.64868 0.12854 0.50128 0.0
O53 O 0.61109 0.06832 0.47501 0.0
O54 O 0.55666 0.12667 0.51104 0.0
O55 O 0.52194 0.09203 0.4918 0.0
O56 O 0.55729 0.06212 0.47606 0.0
C57 C 0.58386 0.06621 0.46776 0.0
O58 O 0.55212 1.00315 0.49437 0.0
O59 O 0.52264 1.02782 0.50631 0.0
O60 O 0.56842 0.07438 0.5276 0.0
O61 O 0.64702 1.03711 0.48615 0.0
O62 O 0.62158 1.00675 0.50682 0.0
O63 O 0.60799 1.05511 0.52589 0.0
C64 C 0.54885 0.15264 0.48877 0.0
C65 C 0.56756 0.15263 0.47514 0.0
C66 C 0.5727 0.215 0.48677 0.0
C67 C 0.58988 0.18374 0.46788 0.0
C68 C 0.55055 0.18379 0.49416 0.0
C69 C 0.59374 0.21547 0.474 0.0
C70 C 0.53525 0.12274 0.49923 0.0
C71 C 0.52318 1.00029 0.50019 0.0
H72 H 0.57901 0.96344 0.48042 0.0
H73 H 0.66889 0.92864 0.47592 0.0
H74 H 0.56279 0.90573 0.46839 0.0
H75 H 0.68465 0.98594 0.48797 0.0
H76 H 0.56721 0.12904 0.47088 0.0
H77 H 0.57554 0.23911 0.49198 0.0
H78 H 0.60586 0.18323 0.45818 0.0
H79 H 0.53691 0.18449 0.50484 0.0
Eu80 Eu 0.5685 0.55031 0.83009 0.0
Eu81 Eu 0.65149 0.59077 0.83885 0.0
C82 C 0.59735 0.56712 0.86649 0.0
C83 C 0.48653 0.54631 0.81901 0.0
C84 C 0.4951 0.57671 0.82845 0.0
C85 C 0.45632 0.56258 0.79965 0.0
C86 C 0.48514 0.60007 0.8234 0.0
C87 C 0.46662 0.53913 0.80467 0.0
C88 C 0.46644 0.59368 0.8088 0.0
C89 C 0.50292 0.52554 0.82296 0.0
O90 O 0.63286 0.53314 0.84158 0.0
O91 O 0.58155 0.50712 0.82665 0.0
C92 C 0.60719 0.50549 0.83388 0.0
O93 O 0.59646 0.57242 0.80712 0.0
O94 O 0.69337 0.60056 0.85585 0.0
O95 O 0.70579 0.62525 0.83284 0.0
O96 O 0.64502 0.56981 0.81329 0.0
C97 C 0.62394 0.57097 0.80259 0.0
O98 O 0.58325 0.60694 0.83505 0.0
O99 O 0.6426 0.63511 0.83234 0.0
O100 O 0.62491 0.59432 0.86112 0.0
O101 O 0.52497 0.5262 0.81246 0.0
O102 O 0.515 0.52962 0.83775 0.0
O103 O 0.57516 0.54223 0.85636 0.0
C104 C 0.73747 0.59839 0.84132 0.0
C105 C 0.74168 0.59038 0.82519 0.0
C106 C 0.75948 0.5613 0.85026 0.0
C107 C 0.75411 0.56759 0.82167 0.0
C108 C 0.7474 0.58436 0.8538 0.0
C109 C 0.76225 0.55216 0.83416 0.0
C110 C 0.71722 0.61577 0.84511 0.0
C111 C 0.61329 0.63575 0.83324 0.0
H112 H 0.51064 0.58327 0.83951 0.0
H113 H 0.44138 0.55699 0.78846 0.0
H114 H 0.49241 0.62346 0.83086 0.0
H115 H 0.46005 0.51604 0.79712 0.0
H116 H 0.73402 0.60047 0.81525 0.0
H117 H 0.7664 0.55036 0.86012 0.0
H118 H 0.75622 0.5611 0.80916 0.0
H119 H 0.74431 0.58997 0.86632 0.0
C120 C 0.60186 0.23798 0.2052 0.0
C121 C 0.61745 0.26899 0.21493 0.0
C122 C 0.61608 0.26686 0.23186 0.0
C123 C 0.58899 0.20383 0.22902 0.0
C124 C 0.58822 0.20588 0.21245 0.0
C125 C 0.57498 0.171 0.20372 0.0
H126 H 0.51992 0.99906 0.20628 0.0
C127 C 0.57729 0.16715 0.23254 0.0
C128 C 0.56939 0.14795 0.21774 0.0
H129 H 0.53029 0.05881 0.16446 0.0
H130 H 0.55367 0.11149 0.18137 0.0
H131 H 0.59394 0.05957 0.22518 0.0
H132 H 0.48581 1.03025 0.22728 0.0
H133 H 0.50288 1.04313 0.24707 0.0
H134 H 0.5025 1.00601 0.23708 0.0
H135 H 0.56097 1.01922 0.23298 0.0
H136 H 0.58333 0.05863 0.24562 0.0
C137 C 0.60354 0.17294 0.19233 0.0
C138 C 0.54009 0.16127 0.19502 0.0
C139 C 0.57779 0.13306 0.29036 0.0
C140 C 0.56816 0.10097 0.29718 0.0
C141 C 0.55579 0.07067 0.28702 0.0
C142 C 0.55335 0.07231 0.27028 0.0
C143 C 0.56319 0.10457 0.26361 0.0
C144 C 0.57482 0.13419 0.27361 0.0
C145 C 0.58329 0.16598 0.26436 0.0
C146 C 0.57483 0.15051 0.24718 0.0
C147 C 0.56352 0.11465 0.24683 0.0
C148 C 0.62263 0.19273 0.26709 0.0
C149 C 0.55873 0.17956 0.26985 0.0
C150 C 0.52747 1.02355 0.20074 0.0
C151 C 0.52307 1.02468 0.184 0.0
C152 C 0.53369 1.05719 0.17728 0.0
C153 C 0.54671 0.0877 0.18716 0.0
C154 C 0.549 0.08573 0.20396 0.0
C155 C 0.54008 1.05416 0.21046 0.0
C156 C 0.54343 1.05686 0.22858 0.0
C157 C 0.55549 0.09525 0.23187 0.0
C158 C 0.55866 0.11192 0.21742 0.0
C159 C 0.57169 1.04793 0.23349 0.0
C160 C 0.50695 1.03272 0.23548 0.0
H161 H 0.60266 0.23454 0.25189 0.0
H162 H 0.60315 0.2387 0.19217 0.0
H163 H 0.52381 0.16781 0.20294 0.0
H164 H 0.52383 0.13304 0.19192 0.0
H165 H 0.54475 0.17593 0.18385 0.0
H166 H 0.62994 0.19464 0.19612 0.0
H167 H 0.59838 0.17708 0.17972 0.0
H168 H 0.60584 0.14919 0.1924 0.0
H169 H 0.58699 0.15667 0.29793 0.0
H170 H 0.54843 1.04573 0.29204 0.0
H171 H 0.54394 1.04838 0.2632 0.0
H172 H 0.63803 0.17923 0.26755 0.0
H173 H 0.62752 0.20812 0.27867 0.0
H174 H 0.63385 0.21087 0.25721 0.0
H175 H 0.53244 0.15745 0.27248 0.0
H176 H 0.55398 0.19382 0.26045 0.0
H177 H 0.56914 0.19667 0.28099 0.0
H178 H 0.62787 0.29045 0.23959 0.0
C179 C 0.60178 0.23441 0.23896 0.0
C180 C 0.6683 0.64604 0.53314 0.0
C181 C 0.64503 0.65559 0.53974 0.0
C182 C 0.63677 0.64999 0.55616 0.0
C183 C 0.67456 0.62555 0.55896 0.0
C184 C 0.68248 0.63095 0.54288 0.0
C185 C 0.70671 0.61837 0.53749 0.0
H186 H 0.76676 0.50969 0.54889 0.0
C187 C 0.69289 0.60841 0.56551 0.0
C188 C 0.71165 0.60399 0.55302 0.0
H189 H 0.77777 0.57063 0.50747 0.0
H190 H 0.75817 0.6043 0.52287 0.0
H191 H 0.79992 0.58357 0.57441 0.0
H192 H 0.6965 0.49793 0.56224 0.0
H193 H 0.7018 0.50564 0.58342 0.0
H194 H 0.72884 0.49252 0.57282 0.0
H195 H 0.78381 0.54125 0.58243 0.0
H196 H 0.77528 0.57347 0.59193 0.0
C197 C 0.74116 0.65016 0.53212 0.0
C198 C 0.68725 0.58939 0.52408 0.0
C199 C 0.68198 0.58004 0.62443 0.0
C200 C 0.69401 0.56247 0.63389 0.0
C201 C 0.71115 0.54636 0.62648 0.0
C202 C 0.71746 0.54901 0.60985 0.0
C203 C 0.70613 0.56764 0.6006 0.0
C204 C 0.68813 0.58217 0.60791 0.0
C205 C 0.67667 0.59975 0.59623 0.0
C206 C 0.69291 0.59563 0.58091 0.0
C207 C 0.71004 0.57671 0.58346 0.0
C208 C 0.69276 0.63865 0.6019 0.0
C209 C 0.6362 0.57914 0.595 0.0
C210 C 0.76568 0.53084 0.54329 0.0
C211 C 0.77238 0.53665 0.52676 0.0
C212 C 0.77161 0.56497 0.52002 0.0
C213 C 0.75987 0.58422 0.5289 0.0
C214 C 0.74866 0.57496 0.54464 0.0
C215 C 0.75413 0.55068 0.55208 0.0
C216 C 0.74373 0.54739 0.56952 0.0
C217 C 0.72786 0.57091 0.57059 0.0
C218 C 0.73006 0.58608 0.55576 0.0
C219 C 0.77723 0.56188 0.58024 0.0
C220 C 0.71637 0.50883 0.57228 0.0
H221 H 0.64434 0.63172 0.57821 0.0
H222 H 0.67586 0.65071 0.52069 0.0
H223 H 0.66065 0.57008 0.52794 0.0
H224 H 0.70009 0.57427 0.52103 0.0
H225 H 0.68446 0.60072 0.51282 0.0
H226 H 0.74448 0.67538 0.53707 0.0
H227 H 0.742 0.65138 0.51877 0.0
H228 H 0.76447 0.64971 0.53667 0.0
H229 H 0.66806 0.59197 0.62981 0.0
H230 H 0.72038 0.53249 0.63363 0.0
H231 H 0.73089 0.53652 0.60482 0.0
H232 H 0.72047 0.64975 0.60586 0.0
H233 H 0.67849 0.64156 0.61224 0.0
H234 H 0.69309 0.6553 0.59225 0.0
H235 H 0.62524 0.55169 0.59859 0.0
H236 H 0.62613 0.57669 0.58249 0.0
H237 H 0.62491 0.59143 0.60296 0.0
H238 H 0.61879 0.65696 0.56154 0.0
C239 C 0.65149 0.63513 0.5658 0.0
C240 C 0.24163 0.68549 0.85951 0.0
C241 C 0.27526 0.70226 0.86653 0.0
C242 C 0.27923 0.70594 0.88348 0.0
C243 C 0.21633 0.67084 0.88589 0.0
C244 C 0.21285 0.66912 0.86926 0.0
C245 C 0.17649 0.64394 0.86321 0.0
H246 H 1.01091 0.52291 0.87795 0.0
C247 C 0.18138 0.6472 0.89224 0.0
C248 C 0.1582 0.63129 0.87893 0.0
H249 H 1.0595 0.55475 0.83182 0.0
H250 H 0.11339 0.59688 0.84525 0.0
H251 H 1.07872 0.52358 0.89624 0.0
H252 H 1.04109 0.59587 0.89378 0.0
H253 H 1.06168 0.60382 0.91286 0.0
H254 H 1.02387 0.56161 0.90779 0.0
H255 H 1.03804 0.51607 0.90417 0.0
H256 H 1.07794 0.5396 0.91592 0.0
C257 C 0.17715 0.61418 0.8529 0.0
C258 C 0.16277 0.66466 0.85405 0.0
C259 C 0.16361 0.63073 0.95263 0.0
C260 C 0.13357 0.61156 0.96164 0.0
C261 C 0.10081 0.59284 0.95361 0.0
C262 C 0.09797 0.59229 0.9368 0.0
C263 C 0.12819 0.61072 0.92788 0.0
C264 C 0.16023 0.63039 0.93578 0.0
C265 C 0.18909 0.64992 0.92421 0.0
C266 C 0.16905 0.63824 0.90812 0.0
C267 C 0.13353 0.61459 0.91039 0.0
C268 C 0.21562 0.63712 0.92571 0.0
C269 C 0.20476 0.68954 0.92797 0.0
C270 C 1.03346 0.53826 0.87076 0.0
C271 C 1.03102 0.53517 0.85378 0.0
C272 C 1.06067 0.5566 0.84489 0.0
C273 C 0.09202 0.58103 0.85274 0.0
C274 C 0.09404 0.58386 0.86969 0.0
C275 C 1.06513 0.56262 0.87842 0.0
C276 C 1.07212 0.56962 0.89635 0.0
C277 C 0.11038 0.59795 0.89689 0.0
C278 C 0.12283 0.6062 0.88126 0.0
C279 C 1.06631 0.53552 0.90369 0.0
C280 C 1.04842 0.58322 0.90317 0.0
H281 H 0.25433 0.69291 0.90608 0.0
H282 H 0.23782 0.68222 0.8465 0.0
H283 H 0.17063 0.69006 0.86057 0.0
H284 H 0.13403 0.65101 0.85303 0.0
H285 H 0.17351 0.67038 0.84175 0.0
H286 H 0.20021 0.61169 0.85603 0.0
H287 H 0.17812 0.61896 0.83981 0.0
H288 H 0.15464 0.58805 0.85503 0.0
H289 H 0.18903 0.64573 0.95858 0.0
H290 H 1.07739 0.57792 0.96036 0.0
H291 H 1.07236 0.5772 0.93139 0.0
H292 H 0.20201 0.60853 0.92753 0.0
H293 H 0.23397 0.65056 0.93615 0.0
H294 H 0.23071 0.64074 0.91471 0.0
H295 H 0.18382 0.69566 0.93067 0.0
H296 H 0.21859 0.70553 0.91771 0.0
H297 H 0.22292 0.69846 0.93864 0.0
H298 H 0.30501 0.71868 0.88915 0.0
C299 C 0.24981 0.69049 0.89324 0.0
C300 C 0.99486 0.47666 0.47412 0.0
C301 C 0.96474 0.44873 0.46614 0.0
C302 C 0.96341 0.44651 0.44918 0.0
C303 C 1.0203 0.4987 0.44812 0.0
C304 C 1.02233 0.50168 0.4648 0.0
C305 C 1.05599 0.5344 0.47065 0.0
H306 H 0.21222 0.67581 0.44889 0.0
C307 C 1.05227 0.528 0.44168 0.0
C308 C 1.07384 0.54949 0.45474 0.0
H309 H 0.1759 0.65308 0.49748 0.0
H310 H 0.12232 0.6011 0.48726 0.0
H311 H 0.18869 0.59843 0.4367 0.0
H312 H 0.14258 0.66322 0.43428 0.0
H313 H 0.1315 0.63925 0.41579 0.0
H314 H 0.17685 0.6683 0.42129 0.0
H315 H 0.20344 0.63385 0.42337 0.0
H316 H 0.16929 0.59023 0.41735 0.0
C317 C 1.07745 0.52348 0.48108 0.0
C318 C 1.04639 0.55916 0.47983 0.0
C319 C 1.06509 0.53428 0.38061 0.0
C320 C 0.09155 0.55782 0.37072 0.0
C321 C 0.12212 0.58561 0.37812 0.0
C322 C 0.12608 0.59024 0.39495 0.0
C323 C 0.09921 0.56687 0.40468 0.0
C324 C 1.0695 0.53934 0.39747 0.0
C325 C 1.04384 0.51705 0.40974 0.0
C326 C 1.06293 0.53599 0.4255 0.0
C327 C 0.09522 0.5651 0.42243 0.0
C328 C 1.03925 0.47995 0.40785 0.0
C329 C 1.00991 0.51848 0.40712 0.0
C330 C 0.19305 0.6596 0.45746 0.0
C331 C 0.1988 0.66852 0.47403 0.0
C332 C 0.17233 0.64691 0.48461 0.0
C333 C 0.14125 0.61674 0.47866 0.0
C334 C 0.13615 0.60828 0.46191 0.0
C335 C 0.16206 0.63011 0.45175 0.0
C336 C 0.15283 0.61915 0.43433 0.0
C337 C 0.11724 0.58694 0.43542 0.0
C338 C 0.10698 0.57982 0.45159 0.0
C339 C 0.17995 0.61012 0.42743 0.0
C340 C 0.15102 0.64892 0.42584 0.0
H341 H 0.98752 0.46723 0.42737 0.0
H342 H 0.99661 0.47926 0.48717 0.0
H343 H 1.02661 0.56198 0.47278 0.0
H344 H 1.06895 0.58572 0.48186 0.0
H345 H 1.03528 0.54881 0.4917 0.0
H346 H 1.08037 0.50271 0.47458 0.0
H347 H 1.06436 0.51309 0.49261 0.0
H348 H 0.10398 0.54543 0.48392 0.0
H349 H 1.04115 0.51273 0.37538 0.0
H350 H 0.14327 0.60376 0.37087 0.0
H351 H 0.14999 0.612 0.3997 0.0
H352 H 1.06374 0.48118 0.40387 0.0
H353 H 1.01847 0.46337 0.39872 0.0
H354 H 1.03352 0.46642 0.41932 0.0
H355 H 1.01573 0.54418 0.40263 0.0
H356 H 0.99589 0.51606 0.41841 0.0
H357 H 0.992 0.49795 0.39812 0.0
H358 H 0.94095 0.42538 0.44273 0.0
C359 C 0.99073 0.47097 0.44022 0.0
C360 C 0.61033 0.9826 0.81081 0.0
C361 C 0.60665 0.9519 0.80288 0.0
C362 C 0.60332 0.94861 0.78596 0.0
C363 C 0.60752 1.00521 0.78482 0.0
C364 C 0.6103 1.0089 0.80148 0.0
C365 C 0.61238 1.04297 0.80734 0.0
H366 H 0.61411 0.19294 0.7855 0.0
C367 C 0.60887 1.03656 0.77837 0.0
C368 C 0.61164 0.05925 0.79142 0.0
H369 H 0.61541 0.16302 0.83427 0.0
H370 H 0.61612 0.11079 0.82403 0.0
H371 H 0.67011 0.17673 0.77322 0.0
H372 H 0.55832 0.1183 0.77083 0.0
H373 H 0.57254 0.11371 0.75167 0.0
H374 H 0.58417 0.15661 0.75969 0.0
H375 H 0.64571 0.18409 0.75815 0.0
H376 H 0.65958 0.15239 0.75482 0.0
C377 C 0.64699 0.06557 0.81691 0.0
C378 C 0.58004 1.03401 0.81737 0.0
C379 C 0.60494 1.04501 0.71732 0.0
C380 C 0.60872 0.07184 0.70752 0.0
C381 C 0.61381 0.10331 0.71479 0.0
C382 C 0.61468 0.10791 0.73162 0.0
C383 C 0.61082 0.0809 0.74136 0.0
C384 C 0.60659 1.05033 0.73417 0.0
C385 C 0.60499 1.02542 0.74643 0.0
C386 C 0.60847 1.0459 0.76218 0.0
C387 C 0.6113 0.07802 0.7591 0.0
C388 C 0.63661 1.01995 0.7439 0.0
C389 C 0.56879 0.99167 0.74448 0.0
C390 C 0.61412 0.17508 0.79408 0.0
C391 C 0.61395 0.18196 0.8107 0.0
C392 C 0.61525 0.15834 0.82136 0.0
C393 C 0.6154 0.1279 0.8154 0.0
C394 C 0.61452 0.12105 0.79858 0.0
C395 C 0.61439 0.14507 0.78838 0.0
C396 C 0.61438 0.13527 0.77095 0.0
C397 C 0.61323 0.10073 0.77207 0.0
C398 C 0.6134 0.09187 0.78825 0.0
C399 C 0.64901 0.16354 0.76378 0.0
C400 C 0.58082 0.13089 0.76271 0.0
H401 H 0.60129 0.9703 0.76414 0.0
H402 H 0.6126 0.98571 0.82385 0.0
H403 H 0.55595 1.01375 0.81082 0.0
H404 H 0.57662 1.05674 0.81971 0.0
H405 H 0.58175 1.02367 0.82914 0.0
H406 H 0.66917 0.06745 0.80995 0.0
H407 H 0.64662 1.05398 0.82861 0.0
H408 H 0.6525 0.09255 0.81936 0.0
H409 H 0.60145 1.02072 0.71198 0.0
H410 H 0.61667 0.12421 0.70741 0.0
H411 H 0.61814 0.13233 0.73635 0.0
H412 H 0.65912 1.04351 0.73903 0.0
H413 H 0.62992 0.99761 0.73524 0.0
H414 H 0.64697 1.01596 0.75527 0.0
H415 H 0.54833 0.99781 0.74088 0.0
H416 H 0.55959 0.97799 0.75585 0.0
H417 H 0.56897 0.97331 0.73505 0.0
H418 H 0.60054 0.92549 0.77959 0.0
C419 C 0.60384 0.97486 0.77697 0.0
C420 C 0.67752 0.55048 0.14325 0.0
C421 C 0.70655 0.55149 0.13559 0.0
C422 C 0.70721 0.55096 0.11866 0.0
C423 C 0.65143 0.54852 0.11699 0.0
C424 C 0.65023 0.54929 0.13365 0.0
C425 C 0.61752 0.54936 0.13918 0.0
H426 H 0.46529 0.54432 0.11563 0.0
C427 C 0.61975 0.54707 0.11023 0.0
C428 C 0.59925 0.54753 0.1231 0.0
H429 H 0.5023 0.55393 0.16484 0.0
H430 H 0.55291 0.55099 0.15524 0.0
H431 H 0.53636 0.59855 0.1022 0.0
H432 H 0.4816 0.48683 0.10365 0.0
H433 H 0.50168 0.49601 0.08492 0.0
H434 H 0.47013 0.50926 0.08948 0.0
H435 H 0.49939 0.57078 0.08923 0.0
H436 H 0.54322 0.58359 0.08351 0.0
C437 C 0.62871 0.58386 0.14892 0.0
C438 C 0.59561 0.51676 0.14896 0.0
C439 C 0.60367 0.5418 0.04902 0.0
C440 C 0.57662 0.53893 0.03895 0.0
C441 C 0.54693 0.53688 0.04606 0.0
C442 C 0.54427 0.53793 0.06285 0.0
C443 C 0.57156 0.54105 0.0728 0.0
C444 C 0.60045 0.54258 0.06585 0.0
C445 C 0.62639 0.54497 0.07834 0.0
C446 C 0.60845 0.54505 0.09394 0.0
C447 C 0.57658 0.54303 0.09057 0.0
C448 C 0.66082 0.58005 0.07647 0.0
C449 C 0.62969 0.51181 0.07606 0.0
C450 C 0.48432 0.54636 0.12449 0.0
C451 C 0.47974 0.55012 0.14102 0.0
C452 C 0.50499 0.55123 0.15198 0.0
C453 C 0.53453 0.54977 0.1464 0.0
C454 C 0.53898 0.54709 0.12966 0.0
C455 C 0.51362 0.54523 0.11918 0.0
C456 C 0.5214 0.54273 0.10186 0.0
C457 C 0.55586 0.54378 0.10334 0.0
C458 C 0.56669 0.54616 0.11963 0.0
C459 C 0.5251 0.57533 0.09362 0.0
C460 C 0.49222 0.50707 0.09445 0.0
H461 H 0.6826 0.54899 0.09658 0.0
H462 H 0.67643 0.55113 0.15629 0.0
H463 H 0.59177 0.49289 0.14218 0.0
H464 H 0.56943 0.51271 0.15135 0.0
H465 H 0.60887 0.5189 0.16071 0.0
H466 H 0.64836 0.60647 0.14226 0.0
H467 H 0.64055 0.58411 0.1608 0.0
H468 H 0.60674 0.58837 0.151 0.0
H469 H 0.62669 0.54306 0.04394 0.0
H470 H 0.52593 0.53511 0.0386 0.0
H471 H 0.52107 0.53657 0.06739 0.0
H472 H 0.65547 0.60074 0.07261 0.0
H473 H 0.67744 0.57728 0.06725 0.0
H474 H 0.67605 0.59078 0.08792 0.0
H475 H 0.60484 0.48903 0.07128 0.0
H476 H 0.63496 0.5031 0.08752 0.0
H477 H 0.6503 0.51594 0.06741 0.0
H478 H 0.72902 0.55162 0.1125 0.0
C479 C 0.68005 0.54937 0.1094 0.0
H480 H 0.22045 0.60452 0.16654 0.0
H481 H 0.27595 0.60519 0.16487 0.0
H482 H 0.22033 0.49299 0.15819 0.0
H483 H 0.16473 0.49202 0.16011 0.0
H484 H 0.30597 0.57205 0.18311 0.0
H485 H 0.26545 0.47472 0.12835 0.0
H486 H 0.22403 0.45377 0.10503 0.0
H487 H 0.2264 0.55192 0.10562 0.0
H488 H 0.26825 0.57363 0.12875 0.0
H489 H 0.43662 0.5213 0.16704 0.0
H490 H 0.38243 0.52156 0.17301 0.0
H491 H 0.39798 0.5852 0.13236 0.0
H492 H 0.45206 0.5859 0.12665 0.0
H493 H 0.332 0.53005 0.1317 0.0
H494 H 0.41027 0.61952 0.17043 0.0
H495 H 0.45271 0.64374 0.19333 0.0
H496 H 0.37754 0.56725 0.22395 0.0
H497 H 0.33479 0.54227 0.20116 0.0
C498 C 0.21994 0.57992 0.16481 0.0
C499 C 0.18788 0.54821 0.16342 0.0
C500 C 0.25181 0.58034 0.16395 0.0
C501 C 0.25254 0.54916 0.16137 0.0
C502 C 0.22061 0.51744 0.16016 0.0
C503 C 0.18874 0.51694 0.16128 0.0
C504 C 0.28651 0.54993 0.15918 0.0
C505 C 0.31155 0.56265 0.1719 0.0
C506 C 0.29424 0.53811 0.14452 0.0
C507 C 0.26965 0.5256 0.1304 0.0
C508 C 0.25722 0.49186 0.12346 0.0
C509 C 0.23368 0.47986 0.11027 0.0
C510 C 0.22249 0.50146 0.10389 0.0
C511 C 0.23497 0.53517 0.11062 0.0
C512 C 0.25858 0.54731 0.12377 0.0
C513 C 0.42884 0.53587 0.15955 0.0
C514 C 0.44874 0.5531 0.14618 0.0
C515 C 0.39766 0.53585 0.16292 0.0
C516 C 0.38565 0.55309 0.15303 0.0
C517 C 0.40614 0.57123 0.14007 0.0
C518 C 0.43721 0.5715 0.13679 0.0
C519 C 0.35149 0.55179 0.15571 0.0
C520 C 0.32635 0.53903 0.14302 0.0
C521 C 0.34384 0.56381 0.17036 0.0
C522 C 0.36948 0.57879 0.18405 0.0
C523 C 0.4029 0.60767 0.18201 0.0
C524 C 0.42698 0.62158 0.19498 0.0
C525 C 0.41786 0.60698 0.21007 0.0
C526 C 0.38459 0.57849 0.21224 0.0
C527 C 0.36042 0.56447 0.19931 0.0
H528 H 0.43654 0.61779 0.2201 0.0
H529 H 0.20422 0.4921 0.0937 0.0
H530 H 0.65704 0.1901 0.4903 0.0
H531 H 0.71144 0.24517 0.4869 0.0
H532 H 0.77015 0.20101 0.50628 0.0
H533 H 0.7159 0.14569 0.50977 0.0
H534 H 0.79594 0.26985 0.51763 0.0
H535 H 0.76265 0.20532 0.46732 0.0
H536 H 0.72355 0.17254 0.44407 0.0
H537 H 0.72258 0.26468 0.43054 0.0
H538 H 0.7613 0.29794 0.45384 0.0
H539 H 0.96197 0.40123 0.4876 0.0
H540 H 0.90946 0.34836 0.496 0.0
H541 H 0.84491 0.38038 0.47141 0.0
H542 H 0.89713 0.43256 0.46285 0.0
H543 H 0.82335 0.31573 0.46278 0.0
H544 H 0.84964 0.37817 0.51411 0.0
H545 H 0.88618 0.41137 0.53805 0.0
H546 H 0.89946 0.32478 0.5492 0.0
H547 H 0.86333 0.29121 0.52521 0.0
C548 C 0.68145 0.19196 0.49387 0.0
C549 C 0.68183 0.16301 0.50015 0.0
C550 C 0.71263 0.22357 0.49185 0.0
C551 C 0.74514 0.22734 0.49603 0.0
C552 C 0.74556 0.19895 0.50287 0.0
C553 C 0.71438 0.16718 0.50482 0.0
C554 C 0.77853 0.2604 0.49273 0.0
C555 C 0.80205 0.27966 0.50559 0.0
C556 C 0.78661 0.27373 0.47706 0.0
C557 C 0.76419 0.25397 0.46266 0.0
C558 C 0.75376 0.21854 0.45954 0.0
C559 C 0.73174 0.19987 0.44629 0.0
C560 C 0.72036 0.21642 0.4359 0.0
C561 C 0.73125 0.25179 0.43864 0.0
C562 C 0.75328 0.27058 0.45187 0.0
C563 C 0.93655 0.39748 0.48444 0.0
C564 C 0.93383 0.42134 0.47466 0.0
C565 C 0.90639 0.36705 0.48917 0.0
C566 C 0.87277 0.3599 0.48434 0.0
C567 C 0.87023 0.38475 0.47524 0.0
C568 C 0.90021 0.41489 0.47047 0.0
C569 C 0.84035 0.32583 0.48776 0.0
C570 C 0.81713 0.30612 0.47485 0.0
C571 C 0.83238 0.31227 0.50338 0.0
C572 C 0.85415 0.33236 0.51777 0.0
C573 C 0.86062 0.36633 0.52159 0.0
C574 C 0.88119 0.38519 0.53519 0.0
C575 C 0.89523 0.37024 0.54511 0.0
C576 C 0.88863 0.33635 0.54149 0.0
C577 C 0.86808 0.31739 0.5279 0.0
H578 H 0.91114 0.38487 0.55563 0.0
H579 H 0.70331 0.20189 0.42566 0.0
H580 H 0.55815 0.64572 0.82727 0.0
H581 H 0.55842 0.7006 0.82439 0.0
H582 H 0.66953 0.75819 0.83339 0.0
H583 H 0.66942 0.70311 0.83621 0.0
H584 H 0.63443 0.7883 0.84988 0.0
H585 H 0.63737 0.74346 0.7971 0.0
H586 H 0.61711 0.69995 0.77432 0.0
H587 H 0.52319 0.70469 0.76974 0.0
H588 H 0.54273 0.748 0.79259 0.0
H589 H 0.65955 0.95116 0.81999 0.0
H590 H 0.66208 0.89924 0.82748 0.0
H591 H 0.55494 0.83341 0.81137 0.0
H592 H 0.55282 0.88509 0.80359 0.0
H593 H 0.59165 0.8089 0.79845 0.0
H594 H 0.58312 0.84552 0.85249 0.0
H595 H 0.59954 0.88631 0.87627 0.0
H596 H 0.70098 0.89645 0.87814 0.0
H597 H 0.68528 0.85603 0.85424 0.0
C598 C 0.58263 0.66997 0.82877 0.0
C599 C 0.61372 0.6697 0.83198 0.0
C600 C 0.58277 0.70146 0.82705 0.0
C601 C 0.61401 0.73376 0.82857 0.0
C602 C 0.64504 0.73373 0.83216 0.0
C603 C 0.64496 0.70212 0.83369 0.0
C604 C 0.61429 0.76728 0.8259 0.0
C605 C 0.62552 0.79298 0.83854 0.0
C606 C 0.60202 0.77334 0.8112 0.0
C607 C 0.59095 0.74814 0.79702 0.0
C608 C 0.61212 0.73485 0.79144 0.0
C609 C 0.60087 0.71033 0.77843 0.0
C610 C 0.56871 0.69927 0.7707 0.0
C611 C 0.54797 0.71305 0.77582 0.0
C612 C 0.55911 0.73753 0.78883 0.0
C613 C 0.63624 0.92568 0.81859 0.0
C614 C 0.60582 0.92232 0.81142 0.0
C615 C 0.63771 0.89586 0.82278 0.0
C616 C 0.60871 0.86199 0.81999 0.0
C617 C 0.57782 0.85896 0.81358 0.0
C618 C 0.57646 0.88862 0.80931 0.0
C619 C 0.61094 0.82962 0.82256 0.0
C620 C 0.60048 0.80422 0.80981 0.0
C621 C 0.62363 0.82372 0.83715 0.0
C622 C 0.63317 0.84808 0.85147 0.0
C623 C 0.60903 0.85669 0.85789 0.0
C624 C 0.61818 0.87969 0.87141 0.0
C625 C 0.65132 0.89405 0.87868 0.0
C626 C 0.67534 0.88536 0.87248 0.0
C627 C 0.66632 0.86239 0.85896 0.0
H628 H 0.65836 0.91185 0.88915 0.0
H629 H 0.55994 0.68019 0.76067 0.0
H630 H 1.0179 0.60667 0.16058 0.0
H631 H 0.96281 0.60637 0.15835 0.0
H632 H 0.90628 0.49508 0.16422 0.0
H633 H 0.9615 0.49508 0.16524 0.0
H634 H 0.87215 0.50575 0.14357 0.0
H635 H 0.92115 0.56494 0.1947 0.0
H636 H 0.96432 0.6093 0.21406 0.0
H637 H 0.9599 0.69024 0.18909 0.0
H638 H 0.91687 0.64631 0.16947 0.0
H639 H 0.70956 0.50009 0.15184 0.0
H640 H 0.76251 0.49913 0.16 0.0
H641 H 0.82577 0.60537 0.14582 0.0
H642 H 0.773 0.60626 0.13776 0.0
H643 H 0.85385 0.59469 0.17278 0.0
H644 H 0.81472 0.53734 0.11942 0.0
H645 H 0.77002 0.4939 0.10013 0.0
H646 H 0.75506 0.4111 0.13041 0.0
H647 H 0.79921 0.45423 0.1499 0.0
C648 C 0.99374 0.58211 0.16146 0.0
C649 C 0.99432 0.5509 0.16318 0.0
C650 C 0.962 0.58196 0.1603 0.0
C651 C 0.92974 0.55077 0.16146 0.0
C652 C 0.93041 0.51958 0.16324 0.0
C653 C 0.96214 0.5196 0.16392 0.0
C654 C 0.89549 0.55047 0.16039 0.0
C655 C 0.86824 0.52494 0.15026 0.0
C656 C 0.88975 0.57572 0.16877 0.0
C657 C 0.91579 0.60222 0.18055 0.0
C658 C 0.92938 0.59214 0.1933 0.0
C659 C 0.95388 0.61725 0.20432 0.0
C660 C 0.96488 0.65258 0.2028 0.0
C661 C 0.95136 0.66286 0.19026 0.0
C662 C 0.92688 0.63784 0.17919 0.0
C663 C 0.73472 0.52358 0.15101 0.0
C664 C 0.73703 0.55347 0.14442 0.0
C665 C 0.76509 0.5229 0.15545 0.0
C666 C 0.79848 0.55204 0.15334 0.0
C667 C 0.80057 0.58252 0.14762 0.0
C668 C 0.77032 0.58311 0.1431 0.0
C669 C 0.83121 0.55031 0.15598 0.0
C670 C 0.858 0.5754 0.16632 0.0
C671 C 0.83661 0.52478 0.14787 0.0
C672 C 0.8104 0.49887 0.13605 0.0
C673 C 0.80188 0.50985 0.12192 0.0
C674 C 0.77659 0.48532 0.11097 0.0
C675 C 0.75977 0.44974 0.11401 0.0
C676 C 0.76819 0.43864 0.12801 0.0
C677 C 0.79341 0.46309 0.139 0.0
H678 H 0.74018 0.4308 0.10552 0.0
H679 H 0.98386 0.67198 0.21135 0.0
H680 H 0.51217 0.93815 0.486 0.0
H681 H 0.45772 0.88207 0.48325 0.0
H682 H 0.40395 0.92674 0.50874 0.0
H683 H 0.45843 0.98295 0.51165 0.0
H684 H 0.38227 0.86126 0.51856 0.0
H685 H 0.39642 0.91376 0.46745 0.0
H686 H 0.42776 0.94161 0.44294 0.0
H687 H 0.43452 0.85058 0.42976 0.0
H688 H 0.40364 0.82236 0.45432 0.0
H689 H 0.20875 0.72266 0.49526 0.0
H690 H 0.26301 0.77819 0.50122 0.0
H691 H 0.31916 0.74231 0.47141 0.0
H692 H 0.26508 0.68752 0.46518 0.0
H693 H 0.33918 0.80471 0.46411 0.0
H694 H 0.32629 0.75204 0.51501 0.0
H695 H 0.29657 0.72402 0.53979 0.0
H696 H 0.28865 0.8141 0.55363 0.0
H697 H 0.31794 0.8425 0.52882 0.0
C698 C 0.48886 0.93617 0.49108 0.0
C699 C 0.48998 0.96548 0.49898 0.0
C700 C 0.45753 0.90393 0.48944 0.0
C701 C 0.42626 0.89993 0.49559 0.0
C702 C 0.42748 0.92889 0.50383 0.0
C703 C 0.45879 0.9612 0.50544 0.0
C704 C 0.39234 0.86587 0.49316 0.0
C705 C 0.37265 0.84913 0.50662 0.0
C706 C 0.37978 0.84933 0.47766 0.0
C707 C 0.398 0.86608 0.4628 0.0
C708 C 0.40479 0.89977 0.45938 0.0
C709 C 0.42245 0.91561 0.44547 0.0
C710 C 0.4332 0.89791 0.43482 0.0
C711 C 0.42622 0.86427 0.43803 0.0
C712 C 0.40861 0.84833 0.45193 0.0
C713 C 0.2328 0.7264 0.49023 0.0
C714 C 0.23236 0.70048 0.47971 0.0
C715 C 0.26398 0.7583 0.49363 0.0
C716 C 0.29574 0.76492 0.48684 0.0
C717 C 0.29533 0.73845 0.47676 0.0
C718 C 0.26425 0.70688 0.47324 0.0
C719 C 0.32908 0.79962 0.48954 0.0
C720 C 0.34868 0.81665 0.47609 0.0
C721 C 0.34162 0.81624 0.50506 0.0
C722 C 0.32396 0.79923 0.51997 0.0
C723 C 0.31796 0.76576 0.52328 0.0
C724 C 0.30124 0.74983 0.53734 0.0
C725 C 0.29063 0.76723 0.54826 0.0
C726 C 0.29682 0.80063 0.54515 0.0
C727 C 0.3135 0.81667 0.53109 0.0
H728 H 0.2777 0.75485 0.55914 0.0
H729 H 0.44688 0.91022 0.42406 0.0
H730 H 0.56317 0.44411 0.81669 0.0
H731 H 0.56519 0.38999 0.81497 0.0
H732 H 0.65427 0.43584 0.84789 0.0
H733 H 0.65307 0.49049 0.84923 0.0
H734 H 0.66522 0.40026 0.82608 0.0
H735 H 0.56804 0.37212 0.85907 0.0
H736 H 0.51226 0.36713 0.86694 0.0
H737 H 0.46071 0.29833 0.82555 0.0
H738 H 0.51629 0.30327 0.8173 0.0
H739 H 0.653 0.23255 0.83463 0.0
H740 H 0.6529 0.28722 0.84115 0.0
H741 H 0.57057 0.25767 0.8055 0.0
H742 H 0.57024 0.20328 0.7992 0.0
H743 H 0.55808 0.28547 0.83161 0.0
H744 H 0.659 0.31715 0.79872 0.0
H745 H 0.71558 0.32223 0.79242 0.0
H746 H 0.76107 0.38467 0.83614 0.0
H747 H 0.70463 0.37963 0.84279 0.0
C748 C 0.5831 0.44272 0.82364 0.0
C749 C 0.60771 0.47183 0.83321 0.0
C750 C 0.58417 0.41152 0.82273 0.0
C751 C 0.60949 0.40814 0.83155 0.0
C752 C 0.63432 0.43734 0.84099 0.0
C753 C 0.63345 0.46868 0.84179 0.0
C754 C 0.61028 0.37445 0.83077 0.0
C755 C 0.64181 0.37525 0.82756 0.0
C756 C 0.57992 0.34143 0.83257 0.0
C757 C 0.54641 0.33832 0.83749 0.0
C758 C 0.54486 0.35612 0.85158 0.0
C759 C 0.51327 0.35327 0.85612 0.0
C760 C 0.48298 0.33249 0.84673 0.0
C761 C 0.4842 0.31445 0.8328 0.0
C762 C 0.51573 0.31723 0.8282 0.0
C763 C 0.63455 0.23752 0.82838 0.0
C764 C 0.6118 0.2135 0.8163 0.0
C765 C 0.63474 0.26902 0.83198 0.0
C766 C 0.61209 0.27715 0.82365 0.0
C767 C 0.58848 0.25243 0.81209 0.0
C768 C 0.58841 0.22125 0.80844 0.0
C769 C 0.61278 0.31126 0.82662 0.0
C770 C 0.5815 0.31053 0.83026 0.0
C771 C 0.64347 0.34431 0.82544 0.0
C772 C 0.67743 0.3475 0.82138 0.0
C773 C 0.68097 0.33167 0.80707 0.0
C774 C 0.71302 0.33456 0.80343 0.0
C775 C 0.74179 0.35342 0.81397 0.0
C776 C 0.73866 0.36974 0.82808 0.0
C777 C 0.70667 0.36694 0.83177 0.0
H778 H 0.76661 0.35573 0.81111 0.0
H779 H 0.45855 0.33032 0.85027 0.0
H780 H 0.55748 0.85589 0.48266 0.0
H781 H 0.55185 0.79911 0.48621 0.0
H782 H 0.64146 0.82771 0.45695 0.0
H783 H 0.64731 0.88493 0.45326 0.0
H784 H 0.5525 0.74013 0.47207 0.0
H785 H 0.69939 0.82464 0.4807 0.0
H786 H 0.74498 0.88684 0.48431 0.0
H787 H 0.67262 0.90934 0.50844 0.0
H788 H 0.62677 0.8473 0.50502 0.0
H789 H 0.62224 0.63996 0.50808 0.0
H790 H 0.60729 0.67413 0.49061 0.0
H791 H 0.62013 0.74368 0.53124 0.0
H792 H 0.63653 0.71075 0.54856 0.0
H793 H 0.65815 0.77854 0.50681 0.0
H794 H 0.53989 0.68689 0.51413 0.0
H795 H 0.49095 0.62611 0.51321 0.0
H796 H 0.50041 0.61833 0.46193 0.0
H797 H 0.54975 0.67896 0.46259 0.0
C798 C 0.57492 0.84956 0.47623 0.0
C799 C 0.60352 0.87524 0.46808 0.0
C800 C 0.57156 0.81691 0.47826 0.0
C801 C 0.59678 0.80968 0.47219 0.0
C802 C 0.62202 0.83311 0.46189 0.0
C803 C 0.62549 0.86586 0.4599 0.0
C804 C 0.60222 0.78346 0.48016 0.0
C805 C 0.57579 0.74823 0.47946 0.0
C806 C 0.63218 0.79436 0.49016 0.0
C807 C 0.65969 0.83154 0.49245 0.0
C808 C 0.69331 0.84291 0.48679 0.0
C809 C 0.71915 0.87811 0.4888 0.0
C810 C 0.71167 0.90204 0.49656 0.0
C811 C 0.67837 0.8908 0.5024 0.0
C812 C 0.65244 0.85566 0.5004 0.0
C813 C 0.62172 0.66247 0.51329 0.0
C814 C 0.63099 0.67292 0.52967 0.0
C815 C 0.61279 0.68169 0.50333 0.0
C816 C 0.6127 0.71144 0.50964 0.0
C817 C 0.62016 0.72082 0.52614 0.0
C818 C 0.62926 0.70179 0.53606 0.0
C819 C 0.6083 0.73496 0.49892 0.0
C820 C 0.63513 0.76993 0.49913 0.0
C821 C 0.57836 0.72376 0.48883 0.0
C822 C 0.54878 0.68731 0.48844 0.0
C823 C 0.53176 0.67211 0.50268 0.0
C824 C 0.5039 0.63771 0.5022 0.0
C825 C 0.49265 0.61833 0.48753 0.0
C826 C 0.50919 0.63335 0.4733 0.0
C827 C 0.53709 0.66773 0.47371 0.0
H828 H 0.47106 0.59171 0.48718 0.0
H829 H 0.73168 0.92928 0.49807 0.0
H830 H 0.812 0.55965 0.81312 0.0
H831 H 0.83949 0.5241 0.81062 0.0
H832 H 0.76751 0.45264 0.84434 0.0
H833 H 0.7402 0.48877 0.84707 0.0
H834 H 0.83091 0.4785 0.85493 0.0
H835 H 0.77426 0.42502 0.80598 0.0
H836 H 0.74917 0.41685 0.77857 0.0
H837 H 0.85148 0.48077 0.76023 0.0
H838 H 0.87727 0.48957 0.78755 0.0
H839 H 0.9807 0.46873 0.86091 0.0
H840 H 0.91964 0.43838 0.85146 0.0
H841 H 0.9433 0.52027 0.81864 0.0
H842 H 1.00379 0.55057 0.82797 0.0
H843 H 0.88638 0.45687 0.8076 0.0
H844 H 0.92967 0.53328 0.85751 0.0
H845 H 0.95839 0.54737 0.88451 0.0
H846 H 0.8819 0.44608 0.89987 0.0
H847 H 0.85312 0.43125 0.87282 0.0
C848 C 0.80136 0.5358 0.81961 0.0
C849 C 0.77452 0.52728 0.83052 0.0
C850 C 0.81685 0.51522 0.81806 0.0
C851 C 0.80547 0.48553 0.82724 0.0
C852 C 0.7767 0.47542 0.83715 0.0
C853 C 0.76138 0.49621 0.83882 0.0
C854 C 0.82833 0.47035 0.82903 0.0
C855 C 0.84196 0.47225 0.84458 0.0
C856 C 0.84305 0.46252 0.81553 0.0
C857 C 0.82779 0.45758 0.79893 0.0
C858 C 0.7915 0.43727 0.79614 0.0
C859 C 0.77711 0.43258 0.78058 0.0
C860 C 0.79873 0.44819 0.76764 0.0
C861 C 0.83477 0.46854 0.77025 0.0
C862 C 0.8493 0.47325 0.78579 0.0
C863 C 0.97299 0.47969 0.85135 0.0
C864 C 0.99681 0.51245 0.84547 0.0
C865 C 0.93824 0.46212 0.84583 0.0
C866 C 0.9269 0.4774 0.83455 0.0
C867 C 0.95151 0.50794 0.82732 0.0
C868 C 0.98617 0.5254 0.83276 0.0
C869 C 0.88982 0.46761 0.83322 0.0
C870 C 0.87372 0.46106 0.81787 0.0
C871 C 0.87295 0.47186 0.84681 0.0
C872 C 0.88952 0.48104 0.86317 0.0
C873 C 0.91906 0.51403 0.86666 0.0
C874 C 0.93537 0.52212 0.88194 0.0
C875 C 0.92202 0.4976 0.89389 0.0
C876 C 0.89226 0.465 0.89059 0.0
C877 C 0.87597 0.45672 0.87528 0.0
H878 H 0.93469 0.50389 0.90571 0.0
H879 H 0.78754 0.44458 0.75561 0.0
H880 H 0.30607 0.73365 0.1513 0.0
H881 H 0.36328 0.78397 0.14731 0.0
H882 H 0.32007 0.81727 0.10983 0.0
H883 H 0.2621 0.76721 0.11423 0.0
H884 H 0.41361 0.82346 0.12721 0.0
H885 H 0.34444 0.89961 0.11796 0.0
H886 H 0.28595 0.89318 0.1199 0.0
H887 H 0.26266 0.82424 0.15889 0.0
H888 H 0.32107 0.83055 0.15723 0.0
H889 H 0.53525 1.01 0.15289 0.0
H890 H 0.49653 0.9581 0.13556 0.0
H891 H 0.4277 0.91403 0.17527 0.0
H892 H 0.46517 0.96538 0.19236 0.0
H893 H 0.3963 0.92075 0.14676 0.0
H894 H 0.475 0.8811 0.16534 0.0
H895 H 0.53215 0.8846 0.16748 0.0
H896 H 0.53557 0.87755 0.11581 0.0
H897 H 0.47859 0.87447 0.11338 0.0
C898 C 0.30894 0.75092 0.14177 0.0
C899 C 0.27962 0.74713 0.13335 0.0
C900 C 0.34179 0.77963 0.13941 0.0
C901 C 0.34578 0.80485 0.12855 0.0
C902 C 0.31738 0.79841 0.11848 0.0
C903 C 0.2843 0.76998 0.12106 0.0
C904 C 0.3763 0.84051 0.1309 0.0
C905 C 0.41004 0.84509 0.13107 0.0
C906 C 0.37167 0.86872 0.13607 0.0
C907 C 0.33681 0.86524 0.13734 0.0
C908 C 0.3268 0.88317 0.12695 0.0
C909 C 0.29369 0.87952 0.128 0.0
C910 C 0.27056 0.85821 0.13947 0.0
C911 C 0.28056 0.84067 0.14999 0.0
C912 C 0.31363 0.84427 0.149 0.0
C913 C 0.512 0.98902 0.15792 0.0
C914 C 0.50325 0.99183 0.17399 0.0
C915 C 0.49011 0.95945 0.14805 0.0
C916 C 0.45928 0.93255 0.15417 0.0
C917 C 0.4514 0.93467 0.17035 0.0
C918 C 0.47309 0.96394 0.18016 0.0
C919 C 0.43321 0.90308 0.14378 0.0
C920 C 0.4003 0.89985 0.14207 0.0
C921 C 0.43859 0.87601 0.13768 0.0
C922 C 0.47287 0.87813 0.13917 0.0
C923 C 0.48815 0.88072 0.15443 0.0
C924 C 0.52044 0.88251 0.1557 0.0
C925 C 0.53756 0.88145 0.14178 0.0
C926 C 0.52234 0.87848 0.12657 0.0
C927 C 0.49006 0.87671 0.12524 0.0
H928 H 0.56254 0.88281 0.14279 0.0
H929 H 0.24492 0.85536 0.14024 0.0
H930 H 0.66049 0.23049 0.46913 0.0
H931 H 0.71211 0.28871 0.4701 0.0
H932 H 0.64695 0.33488 0.46883 0.0
H933 H 0.59489 0.27673 0.4685 0.0
H934 H 0.7171 0.37343 0.45267 0.0
H935 H 0.66028 0.31197 0.50266 0.0
H936 H 0.64283 0.26253 0.52026 0.0
H937 H 0.74891 0.28559 0.5238 0.0
H938 H 0.76676 0.33413 0.50549 0.0
H939 H 0.73481 0.50862 0.49913 0.0
H940 H 0.72757 0.45891 0.48306 0.0
H941 H 0.80391 0.45312 0.51336 0.0
H942 H 0.80996 0.50284 0.53024 0.0
H943 H 0.75352 0.39373 0.51059 0.0
H944 H 0.81468 0.46663 0.46989 0.0
H945 H 0.83726 0.51566 0.4517 0.0
H946 H 0.73538 0.4737 0.42972 0.0
H947 H 0.71197 0.42471 0.44792 0.0
C948 C 0.65702 0.25291 0.46849 0.0
C949 C 0.62361 0.24913 0.46925 0.0
C950 C 0.68665 0.2861 0.46887 0.0
C951 C 0.68328 0.31584 0.46962 0.0
C952 C 0.65001 0.31209 0.46826 0.0
C953 C 0.62031 0.27891 0.46821 0.0
C954 C 0.71285 0.34992 0.47534 0.0
C955 C 0.7255 0.37819 0.46527 0.0
C956 C 0.72551 0.35543 0.4915 0.0
C957 C 0.71472 0.32629 0.5025 0.0
C958 C 0.6798 0.30616 0.50697 0.0
C959 C 0.66984 0.27825 0.51704 0.0
C960 C 0.69474 0.27078 0.52304 0.0
C961 C 0.72966 0.29124 0.519 0.0
C962 C 0.73967 0.31881 0.5087 0.0
C963 C 0.75098 0.49759 0.50213 0.0
C964 C 0.77321 0.50984 0.51587 0.0
C965 C 0.74707 0.46915 0.49276 0.0
C966 C 0.76585 0.45251 0.49662 0.0
C967 C 0.78931 0.46562 0.51 0.0
C968 C 0.79275 0.49393 0.51965 0.0
C969 C 0.75596 0.41836 0.48824 0.0
C970 C 0.7469 0.38962 0.49778 0.0
C971 C 0.74781 0.41247 0.47143 0.0
C972 C 0.76156 0.44183 0.4603 0.0
C973 C 0.79701 0.4679 0.46123 0.0
C974 C 0.80997 0.49571 0.45091 0.0
C975 C 0.78778 0.49778 0.43956 0.0
C976 C 0.75257 0.47201 0.43849 0.0
C977 C 0.73946 0.44413 0.44879 0.0
H978 H 0.79786 0.51935 0.43158 0.0
H979 H 0.68702 0.24922 0.53088 0.0
H980 H 0.50969 0.66293 0.80462 0.0
H981 H 0.49261 0.70767 0.80498 0.0
H982 H 0.38438 0.62692 0.80328 0.0
H983 H 0.40131 0.58228 0.8027 0.0
H984 H 0.393 0.68519 0.78922 0.0
H985 H 0.44022 0.6616 0.84084 0.0
H986 H 0.49115 0.66587 0.85531 0.0
H987 H 0.5515 0.77476 0.84552 0.0
H988 H 0.50115 0.77095 0.83078 0.0
H989 H 0.27669 0.65746 0.84426 0.0
H990 H 0.32326 0.66602 0.82672 0.0
H991 H 0.38828 0.77033 0.84763 0.0
H992 H 0.34065 0.76155 0.86569 0.0
H993 H 0.42341 0.7362 0.84528 0.0
H994 H 0.36378 0.76173 0.80719 0.0
H995 H 0.31413 0.75939 0.79254 0.0
H996 H 0.28077 0.65465 0.77493 0.0
H997 H 0.32981 0.65603 0.78965 0.0
C998 C 0.48228 0.6549 0.80369 0.0
C999 C 0.45669 0.61935 0.80391 0.0
C1000 C 0.47264 0.68043 0.80383 0.0
C1001 C 0.43737 0.67072 0.80449 0.0
C1002 C 0.41183 0.6351 0.80282 0.0
C1003 C 0.42144 0.60953 0.80251 0.0
C1004 C 0.42663 0.69604 0.81001 0.0
C1005 C 0.39992 0.69697 0.80135 0.0
C1006 C 0.43738 0.7136 0.8254 0.0
C1007 C 0.46708 0.71597 0.83472 0.0
C1008 C 0.46437 0.68643 0.84183 0.0
C1009 C 0.49317 0.68875 0.85001 0.0
C1010 C 0.52459 0.72056 0.8513 0.0
C1011 C 0.52725 0.75013 0.84445 0.0
C1012 C 0.49861 0.74792 0.83619 0.0
C1013 C 0.30055 0.68259 0.84494 0.0
C1014 C 0.30476 0.70917 0.85608 0.0
C1015 C 0.32719 0.68757 0.8348 0.0
C1016 C 0.35885 0.71934 0.83537 0.0
C1017 C 0.36372 0.7459 0.84674 0.0
C1018 C 0.33671 0.74084 0.85707 0.0
C1019 C 0.38722 0.72193 0.82511 0.0
C1020 C 0.41751 0.72644 0.8328 0.0
C1021 C 0.38026 0.71024 0.80866 0.0
C1022 C 0.35078 0.70913 0.79948 0.0
C1023 C 0.34585 0.73815 0.80022 0.0
C1024 C 0.31776 0.73697 0.79191 0.0
C1025 C 0.29436 0.70692 0.78278 0.0
C1026 C 0.29901 0.67797 0.78195 0.0
C1027 C 0.32706 0.67899 0.79023 0.0
H1028 H 0.2726 0.70605 0.77637 0.0
H1029 H 0.54689 0.72231 0.85759 0.0
H1030 H 0.90143 0.44643 0.14638 0.0
H1031 H 0.84365 0.44005 0.14915 0.0
H1032 H 0.80192 0.33199 0.16039 0.0
H1033 H 0.85976 0.33855 0.1575 0.0
H1034 H 0.75427 0.33947 0.1445 0.0
H1035 H 0.83907 0.3997 0.18813 0.0
H1036 H 0.8923 0.44716 0.20165 0.0
H1037 H 0.85711 0.51963 0.1931 0.0
H1038 H 0.80434 0.47293 0.17895 0.0
H1039 H 0.68357 0.31567 0.2248 0.0
H1040 H 0.72899 0.35667 0.20805 0.0
H1041 H 0.65228 0.3391 0.17105 0.0
H1042 H 0.60633 0.29635 0.18776 0.0
H1043 H 0.75417 0.41101 0.19192 0.0
H1044 H 0.68127 0.33213 0.13589 0.0
H1045 H 0.62995 0.27553 0.12709 0.0
H1046 H 0.64528 0.22756 0.16799 0.0
H1047 H 0.69635 0.28382 0.17704 0.0
C1048 C 0.87953 0.42115 0.14901 0.0
C1049 C 0.88467 0.39304 0.15196 0.0
C1050 C 0.84659 0.41749 0.15054 0.0
C1051 C 0.81854 0.38572 0.15522 0.0
C1052 C 0.82319 0.35677 0.15675 0.0
C1053 C 0.85613 0.36042 0.15514 0.0
C1054 C 0.78585 0.38336 0.16086 0.0
C1055 C 0.75416 0.35565 0.15463 0.0
C1056 C 0.7857 0.4045 0.17409 0.0
C1057 C 0.81818 0.43297 0.18204 0.0
C1058 C 0.84303 0.42591 0.1888 0.0
C1059 C 0.87312 0.45268 0.19662 0.0
C1060 C 0.87825 0.48646 0.19813 0.0
C1061 C 0.85335 0.49356 0.19177 0.0
C1062 C 0.82343 0.46698 0.18376 0.0
C1063 C 0.67602 0.32155 0.21342 0.0
C1064 C 0.64148 0.30225 0.20744 0.0
C1065 C 0.70217 0.34515 0.20376 0.0
C1066 C 0.69427 0.35019 0.18801 0.0
C1067 C 0.65913 0.33485 0.18296 0.0
C1068 C 0.63288 0.31058 0.19254 0.0
C1069 C 0.72302 0.36539 0.1764 0.0
C1070 C 0.75402 0.39596 0.18126 0.0
C1071 C 0.72295 0.3458 0.16248 0.0
C1072 C 0.69219 0.31209 0.1572 0.0
C1073 C 0.67351 0.30945 0.14299 0.0
C1074 C 0.64446 0.27747 0.13799 0.0
C1075 C 0.63418 0.24799 0.14704 0.0
C1076 C 0.65301 0.2504 0.16107 0.0
C1077 C 0.68197 0.2823 0.16614 0.0
H1078 H 0.61172 0.22324 0.14315 0.0
H1079 H 0.90142 0.50702 0.20434 0.0
H1080 H 1.08084 0.59046 0.11145 0.0
H1081 H 0.09014 0.59852 0.08261 0.0
H1082 H 0.13719 0.53376 0.08154 0.0
H1083 H 0.12752 0.52509 0.11059 0.0
H1084 H 0.175 0.60135 0.0653 0.0
H1085 H 1.06209 0.49752 0.06653 0.0
H1086 H 1.00192 0.46217 0.07575 0.0
H1087 H 0.97633 0.53639 0.05769 0.0
H1088 H 1.03654 0.57248 0.04857 0.0
H1089 H 0.17341 0.5923 0.97867 0.0
H1090 H 0.17095 0.58174 0.00756 0.0
H1091 H 0.0966 0.61688 0.01322 0.0
H1092 H 0.09804 0.62601 0.98427 0.0
H1093 H 1.07377 0.55932 0.02723 0.0
H1094 H 0.18474 0.66531 0.02766 0.0
H1095 H 0.24511 0.70457 0.01955 0.0
H1096 H 0.27484 0.63165 0.03526 0.0
H1097 H 0.2145 0.59173 0.04327 0.0
C1098 C 0.09311 0.57783 0.10511 0.0
C1099 C 0.10332 0.557 0.11326 0.0
C1100 C 0.09837 0.58246 0.08864 0.0
C1101 C 0.11423 0.56665 0.08 0.0
C1102 C 0.12488 0.54613 0.08806 0.0
C1103 C 0.11915 0.54104 0.10458 0.0
C1104 C 0.11912 0.57156 0.06248 0.0
C1105 C 0.153 0.59166 0.05685 0.0
C1106 C 0.09027 0.5597 0.05168 0.0
C1107 C 1.05391 0.53783 0.05698 0.0
C1108 C 1.04371 0.50644 0.06463 0.0
C1109 C 1.00958 0.48624 0.06982 0.0
C1110 C 0.98534 0.49706 0.06734 0.0
C1111 C 0.99515 0.52805 0.05961 0.0
C1112 C 1.02926 0.54837 0.05442 0.0
C1113 C 0.15705 0.59829 0.98619 0.0
C1114 C 0.13588 0.6099 0.97933 0.0
C1115 C 0.15568 0.59232 0.00269 0.0
C1116 C 0.13368 0.59864 0.01263 0.0
C1117 C 0.11358 0.61157 0.00581 0.0
C1118 C 0.1145 0.61693 0.98931 0.0
C1119 C 0.12981 0.58988 0.02991 0.0
C1120 C 0.09599 0.5689 0.03554 0.0
C1121 C 0.15875 0.60144 0.04073 0.0
C1122 C 0.19501 0.62535 0.03588 0.0
C1123 C 0.20408 0.65751 0.02925 0.0
C1124 C 0.23831 0.67991 0.0247 0.0
C1125 C 0.26377 0.67056 0.02684 0.0
C1126 C 0.25507 0.63883 0.03358 0.0
C1127 C 0.22087 0.61632 0.03813 0.0
H1128 H 0.29026 0.68795 0.02332 0.0
H1129 H 0.95893 0.48139 0.07137 0.0
H1130 H 0.63983 0.10117 0.44869 0.0
H1131 H 0.63896 0.10924 0.41961 0.0
H1132 H 0.52667 1.04785 0.41828 0.0
H1133 H 0.52724 1.04045 0.4474 0.0
H1134 H 0.56599 1.02959 0.39389 0.0
H1135 H 0.55157 0.12487 0.41551 0.0
H1136 H 0.56746 0.17755 0.43276 0.0
H1137 H 0.66815 0.2307 0.41155 0.0
H1138 H 0.65283 0.17824 0.39417 0.0
H1139 H 0.51881 1.05466 0.31672 0.0
H1140 H 0.52376 1.05025 0.34579 0.0
H1141 H 0.62906 0.13767 0.34641 0.0
H1142 H 0.62374 0.14277 0.31734 0.0
H1143 H 0.5971 0.14371 0.37147 0.0
H1144 H 0.61102 1.05163 0.34807 0.0
H1145 H 0.59648 0.9997 0.33051 0.0
H1146 H 0.50071 0.9403 0.35518 0.0
H1147 H 0.51444 0.99204 0.37275 0.0
C1148 C 0.61499 0.08929 0.44216 0.0
C1149 C 0.58358 0.07005 0.45022 0.0
C1150 C 0.61455 0.09408 0.42563 0.0
C1151 C 0.58275 0.07914 0.41692 0.0
C1152 C 0.55141 0.05954 0.42488 0.0
C1153 C 0.55179 1.05539 0.44146 0.0
C1154 C 0.58211 0.08351 0.39941 0.0
C1155 C 0.57243 1.05439 0.38893 0.0
C1156 C 0.59168 0.11618 0.39308 0.0
C1157 C 0.60122 0.14752 0.4037 0.0
C1158 C 0.57724 0.14767 0.41465 0.0
C1159 C 0.5861 0.17753 0.42441 0.0
C1160 C 0.61894 0.20737 0.42338 0.0
C1161 C 0.64283 0.20751 0.41243 0.0
C1162 C 0.63403 0.17776 0.40258 0.0
C1163 C 0.54301 0.07286 0.32308 0.0
C1164 C 0.57098 0.0989 0.31482 0.0
C1165 C 0.54588 0.07027 0.33966 0.0
C1166 C 0.57705 0.09318 0.34824 0.0
C1167 C 0.60482 0.11964 0.34004 0.0
C1168 C 0.60177 0.12255 0.32347 0.0
C1169 C 0.58048 0.08956 0.36576 0.0
C1170 C 0.59084 0.11886 0.37631 0.0
C1171 C 0.57196 1.05706 0.37215 0.0
C1172 C 0.56364 1.02582 0.36164 0.0
C1173 C 0.58674 1.02757 0.34968 0.0
C1174 C 0.57866 0.99816 0.33973 0.0
C1175 C 0.54765 0.96675 0.3417 0.0
C1176 C 0.5247 0.96466 0.35365 0.0
C1177 C 0.53264 0.99402 0.36362 0.0
H1178 H 0.54145 0.944 0.33399 0.0
H1179 H 0.6258 0.23042 0.43099 0.0
H1180 H 0.68463 0.58252 0.78928 0.0
H1181 H 0.69665 0.58057 0.76072 0.0
H1182 H 0.59118 0.55351 0.7482 0.0
H1183 H 0.57938 0.55673 0.77679 0.0
H1184 H 0.67293 0.53174 0.73846 0.0
H1185 H 0.58802 0.58468 0.71208 0.0
H1186 H 0.56667 0.6247 0.72013 0.0
H1187 H 0.65339 0.68009 0.75363 0.0
H1188 H 0.67551 0.64073 0.74563 0.0
H1189 H 0.66207 0.50586 0.65269 0.0
H1190 H 0.64986 0.506 0.68151 0.0
H1191 H 0.70399 0.61884 0.68341 0.0
H1192 H 0.71474 0.61852 0.65457 0.0
H1193 H 0.64799 0.59758 0.69856 0.0
H1194 H 0.73911 0.5695 0.69949 0.0
H1195 H 0.76848 0.53642 0.69212 0.0
H1196 H 0.6837 0.44369 0.71079 0.0
H1197 H 0.6536 0.47614 0.71808 0.0
C1198 C 0.66401 0.5763 0.78044 0.0
C1199 C 0.63111 0.57001 0.78527 0.0
C1200 C 0.67089 0.57504 0.76411 0.0
C1201 C 0.64495 0.56719 0.75227 0.0
C1202 C 0.61185 0.56031 0.75708 0.0
C1203 C 0.6051 0.56208 0.77343 0.0
C1204 C 0.65274 0.56634 0.73491 0.0
C1205 C 0.66744 0.54612 0.72973 0.0
C1206 C 0.64615 0.58553 0.72354 0.0
C1207 C 0.63319 0.6095 0.72837 0.0
C1208 C 0.60258 0.60546 0.72113 0.0
C1209 C 0.59034 0.62802 0.72569 0.0
C1210 C 0.60861 0.65485 0.73741 0.0
C1211 C 0.6392 0.65922 0.74459 0.0
C1212 C 0.65157 0.63677 0.74006 0.0
C1213 C 0.67157 0.53058 0.65937 0.0
C1214 C 0.6893 0.56216 0.65151 0.0
C1215 C 0.66468 0.53071 0.67582 0.0
C1216 C 0.67619 0.56247 0.68471 0.0
C1217 C 0.6946 0.594 0.67684 0.0
C1218 C 0.7009 0.59384 0.66039 0.0
C1219 C 0.66841 0.56314 0.70209 0.0
C1220 C 0.65345 0.58314 0.70727 0.0
C1221 C 0.67592 0.54474 0.71355 0.0
C1222 C 0.69394 0.52516 0.70918 0.0
C1223 C 0.72661 0.54199 0.70191 0.0
C1224 C 0.74341 0.52337 0.69777 0.0
C1225 C 0.72792 0.48795 0.70094 0.0
C1226 C 0.69564 0.47111 0.70831 0.0
C1227 C 0.67871 0.48961 0.71246 0.0
H1228 H 0.74098 0.47358 0.69773 0.0
H1229 H 0.59916 0.67233 0.74088 0.0
H1230 H 0.64506 0.07907 0.55342 0.0
H1231 H 0.64791 0.07826 0.5828 0.0
H1232 H 0.53859 1.04604 0.58457 0.0
H1233 H 0.53645 1.04927 0.55523 0.0
H1234 H 0.56766 0.08843 0.60772 0.0
H1235 H 0.57427 0.98858 0.5898 0.0
H1236 H 0.59596 0.95495 0.57445 0.0
H1237 H 0.69669 1.0165 0.59782 0.0
H1238 H 0.67574 1.05082 0.61316 0.0
H1239 H 0.55505 1.02269 0.6884 0.0
H1240 H 0.55105 1.01881 0.6587 0.0
H1241 H 0.6555 0.10674 0.65708 0.0
H1242 H 0.65913 0.11146 0.68673 0.0
H1243 H 0.62624 1.03264 0.63461 0.0
H1244 H 0.61492 0.13554 0.65035 0.0
H1245 H 0.58724 0.16254 0.66639 0.0
H1246 H 0.48656 0.08445 0.64721 0.0
H1247 H 0.51368 1.05668 0.63126 0.0
C1248 C 0.62168 0.07185 0.56011 0.0
C1249 C 0.59051 0.06413 0.55208 0.0
C1250 C 0.62321 0.07108 0.57692 0.0
C1251 C 0.59325 0.06122 0.58601 0.0
C1252 C 0.56211 1.05368 0.57793 0.0
C1253 C 0.56085 1.05547 0.56115 0.0
C1254 C 0.59458 0.05957 0.60393 0.0
C1255 C 0.58014 0.07578 0.61347 0.0
C1256 C 0.61082 1.04314 0.61169 0.0
C1257 C 0.6235 1.02248 0.60253 0.0
C1258 C 0.60111 0.9951 0.59159 0.0
C1259 C 0.61327 0.97589 0.5829 0.0
C1260 C 0.6477 0.98363 0.58513 0.0
C1261 C 0.67003 1.01055 0.59609 0.0
C1262 C 0.65802 1.02987 0.6048 0.0
C1263 C 0.5772 1.04091 0.68165 0.0
C1264 C 0.60737 0.0674 0.68973 0.0
C1265 C 0.57489 1.03871 0.66476 0.0
C1266 C 0.60299 0.06253 0.65579 0.0
C1267 C 0.63361 0.08816 0.66385 0.0
C1268 C 0.63563 0.09087 0.68071 0.0
C1269 C 0.59985 0.0618 0.63801 0.0
C1270 C 0.61379 1.04508 0.62863 0.0
C1271 C 0.58242 0.07688 0.63037 0.0
C1272 C 0.56625 0.09382 0.6398 0.0
C1273 C 0.58686 0.12393 0.6497 0.0
C1274 C 0.57128 0.13942 0.65874 0.0
C1275 C 0.53515 0.12515 0.65786 0.0
C1276 C 0.51453 0.09544 0.6479 0.0
C1277 C 0.52999 0.07982 0.63886 0.0
H1278 H 0.52314 0.13718 0.66487 0.0
H1279 H 0.65707 0.96874 0.57839 0.0
H1280 H 0.64321 0.60941 0.89047 0.0
H1281 H 0.63816 0.60186 0.91949 0.0
H1282 H 0.53726 0.50935 0.91178 0.0
H1283 H 0.54206 0.51664 0.88256 0.0
H1284 H 0.53965 0.55422 0.93732 0.0
H1285 H 0.60421 0.49946 0.9195 0.0
H1286 H 0.65132 0.49644 0.90528 0.0
H1287 H 0.72784 0.58225 0.93536 0.0
H1288 H 0.68117 0.58615 0.9496 0.0
H1289 H 0.52639 0.49604 0.01654 0.0
H1290 H 0.5291 0.49852 0.98717 0.0
H1291 H 0.63519 0.58411 0.99157 0.0
H1292 H 0.63272 0.58141 0.02101 0.0
H1293 H 0.62882 0.54044 0.96731 0.0
H1294 H 0.56625 0.59767 0.98435 0.0
H1295 H 0.52037 0.60342 -0.00168 0.0
H1296 H 0.44164 0.5162 0.96969 0.0
H1297 H 0.48707 0.50961 0.95569 0.0
C1298 C 0.61979 0.58752 0.89489 0.0
C1299 C 0.59306 0.56353 0.88416 0.0
C1300 C 0.61705 0.58319 0.91151 0.0
C1301 C 0.58754 0.55482 0.91777 0.0
C1302 C 0.56031 0.53135 0.90717 0.0
C1303 C 0.56313 0.53553 0.89049 0.0
C1304 C 0.58552 0.54961 0.93538 0.0
C1305 C 0.55878 0.55062 0.94386 0.0
C1306 C 0.61106 0.54585 0.94394 0.0
C1307 C 0.63918 0.54329 0.93553 0.0
C1308 C 0.63108 0.51785 0.92301 0.0
C1309 C 0.65771 0.51596 0.91495 0.0
C1310 C 0.69256 0.53919 0.91939 0.0
C1311 C 0.70084 0.5643 0.93192 0.0
C1312 C 0.6743 0.56634 0.94 0.0
C1313 C 0.55031 0.51537 0.01125 0.0
C1314 C 0.57925 0.53874 0.02109 0.0
C1315 C 0.55182 0.5168 0.99445 0.0
C1316 C 0.58213 0.54195 0.98714 0.0
C1317 C 0.61148 0.56454 -0.00308 0.0
C1318 C 0.61008 0.56293 0.01374 0.0
C1319 C 0.58296 0.54517 0.96934 0.0
C1320 C 0.60953 0.54384 0.9608 0.0
C1321 C 0.55742 0.54894 0.96074 0.0
C1322 C 0.53005 0.55292 0.96909 0.0
C1323 C 0.53914 0.57954 0.98112 0.0
C1324 C 0.51322 0.58298 0.98903 0.0
C1325 C 0.47811 0.56013 0.98493 0.0
C1326 C 0.46885 0.53385 0.97287 0.0
C1327 C 0.49467 0.53026 0.96494 0.0
H1328 H 0.45808 0.56284 0.99107 0.0
H1329 H 0.71314 0.53769 0.91313 0.0
H1330 H 0.1055 0.60059 0.21891 0.0
H1331 H 0.10379 0.59864 0.24821 0.0
H1332 H 1.054 0.48623 0.24451 0.0
H1333 H 1.05494 0.48783 0.215 0.0
H1334 H 1.02545 0.50668 0.26788 0.0
H1335 H 0.14104 0.53626 0.2539 0.0
H1336 H 0.19732 0.56905 0.24055 0.0
H1337 H 0.21711 0.6635 0.26622 0.0
H1338 H 0.1607 0.63137 0.27956 0.0
H1339 H 1.06364 0.49742 0.35149 0.0
H1340 H 1.0592 0.49181 0.32194 0.0
H1341 H 0.10609 0.6036 0.31986 0.0
H1342 H 0.11031 0.60939 0.34928 0.0
H1343 H 0.13615 0.57891 0.29933 0.0
H1344 H 1.01874 0.54868 0.3125 0.0
H1345 H 0.96257 0.51506 0.32585 0.0
H1346 H 0.9468 0.42041 0.30188 0.0
H1347 H 1.00313 0.45343 0.28855 0.0
C1348 C 0.09406 0.57536 0.22426 0.0
C1349 C 1.08066 0.54437 0.21454 0.0
C1350 C 0.09321 0.57432 0.24106 0.0
C1351 C 1.07941 0.54234 0.24861 0.0
C1352 C 1.06496 0.51123 0.23897 0.0
C1353 C 1.06559 0.51221 0.2221 0.0
C1354 C 1.0808 0.54173 0.26653 0.0
C1355 C 1.04974 0.52204 0.27475 0.0
C1356 C 0.11241 0.56206 0.27554 0.0
C1357 C 0.14649 0.58145 0.26763 0.0
C1358 C 0.15728 0.56407 0.25662 0.0
C1359 C 0.18922 0.58253 0.24906 0.0
C1360 C 0.21074 0.61835 0.25251 0.0
C1361 C 0.2004 0.63576 0.26355 0.0
C1362 C 0.16846 0.61743 0.27113 0.0
C1363 C 1.0726 0.52077 0.34474 0.0
C1364 C 0.08751 0.55389 0.35278 0.0
C1365 C 1.0701 0.51752 0.32785 0.0
C1366 C 1.08222 0.54729 0.31866 0.0
C1367 C 0.09676 0.58028 0.32667 0.0
C1368 C 0.09927 0.58355 0.34351 0.0
C1369 C 1.08073 0.54446 0.30071 0.0
C1370 C 0.11187 0.56341 0.29247 0.0
C1371 C 1.04925 0.52331 0.29172 0.0
C1372 C 1.01532 0.50347 0.29966 0.0
C1373 C 1.00343 0.52066 0.31018 0.0
C1374 C 0.97154 0.50172 0.31772 0.0
C1375 C 0.95118 0.4656 0.31475 0.0
C1376 C 0.96262 0.44837 0.30419 0.0
C1377 C 0.99451 0.46719 0.29663 0.0
H1378 H 0.9265 0.45098 0.3206 0.0
H1379 H 0.23546 0.6326 0.24665 0.0
loop_
_geom_bond_atom_site_label_1
_geom_bond_atom_site_label_2
_geom_bond_distance
_geom_bond_site_symmetry_2
_ccdc_geom_bond_type
Eu0 C9 2.828 . S
Eu0 O11 2.392 1_655 S
Eu0 O13 2.418 . S
Eu0 O18 2.373 . S
Eu0 O21 2.488 . S
Eu0 O22 2.471 . S
Eu0 O23 2.349 . S
Eu1 O10 2.373 . S
Eu1 O14 2.488 . S
Eu1 O15 2.471 . S
Eu1 O16 2.349 . S
Eu1 O19 2.392 1_455 S
Eu1 O20 2.418 . S
Eu1 C30 2.828 . S
C2 O20 1.244 . S
C2 O23 1.265 1_455 S
C3 C4 1.379 . S
C3 C7 1.373 . S
C3 C9 1.505 . S
C4 C3 1.379 . S
C4 C6 1.369 . S
C4 H32 0.930 . S
C5 C7 1.383 . S
C5 C8 1.382 . S
C5 H33 0.930 . S
C6 C4 1.369 . S
C6 C8 1.392 . S
C6 H34 0.930 . S
C7 C3 1.373 . S
C7 C5 1.383 . S
C7 H35 0.931 . S
C8 C5 1.382 . S
C8 C6 1.392 . S
C9 Eu0 2.828 . S
C9 C3 1.505 . S
C9 O21 1.249 . S
C9 O22 1.244 . S
O10 Eu1 2.373 . S
O10 C12 1.258 . S
O11 Eu0 2.392 1_455 S
O11 C12 1.242 . S
C12 O10 1.258 . S
C12 O11 1.242 . S
O13 Eu0 2.418 . S
O13 C17 1.244 1_655 S
O14 Eu1 2.488 . S
O14 C30 1.249 . S
O15 Eu1 2.471 . S
O15 C30 1.244 . S
O16 Eu1 2.349 . S
O16 C17 1.265 . S
C17 O13 1.244 1_455 S
C17 O16 1.265 . S
O18 Eu0 2.373 . S
O18 C31 1.258 . S
O19 Eu1 2.392 1_655 S
O19 C31 1.242 . S
O20 Eu1 2.418 . S
O20 C2 1.244 . S
O21 Eu0 2.488 . S
O21 C9 1.249 . S
O22 Eu0 2.471 . S
O22 C9 1.244 . S
O23 Eu0 2.349 . S
O23 C2 1.265 1_655 S
C24 C25 1.379 . S
C24 C28 1.373 . S
C24 C30 1.505 . S
C25 C24 1.379 . S
C25 C27 1.369 . S
C25 H36 0.930 . S
C26 C28 1.383 . S
C26 C29 1.382 . S
C26 H37 0.930 . S
C27 C25 1.369 . S
C27 C29 1.392 . S
C27 H38 0.930 . S
C28 C24 1.373 . S
C28 C26 1.383 . S
C28 H39 0.931 . S
C29 C26 1.382 . S
C29 C27 1.392 . S
C30 Eu1 2.828 . S
C30 O14 1.249 . S
C30 O15 1.244 . S
C30 C24 1.505 . S
C31 O18 1.258 . S
C31 O19 1.242 . S
H32 C4 0.930 . S
H33 C5 0.930 . S
H34 C6 0.930 . S
H35 C7 0.931 . S
H36 C25 0.930 . S
H37 C26 0.930 . S
H38 C27 0.930 . S
H39 C28 0.931 . S
Eu40 C49 2.828 . S
Eu40 O51 2.392 1_565 S
Eu40 O53 2.418 . S
Eu40 O58 2.373 . S
Eu40 O61 2.488 . S
Eu40 O62 2.471 . S
Eu40 O63 2.329 1_565 S
Eu41 O50 2.373 . S
Eu41 O54 2.488 . S
Eu41 O55 2.471 . S
Eu41 O56 2.349 . S
Eu41 O59 2.392 1_545 S
Eu41 O60 2.418 . S
Eu41 C70 2.828 . S
C42 O60 1.244 . S
C42 O63 1.286 . S
C43 C44 1.379 . S
C43 C47 1.373 . S
C43 C49 1.505 . S
C44 C43 1.379 . S
C44 C46 1.369 . S
C44 H72 0.930 . S
C45 C47 1.383 . S
C45 C48 1.382 . S
C45 H73 0.930 . S
C46 C44 1.369 . S
C46 C48 1.392 . S
C46 H74 0.930 . S
C47 C43 1.373 . S
C47 C45 1.383 . S
C47 H75 0.931 . S
C48 C45 1.382 . S
C48 C46 1.392 . S
C49 Eu40 2.828 . S
C49 C43 1.505 . S
C49 O61 1.249 . S
C49 O62 1.244 . S
O50 Eu41 2.373 . S
O50 C52 1.258 . S
O51 Eu40 2.392 1_545 S
O51 C52 1.242 . S
C52 O50 1.258 . S
C52 O51 1.242 . S
O53 Eu40 2.418 . S
O53 C57 1.244 1_565 S
O54 Eu41 2.488 . S
O54 C70 1.249 . S
O55 Eu41 2.471 . S
O55 C70 1.244 . S
O56 Eu41 2.349 . S
O56 C57 1.265 . S
C57 O53 1.244 1_545 S
C57 O56 1.265 . S
O58 Eu40 2.373 . S
O58 C71 1.258 . S
O59 Eu41 2.392 1_565 S
O59 C71 1.242 . S
O60 Eu41 2.418 . S
O60 C42 1.244 . S
O61 Eu40 2.488 . S
O61 C49 1.249 . S
O62 Eu40 2.471 . S
O62 C49 1.244 . S
O63 Eu40 2.329 1_545 S
O63 C42 1.286 . S
C64 C65 1.379 . S
C64 C68 1.373 . S
C64 C70 1.505 . S
C65 C64 1.379 . S
C65 C67 1.369 . S
C65 H76 0.930 . S
C66 C68 1.383 . S
C66 C69 1.382 . S
C66 H77 0.930 . S
C67 C65 1.369 . S
C67 C69 1.392 . S
C67 H78 0.930 . S
C68 C64 1.373 . S
C68 C66 1.383 . S
C68 H79 0.931 . S
C69 C66 1.382 . S
C69 C67 1.392 . S
C70 Eu41 2.828 . S
C70 O54 1.249 . S
C70 O55 1.244 . S
C70 C64 1.505 . S
C71 O58 1.258 . S
C71 O59 1.242 . S
H72 C44 0.930 . S
H73 C45 0.930 . S
H74 C46 0.930 . S
H75 C47 0.931 . S
H76 C65 0.930 . S
H77 C66 0.930 . S
H78 C67 0.930 . S
H79 C68 0.931 . S
Eu80 C89 2.828 . S
Eu80 O91 2.392 . S
Eu80 O93 2.418 . S
Eu80 O98 2.373 . S
Eu80 O101 2.488 . S
Eu80 O102 2.471 . S
Eu80 O103 2.349 . S
Eu81 O90 2.373 . S
Eu81 O94 2.488 . S
Eu81 O95 2.471 . S
Eu81 O96 2.349 . S
Eu81 O99 2.392 . S
Eu81 O100 2.418 . S
Eu81 C110 2.828 . S
C82 O100 1.244 . S
C82 O103 1.265 . S
C83 C84 1.379 . S
C83 C87 1.373 . S
C83 C89 1.505 . S
C84 C83 1.379 . S
C84 C86 1.369 . S
C84 H112 0.930 . S
C85 C87 1.383 . S
C85 C88 1.382 . S
C85 H113 0.930 . S
C86 C84 1.369 . S
C86 C88 1.392 . S
C86 H114 0.930 . S
C87 C83 1.373 . S
C87 C85 1.383 . S
C87 H115 0.931 . S
C88 C85 1.382 . S
C88 C86 1.392 . S
C89 Eu80 2.828 . S
C89 C83 1.505 . S
C89 O101 1.249 . S
C89 O102 1.244 . S
O90 Eu81 2.373 . S
O90 C92 1.258 . S
O91 Eu80 2.392 . S
O91 C92 1.242 . S
C92 O90 1.258 . S
C92 O91 1.242 . S
O93 Eu80 2.418 . S
O93 C97 1.244 . S
O94 Eu81 2.488 . S
O94 C110 1.249 . S
O95 Eu81 2.471 . S
O95 C110 1.244 . S
O96 Eu81 2.349 . S
O96 C97 1.265 . S
C97 O93 1.244 . S
C97 O96 1.265 . S
O98 Eu80 2.373 . S
O98 C111 1.258 . S
O99 Eu81 2.392 . S
O99 C111 1.242 . S
O100 Eu81 2.418 . S
O100 C82 1.244 . S
O101 Eu80 2.488 . S
O101 C89 1.249 . S
O102 Eu80 2.471 . S
O102 C89 1.244 . S
O103 Eu80 2.349 . S
O103 C82 1.265 . S
C104 C105 1.379 . S
C104 C108 1.373 . S
C104 C110 1.505 . S
C105 C104 1.379 . S
C105 C107 1.369 . S
C105 H116 0.930 . S
C106 C108 1.383 . S
C106 C109 1.382 . S
C106 H117 0.930 . S
C107 C105 1.369 . S
C107 C109 1.392 . S
C107 H118 0.930 . S
C108 C104 1.373 . S
C108 C106 1.383 . S
C108 H119 0.931 . S
C109 C106 1.382 . S
C109 C107 1.392 . S
C110 Eu81 2.828 . S
C110 O94 1.249 . S
C110 O95 1.244 . S
C110 C104 1.505 . S
C111 O98 1.258 . S
C111 O99 1.242 . S
H112 C84 0.930 . S
H113 C85 0.930 . S
H114 C86 0.930 . S
H115 C87 0.931 . S
H116 C105 0.930 . S
H117 C106 0.930 . S
H118 C107 0.930 . S
H119 C108 0.931 . S
C120 C121 1.391 . S
C120 C124 1.391 . S
C120 H162 0.948 . S
C121 C120 1.391 . S
C121 C122 1.391 . S
C122 C121 1.391 . S
C122 H178 0.947 . S
C122 C179 1.392 . S
C123 C124 1.391 . S
C123 C127 1.397 . S
C123 C179 1.419 . S
C124 C120 1.391 . S
C124 C123 1.391 . S
C124 C125 1.399 . S
C125 C124 1.399 . S
C125 C128 1.396 . S
C125 C137 1.453 . S
C125 C138 1.684 . S
H126 C150 0.948 . S
C127 C123 1.397 . S
C127 C128 1.394 . S
C127 C146 1.723 . S
C128 C125 1.396 . S
C128 C127 1.394 . S
C128 C158 1.723 . S
H129 C152 0.947 . S
H130 C153 0.948 . S
H131 C159 0.982 . S
H132 C160 0.979 . S
H133 C160 0.980 . S
H134 C160 0.983 . S
H135 C159 0.979 . S
H136 C159 0.977 . S
C137 C125 1.453 . S
C137 H166 0.982 . S
C137 H167 0.979 . S
C137 H168 0.977 . S
C138 C125 1.684 . S
C138 H163 0.979 . S
C138 H164 0.980 . S
C138 H165 0.983 . S
C139 C140 1.391 . S
C139 C144 1.391 . S
C139 H169 0.948 . S
C140 C139 1.391 . S
C140 C141 1.391 1_545 S
C141 C140 1.391 1_565 S
C141 C142 1.392 . S
C141 H170 0.947 . S
C142 C141 1.392 . S
C142 C143 1.419 1_565 S
C142 H171 0.948 . S
C143 C142 1.419 1_545 S
C143 C144 1.391 . S
C143 C147 1.397 . S
C144 C139 1.391 . S
C144 C143 1.391 . S
C144 C145 1.399 . S
C145 C144 1.399 . S
C145 C146 1.396 . S
C145 C148 1.453 . S
C145 C149 1.684 . S
C146 C127 1.723 . S
C146 C145 1.396 . S
C146 C147 1.394 . S
C147 C143 1.397 . S
C147 C146 1.394 . S
C147 C157 1.723 1_545 S
C148 C145 1.453 . S
C148 H172 0.982 . S
C148 H173 0.979 . S
C148 H174 0.977 . S
C149 C145 1.684 . S
C149 H175 0.979 . S
C149 H176 0.980 . S
C149 H177 0.983 . S
C150 H126 0.948 . S
C150 C151 1.391 . S
C150 C155 1.391 . S
C151 C150 1.391 . S
C151 C152 1.391 . S
C152 H129 0.947 . S
C152 C151 1.391 . S
C152 C153 1.392 . S
C153 H130 0.948 . S
C153 C152 1.392 . S
C153 C154 1.419 . S
C154 C153 1.419 . S
C154 C155 1.391 . S
C154 C158 1.397 1_565 S
C155 C150 1.391 . S
C155 C154 1.391 . S
C155 C156 1.399 . S
C156 C155 1.399 . S
C156 C157 1.396 . S
C156 C159 1.453 . S
C156 C160 1.684 . S
C157 C147 1.723 1_565 S
C157 C156 1.396 . S
C157 C158 1.394 1_565 S
C158 C128 1.723 . S
C158 C154 1.397 1_545 S
C158 C157 1.394 1_545 S
C159 H131 0.982 . S
C159 H135 0.979 . S
C159 H136 0.977 . S
C159 C156 1.453 . S
C160 H132 0.979 . S
C160 H133 0.980 . S
C160 H134 0.983 . S
C160 C156 1.684 . S
H161 C179 0.948 . S
H162 C120 0.948 . S
H163 C138 0.979 . S
H164 C138 0.980 . S
H165 C138 0.983 . S
H166 C137 0.982 . S
H167 C137 0.979 . S
H168 C137 0.977 . S
H169 C139 0.948 . S
H170 C141 0.947 . S
H171 C142 0.948 . S
H172 C148 0.982 . S
H173 C148 0.979 . S
H174 C148 0.977 . S
H175 C149 0.979 . S
H176 C149 0.980 . S
H177 C149 0.983 . S
H178 C122 0.947 . S
C179 C122 1.392 . S
C179 C123 1.419 . S
C179 H161 0.948 . S
C180 C181 1.391 . S
C180 C184 1.391 . S
C180 H222 0.948 . S
C181 C180 1.391 . S
C181 C182 1.391 . S
C182 C181 1.391 . S
C182 H238 0.947 . S
C182 C239 1.392 . S
C183 C184 1.391 . S
C183 C187 1.397 . S
C183 C239 1.419 . S
C184 C180 1.391 . S
C184 C183 1.391 . S
C184 C185 1.399 . S
C185 C184 1.399 . S
C185 C188 1.396 . S
C185 C197 1.453 . S
C185 C198 1.684 . S
H186 C210 0.948 . S
C187 C183 1.397 . S
C187 C188 1.394 . S
C187 C206 1.723 . S
C188 C185 1.396 . S
C188 C187 1.394 . S
C188 C218 1.723 . S
H189 C212 0.947 . S
H190 C213 0.948 . S
H191 C219 0.982 . S
H192 C220 0.979 . S
H193 C220 0.980 . S
H194 C220 0.983 . S
H195 C219 0.979 . S
H196 C219 0.977 . S
C197 C185 1.453 . S
C197 H226 0.982 . S
C197 H227 0.979 . S
C197 H228 0.977 . S
C198 C185 1.684 . S
C198 H223 0.979 . S
C198 H224 0.980 . S
C198 H225 0.983 . S
C199 C200 1.391 . S
C199 C204 1.391 . S
C199 H229 0.948 . S
C200 C199 1.391 . S
C200 C201 1.391 . S
C201 C200 1.391 . S
C201 C202 1.392 . S
C201 H230 0.947 . S
C202 C201 1.392 . S
C202 C203 1.419 . S
C202 H231 0.948 . S
C203 C202 1.419 . S
C203 C204 1.391 . S
C203 C207 1.397 . S
C204 C199 1.391 . S
C204 C203 1.391 . S
C204 C205 1.399 . S
C205 C204 1.399 . S
C205 C206 1.396 . S
C205 C208 1.453 . S
C205 C209 1.684 . S
C206 C187 1.723 . S
C206 C205 1.396 . S
C206 C207 1.394 . S
C207 C203 1.397 . S
C207 C206 1.394 . S
C207 C217 1.723 . S
C208 C205 1.453 . S
C208 H232 0.982 . S
C208 H233 0.979 . S
C208 H234 0.977 . S
C209 C205 1.684 . S
C209 H235 0.979 . S
C209 H236 0.980 . S
C209 H237 0.983 . S
C210 H186 0.948 . S
C210 C211 1.391 . S
C210 C215 1.391 . S
C211 C210 1.391 . S
C211 C212 1.391 . S
C212 H189 0.947 . S
C212 C211 1.391 . S
C212 C213 1.392 . S
C213 H190 0.948 . S
C213 C212 1.392 . S
C213 C214 1.419 . S
C214 C213 1.419 . S
C214 C215 1.391 . S
C214 C218 1.397 . S
C215 C210 1.391 . S
C215 C214 1.391 . S
C215 C216 1.399 . S
C216 C215 1.399 . S
C216 C217 1.396 . S
C216 C219 1.453 . S
C216 C220 1.684 . S
C217 C207 1.723 . S
C217 C216 1.396 . S
C217 C218 1.394 . S
C218 C188 1.723 . S
C218 C214 1.397 . S
C218 C217 1.394 . S
C219 H191 0.982 . S
C219 H195 0.979 . S
C219 H196 0.977 . S
C219 C216 1.453 . S
C220 H192 0.979 . S
C220 H193 0.980 . S
C220 H194 0.983 . S
C220 C216 1.684 . S
H221 C239 0.948 . S
H222 C180 0.948 . S
H223 C198 0.979 . S
H224 C198 0.980 . S
H225 C198 0.983 . S
H226 C197 0.982 . S
H227 C197 0.979 . S
H228 C197 0.977 . S
H229 C199 0.948 . S
H230 C201 0.947 . S
H231 C202 0.948 . S
H232 C208 0.982 . S
H233 C208 0.979 . S
H234 C208 0.977 . S
H235 C209 0.979 . S
H236 C209 0.980 . S
H237 C209 0.983 . S
H238 C182 0.947 . S
C239 C182 1.392 . S
C239 C183 1.419 . S
C239 H221 0.948 . S
C240 C241 1.391 . S
C240 C244 1.391 . S
C240 H282 0.948 . S
C241 C240 1.391 . S
C241 C242 1.391 . S
C242 C241 1.391 . S
C242 H298 0.947 . S
C242 C299 1.392 . S
C243 C244 1.391 . S
C243 C247 1.397 . S
C243 C299 1.419 . S
C244 C240 1.391 . S
C244 C243 1.391 . S
C244 C245 1.399 . S
C245 C244 1.399 . S
C245 C248 1.396 . S
C245 C257 1.453 . S
C245 C258 1.684 . S
H246 C270 0.948 . S
C247 C243 1.397 . S
C247 C248 1.394 . S
C247 C266 1.723 . S
C248 C245 1.396 . S
C248 C247 1.394 . S
C248 C278 1.723 . S
H249 C272 0.947 . S
H250 C273 0.948 1_455 S
H251 C279 0.982 . S
H252 C280 0.979 . S
H253 C280 0.980 . S
H254 C280 0.983 . S
H255 C279 0.979 . S
H256 C279 0.977 . S
C257 C245 1.453 . S
C257 H286 0.982 . S
C257 H287 0.979 . S
C257 H288 0.977 . S
C258 C245 1.684 . S
C258 H283 0.979 . S
C258 H284 0.980 . S
C258 H285 0.983 . S
C259 C260 1.391 . S
C259 C264 1.391 . S
C259 H289 0.948 . S
C260 C259 1.391 . S
C260 C261 1.391 . S
C261 C260 1.391 . S
C261 C262 1.392 . S
C261 H290 0.947 1_455 S
C262 C261 1.392 . S
C262 C263 1.419 . S
C262 H291 0.948 1_455 S
C263 C262 1.419 . S
C263 C264 1.391 . S
C263 C267 1.397 . S
C264 C259 1.391 . S
C264 C263 1.391 . S
C264 C265 1.399 . S
C265 C264 1.399 . S
C265 C266 1.396 . S
C265 C268 1.453 . S
C265 C269 1.684 . S
C266 C247 1.723 . S
C266 C265 1.396 . S
C266 C267 1.394 . S
C267 C263 1.397 . S
C267 C266 1.394 . S
C267 C277 1.723 . S
C268 C265 1.453 . S
C268 H292 0.982 . S
C268 H293 0.979 . S
C268 H294 0.977 . S
C269 C265 1.684 . S
C269 H295 0.979 . S
C269 H296 0.980 . S
C269 H297 0.983 . S
C270 H246 0.948 . S
C270 C271 1.391 . S
C270 C275 1.391 . S
C271 C270 1.391 . S
C271 C272 1.391 . S
C272 H249 0.947 . S
C272 C271 1.391 . S
C272 C273 1.392 . S
C273 H250 0.948 1_655 S
C273 C272 1.392 . S
C273 C274 1.419 . S
C274 C273 1.419 . S
C274 C275 1.391 . S
C274 C278 1.397 1_655 S
C275 C270 1.391 . S
C275 C274 1.391 . S
C275 C276 1.399 . S
C276 C275 1.399 . S
C276 C277 1.396 1_655 S
C276 C279 1.453 . S
C276 C280 1.684 . S
C277 C267 1.723 . S
C277 C276 1.396 1_455 S
C277 C278 1.394 . S
C278 C248 1.723 . S
C278 C274 1.397 1_455 S
C278 C277 1.394 . S
C279 H251 0.982 . S
C279 H255 0.979 . S
C279 H256 0.977 . S
C279 C276 1.453 . S
C280 H252 0.979 . S
C280 H253 0.980 . S
C280 H254 0.983 . S
C280 C276 1.684 . S
H281 C299 0.948 . S
H282 C240 0.948 . S
H283 C258 0.979 . S
H284 C258 0.980 . S
H285 C258 0.983 . S
H286 C257 0.982 . S
H287 C257 0.979 . S
H288 C257 0.977 . S
H289 C259 0.948 . S
H290 C261 0.947 1_655 S
H291 C262 0.948 1_655 S
H292 C268 0.982 . S
H293 C268 0.979 . S
H294 C268 0.977 . S
H295 C269 0.979 . S
H296 C269 0.980 . S
H297 C269 0.983 . S
H298 C242 0.947 . S
C299 C242 1.392 . S
C299 C243 1.419 . S
C299 H281 0.948 . S
C300 C301 1.391 . S
C300 C304 1.391 . S
C300 H342 0.948 . S
C301 C300 1.391 . S
C301 C302 1.391 . S
C302 C301 1.391 . S
C302 H358 0.947 . S
C302 C359 1.392 . S
C303 C304 1.391 . S
C303 C307 1.397 . S
C303 C359 1.419 . S
C304 C300 1.391 . S
C304 C303 1.391 . S
C304 C305 1.399 1_655 S
C305 C304 1.399 1_455 S
C305 C308 1.396 . S
C305 C317 1.453 . S
C305 C318 1.684 . S
H306 C330 0.948 . S
C307 C303 1.397 . S
C307 C308 1.394 1_655 S
C307 C326 1.723 . S
C308 C305 1.396 . S
C308 C307 1.394 1_455 S
C308 C338 1.723 . S
H309 C332 0.947 . S
H310 C333 0.948 . S
H311 C339 0.982 . S
H312 C340 0.979 . S
H313 C340 0.980 . S
H314 C340 0.983 . S
H315 C339 0.979 . S
H316 C339 0.977 . S
C317 C305 1.453 . S
C317 H346 0.982 . S
C317 H347 0.979 . S
C317 H348 0.977 . S
C318 C305 1.684 . S
C318 H343 0.979 1_455 S
C318 H344 0.980 . S
C318 H345 0.983 1_455 S
C319 C320 1.391 1_655 S
C319 C324 1.393 . S
C319 H349 0.948 . S
C320 C319 1.391 1_455 S
C320 C321 1.391 . S
C321 C320 1.391 . S
C321 C322 1.392 . S
C321 H350 0.947 . S
C322 C321 1.392 . S
C322 C323 1.419 . S
C322 H351 0.948 . S
C323 C322 1.419 . S
C323 C324 1.380 1_455 S
C323 C327 1.397 . S
C324 C319 1.393 . S
C324 C323 1.380 1_655 S
C324 C325 1.405 . S
C325 C324 1.405 . S
C325 C326 1.395 . S
C325 C328 1.453 . S
C325 C329 1.684 . S
C326 C307 1.723 . S
C326 C325 1.395 . S
C326 C327 1.396 1_655 S
C327 C323 1.397 . S
C327 C326 1.396 1_455 S
C327 C337 1.723 . S
C328 C325 1.453 . S
C328 H352 0.982 . S
C328 H353 0.979 . S
C328 H354 0.977 . S
C329 C325 1.684 . S
C329 H355 0.979 . S
C329 H356 0.980 . S
C329 H357 0.983 . S
C330 H306 0.948 . S
C330 C331 1.391 . S
C330 C335 1.391 . S
C331 C330 1.391 . S
C331 C332 1.391 . S
C332 H309 0.947 . S
C332 C331 1.391 . S
C332 C333 1.392 . S
C333 H310 0.948 . S
C333 C332 1.392 . S
C333 C334 1.419 . S
C334 C333 1.419 . S
C334 C335 1.391 . S
C334 C338 1.397 . S
C335 C330 1.391 . S
C335 C334 1.391 . S
C335 C336 1.399 . S
C336 C335 1.399 . S
C336 C337 1.396 . S
C336 C339 1.453 . S
C336 C340 1.684 . S
C337 C327 1.723 . S
C337 C336 1.396 . S
C337 C338 1.394 . S
C338 C308 1.723 . S
C338 C334 1.397 . S
C338 C337 1.394 . S
C339 H311 0.982 . S
C339 H315 0.979 . S
C339 H316 0.977 . S
C339 C336 1.453 . S
C340 H312 0.979 . S
C340 H313 0.980 . S
C340 H314 0.983 . S
C340 C336 1.684 . S
H341 C359 0.948 . S
H342 C300 0.948 . S
H343 C318 0.979 1_655 S
H344 C318 0.980 . S
H345 C318 0.983 1_655 S
H346 C317 0.982 . S
H347 C317 0.979 . S
H348 C317 0.977 . S
H349 C319 0.948 . S
H350 C321 0.947 . S
H351 C322 0.948 . S
H352 C328 0.982 . S
H353 C328 0.979 . S
H354 C328 0.977 . S
H355 C329 0.979 . S
H356 C329 0.980 . S
H357 C329 0.983 . S
H358 C302 0.947 . S
C359 C302 1.392 . S
C359 C303 1.419 . S
C359 H341 0.948 . S
C360 C361 1.391 . S
C360 C364 1.391 . S
C360 H402 0.948 . S
C361 C360 1.391 . S
C361 C362 1.391 . S
C362 C361 1.391 . S
C362 H418 0.947 . S
C362 C419 1.392 . S
C363 C364 1.391 . S
C363 C367 1.397 . S
C363 C419 1.419 . S
C364 C360 1.391 . S
C364 C363 1.391 . S
C364 C365 1.399 . S
C365 C364 1.399 . S
C365 C368 1.396 1_565 S
C365 C377 1.453 1_565 S
C365 C378 1.684 . S
H366 C390 0.948 . S
C367 C363 1.397 . S
C367 C368 1.394 1_565 S
C367 C386 1.723 . S
C368 C365 1.396 1_545 S
C368 C367 1.394 1_545 S
C368 C398 1.723 . S
H369 C392 0.947 . S
H370 C393 0.948 . S
H371 C399 0.982 . S
H372 C400 0.979 . S
H373 C400 0.980 . S
H374 C400 0.983 . S
H375 C399 0.979 . S
H376 C399 0.977 . S
C377 C365 1.453 1_545 S
C377 H406 0.982 . S
C377 H407 0.979 . S
C377 H408 0.977 . S
C378 C365 1.684 . S
C378 H403 0.979 . S
C378 H404 0.980 1_565 S
C378 H405 0.983 . S
C379 C380 1.391 1_565 S
C379 C384 1.391 . S
C379 H409 0.948 . S
C380 C379 1.391 1_545 S
C380 C381 1.391 . S
C381 C380 1.391 . S
C381 C382 1.392 . S
C381 H410 0.947 . S
C382 C381 1.392 . S
C382 C383 1.419 . S
C382 H411 0.948 . S
C383 C382 1.419 . S
C383 C384 1.391 1_545 S
C383 C387 1.397 . S
C384 C379 1.391 . S
C384 C383 1.391 1_565 S
C384 C385 1.399 . S
C385 C384 1.399 . S
C385 C386 1.396 . S
C385 C388 1.453 . S
C385 C389 1.684 . S
C386 C367 1.723 . S
C386 C385 1.396 . S
C386 C387 1.394 1_565 S
C387 C383 1.397 . S
C387 C386 1.394 1_545 S
C387 C397 1.723 . S
C388 C385 1.453 . S
C388 H412 0.982 . S
C388 H413 0.979 . S
C388 H414 0.977 . S
C389 C385 1.684 . S
C389 H415 0.979 . S
C389 H416 0.980 . S
C389 H417 0.983 . S
C390 H366 0.948 . S
C390 C391 1.391 . S
C390 C395 1.391 . S
C391 C390 1.391 . S
C391 C392 1.391 . S
C392 H369 0.947 . S
C392 C391 1.391 . S
C392 C393 1.392 . S
C393 H370 0.948 . S
C393 C392 1.392 . S
C393 C394 1.419 . S
C394 C393 1.419 . S
C394 C395 1.391 . S
C394 C398 1.397 . S
C395 C390 1.391 . S
C395 C394 1.391 . S
C395 C396 1.399 . S
C396 C395 1.399 . S
C396 C397 1.396 . S
C396 C399 1.453 . S
C396 C400 1.684 . S
C397 C387 1.723 . S
C397 C396 1.396 . S
C397 C398 1.394 . S
C398 C368 1.723 . S
C398 C394 1.397 . S
C398 C397 1.394 . S
C399 H371 0.982 . S
C399 H375 0.979 . S
C399 H376 0.977 . S
C399 C396 1.453 . S
C400 H372 0.979 . S
C400 H373 0.980 . S
C400 H374 0.983 . S
C400 C396 1.684 . S
H401 C419 0.948 . S
H402 C360 0.948 . S
H403 C378 0.979 . S
H404 C378 0.980 1_545 S
H405 C378 0.983 . S
H406 C377 0.982 . S
H407 C377 0.979 . S
H408 C377 0.977 . S
H409 C379 0.948 . S
H410 C381 0.947 . S
H411 C382 0.948 . S
H412 C388 0.982 . S
H413 C388 0.979 . S
H414 C388 0.977 . S
H415 C389 0.979 . S
H416 C389 0.980 . S
H417 C389 0.983 . S
H418 C362 0.947 . S
C419 C362 1.392 . S
C419 C363 1.419 . S
C419 H401 0.948 . S
C420 C421 1.391 . S
C420 C424 1.391 . S
C420 H462 0.948 . S
C421 C420 1.391 . S
C421 C422 1.391 . S
C422 C421 1.391 . S
C422 H478 0.947 . S
C422 C479 1.392 . S
C423 C424 1.391 . S
C423 C427 1.397 . S
C423 C479 1.419 . S
C424 C420 1.391 . S
C424 C423 1.391 . S
C424 C425 1.399 . S
C425 C424 1.399 . S
C425 C428 1.396 . S
C425 C437 1.453 . S
C425 C438 1.684 . S
H426 C450 0.948 . S
C427 C423 1.397 . S
C427 C428 1.394 . S
C427 C446 1.723 . S
C428 C425 1.396 . S
C428 C427 1.394 . S
C428 C458 1.723 . S
H429 C452 0.947 . S
H430 C453 0.948 . S
H431 C459 0.982 . S
H432 C460 0.979 . S
H433 C460 0.980 . S
H434 C460 0.983 . S
H435 C459 0.979 . S
H436 C459 0.977 . S
C437 C425 1.453 . S
C437 H466 0.982 . S
C437 H467 0.979 . S
C437 H468 0.977 . S
C438 C425 1.684 . S
C438 H463 0.979 . S
C438 H464 0.980 . S
C438 H465 0.983 . S
C439 C440 1.391 . S
C439 C444 1.391 . S
C439 H469 0.948 . S
C440 C439 1.391 . S
C440 C441 1.391 . S
C441 C440 1.391 . S
C441 C442 1.392 . S
C441 H470 0.947 . S
C442 C441 1.392 . S
C442 C443 1.419 . S
C442 H471 0.948 . S
C443 C442 1.419 . S
C443 C444 1.391 . S
C443 C447 1.397 . S
C444 C439 1.391 . S
C444 C443 1.391 . S
C444 C445 1.399 . S
C445 C444 1.399 . S
C445 C446 1.396 . S
C445 C448 1.453 . S
C445 C449 1.684 . S
C446 C427 1.723 . S
C446 C445 1.396 . S
C446 C447 1.394 . S
C447 C443 1.397 . S
C447 C446 1.394 . S
C447 C457 1.723 . S
C448 C445 1.453 . S
C448 H472 0.982 . S
C448 H473 0.979 . S
C448 H474 0.977 . S
C449 C445 1.684 . S
C449 H475 0.979 . S
C449 H476 0.980 . S
C449 H477 0.983 . S
C450 H426 0.948 . S
C450 C451 1.391 . S
C450 C455 1.391 . S
C451 C450 1.391 . S
C451 C452 1.391 . S
C452 H429 0.947 . S
C452 C451 1.391 . S
C452 C453 1.392 . S
C453 H430 0.948 . S
C453 C452 1.392 . S
C453 C454 1.419 . S
C454 C453 1.419 . S
C454 C455 1.391 . S
C454 C458 1.397 . S
C455 C450 1.391 . S
C455 C454 1.391 . S
C455 C456 1.399 . S
C456 C455 1.399 . S
C456 C457 1.396 . S
C456 C459 1.453 . S
C456 C460 1.684 . S
C457 C447 1.723 . S
C457 C456 1.396 . S
C457 C458 1.394 . S
C458 C428 1.723 . S
C458 C454 1.397 . S
C458 C457 1.394 . S
C459 H431 0.982 . S
C459 H435 0.979 . S
C459 H436 0.977 . S
C459 C456 1.453 . S
C460 H432 0.979 . S
C460 H433 0.980 . S
C460 H434 0.983 . S
C460 C456 1.684 . S
H461 C479 0.948 . S
H462 C420 0.948 . S
H463 C438 0.979 . S
H464 C438 0.980 . S
H465 C438 0.983 . S
H466 C437 0.982 . S
H467 C437 0.979 . S
H468 C437 0.977 . S
H469 C439 0.948 . S
H470 C441 0.947 . S
H471 C442 0.948 . S
H472 C448 0.982 . S
H473 C448 0.979 . S
H474 C448 0.977 . S
H475 C449 0.979 . S
H476 C449 0.980 . S
H477 C449 0.983 . S
H478 C422 0.947 . S
C479 C422 1.392 . S
C479 C423 1.419 . S
C479 H461 0.948 . S
H480 C498 0.951 . S
H481 C500 0.951 . S
H482 C502 0.950 . S
H483 C503 0.950 . S
H484 C505 0.950 . S
H485 C508 0.950 . S
H486 C509 0.950 . S
H487 C511 0.950 . S
H488 C512 0.950 . S
H489 C513 0.951 . S
H490 C515 0.951 . S
H491 C517 0.950 . S
H492 C518 0.950 . S
H493 C520 0.950 . S
H494 C523 0.950 . S
H495 C524 0.950 . S
H496 C526 0.950 . S
H497 C527 0.950 . S
C498 H480 0.951 . S
C498 C499 1.366 . S
C498 C500 1.388 . S
C499 C498 1.366 . S
C499 C503 1.385 . S
C500 H481 0.951 . S
C500 C498 1.388 . S
C500 C501 1.366 . S
C501 C500 1.366 . S
C501 C502 1.414 . S
C501 C504 1.499 . S
C502 H482 0.950 . S
C502 C501 1.414 . S
C502 C503 1.374 . S
C503 H483 0.950 . S
C503 C499 1.385 . S
C503 C502 1.374 . S
C504 C501 1.499 . S
C504 C505 1.373 . S
C504 C506 1.389 . S
C505 H484 0.950 . S
C505 C504 1.373 . S
C505 C521 1.377 . S
C506 C504 1.389 . S
C506 C507 1.524 . S
C506 C520 1.377 . S
C507 C506 1.524 . S
C507 C508 1.397 . S
C507 C512 1.363 . S
C508 H485 0.950 . S
C508 C507 1.397 . S
C508 C509 1.334 . S
C509 H486 0.950 . S
C509 C508 1.334 . S
C509 C510 1.287 . S
C510 C509 1.287 . S
C510 C511 1.524 . S
C510 H529 0.913 . S
C511 H487 0.950 . S
C511 C510 1.524 . S
C511 C512 1.415 . S
C512 H488 0.950 . S
C512 C507 1.363 . S
C512 C511 1.415 . S
C513 H489 0.951 . S
C513 C514 1.366 . S
C513 C515 1.388 . S
C514 C513 1.366 . S
C514 C518 1.385 . S
C515 H490 0.951 . S
C515 C513 1.388 . S
C515 C516 1.366 . S
C516 C515 1.366 . S
C516 C517 1.414 . S
C516 C519 1.499 . S
C517 H491 0.950 . S
C517 C516 1.414 . S
C517 C518 1.374 . S
C518 H492 0.950 . S
C518 C514 1.385 . S
C518 C517 1.374 . S
C519 C516 1.499 . S
C519 C520 1.373 . S
C519 C521 1.389 . S
C520 H493 0.950 . S
C520 C506 1.377 . S
C520 C519 1.373 . S
C521 C505 1.377 . S
C521 C519 1.389 . S
C521 C522 1.524 . S
C522 C521 1.524 . S
C522 C523 1.397 . S
C522 C527 1.363 . S
C523 H494 0.950 . S
C523 C522 1.397 . S
C523 C524 1.334 . S
C524 H495 0.950 . S
C524 C523 1.334 . S
C524 C525 1.287 . S
C525 C524 1.287 . S
C525 C526 1.524 . S
C525 H528 0.999 . S
C526 H496 0.950 . S
C526 C525 1.524 . S
C526 C527 1.415 . S
C527 H497 0.950 . S
C527 C522 1.363 . S
C527 C526 1.415 . S
H528 C525 0.999 . S
H529 C510 0.913 . S
H530 C548 0.951 . S
H531 C550 0.951 . S
H532 C552 0.950 . S
H533 C553 0.950 . S
H534 C555 0.950 . S
H535 C558 0.950 . S
H536 C559 0.950 . S
H537 C561 0.950 . S
H538 C562 0.950 . S
H539 C563 0.951 . S
H540 C565 0.951 . S
H541 C567 0.950 . S
H542 C568 0.950 . S
H543 C570 0.950 . S
H544 C573 0.950 . S
H545 C574 0.950 . S
H546 C576 0.950 . S
H547 C577 0.950 . S
C548 H530 0.951 . S
C548 C549 1.366 . S
C548 C550 1.388 . S
C549 C548 1.366 . S
C549 C553 1.385 . S
C550 H531 0.951 . S
C550 C548 1.388 . S
C550 C551 1.366 . S
C551 C550 1.366 . S
C551 C552 1.414 . S
C551 C554 1.499 . S
C552 H532 0.950 . S
C552 C551 1.414 . S
C552 C553 1.374 . S
C553 H533 0.950 . S
C553 C549 1.385 . S
C553 C552 1.374 . S
C554 C551 1.499 . S
C554 C555 1.373 . S
C554 C556 1.389 . S
C555 H534 0.950 . S
C555 C554 1.373 . S
C555 C571 1.377 . S
C556 C554 1.389 . S
C556 C557 1.524 . S
C556 C570 1.377 . S
C557 C556 1.524 . S
C557 C558 1.397 . S
C557 C562 1.363 . S
C558 H535 0.950 . S
C558 C557 1.397 . S
C558 C559 1.334 . S
C559 H536 0.950 . S
C559 C558 1.334 . S
C559 C560 1.287 . S
C560 C559 1.287 . S
C560 C561 1.524 . S
C560 H579 0.913 . S
C561 H537 0.950 . S
C561 C560 1.524 . S
C561 C562 1.415 . S
C562 H538 0.950 . S
C562 C557 1.363 . S
C562 C561 1.415 . S
C563 H539 0.951 . S
C563 C564 1.366 . S
C563 C565 1.388 . S
C564 C563 1.366 . S
C564 C568 1.385 . S
C565 H540 0.951 . S
C565 C563 1.388 . S
C565 C566 1.366 . S
C566 C565 1.366 . S
C566 C567 1.414 . S
C566 C569 1.499 . S
C567 H541 0.950 . S
C567 C566 1.414 . S
C567 C568 1.374 . S
C568 H542 0.950 . S
C568 C564 1.385 . S
C568 C567 1.374 . S
C569 C566 1.499 . S
C569 C570 1.373 . S
C569 C571 1.389 . S
C570 H543 0.950 . S
C570 C556 1.377 . S
C570 C569 1.373 . S
C571 C555 1.377 . S
C571 C569 1.389 . S
C571 C572 1.524 . S
C572 C571 1.524 . S
C572 C573 1.397 . S
C572 C577 1.363 . S
C573 H544 0.950 . S
C573 C572 1.397 . S
C573 C574 1.334 . S
C574 H545 0.950 . S
C574 C573 1.334 . S
C574 C575 1.287 . S
C575 C574 1.287 . S
C575 C576 1.524 . S
C575 H578 0.999 . S
C576 H546 0.950 . S
C576 C575 1.524 . S
C576 C577 1.415 . S
C577 H547 0.950 . S
C577 C572 1.363 . S
C577 C576 1.415 . S
H578 C575 0.999 . S
H579 C560 0.913 . S
H580 C598 0.951 . S
H581 C600 0.951 . S
H582 C602 0.950 . S
H583 C603 0.950 . S
H584 C605 0.950 . S
H585 C608 0.950 . S
H586 C609 0.950 . S
H587 C611 0.950 . S
H588 C612 0.950 . S
H589 C613 0.951 . S
H590 C615 0.951 . S
H591 C617 0.950 . S
H592 C618 0.950 . S
H593 C620 0.950 . S
H594 C623 0.950 . S
H595 C624 0.950 . S
H596 C626 0.950 . S
H597 C627 0.950 . S
C598 H580 0.951 . S
C598 C599 1.366 . S
C598 C600 1.388 . S
C599 C598 1.366 . S
C599 C603 1.385 . S
C600 H581 0.951 . S
C600 C598 1.388 . S
C600 C601 1.366 . S
C601 C600 1.366 . S
C601 C602 1.414 . S
C601 C604 1.499 . S
C602 H582 0.950 . S
C602 C601 1.414 . S
C602 C603 1.374 . S
C603 H583 0.950 . S
C603 C599 1.385 . S
C603 C602 1.374 . S
C604 C601 1.499 . S
C604 C605 1.373 . S
C604 C606 1.389 . S
C605 H584 0.950 . S
C605 C604 1.373 . S
C605 C621 1.377 . S
C606 C604 1.389 . S
C606 C607 1.524 . S
C606 C620 1.377 . S
C607 C606 1.524 . S
C607 C608 1.397 . S
C607 C612 1.363 . S
C608 H585 0.950 . S
C608 C607 1.397 . S
C608 C609 1.334 . S
C609 H586 0.950 . S
C609 C608 1.334 . S
C609 C610 1.287 . S
C610 C609 1.287 . S
C610 C611 1.524 . S
C610 H629 0.913 . S
C611 H587 0.950 . S
C611 C610 1.524 . S
C611 C612 1.415 . S
C612 H588 0.950 . S
C612 C607 1.363 . S
C612 C611 1.415 . S
C613 H589 0.951 . S
C613 C614 1.366 . S
C613 C615 1.388 . S
C614 C613 1.366 . S
C614 C618 1.385 . S
C615 H590 0.951 . S
C615 C613 1.388 . S
C615 C616 1.366 . S
C616 C615 1.366 . S
C616 C617 1.414 . S
C616 C619 1.499 . S
C617 H591 0.950 . S
C617 C616 1.414 . S
C617 C618 1.374 . S
C618 H592 0.950 . S
C618 C614 1.385 . S
C618 C617 1.374 . S
C619 C616 1.499 . S
C619 C620 1.373 . S
C619 C621 1.389 . S
C620 H593 0.950 . S
C620 C606 1.377 . S
C620 C619 1.373 . S
C621 C605 1.377 . S
C621 C619 1.389 . S
C621 C622 1.524 . S
C622 C621 1.524 . S
C622 C623 1.397 . S
C622 C627 1.363 . S
C623 H594 0.950 . S
C623 C622 1.397 . S
C623 C624 1.334 . S
C624 H595 0.950 . S
C624 C623 1.334 . S
C624 C625 1.287 . S
C625 C624 1.287 . S
C625 C626 1.524 . S
C625 H628 0.999 . S
C626 H596 0.950 . S
C626 C625 1.524 . S
C626 C627 1.415 . S
C627 H597 0.950 . S
C627 C622 1.363 . S
C627 C626 1.415 . S
H628 C625 0.999 . S
H629 C610 0.913 . S
H630 C648 0.951 . S
H631 C650 0.951 . S
H632 C652 0.950 . S
H633 C653 0.950 . S
H634 C655 0.950 . S
H635 C658 0.950 . S
H636 C659 0.950 . S
H637 C661 0.950 . S
H638 C662 0.950 . S
H639 C663 0.951 . S
H640 C665 0.951 . S
H641 C667 0.950 . S
H642 C668 0.950 . S
H643 C670 0.950 . S
H644 C673 0.950 . S
H645 C674 0.950 . S
H646 C676 0.950 . S
H647 C677 0.950 . S
C648 H630 0.951 . S
C648 C649 1.366 . S
C648 C650 1.388 . S
C649 C648 1.366 . S
C649 C653 1.385 . S
C650 H631 0.951 . S
C650 C648 1.388 . S
C650 C651 1.366 . S
C651 C650 1.366 . S
C651 C652 1.414 . S
C651 C654 1.499 . S
C652 H632 0.950 . S
C652 C651 1.414 . S
C652 C653 1.374 . S
C653 H633 0.950 . S
C653 C649 1.385 . S
C653 C652 1.374 . S
C654 C651 1.499 . S
C654 C655 1.373 . S
C654 C656 1.389 . S
C655 H634 0.950 . S
C655 C654 1.373 . S
C655 C671 1.377 . S
C656 C654 1.389 . S
C656 C657 1.524 . S
C656 C670 1.377 . S
C657 C656 1.524 . S
C657 C658 1.397 . S
C657 C662 1.363 . S
C658 H635 0.950 . S
C658 C657 1.397 . S
C658 C659 1.334 . S
C659 H636 0.950 . S
C659 C658 1.334 . S
C659 C660 1.287 . S
C660 C659 1.287 . S
C660 C661 1.524 . S
C660 H679 0.913 . S
C661 H637 0.950 . S
C661 C660 1.524 . S
C661 C662 1.415 . S
C662 H638 0.950 . S
C662 C657 1.363 . S
C662 C661 1.415 . S
C663 H639 0.951 . S
C663 C664 1.366 . S
C663 C665 1.388 . S
C664 C663 1.366 . S
C664 C668 1.385 . S
C665 H640 0.951 . S
C665 C663 1.388 . S
C665 C666 1.366 . S
C666 C665 1.366 . S
C666 C667 1.414 . S
C666 C669 1.499 . S
C667 H641 0.950 . S
C667 C666 1.414 . S
C667 C668 1.374 . S
C668 H642 0.950 . S
C668 C664 1.385 . S
C668 C667 1.374 . S
C669 C666 1.499 . S
C669 C670 1.373 . S
C669 C671 1.389 . S
C670 H643 0.950 . S
C670 C656 1.377 . S
C670 C669 1.373 . S
C671 C655 1.377 . S
C671 C669 1.389 . S
C671 C672 1.524 . S
C672 C671 1.524 . S
C672 C673 1.397 . S
C672 C677 1.363 . S
C673 H644 0.950 . S
C673 C672 1.397 . S
C673 C674 1.334 . S
C674 H645 0.950 . S
C674 C673 1.334 . S
C674 C675 1.287 . S
C675 C674 1.287 . S
C675 C676 1.524 . S
C675 H678 0.999 . S
C676 H646 0.950 . S
C676 C675 1.524 . S
C676 C677 1.415 . S
C677 H647 0.950 . S
C677 C672 1.363 . S
C677 C676 1.415 . S
H678 C675 0.999 . S
H679 C660 0.913 . S
H680 C698 0.951 . S
H681 C700 0.951 . S
H682 C702 0.950 . S
H683 C703 0.950 . S
H684 C705 0.950 . S
H685 C708 0.950 . S
H686 C709 0.950 . S
H687 C711 0.950 . S
H688 C712 0.950 . S
H689 C713 0.951 . S
H690 C715 0.951 . S
H691 C717 0.950 . S
H692 C718 0.950 . S
H693 C720 0.950 . S
H694 C723 0.950 . S
H695 C724 0.950 . S
H696 C726 0.950 . S
H697 C727 0.950 . S
C698 H680 0.951 . S
C698 C699 1.366 . S
C698 C700 1.388 . S
C699 C698 1.366 . S
C699 C703 1.385 . S
C700 H681 0.951 . S
C700 C698 1.388 . S
C700 C701 1.366 . S
C701 C700 1.366 . S
C701 C702 1.414 . S
C701 C704 1.499 . S
C702 H682 0.950 . S
C702 C701 1.414 . S
C702 C703 1.374 . S
C703 H683 0.950 . S
C703 C699 1.385 . S
C703 C702 1.374 . S
C704 C701 1.499 . S
C704 C705 1.373 . S
C704 C706 1.389 . S
C705 H684 0.950 . S
C705 C704 1.373 . S
C705 C721 1.377 . S
C706 C704 1.389 . S
C706 C707 1.524 . S
C706 C720 1.377 . S
C707 C706 1.524 . S
C707 C708 1.397 . S
C707 C712 1.363 . S
C708 H685 0.950 . S
C708 C707 1.397 . S
C708 C709 1.334 . S
C709 H686 0.950 . S
C709 C708 1.334 . S
C709 C710 1.287 . S
C710 C709 1.287 . S
C710 C711 1.524 . S
C710 H729 0.913 . S
C711 H687 0.950 . S
C711 C710 1.524 . S
C711 C712 1.415 . S
C712 H688 0.950 . S
C712 C707 1.363 . S
C712 C711 1.415 . S
C713 H689 0.951 . S
C713 C714 1.366 . S
C713 C715 1.388 . S
C714 C713 1.366 . S
C714 C718 1.385 . S
C715 H690 0.951 . S
C715 C713 1.388 . S
C715 C716 1.366 . S
C716 C715 1.366 . S
C716 C717 1.414 . S
C716 C719 1.499 . S
C717 H691 0.950 . S
C717 C716 1.414 . S
C717 C718 1.374 . S
C718 H692 0.950 . S
C718 C714 1.385 . S
C718 C717 1.374 . S
C719 C716 1.499 . S
C719 C720 1.373 . S
C719 C721 1.389 . S
C720 H693 0.950 . S
C720 C706 1.377 . S
C720 C719 1.373 . S
C721 C705 1.377 . S
C721 C719 1.389 . S
C721 C722 1.524 . S
C722 C721 1.524 . S
C722 C723 1.397 . S
C722 C727 1.363 . S
C723 H694 0.950 . S
C723 C722 1.397 . S
C723 C724 1.334 . S
C724 H695 0.950 . S
C724 C723 1.334 . S
C724 C725 1.287 . S
C725 C724 1.287 . S
C725 C726 1.524 . S
C725 H728 0.999 . S
C726 H696 0.950 . S
C726 C725 1.524 . S
C726 C727 1.415 . S
C727 H697 0.950 . S
C727 C722 1.363 . S
C727 C726 1.415 . S
H728 C725 0.999 . S
H729 C710 0.913 . S
H730 C748 0.951 . S
H731 C750 0.951 . S
H732 C752 0.950 . S
H733 C753 0.950 . S
H734 C755 0.950 . S
H735 C758 0.950 . S
H736 C759 0.950 . S
H737 C761 0.950 . S
H738 C762 0.950 . S
H739 C763 0.951 . S
H740 C765 0.951 . S
H741 C767 0.950 . S
H742 C768 0.950 . S
H743 C770 0.950 . S
H744 C773 0.950 . S
H745 C774 0.950 . S
H746 C776 0.950 . S
H747 C777 0.950 . S
C748 H730 0.951 . S
C748 C749 1.366 . S
C748 C750 1.388 . S
C749 C748 1.366 . S
C749 C753 1.385 . S
C750 H731 0.951 . S
C750 C748 1.388 . S
C750 C751 1.366 . S
C751 C750 1.366 . S
C751 C752 1.414 . S
C751 C754 1.499 . S
C752 H732 0.950 . S
C752 C751 1.414 . S
C752 C753 1.374 . S
C753 H733 0.950 . S
C753 C749 1.385 . S
C753 C752 1.374 . S
C754 C751 1.499 . S
C754 C755 1.373 . S
C754 C756 1.389 . S
C755 H734 0.950 . S
C755 C754 1.373 . S
C755 C771 1.377 . S
C756 C754 1.389 . S
C756 C757 1.524 . S
C756 C770 1.377 . S
C757 C756 1.524 . S
C757 C758 1.397 . S
C757 C762 1.363 . S
C758 H735 0.950 . S
C758 C757 1.397 . S
C758 C759 1.334 . S
C759 H736 0.950 . S
C759 C758 1.334 . S
C759 C760 1.287 . S
C760 C759 1.287 . S
C760 C761 1.524 . S
C760 H779 0.913 . S
C761 H737 0.950 . S
C761 C760 1.524 . S
C761 C762 1.415 . S
C762 H738 0.950 . S
C762 C757 1.363 . S
C762 C761 1.415 . S
C763 H739 0.951 . S
C763 C764 1.366 . S
C763 C765 1.388 . S
C764 C763 1.366 . S
C764 C768 1.385 . S
C765 H740 0.951 . S
C765 C763 1.388 . S
C765 C766 1.366 . S
C766 C765 1.366 . S
C766 C767 1.414 . S
C766 C769 1.499 . S
C767 H741 0.950 . S
C767 C766 1.414 . S
C767 C768 1.374 . S
C768 H742 0.950 . S
C768 C764 1.385 . S
C768 C767 1.374 . S
C769 C766 1.499 . S
C769 C770 1.373 . S
C769 C771 1.389 . S
C770 H743 0.950 . S
C770 C756 1.377 . S
C770 C769 1.373 . S
C771 C755 1.377 . S
C771 C769 1.389 . S
C771 C772 1.524 . S
C772 C771 1.524 . S
C772 C773 1.397 . S
C772 C777 1.363 . S
C773 H744 0.950 . S
C773 C772 1.397 . S
C773 C774 1.334 . S
C774 H745 0.950 . S
C774 C773 1.334 . S
C774 C775 1.287 . S
C775 C774 1.287 . S
C775 C776 1.524 . S
C775 H778 0.999 . S
C776 H746 0.950 . S
C776 C775 1.524 . S
C776 C777 1.415 . S
C777 H747 0.950 . S
C777 C772 1.363 . S
C777 C776 1.415 . S
H778 C775 0.999 . S
H779 C760 0.913 . S
H780 C798 0.951 . S
H781 C800 0.951 . S
H782 C802 0.950 . S
H783 C803 0.950 . S
H784 C805 0.950 . S
H785 C808 0.950 . S
H786 C809 0.950 . S
H787 C811 0.950 . S
H788 C812 0.950 . S
H789 C813 0.951 . S
H790 C815 0.951 . S
H791 C817 0.950 . S
H792 C818 0.950 . S
H793 C820 0.950 . S
H794 C823 0.950 . S
H795 C824 0.950 . S
H796 C826 0.950 . S
H797 C827 0.950 . S
C798 H780 0.951 . S
C798 C799 1.366 . S
C798 C800 1.388 . S
C799 C798 1.366 . S
C799 C803 1.385 . S
C800 H781 0.951 . S
C800 C798 1.388 . S
C800 C801 1.366 . S
C801 C800 1.366 . S
C801 C802 1.414 . S
C801 C804 1.499 . S
C802 H782 0.950 . S
C802 C801 1.414 . S
C802 C803 1.374 . S
C803 H783 0.950 . S
C803 C799 1.385 . S
C803 C802 1.374 . S
C804 C801 1.499 . S
C804 C805 1.373 . S
C804 C806 1.389 . S
C805 H784 0.950 . S
C805 C804 1.373 . S
C805 C821 1.377 . S
C806 C804 1.389 . S
C806 C807 1.524 . S
C806 C820 1.377 . S
C807 C806 1.524 . S
C807 C808 1.397 . S
C807 C812 1.363 . S
C808 H785 0.950 . S
C808 C807 1.397 . S
C808 C809 1.334 . S
C809 H786 0.950 . S
C809 C808 1.334 . S
C809 C810 1.287 . S
C810 C809 1.287 . S
C810 C811 1.524 . S
C810 H829 0.913 . S
C811 H787 0.950 . S
C811 C810 1.524 . S
C811 C812 1.415 . S
C812 H788 0.950 . S
C812 C807 1.363 . S
C812 C811 1.415 . S
C813 H789 0.951 . S
C813 C814 1.366 . S
C813 C815 1.388 . S
C814 C813 1.366 . S
C814 C818 1.385 . S
C815 H790 0.951 . S
C815 C813 1.388 . S
C815 C816 1.366 . S
C816 C815 1.366 . S
C816 C817 1.414 . S
C816 C819 1.499 . S
C817 H791 0.950 . S
C817 C816 1.414 . S
C817 C818 1.374 . S
C818 H792 0.950 . S
C818 C814 1.385 . S
C818 C817 1.374 . S
C819 C816 1.499 . S
C819 C820 1.373 . S
C819 C821 1.389 . S
C820 H793 0.950 . S
C820 C806 1.377 . S
C820 C819 1.373 . S
C821 C805 1.377 . S
C821 C819 1.389 . S
C821 C822 1.524 . S
C822 C821 1.524 . S
C822 C823 1.397 . S
C822 C827 1.363 . S
C823 H794 0.950 . S
C823 C822 1.397 . S
C823 C824 1.334 . S
C824 H795 0.950 . S
C824 C823 1.334 . S
C824 C825 1.287 . S
C825 C824 1.287 . S
C825 C826 1.524 . S
C825 H828 0.999 . S
C826 H796 0.950 . S
C826 C825 1.524 . S
C826 C827 1.415 . S
C827 H797 0.950 . S
C827 C822 1.363 . S
C827 C826 1.415 . S
H828 C825 0.999 . S
H829 C810 0.913 . S
H830 C848 0.951 . S
H831 C850 0.951 . S
H832 C852 0.950 . S
H833 C853 0.950 . S
H834 C855 0.950 . S
H835 C858 0.950 . S
H836 C859 0.950 . S
H837 C861 0.950 . S
H838 C862 0.950 . S
H839 C863 0.951 . S
H840 C865 0.951 . S
H841 C867 0.950 . S
H842 C868 0.950 . S
H843 C870 0.950 . S
H844 C873 0.950 . S
H845 C874 0.950 . S
H846 C876 0.950 . S
H847 C877 0.950 . S
C848 H830 0.951 . S
C848 C849 1.366 . S
C848 C850 1.388 . S
C849 C848 1.366 . S
C849 C853 1.385 . S
C850 H831 0.951 . S
C850 C848 1.388 . S
C850 C851 1.366 . S
C851 C850 1.366 . S
C851 C852 1.414 . S
C851 C854 1.499 . S
C852 H832 0.950 . S
C852 C851 1.414 . S
C852 C853 1.374 . S
C853 H833 0.950 . S
C853 C849 1.385 . S
C853 C852 1.374 . S
C854 C851 1.499 . S
C854 C855 1.373 . S
C854 C856 1.389 . S
C855 H834 0.950 . S
C855 C854 1.373 . S
C855 C871 1.377 . S
C856 C854 1.389 . S
C856 C857 1.524 . S
C856 C870 1.377 . S
C857 C856 1.524 . S
C857 C858 1.397 . S
C857 C862 1.363 . S
C858 H835 0.950 . S
C858 C857 1.397 . S
C858 C859 1.334 . S
C859 H836 0.950 . S
C859 C858 1.334 . S
C859 C860 1.287 . S
C860 C859 1.287 . S
C860 C861 1.524 . S
C860 H879 0.913 . S
C861 H837 0.950 . S
C861 C860 1.524 . S
C861 C862 1.415 . S
C862 H838 0.950 . S
C862 C857 1.363 . S
C862 C861 1.415 . S
C863 H839 0.951 . S
C863 C864 1.366 . S
C863 C865 1.388 . S
C864 C863 1.366 . S
C864 C868 1.385 . S
C865 H840 0.951 . S
C865 C863 1.388 . S
C865 C866 1.366 . S
C866 C865 1.366 . S
C866 C867 1.414 . S
C866 C869 1.499 . S
C867 H841 0.950 . S
C867 C866 1.414 . S
C867 C868 1.374 . S
C868 H842 0.950 . S
C868 C864 1.385 . S
C868 C867 1.374 . S
C869 C866 1.499 . S
C869 C870 1.373 . S
C869 C871 1.389 . S
C870 H843 0.950 . S
C870 C856 1.377 . S
C870 C869 1.373 . S
C871 C855 1.377 . S
C871 C869 1.389 . S
C871 C872 1.524 . S
C872 C871 1.524 . S
C872 C873 1.397 . S
C872 C877 1.363 . S
C873 H844 0.950 . S
C873 C872 1.397 . S
C873 C874 1.334 . S
C874 H845 0.950 . S
C874 C873 1.334 . S
C874 C875 1.287 . S
C875 C874 1.287 . S
C875 C876 1.524 . S
C875 H878 0.999 . S
C876 H846 0.950 . S
C876 C875 1.524 . S
C876 C877 1.415 . S
C877 H847 0.950 . S
C877 C872 1.363 . S
C877 C876 1.415 . S
H878 C875 0.999 . S
H879 C860 0.913 . S
H880 C898 0.951 . S
H881 C900 0.951 . S
H882 C902 0.950 . S
H883 C903 0.950 . S
H884 C905 0.950 . S
H885 C908 0.950 . S
H886 C909 0.950 . S
H887 C911 0.950 . S
H888 C912 0.950 . S
H889 C913 0.951 . S
H890 C915 0.951 . S
H891 C917 0.950 . S
H892 C918 0.950 . S
H893 C920 0.950 . S
H894 C923 0.950 . S
H895 C924 0.950 . S
H896 C926 0.950 . S
H897 C927 0.950 . S
C898 H880 0.951 . S
C898 C899 1.366 . S
C898 C900 1.388 . S
C899 C898 1.366 . S
C899 C903 1.385 . S
C900 H881 0.951 . S
C900 C898 1.388 . S
C900 C901 1.366 . S
C901 C900 1.366 . S
C901 C902 1.414 . S
C901 C904 1.499 . S
C902 H882 0.950 . S
C902 C901 1.414 . S
C902 C903 1.374 . S
C903 H883 0.950 . S
C903 C899 1.385 . S
C903 C902 1.374 . S
C904 C901 1.499 . S
C904 C905 1.373 . S
C904 C906 1.389 . S
C905 H884 0.950 . S
C905 C904 1.373 . S
C905 C921 1.377 . S
C906 C904 1.389 . S
C906 C907 1.524 . S
C906 C920 1.377 . S
C907 C906 1.524 . S
C907 C908 1.397 . S
C907 C912 1.363 . S
C908 H885 0.950 . S
C908 C907 1.397 . S
C908 C909 1.334 . S
C909 H886 0.950 . S
C909 C908 1.334 . S
C909 C910 1.287 . S
C910 C909 1.287 . S
C910 C911 1.524 . S
C910 H929 0.913 . S
C911 H887 0.950 . S
C911 C910 1.524 . S
C911 C912 1.415 . S
C912 H888 0.950 . S
C912 C907 1.363 . S
C912 C911 1.415 . S
C913 H889 0.951 . S
C913 C914 1.366 . S
C913 C915 1.388 . S
C914 C913 1.366 . S
C914 C918 1.385 . S
C915 H890 0.951 . S
C915 C913 1.388 . S
C915 C916 1.366 . S
C916 C915 1.366 . S
C916 C917 1.414 . S
C916 C919 1.499 . S
C917 H891 0.950 . S
C917 C916 1.414 . S
C917 C918 1.374 . S
C918 H892 0.950 . S
C918 C914 1.385 . S
C918 C917 1.374 . S
C919 C916 1.499 . S
C919 C920 1.373 . S
C919 C921 1.389 . S
C920 H893 0.950 . S
C920 C906 1.377 . S
C920 C919 1.373 . S
C921 C905 1.377 . S
C921 C919 1.389 . S
C921 C922 1.524 . S
C922 C921 1.524 . S
C922 C923 1.397 . S
C922 C927 1.363 . S
C923 H894 0.950 . S
C923 C922 1.397 . S
C923 C924 1.334 . S
C924 H895 0.950 . S
C924 C923 1.334 . S
C924 C925 1.287 . S
C925 C924 1.287 . S
C925 C926 1.524 . S
C925 H928 0.999 . S
C926 H896 0.950 . S
C926 C925 1.524 . S
C926 C927 1.415 . S
C927 H897 0.950 . S
C927 C922 1.363 . S
C927 C926 1.415 . S
H928 C925 0.999 . S
H929 C910 0.913 . S
H930 C948 0.951 . S
H931 C950 0.951 . S
H932 C952 0.950 . S
H933 C953 0.950 . S
H934 C955 0.950 . S
H935 C958 0.950 . S
H936 C959 0.950 . S
H937 C961 0.950 . S
H938 C962 0.950 . S
H939 C963 0.951 . S
H940 C965 0.951 . S
H941 C967 0.950 . S
H942 C968 0.950 . S
H943 C970 0.950 . S
H944 C973 0.950 . S
H945 C974 0.950 . S
H946 C976 0.950 . S
H947 C977 0.950 . S
C948 H930 0.951 . S
C948 C949 1.366 . S
C948 C950 1.388 . S
C949 C948 1.366 . S
C949 C953 1.385 . S
C950 H931 0.951 . S
C950 C948 1.388 . S
C950 C951 1.366 . S
C951 C950 1.366 . S
C951 C952 1.414 . S
C951 C954 1.499 . S
C952 H932 0.950 . S
C952 C951 1.414 . S
C952 C953 1.374 . S
C953 H933 0.950 . S
C953 C949 1.385 . S
C953 C952 1.374 . S
C954 C951 1.499 . S
C954 C955 1.373 . S
C954 C956 1.389 . S
C955 H934 0.950 . S
C955 C954 1.373 . S
C955 C971 1.377 . S
C956 C954 1.389 . S
C956 C957 1.524 . S
C956 C970 1.377 . S
C957 C956 1.524 . S
C957 C958 1.397 . S
C957 C962 1.363 . S
C958 H935 0.950 . S
C958 C957 1.397 . S
C958 C959 1.334 . S
C959 H936 0.950 . S
C959 C958 1.334 . S
C959 C960 1.287 . S
C960 C959 1.287 . S
C960 C961 1.524 . S
C960 H979 0.913 . S
C961 H937 0.950 . S
C961 C960 1.524 . S
C961 C962 1.415 . S
C962 H938 0.950 . S
C962 C957 1.363 . S
C962 C961 1.415 . S
C963 H939 0.951 . S
C963 C964 1.366 . S
C963 C965 1.388 . S
C964 C963 1.366 . S
C964 C968 1.385 . S
C965 H940 0.951 . S
C965 C963 1.388 . S
C965 C966 1.366 . S
C966 C965 1.366 . S
C966 C967 1.414 . S
C966 C969 1.499 . S
C967 H941 0.950 . S
C967 C966 1.414 . S
C967 C968 1.374 . S
C968 H942 0.950 . S
C968 C964 1.385 . S
C968 C967 1.374 . S
C969 C966 1.499 . S
C969 C970 1.373 . S
C969 C971 1.389 . S
C970 H943 0.950 . S
C970 C956 1.377 . S
C970 C969 1.373 . S
C971 C955 1.377 . S
C971 C969 1.389 . S
C971 C972 1.524 . S
C972 C971 1.524 . S
C972 C973 1.397 . S
C972 C977 1.363 . S
C973 H944 0.950 . S
C973 C972 1.397 . S
C973 C974 1.334 . S
C974 H945 0.950 . S
C974 C973 1.334 . S
C974 C975 1.287 . S
C975 C974 1.287 . S
C975 C976 1.524 . S
C975 H978 0.999 . S
C976 H946 0.950 . S
C976 C975 1.524 . S
C976 C977 1.415 . S
C977 H947 0.950 . S
C977 C972 1.363 . S
C977 C976 1.415 . S
H978 C975 0.999 . S
H979 C960 0.913 . S
H980 C998 0.951 . S
H981 C1000 0.951 . S
H982 C1002 0.950 . S
H983 C1003 0.950 . S
H984 C1005 0.950 . S
H985 C1008 0.950 . S
H986 C1009 0.950 . S
H987 C1011 0.950 . S
H988 C1012 0.950 . S
H989 C1013 0.951 . S
H990 C1015 0.951 . S
H991 C1017 0.950 . S
H992 C1018 0.950 . S
H993 C1020 0.950 . S
H994 C1023 0.950 . S
H995 C1024 0.950 . S
H996 C1026 0.950 . S
H997 C1027 0.950 . S
C998 H980 0.951 . S
C998 C999 1.366 . S
C998 C1000 1.388 . S
C999 C998 1.366 . S
C999 C1003 1.385 . S
C1000 H981 0.951 . S
C1000 C998 1.388 . S
C1000 C1001 1.366 . S
C1001 C1000 1.366 . S
C1001 C1002 1.414 . S
C1001 C1004 1.499 . S
C1002 H982 0.950 . S
C1002 C1001 1.414 . S
C1002 C1003 1.374 . S
C1003 H983 0.950 . S
C1003 C999 1.385 . S
C1003 C1002 1.374 . S
C1004 C1001 1.499 . S
C1004 C1005 1.373 . S
C1004 C1006 1.389 . S
C1005 H984 0.950 . S
C1005 C1004 1.373 . S
C1005 C1021 1.377 . S
C1006 C1004 1.389 . S
C1006 C1007 1.524 . S
C1006 C1020 1.377 . S
C1007 C1006 1.524 . S
C1007 C1008 1.397 . S
C1007 C1012 1.363 . S
C1008 H985 0.950 . S
C1008 C1007 1.397 . S
C1008 C1009 1.334 . S
C1009 H986 0.950 . S
C1009 C1008 1.334 . S
C1009 C1010 1.287 . S
C1010 C1009 1.287 . S
C1010 C1011 1.524 . S
C1010 H1029 0.913 . S
C1011 H987 0.950 . S
C1011 C1010 1.524 . S
C1011 C1012 1.415 . S
C1012 H988 0.950 . S
C1012 C1007 1.363 . S
C1012 C1011 1.415 . S
C1013 H989 0.951 . S
C1013 C1014 1.366 . S
C1013 C1015 1.388 . S
C1014 C1013 1.366 . S
C1014 C1018 1.385 . S
C1015 H990 0.951 . S
C1015 C1013 1.388 . S
C1015 C1016 1.366 . S
C1016 C1015 1.366 . S
C1016 C1017 1.414 . S
C1016 C1019 1.499 . S
C1017 H991 0.950 . S
C1017 C1016 1.414 . S
C1017 C1018 1.374 . S
C1018 H992 0.950 . S
C1018 C1014 1.385 . S
C1018 C1017 1.374 . S
C1019 C1016 1.499 . S
C1019 C1020 1.373 . S
C1019 C1021 1.389 . S
C1020 H993 0.950 . S
C1020 C1006 1.377 . S
C1020 C1019 1.373 . S
C1021 C1005 1.377 . S
C1021 C1019 1.389 . S
C1021 C1022 1.524 . S
C1022 C1021 1.524 . S
C1022 C1023 1.397 . S
C1022 C1027 1.363 . S
C1023 H994 0.950 . S
C1023 C1022 1.397 . S
C1023 C1024 1.334 . S
C1024 H995 0.950 . S
C1024 C1023 1.334 . S
C1024 C1025 1.287 . S
C1025 C1024 1.287 . S
C1025 C1026 1.524 . S
C1025 H1028 0.999 . S
C1026 H996 0.950 . S
C1026 C1025 1.524 . S
C1026 C1027 1.415 . S
C1027 H997 0.950 . S
C1027 C1022 1.363 . S
C1027 C1026 1.415 . S
H1028 C1025 0.999 . S
H1029 C1010 0.913 . S
H1030 C1048 0.951 . S
H1031 C1050 0.951 . S
H1032 C1052 0.950 . S
H1033 C1053 0.950 . S
H1034 C1055 0.950 . S
H1035 C1058 0.950 . S
H1036 C1059 0.950 . S
H1037 C1061 0.950 . S
H1038 C1062 0.950 . S
H1039 C1063 0.951 . S
H1040 C1065 0.951 . S
H1041 C1067 0.950 . S
H1042 C1068 0.950 . S
H1043 C1070 0.950 . S
H1044 C1073 0.950 . S
H1045 C1074 0.950 . S
H1046 C1076 0.950 . S
H1047 C1077 0.950 . S
C1048 H1030 0.951 . S
C1048 C1049 1.366 . S
C1048 C1050 1.388 . S
C1049 C1048 1.366 . S
C1049 C1053 1.385 . S
C1050 H1031 0.951 . S
C1050 C1048 1.388 . S
C1050 C1051 1.366 . S
C1051 C1050 1.366 . S
C1051 C1052 1.414 . S
C1051 C1054 1.499 . S
C1052 H1032 0.950 . S
C1052 C1051 1.414 . S
C1052 C1053 1.374 . S
C1053 H1033 0.950 . S
C1053 C1049 1.385 . S
C1053 C1052 1.374 . S
C1054 C1051 1.499 . S
C1054 C1055 1.373 . S
C1054 C1056 1.389 . S
C1055 H1034 0.950 . S
C1055 C1054 1.373 . S
C1055 C1071 1.377 . S
C1056 C1054 1.389 . S
C1056 C1057 1.524 . S
C1056 C1070 1.377 . S
C1057 C1056 1.524 . S
C1057 C1058 1.397 . S
C1057 C1062 1.363 . S
C1058 H1035 0.950 . S
C1058 C1057 1.397 . S
C1058 C1059 1.334 . S
C1059 H1036 0.950 . S
C1059 C1058 1.334 . S
C1059 C1060 1.287 . S
C1060 C1059 1.287 . S
C1060 C1061 1.524 . S
C1060 H1079 0.913 . S
C1061 H1037 0.950 . S
C1061 C1060 1.524 . S
C1061 C1062 1.415 . S
C1062 H1038 0.950 . S
C1062 C1057 1.363 . S
C1062 C1061 1.415 . S
C1063 H1039 0.951 . S
C1063 C1064 1.366 . S
C1063 C1065 1.388 . S
C1064 C1063 1.366 . S
C1064 C1068 1.385 . S
C1065 H1040 0.951 . S
C1065 C1063 1.388 . S
C1065 C1066 1.366 . S
C1066 C1065 1.366 . S
C1066 C1067 1.414 . S
C1066 C1069 1.499 . S
C1067 H1041 0.950 . S
C1067 C1066 1.414 . S
C1067 C1068 1.374 . S
C1068 H1042 0.950 . S
C1068 C1064 1.385 . S
C1068 C1067 1.374 . S
C1069 C1066 1.499 . S
C1069 C1070 1.373 . S
C1069 C1071 1.389 . S
C1070 H1043 0.950 . S
C1070 C1056 1.377 . S
C1070 C1069 1.373 . S
C1071 C1055 1.377 . S
C1071 C1069 1.389 . S
C1071 C1072 1.524 . S
C1072 C1071 1.524 . S
C1072 C1073 1.397 . S
C1072 C1077 1.363 . S
C1073 H1044 0.950 . S
C1073 C1072 1.397 . S
C1073 C1074 1.334 . S
C1074 H1045 0.950 . S
C1074 C1073 1.334 . S
C1074 C1075 1.287 . S
C1075 C1074 1.287 . S
C1075 C1076 1.524 . S
C1075 H1078 0.999 . S
C1076 H1046 0.950 . S
C1076 C1075 1.524 . S
C1076 C1077 1.415 . S
C1077 H1047 0.950 . S
C1077 C1072 1.363 . S
C1077 C1076 1.415 . S
H1078 C1075 0.999 . S
H1079 C1060 0.913 . S
H1080 C1098 0.951 . S
H1081 C1100 0.948 1_655 S
H1082 C1102 0.950 . S
H1083 C1103 0.950 . S
H1084 C1105 0.950 . S
H1085 C1108 0.950 . S
H1086 C1109 0.950 . S
H1087 C1111 0.950 . S
H1088 C1112 0.950 . S
H1089 C1113 0.951 . S
H1090 C1115 0.951 . S
H1091 C1117 0.950 . S
H1092 C1118 0.950 . S
H1093 C1120 0.950 . S
H1094 C1123 0.950 . S
H1095 C1124 0.950 . S
H1096 C1126 0.950 . S
H1097 C1127 0.950 . S
C1098 H1080 0.951 . S
C1098 C1099 1.366 1_655 S
C1098 C1100 1.388 1_655 S
C1099 C1098 1.366 1_455 S
C1099 C1103 1.385 . S
C1100 H1081 0.948 1_455 S
C1100 C1098 1.388 1_455 S
C1100 C1101 1.368 . S
C1101 C1100 1.368 . S
C1101 C1102 1.414 . S
C1101 C1104 1.499 . S
C1102 H1082 0.950 . S
C1102 C1101 1.414 . S
C1102 C1103 1.374 . S
C1103 H1083 0.950 . S
C1103 C1099 1.385 . S
C1103 C1102 1.374 . S
C1104 C1101 1.499 . S
C1104 C1105 1.373 . S
C1104 C1106 1.389 1_455 S
C1105 H1084 0.950 . S
C1105 C1104 1.373 . S
C1105 C1121 1.377 . S
C1106 C1104 1.389 1_655 S
C1106 C1107 1.524 . S
C1106 C1120 1.377 . S
C1107 C1106 1.524 . S
C1107 C1108 1.397 . S
C1107 C1112 1.363 . S
C1108 H1085 0.950 . S
C1108 C1107 1.397 . S
C1108 C1109 1.334 . S
C1109 H1086 0.950 . S
C1109 C1108 1.334 . S
C1109 C1110 1.287 . S
C1110 C1109 1.287 . S
C1110 C1111 1.524 . S
C1110 H1129 0.913 . S
C1111 H1087 0.950 . S
C1111 C1110 1.524 . S
C1111 C1112 1.415 . S
C1112 H1088 0.950 . S
C1112 C1107 1.363 . S
C1112 C1111 1.415 . S
C1113 H1089 0.951 . S
C1113 C1114 1.366 . S
C1113 C1115 1.388 1_556 S
C1114 C1113 1.366 . S
C1114 C1118 1.385 . S
C1115 H1090 0.951 . S
C1115 C1113 1.388 1_554 S
C1115 C1116 1.366 . S
C1116 C1115 1.366 . S
C1116 C1117 1.414 . S
C1116 C1119 1.499 . S
C1117 H1091 0.950 . S
C1117 C1116 1.414 . S
C1117 C1118 1.374 1_554 S
C1118 H1092 0.950 . S
C1118 C1114 1.385 . S
C1118 C1117 1.374 1_556 S
C1119 C1116 1.499 . S
C1119 C1120 1.373 1_455 S
C1119 C1121 1.389 . S
C1120 H1093 0.950 . S
C1120 C1106 1.377 . S
C1120 C1119 1.373 1_655 S
C1121 C1105 1.377 . S
C1121 C1119 1.389 . S
C1121 C1122 1.524 . S
C1122 C1121 1.524 . S
C1122 C1123 1.397 . S
C1122 C1127 1.363 . S
C1123 H1094 0.950 . S
C1123 C1122 1.397 . S
C1123 C1124 1.334 . S
C1124 H1095 0.950 . S
C1124 C1123 1.334 . S
C1124 C1125 1.287 . S
C1125 C1124 1.287 . S
C1125 C1126 1.524 . S
C1125 H1128 0.999 . S
C1126 H1096 0.950 . S
C1126 C1125 1.524 . S
C1126 C1127 1.415 . S
C1127 H1097 0.950 . S
C1127 C1122 1.363 . S
C1127 C1126 1.415 . S
H1128 C1125 0.999 . S
H1129 C1110 0.913 . S
H1130 C1148 0.951 . S
H1131 C1150 0.951 . S
H1132 C1152 0.950 . S
H1133 C1153 0.950 . S
H1134 C1155 0.950 . S
H1135 C1158 0.950 . S
H1136 C1159 0.950 . S
H1137 C1161 0.950 . S
H1138 C1162 0.950 . S
H1139 C1163 0.951 1_565 S
H1140 C1165 0.951 1_565 S
H1141 C1167 0.950 . S
H1142 C1168 0.950 . S
H1143 C1170 0.950 . S
H1144 C1173 0.950 . S
H1145 C1174 0.950 . S
H1146 C1176 0.950 . S
H1147 C1177 0.950 . S
C1148 H1130 0.951 . S
C1148 C1149 1.366 . S
C1148 C1150 1.388 . S
C1149 C1148 1.366 . S
C1149 C1153 1.385 1_545 S
C1150 H1131 0.951 . S
C1150 C1148 1.388 . S
C1150 C1151 1.366 . S
C1151 C1150 1.366 . S
C1151 C1152 1.414 1_545 S
C1151 C1154 1.499 . S
C1152 H1132 0.950 . S
C1152 C1151 1.414 1_565 S
C1152 C1153 1.374 . S
C1153 H1133 0.950 . S
C1153 C1149 1.385 1_565 S
C1153 C1152 1.374 . S
C1154 C1151 1.499 . S
C1154 C1155 1.373 1_545 S
C1154 C1156 1.389 . S
C1155 H1134 0.950 . S
C1155 C1154 1.373 1_565 S
C1155 C1171 1.377 . S
C1156 C1154 1.389 . S
C1156 C1157 1.524 . S
C1156 C1170 1.377 . S
C1157 C1156 1.524 . S
C1157 C1158 1.397 . S
C1157 C1162 1.363 . S
C1158 H1135 0.950 . S
C1158 C1157 1.397 . S
C1158 C1159 1.334 . S
C1159 H1136 0.950 . S
C1159 C1158 1.334 . S
C1159 C1160 1.287 . S
C1160 C1159 1.287 . S
C1160 C1161 1.524 . S
C1160 H1179 0.913 . S
C1161 H1137 0.950 . S
C1161 C1160 1.524 . S
C1161 C1162 1.415 . S
C1162 H1138 0.950 . S
C1162 C1157 1.363 . S
C1162 C1161 1.415 . S
C1163 H1139 0.951 1_545 S
C1163 C1164 1.366 . S
C1163 C1165 1.388 . S
C1164 C1163 1.366 . S
C1164 C1168 1.385 . S
C1165 H1140 0.951 1_545 S
C1165 C1163 1.388 . S
C1165 C1166 1.366 . S
C1166 C1165 1.366 . S
C1166 C1167 1.414 . S
C1166 C1169 1.499 . S
C1167 H1141 0.950 . S
C1167 C1166 1.414 . S
C1167 C1168 1.374 . S
C1168 H1142 0.950 . S
C1168 C1164 1.385 . S
C1168 C1167 1.374 . S
C1169 C1166 1.499 . S
C1169 C1170 1.373 . S
C1169 C1171 1.389 1_545 S
C1170 H1143 0.950 . S
C1170 C1156 1.377 . S
C1170 C1169 1.373 . S
C1171 C1155 1.377 . S
C1171 C1169 1.389 1_565 S
C1171 C1172 1.524 . S
C1172 C1171 1.524 . S
C1172 C1173 1.397 . S
C1172 C1177 1.363 . S
C1173 H1144 0.950 . S
C1173 C1172 1.397 . S
C1173 C1174 1.334 . S
C1174 H1145 0.950 . S
C1174 C1173 1.334 . S
C1174 C1175 1.287 . S
C1175 C1174 1.287 . S
C1175 C1176 1.524 . S
C1175 H1178 0.999 . S
C1176 H1146 0.950 . S
C1176 C1175 1.524 . S
C1176 C1177 1.415 . S
C1177 H1147 0.950 . S
C1177 C1172 1.363 . S
C1177 C1176 1.415 . S
H1178 C1175 0.999 . S
H1179 C1160 0.913 . S
H1180 C1198 0.951 . S
H1181 C1200 0.951 . S
H1182 C1202 0.950 . S
H1183 C1203 0.950 . S
H1184 C1205 0.950 . S
H1185 C1208 0.950 . S
H1186 C1209 0.950 . S
H1187 C1211 0.950 . S
H1188 C1212 0.950 . S
H1189 C1213 0.951 . S
H1190 C1215 0.951 . S
H1191 C1217 0.950 . S
H1192 C1218 0.950 . S
H1193 C1220 0.950 . S
H1194 C1223 0.950 . S
H1195 C1224 0.950 . S
H1196 C1226 0.950 . S
H1197 C1227 0.950 . S
C1198 H1180 0.951 . S
C1198 C1199 1.366 . S
C1198 C1200 1.388 . S
C1199 C1198 1.366 . S
C1199 C1203 1.385 . S
C1200 H1181 0.951 . S
C1200 C1198 1.388 . S
C1200 C1201 1.366 . S
C1201 C1200 1.366 . S
C1201 C1202 1.414 . S
C1201 C1204 1.499 . S
C1202 H1182 0.950 . S
C1202 C1201 1.414 . S
C1202 C1203 1.374 . S
C1203 H1183 0.950 . S
C1203 C1199 1.385 . S
C1203 C1202 1.374 . S
C1204 C1201 1.499 . S
C1204 C1205 1.373 . S
C1204 C1206 1.389 . S
C1205 H1184 0.950 . S
C1205 C1204 1.373 . S
C1205 C1221 1.377 . S
C1206 C1204 1.389 . S
C1206 C1207 1.524 . S
C1206 C1220 1.377 . S
C1207 C1206 1.524 . S
C1207 C1208 1.397 . S
C1207 C1212 1.363 . S
C1208 H1185 0.950 . S
C1208 C1207 1.397 . S
C1208 C1209 1.334 . S
C1209 H1186 0.950 . S
C1209 C1208 1.334 . S
C1209 C1210 1.287 . S
C1210 C1209 1.287 . S
C1210 C1211 1.524 . S
C1210 H1229 0.913 . S
C1211 H1187 0.950 . S
C1211 C1210 1.524 . S
C1211 C1212 1.415 . S
C1212 H1188 0.950 . S
C1212 C1207 1.363 . S
C1212 C1211 1.415 . S
C1213 H1189 0.951 . S
C1213 C1214 1.366 . S
C1213 C1215 1.388 . S
C1214 C1213 1.366 . S
C1214 C1218 1.385 . S
C1215 H1190 0.951 . S
C1215 C1213 1.388 . S
C1215 C1216 1.366 . S
C1216 C1215 1.366 . S
C1216 C1217 1.414 . S
C1216 C1219 1.499 . S
C1217 H1191 0.950 . S
C1217 C1216 1.414 . S
C1217 C1218 1.374 . S
C1218 H1192 0.950 . S
C1218 C1214 1.385 . S
C1218 C1217 1.374 . S
C1219 C1216 1.499 . S
C1219 C1220 1.373 . S
C1219 C1221 1.389 . S
C1220 H1193 0.950 . S
C1220 C1206 1.377 . S
C1220 C1219 1.373 . S
C1221 C1205 1.377 . S
C1221 C1219 1.389 . S
C1221 C1222 1.524 . S
C1222 C1221 1.524 . S
C1222 C1223 1.397 . S
C1222 C1227 1.363 . S
C1223 H1194 0.950 . S
C1223 C1222 1.397 . S
C1223 C1224 1.334 . S
C1224 H1195 0.950 . S
C1224 C1223 1.334 . S
C1224 C1225 1.287 . S
C1225 C1224 1.287 . S
C1225 C1226 1.524 . S
C1225 H1228 0.999 . S
C1226 H1196 0.950 . S
C1226 C1225 1.524 . S
C1226 C1227 1.415 . S
C1227 H1197 0.950 . S
C1227 C1222 1.363 . S
C1227 C1226 1.415 . S
H1228 C1225 0.999 . S
H1229 C1210 0.913 . S
H1230 C1248 0.951 . S
H1231 C1250 0.951 . S
H1232 C1252 0.950 . S
H1233 C1253 0.950 . S
H1234 C1255 0.950 . S
H1235 C1258 0.950 1_565 S
H1236 C1259 0.950 1_565 S
H1237 C1261 0.950 . S
H1238 C1262 0.950 . S
H1239 C1263 0.951 . S
H1240 C1265 0.951 . S
H1241 C1267 0.950 . S
H1242 C1268 0.950 . S
H1243 C1270 0.950 . S
H1244 C1273 0.950 . S
H1245 C1274 0.950 . S
H1246 C1276 0.950 . S
H1247 C1277 0.950 . S
C1248 H1230 0.951 . S
C1248 C1249 1.366 . S
C1248 C1250 1.388 . S
C1249 C1248 1.366 . S
C1249 C1253 1.385 1_545 S
C1250 H1231 0.951 . S
C1250 C1248 1.388 . S
C1250 C1251 1.366 . S
C1251 C1250 1.366 . S
C1251 C1252 1.414 1_545 S
C1251 C1254 1.499 . S
C1252 H1232 0.950 . S
C1252 C1251 1.414 1_565 S
C1252 C1253 1.374 . S
C1253 H1233 0.950 . S
C1253 C1249 1.385 1_565 S
C1253 C1252 1.374 . S
C1254 C1251 1.499 . S
C1254 C1255 1.373 1_545 S
C1254 C1256 1.389 . S
C1255 H1234 0.950 . S
C1255 C1254 1.373 1_565 S
C1255 C1271 1.375 1_565 S
C1256 C1254 1.389 . S
C1256 C1257 1.524 . S
C1256 C1270 1.377 . S
C1257 C1256 1.524 . S
C1257 C1258 1.397 . S
C1257 C1262 1.363 . S
C1258 H1235 0.950 1_545 S
C1258 C1257 1.397 . S
C1258 C1259 1.334 . S
C1259 H1236 0.950 1_545 S
C1259 C1258 1.334 . S
C1259 C1260 1.287 . S
C1260 C1259 1.287 . S
C1260 C1261 1.524 . S
C1260 H1279 0.913 . S
C1261 H1237 0.950 . S
C1261 C1260 1.524 . S
C1261 C1262 1.415 . S
C1262 H1238 0.950 . S
C1262 C1257 1.363 . S
C1262 C1261 1.415 . S
C1263 H1239 0.951 . S
C1263 C1264 1.366 1_565 S
C1263 C1265 1.388 . S
C1264 C1263 1.366 1_545 S
C1264 C1268 1.385 . S
C1265 H1240 0.951 . S
C1265 C1263 1.388 . S
C1265 C1266 1.366 1_565 S
C1266 C1265 1.366 1_545 S
C1266 C1267 1.414 . S
C1266 C1269 1.499 . S
C1267 H1241 0.950 . S
C1267 C1266 1.414 . S
C1267 C1268 1.374 . S
C1268 H1242 0.950 . S
C1268 C1264 1.385 . S
C1268 C1267 1.374 . S
C1269 C1266 1.499 . S
C1269 C1270 1.373 . S
C1269 C1271 1.385 . S
C1270 H1243 0.950 . S
C1270 C1256 1.377 . S
C1270 C1269 1.373 . S
C1271 C1255 1.375 1_545 S
C1271 C1269 1.385 . S
C1271 C1272 1.535 1_545 S
C1272 C1271 1.535 1_565 S
C1272 C1273 1.397 1_565 S
C1272 C1277 1.363 . S
C1273 H1244 0.950 . S
C1273 C1272 1.397 1_545 S
C1273 C1274 1.334 . S
C1274 H1245 0.950 . S
C1274 C1273 1.334 . S
C1274 C1275 1.287 1_545 S
C1275 C1274 1.287 1_565 S
C1275 C1276 1.524 . S
C1275 H1278 0.999 . S
C1276 H1246 0.950 . S
C1276 C1275 1.524 . S
C1276 C1277 1.415 . S
C1277 H1247 0.950 . S
C1277 C1272 1.363 . S
C1277 C1276 1.415 . S
H1278 C1275 0.999 . S
H1279 C1260 0.913 . S
H1280 C1298 0.951 . S
H1281 C1300 0.951 . S
H1282 C1302 0.950 . S
H1283 C1303 0.950 . S
H1284 C1305 0.950 . S
H1285 C1308 0.950 . S
H1286 C1309 0.950 . S
H1287 C1311 0.950 . S
H1288 C1312 0.950 . S
H1289 C1313 0.951 . S
H1290 C1315 0.951 . S
H1291 C1317 0.950 . S
H1292 C1318 0.950 . S
H1293 C1320 0.950 . S
H1294 C1323 0.950 . S
H1295 C1324 0.950 . S
H1296 C1326 0.950 . S
H1297 C1327 0.950 . S
C1298 H1280 0.951 . S
C1298 C1299 1.366 . S
C1298 C1300 1.388 . S
C1299 C1298 1.366 . S
C1299 C1303 1.385 . S
C1300 H1281 0.951 . S
C1300 C1298 1.388 . S
C1300 C1301 1.366 . S
C1301 C1300 1.366 . S
C1301 C1302 1.414 . S
C1301 C1304 1.499 . S
C1302 H1282 0.950 . S
C1302 C1301 1.414 . S
C1302 C1303 1.374 . S
C1303 H1283 0.950 . S
C1303 C1299 1.385 . S
C1303 C1302 1.374 . S
C1304 C1301 1.499 . S
C1304 C1305 1.373 . S
C1304 C1306 1.389 . S
C1305 H1284 0.950 . S
C1305 C1304 1.373 . S
C1305 C1321 1.377 . S
C1306 C1304 1.389 . S
C1306 C1307 1.524 . S
C1306 C1320 1.377 . S
C1307 C1306 1.524 . S
C1307 C1308 1.397 . S
C1307 C1312 1.363 . S
C1308 H1285 0.950 . S
C1308 C1307 1.397 . S
C1308 C1309 1.334 . S
C1309 H1286 0.950 . S
C1309 C1308 1.334 . S
C1309 C1310 1.287 . S
C1310 C1309 1.287 . S
C1310 C1311 1.524 . S
C1310 H1329 0.913 . S
C1311 H1287 0.950 . S
C1311 C1310 1.524 . S
C1311 C1312 1.415 . S
C1312 H1288 0.950 . S
C1312 C1307 1.363 . S
C1312 C1311 1.415 . S
C1313 H1289 0.951 . S
C1313 C1314 1.366 . S
C1313 C1315 1.388 1_554 S
C1314 C1313 1.366 . S
C1314 C1318 1.385 . S
C1315 H1290 0.951 . S
C1315 C1313 1.388 1_556 S
C1315 C1316 1.366 . S
C1316 C1315 1.366 . S
C1316 C1317 1.414 . S
C1316 C1319 1.499 . S
C1317 H1291 0.950 . S
C1317 C1316 1.414 . S
C1317 C1318 1.374 1_556 S
C1318 H1292 0.950 . S
C1318 C1314 1.385 . S
C1318 C1317 1.374 1_554 S
C1319 C1316 1.499 . S
C1319 C1320 1.373 . S
C1319 C1321 1.389 . S
C1320 H1293 0.950 . S
C1320 C1306 1.377 . S
C1320 C1319 1.373 . S
C1321 C1305 1.377 . S
C1321 C1319 1.389 . S
C1321 C1322 1.524 . S
C1322 C1321 1.524 . S
C1322 C1323 1.397 . S
C1322 C1327 1.363 . S
C1323 H1294 0.950 . S
C1323 C1322 1.397 . S
C1323 C1324 1.334 . S
C1324 H1295 0.950 . S
C1324 C1323 1.334 . S
C1324 C1325 1.287 . S
C1325 C1324 1.287 . S
C1325 C1326 1.524 . S
C1325 H1328 0.999 . S
C1326 H1296 0.950 . S
C1326 C1325 1.524 . S
C1326 C1327 1.415 . S
C1327 H1297 0.950 . S
C1327 C1322 1.363 . S
C1327 C1326 1.415 . S
H1328 C1325 0.999 . S
H1329 C1310 0.913 . S
H1330 C1348 0.951 . S
H1331 C1350 0.951 . S
H1332 C1352 0.950 . S
H1333 C1353 0.950 . S
H1334 C1355 0.950 . S
H1335 C1358 0.950 . S
H1336 C1359 0.950 . S
H1337 C1361 0.950 . S
H1338 C1362 0.950 . S
H1339 C1363 0.951 . S
H1340 C1365 0.951 . S
H1341 C1367 0.950 . S
H1342 C1368 0.950 . S
H1343 C1370 0.950 . S
H1344 C1373 0.950 . S
H1345 C1374 0.950 . S
H1346 C1376 0.950 . S
H1347 C1377 0.950 . S
C1348 H1330 0.951 . S
C1348 C1349 1.366 . S
C1348 C1350 1.388 . S
C1349 C1348 1.366 . S
C1349 C1353 1.385 1_455 S
C1350 H1331 0.951 . S
C1350 C1348 1.388 . S
C1350 C1351 1.366 . S
C1351 C1350 1.366 . S
C1351 C1352 1.414 1_455 S
C1351 C1354 1.499 . S
C1352 H1332 0.950 . S
C1352 C1351 1.414 1_655 S
C1352 C1353 1.374 . S
C1353 H1333 0.950 . S
C1353 C1349 1.385 1_655 S
C1353 C1352 1.374 . S
C1354 C1351 1.499 . S
C1354 C1355 1.373 1_455 S
C1354 C1356 1.389 . S
C1355 H1334 0.950 . S
C1355 C1354 1.373 1_655 S
C1355 C1371 1.377 . S
C1356 C1354 1.389 . S
C1356 C1357 1.524 . S
C1356 C1370 1.377 . S
C1357 C1356 1.524 . S
C1357 C1358 1.397 . S
C1357 C1362 1.363 . S
C1358 H1335 0.950 . S
C1358 C1357 1.397 . S
C1358 C1359 1.334 . S
C1359 H1336 0.950 . S
C1359 C1358 1.334 . S
C1359 C1360 1.287 . S
C1360 C1359 1.287 . S
C1360 C1361 1.524 . S
C1360 H1379 0.913 . S
C1361 H1337 0.950 . S
C1361 C1360 1.524 . S
C1361 C1362 1.415 . S
C1362 H1338 0.950 . S
C1362 C1357 1.363 . S
C1362 C1361 1.415 . S
C1363 H1339 0.951 . S
C1363 C1364 1.366 1_655 S
C1363 C1365 1.388 . S
C1364 C1363 1.366 1_455 S
C1364 C1368 1.385 . S
C1365 H1340 0.951 . S
C1365 C1363 1.388 . S
C1365 C1366 1.366 1_655 S
C1366 C1365 1.366 1_455 S
C1366 C1367 1.414 . S
C1366 C1369 1.499 . S
C1367 H1341 0.950 . S
C1367 C1366 1.414 . S
C1367 C1368 1.374 . S
C1368 H1342 0.950 . S
C1368 C1364 1.385 . S
C1368 C1367 1.374 . S
C1369 C1366 1.499 . S
C1369 C1370 1.373 . S
C1369 C1371 1.389 1_455 S
C1370 H1343 0.950 . S
C1370 C1356 1.377 . S
C1370 C1369 1.373 . S
C1371 C1355 1.377 . S
C1371 C1369 1.389 1_655 S
C1371 C1372 1.524 . S
C1372 C1371 1.524 . S
C1372 C1373 1.397 . S
C1372 C1377 1.363 . S
C1373 H1344 0.950 . S
C1373 C1372 1.397 . S
C1373 C1374 1.334 . S
C1374 H1345 0.950 . S
C1374 C1373 1.334 . S
C1374 C1375 1.287 . S
C1375 C1374 1.287 . S
C1375 C1376 1.524 . S
C1375 H1378 0.999 . S
C1376 H1346 0.950 . S
C1376 C1375 1.524 . S
C1376 C1377 1.415 . S
C1377 H1347 0.950 . S
C1377 C1372 1.363 . S
C1377 C1376 1.415 . S
H1378 C1375 0.999 . S
H1379 C1360 0.913 . S
C499 C12 2.856 . S
C514 C451 2.851 . S
C549 C52 2.845 . S
C564 C301 2.705 . S
C599 C111 2.910 . S
C614 C361 2.759 . S
C649 C31 3.076 . S
C664 C421 2.909 . S
C714 C331 3.075 . S
C699 C71 3.087 . S
C764 C391 3.004 . S
C749 C92 3.016 . S
C799 C48 0.398 . S
C814 C181 0.499 . S
C849 C109 0.428 . S
C864 C271 0.294 . S
C899 C29 0.408 . S
C914 C151 0.270 . S
C964 C211 0.280 . S
C949 C69 0.347 . S
C1014 C241 0.414 . S
C999 C88 0.250 . S
C1049 C8 0.253 . S
C1064 C121 0.410 . S
C1114 C260 1.082 . S
C1099 C17 1.080 . S
C1149 C57 1.079 . S
C1164 C140 1.080 . S
C1199 C97 1.084 . S
C1214 C200 1.081 . S
C1264 C380 1.747 . S
C1249 C42 1.713 . S
C1314 C440 1.748 . S
C1299 C82 1.721 . S
C1349 C2 1.726 . S
C1364 C320 1.743 . S
