# Generated by pormake.
# Topology ftw, (4,12)-cn, num edge types: 1
# Building blocks:
#     Node 0, Type 0, BuildingBlock: GIZVER_clean_linker_0, # of connection points: 4
#     Node 1, Type 0, BuildingBlock: GIZVER_clean_linker_0, # of connection points: 4
#     Node 2, Type 0, BuildingBlock: GIZVER_clean_linker_0, # of connection points: 4
#     Node 3, Type 1, BuildingBlock: QEWDON_clean_sbu_0, # of connection points: 12
#     Edge 4, Type (0, 1), BuildingBlock: EZIPEK_clean_linker_0, # of connection points: 2
#     Edge 5, Type (0, 1), BuildingBlock: EZIPEK_clean_linker_0, # of connection points: 2
#     Edge 6, Type (0, 1), BuildingBlock: EZIPEK_clean_linker_0, # of connection points: 2
#     Edge 7, Type (0, 1), BuildingBlock: EZIPEK_clean_linker_0, # of connection points: 2
#     Edge 8, Type (0, 1), BuildingBlock: EZIPEK_clean_linker_0, # of connection points: 2
#     Edge 9, Type (0, 1), BuildingBlock: EZIPEK_clean_linker_0, # of connection points: 2
#     Edge 10, Type (0, 1), BuildingBlock: EZIPEK_clean_linker_0, # of connection points: 2
#     Edge 11, Type (0, 1), BuildingBlock: EZIPEK_clean_linker_0, # of connection points: 2
#     Edge 12, Type (0, 1), BuildingBlock: EZIPEK_clean_linker_0, # of connection points: 2
#     Edge 13, Type (0, 1), BuildingBlock: EZIPEK_clean_linker_0, # of connection points: 2
#     Edge 14, Type (0, 1), BuildingBlock: EZIPEK_clean_linker_0, # of connection points: 2
#     Edge 15, Type (0, 1), BuildingBlock: EZIPEK_clean_linker_0, # of connection points: 2
# Relax obj value: 0.120
# Max RMSD: 0.260
# Mean RMSD: 0.213
data_MOF--net-ftw--node1-QEWDON_clean_sbu_0--node2-GIZVER_clean_linker_0--edge1-EZIPEK_clean_linker_0
_symmetry_space_group_name_H-M    P1
_symmetry_Int_Tables_number       1
_symmetry_cell_setting            triclinic
loop_
_symmetry_equiv_pos_as_xyz
'x, y, z'
_cell_length_a     20.721331
_cell_length_b     19.184201
_cell_length_c     18.167347
_cell_angle_alpha  89.641429
_cell_angle_beta   89.223233
_cell_angle_gamma 91.799719
loop_
_atom_site_label
_atom_site_type_symbol
_atom_site_fract_x
_atom_site_fract_y
_atom_site_fract_z
_atom_type_partial_charge
H0 H 0.95396 0.44693 0.33912 0.0
H1 H 0.90297 0.43176 0.56924 0.0
H2 H 0.96876 0.25196 0.45647 0.0
H3 H 0.86099 0.5151 0.39753 0.0
H4 H 0.85489 0.51973 0.4953 0.0
H5 H 0.91734 0.60656 0.33707 0.0
H6 H 0.04734 0.74425 0.45387 0.0
H7 H 0.95866 0.56621 0.56449 0.0
C8 C 0.95034 0.41652 0.38957 0.0
C9 C 0.96377 0.34482 0.38861 0.0
C10 C 0.92443 0.44695 0.45344 0.0
C11 C 0.9219 0.40859 0.51947 0.0
C12 C 0.9409 0.33924 0.52087 0.0
C13 C 0.95945 0.30725 0.45534 0.0
C14 C 0.88988 0.51496 0.44873 0.0
C15 C 0.93576 0.57733 0.44951 0.0
C16 C 0.94334 0.61988 0.3867 0.0
C17 C 0.98397 0.67985 0.38735 0.0
C18 C 0.01652 0.69757 0.45234 0.0
C19 C 0.00614 0.65769 0.51669 0.0
C20 C 0.96692 0.59683 0.51469 0.0
H21 H 0.42403 0.06621 0.34546 0.0
H22 H 0.45544 0.08103 0.57858 0.0
H23 H 0.27713 -0.00727 0.49868 0.0
H24 H 0.51168 0.13737 0.38875 0.0
H25 H 0.51443 0.15933 0.48391 0.0
H26 H 0.5792 0.04619 0.3403 0.0
H27 H 0.73154 0.97821 0.48101 0.0
H28 H 0.56795 0.07858 0.57381 0.0
C29 C 0.40888 0.05445 0.40166 0.0
C30 C 0.34709 0.02514 0.41546 0.0
C31 C 0.44901 0.07356 0.46021 0.0
C32 C 0.42681 0.06238 0.53289 0.0
C33 C 0.36503 0.0329 0.54691 0.0
C34 C 0.32605 0.01239 0.48807 0.0
C35 C 0.51099 0.11461 0.44529 0.0
C36 C 0.56898 0.07038 0.45533 0.0
C37 C 0.60044 0.04157 0.39423 0.0
C38 C 0.66082 0.01062 0.40188 0.0
C39 C 0.68576 0.00289 0.4732 0.0
C40 C 0.6502 0.02345 0.53513 0.0
C41 C 0.59324 0.05937 0.52587 0.0
H42 H 0.52852 0.3662 0.2229 0.0
H43 H 0.58136 0.58516 0.20584 0.0
H44 H 0.68418 0.43438 0.07984 0.0
H45 H 0.49055 0.45033 0.31608 0.0
H46 H 0.50562 0.54225 0.3033 0.0
H47 H 0.42112 0.38465 0.2174 0.0
H48 H 0.27124 0.50745 0.12764 0.0
H49 H 0.43166 0.60887 0.23382 0.0
C50 C 0.55717 0.4086 0.19824 0.0
C51 C 0.60558 0.39339 0.14752 0.0
C52 C 0.54785 0.47765 0.21955 0.0
C53 C 0.58795 0.53159 0.18948 0.0
C54 C 0.63724 0.51586 0.13886 0.0
C55 C 0.64539 0.44683 0.11781 0.0
C56 C 0.49485 0.49259 0.27391 0.0
C57 C 0.43189 0.49612 0.23397 0.0
C58 C 0.40053 0.43493 0.20787 0.0
C59 C 0.34242 0.43847 0.16918 0.0
C60 C 0.31626 0.50368 0.15705 0.0
C61 C 0.34962 0.56456 0.17757 0.0
C62 C 0.40654 0.56114 0.21747 0.0
Zn63 Zn 0.15118 0.10562 0.93578 0.0
Zn64 Zn 0.08447 0.09602 0.09522 0.0
O65 O 0.08681 0.05018 0.9989 0.0
H66 H 0.11638 0.07282 0.96413 0.0
C67 C 0.92022 0.18322 0.79341 0.0
O68 O 0.96824 0.1596 0.83183 0.0
Zn69 Zn 0.89758 0.84675 0.05528 0.0
Zn70 Zn 0.79264 0.87819 0.94684 0.0
O71 O 0.88013 0.91447 0.9752 0.0
H72 H 0.91238 0.93664 0.94321 0.0
Zn73 Zn 0.83516 0.13285 0.91765 0.0
O74 O 0.89819 0.08419 0.98388 0.0
Zn75 Zn 0.85063 0.0765 0.0806 0.0
H76 H 0.94301 0.07482 0.97396 0.0
Zn77 Zn 0.09777 0.81219 0.94637 0.0
O78 O 0.11145 0.91811 0.95422 0.0
H79 H 0.07873 0.94579 0.93209 0.0
Zn80 Zn 0.14886 0.91285 0.05627 0.0
C81 C 0.10251 0.7628 0.79403 0.0
O82 O 0.1638 0.78082 0.80079 0.0
O83 O 0.20098 0.18302 0.98898 0.0
O84 O 0.14515 0.18342 0.09489 0.0
O85 O 0.76816 0.78354 0.99605 0.0
O86 O 0.86448 0.74883 0.03209 0.0
O87 O 0.76577 0.18505 0.97389 0.0
O88 O 0.76432 0.12054 0.0758 0.0
C89 C 0.17228 0.01269 0.16915 0.0
O90 O 0.15774 0.75328 0.0099 0.0
O91 O 0.21693 0.84184 0.0535 0.0
O92 O 0.76487 0.90191 0.84094 0.0
C93 C 0.18984 0.20848 0.05212 0.0
O94 O 0.18735 0.07369 0.83549 0.0
C95 C 0.82541 0.92881 0.15622 0.0
O96 O 0.86269 0.17597 0.81762 0.0
C97 C 0.80393 0.7372 0.02321 0.0
O98 O 0.06394 0.77058 0.84817 0.0
C99 C 0.95542 0.1479 0.15739 0.0
O100 O 0.11465 0.03205 0.17464 0.0
O101 O 0.19484 -0.00402 0.10625 0.0
C102 C 0.74144 0.16856 0.03637 0.0
O103 O 0.84258 0.86727 0.14445 0.0
O104 O 0.84735 0.97551 0.11167 0.0
C105 C 0.02714 0.84963 0.12825 0.0
O106 O 0.89512 0.1368 0.1543 0.0
O107 O 0.99159 0.11162 0.117 0.0
C108 C 0.20707 0.77698 0.04362 0.0
O109 O 0.08614 0.86907 0.12974 0.0
O110 O -0.00653 0.86233 0.07221 0.0
C111 C 0.71913 0.9432 0.83065 0.0
O112 O 0.68791 0.96831 0.88753 0.0
C113 C 0.24052 0.04256 0.83275 0.0
O114 O 0.26927 0.02593 0.89409 0.0
C115 C 0.93794 0.31415 0.25477 0.0
C116 C 0.97647 0.30568 0.31855 0.0
C117 C 0.01407 0.19548 0.26845 0.0
C118 C 0.97863 0.20651 0.20377 0.0
N119 N 0.92821 0.28936 0.12481 0.0
N120 N 0.07075 0.25198 0.36827 0.0
C121 C 0.94926 0.27132 0.19297 0.0
C122 C 0.02172 0.25122 0.31894 0.0
N123 N 0.88584 0.35608 0.25498 0.0
N124 N 0.03543 0.13093 0.28526 0.0
H125 H 0.07973 0.29432 0.40289 0.0
H126 H 0.10551 0.21396 0.36936 0.0
H127 H 0.02784 0.08821 0.25097 0.0
H128 H 0.0558 0.11926 0.33589 0.0
H129 H 0.8557 0.36089 0.20989 0.0
H130 H 0.86674 0.37813 0.3023 0.0
H131 H 0.90996 0.33821 0.11321 0.0
H132 H 0.93548 0.25789 0.0789 0.0
C133 C 0.72769 0.91961 0.3383 0.0
C134 C 0.69776 0.98524 0.33607 0.0
C135 C 0.73206 -0.0053 0.20742 0.0
C136 C 0.77866 0.94359 0.21751 0.0
N137 N 0.82013 0.85553 0.30015 0.0
N138 N 0.68412 0.09217 0.26601 0.0
C139 C 0.77631 0.90499 0.28505 0.0
C140 C 0.70319 0.02493 0.26984 0.0
N141 N 0.70764 0.86986 0.38836 0.0
N142 N 0.71015 0.00942 0.13903 0.0
H143 H 0.6709 0.12068 0.31214 0.0
H144 H 0.68925 0.12137 0.21761 0.0
H145 H 0.72658 0.9839 0.09209 0.0
H146 H 0.67083 0.04129 0.13122 0.0
H147 H 0.72435 0.81917 0.38776 0.0
H148 H 0.66829 0.87647 0.42373 0.0
H149 H 0.8217 0.83037 0.35108 0.0
H150 H 0.85843 0.84406 0.26552 0.0
C151 C 0.97736 0.79692 0.3227 0.0
C152 C 0.99076 0.72459 0.3199 0.0
C153 C 0.00628 0.73402 0.18622 0.0
C154 C 0.00181 0.80729 0.19075 0.0
N155 N 0.99022 0.91055 0.26364 0.0
N156 N 0.03425 0.62908 0.25077 0.0
C157 C 0.9898 0.83943 0.25929 0.0
C158 C 0.00921 0.69417 0.25198 0.0
N159 N 0.9501 0.82446 0.38452 0.0
N160 N 0.00962 0.70261 0.11904 0.0
H161 H 0.04183 0.59989 0.29831 0.0
H162 H 0.05455 0.60748 0.2037 0.0
H163 H 0.00875 0.73049 0.0696 0.0
H164 H 0.00693 0.64867 0.11254 0.0
H165 H 0.93561 0.87582 0.38799 0.0
H166 H 0.93514 0.79423 0.42978 0.0
H167 H 0.98957 0.93741 0.31328 0.0
H168 H -0.00545 0.94283 0.21724 0.0
C169 C 0.30079 0.96233 0.30646 0.0
C170 C 0.30037 0.0199 0.3547 0.0
C171 C 0.21562 0.07328 0.28277 0.0
C172 C 0.21402 0.01412 0.23552 0.0
N173 N 0.24115 0.89407 0.21746 0.0
N174 N 0.25156 0.12549 0.39655 0.0
C175 C 0.25299 0.95636 0.25134 0.0
C176 C 0.2556 0.07355 0.34552 0.0
N177 N 0.34685 0.91332 0.31325 0.0
N178 N 0.18265 0.13161 0.2655 0.0
H179 H 0.284 0.13228 0.43938 0.0
H180 H 0.2135 0.15957 0.39939 0.0
H181 H 0.15394 0.13617 0.21964 0.0
H182 H 0.18995 0.17937 0.29141 0.0
H183 H 0.35428 0.8746 0.27436 0.0
H184 H 0.38074 0.91427 0.35522 0.0
H185 H 0.26409 0.84833 0.23112 0.0
H186 H 0.20253 0.88621 0.18223 0.0
C187 C -0.00089 0.73865 0.62399 0.0
C188 C 0.03098 0.68371 0.58806 0.0
C189 C 0.10568 0.6757 0.69104 0.0
C190 C 0.07812 0.73552 0.72303 0.0
N191 N 0.00707 0.83243 0.7121 0.0
N192 N 0.11962 0.60563 0.5815 0.0
C193 C 0.02702 0.76932 0.68745 0.0
C194 C 0.08582 0.65386 0.61988 0.0
N195 N 0.94111 0.76023 0.59875 0.0
N196 N 0.14856 0.63783 0.73 0.0
H197 H 0.10573 0.58763 0.52981 0.0
H198 H 0.16403 0.58758 0.59815 0.0
H199 H 0.16313 0.65103 0.78296 0.0
H200 H 0.16511 0.58982 0.71279 0.0
H201 H 0.91235 0.79478 0.62735 0.0
H202 H 0.91865 0.73865 0.55279 0.0
H203 H 0.97476 0.8628 0.68364 0.0
H204 H 0.02752 0.85797 0.75703 0.0
C205 C 0.31793 0.09958 0.65157 0.0
C206 C 0.33662 0.03473 0.6222 0.0
C207 C 0.29078 0.97366 0.73081 0.0
C208 C 0.27588 0.03901 0.7618 0.0
N209 N 0.29001 0.16445 0.76044 0.0
N210 N 0.35076 0.91137 0.63756 0.0
C211 C 0.29374 0.10209 0.72472 0.0
C212 C 0.32602 0.97202 0.66301 0.0
N213 N 0.32088 0.15853 0.60872 0.0
N214 N 0.26923 0.91339 0.76479 0.0
H215 H 0.37647 0.90859 0.58793 0.0
H216 H 0.35038 0.86523 0.66804 0.0
H217 H 0.24379 0.91283 0.81475 0.0
H218 H 0.27245 0.86431 0.74115 0.0
H219 H 0.30053 0.2052 0.6245 0.0
H220 H 0.33861 0.15964 0.55477 0.0
H221 H 0.30896 0.21127 0.73876 0.0
H222 H 0.27406 0.16864 0.81489 0.0
C223 C 0.89475 0.23922 0.59673 0.0
C224 C 0.93772 0.2981 0.59041 0.0
C225 C 0.971 0.28138 0.71803 0.0
C226 C 0.93179 0.2194 0.72215 0.0
N227 N 0.87001 0.1298 0.65945 0.0
N228 N 0.02767 0.36561 0.63888 0.0
C229 C 0.89783 0.19535 0.65955 0.0
C230 C 0.97924 0.31633 0.64923 0.0
N231 N 0.84919 0.22675 0.54429 0.0
N232 N -0.00229 0.309 0.78019 0.0
H233 H 0.03586 0.3918 0.58897 0.0
H234 H 0.06341 0.37569 0.67751 0.0
H235 H -0.00775 0.28586 0.83204 0.0
H236 H 0.0206 0.35811 0.78144 0.0
H237 H 0.81331 0.18775 0.54928 0.0
H238 H 0.84323 0.25947 0.499 0.0
H239 H 0.85055 0.10686 0.61252 0.0
H240 H 0.8724 0.0956 0.70416 0.0
C241 C 0.69712 0.0538 0.65813 0.0
C242 C 0.66981 0.00306 0.61031 0.0
C243 C 0.67755 0.91273 0.70568 0.0
C244 C 0.7021 0.96397 0.75488 0.0
N245 N 0.73267 0.08359 0.78127 0.0
N246 N 0.62262 0.88809 0.59141 0.0
C247 C 0.71083 0.03479 0.73213 0.0
C248 C 0.65731 0.93341 0.63466 0.0
N249 N 0.71109 0.11964 0.63189 0.0
N250 N 0.67324 0.84417 0.72695 0.0
H251 H 0.60605 0.90129 0.53937 0.0
H252 H 0.60528 0.83924 0.60911 0.0
H253 H 0.68196 0.8272 0.78041 0.0
H254 H 0.66441 0.80329 0.69066 0.0
H255 H 0.73501 0.15857 0.66143 0.0
H256 H 0.70179 0.13489 0.57796 0.0
H257 H 0.73342 0.13708 0.77165 0.0
H258 H 0.74823 0.07099 0.83388 0.0
C259 C 0.28955 0.37785 0.062 0.0
C260 C 0.3099 0.3756 0.13659 0.0
C261 C 0.26832 0.25563 0.14394 0.0
C262 C 0.23338 0.26521 0.07857 0.0
N263 N 0.20719 0.3403 0.97666 0.0
N264 N 0.30624 0.31272 0.25314 0.0
C265 C 0.24304 0.32772 0.03756 0.0
C266 C 0.29622 0.31445 0.17908 0.0
N267 N 0.31639 0.42581 0.01385 0.0
N268 N 0.27879 0.19026 0.16986 0.0
H269 H 0.32111 0.35637 0.28304 0.0
H270 H 0.2925 0.26955 0.28561 0.0
H271 H 0.26255 0.1456 0.1423 0.0
H272 H 0.30934 0.18122 0.21388 0.0
H273 H 0.30631 0.42582 0.95778 0.0
H274 H 0.35437 0.45982 0.02822 0.0
H275 H 0.20891 0.38823 0.9492 0.0
H276 H 0.17165 0.30537 0.95781 0.0
C277 C 0.34604 0.66026 0.08522 0.0
C278 C 0.32397 0.63134 0.15344 0.0
C279 C 0.23063 0.70557 0.15408 0.0
C280 C 0.24865 0.7286 0.08196 0.0
N281 N 0.32181 0.73061 0.97786 0.0
N282 N 0.24953 0.62674 0.25608 0.0
C283 C 0.30649 0.70752 0.04757 0.0
C284 C 0.26804 0.65518 0.18949 0.0
N285 N 0.4043 0.64148 0.05649 0.0
N286 N 0.17771 0.73203 0.18838 0.0
H287 H 0.27852 0.59299 0.28526 0.0
H288 H 0.20531 0.63458 0.28196 0.0
H289 H 0.14707 0.76586 0.16236 0.0
H290 H 0.16536 0.72359 0.24344 0.0
H291 H 0.426 0.66407 0.00986 0.0
H292 H 0.43372 0.60594 0.0823 0.0
H293 H 0.35994 0.71262 0.94625 0.0
H294 H 0.29413 0.76619 0.94948 0.0
C295 C 0.60473 0.29302 0.06103 0.0
C296 C 0.62085 0.321 0.13056 0.0
C297 C 0.71087 0.24506 0.14099 0.0
C298 C 0.69561 0.2158 0.07131 0.0
N299 N 0.61898 0.1991 0.97381 0.0
N300 N 0.67198 0.30617 0.24761 0.0
C301 C 0.63923 0.23541 0.03411 0.0
C302 C 0.66708 0.28964 0.17483 0.0
N303 N 0.55847 0.32348 0.02004 0.0
N304 N 0.77007 0.2368 0.17133 0.0
H305 H 0.64143 0.34079 0.27353 0.0
H306 H 0.70152 0.27974 0.28365 0.0
H307 H 0.80812 0.21553 0.1425 0.0
H308 H 0.78422 0.25951 0.22067 0.0
H309 H 0.54945 0.3108 0.96541 0.0
H310 H 0.53066 0.36362 0.04064 0.0
H311 H 0.57547 0.20772 0.94774 0.0
H312 H 0.64321 0.15609 0.95382 0.0
C313 C 0.67871 0.59124 0.03431 0.0
C314 C 0.68283 0.57046 0.10907 0.0
C315 C 0.77416 0.65274 0.12646 0.0
C316 C 0.7715 0.67182 0.05062 0.0
N317 N 0.73321 0.64584 0.92901 0.0
N318 N 0.7441 0.56763 0.22096 0.0
C319 C 0.72744 0.63665 0.00351 0.0
C320 C 0.73362 0.5969 0.1535 0.0
N321 N 0.62708 0.56939 0.9934 0.0
N322 N 0.81223 0.6901 0.17393 0.0
H323 H 0.71502 0.52716 0.24313 0.0
H324 H 0.7849 0.57921 0.25204 0.0
H325 H 0.84391 0.73053 0.15769 0.0
H326 H 0.80923 0.68407 0.23092 0.0
H327 H 0.61796 0.58865 0.94097 0.0
H328 H 0.59017 0.53636 0.01425 0.0
H329 H 0.7064 0.61691 0.8912 0.0
H330 H 0.76975 0.67736 0.90487 0.0
loop_
_geom_bond_atom_site_label_1
_geom_bond_atom_site_label_2
_geom_bond_distance
_geom_bond_site_symmetry_2
_ccdc_geom_bond_type
H0 C8 0.930 . S
H1 C11 0.930 . S
H2 C13 0.930 . S
H3 C14 0.970 . S
H4 C14 0.970 . S
H5 C16 0.930 . S
H6 C18 0.930 . S
H7 C20 0.930 . S
C8 H0 0.930 . S
C8 C9 1.382 . S
C8 C10 1.426 . S
C9 C8 1.382 . S
C9 C13 1.389 1_655 S
C10 C8 1.426 . S
C10 C11 1.375 . S
C10 C14 1.532 . S
C11 H1 0.930 . S
C11 C10 1.375 . S
C11 C12 1.416 . S
C12 C11 1.416 . S
C12 C13 1.371 1_655 S
C13 H2 0.930 . S
C13 C9 1.389 1_455 S
C13 C12 1.371 1_455 S
C14 H3 0.970 . S
C14 H4 0.970 . S
C14 C10 1.532 . S
C14 C15 1.499 . S
C15 C14 1.499 . S
C15 C16 1.370 . S
C15 C20 1.415 . S
C16 H5 0.930 . S
C16 C15 1.370 . S
C16 C17 1.407 . S
C17 C16 1.407 . S
C17 C18 1.365 1_655 S
C18 H6 0.930 . S
C18 C17 1.365 1_455 S
C18 C19 1.393 1_455 S
C19 C18 1.393 1_655 S
C19 C20 1.387 . S
C20 H7 0.930 . S
C20 C15 1.415 . S
C20 C19 1.387 . S
H21 C29 0.930 . S
H22 C32 0.930 . S
H23 C34 0.930 . S
H24 C35 0.970 . S
H25 C35 0.970 . S
H26 C37 0.930 . S
H27 C39 0.930 . S
H28 C41 0.930 . S
C29 H21 0.930 . S
C29 C30 1.382 . S
C29 C31 1.426 . S
C30 C29 1.382 . S
C30 C34 1.389 1_545 S
C31 C29 1.426 . S
C31 C32 1.375 . S
C31 C35 1.532 . S
C32 H22 0.930 . S
C32 C31 1.375 . S
C32 C33 1.416 . S
C33 C32 1.416 . S
C33 C34 1.371 1_545 S
C34 H23 0.930 . S
C34 C30 1.389 1_565 S
C34 C33 1.371 1_565 S
C35 H24 0.970 . S
C35 H25 0.970 . S
C35 C31 1.532 . S
C35 C36 1.499 . S
C36 C35 1.499 . S
C36 C37 1.370 . S
C36 C41 1.415 . S
C37 H26 0.930 . S
C37 C36 1.370 . S
C37 C38 1.407 . S
C38 C37 1.407 . S
C38 C39 1.365 1_545 S
C39 H27 0.930 . S
C39 C38 1.365 1_565 S
C39 C40 1.393 1_565 S
C40 C39 1.393 1_545 S
C40 C41 1.387 . S
C41 H28 0.930 . S
C41 C36 1.415 . S
C41 C40 1.387 . S
H42 C50 0.930 . S
H43 C53 0.930 . S
H44 C55 0.930 1_556 S
H45 C56 0.970 . S
H46 C56 0.970 . S
H47 C58 0.930 . S
H48 C60 0.930 1_556 S
H49 C62 0.930 . S
C50 H42 0.930 . S
C50 C51 1.382 . S
C50 C52 1.426 . S
C51 C50 1.382 . S
C51 C55 1.389 . S
C52 C50 1.426 . S
C52 C53 1.375 . S
C52 C56 1.532 . S
C53 H43 0.930 . S
C53 C52 1.375 . S
C53 C54 1.416 . S
C54 C53 1.416 . S
C54 C55 1.371 . S
C55 H44 0.930 1_554 S
C55 C51 1.389 . S
C55 C54 1.371 . S
C56 H45 0.970 . S
C56 H46 0.970 . S
C56 C52 1.532 . S
C56 C57 1.499 . S
C57 C56 1.499 . S
C57 C58 1.370 . S
C57 C62 1.415 . S
C58 H47 0.930 . S
C58 C57 1.370 . S
C58 C59 1.407 . S
C59 C58 1.407 . S
C59 C60 1.365 . S
C60 H48 0.930 1_554 S
C60 C59 1.365 . S
C60 C61 1.393 . S
C61 C60 1.393 . S
C61 C62 1.387 . S
C62 H49 0.930 . S
C62 C57 1.415 . S
C62 C61 1.387 . S
Zn63 O65 1.933 1_556 S
Zn63 O83 1.985 . S
Zn63 O94 1.955 . S
Zn64 O65 1.911 . S
Zn64 O84 1.970 . S
Zn64 O100 1.945 . S
Zn64 O107 1.981 . S
O65 Zn63 1.933 1_554 S
O65 Zn64 1.911 . S
O65 H66 0.841 . S
H66 O65 0.841 . S
C67 O68 1.246 . S
C67 O96 1.276 1_455 S
O68 C67 1.246 . S
Zn69 O71 1.911 . S
Zn69 O86 1.970 . S
Zn69 O103 1.945 . S
Zn69 O110 1.981 . S
Zn70 O71 1.933 1_556 S
Zn70 O85 1.985 . S
Zn70 O92 1.955 . S
O71 Zn69 1.911 . S
O71 Zn70 1.933 1_554 S
O71 H72 0.841 . S
H72 O71 0.841 . S
Zn73 O74 1.933 1_556 S
Zn73 O87 1.985 . S
Zn73 O96 1.955 . S
O74 Zn73 1.933 1_554 S
O74 Zn75 1.911 . S
O74 H76 0.841 . S
Zn75 O74 1.911 . S
Zn75 O88 1.970 . S
Zn75 O104 1.981 . S
Zn75 O106 1.945 . S
H76 O74 0.841 . S
Zn77 O78 1.933 1_556 S
Zn77 O90 1.985 . S
Zn77 O98 1.955 . S
O78 Zn77 1.933 1_554 S
O78 H79 0.841 . S
O78 Zn80 1.911 . S
H79 O78 0.841 . S
Zn80 O78 1.911 . S
Zn80 O91 1.970 . S
Zn80 O101 1.981 . S
Zn80 O109 1.945 . S
C81 O82 1.246 . S
C81 O98 1.276 1_655 S
O82 C81 1.246 . S
O83 Zn63 1.985 . S
O83 C93 1.245 1_556 S
O84 Zn64 1.970 . S
O84 C93 1.263 . S
O85 Zn70 1.985 . S
O85 C97 1.245 1_556 S
O86 Zn69 1.970 . S
O86 C97 1.263 . S
O87 Zn73 1.985 . S
O87 C102 1.245 1_556 S
O88 Zn75 1.970 . S
O88 C102 1.263 . S
C89 O100 1.262 . S
C89 O101 1.245 1_545 S
O90 Zn77 1.985 . S
O90 C108 1.245 1_556 S
O91 Zn80 1.970 . S
O91 C108 1.263 . S
O92 Zn70 1.955 . S
O92 C111 1.276 1_565 S
C93 O83 1.245 1_554 S
C93 O84 1.263 . S
O94 Zn63 1.955 . S
O94 C113 1.276 1_545 S
C95 O103 1.264 . S
C95 O104 1.244 1_565 S
O96 C67 1.276 1_655 S
O96 Zn73 1.955 . S
C97 O85 1.245 1_554 S
C97 O86 1.263 . S
O98 Zn77 1.955 . S
O98 C81 1.276 1_455 S
C99 O106 1.265 . S
C99 O107 1.243 1_655 S
O100 Zn64 1.945 . S
O100 C89 1.262 . S
O101 Zn80 1.981 . S
O101 C89 1.245 1_565 S
C102 O87 1.245 1_554 S
C102 O88 1.263 . S
O103 Zn69 1.945 . S
O103 C95 1.264 . S
O104 Zn75 1.981 . S
O104 C95 1.244 1_545 S
C105 O109 1.261 1_655 S
C105 O110 1.245 . S
O106 Zn75 1.945 . S
O106 C99 1.265 . S
O107 Zn64 1.981 . S
O107 C99 1.243 1_455 S
C108 O90 1.245 1_554 S
C108 O91 1.263 . S
O109 Zn80 1.945 . S
O109 C105 1.261 1_455 S
O110 Zn69 1.981 . S
O110 C105 1.245 . S
C111 O92 1.276 1_545 S
C111 O112 1.246 . S
O112 C111 1.246 . S
C113 O94 1.276 1_565 S
C113 O114 1.246 . S
O114 C113 1.246 . S
C115 C116 1.363 . S
C115 C121 1.379 . S
C115 N123 1.356 . S
C116 C115 1.363 . S
C116 C122 1.363 1_655 S
C117 C118 1.363 . S
C117 C122 1.379 . S
C117 N124 1.356 . S
C118 C117 1.363 . S
C118 C121 1.363 1_455 S
N119 C121 1.356 . S
N119 H131 0.984 . S
N119 H132 0.985 . S
N120 C122 1.356 . S
N120 H125 0.984 . S
N120 H126 0.985 . S
C121 C115 1.379 . S
C121 C118 1.363 1_655 S
C121 N119 1.356 . S
C122 C116 1.363 1_455 S
C122 C117 1.379 . S
C122 N120 1.356 . S
N123 C115 1.356 . S
N123 H129 0.984 . S
N123 H130 0.984 . S
N124 C117 1.356 . S
N124 H127 0.984 . S
N124 H128 0.985 . S
H125 N120 0.984 . S
H126 N120 0.985 . S
H127 N124 0.984 . S
H128 N124 0.985 . S
H129 N123 0.984 . S
H130 N123 0.984 . S
H131 N119 0.984 . S
H132 N119 0.985 . S
C133 C134 1.362 1_565 S
C133 C139 1.379 . S
C133 N141 1.356 . S
C134 C133 1.362 1_545 S
C134 C140 1.365 . S
C135 C136 1.363 . S
C135 C140 1.379 . S
C135 N142 1.356 . S
C136 C135 1.363 . S
C136 C139 1.363 1_545 S
N137 C139 1.356 . S
N137 H149 0.984 . S
N137 H150 0.985 . S
N138 C140 1.356 . S
N138 H143 0.984 . S
N138 H144 0.985 . S
C139 C133 1.379 . S
C139 C136 1.363 1_565 S
C139 N137 1.356 . S
C140 C134 1.365 . S
C140 C135 1.379 . S
C140 N138 1.356 . S
N141 C133 1.356 . S
N141 H147 0.984 . S
N141 H148 0.984 . S
N142 C135 1.356 . S
N142 H145 0.984 . S
N142 H146 0.985 . S
H143 N138 0.984 . S
H144 N138 0.985 . S
H145 N142 0.984 . S
H146 N142 0.985 . S
H147 N141 0.984 . S
H148 N141 0.984 . S
H149 N137 0.984 . S
H150 N137 0.985 . S
C151 C152 1.363 1_655 S
C151 C157 1.379 . S
C151 N159 1.356 . S
C152 C151 1.363 1_455 S
C152 C158 1.363 . S
C153 C154 1.363 1_455 S
C153 C158 1.379 . S
C153 N160 1.356 . S
C154 C153 1.363 1_655 S
C154 C157 1.363 . S
N155 C157 1.356 . S
N155 H167 0.984 . S
N155 H168 0.985 . S
N156 C158 1.356 . S
N156 H161 0.984 . S
N156 H162 0.985 . S
C157 C151 1.379 . S
C157 C154 1.363 . S
C157 N155 1.356 . S
C158 C152 1.363 . S
C158 C153 1.379 . S
C158 N156 1.356 . S
N159 C151 1.356 . S
N159 H165 0.984 . S
N159 H166 0.984 . S
N160 C153 1.356 . S
N160 H163 0.984 . S
N160 H164 0.985 . S
H161 N156 0.984 . S
H162 N156 0.985 . S
H163 N160 0.984 . S
H164 N160 0.985 . S
H165 N159 0.984 . S
H166 N159 0.984 . S
H167 N155 0.984 . S
H168 N155 0.985 . S
C169 C170 1.363 1_565 S
C169 C175 1.379 . S
C169 N177 1.356 . S
C170 C169 1.363 1_545 S
C170 C176 1.363 . S
C171 C172 1.363 1_545 S
C171 C176 1.379 . S
C171 N178 1.356 . S
C172 C171 1.363 1_565 S
C172 C175 1.363 . S
N173 C175 1.356 . S
N173 H185 0.984 . S
N173 H186 0.985 . S
N174 C176 1.356 . S
N174 H179 0.984 . S
N174 H180 0.985 . S
C175 C169 1.379 . S
C175 C172 1.363 . S
C175 N173 1.356 . S
C176 C170 1.363 . S
C176 C171 1.379 . S
C176 N174 1.356 . S
N177 C169 1.356 . S
N177 H183 0.984 . S
N177 H184 0.984 . S
N178 C171 1.356 . S
N178 H181 0.984 . S
N178 H182 0.985 . S
H179 N174 0.984 . S
H180 N174 0.985 . S
H181 N178 0.984 . S
H182 N178 0.985 . S
H183 N177 0.984 . S
H184 N177 0.984 . S
H185 N173 0.984 . S
H186 N173 0.985 . S
C187 C188 1.363 . S
C187 C193 1.379 . S
C187 N195 1.356 . S
C188 C187 1.363 . S
C188 C194 1.363 1_655 S
C189 C190 1.363 1_455 S
C189 C194 1.379 . S
C189 N196 1.356 . S
C190 C189 1.363 1_655 S
C190 C193 1.363 . S
N191 C193 1.356 . S
N191 H203 0.984 . S
N191 H204 0.985 . S
N192 C194 1.356 . S
N192 H197 0.984 . S
N192 H198 0.985 . S
C193 C187 1.379 . S
C193 C190 1.363 . S
C193 N191 1.356 . S
C194 C188 1.363 1_455 S
C194 C189 1.379 . S
C194 N192 1.356 . S
N195 C187 1.356 . S
N195 H201 0.984 . S
N195 H202 0.984 . S
N196 C189 1.356 . S
N196 H199 0.984 . S
N196 H200 0.985 . S
H197 N192 0.984 . S
H198 N192 0.985 . S
H199 N196 0.984 . S
H200 N196 0.985 . S
H201 N195 0.984 . S
H202 N195 0.984 . S
H203 N191 0.984 . S
H204 N191 0.985 . S
C205 C206 1.363 1_545 S
C205 C211 1.379 . S
C205 N213 1.356 . S
C206 C205 1.363 1_565 S
C206 C212 1.363 . S
C207 C208 1.363 . S
C207 C212 1.379 . S
C207 N214 1.356 . S
C208 C207 1.363 . S
C208 C211 1.363 1_565 S
N209 C211 1.356 . S
N209 H221 0.984 . S
N209 H222 0.985 . S
N210 C212 1.356 . S
N210 H215 0.984 . S
N210 H216 0.985 . S
C211 C205 1.379 . S
C211 C208 1.363 1_545 S
C211 N209 1.356 . S
C212 C206 1.363 . S
C212 C207 1.379 . S
C212 N210 1.356 . S
N213 C205 1.356 . S
N213 H219 0.984 . S
N213 H220 0.984 . S
N214 C207 1.356 . S
N214 H217 0.984 . S
N214 H218 0.985 . S
H215 N210 0.984 . S
H216 N210 0.985 . S
H217 N214 0.984 . S
H218 N214 0.985 . S
H219 N213 0.984 . S
H220 N213 0.984 . S
H221 N209 0.984 . S
H222 N209 0.985 . S
C223 C224 1.363 1_655 S
C223 C229 1.379 . S
C223 N231 1.356 . S
C224 C223 1.363 1_455 S
C224 C230 1.363 . S
C225 C226 1.363 . S
C225 C230 1.379 . S
C225 N232 1.356 . S
C226 C225 1.363 . S
C226 C229 1.363 1_455 S
N227 C229 1.356 . S
N227 H239 0.984 . S
N227 H240 0.985 . S
N228 C230 1.356 . S
N228 H233 0.984 . S
N228 H234 0.985 . S
C229 C223 1.379 . S
C229 C226 1.363 1_655 S
C229 N227 1.356 . S
C230 C224 1.363 . S
C230 C225 1.379 . S
C230 N228 1.356 . S
N231 C223 1.356 . S
N231 H237 0.984 . S
N231 H238 0.984 . S
N232 C225 1.356 . S
N232 H235 0.984 . S
N232 H236 0.985 . S
H233 N228 0.984 . S
H234 N228 0.985 . S
H235 N232 0.984 . S
H236 N232 0.985 . S
H237 N231 0.984 . S
H238 N231 0.984 . S
H239 N227 0.984 . S
H240 N227 0.985 . S
C241 C242 1.363 . S
C241 C247 1.379 . S
C241 N249 1.356 . S
C242 C241 1.363 . S
C242 C248 1.363 1_545 S
C243 C244 1.363 1_565 S
C243 C248 1.379 . S
C243 N250 1.356 . S
C244 C243 1.363 1_545 S
C244 C247 1.363 . S
N245 C247 1.356 . S
N245 H257 0.984 . S
N245 H258 0.985 . S
N246 C248 1.356 . S
N246 H251 0.984 . S
N246 H252 0.985 . S
C247 C241 1.379 . S
C247 C244 1.363 . S
C247 N245 1.356 . S
C248 C242 1.363 1_565 S
C248 C243 1.379 . S
C248 N246 1.356 . S
N249 C241 1.356 . S
N249 H255 0.984 . S
N249 H256 0.984 . S
N250 C243 1.356 . S
N250 H253 0.984 . S
N250 H254 0.985 . S
H251 N246 0.984 . S
H252 N246 0.985 . S
H253 N250 0.984 . S
H254 N250 0.985 . S
H255 N249 0.984 . S
H256 N249 0.984 . S
H257 N245 0.984 . S
H258 N245 0.985 . S
C259 C260 1.363 1_556 S
C259 C265 1.379 . S
C259 N267 1.356 . S
C260 C259 1.363 1_554 S
C260 C266 1.363 . S
C261 C262 1.363 . S
C261 C266 1.379 . S
C261 N268 1.356 . S
C262 C261 1.363 . S
C262 C265 1.363 1_554 S
N263 C265 1.356 . S
N263 H275 0.984 . S
N263 H276 0.985 . S
N264 C266 1.356 . S
N264 H269 0.984 . S
N264 H270 0.985 . S
C265 C259 1.379 . S
C265 C262 1.363 1_556 S
C265 N263 1.356 . S
C266 C260 1.363 . S
C266 C261 1.379 . S
C266 N264 1.356 . S
N267 C259 1.356 . S
N267 H273 0.984 . S
N267 H274 0.984 . S
N268 C261 1.356 . S
N268 H271 0.984 . S
N268 H272 0.985 . S
H269 N264 0.984 . S
H270 N264 0.985 . S
H271 N268 0.984 . S
H272 N268 0.985 . S
H273 N267 0.984 . S
H274 N267 0.984 . S
H275 N263 0.984 . S
H276 N263 0.985 . S
C277 C278 1.363 1_556 S
C277 C283 1.379 . S
C277 N285 1.356 . S
C278 C277 1.363 1_554 S
C278 C284 1.363 . S
C279 C280 1.363 . S
C279 C284 1.379 . S
C279 N286 1.356 . S
C280 C279 1.363 . S
C280 C283 1.363 1_554 S
N281 C283 1.356 . S
N281 H293 0.984 . S
N281 H294 0.985 . S
N282 C284 1.356 . S
N282 H287 0.984 . S
N282 H288 0.985 . S
C283 C277 1.379 . S
C283 C280 1.363 1_556 S
C283 N281 1.356 . S
C284 C278 1.363 . S
C284 C279 1.379 . S
C284 N282 1.356 . S
N285 C277 1.356 . S
N285 H291 0.984 . S
N285 H292 0.984 . S
N286 C279 1.356 . S
N286 H289 0.984 . S
N286 H290 0.985 . S
H287 N282 0.984 . S
H288 N282 0.985 . S
H289 N286 0.984 . S
H290 N286 0.985 . S
H291 N285 0.984 . S
H292 N285 0.984 . S
H293 N281 0.984 . S
H294 N281 0.985 . S
C295 C296 1.363 1_556 S
C295 C301 1.379 . S
C295 N303 1.356 . S
C296 C295 1.363 1_554 S
C296 C302 1.363 . S
C297 C298 1.363 . S
C297 C302 1.379 . S
C297 N304 1.356 . S
C298 C297 1.363 . S
C298 C301 1.363 1_554 S
N299 C301 1.356 . S
N299 H311 0.984 . S
N299 H312 0.985 . S
N300 C302 1.356 . S
N300 H305 0.984 . S
N300 H306 0.985 . S
C301 C295 1.379 . S
C301 C298 1.363 1_556 S
C301 N299 1.356 . S
C302 C296 1.363 . S
C302 C297 1.379 . S
C302 N300 1.356 . S
N303 C295 1.356 . S
N303 H309 0.984 . S
N303 H310 0.984 . S
N304 C297 1.356 . S
N304 H307 0.984 . S
N304 H308 0.985 . S
H305 N300 0.984 . S
H306 N300 0.985 . S
H307 N304 0.984 . S
H308 N304 0.985 . S
H309 N303 0.984 . S
H310 N303 0.984 . S
H311 N299 0.984 . S
H312 N299 0.985 . S
C313 C314 1.363 1_556 S
C313 C319 1.379 . S
C313 N321 1.356 . S
C314 C313 1.363 1_554 S
C314 C320 1.363 . S
C315 C316 1.363 . S
C315 C320 1.379 . S
C315 N322 1.356 . S
C316 C315 1.363 . S
C316 C319 1.363 1_554 S
N317 C319 1.356 . S
N317 H329 0.984 . S
N317 H330 0.985 . S
N318 C320 1.356 . S
N318 H323 0.984 . S
N318 H324 0.985 . S
C319 C313 1.379 . S
C319 C316 1.363 1_556 S
C319 N317 1.356 . S
C320 C314 1.363 . S
C320 C315 1.379 . S
C320 N318 1.356 . S
N321 C313 1.356 . S
N321 H327 0.984 . S
N321 H328 0.984 . S
N322 C315 1.356 . S
N322 H325 0.984 . S
N322 H326 0.985 . S
H323 N318 0.984 . S
H324 N318 0.985 . S
H325 N322 0.984 . S
H326 N322 0.985 . S
H327 N321 0.984 . S
H328 N321 0.984 . S
H329 N317 0.984 . S
H330 N317 0.985 . S
C118 C99 1.383 1_455 S
C116 C9 1.440 . S
C136 C95 1.649 1_545 S
C134 C38 1.685 . S
C154 C105 1.397 . S
C152 C17 1.426 1_455 S
C172 C89 1.633 1_565 S
C170 C30 1.703 . S
C188 C19 1.507 . S
C190 C81 1.448 . S
C208 C113 1.724 . S
C206 C33 1.785 1_565 S
C224 C12 1.524 1_455 S
C226 C67 1.467 . S
C242 C40 1.779 . S
C244 C111 1.702 . S
C260 C59 1.373 . S
C262 C93 1.392 . S
C278 C61 1.463 . S
C280 C108 1.394 . S
C298 C102 1.400 . S
C296 C51 1.462 . S
C316 C97 1.389 . S
C314 C54 1.360 . S
