# Generated by pormake.
# Topology ftw, (4,12)-cn, num edge types: 1
# Building blocks:
#     Node 0, Type 0, BuildingBlock: AZAVOO_clean_linker_0, # of connection points: 4
#     Node 1, Type 0, BuildingBlock: AZAVOO_clean_linker_0, # of connection points: 4
#     Node 2, Type 0, BuildingBlock: AZAVOO_clean_linker_0, # of connection points: 4
#     Node 3, Type 1, BuildingBlock: EZIPEK_clean_sbu_0, # of connection points: 12
#     Edge 4, Type (0, 1), BuildingBlock: AJUNOK_clean_linker_0, # of connection points: 2
#     Edge 5, Type (0, 1), BuildingBlock: AJUNOK_clean_linker_0, # of connection points: 2
#     Edge 6, Type (0, 1), BuildingBlock: AJUNOK_clean_linker_0, # of connection points: 2
#     Edge 7, Type (0, 1), BuildingBlock: AJUNOK_clean_linker_0, # of connection points: 2
#     Edge 8, Type (0, 1), BuildingBlock: AJUNOK_clean_linker_0, # of connection points: 2
#     Edge 9, Type (0, 1), BuildingBlock: AJUNOK_clean_linker_0, # of connection points: 2
#     Edge 10, Type (0, 1), BuildingBlock: AJUNOK_clean_linker_0, # of connection points: 2
#     Edge 11, Type (0, 1), BuildingBlock: AJUNOK_clean_linker_0, # of connection points: 2
#     Edge 12, Type (0, 1), BuildingBlock: AJUNOK_clean_linker_0, # of connection points: 2
#     Edge 13, Type (0, 1), BuildingBlock: AJUNOK_clean_linker_0, # of connection points: 2
#     Edge 14, Type (0, 1), BuildingBlock: AJUNOK_clean_linker_0, # of connection points: 2
#     Edge 15, Type (0, 1), BuildingBlock: AJUNOK_clean_linker_0, # of connection points: 2
# Relax obj value: 0.060
# Max RMSD: 0.221
# Mean RMSD: 0.172
data_MOF--net-ftw--node1-EZIPEK_clean_sbu_0--node2-AZAVOO_clean_linker_0--edge1-AJUNOK_clean_linker_0
_symmetry_space_group_name_H-M    P1
_symmetry_Int_Tables_number       1
_symmetry_cell_setting            triclinic
loop_
_symmetry_equiv_pos_as_xyz
'x, y, z'
_cell_length_a     22.443001
_cell_length_b     22.422266
_cell_length_c     22.485069
_cell_angle_alpha  91.666799
_cell_angle_beta   88.322889
_cell_angle_gamma 91.720802
loop_
_atom_site_label
_atom_site_type_symbol
_atom_site_fract_x
_atom_site_fract_y
_atom_site_fract_z
_atom_type_partial_charge
H0 H 0.04601 0.11289 0.44407 0.0
H1 H 0.94393 0.62255 0.88773 0.0
H2 H 0.10532 0.45622 0.3826 0.0
H3 H 0.10616 0.3768 0.30557 0.0
H4 H 0.91367 0.3757 0.30543 0.0
H5 H 0.91347 0.45621 0.38081 0.0
H6 H 0.09954 0.36744 0.48633 0.0
H7 H 0.09556 0.25932 0.46716 0.0
H8 H 0.90427 0.26473 0.45104 0.0
H9 H 0.9088 0.37256 0.47183 0.0
H10 H 0.10194 0.41284 0.60413 0.0
H11 H 0.10045 0.33686 0.68077 0.0
H12 H 0.90784 0.33484 0.68566 0.0
H13 H 0.9097 0.41073 0.60897 0.0
H14 H 0.10101 0.54324 0.6428 0.0
H15 H 0.09809 0.57532 0.74793 0.0
H16 H 0.9054 0.57381 0.74618 0.0
H17 H 0.90908 0.54124 0.64129 0.0
H18 H 0.10085 0.63971 0.55445 0.0
H19 H 0.09493 0.71705 0.63326 0.0
H20 H 0.90266 0.70449 0.6293 0.0
H21 H 0.9092 0.62924 0.54926 0.0
H22 H 0.10051 0.62047 0.42975 0.0
H23 H 0.10186 0.69525 0.35228 0.0
H24 H 0.91747 0.65058 0.31698 0.0
H25 H 0.91699 0.57483 0.39368 0.0
O26 O 0.04661 0.15568 0.45119 0.0
O27 O 0.95016 0.16236 0.43314 0.0
O28 O 0.04536 0.6066 0.84581 0.0
O29 O 0.94633 0.60858 0.84662 0.0
C30 C 0.00761 0.48538 0.4495 0.0
C31 C 0.00669 0.44278 0.49477 0.0
C32 C 0.00693 0.46152 0.55473 0.0
C33 C 0.00722 0.52238 0.57041 0.0
C34 C 0.00777 0.56556 0.52566 0.0
C35 C 0.00801 0.54727 0.46468 0.0
C36 C 0.00934 0.46221 0.38717 0.0
C37 C 0.06356 0.44117 0.36345 0.0
C38 C 0.06384 0.39454 0.32078 0.0
C39 C 0.00987 0.36828 0.30143 0.0
C40 C 0.956 0.39451 0.31994 0.0
C41 C 0.95579 0.44136 0.3623 0.0
C42 C 0.00454 0.37771 0.4799 0.0
C43 C 0.0569 0.34512 0.47849 0.0
C44 C 0.05444 0.28342 0.46769 0.0
C45 C 0.99959 0.25339 0.45754 0.0
C46 C 0.94725 0.28647 0.45852 0.0
C47 C 0.9497 0.34803 0.47016 0.0
C48 C 0.00593 0.41689 0.60156 0.0
C49 C 0.05957 0.39596 0.62201 0.0
C50 C 0.05865 0.35276 0.66534 0.0
C51 C 0.00405 0.3307 0.68895 0.0
C52 C 0.95038 0.35198 0.66846 0.0
C53 C 0.95134 0.39488 0.62483 0.0
C54 C 0.0053 0.54066 0.6345 0.0
C55 C 0.05828 0.54974 0.66536 0.0
C56 C 0.05644 0.568 0.72532 0.0
C57 C 1.00147 0.57739 0.7554 0.0
C58 C 0.94845 0.56722 0.72437 0.0
C59 C 0.95038 0.54867 0.6645 0.0
C60 C 0.00546 0.62897 0.54584 0.0
C61 C 0.05761 0.65661 0.56779 0.0
C62 C 0.05408 0.69965 0.61396 0.0
C63 C 0.99835 0.716 0.63842 0.0
C64 C 0.94632 0.69348 0.61124 0.0
C65 C 0.94994 0.65086 0.56473 0.0
C66 C 0.00864 0.59231 0.41749 0.0
C67 C 0.06041 0.6269 0.40532 0.0
C68 C 0.06095 0.66985 0.3613 0.0
C69 C 0.00946 0.67952 0.32901 0.0
C70 C 0.95786 0.64413 0.3409 0.0
C71 C 0.95747 0.60098 0.38477 0.0
C72 C 0.99706 0.18779 0.44646 0.0
C73 C 0.99929 0.59826 0.81867 0.0
H74 H 0.58078 0.97118 0.11469 0.0
H75 H 0.11175 0.06897 0.5427 0.0
H76 H 0.62338 0.92491 0.45381 0.0
H77 H 0.70019 0.92088 0.3752 0.0
H78 H 0.72338 0.11268 0.38788 0.0
H79 H 0.64487 0.11639 0.46581 0.0
H80 H 0.53311 0.93055 0.36773 0.0
H81 H 0.55363 0.92926 0.26014 0.0
H82 H 0.56713 0.12214 0.26531 0.0
H83 H 0.54832 0.12258 0.37313 0.0
H84 H 0.39698 0.9333 0.41878 0.0
H85 H 0.32103 0.93052 0.34227 0.0
H86 H 0.35095 0.11943 0.31719 0.0
H87 H 0.42639 0.12204 0.39425 0.0
H88 H 0.37275 0.93496 0.54951 0.0
H89 H 0.26413 0.93054 0.56282 0.0
H90 H 0.25878 0.11895 0.52804 0.0
H91 H 0.36762 0.12293 0.51609 0.0
H92 H 0.46458 0.93651 0.63539 0.0
H93 H 0.38299 0.93225 0.70974 0.0
H94 H 0.36648 0.12323 0.70215 0.0
H95 H 0.44751 0.12691 0.62701 0.0
H96 H 0.62556 0.93696 0.56489 0.0
H97 H 0.70109 0.93189 0.6411 0.0
H98 H 0.64392 0.09969 0.71802 0.0
H99 H 0.57066 0.1067 0.63957 0.0
O100 O 0.57453 0.9726 0.15748 0.0
O101 O 0.57694 0.07182 0.16203 0.0
O102 O 0.16039 0.97497 0.56466 0.0
O103 O 0.15488 0.06987 0.53972 0.0
C104 C 0.56562 0.02495 0.487 0.0
C105 C 0.5225 0.02744 0.44246 0.0
C106 C 0.46183 0.02934 0.45827 0.0
C107 C 0.44321 0.03037 0.51823 0.0
C108 C 0.48578 0.03024 0.56352 0.0
C109 C 0.54765 0.02626 0.54834 0.0
C110 C 0.6286 0.0209 0.46596 0.0
C111 C 0.64742 0.96578 0.44226 0.0
C112 C 0.69066 0.96368 0.39639 0.0
C113 C 0.71612 0.01669 0.37378 0.0
C114 C 0.70287 0.07126 0.40293 0.0
C115 C 0.65929 0.07334 0.44872 0.0
C116 C 0.54005 0.02659 0.37814 0.0
C117 C 0.54154 0.97236 0.3456 0.0
C118 C 0.55292 0.97181 0.28415 0.0
C119 C 0.56189 0.02562 0.25408 0.0
C120 C 0.56046 0.0799 0.28707 0.0
C121 C 0.55002 0.08031 0.34863 0.0
C122 C 0.41701 0.02779 0.41144 0.0
C123 C 0.38703 0.97396 0.39664 0.0
C124 C 0.34385 0.97247 0.35334 0.0
C125 C 0.33087 0.02469 0.32399 0.0
C126 C 0.36101 0.07856 0.3389 0.0
C127 C 0.40379 0.08013 0.38263 0.0
C128 C 0.37802 0.02941 0.53267 0.0
C129 C 0.34811 0.97546 0.54603 0.0
C130 C 0.28605 0.97297 0.55309 0.0
C131 C 0.25272 0.02431 0.54597 0.0
C132 C 0.28304 0.07853 0.53347 0.0
C133 C 0.34517 0.08104 0.52698 0.0
C134 C 0.46202 0.03195 0.62569 0.0
C135 C 0.44564 0.97782 0.65213 0.0
C136 C 0.39814 0.97537 0.69374 0.0
C137 C 0.36676 0.02713 0.7097 0.0
C138 C 0.38836 0.08235 0.68889 0.0
C139 C 0.43585 0.08475 0.64733 0.0
C140 C 0.59267 0.02261 0.59573 0.0
C141 C 0.62991 0.97335 0.59729 0.0
C142 C 0.67274 0.97016 0.6411 0.0
C143 C 0.67815 0.01539 0.68524 0.0
C144 C 0.64038 0.06419 0.68449 0.0
C145 C 0.59842 0.06803 0.63984 0.0
C146 C 0.57173 0.02499 0.18849 0.0
C147 C 0.1866 0.02132 0.55077 0.0
H148 H 0.40662 0.12284 0.93422 0.0
H149 H 0.87905 0.63564 0.0786 0.0
H150 H 0.38658 0.45601 0.90518 0.0
H151 H 0.31209 0.37472 0.89903 0.0
H152 H 0.29756 0.37373 0.09092 0.0
H153 H 0.37339 0.45436 0.09659 0.0
H154 H 0.48019 0.37307 0.90502 0.0
H155 H 0.45176 0.26682 0.89898 0.0
H156 H 0.44553 0.26209 0.09123 0.0
H157 H 0.47371 0.36848 0.09649 0.0
H158 H 0.60426 0.40876 0.91189 0.0
H159 H 0.6815 0.33346 0.91016 0.0
H160 H 0.68411 0.34329 0.10224 0.0
H161 H 0.607 0.41885 0.10357 0.0
H162 H 0.64504 0.54358 0.92002 0.0
H163 H 0.74927 0.57882 0.92365 0.0
H164 H 0.73702 0.58198 0.11602 0.0
H165 H 0.63306 0.54606 0.11162 0.0
H166 H 0.55041 0.63785 0.92061 0.0
H167 H 0.62842 0.71636 0.92408 0.0
H168 H 0.62437 0.71007 0.11601 0.0
H169 H 0.54488 0.63399 0.112 0.0
H170 H 0.39618 0.57625 0.91444 0.0
H171 H 0.31787 0.65013 0.91187 0.0
H172 H 0.34174 0.69245 0.0983 0.0
H173 H 0.42002 0.61815 0.10065 0.0
O174 O 0.41881 0.16454 0.93756 0.0
O175 O 0.42054 0.16345 0.03635 0.0
O176 O 0.84341 0.61472 0.97695 0.0
O177 O 0.83851 0.62003 0.07589 0.0
C178 C 0.44731 0.48548 0.00457 0.0
C179 C 0.4931 0.4434 0.00466 0.0
C180 C 0.55282 0.46272 0.00872 0.0
C181 C 0.56767 0.52377 0.01298 0.0
C182 C 0.52235 0.56646 0.01315 0.0
C183 C 0.46168 0.5475 0.00877 0.0
C184 C 0.38516 0.46156 1.00131 0.0
C185 C 0.36475 0.4408 0.94584 0.0
C186 C 0.3227 0.39361 0.94244 0.0
C187 C 0.29969 0.36718 0.99457 0.0
C188 C 0.3153 0.39262 0.05005 0.0
C189 C 0.35748 0.43971 0.05338 0.0
C190 C 0.47846 0.37833 1.00115 0.0
C191 C 0.47281 0.34887 0.9457 0.0
C192 C 0.45651 0.28826 0.94243 0.0
C193 C 0.44614 0.25601 0.99463 0.0
C194 C 0.4531 0.28561 0.05017 0.0
C195 C 0.46923 0.34627 0.05335 0.0
C196 C 0.60024 0.41861 0.00784 0.0
C197 C 0.62166 0.39455 0.95346 0.0
C198 C 0.66536 0.35168 0.95258 0.0
C199 C 0.68798 0.33251 0.00613 0.0
C200 C 0.66723 0.35764 0.06049 0.0
C201 C 0.62336 0.40039 0.06134 0.0
C202 C 0.63154 0.54298 0.01554 0.0
C203 C 0.66514 0.55164 0.96284 0.0
C204 C 0.72458 0.57177 0.96508 0.0
C205 C 0.75138 0.58359 0.02017 0.0
C206 C 0.71773 0.5736 0.07289 0.0
C207 C 0.6584 0.55309 0.07055 0.0
C208 C 0.54175 0.63024 0.01606 0.0
C209 C 0.56349 0.65639 0.96348 0.0
C210 C 0.60923 0.70014 0.96553 0.0
C211 C 0.63358 0.71861 0.02023 0.0
C212 C 0.60641 0.69758 0.07311 0.0
C213 C 0.56023 0.65438 0.07099 0.0
C214 C 0.41395 0.59191 0.00767 0.0
C215 C 0.38443 0.60135 0.95476 0.0
C216 C 0.33997 0.64372 0.95329 0.0
C217 C 0.32407 0.67734 0.00481 0.0
C218 C 0.35304 0.66709 0.05802 0.0
C219 C 0.39787 0.62497 0.05934 0.0
C220 C 0.4278 0.1919 0.99101 0.0
C221 C 0.8139 0.60689 0.02279 0.0
C222 C 0.00425 0.14831 0.8652 0.0
C223 C 0.00562 0.1538 0.14995 0.0
C224 C 0.99557 0.86183 0.85614 0.0
C225 C 0.00534 0.86193 0.14778 0.0
C226 C 0.14417 0.85975 1.00063 0.0
C227 C 0.14922 0.15217 0.99682 0.0
C228 C 0.85276 0.8634 0.01555 0.0
C229 C 0.86341 0.14886 0.009 0.0
C230 C 0.86415 0.00579 0.15772 0.0
C231 C 0.15015 0.01243 0.14526 0.0
C232 C 0.8592 0.00417 0.86672 0.0
C233 C 0.1522 0.0073 0.86067 0.0
Eu234 Eu 0.00609 0.11706 0.00754 0.0
O235 O 0.05948 0.06 0.05841 0.0
O236 O 0.95231 0.05697 0.95531 0.0
Eu237 Eu 0.11693 0.00575 0.0031 0.0
Eu238 Eu 0.89192 0.00561 0.01069 0.0
O239 O 0.05862 0.05772 0.9527 0.0
O240 O 0.95264 0.05913 0.06289 0.0
Eu241 Eu 0.00507 0.0047 0.89316 0.0
Eu242 Eu 0.00614 0.00711 0.11862 0.0
O243 O 0.05574 0.9512 0.95054 0.0
O244 O 0.05528 0.95239 0.05544 0.0
O245 O 0.95133 0.95304 0.05942 0.0
O246 O 0.95001 0.95216 0.95395 0.0
Eu247 Eu 1.00013 0.89086 0.00317 0.0
O248 O 0.0039 0.16646 0.92206 0.0
O249 O 0.00592 0.16955 0.09347 0.0
O250 O 0.99619 0.84172 0.91181 0.0
O251 O 1.00086 0.84254 0.09111 0.0
O252 O 0.16391 0.91671 1.00009 0.0
O253 O 0.16817 0.09608 0.99863 0.0
O254 O 0.83834 0.9204 0.016 0.0
O255 O 0.84374 0.09228 0.00959 0.0
O256 O 0.92085 1.00271 0.17241 0.0
O257 O 0.09375 0.0113 0.16555 0.0
O258 O 0.91605 0.00546 0.84679 0.0
O259 O 0.09586 0.00795 0.84208 0.0
O260 O 0.90815 0.84261 0.00941 0.0
O261 O 0.08702 0.84107 1.00203 0.0
O262 O 0.92034 0.16734 0.0097 0.0
O263 O 0.09277 0.16836 1.0008 0.0
O264 O 0.00629 0.09773 0.16907 0.0
O265 O 0.00805 0.91919 0.16611 0.0
O266 O 0.00607 0.09186 0.84512 0.0
O267 O 0.99993 0.91862 0.84087 0.0
O268 O 0.16813 0.00519 0.9169 0.0
O269 O 0.1677 0.00993 0.08818 0.0
O270 O 0.84173 1.00297 0.92408 0.0
O271 O 0.84415 0.00961 0.10238 0.0
C272 C 0.97191 0.30643 0.21551 0.0
C273 C 0.00893 0.31193 0.26477 0.0
C274 C 0.96957 0.25396 0.18041 0.0
C275 C 1.00366 0.20448 0.19335 0.0
H276 H 0.94536 0.34345 0.20318 0.0
H277 H 0.94135 0.25245 0.1421 0.0
S278 S 0.10637 0.1947 0.3183 0.0
N279 N 0.07934 0.26232 0.32585 0.0
N280 N 0.07474 0.16357 0.2592 0.0
C281 C 0.03973 0.20848 0.24322 0.0
C282 C 0.04261 0.26232 0.2789 0.0
C283 C 0.79684 0.97186 0.30925 0.0
C284 C 0.75259 0.01463 0.31743 0.0
C285 C 0.83084 0.96783 0.25619 0.0
C286 C 0.82137 0.00573 0.20877 0.0
H287 H 0.80608 0.94196 0.34461 0.0
H288 H 0.86557 0.93524 0.25256 0.0
S289 S 0.71054 0.12449 0.20646 0.0
N290 N 0.70052 0.09515 0.27269 0.0
N291 N 0.76457 0.0869 0.17273 0.0
C292 C 0.77652 0.04771 0.21548 0.0
C293 C 0.74227 0.05249 0.26995 0.0
C294 C 0.98614 0.71368 0.22672 0.0
C295 C 0.00929 0.72659 0.28336 0.0
C296 C 0.98553 0.75735 0.1831 0.0
C297 C 0.00742 0.81605 0.19449 0.0
H298 H 0.96881 0.66923 0.21576 0.0
H299 H 0.96707 0.74502 0.14035 0.0
S300 S 0.07231 0.87296 0.33628 0.0
N301 N 0.05392 0.80252 0.34878 0.0
N302 N 0.05349 0.88423 0.2672 0.0
C303 C 0.03065 0.82947 0.25114 0.0
C304 C 0.03148 0.78492 0.29535 0.0
C305 C 0.22764 1.00109 0.29159 0.0
C306 C 0.28559 0.02277 0.27795 0.0
C307 C 0.18398 0.9985 0.24847 0.0
C308 C 0.19706 0.01665 0.18999 0.0
H309 H 0.21592 0.98645 0.33605 0.0
H310 H 0.13987 0.98152 0.26101 0.0
S311 S 0.34288 0.07723 0.13263 0.0
N312 N 0.35434 0.06291 0.20291 0.0
N313 N 0.27241 0.05817 0.12131 0.0
C314 C 0.2551 0.03861 0.17599 0.0
C315 C 0.29934 0.0417 0.22016 0.0
C316 C 0.02948 0.73732 0.74376 0.0
C317 C 0.99453 0.75174 0.69523 0.0
C318 C 0.02678 0.7703 0.7979 0.0
C319 C 0.98954 0.81931 0.80503 0.0
H320 H 0.05961 0.70052 0.73972 0.0
H321 H 0.05596 0.75913 0.83321 0.0
S322 S 0.88723 0.87423 0.69324 0.0
N323 N 0.92032 0.81751 0.65911 0.0
N324 N 0.91476 0.87894 0.76055 0.0
C325 C 0.95304 0.83299 0.75765 0.0
C326 C 0.95566 0.79944 0.70284 0.0
C327 C 0.30908 0.98923 0.79782 0.0
C328 C 0.31048 0.02255 0.74604 0.0
C329 C 0.25704 0.98355 0.83297 0.0
C330 C 0.2034 0.00948 0.8174 0.0
H331 H 0.34902 0.96855 0.81223 0.0
H332 H 0.25946 0.95971 0.87378 0.0
S333 S 0.18345 0.10274 0.68664 0.0
N334 N 0.25385 0.0832 0.68094 0.0
N335 N 0.15535 0.07108 0.74708 0.0
C336 C 0.20374 0.04244 0.76531 0.0
C337 C 0.25742 0.04939 0.72977 0.0
C338 C 0.03264 0.23119 0.72278 0.0
C339 C 1.00321 0.28486 0.73443 0.0
C340 C 0.032 0.18671 0.76511 0.0
C341 C 1.00281 0.19502 0.82075 0.0
H342 H 0.05581 0.22335 0.68043 0.0
H343 H 0.0552 0.14595 0.75447 0.0
S344 S 0.91882 0.32787 0.87238 0.0
N345 N 0.94389 0.34411 0.80481 0.0
N346 N 0.94278 0.26058 0.88483 0.0
C347 C 0.9732 0.24863 0.83287 0.0
C348 C 0.97333 0.29356 0.78951 0.0
C349 C 0.78436 0.01517 0.71685 0.0
C350 C 0.72323 0.01161 0.732 0.0
C351 C 0.82769 0.01259 0.76053 0.0
C352 C 0.81175 0.00539 0.82121 0.0
H353 H 0.79878 0.0208 0.67089 0.0
H354 H 0.87413 0.01653 0.74631 0.0
S355 S 0.65636 0.98851 0.88239 0.0
N356 N 0.64832 0.99797 0.81056 0.0
N357 N 0.72894 0.99133 0.89276 0.0
C358 C 0.75024 1.00032 0.83643 0.0
C359 C 0.70628 0.00386 0.79187 0.0
C360 C 0.27767 0.26185 0.02603 0.0
C361 C 0.26333 0.31064 0.99131 0.0
C362 C 0.24309 0.20847 0.02493 0.0
C363 C 0.19271 0.20243 0.98945 0.0
H364 H 0.31557 0.26521 0.0548 0.0
H365 H 0.2542 0.17299 0.05398 0.0
S366 S 0.13837 0.31476 0.88721 0.0
N367 N 0.19684 0.34781 0.91838 0.0
N368 N 0.13251 0.24775 0.9157 0.0
C369 C 0.17942 0.24986 0.95274 0.0
C370 C 0.21453 0.3039 0.95379 0.0
C371 C 0.2289 0.7234 0.04308 0.0
C372 C 0.27815 0.7238 0.00277 0.0
C373 C 0.18508 0.76689 0.04144 0.0
C374 C 0.18971 0.81312 1.00037 0.0
H375 H 0.22394 0.68887 0.07572 0.0
H376 H 0.14788 0.76496 0.07323 0.0
S377 S 0.30934 0.83375 0.88499 0.0
N378 N 0.32838 0.77394 0.92025 0.0
N379 N 0.24652 0.85561 0.91772 0.0
C380 C 0.23862 0.81391 0.95998 0.0
C381 C 0.28266 0.76927 0.96099 0.0
C382 C 0.78641 0.29548 0.03479 0.0
C383 C 0.73244 0.28548 0.00551 0.0
C384 C 0.82895 0.25116 0.03514 0.0
C385 C 0.81835 0.19509 0.00716 0.0
H386 H 0.79593 0.338 0.05718 0.0
H387 H 0.87002 0.26063 0.05818 0.0
S388 S 0.68416 0.14757 0.92343 0.0
N389 N 0.67068 0.21629 0.9473 0.0
N390 N 0.75058 0.13267 0.94792 0.0
C391 C 0.76455 0.18472 0.97752 0.0
C392 C 0.7216 0.23007 0.97665 0.0
C393 C 0.73885 0.73936 0.98302 0.0
C394 C 0.69056 0.75452 0.02173 0.0
C395 C 0.7933 0.77207 0.98367 0.0
C396 C 0.80108 0.8215 0.02265 0.0
H397 H 0.73448 0.70206 0.95165 0.0
H398 H 0.8284 0.76023 0.95177 0.0
S399 S 0.69051 0.87835 0.13492 0.0
N400 N 0.65551 0.82159 0.10133 0.0
N401 N 0.75768 0.88224 0.10315 0.0
C402 C 0.75401 0.83596 0.06283 0.0
C403 C 0.69882 0.80277 0.06223 0.0
loop_
_geom_bond_atom_site_label_1
_geom_bond_atom_site_label_2
_geom_bond_distance
_geom_bond_site_symmetry_2
_ccdc_geom_bond_type
H0 O26 0.856 . S
H1 O29 0.854 . S
H2 C37 0.930 . S
H3 C38 0.930 . S
H4 C40 0.930 . S
H5 C41 0.930 . S
H6 C43 0.931 . S
H7 C44 0.930 . S
H8 C46 0.930 . S
H9 C47 0.929 . S
H10 C49 0.930 . S
H11 C50 0.931 . S
H12 C52 0.930 . S
H13 C53 0.929 . S
H14 C55 0.931 . S
H15 C56 0.930 . S
H16 C58 0.930 . S
H17 C59 0.932 . S
H18 C61 0.930 . S
H19 C62 0.929 . S
H20 C64 0.931 . S
H21 C65 0.930 . S
H22 C67 0.929 . S
H23 C68 0.931 . S
H24 C70 0.930 . S
H25 C71 0.929 . S
O26 H0 0.856 . S
O26 C72 1.300 1_455 S
O27 C72 1.209 . S
O28 C73 1.199 1_455 S
O29 H1 0.854 . S
O29 C73 1.297 . S
C30 C31 1.404 . S
C30 C35 1.397 1_655 S
C30 C36 1.492 1_655 S
C31 C30 1.404 . S
C31 C32 1.396 . S
C31 C42 1.492 . S
C32 C31 1.396 . S
C32 C33 1.397 . S
C32 C48 1.509 . S
C33 C32 1.397 . S
C33 C34 1.413 . S
C33 C54 1.485 . S
C34 C33 1.413 . S
C34 C35 1.389 1_655 S
C34 C60 1.490 1_655 S
C35 C30 1.397 1_455 S
C35 C34 1.389 1_455 S
C35 C66 1.518 1_455 S
C36 C30 1.492 1_455 S
C36 C37 1.363 . S
C36 C41 1.390 1_455 S
C37 H2 0.930 . S
C37 C36 1.363 . S
C37 C38 1.372 . S
C38 H3 0.930 . S
C38 C37 1.372 . S
C38 C39 1.383 . S
C39 C38 1.383 . S
C39 C40 1.395 1_455 S
C40 H4 0.930 . S
C40 C39 1.395 1_655 S
C40 C41 1.362 . S
C41 H5 0.930 . S
C41 C36 1.390 1_655 S
C41 C40 1.362 . S
C42 C31 1.492 . S
C42 C43 1.377 1_655 S
C42 C47 1.397 . S
C43 H6 0.931 . S
C43 C42 1.377 1_455 S
C43 C44 1.376 . S
C44 H7 0.930 . S
C44 C43 1.376 . S
C44 C45 1.376 1_455 S
C45 C44 1.376 1_655 S
C45 C46 1.378 . S
C45 C72 1.486 . S
C46 H8 0.930 . S
C46 C45 1.378 . S
C46 C47 1.376 . S
C47 H9 0.929 . S
C47 C42 1.397 . S
C47 C46 1.376 . S
C48 C32 1.509 . S
C48 C49 1.391 1_655 S
C48 C53 1.386 . S
C49 H10 0.930 . S
C49 C48 1.391 1_455 S
C49 C50 1.375 . S
C50 H11 0.931 . S
C50 C49 1.375 . S
C50 C51 1.375 1_455 S
C51 C50 1.375 1_655 S
C51 C52 1.361 . S
C52 H12 0.930 . S
C52 C51 1.361 . S
C52 C53 1.399 . S
C53 H13 0.929 . S
C53 C48 1.386 . S
C53 C52 1.399 . S
C54 C33 1.485 . S
C54 C55 1.394 1_655 S
C54 C59 1.360 . S
C55 H14 0.931 . S
C55 C54 1.394 1_455 S
C55 C56 1.372 . S
C56 H15 0.930 . S
C56 C55 1.372 . S
C56 C57 1.397 1_455 S
C57 C56 1.397 1_655 S
C57 C58 1.390 . S
C57 C73 1.476 . S
C58 H16 0.930 . S
C58 C57 1.390 . S
C58 C59 1.366 . S
C59 H17 0.932 . S
C59 C54 1.360 . S
C59 C58 1.366 . S
C60 C34 1.490 1_455 S
C60 C61 1.380 . S
C60 C65 1.386 1_455 S
C61 H18 0.930 . S
C61 C60 1.380 . S
C61 C62 1.381 . S
C62 H19 0.929 . S
C62 C61 1.381 . S
C62 C63 1.371 . S
C63 C62 1.371 . S
C63 C64 1.380 1_455 S
C64 H20 0.931 . S
C64 C63 1.380 1_655 S
C64 C65 1.387 . S
C65 H21 0.930 . S
C65 C60 1.386 1_655 S
C65 C64 1.387 . S
C66 C35 1.518 1_655 S
C66 C67 1.377 1_655 S
C66 C71 1.361 . S
C67 H22 0.929 . S
C67 C66 1.377 1_455 S
C67 C68 1.386 . S
C68 H23 0.931 . S
C68 C67 1.386 . S
C68 C69 1.363 1_455 S
C69 C68 1.363 1_655 S
C69 C70 1.385 . S
C70 H24 0.930 . S
C70 C69 1.385 . S
C70 C71 1.396 . S
C71 H25 0.929 . S
C71 C66 1.361 . S
C71 C70 1.396 . S
C72 O26 1.300 1_655 S
C72 O27 1.209 . S
C72 C45 1.486 . S
C73 O28 1.199 1_655 S
C73 O29 1.297 . S
C73 C57 1.476 . S
H74 O100 0.856 1_545 S
H75 O103 0.854 . S
H76 C111 0.930 . S
H77 C112 0.930 . S
H78 C114 0.930 . S
H79 C115 0.930 . S
H80 C117 0.931 . S
H81 C118 0.930 . S
H82 C120 0.930 . S
H83 C121 0.929 . S
H84 C123 0.930 . S
H85 C124 0.931 . S
H86 C126 0.930 . S
H87 C127 0.929 . S
H88 C129 0.931 . S
H89 C130 0.930 . S
H90 C132 0.930 . S
H91 C133 0.932 . S
H92 C135 0.930 . S
H93 C136 0.929 . S
H94 C138 0.931 . S
H95 C139 0.930 . S
H96 C141 0.929 . S
H97 C142 0.931 . S
H98 C144 0.930 . S
H99 C145 0.929 . S
O100 H74 0.856 1_565 S
O100 C146 1.300 1_565 S
O101 C146 1.209 . S
O102 C147 1.199 1_565 S
O103 H75 0.854 . S
O103 C147 1.297 . S
C104 C105 1.404 . S
C104 C109 1.397 . S
C104 C110 1.492 . S
C105 C104 1.404 . S
C105 C106 1.396 . S
C105 C116 1.492 . S
C106 C105 1.396 . S
C106 C107 1.397 . S
C106 C122 1.509 . S
C107 C106 1.397 . S
C107 C108 1.412 . S
C107 C128 1.485 . S
C108 C107 1.412 . S
C108 C109 1.388 . S
C108 C134 1.490 . S
C109 C104 1.397 . S
C109 C108 1.388 . S
C109 C140 1.519 . S
C110 C104 1.492 . S
C110 C111 1.363 1_545 S
C110 C115 1.390 . S
C111 H76 0.930 . S
C111 C110 1.363 1_565 S
C111 C112 1.372 . S
C112 H77 0.930 . S
C112 C111 1.372 . S
C112 C113 1.383 . S
C113 C112 1.383 . S
C113 C114 1.395 1_565 S
C114 H78 0.930 . S
C114 C113 1.395 1_545 S
C114 C115 1.362 . S
C115 H79 0.930 . S
C115 C110 1.390 . S
C115 C114 1.362 . S
C116 C105 1.492 . S
C116 C117 1.377 1_545 S
C116 C121 1.397 . S
C117 H80 0.931 . S
C117 C116 1.377 1_565 S
C117 C118 1.376 . S
C118 H81 0.930 . S
C118 C117 1.376 . S
C118 C119 1.376 1_565 S
C119 C118 1.376 1_545 S
C119 C120 1.378 . S
C119 C146 1.486 . S
C120 H82 0.930 . S
C120 C119 1.378 . S
C120 C121 1.376 . S
C121 H83 0.929 . S
C121 C116 1.397 . S
C121 C120 1.376 . S
C122 C106 1.509 . S
C122 C123 1.391 1_545 S
C122 C127 1.386 . S
C123 H84 0.930 . S
C123 C122 1.391 1_565 S
C123 C124 1.375 . S
C124 H85 0.931 . S
C124 C123 1.375 . S
C124 C125 1.375 1_565 S
C125 C124 1.375 1_545 S
C125 C126 1.361 . S
C126 H86 0.930 . S
C126 C125 1.361 . S
C126 C127 1.399 . S
C127 H87 0.929 . S
C127 C122 1.386 . S
C127 C126 1.399 . S
C128 C107 1.485 . S
C128 C129 1.394 1_545 S
C128 C133 1.360 . S
C129 H88 0.931 . S
C129 C128 1.394 1_565 S
C129 C130 1.372 . S
C130 H89 0.930 . S
C130 C129 1.372 . S
C130 C131 1.397 1_565 S
C131 C130 1.397 1_545 S
C131 C132 1.390 . S
C131 C147 1.476 . S
C132 H90 0.930 . S
C132 C131 1.390 . S
C132 C133 1.366 . S
C133 H91 0.932 . S
C133 C128 1.360 . S
C133 C132 1.366 . S
C134 C108 1.490 . S
C134 C135 1.380 1_545 S
C134 C139 1.386 . S
C135 H92 0.930 . S
C135 C134 1.380 1_565 S
C135 C136 1.381 . S
C136 H93 0.929 . S
C136 C135 1.381 . S
C136 C137 1.371 . S
C137 C136 1.371 . S
C137 C138 1.380 1_565 S
C138 H94 0.931 . S
C138 C137 1.380 1_545 S
C138 C139 1.387 . S
C139 H95 0.930 . S
C139 C134 1.386 . S
C139 C138 1.387 . S
C140 C109 1.519 . S
C140 C141 1.377 1_545 S
C140 C145 1.361 . S
C141 H96 0.929 . S
C141 C140 1.377 1_565 S
C141 C142 1.386 . S
C142 H97 0.931 . S
C142 C141 1.386 . S
C142 C143 1.363 1_565 S
C143 C142 1.363 1_545 S
C143 C144 1.385 . S
C144 H98 0.930 . S
C144 C143 1.385 . S
C144 C145 1.396 . S
C145 H99 0.929 . S
C145 C140 1.361 . S
C145 C144 1.396 . S
C146 O100 1.300 1_545 S
C146 O101 1.209 . S
C146 C119 1.486 . S
C147 O102 1.199 1_545 S
C147 O103 1.297 . S
C147 C131 1.476 . S
H148 O174 0.856 . S
H149 O177 0.854 . S
H150 C185 0.930 . S
H151 C186 0.930 . S
H152 C188 0.930 . S
H153 C189 0.930 . S
H154 C191 0.931 . S
H155 C192 0.930 . S
H156 C194 0.930 . S
H157 C195 0.929 . S
H158 C197 0.930 . S
H159 C198 0.931 . S
H160 C200 0.930 . S
H161 C201 0.929 . S
H162 C203 0.931 . S
H163 C204 0.930 . S
H164 C206 0.930 . S
H165 C207 0.932 . S
H166 C209 0.930 . S
H167 C210 0.929 . S
H168 C212 0.931 . S
H169 C213 0.930 . S
H170 C215 0.929 . S
H171 C216 0.931 . S
H172 C218 0.930 . S
H173 C219 0.929 . S
O174 H148 0.856 . S
O174 C220 1.300 1_556 S
O175 C220 1.209 . S
O176 C221 1.199 1_556 S
O177 H149 0.854 . S
O177 C221 1.297 . S
C178 C179 1.404 . S
C178 C183 1.397 . S
C178 C184 1.490 1_554 S
C179 C178 1.404 . S
C179 C180 1.396 . S
C179 C190 1.492 . S
C180 C179 1.396 . S
C180 C181 1.397 . S
C180 C196 1.509 . S
C181 C180 1.397 . S
C181 C182 1.412 . S
C181 C202 1.485 . S
C182 C181 1.412 . S
C182 C183 1.388 . S
C182 C208 1.490 1_554 S
C183 C178 1.397 . S
C183 C182 1.388 . S
C183 C214 1.519 . S
C184 C178 1.490 1_556 S
C184 C185 1.378 . S
C184 C189 1.378 1_556 S
C185 H150 0.930 . S
C185 C184 1.378 . S
C185 C186 1.372 . S
C186 H151 0.930 . S
C186 C185 1.372 . S
C186 C187 1.383 . S
C187 C186 1.383 . S
C187 C188 1.395 1_556 S
C188 H152 0.930 . S
C188 C187 1.395 1_554 S
C188 C189 1.362 . S
C189 H153 0.930 . S
C189 C184 1.378 1_554 S
C189 C188 1.362 . S
C190 C179 1.492 . S
C190 C191 1.377 1_554 S
C190 C195 1.397 . S
C191 H154 0.931 . S
C191 C190 1.377 1_556 S
C191 C192 1.376 . S
C192 H155 0.930 . S
C192 C191 1.376 . S
C192 C193 1.376 1_556 S
C193 C192 1.376 1_554 S
C193 C194 1.378 . S
C193 C220 1.486 . S
C194 H156 0.930 . S
C194 C193 1.378 . S
C194 C195 1.376 . S
C195 H157 0.929 . S
C195 C190 1.397 . S
C195 C194 1.376 . S
C196 C180 1.509 . S
C196 C197 1.391 1_554 S
C196 C201 1.386 . S
C197 H158 0.930 . S
C197 C196 1.391 1_556 S
C197 C198 1.375 . S
C198 H159 0.931 . S
C198 C197 1.375 . S
C198 C199 1.375 1_556 S
C199 C198 1.375 1_554 S
C199 C200 1.361 . S
C200 H160 0.930 . S
C200 C199 1.361 . S
C200 C201 1.399 . S
C201 H161 0.929 . S
C201 C196 1.386 . S
C201 C200 1.399 . S
C202 C181 1.485 . S
C202 C203 1.394 1_554 S
C202 C207 1.360 . S
C203 H162 0.931 . S
C203 C202 1.394 1_556 S
C203 C204 1.372 . S
C204 H163 0.930 . S
C204 C203 1.372 . S
C204 C205 1.397 1_556 S
C205 C204 1.397 1_554 S
C205 C206 1.390 . S
C205 C221 1.476 . S
C206 H164 0.930 . S
C206 C205 1.390 . S
C206 C207 1.366 . S
C207 H165 0.932 . S
C207 C202 1.360 . S
C207 C206 1.366 . S
C208 C182 1.490 1_556 S
C208 C209 1.380 . S
C208 C213 1.386 1_556 S
C209 H166 0.930 . S
C209 C208 1.380 . S
C209 C210 1.381 . S
C210 H167 0.929 . S
C210 C209 1.381 . S
C210 C211 1.371 . S
C211 C210 1.371 . S
C211 C212 1.380 1_556 S
C212 H168 0.931 . S
C212 C211 1.380 1_554 S
C212 C213 1.387 . S
C213 H169 0.930 . S
C213 C208 1.386 1_554 S
C213 C212 1.387 . S
C214 C183 1.519 . S
C214 C215 1.377 1_554 S
C214 C219 1.361 . S
C215 H170 0.929 . S
C215 C214 1.377 1_556 S
C215 C216 1.386 . S
C216 H171 0.931 . S
C216 C215 1.386 . S
C216 C217 1.363 1_556 S
C217 C216 1.363 1_554 S
C217 C218 1.385 . S
C218 H172 0.930 . S
C218 C217 1.385 . S
C218 C219 1.396 . S
C219 H173 0.929 . S
C219 C214 1.361 . S
C219 C218 1.396 . S
C220 O174 1.300 1_554 S
C220 O175 1.209 . S
C220 C193 1.486 . S
C221 O176 1.199 1_554 S
C221 O177 1.297 . S
C221 C205 1.476 . S
C222 O248 1.283 . S
C222 O266 1.283 . S
C223 O249 1.283 . S
C223 O264 1.283 1_455 S
C224 O250 1.283 1_455 S
C224 O267 1.283 . S
C225 O251 1.283 . S
C225 O265 1.283 . S
C226 O252 1.283 . S
C226 O261 1.283 . S
C227 O253 1.283 . S
C227 O263 1.283 . S
C228 O254 1.283 . S
C228 O260 1.283 . S
C229 O255 1.283 . S
C229 O262 1.283 . S
C230 O256 1.283 . S
C230 O271 1.283 . S
C231 O257 1.283 . S
C231 O269 1.283 . S
C232 O258 1.283 . S
C232 O270 1.283 . S
C233 O259 1.283 . S
C233 O268 1.283 . S
Eu234 O235 2.370 . S
Eu234 O236 2.370 1_454 S
Eu234 O239 2.370 1_554 S
Eu234 O240 2.370 1_455 S
Eu234 O248 2.363 1_554 S
Eu234 O249 2.363 . S
Eu234 O262 2.363 1_455 S
Eu234 O263 2.363 . S
O235 Eu234 2.370 . S
O235 Eu237 2.370 . S
O235 Eu242 2.361 1_455 S
O236 Eu234 2.370 1_656 S
O236 Eu238 2.370 1_556 S
O236 Eu241 2.370 1_655 S
Eu237 O235 2.370 . S
Eu237 O239 2.370 1_554 S
Eu237 O243 2.370 1_544 S
Eu237 O244 2.370 1_545 S
Eu237 O252 2.363 1_544 S
Eu237 O253 2.363 . S
Eu237 O268 2.364 1_554 S
Eu237 O269 2.362 . S
Eu238 O236 2.370 1_554 S
Eu238 O240 2.370 . S
Eu238 O245 2.370 1_545 S
Eu238 O246 2.370 1_544 S
Eu238 O254 2.363 1_545 S
Eu238 O255 2.363 . S
Eu238 O270 2.363 1_554 S
Eu238 O271 2.363 . S
O239 Eu234 2.370 1_556 S
O239 Eu237 2.370 1_556 S
O239 Eu241 2.370 . S
O240 Eu234 2.370 1_655 S
O240 Eu238 2.370 . S
O240 Eu242 2.380 . S
Eu241 O236 2.370 1_455 S
Eu241 O239 2.370 . S
Eu241 O243 2.370 1_545 S
Eu241 O246 2.370 1_445 S
Eu241 O258 2.363 1_455 S
Eu241 O259 2.363 . S
Eu241 O266 2.363 . S
Eu241 O267 2.363 1_545 S
Eu242 O235 2.361 1_655 S
Eu242 O240 2.380 . S
Eu242 O244 2.360 1_645 S
Eu242 O245 2.380 1_545 S
Eu242 O256 2.379 . S
Eu242 O257 2.346 1_655 S
Eu242 O264 2.363 . S
Eu242 O265 2.363 1_545 S
O243 Eu237 2.370 1_566 S
O243 Eu241 2.370 1_565 S
O243 Eu247 2.361 1_456 S
O244 Eu237 2.370 1_565 S
O244 Eu242 2.360 1_465 S
O244 Eu247 2.360 1_455 S
O245 Eu238 2.370 1_565 S
O245 Eu242 2.380 1_565 S
O245 Eu247 2.380 . S
O246 Eu238 2.370 1_566 S
O246 Eu241 2.370 1_665 S
O246 Eu247 2.381 1_556 S
Eu247 O243 2.361 1_654 S
Eu247 O244 2.360 1_655 S
Eu247 O245 2.380 . S
Eu247 O246 2.381 1_554 S
Eu247 O250 2.364 1_554 S
Eu247 O251 2.362 . S
Eu247 O260 2.380 . S
Eu247 O261 2.346 1_654 S
O248 C222 1.283 . S
O248 Eu234 2.363 1_556 S
O249 C223 1.283 . S
O249 Eu234 2.363 . S
O250 C224 1.283 1_655 S
O250 Eu247 2.364 1_556 S
O251 C225 1.283 . S
O251 Eu247 2.362 . S
O252 C226 1.283 . S
O252 Eu237 2.363 1_566 S
O253 C227 1.283 . S
O253 Eu237 2.363 . S
O254 C228 1.283 . S
O254 Eu238 2.363 1_565 S
O255 C229 1.283 . S
O255 Eu238 2.363 . S
O256 C230 1.283 . S
O256 Eu242 2.379 . S
O257 C231 1.283 . S
O257 Eu242 2.346 1_455 S
O258 C232 1.283 . S
O258 Eu241 2.363 1_655 S
O259 C233 1.283 . S
O259 Eu241 2.363 . S
O260 C228 1.283 . S
O260 Eu247 2.380 . S
O261 C226 1.283 . S
O261 Eu247 2.346 1_456 S
O262 C229 1.283 . S
O262 Eu234 2.363 1_655 S
O263 C227 1.283 . S
O263 Eu234 2.363 . S
O264 C223 1.283 1_655 S
O264 Eu242 2.363 . S
O265 C225 1.283 . S
O265 Eu242 2.363 1_565 S
O266 C222 1.283 . S
O266 Eu241 2.363 . S
O267 C224 1.283 . S
O267 Eu241 2.363 1_565 S
O268 C233 1.283 . S
O268 Eu237 2.364 1_556 S
O269 C231 1.283 . S
O269 Eu237 2.362 . S
O270 C232 1.283 . S
O270 Eu238 2.363 1_556 S
O271 C230 1.283 . S
O271 Eu238 2.363 . S
C272 C273 1.369 1_655 S
C272 C274 1.419 . S
C272 H276 0.930 . S
C273 C272 1.369 1_455 S
C273 C282 1.429 . S
C274 C272 1.419 . S
C274 C275 1.363 1_655 S
C274 H277 0.929 . S
C275 C274 1.363 1_455 S
C275 C281 1.428 . S
H276 C272 0.930 . S
H277 C274 0.929 . S
S278 N279 1.613 . S
S278 N280 1.610 . S
N279 S278 1.613 . S
N279 C282 1.350 . S
N280 S278 1.610 . S
N280 C281 1.351 . S
C281 C275 1.428 . S
C281 N280 1.351 . S
C281 C282 1.434 . S
C282 C273 1.429 . S
C282 N279 1.350 . S
C282 C281 1.434 . S
C283 C284 1.369 . S
C283 C285 1.419 . S
C283 H287 0.930 . S
C284 C283 1.369 . S
C284 C293 1.429 1_565 S
C285 C283 1.419 . S
C285 C286 1.363 1_565 S
C285 H288 0.929 . S
C286 C285 1.363 1_545 S
C286 C292 1.428 . S
H287 C283 0.930 . S
H288 C285 0.929 . S
S289 N290 1.613 . S
S289 N291 1.610 . S
N290 S289 1.613 . S
N290 C293 1.350 . S
N291 S289 1.610 . S
N291 C292 1.351 . S
C292 C286 1.428 . S
C292 N291 1.351 . S
C292 C293 1.434 . S
C293 C284 1.429 1_545 S
C293 N290 1.350 . S
C293 C292 1.434 . S
C294 C295 1.369 . S
C294 C296 1.419 . S
C294 H298 0.930 . S
C295 C294 1.369 . S
C295 C304 1.429 1_655 S
C296 C294 1.419 . S
C296 C297 1.363 . S
C296 H299 0.929 . S
C297 C296 1.363 . S
C297 C303 1.428 1_655 S
H298 C294 0.930 . S
H299 C296 0.929 . S
S300 N301 1.613 . S
S300 N302 1.610 . S
N301 S300 1.613 . S
N301 C304 1.350 . S
N302 S300 1.610 . S
N302 C303 1.351 . S
C303 C297 1.428 1_455 S
C303 N302 1.351 . S
C303 C304 1.434 . S
C304 C295 1.429 1_455 S
C304 N301 1.350 . S
C304 C303 1.434 . S
C305 C306 1.369 . S
C305 C307 1.419 1_545 S
C305 H309 0.930 1_545 S
C306 C305 1.369 . S
C306 C315 1.429 . S
C307 C305 1.419 1_565 S
C307 C308 1.363 1_565 S
C307 H310 0.929 . S
C308 C307 1.363 1_545 S
C308 C314 1.428 . S
H309 C305 0.930 1_565 S
H310 C307 0.929 . S
S311 N312 1.613 . S
S311 N313 1.610 . S
N312 S311 1.613 . S
N312 C315 1.350 . S
N313 S311 1.610 . S
N313 C314 1.351 . S
C314 C308 1.428 . S
C314 N313 1.351 . S
C314 C315 1.434 . S
C315 C306 1.429 . S
C315 N312 1.350 . S
C315 C314 1.434 . S
C316 C317 1.369 . S
C316 C318 1.419 . S
C316 H320 0.930 . S
C317 C316 1.369 . S
C317 C326 1.429 . S
C318 C316 1.419 . S
C318 C319 1.363 . S
C318 H321 0.929 . S
C319 C318 1.363 . S
C319 C325 1.428 . S
H320 C316 0.930 . S
H321 C318 0.929 . S
S322 N323 1.613 1_655 S
S322 N324 1.610 . S
N323 S322 1.613 1_455 S
N323 C326 1.350 . S
N324 S322 1.610 . S
N324 C325 1.351 1_655 S
C325 C319 1.428 . S
C325 N324 1.351 1_455 S
C325 C326 1.434 . S
C326 C317 1.429 . S
C326 N323 1.350 . S
C326 C325 1.434 . S
C327 C328 1.369 . S
C327 C329 1.419 . S
C327 H331 0.930 . S
C328 C327 1.369 . S
C328 C337 1.429 1_565 S
C329 C327 1.419 . S
C329 C330 1.363 1_565 S
C329 H332 0.929 . S
C330 C329 1.363 1_545 S
C330 C336 1.428 . S
H331 C327 0.930 . S
H332 C329 0.929 . S
S333 N334 1.613 . S
S333 N335 1.610 . S
N334 S333 1.613 . S
N334 C337 1.350 . S
N335 S333 1.610 . S
N335 C336 1.351 . S
C336 C330 1.428 . S
C336 N335 1.351 . S
C336 C337 1.434 . S
C337 C328 1.429 1_545 S
C337 N334 1.350 . S
C337 C336 1.434 . S
C338 C339 1.369 1_455 S
C338 C340 1.419 . S
C338 H342 0.930 . S
C339 C338 1.369 1_655 S
C339 C348 1.429 . S
C340 C338 1.419 . S
C340 C341 1.363 . S
C340 H343 0.929 . S
C341 C340 1.363 . S
C341 C347 1.428 1_455 S
H342 C338 0.930 . S
H343 C340 0.929 . S
S344 N345 1.613 . S
S344 N346 1.610 . S
N345 S344 1.613 . S
N345 C348 1.350 . S
N346 S344 1.610 . S
N346 C347 1.351 . S
C347 C341 1.428 1_655 S
C347 N346 1.351 . S
C347 C348 1.434 . S
C348 C339 1.429 . S
C348 N345 1.350 . S
C348 C347 1.434 . S
C349 C350 1.369 . S
C349 C351 1.419 . S
C349 H353 0.930 . S
C350 C349 1.369 . S
C350 C359 1.429 . S
C351 C349 1.419 . S
C351 C352 1.363 . S
C351 H354 0.929 . S
C352 C351 1.363 . S
C352 C358 1.428 . S
H353 C349 0.930 . S
H354 C351 0.929 . S
S355 N356 1.613 1_565 S
S355 N357 1.610 . S
N356 S355 1.613 1_545 S
N356 C359 1.350 . S
N357 S355 1.610 . S
N357 C358 1.351 1_565 S
C358 C352 1.428 . S
C358 N357 1.351 1_545 S
C358 C359 1.434 . S
C359 C350 1.429 . S
C359 N356 1.350 . S
C359 C358 1.434 . S
C360 C361 1.369 1_554 S
C360 C362 1.419 . S
C360 H364 0.930 . S
C361 C360 1.369 1_556 S
C361 C370 1.429 . S
C362 C360 1.419 . S
C362 C363 1.363 1_554 S
C362 H365 0.929 . S
C363 C362 1.363 1_556 S
C363 C369 1.428 . S
H364 C360 0.930 . S
H365 C362 0.929 . S
S366 N367 1.613 . S
S366 N368 1.610 . S
N367 S366 1.613 . S
N367 C370 1.350 . S
N368 S366 1.610 . S
N368 C369 1.351 . S
C369 C363 1.428 . S
C369 N368 1.351 . S
C369 C370 1.434 . S
C370 C361 1.429 . S
C370 N367 1.350 . S
C370 C369 1.434 . S
C371 C372 1.369 . S
C371 C373 1.419 . S
C371 H375 0.930 . S
C372 C371 1.369 . S
C372 C381 1.429 1_554 S
C373 C371 1.419 . S
C373 C374 1.363 . S
C373 H376 0.929 . S
C374 C373 1.363 . S
C374 C380 1.428 1_554 S
H375 C371 0.930 . S
H376 C373 0.929 . S
S377 N378 1.613 . S
S377 N379 1.610 . S
N378 S377 1.613 . S
N378 C381 1.350 . S
N379 S377 1.610 . S
N379 C380 1.351 . S
C380 C374 1.428 1_556 S
C380 N379 1.351 . S
C380 C381 1.434 . S
C381 C372 1.429 1_556 S
C381 N378 1.350 . S
C381 C380 1.434 . S
C382 C383 1.369 . S
C382 C384 1.419 . S
C382 H386 0.930 . S
C383 C382 1.369 . S
C383 C392 1.429 1_554 S
C384 C382 1.419 . S
C384 C385 1.363 . S
C384 H387 0.929 . S
C385 C384 1.363 . S
C385 C391 1.428 1_554 S
H386 C382 0.930 . S
H387 C384 0.929 . S
S388 N389 1.613 . S
S388 N390 1.610 . S
N389 S388 1.613 . S
N389 C392 1.350 . S
N390 S388 1.610 . S
N390 C391 1.351 . S
C391 C385 1.428 1_556 S
C391 N390 1.351 . S
C391 C392 1.434 . S
C392 C383 1.429 1_556 S
C392 N389 1.350 . S
C392 C391 1.434 . S
C393 C394 1.369 . S
C393 C395 1.419 . S
C393 H397 0.930 . S
C394 C393 1.369 . S
C394 C403 1.429 1_556 S
C395 C393 1.419 . S
C395 C396 1.363 . S
C395 H398 0.929 . S
C396 C395 1.363 . S
C396 C402 1.428 1_556 S
H397 C393 0.930 . S
H398 C395 0.929 . S
S399 N400 1.613 . S
S399 N401 1.610 . S
N400 S399 1.613 . S
N400 C403 1.350 . S
N401 S399 1.610 . S
N401 C402 1.351 . S
C402 C396 1.428 1_554 S
C402 N401 1.351 . S
C402 C403 1.434 . S
C403 C394 1.429 1_554 S
C403 N400 1.350 . S
C403 C402 1.434 . S
C275 C223 1.826 . S
C273 C39 1.656 . S
C286 C230 1.835 . S
C284 C113 1.663 . S
C297 C225 2.019 . S
C295 C69 2.010 . S
C308 C231 0.905 . S
C306 C125 0.907 . S
C317 C63 1.641 . S
C319 C224 1.783 . S
C330 C233 1.796 . S
C328 C137 1.638 . S
C339 C51 0.921 . S
C341 C222 0.917 . S
C350 C143 2.028 . S
C352 C232 2.037 . S
C361 C187 1.667 . S
C363 C227 1.825 1_556 S
C372 C217 2.021 . S
C374 C226 2.032 1_554 S
C385 C229 0.903 . S
C383 C199 0.898 . S
C396 C228 1.791 1_556 S
C394 C211 1.639 . S
