# Generated by pormake.
# Topology pyr, (3,6)-cn, num edge types: 1
# Building blocks:
#     Node 0, Type 0, BuildingBlock: QEWDON_clean_linker_0, # of connection points: 3
#     Node 1, Type 0, BuildingBlock: QEWDON_clean_linker_0, # of connection points: 3
#     Node 2, Type 0, BuildingBlock: QEWDON_clean_linker_0, # of connection points: 3
#     Node 3, Type 0, BuildingBlock: QEWDON_clean_linker_0, # of connection points: 3
#     Node 4, Type 0, BuildingBlock: QEWDON_clean_linker_0, # of connection points: 3
#     Node 5, Type 0, BuildingBlock: QEWDON_clean_linker_0, # of connection points: 3
#     Node 6, Type 0, BuildingBlock: QEWDON_clean_linker_0, # of connection points: 3
#     Node 7, Type 0, BuildingBlock: QEWDON_clean_linker_0, # of connection points: 3
#     Node 8, Type 1, BuildingBlock: BETDIP_clean_sbu_0, # of connection points: 6
#     Node 9, Type 1, BuildingBlock: BETDIP_clean_sbu_0, # of connection points: 6
#     Node 10, Type 1, BuildingBlock: BETDIP_clean_sbu_0, # of connection points: 6
#     Node 11, Type 1, BuildingBlock: BETDIP_clean_sbu_0, # of connection points: 6
#     Edge 12, Type (0, 1), BuildingBlock: AJUNOK_clean_linker_0, # of connection points: 2
#     Edge 13, Type (0, 1), BuildingBlock: AJUNOK_clean_linker_0, # of connection points: 2
#     Edge 14, Type (0, 1), BuildingBlock: AJUNOK_clean_linker_0, # of connection points: 2
#     Edge 15, Type (0, 1), BuildingBlock: AJUNOK_clean_linker_0, # of connection points: 2
#     Edge 16, Type (0, 1), BuildingBlock: AJUNOK_clean_linker_0, # of connection points: 2
#     Edge 17, Type (0, 1), BuildingBlock: AJUNOK_clean_linker_0, # of connection points: 2
#     Edge 18, Type (0, 1), BuildingBlock: AJUNOK_clean_linker_0, # of connection points: 2
#     Edge 19, Type (0, 1), BuildingBlock: AJUNOK_clean_linker_0, # of connection points: 2
#     Edge 20, Type (0, 1), BuildingBlock: AJUNOK_clean_linker_0, # of connection points: 2
#     Edge 21, Type (0, 1), BuildingBlock: AJUNOK_clean_linker_0, # of connection points: 2
#     Edge 22, Type (0, 1), BuildingBlock: AJUNOK_clean_linker_0, # of connection points: 2
#     Edge 23, Type (0, 1), BuildingBlock: AJUNOK_clean_linker_0, # of connection points: 2
#     Edge 24, Type (0, 1), BuildingBlock: AJUNOK_clean_linker_0, # of connection points: 2
#     Edge 25, Type (0, 1), BuildingBlock: AJUNOK_clean_linker_0, # of connection points: 2
#     Edge 26, Type (0, 1), BuildingBlock: AJUNOK_clean_linker_0, # of connection points: 2
#     Edge 27, Type (0, 1), BuildingBlock: AJUNOK_clean_linker_0, # of connection points: 2
#     Edge 28, Type (0, 1), BuildingBlock: AJUNOK_clean_linker_0, # of connection points: 2
#     Edge 29, Type (0, 1), BuildingBlock: AJUNOK_clean_linker_0, # of connection points: 2
#     Edge 30, Type (0, 1), BuildingBlock: AJUNOK_clean_linker_0, # of connection points: 2
#     Edge 31, Type (0, 1), BuildingBlock: AJUNOK_clean_linker_0, # of connection points: 2
#     Edge 32, Type (0, 1), BuildingBlock: AJUNOK_clean_linker_0, # of connection points: 2
#     Edge 33, Type (0, 1), BuildingBlock: AJUNOK_clean_linker_0, # of connection points: 2
#     Edge 34, Type (0, 1), BuildingBlock: AJUNOK_clean_linker_0, # of connection points: 2
#     Edge 35, Type (0, 1), BuildingBlock: AJUNOK_clean_linker_0, # of connection points: 2
# Relax obj value: 0.217
# Max RMSD: 0.273
# Mean RMSD: 0.185
data_MOF--net-pyr--node1-BETDIP_clean_sbu_0--node2-QEWDON_clean_linker_0--edge1-AJUNOK_clean_linker_0
_symmetry_space_group_name_H-M    P1
_symmetry_Int_Tables_number       1
_symmetry_cell_setting            triclinic
loop_
_symmetry_equiv_pos_as_xyz
'x, y, z'
_cell_length_a     26.455617
_cell_length_b     29.985105
_cell_length_c     30.907341
_cell_angle_alpha  88.458614
_cell_angle_beta   93.154558
_cell_angle_gamma 115.56659
loop_
_atom_site_label
_atom_site_type_symbol
_atom_site_fract_x
_atom_site_fract_y
_atom_site_fract_z
_atom_type_partial_charge
H0 H 0.5221 0.36554 0.23061 0.0
C1 C 0.50561 0.35579 0.2626 0.0
C2 C 0.49929 0.31065 0.28149 0.0
C3 C 0.48672 0.38657 0.28321 0.0
H4 H 0.46878 0.26165 0.33607 0.0
C5 C 0.47516 0.29706 0.32191 0.0
C6 C 0.45669 0.32775 0.34313 0.0
C7 C 0.46241 0.37233 0.32352 0.0
C8 C 0.48873 0.43177 0.26118 0.0
H9 H 0.44743 0.39576 0.33953 0.0
C10 C 0.44059 0.44064 0.25774 0.0
C11 C 0.44119 0.4821 0.23504 0.0
C12 C 0.53792 0.46529 0.24216 0.0
H13 H 0.57554 0.45929 0.24445 0.0
C14 C 0.53905 0.50708 0.22034 0.0
H15 H 0.40202 0.41431 0.27136 0.0
C16 C 0.49101 0.5155 0.2167 0.0
H17 H 0.4928 0.54815 0.19965 0.0
H18 H 0.57722 0.53293 0.20602 0.0
H19 H 0.11349 0.81811 0.83794 0.0
C20 C 0.14404 0.80656 0.82654 0.0
C21 C 0.18864 0.80897 0.85451 0.0
C22 C 0.14067 0.79269 0.78317 0.0
H23 H 0.26411 0.79814 0.86054 0.0
C24 C 0.22863 0.79495 0.83937 0.0
C25 C 0.22579 0.7809 0.79603 0.0
C26 C 0.18102 0.77886 0.7682 0.0
C27 C 0.09973 0.79948 0.7525 0.0
H28 H 0.17992 0.77012 0.73424 0.0
C29 C 0.09781 0.84564 0.74982 0.0
C30 C 0.0599 0.8533 0.72051 0.0
C31 C 0.06356 0.7609 0.72536 0.0
H32 H 0.06467 0.7252 0.72681 0.0
C33 C 1.0253 0.76816 0.69641 0.0
H34 H 0.1264 0.87586 0.7702 0.0
C35 C 1.02342 0.81404 0.6939 0.0
H36 H 0.9944 0.81919 0.67044 0.0
H37 H 0.99737 0.73827 0.67555 0.0
H38 H 0.74791 0.51994 0.94862 0.0
C39 C 0.72724 0.48037 0.95406 0.0
C40 C 0.75046 0.45852 0.9857 0.0
C41 C 0.67445 0.45203 0.93271 0.0
H42 H 0.73908 0.39043 1.0182 0.0
C43 C 0.72162 0.40737 0.99397 0.0
C44 C 0.66849 0.37858 0.97454 0.0
C45 C 0.64528 0.40134 0.94397 0.0
C46 C 0.64252 0.47697 0.90877 0.0
H47 H 0.60316 0.38012 0.93032 0.0
C48 C 0.65032 0.49391 0.86481 0.0
C49 C 0.61478 0.51395 0.84424 0.0
C50 C 0.60053 0.48177 0.93134 0.0
H51 H 0.59365 0.46939 0.9647 0.0
C52 C 0.56666 0.50202 0.91154 0.0
H53 H 0.68229 0.4904 0.8467 0.0
C54 C 0.57343 0.51764 0.86855 0.0
H55 H 0.54611 0.53304 0.85414 0.0
H56 H 0.53452 0.50531 0.9296 0.0
H57 H 0.96827 0.86013 0.40583 0.0
C58 C 0.93534 0.83536 0.42596 0.0
C59 C 0.92595 0.85305 0.46548 0.0
C60 C 0.89929 0.78715 0.41069 0.0
H61 H 0.87159 0.83653 0.51843 0.0
C62 C 0.88018 0.82187 0.48953 0.0
C63 C 0.84472 0.77313 0.47639 0.0
C64 C 0.85486 0.75639 0.43677 0.0
C65 C 0.89598 0.77438 0.36336 0.0
H66 H 0.82636 0.72004 0.42486 0.0
C67 C 0.9288 0.75359 0.3436 0.0
C68 C 0.92011 0.7416 0.2983 0.0
C69 C 0.85521 0.78216 0.33748 0.0
H70 H 0.82952 0.79758 0.35141 0.0
C71 C 0.84632 0.76993 0.29377 0.0
H72 H 0.96051 0.74724 0.36288 0.0
C73 C 0.87808 0.74986 0.27449 0.0
H74 H 0.86975 0.74076 0.24034 0.0
H75 H 0.81438 0.77605 0.27458 0.0
H76 H 0.6634 0.78132 0.99084 0.0
C77 C 0.67306 0.79614 0.95838 0.0
C78 C 0.71721 0.79288 0.9376 0.0
C79 C 0.64247 0.81978 0.93769 0.0
H80 H 0.76562 0.81173 0.88061 0.0
C81 C 0.73019 0.81272 0.89592 0.0
C82 C 0.70045 0.83687 0.87518 0.0
C83 C 0.65677 0.84045 0.89631 0.0
C84 C 0.596 0.82366 0.95926 0.0
H85 H 0.63377 0.85925 0.88046 0.0
C86 C 0.59575 0.87003 0.96462 0.0
C87 C 0.5509 0.87366 0.98416 0.0
C88 C 0.55111 0.78088 0.97376 0.0
H89 H 0.55045 0.74484 0.96982 0.0
C90 C 0.5062 0.78427 0.99272 0.0
H91 H 0.63066 0.90327 0.95398 0.0
C92 C 0.50598 0.83031 0.99792 0.0
H93 H 0.47138 0.83217 1.01371 0.0
H94 H 0.4716 0.75112 1.00371 0.0
H95 H 0.98386 0.32772 0.51605 0.0
C96 C 0.96687 0.32568 0.4832 0.0
C97 C 0.9856 0.304 0.45184 0.0
C98 C 0.92291 0.33965 0.4733 0.0
H99 H 0.97863 0.2842 0.38461 0.0
C100 C 0.96546 0.30199 0.40884 0.0
C101 C 0.92403 0.31791 0.39775 0.0
C102 C 0.90206 0.33566 0.42983 0.0
C103 C 0.8947 0.35246 0.50875 0.0
H104 H 0.86634 0.34307 0.42076 0.0
C105 C 0.8614 0.37829 0.49979 0.0
C106 C 0.83133 0.38624 0.53246 0.0
C107 C 0.89766 0.33603 0.55177 0.0
H108 H 0.91975 0.31389 0.56066 0.0
C109 C 0.87003 0.34621 0.58451 0.0
H110 H 0.85797 0.3921 0.46762 0.0
C111 C 0.83692 0.37105 0.57499 0.0
H112 H 0.81402 0.37688 0.60057 0.0
H113 H 0.87293 0.33339 0.61723 0.0
H114 H 0.50249 0.86893 0.28638 0.0
C115 C 0.46105 0.84453 0.27353 0.0
C116 C 0.43458 0.86216 0.24071 0.0
C117 C 0.43686 0.79452 0.28803 0.0
H118 H 0.36095 0.84045 0.19766 0.0
C119 C 0.38271 0.82809 0.22239 0.0
C120 C 0.35843 0.77777 0.23435 0.0
C121 C 0.38506 0.76139 0.26808 0.0
C122 C 0.47261 0.77635 0.3166 0.0
H123 H 0.36768 0.7225 0.27656 0.0
C124 C 0.4574 0.7519 0.35766 0.0
C125 C 0.49663 0.73989 0.38352 0.0
C126 C 0.52572 0.78603 0.30186 0.0
H127 H 0.53853 0.80371 0.27073 0.0
C128 C 0.56324 0.77349 0.32658 0.0
H129 H 0.41669 0.74375 0.36977 0.0
C130 C 0.54912 0.75106 0.36688 0.0
H131 H 0.5795 0.74184 0.38517 0.0
H132 H 0.60388 0.78145 0.31443 0.0
H133 H 0.24698 0.48634 0.80856 0.0
C134 C 0.22454 0.45077 0.79301 0.0
C135 C 0.24164 0.44176 0.7524 0.0
C136 C 0.17967 0.41301 0.8145 0.0
H137 H 0.22657 0.38576 0.70405 0.0
C138 C 0.21299 0.3941 0.73399 0.0
C139 C 0.16728 0.35647 0.7535 0.0
C140 C 0.15023 0.36665 0.79308 0.0
C141 C 0.16955 0.41677 0.86209 0.0
H142 H 0.11554 0.33723 0.80851 0.0
C143 C 0.16291 0.45675 0.88199 0.0
C144 C 0.15274 0.45522 0.92752 0.0
C145 C 0.16693 0.3771 0.88875 0.0
H146 H 0.17325 0.34678 0.87575 0.0
C147 C 0.1565 0.37534 0.93241 0.0
H148 H 0.16551 0.48817 0.86254 0.0
C149 C 0.14908 0.41337 0.95138 0.0
H150 H 0.14007 0.40971 0.98541 0.0
H151 H 0.15408 0.34397 0.95186 0.0
Tb152 Tb 0.99618 0.0872 0.60978 0.0
Tb153 Tb 0.11579 0.12251 0.60405 0.0
C154 C 0.89254 0.0353 0.61657 0.0
C155 C 0.85941 1.00651 0.65254 0.0
C156 C 0.80851 0.96494 0.64409 0.0
C157 C 0.77836 0.93586 0.67831 0.0
C158 C 0.7989 0.94812 0.72135 0.0
C159 C 0.84976 0.98997 0.72962 0.0
C160 C 0.87993 1.01879 0.69551 0.0
C161 C 0.05525 0.1691 0.65601 0.0
C162 C 0.06114 0.04018 0.67048 0.0
C163 C 0.21976 0.17511 0.59904 0.0
C164 C 0.25587 0.20005 0.56326 0.0
C165 C 0.31057 0.23632 0.57194 0.0
C166 C 0.34525 0.25986 0.53785 0.0
C167 C 0.32566 0.24718 0.49463 0.0
C168 C 0.27047 0.21118 0.4862 0.0
C169 C 0.23582 0.18789 0.52022 0.0
C170 C 0.05691 0.04154 0.55639 0.0
C171 C 0.04893 0.16503 0.54008 0.0
O172 O 0.92622 1.0187 0.60144 0.0
O173 O 0.91702 0.0832 0.62165 0.0
O174 O 0.06724 0.13258 0.65293 0.0
O175 O 1.00793 0.15853 0.63506 0.0
O176 O 1.01354 0.03487 0.65078 0.0
O177 O 0.10818 0.07937 0.66295 0.0
O178 O 0.18427 0.19252 0.60856 0.0
O179 O 0.19627 0.12691 0.5977 0.0
O180 O 0.04495 0.07766 0.56104 0.0
O181 O 0.1054 0.05269 0.57552 0.0
O182 O 0.09711 0.17354 0.56088 0.0
O183 O 1.00307 0.12527 0.54862 0.0
H184 H 0.79237 0.95477 0.61106 0.0
H185 H 0.73898 0.90401 0.67118 0.0
H186 H 0.86674 0.99983 0.76252 0.0
H187 H 0.91967 0.05028 0.70264 0.0
H188 H 0.3264 0.24643 0.60504 0.0
H189 H 0.38714 0.28824 0.54526 0.0
H190 H 0.25431 0.20057 0.45325 0.0
H191 H 0.19348 0.16016 0.51298 0.0
Tb192 Tb 0.60601 0.13924 0.11265 0.0
Tb193 Tb 0.47709 0.09879 0.09326 0.0
C194 C 0.70849 0.19632 0.11557 0.0
C195 C 0.74972 0.22037 0.15166 0.0
C196 C 0.75855 0.26731 0.16641 0.0
C197 C 0.79153 0.28714 0.20411 0.0
C198 C 0.81658 0.26054 0.22742 0.0
C199 C 0.81058 0.2151 0.21131 0.0
C200 C 0.77768 0.19528 0.17367 0.0
C201 C 0.54857 0.06166 0.16387 0.0
C202 C 0.53262 0.17486 0.16857 0.0
C203 C 0.373 0.04868 0.08344 0.0
C204 C 0.33373 1.00062 0.06591 0.0
C205 C 0.35245 0.96564 0.0542 0.0
C206 C 0.31769 0.92555 1.02825 0.0
C207 C 0.26439 0.92063 1.01334 0.0
C208 C 0.24358 0.95245 1.02952 0.0
C209 C 0.27831 0.99252 0.05538 0.0
C210 C 0.54079 0.18516 0.05685 0.0
C211 C 0.54844 0.05312 1.04589 0.0
O212 O 0.66893 0.21143 0.10913 0.0
O213 O 0.68898 0.14804 0.11276 0.0
O214 O 0.53183 0.08359 0.13559 0.0
O215 O 0.60284 0.08612 0.16593 0.0
O216 O 0.58267 0.18381 0.15489 0.0
O217 O 0.48583 0.13868 0.15276 0.0
O218 O 0.40194 0.04837 0.11919 0.0
O219 O 0.40366 0.08033 0.05466 0.0
O220 O 0.55221 0.14836 0.06203 0.0
O221 O 0.49093 0.17278 0.0703 0.0
O222 O 0.49855 0.04791 0.0573 0.0
O223 O 0.59593 0.09066 0.05884 0.0
H224 H 0.73815 0.28788 0.14984 0.0
H225 H 0.79523 0.32208 0.21612 0.0
H226 H 0.83006 0.19421 0.22861 0.0
H227 H 0.77255 0.15946 0.1628 0.0
H228 H 0.39495 0.97102 0.0627 0.0
H229 H 0.3342 0.90084 1.01697 0.0
H230 H 0.20201 0.94856 1.01943 0.0
H231 H 0.2631 1.01898 0.06469 0.0
Tb232 Tb 0.55401 0.6646 0.63791 0.0
Tb233 Tb 0.52897 0.56716 0.59307 0.0
C234 C 0.54419 0.73859 0.66473 0.0
C235 C 0.49821 0.74537 0.68416 0.0
C236 C 0.44706 0.73422 0.6608 0.0
C237 C 0.40356 0.73981 0.67993 0.0
C238 C 0.41017 0.75653 0.7228 0.0
C239 C 0.46111 0.76723 0.74628 0.0
C240 C 0.50484 0.76203 0.72703 0.0
C241 C 0.5952 0.60809 0.67996 0.0
C242 C 0.43712 0.56807 0.6536 0.0
C243 C 0.53755 0.48843 0.58059 0.0
C244 C 0.57134 0.47316 0.55371 0.0
C245 C 0.61768 0.50877 0.53303 0.0
C246 C 0.65845 0.49611 0.51773 0.0
C247 C 0.65288 0.44752 0.5223 0.0
C248 C 0.60383 0.41102 0.53931 0.0
C249 C 0.56341 0.42386 0.55511 0.0
C250 C 0.50146 0.62424 0.53741 0.0
C251 C 0.64264 0.6646 0.57472 0.0
O252 O 0.53634 0.72521 0.62401 0.0
O253 O 0.56682 0.71447 0.68835 0.0
O254 O 0.54841 0.59408 0.6587 0.0
O255 O 0.62038 0.65612 0.67778 0.0
O256 O 0.46985 0.6157 0.66112 0.0
O257 O 0.45135 0.54139 0.62756 0.0
O258 O 0.56682 0.52076 0.61054 0.0
O259 O 0.49879 0.49886 0.56082 0.0
O260 O 0.5214 0.63336 0.57619 0.0
O261 O 0.494 0.57944 0.52965 0.0
O262 O 0.61394 0.61582 0.57206 0.0
O263 O 0.62575 0.69235 0.59699 0.0
H264 H 0.44041 0.72107 0.62773 0.0
H265 H 0.36489 0.73152 0.661 0.0
H266 H 0.46699 0.77919 0.77969 0.0
H267 H 0.54371 0.77059 0.74579 0.0
H268 H 0.6244 0.54698 0.53139 0.0
H269 H 0.6959 0.52481 0.50469 0.0
H270 H 0.59889 0.3734 0.54366 0.0
H271 H 0.52802 0.39596 0.57115 0.0
Tb272 Tb 0.06002 0.65468 0.08041 0.0
Tb273 Tb 0.0509 0.57076 0.14453 0.0
C274 C 0.03546 0.71158 1.03185 0.0
C275 C 0.98584 0.72176 1.02581 0.0
C276 C 0.93183 0.68464 1.03294 0.0
C277 C 0.88458 0.69341 1.02351 0.0
C278 C 0.89069 0.7396 1.00737 0.0
C279 C 0.94488 0.77728 1.00201 0.0
C280 C 0.99208 0.76832 1.01097 0.0
C281 C 0.15553 0.66828 0.12451 0.0
C282 C 1.01056 0.64917 0.17591 0.0
C283 C 0.08017 0.52003 0.19726 0.0
C284 C 0.13396 0.51753 0.20598 0.0
C285 C 0.18256 0.5524 0.18733 0.0
C286 C 0.23306 0.54823 0.19309 0.0
C287 C 0.2356 0.50873 0.21715 0.0
C288 C 0.18707 0.47452 0.23666 0.0
C289 C 0.13652 0.47885 0.231 0.0
C290 C 0.95461 0.54616 0.09699 0.0
C291 C 0.09392 0.5737 0.04833 0.0
O292 O 0.02787 0.66728 1.02052 0.0
O293 O 0.06477 0.72581 0.06858 0.0
O294 O 0.10625 0.64769 0.13741 0.0
O295 O 0.15231 0.68508 0.0857 0.0
O296 O 1.01698 0.66702 0.13548 0.0
O297 O 1.02188 0.61128 0.18749 0.0
O298 O 0.07904 0.56166 0.20743 0.0
O299 O 0.05639 0.50425 0.15897 0.0
O300 O 1.00029 0.58399 0.09579 0.0
O301 O 0.96148 0.51979 0.12872 0.0
O302 O 0.09913 0.56368 0.09022 0.0
O303 O 0.07242 0.60481 1.03612 0.0
H304 H 0.92611 0.64856 1.04491 0.0
H305 H 0.84327 0.664 1.02838 0.0
H306 H 0.9506 0.81315 0.98947 0.0
H307 H 0.03338 0.79741 1.0054 0.0
H308 H 0.1812 0.58237 0.16773 0.0
H309 H 0.27003 0.57569 0.17843 0.0
H310 H 0.18788 0.4437 0.2553 0.0
H311 H 0.09926 0.45151 0.24543 0.0
C312 C 0.37245 0.30862 0.38586 0.0
C313 C 0.42646 0.31094 0.38368 0.0
C314 C 0.34078 0.28899 0.42229 0.0
C315 C 0.36205 0.27121 0.45803 0.0
H316 H 0.35385 0.32074 0.35864 0.0
H317 H 0.29901 0.28723 0.42228 0.0
S318 S 0.50289 0.27208 0.46938 0.0
N319 N 0.50124 0.29643 0.42105 0.0
N320 N 0.44147 0.2589 0.48955 0.0
C321 C 0.41678 0.27478 0.45682 0.0
C322 C 0.44897 0.29465 0.41958 0.0
C323 C 0.21206 0.81337 0.93451 0.0
C324 C 0.19935 0.83441 0.89667 0.0
C325 C 0.23011 0.84037 0.9732 0.0
C326 C 0.23606 0.88924 0.97517 0.0
H327 H 0.20958 0.77637 0.93379 0.0
H328 H 0.2412 0.82355 1.00136 0.0
S329 S 0.21035 0.96163 0.88432 0.0
N330 N 0.19485 0.90702 0.86331 0.0
N331 N 0.22884 0.95773 0.93562 0.0
C332 C 0.22221 0.91015 0.93771 0.0
C333 C 0.20386 0.88274 0.89854 0.0
C334 C 0.56991 0.5103 0.76934 0.0
C335 C 0.61784 0.53164 0.79784 0.0
C336 C 0.56437 0.53351 0.73009 0.0
C337 C 0.60619 0.57973 0.71758 0.0
H338 H 0.53484 0.47649 0.77868 0.0
H339 H 0.52557 0.51631 0.71063 0.0
S340 S 0.74159 0.65017 0.779 0.0
N341 N 0.70918 0.60057 0.80919 0.0
N342 N 0.69917 0.6443 0.73605 0.0
C343 C 0.65559 0.60025 0.74468 0.0
C344 C 0.66131 0.5763 0.78452 0.0
C345 C 0.94791 0.67289 0.27892 0.0
C346 C 0.95334 0.7216 0.27297 0.0
C347 C 0.96734 0.64999 0.24823 0.0
C348 C 0.99207 0.67432 0.20965 0.0
H349 H 0.92612 0.65145 0.30642 0.0
H350 H 0.96103 0.61222 0.25409 0.0
S351 S 1.02083 0.80402 0.18067 0.0
N352 N 0.98942 0.79441 0.22699 0.0
N353 N 1.02456 0.75198 0.16978 0.0
C354 C 0.99957 0.72371 0.20442 0.0
C355 C 0.98066 0.74703 0.23579 0.0
C356 C 0.46951 0.22713 0.24931 0.0
C357 C 0.51166 0.27523 0.25658 0.0
C358 C 0.47745 0.19446 0.22195 0.0
C359 C 0.52804 0.20843 0.20099 0.0
H360 H 0.4292 0.21524 0.26357 0.0
H361 H 0.44306 0.15829 0.21653 0.0
S362 S 0.65343 0.32929 0.21253 0.0
N363 N 0.60696 0.33445 0.2431 0.0
N364 N 0.62237 0.2732 0.19168 0.0
C365 C 0.57152 0.25587 0.20954 0.0
C366 C 0.56314 0.28925 0.23721 0.0
C367 C 0.11141 0.94454 0.70801 0.0
C368 C 0.06077 0.90301 0.71572 0.0
C369 C 0.11214 0.99057 0.69718 0.0
C370 C 0.06222 0.99668 0.6938 0.0
H371 H 0.15033 0.94077 0.70786 0.0
H372 H 0.15154 1.0205 0.68856 0.0
S373 S 0.9202 0.9015 0.71917 0.0
N374 N 0.96083 0.87243 0.72519 0.0
N375 N 0.96188 0.95875 0.70525 0.0
C376 C 1.01204 0.95635 0.70514 0.0
C377 C 1.01134 0.90953 0.71586 0.0
C378 C 0.85344 0.51968 0.99713 0.0
C379 C 0.80134 0.48858 1.01428 0.0
C380 C 0.90295 0.54135 1.02421 0.0
C381 C 0.90203 0.53241 0.06929 0.0
H382 H 0.85649 0.52528 0.96243 0.0
H383 H 0.94254 0.56282 1.00948 0.0
S384 S 0.77534 0.46103 0.13109 0.0
N385 N 0.75142 0.45618 0.08014 0.0
N386 N 0.84371 0.49501 0.13008 0.0
C387 C 0.84977 0.5041 0.08689 0.0
C388 C 0.7997 0.4828 0.0597 0.0
C389 C 0.7419 0.71266 0.48156 0.0
C390 C 0.7945 0.74184 0.50246 0.0
C391 C 0.69341 0.68665 0.50517 0.0
C392 C 0.69503 0.68939 0.55064 0.0
H393 H 0.73752 0.71104 0.44654 0.0
H394 H 0.6539 0.66554 0.48756 0.0
S395 S 0.82177 0.75521 0.62206 0.0
N396 N 0.8451 0.76676 0.5726 0.0
N397 N 0.75351 0.7207 0.61602 0.0
C398 C 0.74703 0.71718 0.57213 0.0
C399 C 0.79674 0.7426 0.54835 0.0
C400 C 0.35867 0.48779 0.26619 0.0
C401 C 0.38937 0.48974 0.22985 0.0
C402 C 0.30909 0.49412 0.26189 0.0
C403 C 0.28841 0.50255 0.22109 0.0
H404 H 0.37334 0.48169 0.29823 0.0
H405 H 0.28703 0.49282 0.29075 0.0
S406 S 0.35047 0.50645 0.11547 0.0
N407 N 0.3939 0.4979 0.15155 0.0
N408 N 0.30066 0.50955 0.14341 0.0
C409 C 0.31831 0.50387 0.18445 0.0
C410 C 0.36878 0.49753 0.18884 0.0
C411 C 0.58249 0.31476 1.00906 0.0
C412 C 0.63483 0.32706 0.99142 0.0
C413 C 0.55299 0.26901 1.02988 0.0
C414 C 0.57396 0.23295 1.03375 0.0
H415 H 0.56495 0.34144 1.00807 0.0
H416 H 0.51344 0.26213 1.04354 0.0
S417 S 0.70716 0.245 0.99002 0.0
N418 N 0.70543 0.29834 0.97778 0.0
N419 N 0.64912 0.21193 1.01534 0.0
C420 C 0.62541 0.24407 1.01501 0.0
C421 C 0.65598 0.29111 0.99437 0.0
C422 C 0.93811 0.93671 0.49213 0.0
C423 C 0.96212 0.90435 0.48252 0.0
C424 C 0.96929 0.98191 0.51419 0.0
C425 C 1.02551 0.99621 0.52881 0.0
H426 H 0.89433 0.92644 0.48327 0.0
H427 H 0.9486 1.00501 0.52098 0.0
S428 S 0.10876 0.92572 0.51065 0.0
N429 N 0.04638 0.89122 0.48787 0.0
N430 N 0.10439 0.97466 0.53006 0.0
C431 C 0.05032 0.96471 0.51837 0.0
C432 C 1.01888 0.9193 0.49515 0.0
C433 C 0.26392 0.73151 0.75592 0.0
C434 C 0.27328 0.77459 0.77855 0.0
C435 C 0.30851 0.72569 0.73842 0.0
C436 C 0.3639 0.76293 0.74266 0.0
H437 H 0.22191 0.70206 0.75195 0.0
H438 H 0.29959 0.69169 0.72158 0.0
S439 S 0.40944 0.88452 0.79595 0.0
N440 N 0.34126 0.85607 0.80251 0.0
N441 N 0.42489 0.84545 0.7692 0.0
C442 C 0.37356 0.80644 0.76481 0.0
C443 C 0.32828 0.81222 0.78278 0.0
C444 C 0.73267 0.91338 0.83006 0.0
C445 C 0.71908 0.86268 0.83347 0.0
C446 C 0.75699 0.94038 0.79307 0.0
C447 C 0.76808 0.91754 0.75802 0.0
H448 H 0.72654 0.93278 0.85688 0.0
H449 H 0.76819 0.97966 0.79221 0.0
S450 S 0.73662 0.78487 0.74969 0.0
N451 N 0.71543 0.78996 0.79784 0.0
N452 N 0.76144 0.84087 0.72816 0.0
C453 C 0.75266 0.86645 0.76026 0.0
C454 C 0.72819 0.83899 0.79809 0.0
C455 C 0.85227 0.25886 0.34727 0.0
C456 C 0.89589 0.30608 0.35451 0.0
C457 C 0.82691 0.24471 0.30596 0.0
C458 C 0.84434 0.27739 0.27056 0.0
H459 H 0.83823 0.2325 0.3737 0.0
H460 H 0.79328 0.2079 0.30169 0.0
S461 S 0.95746 0.40526 0.27311 0.0
N462 N 0.95591 0.3856 0.32373 0.0
N463 N 0.90797 0.35913 0.2455 0.0
C464 C 0.8876 0.32506 0.27757 0.0
C465 C 0.91359 0.33936 0.31976 0.0
C466 C 0.45101 0.66379 0.43062 0.0
C467 C 0.48608 0.71473 0.4274 0.0
C468 C 0.45409 0.63586 0.46757 0.0
C469 C 0.49199 0.65739 0.5034 0.0
H470 H 0.4239 0.64457 0.40308 0.0
H471 H 0.4282 0.59633 0.46714 0.0
S472 S 0.59148 0.78993 0.51225 0.0
N473 N 0.55853 0.78589 0.46449 0.0
N474 N 0.56383 0.73373 0.53332 0.0
C475 C 0.52505 0.70876 0.5016 0.0
C476 C 0.52223 0.73717 0.46387 0.0
C477 C 0.17122 0.50769 0.99497 0.0
C478 C 0.145 0.4946 0.95297 0.0
C479 C 0.15532 0.53367 1.02485 0.0
C480 C 0.11312 0.54944 1.01431 0.0
H481 H 0.20297 0.49561 1.00579 0.0
H482 H 0.17587 0.54075 0.05688 0.0
S483 S 0.03352 0.52886 0.90791 0.0
N484 N 0.07577 0.50204 0.90221 0.0
N485 N 0.04753 0.55246 0.95723 0.0
C486 C 0.08875 0.53942 0.97157 0.0
C487 C 0.10434 0.51196 0.94128 0.0
C488 C 0.59905 0.95781 1.01703 0.0
C489 C 0.55271 0.92267 0.99338 0.0
C490 C 0.59864 1.00156 1.0315 0.0
C491 C 0.55179 1.01173 1.02298 0.0
H492 H 0.63476 0.95035 1.02626 0.0
H493 H 0.63411 1.02619 0.05158 0.0
S494 S 0.42482 0.93611 0.95483 0.0
N495 N 0.46224 0.90395 0.95681 0.0
N496 N 0.46119 0.98613 0.9842 0.0
C497 C 0.50679 0.97841 0.99684 0.0
C498 C 0.50731 0.93389 0.98202 0.0
C499 C 0.98607 0.2215 0.45596 0.0
C500 C 1.01333 0.27214 0.4662 0.0
C501 C 1.00098 0.18724 0.47783 0.0
C502 C 0.04411 0.20239 0.51036 0.0
H503 H 0.9499 0.20761 0.43338 0.0
H504 H 0.97636 0.1483 0.47094 0.0
S505 S 0.13404 0.3315 0.5447 0.0
N506 N 0.08953 0.33646 0.5074 0.0
N507 N 0.11818 0.27191 0.54848 0.0
C508 C 0.07512 0.25332 0.5182 0.0
C509 C 0.05945 0.28826 0.49619 0.0
C510 C 0.30861 0.74393 0.1624 0.0
C511 C 0.30761 0.74308 0.20806 0.0
C512 C 0.25991 0.71796 0.136 0.0
C513 C 0.20755 0.69005 0.15385 0.0
H514 H 0.34735 0.76613 0.1468 0.0
H515 H 0.26309 0.7211 0.10115 0.0
S516 S 0.1821 0.674 0.2716 0.0
N517 N 0.24999 0.71011 0.26995 0.0
N518 N 0.15838 0.66212 0.22066 0.0
C519 C 0.20626 0.68742 0.19953 0.0
C520 C 0.25619 0.71361 0.22648 0.0
C521 C 0.2874 0.48227 0.68278 0.0
C522 C 0.29042 0.48008 0.72866 0.0
C523 C 0.33431 0.51166 0.6588 0.0
C524 C 0.38621 0.54184 0.67941 0.0
H525 H 0.24857 0.45991 0.66491 0.0
H526 H 0.33005 0.51028 0.62374 0.0
S527 S 0.41821 0.55172 0.7981 0.0
N528 N 0.35147 0.51175 0.79332 0.0
N529 N 0.43816 0.56883 0.74826 0.0
C530 C 0.38965 0.54207 0.72506 0.0
C531 C 0.34222 0.51104 0.74963 0.0
C532 C 0.79244 0.8016 0.99335 0.0
C533 C 0.75416 0.77347 0.96033 0.0
C534 C 0.83542 0.78936 1.00964 0.0
C535 C 0.84095 0.74819 0.99385 0.0
H536 H 0.79088 0.83471 1.00504 0.0
H537 H 0.86548 0.81301 1.03391 0.0
S538 S 0.74874 0.66101 0.90939 0.0
N539 N 0.7227 0.70176 0.91366 0.0
N540 N 0.80275 0.67798 0.94482 0.0
C541 C 0.80116 0.71843 0.96229 0.0
C542 C 0.75796 0.73134 0.94532 0.0
C543 C 0.45477 0.92377 0.17793 0.0
C544 C 0.46224 0.91456 0.22257 0.0
C545 C 0.48026 0.97162 0.15969 0.0
C546 C 0.51597 1.01263 0.18477 0.0
H547 H 0.43011 0.89359 0.1562 0.0
H548 H 0.47383 0.97609 0.12523 0.0
S549 S 0.54791 1.01165 0.30297 0.0
N550 N 0.50546 0.95344 0.29166 0.0
N551 N 0.55644 0.04191 0.25649 0.0
C552 C 0.52393 1.00462 0.22914 0.0
C553 C 0.49653 0.95617 0.24818 0.0
C554 C 0.08331 0.28993 0.71398 0.0
C555 C 0.13827 0.30641 0.73213 0.0
C556 C 0.05728 0.24548 0.69016 0.0
C557 C 0.08438 0.21464 0.68389 0.0
H558 H 0.06076 0.31235 0.71711 0.0
H559 H 1.0154 0.23547 0.67612 0.0
S560 S 0.22778 0.23962 0.72694 0.0
N561 N 0.21872 0.28771 0.74297 0.0
N562 N 0.16904 0.20347 0.70008 0.0
C563 C 0.13876 0.22995 0.70311 0.0
C564 C 0.16581 0.27589 0.72661 0.0
C565 C 0.79518 0.44886 0.54452 0.0
C566 C 0.79045 0.4069 0.52231 0.0
C567 C 0.75175 0.4638 0.54166 0.0
C568 C 0.70176 0.43676 0.51708 0.0
H569 H 0.83172 0.46901 0.56567 0.0
H570 H 0.75596 0.49494 0.56099 0.0
S571 S 0.67059 0.32638 0.45029 0.0
N572 N 0.73381 0.34045 0.47262 0.0
N573 N 0.6516 0.36824 0.46777 0.0
C574 C 0.69764 0.39616 0.49307 0.0
C575 C 0.74223 0.38134 0.49549 0.0
loop_
_geom_bond_atom_site_label_1
_geom_bond_atom_site_label_2
_geom_bond_distance
_geom_bond_site_symmetry_2
_ccdc_geom_bond_type
H0 C1 0.949 . S
C1 H0 0.949 . S
C1 C2 1.395 . S
C1 C3 1.391 . S
C2 C1 1.395 . S
C2 C5 1.390 . S
C3 C1 1.391 . S
C3 C7 1.387 . S
C3 C8 1.491 . S
H4 C5 0.950 . S
C5 C2 1.390 . S
C5 H4 0.950 . S
C5 C6 1.378 . S
C6 C5 1.378 . S
C6 C7 1.409 . S
C7 C3 1.387 . S
C7 C6 1.409 . S
C7 H9 0.951 . S
C8 C3 1.491 . S
C8 C10 1.382 . S
C8 C12 1.404 . S
H9 C7 0.951 . S
C10 C8 1.382 . S
C10 C11 1.390 . S
C10 H15 0.949 . S
C11 C10 1.390 . S
C11 C16 1.399 . S
C12 C8 1.404 . S
C12 H13 0.950 . S
C12 C14 1.375 . S
H13 C12 0.950 . S
C14 C12 1.375 . S
C14 C16 1.382 . S
C14 H18 0.950 . S
H15 C10 0.949 . S
C16 C11 1.399 . S
C16 C14 1.382 . S
C16 H17 0.952 . S
H17 C16 0.952 . S
H18 C14 0.950 . S
H19 C20 0.949 . S
C20 H19 0.949 . S
C20 C21 1.395 . S
C20 C22 1.391 . S
C21 C20 1.395 . S
C21 C24 1.390 . S
C22 C20 1.391 . S
C22 C26 1.387 . S
C22 C27 1.491 . S
H23 C24 0.950 . S
C24 C21 1.390 . S
C24 H23 0.950 . S
C24 C25 1.378 . S
C25 C24 1.378 . S
C25 C26 1.409 . S
C26 C22 1.387 . S
C26 C25 1.409 . S
C26 H28 0.951 . S
C27 C22 1.491 . S
C27 C29 1.394 . S
C27 C31 1.404 1_455 S
H28 C26 0.951 . S
C29 C27 1.394 . S
C29 C30 1.371 1_455 S
C29 H34 0.955 . S
C30 C29 1.371 1_655 S
C30 C35 1.399 . S
C31 C27 1.404 1_655 S
C31 H32 0.950 . S
C31 C33 1.375 . S
H32 C31 0.950 . S
C33 C31 1.375 . S
C33 C35 1.382 . S
C33 H37 0.950 . S
H34 C29 0.955 . S
C35 C30 1.399 . S
C35 C33 1.382 . S
C35 H36 0.952 . S
H36 C35 0.952 . S
H37 C33 0.950 . S
H38 C39 0.949 . S
C39 H38 0.949 . S
C39 C40 1.395 . S
C39 C41 1.391 . S
C40 C39 1.395 . S
C40 C43 1.390 . S
C41 C39 1.391 . S
C41 C45 1.387 . S
C41 C46 1.491 . S
H42 C43 0.950 . S
C43 C40 1.390 . S
C43 H42 0.950 . S
C43 C44 1.378 . S
C44 C43 1.378 . S
C44 C45 1.409 . S
C45 C41 1.387 . S
C45 C44 1.409 . S
C45 H47 0.951 . S
C46 C41 1.491 . S
C46 C48 1.382 . S
C46 C50 1.404 . S
H47 C45 0.951 . S
C48 C46 1.382 . S
C48 C49 1.390 . S
C48 H53 0.949 . S
C49 C48 1.390 . S
C49 C54 1.399 . S
C50 C46 1.404 . S
C50 H51 0.950 . S
C50 C52 1.375 . S
H51 C50 0.950 . S
C52 C50 1.375 . S
C52 C54 1.382 . S
C52 H56 0.950 . S
H53 C48 0.949 . S
C54 C49 1.399 . S
C54 C52 1.382 . S
C54 H55 0.952 . S
H55 C54 0.952 . S
H56 C52 0.950 . S
H57 C58 0.949 . S
C58 H57 0.949 . S
C58 C59 1.395 . S
C58 C60 1.391 . S
C59 C58 1.395 . S
C59 C62 1.390 . S
C60 C58 1.391 . S
C60 C64 1.387 . S
C60 C65 1.491 . S
H61 C62 0.950 . S
C62 C59 1.390 . S
C62 H61 0.950 . S
C62 C63 1.378 . S
C63 C62 1.378 . S
C63 C64 1.409 . S
C64 C60 1.387 . S
C64 C63 1.409 . S
C64 H66 0.951 . S
C65 C60 1.491 . S
C65 C67 1.382 . S
C65 C69 1.404 . S
H66 C64 0.951 . S
C67 C65 1.382 . S
C67 C68 1.390 . S
C67 H72 0.949 . S
C68 C67 1.390 . S
C68 C73 1.399 . S
C69 C65 1.404 . S
C69 H70 0.950 . S
C69 C71 1.375 . S
H70 C69 0.950 . S
C71 C69 1.375 . S
C71 C73 1.382 . S
C71 H75 0.950 . S
H72 C67 0.949 . S
C73 C68 1.399 . S
C73 C71 1.382 . S
C73 H74 0.952 . S
H74 C73 0.952 . S
H75 C71 0.950 . S
H76 C77 0.949 . S
C77 H76 0.949 . S
C77 C78 1.395 . S
C77 C79 1.391 . S
C78 C77 1.395 . S
C78 C81 1.390 . S
C79 C77 1.391 . S
C79 C83 1.387 . S
C79 C84 1.491 . S
H80 C81 0.950 . S
C81 C78 1.390 . S
C81 H80 0.950 . S
C81 C82 1.378 . S
C82 C81 1.378 . S
C82 C83 1.409 . S
C83 C79 1.387 . S
C83 C82 1.409 . S
C83 H85 0.951 . S
C84 C79 1.491 . S
C84 C86 1.382 . S
C84 C88 1.404 . S
H85 C83 0.951 . S
C86 C84 1.382 . S
C86 C87 1.390 . S
C86 H91 0.949 . S
C87 C86 1.390 . S
C87 C92 1.399 . S
C88 C84 1.404 . S
C88 H89 0.950 . S
C88 C90 1.375 . S
H89 C88 0.950 . S
C90 C88 1.375 . S
C90 C92 1.382 . S
C90 H94 0.950 . S
H91 C86 0.949 . S
C92 C87 1.399 . S
C92 C90 1.382 . S
C92 H93 0.952 . S
H93 C92 0.952 . S
H94 C90 0.950 . S
H95 C96 0.949 . S
C96 H95 0.949 . S
C96 C97 1.395 . S
C96 C98 1.391 . S
C97 C96 1.395 . S
C97 C100 1.390 . S
C98 C96 1.391 . S
C98 C102 1.387 . S
C98 C103 1.491 . S
H99 C100 0.950 . S
C100 C97 1.390 . S
C100 H99 0.950 . S
C100 C101 1.378 . S
C101 C100 1.378 . S
C101 C102 1.409 . S
C102 C98 1.387 . S
C102 C101 1.409 . S
C102 H104 0.951 . S
C103 C98 1.491 . S
C103 C105 1.382 . S
C103 C107 1.404 . S
H104 C102 0.951 . S
C105 C103 1.382 . S
C105 C106 1.390 . S
C105 H110 0.949 . S
C106 C105 1.390 . S
C106 C111 1.399 . S
C107 C103 1.404 . S
C107 H108 0.950 . S
C107 C109 1.375 . S
H108 C107 0.950 . S
C109 C107 1.375 . S
C109 C111 1.382 . S
C109 H113 0.950 . S
H110 C105 0.949 . S
C111 C106 1.399 . S
C111 C109 1.382 . S
C111 H112 0.952 . S
H112 C111 0.952 . S
H113 C109 0.950 . S
H114 C115 0.949 . S
C115 H114 0.949 . S
C115 C116 1.395 . S
C115 C117 1.391 . S
C116 C115 1.395 . S
C116 C119 1.390 . S
C117 C115 1.391 . S
C117 C121 1.387 . S
C117 C122 1.491 . S
H118 C119 0.950 . S
C119 C116 1.390 . S
C119 H118 0.950 . S
C119 C120 1.378 . S
C120 C119 1.378 . S
C120 C121 1.409 . S
C121 C117 1.387 . S
C121 C120 1.409 . S
C121 H123 0.951 . S
C122 C117 1.491 . S
C122 C124 1.382 . S
C122 C126 1.404 . S
H123 C121 0.951 . S
C124 C122 1.382 . S
C124 C125 1.390 . S
C124 H129 0.949 . S
C125 C124 1.390 . S
C125 C130 1.399 . S
C126 C122 1.404 . S
C126 H127 0.950 . S
C126 C128 1.375 . S
H127 C126 0.950 . S
C128 C126 1.375 . S
C128 C130 1.382 . S
C128 H132 0.950 . S
H129 C124 0.949 . S
C130 C125 1.399 . S
C130 C128 1.382 . S
C130 H131 0.952 . S
H131 C130 0.952 . S
H132 C128 0.950 . S
H133 C134 0.949 . S
C134 H133 0.949 . S
C134 C135 1.395 . S
C134 C136 1.391 . S
C135 C134 1.395 . S
C135 C138 1.390 . S
C136 C134 1.391 . S
C136 C140 1.387 . S
C136 C141 1.491 . S
H137 C138 0.950 . S
C138 C135 1.390 . S
C138 H137 0.950 . S
C138 C139 1.378 . S
C139 C138 1.378 . S
C139 C140 1.409 . S
C140 C136 1.387 . S
C140 C139 1.409 . S
C140 H142 0.951 . S
C141 C136 1.491 . S
C141 C143 1.382 . S
C141 C145 1.404 . S
H142 C140 0.951 . S
C143 C141 1.382 . S
C143 C144 1.390 . S
C143 H148 0.949 . S
C144 C143 1.390 . S
C144 C149 1.399 . S
C145 C141 1.404 . S
C145 H146 0.950 . S
C145 C147 1.375 . S
H146 C145 0.950 . S
C147 C145 1.375 . S
C147 C149 1.382 . S
C147 H151 0.950 . S
H148 C143 0.949 . S
C149 C144 1.399 . S
C149 C147 1.382 . S
C149 H150 0.952 . S
H150 C149 0.952 . S
H151 C147 0.950 . S
Tb152 C154 2.809 1_545 S
Tb152 O172 2.484 1_545 S
Tb152 O173 2.440 . S
Tb152 O174 2.658 1_655 S
Tb152 O175 2.409 1_655 S
Tb152 O176 2.378 1_655 S
Tb152 O180 2.325 1_545 S
Tb152 O183 2.341 . S
Tb153 C163 2.809 . S
Tb153 O174 2.325 . S
Tb153 O177 2.341 . S
Tb153 O178 2.484 . S
Tb153 O179 2.440 . S
Tb153 O180 2.658 1_445 S
Tb153 O181 2.409 1_545 S
Tb153 O182 2.378 . S
C154 Tb152 2.809 1_565 S
C154 C155 1.514 . S
C154 O172 1.248 . S
C154 O173 1.266 1_565 S
C155 C154 1.514 . S
C155 C156 1.359 . S
C155 C160 1.348 . S
C156 C155 1.359 . S
C156 C157 1.380 . S
C156 H184 0.929 . S
C157 C156 1.380 . S
C157 C158 1.347 . S
C157 H185 0.931 . S
C158 C157 1.347 . S
C158 C159 1.369 . S
C159 C158 1.369 . S
C159 C160 1.408 . S
C159 H186 0.930 . S
C160 C155 1.348 . S
C160 C159 1.408 . S
C160 H187 0.930 . S
C161 O174 1.281 . S
C161 O175 1.254 . S
C162 O176 1.236 1_565 S
C162 O177 1.266 1_565 S
C163 Tb153 2.809 . S
C163 C164 1.514 . S
C163 O178 1.248 . S
C163 O179 1.266 . S
C164 C163 1.514 . S
C164 C165 1.359 . S
C164 C169 1.348 . S
C165 C164 1.359 . S
C165 C166 1.380 . S
C165 H188 0.929 . S
C166 C165 1.380 . S
C166 C167 1.347 . S
C166 H189 0.931 . S
C167 C166 1.347 . S
C167 C168 1.369 . S
C168 C167 1.369 . S
C168 C169 1.408 . S
C168 H190 0.930 . S
C169 C164 1.348 . S
C169 C168 1.408 . S
C169 H191 0.930 . S
C170 O180 1.281 . S
C170 O181 1.254 1_655 S
C171 O182 1.236 1_655 S
C171 O183 1.266 . S
O172 Tb152 2.484 1_565 S
O172 C154 1.248 . S
O173 Tb152 2.440 . S
O173 C154 1.266 1_545 S
O174 Tb152 2.658 1_455 S
O174 Tb153 2.325 . S
O174 C161 1.281 . S
O175 Tb152 2.409 1_455 S
O175 C161 1.254 . S
O176 Tb152 2.378 1_455 S
O176 C162 1.236 1_545 S
O177 Tb153 2.341 . S
O177 C162 1.266 1_545 S
O178 Tb153 2.484 . S
O178 C163 1.248 . S
O179 Tb153 2.440 . S
O179 C163 1.266 . S
O180 Tb152 2.325 1_565 S
O180 Tb153 2.658 1_665 S
O180 C170 1.281 . S
O181 Tb153 2.409 1_565 S
O181 C170 1.254 1_455 S
O182 Tb153 2.378 . S
O182 C171 1.236 1_455 S
O183 Tb152 2.341 . S
O183 C171 1.266 . S
H184 C156 0.929 . S
H185 C157 0.931 . S
H186 C159 0.930 . S
H187 C160 0.930 . S
H188 C165 0.929 . S
H189 C166 0.931 . S
H190 C168 0.930 . S
H191 C169 0.930 . S
Tb192 C194 2.809 . S
Tb192 O212 2.484 . S
Tb192 O213 2.440 . S
Tb192 O214 2.658 1_545 S
Tb192 O215 2.409 1_545 S
Tb192 O216 2.378 . S
Tb192 O220 2.325 . S
Tb192 O223 2.331 1_545 S
Tb193 C203 2.825 1_545 S
Tb193 O214 2.325 1_545 S
Tb193 O217 2.341 . S
Tb193 O218 2.484 1_545 S
Tb193 O219 2.440 1_544 S
Tb193 O220 2.658 . S
Tb193 O221 2.409 . S
Tb193 O222 2.378 1_545 S
C194 Tb192 2.809 . S
C194 C195 1.514 . S
C194 O212 1.248 . S
C194 O213 1.266 . S
C195 C194 1.514 . S
C195 C196 1.359 . S
C195 C200 1.348 . S
C196 C195 1.359 . S
C196 C197 1.380 . S
C196 H224 0.929 . S
C197 C196 1.380 . S
C197 C198 1.347 . S
C197 H225 0.931 . S
C198 C197 1.347 . S
C198 C199 1.369 . S
C199 C198 1.369 . S
C199 C200 1.408 . S
C199 H226 0.930 . S
C200 C195 1.348 . S
C200 C199 1.408 . S
C200 H227 0.930 . S
C201 O214 1.281 . S
C201 O215 1.254 . S
C202 O216 1.236 . S
C202 O217 1.266 . S
C203 Tb193 2.825 1_565 S
C203 C204 1.496 1_554 S
C203 O218 1.271 . S
C203 O219 1.260 1_554 S
C204 C203 1.496 1_556 S
C204 C205 1.359 . S
C204 C209 1.348 . S
C205 C204 1.359 . S
C205 C206 1.380 . S
C205 H228 0.929 1_556 S
C206 C205 1.380 . S
C206 C207 1.347 . S
C206 H229 0.931 . S
C207 C206 1.347 . S
C207 C208 1.369 . S
C208 C207 1.369 . S
C208 C209 1.408 . S
C208 H230 0.930 . S
C209 C204 1.348 . S
C209 C208 1.408 . S
C209 H231 0.930 . S
C210 O220 1.281 . S
C210 O221 1.254 . S
C211 O222 1.236 . S
C211 O223 1.268 . S
O212 Tb192 2.484 . S
O212 C194 1.248 . S
O213 Tb192 2.440 . S
O213 C194 1.266 . S
O214 Tb192 2.658 1_565 S
O214 Tb193 2.325 1_565 S
O214 C201 1.281 . S
O215 Tb192 2.409 1_565 S
O215 C201 1.254 . S
O216 Tb192 2.378 . S
O216 C202 1.236 . S
O217 Tb193 2.341 . S
O217 C202 1.266 . S
O218 Tb193 2.484 1_565 S
O218 C203 1.271 . S
O219 Tb193 2.440 1_566 S
O219 C203 1.260 1_556 S
O220 Tb192 2.325 . S
O220 Tb193 2.658 . S
O220 C210 1.281 . S
O221 Tb193 2.409 . S
O221 C210 1.254 . S
O222 Tb193 2.378 1_565 S
O222 C211 1.236 . S
O223 Tb192 2.331 1_565 S
O223 C211 1.268 . S
H224 C196 0.929 . S
H225 C197 0.931 . S
H226 C199 0.930 . S
H227 C200 0.930 . S
H228 C205 0.929 1_554 S
H229 C206 0.931 . S
H230 C208 0.930 . S
H231 C209 0.930 . S
Tb232 C234 2.809 . S
Tb232 O252 2.484 . S
Tb232 O253 2.440 . S
Tb232 O254 2.658 . S
Tb232 O255 2.409 . S
Tb232 O256 2.378 . S
Tb232 O260 2.325 . S
Tb232 O263 2.341 . S
Tb233 C243 2.809 . S
Tb233 O254 2.325 . S
Tb233 O257 2.341 . S
Tb233 O258 2.484 . S
Tb233 O259 2.440 . S
Tb233 O260 2.658 . S
Tb233 O261 2.409 . S
Tb233 O262 2.378 . S
C234 Tb232 2.809 . S
C234 C235 1.514 . S
C234 O252 1.248 . S
C234 O253 1.266 . S
C235 C234 1.514 . S
C235 C236 1.359 . S
C235 C240 1.348 . S
C236 C235 1.359 . S
C236 C237 1.380 . S
C236 H264 0.929 . S
C237 C236 1.380 . S
C237 C238 1.347 . S
C237 H265 0.931 . S
C238 C237 1.347 . S
C238 C239 1.369 . S
C239 C238 1.369 . S
C239 C240 1.408 . S
C239 H266 0.930 . S
C240 C235 1.348 . S
C240 C239 1.408 . S
C240 H267 0.930 . S
C241 O254 1.281 . S
C241 O255 1.254 . S
C242 O256 1.236 . S
C242 O257 1.266 . S
C243 Tb233 2.809 . S
C243 C244 1.514 . S
C243 O258 1.248 . S
C243 O259 1.266 . S
C244 C243 1.514 . S
C244 C245 1.359 . S
C244 C249 1.348 . S
C245 C244 1.359 . S
C245 C246 1.380 . S
C245 H268 0.929 . S
C246 C245 1.380 . S
C246 C247 1.347 . S
C246 H269 0.931 . S
C247 C246 1.347 . S
C247 C248 1.369 . S
C248 C247 1.369 . S
C248 C249 1.408 . S
C248 H270 0.930 . S
C249 C244 1.348 . S
C249 C248 1.408 . S
C249 H271 0.930 . S
C250 O260 1.281 . S
C250 O261 1.254 . S
C251 O262 1.236 . S
C251 O263 1.266 . S
O252 Tb232 2.484 . S
O252 C234 1.248 . S
O253 Tb232 2.440 . S
O253 C234 1.266 . S
O254 Tb232 2.658 . S
O254 Tb233 2.325 . S
O254 C241 1.281 . S
O255 Tb232 2.409 . S
O255 C241 1.254 . S
O256 Tb232 2.378 . S
O256 C242 1.236 . S
O257 Tb233 2.341 . S
O257 C242 1.266 . S
O258 Tb233 2.484 . S
O258 C243 1.248 . S
O259 Tb233 2.440 . S
O259 C243 1.266 . S
O260 Tb232 2.325 . S
O260 Tb233 2.658 . S
O260 C250 1.281 . S
O261 Tb233 2.409 . S
O261 C250 1.254 . S
O262 Tb233 2.378 . S
O262 C251 1.236 . S
O263 Tb232 2.341 . S
O263 C251 1.266 . S
H264 C236 0.929 . S
H265 C237 0.931 . S
H266 C239 0.930 . S
H267 C240 0.930 . S
H268 C245 0.929 . S
H269 C246 0.931 . S
H270 C248 0.930 . S
H271 C249 0.930 . S
Tb272 C274 2.809 . S
Tb272 O292 2.484 1_455 S
Tb272 O293 2.440 . S
Tb272 O294 2.658 1_556 S
Tb272 O295 2.409 1_556 S
Tb272 O296 2.378 1_556 S
Tb272 O300 2.325 1_556 S
Tb272 O303 2.341 . S
Tb273 C283 2.809 . S
Tb273 O294 2.325 . S
Tb273 O297 2.341 . S
Tb273 O298 2.484 . S
Tb273 O299 2.440 . S
Tb273 O300 2.658 . S
Tb273 O301 2.409 1_455 S
Tb273 O302 2.378 1_554 S
C274 Tb272 2.809 . S
C274 C275 1.514 1_455 S
C274 O292 1.248 1_455 S
C274 O293 1.266 . S
C275 C274 1.514 1_655 S
C275 C276 1.359 . S
C275 C280 1.348 . S
C276 C275 1.359 . S
C276 C277 1.380 . S
C276 H304 0.929 . S
C277 C276 1.380 . S
C277 C278 1.347 . S
C277 H305 0.931 . S
C278 C277 1.347 . S
C278 C279 1.369 . S
C279 C278 1.369 . S
C279 C280 1.408 . S
C279 H306 0.930 . S
C280 C275 1.348 . S
C280 C279 1.408 . S
C280 H307 0.930 1_655 S
C281 O294 1.281 . S
C281 O295 1.254 . S
C282 O296 1.236 . S
C282 O297 1.266 . S
C283 Tb273 2.809 . S
C283 C284 1.514 . S
C283 O298 1.248 . S
C283 O299 1.266 . S
C284 C283 1.514 . S
C284 C285 1.359 . S
C284 C289 1.348 . S
C285 C284 1.359 . S
C285 C286 1.380 . S
C285 H308 0.929 . S
C286 C285 1.380 . S
C286 C287 1.347 . S
C286 H309 0.931 . S
C287 C286 1.347 . S
C287 C288 1.369 . S
C288 C287 1.369 . S
C288 C289 1.408 . S
C288 H310 0.930 . S
C289 C284 1.348 . S
C289 C288 1.408 . S
C289 H311 0.930 . S
C290 O300 1.281 1_656 S
C290 O301 1.254 1_556 S
C291 O302 1.236 . S
C291 O303 1.266 . S
O292 Tb272 2.484 1_655 S
O292 C274 1.248 1_655 S
O293 Tb272 2.440 . S
O293 C274 1.266 . S
O294 Tb272 2.658 1_554 S
O294 Tb273 2.325 . S
O294 C281 1.281 . S
O295 Tb272 2.409 1_554 S
O295 C281 1.254 . S
O296 Tb272 2.378 1_554 S
O296 C282 1.236 . S
O297 Tb273 2.341 . S
O297 C282 1.266 . S
O298 Tb273 2.484 . S
O298 C283 1.248 . S
O299 Tb273 2.440 . S
O299 C283 1.266 . S
O300 Tb272 2.325 1_554 S
O300 Tb273 2.658 . S
O300 C290 1.281 1_454 S
O301 Tb273 2.409 1_655 S
O301 C290 1.254 1_554 S
O302 Tb273 2.378 1_556 S
O302 C291 1.236 . S
O303 Tb272 2.341 . S
O303 C291 1.266 . S
H304 C276 0.929 . S
H305 C277 0.931 . S
H306 C279 0.930 . S
H307 C280 0.930 1_455 S
H308 C285 0.929 . S
H309 C286 0.931 . S
H310 C288 0.930 . S
H311 C289 0.930 . S
C312 C313 1.369 . S
C312 C314 1.419 . S
C312 H316 0.930 . S
C313 C312 1.369 . S
C313 C322 1.429 . S
C314 C312 1.419 . S
C314 C315 1.363 . S
C314 H317 0.929 . S
C315 C314 1.363 . S
C315 C321 1.428 . S
H316 C312 0.930 . S
H317 C314 0.929 . S
S318 N319 1.613 . S
S318 N320 1.610 . S
N319 S318 1.613 . S
N319 C322 1.350 . S
N320 S318 1.610 . S
N320 C321 1.351 . S
C321 C315 1.428 . S
C321 N320 1.351 . S
C321 C322 1.434 . S
C322 C313 1.429 . S
C322 N319 1.350 . S
C322 C321 1.434 . S
C323 C324 1.369 . S
C323 C325 1.419 . S
C323 H327 0.930 . S
C324 C323 1.369 . S
C324 C333 1.429 . S
C325 C323 1.419 . S
C325 C326 1.363 . S
C325 H328 0.929 . S
C326 C325 1.363 . S
C326 C332 1.428 . S
H327 C323 0.930 . S
H328 C325 0.929 . S
S329 N330 1.613 . S
S329 N331 1.610 . S
N330 S329 1.613 . S
N330 C333 1.350 . S
N331 S329 1.610 . S
N331 C332 1.351 . S
C332 C326 1.428 . S
C332 N331 1.351 . S
C332 C333 1.434 . S
C333 C324 1.429 . S
C333 N330 1.350 . S
C333 C332 1.434 . S
C334 C335 1.369 . S
C334 C336 1.419 . S
C334 H338 0.930 . S
C335 C334 1.369 . S
C335 C344 1.429 . S
C336 C334 1.419 . S
C336 C337 1.363 . S
C336 H339 0.929 . S
C337 C336 1.363 . S
C337 C343 1.428 . S
H338 C334 0.930 . S
H339 C336 0.929 . S
S340 N341 1.613 . S
S340 N342 1.610 . S
N341 S340 1.613 . S
N341 C344 1.350 . S
N342 S340 1.610 . S
N342 C343 1.351 . S
C343 C337 1.428 . S
C343 N342 1.351 . S
C343 C344 1.434 . S
C344 C335 1.429 . S
C344 N341 1.350 . S
C344 C343 1.434 . S
C345 C346 1.369 . S
C345 C347 1.419 . S
C345 H349 0.930 . S
C346 C345 1.369 . S
C346 C355 1.429 . S
C347 C345 1.419 . S
C347 C348 1.363 . S
C347 H350 0.929 . S
C348 C347 1.363 . S
C348 C354 1.428 . S
H349 C345 0.930 . S
H350 C347 0.929 . S
S351 N352 1.613 . S
S351 N353 1.610 . S
N352 S351 1.613 . S
N352 C355 1.350 1_455 S
N353 S351 1.610 . S
N353 C354 1.351 1_455 S
C354 C348 1.428 . S
C354 N353 1.351 1_655 S
C354 C355 1.434 . S
C355 C346 1.429 . S
C355 N352 1.350 1_655 S
C355 C354 1.434 . S
C356 C357 1.369 . S
C356 C358 1.419 . S
C356 H360 0.930 . S
C357 C356 1.369 . S
C357 C366 1.429 . S
C358 C356 1.419 . S
C358 C359 1.363 . S
C358 H361 0.929 . S
C359 C358 1.363 . S
C359 C365 1.428 . S
H360 C356 0.930 . S
H361 C358 0.929 . S
S362 N363 1.613 . S
S362 N364 1.610 . S
N363 S362 1.613 . S
N363 C366 1.350 . S
N364 S362 1.610 . S
N364 C365 1.351 . S
C365 C359 1.428 . S
C365 N364 1.351 . S
C365 C366 1.434 . S
C366 C357 1.429 . S
C366 N363 1.350 . S
C366 C365 1.434 . S
C367 C368 1.369 1_455 S
C367 C369 1.419 . S
C367 H371 0.930 . S
C368 C367 1.369 1_655 S
C368 C377 1.429 . S
C369 C367 1.419 . S
C369 C370 1.363 . S
C369 H372 0.929 . S
C370 C369 1.363 . S
C370 C376 1.428 1_455 S
H371 C367 0.930 . S
H372 C369 0.929 . S
S373 N374 1.613 . S
S373 N375 1.610 . S
N374 S373 1.613 . S
N374 C377 1.350 . S
N375 S373 1.610 . S
N375 C376 1.351 . S
C376 C370 1.428 1_655 S
C376 N375 1.351 . S
C376 C377 1.434 . S
C377 C368 1.429 . S
C377 N374 1.350 . S
C377 C376 1.434 . S
C378 C379 1.369 . S
C378 C380 1.419 . S
C378 H382 0.930 . S
C379 C378 1.369 . S
C379 C388 1.429 . S
C380 C378 1.419 . S
C380 C381 1.363 . S
C380 H383 0.929 . S
C381 C380 1.363 . S
C381 C387 1.428 . S
H382 C378 0.930 . S
H383 C380 0.929 . S
S384 N385 1.613 1_554 S
S384 N386 1.610 . S
N385 S384 1.613 1_556 S
N385 C388 1.350 . S
N386 S384 1.610 . S
N386 C387 1.351 1_554 S
C387 C381 1.428 . S
C387 N386 1.351 1_556 S
C387 C388 1.434 . S
C388 C379 1.429 . S
C388 N385 1.350 . S
C388 C387 1.434 . S
C389 C390 1.369 . S
C389 C391 1.419 . S
C389 H393 0.930 . S
C390 C389 1.369 . S
C390 C399 1.429 . S
C391 C389 1.419 . S
C391 C392 1.363 . S
C391 H394 0.929 . S
C392 C391 1.363 . S
C392 C398 1.428 . S
H393 C389 0.930 . S
H394 C391 0.929 . S
S395 N396 1.613 . S
S395 N397 1.610 . S
N396 S395 1.613 . S
N396 C399 1.350 . S
N397 S395 1.610 . S
N397 C398 1.351 . S
C398 C392 1.428 . S
C398 N397 1.351 . S
C398 C399 1.434 . S
C399 C390 1.429 . S
C399 N396 1.350 . S
C399 C398 1.434 . S
C400 C401 1.369 . S
C400 C402 1.419 . S
C400 H404 0.930 . S
C401 C400 1.369 . S
C401 C410 1.429 . S
C402 C400 1.419 . S
C402 C403 1.363 . S
C402 H405 0.929 . S
C403 C402 1.363 . S
C403 C409 1.428 . S
H404 C400 0.930 . S
H405 C402 0.929 . S
S406 N407 1.613 . S
S406 N408 1.610 . S
N407 S406 1.613 . S
N407 C410 1.350 . S
N408 S406 1.610 . S
N408 C409 1.351 . S
C409 C403 1.428 . S
C409 N408 1.351 . S
C409 C410 1.434 . S
C410 C401 1.429 . S
C410 N407 1.350 . S
C410 C409 1.434 . S
C411 C412 1.369 . S
C411 C413 1.419 . S
C411 H415 0.930 . S
C412 C411 1.369 . S
C412 C421 1.429 . S
C413 C411 1.419 . S
C413 C414 1.363 1_556 S
C413 H416 0.929 . S
C414 C413 1.363 1_554 S
C414 C420 1.428 . S
H415 C411 0.930 . S
H416 C413 0.929 . S
S417 N418 1.613 . S
S417 N419 1.610 . S
N418 S417 1.613 . S
N418 C421 1.350 1_554 S
N419 S417 1.610 . S
N419 C420 1.351 . S
C420 C414 1.428 . S
C420 N419 1.351 . S
C420 C421 1.434 1_554 S
C421 C412 1.429 . S
C421 N418 1.350 1_556 S
C421 C420 1.434 1_556 S
C422 C423 1.369 . S
C422 C424 1.419 . S
C422 H426 0.930 . S
C423 C422 1.369 . S
C423 C432 1.429 . S
C424 C422 1.419 . S
C424 C425 1.363 . S
C424 H427 0.929 . S
C425 C424 1.363 . S
C425 C431 1.428 . S
H426 C422 0.930 . S
H427 C424 0.929 . S
S428 N429 1.613 1_455 S
S428 N430 1.610 . S
N429 S428 1.613 1_655 S
N429 C432 1.350 . S
N430 S428 1.610 . S
N430 C431 1.351 1_455 S
C431 C425 1.428 . S
C431 N430 1.351 1_655 S
C431 C432 1.434 . S
C432 C423 1.429 . S
C432 N429 1.350 . S
C432 C431 1.434 . S
C433 C434 1.369 . S
C433 C435 1.419 . S
C433 H437 0.930 . S
C434 C433 1.369 . S
C434 C443 1.429 . S
C435 C433 1.419 . S
C435 C436 1.363 . S
C435 H438 0.929 . S
C436 C435 1.363 . S
C436 C442 1.428 . S
H437 C433 0.930 . S
H438 C435 0.929 . S
S439 N440 1.613 . S
S439 N441 1.610 . S
N440 S439 1.613 . S
N440 C443 1.350 . S
N441 S439 1.610 . S
N441 C442 1.351 . S
C442 C436 1.428 . S
C442 N441 1.351 . S
C442 C443 1.434 . S
C443 C434 1.429 . S
C443 N440 1.350 . S
C443 C442 1.434 . S
C444 C445 1.369 . S
C444 C446 1.419 . S
C444 H448 0.930 . S
C445 C444 1.369 . S
C445 C454 1.429 . S
C446 C444 1.419 . S
C446 C447 1.363 . S
C446 H449 0.929 . S
C447 C446 1.363 . S
C447 C453 1.428 . S
H448 C444 0.930 . S
H449 C446 0.929 . S
S450 N451 1.613 . S
S450 N452 1.610 . S
N451 S450 1.613 . S
N451 C454 1.350 . S
N452 S450 1.610 . S
N452 C453 1.351 . S
C453 C447 1.428 . S
C453 N452 1.351 . S
C453 C454 1.434 . S
C454 C445 1.429 . S
C454 N451 1.350 . S
C454 C453 1.434 . S
C455 C456 1.369 . S
C455 C457 1.419 . S
C455 H459 0.930 . S
C456 C455 1.369 . S
C456 C465 1.429 . S
C457 C455 1.419 . S
C457 C458 1.363 . S
C457 H460 0.929 . S
C458 C457 1.363 . S
C458 C464 1.428 . S
H459 C455 0.930 . S
H460 C457 0.929 . S
S461 N462 1.613 . S
S461 N463 1.610 . S
N462 S461 1.613 . S
N462 C465 1.350 . S
N463 S461 1.610 . S
N463 C464 1.351 . S
C464 C458 1.428 . S
C464 N463 1.351 . S
C464 C465 1.434 . S
C465 C456 1.429 . S
C465 N462 1.350 . S
C465 C464 1.434 . S
C466 C467 1.369 . S
C466 C468 1.419 . S
C466 H470 0.930 . S
C467 C466 1.369 . S
C467 C476 1.429 . S
C468 C466 1.419 . S
C468 C469 1.363 . S
C468 H471 0.929 . S
C469 C468 1.363 . S
C469 C475 1.428 . S
H470 C466 0.930 . S
H471 C468 0.929 . S
S472 N473 1.613 . S
S472 N474 1.610 . S
N473 S472 1.613 . S
N473 C476 1.350 . S
N474 S472 1.610 . S
N474 C475 1.351 . S
C475 C469 1.428 . S
C475 N474 1.351 . S
C475 C476 1.434 . S
C476 C467 1.429 . S
C476 N473 1.350 . S
C476 C475 1.434 . S
C477 C478 1.369 . S
C477 C479 1.419 . S
C477 H481 0.930 . S
C478 C477 1.369 . S
C478 C487 1.429 . S
C479 C477 1.419 . S
C479 C480 1.363 . S
C479 H482 0.929 . S
C480 C479 1.363 . S
C480 C486 1.428 . S
H481 C477 0.930 . S
H482 C479 0.929 . S
S483 N484 1.613 . S
S483 N485 1.610 . S
N484 S483 1.613 . S
N484 C487 1.350 . S
N485 S483 1.610 . S
N485 C486 1.351 . S
C486 C480 1.428 . S
C486 N485 1.351 . S
C486 C487 1.434 . S
C487 C478 1.429 . S
C487 N484 1.350 . S
C487 C486 1.434 . S
C488 C489 1.369 1_554 S
C488 C490 1.419 . S
C488 H492 0.930 . S
C489 C488 1.369 1_556 S
C489 C498 1.429 . S
C490 C488 1.419 . S
C490 C491 1.363 . S
C490 H493 0.929 . S
C491 C490 1.363 . S
C491 C497 1.428 1_554 S
H492 C488 0.930 . S
H493 C490 0.929 . S
S494 N495 1.613 . S
S494 N496 1.610 . S
N495 S494 1.613 . S
N495 C498 1.350 . S
N496 S494 1.610 . S
N496 C497 1.351 . S
C497 C491 1.428 1_556 S
C497 N496 1.351 . S
C497 C498 1.434 . S
C498 C489 1.429 . S
C498 N495 1.350 . S
C498 C497 1.434 . S
C499 C500 1.369 . S
C499 C501 1.419 . S
C499 H503 0.930 . S
C500 C499 1.369 . S
C500 C509 1.429 . S
C501 C499 1.419 . S
C501 C502 1.363 . S
C501 H504 0.929 . S
C502 C501 1.363 . S
C502 C508 1.428 . S
H503 C499 0.930 . S
H504 C501 0.929 . S
S505 N506 1.613 . S
S505 N507 1.604 . S
N506 S505 1.613 . S
N506 C509 1.350 1_455 S
N507 S505 1.604 . S
N507 C508 1.351 1_455 S
C508 C502 1.428 . S
C508 N507 1.351 1_655 S
C508 C509 1.434 . S
C509 C500 1.429 . S
C509 N506 1.350 1_655 S
C509 C508 1.434 . S
C510 C511 1.369 . S
C510 C512 1.419 . S
C510 H514 0.930 . S
C511 C510 1.369 . S
C511 C520 1.429 . S
C512 C510 1.419 . S
C512 C513 1.363 . S
C512 H515 0.929 . S
C513 C512 1.363 . S
C513 C519 1.428 . S
H514 C510 0.930 . S
H515 C512 0.929 . S
S516 N517 1.613 . S
S516 N518 1.610 . S
N517 S516 1.613 . S
N517 C520 1.350 . S
N518 S516 1.610 . S
N518 C519 1.351 . S
C519 C513 1.428 . S
C519 N518 1.351 . S
C519 C520 1.434 . S
C520 C511 1.429 . S
C520 N517 1.350 . S
C520 C519 1.434 . S
C521 C522 1.369 . S
C521 C523 1.419 . S
C521 H525 0.930 . S
C522 C521 1.369 . S
C522 C531 1.429 . S
C523 C521 1.419 . S
C523 C524 1.363 . S
C523 H526 0.929 . S
C524 C523 1.363 . S
C524 C530 1.428 . S
H525 C521 0.930 . S
H526 C523 0.929 . S
S527 N528 1.613 . S
S527 N529 1.610 . S
N528 S527 1.613 . S
N528 C531 1.350 . S
N529 S527 1.610 . S
N529 C530 1.351 . S
C530 C524 1.428 . S
C530 N529 1.351 . S
C530 C531 1.434 . S
C531 C522 1.429 . S
C531 N528 1.350 . S
C531 C530 1.434 . S
C532 C533 1.369 . S
C532 C534 1.419 . S
C532 H536 0.930 . S
C533 C532 1.369 . S
C533 C542 1.429 . S
C534 C532 1.419 . S
C534 C535 1.363 . S
C534 H537 0.929 . S
C535 C534 1.363 . S
C535 C541 1.428 . S
H536 C532 0.930 . S
H537 C534 0.929 . S
S538 N539 1.613 . S
S538 N540 1.610 . S
N539 S538 1.613 . S
N539 C542 1.350 . S
N540 S538 1.610 . S
N540 C541 1.351 . S
C541 C535 1.428 . S
C541 N540 1.351 . S
C541 C542 1.434 . S
C542 C533 1.429 . S
C542 N539 1.350 . S
C542 C541 1.434 . S
C543 C544 1.369 . S
C543 C545 1.419 . S
C543 H547 0.930 . S
C544 C543 1.369 . S
C544 C553 1.429 . S
C545 C543 1.419 . S
C545 C546 1.363 . S
C545 H548 0.929 . S
C546 C545 1.363 . S
C546 C552 1.428 . S
H547 C543 0.930 . S
H548 C545 0.929 . S
S549 N550 1.613 . S
S549 N551 1.610 . S
N550 S549 1.613 . S
N550 C553 1.350 . S
N551 S549 1.610 . S
N551 C552 1.351 . S
C552 C546 1.428 . S
C552 N551 1.351 . S
C552 C553 1.434 . S
C553 C544 1.429 . S
C553 N550 1.350 . S
C553 C552 1.434 . S
C554 C555 1.369 . S
C554 C556 1.419 . S
C554 H558 0.930 . S
C555 C554 1.369 . S
C555 C564 1.429 . S
C556 C554 1.419 . S
C556 C557 1.363 . S
C556 H559 0.929 . S
C557 C556 1.363 . S
C557 C563 1.428 . S
H558 C554 0.930 . S
H559 C556 0.929 . S
S560 N561 1.613 . S
S560 N562 1.610 . S
N561 S560 1.613 . S
N561 C564 1.350 . S
N562 S560 1.610 . S
N562 C563 1.351 . S
C563 C557 1.428 . S
C563 N562 1.351 . S
C563 C564 1.434 . S
C564 C555 1.429 . S
C564 N561 1.350 . S
C564 C563 1.434 . S
C565 C566 1.369 . S
C565 C567 1.419 . S
C565 H569 0.930 . S
C566 C565 1.369 . S
C566 C575 1.429 . S
C567 C565 1.419 . S
C567 C568 1.363 . S
C567 H570 0.929 . S
C568 C567 1.363 . S
C568 C574 1.428 . S
H569 C565 0.930 . S
H570 C567 0.929 . S
S571 N572 1.613 . S
S571 N573 1.610 . S
N572 S571 1.613 . S
N572 C575 1.350 . S
N573 S571 1.610 . S
N573 C574 1.351 . S
C574 C568 1.428 . S
C574 N573 1.351 . S
C574 C575 1.434 . S
C575 C566 1.429 . S
C575 N572 1.350 . S
C575 C574 1.434 . S
C313 C6 1.486 . S
C315 C167 1.498 . S
C324 C21 1.313 . S
C326 C207 1.387 . S
C337 C241 2.080 . S
C335 C49 2.005 . S
C346 C68 2.418 . S
C348 C282 2.475 1_655 S
C359 C202 2.207 . S
C357 C2 2.095 . S
C370 C162 1.937 . S
C368 C30 1.876 . S
C381 C290 1.633 . S
C379 C40 1.735 . S
C392 C251 1.864 . S
C390 C63 1.996 . S
C401 C11 1.431 . S
C403 C287 1.478 . S
C414 C210 2.319 . S
C412 C44 2.392 . S
C423 C59 2.008 . S
C425 C170 1.971 . S
C434 C25 2.144 . S
C436 C238 2.188 . S
C447 C158 1.506 . S
C445 C82 1.512 . S
C456 C101 1.152 . S
C458 C198 1.207 . S
C467 C125 2.051 . S
C469 C250 2.179 . S
C478 C144 2.301 . S
C480 C291 2.193 . S
C489 C87 1.379 . S
C491 C211 1.498 . S
C502 C171 2.627 . S
C500 C97 2.457 . S
C513 C281 1.771 . S
C511 C120 1.719 . S
C524 C242 1.809 . S
C522 C135 1.868 . S
C533 C78 2.198 . S
C535 C278 2.240 . S
C546 C201 1.667 . S
C544 C116 1.690 . S
C557 C161 2.517 . S
C555 C139 2.624 . S
C566 C106 1.151 . S
C568 C247 1.591 . S
