# Generated by pormake.
# Topology bwt, (3,3)-cn, num edge types: 1
# Building blocks:
#     Node 0, Type 0, BuildingBlock: OLANEW_clean_sbu_2, # of connection points: 3
#     Node 1, Type 0, BuildingBlock: OLANEW_clean_sbu_2, # of connection points: 3
#     Node 2, Type 0, BuildingBlock: OLANEW_clean_sbu_2, # of connection points: 3
#     Node 3, Type 0, BuildingBlock: OLANEW_clean_sbu_2, # of connection points: 3
#     Node 4, Type 0, BuildingBlock: OLANEW_clean_sbu_2, # of connection points: 3
#     Node 5, Type 0, BuildingBlock: OLANEW_clean_sbu_2, # of connection points: 3
#     Node 6, Type 0, BuildingBlock: OLANEW_clean_sbu_2, # of connection points: 3
#     Node 7, Type 0, BuildingBlock: OLANEW_clean_sbu_2, # of connection points: 3
#     Node 8, Type 0, BuildingBlock: OLANEW_clean_sbu_2, # of connection points: 3
#     Node 9, Type 0, BuildingBlock: OLANEW_clean_sbu_2, # of connection points: 3
#     Node 10, Type 0, BuildingBlock: OLANEW_clean_sbu_2, # of connection points: 3
#     Node 11, Type 0, BuildingBlock: OLANEW_clean_sbu_2, # of connection points: 3
#     Node 12, Type 0, BuildingBlock: OLANEW_clean_sbu_2, # of connection points: 3
#     Node 13, Type 0, BuildingBlock: OLANEW_clean_sbu_2, # of connection points: 3
#     Node 14, Type 0, BuildingBlock: OLANEW_clean_sbu_2, # of connection points: 3
#     Node 15, Type 0, BuildingBlock: OLANEW_clean_sbu_2, # of connection points: 3
#     Node 16, Type 0, BuildingBlock: OLANEW_clean_sbu_2, # of connection points: 3
#     Node 17, Type 0, BuildingBlock: OLANEW_clean_sbu_2, # of connection points: 3
#     Node 18, Type 0, BuildingBlock: OLANEW_clean_sbu_2, # of connection points: 3
#     Node 19, Type 0, BuildingBlock: OLANEW_clean_sbu_2, # of connection points: 3
#     Node 20, Type 0, BuildingBlock: OLANEW_clean_sbu_2, # of connection points: 3
#     Node 21, Type 0, BuildingBlock: OLANEW_clean_sbu_2, # of connection points: 3
#     Node 22, Type 0, BuildingBlock: OLANEW_clean_sbu_2, # of connection points: 3
#     Node 23, Type 0, BuildingBlock: OLANEW_clean_sbu_2, # of connection points: 3
#     Node 24, Type 1, BuildingBlock: CUQRIR_clean_linker_1, # of connection points: 3
#     Node 25, Type 1, BuildingBlock: CUQRIR_clean_linker_1, # of connection points: 3
#     Node 26, Type 1, BuildingBlock: CUQRIR_clean_linker_1, # of connection points: 3
#     Node 27, Type 1, BuildingBlock: CUQRIR_clean_linker_1, # of connection points: 3
#     Node 28, Type 1, BuildingBlock: CUQRIR_clean_linker_1, # of connection points: 3
#     Node 29, Type 1, BuildingBlock: CUQRIR_clean_linker_1, # of connection points: 3
#     Node 30, Type 1, BuildingBlock: CUQRIR_clean_linker_1, # of connection points: 3
#     Node 31, Type 1, BuildingBlock: CUQRIR_clean_linker_1, # of connection points: 3
#     Node 32, Type 1, BuildingBlock: CUQRIR_clean_linker_1, # of connection points: 3
#     Node 33, Type 1, BuildingBlock: CUQRIR_clean_linker_1, # of connection points: 3
#     Node 34, Type 1, BuildingBlock: CUQRIR_clean_linker_1, # of connection points: 3
#     Node 35, Type 1, BuildingBlock: CUQRIR_clean_linker_1, # of connection points: 3
#     Node 36, Type 1, BuildingBlock: CUQRIR_clean_linker_1, # of connection points: 3
#     Node 37, Type 1, BuildingBlock: CUQRIR_clean_linker_1, # of connection points: 3
#     Node 38, Type 1, BuildingBlock: CUQRIR_clean_linker_1, # of connection points: 3
#     Node 39, Type 1, BuildingBlock: CUQRIR_clean_linker_1, # of connection points: 3
#     Node 40, Type 1, BuildingBlock: CUQRIR_clean_linker_1, # of connection points: 3
#     Node 41, Type 1, BuildingBlock: CUQRIR_clean_linker_1, # of connection points: 3
#     Node 42, Type 1, BuildingBlock: CUQRIR_clean_linker_1, # of connection points: 3
#     Node 43, Type 1, BuildingBlock: CUQRIR_clean_linker_1, # of connection points: 3
#     Node 44, Type 1, BuildingBlock: CUQRIR_clean_linker_1, # of connection points: 3
#     Node 45, Type 1, BuildingBlock: CUQRIR_clean_linker_1, # of connection points: 3
#     Node 46, Type 1, BuildingBlock: CUQRIR_clean_linker_1, # of connection points: 3
#     Node 47, Type 1, BuildingBlock: CUQRIR_clean_linker_1, # of connection points: 3
#     Edge 48, Type (0, 1), BuildingBlock: UVAHIK_clean_linker_0, # of connection points: 2
#     Edge 49, Type (0, 1), BuildingBlock: UVAHIK_clean_linker_0, # of connection points: 2
#     Edge 50, Type (0, 1), BuildingBlock: UVAHIK_clean_linker_0, # of connection points: 2
#     Edge 51, Type (0, 1), BuildingBlock: UVAHIK_clean_linker_0, # of connection points: 2
#     Edge 52, Type (0, 1), BuildingBlock: UVAHIK_clean_linker_0, # of connection points: 2
#     Edge 53, Type (0, 1), BuildingBlock: UVAHIK_clean_linker_0, # of connection points: 2
#     Edge 54, Type (0, 1), BuildingBlock: UVAHIK_clean_linker_0, # of connection points: 2
#     Edge 55, Type (0, 1), BuildingBlock: UVAHIK_clean_linker_0, # of connection points: 2
#     Edge 56, Type (0, 1), BuildingBlock: UVAHIK_clean_linker_0, # of connection points: 2
#     Edge 57, Type (0, 1), BuildingBlock: UVAHIK_clean_linker_0, # of connection points: 2
#     Edge 58, Type (0, 1), BuildingBlock: UVAHIK_clean_linker_0, # of connection points: 2
#     Edge 59, Type (0, 1), BuildingBlock: UVAHIK_clean_linker_0, # of connection points: 2
#     Edge 60, Type (0, 1), BuildingBlock: UVAHIK_clean_linker_0, # of connection points: 2
#     Edge 61, Type (0, 1), BuildingBlock: UVAHIK_clean_linker_0, # of connection points: 2
#     Edge 62, Type (0, 1), BuildingBlock: UVAHIK_clean_linker_0, # of connection points: 2
#     Edge 63, Type (0, 1), BuildingBlock: UVAHIK_clean_linker_0, # of connection points: 2
#     Edge 64, Type (0, 1), BuildingBlock: UVAHIK_clean_linker_0, # of connection points: 2
#     Edge 65, Type (0, 1), BuildingBlock: UVAHIK_clean_linker_0, # of connection points: 2
#     Edge 66, Type (0, 1), BuildingBlock: UVAHIK_clean_linker_0, # of connection points: 2
#     Edge 67, Type (0, 1), BuildingBlock: UVAHIK_clean_linker_0, # of connection points: 2
#     Edge 68, Type (0, 1), BuildingBlock: UVAHIK_clean_linker_0, # of connection points: 2
#     Edge 69, Type (0, 1), BuildingBlock: UVAHIK_clean_linker_0, # of connection points: 2
#     Edge 70, Type (0, 1), BuildingBlock: UVAHIK_clean_linker_0, # of connection points: 2
#     Edge 71, Type (0, 1), BuildingBlock: UVAHIK_clean_linker_0, # of connection points: 2
#     Edge 72, Type (0, 1), BuildingBlock: UVAHIK_clean_linker_0, # of connection points: 2
#     Edge 73, Type (0, 1), BuildingBlock: UVAHIK_clean_linker_0, # of connection points: 2
#     Edge 74, Type (0, 1), BuildingBlock: UVAHIK_clean_linker_0, # of connection points: 2
#     Edge 75, Type (0, 1), BuildingBlock: UVAHIK_clean_linker_0, # of connection points: 2
#     Edge 76, Type (0, 1), BuildingBlock: UVAHIK_clean_linker_0, # of connection points: 2
#     Edge 77, Type (0, 1), BuildingBlock: UVAHIK_clean_linker_0, # of connection points: 2
#     Edge 78, Type (0, 1), BuildingBlock: UVAHIK_clean_linker_0, # of connection points: 2
#     Edge 79, Type (0, 1), BuildingBlock: UVAHIK_clean_linker_0, # of connection points: 2
#     Edge 80, Type (0, 1), BuildingBlock: UVAHIK_clean_linker_0, # of connection points: 2
#     Edge 81, Type (0, 1), BuildingBlock: UVAHIK_clean_linker_0, # of connection points: 2
#     Edge 82, Type (0, 1), BuildingBlock: UVAHIK_clean_linker_0, # of connection points: 2
#     Edge 83, Type (0, 1), BuildingBlock: UVAHIK_clean_linker_0, # of connection points: 2
#     Edge 84, Type (0, 1), BuildingBlock: UVAHIK_clean_linker_0, # of connection points: 2
#     Edge 85, Type (0, 1), BuildingBlock: UVAHIK_clean_linker_0, # of connection points: 2
#     Edge 86, Type (0, 1), BuildingBlock: UVAHIK_clean_linker_0, # of connection points: 2
#     Edge 87, Type (0, 1), BuildingBlock: UVAHIK_clean_linker_0, # of connection points: 2
#     Edge 88, Type (0, 1), BuildingBlock: UVAHIK_clean_linker_0, # of connection points: 2
#     Edge 89, Type (0, 1), BuildingBlock: UVAHIK_clean_linker_0, # of connection points: 2
#     Edge 90, Type (0, 1), BuildingBlock: UVAHIK_clean_linker_0, # of connection points: 2
#     Edge 91, Type (0, 1), BuildingBlock: UVAHIK_clean_linker_0, # of connection points: 2
#     Edge 92, Type (0, 1), BuildingBlock: UVAHIK_clean_linker_0, # of connection points: 2
#     Edge 93, Type (0, 1), BuildingBlock: UVAHIK_clean_linker_0, # of connection points: 2
#     Edge 94, Type (0, 1), BuildingBlock: UVAHIK_clean_linker_0, # of connection points: 2
#     Edge 95, Type (0, 1), BuildingBlock: UVAHIK_clean_linker_0, # of connection points: 2
#     Edge 96, Type (0, 1), BuildingBlock: UVAHIK_clean_linker_0, # of connection points: 2
#     Edge 97, Type (0, 1), BuildingBlock: UVAHIK_clean_linker_0, # of connection points: 2
#     Edge 98, Type (0, 1), BuildingBlock: UVAHIK_clean_linker_0, # of connection points: 2
#     Edge 99, Type (0, 1), BuildingBlock: UVAHIK_clean_linker_0, # of connection points: 2
#     Edge 100, Type (0, 1), BuildingBlock: UVAHIK_clean_linker_0, # of connection points: 2
#     Edge 101, Type (0, 1), BuildingBlock: UVAHIK_clean_linker_0, # of connection points: 2
#     Edge 102, Type (0, 1), BuildingBlock: UVAHIK_clean_linker_0, # of connection points: 2
#     Edge 103, Type (0, 1), BuildingBlock: UVAHIK_clean_linker_0, # of connection points: 2
#     Edge 104, Type (0, 1), BuildingBlock: UVAHIK_clean_linker_0, # of connection points: 2
#     Edge 105, Type (0, 1), BuildingBlock: UVAHIK_clean_linker_0, # of connection points: 2
#     Edge 106, Type (0, 1), BuildingBlock: UVAHIK_clean_linker_0, # of connection points: 2
#     Edge 107, Type (0, 1), BuildingBlock: UVAHIK_clean_linker_0, # of connection points: 2
#     Edge 108, Type (0, 1), BuildingBlock: UVAHIK_clean_linker_0, # of connection points: 2
#     Edge 109, Type (0, 1), BuildingBlock: UVAHIK_clean_linker_0, # of connection points: 2
#     Edge 110, Type (0, 1), BuildingBlock: UVAHIK_clean_linker_0, # of connection points: 2
#     Edge 111, Type (0, 1), BuildingBlock: UVAHIK_clean_linker_0, # of connection points: 2
#     Edge 112, Type (0, 1), BuildingBlock: UVAHIK_clean_linker_0, # of connection points: 2
#     Edge 113, Type (0, 1), BuildingBlock: UVAHIK_clean_linker_0, # of connection points: 2
#     Edge 114, Type (0, 1), BuildingBlock: UVAHIK_clean_linker_0, # of connection points: 2
#     Edge 115, Type (0, 1), BuildingBlock: UVAHIK_clean_linker_0, # of connection points: 2
#     Edge 116, Type (0, 1), BuildingBlock: UVAHIK_clean_linker_0, # of connection points: 2
#     Edge 117, Type (0, 1), BuildingBlock: UVAHIK_clean_linker_0, # of connection points: 2
#     Edge 118, Type (0, 1), BuildingBlock: UVAHIK_clean_linker_0, # of connection points: 2
#     Edge 119, Type (0, 1), BuildingBlock: UVAHIK_clean_linker_0, # of connection points: 2
# Relax obj value: 0.075
# Max RMSD: 0.112
# Mean RMSD: 0.066
data_MOF--net-bwt--node1-OLANEW_clean_sbu_2--node2-CUQRIR_clean_linker_1--edge1-UVAHIK_clean_linker_0
_symmetry_space_group_name_H-M    P1
_symmetry_Int_Tables_number       1
_symmetry_cell_setting            triclinic
loop_
_symmetry_equiv_pos_as_xyz
'x, y, z'
_cell_length_a     73.912685
_cell_length_b     73.835961
_cell_length_c     73.548408
_cell_angle_alpha  94.031603
_cell_angle_beta   94.225003
_cell_angle_gamma 94.138658
loop_
_atom_site_label
_atom_site_type_symbol
_atom_site_fract_x
_atom_site_fract_y
_atom_site_fract_z
_atom_type_partial_charge
O0 O 0.20505 0.54274 0.38084 0.0
Cd1 Cd 0.20619 0.55474 0.35075 0.0
O2 O 0.22948 0.5592 0.39311 0.0
Cd3 Cd 0.23723 0.57004 0.36767 0.0
O4 O 0.25791 0.57685 0.34899 0.0
C5 C 0.25834 0.56825 0.33346 0.0
O6 O 0.24527 0.55563 0.3279 0.0
C7 C 0.21609 0.54776 0.39466 0.0
C8 C 0.17105 0.55319 0.33366 0.0
O9 O 0.18099 0.53976 0.33178 0.0
O10 O 0.17784 0.56749 0.34338 0.0
O11 O 0.27102 0.40387 0.7719 0.0
Cd12 Cd 0.2733 0.38674 0.74257 0.0
O13 O 0.24108 0.40171 0.7721 0.0
Cd14 Cd 0.23287 0.3855 0.7464 0.0
O15 O 0.20813 0.37552 0.72928 0.0
C16 C 0.19517 0.36876 0.73775 0.0
O17 O 0.198 0.36719 0.7554 0.0
C18 C 0.2567 0.40744 0.7796 0.0
C19 C 0.30914 0.39132 0.73275 0.0
O20 O 0.29733 0.40237 0.72812 0.0
O21 O 0.30394 0.37788 0.74173 0.0
O22 O 0.66089 0.98137 0.6103 0.0
Cd23 Cd 0.66576 0.97909 0.64329 0.0
O24 O 0.65356 0.95219 0.60337 0.0
Cd25 Cd 0.66462 0.94662 0.63059 0.0
O26 O 0.68933 0.94772 0.64905 0.0
C27 C 0.70392 0.94871 0.64091 0.0
O28 O 0.70268 0.94846 0.62298 0.0
C29 C 0.65527 0.96837 0.5985 0.0
C30 C 0.63385 0.98564 0.6599 0.0
O31 O 0.64553 -0.00127 0.65734 0.0
O32 O 0.63738 0.96939 0.65482 0.0
O33 O 0.80136 0.97816 0.20652 0.0
Cd34 Cd 0.80961 -0.01273 0.23881 0.0
O35 O 0.77732 -0.006 0.20326 0.0
Cd36 Cd 0.77459 0.00104 0.23227 0.0
O37 O 0.7549 0.00395 0.25297 0.0
C38 C 0.74227 0.01435 0.24961 0.0
O39 O 0.74261 0.02344 0.23489 0.0
C40 C 0.7886 0.98381 0.19638 0.0
C41 C 0.84672 0.98322 0.24608 0.0
O42 O 0.83471 0.97052 0.24887 0.0
O43 O 0.84118 -0.00203 0.24025 0.0
O44 O 0.37557 0.21023 0.55011 0.0
Cd45 Cd 0.34565 0.20783 0.56228 0.0
O46 O 0.38789 0.2304 0.57174 0.0
Cd47 Cd 0.36175 0.23595 0.5821 0.0
O48 O 0.34 0.25422 0.58512 0.0
C49 C 0.33493 0.26186 0.57084 0.0
O50 O 0.34226 0.25753 0.55553 0.0
C51 C 0.38944 0.21985 0.55761 0.0
C52 C 0.3341 0.17115 0.56387 0.0
O53 O 0.33048 0.1795 0.54949 0.0
O54 O 0.34294 0.18023 0.57762 0.0
O55 O 0.19838 0.83867 0.00445 0.0
Cd56 Cd 0.22652 0.85432 0.01905 0.0
O57 O 0.20868 0.81243 0.01034 0.0
Cd58 Cd 0.20833 0.78271 0.00725 0.0
O59 O 0.21202 0.75383 0.00164 0.0
C60 C 0.21757 0.74864 0.98633 0.0
O61 O 0.22057 0.76075 0.97441 0.0
C62 C 0.19617 0.82139 0.00343 0.0
C63 C 0.23347 0.88802 0.005 0.0
O64 O 0.23909 0.87351 -0.00256 0.0
O65 O 0.22466 0.88659 0.01927 0.0
O66 O 0.78193 0.27697 0.41207 0.0
Cd67 Cd 0.75883 0.27418 0.38637 0.0
O68 O 0.79272 0.24994 0.40916 0.0
Cd69 Cd 0.77202 0.23763 0.38822 0.0
O70 O 0.7554 0.21377 0.37523 0.0
C71 C 0.74073 0.20866 0.38204 0.0
O72 O 0.73537 0.21864 0.39585 0.0
C73 C 0.79332 0.26586 0.41711 0.0
C74 C 0.74946 0.30962 0.38171 0.0
O75 O 0.73965 0.29885 0.39059 0.0
O76 O 0.76318 0.3034 0.37442 0.0
O77 O 0.59656 0.63996 0.97405 0.0
Cd78 Cd 0.62928 0.64754 0.97387 0.0
O79 O 0.58842 0.66056 0.95551 0.0
Cd80 Cd 0.61613 0.67228 0.95355 0.0
O81 O 0.63772 0.69419 0.95413 0.0
C82 C 0.63238 0.70983 0.95141 0.0
O83 O 0.61486 0.71141 0.94812 0.0
C84 C 0.58414 0.6476 0.96527 0.0
C85 C 0.64809 0.61832 0.98504 0.0
O86 O 0.64286 0.63013 -0.00327 0.0
O87 O 0.64469 0.62046 0.96802 0.0
O88 O 0.55236 0.37997 0.20919 0.0
Cd89 Cd 0.56738 0.35151 0.20915 0.0
O90 O 0.56925 0.39279 0.23319 0.0
Cd91 Cd 0.58159 0.36785 0.2399 0.0
O92 O 0.58651 0.3468 0.25872 0.0
C93 C 0.57489 0.33325 0.25873 0.0
O94 O 0.56092 0.33159 0.24644 0.0
C95 C 0.55695 0.39377 0.22034 0.0
C96 C 0.56455 0.334 0.17404 0.0
O97 O 0.55275 0.33033 0.18545 0.0
O98 O 0.57778 0.34582 0.1793 0.0
O99 O 0.97531 0.18787 0.81615 0.0
Cd100 Cd 0.97912 0.22113 0.81985 0.0
O101 O -0.00868 0.1857 0.79215 0.0
Cd102 Cd -0.00644 0.21496 0.78906 0.0
O103 O -0.01283 0.2369 0.77179 0.0
C104 C 0.97401 0.2325 0.75982 0.0
O105 O 0.96562 0.21616 0.75954 0.0
C106 C 0.98232 0.17811 0.804 0.0
C107 C 0.97352 0.23334 0.85562 0.0
O108 O 0.96029 0.23102 0.84319 0.0
O109 O -0.01055 0.2301 0.85106 0.0
O110 O 0.41021 0.79963 0.27989 0.0
Cd111 Cd 0.39136 0.77083 0.27537 0.0
O112 O 0.3959 0.81279 0.25773 0.0
Cd113 Cd 0.38028 0.78773 0.24662 0.0
O114 O 0.37461 0.76701 0.22381 0.0
C115 C 0.38748 0.76595 0.21333 0.0
O116 O 0.40247 0.77658 0.21745 0.0
C117 C 0.40801 0.81358 0.27102 0.0
C118 C 0.39041 0.75509 0.30875 0.0
O119 O 0.40261 0.75152 0.29779 0.0
O120 O 0.37843 0.76584 0.30375 0.0
O121 O 0.95538 0.60025 0.65049 0.0
Cd122 Cd 0.95101 0.63284 0.65301 0.0
O123 O 0.93166 0.59284 0.66558 0.0
Cd124 Cd 0.92935 0.62106 0.67557 0.0
O125 O 0.9366 0.64312 0.69681 0.0
C126 C 0.95297 0.64405 0.70366 0.0
O127 O 0.96407 0.63267 0.6969 0.0
C128 C 0.94463 0.5881 0.65631 0.0
C129 C 0.96415 0.64984 0.62337 0.0
O130 O 0.97389 0.65016 0.63856 0.0
O131 O 0.9482 0.64161 0.62224 0.0
O132 O 0.75146 0.40425 0.59573 0.0
Cd133 Cd 0.75466 0.38911 0.62419 0.0
O134 O 0.7513 0.43151 0.60985 0.0
Cd135 Cd 0.74229 0.42055 0.63483 0.0
O136 O 0.71824 0.41649 0.65027 0.0
C137 C 0.70416 0.40834 0.6415 0.0
O138 O 0.70536 0.40192 0.62454 0.0
C139 C 0.75212 0.42146 0.59522 0.0
C140 C 0.79167 0.38585 0.63333 0.0
O141 O 0.78214 0.3737 0.6227 0.0
O142 O 0.78365 0.39937 0.63993 0.0
O143 O 0.68481 0.60767 0.18344 0.0
Cd144 Cd 0.67311 0.63282 0.20127 0.0
O145 O 0.71113 0.61024 0.1996 0.0
Cd146 Cd 0.73938 0.60448 0.20645 0.0
O147 O 0.7668 0.59764 0.21512 0.0
C148 C 0.77972 0.59933 0.20472 0.0
O149 O 0.77642 0.6053 0.18849 0.0
C150 C 0.70062 0.60227 0.18651 0.0
C151 C 0.63716 0.62417 0.20867 0.0
O152 O 0.64095 0.63043 0.19347 0.0
O153 O 0.65036 0.62212 0.22047 0.0
O154 O 0.30833 0.02331 0.35349 0.0
Cd155 Cd 0.31079 0.02563 0.32078 0.0
O156 O 0.30873 -0.00638 0.34865 0.0
Cd157 Cd 0.29603 -0.00594 0.32092 0.0
O158 O 0.2686 -0.00741 0.3072 0.0
C159 C 0.25648 -0.00297 0.31773 0.0
O160 O 0.26159 0.00253 0.33484 0.0
C161 C 0.31002 0.00781 0.35967 0.0
C162 C 0.34674 0.01985 0.31406 0.0
O163 O 0.33477 0.00648 0.31452 0.0
O164 O 0.34163 0.03603 0.3162 0.0
O165 O 0.15466 0.95592 0.76624 0.0
Cd166 Cd 0.13615 0.93774 0.74164 0.0
O167 O 0.17843 0.95883 0.75014 0.0
Cd168 Cd 0.20696 0.96683 0.74631 0.0
O169 O 0.23529 0.97636 0.74369 0.0
C170 C 0.24773 0.97265 0.75541 0.0
O171 O 0.24327 0.96302 0.769 0.0
C172 C 0.171 0.96207 0.76498 0.0
C173 C 0.09981 0.94588 0.74092 0.0
O174 O 0.10606 0.93453 0.75172 0.0
O175 O 0.11071 0.95336 0.73038 0.0
O176 O 0.60879 0.76194 0.41559 0.0
Cd177 Cd 0.63827 0.76847 0.40336 0.0
O178 O 0.60242 0.73645 0.39816 0.0
Cd179 Cd 0.62953 0.73353 0.38891 0.0
O180 O 0.64765 0.7116 0.38531 0.0
C181 C 0.64003 0.69675 0.37759 0.0
O182 O 0.62283 0.6963 0.37145 0.0
C183 C 0.59771 0.74846 0.40976 0.0
C184 C 0.6452 0.80597 0.40118 0.0
O185 O 0.63642 0.79599 0.38799 0.0
O186 O 0.65086 0.79819 0.41533 0.0
O187 O 0.7689 0.14949 0.96424 0.0
Cd188 Cd 0.74187 0.13062 0.95132 0.0
O189 O 0.7524 0.17215 0.97114 0.0
Cd190 Cd 0.74831 0.20023 0.98072 0.0
O191 O 0.746 0.22824 -0.00849 0.0
C192 C 0.74285 0.24048 0.98064 0.0
O193 O 0.74095 0.23598 0.96296 0.0
C194 C 0.76788 0.16563 0.97111 0.0
C195 C 0.7436 0.09449 0.95973 0.0
O196 O 0.75054 0.10024 0.94553 0.0
O197 O 0.73578 0.10583 0.96993 0.0
O198 O 0.17813 0.68368 0.6199 0.0
Cd199 Cd 0.19789 0.67211 0.64384 0.0
O200 O 0.19594 0.70861 0.61865 0.0
Cd201 Cd 0.20268 0.73576 0.60964 0.0
O202 O 0.21057 0.76379 0.6039 0.0
C203 C 0.21934 0.7744 0.6164 0.0
O204 O 0.22337 0.76818 0.6324 0.0
C205 C 0.18155 0.69873 0.61297 0.0
C206 C 0.20557 0.6364 0.63422 0.0
O207 O 0.1909 0.63981 0.6416 0.0
O208 O 0.21672 0.64987 0.63148 0.0
O209 O 0.37201 0.35381 0.0693 0.0
Cd210 Cd 0.34668 0.36897 0.08138 0.0
O211 O 0.35307 0.33117 0.05736 0.0
Cd212 Cd 0.34499 0.30584 0.04053 0.0
O213 O 0.33814 0.27915 0.02599 0.0
C214 C 0.32261 0.27544 0.01743 0.0
O215 O 0.31084 0.28796 0.01728 0.0
C216 C 0.36925 0.33851 0.0601 0.0
C217 C 0.33543 0.39533 0.05861 0.0
O218 O 0.34823 0.39911 0.07133 0.0
O219 O 0.32784 0.37907 0.05671 0.0
O220 O 0.37313 0.57777 0.77416 0.0
Cd221 Cd 0.34729 0.59274 0.7855 0.0
O222 O 0.36992 0.59004 0.74792 0.0
Cd223 Cd 0.37782 0.59668 0.72092 0.0
O224 O 0.38461 0.60866 0.69569 0.0
C225 C 0.37906 0.60101 0.68006 0.0
O226 O 0.36928 0.58533 0.67904 0.0
C227 C 0.37823 0.57968 0.75823 0.0
C228 C 0.35255 0.60192 0.82305 0.0
O229 O 0.34611 0.58594 0.81677 0.0
O230 O 0.35644 0.61362 0.81157 0.0
O231 O 0.97867 0.75882 0.15285 0.0
Cd232 Cd 0.97869 0.72861 0.13691 0.0
O233 O -0.01397 0.74675 0.17848 0.0
Cd234 Cd -0.00463 0.74659 0.20751 0.0
O235 O 0.00337 0.74527 0.23662 0.0
C236 C -0.00208 0.75656 0.2485 0.0
O237 O -0.01247 0.76915 0.24304 0.0
C238 C 0.98261 0.76074 0.17003 0.0
C239 C -0.01541 0.73024 0.09998 0.0
O240 O 0.96843 0.72797 0.10511 0.0
O241 O -0.00208 0.73179 0.1123 0.0
O242 O 0.60572 0.18185 0.68498 0.0
Cd243 Cd 0.62866 0.20445 0.67624 0.0
O244 O 0.60487 0.19657 0.71178 0.0
Cd245 Cd 0.59486 0.20315 0.73859 0.0
O246 O 0.58697 0.21056 0.76602 0.0
C247 C 0.58808 0.19941 0.7784 0.0
O248 O 0.59384 0.18329 0.77439 0.0
C249 C 0.59918 0.18315 0.70049 0.0
C250 C 0.62094 0.21293 0.64024 0.0
O251 O 0.63093 0.19997 0.6439 0.0
O252 O 0.61473 0.22197 0.65362 0.0
O253 O 0.04253 0.35394 0.35436 0.0
Cd254 Cd 0.05257 0.32666 0.36777 0.0
O255 O 0.04034 0.3405 0.32663 0.0
Cd256 Cd 0.03174 0.33863 0.29738 0.0
O257 O 0.02038 0.33477 0.26898 0.0
C258 C 0.03059 0.33287 0.25592 0.0
O259 O 0.0483 0.33351 0.25964 0.0
C260 C 0.03872 0.35451 0.33729 0.0
C261 C 0.0368 0.3225 0.40069 0.0
O262 O 0.05208 0.33178 0.40024 0.0
O263 O 0.02909 0.31497 0.38558 0.0
C264 C 0.24334 0.44001 0.57904 0.0
N265 N 0.23693 0.45412 0.57044 0.0
N266 N 0.24354 0.42523 0.56707 0.0
C267 C 0.24876 0.44046 0.59917 0.0
C268 C 0.23711 0.43092 0.55087 0.0
N269 N 0.23297 0.44847 0.55296 0.0
C270 C 0.23659 0.41993 0.53278 0.0
H271 H 0.26328 0.44559 0.60167 0.0
H272 H 0.24711 0.42664 0.60414 0.0
H273 H 0.24054 0.44979 0.607 0.0
H274 H 0.2229 0.4127 0.52981 0.0
H275 H 0.24684 0.40967 0.53308 0.0
H276 H 0.23915 0.42885 0.52157 0.0
C277 C 0.2702 0.55349 0.96068 0.0
N278 N 0.27217 0.5369 0.9523 0.0
N279 N 0.26159 0.56406 0.94901 0.0
C280 C 0.27519 0.55886 0.98064 0.0
C281 C 0.2583 0.55327 0.93328 0.0
N282 N 0.26463 0.53672 0.93532 0.0
C283 C 0.25006 0.55933 0.91561 0.0
H284 H 0.26636 0.56924 0.9859 0.0
H285 H 0.28951 0.56474 0.98238 0.0
H286 H 0.27398 0.54685 -0.01115 0.0
H287 H 0.25253 0.57427 0.91503 0.0
H288 H 0.23516 0.55583 0.91465 0.0
H289 H 0.25573 0.55232 0.90371 0.0
C290 C 0.66994 0.01172 0.38573 0.0
N291 N 0.66524 0.00079 0.39896 0.0
N292 N 0.6704 0.02946 0.39197 0.0
C293 C 0.67553 0.00512 0.36732 0.0
C294 C 0.6659 0.02894 0.40941 0.0
N295 N 0.66286 0.01153 0.41376 0.0
C296 C 0.6642 0.0456 0.42199 0.0
H297 H 0.68394 0.01583 0.36125 0.0
H298 H 0.66313 0.00135 0.35801 0.0
H299 H 0.68321 -0.00718 0.36844 0.0
H300 H 0.65418 0.04278 0.43216 0.0
H301 H 0.65997 0.05704 0.41406 0.0
H302 H 0.67763 0.04985 0.42936 0.0
C303 C 0.74168 0.89295 0.98637 0.0
N304 N 0.74744 0.90691 -0.00116 0.0
N305 N 0.74044 0.87701 -0.00556 0.0
C306 C 0.73589 0.89512 0.96665 0.0
C307 C 0.74551 0.88182 0.0123 0.0
N308 N 0.74963 0.90003 0.015 0.0
C309 C 0.7454 0.86884 0.02718 0.0
H310 H 0.7245 0.90412 0.96592 0.0
H311 H 0.73161 0.88186 0.95896 0.0
H312 H 0.74732 0.90175 0.95999 0.0
H313 H 0.74955 0.85537 0.02218 0.0
H314 H 0.73138 0.86686 0.03152 0.0
H315 H 0.75469 0.87419 0.03919 0.0
C316 C 0.56913 0.2511 0.44202 0.0
N317 N 0.56045 0.24644 0.4568 0.0
N318 N 0.55693 0.25338 0.42784 0.0
C319 C 0.58938 0.25498 0.44192 0.0
C320 C 0.54054 0.24993 0.43454 0.0
N321 N 0.54268 0.24581 0.45216 0.0
C322 C 0.52251 0.24956 0.42355 0.0
H323 H 0.59559 0.25967 0.4558 0.0
H324 H 0.59269 0.26545 0.43232 0.0
H325 H 0.59543 0.24227 0.43738 0.0
H326 H 0.52401 0.24615 0.40883 0.0
H327 H 0.51718 0.2632 0.4251 0.0
H328 H 0.51248 0.23948 0.42847 0.0
C329 C 0.00645 0.7276 0.89514 0.0
N330 N 0.01794 0.73365 0.90984 0.0
N331 N 0.01485 0.72921 0.87949 0.0
C332 C -0.01241 0.71881 0.89617 0.0
C333 C 0.03185 0.73645 0.88526 0.0
N334 N 0.03378 0.739 0.90373 0.0
C335 C 0.04604 0.74235 0.87277 0.0
H336 H -0.01372 0.71263 0.90938 0.0
H337 H 0.98412 0.70817 0.88478 0.0
H338 H 0.9777 0.72936 0.89507 0.0
H339 H 0.03961 0.74572 0.85945 0.0
H340 H 0.05489 0.73108 0.87024 0.0
H341 H 0.05468 0.7544 0.8791 0.0
C342 C 0.95271 0.31789 0.58361 0.0
N343 N 0.94553 0.31811 0.56616 0.0
N344 N 0.93931 0.31656 0.59519 0.0
C345 C 0.97266 0.31754 0.58921 0.0
C346 C 0.92376 0.31606 0.5841 0.0
N347 N 0.92755 0.31712 0.56649 0.0
C348 C 0.90491 0.31288 0.59026 0.0
H349 H 0.98115 0.32332 0.57887 0.0
H350 H 0.97582 0.30323 0.5907 0.0
H351 H 0.97629 0.32535 0.60255 0.0
H352 H 0.90478 0.31592 0.60524 0.0
H353 H 0.89995 0.29844 0.58669 0.0
H354 H 0.89544 0.32151 0.58311 0.0
C355 C 0.37991 0.65612 0.02811 0.0
N356 N 0.39021 0.6488 0.01546 0.0
N357 N 0.38963 0.65925 0.04452 0.0
C358 C 0.36025 0.6597 0.02457 0.0
C359 C 0.40627 0.65368 0.04133 0.0
N360 N 0.40656 0.64717 0.02369 0.0
C361 C 0.42273 0.65653 0.05485 0.0
H362 H 0.35946 0.6734 0.01939 0.0
H363 H 0.35312 0.65936 0.03732 0.0
H364 H 0.3533 0.64952 0.01405 0.0
H365 H 0.42376 0.64418 0.06251 0.0
H366 H 0.42165 0.66835 0.06477 0.0
H367 H 0.43539 0.65879 0.04783 0.0
C368 C 0.44039 0.57242 0.2474 0.0
N369 N 0.45454 0.56363 0.24152 0.0
N370 N 0.426 0.5604 0.24923 0.0
C371 C 0.44039 0.59276 0.25054 0.0
C372 C 0.43201 0.54397 0.24429 0.0
N373 N 0.44932 0.54597 0.23948 0.0
C374 C 0.42167 0.52591 0.24597 0.0
H375 H 0.44579 0.59696 0.2648 0.0
H376 H 0.4264 0.59719 0.24848 0.0
H377 H 0.44928 0.59967 0.2412 0.0
H378 H 0.41364 0.52167 0.23283 0.0
H379 H 0.41218 0.52692 0.25693 0.0
H380 H 0.43108 0.51526 0.24896 0.0
C381 C 0.89809 0.97639 0.72994 0.0
N382 N 0.91251 -0.0137 0.73898 0.0
N383 N 0.88249 0.9844 0.73272 0.0
C384 C 0.89916 0.95862 0.71893 0.0
C385 C 0.888 -0.00042 0.74374 0.0
N386 N 0.90626 0.00065 0.74768 0.0
C387 C 0.87587 0.0143 0.74897 0.0
H388 H 0.90198 0.96142 0.70474 0.0
H389 H 0.88614 0.95006 0.71848 0.0
H390 H 0.91038 0.95105 0.72475 0.0
H391 H 0.87073 0.01176 0.76244 0.0
H392 H 0.86403 0.01439 0.7388 0.0
H393 H 0.88344 0.02791 0.75017 0.0
C394 C 0.5507 -0.00436 0.3093 0.0
N395 N 0.5348 0.98507 0.30762 0.0
N396 N 0.56487 0.98537 0.30646 0.0
C397 C 0.55255 0.01572 0.31479 0.0
C398 C 0.55701 0.96821 0.30292 0.0
N399 N 0.53878 0.96802 0.3037 0.0
C400 C 0.56694 0.95193 0.29714 0.0
H401 H 0.55124 0.0233 0.30232 0.0
H402 H 0.56606 0.01982 0.32209 0.0
H403 H 0.5417 0.0195 0.32367 0.0
H404 H 0.57175 0.94533 0.30951 0.0
H405 H 0.57893 0.95605 0.28974 0.0
H406 H 0.55787 0.94181 0.28823 0.0
C407 C -0.0018 0.37648 0.66136 0.0
N408 N -0.01361 0.38946 0.65885 0.0
N409 N 0.01559 0.384 0.66324 0.0
C410 C -0.00732 0.35666 0.66271 0.0
C411 C 0.01389 0.40202 0.66197 0.0
N412 N -0.00384 0.40535 0.65941 0.0
C413 C 0.02954 0.41645 0.66415 0.0
H414 H 0.00424 0.34908 0.66767 0.0
H415 H -0.01258 0.35049 0.64898 0.0
H416 H 0.98152 0.35522 0.67194 0.0
H417 H 0.04179 0.41141 0.65834 0.0
H418 H 0.03297 0.42022 0.67894 0.0
H419 H 0.026 0.42882 0.65736 0.0
C420 C 0.71598 0.51164 0.40004 0.0
N421 N 0.72193 0.49887 0.41085 0.0
N422 N 0.71483 0.52759 0.41004 0.0
C423 C 0.71207 0.50874 0.37966 0.0
C424 C 0.72022 0.52398 0.42735 0.0
N425 N 0.72469 0.50654 0.42783 0.0
C426 C 0.71924 0.53689 0.44398 0.0
H427 H 0.71427 0.52171 0.37309 0.0
H428 H 0.69766 0.50345 0.37657 0.0
H429 H 0.72081 0.49857 0.3738 0.0
H430 H 0.70863 0.54654 0.4416 0.0
H431 H 0.73256 0.54485 0.44701 0.0
H432 H 0.7162 0.52936 0.45606 0.0
C433 C 0.72206 0.43936 0.03361 0.0
N434 N 0.72216 0.45564 0.04332 0.0
N435 N 0.72849 0.42673 0.04436 0.0
C436 C 0.71531 0.43571 0.0138 0.0
C437 C 0.73241 0.43583 0.06097 0.0
N438 N 0.72851 0.4534 0.06035 0.0
C439 C 0.73961 0.42745 0.07781 0.0
H440 H 0.70347 0.44366 0.01054 0.0
H441 H 0.71144 0.42104 0.01021 0.0
H442 H 0.72633 0.44004 0.00522 0.0
H443 H 0.74778 0.41589 0.07422 0.0
H444 H 0.72794 0.4222 0.08511 0.0
H445 H 0.74803 0.43774 0.08715 0.0
C446 C 0.28611 0.96698 0.57258 0.0
N447 N 0.29182 0.97805 0.55987 0.0
N448 N 0.28355 0.9495 0.56539 0.0
C449 C 0.28409 0.97298 0.59223 0.0
C450 C 0.28779 0.95033 0.54787 0.0
N451 N 0.29296 0.96766 0.54453 0.0
C452 C 0.28531 0.93447 0.53365 0.0
H453 H 0.28639 0.96173 0.60116 0.0
H454 H 0.27004 0.97702 0.59353 0.0
H455 H 0.29376 0.98488 0.5969 0.0
H456 H 0.2746 0.92423 0.53705 0.0
H457 H 0.29829 0.92785 0.53315 0.0
H458 H 0.28158 0.93905 0.51991 0.0
C459 C 0.27233 0.0788 0.94733 0.0
N460 N 0.26528 0.06403 0.93646 0.0
N461 N 0.27195 0.09402 0.93807 0.0
C462 C 0.27794 0.07867 0.9674 0.0
C463 C 0.26431 0.088 0.92123 0.0
N464 N 0.26019 0.06978 0.92027 0.0
C465 C 0.26185 0.09974 0.90546 0.0
H466 H 0.27003 0.0677 0.97363 0.0
H467 H 0.27601 0.09193 0.97478 0.0
H468 H 0.29257 0.07618 0.96912 0.0
H469 H 0.27205 0.11164 0.90693 0.0
H470 H 0.24807 0.10479 0.90521 0.0
H471 H 0.26309 0.09181 0.89228 0.0
C472 C 0.40847 0.69226 0.50292 0.0
N473 N 0.41865 0.69967 0.49036 0.0
N474 N 0.41911 0.68924 0.51805 0.0
C475 C 0.38809 0.68894 0.50086 0.0
C476 C 0.43612 0.69507 0.51421 0.0
N477 N 0.43581 0.70149 0.49743 0.0
C478 C 0.45316 0.69295 0.52614 0.0
H479 H 0.38196 0.69889 0.4921 0.0
H480 H 0.38236 0.68988 0.51439 0.0
H481 H 0.38441 0.67506 0.49427 0.0
H482 H 0.4513 0.68126 0.53468 0.0
H483 H 0.45642 0.70552 0.53532 0.0
H484 H 0.46485 0.69094 0.51778 0.0
C485 C 0.95707 0.28024 0.05815 0.0
N486 N 0.94498 0.27203 0.04482 0.0
N487 N 0.95038 0.27916 0.07474 0.0
C488 C 0.97596 0.28785 0.05519 0.0
C489 C 0.93383 0.26999 0.07103 0.0
N490 N 0.9306 0.26559 0.05287 0.0
C491 C 0.92043 0.26629 0.08501 0.0
H492 H 0.98128 0.2805 0.04328 0.0
H493 H -0.01461 0.28696 0.06748 0.0
H494 H 0.97551 0.30239 0.05241 0.0
H495 H 0.92256 0.27667 0.09679 0.0
H496 H 0.92238 0.25272 0.0901 0.0
H497 H 0.90625 0.26619 0.07888 0.0
C498 C 0.02595 0.73345 0.45195 0.0
N499 N 0.03457 0.73056 0.46828 0.0
N500 N 0.03809 0.7395 0.44038 0.0
C501 C 0.00585 0.7297 0.44701 0.0
C502 C 0.05436 0.74025 0.45025 0.0
N503 N 0.05219 0.73497 0.46723 0.0
C504 C 0.07241 0.74501 0.44296 0.0
H505 H 0.00325 0.71573 0.44031 0.0
H506 H 0.00083 0.73932 0.43726 0.0
H507 H -0.00189 0.73073 0.45935 0.0
H508 H 0.07085 0.7536 0.43124 0.0
H509 H 0.07829 0.73225 0.43825 0.0
H510 H 0.08203 0.75224 0.45382 0.0
C511 C 0.54673 0.25356 0.9751 0.0
N512 N 0.5357 0.25943 0.98783 0.0
N513 N 0.53725 0.25017 0.95858 0.0
C514 C 0.56681 0.25191 0.97858 0.0
C515 C 0.5201 0.25412 0.96173 0.0
N516 N 0.51915 0.25963 0.97951 0.0
C517 C 0.50462 0.25374 0.94721 0.0
H518 H 0.57421 0.26496 0.97597 0.0
H519 H 0.57147 0.24102 0.9693 0.0
H520 H 0.57027 0.24902 -0.00703 0.0
H521 H 0.50668 0.24415 0.93538 0.0
H522 H 0.50388 0.2676 0.9424 0.0
H523 H 0.49148 0.24979 0.95276 0.0
C524 C 0.51127 0.42339 0.70121 0.0
N525 N 0.49739 0.43349 0.70552 0.0
N526 N 0.52677 0.43424 0.70039 0.0
C527 C 0.51003 0.40294 0.69905 0.0
C528 C 0.52176 0.4513 0.70432 0.0
N529 N 0.50396 0.45081 0.70748 0.0
C530 C 0.53389 0.46848 0.70379 0.0
H531 H 0.49972 0.3971 0.70768 0.0
H532 H 0.52339 0.39767 0.70275 0.0
H533 H 0.50583 0.39839 0.68456 0.0
H534 H 0.52585 0.47998 0.70003 0.0
H535 H 0.54434 0.46659 0.69389 0.0
H536 H 0.54091 0.47206 0.71757 0.0
C537 C 0.05095 0.96174 0.26791 0.0
N538 N 0.03631 0.94991 0.26259 0.0
N539 N 0.06652 0.9531 0.26753 0.0
C540 C 0.05006 0.98174 0.27292 0.0
C541 C 0.06081 0.93563 0.26196 0.0
N542 N 0.04249 0.93369 0.25908 0.0
C543 C 0.07314 0.92054 0.25898 0.0
H544 H 0.04966 -0.01096 0.26024 0.0
H545 H 0.06211 -0.0125 0.28186 0.0
H546 H 0.03754 0.98418 0.27987 0.0
H547 H 0.06615 0.90713 0.26105 0.0
H548 H 0.08569 0.92285 0.26835 0.0
H549 H 0.07709 0.92024 0.2447 0.0
C550 C 0.44801 0.01767 0.73091 0.0
N551 N 0.46375 0.02754 0.7288 0.0
N552 N 0.43517 0.02878 0.73606 0.0
C553 C 0.44495 -0.0027 0.72777 0.0
C554 C 0.4437 0.04573 0.73696 0.0
N555 N 0.4611 0.04493 0.73265 0.0
C556 C 0.43487 0.06304 0.74134 0.0
H557 H 0.43166 -0.00644 0.71989 0.0
H558 H 0.44441 -0.00862 0.74119 0.0
H559 H 0.45594 -0.00871 0.7205 0.0
H560 H 0.4449 0.07363 0.74835 0.0
H561 H 0.42344 0.0606 0.75006 0.0
H562 H 0.42945 0.06821 0.72839 0.0
C563 C 0.96984 0.54616 0.26707 0.0
N564 N 0.98127 0.53395 0.27311 0.0
N565 N 0.95251 0.53851 0.26464 0.0
C566 C 0.97529 0.56587 0.26496 0.0
C567 C 0.95383 0.52124 0.26941 0.0
N568 N 0.97128 0.5185 0.2746 0.0
C569 C 0.93827 0.50679 0.26798 0.0
H570 H -0.01301 0.57091 0.27478 0.0
H571 H 0.96377 0.57441 0.26708 0.0
H572 H 0.97944 0.56726 0.2509 0.0
H573 H 0.94309 0.4931 0.26489 0.0
H574 H 0.92768 0.50946 0.25721 0.0
H575 H 0.93204 0.50681 0.28125 0.0
C576 C 0.14144 0.56695 0.32701 0.0
C577 C 0.15207 0.55196 0.32539 0.0
C578 C 0.12321 0.56544 0.32007 0.0
C579 C 0.08467 0.53137 0.30873 0.0
H580 H 0.0629 0.56979 0.28347 0.0
C581 C 0.00712 0.53327 0.29609 0.0
C582 C 0.0004 0.53717 0.27858 0.0
C583 C 0.02576 0.53543 0.30118 0.0
C584 C 0.06882 0.5589 0.29041 0.0
H585 H 0.152 0.52376 0.31485 0.0
H586 H 0.12021 0.52116 0.30277 0.0
H587 H 0.0955 0.57275 0.29284 0.0
H588 H 0.00761 0.54663 0.25274 0.0
H589 H 0.04041 0.55072 0.26166 0.0
H590 H 0.05806 0.5175 0.30631 0.0
C591 C 0.12594 0.53402 0.30954 0.0
C592 C 0.08743 0.56067 0.2959 0.0
C593 C 0.14418 0.53555 0.31638 0.0
C594 C 0.01257 0.5437 0.26635 0.0
C595 C 0.03125 0.546 0.27147 0.0
C596 C 0.06607 0.52967 0.30336 0.0
C597 C 0.1152 0.54889 0.31147 0.0
C598 C 0.09555 0.54692 0.30516 0.0
C599 C 0.03806 0.54169 0.28889 0.0
C600 C 0.05791 0.54344 0.29421 0.0
H601 H 0.1471 0.57978 0.33387 0.0
H602 H 0.11525 0.57709 0.32191 0.0
H603 H 0.09047 0.52063 0.316 0.0
H604 H -0.00211 0.52849 0.3058 0.0
H605 H 0.03054 0.53229 0.31479 0.0
C606 C 0.34105 0.38172 0.73274 0.0
C607 C 0.32835 0.39434 0.72838 0.0
C608 C 0.35936 0.38505 0.72944 0.0
C609 C 0.39342 0.42271 0.7242 0.0
H610 H 0.42176 0.38479 0.70451 0.0
C611 C 0.47141 0.43238 0.72466 0.0
C612 C 0.47902 0.42707 0.70839 0.0
C613 C 0.45313 0.42759 0.72691 0.0
C614 C 0.414 0.39553 0.70995 0.0
H615 H 0.32487 0.4202 0.7168 0.0
H616 H 0.35678 0.426 0.71108 0.0
H617 H 0.38936 0.37805 0.70809 0.0
H618 H 0.47381 0.41232 0.68188 0.0
H619 H 0.44174 0.40357 0.68584 0.0
H620 H 0.41796 0.44022 0.72601 0.0
C621 C 0.35261 0.4136 0.71718 0.0
C622 C 0.39549 0.39164 0.71213 0.0
C623 C 0.3343 0.41022 0.72037 0.0
C624 C 0.46821 0.41637 0.69461 0.0
C625 C 0.44992 0.41143 0.69688 0.0
C626 C 0.41191 0.42656 0.72216 0.0
C627 C 0.36539 0.40113 0.72183 0.0
C628 C 0.385 0.4052 0.71927 0.0
C629 C 0.44211 0.41724 0.71296 0.0
C630 C 0.42243 0.41302 0.71504 0.0
H631 H 0.33692 0.36935 0.73893 0.0
H632 H 0.36889 0.37525 0.73332 0.0
H633 H 0.38577 0.43341 0.72991 0.0
H634 H 0.47961 0.44045 0.73554 0.0
H635 H 0.44761 0.43202 0.73957 0.0
C636 C 0.60475 0.9748 0.6726 0.0
C637 C 0.61665 -0.01076 0.66814 0.0
C638 C 0.58832 0.97823 0.67998 0.0
C639 C 0.56434 0.01502 0.70278 0.0
H640 H 0.52131 0.98292 0.68727 0.0
C641 C 0.48131 0.01377 0.705 0.0
C642 C 0.48043 0.02109 0.72297 0.0
C643 C 0.49793 0.00908 0.69885 0.0
C644 C 0.53316 -0.0079 0.69165 0.0
H645 H 0.62062 0.01861 0.66791 0.0
H646 H 0.59184 0.02458 0.68036 0.0
H647 H 0.55026 0.97672 0.67529 0.0
H648 H 0.49578 0.0294 0.74865 0.0
H649 H 0.5249 0.02078 0.73823 0.0
H650 H 0.54712 0.03081 0.71857 0.0
C651 C 0.59533 0.0106 0.67855 0.0
C652 C 0.54984 -0.01159 0.68497 0.0
C653 C 0.61181 0.00718 0.67129 0.0
C654 C 0.49629 0.02359 0.73478 0.0
C655 C 0.51291 0.01882 0.72872 0.0
C656 C 0.54765 0.01878 0.70938 0.0
C657 C 0.58334 -0.00383 0.68296 0.0
C658 C 0.56564 -0.00014 0.6904 0.0
C659 C 0.51398 0.01166 0.71061 0.0
C660 C 0.53183 0.00739 0.70387 0.0
H661 H 0.60813 0.96082 0.67042 0.0
H662 H 0.57957 0.96679 0.68348 0.0
H663 H 0.57624 0.02402 0.70746 0.0
H664 H 0.4692 0.01216 0.69564 0.0
H665 H 0.49827 0.00393 0.68474 0.0
C666 C 0.87243 0.96559 0.25757 0.0
C667 C 0.86641 0.9807 0.24892 0.0
C668 C 0.89098 0.96284 0.25959 0.0
C669 C 0.93393 0.97328 0.23923 0.0
H670 H 0.9564 0.9601 0.28525 0.0
C671 C 0.0115 0.96745 0.25043 0.0
C672 C 0.01743 0.95371 0.26112 0.0
C673 C -0.00683 0.97115 0.24915 0.0
C674 C 0.95032 0.96351 0.27221 0.0
H675 H 0.87517 0.00483 0.23571 0.0
H676 H 0.90753 -0.0001 0.23909 0.0
H677 H 0.92424 0.96572 0.28278 0.0
H678 H 0.00909 0.93307 0.27885 0.0
H679 H 0.97694 0.93884 0.27607 0.0
H680 H 0.95979 0.97068 0.22846 0.0
C681 C 0.89788 -0.0098 0.24429 0.0
C682 C 0.93189 0.9668 0.27084 0.0
C683 C 0.87936 -0.00693 0.24246 0.0
C684 C 0.00475 0.94361 0.27038 0.0
C685 C -0.0136 0.94713 0.26898 0.0
C686 C 0.95232 0.96981 0.24053 0.0
C687 C 0.90388 0.97502 0.25281 0.0
C688 C 0.9235 0.97173 0.25434 0.0
C689 C 0.98035 0.96102 0.25841 0.0
C690 C 0.96077 0.96487 0.25704 0.0
H691 H 0.86281 0.95581 0.26269 0.0
H692 H 0.8952 0.95095 0.26609 0.0
H693 H 0.92777 0.97682 0.22626 0.0
H694 H 0.02105 0.97527 0.24301 0.0
H695 H -0.01089 0.98208 0.24106 0.0
C696 C 0.3321 0.14257 0.5804 0.0
C697 C 0.32868 0.15149 0.56437 0.0
C698 C 0.32766 0.12385 0.58061 0.0
C699 C 0.32009 0.082 0.54997 0.0
H700 H 0.29798 0.06157 0.59096 0.0
C701 C 0.31331 0.00473 0.55753 0.0
C702 C 0.29643 -0.0026 0.56229 0.0
C703 C 0.31731 0.02357 0.55852 0.0
C704 C 0.30409 0.06709 0.57939 0.0
H705 H 0.31766 0.14779 0.53607 0.0
H706 H 0.30991 0.11516 0.53647 0.0
H707 H 0.3042 0.09455 0.591 0.0
H708 H 0.27057 0.00375 0.57201 0.0
H709 H 0.27757 0.03683 0.57403 0.0
H710 H 0.31984 0.05461 0.53827 0.0
C711 C 0.31616 0.12261 0.54883 0.0
C712 C 0.30779 0.08595 0.57948 0.0
C713 C 0.32051 0.14133 0.54863 0.0
C714 C 0.28376 0.00917 0.56851 0.0
C715 C 0.28778 0.02804 0.56962 0.0
C716 C 0.3165 0.06316 0.54993 0.0
C717 C 0.3198 0.11363 0.56477 0.0
C718 C 0.31579 0.09362 0.56474 0.0
C719 C 0.30452 0.03545 0.56441 0.0
C720 C 0.30845 0.05549 0.56463 0.0
H721 H 0.33838 0.15 0.59275 0.0
H722 H 0.33077 0.1173 0.59306 0.0
H723 H 0.32644 0.08747 0.5385 0.0
H724 H 0.32331 -0.00418 0.55285 0.0
H725 H 0.33043 0.02885 0.55467 0.0
C726 C 0.2448 0.90703 0.98065 0.0
C727 C 0.23692 0.90586 -0.00261 0.0
C728 C 0.24781 0.92386 0.97335 0.0
C729 C 0.23349 0.97102 0.97642 0.0
H730 H 0.27739 0.9817 0.9521 0.0
C731 C 0.2766 0.03685 0.94967 0.0
C732 C 0.2622 0.04574 0.94178 0.0
C733 C 0.27349 0.0194 0.9556 0.0
C734 C 0.26512 0.979 0.95896 0.0
H735 H 0.22623 0.92148 0.0197 0.0
H736 H 0.23183 0.95086 0.00719 0.0
H737 H 0.27229 0.95232 0.96476 0.0
H738 H 0.23337 0.04356 0.93368 0.0
H739 H 0.2279 0.0128 0.94345 0.0
H740 H 0.22662 -0.0021 0.9712 0.0
C741 C 0.23534 0.93874 -0.00052 0.0
C742 C 0.26208 0.96205 0.96602 0.0
C743 C 0.23224 0.9219 0.00673 0.0
C744 C 0.24468 0.03684 0.9396 0.0
C745 C 0.24156 0.01935 0.94541 0.0
C746 C 0.23657 -0.01201 0.96943 0.0
C747 C 0.24311 0.93993 0.98266 0.0
C748 C 0.24625 0.95787 0.9749 0.0
C749 C 0.2559 0.01048 0.95366 0.0
C750 C 0.25245 -0.00778 0.96066 0.0
H751 H 0.24849 0.89491 0.97307 0.0
H752 H 0.25358 0.92423 0.96025 0.0
H753 H 0.22104 0.9682 0.98294 0.0
H754 H 0.29021 0.04351 0.95137 0.0
H755 H 0.28482 0.0131 0.96208 0.0
C756 C 0.72877 0.33494 0.38483 0.0
C757 C 0.74586 0.32902 0.38109 0.0
C758 C 0.72597 0.35352 0.38584 0.0
C759 C 0.74917 0.39695 0.39981 0.0
H760 H 0.71174 0.41855 0.37072 0.0
C761 C 0.74238 0.47427 0.40725 0.0
C762 C 0.72491 0.48036 0.40525 0.0
C763 C 0.74514 0.45602 0.40275 0.0
C764 C 0.72208 0.41275 0.3792 0.0
H765 H 0.77332 0.33785 0.37523 0.0
H766 H 0.76852 0.37034 0.37761 0.0
H767 H 0.71558 0.38604 0.36576 0.0
H768 H 0.69661 0.47263 0.39719 0.0
H769 H 0.70105 0.44051 0.3901 0.0
H770 H 0.75519 0.42312 0.41401 0.0
C771 C 0.75728 0.36056 0.37947 0.0
C772 C 0.72433 0.39415 0.37622 0.0
C773 C 0.75997 0.34199 0.37804 0.0
C774 C 0.71021 0.46808 0.39858 0.0
C775 C 0.71285 0.44974 0.39445 0.0
C776 C 0.74668 0.41543 0.4031 0.0
C777 C 0.74032 0.36647 0.38356 0.0
C778 C 0.73794 0.38614 0.38645 0.0
C779 C 0.73037 0.44339 0.39655 0.0
C780 C 0.73313 0.42366 0.39281 0.0
H781 H 0.71765 0.32524 0.38723 0.0
H782 H 0.71279 0.35781 0.38908 0.0
H783 H 0.75963 0.39098 0.40802 0.0
H784 H 0.75385 0.48368 0.41234 0.0
H785 H 0.75889 0.45187 0.40415 0.0
C786 C 0.65621 0.59718 0.00894 0.0
C787 C 0.65733 0.6024 -0.00896 0.0
C788 C 0.66418 0.58165 0.01442 0.0
C789 C 0.6821 0.53895 -0.00448 0.0
H790 H 0.7011 0.53669 0.04583 0.0
C791 C 0.72204 0.47973 0.02167 0.0
C792 C 0.71536 0.4721 0.03703 0.0
C793 C 0.71561 0.49585 0.01576 0.0
C794 C 0.69579 0.53716 0.03175 0.0
H795 H 0.66812 0.59578 0.96499 0.0
H796 H 0.68271 0.56914 0.97474 0.0
H797 H 0.68944 0.56482 0.03608 0.0
H798 H 0.69661 0.475 0.05809 0.0
H799 H 0.68583 0.50362 0.04822 0.0
H800 H 0.68899 0.51133 -0.00877 0.0
C801 C 0.67517 0.57664 0.98442 0.0
C802 C 0.689 0.55322 0.02615 0.0
C803 C 0.66691 0.592 0.97884 0.0
C804 C 0.70217 0.48083 0.0464 0.0
C805 C 0.696 0.49712 0.04074 0.0
C806 C 0.68919 0.523 0.00106 0.0
C807 C 0.67375 0.57112 0.00224 0.0
C808 C 0.68184 0.55429 0.008 0.0
C809 C 0.70264 0.50475 0.02534 0.0
C810 C 0.6959 0.5219 0.01927 0.0
H811 H 0.64878 0.60484 0.01861 0.0
H812 H 0.66245 0.57771 0.02813 0.0
H813 H 0.67643 0.53906 0.98153 0.0
H814 H 0.73239 0.47332 0.01441 0.0
H815 H 0.721 0.50154 0.00391 0.0
C816 C 0.54896 0.31118 0.15005 0.0
C817 C 0.56273 0.32511 0.15523 0.0
C818 C 0.54688 0.30317 0.13215 0.0
C819 C 0.57071 0.29751 0.08959 0.0
H820 H 0.52169 0.28661 0.06701 0.0
C821 C 0.5542 0.27911 0.01185 0.0
C822 C 0.54052 0.26512 0.0068 0.0
C823 C 0.55774 0.28564 0.03019 0.0
C824 C 0.53547 0.28937 0.07319 0.0
H825 H 0.58519 0.34145 0.14571 0.0
H826 H 0.58134 0.32774 0.11442 0.0
H827 H 0.52623 0.29955 0.09853 0.0
H828 H 0.52007 0.2467 0.01667 0.0
H829 H 0.5261 0.2581 0.04877 0.0
H830 H 0.57987 0.28758 0.06403 0.0
C831 C 0.57234 0.32276 0.12424 0.0
C832 C 0.53808 0.29677 0.09128 0.0
C833 C 0.57448 0.33071 0.14218 0.0
C834 C 0.53062 0.25757 0.02034 0.0
C835 C 0.53404 0.26414 0.03863 0.0
C836 C 0.56808 0.29019 0.07144 0.0
C837 C 0.55843 0.30897 0.11897 0.0
C838 C 0.55573 0.30092 0.09973 0.0
C839 C 0.54751 0.27838 0.04374 0.0
C840 C 0.55043 0.28602 0.06305 0.0
H841 H 0.53975 0.30647 0.1598 0.0
H842 H 0.53622 0.29237 0.12867 0.0
H843 H 0.58449 0.3003 0.09573 0.0
H844 H 0.56174 0.28534 0.00154 0.0
H845 H 0.56805 0.29676 0.03367 0.0
C846 C 0.95274 0.24163 0.8798 0.0
C847 C 0.97042 0.23915 0.87475 0.0
C848 C 0.94972 0.24633 0.89801 0.0
C849 C 0.97265 0.2657 0.94221 0.0
H850 H 0.93219 0.24006 0.96267 0.0
C851 C 0.94594 0.25136 0.0172 0.0
C852 C 0.94769 0.26906 0.02569 0.0
C853 C 0.94835 0.24842 -0.0014 0.0
C854 C 0.94359 0.24729 0.95718 0.0
H855 H -0.00117 0.23998 0.88481 0.0
H856 H -0.00647 0.2481 0.91659 0.0
H857 H 0.93725 0.23378 0.93053 0.0
H858 H 0.95326 0.29757 0.02171 0.0
H859 H 0.95765 0.29253 -0.01095 0.0
H860 H 0.97919 0.27893 0.96899 0.0
C861 C 0.98202 0.24655 0.90644 0.0
C862 C 0.94637 0.24384 0.93872 0.0
C863 C -0.01495 0.2418 0.88824 0.0
C864 C 0.95202 0.28381 0.01537 0.0
C865 C 0.95452 0.28089 -0.00324 0.0
C866 C 0.96982 0.26921 0.96068 0.0
C867 C 0.9643 0.24871 0.91156 0.0
C868 C 0.961 0.25292 0.93104 0.0
C869 C 0.95267 0.26315 0.98816 0.0
C870 C 0.95534 0.25993 0.9684 0.0
H871 H 0.94118 0.23975 0.86973 0.0
H872 H 0.93594 0.24812 0.90148 0.0
H873 H 0.98395 0.27304 0.93667 0.0
H874 H 0.94286 0.2398 0.02503 0.0
H875 H 0.94712 0.23457 -0.00754 0.0
C876 C 0.40435 0.73656 0.33258 0.0
C877 C 0.39059 0.74758 0.32691 0.0
C878 C 0.40519 0.73037 0.35012 0.0
C879 C 0.3909 0.7416 0.39625 0.0
H880 H 0.4061 0.69363 0.40524 0.0
C881 C 0.41702 0.7226 0.46769 0.0
C882 C 0.41244 0.70496 0.47263 0.0
C883 C 0.41236 0.72738 0.45001 0.0
C884 C 0.40162 0.70699 0.40297 0.0
H885 H 0.36661 0.76034 0.33507 0.0
H886 H 0.36797 0.74937 0.36563 0.0
H887 H 0.40125 0.70209 0.3739 0.0
H888 H 0.39929 0.67851 0.46332 0.0
H889 H 0.39071 0.68688 0.43236 0.0
H890 H 0.39118 0.74647 0.42531 0.0
C891 C 0.37827 0.74574 0.35659 0.0
C892 C 0.39905 0.71192 0.38501 0.0
C893 C 0.37744 0.75194 0.33904 0.0
C894 C 0.40276 0.69225 0.45978 0.0
C895 C 0.39807 0.697 0.44206 0.0
C896 C 0.39347 0.73667 0.41421 0.0
C897 C 0.39227 0.73505 0.36242 0.0
C898 C 0.39387 0.72936 0.38144 0.0
C899 C 0.403 0.71458 0.43691 0.0
C900 C 0.39907 0.71939 0.4178 0.0
H901 H 0.41471 0.73299 0.32359 0.0
H902 H 0.41628 0.72236 0.35423 0.0
H903 H 0.38706 0.75519 0.39402 0.0
H904 H 0.42448 0.73257 0.47748 0.0
H905 H 0.41658 0.74095 0.44646 0.0
C906 C 0.96314 0.65371 0.58979 0.0
C907 C 0.97115 0.65859 0.60753 0.0
C908 C 0.96992 0.66172 0.57476 0.0
C909 C 0.01058 0.68876 0.56074 0.0
H910 H 0.97755 0.69661 0.51906 0.0
C911 C 0.03055 0.73183 0.50133 0.0
C912 C 0.02674 0.72306 0.48377 0.0
C913 C 0.02375 0.72416 0.51652 0.0
C914 C -0.01309 0.69441 0.53059 0.0
H915 H -0.00768 0.67592 0.6235 0.0
H916 H 0.00366 0.6905 0.59745 0.0
H917 H 0.96561 0.68336 0.5456 0.0
H918 H 0.01307 0.69936 0.46826 0.0
H919 H 0.00039 0.68628 0.49476 0.0
H920 H 0.03176 0.70046 0.54578 0.0
C921 C -0.00747 0.68005 0.59496 0.0
C922 C 0.98012 0.68671 0.54578 0.0
C923 C -0.01405 0.67178 0.60996 0.0
C924 C 0.01583 0.70657 0.48161 0.0
C925 C 0.00871 0.69906 0.49675 0.0
C926 C 0.0173 0.69677 0.54567 0.0
C927 C -0.01532 0.67506 0.57712 0.0
C928 C -0.00813 0.68364 0.56104 0.0
C929 C 0.01272 0.70773 0.51435 0.0
C930 C 0.00554 0.69956 0.53043 0.0
H931 H 0.95181 0.64346 0.58747 0.0
H932 H 0.96372 0.65719 0.56126 0.0
H933 H 0.02015 0.68631 0.57199 0.0
H934 H 0.03879 0.74464 0.50326 0.0
H935 H 0.02692 0.73115 0.52995 0.0
C936 C 0.82082 0.37185 0.62743 0.0
C937 C 0.81147 0.38462 0.6374 0.0
C938 C 0.83968 0.37137 0.63056 0.0
C939 C 0.88064 0.40012 0.65054 0.0
H940 H 0.90391 0.35474 0.64652 0.0
C941 C 0.95707 0.39676 0.67028 0.0
C942 C 0.96682 0.3871 0.65768 0.0
C943 C 0.93807 0.39553 0.66845 0.0
C944 C 0.89759 0.36752 0.64758 0.0
H945 H 0.81452 0.40651 0.6589 0.0
H946 H 0.84725 0.40533 0.66476 0.0
H947 H 0.87077 0.35429 0.64253 0.0
H948 H 0.96465 0.36856 0.63347 0.0
H949 H 0.93122 0.36586 0.63043 0.0
H950 H 0.90745 0.41331 0.65578 0.0
C951 C 0.84015 0.396 0.65414 0.0
C952 C 0.8786 0.36729 0.64524 0.0
C953 C 0.82133 0.3966 0.65088 0.0
C954 C 0.95729 0.3758 0.6435 0.0
C955 C 0.93824 0.37437 0.64176 0.0
C956 C 0.89957 0.40032 0.65303 0.0
C957 C 0.84964 0.38354 0.64386 0.0
C958 C 0.86986 0.38361 0.64667 0.0
C959 C 0.92844 0.38446 0.65406 0.0
C960 C 0.90827 0.38404 0.65157 0.0
H961 H 0.81364 0.36248 0.61688 0.0
H962 H 0.84649 0.36175 0.6222 0.0
H963 H 0.8745 0.413 0.65132 0.0
H964 H 0.96422 0.4054 0.68142 0.0
H965 H 0.9309 0.40327 0.67829 0.0
C966 C 0.60448 0.61614 0.19791 0.0
C967 C 0.61811 0.61923 0.21236 0.0
C968 C 0.58656 0.61095 0.20131 0.0
C969 C 0.55903 0.59214 0.23716 0.0
H970 H 0.51884 0.607 0.20618 0.0
C971 C 0.48351 0.58076 0.25258 0.0
C972 C 0.4722 0.57158 0.2382 0.0
C973 C 0.50117 0.58737 0.24965 0.0
C974 C 0.52997 0.60274 0.21489 0.0
H975 H 0.6236 0.61977 0.24175 0.0
H976 H 0.59224 0.61153 0.24781 0.0
H977 H 0.54996 0.6175 0.201 0.0
H978 H 0.46997 0.56223 0.20959 0.0
H979 H 0.50084 0.57429 0.20418 0.0
H980 H 0.5388 0.57781 0.25134 0.0
C981 C 0.59541 0.61246 0.23376 0.0
C982 C 0.54783 0.60863 0.21188 0.0
C983 C 0.61341 0.61732 0.23032 0.0
C984 C 0.47857 0.56939 0.22077 0.0
C985 C 0.49611 0.57628 0.21772 0.0
C986 C 0.54116 0.58653 0.24037 0.0
C987 C 0.58174 0.60905 0.21929 0.0
C988 C 0.56264 0.60328 0.22287 0.0
C989 C 0.50763 0.58516 0.23219 0.0
C990 C 0.52649 0.59166 0.22917 0.0
H991 H 0.60773 0.61736 0.1839 0.0
H992 H 0.57658 0.6081 0.18974 0.0
H993 H 0.57001 0.58739 0.2457 0.0
H994 H 0.47878 0.58237 0.26615 0.0
H995 H 0.5098 0.59421 0.26099 0.0
C996 C 0.37818 0.03047 0.30669 0.0
C997 C 0.36604 0.01666 0.31199 0.0
C998 C 0.3966 0.02761 0.30553 0.0
C999 C 0.42886 -0.00932 0.30491 0.0
H1000 H 0.46509 0.0311 0.31775 0.0
C1001 C 0.5051 0.98153 0.32074 0.0
C1002 C 0.51674 -0.00924 0.30963 0.0
C1003 C 0.4869 0.98543 0.32098 0.0
C1004 C 0.45508 0.01974 0.31406 0.0
H1005 H 0.36366 -0.0109 0.32039 0.0
H1006 H 0.39573 0.98436 0.31921 0.0
H1007 H 0.43283 0.03616 0.318 0.0
H1008 H 0.51879 0.01171 0.29059 0.0
H1009 H 0.48702 0.01923 0.2917 0.0
H1010 H 0.45131 0.97419 0.3018 0.0
C1011 C 0.39109 -0.0028 0.31526 0.0
C1012 C 0.43656 0.02261 0.31405 0.0
C1013 C 0.37265 -6e-05 0.31606 0.0
C1014 C 0.51011 0.0046 0.29944 0.0
C1015 C 0.49198 0.0088 0.29999 0.0
C1016 C 0.44734 -0.01223 0.3053 0.0
C1017 C 0.40338 0.01099 0.31 0.0
C1018 C 0.42316 0.0081 0.30952 0.0
C1019 C 0.48014 -0.00104 0.31046 0.0
C1020 C 0.4606 0.00225 0.30991 0.0
H1021 H 0.37345 0.04347 0.30337 0.0
H1022 H 0.40546 0.03845 0.30105 0.0
H1023 H 0.41906 0.97923 0.30089 0.0
H1024 H 0.51001 0.97099 0.3289 0.0
H1025 H 0.47806 0.97779 0.3293 0.0
C1026 C 0.07238 0.9583 0.72574 0.0
C1027 C 0.08059 0.95026 0.7407 0.0
C1028 C 0.05415 0.96226 0.72548 0.0
C1029 C 0.01838 0.973 0.75489 0.0
H1030 H -0.01512 0.95503 0.71345 0.0
C1031 C 0.94109 0.97979 0.75569 0.0
C1032 C 0.93128 0.98235 0.73918 0.0
C1033 C 0.95934 0.97592 0.7559 0.0
C1034 C -0.00594 0.96046 0.72501 0.0
H1035 H 0.07623 0.9403 0.7672 0.0
H1036 H 0.04447 0.94767 0.7669 0.0
H1037 H 0.01679 0.94866 0.71362 0.0
H1038 H 0.93258 0.98354 0.71007 0.0
H1039 H 0.96467 0.9775 0.71029 0.0
H1040 H -0.00402 0.98535 0.7661 0.0
C1041 C 0.05214 0.95073 0.75535 0.0
C1042 C 0.01233 0.9567 0.72511 0.0
C1043 C 0.07026 0.94644 0.75546 0.0
C1044 C 0.93996 0.9813 0.72289 0.0
C1045 C 0.95828 0.97775 0.72308 0.0
C1046 C 0.00018 0.97707 0.75466 0.0
C1047 C 0.0439 0.95858 0.74032 0.0
C1048 C 0.02462 0.96285 0.74009 0.0
C1049 C 0.96823 0.97488 0.73958 0.0
C1050 C -0.01228 0.97077 0.73975 0.0
H1051 H 0.07999 0.96136 0.71415 0.0
H1052 H 0.0481 0.9684 0.71377 0.0
H1053 H 0.02766 0.97805 0.76653 0.0
H1054 H 0.9345 0.98055 0.76836 0.0
H1055 H 0.96637 0.9735 0.76884 0.0
C1056 C 0.65952 0.83648 0.41395 0.0
C1057 C 0.64843 0.82591 0.40022 0.0
C1058 C 0.66222 0.85536 0.41329 0.0
C1059 C 0.65773 0.89247 0.38192 0.0
H1060 H 0.65902 0.92295 0.42721 0.0
C1061 C 0.65317 0.97068 0.38473 0.0
C1062 C 0.66473 0.98121 0.39805 0.0
C1063 C 0.65195 0.95167 0.38444 0.0
C1064 C 0.65889 0.91462 0.41447 0.0
H1065 H 0.63152 0.8269 0.37499 0.0
H1066 H 0.63589 0.85983 0.37403 0.0
H1067 H 0.65532 0.88996 0.42782 0.0
H1068 H 0.68459 0.98036 0.421 0.0
H1069 H 0.68235 0.94709 0.42074 0.0
H1070 H 0.66096 0.91727 0.36858 0.0
C1071 C 0.64281 0.85353 0.38514 0.0
C1072 C 0.6568 0.89568 0.41481 0.0
C1073 C 0.64021 0.83463 0.38575 0.0
C1074 C 0.67537 0.97245 0.41081 0.0
C1075 C 0.67406 0.95347 0.41065 0.0
C1076 C 0.65969 0.91143 0.38157 0.0
C1077 C 0.65379 0.86416 0.39894 0.0
C1078 C 0.65621 0.88434 0.39854 0.0
C1079 C 0.66222 0.94286 0.39755 0.0
C1080 C 0.6603 0.92271 0.39785 0.0
H1081 H 0.66615 0.83018 0.42524 0.0
H1082 H 0.67101 0.86304 0.42399 0.0
H1083 H 0.65762 0.88419 0.36916 0.0
H1084 H 0.64479 0.97723 0.37485 0.0
H1085 H 0.6426 0.94388 0.37428 0.0
C1086 C 0.75506 0.06362 0.95422 0.0
C1087 C 0.74459 0.07533 0.96419 0.0
C1088 C 0.756 0.04552 0.95842 0.0
C1089 C 0.74765 0.01447 -0.00495 0.0
H1090 H 0.74779 0.97689 0.95549 0.0
C1091 C 0.73683 0.93747 0.00488 0.0
C1092 C 0.74814 0.92598 -0.00417 0.0
C1093 C 0.73709 0.95588 0.00155 0.0
C1094 C 0.74795 -0.01275 0.9667 0.0
H1095 H 0.72683 0.0772 0.98633 0.0
H1096 H 0.72811 0.04554 -0.00664 0.0
H1097 H 0.74663 0.00858 0.94855 0.0
H1098 H 0.76888 0.92454 0.97669 0.0
H1099 H 0.7692 0.95677 0.97053 0.0
H1100 H 0.74863 -0.00701 0.01315 0.0
C1101 C 0.73592 0.05041 0.98255 0.0
C1102 C 0.74733 0.00544 0.96273 0.0
C1103 C 0.73508 0.06855 0.97844 0.0
C1104 C 0.75986 0.93317 0.98356 0.0
C1105 C 0.76003 0.95155 0.98009 0.0
C1106 C 0.74815 -0.00374 -0.001 0.0
C1107 C 0.74639 0.03866 0.97259 0.0
C1108 C 0.74717 0.01929 0.97685 0.0
C1109 C 0.74857 0.96308 -0.01102 0.0
C1110 C 0.74831 0.98246 0.98486 0.0
H1111 H 0.76264 0.06845 0.94324 0.0
H1112 H 0.76444 0.03697 0.95065 0.0
H1113 H 0.74786 0.02479 0.00629 0.0
H1114 H 0.72759 0.93207 0.01428 0.0
H1115 H 0.72798 0.96439 0.00848 0.0
C1116 C 0.19527 0.60353 0.62673 0.0
C1117 C 0.2094 0.61747 0.62882 0.0
C1118 C 0.19875 0.58571 0.6212 0.0
C1119 C 0.23346 0.55887 0.59959 0.0
H1120 H 0.20503 0.51823 0.61682 0.0
C1121 C 0.24906 0.48335 0.58652 0.0
C1122 C 0.23422 0.47192 0.5785 0.0
C1123 C 0.24652 0.50105 0.5934 0.0
C1124 C 0.21303 0.52948 0.6119 0.0
H1125 H 0.23831 0.62362 0.62717 0.0
H1126 H 0.24457 0.59241 0.6183 0.0
H1127 H 0.20004 0.54924 0.62789 0.0
H1128 H 0.20523 0.46952 0.57146 0.0
H1129 H 0.20056 0.50041 0.58401 0.0
H1130 H 0.24676 0.53886 0.584 0.0
C1131 C 0.23067 0.59527 0.62031 0.0
C1132 C 0.21011 0.54728 0.61812 0.0
C1133 C 0.22712 0.61317 0.62553 0.0
C1134 C 0.21677 0.47822 0.5777 0.0
C1135 C 0.21415 0.49577 0.58488 0.0
C1136 C 0.23659 0.54105 0.59365 0.0
C1137 C 0.2165 0.58129 0.61794 0.0
C1138 C 0.22014 0.56226 0.61189 0.0
C1139 C 0.22902 0.5074 0.59265 0.0
C1140 C 0.22628 0.52622 0.5996 0.0
H1141 H 0.18143 0.60646 0.62901 0.0
H1142 H 0.18739 0.57548 0.61917 0.0
H1143 H 0.24123 0.56998 0.59419 0.0
H1144 H 0.26263 0.47868 0.58705 0.0
H1145 H 0.25818 0.50976 0.59937 0.0
C1146 C 0.31399 0.40597 0.03428 0.0
C1147 C 0.32959 0.40937 0.04651 0.0
C1148 C 0.30835 0.41937 0.02308 0.0
C1149 C 0.31361 0.46922 0.01915 0.0
H1150 H 0.29272 0.45647 0.96958 0.0
C1151 C 0.29712 0.52388 0.96982 0.0
C1152 C 0.27975 0.52173 0.96055 0.0
C1153 C 0.30389 0.50969 0.97919 0.0
C1154 C 0.29844 0.4602 0.98343 0.0
H1155 H 0.35174 0.42936 0.05628 0.0
H1156 H 0.34219 0.45254 0.03648 0.0
H1157 H 0.3033 0.43263 0.98822 0.0
H1158 H 0.25598 0.50311 0.95326 0.0
H1159 H 0.26789 0.47804 0.96944 0.0
H1160 H 0.30887 0.49678 0.01431 0.0
C1161 C 0.33402 0.43969 0.03582 0.0
C1162 C 0.30445 0.44656 -0.00585 0.0
C1163 C 0.33957 0.42636 0.04712 0.0
C1164 C 0.26949 0.50495 0.96019 0.0
C1165 C 0.2763 0.49067 0.96945 0.0
C1166 C 0.30775 0.48284 0.00841 0.0
C1167 C 0.31827 0.43643 0.02375 0.0
C1168 C 0.31208 0.4509 0.01217 0.0
C1169 C 0.29344 0.49302 0.97933 0.0
C1170 C 0.30007 0.47848 -0.00955 0.0
H1171 H 0.30597 0.39302 0.03353 0.0
H1172 H 0.29602 0.41646 0.01414 0.0
H1173 H 0.31906 0.47305 0.03308 0.0
H1174 H 0.30531 0.53666 0.97 0.0
H1175 H 0.31726 0.51179 0.98644 0.0
C1176 C 0.35824 0.62497 0.84991 0.0
C1177 C 0.35555 0.60667 0.84297 0.0
C1178 C 0.36116 0.62941 0.86875 0.0
C1179 C 0.37883 0.61194 0.91095 0.0
H1180 H 0.35063 0.64728 0.93527 0.0
C1181 C 0.38612 0.62589 -0.01069 0.0
C1182 C 0.3849 0.64378 -0.00351 0.0
C1183 C 0.38178 0.62112 0.9707 0.0
C1184 C 0.35884 0.63759 0.92869 0.0
H1185 H 0.3539 0.57867 0.85029 0.0
H1186 H 0.35941 0.58648 0.88319 0.0
H1187 H 0.34482 0.63972 0.90243 0.0
H1188 H 0.37859 0.67086 -0.00977 0.0
H1189 H 0.37149 0.66285 0.95752 0.0
H1190 H 0.39333 0.61017 0.93689 0.0
C1191 C 0.35912 0.59734 0.87403 0.0
C1192 C 0.35542 0.63321 0.90989 0.0
C1193 C 0.35589 0.5929 0.85523 0.0
C1194 C 0.37929 0.6569 0.98488 0.0
C1195 C 0.37519 0.65224 0.96621 0.0
C1196 C 0.38246 0.61652 0.92969 0.0
C1197 C 0.36176 0.61563 0.88096 0.0
C1198 C 0.36535 0.62031 0.90087 0.0
C1199 C 0.37643 0.63428 0.95883 0.0
C1200 C 0.37248 0.62937 0.93885 0.0
H1201 H 0.358 0.63587 0.8408 0.0
H1202 H 0.36326 0.64361 0.87376 0.0
H1203 H 0.38683 0.6021 0.90426 0.0
H1204 H 0.39043 0.61563 -0.00184 0.0
H1205 H 0.38256 0.60709 0.96566 0.0
C1206 C 0.00448 0.73838 0.0752 0.0
C1207 C -0.0122 0.73092 0.08042 0.0
C1208 C 0.00757 0.73895 0.05672 0.0
C1209 C 0.98345 0.7344 0.00997 0.0
H1210 H 0.03216 0.72897 -0.00474 0.0
C1211 C 0.02399 0.72216 0.94011 0.0
C1212 C 0.01434 0.73316 0.92874 0.0
C1213 C 0.0206 0.72178 0.95853 0.0
C1214 C 0.0184 0.73026 -0.00097 0.0
H1215 H 0.96134 0.71802 0.0704 0.0
H1216 H 0.96695 0.71827 0.03821 0.0
H1217 H 0.02637 0.72777 0.02718 0.0
H1218 H -0.00612 0.75252 0.92729 0.0
H1219 H -0.0117 0.75258 0.95967 0.0
H1220 H 0.97527 0.7359 0.98169 0.0
C1221 C 0.97749 0.72425 0.0483 0.0
C1222 C 0.01513 0.72991 0.01748 0.0
C1223 C 0.97429 0.72398 0.06679 0.0
C1224 C 0.00131 0.74385 0.93595 0.0
C1225 C -0.00191 0.74374 0.95443 0.0
C1226 C -0.01335 0.73445 -0.00852 0.0
C1227 C -0.00583 0.73177 0.04298 0.0
C1228 C -0.00238 0.73205 0.02325 0.0
C1229 C 0.00766 0.73265 0.966 0.0
C1230 C 0.00419 0.73245 0.98573 0.0
H1231 H 0.0151 0.74398 0.08541 0.0
H1232 H 0.02043 0.74522 0.05325 0.0
H1233 H 0.96983 0.73637 0.01383 0.0
H1234 H 0.03403 0.71376 0.93463 0.0
H1235 H 0.02799 0.71279 0.96682 0.0
C1236 C 0.623 0.20691 0.6065 0.0
C1237 C 0.61646 0.21716 0.62111 0.0
C1238 C 0.61834 0.21058 0.58843 0.0
C1239 C 0.60085 0.24609 0.56022 0.0
H1240 H 0.58689 0.20546 0.52442 0.0
C1241 C 0.56382 0.25485 0.48993 0.0
C1242 C 0.56859 0.24415 0.47478 0.0
C1243 C 0.57094 0.252 0.50753 0.0
C1244 C 0.591 0.21696 0.53417 0.0
H1245 H 0.60003 0.23941 0.6282 0.0
H1246 H 0.59179 0.24569 0.5967 0.0
H1247 H 0.59696 0.19966 0.55563 0.0
H1248 H 0.58464 0.2224 0.46582 0.0
H1249 H 0.59745 0.21747 0.49665 0.0
H1250 H 0.59472 0.26339 0.53879 0.0
C1251 C 0.60069 0.23496 0.5992 0.0
C1252 C 0.59677 0.21363 0.55208 0.0
C1253 C 0.60533 0.23128 0.61726 0.0
C1254 C 0.58088 0.23079 0.4774 0.0
C1255 C 0.58802 0.22791 0.49501 0.0
C1256 C 0.59509 0.24941 0.54232 0.0
C1257 C 0.60706 0.22459 0.58456 0.0
C1258 C 0.60163 0.22815 0.56535 0.0
C1259 C 0.58302 0.2384 0.5103 0.0
C1260 C 0.58996 0.23489 0.52912 0.0
H1261 H 0.63165 0.19597 0.60899 0.0
H1262 H 0.62366 0.20249 0.57748 0.0
H1263 H 0.60479 0.25758 0.57003 0.0
H1264 H 0.55444 0.2653 0.48811 0.0
H1265 H 0.56664 0.26018 0.519 0.0
C1266 C 0.01163 0.31026 0.41855 0.0
C1267 C 0.02809 0.32095 0.41807 0.0
C1268 C 0.00307 0.30936 0.43483 0.0
C1269 C 6e-05 0.33501 0.47907 0.0
H1270 H 0.97808 0.28936 0.49326 0.0
C1271 C 0.95238 0.33169 0.53764 0.0
C1272 C 0.95511 0.31822 0.54983 0.0
C1273 C 0.96141 0.33176 0.52161 0.0
C1274 C 0.98425 0.30219 0.48953 0.0
H1275 H 0.04862 0.33885 0.43438 0.0
H1276 H 0.03369 0.33725 0.46277 0.0
H1277 H -0.00589 0.28974 0.46538 0.0
H1278 H 0.96869 0.29387 0.55477 0.0
H1279 H -0.01522 0.29399 0.52678 0.0
H1280 H -0.00968 0.34746 0.50325 0.0
C1281 C 0.02732 0.3297 0.45052 0.0
C1282 C -0.00672 0.30243 0.47348 0.0
C1283 C 0.03592 0.33053 0.43427 0.0
C1284 C 0.96672 0.30457 0.54565 0.0
C1285 C 0.97571 0.30456 0.52958 0.0
C1286 C -0.00905 0.33479 0.49504 0.0
C1287 C 0.01074 0.31921 0.45096 0.0
C1288 C 0.00129 0.31885 0.46808 0.0
C1289 C 0.97322 0.31821 0.51742 0.0
C1290 C 0.98294 0.31838 0.50045 0.0
H1291 H 0.00524 0.30272 0.40631 0.0
H1292 H -0.00978 0.30129 0.43469 0.0
H1293 H 0.00592 0.34791 0.47518 0.0
H1294 H 0.9433 0.34219 0.54062 0.0
H1295 H 0.959 0.34229 0.51238 0.0
C1296 C 0.20019 0.5258 0.41393 0.0
C1297 C 0.21402 0.53956 0.41229 0.0
C1298 C 0.19923 0.51707 0.43014 0.0
C1299 C 0.21612 0.52073 0.47923 0.0
H1300 H 0.20943 0.468 0.47407 0.0
C1301 C 0.23869 0.47579 0.53628 0.0
C1302 C 0.22787 0.45987 0.53865 0.0
C1303 C 0.23442 0.48639 0.52181 0.0
C1304 C 0.211 0.48273 0.4758 0.0
H1305 H 0.23732 0.55535 0.42668 0.0
H1306 H 0.23575 0.54004 0.45479 0.0
H1307 H 0.2064 0.48513 0.44704 0.0
H1308 H 0.20396 0.44265 0.52825 0.0
H1309 H 0.19638 0.46115 0.50271 0.0
H1310 H 0.22117 0.51827 0.50796 0.0
C1311 C 0.22552 0.53609 0.44364 0.0
C1312 C 0.20926 0.49256 0.46029 0.0
C1313 C 0.22649 0.5448 0.42744 0.0
C1314 C 0.21251 0.45484 0.52652 0.0
C1315 C 0.20825 0.4654 0.51196 0.0
C1316 C 0.21788 0.5109 0.49473 0.0
C1317 C 0.21205 0.52193 0.44509 0.0
C1318 C 0.21211 0.51166 0.46178 0.0
C1319 C 0.21927 0.48121 0.50934 0.0
C1320 C 0.21565 0.49176 0.49316 0.0
H1321 H 0.19031 0.52148 0.40256 0.0
H1322 H 0.18855 0.50637 0.43091 0.0
H1323 H 0.21809 0.53545 0.48088 0.0
H1324 H 0.25076 0.47971 0.54534 0.0
H1325 H 0.24337 0.4983 0.52002 0.0
C1326 C 0.24213 0.42394 0.8049 0.0
C1327 C 0.25802 0.41894 0.79709 0.0
C1328 C 0.24319 0.4356 0.82078 0.0
C1329 C 0.27345 0.45433 0.86078 0.0
H1330 H 0.24136 0.49362 0.86072 0.0
C1331 C 0.2802 0.51487 0.91628 0.0
C1332 C 0.26407 0.52189 0.92148 0.0
C1333 C 0.2797 0.50133 0.90191 0.0
C1334 C 0.25023 0.48258 0.86112 0.0
H1335 H 0.28753 0.42192 0.80023 0.0
H1336 H 0.28934 0.44234 0.82806 0.0
H1337 H 0.24012 0.47175 0.83427 0.0
H1338 H 0.23481 0.51992 0.91665 0.0
H1339 H 0.23372 0.49603 0.89174 0.0
H1340 H 0.28352 0.46517 0.88771 0.0
C1341 C 0.27607 0.43715 0.82184 0.0
C1342 C 0.24954 0.47006 0.84592 0.0
C1343 C 0.27502 0.42552 0.80586 0.0
C1344 C 0.24739 0.5148 0.91259 0.0
C1345 C 0.24684 0.50122 0.89833 0.0
C1346 C 0.27408 0.46683 0.87608 0.0
C1347 C 0.26015 0.44251 0.82932 0.0
C1348 C 0.26109 0.45577 0.84558 0.0
C1349 C 0.26301 0.49454 0.89257 0.0
C1350 C 0.26243 0.48108 0.87645 0.0
H1351 H 0.22879 0.41907 0.7986 0.0
H1352 H 0.23067 0.43926 0.82637 0.0
H1353 H 0.28243 0.44336 0.86096 0.0
H1354 H 0.29319 0.52028 0.923 0.0
H1355 H 0.29242 0.49663 0.89776 0.0
C1356 C 0.64347 0.95859 0.56607 0.0
C1357 C 0.6518 0.97208 0.57907 0.0
C1358 C 0.64124 0.96199 0.54757 0.0
C1359 C 0.6436 -0.0001 0.51639 0.0
H1360 H 0.65319 0.96174 0.48017 0.0
C1361 C 0.67057 0.01272 0.44698 0.0
C1362 C 0.65934 0.00564 0.43153 0.0
C1363 C 0.66695 0.00766 0.46432 0.0
C1364 C 0.65024 0.97241 0.49015 0.0
H1365 H 0.66421 -0.00024 0.58283 0.0
H1366 H 0.66094 0.00545 0.55079 0.0
H1367 H 0.6516 0.9549 0.51211 0.0
H1368 H 0.63597 -0.01278 0.42188 0.0
H1369 H 0.63003 0.97764 0.45248 0.0
H1370 H 0.64347 0.01761 0.49452 0.0
C1371 C 0.65558 -0.00759 0.55478 0.0
C1372 C 0.64925 0.96852 0.50843 0.0
C1373 C 0.6576 -0.0109 0.57322 0.0
C1374 C 0.64477 -0.00715 0.43365 0.0
C1375 C 0.64138 -0.01257 0.45104 0.0
C1376 C 0.64493 0.00382 0.49824 0.0
C1377 C 0.64746 0.9789 0.54165 0.0
C1378 C 0.64633 0.98234 0.52188 0.0
C1379 C 0.6523 -0.00494 0.46651 0.0
C1380 C 0.64859 -0.00981 0.48506 0.0
H1381 H 0.63878 0.94535 0.57016 0.0
H1382 H 0.6347 0.95133 0.53792 0.0
H1383 H 0.64083 0.01078 0.52621 0.0
H1384 H 0.68218 0.02218 0.4456 0.0
H1385 H 0.6757 0.01349 0.47607 0.0
C1386 C 0.77399 0.98599 0.16483 0.0
C1387 C 0.78638 0.97795 0.1766 0.0
C1388 C 0.77106 0.97971 0.1464 0.0
C1389 C 0.78982 0.95093 0.10969 0.0
H1390 H 0.73978 0.94665 0.08898 0.0
C1391 C 0.74242 0.90896 0.04639 0.0
C1392 C 0.75402 0.91047 0.03224 0.0
C1393 C 0.74674 0.91882 0.06322 0.0
C1394 C 0.75382 0.94765 0.09457 0.0
H1395 H 0.80571 0.95724 0.17813 0.0
H1396 H 0.80025 0.94598 0.14615 0.0
H1397 H 0.74707 0.96052 0.11982 0.0
H1398 H 0.7788 0.92381 0.02413 0.0
H1399 H 0.78633 0.94153 0.05354 0.0
H1400 H 0.79639 0.93723 0.08469 0.0
C1401 C 0.79304 0.95739 0.15103 0.0
C1402 C 0.75806 0.95586 0.1122 0.0
C1403 C 0.7961 0.96378 0.16943 0.0
C1404 C 0.76978 0.92239 0.03498 0.0
C1405 C 0.7741 0.93238 0.05182 0.0
C1406 C 0.78555 0.94259 0.09207 0.0
C1407 C 0.78031 0.96513 0.13932 0.0
C1408 C 0.77608 0.95743 0.12008 0.0
C1409 C 0.76268 0.93061 0.0662 0.0
C1410 C 0.76746 0.94063 0.08439 0.0
H1411 H 0.76641 -0.00295 0.16987 0.0
H1412 H 0.76142 -0.01376 0.13772 0.0
H1413 H 0.80388 0.95213 0.11521 0.0
H1414 H 0.73 0.9001 0.04438 0.0
H1415 H 0.73773 0.91693 0.074 0.0
C1416 C 0.42257 0.23 0.5576 0.0
C1417 C 0.40705 0.21972 0.5492 0.0
C1418 C 0.43871 0.23126 0.54884 0.0
C1419 C 0.46245 0.21084 0.5104 0.0
H1420 H 0.4868 0.25927 0.51174 0.0
C1421 C 0.51534 0.25455 0.46669 0.0
C1422 C 0.52848 0.24207 0.46407 0.0
C1423 C 0.50161 0.25111 0.47833 0.0
C1424 C 0.48013 0.24567 0.51116 0.0
H1425 H 0.39658 0.20215 0.52529 0.0
H1426 H 0.42459 0.20462 0.5099 0.0
H1427 H 0.46091 0.254 0.52976 0.0
H1428 H 0.53789 0.21634 0.47147 0.0
H1429 H 0.51399 0.2103 0.49219 0.0
H1430 H 0.48127 0.20272 0.49117 0.0
C1431 C 0.42439 0.21152 0.52337 0.0
C1432 C 0.46542 0.24259 0.5217 0.0
C1433 C 0.40827 0.21019 0.53216 0.0
C1434 C 0.52782 0.22611 0.47336 0.0
C1435 C 0.5141 0.22265 0.48506 0.0
C1436 C 0.47716 0.21394 0.4998 0.0
C1437 C 0.43971 0.22234 0.53145 0.0
C1438 C 0.45624 0.22519 0.52129 0.0
C1439 C 0.50082 0.23512 0.48768 0.0
C1440 C 0.486 0.23146 0.49986 0.0
H1441 H 0.42216 0.23739 0.5708 0.0
H1442 H 0.45036 0.23945 0.55561 0.0
H1443 H 0.45582 0.19723 0.50992 0.0
H1444 H 0.51579 0.26704 0.4598 0.0
H1445 H 0.49149 0.26089 0.47982 0.0
C1446 C 0.17159 0.81924 0.97811 0.0
C1447 C 0.17959 0.81203 -0.00635 0.0
C1448 C 0.15587 0.8105 0.96876 0.0
C1449 C 0.11567 0.78056 0.97452 0.0
H1450 H 0.11372 0.77116 0.92182 0.0
C1451 C 0.04921 0.76054 0.92819 0.0
C1452 C 0.04992 0.74607 0.91489 0.0
C1453 C 0.06502 0.76771 0.93862 0.0
C1454 C 0.11411 0.77363 0.93654 0.0
H1455 H 0.17704 0.79054 0.01211 0.0
H1456 H 0.1494 0.77527 -0.00422 0.0
H1457 H 0.14158 0.78548 0.93841 0.0
H1458 H 0.06737 0.72732 0.90243 0.0
H1459 H 0.0952 0.74021 0.92025 0.0
H1460 H 0.08807 0.76897 0.97257 0.0
C1461 C 0.15548 0.78753 -0.00929 0.0
C1462 C 0.12998 0.78192 0.946 0.0
C1463 C 0.17139 0.79612 -0.0001 0.0
C1464 C 0.06661 0.73871 0.91237 0.0
C1465 C 0.08245 0.74603 0.92258 0.0
C1466 C 0.09968 0.77252 0.96502 0.0
C1467 C 0.14765 0.79459 0.97498 0.0
C1468 C 0.13091 0.78547 0.96507 0.0
C1469 C 0.08183 0.76068 0.93573 0.0
C1470 C 0.09878 0.76897 0.94594 0.0
H1471 H 0.17761 0.83154 0.97306 0.0
H1472 H 0.14999 0.81633 0.95678 0.0
H1473 H 0.11602 0.78326 -0.01078 0.0
H1474 H 0.0365 0.76652 0.93021 0.0
H1475 H 0.06419 0.7791 0.94857 0.0
C1476 C 0.80763 0.28885 0.44168 0.0
C1477 C 0.80743 0.2716 0.4322 0.0
C1478 C 0.82094 0.29434 0.45586 0.0
C1479 C 0.86681 0.28508 0.47435 0.0
H1480 H 0.85282 0.30933 0.51908 0.0
C1481 C 0.91531 0.29673 0.53993 0.0
C1482 C 0.91485 0.31307 0.55073 0.0
C1483 C 0.90261 0.29234 0.52498 0.0
C1484 C 0.85701 0.30282 0.50659 0.0
H1485 H 0.82116 0.24661 0.43025 0.0
H1486 H 0.84434 0.25618 0.45506 0.0
H1487 H 0.8298 0.30025 0.49403 0.0
H1488 H 0.90139 0.33789 0.55441 0.0
H1489 H 0.87908 0.33041 0.52806 0.0
H1490 H 0.89402 0.28765 0.48689 0.0
C1491 C 0.83427 0.26551 0.45139 0.0
C1492 C 0.8438 0.29758 0.49224 0.0
C1493 C 0.8209 0.25998 0.43724 0.0
C1494 C 0.90175 0.32514 0.54626 0.0
C1495 C 0.88902 0.3208 0.53127 0.0
C1496 C 0.88003 0.29037 0.48868 0.0
C1497 C 0.83442 0.28274 0.46087 0.0
C1498 C 0.84853 0.28857 0.476 0.0
C1499 C 0.88922 0.30426 0.52053 0.0
C1500 C 0.87528 0.29922 0.50501 0.0
H1501 H 0.79749 0.29817 0.43814 0.0
H1502 H 0.82081 0.30777 0.46276 0.0
H1503 H 0.87093 0.27842 0.4619 0.0
H1504 H 0.92531 0.28724 0.54334 0.0
H1505 H 0.90302 0.2794 0.51718 0.0
C1506 C 0.55983 0.62875 0.97903 0.0
C1507 C 0.56473 0.64241 0.96752 0.0
C1508 C 0.54169 0.62533 0.98282 0.0
C1509 C 0.4941 0.63447 0.96832 0.0
H1510 H 0.48695 0.63139 0.01975 0.0
C1511 C 0.4281 0.65221 0.00025 0.0
C1512 C 0.42236 0.64237 0.01468 0.0
C1513 C 0.44441 0.64883 -0.00735 0.0
C1514 C 0.48864 0.63187 0.00528 0.0
H1515 H 0.55425 0.66257 0.95028 0.0
H1516 H 0.52274 0.65676 0.95707 0.0
H1517 H 0.5175 0.63137 0.00958 0.0
H1518 H 0.4285 0.62093 0.03212 0.0
H1519 H 0.45715 0.61484 0.01883 0.0
H1520 H 0.46521 0.63552 0.96417 0.0
C1521 C 0.53285 0.64856 0.96304 0.0
C1522 C 0.50619 0.63185 -0.00056 0.0
C1523 C 0.55097 0.65197 0.95923 0.0
C1524 C 0.43283 0.62868 0.02103 0.0
C1525 C 0.44917 0.6253 0.01347 0.0
C1526 C 0.47652 0.6345 0.97418 0.0
C1527 C 0.52805 0.63548 0.9752 0.0
C1528 C 0.50918 0.63349 0.98094 0.0
C1529 C 0.45532 0.63557 -0.00058 0.0
C1530 C 0.47363 0.63353 -0.00722 0.0
H1531 H 0.57005 0.62103 0.98554 0.0
H1532 H 0.5384 0.61495 -0.00799 0.0
H1533 H 0.4959 0.63546 0.95393 0.0
H1534 H 0.42032 0.66301 -0.00463 0.0
H1535 H 0.44885 0.65718 0.98204 0.0
C1536 C 0.53263 0.41148 0.20596 0.0
C1537 C 0.54736 0.41065 0.21905 0.0
C1538 C 0.52271 0.42691 0.20575 0.0
C1539 C 0.52419 0.47555 0.22282 0.0
H1540 H 0.4716 0.46724 0.21867 0.0
C1541 C 0.47725 0.53041 0.2456 0.0
C1542 C 0.46087 0.53167 0.23506 0.0
C1543 C 0.48828 0.51629 0.24166 0.0
C1544 C 0.48626 0.46984 0.21956 0.0
H1545 H 0.56353 0.42565 0.24181 0.0
H1546 H 0.54618 0.45241 0.24151 0.0
H1547 H 0.49021 0.4415 0.21504 0.0
H1548 H 0.44314 0.51958 0.21209 0.0
H1549 H 0.4624 0.49471 0.20505 0.0
H1550 H 0.52023 0.50386 0.22768 0.0
C1551 C 0.54238 0.44123 0.2313 0.0
C1552 C 0.49693 0.45508 0.21747 0.0
C1553 C 0.55227 0.42581 0.23154 0.0
C1554 C 0.4557 0.5187 0.22041 0.0
C1555 C 0.4667 0.50452 0.21647 0.0
C1556 C 0.51352 0.49031 0.22491 0.0
C1557 C 0.52733 0.44186 0.21858 0.0
C1558 C 0.51603 0.45773 0.21933 0.0
C1559 C 0.48308 0.5031 0.22712 0.0
C1560 C 0.49442 0.4876 0.22356 0.0
H1561 H 0.52852 0.40007 0.1961 0.0
H1562 H 0.51134 0.42707 0.19562 0.0
H1563 H 0.53887 0.47808 0.22404 0.0
H1564 H 0.4813 0.54015 0.25714 0.0
H1565 H 0.50063 0.51544 0.25034 0.0
C1566 C -0.01542 0.14738 0.78793 0.0
C1567 C 0.97873 0.15803 0.80266 0.0
C1568 C 0.97932 0.12876 0.78534 0.0
C1569 C 0.94239 0.09602 0.79575 0.0
H1570 H 0.97227 0.06067 0.77391 0.0
C1571 C 0.91391 0.02222 0.77475 0.0
C1572 C 0.91728 0.01585 0.75701 0.0
C1573 C 0.92343 0.03805 0.78312 0.0
C1574 C 0.96377 0.07039 0.78 0.0
H1575 H 0.96363 0.1572 0.82683 0.0
H1576 H 0.95469 0.12465 0.82245 0.0
H1577 H -0.01434 0.09127 0.78397 0.0
H1578 H 0.93331 0.0206 0.73415 0.0
H1579 H 0.95013 0.04818 0.74871 0.0
H1580 H 0.92041 0.07533 0.79141 0.0
C1581 C 0.96304 0.13079 0.81269 0.0
C1582 C 0.97142 0.08792 0.78574 0.0
C1583 C 0.96825 0.14944 0.81525 0.0
C1584 C 0.93074 0.02515 0.74797 0.0
C1585 C 0.94033 0.04091 0.75632 0.0
C1586 C 0.93476 0.07849 0.79007 0.0
C1587 C 0.96814 0.12032 0.79745 0.0
C1588 C 0.96072 0.10107 0.79334 0.0
C1589 C 0.93654 0.04773 0.77387 0.0
C1590 C 0.94526 0.06559 0.78179 0.0
H1591 H -0.00733 0.15353 0.77796 0.0
H1592 H 0.98335 0.12119 0.77335 0.0
H1593 H 0.93366 0.10584 0.80127 0.0
H1594 H 0.90363 0.01512 0.78194 0.0
H1595 H 0.92035 0.04285 0.79672 0.0
C1596 C 0.41836 0.84564 0.26528 0.0
C1597 C 0.42016 0.83041 0.27553 0.0
C1598 C 0.43061 0.86104 0.2687 0.0
C1599 C 0.4651 0.88431 0.30327 0.0
H1600 H 0.48369 0.90656 0.26147 0.0
C1601 C 0.52689 0.93743 0.31048 0.0
C1602 C 0.52577 0.9525 0.3 0.0
C1603 C 0.51375 0.92272 0.30754 0.0
C1604 C 0.47848 0.90065 0.27329 0.0
H1605 H 0.43602 0.81962 0.29774 0.0
H1606 H 0.45743 0.84642 0.3036 0.0
H1607 H 0.46079 0.88088 0.25664 0.0
H1608 H 0.51052 0.96412 0.27811 0.0
H1609 H 0.48729 0.9385 0.27299 0.0
H1610 H 0.48287 0.90403 0.31991 0.0
C1611 C 0.44646 0.84652 0.29301 0.0
C1612 C 0.46533 0.88594 0.27052 0.0
C1613 C 0.43422 0.83112 0.28959 0.0
C1614 C 0.51152 0.95258 0.28634 0.0
C1615 C 0.49836 0.9379 0.28338 0.0
C1616 C 0.47825 0.89902 0.30603 0.0
C1617 C 0.44493 0.86158 0.28247 0.0
C1618 C 0.45853 0.87756 0.28548 0.0
C1619 C 0.49927 0.92283 0.29402 0.0
C1620 C 0.48514 0.90732 0.29108 0.0
H1621 H 0.40765 0.8456 0.2544 0.0
H1622 H 0.42889 0.87253 0.26053 0.0
H1623 H 0.45995 0.87833 0.31508 0.0
H1624 H 0.53779 0.93722 0.32112 0.0
H1625 H 0.51499 0.91122 0.31579 0.0
C1626 C 0.93609 0.55505 0.65967 0.0
C1627 C 0.9479 0.56858 0.65333 0.0
C1628 C 0.9401 0.5368 0.65838 0.0
C1629 C 0.97929 0.50937 0.65674 0.0
H1630 H 0.94317 0.46874 0.64445 0.0
C1631 C 0.97769 0.42658 0.64311 0.0
C1632 C -0.01102 0.42289 0.65836 0.0
C1633 C 0.97153 0.44396 0.64172 0.0
C1634 C 0.95341 0.47997 0.6478 0.0
H1635 H 0.97282 0.5734 0.63994 0.0
H1636 H 0.97978 0.54159 0.6377 0.0
H1637 H 0.93449 0.49997 0.64223 0.0
H1638 H 0.00187 0.4338 0.68455 0.0
H1639 H -0.00863 0.46427 0.68214 0.0
H1640 H -0.00181 0.4895 0.66238 0.0
C1641 C 0.96752 0.54514 0.64385 0.0
C1642 C 0.94842 0.49781 0.64666 0.0
C1643 C 0.96347 0.56336 0.64506 0.0
C1644 C -0.00649 0.43656 0.67249 0.0
C1645 C -0.0125 0.45392 0.67108 0.0
C1646 C 0.98422 0.4916 0.65802 0.0
C1647 C 0.95605 0.53172 0.6508 0.0
C1648 C 0.96132 0.51271 0.65117 0.0
C1649 C 0.97668 0.4579 0.65556 0.0
C1650 C 0.97132 0.4767 0.65369 0.0
H1651 H 0.92395 0.55859 0.66608 0.0
H1652 H 0.93107 0.52679 0.66397 0.0
H1653 H -0.01051 0.52055 0.66051 0.0
H1654 H 0.97403 0.41612 0.63212 0.0
H1655 H 0.96323 0.44664 0.62959 0.0
C1656 C 0.75914 0.44804 0.57687 0.0
C1657 C 0.75278 0.42974 0.57753 0.0
C1658 C 0.75868 0.45616 0.56024 0.0
C1659 C 0.75087 0.44547 0.50948 0.0
H1660 H 0.73974 0.49604 0.51038 0.0
C1661 C 0.72088 0.48088 0.44737 0.0
C1662 C 0.7301 0.49739 0.44381 0.0
C1663 C 0.72573 0.47231 0.46315 0.0
C1664 C 0.74302 0.48196 0.50997 0.0
H1665 H 0.74106 0.40552 0.5613 0.0
H1666 H 0.7394 0.4198 0.53252 0.0
H1667 H 0.74417 0.48171 0.53902 0.0
H1668 H 0.75169 0.5178 0.4537 0.0
H1669 H 0.75969 0.50322 0.48189 0.0
H1670 H 0.7486 0.44567 0.48023 0.0
C1671 C 0.74538 0.42783 0.54464 0.0
C1672 C 0.74569 0.47372 0.52639 0.0
C1673 C 0.74621 0.41963 0.5612 0.0
C1674 C 0.74429 0.50517 0.45629 0.0
C1675 C 0.74889 0.49682 0.4723 0.0
C1676 C 0.7478 0.45363 0.49305 0.0
C1677 C 0.75146 0.44628 0.54392 0.0
C1678 C 0.74956 0.45531 0.5264 0.0
C1679 C 0.73961 0.48034 0.47586 0.0
C1680 C 0.74379 0.47191 0.49318 0.0
H1681 H 0.76445 0.45612 0.58923 0.0
H1682 H 0.76393 0.47023 0.56027 0.0
H1683 H 0.75421 0.43142 0.50885 0.0
H1684 H 0.70962 0.47483 0.43817 0.0
H1685 H 0.71825 0.45971 0.46574 0.0
C1686 C 0.69917 0.58457 0.15625 0.0
C1687 C 0.70653 0.58729 0.17448 0.0
C1688 C 0.70415 0.57022 0.14477 0.0
C1689 C 0.72316 0.52535 0.14554 0.0
H1690 H 0.72755 0.53202 0.09419 0.0
C1691 C 0.72022 0.46529 0.09046 0.0
C1692 C 0.73028 0.4673 0.07522 0.0
C1693 C 0.71993 0.47977 0.10371 0.0
C1694 C 0.72668 0.52993 0.10854 0.0
H1695 H 0.72419 0.57643 0.1952 0.0
H1696 H 0.73354 0.55182 0.17495 0.0
H1697 H 0.72258 0.55795 0.11492 0.0
H1698 H 0.74854 0.48539 0.06204 0.0
H1699 H 0.74854 0.51071 0.08541 0.0
H1700 H 0.72751 0.49733 0.13915 0.0
C1701 C 0.72392 0.56084 0.16951 0.0
C1702 C 0.72355 0.54478 0.1204 0.0
C1703 C 0.71886 0.57519 0.18104 0.0
C1704 C 0.74068 0.48368 0.07375 0.0
C1705 C 0.74052 0.49814 0.08703 0.0
C1706 C 0.7264 0.51048 0.13368 0.0
C1707 C 0.71661 0.55818 0.15123 0.0
C1708 C 0.72143 0.54263 0.13898 0.0
C1709 C 0.7298 0.49652 0.10197 0.0
C1710 C 0.72792 0.51253 0.11497 0.0
H1711 H 0.6895 0.59356 0.15084 0.0
H1712 H 0.69792 0.56837 0.13091 0.0
H1713 H 0.72147 0.52315 0.15974 0.0
H1714 H 0.71189 0.4528 0.09162 0.0
H1715 H 0.71132 0.47809 0.11486 0.0
C1716 C 0.31989 -0.00936 0.38625 0.0
C1717 C 0.31227 0.00597 0.37955 0.0
C1718 C 0.32053 -0.01203 0.40488 0.0
C1719 C 0.31352 0.01053 0.45079 0.0
H1720 H 0.30416 0.96051 0.46258 0.0
C1721 C 0.28863 -0.01206 0.51952 0.0
C1722 C 0.29771 0.97395 0.52728 0.0
C1723 C 0.29254 -0.00675 0.50227 0.0
C1724 C 0.30698 0.97452 0.4595 0.0
H1725 H 0.29976 0.03076 0.3871 0.0
H1726 H 0.30009 0.02575 0.4195 0.0
H1727 H 0.30699 0.9671 0.43098 0.0
H1728 H 0.31837 0.95502 0.52365 0.0
H1729 H 0.32482 0.96384 0.49312 0.0
H1730 H 0.31254 0.01782 0.47947 0.0
C1731 C 0.30608 0.01601 0.41053 0.0
C1732 C 0.30872 0.97834 0.44138 0.0
C1733 C 0.30579 0.01886 0.39192 0.0
C1734 C 0.31104 0.96564 0.51774 0.0
C1735 C 0.31475 0.97072 0.50039 0.0
C1736 C 0.31145 0.0067 0.46893 0.0
C1737 C 0.31318 0.00035 0.41723 0.0
C1738 C 0.31202 -0.00361 0.43673 0.0
C1739 C 0.30538 0.98443 0.49241 0.0
C1740 C 0.30817 -0.01134 0.47341 0.0
H1741 H 0.3252 0.9806 0.37704 0.0
H1742 H 0.32659 0.97603 0.40953 0.0
H1743 H 0.31633 0.02457 0.44784 0.0
H1744 H 0.27818 -0.00562 0.52659 0.0
H1745 H 0.28504 0.00375 0.49633 0.0
C1746 C 0.19423 -0.01334 0.77872 0.0
C1747 C 0.18115 0.97239 0.78094 0.0
C1748 C 0.20344 -0.00344 0.79397 0.0
C1749 C 0.19876 0.00921 0.84253 0.0
H1750 H 0.25059 0.02275 0.84438 0.0
C1751 C 0.2602 0.04345 0.89773 0.0
C1752 C 0.25176 0.05854 0.90475 0.0
C1753 C 0.25192 0.0325 0.88269 0.0
C1754 C 0.23614 0.01896 0.84411 0.0
H1755 H 0.16721 0.95747 0.80082 0.0
H1756 H 0.18322 0.97477 0.82745 0.0
H1757 H 0.23567 0.00411 0.81795 0.0
H1758 H 0.22813 0.07402 0.90202 0.0
H1759 H 0.2136 0.05504 0.87557 0.0
H1760 H 0.1992 0.02396 0.86868 0.0
C1761 C 0.1864 0.9783 0.81393 0.0
C1762 C 0.22757 0.00845 0.82891 0.0
C1763 C 0.17727 0.96837 0.7987 0.0
C1764 C 0.23489 0.06251 0.89663 0.0
C1765 C 0.22656 0.05156 0.88166 0.0
C1766 C 0.2073 0.01979 0.85766 0.0
C1767 C 0.19956 -0.00746 0.81174 0.0
C1768 C 0.20878 0.00348 0.82795 0.0
C1769 C 0.23498 0.03643 0.87451 0.0
C1770 C 0.22606 0.02484 0.85859 0.0
H1771 H 0.19693 -0.00937 0.76524 0.0
H1772 H 0.21322 0.0077 0.79184 0.0
H1773 H 0.18424 0.00576 0.84212 0.0
H1774 H 0.27324 0.04023 0.90388 0.0
H1775 H 0.25865 0.02084 0.8776 0.0
C1776 C 0.57542 0.75666 0.43263 0.0
C1777 C 0.57967 0.74595 0.41718 0.0
C1778 C 0.55906 0.75299 0.44061 0.0
C1779 C 0.52418 0.7152 0.4438 0.0
H1780 H 0.49634 0.75289 0.4647 0.0
C1781 C 0.45447 0.69848 0.47118 0.0
C1782 C 0.4513 0.70737 0.48798 0.0
C1783 C 0.46961 0.70397 0.46207 0.0
C1784 C 0.50406 0.74222 0.45904 0.0
H1785 H 0.56962 0.72359 0.39745 0.0
H1786 H 0.54105 0.71746 0.41109 0.0
H1787 H 0.52355 0.76139 0.44929 0.0
H1788 H 0.46102 0.72898 0.50843 0.0
H1789 H 0.4878 0.7386 0.49263 0.0
H1790 H 0.50479 0.69604 0.45354 0.0
C1791 C 0.55053 0.72839 0.41736 0.0
C1792 C 0.51965 0.74709 0.45023 0.0
C1793 C 0.56689 0.73199 0.40946 0.0
C1794 C 0.46337 0.72195 0.4955 0.0
C1795 C 0.47852 0.72749 0.48639 0.0
C1796 C 0.50861 0.71035 0.45254 0.0
C1797 C 0.54658 0.73858 0.43325 0.0
C1798 C 0.52987 0.73361 0.44247 0.0
C1799 C 0.48188 0.71847 0.46962 0.0
C1800 C 0.49836 0.72379 0.46025 0.0
H1801 H 0.58499 0.7675 0.43894 0.0
H1802 H 0.5565 0.76103 0.45291 0.0
H1803 H 0.53194 0.70446 0.43835 0.0
H1804 H 0.44531 0.68715 0.46524 0.0
H1805 H 0.4717 0.69688 0.44908 0.0
C1806 C 0.78444 0.18933 -0.00636 0.0
C1807 C 0.78464 0.17659 0.97856 0.0
C1808 C 0.80043 0.19944 0.00074 0.0
C1809 C 0.85013 0.19832 0.00375 0.0
H1810 H 0.85007 0.24991 0.01798 0.0
C1811 C 0.90447 0.26353 0.02978 0.0
C1812 C 0.91456 0.25581 0.04373 0.0
C1813 C 0.88881 0.25406 0.02102 0.0
C1814 C 0.85033 0.23554 0.01394 0.0
H1815 H 0.80179 0.16409 0.95939 0.0
H1816 H 0.82976 0.18169 0.97185 0.0
H1817 H 0.82222 0.23314 0.00396 0.0
H1818 H 0.91671 0.23223 0.05931 0.0
H1819 H 0.88922 0.21558 0.04414 0.0
H1820 H 0.87822 0.2007 0.01373 0.0
C1821 C 0.81723 0.18393 0.97812 0.0
C1822 C 0.83435 0.22591 0.00608 0.0
C1823 C 0.80122 0.17389 0.97096 0.0
C1824 C 0.90895 0.23843 0.04868 0.0
C1825 C 0.89337 0.2289 0.03988 0.0
C1826 C 0.86607 0.20791 0.01171 0.0
C1827 C 0.817 0.19683 -0.00692 0.0
C1828 C 0.83407 0.20718 0.00098 0.0
C1829 C 0.88308 0.23664 0.026 0.0
C1830 C 0.86632 0.22661 0.01697 0.0
H1831 H 0.77208 0.19109 0.00035 0.0
H1832 H 0.7999 0.20897 0.01255 0.0
H1833 H 0.8503 0.18387 0.0001 0.0
H1834 H 0.90867 0.27695 0.02581 0.0
H1835 H 0.88125 0.26029 0.01025 0.0
C1836 C 0.14992 0.7005 0.59938 0.0
C1837 C 0.16868 0.70449 0.59861 0.0
C1838 C 0.13763 0.70483 0.5853 0.0
C1839 C 0.1336 0.73159 0.54415 0.0
H1840 H 0.09099 0.69801 0.53186 0.0
C1841 C 0.07566 0.74673 0.49143 0.0
C1842 C 0.06639 0.73198 0.48082 0.0
C1843 C 0.08856 0.74374 0.50556 0.0
C1844 C 0.10293 0.70743 0.53489 0.0
H1845 H 0.18939 0.71576 0.58239 0.0
H1846 H 0.16804 0.72288 0.55749 0.0
H1847 H 0.11272 0.69216 0.55662 0.0
H1848 H 0.06327 0.70274 0.47599 0.0
H1849 H 0.0864 0.69729 0.50013 0.0
H1850 H 0.1242 0.74635 0.52177 0.0
C1851 C 0.16268 0.71701 0.56925 0.0
C1852 C 0.11528 0.70425 0.54939 0.0
C1853 C 0.17496 0.71295 0.58353 0.0
C1854 C 0.07038 0.71422 0.48415 0.0
C1855 C 0.08345 0.71119 0.49808 0.0
C1856 C 0.12136 0.73463 0.52945 0.0
C1857 C 0.14384 0.71285 0.56987 0.0
C1858 C 0.13074 0.71633 0.55431 0.0
C1859 C 0.09256 0.7259 0.50916 0.0
C1860 C 0.10582 0.72261 0.52464 0.0
H1861 H 0.14474 0.69403 0.61092 0.0
H1862 H 0.12324 0.7018 0.58654 0.0
H1863 H 0.14522 0.74132 0.54761 0.0
H1864 H 0.07249 0.7605 0.48906 0.0
H1865 H 0.09501 0.7554 0.51394 0.0
C1866 C 0.38489 0.31096 0.04971 0.0
C1867 C 0.38469 0.32997 0.05222 0.0
C1868 C 0.39942 0.3031 0.04191 0.0
C1869 C 0.43802 0.31408 0.01398 0.0
H1870 H 0.45546 0.26952 0.03117 0.0
C1871 C 0.50478 0.28594 -0.00731 0.0
C1872 C 0.50398 0.26727 0.98748 0.0
C1873 C 0.49017 0.29343 0.00066 0.0
C1874 C 0.45062 0.28189 0.02614 0.0
H1875 H 0.39997 0.35565 0.04936 0.0
H1876 H 0.42556 0.34199 0.03626 0.0
H1877 H 0.43019 0.28298 0.04524 0.0
H1878 H 0.48789 0.24161 0.98666 0.0
H1879 H 0.46209 0.25465 0.0007 0.0
H1880 H 0.45869 0.3131 -0.00492 0.0
C1881 C 0.41422 0.33311 0.0397 0.0
C1882 C 0.43612 0.28959 0.03415 0.0
C1883 C 0.39963 0.34095 0.04738 0.0
C1884 C 0.48854 0.25609 -0.0095 0.0
C1885 C 0.47396 0.26352 -0.00139 0.0
C1886 C 0.45261 0.30646 0.00608 0.0
C1887 C 0.41423 0.31408 0.0367 0.0
C1888 C 0.42963 0.30579 0.02818 0.0
C1889 C 0.4746 0.2823 0.0037 0.0
C1890 C 0.45906 0.29029 0.01208 0.0
H1891 H 0.37401 0.30211 0.05409 0.0
H1892 H 0.39895 0.2884 0.03982 0.0
H1893 H 0.43318 0.32636 0.00877 0.0
H1894 H 0.51673 0.29466 -0.00947 0.0
H1895 H 0.49113 0.3079 0.00464 0.0
C1896 C 0.40785 0.56629 0.76452 0.0
C1897 C 0.39347 0.56965 0.75197 0.0
C1898 C 0.4215 0.5554 0.75917 0.0
C1899 C 0.44062 0.53325 0.71832 0.0
H1900 H 0.45785 0.50047 0.75358 0.0
C1901 C 0.47829 0.4691 0.69982 0.0
C1902 C 0.49353 0.46612 0.71142 0.0
C1903 C 0.4674 0.48321 0.70427 0.0
C1904 C 0.45332 0.50969 0.74366 0.0
H1905 H 0.38192 0.56409 0.72405 0.0
H1906 H 0.40548 0.54475 0.71472 0.0
H1907 H 0.43637 0.52237 0.76222 0.0
H1908 H 0.50962 0.47532 0.73649 0.0
H1909 H 0.49046 0.50007 0.74451 0.0
H1910 H 0.45717 0.51988 0.69957 0.0
C1911 C 0.40663 0.551 0.72856 0.0
C1912 C 0.44105 0.52233 0.74861 0.0
C1913 C 0.39311 0.56213 0.73388 0.0
C1914 C 0.49795 0.47757 0.72737 0.0
C1915 C 0.48695 0.49156 0.73196 0.0
C1916 C 0.45274 0.52042 0.7133 0.0
C1917 C 0.42088 0.54727 0.74122 0.0
C1918 C 0.43449 0.53428 0.73601 0.0
C1919 C 0.47148 0.49442 0.72052 0.0
C1920 C 0.45917 0.5085 0.72592 0.0
H1921 H 0.40846 0.57199 0.77856 0.0
H1922 H 0.43244 0.55321 0.7692 0.0
H1923 H 0.43611 0.54239 0.70833 0.0
H1924 H 0.47474 0.46033 0.68746 0.0
H1925 H 0.45547 0.48501 0.6953 0.0
C1926 C -0.01041 0.79437 0.17019 0.0
C1927 C 0.98438 0.77915 0.17961 0.0
C1928 C -0.00745 0.81166 0.1794 0.0
C1929 C 0.00657 0.83333 0.22461 0.0
H1930 H -0.00943 0.87717 0.20449 0.0
C1931 C 0.02701 0.90362 0.26206 0.0
C1932 C 0.03189 0.91767 0.25115 0.0
C1933 C 0.01827 0.88726 0.25409 0.0
C1934 C -0.0047 0.86509 0.21023 0.0
H1935 H 0.97628 0.7705 0.20555 0.0
H1936 H 0.98225 0.80059 0.22186 0.0
H1937 H 0.98067 0.84746 0.18882 0.0
H1938 H 0.0316 0.92617 0.22369 0.0
H1939 H 0.01688 0.89736 0.20943 0.0
H1940 H 0.02189 0.85075 0.2455 0.0
C1941 C 0.98443 0.79901 0.20745 0.0
C1942 C -0.01045 0.84808 0.20128 0.0
C1943 C 0.98128 0.78175 0.19818 0.0
C1944 C 0.02768 0.91541 0.23223 0.0
C1945 C 0.01918 0.89897 0.22418 0.0
C1946 C 0.01252 0.85031 0.23342 0.0
C1947 C -0.00962 0.81408 0.19821 0.0
C1948 C -0.00472 0.83206 0.2083 0.0
C1949 C 0.0146 0.88455 0.23498 0.0
C1950 C 0.00712 0.86645 0.22626 0.0
H1951 H -0.00806 0.79282 0.15582 0.0
H1952 H -0.00281 0.82303 0.17194 0.0
H1953 H 0.0114 0.8212 0.23019 0.0
H1954 H 0.03028 0.90526 0.27671 0.0
H1955 H 0.01465 0.87664 0.2629 0.0
C1956 C 0.5734 0.16011 0.69042 0.0
C1957 C 0.58479 0.16945 0.70473 0.0
C1958 C 0.55996 0.14688 0.69407 0.0
C1959 C 0.53192 0.13131 0.72991 0.0
H1960 H 0.52655 0.08573 0.69973 0.0
C1961 C 0.48302 0.0702 0.74515 0.0
C1962 C 0.47387 0.05992 0.73007 0.0
C1963 C 0.49652 0.08385 0.74258 0.0
C1964 C 0.52766 0.09847 0.70813 0.0
H1965 H 0.59164 0.17138 0.73401 0.0
H1966 H 0.56771 0.14871 0.74046 0.0
H1967 H 0.55016 0.10901 0.6943 0.0
H1968 H 0.47118 0.05559 0.70067 0.0
H1969 H 0.4944 0.07977 0.69592 0.0
H1970 H 0.50922 0.1209 0.74357 0.0
C1971 C 0.569 0.15195 0.72645 0.0
C1972 C 0.54125 0.11178 0.70505 0.0
C1973 C 0.58257 0.1651 0.72277 0.0
C1974 C 0.47815 0.06352 0.7124 0.0
C1975 C 0.49153 0.07721 0.70977 0.0
C1976 C 0.5182 0.11803 0.73292 0.0
C1977 C 0.55761 0.14265 0.71211 0.0
C1978 C 0.54346 0.12838 0.71582 0.0
C1979 C 0.50105 0.08742 0.72484 0.0
C1980 C 0.51583 0.10148 0.72198 0.0
H1981 H 0.5748 0.16311 0.67636 0.0
H1982 H 0.55129 0.14005 0.68275 0.0
H1983 H 0.53322 0.14404 0.73834 0.0
H1984 H 0.47998 0.06731 0.75888 0.0
H1985 H 0.50373 0.09125 0.7545 0.0
C1986 C 0.03666 0.37698 0.31337 0.0
C1987 C 0.03184 0.37115 0.33024 0.0
C1988 C 0.03041 0.39301 0.30703 0.0
C1989 C 0.011 0.43579 0.32318 0.0
H1990 H -0.00293 0.43857 0.27164 0.0
C1991 C 0.97156 0.49404 0.29564 0.0
C1992 C 0.97808 0.50189 0.28035 0.0
C1993 C 0.97849 0.47816 0.30155 0.0
C1994 C 0.00106 0.43802 0.28605 0.0
H1995 H 0.01681 0.37744 0.35376 0.0
H1996 H 0.00545 0.4051 0.34256 0.0
H1997 H 0.00828 0.41054 0.28226 0.0
H1998 H -0.00333 0.49961 0.25914 0.0
H1999 H 0.0088 0.47158 0.26934 0.0
H2000 H 0.00337 0.46316 0.32695 0.0
C2001 C 0.01434 0.39757 0.33431 0.0
C2002 C 0.00754 0.42199 0.29215 0.0
C2003 C 0.02074 0.38166 0.3407 0.0
C2004 C -0.00848 0.49365 0.27096 0.0
C2005 C -0.00166 0.47766 0.27674 0.0
C2006 C 0.00435 0.45172 0.3171 0.0
C2007 C 0.01915 0.40351 0.31743 0.0
C2008 C 0.01253 0.42065 0.31082 0.0
C2009 C -0.00806 0.46981 0.29215 0.0
C2010 C -0.00073 0.45298 0.29849 0.0
H2011 H 0.04569 0.36944 0.3053 0.0
H2012 H 0.03471 0.39735 0.29416 0.0
H2013 H 0.01508 0.43543 0.33759 0.0
H2014 H 0.96128 0.50036 0.30309 0.0
H2015 H 0.97321 0.47233 0.31339 0.0
C2016 C 0.28968 0.58237 0.33021 0.0
C2017 C 0.27448 0.57093 0.32284 0.0
C2018 C 0.30567 0.5834 0.3212 0.0
C2019 C 0.32503 0.57382 0.27702 0.0
H2020 H 0.36907 0.56801 0.3074 0.0
C2021 C 0.39245 0.55671 0.24686 0.0
C2022 C 0.40885 0.56399 0.25628 0.0
C2023 C 0.37585 0.5592 0.25428 0.0
C2024 C 0.357 0.56999 0.29872 0.0
H2025 H 0.2639 0.55229 0.29977 0.0
H2026 H 0.29186 0.55416 0.28401 0.0
H2027 H 0.34039 0.56992 0.32132 0.0
H2028 H 0.42086 0.57979 0.2806 0.0
H2029 H 0.3919 0.58484 0.29333 0.0
H2030 H 0.34167 0.57393 0.25439 0.0
C2031 C 0.29136 0.56231 0.29677 0.0
C2032 C 0.34053 0.57103 0.30673 0.0
C2033 C 0.27537 0.56118 0.30585 0.0
C2034 C 0.40836 0.5742 0.27303 0.0
C2035 C 0.39178 0.57685 0.28039 0.0
C2036 C 0.34157 0.57293 0.269 0.0
C2037 C 0.3068 0.57312 0.30457 0.0
C2038 C 0.32435 0.57286 0.29597 0.0
C2039 C 0.37531 0.56916 0.27125 0.0
C2040 C 0.35776 0.57088 0.27974 0.0
H2041 H 0.28944 0.59015 0.34322 0.0
H2042 H 0.31727 0.59204 0.32741 0.0
H2043 H 0.31279 0.57539 0.26841 0.0
H2044 H 0.39256 0.54888 0.23387 0.0
H2045 H 0.3635 0.55289 0.24694 0.0
C2046 C 0.17279 0.36814 0.71017 0.0
C2047 C 0.17662 0.36473 0.72858 0.0
C2048 C 0.15486 0.36622 0.70227 0.0
C2049 C 0.10834 0.36887 0.71568 0.0
H2050 H 0.0939 0.34942 0.66599 0.0
C2051 C 0.03438 0.37008 0.68659 0.0
C2052 C 0.03193 0.37579 0.66887 0.0
C2053 C 0.05134 0.36502 0.69326 0.0
C2054 C 0.09773 0.355 0.67986 0.0
H2055 H 0.16468 0.3557 0.7528 0.0
H2056 H 0.13354 0.35236 0.73903 0.0
H2057 H 0.12522 0.34769 0.67863 0.0
H2058 H 0.04464 0.37986 0.64385 0.0
H2059 H 0.07454 0.37155 0.65551 0.0
H2060 H 0.08125 0.37684 0.71685 0.0
C2061 C 0.14435 0.35675 0.73077 0.0
C2062 C 0.11567 0.35398 0.68709 0.0
C2063 C 0.16223 0.3586 0.73864 0.0
C2064 C 0.04637 0.37547 0.65756 0.0
C2065 C 0.06341 0.37061 0.66426 0.0
C2066 C 0.0905 0.37002 0.70844 0.0
C2067 C 0.1404 0.36093 0.71263 0.0
C2068 C 0.12119 0.36101 0.70506 0.0
C2069 C 0.06626 0.36582 0.68239 0.0
C2070 C 0.08495 0.36322 0.69039 0.0
H2071 H 0.18356 0.37286 0.70203 0.0
H2072 H 0.15224 0.36965 0.68828 0.0
H2073 H 0.11223 0.37472 0.72946 0.0
H2074 H 0.02334 0.3703 0.69549 0.0
H2075 H 0.05289 0.36102 0.70714 0.0
C2076 C 0.72376 0.95262 0.67046 0.0
C2077 C 0.72202 0.95092 0.65123 0.0
C2078 C 0.74098 0.95555 0.67996 0.0
C2079 C 0.78797 0.97308 0.67363 0.0
H2080 H 0.80089 0.9485 0.71708 0.0
C2081 C 0.86172 0.97664 0.7051 0.0
C2082 C 0.86454 0.97923 0.72419 0.0
C2083 C 0.84419 0.9726 0.69671 0.0
C2084 C 0.79742 0.95561 0.70507 0.0
H2085 H 0.73705 0.95049 0.62695 0.0
H2086 H 0.7669 0.95541 0.64346 0.0
H2087 H 0.77038 0.94257 0.70161 0.0
H2088 H 0.85156 0.9794 0.74957 0.0
H2089 H 0.82068 0.97251 0.73493 0.0
H2090 H 0.81489 -0.01385 0.67702 0.0
C2091 C 0.755 0.9548 0.65122 0.0
C2092 C 0.77994 0.95222 0.69622 0.0
C2093 C 0.73785 0.95187 0.64176 0.0
C2094 C 0.8496 0.97745 0.7348 0.0
C2095 C 0.83202 0.9734 0.72642 0.0
C2096 C 0.80538 0.97647 0.68245 0.0
C2097 C 0.75678 0.95689 0.67043 0.0
C2098 C 0.77508 0.9608 0.6803 0.0
C2099 C 0.82909 0.97111 0.70725 0.0
C2100 C 0.81038 0.96767 0.69818 0.0
H2101 H 0.71182 0.95196 0.67816 0.0
H2102 H 0.74189 0.95722 0.69476 0.0
H2103 H 0.78455 0.98023 0.66163 0.0
H2104 H 0.87307 0.97814 0.69669 0.0
H2105 H 0.84246 0.97067 0.68193 0.0
C2106 C 0.72462 0.0033 0.27518 0.0
C2107 C 0.72633 0.01464 0.26071 0.0
C2108 C 0.7086 0.00217 0.28423 0.0
C2109 C 0.66545 0.02444 0.29035 0.0
H2110 H 0.646 0.9754 0.29709 0.0
C2111 C 0.58898 0.00475 0.29426 0.0
C2112 C 0.58379 -0.00866 0.30584 0.0
C2113 C 0.60739 0.00929 0.29227 0.0
C2114 C 0.65134 -0.01078 0.29563 0.0
H2115 H 0.71285 0.03429 0.24501 0.0
H2116 H 0.68497 0.03214 0.26053 0.0
H2117 H 0.67666 0.98038 0.28752 0.0
H2118 H 0.59352 0.97272 0.32505 0.0
H2119 H 0.62583 0.98058 0.32163 0.0
H2120 H 0.63981 0.03315 0.29787 0.0
C2121 C 0.69602 0.02426 0.26508 0.0
C2122 C 0.66897 -0.00791 0.29016 0.0
C2123 C 0.712 0.02539 0.25606 0.0
C2124 C 0.59729 0.98297 0.3159 0.0
C2125 C 0.61571 -0.01254 0.3139 0.0
C2126 C 0.64779 0.02155 0.29577 0.0
C2127 C 0.69395 0.01236 0.27903 0.0
C2128 C 0.67611 0.00969 0.28706 0.0
C2129 C 0.62097 0.00045 0.30181 0.0
C2130 C 0.64039 0.00386 0.29811 0.0
H2131 H 0.73544 -0.00509 0.27918 0.0
H2132 H 0.70757 -0.00692 0.29509 0.0
H2133 H 0.67064 0.0382 0.28842 0.0
H2134 H 0.57876 0.01118 0.28621 0.0
H2135 H 0.61094 0.01917 0.28266 0.0
C2136 C 0.31758 0.28538 0.55588 0.0
C2137 C 0.32229 0.27653 0.57166 0.0
C2138 C 0.30685 0.30017 0.55676 0.0
C2139 C 0.2938 0.33633 0.58916 0.0
H2140 H 0.25933 0.34459 0.54881 0.0
C2141 C 0.26832 0.40701 0.57766 0.0
C2142 C 0.25038 0.40791 0.57034 0.0
C2143 C 0.27544 0.39015 0.57952 0.0
C2144 C 0.2687 0.34242 0.56033 0.0
H2145 H 0.31891 0.27595 0.60067 0.0
H2146 H 0.29995 0.3017 0.60215 0.0
H2147 H 0.27394 0.31609 0.54877 0.0
H2148 H 0.22558 0.39223 0.55978 0.0
H2149 H 0.23785 0.36259 0.56322 0.0
H2150 H 0.28847 0.36264 0.60076 0.0
C2151 C 0.30481 0.29733 0.58914 0.0
C2152 C 0.27726 0.32615 0.56019 0.0
C2153 C 0.31558 0.2825 0.58827 0.0
C2154 C 0.23949 0.39173 0.56535 0.0
C2155 C 0.24657 0.37485 0.56725 0.0
C2156 C 0.28521 0.3526 0.58931 0.0
C2157 C 0.3005 0.30648 0.57343 0.0
C2158 C 0.29015 0.32303 0.57444 0.0
C2159 C 0.26472 0.37385 0.57412 0.0
C2160 C 0.27277 0.35597 0.57476 0.0
H2161 H 0.32253 0.28116 0.54287 0.0
H2162 H 0.30402 0.30702 0.54444 0.0
H2163 H 0.30375 0.33446 0.60029 0.0
H2164 H 0.27697 0.41937 0.58136 0.0
H2165 H 0.28955 0.38992 0.58459 0.0
C2166 C 0.21839 0.71641 -0.00503 0.0
C2167 C 0.22122 0.72938 0.98216 0.0
C2168 C 0.22235 0.69836 -0.00881 0.0
C2169 C 0.24991 0.6702 0.96233 0.0
H2170 H 0.21791 0.63018 0.9757 0.0
C2171 C 0.27033 0.59613 0.95945 0.0
C2172 C 0.25692 0.58247 0.95258 0.0
C2173 C 0.26581 0.61402 0.96298 0.0
C2174 C 0.22692 0.6412 0.97177 0.0
H2175 H 0.23018 0.73349 0.95521 0.0
H2176 H 0.23693 0.70201 0.94858 0.0
H2177 H 0.20996 0.66144 0.98165 0.0
H2178 H 0.22838 0.5765 0.94409 0.0
H2179 H 0.22036 0.60788 0.94999 0.0
H2180 H 0.26674 0.64998 0.9522 0.0
C2181 C 0.23188 0.70583 0.96165 0.0
C2182 C 0.22246 0.65912 0.97536 0.0
C2183 C 0.22791 0.72386 0.96541 0.0
C2184 C 0.23891 0.58692 0.94929 0.0
C2185 C 0.23435 0.6048 0.95284 0.0
C2186 C 0.25439 0.6523 0.95878 0.0
C2187 C 0.22925 0.69289 0.97453 0.0
C2188 C 0.23391 0.67383 0.97067 0.0
C2189 C 0.24776 0.61856 0.95972 0.0
C2190 C 0.24295 0.63759 0.96346 0.0
H2191 H 0.21328 0.72021 0.00802 0.0
H2192 H 0.22034 0.68877 0.00148 0.0
H2193 H 0.25912 0.68123 0.95872 0.0
H2194 H 0.28431 0.59292 0.96198 0.0
H2195 H 0.27642 0.62424 0.96847 0.0
C2196 C 0.73804 0.17883 0.36298 0.0
C2197 C 0.73114 0.19063 0.37617 0.0
C2198 C 0.73029 0.16098 0.3592 0.0
C2199 C 0.69008 0.1296 0.36674 0.0
H2200 H 0.72519 0.09304 0.36705 0.0
C2201 C 0.66796 0.05323 0.37019 0.0
C2202 C 0.67799 0.04516 0.38392 0.0
C2203 C 0.6743 0.07009 0.36447 0.0
C2204 C 0.71519 0.10307 0.36684 0.0
H2205 H 0.71003 0.19319 0.39497 0.0
H2206 H 0.6967 0.16212 0.38857 0.0
H2207 H 0.7356 0.12495 0.36592 0.0
H2208 H 0.70253 0.04755 0.40199 0.0
H2209 H 0.71377 0.07689 0.39209 0.0
H2210 H 0.6698 0.10776 0.36872 0.0
C2211 C 0.70799 0.16664 0.381 0.0
C2212 C 0.72114 0.12137 0.36599 0.0
C2213 C 0.71574 0.18447 0.38478 0.0
C2214 C 0.69475 0.05362 0.39127 0.0
C2215 C 0.70115 0.07033 0.38552 0.0
C2216 C 0.68413 0.11128 0.36758 0.0
C2217 C 0.71544 0.15453 0.36849 0.0
C2218 C 0.70872 0.13493 0.36648 0.0
C2219 C 0.69083 0.07899 0.37234 0.0
C2220 C 0.69669 0.09787 0.36821 0.0
H2221 H 0.74982 0.18317 0.356 0.0
H2222 H 0.73619 0.15209 0.34929 0.0
H2223 H 0.68013 0.13967 0.36686 0.0
H2224 H 0.65493 0.04684 0.36451 0.0
H2225 H 0.66611 0.07636 0.3542 0.0
C2226 C 0.66412 0.72488 0.95674 0.0
C2227 C 0.64538 0.72619 0.9528 0.0
C2228 C 0.67615 0.74056 0.95888 0.0
C2229 C 0.67977 0.78958 0.94975 0.0
H2230 H 0.71634 0.79406 -0.00925 0.0
C2231 C 0.71294 0.85859 0.98141 0.0
C2232 C 0.73157 0.85988 0.98694 0.0
C2233 C 0.70395 0.8418 0.97512 0.0
C2234 C 0.70639 0.79292 0.97907 0.0
H2235 H 0.62463 0.74496 0.94772 0.0
H2236 H 0.64544 0.77217 0.95172 0.0
H2237 H 0.69785 0.76539 0.98356 0.0
H2238 H 0.7556 0.84506 -0.00998 0.0
H2239 H 0.73985 0.81539 0.97915 0.0
H2240 H 0.68795 0.81731 0.94565 0.0
C2241 C 0.65096 0.75907 0.95288 0.0
C2242 C 0.6958 0.77647 0.97492 0.0
C2243 C 0.63898 0.74344 0.95071 0.0
C2244 C 0.74119 0.84422 0.98587 0.0
C2245 C 0.73218 0.82734 0.97971 0.0
C2246 C 0.69029 0.80603 0.95396 0.0
C2247 C 0.66968 0.75786 0.95712 0.0
C2248 C 0.68213 0.77471 0.96042 0.0
C2249 C 0.71342 0.82594 0.97439 0.0
C2250 C 0.70349 0.80798 0.96886 0.0
H2251 H 0.6695 0.71178 0.95836 0.0
H2252 H 0.69051 0.73913 0.96194 0.0
H2253 H 0.66963 0.78857 0.93825 0.0
H2254 H 0.70533 0.87057 0.98234 0.0
H2255 H 0.68945 0.84114 0.97137 0.0
C2256 C 0.58923 0.32426 0.28843 0.0
C2257 C 0.57567 0.32104 0.27388 0.0
C2258 C 0.58852 0.3143 0.30388 0.0
C2259 C 0.55481 0.28997 0.32924 0.0
H2260 H 0.59708 0.27613 0.3579 0.0
C2261 C 0.55195 0.27507 0.40443 0.0
C2262 C 0.56035 0.25986 0.41032 0.0
C2263 C 0.55456 0.28104 0.38717 0.0
C2264 C 0.58514 0.27976 0.34996 0.0
H2265 H 0.5514 0.304 0.26367 0.0
H2266 H 0.55028 0.28654 0.29053 0.0
H2267 H 0.60067 0.28808 0.32806 0.0
H2268 H 0.57833 0.23913 0.40318 0.0
H2269 H 0.5831 0.24964 0.37278 0.0
H2270 H 0.53928 0.28179 0.35108 0.0
C2271 C 0.56126 0.29701 0.29014 0.0
C2272 C 0.58721 0.28674 0.33295 0.0
C2273 C 0.56196 0.30696 0.2747 0.0
C2274 C 0.57179 0.25094 0.39885 0.0
C2275 C 0.5745 0.25696 0.38154 0.0
C2276 C 0.55276 0.28309 0.34622 0.0
C2277 C 0.57425 0.3009 0.30512 0.0
C2278 C 0.57208 0.2921 0.32249 0.0
C2279 C 0.56571 0.27196 0.37544 0.0
C2280 C 0.56792 0.27815 0.3569 0.0
H2281 H 0.60001 0.33497 0.28823 0.0
H2282 H 0.59867 0.31773 0.31522 0.0
H2283 H 0.5429 0.29416 0.32167 0.0
H2284 H 0.54336 0.28234 0.41324 0.0
H2285 H 0.54791 0.29287 0.38304 0.0
C2286 C 0.95519 0.23896 0.73177 0.0
C2287 C 0.96883 0.24489 0.74565 0.0
C2288 C 0.95086 0.24997 0.71769 0.0
C2289 C 0.97012 0.28792 0.69338 0.0
H2290 H 0.92088 0.28539 0.67059 0.0
C2291 C 0.95045 0.32362 0.62757 0.0
C2292 C 0.94108 0.31169 0.61378 0.0
C2293 C 0.95284 0.3184 0.64546 0.0
C2294 C 0.93468 0.28628 0.67687 0.0
H2295 H -0.0117 0.26732 0.75592 0.0
H2296 H 0.9805 0.28677 0.73137 0.0
H2297 H 0.92682 0.27132 0.69922 0.0
H2298 H 0.92672 0.28518 0.60763 0.0
H2299 H 0.93059 0.27604 0.63892 0.0
H2300 H 0.97791 0.30278 0.67079 0.0
C2301 C 0.97336 0.27343 0.73126 0.0
C2302 C 0.93812 0.27816 0.69321 0.0
C2303 C 0.97776 0.26233 0.74537 0.0
C2304 C 0.93381 0.29463 0.61816 0.0
C2305 C 0.93601 0.28947 0.63601 0.0
C2306 C 0.96663 0.29623 0.67709 0.0
C2307 C 0.95995 0.2673 0.71715 0.0
C2308 C 0.95597 0.27834 0.70136 0.0
C2309 C 0.9457 0.30122 0.64982 0.0
C2310 C 0.94897 0.29498 0.6684 0.0
H2311 H 0.94807 0.22558 0.73151 0.0
H2312 H 0.94072 0.24461 0.7069 0.0
H2313 H 0.98405 0.28822 0.69917 0.0
H2314 H 0.95599 0.33688 0.62439 0.0
H2315 H 0.96023 0.32773 0.65589 0.0
C2316 C 0.39975 0.75349 0.1847 0.0
C2317 C 0.38547 0.75381 0.19628 0.0
C2318 C 0.3978 0.74279 0.16817 0.0
C2319 C 0.37176 0.70319 0.14328 0.0
H2320 H 0.39084 0.72438 0.10115 0.0
C2321 C 0.38706 0.66087 0.07778 0.0
C2322 C 0.38447 0.66854 0.06096 0.0
C2323 C 0.38422 0.67082 0.09406 0.0
C2324 C 0.38519 0.71831 0.11268 0.0
H2325 H 0.35802 0.74282 0.19974 0.0
H2326 H 0.35461 0.72407 0.17071 0.0
H2327 H 0.39172 0.74271 0.13003 0.0
H2328 H 0.37632 0.69221 0.04773 0.0
H2329 H 0.37089 0.70957 0.07612 0.0
H2330 H 0.36528 0.67873 0.12583 0.0
C2331 C 0.36734 0.7321 0.17453 0.0
C2332 C 0.38593 0.72876 0.12931 0.0
C2333 C 0.36928 0.74288 0.19111 0.0
C2334 C 0.37824 0.68601 0.06057 0.0
C2335 C 0.37535 0.69597 0.07682 0.0
C2336 C 0.37107 0.69269 0.1266 0.0
C2337 C 0.38152 0.73212 0.16279 0.0
C2338 C 0.37949 0.72125 0.14488 0.0
C2339 C 0.37873 0.68866 0.0938 0.0
C2340 C 0.37798 0.70008 0.11116 0.0
H2341 H 0.41245 0.76164 0.18829 0.0
H2342 H 0.40911 0.74284 0.15961 0.0
H2343 H 0.36675 0.69701 0.15504 0.0
H2344 H 0.39185 0.64738 0.0783 0.0
H2345 H 0.38712 0.66484 0.10688 0.0
C2346 C 0.94711 0.6679 0.72821 0.0
C2347 C 0.9591 0.65648 0.71999 0.0
C2348 C 0.95267 0.67849 0.74448 0.0
C2349 C -0.00612 0.69601 0.77455 0.0
H2350 H 0.96054 0.69658 0.81288 0.0
C2351 C 0.01799 0.71154 0.8504 0.0
C2352 C 0.00799 0.72302 0.8611 0.0
C2353 C 0.01156 0.70556 0.83253 0.0
C2354 C 0.96991 0.69677 0.80223 0.0
H2355 H -0.01351 0.64763 0.72217 0.0
H2356 H -0.00396 0.66576 0.7505 0.0
H2357 H 0.9502 0.68262 0.78247 0.0
H2358 H 0.98346 0.73726 0.86169 0.0
H2359 H 0.97187 0.72647 0.83034 0.0
H2360 H 0.01375 0.70961 0.79451 0.0
C2361 C 0.98243 0.66681 0.74432 0.0
C2362 C 0.96399 0.68881 0.78478 0.0
C2363 C 0.9769 0.65628 0.7281 0.0
C2364 C -0.0087 0.72829 0.85369 0.0
C2365 C -0.01527 0.72216 0.83581 0.0
C2366 C -0.00018 0.70384 0.792 0.0
C2367 C 0.97034 0.67789 0.75285 0.0
C2368 C 0.97601 0.68802 0.77082 0.0
C2369 C -0.00514 0.71079 0.82502 0.0
C2370 C -0.01199 0.704 0.80611 0.0
H2371 H 0.93332 0.66841 0.72228 0.0
H2372 H 0.94309 0.68706 0.75055 0.0
H2373 H 0.00339 0.69601 0.76403 0.0
H2374 H 0.03072 0.70704 0.85599 0.0
H2375 H 0.0195 0.69654 0.82468 0.0
C2376 C 0.68414 0.41679 0.6665 0.0
C2377 C 0.68624 0.40777 0.64938 0.0
C2378 C 0.66685 0.41771 0.67297 0.0
C2379 C 0.61857 0.4157 0.65581 0.0
H2380 H 0.6093 0.41229 0.7067 0.0
C2381 C 0.54618 0.41844 0.67954 0.0
C2382 C 0.54438 0.42904 0.6958 0.0
C2383 C 0.56338 0.41429 0.67454 0.0
C2384 C 0.6117 0.41343 0.69247 0.0
H2385 H 0.67187 0.39194 0.62605 0.0
H2386 H 0.64187 0.3934 0.6374 0.0
H2387 H 0.63966 0.40774 0.69696 0.0
H2388 H 0.5589 0.44317 0.71986 0.0
H2389 H 0.58909 0.43631 0.71102 0.0
H2390 H 0.5908 0.42167 0.6513 0.0
C2391 C 0.65351 0.40005 0.64568 0.0
C2392 C 0.6291 0.41081 0.68689 0.0
C2393 C 0.67076 0.39913 0.63922 0.0
C2394 C 0.56003 0.43509 0.70718 0.0
C2395 C 0.57725 0.43099 0.70219 0.0
C2396 C 0.60123 0.41835 0.66138 0.0
C2397 C 0.65129 0.40965 0.66246 0.0
C2398 C 0.63274 0.41194 0.66849 0.0
C2399 C 0.57917 0.42071 0.68568 0.0
C2400 C 0.59756 0.4173 0.67978 0.0
H2401 H 0.69578 0.4236 0.67467 0.0
H2402 H 0.66561 0.42531 0.6859 0.0
H2403 H 0.62098 0.41703 0.6416 0.0
H2404 H 0.53427 0.41374 0.67053 0.0
H2405 H 0.56431 0.40613 0.66187 0.0
C2406 C 0.8126 0.59655 0.19948 0.0
C2407 C 0.79821 0.59456 0.21084 0.0
C2408 C 0.83002 0.59193 0.20524 0.0
C2409 C 0.85901 0.58399 0.24675 0.0
H2410 H 0.88658 0.55712 0.21259 0.0
C2411 C 0.92145 0.54648 0.26982 0.0
C2412 C 0.93626 0.54687 0.25895 0.0
C2413 C 0.90531 0.55377 0.26396 0.0
C2414 C 0.87917 0.56485 0.22223 0.0
H2415 H 0.79086 0.58616 0.23718 0.0
H2416 H 0.82112 0.57791 0.2471 0.0
H2417 H 0.857 0.56697 0.20226 0.0
H2418 H 0.94615 0.55531 0.23371 0.0
H2419 H 0.91789 0.56834 0.22338 0.0
H2420 H 0.88107 0.58166 0.26678 0.0
C2421 C 0.81903 0.58329 0.23385 0.0
C2422 C 0.86221 0.57049 0.21631 0.0
C2423 C 0.80164 0.58791 0.2281 0.0
C2424 C 0.93485 0.55496 0.24228 0.0
C2425 C 0.91866 0.56224 0.23635 0.0
C2426 C 0.87595 0.57834 0.25267 0.0
C2427 C 0.83343 0.58522 0.22249 0.0
C2428 C 0.85184 0.57997 0.22855 0.0
C2429 C 0.90366 0.5616 0.24708 0.0
C2430 C 0.88615 0.56855 0.24052 0.0
H2431 H 0.81044 0.60169 0.18612 0.0
H2432 H 0.84085 0.59376 0.19624 0.0
H2433 H 0.85152 0.59156 0.25644 0.0
H2434 H 0.92238 0.54038 0.28278 0.0
H2435 H 0.89397 0.55288 0.27246 0.0
C2436 C 0.2238 -0.00112 0.32378 0.0
C2437 C 0.23687 -0.00508 0.31143 0.0
C2438 C 0.20525 -0.00416 0.31843 0.0
C2439 C 0.17163 -0.01092 0.27847 0.0
H2440 H 0.14184 0.96479 0.31211 0.0
C2441 C 0.09754 0.95952 0.25832 0.0
C2442 C 0.08501 0.9605 0.2717 0.0
C2443 C 0.11592 0.96506 0.26277 0.0
C2444 C 0.14985 0.97185 0.30266 0.0
H2445 H 0.24066 0.98515 0.28357 0.0
H2446 H 0.20813 0.97982 0.27421 0.0
H2447 H 0.17414 0.972 0.32038 0.0
H2448 H 0.08154 0.96796 0.30007 0.0
H2449 H 0.11359 0.97827 0.30789 0.0
H2450 H 0.14728 -0.01104 0.26075 0.0
C2451 C 0.21231 0.98534 0.28803 0.0
C2452 C 0.16841 0.97594 0.3074 0.0
C2453 C 0.23094 -0.01168 0.29342 0.0
C2454 C 0.09101 0.96738 0.28953 0.0
C2455 C 0.10937 0.97302 0.29399 0.0
C2456 C 0.15299 0.98508 0.27376 0.0
C2457 C 0.19928 -0.01118 0.30058 0.0
C2458 C 0.17952 0.9846 0.29538 0.0
C2459 C 0.12212 0.97167 0.28073 0.0
C2460 C 0.14187 0.9764 0.2858 0.0
H2461 H 0.22786 0.00408 0.33773 0.0
H2462 H 0.19555 -0.00106 0.32833 0.0
H2463 H 0.1798 -0.00408 0.269 0.0
H2464 H 0.0931 0.9541 0.24452 0.0
H2465 H 0.12534 0.96359 0.25226 0.0
C2466 C 0.28089 0.97362 0.7658 0.0
C2467 C 0.26698 0.97894 0.7537 0.0
C2468 C 0.29908 0.97938 0.76407 0.0
C2469 C 0.32976 -0.00247 0.73087 0.0
H2470 H 0.36253 0.01063 0.77418 0.0
C2471 C 0.40259 0.03052 0.72731 0.0
C2472 C 0.41639 0.02377 0.73843 0.0
C2473 C 0.38431 0.02536 0.72932 0.0
C2474 C 0.35358 0.00686 0.76196 0.0
H2475 H 0.26129 -0.00532 0.7304 0.0
H2476 H 0.29295 0.00497 0.72758 0.0
H2477 H 0.33069 0.00121 0.77743 0.0
H2478 H 0.42222 0.00663 0.7604 0.0
H2479 H 0.39021 -0.00259 0.76396 0.0
H2480 H 0.35266 0.0033 0.71543 0.0
C2481 C 0.28985 -0.00393 0.73822 0.0
C2482 C 0.33534 0.00143 0.76381 0.0
C2483 C 0.27167 -0.00975 0.7399 0.0
C2484 C 0.41171 0.01188 0.75166 0.0
C2485 C 0.39344 0.00677 0.75376 0.0
C2486 C 0.34798 0.00304 0.72903 0.0
C2487 C 0.3038 -0.00934 0.75024 0.0
C2488 C 0.32319 -0.00335 0.74829 0.0
C2489 C 0.37953 0.0134 0.74256 0.0
C2490 C 0.36011 0.00773 0.74455 0.0
H2491 H 0.27777 0.96487 0.77654 0.0
H2492 H 0.30947 0.97474 0.77341 0.0
H2493 H 0.32089 -0.00635 0.71863 0.0
H2494 H 0.406 0.03963 0.71696 0.0
H2495 H 0.37393 0.03084 0.7206 0.0
C2496 C 0.64044 0.66332 0.36951 0.0
C2497 C 0.64951 0.67973 0.37735 0.0
C2498 C 0.64842 0.64686 0.37092 0.0
C2499 C 0.69179 0.62627 0.38134 0.0
H2500 H 0.66019 0.58662 0.3961 0.0
C2501 C 0.71898 0.56086 0.40851 0.0
C2502 C 0.70854 0.54433 0.40397 0.0
C2503 C 0.7124 0.57728 0.40365 0.0
C2504 C 0.66917 0.59741 0.39168 0.0
H2505 H 0.67445 0.69177 0.39215 0.0
H2506 H 0.68838 0.66293 0.39467 0.0
H2507 H 0.64785 0.61546 0.39022 0.0
H2508 H 0.68325 0.53178 0.3906 0.0
H2509 H 0.67183 0.56036 0.38156 0.0
H2510 H 0.71315 0.60818 0.3829 0.0
C2511 C 0.6751 0.66286 0.38736 0.0
C2512 C 0.66208 0.61398 0.38833 0.0
C2513 C 0.66709 0.67937 0.38597 0.0
C2514 C 0.69158 0.54439 0.39411 0.0
C2515 C 0.685 0.56077 0.38915 0.0
C2516 C 0.69889 0.60962 0.38462 0.0
C2517 C 0.66567 0.64637 0.38019 0.0
C2518 C 0.6733 0.62863 0.38317 0.0
C2519 C 0.69522 0.57746 0.39408 0.0
C2520 C 0.68767 0.59501 0.38991 0.0
H2521 H 0.62694 0.6631 0.36264 0.0
H2522 H 0.64094 0.63443 0.36496 0.0
H2523 H 0.70075 0.63724 0.37721 0.0
H2524 H 0.73215 0.56106 0.41604 0.0
H2525 H 0.72056 0.58985 0.40784 0.0
C2526 C 0.73738 0.27295 0.97576 0.0
C2527 C 0.74134 0.25953 0.98778 0.0
C2528 C 0.73592 0.29093 0.98247 0.0
C2529 C 0.74923 0.32344 0.02245 0.0
H2530 H 0.71079 0.35052 0.00158 0.0
C2531 C 0.74701 0.40125 0.03709 0.0
C2532 C 0.72995 0.40778 0.03944 0.0
C2533 C 0.74837 0.38293 0.03154 0.0
C2534 C 0.72151 0.34311 0.00766 0.0
H2535 H 0.74689 0.25449 0.01629 0.0
H2536 H 0.74422 0.28585 0.02799 0.0
H2537 H 0.71302 0.31894 -0.00951 0.0
H2538 H 0.70103 0.40074 0.03833 0.0
H2539 H 0.70324 0.36853 0.0287 0.0
H2540 H 0.75758 0.34758 0.03978 0.0
C2541 C 0.74242 0.2825 0.01336 0.0
C2542 C 0.72292 0.32507 0.00116 0.0
C2543 C 0.74385 0.2645 0.00665 0.0
C2544 C 0.71427 0.39581 0.03647 0.0
C2545 C 0.71558 0.3775 0.03089 0.0
C2546 C 0.74785 0.34151 0.02893 0.0
C2547 C 0.73841 0.29591 0.00134 0.0
C2548 C 0.73682 0.31503 0.00844 0.0
C2549 C 0.73264 0.37087 0.02822 0.0
C2550 C 0.73398 0.35156 0.02159 0.0
H2551 H 0.73542 0.2696 0.96114 0.0
H2552 H 0.73305 0.30098 0.97283 0.0
H2553 H 0.76019 0.31614 0.02824 0.0
H2554 H 0.7592 0.41044 0.0393 0.0
H2555 H 0.76169 0.37831 0.02942 0.0
C2556 C 0.22056 0.80027 0.59603 0.0
C2557 C 0.22518 0.79339 0.61296 0.0
C2558 C 0.22636 0.81809 0.59272 0.0
C2559 C 0.2617 0.85481 0.60795 0.0
H2560 H 0.22995 0.88469 0.58079 0.0
C2561 C 0.28811 0.91846 0.57391 0.0
C2562 C 0.2776 0.93352 0.57409 0.0
C2563 C 0.28164 0.90225 0.58074 0.0
C2564 C 0.23892 0.87661 0.58858 0.0
H2565 H 0.23935 0.79997 0.63978 0.0
H2566 H 0.24942 0.83107 0.63399 0.0
H2567 H 0.21831 0.85469 0.58863 0.0
H2568 H 0.25245 0.94387 0.58183 0.0
H2569 H 0.24102 0.91547 0.59402 0.0
H2570 H 0.28233 0.8767 0.60786 0.0
C2571 C 0.24145 0.82261 0.62322 0.0
C2572 C 0.23231 0.85933 0.59288 0.0
C2573 C 0.2356 0.80481 0.62655 0.0
C2574 C 0.26075 0.93237 0.5817 0.0
C2575 C 0.2542 0.91612 0.58847 0.0
C2576 C 0.26833 0.87205 0.60359 0.0
C2577 C 0.23696 0.82944 0.60624 0.0
C2578 C 0.24368 0.84816 0.60245 0.0
C2579 C 0.26449 0.90079 0.58784 0.0
C2580 C 0.25708 0.88307 0.59369 0.0
H2581 H 0.21255 0.79184 0.58526 0.0
H2582 H 0.22286 0.82286 0.57941 0.0
H2583 H 0.27086 0.84649 0.61522 0.0
H2584 H 0.30116 0.91917 0.56811 0.0
H2585 H 0.28982 0.89067 0.57986 0.0
C2586 C 0.30035 0.25284 -0.00099 0.0
C2587 C 0.31768 0.25711 0.00814 0.0
C2588 C 0.29553 0.23539 -0.00934 0.0
C2589 C 0.31496 0.1935 0.97294 0.0
H2590 H 0.267 0.17086 0.979 0.0
C2591 C 0.29486 0.11712 0.95331 0.0
C2592 C 0.27732 0.11248 0.94493 0.0
C2593 C 0.29993 0.13498 0.9604 0.0
C2594 C 0.28036 0.17707 0.97698 0.0
H2595 H 0.3436 0.24643 0.0155 0.0
H2596 H 0.33512 0.21598 0.00106 0.0
H2597 H 0.27557 0.20168 -0.0076 0.0
H2598 H 0.2513 0.12254 0.93734 0.0
H2599 H 0.26015 0.15391 0.94942 0.0
H2600 H 0.31976 0.16882 0.95759 0.0
C2601 C 0.32533 0.22617 0.00019 0.0
C2602 C 0.28528 0.19474 0.98466 0.0
C2603 C 0.33014 0.2436 0.00856 0.0
C2604 C 0.26494 0.12594 0.94363 0.0
C2605 C 0.26997 0.14379 0.95071 0.0
C2606 C 0.31004 0.17581 0.96525 0.0
C2607 C 0.30793 0.22183 -0.00878 0.0
C2608 C 0.30264 0.20315 0.98277 0.0
C2609 C 0.2875 0.1485 0.95926 0.0
C2610 C 0.2927 0.16739 0.96721 0.0
H2611 H 0.29045 0.26293 -0.00162 0.0
H2612 H 0.28211 0.23256 0.98365 0.0
H2613 H 0.32835 0.19968 0.97102 0.0
H2614 H 0.30458 0.10689 0.95437 0.0
H2615 H 0.31346 0.13811 0.96707 0.0
C2616 C 0.3929 0.62709 0.66438 0.0
C2617 C 0.38317 0.60992 0.66324 0.0
C2618 C 0.3965 0.63568 0.64856 0.0
C2619 C 0.38097 0.63595 0.59961 0.0
H2620 H 0.42801 0.66196 0.59661 0.0
C2621 C 0.40414 0.66377 0.53268 0.0
C2622 C 0.41382 0.68092 0.53416 0.0
C2623 C 0.39987 0.65525 0.54838 0.0
C2624 C 0.41473 0.65494 0.59731 0.0
H2625 H 0.36972 0.58824 0.64451 0.0
H2626 H 0.37621 0.60314 0.61688 0.0
H2627 H 0.42187 0.64657 0.62399 0.0
H2628 H 0.42626 0.7029 0.55293 0.0
H2629 H 0.41882 0.68811 0.5805 0.0
H2630 H 0.37389 0.64427 0.57285 0.0
C2631 C 0.38083 0.61008 0.63005 0.0
C2632 C 0.4112 0.6461 0.61301 0.0
C2633 C 0.37721 0.60149 0.64589 0.0
C2634 C 0.41893 0.68958 0.55155 0.0
C2635 C 0.41472 0.68108 0.56726 0.0
C2636 C 0.3845 0.64476 0.58388 0.0
C2637 C 0.39049 0.6273 0.63119 0.0
C2638 C 0.39427 0.63653 0.61438 0.0
C2639 C 0.40527 0.66374 0.56586 0.0
C2640 C 0.40141 0.65439 0.58257 0.0
H2641 H 0.39764 0.63401 0.67753 0.0
H2642 H 0.40376 0.64904 0.64996 0.0
H2643 H 0.36768 0.62893 0.60031 0.0
H2644 H 0.4003 0.65678 0.51937 0.0
H2645 H 0.39277 0.64181 0.54682 0.0
C2646 C 0.01369 0.74162 0.27418 0.0
C2647 C 0.0029 0.75531 0.26824 0.0
C2648 C 0.01805 0.74023 0.29283 0.0
C2649 C 0.02063 0.76635 0.3379 0.0
H2650 H 0.01853 0.71848 0.35657 0.0
C2651 C 0.0247 0.75587 0.41529 0.0
C2652 C 0.03481 0.74176 0.42121 0.0
C2653 C 0.02125 0.75783 0.3966 0.0
C2654 C 0.0194 0.73193 0.35155 0.0
H2655 H -0.01166 0.77837 0.27726 0.0
H2656 H -0.00418 0.77584 0.30977 0.0
H2657 H 0.01176 0.72133 0.32402 0.0
H2658 H 0.04956 0.71885 0.41271 0.0
H2659 H 0.04381 0.72229 0.37993 0.0
H2660 H 0.02821 0.77694 0.36548 0.0
C2661 C 0.00108 0.76629 0.30001 0.0
C2662 C 0.01552 0.73357 0.33288 0.0
C2663 C -0.0033 0.76767 0.28136 0.0
C2664 C 0.04168 0.72978 0.40828 0.0
C2665 C 0.03826 0.7317 0.38961 0.0
C2666 C 0.02451 0.76471 0.35659 0.0
C2667 C 0.01174 0.7525 0.30597 0.0
C2668 C 0.01607 0.75079 0.32583 0.0
C2669 C 0.02792 0.74569 0.38353 0.0
C2670 C 0.02393 0.74748 0.36364 0.0
H2671 H 0.01874 0.7319 0.26444 0.0
H2672 H 0.0265 0.7296 0.29694 0.0
H2673 H 0.02143 0.7798 0.33288 0.0
H2674 H 0.01944 0.7653 0.42516 0.0
H2675 H 0.01311 0.76865 0.3924 0.0
C2676 C 0.57742 0.22203 0.80151 0.0
C2677 C 0.58322 0.20464 0.79713 0.0
C2678 C 0.57295 0.22702 0.81921 0.0
C2679 C 0.57978 0.21523 0.86715 0.0
H2680 H 0.53756 0.24258 0.87361 0.0
C2681 C 0.55029 0.22835 0.93733 0.0
C2682 C 0.54408 0.24557 0.94121 0.0
C2683 C 0.55577 0.22348 0.91997 0.0
C2684 C 0.54952 0.23514 0.87205 0.0
H2685 H 0.58881 0.17885 0.80794 0.0
H2686 H 0.58082 0.18751 0.83877 0.0
H2687 H 0.54554 0.23372 0.84287 0.0
H2688 H 0.53886 0.27134 0.9305 0.0
H2689 H 0.5486 0.26303 0.9001 0.0
H2690 H 0.58369 0.21661 0.89638 0.0
C2691 C 0.57996 0.19736 0.82857 0.0
C2692 C 0.55409 0.23005 0.85442 0.0
C2693 C 0.58443 0.19236 0.81086 0.0
C2694 C 0.54362 0.25798 0.92765 0.0
C2695 C 0.54907 0.25315 0.9103 0.0
C2696 C 0.57519 0.22031 0.88481 0.0
C2697 C 0.57416 0.21475 0.83295 0.0
C2698 C 0.56929 0.22006 0.85175 0.0
C2699 C 0.55504 0.23577 0.90618 0.0
C2700 C 0.56003 0.23036 0.88746 0.0
H2701 H 0.5764 0.23185 0.79129 0.0
H2702 H 0.56876 0.2406 0.82218 0.0
H2703 H 0.59171 0.20775 0.86557 0.0
H2704 H 0.55047 0.21857 0.94763 0.0
H2705 H 0.56009 0.20992 0.91719 0.0
C2706 C 0.0036 0.32852 0.2329 0.0
C2707 C 0.02255 0.32918 0.23685 0.0
C2708 C -0.00407 0.32423 0.21505 0.0
C2709 C 0.00658 0.32143 0.16654 0.0
H2710 H 0.96331 0.28794 0.16009 0.0
C2711 C 0.9658 0.30349 0.09633 0.0
C2712 C 0.9592 0.28524 0.09241 0.0
C2713 C 0.97383 0.30946 0.11374 0.0
C2714 C 0.97546 0.29721 0.16164 0.0
H2715 H 0.04832 0.32621 0.22504 0.0
H2716 H 0.03489 0.31852 0.19392 0.0
H2717 H 0.9768 0.29739 0.19078 0.0
H2718 H 0.95623 0.25878 0.10312 0.0
H2719 H 0.9703 0.26906 0.13358 0.0
H2720 H 0.00543 0.32088 0.1373 0.0
C2721 C 0.02598 0.32152 0.2046 0.0
C2722 C 0.98306 0.30281 0.17925 0.0
C2723 C 0.03367 0.32582 0.22247 0.0
C2724 C 0.961 0.27297 0.10601 0.0
C2725 C 0.969 0.27889 0.1234 0.0
C2726 C -0.00106 0.31583 0.14888 0.0
C2727 C 0.00701 0.32048 0.20072 0.0
C2728 C -0.00126 0.31494 0.18192 0.0
C2729 C 0.97538 0.29724 0.12753 0.0
C2730 C 0.98335 0.30357 0.14624 0.0
H2731 H -0.00536 0.33116 0.24362 0.0
H2732 H 0.98128 0.32385 0.21247 0.0
H2733 H 0.01857 0.33091 0.16813 0.0
H2734 H 0.96442 0.31315 0.08599 0.0
H2735 H 0.97845 0.32371 0.11653 0.0
loop_
_geom_bond_atom_site_label_1
_geom_bond_atom_site_label_2
_geom_bond_distance
_geom_bond_site_symmetry_2
_ccdc_geom_bond_type
O0 Cd1 2.300 . S
O0 C7 1.275 . S
Cd1 O0 2.300 . S
Cd1 O9 2.381 . S
Cd1 O10 2.378 . S
O2 Cd3 2.385 . S
O2 C7 1.255 . S
Cd3 O2 2.385 . S
Cd3 O4 2.317 . S
O4 Cd3 2.317 . S
O4 C5 1.232 . S
C5 O4 1.232 . S
C5 O6 1.218 . S
O6 C5 1.218 . S
C7 O0 1.275 . S
C7 O2 1.255 . S
C8 O9 1.258 . S
C8 O10 1.256 . S
O9 Cd1 2.381 . S
O9 C8 1.258 . S
O10 Cd1 2.378 . S
O10 C8 1.256 . S
O11 Cd12 2.300 . S
O11 C18 1.275 . S
Cd12 O11 2.300 . S
Cd12 O20 2.381 . S
Cd12 O21 2.378 . S
O13 Cd14 2.385 . S
O13 C18 1.255 . S
Cd14 O13 2.385 . S
Cd14 O15 2.317 . S
O15 Cd14 2.317 . S
O15 C16 1.232 . S
C16 O15 1.232 . S
C16 O17 1.218 . S
O17 C16 1.218 . S
C18 O11 1.275 . S
C18 O13 1.255 . S
C19 O20 1.258 . S
C19 O21 1.256 . S
O20 Cd12 2.381 . S
O20 C19 1.258 . S
O21 Cd12 2.378 . S
O21 C19 1.256 . S
O22 Cd23 2.300 1_545 S
O22 C29 1.275 1_545 S
Cd23 O22 2.300 1_565 S
Cd23 O31 2.381 1_565 S
Cd23 O32 2.378 . S
O24 Cd25 2.385 . S
O24 C29 1.255 . S
Cd25 O24 2.385 . S
Cd25 O26 2.317 . S
O26 Cd25 2.317 . S
O26 C27 1.232 . S
C27 O26 1.232 . S
C27 O28 1.218 . S
O28 C27 1.218 . S
C29 O22 1.275 1_565 S
C29 O24 1.255 . S
C30 O31 1.267 . S
C30 O32 1.242 1_545 S
O31 Cd23 2.381 1_545 S
O31 C30 1.267 . S
O32 Cd23 2.378 . S
O32 C30 1.242 1_565 S
O33 Cd34 2.300 1_565 S
O33 C40 1.276 1_565 S
Cd34 O33 2.300 1_545 S
Cd34 O42 2.381 1_545 S
Cd34 O43 2.378 . S
O35 Cd36 2.385 . S
O35 C40 1.255 . S
Cd36 O35 2.385 . S
Cd36 O37 2.317 . S
O37 Cd36 2.317 . S
O37 C38 1.232 . S
C38 O37 1.232 . S
C38 O39 1.218 . S
O39 C38 1.218 . S
C40 O33 1.276 1_545 S
C40 O35 1.255 . S
C41 O42 1.258 1_545 S
C41 O43 1.256 . S
O42 Cd34 2.381 1_565 S
O42 C41 1.258 1_565 S
O43 Cd34 2.378 . S
O43 C41 1.256 . S
O44 Cd45 2.300 . S
O44 C51 1.275 . S
Cd45 O44 2.300 . S
Cd45 O53 2.381 . S
Cd45 O54 2.378 . S
O46 Cd47 2.385 . S
O46 C51 1.255 . S
Cd47 O46 2.385 . S
Cd47 O48 2.317 . S
O48 Cd47 2.317 . S
O48 C49 1.232 . S
C49 O48 1.232 . S
C49 O50 1.218 . S
O50 C49 1.218 . S
C51 O44 1.275 . S
C51 O46 1.255 . S
C52 O53 1.258 . S
C52 O54 1.256 . S
O53 Cd45 2.381 . S
O53 C52 1.258 . S
O54 Cd45 2.378 . S
O54 C52 1.256 . S
O55 Cd56 2.300 1_556 S
O55 C62 1.276 1_556 S
Cd56 O55 2.300 1_554 S
Cd56 O64 2.381 1_554 S
Cd56 O65 2.378 . S
O57 Cd58 2.385 . S
O57 C62 1.255 . S
Cd58 O57 2.385 . S
Cd58 O59 2.317 . S
O59 Cd58 2.317 . S
O59 C60 1.232 . S
C60 O59 1.232 . S
C60 O61 1.218 . S
O61 C60 1.218 . S
C62 O55 1.276 1_554 S
C62 O57 1.255 . S
C63 O64 1.258 1_554 S
C63 O65 1.256 . S
O64 Cd56 2.381 1_556 S
O64 C63 1.258 1_556 S
O65 Cd56 2.378 . S
O65 C63 1.256 . S
O66 Cd67 2.300 . S
O66 C73 1.275 . S
Cd67 O66 2.300 . S
Cd67 O75 2.381 . S
Cd67 O76 2.378 . S
O68 Cd69 2.385 . S
O68 C73 1.255 . S
Cd69 O68 2.385 . S
Cd69 O70 2.317 . S
O70 Cd69 2.317 . S
O70 C71 1.232 . S
C71 O70 1.232 . S
C71 O72 1.218 . S
O72 C71 1.218 . S
C73 O66 1.275 . S
C73 O68 1.255 . S
C74 O75 1.258 . S
C74 O76 1.256 . S
O75 Cd67 2.381 . S
O75 C74 1.258 . S
O76 Cd67 2.378 . S
O76 C74 1.256 . S
O77 Cd78 2.300 1_554 S
O77 C84 1.275 1_554 S
Cd78 O77 2.300 1_556 S
Cd78 O86 2.381 1_556 S
Cd78 O87 2.378 . S
O79 Cd80 2.385 . S
O79 C84 1.255 . S
Cd80 O79 2.385 . S
Cd80 O81 2.317 . S
O81 Cd80 2.317 . S
O81 C82 1.232 . S
C82 O81 1.232 . S
C82 O83 1.218 . S
O83 C82 1.218 . S
C84 O77 1.275 1_556 S
C84 O79 1.255 . S
C85 O86 1.267 . S
C85 O87 1.242 1_554 S
O86 Cd78 2.381 1_554 S
O86 C85 1.267 . S
O87 Cd78 2.378 . S
O87 C85 1.242 1_556 S
O88 Cd89 2.300 . S
O88 C95 1.275 . S
Cd89 O88 2.300 . S
Cd89 O97 2.381 . S
Cd89 O98 2.378 . S
O90 Cd91 2.385 . S
O90 C95 1.255 . S
Cd91 O90 2.385 . S
Cd91 O92 2.317 . S
O92 Cd91 2.317 . S
O92 C93 1.232 . S
C93 O92 1.232 . S
C93 O94 1.218 . S
O94 C93 1.218 . S
C95 O88 1.275 . S
C95 O90 1.255 . S
C96 O97 1.258 . S
C96 O98 1.256 . S
O97 Cd89 2.381 . S
O97 C96 1.258 . S
O98 Cd89 2.378 . S
O98 C96 1.256 . S
O99 Cd100 2.300 1_655 S
O99 C106 1.276 1_655 S
Cd100 O99 2.300 1_455 S
Cd100 O108 2.381 1_455 S
Cd100 O109 2.378 . S
O101 Cd102 2.385 . S
O101 C106 1.255 . S
Cd102 O101 2.385 . S
Cd102 O103 2.317 . S
O103 Cd102 2.317 . S
O103 C104 1.232 . S
C104 O103 1.232 . S
C104 O105 1.218 . S
O105 C104 1.218 . S
C106 O99 1.276 1_455 S
C106 O101 1.255 . S
C107 O108 1.258 1_455 S
C107 O109 1.256 . S
O108 Cd100 2.381 1_655 S
O108 C107 1.258 1_655 S
O109 Cd100 2.378 . S
O109 C107 1.256 . S
O110 Cd111 2.300 . S
O110 C117 1.275 . S
Cd111 O110 2.300 . S
Cd111 O119 2.381 . S
Cd111 O120 2.378 . S
O112 Cd113 2.385 . S
O112 C117 1.255 . S
Cd113 O112 2.385 . S
Cd113 O114 2.317 . S
O114 Cd113 2.317 . S
O114 C115 1.232 . S
C115 O114 1.232 . S
C115 O116 1.218 . S
O116 C115 1.218 . S
C117 O110 1.275 . S
C117 O112 1.255 . S
C118 O119 1.258 . S
C118 O120 1.256 . S
O119 Cd111 2.381 . S
O119 C118 1.258 . S
O120 Cd111 2.378 . S
O120 C118 1.256 . S
O121 Cd122 2.300 1_455 S
O121 C128 1.275 1_455 S
Cd122 O121 2.300 1_655 S
Cd122 O130 2.381 1_655 S
Cd122 O131 2.378 . S
O123 Cd124 2.385 . S
O123 C128 1.255 . S
Cd124 O123 2.385 . S
Cd124 O125 2.317 . S
O125 Cd124 2.317 . S
O125 C126 1.232 . S
C126 O125 1.232 . S
C126 O127 1.218 . S
O127 C126 1.218 . S
C128 O121 1.275 1_655 S
C128 O123 1.255 . S
C129 O130 1.267 . S
C129 O131 1.242 1_455 S
O130 Cd122 2.381 1_455 S
O130 C129 1.267 . S
O131 Cd122 2.378 . S
O131 C129 1.242 1_655 S
O132 Cd133 2.300 . S
O132 C139 1.275 . S
Cd133 O132 2.300 . S
Cd133 O141 2.381 . S
Cd133 O142 2.378 . S
O134 Cd135 2.385 . S
O134 C139 1.255 . S
Cd135 O134 2.385 . S
Cd135 O136 2.317 . S
O136 Cd135 2.317 . S
O136 C137 1.232 . S
C137 O136 1.232 . S
C137 O138 1.218 . S
O138 C137 1.218 . S
C139 O132 1.275 . S
C139 O134 1.255 . S
C140 O141 1.258 . S
C140 O142 1.256 . S
O141 Cd133 2.381 . S
O141 C140 1.258 . S
O142 Cd133 2.378 . S
O142 C140 1.256 . S
O143 Cd144 2.300 . S
O143 C150 1.275 . S
Cd144 O143 2.300 . S
Cd144 O152 2.381 . S
Cd144 O153 2.378 . S
O145 Cd146 2.385 . S
O145 C150 1.255 . S
Cd146 O145 2.385 . S
Cd146 O147 2.317 . S
O147 Cd146 2.317 . S
O147 C148 1.232 . S
C148 O147 1.232 . S
C148 O149 1.218 . S
O149 C148 1.218 . S
C150 O143 1.275 . S
C150 O145 1.255 . S
C151 O152 1.258 . S
C151 O153 1.256 . S
O152 Cd144 2.381 . S
O152 C151 1.258 . S
O153 Cd144 2.378 . S
O153 C151 1.256 . S
O154 Cd155 2.300 1_545 S
O154 C161 1.275 1_545 S
Cd155 O154 2.300 1_565 S
Cd155 O163 2.381 1_565 S
Cd155 O164 2.378 . S
O156 Cd157 2.385 . S
O156 C161 1.255 . S
Cd157 O156 2.385 . S
Cd157 O158 2.317 . S
O158 Cd157 2.317 . S
O158 C159 1.232 . S
C159 O158 1.232 . S
C159 O160 1.218 . S
O160 C159 1.218 . S
C161 O154 1.275 1_565 S
C161 O156 1.255 . S
C162 O163 1.258 1_565 S
C162 O164 1.256 . S
O163 Cd155 2.381 1_545 S
O163 C162 1.258 1_545 S
O164 Cd155 2.378 . S
O164 C162 1.256 . S
O165 Cd166 2.300 1_565 S
O165 C172 1.275 1_565 S
Cd166 O165 2.300 1_545 S
Cd166 O174 2.381 1_545 S
Cd166 O175 2.378 . S
O167 Cd168 2.385 . S
O167 C172 1.255 . S
Cd168 O167 2.385 . S
Cd168 O169 2.317 . S
O169 Cd168 2.317 . S
O169 C170 1.232 . S
C170 O169 1.232 . S
C170 O171 1.218 . S
O171 C170 1.218 . S
C172 O165 1.275 1_545 S
C172 O167 1.255 . S
C173 O174 1.285 . S
C173 O175 1.221 1_565 S
O174 Cd166 2.381 1_565 S
O174 C173 1.285 . S
O175 Cd166 2.378 . S
O175 C173 1.221 1_545 S
O176 Cd177 2.300 . S
O176 C183 1.275 . S
Cd177 O176 2.300 . S
Cd177 O185 2.381 . S
Cd177 O186 2.378 . S
O178 Cd179 2.385 . S
O178 C183 1.255 . S
Cd179 O178 2.385 . S
Cd179 O180 2.317 . S
O180 Cd179 2.317 . S
O180 C181 1.232 . S
C181 O180 1.232 . S
C181 O182 1.218 . S
O182 C181 1.218 . S
C183 O176 1.275 . S
C183 O178 1.255 . S
C184 O185 1.258 . S
C184 O186 1.256 . S
O185 Cd177 2.381 . S
O185 C184 1.258 . S
O186 Cd177 2.378 . S
O186 C184 1.256 . S
O187 Cd188 2.300 1_556 S
O187 C194 1.275 1_556 S
Cd188 O187 2.300 1_554 S
Cd188 O196 2.381 1_554 S
Cd188 O197 2.378 . S
O189 Cd190 2.385 . S
O189 C194 1.255 . S
Cd190 O189 2.385 . S
Cd190 O191 2.317 . S
O191 Cd190 2.317 . S
O191 C192 1.232 . S
C192 O191 1.232 . S
C192 O193 1.218 . S
O193 C192 1.218 . S
C194 O187 1.275 1_554 S
C194 O189 1.255 . S
C195 O196 1.285 . S
C195 O197 1.221 1_556 S
O196 Cd188 2.381 1_556 S
O196 C195 1.285 . S
O197 Cd188 2.378 . S
O197 C195 1.221 1_554 S
O198 Cd199 2.300 . S
O198 C205 1.275 . S
Cd199 O198 2.300 . S
Cd199 O207 2.381 . S
Cd199 O208 2.378 . S
O200 Cd201 2.385 . S
O200 C205 1.255 . S
Cd201 O200 2.385 . S
Cd201 O202 2.317 . S
O202 Cd201 2.317 . S
O202 C203 1.232 . S
C203 O202 1.232 . S
C203 O204 1.218 . S
O204 C203 1.218 . S
C205 O198 1.275 . S
C205 O200 1.255 . S
C206 O207 1.258 . S
C206 O208 1.256 . S
O207 Cd199 2.381 . S
O207 C206 1.258 . S
O208 Cd199 2.378 . S
O208 C206 1.256 . S
O209 Cd210 2.300 1_554 S
O209 C216 1.275 1_554 S
Cd210 O209 2.300 1_556 S
Cd210 O218 2.381 1_556 S
Cd210 O219 2.378 . S
O211 Cd212 2.385 . S
O211 C216 1.255 . S
Cd212 O211 2.385 . S
Cd212 O213 2.317 . S
O213 Cd212 2.317 . S
O213 C214 1.232 . S
C214 O213 1.232 . S
C214 O215 1.218 . S
O215 C214 1.218 . S
C216 O209 1.275 1_556 S
C216 O211 1.255 . S
C217 O218 1.258 1_556 S
C217 O219 1.256 . S
O218 Cd210 2.381 1_554 S
O218 C217 1.258 1_554 S
O219 Cd210 2.378 . S
O219 C217 1.256 . S
O220 Cd221 2.300 . S
O220 C227 1.275 . S
Cd221 O220 2.300 . S
Cd221 O229 2.381 . S
Cd221 O230 2.378 . S
O222 Cd223 2.385 . S
O222 C227 1.255 . S
Cd223 O222 2.385 . S
Cd223 O224 2.317 . S
O224 Cd223 2.317 . S
O224 C225 1.232 . S
C225 O224 1.232 . S
C225 O226 1.218 . S
O226 C225 1.218 . S
C227 O220 1.275 . S
C227 O222 1.255 . S
C228 O229 1.258 . S
C228 O230 1.256 . S
O229 Cd221 2.381 . S
O229 C228 1.258 . S
O230 Cd221 2.378 . S
O230 C228 1.256 . S
O231 Cd232 2.300 1_655 S
O231 C238 1.275 1_655 S
Cd232 O231 2.300 1_455 S
Cd232 O240 2.381 1_455 S
Cd232 O241 2.378 . S
O233 Cd234 2.385 . S
O233 C238 1.255 . S
Cd234 O233 2.385 . S
Cd234 O235 2.317 . S
O235 Cd234 2.317 . S
O235 C236 1.232 . S
C236 O235 1.232 . S
C236 O237 1.218 . S
O237 C236 1.218 . S
C238 O231 1.275 1_455 S
C238 O233 1.255 . S
C239 O240 1.285 . S
C239 O241 1.221 1_655 S
O240 Cd232 2.381 1_655 S
O240 C239 1.285 . S
O241 Cd232 2.378 . S
O241 C239 1.221 1_455 S
O242 Cd243 2.300 . S
O242 C249 1.275 . S
Cd243 O242 2.300 . S
Cd243 O251 2.381 . S
Cd243 O252 2.378 . S
O244 Cd245 2.385 . S
O244 C249 1.255 . S
Cd245 O244 2.385 . S
Cd245 O246 2.317 . S
O246 Cd245 2.317 . S
O246 C247 1.232 . S
C247 O246 1.232 . S
C247 O248 1.218 . S
O248 C247 1.218 . S
C249 O242 1.275 . S
C249 O244 1.255 . S
C250 O251 1.258 . S
C250 O252 1.256 . S
O251 Cd243 2.381 . S
O251 C250 1.258 . S
O252 Cd243 2.378 . S
O252 C250 1.256 . S
O253 Cd254 2.300 1_455 S
O253 C260 1.275 1_455 S
Cd254 O253 2.300 1_655 S
Cd254 O262 2.381 1_655 S
Cd254 O263 2.378 . S
O255 Cd256 2.385 . S
O255 C260 1.255 . S
Cd256 O255 2.385 . S
Cd256 O257 2.317 . S
O257 Cd256 2.317 . S
O257 C258 1.232 . S
C258 O257 1.232 . S
C258 O259 1.218 . S
O259 C258 1.218 . S
C260 O253 1.275 1_655 S
C260 O255 1.255 . S
C261 O262 1.258 1_655 S
C261 O263 1.256 . S
O262 Cd254 2.381 1_455 S
O262 C261 1.258 1_455 S
O263 Cd254 2.378 . S
O263 C261 1.256 . S
C264 N265 1.317 . S
C264 N266 1.348 . S
C264 C267 1.485 . S
N265 C264 1.317 . S
N265 N269 1.370 . S
N266 C264 1.348 . S
N266 C268 1.346 . S
C267 C264 1.485 . S
C267 H271 0.960 . S
C267 H272 0.961 . S
C267 H273 0.960 . S
C268 N266 1.346 . S
C268 N269 1.307 . S
C268 C270 1.486 . S
N269 N265 1.370 . S
N269 C268 1.307 . S
C270 C268 1.486 . S
C270 H274 0.960 . S
C270 H275 0.960 . S
C270 H276 0.959 . S
H271 C267 0.960 . S
H272 C267 0.961 . S
H273 C267 0.960 . S
H274 C270 0.960 . S
H275 C270 0.960 . S
H276 C270 0.959 . S
C277 N278 1.317 . S
C277 N279 1.348 . S
C277 C280 1.485 . S
N278 C277 1.317 . S
N278 N282 1.370 . S
N279 C277 1.348 . S
N279 C281 1.346 . S
C280 C277 1.485 . S
C280 H284 0.960 . S
C280 H285 0.961 . S
C280 H286 0.960 . S
C281 N279 1.346 . S
C281 N282 1.307 . S
C281 C283 1.486 . S
N282 N278 1.370 . S
N282 C281 1.307 . S
C283 C281 1.486 . S
C283 H287 0.960 . S
C283 H288 0.960 . S
C283 H289 0.959 . S
H284 C280 0.960 . S
H285 C280 0.961 . S
H286 C280 0.960 . S
H287 C283 0.960 . S
H288 C283 0.960 . S
H289 C283 0.959 . S
C290 N291 1.317 . S
C290 N292 1.348 . S
C290 C293 1.485 . S
N291 C290 1.317 . S
N291 N295 1.370 . S
N292 C290 1.348 . S
N292 C294 1.346 . S
C293 C290 1.485 . S
C293 H297 0.960 . S
C293 H298 0.961 . S
C293 H299 0.960 . S
C294 N292 1.346 . S
C294 N295 1.307 . S
C294 C296 1.486 . S
N295 N291 1.370 . S
N295 C294 1.307 . S
C296 C294 1.486 . S
C296 H300 0.960 . S
C296 H301 0.960 . S
C296 H302 0.959 . S
H297 C293 0.960 . S
H298 C293 0.961 . S
H299 C293 0.960 . S
H300 C296 0.960 . S
H301 C296 0.960 . S
H302 C296 0.959 . S
C303 N304 1.317 . S
C303 N305 1.348 . S
C303 C306 1.485 1_554 S
N304 C303 1.317 . S
N304 N308 1.370 . S
N305 C303 1.348 . S
N305 C307 1.346 . S
C306 C303 1.485 1_556 S
C306 H310 0.960 . S
C306 H311 0.961 . S
C306 H312 0.960 . S
C307 N305 1.346 . S
C307 N308 1.307 . S
C307 C309 1.486 . S
N308 N304 1.370 . S
N308 C307 1.307 . S
C309 C307 1.486 . S
C309 H313 0.960 . S
C309 H314 0.960 . S
C309 H315 0.959 . S
H310 C306 0.960 . S
H311 C306 0.961 . S
H312 C306 0.960 . S
H313 C309 0.960 . S
H314 C309 0.960 . S
H315 C309 0.959 . S
C316 N317 1.317 . S
C316 N318 1.348 . S
C316 C319 1.485 . S
N317 C316 1.317 . S
N317 N321 1.370 . S
N318 C316 1.348 . S
N318 C320 1.346 . S
C319 C316 1.485 . S
C319 H323 0.960 . S
C319 H324 0.961 . S
C319 H325 0.960 . S
C320 N318 1.346 . S
C320 N321 1.307 . S
C320 C322 1.486 . S
N321 N317 1.370 . S
N321 C320 1.307 . S
C322 C320 1.486 . S
C322 H326 0.960 . S
C322 H327 0.960 . S
C322 H328 0.959 . S
H323 C319 0.960 . S
H324 C319 0.961 . S
H325 C319 0.960 . S
H326 C322 0.960 . S
H327 C322 0.960 . S
H328 C322 0.959 . S
C329 N330 1.317 . S
C329 N331 1.348 . S
C329 C332 1.485 1_455 S
N330 C329 1.317 . S
N330 N334 1.370 . S
N331 C329 1.348 . S
N331 C333 1.346 . S
C332 C329 1.485 1_655 S
C332 H336 0.960 . S
C332 H337 0.961 . S
C332 H338 0.960 . S
C333 N331 1.346 . S
C333 N334 1.307 . S
C333 C335 1.486 . S
N334 N330 1.370 . S
N334 C333 1.307 . S
C335 C333 1.486 . S
C335 H339 0.960 . S
C335 H340 0.960 . S
C335 H341 0.959 . S
H336 C332 0.960 . S
H337 C332 0.961 . S
H338 C332 0.960 . S
H339 C335 0.960 . S
H340 C335 0.960 . S
H341 C335 0.959 . S
C342 N343 1.317 . S
C342 N344 1.348 . S
C342 C345 1.485 . S
N343 C342 1.317 . S
N343 N347 1.370 . S
N344 C342 1.348 . S
N344 C346 1.346 . S
C345 C342 1.485 . S
C345 H349 0.960 . S
C345 H350 0.961 . S
C345 H351 0.960 . S
C346 N344 1.346 . S
C346 N347 1.307 . S
C346 C348 1.486 . S
N347 N343 1.370 . S
N347 C346 1.307 . S
C348 C346 1.486 . S
C348 H352 0.960 . S
C348 H353 0.960 . S
C348 H354 0.959 . S
H349 C345 0.960 . S
H350 C345 0.961 . S
H351 C345 0.960 . S
H352 C348 0.960 . S
H353 C348 0.960 . S
H354 C348 0.959 . S
C355 N356 1.317 . S
C355 N357 1.348 . S
C355 C358 1.485 . S
N356 C355 1.317 . S
N356 N360 1.370 . S
N357 C355 1.348 . S
N357 C359 1.346 . S
C358 C355 1.485 . S
C358 H362 0.960 . S
C358 H363 0.961 . S
C358 H364 0.960 . S
C359 N357 1.346 . S
C359 N360 1.307 . S
C359 C361 1.486 . S
N360 N356 1.370 . S
N360 C359 1.307 . S
C361 C359 1.486 . S
C361 H365 0.960 . S
C361 H366 0.960 . S
C361 H367 0.959 . S
H362 C358 0.960 . S
H363 C358 0.961 . S
H364 C358 0.960 . S
H365 C361 0.960 . S
H366 C361 0.960 . S
H367 C361 0.959 . S
C368 N369 1.317 . S
C368 N370 1.348 . S
C368 C371 1.485 . S
N369 C368 1.317 . S
N369 N373 1.370 . S
N370 C368 1.348 . S
N370 C372 1.346 . S
C371 C368 1.485 . S
C371 H375 0.960 . S
C371 H376 0.961 . S
C371 H377 0.960 . S
C372 N370 1.346 . S
C372 N373 1.307 . S
C372 C374 1.486 . S
N373 N369 1.370 . S
N373 C372 1.307 . S
C374 C372 1.486 . S
C374 H378 0.960 . S
C374 H379 0.960 . S
C374 H380 0.959 . S
H375 C371 0.960 . S
H376 C371 0.961 . S
H377 C371 0.960 . S
H378 C374 0.960 . S
H379 C374 0.960 . S
H380 C374 0.959 . S
C381 N382 1.317 . S
C381 N383 1.348 . S
C381 C384 1.485 1_545 S
N382 C381 1.317 . S
N382 N386 1.370 . S
N383 C381 1.348 . S
N383 C385 1.346 . S
C384 C381 1.485 1_565 S
C384 H388 0.960 . S
C384 H389 0.961 . S
C384 H390 0.960 . S
C385 N383 1.346 . S
C385 N386 1.307 . S
C385 C387 1.486 . S
N386 N382 1.370 . S
N386 C385 1.307 . S
C387 C385 1.486 . S
C387 H391 0.960 . S
C387 H392 0.960 . S
C387 H393 0.959 . S
H388 C384 0.960 . S
H389 C384 0.961 . S
H390 C384 0.960 . S
H391 C387 0.960 . S
H392 C387 0.960 . S
H393 C387 0.959 . S
C394 N395 1.317 . S
C394 N396 1.348 . S
C394 C397 1.485 . S
N395 C394 1.317 . S
N395 N399 1.370 . S
N396 C394 1.348 . S
N396 C398 1.346 . S
C397 C394 1.485 . S
C397 H401 0.960 . S
C397 H402 0.961 . S
C397 H403 0.960 . S
C398 N396 1.346 . S
C398 N399 1.307 . S
C398 C400 1.486 . S
N399 N395 1.370 . S
N399 C398 1.307 . S
C400 C398 1.486 . S
C400 H404 0.960 . S
C400 H405 0.960 . S
C400 H406 0.959 . S
H401 C397 0.960 . S
H402 C397 0.961 . S
H403 C397 0.960 . S
H404 C400 0.960 . S
H405 C400 0.960 . S
H406 C400 0.959 . S
C407 N408 1.317 . S
C407 N409 1.348 . S
C407 C410 1.485 . S
N408 C407 1.317 . S
N408 N412 1.370 . S
N409 C407 1.348 . S
N409 C411 1.346 . S
C410 C407 1.485 . S
C410 H414 0.960 . S
C410 H415 0.961 . S
C410 H416 0.960 . S
C411 N409 1.346 . S
C411 N412 1.307 . S
C411 C413 1.486 . S
N412 N408 1.370 . S
N412 C411 1.307 . S
C413 C411 1.486 . S
C413 H417 0.960 . S
C413 H418 0.960 . S
C413 H419 0.959 . S
H414 C410 0.960 . S
H415 C410 0.961 . S
H416 C410 0.960 . S
H417 C413 0.960 . S
H418 C413 0.960 . S
H419 C413 0.959 . S
C420 N421 1.317 . S
C420 N422 1.348 . S
C420 C423 1.485 . S
N421 C420 1.317 . S
N421 N425 1.370 . S
N422 C420 1.348 . S
N422 C424 1.346 . S
C423 C420 1.485 . S
C423 H427 0.960 . S
C423 H428 0.961 . S
C423 H429 0.960 . S
C424 N422 1.346 . S
C424 N425 1.307 . S
C424 C426 1.486 . S
N425 N421 1.370 . S
N425 C424 1.307 . S
C426 C424 1.486 . S
C426 H430 0.960 . S
C426 H431 0.960 . S
C426 H432 0.959 . S
H427 C423 0.960 . S
H428 C423 0.961 . S
H429 C423 0.960 . S
H430 C426 0.960 . S
H431 C426 0.960 . S
H432 C426 0.959 . S
C433 N434 1.317 . S
C433 N435 1.348 . S
C433 C436 1.485 . S
N434 C433 1.317 . S
N434 N438 1.370 . S
N435 C433 1.348 . S
N435 C437 1.346 . S
C436 C433 1.485 . S
C436 H440 0.960 . S
C436 H441 0.961 . S
C436 H442 0.960 . S
C437 N435 1.346 . S
C437 N438 1.307 . S
C437 C439 1.486 . S
N438 N434 1.370 . S
N438 C437 1.307 . S
C439 C437 1.486 . S
C439 H443 0.960 . S
C439 H444 0.960 . S
C439 H445 0.959 . S
H440 C436 0.960 . S
H441 C436 0.961 . S
H442 C436 0.960 . S
H443 C439 0.960 . S
H444 C439 0.960 . S
H445 C439 0.959 . S
C446 N447 1.317 . S
C446 N448 1.348 . S
C446 C449 1.485 . S
N447 C446 1.317 . S
N447 N451 1.370 . S
N448 C446 1.348 . S
N448 C450 1.346 . S
C449 C446 1.485 . S
C449 H453 0.960 . S
C449 H454 0.961 . S
C449 H455 0.960 . S
C450 N448 1.346 . S
C450 N451 1.307 . S
C450 C452 1.486 . S
N451 N447 1.370 . S
N451 C450 1.307 . S
C452 C450 1.486 . S
C452 H456 0.960 . S
C452 H457 0.960 . S
C452 H458 0.959 . S
H453 C449 0.960 . S
H454 C449 0.961 . S
H455 C449 0.960 . S
H456 C452 0.960 . S
H457 C452 0.960 . S
H458 C452 0.959 . S
C459 N460 1.317 . S
C459 N461 1.348 . S
C459 C462 1.485 1_556 S
N460 C459 1.317 . S
N460 N464 1.370 . S
N461 C459 1.348 . S
N461 C463 1.346 . S
C462 C459 1.485 1_554 S
C462 H466 0.960 . S
C462 H467 0.961 . S
C462 H468 0.960 . S
C463 N461 1.346 . S
C463 N464 1.307 . S
C463 C465 1.486 . S
N464 N460 1.370 . S
N464 C463 1.307 . S
C465 C463 1.486 . S
C465 H469 0.960 . S
C465 H470 0.960 . S
C465 H471 0.959 . S
H466 C462 0.960 . S
H467 C462 0.961 . S
H468 C462 0.960 . S
H469 C465 0.960 . S
H470 C465 0.960 . S
H471 C465 0.959 . S
C472 N473 1.317 . S
C472 N474 1.348 . S
C472 C475 1.485 . S
N473 C472 1.317 . S
N473 N477 1.370 . S
N474 C472 1.348 . S
N474 C476 1.346 . S
C475 C472 1.485 . S
C475 H479 0.960 . S
C475 H480 0.961 . S
C475 H481 0.960 . S
C476 N474 1.346 . S
C476 N477 1.307 . S
C476 C478 1.486 . S
N477 N473 1.370 . S
N477 C476 1.307 . S
C478 C476 1.486 . S
C478 H482 0.960 . S
C478 H483 0.960 . S
C478 H484 0.959 . S
H479 C475 0.960 . S
H480 C475 0.961 . S
H481 C475 0.960 . S
H482 C478 0.960 . S
H483 C478 0.960 . S
H484 C478 0.959 . S
C485 N486 1.317 . S
C485 N487 1.348 . S
C485 C488 1.485 1_655 S
N486 C485 1.317 . S
N486 N490 1.370 . S
N487 C485 1.348 . S
N487 C489 1.346 . S
C488 C485 1.485 1_455 S
C488 H492 0.960 . S
C488 H493 0.961 . S
C488 H494 0.960 . S
C489 N487 1.346 . S
C489 N490 1.307 . S
C489 C491 1.486 . S
N490 N486 1.370 . S
N490 C489 1.307 . S
C491 C489 1.486 . S
C491 H495 0.960 . S
C491 H496 0.960 . S
C491 H497 0.959 . S
H492 C488 0.960 . S
H493 C488 0.961 . S
H494 C488 0.960 . S
H495 C491 0.960 . S
H496 C491 0.960 . S
H497 C491 0.959 . S
C498 N499 1.317 . S
C498 N500 1.348 . S
C498 C501 1.485 . S
N499 C498 1.317 . S
N499 N503 1.370 . S
N500 C498 1.348 . S
N500 C502 1.346 . S
C501 C498 1.485 . S
C501 H505 0.960 . S
C501 H506 0.961 . S
C501 H507 0.960 . S
C502 N500 1.346 . S
C502 N503 1.307 . S
C502 C504 1.486 . S
N503 N499 1.370 . S
N503 C502 1.307 . S
C504 C502 1.486 . S
C504 H508 0.960 . S
C504 H509 0.960 . S
C504 H510 0.959 . S
H505 C501 0.960 . S
H506 C501 0.961 . S
H507 C501 0.960 . S
H508 C504 0.960 . S
H509 C504 0.960 . S
H510 C504 0.959 . S
C511 N512 1.317 . S
C511 N513 1.348 . S
C511 C514 1.485 . S
N512 C511 1.317 . S
N512 N516 1.370 . S
N513 C511 1.348 . S
N513 C515 1.346 . S
C514 C511 1.485 . S
C514 H518 0.960 . S
C514 H519 0.961 . S
C514 H520 0.960 . S
C515 N513 1.346 . S
C515 N516 1.307 . S
C515 C517 1.486 . S
N516 N512 1.370 . S
N516 C515 1.307 . S
C517 C515 1.486 . S
C517 H521 0.960 . S
C517 H522 0.960 . S
C517 H523 0.959 . S
H518 C514 0.960 . S
H519 C514 0.961 . S
H520 C514 0.960 . S
H521 C517 0.960 . S
H522 C517 0.960 . S
H523 C517 0.959 . S
C524 N525 1.317 . S
C524 N526 1.348 . S
C524 C527 1.485 . S
N525 C524 1.317 . S
N525 N529 1.370 . S
N526 C524 1.348 . S
N526 C528 1.346 . S
C527 C524 1.485 . S
C527 H531 0.960 . S
C527 H532 0.961 . S
C527 H533 0.960 . S
C528 N526 1.346 . S
C528 N529 1.307 . S
C528 C530 1.486 . S
N529 N525 1.370 . S
N529 C528 1.307 . S
C530 C528 1.486 . S
C530 H534 0.960 . S
C530 H535 0.960 . S
C530 H536 0.959 . S
H531 C527 0.960 . S
H532 C527 0.961 . S
H533 C527 0.960 . S
H534 C530 0.960 . S
H535 C530 0.960 . S
H536 C530 0.959 . S
C537 N538 1.317 . S
C537 N539 1.348 . S
C537 C540 1.485 1_565 S
N538 C537 1.317 . S
N538 N542 1.370 . S
N539 C537 1.348 . S
N539 C541 1.346 . S
C540 C537 1.485 1_545 S
C540 H544 0.960 . S
C540 H545 0.961 . S
C540 H546 0.960 . S
C541 N539 1.346 . S
C541 N542 1.307 . S
C541 C543 1.486 . S
N542 N538 1.370 . S
N542 C541 1.307 . S
C543 C541 1.486 . S
C543 H547 0.960 . S
C543 H548 0.960 . S
C543 H549 0.959 . S
H544 C540 0.960 . S
H545 C540 0.961 . S
H546 C540 0.960 . S
H547 C543 0.960 . S
H548 C543 0.960 . S
H549 C543 0.959 . S
C550 N551 1.317 . S
C550 N552 1.348 . S
C550 C553 1.485 . S
N551 C550 1.317 . S
N551 N555 1.370 . S
N552 C550 1.348 . S
N552 C554 1.346 . S
C553 C550 1.485 . S
C553 H557 0.960 . S
C553 H558 0.961 . S
C553 H559 0.960 . S
C554 N552 1.346 . S
C554 N555 1.307 . S
C554 C556 1.486 . S
N555 N551 1.370 . S
N555 C554 1.307 . S
C556 C554 1.486 . S
C556 H560 0.960 . S
C556 H561 0.960 . S
C556 H562 0.959 . S
H557 C553 0.960 . S
H558 C553 0.961 . S
H559 C553 0.960 . S
H560 C556 0.960 . S
H561 C556 0.960 . S
H562 C556 0.959 . S
C563 N564 1.317 . S
C563 N565 1.348 . S
C563 C566 1.485 . S
N564 C563 1.317 . S
N564 N568 1.370 . S
N565 C563 1.348 . S
N565 C567 1.346 . S
C566 C563 1.485 . S
C566 H570 0.960 . S
C566 H571 0.961 . S
C566 H572 0.960 . S
C567 N565 1.346 . S
C567 N568 1.307 . S
C567 C569 1.486 . S
N568 N564 1.370 . S
N568 C567 1.307 . S
C569 C567 1.486 . S
C569 H573 0.960 . S
C569 H574 0.960 . S
C569 H575 0.959 . S
H570 C566 0.960 . S
H571 C566 0.961 . S
H572 C566 0.960 . S
H573 C569 0.960 . S
H574 C569 0.960 . S
H575 C569 0.959 . S
C576 C577 1.349 . S
C576 C578 1.327 . S
C576 H601 0.950 . S
C577 C576 1.349 . S
C577 C593 1.349 . S
C578 C576 1.327 . S
C578 C597 1.429 . S
C578 H602 0.950 . S
C579 C596 1.574 . S
C579 C598 1.368 . S
C579 H603 0.949 . S
H580 C584 0.949 . S
C581 C582 1.349 . S
C581 C583 1.327 . S
C581 H604 0.950 . S
C582 C581 1.349 . S
C582 C594 1.349 . S
C583 C581 1.327 . S
C583 C599 1.429 . S
C583 H605 0.950 . S
C584 H580 0.949 . S
C584 C592 1.574 . S
C584 C600 1.368 . S
H585 C593 0.950 . S
H586 C591 0.950 . S
H587 C592 0.949 . S
H588 C594 0.950 . S
H589 C595 0.950 . S
H590 C596 0.949 . S
C591 H586 0.950 . S
C591 C593 1.327 . S
C591 C597 1.429 . S
C592 C584 1.574 . S
C592 H587 0.949 . S
C592 C598 1.368 . S
C593 C577 1.349 . S
C593 H585 0.950 . S
C593 C591 1.327 . S
C594 C582 1.349 . S
C594 H588 0.950 . S
C594 C595 1.327 . S
C595 H589 0.950 . S
C595 C594 1.327 . S
C595 C599 1.429 . S
C596 C579 1.574 . S
C596 H590 0.949 . S
C596 C600 1.368 . S
C597 C578 1.429 . S
C597 C591 1.429 . S
C597 C598 1.523 . S
C598 C579 1.368 . S
C598 C592 1.368 . S
C598 C597 1.523 . S
C599 C583 1.429 . S
C599 C595 1.429 . S
C599 C600 1.523 . S
C600 C584 1.368 . S
C600 C596 1.368 . S
C600 C599 1.523 . S
H601 C576 0.950 . S
H602 C578 0.950 . S
H603 C579 0.949 . S
H604 C581 0.950 . S
H605 C583 0.950 . S
C606 C607 1.349 . S
C606 C608 1.327 . S
C606 H631 0.950 . S
C607 C606 1.349 . S
C607 C623 1.349 . S
C608 C606 1.327 . S
C608 C627 1.429 . S
C608 H632 0.950 . S
C609 C626 1.574 . S
C609 C628 1.368 . S
C609 H633 0.949 . S
H610 C614 0.949 . S
C611 C612 1.349 . S
C611 C613 1.327 . S
C611 H634 0.950 . S
C612 C611 1.349 . S
C612 C624 1.349 . S
C613 C611 1.327 . S
C613 C629 1.429 . S
C613 H635 0.950 . S
C614 H610 0.949 . S
C614 C622 1.574 . S
C614 C630 1.368 . S
H615 C623 0.950 . S
H616 C621 0.950 . S
H617 C622 0.949 . S
H618 C624 0.950 . S
H619 C625 0.950 . S
H620 C626 0.949 . S
C621 H616 0.950 . S
C621 C623 1.327 . S
C621 C627 1.429 . S
C622 C614 1.574 . S
C622 H617 0.949 . S
C622 C628 1.368 . S
C623 C607 1.349 . S
C623 H615 0.950 . S
C623 C621 1.327 . S
C624 C612 1.349 . S
C624 H618 0.950 . S
C624 C625 1.327 . S
C625 H619 0.950 . S
C625 C624 1.327 . S
C625 C629 1.429 . S
C626 C609 1.574 . S
C626 H620 0.949 . S
C626 C630 1.368 . S
C627 C608 1.429 . S
C627 C621 1.429 . S
C627 C628 1.523 . S
C628 C609 1.368 . S
C628 C622 1.368 . S
C628 C627 1.523 . S
C629 C613 1.429 . S
C629 C625 1.429 . S
C629 C630 1.523 . S
C630 C614 1.368 . S
C630 C626 1.368 . S
C630 C629 1.523 . S
H631 C606 0.950 . S
H632 C608 0.950 . S
H633 C609 0.949 . S
H634 C611 0.950 . S
H635 C613 0.950 . S
C636 C637 1.349 1_565 S
C636 C638 1.327 . S
C636 H661 0.950 . S
C637 C636 1.349 1_545 S
C637 C653 1.349 . S
C638 C636 1.327 . S
C638 C657 1.429 1_565 S
C638 H662 0.950 . S
C639 C656 1.574 . S
C639 C658 1.368 . S
C639 H663 0.949 . S
H640 C644 0.949 . S
C641 C642 1.349 . S
C641 C643 1.327 . S
C641 H664 0.950 . S
C642 C641 1.349 . S
C642 C654 1.349 . S
C643 C641 1.327 . S
C643 C659 1.429 . S
C643 H665 0.950 . S
C644 H640 0.949 . S
C644 C652 1.574 . S
C644 C660 1.368 . S
H645 C653 0.950 . S
H646 C651 0.950 . S
H647 C652 0.949 1_565 S
H648 C654 0.950 . S
H649 C655 0.950 . S
H650 C656 0.949 . S
C651 H646 0.950 . S
C651 C653 1.327 . S
C651 C657 1.429 . S
C652 C644 1.574 . S
C652 H647 0.949 1_545 S
C652 C658 1.368 . S
C653 C637 1.349 . S
C653 H645 0.950 . S
C653 C651 1.327 . S
C654 C642 1.349 . S
C654 H648 0.950 . S
C654 C655 1.327 . S
C655 H649 0.950 . S
C655 C654 1.327 . S
C655 C659 1.429 . S
C656 C639 1.574 . S
C656 H650 0.949 . S
C656 C660 1.368 . S
C657 C638 1.429 1_545 S
C657 C651 1.429 . S
C657 C658 1.523 . S
C658 C639 1.368 . S
C658 C652 1.368 . S
C658 C657 1.523 . S
C659 C643 1.429 . S
C659 C655 1.429 . S
C659 C660 1.523 . S
C660 C644 1.368 . S
C660 C656 1.368 . S
C660 C659 1.523 . S
H661 C636 0.950 . S
H662 C638 0.950 . S
H663 C639 0.949 . S
H664 C641 0.950 . S
H665 C643 0.950 . S
C666 C667 1.349 1_565 S
C666 C668 1.327 . S
C666 H691 0.950 . S
C667 C666 1.349 1_545 S
C667 C683 1.349 . S
C668 C666 1.327 . S
C668 C687 1.429 . S
C668 H692 0.950 . S
C669 C686 1.589 . S
C669 C688 1.394 . S
C669 H693 0.916 1_565 S
H670 C674 0.949 . S
C671 C672 1.349 . S
C671 C673 1.327 . S
C671 H694 0.950 . S
C672 C671 1.349 . S
C672 C684 1.349 . S
C673 C671 1.327 . S
C673 C689 1.429 1_455 S
C673 H695 0.950 . S
C674 H670 0.949 . S
C674 C682 1.574 . S
C674 C690 1.368 . S
H675 C683 0.950 . S
H676 C681 0.950 . S
H677 C682 0.949 . S
H678 C684 0.950 . S
H679 C685 0.975 . S
H680 C686 0.956 . S
C681 H676 0.950 . S
C681 C683 1.327 . S
C681 C687 1.429 1_545 S
C682 C674 1.574 . S
C682 H677 0.949 . S
C682 C688 1.368 . S
C683 C667 1.349 . S
C683 H675 0.950 . S
C683 C681 1.327 . S
C684 C672 1.349 . S
C684 H678 0.950 . S
C684 C685 1.327 . S
C685 H679 0.975 . S
C685 C684 1.327 . S
C685 C689 1.429 1_455 S
C686 C669 1.589 . S
C686 H680 0.956 . S
C686 C690 1.368 . S
C687 C668 1.429 . S
C687 C681 1.429 1_565 S
C687 C688 1.523 . S
C688 C669 1.394 . S
C688 C682 1.368 . S
C688 C687 1.523 . S
C689 C673 1.429 1_655 S
C689 C685 1.429 1_655 S
C689 C690 1.523 . S
C690 C674 1.368 . S
C690 C686 1.368 . S
C690 C689 1.523 . S
H691 C666 0.950 . S
H692 C668 0.950 . S
H693 C669 0.916 1_545 S
H694 C671 0.950 . S
H695 C673 0.950 . S
C696 C697 1.349 . S
C696 C698 1.327 . S
C696 H721 0.950 . S
C697 C696 1.349 . S
C697 C713 1.349 . S
C698 C696 1.327 . S
C698 C717 1.429 . S
C698 H722 0.950 . S
C699 C716 1.574 . S
C699 C718 1.368 . S
C699 H723 0.949 . S
H700 C704 0.949 . S
C701 C702 1.349 . S
C701 C703 1.327 . S
C701 H724 0.950 . S
C702 C701 1.349 . S
C702 C714 1.349 . S
C703 C701 1.327 . S
C703 C719 1.429 . S
C703 H725 0.950 . S
C704 H700 0.949 . S
C704 C712 1.574 . S
C704 C720 1.368 . S
H705 C713 0.950 . S
H706 C711 0.950 . S
H707 C712 0.949 . S
H708 C714 0.950 . S
H709 C715 0.950 . S
H710 C716 0.949 . S
C711 H706 0.950 . S
C711 C713 1.327 . S
C711 C717 1.429 . S
C712 C704 1.574 . S
C712 H707 0.949 . S
C712 C718 1.368 . S
C713 C697 1.349 . S
C713 H705 0.950 . S
C713 C711 1.327 . S
C714 C702 1.349 . S
C714 H708 0.950 . S
C714 C715 1.327 . S
C715 H709 0.950 . S
C715 C714 1.327 . S
C715 C719 1.429 . S
C716 C699 1.574 . S
C716 H710 0.949 . S
C716 C720 1.368 . S
C717 C698 1.429 . S
C717 C711 1.429 . S
C717 C718 1.523 . S
C718 C699 1.368 . S
C718 C712 1.368 . S
C718 C717 1.523 . S
C719 C703 1.429 . S
C719 C715 1.429 . S
C719 C720 1.523 . S
C720 C704 1.368 . S
C720 C716 1.368 . S
C720 C719 1.523 . S
H721 C696 0.950 . S
H722 C698 0.950 . S
H723 C699 0.949 . S
H724 C701 0.950 . S
H725 C703 0.950 . S
C726 C727 1.349 1_556 S
C726 C728 1.327 . S
C726 H751 0.950 . S
C727 C726 1.349 1_554 S
C727 C743 1.349 . S
C728 C726 1.327 . S
C728 C747 1.429 . S
C728 H752 0.950 . S
C729 C746 1.574 . S
C729 C748 1.368 1_554 S
C729 H753 0.949 . S
H730 C734 0.949 . S
C731 C732 1.349 . S
C731 C733 1.327 . S
C731 H754 0.950 . S
C732 C731 1.349 . S
C732 C744 1.349 . S
C733 C731 1.327 . S
C733 C749 1.429 1_545 S
C733 H755 0.950 1_556 S
C734 H730 0.949 . S
C734 C742 1.574 . S
C734 C750 1.368 . S
H735 C743 0.950 . S
H736 C741 0.950 . S
H737 C742 0.949 . S
H738 C744 0.950 . S
H739 C745 0.950 1_565 S
H740 C746 0.949 . S
C741 H736 0.950 . S
C741 C743 1.327 . S
C741 C747 1.429 1_554 S
C742 C734 1.574 . S
C742 H737 0.949 . S
C742 C748 1.368 . S
C743 C727 1.349 . S
C743 H735 0.950 . S
C743 C741 1.327 . S
C744 C732 1.349 . S
C744 H738 0.950 . S
C744 C745 1.327 . S
C745 H739 0.950 1_545 S
C745 C744 1.327 . S
C745 C749 1.429 1_545 S
C746 C729 1.574 . S
C746 H740 0.949 . S
C746 C750 1.368 1_554 S
C747 C728 1.429 . S
C747 C741 1.429 1_556 S
C747 C748 1.523 . S
C748 C729 1.368 1_556 S
C748 C742 1.368 . S
C748 C747 1.523 . S
C749 C733 1.429 1_565 S
C749 C745 1.429 1_565 S
C749 C750 1.523 . S
C750 C734 1.368 . S
C750 C746 1.368 1_556 S
C750 C749 1.523 . S
H751 C726 0.950 . S
H752 C728 0.950 . S
H753 C729 0.949 . S
H754 C731 0.950 . S
H755 C733 0.950 1_554 S
C756 C757 1.349 . S
C756 C758 1.327 . S
C756 H781 0.950 . S
C757 C756 1.349 . S
C757 C773 1.349 . S
C758 C756 1.327 . S
C758 C777 1.429 . S
C758 H782 0.950 . S
C759 C776 1.574 . S
C759 C778 1.368 . S
C759 H783 0.949 . S
H760 C764 0.949 . S
C761 C762 1.349 . S
C761 C763 1.327 . S
C761 H784 0.950 . S
C762 C761 1.349 . S
C762 C774 1.349 . S
C763 C761 1.327 . S
C763 C779 1.429 . S
C763 H785 0.950 . S
C764 H760 0.949 . S
C764 C772 1.574 . S
C764 C780 1.368 . S
H765 C773 0.950 . S
H766 C771 0.950 . S
H767 C772 0.949 . S
H768 C774 0.950 . S
H769 C775 0.950 . S
H770 C776 0.949 . S
C771 H766 0.950 . S
C771 C773 1.327 . S
C771 C777 1.429 . S
C772 C764 1.574 . S
C772 H767 0.949 . S
C772 C778 1.368 . S
C773 C757 1.349 . S
C773 H765 0.950 . S
C773 C771 1.327 . S
C774 C762 1.349 . S
C774 H768 0.950 . S
C774 C775 1.327 . S
C775 H769 0.950 . S
C775 C774 1.327 . S
C775 C779 1.429 . S
C776 C759 1.574 . S
C776 H770 0.949 . S
C776 C780 1.368 . S
C777 C758 1.429 . S
C777 C771 1.429 . S
C777 C778 1.523 . S
C778 C759 1.368 . S
C778 C772 1.368 . S
C778 C777 1.523 . S
C779 C763 1.429 . S
C779 C775 1.429 . S
C779 C780 1.523 . S
C780 C764 1.368 . S
C780 C776 1.368 . S
C780 C779 1.523 . S
H781 C756 0.950 . S
H782 C758 0.950 . S
H783 C759 0.949 . S
H784 C761 0.950 . S
H785 C763 0.950 . S
C786 C787 1.349 . S
C786 C788 1.327 . S
C786 H811 0.950 . S
C787 C786 1.349 . S
C787 C803 1.349 1_554 S
C788 C786 1.327 . S
C788 C807 1.429 . S
C788 H812 0.950 . S
C789 C806 1.574 . S
C789 C808 1.368 . S
C789 H813 0.949 1_554 S
H790 C794 0.949 . S
C791 C792 1.349 . S
C791 C793 1.327 . S
C791 H814 0.950 . S
C792 C791 1.349 . S
C792 C804 1.349 . S
C793 C791 1.327 . S
C793 C809 1.429 . S
C793 H815 0.950 . S
C794 H790 0.949 . S
C794 C802 1.574 . S
C794 C810 1.368 . S
H795 C803 0.950 . S
H796 C801 0.950 . S
H797 C802 0.949 . S
H798 C804 0.950 . S
H799 C805 0.950 . S
H800 C806 0.949 . S
C801 H796 0.950 . S
C801 C803 1.327 . S
C801 C807 1.429 1_556 S
C802 C794 1.574 . S
C802 H797 0.949 . S
C802 C808 1.368 . S
C803 C787 1.349 1_556 S
C803 H795 0.950 . S
C803 C801 1.327 . S
C804 C792 1.349 . S
C804 H798 0.950 . S
C804 C805 1.327 . S
C805 H799 0.950 . S
C805 C804 1.327 . S
C805 C809 1.429 . S
C806 C789 1.574 . S
C806 H800 0.949 . S
C806 C810 1.368 . S
C807 C788 1.429 . S
C807 C801 1.429 1_554 S
C807 C808 1.523 . S
C808 C789 1.368 . S
C808 C802 1.368 . S
C808 C807 1.523 . S
C809 C793 1.429 . S
C809 C805 1.429 . S
C809 C810 1.523 . S
C810 C794 1.368 . S
C810 C806 1.368 . S
C810 C809 1.523 . S
H811 C786 0.950 . S
H812 C788 0.950 . S
H813 C789 0.949 1_556 S
H814 C791 0.950 . S
H815 C793 0.950 . S
C816 C817 1.349 . S
C816 C818 1.327 . S
C816 H841 0.950 . S
C817 C816 1.349 . S
C817 C833 1.349 . S
C818 C816 1.327 . S
C818 C837 1.429 . S
C818 H842 0.950 . S
C819 C836 1.574 . S
C819 C838 1.368 . S
C819 H843 0.949 . S
H820 C824 0.949 . S
C821 C822 1.349 . S
C821 C823 1.327 . S
C821 H844 0.950 . S
C822 C821 1.349 . S
C822 C834 1.349 . S
C823 C821 1.327 . S
C823 C839 1.429 . S
C823 H845 0.950 . S
C824 H820 0.949 . S
C824 C832 1.574 . S
C824 C840 1.368 . S
H825 C833 0.950 . S
H826 C831 0.950 . S
H827 C832 0.949 . S
H828 C834 0.950 . S
H829 C835 0.950 . S
H830 C836 0.949 . S
C831 H826 0.950 . S
C831 C833 1.327 . S
C831 C837 1.429 . S
C832 C824 1.574 . S
C832 H827 0.949 . S
C832 C838 1.368 . S
C833 C817 1.349 . S
C833 H825 0.950 . S
C833 C831 1.327 . S
C834 C822 1.349 . S
C834 H828 0.950 . S
C834 C835 1.327 . S
C835 H829 0.950 . S
C835 C834 1.327 . S
C835 C839 1.429 . S
C836 C819 1.574 . S
C836 H830 0.949 . S
C836 C840 1.368 . S
C837 C818 1.429 . S
C837 C831 1.429 . S
C837 C838 1.523 . S
C838 C819 1.368 . S
C838 C832 1.368 . S
C838 C837 1.523 . S
C839 C823 1.429 . S
C839 C835 1.429 . S
C839 C840 1.523 . S
C840 C824 1.368 . S
C840 C836 1.368 . S
C840 C839 1.523 . S
H841 C816 0.950 . S
H842 C818 0.950 . S
H843 C819 0.949 . S
H844 C821 0.950 . S
H845 C823 0.950 . S
C846 C847 1.349 1_655 S
C846 C848 1.327 . S
C846 H871 0.950 . S
C847 C846 1.349 1_455 S
C847 C863 1.349 . S
C848 C846 1.327 . S
C848 C867 1.429 . S
C848 H872 0.950 . S
C849 C866 1.574 . S
C849 C868 1.368 . S
C849 H873 0.949 1_655 S
H850 C854 0.949 . S
C851 C852 1.349 . S
C851 C853 1.327 . S
C851 H874 0.950 . S
C852 C851 1.349 . S
C852 C864 1.349 . S
C853 C851 1.327 . S
C853 C869 1.429 1_554 S
C853 H875 0.950 . S
C854 H850 0.949 . S
C854 C862 1.574 . S
C854 C870 1.368 . S
H855 C863 0.950 . S
H856 C861 0.950 . S
H857 C862 0.949 . S
H858 C864 0.950 . S
H859 C865 0.982 . S
H860 C866 0.949 . S
C861 H856 0.950 . S
C861 C863 1.327 . S
C861 C867 1.429 1_455 S
C862 C854 1.574 . S
C862 H857 0.949 . S
C862 C868 1.368 . S
C863 C847 1.349 . S
C863 H855 0.950 . S
C863 C861 1.327 . S
C864 C852 1.349 . S
C864 H858 0.950 . S
C864 C865 1.327 . S
C865 H859 0.982 . S
C865 C864 1.327 . S
C865 C869 1.429 1_554 S
C866 C849 1.574 . S
C866 H860 0.949 . S
C866 C870 1.368 . S
C867 C848 1.429 . S
C867 C861 1.429 1_655 S
C867 C868 1.523 . S
C868 C849 1.368 . S
C868 C862 1.368 . S
C868 C867 1.523 . S
C869 C853 1.429 1_556 S
C869 C865 1.429 1_556 S
C869 C870 1.523 . S
C870 C854 1.368 . S
C870 C866 1.368 . S
C870 C869 1.523 . S
H871 C846 0.950 . S
H872 C848 0.950 . S
H873 C849 0.949 1_455 S
H874 C851 0.950 . S
H875 C853 0.950 . S
C876 C877 1.349 . S
C876 C878 1.327 . S
C876 H901 0.950 . S
C877 C876 1.349 . S
C877 C893 1.349 . S
C878 C876 1.327 . S
C878 C897 1.429 . S
C878 H902 0.950 . S
C879 C896 1.574 . S
C879 C898 1.368 . S
C879 H903 0.949 . S
H880 C884 0.949 . S
C881 C882 1.349 . S
C881 C883 1.327 . S
C881 H904 0.950 . S
C882 C881 1.349 . S
C882 C894 1.349 . S
C883 C881 1.327 . S
C883 C899 1.429 . S
C883 H905 0.950 . S
C884 H880 0.949 . S
C884 C892 1.574 . S
C884 C900 1.368 . S
H885 C893 0.950 . S
H886 C891 0.950 . S
H887 C892 0.949 . S
H888 C894 0.950 . S
H889 C895 0.950 . S
H890 C896 0.949 . S
C891 H886 0.950 . S
C891 C893 1.327 . S
C891 C897 1.429 . S
C892 C884 1.574 . S
C892 H887 0.949 . S
C892 C898 1.368 . S
C893 C877 1.349 . S
C893 H885 0.950 . S
C893 C891 1.327 . S
C894 C882 1.349 . S
C894 H888 0.950 . S
C894 C895 1.327 . S
C895 H889 0.950 . S
C895 C894 1.327 . S
C895 C899 1.429 . S
C896 C879 1.574 . S
C896 H890 0.949 . S
C896 C900 1.368 . S
C897 C878 1.429 . S
C897 C891 1.429 . S
C897 C898 1.523 . S
C898 C879 1.368 . S
C898 C892 1.368 . S
C898 C897 1.523 . S
C899 C883 1.429 . S
C899 C895 1.429 . S
C899 C900 1.523 . S
C900 C884 1.368 . S
C900 C896 1.368 . S
C900 C899 1.523 . S
H901 C876 0.950 . S
H902 C878 0.950 . S
H903 C879 0.949 . S
H904 C881 0.950 . S
H905 C883 0.950 . S
C906 C907 1.349 1_655 S
C906 C908 1.327 . S
C906 H931 0.950 . S
C907 C906 1.349 1_455 S
C907 C923 1.349 . S
C908 C906 1.327 . S
C908 C927 1.429 1_655 S
C908 H932 0.950 . S
C909 C926 1.574 . S
C909 C928 1.368 . S
C909 H933 0.949 . S
H910 C914 0.949 1_655 S
C911 C912 1.349 . S
C911 C913 1.327 . S
C911 H934 0.950 . S
C912 C911 1.349 . S
C912 C924 1.349 . S
C913 C911 1.327 . S
C913 C929 1.429 . S
C913 H935 0.950 . S
C914 H910 0.949 1_455 S
C914 C922 1.574 . S
C914 C930 1.368 . S
H915 C923 0.950 . S
H916 C921 0.950 . S
H917 C922 0.949 1_655 S
H918 C924 0.950 . S
H919 C925 0.950 . S
H920 C926 0.949 . S
C921 H916 0.950 . S
C921 C923 1.327 . S
C921 C927 1.429 . S
C922 C914 1.574 . S
C922 H917 0.949 1_455 S
C922 C928 1.368 . S
C923 C907 1.349 . S
C923 H915 0.950 . S
C923 C921 1.327 . S
C924 C912 1.349 . S
C924 H918 0.950 . S
C924 C925 1.327 . S
C925 H919 0.950 . S
C925 C924 1.327 . S
C925 C929 1.429 . S
C926 C909 1.574 . S
C926 H920 0.949 . S
C926 C930 1.368 . S
C927 C908 1.429 1_455 S
C927 C921 1.429 . S
C927 C928 1.523 . S
C928 C909 1.368 . S
C928 C922 1.368 . S
C928 C927 1.523 . S
C929 C913 1.429 . S
C929 C925 1.429 . S
C929 C930 1.523 . S
C930 C914 1.368 . S
C930 C926 1.368 . S
C930 C929 1.523 . S
H931 C906 0.950 . S
H932 C908 0.950 . S
H933 C909 0.949 . S
H934 C911 0.950 . S
H935 C913 0.950 . S
C936 C937 1.349 . S
C936 C938 1.327 . S
C936 H961 0.950 . S
C937 C936 1.349 . S
C937 C953 1.349 . S
C938 C936 1.327 . S
C938 C957 1.429 . S
C938 H962 0.950 . S
C939 C956 1.574 . S
C939 C958 1.368 . S
C939 H963 0.949 . S
H940 C944 0.949 . S
C941 C942 1.349 . S
C941 C943 1.327 . S
C941 H964 0.950 . S
C942 C941 1.349 . S
C942 C954 1.349 . S
C943 C941 1.327 . S
C943 C959 1.429 . S
C943 H965 0.950 . S
C944 H940 0.949 . S
C944 C952 1.574 . S
C944 C960 1.368 . S
H945 C953 0.950 . S
H946 C951 0.950 . S
H947 C952 0.949 . S
H948 C954 0.950 . S
H949 C955 0.950 . S
H950 C956 0.949 . S
C951 H946 0.950 . S
C951 C953 1.327 . S
C951 C957 1.429 . S
C952 C944 1.574 . S
C952 H947 0.949 . S
C952 C958 1.368 . S
C953 C937 1.349 . S
C953 H945 0.950 . S
C953 C951 1.327 . S
C954 C942 1.349 . S
C954 H948 0.950 . S
C954 C955 1.327 . S
C955 H949 0.950 . S
C955 C954 1.327 . S
C955 C959 1.429 . S
C956 C939 1.574 . S
C956 H950 0.949 . S
C956 C960 1.368 . S
C957 C938 1.429 . S
C957 C951 1.429 . S
C957 C958 1.523 . S
C958 C939 1.368 . S
C958 C952 1.368 . S
C958 C957 1.523 . S
C959 C943 1.429 . S
C959 C955 1.429 . S
C959 C960 1.523 . S
C960 C944 1.368 . S
C960 C956 1.368 . S
C960 C959 1.523 . S
H961 C936 0.950 . S
H962 C938 0.950 . S
H963 C939 0.949 . S
H964 C941 0.950 . S
H965 C943 0.950 . S
C966 C967 1.349 . S
C966 C968 1.327 . S
C966 H991 0.950 . S
C967 C966 1.349 . S
C967 C983 1.349 . S
C968 C966 1.327 . S
C968 C987 1.429 . S
C968 H992 0.950 . S
C969 C986 1.574 . S
C969 C988 1.368 . S
C969 H993 0.949 . S
H970 C974 0.949 . S
C971 C972 1.349 . S
C971 C973 1.327 . S
C971 H994 0.950 . S
C972 C971 1.349 . S
C972 C984 1.349 . S
C973 C971 1.327 . S
C973 C989 1.429 . S
C973 H995 0.950 . S
C974 H970 0.949 . S
C974 C982 1.574 . S
C974 C990 1.368 . S
H975 C983 0.950 . S
H976 C981 0.950 . S
H977 C982 0.949 . S
H978 C984 0.950 . S
H979 C985 0.950 . S
H980 C986 0.949 . S
C981 H976 0.950 . S
C981 C983 1.327 . S
C981 C987 1.429 . S
C982 C974 1.574 . S
C982 H977 0.949 . S
C982 C988 1.368 . S
C983 C967 1.349 . S
C983 H975 0.950 . S
C983 C981 1.327 . S
C984 C972 1.349 . S
C984 H978 0.950 . S
C984 C985 1.327 . S
C985 H979 0.950 . S
C985 C984 1.327 . S
C985 C989 1.429 . S
C986 C969 1.574 . S
C986 H980 0.949 . S
C986 C990 1.368 . S
C987 C968 1.429 . S
C987 C981 1.429 . S
C987 C988 1.523 . S
C988 C969 1.368 . S
C988 C982 1.368 . S
C988 C987 1.523 . S
C989 C973 1.429 . S
C989 C985 1.429 . S
C989 C990 1.523 . S
C990 C974 1.368 . S
C990 C986 1.368 . S
C990 C989 1.523 . S
H991 C966 0.950 . S
H992 C968 0.950 . S
H993 C969 0.949 . S
H994 C971 0.950 . S
H995 C973 0.950 . S
C996 C997 1.349 1_545 S
C996 C998 1.327 . S
C996 H1021 0.950 . S
C997 C996 1.349 1_565 S
C997 C1013 1.349 . S
C998 C996 1.327 . S
C998 C1017 1.429 1_545 S
C998 H1022 0.950 . S
C999 C1016 1.574 . S
C999 C1018 1.368 . S
C999 H1023 0.949 . S
H1000 C1004 0.949 1_545 S
C1001 C1002 1.349 . S
C1001 C1003 1.327 . S
C1001 H1024 0.950 . S
C1002 C1001 1.349 . S
C1002 C1014 1.349 . S
C1003 C1001 1.327 . S
C1003 C1019 1.429 . S
C1003 H1025 0.950 . S
C1004 H1000 0.949 1_565 S
C1004 C1012 1.574 . S
C1004 C1020 1.368 . S
H1005 C1013 0.950 . S
H1006 C1011 0.950 . S
H1007 C1012 0.949 1_545 S
H1008 C1014 0.950 . S
H1009 C1015 0.950 . S
H1010 C1016 0.949 . S
C1011 H1006 0.950 . S
C1011 C1013 1.327 . S
C1011 C1017 1.429 . S
C1012 C1004 1.574 . S
C1012 H1007 0.949 1_565 S
C1012 C1018 1.368 . S
C1013 C997 1.349 . S
C1013 H1005 0.950 . S
C1013 C1011 1.327 . S
C1014 C1002 1.349 . S
C1014 H1008 0.950 . S
C1014 C1015 1.327 . S
C1015 H1009 0.950 . S
C1015 C1014 1.327 . S
C1015 C1019 1.429 . S
C1016 C999 1.574 . S
C1016 H1010 0.949 . S
C1016 C1020 1.368 . S
C1017 C998 1.429 1_565 S
C1017 C1011 1.429 . S
C1017 C1018 1.523 . S
C1018 C999 1.368 . S
C1018 C1012 1.368 . S
C1018 C1017 1.523 . S
C1019 C1003 1.429 . S
C1019 C1015 1.429 . S
C1019 C1020 1.523 . S
C1020 C1004 1.368 . S
C1020 C1016 1.368 . S
C1020 C1019 1.523 . S
H1021 C996 0.950 . S
H1022 C998 0.950 . S
H1023 C999 0.949 . S
H1024 C1001 0.950 . S
H1025 C1003 0.950 . S
C1026 C1027 1.349 . S
C1026 C1028 1.327 . S
C1026 H1051 0.950 . S
C1027 C1026 1.349 . S
C1027 C1043 1.349 1_565 S
C1028 C1026 1.327 . S
C1028 C1047 1.429 1_565 S
C1028 H1052 0.950 . S
C1029 C1046 1.574 . S
C1029 C1048 1.368 . S
C1029 H1053 0.949 . S
H1030 C1034 0.949 . S
C1031 C1032 1.349 . S
C1031 C1033 1.327 . S
C1031 H1054 0.950 . S
C1032 C1031 1.349 . S
C1032 C1044 1.349 . S
C1033 C1031 1.327 . S
C1033 C1049 1.429 1_655 S
C1033 H1055 0.950 1_655 S
C1034 H1030 0.949 . S
C1034 C1042 1.574 . S
C1034 C1050 1.368 . S
H1035 C1043 0.950 . S
H1036 C1041 0.950 . S
H1037 C1042 0.949 1_565 S
H1038 C1044 0.950 . S
H1039 C1045 0.950 . S
H1040 C1046 0.949 . S
C1041 H1036 0.950 . S
C1041 C1043 1.327 . S
C1041 C1047 1.429 . S
C1042 C1034 1.574 . S
C1042 H1037 0.949 1_545 S
C1042 C1048 1.368 . S
C1043 C1027 1.349 1_545 S
C1043 H1035 0.950 . S
C1043 C1041 1.327 . S
C1044 C1032 1.349 . S
C1044 H1038 0.950 . S
C1044 C1045 1.327 . S
C1045 H1039 0.950 . S
C1045 C1044 1.327 . S
C1045 C1049 1.429 1_655 S
C1046 C1029 1.574 . S
C1046 H1040 0.949 . S
C1046 C1050 1.368 . S
C1047 C1028 1.429 1_545 S
C1047 C1041 1.429 . S
C1047 C1048 1.523 . S
C1048 C1029 1.368 . S
C1048 C1042 1.368 . S
C1048 C1047 1.523 . S
C1049 C1033 1.429 1_455 S
C1049 C1045 1.429 1_455 S
C1049 C1050 1.523 . S
C1050 C1034 1.368 . S
C1050 C1046 1.368 . S
C1050 C1049 1.523 . S
H1051 C1026 0.950 . S
H1052 C1028 0.950 . S
H1053 C1029 0.949 . S
H1054 C1031 0.950 . S
H1055 C1033 0.950 1_455 S
C1056 C1057 1.349 . S
C1056 C1058 1.327 . S
C1056 H1081 0.950 . S
C1057 C1056 1.349 . S
C1057 C1073 1.349 . S
C1058 C1056 1.327 . S
C1058 C1077 1.429 . S
C1058 H1082 0.950 . S
C1059 C1076 1.574 . S
C1059 C1078 1.368 . S
C1059 H1083 0.949 . S
H1060 C1064 0.949 . S
C1061 C1062 1.349 . S
C1061 C1063 1.327 . S
C1061 H1084 0.950 . S
C1062 C1061 1.349 . S
C1062 C1074 1.349 . S
C1063 C1061 1.327 . S
C1063 C1079 1.429 . S
C1063 H1085 0.950 . S
C1064 H1060 0.949 . S
C1064 C1072 1.574 . S
C1064 C1080 1.368 . S
H1065 C1073 0.950 . S
H1066 C1071 0.950 . S
H1067 C1072 0.949 . S
H1068 C1074 0.950 . S
H1069 C1075 0.950 . S
H1070 C1076 0.949 . S
C1071 H1066 0.950 . S
C1071 C1073 1.327 . S
C1071 C1077 1.429 . S
C1072 C1064 1.574 . S
C1072 H1067 0.949 . S
C1072 C1078 1.368 . S
C1073 C1057 1.349 . S
C1073 H1065 0.950 . S
C1073 C1071 1.327 . S
C1074 C1062 1.349 . S
C1074 H1068 0.950 . S
C1074 C1075 1.327 . S
C1075 H1069 0.950 . S
C1075 C1074 1.327 . S
C1075 C1079 1.429 . S
C1076 C1059 1.574 . S
C1076 H1070 0.949 . S
C1076 C1080 1.368 . S
C1077 C1058 1.429 . S
C1077 C1071 1.429 . S
C1077 C1078 1.523 . S
C1078 C1059 1.368 . S
C1078 C1072 1.368 . S
C1078 C1077 1.523 . S
C1079 C1063 1.429 . S
C1079 C1075 1.429 . S
C1079 C1080 1.523 . S
C1080 C1064 1.368 . S
C1080 C1076 1.368 . S
C1080 C1079 1.523 . S
H1081 C1056 0.950 . S
H1082 C1058 0.950 . S
H1083 C1059 0.949 . S
H1084 C1061 0.950 . S
H1085 C1063 0.950 . S
C1086 C1087 1.349 . S
C1086 C1088 1.327 . S
C1086 H1111 0.950 . S
C1087 C1086 1.349 . S
C1087 C1103 1.349 1_556 S
C1088 C1086 1.327 . S
C1088 C1107 1.429 1_556 S
C1088 H1112 0.950 . S
C1089 C1106 1.574 . S
C1089 C1108 1.368 . S
C1089 H1113 0.949 . S
H1090 C1094 0.949 . S
C1091 C1092 1.349 . S
C1091 C1093 1.327 . S
C1091 H1114 0.950 . S
C1092 C1091 1.349 . S
C1092 C1104 1.349 . S
C1093 C1091 1.327 . S
C1093 C1109 1.429 1_565 S
C1093 H1115 0.950 1_565 S
C1094 H1090 0.949 . S
C1094 C1102 1.574 . S
C1094 C1110 1.368 1_556 S
H1095 C1103 0.950 . S
H1096 C1101 0.950 . S
H1097 C1102 0.949 . S
H1098 C1104 0.950 . S
H1099 C1105 0.950 1_556 S
H1100 C1106 0.949 . S
C1101 H1096 0.950 . S
C1101 C1103 1.327 . S
C1101 C1107 1.429 . S
C1102 C1094 1.574 . S
C1102 H1097 0.949 . S
C1102 C1108 1.368 1_556 S
C1103 C1087 1.349 1_554 S
C1103 H1095 0.950 . S
C1103 C1101 1.327 . S
C1104 C1092 1.349 . S
C1104 H1098 0.950 . S
C1104 C1105 1.327 . S
C1105 H1099 0.950 1_554 S
C1105 C1104 1.327 . S
C1105 C1109 1.429 1_565 S
C1106 C1089 1.574 . S
C1106 H1100 0.949 . S
C1106 C1110 1.368 . S
C1107 C1088 1.429 1_554 S
C1107 C1101 1.429 . S
C1107 C1108 1.523 . S
C1108 C1089 1.368 . S
C1108 C1102 1.368 1_554 S
C1108 C1107 1.523 . S
C1109 C1093 1.429 1_545 S
C1109 C1105 1.429 1_545 S
C1109 C1110 1.523 . S
C1110 C1094 1.368 1_554 S
C1110 C1106 1.368 . S
C1110 C1109 1.523 . S
H1111 C1086 0.950 . S
H1112 C1088 0.950 . S
H1113 C1089 0.949 . S
H1114 C1091 0.950 . S
H1115 C1093 0.950 1_545 S
C1116 C1117 1.349 . S
C1116 C1118 1.327 . S
C1116 H1141 0.950 . S
C1117 C1116 1.349 . S
C1117 C1133 1.349 . S
C1118 C1116 1.327 . S
C1118 C1137 1.429 . S
C1118 H1142 0.950 . S
C1119 C1136 1.574 . S
C1119 C1138 1.368 . S
C1119 H1143 0.949 . S
H1120 C1124 0.949 . S
C1121 C1122 1.349 . S
C1121 C1123 1.327 . S
C1121 H1144 0.950 . S
C1122 C1121 1.349 . S
C1122 C1134 1.349 . S
C1123 C1121 1.327 . S
C1123 C1139 1.429 . S
C1123 H1145 0.950 . S
C1124 H1120 0.949 . S
C1124 C1132 1.574 . S
C1124 C1140 1.368 . S
H1125 C1133 0.950 . S
H1126 C1131 0.950 . S
H1127 C1132 0.949 . S
H1128 C1134 0.950 . S
H1129 C1135 0.950 . S
H1130 C1136 0.949 . S
C1131 H1126 0.950 . S
C1131 C1133 1.327 . S
C1131 C1137 1.429 . S
C1132 C1124 1.574 . S
C1132 H1127 0.949 . S
C1132 C1138 1.368 . S
C1133 C1117 1.349 . S
C1133 H1125 0.950 . S
C1133 C1131 1.327 . S
C1134 C1122 1.349 . S
C1134 H1128 0.950 . S
C1134 C1135 1.327 . S
C1135 H1129 0.950 . S
C1135 C1134 1.327 . S
C1135 C1139 1.429 . S
C1136 C1119 1.574 . S
C1136 H1130 0.949 . S
C1136 C1140 1.368 . S
C1137 C1118 1.429 . S
C1137 C1131 1.429 . S
C1137 C1138 1.523 . S
C1138 C1119 1.368 . S
C1138 C1132 1.368 . S
C1138 C1137 1.523 . S
C1139 C1123 1.429 . S
C1139 C1135 1.429 . S
C1139 C1140 1.523 . S
C1140 C1124 1.368 . S
C1140 C1136 1.368 . S
C1140 C1139 1.523 . S
H1141 C1116 0.950 . S
H1142 C1118 0.950 . S
H1143 C1119 0.949 . S
H1144 C1121 0.950 . S
H1145 C1123 0.950 . S
C1146 C1147 1.349 . S
C1146 C1148 1.327 . S
C1146 H1171 0.950 . S
C1147 C1146 1.349 . S
C1147 C1163 1.344 1_556 S
C1148 C1146 1.327 . S
C1148 C1167 1.429 . S
C1148 H1172 0.950 . S
C1149 C1166 1.574 . S
C1149 C1168 1.368 . S
C1149 H1173 0.949 . S
H1150 C1154 0.949 . S
C1151 C1152 1.349 . S
C1151 C1153 1.327 . S
C1151 H1174 0.950 . S
C1152 C1151 1.349 . S
C1152 C1164 1.349 . S
C1153 C1151 1.327 . S
C1153 C1169 1.429 . S
C1153 H1175 0.950 . S
C1154 H1150 0.949 . S
C1154 C1162 1.574 . S
C1154 C1170 1.368 . S
H1155 C1163 0.964 . S
H1156 C1161 0.950 1_554 S
H1157 C1162 0.949 . S
H1158 C1164 0.950 . S
H1159 C1165 0.950 . S
H1160 C1166 0.949 . S
C1161 H1156 0.950 1_556 S
C1161 C1163 1.319 1_556 S
C1161 C1167 1.429 . S
C1162 C1154 1.574 . S
C1162 H1157 0.949 . S
C1162 C1168 1.368 . S
C1163 C1147 1.344 1_554 S
C1163 H1155 0.964 . S
C1163 C1161 1.319 1_554 S
C1164 C1152 1.349 . S
C1164 H1158 0.950 . S
C1164 C1165 1.327 . S
C1165 H1159 0.950 . S
C1165 C1164 1.327 . S
C1165 C1169 1.429 . S
C1166 C1149 1.574 . S
C1166 H1160 0.949 . S
C1166 C1170 1.368 . S
C1167 C1148 1.429 . S
C1167 C1161 1.429 . S
C1167 C1168 1.523 . S
C1168 C1149 1.368 . S
C1168 C1162 1.368 . S
C1168 C1167 1.523 . S
C1169 C1153 1.429 . S
C1169 C1165 1.429 . S
C1169 C1170 1.523 . S
C1170 C1154 1.368 . S
C1170 C1166 1.368 . S
C1170 C1169 1.523 . S
H1171 C1146 0.950 . S
H1172 C1148 0.950 . S
H1173 C1149 0.949 . S
H1174 C1151 0.950 . S
H1175 C1153 0.950 . S
C1176 C1177 1.349 . S
C1176 C1178 1.327 . S
C1176 H1201 0.950 . S
C1177 C1176 1.349 . S
C1177 C1193 1.349 . S
C1178 C1176 1.327 . S
C1178 C1197 1.429 . S
C1178 H1202 0.950 . S
C1179 C1196 1.574 . S
C1179 C1198 1.368 . S
C1179 H1203 0.949 . S
H1180 C1184 0.949 . S
C1181 C1182 1.349 . S
C1181 C1183 1.327 . S
C1181 H1204 0.950 . S
C1182 C1181 1.349 . S
C1182 C1194 1.349 . S
C1183 C1181 1.327 . S
C1183 C1199 1.429 . S
C1183 H1205 0.950 . S
C1184 H1180 0.949 . S
C1184 C1192 1.574 . S
C1184 C1200 1.368 . S
H1185 C1193 0.950 . S
H1186 C1191 0.950 . S
H1187 C1192 0.949 . S
H1188 C1194 0.950 . S
H1189 C1195 0.950 . S
H1190 C1196 0.949 . S
C1191 H1186 0.950 . S
C1191 C1193 1.327 . S
C1191 C1197 1.429 . S
C1192 C1184 1.574 . S
C1192 H1187 0.949 . S
C1192 C1198 1.368 . S
C1193 C1177 1.349 . S
C1193 H1185 0.950 . S
C1193 C1191 1.327 . S
C1194 C1182 1.349 . S
C1194 H1188 0.950 . S
C1194 C1195 1.327 . S
C1195 H1189 0.950 . S
C1195 C1194 1.327 . S
C1195 C1199 1.429 . S
C1196 C1179 1.574 . S
C1196 H1190 0.949 . S
C1196 C1200 1.368 . S
C1197 C1178 1.429 . S
C1197 C1191 1.429 . S
C1197 C1198 1.523 . S
C1198 C1179 1.368 . S
C1198 C1192 1.368 . S
C1198 C1197 1.523 . S
C1199 C1183 1.429 . S
C1199 C1195 1.429 . S
C1199 C1200 1.523 . S
C1200 C1184 1.368 . S
C1200 C1196 1.368 . S
C1200 C1199 1.523 . S
H1201 C1176 0.950 . S
H1202 C1178 0.950 . S
H1203 C1179 0.949 . S
H1204 C1181 0.950 . S
H1205 C1183 0.950 . S
C1206 C1207 1.349 1_455 S
C1206 C1208 1.327 . S
C1206 H1231 0.950 . S
C1207 C1206 1.349 1_655 S
C1207 C1223 1.349 . S
C1208 C1206 1.327 . S
C1208 C1227 1.429 . S
C1208 H1232 0.950 . S
C1209 C1226 1.565 1_655 S
C1209 C1228 1.354 1_655 S
C1209 H1233 0.971 . S
H1210 C1214 0.949 . S
C1211 C1212 1.349 . S
C1211 C1213 1.327 . S
C1211 H1234 0.950 . S
C1212 C1211 1.349 . S
C1212 C1224 1.349 . S
C1213 C1211 1.327 . S
C1213 C1229 1.429 1_556 S
C1213 H1235 0.950 . S
C1214 H1210 0.949 . S
C1214 C1222 1.574 . S
C1214 C1230 1.368 . S
H1215 C1223 0.950 . S
H1216 C1221 0.950 . S
H1217 C1222 0.949 . S
H1218 C1224 0.950 . S
H1219 C1225 0.950 1_554 S
H1220 C1226 0.949 1_655 S
C1221 H1216 0.950 . S
C1221 C1223 1.327 . S
C1221 C1227 1.429 1_655 S
C1222 C1214 1.574 . S
C1222 H1217 0.949 . S
C1222 C1228 1.368 . S
C1223 C1207 1.349 . S
C1223 H1215 0.950 . S
C1223 C1221 1.327 . S
C1224 C1212 1.349 . S
C1224 H1218 0.950 . S
C1224 C1225 1.327 . S
C1225 H1219 0.950 1_556 S
C1225 C1224 1.327 . S
C1225 C1229 1.429 1_556 S
C1226 C1209 1.565 1_455 S
C1226 H1220 0.949 1_455 S
C1226 C1230 1.368 . S
C1227 C1208 1.429 . S
C1227 C1221 1.429 1_455 S
C1227 C1228 1.523 . S
C1228 C1209 1.354 1_455 S
C1228 C1222 1.368 . S
C1228 C1227 1.523 . S
C1229 C1213 1.429 1_554 S
C1229 C1225 1.429 1_554 S
C1229 C1230 1.523 . S
C1230 C1214 1.368 . S
C1230 C1226 1.368 . S
C1230 C1229 1.523 . S
H1231 C1206 0.950 . S
H1232 C1208 0.950 . S
H1233 C1209 0.971 . S
H1234 C1211 0.950 . S
H1235 C1213 0.950 . S
C1236 C1237 1.349 . S
C1236 C1238 1.327 . S
C1236 H1261 0.950 . S
C1237 C1236 1.349 . S
C1237 C1253 1.349 . S
C1238 C1236 1.327 . S
C1238 C1257 1.429 . S
C1238 H1262 0.950 . S
C1239 C1256 1.574 . S
C1239 C1258 1.368 . S
C1239 H1263 0.949 . S
H1240 C1244 0.949 . S
C1241 C1242 1.349 . S
C1241 C1243 1.327 . S
C1241 H1264 0.950 . S
C1242 C1241 1.349 . S
C1242 C1254 1.349 . S
C1243 C1241 1.327 . S
C1243 C1259 1.429 . S
C1243 H1265 0.950 . S
C1244 H1240 0.949 . S
C1244 C1252 1.574 . S
C1244 C1260 1.368 . S
H1245 C1253 0.950 . S
H1246 C1251 0.950 . S
H1247 C1252 0.949 . S
H1248 C1254 0.950 . S
H1249 C1255 0.950 . S
H1250 C1256 0.949 . S
C1251 H1246 0.950 . S
C1251 C1253 1.327 . S
C1251 C1257 1.429 . S
C1252 C1244 1.574 . S
C1252 H1247 0.949 . S
C1252 C1258 1.368 . S
C1253 C1237 1.349 . S
C1253 H1245 0.950 . S
C1253 C1251 1.327 . S
C1254 C1242 1.349 . S
C1254 H1248 0.950 . S
C1254 C1255 1.327 . S
C1255 H1249 0.950 . S
C1255 C1254 1.327 . S
C1255 C1259 1.429 . S
C1256 C1239 1.574 . S
C1256 H1250 0.949 . S
C1256 C1260 1.368 . S
C1257 C1238 1.429 . S
C1257 C1251 1.429 . S
C1257 C1258 1.523 . S
C1258 C1239 1.368 . S
C1258 C1252 1.368 . S
C1258 C1257 1.523 . S
C1259 C1243 1.429 . S
C1259 C1255 1.429 . S
C1259 C1260 1.523 . S
C1260 C1244 1.368 . S
C1260 C1256 1.368 . S
C1260 C1259 1.523 . S
H1261 C1236 0.950 . S
H1262 C1238 0.950 . S
H1263 C1239 0.949 . S
H1264 C1241 0.950 . S
H1265 C1243 0.950 . S
C1266 C1267 1.349 . S
C1266 C1268 1.327 . S
C1266 H1291 0.950 . S
C1267 C1266 1.349 . S
C1267 C1283 1.349 . S
C1268 C1266 1.327 . S
C1268 C1287 1.429 . S
C1268 H1292 0.950 . S
C1269 C1286 1.574 . S
C1269 C1288 1.368 . S
C1269 H1293 0.949 . S
H1270 C1274 0.949 . S
C1271 C1272 1.349 . S
C1271 C1273 1.327 . S
C1271 H1294 0.950 . S
C1272 C1271 1.349 . S
C1272 C1284 1.349 . S
C1273 C1271 1.327 . S
C1273 C1289 1.429 . S
C1273 H1295 0.950 . S
C1274 H1270 0.949 . S
C1274 C1282 1.574 . S
C1274 C1290 1.368 . S
H1275 C1283 0.950 . S
H1276 C1281 0.950 . S
H1277 C1282 0.949 . S
H1278 C1284 0.950 . S
H1279 C1285 0.950 . S
H1280 C1286 0.949 . S
C1281 H1276 0.950 . S
C1281 C1283 1.327 . S
C1281 C1287 1.429 . S
C1282 C1274 1.574 . S
C1282 H1277 0.949 . S
C1282 C1288 1.368 . S
C1283 C1267 1.349 . S
C1283 H1275 0.950 . S
C1283 C1281 1.327 . S
C1284 C1272 1.349 . S
C1284 H1278 0.950 . S
C1284 C1285 1.327 . S
C1285 H1279 0.950 . S
C1285 C1284 1.327 . S
C1285 C1289 1.429 . S
C1286 C1269 1.574 . S
C1286 H1280 0.949 . S
C1286 C1290 1.368 . S
C1287 C1268 1.429 . S
C1287 C1281 1.429 . S
C1287 C1288 1.523 . S
C1288 C1269 1.368 . S
C1288 C1282 1.368 . S
C1288 C1287 1.523 . S
C1289 C1273 1.429 . S
C1289 C1285 1.429 . S
C1289 C1290 1.523 . S
C1290 C1274 1.368 . S
C1290 C1286 1.368 . S
C1290 C1289 1.523 . S
H1291 C1266 0.950 . S
H1292 C1268 0.950 . S
H1293 C1269 0.949 . S
H1294 C1271 0.950 . S
H1295 C1273 0.950 . S
C1296 C1297 1.349 . S
C1296 C1298 1.327 . S
C1296 H1321 0.950 . S
C1297 C1296 1.349 . S
C1297 C1313 1.349 . S
C1298 C1296 1.327 . S
C1298 C1317 1.429 . S
C1298 H1322 0.950 . S
C1299 C1316 1.574 . S
C1299 C1318 1.368 . S
C1299 H1323 0.949 . S
H1300 C1304 0.949 . S
C1301 C1302 1.349 . S
C1301 C1303 1.327 . S
C1301 H1324 0.950 . S
C1302 C1301 1.349 . S
C1302 C1314 1.349 . S
C1303 C1301 1.327 . S
C1303 C1319 1.429 . S
C1303 H1325 0.950 . S
C1304 H1300 0.949 . S
C1304 C1312 1.574 . S
C1304 C1320 1.368 . S
H1305 C1313 0.950 . S
H1306 C1311 0.950 . S
H1307 C1312 0.949 . S
H1308 C1314 0.950 . S
H1309 C1315 0.950 . S
H1310 C1316 0.949 . S
C1311 H1306 0.950 . S
C1311 C1313 1.327 . S
C1311 C1317 1.429 . S
C1312 C1304 1.574 . S
C1312 H1307 0.949 . S
C1312 C1318 1.368 . S
C1313 C1297 1.349 . S
C1313 H1305 0.950 . S
C1313 C1311 1.327 . S
C1314 C1302 1.349 . S
C1314 H1308 0.950 . S
C1314 C1315 1.327 . S
C1315 H1309 0.950 . S
C1315 C1314 1.327 . S
C1315 C1319 1.429 . S
C1316 C1299 1.574 . S
C1316 H1310 0.949 . S
C1316 C1320 1.368 . S
C1317 C1298 1.429 . S
C1317 C1311 1.429 . S
C1317 C1318 1.523 . S
C1318 C1299 1.368 . S
C1318 C1312 1.368 . S
C1318 C1317 1.523 . S
C1319 C1303 1.429 . S
C1319 C1315 1.429 . S
C1319 C1320 1.523 . S
C1320 C1304 1.368 . S
C1320 C1316 1.368 . S
C1320 C1319 1.523 . S
H1321 C1296 0.950 . S
H1322 C1298 0.950 . S
H1323 C1299 0.949 . S
H1324 C1301 0.950 . S
H1325 C1303 0.950 . S
C1326 C1327 1.349 . S
C1326 C1328 1.327 . S
C1326 H1351 0.950 . S
C1327 C1326 1.349 . S
C1327 C1343 1.349 . S
C1328 C1326 1.327 . S
C1328 C1347 1.429 . S
C1328 H1352 0.950 . S
C1329 C1346 1.574 . S
C1329 C1348 1.368 . S
C1329 H1353 0.949 . S
H1330 C1334 0.949 . S
C1331 C1332 1.349 . S
C1331 C1333 1.327 . S
C1331 H1354 0.950 . S
C1332 C1331 1.349 . S
C1332 C1344 1.349 . S
C1333 C1331 1.327 . S
C1333 C1349 1.429 . S
C1333 H1355 0.950 . S
C1334 H1330 0.949 . S
C1334 C1342 1.574 . S
C1334 C1350 1.368 . S
H1335 C1343 0.950 . S
H1336 C1341 0.950 . S
H1337 C1342 0.949 . S
H1338 C1344 0.950 . S
H1339 C1345 0.950 . S
H1340 C1346 0.949 . S
C1341 H1336 0.950 . S
C1341 C1343 1.327 . S
C1341 C1347 1.429 . S
C1342 C1334 1.574 . S
C1342 H1337 0.949 . S
C1342 C1348 1.368 . S
C1343 C1327 1.349 . S
C1343 H1335 0.950 . S
C1343 C1341 1.327 . S
C1344 C1332 1.349 . S
C1344 H1338 0.950 . S
C1344 C1345 1.327 . S
C1345 H1339 0.950 . S
C1345 C1344 1.327 . S
C1345 C1349 1.429 . S
C1346 C1329 1.574 . S
C1346 H1340 0.949 . S
C1346 C1350 1.368 . S
C1347 C1328 1.429 . S
C1347 C1341 1.429 . S
C1347 C1348 1.523 . S
C1348 C1329 1.368 . S
C1348 C1342 1.368 . S
C1348 C1347 1.523 . S
C1349 C1333 1.429 . S
C1349 C1345 1.429 . S
C1349 C1350 1.523 . S
C1350 C1334 1.368 . S
C1350 C1346 1.368 . S
C1350 C1349 1.523 . S
H1351 C1326 0.950 . S
H1352 C1328 0.950 . S
H1353 C1329 0.949 . S
H1354 C1331 0.950 . S
H1355 C1333 0.950 . S
C1356 C1357 1.349 . S
C1356 C1358 1.327 . S
C1356 H1381 0.950 . S
C1357 C1356 1.349 . S
C1357 C1373 1.349 1_565 S
C1358 C1356 1.327 . S
C1358 C1377 1.429 1_565 S
C1358 H1382 0.950 . S
C1359 C1376 1.574 . S
C1359 C1378 1.368 . S
C1359 H1383 0.949 . S
H1360 C1364 0.949 . S
C1361 C1362 1.349 . S
C1361 C1363 1.327 . S
C1361 H1384 0.950 . S
C1362 C1361 1.349 . S
C1362 C1374 1.349 . S
C1363 C1361 1.327 . S
C1363 C1379 1.429 . S
C1363 H1385 0.950 . S
C1364 H1360 0.949 . S
C1364 C1372 1.574 . S
C1364 C1380 1.368 1_565 S
H1365 C1373 0.950 . S
H1366 C1371 0.950 . S
H1367 C1372 0.949 . S
H1368 C1374 0.950 1_565 S
H1369 C1375 0.950 1_565 S
H1370 C1376 0.949 . S
C1371 H1366 0.950 . S
C1371 C1373 1.327 . S
C1371 C1377 1.429 . S
C1372 C1364 1.574 . S
C1372 H1367 0.949 . S
C1372 C1378 1.368 1_565 S
C1373 C1357 1.349 1_545 S
C1373 H1365 0.950 . S
C1373 C1371 1.327 . S
C1374 C1362 1.349 . S
C1374 H1368 0.950 1_545 S
C1374 C1375 1.327 . S
C1375 H1369 0.950 1_545 S
C1375 C1374 1.327 . S
C1375 C1379 1.429 . S
C1376 C1359 1.574 . S
C1376 H1370 0.949 . S
C1376 C1380 1.368 . S
C1377 C1358 1.429 1_545 S
C1377 C1371 1.429 . S
C1377 C1378 1.523 . S
C1378 C1359 1.368 . S
C1378 C1372 1.368 1_545 S
C1378 C1377 1.523 . S
C1379 C1363 1.429 . S
C1379 C1375 1.429 . S
C1379 C1380 1.523 . S
C1380 C1364 1.368 1_545 S
C1380 C1376 1.368 . S
C1380 C1379 1.523 . S
H1381 C1356 0.950 . S
H1382 C1358 0.950 . S
H1383 C1359 0.949 . S
H1384 C1361 0.950 . S
H1385 C1363 0.950 . S
C1386 C1387 1.349 1_545 S
C1386 C1388 1.327 1_545 S
C1386 H1411 0.950 . S
C1387 C1386 1.349 1_565 S
C1387 C1403 1.349 . S
C1388 C1386 1.327 1_565 S
C1388 C1407 1.429 . S
C1388 H1412 0.950 1_565 S
C1389 C1406 1.574 . S
C1389 C1408 1.368 . S
C1389 H1413 0.949 . S
H1390 C1394 0.949 . S
C1391 C1392 1.349 . S
C1391 C1393 1.327 . S
C1391 H1414 0.950 . S
C1392 C1391 1.349 . S
C1392 C1404 1.349 . S
C1393 C1391 1.327 . S
C1393 C1409 1.429 . S
C1393 H1415 0.950 . S
C1394 H1390 0.949 . S
C1394 C1402 1.574 . S
C1394 C1410 1.368 . S
H1395 C1403 0.950 . S
H1396 C1401 0.950 . S
H1397 C1402 0.949 . S
H1398 C1404 0.950 . S
H1399 C1405 0.950 . S
H1400 C1406 0.949 . S
C1401 H1396 0.950 . S
C1401 C1403 1.327 . S
C1401 C1407 1.429 . S
C1402 C1394 1.574 . S
C1402 H1397 0.949 . S
C1402 C1408 1.368 . S
C1403 C1387 1.349 . S
C1403 H1395 0.950 . S
C1403 C1401 1.327 . S
C1404 C1392 1.349 . S
C1404 H1398 0.950 . S
C1404 C1405 1.327 . S
C1405 H1399 0.950 . S
C1405 C1404 1.327 . S
C1405 C1409 1.429 . S
C1406 C1389 1.574 . S
C1406 H1400 0.949 . S
C1406 C1410 1.368 . S
C1407 C1388 1.429 . S
C1407 C1401 1.429 . S
C1407 C1408 1.523 . S
C1408 C1389 1.368 . S
C1408 C1402 1.368 . S
C1408 C1407 1.523 . S
C1409 C1393 1.429 . S
C1409 C1405 1.429 . S
C1409 C1410 1.523 . S
C1410 C1394 1.368 . S
C1410 C1406 1.368 . S
C1410 C1409 1.523 . S
H1411 C1386 0.950 . S
H1412 C1388 0.950 1_545 S
H1413 C1389 0.949 . S
H1414 C1391 0.950 . S
H1415 C1393 0.950 . S
C1416 C1417 1.349 . S
C1416 C1418 1.327 . S
C1416 H1441 0.950 . S
C1417 C1416 1.349 . S
C1417 C1433 1.349 . S
C1418 C1416 1.327 . S
C1418 C1437 1.429 . S
C1418 H1442 0.950 . S
C1419 C1436 1.574 . S
C1419 C1438 1.368 . S
C1419 H1443 0.949 . S
H1420 C1424 0.949 . S
C1421 C1422 1.349 . S
C1421 C1423 1.327 . S
C1421 H1444 0.950 . S
C1422 C1421 1.349 . S
C1422 C1434 1.349 . S
C1423 C1421 1.327 . S
C1423 C1439 1.429 . S
C1423 H1445 0.950 . S
C1424 H1420 0.949 . S
C1424 C1432 1.574 . S
C1424 C1440 1.368 . S
H1425 C1433 0.950 . S
H1426 C1431 0.950 . S
H1427 C1432 0.949 . S
H1428 C1434 0.950 . S
H1429 C1435 0.950 . S
H1430 C1436 0.949 . S
C1431 H1426 0.950 . S
C1431 C1433 1.327 . S
C1431 C1437 1.429 . S
C1432 C1424 1.574 . S
C1432 H1427 0.949 . S
C1432 C1438 1.368 . S
C1433 C1417 1.349 . S
C1433 H1425 0.950 . S
C1433 C1431 1.327 . S
C1434 C1422 1.349 . S
C1434 H1428 0.950 . S
C1434 C1435 1.327 . S
C1435 H1429 0.950 . S
C1435 C1434 1.327 . S
C1435 C1439 1.429 . S
C1436 C1419 1.574 . S
C1436 H1430 0.949 . S
C1436 C1440 1.368 . S
C1437 C1418 1.429 . S
C1437 C1431 1.429 . S
C1437 C1438 1.523 . S
C1438 C1419 1.368 . S
C1438 C1432 1.368 . S
C1438 C1437 1.523 . S
C1439 C1423 1.429 . S
C1439 C1435 1.429 . S
C1439 C1440 1.523 . S
C1440 C1424 1.368 . S
C1440 C1436 1.368 . S
C1440 C1439 1.523 . S
H1441 C1416 0.950 . S
H1442 C1418 0.950 . S
H1443 C1419 0.949 . S
H1444 C1421 0.950 . S
H1445 C1423 0.950 . S
C1446 C1447 1.349 . S
C1446 C1448 1.327 . S
C1446 H1471 0.950 . S
C1447 C1446 1.349 . S
C1447 C1463 1.349 1_556 S
C1448 C1446 1.327 . S
C1448 C1467 1.429 . S
C1448 H1472 0.950 . S
C1449 C1466 1.574 . S
C1449 C1468 1.368 . S
C1449 H1473 1.001 . S
H1450 C1454 0.949 . S
C1451 C1452 1.349 . S
C1451 C1453 1.327 . S
C1451 H1474 0.950 . S
C1452 C1451 1.349 . S
C1452 C1464 1.349 . S
C1453 C1451 1.327 . S
C1453 C1469 1.429 . S
C1453 H1475 0.950 . S
C1454 H1450 0.949 . S
C1454 C1462 1.574 . S
C1454 C1470 1.368 . S
H1455 C1463 0.950 . S
H1456 C1461 0.924 1_554 S
H1457 C1462 0.949 . S
H1458 C1464 0.950 . S
H1459 C1465 0.950 . S
H1460 C1466 0.949 . S
C1461 H1456 0.924 1_556 S
C1461 C1463 1.319 1_556 S
C1461 C1467 1.463 . S
C1462 C1454 1.574 . S
C1462 H1457 0.949 . S
C1462 C1468 1.368 . S
C1463 C1447 1.349 1_554 S
C1463 H1455 0.950 . S
C1463 C1461 1.319 1_554 S
C1464 C1452 1.349 . S
C1464 H1458 0.950 . S
C1464 C1465 1.327 . S
C1465 H1459 0.950 . S
C1465 C1464 1.327 . S
C1465 C1469 1.429 . S
C1466 C1449 1.574 . S
C1466 H1460 0.949 . S
C1466 C1470 1.368 . S
C1467 C1448 1.429 . S
C1467 C1461 1.463 . S
C1467 C1468 1.523 . S
C1468 C1449 1.368 . S
C1468 C1462 1.368 . S
C1468 C1467 1.523 . S
C1469 C1453 1.429 . S
C1469 C1465 1.429 . S
C1469 C1470 1.523 . S
C1470 C1454 1.368 . S
C1470 C1466 1.368 . S
C1470 C1469 1.523 . S
H1471 C1446 0.950 . S
H1472 C1448 0.950 . S
H1473 C1449 1.001 . S
H1474 C1451 0.950 . S
H1475 C1453 0.950 . S
C1476 C1477 1.349 . S
C1476 C1478 1.327 . S
C1476 H1501 0.950 . S
C1477 C1476 1.349 . S
C1477 C1493 1.349 . S
C1478 C1476 1.327 . S
C1478 C1497 1.429 . S
C1478 H1502 0.950 . S
C1479 C1496 1.574 . S
C1479 C1498 1.368 . S
C1479 H1503 0.949 . S
H1480 C1484 0.949 . S
C1481 C1482 1.349 . S
C1481 C1483 1.327 . S
C1481 H1504 0.950 . S
C1482 C1481 1.349 . S
C1482 C1494 1.349 . S
C1483 C1481 1.327 . S
C1483 C1499 1.429 . S
C1483 H1505 0.950 . S
C1484 H1480 0.949 . S
C1484 C1492 1.574 . S
C1484 C1500 1.368 . S
H1485 C1493 0.950 . S
H1486 C1491 0.950 . S
H1487 C1492 0.949 . S
H1488 C1494 0.950 . S
H1489 C1495 0.950 . S
H1490 C1496 0.949 . S
C1491 H1486 0.950 . S
C1491 C1493 1.327 . S
C1491 C1497 1.429 . S
C1492 C1484 1.574 . S
C1492 H1487 0.949 . S
C1492 C1498 1.368 . S
C1493 C1477 1.349 . S
C1493 H1485 0.950 . S
C1493 C1491 1.327 . S
C1494 C1482 1.349 . S
C1494 H1488 0.950 . S
C1494 C1495 1.327 . S
C1495 H1489 0.950 . S
C1495 C1494 1.327 . S
C1495 C1499 1.429 . S
C1496 C1479 1.574 . S
C1496 H1490 0.949 . S
C1496 C1500 1.368 . S
C1497 C1478 1.429 . S
C1497 C1491 1.429 . S
C1497 C1498 1.523 . S
C1498 C1479 1.368 . S
C1498 C1492 1.368 . S
C1498 C1497 1.523 . S
C1499 C1483 1.429 . S
C1499 C1495 1.429 . S
C1499 C1500 1.523 . S
C1500 C1484 1.368 . S
C1500 C1496 1.368 . S
C1500 C1499 1.523 . S
H1501 C1476 0.950 . S
H1502 C1478 0.950 . S
H1503 C1479 0.949 . S
H1504 C1481 0.950 . S
H1505 C1483 0.950 . S
C1506 C1507 1.349 1_554 S
C1506 C1508 1.327 . S
C1506 H1531 0.950 . S
C1507 C1506 1.349 1_556 S
C1507 C1523 1.349 . S
C1508 C1506 1.327 . S
C1508 C1527 1.429 . S
C1508 H1532 0.950 . S
C1509 C1526 1.574 . S
C1509 C1528 1.368 1_556 S
C1509 H1533 0.949 . S
H1510 C1514 0.949 . S
C1511 C1512 1.349 . S
C1511 C1513 1.327 . S
C1511 H1534 0.950 1_554 S
C1512 C1511 1.349 . S
C1512 C1524 1.349 . S
C1513 C1511 1.327 . S
C1513 C1529 1.429 . S
C1513 H1535 0.950 1_554 S
C1514 H1510 0.949 . S
C1514 C1522 1.574 . S
C1514 C1530 1.368 . S
H1515 C1523 0.950 . S
H1516 C1521 0.950 . S
H1517 C1522 0.949 . S
H1518 C1524 0.950 . S
H1519 C1525 0.950 . S
H1520 C1526 0.949 . S
C1521 H1516 0.950 . S
C1521 C1523 1.327 . S
C1521 C1527 1.429 1_556 S
C1522 C1514 1.574 . S
C1522 H1517 0.949 . S
C1522 C1528 1.368 . S
C1523 C1507 1.349 . S
C1523 H1515 0.950 . S
C1523 C1521 1.327 . S
C1524 C1512 1.349 . S
C1524 H1518 0.950 . S
C1524 C1525 1.327 . S
C1525 H1519 0.950 . S
C1525 C1524 1.327 . S
C1525 C1529 1.429 . S
C1526 C1509 1.574 . S
C1526 H1520 0.949 . S
C1526 C1530 1.368 1_556 S
C1527 C1508 1.429 . S
C1527 C1521 1.429 1_554 S
C1527 C1528 1.523 . S
C1528 C1509 1.368 1_554 S
C1528 C1522 1.368 . S
C1528 C1527 1.523 . S
C1529 C1513 1.429 . S
C1529 C1525 1.429 . S
C1529 C1530 1.523 . S
C1530 C1514 1.368 . S
C1530 C1526 1.368 1_554 S
C1530 C1529 1.523 . S
H1531 C1506 0.950 . S
H1532 C1508 0.950 . S
H1533 C1509 0.949 . S
H1534 C1511 0.950 1_556 S
H1535 C1513 0.950 1_556 S
C1536 C1537 1.349 . S
C1536 C1538 1.327 . S
C1536 H1561 0.950 . S
C1537 C1536 1.349 . S
C1537 C1553 1.349 . S
C1538 C1536 1.327 . S
C1538 C1557 1.429 . S
C1538 H1562 0.950 . S
C1539 C1556 1.574 . S
C1539 C1558 1.368 . S
C1539 H1563 0.949 . S
H1540 C1544 0.949 . S
C1541 C1542 1.349 . S
C1541 C1543 1.327 . S
C1541 H1564 0.950 . S
C1542 C1541 1.349 . S
C1542 C1554 1.349 . S
C1543 C1541 1.327 . S
C1543 C1559 1.429 . S
C1543 H1565 0.950 . S
C1544 H1540 0.949 . S
C1544 C1552 1.574 . S
C1544 C1560 1.368 . S
H1545 C1553 0.950 . S
H1546 C1551 0.950 . S
H1547 C1552 0.949 . S
H1548 C1554 0.950 . S
H1549 C1555 0.950 . S
H1550 C1556 0.949 . S
C1551 H1546 0.950 . S
C1551 C1553 1.327 . S
C1551 C1557 1.429 . S
C1552 C1544 1.574 . S
C1552 H1547 0.949 . S
C1552 C1558 1.368 . S
C1553 C1537 1.349 . S
C1553 H1545 0.950 . S
C1553 C1551 1.327 . S
C1554 C1542 1.349 . S
C1554 H1548 0.950 . S
C1554 C1555 1.327 . S
C1555 H1549 0.950 . S
C1555 C1554 1.327 . S
C1555 C1559 1.429 . S
C1556 C1539 1.574 . S
C1556 H1550 0.949 . S
C1556 C1560 1.368 . S
C1557 C1538 1.429 . S
C1557 C1551 1.429 . S
C1557 C1558 1.523 . S
C1558 C1539 1.368 . S
C1558 C1552 1.368 . S
C1558 C1557 1.523 . S
C1559 C1543 1.429 . S
C1559 C1555 1.429 . S
C1559 C1560 1.523 . S
C1560 C1544 1.368 . S
C1560 C1556 1.368 . S
C1560 C1559 1.523 . S
H1561 C1536 0.950 . S
H1562 C1538 0.950 . S
H1563 C1539 0.949 . S
H1564 C1541 0.950 . S
H1565 C1543 0.950 . S
C1566 C1567 1.355 . S
C1566 C1568 1.331 . S
C1566 H1591 0.940 1_655 S
C1567 C1566 1.355 . S
C1567 C1583 1.349 . S
C1568 C1566 1.331 . S
C1568 C1587 1.429 . S
C1568 H1592 0.950 . S
C1569 C1586 1.574 . S
C1569 C1588 1.368 . S
C1569 H1593 0.949 . S
H1570 C1574 0.949 . S
C1571 C1572 1.349 . S
C1571 C1573 1.327 . S
C1571 H1594 0.950 . S
C1572 C1571 1.349 . S
C1572 C1584 1.349 . S
C1573 C1571 1.327 . S
C1573 C1589 1.429 . S
C1573 H1595 0.950 . S
C1574 H1570 0.949 . S
C1574 C1582 1.574 . S
C1574 C1590 1.368 . S
H1575 C1583 0.950 . S
H1576 C1581 0.950 . S
H1577 C1582 0.949 . S
H1578 C1584 0.950 . S
H1579 C1585 0.950 . S
H1580 C1586 0.949 . S
C1581 H1576 0.950 . S
C1581 C1583 1.327 . S
C1581 C1587 1.429 . S
C1582 C1574 1.574 . S
C1582 H1577 0.949 . S
C1582 C1588 1.368 . S
C1583 C1567 1.349 . S
C1583 H1575 0.950 . S
C1583 C1581 1.327 . S
C1584 C1572 1.349 . S
C1584 H1578 0.950 . S
C1584 C1585 1.327 . S
C1585 H1579 0.950 . S
C1585 C1584 1.327 . S
C1585 C1589 1.429 . S
C1586 C1569 1.574 . S
C1586 H1580 0.949 . S
C1586 C1590 1.368 . S
C1587 C1568 1.429 . S
C1587 C1581 1.429 . S
C1587 C1588 1.523 . S
C1588 C1569 1.368 . S
C1588 C1582 1.368 . S
C1588 C1587 1.523 . S
C1589 C1573 1.429 . S
C1589 C1585 1.429 . S
C1589 C1590 1.523 . S
C1590 C1574 1.368 . S
C1590 C1586 1.368 . S
C1590 C1589 1.523 . S
H1591 C1566 0.940 1_455 S
H1592 C1568 0.950 . S
H1593 C1569 0.949 . S
H1594 C1571 0.950 . S
H1595 C1573 0.950 . S
C1596 C1597 1.349 . S
C1596 C1598 1.327 . S
C1596 H1621 0.950 . S
C1597 C1596 1.349 . S
C1597 C1613 1.349 . S
C1598 C1596 1.327 . S
C1598 C1617 1.429 . S
C1598 H1622 0.950 . S
C1599 C1616 1.574 . S
C1599 C1618 1.368 . S
C1599 H1623 0.949 . S
H1600 C1604 0.949 . S
C1601 C1602 1.349 . S
C1601 C1603 1.327 . S
C1601 H1624 0.950 . S
C1602 C1601 1.349 . S
C1602 C1614 1.349 . S
C1603 C1601 1.327 . S
C1603 C1619 1.429 . S
C1603 H1625 0.950 . S
C1604 H1600 0.949 . S
C1604 C1612 1.574 . S
C1604 C1620 1.368 . S
H1605 C1613 0.950 . S
H1606 C1611 0.950 . S
H1607 C1612 0.949 . S
H1608 C1614 0.950 . S
H1609 C1615 0.950 . S
H1610 C1616 0.949 . S
C1611 H1606 0.950 . S
C1611 C1613 1.327 . S
C1611 C1617 1.429 . S
C1612 C1604 1.574 . S
C1612 H1607 0.949 . S
C1612 C1618 1.368 . S
C1613 C1597 1.349 . S
C1613 H1605 0.950 . S
C1613 C1611 1.327 . S
C1614 C1602 1.349 . S
C1614 H1608 0.950 . S
C1614 C1615 1.327 . S
C1615 H1609 0.950 . S
C1615 C1614 1.327 . S
C1615 C1619 1.429 . S
C1616 C1599 1.574 . S
C1616 H1610 0.949 . S
C1616 C1620 1.368 . S
C1617 C1598 1.429 . S
C1617 C1611 1.429 . S
C1617 C1618 1.523 . S
C1618 C1599 1.368 . S
C1618 C1612 1.368 . S
C1618 C1617 1.523 . S
C1619 C1603 1.429 . S
C1619 C1615 1.429 . S
C1619 C1620 1.523 . S
C1620 C1604 1.368 . S
C1620 C1616 1.368 . S
C1620 C1619 1.523 . S
H1621 C1596 0.950 . S
H1622 C1598 0.950 . S
H1623 C1599 0.949 . S
H1624 C1601 0.950 . S
H1625 C1603 0.950 . S
C1626 C1627 1.349 . S
C1626 C1628 1.327 . S
C1626 H1651 0.950 . S
C1627 C1626 1.349 . S
C1627 C1643 1.349 1_655 S
C1628 C1626 1.327 . S
C1628 C1647 1.429 1_655 S
C1628 H1652 0.950 . S
C1629 C1646 1.574 . S
C1629 C1648 1.368 . S
C1629 H1653 0.949 . S
H1630 C1634 0.950 1_655 S
C1631 C1632 1.349 . S
C1631 C1633 1.327 . S
C1631 H1654 0.950 . S
C1632 C1631 1.349 . S
C1632 C1644 1.349 . S
C1633 C1631 1.327 . S
C1633 C1649 1.429 . S
C1633 H1655 0.950 . S
C1634 H1630 0.950 1_455 S
C1634 C1642 1.574 1_455 S
C1634 C1650 1.367 . S
H1635 C1643 0.950 . S
H1636 C1641 0.950 . S
H1637 C1642 0.949 . S
H1638 C1644 0.950 . S
H1639 C1645 0.950 1_655 S
H1640 C1646 0.949 . S
C1641 H1636 0.950 . S
C1641 C1643 1.327 . S
C1641 C1647 1.429 . S
C1642 C1634 1.574 1_655 S
C1642 H1637 0.949 . S
C1642 C1648 1.368 1_655 S
C1643 C1627 1.349 1_455 S
C1643 H1635 0.950 . S
C1643 C1641 1.327 . S
C1644 C1632 1.349 . S
C1644 H1638 0.950 . S
C1644 C1645 1.327 . S
C1645 H1639 0.950 1_455 S
C1645 C1644 1.327 . S
C1645 C1649 1.429 . S
C1646 C1629 1.574 . S
C1646 H1640 0.949 . S
C1646 C1650 1.368 . S
C1647 C1628 1.429 1_455 S
C1647 C1641 1.429 . S
C1647 C1648 1.523 . S
C1648 C1629 1.368 . S
C1648 C1642 1.368 1_455 S
C1648 C1647 1.523 . S
C1649 C1633 1.429 . S
C1649 C1645 1.429 . S
C1649 C1650 1.523 . S
C1650 C1634 1.367 . S
C1650 C1646 1.368 . S
C1650 C1649 1.523 . S
H1651 C1626 0.950 . S
H1652 C1628 0.950 . S
H1653 C1629 0.949 . S
H1654 C1631 0.950 . S
H1655 C1633 0.950 . S
C1656 C1657 1.349 . S
C1656 C1658 1.327 . S
C1656 H1681 0.950 . S
C1657 C1656 1.349 . S
C1657 C1673 1.349 . S
C1658 C1656 1.327 . S
C1658 C1677 1.429 . S
C1658 H1682 0.950 . S
C1659 C1676 1.574 . S
C1659 C1678 1.368 . S
C1659 H1683 0.949 . S
H1660 C1664 0.949 . S
C1661 C1662 1.349 . S
C1661 C1663 1.327 . S
C1661 H1684 0.950 . S
C1662 C1661 1.349 . S
C1662 C1674 1.349 . S
C1663 C1661 1.327 . S
C1663 C1679 1.429 . S
C1663 H1685 0.950 . S
C1664 H1660 0.949 . S
C1664 C1672 1.574 . S
C1664 C1680 1.368 . S
H1665 C1673 0.950 . S
H1666 C1671 0.950 . S
H1667 C1672 0.949 . S
H1668 C1674 0.950 . S
H1669 C1675 0.950 . S
H1670 C1676 0.949 . S
C1671 H1666 0.950 . S
C1671 C1673 1.327 . S
C1671 C1677 1.429 . S
C1672 C1664 1.574 . S
C1672 H1667 0.949 . S
C1672 C1678 1.368 . S
C1673 C1657 1.349 . S
C1673 H1665 0.950 . S
C1673 C1671 1.327 . S
C1674 C1662 1.349 . S
C1674 H1668 0.950 . S
C1674 C1675 1.327 . S
C1675 H1669 0.950 . S
C1675 C1674 1.327 . S
C1675 C1679 1.429 . S
C1676 C1659 1.574 . S
C1676 H1670 0.949 . S
C1676 C1680 1.368 . S
C1677 C1658 1.429 . S
C1677 C1671 1.429 . S
C1677 C1678 1.523 . S
C1678 C1659 1.368 . S
C1678 C1672 1.368 . S
C1678 C1677 1.523 . S
C1679 C1663 1.429 . S
C1679 C1675 1.429 . S
C1679 C1680 1.523 . S
C1680 C1664 1.368 . S
C1680 C1676 1.368 . S
C1680 C1679 1.523 . S
H1681 C1656 0.950 . S
H1682 C1658 0.950 . S
H1683 C1659 0.949 . S
H1684 C1661 0.950 . S
H1685 C1663 0.950 . S
C1686 C1687 1.349 . S
C1686 C1688 1.327 . S
C1686 H1711 0.950 . S
C1687 C1686 1.349 . S
C1687 C1703 1.349 . S
C1688 C1686 1.327 . S
C1688 C1707 1.429 . S
C1688 H1712 0.950 . S
C1689 C1706 1.574 . S
C1689 C1708 1.368 . S
C1689 H1713 0.949 . S
H1690 C1694 0.949 . S
C1691 C1692 1.349 . S
C1691 C1693 1.327 . S
C1691 H1714 0.950 . S
C1692 C1691 1.349 . S
C1692 C1704 1.349 . S
C1693 C1691 1.327 . S
C1693 C1709 1.429 . S
C1693 H1715 0.950 . S
C1694 H1690 0.949 . S
C1694 C1702 1.574 . S
C1694 C1710 1.368 . S
H1695 C1703 0.950 . S
H1696 C1701 0.950 . S
H1697 C1702 0.949 . S
H1698 C1704 0.950 . S
H1699 C1705 0.950 . S
H1700 C1706 0.949 . S
C1701 H1696 0.950 . S
C1701 C1703 1.327 . S
C1701 C1707 1.429 . S
C1702 C1694 1.574 . S
C1702 H1697 0.949 . S
C1702 C1708 1.368 . S
C1703 C1687 1.349 . S
C1703 H1695 0.950 . S
C1703 C1701 1.327 . S
C1704 C1692 1.349 . S
C1704 H1698 0.950 . S
C1704 C1705 1.327 . S
C1705 H1699 0.950 . S
C1705 C1704 1.327 . S
C1705 C1709 1.429 . S
C1706 C1689 1.574 . S
C1706 H1700 0.949 . S
C1706 C1710 1.368 . S
C1707 C1688 1.429 . S
C1707 C1701 1.429 . S
C1707 C1708 1.523 . S
C1708 C1689 1.368 . S
C1708 C1702 1.368 . S
C1708 C1707 1.523 . S
C1709 C1693 1.429 . S
C1709 C1705 1.429 . S
C1709 C1710 1.523 . S
C1710 C1694 1.368 . S
C1710 C1706 1.368 . S
C1710 C1709 1.523 . S
H1711 C1686 0.950 . S
H1712 C1688 0.950 . S
H1713 C1689 0.949 . S
H1714 C1691 0.950 . S
H1715 C1693 0.950 . S
C1716 C1717 1.349 1_565 S
C1716 C1718 1.327 . S
C1716 H1741 0.950 . S
C1717 C1716 1.349 1_545 S
C1717 C1733 1.349 . S
C1718 C1716 1.327 . S
C1718 C1737 1.429 . S
C1718 H1742 0.950 . S
C1719 C1736 1.574 . S
C1719 C1738 1.368 1_545 S
C1719 H1743 0.949 . S
H1720 C1724 0.949 . S
C1721 C1722 1.349 . S
C1721 C1723 1.327 . S
C1721 H1744 0.939 1_565 S
C1722 C1721 1.349 . S
C1722 C1734 1.349 . S
C1723 C1721 1.327 . S
C1723 C1739 1.429 . S
C1723 H1745 0.950 1_565 S
C1724 H1720 0.949 . S
C1724 C1732 1.574 . S
C1724 C1740 1.368 . S
H1725 C1733 0.950 . S
H1726 C1731 0.950 . S
H1727 C1732 0.949 . S
H1728 C1734 0.950 . S
H1729 C1735 0.950 . S
H1730 C1736 0.949 . S
C1731 H1726 0.950 . S
C1731 C1733 1.327 . S
C1731 C1737 1.429 1_545 S
C1732 C1724 1.574 . S
C1732 H1727 0.949 . S
C1732 C1738 1.368 . S
C1733 C1717 1.349 . S
C1733 H1725 0.950 . S
C1733 C1731 1.327 . S
C1734 C1722 1.349 . S
C1734 H1728 0.950 . S
C1734 C1735 1.327 . S
C1735 H1729 0.950 . S
C1735 C1734 1.327 . S
C1735 C1739 1.429 . S
C1736 C1719 1.574 . S
C1736 H1730 0.949 . S
C1736 C1740 1.368 1_545 S
C1737 C1718 1.429 . S
C1737 C1731 1.429 1_565 S
C1737 C1738 1.523 . S
C1738 C1719 1.368 1_565 S
C1738 C1732 1.368 . S
C1738 C1737 1.523 . S
C1739 C1723 1.429 . S
C1739 C1735 1.429 . S
C1739 C1740 1.523 . S
C1740 C1724 1.368 . S
C1740 C1736 1.368 1_565 S
C1740 C1739 1.523 . S
H1741 C1716 0.950 . S
H1742 C1718 0.950 . S
H1743 C1719 0.949 . S
H1744 C1721 0.939 1_545 S
H1745 C1723 0.950 1_545 S
C1746 C1747 1.349 . S
C1746 C1748 1.327 . S
C1746 H1771 0.950 . S
C1747 C1746 1.349 . S
C1747 C1763 1.349 1_545 S
C1748 C1746 1.327 . S
C1748 C1767 1.429 . S
C1748 H1772 0.950 . S
C1749 C1766 1.574 . S
C1749 C1768 1.368 . S
C1749 H1773 0.949 . S
H1750 C1754 0.949 . S
C1751 C1752 1.349 . S
C1751 C1753 1.327 . S
C1751 H1774 0.950 . S
C1752 C1751 1.349 . S
C1752 C1764 1.349 . S
C1753 C1751 1.327 . S
C1753 C1769 1.429 . S
C1753 H1775 0.950 . S
C1754 H1750 0.949 . S
C1754 C1762 1.574 . S
C1754 C1770 1.368 . S
H1755 C1763 0.950 . S
H1756 C1761 0.950 1_565 S
H1757 C1762 0.949 . S
H1758 C1764 0.950 . S
H1759 C1765 0.950 . S
H1760 C1766 0.949 . S
C1761 H1756 0.950 1_545 S
C1761 C1763 1.327 1_545 S
C1761 C1767 1.429 . S
C1762 C1754 1.574 . S
C1762 H1757 0.949 . S
C1762 C1768 1.368 . S
C1763 C1747 1.349 1_565 S
C1763 H1755 0.950 . S
C1763 C1761 1.327 1_565 S
C1764 C1752 1.349 . S
C1764 H1758 0.950 . S
C1764 C1765 1.327 . S
C1765 H1759 0.950 . S
C1765 C1764 1.327 . S
C1765 C1769 1.429 . S
C1766 C1749 1.574 . S
C1766 H1760 0.949 . S
C1766 C1770 1.368 . S
C1767 C1748 1.429 . S
C1767 C1761 1.429 . S
C1767 C1768 1.523 . S
C1768 C1749 1.368 . S
C1768 C1762 1.368 . S
C1768 C1767 1.523 . S
C1769 C1753 1.429 . S
C1769 C1765 1.429 . S
C1769 C1770 1.523 . S
C1770 C1754 1.368 . S
C1770 C1766 1.368 . S
C1770 C1769 1.523 . S
H1771 C1746 0.950 . S
H1772 C1748 0.950 . S
H1773 C1749 0.949 . S
H1774 C1751 0.950 . S
H1775 C1753 0.950 . S
C1776 C1777 1.349 . S
C1776 C1778 1.327 . S
C1776 H1801 0.950 . S
C1777 C1776 1.349 . S
C1777 C1793 1.349 . S
C1778 C1776 1.327 . S
C1778 C1797 1.429 . S
C1778 H1802 0.950 . S
C1779 C1796 1.574 . S
C1779 C1798 1.368 . S
C1779 H1803 0.949 . S
H1780 C1784 0.949 . S
C1781 C1782 1.349 . S
C1781 C1783 1.327 . S
C1781 H1804 0.950 . S
C1782 C1781 1.349 . S
C1782 C1794 1.349 . S
C1783 C1781 1.327 . S
C1783 C1799 1.429 . S
C1783 H1805 0.950 . S
C1784 H1780 0.949 . S
C1784 C1792 1.574 . S
C1784 C1800 1.368 . S
H1785 C1793 0.950 . S
H1786 C1791 0.950 . S
H1787 C1792 0.949 . S
H1788 C1794 0.950 . S
H1789 C1795 0.950 . S
H1790 C1796 0.949 . S
C1791 H1786 0.950 . S
C1791 C1793 1.327 . S
C1791 C1797 1.429 . S
C1792 C1784 1.574 . S
C1792 H1787 0.949 . S
C1792 C1798 1.368 . S
C1793 C1777 1.349 . S
C1793 H1785 0.950 . S
C1793 C1791 1.327 . S
C1794 C1782 1.349 . S
C1794 H1788 0.950 . S
C1794 C1795 1.327 . S
C1795 H1789 0.950 . S
C1795 C1794 1.327 . S
C1795 C1799 1.429 . S
C1796 C1779 1.574 . S
C1796 H1790 0.949 . S
C1796 C1800 1.368 . S
C1797 C1778 1.429 . S
C1797 C1791 1.429 . S
C1797 C1798 1.523 . S
C1798 C1779 1.368 . S
C1798 C1792 1.368 . S
C1798 C1797 1.523 . S
C1799 C1783 1.429 . S
C1799 C1795 1.429 . S
C1799 C1800 1.523 . S
C1800 C1784 1.368 . S
C1800 C1796 1.368 . S
C1800 C1799 1.523 . S
H1801 C1776 0.950 . S
H1802 C1778 0.950 . S
H1803 C1779 0.949 . S
H1804 C1781 0.950 . S
H1805 C1783 0.950 . S
C1806 C1807 1.349 . S
C1806 C1808 1.327 . S
C1806 H1831 0.950 . S
C1807 C1806 1.349 . S
C1807 C1823 1.349 1_554 S
C1808 C1806 1.327 . S
C1808 C1827 1.429 . S
C1808 H1832 0.950 . S
C1809 C1826 1.574 . S
C1809 C1828 1.368 . S
C1809 H1833 0.949 . S
H1810 C1814 0.949 . S
C1811 C1812 1.349 . S
C1811 C1813 1.327 . S
C1811 H1834 0.950 . S
C1812 C1811 1.349 . S
C1812 C1824 1.349 . S
C1813 C1811 1.327 . S
C1813 C1829 1.429 . S
C1813 H1835 0.950 . S
C1814 H1810 0.949 . S
C1814 C1822 1.574 . S
C1814 C1830 1.368 . S
H1815 C1823 0.950 . S
H1816 C1821 0.950 1_556 S
H1817 C1822 0.949 . S
H1818 C1824 0.950 . S
H1819 C1825 0.950 . S
H1820 C1826 0.949 . S
C1821 H1816 0.950 1_554 S
C1821 C1823 1.327 1_554 S
C1821 C1827 1.429 . S
C1822 C1814 1.574 . S
C1822 H1817 0.949 . S
C1822 C1828 1.368 . S
C1823 C1807 1.349 1_556 S
C1823 H1815 0.950 . S
C1823 C1821 1.327 1_556 S
C1824 C1812 1.349 . S
C1824 H1818 0.950 . S
C1824 C1825 1.327 . S
C1825 H1819 0.950 . S
C1825 C1824 1.327 . S
C1825 C1829 1.429 . S
C1826 C1809 1.574 . S
C1826 H1820 0.949 . S
C1826 C1830 1.368 . S
C1827 C1808 1.429 . S
C1827 C1821 1.429 . S
C1827 C1828 1.523 . S
C1828 C1809 1.368 . S
C1828 C1822 1.368 . S
C1828 C1827 1.523 . S
C1829 C1813 1.429 . S
C1829 C1825 1.429 . S
C1829 C1830 1.523 . S
C1830 C1814 1.368 . S
C1830 C1826 1.368 . S
C1830 C1829 1.523 . S
H1831 C1806 0.950 . S
H1832 C1808 0.950 . S
H1833 C1809 0.949 . S
H1834 C1811 0.950 . S
H1835 C1813 0.950 . S
C1836 C1837 1.349 . S
C1836 C1838 1.327 . S
C1836 H1861 0.950 . S
C1837 C1836 1.349 . S
C1837 C1853 1.349 . S
C1838 C1836 1.327 . S
C1838 C1857 1.429 . S
C1838 H1862 0.950 . S
C1839 C1856 1.574 . S
C1839 C1858 1.368 . S
C1839 H1863 0.949 . S
H1840 C1844 0.949 . S
C1841 C1842 1.349 . S
C1841 C1843 1.327 . S
C1841 H1864 0.950 . S
C1842 C1841 1.349 . S
C1842 C1854 1.349 . S
C1843 C1841 1.327 . S
C1843 C1859 1.429 . S
C1843 H1865 0.950 . S
C1844 H1840 0.949 . S
C1844 C1852 1.574 . S
C1844 C1860 1.368 . S
H1845 C1853 0.950 . S
H1846 C1851 0.950 . S
H1847 C1852 0.949 . S
H1848 C1854 0.950 . S
H1849 C1855 0.950 . S
H1850 C1856 0.949 . S
C1851 H1846 0.950 . S
C1851 C1853 1.327 . S
C1851 C1857 1.429 . S
C1852 C1844 1.574 . S
C1852 H1847 0.949 . S
C1852 C1858 1.368 . S
C1853 C1837 1.349 . S
C1853 H1845 0.950 . S
C1853 C1851 1.327 . S
C1854 C1842 1.349 . S
C1854 H1848 0.950 . S
C1854 C1855 1.327 . S
C1855 H1849 0.950 . S
C1855 C1854 1.327 . S
C1855 C1859 1.429 . S
C1856 C1839 1.574 . S
C1856 H1850 0.949 . S
C1856 C1860 1.368 . S
C1857 C1838 1.429 . S
C1857 C1851 1.429 . S
C1857 C1858 1.523 . S
C1858 C1839 1.368 . S
C1858 C1852 1.368 . S
C1858 C1857 1.523 . S
C1859 C1843 1.429 . S
C1859 C1855 1.429 . S
C1859 C1860 1.523 . S
C1860 C1844 1.368 . S
C1860 C1856 1.368 . S
C1860 C1859 1.523 . S
H1861 C1836 0.950 . S
H1862 C1838 0.950 . S
H1863 C1839 0.949 . S
H1864 C1841 0.950 . S
H1865 C1843 0.950 . S
C1866 C1867 1.349 . S
C1866 C1868 1.327 . S
C1866 H1891 0.950 . S
C1867 C1866 1.349 . S
C1867 C1883 1.349 1_554 S
C1868 C1866 1.327 . S
C1868 C1887 1.429 1_554 S
C1868 H1892 0.950 . S
C1869 C1886 1.574 . S
C1869 C1888 1.368 . S
C1869 H1893 0.949 . S
H1870 C1874 0.950 1_554 S
C1871 C1872 1.349 . S
C1871 C1873 1.327 . S
C1871 H1894 0.950 . S
C1872 C1871 1.349 . S
C1872 C1884 1.349 . S
C1873 C1871 1.327 . S
C1873 C1889 1.429 . S
C1873 H1895 0.950 . S
C1874 H1870 0.950 1_556 S
C1874 C1882 1.574 1_556 S
C1874 C1890 1.368 . S
H1875 C1883 0.950 . S
H1876 C1881 0.950 . S
H1877 C1882 0.949 . S
H1878 C1884 0.950 . S
H1879 C1885 0.950 1_554 S
H1880 C1886 0.949 . S
C1881 H1876 0.950 . S
C1881 C1883 1.327 . S
C1881 C1887 1.429 . S
C1882 C1874 1.574 1_554 S
C1882 H1877 0.949 . S
C1882 C1888 1.368 1_554 S
C1883 C1867 1.349 1_556 S
C1883 H1875 0.950 . S
C1883 C1881 1.327 . S
C1884 C1872 1.349 . S
C1884 H1878 0.950 . S
C1884 C1885 1.327 . S
C1885 H1879 0.950 1_556 S
C1885 C1884 1.327 . S
C1885 C1889 1.429 . S
C1886 C1869 1.574 . S
C1886 H1880 0.949 . S
C1886 C1890 1.368 . S
C1887 C1868 1.429 1_556 S
C1887 C1881 1.429 . S
C1887 C1888 1.523 . S
C1888 C1869 1.368 . S
C1888 C1882 1.368 1_556 S
C1888 C1887 1.523 . S
C1889 C1873 1.429 . S
C1889 C1885 1.429 . S
C1889 C1890 1.523 . S
C1890 C1874 1.368 . S
C1890 C1886 1.368 . S
C1890 C1889 1.523 . S
H1891 C1866 0.950 . S
H1892 C1868 0.950 . S
H1893 C1869 0.949 . S
H1894 C1871 0.950 . S
H1895 C1873 0.950 . S
C1896 C1897 1.349 . S
C1896 C1898 1.327 . S
C1896 H1921 0.950 . S
C1897 C1896 1.349 . S
C1897 C1913 1.349 . S
C1898 C1896 1.327 . S
C1898 C1917 1.429 . S
C1898 H1922 0.950 . S
C1899 C1916 1.574 . S
C1899 C1918 1.368 . S
C1899 H1923 0.949 . S
H1900 C1904 0.949 . S
C1901 C1902 1.349 . S
C1901 C1903 1.327 . S
C1901 H1924 0.950 . S
C1902 C1901 1.349 . S
C1902 C1914 1.349 . S
C1903 C1901 1.327 . S
C1903 C1919 1.429 . S
C1903 H1925 0.950 . S
C1904 H1900 0.949 . S
C1904 C1912 1.574 . S
C1904 C1920 1.368 . S
H1905 C1913 0.950 . S
H1906 C1911 0.950 . S
H1907 C1912 0.949 . S
H1908 C1914 0.950 . S
H1909 C1915 0.950 . S
H1910 C1916 0.949 . S
C1911 H1906 0.950 . S
C1911 C1913 1.327 . S
C1911 C1917 1.429 . S
C1912 C1904 1.574 . S
C1912 H1907 0.949 . S
C1912 C1918 1.368 . S
C1913 C1897 1.349 . S
C1913 H1905 0.950 . S
C1913 C1911 1.327 . S
C1914 C1902 1.349 . S
C1914 H1908 0.950 . S
C1914 C1915 1.327 . S
C1915 H1909 0.950 . S
C1915 C1914 1.327 . S
C1915 C1919 1.429 . S
C1916 C1899 1.574 . S
C1916 H1910 0.949 . S
C1916 C1920 1.368 . S
C1917 C1898 1.429 . S
C1917 C1911 1.429 . S
C1917 C1918 1.523 . S
C1918 C1899 1.368 . S
C1918 C1912 1.368 . S
C1918 C1917 1.523 . S
C1919 C1903 1.429 . S
C1919 C1915 1.429 . S
C1919 C1920 1.523 . S
C1920 C1904 1.368 . S
C1920 C1916 1.368 . S
C1920 C1919 1.523 . S
H1921 C1896 0.950 . S
H1922 C1898 0.950 . S
H1923 C1899 0.949 . S
H1924 C1901 0.950 . S
H1925 C1903 0.950 . S
C1926 C1927 1.349 1_655 S
C1926 C1928 1.327 1_655 S
C1926 H1951 0.950 . S
C1927 C1926 1.349 1_455 S
C1927 C1943 1.349 . S
C1928 C1926 1.327 1_455 S
C1928 C1947 1.429 . S
C1928 H1952 0.950 1_455 S
C1929 C1946 1.574 . S
C1929 C1948 1.368 . S
C1929 H1953 0.949 . S
H1930 C1934 0.949 . S
C1931 C1932 1.349 . S
C1931 C1933 1.327 . S
C1931 H1954 0.950 . S
C1932 C1931 1.349 . S
C1932 C1944 1.349 . S
C1933 C1931 1.327 . S
C1933 C1949 1.429 . S
C1933 H1955 0.950 . S
C1934 H1930 0.949 . S
C1934 C1942 1.574 . S
C1934 C1950 1.368 . S
H1935 C1943 0.950 . S
H1936 C1941 0.950 . S
H1937 C1942 0.949 . S
H1938 C1944 0.950 . S
H1939 C1945 0.950 . S
H1940 C1946 0.949 . S
C1941 H1936 0.950 . S
C1941 C1943 1.327 . S
C1941 C1947 1.429 . S
C1942 C1934 1.574 . S
C1942 H1937 0.949 . S
C1942 C1948 1.368 . S
C1943 C1927 1.349 . S
C1943 H1935 0.950 . S
C1943 C1941 1.327 . S
C1944 C1932 1.349 . S
C1944 H1938 0.950 . S
C1944 C1945 1.327 . S
C1945 H1939 0.950 . S
C1945 C1944 1.327 . S
C1945 C1949 1.429 . S
C1946 C1929 1.574 . S
C1946 H1940 0.949 . S
C1946 C1950 1.368 . S
C1947 C1928 1.429 . S
C1947 C1941 1.429 . S
C1947 C1948 1.523 . S
C1948 C1929 1.368 . S
C1948 C1942 1.368 . S
C1948 C1947 1.523 . S
C1949 C1933 1.429 . S
C1949 C1945 1.429 . S
C1949 C1950 1.523 . S
C1950 C1934 1.368 . S
C1950 C1946 1.368 . S
C1950 C1949 1.523 . S
H1951 C1926 0.950 . S
H1952 C1928 0.950 1_655 S
H1953 C1929 0.949 . S
H1954 C1931 0.950 . S
H1955 C1933 0.950 . S
C1956 C1957 1.349 . S
C1956 C1958 1.327 . S
C1956 H1981 0.950 . S
C1957 C1956 1.349 . S
C1957 C1973 1.349 . S
C1958 C1956 1.327 . S
C1958 C1977 1.429 . S
C1958 H1982 0.950 . S
C1959 C1976 1.574 . S
C1959 C1978 1.368 . S
C1959 H1983 0.949 . S
H1960 C1964 0.949 . S
C1961 C1962 1.349 . S
C1961 C1963 1.327 . S
C1961 H1984 0.950 . S
C1962 C1961 1.349 . S
C1962 C1974 1.349 . S
C1963 C1961 1.327 . S
C1963 C1979 1.429 . S
C1963 H1985 0.950 . S
C1964 H1960 0.949 . S
C1964 C1972 1.574 . S
C1964 C1980 1.368 . S
H1965 C1973 0.950 . S
H1966 C1971 0.950 . S
H1967 C1972 0.949 . S
H1968 C1974 0.950 . S
H1969 C1975 0.950 . S
H1970 C1976 0.949 . S
C1971 H1966 0.950 . S
C1971 C1973 1.327 . S
C1971 C1977 1.429 . S
C1972 C1964 1.574 . S
C1972 H1967 0.949 . S
C1972 C1978 1.368 . S
C1973 C1957 1.349 . S
C1973 H1965 0.950 . S
C1973 C1971 1.327 . S
C1974 C1962 1.349 . S
C1974 H1968 0.950 . S
C1974 C1975 1.327 . S
C1975 H1969 0.950 . S
C1975 C1974 1.327 . S
C1975 C1979 1.429 . S
C1976 C1959 1.574 . S
C1976 H1970 0.949 . S
C1976 C1980 1.368 . S
C1977 C1958 1.429 . S
C1977 C1971 1.429 . S
C1977 C1978 1.523 . S
C1978 C1959 1.368 . S
C1978 C1972 1.368 . S
C1978 C1977 1.523 . S
C1979 C1963 1.429 . S
C1979 C1975 1.429 . S
C1979 C1980 1.523 . S
C1980 C1964 1.368 . S
C1980 C1976 1.368 . S
C1980 C1979 1.523 . S
H1981 C1956 0.950 . S
H1982 C1958 0.950 . S
H1983 C1959 0.949 . S
H1984 C1961 0.950 . S
H1985 C1963 0.950 . S
C1986 C1987 1.349 1_655 S
C1986 C1988 1.327 . S
C1986 H2011 0.950 . S
C1987 C1986 1.349 1_455 S
C1987 C2003 1.349 . S
C1988 C1986 1.327 . S
C1988 C2007 1.429 . S
C1988 H2012 0.950 . S
C1989 C2006 1.574 . S
C1989 C2008 1.368 1_455 S
C1989 H2013 0.949 . S
H1990 C1994 0.949 . S
C1991 C1992 1.349 . S
C1991 C1993 1.327 . S
C1991 H2014 0.927 1_655 S
C1992 C1991 1.349 . S
C1992 C2004 1.349 . S
C1993 C1991 1.327 . S
C1993 C2009 1.429 . S
C1993 H2015 0.950 1_655 S
C1994 H1990 0.949 . S
C1994 C2002 1.574 . S
C1994 C2010 1.368 . S
H1995 C2003 0.950 . S
H1996 C2001 0.950 . S
H1997 C2002 0.949 . S
H1998 C2004 0.950 . S
H1999 C2005 0.950 . S
H2000 C2006 0.949 . S
C2001 H1996 0.950 . S
C2001 C2003 1.327 . S
C2001 C2007 1.429 1_455 S
C2002 C1994 1.574 . S
C2002 H1997 0.949 . S
C2002 C2008 1.368 . S
C2003 C1987 1.349 . S
C2003 H1995 0.950 . S
C2003 C2001 1.327 . S
C2004 C1992 1.349 . S
C2004 H1998 0.950 . S
C2004 C2005 1.327 . S
C2005 H1999 0.950 . S
C2005 C2004 1.327 . S
C2005 C2009 1.429 . S
C2006 C1989 1.574 . S
C2006 H2000 0.949 . S
C2006 C2010 1.368 1_455 S
C2007 C1988 1.429 . S
C2007 C2001 1.429 1_655 S
C2007 C2008 1.523 . S
C2008 C1989 1.368 1_655 S
C2008 C2002 1.368 . S
C2008 C2007 1.523 . S
C2009 C1993 1.429 . S
C2009 C2005 1.429 . S
C2009 C2010 1.523 . S
C2010 C1994 1.368 . S
C2010 C2006 1.368 1_655 S
C2010 C2009 1.523 . S
H2011 C1986 0.950 . S
H2012 C1988 0.950 . S
H2013 C1989 0.949 . S
H2014 C1991 0.927 1_455 S
H2015 C1993 0.950 1_455 S
C2016 C2017 1.349 . S
C2016 C2018 1.327 . S
C2016 H2041 0.950 . S
C2017 C2016 1.349 . S
C2017 C2033 1.349 . S
C2018 C2016 1.327 . S
C2018 C2037 1.429 . S
C2018 H2042 0.950 . S
C2019 C2036 1.574 . S
C2019 C2038 1.368 . S
C2019 H2043 0.949 . S
H2020 C2024 0.949 . S
C2021 C2022 1.349 . S
C2021 C2023 1.327 . S
C2021 H2044 0.950 . S
C2022 C2021 1.349 . S
C2022 C2034 1.349 . S
C2023 C2021 1.327 . S
C2023 C2039 1.429 . S
C2023 H2045 0.950 . S
C2024 H2020 0.949 . S
C2024 C2032 1.574 . S
C2024 C2040 1.368 . S
H2025 C2033 0.950 . S
H2026 C2031 0.950 . S
H2027 C2032 0.949 . S
H2028 C2034 0.950 . S
H2029 C2035 0.950 . S
H2030 C2036 0.949 . S
C2031 H2026 0.950 . S
C2031 C2033 1.327 . S
C2031 C2037 1.429 . S
C2032 C2024 1.574 . S
C2032 H2027 0.949 . S
C2032 C2038 1.368 . S
C2033 C2017 1.349 . S
C2033 H2025 0.950 . S
C2033 C2031 1.327 . S
C2034 C2022 1.349 . S
C2034 H2028 0.950 . S
C2034 C2035 1.327 . S
C2035 H2029 0.950 . S
C2035 C2034 1.327 . S
C2035 C2039 1.429 . S
C2036 C2019 1.574 . S
C2036 H2030 0.949 . S
C2036 C2040 1.368 . S
C2037 C2018 1.429 . S
C2037 C2031 1.429 . S
C2037 C2038 1.523 . S
C2038 C2019 1.368 . S
C2038 C2032 1.368 . S
C2038 C2037 1.523 . S
C2039 C2023 1.429 . S
C2039 C2035 1.429 . S
C2039 C2040 1.523 . S
C2040 C2024 1.368 . S
C2040 C2036 1.368 . S
C2040 C2039 1.523 . S
H2041 C2016 0.950 . S
H2042 C2018 0.950 . S
H2043 C2019 0.949 . S
H2044 C2021 0.950 . S
H2045 C2023 0.950 . S
C2046 C2047 1.349 . S
C2046 C2048 1.327 . S
C2046 H2071 0.950 . S
C2047 C2046 1.349 . S
C2047 C2063 1.349 . S
C2048 C2046 1.327 . S
C2048 C2067 1.429 . S
C2048 H2072 0.950 . S
C2049 C2066 1.574 . S
C2049 C2068 1.368 . S
C2049 H2073 0.949 . S
H2050 C2054 0.949 . S
C2051 C2052 1.349 . S
C2051 C2053 1.327 . S
C2051 H2074 0.950 . S
C2052 C2051 1.349 . S
C2052 C2064 1.349 . S
C2053 C2051 1.327 . S
C2053 C2069 1.429 . S
C2053 H2075 0.950 . S
C2054 H2050 0.949 . S
C2054 C2062 1.574 . S
C2054 C2070 1.368 . S
H2055 C2063 0.950 . S
H2056 C2061 0.950 . S
H2057 C2062 0.949 . S
H2058 C2064 0.950 . S
H2059 C2065 0.950 . S
H2060 C2066 0.949 . S
C2061 H2056 0.950 . S
C2061 C2063 1.327 . S
C2061 C2067 1.429 . S
C2062 C2054 1.574 . S
C2062 H2057 0.949 . S
C2062 C2068 1.368 . S
C2063 C2047 1.349 . S
C2063 H2055 0.950 . S
C2063 C2061 1.327 . S
C2064 C2052 1.349 . S
C2064 H2058 0.950 . S
C2064 C2065 1.327 . S
C2065 H2059 0.950 . S
C2065 C2064 1.327 . S
C2065 C2069 1.429 . S
C2066 C2049 1.574 . S
C2066 H2060 0.949 . S
C2066 C2070 1.368 . S
C2067 C2048 1.429 . S
C2067 C2061 1.429 . S
C2067 C2068 1.523 . S
C2068 C2049 1.368 . S
C2068 C2062 1.368 . S
C2068 C2067 1.523 . S
C2069 C2053 1.429 . S
C2069 C2065 1.429 . S
C2069 C2070 1.523 . S
C2070 C2054 1.368 . S
C2070 C2066 1.368 . S
C2070 C2069 1.523 . S
H2071 C2046 0.950 . S
H2072 C2048 0.950 . S
H2073 C2049 0.949 . S
H2074 C2051 0.950 . S
H2075 C2053 0.950 . S
C2076 C2077 1.338 1_565 S
C2076 C2078 1.327 . S
C2076 H2101 0.950 . S
C2077 C2076 1.338 1_545 S
C2077 C2093 1.361 . S
C2078 C2076 1.327 . S
C2078 C2097 1.429 1_565 S
C2078 H2102 0.950 . S
C2079 C2096 1.574 . S
C2079 C2098 1.368 . S
C2079 H2103 0.949 . S
H2080 C2084 0.964 . S
C2081 C2082 1.349 . S
C2081 C2083 1.327 . S
C2081 H2104 0.950 . S
C2082 C2081 1.349 . S
C2082 C2094 1.349 . S
C2083 C2081 1.327 . S
C2083 C2099 1.429 . S
C2083 H2105 0.950 . S
C2084 H2080 0.964 . S
C2084 C2092 1.574 . S
C2084 C2100 1.368 . S
H2085 C2093 0.950 . S
H2086 C2091 0.950 . S
H2087 C2092 0.949 1_565 S
H2088 C2094 0.950 . S
H2089 C2095 0.950 . S
H2090 C2096 0.949 . S
C2091 H2086 0.950 . S
C2091 C2093 1.327 . S
C2091 C2097 1.429 . S
C2092 C2084 1.574 . S
C2092 H2087 0.949 1_545 S
C2092 C2098 1.368 . S
C2093 C2077 1.361 . S
C2093 H2085 0.950 . S
C2093 C2091 1.327 . S
C2094 C2082 1.349 . S
C2094 H2088 0.950 . S
C2094 C2095 1.327 . S
C2095 H2089 0.950 . S
C2095 C2094 1.327 . S
C2095 C2099 1.429 . S
C2096 C2079 1.574 . S
C2096 H2090 0.949 . S
C2096 C2100 1.368 . S
C2097 C2078 1.429 1_545 S
C2097 C2091 1.429 . S
C2097 C2098 1.523 . S
C2098 C2079 1.368 . S
C2098 C2092 1.368 . S
C2098 C2097 1.523 . S
C2099 C2083 1.429 . S
C2099 C2095 1.429 . S
C2099 C2100 1.523 . S
C2100 C2084 1.368 . S
C2100 C2096 1.368 . S
C2100 C2099 1.523 . S
H2101 C2076 0.950 . S
H2102 C2078 0.950 . S
H2103 C2079 0.949 . S
H2104 C2081 0.950 . S
H2105 C2083 0.950 . S
C2106 C2107 1.351 . S
C2106 C2108 1.333 . S
C2106 H2131 0.942 1_565 S
C2107 C2106 1.351 . S
C2107 C2123 1.349 . S
C2108 C2106 1.333 . S
C2108 C2127 1.429 . S
C2108 H2132 0.950 . S
C2109 C2126 1.574 . S
C2109 C2128 1.368 . S
C2109 H2133 0.949 . S
H2110 C2114 0.949 . S
C2111 C2112 1.349 . S
C2111 C2113 1.327 . S
C2111 H2134 0.950 . S
C2112 C2111 1.349 . S
C2112 C2124 1.349 . S
C2113 C2111 1.327 . S
C2113 C2129 1.429 . S
C2113 H2135 0.950 . S
C2114 H2110 0.949 . S
C2114 C2122 1.574 . S
C2114 C2130 1.368 . S
H2115 C2123 0.950 . S
H2116 C2121 0.950 . S
H2117 C2122 0.949 . S
H2118 C2124 0.950 . S
H2119 C2125 0.950 . S
H2120 C2126 0.949 . S
C2121 H2116 0.950 . S
C2121 C2123 1.327 . S
C2121 C2127 1.429 . S
C2122 C2114 1.574 . S
C2122 H2117 0.949 . S
C2122 C2128 1.368 . S
C2123 C2107 1.349 . S
C2123 H2115 0.950 . S
C2123 C2121 1.327 . S
C2124 C2112 1.349 . S
C2124 H2118 0.950 . S
C2124 C2125 1.327 . S
C2125 H2119 0.950 . S
C2125 C2124 1.327 . S
C2125 C2129 1.429 . S
C2126 C2109 1.574 . S
C2126 H2120 0.949 . S
C2126 C2130 1.368 . S
C2127 C2108 1.429 . S
C2127 C2121 1.429 . S
C2127 C2128 1.523 . S
C2128 C2109 1.368 . S
C2128 C2122 1.368 . S
C2128 C2127 1.523 . S
C2129 C2113 1.429 . S
C2129 C2125 1.429 . S
C2129 C2130 1.523 . S
C2130 C2114 1.368 . S
C2130 C2126 1.368 . S
C2130 C2129 1.523 . S
H2131 C2106 0.942 1_545 S
H2132 C2108 0.950 . S
H2133 C2109 0.949 . S
H2134 C2111 0.950 . S
H2135 C2113 0.950 . S
C2136 C2137 1.349 . S
C2136 C2138 1.327 . S
C2136 H2161 0.950 . S
C2137 C2136 1.349 . S
C2137 C2153 1.349 . S
C2138 C2136 1.327 . S
C2138 C2157 1.429 . S
C2138 H2162 0.950 . S
C2139 C2156 1.574 . S
C2139 C2158 1.368 . S
C2139 H2163 0.949 . S
H2140 C2144 0.949 . S
C2141 C2142 1.349 . S
C2141 C2143 1.327 . S
C2141 H2164 0.950 . S
C2142 C2141 1.349 . S
C2142 C2154 1.349 . S
C2143 C2141 1.327 . S
C2143 C2159 1.429 . S
C2143 H2165 0.950 . S
C2144 H2140 0.949 . S
C2144 C2152 1.574 . S
C2144 C2160 1.368 . S
H2145 C2153 0.950 . S
H2146 C2151 0.950 . S
H2147 C2152 0.949 . S
H2148 C2154 0.950 . S
H2149 C2155 0.950 . S
H2150 C2156 0.949 . S
C2151 H2146 0.950 . S
C2151 C2153 1.327 . S
C2151 C2157 1.429 . S
C2152 C2144 1.574 . S
C2152 H2147 0.949 . S
C2152 C2158 1.368 . S
C2153 C2137 1.349 . S
C2153 H2145 0.950 . S
C2153 C2151 1.327 . S
C2154 C2142 1.349 . S
C2154 H2148 0.950 . S
C2154 C2155 1.327 . S
C2155 H2149 0.950 . S
C2155 C2154 1.327 . S
C2155 C2159 1.429 . S
C2156 C2139 1.574 . S
C2156 H2150 0.949 . S
C2156 C2160 1.368 . S
C2157 C2138 1.429 . S
C2157 C2151 1.429 . S
C2157 C2158 1.523 . S
C2158 C2139 1.368 . S
C2158 C2152 1.368 . S
C2158 C2157 1.523 . S
C2159 C2143 1.429 . S
C2159 C2155 1.429 . S
C2159 C2160 1.523 . S
C2160 C2144 1.368 . S
C2160 C2156 1.368 . S
C2160 C2159 1.523 . S
H2161 C2136 0.950 . S
H2162 C2138 0.950 . S
H2163 C2139 0.949 . S
H2164 C2141 0.950 . S
H2165 C2143 0.950 . S
C2166 C2167 1.349 1_554 S
C2166 C2168 1.327 . S
C2166 H2191 0.950 . S
C2167 C2166 1.349 1_556 S
C2167 C2183 1.349 . S
C2168 C2166 1.327 . S
C2168 C2187 1.429 1_554 S
C2168 H2192 0.950 . S
C2169 C2186 1.574 . S
C2169 C2188 1.368 . S
C2169 H2193 0.949 . S
H2170 C2174 0.949 . S
C2171 C2172 1.349 . S
C2171 C2173 1.327 . S
C2171 H2194 0.950 . S
C2172 C2171 1.349 . S
C2172 C2184 1.349 . S
C2173 C2171 1.327 . S
C2173 C2189 1.429 . S
C2173 H2195 0.950 . S
C2174 H2170 0.949 . S
C2174 C2182 1.574 . S
C2174 C2190 1.368 . S
H2175 C2183 0.950 . S
H2176 C2181 0.950 . S
H2177 C2182 0.949 1_554 S
H2178 C2184 0.950 . S
H2179 C2185 0.950 . S
H2180 C2186 0.949 . S
C2181 H2176 0.950 . S
C2181 C2183 1.327 . S
C2181 C2187 1.429 . S
C2182 C2174 1.574 . S
C2182 H2177 0.949 1_556 S
C2182 C2188 1.368 . S
C2183 C2167 1.349 . S
C2183 H2175 0.950 . S
C2183 C2181 1.327 . S
C2184 C2172 1.349 . S
C2184 H2178 0.950 . S
C2184 C2185 1.327 . S
C2185 H2179 0.950 . S
C2185 C2184 1.327 . S
C2185 C2189 1.429 . S
C2186 C2169 1.574 . S
C2186 H2180 0.949 . S
C2186 C2190 1.368 . S
C2187 C2168 1.429 1_556 S
C2187 C2181 1.429 . S
C2187 C2188 1.523 . S
C2188 C2169 1.368 . S
C2188 C2182 1.368 . S
C2188 C2187 1.523 . S
C2189 C2173 1.429 . S
C2189 C2185 1.429 . S
C2189 C2190 1.523 . S
C2190 C2174 1.368 . S
C2190 C2186 1.368 . S
C2190 C2189 1.523 . S
H2191 C2166 0.950 . S
H2192 C2168 0.950 . S
H2193 C2169 0.949 . S
H2194 C2171 0.950 . S
H2195 C2173 0.950 . S
C2196 C2197 1.349 . S
C2196 C2198 1.327 . S
C2196 H2221 0.950 . S
C2197 C2196 1.349 . S
C2197 C2213 1.349 . S
C2198 C2196 1.327 . S
C2198 C2217 1.429 . S
C2198 H2222 0.950 . S
C2199 C2216 1.574 . S
C2199 C2218 1.368 . S
C2199 H2223 0.949 . S
H2200 C2204 0.949 . S
C2201 C2202 1.349 . S
C2201 C2203 1.327 . S
C2201 H2224 0.950 . S
C2202 C2201 1.349 . S
C2202 C2214 1.349 . S
C2203 C2201 1.327 . S
C2203 C2219 1.429 . S
C2203 H2225 0.950 . S
C2204 H2200 0.949 . S
C2204 C2212 1.574 . S
C2204 C2220 1.368 . S
H2205 C2213 0.950 . S
H2206 C2211 0.950 . S
H2207 C2212 0.949 . S
H2208 C2214 0.950 . S
H2209 C2215 0.950 . S
H2210 C2216 0.949 . S
C2211 H2206 0.950 . S
C2211 C2213 1.327 . S
C2211 C2217 1.429 . S
C2212 C2204 1.574 . S
C2212 H2207 0.949 . S
C2212 C2218 1.368 . S
C2213 C2197 1.349 . S
C2213 H2205 0.950 . S
C2213 C2211 1.327 . S
C2214 C2202 1.349 . S
C2214 H2208 0.950 . S
C2214 C2215 1.327 . S
C2215 H2209 0.950 . S
C2215 C2214 1.327 . S
C2215 C2219 1.429 . S
C2216 C2199 1.574 . S
C2216 H2210 0.949 . S
C2216 C2220 1.368 . S
C2217 C2198 1.429 . S
C2217 C2211 1.429 . S
C2217 C2218 1.523 . S
C2218 C2199 1.368 . S
C2218 C2212 1.368 . S
C2218 C2217 1.523 . S
C2219 C2203 1.429 . S
C2219 C2215 1.429 . S
C2219 C2220 1.523 . S
C2220 C2204 1.368 . S
C2220 C2216 1.368 . S
C2220 C2219 1.523 . S
H2221 C2196 0.950 . S
H2222 C2198 0.950 . S
H2223 C2199 0.949 . S
H2224 C2201 0.950 . S
H2225 C2203 0.950 . S
C2226 C2227 1.366 . S
C2226 C2228 1.327 . S
C2226 H2251 0.950 . S
C2227 C2226 1.366 . S
C2227 C2243 1.333 1_554 S
C2228 C2226 1.327 . S
C2228 C2247 1.429 . S
C2228 H2252 0.950 . S
C2229 C2246 1.574 . S
C2229 C2248 1.368 1_556 S
C2229 H2253 0.949 . S
H2230 C2234 0.949 . S
C2231 C2232 1.349 . S
C2231 C2233 1.327 . S
C2231 H2254 0.922 1_554 S
C2232 C2231 1.349 . S
C2232 C2244 1.349 . S
C2233 C2231 1.327 . S
C2233 C2249 1.429 . S
C2233 H2255 0.950 1_554 S
C2234 H2230 0.949 . S
C2234 C2242 1.574 . S
C2234 C2250 1.368 . S
H2235 C2243 0.950 . S
H2236 C2241 0.950 . S
H2237 C2242 0.949 . S
H2238 C2244 0.950 . S
H2239 C2245 0.950 . S
H2240 C2246 0.949 . S
C2241 H2236 0.950 . S
C2241 C2243 1.327 . S
C2241 C2247 1.429 1_556 S
C2242 C2234 1.574 . S
C2242 H2237 0.949 . S
C2242 C2248 1.368 . S
C2243 C2227 1.333 1_556 S
C2243 H2235 0.950 . S
C2243 C2241 1.327 . S
C2244 C2232 1.349 . S
C2244 H2238 0.950 . S
C2244 C2245 1.327 . S
C2245 H2239 0.950 . S
C2245 C2244 1.327 . S
C2245 C2249 1.429 . S
C2246 C2229 1.574 . S
C2246 H2240 0.949 . S
C2246 C2250 1.368 1_556 S
C2247 C2228 1.429 . S
C2247 C2241 1.429 1_554 S
C2247 C2248 1.523 . S
C2248 C2229 1.368 1_554 S
C2248 C2242 1.368 . S
C2248 C2247 1.523 . S
C2249 C2233 1.429 . S
C2249 C2245 1.429 . S
C2249 C2250 1.523 . S
C2250 C2234 1.368 . S
C2250 C2246 1.368 1_554 S
C2250 C2249 1.523 . S
H2251 C2226 0.950 . S
H2252 C2228 0.950 . S
H2253 C2229 0.949 . S
H2254 C2231 0.922 1_556 S
H2255 C2233 0.950 1_556 S
C2256 C2257 1.349 . S
C2256 C2258 1.327 . S
C2256 H2281 0.950 . S
C2257 C2256 1.349 . S
C2257 C2273 1.349 . S
C2258 C2256 1.327 . S
C2258 C2277 1.429 . S
C2258 H2282 0.950 . S
C2259 C2276 1.574 . S
C2259 C2278 1.368 . S
C2259 H2283 0.949 . S
H2260 C2264 0.949 . S
C2261 C2262 1.349 . S
C2261 C2263 1.327 . S
C2261 H2284 0.950 . S
C2262 C2261 1.349 . S
C2262 C2274 1.349 . S
C2263 C2261 1.327 . S
C2263 C2279 1.429 . S
C2263 H2285 0.950 . S
C2264 H2260 0.949 . S
C2264 C2272 1.574 . S
C2264 C2280 1.368 . S
H2265 C2273 0.950 . S
H2266 C2271 0.950 . S
H2267 C2272 0.949 . S
H2268 C2274 0.950 . S
H2269 C2275 0.950 . S
H2270 C2276 0.949 . S
C2271 H2266 0.950 . S
C2271 C2273 1.327 . S
C2271 C2277 1.429 . S
C2272 C2264 1.574 . S
C2272 H2267 0.949 . S
C2272 C2278 1.368 . S
C2273 C2257 1.349 . S
C2273 H2265 0.950 . S
C2273 C2271 1.327 . S
C2274 C2262 1.349 . S
C2274 H2268 0.950 . S
C2274 C2275 1.327 . S
C2275 H2269 0.950 . S
C2275 C2274 1.327 . S
C2275 C2279 1.429 . S
C2276 C2259 1.574 . S
C2276 H2270 0.949 . S
C2276 C2280 1.368 . S
C2277 C2258 1.429 . S
C2277 C2271 1.429 . S
C2277 C2278 1.523 . S
C2278 C2259 1.368 . S
C2278 C2272 1.368 . S
C2278 C2277 1.523 . S
C2279 C2263 1.429 . S
C2279 C2275 1.429 . S
C2279 C2280 1.523 . S
C2280 C2264 1.368 . S
C2280 C2276 1.368 . S
C2280 C2279 1.523 . S
H2281 C2256 0.950 . S
H2282 C2258 0.950 . S
H2283 C2259 0.949 . S
H2284 C2261 0.950 . S
H2285 C2263 0.950 . S
C2286 C2287 1.349 . S
C2286 C2288 1.327 . S
C2286 H2311 0.950 . S
C2287 C2286 1.349 . S
C2287 C2303 1.349 1_655 S
C2288 C2286 1.327 . S
C2288 C2307 1.429 . S
C2288 H2312 0.950 . S
C2289 C2306 1.574 . S
C2289 C2308 1.368 . S
C2289 H2313 0.961 . S
H2290 C2294 0.949 . S
C2291 C2292 1.349 . S
C2291 C2293 1.327 . S
C2291 H2314 0.950 . S
C2292 C2291 1.349 . S
C2292 C2304 1.349 . S
C2293 C2291 1.327 . S
C2293 C2309 1.429 . S
C2293 H2315 0.950 . S
C2294 H2290 0.949 . S
C2294 C2302 1.574 . S
C2294 C2310 1.368 . S
H2295 C2303 0.950 . S
H2296 C2301 0.960 . S
H2297 C2302 0.949 . S
H2298 C2304 0.950 . S
H2299 C2305 0.950 . S
H2300 C2306 0.949 . S
C2301 H2296 0.960 . S
C2301 C2303 1.332 . S
C2301 C2307 1.415 1_455 S
C2302 C2294 1.574 . S
C2302 H2297 0.949 . S
C2302 C2308 1.368 . S
C2303 C2287 1.349 1_455 S
C2303 H2295 0.950 . S
C2303 C2301 1.332 . S
C2304 C2292 1.349 . S
C2304 H2298 0.950 . S
C2304 C2305 1.327 . S
C2305 H2299 0.950 . S
C2305 C2304 1.327 . S
C2305 C2309 1.429 . S
C2306 C2289 1.574 . S
C2306 H2300 0.949 . S
C2306 C2310 1.368 . S
C2307 C2288 1.429 . S
C2307 C2301 1.415 1_655 S
C2307 C2308 1.523 . S
C2308 C2289 1.368 . S
C2308 C2302 1.368 . S
C2308 C2307 1.523 . S
C2309 C2293 1.429 . S
C2309 C2305 1.429 . S
C2309 C2310 1.523 . S
C2310 C2294 1.368 . S
C2310 C2306 1.368 . S
C2310 C2309 1.523 . S
H2311 C2286 0.950 . S
H2312 C2288 0.950 . S
H2313 C2289 0.961 . S
H2314 C2291 0.950 . S
H2315 C2293 0.950 . S
C2316 C2317 1.349 . S
C2316 C2318 1.327 . S
C2316 H2341 0.950 . S
C2317 C2316 1.349 . S
C2317 C2333 1.349 . S
C2318 C2316 1.327 . S
C2318 C2337 1.429 . S
C2318 H2342 0.950 . S
C2319 C2336 1.574 . S
C2319 C2338 1.368 . S
C2319 H2343 0.949 . S
H2320 C2324 0.949 . S
C2321 C2322 1.349 . S
C2321 C2323 1.327 . S
C2321 H2344 0.950 . S
C2322 C2321 1.349 . S
C2322 C2334 1.349 . S
C2323 C2321 1.327 . S
C2323 C2339 1.429 . S
C2323 H2345 0.950 . S
C2324 H2320 0.949 . S
C2324 C2332 1.574 . S
C2324 C2340 1.368 . S
H2325 C2333 0.950 . S
H2326 C2331 0.950 . S
H2327 C2332 0.949 . S
H2328 C2334 0.950 . S
H2329 C2335 0.950 . S
H2330 C2336 0.949 . S
C2331 H2326 0.950 . S
C2331 C2333 1.327 . S
C2331 C2337 1.429 . S
C2332 C2324 1.574 . S
C2332 H2327 0.949 . S
C2332 C2338 1.368 . S
C2333 C2317 1.349 . S
C2333 H2325 0.950 . S
C2333 C2331 1.327 . S
C2334 C2322 1.349 . S
C2334 H2328 0.950 . S
C2334 C2335 1.327 . S
C2335 H2329 0.950 . S
C2335 C2334 1.327 . S
C2335 C2339 1.429 . S
C2336 C2319 1.574 . S
C2336 H2330 0.949 . S
C2336 C2340 1.368 . S
C2337 C2318 1.429 . S
C2337 C2331 1.429 . S
C2337 C2338 1.523 . S
C2338 C2319 1.368 . S
C2338 C2332 1.368 . S
C2338 C2337 1.523 . S
C2339 C2323 1.429 . S
C2339 C2335 1.429 . S
C2339 C2340 1.523 . S
C2340 C2324 1.368 . S
C2340 C2336 1.368 . S
C2340 C2339 1.523 . S
H2341 C2316 0.950 . S
H2342 C2318 0.950 . S
H2343 C2319 0.949 . S
H2344 C2321 0.950 . S
H2345 C2323 0.950 . S
C2346 C2347 1.329 1_655 S
C2346 C2348 1.327 . S
C2346 H2371 0.950 . S
C2347 C2346 1.329 1_455 S
C2347 C2363 1.370 . S
C2348 C2346 1.327 . S
C2348 C2367 1.429 1_655 S
C2348 H2372 0.950 . S
C2349 C2366 1.574 . S
C2349 C2368 1.368 . S
C2349 H2373 0.949 . S
H2350 C2354 0.949 . S
C2351 C2352 1.349 . S
C2351 C2353 1.327 . S
C2351 H2374 0.950 . S
C2352 C2351 1.349 . S
C2352 C2364 1.349 . S
C2353 C2351 1.327 . S
C2353 C2369 1.429 . S
C2353 H2375 0.950 . S
C2354 H2350 0.949 . S
C2354 C2362 1.574 . S
C2354 C2370 1.368 1_655 S
H2355 C2363 0.950 . S
H2356 C2361 0.950 . S
H2357 C2362 0.949 . S
H2358 C2364 0.950 1_655 S
H2359 C2365 0.950 1_655 S
H2360 C2366 0.949 . S
C2361 H2356 0.950 . S
C2361 C2363 1.327 . S
C2361 C2367 1.429 . S
C2362 C2354 1.574 . S
C2362 H2357 0.949 . S
C2362 C2368 1.368 1_655 S
C2363 C2347 1.370 . S
C2363 H2355 0.950 . S
C2363 C2361 1.327 . S
C2364 C2352 1.349 . S
C2364 H2358 0.950 1_455 S
C2364 C2365 1.327 . S
C2365 H2359 0.950 1_455 S
C2365 C2364 1.327 . S
C2365 C2369 1.429 . S
C2366 C2349 1.574 . S
C2366 H2360 0.949 . S
C2366 C2370 1.368 . S
C2367 C2348 1.429 1_455 S
C2367 C2361 1.429 . S
C2367 C2368 1.523 . S
C2368 C2349 1.368 . S
C2368 C2362 1.368 1_455 S
C2368 C2367 1.523 . S
C2369 C2353 1.429 . S
C2369 C2365 1.429 . S
C2369 C2370 1.523 . S
C2370 C2354 1.368 1_455 S
C2370 C2366 1.368 . S
C2370 C2369 1.523 . S
H2371 C2346 0.950 . S
H2372 C2348 0.950 . S
H2373 C2349 0.949 . S
H2374 C2351 0.950 . S
H2375 C2353 0.950 . S
C2376 C2377 1.349 . S
C2376 C2378 1.327 . S
C2376 H2401 0.950 . S
C2377 C2376 1.349 . S
C2377 C2393 1.349 . S
C2378 C2376 1.327 . S
C2378 C2397 1.429 . S
C2378 H2402 0.950 . S
C2379 C2396 1.574 . S
C2379 C2398 1.368 . S
C2379 H2403 0.949 . S
H2380 C2384 0.949 . S
C2381 C2382 1.349 . S
C2381 C2383 1.327 . S
C2381 H2404 0.950 . S
C2382 C2381 1.349 . S
C2382 C2394 1.349 . S
C2383 C2381 1.327 . S
C2383 C2399 1.429 . S
C2383 H2405 0.950 . S
C2384 H2380 0.949 . S
C2384 C2392 1.574 . S
C2384 C2400 1.368 . S
H2385 C2393 0.950 . S
H2386 C2391 0.950 . S
H2387 C2392 0.949 . S
H2388 C2394 0.950 . S
H2389 C2395 0.950 . S
H2390 C2396 0.949 . S
C2391 H2386 0.950 . S
C2391 C2393 1.327 . S
C2391 C2397 1.429 . S
C2392 C2384 1.574 . S
C2392 H2387 0.949 . S
C2392 C2398 1.368 . S
C2393 C2377 1.349 . S
C2393 H2385 0.950 . S
C2393 C2391 1.327 . S
C2394 C2382 1.349 . S
C2394 H2388 0.950 . S
C2394 C2395 1.327 . S
C2395 H2389 0.950 . S
C2395 C2394 1.327 . S
C2395 C2399 1.429 . S
C2396 C2379 1.574 . S
C2396 H2390 0.949 . S
C2396 C2400 1.368 . S
C2397 C2378 1.429 . S
C2397 C2391 1.429 . S
C2397 C2398 1.523 . S
C2398 C2379 1.368 . S
C2398 C2392 1.368 . S
C2398 C2397 1.523 . S
C2399 C2383 1.429 . S
C2399 C2395 1.429 . S
C2399 C2400 1.523 . S
C2400 C2384 1.368 . S
C2400 C2396 1.368 . S
C2400 C2399 1.523 . S
H2401 C2376 0.950 . S
H2402 C2378 0.950 . S
H2403 C2379 0.949 . S
H2404 C2381 0.950 . S
H2405 C2383 0.950 . S
C2406 C2407 1.349 . S
C2406 C2408 1.327 . S
C2406 H2431 0.950 . S
C2407 C2406 1.349 . S
C2407 C2423 1.349 . S
C2408 C2406 1.327 . S
C2408 C2427 1.429 . S
C2408 H2432 0.950 . S
C2409 C2426 1.574 . S
C2409 C2428 1.368 . S
C2409 H2433 0.949 . S
H2410 C2414 0.949 . S
C2411 C2412 1.349 . S
C2411 C2413 1.327 . S
C2411 H2434 0.950 . S
C2412 C2411 1.349 . S
C2412 C2424 1.349 . S
C2413 C2411 1.327 . S
C2413 C2429 1.429 . S
C2413 H2435 0.950 . S
C2414 H2410 0.949 . S
C2414 C2422 1.574 . S
C2414 C2430 1.368 . S
H2415 C2423 0.950 . S
H2416 C2421 0.950 . S
H2417 C2422 0.949 . S
H2418 C2424 0.950 . S
H2419 C2425 0.950 . S
H2420 C2426 0.949 . S
C2421 H2416 0.950 . S
C2421 C2423 1.327 . S
C2421 C2427 1.429 . S
C2422 C2414 1.574 . S
C2422 H2417 0.949 . S
C2422 C2428 1.368 . S
C2423 C2407 1.349 . S
C2423 H2415 0.950 . S
C2423 C2421 1.327 . S
C2424 C2412 1.349 . S
C2424 H2418 0.950 . S
C2424 C2425 1.327 . S
C2425 H2419 0.950 . S
C2425 C2424 1.327 . S
C2425 C2429 1.429 . S
C2426 C2409 1.574 . S
C2426 H2420 0.949 . S
C2426 C2430 1.368 . S
C2427 C2408 1.429 . S
C2427 C2421 1.429 . S
C2427 C2428 1.523 . S
C2428 C2409 1.368 . S
C2428 C2422 1.368 . S
C2428 C2427 1.523 . S
C2429 C2413 1.429 . S
C2429 C2425 1.429 . S
C2429 C2430 1.523 . S
C2430 C2414 1.368 . S
C2430 C2426 1.368 . S
C2430 C2429 1.523 . S
H2431 C2406 0.950 . S
H2432 C2408 0.950 . S
H2433 C2409 0.949 . S
H2434 C2411 0.950 . S
H2435 C2413 0.950 . S
C2436 C2437 1.359 . S
C2436 C2438 1.327 . S
C2436 H2461 0.950 . S
C2437 C2436 1.359 . S
C2437 C2453 1.340 1_565 S
C2438 C2436 1.327 . S
C2438 C2457 1.429 . S
C2438 H2462 0.950 . S
C2439 C2456 1.574 . S
C2439 C2458 1.368 . S
C2439 H2463 0.949 1_565 S
H2440 C2444 0.949 . S
C2441 C2442 1.349 . S
C2441 C2443 1.327 . S
C2441 H2464 0.950 . S
C2442 C2441 1.349 . S
C2442 C2454 1.349 . S
C2443 C2441 1.327 . S
C2443 C2459 1.429 . S
C2443 H2465 0.950 . S
C2444 H2440 0.949 . S
C2444 C2452 1.574 . S
C2444 C2460 1.368 . S
H2445 C2453 0.950 . S
H2446 C2451 0.950 . S
H2447 C2452 0.949 . S
H2448 C2454 0.950 . S
H2449 C2455 0.950 . S
H2450 C2456 0.949 . S
C2451 H2446 0.950 . S
C2451 C2453 1.327 . S
C2451 C2457 1.429 1_545 S
C2452 C2444 1.574 . S
C2452 H2447 0.949 . S
C2452 C2458 1.368 . S
C2453 C2437 1.340 1_545 S
C2453 H2445 0.950 . S
C2453 C2451 1.327 . S
C2454 C2442 1.349 . S
C2454 H2448 0.950 . S
C2454 C2455 1.327 . S
C2455 H2449 0.950 . S
C2455 C2454 1.327 . S
C2455 C2459 1.429 . S
C2456 C2439 1.574 . S
C2456 H2450 0.949 . S
C2456 C2460 1.368 . S
C2457 C2438 1.429 . S
C2457 C2451 1.429 1_565 S
C2457 C2458 1.523 . S
C2458 C2439 1.368 . S
C2458 C2452 1.368 . S
C2458 C2457 1.523 . S
C2459 C2443 1.429 . S
C2459 C2455 1.429 . S
C2459 C2460 1.523 . S
C2460 C2444 1.368 . S
C2460 C2456 1.368 . S
C2460 C2459 1.523 . S
H2461 C2436 0.950 . S
H2462 C2438 0.950 . S
H2463 C2439 0.949 1_545 S
H2464 C2441 0.950 . S
H2465 C2443 0.950 . S
C2466 C2467 1.337 1_565 S
C2466 C2468 1.321 1_565 S
C2466 H2491 0.971 . S
C2467 C2466 1.337 1_545 S
C2467 C2483 1.349 . S
C2468 C2466 1.321 1_545 S
C2468 C2487 1.429 . S
C2468 H2492 0.950 . S
C2469 C2486 1.574 . S
C2469 C2488 1.368 . S
C2469 H2493 0.949 . S
H2470 C2474 0.949 . S
C2471 C2472 1.349 . S
C2471 C2473 1.327 . S
C2471 H2494 0.950 . S
C2472 C2471 1.349 . S
C2472 C2484 1.349 . S
C2473 C2471 1.327 . S
C2473 C2489 1.429 . S
C2473 H2495 0.950 . S
C2474 H2470 0.949 . S
C2474 C2482 1.574 . S
C2474 C2490 1.368 . S
H2475 C2483 0.950 . S
H2476 C2481 0.950 . S
H2477 C2482 0.949 . S
H2478 C2484 0.950 . S
H2479 C2485 0.950 . S
H2480 C2486 0.949 . S
C2481 H2476 0.950 . S
C2481 C2483 1.327 . S
C2481 C2487 1.429 . S
C2482 C2474 1.574 . S
C2482 H2477 0.949 . S
C2482 C2488 1.368 . S
C2483 C2467 1.349 . S
C2483 H2475 0.950 . S
C2483 C2481 1.327 . S
C2484 C2472 1.349 . S
C2484 H2478 0.950 . S
C2484 C2485 1.327 . S
C2485 H2479 0.950 . S
C2485 C2484 1.327 . S
C2485 C2489 1.429 . S
C2486 C2469 1.574 . S
C2486 H2480 0.949 . S
C2486 C2490 1.368 . S
C2487 C2468 1.429 . S
C2487 C2481 1.429 . S
C2487 C2488 1.523 . S
C2488 C2469 1.368 . S
C2488 C2482 1.368 . S
C2488 C2487 1.523 . S
C2489 C2473 1.429 . S
C2489 C2485 1.429 . S
C2489 C2490 1.523 . S
C2490 C2474 1.368 . S
C2490 C2486 1.368 . S
C2490 C2489 1.523 . S
H2491 C2466 0.971 . S
H2492 C2468 0.950 . S
H2493 C2469 0.949 . S
H2494 C2471 0.950 . S
H2495 C2473 0.950 . S
C2496 C2497 1.349 . S
C2496 C2498 1.327 . S
C2496 H2521 0.950 . S
C2497 C2496 1.349 . S
C2497 C2513 1.349 . S
C2498 C2496 1.327 . S
C2498 C2517 1.429 . S
C2498 H2522 0.950 . S
C2499 C2516 1.574 . S
C2499 C2518 1.368 . S
C2499 H2523 0.949 . S
H2500 C2504 0.949 . S
C2501 C2502 1.349 . S
C2501 C2503 1.327 . S
C2501 H2524 0.950 . S
C2502 C2501 1.349 . S
C2502 C2514 1.349 . S
C2503 C2501 1.327 . S
C2503 C2519 1.429 . S
C2503 H2525 0.950 . S
C2504 H2500 0.949 . S
C2504 C2512 1.574 . S
C2504 C2520 1.368 . S
H2505 C2513 0.950 . S
H2506 C2511 0.950 . S
H2507 C2512 0.949 . S
H2508 C2514 0.950 . S
H2509 C2515 0.950 . S
H2510 C2516 0.949 . S
C2511 H2506 0.950 . S
C2511 C2513 1.327 . S
C2511 C2517 1.429 . S
C2512 C2504 1.574 . S
C2512 H2507 0.949 . S
C2512 C2518 1.368 . S
C2513 C2497 1.349 . S
C2513 H2505 0.950 . S
C2513 C2511 1.327 . S
C2514 C2502 1.349 . S
C2514 H2508 0.950 . S
C2514 C2515 1.327 . S
C2515 H2509 0.950 . S
C2515 C2514 1.327 . S
C2515 C2519 1.429 . S
C2516 C2499 1.574 . S
C2516 H2510 0.949 . S
C2516 C2520 1.368 . S
C2517 C2498 1.429 . S
C2517 C2511 1.429 . S
C2517 C2518 1.523 . S
C2518 C2499 1.368 . S
C2518 C2512 1.368 . S
C2518 C2517 1.523 . S
C2519 C2503 1.429 . S
C2519 C2515 1.429 . S
C2519 C2520 1.523 . S
C2520 C2504 1.368 . S
C2520 C2516 1.368 . S
C2520 C2519 1.523 . S
H2521 C2496 0.950 . S
H2522 C2498 0.950 . S
H2523 C2499 0.949 . S
H2524 C2501 0.950 . S
H2525 C2503 0.950 . S
C2526 C2527 1.349 1_556 S
C2526 C2528 1.327 . S
C2526 H2551 0.950 . S
C2527 C2526 1.349 1_554 S
C2527 C2543 1.349 . S
C2528 C2526 1.327 . S
C2528 C2547 1.429 1_556 S
C2528 H2552 0.950 . S
C2529 C2546 1.574 . S
C2529 C2548 1.368 . S
C2529 H2553 0.949 . S
H2530 C2534 0.942 1_556 S
C2531 C2532 1.349 . S
C2531 C2533 1.327 . S
C2531 H2554 0.950 . S
C2532 C2531 1.349 . S
C2532 C2544 1.349 . S
C2533 C2531 1.327 . S
C2533 C2549 1.429 . S
C2533 H2555 0.950 . S
C2534 H2530 0.942 1_554 S
C2534 C2542 1.574 . S
C2534 C2550 1.368 . S
H2535 C2543 0.950 . S
H2536 C2541 0.950 . S
H2537 C2542 0.949 1_556 S
H2538 C2544 0.950 . S
H2539 C2545 0.950 . S
H2540 C2546 0.949 . S
C2541 H2536 0.950 . S
C2541 C2543 1.327 . S
C2541 C2547 1.429 . S
C2542 C2534 1.574 . S
C2542 H2537 0.949 1_554 S
C2542 C2548 1.368 . S
C2543 C2527 1.349 . S
C2543 H2535 0.950 . S
C2543 C2541 1.327 . S
C2544 C2532 1.349 . S
C2544 H2538 0.950 . S
C2544 C2545 1.327 . S
C2545 H2539 0.950 . S
C2545 C2544 1.327 . S
C2545 C2549 1.429 . S
C2546 C2529 1.574 . S
C2546 H2540 0.949 . S
C2546 C2550 1.368 . S
C2547 C2528 1.429 1_554 S
C2547 C2541 1.429 . S
C2547 C2548 1.523 . S
C2548 C2529 1.368 . S
C2548 C2542 1.368 . S
C2548 C2547 1.523 . S
C2549 C2533 1.429 . S
C2549 C2545 1.429 . S
C2549 C2550 1.523 . S
C2550 C2534 1.368 . S
C2550 C2546 1.368 . S
C2550 C2549 1.523 . S
H2551 C2526 0.950 . S
H2552 C2528 0.950 . S
H2553 C2529 0.949 . S
H2554 C2531 0.950 . S
H2555 C2533 0.950 . S
C2556 C2557 1.349 . S
C2556 C2558 1.327 . S
C2556 H2581 0.950 . S
C2557 C2556 1.349 . S
C2557 C2573 1.349 . S
C2558 C2556 1.327 . S
C2558 C2577 1.429 . S
C2558 H2582 0.950 . S
C2559 C2576 1.574 . S
C2559 C2578 1.368 . S
C2559 H2583 0.949 . S
H2560 C2564 0.949 . S
C2561 C2562 1.349 . S
C2561 C2563 1.327 . S
C2561 H2584 0.950 . S
C2562 C2561 1.349 . S
C2562 C2574 1.349 . S
C2563 C2561 1.327 . S
C2563 C2579 1.429 . S
C2563 H2585 0.950 . S
C2564 H2560 0.949 . S
C2564 C2572 1.574 . S
C2564 C2580 1.368 . S
H2565 C2573 0.950 . S
H2566 C2571 0.950 . S
H2567 C2572 0.949 . S
H2568 C2574 0.950 . S
H2569 C2575 0.950 . S
H2570 C2576 0.949 . S
C2571 H2566 0.950 . S
C2571 C2573 1.327 . S
C2571 C2577 1.429 . S
C2572 C2564 1.574 . S
C2572 H2567 0.949 . S
C2572 C2578 1.368 . S
C2573 C2557 1.349 . S
C2573 H2565 0.950 . S
C2573 C2571 1.327 . S
C2574 C2562 1.349 . S
C2574 H2568 0.950 . S
C2574 C2575 1.327 . S
C2575 H2569 0.950 . S
C2575 C2574 1.327 . S
C2575 C2579 1.429 . S
C2576 C2559 1.574 . S
C2576 H2570 0.949 . S
C2576 C2580 1.368 . S
C2577 C2558 1.429 . S
C2577 C2571 1.429 . S
C2577 C2578 1.523 . S
C2578 C2559 1.368 . S
C2578 C2572 1.368 . S
C2578 C2577 1.523 . S
C2579 C2563 1.429 . S
C2579 C2575 1.429 . S
C2579 C2580 1.523 . S
C2580 C2564 1.368 . S
C2580 C2576 1.368 . S
C2580 C2579 1.523 . S
H2581 C2556 0.950 . S
H2582 C2558 0.950 . S
H2583 C2559 0.949 . S
H2584 C2561 0.950 . S
H2585 C2563 0.950 . S
C2586 C2587 1.336 1_554 S
C2586 C2588 1.327 . S
C2586 H2611 0.950 . S
C2587 C2586 1.336 1_556 S
C2587 C2603 1.363 . S
C2588 C2586 1.327 . S
C2588 C2607 1.429 1_554 S
C2588 H2612 0.950 . S
C2589 C2606 1.574 . S
C2589 C2608 1.368 . S
C2589 H2613 0.949 . S
H2590 C2594 0.949 . S
C2591 C2592 1.349 . S
C2591 C2593 1.327 . S
C2591 H2614 0.950 . S
C2592 C2591 1.349 . S
C2592 C2604 1.349 . S
C2593 C2591 1.327 . S
C2593 C2609 1.429 . S
C2593 H2615 0.950 . S
C2594 H2590 0.949 . S
C2594 C2602 1.574 . S
C2594 C2610 1.368 1_554 S
H2595 C2603 0.950 . S
H2596 C2601 0.950 . S
H2597 C2602 0.949 . S
H2598 C2604 0.950 1_554 S
H2599 C2605 0.950 1_554 S
H2600 C2606 0.949 . S
C2601 H2596 0.950 . S
C2601 C2603 1.327 . S
C2601 C2607 1.429 . S
C2602 C2594 1.574 . S
C2602 H2597 0.949 . S
C2602 C2608 1.368 1_554 S
C2603 C2587 1.363 . S
C2603 H2595 0.950 . S
C2603 C2601 1.327 . S
C2604 C2592 1.349 . S
C2604 H2598 0.950 1_556 S
C2604 C2605 1.327 . S
C2605 H2599 0.950 1_556 S
C2605 C2604 1.327 . S
C2605 C2609 1.429 . S
C2606 C2589 1.574 . S
C2606 H2600 0.949 . S
C2606 C2610 1.368 . S
C2607 C2588 1.429 1_556 S
C2607 C2601 1.429 . S
C2607 C2608 1.523 . S
C2608 C2589 1.368 . S
C2608 C2602 1.368 1_556 S
C2608 C2607 1.523 . S
C2609 C2593 1.429 . S
C2609 C2605 1.429 . S
C2609 C2610 1.523 . S
C2610 C2594 1.368 1_556 S
C2610 C2606 1.368 . S
C2610 C2609 1.523 . S
H2611 C2586 0.950 . S
H2612 C2588 0.950 . S
H2613 C2589 0.949 . S
H2614 C2591 0.950 . S
H2615 C2593 0.950 . S
C2616 C2617 1.349 . S
C2616 C2618 1.327 . S
C2616 H2641 0.950 . S
C2617 C2616 1.349 . S
C2617 C2633 1.349 . S
C2618 C2616 1.327 . S
C2618 C2637 1.429 . S
C2618 H2642 0.950 . S
C2619 C2636 1.574 . S
C2619 C2638 1.368 . S
C2619 H2643 0.949 . S
H2620 C2624 0.949 . S
C2621 C2622 1.349 . S
C2621 C2623 1.327 . S
C2621 H2644 0.950 . S
C2622 C2621 1.349 . S
C2622 C2634 1.349 . S
C2623 C2621 1.327 . S
C2623 C2639 1.429 . S
C2623 H2645 0.950 . S
C2624 H2620 0.949 . S
C2624 C2632 1.574 . S
C2624 C2640 1.368 . S
H2625 C2633 0.950 . S
H2626 C2631 0.950 . S
H2627 C2632 0.949 . S
H2628 C2634 0.950 . S
H2629 C2635 0.950 . S
H2630 C2636 0.949 . S
C2631 H2626 0.950 . S
C2631 C2633 1.327 . S
C2631 C2637 1.429 . S
C2632 C2624 1.574 . S
C2632 H2627 0.949 . S
C2632 C2638 1.368 . S
C2633 C2617 1.349 . S
C2633 H2625 0.950 . S
C2633 C2631 1.327 . S
C2634 C2622 1.349 . S
C2634 H2628 0.950 . S
C2634 C2635 1.327 . S
C2635 H2629 0.950 . S
C2635 C2634 1.327 . S
C2635 C2639 1.429 . S
C2636 C2619 1.574 . S
C2636 H2630 0.949 . S
C2636 C2640 1.368 . S
C2637 C2618 1.429 . S
C2637 C2631 1.429 . S
C2637 C2638 1.523 . S
C2638 C2619 1.368 . S
C2638 C2632 1.368 . S
C2638 C2637 1.523 . S
C2639 C2623 1.429 . S
C2639 C2635 1.429 . S
C2639 C2640 1.523 . S
C2640 C2624 1.368 . S
C2640 C2636 1.368 . S
C2640 C2639 1.523 . S
H2641 C2616 0.950 . S
H2642 C2618 0.950 . S
H2643 C2619 0.949 . S
H2644 C2621 0.950 . S
H2645 C2623 0.950 . S
C2646 C2647 1.349 . S
C2646 C2648 1.327 . S
C2646 H2671 0.950 . S
C2647 C2646 1.349 . S
C2647 C2663 1.349 1_455 S
C2648 C2646 1.327 . S
C2648 C2667 1.429 . S
C2648 H2672 0.950 . S
C2649 C2666 1.574 . S
C2649 C2668 1.368 . S
C2649 H2673 0.949 . S
H2650 C2654 0.949 . S
C2651 C2652 1.349 . S
C2651 C2653 1.327 . S
C2651 H2674 0.950 . S
C2652 C2651 1.349 . S
C2652 C2664 1.349 . S
C2653 C2651 1.327 . S
C2653 C2669 1.429 . S
C2653 H2675 0.950 . S
C2654 H2650 0.949 . S
C2654 C2662 1.574 . S
C2654 C2670 1.368 . S
H2655 C2663 0.950 . S
H2656 C2661 0.943 1_655 S
H2657 C2662 0.949 . S
H2658 C2664 0.950 . S
H2659 C2665 0.950 . S
H2660 C2666 0.949 . S
C2661 H2656 0.943 1_455 S
C2661 C2663 1.327 1_455 S
C2661 C2667 1.429 . S
C2662 C2654 1.574 . S
C2662 H2657 0.949 . S
C2662 C2668 1.368 . S
C2663 C2647 1.349 1_655 S
C2663 H2655 0.950 . S
C2663 C2661 1.327 1_655 S
C2664 C2652 1.349 . S
C2664 H2658 0.950 . S
C2664 C2665 1.327 . S
C2665 H2659 0.950 . S
C2665 C2664 1.327 . S
C2665 C2669 1.429 . S
C2666 C2649 1.574 . S
C2666 H2660 0.949 . S
C2666 C2670 1.368 . S
C2667 C2648 1.429 . S
C2667 C2661 1.429 . S
C2667 C2668 1.523 . S
C2668 C2649 1.368 . S
C2668 C2662 1.368 . S
C2668 C2667 1.523 . S
C2669 C2653 1.429 . S
C2669 C2665 1.429 . S
C2669 C2670 1.523 . S
C2670 C2654 1.368 . S
C2670 C2666 1.368 . S
C2670 C2669 1.523 . S
H2671 C2646 0.950 . S
H2672 C2648 0.950 . S
H2673 C2649 0.949 . S
H2674 C2651 0.950 . S
H2675 C2653 0.950 . S
C2676 C2677 1.349 . S
C2676 C2678 1.327 . S
C2676 H2701 0.950 . S
C2677 C2676 1.349 . S
C2677 C2693 1.349 . S
C2678 C2676 1.327 . S
C2678 C2697 1.429 . S
C2678 H2702 0.950 . S
C2679 C2696 1.574 . S
C2679 C2698 1.368 . S
C2679 H2703 0.949 . S
H2680 C2684 0.949 . S
C2681 C2682 1.349 . S
C2681 C2683 1.327 . S
C2681 H2704 0.950 . S
C2682 C2681 1.349 . S
C2682 C2694 1.349 . S
C2683 C2681 1.327 . S
C2683 C2699 1.429 . S
C2683 H2705 0.950 . S
C2684 H2680 0.949 . S
C2684 C2692 1.574 . S
C2684 C2700 1.368 . S
H2685 C2693 0.950 . S
H2686 C2691 0.950 . S
H2687 C2692 0.949 . S
H2688 C2694 0.950 . S
H2689 C2695 0.950 . S
H2690 C2696 0.949 . S
C2691 H2686 0.950 . S
C2691 C2693 1.327 . S
C2691 C2697 1.429 . S
C2692 C2684 1.574 . S
C2692 H2687 0.949 . S
C2692 C2698 1.368 . S
C2693 C2677 1.349 . S
C2693 H2685 0.950 . S
C2693 C2691 1.327 . S
C2694 C2682 1.349 . S
C2694 H2688 0.950 . S
C2694 C2695 1.327 . S
C2695 H2689 0.950 . S
C2695 C2694 1.327 . S
C2695 C2699 1.429 . S
C2696 C2679 1.574 . S
C2696 H2690 0.949 . S
C2696 C2700 1.368 . S
C2697 C2678 1.429 . S
C2697 C2691 1.429 . S
C2697 C2698 1.523 . S
C2698 C2679 1.368 . S
C2698 C2692 1.368 . S
C2698 C2697 1.523 . S
C2699 C2683 1.429 . S
C2699 C2695 1.429 . S
C2699 C2700 1.523 . S
C2700 C2684 1.368 . S
C2700 C2696 1.368 . S
C2700 C2699 1.523 . S
H2701 C2676 0.950 . S
H2702 C2678 0.950 . S
H2703 C2679 0.949 . S
H2704 C2681 0.950 . S
H2705 C2683 0.950 . S
C2706 C2707 1.353 . S
C2706 C2708 1.327 . S
C2706 H2731 0.950 . S
C2707 C2706 1.353 . S
C2707 C2723 1.346 1_655 S
C2708 C2706 1.327 . S
C2708 C2727 1.429 . S
C2708 H2732 0.950 . S
C2709 C2726 1.574 . S
C2709 C2728 1.368 . S
C2709 H2733 0.960 . S
H2710 C2714 0.949 . S
C2711 C2712 1.349 . S
C2711 C2713 1.327 . S
C2711 H2734 0.950 . S
C2712 C2711 1.349 . S
C2712 C2724 1.349 . S
C2713 C2711 1.327 . S
C2713 C2729 1.429 . S
C2713 H2735 0.950 . S
C2714 H2710 0.949 . S
C2714 C2722 1.574 . S
C2714 C2730 1.368 . S
H2715 C2723 0.950 . S
H2716 C2721 0.952 . S
H2717 C2722 0.949 . S
H2718 C2724 0.950 . S
H2719 C2725 0.950 . S
H2720 C2726 0.949 . S
C2721 H2716 0.952 . S
C2721 C2723 1.328 . S
C2721 C2727 1.426 1_455 S
C2722 C2714 1.574 . S
C2722 H2717 0.949 . S
C2722 C2728 1.368 . S
C2723 C2707 1.346 1_455 S
C2723 H2715 0.950 . S
C2723 C2721 1.328 . S
C2724 C2712 1.349 . S
C2724 H2718 0.950 . S
C2724 C2725 1.327 . S
C2725 H2719 0.950 . S
C2725 C2724 1.327 . S
C2725 C2729 1.429 . S
C2726 C2709 1.574 . S
C2726 H2720 0.949 . S
C2726 C2730 1.368 . S
C2727 C2708 1.429 . S
C2727 C2721 1.426 1_655 S
C2727 C2728 1.523 . S
C2728 C2709 1.368 . S
C2728 C2722 1.368 . S
C2728 C2727 1.523 . S
C2729 C2713 1.429 . S
C2729 C2725 1.429 . S
C2729 C2730 1.523 . S
C2730 C2714 1.368 . S
C2730 C2726 1.368 . S
C2730 C2729 1.523 . S
H2731 C2706 0.950 . S
H2732 C2708 0.950 . S
H2733 C2709 0.960 . S
H2734 C2711 0.950 . S
H2735 C2713 0.950 . S
C582 N564 1.547 1_455 S
C577 C8 1.538 . S
C612 N525 1.356 . S
C607 C19 1.334 . S
C642 N551 1.090 . S
C637 C30 1.091 . S
C672 N538 1.550 . S
C667 C41 1.527 . S
C702 N447 1.547 1_545 S
C697 C52 1.539 . S
C727 C63 1.529 . S
C732 N460 1.548 . S
C762 N421 1.356 . S
C757 C74 1.334 . S
C787 C85 1.093 . S
C792 N434 1.088 . S
C822 N512 1.547 1_554 S
C817 C96 1.539 . S
C847 C107 1.529 . S
C852 N486 1.548 . S
C877 C118 1.334 . S
C882 N473 1.356 . S
C912 N499 1.090 . S
C907 C129 1.091 . S
C942 N408 1.546 1_655 S
C937 C140 1.510 . S
C967 C151 1.287 . S
C972 N369 1.357 . S
C1002 N395 1.090 . S
C997 C162 1.070 . S
C1027 C173 1.494 . S
C1032 N382 1.556 . S
C1062 N291 1.546 1_565 S
C1057 C184 1.510 . S
C1092 N304 1.557 . S
C1087 C195 1.494 . S
C1117 C206 1.287 . S
C1122 N265 1.357 . S
C1147 C217 1.070 . S
C1152 N278 1.087 . S
C1177 C228 1.510 . S
C1182 N356 1.546 1_556 S
C1207 C239 1.494 . S
C1212 N330 1.556 . S
C1242 N317 1.357 . S
C1237 C250 1.287 . S
C1267 C261 1.070 . S
C1272 N343 1.087 . S
C1302 N269 1.450 . S
C1297 C7 1.430 . S
C1332 N282 1.344 . S
C1327 C18 1.324 . S
C1357 C29 1.209 . S
C1362 N295 1.217 . S
C1387 C40 1.100 1_565 S
C1392 N308 1.103 . S
C1422 N321 1.450 . S
C1417 C51 1.430 . S
C1447 C62 1.100 1_556 S
C1452 N334 1.103 . S
C1482 N347 1.344 . S
C1477 C73 1.324 . S
C1512 N360 1.219 . S
C1507 C84 1.207 . S
C1542 N373 1.450 . S
C1537 C95 1.430 . S
C1567 C106 1.100 1_655 S
C1572 N386 1.103 . S
C1597 C117 1.324 . S
C1602 N399 1.344 . S
C1627 C128 1.209 . S
C1632 N412 1.217 . S
C1657 C139 1.380 . S
C1662 N425 1.450 . S
C1687 C150 1.240 . S
C1692 N438 1.344 . S
C1717 C161 1.171 1_545 S
C1722 N451 1.217 . S
C1747 C172 1.062 . S
C1752 N464 1.102 . S
C1777 C183 1.380 . S
C1782 N477 1.450 . S
C1812 N490 1.105 . S
C1807 C194 1.063 . S
C1842 N503 1.344 . S
C1837 C205 1.240 . S
C1872 N516 1.220 . S
C1867 C216 1.172 1_554 S
C1902 N529 1.450 . S
C1897 C227 1.380 . S
C1927 C238 1.062 . S
C1932 N542 1.102 . S
C1957 C249 1.240 . S
C1962 N555 1.344 . S
C1987 C260 1.171 1_455 S
C1992 N568 1.217 . S
C2017 C5 1.341 . S
C2022 N370 1.512 . S
C2052 N409 1.503 . S
C2047 C16 1.370 . S
C2077 C27 1.254 1_545 S
C2082 N383 1.411 . S
C2112 N396 1.558 . S
C2107 C38 1.354 1_565 S
C2137 C49 1.341 . S
C2142 N266 1.512 . S
C2167 C60 1.358 1_556 S
C2172 N279 1.557 . S
C2197 C71 1.370 . S
C2202 N292 1.503 . S
C2227 C82 1.254 1_554 S
C2232 N305 1.411 . S
C2262 N318 1.512 . S
C2257 C93 1.341 . S
C2292 N344 1.558 . S
C2287 C104 1.354 1_655 S
C2317 C115 1.370 . S
C2322 N357 1.503 . S
C2347 C126 1.254 1_455 S
C2352 N331 1.411 . S
C2382 N526 1.514 . S
C2377 C137 1.227 . S
C2412 N565 1.506 . S
C2407 C148 1.164 . S
C2437 C159 1.180 . S
C2442 N539 1.411 . S
C2472 N552 1.563 . S
C2467 C170 1.205 . S
C2497 C181 1.227 . S
C2502 N422 1.513 . S
C2527 C192 1.202 . S
C2532 N435 1.562 . S
C2557 C203 1.164 . S
C2562 N448 1.506 . S
C2592 N461 1.412 . S
C2587 C214 1.180 . S
C2622 N474 1.513 . S
C2617 C225 1.227 . S
C2652 N500 1.563 . S
C2647 C236 1.205 . S
C2677 C247 1.164 . S
C2682 N513 1.506 . S
C2712 N487 1.412 . S
C2707 C258 1.180 . S
