# Generated by pormake.
# Topology pyr, (3,6)-cn, num edge types: 1
# Building blocks:
#     Node 0, Type 0, BuildingBlock: ESEHIV_clean_linker_0, # of connection points: 3
#     Node 1, Type 0, BuildingBlock: ESEHIV_clean_linker_0, # of connection points: 3
#     Node 2, Type 0, BuildingBlock: ESEHIV_clean_linker_0, # of connection points: 3
#     Node 3, Type 0, BuildingBlock: ESEHIV_clean_linker_0, # of connection points: 3
#     Node 4, Type 0, BuildingBlock: ESEHIV_clean_linker_0, # of connection points: 3
#     Node 5, Type 0, BuildingBlock: ESEHIV_clean_linker_0, # of connection points: 3
#     Node 6, Type 0, BuildingBlock: ESEHIV_clean_linker_0, # of connection points: 3
#     Node 7, Type 0, BuildingBlock: ESEHIV_clean_linker_0, # of connection points: 3
#     Node 8, Type 1, BuildingBlock: VOLQOD_clean_sbu_1, # of connection points: 6
#     Node 9, Type 1, BuildingBlock: VOLQOD_clean_sbu_1, # of connection points: 6
#     Node 10, Type 1, BuildingBlock: VOLQOD_clean_sbu_1, # of connection points: 6
#     Node 11, Type 1, BuildingBlock: VOLQOD_clean_sbu_1, # of connection points: 6
#     Edge 12, Type (0, 1), BuildingBlock: KIFKEQ_clean_linker_1, # of connection points: 2
#     Edge 13, Type (0, 1), BuildingBlock: KIFKEQ_clean_linker_1, # of connection points: 2
#     Edge 14, Type (0, 1), BuildingBlock: KIFKEQ_clean_linker_1, # of connection points: 2
#     Edge 15, Type (0, 1), BuildingBlock: KIFKEQ_clean_linker_1, # of connection points: 2
#     Edge 16, Type (0, 1), BuildingBlock: KIFKEQ_clean_linker_1, # of connection points: 2
#     Edge 17, Type (0, 1), BuildingBlock: KIFKEQ_clean_linker_1, # of connection points: 2
#     Edge 18, Type (0, 1), BuildingBlock: KIFKEQ_clean_linker_1, # of connection points: 2
#     Edge 19, Type (0, 1), BuildingBlock: KIFKEQ_clean_linker_1, # of connection points: 2
#     Edge 20, Type (0, 1), BuildingBlock: KIFKEQ_clean_linker_1, # of connection points: 2
#     Edge 21, Type (0, 1), BuildingBlock: KIFKEQ_clean_linker_1, # of connection points: 2
#     Edge 22, Type (0, 1), BuildingBlock: KIFKEQ_clean_linker_1, # of connection points: 2
#     Edge 23, Type (0, 1), BuildingBlock: KIFKEQ_clean_linker_1, # of connection points: 2
#     Edge 24, Type (0, 1), BuildingBlock: KIFKEQ_clean_linker_1, # of connection points: 2
#     Edge 25, Type (0, 1), BuildingBlock: KIFKEQ_clean_linker_1, # of connection points: 2
#     Edge 26, Type (0, 1), BuildingBlock: KIFKEQ_clean_linker_1, # of connection points: 2
#     Edge 27, Type (0, 1), BuildingBlock: KIFKEQ_clean_linker_1, # of connection points: 2
#     Edge 28, Type (0, 1), BuildingBlock: KIFKEQ_clean_linker_1, # of connection points: 2
#     Edge 29, Type (0, 1), BuildingBlock: KIFKEQ_clean_linker_1, # of connection points: 2
#     Edge 30, Type (0, 1), BuildingBlock: KIFKEQ_clean_linker_1, # of connection points: 2
#     Edge 31, Type (0, 1), BuildingBlock: KIFKEQ_clean_linker_1, # of connection points: 2
#     Edge 32, Type (0, 1), BuildingBlock: KIFKEQ_clean_linker_1, # of connection points: 2
#     Edge 33, Type (0, 1), BuildingBlock: KIFKEQ_clean_linker_1, # of connection points: 2
#     Edge 34, Type (0, 1), BuildingBlock: KIFKEQ_clean_linker_1, # of connection points: 2
#     Edge 35, Type (0, 1), BuildingBlock: KIFKEQ_clean_linker_1, # of connection points: 2
# Relax obj value: 0.035
# Max RMSD: 0.118
# Mean RMSD: 0.043
data_MOF--net-pry--node1-VOLQOD_clean_sbu_1--node2-ESEHIV_clean_linker_0--edge1-KIFKEQ_clean_linker_1
_symmetry_space_group_name_H-M    P1
_symmetry_Int_Tables_number       1
_symmetry_cell_setting            triclinic
loop_
_symmetry_equiv_pos_as_xyz
'x, y, z'
_cell_length_a     36.016443
_cell_length_b     35.987684
_cell_length_c     36.20914
_cell_angle_alpha  90.171675
_cell_angle_beta   90.029855
_cell_angle_gamma 90.30041
loop_
_atom_site_label
_atom_site_type_symbol
_atom_site_fract_x
_atom_site_fract_y
_atom_site_fract_z
_atom_type_partial_charge
H0 H 0.0713 0.16369 0.17023 0.0
H1 H 0.15738 0.08153 0.16414 0.0
H2 H 0.14822 0.16428 0.07944 0.0
C3 C 0.0946 0.15143 0.15583 0.0
C4 C 0.1072 0.16741 0.12272 0.0
C5 C 0.11258 0.12047 0.17106 0.0
C6 C 0.14313 0.10516 0.1524 0.0
C7 C 0.1562 0.12083 0.11937 0.0
C8 C 0.1379 0.15176 0.10463 0.0
H9 H 0.35656 0.93205 0.66398 0.0
H10 H 0.44615 0.85352 0.663 0.0
H11 H 0.35976 0.84693 0.58092 0.0
C12 C 0.37031 0.90831 0.6517 0.0
C13 C 0.35458 0.89123 0.62055 0.0
C14 C 0.40316 0.8948 0.66744 0.0
C15 C 0.42101 0.86441 0.65079 0.0
C16 C 0.40582 0.84715 0.61924 0.0
C17 C 0.37267 0.86098 0.60417 0.0
H18 H 0.65203 0.35948 0.93856 0.0
H19 H 0.65344 0.44476 0.85579 0.0
H20 H 0.56676 0.36229 0.85538 0.0
C21 C 0.63909 0.37302 0.91519 0.0
C22 C 0.60663 0.35778 0.89958 0.0
C23 C 0.65641 0.40409 0.89921 0.0
C24 C 0.64045 0.42044 0.86788 0.0
C25 C 0.60833 0.40539 0.85164 0.0
C26 C 0.59132 0.37435 0.86797 0.0
H27 H 0.85859 0.6524 0.44266 0.0
H28 H 0.93892 0.65888 0.35533 0.0
H29 H 0.86004 0.56879 0.35747 0.0
C30 C 0.87128 0.6402 0.41837 0.0
C31 C 0.85552 0.60841 0.40196 0.0
C32 C 0.90153 0.6582 0.40168 0.0
C33 C 0.91652 0.64398 0.36885 0.0
C34 C 0.90164 0.61175 0.35259 0.0
C35 C 0.8716 0.59381 0.36974 0.0
H36 H 0.86588 0.96654 0.88661 0.0
H37 H 0.9492 0.88197 0.87302 0.0
H38 H 0.86585 0.8711 0.95715 0.0
C39 C 0.87901 0.94108 0.89557 0.0
C40 C 0.86294 0.92066 0.92433 0.0
C41 C 0.91017 0.92733 0.8766 0.0
C42 C 0.92621 0.89374 0.88831 0.0
C43 C 0.91048 0.87333 0.91741 0.0
C44 C 0.87888 0.8871 0.93533 0.0
H45 H 0.56054 0.13435 0.37721 0.0
H46 H 0.64105 0.04668 0.38097 0.0
H47 H 0.64385 0.13386 0.46221 0.0
C48 C 0.58312 0.12041 0.39118 0.0
C49 C 0.5992 0.13693 0.42261 0.0
C50 C 0.59843 0.08815 0.37559 0.0
C51 C 0.62915 0.07166 0.39273 0.0
C52 C 0.64604 0.0882 0.42362 0.0
C53 C 0.63045 0.12042 0.43888 0.0
H54 H 0.37106 0.64355 0.05933 0.0
H55 H 0.37427 0.55488 0.13853 0.0
H56 H 0.46004 0.63823 0.13825 0.0
C57 C 0.3856 0.62884 0.081 0.0
C58 C 0.41777 0.64455 0.09664 0.0
C59 C 0.36992 0.59627 0.09576 0.0
C60 C 0.38718 0.57901 0.12598 0.0
C61 C 0.41937 0.59437 0.14181 0.0
C62 C 0.43513 0.62634 0.12612 0.0
H63 H 0.06176 0.37287 0.64413 0.0
H64 H 0.13729 0.37837 0.55203 0.0
H65 H 0.1381 0.46417 0.63441 0.0
C66 C 0.08236 0.38778 0.62811 0.0
C67 C 0.09718 0.42103 0.64232 0.0
C68 C 0.0964 0.372 0.59536 0.0
C69 C 0.12542 0.39047 0.57673 0.0
C70 C 0.1414 0.42294 0.59142 0.0
C71 C 0.12608 0.43881 0.6233 0.0
O72 O 0.99461 0.09218 0.54897 0.0
Zn73 Zn 0.97385 0.04004 0.54777 0.0
O74 O 0.00594 0.00707 0.51916 0.0
Zn75 Zn 0.98092 0.9919 0.47393 0.0
Zn76 Zn 0.05176 0.03314 0.50668 0.0
Zn77 Zn 0.0172 0.96293 0.54801 0.0
O78 O 0.98019 0.93644 0.4689 0.0
O79 O 0.99598 0.91637 0.52471 0.0
O80 O 0.92233 0.0415 0.52624 0.0
O81 O 0.92762 0.00804 0.4749 0.0
O82 O 0.00547 0.01338 0.42875 0.0
O83 O 0.05587 0.04055 0.45178 0.0
O84 O 0.09681 0.00506 0.52369 0.0
O85 O 0.96958 0.02244 0.60057 0.0
O86 O 0.07231 0.95597 0.55174 0.0
O87 O -0.00169 0.968 0.59986 0.0
C88 C 0.02713 0.1047 0.54268 0.0
C89 C 0.98463 0.91019 0.49194 0.0
C90 C 0.03544 0.03177 0.42437 0.0
C91 C 0.90819 0.02726 0.49719 0.0
C92 C 0.10046 0.97463 0.54115 0.0
C93 C 0.9805 0.99319 0.61699 0.0
O94 O 0.05248 0.08424 0.52913 0.0
O95 O 0.49435 0.09074 0.97644 0.0
Zn96 Zn 0.47294 0.03914 0.98259 0.0
O97 O 0.50412 0.00903 0.01514 0.0
Zn98 Zn 0.5232 0.96622 0.98814 0.0
Zn99 Zn 0.54585 0.03899 0.0329 0.0
Zn100 Zn 0.47488 0.99135 0.05707 0.0
O101 O 0.50435 0.91813 0.00903 0.0
O102 O 0.47051 0.93561 0.05711 0.0
O103 O 0.46912 0.01583 0.93194 0.0
O104 O 0.50699 0.96745 0.93519 0.0
O105 O 0.5788 0.96478 0.98941 0.0
O106 O 0.59498 0.01756 0.0172 0.0
O107 O 0.54577 0.04187 0.08826 0.0
O108 O 0.42124 0.04468 0.00347 0.0
O109 O 0.49745 0.00753 0.10548 0.0
O110 O 0.42324 0.0117 0.05515 0.0
C111 C 0.52221 0.10736 0.99072 0.0
C112 C 0.4836 0.91025 0.03634 0.0
C113 C 0.60352 0.98736 0.00101 0.0
C114 C 0.48494 0.98799 0.91698 0.0
C115 C 0.52535 0.02792 0.11341 0.0
C116 C 0.40571 0.03221 0.03256 0.0
O117 O 0.54371 0.09086 0.01315 0.0
O118 O 0.53969 0.50796 0.58142 0.0
Zn119 Zn 0.53515 0.52969 0.53065 0.0
O120 O 0.50332 0.49868 0.49927 0.0
Zn121 Zn 0.53186 0.48032 0.4572 0.0
Zn122 Zn 0.48445 0.45645 0.52764 0.0
Zn123 Zn 0.4618 0.52836 0.48146 0.0
O124 O 0.50943 0.49623 0.40872 0.0
O125 O 0.46221 0.53148 0.42628 0.0
O126 O 0.5866 0.53461 0.50954 0.0
O127 O 0.58418 0.4998 0.45888 0.0
O128 O 0.53477 0.42468 0.45751 0.0
O129 O 0.50114 0.4076 0.50595 0.0
O130 O 0.42875 0.45645 0.52897 0.0
O131 O 0.51436 0.58111 0.53664 0.0
O132 O 0.41279 0.506 0.49635 0.0
O133 O 0.46361 0.58046 0.5019 0.0
C134 C 0.52495 0.48004 0.59731 0.0
C135 C 0.48205 0.51707 0.40099 0.0
C136 C 0.5213 0.39949 0.47823 0.0
C137 C 0.60201 0.52092 0.48098 0.0
C138 C 0.40405 0.47755 0.51531 0.0
C139 C 0.48593 0.59733 0.52355 0.0
O140 O 0.50286 0.45833 0.58011 0.0
O141 O 0.97078 0.50772 0.08242 0.0
Zn142 Zn 0.97645 0.48398 0.0325 0.0
O143 O 0.00857 0.51419 0.00076 0.0
Zn144 Zn 0.98031 0.53047 0.95786 0.0
Zn145 Zn 0.02645 0.5578 0.02797 0.0
Zn146 Zn 0.05093 0.48459 0.98445 0.0
O147 O 0.00287 0.51193 0.91059 0.0
O148 O 0.05157 0.47944 0.92923 0.0
O149 O 0.92528 0.47737 0.01061 0.0
O150 O 0.92801 0.5112 0.95956 0.0
O151 O 0.97796 0.58604 0.9553 0.0
O152 O 0.01081 0.60558 0.0035 0.0
O153 O 0.08208 0.55783 0.03175 0.0
O154 O -0.00208 0.43315 0.04044 0.0
O155 O 0.09949 0.50781 0.00034 0.0
O156 O 0.04893 0.43315 0.00608 0.0
C157 C 0.98438 0.53682 0.09737 0.0
C158 C 0.03094 0.49179 0.90352 0.0
C159 C 0.99135 0.61228 0.97492 0.0
C160 C 0.9101 0.49031 0.98163 0.0
C161 C 0.10739 0.53662 0.01935 0.0
C162 C 0.02658 0.4168 0.02799 0.0
O163 O 0.0062 0.5583 0.07971 0.0
H164 H 0.04175 0.10952 0.19683 0.0
H165 H 0.15695 0.0979 0.22791 0.0
H166 H 0.02292 0.08786 0.25784 0.0
H167 H 0.13818 0.07449 0.288 0.0
H168 H 0.0934 0.07709 0.40533 0.0
H169 H 0.11126 0.0976 0.34394 0.0
H170 H 0.02125 0.03335 0.2967 0.0
H171 H 0.00267 0.01355 0.35835 0.0
C172 C 0.06304 0.10218 0.2166 0.0
C173 C 0.10085 0.10547 0.20746 0.0
C174 C 0.05225 0.08936 0.25142 0.0
C175 C 0.07904 0.0795 0.27786 0.0
C176 C 0.11682 0.08231 0.26849 0.0
C177 C 0.12758 0.09524 0.2338 0.0
C178 C 0.07741 0.06724 0.38189 0.0
C179 C 0.0466 0.04363 0.38682 0.0
C180 C 0.0878 0.07886 0.34662 0.0
C181 C 0.06778 0.06702 0.31534 0.0
C182 C 0.037 0.04335 0.32023 0.0
C183 C 0.02648 0.03183 0.35557 0.0
H184 H 0.47542 0.9094 0.68754 0.0
H185 H 0.36249 0.91615 0.72731 0.0
H186 H 0.49769 0.93497 0.74628 0.0
H187 H 0.38466 0.94216 0.78528 0.0
H188 H 0.43274 0.01907 0.87178 0.0
H189 H 0.41526 -0.00072 0.80967 0.0
H190 H 0.49971 0.91459 0.81238 0.0
H191 H 0.51753 0.93446 0.87433 0.0
C192 C 0.45539 0.91631 0.70874 0.0
C193 C 0.41717 0.91098 0.70261 0.0
C194 C 0.46812 0.93103 0.74227 0.0
C195 C 0.44287 0.94086 0.77019 0.0
C196 C 0.40473 0.93561 0.76399 0.0
C197 C 0.39205 0.92072 0.7307 0.0
C198 C 0.44786 0.99648 0.85903 0.0
C199 C 0.47631 0.97814 0.87818 0.0
C200 C 0.43773 0.98506 0.82352 0.0
C201 C 0.45597 0.95523 0.80632 0.0
C202 C 0.48535 0.93783 0.82485 0.0
C203 C 0.49535 0.94909 0.86045 0.0
H204 H 0.64923 0.42775 0.79224 0.0
H205 H 0.53598 0.4157 0.83004 0.0
H206 H 0.62696 0.44882 0.73255 0.0
H207 H 0.51368 0.43625 0.76969 0.0
H208 H 0.496 0.42592 0.64203 0.0
H209 H 0.51441 0.41097 0.70507 0.0
H210 H 0.5935 0.50156 0.70392 0.0
H211 H 0.57548 0.51642 0.64085 0.0
C212 C 0.61957 0.43022 0.78807 0.0
C213 C 0.59438 0.42019 0.81602 0.0
C214 C 0.60683 0.4422 0.75378 0.0
C215 C 0.5686 0.44422 0.7465 0.0
C216 C 0.54332 0.4346 0.77447 0.0
C217 C 0.55608 0.42281 0.80895 0.0
C218 C 0.51717 0.4428 0.65526 0.0
C219 C 0.53447 0.47219 0.63626 0.0
C220 C 0.5275 0.43438 0.69146 0.0
C221 C 0.55547 0.45503 0.70931 0.0
C222 C 0.57215 0.48492 0.69066 0.0
C223 C 0.56171 0.49348 0.65457 0.0
H224 H 0.97367 0.60733 0.3284 0.0
H225 H 0.86033 0.58719 0.29416 0.0
H226 H 0.9954 0.58775 0.26742 0.0
H227 H 0.88203 0.56731 0.23374 0.0
H228 H 0.93552 0.50007 0.1422 0.0
H229 H 0.91745 0.51627 0.20497 0.0
H230 H 0.99187 0.61073 0.20261 0.0
H231 H 0.01041 0.59439 0.13989 0.0
C232 C 0.95344 0.59872 0.30791 0.0
C233 C 0.91531 0.59857 0.31621 0.0
C234 C 0.96586 0.58753 0.27306 0.0
C235 C 0.9404 0.57586 0.24592 0.0
C236 C 0.90235 0.5755 0.25432 0.0
C237 C 0.88994 0.58682 0.289 0.0
C238 C 0.94819 0.52421 0.15505 0.0
C239 C 0.97427 0.54605 0.1359 0.0
C240 C 0.93771 0.53355 0.19097 0.0
C241 C 0.95315 0.56483 0.2086 0.0
C242 C 0.97977 0.58626 0.18982 0.0
C243 C 0.99017 0.57702 0.1538 0.0
H244 H 0.21384 0.16081 0.09031 0.0
H245 H 0.1762 0.0482 0.10887 0.0
H246 H 0.27193 0.13743 0.06523 0.0
H247 H 0.23466 0.0248 0.08405 0.0
H248 H 0.36195 0.00573 0.08825 0.0
H249 H 0.29983 0.02567 0.10517 0.0
H250 H 0.29909 0.10192 0.01329 0.0
H251 H 0.36166 0.0823 0.99644 0.0
C252 C 0.21767 0.13104 0.0884 0.0
C253 C 0.1904 0.10635 0.10166 0.0
C254 C 0.25099 0.11765 0.07404 0.0
C255 C 0.25789 0.07929 0.07276 0.0
C256 C 0.2303 0.05454 0.08515 0.0
C257 C 0.19688 0.06793 0.09939 0.0
C258 C 0.34853 0.02658 0.07144 0.0
C259 C 0.36693 0.0426 0.04111 0.0
C260 C 0.31277 0.0378 0.08101 0.0
C261 C 0.29461 0.06539 0.06059 0.0
C262 C 0.31259 0.08084 0.02975 0.0
C263 C 0.34834 0.06947 0.02002 0.0
H264 H 0.33302 0.9049 0.54932 0.0
H265 H 0.29297 0.90405 0.66173 0.0
H266 H 0.27139 0.92409 0.52791 0.0
H267 H 0.23191 0.92351 0.64052 0.0
H268 H 0.11864 0.91648 0.58575 0.0
H269 H 0.18041 0.89549 0.60287 0.0
H270 H 0.22935 0.9807 0.53444 0.0
H271 H 0.1674 0.00185 0.51702 0.0
C272 C 0.31105 0.90882 0.56936 0.0
C273 C 0.31772 0.90321 0.60715 0.0
C274 C 0.27597 0.91999 0.55718 0.0
C275 C 0.24694 0.92516 0.58258 0.0
C276 C 0.25368 0.91938 0.62031 0.0
C277 C 0.28871 0.90861 0.63247 0.0
C278 C 0.14249 0.93069 0.57414 0.0
C279 C 0.13806 0.96101 0.55018 0.0
C280 C 0.17786 0.91873 0.58409 0.0
C281 C 0.20959 0.93662 0.57013 0.0
C282 C 0.20531 0.96629 0.54542 0.0
C283 C 0.16985 0.97851 0.53566 0.0
H284 H 0.67778 0.41555 0.97116 0.0
H285 H 0.71727 0.42283 0.85878 0.0
H286 H 0.73803 0.43822 0.99342 0.0
H287 H 0.77709 0.44509 0.88081 0.0
H288 H 0.86672 0.51859 0.9268 0.0
H289 H 0.80435 0.49946 0.90926 0.0
H290 H 0.80317 0.41913 0.9977 0.0
H291 H 0.8655 0.43891 0.01594 0.0
C292 C 0.69935 0.42189 0.95128 0.0
C293 C 0.69268 0.41784 0.91323 0.0
C294 C 0.73381 0.4348 0.96399 0.0
C295 C 0.76222 0.4438 0.93886 0.0
C296 C 0.75554 0.43929 0.90087 0.0
C297 C 0.72123 0.42651 0.88822 0.0
C298 C 0.85316 0.49698 0.9427 0.0
C299 C 0.87127 0.48005 0.97259 0.0
C300 C 0.81743 0.48589 0.93251 0.0
C301 C 0.79897 0.45747 0.95181 0.0
C302 C 0.81656 0.44128 0.98243 0.0
C303 C 0.85235 0.4525 0.99275 0.0
H304 H 0.83464 0.59529 0.47381 0.0
H305 H 0.79566 0.58732 0.36118 0.0
H306 H 0.77478 0.57122 0.49558 0.0
H307 H 0.73641 0.5636 0.3827 0.0
H308 H 0.64608 0.49119 0.42729 0.0
H309 H 0.7091 0.50924 0.41101 0.0
H310 H 0.70952 0.59068 0.49892 0.0
H311 H 0.64662 0.57201 0.51591 0.0
C312 C 0.81335 0.58835 0.45377 0.0
C313 C 0.82001 0.59275 0.41579 0.0
C314 C 0.77913 0.57464 0.46619 0.0
C315 C 0.75099 0.56519 0.44083 0.0
C316 C 0.75777 0.56973 0.40292 0.0
C317 C 0.7918 0.58333 0.39057 0.0
C318 C 0.65963 0.51279 0.44335 0.0
C319 C 0.64113 0.53043 0.47266 0.0
C320 C 0.69573 0.52321 0.43392 0.0
C321 C 0.71415 0.55166 0.45342 0.0
C322 C 0.69619 0.56846 0.48355 0.0
C323 C 0.66004 0.55791 0.49311 0.0
H324 H 0.08436 0.22839 0.16173 0.0
H325 H 0.09176 0.18466 0.05068 0.0
H326 H 0.06112 0.28689 0.13749 0.0
H327 H 0.06914 0.2436 0.02645 0.0
H328 H 0.07983 0.36998 0.00125 0.0
H329 H 0.09529 0.30805 0.02329 0.0
H330 H 0.00725 0.31461 0.10393 0.0
H331 H 0.99178 0.37672 0.08211 0.0
C332 C 0.08039 0.23098 0.13221 0.0
C333 C 0.09005 0.20185 0.10814 0.0
C334 C 0.06716 0.26456 0.11833 0.0
C335 C 0.06351 0.26985 0.08008 0.0
C336 C 0.07218 0.24045 0.05604 0.0
C337 C 0.08518 0.20676 0.06992 0.0
C338 C 0.0636 0.35819 0.02354 0.0
C339 C 0.03468 0.37841 0.04003 0.0
C340 C 0.07231 0.3226 0.03598 0.0
C341 C 0.05248 0.30654 0.06534 0.0
C342 C 0.0232 0.32645 0.08146 0.0
C343 C 0.01426 0.36195 0.06883 0.0
H344 H 0.59646 0.33853 0.97208 0.0
H345 H 0.58071 0.29786 0.86072 0.0
H346 H 0.57258 0.27971 0.99622 0.0
H347 H 0.55664 0.23951 0.88478 0.0
H348 H 0.487 0.1501 0.93904 0.0
H349 H 0.50389 0.21258 0.91896 0.0
H350 H 0.5939 0.21468 0.99783 0.0
H351 H 0.57685 0.15257 0.01831 0.0
C352 C 0.58784 0.3171 0.95279 0.0
C353 C 0.59038 0.32292 0.9145 0.0
C354 C 0.57415 0.28348 0.96659 0.0
C355 C 0.56265 0.25505 0.94238 0.0
C356 C 0.56464 0.26112 0.90414 0.0
C357 C 0.57842 0.29461 0.89036 0.0
C358 C 0.51018 0.16399 0.95234 0.0
C359 C 0.53072 0.14619 0.9801 0.0
C360 C 0.51995 0.19972 0.94071 0.0
C361 C 0.55032 0.21845 0.95671 0.0
C362 C 0.57013 0.20112 0.98523 0.0
C363 C 0.56048 0.16538 0.99676 0.0
H364 H 0.89975 0.72429 0.36679 0.0
H365 H 0.93264 0.67276 0.46892 0.0
H366 H 0.92063 0.78438 0.38984 0.0
H367 H 0.95599 0.73262 0.49166 0.0
H368 H 0.95909 0.85291 0.53445 0.0
H369 H 0.93943 0.79135 0.51355 0.0
H370 H 0.97296 0.81934 0.40224 0.0
H371 H 0.99016 0.88133 0.4229 0.0
C372 C 0.91203 0.72597 0.39408 0.0
C373 C 0.91487 0.69419 0.41611 0.0
C374 C 0.92433 0.7603 0.40727 0.0
C375 C 0.94055 0.76351 0.44254 0.0
C376 C 0.9433 0.73142 0.46458 0.0
C377 C 0.93021 0.69711 0.45158 0.0
C378 C 0.96231 0.84568 0.50557 0.0
C379 C 0.97573 0.87191 0.48019 0.0
C380 C 0.95125 0.81033 0.49355 0.0
C381 C 0.95414 0.8003 0.45603 0.0
C382 C 0.96916 0.82627 0.4311 0.0
C383 C 0.97935 0.86178 0.44295 0.0
H384 H 0.43459 0.78821 0.65701 0.0
H385 H 0.4145 0.8282 0.5464 0.0
H386 H 0.45749 0.72989 0.63186 0.0
H387 H 0.43709 0.76947 0.52124 0.0
H388 H 0.43004 0.64224 0.49902 0.0
H389 H 0.4145 0.7044 0.52065 0.0
H390 H 0.50824 0.70258 0.59505 0.0
H391 H 0.52365 0.6402 0.57381 0.0
C392 C 0.43574 0.78487 0.6273 0.0
C393 C 0.42268 0.81289 0.60371 0.0
C394 C 0.4488 0.75138 0.61289 0.0
C395 C 0.44897 0.74505 0.57458 0.0
C396 C 0.43681 0.77337 0.55091 0.0
C397 C 0.42388 0.80697 0.56532 0.0
C398 C 0.44752 0.65514 0.51981 0.0
C399 C 0.47796 0.63608 0.53484 0.0
C400 C 0.43874 0.69088 0.53202 0.0
C401 C 0.46009 0.70832 0.55963 0.0
C402 C 0.49102 0.68966 0.57405 0.0
C403 C 0.49992 0.65398 0.56172 0.0
H404 H 0.98151 0.93678 0.85142 0.0
H405 H 0.867 0.95666 0.82197 0.0
H406 H 0.00087 0.95741 0.79009 0.0
H407 H 0.88642 0.97776 0.76131 0.0
H408 H 0.93601 0.03577 0.66147 0.0
H409 H 0.92167 0.02594 0.72667 0.0
H410 H 0.99268 0.92962 0.7276 0.0
H411 H 0.00728 0.93945 0.66277 0.0
C412 C 0.96054 0.94595 0.83208 0.0
C413 C 0.92271 0.94494 0.84164 0.0
C414 C 0.97162 0.95776 0.79701 0.0
C415 C 0.94513 0.96901 0.77086 0.0
C416 C 0.90753 0.96972 0.78101 0.0
C417 C 0.89643 0.95771 0.81592 0.0
C418 C 0.94875 0.01264 0.67565 0.0
C419 C 0.97258 0.98824 0.65681 0.0
C420 C 0.94048 0.007 0.71295 0.0
C421 C 0.95611 0.97706 0.73223 0.0
C422 C 0.9806 0.95323 0.71363 0.0
C423 C 0.98866 0.95869 0.67634 0.0
H424 H 0.64185 0.06555 0.31829 0.0
H425 H 0.52709 0.08181 0.34898 0.0
H426 H 0.62281 0.04848 0.25628 0.0
H427 H 0.50806 0.06612 0.28586 0.0
H428 H 0.48926 0.0027 0.17533 0.0
H429 H 0.50567 0.01466 0.23981 0.0
H430 H 0.59788 0.08294 0.20431 0.0
H431 H 0.5821 0.07064 0.14024 0.0
C432 C 0.61245 0.06494 0.312 0.0
C433 C 0.58595 0.07488 0.33871 0.0
C434 C 0.6016 0.05569 0.27621 0.0
C435 C 0.56399 0.0564 0.26606 0.0
C436 C 0.53726 0.06521 0.29294 0.0
C437 C 0.54816 0.07447 0.32895 0.0
C438 C 0.51305 0.02025 0.18131 0.0
C439 C 0.5345 0.03553 0.15258 0.0
C440 C 0.5223 0.02722 0.21823 0.0
C441 C 0.55322 0.04947 0.2271 0.0
C442 C 0.5743 0.06509 0.19837 0.0
C443 C 0.5651 0.05819 0.16159 0.0
H444 H 0.43819 0.6363 0.20141 0.0
H445 H 0.42996 0.52225 0.16444 0.0
H446 H 0.45512 0.6154 0.26279 0.0
H447 H 0.44634 0.5012 0.2268 0.0
H448 H 0.5135 0.48738 0.33843 0.0
H449 H 0.50039 0.50408 0.27421 0.0
H450 H 0.41797 0.58236 0.31146 0.0
H451 H 0.43088 0.56606 0.3752 0.0
C452 C 0.44065 0.60672 0.20621 0.0
C453 C 0.43295 0.58089 0.178 0.0
C454 C 0.4499 0.59478 0.24153 0.0
C455 C 0.45165 0.55672 0.24957 0.0
C456 C 0.44523 0.53072 0.22121 0.0
C457 C 0.43569 0.54273 0.1857 0.0
C458 C 0.49251 0.50807 0.33287 0.0
C459 C 0.47343 0.52559 0.36198 0.0
C460 C 0.48493 0.51743 0.29615 0.0
C461 C 0.45846 0.54473 0.288 0.0
C462 C 0.43893 0.56162 0.31703 0.0
C463 C 0.44625 0.55213 0.35355 0.0
H464 H 0.14261 0.44557 0.69749 0.0
H465 H 0.02704 0.42579 0.67149 0.0
H466 H 0.1256 0.46455 0.75958 0.0
H467 H 0.01007 0.44352 0.73456 0.0
H468 H 0.99365 0.51289 0.84104 0.0
H469 H 0.00875 0.4975 0.77711 0.0
H470 H 0.10247 0.43326 0.81446 0.0
H471 H 0.08795 0.44906 0.87811 0.0
C472 C 0.11348 0.44571 0.70489 0.0
C473 C 0.08611 0.43443 0.67947 0.0
C474 C 0.1038 0.45608 0.74068 0.0
C475 C 0.06655 0.45522 0.75204 0.0
C476 C 0.039 0.44466 0.72649 0.0
C477 C 0.04872 0.43425 0.69054 0.0
C478 C 0.01751 0.49552 0.83561 0.0
C479 C 0.0397 0.48235 0.86472 0.0
C480 C 0.026 0.48656 0.799 0.0
C481 C 0.05687 0.46434 0.79078 0.0
C482 C 0.07884 0.45096 0.81989 0.0
C483 C 0.07038 0.45987 0.85641 0.0
H484 H 0.8446 0.98192 0.96516 0.0
H485 H 0.79908 0.88291 0.91507 0.0
H486 H 0.78293 0.99823 0.98858 0.0
H487 H 0.73738 0.89985 0.93592 0.0
H488 H 0.63479 0.919 1e-05 0.0
H489 H 0.69887 0.90333 0.98631 0.0
H490 H 0.72449 0.02 0.97162 0.0
H491 H 0.66073 0.03554 0.988 0.0
C492 C 0.82121 0.96385 0.95913 0.0
C493 C 0.82626 0.93108 0.9388 0.0
C494 C 0.78588 0.9732 0.97222 0.0
C495 C 0.75497 0.95026 0.96445 0.0
C496 C 0.76044 0.91771 0.94353 0.0
C497 C 0.79572 0.90807 0.93123 0.0
C498 C 0.6543 0.94124 0.99417 0.0
C499 C 0.64286 0.97841 0.99475 0.0
C500 C 0.69101 0.93232 0.986 0.0
C501 C 0.71694 0.9603 0.97709 0.0
C502 C 0.70557 0.99766 0.97868 0.0
C503 C 0.66897 0.00663 0.98783 0.0
H504 H 0.70497 0.06869 0.38115 0.0
H505 H 0.67044 0.07907 0.49494 0.0
H506 H 0.76676 0.05138 0.40102 0.0
H507 H 0.73276 0.06121 0.51509 0.0
H508 H 0.86016 0.07526 0.53115 0.0
H509 H 0.79541 0.08675 0.51536 0.0
H510 H 0.80118 0.00281 0.42998 0.0
H511 H 0.86604 0.99212 0.44495 0.0
C512 C 0.71037 0.06643 0.4105 0.0
C513 C 0.68271 0.07489 0.4365 0.0
C514 C 0.74588 0.05651 0.42191 0.0
C515 C 0.7547 0.05472 0.45965 0.0
C516 C 0.72693 0.06271 0.48579 0.0
C517 C 0.69127 0.0728 0.4743 0.0
C518 C 0.84755 0.05917 0.5091 0.0
C519 C 0.8684 0.0331 0.48901 0.0
C520 C 0.81035 0.06556 0.50024 0.0
C521 C 0.79318 0.04586 0.47125 0.0
C522 C 0.81376 0.01897 0.452 0.0
C523 C 0.85095 0.01278 0.46065 0.0
H524 H 0.34534 0.5866 0.02472 0.0
H525 H 0.3104 0.57853 0.13853 0.0
H526 H 0.28204 0.57115 0.00458 0.0
H527 H 0.24767 0.5628 0.11849 0.0
H528 H 0.13364 0.58744 0.06907 0.0
H529 H 0.19793 0.59971 0.08611 0.0
H530 H 0.2346 0.51732 0.00748 0.0
H531 H 0.17001 0.5048 0.99023 0.0
C532 C 0.32423 0.58114 0.04535 0.0
C533 C 0.33279 0.58359 0.08316 0.0
C534 C 0.28817 0.57217 0.03386 0.0
C535 C 0.26 0.56605 0.06001 0.0
C536 C 0.2688 0.56775 0.09776 0.0
C537 C 0.3048 0.57633 0.10921 0.0
C538 C 0.15532 0.57199 0.05523 0.0
C539 C 0.14665 0.54502 0.02838 0.0
C540 C 0.19214 0.57889 0.06518 0.0
C541 C 0.22116 0.55925 0.0483 0.0
C542 C 0.21271 0.5329 0.02083 0.0
C543 C 0.17575 0.52567 0.01111 0.0
H544 H 0.20159 0.44131 0.63266 0.0
H545 H 0.16415 0.43307 0.51948 0.0
H546 H 0.26393 0.45578 0.61155 0.0
H547 H 0.22746 0.44712 0.49824 0.0
H548 H 0.3428 0.51108 0.48531 0.0
H549 H 0.27763 0.50012 0.50134 0.0
H550 H 0.31088 0.41521 0.57835 0.0
H551 H 0.37567 0.42591 0.5626 0.0
C552 C 0.20648 0.44336 0.60322 0.0
C553 C 0.17788 0.43624 0.5777 0.0
C554 C 0.24234 0.45117 0.59117 0.0
C555 C 0.2505 0.45209 0.55333 0.0
C556 C 0.22176 0.44654 0.5276 0.0
C557 C 0.1857 0.4384 0.53972 0.0
C558 C 0.33617 0.48993 0.50551 0.0
C559 C 0.36447 0.46958 0.52292 0.0
C560 C 0.2989 0.48359 0.51449 0.0
C561 C 0.2894 0.45714 0.54131 0.0
C562 C 0.31757 0.43617 0.55794 0.0
C563 C 0.35466 0.44221 0.54877 0.0
H564 H 0.86955 0.81031 0.92612 0.0
H565 H 0.98245 0.85134 0.92803 0.0
H566 H 0.8915 0.74794 0.93952 0.0
H567 H 0.00463 0.78833 0.94101 0.0
H568 H 0.01788 0.67636 0.007 0.0
H569 H 0.0003 0.74024 0.99255 0.0
H570 H 0.92816 0.69994 0.90583 0.0
H571 H 0.94537 0.63635 0.92015 0.0
C572 C 0.89908 0.806 0.92971 0.0
C573 C 0.9243 0.8357 0.9263 0.0
C574 C 0.91167 0.77022 0.93697 0.0
C575 C 0.94977 0.76328 0.9411 0.0
C576 C 0.97509 0.79299 0.9381 0.0
C577 C 0.96246 0.82889 0.93048 0.0
C578 C -0.00156 0.68115 0.98471 0.0
C579 C 0.98282 0.65119 0.96494 0.0
C580 C 0.98856 0.71772 0.97634 0.0
C581 C 0.96265 0.72496 0.94829 0.0
C582 C 0.9478 0.69511 0.92795 0.0
C583 C 0.95782 0.65868 0.93609 0.0
H584 H 0.4387 0.70069 0.14277 0.0
H585 H 0.42345 0.67467 0.02712 0.0
H586 H 0.45588 0.7639 0.12697 0.0
H587 H 0.43936 0.73896 0.01132 0.0
H588 H 0.50682 0.84843 -0.00135 0.0
H589 H 0.49202 0.7836 0.01196 0.0
H590 H 0.4239 0.81833 0.10382 0.0
H591 H 0.43911 0.88293 0.09109 0.0
C592 C 0.43946 0.70833 0.11386 0.0
C593 C 0.43006 0.6825 0.08613 0.0
C594 C 0.44876 0.74479 0.10488 0.0
C595 C 0.44865 0.75651 0.06795 0.0
C596 C 0.43987 0.73064 0.04003 0.0
C597 C 0.43052 0.69397 0.04906 0.0
C598 C 0.48869 0.84225 0.02171 0.0
C599 C 0.47433 0.8709 0.04396 0.0
C600 C 0.48006 0.8051 0.02915 0.0
C601 C 0.45697 0.79586 0.05903 0.0
C602 C 0.44228 0.82453 0.08096 0.0
C603 C 0.45088 0.86159 0.07355 0.0
H604 H 0.0268 0.34031 0.60099 0.0
H605 H 0.13833 0.31692 0.56348 0.0
H606 H 0.00943 0.27606 0.58944 0.0
H607 H 0.11985 0.25439 0.54797 0.0
H608 H 0.09327 0.13397 0.56424 0.0
H609 H 0.10829 0.19875 0.57607 0.0
H610 H 0.99574 0.22932 0.54768 0.0
H611 H 0.98033 0.16388 0.53853 0.0
C612 C 0.04753 0.32173 0.58982 0.0
C613 C 0.08411 0.33412 0.58353 0.0
C614 C 0.03736 0.28486 0.58261 0.0
C615 C 0.06329 0.25958 0.56812 0.0
C616 C 0.09929 0.27254 0.5601 0.0
C617 C 0.1097 0.30901 0.5682 0.0
C618 C 0.07176 0.15461 0.56074 0.0
C619 C 0.03569 0.14402 0.55049 0.0
C620 C 0.0804 0.19189 0.56712 0.0
C621 C 0.05343 0.21969 0.56235 0.0
C622 C 0.01719 0.20887 0.55217 0.0
C623 C 0.00832 0.17137 0.54673 0.0
H624 H 0.52783 0.16059 0.43364 0.0
H625 H 0.64211 0.19733 0.4386 0.0
H626 H 0.50739 0.22383 0.44824 0.0
H627 H 0.62179 0.25997 0.4537 0.0
H628 H 0.4925 0.33699 0.51104 0.0
H629 H 0.51029 0.27239 0.49989 0.0
H630 H 0.58865 0.30867 0.41716 0.0
H631 H 0.57118 0.37293 0.42815 0.0
C632 C 0.54851 0.18207 0.43825 0.0
C633 C 0.58653 0.17403 0.43509 0.0
C634 C 0.53685 0.21812 0.44678 0.0
C635 C 0.56303 0.24678 0.45181 0.0
C636 C 0.60101 0.23848 0.44955 0.0
C637 C 0.61264 0.20251 0.44134 0.0
C638 C 0.51344 0.33115 0.49039 0.0
C639 C 0.53053 0.36016 0.4706 0.0
C640 C 0.52347 0.29419 0.48395 0.0
C641 C 0.55105 0.28562 0.45792 0.0
C642 C 0.5677 0.31454 0.4378 0.0
C643 C 0.55749 0.35135 0.44396 0.0
loop_
_geom_bond_atom_site_label_1
_geom_bond_atom_site_label_2
_geom_bond_distance
_geom_bond_site_symmetry_2
_ccdc_geom_bond_type
H0 C3 0.931 . S
H1 C6 0.928 . S
H2 C8 0.930 . S
C3 H0 0.931 . S
C3 C4 1.413 . S
C3 C5 1.360 . S
C4 C3 1.413 . S
C4 C8 1.429 . S
C5 C3 1.360 . S
C5 C6 1.372 . S
C6 H1 0.928 . S
C6 C5 1.372 . S
C6 C7 1.404 . S
C7 C6 1.404 . S
C7 C8 1.391 . S
C8 H2 0.930 . S
C8 C4 1.429 . S
C8 C7 1.391 . S
H9 C12 0.931 . S
H10 C15 0.928 . S
H11 C17 0.930 . S
C12 H9 0.931 . S
C12 C13 1.413 . S
C12 C14 1.360 . S
C13 C12 1.413 . S
C13 C17 1.429 . S
C14 C12 1.360 . S
C14 C15 1.372 . S
C15 H10 0.928 . S
C15 C14 1.372 . S
C15 C16 1.404 . S
C16 C15 1.404 . S
C16 C17 1.391 . S
C17 H11 0.930 . S
C17 C13 1.429 . S
C17 C16 1.391 . S
H18 C21 0.931 . S
H19 C24 0.928 . S
H20 C26 0.930 . S
C21 H18 0.931 . S
C21 C22 1.413 . S
C21 C23 1.360 . S
C22 C21 1.413 . S
C22 C26 1.429 . S
C23 C21 1.360 . S
C23 C24 1.372 . S
C24 H19 0.928 . S
C24 C23 1.372 . S
C24 C25 1.404 . S
C25 C24 1.404 . S
C25 C26 1.391 . S
C26 H20 0.930 . S
C26 C22 1.429 . S
C26 C25 1.391 . S
H27 C30 0.931 . S
H28 C33 0.928 . S
H29 C35 0.930 . S
C30 H27 0.931 . S
C30 C31 1.413 . S
C30 C32 1.360 . S
C31 C30 1.413 . S
C31 C35 1.429 . S
C32 C30 1.360 . S
C32 C33 1.372 . S
C33 H28 0.928 . S
C33 C32 1.372 . S
C33 C34 1.404 . S
C34 C33 1.404 . S
C34 C35 1.391 . S
C35 H29 0.930 . S
C35 C31 1.429 . S
C35 C34 1.391 . S
H36 C39 0.931 . S
H37 C42 0.928 . S
H38 C44 0.930 . S
C39 H36 0.931 . S
C39 C40 1.413 . S
C39 C41 1.360 . S
C40 C39 1.413 . S
C40 C44 1.429 . S
C41 C39 1.360 . S
C41 C42 1.372 . S
C42 H37 0.928 . S
C42 C41 1.372 . S
C42 C43 1.404 . S
C43 C42 1.404 . S
C43 C44 1.391 . S
C44 H38 0.930 . S
C44 C40 1.429 . S
C44 C43 1.391 . S
H45 C48 0.931 . S
H46 C51 0.928 . S
H47 C53 0.930 . S
C48 H45 0.931 . S
C48 C49 1.413 . S
C48 C50 1.360 . S
C49 C48 1.413 . S
C49 C53 1.429 . S
C50 C48 1.360 . S
C50 C51 1.372 . S
C51 H46 0.928 . S
C51 C50 1.372 . S
C51 C52 1.404 . S
C52 C51 1.404 . S
C52 C53 1.391 . S
C53 H47 0.930 . S
C53 C49 1.429 . S
C53 C52 1.391 . S
H54 C57 0.931 . S
H55 C60 0.928 . S
H56 C62 0.930 . S
C57 H54 0.931 . S
C57 C58 1.413 . S
C57 C59 1.360 . S
C58 C57 1.413 . S
C58 C62 1.429 . S
C59 C57 1.360 . S
C59 C60 1.372 . S
C60 H55 0.928 . S
C60 C59 1.372 . S
C60 C61 1.404 . S
C61 C60 1.404 . S
C61 C62 1.391 . S
C62 H56 0.930 . S
C62 C58 1.429 . S
C62 C61 1.391 . S
H63 C66 0.931 . S
H64 C69 0.928 . S
H65 C71 0.930 . S
C66 H63 0.931 . S
C66 C67 1.413 . S
C66 C68 1.360 . S
C67 C66 1.413 . S
C67 C71 1.429 . S
C68 C66 1.360 . S
C68 C69 1.372 . S
C69 H64 0.928 . S
C69 C68 1.372 . S
C69 C70 1.404 . S
C70 C69 1.404 . S
C70 C71 1.391 . S
C71 H65 0.930 . S
C71 C67 1.429 . S
C71 C70 1.391 . S
O72 Zn73 1.953 . S
O72 C88 1.225 1_655 S
Zn73 O72 1.953 . S
Zn73 O74 1.949 1_655 S
Zn73 O80 1.919 . S
Zn73 O85 1.924 . S
O74 Zn73 1.949 1_455 S
O74 Zn75 1.923 1_445 S
O74 Zn76 1.950 . S
O74 Zn77 1.945 1_545 S
Zn75 O74 1.923 1_665 S
Zn75 O78 1.933 . S
Zn75 O81 1.941 1_565 S
Zn75 O82 1.965 1_665 S
Zn76 O74 1.950 . S
Zn76 O83 1.938 . S
Zn76 O84 1.893 1_545 S
Zn76 O94 1.953 . S
Zn77 O74 1.945 1_565 S
Zn77 O79 1.932 1_455 S
Zn77 O86 1.977 . S
Zn77 O87 1.910 1_455 S
O78 Zn75 1.933 . S
O78 C89 1.226 . S
O79 Zn77 1.932 1_655 S
O79 C89 1.307 . S
O80 Zn73 1.919 . S
O80 C91 1.253 . S
O81 Zn75 1.941 1_545 S
O81 C91 1.283 . S
O82 Zn75 1.965 1_445 S
O82 C90 1.303 . S
O83 Zn76 1.938 . S
O83 C90 1.247 . S
O84 Zn76 1.893 1_565 S
O84 C92 1.324 . S
O85 Zn73 1.924 . S
O85 C93 1.311 1_545 S
O86 Zn77 1.977 . S
O86 C92 1.272 . S
O87 Zn77 1.910 1_655 S
O87 C93 1.231 . S
C88 O72 1.225 1_455 S
C88 O94 1.298 . S
C89 O78 1.226 . S
C89 O79 1.307 . S
C90 O82 1.303 . S
C90 O83 1.247 . S
C91 O80 1.253 . S
C91 O81 1.283 . S
C92 O84 1.324 . S
C92 O86 1.272 . S
C93 O85 1.311 1_565 S
C93 O87 1.231 . S
O94 Zn76 1.953 . S
O94 C88 1.298 . S
O95 Zn96 1.953 . S
O95 C111 1.225 . S
Zn96 O95 1.953 . S
Zn96 O97 1.949 1_556 S
Zn96 O103 1.919 . S
Zn96 O108 1.917 1_556 S
O97 Zn96 1.949 1_554 S
O97 Zn98 1.923 1_544 S
O97 Zn99 1.950 . S
O97 Zn100 1.945 1_545 S
Zn98 O97 1.923 1_566 S
Zn98 O101 1.933 1_556 S
Zn98 O104 1.941 . S
Zn98 O105 1.965 . S
Zn99 O97 1.950 . S
Zn99 O106 1.938 . S
Zn99 O107 1.906 . S
Zn99 O117 1.953 . S
Zn100 O97 1.945 1_565 S
Zn100 O102 1.932 . S
Zn100 O109 1.977 1_565 S
Zn100 O110 1.910 1_565 S
O101 Zn98 1.933 1_554 S
O101 C112 1.226 . S
O102 Zn100 1.932 . S
O102 C112 1.307 . S
O103 Zn96 1.919 . S
O103 C114 1.253 1_545 S
O104 Zn98 1.941 . S
O104 C114 1.283 . S
O105 Zn98 1.965 . S
O105 C113 1.303 . S
O106 Zn99 1.938 . S
O106 C113 1.247 1_544 S
O107 Zn99 1.906 . S
O107 C115 1.304 . S
O108 Zn96 1.917 1_554 S
O108 C116 1.330 . S
O109 Zn100 1.977 1_545 S
O109 C115 1.272 . S
O110 Zn100 1.910 1_545 S
O110 C116 1.231 . S
C111 O95 1.225 . S
C111 O117 1.298 1_556 S
C112 O101 1.226 . S
C112 O102 1.307 . S
C113 O105 1.303 . S
C113 O106 1.247 1_566 S
C114 O103 1.253 1_565 S
C114 O104 1.283 . S
C115 O107 1.304 . S
C115 O109 1.272 . S
C116 O108 1.330 . S
C116 O110 1.231 . S
O117 Zn99 1.953 . S
O117 C111 1.298 1_554 S
O118 Zn119 1.953 . S
O118 C134 1.225 . S
Zn119 O118 1.953 . S
Zn119 O120 1.949 . S
Zn119 O126 1.919 . S
Zn119 O131 1.924 . S
O120 Zn119 1.949 . S
O120 Zn121 1.923 . S
O120 Zn122 1.950 . S
O120 Zn123 1.945 . S
Zn121 O120 1.923 . S
Zn121 O124 1.933 . S
Zn121 O127 1.941 . S
Zn121 O128 1.965 . S
Zn122 O120 1.950 . S
Zn122 O129 1.938 . S
Zn122 O130 1.906 . S
Zn122 O140 1.953 . S
Zn123 O120 1.945 . S
Zn123 O125 1.932 . S
Zn123 O132 1.977 . S
Zn123 O133 1.910 . S
O124 Zn121 1.933 . S
O124 C135 1.226 . S
O125 Zn123 1.932 . S
O125 C135 1.307 . S
O126 Zn119 1.919 . S
O126 C137 1.253 . S
O127 Zn121 1.941 . S
O127 C137 1.283 . S
O128 Zn121 1.965 . S
O128 C136 1.303 . S
O129 Zn122 1.938 . S
O129 C136 1.247 . S
O130 Zn122 1.906 . S
O130 C138 1.304 . S
O131 Zn119 1.924 . S
O131 C139 1.311 . S
O132 Zn123 1.977 . S
O132 C138 1.272 . S
O133 Zn123 1.910 . S
O133 C139 1.231 . S
C134 O118 1.225 . S
C134 O140 1.298 . S
C135 O124 1.226 . S
C135 O125 1.307 . S
C136 O128 1.303 . S
C136 O129 1.247 . S
C137 O126 1.253 . S
C137 O127 1.283 . S
C138 O130 1.304 . S
C138 O132 1.272 . S
C139 O131 1.311 . S
C139 O133 1.231 . S
O140 Zn122 1.953 . S
O140 C134 1.298 . S
O141 Zn142 1.953 . S
O141 C157 1.225 . S
Zn142 O141 1.953 . S
Zn142 O143 1.949 1_655 S
Zn142 O149 1.919 . S
Zn142 O154 1.924 . S
O143 Zn142 1.949 1_455 S
O143 Zn144 1.923 1_454 S
O143 Zn145 1.950 . S
O143 Zn146 1.945 1_554 S
Zn144 O143 1.923 1_656 S
Zn144 O147 1.933 1_655 S
Zn144 O150 1.941 . S
Zn144 O151 1.965 . S
Zn145 O143 1.950 . S
Zn145 O152 1.938 . S
Zn145 O153 1.906 . S
Zn145 O163 1.953 . S
Zn146 O143 1.945 1_556 S
Zn146 O148 1.932 . S
Zn146 O155 1.977 1_556 S
Zn146 O156 1.910 1_556 S
O147 Zn144 1.933 1_455 S
O147 C158 1.226 . S
O148 Zn146 1.932 . S
O148 C158 1.307 . S
O149 Zn142 1.919 . S
O149 C160 1.253 1_554 S
O150 Zn144 1.941 . S
O150 C160 1.283 . S
O151 Zn144 1.965 . S
O151 C159 1.303 . S
O152 Zn145 1.938 . S
O152 C159 1.247 1_454 S
O153 Zn145 1.906 . S
O153 C161 1.304 . S
O154 Zn142 1.924 . S
O154 C162 1.311 1_655 S
O155 Zn146 1.977 1_554 S
O155 C161 1.272 . S
O156 Zn146 1.910 1_554 S
O156 C162 1.231 . S
C157 O141 1.225 . S
C157 O163 1.298 1_655 S
C158 O147 1.226 . S
C158 O148 1.307 . S
C159 O151 1.303 . S
C159 O152 1.247 1_656 S
C160 O149 1.253 1_556 S
C160 O150 1.283 . S
C161 O153 1.304 . S
C161 O155 1.272 . S
C162 O154 1.311 1_455 S
C162 O156 1.231 . S
O163 Zn145 1.953 . S
O163 C157 1.298 1_455 S
H164 C172 0.950 . S
H165 C177 0.950 . S
H166 C174 0.950 . S
H167 C176 0.950 . S
H168 C178 0.950 . S
H169 C180 0.950 . S
H170 C182 0.950 . S
H171 C183 0.950 . S
C172 H164 0.950 . S
C172 C173 1.386 . S
C172 C174 1.391 . S
C173 C172 1.386 . S
C173 C177 1.393 . S
C174 H166 0.950 . S
C174 C172 1.391 . S
C174 C175 1.400 . S
C175 C174 1.400 . S
C175 C176 1.398 . S
C175 C181 1.491 . S
C176 H167 0.950 . S
C176 C175 1.398 . S
C176 C177 1.391 . S
C177 H165 0.950 . S
C177 C173 1.393 . S
C177 C176 1.391 . S
C178 H168 0.950 . S
C178 C179 1.386 . S
C178 C180 1.391 . S
C179 C178 1.386 . S
C179 C183 1.393 . S
C180 H169 0.950 . S
C180 C178 1.391 . S
C180 C181 1.400 . S
C181 C175 1.491 . S
C181 C180 1.400 . S
C181 C182 1.398 . S
C182 H170 0.950 . S
C182 C181 1.398 . S
C182 C183 1.391 . S
C183 H171 0.950 . S
C183 C179 1.393 . S
C183 C182 1.391 . S
H184 C192 0.950 . S
H185 C197 0.950 . S
H186 C194 0.950 . S
H187 C196 0.950 . S
H188 C198 0.950 . S
H189 C200 0.950 . S
H190 C202 0.950 . S
H191 C203 0.950 . S
C192 H184 0.950 . S
C192 C193 1.386 . S
C192 C194 1.391 . S
C193 C192 1.386 . S
C193 C197 1.393 . S
C194 H186 0.950 . S
C194 C192 1.391 . S
C194 C195 1.400 . S
C195 C194 1.400 . S
C195 C196 1.398 . S
C195 C201 1.491 . S
C196 H187 0.950 . S
C196 C195 1.398 . S
C196 C197 1.391 . S
C197 H185 0.950 . S
C197 C193 1.393 . S
C197 C196 1.391 . S
C198 H188 0.950 . S
C198 C199 1.386 . S
C198 C200 1.391 . S
C199 C198 1.386 . S
C199 C203 1.393 . S
C200 H189 0.950 . S
C200 C198 1.391 . S
C200 C201 1.400 . S
C201 C195 1.491 . S
C201 C200 1.400 . S
C201 C202 1.398 . S
C202 H190 0.950 . S
C202 C201 1.398 . S
C202 C203 1.391 . S
C203 H191 0.950 . S
C203 C199 1.393 . S
C203 C202 1.391 . S
H204 C212 0.950 . S
H205 C217 0.950 . S
H206 C214 0.950 . S
H207 C216 0.950 . S
H208 C218 0.950 . S
H209 C220 0.950 . S
H210 C222 0.950 . S
H211 C223 0.950 . S
C212 H204 0.950 . S
C212 C213 1.386 . S
C212 C214 1.391 . S
C213 C212 1.386 . S
C213 C217 1.393 . S
C214 H206 0.950 . S
C214 C212 1.391 . S
C214 C215 1.400 . S
C215 C214 1.400 . S
C215 C216 1.398 . S
C215 C221 1.491 . S
C216 H207 0.950 . S
C216 C215 1.398 . S
C216 C217 1.391 . S
C217 H205 0.950 . S
C217 C213 1.393 . S
C217 C216 1.391 . S
C218 H208 0.950 . S
C218 C219 1.386 . S
C218 C220 1.391 . S
C219 C218 1.386 . S
C219 C223 1.393 . S
C220 H209 0.950 . S
C220 C218 1.391 . S
C220 C221 1.400 . S
C221 C215 1.491 . S
C221 C220 1.400 . S
C221 C222 1.398 . S
C222 H210 0.950 . S
C222 C221 1.398 . S
C222 C223 1.391 . S
C223 H211 0.950 . S
C223 C219 1.393 . S
C223 C222 1.391 . S
H224 C232 0.950 . S
H225 C237 0.950 . S
H226 C234 0.950 . S
H227 C236 0.950 . S
H228 C238 0.950 . S
H229 C240 0.950 . S
H230 C242 0.941 1_455 S
H231 C243 0.950 1_455 S
C232 H224 0.950 . S
C232 C233 1.386 . S
C232 C234 1.391 . S
C233 C232 1.386 . S
C233 C237 1.393 . S
C234 H226 0.950 . S
C234 C232 1.391 . S
C234 C235 1.400 . S
C235 C234 1.400 . S
C235 C236 1.398 . S
C235 C241 1.491 . S
C236 H227 0.950 . S
C236 C235 1.398 . S
C236 C237 1.391 . S
C237 H225 0.950 . S
C237 C233 1.393 . S
C237 C236 1.391 . S
C238 H228 0.950 . S
C238 C239 1.386 . S
C238 C240 1.391 . S
C239 C238 1.386 . S
C239 C243 1.393 . S
C240 H229 0.950 . S
C240 C238 1.391 . S
C240 C241 1.400 . S
C241 C235 1.491 . S
C241 C240 1.400 . S
C241 C242 1.398 . S
C242 H230 0.941 1_655 S
C242 C241 1.398 . S
C242 C243 1.391 . S
C243 H231 0.950 1_655 S
C243 C239 1.393 . S
C243 C242 1.391 . S
H244 C252 0.950 . S
H245 C257 0.950 . S
H246 C254 0.950 . S
H247 C256 0.950 . S
H248 C258 0.950 . S
H249 C260 0.950 . S
H250 C262 0.950 . S
H251 C263 0.950 . S
C252 H244 0.950 . S
C252 C253 1.386 . S
C252 C254 1.391 . S
C253 C252 1.386 . S
C253 C257 1.393 . S
C254 H246 0.950 . S
C254 C252 1.391 . S
C254 C255 1.400 . S
C255 C254 1.400 . S
C255 C256 1.398 . S
C255 C261 1.491 . S
C256 H247 0.950 . S
C256 C255 1.398 . S
C256 C257 1.391 . S
C257 H245 0.950 . S
C257 C253 1.393 . S
C257 C256 1.391 . S
C258 H248 0.950 . S
C258 C259 1.386 . S
C258 C260 1.391 . S
C259 C258 1.386 . S
C259 C263 1.393 . S
C260 H249 0.950 . S
C260 C258 1.391 . S
C260 C261 1.400 . S
C261 C255 1.491 . S
C261 C260 1.400 . S
C261 C262 1.398 . S
C262 H250 0.950 . S
C262 C261 1.398 . S
C262 C263 1.391 . S
C263 H251 0.950 . S
C263 C259 1.393 . S
C263 C262 1.391 . S
H264 C272 0.950 . S
H265 C277 0.950 . S
H266 C274 0.950 . S
H267 C276 0.950 . S
H268 C278 0.950 . S
H269 C280 0.950 . S
H270 C282 0.950 . S
H271 C283 0.950 . S
C272 H264 0.950 . S
C272 C273 1.386 . S
C272 C274 1.391 . S
C273 C272 1.386 . S
C273 C277 1.393 . S
C274 H266 0.950 . S
C274 C272 1.391 . S
C274 C275 1.400 . S
C275 C274 1.400 . S
C275 C276 1.398 . S
C275 C281 1.491 . S
C276 H267 0.950 . S
C276 C275 1.398 . S
C276 C277 1.391 . S
C277 H265 0.950 . S
C277 C273 1.393 . S
C277 C276 1.391 . S
C278 H268 0.950 . S
C278 C279 1.386 . S
C278 C280 1.391 . S
C279 C278 1.386 . S
C279 C283 1.393 . S
C280 H269 0.950 . S
C280 C278 1.391 . S
C280 C281 1.400 . S
C281 C275 1.491 . S
C281 C280 1.400 . S
C281 C282 1.398 . S
C282 H270 0.950 . S
C282 C281 1.398 . S
C282 C283 1.391 . S
C283 H271 0.950 . S
C283 C279 1.393 . S
C283 C282 1.391 . S
H284 C292 0.950 . S
H285 C297 0.950 . S
H286 C294 0.950 . S
H287 C296 0.950 . S
H288 C298 0.950 . S
H289 C300 0.950 . S
H290 C302 0.950 . S
H291 C303 0.950 . S
C292 H284 0.950 . S
C292 C293 1.386 . S
C292 C294 1.391 . S
C293 C292 1.386 . S
C293 C297 1.393 . S
C294 H286 0.950 . S
C294 C292 1.391 . S
C294 C295 1.400 . S
C295 C294 1.400 . S
C295 C296 1.398 . S
C295 C301 1.491 . S
C296 H287 0.950 . S
C296 C295 1.398 . S
C296 C297 1.391 . S
C297 H285 0.950 . S
C297 C293 1.393 . S
C297 C296 1.391 . S
C298 H288 0.950 . S
C298 C299 1.386 . S
C298 C300 1.391 . S
C299 C298 1.386 . S
C299 C303 1.393 . S
C300 H289 0.950 . S
C300 C298 1.391 . S
C300 C301 1.400 . S
C301 C295 1.491 . S
C301 C300 1.400 . S
C301 C302 1.398 . S
C302 H290 0.950 . S
C302 C301 1.398 . S
C302 C303 1.391 . S
C303 H291 0.950 . S
C303 C299 1.393 . S
C303 C302 1.391 . S
H304 C312 0.950 . S
H305 C317 0.950 . S
H306 C314 0.950 . S
H307 C316 0.950 . S
H308 C318 0.950 . S
H309 C320 0.950 . S
H310 C322 0.950 . S
H311 C323 0.950 . S
C312 H304 0.950 . S
C312 C313 1.386 . S
C312 C314 1.391 . S
C313 C312 1.386 . S
C313 C317 1.393 . S
C314 H306 0.950 . S
C314 C312 1.391 . S
C314 C315 1.400 . S
C315 C314 1.400 . S
C315 C316 1.398 . S
C315 C321 1.491 . S
C316 H307 0.950 . S
C316 C315 1.398 . S
C316 C317 1.391 . S
C317 H305 0.950 . S
C317 C313 1.393 . S
C317 C316 1.391 . S
C318 H308 0.950 . S
C318 C319 1.386 . S
C318 C320 1.391 . S
C319 C318 1.386 . S
C319 C323 1.393 . S
C320 H309 0.950 . S
C320 C318 1.391 . S
C320 C321 1.400 . S
C321 C315 1.491 . S
C321 C320 1.400 . S
C321 C322 1.398 . S
C322 H310 0.950 . S
C322 C321 1.398 . S
C322 C323 1.391 . S
C323 H311 0.950 . S
C323 C319 1.393 . S
C323 C322 1.391 . S
H324 C332 0.950 . S
H325 C337 0.950 . S
H326 C334 0.950 . S
H327 C336 0.950 . S
H328 C338 0.950 . S
H329 C340 0.950 . S
H330 C342 0.950 . S
H331 C343 0.950 . S
C332 H324 0.950 . S
C332 C333 1.386 . S
C332 C334 1.391 . S
C333 C332 1.386 . S
C333 C337 1.393 . S
C334 H326 0.950 . S
C334 C332 1.391 . S
C334 C335 1.400 . S
C335 C334 1.400 . S
C335 C336 1.398 . S
C335 C341 1.491 . S
C336 H327 0.950 . S
C336 C335 1.398 . S
C336 C337 1.391 . S
C337 H325 0.950 . S
C337 C333 1.393 . S
C337 C336 1.391 . S
C338 H328 0.950 . S
C338 C339 1.386 . S
C338 C340 1.391 . S
C339 C338 1.386 . S
C339 C343 1.393 . S
C340 H329 0.950 . S
C340 C338 1.391 . S
C340 C341 1.400 . S
C341 C335 1.491 . S
C341 C340 1.400 . S
C341 C342 1.398 . S
C342 H330 0.950 . S
C342 C341 1.398 . S
C342 C343 1.391 . S
C343 H331 0.950 . S
C343 C339 1.393 . S
C343 C342 1.391 . S
H344 C352 0.950 . S
H345 C357 0.950 . S
H346 C354 0.950 . S
H347 C356 0.950 . S
H348 C358 0.950 . S
H349 C360 0.950 . S
H350 C362 0.950 1_554 S
H351 C363 0.950 1_554 S
C352 H344 0.950 . S
C352 C353 1.386 . S
C352 C354 1.391 . S
C353 C352 1.386 . S
C353 C357 1.393 . S
C354 H346 0.950 . S
C354 C352 1.391 . S
C354 C355 1.400 . S
C355 C354 1.400 . S
C355 C356 1.398 . S
C355 C361 1.491 . S
C356 H347 0.950 . S
C356 C355 1.398 . S
C356 C357 1.391 . S
C357 H345 0.950 . S
C357 C353 1.393 . S
C357 C356 1.391 . S
C358 H348 0.950 . S
C358 C359 1.386 . S
C358 C360 1.391 . S
C359 C358 1.386 . S
C359 C363 1.393 . S
C360 H349 0.950 . S
C360 C358 1.391 . S
C360 C361 1.400 . S
C361 C355 1.491 . S
C361 C360 1.400 . S
C361 C362 1.398 . S
C362 H350 0.950 1_556 S
C362 C361 1.398 . S
C362 C363 1.391 . S
C363 H351 0.950 1_556 S
C363 C359 1.393 . S
C363 C362 1.391 . S
H364 C372 0.950 . S
H365 C377 0.950 . S
H366 C374 0.950 . S
H367 C376 0.950 . S
H368 C378 0.950 . S
H369 C380 0.950 . S
H370 C382 0.950 . S
H371 C383 0.950 1_455 S
C372 H364 0.950 . S
C372 C373 1.386 . S
C372 C374 1.391 . S
C373 C372 1.386 . S
C373 C377 1.393 . S
C374 H366 0.950 . S
C374 C372 1.391 . S
C374 C375 1.400 . S
C375 C374 1.400 . S
C375 C376 1.398 . S
C375 C381 1.491 . S
C376 H367 0.950 . S
C376 C375 1.398 . S
C376 C377 1.391 . S
C377 H365 0.950 . S
C377 C373 1.393 . S
C377 C376 1.391 . S
C378 H368 0.950 . S
C378 C379 1.386 . S
C378 C380 1.391 . S
C379 C378 1.386 . S
C379 C383 1.393 . S
C380 H369 0.950 . S
C380 C378 1.391 . S
C380 C381 1.400 . S
C381 C375 1.491 . S
C381 C380 1.400 . S
C381 C382 1.398 . S
C382 H370 0.950 . S
C382 C381 1.398 . S
C382 C383 1.391 . S
C383 H371 0.950 1_655 S
C383 C379 1.393 . S
C383 C382 1.391 . S
H384 C392 0.950 . S
H385 C397 0.950 . S
H386 C394 0.950 . S
H387 C396 0.950 . S
H388 C398 0.950 . S
H389 C400 0.950 . S
H390 C402 0.950 . S
H391 C403 0.950 . S
C392 H384 0.950 . S
C392 C393 1.386 . S
C392 C394 1.391 . S
C393 C392 1.386 . S
C393 C397 1.393 . S
C394 H386 0.950 . S
C394 C392 1.391 . S
C394 C395 1.400 . S
C395 C394 1.400 . S
C395 C396 1.398 . S
C395 C401 1.491 . S
C396 H387 0.950 . S
C396 C395 1.398 . S
C396 C397 1.391 . S
C397 H385 0.950 . S
C397 C393 1.393 . S
C397 C396 1.391 . S
C398 H388 0.950 . S
C398 C399 1.386 . S
C398 C400 1.391 . S
C399 C398 1.386 . S
C399 C403 1.393 . S
C400 H389 0.950 . S
C400 C398 1.391 . S
C400 C401 1.400 . S
C401 C395 1.491 . S
C401 C400 1.400 . S
C401 C402 1.398 . S
C402 H390 0.950 . S
C402 C401 1.398 . S
C402 C403 1.391 . S
C403 H391 0.950 . S
C403 C399 1.393 . S
C403 C402 1.391 . S
H404 C412 0.950 . S
H405 C417 0.950 . S
H406 C414 0.950 . S
H407 C416 0.950 . S
H408 C418 0.950 . S
H409 C420 0.950 . S
H410 C422 0.950 1_455 S
H411 C423 0.934 1_455 S
C412 H404 0.950 . S
C412 C413 1.386 . S
C412 C414 1.391 . S
C413 C412 1.386 . S
C413 C417 1.393 . S
C414 H406 0.950 . S
C414 C412 1.391 . S
C414 C415 1.400 . S
C415 C414 1.400 . S
C415 C416 1.398 . S
C415 C421 1.491 . S
C416 H407 0.950 . S
C416 C415 1.398 . S
C416 C417 1.391 . S
C417 H405 0.950 . S
C417 C413 1.393 . S
C417 C416 1.391 . S
C418 H408 0.950 . S
C418 C419 1.386 1_545 S
C418 C420 1.391 1_545 S
C419 C418 1.386 1_565 S
C419 C423 1.405 . S
C420 H409 0.950 . S
C420 C418 1.391 1_565 S
C420 C421 1.400 . S
C421 C415 1.491 . S
C421 C420 1.400 . S
C421 C422 1.398 . S
C422 H410 0.950 1_655 S
C422 C421 1.398 . S
C422 C423 1.394 . S
C423 H411 0.934 1_655 S
C423 C419 1.405 . S
C423 C422 1.394 . S
H424 C432 0.950 . S
H425 C437 0.950 . S
H426 C434 0.950 . S
H427 C436 0.950 . S
H428 C438 0.950 1_565 S
H429 C440 0.950 . S
H430 C442 0.950 . S
H431 C443 0.950 . S
C432 H424 0.950 . S
C432 C433 1.386 . S
C432 C434 1.391 . S
C433 C432 1.386 . S
C433 C437 1.393 . S
C434 H426 0.950 . S
C434 C432 1.391 . S
C434 C435 1.400 . S
C435 C434 1.400 . S
C435 C436 1.398 . S
C435 C441 1.491 . S
C436 H427 0.950 . S
C436 C435 1.398 . S
C436 C437 1.391 . S
C437 H425 0.950 . S
C437 C433 1.393 . S
C437 C436 1.391 . S
C438 H428 0.950 1_545 S
C438 C439 1.386 . S
C438 C440 1.391 . S
C439 C438 1.386 . S
C439 C443 1.393 . S
C440 H429 0.950 . S
C440 C438 1.391 . S
C440 C441 1.400 . S
C441 C435 1.491 . S
C441 C440 1.400 . S
C441 C442 1.398 . S
C442 H430 0.950 . S
C442 C441 1.398 . S
C442 C443 1.391 . S
C443 H431 0.950 . S
C443 C439 1.393 . S
C443 C442 1.391 . S
H444 C452 0.950 . S
H445 C457 0.950 . S
H446 C454 0.950 . S
H447 C456 0.950 . S
H448 C458 0.950 . S
H449 C460 0.950 . S
H450 C462 0.950 . S
H451 C463 0.950 . S
C452 H444 0.950 . S
C452 C453 1.386 . S
C452 C454 1.391 . S
C453 C452 1.386 . S
C453 C457 1.393 . S
C454 H446 0.950 . S
C454 C452 1.391 . S
C454 C455 1.400 . S
C455 C454 1.400 . S
C455 C456 1.398 . S
C455 C461 1.491 . S
C456 H447 0.950 . S
C456 C455 1.398 . S
C456 C457 1.391 . S
C457 H445 0.950 . S
C457 C453 1.393 . S
C457 C456 1.391 . S
C458 H448 0.950 . S
C458 C459 1.386 . S
C458 C460 1.391 . S
C459 C458 1.386 . S
C459 C463 1.393 . S
C460 H449 0.950 . S
C460 C458 1.391 . S
C460 C461 1.400 . S
C461 C455 1.491 . S
C461 C460 1.400 . S
C461 C462 1.398 . S
C462 H450 0.950 . S
C462 C461 1.398 . S
C462 C463 1.391 . S
C463 H451 0.950 . S
C463 C459 1.393 . S
C463 C462 1.391 . S
H464 C472 0.950 . S
H465 C477 0.950 . S
H466 C474 0.950 . S
H467 C476 0.950 . S
H468 C478 0.950 . S
H469 C480 0.950 . S
H470 C482 0.950 . S
H471 C483 0.950 . S
C472 H464 0.950 . S
C472 C473 1.386 . S
C472 C474 1.391 . S
C473 C472 1.386 . S
C473 C477 1.393 . S
C474 H466 0.950 . S
C474 C472 1.391 . S
C474 C475 1.400 . S
C475 C474 1.400 . S
C475 C476 1.398 . S
C475 C481 1.491 . S
C476 H467 0.950 . S
C476 C475 1.398 . S
C476 C477 1.391 . S
C477 H465 0.950 . S
C477 C473 1.393 . S
C477 C476 1.391 . S
C478 H468 0.950 . S
C478 C479 1.386 . S
C478 C480 1.391 . S
C479 C478 1.386 . S
C479 C483 1.393 . S
C480 H469 0.950 . S
C480 C478 1.391 . S
C480 C481 1.400 . S
C481 C475 1.491 . S
C481 C480 1.400 . S
C481 C482 1.398 . S
C482 H470 0.950 . S
C482 C481 1.398 . S
C482 C483 1.391 . S
C483 H471 0.950 . S
C483 C479 1.393 . S
C483 C482 1.391 . S
H484 C492 0.950 1_545 S
H485 C497 0.950 . S
H486 C494 0.950 1_545 S
H487 C496 0.950 . S
H488 C498 0.950 . S
H489 C500 0.950 . S
H490 C502 0.950 . S
H491 C503 0.950 . S
C492 H484 0.950 1_565 S
C492 C493 1.386 . S
C492 C494 1.391 . S
C493 C492 1.386 . S
C493 C497 1.393 . S
C494 H486 0.950 1_565 S
C494 C492 1.391 . S
C494 C495 1.400 . S
C495 C494 1.400 . S
C495 C496 1.398 . S
C495 C501 1.491 . S
C496 H487 0.950 . S
C496 C495 1.398 . S
C496 C497 1.391 . S
C497 H485 0.950 . S
C497 C493 1.393 . S
C497 C496 1.391 . S
C498 H488 0.950 . S
C498 C499 1.386 . S
C498 C500 1.391 . S
C499 C498 1.386 . S
C499 C503 1.393 1_565 S
C500 H489 0.950 . S
C500 C498 1.391 . S
C500 C501 1.400 . S
C501 C495 1.491 . S
C501 C500 1.400 . S
C501 C502 1.398 1_565 S
C502 H490 0.950 . S
C502 C501 1.398 1_545 S
C502 C503 1.391 . S
C503 H491 0.950 . S
C503 C499 1.393 1_545 S
C503 C502 1.391 . S
H504 C512 0.950 . S
H505 C517 0.950 . S
H506 C514 0.950 . S
H507 C516 0.950 . S
H508 C518 0.950 . S
H509 C520 0.950 . S
H510 C522 0.950 . S
H511 C523 0.950 . S
C512 H504 0.950 . S
C512 C513 1.386 . S
C512 C514 1.391 . S
C513 C512 1.386 . S
C513 C517 1.393 . S
C514 H506 0.950 . S
C514 C512 1.391 . S
C514 C515 1.400 . S
C515 C514 1.400 . S
C515 C516 1.398 . S
C515 C521 1.491 . S
C516 H507 0.950 . S
C516 C515 1.398 . S
C516 C517 1.391 . S
C517 H505 0.950 . S
C517 C513 1.393 . S
C517 C516 1.391 . S
C518 H508 0.950 . S
C518 C519 1.386 . S
C518 C520 1.391 . S
C519 C518 1.386 . S
C519 C523 1.393 . S
C520 H509 0.950 . S
C520 C518 1.391 . S
C520 C521 1.400 . S
C521 C515 1.491 . S
C521 C520 1.400 . S
C521 C522 1.398 . S
C522 H510 0.950 . S
C522 C521 1.398 . S
C522 C523 1.391 . S
C523 H511 0.950 . S
C523 C519 1.393 . S
C523 C522 1.391 . S
H524 C532 0.950 . S
H525 C537 0.950 . S
H526 C534 0.950 . S
H527 C536 0.950 . S
H528 C538 0.950 . S
H529 C540 0.950 . S
H530 C542 0.950 . S
H531 C543 0.950 1_556 S
C532 H524 0.950 . S
C532 C533 1.386 . S
C532 C534 1.391 . S
C533 C532 1.386 . S
C533 C537 1.393 . S
C534 H526 0.950 . S
C534 C532 1.391 . S
C534 C535 1.400 . S
C535 C534 1.400 . S
C535 C536 1.398 . S
C535 C541 1.491 . S
C536 H527 0.950 . S
C536 C535 1.398 . S
C536 C537 1.391 . S
C537 H525 0.950 . S
C537 C533 1.393 . S
C537 C536 1.391 . S
C538 H528 0.950 . S
C538 C539 1.386 . S
C538 C540 1.391 . S
C539 C538 1.386 . S
C539 C543 1.393 . S
C540 H529 0.950 . S
C540 C538 1.391 . S
C540 C541 1.400 . S
C541 C535 1.491 . S
C541 C540 1.400 . S
C541 C542 1.398 . S
C542 H530 0.950 . S
C542 C541 1.398 . S
C542 C543 1.391 . S
C543 H531 0.950 1_554 S
C543 C539 1.393 . S
C543 C542 1.391 . S
H544 C552 0.950 . S
H545 C557 0.950 . S
H546 C554 0.950 . S
H547 C556 0.950 . S
H548 C558 0.950 . S
H549 C560 0.950 . S
H550 C562 0.950 . S
H551 C563 0.950 . S
C552 H544 0.950 . S
C552 C553 1.386 . S
C552 C554 1.391 . S
C553 C552 1.386 . S
C553 C557 1.393 . S
C554 H546 0.950 . S
C554 C552 1.391 . S
C554 C555 1.400 . S
C555 C554 1.400 . S
C555 C556 1.398 . S
C555 C561 1.491 . S
C556 H547 0.950 . S
C556 C555 1.398 . S
C556 C557 1.391 . S
C557 H545 0.950 . S
C557 C553 1.393 . S
C557 C556 1.391 . S
C558 H548 0.950 . S
C558 C559 1.386 . S
C558 C560 1.391 . S
C559 C558 1.386 . S
C559 C563 1.393 . S
C560 H549 0.950 . S
C560 C558 1.391 . S
C560 C561 1.400 . S
C561 C555 1.491 . S
C561 C560 1.400 . S
C561 C562 1.398 . S
C562 H550 0.950 . S
C562 C561 1.398 . S
C562 C563 1.391 . S
C563 H551 0.950 . S
C563 C559 1.393 . S
C563 C562 1.391 . S
H564 C572 0.950 . S
H565 C577 0.950 . S
H566 C574 0.950 . S
H567 C576 0.950 . S
H568 C578 0.950 1_455 S
H569 C580 0.950 1_455 S
H570 C582 0.950 . S
H571 C583 0.950 . S
C572 H564 0.950 . S
C572 C573 1.386 . S
C572 C574 1.391 . S
C573 C572 1.386 . S
C573 C577 1.393 . S
C574 H566 0.950 . S
C574 C572 1.391 . S
C574 C575 1.400 . S
C575 C574 1.400 . S
C575 C576 1.398 . S
C575 C581 1.491 . S
C576 H567 0.950 . S
C576 C575 1.398 . S
C576 C577 1.391 . S
C577 H565 0.950 . S
C577 C573 1.393 . S
C577 C576 1.391 . S
C578 H568 0.950 1_655 S
C578 C579 1.386 . S
C578 C580 1.391 . S
C579 C578 1.386 . S
C579 C583 1.393 . S
C580 H569 0.950 1_655 S
C580 C578 1.391 . S
C580 C581 1.400 . S
C581 C575 1.491 . S
C581 C580 1.400 . S
C581 C582 1.398 . S
C582 H570 0.950 . S
C582 C581 1.398 . S
C582 C583 1.391 . S
C583 H571 0.950 . S
C583 C579 1.393 . S
C583 C582 1.391 . S
H584 C592 0.950 . S
H585 C597 0.950 . S
H586 C594 0.950 . S
H587 C596 0.950 . S
H588 C598 0.950 . S
H589 C600 0.950 . S
H590 C602 0.950 . S
H591 C603 0.950 . S
C592 H584 0.950 . S
C592 C593 1.386 . S
C592 C594 1.391 . S
C593 C592 1.386 . S
C593 C597 1.393 . S
C594 H586 0.950 . S
C594 C592 1.391 . S
C594 C595 1.400 . S
C595 C594 1.400 . S
C595 C596 1.398 . S
C595 C601 1.491 . S
C596 H587 0.950 . S
C596 C595 1.398 . S
C596 C597 1.391 . S
C597 H585 0.950 . S
C597 C593 1.393 . S
C597 C596 1.391 . S
C598 H588 0.950 . S
C598 C599 1.386 . S
C598 C600 1.391 . S
C599 C598 1.386 . S
C599 C603 1.393 . S
C600 H589 0.950 . S
C600 C598 1.391 . S
C600 C601 1.400 . S
C601 C595 1.491 . S
C601 C600 1.400 . S
C601 C602 1.398 . S
C602 H590 0.950 . S
C602 C601 1.398 . S
C602 C603 1.391 . S
C603 H591 0.950 . S
C603 C599 1.393 . S
C603 C602 1.391 . S
H604 C612 0.950 . S
H605 C617 0.950 . S
H606 C614 0.950 . S
H607 C616 0.950 . S
H608 C618 0.950 . S
H609 C620 0.950 . S
H610 C622 0.950 . S
H611 C623 0.950 1_655 S
C612 H604 0.950 . S
C612 C613 1.386 . S
C612 C614 1.391 . S
C613 C612 1.386 . S
C613 C617 1.393 . S
C614 H606 0.950 . S
C614 C612 1.391 . S
C614 C615 1.400 . S
C615 C614 1.400 . S
C615 C616 1.398 . S
C615 C621 1.491 . S
C616 H607 0.950 . S
C616 C615 1.398 . S
C616 C617 1.391 . S
C617 H605 0.950 . S
C617 C613 1.393 . S
C617 C616 1.391 . S
C618 H608 0.950 . S
C618 C619 1.386 . S
C618 C620 1.391 . S
C619 C618 1.386 . S
C619 C623 1.393 . S
C620 H609 0.950 . S
C620 C618 1.391 . S
C620 C621 1.400 . S
C621 C615 1.491 . S
C621 C620 1.400 . S
C621 C622 1.398 . S
C622 H610 0.950 . S
C622 C621 1.398 . S
C622 C623 1.391 . S
C623 H611 0.950 1_455 S
C623 C619 1.393 . S
C623 C622 1.391 . S
H624 C632 0.950 . S
H625 C637 0.950 . S
H626 C634 0.950 . S
H627 C636 0.950 . S
H628 C638 0.950 . S
H629 C640 0.950 . S
H630 C642 0.950 . S
H631 C643 0.950 . S
C632 H624 0.950 . S
C632 C633 1.386 . S
C632 C634 1.391 . S
C633 C632 1.386 . S
C633 C637 1.393 . S
C634 H626 0.950 . S
C634 C632 1.391 . S
C634 C635 1.400 . S
C635 C634 1.400 . S
C635 C636 1.398 . S
C635 C641 1.491 . S
C636 H627 0.950 . S
C636 C635 1.398 . S
C636 C637 1.391 . S
C637 H625 0.950 . S
C637 C633 1.393 . S
C637 C636 1.391 . S
C638 H628 0.950 . S
C638 C639 1.386 . S
C638 C640 1.391 . S
C639 C638 1.386 . S
C639 C643 1.393 . S
C640 H629 0.950 . S
C640 C638 1.391 . S
C640 C641 1.400 . S
C641 C635 1.491 . S
C641 C640 1.400 . S
C641 C642 1.398 . S
C642 H630 0.950 . S
C642 C641 1.398 . S
C642 C643 1.391 . S
C643 H631 0.950 . S
C643 C639 1.393 . S
C643 C642 1.391 . S
C173 C5 1.576 . S
C179 C90 1.565 . S
C193 C14 1.562 . S
C199 C114 1.539 . S
C219 C134 1.398 . S
C213 C25 1.389 . S
C233 C34 1.400 . S
C239 C157 1.408 . S
C259 C116 1.623 . S
C253 C7 1.656 . S
C279 C92 1.612 . S
C273 C13 1.660 . S
C299 C160 1.516 . S
C293 C23 1.551 . S
C319 C137 1.499 . S
C313 C31 1.532 . S
C333 C4 1.416 . S
C339 C162 1.383 . S
C359 C111 1.578 . S
C353 C22 1.574 . S
C373 C32 1.564 . S
C379 C89 1.578 . S
C393 C16 1.397 . S
C399 C139 1.360 . S
C419 C93 1.564 . S
C413 C41 1.552 . S
C433 C50 1.549 . S
C439 C115 1.518 . S
C453 C61 1.638 . S
C459 C135 1.661 . S
C473 C67 1.645 . S
C479 C158 1.671 . S
C493 C40 1.482 . S
C499 C113 1.463 . S
C519 C91 1.481 . S
C513 C52 1.465 . S
C539 C161 1.451 . S
C533 C59 1.472 . S
C559 C138 1.440 . S
C553 C70 1.487 . S
C573 C43 1.740 . S
C579 C159 1.724 . S
C599 C112 1.493 . S
C593 C58 1.469 . S
C619 C88 1.496 . S
C613 C68 1.475 . S
C633 C49 1.739 . S
C639 C136 1.709 . S
