# Generated by pormake.
# Topology zzz, (3,6)-cn, num edge types: 1
# Building blocks:
#     Node 0, Type 0, BuildingBlock: ESEHIV_clean_linker_0, # of connection points: 3
#     Node 1, Type 0, BuildingBlock: ESEHIV_clean_linker_0, # of connection points: 3
#     Node 2, Type 0, BuildingBlock: ESEHIV_clean_linker_0, # of connection points: 3
#     Node 3, Type 0, BuildingBlock: ESEHIV_clean_linker_0, # of connection points: 3
#     Node 4, Type 0, BuildingBlock: ESEHIV_clean_linker_0, # of connection points: 3
#     Node 5, Type 0, BuildingBlock: ESEHIV_clean_linker_0, # of connection points: 3
#     Node 6, Type 0, BuildingBlock: ESEHIV_clean_linker_0, # of connection points: 3
#     Node 7, Type 0, BuildingBlock: ESEHIV_clean_linker_0, # of connection points: 3
#     Node 8, Type 1, BuildingBlock: FUNLAD_clean_sbu_0, # of connection points: 6
#     Node 9, Type 1, BuildingBlock: FUNLAD_clean_sbu_0, # of connection points: 6
#     Node 10, Type 1, BuildingBlock: FUNLAD_clean_sbu_0, # of connection points: 6
#     Node 11, Type 1, BuildingBlock: FUNLAD_clean_sbu_0, # of connection points: 6
#     Edge 12, Type (0, 1), BuildingBlock: AJUNOK_clean_linker_0, # of connection points: 2
#     Edge 13, Type (0, 1), BuildingBlock: AJUNOK_clean_linker_0, # of connection points: 2
#     Edge 14, Type (0, 1), BuildingBlock: AJUNOK_clean_linker_0, # of connection points: 2
#     Edge 15, Type (0, 1), BuildingBlock: AJUNOK_clean_linker_0, # of connection points: 2
#     Edge 16, Type (0, 1), BuildingBlock: AJUNOK_clean_linker_0, # of connection points: 2
#     Edge 17, Type (0, 1), BuildingBlock: AJUNOK_clean_linker_0, # of connection points: 2
#     Edge 18, Type (0, 1), BuildingBlock: AJUNOK_clean_linker_0, # of connection points: 2
#     Edge 19, Type (0, 1), BuildingBlock: AJUNOK_clean_linker_0, # of connection points: 2
#     Edge 20, Type (0, 1), BuildingBlock: AJUNOK_clean_linker_0, # of connection points: 2
#     Edge 21, Type (0, 1), BuildingBlock: AJUNOK_clean_linker_0, # of connection points: 2
#     Edge 22, Type (0, 1), BuildingBlock: AJUNOK_clean_linker_0, # of connection points: 2
#     Edge 23, Type (0, 1), BuildingBlock: AJUNOK_clean_linker_0, # of connection points: 2
#     Edge 24, Type (0, 1), BuildingBlock: AJUNOK_clean_linker_0, # of connection points: 2
#     Edge 25, Type (0, 1), BuildingBlock: AJUNOK_clean_linker_0, # of connection points: 2
#     Edge 26, Type (0, 1), BuildingBlock: AJUNOK_clean_linker_0, # of connection points: 2
#     Edge 27, Type (0, 1), BuildingBlock: AJUNOK_clean_linker_0, # of connection points: 2
#     Edge 28, Type (0, 1), BuildingBlock: AJUNOK_clean_linker_0, # of connection points: 2
#     Edge 29, Type (0, 1), BuildingBlock: AJUNOK_clean_linker_0, # of connection points: 2
#     Edge 30, Type (0, 1), BuildingBlock: AJUNOK_clean_linker_0, # of connection points: 2
#     Edge 31, Type (0, 1), BuildingBlock: AJUNOK_clean_linker_0, # of connection points: 2
#     Edge 32, Type (0, 1), BuildingBlock: AJUNOK_clean_linker_0, # of connection points: 2
#     Edge 33, Type (0, 1), BuildingBlock: AJUNOK_clean_linker_0, # of connection points: 2
#     Edge 34, Type (0, 1), BuildingBlock: AJUNOK_clean_linker_0, # of connection points: 2
#     Edge 35, Type (0, 1), BuildingBlock: AJUNOK_clean_linker_0, # of connection points: 2
# Relax obj value: 0.255
# Max RMSD: 0.253
# Mean RMSD: 0.196
data_MOF--net-zzz--node1-FUNLAD_clean_sbu_0--node2-ESEHIV_clean_linker_0--edge1-AJUNOK_clean_linker_0
_symmetry_space_group_name_H-M    P1
_symmetry_Int_Tables_number       1
_symmetry_cell_setting            triclinic
loop_
_symmetry_equiv_pos_as_xyz
'x, y, z'
_cell_length_a     32.021836
_cell_length_b     38.246442
_cell_length_c     13.011145
_cell_angle_alpha  84.226999
_cell_angle_beta   82.78919
_cell_angle_gamma 91.859934
loop_
_atom_site_label
_atom_site_type_symbol
_atom_site_fract_x
_atom_site_fract_y
_atom_site_fract_z
_atom_type_partial_charge
H0 H 0.89408 0.43371 0.40965 0.0
H1 H 0.83364 0.45109 0.13433 0.0
H2 H 0.7806 0.4914 0.41658 0.0
C3 C 0.86782 0.44342 0.37171 0.0
C4 C 0.83765 0.46291 0.42592 0.0
C5 C 0.86816 0.44084 0.26536 0.0
C6 C 0.83391 0.45298 0.21686 0.0
C7 C 0.80135 0.47004 0.27157 0.0
C8 C 0.80376 0.47587 0.37608 0.0
H9 H 0.9977 0.85079 0.21427 0.0
H10 H 0.04641 0.76742 0.04402 0.0
H11 H 0.94853 0.74486 0.30485 0.0
C12 C 0.99839 0.82302 0.20354 0.0
C13 C 0.97053 0.79925 0.26927 0.0
C14 C 0.02565 0.81201 0.12197 0.0
C15 C 0.02588 0.7762 0.10822 0.0
C16 C 0.998 0.75185 0.17344 0.0
C17 C 0.97025 0.76341 0.25464 0.0
H18 H 0.67274 0.01947 0.28551 0.0
H19 H 0.76558 0.01804 0.01959 0.0
H20 H 0.79811 0.9896 0.32942 0.0
C21 C 0.70513 0.01593 0.25326 0.0
C22 C 0.73378 0.00423 0.31982 0.0
C23 C 0.71584 0.01972 0.14578 0.0
C24 C 0.75747 0.01515 0.10353 0.0
C25 C 0.7881 0.00513 0.16885 0.0
C26 C 0.7758 -0.00093 0.27822 0.0
H27 H 0.51511 0.60961 0.24866 0.0
H28 H 0.55446 0.7124 0.31727 0.0
H29 H 0.48737 0.70115 0.05428 0.0
C30 C 0.51571 0.638 0.23171 0.0
C31 C 0.49763 0.65286 0.14607 0.0
C32 C 0.53622 0.65906 0.29374 0.0
C33 C 0.53849 0.69588 0.27007 0.0
C34 C 0.52078 0.71104 0.18313 0.0
C35 C 0.50018 0.68946 0.1224 0.0
H36 H 0.15823 0.55869 0.11285 0.0
H37 H 0.22482 0.55626 0.3787 0.0
H38 H 0.27998 0.51354 0.10238 0.0
C39 C 0.18663 0.55345 0.14829 0.0
C40 C 0.219 0.53588 0.09493 0.0
C41 C 0.18794 0.56031 0.25116 0.0
C42 C 0.2243 0.55275 0.29723 0.0
C43 C 0.25857 0.53734 0.24331 0.0
C44 C 0.25515 0.52757 0.14261 0.0
H45 H 0.07509 0.14246 0.32631 0.0
H46 H 0.02602 0.22896 0.48092 0.0
H47 H 0.13008 0.2467 0.23382 0.0
C48 C 0.07606 0.17031 0.33576 0.0
C49 C 0.10608 0.19285 0.27158 0.0
C50 C 0.0471 0.18294 0.41115 0.0
C51 C 0.0482 0.21891 0.42228 0.0
C52 C 0.07861 0.24196 0.36041 0.0
C53 C 0.10734 0.22895 0.28379 0.0
H54 H 0.37575 0.97994 0.27875 0.0
H55 H 0.2736 0.97483 0.52662 0.0
H56 H 0.25276 0.00973 0.21141 0.0
C57 C 0.34248 0.9823 0.30481 0.0
C58 C 0.31603 0.99427 0.23243 0.0
C59 C 0.32773 0.97586 0.41054 0.0
C60 C 0.28509 0.98006 0.44429 0.0
C61 C 0.25752 0.99246 0.37393 0.0
C62 C 0.27316 -0.00049 0.26659 0.0
H63 H 0.53474 0.38472 0.27903 0.0
H64 H 0.49563 0.28213 0.20776 0.0
H65 H 0.55982 0.29278 0.47566 0.0
C66 C 0.53327 0.35634 0.29683 0.0
C67 C 0.54984 0.34131 0.38458 0.0
C68 C 0.51391 0.33536 0.23256 0.0
C69 C 0.51076 0.29855 0.25675 0.0
C70 C 0.52701 0.28328 0.34573 0.0
C71 C 0.54727 0.30469 0.40745 0.0
C72 C 0.05154 0.93947 0.86473 0.0
N73 N 0.9718 0.95315 0.6383 0.0
C74 C 0.97507 0.9563 0.53262 0.0
C75 C 0.95865 0.92946 0.48202 0.0
C76 C 0.93882 0.89921 0.54102 0.0
C77 C 0.93368 0.89771 0.64977 0.0
C78 C 0.9504 0.92512 0.69703 0.0
Zn79 Zn 1.00495 0.98618 0.71534 0.0
C80 C 0.9521 0.99694 0.92064 0.0
N81 N 0.07288 0.0458 0.9024 0.0
C82 C 0.11525 0.04515 0.90559 0.0
C83 C 0.04992 0.07176 0.94196 0.0
C84 C 0.06936 0.09882 0.9844 0.0
C85 C 0.11302 0.09943 0.98688 0.0
C86 C 0.13614 0.07187 0.94861 0.0
Zn87 Zn 0.04086 0.01276 0.82255 0.0
O88 O 0.02754 0.94144 0.79406 0.0
C89 C 0.0934 0.00215 0.61665 0.0
O90 O 0.06381 0.96755 0.89871 0.0
H91 H 1.01645 0.07217 0.93786 0.0
H92 H 0.99253 0.97861 0.48756 0.0
H93 H 0.13298 0.02443 0.87268 0.0
O94 O 0.05926 0.98738 0.59846 0.0
O95 O 0.09393 0.01499 0.70315 0.0
H96 H 0.94848 0.92286 0.78098 0.0
O97 O 1.01805 0.05738 0.74473 0.0
O98 O 0.98351 0.0317 0.63595 0.0
O99 O 0.98672 0.01003 0.94127 0.0
O100 O 0.95133 0.9855 0.83243 0.0
C101 C 0.99555 0.05966 0.671 0.0
H102 H 0.96421 0.93121 0.39777 0.0
H103 H 0.919 0.87469 0.69766 0.0
H104 H 0.05024 0.11913 0.01557 0.0
H105 H 0.16983 0.07133 0.95043 0.0
C106 C 0.46985 0.97707 0.63931 0.0
N107 N 0.5224 0.07635 0.66759 0.0
C108 C 0.52752 0.07851 0.56156 0.0
C109 C 0.52651 0.11083 0.50197 0.0
C110 C 0.52051 0.14151 0.55151 0.0
C111 C 0.51495 0.1386 0.66114 0.0
C112 C 0.51605 0.10559 0.71801 0.0
Zn113 Zn 0.52385 0.02688 0.74527 0.0
C114 C 0.45064 0.0072 0.90146 0.0
N115 N 0.52543 0.9195 0.87067 0.0
C116 C 0.53336 0.89075 0.81888 0.0
C117 C 0.51857 0.91659 0.97674 0.0
C118 C 0.51928 0.88394 0.03489 0.0
C119 C 0.52695 0.85377 0.98376 0.0
C120 C 0.53435 0.85747 0.87423 0.0
Zn121 Zn 0.52433 0.96914 0.79372 0.0
O122 O 0.4829 0.00832 0.64663 0.0
C123 C 0.59817 0.98932 0.64011 0.0
O124 O 0.48517 0.95137 0.68928 0.0
H125 H 0.51266 0.93973 0.01674 0.0
H126 H 0.53225 0.05499 0.52269 0.0
H127 H 0.53888 0.89363 0.73466 0.0
O128 O 0.57923 0.01797 0.64399 0.0
O129 O 0.58103 0.96146 0.69243 0.0
H130 H 0.5119 0.10331 0.80226 0.0
O131 O 0.56281 0.9878 0.89731 0.0
O132 O 0.56435 0.04445 0.84642 0.0
O133 O 0.46793 0.97795 0.89276 0.0
O134 O 0.46864 0.03502 0.85073 0.0
C135 C 0.57663 0.01893 0.9036 0.0
H136 H 0.53002 0.11172 0.41785 0.0
H137 H 0.51034 0.16168 0.7024 0.0
H138 H 0.51423 0.88238 0.11914 0.0
H139 H 0.54027 0.8348 0.83184 0.0
C140 C 0.56464 0.45049 0.64041 0.0
N141 N 0.44531 0.49264 0.65078 0.0
C142 C 0.45604 0.49063 0.54666 0.0
C143 C 0.42593 0.49401 0.47796 0.0
C144 C 0.38446 0.50052 0.51577 0.0
C145 C 0.37362 0.50173 0.62341 0.0
C146 C 0.40467 0.4974 0.69018 0.0
Zn147 Zn 0.49505 0.49541 0.73831 0.0
C148 C 0.50006 0.44103 0.90297 0.0
N149 N 0.60997 0.50428 0.87156 0.0
C150 C 0.65105 0.50231 0.83121 0.0
C151 C 0.59902 0.50547 0.97583 0.0
C152 C 0.62949 0.50456 0.04367 0.0
C153 C 0.67199 0.50173 0.0051 0.0
C154 C 0.68267 0.5008 0.89695 0.0
Zn155 Zn 0.56026 0.50096 0.78463 0.0
O156 O 0.5268 0.45972 0.64778 0.0
C157 C 0.55578 0.55531 0.62093 0.0
O158 O 0.59075 0.46458 0.69148 0.0
H159 H 0.56626 0.50607 0.00772 0.0
H160 H 0.48852 0.48827 0.51503 0.0
H161 H 0.65919 0.50078 0.7486 0.0
O162 O 0.51971 0.53946 0.63293 0.0
O163 O 0.58406 0.54414 0.67488 0.0
H164 H 0.39667 0.49947 0.77252 0.0
O165 O 0.52835 0.53743 0.87425 0.0
O166 O 0.46428 0.53075 0.8324 0.0
O167 O 0.53567 0.45757 0.89093 0.0
O168 O 0.47168 0.45145 0.84801 0.0
C169 C 0.49008 0.5457 0.88216 0.0
H170 H 0.43549 0.49357 0.39522 0.0
H171 H 0.3418 0.5071 0.65487 0.0
H172 H 0.61969 0.50542 0.12612 0.0
H173 H 0.71488 0.49763 0.86376 0.0
C174 C 0.05996 0.53941 0.58473 0.0
N175 N 0.05213 0.43026 0.64949 0.0
C176 C 0.04133 0.4319 0.55122 0.0
C177 C 0.05023 0.40457 0.48984 0.0
C178 C 0.07044 0.37521 0.52986 0.0
C179 C 0.08162 0.37428 0.63114 0.0
C180 C 0.07223 0.40232 0.68987 0.0
Zn181 Zn 0.03764 0.47138 0.73373 0.0
C182 C 0.10937 0.50029 0.82244 0.0
N183 N 1.00806 0.56406 0.87518 0.0
C184 C 0.99042 0.59355 0.83595 0.0
C185 C 1.01922 0.56109 0.9732 0.0
C186 C 1.01374 0.58862 0.03507 0.0
C187 C 0.99736 0.6199 0.99518 0.0
C188 C 0.98476 0.62202 0.89512 0.0
Zn189 Zn 1.0214 0.52294 0.7899 0.0
O190 O 0.06026 0.50609 0.60041 0.0
C191 C 0.94981 0.49444 0.70049 0.0
O192 O 0.04436 0.55689 0.65682 0.0
H193 H 0.0334 0.53756 0.00302 0.0
H194 H 0.02539 0.45436 0.52043 0.0
H195 H 0.98176 0.59532 0.75793 0.0
O196 O 0.97621 0.47059 0.68853 0.0
O197 O 0.95991 0.52176 0.74176 0.0
H198 H 0.08046 0.40157 0.76815 0.0
O199 O 0.99889 0.48824 0.92287 0.0
O200 O 1.0142 0.4373 0.86677 0.0
O201 O 0.0828 0.52397 0.83375 0.0
O202 O 0.09929 0.47261 0.783 0.0
C203 C 0.9989 0.45494 0.93877 0.0
H204 H 0.04096 0.40619 0.41228 0.0
H205 H 0.09626 0.35166 0.66583 0.0
H206 H 0.0231 0.58572 0.11254 0.0
H207 H 0.97211 0.64585 0.86164 0.0
C208 C 0.20824 0.02074 0.50187 0.0
C209 C 0.21375 -0.00012 0.41838 0.0
C210 C 0.16895 0.02239 0.56196 0.0
C211 C 0.13308 0.00325 0.54162 0.0
H212 H 0.23513 0.03475 0.52398 0.0
H213 H 0.16717 0.03793 0.6274 0.0
S214 S 0.12956 0.94767 0.32399 0.0
N215 N 0.17937 0.96192 0.31275 0.0
N216 N 0.10514 0.96514 0.4248 0.0
C217 C 0.1375 0.98406 0.45385 0.0
C218 C 0.17784 0.98239 0.39246 0.0
C219 C 0.48915 0.23371 0.46219 0.0
C220 C 0.52141 0.24532 0.38129 0.0
C221 C 0.4885 0.19981 0.51509 0.0
C222 C 0.52024 0.17638 0.48929 0.0
H223 H 0.46529 0.25153 0.48769 0.0
H224 H 0.46343 0.19215 0.57808 0.0
S225 S 0.61183 0.19471 0.28325 0.0
N226 N 0.58557 0.23117 0.27721 0.0
N227 N 0.58477 0.16746 0.3764 0.0
C228 C 0.55209 0.18752 0.40641 0.0
C229 C 0.55262 0.22203 0.35264 0.0
C230 C 0.30962 0.49465 0.31147 0.0
C231 C 0.29539 0.52912 0.29966 0.0
C232 C 0.33887 0.48541 0.38085 0.0
C233 C 0.3542 0.51021 0.44155 0.0
H234 H 0.29679 0.47441 0.27032 0.0
H235 H 0.34868 0.45854 0.38921 0.0
S236 S 0.33193 0.60483 0.42804 0.0
N237 N 0.30304 0.58891 0.34543 0.0
N238 N 0.35668 0.57117 0.47743 0.0
C239 C 0.34181 0.54496 0.42675 0.0
C240 C 0.31281 0.55451 0.35529 0.0
C241 C 0.04372 0.29822 0.38523 0.0
C242 C 0.08056 0.27914 0.38194 0.0
C243 C 0.04156 0.33029 0.42823 0.0
C244 C 0.07608 0.34429 0.47021 0.0
H245 H 1.01569 0.28737 0.35908 0.0
H246 H 1.01184 0.34317 0.43393 0.0
S247 S 0.1813 0.30647 0.46918 0.0
N248 N 0.15338 0.27776 0.41595 0.0
N249 N 0.14955 0.33846 0.49598 0.0
C250 C 0.11396 0.32656 0.46135 0.0
C251 C 0.11619 0.29391 0.41705 0.0
C252 C 0.83696 0.97898 0.03404 0.0
C253 C 0.83168 -0.0008 0.11902 0.0
C254 C 0.87621 0.97746 0.97356 0.0
C255 C 0.91228 0.99608 0.99498 0.0
H256 H 0.81008 0.96495 0.01198 0.0
H257 H 0.87791 0.9622 0.9075 0.0
S258 S 0.91633 0.05068 0.21457 0.0
N259 N 0.86648 0.03656 0.22576 0.0
N260 N 0.94052 0.03358 0.1128 0.0
C261 C 0.90802 0.01494 0.08334 0.0
C262 C 0.86776 0.01648 0.14515 0.0
C263 C 0.5592 0.7618 0.07269 0.0
C264 C 0.52554 0.74909 0.14851 0.0
C265 C 0.55991 0.79596 0.02141 0.0
C266 C 0.52693 0.81857 0.04415 0.0
H267 H 0.58425 0.74468 0.04984 0.0
H268 H 0.5861 0.80452 0.96218 0.0
S269 S 0.43152 0.79726 0.23679 0.0
N270 N 0.45869 0.76131 0.24447 0.0
N271 N 0.45974 0.82556 0.14868 0.0
C272 C 0.4936 0.80631 0.12201 0.0
C273 C 0.49293 0.77152 0.17387 0.0
C274 C 0.72614 0.46757 0.2382 0.0
C275 C 0.76686 0.48332 0.2143 0.0
C276 C 0.69538 0.47443 0.17161 0.0
C277 C 0.70419 0.49739 0.07869 0.0
H278 H 0.71869 0.44842 0.30583 0.0
H279 H 0.66502 0.46042 0.19098 0.0
S280 S 0.80486 0.54863 0.98904 0.0
N281 N 0.8136 0.52495 0.09691 0.0
N282 N 0.7557 0.53858 0.97301 0.0
C283 C 0.74425 0.51473 0.05734 0.0
C284 C 0.77554 0.50757 0.12487 0.0
C285 C 0.95939 0.70202 0.11224 0.0
C286 C 0.99581 0.71519 0.14794 0.0
C287 C 0.95961 0.67049 0.06576 0.0
C288 C 0.99615 0.65102 0.05453 0.0
H289 H 0.93133 0.71716 0.11503 0.0
H290 H 0.93138 0.66174 0.03596 0.0
S291 S 0.09866 0.67337 0.14283 0.0
N292 N 0.06836 0.70571 0.17505 0.0
N293 N 0.06906 0.64648 0.08767 0.0
C294 C 0.03211 0.66316 0.09479 0.0
C295 C 0.03187 0.69527 0.14147 0.0
C296 C 0.99996 0.12854 0.44412 0.0
C297 C 1.01912 0.15721 0.48338 0.0
C298 C 0.98676 0.09766 0.50881 0.0
C299 C 0.99196 0.09476 0.61487 0.0
H300 H 0.99888 0.12871 0.36115 0.0
H301 H 0.97662 0.07494 0.47328 0.0
S302 S 0.02847 0.16592 0.76108 0.0
N303 N 0.03469 0.18314 0.63835 0.0
N304 N 1.00755 0.12594 0.76083 0.0
C305 C 1.00449 0.12523 0.65774 0.0
C306 C 1.01872 0.15637 0.59164 0.0
C307 C 0.39129 0.94678 0.46819 0.0
C308 C 0.35898 0.97063 0.48484 0.0
C309 C 0.42671 0.94748 0.52183 0.0
C310 C 0.43097 0.97247 0.59204 0.0
H311 H 0.39003 0.92859 0.40985 0.0
H312 H 0.45173 0.92975 0.50433 0.0
S313 S 0.35319 0.03756 0.67304 0.0
N314 N 0.3322 0.01767 0.58371 0.0
N315 N 0.39818 0.0187 0.68488 0.0
C316 C 0.39767 0.99475 0.61442 0.0
C317 C 0.36172 0.99388 0.56081 0.0
C318 C 0.59042 0.39472 0.42273 0.0
C319 C 0.56417 0.36449 0.45892 0.0
C320 C 0.5951 0.42171 0.48666 0.0
C321 C 0.57377 0.41895 0.58826 0.0
H322 H 0.60502 0.39859 0.34242 0.0
H323 H 0.61238 0.44591 0.4537 0.0
S324 S 0.50404 0.34461 0.72225 0.0
N325 N 0.51908 0.33277 0.60531 0.0
N326 N 0.52801 0.38331 0.72426 0.0
C327 C 0.55029 0.38783 0.62753 0.0
C328 C 0.5455 0.36052 0.56316 0.0
C329 C 0.11269 0.54436 0.31358 0.0
C330 C 0.14834 0.56646 0.31789 0.0
C331 C 0.08042 0.5394 0.39676 0.0
C332 C 0.08253 0.55642 0.48661 0.0
H333 H 0.11172 0.52762 0.25145 0.0
H334 H 0.05596 0.51927 0.39544 0.0
S335 S 0.16281 0.62416 0.52438 0.0
N336 N 0.17915 0.61132 0.40915 0.0
N337 N 0.11824 0.60135 0.56733 0.0
C338 C 0.11459 0.58235 0.4859 0.0
C339 C 0.1477 0.58746 0.40086 0.0
C340 C 0.067 0.86908 0.07812 0.0
C341 C 0.04792 0.83938 0.04393 0.0
C342 C 0.07242 0.9012 0.01511 0.0
C343 C 0.05934 0.9044 0.91561 0.0
H344 H 0.07374 0.86841 0.15785 0.0
H345 H 0.08323 0.92418 0.04834 0.0
S346 S 1.01935 0.83193 0.77925 0.0
N347 N 0.02388 0.81349 0.8973 0.0
N348 N 0.03602 0.87331 0.77685 0.0
C349 C 0.04649 0.87358 0.87492 0.0
C350 C 0.0404 0.84107 0.93961 0.0
C351 C 0.64751 0.99638 0.10645 0.0
C352 C 0.68098 0.02173 0.08142 0.0
C353 C 0.6128 0.99728 0.05214 0.0
C354 C 0.61011 0.02339 0.96962 0.0
H355 H 0.64836 0.9753 0.16833 0.0
H356 H 0.58827 0.97669 0.07352 0.0
S357 S 0.68935 0.096 0.87305 0.0
N358 N 0.70935 0.07407 0.97011 0.0
N359 N 0.64383 0.07547 0.86504 0.0
C360 C 0.64306 0.0493 0.94406 0.0
C361 C 0.67874 0.04837 0.00015 0.0
C362 C 0.50162 0.63488 0.96762 0.0
C363 C 0.4832 0.62958 0.07215 0.0
C364 C 0.49965 0.60826 0.90234 0.0
C365 C 0.47871 0.57576 0.9389 0.0
H366 H 0.52114 0.65835 0.93874 0.0
H367 H 0.51763 0.61205 0.82546 0.0
S368 S 0.41895 0.55094 0.19939 0.0
N369 N 0.43812 0.59128 0.20468 0.0
N370 N 0.43487 0.54094 0.08055 0.0
C371 C 0.45655 0.57128 0.03936 0.0
C372 C 0.45864 0.59838 0.10646 0.0
C373 C 0.90603 0.41427 0.11334 0.0
C374 C 0.9077 0.43323 0.20029 0.0
C375 C 0.93958 0.4168 0.03211 0.0
C376 C 0.97559 0.43826 0.03621 0.0
H377 H 0.87722 0.40004 0.10366 0.0
H378 H 0.93519 0.40532 0.96117 0.0
S379 S 0.99974 0.48716 0.2542 0.0
N380 N 0.95165 0.46995 0.29109 0.0
N381 N 1.01466 0.47332 0.13982 0.0
C382 C 0.98008 0.45322 0.12824 0.0
C383 C 0.94602 0.45111 0.21022 0.0
C384 C 0.12066 0.18749 0.08361 0.0
C385 C 0.13083 0.17781 0.1841 0.0
C386 C 0.12132 0.16281 0.01095 0.0
C387 C 0.13215 0.12791 0.03717 0.0
H388 H 0.10621 0.21227 0.0663 0.0
H389 H 0.10809 0.16971 0.93931 0.0
S390 S 0.17466 0.09371 0.27759 0.0
N391 N 0.16298 0.13459 0.29571 0.0
N392 N 0.16315 0.08778 0.16009 0.0
C393 C 0.14982 0.12013 0.12967 0.0
C394 C 0.14965 0.14542 0.20303 0.0
C395 C 0.34838 0.97388 0.06797 0.0
C396 C 0.33685 0.00241 0.12385 0.0
C397 C 0.38395 0.97643 0.99225 0.0
C398 C 0.40944 0.00769 0.96887 0.0
H399 H 0.33229 0.94836 0.09029 0.0
H400 H 0.3928 0.95303 0.9558 0.0
S401 S 0.38929 0.09143 0.08338 0.0
N402 N 0.3511 0.06387 0.14363 0.0
N403 N 0.41743 0.06908 -0.00071 0.0
C404 C 0.39588 0.03742 0.01689 0.0
C405 C 0.3597 0.03468 0.09476 0.0
C406 C 0.53046 0.35743 0.04725 0.0
C407 C 0.50077 0.35334 0.1368 0.0
C408 C 0.52808 0.38474 0.96858 0.0
C409 C 0.49507 0.40822 0.97446 0.0
H410 H 0.55806 0.3417 0.04285 0.0
H411 H 0.55397 0.38894 0.90596 0.0
S412 S 0.40772 0.40711 0.18995 0.0
N413 N 0.43641 0.37396 0.22591 0.0
N414 N 0.43066 0.4243 0.07414 0.0
C415 C 0.46327 0.40273 0.05963 0.0
C416 C 0.46639 0.37544 0.14172 0.0
C417 C 0.19204 0.48796 0.00288 0.0
C418 C 0.20955 0.5225 -0.00288 0.0
C419 C 0.16276 0.47923 0.9363 0.0
C420 C 0.15007 0.50492 0.86293 0.0
H421 H 0.19695 0.46887 0.06712 0.0
H422 H 0.14665 0.45352 0.95026 0.0
S423 S 0.1936 0.59666 0.80237 0.0
N424 N 0.2177 0.58041 0.90045 0.0
N425 N 0.16258 0.56425 0.77626 0.0
C426 C 0.17138 0.53809 0.84796 0.0
C427 C 0.20137 0.54677 0.9146 0.0
C428 C 0.95735 0.80977 0.45376 0.0
C429 C 0.94414 0.8137 0.35463 0.0
C430 C 0.9509 0.83619 0.5205 0.0
C431 C 0.93118 0.86722 0.48952 0.0
H432 H 0.97749 0.78863 0.4742 0.0
H433 H 0.96568 0.83404 0.59116 0.0
S434 S 0.88105 0.88518 0.24944 0.0
N435 N 0.90284 0.84695 0.2379 0.0
N436 N 0.8908 0.89677 0.36335 0.0
C437 C 0.91246 0.86886 0.39742 0.0
C438 C 0.91866 0.84183 0.33014 0.0
C439 C 0.69089 0.96326 0.45427 0.0
C440 C 0.71521 0.99515 0.42983 0.0
C441 C 0.65431 0.96049 0.52776 0.0
C442 C 0.64067 0.98967 0.57842 0.0
H443 H 0.69736 0.94166 0.4076 0.0
H444 H 0.63488 0.93636 0.53836 0.0
S445 S 0.69838 0.07641 0.55886 0.0
N446 N 0.7268 0.05428 0.47477 0.0
N447 N 0.65869 0.04932 0.61298 0.0
C448 C 0.66744 0.02026 0.56346 0.0
C449 C 0.70472 0.02284 0.48972 0.0
C450 C 0.53025 0.64148 0.4837 0.0
C451 C 0.55316 0.64104 0.38462 0.0
C452 C 0.53441 0.61499 0.56399 0.0
C453 C 0.5622 0.58768 0.54838 0.0
H454 H 0.50595 0.66024 0.49615 0.0
H455 H 0.5134 0.61437 0.63626 0.0
S456 S 0.63263 0.577 0.3067 0.0
N457 N 0.60718 0.61286 0.2777 0.0
N458 N 0.61555 0.56349 0.42994 0.0
C459 C 0.58805 0.58876 0.45288 0.0
C460 C 0.58344 0.61545 0.37059 0.0
C461 C 0.85885 0.44962 0.60203 0.0
C462 C 0.8489 0.47506 0.52405 0.0
C463 C 0.88895 0.45721 0.66704 0.0
C464 C 0.90938 0.49069 0.65801 0.0
H465 H 0.84724 0.4226 0.60408 0.0
H466 H 0.89883 0.43593 0.71873 0.0
S467 S 0.88862 0.56817 0.48026 0.0
N468 N 0.85741 0.5363 0.4516 0.0
N469 N 0.91304 0.55083 0.57644 0.0
C470 C 0.89564 0.51755 0.59023 0.0
C471 C 0.86537 0.50969 0.52284 0.0
loop_
_geom_bond_atom_site_label_1
_geom_bond_atom_site_label_2
_geom_bond_distance
_geom_bond_site_symmetry_2
_ccdc_geom_bond_type
H0 C3 0.931 . S
H1 C6 0.928 . S
H2 C8 0.930 . S
C3 H0 0.931 . S
C3 C4 1.413 . S
C3 C5 1.360 . S
C4 C3 1.413 . S
C4 C8 1.429 . S
C5 C3 1.360 . S
C5 C6 1.372 . S
C6 H1 0.928 . S
C6 C5 1.372 . S
C6 C7 1.404 . S
C7 C6 1.404 . S
C7 C8 1.391 . S
C8 H2 0.930 . S
C8 C4 1.429 . S
C8 C7 1.391 . S
H9 C12 0.931 . S
H10 C15 0.928 . S
H11 C17 0.930 . S
C12 H9 0.931 . S
C12 C13 1.413 . S
C12 C14 1.360 1_554 S
C13 C12 1.413 . S
C13 C17 1.429 . S
C14 C12 1.360 1_556 S
C14 C15 1.372 . S
C15 H10 0.928 . S
C15 C14 1.372 . S
C15 C16 1.404 . S
C16 C15 1.404 . S
C16 C17 1.391 1_556 S
C17 H11 0.930 . S
C17 C13 1.429 . S
C17 C16 1.391 1_554 S
H18 C21 0.931 . S
H19 C24 0.928 1_556 S
H20 C26 0.929 . S
C21 H18 0.931 . S
C21 C22 1.413 . S
C21 C23 1.360 . S
C22 C21 1.413 . S
C22 C26 1.430 1_565 S
C23 C21 1.360 . S
C23 C24 1.374 . S
C24 H19 0.928 1_554 S
C24 C23 1.374 . S
C24 C25 1.405 . S
C25 C24 1.405 . S
C25 C26 1.389 1_565 S
C26 H20 0.929 . S
C26 C22 1.430 1_545 S
C26 C25 1.389 1_545 S
H27 C30 0.931 . S
H28 C33 0.928 . S
H29 C35 0.930 1_556 S
C30 H27 0.931 . S
C30 C31 1.413 . S
C30 C32 1.360 . S
C31 C30 1.413 . S
C31 C35 1.429 . S
C32 C30 1.360 . S
C32 C33 1.372 . S
C33 H28 0.928 . S
C33 C32 1.372 . S
C33 C34 1.404 . S
C34 C33 1.404 . S
C34 C35 1.391 . S
C35 H29 0.930 1_554 S
C35 C31 1.429 . S
C35 C34 1.391 . S
H36 C39 0.931 . S
H37 C42 0.928 . S
H38 C44 0.930 . S
C39 H36 0.931 . S
C39 C40 1.413 . S
C39 C41 1.360 . S
C40 C39 1.413 . S
C40 C44 1.429 . S
C41 C39 1.360 . S
C41 C42 1.372 . S
C42 H37 0.928 . S
C42 C41 1.372 . S
C42 C43 1.404 . S
C43 C42 1.404 . S
C43 C44 1.391 . S
C44 H38 0.930 . S
C44 C40 1.429 . S
C44 C43 1.391 . S
H45 C48 0.931 . S
H46 C51 0.928 . S
H47 C53 0.930 . S
C48 H45 0.931 . S
C48 C49 1.413 . S
C48 C50 1.360 . S
C49 C48 1.413 . S
C49 C53 1.429 . S
C50 C48 1.360 . S
C50 C51 1.372 . S
C51 H46 0.928 . S
C51 C50 1.372 . S
C51 C52 1.404 . S
C52 C51 1.404 . S
C52 C53 1.391 . S
C53 H47 0.930 . S
C53 C49 1.429 . S
C53 C52 1.391 . S
H54 C57 0.930 . S
H55 C60 0.928 . S
H56 C62 0.930 . S
C57 H54 0.930 . S
C57 C58 1.414 . S
C57 C59 1.360 . S
C58 C57 1.414 . S
C58 C62 1.428 1_565 S
C59 C57 1.360 . S
C59 C60 1.371 . S
C60 H55 0.928 . S
C60 C59 1.371 . S
C60 C61 1.404 . S
C61 C60 1.404 . S
C61 C62 1.392 1_565 S
C62 H56 0.930 . S
C62 C58 1.428 1_545 S
C62 C61 1.392 1_545 S
H63 C66 0.931 . S
H64 C69 0.928 . S
H65 C71 0.930 . S
C66 H63 0.931 . S
C66 C67 1.413 . S
C66 C68 1.360 . S
C67 C66 1.413 . S
C67 C71 1.429 . S
C68 C66 1.360 . S
C68 C69 1.372 . S
C69 H64 0.928 . S
C69 C68 1.372 . S
C69 C70 1.404 . S
C70 C69 1.404 . S
C70 C71 1.391 . S
C71 H65 0.930 . S
C71 C67 1.429 . S
C71 C70 1.391 . S
C72 O88 1.251 . S
C72 O90 1.254 1_655 S
N73 C74 1.333 . S
N73 C78 1.307 . S
N73 Zn79 2.020 . S
C74 N73 1.333 . S
C74 C75 1.379 . S
C74 H92 0.952 . S
C75 C74 1.379 . S
C75 C76 1.390 . S
C75 H102 0.949 . S
C76 C75 1.390 . S
C76 C77 1.357 . S
C77 C76 1.357 . S
C77 C78 1.370 . S
C77 H103 0.950 . S
C78 N73 1.307 . S
C78 C77 1.370 . S
C78 H96 0.948 1_565 S
Zn79 N73 2.020 . S
Zn79 O88 2.039 . S
Zn79 O94 2.034 1_655 S
Zn79 O98 2.025 1_665 S
Zn79 O100 2.024 1_565 S
C80 O99 1.246 . S
C80 O100 1.249 . S
N81 C82 1.307 1_556 S
N81 C83 1.333 1_556 S
N81 Zn87 2.020 . S
C82 N81 1.307 1_554 S
C82 C86 1.370 . S
C82 H93 0.948 1_545 S
C83 N81 1.333 1_554 S
C83 C84 1.379 . S
C83 H91 0.952 1_554 S
C84 C83 1.379 . S
C84 C85 1.390 . S
C84 H104 0.949 . S
C85 C84 1.390 . S
C85 C86 1.357 . S
C86 C82 1.370 . S
C86 C85 1.357 . S
C86 H105 0.950 . S
Zn87 N81 2.020 . S
Zn87 O90 2.025 1_545 S
Zn87 O95 2.024 1_545 S
Zn87 O97 2.039 . S
Zn87 O99 2.034 1_455 S
O88 C72 1.251 . S
O88 Zn79 2.039 . S
C89 O94 1.246 . S
C89 O95 1.249 . S
O90 C72 1.254 1_455 S
O90 Zn87 2.025 1_565 S
H91 C83 0.952 1_556 S
H92 C74 0.952 . S
H93 C82 0.948 1_565 S
O94 Zn79 2.034 1_455 S
O94 C89 1.246 . S
O95 Zn87 2.024 1_565 S
O95 C89 1.249 . S
H96 C78 0.948 1_545 S
O97 Zn87 2.039 . S
O97 C101 1.251 . S
O98 Zn79 2.025 1_445 S
O98 C101 1.254 . S
O99 C80 1.246 . S
O99 Zn87 2.034 1_655 S
O100 Zn79 2.024 1_545 S
O100 C80 1.249 . S
C101 O97 1.251 . S
C101 O98 1.254 . S
H102 C75 0.949 . S
H103 C77 0.950 . S
H104 C84 0.949 . S
H105 C86 0.950 . S
C106 O122 1.251 1_565 S
C106 O124 1.254 . S
N107 C108 1.333 . S
N107 C112 1.307 . S
N107 Zn113 2.020 . S
C108 N107 1.333 . S
C108 C109 1.379 . S
C108 H126 0.952 . S
C109 C108 1.379 . S
C109 C110 1.390 . S
C109 H136 0.949 . S
C110 C109 1.390 . S
C110 C111 1.357 . S
C111 C110 1.357 . S
C111 C112 1.370 . S
C111 H137 0.950 . S
C112 N107 1.307 . S
C112 C111 1.370 . S
C112 H130 0.948 . S
Zn113 N107 2.020 . S
Zn113 O122 2.039 . S
Zn113 O128 2.034 . S
Zn113 O132 2.025 . S
Zn113 O134 2.024 . S
C114 O133 1.246 1_545 S
C114 O134 1.249 . S
N115 C116 1.307 . S
N115 C117 1.333 . S
N115 Zn121 2.020 . S
C116 N115 1.307 . S
C116 C120 1.370 . S
C116 H127 0.948 . S
C117 N115 1.333 . S
C117 C118 1.379 . S
C117 H125 0.952 . S
C118 C117 1.379 . S
C118 C119 1.390 . S
C118 H138 0.949 1_556 S
C119 C118 1.390 . S
C119 C120 1.357 . S
C120 C116 1.370 . S
C120 C119 1.357 . S
C120 H139 0.950 . S
Zn121 N115 2.020 . S
Zn121 O124 2.025 . S
Zn121 O129 2.024 . S
Zn121 O131 2.039 . S
Zn121 O133 2.034 . S
O122 C106 1.251 1_545 S
O122 Zn113 2.039 . S
C123 O128 1.246 1_565 S
C123 O129 1.249 . S
O124 C106 1.254 . S
O124 Zn121 2.025 . S
H125 C117 0.952 . S
H126 C108 0.952 . S
H127 C116 0.948 . S
O128 Zn113 2.034 . S
O128 C123 1.246 1_545 S
O129 Zn121 2.024 . S
O129 C123 1.249 . S
H130 C112 0.948 . S
O131 Zn121 2.039 . S
O131 C135 1.251 1_565 S
O132 Zn113 2.025 . S
O132 C135 1.254 . S
O133 C114 1.246 1_565 S
O133 Zn121 2.034 . S
O134 Zn113 2.024 . S
O134 C114 1.249 . S
C135 O131 1.251 1_545 S
C135 O132 1.254 . S
H136 C109 0.949 . S
H137 C111 0.950 . S
H138 C118 0.949 1_554 S
H139 C120 0.950 . S
C140 O156 1.251 . S
C140 O158 1.254 . S
N141 C142 1.333 . S
N141 C146 1.307 . S
N141 Zn147 2.020 . S
C142 N141 1.333 . S
C142 C143 1.379 . S
C142 H160 0.952 . S
C143 C142 1.379 . S
C143 C144 1.390 . S
C143 H170 0.949 . S
C144 C143 1.390 . S
C144 C145 1.357 . S
C145 C144 1.357 . S
C145 C146 1.370 . S
C145 H171 0.950 . S
C146 N141 1.307 . S
C146 C145 1.370 . S
C146 H164 0.948 . S
Zn147 N141 2.020 . S
Zn147 O156 2.039 . S
Zn147 O162 2.034 . S
Zn147 O166 2.025 . S
Zn147 O168 2.024 . S
C148 O167 1.246 . S
C148 O168 1.249 . S
N149 C150 1.307 . S
N149 C151 1.333 . S
N149 Zn155 2.020 . S
C150 N149 1.307 . S
C150 C154 1.370 . S
C150 H161 0.948 . S
C151 N149 1.333 . S
C151 C152 1.379 . S
C151 H159 0.952 . S
C152 C151 1.379 . S
C152 C153 1.390 . S
C152 H172 0.949 1_556 S
C153 C152 1.390 . S
C153 C154 1.357 . S
C154 C150 1.370 . S
C154 C153 1.357 . S
C154 H173 0.950 . S
Zn155 N149 2.020 . S
Zn155 O158 2.025 . S
Zn155 O163 2.024 . S
Zn155 O165 2.039 . S
Zn155 O167 2.034 . S
O156 C140 1.251 . S
O156 Zn147 2.039 . S
C157 O162 1.246 . S
C157 O163 1.249 . S
O158 C140 1.254 . S
O158 Zn155 2.025 . S
H159 C151 0.952 . S
H160 C142 0.952 . S
H161 C150 0.948 . S
O162 Zn147 2.034 . S
O162 C157 1.246 . S
O163 Zn155 2.024 . S
O163 C157 1.249 . S
H164 C146 0.948 . S
O165 Zn155 2.039 . S
O165 C169 1.251 . S
O166 Zn147 2.025 . S
O166 C169 1.254 . S
O167 C148 1.246 . S
O167 Zn155 2.034 . S
O168 Zn147 2.024 . S
O168 C148 1.249 . S
C169 O165 1.251 . S
C169 O166 1.254 . S
H170 C143 0.949 . S
H171 C145 0.950 . S
H172 C152 0.949 1_554 S
H173 C154 0.950 . S
C174 O190 1.251 . S
C174 O192 1.254 . S
N175 C176 1.333 . S
N175 C180 1.307 . S
N175 Zn181 2.020 . S
C176 N175 1.333 . S
C176 C177 1.379 . S
C176 H194 0.952 . S
C177 C176 1.379 . S
C177 C178 1.390 . S
C177 H204 0.949 . S
C178 C177 1.390 . S
C178 C179 1.357 . S
C179 C178 1.357 . S
C179 C180 1.370 . S
C179 H205 0.950 . S
C180 N175 1.307 . S
C180 C179 1.370 . S
C180 H198 0.948 . S
Zn181 N175 2.020 . S
Zn181 O190 2.039 . S
Zn181 O196 2.034 1_455 S
Zn181 O200 2.025 1_455 S
Zn181 O202 2.024 . S
C182 O201 1.246 . S
C182 O202 1.249 . S
N183 C184 1.307 . S
N183 C185 1.333 . S
N183 Zn189 2.020 . S
C184 N183 1.307 . S
C184 C188 1.370 . S
C184 H195 0.948 . S
C185 N183 1.333 . S
C185 C186 1.379 . S
C185 H193 0.952 . S
C186 C185 1.379 . S
C186 C187 1.390 . S
C186 H206 0.949 . S
C187 C186 1.390 . S
C187 C188 1.357 . S
C188 C184 1.370 . S
C188 C187 1.357 . S
C188 H207 0.950 . S
Zn189 N183 2.020 . S
Zn189 O192 2.025 1_655 S
Zn189 O197 2.024 . S
Zn189 O199 2.039 . S
Zn189 O201 2.034 1_655 S
O190 C174 1.251 . S
O190 Zn181 2.039 . S
C191 O196 1.246 . S
C191 O197 1.249 . S
O192 C174 1.254 . S
O192 Zn189 2.025 1_455 S
H193 C185 0.952 . S
H194 C176 0.952 . S
H195 C184 0.948 . S
O196 Zn181 2.034 1_655 S
O196 C191 1.246 . S
O197 Zn189 2.024 . S
O197 C191 1.249 . S
H198 C180 0.948 . S
O199 Zn189 2.039 . S
O199 C203 1.251 . S
O200 Zn181 2.025 1_655 S
O200 C203 1.254 . S
O201 C182 1.246 . S
O201 Zn189 2.034 1_455 S
O202 Zn181 2.024 . S
O202 C182 1.249 . S
C203 O199 1.251 . S
C203 O200 1.254 . S
H204 C177 0.949 . S
H205 C179 0.950 . S
H206 C186 0.949 . S
H207 C188 0.950 . S
C208 C209 1.369 1_545 S
C208 C210 1.419 . S
C208 H212 0.930 . S
C209 C208 1.369 1_565 S
C209 C218 1.429 . S
C210 C208 1.419 . S
C210 C211 1.363 1_545 S
C210 H213 0.929 . S
C211 C210 1.363 1_565 S
C211 C217 1.428 . S
H212 C208 0.930 . S
H213 C210 0.929 . S
S214 N215 1.613 . S
S214 N216 1.610 . S
N215 S214 1.613 . S
N215 C218 1.350 . S
N216 S214 1.610 . S
N216 C217 1.351 . S
C217 C211 1.428 . S
C217 N216 1.351 . S
C217 C218 1.434 . S
C218 C209 1.429 . S
C218 N215 1.350 . S
C218 C217 1.434 . S
C219 C220 1.369 . S
C219 C221 1.419 . S
C219 H223 0.930 . S
C220 C219 1.369 . S
C220 C229 1.429 . S
C221 C219 1.419 . S
C221 C222 1.363 . S
C221 H224 0.929 . S
C222 C221 1.363 . S
C222 C228 1.428 . S
H223 C219 0.930 . S
H224 C221 0.929 . S
S225 N226 1.613 . S
S225 N227 1.610 . S
N226 S225 1.613 . S
N226 C229 1.350 . S
N227 S225 1.610 . S
N227 C228 1.351 . S
C228 C222 1.428 . S
C228 N227 1.351 . S
C228 C229 1.434 . S
C229 C220 1.429 . S
C229 N226 1.350 . S
C229 C228 1.434 . S
C230 C231 1.369 . S
C230 C232 1.419 . S
C230 H234 0.930 . S
C231 C230 1.369 . S
C231 C240 1.429 . S
C232 C230 1.419 . S
C232 C233 1.363 . S
C232 H235 0.929 . S
C233 C232 1.363 . S
C233 C239 1.428 . S
H234 C230 0.930 . S
H235 C232 0.929 . S
S236 N237 1.613 . S
S236 N238 1.610 . S
N237 S236 1.613 . S
N237 C240 1.350 . S
N238 S236 1.610 . S
N238 C239 1.351 . S
C239 C233 1.428 . S
C239 N238 1.351 . S
C239 C240 1.434 . S
C240 C231 1.429 . S
C240 N237 1.350 . S
C240 C239 1.434 . S
C241 C242 1.369 . S
C241 C243 1.419 . S
C241 H245 0.930 . S
C242 C241 1.369 . S
C242 C251 1.429 . S
C243 C241 1.419 . S
C243 C244 1.363 . S
C243 H246 0.929 . S
C244 C243 1.363 . S
C244 C250 1.428 . S
H245 C241 0.930 . S
H246 C243 0.929 . S
S247 N248 1.613 . S
S247 N249 1.610 . S
N248 S247 1.613 . S
N248 C251 1.350 . S
N249 S247 1.610 . S
N249 C250 1.351 . S
C250 C244 1.428 . S
C250 N249 1.351 . S
C250 C251 1.434 . S
C251 C242 1.429 . S
C251 N248 1.350 . S
C251 C250 1.434 . S
C252 C253 1.369 1_565 S
C252 C254 1.419 1_554 S
C252 H256 0.930 . S
C253 C252 1.369 1_545 S
C253 C262 1.429 1_554 S
C254 C252 1.419 1_556 S
C254 C255 1.363 1_565 S
C254 H257 0.929 1_556 S
C255 C254 1.363 1_545 S
C255 C261 1.428 . S
H256 C252 0.930 . S
H257 C254 0.929 1_554 S
S258 N259 1.613 . S
S258 N260 1.610 . S
N259 S258 1.613 . S
N259 C262 1.350 . S
N260 S258 1.610 . S
N260 C261 1.351 . S
C261 C255 1.428 . S
C261 N260 1.351 . S
C261 C262 1.434 . S
C262 C253 1.429 1_556 S
C262 N259 1.350 . S
C262 C261 1.434 . S
C263 C264 1.369 1_556 S
C263 C265 1.419 . S
C263 H267 0.930 . S
C264 C263 1.369 1_554 S
C264 C273 1.429 . S
C265 C263 1.419 . S
C265 C266 1.363 . S
C265 H268 0.929 . S
C266 C265 1.363 . S
C266 C272 1.428 1_556 S
H267 C263 0.930 . S
H268 C265 0.929 . S
S269 N270 1.613 . S
S269 N271 1.610 . S
N270 S269 1.613 . S
N270 C273 1.350 . S
N271 S269 1.610 . S
N271 C272 1.351 . S
C272 C266 1.428 1_554 S
C272 N271 1.351 . S
C272 C273 1.434 . S
C273 C264 1.429 . S
C273 N270 1.350 . S
C273 C272 1.434 . S
C274 C275 1.369 . S
C274 C276 1.419 . S
C274 H278 0.930 . S
C275 C274 1.369 . S
C275 C284 1.429 . S
C276 C274 1.419 . S
C276 C277 1.363 1_554 S
C276 H279 0.929 . S
C277 C276 1.363 1_556 S
C277 C283 1.428 . S
H278 C274 0.930 . S
H279 C276 0.929 . S
S280 N281 1.613 1_556 S
S280 N282 1.610 . S
N281 S280 1.613 1_554 S
N281 C284 1.350 . S
N282 S280 1.610 . S
N282 C283 1.351 . S
C283 C277 1.428 . S
C283 N282 1.351 . S
C283 C284 1.434 1_556 S
C284 C275 1.429 . S
C284 N281 1.350 . S
C284 C283 1.434 1_554 S
C285 C286 1.369 . S
C285 C287 1.419 . S
C285 H289 0.930 . S
C286 C285 1.369 . S
C286 C295 1.429 1_556 S
C287 C285 1.419 . S
C287 C288 1.363 . S
C287 H290 0.929 . S
C288 C287 1.363 . S
C288 C294 1.428 . S
H289 C285 0.930 . S
H290 C287 0.929 . S
S291 N292 1.613 . S
S291 N293 1.610 . S
N292 S291 1.613 . S
N292 C295 1.350 . S
N293 S291 1.610 . S
N293 C294 1.351 1_554 S
C294 C288 1.428 . S
C294 N293 1.351 1_556 S
C294 C295 1.434 1_556 S
C295 C286 1.429 1_554 S
C295 N292 1.350 . S
C295 C294 1.434 1_554 S
C296 C297 1.369 . S
C296 C298 1.419 . S
C296 H300 0.930 . S
C297 C296 1.369 . S
C297 C306 1.429 . S
C298 C296 1.419 . S
C298 C299 1.363 . S
C298 H301 0.929 . S
C299 C298 1.363 . S
C299 C305 1.428 . S
H300 C296 0.930 . S
H301 C298 0.929 . S
S302 N303 1.613 . S
S302 N304 1.610 . S
N303 S302 1.613 . S
N303 C306 1.350 . S
N304 S302 1.610 . S
N304 C305 1.351 . S
C305 C299 1.428 . S
C305 N304 1.351 . S
C305 C306 1.434 . S
C306 C297 1.429 . S
C306 N303 1.350 . S
C306 C305 1.434 . S
C307 C308 1.375 . S
C307 C309 1.419 . S
C307 H311 0.930 . S
C308 C307 1.375 . S
C308 C317 1.425 1_565 S
C309 C307 1.419 . S
C309 C310 1.363 . S
C309 H312 0.929 . S
C310 C309 1.363 . S
C310 C316 1.428 . S
H311 C307 0.930 . S
H312 C309 0.929 . S
S313 N314 1.613 . S
S313 N315 1.610 . S
N314 S313 1.613 . S
N314 C317 1.350 . S
N315 S313 1.610 . S
N315 C316 1.351 1_545 S
C316 C310 1.428 . S
C316 N315 1.351 1_565 S
C316 C317 1.434 1_565 S
C317 C308 1.425 1_545 S
C317 N314 1.350 . S
C317 C316 1.434 1_545 S
C318 C319 1.369 . S
C318 C320 1.419 . S
C318 H322 0.930 . S
C319 C318 1.369 . S
C319 C328 1.429 . S
C320 C318 1.419 . S
C320 C321 1.363 . S
C320 H323 0.929 . S
C321 C320 1.363 . S
C321 C327 1.428 . S
H322 C318 0.930 . S
H323 C320 0.929 . S
S324 N325 1.613 . S
S324 N326 1.610 . S
N325 S324 1.613 . S
N325 C328 1.350 . S
N326 S324 1.610 . S
N326 C327 1.351 . S
C327 C321 1.428 . S
C327 N326 1.351 . S
C327 C328 1.434 . S
C328 C319 1.429 . S
C328 N325 1.350 . S
C328 C327 1.434 . S
C329 C330 1.369 . S
C329 C331 1.419 . S
C329 H333 0.930 . S
C330 C329 1.369 . S
C330 C339 1.429 . S
C331 C329 1.419 . S
C331 C332 1.363 . S
C331 H334 0.929 . S
C332 C331 1.363 . S
C332 C338 1.428 . S
H333 C329 0.930 . S
H334 C331 0.929 . S
S335 N336 1.613 . S
S335 N337 1.610 . S
N336 S335 1.613 . S
N336 C339 1.350 . S
N337 S335 1.610 . S
N337 C338 1.351 . S
C338 C332 1.428 . S
C338 N337 1.351 . S
C338 C339 1.434 . S
C339 C330 1.429 . S
C339 N336 1.350 . S
C339 C338 1.434 . S
C340 C341 1.369 . S
C340 C342 1.419 . S
C340 H344 0.930 . S
C341 C340 1.369 . S
C341 C350 1.429 . S
C342 C340 1.419 . S
C342 C343 1.363 . S
C342 H345 0.929 1_655 S
C343 C342 1.363 . S
C343 C349 1.428 . S
H344 C340 0.930 . S
H345 C342 0.929 1_455 S
S346 N347 1.613 1_554 S
S346 N348 1.610 1_554 S
N347 S346 1.613 1_556 S
N347 C350 1.350 . S
N348 S346 1.610 1_556 S
N348 C349 1.351 . S
C349 C343 1.428 . S
C349 N348 1.351 . S
C349 C350 1.434 . S
C350 C341 1.429 . S
C350 N347 1.350 . S
C350 C349 1.434 . S
C351 C352 1.369 1_565 S
C351 C353 1.419 1_565 S
C351 H355 0.930 . S
C352 C351 1.369 1_545 S
C352 C361 1.429 1_554 S
C353 C351 1.419 1_545 S
C353 C354 1.363 1_554 S
C353 H356 0.929 1_545 S
C354 C353 1.363 1_556 S
C354 C360 1.428 . S
H355 C351 0.930 . S
H356 C353 0.929 1_565 S
S357 N358 1.613 . S
S357 N359 1.610 . S
N358 S357 1.613 . S
N358 C361 1.350 . S
N359 S357 1.610 . S
N359 C360 1.351 . S
C360 C354 1.428 . S
C360 N359 1.351 . S
C360 C361 1.434 . S
C361 C352 1.429 1_556 S
C361 N358 1.350 . S
C361 C360 1.434 . S
C362 C363 1.369 1_556 S
C362 C364 1.419 . S
C362 H366 0.930 . S
C363 C362 1.369 1_554 S
C363 C372 1.429 . S
C364 C362 1.419 . S
C364 C365 1.363 . S
C364 H367 0.929 . S
C365 C364 1.363 . S
C365 C371 1.428 1_556 S
H366 C362 0.930 . S
H367 C364 0.929 . S
S368 N369 1.613 . S
S368 N370 1.610 . S
N369 S368 1.613 . S
N369 C372 1.350 . S
N370 S368 1.610 . S
N370 C371 1.351 . S
C371 C365 1.428 1_554 S
C371 N370 1.351 . S
C371 C372 1.434 . S
C372 C363 1.429 . S
C372 N369 1.350 . S
C372 C371 1.434 . S
C373 C374 1.369 . S
C373 C375 1.419 1_554 S
C373 H377 0.927 1_554 S
C374 C373 1.369 . S
C374 C383 1.429 . S
C375 C373 1.419 1_556 S
C375 C376 1.363 . S
C375 H378 0.929 . S
C376 C375 1.363 . S
C376 C382 1.428 1_556 S
H377 C373 0.927 1_556 S
H378 C375 0.929 . S
S379 N380 1.613 . S
S379 N381 1.610 . S
N380 S379 1.613 . S
N380 C383 1.350 . S
N381 S379 1.610 . S
N381 C382 1.351 . S
C382 C376 1.428 1_554 S
C382 N381 1.351 . S
C382 C383 1.434 . S
C383 C374 1.429 . S
C383 N380 1.350 . S
C383 C382 1.434 . S
C384 C385 1.369 . S
C384 C386 1.419 . S
C384 H388 0.930 . S
C385 C384 1.369 . S
C385 C394 1.429 . S
C386 C384 1.419 . S
C386 C387 1.363 . S
C386 H389 0.929 . S
C387 C386 1.363 . S
C387 C393 1.428 . S
H388 C384 0.930 . S
H389 C386 0.929 . S
S390 N391 1.613 . S
S390 N392 1.610 . S
N391 S390 1.613 . S
N391 C394 1.350 . S
N392 S390 1.610 . S
N392 C393 1.351 . S
C393 C387 1.428 . S
C393 N392 1.351 . S
C393 C394 1.434 . S
C394 C385 1.429 . S
C394 N391 1.350 . S
C394 C393 1.434 . S
C395 C396 1.369 1_565 S
C395 C397 1.419 . S
C395 H399 0.930 . S
C396 C395 1.369 1_545 S
C396 C405 1.429 . S
C397 C395 1.419 . S
C397 C398 1.363 1_565 S
C397 H400 0.929 . S
C398 C397 1.363 1_545 S
C398 C404 1.428 . S
H399 C395 0.930 . S
H400 C397 0.929 . S
S401 N402 1.613 . S
S401 N403 1.610 . S
N402 S401 1.613 . S
N402 C405 1.350 . S
N403 S401 1.610 . S
N403 C404 1.351 . S
C404 C398 1.428 . S
C404 N403 1.351 . S
C404 C405 1.434 . S
C405 C396 1.429 . S
C405 N402 1.350 . S
C405 C404 1.434 . S
C406 C407 1.369 . S
C406 C408 1.419 . S
C406 H410 0.930 . S
C407 C406 1.369 . S
C407 C416 1.429 . S
C408 C406 1.419 . S
C408 C409 1.363 . S
C408 H411 0.929 1_554 S
C409 C408 1.363 . S
C409 C415 1.428 . S
H410 C406 0.930 . S
H411 C408 0.929 1_556 S
S412 N413 1.613 . S
S412 N414 1.610 . S
N413 S412 1.613 . S
N413 C416 1.350 . S
N414 S412 1.610 . S
N414 C415 1.351 . S
C415 C409 1.428 . S
C415 N414 1.351 . S
C415 C416 1.434 . S
C416 C407 1.429 . S
C416 N413 1.350 . S
C416 C415 1.434 . S
C417 C418 1.369 . S
C417 C419 1.419 . S
C417 H421 0.930 . S
C418 C417 1.369 . S
C418 C427 1.429 . S
C419 C417 1.419 . S
C419 C420 1.363 1_554 S
C419 H422 0.929 . S
C420 C419 1.363 1_556 S
C420 C426 1.428 . S
H421 C417 0.930 . S
H422 C419 0.929 . S
S423 N424 1.613 . S
S423 N425 1.610 . S
N424 S423 1.613 . S
N424 C427 1.350 1_556 S
N425 S423 1.610 . S
N425 C426 1.351 . S
C426 C420 1.428 . S
C426 N425 1.351 . S
C426 C427 1.434 1_556 S
C427 C418 1.429 . S
C427 N424 1.350 1_554 S
C427 C426 1.434 1_554 S
C428 C429 1.369 . S
C428 C430 1.419 . S
C428 H432 0.930 . S
C429 C428 1.369 . S
C429 C438 1.429 . S
C430 C428 1.419 . S
C430 C431 1.363 . S
C430 H433 0.929 . S
C431 C430 1.363 . S
C431 C437 1.428 . S
H432 C428 0.930 . S
H433 C430 0.929 . S
S434 N435 1.613 . S
S434 N436 1.610 . S
N435 S434 1.613 . S
N435 C438 1.350 . S
N436 S434 1.610 . S
N436 C437 1.351 . S
C437 C431 1.428 . S
C437 N436 1.351 . S
C437 C438 1.434 . S
C438 C429 1.429 . S
C438 N435 1.350 . S
C438 C437 1.434 . S
C439 C440 1.371 . S
C439 C441 1.419 . S
C439 H443 0.930 . S
C440 C439 1.371 . S
C440 C449 1.427 1_565 S
C441 C439 1.419 . S
C441 C442 1.363 . S
C441 H444 0.929 . S
C442 C441 1.363 . S
C442 C448 1.428 1_565 S
H443 C439 0.930 . S
H444 C441 0.929 . S
S445 N446 1.613 . S
S445 N447 1.610 . S
N446 S445 1.613 . S
N446 C449 1.350 . S
N447 S445 1.610 . S
N447 C448 1.351 . S
C448 C442 1.428 1_545 S
C448 N447 1.351 . S
C448 C449 1.434 . S
C449 C440 1.427 1_545 S
C449 N446 1.350 . S
C449 C448 1.434 . S
C450 C451 1.369 . S
C450 C452 1.419 . S
C450 H454 0.930 . S
C451 C450 1.369 . S
C451 C460 1.429 . S
C452 C450 1.419 . S
C452 C453 1.363 . S
C452 H455 0.929 . S
C453 C452 1.363 . S
C453 C459 1.428 . S
H454 C450 0.930 . S
H455 C452 0.929 . S
S456 N457 1.613 . S
S456 N458 1.610 . S
N457 S456 1.613 . S
N457 C460 1.350 . S
N458 S456 1.610 . S
N458 C459 1.351 . S
C459 C453 1.428 . S
C459 N458 1.351 . S
C459 C460 1.434 . S
C460 C451 1.429 . S
C460 N457 1.350 . S
C460 C459 1.434 . S
C461 C462 1.369 . S
C461 C463 1.419 . S
C461 H465 0.930 . S
C462 C461 1.369 . S
C462 C471 1.429 . S
C463 C461 1.419 . S
C463 C464 1.363 . S
C463 H466 0.929 . S
C464 C463 1.363 . S
C464 C470 1.428 . S
H465 C461 0.930 . S
H466 C463 0.929 . S
S467 N468 1.613 . S
S467 N469 1.610 . S
N468 S467 1.613 . S
N468 C471 1.350 . S
N469 S467 1.610 . S
N469 C470 1.351 . S
C470 C464 1.428 . S
C470 N469 1.351 . S
C470 C471 1.434 . S
C471 C462 1.429 . S
C471 N468 1.350 . S
C471 C470 1.434 . S
C209 C61 1.847 . S
C211 C89 1.866 . S
C222 C110 1.572 . S
C220 C70 1.543 . S
C233 C144 1.503 . S
C231 C43 1.468 . S
C244 C178 1.569 . S
C242 C52 1.553 . S
C255 C80 1.866 . S
C253 C25 1.846 1_545 S
C264 C34 1.541 . S
C266 C119 1.574 . S
C275 C7 1.466 . S
C277 C153 1.503 . S
C286 C16 1.554 . S
C288 C187 1.569 . S
C299 C101 0.841 . S
C297 C50 0.814 . S
C310 C106 1.045 . S
C308 C59 1.046 . S
C321 C140 1.005 . S
C319 C67 1.004 . S
C330 C41 0.607 . S
C332 C174 0.602 . S
C341 C14 0.814 . S
C343 C72 0.848 . S
C354 C135 1.047 . S
C352 C23 1.045 1_545 S
C365 C169 1.011 . S
C363 C31 0.993 . S
C374 C5 0.606 . S
C376 C203 0.597 . S
C385 C49 1.383 . S
C387 C85 1.450 . S
C396 C58 1.758 1_545 S
C398 C114 1.825 1_554 S
C409 C148 1.556 1_554 S
C407 C68 1.513 . S
C420 C182 1.583 . S
C418 C40 1.525 . S
C429 C13 1.384 . S
C431 C76 1.453 . S
C442 C123 1.825 . S
C440 C22 1.755 . S
C453 C157 1.556 . S
C451 C32 1.511 . S
C462 C4 1.513 . S
C464 C191 1.583 . S
