# Generated by pormake.
# Topology eea, (3,6)-cn, num edge types: 1
# Building blocks:
#     Node 0, Type 0, BuildingBlock: BETDIP_clean_linker_0, # of connection points: 3
#     Node 1, Type 0, BuildingBlock: BETDIP_clean_linker_0, # of connection points: 3
#     Node 2, Type 0, BuildingBlock: BETDIP_clean_linker_0, # of connection points: 3
#     Node 3, Type 0, BuildingBlock: BETDIP_clean_linker_0, # of connection points: 3
#     Node 4, Type 0, BuildingBlock: BETDIP_clean_linker_0, # of connection points: 3
#     Node 5, Type 0, BuildingBlock: BETDIP_clean_linker_0, # of connection points: 3
#     Node 6, Type 0, BuildingBlock: BETDIP_clean_linker_0, # of connection points: 3
#     Node 7, Type 0, BuildingBlock: BETDIP_clean_linker_0, # of connection points: 3
#     Node 8, Type 0, BuildingBlock: BETDIP_clean_linker_0, # of connection points: 3
#     Node 9, Type 0, BuildingBlock: BETDIP_clean_linker_0, # of connection points: 3
#     Node 10, Type 0, BuildingBlock: BETDIP_clean_linker_0, # of connection points: 3
#     Node 11, Type 0, BuildingBlock: BETDIP_clean_linker_0, # of connection points: 3
#     Node 12, Type 0, BuildingBlock: BETDIP_clean_linker_0, # of connection points: 3
#     Node 13, Type 0, BuildingBlock: BETDIP_clean_linker_0, # of connection points: 3
#     Node 14, Type 0, BuildingBlock: BETDIP_clean_linker_0, # of connection points: 3
#     Node 15, Type 0, BuildingBlock: BETDIP_clean_linker_0, # of connection points: 3
#     Node 16, Type 0, BuildingBlock: BETDIP_clean_linker_0, # of connection points: 3
#     Node 17, Type 0, BuildingBlock: BETDIP_clean_linker_0, # of connection points: 3
#     Node 18, Type 1, BuildingBlock: HISSIN_clean_sbu_0, # of connection points: 6
#     Node 19, Type 1, BuildingBlock: HISSIN_clean_sbu_0, # of connection points: 6
#     Node 20, Type 1, BuildingBlock: HISSIN_clean_sbu_0, # of connection points: 6
#     Node 21, Type 1, BuildingBlock: HISSIN_clean_sbu_0, # of connection points: 6
#     Node 22, Type 1, BuildingBlock: HISSIN_clean_sbu_0, # of connection points: 6
#     Node 23, Type 1, BuildingBlock: HISSIN_clean_sbu_0, # of connection points: 6
#     Node 24, Type 1, BuildingBlock: HISSIN_clean_sbu_0, # of connection points: 6
#     Node 25, Type 1, BuildingBlock: HISSIN_clean_sbu_0, # of connection points: 6
#     Node 26, Type 1, BuildingBlock: HISSIN_clean_sbu_0, # of connection points: 6
#     Edge 27, Type (0, 1), BuildingBlock: AJUNOK_clean_linker_0, # of connection points: 2
#     Edge 28, Type (0, 1), BuildingBlock: AJUNOK_clean_linker_0, # of connection points: 2
#     Edge 29, Type (0, 1), BuildingBlock: AJUNOK_clean_linker_0, # of connection points: 2
#     Edge 30, Type (0, 1), BuildingBlock: AJUNOK_clean_linker_0, # of connection points: 2
#     Edge 31, Type (0, 1), BuildingBlock: AJUNOK_clean_linker_0, # of connection points: 2
#     Edge 32, Type (0, 1), BuildingBlock: AJUNOK_clean_linker_0, # of connection points: 2
#     Edge 33, Type (0, 1), BuildingBlock: AJUNOK_clean_linker_0, # of connection points: 2
#     Edge 34, Type (0, 1), BuildingBlock: AJUNOK_clean_linker_0, # of connection points: 2
#     Edge 35, Type (0, 1), BuildingBlock: AJUNOK_clean_linker_0, # of connection points: 2
#     Edge 36, Type (0, 1), BuildingBlock: AJUNOK_clean_linker_0, # of connection points: 2
#     Edge 37, Type (0, 1), BuildingBlock: AJUNOK_clean_linker_0, # of connection points: 2
#     Edge 38, Type (0, 1), BuildingBlock: AJUNOK_clean_linker_0, # of connection points: 2
#     Edge 39, Type (0, 1), BuildingBlock: AJUNOK_clean_linker_0, # of connection points: 2
#     Edge 40, Type (0, 1), BuildingBlock: AJUNOK_clean_linker_0, # of connection points: 2
#     Edge 41, Type (0, 1), BuildingBlock: AJUNOK_clean_linker_0, # of connection points: 2
#     Edge 42, Type (0, 1), BuildingBlock: AJUNOK_clean_linker_0, # of connection points: 2
#     Edge 43, Type (0, 1), BuildingBlock: AJUNOK_clean_linker_0, # of connection points: 2
#     Edge 44, Type (0, 1), BuildingBlock: AJUNOK_clean_linker_0, # of connection points: 2
#     Edge 45, Type (0, 1), BuildingBlock: AJUNOK_clean_linker_0, # of connection points: 2
#     Edge 46, Type (0, 1), BuildingBlock: AJUNOK_clean_linker_0, # of connection points: 2
#     Edge 47, Type (0, 1), BuildingBlock: AJUNOK_clean_linker_0, # of connection points: 2
#     Edge 48, Type (0, 1), BuildingBlock: AJUNOK_clean_linker_0, # of connection points: 2
#     Edge 49, Type (0, 1), BuildingBlock: AJUNOK_clean_linker_0, # of connection points: 2
#     Edge 50, Type (0, 1), BuildingBlock: AJUNOK_clean_linker_0, # of connection points: 2
#     Edge 51, Type (0, 1), BuildingBlock: AJUNOK_clean_linker_0, # of connection points: 2
#     Edge 52, Type (0, 1), BuildingBlock: AJUNOK_clean_linker_0, # of connection points: 2
#     Edge 53, Type (0, 1), BuildingBlock: AJUNOK_clean_linker_0, # of connection points: 2
#     Edge 54, Type (0, 1), BuildingBlock: AJUNOK_clean_linker_0, # of connection points: 2
#     Edge 55, Type (0, 1), BuildingBlock: AJUNOK_clean_linker_0, # of connection points: 2
#     Edge 56, Type (0, 1), BuildingBlock: AJUNOK_clean_linker_0, # of connection points: 2
#     Edge 57, Type (0, 1), BuildingBlock: AJUNOK_clean_linker_0, # of connection points: 2
#     Edge 58, Type (0, 1), BuildingBlock: AJUNOK_clean_linker_0, # of connection points: 2
#     Edge 59, Type (0, 1), BuildingBlock: AJUNOK_clean_linker_0, # of connection points: 2
#     Edge 60, Type (0, 1), BuildingBlock: AJUNOK_clean_linker_0, # of connection points: 2
#     Edge 61, Type (0, 1), BuildingBlock: AJUNOK_clean_linker_0, # of connection points: 2
#     Edge 62, Type (0, 1), BuildingBlock: AJUNOK_clean_linker_0, # of connection points: 2
#     Edge 63, Type (0, 1), BuildingBlock: AJUNOK_clean_linker_0, # of connection points: 2
#     Edge 64, Type (0, 1), BuildingBlock: AJUNOK_clean_linker_0, # of connection points: 2
#     Edge 65, Type (0, 1), BuildingBlock: AJUNOK_clean_linker_0, # of connection points: 2
#     Edge 66, Type (0, 1), BuildingBlock: AJUNOK_clean_linker_0, # of connection points: 2
#     Edge 67, Type (0, 1), BuildingBlock: AJUNOK_clean_linker_0, # of connection points: 2
#     Edge 68, Type (0, 1), BuildingBlock: AJUNOK_clean_linker_0, # of connection points: 2
#     Edge 69, Type (0, 1), BuildingBlock: AJUNOK_clean_linker_0, # of connection points: 2
#     Edge 70, Type (0, 1), BuildingBlock: AJUNOK_clean_linker_0, # of connection points: 2
#     Edge 71, Type (0, 1), BuildingBlock: AJUNOK_clean_linker_0, # of connection points: 2
#     Edge 72, Type (0, 1), BuildingBlock: AJUNOK_clean_linker_0, # of connection points: 2
#     Edge 73, Type (0, 1), BuildingBlock: AJUNOK_clean_linker_0, # of connection points: 2
#     Edge 74, Type (0, 1), BuildingBlock: AJUNOK_clean_linker_0, # of connection points: 2
#     Edge 75, Type (0, 1), BuildingBlock: AJUNOK_clean_linker_0, # of connection points: 2
#     Edge 76, Type (0, 1), BuildingBlock: AJUNOK_clean_linker_0, # of connection points: 2
#     Edge 77, Type (0, 1), BuildingBlock: AJUNOK_clean_linker_0, # of connection points: 2
#     Edge 78, Type (0, 1), BuildingBlock: AJUNOK_clean_linker_0, # of connection points: 2
#     Edge 79, Type (0, 1), BuildingBlock: AJUNOK_clean_linker_0, # of connection points: 2
#     Edge 80, Type (0, 1), BuildingBlock: AJUNOK_clean_linker_0, # of connection points: 2
# Relax obj value: 0.062
# Max RMSD: 0.227
# Mean RMSD: 0.161
data_MOF--net-eea--node1-HISSIN_clean_sbu_0--node2-BETDIP_clean_linker_0--edge1-AJUNOK_clean_linker_0
_symmetry_space_group_name_H-M    P1
_symmetry_Int_Tables_number       1
_symmetry_cell_setting            triclinic
loop_
_symmetry_equiv_pos_as_xyz
'x, y, z'
_cell_length_a     39.812985
_cell_length_b     40.371926
_cell_length_c     54.592138
_cell_angle_alpha  92.882986
_cell_angle_beta   92.765926
_cell_angle_gamma 119.99747
loop_
_atom_site_label
_atom_site_type_symbol
_atom_site_fract_x
_atom_site_fract_y
_atom_site_fract_z
_atom_type_partial_charge
H0 H 0.21392 0.08215 0.3788 0.0
H1 H 0.27635 0.17633 0.43427 0.0
H2 H 0.28415 0.07428 0.43812 0.0
H3 H 0.28281 0.20595 0.39115 0.0
C4 C 0.25122 0.19196 0.38969 0.0
C5 C 0.23359 0.0947 0.39535 0.0
C6 C 0.24807 0.07375 0.40719 0.0
C7 C 0.24444 0.13194 0.4047 0.0
C8 C 0.26903 0.14803 0.42654 0.0
C9 C 0.28319 0.12717 0.4388 0.0
C10 C 0.27309 0.09037 0.42878 0.0
N11 N 0.22885 0.15212 0.39256 0.0
H12 H 0.93049 0.12854 0.38047 0.0
H13 H 0.85689 0.11077 0.43929 0.0
H14 H 0.96199 0.21876 0.43812 0.0
H15 H 0.80998 0.0734 0.40953 0.0
C16 C 0.82286 0.05817 0.40076 0.0
C17 C 0.9244 0.13937 0.39723 0.0
C18 C 0.95124 0.17643 0.40818 0.0
C19 C 0.88962 0.11599 0.40782 0.0
C20 C 0.88237 0.12933 0.43007 0.0
C21 C 0.90843 0.16615 0.44119 0.0
C22 C 0.94252 0.1898 0.42997 0.0
N23 N 0.86296 0.07869 0.39635 0.0
H24 H 0.89074 0.79542 0.3838 0.0
H25 H 0.92371 0.74977 0.4441 0.0
H26 H 0.81482 0.74772 0.44162 0.0
H27 H 0.98307 0.79047 0.43415 0.0
C28 C 0.98189 0.79087 0.41429 0.0
C29 C 0.88418 0.78142 0.40076 0.0
C30 C 0.84932 0.77247 0.41127 0.0
C31 C 0.9116 0.77396 0.41249 0.0
C32 C 0.90343 0.75648 0.43494 0.0
C33 C 0.86895 0.74776 0.4459 0.0
C34 C 0.84198 0.75541 0.4337 0.0
N35 N 0.94703 0.78469 0.40134 0.0
H36 H 0.09341 0.21195 0.64545 0.0
H37 H 0.17095 0.25587 0.58813 0.0
H38 H 0.06953 0.26756 0.58726 0.0
H39 H 0.1802 0.2065 0.59685 0.0
C40 C 0.18261 0.20887 0.61684 0.0
C41 C 0.1012 0.22663 0.62876 0.0
C42 C 0.07697 0.23862 0.61755 0.0
C43 C 0.13465 0.23194 0.61805 0.0
C44 C 0.14482 0.25092 0.59636 0.0
C45 C 0.12147 0.26384 0.58514 0.0
C46 C 0.08746 0.25736 0.59576 0.0
N47 N 0.15773 0.21829 0.62958 0.0
H48 H 0.80236 0.87945 0.66077 0.0
H49 H 0.75133 0.90842 0.60047 0.0
H50 H 0.73554 0.79543 0.59982 0.0
H51 H 0.81393 0.96412 0.60959 0.0
C52 C 0.81046 0.96808 0.62896 0.0
C53 C 0.78397 0.87068 0.64368 0.0
C54 C 0.76875 0.83343 0.63217 0.0
C55 C 0.77815 0.8979 0.63227 0.0
C56 C 0.75594 0.88757 0.60952 0.0
C57 C 0.74101 0.85083 0.59782 0.0
C58 C 0.74701 0.82375 0.60923 0.0
N59 N 0.79637 0.93607 0.64328 0.0
H60 H 0.13845 0.92195 0.64725 0.0
H61 H 0.0998 0.82998 0.59007 0.0
H62 H 0.21184 0.93104 0.58949 0.0
H63 H 0.04066 0.82095 0.60053 0.0
C64 C 0.04422 0.82428 0.62053 0.0
C65 C 0.14376 0.91002 0.63065 0.0
C66 C 0.1784 0.93162 0.6193 0.0
C67 C 0.11506 0.87354 0.62028 0.0
C68 C 0.12134 0.85824 0.59829 0.0
C69 C 0.15634 0.87904 0.58723 0.0
C70 C 0.18474 0.91533 0.59799 0.0
N71 N 0.08055 0.85291 0.63255 0.0
H72 H 0.91276 0.44357 0.703 0.0
H73 H 0.94855 0.5112 0.77286 0.0
H74 H 0.95039 0.4061 0.76555 0.0
H75 H 0.94591 0.55486 0.75325 0.0
C76 C 0.92915 0.54305 0.73561 0.0
C77 C 0.92361 0.44802 0.72218 0.0
C78 C 0.93019 0.42058 0.73273 0.0
C79 C 0.93063 0.48119 0.73622 0.0
C80 C 0.94422 0.4867 0.76127 0.0
C81 C 0.95127 0.45959 0.77194 0.0
C82 C 0.94475 0.42699 0.75744 0.0
N83 N 0.92183 0.50711 0.72471 0.0
H84 H 0.60395 0.46699 0.71548 0.0
H85 H 0.53604 0.44202 0.77782 0.0
H86 H 0.63518 0.5544 0.775 0.0
H87 H 0.52461 0.3821 0.76782 0.0
C88 C 0.52045 0.37961 0.74787 0.0
C89 C 0.59908 0.47622 0.73329 0.0
C90 C 0.6236 0.51419 0.74354 0.0
C91 C 0.56816 0.44978 0.74576 0.0
C92 C 0.56068 0.4618 0.76841 0.0
C93 C 0.58456 0.49953 0.77904 0.0
C94 C 0.61634 0.52545 0.76667 0.0
N95 N 0.54428 0.41168 0.73471 0.0
H96 H 0.5585 0.1254 0.71557 0.0
H97 H 0.59589 0.08803 0.77841 0.0
H98 H 0.4861 0.08388 0.77572 0.0
H99 H 0.65355 0.12144 0.76584 0.0
C100 C 0.65173 0.1238 0.74621 0.0
C101 C 0.55336 0.11404 0.73344 0.0
C102 C 0.51848 0.10487 0.74396 0.0
C103 C 0.58191 0.10883 0.74574 0.0
C104 C 0.57478 0.09307 0.76874 0.0
C105 C 0.54002 0.08359 0.77955 0.0
C106 C 0.51247 0.09027 0.7672 0.0
N107 N 0.61698 0.11939 0.73425 0.0
H108 H 0.76293 0.55084 0.98075 0.0
H109 H 0.83526 0.59188 0.92094 0.0
H110 H 0.73055 0.59799 0.92086 0.0
H111 H 0.842 0.53958 0.92929 0.0
C112 C 0.84741 0.54406 0.94921 0.0
C113 C 0.76813 0.56316 0.96319 0.0
C114 C 0.74173 0.57264 0.95201 0.0
C115 C 0.80107 0.56874 0.95175 0.0
C116 C 0.8093 0.58652 0.9296 0.0
C117 C 0.78448 0.59794 0.9186 0.0
C118 C 0.75029 0.59016 0.92963 0.0
N119 N 0.8256 0.55645 0.96294 0.0
H120 H 0.46562 0.21578 0.99179 0.0
H121 H 0.42519 0.23951 0.92399 0.0
H122 H 0.41488 0.1298 0.93014 0.0
H123 H 0.41859 0.28078 0.94712 0.0
C124 C 0.4425 0.29244 0.96136 0.0
C125 C 0.45222 0.20667 0.9731 0.0
C126 C 0.44104 0.16965 0.96266 0.0
C127 C 0.44547 0.23179 0.95966 0.0
C128 C 0.42859 0.21998 0.9353 0.0
C129 C 0.4165 0.18297 0.92489 0.0
C130 C 0.42335 0.15813 0.93846 0.0
N131 N 0.45632 0.2688 0.97081 0.0
H132 H 0.80184 0.2483 0.98382 0.0
H133 H 0.76386 0.16954 0.91846 0.0
H134 H 0.87321 0.2742 0.92293 0.0
H135 H 0.71964 0.12948 0.94006 0.0
C136 C 0.71501 0.14376 0.95576 0.0
C137 C 0.80674 0.24061 0.96557 0.0
C138 C 0.84147 0.26517 0.95516 0.0
C139 C 0.7784 0.20578 0.9528 0.0
C140 C 0.78504 0.19581 0.92902 0.0
C141 C 0.81982 0.21999 0.9186 0.0
C142 C 0.84725 0.25481 0.93153 0.0
N143 N 0.74384 0.182 0.96444 0.0
H144 H 0.54581 0.75487 0.0465 0.0
H145 H 0.60552 0.84781 0.10293 0.0
H146 H 0.61405 0.74623 0.10687 0.0
H147 H 0.6164 0.87732 0.05902 0.0
C148 C 0.58493 0.86444 0.05682 0.0
C149 C 0.5647 0.76699 0.06338 0.0
C150 C 0.57882 0.74583 0.07541 0.0
C151 C 0.57521 0.80409 0.07285 0.0
C152 C 0.59859 0.81967 0.09513 0.0
C153 C 0.61215 0.79858 0.10769 0.0
C154 C 0.60292 0.76216 0.09741 0.0
N155 N 0.56093 0.82495 0.06021 0.0
H156 H 0.26352 0.80323 0.04588 0.0
H157 H 0.20307 0.77303 0.11157 0.0
H158 H 0.30642 0.88258 0.11112 0.0
H159 H 0.15233 0.73676 0.08515 0.0
C160 C 0.16359 0.72486 0.07177 0.0
C161 C 0.26118 0.81048 0.06486 0.0
C162 C 0.28896 0.84645 0.07681 0.0
C163 C 0.22963 0.78408 0.07699 0.0
C164 C 0.22666 0.79333 0.10167 0.0
C165 C 0.25392 0.82888 0.11394 0.0
C166 C 0.28498 0.8554 0.10144 0.0
N167 N 0.20166 0.74825 0.06422 0.0
H168 H 0.22731 0.47276 0.05507 0.0
H169 H 0.26329 0.42735 0.11395 0.0
H170 H 0.15036 0.41601 0.111 0.0
H171 H 0.30419 0.42701 0.08921 0.0
C172 C 0.31059 0.44807 0.07595 0.0
C173 C 0.22105 0.45761 0.07159 0.0
C174 C 0.18581 0.44672 0.08223 0.0
C175 C 0.24867 0.44941 0.08214 0.0
C176 C 0.24143 0.43144 0.1044 0.0
C177 C 0.20609 0.41967 0.11503 0.0
C178 C 0.17826 0.42663 0.10344 0.0
N179 N 0.28353 0.46045 0.07021 0.0
H180 H 0.43147 0.8802 0.31145 0.0
H181 H 0.49774 0.92049 0.24892 0.0
H182 H 0.38982 0.92016 0.25207 0.0
H183 H 0.46296 0.84778 0.31569 0.0
C184 C 0.4909 0.86367 0.30813 0.0
C185 C 0.43439 0.89065 0.29339 0.0
C186 C 0.40603 0.89844 0.28322 0.0
C187 C 0.46699 0.89766 0.28066 0.0
C188 C 0.47206 0.91423 0.25828 0.0
C189 C 0.44476 0.92299 0.24794 0.0
C190 C 0.41159 0.91461 0.26038 0.0
N191 N 0.49577 0.88919 0.28981 0.0
H192 H 0.12557 0.53952 0.32614 0.0
H193 H 0.08065 0.56492 0.261 0.0
H194 H 0.07859 0.45811 0.26196 0.0
H195 H 0.0732 0.60383 0.28636 0.0
C196 C 0.09821 0.61553 0.2998 0.0
C197 C 0.11238 0.53133 0.30738 0.0
C198 C 0.1039 0.49595 0.29543 0.0
C199 C 0.10338 0.55615 0.29541 0.0
C200 C 0.08603 0.54548 0.27115 0.0
C201 C 0.07609 0.50983 0.25931 0.0
C202 C 0.08555 0.48537 0.27135 0.0
N203 N 0.11317 0.59209 0.30782 0.0
H204 H 0.46749 0.57938 0.31645 0.0
H205 H 0.43426 0.49439 0.25527 0.0
H206 H 0.54184 0.60144 0.25751 0.0
H207 H 0.37409 0.47688 0.26605 0.0
C208 C 0.37651 0.48109 0.286 0.0
C209 C 0.47373 0.57016 0.29913 0.0
C210 C 0.50824 0.59453 0.28854 0.0
C211 C 0.44635 0.5344 0.28711 0.0
C212 C 0.4543 0.52243 0.26445 0.0
C213 C 0.48905 0.54635 0.25386 0.0
C214 C 0.51543 0.5825 0.26587 0.0
N215 N 0.41154 0.51123 0.29852 0.0
Eu216 Eu 0.48204 0.98756 0.98719 0.0
Eu217 Eu 0.51141 0.02849 0.04406 0.0
C218 C 0.47603 0.06101 1.00549 0.0
C219 C 0.47511 0.97954 0.9175 0.0
C220 C 0.49901 0.01952 0.91768 0.0
C221 C 0.47498 0.97408 0.87294 0.0
C222 C 0.51103 0.03664 0.89565 0.0
C223 C 0.46312 0.95697 0.895 0.0
C224 C 0.49938 0.01409 0.87302 0.0
C225 C 0.46371 0.96127 0.94073 0.0
O226 O 0.44608 0.99015 0.04137 0.0
O227 O 0.43783 0.94514 1.01073 0.0
C228 C 0.42553 0.95559 0.02995 0.0
O229 O 0.52108 0.96771 1.00394 0.0
O230 O 0.50357 0.05741 0.07629 0.0
O231 O 0.54828 0.04185 0.07825 0.0
O232 O 0.50645 0.97043 0.04359 0.0
C233 C 0.51992 0.95756 0.02643 0.0
O234 O 0.53613 0.04423 0.98481 0.0
O235 O 0.56611 0.05294 0.02346 0.0
O236 O 0.50502 0.07118 0.02223 0.0
O237 O 0.49143 0.96115 0.95432 0.0
O238 O 0.44254 0.97047 0.95378 0.0
O239 O 0.45735 0.02633 0.99416 0.0
C240 C 0.51353 0.03469 0.11323 0.0
C241 C 0.48492 0.99563 0.1118 0.0
C242 C 0.51393 0.03714 0.15783 0.0
C243 C 0.47108 0.9774 0.13325 0.0
C244 C 0.52783 0.05535 0.13635 0.0
C245 C 0.4854 0.99794 0.15652 0.0
C246 C 0.52843 0.05366 0.09062 0.0
C247 C 0.56773 0.05888 0.99991 0.0
H248 H 0.50863 0.03746 0.93489 0.0
H249 H 0.46468 0.95599 0.85579 0.0
H250 H 0.52981 0.06749 0.89634 0.0
H251 H 0.44459 0.9261 0.89449 0.0
H252 H 0.47344 0.9792 0.09407 0.0
H253 H 0.52614 0.05353 0.1755 0.0
H254 H 0.44912 0.94721 0.13165 0.0
H255 H 0.54998 0.08546 0.13781 0.0
Eu256 Eu 0.0334 0.49734 0.99092 0.0
Eu257 Eu 0.99076 0.48307 0.04288 0.0
C258 C 0.95893 0.41632 0.99966 0.0
C259 C 0.04623 0.49751 0.92285 0.0
C260 C 1.00578 0.47907 0.91769 0.0
C261 C 0.05433 0.50046 0.87915 0.0
C262 C 0.98967 0.47192 0.89341 0.0
C263 C 0.07045 0.50797 0.90351 0.0
C264 C 0.01377 0.48253 0.87387 0.0
C265 C 0.0631 0.50759 0.9484 0.0
O266 O 0.03465 0.46326 0.04724 0.0
O267 O 0.07639 0.49559 0.01807 0.0
C268 C 0.06823 0.47626 0.03762 0.0
O269 O 0.05804 0.55596 1.01122 0.0
O270 O 0.96011 0.4438 0.07048 0.0
O271 O 0.97145 0.50232 0.07441 0.0
O272 O 0.04685 0.53878 0.05068 0.0
C273 C 0.064 0.56474 0.03513 0.0
O274 O 0.97567 0.49334 0.98185 0.0
O275 O 0.96549 0.51178 0.01982 0.0
O276 O 0.94892 0.43422 0.01578 0.0
O277 O 0.05754 0.53281 0.96057 0.0
O278 O 0.05688 0.47895 0.96123 0.0
O279 O 0.99382 0.43329 0.99169 0.0
C280 C 0.97563 0.47432 0.11041 0.0
C281 C 0.01552 0.49862 0.11717 0.0
C282 C 0.96609 0.45549 0.15215 0.0
C283 C 0.03054 0.50161 0.14135 0.0
C284 C 0.95106 0.45257 0.12795 0.0
C285 C 1.00591 0.4803 0.15911 0.0
C286 C 0.95984 0.47041 0.0849 0.0
C287 C 0.95808 0.50641 0.99574 0.0
H288 H 0.98677 0.47084 0.93251 0.0
H289 H 0.07357 0.50876 0.86445 0.0
H290 H 0.95843 0.45883 0.88999 0.0
H291 H 0.10178 0.52232 0.90725 0.0
H292 H 0.03502 0.51534 0.10377 0.0
H293 H 0.94662 0.43826 0.1654 0.0
H294 H 0.06129 0.52106 0.14629 0.0
H295 H 0.9203 0.43327 0.12292 0.0
Eu296 Eu 0.54402 0.51665 0.04187 0.0
Eu297 Eu 0.51579 0.53291 0.9876 0.0
C298 C 0.5472 0.59701 0.03316 0.0
C299 C 0.55114 0.50756 0.11022 0.0
C300 C 0.53237 0.52863 0.11443 0.0
C301 C 0.54662 0.49307 0.15297 0.0
C302 C 0.52129 0.5324 0.13785 0.0
C303 C 0.55794 0.48957 0.12956 0.0
C304 C 0.52858 0.51491 0.15745 0.0
C305 C 0.56127 0.50219 0.08538 0.0
O306 O 0.58111 0.55853 0.98924 0.0
O307 O 0.58853 0.52063 0.0163 0.0
C308 C 0.60089 0.54326 0.99834 0.0
O309 O 0.50604 0.45937 0.02061 0.0
O310 O 0.52429 0.57106 0.95862 0.0
O311 O 0.47821 0.51164 0.95329 0.0
O312 O 0.51882 0.47903 0.98198 0.0
C313 C 0.50644 0.45186 0.99705 0.0
O314 O 0.4898 0.51867 0.0476 0.0
O315 O 0.46085 0.50364 1.00808 0.0
O316 O 0.52316 0.58164 0.01325 0.0
O317 O 0.53208 0.4772 0.07034 0.0
O318 O 0.58409 0.53326 0.07494 0.0
O319 O 0.5636 0.57979 0.04422 0.0
C320 C 0.51273 0.5396 0.91912 0.0
C321 C 0.53688 0.52363 0.91738 0.0
C322 C 0.51642 0.54886 0.87548 0.0
C323 C 0.55055 0.52011 0.89482 0.0
C324 C 0.50271 0.55232 0.89807 0.0
C325 C 0.54056 0.53277 0.87361 0.0
C326 C 0.49861 0.54346 0.94293 0.0
C327 C 0.45878 0.50537 0.03213 0.0
H328 H 0.52606 0.54192 0.09953 0.0
H329 H 0.55168 0.47841 0.16751 0.0
H330 H 0.50741 0.54935 0.1407 0.0
H331 H 0.57164 0.47249 0.12649 0.0
H332 H 0.54495 0.51365 0.93347 0.0
H333 H 0.50823 0.55885 0.85946 0.0
H334 H 0.56828 0.50676 0.8939 0.0
H335 H 0.48424 0.56487 0.8991 0.0
Eu336 Eu 0.14743 0.31435 0.31971 0.0
Eu337 Eu 0.17804 0.35598 0.37661 0.0
C338 C 0.14146 0.38778 0.3376 0.0
C339 C 0.14098 0.30748 0.25025 0.0
C340 C 0.16337 0.34766 0.25103 0.0
C341 C 0.14261 0.30387 0.20577 0.0
C342 C 0.17548 0.36581 0.22936 0.0
C343 C 0.13064 0.28572 0.2275 0.0
C344 C 0.16544 0.34414 0.20647 0.0
C345 C 0.12979 0.28835 0.27321 0.0
O346 O 0.11349 0.31518 0.37597 0.0
O347 O 0.10233 0.27214 0.3429 0.0
C348 C 0.09238 0.28131 0.36372 0.0
O349 O 0.18558 0.29343 0.33668 0.0
O350 O 0.17157 0.38566 0.40898 0.0
O351 O 0.21746 0.37156 0.40983 0.0
O352 O 0.17295 0.29807 0.37665 0.0
C353 C 0.18466 0.2837 0.35929 0.0
O354 O 0.20082 0.3716 0.31712 0.0
O355 O 0.23172 0.37964 0.35524 0.0
O356 O 0.16983 0.3977 0.35479 0.0
O357 O 0.15803 0.28915 0.28678 0.0
O358 O 0.10769 0.29613 0.28633 0.0
O359 O 0.12256 0.353 0.32644 0.0
C360 C 0.18625 0.36638 0.44674 0.0
C361 C 0.21013 0.35631 0.46043 0.0
C362 C 0.14092 0.34443 0.47876 0.0
C363 C 0.19948 0.34036 0.48291 0.0
C364 C 0.15149 0.36028 0.4562 0.0
C365 C 0.16492 0.33453 0.49245 0.0
C366 C 0.19771 0.38293 0.42275 0.0
C367 C 0.23275 0.38699 0.33197 0.0
H368 H 0.17167 0.36498 0.26844 0.0
H369 H 0.13356 0.2864 0.18839 0.0
H370 H 0.19303 0.39684 0.23054 0.0
H371 H 0.11335 0.25469 0.22653 0.0
H372 H 0.23706 0.36058 0.45369 0.0
H373 H 0.11412 0.34031 0.48563 0.0
H374 H 0.21819 0.33224 0.49273 0.0
H375 H 0.13235 0.36771 0.44622 0.0
Eu376 Eu 0.6936 0.83111 0.32641 0.0
Eu377 Eu 0.65607 0.80931 0.3794 0.0
C378 C 0.62369 0.74699 0.3327 0.0
C379 C 0.70808 0.84457 0.25825 0.0
C380 C 0.66838 0.82054 0.25091 0.0
C381 C 0.72018 0.86098 0.21618 0.0
C382 C 0.65473 0.81641 0.22625 0.0
C383 C 0.73383 0.86501 0.24085 0.0
C384 C 0.68057 0.83626 0.20859 0.0
C385 C 0.72294 0.84833 0.28395 0.0
O386 O 0.71659 0.81883 0.38565 0.0
O387 O 0.72291 0.80286 0.34612 0.0
C388 C 0.73337 0.80754 0.36984 0.0
O389 O 0.73469 0.88 0.35376 0.0
O390 O 0.63996 0.77253 0.40968 0.0
O391 O 0.62691 0.81859 0.40954 0.0
O392 O 0.6904 0.87403 0.3808 0.0
C393 C 0.72374 0.8948 0.37139 0.0
O394 O 0.64823 0.84958 0.32719 0.0
O395 O 0.60941 0.80842 0.35421 0.0
O396 O 0.63455 0.75343 0.35635 0.0
O397 O 0.71917 0.87229 0.29889 0.0
O398 O 0.71403 0.81632 0.29362 0.0
O399 O 0.63761 0.77505 0.31821 0.0
C400 C 0.64254 0.8032 0.44783 0.0
C401 C 0.67914 0.83576 0.45436 0.0
C402 C 0.63671 0.78891 0.49053 0.0
C403 C 0.69458 0.8447 0.47886 0.0
C404 C 0.62123 0.78007 0.46602 0.0
C405 C 0.6738 0.82093 0.49709 0.0
C406 C 0.62732 0.79203 0.42199 0.0
C407 C 0.61491 0.83215 0.33731 0.0
H408 H 0.64807 0.80471 0.26419 0.0
H409 H 0.74057 0.87721 0.20306 0.0
H410 H 0.62409 0.79709 0.22088 0.0
H411 H 0.76452 0.88393 0.24631 0.0
H412 H 0.69597 0.85389 0.44046 0.0
H413 H 0.62021 0.77013 0.50425 0.0
H414 H 0.72291 0.86996 0.48353 0.0
H415 H 0.59298 0.75474 0.46118 0.0
Eu416 Eu 0.21171 0.84336 0.37698 0.0
Eu417 Eu 0.18195 0.85766 0.32267 0.0
C418 C 0.21446 0.92343 0.3672 0.0
C419 C 0.22013 0.83617 0.44562 0.0
C420 C 0.20962 0.86397 0.45093 0.0
C421 C 0.20627 0.81569 0.48686 0.0
C422 C 0.19779 0.86783 0.47408 0.0
C423 C 0.21824 0.81196 0.46369 0.0
C424 C 0.19603 0.84376 0.49233 0.0
C425 C 0.22978 0.83013 0.42069 0.0
O426 O 0.24729 0.88365 0.32399 0.0
O427 O 0.25545 0.84622 0.35101 0.0
C428 C 0.26738 0.86856 0.33287 0.0
O429 O 0.17164 0.78548 0.35697 0.0
O430 O 0.18901 0.89508 0.29351 0.0
O431 O 0.14518 0.83487 0.28801 0.0
O432 O 0.18407 0.80324 0.31797 0.0
C433 C 0.17099 0.77673 0.33349 0.0
O434 O 0.1583 0.84679 0.38301 0.0
O435 O 0.12763 0.83049 0.34398 0.0
O436 O 0.19017 0.9075 0.34745 0.0
O437 O 0.20033 0.80476 0.40598 0.0
O438 O 0.25247 0.86073 0.40978 0.0
O439 O 0.23082 0.90646 0.37867 0.0
C440 C 0.18077 0.86373 0.2544 0.0
C441 C 0.21304 0.85839 0.2547 0.0
C442 C 0.17913 0.86264 0.20981 0.0
C443 C 0.22818 0.85508 0.23272 0.0
C444 C 0.16404 0.86605 0.23185 0.0
C445 C 0.21112 0.85672 0.20999 0.0
C446 C 0.16482 0.86683 0.27764 0.0
C447 C 0.12664 0.83364 0.36813 0.0
H448 H 0.2101 0.8823 0.43704 0.0
H449 H 0.2045 0.79627 0.50039 0.0
H450 H 0.19013 0.88974 0.47776 0.0
H451 H 0.22548 0.7898 0.45976 0.0
H452 H 0.22649 0.85671 0.27197 0.0
H453 H 0.1653 0.86386 0.19257 0.0
H454 H 0.25327 0.85127 0.23351 0.0
H455 H 0.13917 0.87021 0.23127 0.0
Eu456 Eu 0.81935 0.65203 0.65423 0.0
Eu457 Eu 0.845 0.69569 0.71135 0.0
C458 C 0.80981 0.72538 0.66985 0.0
C459 C 0.81358 0.6425 0.58462 0.0
C460 C 0.83619 0.68258 0.58476 0.0
C461 C 0.8102 0.63763 0.53981 0.0
C462 C 0.84609 0.70004 0.56266 0.0
C463 C 0.80069 0.62015 0.562 0.0
C464 C 0.8329 0.67786 0.53984 0.0
C465 C 0.80484 0.62418 0.60807 0.0
O466 O 0.77992 0.65641 0.70737 0.0
O467 O 0.77387 0.61084 0.67779 0.0
C468 C 0.76034 0.62164 0.69619 0.0
O469 O 0.85796 0.63358 0.67349 0.0
O470 O 0.83395 0.72244 0.74341 0.0
O471 O 0.8824 0.71226 0.74559 0.0
O472 O 0.84186 0.63888 0.71243 0.0
C473 C 0.85681 0.62568 0.69655 0.0
O474 O 0.87074 0.71057 0.65194 0.0
O475 O 0.90012 0.72316 0.69108 0.0
O476 O 0.83475 0.73562 0.68927 0.0
O477 O 0.83507 0.63005 0.62211 0.0
O478 O 0.77968 0.62788 0.62067 0.0
O479 O 0.79551 0.69216 0.65682 0.0
C480 C 0.84828 0.70418 0.78115 0.0
C481 C 0.82973 0.66416 0.78194 0.0
C482 C 0.84312 0.71079 0.82513 0.0
C483 C 0.81838 0.64762 0.80424 0.0
C484 C 0.85453 0.7273 0.80284 0.0
C485 C 0.8254 0.67078 0.82618 0.0
C486 C 0.86077 0.72193 0.7578 0.0
C487 C 0.90177 0.72895 0.66749 0.0
H488 H 0.84646 0.70035 0.60201 0.0
H489 H 0.79946 0.61969 0.52261 0.0
H490 H 0.86448 0.73094 0.56352 0.0
H491 H 0.78334 0.58916 0.56148 0.0
H492 H 0.8243 0.64574 0.76533 0.0
H493 H 0.84808 0.72936 0.84156 0.0
H494 H 0.80479 0.61675 0.80442 0.0
H495 H 0.86834 0.75818 0.80257 0.0
Eu496 Eu 0.37157 0.16755 0.65518 0.0
Eu497 Eu 0.32981 0.14707 0.70741 0.0
C498 C 0.29574 0.08456 0.66084 0.0
C499 C 0.3878 0.17813 0.58761 0.0
C500 C 0.34786 0.15387 0.58115 0.0
C501 C 0.39774 0.19107 0.54484 0.0
C502 C 0.33296 0.14803 0.55665 0.0
C503 C 0.41266 0.19676 0.56938 0.0
C504 C 0.35775 0.16653 0.53823 0.0
C505 C 0.40321 0.18553 0.61346 0.0
O506 O 0.36902 0.12171 0.70679 0.0
O507 O 0.4134 0.16169 0.68148 0.0
C508 C 0.40341 0.13683 0.69817 0.0
O509 O 0.39281 0.22315 0.67836 0.0
O510 O 0.30114 0.107 0.73503 0.0
O511 O 0.31137 0.16502 0.73993 0.0
O512 O 0.38827 0.20044 0.71611 0.0
C513 C 0.40351 0.22887 0.70197 0.0
O514 O 0.31348 0.16289 0.64726 0.0
O515 O 0.3031 0.17647 0.68644 0.0
O516 O 0.28763 0.0985 0.68042 0.0
O517 O 0.39499 0.20765 0.62698 0.0
O518 O 0.39843 0.15574 0.62455 0.0
O519 O 0.3286 0.10381 0.65053 0.0
C520 C 0.31625 0.13638 0.77529 0.0
C521 C 0.35659 0.1574 0.78143 0.0
C522 C 0.306 0.1229 0.81791 0.0
C523 C 0.37152 0.1617 0.80579 0.0
C524 C 0.29107 0.11874 0.79354 0.0
C525 C 0.34632 0.14501 0.82432 0.0
C526 C 0.30033 0.13282 0.74992 0.0
C527 C 0.29543 0.17353 0.66247 0.0
H528 H 0.32824 0.13968 0.59511 0.0
H529 H 0.41738 0.20628 0.53111 0.0
H530 H 0.30206 0.12887 0.55207 0.0
H531 H 0.44349 0.21601 0.57416 0.0
H532 H 0.37644 0.17092 0.76743 0.0
H533 H 0.28602 0.10908 0.83177 0.0
H534 H 0.40269 0.17891 0.81026 0.0
H535 H 0.25989 0.10203 0.78899 0.0
Eu536 Eu 0.88159 0.19162 0.70595 0.0
Eu537 Eu 0.8466 0.19716 0.65078 0.0
C538 C 0.887 0.26888 0.69035 0.0
C539 C 0.88818 0.18917 0.77548 0.0
C540 C 0.8742 0.21438 0.78053 0.0
C541 C 0.8746 0.16758 0.81648 0.0
C542 C 0.86101 0.21653 0.80355 0.0
C543 C 0.8879 0.16555 0.79352 0.0
C544 C 0.8615 0.19344 0.82185 0.0
C545 C 0.90152 0.1859 0.75123 0.0
O546 O 0.91086 0.21867 0.64824 0.0
O547 O 0.9273 0.19538 0.68183 0.0
C548 C 0.9347 0.21043 0.66056 0.0
O549 O 0.84715 0.13161 0.68728 0.0
O550 O 0.85009 0.23265 0.62104 0.0
O551 O 0.80616 0.17223 0.6178 0.0
O552 O 0.85355 0.14557 0.64716 0.0
C553 C 0.84647 0.12144 0.66399 0.0
O554 O 0.82699 0.1934 0.7109 0.0
O555 O 0.79426 0.16649 0.67311 0.0
O556 O 0.85612 0.24815 0.67502 0.0
O557 O 0.87662 0.15667 0.73633 0.0
O558 O 0.91941 0.21722 0.74 0.0
O559 O 0.90695 0.25407 0.69976 0.0
C560 C 0.836 0.19955 0.58189 0.0
C561 C 0.85257 0.17644 0.57749 0.0
C562 C 0.84645 0.2185 0.54008 0.0
C563 C 0.86602 0.17444 0.55459 0.0
C564 C 0.83296 0.2205 0.56303 0.0
C565 C 0.86355 0.19581 0.53578 0.0
C566 C 0.82393 0.20354 0.60645 0.0
C567 C 0.79431 0.17372 0.69692 0.0
H568 H 0.87347 0.2324 0.7667 0.0
H569 H 0.87457 0.1489 0.83005 0.0
H570 H 0.85103 0.23667 0.80719 0.0
H571 H 0.89793 0.14545 0.78982 0.0
H572 H 0.85527 0.16006 0.5918 0.0
H573 H 0.84395 0.23499 0.52578 0.0
H574 H 0.878 0.15586 0.55145 0.0
H575 H 0.82048 0.23867 0.56614 0.0
C576 C 0.34368 0.8622 0.04978 0.0
C577 C 0.32225 0.87444 0.06361 0.0
C578 C 0.37621 0.88835 0.03813 0.0
C579 C 0.38875 0.92779 0.04003 0.0
H580 H 0.3359 0.8323 0.04848 0.0
H581 H 0.39244 0.87777 0.02831 0.0
S582 S 0.34007 0.97397 0.07144 0.0
N583 N 0.31383 0.92822 0.0764 0.0
N584 N 0.37536 0.97737 0.05514 0.0
C585 C 0.36685 0.94021 0.05309 0.0
C586 C 0.33356 0.91358 0.06473 0.0
C587 C 0.14802 0.45123 0.04541 0.0
C588 C 0.15649 0.45567 0.07114 0.0
C589 C 0.11963 0.45824 0.03468 0.0
C590 C 0.09806 0.46916 0.04928 0.0
H591 H 0.16294 0.44163 0.03343 0.0
H592 H 0.11398 0.45433 0.01483 0.0
S593 S 0.11122 0.48874 0.11713 0.0
N594 N 0.1431 0.47546 0.11068 0.0
N595 N 0.08838 0.48638 0.09047 0.0
C596 C 0.1064 0.47421 0.0749 0.0
C597 C 0.13593 0.46804 0.08583 0.0
C598 C 0.57073 0.7004 0.03947 0.0
C599 C 0.56906 0.70703 0.06486 0.0
C600 C 0.56331 0.66457 0.02925 0.0
C601 C 0.55482 0.63442 0.04414 0.0
H602 H 0.57849 0.72325 0.02744 0.0
H603 H 0.56502 0.66066 1.00966 0.0
S604 S 0.54254 0.63506 0.11095 0.0
N605 N 0.55426 0.67874 0.10412 0.0
N606 N 0.54247 0.61223 0.08499 0.0
C607 C 0.55241 0.64028 0.06937 0.0
C608 C 0.559 0.67638 0.07972 0.0
C609 C 0.86122 0.32769 0.97924 0.0
C610 C 0.8717 0.30216 0.96843 0.0
C611 C 0.88964 0.36426 0.9897 0.0
C612 C 0.92962 0.3768 0.98959 0.0
H613 H 0.8309 0.31985 0.97891 0.0
H614 H 0.88015 0.38323 0.9973 0.0
S615 S 0.97215 0.31913 0.96624 0.0
N616 N 0.92472 0.29057 0.96042 0.0
N617 N 0.97806 0.3596 0.97945 0.0
C618 C 0.94044 0.35109 0.97958 0.0
C619 C 0.91152 0.31371 0.96919 0.0
C620 C 0.69359 0.59195 0.96513 0.0
C621 C 0.70548 0.56442 0.96381 0.0
C622 C 0.65991 0.58501 0.97641 0.0
C623 C 0.63703 0.55048 0.98717 0.0
H624 H 0.71065 0.61932 0.95761 0.0
H625 H 0.65196 0.60707 0.97692 0.0
S626 S 0.65302 0.46746 0.98671 0.0
N627 N 0.68956 0.49988 0.97263 0.0
N628 N 0.62733 0.48756 0.99454 0.0
C629 C 0.64828 0.52255 0.9858 0.0
C630 C 0.68219 0.52933 0.97397 0.0
C631 C 0.4856 0.15471 0.98762 0.0
C632 C 0.44818 0.14289 0.97664 0.0
C633 C 0.49406 0.12838 0.99811 0.0
C634 C 0.46542 0.08939 0.9978 0.0
H635 H 0.5089 0.18409 0.98713 0.0
H636 H 0.52364 0.13828 1.0054 0.0
S637 S 0.36145 0.04547 0.97505 0.0
N638 N 0.38118 0.09081 0.96897 0.0
N639 N 0.39716 0.04125 0.98824 0.0
C640 C 0.42739 0.07777 0.9882 0.0
C641 C 0.41875 0.10455 0.97773 0.0
C642 C 0.67294 0.13388 0.99116 0.0
C643 C 0.67778 0.1224 0.96739 0.0
C644 C 0.63756 0.11291 1.00201 0.0
C645 C 0.60568 0.08036 0.9892 0.0
H646 H 0.69666 0.15897 1.00154 0.0
H647 H 0.63491 0.12263 0.02029 0.0
S648 S 0.60392 0.03794 0.92683 0.0
N649 N 0.64805 0.07581 0.9318 0.0
N650 N 0.58186 0.03704 0.95182 0.0
C651 C 0.6104 0.06863 0.96552 0.0
C652 C 0.64636 0.08948 0.95472 0.0
C653 C 0.88652 0.54268 0.98658 0.0
C654 C 0.8746 0.53352 0.96128 0.0
C655 C 0.91322 0.53356 0.99764 0.0
C656 C 0.92893 0.51484 0.98383 0.0
H657 H 0.87561 0.55743 0.9979 0.0
H658 H 0.92186 0.54164 0.01711 0.0
S659 S 0.90484 0.4827 0.91703 0.0
N660 N 0.87926 0.50365 0.9229 0.0
N661 N 0.92869 0.48601 0.94345 0.0
C662 C 0.91646 0.50492 0.95855 0.0
C663 C 0.88953 0.5144 0.94736 0.0
C664 C 0.47928 0.34721 0.99379 0.0
C665 C 0.46045 0.33339 0.97001 0.0
C666 C 0.49429 0.38574 1.0024 0.0
C667 C 0.49177 0.41181 0.9873 0.0
H668 H 0.48156 0.32799 1.00603 0.0
H669 H 0.508 0.39517 0.021 0.0
S670 S 0.44664 0.38985 0.92315 0.0
N671 N 0.44066 0.34854 0.93135 0.0
N672 N 0.46987 0.42116 0.94721 0.0
C673 C 0.47391 0.39845 0.96325 0.0
C674 C 0.45793 0.35913 0.95471 0.0
C675 C 0.1449 0.66937 0.04035 0.0
C676 C 0.13898 0.68393 0.06265 0.0
C677 C 0.12045 0.63074 0.03147 0.0
C678 C 0.0899 0.60524 0.04487 0.0
H679 H 0.16804 0.68802 0.02947 0.0
H680 H 0.12569 0.62073 0.01407 0.0
S681 S 0.06311 0.62939 0.10464 0.0
N682 N 0.10068 0.6701 0.09798 0.0
N683 N 0.05544 0.59752 0.08171 0.0
C684 C 0.08421 0.61948 0.0674 0.0
C685 C 0.10856 0.65883 0.07615 0.0
C686 C 0.35416 0.4798 0.04189 0.0
C687 C 0.34824 0.46338 0.06462 0.0
C688 C 0.38967 0.49279 0.03105 0.0
C689 C 0.42067 0.49059 0.04286 0.0
H690 H 0.3311 0.48212 0.03226 0.0
H691 H 0.39308 0.50515 0.01355 0.0
S692 S 0.41957 0.44994 0.10266 0.0
N693 N 0.37609 0.44537 0.09833 0.0
N694 N 0.44252 0.47018 0.07849 0.0
C695 C 0.4149 0.47432 0.06564 0.0
C696 C 0.37879 0.46063 0.07636 0.0
C697 C 0.53126 0.87971 0.05488 0.0
C698 C 0.56784 0.8872 0.04798 0.0
C699 C 0.5158 0.90266 0.04781 0.0
C700 C 0.53589 0.93294 0.03297 0.0
H701 H 0.51498 0.85669 0.06638 0.0
H702 H 0.48792 0.89659 0.05389 0.0
S703 S 0.63223 0.96374 1.00969 0.0
N704 N 0.62375 0.92706 0.02571 0.0
N705 N 0.59387 0.96908 1.01147 0.0
C706 C 0.57203 0.94016 0.02552 0.0
C707 C 0.58826 0.91756 0.03331 0.0
C708 C 0.98784 0.20479 0.37116 0.0
C709 C 0.9881 0.20139 0.39677 0.0
C710 C 0.02192 0.22979 0.3603 0.0
C711 C 0.05727 0.25264 0.37471 0.0
H712 H 0.96091 0.18879 0.3595 0.0
H713 H 0.02029 0.2322 0.34065 0.0
S714 S 0.07511 0.25078 0.44182 0.0
N715 N 0.02815 0.22003 0.43565 0.0
N716 N 0.09152 0.26788 0.41539 0.0
C717 C 0.0583 0.24857 0.40011 0.0
C718 C 0.02391 0.22277 0.4111 0.0
C719 C 0.80598 0.80075 0.41427 0.0
C720 C 0.82103 0.7823 0.39969 0.0
C721 C 0.77822 0.80913 0.40434 0.0
C722 C 0.76416 0.79949 0.37931 0.0
H723 H 0.81578 0.80886 0.43364 0.0
H724 H 0.76762 0.82319 0.41655 0.0
S725 S 0.79397 0.75042 0.33318 0.0
N726 N 0.81966 0.75431 0.35894 0.0
N727 N 0.76777 0.77037 0.34009 0.0
C728 C 0.77934 0.78142 0.36439 0.0
C729 C 0.80768 0.77281 0.37459 0.0
C730 C 0.24001 0.02744 0.3719 0.0
C731 C 0.23747 0.03461 0.39706 0.0
C732 C 0.23223 0.9912 0.36226 0.0
C733 C 0.22231 0.96121 0.37753 0.0
H734 H 0.2488 0.05019 0.35969 0.0
H735 H 0.23477 0.98682 0.34284 0.0
S736 S 0.2066 0.96339 0.44376 0.0
N737 N 0.22022 0.00729 0.43642 0.0
N738 N 0.20691 0.93971 0.41831 0.0
C739 C 0.21863 0.96759 0.40248 0.0
C740 C 0.22589 0.00419 0.41224 0.0
C741 C 0.55095 0.66532 0.28695 0.0
C742 C 0.53675 0.63306 0.30064 0.0
C743 C 0.57904 0.70184 0.29748 0.0
C744 C 0.59418 0.70767 0.32218 0.0
H745 H 0.54013 0.66233 0.26789 0.0
H746 H 0.58881 0.72566 0.28608 0.0
S747 S 0.56718 0.63206 0.36573 0.0
N748 N 0.54028 0.60887 0.33994 0.0
N749 N 0.59287 0.67753 0.35999 0.0
C750 C 0.5801 0.67554 0.33611 0.0
C751 C 0.55142 0.63828 0.32532 0.0
C752 C 0.35773 0.91687 0.29741 0.0
C753 C 0.37094 0.89032 0.29652 0.0
C754 C 0.32459 0.90978 0.3094 0.0
C755 C 0.30348 0.87611 0.32138 0.0
H756 H 0.37323 0.94355 0.28885 0.0
H757 H 0.31557 0.93104 0.30936 0.0
S758 S 0.32395 0.79608 0.32329 0.0
N759 N 0.35855 0.82778 0.30765 0.0
N760 N 0.29732 0.81525 0.33088 0.0
C761 C 0.3163 0.84933 0.32075 0.0
C762 C 0.34971 0.85624 0.30819 0.0
C763 C 0.08584 0.43023 0.30704 0.0
C764 C 0.11358 0.4696 0.30802 0.0
C765 C 0.09483 0.40424 0.31732 0.0
C766 C 0.13182 0.41658 0.32919 0.0
H767 H 0.05697 0.41932 0.29805 0.0
H768 H 0.07266 0.37412 0.3157 0.0
S769 S 0.21504 0.51659 0.33655 0.0
N770 N 0.17978 0.51966 0.32161 0.0
N771 N 0.19644 0.47088 0.34141 0.0
C772 C 0.1596 0.45599 0.33086 0.0
C773 C 0.15053 0.48247 0.32016 0.0
C774 C 0.30574 0.43435 0.28471 0.0
C775 C 0.341 0.45814 0.29896 0.0
C776 C 0.27119 0.41199 0.29566 0.0
C777 C 0.27029 0.41208 0.32145 0.0
H778 H 0.30476 0.43301 0.26479 0.0
H779 H 0.24503 0.39411 0.28362 0.0
S780 S 0.35497 0.4694 0.36728 0.0
N781 N 0.37318 0.48062 0.34038 0.0
N782 N 0.30811 0.43828 0.36103 0.0
C783 C 0.30543 0.43571 0.33603 0.0
C784 C 0.34079 0.45883 0.3248 0.0
C785 C 0.55864 0.87404 0.30549 0.0
C786 C 0.52236 0.85556 0.31555 0.0
C787 C 0.58823 0.86613 0.31245 0.0
C788 C 0.5828 0.83948 0.32975 0.0
H789 H 0.56436 0.8948 0.29215 0.0
H790 H 0.61565 0.88125 0.30422 0.0
S791 S 0.49259 0.78315 0.36131 0.0
N792 N 0.48248 0.80939 0.3435 0.0
N793 N 0.53757 0.79437 0.35661 0.0
C794 C 0.54643 0.82072 0.33986 0.0
C795 C 0.51644 0.82885 0.33274 0.0
C796 C 0.1392 0.67097 0.33106 0.0
C797 C 0.1177 0.65675 0.30803 0.0
C798 C 0.15653 0.70999 0.33919 0.0
C799 C 0.15378 0.7361 0.32426 0.0
H800 H 0.14193 0.65176 0.34309 0.0
H801 H 0.17231 0.71981 0.35723 0.0
S802 S 0.10169 0.71309 0.26209 0.0
N803 N 0.09482 0.6715 0.27036 0.0
N804 N 0.12844 0.745 0.28524 0.0
C805 C 0.13306 0.72227 0.30098 0.0
C806 C 0.11469 0.68249 0.29299 0.0
C807 C 0.81115 0.9962 0.37939 0.0
C808 C 0.7979 0.01643 0.39385 0.0
C809 C 0.78712 0.95681 0.37252 0.0
C810 C 0.74906 0.93607 0.38001 0.0
H811 H 0.84007 0.01087 0.37307 0.0
H812 H 0.79854 0.94262 0.36114 0.0
S813 S 0.70133 0.97597 0.41883 0.0
N814 N 0.74486 0.01301 0.4159 0.0
N815 N 0.69979 0.93906 0.40324 0.0
C816 C 0.73582 0.95599 0.39487 0.0
C817 C 0.7602 0.99613 0.40168 0.0
C818 C 0.02062 0.80546 0.37659 0.0
C819 C 0.01818 0.80118 0.40204 0.0
C820 C 0.05555 0.81571 0.36556 0.0
C821 C 0.08933 0.82221 0.37958 0.0
H822 H 0.99553 0.80105 0.36512 0.0
H823 H 0.05614 0.8189 0.34598 0.0
S824 S 0.09709 0.81267 0.44687 0.0
N825 N 0.05199 0.80302 0.4407 0.0
N826 N 0.11693 0.82186 0.42042 0.0
C827 C 0.08677 0.81743 0.40504 0.0
C828 C 0.05144 0.80704 0.41612 0.0
C829 C 0.25087 0.24194 0.36498 0.0
C830 C 0.23237 0.21333 0.38118 0.0
C831 C 0.23434 0.26359 0.35711 0.0
C832 C 0.19948 0.25815 0.36589 0.0
H833 H 0.27829 0.24757 0.35831 0.0
H834 H 0.24963 0.28561 0.34476 0.0
S835 S 0.13992 0.18723 0.40882 0.0
N836 N 0.17706 0.18031 0.40549 0.0
N837 N 0.14685 0.22217 0.39152 0.0
C838 C 0.18073 0.22969 0.38213 0.0
C839 C 0.19696 0.20692 0.38957 0.0
C840 C 0.68092 0.52973 0.71897 0.0
C841 C 0.65704 0.54163 0.73016 0.0
C842 C 0.71333 0.55529 0.70699 0.0
C843 C 0.72339 0.59386 0.70601 0.0
H844 H 0.67518 0.50065 0.72002 0.0
H845 H 0.73148 0.54514 0.69932 0.0
S846 S 0.66817 0.63856 0.72969 0.0
N847 N 0.64381 0.59387 0.73717 0.0
N848 N 0.70541 0.6421 0.71554 0.0
C849 C 0.69919 0.60588 0.71641 0.0
C850 C 0.66591 0.57977 0.72828 0.0
C851 C 0.49998 0.14607 0.72031 0.0
C852 C 0.48868 0.11136 0.73101 0.0
C853 C 0.47229 0.15368 0.70918 0.0
C854 C 0.43219 0.12705 0.70853 0.0
H855 H 0.53043 0.16799 0.72109 0.0
H856 H 0.48239 0.18113 0.70168 0.0
S857 S 0.38747 0.03015 0.73139 0.0
N858 N 0.43466 0.04867 0.73814 0.0
N859 N 0.38269 0.06347 0.71797 0.0
C860 C 0.42052 0.09183 0.71854 0.0
C861 C 0.44871 0.08388 0.72959 0.0
C862 C 0.94675 0.3707 0.71968 0.0
C863 C 0.92021 0.38404 0.71871 0.0
C864 C 0.93608 0.33382 0.70976 0.0
C865 C 0.8985 0.30893 0.69837 0.0
H866 H 0.97572 0.38858 0.72878 0.0
H867 H 0.95727 0.32453 0.71148 0.0
S868 S 0.81856 0.3307 0.69036 0.0
N869 N 0.85506 0.37001 0.70503 0.0
N870 N 0.83507 0.30083 0.68589 0.0
C871 C 0.87216 0.32251 0.69635 0.0
C872 C 0.883 0.36005 0.70662 0.0
C873 C 0.2184 0.97926 0.65509 0.0
C874 C 0.20802 0.97119 0.62956 0.0
C875 C 0.24679 0.01612 0.66508 0.0
C876 C 0.26634 0.04601 0.64988 0.0
H877 H 0.20488 0.95683 0.66744 0.0
H878 H 0.25395 0.02112 0.68482 0.0
S879 S 0.24765 0.04141 0.58234 0.0
N880 N 0.21744 0.99754 0.5896 0.0
N881 N 0.27211 0.06614 0.60844 0.0
C882 C 0.25612 0.03864 0.62445 0.0
C883 C 0.22664 0.0014 0.61428 0.0
C884 C 0.0404 0.23964 0.65371 0.0
C885 C 0.04036 0.23097 0.62837 0.0
C886 C 1.00607 0.23271 0.66413 0.0
C887 C 0.97063 0.21731 0.64951 0.0
H888 H 0.06723 0.25225 0.66553 0.0
H889 H 1.0074 0.24003 0.68365 0.0
S890 S 0.95384 0.18471 0.58313 0.0
N891 N 1.00096 0.20253 0.58957 0.0
N892 N 0.93687 0.19053 0.609 0.0
C893 C 0.97003 0.20775 0.62434 0.0
C894 C 1.00477 0.21434 0.61381 0.0
C895 C 0.78951 0.78461 0.6269 0.0
C896 C 0.77864 0.80578 0.64261 0.0
C897 C 0.79912 0.75837 0.63593 0.0
C898 C 0.79917 0.75297 0.66111 0.0
H899 H 0.7911 0.78861 0.60743 0.0
H900 H 0.80733 0.74273 0.62317 0.0
S901 S 0.77162 0.79961 0.70999 0.0
N902 N 0.76679 0.81795 0.68458 0.0
N903 N 0.78688 0.76978 0.70167 0.0
C904 C 0.78873 0.77392 0.67715 0.0
C905 C 0.77803 0.8001 0.66788 0.0
C906 C 0.97275 0.78313 0.6205 0.0
C907 C 1.00915 0.80226 0.63406 0.0
C908 C 0.93858 0.76071 0.63175 0.0
C909 C 0.93907 0.75581 0.65716 0.0
H910 H 0.97056 0.78532 0.60084 0.0
H911 H 0.91159 0.74665 0.62011 0.0
S912 S 0.02731 0.80038 0.70119 0.0
N913 N 0.04407 0.81569 0.67446 0.0
N914 N 0.97964 0.7729 0.6957 0.0
C915 C 0.97537 0.77529 0.67112 0.0
C916 C 0.01043 0.79861 0.65958 0.0
C917 C 0.23168 0.18824 0.61532 0.0
C918 C 0.21033 0.19969 0.62969 0.0
C919 C 0.25877 0.17975 0.62614 0.0
C920 C 0.26589 0.18242 0.6519 0.0
H921 H 0.22751 0.18589 0.59542 0.0
H922 H 0.27435 0.17114 0.61402 0.0
S923 S 0.21729 0.21102 0.69798 0.0
N924 N 0.19782 0.21317 0.67114 0.0
N925 N 0.24881 0.19724 0.69159 0.0
C926 C 0.24455 0.19373 0.6666 0.0
C927 C 0.21679 0.20236 0.65547 0.0
C928 C 0.83406 0.03644 0.62357 0.0
C929 C 0.82031 0.0067 0.63929 0.0
C930 C 0.84255 0.07332 0.63183 0.0
C931 C 0.83765 0.08204 0.65621 0.0
H932 H 0.83806 0.0311 0.60459 0.0
H933 H 0.85304 0.09513 0.61884 0.0
S934 S 0.80263 0.01417 0.70495 0.0
N935 N 0.80237 0.98819 0.68053 0.0
N936 N 0.81834 0.0577 0.69616 0.0
C937 C 0.82422 0.05258 0.6723 0.0
C938 C 0.81553 0.01485 0.6638 0.0
C939 C 0.47041 0.31098 0.74947 0.0
C940 C 0.4912 0.34184 0.73517 0.0
C941 C 0.44218 0.27472 0.73858 0.0
C942 C 0.43342 0.26781 0.7129 0.0
H943 H 0.476 0.31487 0.76931 0.0
H944 H 0.42707 0.25197 0.75052 0.0
S945 S 0.47982 0.33919 0.66706 0.0
N946 N 0.50122 0.36325 0.69389 0.0
N947 N 0.44824 0.29521 0.67337 0.0
C948 C 0.45405 0.29854 0.69831 0.0
C949 C 0.48291 0.33551 0.70947 0.0
C950 C 0.68876 0.14212 0.708 0.0
C951 C 0.68732 0.13501 0.73307 0.0
C952 C 0.72314 0.15389 0.69609 0.0
C953 C 0.7573 0.15929 0.70892 0.0
H954 H 0.66337 0.13898 0.69755 0.0
H955 H 0.72321 0.15961 0.67692 0.0
S956 S 0.76753 0.14109 0.77418 0.0
N957 N 0.7223 0.13196 0.76977 0.0
N958 N 0.78645 0.1539 0.74766 0.0
C959 C 0.75575 0.15126 0.7338 0.0
C960 C 0.72091 0.13918 0.74579 0.0
C961 C 0.90608 0.58959 0.73984 0.0
C962 C 0.91079 0.56345 0.72457 0.0
C963 C 0.88804 0.60902 0.73058 0.0
C964 C 0.8747 0.60364 0.70555 0.0
H965 H 0.91601 0.59476 0.75922 0.0
H966 H 0.88508 0.62887 0.74316 0.0
S967 S 0.88105 0.53896 0.65764 0.0
N968 N 0.90108 0.53328 0.6831 0.0
N969 N 0.86779 0.57052 0.66554 0.0
C970 C 0.87966 0.5779 0.68995 0.0
C971 C 0.89752 0.55757 0.6995 0.0
C972 C 0.46222 0.92554 0.20423 0.0
C973 C 0.45156 0.94093 0.22411 0.0
C974 C 0.4721 0.94362 0.18229 0.0
C975 C 0.47205 0.97803 0.17937 0.0
H976 H 0.46341 0.89948 0.20577 0.0
H977 H 0.48095 0.9311 0.16775 0.0
S978 S 0.44437 0.02913 0.22527 0.0
N979 N 0.44028 0.99196 0.23909 0.0
N980 N 0.45841 0.0257 0.19774 0.0
C981 C 0.46044 0.9932 0.19882 0.0
C982 C 0.45019 0.97466 0.22116 0.0
C983 C 0.07192 0.48892 0.21471 0.0
C984 C 0.0559 0.49876 0.23423 0.0
C985 C 0.05524 0.48237 0.19045 0.0
C986 C 0.02174 0.48497 0.18499 0.0
H987 H 0.09821 0.48754 0.21812 0.0
H988 H 0.06884 0.47558 0.17582 0.0
S989 S 0.96786 0.5082 0.22981 0.0
N990 N 1.00395 0.50925 0.24672 0.0
N991 N 0.97284 0.49732 0.20116 0.0
C992 C 1.00491 0.49374 0.20447 0.0
C993 C 0.02194 0.50056 0.22907 0.0
C994 C 0.47116 0.52252 0.20915 0.0
C995 C 0.498 0.53449 0.22997 0.0
C996 C 0.48098 0.51558 0.18584 0.0
C997 C 0.51789 0.5201 0.18253 0.0
H998 H 0.44287 0.51976 0.21075 0.0
H999 H 0.45965 0.50698 0.17022 0.0
S1000 S 0.59775 0.54894 0.23151 0.0
N1001 N 0.56216 0.54851 0.24607 0.0
N1002 N 0.58099 0.53647 0.20229 0.0
C1003 C 0.54453 0.53098 0.20337 0.0
C1004 C 0.5345 0.53795 0.22705 0.0
C1005 C 0.99778 0.5004 0.80783 0.0
C1006 C 0.96556 0.4652 0.79827 0.0
C1007 C 0.01314 0.5057 0.83227 0.0
C1008 C 0.99683 0.47601 0.84806 0.0
H1009 H 0.01167 0.52383 0.79621 0.0
H1010 H 0.03791 0.53336 0.83888 0.0
S1011 S 0.91143 0.37863 0.83212 0.0
N1012 N 0.91678 0.40067 0.80671 0.0
N1013 N 0.9466 0.41011 0.85235 0.0
C1014 C 0.96434 0.44076 0.83878 0.0
C1015 C 0.94852 0.43547 0.81396 0.0
C1016 C 0.53679 0.50247 0.806 0.0
C1017 C 0.57524 0.51133 0.80288 0.0
C1018 C 0.52617 0.51038 0.82871 0.0
C1019 C 0.5535 0.52733 0.84933 0.0
H1020 H 0.51455 0.48886 0.79077 0.0
H1021 H 0.49601 0.50213 0.8303 0.0
S1022 S 0.65846 0.55814 0.85064 0.0
N1023 N 0.64105 0.53916 0.82218 0.0
N1024 N 0.62125 0.5547 0.86481 0.0
C1025 C 0.59231 0.53734 0.84633 0.0
C1026 C 0.60315 0.52931 0.82312 0.0
C1027 C 0.51806 0.08115 0.82219 0.0
C1028 C 0.53199 0.0666 0.80375 0.0
C1029 C 0.50829 0.06447 0.84462 0.0
C1030 C 0.51182 0.03239 0.84953 0.0
H1031 H 0.51451 0.1056 0.81922 0.0
H1032 H 0.49705 0.07631 0.85802 0.0
S1033 S 0.54832 0.98416 0.80788 0.0
N1034 N 0.54938 0.01851 0.79216 0.0
N1035 N 0.532 0.98785 0.83452 0.0
C1036 C 0.52648 0.01805 0.83148 0.0
C1037 C 0.5364 0.03501 0.80862 0.0
C1038 C 0.10541 0.27069 0.54126 0.0
C1039 C 0.13245 0.28354 0.56207 0.0
C1040 C 0.11594 0.28757 0.51891 0.0
C1041 C 0.15388 0.31797 0.51655 0.0
H1042 H 0.07617 0.24681 0.54209 0.0
H1043 H 0.09445 0.27615 0.50322 0.0
S1044 S 0.234 0.36507 0.56642 0.0
N1045 N 0.19776 0.33038 0.57943 0.0
N1046 N 0.21747 0.36221 0.53761 0.0
C1047 C 0.18075 0.33184 0.53747 0.0
C1048 C 0.17005 0.31462 0.56016 0.0
C1049 C 0.68626 0.83683 0.56689 0.0
C1050 C 0.72367 0.84247 0.57228 0.0
C1051 C 0.67013 0.82969 0.54246 0.0
C1052 C 0.69127 0.82867 0.52276 0.0
H1053 H 0.66944 0.83787 0.58163 0.0
H1054 H 0.64116 0.82543 0.53892 0.0
S1055 S 0.79083 0.8426 0.52771 0.0
N1056 N 0.7816 0.84711 0.55646 0.0
N1057 N 0.75151 0.83374 0.5105 0.0
C1058 C 0.72885 0.83451 0.52809 0.0
C1059 C 0.74499 0.8414 0.5529 0.0
C1060 C 0.1401 0.85881 0.54217 0.0
C1061 C 0.16347 0.86428 0.56383 0.0
C1062 C 0.1503 0.85126 0.51914 0.0
C1063 C 0.18398 0.8485 0.51702 0.0
H1064 H 0.11476 0.86208 0.54293 0.0
H1065 H 0.13208 0.84824 0.50282 0.0
S1066 S 0.25354 0.85852 0.56858 0.0
N1067 N 0.22059 0.86479 0.58199 0.0
N1068 N 0.23983 0.85058 0.53881 0.0
C1069 C 0.20668 0.85244 0.53872 0.0
C1070 C 0.19643 0.86039 0.56208 0.0
C1071 C 0.61634 0.82368 0.15113 0.0
C1072 C 0.63305 0.81282 0.13253 0.0
C1073 C 0.63247 0.83217 0.17558 0.0
C1074 C 0.66604 0.83035 0.18229 0.0
H1075 H 0.58969 0.82412 0.14694 0.0
H1076 H 0.61817 0.83958 0.18943 0.0
S1077 S 0.72224 0.80575 0.14017 0.0
N1078 N 0.68622 0.8029 0.12213 0.0
N1079 N 0.71622 0.81818 0.16819 0.0
C1080 C 0.68383 0.82088 0.16371 0.0
C1081 C 0.66738 0.81222 0.13882 0.0
C1082 C 0.24428 0.87053 0.14507 0.0
C1083 C 0.24832 0.83836 0.13953 0.0
C1084 C 0.23301 0.87673 0.16807 0.0
C1085 C 0.2258 0.85122 0.18644 0.0
H1086 H 0.24829 0.89016 0.13119 0.0
H1087 H 0.22937 0.90139 0.17138 0.0
S1088 S 0.23472 0.76395 0.1815 0.0
N1089 N 0.24633 0.78188 0.15463 0.0
N1090 N 0.22486 0.79324 0.19769 0.0
C1091 C 0.2312 0.81974 0.18139 0.0
C1092 C 0.24249 0.81338 0.15799 0.0
C1093 C 0.18237 0.41319 0.15726 0.0
C1094 C 0.19796 0.40091 0.13862 0.0
C1095 C 0.1725 0.39504 0.17916 0.0
C1096 C 0.17768 0.36371 0.18337 0.0
H1097 H 0.17758 0.43704 0.15487 0.0
H1098 H 0.15996 0.40518 0.19271 0.0
S1099 S 0.21901 0.3213 0.14098 0.0
N1100 N 0.2188 0.35581 0.12608 0.0
N1101 N 0.20116 0.3223 0.16752 0.0
C1102 C 0.19399 0.35159 0.16513 0.0
C1103 C 0.20402 0.37009 0.14277 0.0
C1104 C 0.76787 0.60395 0.87454 0.0
C1105 C 0.79461 0.61791 0.89553 0.0
C1106 C 0.7779 0.62117 0.85223 0.0
C1107 C 0.81494 0.65329 0.85013 0.0
H1108 H 0.73932 0.57898 0.87524 0.0
H1109 H 0.75646 0.6093 0.83651 0.0
S1110 S 0.89523 0.70118 0.89987 0.0
N1111 N 0.85936 0.66621 0.91294 0.0
N1112 N 0.87843 0.69811 0.8711 0.0
C1113 C 0.84174 0.66771 0.8711 0.0
C1114 C 0.83155 0.65014 0.89373 0.0
C1115 C 0.41046 0.1559 0.88152 0.0
C1116 C 0.39649 0.17057 0.89977 0.0
C1117 C 0.39368 0.14706 0.85718 0.0
C1118 C 0.36212 0.15219 0.85039 0.0
H1119 H 0.43521 0.1523 0.88594 0.0
H1120 H 0.40566 0.13642 0.84353 0.0
S1121 S 0.31389 0.18823 0.89166 0.0
N1122 N 0.34837 0.18827 0.90974 0.0
N1123 N 0.31727 0.17231 0.86397 0.0
C1124 C 0.34734 0.16595 0.86864 0.0
C1125 C 0.36444 0.175 0.89333 0.0
C1126 C 0.8038 0.20218 0.87303 0.0
C1127 C 0.82859 0.20933 0.89431 0.0
C1128 C 0.81432 0.19655 0.84962 0.0
C1129 C 0.84974 0.19741 0.84677 0.0
H1130 H 0.77677 0.20222 0.87443 0.0
H1131 H 0.79478 0.1918 0.83361 0.0
S1132 S 0.92394 0.21358 0.89695 0.0
N1133 N 0.88923 0.21551 0.91119 0.0
N1134 N 0.90916 0.20535 0.86735 0.0
C1135 C 0.87419 0.20352 0.86802 0.0
C1136 C 0.86358 0.20937 0.89173 0.0
C1137 C 0.29049 0.15362 0.48231 0.0
C1138 C 0.30568 0.14194 0.46317 0.0
C1139 C 0.30806 0.16238 0.50642 0.0
C1140 C 0.34158 0.16001 0.51223 0.0
H1141 H 0.26392 0.15446 0.47885 0.0
H1142 H 0.29493 0.17049 0.52072 0.0
S1143 S 0.39413 0.13326 0.46835 0.0
N1144 N 0.35743 0.13071 0.45125 0.0
N1145 N 0.39008 0.14648 0.49667 0.0
C1146 C 0.35788 0.14974 0.49307 0.0
C1147 C 0.33998 0.14082 0.46853 0.0
C1148 C 0.86246 0.17408 0.46726 0.0
C1149 C 0.89967 0.17886 0.46484 0.0
C1150 C 0.85157 0.18118 0.4901 0.0
C1151 C 0.87735 0.19297 0.51141 0.0
H1152 H 0.84126 0.16386 0.45144 0.0
H1153 H 0.82225 0.17596 0.49127 0.0
S1154 S 0.97911 0.21274 0.51472 0.0
N1155 N 0.96301 0.1982 0.48551 0.0
N1156 N 0.94263 0.21197 0.5284 0.0
C1157 C 0.91516 0.19942 0.50909 0.0
C1158 C 0.92633 0.19236 0.48581 0.0
C1159 C 0.8646 0.69885 0.4746 0.0
C1160 C 0.86101 0.73108 0.47025 0.0
C1161 C 0.85548 0.68184 0.49705 0.0
C1162 C 0.84268 0.69652 0.51616 0.0
H1163 H 0.87387 0.68625 0.46039 0.0
H1164 H 0.8587 0.65709 0.4995 0.0
S1165 S 0.82957 0.78118 0.51428 0.0
N1166 N 0.84516 0.77786 0.48732 0.0
N1167 N 0.82694 0.74536 0.529 0.0
C1168 C 0.83939 0.72899 0.51208 0.0
C1169 C 0.84875 0.74632 0.48929 0.0
loop_
_geom_bond_atom_site_label_1
_geom_bond_atom_site_label_2
_geom_bond_distance
_geom_bond_site_symmetry_2
_ccdc_geom_bond_type
H0 C5 0.930 . S
H1 C8 0.930 . S
H2 C10 0.930 . S
H3 C4 1.016 . S
C4 H3 1.016 . S
C4 N11 1.286 . S
C5 H0 0.930 . S
C5 C6 1.397 . S
C5 C7 1.361 . S
C6 C5 1.397 . S
C6 C10 1.390 . S
C7 C5 1.361 . S
C7 C8 1.393 . S
C7 N11 1.413 . S
C8 H1 0.930 . S
C8 C7 1.393 . S
C8 C9 1.399 . S
C9 C8 1.399 . S
C9 C10 1.381 . S
C10 H2 0.930 . S
C10 C6 1.390 . S
C10 C9 1.381 . S
N11 C4 1.286 . S
N11 C7 1.413 . S
H12 C17 0.930 . S
H13 C20 0.930 . S
H14 C22 0.930 . S
H15 C16 1.016 . S
C16 H15 1.016 . S
C16 N23 1.286 . S
C17 H12 0.930 . S
C17 C18 1.397 . S
C17 C19 1.361 . S
C18 C17 1.397 . S
C18 C22 1.390 . S
C19 C17 1.361 . S
C19 C20 1.393 . S
C19 N23 1.413 . S
C20 H13 0.930 . S
C20 C19 1.393 . S
C20 C21 1.399 . S
C21 C20 1.399 . S
C21 C22 1.381 . S
C22 H14 0.930 . S
C22 C18 1.390 . S
C22 C21 1.381 . S
N23 C16 1.286 . S
N23 C19 1.413 . S
H24 C29 0.930 . S
H25 C32 0.930 . S
H26 C34 0.930 . S
H27 C28 1.016 . S
C28 H27 1.016 . S
C28 N35 1.286 . S
C29 H24 0.930 . S
C29 C30 1.397 . S
C29 C31 1.361 . S
C30 C29 1.397 . S
C30 C34 1.390 . S
C31 C29 1.361 . S
C31 C32 1.393 . S
C31 N35 1.413 . S
C32 H25 0.930 . S
C32 C31 1.393 . S
C32 C33 1.399 . S
C33 C32 1.399 . S
C33 C34 1.381 . S
C34 H26 0.930 . S
C34 C30 1.390 . S
C34 C33 1.381 . S
N35 C28 1.286 . S
N35 C31 1.413 . S
H36 C41 0.930 . S
H37 C44 0.930 . S
H38 C46 0.930 . S
H39 C40 1.016 . S
C40 H39 1.016 . S
C40 N47 1.286 . S
C41 H36 0.930 . S
C41 C42 1.397 . S
C41 C43 1.361 . S
C42 C41 1.397 . S
C42 C46 1.390 . S
C43 C41 1.361 . S
C43 C44 1.393 . S
C43 N47 1.413 . S
C44 H37 0.930 . S
C44 C43 1.393 . S
C44 C45 1.399 . S
C45 C44 1.399 . S
C45 C46 1.381 . S
C46 H38 0.930 . S
C46 C42 1.390 . S
C46 C45 1.381 . S
N47 C40 1.286 . S
N47 C43 1.413 . S
H48 C53 0.930 . S
H49 C56 0.930 . S
H50 C58 0.930 . S
H51 C52 1.016 . S
C52 H51 1.016 . S
C52 N59 1.286 . S
C53 H48 0.930 . S
C53 C54 1.397 . S
C53 C55 1.361 . S
C54 C53 1.397 . S
C54 C58 1.390 . S
C55 C53 1.361 . S
C55 C56 1.393 . S
C55 N59 1.413 . S
C56 H49 0.930 . S
C56 C55 1.393 . S
C56 C57 1.399 . S
C57 C56 1.399 . S
C57 C58 1.381 . S
C58 H50 0.930 . S
C58 C54 1.390 . S
C58 C57 1.381 . S
N59 C52 1.286 . S
N59 C55 1.413 . S
H60 C65 0.930 . S
H61 C68 0.930 . S
H62 C70 0.930 . S
H63 C64 1.016 . S
C64 H63 1.016 . S
C64 N71 1.286 . S
C65 H60 0.930 . S
C65 C66 1.397 . S
C65 C67 1.361 . S
C66 C65 1.397 . S
C66 C70 1.390 . S
C67 C65 1.361 . S
C67 C68 1.393 . S
C67 N71 1.413 . S
C68 H61 0.930 . S
C68 C67 1.393 . S
C68 C69 1.399 . S
C69 C68 1.399 . S
C69 C70 1.381 . S
C70 H62 0.930 . S
C70 C66 1.390 . S
C70 C69 1.381 . S
N71 C64 1.286 . S
N71 C67 1.413 . S
H72 C77 0.930 . S
H73 C80 0.930 . S
H74 C82 0.930 . S
H75 C76 1.016 . S
C76 H75 1.016 . S
C76 N83 1.286 . S
C77 H72 0.930 . S
C77 C78 1.397 . S
C77 C79 1.361 . S
C78 C77 1.397 . S
C78 C82 1.390 . S
C79 C77 1.361 . S
C79 C80 1.393 . S
C79 N83 1.413 . S
C80 H73 0.930 . S
C80 C79 1.393 . S
C80 C81 1.399 . S
C81 C80 1.399 . S
C81 C82 1.381 . S
C82 H74 0.930 . S
C82 C78 1.390 . S
C82 C81 1.381 . S
N83 C76 1.286 . S
N83 C79 1.413 . S
H84 C89 0.930 . S
H85 C92 0.930 . S
H86 C94 0.930 . S
H87 C88 1.016 . S
C88 H87 1.016 . S
C88 N95 1.286 . S
C89 H84 0.930 . S
C89 C90 1.397 . S
C89 C91 1.361 . S
C90 C89 1.397 . S
C90 C94 1.390 . S
C91 C89 1.361 . S
C91 C92 1.393 . S
C91 N95 1.413 . S
C92 H85 0.930 . S
C92 C91 1.393 . S
C92 C93 1.399 . S
C93 C92 1.399 . S
C93 C94 1.381 . S
C94 H86 0.930 . S
C94 C90 1.390 . S
C94 C93 1.381 . S
N95 C88 1.286 . S
N95 C91 1.413 . S
H96 C101 0.930 . S
H97 C104 0.930 . S
H98 C106 0.930 . S
H99 C100 1.016 . S
C100 H99 1.016 . S
C100 N107 1.286 . S
C101 H96 0.930 . S
C101 C102 1.397 . S
C101 C103 1.361 . S
C102 C101 1.397 . S
C102 C106 1.390 . S
C103 C101 1.361 . S
C103 C104 1.393 . S
C103 N107 1.413 . S
C104 H97 0.930 . S
C104 C103 1.393 . S
C104 C105 1.399 . S
C105 C104 1.399 . S
C105 C106 1.381 . S
C106 H98 0.930 . S
C106 C102 1.390 . S
C106 C105 1.381 . S
N107 C100 1.286 . S
N107 C103 1.413 . S
H108 C113 0.930 . S
H109 C116 0.930 . S
H110 C118 0.930 . S
H111 C112 1.016 . S
C112 H111 1.016 . S
C112 N119 1.286 . S
C113 H108 0.930 . S
C113 C114 1.397 . S
C113 C115 1.361 . S
C114 C113 1.397 . S
C114 C118 1.390 . S
C115 C113 1.361 . S
C115 C116 1.393 . S
C115 N119 1.413 . S
C116 H109 0.930 . S
C116 C115 1.393 . S
C116 C117 1.399 . S
C117 C116 1.399 . S
C117 C118 1.381 . S
C118 H110 0.930 . S
C118 C114 1.390 . S
C118 C117 1.381 . S
N119 C112 1.286 . S
N119 C115 1.413 . S
H120 C125 0.930 1_554 S
H121 C128 0.930 . S
H122 C130 0.930 . S
H123 C124 1.016 . S
C124 H123 1.016 . S
C124 N131 1.286 . S
C125 H120 0.930 1_556 S
C125 C126 1.397 . S
C125 C127 1.361 . S
C126 C125 1.397 . S
C126 C130 1.390 . S
C127 C125 1.361 . S
C127 C128 1.393 . S
C127 N131 1.413 . S
C128 H121 0.930 . S
C128 C127 1.393 . S
C128 C129 1.399 . S
C129 C128 1.399 . S
C129 C130 1.381 . S
C130 H122 0.930 . S
C130 C126 1.390 . S
C130 C129 1.381 . S
N131 C124 1.286 . S
N131 C127 1.413 . S
H132 C137 0.930 . S
H133 C140 0.930 . S
H134 C142 0.930 . S
H135 C136 1.016 . S
C136 H135 1.016 . S
C136 N143 1.286 . S
C137 H132 0.930 . S
C137 C138 1.397 . S
C137 C139 1.361 . S
C138 C137 1.397 . S
C138 C142 1.390 . S
C139 C137 1.361 . S
C139 C140 1.393 . S
C139 N143 1.413 . S
C140 H133 0.930 . S
C140 C139 1.393 . S
C140 C141 1.399 . S
C141 C140 1.399 . S
C141 C142 1.381 . S
C142 H134 0.930 . S
C142 C138 1.390 . S
C142 C141 1.381 . S
N143 C136 1.286 . S
N143 C139 1.413 . S
H144 C149 0.930 . S
H145 C152 0.930 . S
H146 C154 0.930 . S
H147 C148 1.016 . S
C148 H147 1.016 . S
C148 N155 1.286 . S
C149 H144 0.930 . S
C149 C150 1.397 . S
C149 C151 1.361 . S
C150 C149 1.397 . S
C150 C154 1.390 . S
C151 C149 1.361 . S
C151 C152 1.393 . S
C151 N155 1.413 . S
C152 H145 0.930 . S
C152 C151 1.393 . S
C152 C153 1.399 . S
C153 C152 1.399 . S
C153 C154 1.381 . S
C154 H146 0.930 . S
C154 C150 1.390 . S
C154 C153 1.381 . S
N155 C148 1.286 . S
N155 C151 1.413 . S
H156 C161 0.930 . S
H157 C164 0.930 . S
H158 C166 0.930 . S
H159 C160 1.016 . S
C160 H159 1.016 . S
C160 N167 1.286 . S
C161 H156 0.930 . S
C161 C162 1.397 . S
C161 C163 1.361 . S
C162 C161 1.397 . S
C162 C166 1.390 . S
C163 C161 1.361 . S
C163 C164 1.393 . S
C163 N167 1.413 . S
C164 H157 0.930 . S
C164 C163 1.393 . S
C164 C165 1.399 . S
C165 C164 1.399 . S
C165 C166 1.381 . S
C166 H158 0.930 . S
C166 C162 1.390 . S
C166 C165 1.381 . S
N167 C160 1.286 . S
N167 C163 1.413 . S
H168 C173 0.930 . S
H169 C176 0.930 . S
H170 C178 0.930 . S
H171 C172 1.016 . S
C172 H171 1.016 . S
C172 N179 1.286 . S
C173 H168 0.930 . S
C173 C174 1.397 . S
C173 C175 1.361 . S
C174 C173 1.397 . S
C174 C178 1.390 . S
C175 C173 1.361 . S
C175 C176 1.393 . S
C175 N179 1.413 . S
C176 H169 0.930 . S
C176 C175 1.393 . S
C176 C177 1.399 . S
C177 C176 1.399 . S
C177 C178 1.381 . S
C178 H170 0.930 . S
C178 C174 1.390 . S
C178 C177 1.381 . S
N179 C172 1.286 . S
N179 C175 1.413 . S
H180 C185 0.930 . S
H181 C188 0.930 . S
H182 C190 0.930 . S
H183 C184 1.016 . S
C184 H183 1.016 . S
C184 N191 1.286 . S
C185 H180 0.930 . S
C185 C186 1.397 . S
C185 C187 1.361 . S
C186 C185 1.397 . S
C186 C190 1.390 . S
C187 C185 1.361 . S
C187 C188 1.393 . S
C187 N191 1.413 . S
C188 H181 0.930 . S
C188 C187 1.393 . S
C188 C189 1.399 . S
C189 C188 1.399 . S
C189 C190 1.381 . S
C190 H182 0.930 . S
C190 C186 1.390 . S
C190 C189 1.381 . S
N191 C184 1.286 . S
N191 C187 1.413 . S
H192 C197 0.930 . S
H193 C200 0.930 . S
H194 C202 0.930 . S
H195 C196 1.016 . S
C196 H195 1.016 . S
C196 N203 1.286 . S
C197 H192 0.930 . S
C197 C198 1.397 . S
C197 C199 1.361 . S
C198 C197 1.397 . S
C198 C202 1.390 . S
C199 C197 1.361 . S
C199 C200 1.393 . S
C199 N203 1.413 . S
C200 H193 0.930 . S
C200 C199 1.393 . S
C200 C201 1.399 . S
C201 C200 1.399 . S
C201 C202 1.381 . S
C202 H194 0.930 . S
C202 C198 1.390 . S
C202 C201 1.381 . S
N203 C196 1.286 . S
N203 C199 1.413 . S
H204 C209 0.930 . S
H205 C212 0.930 . S
H206 C214 0.930 . S
H207 C208 1.016 . S
C208 H207 1.016 . S
C208 N215 1.286 . S
C209 H204 0.930 . S
C209 C210 1.397 . S
C209 C211 1.361 . S
C210 C209 1.397 . S
C210 C214 1.390 . S
C211 C209 1.361 . S
C211 C212 1.393 . S
C211 N215 1.413 . S
C212 H205 0.930 . S
C212 C211 1.393 . S
C212 C213 1.399 . S
C213 C212 1.399 . S
C213 C214 1.381 . S
C214 H206 0.930 . S
C214 C210 1.390 . S
C214 C213 1.381 . S
N215 C208 1.286 . S
N215 C211 1.413 . S
Eu216 C225 2.828 1_565 S
Eu216 O227 2.392 . S
Eu216 O229 2.418 . S
Eu216 O234 2.373 1_565 S
Eu216 O237 2.488 . S
Eu216 O238 2.471 1_565 S
Eu216 O239 2.349 1_565 S
Eu217 O226 2.373 1_545 S
Eu217 O230 2.488 . S
Eu217 O231 2.471 1_545 S
Eu217 O232 2.349 1_545 S
Eu217 O235 2.392 . S
Eu217 O236 2.418 . S
Eu217 C246 2.828 . S
C218 O236 1.244 . S
C218 O239 1.265 1_554 S
C219 C220 1.379 . S
C219 C223 1.373 1_545 S
C219 C225 1.505 . S
C220 C219 1.379 . S
C220 C222 1.369 . S
C220 H248 0.930 . S
C221 C223 1.383 1_545 S
C221 C224 1.382 . S
C221 H249 0.930 1_545 S
C222 C220 1.369 . S
C222 C224 1.392 . S
C222 H250 0.930 . S
C223 C219 1.373 1_565 S
C223 C221 1.383 1_565 S
C223 H251 0.931 . S
C224 C221 1.382 . S
C224 C222 1.392 . S
C225 Eu216 2.828 1_545 S
C225 C219 1.505 . S
C225 O237 1.249 1_545 S
C225 O238 1.244 . S
O226 Eu217 2.373 1_565 S
O226 C228 1.258 . S
O227 Eu216 2.392 . S
O227 C228 1.242 1_556 S
C228 O226 1.258 . S
C228 O227 1.242 1_554 S
O229 Eu216 2.418 . S
O229 C233 1.244 1_556 S
O230 Eu217 2.488 . S
O230 C246 1.249 . S
O231 Eu217 2.471 1_565 S
O231 C246 1.244 1_565 S
O232 Eu217 2.349 1_565 S
O232 C233 1.265 . S
C233 O229 1.244 1_554 S
C233 O232 1.265 . S
O234 Eu216 2.373 1_545 S
O234 C247 1.258 . S
O235 Eu217 2.392 . S
O235 C247 1.242 1_554 S
O236 Eu217 2.418 . S
O236 C218 1.244 . S
O237 Eu216 2.488 . S
O237 C225 1.249 1_565 S
O238 Eu216 2.471 1_545 S
O238 C225 1.244 . S
O239 Eu216 2.349 1_545 S
O239 C218 1.265 1_556 S
C240 C241 1.379 . S
C240 C244 1.373 1_565 S
C240 C246 1.505 1_565 S
C241 C240 1.379 . S
C241 C243 1.369 . S
C241 H252 0.930 . S
C242 C244 1.383 . S
C242 C245 1.382 1_545 S
C242 H253 0.930 . S
C243 C241 1.369 . S
C243 C245 1.392 . S
C243 H254 0.930 . S
C244 C240 1.373 1_545 S
C244 C242 1.383 . S
C244 H255 0.931 . S
C245 C242 1.382 1_565 S
C245 C243 1.392 . S
C246 Eu217 2.828 . S
C246 O230 1.249 . S
C246 O231 1.244 1_545 S
C246 C240 1.505 1_545 S
C247 O234 1.258 . S
C247 O235 1.242 1_556 S
H248 C220 0.930 . S
H249 C221 0.930 1_565 S
H250 C222 0.930 . S
H251 C223 0.931 . S
H252 C241 0.930 . S
H253 C242 0.930 . S
H254 C243 0.930 . S
H255 C244 0.931 . S
Eu256 C265 2.832 . S
Eu256 O267 2.392 1_556 S
Eu256 O269 2.418 . S
Eu256 O274 2.373 1_455 S
Eu256 O277 2.488 . S
Eu256 O278 2.471 1_455 S
Eu256 O279 2.349 1_455 S
Eu257 O266 2.373 1_655 S
Eu257 O270 2.488 . S
Eu257 O271 2.471 1_655 S
Eu257 O272 2.349 1_655 S
Eu257 O275 2.392 . S
Eu257 O276 2.418 . S
Eu257 C286 2.828 1_655 S
C258 O276 1.244 1_556 S
C258 O279 1.265 . S
C259 C260 1.379 . S
C259 C263 1.373 1_655 S
C259 C265 1.501 1_655 S
C260 C259 1.379 . S
C260 C262 1.369 . S
C260 H288 0.930 . S
C261 C263 1.383 1_655 S
C261 C264 1.382 . S
C261 H289 0.930 1_655 S
C262 C260 1.369 . S
C262 C264 1.392 . S
C262 H290 0.930 . S
C263 C259 1.373 1_455 S
C263 C261 1.383 1_455 S
C263 H291 0.931 . S
C264 C261 1.382 . S
C264 C262 1.392 . S
C265 Eu256 2.832 . S
C265 C259 1.501 1_455 S
C265 O277 1.255 . S
C265 O278 1.243 1_455 S
O266 Eu257 2.373 1_455 S
O266 C268 1.258 . S
O267 Eu256 2.392 1_554 S
O267 C268 1.242 . S
C268 O266 1.258 . S
C268 O267 1.242 . S
O269 Eu256 2.418 . S
O269 C273 1.244 1_556 S
O270 Eu257 2.488 . S
O270 C286 1.249 1_655 S
O271 Eu257 2.471 1_455 S
O271 C286 1.244 . S
O272 Eu257 2.349 1_455 S
O272 C273 1.265 . S
C273 O269 1.244 1_554 S
C273 O272 1.265 . S
O274 Eu256 2.373 1_655 S
O274 C287 1.258 . S
O275 Eu257 2.392 . S
O275 C287 1.242 1_554 S
O276 Eu257 2.418 . S
O276 C258 1.244 1_554 S
O277 Eu256 2.488 . S
O277 C265 1.255 . S
O278 Eu256 2.471 1_655 S
O278 C265 1.243 1_655 S
O279 Eu256 2.349 1_655 S
O279 C258 1.265 . S
C280 C281 1.379 . S
C280 C284 1.373 1_455 S
C280 C286 1.505 . S
C281 C280 1.379 . S
C281 C283 1.369 . S
C281 H292 0.930 . S
C282 C284 1.383 1_455 S
C282 C285 1.382 . S
C282 H293 0.930 1_455 S
C283 C281 1.369 . S
C283 C285 1.392 . S
C283 H294 0.930 . S
C284 C280 1.373 1_655 S
C284 C282 1.383 1_655 S
C284 H295 0.931 . S
C285 C282 1.382 . S
C285 C283 1.392 . S
C286 Eu257 2.828 1_455 S
C286 O270 1.249 1_455 S
C286 O271 1.244 . S
C286 C280 1.505 . S
C287 O274 1.258 . S
C287 O275 1.242 1_556 S
H288 C260 0.930 . S
H289 C261 0.930 1_455 S
H290 C262 0.930 . S
H291 C263 0.931 . S
H292 C281 0.930 . S
H293 C282 0.930 1_655 S
H294 C283 0.930 . S
H295 C284 0.931 . S
Eu296 C305 2.828 . S
Eu296 O307 2.392 . S
Eu296 O309 2.418 . S
Eu296 O314 2.373 . S
Eu296 O317 2.488 . S
Eu296 O318 2.471 . S
Eu296 O319 2.349 . S
Eu297 O306 2.373 . S
Eu297 O310 2.488 . S
Eu297 O311 2.471 . S
Eu297 O312 2.349 . S
Eu297 O315 2.392 1_556 S
Eu297 O316 2.418 . S
Eu297 C326 2.828 . S
C298 O316 1.244 1_554 S
C298 O319 1.265 . S
C299 C300 1.379 . S
C299 C303 1.373 . S
C299 C305 1.505 . S
C300 C299 1.379 . S
C300 C302 1.369 . S
C300 H328 0.930 . S
C301 C303 1.383 . S
C301 C304 1.382 . S
C301 H329 0.930 . S
C302 C300 1.369 . S
C302 C304 1.392 . S
C302 H330 0.930 . S
C303 C299 1.373 . S
C303 C301 1.383 . S
C303 H331 0.931 . S
C304 C301 1.382 . S
C304 C302 1.392 . S
C305 Eu296 2.828 . S
C305 C299 1.505 . S
C305 O317 1.249 . S
C305 O318 1.244 . S
O306 Eu297 2.373 . S
O306 C308 1.258 . S
O307 Eu296 2.392 . S
O307 C308 1.242 1_554 S
C308 O306 1.258 . S
C308 O307 1.242 1_556 S
O309 Eu296 2.418 . S
O309 C313 1.244 . S
O310 Eu297 2.488 . S
O310 C326 1.249 . S
O311 Eu297 2.471 . S
O311 C326 1.244 . S
O312 Eu297 2.349 . S
O312 C313 1.265 1_556 S
C313 O309 1.244 . S
C313 O312 1.265 1_554 S
O314 Eu296 2.373 . S
O314 C327 1.258 . S
O315 Eu297 2.392 1_554 S
O315 C327 1.242 . S
O316 Eu297 2.418 . S
O316 C298 1.244 1_556 S
O317 Eu296 2.488 . S
O317 C305 1.249 . S
O318 Eu296 2.471 . S
O318 C305 1.244 . S
O319 Eu296 2.349 . S
O319 C298 1.265 . S
C320 C321 1.379 . S
C320 C324 1.373 . S
C320 C326 1.505 . S
C321 C320 1.379 . S
C321 C323 1.369 . S
C321 H332 0.930 . S
C322 C324 1.383 . S
C322 C325 1.382 . S
C322 H333 0.930 . S
C323 C321 1.369 . S
C323 C325 1.392 . S
C323 H334 0.930 . S
C324 C320 1.373 . S
C324 C322 1.383 . S
C324 H335 0.931 . S
C325 C322 1.382 . S
C325 C323 1.392 . S
C326 Eu297 2.828 . S
C326 O310 1.249 . S
C326 O311 1.244 . S
C326 C320 1.505 . S
C327 O314 1.258 . S
C327 O315 1.242 . S
H328 C300 0.930 . S
H329 C301 0.930 . S
H330 C302 0.930 . S
H331 C303 0.931 . S
H332 C321 0.930 . S
H333 C322 0.930 . S
H334 C323 0.930 . S
H335 C324 0.931 . S
Eu336 C345 2.828 . S
Eu336 O347 2.392 . S
Eu336 O349 2.418 . S
Eu336 O354 2.373 . S
Eu336 O357 2.488 . S
Eu336 O358 2.471 . S
Eu336 O359 2.349 . S
Eu337 O346 2.373 . S
Eu337 O350 2.488 . S
Eu337 O351 2.471 . S
Eu337 O352 2.349 . S
Eu337 O355 2.392 . S
Eu337 O356 2.418 . S
Eu337 C366 2.828 . S
C338 O356 1.244 . S
C338 O359 1.265 . S
C339 C340 1.379 . S
C339 C343 1.373 . S
C339 C345 1.505 . S
C340 C339 1.379 . S
C340 C342 1.369 . S
C340 H368 0.930 . S
C341 C343 1.383 . S
C341 C344 1.382 . S
C341 H369 0.930 . S
C342 C340 1.369 . S
C342 C344 1.392 . S
C342 H370 0.930 . S
C343 C339 1.373 . S
C343 C341 1.383 . S
C343 H371 0.931 . S
C344 C341 1.382 . S
C344 C342 1.392 . S
C345 Eu336 2.828 . S
C345 C339 1.505 . S
C345 O357 1.249 . S
C345 O358 1.244 . S
O346 Eu337 2.373 . S
O346 C348 1.258 . S
O347 Eu336 2.392 . S
O347 C348 1.242 . S
C348 O346 1.258 . S
C348 O347 1.242 . S
O349 Eu336 2.418 . S
O349 C353 1.244 . S
O350 Eu337 2.488 . S
O350 C366 1.249 . S
O351 Eu337 2.471 . S
O351 C366 1.244 . S
O352 Eu337 2.349 . S
O352 C353 1.265 . S
C353 O349 1.244 . S
C353 O352 1.265 . S
O354 Eu336 2.373 . S
O354 C367 1.258 . S
O355 Eu337 2.392 . S
O355 C367 1.242 . S
O356 Eu337 2.418 . S
O356 C338 1.244 . S
O357 Eu336 2.488 . S
O357 C345 1.249 . S
O358 Eu336 2.471 . S
O358 C345 1.244 . S
O359 Eu336 2.349 . S
O359 C338 1.265 . S
C360 C361 1.379 . S
C360 C364 1.373 . S
C360 C366 1.505 . S
C361 C360 1.379 . S
C361 C363 1.369 . S
C361 H372 0.930 . S
C362 C364 1.383 . S
C362 C365 1.382 . S
C362 H373 0.930 . S
C363 C361 1.369 . S
C363 C365 1.392 . S
C363 H374 0.930 . S
C364 C360 1.373 . S
C364 C362 1.383 . S
C364 H375 0.931 . S
C365 C362 1.382 . S
C365 C363 1.392 . S
C366 Eu337 2.828 . S
C366 O350 1.249 . S
C366 O351 1.244 . S
C366 C360 1.505 . S
C367 O354 1.258 . S
C367 O355 1.242 . S
H368 C340 0.930 . S
H369 C341 0.930 . S
H370 C342 0.930 . S
H371 C343 0.931 . S
H372 C361 0.930 . S
H373 C362 0.930 . S
H374 C363 0.930 . S
H375 C364 0.931 . S
Eu376 C385 2.828 . S
Eu376 O387 2.392 . S
Eu376 O389 2.418 . S
Eu376 O394 2.373 . S
Eu376 O397 2.488 . S
Eu376 O398 2.471 . S
Eu376 O399 2.349 . S
Eu377 O386 2.373 . S
Eu377 O390 2.488 . S
Eu377 O391 2.471 . S
Eu377 O392 2.349 . S
Eu377 O395 2.392 . S
Eu377 O396 2.418 . S
Eu377 C406 2.828 . S
C378 O396 1.244 . S
C378 O399 1.265 . S
C379 C380 1.379 . S
C379 C383 1.373 . S
C379 C385 1.505 . S
C380 C379 1.379 . S
C380 C382 1.369 . S
C380 H408 0.930 . S
C381 C383 1.383 . S
C381 C384 1.382 . S
C381 H409 0.930 . S
C382 C380 1.369 . S
C382 C384 1.392 . S
C382 H410 0.930 . S
C383 C379 1.373 . S
C383 C381 1.383 . S
C383 H411 0.931 . S
C384 C381 1.382 . S
C384 C382 1.392 . S
C385 Eu376 2.828 . S
C385 C379 1.505 . S
C385 O397 1.249 . S
C385 O398 1.244 . S
O386 Eu377 2.373 . S
O386 C388 1.258 . S
O387 Eu376 2.392 . S
O387 C388 1.242 . S
C388 O386 1.258 . S
C388 O387 1.242 . S
O389 Eu376 2.418 . S
O389 C393 1.244 . S
O390 Eu377 2.488 . S
O390 C406 1.249 . S
O391 Eu377 2.471 . S
O391 C406 1.244 . S
O392 Eu377 2.349 . S
O392 C393 1.265 . S
C393 O389 1.244 . S
C393 O392 1.265 . S
O394 Eu376 2.373 . S
O394 C407 1.258 . S
O395 Eu377 2.392 . S
O395 C407 1.242 . S
O396 Eu377 2.418 . S
O396 C378 1.244 . S
O397 Eu376 2.488 . S
O397 C385 1.249 . S
O398 Eu376 2.471 . S
O398 C385 1.244 . S
O399 Eu376 2.349 . S
O399 C378 1.265 . S
C400 C401 1.379 . S
C400 C404 1.373 . S
C400 C406 1.505 . S
C401 C400 1.379 . S
C401 C403 1.369 . S
C401 H412 0.930 . S
C402 C404 1.383 . S
C402 C405 1.382 . S
C402 H413 0.930 . S
C403 C401 1.369 . S
C403 C405 1.392 . S
C403 H414 0.930 . S
C404 C400 1.373 . S
C404 C402 1.383 . S
C404 H415 0.931 . S
C405 C402 1.382 . S
C405 C403 1.392 . S
C406 Eu377 2.828 . S
C406 O390 1.249 . S
C406 O391 1.244 . S
C406 C400 1.505 . S
C407 O394 1.258 . S
C407 O395 1.242 . S
H408 C380 0.930 . S
H409 C381 0.930 . S
H410 C382 0.930 . S
H411 C383 0.931 . S
H412 C401 0.930 . S
H413 C402 0.930 . S
H414 C403 0.930 . S
H415 C404 0.931 . S
Eu416 C425 2.828 . S
Eu416 O427 2.392 . S
Eu416 O429 2.418 . S
Eu416 O434 2.373 . S
Eu416 O437 2.488 . S
Eu416 O438 2.471 . S
Eu416 O439 2.349 . S
Eu417 O426 2.373 . S
Eu417 O430 2.488 . S
Eu417 O431 2.471 . S
Eu417 O432 2.349 . S
Eu417 O435 2.392 . S
Eu417 O436 2.418 . S
Eu417 C446 2.828 . S
C418 O436 1.244 . S
C418 O439 1.265 . S
C419 C420 1.379 . S
C419 C423 1.373 . S
C419 C425 1.505 . S
C420 C419 1.379 . S
C420 C422 1.369 . S
C420 H448 0.930 . S
C421 C423 1.383 . S
C421 C424 1.382 . S
C421 H449 0.930 . S
C422 C420 1.369 . S
C422 C424 1.392 . S
C422 H450 0.930 . S
C423 C419 1.373 . S
C423 C421 1.383 . S
C423 H451 0.931 . S
C424 C421 1.382 . S
C424 C422 1.392 . S
C425 Eu416 2.828 . S
C425 C419 1.505 . S
C425 O437 1.249 . S
C425 O438 1.244 . S
O426 Eu417 2.373 . S
O426 C428 1.258 . S
O427 Eu416 2.392 . S
O427 C428 1.242 . S
C428 O426 1.258 . S
C428 O427 1.242 . S
O429 Eu416 2.418 . S
O429 C433 1.244 . S
O430 Eu417 2.488 . S
O430 C446 1.249 . S
O431 Eu417 2.471 . S
O431 C446 1.244 . S
O432 Eu417 2.349 . S
O432 C433 1.265 . S
C433 O429 1.244 . S
C433 O432 1.265 . S
O434 Eu416 2.373 . S
O434 C447 1.258 . S
O435 Eu417 2.392 . S
O435 C447 1.242 . S
O436 Eu417 2.418 . S
O436 C418 1.244 . S
O437 Eu416 2.488 . S
O437 C425 1.249 . S
O438 Eu416 2.471 . S
O438 C425 1.244 . S
O439 Eu416 2.349 . S
O439 C418 1.265 . S
C440 C441 1.379 . S
C440 C444 1.373 . S
C440 C446 1.505 . S
C441 C440 1.379 . S
C441 C443 1.369 . S
C441 H452 0.930 . S
C442 C444 1.383 . S
C442 C445 1.382 . S
C442 H453 0.930 . S
C443 C441 1.369 . S
C443 C445 1.392 . S
C443 H454 0.930 . S
C444 C440 1.373 . S
C444 C442 1.383 . S
C444 H455 0.931 . S
C445 C442 1.382 . S
C445 C443 1.392 . S
C446 Eu417 2.828 . S
C446 O430 1.249 . S
C446 O431 1.244 . S
C446 C440 1.505 . S
C447 O434 1.258 . S
C447 O435 1.242 . S
H448 C420 0.930 . S
H449 C421 0.930 . S
H450 C422 0.930 . S
H451 C423 0.931 . S
H452 C441 0.930 . S
H453 C442 0.930 . S
H454 C443 0.930 . S
H455 C444 0.931 . S
Eu456 C465 2.828 . S
Eu456 O467 2.392 . S
Eu456 O469 2.418 . S
Eu456 O474 2.373 . S
Eu456 O477 2.488 . S
Eu456 O478 2.471 . S
Eu456 O479 2.349 . S
Eu457 O466 2.373 . S
Eu457 O470 2.488 . S
Eu457 O471 2.471 . S
Eu457 O472 2.349 . S
Eu457 O475 2.392 . S
Eu457 O476 2.418 . S
Eu457 C486 2.828 . S
C458 O476 1.244 . S
C458 O479 1.265 . S
C459 C460 1.379 . S
C459 C463 1.373 . S
C459 C465 1.505 . S
C460 C459 1.379 . S
C460 C462 1.369 . S
C460 H488 0.930 . S
C461 C463 1.383 . S
C461 C464 1.382 . S
C461 H489 0.930 . S
C462 C460 1.369 . S
C462 C464 1.392 . S
C462 H490 0.930 . S
C463 C459 1.373 . S
C463 C461 1.383 . S
C463 H491 0.931 . S
C464 C461 1.382 . S
C464 C462 1.392 . S
C465 Eu456 2.828 . S
C465 C459 1.505 . S
C465 O477 1.249 . S
C465 O478 1.244 . S
O466 Eu457 2.373 . S
O466 C468 1.258 . S
O467 Eu456 2.392 . S
O467 C468 1.242 . S
C468 O466 1.258 . S
C468 O467 1.242 . S
O469 Eu456 2.418 . S
O469 C473 1.244 . S
O470 Eu457 2.488 . S
O470 C486 1.249 . S
O471 Eu457 2.471 . S
O471 C486 1.244 . S
O472 Eu457 2.349 . S
O472 C473 1.265 . S
C473 O469 1.244 . S
C473 O472 1.265 . S
O474 Eu456 2.373 . S
O474 C487 1.258 . S
O475 Eu457 2.392 . S
O475 C487 1.242 . S
O476 Eu457 2.418 . S
O476 C458 1.244 . S
O477 Eu456 2.488 . S
O477 C465 1.249 . S
O478 Eu456 2.471 . S
O478 C465 1.244 . S
O479 Eu456 2.349 . S
O479 C458 1.265 . S
C480 C481 1.379 . S
C480 C484 1.373 . S
C480 C486 1.505 . S
C481 C480 1.379 . S
C481 C483 1.369 . S
C481 H492 0.930 . S
C482 C484 1.383 . S
C482 C485 1.382 . S
C482 H493 0.930 . S
C483 C481 1.369 . S
C483 C485 1.392 . S
C483 H494 0.930 . S
C484 C480 1.373 . S
C484 C482 1.383 . S
C484 H495 0.931 . S
C485 C482 1.382 . S
C485 C483 1.392 . S
C486 Eu457 2.828 . S
C486 O470 1.249 . S
C486 O471 1.244 . S
C486 C480 1.505 . S
C487 O474 1.258 . S
C487 O475 1.242 . S
H488 C460 0.930 . S
H489 C461 0.930 . S
H490 C462 0.930 . S
H491 C463 0.931 . S
H492 C481 0.930 . S
H493 C482 0.930 . S
H494 C483 0.930 . S
H495 C484 0.931 . S
Eu496 C505 2.828 . S
Eu496 O507 2.392 . S
Eu496 O509 2.418 . S
Eu496 O514 2.373 . S
Eu496 O517 2.488 . S
Eu496 O518 2.471 . S
Eu496 O519 2.349 . S
Eu497 O506 2.373 . S
Eu497 O510 2.488 . S
Eu497 O511 2.471 . S
Eu497 O512 2.349 . S
Eu497 O515 2.392 . S
Eu497 O516 2.418 . S
Eu497 C526 2.828 . S
C498 O516 1.244 . S
C498 O519 1.265 . S
C499 C500 1.379 . S
C499 C503 1.373 . S
C499 C505 1.505 . S
C500 C499 1.379 . S
C500 C502 1.369 . S
C500 H528 0.930 . S
C501 C503 1.383 . S
C501 C504 1.382 . S
C501 H529 0.930 . S
C502 C500 1.369 . S
C502 C504 1.392 . S
C502 H530 0.930 . S
C503 C499 1.373 . S
C503 C501 1.383 . S
C503 H531 0.931 . S
C504 C501 1.382 . S
C504 C502 1.392 . S
C505 Eu496 2.828 . S
C505 C499 1.505 . S
C505 O517 1.249 . S
C505 O518 1.244 . S
O506 Eu497 2.373 . S
O506 C508 1.258 . S
O507 Eu496 2.392 . S
O507 C508 1.242 . S
C508 O506 1.258 . S
C508 O507 1.242 . S
O509 Eu496 2.418 . S
O509 C513 1.244 . S
O510 Eu497 2.488 . S
O510 C526 1.249 . S
O511 Eu497 2.471 . S
O511 C526 1.244 . S
O512 Eu497 2.349 . S
O512 C513 1.265 . S
C513 O509 1.244 . S
C513 O512 1.265 . S
O514 Eu496 2.373 . S
O514 C527 1.258 . S
O515 Eu497 2.392 . S
O515 C527 1.242 . S
O516 Eu497 2.418 . S
O516 C498 1.244 . S
O517 Eu496 2.488 . S
O517 C505 1.249 . S
O518 Eu496 2.471 . S
O518 C505 1.244 . S
O519 Eu496 2.349 . S
O519 C498 1.265 . S
C520 C521 1.379 . S
C520 C524 1.373 . S
C520 C526 1.505 . S
C521 C520 1.379 . S
C521 C523 1.369 . S
C521 H532 0.930 . S
C522 C524 1.383 . S
C522 C525 1.382 . S
C522 H533 0.930 . S
C523 C521 1.369 . S
C523 C525 1.392 . S
C523 H534 0.930 . S
C524 C520 1.373 . S
C524 C522 1.383 . S
C524 H535 0.931 . S
C525 C522 1.382 . S
C525 C523 1.392 . S
C526 Eu497 2.828 . S
C526 O510 1.249 . S
C526 O511 1.244 . S
C526 C520 1.505 . S
C527 O514 1.258 . S
C527 O515 1.242 . S
H528 C500 0.930 . S
H529 C501 0.930 . S
H530 C502 0.930 . S
H531 C503 0.931 . S
H532 C521 0.930 . S
H533 C522 0.930 . S
H534 C523 0.930 . S
H535 C524 0.931 . S
Eu536 C545 2.828 . S
Eu536 O547 2.392 . S
Eu536 O549 2.418 . S
Eu536 O554 2.373 . S
Eu536 O557 2.488 . S
Eu536 O558 2.471 . S
Eu536 O559 2.349 . S
Eu537 O546 2.373 . S
Eu537 O550 2.488 . S
Eu537 O551 2.471 . S
Eu537 O552 2.349 . S
Eu537 O555 2.392 . S
Eu537 O556 2.418 . S
Eu537 C566 2.828 . S
C538 O556 1.244 . S
C538 O559 1.265 . S
C539 C540 1.379 . S
C539 C543 1.373 . S
C539 C545 1.505 . S
C540 C539 1.379 . S
C540 C542 1.369 . S
C540 H568 0.930 . S
C541 C543 1.383 . S
C541 C544 1.382 . S
C541 H569 0.930 . S
C542 C540 1.369 . S
C542 C544 1.392 . S
C542 H570 0.930 . S
C543 C539 1.373 . S
C543 C541 1.383 . S
C543 H571 0.931 . S
C544 C541 1.382 . S
C544 C542 1.392 . S
C545 Eu536 2.828 . S
C545 C539 1.505 . S
C545 O557 1.249 . S
C545 O558 1.244 . S
O546 Eu537 2.373 . S
O546 C548 1.258 . S
O547 Eu536 2.392 . S
O547 C548 1.242 . S
C548 O546 1.258 . S
C548 O547 1.242 . S
O549 Eu536 2.418 . S
O549 C553 1.244 . S
O550 Eu537 2.488 . S
O550 C566 1.249 . S
O551 Eu537 2.471 . S
O551 C566 1.244 . S
O552 Eu537 2.349 . S
O552 C553 1.265 . S
C553 O549 1.244 . S
C553 O552 1.265 . S
O554 Eu536 2.373 . S
O554 C567 1.258 . S
O555 Eu537 2.392 . S
O555 C567 1.242 . S
O556 Eu537 2.418 . S
O556 C538 1.244 . S
O557 Eu536 2.488 . S
O557 C545 1.249 . S
O558 Eu536 2.471 . S
O558 C545 1.244 . S
O559 Eu536 2.349 . S
O559 C538 1.265 . S
C560 C561 1.379 . S
C560 C564 1.373 . S
C560 C566 1.505 . S
C561 C560 1.379 . S
C561 C563 1.369 . S
C561 H572 0.930 . S
C562 C564 1.383 . S
C562 C565 1.382 . S
C562 H573 0.930 . S
C563 C561 1.369 . S
C563 C565 1.392 . S
C563 H574 0.930 . S
C564 C560 1.373 . S
C564 C562 1.383 . S
C564 H575 0.931 . S
C565 C562 1.382 . S
C565 C563 1.392 . S
C566 Eu537 2.828 . S
C566 O550 1.249 . S
C566 O551 1.244 . S
C566 C560 1.505 . S
C567 O554 1.258 . S
C567 O555 1.242 . S
H568 C540 0.930 . S
H569 C541 0.930 . S
H570 C542 0.930 . S
H571 C543 0.931 . S
H572 C561 0.930 . S
H573 C562 0.930 . S
H574 C563 0.930 . S
H575 C564 0.931 . S
C576 C577 1.369 . S
C576 C578 1.419 . S
C576 H580 0.930 . S
C577 C576 1.369 . S
C577 C586 1.429 . S
C578 C576 1.419 . S
C578 C579 1.363 . S
C578 H581 0.929 . S
C579 C578 1.363 . S
C579 C585 1.428 . S
H580 C576 0.930 . S
H581 C578 0.929 . S
S582 N583 1.613 . S
S582 N584 1.610 . S
N583 S582 1.613 . S
N583 C586 1.350 . S
N584 S582 1.610 . S
N584 C585 1.351 . S
C585 C579 1.428 . S
C585 N584 1.351 . S
C585 C586 1.434 . S
C586 C577 1.429 . S
C586 N583 1.350 . S
C586 C585 1.434 . S
C587 C588 1.369 . S
C587 C589 1.419 . S
C587 H591 0.930 . S
C588 C587 1.369 . S
C588 C597 1.429 . S
C589 C587 1.419 . S
C589 C590 1.363 . S
C589 H592 0.929 . S
C590 C589 1.363 . S
C590 C596 1.428 . S
H591 C587 0.930 . S
H592 C589 0.929 . S
S593 N594 1.613 . S
S593 N595 1.610 . S
N594 S593 1.613 . S
N594 C597 1.350 . S
N595 S593 1.610 . S
N595 C596 1.351 . S
C596 C590 1.428 . S
C596 N595 1.351 . S
C596 C597 1.434 . S
C597 C588 1.429 . S
C597 N594 1.350 . S
C597 C596 1.434 . S
C598 C599 1.369 . S
C598 C600 1.420 . S
C598 H602 0.930 1_554 S
C599 C598 1.369 . S
C599 C608 1.429 . S
C600 C598 1.420 . S
C600 C601 1.387 . S
C600 H603 0.903 1_554 S
C601 C600 1.387 . S
C601 C607 1.428 . S
H602 C598 0.930 1_556 S
H603 C600 0.903 1_556 S
S604 N605 1.613 . S
S604 N606 1.610 . S
N605 S604 1.613 . S
N605 C608 1.350 . S
N606 S604 1.610 . S
N606 C607 1.351 . S
C607 C601 1.428 . S
C607 N606 1.351 . S
C607 C608 1.434 . S
C608 C599 1.429 . S
C608 N605 1.350 . S
C608 C607 1.434 . S
C609 C610 1.369 . S
C609 C611 1.419 . S
C609 H613 0.955 . S
C610 C609 1.369 . S
C610 C619 1.429 . S
C611 C609 1.419 . S
C611 C612 1.363 . S
C611 H614 0.929 1_556 S
C612 C611 1.363 . S
C612 C618 1.428 . S
H613 C609 0.955 . S
H614 C611 0.929 1_554 S
S615 N616 1.613 . S
S615 N617 1.610 . S
N616 S615 1.613 . S
N616 C619 1.350 . S
N617 S615 1.610 . S
N617 C618 1.351 . S
C618 C612 1.428 . S
C618 N617 1.351 . S
C618 C619 1.434 . S
C619 C610 1.429 . S
C619 N616 1.350 . S
C619 C618 1.434 . S
C620 C621 1.369 . S
C620 C622 1.419 . S
C620 H624 0.930 . S
C621 C620 1.369 . S
C621 C630 1.429 . S
C622 C620 1.419 . S
C622 C623 1.363 . S
C622 H625 0.929 . S
C623 C622 1.363 . S
C623 C629 1.428 . S
H624 C620 0.930 . S
H625 C622 0.929 . S
S626 N627 1.613 1_554 S
S626 N628 1.610 . S
N627 S626 1.613 1_556 S
N627 C630 1.350 . S
N628 S626 1.610 . S
N628 C629 1.351 1_554 S
C629 C623 1.428 . S
C629 N628 1.351 1_556 S
C629 C630 1.434 . S
C630 C621 1.429 . S
C630 N627 1.350 . S
C630 C629 1.434 . S
C631 C632 1.369 . S
C631 C633 1.421 . S
C631 H635 0.935 . S
C632 C631 1.369 . S
C632 C641 1.429 . S
C633 C631 1.421 . S
C633 C634 1.365 . S
C633 H636 0.925 1_556 S
C634 C633 1.365 . S
C634 C640 1.428 . S
H635 C631 0.935 . S
H636 C633 0.925 1_554 S
S637 N638 1.613 . S
S637 N639 1.610 . S
N638 S637 1.613 . S
N638 C641 1.350 . S
N639 S637 1.610 . S
N639 C640 1.351 . S
C640 C634 1.428 . S
C640 N639 1.351 . S
C640 C641 1.434 . S
C641 C632 1.429 . S
C641 N638 1.350 . S
C641 C640 1.434 . S
C642 C643 1.369 . S
C642 C644 1.419 . S
C642 H646 0.930 . S
C643 C642 1.369 . S
C643 C652 1.429 . S
C644 C642 1.419 . S
C644 C645 1.363 . S
C644 H647 0.929 . S
C645 C644 1.363 . S
C645 C651 1.428 . S
H646 C642 0.930 . S
H647 C644 0.929 . S
S648 N649 1.613 . S
S648 N650 1.610 . S
N649 S648 1.613 . S
N649 C652 1.350 . S
N650 S648 1.610 . S
N650 C651 1.351 . S
C651 C645 1.428 . S
C651 N650 1.351 . S
C651 C652 1.434 . S
C652 C643 1.429 . S
C652 N649 1.350 . S
C652 C651 1.434 . S
C653 C654 1.369 . S
C653 C655 1.419 . S
C653 H657 0.930 . S
C654 C653 1.369 . S
C654 C663 1.429 . S
C655 C653 1.419 . S
C655 C656 1.363 . S
C655 H658 0.929 . S
C656 C655 1.363 . S
C656 C662 1.428 . S
H657 C653 0.930 . S
H658 C655 0.929 . S
S659 N660 1.613 . S
S659 N661 1.610 . S
N660 S659 1.613 . S
N660 C663 1.350 . S
N661 S659 1.610 . S
N661 C662 1.351 . S
C662 C656 1.428 . S
C662 N661 1.351 . S
C662 C663 1.434 . S
C663 C654 1.429 . S
C663 N660 1.350 . S
C663 C662 1.434 . S
C664 C665 1.369 1_554 S
C664 C666 1.419 . S
C664 H668 0.930 . S
C665 C664 1.369 1_556 S
C665 C674 1.429 . S
C666 C664 1.419 . S
C666 C667 1.363 1_554 S
C666 H669 0.929 . S
C667 C666 1.363 1_556 S
C667 C673 1.428 . S
H668 C664 0.930 . S
H669 C666 0.929 . S
S670 N671 1.613 . S
S670 N672 1.610 . S
N671 S670 1.613 . S
N671 C674 1.350 . S
N672 S670 1.610 . S
N672 C673 1.351 . S
C673 C667 1.428 . S
C673 N672 1.351 . S
C673 C674 1.434 . S
C674 C665 1.429 . S
C674 N671 1.350 . S
C674 C673 1.434 . S
C675 C676 1.369 . S
C675 C677 1.419 . S
C675 H679 0.930 . S
C676 C675 1.369 . S
C676 C685 1.429 . S
C677 C675 1.419 . S
C677 C678 1.363 . S
C677 H680 0.929 . S
C678 C677 1.363 . S
C678 C684 1.428 . S
H679 C675 0.930 . S
H680 C677 0.929 . S
S681 N682 1.613 . S
S681 N683 1.610 . S
N682 S681 1.613 . S
N682 C685 1.350 . S
N683 S681 1.610 . S
N683 C684 1.351 . S
C684 C678 1.428 . S
C684 N683 1.351 . S
C684 C685 1.434 . S
C685 C676 1.429 . S
C685 N682 1.350 . S
C685 C684 1.434 . S
C686 C687 1.369 . S
C686 C688 1.419 . S
C686 H690 0.930 . S
C687 C686 1.369 . S
C687 C696 1.429 . S
C688 C686 1.419 . S
C688 C689 1.363 . S
C688 H691 0.929 . S
C689 C688 1.363 . S
C689 C695 1.428 . S
H690 C686 0.930 . S
H691 C688 0.929 . S
S692 N693 1.613 . S
S692 N694 1.610 . S
N693 S692 1.613 . S
N693 C696 1.350 . S
N694 S692 1.610 . S
N694 C695 1.351 . S
C695 C689 1.428 . S
C695 N694 1.351 . S
C695 C696 1.434 . S
C696 C687 1.429 . S
C696 N693 1.350 . S
C696 C695 1.434 . S
C697 C698 1.369 . S
C697 C699 1.419 . S
C697 H701 0.930 . S
C698 C697 1.369 . S
C698 C707 1.429 . S
C699 C697 1.419 . S
C699 C700 1.363 . S
C699 H702 0.929 . S
C700 C699 1.363 . S
C700 C706 1.428 . S
H701 C697 0.930 . S
H702 C699 0.929 . S
S703 N704 1.633 . S
S703 N705 1.610 . S
N704 S703 1.633 . S
N704 C707 1.332 1_556 S
N705 S703 1.610 . S
N705 C706 1.351 1_556 S
C706 C700 1.428 . S
C706 N705 1.351 1_554 S
C706 C707 1.434 . S
C707 C698 1.429 . S
C707 N704 1.332 1_554 S
C707 C706 1.434 . S
C708 C709 1.369 . S
C708 C710 1.419 . S
C708 H712 0.930 . S
C709 C708 1.369 . S
C709 C718 1.429 . S
C710 C708 1.419 . S
C710 C711 1.363 1_655 S
C710 H713 0.929 . S
C711 C710 1.363 1_455 S
C711 C717 1.428 . S
H712 C708 0.930 . S
H713 C710 0.929 . S
S714 N715 1.613 1_455 S
S714 N716 1.610 . S
N715 S714 1.613 1_655 S
N715 C718 1.350 . S
N716 S714 1.610 . S
N716 C717 1.351 . S
C717 C711 1.428 . S
C717 N716 1.351 . S
C717 C718 1.434 1_455 S
C718 C709 1.429 . S
C718 N715 1.350 . S
C718 C717 1.434 1_655 S
C719 C720 1.369 . S
C719 C721 1.419 . S
C719 H723 0.930 . S
C720 C719 1.369 . S
C720 C729 1.429 . S
C721 C719 1.419 . S
C721 C722 1.363 . S
C721 H724 0.929 . S
C722 C721 1.363 . S
C722 C728 1.428 . S
H723 C719 0.930 . S
H724 C721 0.929 . S
S725 N726 1.613 . S
S725 N727 1.610 . S
N726 S725 1.613 . S
N726 C729 1.350 . S
N727 S725 1.610 . S
N727 C728 1.351 . S
C728 C722 1.428 . S
C728 N727 1.351 . S
C728 C729 1.434 . S
C729 C720 1.429 . S
C729 N726 1.350 . S
C729 C728 1.434 . S
C730 C731 1.369 . S
C730 C732 1.419 . S
C730 H734 0.930 . S
C731 C730 1.369 . S
C731 C740 1.429 . S
C732 C730 1.419 . S
C732 C733 1.363 1_545 S
C732 H735 0.929 . S
C733 C732 1.363 1_565 S
C733 C739 1.428 1_565 S
H734 C730 0.930 . S
H735 C732 0.929 . S
S736 N737 1.613 . S
S736 N738 1.610 1_545 S
N737 S736 1.613 . S
N737 C740 1.350 . S
N738 S736 1.610 1_565 S
N738 C739 1.351 1_565 S
C739 C733 1.428 1_545 S
C739 N738 1.351 1_545 S
C739 C740 1.434 . S
C740 C731 1.429 . S
C740 N737 1.350 . S
C740 C739 1.434 . S
C741 C742 1.369 . S
C741 C743 1.419 . S
C741 H745 0.930 . S
C742 C741 1.369 . S
C742 C751 1.429 . S
C743 C741 1.419 . S
C743 C744 1.363 . S
C743 H746 0.929 . S
C744 C743 1.363 . S
C744 C750 1.428 . S
H745 C741 0.930 . S
H746 C743 0.929 . S
S747 N748 1.613 . S
S747 N749 1.610 . S
N748 S747 1.613 . S
N748 C751 1.350 . S
N749 S747 1.610 . S
N749 C750 1.351 . S
C750 C744 1.428 . S
C750 N749 1.351 . S
C750 C751 1.434 . S
C751 C742 1.429 . S
C751 N748 1.350 . S
C751 C750 1.434 . S
C752 C753 1.369 . S
C752 C754 1.419 . S
C752 H756 0.930 . S
C753 C752 1.369 . S
C753 C762 1.429 . S
C754 C752 1.419 . S
C754 C755 1.363 . S
C754 H757 0.929 . S
C755 C754 1.363 . S
C755 C761 1.428 . S
H756 C752 0.930 . S
H757 C754 0.929 . S
S758 N759 1.613 . S
S758 N760 1.610 . S
N759 S758 1.613 . S
N759 C762 1.350 . S
N760 S758 1.610 . S
N760 C761 1.351 . S
C761 C755 1.428 . S
C761 N760 1.351 . S
C761 C762 1.434 . S
C762 C753 1.429 . S
C762 N759 1.350 . S
C762 C761 1.434 . S
C763 C764 1.369 . S
C763 C765 1.419 . S
C763 H767 0.930 . S
C764 C763 1.369 . S
C764 C773 1.429 . S
C765 C763 1.419 . S
C765 C766 1.363 . S
C765 H768 0.929 . S
C766 C765 1.363 . S
C766 C772 1.428 . S
H767 C763 0.930 . S
H768 C765 0.929 . S
S769 N770 1.613 . S
S769 N771 1.610 . S
N770 S769 1.613 . S
N770 C773 1.350 . S
N771 S769 1.610 . S
N771 C772 1.351 . S
C772 C766 1.428 . S
C772 N771 1.351 . S
C772 C773 1.434 . S
C773 C764 1.429 . S
C773 N770 1.350 . S
C773 C772 1.434 . S
C774 C775 1.369 . S
C774 C776 1.419 . S
C774 H778 0.930 . S
C775 C774 1.369 . S
C775 C784 1.429 . S
C776 C774 1.419 . S
C776 C777 1.363 . S
C776 H779 0.929 . S
C777 C776 1.363 . S
C777 C783 1.428 . S
H778 C774 0.930 . S
H779 C776 0.929 . S
S780 N781 1.613 . S
S780 N782 1.610 . S
N781 S780 1.613 . S
N781 C784 1.350 . S
N782 S780 1.610 . S
N782 C783 1.351 . S
C783 C777 1.428 . S
C783 N782 1.351 . S
C783 C784 1.434 . S
C784 C775 1.429 . S
C784 N781 1.350 . S
C784 C783 1.434 . S
C785 C786 1.369 . S
C785 C787 1.419 . S
C785 H789 0.930 . S
C786 C785 1.369 . S
C786 C795 1.429 . S
C787 C785 1.419 . S
C787 C788 1.363 . S
C787 H790 0.929 . S
C788 C787 1.363 . S
C788 C794 1.428 . S
H789 C785 0.930 . S
H790 C787 0.929 . S
S791 N792 1.613 . S
S791 N793 1.610 . S
N792 S791 1.613 . S
N792 C795 1.350 . S
N793 S791 1.610 . S
N793 C794 1.351 . S
C794 C788 1.428 . S
C794 N793 1.351 . S
C794 C795 1.434 . S
C795 C786 1.429 . S
C795 N792 1.350 . S
C795 C794 1.434 . S
C796 C797 1.369 . S
C796 C798 1.419 . S
C796 H800 0.930 . S
C797 C796 1.369 . S
C797 C806 1.429 . S
C798 C796 1.419 . S
C798 C799 1.363 . S
C798 H801 0.929 . S
C799 C798 1.363 . S
C799 C805 1.428 . S
H800 C796 0.930 . S
H801 C798 0.929 . S
S802 N803 1.613 . S
S802 N804 1.610 . S
N803 S802 1.613 . S
N803 C806 1.350 . S
N804 S802 1.610 . S
N804 C805 1.351 . S
C805 C799 1.428 . S
C805 N804 1.351 . S
C805 C806 1.434 . S
C806 C797 1.429 . S
C806 N803 1.350 . S
C806 C805 1.434 . S
C807 C808 1.369 1_565 S
C807 C809 1.419 . S
C807 H811 0.930 . S
C808 C807 1.369 1_545 S
C808 C817 1.429 1_545 S
C809 C807 1.419 . S
C809 C810 1.363 . S
C809 H812 0.929 . S
C810 C809 1.363 . S
C810 C816 1.428 . S
H811 C807 0.930 . S
H812 C809 0.929 . S
S813 N814 1.613 . S
S813 N815 1.610 . S
N814 S813 1.613 . S
N814 C817 1.350 . S
N815 S813 1.610 . S
N815 C816 1.351 . S
C816 C810 1.428 . S
C816 N815 1.351 . S
C816 C817 1.434 . S
C817 C808 1.429 1_565 S
C817 N814 1.350 . S
C817 C816 1.434 . S
C818 C819 1.369 . S
C818 C820 1.419 . S
C818 H822 0.930 . S
C819 C818 1.369 . S
C819 C828 1.429 . S
C820 C818 1.419 . S
C820 C821 1.363 . S
C820 H823 0.929 . S
C821 C820 1.363 . S
C821 C827 1.428 . S
H822 C818 0.930 . S
H823 C820 0.929 . S
S824 N825 1.613 . S
S824 N826 1.610 . S
N825 S824 1.613 . S
N825 C828 1.350 . S
N826 S824 1.610 . S
N826 C827 1.351 . S
C827 C821 1.428 . S
C827 N826 1.351 . S
C827 C828 1.434 . S
C828 C819 1.429 . S
C828 N825 1.350 . S
C828 C827 1.434 . S
C829 C830 1.369 . S
C829 C831 1.419 . S
C829 H833 0.930 . S
C830 C829 1.369 . S
C830 C839 1.429 . S
C831 C829 1.419 . S
C831 C832 1.363 . S
C831 H834 0.929 . S
C832 C831 1.363 . S
C832 C838 1.428 . S
H833 C829 0.930 . S
H834 C831 0.929 . S
S835 N836 1.613 . S
S835 N837 1.610 . S
N836 S835 1.613 . S
N836 C839 1.350 . S
N837 S835 1.610 . S
N837 C838 1.351 . S
C838 C832 1.428 . S
C838 N837 1.351 . S
C838 C839 1.434 . S
C839 C830 1.429 . S
C839 N836 1.350 . S
C839 C838 1.434 . S
C840 C841 1.369 . S
C840 C842 1.419 . S
C840 H844 0.930 . S
C841 C840 1.369 . S
C841 C850 1.429 . S
C842 C840 1.419 . S
C842 C843 1.363 . S
C842 H845 0.929 . S
C843 C842 1.363 . S
C843 C849 1.428 . S
H844 C840 0.930 . S
H845 C842 0.929 . S
S846 N847 1.613 . S
S846 N848 1.610 . S
N847 S846 1.613 . S
N847 C850 1.350 . S
N848 S846 1.610 . S
N848 C849 1.351 . S
C849 C843 1.428 . S
C849 N848 1.351 . S
C849 C850 1.434 . S
C850 C841 1.429 . S
C850 N847 1.350 . S
C850 C849 1.434 . S
C851 C852 1.369 . S
C851 C853 1.419 . S
C851 H855 0.930 . S
C852 C851 1.369 . S
C852 C861 1.429 . S
C853 C851 1.419 . S
C853 C854 1.363 . S
C853 H856 0.929 . S
C854 C853 1.363 . S
C854 C860 1.428 . S
H855 C851 0.930 . S
H856 C853 0.929 . S
S857 N858 1.613 . S
S857 N859 1.610 . S
N858 S857 1.613 . S
N858 C861 1.350 . S
N859 S857 1.610 . S
N859 C860 1.351 . S
C860 C854 1.428 . S
C860 N859 1.351 . S
C860 C861 1.434 . S
C861 C852 1.429 . S
C861 N858 1.350 . S
C861 C860 1.434 . S
C862 C863 1.369 . S
C862 C864 1.419 . S
C862 H866 0.930 . S
C863 C862 1.369 . S
C863 C872 1.429 . S
C864 C862 1.419 . S
C864 C865 1.363 . S
C864 H867 0.929 . S
C865 C864 1.363 . S
C865 C871 1.428 . S
H866 C862 0.930 . S
H867 C864 0.929 . S
S868 N869 1.613 . S
S868 N870 1.610 . S
N869 S868 1.613 . S
N869 C872 1.350 . S
N870 S868 1.610 . S
N870 C871 1.351 . S
C871 C865 1.428 . S
C871 N870 1.351 . S
C871 C872 1.434 . S
C872 C863 1.429 . S
C872 N869 1.350 . S
C872 C871 1.434 . S
C873 C874 1.369 . S
C873 C875 1.419 . S
C873 H877 0.930 . S
C874 C873 1.369 . S
C874 C883 1.429 . S
C875 C873 1.419 . S
C875 C876 1.363 1_565 S
C875 H878 0.930 . S
C876 C875 1.363 1_545 S
C876 C882 1.428 . S
H877 C873 0.930 . S
H878 C875 0.930 . S
S879 N880 1.613 1_545 S
S879 N881 1.610 . S
N880 S879 1.613 1_565 S
N880 C883 1.350 . S
N881 S879 1.610 . S
N881 C882 1.351 . S
C882 C876 1.428 . S
C882 N881 1.351 . S
C882 C883 1.434 1_545 S
C883 C874 1.429 . S
C883 N880 1.350 . S
C883 C882 1.434 1_565 S
C884 C885 1.369 . S
C884 C886 1.419 . S
C884 H888 0.930 . S
C885 C884 1.369 . S
C885 C894 1.429 . S
C886 C884 1.419 . S
C886 C887 1.363 1_455 S
C886 H889 0.929 . S
C887 C886 1.363 1_655 S
C887 C893 1.428 . S
H888 C884 0.930 . S
H889 C886 0.929 . S
S890 N891 1.613 1_655 S
S890 N892 1.610 . S
N891 S890 1.613 1_455 S
N891 C894 1.350 . S
N892 S890 1.610 . S
N892 C893 1.351 . S
C893 C887 1.428 . S
C893 N892 1.351 . S
C893 C894 1.434 1_655 S
C894 C885 1.429 . S
C894 N891 1.350 . S
C894 C893 1.434 1_455 S
C895 C896 1.369 . S
C895 C897 1.419 . S
C895 H899 0.930 . S
C896 C895 1.369 . S
C896 C905 1.429 . S
C897 C895 1.419 . S
C897 C898 1.363 . S
C897 H900 0.929 . S
C898 C897 1.363 . S
C898 C904 1.428 . S
H899 C895 0.930 . S
H900 C897 0.929 . S
S901 N902 1.613 . S
S901 N903 1.610 . S
N902 S901 1.613 . S
N902 C905 1.350 . S
N903 S901 1.610 . S
N903 C904 1.351 . S
C904 C898 1.428 . S
C904 N903 1.351 . S
C904 C905 1.434 . S
C905 C896 1.429 . S
C905 N902 1.350 . S
C905 C904 1.434 . S
C906 C907 1.382 . S
C906 C908 1.419 . S
C906 H910 0.930 . S
C907 C906 1.382 . S
C907 C916 1.433 . S
C908 C906 1.419 . S
C908 C909 1.363 . S
C908 H911 0.929 . S
C909 C908 1.363 . S
C909 C915 1.428 . S
H910 C906 0.930 . S
H911 C908 0.929 . S
S912 N913 1.613 1_655 S
S912 N914 1.610 . S
N913 S912 1.613 1_455 S
N913 C916 1.350 1_455 S
N914 S912 1.610 . S
N914 C915 1.351 . S
C915 C909 1.428 . S
C915 N914 1.351 . S
C915 C916 1.434 . S
C916 C907 1.433 . S
C916 N913 1.350 1_655 S
C916 C915 1.434 . S
C917 C918 1.369 . S
C917 C919 1.419 . S
C917 H921 0.930 . S
C918 C917 1.369 . S
C918 C927 1.429 . S
C919 C917 1.419 . S
C919 C920 1.363 . S
C919 H922 0.929 . S
C920 C919 1.363 . S
C920 C926 1.428 . S
H921 C917 0.930 . S
H922 C919 0.929 . S
S923 N924 1.613 . S
S923 N925 1.610 . S
N924 S923 1.613 . S
N924 C927 1.350 . S
N925 S923 1.610 . S
N925 C926 1.351 . S
C926 C920 1.428 . S
C926 N925 1.351 . S
C926 C927 1.434 . S
C927 C918 1.429 . S
C927 N924 1.350 . S
C927 C926 1.434 . S
C928 C929 1.369 . S
C928 C930 1.419 . S
C928 H932 0.930 . S
C929 C928 1.369 . S
C929 C938 1.429 . S
C930 C928 1.419 . S
C930 C931 1.363 . S
C930 H933 0.929 . S
C931 C930 1.363 . S
C931 C937 1.428 . S
H932 C928 0.930 . S
H933 C930 0.929 . S
S934 N935 1.613 . S
S934 N936 1.610 . S
N935 S934 1.613 . S
N935 C938 1.350 . S
N936 S934 1.610 . S
N936 C937 1.351 . S
C937 C931 1.428 . S
C937 N936 1.351 . S
C937 C938 1.434 . S
C938 C929 1.429 . S
C938 N935 1.350 . S
C938 C937 1.434 . S
C939 C940 1.369 . S
C939 C941 1.419 . S
C939 H943 0.930 . S
C940 C939 1.369 . S
C940 C949 1.429 . S
C941 C939 1.419 . S
C941 C942 1.363 . S
C941 H944 0.929 . S
C942 C941 1.363 . S
C942 C948 1.428 . S
H943 C939 0.930 . S
H944 C941 0.929 . S
S945 N946 1.613 . S
S945 N947 1.610 . S
N946 S945 1.613 . S
N946 C949 1.350 . S
N947 S945 1.610 . S
N947 C948 1.351 . S
C948 C942 1.428 . S
C948 N947 1.351 . S
C948 C949 1.434 . S
C949 C940 1.429 . S
C949 N946 1.350 . S
C949 C948 1.434 . S
C950 C951 1.369 . S
C950 C952 1.419 . S
C950 H954 0.930 . S
C951 C950 1.369 . S
C951 C960 1.429 . S
C952 C950 1.419 . S
C952 C953 1.363 . S
C952 H955 0.929 . S
C953 C952 1.363 . S
C953 C959 1.428 . S
H954 C950 0.930 . S
H955 C952 0.929 . S
S956 N957 1.613 . S
S956 N958 1.610 . S
N957 S956 1.613 . S
N957 C960 1.350 . S
N958 S956 1.610 . S
N958 C959 1.351 . S
C959 C953 1.428 . S
C959 N958 1.351 . S
C959 C960 1.434 . S
C960 C951 1.429 . S
C960 N957 1.350 . S
C960 C959 1.434 . S
C961 C962 1.369 . S
C961 C963 1.419 . S
C961 H965 0.930 . S
C962 C961 1.369 . S
C962 C971 1.429 . S
C963 C961 1.419 . S
C963 C964 1.363 . S
C963 H966 0.929 . S
C964 C963 1.363 . S
C964 C970 1.428 . S
H965 C961 0.930 . S
H966 C963 0.929 . S
S967 N968 1.613 . S
S967 N969 1.610 . S
N968 S967 1.613 . S
N968 C971 1.350 . S
N969 S967 1.610 . S
N969 C970 1.351 . S
C970 C964 1.428 . S
C970 N969 1.351 . S
C970 C971 1.434 . S
C971 C962 1.429 . S
C971 N968 1.350 . S
C971 C970 1.434 . S
C972 C973 1.369 . S
C972 C974 1.419 . S
C972 H976 0.930 . S
C973 C972 1.369 . S
C973 C982 1.429 . S
C974 C972 1.419 . S
C974 C975 1.363 . S
C974 H977 0.929 . S
C975 C974 1.363 . S
C975 C981 1.428 . S
H976 C972 0.930 . S
H977 C974 0.929 . S
S978 N979 1.613 . S
S978 N980 1.610 . S
N979 S978 1.613 . S
N979 C982 1.350 . S
N980 S978 1.610 . S
N980 C981 1.351 . S
C981 C975 1.428 . S
C981 N980 1.351 . S
C981 C982 1.434 . S
C982 C973 1.429 . S
C982 N979 1.350 . S
C982 C981 1.434 . S
C983 C984 1.369 . S
C983 C985 1.419 . S
C983 H987 0.930 . S
C984 C983 1.369 . S
C984 C993 1.429 . S
C985 C983 1.419 . S
C985 C986 1.363 . S
C985 H988 0.929 . S
C986 C985 1.363 . S
C986 C992 1.428 . S
H987 C983 0.930 . S
H988 C985 0.929 . S
S989 N990 1.613 1_655 S
S989 N991 1.610 1_655 S
N990 S989 1.613 1_455 S
N990 C993 1.350 . S
N991 S989 1.610 1_455 S
N991 C992 1.351 . S
C992 C986 1.428 . S
C992 N991 1.351 . S
C992 C993 1.434 . S
C993 C984 1.429 . S
C993 N990 1.350 . S
C993 C992 1.434 . S
C994 C995 1.369 . S
C994 C996 1.419 . S
C994 H998 0.930 . S
C995 C994 1.369 . S
C995 C1004 1.429 . S
C996 C994 1.419 . S
C996 C997 1.363 . S
C996 H999 0.929 . S
C997 C996 1.363 . S
C997 C1003 1.428 . S
H998 C994 0.930 . S
H999 C996 0.929 . S
S1000 N1001 1.613 . S
S1000 N1002 1.610 . S
N1001 S1000 1.613 . S
N1001 C1004 1.350 . S
N1002 S1000 1.610 . S
N1002 C1003 1.351 . S
C1003 C997 1.428 . S
C1003 N1002 1.351 . S
C1003 C1004 1.434 . S
C1004 C995 1.429 . S
C1004 N1001 1.350 . S
C1004 C1003 1.434 . S
C1005 C1006 1.369 . S
C1005 C1007 1.419 . S
C1005 H1009 0.930 . S
C1006 C1005 1.369 . S
C1006 C1015 1.429 . S
C1007 C1005 1.419 . S
C1007 C1008 1.363 . S
C1007 H1010 0.929 . S
C1008 C1007 1.363 . S
C1008 C1014 1.428 . S
H1009 C1005 0.930 . S
H1010 C1007 0.929 . S
S1011 N1012 1.613 . S
S1011 N1013 1.610 . S
N1012 S1011 1.613 . S
N1012 C1015 1.350 . S
N1013 S1011 1.610 . S
N1013 C1014 1.351 . S
C1014 C1008 1.428 . S
C1014 N1013 1.351 . S
C1014 C1015 1.434 . S
C1015 C1006 1.429 . S
C1015 N1012 1.350 . S
C1015 C1014 1.434 . S
C1016 C1017 1.369 . S
C1016 C1018 1.419 . S
C1016 H1020 0.930 . S
C1017 C1016 1.369 . S
C1017 C1026 1.429 . S
C1018 C1016 1.419 . S
C1018 C1019 1.363 . S
C1018 H1021 0.929 . S
C1019 C1018 1.363 . S
C1019 C1025 1.428 . S
H1020 C1016 0.930 . S
H1021 C1018 0.929 . S
S1022 N1023 1.613 . S
S1022 N1024 1.610 . S
N1023 S1022 1.613 . S
N1023 C1026 1.350 . S
N1024 S1022 1.610 . S
N1024 C1025 1.351 . S
C1025 C1019 1.428 . S
C1025 N1024 1.351 . S
C1025 C1026 1.434 . S
C1026 C1017 1.429 . S
C1026 N1023 1.350 . S
C1026 C1025 1.434 . S
C1027 C1028 1.369 . S
C1027 C1029 1.419 . S
C1027 H1031 0.930 . S
C1028 C1027 1.369 . S
C1028 C1037 1.429 . S
C1029 C1027 1.419 . S
C1029 C1030 1.363 . S
C1029 H1032 0.929 . S
C1030 C1029 1.363 . S
C1030 C1036 1.428 . S
H1031 C1027 0.930 . S
H1032 C1029 0.929 . S
S1033 N1034 1.613 1_565 S
S1033 N1035 1.610 . S
N1034 S1033 1.613 1_545 S
N1034 C1037 1.350 . S
N1035 S1033 1.610 . S
N1035 C1036 1.351 1_565 S
C1036 C1030 1.428 . S
C1036 N1035 1.351 1_545 S
C1036 C1037 1.434 . S
C1037 C1028 1.429 . S
C1037 N1034 1.350 . S
C1037 C1036 1.434 . S
C1038 C1039 1.369 . S
C1038 C1040 1.419 . S
C1038 H1042 0.930 . S
C1039 C1038 1.369 . S
C1039 C1048 1.429 . S
C1040 C1038 1.419 . S
C1040 C1041 1.363 . S
C1040 H1043 0.929 . S
C1041 C1040 1.363 . S
C1041 C1047 1.428 . S
H1042 C1038 0.930 . S
H1043 C1040 0.929 . S
S1044 N1045 1.613 . S
S1044 N1046 1.610 . S
N1045 S1044 1.613 . S
N1045 C1048 1.350 . S
N1046 S1044 1.610 . S
N1046 C1047 1.351 . S
C1047 C1041 1.428 . S
C1047 N1046 1.351 . S
C1047 C1048 1.434 . S
C1048 C1039 1.429 . S
C1048 N1045 1.350 . S
C1048 C1047 1.434 . S
C1049 C1050 1.369 . S
C1049 C1051 1.419 . S
C1049 H1053 0.930 . S
C1050 C1049 1.369 . S
C1050 C1059 1.429 . S
C1051 C1049 1.419 . S
C1051 C1052 1.363 . S
C1051 H1054 0.929 . S
C1052 C1051 1.363 . S
C1052 C1058 1.428 . S
H1053 C1049 0.930 . S
H1054 C1051 0.929 . S
S1055 N1056 1.613 . S
S1055 N1057 1.610 . S
N1056 S1055 1.613 . S
N1056 C1059 1.350 . S
N1057 S1055 1.610 . S
N1057 C1058 1.351 . S
C1058 C1052 1.428 . S
C1058 N1057 1.351 . S
C1058 C1059 1.434 . S
C1059 C1050 1.429 . S
C1059 N1056 1.350 . S
C1059 C1058 1.434 . S
C1060 C1061 1.369 . S
C1060 C1062 1.419 . S
C1060 H1064 0.930 . S
C1061 C1060 1.369 . S
C1061 C1070 1.429 . S
C1062 C1060 1.419 . S
C1062 C1063 1.363 . S
C1062 H1065 0.929 . S
C1063 C1062 1.363 . S
C1063 C1069 1.428 . S
H1064 C1060 0.930 . S
H1065 C1062 0.929 . S
S1066 N1067 1.613 . S
S1066 N1068 1.610 . S
N1067 S1066 1.613 . S
N1067 C1070 1.350 . S
N1068 S1066 1.610 . S
N1068 C1069 1.351 . S
C1069 C1063 1.428 . S
C1069 N1068 1.351 . S
C1069 C1070 1.434 . S
C1070 C1061 1.429 . S
C1070 N1067 1.350 . S
C1070 C1069 1.434 . S
C1071 C1072 1.369 . S
C1071 C1073 1.419 . S
C1071 H1075 0.930 . S
C1072 C1071 1.369 . S
C1072 C1081 1.429 . S
C1073 C1071 1.419 . S
C1073 C1074 1.363 . S
C1073 H1076 0.929 . S
C1074 C1073 1.363 . S
C1074 C1080 1.428 . S
H1075 C1071 0.930 . S
H1076 C1073 0.929 . S
S1077 N1078 1.613 . S
S1077 N1079 1.610 . S
N1078 S1077 1.613 . S
N1078 C1081 1.350 . S
N1079 S1077 1.610 . S
N1079 C1080 1.351 . S
C1080 C1074 1.428 . S
C1080 N1079 1.351 . S
C1080 C1081 1.434 . S
C1081 C1072 1.429 . S
C1081 N1078 1.350 . S
C1081 C1080 1.434 . S
C1082 C1083 1.369 . S
C1082 C1084 1.419 . S
C1082 H1086 0.930 . S
C1083 C1082 1.369 . S
C1083 C1092 1.429 . S
C1084 C1082 1.419 . S
C1084 C1085 1.363 . S
C1084 H1087 0.929 . S
C1085 C1084 1.363 . S
C1085 C1091 1.428 . S
H1086 C1082 0.930 . S
H1087 C1084 0.929 . S
S1088 N1089 1.613 . S
S1088 N1090 1.610 . S
N1089 S1088 1.613 . S
N1089 C1092 1.350 . S
N1090 S1088 1.610 . S
N1090 C1091 1.351 . S
C1091 C1085 1.428 . S
C1091 N1090 1.351 . S
C1091 C1092 1.434 . S
C1092 C1083 1.429 . S
C1092 N1089 1.350 . S
C1092 C1091 1.434 . S
C1093 C1094 1.369 . S
C1093 C1095 1.419 . S
C1093 H1097 0.930 . S
C1094 C1093 1.369 . S
C1094 C1103 1.429 . S
C1095 C1093 1.419 . S
C1095 C1096 1.363 . S
C1095 H1098 0.929 . S
C1096 C1095 1.363 . S
C1096 C1102 1.428 . S
H1097 C1093 0.930 . S
H1098 C1095 0.929 . S
S1099 N1100 1.613 . S
S1099 N1101 1.610 . S
N1100 S1099 1.613 . S
N1100 C1103 1.350 . S
N1101 S1099 1.610 . S
N1101 C1102 1.351 . S
C1102 C1096 1.428 . S
C1102 N1101 1.351 . S
C1102 C1103 1.434 . S
C1103 C1094 1.429 . S
C1103 N1100 1.350 . S
C1103 C1102 1.434 . S
C1104 C1105 1.369 . S
C1104 C1106 1.419 . S
C1104 H1108 0.930 . S
C1105 C1104 1.369 . S
C1105 C1114 1.429 . S
C1106 C1104 1.419 . S
C1106 C1107 1.363 . S
C1106 H1109 0.929 . S
C1107 C1106 1.363 . S
C1107 C1113 1.428 . S
H1108 C1104 0.930 . S
H1109 C1106 0.929 . S
S1110 N1111 1.613 . S
S1110 N1112 1.610 . S
N1111 S1110 1.613 . S
N1111 C1114 1.350 . S
N1112 S1110 1.610 . S
N1112 C1113 1.351 . S
C1113 C1107 1.428 . S
C1113 N1112 1.351 . S
C1113 C1114 1.434 . S
C1114 C1105 1.429 . S
C1114 N1111 1.350 . S
C1114 C1113 1.434 . S
C1115 C1116 1.369 . S
C1115 C1117 1.419 . S
C1115 H1119 0.930 . S
C1116 C1115 1.369 . S
C1116 C1125 1.429 . S
C1117 C1115 1.419 . S
C1117 C1118 1.363 . S
C1117 H1120 0.929 . S
C1118 C1117 1.363 . S
C1118 C1124 1.428 . S
H1119 C1115 0.930 . S
H1120 C1117 0.929 . S
S1121 N1122 1.613 . S
S1121 N1123 1.610 . S
N1122 S1121 1.613 . S
N1122 C1125 1.350 . S
N1123 S1121 1.610 . S
N1123 C1124 1.351 . S
C1124 C1118 1.428 . S
C1124 N1123 1.351 . S
C1124 C1125 1.434 . S
C1125 C1116 1.429 . S
C1125 N1122 1.350 . S
C1125 C1124 1.434 . S
C1126 C1127 1.369 . S
C1126 C1128 1.419 . S
C1126 H1130 0.930 . S
C1127 C1126 1.369 . S
C1127 C1136 1.429 . S
C1128 C1126 1.419 . S
C1128 C1129 1.363 . S
C1128 H1131 0.929 . S
C1129 C1128 1.363 . S
C1129 C1135 1.428 . S
H1130 C1126 0.930 . S
H1131 C1128 0.929 . S
S1132 N1133 1.613 . S
S1132 N1134 1.610 . S
N1133 S1132 1.613 . S
N1133 C1136 1.350 . S
N1134 S1132 1.610 . S
N1134 C1135 1.351 . S
C1135 C1129 1.428 . S
C1135 N1134 1.351 . S
C1135 C1136 1.434 . S
C1136 C1127 1.429 . S
C1136 N1133 1.350 . S
C1136 C1135 1.434 . S
C1137 C1138 1.369 . S
C1137 C1139 1.419 . S
C1137 H1141 0.930 . S
C1138 C1137 1.369 . S
C1138 C1147 1.429 . S
C1139 C1137 1.419 . S
C1139 C1140 1.363 . S
C1139 H1142 0.929 . S
C1140 C1139 1.363 . S
C1140 C1146 1.428 . S
H1141 C1137 0.930 . S
H1142 C1139 0.929 . S
S1143 N1144 1.613 . S
S1143 N1145 1.610 . S
N1144 S1143 1.613 . S
N1144 C1147 1.350 . S
N1145 S1143 1.610 . S
N1145 C1146 1.351 . S
C1146 C1140 1.428 . S
C1146 N1145 1.351 . S
C1146 C1147 1.434 . S
C1147 C1138 1.429 . S
C1147 N1144 1.350 . S
C1147 C1146 1.434 . S
C1148 C1149 1.369 . S
C1148 C1150 1.419 . S
C1148 H1152 0.930 . S
C1149 C1148 1.369 . S
C1149 C1158 1.429 . S
C1150 C1148 1.419 . S
C1150 C1151 1.363 . S
C1150 H1153 0.929 . S
C1151 C1150 1.363 . S
C1151 C1157 1.428 . S
H1152 C1148 0.930 . S
H1153 C1150 0.929 . S
S1154 N1155 1.613 . S
S1154 N1156 1.610 . S
N1155 S1154 1.613 . S
N1155 C1158 1.350 . S
N1156 S1154 1.610 . S
N1156 C1157 1.351 . S
C1157 C1151 1.428 . S
C1157 N1156 1.351 . S
C1157 C1158 1.434 . S
C1158 C1149 1.429 . S
C1158 N1155 1.350 . S
C1158 C1157 1.434 . S
C1159 C1160 1.369 . S
C1159 C1161 1.419 . S
C1159 H1163 0.930 . S
C1160 C1159 1.369 . S
C1160 C1169 1.429 . S
C1161 C1159 1.419 . S
C1161 C1162 1.363 . S
C1161 H1164 0.929 . S
C1162 C1161 1.363 . S
C1162 C1168 1.428 . S
H1163 C1159 0.930 . S
H1164 C1161 0.929 . S
S1165 N1166 1.613 . S
S1165 N1167 1.610 . S
N1166 S1165 1.613 . S
N1166 C1169 1.350 . S
N1167 S1165 1.610 . S
N1167 C1168 1.351 . S
C1168 C1162 1.428 . S
C1168 N1167 1.351 . S
C1168 C1169 1.434 . S
C1169 C1160 1.429 . S
C1169 N1166 1.350 . S
C1169 C1168 1.434 . S
C577 C162 1.656 . S
C579 C228 1.663 . S
C588 C174 1.751 . S
C590 C268 1.748 . S
C599 C150 1.588 . S
C601 C298 1.577 . S
C610 C138 1.495 . S
C612 C258 1.471 . S
C623 C308 1.518 . S
C621 C114 1.522 . S
C632 C126 1.405 . S
C634 C218 1.399 1_556 S
C645 C247 1.669 . S
C643 C136 1.643 . S
C656 C287 1.646 . S
C654 C112 1.625 . S
C665 C124 1.624 . S
C667 C313 1.673 1_556 S
C676 C160 1.507 . S
C678 C273 1.533 . S
C687 C172 1.480 . S
C689 C327 1.487 . S
C700 C233 1.525 . S
C698 C148 1.492 . S
C711 C348 1.664 . S
C709 C18 1.655 . S
C720 C30 1.753 . S
C722 C388 1.747 . S
C731 C6 1.588 . S
C733 C418 1.577 . S
C742 C210 1.498 . S
C744 C378 1.467 . S
C753 C186 1.522 . S
C755 C428 1.519 . S
C764 C198 1.405 . S
C766 C338 1.395 . S
C775 C208 1.646 . S
C777 C367 1.668 . S
C786 C184 1.625 . S
C788 C407 1.645 . S
C799 C433 1.674 . S
C797 C196 1.625 . S
C808 C16 1.507 . S
C810 C393 1.533 . S
C821 C447 1.489 . S
C819 C28 1.476 1_455 S
C830 C4 1.487 . S
C832 C353 1.527 . S
C843 C468 1.662 . S
C841 C90 1.656 . S
C852 C102 1.751 . S
C854 C508 1.749 . S
C865 C538 1.571 . S
C863 C78 1.591 . S
C876 C498 1.471 . S
C874 C66 1.493 . S
C887 C548 1.519 . S
C885 C42 1.523 . S
C896 C54 1.406 . S
C898 C458 1.395 . S
C907 C64 1.633 1_655 S
C909 C487 1.669 . S
C918 C40 1.626 . S
C920 C527 1.643 . S
C931 C553 1.668 . S
C929 C52 1.634 1_545 S
C940 C88 1.514 . S
C942 C513 1.528 . S
C951 C100 1.476 . S
C953 C567 1.488 . S
C962 C76 1.494 . S
C964 C473 1.524 . S
C973 C189 1.604 . S
C975 C245 1.569 . S
C986 C285 1.866 . S
C984 C201 1.929 . S
C995 C213 1.559 . S
C997 C304 1.577 . S
C1006 C81 1.733 . S
C1008 C264 1.728 . S
C1017 C93 1.687 . S
C1019 C325 1.662 . S
C1030 C224 1.375 . S
C1028 C105 1.368 . S
C1039 C45 1.610 . S
C1041 C365 1.562 . S
C1050 C57 1.926 . S
C1052 C405 1.870 . S
C1061 C69 1.561 . S
C1063 C424 1.575 . S
C1072 C153 1.735 . S
C1074 C384 1.725 . S
C1085 C445 1.657 . S
C1083 C165 1.693 . S
C1094 C177 1.369 . S
C1096 C344 1.375 . S
C1105 C117 1.606 . S
C1107 C485 1.565 . S
C1116 C129 1.929 . S
C1118 C525 1.867 . S
C1129 C544 1.576 . S
C1127 C141 1.559 . S
C1138 C9 1.735 . S
C1140 C504 1.724 . S
C1149 C21 1.688 . S
C1151 C565 1.662 . S
C1160 C33 1.367 . S
C1162 C464 1.375 . S
