# Generated by pormake.
# Topology ssb, (4,4)-cn, num edge types: 1
# Building blocks:
#     Node 0, Type 0, BuildingBlock: GIZVER_clean_linker_0, # of connection points: 4
#     Node 1, Type 0, BuildingBlock: GIZVER_clean_linker_0, # of connection points: 4
#     Node 2, Type 0, BuildingBlock: GIZVER_clean_linker_0, # of connection points: 4
#     Node 3, Type 0, BuildingBlock: GIZVER_clean_linker_0, # of connection points: 4
#     Node 4, Type 0, BuildingBlock: GIZVER_clean_linker_0, # of connection points: 4
#     Node 5, Type 0, BuildingBlock: GIZVER_clean_linker_0, # of connection points: 4
#     Node 6, Type 0, BuildingBlock: GIZVER_clean_linker_0, # of connection points: 4
#     Node 7, Type 0, BuildingBlock: GIZVER_clean_linker_0, # of connection points: 4
#     Node 8, Type 1, BuildingBlock: KOZSID_clean_sbu_0, # of connection points: 4
#     Node 9, Type 1, BuildingBlock: KOZSID_clean_sbu_0, # of connection points: 4
#     Node 10, Type 1, BuildingBlock: KOZSID_clean_sbu_0, # of connection points: 4
#     Node 11, Type 1, BuildingBlock: KOZSID_clean_sbu_0, # of connection points: 4
#     Node 12, Type 1, BuildingBlock: KOZSID_clean_sbu_0, # of connection points: 4
#     Node 13, Type 1, BuildingBlock: KOZSID_clean_sbu_0, # of connection points: 4
#     Node 14, Type 1, BuildingBlock: KOZSID_clean_sbu_0, # of connection points: 4
#     Node 15, Type 1, BuildingBlock: KOZSID_clean_sbu_0, # of connection points: 4
#     Edge 16, Type (0, 1), BuildingBlock: TEMPAE_clean_linker_10, # of connection points: 2
#     Edge 17, Type (0, 1), BuildingBlock: TEMPAE_clean_linker_10, # of connection points: 2
#     Edge 18, Type (0, 1), BuildingBlock: TEMPAE_clean_linker_10, # of connection points: 2
#     Edge 19, Type (0, 1), BuildingBlock: TEMPAE_clean_linker_10, # of connection points: 2
#     Edge 20, Type (0, 1), BuildingBlock: TEMPAE_clean_linker_10, # of connection points: 2
#     Edge 21, Type (0, 1), BuildingBlock: TEMPAE_clean_linker_10, # of connection points: 2
#     Edge 22, Type (0, 1), BuildingBlock: TEMPAE_clean_linker_10, # of connection points: 2
#     Edge 23, Type (0, 1), BuildingBlock: TEMPAE_clean_linker_10, # of connection points: 2
#     Edge 24, Type (0, 1), BuildingBlock: TEMPAE_clean_linker_10, # of connection points: 2
#     Edge 25, Type (0, 1), BuildingBlock: TEMPAE_clean_linker_10, # of connection points: 2
#     Edge 26, Type (0, 1), BuildingBlock: TEMPAE_clean_linker_10, # of connection points: 2
#     Edge 27, Type (0, 1), BuildingBlock: TEMPAE_clean_linker_10, # of connection points: 2
#     Edge 28, Type (0, 1), BuildingBlock: TEMPAE_clean_linker_10, # of connection points: 2
#     Edge 29, Type (0, 1), BuildingBlock: TEMPAE_clean_linker_10, # of connection points: 2
#     Edge 30, Type (0, 1), BuildingBlock: TEMPAE_clean_linker_10, # of connection points: 2
#     Edge 31, Type (0, 1), BuildingBlock: TEMPAE_clean_linker_10, # of connection points: 2
#     Edge 32, Type (0, 1), BuildingBlock: TEMPAE_clean_linker_10, # of connection points: 2
#     Edge 33, Type (0, 1), BuildingBlock: TEMPAE_clean_linker_10, # of connection points: 2
#     Edge 34, Type (0, 1), BuildingBlock: TEMPAE_clean_linker_10, # of connection points: 2
#     Edge 35, Type (0, 1), BuildingBlock: TEMPAE_clean_linker_10, # of connection points: 2
#     Edge 36, Type (0, 1), BuildingBlock: TEMPAE_clean_linker_10, # of connection points: 2
#     Edge 37, Type (0, 1), BuildingBlock: TEMPAE_clean_linker_10, # of connection points: 2
#     Edge 38, Type (0, 1), BuildingBlock: TEMPAE_clean_linker_10, # of connection points: 2
#     Edge 39, Type (0, 1), BuildingBlock: TEMPAE_clean_linker_10, # of connection points: 2
#     Edge 40, Type (0, 1), BuildingBlock: TEMPAE_clean_linker_10, # of connection points: 2
#     Edge 41, Type (0, 1), BuildingBlock: TEMPAE_clean_linker_10, # of connection points: 2
#     Edge 42, Type (0, 1), BuildingBlock: TEMPAE_clean_linker_10, # of connection points: 2
#     Edge 43, Type (0, 1), BuildingBlock: TEMPAE_clean_linker_10, # of connection points: 2
#     Edge 44, Type (0, 1), BuildingBlock: TEMPAE_clean_linker_10, # of connection points: 2
#     Edge 45, Type (0, 1), BuildingBlock: TEMPAE_clean_linker_10, # of connection points: 2
#     Edge 46, Type (0, 1), BuildingBlock: TEMPAE_clean_linker_10, # of connection points: 2
#     Edge 47, Type (0, 1), BuildingBlock: TEMPAE_clean_linker_10, # of connection points: 2
# Relax obj value: 0.003
# Max RMSD: 0.046
# Mean RMSD: 0.023
data_MOF--net-ssb--node1-KOZSID_clean_sbu_0--node2-GIZVER_clean_linker_0--edge1-TEMPAE_clean_linker_10
_symmetry_space_group_name_H-M    P1
_symmetry_Int_Tables_number       1
_symmetry_cell_setting            triclinic
loop_
_symmetry_equiv_pos_as_xyz
'x, y, z'
_cell_length_a     55.426287
_cell_length_b     55.119107
_cell_length_c     40.733742
_cell_angle_alpha  92.864101
_cell_angle_beta   95.114093
_cell_angle_gamma 89.970854
loop_
_atom_site_label
_atom_site_type_symbol
_atom_site_fract_x
_atom_site_fract_y
_atom_site_fract_z
_atom_type_partial_charge
H0 H 0.25667 0.194 0.29477 0.0
H1 H 0.20358 0.25042 0.30332 0.0
H2 H 0.2244 0.20659 0.38583 0.0
H3 H 0.23377 0.21058 0.24558 0.0
H4 H 0.21313 0.2349 0.24988 0.0
H5 H 0.27941 0.2193 0.25488 0.0
H6 H 0.29783 0.28529 0.21124 0.0
H7 H 0.22534 0.27467 0.23764 0.0
C8 C 0.24516 0.20493 0.30975 0.0
C9 C 0.24243 0.1986 0.34225 0.0
C10 C 0.23181 0.22434 0.29587 0.0
C11 C 0.21516 0.23682 0.3148 0.0
C12 C 0.21177 0.23021 0.3471 0.0
C13 C 0.22644 0.21183 0.36092 0.0
C14 C 0.23135 0.22832 0.25914 0.0
C15 C 0.2506 0.24572 0.24985 0.0
C16 C 0.27448 0.23741 0.24757 0.0
C17 C 0.29157 0.25177 0.23389 0.0
C18 C 0.28474 0.27459 0.22263 0.0
C19 C 0.26085 0.28292 0.22319 0.0
C20 C 0.24398 0.2687 0.23781 0.0
H21 H 0.81835 0.25179 0.26837 0.0
H22 H 0.76029 0.20025 0.26955 0.0
H23 H 0.80549 0.2189 0.35864 0.0
H24 H 0.79837 0.23419 0.21708 0.0
H25 H 0.77621 0.21083 0.2176 0.0
H26 H 0.78674 0.27674 0.2175 0.0
H27 H 0.71168 0.29233 0.19201 0.0
H28 H 0.73298 0.22085 0.22086 0.0
C29 C 0.80758 0.24012 0.28203 0.0
C30 C 0.81456 0.23652 0.31545 0.0
C31 C 0.78762 0.22741 0.26558 0.0
C32 C 0.7747 0.21102 0.28282 0.0
C33 C 0.78131 0.20736 0.31633 0.0
C34 C 0.80064 0.22098 0.33257 0.0
C35 C 0.78187 0.22899 0.22883 0.0
C36 C 0.76195 0.24703 0.22089 0.0
C37 C 0.76789 0.27116 0.21524 0.0
C38 C 0.74983 0.28754 0.20447 0.0
C39 C 0.72558 0.27978 0.20074 0.0
C40 C 0.71915 0.25578 0.20637 0.0
C41 C 0.73753 0.23951 0.21678 0.0
H42 H 0.77459 0.73297 0.3275 0.0
H43 H 0.71786 0.78602 0.32505 0.0
H44 H 0.79068 0.80705 0.36016 0.0
H45 H 0.73282 0.72053 0.32642 0.0
H46 H 0.70921 0.74223 0.32647 0.0
H47 H 0.75082 0.70837 0.27328 0.0
H48 H 0.6961 0.70684 0.19082 0.0
H49 H 0.68798 0.75396 0.27567 0.0
C50 C 0.76912 0.75176 0.33052 0.0
C51 C 0.78599 0.76938 0.3442 0.0
C52 C 0.74461 0.75767 0.32321 0.0
C53 C 0.73689 0.78169 0.32961 0.0
C54 C 0.75336 0.79971 0.34342 0.0
C55 C 0.77791 0.79338 0.34957 0.0
C56 C 0.72618 0.73749 0.31496 0.0
C57 C 0.72025 0.73191 0.27829 0.0
C58 C 0.73411 0.71486 0.26102 0.0
C59 C 0.72587 0.70558 0.22895 0.0
C60 C 0.7036 0.71424 0.21463 0.0
C61 C 0.69014 0.73199 0.2308 0.0
C62 C 0.69877 0.74101 0.26247 0.0
H63 H 0.18887 0.76541 0.23388 0.0
H64 H 0.25887 0.79986 0.24076 0.0
H65 H 0.21887 0.79821 0.32634 0.0
H66 H 0.20773 0.7714 0.18453 0.0
H67 H 0.22913 0.7957 0.18654 0.0
H68 H 0.22234 0.72885 0.19191 0.0
H69 H 0.29304 0.71414 0.1601 0.0
H70 H 0.27192 0.78768 0.18277 0.0
C71 C 0.2037 0.77456 0.24867 0.0
C72 C 0.20156 0.78058 0.28226 0.0
C73 C 0.2244 0.78153 0.23363 0.0
C74 C 0.24319 0.79423 0.25256 0.0
C75 C 0.2414 0.80047 0.28608 0.0
C76 C 0.22067 0.79319 0.30065 0.0
C77 C 0.22547 0.77787 0.19681 0.0
C78 C 0.24504 0.76014 0.18842 0.0
C79 C 0.24 0.73514 0.18642 0.0
C80 C 0.25727 0.71838 0.17634 0.0
C81 C 0.28003 0.72689 0.1693 0.0
C82 C 0.28565 0.75178 0.17174 0.0
C83 C 0.26798 0.76838 0.18129 0.0
H84 H 0.30419 0.76356 0.77501 0.0
H85 H 0.25018 0.70666 0.76475 0.0
H86 H 0.29644 0.71681 0.85471 0.0
H87 H 0.28984 0.74522 0.72056 0.0
H88 H 0.26649 0.72301 0.716 0.0
H89 H 0.2803 0.78654 0.71068 0.0
H90 H 0.20627 0.80423 0.68031 0.0
H91 H 0.22328 0.73558 0.72185 0.0
C92 C 0.29431 0.74938 0.78566 0.0
C93 C 0.30202 0.74209 0.81745 0.0
C94 C 0.27559 0.73671 0.76625 0.0
C95 C 0.26387 0.71724 0.77983 0.0
C96 C 0.27126 0.71018 0.81192 0.0
C97 C 0.29017 0.72279 0.83044 0.0
C98 C 0.27211 0.74045 0.72946 0.0
C99 C 0.25363 0.75968 0.71962 0.0
C100 C 0.26114 0.78236 0.70919 0.0
C101 C 0.24422 0.7986 0.69438 0.0
C102 C 0.21954 0.79203 0.6915 0.0
C103 C 0.2118 0.76921 0.70048 0.0
C104 C 0.22893 0.7534 0.71532 0.0
H105 H 0.2706 0.22686 0.85809 0.0
H106 H 0.22199 0.2848 0.83159 0.0
H107 H 0.29592 0.30082 0.86697 0.0
H108 H 0.22694 0.22078 0.85472 0.0
H109 H 0.20681 0.24549 0.84726 0.0
H110 H 0.24318 0.19734 0.80834 0.0
H111 H 0.19763 0.19618 0.71802 0.0
H112 H 0.1929 0.25559 0.7905 0.0
C113 C 0.26762 0.24599 0.85433 0.0
C114 C 0.28645 0.26285 0.8631 0.0
C115 C 0.24436 0.25391 0.84291 0.0
C116 C 0.24007 0.27878 0.83968 0.0
C117 C 0.25845 0.29594 0.84892 0.0
C118 C 0.2817 0.2877 0.85957 0.0
C119 C 0.22327 0.23643 0.83879 0.0
C120 C 0.218 0.22715 0.80345 0.0
C121 C 0.2294 0.20596 0.79234 0.0
C122 C 0.22209 0.19514 0.76134 0.0
C123 C 0.20367 0.20574 0.74114 0.0
C124 C 0.19314 0.22801 0.75048 0.0
C125 C 0.20065 0.23865 0.78204 0.0
H126 H 0.69635 0.25628 0.78952 0.0
H127 H 0.75841 0.30362 0.79829 0.0
H128 H 0.71133 0.30189 0.87697 0.0
H129 H 0.71292 0.26932 0.74073 0.0
H130 H 0.73613 0.29159 0.74348 0.0
H131 H 0.72263 0.2258 0.73887 0.0
H132 H 0.79258 0.20898 0.70586 0.0
H133 H 0.77892 0.28018 0.74747 0.0
C134 C 0.70817 0.26911 0.80421 0.0
C135 C 0.70204 0.27744 0.83553 0.0
C136 C 0.7283 0.27878 0.79049 0.0
C137 C 0.74308 0.29627 0.80921 0.0
C138 C 0.73733 0.30501 0.84083 0.0
C139 C 0.71675 0.29517 0.8534 0.0
C140 C 0.73084 0.27428 0.75389 0.0
C141 C 0.74904 0.25487 0.74558 0.0
C142 C 0.74126 0.23088 0.73649 0.0
C143 C 0.757 0.21395 0.7225 0.0
C144 C 0.7808 0.22129 0.71849 0.0
C145 C 0.78896 0.24499 0.72749 0.0
C146 C 0.77305 0.26161 0.74147 0.0
H147 H 0.75663 0.69717 0.75413 0.0
H148 H 0.70073 0.75145 0.746 0.0
H149 H 0.71922 0.71918 0.83867 0.0
H150 H 0.73759 0.70736 0.70008 0.0
H151 H 0.71459 0.72996 0.6964 0.0
H152 H 0.77898 0.718 0.69435 0.0
H153 H 0.79642 0.79202 0.67738 0.0
H154 H 0.72568 0.7741 0.70448 0.0
C155 C 0.74364 0.70883 0.76551 0.0
C156 C 0.73995 0.7066 0.79889 0.0
C157 C 0.72985 0.72525 0.74635 0.0
C158 C 0.71214 0.73947 0.7609 0.0
C159 C 0.70859 0.73764 0.79441 0.0
C160 C 0.72284 0.72151 0.81328 0.0
C161 C 0.73234 0.72566 0.70978 0.0
C162 C 0.75081 0.74427 0.70226 0.0
C163 C 0.77411 0.73704 0.69437 0.0
C164 C 0.79043 0.75413 0.68432 0.0
C165 C 0.78363 0.77864 0.68406 0.0
C166 C 0.76019 0.78601 0.69032 0.0
C167 C 0.74401 0.76879 0.7002 0.0
C168 C 0.03761 0.29102 0.58909 0.0
C169 C 0.04393 0.31148 0.60936 0.0
C170 C 0.02817 0.32948 0.59986 0.0
C171 C 0.013 0.31904 0.57464 0.0
N172 N 0.01827 0.29561 0.56755 0.0
Co173 Co 0.99957 0.27355 0.53453 0.0
N174 N 0.98383 0.30132 0.51174 0.0
C175 C 0.98314 0.3244 0.52413 0.0
C176 C 0.97069 0.33969 0.50317 0.0
C177 C 0.96272 0.3253 0.47601 0.0
C178 C 0.97067 0.30191 0.48206 0.0
N179 N 0.98051 0.2514 0.50191 0.0
C180 C 0.96754 0.25615 0.47317 0.0
C181 C 0.95629 0.23517 0.45877 0.0
C182 C 0.96222 0.21686 0.4794 0.0
C183 C 0.97666 0.22754 0.50516 0.0
N184 N 0.01551 0.24586 0.5572 0.0
C185 C 0.00846 0.22243 0.55347 0.0
C186 C 0.02433 0.20703 0.56958 0.0
C187 C 0.04237 0.22166 0.58471 0.0
C188 C 0.03618 0.24542 0.57767 0.0
N189 N 0.97321 0.2728 0.56361 0.0
C190 C 0.9353 0.27066 0.60478 0.0
C191 C 0.9595 0.26856 0.61759 0.0
C192 C 0.97813 0.26964 0.59664 0.0
C193 C 0.93059 0.27418 0.57098 0.0
C194 C 0.94968 0.27519 0.55094 0.0
N195 N 0.02596 0.27416 0.50557 0.0
C196 C 0.05205 0.25275 0.46988 0.0
C197 C 0.0652 0.274 0.46666 0.0
C198 C 0.05817 0.29548 0.48295 0.0
C199 C 0.03826 0.29524 0.50189 0.0
C200 C 0.03272 0.25315 0.48965 0.0
H201 H 0.03303 0.31206 0.51389 0.0
H202 H 0.02353 0.23629 0.49241 0.0
H203 H 0.99651 0.26768 0.6072 0.0
H204 H 0.94528 0.27776 0.5251 0.0
C205 C 0.99626 0.3314 0.55399 0.0
C206 C 0.04916 0.26717 0.59267 0.0
C207 C 0.96281 0.28049 0.46093 0.0
C208 C 0.98972 0.21515 0.52991 0.0
H209 H 0.05825 0.31323 0.6292 0.0
H210 H 0.02822 0.34812 0.60958 0.0
H211 H 0.96796 0.35904 0.50699 0.0
H212 H 0.95171 0.33118 0.4546 0.0
H213 H 0.94452 0.23333 0.43612 0.0
H214 H 0.95706 0.19792 0.47564 0.0
H215 H 0.02361 0.18738 0.56893 0.0
H216 H 0.05827 0.21532 0.59904 0.0
H217 H 0.96404 0.26557 0.64348 0.0
H218 H 0.91222 0.27626 0.56 0.0
H219 H 0.05711 0.23573 0.45793 0.0
H220 H 0.0679 0.3123 0.48094 0.0
C221 C 0.70367 0.04884 0.56857 0.0
C222 C 0.68144 0.05813 0.57621 0.0
C223 C 0.66407 0.04444 0.55809 0.0
C224 C 0.67656 0.02772 0.54032 0.0
N225 N 0.70092 0.02979 0.54602 0.0
Co226 Co 0.72577 0.00961 0.52411 0.0
N227 N 0.70015 0.99011 0.49638 0.0
C228 C 0.67591 0.99315 0.49601 0.0
C229 C 0.66273 0.97646 0.47578 0.0
C230 C 0.67951 0.96173 0.46252 0.0
C231 C 0.70211 0.97041 0.47527 0.0
N232 N 0.75067 0.98926 0.50256 0.0
C233 C 0.74794 0.97007 0.4803 0.0
C234 C 0.77017 0.96155 0.4714 0.0
C235 C 0.78754 0.97528 0.48938 0.0
C236 C 0.77505 0.99149 0.50793 0.0
N237 N 0.75147 0.02914 0.55157 0.0
C238 C 0.77574 0.02641 0.55151 0.0
C239 C 0.78891 0.04218 0.57315 0.0
C240 C 0.77211 0.05604 0.58775 0.0
C241 C 0.74952 0.04804 0.57389 0.0
N242 N 0.72537 0.98588 0.55914 0.0
C243 C 0.72495 0.94919 0.60495 0.0
C244 C 0.74674 0.95857 0.59605 0.0
C245 C 0.74653 0.97682 0.57353 0.0
C246 C 0.70336 0.95924 0.59146 0.0
C247 C 0.70399 0.9774 0.56878 0.0
N248 N 0.72613 0.03342 0.48902 0.0
C249 C 0.74845 0.0579 0.45434 0.0
C250 C 0.72729 0.06943 0.44261 0.0
C251 C 0.70542 0.0624 0.4537 0.0
C252 C 0.70521 0.04416 0.47636 0.0
C253 C 0.74751 0.04026 0.47757 0.0
H254 H 0.68794 0.03933 0.48353 0.0
H255 H 0.7644 0.03279 0.48626 0.0
H256 H 0.76374 0.98289 0.56756 0.0
H257 H 0.68692 0.98396 0.55895 0.0
C258 C 0.66602 0.01065 0.51684 0.0
C259 C 0.72685 0.05928 0.5825 0.0
C260 C 0.72486 0.9588 0.46756 0.0
C261 C 0.78567 0.00887 0.53084 0.0
H262 H 0.67805 0.07349 0.59272 0.0
H263 H 0.64464 0.04675 0.5574 0.0
H264 H 0.64322 0.97473 0.47194 0.0
H265 H 0.67544 0.94605 0.44593 0.0
H266 H 0.77354 0.94676 0.45394 0.0
H267 H 0.80698 0.97351 0.48918 0.0
H268 H 0.80842 0.04349 0.57771 0.0
H269 H 0.7761 0.0705 0.6064 0.0
H270 H 0.76401 0.95125 0.60537 0.0
H271 H 0.686 0.95291 0.59794 0.0
H272 H 0.7658 0.06306 0.4464 0.0
H273 H 0.68861 0.07095 0.44496 0.0
C274 C 0.04375 0.76238 0.5538 0.0
C275 C 0.05155 0.78481 0.56788 0.0
C276 C 0.03752 0.80191 0.5525 0.0
C277 C 0.02195 0.78902 0.53014 0.0
N278 N 0.02494 0.76468 0.53048 0.0
Co279 Co 0.00633 0.73938 0.50146 0.0
N280 N 0.98477 0.76458 0.48018 0.0
C281 C 0.98552 0.78882 0.48739 0.0
C282 C 0.96708 0.80139 0.47151 0.0
C283 C 0.95346 0.78417 0.45326 0.0
C284 C 0.96467 0.76194 0.45866 0.0
N285 N 0.98823 0.7142 0.47165 0.0
C286 C 0.9687 0.71641 0.44941 0.0
C287 C 0.96228 0.6943 0.4332 0.0
C288 C 0.97793 0.67744 0.44618 0.0
C289 C 0.99311 0.69017 0.46927 0.0
N290 N 0.02713 0.71409 0.52385 0.0
C291 C 0.0258 0.68977 0.51755 0.0
C292 C 0.04226 0.67695 0.53687 0.0
C293 C 0.05488 0.69408 0.55678 0.0
C294 C 0.04535 0.71647 0.54842 0.0
N295 N 0.98266 0.73609 0.53485 0.0
C296 C 0.94589 0.73189 0.57805 0.0
C297 C 0.95527 0.71133 0.5622 0.0
C298 C 0.97347 0.71382 0.54089 0.0
C299 C 0.95595 0.75448 0.5727 0.0
C300 C 0.97425 0.75613 0.55144 0.0
N301 N 0.03003 0.74263 0.46774 0.0
C302 C 0.06052 0.72513 0.43461 0.0
C303 C 0.06428 0.74739 0.42101 0.0
C304 C 0.0505 0.7672 0.43089 0.0
C305 C 0.03381 0.76451 0.45431 0.0
C306 C 0.04329 0.7231 0.45741 0.0
H307 H 0.02438 0.7805 0.4613 0.0
H308 H 0.04118 0.7055 0.46634 0.0
H309 H 0.97957 0.6975 0.52915 0.0
H310 H 0.98096 0.77389 0.54825 0.0
C311 C 0.00337 0.79917 0.51005 0.0
C312 C 0.05498 0.7395 0.56336 0.0
C313 C 0.95522 0.73881 0.44352 0.0
C314 C 0.01025 0.67976 0.4915 0.0
H315 H 0.06586 0.78848 0.58735 0.0
H316 H 0.03835 0.82139 0.55736 0.0
H317 H 0.96357 0.8207 0.47364 0.0
H318 H 0.93686 0.78776 0.43834 0.0
H319 H 0.94747 0.69065 0.41442 0.0
H320 H 0.97775 0.65807 0.44027 0.0
H321 H 0.04516 0.65752 0.53598 0.0
H322 H 0.06977 0.69049 0.5749 0.0
H323 H 0.94851 0.69334 0.56594 0.0
H324 H 0.94925 0.77106 0.58399 0.0
H325 H 0.07072 0.70924 0.42747 0.0
H326 H 0.05302 0.78488 0.4212 0.0
C327 C 0.29916 0.96311 0.57132 0.0
C328 C 0.3216 0.9554 0.58474 0.0
C329 C 0.33861 0.96924 0.57214 0.0
C330 C 0.32571 0.98467 0.55194 0.0
N331 N 0.30144 0.9818 0.55119 0.0
Co332 Co 0.2763 1.00017 0.52396 0.0
N333 N 0.30134 0.02137 0.50668 0.0
C334 C 0.32546 0.02099 0.51528 0.0
C335 C 0.33806 0.03879 0.50179 0.0
C336 C 0.32096 0.05156 0.48373 0.0
C337 C 0.2988 0.04058 0.48692 0.0
N338 N 0.25123 0.01749 0.49522 0.0
C339 C 0.25349 0.03584 0.47463 0.0
C340 C 0.23145 0.04118 0.45759 0.0
C341 C 0.21461 0.02617 0.46839 0.0
C342 C 0.22728 0.01234 0.49099 0.0
N343 N 0.25103 0.98016 0.54284 0.0
C344 C 0.22675 0.98192 0.53615 0.0
C345 C 0.21381 0.96571 0.55204 0.0
C346 C 0.23077 0.95283 0.57008 0.0
C347 C 0.25329 0.96206 0.56439 0.0
N348 N 0.27361 0.0247 0.56061 0.0
C349 C 0.26959 0.06044 0.61142 0.0
C350 C 0.2495 0.05345 0.58998 0.0
C351 C 0.25184 0.03557 0.56512 0.0
C352 C 0.29168 0.04903 0.60748 0.0
C353 C 0.29333 0.03143 0.58188 0.0
N354 N 0.27901 0.97553 0.4872 0.0
C355 C 0.26096 0.94319 0.45107 0.0
C356 C 0.28237 0.93975 0.43575 0.0
C357 C 0.30224 0.9545 0.44693 0.0
C358 C 0.30025 0.97201 0.47267 0.0
C359 C 0.25958 0.96117 0.47596 0.0
H360 H 0.31615 0.98242 0.48036 0.0
H361 H 0.2425 0.96284 0.48574 0.0
H362 H 0.23577 0.03091 0.54977 0.0
H363 H 0.31077 0.02368 0.57963 0.0
C364 C 0.33571 0.00328 0.53544 0.0
C365 C 0.27626 0.95223 0.57871 0.0
C366 C 0.27583 0.04924 0.47111 0.0
C367 C 0.21689 0.99638 0.51123 0.0
H368 H 0.32533 0.94134 0.60207 0.0
H369 H 0.35807 0.96844 0.57752 0.0
H370 H 0.35738 0.0422 0.5049 0.0
H371 H 0.32446 0.06729 0.47001 0.0
H372 H 0.22779 0.05482 0.4396 0.0
H373 H 0.19532 0.02587 0.46132 0.0
H374 H 0.19441 0.96279 0.54954 0.0
H375 H 0.22682 0.93778 0.58479 0.0
H376 H 0.23195 0.06167 0.59253 0.0
H377 H 0.3077 0.05404 0.6236 0.0
H378 H 0.24517 0.93186 0.44429 0.0
H379 H 0.31924 0.95273 0.43585 0.0
C380 C 0.54077 0.79803 0.06521 0.0
C381 C 0.55155 0.81935 0.07903 0.0
C382 C 0.54516 0.83727 0.05781 0.0
C383 C 0.53086 0.82599 0.03231 0.0
N384 N 0.52757 0.80214 0.0364 0.0
Co385 Co 0.50905 0.77914 0.00461 0.0
N386 N 0.4924 0.80603 0.98131 0.0
C387 C 0.49956 0.82938 0.9827 0.0
C388 C 0.48388 0.84378 0.96429 0.0
C389 C 0.46578 0.82845 0.95053 0.0
C390 C 0.47151 0.80553 0.96137 0.0
N391 N 0.49071 0.75629 0.97262 0.0
C392 C 0.47003 0.76004 0.9534 0.0
C393 C 0.46294 0.73915 0.93455 0.0
C394 C 0.47993 0.72177 0.94247 0.0
C395 C 0.49636 0.73299 0.96558 0.0
N396 N 0.5256 0.75206 0.02772 0.0
C397 C 0.52719 0.729 0.01544 0.0
C398 C 0.54013 0.71426 0.03668 0.0
C399 C 0.54746 0.72903 0.06377 0.0
C400 C 0.53863 0.75211 0.05748 0.0
N401 N 0.48287 0.77816 0.0337 0.0
C402 C 0.44173 0.77683 0.06895 0.0
C403 C 0.45191 0.75538 0.05649 0.0
C404 C 0.47244 0.75643 0.03909 0.0
C405 C 0.45326 0.79892 0.06455 0.0
C406 C 0.47379 0.79919 0.0469 0.0
N407 N 0.53514 0.78 0.97515 0.0
C408 C 0.57739 0.77591 0.96653 0.0
C409 C 0.57212 0.77765 0.9325 0.0
C410 C 0.54806 0.78135 0.9203 0.0
C411 C 0.52982 0.78229 0.94198 0.0
C412 C 0.55874 0.77738 0.98741 0.0
H413 H 0.51135 0.78435 0.93178 0.0
H414 H 0.56345 0.77592 0.01344 0.0
H415 H 0.47948 0.73965 0.02921 0.0
H416 H 0.48189 0.81648 0.04309 0.0
C417 C 0.51801 0.8376 0.00636 0.0
C418 C 0.54582 0.77397 0.0782 0.0
C419 C 0.45756 0.78341 0.95145 0.0
C420 C 0.51395 0.72129 0.98585 0.0
H421 H 0.56327 0.82158 0.1017 0.0
H422 H 0.55005 0.8563 0.06091 0.0
H423 H 0.48479 0.86328 0.96245 0.0
H424 H 0.45012 0.83356 0.93459 0.0
H425 H 0.44711 0.73672 0.91711 0.0
H426 H 0.4796 0.7029 0.9337 0.0
H427 H 0.54354 0.69501 0.03314 0.0
H428 H 0.55866 0.72359 0.08528 0.0
H429 H 0.44396 0.73783 0.05989 0.0
H430 H 0.44602 0.81597 0.07366 0.0
H431 H 0.59583 0.77329 0.97694 0.0
H432 H 0.54326 0.78268 0.89408 0.0
C433 C 0.21388 0.53655 0.06979 0.0
C434 C 0.19116 0.5446 0.07715 0.0
C435 C 0.17467 0.53152 0.05658 0.0
C436 C 0.18822 0.51645 0.0378 0.0
N437 N 0.21237 0.5187 0.04556 0.0
Co438 Co 0.23873 0.50223 0.02217 0.0
N439 N 0.21456 0.48469 0.98982 0.0
C440 C 0.19017 0.48524 0.98985 0.0
C441 C 0.1783 0.47013 0.96602 0.0
C442 C 0.19617 0.459 0.94999 0.0
C443 C 0.21803 0.4682 0.96486 0.0
N444 N 0.26514 0.48681 0.99795 0.0
C445 C 0.26377 0.4714 0.9709 0.0
C446 C 0.28655 0.46611 0.96078 0.0
C447 C 0.30293 0.47819 0.98267 0.0
C448 C 0.28928 0.49031 0.00461 0.0
N449 N 0.26287 0.51886 0.05531 0.0
C450 C 0.28719 0.51603 0.05796 0.0
C451 C 0.29891 0.52975 0.08354 0.0
C452 C 0.28102 0.54233 0.09779 0.0
C453 C 0.2594 0.53561 0.07983 0.0
N454 N 0.23838 0.47406 0.05129 0.0
C455 C 0.2383 0.4343 0.09305 0.0
C456 C 0.25974 0.4426 0.08164 0.0
C457 C 0.25938 0.46222 0.06108 0.0
C458 C 0.21683 0.44623 0.08284 0.0
C459 C 0.21727 0.46583 0.06217 0.0
N460 N 0.23915 0.53032 0.99317 0.0
C461 C 0.26097 0.56285 0.97074 0.0
C462 C 0.24022 0.5699 0.95157 0.0
C463 C 0.21884 0.55682 0.95375 0.0
C464 C 0.21865 0.5374 0.97474 0.0
C465 C 0.26009 0.54316 0.99101 0.0
H466 H 0.2017 0.52841 0.97571 0.0
H467 H 0.27666 0.53862 0.00463 0.0
H468 H 0.2764 0.46738 0.05334 0.0
H469 H 0.20026 0.47401 0.05538 0.0
C470 C 0.17892 0.50049 0.01215 0.0
C471 C 0.23641 0.54728 0.08502 0.0
C472 C 0.2416 0.46007 0.95531 0.0
C473 C 0.29861 0.5033 0.03325 0.0
H474 H 0.18692 0.5588 0.09499 0.0
H475 H 0.15515 0.53324 0.05491 0.0
H476 H 0.15895 0.46737 0.96107 0.0
H477 H 0.19331 0.44544 0.92991 0.0
H478 H 0.29086 0.45422 0.94017 0.0
H479 H 0.32248 0.47765 0.98309 0.0
H480 H 0.31823 0.53139 0.08996 0.0
H481 H 0.28361 0.55572 0.11818 0.0
H482 H 0.27685 0.43376 0.08811 0.0
H483 H 0.1997 0.4407 0.09105 0.0
H484 H 0.27805 0.57221 0.9697 0.0
H485 H 0.20221 0.56175 0.93968 0.0
C486 C 0.46056 0.25362 0.99355 0.0
C487 C 0.45051 0.2761 0.98654 0.0
C488 C 0.46443 0.29316 0.00469 0.0
C489 C 0.48193 0.28025 0.02199 0.0
N490 N 0.48029 0.25592 0.01575 0.0
Co491 Co 0.50068 0.23038 0.03828 0.0
N492 N 0.52033 0.25554 0.06619 0.0
C493 C 0.51791 0.27994 0.06552 0.0
C494 C 0.53434 0.29263 0.08691 0.0
C495 C 0.54845 0.27534 0.10174 0.0
C496 C 0.53985 0.253 0.08831 0.0
N497 N 0.52052 0.20483 0.06165 0.0
C498 C 0.53991 0.20706 0.08445 0.0
C499 C 0.54878 0.18452 0.09334 0.0
C500 C 0.53456 0.16748 0.07555 0.0
C501 C 0.51794 0.18047 0.05677 0.0
N502 N 0.48152 0.20526 0.00967 0.0
C503 C 0.485 0.18097 0.00889 0.0
C504 C 0.46928 0.16831 0.98643 0.0
C505 C 0.45471 0.18552 0.97216 0.0
C506 C 0.46231 0.20776 0.987 0.0
N507 N 0.52454 0.23167 0.00454 0.0
C508 C 0.56037 0.23433 0.95982 0.0
C509 C 0.55494 0.21231 0.97294 0.0
C510 C 0.53681 0.21131 0.99468 0.0
C511 C 0.54736 0.25487 0.96879 0.0
C512 C 0.52985 0.25322 0.99124 0.0
N513 N 0.47681 0.22915 0.07193 0.0
C514 C 0.44852 0.20667 0.10106 0.0
C515 C 0.43966 0.22819 0.11497 0.0
C516 C 0.45036 0.25005 0.10808 0.0
C517 C 0.46889 0.2501 0.08701 0.0
C518 C 0.4669 0.20756 0.07962 0.0
H519 H 0.47622 0.26738 0.08291 0.0
H520 H 0.47246 0.19061 0.06906 0.0
H521 H 0.53326 0.19389 0.00345 0.0
H522 H 0.52115 0.26974 0.9978 0.0
C523 C 0.49986 0.2904 0.04478 0.0
C524 C 0.45022 0.2306 0.9794 0.0
C525 C 0.55142 0.23001 0.0966 0.0
C526 C 0.5017 0.17046 0.03156 0.0
H527 H 0.4345 0.27992 0.9705 0.0
H528 H 0.46178 0.31264 0.0057 0.0
H529 H 0.53597 0.31213 0.09104 0.0
H530 H 0.56358 0.27879 0.12008 0.0
H531 H 0.5644 0.18065 0.11007 0.0
H532 H 0.53678 0.14796 0.07522 0.0
H533 H 0.4681 0.14883 0.98168 0.0
H534 H 0.43985 0.18206 0.9534 0.0
H535 H 0.56463 0.19594 0.96641 0.0
H536 H 0.55121 0.27233 0.95926 0.0
H537 H 0.44075 0.18929 0.10579 0.0
H538 H 0.44435 0.26715 0.1188 0.0
C539 C 0.7517 0.54967 0.07382 0.0
C540 C 0.72904 0.55996 0.07704 0.0
C541 C 0.71254 0.54558 0.0585 0.0
C542 C 0.72593 0.52772 0.04436 0.0
N543 N 0.75002 0.52972 0.05272 0.0
Co544 Co 0.77589 0.51036 0.03213 0.0
N545 N 0.75143 0.48845 0.00612 0.0
C546 C 0.7272 0.48896 0.00797 0.0
C547 C 0.71512 0.46954 0.99203 0.0
C548 C 0.73268 0.45567 0.97921 0.0
C549 C 0.75457 0.46786 0.98723 0.0
N550 N 0.80164 0.49197 0.00984 0.0
C551 C 0.79989 0.47326 0.98663 0.0
C552 C 0.82227 0.46792 0.97523 0.0
C553 C 0.83876 0.48314 0.99257 0.0
C554 C 0.82557 0.49721 0.01306 0.0
N555 N 0.80037 0.53107 0.06009 0.0
C556 C 0.82471 0.52889 0.06095 0.0
C557 C 0.83705 0.54375 0.08466 0.0
C558 C 0.81956 0.55622 0.09991 0.0
C559 C 0.7974 0.54861 0.0841 0.0
N560 N 0.77722 0.48702 0.0676 0.0
C561 C 0.77819 0.44932 0.11186 0.0
C562 C 0.79951 0.4576 0.10015 0.0
C563 C 0.79862 0.47629 0.07819 0.0
C564 C 0.75659 0.46133 0.10252 0.0
C565 C 0.75656 0.48014 0.0808 0.0
N566 N 0.77457 0.53377 0.99639 0.0
C567 C 0.79288 0.56615 0.969 0.0
C568 C 0.77171 0.56909 0.94831 0.0
C569 C 0.75226 0.55348 0.95144 0.0
C570 C 0.75402 0.53618 0.97544 0.0
C571 C 0.79398 0.54845 0.99244 0.0
H572 H 0.73838 0.52514 0.97665 0.0
H573 H 0.8107 0.54729 0.0073 0.0
H574 H 0.8154 0.48138 0.06949 0.0
H575 H 0.73949 0.4884 0.07423 0.0
C576 C 0.71632 0.50811 0.02461 0.0
C577 C 0.77412 0.55916 0.09184 0.0
C578 C 0.77764 0.45966 0.97539 0.0
C579 C 0.83532 0.51381 0.03773 0.0
H580 H 0.72469 0.57622 0.09124 0.0
H581 H 0.69308 0.54785 0.0557 0.0
H582 H 0.69588 0.46575 0.9903 0.0
H583 H 0.72949 0.43847 0.96558 0.0
H584 H 0.82642 0.45427 0.9566 0.0
H585 H 0.85813 0.48356 0.99088 0.0
H586 H 0.85647 0.54548 0.09003 0.0
H587 H 0.82286 0.56958 0.12017 0.0
H588 H 0.8168 0.44937 0.10732 0.0
H589 H 0.73953 0.45564 0.11075 0.0
H590 H 0.80844 0.57784 0.96779 0.0
H591 H 0.73562 0.55458 0.9355 0.0
C592 C 0.17829 0.22464 0.3839 0.0
C593 C 0.19103 0.24003 0.36492 0.0
C594 C 0.15847 0.23295 0.40034 0.0
C595 C 0.15042 0.25714 0.39705 0.0
C596 C 0.16291 0.27282 0.37777 0.0
C597 C 0.18318 0.26417 0.36217 0.0
C598 C 0.14589 0.2156 0.42088 0.0
C599 C 0.1546 0.2986 0.37317 0.0
C600 C 0.08452 0.26405 0.41449 0.0
C601 C 0.08667 0.2732 0.44733 0.0
C602 C 0.10507 0.2604 0.39702 0.0
C603 C 0.12841 0.26539 0.41309 0.0
C604 C 0.13058 0.27554 0.44591 0.0
C605 C 0.10963 0.27956 0.46253 0.0
C606 C 0.10186 0.25006 0.36188 0.0
C607 C 0.15507 0.28066 0.46422 0.0
H608 H 0.18341 0.20575 0.38545 0.0
H609 H 0.19283 0.27631 0.34778 0.0
H610 H 0.14472 0.22372 0.44616 0.0
H611 H 0.1271 0.21215 0.40985 0.0
H612 H 0.15539 0.1979 0.42275 0.0
H613 H 0.16641 0.30862 0.35778 0.0
H614 H 0.1358 0.29857 0.36124 0.0
H615 H 0.15435 0.30855 0.39749 0.0
H616 H 0.06673 0.25926 0.40269 0.0
H617 H 0.11129 0.28646 0.48803 0.0
H618 H 0.1083 0.231 0.36089 0.0
H619 H 0.11285 0.26046 0.34591 0.0
H620 H 0.08261 0.25028 0.35157 0.0
H621 H 0.16444 0.26323 0.46904 0.0
H622 H 0.15364 0.29085 0.48819 0.0
H623 H 0.16656 0.2912 0.44908 0.0
C624 C 0.7841 0.17401 0.35611 0.0
C625 C 0.76983 0.18775 0.33367 0.0
C626 C 0.77406 0.15531 0.37258 0.0
C627 C 0.74921 0.14951 0.36576 0.0
C628 C 0.73466 0.16295 0.34284 0.0
C629 C 0.74509 0.18209 0.3273 0.0
C630 C 0.79021 0.14162 0.39713 0.0
C631 C 0.7082 0.15691 0.33449 0.0
C632 C 0.7367 0.08542 0.38909 0.0
C633 C 0.72859 0.08962 0.42042 0.0
C634 C 0.74155 0.10487 0.3697 0.0
C635 C 0.73892 0.12901 0.38251 0.0
C636 C 0.72961 0.13324 0.41357 0.0
C637 C 0.72432 0.1134 0.43206 0.0
C638 C 0.7509 0.09958 0.3364 0.0
C639 C 0.72704 0.15865 0.42844 0.0
H640 H 0.80337 0.17754 0.36052 0.0
H641 H 0.73383 0.19262 0.31019 0.0
H642 H 0.78234 0.14194 0.42127 0.0
H643 H 0.79148 0.12233 0.38836 0.0
H644 H 0.80881 0.14934 0.40102 0.0
H645 H 0.69939 0.16899 0.31598 0.0
H646 H 0.70625 0.13781 0.3246 0.0
H647 H 0.69841 0.15848 0.35708 0.0
H648 H 0.73994 0.06693 0.38022 0.0
H649 H 0.71824 0.11651 0.45649 0.0
H650 H 0.77053 0.10387 0.33786 0.0
H651 H 0.74163 0.11115 0.31767 0.0
H652 H 0.74831 0.08022 0.3279 0.0
H653 H 0.74531 0.16653 0.43546 0.0
H654 H 0.71689 0.15893 0.45077 0.0
H655 H 0.71765 0.17052 0.41021 0.0
C656 C 0.82342 0.7743 0.38397 0.0
C657 C 0.81142 0.76245 0.35574 0.0
C658 C 0.84724 0.76839 0.39518 0.0
C659 C 0.85923 0.74927 0.37889 0.0
C660 C 0.84717 0.73665 0.35103 0.0
C661 C 0.82362 0.74368 0.33942 0.0
C662 C 0.85957 0.78271 0.4246 0.0
C663 C 0.85904 0.7156 0.3337 0.0
C664 C 0.92776 0.75115 0.39485 0.0
C665 C 0.93132 0.73807 0.42349 0.0
C666 C 0.90445 0.75414 0.37909 0.0
C667 C 0.88441 0.74278 0.3914 0.0
C668 C 0.88835 0.72761 0.41845 0.0
C669 C 0.91173 0.72577 0.43453 0.0
C670 C 0.90108 0.77102 0.35098 0.0
C671 C 0.86768 0.71438 0.43155 0.0
H672 H 0.81416 0.78813 0.39784 0.0
H673 H 0.81483 0.73442 0.31749 0.0
H674 H 0.86328 0.7707 0.4455 0.0
H675 H 0.87725 0.78986 0.41845 0.0
H676 H 0.84844 0.79822 0.43291 0.0
H677 H 0.84679 0.70685 0.31347 0.0
H678 H 0.87559 0.72188 0.32321 0.0
H679 H 0.86475 0.70175 0.35166 0.0
H680 H 0.94307 0.76034 0.38608 0.0
H681 H 0.91456 0.7154 0.45648 0.0
H682 H 0.89148 0.7876 0.35923 0.0
H683 H 0.88973 0.76235 0.32985 0.0
H684 H 0.91862 0.77656 0.34235 0.0
H685 H 0.85658 0.7275 0.44518 0.0
H686 H 0.87423 0.70019 0.44859 0.0
H687 H 0.8557 0.70575 0.41097 0.0
C688 C 0.2637 0.81564 0.33947 0.0
C689 C 0.25923 0.81722 0.30517 0.0
C690 C 0.27382 0.83524 0.35922 0.0
C691 C 0.28078 0.85639 0.34411 0.0
C692 C 0.28023 0.85636 0.30935 0.0
C693 C 0.26891 0.83702 0.29018 0.0
C694 C 0.27449 0.8343 0.39627 0.0
C695 C 0.28947 0.87776 0.2924 0.0
C696 C 0.26282 0.91477 0.38772 0.0
C697 C 0.2836 0.9205 0.40893 0.0
C698 C 0.26198 0.89426 0.36604 0.0
C699 C 0.28295 0.87977 0.36396 0.0
C700 C 0.30474 0.88672 0.38287 0.0
C701 C 0.30468 0.90673 0.40569 0.0
C702 C 0.23816 0.88746 0.34672 0.0
C703 C 0.32791 0.87265 0.38033 0.0
H704 H 0.25753 0.79984 0.35119 0.0
H705 H 0.26608 0.83848 0.26371 0.0
H706 H 0.29272 0.83944 0.40789 0.0
H707 H 0.26138 0.84758 0.40574 0.0
H708 H 0.26985 0.81599 0.40414 0.0
H709 H 0.29365 0.87254 0.26683 0.0
H710 H 0.27548 0.89216 0.29109 0.0
H711 H 0.30601 0.88555 0.30642 0.0
H712 H 0.24675 0.92588 0.38882 0.0
H713 H 0.32095 0.91095 0.42172 0.0
H714 H 0.23273 0.86882 0.35227 0.0
H715 H 0.24009 0.88752 0.31988 0.0
H716 H 0.22331 0.90009 0.35246 0.0
H717 H 0.32979 0.85941 0.40002 0.0
H718 H 0.34384 0.88502 0.38414 0.0
H719 H 0.32832 0.8626 0.35609 0.0
C720 C 0.18281 0.73798 0.67281 0.0
C721 C 0.18667 0.76086 0.6892 0.0
C722 C 0.16038 0.73184 0.65556 0.0
C723 C 0.14141 0.74907 0.65433 0.0
C724 C 0.1446 0.77147 0.67282 0.0
C725 C 0.16711 0.777 0.69022 0.0
C726 C 0.1576 0.70759 0.63666 0.0
C727 C 0.12486 0.79036 0.67226 0.0
C728 C 0.09875 0.74986 0.57605 0.0
C729 C 0.07751 0.74008 0.5862 0.0
C730 C 0.11971 0.75257 0.59792 0.0
C731 C 0.11949 0.74502 0.63066 0.0
C732 C 0.09822 0.73444 0.64071 0.0
C733 C 0.07737 0.73225 0.61836 0.0
C734 C 0.14191 0.76409 0.58618 0.0
C735 C 0.09736 0.72588 0.6752 0.0
H736 H 0.19778 0.72541 0.67156 0.0
H737 H 0.16978 0.79454 0.70331 0.0
H738 H 0.13998 0.69906 0.64035 0.0
H739 H 0.15785 0.7103 0.60989 0.0
H740 H 0.1724 0.69488 0.64419 0.0
H741 H 0.12921 0.80568 0.6906 0.0
H742 H 0.12228 0.79775 0.64734 0.0
H743 H 0.1074 0.78213 0.67729 0.0
H744 H 0.09872 0.75592 0.55112 0.0
H745 H 0.06082 0.72477 0.62611 0.0
H746 H 0.15757 0.75162 0.58927 0.0
H747 H 0.14668 0.78097 0.60136 0.0
H748 H 0.13918 0.76867 0.55986 0.0
H749 H 0.11257 0.71328 0.68115 0.0
H750 H 0.08004 0.7165 0.67841 0.0
H751 H 0.09953 0.74161 0.6933 0.0
C752 C 0.2575 0.1729 0.74155 0.0
C753 C 0.23341 0.17262 0.74928 0.0
C754 C 0.26683 0.15344 0.72311 0.0
C755 C 0.25166 0.13334 0.71261 0.0
C756 C 0.22799 0.13217 0.72297 0.0
C757 C 0.21906 0.15198 0.74096 0.0
C758 C 0.29212 0.1554 0.71248 0.0
C759 C 0.21138 0.11089 0.71276 0.0
C760 C 0.25629 0.10179 0.62891 0.0
C761 C 0.2673 0.07983 0.63732 0.0
C762 C 0.25212 0.11977 0.6532 0.0
C763 C 0.25887 0.11552 0.68678 0.0
C764 C 0.27074 0.09368 0.69535 0.0
C765 C 0.27497 0.07608 0.67039 0.0
C766 C 0.23971 0.14297 0.64296 0.0
C767 C 0.278 0.08848 0.73089 0.0
H768 H 0.26846 0.18903 0.74794 0.0
H769 H 0.20043 0.15189 0.74715 0.0
H770 H 0.30187 0.13792 0.71499 0.0
H771 H 0.29106 0.15966 0.68605 0.0
H772 H 0.30283 0.16991 0.72703 0.0
H773 H 0.19504 0.11113 0.72671 0.0
H774 H 0.20539 0.11144 0.68607 0.0
H775 H 0.22103 0.09348 0.71656 0.0
H776 H 0.25067 0.10477 0.60324 0.0
H777 H 0.28341 0.059 0.67682 0.0
H778 H 0.25038 0.15897 0.65357 0.0
H779 H 0.22164 0.14409 0.65266 0.0
H780 H 0.23724 0.14413 0.61572 0.0
H781 H 0.28814 0.10409 0.74367 0.0
H782 H 0.28934 0.07193 0.73317 0.0
H783 H 0.2615 0.08588 0.74389 0.0
C784 C 0.81479 0.2737 0.69983 0.0
C785 C 0.81291 0.25278 0.7177 0.0
C786 C 0.8359 0.27864 0.68458 0.0
C787 C 0.85561 0.26225 0.68725 0.0
C788 C 0.85442 0.24201 0.70714 0.0
C789 C 0.83311 0.23753 0.72212 0.0
C790 C 0.83645 0.30048 0.66372 0.0
C791 C 0.87505 0.22418 0.71089 0.0
C792 C 0.89411 0.25534 0.6147 0.0
C793 C 0.91502 0.26863 0.62621 0.0
C794 C 0.87472 0.25325 0.63431 0.0
C795 C 0.87618 0.26469 0.66635 0.0
C796 C 0.89723 0.27809 0.67823 0.0
C797 C 0.91642 0.27988 0.65803 0.0
C798 C 0.85267 0.23866 0.62073 0.0
C799 C 0.89944 0.29058 0.71219 0.0
H800 H 0.7992 0.28545 0.696 0.0
H801 H 0.83184 0.22146 0.73618 0.0
H802 H 0.85371 0.31062 0.66938 0.0
H803 H 0.83535 0.29436 0.63726 0.0
H804 H 0.82115 0.31303 0.66754 0.0
H805 H 0.87248 0.21108 0.73016 0.0
H806 H 0.87647 0.21381 0.68708 0.0
H807 H 0.89249 0.2339 0.71727 0.0
H808 H 0.89302 0.24625 0.5904 0.0
H809 H 0.93239 0.29038 0.667 0.0
H810 H 0.83628 0.25023 0.62055 0.0
H811 H 0.84986 0.22343 0.63681 0.0
H812 H 0.8543 0.23106 0.59524 0.0
H813 H 0.88455 0.30387 0.71431 0.0
H814 H 0.91702 0.30024 0.71782 0.0
H815 H 0.89763 0.27707 0.73113 0.0
C816 C 0.73719 0.82452 0.70259 0.0
C817 C 0.7521 0.81097 0.68248 0.0
C818 C 0.72978 0.84813 0.69467 0.0
C819 C 0.73762 0.85833 0.66618 0.0
C820 C 0.75247 0.84462 0.64574 0.0
C821 C 0.75925 0.82111 0.65392 0.0
C822 C 0.71364 0.86215 0.71671 0.0
C823 C 0.76129 0.85475 0.61509 0.0
C824 C 0.70827 0.90881 0.6179 0.0
C825 C 0.72497 0.92779 0.62587 0.0
C826 C 0.71075 0.88667 0.63341 0.0
C827 C 0.73061 0.88332 0.65707 0.0
C828 C 0.74632 0.90305 0.6672 0.0
C829 C 0.74321 0.92511 0.65162 0.0
C830 C 0.69335 0.86621 0.62228 0.0
C831 C 0.76774 0.90024 0.69231 0.0
H832 H 0.73156 0.81679 0.72464 0.0
H833 H 0.7701 0.81053 0.63762 0.0
H834 H 0.723 0.87895 0.72718 0.0
H835 H 0.6969 0.8678 0.70212 0.0
H836 H 0.7085 0.85136 0.73735 0.0
H837 H 0.74562 0.8591 0.59751 0.0
H838 H 0.77149 0.87189 0.62164 0.0
H839 H 0.77322 0.84189 0.60234 0.0
H840 H 0.69414 0.91058 0.59801 0.0
H841 H 0.7558 0.9399 0.6586 0.0
H842 H 0.6884 0.85615 0.64363 0.0
H843 H 0.70218 0.85318 0.60551 0.0
H844 H 0.67653 0.87291 0.60883 0.0
H845 H 0.76245 0.89047 0.71372 0.0
H846 H 0.7758 0.91806 0.70133 0.0
H847 H 0.78187 0.88927 0.68088 0.0
C848 C 0.82912 0.72963 0.68555 0.0
C849 C 0.81351 0.74669 0.67053 0.0
C850 C 0.85145 0.72388 0.673 0.0
C851 C 0.85828 0.73557 0.64498 0.0
C852 C 0.84224 0.75225 0.62929 0.0
C853 C 0.82006 0.75736 0.64199 0.0
C854 C 0.86791 0.70566 0.69001 0.0
C855 C 0.84869 0.76517 0.59935 0.0
C856 C 0.92323 0.74579 0.62644 0.0
C857 C 0.92495 0.73011 0.5985 0.0
C858 C 0.90215 0.74665 0.64321 0.0
C859 C 0.88236 0.73121 0.63213 0.0
C860 C 0.88462 0.71411 0.60548 0.0
C861 C 0.90578 0.71389 0.58884 0.0
C862 C 0.90048 0.76525 0.67141 0.0
C863 C 0.86409 0.6971 0.59313 0.0
H864 H 0.82416 0.72124 0.7075 0.0
H865 H 0.80779 0.76997 0.62955 0.0
H866 H 0.87328 0.69145 0.67185 0.0
H867 H 0.88474 0.71484 0.701 0.0
H868 H 0.8592 0.69679 0.70985 0.0
H869 H 0.83416 0.77764 0.59009 0.0
H870 H 0.86557 0.77589 0.60552 0.0
H871 H 0.85214 0.75173 0.57914 0.0
H872 H 0.93813 0.75797 0.6347 0.0
H873 H 0.90672 0.70178 0.56721 0.0
H874 H 0.8936 0.75676 0.69287 0.0
H875 H 0.88744 0.7796 0.66364 0.0
H876 H 0.91824 0.77398 0.67939 0.0
H877 H 0.85619 0.68886 0.61406 0.0
H878 H 0.87006 0.68233 0.57615 0.0
H879 H 0.84952 0.70745 0.57965 0.0
C880 C 0.23901 0.82932 0.65031 0.0
C881 C 0.25204 0.82129 0.67902 0.0
C882 C 0.24492 0.85102 0.63624 0.0
C883 C 0.26525 0.86476 0.64994 0.0
C884 C 0.27926 0.85637 0.67794 0.0
C885 C 0.2723 0.83499 0.69244 0.0
C886 C 0.22914 0.85935 0.60675 0.0
C887 C 0.30158 0.87 0.6926 0.0
C888 C 0.28659 0.90857 0.58897 0.0
C889 C 0.27618 0.93049 0.59945 0.0
C890 C 0.28475 0.88743 0.60663 0.0
C891 C 0.27139 0.88795 0.63477 0.0
C892 C 0.26156 0.91029 0.64605 0.0
C893 C 0.26454 0.93136 0.62866 0.0
C894 C 0.29631 0.8643 0.59435 0.0
C895 C 0.24654 0.91165 0.67523 0.0
H896 H 0.22404 0.81859 0.63847 0.0
H897 H 0.28263 0.8292 0.71448 0.0
H898 H 0.22274 0.87814 0.61177 0.0
H899 H 0.23977 0.85963 0.58498 0.0
H900 H 0.21309 0.84741 0.60035 0.0
H901 H 0.31158 0.86018 0.71272 0.0
H902 H 0.31394 0.87295 0.67316 0.0
H903 H 0.29645 0.88815 0.70265 0.0
H904 H 0.29572 0.90785 0.56648 0.0
H905 H 0.25672 0.94836 0.63699 0.0
H906 H 0.28208 0.85168 0.58278 0.0
H907 H 0.30602 0.85505 0.61519 0.0
H908 H 0.30927 0.86775 0.57579 0.0
H909 H 0.22969 0.90086 0.66916 0.0
H910 H 0.24151 0.93061 0.68219 0.0
H911 H 0.25651 0.90366 0.69689 0.0
C912 C 0.17263 0.23356 0.69339 0.0
C913 C 0.17375 0.23905 0.72763 0.0
C914 C 0.15263 0.24005 0.67215 0.0
C915 C 0.1341 0.25457 0.68461 0.0
C916 C 0.13634 0.26254 0.71841 0.0
C917 C 0.15559 0.25403 0.73964 0.0
C918 C 0.15129 0.23062 0.63653 0.0
C919 C 0.11834 0.27961 0.73292 0.0
C920 C 0.09196 0.27792 0.61406 0.0
C921 C 0.07067 0.26486 0.61717 0.0
C922 C 0.11222 0.27616 0.63716 0.0
C923 C 0.11175 0.25965 0.66278 0.0
C924 C 0.0901 0.24663 0.66612 0.0
C925 C 0.06956 0.25039 0.64431 0.0
C926 C 0.13388 0.29205 0.63346 0.0
C927 C 0.08846 0.22828 0.69218 0.0
H928 H 0.1871 0.22351 0.68287 0.0
H929 H 0.15582 0.25881 0.76575 0.0
H930 H 0.13249 0.2255 0.62703 0.0
H931 H 0.15761 0.24497 0.62117 0.0
H932 H 0.16306 0.2145 0.63327 0.0
H933 H 0.12801 0.29351 0.74989 0.0
H934 H 0.10683 0.28907 0.7139 0.0
H935 H 0.10655 0.26927 0.74792 0.0
H936 H 0.09267 0.28977 0.59369 0.0
H937 H 0.05272 0.24132 0.64795 0.0
H938 H 0.14305 0.28526 0.6117 0.0
H939 H 0.14716 0.29279 0.65554 0.0
H940 H 0.12783 0.31085 0.62856 0.0
H941 H 0.07355 0.21502 0.68525 0.0
H942 H 0.08463 0.23784 0.71571 0.0
H943 H 0.10561 0.21805 0.69646 0.0
C944 C 0.76396 0.16946 0.71011 0.0
C945 C 0.74843 0.1896 0.70812 0.0
C946 C 0.75847 0.14774 0.69142 0.0
C947 C 0.73661 0.14574 0.67063 0.0
C948 C 0.72 0.16532 0.67034 0.0
C949 C 0.72616 0.18705 0.68889 0.0
C950 C 0.77679 0.12743 0.69247 0.0
C951 C 0.69627 0.16378 0.64909 0.0
C952 C 0.73784 0.10318 0.59418 0.0
C953 C 0.72762 0.08191 0.60442 0.0
C954 C 0.74046 0.12416 0.61528 0.0
C955 C 0.73225 0.12404 0.64727 0.0
C956 C 0.72115 0.10279 0.6573 0.0
C957 C 0.71922 0.08188 0.63587 0.0
C958 C 0.75269 0.14623 0.60366 0.0
C959 C 0.71177 0.10198 0.69088 0.0
H960 H 0.781 0.17104 0.72536 0.0
H961 H 0.71406 0.20246 0.68689 0.0
H962 H 0.76809 0.11012 0.69777 0.0
H963 H 0.78402 0.12479 0.66799 0.0
H964 H 0.79222 0.13121 0.71138 0.0
H965 H 0.68401 0.17905 0.6549 0.0
H966 H 0.69975 0.16421 0.62273 0.0
H967 H 0.68689 0.14639 0.65232 0.0
H968 H 0.74431 0.10317 0.56983 0.0
H969 H 0.7114 0.06537 0.64382 0.0
H970 H 0.76944 0.15048 0.61996 0.0
H971 H 0.74065 0.16225 0.6052 0.0
H972 H 0.75758 0.14357 0.57786 0.0
H973 H 0.72712 0.10353 0.7103 0.0
H974 H 0.70175 0.08489 0.69382 0.0
H975 H 0.69959 0.1176 0.69507 0.0
C976 C 0.85292 0.23177 0.35156 0.0
C977 C 0.83763 0.24674 0.33213 0.0
C978 C 0.87402 0.24088 0.36938 0.0
C979 C 0.88032 0.26563 0.36756 0.0
C980 C 0.86557 0.28069 0.34692 0.0
C981 C 0.84433 0.27105 0.32941 0.0
C982 C 0.88922 0.22407 0.39092 0.0
C983 C 0.87185 0.30708 0.34409 0.0
C984 C 0.91904 0.28701 0.44463 0.0
C985 C 0.94237 0.28279 0.43503 0.0
C986 C 0.89859 0.28355 0.422 0.0
C987 C 0.9016 0.27558 0.38901 0.0
C988 C 0.92528 0.27319 0.37864 0.0
C989 C 0.94545 0.27669 0.40191 0.0
C990 C 0.87376 0.28621 0.43424 0.0
C991 C 0.92932 0.26497 0.34368 0.0
H992 H 0.84825 0.21278 0.35306 0.0
H993 H 0.83266 0.28269 0.31434 0.0
H994 H 0.9081 0.22369 0.38389 0.0
H995 H 0.88987 0.23085 0.4171 0.0
H996 H 0.88205 0.20519 0.38905 0.0
H997 H 0.85997 0.3157 0.32461 0.0
H998 H 0.86999 0.31715 0.36799 0.0
H999 H 0.89098 0.30894 0.33854 0.0
H1000 H 0.91674 0.29145 0.4704 0.0
H1001 H 0.96355 0.27324 0.39469 0.0
H1002 H 0.86572 0.26793 0.43597 0.0
H1003 H 0.86154 0.29631 0.41674 0.0
H1004 H 0.87444 0.29578 0.45897 0.0
H1005 H 0.92572 0.24517 0.3401 0.0
H1006 H 0.94821 0.26846 0.33801 0.0
H1007 H 0.91668 0.27427 0.32579 0.0
C1008 C 0.72347 0.82686 0.37091 0.0
C1009 C 0.74501 0.82429 0.35527 0.0
C1010 C 0.71741 0.84905 0.38679 0.0
C1011 C 0.7335 0.86909 0.38785 0.0
C1012 C 0.75466 0.867 0.37084 0.0
C1013 C 0.75992 0.84485 0.35436 0.0
C1014 C 0.6943 0.85067 0.40375 0.0
C1015 C 0.7725 0.88776 0.37153 0.0
C1016 C 0.71578 0.93368 0.41434 0.0
C1017 C 0.72492 0.93522 0.44761 0.0
C1018 C 0.71748 0.91198 0.3949 0.0
C1019 C 0.72932 0.89158 0.40877 0.0
C1020 C 0.73832 0.89304 0.44251 0.0
C1021 C 0.73572 0.9147 0.46157 0.0
C1022 C 0.70702 0.91105 0.35936 0.0
C1023 C 0.7515 0.87199 0.45823 0.0
H1024 H 0.71181 0.81123 0.37217 0.0
H1025 H 0.77626 0.84343 0.34165 0.0
H1026 H 0.69868 0.8514 0.43089 0.0
H1027 H 0.68437 0.86755 0.3975 0.0
H1028 H 0.68217 0.83484 0.39684 0.0
H1029 H 0.78762 0.88359 0.35601 0.0
H1030 H 0.76324 0.90438 0.3628 0.0
H1031 H 0.78023 0.89191 0.39728 0.0
H1032 H 0.70762 0.94961 0.40343 0.0
H1033 H 0.74283 0.9159 0.48728 0.0
H1034 H 0.69532 0.89475 0.35399 0.0
H1035 H 0.72187 0.90953 0.34284 0.0
H1036 H 0.69621 0.92747 0.35332 0.0
H1037 H 0.73975 0.8556 0.45585 0.0
H1038 H 0.75721 0.87595 0.4848 0.0
H1039 H 0.76784 0.86756 0.44524 0.0
C1040 C 0.16708 0.75268 0.29239 0.0
C1041 C 0.17907 0.77511 0.2983 0.0
C1042 C 0.14704 0.74694 0.30961 0.0
C1043 C 0.13904 0.76388 0.33362 0.0
C1044 C 0.15061 0.78679 0.33891 0.0
C1045 C 0.17015 0.79223 0.3209 0.0
C1046 C 0.13482 0.72253 0.30272 0.0
C1047 C 0.14284 0.80536 0.3644 0.0
C1048 C 0.07725 0.76089 0.36732 0.0
C1049 C 0.08298 0.75013 0.39749 0.0
C1050 C 0.09507 0.76437 0.34547 0.0
C1051 C 0.11932 0.75751 0.35441 0.0
C1052 C 0.12508 0.7463 0.38467 0.0
C1053 C 0.10679 0.74251 0.40566 0.0
C1054 C 0.08805 0.77587 0.31315 0.0
C1055 C 0.15077 0.7392 0.39554 0.0
H1056 H 0.17376 0.73933 0.275 0.0
H1057 H 0.17872 0.80992 0.32493 0.0
H1058 H 0.13794 0.71145 0.32469 0.0
H1059 H 0.11496 0.72485 0.29788 0.0
H1060 H 0.1417 0.71234 0.28127 0.0
H1061 H 0.15363 0.82241 0.36535 0.0
H1062 H 0.12345 0.8099 0.35898 0.0
H1063 H 0.14485 0.79771 0.38918 0.0
H1064 H 0.05877 0.76656 0.36083 0.0
H1065 H 0.11129 0.73434 0.42909 0.0
H1066 H 0.09483 0.76479 0.29243 0.0
H1067 H 0.09653 0.79411 0.31334 0.0
H1068 H 0.06811 0.7779 0.30838 0.0
H1069 H 0.15817 0.72713 0.37629 0.0
H1070 H 0.15208 0.72974 0.41908 0.0
H1071 H 0.16239 0.75568 0.39887 0.0
C1072 C 0.27262 0.17624 0.379 0.0
C1073 C 0.25254 0.17577 0.35552 0.0
C1074 C 0.27924 0.15549 0.39658 0.0
C1075 C 0.265 0.13403 0.39118 0.0
C1076 C 0.24516 0.13336 0.36665 0.0
C1077 C 0.23927 0.15418 0.34903 0.0
C1078 C 0.30079 0.15691 0.42199 0.0
C1079 C 0.22921 0.11111 0.36036 0.0
C1080 C 0.28626 0.07264 0.42251 0.0
C1081 C 0.27482 0.07171 0.45177 0.0
C1082 C 0.28403 0.09316 0.40315 0.0
C1083 C 0.26951 0.11298 0.41285 0.0
C1084 C 0.25814 0.11217 0.44264 0.0
C1085 C 0.26113 0.09168 0.46183 0.0
C1086 C 0.29682 0.09341 0.37199 0.0
C1087 C 0.24217 0.13263 0.45375 0.0
H1088 H 0.28261 0.19308 0.38441 0.0
H1089 H 0.22342 0.15403 0.33137 0.0
H1090 H 0.2945 0.15673 0.44708 0.0
H1091 H 0.31263 0.14087 0.41889 0.0
H1092 H 0.31168 0.17366 0.42038 0.0
H1093 H 0.21539 0.11298 0.33915 0.0
H1094 H 0.24032 0.09482 0.35543 0.0
H1095 H 0.21975 0.10791 0.38266 0.0
H1096 H 0.29669 0.05713 0.41455 0.0
H1097 H 0.25224 0.09095 0.48443 0.0
H1098 H 0.30759 0.11035 0.37174 0.0
H1099 H 0.28328 0.09314 0.35021 0.0
H1100 H 0.30905 0.07759 0.36934 0.0
H1101 H 0.25244 0.14998 0.45615 0.0
H1102 H 0.23498 0.12941 0.47776 0.0
H1103 H 0.22666 0.13483 0.43495 0.0
C1104 C 0.69216 0.76383 0.83897 0.0
C1105 C 0.68808 0.74986 0.80932 0.0
C1106 C 0.6728 0.77143 0.85695 0.0
C1107 C 0.64886 0.76431 0.84538 0.0
C1108 C 0.64457 0.75128 0.81452 0.0
C1109 C 0.66426 0.74438 0.7967 0.0
C1110 C 0.67813 0.78578 0.88932 0.0
C1111 C 0.61941 0.74298 0.80152 0.0
C1112 C 0.60649 0.75398 0.91174 0.0
C1113 C 0.59153 0.77444 0.90986 0.0
C1114 C 0.62491 0.75036 0.89055 0.0
C1115 C 0.62885 0.76792 0.86731 0.0
C1116 C 0.61387 0.78873 0.86541 0.0
C1117 C 0.59516 0.79161 0.88648 0.0
C1118 C 0.64014 0.72767 0.893 0.0
C1119 C 0.61783 0.80807 0.84149 0.0
H1120 H 0.71062 0.76801 0.84872 0.0
H1121 H 0.66115 0.73327 0.77399 0.0
H1122 H 0.6655 0.80131 0.89111 0.0
H1123 H 0.67545 0.77402 0.91002 0.0
H1124 H 0.69702 0.79281 0.89247 0.0
H1125 H 0.61876 0.73543 0.77565 0.0
H1126 H 0.61326 0.72871 0.81719 0.0
H1127 H 0.60641 0.75823 0.80269 0.0
H1128 H 0.6035 0.74057 0.92956 0.0
H1129 H 0.58366 0.80751 0.88517 0.0
H1130 H 0.65938 0.73264 0.89992 0.0
H1131 H 0.63927 0.71756 0.86867 0.0
H1132 H 0.63415 0.71539 0.91154 0.0
H1133 H 0.6364 0.81566 0.84656 0.0
H1134 H 0.60461 0.82315 0.84304 0.0
H1135 H 0.61632 0.80006 0.81586 0.0
C1136 C 0.27722 0.66749 0.82788 0.0
C1137 C 0.26205 0.68778 0.82536 0.0
C1138 C 0.27142 0.64771 0.84622 0.0
C1139 C 0.25001 0.64831 0.86284 0.0
C1140 C 0.23406 0.66834 0.85912 0.0
C1141 C 0.2403 0.6879 0.84042 0.0
C1142 C 0.28892 0.62677 0.84925 0.0
C1143 C 0.21109 0.66976 0.87638 0.0
C1144 C 0.23044 0.58866 0.89674 0.0
C1145 C 0.24111 0.59061 0.92936 0.0
C1146 C 0.23261 0.60749 0.875 0.0
C1147 C 0.24556 0.62895 0.88618 0.0
C1148 C 0.25566 0.63131 0.91941 0.0
C1149 C 0.25342 0.61214 0.94047 0.0
C1150 C 0.22173 0.6041 0.83977 0.0
C1151 C 0.26939 0.65392 0.93257 0.0
H1152 H 0.2942 0.66759 0.81655 0.0
H1153 H 0.22879 0.70378 0.8389 0.0
H1154 H 0.29733 0.62653 0.875 0.0
H1155 H 0.27922 0.60926 0.84363 0.0
H1156 H 0.30358 0.62802 0.83249 0.0
H1157 H 0.19941 0.68511 0.86823 0.0
H1158 H 0.2006 0.6526 0.8718 0.0
H1159 H 0.21572 0.67218 0.90341 0.0
H1160 H 0.22105 0.57203 0.88786 0.0
H1161 H 0.26139 0.61396 0.96576 0.0
H1162 H 0.2364 0.60337 0.8229 0.0
H1163 H 0.21006 0.61978 0.8331 0.0
H1164 H 0.21079 0.58717 0.83549 0.0
H1165 H 0.28593 0.65583 0.91942 0.0
H1166 H 0.27487 0.65356 0.95945 0.0
H1167 H 0.25813 0.67025 0.928 0.0
C1168 C 0.3216 0.23361 0.868 0.0
C1169 C 0.31039 0.25504 0.87885 0.0
C1170 C 0.34434 0.22657 0.88268 0.0
C1171 C 0.35629 0.24149 0.90845 0.0
C1172 C 0.34498 0.26298 0.91967 0.0
C1173 C 0.32211 0.26925 0.90514 0.0
C1174 C 0.35563 0.20327 0.87053 0.0
C1175 C 0.35712 0.27954 0.94693 0.0
C1176 C 0.406 0.22057 0.97077 0.0
C1177 C 0.4266 0.23041 0.95884 0.0
C1178 C 0.3831 0.22257 0.95337 0.0
C1179 C 0.38077 0.23512 0.92373 0.0
C1180 C 0.40178 0.24405 0.91085 0.0
C1181 C 0.42452 0.2413 0.9284 0.0
C1182 C 0.36126 0.21232 0.96759 0.0
C1183 C 0.4001 0.25788 0.87967 0.0
H1184 H 0.31277 0.22249 0.84773 0.0
H1185 H 0.31335 0.28538 0.91461 0.0
H1186 H 0.37282 0.20732 0.85985 0.0
H1187 H 0.36016 0.19146 0.89147 0.0
H1188 H 0.34349 0.19306 0.8515 0.0
H1189 H 0.34619 0.29597 0.95211 0.0
H1190 H 0.36024 0.26963 0.96995 0.0
H1191 H 0.37508 0.28544 0.94014 0.0
H1192 H 0.40774 0.212 0.99424 0.0
H1193 H 0.44058 0.24866 0.91914 0.0
H1194 H 0.34964 0.20197 0.94816 0.0
H1195 H 0.35023 0.2274 0.97728 0.0
H1196 H 0.36646 0.2002 0.98803 0.0
H1197 H 0.38921 0.24755 0.85949 0.0
H1198 H 0.41822 0.26172 0.8714 0.0
H1199 H 0.39077 0.27541 0.88402 0.0
C1200 C 0.74976 0.32939 0.8941 0.0
C1201 C 0.75077 0.32595 0.85975 0.0
C1202 C 0.75688 0.35133 0.91116 0.0
C1203 C 0.76811 0.36966 0.89454 0.0
C1204 C 0.77222 0.36508 0.86086 0.0
C1205 C 0.76276 0.34383 0.84367 0.0
C1206 C 0.75137 0.35483 0.94679 0.0
C1207 C 0.78599 0.38262 0.84214 0.0
C1208 C 0.7622 0.43625 0.92299 0.0
C1209 C 0.7781 0.43782 0.95179 0.0
C1210 C 0.75883 0.41432 0.90399 0.0
C1211 C 0.77362 0.39399 0.91187 0.0
C1212 C 0.79188 0.39655 0.93864 0.0
C1213 C 0.79316 0.41799 0.95903 0.0
C1214 C 0.73861 0.413 0.87651 0.0
C1215 C 0.80989 0.37673 0.94679 0.0
H1216 H 0.74243 0.31529 0.90792 0.0
H1217 H 0.76428 0.34185 0.81738 0.0
H1218 H 0.76734 0.34935 0.96304 0.0
H1219 H 0.74697 0.37399 0.95346 0.0
H1220 H 0.73588 0.34329 0.95207 0.0
H1221 H 0.77324 0.39145 0.82389 0.0
H1222 H 0.79583 0.39681 0.85836 0.0
H1223 H 0.79931 0.37253 0.8279 0.0
H1224 H 0.75109 0.45181 0.91658 0.0
H1225 H 0.8058 0.41904 0.98097 0.0
H1226 H 0.72977 0.39486 0.87389 0.0
H1227 H 0.7461 0.41669 0.85291 0.0
H1228 H 0.72448 0.42685 0.88064 0.0
H1229 H 0.80602 0.36889 0.97034 0.0
H1230 H 0.82843 0.3846 0.95079 0.0
H1231 H 0.80983 0.362 0.92721 0.0
C1232 C 0.68842 0.2256 0.17976 0.0
C1233 C 0.69357 0.24765 0.19778 0.0
C1234 C 0.66476 0.21996 0.1661 0.0
C1235 C 0.64592 0.23694 0.17004 0.0
C1236 C 0.6507 0.25847 0.18996 0.0
C1237 C 0.67436 0.26338 0.20394 0.0
C1238 C 0.66026 0.19649 0.14577 0.0
C1239 C 0.63122 0.27717 0.19466 0.0
C1240 C 0.59546 0.24039 0.10095 0.0
C1241 C 0.57589 0.23028 0.115 0.0
C1242 C 0.61839 0.24236 0.11849 0.0
C1243 C 0.62193 0.23355 0.15067 0.0
C1244 C 0.60232 0.22267 0.16461 0.0
C1245 C 0.5794 0.2215 0.14676 0.0
C1246 C 0.63865 0.25449 0.1029 0.0
C1247 C 0.60548 0.21261 0.19849 0.0
H1248 H 0.70306 0.21333 0.17468 0.0
H1249 H 0.67803 0.28018 0.21852 0.0
H1250 H 0.64355 0.18748 0.15228 0.0
H1251 H 0.65754 0.20038 0.11924 0.0
H1252 H 0.67566 0.18369 0.14926 0.0
H1253 H 0.63741 0.29206 0.21286 0.0
H1254 H 0.6257 0.28522 0.17071 0.0
H1255 H 0.61491 0.26857 0.20302 0.0
H1256 H 0.59263 0.24721 0.07639 0.0
H1257 H 0.56413 0.21387 0.15766 0.0
H1258 H 0.65421 0.24194 0.10157 0.0
H1259 H 0.64511 0.27075 0.11837 0.0
H1260 H 0.63293 0.26021 0.07762 0.0
H1261 H 0.62105 0.19993 0.2002 0.0
H1262 H 0.58904 0.20286 0.20457 0.0
H1263 H 0.60955 0.22759 0.21736 0.0
C1264 C 0.73552 0.68265 0.17627 0.0
C1265 C 0.73901 0.68569 0.21091 0.0
C1266 C 0.74361 0.66187 0.15924 0.0
C1267 C 0.7579 0.6445 0.17656 0.0
C1268 C 0.7638 0.64866 0.21102 0.0
C1269 C 0.75367 0.66865 0.22786 0.0
C1270 C 0.73604 0.65849 0.12269 0.0
C1271 C 0.78037 0.63203 0.23085 0.0
C1272 C 0.75764 0.57879 0.14232 0.0
C1273 C 0.77294 0.58004 0.11684 0.0
C1274 C 0.75277 0.59948 0.16223 0.0
C1275 C 0.76521 0.62159 0.15865 0.0
C1276 C 0.78272 0.62212 0.13526 0.0
C1277 C 0.78562 0.60171 0.11382 0.0
C1278 C 0.7335 0.59769 0.18599 0.0
C1279 C 0.79817 0.64422 0.13179 0.0
H1280 H 0.72577 0.69618 0.16207 0.0
H1281 H 0.75694 0.67034 0.25446 0.0
H1282 H 0.75065 0.66526 0.10862 0.0
H1283 H 0.73257 0.6391 0.11504 0.0
H1284 H 0.7194 0.66893 0.1156 0.0
H1285 H 0.79339 0.64297 0.24787 0.0
H1286 H 0.76951 0.62118 0.24646 0.0
H1287 H 0.79078 0.61954 0.21528 0.0
H1288 H 0.74821 0.56191 0.14526 0.0
H1289 H 0.79759 0.6029 0.09431 0.0
H1290 H 0.72218 0.61429 0.18655 0.0
H1291 H 0.74229 0.59547 0.21117 0.0
H1292 H 0.7214 0.58178 0.1795 0.0
H1293 H 0.79185 0.65308 0.10873 0.0
H1294 H 0.81722 0.63864 0.12943 0.0
H1295 H 0.79791 0.65765 0.15297 0.0
C1296 C 0.33063 0.74733 0.17145 0.0
C1297 C 0.30942 0.76002 0.16181 0.0
C1298 C 0.35259 0.75225 0.15835 0.0
C1299 C 0.35345 0.77041 0.13509 0.0
C1300 C 0.33246 0.78427 0.12671 0.0
C1301 C 0.31068 0.7789 0.14016 0.0
C1302 C 0.37453 0.7371 0.16811 0.0
C1303 C 0.33266 0.80388 0.10217 0.0
C1304 C 0.41587 0.79053 0.1142 0.0
C1305 C 0.41884 0.77605 0.0855 0.0
C1306 C 0.3945 0.7893 0.13031 0.0
C1307 C 0.37566 0.77324 0.11742 0.0
C1308 C 0.37839 0.75896 0.0881 0.0
C1309 C 0.39987 0.76058 0.07251 0.0
C1310 C 0.39226 0.80485 0.16145 0.0
C1311 C 0.35873 0.74167 0.0734 0.0
H1312 H 0.32987 0.73296 0.18856 0.0
H1313 H 0.29435 0.78868 0.13241 0.0
H1314 H 0.37921 0.72552 0.14654 0.0
H1315 H 0.39039 0.74897 0.17586 0.0
H1316 H 0.37145 0.72517 0.18854 0.0
H1317 H 0.3158 0.81482 0.10116 0.0
H1318 H 0.34838 0.81621 0.10848 0.0
H1319 H 0.33457 0.79548 0.07722 0.0
H1320 H 0.43047 0.80243 0.12449 0.0
H1321 H 0.40178 0.74972 0.04997 0.0
H1322 H 0.39102 0.79308 0.18256 0.0
H1323 H 0.37539 0.8157 0.15909 0.0
H1324 H 0.4079 0.8174 0.16724 0.0
H1325 H 0.35557 0.72765 0.09119 0.0
H1326 H 0.36338 0.73239 0.04996 0.0
H1327 H 0.34147 0.7516 0.06855 0.0
C1328 C 0.23997 0.32373 0.21877 0.0
C1329 C 0.25354 0.305 0.20486 0.0
C1330 C 0.23508 0.34534 0.20215 0.0
C1331 C 0.24388 0.34821 0.17088 0.0
C1332 C 0.25677 0.32894 0.1563 0.0
C1333 C 0.26131 0.30766 0.17332 0.0
C1334 C 0.22112 0.36535 0.21845 0.0
C1335 C 0.26641 0.33101 0.123 0.0
C1336 C 0.22002 0.39557 0.11087 0.0
C1337 C 0.23848 0.41323 0.11499 0.0
C1338 C 0.22091 0.37489 0.12996 0.0
C1339 C 0.24077 0.37161 0.15373 0.0
C1340 C 0.259 0.38977 0.1588 0.0
C1341 C 0.25761 0.41029 0.13951 0.0
C1342 C 0.20106 0.35606 0.12372 0.0
C1343 C 0.28051 0.3871 0.18381 0.0
H1344 H 0.23386 0.32181 0.24306 0.0
H1345 H 0.2713 0.29307 0.16199 0.0
H1346 H 0.23306 0.3814 0.22449 0.0
H1347 H 0.20576 0.37118 0.20131 0.0
H1348 H 0.21395 0.35968 0.24152 0.0
H1349 H 0.27533 0.31405 0.11455 0.0
H1350 H 0.25148 0.33535 0.10425 0.0
H1351 H 0.27977 0.34609 0.12422 0.0
H1352 H 0.20524 0.39745 0.0919 0.0
H1353 H 0.27171 0.424 0.14349 0.0
H1354 H 0.19425 0.35116 0.14733 0.0
H1355 H 0.20838 0.33927 0.11222 0.0
H1356 H 0.1856 0.36244 0.10713 0.0
H1357 H 0.27435 0.38339 0.20825 0.0
H1358 H 0.29221 0.40357 0.18653 0.0
H1359 H 0.29161 0.37139 0.17616 0.0
C1360 C 0.3163 0.22219 0.20309 0.0
C1361 C 0.3154 0.24203 0.22583 0.0
C1362 C 0.33758 0.21682 0.18781 0.0
C1363 C 0.35848 0.23148 0.19586 0.0
C1364 C 0.35821 0.25015 0.22103 0.0
C1365 C 0.33659 0.25538 0.23545 0.0
C1366 C 0.33694 0.19692 0.16093 0.0
C1367 C 0.38019 0.2659 0.23089 0.0
C1368 C 0.41839 0.21321 0.16219 0.0
C1369 C 0.41874 0.22819 0.13539 0.0
C1370 C 0.39892 0.21398 0.18222 0.0
C1371 C 0.37919 0.22975 0.1748 0.0
C1372 C 0.37929 0.24447 0.14726 0.0
C1373 C 0.39912 0.24364 0.12812 0.0
C1374 C 0.39967 0.19833 0.21163 0.0
C1375 C 0.35847 0.26125 0.13807 0.0
H1376 H 0.29983 0.21209 0.19528 0.0
H1377 H 0.33584 0.27079 0.25295 0.0
H1378 H 0.3365 0.20517 0.13659 0.0
H1379 H 0.35346 0.18557 0.16364 0.0
H1380 H 0.32078 0.18501 0.16095 0.0
H1381 H 0.37833 0.27684 0.25418 0.0
H1382 H 0.39675 0.25464 0.23404 0.0
H1383 H 0.38274 0.27853 0.21109 0.0
H1384 H 0.43362 0.20134 0.16795 0.0
H1385 H 0.39921 0.25501 0.10715 0.0
H1386 H 0.38328 0.18664 0.21011 0.0
H1387 H 0.39962 0.21003 0.2346 0.0
H1388 H 0.41597 0.18657 0.21354 0.0
H1389 H 0.34124 0.25082 0.13444 0.0
H1390 H 0.36091 0.27074 0.11515 0.0
H1391 H 0.35667 0.27512 0.15839 0.0
C1392 C 0.77386 0.32652 0.21277 0.0
C1393 C 0.7562 0.31209 0.19422 0.0
C1394 C 0.77976 0.34971 0.20287 0.0
C1395 C 0.76759 0.35865 0.17389 0.0
C1396 C 0.74984 0.34413 0.15508 0.0
C1397 C 0.74455 0.32101 0.16529 0.0
C1398 C 0.79899 0.36461 0.22329 0.0
C1399 C 0.73643 0.35296 0.124 0.0
C1400 C 0.76242 0.42545 0.15651 0.0
C1401 C 0.7781 0.42726 0.13152 0.0
C1402 C 0.75982 0.40353 0.172 0.0
C1403 C 0.77342 0.38301 0.16252 0.0
C1404 C 0.79043 0.38515 0.1389 0.0
C1405 C 0.79244 0.40718 0.12352 0.0
C1406 C 0.74144 0.40194 0.19703 0.0
C1407 C 0.80542 0.36375 0.12829 0.0
H1408 H 0.78289 0.31977 0.23519 0.0
H1409 H 0.73138 0.30976 0.15028 0.0
H1410 H 0.81376 0.3691 0.2079 0.0
H1411 H 0.79121 0.38205 0.23207 0.0
H1412 H 0.80689 0.35498 0.24501 0.0
H1413 H 0.72266 0.33967 0.11273 0.0
H1414 H 0.72721 0.37037 0.12952 0.0
H1415 H 0.74942 0.35644 0.10556 0.0
H1416 H 0.75164 0.44099 0.16336 0.0
H1417 H 0.80443 0.40821 0.10402 0.0
H1418 H 0.74949 0.39327 0.21941 0.0
H1419 H 0.72598 0.39041 0.18641 0.0
H1420 H 0.73434 0.42007 0.20442 0.0
H1421 H 0.81362 0.35448 0.1501 0.0
H1422 H 0.82011 0.36923 0.1133 0.0
H1423 H 0.7936 0.35036 0.1133 0.0
C1424 C 0.65024 0.72291 0.19862 0.0
C1425 C 0.66653 0.74009 0.21459 0.0
C1426 C 0.62939 0.73009 0.17954 0.0
C1427 C 0.62448 0.75513 0.17656 0.0
C1428 C 0.64005 0.77258 0.19424 0.0
C1429 C 0.66094 0.76485 0.21305 0.0
C1430 C 0.6133 0.71084 0.1612 0.0
C1431 C 0.63528 0.79943 0.19199 0.0
C1432 C 0.58975 0.76999 0.09558 0.0
C1433 C 0.56597 0.77167 0.10445 0.0
C1434 C 0.60905 0.7655 0.11912 0.0
C1435 C 0.60444 0.76278 0.15241 0.0
C1436 C 0.58046 0.76542 0.16167 0.0
C1437 C 0.56142 0.76972 0.13743 0.0
C1438 C 0.63423 0.76263 0.10805 0.0
C1439 C 0.57484 0.76287 0.1969 0.0
H1440 H 0.65415 0.70372 0.20036 0.0
H1441 H 0.67343 0.77821 0.22536 0.0
H1442 H 0.59417 0.71375 0.16636 0.0
H1443 H 0.61416 0.71215 0.13423 0.0
H1444 H 0.61868 0.6922 0.16794 0.0
H1445 H 0.64727 0.81049 0.21027 0.0
H1446 H 0.63835 0.80501 0.1669 0.0
H1447 H 0.61613 0.80355 0.19598 0.0
H1448 H 0.59309 0.77148 0.06992 0.0
H1449 H 0.54293 0.77103 0.14407 0.0
H1450 H 0.64054 0.74374 0.11151 0.0
H1451 H 0.64709 0.77489 0.1233 0.0
H1452 H 0.63495 0.76663 0.08169 0.0
H1453 H 0.57771 0.74378 0.20371 0.0
H1454 H 0.55586 0.76798 0.20071 0.0
H1455 H 0.58728 0.7744 0.21393 0.0
C1456 C 0.22884 0.68533 0.15287 0.0
C1457 C 0.25106 0.69225 0.16997 0.0
C1458 C 0.22426 0.66107 0.14205 0.0
C1459 C 0.24242 0.64342 0.14824 0.0
C1460 C 0.26428 0.65001 0.16719 0.0
C1461 C 0.26829 0.67435 0.17798 0.0
C1462 C 0.2006 0.65466 0.12221 0.0
C1463 C 0.28409 0.63169 0.17432 0.0
C1464 C 0.2285 0.57612 0.13229 0.0
C1465 C 0.2366 0.572 0.10094 0.0
C1466 C 0.2298 0.59945 0.1479 0.0
C1467 C 0.23975 0.61879 0.1318 0.0
C1468 C 0.24784 0.61458 0.09999 0.0
C1469 C 0.24611 0.59119 0.08492 0.0
C1470 C 0.22085 0.60333 0.18168 0.0
C1471 C 0.25871 0.63468 0.08207 0.0
H1472 H 0.2155 0.69906 0.14633 0.0
H1473 H 0.28531 0.67952 0.19172 0.0
H1474 H 0.20393 0.65079 0.09601 0.0
H1475 H 0.19264 0.63803 0.13118 0.0
H1476 H 0.1872 0.66961 0.12337 0.0
H1477 H 0.29893 0.63918 0.19207 0.0
H1478 H 0.27665 0.61524 0.18444 0.0
H1479 H 0.29187 0.62589 0.15102 0.0
H1480 H 0.22138 0.56105 0.14462 0.0
H1481 H 0.25244 0.58775 0.06068 0.0
H1482 H 0.20725 0.61812 0.18151 0.0
H1483 H 0.23612 0.60908 0.19987 0.0
H1484 H 0.21256 0.58665 0.1901 0.0
H1485 H 0.24564 0.64982 0.07906 0.0
H1486 H 0.2638 0.62839 0.05728 0.0
H1487 H 0.27512 0.64204 0.09681 0.0
C1488 C 0.32717 0.77676 0.84455 0.0
C1489 C 0.32456 0.75197 0.83555 0.0
C1490 C 0.34811 0.78555 0.86359 0.0
C1491 C 0.36689 0.76919 0.87319 0.0
C1492 C 0.3645 0.74426 0.86322 0.0
C1493 C 0.34333 0.73597 0.84473 0.0
C1494 C 0.34993 0.81218 0.87406 0.0
C1495 C 0.38422 0.72623 0.87237 0.0
C1496 C 0.43201 0.78784 0.89853 0.0
C1497 C 0.43356 0.78448 0.93247 0.0
C1498 C 0.40993 0.78449 0.87908 0.0
C1499 C 0.38902 0.77764 0.89408 0.0
C1500 C 0.39034 0.77565 0.92878 0.0
C1501 C 0.41271 0.77889 0.94755 0.0
C1502 C 0.40943 0.78654 0.84222 0.0
C1503 C 0.36848 0.76857 0.9458 0.0
H1504 H 0.31259 0.78908 0.83747 0.0
H1505 H 0.34139 0.71683 0.8374 0.0
H1506 H 0.35103 0.81438 0.90138 0.0
H1507 H 0.36674 0.82007 0.86611 0.0
H1508 H 0.33417 0.82266 0.86366 0.0
H1509 H 0.37988 0.70766 0.86161 0.0
H1510 H 0.4016 0.73214 0.86371 0.0
H1511 H 0.387 0.7254 0.8996 0.0
H1512 H 0.44835 0.79186 0.88701 0.0
H1513 H 0.41415 0.77611 0.97383 0.0
H1514 H 0.39363 0.79735 0.83289 0.0
H1515 H 0.40754 0.76814 0.82988 0.0
H1516 H 0.42621 0.79505 0.835 0.0
H1517 H 0.35253 0.77954 0.93735 0.0
H1518 H 0.37169 0.77098 0.97309 0.0
H1519 H 0.36393 0.74922 0.93933 0.0
C1520 C 0.23138 0.32953 0.86681 0.0
C1521 C 0.2527 0.32226 0.85293 0.0
C1522 C 0.22804 0.35368 0.87783 0.0
C1523 C 0.24666 0.37089 0.87554 0.0
C1524 C 0.26726 0.36421 0.85905 0.0
C1525 C 0.2699 0.34 0.84759 0.0
C1526 C 0.20553 0.36022 0.89463 0.0
C1527 C 0.28753 0.38203 0.85612 0.0
C1528 C 0.23488 0.43692 0.90061 0.0
C1529 C 0.24338 0.43761 0.93406 0.0
C1530 C 0.23599 0.41536 0.8809 0.0
C1531 C 0.24631 0.39436 0.89502 0.0
C1532 C 0.25557 0.39532 0.92863 0.0
C1533 C 0.25378 0.41691 0.94781 0.0
C1534 C 0.22563 0.41487 0.84534 0.0
C1535 C 0.26703 0.37343 0.94454 0.0
H1536 H 0.21798 0.31609 0.87137 0.0
H1537 H 0.28614 0.3347 0.83613 0.0
H1538 H 0.21013 0.36195 0.92173 0.0
H1539 H 0.19825 0.37795 0.8867 0.0
H1540 H 0.19112 0.3462 0.88936 0.0
H1541 H 0.30024 0.37527 0.83817 0.0
H1542 H 0.28028 0.39984 0.84849 0.0
H1543 H 0.29788 0.3851 0.88059 0.0
H1544 H 0.22705 0.45313 0.8901 0.0
H1545 H 0.2604 0.41765 0.97371 0.0
H1546 H 0.21002 0.40214 0.84168 0.0
H1547 H 0.23933 0.4081 0.82888 0.0
H1548 H 0.21944 0.43308 0.83767 0.0
H1549 H 0.25337 0.35873 0.94456 0.0
H1550 H 0.27455 0.37766 0.9704 0.0
H1551 H 0.28185 0.36635 0.93019 0.0
C1552 C 0.66539 0.28577 0.86637 0.0
C1553 C 0.67948 0.26908 0.84924 0.0
C1554 C 0.64555 0.2782 0.88241 0.0
C1555 C 0.63893 0.25335 0.88044 0.0
C1556 C 0.65216 0.23652 0.86168 0.0
C1557 C 0.67241 0.24454 0.84653 0.0
C1558 C 0.63214 0.29679 0.90232 0.0
C1559 C 0.64523 0.20999 0.85822 0.0
C1560 C 0.60432 0.23359 0.95115 0.0
C1561 C 0.58028 0.23633 0.93819 0.0
C1562 C 0.62363 0.2382 0.93218 0.0
C1563 C 0.61872 0.24516 0.89921 0.0
C1564 C 0.59437 0.24668 0.88553 0.0
C1565 C 0.57541 0.24263 0.90539 0.0
C1566 C 0.64925 0.23694 0.94803 0.0
C1567 C 0.58832 0.25342 0.85029 0.0
H1568 H 0.67005 0.3049 0.86767 0.0
H1569 H 0.68308 0.23149 0.83331 0.0
H1570 H 0.61274 0.29709 0.89294 0.0
H1571 H 0.63302 0.29178 0.92846 0.0
H1572 H 0.63969 0.31539 0.90153 0.0
H1573 H 0.65581 0.1997 0.84028 0.0
H1574 H 0.64838 0.20174 0.8825 0.0
H1575 H 0.62566 0.20795 0.85011 0.0
H1576 H 0.60798 0.22889 0.97665 0.0
H1577 H 0.55676 0.24467 0.89544 0.0
H1578 H 0.65752 0.25535 0.94981 0.0
H1579 H 0.66043 0.22513 0.93264 0.0
H1580 H 0.65006 0.2299 0.97319 0.0
H1581 H 0.59287 0.2728 0.84785 0.0
H1582 H 0.56882 0.25064 0.84212 0.0
H1583 H 0.59926 0.2425 0.83347 0.0
C1584 C 0.74897 0.6626 0.80467 0.0
C1585 C 0.75114 0.68657 0.8178 0.0
C1586 C 0.75495 0.64294 0.82441 0.0
C1587 C 0.7635 0.64744 0.85796 0.0
C1588 C 0.76735 0.67164 0.87067 0.0
C1589 C 0.76095 0.69095 0.85048 0.0
C1590 C 0.75041 0.61741 0.80998 0.0
C1591 C 0.77682 0.67719 0.90616 0.0
C1592 C 0.74788 0.60161 0.91927 0.0
C1593 C 0.76964 0.58876 0.92443 0.0
C1594 C 0.74565 0.62052 0.89744 0.0
C1595 C 0.76577 0.62704 0.88061 0.0
C1596 C 0.78781 0.61424 0.88565 0.0
C1597 C 0.78945 0.59515 0.90735 0.0
C1598 C 0.72175 0.63364 0.8926 0.0
C1599 C 0.80968 0.62082 0.8683 0.0
H1600 H 0.74111 0.65915 0.77953 0.0
H1601 H 0.76276 0.7095 0.86059 0.0
H1602 H 0.76628 0.60569 0.81613 0.0
H1603 H 0.73472 0.6095 0.82085 0.0
H1604 H 0.74647 0.61691 0.78273 0.0
H1605 H 0.78168 0.69667 0.911 0.0
H1606 H 0.76278 0.67253 0.92261 0.0
H1607 H 0.793 0.66601 0.91282 0.0
H1608 H 0.73262 0.59719 0.93278 0.0
H1609 H 0.80624 0.58515 0.91079 0.0
H1610 H 0.71507 0.63278 0.86607 0.0
H1611 H 0.72423 0.65311 0.90049 0.0
H1612 H 0.70766 0.62585 0.90679 0.0
H1613 H 0.80531 0.61906 0.84117 0.0
H1614 H 0.82554 0.60916 0.87501 0.0
H1615 H 0.81479 0.64006 0.87462 0.0
loop_
_geom_bond_atom_site_label_1
_geom_bond_atom_site_label_2
_geom_bond_distance
_geom_bond_site_symmetry_2
_ccdc_geom_bond_type
H0 C8 0.930 . S
H1 C11 0.930 . S
H2 C13 0.930 . S
H3 C14 0.970 . S
H4 C14 0.970 . S
H5 C16 0.930 . S
H6 C18 0.930 . S
H7 C20 0.930 . S
C8 H0 0.930 . S
C8 C9 1.382 . S
C8 C10 1.426 . S
C9 C8 1.382 . S
C9 C13 1.389 . S
C10 C8 1.426 . S
C10 C11 1.375 . S
C10 C14 1.532 . S
C11 H1 0.930 . S
C11 C10 1.375 . S
C11 C12 1.416 . S
C12 C11 1.416 . S
C12 C13 1.371 . S
C13 H2 0.930 . S
C13 C9 1.389 . S
C13 C12 1.371 . S
C14 H3 0.970 . S
C14 H4 0.970 . S
C14 C10 1.532 . S
C14 C15 1.499 . S
C15 C14 1.499 . S
C15 C16 1.370 . S
C15 C20 1.415 . S
C16 H5 0.930 . S
C16 C15 1.370 . S
C16 C17 1.407 . S
C17 C16 1.407 . S
C17 C18 1.365 . S
C18 H6 0.930 . S
C18 C17 1.365 . S
C18 C19 1.393 . S
C19 C18 1.393 . S
C19 C20 1.387 . S
C20 H7 0.930 . S
C20 C15 1.415 . S
C20 C19 1.387 . S
H21 C29 0.930 . S
H22 C32 0.930 . S
H23 C34 0.930 . S
H24 C35 0.970 . S
H25 C35 0.970 . S
H26 C37 0.930 . S
H27 C39 0.930 . S
H28 C41 0.930 . S
C29 H21 0.930 . S
C29 C30 1.382 . S
C29 C31 1.426 . S
C30 C29 1.382 . S
C30 C34 1.389 . S
C31 C29 1.426 . S
C31 C32 1.375 . S
C31 C35 1.532 . S
C32 H22 0.930 . S
C32 C31 1.375 . S
C32 C33 1.416 . S
C33 C32 1.416 . S
C33 C34 1.371 . S
C34 H23 0.930 . S
C34 C30 1.389 . S
C34 C33 1.371 . S
C35 H24 0.970 . S
C35 H25 0.970 . S
C35 C31 1.532 . S
C35 C36 1.499 . S
C36 C35 1.499 . S
C36 C37 1.370 . S
C36 C41 1.415 . S
C37 H26 0.930 . S
C37 C36 1.370 . S
C37 C38 1.407 . S
C38 C37 1.407 . S
C38 C39 1.365 . S
C39 H27 0.930 . S
C39 C38 1.365 . S
C39 C40 1.393 . S
C40 C39 1.393 . S
C40 C41 1.387 . S
C41 H28 0.930 . S
C41 C36 1.415 . S
C41 C40 1.387 . S
H42 C50 0.930 . S
H43 C53 0.930 . S
H44 C55 0.930 . S
H45 C56 0.970 . S
H46 C56 0.970 . S
H47 C58 0.930 . S
H48 C60 0.930 . S
H49 C62 0.930 . S
C50 H42 0.930 . S
C50 C51 1.382 . S
C50 C52 1.426 . S
C51 C50 1.382 . S
C51 C55 1.389 . S
C52 C50 1.426 . S
C52 C53 1.375 . S
C52 C56 1.532 . S
C53 H43 0.930 . S
C53 C52 1.375 . S
C53 C54 1.416 . S
C54 C53 1.416 . S
C54 C55 1.371 . S
C55 H44 0.930 . S
C55 C51 1.389 . S
C55 C54 1.371 . S
C56 H45 0.970 . S
C56 H46 0.970 . S
C56 C52 1.532 . S
C56 C57 1.499 . S
C57 C56 1.499 . S
C57 C58 1.370 . S
C57 C62 1.415 . S
C58 H47 0.930 . S
C58 C57 1.370 . S
C58 C59 1.407 . S
C59 C58 1.407 . S
C59 C60 1.365 . S
C60 H48 0.930 . S
C60 C59 1.365 . S
C60 C61 1.393 . S
C61 C60 1.393 . S
C61 C62 1.387 . S
C62 H49 0.930 . S
C62 C57 1.415 . S
C62 C61 1.387 . S
H63 C71 0.930 . S
H64 C74 0.930 . S
H65 C76 0.930 . S
H66 C77 0.970 . S
H67 C77 0.970 . S
H68 C79 0.930 . S
H69 C81 0.930 . S
H70 C83 0.930 . S
C71 H63 0.930 . S
C71 C72 1.382 . S
C71 C73 1.426 . S
C72 C71 1.382 . S
C72 C76 1.389 . S
C73 C71 1.426 . S
C73 C74 1.375 . S
C73 C77 1.532 . S
C74 H64 0.930 . S
C74 C73 1.375 . S
C74 C75 1.416 . S
C75 C74 1.416 . S
C75 C76 1.371 . S
C76 H65 0.930 . S
C76 C72 1.389 . S
C76 C75 1.371 . S
C77 H66 0.970 . S
C77 H67 0.970 . S
C77 C73 1.532 . S
C77 C78 1.499 . S
C78 C77 1.499 . S
C78 C79 1.370 . S
C78 C83 1.415 . S
C79 H68 0.930 . S
C79 C78 1.370 . S
C79 C80 1.407 . S
C80 C79 1.407 . S
C80 C81 1.365 . S
C81 H69 0.930 . S
C81 C80 1.365 . S
C81 C82 1.393 . S
C82 C81 1.393 . S
C82 C83 1.387 . S
C83 H70 0.930 . S
C83 C78 1.415 . S
C83 C82 1.387 . S
H84 C92 0.930 . S
H85 C95 0.930 . S
H86 C97 0.930 . S
H87 C98 0.970 . S
H88 C98 0.970 . S
H89 C100 0.930 . S
H90 C102 0.930 . S
H91 C104 0.930 . S
C92 H84 0.930 . S
C92 C93 1.382 . S
C92 C94 1.426 . S
C93 C92 1.382 . S
C93 C97 1.389 . S
C94 C92 1.426 . S
C94 C95 1.375 . S
C94 C98 1.532 . S
C95 H85 0.930 . S
C95 C94 1.375 . S
C95 C96 1.416 . S
C96 C95 1.416 . S
C96 C97 1.371 . S
C97 H86 0.930 . S
C97 C93 1.389 . S
C97 C96 1.371 . S
C98 H87 0.970 . S
C98 H88 0.970 . S
C98 C94 1.532 . S
C98 C99 1.499 . S
C99 C98 1.499 . S
C99 C100 1.370 . S
C99 C104 1.415 . S
C100 H89 0.930 . S
C100 C99 1.370 . S
C100 C101 1.407 . S
C101 C100 1.407 . S
C101 C102 1.365 . S
C102 H90 0.930 . S
C102 C101 1.365 . S
C102 C103 1.393 . S
C103 C102 1.393 . S
C103 C104 1.387 . S
C104 H91 0.930 . S
C104 C99 1.415 . S
C104 C103 1.387 . S
H105 C113 0.930 . S
H106 C116 0.930 . S
H107 C118 0.930 . S
H108 C119 0.970 . S
H109 C119 0.970 . S
H110 C121 0.930 . S
H111 C123 0.930 . S
H112 C125 0.930 . S
C113 H105 0.930 . S
C113 C114 1.382 . S
C113 C115 1.426 . S
C114 C113 1.382 . S
C114 C118 1.389 . S
C115 C113 1.426 . S
C115 C116 1.375 . S
C115 C119 1.532 . S
C116 H106 0.930 . S
C116 C115 1.375 . S
C116 C117 1.416 . S
C117 C116 1.416 . S
C117 C118 1.371 . S
C118 H107 0.930 . S
C118 C114 1.389 . S
C118 C117 1.371 . S
C119 H108 0.970 . S
C119 H109 0.970 . S
C119 C115 1.532 . S
C119 C120 1.499 . S
C120 C119 1.499 . S
C120 C121 1.370 . S
C120 C125 1.415 . S
C121 H110 0.930 . S
C121 C120 1.370 . S
C121 C122 1.407 . S
C122 C121 1.407 . S
C122 C123 1.365 . S
C123 H111 0.930 . S
C123 C122 1.365 . S
C123 C124 1.393 . S
C124 C123 1.393 . S
C124 C125 1.387 . S
C125 H112 0.930 . S
C125 C120 1.415 . S
C125 C124 1.387 . S
H126 C134 0.930 . S
H127 C137 0.930 . S
H128 C139 0.930 . S
H129 C140 0.970 . S
H130 C140 0.970 . S
H131 C142 0.930 . S
H132 C144 0.930 . S
H133 C146 0.930 . S
C134 H126 0.930 . S
C134 C135 1.382 . S
C134 C136 1.426 . S
C135 C134 1.382 . S
C135 C139 1.389 . S
C136 C134 1.426 . S
C136 C137 1.375 . S
C136 C140 1.532 . S
C137 H127 0.930 . S
C137 C136 1.375 . S
C137 C138 1.416 . S
C138 C137 1.416 . S
C138 C139 1.371 . S
C139 H128 0.930 . S
C139 C135 1.389 . S
C139 C138 1.371 . S
C140 H129 0.970 . S
C140 H130 0.970 . S
C140 C136 1.532 . S
C140 C141 1.499 . S
C141 C140 1.499 . S
C141 C142 1.370 . S
C141 C146 1.415 . S
C142 H131 0.930 . S
C142 C141 1.370 . S
C142 C143 1.407 . S
C143 C142 1.407 . S
C143 C144 1.365 . S
C144 H132 0.930 . S
C144 C143 1.365 . S
C144 C145 1.393 . S
C145 C144 1.393 . S
C145 C146 1.387 . S
C146 H133 0.930 . S
C146 C141 1.415 . S
C146 C145 1.387 . S
H147 C155 0.930 . S
H148 C158 0.930 . S
H149 C160 0.930 . S
H150 C161 0.970 . S
H151 C161 0.970 . S
H152 C163 0.930 . S
H153 C165 0.930 . S
H154 C167 0.930 . S
C155 H147 0.930 . S
C155 C156 1.382 . S
C155 C157 1.426 . S
C156 C155 1.382 . S
C156 C160 1.389 . S
C157 C155 1.426 . S
C157 C158 1.375 . S
C157 C161 1.532 . S
C158 H148 0.930 . S
C158 C157 1.375 . S
C158 C159 1.416 . S
C159 C158 1.416 . S
C159 C160 1.371 . S
C160 H149 0.930 . S
C160 C156 1.389 . S
C160 C159 1.371 . S
C161 H150 0.970 . S
C161 H151 0.970 . S
C161 C157 1.532 . S
C161 C162 1.499 . S
C162 C161 1.499 . S
C162 C163 1.370 . S
C162 C167 1.415 . S
C163 H152 0.930 . S
C163 C162 1.370 . S
C163 C164 1.407 . S
C164 C163 1.407 . S
C164 C165 1.365 . S
C165 H153 0.930 . S
C165 C164 1.365 . S
C165 C166 1.393 . S
C166 C165 1.393 . S
C166 C167 1.387 . S
C167 H154 0.930 . S
C167 C162 1.415 . S
C167 C166 1.387 . S
C168 C169 1.443 . S
C168 N172 1.376 . S
C168 C206 1.389 . S
C169 C168 1.443 . S
C169 C170 1.340 . S
C169 H209 0.951 . S
C170 C169 1.340 . S
C170 C171 1.439 . S
C170 H210 0.950 . S
C171 C170 1.439 . S
C171 N172 1.374 . S
C171 C205 1.395 . S
N172 C168 1.376 . S
N172 C171 1.374 . S
N172 Co173 2.008 . S
Co173 N172 2.008 . S
Co173 N174 1.995 1_455 S
Co173 N179 2.008 1_455 S
Co173 N184 1.995 . S
Co173 N189 2.282 1_455 S
Co173 N195 2.282 . S
N174 Co173 1.995 1_655 S
N174 C175 1.376 . S
N174 C178 1.383 . S
C175 N174 1.376 . S
C175 C176 1.446 . S
C175 C205 1.391 1_655 S
C176 C175 1.446 . S
C176 C177 1.339 . S
C176 H211 0.949 . S
C177 C176 1.339 . S
C177 C178 1.439 . S
C177 H212 0.950 . S
C178 N174 1.383 . S
C178 C177 1.439 . S
C178 C207 1.392 . S
N179 Co173 2.008 1_655 S
N179 C180 1.376 . S
N179 C183 1.374 . S
C180 N179 1.376 . S
C180 C181 1.443 . S
C180 C207 1.389 . S
C181 C180 1.443 . S
C181 C182 1.340 . S
C181 H213 0.951 . S
C182 C181 1.340 . S
C182 C183 1.439 . S
C182 H214 0.950 . S
C183 N179 1.374 . S
C183 C182 1.439 . S
C183 C208 1.411 . S
N184 Co173 1.995 . S
N184 C185 1.376 . S
N184 C188 1.383 . S
C185 N184 1.376 . S
C185 C186 1.446 . S
C185 C208 1.374 1_455 S
C186 C185 1.446 . S
C186 C187 1.339 . S
C186 H215 0.949 . S
C187 C186 1.339 . S
C187 C188 1.439 . S
C187 H216 0.950 . S
C188 N184 1.383 . S
C188 C187 1.439 . S
C188 C206 1.392 . S
N189 Co173 2.282 1_655 S
N189 C192 1.332 . S
N189 C194 1.332 . S
C190 C191 1.386 . S
C190 C193 1.388 . S
C191 C190 1.386 . S
C191 C192 1.382 . S
C191 H217 0.950 . S
C192 N189 1.332 . S
C192 C191 1.382 . S
C192 H203 0.952 . S
C193 C190 1.388 . S
C193 C194 1.382 . S
C193 H218 0.950 . S
C194 N189 1.332 . S
C194 C193 1.382 . S
C194 H204 0.948 . S
N195 Co173 2.282 . S
N195 C199 1.332 . S
N195 C200 1.332 . S
C196 C197 1.388 . S
C196 C200 1.382 . S
C196 H219 0.950 . S
C197 C196 1.388 . S
C197 C198 1.386 . S
C198 C197 1.386 . S
C198 C199 1.382 . S
C198 H220 0.950 . S
C199 N195 1.332 . S
C199 C198 1.382 . S
C199 H201 0.952 . S
C200 N195 1.332 . S
C200 C196 1.382 . S
C200 H202 0.948 . S
H201 C199 0.952 . S
H202 C200 0.948 . S
H203 C192 0.952 . S
H204 C194 0.948 . S
C205 C171 1.395 . S
C205 C175 1.391 1_455 S
C206 C168 1.389 . S
C206 C188 1.392 . S
C207 C178 1.392 . S
C207 C180 1.389 . S
C208 C183 1.411 . S
C208 C185 1.374 1_655 S
H209 C169 0.951 . S
H210 C170 0.950 . S
H211 C176 0.949 . S
H212 C177 0.950 . S
H213 C181 0.951 . S
H214 C182 0.950 . S
H215 C186 0.949 . S
H216 C187 0.950 . S
H217 C191 0.950 . S
H218 C193 0.950 . S
H219 C196 0.950 . S
H220 C198 0.950 . S
C221 C222 1.443 . S
C221 N225 1.376 . S
C221 C259 1.389 . S
C222 C221 1.443 . S
C222 C223 1.340 . S
C222 H262 0.951 . S
C223 C222 1.340 . S
C223 C224 1.439 . S
C223 H263 0.950 . S
C224 C223 1.439 . S
C224 N225 1.374 . S
C224 C258 1.395 . S
N225 C221 1.376 . S
N225 C224 1.374 . S
N225 Co226 2.008 . S
Co226 N225 2.008 . S
Co226 N227 1.995 1_545 S
Co226 N232 2.008 1_545 S
Co226 N237 1.995 . S
Co226 N242 2.282 1_545 S
Co226 N248 2.282 . S
N227 Co226 1.995 1_565 S
N227 C228 1.376 . S
N227 C231 1.383 . S
C228 N227 1.376 . S
C228 C229 1.446 . S
C228 C258 1.391 1_565 S
C229 C228 1.446 . S
C229 C230 1.339 . S
C229 H264 0.949 . S
C230 C229 1.339 . S
C230 C231 1.439 . S
C230 H265 0.950 . S
C231 N227 1.383 . S
C231 C230 1.439 . S
C231 C260 1.392 . S
N232 Co226 2.008 1_565 S
N232 C233 1.376 . S
N232 C236 1.374 . S
C233 N232 1.376 . S
C233 C234 1.443 . S
C233 C260 1.389 . S
C234 C233 1.443 . S
C234 C235 1.340 . S
C234 H266 0.951 . S
C235 C234 1.340 . S
C235 C236 1.439 . S
C235 H267 0.950 . S
C236 N232 1.374 . S
C236 C235 1.439 . S
C236 C261 1.395 1_565 S
N237 Co226 1.995 . S
N237 C238 1.376 . S
N237 C241 1.383 . S
C238 N237 1.376 . S
C238 C239 1.446 . S
C238 C261 1.391 . S
C239 C238 1.446 . S
C239 C240 1.339 . S
C239 H268 0.949 . S
C240 C239 1.339 . S
C240 C241 1.439 . S
C240 H269 0.950 . S
C241 N237 1.383 . S
C241 C240 1.439 . S
C241 C259 1.392 . S
N242 Co226 2.282 1_565 S
N242 C245 1.332 . S
N242 C247 1.332 . S
C243 C244 1.386 . S
C243 C246 1.388 . S
C244 C243 1.386 . S
C244 C245 1.382 . S
C244 H270 0.950 . S
C245 N242 1.332 . S
C245 C244 1.382 . S
C245 H256 0.952 . S
C246 C243 1.388 . S
C246 C247 1.382 . S
C246 H271 0.950 . S
C247 N242 1.332 . S
C247 C246 1.382 . S
C247 H257 0.948 . S
N248 Co226 2.282 . S
N248 C252 1.332 . S
N248 C253 1.332 . S
C249 C250 1.388 . S
C249 C253 1.382 . S
C249 H272 0.950 . S
C250 C249 1.388 . S
C250 C251 1.386 . S
C251 C250 1.386 . S
C251 C252 1.382 . S
C251 H273 0.950 . S
C252 N248 1.332 . S
C252 C251 1.382 . S
C252 H254 0.952 . S
C253 N248 1.332 . S
C253 C249 1.382 . S
C253 H255 0.948 . S
H254 C252 0.952 . S
H255 C253 0.948 . S
H256 C245 0.952 . S
H257 C247 0.948 . S
C258 C224 1.395 . S
C258 C228 1.391 1_545 S
C259 C221 1.389 . S
C259 C241 1.392 . S
C260 C231 1.392 . S
C260 C233 1.389 . S
C261 C236 1.395 1_545 S
C261 C238 1.391 . S
H262 C222 0.951 . S
H263 C223 0.950 . S
H264 C229 0.949 . S
H265 C230 0.950 . S
H266 C234 0.951 . S
H267 C235 0.950 . S
H268 C239 0.949 . S
H269 C240 0.950 . S
H270 C244 0.950 . S
H271 C246 0.950 . S
H272 C249 0.950 . S
H273 C251 0.950 . S
C274 C275 1.443 . S
C274 N278 1.376 . S
C274 C312 1.389 . S
C275 C274 1.443 . S
C275 C276 1.340 . S
C275 H315 0.951 . S
C276 C275 1.340 . S
C276 C277 1.439 . S
C276 H316 0.950 . S
C277 C276 1.439 . S
C277 N278 1.374 . S
C277 C311 1.395 . S
N278 C274 1.376 . S
N278 C277 1.374 . S
N278 Co279 2.021 . S
Co279 N278 2.021 . S
Co279 N280 1.984 1_455 S
Co279 N285 1.995 1_455 S
Co279 N290 2.006 . S
Co279 N295 2.266 1_455 S
Co279 N301 2.299 . S
N280 Co279 1.984 1_655 S
N280 C281 1.376 . S
N280 C284 1.383 . S
C281 N280 1.376 . S
C281 C282 1.446 . S
C281 C311 1.391 1_655 S
C282 C281 1.446 . S
C282 C283 1.339 . S
C282 H317 0.949 . S
C283 C282 1.339 . S
C283 C284 1.439 . S
C283 H318 0.950 . S
C284 N280 1.383 . S
C284 C283 1.439 . S
C284 C313 1.392 . S
N285 Co279 1.995 1_655 S
N285 C286 1.376 . S
N285 C289 1.374 . S
C286 N285 1.376 . S
C286 C287 1.443 . S
C286 C313 1.389 . S
C287 C286 1.443 . S
C287 C288 1.340 . S
C287 H319 0.951 . S
C288 C287 1.340 . S
C288 C289 1.439 . S
C288 H320 0.950 . S
C289 N285 1.374 . S
C289 C288 1.439 . S
C289 C314 1.395 . S
N290 Co279 2.006 . S
N290 C291 1.376 . S
N290 C294 1.383 . S
C291 N290 1.376 . S
C291 C292 1.446 . S
C291 C314 1.391 1_455 S
C292 C291 1.446 . S
C292 C293 1.339 . S
C292 H321 0.949 . S
C293 C292 1.339 . S
C293 C294 1.439 . S
C293 H322 0.950 . S
C294 N290 1.383 . S
C294 C293 1.439 . S
C294 C312 1.392 . S
N295 Co279 2.266 1_655 S
N295 C298 1.332 . S
N295 C300 1.332 . S
C296 C297 1.386 . S
C296 C299 1.388 . S
C297 C296 1.386 . S
C297 C298 1.382 . S
C297 H323 0.950 . S
C298 N295 1.332 . S
C298 C297 1.382 . S
C298 H309 0.952 . S
C299 C296 1.388 . S
C299 C300 1.382 . S
C299 H324 0.950 . S
C300 N295 1.332 . S
C300 C299 1.382 . S
C300 H310 0.948 . S
N301 Co279 2.299 . S
N301 C305 1.332 . S
N301 C306 1.332 . S
C302 C303 1.388 . S
C302 C306 1.382 . S
C302 H325 0.950 . S
C303 C302 1.388 . S
C303 C304 1.386 . S
C304 C303 1.386 . S
C304 C305 1.382 . S
C304 H326 0.950 . S
C305 N301 1.332 . S
C305 C304 1.382 . S
C305 H307 0.952 . S
C306 N301 1.332 . S
C306 C302 1.382 . S
C306 H308 0.948 . S
H307 C305 0.952 . S
H308 C306 0.948 . S
H309 C298 0.952 . S
H310 C300 0.948 . S
C311 C277 1.395 . S
C311 C281 1.391 1_455 S
C312 C274 1.389 . S
C312 C294 1.392 . S
C313 C284 1.392 . S
C313 C286 1.389 . S
C314 C289 1.395 . S
C314 C291 1.391 1_655 S
H315 C275 0.951 . S
H316 C276 0.950 . S
H317 C282 0.949 . S
H318 C283 0.950 . S
H319 C287 0.951 . S
H320 C288 0.950 . S
H321 C292 0.949 . S
H322 C293 0.950 . S
H323 C297 0.950 . S
H324 C299 0.950 . S
H325 C302 0.950 . S
H326 C304 0.950 . S
C327 C328 1.443 . S
C327 N331 1.376 . S
C327 C365 1.389 . S
C328 C327 1.443 . S
C328 C329 1.340 . S
C328 H368 0.951 . S
C329 C328 1.340 . S
C329 C330 1.439 . S
C329 H369 0.950 . S
C330 C329 1.439 . S
C330 N331 1.374 . S
C330 C364 1.419 . S
N331 C327 1.376 . S
N331 C330 1.374 . S
N331 Co332 2.008 1_565 S
Co332 N331 2.008 1_545 S
Co332 N333 1.995 . S
Co332 N338 2.008 . S
Co332 N343 1.995 1_545 S
Co332 N348 2.282 . S
Co332 N354 2.282 1_545 S
N333 Co332 1.995 . S
N333 C334 1.376 . S
N333 C337 1.383 . S
C334 N333 1.376 . S
C334 C335 1.446 . S
C334 C364 1.366 1_545 S
C335 C334 1.446 . S
C335 C336 1.339 . S
C335 H370 0.949 . S
C336 C335 1.339 . S
C336 C337 1.439 . S
C336 H371 0.950 . S
C337 N333 1.383 . S
C337 C336 1.439 . S
C337 C366 1.392 . S
N338 Co332 2.008 . S
N338 C339 1.376 . S
N338 C342 1.374 . S
C339 N338 1.376 . S
C339 C340 1.443 . S
C339 C366 1.389 . S
C340 C339 1.443 . S
C340 C341 1.340 . S
C340 H372 0.951 . S
C341 C340 1.340 . S
C341 C342 1.439 . S
C341 H373 0.950 . S
C342 N338 1.374 . S
C342 C341 1.439 . S
C342 C367 1.395 . S
N343 Co332 1.995 1_565 S
N343 C344 1.376 . S
N343 C347 1.383 . S
C344 N343 1.376 . S
C344 C345 1.446 . S
C344 C367 1.391 1_565 S
C345 C344 1.446 . S
C345 C346 1.339 . S
C345 H374 0.949 . S
C346 C345 1.339 . S
C346 C347 1.439 . S
C346 H375 0.950 . S
C347 N343 1.383 . S
C347 C346 1.439 . S
C347 C365 1.392 . S
N348 Co332 2.282 . S
N348 C351 1.332 . S
N348 C353 1.332 . S
C349 C350 1.386 . S
C349 C352 1.388 . S
C350 C349 1.386 . S
C350 C351 1.382 . S
C350 H376 0.950 . S
C351 N348 1.332 . S
C351 C350 1.382 . S
C351 H362 0.952 . S
C352 C349 1.388 . S
C352 C353 1.382 . S
C352 H377 0.950 . S
C353 N348 1.332 . S
C353 C352 1.382 . S
C353 H363 0.948 . S
N354 Co332 2.282 1_565 S
N354 C358 1.332 . S
N354 C359 1.332 . S
C355 C356 1.388 . S
C355 C359 1.382 . S
C355 H378 0.950 . S
C356 C355 1.388 . S
C356 C357 1.386 . S
C357 C356 1.386 . S
C357 C358 1.382 . S
C357 H379 0.950 . S
C358 N354 1.332 . S
C358 C357 1.382 . S
C358 H360 0.952 . S
C359 N354 1.332 . S
C359 C355 1.382 . S
C359 H361 0.948 . S
H360 C358 0.952 . S
H361 C359 0.948 . S
H362 C351 0.952 . S
H363 C353 0.948 . S
C364 C330 1.419 . S
C364 C334 1.366 1_565 S
C365 C327 1.389 . S
C365 C347 1.392 . S
C366 C337 1.392 . S
C366 C339 1.389 . S
C367 C342 1.395 . S
C367 C344 1.391 1_545 S
H368 C328 0.951 . S
H369 C329 0.950 . S
H370 C335 0.949 . S
H371 C336 0.950 . S
H372 C340 0.951 . S
H373 C341 0.950 . S
H374 C345 0.949 . S
H375 C346 0.950 . S
H376 C350 0.950 . S
H377 C352 0.950 . S
H378 C355 0.950 . S
H379 C357 0.950 . S
C380 C381 1.443 . S
C380 N384 1.376 . S
C380 C418 1.389 . S
C381 C380 1.443 . S
C381 C382 1.340 . S
C381 H421 0.951 . S
C382 C381 1.340 . S
C382 C383 1.439 . S
C382 H422 0.950 . S
C383 C382 1.439 . S
C383 N384 1.374 . S
C383 C417 1.402 . S
N384 C380 1.376 . S
N384 C383 1.374 . S
N384 Co385 2.008 . S
Co385 N384 2.008 . S
Co385 N386 1.995 1_554 S
Co385 N391 2.008 1_554 S
Co385 N396 1.995 . S
Co385 N401 2.282 . S
Co385 N407 2.282 1_554 S
N386 Co385 1.995 1_556 S
N386 C387 1.376 . S
N386 C390 1.383 . S
C387 N386 1.376 . S
C387 C388 1.446 . S
C387 C417 1.385 1_556 S
C388 C387 1.446 . S
C388 C389 1.339 . S
C388 H423 0.949 . S
C389 C388 1.339 . S
C389 C390 1.439 . S
C389 H424 0.950 . S
C390 N386 1.383 . S
C390 C389 1.439 . S
C390 C419 1.392 . S
N391 Co385 2.008 1_556 S
N391 C392 1.376 . S
N391 C395 1.374 . S
C392 N391 1.376 . S
C392 C393 1.443 . S
C392 C419 1.389 . S
C393 C392 1.443 . S
C393 C394 1.340 . S
C393 H425 0.951 . S
C394 C393 1.340 . S
C394 C395 1.439 . S
C394 H426 0.950 . S
C395 N391 1.374 . S
C395 C394 1.439 . S
C395 C420 1.395 1_556 S
N396 Co385 1.995 . S
N396 C397 1.376 . S
N396 C400 1.383 . S
C397 N396 1.376 . S
C397 C398 1.446 . S
C397 C420 1.391 . S
C398 C397 1.446 . S
C398 C399 1.339 . S
C398 H427 0.949 . S
C399 C398 1.339 . S
C399 C400 1.439 . S
C399 H428 0.950 . S
C400 N396 1.383 . S
C400 C399 1.439 . S
C400 C418 1.392 . S
N401 Co385 2.282 . S
N401 C404 1.332 . S
N401 C406 1.332 . S
C402 C403 1.386 . S
C402 C405 1.388 . S
C403 C402 1.386 . S
C403 C404 1.382 . S
C403 H429 0.950 . S
C404 N401 1.332 . S
C404 C403 1.382 . S
C404 H415 0.952 . S
C405 C402 1.388 . S
C405 C406 1.382 . S
C405 H430 0.950 . S
C406 N401 1.332 . S
C406 C405 1.382 . S
C406 H416 0.948 . S
N407 Co385 2.282 1_556 S
N407 C411 1.332 . S
N407 C412 1.332 . S
C408 C409 1.388 . S
C408 C412 1.382 . S
C408 H431 0.950 . S
C409 C408 1.388 . S
C409 C410 1.386 . S
C410 C409 1.386 . S
C410 C411 1.382 . S
C410 H432 0.950 . S
C411 N407 1.332 . S
C411 C410 1.382 . S
C411 H413 0.952 . S
C412 N407 1.332 . S
C412 C408 1.382 . S
C412 H414 0.948 . S
H413 C411 0.952 . S
H414 C412 0.948 . S
H415 C404 0.952 . S
H416 C406 0.948 . S
C417 C383 1.402 . S
C417 C387 1.385 1_554 S
C418 C380 1.389 . S
C418 C400 1.392 . S
C419 C390 1.392 . S
C419 C392 1.389 . S
C420 C395 1.395 1_554 S
C420 C397 1.391 . S
H421 C381 0.951 . S
H422 C382 0.950 . S
H423 C388 0.949 . S
H424 C389 0.950 . S
H425 C393 0.951 . S
H426 C394 0.950 . S
H427 C398 0.949 . S
H428 C399 0.950 . S
H429 C403 0.950 . S
H430 C405 0.950 . S
H431 C408 0.950 . S
H432 C410 0.950 . S
C433 C434 1.443 . S
C433 N437 1.376 . S
C433 C471 1.389 . S
C434 C433 1.443 . S
C434 C435 1.340 . S
C434 H474 0.951 . S
C435 C434 1.340 . S
C435 C436 1.439 . S
C435 H475 0.950 . S
C436 C435 1.439 . S
C436 N437 1.374 . S
C436 C470 1.395 . S
N437 C433 1.376 . S
N437 C436 1.374 . S
N437 Co438 2.008 . S
Co438 N437 2.008 . S
Co438 N439 1.995 1_554 S
Co438 N444 2.008 . S
Co438 N449 1.995 . S
Co438 N454 2.282 . S
Co438 N460 2.282 1_554 S
N439 Co438 1.995 1_556 S
N439 C440 1.376 . S
N439 C443 1.383 . S
C440 N439 1.376 . S
C440 C441 1.446 . S
C440 C470 1.391 1_556 S
C441 C440 1.446 . S
C441 C442 1.339 . S
C441 H476 0.949 . S
C442 C441 1.339 . S
C442 C443 1.439 . S
C442 H477 0.950 . S
C443 N439 1.383 . S
C443 C442 1.439 . S
C443 C472 1.392 . S
N444 Co438 2.008 . S
N444 C445 1.376 1_554 S
N444 C448 1.374 . S
C445 N444 1.376 1_556 S
C445 C446 1.443 . S
C445 C472 1.389 . S
C446 C445 1.443 . S
C446 C447 1.340 1_556 S
C446 H478 0.951 . S
C447 C446 1.340 1_554 S
C447 C448 1.439 . S
C447 H479 0.950 . S
C448 N444 1.374 . S
C448 C447 1.439 . S
C448 C473 1.395 . S
N449 Co438 1.995 . S
N449 C450 1.376 . S
N449 C453 1.383 . S
C450 N449 1.376 . S
C450 C451 1.446 . S
C450 C473 1.391 . S
C451 C450 1.446 . S
C451 C452 1.339 . S
C451 H480 0.949 . S
C452 C451 1.339 . S
C452 C453 1.439 . S
C452 H481 0.950 . S
C453 N449 1.383 . S
C453 C452 1.439 . S
C453 C471 1.392 . S
N454 Co438 2.282 . S
N454 C457 1.332 . S
N454 C459 1.332 . S
C455 C456 1.386 . S
C455 C458 1.388 . S
C456 C455 1.386 . S
C456 C457 1.382 . S
C456 H482 0.950 . S
C457 N454 1.332 . S
C457 C456 1.382 . S
C457 H468 0.952 . S
C458 C455 1.388 . S
C458 C459 1.382 . S
C458 H483 0.950 . S
C459 N454 1.332 . S
C459 C458 1.382 . S
C459 H469 0.948 . S
N460 Co438 2.282 1_556 S
N460 C464 1.332 . S
N460 C465 1.332 . S
C461 C462 1.388 . S
C461 C465 1.382 . S
C461 H484 0.950 . S
C462 C461 1.388 . S
C462 C463 1.386 . S
C463 C462 1.386 . S
C463 C464 1.382 . S
C463 H485 0.950 . S
C464 N460 1.332 . S
C464 C463 1.382 . S
C464 H466 0.952 . S
C465 N460 1.332 . S
C465 C461 1.382 . S
C465 H467 0.948 . S
H466 C464 0.952 . S
H467 C465 0.948 . S
H468 C457 0.952 . S
H469 C459 0.948 . S
C470 C436 1.395 . S
C470 C440 1.391 1_554 S
C471 C433 1.389 . S
C471 C453 1.392 . S
C472 C443 1.392 . S
C472 C445 1.389 . S
C473 C448 1.395 . S
C473 C450 1.391 . S
H474 C434 0.951 . S
H475 C435 0.950 . S
H476 C441 0.949 . S
H477 C442 0.950 . S
H478 C446 0.951 . S
H479 C447 0.950 . S
H480 C451 0.949 . S
H481 C452 0.950 . S
H482 C456 0.950 . S
H483 C458 0.950 . S
H484 C461 0.950 . S
H485 C463 0.950 . S
C486 C487 1.446 . S
C486 N490 1.366 1_556 S
C486 C524 1.395 . S
C487 C486 1.446 . S
C487 C488 1.340 1_556 S
C487 H527 0.951 . S
C488 C487 1.340 1_554 S
C488 C489 1.439 . S
C488 H528 0.950 . S
C489 C488 1.439 . S
C489 N490 1.374 . S
C489 C523 1.395 . S
N490 C486 1.366 1_554 S
N490 C489 1.374 . S
N490 Co491 2.008 . S
Co491 N490 2.008 . S
Co491 N492 1.995 . S
Co491 N497 2.008 . S
Co491 N502 1.995 . S
Co491 N507 2.282 1_554 S
Co491 N513 2.282 . S
N492 Co491 1.995 . S
N492 C493 1.376 . S
N492 C496 1.383 . S
C493 N492 1.376 . S
C493 C494 1.446 . S
C493 C523 1.391 . S
C494 C493 1.446 . S
C494 C495 1.339 . S
C494 H529 0.949 . S
C495 C494 1.339 . S
C495 C496 1.439 . S
C495 H530 0.950 . S
C496 N492 1.383 . S
C496 C495 1.439 . S
C496 C525 1.392 . S
N497 Co491 2.008 . S
N497 C498 1.376 . S
N497 C501 1.374 . S
C498 N497 1.376 . S
C498 C499 1.443 . S
C498 C525 1.389 . S
C499 C498 1.443 . S
C499 C500 1.340 . S
C499 H531 0.951 . S
C500 C499 1.340 . S
C500 C501 1.439 . S
C500 H532 0.950 . S
C501 N497 1.374 . S
C501 C500 1.439 . S
C501 C526 1.395 . S
N502 Co491 1.995 . S
N502 C503 1.376 . S
N502 C506 1.383 1_554 S
C503 N502 1.376 . S
C503 C504 1.446 1_554 S
C503 C526 1.391 . S
C504 C503 1.446 1_556 S
C504 C505 1.339 . S
C504 H533 0.949 . S
C505 C504 1.339 . S
C505 C506 1.439 . S
C505 H534 0.950 . S
C506 N502 1.383 1_556 S
C506 C505 1.439 . S
C506 C524 1.392 . S
N507 Co491 2.282 1_556 S
N507 C510 1.332 . S
N507 C512 1.332 . S
C508 C509 1.386 . S
C508 C511 1.388 . S
C509 C508 1.386 . S
C509 C510 1.382 . S
C509 H535 0.950 . S
C510 N507 1.332 . S
C510 C509 1.382 . S
C510 H521 0.952 . S
C511 C508 1.388 . S
C511 C512 1.382 . S
C511 H536 0.950 . S
C512 N507 1.332 . S
C512 C511 1.382 . S
C512 H522 0.948 1_556 S
N513 Co491 2.282 . S
N513 C517 1.332 . S
N513 C518 1.332 . S
C514 C515 1.388 . S
C514 C518 1.382 . S
C514 H537 0.950 . S
C515 C514 1.388 . S
C515 C516 1.386 . S
C516 C515 1.386 . S
C516 C517 1.382 . S
C516 H538 0.950 . S
C517 N513 1.332 . S
C517 C516 1.382 . S
C517 H519 0.952 . S
C518 N513 1.332 . S
C518 C514 1.382 . S
C518 H520 0.948 . S
H519 C517 0.952 . S
H520 C518 0.948 . S
H521 C510 0.952 . S
H522 C512 0.948 1_554 S
C523 C489 1.395 . S
C523 C493 1.391 . S
C524 C486 1.395 . S
C524 C506 1.392 . S
C525 C496 1.392 . S
C525 C498 1.389 . S
C526 C501 1.395 . S
C526 C503 1.391 . S
H527 C487 0.951 . S
H528 C488 0.950 . S
H529 C494 0.949 . S
H530 C495 0.950 . S
H531 C499 0.951 . S
H532 C500 0.950 . S
H533 C504 0.949 . S
H534 C505 0.950 . S
H535 C509 0.950 . S
H536 C511 0.950 . S
H537 C514 0.950 . S
H538 C516 0.950 . S
C539 C540 1.443 . S
C539 N543 1.376 . S
C539 C577 1.389 . S
C540 C539 1.443 . S
C540 C541 1.340 . S
C540 H580 0.951 . S
C541 C540 1.340 . S
C541 C542 1.439 . S
C541 H581 0.950 . S
C542 C541 1.439 . S
C542 N543 1.374 . S
C542 C576 1.401 . S
N543 C539 1.376 . S
N543 C542 1.374 . S
N543 Co544 2.008 . S
Co544 N543 2.008 . S
Co544 N545 1.995 1_554 S
Co544 N550 2.008 1_554 S
Co544 N555 1.995 . S
Co544 N560 2.282 . S
Co544 N566 2.282 1_554 S
N545 Co544 1.995 1_556 S
N545 C546 1.376 . S
N545 C549 1.383 . S
C546 N545 1.376 . S
C546 C547 1.446 . S
C546 C576 1.386 1_556 S
C547 C546 1.446 . S
C547 C548 1.339 . S
C547 H582 0.949 . S
C548 C547 1.339 . S
C548 C549 1.439 . S
C548 H583 0.950 . S
C549 N545 1.383 . S
C549 C548 1.439 . S
C549 C578 1.392 . S
N550 Co544 2.008 1_556 S
N550 C551 1.376 . S
N550 C554 1.374 1_556 S
C551 N550 1.376 . S
C551 C552 1.443 . S
C551 C578 1.389 . S
C552 C551 1.443 . S
C552 C553 1.340 . S
C552 H584 0.951 . S
C553 C552 1.340 . S
C553 C554 1.439 1_556 S
C553 H585 0.950 . S
C554 N550 1.374 1_554 S
C554 C553 1.439 1_554 S
C554 C579 1.395 . S
N555 Co544 1.995 . S
N555 C556 1.376 . S
N555 C559 1.383 . S
C556 N555 1.376 . S
C556 C557 1.446 . S
C556 C579 1.391 . S
C557 C556 1.446 . S
C557 C558 1.339 . S
C557 H586 0.949 . S
C558 C557 1.339 . S
C558 C559 1.439 . S
C558 H587 0.950 . S
C559 N555 1.383 . S
C559 C558 1.439 . S
C559 C577 1.392 . S
N560 Co544 2.282 . S
N560 C563 1.332 . S
N560 C565 1.332 . S
C561 C562 1.386 . S
C561 C564 1.388 . S
C562 C561 1.386 . S
C562 C563 1.382 . S
C562 H588 0.950 . S
C563 N560 1.332 . S
C563 C562 1.382 . S
C563 H574 0.952 . S
C564 C561 1.388 . S
C564 C565 1.382 . S
C564 H589 0.950 . S
C565 N560 1.332 . S
C565 C564 1.382 . S
C565 H575 0.948 . S
N566 Co544 2.282 1_556 S
N566 C570 1.332 . S
N566 C571 1.332 . S
C567 C568 1.388 . S
C567 C571 1.382 . S
C567 H590 0.950 . S
C568 C567 1.388 . S
C568 C569 1.386 . S
C569 C568 1.386 . S
C569 C570 1.382 . S
C569 H591 0.950 . S
C570 N566 1.332 . S
C570 C569 1.382 . S
C570 H572 0.952 . S
C571 N566 1.332 . S
C571 C567 1.382 . S
C571 H573 0.948 . S
H572 C570 0.952 . S
H573 C571 0.948 . S
H574 C563 0.952 . S
H575 C565 0.948 . S
C576 C542 1.401 . S
C576 C546 1.386 1_554 S
C577 C539 1.389 . S
C577 C559 1.392 . S
C578 C549 1.392 . S
C578 C551 1.389 . S
C579 C554 1.395 . S
C579 C556 1.391 . S
H580 C540 0.951 . S
H581 C541 0.950 . S
H582 C547 0.949 . S
H583 C548 0.950 . S
H584 C552 0.951 . S
H585 C553 0.950 . S
H586 C557 0.949 . S
H587 C558 0.950 . S
H588 C562 0.950 . S
H589 C564 0.950 . S
H590 C567 0.950 . S
H591 C569 0.950 . S
C592 C593 1.391 . S
C592 C594 1.394 . S
C592 H608 0.931 . S
C593 C592 1.391 . S
C593 C597 1.376 . S
C594 C592 1.394 . S
C594 C595 1.369 . S
C594 C598 1.531 . S
C595 C594 1.369 . S
C595 C596 1.410 . S
C595 C603 1.503 . S
C596 C595 1.410 . S
C596 C597 1.392 . S
C596 C599 1.511 . S
C597 C593 1.376 . S
C597 C596 1.392 . S
C597 H609 0.929 . S
C598 C594 1.531 . S
C598 H610 0.960 . S
C598 H611 0.962 . S
C598 H612 0.960 . S
C599 C596 1.511 . S
C599 H613 0.961 . S
C599 H614 0.961 . S
C599 H615 0.961 . S
C600 C601 1.370 . S
C600 C602 1.363 . S
C600 H616 0.931 . S
C601 C600 1.370 . S
C601 C605 1.408 . S
C602 C600 1.363 . S
C602 C603 1.370 . S
C602 C606 1.524 . S
C603 C595 1.503 . S
C603 C602 1.370 . S
C603 C604 1.403 . S
C604 C603 1.403 . S
C604 C605 1.404 . S
C604 C607 1.539 . S
C605 C601 1.408 . S
C605 C604 1.404 . S
C605 H617 0.930 . S
C606 C602 1.524 . S
C606 H618 0.956 . S
C606 H619 0.961 . S
C606 H620 0.961 . S
C607 C604 1.539 . S
C607 H621 0.958 . S
C607 H622 0.961 . S
C607 H623 0.960 . S
H608 C592 0.931 . S
H609 C597 0.929 . S
H610 C598 0.960 . S
H611 C598 0.962 . S
H612 C598 0.960 . S
H613 C599 0.961 . S
H614 C599 0.961 . S
H615 C599 0.961 . S
H616 C600 0.931 . S
H617 C605 0.930 . S
H618 C606 0.956 . S
H619 C606 0.961 . S
H620 C606 0.961 . S
H621 C607 0.958 . S
H622 C607 0.961 . S
H623 C607 0.960 . S
C624 C625 1.391 . S
C624 C626 1.394 . S
C624 H640 0.931 . S
C625 C624 1.391 . S
C625 C629 1.376 . S
C626 C624 1.394 . S
C626 C627 1.369 . S
C626 C630 1.531 . S
C627 C626 1.369 . S
C627 C628 1.410 . S
C627 C635 1.503 . S
C628 C627 1.410 . S
C628 C629 1.392 . S
C628 C631 1.511 . S
C629 C625 1.376 . S
C629 C628 1.392 . S
C629 H641 0.929 . S
C630 C626 1.531 . S
C630 H642 0.960 . S
C630 H643 0.962 . S
C630 H644 0.960 . S
C631 C628 1.511 . S
C631 H645 0.961 . S
C631 H646 0.961 . S
C631 H647 0.961 . S
C632 C633 1.370 . S
C632 C634 1.363 . S
C632 H648 0.931 . S
C633 C632 1.370 . S
C633 C637 1.408 . S
C634 C632 1.363 . S
C634 C635 1.370 . S
C634 C638 1.524 . S
C635 C627 1.503 . S
C635 C634 1.370 . S
C635 C636 1.403 . S
C636 C635 1.403 . S
C636 C637 1.404 . S
C636 C639 1.539 . S
C637 C633 1.408 . S
C637 C636 1.404 . S
C637 H649 0.930 . S
C638 C634 1.524 . S
C638 H650 0.956 . S
C638 H651 0.961 . S
C638 H652 0.961 . S
C639 C636 1.539 . S
C639 H653 0.958 . S
C639 H654 0.961 . S
C639 H655 0.960 . S
H640 C624 0.931 . S
H641 C629 0.929 . S
H642 C630 0.960 . S
H643 C630 0.962 . S
H644 C630 0.960 . S
H645 C631 0.961 . S
H646 C631 0.961 . S
H647 C631 0.961 . S
H648 C632 0.931 . S
H649 C637 0.930 . S
H650 C638 0.956 . S
H651 C638 0.961 . S
H652 C638 0.961 . S
H653 C639 0.958 . S
H654 C639 0.961 . S
H655 C639 0.960 . S
C656 C657 1.391 . S
C656 C658 1.394 . S
C656 H672 0.931 . S
C657 C656 1.391 . S
C657 C661 1.376 . S
C658 C656 1.394 . S
C658 C659 1.369 . S
C658 C662 1.531 . S
C659 C658 1.369 . S
C659 C660 1.410 . S
C659 C667 1.503 . S
C660 C659 1.410 . S
C660 C661 1.392 . S
C660 C663 1.511 . S
C661 C657 1.376 . S
C661 C660 1.392 . S
C661 H673 0.929 . S
C662 C658 1.531 . S
C662 H674 0.960 . S
C662 H675 0.962 . S
C662 H676 0.960 . S
C663 C660 1.511 . S
C663 H677 0.961 . S
C663 H678 0.961 . S
C663 H679 0.961 . S
C664 C665 1.370 . S
C664 C666 1.363 . S
C664 H680 0.931 . S
C665 C664 1.370 . S
C665 C669 1.408 . S
C666 C664 1.363 . S
C666 C667 1.370 . S
C666 C670 1.524 . S
C667 C659 1.503 . S
C667 C666 1.370 . S
C667 C668 1.403 . S
C668 C667 1.403 . S
C668 C669 1.404 . S
C668 C671 1.539 . S
C669 C665 1.408 . S
C669 C668 1.404 . S
C669 H681 0.930 . S
C670 C666 1.524 . S
C670 H682 0.956 . S
C670 H683 0.961 . S
C670 H684 0.961 . S
C671 C668 1.539 . S
C671 H685 0.958 . S
C671 H686 0.961 . S
C671 H687 0.960 . S
H672 C656 0.931 . S
H673 C661 0.929 . S
H674 C662 0.960 . S
H675 C662 0.962 . S
H676 C662 0.960 . S
H677 C663 0.961 . S
H678 C663 0.961 . S
H679 C663 0.961 . S
H680 C664 0.931 . S
H681 C669 0.930 . S
H682 C670 0.956 . S
H683 C670 0.961 . S
H684 C670 0.961 . S
H685 C671 0.958 . S
H686 C671 0.961 . S
H687 C671 0.960 . S
C688 C689 1.391 . S
C688 C690 1.394 . S
C688 H704 0.931 . S
C689 C688 1.391 . S
C689 C693 1.376 . S
C690 C688 1.394 . S
C690 C691 1.369 . S
C690 C694 1.531 . S
C691 C690 1.369 . S
C691 C692 1.410 . S
C691 C699 1.503 . S
C692 C691 1.410 . S
C692 C693 1.392 . S
C692 C695 1.511 . S
C693 C689 1.376 . S
C693 C692 1.392 . S
C693 H705 0.929 . S
C694 C690 1.531 . S
C694 H706 0.960 . S
C694 H707 0.962 . S
C694 H708 0.960 . S
C695 C692 1.511 . S
C695 H709 0.961 . S
C695 H710 0.961 . S
C695 H711 0.961 . S
C696 C697 1.370 . S
C696 C698 1.363 . S
C696 H712 0.931 . S
C697 C696 1.370 . S
C697 C701 1.408 . S
C698 C696 1.363 . S
C698 C699 1.370 . S
C698 C702 1.524 . S
C699 C691 1.503 . S
C699 C698 1.370 . S
C699 C700 1.403 . S
C700 C699 1.403 . S
C700 C701 1.404 . S
C700 C703 1.539 . S
C701 C697 1.408 . S
C701 C700 1.404 . S
C701 H713 0.930 . S
C702 C698 1.524 . S
C702 H714 0.956 . S
C702 H715 0.961 . S
C702 H716 0.961 . S
C703 C700 1.539 . S
C703 H717 0.958 . S
C703 H718 0.961 . S
C703 H719 0.960 . S
H704 C688 0.931 . S
H705 C693 0.929 . S
H706 C694 0.960 . S
H707 C694 0.962 . S
H708 C694 0.960 . S
H709 C695 0.961 . S
H710 C695 0.961 . S
H711 C695 0.961 . S
H712 C696 0.931 . S
H713 C701 0.930 . S
H714 C702 0.956 . S
H715 C702 0.961 . S
H716 C702 0.961 . S
H717 C703 0.958 . S
H718 C703 0.961 . S
H719 C703 0.960 . S
C720 C721 1.391 . S
C720 C722 1.394 . S
C720 H736 0.931 . S
C721 C720 1.391 . S
C721 C725 1.376 . S
C722 C720 1.394 . S
C722 C723 1.369 . S
C722 C726 1.531 . S
C723 C722 1.369 . S
C723 C724 1.410 . S
C723 C731 1.503 . S
C724 C723 1.410 . S
C724 C725 1.392 . S
C724 C727 1.511 . S
C725 C721 1.376 . S
C725 C724 1.392 . S
C725 H737 0.929 . S
C726 C722 1.531 . S
C726 H738 0.960 . S
C726 H739 0.962 . S
C726 H740 0.960 . S
C727 C724 1.511 . S
C727 H741 0.961 . S
C727 H742 0.961 . S
C727 H743 0.961 . S
C728 C729 1.370 . S
C728 C730 1.363 . S
C728 H744 0.931 . S
C729 C728 1.370 . S
C729 C733 1.408 . S
C730 C728 1.363 . S
C730 C731 1.370 . S
C730 C734 1.524 . S
C731 C723 1.503 . S
C731 C730 1.370 . S
C731 C732 1.403 . S
C732 C731 1.403 . S
C732 C733 1.404 . S
C732 C735 1.539 . S
C733 C729 1.408 . S
C733 C732 1.404 . S
C733 H745 0.930 . S
C734 C730 1.524 . S
C734 H746 0.956 . S
C734 H747 0.961 . S
C734 H748 0.961 . S
C735 C732 1.539 . S
C735 H749 0.958 . S
C735 H750 0.961 . S
C735 H751 0.960 . S
H736 C720 0.931 . S
H737 C725 0.929 . S
H738 C726 0.960 . S
H739 C726 0.962 . S
H740 C726 0.960 . S
H741 C727 0.961 . S
H742 C727 0.961 . S
H743 C727 0.961 . S
H744 C728 0.931 . S
H745 C733 0.930 . S
H746 C734 0.956 . S
H747 C734 0.961 . S
H748 C734 0.961 . S
H749 C735 0.958 . S
H750 C735 0.961 . S
H751 C735 0.960 . S
C752 C753 1.391 . S
C752 C754 1.394 . S
C752 H768 0.931 . S
C753 C752 1.391 . S
C753 C757 1.376 . S
C754 C752 1.394 . S
C754 C755 1.369 . S
C754 C758 1.531 . S
C755 C754 1.369 . S
C755 C756 1.410 . S
C755 C763 1.503 . S
C756 C755 1.410 . S
C756 C757 1.392 . S
C756 C759 1.511 . S
C757 C753 1.376 . S
C757 C756 1.392 . S
C757 H769 0.929 . S
C758 C754 1.531 . S
C758 H770 0.960 . S
C758 H771 0.962 . S
C758 H772 0.960 . S
C759 C756 1.511 . S
C759 H773 0.961 . S
C759 H774 0.961 . S
C759 H775 0.961 . S
C760 C761 1.370 . S
C760 C762 1.363 . S
C760 H776 0.931 . S
C761 C760 1.370 . S
C761 C765 1.408 . S
C762 C760 1.363 . S
C762 C763 1.370 . S
C762 C766 1.524 . S
C763 C755 1.503 . S
C763 C762 1.370 . S
C763 C764 1.403 . S
C764 C763 1.403 . S
C764 C765 1.404 . S
C764 C767 1.539 . S
C765 C761 1.408 . S
C765 C764 1.404 . S
C765 H777 0.930 . S
C766 C762 1.524 . S
C766 H778 0.956 . S
C766 H779 0.961 . S
C766 H780 0.961 . S
C767 C764 1.539 . S
C767 H781 0.958 . S
C767 H782 0.961 . S
C767 H783 0.960 . S
H768 C752 0.931 . S
H769 C757 0.929 . S
H770 C758 0.960 . S
H771 C758 0.962 . S
H772 C758 0.960 . S
H773 C759 0.961 . S
H774 C759 0.961 . S
H775 C759 0.961 . S
H776 C760 0.931 . S
H777 C765 0.930 . S
H778 C766 0.956 . S
H779 C766 0.961 . S
H780 C766 0.961 . S
H781 C767 0.958 . S
H782 C767 0.961 . S
H783 C767 0.960 . S
C784 C785 1.391 . S
C784 C786 1.394 . S
C784 H800 0.931 . S
C785 C784 1.391 . S
C785 C789 1.376 . S
C786 C784 1.394 . S
C786 C787 1.369 . S
C786 C790 1.531 . S
C787 C786 1.369 . S
C787 C788 1.410 . S
C787 C795 1.503 . S
C788 C787 1.410 . S
C788 C789 1.392 . S
C788 C791 1.511 . S
C789 C785 1.376 . S
C789 C788 1.392 . S
C789 H801 0.929 . S
C790 C786 1.531 . S
C790 H802 0.960 . S
C790 H803 0.962 . S
C790 H804 0.960 . S
C791 C788 1.511 . S
C791 H805 0.961 . S
C791 H806 0.961 . S
C791 H807 0.961 . S
C792 C793 1.370 . S
C792 C794 1.363 . S
C792 H808 0.931 . S
C793 C792 1.370 . S
C793 C797 1.408 . S
C794 C792 1.363 . S
C794 C795 1.370 . S
C794 C798 1.524 . S
C795 C787 1.503 . S
C795 C794 1.370 . S
C795 C796 1.403 . S
C796 C795 1.403 . S
C796 C797 1.404 . S
C796 C799 1.539 . S
C797 C793 1.408 . S
C797 C796 1.404 . S
C797 H809 0.930 . S
C798 C794 1.524 . S
C798 H810 0.956 . S
C798 H811 0.961 . S
C798 H812 0.961 . S
C799 C796 1.539 . S
C799 H813 0.958 . S
C799 H814 0.961 . S
C799 H815 0.960 . S
H800 C784 0.931 . S
H801 C789 0.929 . S
H802 C790 0.960 . S
H803 C790 0.962 . S
H804 C790 0.960 . S
H805 C791 0.961 . S
H806 C791 0.961 . S
H807 C791 0.961 . S
H808 C792 0.931 . S
H809 C797 0.930 . S
H810 C798 0.956 . S
H811 C798 0.961 . S
H812 C798 0.961 . S
H813 C799 0.958 . S
H814 C799 0.961 . S
H815 C799 0.960 . S
C816 C817 1.391 . S
C816 C818 1.394 . S
C816 H832 0.931 . S
C817 C816 1.391 . S
C817 C821 1.376 . S
C818 C816 1.394 . S
C818 C819 1.369 . S
C818 C822 1.531 . S
C819 C818 1.369 . S
C819 C820 1.410 . S
C819 C827 1.503 . S
C820 C819 1.410 . S
C820 C821 1.392 . S
C820 C823 1.511 . S
C821 C817 1.376 . S
C821 C820 1.392 . S
C821 H833 0.929 . S
C822 C818 1.531 . S
C822 H834 0.960 . S
C822 H835 0.962 . S
C822 H836 0.960 . S
C823 C820 1.511 . S
C823 H837 0.961 . S
C823 H838 0.961 . S
C823 H839 0.961 . S
C824 C825 1.370 . S
C824 C826 1.363 . S
C824 H840 0.931 . S
C825 C824 1.370 . S
C825 C829 1.408 . S
C826 C824 1.363 . S
C826 C827 1.370 . S
C826 C830 1.524 . S
C827 C819 1.503 . S
C827 C826 1.370 . S
C827 C828 1.403 . S
C828 C827 1.403 . S
C828 C829 1.404 . S
C828 C831 1.539 . S
C829 C825 1.408 . S
C829 C828 1.404 . S
C829 H841 0.930 . S
C830 C826 1.524 . S
C830 H842 0.956 . S
C830 H843 0.961 . S
C830 H844 0.961 . S
C831 C828 1.539 . S
C831 H845 0.958 . S
C831 H846 0.961 . S
C831 H847 0.960 . S
H832 C816 0.931 . S
H833 C821 0.929 . S
H834 C822 0.960 . S
H835 C822 0.962 . S
H836 C822 0.960 . S
H837 C823 0.961 . S
H838 C823 0.961 . S
H839 C823 0.961 . S
H840 C824 0.931 . S
H841 C829 0.930 . S
H842 C830 0.956 . S
H843 C830 0.961 . S
H844 C830 0.961 . S
H845 C831 0.958 . S
H846 C831 0.961 . S
H847 C831 0.960 . S
C848 C849 1.391 . S
C848 C850 1.394 . S
C848 H864 0.931 . S
C849 C848 1.391 . S
C849 C853 1.376 . S
C850 C848 1.394 . S
C850 C851 1.369 . S
C850 C854 1.531 . S
C851 C850 1.369 . S
C851 C852 1.410 . S
C851 C859 1.503 . S
C852 C851 1.410 . S
C852 C853 1.392 . S
C852 C855 1.511 . S
C853 C849 1.376 . S
C853 C852 1.392 . S
C853 H865 0.929 . S
C854 C850 1.531 . S
C854 H866 0.960 . S
C854 H867 0.962 . S
C854 H868 0.960 . S
C855 C852 1.511 . S
C855 H869 0.961 . S
C855 H870 0.961 . S
C855 H871 0.961 . S
C856 C857 1.370 . S
C856 C858 1.363 . S
C856 H872 0.931 . S
C857 C856 1.370 . S
C857 C861 1.408 . S
C858 C856 1.363 . S
C858 C859 1.370 . S
C858 C862 1.524 . S
C859 C851 1.503 . S
C859 C858 1.370 . S
C859 C860 1.403 . S
C860 C859 1.403 . S
C860 C861 1.404 . S
C860 C863 1.539 . S
C861 C857 1.408 . S
C861 C860 1.404 . S
C861 H873 0.930 . S
C862 C858 1.524 . S
C862 H874 0.956 . S
C862 H875 0.961 . S
C862 H876 0.961 . S
C863 C860 1.539 . S
C863 H877 0.958 . S
C863 H878 0.961 . S
C863 H879 0.960 . S
H864 C848 0.931 . S
H865 C853 0.929 . S
H866 C854 0.960 . S
H867 C854 0.962 . S
H868 C854 0.960 . S
H869 C855 0.961 . S
H870 C855 0.961 . S
H871 C855 0.961 . S
H872 C856 0.931 . S
H873 C861 0.930 . S
H874 C862 0.956 . S
H875 C862 0.961 . S
H876 C862 0.961 . S
H877 C863 0.958 . S
H878 C863 0.961 . S
H879 C863 0.960 . S
C880 C881 1.391 . S
C880 C882 1.394 . S
C880 H896 0.931 . S
C881 C880 1.391 . S
C881 C885 1.376 . S
C882 C880 1.394 . S
C882 C883 1.369 . S
C882 C886 1.531 . S
C883 C882 1.369 . S
C883 C884 1.410 . S
C883 C891 1.503 . S
C884 C883 1.410 . S
C884 C885 1.392 . S
C884 C887 1.511 . S
C885 C881 1.376 . S
C885 C884 1.392 . S
C885 H897 0.929 . S
C886 C882 1.531 . S
C886 H898 0.960 . S
C886 H899 0.962 . S
C886 H900 0.960 . S
C887 C884 1.511 . S
C887 H901 0.961 . S
C887 H902 0.961 . S
C887 H903 0.961 . S
C888 C889 1.370 . S
C888 C890 1.363 . S
C888 H904 0.931 . S
C889 C888 1.370 . S
C889 C893 1.408 . S
C890 C888 1.363 . S
C890 C891 1.370 . S
C890 C894 1.524 . S
C891 C883 1.503 . S
C891 C890 1.370 . S
C891 C892 1.403 . S
C892 C891 1.403 . S
C892 C893 1.404 . S
C892 C895 1.539 . S
C893 C889 1.408 . S
C893 C892 1.404 . S
C893 H905 0.930 . S
C894 C890 1.524 . S
C894 H906 0.956 . S
C894 H907 0.961 . S
C894 H908 0.961 . S
C895 C892 1.539 . S
C895 H909 0.958 . S
C895 H910 0.961 . S
C895 H911 0.960 . S
H896 C880 0.931 . S
H897 C885 0.929 . S
H898 C886 0.960 . S
H899 C886 0.962 . S
H900 C886 0.960 . S
H901 C887 0.961 . S
H902 C887 0.961 . S
H903 C887 0.961 . S
H904 C888 0.931 . S
H905 C893 0.930 . S
H906 C894 0.956 . S
H907 C894 0.961 . S
H908 C894 0.961 . S
H909 C895 0.958 . S
H910 C895 0.961 . S
H911 C895 0.960 . S
C912 C913 1.391 . S
C912 C914 1.394 . S
C912 H928 0.931 . S
C913 C912 1.391 . S
C913 C917 1.376 . S
C914 C912 1.394 . S
C914 C915 1.369 . S
C914 C918 1.531 . S
C915 C914 1.369 . S
C915 C916 1.410 . S
C915 C923 1.503 . S
C916 C915 1.410 . S
C916 C917 1.392 . S
C916 C919 1.511 . S
C917 C913 1.376 . S
C917 C916 1.392 . S
C917 H929 0.929 . S
C918 C914 1.531 . S
C918 H930 0.960 . S
C918 H931 0.962 . S
C918 H932 0.960 . S
C919 C916 1.511 . S
C919 H933 0.961 . S
C919 H934 0.961 . S
C919 H935 0.961 . S
C920 C921 1.370 . S
C920 C922 1.363 . S
C920 H936 0.931 . S
C921 C920 1.370 . S
C921 C925 1.408 . S
C922 C920 1.363 . S
C922 C923 1.370 . S
C922 C926 1.524 . S
C923 C915 1.503 . S
C923 C922 1.370 . S
C923 C924 1.403 . S
C924 C923 1.403 . S
C924 C925 1.404 . S
C924 C927 1.539 . S
C925 C921 1.408 . S
C925 C924 1.404 . S
C925 H937 0.930 . S
C926 C922 1.524 . S
C926 H938 0.956 . S
C926 H939 0.961 . S
C926 H940 0.961 . S
C927 C924 1.539 . S
C927 H941 0.958 . S
C927 H942 0.961 . S
C927 H943 0.960 . S
H928 C912 0.931 . S
H929 C917 0.929 . S
H930 C918 0.960 . S
H931 C918 0.962 . S
H932 C918 0.960 . S
H933 C919 0.961 . S
H934 C919 0.961 . S
H935 C919 0.961 . S
H936 C920 0.931 . S
H937 C925 0.930 . S
H938 C926 0.956 . S
H939 C926 0.961 . S
H940 C926 0.961 . S
H941 C927 0.958 . S
H942 C927 0.961 . S
H943 C927 0.960 . S
C944 C945 1.391 . S
C944 C946 1.394 . S
C944 H960 0.931 . S
C945 C944 1.391 . S
C945 C949 1.376 . S
C946 C944 1.394 . S
C946 C947 1.369 . S
C946 C950 1.531 . S
C947 C946 1.369 . S
C947 C948 1.410 . S
C947 C955 1.503 . S
C948 C947 1.410 . S
C948 C949 1.392 . S
C948 C951 1.511 . S
C949 C945 1.376 . S
C949 C948 1.392 . S
C949 H961 0.929 . S
C950 C946 1.531 . S
C950 H962 0.960 . S
C950 H963 0.962 . S
C950 H964 0.960 . S
C951 C948 1.511 . S
C951 H965 0.961 . S
C951 H966 0.961 . S
C951 H967 0.961 . S
C952 C953 1.370 . S
C952 C954 1.363 . S
C952 H968 0.931 . S
C953 C952 1.370 . S
C953 C957 1.408 . S
C954 C952 1.363 . S
C954 C955 1.370 . S
C954 C958 1.524 . S
C955 C947 1.503 . S
C955 C954 1.370 . S
C955 C956 1.403 . S
C956 C955 1.403 . S
C956 C957 1.404 . S
C956 C959 1.539 . S
C957 C953 1.408 . S
C957 C956 1.404 . S
C957 H969 0.930 . S
C958 C954 1.524 . S
C958 H970 0.956 . S
C958 H971 0.961 . S
C958 H972 0.961 . S
C959 C956 1.539 . S
C959 H973 0.958 . S
C959 H974 0.961 . S
C959 H975 0.960 . S
H960 C944 0.931 . S
H961 C949 0.929 . S
H962 C950 0.960 . S
H963 C950 0.962 . S
H964 C950 0.960 . S
H965 C951 0.961 . S
H966 C951 0.961 . S
H967 C951 0.961 . S
H968 C952 0.931 . S
H969 C957 0.930 . S
H970 C958 0.956 . S
H971 C958 0.961 . S
H972 C958 0.961 . S
H973 C959 0.958 . S
H974 C959 0.961 . S
H975 C959 0.960 . S
C976 C977 1.391 . S
C976 C978 1.394 . S
C976 H992 0.931 . S
C977 C976 1.391 . S
C977 C981 1.376 . S
C978 C976 1.394 . S
C978 C979 1.369 . S
C978 C982 1.531 . S
C979 C978 1.369 . S
C979 C980 1.410 . S
C979 C987 1.503 . S
C980 C979 1.410 . S
C980 C981 1.392 . S
C980 C983 1.511 . S
C981 C977 1.376 . S
C981 C980 1.392 . S
C981 H993 0.929 . S
C982 C978 1.531 . S
C982 H994 0.960 . S
C982 H995 0.962 . S
C982 H996 0.960 . S
C983 C980 1.511 . S
C983 H997 0.961 . S
C983 H998 0.961 . S
C983 H999 0.961 . S
C984 C985 1.370 . S
C984 C986 1.363 . S
C984 H1000 0.931 . S
C985 C984 1.370 . S
C985 C989 1.408 . S
C986 C984 1.363 . S
C986 C987 1.370 . S
C986 C990 1.524 . S
C987 C979 1.503 . S
C987 C986 1.370 . S
C987 C988 1.403 . S
C988 C987 1.403 . S
C988 C989 1.404 . S
C988 C991 1.539 . S
C989 C985 1.408 . S
C989 C988 1.404 . S
C989 H1001 0.930 . S
C990 C986 1.524 . S
C990 H1002 0.956 . S
C990 H1003 0.961 . S
C990 H1004 0.961 . S
C991 C988 1.539 . S
C991 H1005 0.958 . S
C991 H1006 0.961 . S
C991 H1007 0.960 . S
H992 C976 0.931 . S
H993 C981 0.929 . S
H994 C982 0.960 . S
H995 C982 0.962 . S
H996 C982 0.960 . S
H997 C983 0.961 . S
H998 C983 0.961 . S
H999 C983 0.961 . S
H1000 C984 0.931 . S
H1001 C989 0.930 . S
H1002 C990 0.956 . S
H1003 C990 0.961 . S
H1004 C990 0.961 . S
H1005 C991 0.958 . S
H1006 C991 0.961 . S
H1007 C991 0.960 . S
C1008 C1009 1.391 . S
C1008 C1010 1.394 . S
C1008 H1024 0.931 . S
C1009 C1008 1.391 . S
C1009 C1013 1.376 . S
C1010 C1008 1.394 . S
C1010 C1011 1.369 . S
C1010 C1014 1.531 . S
C1011 C1010 1.369 . S
C1011 C1012 1.410 . S
C1011 C1019 1.503 . S
C1012 C1011 1.410 . S
C1012 C1013 1.392 . S
C1012 C1015 1.511 . S
C1013 C1009 1.376 . S
C1013 C1012 1.392 . S
C1013 H1025 0.929 . S
C1014 C1010 1.531 . S
C1014 H1026 0.960 . S
C1014 H1027 0.962 . S
C1014 H1028 0.960 . S
C1015 C1012 1.511 . S
C1015 H1029 0.961 . S
C1015 H1030 0.961 . S
C1015 H1031 0.961 . S
C1016 C1017 1.370 . S
C1016 C1018 1.363 . S
C1016 H1032 0.931 . S
C1017 C1016 1.370 . S
C1017 C1021 1.408 . S
C1018 C1016 1.363 . S
C1018 C1019 1.370 . S
C1018 C1022 1.524 . S
C1019 C1011 1.503 . S
C1019 C1018 1.370 . S
C1019 C1020 1.403 . S
C1020 C1019 1.403 . S
C1020 C1021 1.404 . S
C1020 C1023 1.539 . S
C1021 C1017 1.408 . S
C1021 C1020 1.404 . S
C1021 H1033 0.930 . S
C1022 C1018 1.524 . S
C1022 H1034 0.956 . S
C1022 H1035 0.961 . S
C1022 H1036 0.961 . S
C1023 C1020 1.539 . S
C1023 H1037 0.958 . S
C1023 H1038 0.961 . S
C1023 H1039 0.960 . S
H1024 C1008 0.931 . S
H1025 C1013 0.929 . S
H1026 C1014 0.960 . S
H1027 C1014 0.962 . S
H1028 C1014 0.960 . S
H1029 C1015 0.961 . S
H1030 C1015 0.961 . S
H1031 C1015 0.961 . S
H1032 C1016 0.931 . S
H1033 C1021 0.930 . S
H1034 C1022 0.956 . S
H1035 C1022 0.961 . S
H1036 C1022 0.961 . S
H1037 C1023 0.958 . S
H1038 C1023 0.961 . S
H1039 C1023 0.960 . S
C1040 C1041 1.391 . S
C1040 C1042 1.394 . S
C1040 H1056 0.931 . S
C1041 C1040 1.391 . S
C1041 C1045 1.376 . S
C1042 C1040 1.394 . S
C1042 C1043 1.369 . S
C1042 C1046 1.531 . S
C1043 C1042 1.369 . S
C1043 C1044 1.410 . S
C1043 C1051 1.503 . S
C1044 C1043 1.410 . S
C1044 C1045 1.392 . S
C1044 C1047 1.511 . S
C1045 C1041 1.376 . S
C1045 C1044 1.392 . S
C1045 H1057 0.929 . S
C1046 C1042 1.531 . S
C1046 H1058 0.960 . S
C1046 H1059 0.962 . S
C1046 H1060 0.960 . S
C1047 C1044 1.511 . S
C1047 H1061 0.961 . S
C1047 H1062 0.961 . S
C1047 H1063 0.961 . S
C1048 C1049 1.370 . S
C1048 C1050 1.363 . S
C1048 H1064 0.931 . S
C1049 C1048 1.370 . S
C1049 C1053 1.408 . S
C1050 C1048 1.363 . S
C1050 C1051 1.370 . S
C1050 C1054 1.524 . S
C1051 C1043 1.503 . S
C1051 C1050 1.370 . S
C1051 C1052 1.403 . S
C1052 C1051 1.403 . S
C1052 C1053 1.404 . S
C1052 C1055 1.539 . S
C1053 C1049 1.408 . S
C1053 C1052 1.404 . S
C1053 H1065 0.930 . S
C1054 C1050 1.524 . S
C1054 H1066 0.956 . S
C1054 H1067 0.961 . S
C1054 H1068 0.961 . S
C1055 C1052 1.539 . S
C1055 H1069 0.958 . S
C1055 H1070 0.961 . S
C1055 H1071 0.960 . S
H1056 C1040 0.931 . S
H1057 C1045 0.929 . S
H1058 C1046 0.960 . S
H1059 C1046 0.962 . S
H1060 C1046 0.960 . S
H1061 C1047 0.961 . S
H1062 C1047 0.961 . S
H1063 C1047 0.961 . S
H1064 C1048 0.931 . S
H1065 C1053 0.930 . S
H1066 C1054 0.956 . S
H1067 C1054 0.961 . S
H1068 C1054 0.961 . S
H1069 C1055 0.958 . S
H1070 C1055 0.961 . S
H1071 C1055 0.960 . S
C1072 C1073 1.391 . S
C1072 C1074 1.394 . S
C1072 H1088 0.931 . S
C1073 C1072 1.391 . S
C1073 C1077 1.376 . S
C1074 C1072 1.394 . S
C1074 C1075 1.369 . S
C1074 C1078 1.531 . S
C1075 C1074 1.369 . S
C1075 C1076 1.410 . S
C1075 C1083 1.503 . S
C1076 C1075 1.410 . S
C1076 C1077 1.392 . S
C1076 C1079 1.511 . S
C1077 C1073 1.376 . S
C1077 C1076 1.392 . S
C1077 H1089 0.929 . S
C1078 C1074 1.531 . S
C1078 H1090 0.960 . S
C1078 H1091 0.962 . S
C1078 H1092 0.960 . S
C1079 C1076 1.511 . S
C1079 H1093 0.961 . S
C1079 H1094 0.961 . S
C1079 H1095 0.961 . S
C1080 C1081 1.370 . S
C1080 C1082 1.363 . S
C1080 H1096 0.931 . S
C1081 C1080 1.370 . S
C1081 C1085 1.408 . S
C1082 C1080 1.363 . S
C1082 C1083 1.370 . S
C1082 C1086 1.524 . S
C1083 C1075 1.503 . S
C1083 C1082 1.370 . S
C1083 C1084 1.403 . S
C1084 C1083 1.403 . S
C1084 C1085 1.404 . S
C1084 C1087 1.539 . S
C1085 C1081 1.408 . S
C1085 C1084 1.404 . S
C1085 H1097 0.930 . S
C1086 C1082 1.524 . S
C1086 H1098 0.956 . S
C1086 H1099 0.961 . S
C1086 H1100 0.961 . S
C1087 C1084 1.539 . S
C1087 H1101 0.958 . S
C1087 H1102 0.961 . S
C1087 H1103 0.960 . S
H1088 C1072 0.931 . S
H1089 C1077 0.929 . S
H1090 C1078 0.960 . S
H1091 C1078 0.962 . S
H1092 C1078 0.960 . S
H1093 C1079 0.961 . S
H1094 C1079 0.961 . S
H1095 C1079 0.961 . S
H1096 C1080 0.931 . S
H1097 C1085 0.930 . S
H1098 C1086 0.956 . S
H1099 C1086 0.961 . S
H1100 C1086 0.961 . S
H1101 C1087 0.958 . S
H1102 C1087 0.961 . S
H1103 C1087 0.960 . S
C1104 C1105 1.391 . S
C1104 C1106 1.394 . S
C1104 H1120 0.931 . S
C1105 C1104 1.391 . S
C1105 C1109 1.376 . S
C1106 C1104 1.394 . S
C1106 C1107 1.369 . S
C1106 C1110 1.531 . S
C1107 C1106 1.369 . S
C1107 C1108 1.410 . S
C1107 C1115 1.503 . S
C1108 C1107 1.410 . S
C1108 C1109 1.392 . S
C1108 C1111 1.511 . S
C1109 C1105 1.376 . S
C1109 C1108 1.392 . S
C1109 H1121 0.929 . S
C1110 C1106 1.531 . S
C1110 H1122 0.960 . S
C1110 H1123 0.962 . S
C1110 H1124 0.960 . S
C1111 C1108 1.511 . S
C1111 H1125 0.961 . S
C1111 H1126 0.961 . S
C1111 H1127 0.961 . S
C1112 C1113 1.370 . S
C1112 C1114 1.363 . S
C1112 H1128 0.931 . S
C1113 C1112 1.370 . S
C1113 C1117 1.408 . S
C1114 C1112 1.363 . S
C1114 C1115 1.370 . S
C1114 C1118 1.524 . S
C1115 C1107 1.503 . S
C1115 C1114 1.370 . S
C1115 C1116 1.403 . S
C1116 C1115 1.403 . S
C1116 C1117 1.404 . S
C1116 C1119 1.539 . S
C1117 C1113 1.408 . S
C1117 C1116 1.404 . S
C1117 H1129 0.930 . S
C1118 C1114 1.524 . S
C1118 H1130 0.956 . S
C1118 H1131 0.961 . S
C1118 H1132 0.961 . S
C1119 C1116 1.539 . S
C1119 H1133 0.958 . S
C1119 H1134 0.961 . S
C1119 H1135 0.960 . S
H1120 C1104 0.931 . S
H1121 C1109 0.929 . S
H1122 C1110 0.960 . S
H1123 C1110 0.962 . S
H1124 C1110 0.960 . S
H1125 C1111 0.961 . S
H1126 C1111 0.961 . S
H1127 C1111 0.961 . S
H1128 C1112 0.931 . S
H1129 C1117 0.930 . S
H1130 C1118 0.956 . S
H1131 C1118 0.961 . S
H1132 C1118 0.961 . S
H1133 C1119 0.958 . S
H1134 C1119 0.961 . S
H1135 C1119 0.960 . S
C1136 C1137 1.391 . S
C1136 C1138 1.394 . S
C1136 H1152 0.931 . S
C1137 C1136 1.391 . S
C1137 C1141 1.376 . S
C1138 C1136 1.394 . S
C1138 C1139 1.369 . S
C1138 C1142 1.531 . S
C1139 C1138 1.369 . S
C1139 C1140 1.410 . S
C1139 C1147 1.503 . S
C1140 C1139 1.410 . S
C1140 C1141 1.392 . S
C1140 C1143 1.511 . S
C1141 C1137 1.376 . S
C1141 C1140 1.392 . S
C1141 H1153 0.929 . S
C1142 C1138 1.531 . S
C1142 H1154 0.960 . S
C1142 H1155 0.962 . S
C1142 H1156 0.960 . S
C1143 C1140 1.511 . S
C1143 H1157 0.961 . S
C1143 H1158 0.961 . S
C1143 H1159 0.961 . S
C1144 C1145 1.370 . S
C1144 C1146 1.363 . S
C1144 H1160 0.931 . S
C1145 C1144 1.370 . S
C1145 C1149 1.408 . S
C1146 C1144 1.363 . S
C1146 C1147 1.370 . S
C1146 C1150 1.524 . S
C1147 C1139 1.503 . S
C1147 C1146 1.370 . S
C1147 C1148 1.403 . S
C1148 C1147 1.403 . S
C1148 C1149 1.404 . S
C1148 C1151 1.539 . S
C1149 C1145 1.408 . S
C1149 C1148 1.404 . S
C1149 H1161 0.930 . S
C1150 C1146 1.524 . S
C1150 H1162 0.956 . S
C1150 H1163 0.961 . S
C1150 H1164 0.961 . S
C1151 C1148 1.539 . S
C1151 H1165 0.958 . S
C1151 H1166 0.961 . S
C1151 H1167 0.960 . S
H1152 C1136 0.931 . S
H1153 C1141 0.929 . S
H1154 C1142 0.960 . S
H1155 C1142 0.962 . S
H1156 C1142 0.960 . S
H1157 C1143 0.961 . S
H1158 C1143 0.961 . S
H1159 C1143 0.961 . S
H1160 C1144 0.931 . S
H1161 C1149 0.930 . S
H1162 C1150 0.956 . S
H1163 C1150 0.961 . S
H1164 C1150 0.961 . S
H1165 C1151 0.958 . S
H1166 C1151 0.961 . S
H1167 C1151 0.960 . S
C1168 C1169 1.391 . S
C1168 C1170 1.394 . S
C1168 H1184 0.931 . S
C1169 C1168 1.391 . S
C1169 C1173 1.376 . S
C1170 C1168 1.394 . S
C1170 C1171 1.369 . S
C1170 C1174 1.531 . S
C1171 C1170 1.369 . S
C1171 C1172 1.410 . S
C1171 C1179 1.503 . S
C1172 C1171 1.410 . S
C1172 C1173 1.392 . S
C1172 C1175 1.511 . S
C1173 C1169 1.376 . S
C1173 C1172 1.392 . S
C1173 H1185 0.929 . S
C1174 C1170 1.531 . S
C1174 H1186 0.960 . S
C1174 H1187 0.962 . S
C1174 H1188 0.960 . S
C1175 C1172 1.511 . S
C1175 H1189 0.961 . S
C1175 H1190 0.961 . S
C1175 H1191 0.961 . S
C1176 C1177 1.370 . S
C1176 C1178 1.363 . S
C1176 H1192 0.931 . S
C1177 C1176 1.370 . S
C1177 C1181 1.408 . S
C1178 C1176 1.363 . S
C1178 C1179 1.370 . S
C1178 C1182 1.524 . S
C1179 C1171 1.503 . S
C1179 C1178 1.370 . S
C1179 C1180 1.403 . S
C1180 C1179 1.403 . S
C1180 C1181 1.404 . S
C1180 C1183 1.539 . S
C1181 C1177 1.408 . S
C1181 C1180 1.404 . S
C1181 H1193 0.930 . S
C1182 C1178 1.524 . S
C1182 H1194 0.956 . S
C1182 H1195 0.961 . S
C1182 H1196 0.961 . S
C1183 C1180 1.539 . S
C1183 H1197 0.958 . S
C1183 H1198 0.961 . S
C1183 H1199 0.960 . S
H1184 C1168 0.931 . S
H1185 C1173 0.929 . S
H1186 C1174 0.960 . S
H1187 C1174 0.962 . S
H1188 C1174 0.960 . S
H1189 C1175 0.961 . S
H1190 C1175 0.961 . S
H1191 C1175 0.961 . S
H1192 C1176 0.931 . S
H1193 C1181 0.930 . S
H1194 C1182 0.956 . S
H1195 C1182 0.961 . S
H1196 C1182 0.961 . S
H1197 C1183 0.958 . S
H1198 C1183 0.961 . S
H1199 C1183 0.960 . S
C1200 C1201 1.391 . S
C1200 C1202 1.394 . S
C1200 H1216 0.931 . S
C1201 C1200 1.391 . S
C1201 C1205 1.376 . S
C1202 C1200 1.394 . S
C1202 C1203 1.369 . S
C1202 C1206 1.531 . S
C1203 C1202 1.369 . S
C1203 C1204 1.410 . S
C1203 C1211 1.503 . S
C1204 C1203 1.410 . S
C1204 C1205 1.392 . S
C1204 C1207 1.511 . S
C1205 C1201 1.376 . S
C1205 C1204 1.392 . S
C1205 H1217 0.929 . S
C1206 C1202 1.531 . S
C1206 H1218 0.960 . S
C1206 H1219 0.962 . S
C1206 H1220 0.960 . S
C1207 C1204 1.511 . S
C1207 H1221 0.961 . S
C1207 H1222 0.961 . S
C1207 H1223 0.961 . S
C1208 C1209 1.370 . S
C1208 C1210 1.363 . S
C1208 H1224 0.931 . S
C1209 C1208 1.370 . S
C1209 C1213 1.408 . S
C1210 C1208 1.363 . S
C1210 C1211 1.370 . S
C1210 C1214 1.524 . S
C1211 C1203 1.503 . S
C1211 C1210 1.370 . S
C1211 C1212 1.403 . S
C1212 C1211 1.403 . S
C1212 C1213 1.404 . S
C1212 C1215 1.539 . S
C1213 C1209 1.408 . S
C1213 C1212 1.404 . S
C1213 H1225 0.930 . S
C1214 C1210 1.524 . S
C1214 H1226 0.956 . S
C1214 H1227 0.961 . S
C1214 H1228 0.961 . S
C1215 C1212 1.539 . S
C1215 H1229 0.958 . S
C1215 H1230 0.961 . S
C1215 H1231 0.960 . S
H1216 C1200 0.931 . S
H1217 C1205 0.929 . S
H1218 C1206 0.960 . S
H1219 C1206 0.962 . S
H1220 C1206 0.960 . S
H1221 C1207 0.961 . S
H1222 C1207 0.961 . S
H1223 C1207 0.961 . S
H1224 C1208 0.931 . S
H1225 C1213 0.930 . S
H1226 C1214 0.956 . S
H1227 C1214 0.961 . S
H1228 C1214 0.961 . S
H1229 C1215 0.958 . S
H1230 C1215 0.961 . S
H1231 C1215 0.960 . S
C1232 C1233 1.391 . S
C1232 C1234 1.394 . S
C1232 H1248 0.931 . S
C1233 C1232 1.391 . S
C1233 C1237 1.376 . S
C1234 C1232 1.394 . S
C1234 C1235 1.369 . S
C1234 C1238 1.531 . S
C1235 C1234 1.369 . S
C1235 C1236 1.410 . S
C1235 C1243 1.503 . S
C1236 C1235 1.410 . S
C1236 C1237 1.392 . S
C1236 C1239 1.511 . S
C1237 C1233 1.376 . S
C1237 C1236 1.392 . S
C1237 H1249 0.929 . S
C1238 C1234 1.531 . S
C1238 H1250 0.960 . S
C1238 H1251 0.962 . S
C1238 H1252 0.960 . S
C1239 C1236 1.511 . S
C1239 H1253 0.961 . S
C1239 H1254 0.961 . S
C1239 H1255 0.961 . S
C1240 C1241 1.370 . S
C1240 C1242 1.363 . S
C1240 H1256 0.931 . S
C1241 C1240 1.370 . S
C1241 C1245 1.408 . S
C1242 C1240 1.363 . S
C1242 C1243 1.370 . S
C1242 C1246 1.524 . S
C1243 C1235 1.503 . S
C1243 C1242 1.370 . S
C1243 C1244 1.403 . S
C1244 C1243 1.403 . S
C1244 C1245 1.404 . S
C1244 C1247 1.539 . S
C1245 C1241 1.408 . S
C1245 C1244 1.404 . S
C1245 H1257 0.930 . S
C1246 C1242 1.524 . S
C1246 H1258 0.956 . S
C1246 H1259 0.961 . S
C1246 H1260 0.961 . S
C1247 C1244 1.539 . S
C1247 H1261 0.958 . S
C1247 H1262 0.961 . S
C1247 H1263 0.960 . S
H1248 C1232 0.931 . S
H1249 C1237 0.929 . S
H1250 C1238 0.960 . S
H1251 C1238 0.962 . S
H1252 C1238 0.960 . S
H1253 C1239 0.961 . S
H1254 C1239 0.961 . S
H1255 C1239 0.961 . S
H1256 C1240 0.931 . S
H1257 C1245 0.930 . S
H1258 C1246 0.956 . S
H1259 C1246 0.961 . S
H1260 C1246 0.961 . S
H1261 C1247 0.958 . S
H1262 C1247 0.961 . S
H1263 C1247 0.960 . S
C1264 C1265 1.391 . S
C1264 C1266 1.394 . S
C1264 H1280 0.931 . S
C1265 C1264 1.391 . S
C1265 C1269 1.376 . S
C1266 C1264 1.394 . S
C1266 C1267 1.369 . S
C1266 C1270 1.531 . S
C1267 C1266 1.369 . S
C1267 C1268 1.410 . S
C1267 C1275 1.503 . S
C1268 C1267 1.410 . S
C1268 C1269 1.392 . S
C1268 C1271 1.511 . S
C1269 C1265 1.376 . S
C1269 C1268 1.392 . S
C1269 H1281 0.929 . S
C1270 C1266 1.531 . S
C1270 H1282 0.960 . S
C1270 H1283 0.962 . S
C1270 H1284 0.960 . S
C1271 C1268 1.511 . S
C1271 H1285 0.961 . S
C1271 H1286 0.961 . S
C1271 H1287 0.961 . S
C1272 C1273 1.370 . S
C1272 C1274 1.363 . S
C1272 H1288 0.931 . S
C1273 C1272 1.370 . S
C1273 C1277 1.408 . S
C1274 C1272 1.363 . S
C1274 C1275 1.370 . S
C1274 C1278 1.524 . S
C1275 C1267 1.503 . S
C1275 C1274 1.370 . S
C1275 C1276 1.403 . S
C1276 C1275 1.403 . S
C1276 C1277 1.404 . S
C1276 C1279 1.539 . S
C1277 C1273 1.408 . S
C1277 C1276 1.404 . S
C1277 H1289 0.930 . S
C1278 C1274 1.524 . S
C1278 H1290 0.956 . S
C1278 H1291 0.961 . S
C1278 H1292 0.961 . S
C1279 C1276 1.539 . S
C1279 H1293 0.958 . S
C1279 H1294 0.961 . S
C1279 H1295 0.960 . S
H1280 C1264 0.931 . S
H1281 C1269 0.929 . S
H1282 C1270 0.960 . S
H1283 C1270 0.962 . S
H1284 C1270 0.960 . S
H1285 C1271 0.961 . S
H1286 C1271 0.961 . S
H1287 C1271 0.961 . S
H1288 C1272 0.931 . S
H1289 C1277 0.930 . S
H1290 C1278 0.956 . S
H1291 C1278 0.961 . S
H1292 C1278 0.961 . S
H1293 C1279 0.958 . S
H1294 C1279 0.961 . S
H1295 C1279 0.960 . S
C1296 C1297 1.391 . S
C1296 C1298 1.394 . S
C1296 H1312 0.931 . S
C1297 C1296 1.391 . S
C1297 C1301 1.376 . S
C1298 C1296 1.394 . S
C1298 C1299 1.369 . S
C1298 C1302 1.531 . S
C1299 C1298 1.369 . S
C1299 C1300 1.410 . S
C1299 C1307 1.503 . S
C1300 C1299 1.410 . S
C1300 C1301 1.392 . S
C1300 C1303 1.511 . S
C1301 C1297 1.376 . S
C1301 C1300 1.392 . S
C1301 H1313 0.929 . S
C1302 C1298 1.531 . S
C1302 H1314 0.960 . S
C1302 H1315 0.962 . S
C1302 H1316 0.960 . S
C1303 C1300 1.511 . S
C1303 H1317 0.961 . S
C1303 H1318 0.961 . S
C1303 H1319 0.961 . S
C1304 C1305 1.370 . S
C1304 C1306 1.363 . S
C1304 H1320 0.931 . S
C1305 C1304 1.370 . S
C1305 C1309 1.408 . S
C1306 C1304 1.363 . S
C1306 C1307 1.370 . S
C1306 C1310 1.524 . S
C1307 C1299 1.503 . S
C1307 C1306 1.370 . S
C1307 C1308 1.403 . S
C1308 C1307 1.403 . S
C1308 C1309 1.404 . S
C1308 C1311 1.539 . S
C1309 C1305 1.408 . S
C1309 C1308 1.404 . S
C1309 H1321 0.930 . S
C1310 C1306 1.524 . S
C1310 H1322 0.956 . S
C1310 H1323 0.961 . S
C1310 H1324 0.961 . S
C1311 C1308 1.539 . S
C1311 H1325 0.958 . S
C1311 H1326 0.961 . S
C1311 H1327 0.960 . S
H1312 C1296 0.931 . S
H1313 C1301 0.929 . S
H1314 C1302 0.960 . S
H1315 C1302 0.962 . S
H1316 C1302 0.960 . S
H1317 C1303 0.961 . S
H1318 C1303 0.961 . S
H1319 C1303 0.961 . S
H1320 C1304 0.931 . S
H1321 C1309 0.930 . S
H1322 C1310 0.956 . S
H1323 C1310 0.961 . S
H1324 C1310 0.961 . S
H1325 C1311 0.958 . S
H1326 C1311 0.961 . S
H1327 C1311 0.960 . S
C1328 C1329 1.391 . S
C1328 C1330 1.394 . S
C1328 H1344 0.931 . S
C1329 C1328 1.391 . S
C1329 C1333 1.376 . S
C1330 C1328 1.394 . S
C1330 C1331 1.369 . S
C1330 C1334 1.531 . S
C1331 C1330 1.369 . S
C1331 C1332 1.410 . S
C1331 C1339 1.503 . S
C1332 C1331 1.410 . S
C1332 C1333 1.392 . S
C1332 C1335 1.511 . S
C1333 C1329 1.376 . S
C1333 C1332 1.392 . S
C1333 H1345 0.929 . S
C1334 C1330 1.531 . S
C1334 H1346 0.960 . S
C1334 H1347 0.962 . S
C1334 H1348 0.960 . S
C1335 C1332 1.511 . S
C1335 H1349 0.961 . S
C1335 H1350 0.961 . S
C1335 H1351 0.961 . S
C1336 C1337 1.370 . S
C1336 C1338 1.363 . S
C1336 H1352 0.931 . S
C1337 C1336 1.370 . S
C1337 C1341 1.408 . S
C1338 C1336 1.363 . S
C1338 C1339 1.370 . S
C1338 C1342 1.524 . S
C1339 C1331 1.503 . S
C1339 C1338 1.370 . S
C1339 C1340 1.403 . S
C1340 C1339 1.403 . S
C1340 C1341 1.404 . S
C1340 C1343 1.539 . S
C1341 C1337 1.408 . S
C1341 C1340 1.404 . S
C1341 H1353 0.930 . S
C1342 C1338 1.524 . S
C1342 H1354 0.956 . S
C1342 H1355 0.961 . S
C1342 H1356 0.961 . S
C1343 C1340 1.539 . S
C1343 H1357 0.958 . S
C1343 H1358 0.961 . S
C1343 H1359 0.960 . S
H1344 C1328 0.931 . S
H1345 C1333 0.929 . S
H1346 C1334 0.960 . S
H1347 C1334 0.962 . S
H1348 C1334 0.960 . S
H1349 C1335 0.961 . S
H1350 C1335 0.961 . S
H1351 C1335 0.961 . S
H1352 C1336 0.931 . S
H1353 C1341 0.930 . S
H1354 C1342 0.956 . S
H1355 C1342 0.961 . S
H1356 C1342 0.961 . S
H1357 C1343 0.958 . S
H1358 C1343 0.961 . S
H1359 C1343 0.960 . S
C1360 C1361 1.391 . S
C1360 C1362 1.394 . S
C1360 H1376 0.931 . S
C1361 C1360 1.391 . S
C1361 C1365 1.376 . S
C1362 C1360 1.394 . S
C1362 C1363 1.369 . S
C1362 C1366 1.531 . S
C1363 C1362 1.369 . S
C1363 C1364 1.410 . S
C1363 C1371 1.503 . S
C1364 C1363 1.410 . S
C1364 C1365 1.392 . S
C1364 C1367 1.511 . S
C1365 C1361 1.376 . S
C1365 C1364 1.392 . S
C1365 H1377 0.929 . S
C1366 C1362 1.531 . S
C1366 H1378 0.960 . S
C1366 H1379 0.962 . S
C1366 H1380 0.960 . S
C1367 C1364 1.511 . S
C1367 H1381 0.961 . S
C1367 H1382 0.961 . S
C1367 H1383 0.961 . S
C1368 C1369 1.370 . S
C1368 C1370 1.363 . S
C1368 H1384 0.931 . S
C1369 C1368 1.370 . S
C1369 C1373 1.408 . S
C1370 C1368 1.363 . S
C1370 C1371 1.370 . S
C1370 C1374 1.524 . S
C1371 C1363 1.503 . S
C1371 C1370 1.370 . S
C1371 C1372 1.403 . S
C1372 C1371 1.403 . S
C1372 C1373 1.404 . S
C1372 C1375 1.539 . S
C1373 C1369 1.408 . S
C1373 C1372 1.404 . S
C1373 H1385 0.930 . S
C1374 C1370 1.524 . S
C1374 H1386 0.956 . S
C1374 H1387 0.961 . S
C1374 H1388 0.961 . S
C1375 C1372 1.539 . S
C1375 H1389 0.958 . S
C1375 H1390 0.961 . S
C1375 H1391 0.960 . S
H1376 C1360 0.931 . S
H1377 C1365 0.929 . S
H1378 C1366 0.960 . S
H1379 C1366 0.962 . S
H1380 C1366 0.960 . S
H1381 C1367 0.961 . S
H1382 C1367 0.961 . S
H1383 C1367 0.961 . S
H1384 C1368 0.931 . S
H1385 C1373 0.930 . S
H1386 C1374 0.956 . S
H1387 C1374 0.961 . S
H1388 C1374 0.961 . S
H1389 C1375 0.958 . S
H1390 C1375 0.961 . S
H1391 C1375 0.960 . S
C1392 C1393 1.391 . S
C1392 C1394 1.394 . S
C1392 H1408 0.931 . S
C1393 C1392 1.391 . S
C1393 C1397 1.376 . S
C1394 C1392 1.394 . S
C1394 C1395 1.369 . S
C1394 C1398 1.531 . S
C1395 C1394 1.369 . S
C1395 C1396 1.410 . S
C1395 C1403 1.503 . S
C1396 C1395 1.410 . S
C1396 C1397 1.392 . S
C1396 C1399 1.511 . S
C1397 C1393 1.376 . S
C1397 C1396 1.392 . S
C1397 H1409 0.929 . S
C1398 C1394 1.531 . S
C1398 H1410 0.960 . S
C1398 H1411 0.962 . S
C1398 H1412 0.960 . S
C1399 C1396 1.511 . S
C1399 H1413 0.961 . S
C1399 H1414 0.961 . S
C1399 H1415 0.961 . S
C1400 C1401 1.370 . S
C1400 C1402 1.363 . S
C1400 H1416 0.931 . S
C1401 C1400 1.370 . S
C1401 C1405 1.408 . S
C1402 C1400 1.363 . S
C1402 C1403 1.370 . S
C1402 C1406 1.524 . S
C1403 C1395 1.503 . S
C1403 C1402 1.370 . S
C1403 C1404 1.403 . S
C1404 C1403 1.403 . S
C1404 C1405 1.404 . S
C1404 C1407 1.539 . S
C1405 C1401 1.408 . S
C1405 C1404 1.404 . S
C1405 H1417 0.930 . S
C1406 C1402 1.524 . S
C1406 H1418 0.956 . S
C1406 H1419 0.961 . S
C1406 H1420 0.961 . S
C1407 C1404 1.539 . S
C1407 H1421 0.958 . S
C1407 H1422 0.961 . S
C1407 H1423 0.960 . S
H1408 C1392 0.931 . S
H1409 C1397 0.929 . S
H1410 C1398 0.960 . S
H1411 C1398 0.962 . S
H1412 C1398 0.960 . S
H1413 C1399 0.961 . S
H1414 C1399 0.961 . S
H1415 C1399 0.961 . S
H1416 C1400 0.931 . S
H1417 C1405 0.930 . S
H1418 C1406 0.956 . S
H1419 C1406 0.961 . S
H1420 C1406 0.961 . S
H1421 C1407 0.958 . S
H1422 C1407 0.961 . S
H1423 C1407 0.960 . S
C1424 C1425 1.391 . S
C1424 C1426 1.394 . S
C1424 H1440 0.931 . S
C1425 C1424 1.391 . S
C1425 C1429 1.376 . S
C1426 C1424 1.394 . S
C1426 C1427 1.369 . S
C1426 C1430 1.531 . S
C1427 C1426 1.369 . S
C1427 C1428 1.410 . S
C1427 C1435 1.503 . S
C1428 C1427 1.410 . S
C1428 C1429 1.392 . S
C1428 C1431 1.511 . S
C1429 C1425 1.376 . S
C1429 C1428 1.392 . S
C1429 H1441 0.929 . S
C1430 C1426 1.531 . S
C1430 H1442 0.960 . S
C1430 H1443 0.962 . S
C1430 H1444 0.960 . S
C1431 C1428 1.511 . S
C1431 H1445 0.961 . S
C1431 H1446 0.961 . S
C1431 H1447 0.961 . S
C1432 C1433 1.370 . S
C1432 C1434 1.363 . S
C1432 H1448 0.931 . S
C1433 C1432 1.370 . S
C1433 C1437 1.408 . S
C1434 C1432 1.363 . S
C1434 C1435 1.370 . S
C1434 C1438 1.524 . S
C1435 C1427 1.503 . S
C1435 C1434 1.370 . S
C1435 C1436 1.403 . S
C1436 C1435 1.403 . S
C1436 C1437 1.404 . S
C1436 C1439 1.539 . S
C1437 C1433 1.408 . S
C1437 C1436 1.404 . S
C1437 H1449 0.930 . S
C1438 C1434 1.524 . S
C1438 H1450 0.956 . S
C1438 H1451 0.961 . S
C1438 H1452 0.961 . S
C1439 C1436 1.539 . S
C1439 H1453 0.958 . S
C1439 H1454 0.961 . S
C1439 H1455 0.960 . S
H1440 C1424 0.931 . S
H1441 C1429 0.929 . S
H1442 C1430 0.960 . S
H1443 C1430 0.962 . S
H1444 C1430 0.960 . S
H1445 C1431 0.961 . S
H1446 C1431 0.961 . S
H1447 C1431 0.961 . S
H1448 C1432 0.931 . S
H1449 C1437 0.930 . S
H1450 C1438 0.956 . S
H1451 C1438 0.961 . S
H1452 C1438 0.961 . S
H1453 C1439 0.958 . S
H1454 C1439 0.961 . S
H1455 C1439 0.960 . S
C1456 C1457 1.391 . S
C1456 C1458 1.394 . S
C1456 H1472 0.931 . S
C1457 C1456 1.391 . S
C1457 C1461 1.376 . S
C1458 C1456 1.394 . S
C1458 C1459 1.369 . S
C1458 C1462 1.531 . S
C1459 C1458 1.369 . S
C1459 C1460 1.410 . S
C1459 C1467 1.503 . S
C1460 C1459 1.410 . S
C1460 C1461 1.392 . S
C1460 C1463 1.511 . S
C1461 C1457 1.376 . S
C1461 C1460 1.392 . S
C1461 H1473 0.929 . S
C1462 C1458 1.531 . S
C1462 H1474 0.960 . S
C1462 H1475 0.962 . S
C1462 H1476 0.960 . S
C1463 C1460 1.511 . S
C1463 H1477 0.961 . S
C1463 H1478 0.961 . S
C1463 H1479 0.961 . S
C1464 C1465 1.370 . S
C1464 C1466 1.363 . S
C1464 H1480 0.931 . S
C1465 C1464 1.370 . S
C1465 C1469 1.408 . S
C1466 C1464 1.363 . S
C1466 C1467 1.370 . S
C1466 C1470 1.524 . S
C1467 C1459 1.503 . S
C1467 C1466 1.370 . S
C1467 C1468 1.403 . S
C1468 C1467 1.403 . S
C1468 C1469 1.404 . S
C1468 C1471 1.539 . S
C1469 C1465 1.408 . S
C1469 C1468 1.404 . S
C1469 H1481 0.930 . S
C1470 C1466 1.524 . S
C1470 H1482 0.956 . S
C1470 H1483 0.961 . S
C1470 H1484 0.961 . S
C1471 C1468 1.539 . S
C1471 H1485 0.958 . S
C1471 H1486 0.961 . S
C1471 H1487 0.960 . S
H1472 C1456 0.931 . S
H1473 C1461 0.929 . S
H1474 C1462 0.960 . S
H1475 C1462 0.962 . S
H1476 C1462 0.960 . S
H1477 C1463 0.961 . S
H1478 C1463 0.961 . S
H1479 C1463 0.961 . S
H1480 C1464 0.931 . S
H1481 C1469 0.930 . S
H1482 C1470 0.956 . S
H1483 C1470 0.961 . S
H1484 C1470 0.961 . S
H1485 C1471 0.958 . S
H1486 C1471 0.961 . S
H1487 C1471 0.960 . S
C1488 C1489 1.391 . S
C1488 C1490 1.394 . S
C1488 H1504 0.931 . S
C1489 C1488 1.391 . S
C1489 C1493 1.376 . S
C1490 C1488 1.394 . S
C1490 C1491 1.369 . S
C1490 C1494 1.531 . S
C1491 C1490 1.369 . S
C1491 C1492 1.410 . S
C1491 C1499 1.503 . S
C1492 C1491 1.410 . S
C1492 C1493 1.392 . S
C1492 C1495 1.511 . S
C1493 C1489 1.376 . S
C1493 C1492 1.392 . S
C1493 H1505 0.929 . S
C1494 C1490 1.531 . S
C1494 H1506 0.960 . S
C1494 H1507 0.962 . S
C1494 H1508 0.960 . S
C1495 C1492 1.511 . S
C1495 H1509 0.961 . S
C1495 H1510 0.961 . S
C1495 H1511 0.961 . S
C1496 C1497 1.370 . S
C1496 C1498 1.363 . S
C1496 H1512 0.931 . S
C1497 C1496 1.370 . S
C1497 C1501 1.408 . S
C1498 C1496 1.363 . S
C1498 C1499 1.370 . S
C1498 C1502 1.524 . S
C1499 C1491 1.503 . S
C1499 C1498 1.370 . S
C1499 C1500 1.403 . S
C1500 C1499 1.403 . S
C1500 C1501 1.404 . S
C1500 C1503 1.539 . S
C1501 C1497 1.408 . S
C1501 C1500 1.404 . S
C1501 H1513 0.930 . S
C1502 C1498 1.524 . S
C1502 H1514 0.956 . S
C1502 H1515 0.961 . S
C1502 H1516 0.961 . S
C1503 C1500 1.539 . S
C1503 H1517 0.958 . S
C1503 H1518 0.961 . S
C1503 H1519 0.960 . S
H1504 C1488 0.931 . S
H1505 C1493 0.929 . S
H1506 C1494 0.960 . S
H1507 C1494 0.962 . S
H1508 C1494 0.960 . S
H1509 C1495 0.961 . S
H1510 C1495 0.961 . S
H1511 C1495 0.961 . S
H1512 C1496 0.931 . S
H1513 C1501 0.930 . S
H1514 C1502 0.956 . S
H1515 C1502 0.961 . S
H1516 C1502 0.961 . S
H1517 C1503 0.958 . S
H1518 C1503 0.961 . S
H1519 C1503 0.960 . S
C1520 C1521 1.391 . S
C1520 C1522 1.394 . S
C1520 H1536 0.931 . S
C1521 C1520 1.391 . S
C1521 C1525 1.376 . S
C1522 C1520 1.394 . S
C1522 C1523 1.369 . S
C1522 C1526 1.531 . S
C1523 C1522 1.369 . S
C1523 C1524 1.410 . S
C1523 C1531 1.503 . S
C1524 C1523 1.410 . S
C1524 C1525 1.392 . S
C1524 C1527 1.511 . S
C1525 C1521 1.376 . S
C1525 C1524 1.392 . S
C1525 H1537 0.929 . S
C1526 C1522 1.531 . S
C1526 H1538 0.960 . S
C1526 H1539 0.962 . S
C1526 H1540 0.960 . S
C1527 C1524 1.511 . S
C1527 H1541 0.961 . S
C1527 H1542 0.961 . S
C1527 H1543 0.961 . S
C1528 C1529 1.370 . S
C1528 C1530 1.363 . S
C1528 H1544 0.931 . S
C1529 C1528 1.370 . S
C1529 C1533 1.408 . S
C1530 C1528 1.363 . S
C1530 C1531 1.370 . S
C1530 C1534 1.524 . S
C1531 C1523 1.503 . S
C1531 C1530 1.370 . S
C1531 C1532 1.403 . S
C1532 C1531 1.403 . S
C1532 C1533 1.404 . S
C1532 C1535 1.539 . S
C1533 C1529 1.408 . S
C1533 C1532 1.404 . S
C1533 H1545 0.930 . S
C1534 C1530 1.524 . S
C1534 H1546 0.956 . S
C1534 H1547 0.961 . S
C1534 H1548 0.961 . S
C1535 C1532 1.539 . S
C1535 H1549 0.958 . S
C1535 H1550 0.961 . S
C1535 H1551 0.960 . S
H1536 C1520 0.931 . S
H1537 C1525 0.929 . S
H1538 C1526 0.960 . S
H1539 C1526 0.962 . S
H1540 C1526 0.960 . S
H1541 C1527 0.961 . S
H1542 C1527 0.961 . S
H1543 C1527 0.961 . S
H1544 C1528 0.931 . S
H1545 C1533 0.930 . S
H1546 C1534 0.956 . S
H1547 C1534 0.961 . S
H1548 C1534 0.961 . S
H1549 C1535 0.958 . S
H1550 C1535 0.961 . S
H1551 C1535 0.960 . S
C1552 C1553 1.391 . S
C1552 C1554 1.394 . S
C1552 H1568 0.931 . S
C1553 C1552 1.391 . S
C1553 C1557 1.376 . S
C1554 C1552 1.394 . S
C1554 C1555 1.369 . S
C1554 C1558 1.531 . S
C1555 C1554 1.369 . S
C1555 C1556 1.410 . S
C1555 C1563 1.503 . S
C1556 C1555 1.410 . S
C1556 C1557 1.392 . S
C1556 C1559 1.511 . S
C1557 C1553 1.376 . S
C1557 C1556 1.392 . S
C1557 H1569 0.929 . S
C1558 C1554 1.531 . S
C1558 H1570 0.960 . S
C1558 H1571 0.962 . S
C1558 H1572 0.960 . S
C1559 C1556 1.511 . S
C1559 H1573 0.961 . S
C1559 H1574 0.961 . S
C1559 H1575 0.961 . S
C1560 C1561 1.370 . S
C1560 C1562 1.363 . S
C1560 H1576 0.931 . S
C1561 C1560 1.370 . S
C1561 C1565 1.408 . S
C1562 C1560 1.363 . S
C1562 C1563 1.370 . S
C1562 C1566 1.524 . S
C1563 C1555 1.503 . S
C1563 C1562 1.370 . S
C1563 C1564 1.403 . S
C1564 C1563 1.403 . S
C1564 C1565 1.404 . S
C1564 C1567 1.539 . S
C1565 C1561 1.408 . S
C1565 C1564 1.404 . S
C1565 H1577 0.930 . S
C1566 C1562 1.524 . S
C1566 H1578 0.956 . S
C1566 H1579 0.961 . S
C1566 H1580 0.961 . S
C1567 C1564 1.539 . S
C1567 H1581 0.958 . S
C1567 H1582 0.961 . S
C1567 H1583 0.960 . S
H1568 C1552 0.931 . S
H1569 C1557 0.929 . S
H1570 C1558 0.960 . S
H1571 C1558 0.962 . S
H1572 C1558 0.960 . S
H1573 C1559 0.961 . S
H1574 C1559 0.961 . S
H1575 C1559 0.961 . S
H1576 C1560 0.931 . S
H1577 C1565 0.930 . S
H1578 C1566 0.956 . S
H1579 C1566 0.961 . S
H1580 C1566 0.961 . S
H1581 C1567 0.958 . S
H1582 C1567 0.961 . S
H1583 C1567 0.960 . S
C1584 C1585 1.391 . S
C1584 C1586 1.394 . S
C1584 H1600 0.931 . S
C1585 C1584 1.391 . S
C1585 C1589 1.376 . S
C1586 C1584 1.394 . S
C1586 C1587 1.369 . S
C1586 C1590 1.531 . S
C1587 C1586 1.369 . S
C1587 C1588 1.410 . S
C1587 C1595 1.503 . S
C1588 C1587 1.410 . S
C1588 C1589 1.392 . S
C1588 C1591 1.511 . S
C1589 C1585 1.376 . S
C1589 C1588 1.392 . S
C1589 H1601 0.929 . S
C1590 C1586 1.531 . S
C1590 H1602 0.960 . S
C1590 H1603 0.962 . S
C1590 H1604 0.960 . S
C1591 C1588 1.511 . S
C1591 H1605 0.961 . S
C1591 H1606 0.961 . S
C1591 H1607 0.961 . S
C1592 C1593 1.370 . S
C1592 C1594 1.363 . S
C1592 H1608 0.931 . S
C1593 C1592 1.370 . S
C1593 C1597 1.408 . S
C1594 C1592 1.363 . S
C1594 C1595 1.370 . S
C1594 C1598 1.524 . S
C1595 C1587 1.503 . S
C1595 C1594 1.370 . S
C1595 C1596 1.403 . S
C1596 C1595 1.403 . S
C1596 C1597 1.404 . S
C1596 C1599 1.539 . S
C1597 C1593 1.408 . S
C1597 C1596 1.404 . S
C1597 H1609 0.930 . S
C1598 C1594 1.524 . S
C1598 H1610 0.956 . S
C1598 H1611 0.961 . S
C1598 H1612 0.961 . S
C1599 C1596 1.539 . S
C1599 H1613 0.958 . S
C1599 H1614 0.961 . S
C1599 H1615 0.960 . S
H1600 C1584 0.931 . S
H1601 C1589 0.929 . S
H1602 C1590 0.960 . S
H1603 C1590 0.962 . S
H1604 C1590 0.960 . S
H1605 C1591 0.961 . S
H1606 C1591 0.961 . S
H1607 C1591 0.961 . S
H1608 C1592 0.931 . S
H1609 C1597 0.930 . S
H1610 C1598 0.956 . S
H1611 C1598 0.961 . S
H1612 C1598 0.961 . S
H1613 C1599 0.958 . S
H1614 C1599 0.961 . S
H1615 C1599 0.960 . S
C601 C197 1.497 . S
C593 C12 1.411 . S
C633 C250 1.310 . S
C625 C33 1.245 . S
C665 C313 1.538 . S
C657 C51 1.477 . S
C697 C356 1.286 . S
C689 C75 1.246 . S
C721 C103 1.509 . S
C729 C312 1.542 . S
C761 C349 1.328 . S
C753 C122 1.243 . S
C793 C190 1.481 . S
C785 C145 1.438 . S
C825 C243 1.256 . S
C817 C166 1.186 . S
C857 C296 1.545 . S
C849 C164 1.414 . S
C889 C365 1.832 . S
C881 C101 1.696 . S
C921 C206 1.584 . S
C913 C124 1.458 . S
C953 C259 1.757 . S
C945 C143 1.669 . S
C985 C207 1.584 . S
C977 C30 1.445 . S
C1017 C260 1.820 . S
C1009 C54 1.654 . S
C1049 C303 1.541 . S
C1041 C72 1.456 . S
C1081 C366 1.779 . S
C1073 C9 1.635 . S
C1113 C409 1.480 . S
C1105 C159 1.399 . S
C1137 C96 1.604 . S
C1145 C462 1.696 . S
C1169 C114 1.466 . S
C1177 C524 1.562 . S
C1201 C138 1.603 . S
C1209 C578 1.689 . S
C1233 C40 1.482 . S
C1241 C525 1.514 . S
C1265 C59 1.662 . S
C1273 C577 1.742 . S
C1297 C82 1.404 . S
C1305 C402 1.509 . S
C1337 C455 1.642 . S
C1329 C19 1.550 . S
C1369 C515 1.526 . S
C1361 C17 1.351 . S
C1393 C38 1.282 . S
C1401 C561 1.390 . S
C1425 C61 1.538 . S
C1433 C418 1.595 . S
C1457 C80 1.229 . S
C1465 C471 1.371 . S
C1497 C419 1.558 . S
C1489 C93 1.467 . S
C1529 C472 1.425 . S
C1521 C117 1.289 . S
C1553 C135 1.415 . S
C1561 C508 1.558 . S
C1593 C568 1.334 . S
C1585 C156 1.257 . S
