# Generated by pormake.
# Topology ftw, (4,12)-cn, num edge types: 1
# Building blocks:
#     Node 0, Type 0, BuildingBlock: MUDLON_clean_linker_0, # of connection points: 4
#     Node 1, Type 0, BuildingBlock: MUDLON_clean_linker_0, # of connection points: 4
#     Node 2, Type 0, BuildingBlock: MUDLON_clean_linker_0, # of connection points: 4
#     Node 3, Type 1, BuildingBlock: QEWDON_clean_sbu_0, # of connection points: 12
#     Edge 4, Type (0, 1), BuildingBlock: ZUJKAS_clean_linker_0, # of connection points: 2
#     Edge 5, Type (0, 1), BuildingBlock: ZUJKAS_clean_linker_0, # of connection points: 2
#     Edge 6, Type (0, 1), BuildingBlock: ZUJKAS_clean_linker_0, # of connection points: 2
#     Edge 7, Type (0, 1), BuildingBlock: ZUJKAS_clean_linker_0, # of connection points: 2
#     Edge 8, Type (0, 1), BuildingBlock: ZUJKAS_clean_linker_0, # of connection points: 2
#     Edge 9, Type (0, 1), BuildingBlock: ZUJKAS_clean_linker_0, # of connection points: 2
#     Edge 10, Type (0, 1), BuildingBlock: ZUJKAS_clean_linker_0, # of connection points: 2
#     Edge 11, Type (0, 1), BuildingBlock: ZUJKAS_clean_linker_0, # of connection points: 2
#     Edge 12, Type (0, 1), BuildingBlock: ZUJKAS_clean_linker_0, # of connection points: 2
#     Edge 13, Type (0, 1), BuildingBlock: ZUJKAS_clean_linker_0, # of connection points: 2
#     Edge 14, Type (0, 1), BuildingBlock: ZUJKAS_clean_linker_0, # of connection points: 2
#     Edge 15, Type (0, 1), BuildingBlock: ZUJKAS_clean_linker_0, # of connection points: 2
# Relax obj value: 0.098
# Max RMSD: 0.254
# Mean RMSD: 0.184
data_MOF--net-ftw--node1-QEWDON_clean_sbu_0--node2-MUDLON_clean_linker_0--edge1-ZUJKAS_clean_linker_0
_symmetry_space_group_name_H-M    P1
_symmetry_Int_Tables_number       1
_symmetry_cell_setting            triclinic
loop_
_symmetry_equiv_pos_as_xyz
'x, y, z'
_cell_length_a     35.897645
_cell_length_b     40.072035
_cell_length_c     37.555226
_cell_angle_alpha  89.936963
_cell_angle_beta   89.918945
_cell_angle_gamma 90.672543
loop_
_atom_site_label
_atom_site_type_symbol
_atom_site_fract_x
_atom_site_fract_y
_atom_site_fract_z
_atom_type_partial_charge
H0 H 0.95952 0.64995 0.54614 0.0
N1 N 0.02238 0.61852 0.5231 0.0
H2 H 0.95277 0.68176 0.60152 0.0
H3 H 0.07079 0.62296 0.57656 0.0
H4 H 0.06425 0.65438 0.63213 0.0
H5 H 0.0729 0.65959 0.4948 0.0
H6 H 0.06556 0.69722 0.444 0.0
H7 H 0.9599 0.62455 0.48205 0.0
H8 H 0.95202 0.66238 0.43108 0.0
H9 H 0.95938 0.58349 0.5419 0.0
H10 H 0.06874 0.57375 0.4963 0.0
H11 H 0.95 0.523 0.53832 0.0
H12 H 0.05918 0.5135 0.49078 0.0
H13 H 0.92499 0.35048 0.55098 0.0
H14 H 0.92717 0.31895 0.60681 0.0
H15 H 0.04736 0.3177 0.60024 0.0
H16 H 0.04465 0.3485 0.54405 0.0
H17 H 0.04798 0.35059 0.48045 0.0
H18 H 0.05602 0.3156 0.42738 0.0
H19 H 0.93659 0.31152 0.4137 0.0
H20 H 0.92902 0.34628 0.46678 0.0
H21 H 0.93069 0.41627 0.50007 0.0
H22 H 0.93929 0.47693 0.50138 0.0
H23 H 0.05657 0.46366 0.52273 0.0
N24 N -0.01813 0.36957 0.50995 0.0
H25 H 0.0477 0.40321 0.5195 0.0
C26 C 0.01585 0.6342 0.55715 0.0
C27 C -0.01765 0.65056 0.56491 0.0
C28 C -0.02139 0.66888 0.59652 0.0
C29 C 0.00804 0.67078 0.62123 0.0
C30 C 0.04091 0.65324 0.61391 0.0
C31 C 0.04476 0.6353 0.58217 0.0
C32 C 0.01716 0.63918 0.49203 0.0
C33 C 0.04652 0.66 0.48085 0.0
C34 C 0.04212 0.68167 0.452 0.0
C35 C 0.0081 0.68304 0.43352 0.0
C36 C -0.02133 0.66181 0.44453 0.0
C37 C -0.01692 0.64019 0.47367 0.0
C38 C 0.01504 0.58311 0.51976 0.0
C39 C -0.01871 0.56832 0.53087 0.0
C40 C -0.0241 0.5336 0.52847 0.0
C41 C 0.00391 0.51289 0.51442 0.0
C42 C 0.03723 0.52817 0.50253 0.0
C43 C 0.04269 0.56274 0.50533 0.0
C44 C -0.01549 0.35192 0.54336 0.0
C45 C 0.95176 0.34346 0.56175 0.0
C46 C 0.95314 0.3256 0.59378 0.0
C47 C -0.01252 0.31575 0.60827 0.0
C48 C 0.02039 0.32447 0.58978 0.0
C49 C 0.01893 0.34235 0.55767 0.0
C50 C -0.0122 0.35092 0.47762 0.0
C51 C 0.0236 0.34219 0.46598 0.0
C52 C 0.02812 0.32208 0.43566 0.0
C53 C -0.00305 0.31064 0.41616 0.0
C54 C 0.96126 0.32012 0.42767 0.0
C55 C 0.95682 0.3399 0.45806 0.0
C56 C -0.01159 0.40519 0.50979 0.0
C57 C 0.95827 0.4266 0.50474 0.0
C58 C 0.96325 0.46134 0.50589 0.0
C59 C -0.00136 0.47564 0.51241 0.0
C60 C 0.02895 0.4539 0.51714 0.0
C61 C 0.02393 0.41913 0.51563 0.0
H62 H 0.47182 0.91727 0.35971 0.0
N63 N 0.50199 0.96881 0.39391 0.0
H64 H 0.41325 0.91546 0.32626 0.0
H65 H 0.45263 0.02032 0.38599 0.0
H66 H 0.3941 0.01859 0.35347 0.0
H67 H 0.51298 0.02776 0.35773 0.0
H68 H 0.56906 0.04441 0.32468 0.0
H69 H 0.56421 0.93471 0.38603 0.0
H70 H 0.62054 0.9513 0.35333 0.0
H71 H 0.50444 0.92592 0.44768 0.0
H72 H 0.50107 0.03099 0.42402 0.0
H73 H 0.50729 0.93832 0.51127 0.0
H74 H 0.50056 0.04378 0.48727 0.0
H75 H 0.48429 0.97015 0.69177 0.0
H76 H 0.4281 0.96032 0.72725 0.0
H77 H 0.38565 0.05575 0.6935 0.0
H78 H 0.44256 0.06571 0.65887 0.0
H79 H 0.53015 0.07346 0.69618 0.0
H80 H 0.58466 0.06949 0.73503 0.0
H81 H 0.60285 0.96895 0.69798 0.0
H82 H 0.54812 0.97321 0.65918 0.0
H83 H 0.47536 0.96856 0.62358 0.0
H84 H 0.47476 0.95518 0.56059 0.0
H85 H 0.5356 0.04673 0.53821 0.0
N86 N 0.50169 0.02675 0.65397 0.0
H87 H 0.53321 0.06111 0.60126 0.0
C88 C 0.46676 0.96875 0.37544 0.0
C89 C 0.45483 0.9394 0.35848 0.0
C90 C 0.42128 0.93839 0.33958 0.0
C91 C 0.39892 0.9669 0.33716 0.0
C92 C 0.41083 0.9963 0.3544 0.0
C93 C 0.44437 -0.00275 0.37331 0.0
C94 C 0.53431 0.97969 0.37406 0.0
C95 C 0.53617 0.01084 0.35677 0.0
C96 C 0.56827 0.02036 0.33788 0.0
C97 C 0.59922 -0.00079 0.33651 0.0
C98 C 0.59733 0.96831 0.35423 0.0
C99 C 0.56517 0.95869 0.3727 0.0
C100 C 0.50177 0.97734 0.43116 0.0
C101 C 0.50353 0.95166 0.45636 0.0
C102 C 0.50489 0.95889 0.49276 0.0
C103 C 0.50391 0.99214 0.50486 0.0
C104 C 0.50196 0.01788 0.4793 0.0
C105 C 0.50146 0.0106 0.44288 0.0
C106 C 0.46772 0.01896 0.67298 0.0
C107 C 0.46287 0.98891 0.69195 0.0
C108 C 0.43055 0.9832 0.712 0.0
C109 C 0.40247 0.00736 0.71345 0.0
C110 C 0.40699 0.03688 0.69348 0.0
C111 C 0.43932 0.04256 0.67352 0.0
C112 C 0.53528 0.02385 0.67471 0.0
C113 C 0.54613 0.05071 0.6963 0.0
C114 C 0.57706 0.04828 0.7186 0.0
C115 C 0.59796 0.01886 0.71965 0.0
C116 C 0.58747 0.99204 0.6975 0.0
C117 C 0.55622 0.99441 0.67536 0.0
C118 C 0.50369 0.01637 0.61719 0.0
C119 C 0.48831 0.98595 0.60521 0.0
C120 C 0.4884 0.9781 0.56891 0.0
C121 C 0.5048 -3e-05 0.5438 0.0
C122 C 0.52165 0.02964 0.55629 0.0
C123 C 0.52076 0.03779 0.59245 0.0
H124 H 0.45578 0.3441 0.1388 0.0
N125 N 0.49269 0.37411 0.08618 0.0
H126 H 0.39086 0.32454 0.13879 0.0
H127 H 0.44097 0.38391 0.03298 0.0
H128 H 0.37647 0.36589 0.03343 0.0
H129 H 0.48572 0.33513 0.02621 0.0
H130 H 0.52448 0.28814 1.0101 0.0
H131 H 0.55357 0.35336 0.11899 0.0
H132 H 0.59362 0.3069 0.10228 0.0
H133 H 0.49807 0.42919 0.12491 0.0
H134 H 0.50656 0.39333 1.01708 0.0
H135 H 0.505 0.48657 0.10364 0.0
H136 H 0.5108 0.45019 0.99533 0.0
H137 H 0.49605 0.64277 0.05747 0.0
H138 H 0.44872 0.6852 0.06526 0.0
H139 H 0.41114 0.66855 0.95739 0.0
H140 H 0.45855 0.62559 0.94996 0.0
H141 H 0.55157 0.64274 0.94885 0.0
H142 H 0.61215 0.66997 0.95818 0.0
H143 H 0.61279 0.63433 0.06688 0.0
H144 H 0.55194 0.6079 0.0575 0.0
H145 H 0.47138 0.58394 0.05382 0.0
H146 H 0.47024 0.5269 0.07476 0.0
H147 H 0.54497 0.49907 0.98961 0.0
N148 N 0.51122 0.60856 0.9959 0.0
H149 H 0.5438 0.55612 0.96718 0.0
C150 C 0.45349 0.36559 0.08619 0.0
C151 C 0.4384 0.34917 0.11592 0.0
C152 C 0.4013 0.33824 0.11592 0.0
C153 C 0.37857 0.34364 0.08604 0.0
C154 C 0.39339 0.36097 0.05667 0.0
C155 C 0.43045 0.37163 0.05659 0.0
C156 C 0.51659 0.34768 0.07419 0.0
C157 C 0.50916 0.32927 0.04302 0.0
C158 C 0.53157 0.30241 0.03366 0.0
C159 C 0.56201 0.29354 0.05503 0.0
C160 C 0.56993 0.3126 0.08561 0.0
C161 C 0.54736 0.33933 0.09505 0.0
C162 C 0.50152 0.407 0.07278 0.0
C163 C 0.50165 0.43376 0.09667 0.0
C164 C 0.50506 0.46652 0.08435 0.0
C165 C 0.50774 0.47323 0.04762 0.0
C166 C 0.50916 0.44618 1.02379 0.0
C167 C 0.50654 0.41342 0.03625 0.0
C168 C 0.48092 0.631 1.0029 0.0
C169 C 0.4775 0.64796 0.03555 0.0
C170 C 0.4505 0.6724 0.03994 0.0
C171 C 0.42644 0.6805 1.01183 0.0
C172 C 0.42906 0.66271 0.97967 0.0
C173 C 0.4561 0.63823 0.97532 0.0
C174 C 0.54738 0.62334 1.00227 0.0
C175 C 0.56497 0.64077 0.97457 0.0
C176 C 0.5996 0.65606 0.97993 0.0
C177 C 0.61731 0.65412 1.01324 0.0
C178 C 0.59969 0.63649 0.04103 0.0
C179 C 0.56501 0.62125 0.03565 0.0
C180 C 0.5075 0.57454 1.00838 0.0
C181 C 0.48714 0.56575 0.03914 0.0
C182 C 0.48696 0.53289 0.05155 0.0
C183 C 0.50777 0.50819 0.03414 0.0
C184 C 0.52806 0.51711 1.00345 0.0
C185 C 0.52755 0.54977 0.99061 0.0
Zn186 Zn 0.05391 0.06592 0.99831 0.0
Zn187 Zn 0.0401 0.06154 0.08374 0.0
O188 O 0.03732 0.03527 0.03835 0.0
H189 H 0.03781 0.01131 0.03601 0.0
C190 C -0.02713 0.10405 0.91985 0.0
O191 O -0.00978 0.07537 0.91915 0.0
Zn192 Zn 0.95641 0.93729 0.08883 0.0
Zn193 Zn 0.95399 0.94128 1.00284 0.0
O194 O -0.02777 0.96557 0.04724 0.0
H195 H -0.01928 0.98847 0.04829 0.0
Zn196 Zn 0.93044 0.07386 0.98246 0.0
O197 O 0.95788 0.06509 0.02953 0.0
Zn198 Zn 0.91927 0.05511 0.06767 0.0
H199 H 0.94777 0.06954 1.00622 0.0
Zn200 Zn 0.06088 0.91823 0.99184 0.0
O201 O 0.03349 0.92491 0.03935 0.0
H202 H 0.01113 0.91214 0.04451 0.0
Zn203 Zn 0.07135 0.93781 0.07692 0.0
C204 C 0.03428 0.89497 0.92069 0.0
O205 O 0.03899 0.92673 0.91294 0.0
O206 O 0.07362 0.1113 1.01641 0.0
O207 O 0.06684 0.10551 0.07504 0.0
O208 O 0.93086 0.89512 1.0137 0.0
O209 O 0.92621 0.89725 0.07269 0.0
O210 O 0.87355 0.07373 0.99 0.0
O211 O 0.86755 0.0645 0.04827 0.0
C212 C 0.07844 0.00461 0.11796 0.0
O213 O 0.11726 0.91403 1.00004 0.0
O214 O 0.12293 0.9257 0.05774 0.0
O215 O 0.92362 0.96688 0.96459 0.0
C216 C 0.07749 0.12242 0.04799 0.0
O217 O 0.084 0.04533 0.95662 0.0
C218 C 0.91346 0.99384 0.1133 0.0
O219 O 0.94878 0.10916 0.94412 0.0
C220 C 0.91984 0.88266 0.04314 0.0
O221 O 0.04009 0.8853 0.95251 0.0
C222 C 0.96412 0.08671 0.11907 0.0
O223 O 0.06898 0.03513 0.12011 0.0
O224 O 0.0671 0.98724 0.09139 0.0
C225 C 0.85338 0.07068 1.0178 0.0
O226 O 0.92404 0.96453 0.12107 0.0
O227 O 0.92453 0.00729 0.08434 0.0
C228 C 0.02774 0.90607 0.13269 0.0
O229 O 0.92992 0.08372 0.11082 0.0
O230 O -0.01255 0.07213 0.09892 0.0
C231 C 0.13712 0.91708 0.02797 0.0
O232 O 0.06073 0.91052 0.12111 0.0
O233 O 0.00077 0.9184 0.11528 0.0
C234 C 0.89285 0.97993 0.97346 0.0
O235 O 0.88296 0.97954 1.00717 0.0
C236 C 0.10249 0.01867 0.96031 0.0
O237 O 0.10122 0.00275 0.99091 0.0
H238 H 0.04363 0.25722 0.40806 0.0
H239 H 0.04789 0.21894 0.35732 0.0
H240 H 0.96358 0.27456 0.30222 0.0
H241 H 0.9596 0.31316 0.35245 0.0
H242 H -0.00918 0.17862 0.32986 0.0
H243 H 0.04444 0.26466 0.22576 0.0
H244 H 0.04662 0.27445 0.27266 0.0
H245 H 0.004 0.28002 0.24836 0.0
C246 C 0.02646 0.26167 0.38488 0.0
C247 C 0.00128 0.28837 0.38444 0.0
C248 C 0.02879 0.23963 0.35594 0.0
C249 C 0.00641 0.24402 0.32564 0.0
C250 C -0.01836 0.2709 0.32493 0.0
H251 H 0.91824 0.11137 0.16991 0.0
H252 H 0.93357 0.14744 0.21999 0.0
C253 C -0.02089 0.29279 0.35391 0.0
C254 C 0.00716 0.21945 0.29573 0.0
H255 H 0.01799 0.21285 0.2054 0.0
C256 C -0.00275 0.18606 0.30274 0.0
C257 C 0.01599 0.22889 0.2603 0.0
C258 C 0.02873 0.26389 0.25126 0.0
C259 C -0.00584 0.16239 0.27519 0.0
C260 C 0.00091 0.17228 0.23952 0.0
C261 C 0.01259 0.20525 0.23267 0.0
C262 C -0.00734 0.14958 0.20897 0.0
C263 C -0.01693 0.12699 0.28441 0.0
C264 C 0.02078 0.13886 0.18558 0.0
C265 C 0.01208 0.11782 0.15665 0.0
C266 C -0.02501 0.10772 0.15024 0.0
C267 C 0.94711 0.11864 0.1738 0.0
C268 C 0.95582 0.13922 0.20269 0.0
H269 H -0.01096 0.12114 0.31275 0.0
H270 H 0.95269 0.12364 0.28006 0.0
H271 H -0.00213 0.10888 0.26725 0.0
H272 H 0.04943 0.14665 0.1898 0.0
H273 H 0.03422 0.10985 0.13917 0.0
H274 H 0.60372 0.02536 0.2692 0.0
H275 H 0.66014 0.03494 0.2335 0.0
H276 H 0.72778 0.00457 0.32236 0.0
H277 H 0.6716 0.99451 0.35791 0.0
H278 H 0.72569 0.07394 0.24125 0.0
H279 H 0.75549 0.93836 0.24458 0.0
H280 H 0.71152 0.95507 0.25888 0.0
H281 H 0.75131 0.95676 0.28792 0.0
C282 C 0.63066 0.0212 0.28125 0.0
C283 C 0.63326 0.0087 0.31616 0.0
C284 C 0.66285 0.02667 0.26084 0.0
C285 C 0.6981 0.01984 0.27505 0.0
C286 C 0.70082 0.00927 0.31059 0.0
H287 H 0.9178 -0.00257 0.18519 0.0
H288 H 0.86706 0.01106 0.22612 0.0
C289 C 0.66872 0.00351 0.33086 0.0
C290 C 0.73181 0.0215 0.25215 0.0
H291 H 0.80154 0.9734 0.21896 0.0
C292 C 0.74233 0.05201 0.23633 0.0
C293 C 0.75327 0.99276 0.24549 0.0
C294 C 0.7422 0.95881 0.25979 0.0
C295 C 0.77424 0.05459 0.21459 0.0
C296 C 0.79587 0.02591 0.20844 0.0
C297 C 0.7852 0.99548 0.22415 0.0
C298 C 0.82889 0.02596 0.18465 0.0
C299 C 0.78486 0.08795 0.1987 0.0
C300 C 0.82472 0.03093 0.14785 0.0
C301 C 0.85379 0.02324 0.12448 0.0
C302 C 0.88737 0.01054 0.13757 0.0
C303 C 0.8923 0.0076 0.17451 0.0
C304 C 0.86335 0.01533 0.19786 0.0
H305 H 0.77094 0.10884 0.21264 0.0
H306 H 0.81549 0.09203 0.19977 0.0
H307 H 0.77628 0.08847 0.17033 0.0
H308 H 0.79808 0.0382 0.13698 0.0
H309 H 0.84866 0.02414 0.09615 0.0
H310 H -0.026 0.67162 0.36904 0.0
H311 H 0.9705 0.70957 0.31787 0.0
H312 H 0.02922 0.78546 0.37747 0.0
H313 H 0.03217 0.74803 0.42885 0.0
H314 H 0.96767 0.8099 0.33761 0.0
H315 H 0.06227 0.73251 0.25538 0.0
H316 H 0.02206 0.71119 0.27327 0.0
H317 H 0.05742 0.72683 0.30285 0.0
C318 C -0.01424 0.69652 0.37141 0.0
C319 C 0.00373 0.70661 0.40298 0.0
C320 C -0.016 0.71811 0.34203 0.0
C321 C 9e-05 0.75021 0.34363 0.0
C322 C 0.01681 0.76075 0.37551 0.0
H323 H 0.0798 0.88082 0.17792 0.0
H324 H 0.06998 0.84381 0.22878 0.0
C325 C 0.01873 0.73919 0.40479 0.0
C326 C 0.00081 0.77254 0.31188 0.0
H327 H 0.03817 0.78077 0.22852 0.0
C328 C -0.01713 0.80348 0.31364 0.0
C329 C 0.02101 0.7643 0.28078 0.0
C330 C 0.04208 0.73205 0.27784 0.0
C331 C -0.01522 0.82645 0.28524 0.0
C332 C 0.00492 0.81814 0.25411 0.0
C333 C 0.02257 0.78707 0.25229 0.0
C334 C 0.00996 0.84191 0.22386 0.0
C335 C 0.96627 0.85984 0.28927 0.0
C336 C -0.02055 0.85339 0.20407 0.0
C337 C -0.01503 0.87478 0.17485 0.0
C338 C 0.02116 0.88486 0.16469 0.0
C339 C 0.05155 0.87351 0.18482 0.0
C340 C 0.046 0.85228 0.21396 0.0
H341 H 0.95912 0.86522 0.31747 0.0
H342 H -0.01544 0.88024 0.27905 0.0
H343 H 0.94011 0.85987 0.27358 0.0
H344 H 0.95141 0.84531 0.21077 0.0
H345 H 0.96097 0.88288 0.15983 0.0
H346 H 0.34584 0.91704 0.33413 0.0
H347 H 0.2887 0.91573 0.29848 0.0
H348 H 0.31458 0.01407 0.25812 0.0
H349 H 0.37214 0.01522 0.29272 0.0
H350 H 0.22765 0.95888 0.29952 0.0
H351 H 0.29667 0.95945 0.16746 0.0
H352 H 0.32131 0.95032 0.20814 0.0
H353 H 0.31225 0.99285 0.19578 0.0
C354 C 0.33957 0.93825 0.31737 0.0
C355 C 0.36371 0.96618 0.31618 0.0
C356 C 0.30678 0.93753 0.29721 0.0
C357 C 0.29766 0.96458 0.27526 0.0
C358 C 0.32138 0.99266 0.2744 0.0
H359 H 0.09559 0.03256 0.18215 0.0
H360 H 0.14597 0.01763 0.22228 0.0
C361 C 0.3541 0.99343 0.29454 0.0
C362 C 0.26315 0.96381 0.25349 0.0
H363 H 0.23177 0.97194 0.1682 0.0
C364 C 0.22851 0.96138 0.27077 0.0
C365 C 0.26429 0.96643 0.21593 0.0
C366 C 0.30062 0.96707 0.19566 0.0
C367 C 0.19495 0.96304 0.25159 0.0
C368 C 0.19615 0.96771 0.21425 0.0
C369 C 0.23081 0.96863 0.19687 0.0
C370 C 0.16214 0.97375 0.19278 0.0
C371 C 0.15856 0.95987 0.27151 0.0
C372 C 0.15411 0.954 0.16286 0.0
C373 C 0.12536 0.96271 0.13964 0.0
C374 C 0.10418 0.99139 0.14554 0.0
C375 C 0.11122 0.01021 0.17655 0.0
C376 C 0.13994 0.00157 0.19979 0.0
H377 H 0.16202 0.94598 0.29689 0.0
H378 H 0.14838 0.98516 0.27811 0.0
H379 H 0.13704 0.94695 0.25519 0.0
H380 H 0.17097 0.93248 0.15677 0.0
H381 H 0.12113 0.94788 0.11628 0.0
H382 H 0.02966 0.65569 0.68938 0.0
H383 H 0.02865 0.69183 0.74188 0.0
H384 H -0.01919 0.77056 0.67899 0.0
H385 H -0.01894 0.73429 0.62665 0.0
H386 H 0.06464 0.74873 0.75327 0.0
H387 H 0.91368 0.77349 0.76391 0.0
H388 H 0.9319 0.7415 0.7352 0.0
H389 H 0.93208 0.78445 0.72101 0.0
C390 C 0.01863 0.68062 0.68681 0.0
C391 C 0.00528 0.692 0.6538 0.0
C392 C 0.018 0.70127 0.71689 0.0
C393 C 0.0041 0.73387 0.71474 0.0
C394 C -0.00935 0.74526 0.6818 0.0
H395 H 0.01473 0.90797 0.85163 0.0
H396 H 0.00578 0.86798 0.80304 0.0
C397 C -0.00907 0.72449 0.65177 0.0
C398 C 0.00581 0.75647 0.74637 0.0
H399 H 0.95408 0.80861 0.79847 0.0
C400 C 0.04033 0.7615 0.76332 0.0
C401 C -0.02585 0.77331 0.75965 0.0
C402 C 0.93581 0.76768 0.74423 0.0
C403 C 0.04422 0.78329 0.79245 0.0
C404 C 0.01275 0.8005 0.80526 0.0
C405 C -0.02181 0.79544 0.78856 0.0
C406 C 0.0156 0.82439 0.8355 0.0
C407 C 0.08219 0.78843 0.80887 0.0
C408 C 0.02326 0.81313 0.87012 0.0
C409 C 0.02817 0.83592 0.89809 0.0
C410 C 0.02572 0.8705 0.89193 0.0
C411 C 0.01699 0.88157 0.85736 0.0
C412 C 0.0118 0.85875 0.82951 0.0
H413 H 0.1047 0.77784 0.79215 0.0
H414 H 0.08802 0.81543 0.813 0.0
H415 H 0.08287 0.77602 0.83529 0.0
H416 H 0.02595 0.78669 0.87542 0.0
H417 H 0.0348 0.82647 0.92432 0.0
H418 H 0.36101 0.95013 0.7248 0.0
H419 H 0.30807 0.94256 0.76551 0.0
H420 H 0.31624 0.04622 0.79553 0.0
H421 H 0.36961 0.05376 0.75595 0.0
H422 H 0.31118 0.00181 0.85338 0.0
H423 H 0.20077 0.97708 0.75254 0.0
H424 H 0.24153 0.95148 0.75027 0.0
H425 H 0.24541 0.99532 0.74094 0.0
C426 C 0.35156 0.97128 0.74014 0.0
C427 C 0.36943 0.00261 0.73695 0.0
C428 C 0.3211 0.96697 0.76312 0.0
C429 C 0.30801 0.99393 0.78321 0.0
C430 C 0.3258 0.02514 0.7801 0.0
H431 H 0.11294 0.04703 0.89482 0.0
H432 H 0.16166 0.03461 0.85161 0.0
C433 C 0.35612 0.02947 0.75721 0.0
C434 C 0.27647 0.98986 0.80841 0.0
H435 H 0.18224 0.97763 0.81273 0.0
C436 C 0.28302 0.99615 0.84461 0.0
C437 C 0.23982 0.98259 0.79675 0.0
C438 C 0.23117 0.97643 0.758 0.0
C439 C 0.25375 0.99646 0.86939 0.0
C440 C 0.21697 0.98975 0.85768 0.0
C441 C 0.21052 0.98249 0.82162 0.0
C442 C 0.18461 0.99372 0.88181 0.0
C443 C 0.26224 0.00564 0.90753 0.0
C444 C 0.18055 0.97406 0.91256 0.0
C445 C 0.15282 0.98126 0.93753 0.0
C446 C 0.12856 0.0081 0.93199 0.0
C447 C 0.13134 0.02638 0.90009 0.0
C448 C 0.1591 0.01924 0.87526 0.0
H449 H 0.29078 0.01626 0.91062 0.0
H450 H 0.24195 0.02408 0.91763 0.0
H451 H 0.26005 0.98297 0.92443 0.0
H452 H 0.19956 0.95385 0.91781 0.0
H453 H 0.15129 0.96654 0.96168 0.0
H454 H 0.03345 0.2636 0.62542 0.0
H455 H 0.03349 0.23009 0.67997 0.0
H456 H 0.94453 0.2894 0.72251 0.0
H457 H 0.9445 0.32324 0.66832 0.0
H458 H 0.04397 0.24761 0.75194 0.0
H459 H 0.90253 0.19426 0.72995 0.0
H460 H 0.92821 0.2159 0.69545 0.0
H461 H 0.90448 0.23905 0.72943 0.0
C462 C 0.01413 0.26981 0.64649 0.0
C463 C -0.01127 0.29605 0.64216 0.0
C464 C 0.0141 0.25048 0.67766 0.0
C465 C -0.01144 0.25678 0.70514 0.0
C466 C 0.9639 0.2835 0.70137 0.0
H467 H 0.9347 0.16193 0.90793 0.0
H468 H 0.94071 0.20008 0.85726 0.0
C469 C 0.9639 0.30283 0.67026 0.0
C470 C -0.01256 0.23525 0.73758 0.0
H471 H 0.93068 0.18282 0.78558 0.0
C472 C 0.01925 0.23335 0.75923 0.0
C473 C 0.9552 0.21657 0.74714 0.0
C474 C 0.92075 0.21621 0.72415 0.0
C475 C 0.01943 0.21381 0.79046 0.0
C476 C -0.01287 0.19526 0.80005 0.0
C477 C 0.95538 0.19715 0.77837 0.0
C478 C -0.01437 0.17332 0.83215 0.0
C479 C 0.05394 0.21374 0.81333 0.0
C480 C 0.00898 0.14556 0.83509 0.0
C481 C 0.00556 0.12359 0.86404 0.0
C482 C -0.02136 0.12886 0.8907 0.0
C483 C 0.95582 0.15709 0.88803 0.0
C484 C 0.95915 0.17894 0.85899 0.0
H485 H 0.07245 0.23549 0.8075 0.0
H486 H 0.04654 0.21405 0.84205 0.0
H487 H 0.06982 0.19069 0.80799 0.0
H488 H 0.02919 0.14032 0.81446 0.0
H489 H 0.02355 0.10211 0.86512 0.0
H490 H 0.66738 0.99432 0.70569 0.0
H491 H 0.72036 0.99085 0.74656 0.0
H492 H 0.65377 0.03337 0.83037 0.0
H493 H 0.60105 0.03745 0.78951 0.0
H494 H 0.72219 0.06169 0.82814 0.0
H495 H 0.73493 0.92387 0.82511 0.0
H496 H 0.73818 0.94282 0.78191 0.0
H497 H 0.69533 0.94509 0.80667 0.0
C498 C 0.664 0.00266 0.73292 0.0
C499 C 0.63004 0.01609 0.74441 0.0
C500 C 0.69425 0.0006 0.75628 0.0
C501 C 0.6909 0.01136 0.79173 0.0
C502 C 0.65704 0.0249 0.80317 0.0
H503 H 0.82383 0.00672 0.98324 0.0
H504 H 0.77679 0.01775 0.93789 0.0
C505 C 0.62695 0.02726 0.77977 0.0
C506 C 0.72267 0.00896 0.81693 0.0
H507 H 0.78247 0.95391 0.85538 0.0
C508 C 0.73535 0.03811 0.8341 0.0
C509 C 0.73977 0.97816 0.82484 0.0
C510 C 0.72617 0.94566 0.80896 0.0
C511 C 0.76475 0.03731 0.85875 0.0
C512 C 0.78183 0.00657 0.8665 0.0
C513 C 0.76947 0.9775 0.84913 0.0
C514 C 0.81169 0.00359 0.89351 0.0
C515 C 0.77742 0.06936 0.87621 0.0
C516 C 0.84705 0.99227 0.88359 0.0
C517 C 0.87412 0.98613 0.90945 0.0
C518 C 0.86613 0.99075 0.9458 0.0
C519 C 0.83101 0.00306 0.95552 0.0
C520 C 0.80406 0.00944 0.92961 0.0
H521 H 0.76822 0.09162 0.86107 0.0
H522 H 0.76523 0.07068 0.90332 0.0
H523 H 0.80823 0.07032 0.87882 0.0
H524 H 0.85342 0.98749 0.85587 0.0
H525 H 0.90083 0.97661 0.90101 0.0
H526 H 0.32585 0.34167 0.139 0.0
H527 H 0.26475 0.31368 0.13721 0.0
H528 H 0.28396 0.28572 0.02795 0.0
H529 H 0.34505 0.31292 0.02958 0.0
H530 H 0.20862 0.31049 0.0452 0.0
H531 H 0.25981 0.209 0.13357 0.0
H532 H 0.26581 0.25125 0.14886 0.0
H533 H 0.29113 0.23725 0.11058 0.0
C534 C 0.31698 0.32961 0.11459 0.0
C535 C 0.34034 0.32937 0.08449 0.0
C536 C 0.28208 0.31385 0.11358 0.0
C537 C 0.27013 0.29762 0.0825 0.0
C538 C 0.29272 0.29836 0.05208 0.0
H539 H 0.11468 0.16017 0.99851 0.0
H540 H 0.15521 0.2082 1.00956 0.0
C541 C 0.32757 0.31399 0.05306 0.0
C542 C 0.23552 0.2775 0.08217 0.0
H543 H 0.19967 0.20299 0.11047 0.0
C544 C 0.20629 0.2872 0.05983 0.0
C545 C 0.23281 0.2472 0.1013 0.0
C546 C 0.26405 0.23526 0.12481 0.0
C547 C 0.17454 0.26686 0.0555 0.0
C548 C 0.17255 0.23586 0.07348 0.0
C549 C 0.20119 0.22687 0.09688 0.0
C550 C 0.14315 0.21071 0.066 0.0
C551 C 0.14374 0.27855 0.03141 0.0
C552 C 0.12285 0.19618 0.09406 0.0
C553 C 0.10005 0.16833 0.08795 0.0
C554 C 0.09729 0.1545 0.05363 0.0
C555 C 0.11614 0.17021 0.02525 0.0
C556 C 0.13909 0.19791 0.03145 0.0
H557 H 0.14315 0.30624 0.02996 0.0
H558 H 0.14868 0.26905 1.00408 0.0
H559 H 0.1161 0.26925 0.0406 0.0
H560 H 0.12579 0.2056 0.12096 0.0
H561 H 0.08567 0.15697 0.11035 0.0
H562 H 0.35394 0.68247 0.98942 0.0
H563 H 0.31083 0.72916 0.99399 0.0
H564 H 0.39505 0.78762 0.04794 0.0
H565 H 0.43867 0.74145 0.04261 0.0
H566 H 0.28584 0.76102 0.05624 0.0
H567 H 0.36115 0.84903 0.96618 0.0
H568 H 0.37064 0.80489 0.96729 0.0
H569 H 0.38845 0.83177 1.00166 0.0
C570 C 0.36339 0.70537 1.00196 0.0
C571 C 0.39974 0.70829 1.01556 0.0
C572 C 0.3387 0.73193 1.0047 0.0
C573 C 0.34997 0.76195 1.02086 0.0
C574 C 0.38604 0.76484 0.03487 0.0
H575 H 0.18518 0.90928 0.08401 0.0
H576 H 0.24203 0.87627 0.08409 0.0
C577 C 0.41074 0.73829 0.03218 0.0
C578 C 0.32358 0.7899 1.02366 0.0
H579 H 0.30768 0.86952 0.9954 0.0
C580 C 0.29066 0.78482 0.04314 0.0
C581 C 0.32997 0.82078 1.00627 0.0
C582 C 0.3643 0.82702 0.9839 0.0
C583 C 0.26364 0.8097 0.04542 0.0
C584 C 0.2701 0.84071 0.02825 0.0
C585 C 0.30316 0.84591 1.00896 0.0
C586 C 0.2411 0.86664 0.02742 0.0
C587 C 0.22779 0.8021 0.06505 0.0
C588 C 0.22344 0.87409 0.99517 0.0
C589 C 0.19113 0.89314 0.99493 0.0
C590 C 0.17592 0.90494 0.02703 0.0
C591 C 0.19583 0.90021 0.05886 0.0
C592 C 0.22823 0.88119 0.05902 0.0
H593 H 0.22421 0.775 0.07056 0.0
H594 H 0.22791 0.81546 0.09091 0.0
H595 H 0.2034 0.81069 0.04952 0.0
H596 H 0.23322 0.86335 0.97044 0.0
H597 H 0.17684 0.89674 0.96985 0.0
H598 H 0.59125 0.2471 0.10022 0.0
H599 H 0.63225 0.20095 0.08533 0.0
H600 H 0.62448 0.22625 0.97396 0.0
H601 H 0.58491 0.27353 0.98872 0.0
H602 H 0.6234 0.14511 0.04158 0.0
H603 H 0.7361 0.22995 0.99238 0.0
H604 H 0.69642 0.245 1.01678 0.0
H605 H 0.69198 0.23426 0.97051 0.0
C606 C 0.59855 0.2431 0.07257 0.0
C607 C 0.58525 0.26436 0.04572 0.0
C608 C 0.62159 0.21645 0.06408 0.0
C609 C 0.63174 0.21047 0.02861 0.0
C610 C 0.61741 0.23078 1.00157 0.0
H611 H 0.81357 0.08559 0.95791 0.0
H612 H 0.75306 0.11264 0.9557 0.0
C613 C 0.59454 0.25762 1.01005 0.0
C614 C 0.65893 0.18409 1.02044 0.0
H615 H 0.7477 0.17258 0.99096 0.0
C616 C 0.65047 0.15099 0.03018 0.0
C617 C 0.69418 0.19189 1.00555 0.0
C618 C 0.70548 0.2272 0.99594 0.0
C619 C 0.67674 0.12558 0.02613 0.0
C620 C 0.71233 0.13365 1.01232 0.0
C621 C 0.72022 0.16645 1.00131 0.0
C622 C 0.74342 0.10978 1.01248 0.0
C623 C 0.6664 0.09045 0.03705 0.0
C624 C 0.7573 0.09801 0.04501 0.0
C625 C 0.79195 0.08261 0.04645 0.0
C626 C 0.81345 0.0791 1.01537 0.0
C627 C 0.79796 0.08828 0.98242 0.0
C628 C 0.76331 0.10365 0.98104 0.0
H629 H 0.63576 0.08628 0.0362 0.0
H630 H 0.68004 0.07184 1.01961 0.0
H631 H 0.67578 0.08615 0.06481 0.0
H632 H 0.74269 0.10296 0.06967 0.0
H633 H 0.80293 0.07567 0.07223 0.0
H634 H 0.63907 0.69058 0.07128 0.0
H635 H 0.69691 0.72282 0.07858 0.0
H636 H 0.73464 0.6895 0.97569 0.0
H637 H 0.67726 0.65668 0.96837 0.0
H638 H 0.77791 0.70177 0.07113 0.0
H639 H 0.72811 0.79528 0.9728 0.0
H640 H 0.69692 0.7665 0.99527 0.0
H641 H 0.72572 0.75221 0.95943 0.0
C642 C 0.65999 0.68956 0.05052 0.0
C643 C 0.6535 0.67135 1.01909 0.0
C644 C 0.69292 0.70802 0.05472 0.0
C645 C 0.71967 0.70861 0.02753 0.0
C646 C 0.71401 0.68947 0.99678 0.0
H647 H 0.9066 0.84089 0.98697 0.0
H648 H 0.8621 0.7944 0.98453 0.0
C649 C 0.68118 0.67096 0.99257 0.0
C650 C 0.75223 0.73115 0.03013 0.0
H651 H 0.78837 0.80329 0.99584 0.0
C652 C 0.78041 0.72395 0.05468 0.0
C653 C 0.75506 0.75999 1.00862 0.0
C654 C 0.7248 0.76926 0.98267 0.0
C655 C 0.81188 0.74485 0.05797 0.0
C656 C 0.81461 0.77384 0.03655 0.0
C657 C 0.78634 0.78088 1.01199 0.0
C658 C 0.84564 0.7982 0.03982 0.0
C659 C 0.84206 0.7355 0.08391 0.0
C660 C 0.85161 0.81526 0.07192 0.0
C661 C 0.87717 0.84174 0.07348 0.0
C662 C 0.89675 0.8519 0.04278 0.0
C663 C 0.89179 0.83384 1.01103 0.0
C664 C 0.86644 0.80724 1.00959 0.0
H665 H 0.84127 0.70837 0.09007 0.0
H666 H 0.87008 0.74219 0.07336 0.0
H667 H 0.83784 0.74924 0.1092 0.0
H668 H 0.83525 0.80918 0.09535 0.0
H669 H 0.88027 0.85517 0.09834 0.0
loop_
_geom_bond_atom_site_label_1
_geom_bond_atom_site_label_2
_geom_bond_distance
_geom_bond_site_symmetry_2
_ccdc_geom_bond_type
H0 C27 0.929 1_655 S
N1 C26 1.433 . S
N1 C32 1.435 . S
N1 C38 1.423 . S
H2 C28 0.930 1_655 S
H3 C31 0.931 . S
H4 C30 0.929 . S
H5 C33 0.930 . S
H6 C34 0.932 . S
H7 C37 0.929 . S
H8 C36 0.931 . S
H9 C39 0.929 . S
H10 C43 0.932 . S
H11 C40 0.931 . S
H12 C42 0.929 . S
H13 C45 0.929 1_655 S
H14 C46 0.930 1_655 S
H15 C48 0.929 . S
H16 C49 0.931 . S
H17 C51 0.930 . S
H18 C52 0.932 . S
H19 C54 0.931 . S
H20 C55 0.929 . S
H21 C57 0.929 . S
H22 C58 0.931 . S
H23 C60 0.929 . S
N24 C44 1.433 . S
N24 C50 1.435 . S
N24 C56 1.423 . S
H25 C61 0.932 . S
C26 N1 1.433 . S
C26 C27 1.363 . S
C26 C31 1.370 . S
C27 H0 0.929 1_455 S
C27 C26 1.363 . S
C27 C28 1.385 . S
C28 H2 0.930 1_455 S
C28 C27 1.385 . S
C28 C29 1.357 . S
C29 C28 1.357 . S
C29 C30 1.406 . S
C30 H4 0.929 . S
C30 C29 1.406 . S
C30 C31 1.391 . S
C31 H3 0.931 . S
C31 C26 1.370 . S
C31 C30 1.391 . S
C32 N1 1.435 . S
C32 C33 1.358 . S
C32 C37 1.371 1_455 S
C33 H5 0.930 . S
C33 C32 1.358 . S
C33 C34 1.405 . S
C34 H6 0.932 . S
C34 C33 1.405 . S
C34 C35 1.383 . S
C35 C34 1.383 . S
C35 C36 1.392 1_455 S
C36 H8 0.931 . S
C36 C35 1.392 1_655 S
C36 C37 1.382 . S
C37 H7 0.929 . S
C37 C32 1.371 1_655 S
C37 C36 1.382 . S
C38 N1 1.423 . S
C38 C39 1.362 1_455 S
C38 C43 1.388 . S
C39 H9 0.929 . S
C39 C38 1.362 1_655 S
C39 C40 1.376 . S
C40 H11 0.931 . S
C40 C39 1.376 . S
C40 C41 1.385 1_655 S
C41 C40 1.385 1_455 S
C41 C42 1.359 . S
C41 C59 1.472 . S
C42 H12 0.929 . S
C42 C41 1.359 . S
C42 C43 1.443 . S
C43 H10 0.932 . S
C43 C38 1.388 . S
C43 C42 1.443 . S
C44 N24 1.433 . S
C44 C45 1.363 . S
C44 C49 1.370 . S
C45 H13 0.929 1_455 S
C45 C44 1.363 . S
C45 C46 1.385 . S
C46 H14 0.930 1_455 S
C46 C45 1.385 . S
C46 C47 1.357 . S
C47 C46 1.357 . S
C47 C48 1.406 . S
C48 H15 0.929 . S
C48 C47 1.406 . S
C48 C49 1.391 . S
C49 H16 0.931 . S
C49 C44 1.370 . S
C49 C48 1.391 . S
C50 N24 1.435 . S
C50 C51 1.358 . S
C50 C55 1.371 1_455 S
C51 H17 0.930 . S
C51 C50 1.358 . S
C51 C52 1.405 . S
C52 H18 0.932 . S
C52 C51 1.405 . S
C52 C53 1.383 . S
C53 C52 1.383 . S
C53 C54 1.392 1_455 S
C54 H19 0.931 . S
C54 C53 1.392 1_655 S
C54 C55 1.382 . S
C55 H20 0.929 . S
C55 C50 1.371 1_655 S
C55 C54 1.382 . S
C56 N24 1.423 . S
C56 C57 1.362 1_455 S
C56 C61 1.388 . S
C57 H21 0.929 . S
C57 C56 1.362 1_655 S
C57 C58 1.376 . S
C58 H22 0.931 . S
C58 C57 1.376 . S
C58 C59 1.385 1_655 S
C59 C41 1.472 . S
C59 C58 1.385 1_455 S
C59 C60 1.359 . S
C60 H23 0.929 . S
C60 C59 1.359 . S
C60 C61 1.443 . S
C61 H25 0.932 . S
C61 C56 1.388 . S
C61 C60 1.443 . S
H62 C89 0.929 . S
N63 C88 1.433 . S
N63 C94 1.435 . S
N63 C100 1.423 . S
H64 C90 0.930 . S
H65 C93 0.931 . S
H66 C92 0.929 . S
H67 C95 0.930 . S
H68 C96 0.932 . S
H69 C99 0.929 . S
H70 C98 0.931 . S
H71 C101 0.929 . S
H72 C105 0.915 1_545 S
H73 C102 0.931 . S
H74 C104 0.929 1_545 S
H75 C107 0.929 . S
H76 C108 0.930 . S
H77 C110 0.929 . S
H78 C111 0.931 . S
H79 C113 0.930 . S
H80 C114 0.932 . S
H81 C116 0.931 . S
H82 C117 0.929 . S
H83 C119 0.929 . S
H84 C120 0.931 . S
H85 C122 0.929 1_545 S
N86 C106 1.433 . S
N86 C112 1.435 . S
N86 C118 1.423 . S
H87 C123 0.915 1_545 S
C88 N63 1.433 . S
C88 C89 1.363 . S
C88 C93 1.370 1_565 S
C89 H62 0.929 . S
C89 C88 1.363 . S
C89 C90 1.385 . S
C90 H64 0.930 . S
C90 C89 1.385 . S
C90 C91 1.357 . S
C91 C90 1.357 . S
C91 C92 1.406 1_565 S
C92 H66 0.929 . S
C92 C91 1.406 1_545 S
C92 C93 1.391 . S
C93 H65 0.931 . S
C93 C88 1.370 1_545 S
C93 C92 1.391 . S
C94 N63 1.435 . S
C94 C95 1.358 1_565 S
C94 C99 1.371 . S
C95 H67 0.930 . S
C95 C94 1.358 1_545 S
C95 C96 1.405 . S
C96 H68 0.932 . S
C96 C95 1.405 . S
C96 C97 1.380 1_545 S
C97 C96 1.380 1_565 S
C97 C98 1.397 . S
C98 H70 0.931 . S
C98 C97 1.397 . S
C98 C99 1.382 . S
C99 H69 0.929 . S
C99 C94 1.371 . S
C99 C98 1.382 . S
C100 N63 1.423 . S
C100 C101 1.362 . S
C100 C105 1.403 . S
C101 H71 0.929 . S
C101 C100 1.362 . S
C101 C102 1.376 . S
C102 H73 0.931 . S
C102 C101 1.376 . S
C102 C103 1.396 . S
C103 C102 1.396 . S
C103 C104 1.348 . S
C103 C121 1.472 . S
C104 H74 0.929 1_565 S
C104 C103 1.348 . S
C104 C105 1.446 . S
C105 H72 0.915 1_565 S
C105 C100 1.403 . S
C105 C104 1.446 . S
C106 N86 1.433 . S
C106 C107 1.363 . S
C106 C111 1.370 1_565 S
C107 H75 0.929 . S
C107 C106 1.363 . S
C107 C108 1.385 . S
C108 H76 0.930 . S
C108 C107 1.385 . S
C108 C109 1.357 . S
C109 C108 1.357 . S
C109 C110 1.406 1_565 S
C110 H77 0.929 . S
C110 C109 1.406 1_545 S
C110 C111 1.391 . S
C111 H78 0.931 . S
C111 C106 1.370 1_545 S
C111 C110 1.391 . S
C112 N86 1.435 . S
C112 C113 1.358 1_565 S
C112 C117 1.371 . S
C113 H79 0.930 . S
C113 C112 1.358 1_545 S
C113 C114 1.405 . S
C114 H80 0.932 . S
C114 C113 1.405 . S
C114 C115 1.380 1_545 S
C115 C114 1.380 1_565 S
C115 C116 1.397 . S
C116 H81 0.931 . S
C116 C115 1.397 . S
C116 C117 1.382 . S
C117 H82 0.929 . S
C117 C112 1.371 . S
C117 C116 1.382 . S
C118 N86 1.423 . S
C118 C119 1.362 . S
C118 C123 1.403 . S
C119 H83 0.929 . S
C119 C118 1.362 . S
C119 C120 1.376 . S
C120 H84 0.931 . S
C120 C119 1.376 . S
C120 C121 1.396 . S
C121 C103 1.472 . S
C121 C120 1.396 . S
C121 C122 1.348 . S
C122 H85 0.929 1_565 S
C122 C121 1.348 . S
C122 C123 1.446 . S
C123 H87 0.915 1_565 S
C123 C118 1.403 . S
C123 C122 1.446 . S
H124 C151 0.929 . S
N125 C150 1.433 . S
N125 C156 1.435 . S
N125 C162 1.423 . S
H126 C152 0.930 . S
H127 C155 0.924 1_556 S
H128 C154 0.929 . S
H129 C157 0.930 . S
H130 C158 0.932 . S
H131 C161 0.929 . S
H132 C160 0.931 . S
H133 C163 0.929 . S
H134 C167 0.932 1_556 S
H135 C164 0.931 . S
H136 C166 0.929 . S
H137 C169 0.929 . S
H138 C170 0.930 . S
H139 C172 0.929 . S
H140 C173 0.924 1_556 S
H141 C175 0.930 . S
H142 C176 0.932 . S
H143 C178 0.931 . S
H144 C179 0.929 . S
H145 C181 0.929 . S
H146 C182 0.931 . S
H147 C184 0.929 . S
N148 C168 1.433 . S
N148 C174 1.435 . S
N148 C180 1.423 . S
H149 C185 0.932 1_556 S
C150 N125 1.433 . S
C150 C151 1.363 . S
C150 C155 1.379 . S
C151 H124 0.929 . S
C151 C150 1.363 . S
C151 C152 1.385 . S
C152 H126 0.930 . S
C152 C151 1.385 . S
C152 C153 1.357 . S
C153 C152 1.357 . S
C153 C154 1.406 1_554 S
C154 H128 0.929 . S
C154 C153 1.406 1_556 S
C154 C155 1.389 1_556 S
C155 H127 0.924 1_554 S
C155 C150 1.379 . S
C155 C154 1.389 1_554 S
C156 N125 1.435 . S
C156 C157 1.358 1_554 S
C156 C161 1.371 . S
C157 H129 0.930 . S
C157 C156 1.358 1_556 S
C157 C158 1.405 . S
C158 H130 0.932 . S
C158 C157 1.405 . S
C158 C159 1.383 1_556 S
C159 C158 1.383 1_554 S
C159 C160 1.393 . S
C160 H132 0.931 . S
C160 C159 1.393 . S
C160 C161 1.382 . S
C161 H131 0.929 . S
C161 C156 1.371 . S
C161 C160 1.382 . S
C162 N125 1.423 . S
C162 C163 1.362 . S
C162 C167 1.388 . S
C163 H133 0.929 . S
C163 C162 1.362 . S
C163 C164 1.376 . S
C164 H135 0.931 . S
C164 C163 1.376 . S
C164 C165 1.396 . S
C165 C164 1.396 . S
C165 C166 1.348 . S
C165 C183 1.472 . S
C166 H136 0.929 . S
C166 C165 1.348 . S
C166 C167 1.443 . S
C167 H134 0.932 1_554 S
C167 C162 1.388 . S
C167 C166 1.443 . S
C168 N148 1.433 . S
C168 C169 1.363 . S
C168 C173 1.379 . S
C169 H137 0.929 . S
C169 C168 1.363 . S
C169 C170 1.385 . S
C170 H138 0.930 . S
C170 C169 1.385 . S
C170 C171 1.357 . S
C171 C170 1.357 . S
C171 C172 1.406 1_554 S
C172 H139 0.929 . S
C172 C171 1.406 1_556 S
C172 C173 1.389 1_556 S
C173 H140 0.924 1_554 S
C173 C168 1.379 . S
C173 C172 1.389 1_554 S
C174 N148 1.435 . S
C174 C175 1.358 1_554 S
C174 C179 1.371 . S
C175 H141 0.930 . S
C175 C174 1.358 1_556 S
C175 C176 1.405 . S
C176 H142 0.932 . S
C176 C175 1.405 . S
C176 C177 1.383 1_556 S
C177 C176 1.383 1_554 S
C177 C178 1.393 . S
C178 H143 0.931 . S
C178 C177 1.393 . S
C178 C179 1.382 . S
C179 H144 0.929 . S
C179 C174 1.371 . S
C179 C178 1.382 . S
C180 N148 1.423 . S
C180 C181 1.362 . S
C180 C185 1.388 . S
C181 H145 0.929 . S
C181 C180 1.362 . S
C181 C182 1.376 . S
C182 H146 0.931 . S
C182 C181 1.376 . S
C182 C183 1.396 . S
C183 C165 1.472 . S
C183 C182 1.396 . S
C183 C184 1.348 . S
C184 H147 0.929 . S
C184 C183 1.348 . S
C184 C185 1.443 . S
C185 H149 0.932 1_554 S
C185 C180 1.388 . S
C185 C184 1.443 . S
Zn186 O188 1.933 1_556 S
Zn186 O206 1.985 . S
Zn186 O217 1.955 . S
Zn187 O188 1.911 . S
Zn187 O207 1.970 . S
Zn187 O223 1.945 . S
Zn187 O230 1.981 . S
O188 Zn186 1.933 1_554 S
O188 Zn187 1.911 . S
O188 H189 0.841 . S
H189 O188 0.841 . S
C190 O191 1.246 . S
C190 O219 1.276 1_455 S
O191 C190 1.246 . S
Zn192 O194 1.911 . S
Zn192 O209 1.970 . S
Zn192 O226 1.945 . S
Zn192 O233 1.981 1_655 S
Zn193 O194 1.933 1_556 S
Zn193 O208 1.985 . S
Zn193 O215 1.955 . S
O194 Zn192 1.911 . S
O194 Zn193 1.933 1_554 S
O194 H195 0.841 . S
H195 O194 0.841 . S
Zn196 O197 1.933 1_556 S
Zn196 O210 1.985 . S
Zn196 O219 1.955 . S
O197 Zn196 1.933 1_554 S
O197 Zn198 1.911 . S
O197 H199 0.841 1_655 S
Zn198 O197 1.911 . S
Zn198 O211 1.970 . S
Zn198 O227 1.981 . S
Zn198 O229 1.945 . S
H199 O197 0.841 1_455 S
Zn200 O201 1.933 1_556 S
Zn200 O213 1.985 . S
Zn200 O221 1.955 . S
O201 Zn200 1.933 1_554 S
O201 H202 0.841 . S
O201 Zn203 1.911 . S
H202 O201 0.841 . S
Zn203 O201 1.911 . S
Zn203 O214 1.970 . S
Zn203 O224 1.981 . S
Zn203 O232 1.945 . S
C204 O205 1.246 . S
C204 O221 1.276 . S
O205 C204 1.246 . S
O206 Zn186 1.985 . S
O206 C216 1.245 1_556 S
O207 Zn187 1.970 . S
O207 C216 1.263 . S
O208 Zn193 1.985 . S
O208 C220 1.245 1_556 S
O209 Zn192 1.970 . S
O209 C220 1.263 . S
O210 Zn196 1.985 . S
O210 C225 1.245 1_556 S
O211 Zn198 1.970 . S
O211 C225 1.263 . S
C212 O223 1.276 . S
C212 O224 1.237 1_545 S
O213 Zn200 1.985 . S
O213 C231 1.245 1_556 S
O214 Zn203 1.970 . S
O214 C231 1.263 . S
O215 Zn193 1.955 . S
O215 C234 1.276 1_565 S
C216 O206 1.245 1_554 S
C216 O207 1.263 . S
O217 Zn186 1.955 . S
O217 C236 1.276 1_545 S
C218 O226 1.248 1_545 S
C218 O227 1.253 . S
O219 C190 1.276 1_655 S
O219 Zn196 1.955 . S
C220 O208 1.245 1_554 S
C220 O209 1.263 . S
O221 Zn200 1.955 . S
O221 C204 1.276 . S
C222 O229 1.262 1_455 S
C222 O230 1.245 . S
O223 Zn187 1.945 . S
O223 C212 1.276 . S
O224 Zn203 1.981 . S
O224 C212 1.237 1_565 S
C225 O210 1.245 1_554 S
C225 O211 1.263 . S
O226 Zn192 1.945 . S
O226 C218 1.248 1_565 S
O227 Zn198 1.981 . S
O227 C218 1.253 . S
C228 O232 1.262 . S
C228 O233 1.245 . S
O229 Zn198 1.945 . S
O229 C222 1.262 1_655 S
O230 Zn187 1.981 . S
O230 C222 1.245 . S
C231 O213 1.245 1_554 S
C231 O214 1.263 . S
O232 Zn203 1.945 . S
O232 C228 1.262 . S
O233 Zn192 1.981 1_455 S
O233 C228 1.245 . S
C234 O215 1.276 1_545 S
C234 O235 1.246 . S
O235 C234 1.246 . S
C236 O217 1.276 1_565 S
C236 O237 1.246 . S
O237 C236 1.246 . S
H238 C246 0.929 . S
H239 C248 0.930 . S
H240 C250 0.930 1_655 S
H241 C253 0.929 1_655 S
H242 C256 0.930 . S
H243 C258 0.960 . S
H244 C258 0.960 . S
H245 C258 0.960 . S
C246 H238 0.929 . S
C246 C247 1.377 . S
C246 C248 1.384 . S
C247 C246 1.377 . S
C247 C253 1.390 . S
C248 H239 0.930 . S
C248 C246 1.384 . S
C248 C249 1.372 . S
C249 C248 1.372 . S
C249 C250 1.400 . S
C249 C254 1.490 . S
C250 H240 0.930 1_455 S
C250 C249 1.400 . S
C250 C253 1.386 . S
H251 C267 0.930 1_655 S
H252 C268 0.931 1_655 S
C253 H241 0.929 1_455 S
C253 C247 1.390 . S
C253 C250 1.386 . S
C254 C249 1.490 . S
C254 C256 1.395 . S
C254 C257 1.403 . S
H255 C261 0.930 . S
C256 H242 0.930 . S
C256 C254 1.395 . S
C256 C259 1.403 . S
C257 C254 1.403 . S
C257 C258 1.524 . S
C257 C261 1.400 . S
C258 H243 0.960 . S
C258 H244 0.960 . S
C258 H245 0.960 . S
C258 C257 1.524 . S
C259 C256 1.403 . S
C259 C260 1.392 . S
C259 C263 1.495 . S
C260 C259 1.392 . S
C260 C261 1.385 . S
C260 C262 1.478 . S
C261 H255 0.930 . S
C261 C257 1.400 . S
C261 C260 1.385 . S
C262 C260 1.478 . S
C262 C264 1.381 . S
C262 C268 1.383 . S
C263 C259 1.495 . S
C263 H269 0.959 . S
C263 H270 0.961 1_455 S
C263 H271 0.960 . S
C264 C262 1.381 . S
C264 C265 1.394 . S
C264 H272 0.930 . S
C265 C264 1.394 . S
C265 C266 1.383 . S
C265 H273 0.929 . S
C266 C265 1.383 . S
C266 C267 1.377 . S
C267 H251 0.930 1_455 S
C267 C266 1.377 . S
C267 C268 1.379 . S
C268 H252 0.931 1_455 S
C268 C262 1.383 . S
C268 C267 1.379 . S
H269 C263 0.959 . S
H270 C263 0.961 1_655 S
H271 C263 0.960 . S
H272 C264 0.930 . S
H273 C265 0.929 . S
H274 C282 0.929 . S
H275 C284 0.930 . S
H276 C286 0.930 . S
H277 C289 0.929 . S
H278 C292 0.930 . S
H279 C294 0.960 . S
H280 C294 0.960 . S
H281 C294 0.960 . S
C282 H274 0.929 . S
C282 C283 1.377 . S
C282 C284 1.384 . S
C283 C282 1.377 . S
C283 C289 1.390 1_545 S
C284 H275 0.930 . S
C284 C282 1.384 . S
C284 C285 1.372 . S
C285 C284 1.372 . S
C285 C286 1.400 1_545 S
C285 C290 1.490 . S
C286 H276 0.930 . S
C286 C285 1.400 1_565 S
C286 C289 1.386 . S
H287 C303 0.930 . S
H288 C304 0.931 . S
C289 H277 0.929 . S
C289 C283 1.390 1_565 S
C289 C286 1.386 . S
C290 C285 1.490 . S
C290 C292 1.395 . S
C290 C293 1.403 1_545 S
H291 C297 0.930 . S
C292 H278 0.930 . S
C292 C290 1.395 . S
C292 C295 1.403 . S
C293 C290 1.403 1_565 S
C293 C294 1.524 . S
C293 C297 1.400 . S
C294 H279 0.960 . S
C294 H280 0.960 . S
C294 H281 0.960 . S
C294 C293 1.524 . S
C295 C292 1.403 . S
C295 C296 1.392 . S
C295 C299 1.495 . S
C296 C295 1.392 . S
C296 C297 1.385 1_545 S
C296 C298 1.478 . S
C297 H291 0.930 . S
C297 C293 1.400 . S
C297 C296 1.385 1_565 S
C298 C296 1.478 . S
C298 C300 1.381 . S
C298 C304 1.383 1_545 S
C299 C295 1.495 . S
C299 H305 0.959 . S
C299 H306 0.961 . S
C299 H307 0.960 . S
C300 C298 1.381 . S
C300 C301 1.394 . S
C300 H308 0.930 . S
C301 C300 1.394 . S
C301 C302 1.383 . S
C301 H309 0.929 . S
C302 C301 1.383 . S
C302 C303 1.377 1_545 S
C303 H287 0.930 . S
C303 C302 1.377 1_565 S
C303 C304 1.379 . S
C304 H288 0.931 . S
C304 C298 1.383 1_565 S
C304 C303 1.379 . S
H305 C299 0.959 . S
H306 C299 0.961 . S
H307 C299 0.960 . S
H308 C300 0.930 . S
H309 C301 0.929 . S
H310 C318 0.929 . S
H311 C320 0.930 . S
H312 C322 0.930 . S
H313 C325 0.929 . S
H314 C328 0.930 . S
H315 C330 0.960 . S
H316 C330 0.960 . S
H317 C330 0.960 . S
C318 H310 0.929 . S
C318 C319 1.377 . S
C318 C320 1.384 . S
C319 C318 1.377 . S
C319 C325 1.390 . S
C320 H311 0.930 . S
C320 C318 1.384 . S
C320 C321 1.372 . S
C321 C320 1.372 . S
C321 C322 1.400 . S
C321 C326 1.490 . S
C322 H312 0.930 . S
C322 C321 1.400 . S
C322 C325 1.386 . S
H323 C339 0.930 . S
H324 C340 0.931 . S
C325 H313 0.929 . S
C325 C319 1.390 . S
C325 C322 1.386 . S
C326 C321 1.490 . S
C326 C328 1.395 1_455 S
C326 C329 1.403 . S
H327 C333 0.930 . S
C328 H314 0.930 . S
C328 C326 1.395 1_655 S
C328 C331 1.403 . S
C329 C326 1.403 . S
C329 C330 1.524 . S
C329 C333 1.400 . S
C330 H315 0.960 . S
C330 H316 0.960 . S
C330 H317 0.960 . S
C330 C329 1.524 . S
C331 C328 1.403 . S
C331 C332 1.392 1_655 S
C331 C335 1.495 . S
C332 C331 1.392 1_455 S
C332 C333 1.385 . S
C332 C334 1.478 . S
C333 H327 0.930 . S
C333 C329 1.400 . S
C333 C332 1.385 . S
C334 C332 1.478 . S
C334 C336 1.381 . S
C334 C340 1.383 . S
C335 C331 1.495 . S
C335 H341 0.959 . S
C335 H342 0.961 . S
C335 H343 0.960 . S
C336 C334 1.381 . S
C336 C337 1.394 . S
C336 H344 0.930 . S
C337 C336 1.394 . S
C337 C338 1.383 . S
C337 H345 0.929 . S
C338 C337 1.383 . S
C338 C339 1.377 . S
C339 H323 0.930 . S
C339 C338 1.377 . S
C339 C340 1.379 . S
C340 H324 0.931 . S
C340 C334 1.383 . S
C340 C339 1.379 . S
H341 C335 0.959 . S
H342 C335 0.961 . S
H343 C335 0.960 . S
H344 C336 0.930 . S
H345 C337 0.929 . S
H346 C354 0.929 . S
H347 C356 0.930 . S
H348 C358 0.930 . S
H349 C361 0.929 . S
H350 C364 0.930 . S
H351 C366 0.960 . S
H352 C366 0.960 . S
H353 C366 0.960 . S
C354 H346 0.929 . S
C354 C355 1.358 1_565 S
C354 C356 1.384 . S
C355 C354 1.358 1_545 S
C355 C361 1.408 . S
C356 H347 0.930 . S
C356 C354 1.384 . S
C356 C357 1.372 . S
C357 C356 1.372 . S
C357 C358 1.400 1_565 S
C357 C362 1.490 . S
C358 H348 0.930 . S
C358 C357 1.400 1_545 S
C358 C361 1.386 . S
H359 C375 0.930 . S
H360 C376 0.931 . S
C361 H349 0.929 . S
C361 C355 1.408 . S
C361 C358 1.386 . S
C362 C357 1.490 . S
C362 C364 1.395 . S
C362 C365 1.403 1_565 S
H363 C369 0.930 . S
C364 H350 0.930 . S
C364 C362 1.395 . S
C364 C367 1.403 . S
C365 C362 1.403 1_545 S
C365 C366 1.524 . S
C365 C369 1.400 . S
C366 H351 0.960 . S
C366 H352 0.960 . S
C366 H353 0.960 . S
C366 C365 1.524 . S
C367 C364 1.403 . S
C367 C368 1.392 . S
C367 C371 1.495 . S
C368 C367 1.392 . S
C368 C369 1.385 1_565 S
C368 C370 1.478 . S
C369 H363 0.930 . S
C369 C365 1.400 . S
C369 C368 1.385 1_545 S
C370 C368 1.478 . S
C370 C372 1.381 . S
C370 C376 1.383 1_565 S
C371 C367 1.495 . S
C371 H377 0.959 . S
C371 H378 0.961 . S
C371 H379 0.960 . S
C372 C370 1.381 . S
C372 C373 1.394 . S
C372 H380 0.930 . S
C373 C372 1.394 . S
C373 C374 1.383 . S
C373 H381 0.929 . S
C374 C373 1.383 . S
C374 C375 1.377 1_565 S
C375 H359 0.930 . S
C375 C374 1.377 1_545 S
C375 C376 1.379 . S
C376 H360 0.931 . S
C376 C370 1.383 1_545 S
C376 C375 1.379 . S
H377 C371 0.959 . S
H378 C371 0.961 . S
H379 C371 0.960 . S
H380 C372 0.930 . S
H381 C373 0.929 . S
H382 C390 0.929 . S
H383 C392 0.930 . S
H384 C394 0.930 . S
H385 C397 0.929 . S
H386 C400 0.930 . S
H387 C402 0.960 . S
H388 C402 0.960 . S
H389 C402 0.960 . S
C390 H382 0.929 . S
C390 C391 1.377 . S
C390 C392 1.384 . S
C391 C390 1.377 . S
C391 C397 1.390 . S
C392 H383 0.930 . S
C392 C390 1.384 . S
C392 C393 1.372 . S
C393 C392 1.372 . S
C393 C394 1.400 . S
C393 C398 1.490 . S
C394 H384 0.930 . S
C394 C393 1.400 . S
C394 C397 1.386 . S
H395 C411 0.930 . S
H396 C412 0.931 . S
C397 H385 0.929 . S
C397 C391 1.390 . S
C397 C394 1.386 . S
C398 C393 1.490 . S
C398 C400 1.395 . S
C398 C401 1.403 1_455 S
H399 C405 0.930 . S
C400 H386 0.930 . S
C400 C398 1.395 . S
C400 C403 1.403 . S
C401 C398 1.403 1_655 S
C401 C402 1.524 . S
C401 C405 1.400 . S
C402 H387 0.960 . S
C402 H388 0.960 . S
C402 H389 0.960 . S
C402 C401 1.524 . S
C403 C400 1.403 . S
C403 C404 1.392 . S
C403 C407 1.495 . S
C404 C403 1.392 . S
C404 C405 1.385 1_455 S
C404 C406 1.478 . S
C405 H399 0.930 . S
C405 C401 1.400 . S
C405 C404 1.385 1_655 S
C406 C404 1.478 . S
C406 C408 1.381 . S
C406 C412 1.383 . S
C407 C403 1.495 . S
C407 H413 0.959 . S
C407 H414 0.961 . S
C407 H415 0.960 . S
C408 C406 1.381 . S
C408 C409 1.394 . S
C408 H416 0.930 . S
C409 C408 1.394 . S
C409 C410 1.383 . S
C409 H417 0.929 . S
C410 C409 1.383 . S
C410 C411 1.377 . S
C411 H395 0.930 . S
C411 C410 1.377 . S
C411 C412 1.379 . S
C412 H396 0.931 . S
C412 C406 1.383 . S
C412 C411 1.379 . S
H413 C407 0.959 . S
H414 C407 0.961 . S
H415 C407 0.960 . S
H416 C408 0.930 . S
H417 C409 0.929 . S
H418 C426 0.929 . S
H419 C428 0.930 . S
H420 C430 0.930 . S
H421 C433 0.929 . S
H422 C436 0.930 . S
H423 C438 0.960 . S
H424 C438 0.960 . S
H425 C438 0.960 1_545 S
C426 H418 0.929 . S
C426 C427 1.375 1_565 S
C426 C428 1.384 . S
C427 C426 1.375 1_545 S
C427 C433 1.392 . S
C428 H419 0.930 . S
C428 C426 1.384 . S
C428 C429 1.372 . S
C429 C428 1.372 . S
C429 C430 1.400 1_565 S
C429 C434 1.490 . S
C430 H420 0.930 . S
C430 C429 1.400 1_545 S
C430 C433 1.386 . S
H431 C447 0.930 . S
H432 C448 0.931 . S
C433 H421 0.929 . S
C433 C427 1.392 . S
C433 C430 1.386 . S
C434 C429 1.490 . S
C434 C436 1.395 . S
C434 C437 1.403 . S
H435 C441 0.930 . S
C436 H422 0.930 . S
C436 C434 1.395 . S
C436 C439 1.403 . S
C437 C434 1.403 . S
C437 C438 1.524 . S
C437 C441 1.400 . S
C438 H423 0.960 . S
C438 H424 0.960 . S
C438 H425 0.960 1_565 S
C438 C437 1.524 . S
C439 C436 1.403 . S
C439 C440 1.392 . S
C439 C443 1.495 . S
C440 C439 1.392 . S
C440 C441 1.385 . S
C440 C442 1.478 . S
C441 H435 0.930 . S
C441 C437 1.400 . S
C441 C440 1.385 . S
C442 C440 1.478 . S
C442 C444 1.381 . S
C442 C448 1.383 1_565 S
C443 C439 1.495 . S
C443 H449 0.959 . S
C443 H450 0.961 1_565 S
C443 H451 0.960 . S
C444 C442 1.381 . S
C444 C445 1.394 . S
C444 H452 0.930 . S
C445 C444 1.394 . S
C445 C446 1.383 . S
C445 H453 0.929 . S
C446 C445 1.383 . S
C446 C447 1.377 1_565 S
C447 H431 0.930 . S
C447 C446 1.377 1_545 S
C447 C448 1.379 . S
C448 H432 0.931 . S
C448 C442 1.383 1_545 S
C448 C447 1.379 . S
H449 C443 0.959 . S
H450 C443 0.961 1_545 S
H451 C443 0.960 . S
H452 C444 0.930 . S
H453 C445 0.929 . S
H454 C462 0.929 . S
H455 C464 0.930 . S
H456 C466 0.916 1_655 S
H457 C469 0.929 . S
H458 C472 0.930 . S
H459 C474 0.960 . S
H460 C474 0.960 . S
H461 C474 0.960 1_655 S
C462 H454 0.929 . S
C462 C463 1.377 . S
C462 C464 1.384 . S
C463 C462 1.377 . S
C463 C469 1.390 1_455 S
C464 H455 0.930 . S
C464 C462 1.384 . S
C464 C465 1.372 . S
C465 C464 1.372 . S
C465 C466 1.414 . S
C465 C470 1.490 . S
C466 H456 0.916 1_455 S
C466 C465 1.414 . S
C466 C469 1.385 1_455 S
H467 C483 0.930 1_655 S
H468 C484 0.931 1_655 S
C469 H457 0.929 . S
C469 C463 1.390 1_655 S
C469 C466 1.385 1_655 S
C470 C465 1.490 . S
C470 C472 1.395 . S
C470 C473 1.403 . S
H471 C477 0.930 . S
C472 H458 0.930 . S
C472 C470 1.395 . S
C472 C475 1.403 . S
C473 C470 1.403 . S
C473 C474 1.524 . S
C473 C477 1.400 . S
C474 H459 0.960 . S
C474 H460 0.960 . S
C474 H461 0.960 1_455 S
C474 C473 1.524 . S
C475 C472 1.403 . S
C475 C476 1.392 . S
C475 C479 1.495 . S
C476 C475 1.392 . S
C476 C477 1.385 . S
C476 C478 1.478 . S
C477 H471 0.930 . S
C477 C473 1.400 . S
C477 C476 1.385 . S
C478 C476 1.478 . S
C478 C480 1.381 . S
C478 C484 1.383 . S
C479 C475 1.495 . S
C479 H485 0.959 . S
C479 H486 0.961 . S
C479 H487 0.960 . S
C480 C478 1.381 . S
C480 C481 1.394 . S
C480 H488 0.930 . S
C481 C480 1.394 . S
C481 C482 1.383 . S
C481 H489 0.929 . S
C482 C481 1.383 . S
C482 C483 1.377 . S
C483 H467 0.930 1_455 S
C483 C482 1.377 . S
C483 C484 1.379 . S
C484 H468 0.931 1_455 S
C484 C478 1.383 . S
C484 C483 1.379 . S
H485 C479 0.959 . S
H486 C479 0.961 . S
H487 C479 0.960 . S
H488 C480 0.930 . S
H489 C481 0.929 . S
H490 C498 0.929 . S
H491 C500 0.930 . S
H492 C502 0.930 1_565 S
H493 C505 0.932 . S
H494 C508 0.930 . S
H495 C510 0.960 . S
H496 C510 0.960 . S
H497 C510 0.960 . S
C498 H490 0.929 . S
C498 C499 1.377 . S
C498 C500 1.384 . S
C499 C498 1.377 . S
C499 C505 1.388 1_545 S
C500 H491 0.930 . S
C500 C498 1.384 . S
C500 C501 1.372 . S
C501 C500 1.372 . S
C501 C502 1.400 . S
C501 C506 1.490 . S
C502 H492 0.930 1_545 S
C502 C501 1.400 . S
C502 C505 1.385 1_545 S
H503 C519 0.930 . S
H504 C520 0.931 . S
C505 H493 0.932 . S
C505 C499 1.388 1_565 S
C505 C502 1.385 1_565 S
C506 C501 1.490 . S
C506 C508 1.395 . S
C506 C509 1.403 1_545 S
H507 C513 0.930 . S
C508 H494 0.930 . S
C508 C506 1.395 . S
C508 C511 1.403 . S
C509 C506 1.403 1_565 S
C509 C510 1.524 . S
C509 C513 1.400 . S
C510 H495 0.960 . S
C510 H496 0.960 . S
C510 H497 0.960 . S
C510 C509 1.524 . S
C511 C508 1.403 . S
C511 C512 1.392 . S
C511 C515 1.495 . S
C512 C511 1.392 . S
C512 C513 1.385 1_545 S
C512 C514 1.478 . S
C513 H507 0.930 . S
C513 C509 1.400 . S
C513 C512 1.385 1_565 S
C514 C512 1.478 . S
C514 C516 1.381 . S
C514 C520 1.383 . S
C515 C511 1.495 . S
C515 H521 0.959 . S
C515 H522 0.961 . S
C515 H523 0.960 . S
C516 C514 1.381 . S
C516 C517 1.394 . S
C516 H524 0.930 . S
C517 C516 1.394 . S
C517 C518 1.383 . S
C517 H525 0.929 . S
C518 C517 1.383 . S
C518 C519 1.377 . S
C519 H503 0.930 . S
C519 C518 1.377 . S
C519 C520 1.379 . S
C520 H504 0.931 . S
C520 C514 1.383 . S
C520 C519 1.379 . S
H521 C515 0.959 . S
H522 C515 0.961 . S
H523 C515 0.960 . S
H524 C516 0.930 . S
H525 C517 0.929 . S
H526 C534 0.929 . S
H527 C536 0.930 . S
H528 C538 0.930 . S
H529 C541 0.929 . S
H530 C544 0.930 . S
H531 C546 0.960 . S
H532 C546 0.960 . S
H533 C546 0.960 . S
C534 H526 0.929 . S
C534 C535 1.377 . S
C534 C536 1.384 . S
C535 C534 1.377 . S
C535 C541 1.390 1_554 S
C536 H527 0.930 . S
C536 C534 1.384 . S
C536 C537 1.372 . S
C537 C536 1.372 . S
C537 C538 1.400 1_554 S
C537 C542 1.490 . S
C538 H528 0.930 . S
C538 C537 1.400 1_556 S
C538 C541 1.386 . S
H539 C555 0.930 . S
H540 C556 0.931 . S
C541 H529 0.929 . S
C541 C535 1.390 1_556 S
C541 C538 1.386 . S
C542 C537 1.490 . S
C542 C544 1.395 1_554 S
C542 C545 1.403 . S
H543 C549 0.930 . S
C544 H530 0.930 . S
C544 C542 1.395 1_556 S
C544 C547 1.403 . S
C545 C542 1.403 . S
C545 C546 1.524 . S
C545 C549 1.400 . S
C546 H531 0.960 . S
C546 H532 0.960 . S
C546 H533 0.960 . S
C546 C545 1.524 . S
C547 C544 1.403 . S
C547 C548 1.392 1_556 S
C547 C551 1.495 . S
C548 C547 1.392 1_554 S
C548 C549 1.385 . S
C548 C550 1.478 . S
C549 H543 0.930 . S
C549 C545 1.400 . S
C549 C548 1.385 . S
C550 C548 1.478 . S
C550 C552 1.381 . S
C550 C556 1.383 1_554 S
C551 C547 1.495 . S
C551 H557 0.959 . S
C551 H558 0.961 . S
C551 H559 0.960 . S
C552 C550 1.381 . S
C552 C553 1.394 . S
C552 H560 0.930 . S
C553 C552 1.394 . S
C553 C554 1.383 . S
C553 H561 0.929 . S
C554 C553 1.383 . S
C554 C555 1.377 1_554 S
C555 H539 0.930 . S
C555 C554 1.377 1_556 S
C555 C556 1.379 . S
C556 H540 0.931 . S
C556 C550 1.383 1_556 S
C556 C555 1.379 . S
H557 C551 0.959 . S
H558 C551 0.961 . S
H559 C551 0.960 . S
H560 C552 0.930 . S
H561 C553 0.929 . S
H562 C570 0.929 . S
H563 C572 0.930 . S
H564 C574 0.930 . S
H565 C577 0.929 . S
H566 C580 0.930 . S
H567 C582 0.960 . S
H568 C582 0.960 . S
H569 C582 0.960 . S
C570 H562 0.929 . S
C570 C571 1.377 1_556 S
C570 C572 1.384 . S
C571 C570 1.377 1_554 S
C571 C577 1.390 . S
C572 H563 0.930 . S
C572 C570 1.384 . S
C572 C573 1.372 1_556 S
C573 C572 1.372 1_554 S
C573 C574 1.400 . S
C573 C578 1.490 . S
C574 H564 0.930 . S
C574 C573 1.400 . S
C574 C577 1.386 . S
H575 C591 0.930 . S
H576 C592 0.931 . S
C577 H565 0.929 . S
C577 C571 1.390 . S
C577 C574 1.386 . S
C578 C573 1.490 . S
C578 C580 1.395 . S
C578 C581 1.403 1_554 S
H579 C585 0.930 . S
C580 H566 0.930 . S
C580 C578 1.395 . S
C580 C583 1.403 . S
C581 C578 1.403 1_556 S
C581 C582 1.524 . S
C581 C585 1.400 . S
C582 H567 0.960 . S
C582 H568 0.960 . S
C582 H569 0.960 . S
C582 C581 1.524 . S
C583 C580 1.403 . S
C583 C584 1.392 . S
C583 C587 1.495 . S
C584 C583 1.392 . S
C584 C585 1.385 1_554 S
C584 C586 1.478 . S
C585 H579 0.930 . S
C585 C581 1.400 . S
C585 C584 1.385 1_556 S
C586 C584 1.478 . S
C586 C588 1.381 1_554 S
C586 C592 1.383 . S
C587 C583 1.495 . S
C587 H593 0.959 . S
C587 H594 0.961 . S
C587 H595 0.960 . S
C588 C586 1.381 1_556 S
C588 C589 1.394 . S
C588 H596 0.930 . S
C589 C588 1.394 . S
C589 C590 1.383 1_556 S
C589 H597 0.929 . S
C590 C589 1.383 1_554 S
C590 C591 1.377 . S
C591 H575 0.930 . S
C591 C590 1.377 . S
C591 C592 1.379 . S
C592 H576 0.931 . S
C592 C586 1.383 . S
C592 C591 1.379 . S
H593 C587 0.959 . S
H594 C587 0.961 . S
H595 C587 0.960 . S
H596 C588 0.930 . S
H597 C589 0.929 . S
H598 C606 0.929 . S
H599 C608 0.930 . S
H600 C610 0.930 . S
H601 C613 0.929 . S
H602 C616 0.930 . S
H603 C618 0.960 . S
H604 C618 0.960 . S
H605 C618 0.960 1_556 S
C606 H598 0.929 . S
C606 C607 1.377 . S
C606 C608 1.384 . S
C607 C606 1.377 . S
C607 C613 1.390 1_554 S
C608 H599 0.930 . S
C608 C606 1.384 . S
C608 C609 1.372 . S
C609 C608 1.372 . S
C609 C610 1.400 1_554 S
C609 C614 1.490 . S
C610 H600 0.930 . S
C610 C609 1.400 1_556 S
C610 C613 1.386 . S
H611 C627 0.930 . S
H612 C628 0.931 . S
C613 H601 0.929 . S
C613 C607 1.390 1_556 S
C613 C610 1.386 . S
C614 C609 1.490 . S
C614 C616 1.395 . S
C614 C617 1.403 . S
H615 C621 0.930 . S
C616 H602 0.930 . S
C616 C614 1.395 . S
C616 C619 1.403 . S
C617 C614 1.403 . S
C617 C618 1.524 . S
C617 C621 1.400 . S
C618 H603 0.960 . S
C618 H604 0.960 . S
C618 H605 0.960 1_554 S
C618 C617 1.524 . S
C619 C616 1.403 . S
C619 C620 1.392 . S
C619 C623 1.495 . S
C620 C619 1.392 . S
C620 C621 1.385 . S
C620 C622 1.478 . S
C621 H615 0.930 . S
C621 C617 1.400 . S
C621 C620 1.385 . S
C622 C620 1.478 . S
C622 C624 1.381 . S
C622 C628 1.383 1_554 S
C623 C619 1.495 . S
C623 H629 0.959 . S
C623 H630 0.961 1_554 S
C623 H631 0.960 . S
C624 C622 1.381 . S
C624 C625 1.394 . S
C624 H632 0.930 . S
C625 C624 1.394 . S
C625 C626 1.383 . S
C625 H633 0.929 . S
C626 C625 1.383 . S
C626 C627 1.377 1_554 S
C627 H611 0.930 . S
C627 C626 1.377 1_556 S
C627 C628 1.379 . S
C628 H612 0.931 . S
C628 C622 1.383 1_556 S
C628 C627 1.379 . S
H629 C623 0.959 . S
H630 C623 0.961 1_556 S
H631 C623 0.960 . S
H632 C624 0.930 . S
H633 C625 0.929 . S
H634 C642 0.929 . S
H635 C644 0.930 . S
H636 C646 0.930 . S
H637 C649 0.929 . S
H638 C652 0.930 . S
H639 C654 0.960 . S
H640 C654 0.963 . S
H641 C654 0.960 . S
C642 H634 0.929 . S
C642 C643 1.377 . S
C642 C644 1.384 . S
C643 C642 1.377 . S
C643 C649 1.390 1_554 S
C644 H635 0.930 . S
C644 C642 1.384 . S
C644 C645 1.372 . S
C645 C644 1.372 . S
C645 C646 1.400 1_554 S
C645 C650 1.490 . S
C646 H636 0.930 . S
C646 C645 1.400 1_556 S
C646 C649 1.386 . S
H647 C663 0.930 . S
H648 C664 0.931 . S
C649 H637 0.929 . S
C649 C643 1.390 1_556 S
C649 C646 1.386 . S
C650 C645 1.490 . S
C650 C652 1.395 . S
C650 C653 1.403 1_554 S
H651 C657 0.930 . S
C652 H638 0.930 . S
C652 C650 1.395 . S
C652 C655 1.403 . S
C653 C650 1.403 1_556 S
C653 C654 1.524 . S
C653 C657 1.400 . S
C654 H639 0.960 . S
C654 H640 0.963 . S
C654 H641 0.960 . S
C654 C653 1.524 . S
C655 C652 1.403 . S
C655 C656 1.392 . S
C655 C659 1.495 . S
C656 C655 1.392 . S
C656 C657 1.385 1_554 S
C656 C658 1.478 . S
C657 H651 0.930 . S
C657 C653 1.400 . S
C657 C656 1.385 1_556 S
C658 C656 1.478 . S
C658 C660 1.381 . S
C658 C664 1.383 1_554 S
C659 C655 1.495 . S
C659 H665 0.959 . S
C659 H666 0.961 . S
C659 H667 0.960 . S
C660 C658 1.381 . S
C660 C661 1.394 . S
C660 H668 0.930 . S
C661 C660 1.394 . S
C661 C662 1.383 . S
C661 H669 0.929 . S
C662 C661 1.383 . S
C662 C663 1.377 1_554 S
C663 H647 0.930 . S
C663 C662 1.377 1_556 S
C663 C664 1.379 . S
C664 H648 0.931 . S
C664 C658 1.383 1_556 S
C664 C663 1.379 . S
H665 C659 0.959 . S
H666 C659 0.961 . S
H667 C659 0.960 . S
H668 C660 0.930 . S
H669 C661 0.929 . S
C266 C222 2.245 . S
C247 C53 2.320 . S
C302 C218 1.181 . S
C283 C97 1.214 1_545 S
C338 C228 2.255 . S
C319 C35 2.320 . S
C374 C212 1.381 1_565 S
C355 C91 1.376 1_545 S
C391 C29 2.585 . S
C410 C204 2.505 . S
C446 C236 1.453 . S
C427 C109 1.525 1_545 S
C463 C47 2.591 . S
C482 C190 2.516 . S
C499 C115 1.361 1_545 S
C518 C234 1.294 . S
C535 C153 1.053 . S
C554 C216 1.086 . S
C571 C171 1.090 . S
C590 C231 1.074 . S
C626 C225 0.876 . S
C607 C159 0.849 . S
C662 C220 0.923 . S
C643 C177 0.900 . S
