# Generated by pormake.
# Topology ssa, (4,4)-cn, num edge types: 1
# Building blocks:
#     Node 0, Type 0, BuildingBlock: NAWXER_clean_sbu_0, # of connection points: 4
#     Node 1, Type 0, BuildingBlock: NAWXER_clean_sbu_0, # of connection points: 4
#     Node 2, Type 0, BuildingBlock: NAWXER_clean_sbu_0, # of connection points: 4
#     Node 3, Type 0, BuildingBlock: NAWXER_clean_sbu_0, # of connection points: 4
#     Node 4, Type 0, BuildingBlock: NAWXER_clean_sbu_0, # of connection points: 4
#     Node 5, Type 0, BuildingBlock: NAWXER_clean_sbu_0, # of connection points: 4
#     Node 6, Type 1, BuildingBlock: AZAVOO_clean_linker_0, # of connection points: 4
#     Node 7, Type 1, BuildingBlock: AZAVOO_clean_linker_0, # of connection points: 4
#     Node 8, Type 1, BuildingBlock: AZAVOO_clean_linker_0, # of connection points: 4
#     Node 9, Type 1, BuildingBlock: AZAVOO_clean_linker_0, # of connection points: 4
#     Node 10, Type 1, BuildingBlock: AZAVOO_clean_linker_0, # of connection points: 4
#     Node 11, Type 1, BuildingBlock: AZAVOO_clean_linker_0, # of connection points: 4
#     Edge 12, Type (0, 1), None
#     Edge 13, Type (0, 1), None
#     Edge 14, Type (0, 1), None
#     Edge 15, Type (0, 1), None
#     Edge 16, Type (0, 1), None
#     Edge 17, Type (0, 1), None
#     Edge 18, Type (0, 1), None
#     Edge 19, Type (0, 1), None
#     Edge 20, Type (0, 1), None
#     Edge 21, Type (0, 1), None
#     Edge 22, Type (0, 1), None
#     Edge 23, Type (0, 1), None
#     Edge 24, Type (0, 1), None
#     Edge 25, Type (0, 1), None
#     Edge 26, Type (0, 1), None
#     Edge 27, Type (0, 1), None
#     Edge 28, Type (0, 1), None
#     Edge 29, Type (0, 1), None
#     Edge 30, Type (0, 1), None
#     Edge 31, Type (0, 1), None
#     Edge 32, Type (0, 1), None
#     Edge 33, Type (0, 1), None
#     Edge 34, Type (0, 1), None
#     Edge 35, Type (0, 1), None
# Relax obj value: 0.117
# Max RMSD: 0.243
# Mean RMSD: 0.137
data_MOF--net-ssa--node1-NAWXER_clean_sbu_0--node2-AZAVOO_clean_linker_0--edge1-none
_symmetry_space_group_name_H-M    P1
_symmetry_Int_Tables_number       1
_symmetry_cell_setting            triclinic
loop_
_symmetry_equiv_pos_as_xyz
'x, y, z'
_cell_length_a     25.85173
_cell_length_b     26.206133
_cell_length_c     24.436698
_cell_angle_alpha  89.141079
_cell_angle_beta   94.244033
_cell_angle_gamma 120.39297
loop_
_atom_site_label
_atom_site_type_symbol
_atom_site_fract_x
_atom_site_fract_y
_atom_site_fract_z
_atom_type_partial_charge
C0 C 0.16335 0.64547 0.07916 0.0
C1 C 0.06726 0.49174 0.93718 0.0
O2 O 0.11656 0.59853 0.0933 0.0
Zn3 Zn 0.04725 0.51687 0.05784 0.0
O4 O 0.17815 0.65131 0.02996 0.0
Zn5 Zn 0.11512 0.57348 0.00354 0.0
O6 O 0.03551 0.5802 0.99766 0.0
O7 O 0.9732 0.51912 0.05646 0.0
O8 O 0.11479 0.54135 0.93171 0.0
O9 O 0.04002 0.48054 0.98097 0.0
O10 O 0.05888 0.45994 0.10021 0.0
O11 O 0.13707 0.51835 0.05363 0.0
C12 C 0.98512 0.55742 0.01955 0.0
C13 C 0.11169 0.4762 0.08703 0.0
C14 C 0.6052 0.04528 0.6136 0.0
C15 C 0.67168 0.92505 0.52832 0.0
O16 O 0.58953 0.99163 0.62159 0.0
Zn17 Zn 0.63434 0.98262 0.56667 0.0
O18 O 0.63794 0.07227 0.57406 0.0
Zn19 Zn 0.67894 0.05117 0.5112 0.0
O20 O 0.63825 0.05311 0.44266 0.0
O21 O 0.58406 0.97366 0.49051 0.0
O22 O 0.68949 0.97441 0.50408 0.0
O23 O 0.6372 0.91095 0.56711 0.0
O24 O 0.72686 0.04845 0.5904 0.0
O25 O 0.76009 0.1131 0.52361 0.0
C26 C 0.59087 0.0037 0.44707 0.0
C27 C 0.76912 0.09493 0.56973 0.0
C28 C 0.53776 0.37743 0.03756 0.0
C29 C 0.62124 0.53908 0.17581 0.0
O30 O 0.5205 0.41482 0.02701 0.0
Zn31 Zn 0.53306 0.49442 0.06512 0.0
O32 O 0.5657 0.38066 0.08372 0.0
Zn33 Zn 0.574 0.45314 0.11298 0.0
O34 O 0.48787 0.43271 0.13926 0.0
O35 O 0.455 0.47929 0.08391 0.0
O36 O 0.62885 0.49472 0.17771 0.0
O37 O 0.58728 0.54247 0.13683 0.0
O38 O 0.57675 0.55086 0.00839 0.0
O39 O 0.62468 0.50961 0.05027 0.0
C40 C 0.44806 0.44687 0.12516 0.0
C41 C 0.62185 0.54332 0.01328 0.0
C42 C 0.14592 0.63403 0.54383 0.0
C43 C 0.05411 0.45735 0.65304 0.0
O44 O 0.16858 0.6242 0.58788 0.0
Zn45 Zn 0.10092 0.54814 0.60167 0.0
O46 O 0.09202 0.59643 0.5255 0.0
Zn47 Zn 0.02089 0.51084 0.5467 0.0
O48 O 0.95639 0.52364 0.56125 0.0
O49 O 0.03397 0.56751 0.62316 0.0
O50 O 0.01919 0.45691 0.61291 0.0
O51 O 0.10695 0.50152 0.66166 0.0
O52 O 0.10028 0.50002 0.53283 0.0
O53 O 0.01285 0.46201 0.48375 0.0
C54 C 0.98111 0.55528 0.60475 0.0
C55 C 0.06552 0.4696 0.4914 0.0
C56 C 0.69298 0.99667 0.15638 0.0
C57 C 0.61006 0.10787 0.0605 0.0
O58 O 0.70682 0.04913 0.16966 0.0
Zn59 Zn 0.65253 0.05565 0.11288 0.0
O60 O 0.65469 0.96947 0.1159 0.0
Zn61 Zn 0.60072 0.98104 0.05503 0.0
O62 O 0.63836 0.97859 0.98899 0.0
O63 O 0.69463 0.05888 0.04127 0.0
O64 O 0.59012 0.05561 0.04092 0.0
O65 O 0.64778 0.12698 0.10242 0.0
O66 O 0.5645 0.9921 0.13523 0.0
O67 O 0.52112 0.91919 0.07283 0.0
C68 C 0.68639 0.02842 -0.00217 0.0
C69 C 0.51942 0.94252 0.11751 0.0
C70 C 0.58148 0.57179 0.666 0.0
C71 C 0.44678 0.45303 0.50817 0.0
O72 O 0.52942 0.5649 0.65426 0.0
Zn73 Zn 0.51015 0.5101 0.59164 0.0
O74 O 0.60092 0.54592 0.6369 0.0
Zn75 Zn 0.57384 0.48673 0.56874 0.0
O76 O 0.63556 0.53572 0.52101 0.0
O77 O 0.57283 0.56754 0.53478 0.0
O78 O 0.49552 0.45137 0.51264 0.0
O79 O 0.43581 0.47886 0.54543 0.0
O80 O 0.50712 0.43802 0.63731 0.0
O81 O 0.57573 0.42214 0.60587 0.0
C82 C 0.61799 0.5726 0.51155 0.0
C83 C 0.53686 0.41101 0.64014 0.0
H84 H 0.29628 0.39376 0.67112 0.0
H85 H 0.91211 0.43857 0.18021 0.0
H86 H 0.37213 0.50314 0.35276 0.0
H87 H 0.4419 0.52766 0.43427 0.0
H88 H 0.37269 0.34212 0.4618 0.0
H89 H 0.30142 0.31732 0.38024 0.0
H90 H 0.29252 0.47363 0.44711 0.0
H91 H 0.30409 0.45781 0.54496 0.0
H92 H 0.18669 0.26937 0.51647 0.0
H93 H 0.17571 0.28592 0.41842 0.0
H94 H 0.22435 0.50301 0.39427 0.0
H95 H 0.17518 0.53384 0.45612 0.0
H96 H 0.01409 0.36182 0.43658 0.0
H97 H 0.06545 0.32977 0.37588 0.0
H98 H 0.19456 0.51634 0.26415 0.0
H99 H 0.1219 0.5436 0.22613 0.0
H100 H 0.97965 0.36113 0.23249 0.0
H101 H 0.05343 0.33381 0.26758 0.0
H102 H 0.27662 0.50723 0.19516 0.0
H103 H 0.22888 0.53762 0.12365 0.0
H104 H 0.07442 0.36137 0.11253 0.0
H105 H 0.12585 0.32873 0.18002 0.0
H106 H 0.35862 0.50979 0.24363 0.0
H107 H 0.43161 0.52728 0.17668 0.0
H108 H 0.36094 0.33938 0.16065 0.0
H109 H 0.28438 0.32165 0.2249 0.0
O110 O 0.2904 0.39905 0.63235 0.0
O111 O 0.22851 0.30268 0.61586 0.0
O112 O 0.01724 0.52137 0.18918 0.0
O113 O 0.9417 0.42904 0.19564 0.0
C114 C 0.27344 0.39659 0.33172 0.0
C115 C 0.22834 0.39003 0.36576 0.0
C116 C 0.18107 0.39803 0.34433 0.0
C117 C 0.17465 0.40642 0.28805 0.0
C118 C 0.21553 0.40646 0.25235 0.0
C119 C 0.26694 0.40439 0.27437 0.0
C120 C 0.33151 0.40839 0.36013 0.0
C121 C 0.37398 0.46762 0.37436 0.0
C122 C 0.41269 0.4816 0.42183 0.0
C123 C 0.4107 0.43662 0.45506 0.0
C124 C 0.37393 0.3774 0.43721 0.0
C125 C 0.33434 0.36329 0.38992 0.0
C126 C 0.23362 0.38084 0.42567 0.0
C127 C 0.26922 0.42899 0.46208 0.0
C128 C 0.27577 0.41981 0.51799 0.0
C129 C 0.24652 0.36229 0.53854 0.0
C130 C 0.20999 0.31423 0.50197 0.0
C131 C 0.20353 0.32352 0.44601 0.0
C132 C 0.14897 0.41381 0.38207 0.0
C133 C 0.17883 0.47155 0.40401 0.0
C134 C 0.15055 0.48916 0.43882 0.0
C135 C 0.09109 0.44998 0.45089 0.0
C136 C 0.05992 0.39265 0.42735 0.0
C137 C 0.08918 0.37431 0.39335 0.0
C138 C 0.12937 0.42296 0.26773 0.0
C139 C 0.14774 0.48223 0.25693 0.0
C140 C 0.1061 0.49773 0.23552 0.0
C141 C 0.04495 0.45444 0.22618 0.0
C142 C 0.02644 0.3954 0.23886 0.0
C143 C 0.06837 0.37972 0.25916 0.0
C144 C 0.20523 0.41547 0.19324 0.0
C145 C 0.2354 0.47342 0.17395 0.0
C146 C 0.20685 0.49136 0.13409 0.0
C147 C 0.14701 0.45226 0.11478 0.0
C148 C 0.12009 0.39243 0.12805 0.0
C149 C 0.1501 0.37365 0.16572 0.0
C150 C 0.31498 0.41439 0.23815 0.0
C151 C 0.35782 0.47222 0.22484 0.0
C152 C 0.39941 0.48216 0.18655 0.0
C153 C 0.40073 0.43456 0.16248 0.0
C154 C 0.35995 0.37669 0.17786 0.0
C155 C 0.31669 0.36662 0.2148 0.0
C156 C 0.25439 0.35263 0.59784 0.0
C157 C 0.00065 0.47054 0.20265 0.0
H158 H 0.96053 0.26913 0.1847 0.0
H159 H 0.63898 0.84524 0.68799 0.0
H160 H 0.90642 0.32535 0.86124 0.0
H161 H 0.95439 0.42777 0.89407 0.0
H162 H 0.12802 0.44092 0.90002 0.0
H163 H 0.07929 0.33732 0.86588 0.0
H164 H 0.89262 0.27157 0.95137 0.0
H165 H 0.91475 0.28226 0.05088 0.0
H166 H 0.00982 0.18672 0.04101 0.0
H167 H 0.98782 0.17679 0.94138 0.0
H168 H 0.80233 0.19032 0.89659 0.0
H169 H 0.72071 0.13406 0.95539 0.0
H170 H 0.75322 0.98818 0.95058 0.0
H171 H 0.83842 0.04671 0.89347 0.0
H172 H 0.75944 0.12978 0.7604 0.0
H173 H 0.67326 0.03715 0.72272 0.0
H174 H 0.77719 0.95036 0.74978 0.0
H175 H 0.86294 0.04331 0.78756 0.0
H176 H 0.84595 0.23648 0.70118 0.0
H177 H 0.79081 0.19619 0.61364 0.0
H178 H 0.85844 0.07598 0.61102 0.0
H179 H 0.92086 0.1224 0.69648 0.0
H180 H 0.90349 0.32109 0.75393 0.0
H181 H 0.94909 0.40939 0.69885 0.0
H182 H 0.10523 0.39173 0.688 0.0
H183 H 0.05752 0.30051 0.74159 0.0
O184 O 0.95377 0.26616 0.14511 0.0
O185 O 0.00592 0.22072 0.13725 0.0
O186 O 0.61676 0.92514 0.70211 0.0
O187 O 0.67246 0.88255 0.70227 0.0
C188 C 0.95784 0.26166 0.84297 0.0
C189 C 0.92495 0.21538 0.87871 0.0
C190 C 0.87748 0.1605 0.85709 0.0
C191 C 0.86922 0.14926 0.79994 0.0
C192 C 0.90556 0.19442 0.76424 0.0
C193 C 0.9483 0.25127 0.78575 0.0
C194 C 0.9893 0.32355 0.86365 0.0
C195 C 0.95491 0.35043 0.8692 0.0
C196 C 0.98238 0.4092 0.88628 0.0
C197 C 0.04477 0.44212 0.89834 0.0
C198 C 0.07996 0.4166 0.88939 0.0
C199 C 0.05218 0.35727 0.87173 0.0
C200 C 0.93932 0.22407 0.93898 0.0
C201 C 0.91895 0.25373 0.97055 0.0
C202 C 0.9313 0.25941 0.02754 0.0
C203 C 0.96405 0.23532 0.05394 0.0
C204 C 0.98456 0.20586 0.02202 0.0
C205 C 0.97211 0.20017 0.96511 0.0
C206 C 0.82739 0.12332 0.89186 0.0
C207 C 0.7926 0.14655 0.90862 0.0
C208 C 0.74553 0.11413 0.94153 0.0
C209 C 0.73052 0.05675 0.95669 0.0
C210 C 0.76351 0.03203 0.93835 0.0
C211 C 0.81223 0.06548 0.90629 0.0
C212 C 0.81713 0.09296 0.77701 0.0
C213 C 0.76343 0.09066 0.75811 0.0
C214 C 0.71434 0.03775 0.73657 0.0
C215 C 0.71832 0.98629 0.73338 0.0
C216 C 0.7726 0.98913 0.75173 0.0
C217 C 0.82156 0.04203 0.77347 0.0
C218 C 0.88951 0.18422 0.70455 0.0
C219 C 0.85436 0.20615 0.67949 0.0
C220 C 0.8218 0.18219 0.62965 0.0
C221 C 0.82137 0.13381 0.60591 0.0
C222 C 0.85964 0.11438 0.62843 0.0
C223 C 0.89494 0.14067 0.67709 0.0
C224 C 0.97584 0.3027 0.74932 0.0
C225 C 0.94669 0.33501 0.7383 0.0
C226 C 0.97318 0.38595 0.70781 0.0
C227 C 0.03038 0.40686 0.68945 0.0
C228 C 0.06107 0.37621 0.70218 0.0
C229 C 0.03362 0.32394 0.73181 0.0
C230 C 0.976 0.24022 0.11455 0.0
C231 C 0.66603 0.92967 0.71155 0.0
H232 H 0.77971 0.75988 0.97041 0.0
H233 H 0.85704 0.17579 0.43844 0.0
H234 H 0.61866 0.68682 0.27173 0.0
H235 H 0.56981 0.59497 0.21773 0.0
H236 H 0.7365 0.59356 0.22606 0.0
H237 H 0.78586 0.68689 0.28134 0.0
H238 H 0.67877 0.74702 0.17995 0.0
H239 H 0.70324 0.73989 0.0868 0.0
H240 H 0.89271 0.83936 0.13966 0.0
H241 H 0.8676 0.84579 0.23292 0.0
H242 H 0.66392 0.82131 0.22557 0.0
H243 H 0.63187 0.88033 0.17277 0.0
H244 H 0.80516 0.03684 0.21106 0.0
H245 H 0.83889 0.97559 0.26259 0.0
H246 H 0.67585 0.89882 0.34298 0.0
H247 H 0.69039 0.9954 0.36901 0.0
H248 H 0.87937 0.0597 0.4101 0.0
H249 H 0.86422 0.96308 0.38355 0.0
H250 H 0.62634 0.77876 0.40417 0.0
H251 H 0.59612 0.82586 0.46969 0.0
H252 H 0.78069 0.93302 0.53382 0.0
H253 H 0.81056 0.88225 0.47074 0.0
H254 H 0.60726 0.68423 0.36819 0.0
H255 H 0.56155 0.60385 0.43263 0.0
H256 H 0.73781 0.64878 0.50296 0.0
H257 H 0.78389 0.72844 0.4371 0.0
O258 O 0.77084 0.76166 0.00786 0.0
O259 O 0.86721 0.80589 0.03864 0.0
O260 O 0.75557 0.10563 0.39615 0.0
O261 O 0.84972 0.13688 0.42876 0.0
C262 C 0.73484 0.75382 0.30565 0.0
C263 C 0.7578 0.80241 0.27021 0.0
C264 C 0.7656 0.85712 0.28774 0.0
C265 C 0.76091 0.86642 0.34334 0.0
C266 C 0.74046 0.81878 0.37977 0.0
C267 C 0.72623 0.76222 0.36057 0.0
C268 C 0.70554 0.69311 0.28122 0.0
C269 C 0.64429 0.66573 0.26388 0.0
C270 C 0.61659 0.61352 0.23254 0.0
C271 C 0.64944 0.58728 0.21778 0.0
C272 C 0.71013 0.61267 0.23756 0.0
C273 C 0.73829 0.66584 0.26887 0.0
C274 C 0.77142 0.79624 0.21351 0.0
C275 C 0.7255 0.7666 0.17165 0.0
C276 C 0.73963 0.76292 0.11828 0.0
C277 C 0.79995 0.78902 0.10577 0.0
C278 C 0.84579 0.81862 0.14791 0.0
C279 C 0.83157 0.82236 0.2012 0.0
C280 C 0.75435 0.89352 0.24675 0.0
C281 C 0.69626 0.86773 0.22074 0.0
C282 C 0.67755 0.90191 0.19146 0.0
C283 C 0.7159 0.96325 0.18834 0.0
C284 C 0.77463 0.98966 0.21351 0.0
C285 C 0.79411 0.95469 0.24208 0.0
C286 C 0.76906 0.92417 0.36138 0.0
C287 C 0.72026 0.93381 0.35783 0.0
C288 C 0.72874 0.989 0.37255 0.0
C289 C 0.78618 0.03536 0.39133 0.0
C290 C 0.83464 0.02501 0.39574 0.0
C291 C 0.82617 0.96994 0.38064 0.0
C292 C 0.72067 0.8265 0.43293 0.0
C293 C 0.65967 0.80852 0.43533 0.0
C294 C 0.64247 0.83615 0.47227 0.0
C295 C 0.68627 0.88282 0.50622 0.0
C296 C 0.7463 0.89652 0.50814 0.0
C297 C 0.76325 0.86734 0.47245 0.0
C298 C 0.69891 0.71135 0.39728 0.0
C299 C 0.63617 0.6759 0.39656 0.0
C300 C 0.61014 0.6304 0.43361 0.0
C301 C 0.64648 0.61941 0.47166 0.0
C302 C 0.70923 0.65484 0.47241 0.0
C303 C 0.73538 0.70065 0.43537 0.0
C304 C 0.81492 0.78602 0.04887 0.0
C305 C 0.79594 0.09458 0.40557 0.0
H306 H 0.81232 0.59644 0.45105 0.0
H307 H 0.10328 0.50651 0.7847 0.0
H308 H 0.76379 0.70092 0.74471 0.0
H309 H 0.67473 0.68379 0.68705 0.0
H310 H 0.57155 0.51288 0.75799 0.0
H311 H 0.66093 0.5272 0.81118 0.0
H312 H 0.86014 0.69552 0.6734 0.0
H313 H 0.84704 0.67388 0.57472 0.0
H314 H 0.69751 0.49917 0.60081 0.0
H315 H 0.71086 0.52172 0.69916 0.0
H316 H 0.97049 0.68131 0.72808 0.0
H317 H 0.02306 0.65924 0.66084 0.0
H318 H 0.8644 0.48809 0.6263 0.0
H319 H 0.81392 0.50837 0.69639 0.0
H320 H 0.99542 0.67996 0.84705 0.0
H321 H 0.08139 0.66522 0.84336 0.0
H322 H 0.95982 0.48105 0.79788 0.0
H323 H 0.87433 0.49603 0.80341 0.0
H324 H 0.92976 0.68219 0.93349 0.0
H325 H 0.99389 0.66411 0.00034 0.0
H326 H 0.87408 0.47608 0.97749 0.0
H327 H 0.81344 0.49403 0.90757 0.0
H328 H 0.75864 0.67879 0.89525 0.0
H329 H 0.68221 0.65142 0.96266 0.0
H330 H 0.65802 0.47602 0.96795 0.0
H331 H 0.72921 0.50158 0.89908 0.0
O332 O 0.81192 0.60657 0.48889 0.0
O333 O 0.73574 0.51702 0.5047 0.0
O334 O 0.13079 0.60508 0.82167 0.0
O335 O 0.07012 0.51259 0.79052 0.0
C336 C 0.77611 0.61383 0.79583 0.0
C337 C 0.80898 0.61328 0.75202 0.0
C338 C 0.85924 0.60609 0.76276 0.0
C339 C 0.87792 0.60048 0.81686 0.0
C340 C 0.8452 0.59984 0.8609 0.0
C341 C 0.79335 0.60547 0.85048 0.0
C342 C 0.71954 0.61506 0.78185 0.0
C343 C 0.72121 0.66107 0.75014 0.0
C344 C 0.67 0.65179 0.71782 0.0
C345 C 0.61626 0.59723 0.71842 0.0
C346 C 0.61212 0.55592 0.75774 0.0
C347 C 0.66369 0.56401 0.7882 0.0
C348 C 0.78659 0.60999 0.69351 0.0
C349 C 0.82282 0.65363 0.65743 0.0
C350 C 0.8159 0.64072 0.60115 0.0
C351 C 0.77246 0.58408 0.58016 0.0
C352 C 0.73199 0.54289 0.61573 0.0
C353 C 0.73878 0.55599 0.6719 0.0
C354 C 0.88828 0.59666 0.71672 0.0
C355 C 0.94697 0.63942 0.70548 0.0
C356 C 0.97667 0.62693 0.66706 0.0
C357 C 0.94723 0.57237 0.63816 0.0
C358 C 0.88745 0.53092 0.64732 0.0
C359 C 0.85862 0.5425 0.68718 0.0
C360 C 0.92875 0.58904 0.82574 0.0
C361 C 0.98743 0.6361 0.83802 0.0
C362 C 0.03643 0.62765 0.83531 0.0
C363 C 0.02746 0.57212 0.81955 0.0
C364 C 0.96835 0.52442 0.80987 0.0
C365 C 0.91942 0.53275 0.81335 0.0
C366 C 0.86546 0.58959 0.91651 0.0
C367 C 0.91534 0.63715 0.94516 0.0
C368 C 0.95224 0.62681 0.98303 0.0
C369 C 0.93837 0.56873 0.9944 0.0
C370 C 0.88482 0.52122 0.9705 0.0
C371 C 0.84936 0.53152 0.93102 0.0
C372 C 0.75209 0.59305 0.89442 0.0
C373 C 0.73717 0.63475 0.9117 0.0
C374 C 0.69345 0.61914 0.94964 0.0
C375 C 0.66548 0.56216 0.9712 0.0
C376 C 0.68014 0.5208 0.95312 0.0
C377 C 0.72201 0.53572 0.9146 0.0
C378 C 0.77186 0.56706 0.5223 0.0
C379 C 0.07936 0.56442 0.81094 0.0
H380 H 0.40031 0.95201 0.67019 0.0
H381 H 0.98315 0.45799 0.34971 0.0
H382 H 0.41359 0.9758 0.36381 0.0
H383 H 0.51072 0.03819 0.41583 0.0
H384 H 0.56437 0.91145 0.38091 0.0
H385 H 0.4679 0.84963 0.32854 0.0
H386 H 0.30102 0.89551 0.44185 0.0
H387 H 0.33306 0.92793 0.53804 0.0
H388 H 0.4584 0.86452 0.5383 0.0
H389 H 0.42543 0.83167 0.44253 0.0
H390 H 0.17123 0.76316 0.40318 0.0
H391 H 0.11367 0.69891 0.47658 0.0
H392 H 0.26217 0.67299 0.5272 0.0
H393 H 0.31725 0.73301 0.45165 0.0
H394 H 0.14795 0.73904 0.27601 0.0
H395 H 0.04956 0.64853 0.27836 0.0
H396 H 0.13546 0.55835 0.35604 0.0
H397 H 0.2333 0.64857 0.35306 0.0
H398 H 0.25126 0.8205 0.18228 0.0
H399 H 0.19799 0.76192 0.09724 0.0
H400 H 0.21807 0.61791 0.16087 0.0
H401 H 0.27284 0.67662 0.24382 0.0
H402 H 0.3937 0.9459 0.24083 0.0
H403 H 0.46776 0.99206 0.17239 0.0
H404 H 0.45785 0.82547 0.14208 0.0
H405 H 0.3867 0.78021 0.2132 0.0
O406 O 0.39134 0.94244 0.63128 0.0
O407 O 0.4465 0.8992 0.63131 0.0
O408 O 0.97895 0.54203 0.30682 0.0
O409 O 0.02143 0.49375 0.34629 0.0
C410 C 0.37022 0.86069 0.33286 0.0
C411 C 0.33641 0.83581 0.37894 0.0
C412 C 0.2799 0.78365 0.37268 0.0
C413 C 0.25613 0.75711 0.32005 0.0
C414 C 0.28919 0.78278 0.27358 0.0
C415 C 0.34677 0.83443 0.27988 0.0
C416 C 0.43374 0.90808 0.34297 0.0
C417 C 0.44766 0.96327 0.36474 0.0
C418 C 0.50279 -0.00139 0.39453 0.0
C419 C 0.54392 0.9788 0.40226 0.0
C420 C 0.53288 0.92722 0.37498 0.0
C421 C 0.47815 0.89226 0.34481 0.0
C422 C 0.36129 0.8618 0.43508 0.0
C423 C 0.33603 0.88952 0.46256 0.0
C424 C 0.35431 0.90782 0.5175 0.0
C425 C 0.3979 0.89832 0.54594 0.0
C426 C 0.42448 0.87219 0.51768 0.0
C427 C 0.40621 0.85397 0.46278 0.0
C428 C 0.24858 0.75303 0.42214 0.0
C429 C 0.19161 0.74433 0.43067 0.0
C430 C 0.15909 0.70815 0.47274 0.0
C431 C 0.18403 0.68194 0.50792 0.0
C432 C 0.24256 0.69387 0.50151 0.0
C433 C 0.27407 0.72819 0.45834 0.0
C434 C 0.19762 0.70047 0.31473 0.0
C435 C 0.14543 0.6994 0.29276 0.0
C436 C 0.08932 0.64781 0.29455 0.0
C437 C 0.08462 0.59651 0.31839 0.0
C438 C 0.13739 0.59726 0.3383 0.0
C439 C 0.19336 0.64865 0.33628 0.0
C440 C 0.26489 0.75224 0.2194 0.0
C441 C 0.24547 0.7769 0.17698 0.0
C442 C 0.21545 0.74378 0.12864 0.0
C443 C 0.20448 0.68591 0.12309 0.0
C444 C 0.22657 0.66271 0.16443 0.0
C445 C 0.25729 0.69591 0.21186 0.0
C446 C 0.38443 0.85953 0.23226 0.0
C447 C 0.40688 0.91907 0.21908 0.0
C448 C 0.44893 0.94531 0.17985 0.0
C449 C 0.46799 0.91209 0.15178 0.0
C450 C 0.44301 0.85169 0.1625 0.0
C451 C 0.40225 0.82583 0.20305 0.0
C452 C 0.41381 0.91357 0.60531 0.0
C453 C 0.02506 0.54261 0.32334 0.0
H454 H 0.51946 0.30005 0.46374 0.0
H455 H 0.55666 0.8783 0.88581 0.0
H456 H 0.631 0.3638 0.78311 0.0
H457 H 0.63098 0.42591 0.70771 0.0
H458 H 0.43769 0.32149 0.68519 0.0
H459 H 0.43792 0.25693 0.75933 0.0
H460 H 0.61821 0.29447 0.6853 0.0
H461 H 0.59443 0.3087 0.58963 0.0
H462 H 0.41101 0.1667 0.60053 0.0
H463 H 0.43542 0.15326 0.69648 0.0
H464 H 0.64647 0.21732 0.70443 0.0
H465 H 0.66588 0.16388 0.63542 0.0
H466 H 0.51339 0.00027 0.6817 0.0
H467 H 0.4903 0.05483 0.74671 0.0
H468 H 0.66736 0.161 0.82014 0.0
H469 H 0.68068 0.07553 0.83325 0.0
H470 H 0.50055 0.97352 0.88551 0.0
H471 H 0.48704 0.05874 0.8711 0.0
H472 H 0.67058 0.24185 0.92484 0.0
H473 H 0.69177 0.20455 0.01087 0.0
H474 H 0.50139 0.09467 0.02732 0.0
H475 H 0.48033 0.13489 0.94275 0.0
H476 H 0.63968 0.32057 0.92863 0.0
H477 H 0.63208 0.36843 0.0101 0.0
H478 H 0.44738 0.31127 0.95788 0.0
H479 H 0.4534 0.25806 0.87838 0.0
O480 O 0.52823 0.2927 0.50124 0.0
O481 O 0.43519 0.21762 0.5081 0.0
O482 O 0.64382 0.96659 0.85107 0.0
O483 O 0.5533 0.91338 0.88252 0.0
C484 C 0.53888 0.2541 0.79737 0.0
C485 C 0.54157 0.21702 0.75715 0.0
C486 C 0.55605 0.17361 0.77273 0.0
C487 C 0.56469 0.16458 0.82887 0.0
C488 C 0.56156 0.20081 0.8694 0.0
C489 C 0.54907 0.24627 0.85406 0.0
C490 C 0.53454 0.30554 0.77686 0.0
C491 C 0.5883 0.35584 0.76395 0.0
C492 C 0.58842 0.39033 0.71976 0.0
C493 C 0.53458 0.37665 0.68926 0.0
C494 C 0.47989 0.33173 0.70721 0.0
C495 C 0.47987 0.29594 0.75057 0.0
C496 C 0.52838 0.22319 0.69789 0.0
C497 C 0.57299 0.26633 0.66688 0.0
C498 C 0.55927 0.27438 0.61223 0.0
C499 C 0.50071 0.23908 0.5875 0.0
C500 C 0.45649 0.19481 0.61839 0.0
C501 C 0.47031 0.18691 0.6731 0.0
C502 C 0.5662 0.14031 0.72992 0.0
C503 C 0.6158 0.17023 0.69821 0.0
C504 C 0.62704 0.13956 0.659 0.0
C505 C 0.5902 0.07791 0.6522 0.0
C506 C 0.54143 0.0478 0.68492 0.0
C507 C 0.52865 0.07887 0.72253 0.0
C508 C 0.57628 0.1161 0.84482 0.0
C509 C 0.6311 0.1204 0.83509 0.0
C510 C 0.63846 0.07141 0.84215 0.0
C511 C 0.5915 0.01752 0.8597 0.0
C512 C 0.53757 0.01425 0.87171 0.0
C513 C 0.52994 0.06306 0.86405 0.0
C514 C 0.57391 0.19125 0.92778 0.0
C515 C 0.63353 0.21244 0.94871 0.0
C516 C 0.6456 0.19152 -0.00194 0.0
C517 C 0.59816 0.14757 0.02596 0.0
C518 C 0.5386 0.1297 0.00715 0.0
C519 C 0.52654 0.1522 0.95871 0.0
C520 C 0.54676 0.28428 0.89783 0.0
C521 C 0.597 0.31693 0.93517 0.0
C522 C 0.59248 0.34392 0.98206 0.0
C523 C 0.53841 0.34158 0.99151 0.0
C524 C 0.48905 0.31221 0.95244 0.0
C525 C 0.49284 0.28284 0.9065 0.0
C526 C 0.48586 0.24888 0.52991 0.0
C527 C 0.59806 0.9645 0.86416 0.0
loop_
_geom_bond_atom_site_label_1
_geom_bond_atom_site_label_2
_geom_bond_distance
_geom_bond_site_symmetry_2
_ccdc_geom_bond_type
C0 O2 1.247 . S
C0 O4 1.258 . S
C1 O8 1.247 . S
C1 O9 1.258 . S
O2 C0 1.247 . S
O2 Zn3 2.028 . S
Zn3 O2 2.028 . S
Zn3 O7 2.035 1_554 S
Zn3 O9 2.035 1_554 S
Zn3 O10 2.028 . S
O4 C0 1.258 . S
O4 Zn5 2.035 1_554 S
Zn5 O4 2.035 1_556 S
Zn5 O6 2.028 . S
Zn5 O8 2.028 . S
Zn5 O11 2.035 1_556 S
O6 Zn5 2.028 . S
O6 C12 1.247 . S
O7 Zn3 2.035 1_556 S
O7 C12 1.258 . S
O8 C1 1.247 . S
O8 Zn5 2.028 . S
O9 C1 1.258 . S
O9 Zn3 2.035 1_556 S
O10 Zn3 2.028 . S
O10 C13 1.247 . S
O11 Zn5 2.035 1_554 S
O11 C13 1.258 . S
C12 O6 1.247 . S
C12 O7 1.258 . S
C13 O10 1.247 . S
C13 O11 1.258 . S
C14 O16 1.247 1_545 S
C14 O18 1.258 . S
C15 O22 1.247 1_565 S
C15 O23 1.258 . S
O16 C14 1.247 1_565 S
O16 Zn17 2.028 . S
Zn17 O16 2.028 . S
Zn17 O21 2.035 . S
Zn17 O23 2.035 . S
Zn17 O24 2.028 . S
O18 C14 1.258 . S
O18 Zn19 2.035 . S
Zn19 O18 2.035 . S
Zn19 O20 2.028 . S
Zn19 O22 2.028 . S
Zn19 O25 2.035 . S
O20 Zn19 2.028 . S
O20 C26 1.247 1_545 S
O21 Zn17 2.035 . S
O21 C26 1.258 . S
O22 C15 1.247 1_545 S
O22 Zn19 2.028 . S
O23 C15 1.258 . S
O23 Zn17 2.035 . S
O24 Zn17 2.028 . S
O24 C27 1.247 1_565 S
O25 Zn19 2.035 . S
O25 C27 1.258 . S
C26 O20 1.247 1_565 S
C26 O21 1.258 . S
C27 O24 1.247 1_545 S
C27 O25 1.258 . S
C28 O30 1.247 . S
C28 O32 1.258 . S
C29 O36 1.247 . S
C29 O37 1.258 . S
O30 C28 1.247 . S
O30 Zn31 2.028 . S
Zn31 O30 2.028 . S
Zn31 O35 2.035 . S
Zn31 O37 2.035 . S
Zn31 O38 2.028 . S
O32 C28 1.258 . S
O32 Zn33 2.035 . S
Zn33 O32 2.035 . S
Zn33 O34 2.028 . S
Zn33 O36 2.028 . S
Zn33 O39 2.035 . S
O34 Zn33 2.028 . S
O34 C40 1.247 . S
O35 Zn31 2.035 . S
O35 C40 1.258 . S
O36 C29 1.247 . S
O36 Zn33 2.028 . S
O37 C29 1.258 . S
O37 Zn31 2.035 . S
O38 Zn31 2.028 . S
O38 C41 1.247 . S
O39 Zn33 2.035 . S
O39 C41 1.258 . S
C40 O34 1.247 . S
C40 O35 1.258 . S
C41 O38 1.247 . S
C41 O39 1.258 . S
C42 O44 1.247 . S
C42 O46 1.258 1_455 S
C43 O50 1.247 . S
C43 O51 1.258 1_655 S
O44 C42 1.247 . S
O44 Zn45 2.028 . S
Zn45 O44 2.028 . S
Zn45 O49 2.035 . S
Zn45 O51 2.035 . S
Zn45 O52 2.028 . S
O46 C42 1.258 1_655 S
O46 Zn47 2.035 . S
Zn47 O46 2.035 . S
Zn47 O48 2.028 . S
Zn47 O50 2.028 . S
Zn47 O53 2.035 . S
O48 Zn47 2.028 . S
O48 C54 1.247 . S
O49 Zn45 2.035 . S
O49 C54 1.258 1_455 S
O50 C43 1.247 . S
O50 Zn47 2.028 . S
O51 C43 1.258 1_455 S
O51 Zn45 2.035 . S
O52 Zn45 2.028 . S
O52 C55 1.247 . S
O53 Zn47 2.035 . S
O53 C55 1.258 1_655 S
C54 O48 1.247 . S
C54 O49 1.258 1_655 S
C55 O52 1.247 . S
C55 O53 1.258 1_455 S
C56 O58 1.247 . S
C56 O60 1.258 1_545 S
C57 O64 1.247 . S
C57 O65 1.258 . S
O58 C56 1.247 . S
O58 Zn59 2.028 . S
Zn59 O58 2.028 . S
Zn59 O63 2.035 . S
Zn59 O65 2.035 . S
Zn59 O66 2.028 . S
O60 C56 1.258 1_565 S
O60 Zn61 2.035 1_565 S
Zn61 O60 2.035 1_545 S
Zn61 O62 2.028 . S
Zn61 O64 2.028 . S
Zn61 O67 2.035 . S
O62 Zn61 2.028 . S
O62 C68 1.247 . S
O63 Zn59 2.035 . S
O63 C68 1.258 . S
O64 C57 1.247 . S
O64 Zn61 2.028 . S
O65 C57 1.258 . S
O65 Zn59 2.035 . S
O66 Zn59 2.028 . S
O66 C69 1.247 . S
O67 Zn61 2.035 . S
O67 C69 1.258 . S
C68 O62 1.247 . S
C68 O63 1.258 . S
C69 O66 1.247 . S
C69 O67 1.258 . S
C70 O72 1.247 . S
C70 O74 1.258 . S
C71 O78 1.247 . S
C71 O79 1.258 . S
O72 C70 1.247 . S
O72 Zn73 2.028 . S
Zn73 O72 2.028 . S
Zn73 O77 2.035 . S
Zn73 O79 2.035 . S
Zn73 O80 2.028 . S
O74 C70 1.258 . S
O74 Zn75 2.035 . S
Zn75 O74 2.035 . S
Zn75 O76 2.028 . S
Zn75 O78 2.028 . S
Zn75 O81 2.035 . S
O76 Zn75 2.028 . S
O76 C82 1.247 . S
O77 Zn73 2.035 . S
O77 C82 1.258 . S
O78 C71 1.247 . S
O78 Zn75 2.028 . S
O79 C71 1.258 . S
O79 Zn73 2.035 . S
O80 Zn73 2.028 . S
O80 C83 1.247 . S
O81 Zn75 2.035 . S
O81 C83 1.258 . S
C82 O76 1.247 . S
C82 O77 1.258 . S
C83 O80 1.247 . S
C83 O81 1.258 . S
H84 O110 0.856 . S
H85 O113 0.854 . S
H86 C121 0.930 . S
H87 C122 0.930 . S
H88 C124 0.930 . S
H89 C125 0.930 . S
H90 C127 0.931 . S
H91 C128 0.930 . S
H92 C130 0.930 . S
H93 C131 0.929 . S
H94 C133 0.930 . S
H95 C134 0.931 . S
H96 C136 0.930 . S
H97 C137 0.929 . S
H98 C139 0.931 . S
H99 C140 0.930 . S
H100 C142 0.930 . S
H101 C143 0.932 . S
H102 C145 0.930 . S
H103 C146 0.929 . S
H104 C148 0.931 . S
H105 C149 0.930 . S
H106 C151 0.929 . S
H107 C152 0.931 . S
H108 C154 0.930 . S
H109 C155 0.929 . S
O110 H84 0.856 . S
O110 C156 1.300 . S
O111 C156 1.209 . S
O112 C157 1.199 . S
O113 H85 0.854 . S
O113 C157 1.297 . S
C114 C115 1.404 . S
C114 C119 1.397 . S
C114 C120 1.492 . S
C115 C114 1.404 . S
C115 C116 1.396 . S
C115 C126 1.492 . S
C116 C115 1.396 . S
C116 C117 1.397 . S
C116 C132 1.509 . S
C117 C116 1.397 . S
C117 C118 1.412 . S
C117 C138 1.485 . S
C118 C117 1.412 . S
C118 C119 1.388 . S
C118 C144 1.490 . S
C119 C114 1.397 . S
C119 C118 1.388 . S
C119 C150 1.519 . S
C120 C114 1.492 . S
C120 C121 1.363 . S
C120 C125 1.390 . S
C121 H86 0.930 . S
C121 C120 1.363 . S
C121 C122 1.372 . S
C122 H87 0.930 . S
C122 C121 1.372 . S
C122 C123 1.383 . S
C123 C122 1.383 . S
C123 C124 1.395 . S
C124 H88 0.930 . S
C124 C123 1.395 . S
C124 C125 1.362 . S
C125 H89 0.930 . S
C125 C120 1.390 . S
C125 C124 1.362 . S
C126 C115 1.492 . S
C126 C127 1.377 . S
C126 C131 1.397 . S
C127 H90 0.931 . S
C127 C126 1.377 . S
C127 C128 1.376 . S
C128 H91 0.930 . S
C128 C127 1.376 . S
C128 C129 1.376 . S
C129 C128 1.376 . S
C129 C130 1.378 . S
C129 C156 1.486 . S
C130 H92 0.930 . S
C130 C129 1.378 . S
C130 C131 1.376 . S
C131 H93 0.929 . S
C131 C126 1.397 . S
C131 C130 1.376 . S
C132 C116 1.509 . S
C132 C133 1.391 . S
C132 C137 1.386 . S
C133 H94 0.930 . S
C133 C132 1.391 . S
C133 C134 1.375 . S
C134 H95 0.931 . S
C134 C133 1.375 . S
C134 C135 1.375 . S
C135 C134 1.375 . S
C135 C136 1.361 . S
C136 H96 0.930 . S
C136 C135 1.361 . S
C136 C137 1.399 . S
C137 H97 0.929 . S
C137 C132 1.386 . S
C137 C136 1.399 . S
C138 C117 1.485 . S
C138 C139 1.394 . S
C138 C143 1.360 . S
C139 H98 0.931 . S
C139 C138 1.394 . S
C139 C140 1.372 . S
C140 H99 0.930 . S
C140 C139 1.372 . S
C140 C141 1.397 . S
C141 C140 1.397 . S
C141 C142 1.390 . S
C141 C157 1.476 1_455 S
C142 H100 0.930 . S
C142 C141 1.390 . S
C142 C143 1.366 . S
C143 H101 0.932 . S
C143 C138 1.360 . S
C143 C142 1.366 . S
C144 C118 1.490 . S
C144 C145 1.380 . S
C144 C149 1.386 . S
C145 H102 0.930 . S
C145 C144 1.380 . S
C145 C146 1.381 . S
C146 H103 0.929 . S
C146 C145 1.381 . S
C146 C147 1.371 . S
C147 C146 1.371 . S
C147 C148 1.380 . S
C148 H104 0.931 . S
C148 C147 1.380 . S
C148 C149 1.387 . S
C149 H105 0.930 . S
C149 C144 1.386 . S
C149 C148 1.387 . S
C150 C119 1.519 . S
C150 C151 1.377 . S
C150 C155 1.361 . S
C151 H106 0.929 . S
C151 C150 1.377 . S
C151 C152 1.386 . S
C152 H107 0.931 . S
C152 C151 1.386 . S
C152 C153 1.363 . S
C153 C152 1.363 . S
C153 C154 1.385 . S
C154 H108 0.930 . S
C154 C153 1.385 . S
C154 C155 1.396 . S
C155 H109 0.929 . S
C155 C150 1.361 . S
C155 C154 1.396 . S
C156 O110 1.300 . S
C156 O111 1.209 . S
C156 C129 1.486 . S
C157 O112 1.199 . S
C157 O113 1.297 . S
C157 C141 1.476 1_655 S
H158 O184 0.856 1_455 S
H159 O187 0.854 . S
H160 C195 0.911 1_655 S
H161 C196 0.930 . S
H162 C198 0.930 . S
H163 C199 0.930 . S
H164 C201 0.931 1_556 S
H165 C202 0.930 . S
H166 C204 0.930 . S
H167 C205 0.942 . S
H168 C207 0.930 . S
H169 C208 0.931 . S
H170 C210 0.930 . S
H171 C211 0.929 . S
H172 C213 0.931 . S
H173 C214 0.930 . S
H174 C216 0.930 . S
H175 C217 0.932 . S
H176 C219 0.930 . S
H177 C220 0.929 . S
H178 C222 0.931 . S
H179 C223 0.930 . S
H180 C225 0.929 . S
H181 C226 0.931 . S
H182 C228 0.930 . S
H183 C229 0.929 . S
O184 H158 0.856 1_655 S
O184 C230 1.300 1_655 S
O185 C230 1.209 . S
O186 C231 1.199 . S
O187 H159 0.854 . S
O187 C231 1.297 . S
C188 C189 1.404 . S
C188 C193 1.397 . S
C188 C194 1.492 1_655 S
C189 C188 1.404 . S
C189 C190 1.396 . S
C189 C200 1.492 . S
C190 C189 1.396 . S
C190 C191 1.397 . S
C190 C206 1.509 . S
C191 C190 1.397 . S
C191 C192 1.412 . S
C191 C212 1.485 . S
C192 C191 1.412 . S
C192 C193 1.388 . S
C192 C218 1.490 . S
C193 C188 1.397 . S
C193 C192 1.388 . S
C193 C224 1.519 . S
C194 C188 1.492 1_455 S
C194 C195 1.375 . S
C194 C199 1.390 . S
C195 H160 0.911 1_455 S
C195 C194 1.375 . S
C195 C196 1.380 . S
C196 H161 0.930 . S
C196 C195 1.380 . S
C196 C197 1.383 . S
C197 C196 1.383 . S
C197 C198 1.395 . S
C198 H162 0.930 . S
C198 C197 1.395 . S
C198 C199 1.362 . S
C199 H163 0.930 . S
C199 C194 1.390 . S
C199 C198 1.362 . S
C200 C189 1.492 . S
C200 C201 1.377 1_556 S
C200 C205 1.382 1_655 S
C201 H164 0.931 1_554 S
C201 C200 1.377 1_554 S
C201 C202 1.376 . S
C202 H165 0.930 . S
C202 C201 1.376 . S
C202 C203 1.376 . S
C203 C202 1.376 . S
C203 C204 1.378 1_655 S
C203 C230 1.486 1_655 S
C204 H166 0.930 . S
C204 C203 1.378 1_455 S
C204 C205 1.379 1_554 S
C205 H167 0.942 . S
C205 C200 1.382 1_455 S
C205 C204 1.379 1_556 S
C206 C190 1.509 . S
C206 C207 1.391 . S
C206 C211 1.386 . S
C207 H168 0.930 . S
C207 C206 1.391 . S
C207 C208 1.375 1_556 S
C208 H169 0.931 . S
C208 C207 1.375 1_554 S
C208 C209 1.375 . S
C209 C208 1.375 . S
C209 C210 1.361 . S
C210 H170 0.930 . S
C210 C209 1.361 . S
C210 C211 1.399 1_554 S
C211 H171 0.929 . S
C211 C206 1.386 . S
C211 C210 1.399 1_556 S
C212 C191 1.485 . S
C212 C213 1.394 . S
C212 C217 1.360 . S
C213 H172 0.931 . S
C213 C212 1.394 . S
C213 C214 1.372 . S
C214 H173 0.930 . S
C214 C213 1.372 . S
C214 C215 1.397 1_545 S
C215 C214 1.397 1_565 S
C215 C216 1.390 . S
C215 C231 1.476 . S
C216 H174 0.930 . S
C216 C215 1.390 . S
C216 C217 1.366 1_565 S
C217 H175 0.932 . S
C217 C212 1.360 . S
C217 C216 1.366 1_545 S
C218 C192 1.490 . S
C218 C219 1.380 . S
C218 C223 1.386 . S
C219 H176 0.930 . S
C219 C218 1.380 . S
C219 C220 1.381 . S
C220 H177 0.929 . S
C220 C219 1.381 . S
C220 C221 1.371 . S
C221 C220 1.371 . S
C221 C222 1.380 . S
C222 H178 0.931 . S
C222 C221 1.380 . S
C222 C223 1.387 . S
C223 H179 0.930 . S
C223 C218 1.386 . S
C223 C222 1.387 . S
C224 C193 1.519 . S
C224 C225 1.377 . S
C224 C229 1.361 . S
C225 H180 0.929 . S
C225 C224 1.377 . S
C225 C226 1.386 1_655 S
C226 H181 0.931 . S
C226 C225 1.386 1_455 S
C226 C227 1.363 . S
C227 C226 1.363 . S
C227 C228 1.385 . S
C228 H182 0.930 . S
C228 C227 1.385 . S
C228 C229 1.396 1_455 S
C229 H183 0.929 . S
C229 C224 1.361 . S
C229 C228 1.396 1_655 S
C230 O184 1.300 1_455 S
C230 O185 1.209 . S
C230 C203 1.486 1_455 S
C231 O186 1.199 . S
C231 O187 1.297 . S
C231 C215 1.476 . S
H232 O258 0.856 . S
H233 O261 0.854 . S
H234 C269 0.930 . S
H235 C270 0.930 . S
H236 C272 0.930 . S
H237 C273 0.930 . S
H238 C275 0.931 . S
H239 C276 0.930 . S
H240 C278 0.930 . S
H241 C279 0.929 . S
H242 C281 0.930 . S
H243 C282 0.939 . S
H244 C284 0.930 . S
H245 C285 0.929 . S
H246 C287 0.931 . S
H247 C288 0.930 . S
H248 C290 0.930 . S
H249 C291 0.932 . S
H250 C293 0.930 . S
H251 C294 0.929 . S
H252 C296 0.931 . S
H253 C297 0.930 . S
H254 C299 0.929 . S
H255 C300 0.931 . S
H256 C302 0.930 . S
H257 C303 0.929 . S
O258 H232 0.856 . S
O258 C304 1.300 1_556 S
O259 C304 1.209 . S
O260 C305 1.199 . S
O261 H233 0.854 . S
O261 C305 1.297 . S
C262 C263 1.404 . S
C262 C267 1.397 . S
C262 C268 1.492 . S
C263 C262 1.404 . S
C263 C264 1.396 . S
C263 C274 1.492 . S
C264 C263 1.396 . S
C264 C265 1.397 . S
C264 C280 1.509 . S
C265 C264 1.397 . S
C265 C266 1.412 . S
C265 C286 1.485 . S
C266 C265 1.412 . S
C266 C267 1.388 . S
C266 C292 1.490 . S
C267 C262 1.397 . S
C267 C266 1.388 . S
C267 C298 1.519 . S
C268 C262 1.492 . S
C268 C269 1.363 . S
C268 C273 1.390 . S
C269 H234 0.930 . S
C269 C268 1.363 . S
C269 C270 1.372 . S
C270 H235 0.930 . S
C270 C269 1.372 . S
C270 C271 1.383 . S
C271 C270 1.383 . S
C271 C272 1.395 . S
C272 H236 0.930 . S
C272 C271 1.395 . S
C272 C273 1.362 . S
C273 H237 0.930 . S
C273 C268 1.390 . S
C273 C272 1.362 . S
C274 C263 1.492 . S
C274 C275 1.377 . S
C274 C279 1.397 . S
C275 H238 0.931 . S
C275 C274 1.377 . S
C275 C276 1.376 . S
C276 H239 0.930 . S
C276 C275 1.376 . S
C276 C277 1.376 . S
C277 C276 1.376 . S
C277 C278 1.378 . S
C277 C304 1.486 . S
C278 H240 0.930 . S
C278 C277 1.378 . S
C278 C279 1.376 . S
C279 H241 0.929 . S
C279 C274 1.397 . S
C279 C278 1.376 . S
C280 C264 1.509 . S
C280 C281 1.391 . S
C280 C285 1.386 . S
C281 H242 0.930 . S
C281 C280 1.391 . S
C281 C282 1.375 . S
C282 H243 0.939 . S
C282 C281 1.375 . S
C282 C283 1.375 1_565 S
C283 C282 1.375 1_545 S
C283 C284 1.361 . S
C284 H244 0.930 . S
C284 C283 1.361 . S
C284 C285 1.399 1_545 S
C285 H245 0.929 . S
C285 C280 1.386 . S
C285 C284 1.399 1_565 S
C286 C265 1.485 . S
C286 C287 1.394 . S
C286 C291 1.360 1_565 S
C287 H246 0.931 . S
C287 C286 1.394 . S
C287 C288 1.372 1_565 S
C288 H247 0.930 . S
C288 C287 1.372 1_545 S
C288 C289 1.397 . S
C289 C288 1.397 . S
C289 C290 1.390 . S
C289 C305 1.476 . S
C290 H248 0.930 . S
C290 C289 1.390 . S
C290 C291 1.366 . S
C291 H249 0.932 . S
C291 C286 1.360 1_545 S
C291 C290 1.366 . S
C292 C266 1.490 . S
C292 C293 1.380 . S
C292 C297 1.386 . S
C293 H250 0.930 . S
C293 C292 1.380 . S
C293 C294 1.381 . S
C294 H251 0.929 . S
C294 C293 1.381 . S
C294 C295 1.371 . S
C295 C294 1.371 . S
C295 C296 1.380 . S
C296 H252 0.931 . S
C296 C295 1.380 . S
C296 C297 1.387 . S
C297 H253 0.930 . S
C297 C292 1.386 . S
C297 C296 1.387 . S
C298 C267 1.519 . S
C298 C299 1.377 . S
C298 C303 1.361 . S
C299 H254 0.929 . S
C299 C298 1.377 . S
C299 C300 1.386 . S
C300 H255 0.931 . S
C300 C299 1.386 . S
C300 C301 1.363 . S
C301 C300 1.363 . S
C301 C302 1.385 . S
C302 H256 0.930 . S
C302 C301 1.385 . S
C302 C303 1.396 . S
C303 H257 0.929 . S
C303 C298 1.361 . S
C303 C302 1.396 . S
C304 O258 1.300 1_554 S
C304 O259 1.209 . S
C304 C277 1.486 . S
C305 O260 1.199 . S
C305 O261 1.297 . S
C305 C289 1.476 . S
H306 O332 0.856 . S
H307 O335 0.854 . S
H308 C343 0.930 . S
H309 C344 0.930 . S
H310 C346 0.930 . S
H311 C347 0.930 . S
H312 C349 0.931 . S
H313 C350 0.930 . S
H314 C352 0.930 . S
H315 C353 0.929 . S
H316 C355 0.930 . S
H317 C356 0.931 . S
H318 C358 0.930 . S
H319 C359 0.929 . S
H320 C361 0.931 . S
H321 C362 0.930 . S
H322 C364 0.930 . S
H323 C365 0.932 1_655 S
H324 C367 0.930 . S
H325 C368 0.929 . S
H326 C370 0.933 . S
H327 C371 0.930 . S
H328 C373 0.929 . S
H329 C374 0.931 . S
H330 C376 0.930 . S
H331 C377 0.929 . S
O332 H306 0.856 . S
O332 C378 1.300 . S
O333 C378 1.209 . S
O334 C379 1.199 . S
O335 H307 0.854 . S
O335 C379 1.297 . S
C336 C337 1.404 . S
C336 C341 1.397 . S
C336 C342 1.492 . S
C337 C336 1.404 . S
C337 C338 1.396 . S
C337 C348 1.492 . S
C338 C337 1.396 . S
C338 C339 1.397 . S
C338 C354 1.509 . S
C339 C338 1.397 . S
C339 C340 1.412 . S
C339 C360 1.485 1_655 S
C340 C339 1.412 . S
C340 C341 1.388 . S
C340 C366 1.490 . S
C341 C336 1.397 . S
C341 C340 1.388 . S
C341 C372 1.519 . S
C342 C336 1.492 . S
C342 C343 1.363 . S
C342 C347 1.390 . S
C343 H308 0.930 . S
C343 C342 1.363 . S
C343 C344 1.372 . S
C344 H309 0.930 . S
C344 C343 1.372 . S
C344 C345 1.383 . S
C345 C344 1.383 . S
C345 C346 1.395 . S
C346 H310 0.930 . S
C346 C345 1.395 . S
C346 C347 1.362 . S
C347 H311 0.930 . S
C347 C342 1.390 . S
C347 C346 1.362 . S
C348 C337 1.492 . S
C348 C349 1.377 . S
C348 C353 1.397 . S
C349 H312 0.931 . S
C349 C348 1.377 . S
C349 C350 1.376 . S
C350 H313 0.930 . S
C350 C349 1.376 . S
C350 C351 1.376 . S
C351 C350 1.376 . S
C351 C352 1.378 . S
C351 C378 1.486 . S
C352 H314 0.930 . S
C352 C351 1.378 . S
C352 C353 1.376 . S
C353 H315 0.929 . S
C353 C348 1.397 . S
C353 C352 1.376 . S
C354 C338 1.509 . S
C354 C355 1.391 1_655 S
C354 C359 1.386 . S
C355 H316 0.930 . S
C355 C354 1.391 1_455 S
C355 C356 1.375 . S
C356 H317 0.931 . S
C356 C355 1.375 . S
C356 C357 1.375 . S
C357 C356 1.375 . S
C357 C358 1.361 1_455 S
C358 H318 0.930 . S
C358 C357 1.361 1_655 S
C358 C359 1.399 . S
C359 H319 0.929 . S
C359 C354 1.386 . S
C359 C358 1.399 . S
C360 C339 1.485 1_455 S
C360 C361 1.394 . S
C360 C365 1.360 . S
C361 H320 0.931 . S
C361 C360 1.394 . S
C361 C362 1.372 . S
C362 H321 0.930 . S
C362 C361 1.372 . S
C362 C363 1.397 . S
C363 C362 1.397 . S
C363 C364 1.390 . S
C363 C379 1.476 . S
C364 H322 0.930 . S
C364 C363 1.390 . S
C364 C365 1.366 . S
C365 H323 0.932 1_455 S
C365 C360 1.360 . S
C365 C364 1.366 . S
C366 C340 1.490 . S
C366 C367 1.380 1_655 S
C366 C371 1.386 . S
C367 H324 0.930 . S
C367 C366 1.380 1_455 S
C367 C368 1.381 . S
C368 H325 0.929 . S
C368 C367 1.381 . S
C368 C369 1.371 1_556 S
C369 C368 1.371 1_554 S
C369 C370 1.380 1_554 S
C370 H326 0.933 . S
C370 C369 1.380 1_556 S
C370 C371 1.387 1_455 S
C371 H327 0.930 . S
C371 C366 1.386 . S
C371 C370 1.387 1_655 S
C372 C341 1.519 . S
C372 C373 1.377 . S
C372 C377 1.361 . S
C373 H328 0.929 . S
C373 C372 1.377 . S
C373 C374 1.386 . S
C374 H329 0.931 . S
C374 C373 1.386 . S
C374 C375 1.363 . S
C375 C374 1.363 . S
C375 C376 1.385 . S
C376 H330 0.930 . S
C376 C375 1.385 . S
C376 C377 1.396 . S
C377 H331 0.929 . S
C377 C372 1.361 . S
C377 C376 1.396 . S
C378 O332 1.300 . S
C378 O333 1.209 . S
C378 C351 1.486 . S
C379 O334 1.199 . S
C379 O335 1.297 . S
C379 C363 1.476 . S
H380 O406 0.856 . S
H381 O409 0.854 . S
H382 C417 0.930 . S
H383 C418 0.930 1_545 S
H384 C420 0.930 . S
H385 C421 0.930 . S
H386 C423 0.931 . S
H387 C424 0.930 . S
H388 C426 0.930 . S
H389 C427 0.929 . S
H390 C429 0.930 . S
H391 C430 0.931 . S
H392 C432 0.930 . S
H393 C433 0.929 . S
H394 C435 0.931 . S
H395 C436 0.930 . S
H396 C438 0.930 . S
H397 C439 0.932 . S
H398 C441 0.930 . S
H399 C442 0.929 . S
H400 C444 0.931 . S
H401 C445 0.930 . S
H402 C447 0.929 . S
H403 C448 0.931 1_545 S
H404 C450 0.930 . S
H405 C451 0.929 . S
O406 H380 0.856 . S
O406 C452 1.300 . S
O407 C452 1.209 . S
O408 C453 1.199 . S
O409 H381 0.854 . S
O409 C453 1.297 . S
C410 C411 1.404 . S
C410 C415 1.397 . S
C410 C416 1.492 . S
C411 C410 1.404 . S
C411 C412 1.396 . S
C411 C422 1.492 . S
C412 C411 1.396 . S
C412 C413 1.397 . S
C412 C428 1.509 . S
C413 C412 1.397 . S
C413 C414 1.412 . S
C413 C434 1.485 . S
C414 C413 1.412 . S
C414 C415 1.388 . S
C414 C440 1.490 . S
C415 C410 1.397 . S
C415 C414 1.388 . S
C415 C446 1.519 . S
C416 C410 1.492 . S
C416 C417 1.363 . S
C416 C421 1.390 . S
C417 H382 0.930 . S
C417 C416 1.363 . S
C417 C418 1.372 . S
C418 H383 0.930 1_565 S
C418 C417 1.372 . S
C418 C419 1.383 1_565 S
C419 C418 1.383 1_545 S
C419 C420 1.395 1_545 S
C420 H384 0.930 . S
C420 C419 1.395 1_565 S
C420 C421 1.362 . S
C421 H385 0.930 . S
C421 C416 1.390 . S
C421 C420 1.362 . S
C422 C411 1.492 . S
C422 C423 1.377 . S
C422 C427 1.397 . S
C423 H386 0.931 . S
C423 C422 1.377 . S
C423 C424 1.376 . S
C424 H387 0.930 . S
C424 C423 1.376 . S
C424 C425 1.376 . S
C425 C424 1.376 . S
C425 C426 1.378 . S
C425 C452 1.486 . S
C426 H388 0.930 . S
C426 C425 1.378 . S
C426 C427 1.376 . S
C427 H389 0.929 . S
C427 C422 1.397 . S
C427 C426 1.376 . S
C428 C412 1.509 . S
C428 C429 1.391 . S
C428 C433 1.386 . S
C429 H390 0.930 . S
C429 C428 1.391 . S
C429 C430 1.375 . S
C430 H391 0.931 . S
C430 C429 1.375 . S
C430 C431 1.375 . S
C431 C430 1.375 . S
C431 C432 1.361 . S
C432 H392 0.930 . S
C432 C431 1.361 . S
C432 C433 1.399 . S
C433 H393 0.929 . S
C433 C428 1.386 . S
C433 C432 1.399 . S
C434 C413 1.485 . S
C434 C435 1.394 . S
C434 C439 1.360 . S
C435 H394 0.931 . S
C435 C434 1.394 . S
C435 C436 1.372 . S
C436 H395 0.930 . S
C436 C435 1.372 . S
C436 C437 1.397 . S
C437 C436 1.397 . S
C437 C438 1.390 . S
C437 C453 1.476 1_455 S
C438 H396 0.930 . S
C438 C437 1.390 . S
C438 C439 1.366 . S
C439 H397 0.932 . S
C439 C434 1.360 . S
C439 C438 1.366 . S
C440 C414 1.490 . S
C440 C441 1.380 . S
C440 C445 1.386 . S
C441 H398 0.930 . S
C441 C440 1.380 . S
C441 C442 1.381 . S
C442 H399 0.929 . S
C442 C441 1.381 . S
C442 C443 1.371 . S
C443 C442 1.371 . S
C443 C444 1.380 . S
C444 H400 0.931 . S
C444 C443 1.380 . S
C444 C445 1.387 . S
C445 H401 0.930 . S
C445 C440 1.386 . S
C445 C444 1.387 . S
C446 C415 1.519 . S
C446 C447 1.377 . S
C446 C451 1.361 . S
C447 H402 0.929 . S
C447 C446 1.377 . S
C447 C448 1.386 . S
C448 H403 0.931 1_565 S
C448 C447 1.386 . S
C448 C449 1.363 . S
C449 C448 1.363 . S
C449 C450 1.385 . S
C450 H404 0.930 . S
C450 C449 1.385 . S
C450 C451 1.396 . S
C451 H405 0.929 . S
C451 C446 1.361 . S
C451 C450 1.396 . S
C452 O406 1.300 . S
C452 O407 1.209 . S
C452 C425 1.486 . S
C453 O408 1.199 . S
C453 O409 1.297 . S
C453 C437 1.476 1_655 S
H454 O480 0.856 . S
H455 O483 0.854 . S
H456 C491 0.930 . S
H457 C492 0.930 . S
H458 C494 0.930 . S
H459 C495 0.930 . S
H460 C497 0.931 . S
H461 C498 0.930 . S
H462 C500 0.930 . S
H463 C501 0.929 . S
H464 C503 0.930 . S
H465 C504 0.931 . S
H466 C506 0.930 . S
H467 C507 0.929 . S
H468 C509 0.931 . S
H469 C510 0.930 . S
H470 C512 0.930 . S
H471 C513 0.932 . S
H472 C515 0.930 . S
H473 C516 0.929 1_554 S
H474 C518 0.931 1_554 S
H475 C519 0.930 . S
H476 C521 0.929 . S
H477 C522 0.931 . S
H478 C524 0.930 . S
H479 C525 0.929 . S
O480 H454 0.856 . S
O480 C526 1.300 . S
O481 C526 1.209 . S
O482 C527 1.199 . S
O483 H455 0.854 . S
O483 C527 1.297 . S
C484 C485 1.404 . S
C484 C489 1.397 . S
C484 C490 1.492 . S
C485 C484 1.404 . S
C485 C486 1.396 . S
C485 C496 1.492 . S
C486 C485 1.396 . S
C486 C487 1.397 . S
C486 C502 1.509 . S
C487 C486 1.397 . S
C487 C488 1.412 . S
C487 C508 1.485 . S
C488 C487 1.412 . S
C488 C489 1.388 . S
C488 C514 1.490 . S
C489 C484 1.397 . S
C489 C488 1.388 . S
C489 C520 1.519 . S
C490 C484 1.492 . S
C490 C491 1.363 . S
C490 C495 1.390 . S
C491 H456 0.930 . S
C491 C490 1.363 . S
C491 C492 1.372 . S
C492 H457 0.930 . S
C492 C491 1.372 . S
C492 C493 1.383 . S
C493 C492 1.383 . S
C493 C494 1.395 . S
C494 H458 0.930 . S
C494 C493 1.395 . S
C494 C495 1.362 . S
C495 H459 0.930 . S
C495 C490 1.390 . S
C495 C494 1.362 . S
C496 C485 1.492 . S
C496 C497 1.377 . S
C496 C501 1.397 . S
C497 H460 0.931 . S
C497 C496 1.377 . S
C497 C498 1.376 . S
C498 H461 0.930 . S
C498 C497 1.376 . S
C498 C499 1.376 . S
C499 C498 1.376 . S
C499 C500 1.378 . S
C499 C526 1.486 . S
C500 H462 0.930 . S
C500 C499 1.378 . S
C500 C501 1.376 . S
C501 H463 0.929 . S
C501 C496 1.397 . S
C501 C500 1.376 . S
C502 C486 1.509 . S
C502 C503 1.391 . S
C502 C507 1.386 . S
C503 H464 0.930 . S
C503 C502 1.391 . S
C503 C504 1.375 . S
C504 H465 0.931 . S
C504 C503 1.375 . S
C504 C505 1.375 . S
C505 C504 1.375 . S
C505 C506 1.361 . S
C506 H466 0.930 . S
C506 C505 1.361 . S
C506 C507 1.399 . S
C507 H467 0.929 . S
C507 C502 1.386 . S
C507 C506 1.399 . S
C508 C487 1.485 . S
C508 C509 1.394 . S
C508 C513 1.360 . S
C509 H468 0.931 . S
C509 C508 1.394 . S
C509 C510 1.372 . S
C510 H469 0.930 . S
C510 C509 1.372 . S
C510 C511 1.397 1_545 S
C511 C510 1.397 1_565 S
C511 C512 1.390 . S
C511 C527 1.476 . S
C512 H470 0.930 . S
C512 C511 1.390 . S
C512 C513 1.366 1_565 S
C513 H471 0.932 . S
C513 C508 1.360 . S
C513 C512 1.366 1_545 S
C514 C488 1.490 . S
C514 C515 1.380 . S
C514 C519 1.386 . S
C515 H472 0.930 . S
C515 C514 1.380 . S
C515 C516 1.381 . S
C516 H473 0.929 1_556 S
C516 C515 1.381 . S
C516 C517 1.371 1_556 S
C517 C516 1.371 1_554 S
C517 C518 1.380 1_554 S
C518 H474 0.931 1_556 S
C518 C517 1.380 1_556 S
C518 C519 1.387 . S
C519 H475 0.930 . S
C519 C514 1.386 . S
C519 C518 1.387 . S
C520 C489 1.519 . S
C520 C521 1.377 . S
C520 C525 1.361 . S
C521 H476 0.929 . S
C521 C520 1.377 . S
C521 C522 1.386 . S
C522 H477 0.931 . S
C522 C521 1.386 . S
C522 C523 1.363 . S
C523 C522 1.363 . S
C523 C524 1.385 . S
C524 H478 0.930 . S
C524 C523 1.385 . S
C524 C525 1.396 . S
C525 H479 0.929 . S
C525 C520 1.361 . S
C525 C524 1.396 . S
C526 O480 1.300 . S
C526 O481 1.209 . S
C526 C499 1.486 . S
C527 O482 1.199 . S
C527 O483 1.297 . S
C527 C511 1.476 . S
C13 C147 3.209 . S
C27 C221 1.618 . S
C271 C29 2.213 . S
C357 C54 2.185 1_455 S
C449 C69 2.075 1_565 S
C493 C83 2.170 . S
C15 C295 2.209 . S
C41 C375 3.240 1_554 S
C431 C42 1.545 . S
C517 C57 1.766 . S
C71 C123 3.403 . S
C197 C1 2.112 . S
C369 C12 3.768 1_554 S
C26 C419 3.625 1_565 S
C523 C28 3.478 1_556 S
C55 C135 1.966 . S
C68 C209 3.559 . S
C82 C301 3.430 . S
C14 C505 3.280 . S
C153 C40 2.543 . S
C43 C227 3.656 1_655 S
C56 C283 3.605 . S
C70 C345 2.431 . S
C0 C443 3.532 . S
