# Generated by pormake.
# Topology anh, (6,3)-cn, num edge types: 1
# Building blocks:
#     Node 0, Type 0, BuildingBlock: BETDEL_clean_sbu_0, # of connection points: 6
#     Node 1, Type 0, BuildingBlock: BETDEL_clean_sbu_0, # of connection points: 6
#     Node 2, Type 0, BuildingBlock: BETDEL_clean_sbu_0, # of connection points: 6
#     Node 3, Type 1, BuildingBlock: KAKCAD_clean_linker_0, # of connection points: 3
#     Node 4, Type 1, BuildingBlock: KAKCAD_clean_linker_0, # of connection points: 3
#     Node 5, Type 1, BuildingBlock: KAKCAD_clean_linker_0, # of connection points: 3
#     Node 6, Type 1, BuildingBlock: KAKCAD_clean_linker_0, # of connection points: 3
#     Node 7, Type 1, BuildingBlock: KAKCAD_clean_linker_0, # of connection points: 3
#     Node 8, Type 1, BuildingBlock: KAKCAD_clean_linker_0, # of connection points: 3
#     Edge 9, Type (0, 1), BuildingBlock: MIFKUJ_clean_linker_0, # of connection points: 2
#     Edge 10, Type (0, 1), BuildingBlock: MIFKUJ_clean_linker_0, # of connection points: 2
#     Edge 11, Type (0, 1), BuildingBlock: MIFKUJ_clean_linker_0, # of connection points: 2
#     Edge 12, Type (0, 1), BuildingBlock: MIFKUJ_clean_linker_0, # of connection points: 2
#     Edge 13, Type (0, 1), BuildingBlock: MIFKUJ_clean_linker_0, # of connection points: 2
#     Edge 14, Type (0, 1), BuildingBlock: MIFKUJ_clean_linker_0, # of connection points: 2
#     Edge 15, Type (0, 1), BuildingBlock: MIFKUJ_clean_linker_0, # of connection points: 2
#     Edge 16, Type (0, 1), BuildingBlock: MIFKUJ_clean_linker_0, # of connection points: 2
#     Edge 17, Type (0, 1), BuildingBlock: MIFKUJ_clean_linker_0, # of connection points: 2
#     Edge 18, Type (0, 1), BuildingBlock: MIFKUJ_clean_linker_0, # of connection points: 2
#     Edge 19, Type (0, 1), BuildingBlock: MIFKUJ_clean_linker_0, # of connection points: 2
#     Edge 20, Type (0, 1), BuildingBlock: MIFKUJ_clean_linker_0, # of connection points: 2
#     Edge 21, Type (0, 1), BuildingBlock: MIFKUJ_clean_linker_0, # of connection points: 2
#     Edge 22, Type (0, 1), BuildingBlock: MIFKUJ_clean_linker_0, # of connection points: 2
#     Edge 23, Type (0, 1), BuildingBlock: MIFKUJ_clean_linker_0, # of connection points: 2
#     Edge 24, Type (0, 1), BuildingBlock: MIFKUJ_clean_linker_0, # of connection points: 2
#     Edge 25, Type (0, 1), BuildingBlock: MIFKUJ_clean_linker_0, # of connection points: 2
#     Edge 26, Type (0, 1), BuildingBlock: MIFKUJ_clean_linker_0, # of connection points: 2
# Relax obj value: 0.136
# Max RMSD: 0.165
# Mean RMSD: 0.130
data_MOF--net-anh--node1-BETDEL_clean_sbu_0--node2-KAKCAD_clean_linker_0--edge1-MIFKUJ_clean_linker_0
_symmetry_space_group_name_H-M    P1
_symmetry_Int_Tables_number       1
_symmetry_cell_setting            triclinic
loop_
_symmetry_equiv_pos_as_xyz
'x, y, z'
_cell_length_a     44.743303
_cell_length_b     44.809983
_cell_length_c     80.691401
_cell_angle_alpha  90.127985
_cell_angle_beta   90.006354
_cell_angle_gamma 120.01716
loop_
_atom_site_label
_atom_site_type_symbol
_atom_site_fract_x
_atom_site_fract_y
_atom_site_fract_z
_atom_type_partial_charge
Dy0 Dy 0.05618 0.4982 0.16628 0.0
C1 C 0.97279 0.56025 0.18467 0.0
C2 C 0.10408 0.48016 0.15864 0.0
Dy3 Dy 0.01221 0.53586 0.17135 0.0
O4 O 0.10371 0.49604 0.17203 0.0
O5 O 0.07775 0.47357 0.14925 0.0
O6 O 0.0394 0.47477 0.1915 0.0
O7 O 0.04443 0.52308 0.18645 0.0
C8 C 0.03461 0.49933 0.197 0.0
C9 C 0.01905 0.52558 0.13884 0.0
O10 O 0.06611 0.58006 0.17522 0.0
O11 O 0.09535 0.55476 0.16299 0.0
O12 O 0.9948 0.57483 0.17267 0.0
O13 O 0.97276 0.5326 0.18954 0.0
O14 O 1.00189 0.54003 0.14411 0.0
O15 O 0.03052 0.51787 0.15127 0.0
O16 O 1.00258 0.4533 0.16239 0.0
O17 O 0.97275 0.47933 0.17335 0.0
C18 C 0.09472 0.58198 0.16922 0.0
C19 C 0.97376 0.45174 0.16794 0.0
Dy20 Dy 0.48348 0.03145 0.49783 0.0
C21 C 0.62747 0.11132 0.51889 0.0
C22 C 0.41719 0.98508 0.48956 0.0
Dy23 Dy 0.56497 0.07242 0.50412 0.0
O24 O 0.43039 0.98971 0.50429 0.0
O25 O 0.44018 0.00648 0.47916 0.0
O26 O 0.47738 0.05057 0.52265 0.0
O27 O 0.51855 0.04144 0.51848 0.0
C28 C 0.50541 0.05287 0.52867 0.0
C29 C 0.55003 0.06608 0.4714 0.0
O30 O 0.55332 0.01801 0.50811 0.0
O31 O 0.49814 0.98989 0.49633 0.0
O32 O 0.62108 0.08917 0.50703 0.0
O33 O 0.59941 0.11149 0.5229 0.0
O34 O 0.58143 0.08212 0.47709 0.0
O35 O 0.53 0.0554 0.48356 0.0
O36 O 0.49478 0.08546 0.49293 0.0
O37 O 0.54951 0.11326 0.50524 0.0
C38 C 0.52567 0.98968 0.5025 0.0
C39 C 0.52214 0.11361 0.49895 0.0
Dy40 Dy 0.58487 0.59116 0.82882 0.0
C41 C 0.52488 0.44959 0.84714 0.0
C42 C 0.60705 0.65563 0.81665 0.0
Dy43 Dy 0.54664 0.51462 0.83578 0.0
O44 O 0.61659 0.64875 0.83061 0.0
O45 O 0.5856 0.62717 0.80914 0.0
O46 O 0.60967 0.60216 0.8539 0.0
O47 O 0.55978 0.55982 0.85062 0.0
C48 C 0.58458 0.57481 0.86061 0.0
C49 C 0.54763 0.53168 0.80386 0.0
O50 O 0.50454 0.52558 0.84272 0.0
O51 O 0.52865 0.57796 0.829 0.0
O52 O 0.51455 0.45707 0.83356 0.0
O53 O 0.54676 0.47774 0.85471 0.0
O54 O 0.52178 0.50528 0.81077 0.0
O55 O 0.57249 0.54605 0.81389 0.0
O56 O 0.62888 0.58137 0.82443 0.0
O57 O 0.60223 0.52738 0.83669 0.0
C58 C 0.50203 0.55161 0.83646 0.0
C59 C 0.63015 0.55459 0.83066 0.0
C60 C 0.53187 0.05774 0.28489 0.0
C61 C 0.52161 0.02879 0.29507 0.0
C62 C 0.53433 0.05525 0.26772 0.0
C63 C 0.52675 0.02378 0.2603 0.0
C64 C 0.51642 0.99482 0.2705 0.0
C65 C 0.51379 0.99727 0.28767 0.0
C66 C 0.52961 0.02118 0.24199 0.0
C67 C 0.55681 0.04783 0.23318 0.0
C68 C 0.55964 0.04616 0.21586 0.0
C69 C 0.53489 0.01618 0.20732 0.0
C70 C 0.50749 0.98869 0.21608 0.0
C71 C 0.50508 0.99203 0.23332 0.0
C72 C 0.48042 0.95629 0.20785 0.0
C73 C 0.46357 0.95695 0.19323 0.0
C74 C 0.46841 0.92438 0.21587 0.0
C75 C 0.43897 0.89468 0.21026 0.0
C76 C 0.4209 0.89567 0.19625 0.0
C77 C 0.58892 0.07633 0.20731 0.0
C78 C 0.59801 0.11003 0.21217 0.0
C79 C 0.61013 0.07225 0.19574 0.0
C80 C 0.64053 0.10108 0.18986 0.0
C81 C 0.65044 0.13474 0.19538 0.0
C82 C 0.62826 0.13862 0.20643 0.0
C83 C 0.43416 0.92687 0.18744 0.0
H84 H 0.53763 0.08228 0.29019 0.0
H85 H 0.54177 0.07793 0.26024 0.0
H86 H 0.5109 0.97031 0.26526 0.0
H87 H 0.50629 0.97462 0.29519 0.0
H88 H 0.57639 0.06993 0.23993 0.0
H89 H 0.48337 0.97198 0.24005 0.0
H90 H 0.53689 0.01429 0.19403 0.0
H91 H 0.47199 0.98101 0.18676 0.0
H92 H 0.48113 0.92259 0.22693 0.0
H93 H 0.42986 0.87094 0.21713 0.0
H94 H 0.58214 0.11431 0.22091 0.0
H95 H 0.60402 0.04671 0.19175 0.0
H96 H 0.42081 0.9284 0.17657 0.0
H97 H 0.63477 0.16371 0.21126 0.0
H98 H 0.65646 0.09688 0.18115 0.0
C99 C 0.51925 0.56416 0.61906 0.0
C100 C 0.54504 0.55962 0.62656 0.0
C101 C 0.51568 0.56296 0.60184 0.0
C102 C 0.53769 0.557 0.59166 0.0
C103 C 0.56354 0.55248 0.59914 0.0
C104 C 0.56731 0.55397 0.61641 0.0
C105 C 0.53332 0.55542 0.57334 0.0
C106 C 0.52764 0.57974 0.56521 0.0
C107 C 0.52126 0.57782 0.54804 0.0
C108 C 0.52119 0.55077 0.53886 0.0
C109 C 0.52752 0.52639 0.54688 0.0
C110 C 0.5337 0.52914 0.56404 0.0
C111 C 0.52706 0.49706 0.53793 0.0
C112 C 0.49573 0.46836 0.533 0.0
C113 C 0.55737 0.49513 0.53687 0.0
C114 C 0.55631 0.46486 0.53145 0.0
C115 C 0.52474 0.43526 0.52729 0.0
C116 C 0.51518 0.60475 0.54028 0.0
C117 C 0.49593 0.61687 0.5489 0.0
C118 C 0.53125 0.62117 0.52535 0.0
C119 C 0.52981 0.65024 0.5198 0.0
C120 C 0.51255 0.6636 0.52915 0.0
C121 C 0.49494 0.64601 0.54352 0.0
C122 C 0.49454 0.4378 0.52779 0.0
H123 H 0.50187 0.56882 0.62653 0.0
H124 H 0.4953 0.56622 0.59648 0.0
H125 H 0.58101 0.54806 0.59162 0.0
H126 H 0.58724 0.55008 0.62183 0.0
H127 H 0.52875 0.60077 0.57237 0.0
H128 H 0.53773 0.51001 0.57025 0.0
H129 H 0.51612 0.54857 0.52565 0.0
H130 H 0.47188 0.46893 0.53403 0.0
H131 H 0.58183 0.5168 0.54075 0.0
H132 H 0.58033 0.46456 0.53087 0.0
H133 H 0.4824 0.60443 0.5602 0.0
H134 H 0.54635 0.61267 0.5184 0.0
H135 H 0.46963 0.41572 0.5249 0.0
H136 H 0.48085 0.65522 0.55082 0.0
H137 H 0.54357 0.66324 0.50864 0.0
C138 C 0.08459 0.55031 0.95513 0.0
C139 C 0.05324 0.52693 0.96273 0.0
C140 C 0.08651 0.55488 0.93794 0.0
C141 C 0.05717 0.53598 0.92789 0.0
C142 C 0.02585 0.51242 0.93552 0.0
C143 C 0.02389 0.50804 0.95273 0.0
C144 C 0.05928 0.54079 0.90955 0.0
C145 C 0.0884 0.54548 0.90084 0.0
C146 C 0.09136 0.55075 0.88359 0.0
C147 C 0.06364 0.55024 0.87483 0.0
C148 C 0.03371 0.54499 0.88339 0.0
C149 C 0.03228 0.54078 0.90072 0.0
C150 C 1.00349 0.54409 0.87485 0.0
C151 C 0.00762 0.5697 0.8635 0.0
C152 C 0.96973 0.51929 0.87956 0.0
C153 C 0.94114 0.5212 0.87397 0.0
C154 C 0.94524 0.54785 0.86338 0.0
C155 C 0.12374 0.55621 0.87535 0.0
C156 C 0.15585 0.57751 0.88303 0.0
C157 C 0.12292 0.53732 0.86121 0.0
C158 C 0.15314 0.53807 0.85562 0.0
C159 C 0.18467 0.55753 0.86413 0.0
C160 C 0.18574 0.57798 0.87758 0.0
C161 C 0.97879 0.57153 0.8578 0.0
H162 H 0.10754 0.56562 0.96252 0.0
H163 H 0.11093 0.57367 0.93256 0.0
H164 H 1.00287 0.49698 0.92818 0.0
H165 H 0.99944 0.48951 0.95819 0.0
H166 H 0.1088 0.54433 0.90754 0.0
H167 H 0.01016 0.5382 0.90746 0.0
H168 H 0.06533 0.55387 0.86152 0.0
H169 H 0.03321 0.5893 0.85967 0.0
H170 H 0.96544 0.49878 0.88802 0.0
H171 H 0.91571 0.50197 0.87819 0.0
H172 H 0.15764 0.59295 0.89374 0.0
H173 H 0.09866 0.52056 0.85504 0.0
H174 H 0.98294 0.59238 0.84963 0.0
H175 H 0.20969 0.59385 0.88419 0.0
H176 H 0.15149 0.52209 0.84518 0.0
C177 C 0.95634 0.50722 0.3793 0.0
C178 C 0.98061 0.50573 0.36882 0.0
C179 C 0.96212 0.5113 0.39641 0.0
C180 C 0.99258 0.51469 0.40319 0.0
C181 C 0.01673 0.51305 0.3927 0.0
C182 C 0.01066 0.5083 0.37568 0.0
C183 C 0.99986 0.52108 0.4211 0.0
C184 C 0.9762 0.49881 0.43283 0.0
C185 C 0.9834 0.50456 0.44988 0.0
C186 C 0.01451 0.53339 0.45508 0.0
C187 C 0.03832 0.55612 0.4434 0.0
C188 C 0.03079 0.54956 0.42644 0.0
C189 C 0.07057 0.58739 0.44871 0.0
C190 C 0.07013 0.60828 0.46162 0.0
C191 C 0.10162 0.59778 0.44016 0.0
C192 C 0.13112 0.62908 0.44391 0.0
C193 C 0.13031 0.65062 0.45635 0.0
C194 C 0.9587 0.47983 0.46212 0.0
C195 C 0.92301 0.46594 0.45992 0.0
C196 C 0.97043 0.46856 0.47558 0.0
C197 C 0.94692 0.44301 0.48623 0.0
C198 C 0.91119 0.42825 0.48366 0.0
C199 C 0.89955 0.44044 0.47054 0.0
C200 C 0.09973 0.63958 0.46542 0.0
H201 H 0.93298 0.50524 0.37426 0.0
H202 H 0.94324 0.51267 0.4043 0.0
H203 H 0.04035 0.5155 0.39769 0.0
H204 H 0.02988 0.50752 0.36781 0.0
H205 H 0.95265 0.47637 0.42861 0.0
H206 H 0.04858 0.56722 0.4173 0.0
H207 H 0.02017 0.53816 0.46819 0.0
H208 H 0.04654 0.60116 0.46833 0.0
H209 H 0.10297 0.58191 0.43037 0.0
H210 H 0.15451 0.63663 0.43693 0.0
H211 H 0.91317 0.47441 0.44981 0.0
H212 H 0.99778 0.47862 0.47755 0.0
H213 H 0.09827 0.65578 0.47499 0.0
H214 H 0.87224 0.42939 0.46806 0.0
H215 H 0.95671 0.43443 0.49632 0.0
C216 C 0.55125 0.05301 0.71029 0.0
C217 C 0.56634 0.08549 0.70273 0.0
C218 C 0.55232 0.05025 0.72746 0.0
C219 C 0.56909 0.07995 0.73745 0.0
C220 C 0.58378 0.11251 0.72984 0.0
C221 C 0.58217 0.11524 0.71264 0.0
C222 C 0.57206 0.07685 0.75566 0.0
C223 C 0.5771 0.05064 0.76207 0.0
C224 C 0.57994 0.0473 0.77917 0.0
C225 C 0.57879 0.07116 0.79007 0.0
C226 C 0.57364 0.09764 0.78393 0.0
C227 C 0.56995 0.09996 0.76672 0.0
C228 C 0.57102 0.1224 0.79531 0.0
C229 C 0.55319 0.11142 0.81047 0.0
C230 C 0.58476 0.15704 0.7906 0.0
C231 C 0.57911 0.17956 0.80027 0.0
C232 C 0.56015 0.16818 0.81502 0.0
C233 C 0.58361 0.01829 0.78536 0.0
C234 C 0.56027 0.98463 0.78006 0.0
C235 C 0.61153 0.02412 0.7955 0.0
C236 C 0.61679 0.99678 0.79967 0.0
C237 C 0.59389 0.96321 0.79398 0.0
C238 C 0.56525 0.95733 0.78439 0.0
C239 C 0.54799 0.13422 0.8203 0.0
H240 H 0.53841 0.02971 0.70289 0.0
H241 H 0.53994 0.02476 0.73288 0.0
H242 H 0.59728 0.13594 0.7371 0.0
H243 H 0.59411 0.14057 0.70704 0.0
H244 H 0.57943 0.03291 0.75373 0.0
H245 H 0.56451 0.11931 0.76191 0.0
H246 H 0.58156 0.06883 0.80327 0.0
H247 H 0.54202 0.08489 0.81443 0.0
H248 H 0.5994 0.16666 0.77926 0.0
H249 H 0.58912 0.20583 0.79609 0.0
H250 H 0.53848 0.97955 0.77227 0.0
H251 H 0.62991 0.04993 0.79966 0.0
H252 H 0.53317 0.12492 0.83162 0.0
H253 H 0.54735 0.9318 0.77972 0.0
H254 H 0.63894 1.00191 0.80718 0.0
C255 C 0.57764 0.4949 0.04378 0.0
C256 C 0.57468 0.52031 0.035 0.0
C257 C 0.57275 0.49196 0.06092 0.0
C258 C 0.56413 0.51394 0.06947 0.0
C259 C 0.56149 0.53956 0.06072 0.0
C260 C 0.56706 0.54294 0.04363 0.0
C261 C 0.55623 0.50887 0.08736 0.0
C262 C 0.57959 0.50762 0.0985 0.0
C263 C 0.57139 0.50074 0.11545 0.0
C264 C 0.53897 0.49468 0.12097 0.0
C265 C 0.51598 0.4969 0.10994 0.0
C266 C 0.52475 0.5042 0.09321 0.0
C267 C 0.48264 0.49179 0.11576 0.0
C268 C 0.45595 0.45879 0.12 0.0
C269 C 0.47682 0.51974 0.11612 0.0
C270 C 0.44451 0.51473 0.12057 0.0
C271 C 0.41742 0.48158 0.12439 0.0
C272 C 0.59707 0.50094 0.1273 0.0
C273 C 0.62045 0.49053 0.12211 0.0
C274 C 0.59959 0.51303 0.14365 0.0
C275 C 0.62531 0.51544 0.15434 0.0
C276 C 0.64977 0.50663 0.14885 0.0
C277 C 0.64671 0.49389 0.13259 0.0
C278 C 0.42337 0.45364 0.12415 0.0
H279 H 0.58357 0.47724 0.03735 0.0
H280 H 0.57467 0.47186 0.06743 0.0
H281 H 0.55492 0.5568 0.0671 0.0
H282 H 0.56443 0.56257 0.03707 0.0
H283 H 0.6045 0.51287 0.0939 0.0
H284 H 0.50657 0.50525 0.08467 0.0
H285 H 0.53152 0.48849 0.13383 0.0
H286 H 0.46008 0.43694 0.11967 0.0
H287 H 0.49718 0.54534 0.11278 0.0
H288 H 0.44038 0.53659 0.12053 0.0
H289 H 0.61895 0.48023 0.1098 0.0
H290 H 0.58235 0.52163 0.14813 0.0
H291 H 0.4028 0.42789 0.1271 0.0
H292 H 0.66518 0.48736 0.12763 0.0
H293 H 0.62618 0.52467 0.16683 0.0
H294 H 0.10936 0.44507 0.13189 0.0
H295 H 0.1597 0.43937 0.12442 0.0
H296 H 0.21302 0.4969 0.16817 0.0
H297 H 0.16318 0.50215 0.17579 0.0
H298 H 0.24932 0.52205 0.13725 0.0
H299 H 0.18481 0.41668 0.16911 0.0
H300 H 0.13382 0.3601 0.17506 0.0
H301 H 0.14221 0.32312 0.12713 0.0
H302 H 0.193 0.37969 0.12081 0.0
H303 H 0.40036 0.51529 0.14717 0.0
H304 H 0.34377 0.50983 0.15159 0.0
H305 H 0.30028 0.43165 0.11348 0.0
H306 H 0.35675 0.43616 0.10953 0.0
H307 H 0.25602 0.41483 0.13749 0.0
H308 H 0.3232 0.51703 0.10619 0.0
H309 H 0.37316 0.57354 0.09913 0.0
H310 H 0.35841 0.61718 0.14367 0.0
H311 H 0.30874 0.56079 0.15117 0.0
C312 C 0.13173 0.45607 0.13996 0.0
C313 C 0.13252 0.47406 0.15438 0.0
C314 C 0.16031 0.45279 0.13571 0.0
C315 C 0.18991 0.4678 0.14577 0.0
C316 C 0.19037 0.48522 0.16027 0.0
C317 C 0.16185 0.48811 0.16461 0.0
C318 C 0.2214 0.4672 0.14099 0.0
C319 C 0.25096 0.49869 0.13736 0.0
C320 C 0.22291 0.43648 0.14061 0.0
C321 C 0.1924 0.40254 0.14441 0.0
C322 C 0.17555 0.3966 0.15977 0.0
C323 C 0.14674 0.36451 0.16323 0.0
C324 C 0.1347 0.33807 0.15145 0.0
C325 C 0.15151 0.34365 0.13622 0.0
C326 C 0.18032 0.37571 0.1327 0.0
C327 C 0.3786 0.49678 0.13986 0.0
C328 C 0.38276 0.47628 0.12796 0.0
C329 C 0.34637 0.49379 0.1423 0.0
C330 C 0.31797 0.47096 0.13255 0.0
C331 C 0.32186 0.44957 0.12106 0.0
C332 C 0.35403 0.45212 0.11883 0.0
C333 C 0.28451 0.47 0.13421 0.0
C334 C 0.25449 0.43823 0.13715 0.0
C335 C 0.28243 0.50052 0.13377 0.0
C336 C 0.3124 0.53454 0.12931 0.0
C337 C 0.33078 0.53859 0.11455 0.0
C338 C 0.35904 0.57063 0.11047 0.0
C339 C 0.36901 0.59891 0.12096 0.0
C340 C 0.3507 0.59524 0.13556 0.0
C341 C 0.32248 0.56324 0.13974 0.0
H342 H 0.39088 0.62369 0.11777 0.0
H343 H 0.1124 0.31324 0.15415 0.0
H344 H 0.64487 0.16046 0.54274 0.0
H345 H 0.69932 0.21537 0.54425 0.0
H346 H 0.74222 0.18026 0.50622 0.0
H347 H 0.68825 0.12518 0.50485 0.0
H348 H 0.78176 0.24065 0.5434 0.0
H349 H 0.74855 0.23622 0.47579 0.0
H350 H 0.69798 0.20705 0.45724 0.0
H351 H 0.6324 0.20768 0.49593 0.0
H352 H 0.68269 0.23737 0.51457 0.0
H353 H 0.9163 0.37305 0.49441 0.0
H354 H 0.87154 0.32072 0.50766 0.0
H355 H 0.80385 0.3633 0.50855 0.0
H356 H 0.84873 0.41607 0.4956 0.0
H357 H 0.77484 0.301 0.49325 0.0
H358 H 0.83347 0.35019 0.54423 0.0
H359 H 0.88328 0.37783 0.56322 0.0
H360 H 0.89753 0.29018 0.55919 0.0
H361 H 0.84809 0.2622 0.53998 0.0
C362 C 0.66645 0.16391 0.53524 0.0
C363 C 0.6623 0.1389 0.5235 0.0
C364 C 0.69754 0.19519 0.53618 0.0
C365 C 0.72451 0.20178 0.52525 0.0
C366 C 0.72164 0.17545 0.51478 0.0
C367 C 0.69076 0.14406 0.51398 0.0
C368 C 0.75169 0.23762 0.52201 0.0
C369 C 0.78043 0.25405 0.5325 0.0
C370 C 0.74936 0.25503 0.50793 0.0
C371 C 0.71927 0.23867 0.49659 0.0
C372 C 0.72336 0.23032 0.48028 0.0
C373 C 0.69476 0.21368 0.46976 0.0
C374 C 0.66198 0.20541 0.47542 0.0
C375 C 0.65777 0.21399 0.49158 0.0
C376 C 0.68631 0.23071 0.50212 0.0
C377 C 0.89229 0.37175 0.49786 0.0
C378 C 0.88599 0.39865 0.49381 0.0
C379 C 0.8667 0.34176 0.50541 0.0
C380 C 0.8344 0.33816 0.50908 0.0
C381 C 0.82859 0.36556 0.50576 0.0
C382 C 0.85419 0.3956 0.49828 0.0
C383 C 0.80554 0.30451 0.51458 0.0
C384 C 0.77633 0.28814 0.50434 0.0
C385 C 0.8075 0.28751 0.52898 0.0
C386 C 0.83722 0.30421 0.54055 0.0
C387 C 0.84739 0.33692 0.54728 0.0
C388 C 0.87553 0.35263 0.55811 0.0
C389 C 0.8936 0.3358 0.56238 0.0
C390 C 0.88352 0.3032 0.55586 0.0
C391 C 0.85541 0.28738 0.54502 0.0
H392 H 0.91538 0.34801 0.57077 0.0
H393 H 0.63985 0.19241 0.46728 0.0
H394 H 0.5782 0.67302 0.79143 0.0
H395 H 0.58437 0.72974 0.78637 0.0
H396 H 0.65914 0.77288 0.82596 0.0
H397 H 0.65268 0.71623 0.83115 0.0
H398 H 0.60903 0.78734 0.83017 0.0
H399 H 0.68282 0.79444 0.78544 0.0
H400 H 0.69877 0.77472 0.76013 0.0
H401 H 0.61534 0.7744 0.73368 0.0
H402 H 0.59857 0.79365 0.75889 0.0
H403 H 0.65446 0.96312 0.79027 0.0
H404 H 0.66413 0.91419 0.79363 0.0
H405 H 0.55767 0.84961 0.80785 0.0
H406 H 0.54792 0.89838 0.80462 0.0
H407 H 0.63105 0.8504 0.77702 0.0
H408 H 0.55558 0.79503 0.83792 0.0
H409 H 0.54102 0.81555 0.86339 0.0
H410 H 0.63251 0.91442 0.85801 0.0
H411 H 0.64787 0.89434 0.83264 0.0
C412 C 0.59652 0.69483 0.79876 0.0
C413 C 0.61488 0.69036 0.81169 0.0
C414 C 0.60006 0.7272 0.79587 0.0
C415 C 0.62222 0.75553 0.80581 0.0
C416 C 0.64182 0.75133 0.81819 0.0
C417 C 0.63819 0.71902 0.82111 0.0
C418 C 0.62253 0.78865 0.80442 0.0
C419 C 0.61407 0.80121 0.81856 0.0
C420 C 0.62923 0.8068 0.7893 0.0
C421 C 0.63934 0.79533 0.77409 0.0
C422 C 0.66773 0.78995 0.77426 0.0
C423 C 0.67696 0.77893 0.75992 0.0
C424 C 0.65813 0.77339 0.7453 0.0
C425 C 0.62997 0.7788 0.745 0.0
C426 C 0.62062 0.7898 0.75931 0.0
C427 C 0.63329 0.93859 0.79434 0.0
C428 C 0.60047 0.93451 0.79724 0.0
C429 C 0.63876 0.91066 0.79609 0.0
C430 C 0.61163 0.87839 0.80099 0.0
C431 C 0.57898 0.87439 0.80414 0.0
C432 C 0.57343 0.90219 0.80225 0.0
C433 C 0.61717 0.84866 0.80271 0.0
C434 C 0.62643 0.83664 0.78864 0.0
C435 C 0.61143 0.83104 0.81792 0.0
C436 C 0.6027 0.84324 0.8333 0.0
C437 C 0.57267 0.8211 0.84221 0.0
C438 C 0.56427 0.83266 0.85663 0.0
C439 C 0.58578 0.8663 0.86229 0.0
C440 C 0.61581 0.88841 0.85358 0.0
C441 C 0.62435 0.87697 0.83917 0.0
H442 H 0.57921 0.87521 0.87344 0.0
H443 H 0.6653 0.76484 0.73422 0.0
H444 H 0.93157 0.54017 0.21202 0.0
H445 H 0.8771 0.54024 0.21498 0.0
H446 H 0.89639 0.59443 0.16849 0.0
H447 H 0.95164 0.59661 0.16621 0.0
H448 H 0.85865 0.60956 0.18484 0.0
H449 H 0.85172 0.50194 0.17092 0.0
H450 H 0.86248 0.45359 0.17491 0.0
H451 H 0.80857 0.42946 0.22135 0.0
H452 H 0.79745 0.47779 0.21759 0.0
H453 H 0.68373 0.46967 0.14935 0.0
H454 H 0.73805 0.48541 0.16265 0.0
H455 H 0.7355 0.56898 0.1881 0.0
H456 H 0.68345 0.55637 0.173 0.0
H457 H 0.76336 0.48853 0.18944 0.0
H458 H 0.81533 0.63469 0.19578 0.0
H459 H 0.80813 0.68067 0.18293 0.0
H460 H 0.77664 0.62357 0.1373 0.0
H461 H 0.78402 0.57748 0.14983 0.0
C462 C 0.92464 0.55322 0.2028 0.0
C463 C 0.94536 0.56792 0.18877 0.0
C464 C 0.89344 0.55303 0.20442 0.0
C465 C 0.88197 0.56621 0.19166 0.0
C466 C 0.90441 0.58387 0.17848 0.0
C467 C 0.93603 0.58503 0.17713 0.0
C468 C 0.84527 0.55741 0.19057 0.0
C469 C 0.83773 0.58316 0.18604 0.0
C470 C 0.81792 0.52286 0.19176 0.0
C471 C 0.82419 0.49366 0.19409 0.0
C472 C 0.8423 0.48638 0.18201 0.0
C473 C 0.84846 0.45901 0.18423 0.0
C474 C 0.83646 0.43862 0.19843 0.0
C475 C 0.81798 0.44538 0.21039 0.0
C476 C 0.81168 0.47271 0.20821 0.0
C477 C 0.69489 0.49188 0.15749 0.0
C478 C 0.67947 0.51237 0.15953 0.0
C479 C 0.72582 0.50047 0.16543 0.0
C480 C 0.74162 0.52904 0.17613 0.0
C481 C 0.72459 0.54755 0.17948 0.0
C482 C 0.69427 0.53981 0.17101 0.0
C483 C 0.77683 0.54034 0.18269 0.0
C484 C 0.78403 0.51511 0.18857 0.0
C485 C 0.80421 0.57493 0.18146 0.0
C486 C 0.79971 0.60247 0.17383 0.0
C487 C 0.80688 0.632 0.18301 0.0
C488 C 0.80278 0.65806 0.17578 0.0
C489 C 0.79177 0.65496 0.15933 0.0
C490 C 0.785 0.62587 0.15006 0.0
C491 C 0.78912 0.59977 0.15722 0.0
H492 H 0.7886 0.67516 0.15377 0.0
H493 H 0.8414 0.41756 0.20013 0.0
H494 H 0.3902 0.96221 0.45858 0.0
H495 H 0.33887 0.90667 0.45184 0.0
H496 H 0.31786 0.88542 0.50398 0.0
H497 H 0.36877 0.9405 0.51074 0.0
H498 H 0.32242 0.83445 0.48736 0.0
H499 H 0.26564 0.90095 0.481 0.0
H500 H 0.25775 0.94757 0.46963 0.0
H501 H 0.25025 0.90749 0.42047 0.0
H502 H 0.25858 0.86086 0.43153 0.0
H503 H 0.15822 0.68186 0.48606 0.0
H504 H 0.2068 0.74018 0.49059 0.0
H505 H 0.21936 0.75579 0.43774 0.0
H506 H 0.17053 0.6978 0.43313 0.0
H507 H 0.22034 0.80988 0.45327 0.0
H508 H 0.2753 0.74273 0.45931 0.0
H509 H 0.2861 0.69751 0.47002 0.0
H510 H 0.29972 0.73972 0.51908 0.0
H511 H 0.28833 0.78482 0.50873 0.0
C512 C 0.37407 0.946 0.46854 0.0
C513 C 0.38343 0.95543 0.48516 0.0
C514 C 0.34486 0.91434 0.4647 0.0
C515 C 0.32477 0.89193 0.47744 0.0
C516 C 0.33317 0.90228 0.49399 0.0
C517 C 0.36217 0.93379 0.49782 0.0
C518 C 0.29683 0.8565 0.47372 0.0
C519 C 0.29981 0.82902 0.48011 0.0
C520 C 0.2681 0.84962 0.46375 0.0
C521 C 0.26313 0.87764 0.45708 0.0
C522 C 0.26264 0.90226 0.46775 0.0
C523 C 0.25802 0.92865 0.46136 0.0
C524 C 0.25361 0.93056 0.44433 0.0
C525 C 0.25373 0.90602 0.43365 0.0
C526 C 0.25837 0.87959 0.43998 0.0
C527 C 0.17137 0.69775 0.47542 0.0
C528 C 0.16067 0.68525 0.45924 0.0
C529 C 0.19923 0.73093 0.47802 0.0
C530 C 0.2168 0.75217 0.46449 0.0
C531 C 0.20619 0.73975 0.44834 0.0
C532 C 0.1785 0.70654 0.44573 0.0
C533 C 0.24559 0.78774 0.4672 0.0
C534 C 0.2429 0.81526 0.46055 0.0
C535 C 0.27474 0.79471 0.47689 0.0
C536 C 0.28049 0.76691 0.48326 0.0
C537 C 0.2801 0.74209 0.47242 0.0
C538 C 0.28644 0.71653 0.47842 0.0
C539 C 0.29347 0.71566 0.49523 0.0
C540 C 0.29414 0.74034 0.50608 0.0
C541 C 0.28772 0.76589 0.50014 0.0
H542 H 0.29849 0.69593 0.49984 0.0
H543 H 0.25002 0.951 0.43941 0.0
H544 H 0.54857 0.43028 0.87395 0.0
H545 H 0.5471 0.37522 0.87757 0.0
H546 H 0.48721 0.33686 0.83263 0.0
H547 H 0.48753 0.39102 0.82937 0.0
H548 H 0.46816 0.28596 0.85334 0.0
H549 H 0.57884 0.37995 0.83347 0.0
H550 H 0.63157 0.43687 0.83611 0.0
H551 H 0.65811 0.40446 0.88109 0.0
H552 H 0.60534 0.34744 0.87877 0.0
H553 H 0.52778 0.20056 0.80274 0.0
H554 H 0.51502 0.2411 0.81698 0.0
H555 H 0.56013 0.22907 0.86192 0.0
H556 H 0.57248 0.18768 0.84766 0.0
H557 H 0.58526 0.29983 0.8507 0.0
H558 H 0.47979 0.19841 0.8639 0.0
H559 H 0.4281 0.14205 0.85837 0.0
H560 H 0.39232 0.1889 0.82315 0.0
H561 H 0.44405 0.24547 0.82826 0.0
C562 C 0.53432 0.40967 0.86513 0.0
C563 C 0.51852 0.41493 0.85127 0.0
C564 C 0.53364 0.37833 0.86715 0.0
C565 C 0.51774 0.35218 0.85516 0.0
C566 C 0.49974 0.35663 0.84203 0.0
C567 C 0.50004 0.38768 0.84013 0.0
C568 C 0.52276 0.32185 0.85496 0.0
C569 C 0.49374 0.28894 0.85289 0.0
C570 C 0.55615 0.32556 0.85478 0.0
C571 C 0.588 0.35965 0.85606 0.0
C572 C 0.59586 0.38506 0.84396 0.0
C573 C 0.62574 0.41732 0.8454 0.0
C574 C 0.64809 0.42432 0.8588 0.0
C575 C 0.64071 0.39903 0.87074 0.0
C576 C 0.61084 0.36674 0.86937 0.0
C577 C 0.53473 0.20638 0.81569 0.0
C578 C 0.55121 0.19126 0.82413 0.0
C579 C 0.52726 0.22931 0.82383 0.0
C580 C 0.53642 0.23781 0.84051 0.0
C581 C 0.55271 0.22259 0.84906 0.0
C582 C 0.55967 0.19905 0.84096 0.0
C583 C 0.53072 0.26439 0.84836 0.0
C584 C 0.55963 0.2966 0.85181 0.0
C585 C 0.4973 0.26016 0.84947 0.0
C586 C 0.4659 0.22622 0.84645 0.0
C587 C 0.46101 0.19668 0.8549 0.0
C588 C 0.43168 0.16469 0.85185 0.0
C589 C 0.40695 0.16189 0.84041 0.0
C590 C 0.41148 0.19111 0.83202 0.0
C591 C 0.44078 0.22316 0.83502 0.0
H592 H 0.38426 0.13709 0.83807 0.0
H593 H 0.67119 0.4493 0.85992 0.0
H594 H 0.48792 0.93129 0.48383 0.0
H595 H 0.48564 0.87581 0.48631 0.0
H596 H 0.55717 0.91561 0.52732 0.0
H597 H 0.561 0.97164 0.5242 0.0
H598 H 0.57395 0.87957 0.51075 0.0
H599 H 0.46341 0.85715 0.53014 0.0
H600 H 0.40711 0.85462 0.52905 0.0
H601 H 0.377 0.7856 0.48746 0.0
H602 H 0.43343 0.78821 0.48809 0.0
H603 H 0.53143 0.71934 0.5491 0.0
H604 H 0.5335 0.77366 0.54245 0.0
H605 H 0.499 0.73735 0.49275 0.0
H606 H 0.49765 0.68294 0.49927 0.0
H607 H 0.46264 0.76934 0.51172 0.0
H608 H 0.57529 0.79168 0.49443 0.0
H609 H 0.63068 0.79314 0.49825 0.0
H610 H 0.65475 0.86167 0.53973 0.0
H611 H 0.59922 0.86019 0.53632 0.0
C612 C 0.50325 0.92823 0.49335 0.0
C613 C 0.52466 0.95599 0.50381 0.0
C614 C 0.5017 0.89627 0.49486 0.0
C615 C 0.52065 0.89084 0.50725 0.0
C616 C 0.54223 0.91876 0.51763 0.0
C617 C 0.54441 0.95093 0.51585 0.0
C618 C 0.51858 0.8565 0.50932 0.0
C619 C 0.54945 0.85565 0.51113 0.0
C620 C 0.48678 0.82473 0.50951 0.0
C621 C 0.45287 0.82325 0.50904 0.0
C622 C 0.44493 0.84169 0.52066 0.0
C623 C 0.41298 0.84021 0.52013 0.0
C624 C 0.38856 0.82008 0.50815 0.0
C625 C 0.396 0.80128 0.49669 0.0
C626 C 0.42798 0.80276 0.49713 0.0
C627 C 0.52428 0.7229 0.53674 0.0
C628 C 0.51432 0.69681 0.52471 0.0
C629 C 0.52552 0.75399 0.53296 0.0
C630 C 0.51632 0.7596 0.51712 0.0
C631 C 0.50611 0.73355 0.50507 0.0
C632 C 0.50555 0.70259 0.50876 0.0
C633 C 0.51783 0.79292 0.5133 0.0
C634 C 0.48695 0.79346 0.5112 0.0
C635 C 0.54946 0.82447 0.5132 0.0
C636 C 0.58295 0.82556 0.51521 0.0
C637 C 0.59225 0.80681 0.50446 0.0
C638 C 0.6237 0.80769 0.50654 0.0
C639 C 0.64619 0.82742 0.51925 0.0
C640 C 0.63729 0.84637 0.5299 0.0
C641 C 0.60585 0.84555 0.52789 0.0
H642 H 0.67053 0.82807 0.52084 0.0
H643 H 0.36385 0.81899 0.50776 0.0
H644 H 0.64069 0.50077 0.83766 0.0
H645 H 0.69546 0.50204 0.8414 0.0
H646 H 0.75078 0.61038 0.82977 0.0
H647 H 0.69587 0.60935 0.82591 0.0
H648 H 0.75062 0.51763 0.82173 0.0
H649 H 0.82398 0.64849 0.85595 0.0
H650 H 0.81114 0.68692 0.87263 0.0
H651 H 0.71444 0.6005 0.88756 0.0
H652 H 0.72713 0.56139 0.87139 0.0
H653 H 0.92763 0.5628 0.83294 0.0
H654 H 0.87611 0.56644 0.82589 0.0
H655 H 0.8421 0.54456 0.87665 0.0
H656 H 0.89343 0.54127 0.88378 0.0
H657 H 0.83218 0.59506 0.86463 0.0
H658 H 0.80689 0.48201 0.84748 0.0
H659 H 0.81669 0.43979 0.83234 0.0
H660 H 0.81228 0.48448 0.78604 0.0
H661 H 0.80291 0.52728 0.80093 0.0
C662 C 0.66444 0.52488 0.83573 0.0
C663 C 0.66371 0.55501 0.83151 0.0
C664 C 0.69583 0.52551 0.83785 0.0
C665 C 0.72739 0.55633 0.83604 0.0
C666 C 0.72683 0.5863 0.83139 0.0
C667 C 0.69536 0.58565 0.82911 0.0
C668 C 0.76059 0.55715 0.83971 0.0
C669 C 0.76858 0.53482 0.83101 0.0
C670 C 0.78388 0.57903 0.85204 0.0
C671 C 0.77636 0.60209 0.86226 0.0
C672 C 0.80009 0.63765 0.86288 0.0
C673 C 0.79285 0.65954 0.87227 0.0
C674 C 0.76197 0.64614 0.88113 0.0
C675 C 0.73836 0.6108 0.8807 0.0
C676 C 0.74557 0.58877 0.87143 0.0
C677 C 0.9093 0.55903 0.84262 0.0
C678 C 0.91462 0.55139 0.85891 0.0
C679 C 0.87972 0.56093 0.83856 0.0
C680 C 0.8549 0.5555 0.8507 0.0
C681 C 0.86068 0.54881 0.86703 0.0
C682 C 0.89 0.54662 0.87106 0.0
C683 C 0.8225 0.55593 0.84646 0.0
C684 C 0.81453 0.57832 0.85515 0.0
C685 C 0.79896 0.53374 0.8343 0.0
C686 C 0.80461 0.50808 0.82532 0.0
C687 C 0.80831 0.48301 0.83408 0.0
C688 C 0.81373 0.45895 0.82554 0.0
C689 C 0.81521 0.45952 0.80824 0.0
C690 C 0.81119 0.48412 0.79944 0.0
C691 C 0.80581 0.50827 0.80792 0.0
H692 H 0.81939 0.44086 0.80165 0.0
H693 H 0.75636 0.66314 0.88834 0.0
H694 H 0.15149 0.60545 0.14915 0.0
H695 H 0.20642 0.65949 0.15144 0.0
H696 H 0.16865 0.68702 0.19471 0.0
H697 H 0.113 0.63407 0.19175 0.0
H698 H 0.20333 0.74132 0.1791 0.0
H699 H 0.22876 0.65303 0.19453 0.0
H700 H 0.2313 0.59962 0.19112 0.0
H701 H 0.2959 0.6421 0.14832 0.0
H702 H 0.29331 0.69559 0.15132 0.0
H703 H 0.36592 0.85765 0.2164 0.0
H704 H 0.31115 0.80587 0.20956 0.0
H705 H 0.34504 0.81085 0.15914 0.0
H706 H 0.39993 0.86343 0.16587 0.0
H707 H 0.31431 0.7418 0.17636 0.0
H708 H 0.28997 0.83257 0.16341 0.0
H709 H 0.28822 0.88569 0.16933 0.0
H710 H 0.22219 0.83692 0.21109 0.0
H711 H 0.22397 0.78366 0.20557 0.0
C712 C 0.15486 0.62315 0.15909 0.0
C713 C 0.12781 0.61538 0.17027 0.0
C714 C 0.18651 0.65402 0.16051 0.0
C715 C 0.19244 0.67739 0.17352 0.0
C716 C 0.16513 0.66973 0.18455 0.0
C717 C 0.13318 0.63931 0.18286 0.0
C718 C 0.22677 0.7098 0.17566 0.0
C719 C 0.22744 0.74109 0.17866 0.0
C720 C 0.25876 0.71025 0.17482 0.0
C721 C 0.26051 0.67817 0.17304 0.0
C722 C 0.2433 0.65089 0.18432 0.0
C723 C 0.24477 0.62061 0.18247 0.0
C724 C 0.26365 0.61743 0.16948 0.0
C725 C 0.28121 0.64457 0.15835 0.0
C726 C 0.27976 0.67488 0.16012 0.0
C727 C 0.36173 0.84777 0.20384 0.0
C728 C 0.38732 0.86463 0.19168 0.0
C729 C 0.33037 0.81819 0.19994 0.0
C730 C 0.32393 0.80438 0.18385 0.0
C731 C 0.34945 0.82099 0.17165 0.0
C732 C 0.38069 0.85111 0.17548 0.0
C733 C 0.29041 0.77268 0.17994 0.0
C734 C 0.29002 0.74171 0.17666 0.0
C735 C 0.25865 0.7723 0.18089 0.0
C736 C 0.25736 0.80423 0.18416 0.0
C737 C 0.27532 0.83327 0.17394 0.0
C738 C 0.27428 0.86339 0.17721 0.0
C739 C 0.25518 0.86471 0.1906 0.0
C740 C 0.23701 0.83588 0.20073 0.0
C741 C 0.238 0.8057 0.19753 0.0
H742 H 0.2544 0.88805 0.19311 0.0
H743 H 0.26474 0.59396 0.16806 0.0
H744 H 0.57056 0.17457 0.51301 0.0
H745 H 0.56847 0.22751 0.51647 0.0
H746 H 0.47105 0.18174 0.49069 0.0
H747 H 0.47279 0.12816 0.48714 0.0
H748 H 0.51708 0.25133 0.48142 0.0
H749 H 0.47063 0.18562 0.53124 0.0
H750 H 0.47143 0.15189 0.55517 0.0
H751 H 0.56391 0.23981 0.57325 0.0
H752 H 0.56404 0.27391 0.54925 0.0
H753 H 0.48095 0.38345 0.5057 0.0
H754 H 0.4777 0.32828 0.50023 0.0
H755 H 0.56283 0.35584 0.53368 0.0
H756 H 0.56471 0.40981 0.54008 0.0
H757 H 0.51908 0.29274 0.5387 0.0
H758 H 0.56938 0.3575 0.48909 0.0
H759 H 0.5733 0.39181 0.46448 0.0
H760 H 0.47871 0.30771 0.44565 0.0
H761 H 0.47401 0.27303 0.47026 0.0
C762 C 0.54868 0.17559 0.50793 0.0
C763 C 0.5217 0.14674 0.49985 0.0
C764 C 0.54753 0.20603 0.50999 0.0
C765 C 0.51941 0.2086 0.50404 0.0
C766 C 0.49298 0.18038 0.49544 0.0
C767 C 0.49399 0.1497 0.49345 0.0
C768 C 0.51736 0.2404 0.50733 0.0
C769 C 0.51694 0.26013 0.49393 0.0
C770 C 0.51806 0.25242 0.52366 0.0
C771 C 0.51749 0.23226 0.53837 0.0
C772 C 0.49125 0.19772 0.54027 0.0
C773 C 0.49153 0.17853 0.55385 0.0
C774 C 0.51774 0.19367 0.5657 0.0
C775 C 0.54364 0.2281 0.56405 0.0
C776 C 0.54353 0.24739 0.55046 0.0
C777 C 0.49883 0.37777 0.51205 0.0
C778 C 0.52329 0.40168 0.52329 0.0
C779 C 0.49723 0.34619 0.50872 0.0
C780 C 0.5204 0.33776 0.51629 0.0
C781 C 0.54467 0.36148 0.52756 0.0
C782 C 0.54603 0.39281 0.53104 0.0
C783 C 0.51926 0.30424 0.51275 0.0
C784 C 0.51903 0.28403 0.52614 0.0
C785 C 0.51842 0.29203 0.4964 0.0
C786 C 0.52115 0.31283 0.48161 0.0
C787 C 0.54928 0.34643 0.47977 0.0
C788 C 0.55166 0.36592 0.46581 0.0
C789 C 0.52621 0.35199 0.45354 0.0
C790 C 0.49837 0.31849 0.45518 0.0
C791 C 0.49584 0.2989 0.46913 0.0
H792 H 0.52811 0.36711 0.44273 0.0
H793 H 0.51796 0.17875 0.57619 0.0
H794 H 0.45694 0.52692 0.8624 0.0
H795 H 0.40322 0.52786 0.86595 0.0
H796 H 0.41773 0.57596 0.81804 0.0
H797 H 0.47299 0.57746 0.81515 0.0
H798 H 0.39255 0.60272 0.83563 0.0
H799 H 0.35615 0.48379 0.82772 0.0
H800 H 0.3541 0.42847 0.83261 0.0
H801 H 0.31975 0.42655 0.88248 0.0
H802 H 0.32201 0.48207 0.87796 0.0
H803 H 0.21417 0.56267 0.83346 0.0
H804 H 0.26709 0.56082 0.82715 0.0
H805 H 0.27833 0.54472 0.87889 0.0
H806 H 0.226 0.54692 0.88524 0.0
H807 H 0.28801 0.50005 0.85723 0.0
H808 H 0.32657 0.6219 0.86347 0.0
H809 H 0.32639 0.67537 0.8565 0.0
H810 H 0.35338 0.66798 0.80619 0.0
H811 H 0.35324 0.61417 0.81283 0.0
C812 C 0.44863 0.53768 0.85263 0.0
C813 C 0.46912 0.55192 0.83845 0.0
C814 C 0.4176 0.53793 0.85458 0.0
C815 C 0.40537 0.55103 0.84206 0.0
C816 C 0.42614 0.56553 0.82792 0.0
C817 C 0.45778 0.56631 0.82623 0.0
C818 C 0.37145 0.55019 0.84386 0.0
C819 C 0.36965 0.57993 0.84007 0.0
C820 C 0.34113 0.52074 0.84979 0.0
C821 C 0.33953 0.48724 0.85253 0.0
C822 C 0.34835 0.47166 0.83975 0.0
C823 C 0.34713 0.44026 0.84246 0.0
C824 C 0.33687 0.42405 0.85786 0.0
C825 C 0.32772 0.43915 0.87057 0.0
C826 C 0.32892 0.47056 0.86793 0.0
C827 C 0.22788 0.55859 0.84345 0.0
C828 C 0.21599 0.55521 0.85987 0.0
C829 C 0.25819 0.55768 0.83985 0.0
C830 C 0.27688 0.55281 0.85257 0.0
C831 C 0.26449 0.54856 0.86887 0.0
C832 C 0.23464 0.55003 0.87249 0.0
C833 C 0.30954 0.55247 0.84909 0.0
C834 C 0.31099 0.52256 0.85261 0.0
C835 C 0.33921 0.58139 0.84254 0.0
C836 C 0.33952 0.61383 0.8386 0.0
C837 C 0.33218 0.63153 0.8509 0.0
C838 C 0.33219 0.66193 0.84701 0.0
C839 C 0.33977 0.67502 0.8309 0.0
C840 C 0.34746 0.65779 0.81866 0.0
C841 C 0.34743 0.62736 0.82248 0.0
H842 H 0.33977 0.69855 0.82792 0.0
H843 H 0.33597 0.39975 0.85993 0.0
H844 H 0.90903 0.43937 0.17568 0.0
H845 H 0.8563 0.38418 0.17922 0.0
H846 H 0.9113 0.33097 0.16693 0.0
H847 H 0.96435 0.3865 0.1629 0.0
H848 H 0.84932 0.29814 0.15331 0.0
H849 H 0.89166 0.3404 0.20693 0.0
H850 H 0.91364 0.38107 0.23042 0.0
H851 H 0.81729 0.37994 0.23326 0.0
H852 H 0.79507 0.34017 0.20941 0.0
H853 H 0.7132 0.13872 0.18905 0.0
H854 H 0.76878 0.19013 0.18304 0.0
H855 H 0.72079 0.25277 0.18516 0.0
H856 H 0.66496 0.20163 0.19034 0.0
H857 H 0.78177 0.278 0.20495 0.0
H858 H 0.74286 0.2375 0.14906 0.0
H859 H 0.72253 0.19453 0.1265 0.0
H860 H 0.81519 0.18867 0.13026 0.0
H861 H 0.83586 0.23127 0.15302 0.0
C862 C 0.91006 0.41602 0.17361 0.0
C863 C 0.94122 0.41762 0.16906 0.0
C864 C 0.87976 0.38432 0.17577 0.0
C865 C 0.87973 0.35315 0.17372 0.0
C866 C 0.91053 0.35454 0.16869 0.0
C867 C 0.94094 0.38639 0.1664 0.0
C868 C 0.84759 0.31941 0.17703 0.0
C869 C 0.8349 0.29364 0.16473 0.0
C870 C 0.82842 0.31324 0.19191 0.0
C871 C 0.84181 0.33753 0.2062 0.0
C872 C 0.87527 0.34915 0.2124 0.0
C873 C 0.88779 0.37206 0.22579 0.0
C874 C 0.86692 0.38319 0.23329 0.0
C875 C 0.83346 0.37137 0.22741 0.0
C876 C 0.82091 0.34869 0.21393 0.0
C877 C 0.71414 0.16323 0.18789 0.0
C878 C 0.68419 0.16565 0.19037 0.0
C879 C 0.74615 0.19274 0.18457 0.0
C880 C 0.74912 0.22546 0.18376 0.0
C881 C 0.71931 0.22793 0.1859 0.0
C882 C 0.68729 0.19848 0.18897 0.0
C883 C 0.78329 0.25734 0.1811 0.0
C884 C 0.79637 0.28264 0.19358 0.0
C885 C 0.8031 0.26279 0.16657 0.0
C886 C 0.79072 0.23727 0.15287 0.0
C887 C 0.75876 0.22681 0.14518 0.0
C888 C 0.7472 0.20257 0.13233 0.0
C889 C 0.7675 0.1888 0.12698 0.0
C890 C 0.79946 0.19931 0.13444 0.0
C891 C 0.81112 0.22352 0.14731 0.0
H892 H 0.75852 0.17005 0.11703 0.0
H893 H 0.87663 0.40087 0.24368 0.0
H894 H 0.98313 0.52933 0.11288 0.0
H895 H 0.99137 0.52283 0.08348 0.0
H896 H 0.07412 0.50345 0.0954 0.0
H897 H 0.06568 0.50974 0.12512 0.0
H898 H 0.0899 0.55331 0.06982 0.0
H899 H 1.00292 0.4383 0.08251 0.0
H900 H 0.94831 0.39299 0.09451 0.0
H901 H 0.89126 0.42461 0.06345 0.0
H902 H 0.94557 0.47049 0.05144 0.0
H903 H 0.09841 0.52101 0.98355 0.0
H904 H 0.09498 0.51496 0.01375 0.0
H905 H 0.99995 0.51773 0.01347 0.0
H906 H 1.00302 0.52324 0.98332 0.0
H907 H 0.99431 0.46979 0.03393 0.0
H908 H 0.07987 0.58895 0.02429 0.0
H909 H 0.13373 0.63649 0.01276 0.0
H910 H 0.19257 0.59906 0.03835 0.0
H911 H 0.13897 0.55102 0.04986 0.0
C912 C 1.00291 0.5234 0.10927 0.0
C913 C 0.02366 0.51983 0.12124 0.0
C914 C 0.00752 0.5196 0.09247 0.0
C915 C 0.03315 0.51237 0.08726 0.0
C916 C 0.05408 0.50886 0.09919 0.0
C917 C 0.04915 0.51225 0.11611 0.0
C918 C 0.03833 0.50974 0.06926 0.0
C919 C 0.06934 0.53456 0.06197 0.0
C920 C 0.01117 0.48574 0.05904 0.0
C921 C 0.97838 0.458 0.06614 0.0
C922 C 0.97875 0.43577 0.07832 0.0
C923 C 0.94784 0.40995 0.08511 0.0
C924 C 0.91634 0.40596 0.07977 0.0
C925 C 0.91568 0.42774 0.06758 0.0
C926 C 0.94653 0.45363 0.06076 0.0
C927 C 0.07686 0.52044 0.98996 0.0
C928 C 0.05102 0.52269 0.98105 0.0
C929 C 0.07493 0.51699 0.00722 0.0
C930 C 0.0474 0.51627 0.01595 0.0
C931 C 0.02139 0.5181 0.00704 0.0
C932 C 0.02314 0.52122 0.98979 0.0
C933 C 0.04561 0.51397 0.03437 0.0
C934 C 0.01517 0.4882 0.04175 0.0
C935 C 0.07319 0.5373 0.04466 0.0
C936 C 0.1054 0.56618 0.03777 0.0
C937 C 0.10428 0.59071 0.02735 0.0
C938 C 0.13475 0.61777 0.02083 0.0
C939 C 0.16654 0.62073 0.02477 0.0
C940 C 0.16792 0.59669 0.03528 0.0
C941 C 0.13751 0.56956 0.04181 0.0
H942 H 0.19011 0.6417 0.01972 0.0
H943 H 0.89243 0.38596 0.08505 0.0
H944 H 0.59076 0.10294 0.44591 0.0
H945 H 0.57758 0.09465 0.41631 0.0
H946 H 0.47569 0.01029 0.42711 0.0
H947 H 0.48886 0.01876 0.45696 0.0
H948 H 0.51229 0.99576 0.40229 0.0
H949 H 0.48042 0.08046 0.41408 0.0
H950 H 0.48778 0.13456 0.42584 0.0
H951 H 0.57713 0.19296 0.39537 0.0
H952 H 0.57063 0.13917 0.38361 0.0
H953 H 0.47098 0.98388 0.31611 0.0
H954 H 0.46848 0.98827 0.34627 0.0
H955 H 0.56531 0.08419 0.34552 0.0
H956 H 0.56774 0.08011 0.3154 0.0
H957 H 0.5221 0.08936 0.36589 0.0
H958 H 0.55914 0.00638 0.35688 0.0
H959 H 0.55484 0.95314 0.34564 0.0
H960 H 0.45882 0.89251 0.37119 0.0
H961 H 0.46234 0.94547 0.38241 0.0
C962 C 0.56543 0.08282 0.44199 0.0
C963 C 0.54068 0.06164 0.45368 0.0
C964 C 0.55791 0.07818 0.42509 0.0
C965 C 0.52557 0.05205 0.41952 0.0
C966 C 0.50072 0.03073 0.43118 0.0
C967 C 0.50814 0.03571 0.44818 0.0
C968 C 0.51869 0.04664 0.40146 0.0
C969 C 0.51363 0.01588 0.39433 0.0
C970 C 0.52129 0.07326 0.3911 0.0
C971 C 0.52516 0.10573 0.39804 0.0
C972 C 0.50179 0.10482 0.40997 0.0
C973 C 0.50579 0.13544 0.41663 0.0
C974 C 0.53294 0.16717 0.41137 0.0
C975 C 0.55611 0.16835 0.39943 0.0
C976 C 0.55226 0.1378 0.39275 0.0
C977 C 0.4918 0.00583 0.3224 0.0
C978 C 0.51962 0.03161 0.31337 0.0
C979 C 0.49033 0.00832 0.33964 0.0
C980 C 0.51689 0.03638 0.34822 0.0
C981 C 0.54444 0.06235 0.33919 0.0
C982 C 0.54579 0.06001 0.32196 0.0
C983 C 0.51643 0.03871 0.36661 0.0
C984 C 0.52017 0.06896 0.37383 0.0
C985 C 0.51293 0.01172 0.37704 0.0
C986 C 0.51079 0.97989 0.37031 0.0
C987 C 0.53697 0.98171 0.35999 0.0
C988 C 0.5347 0.95158 0.35364 0.0
C989 C 0.50652 0.91947 0.35765 0.0
C990 C 0.48059 0.91741 0.36806 0.0
C991 C 0.48272 0.94746 0.37443 0.0
H992 H 0.50481 0.89617 0.35273 0.0
H993 H 0.53599 0.19085 0.41654 0.0
H994 H 0.60373 0.57819 0.78593 0.0
H995 H 0.60679 0.58723 0.75584 0.0
H996 H 0.49845 0.51192 0.75162 0.0
H997 H 0.49554 0.50233 0.78149 0.0
H998 H 0.53349 0.49933 0.72953 0.0
H999 H 0.52957 0.60009 0.74702 0.0
H1000 H 0.54852 0.65379 0.76282 0.0
H1001 H 0.64846 0.69866 0.74006 0.0
H1002 H 0.6301 0.64514 0.72413 0.0
H1003 H 0.49299 0.5278 0.64907 0.0
H1004 H 0.49753 0.52759 0.67924 0.0
H1005 H 0.60814 0.5916 0.67591 0.0
H1006 H 0.60376 0.59218 0.64557 0.0
H1007 H 0.57743 0.61204 0.70147 0.0
H1008 H 0.57829 0.51078 0.68262 0.0
H1009 H 0.55712 0.45687 0.6667 0.0
H1010 H 0.46039 0.41253 0.69253 0.0
H1011 H 0.48081 0.46639 0.70843 0.0
C1012 C 0.58058 0.5638 0.77855 0.0
C1013 C 0.54945 0.53938 0.78599 0.0
C1014 C 0.58229 0.56908 0.76139 0.0
C1015 C 0.55281 0.55032 0.75144 0.0
C1016 C 0.52158 0.52657 0.75899 0.0
C1017 C 0.51992 0.52115 0.77607 0.0
C1018 C 0.55451 0.55392 0.73308 0.0
C1019 C 0.54276 0.52397 0.72344 0.0
C1020 C 0.56753 0.58617 0.72507 0.0
C1021 C 0.57858 0.61848 0.73452 0.0
C1022 C 0.55566 0.62134 0.74546 0.0
C1023 C 0.56627 0.65177 0.75441 0.0
C1024 C 0.59972 0.67958 0.7525 0.0
C1025 C 0.62257 0.67709 0.74154 0.0
C1026 C 0.61205 0.64674 0.73252 0.0
C1027 C 0.51827 0.54212 0.65474 0.0
C1028 C 0.54803 0.55996 0.64493 0.0
C1029 C 0.52084 0.54185 0.67198 0.0
C1030 C 0.55318 0.55944 0.6798 0.0
C1031 C 0.58294 0.57787 0.6701 0.0
C1032 C 0.58042 0.57792 0.6528 0.0
C1033 C 0.55568 0.55736 0.69806 0.0
C1034 C 0.56835 0.58751 0.70764 0.0
C1035 C 0.54325 0.52526 0.70608 0.0
C1036 C 0.53099 0.49274 0.69662 0.0
C1037 C 0.55241 0.48963 0.68482 0.0
C1038 C 0.54056 0.45906 0.67581 0.0
C1039 C 0.50741 0.43132 0.67858 0.0
C1040 C 0.48606 0.43406 0.69039 0.0
C1041 C 0.49777 0.46459 0.69941 0.0
H1042 H 0.49828 0.40767 0.67159 0.0
H1043 H 0.60789 0.70306 0.75949 0.0
H1044 H 0.55481 0.04577 0.54479 0.0
H1045 H 0.57139 0.05839 0.57399 0.0
H1046 H 0.50182 0.09807 0.57987 0.0
H1047 H 0.48478 0.08511 0.55067 0.0
H1048 H 0.56907 0.13693 0.59692 0.0
H1049 H 0.47153 0.02108 0.59043 0.0
H1050 H 0.44168 0.96303 0.57792 0.0
H1051 H 0.52237 0.94514 0.59483 0.0
H1052 H 0.55297 1.00334 0.60724 0.0
H1053 H 0.54395 0.12155 0.68437 0.0
H1054 H 0.53936 0.12212 0.65413 0.0
H1055 H 0.58421 0.05659 0.64996 0.0
H1056 H 0.58743 0.05491 0.68017 0.0
H1057 H 0.53142 0.0325 0.63136 0.0
H1058 H 0.62826 0.14524 0.63924 0.0
H1059 H 0.66139 0.20386 0.65092 0.0
H1060 H 0.58768 0.22894 0.63101 0.0
H1061 H 0.55381 0.17028 0.6194 0.0
C1062 C 0.5434 0.05759 0.55226 0.0
C1063 C 0.51817 0.06403 0.54563 0.0
C1064 C 0.55293 0.06483 0.56889 0.0
C1065 C 0.53756 0.07884 0.57904 0.0
C1066 C 0.51388 0.08721 0.57218 0.0
C1067 C 0.50404 0.07961 0.55559 0.0
C1068 C 0.54368 0.08157 0.59709 0.0
C1069 C 0.56064 0.11421 0.60455 0.0
C1070 C 0.53335 0.05185 0.60684 0.0
C1071 C 0.5147 0.01667 0.59961 0.0
C1072 C 0.48303 0.00486 0.59137 0.0
C1073 C 0.46596 0.97192 0.58432 0.0
C1074 C 0.48017 0.95044 0.58554 0.0
C1075 C 0.51142 0.96183 0.59387 0.0
C1076 C 0.52863 0.99477 0.60093 0.0
C1077 C 0.55311 0.10761 0.67693 0.0
C1078 C 0.56588 0.08807 0.6845 0.0
C1079 C 0.55067 0.10807 0.65967 0.0
C1080 C 0.56177 0.08968 0.64972 0.0
C1081 C 0.57537 0.07089 0.65735 0.0
C1082 C 0.57721 0.06992 0.67458 0.0
C1083 C 0.55721 0.08808 0.63145 0.0
C1084 C 0.54025 0.05547 0.62386 0.0
C1085 C 0.56804 0.11793 0.62161 0.0
C1086 C 0.5883 0.15322 0.6286 0.0
C1087 C 0.61894 0.16315 0.63747 0.0
C1088 C 0.63789 0.1964 0.64406 0.0
C1089 C 0.62659 0.22007 0.64175 0.0
C1090 C 0.59636 0.21056 0.63281 0.0
C1091 C 0.5773 0.17731 0.62622 0.0
H1092 H 0.64131 0.24581 0.64685 0.0
H1093 H 0.46692 0.92496 0.58006 0.0
H1094 H 0.6343 0.60836 0.88382 0.0
H1095 H 0.63293 0.59308 0.91293 0.0
H1096 H 0.53287 0.50268 0.90557 0.0
H1097 H 0.53359 0.51877 0.87651 0.0
H1098 H 0.53164 0.5332 0.93235 0.0
H1099 H 0.60726 0.49737 0.91133 0.0
H1100 H 0.65638 0.50047 0.89599 0.0
H1101 H 0.72724 0.58381 0.92714 0.0
H1102 H 0.67854 0.5816 0.94253 0.0
H1103 H 0.53951 0.46878 0.01273 0.0
H1104 H 0.54198 0.47304 0.98238 0.0
H1105 H 0.61995 0.58038 0.98603 0.0
H1106 H 0.61699 0.57645 0.01641 0.0
H1107 H 0.6304 0.53442 0.96102 0.0
H1108 H 0.5494 0.57066 0.97977 0.0
H1109 H 0.49807 0.56193 0.99519 0.0
H1110 H 0.43458 0.46935 0.9675 0.0
H1111 H 0.4857 0.47727 0.95209 0.0
C1112 C 0.61207 0.58517 0.88841 0.0
C1113 C 0.58404 0.56472 0.87798 0.0
C1114 C 0.61144 0.57628 0.90501 0.0
C1115 C 0.58303 0.54642 0.9114 0.0
C1116 C 0.5551 0.52577 0.9009 0.0
C1117 C 0.55556 0.5349 0.88432 0.0
C1118 C 0.58178 0.53801 0.92924 0.0
C1119 C 0.55301 0.53283 0.93851 0.0
C1120 C 0.60972 0.53771 0.93736 0.0
C1121 C 0.63918 0.53944 0.92804 0.0
C1122 C 0.6333 0.51656 0.91484 0.0
C1123 C 0.66108 0.5181 0.90615 0.0
C1124 C 0.6949 0.54223 0.91063 0.0
C1125 C 0.70102 0.56503 0.92374 0.0
C1126 C 0.67334 0.56363 0.93245 0.0
C1127 C 0.55743 0.49314 0.00701 0.0
C1128 C 0.57805 0.52233 0.01679 0.0
C1129 C 0.55878 0.49553 0.98975 0.0
C1130 C 0.58117 0.52699 0.98208 0.0
C1131 C 0.60265 0.55588 0.9918 0.0
C1132 C 0.60081 0.55368 0.00907 0.0
C1133 C 0.5807 0.53032 0.96392 0.0
C1134 C 0.60905 0.53449 0.95468 0.0
C1135 C 0.55212 0.52893 0.95574 0.0
C1136 C 0.52141 0.52432 0.96494 0.0
C1137 C 0.52455 0.54825 0.97709 0.0
C1138 C 0.49549 0.5435 0.98581 0.0
C1139 C 0.4631 0.51504 0.98237 0.0
C1140 C 0.45969 0.49134 0.97018 0.0
C1141 C 0.4887 0.49595 0.96145 0.0
H1142 H 0.44062 0.51141 0.98912 0.0
H1143 H 0.71637 0.54332 0.90393 0.0
H1144 H 0.02537 0.54991 0.21073 0.0
H1145 H 1.00455 0.55097 0.23867 0.0
H1146 H 0.99479 0.45186 0.24872 0.0
H1147 H 0.01355 0.44985 0.22055 0.0
H1148 H 0.94391 0.45417 0.26263 0.0
H1149 H 0.06761 0.53126 0.26039 0.0
H1150 H 0.12116 0.58064 0.24969 0.0
H1151 H 0.08382 0.64915 0.26272 0.0
H1152 H 0.02985 0.60006 0.27332 0.0
H1153 H 0.9839 0.45936 0.34818 0.0
H1154 H 0.98158 0.45827 0.31784 0.0
H1155 H 0.96492 0.54513 0.31821 0.0
H1156 H 0.96675 0.54599 0.34864 0.0
H1157 H 0.02145 0.55327 0.29842 0.0
H1158 H 0.90159 0.47358 0.30595 0.0
H1159 H 0.85055 0.4225 0.31731 0.0
H1160 H 0.8836 0.35663 0.29518 0.0
H1161 H 0.93518 0.40734 0.28392 0.0
C1162 C 0.01816 0.52812 0.21884 0.0
C1163 C 0.02108 0.49982 0.21355 0.0
C1164 C 1.00654 0.52886 0.23483 0.0
C1165 C 0.99867 0.50176 0.24591 0.0
C1166 C 1.00069 0.47307 0.24042 0.0
C1167 C 0.01168 0.47206 0.22436 0.0
C1168 C 0.99029 0.50386 0.26352 0.0
C1169 C 0.96094 0.47578 0.27047 0.0
C1170 C 0.01203 0.53244 0.27368 0.0
C1171 C 0.04457 0.56198 0.26746 0.0
C1172 C 0.07076 0.55683 0.26088 0.0
C1173 C 0.10118 0.58476 0.25484 0.0
C1174 C 0.10584 0.61799 0.25548 0.0
C1175 C 0.08014 0.62338 0.26221 0.0
C1176 C 0.04964 0.59553 0.26823 0.0
C1177 C 0.97922 0.47785 0.34177 0.0
C1178 C 0.97552 0.50277 0.35067 0.0
C1179 C 0.97772 0.47711 0.32449 0.0
C1180 C 0.9729 0.50151 0.31584 0.0
C1181 C 0.96845 0.52598 0.32471 0.0
C1182 C 0.96938 0.52637 0.34203 0.0
C1183 C 0.9757 0.50317 0.29757 0.0
C1184 C 1.00405 0.53197 0.29051 0.0
C1185 C 0.95344 0.47497 0.28741 0.0
C1186 C 0.92245 0.44435 0.2942 0.0
C1187 C 0.89818 0.44824 0.30364 0.0
C1188 C 0.8691 0.41933 0.31003 0.0
C1189 C 0.86387 0.38635 0.307 0.0
C1190 C 0.88769 0.3822 0.29753 0.0
C1191 C 0.91684 0.41102 0.29112 0.0
H1192 H 0.84133 0.364 0.31196 0.0
H1193 H 0.12941 0.63958 0.25079 0.0
loop_
_geom_bond_atom_site_label_1
_geom_bond_atom_site_label_2
_geom_bond_distance
_geom_bond_site_symmetry_2
_ccdc_geom_bond_type
Dy0 O4 2.398 . S
Dy0 O5 2.491 . S
Dy0 O6 2.403 . S
Dy0 O7 2.664 . S
Dy0 O11 2.326 . S
Dy0 O15 2.310 . S
Dy0 O16 2.351 . S
C1 O12 1.185 . S
C1 O13 1.355 . S
C2 O4 1.185 . S
C2 O5 1.355 . S
Dy3 O7 2.310 . S
Dy3 O10 2.351 . S
Dy3 O12 2.398 1_455 S
Dy3 O13 2.491 1_455 S
Dy3 O14 2.403 . S
Dy3 O15 2.664 . S
Dy3 O17 2.326 1_455 S
O4 Dy0 2.398 . S
O4 C2 1.185 . S
O5 Dy0 2.491 . S
O5 C2 1.355 . S
O6 Dy0 2.403 . S
O6 C8 1.254 . S
O7 Dy0 2.664 . S
O7 Dy3 2.310 . S
O7 C8 1.268 . S
C8 O6 1.254 . S
C8 O7 1.268 . S
C9 O14 1.254 . S
C9 O15 1.268 . S
O10 Dy3 2.351 . S
O10 C18 1.249 . S
O11 Dy0 2.326 . S
O11 C18 1.267 . S
O12 C1 1.185 . S
O12 Dy3 2.398 1_655 S
O13 C1 1.355 . S
O13 Dy3 2.491 1_655 S
O14 Dy3 2.403 . S
O14 C9 1.254 . S
O15 Dy0 2.310 . S
O15 Dy3 2.664 . S
O15 C9 1.268 . S
O16 Dy0 2.351 . S
O16 C19 1.249 1_455 S
O17 Dy3 2.326 1_655 S
O17 C19 1.267 . S
C18 O10 1.249 . S
C18 O11 1.267 . S
C19 O16 1.249 1_655 S
C19 O17 1.267 . S
Dy20 O24 2.398 1_545 S
Dy20 O25 2.491 1_545 S
Dy20 O26 2.403 . S
Dy20 O27 2.664 . S
Dy20 O31 2.326 1_545 S
Dy20 O35 2.310 . S
Dy20 O36 2.351 . S
C21 O32 1.185 . S
C21 O33 1.355 . S
C22 O24 1.185 . S
C22 O25 1.355 . S
Dy23 O27 2.310 . S
Dy23 O30 2.351 . S
Dy23 O32 2.398 . S
Dy23 O33 2.491 . S
Dy23 O34 2.403 . S
Dy23 O35 2.664 . S
Dy23 O37 2.326 . S
O24 Dy20 2.398 1_565 S
O24 C22 1.185 . S
O25 Dy20 2.491 1_565 S
O25 C22 1.355 . S
O26 Dy20 2.403 . S
O26 C28 1.254 . S
O27 Dy20 2.664 . S
O27 Dy23 2.310 . S
O27 C28 1.268 . S
C28 O26 1.254 . S
C28 O27 1.268 . S
C29 O34 1.254 . S
C29 O35 1.268 . S
O30 Dy23 2.351 . S
O30 C38 1.249 1_545 S
O31 Dy20 2.326 1_565 S
O31 C38 1.267 . S
O32 C21 1.185 . S
O32 Dy23 2.398 . S
O33 C21 1.355 . S
O33 Dy23 2.491 . S
O34 Dy23 2.403 . S
O34 C29 1.254 . S
O35 Dy20 2.310 . S
O35 Dy23 2.664 . S
O35 C29 1.268 . S
O36 Dy20 2.351 . S
O36 C39 1.249 . S
O37 Dy23 2.326 . S
O37 C39 1.267 . S
C38 O30 1.249 1_565 S
C38 O31 1.267 . S
C39 O36 1.249 . S
C39 O37 1.267 . S
Dy40 O44 2.398 . S
Dy40 O45 2.491 . S
Dy40 O46 2.403 . S
Dy40 O47 2.664 . S
Dy40 O51 2.326 . S
Dy40 O55 2.310 . S
Dy40 O56 2.351 . S
C41 O52 1.185 . S
C41 O53 1.355 . S
C42 O44 1.185 . S
C42 O45 1.355 . S
Dy43 O47 2.310 . S
Dy43 O50 2.351 . S
Dy43 O52 2.398 . S
Dy43 O53 2.491 . S
Dy43 O54 2.403 . S
Dy43 O55 2.664 . S
Dy43 O57 2.326 . S
O44 Dy40 2.398 . S
O44 C42 1.185 . S
O45 Dy40 2.491 . S
O45 C42 1.355 . S
O46 Dy40 2.403 . S
O46 C48 1.254 . S
O47 Dy40 2.664 . S
O47 Dy43 2.310 . S
O47 C48 1.268 . S
C48 O46 1.254 . S
C48 O47 1.268 . S
C49 O54 1.254 . S
C49 O55 1.268 . S
O50 Dy43 2.351 . S
O50 C58 1.249 . S
O51 Dy40 2.326 . S
O51 C58 1.267 . S
O52 C41 1.185 . S
O52 Dy43 2.398 . S
O53 C41 1.355 . S
O53 Dy43 2.491 . S
O54 Dy43 2.403 . S
O54 C49 1.254 . S
O55 Dy40 2.310 . S
O55 Dy43 2.664 . S
O55 C49 1.268 . S
O56 Dy40 2.351 . S
O56 C59 1.249 . S
O57 Dy43 2.326 . S
O57 C59 1.267 . S
C58 O50 1.249 . S
C58 O51 1.267 . S
C59 O56 1.249 . S
C59 O57 1.267 . S
C60 C61 1.386 . S
C60 C62 1.397 . S
C60 H84 0.931 . S
C61 C60 1.386 . S
C61 C65 1.397 1_545 S
C62 C60 1.397 . S
C62 C63 1.384 . S
C62 H85 0.930 . S
C63 C62 1.384 . S
C63 C64 1.377 1_545 S
C63 C66 1.481 . S
C64 C63 1.377 1_565 S
C64 C65 1.389 . S
C64 H86 0.929 . S
C65 C61 1.397 1_565 S
C65 C64 1.389 . S
C65 H87 0.931 . S
C66 C63 1.481 . S
C66 C67 1.387 . S
C66 C71 1.390 1_545 S
C67 C66 1.387 . S
C67 C68 1.401 . S
C67 H88 0.930 . S
C68 C67 1.401 . S
C68 C69 1.376 . S
C68 C77 1.511 . S
C69 C68 1.376 . S
C69 C70 1.392 1_545 S
C69 H90 0.931 . S
C70 C69 1.392 1_565 S
C70 C71 1.361 . S
C70 C72 1.500 . S
C71 C66 1.390 1_565 S
C71 C70 1.361 . S
C71 H89 0.931 . S
C72 C70 1.500 . S
C72 C73 1.371 . S
C72 C74 1.365 . S
C73 C72 1.371 . S
C73 C83 1.386 . S
C73 H91 0.931 . S
C74 C72 1.365 . S
C74 C75 1.409 . S
C74 H92 0.929 . S
C75 C74 1.409 . S
C75 C76 1.380 . S
C75 H93 0.930 . S
C76 C75 1.380 . S
C76 C83 1.357 . S
C77 C68 1.511 . S
C77 C78 1.341 . S
C77 C79 1.371 . S
C78 C77 1.341 . S
C78 C82 1.394 . S
C78 H94 0.930 . S
C79 C77 1.371 . S
C79 C80 1.392 . S
C79 H95 0.931 . S
C80 C79 1.392 . S
C80 C81 1.331 . S
C80 H98 0.932 . S
C81 C80 1.331 . S
C81 C82 1.336 . S
C82 C78 1.394 . S
C82 C81 1.336 . S
C82 H97 0.929 . S
C83 C73 1.386 . S
C83 C76 1.357 . S
C83 H96 0.928 . S
H84 C60 0.931 . S
H85 C62 0.930 . S
H86 C64 0.929 . S
H87 C65 0.931 . S
H88 C67 0.930 . S
H89 C71 0.931 . S
H90 C69 0.931 . S
H91 C73 0.931 . S
H92 C74 0.929 . S
H93 C75 0.930 . S
H94 C78 0.930 . S
H95 C79 0.931 . S
H96 C83 0.928 . S
H97 C82 0.929 . S
H98 C80 0.932 . S
C99 C100 1.386 . S
C99 C101 1.397 . S
C99 H123 0.931 . S
C100 C99 1.386 . S
C100 C104 1.397 . S
C101 C99 1.397 . S
C101 C102 1.384 . S
C101 H124 0.930 . S
C102 C101 1.384 . S
C102 C103 1.377 . S
C102 C105 1.481 . S
C103 C102 1.377 . S
C103 C104 1.389 . S
C103 H125 0.929 . S
C104 C100 1.397 . S
C104 C103 1.389 . S
C104 H126 0.931 . S
C105 C102 1.481 . S
C105 C106 1.387 . S
C105 C110 1.390 . S
C106 C105 1.387 . S
C106 C107 1.401 . S
C106 H127 0.930 . S
C107 C106 1.401 . S
C107 C108 1.376 . S
C107 C116 1.511 . S
C108 C107 1.376 . S
C108 C109 1.392 . S
C108 H129 0.931 . S
C109 C108 1.392 . S
C109 C110 1.361 . S
C109 C111 1.500 . S
C110 C105 1.390 . S
C110 C109 1.361 . S
C110 H128 0.931 . S
C111 C109 1.500 . S
C111 C112 1.371 . S
C111 C113 1.365 . S
C112 C111 1.371 . S
C112 C122 1.386 . S
C112 H130 0.931 . S
C113 C111 1.365 . S
C113 C114 1.409 . S
C113 H131 0.929 . S
C114 C113 1.409 . S
C114 C115 1.380 . S
C114 H132 0.930 . S
C115 C114 1.380 . S
C115 C122 1.357 . S
C116 C107 1.511 . S
C116 C117 1.341 . S
C116 C118 1.371 . S
C117 C116 1.341 . S
C117 C121 1.394 . S
C117 H133 0.930 . S
C118 C116 1.371 . S
C118 C119 1.392 . S
C118 H134 0.931 . S
C119 C118 1.392 . S
C119 C120 1.331 . S
C119 H137 0.932 . S
C120 C119 1.331 . S
C120 C121 1.336 . S
C121 C117 1.394 . S
C121 C120 1.336 . S
C121 H136 0.929 . S
C122 C112 1.386 . S
C122 C115 1.357 . S
C122 H135 0.928 . S
H123 C99 0.931 . S
H124 C101 0.930 . S
H125 C103 0.929 . S
H126 C104 0.931 . S
H127 C106 0.930 . S
H128 C110 0.931 . S
H129 C108 0.931 . S
H130 C112 0.931 . S
H131 C113 0.929 . S
H132 C114 0.930 . S
H133 C117 0.930 . S
H134 C118 0.931 . S
H135 C122 0.928 . S
H136 C121 0.929 . S
H137 C119 0.932 . S
C138 C139 1.386 . S
C138 C140 1.397 . S
C138 H162 0.931 . S
C139 C138 1.386 . S
C139 C143 1.397 . S
C140 C138 1.397 . S
C140 C141 1.384 . S
C140 H163 0.930 . S
C141 C140 1.384 . S
C141 C142 1.377 . S
C141 C144 1.481 . S
C142 C141 1.377 . S
C142 C143 1.389 . S
C142 H164 0.929 . S
C143 C139 1.397 . S
C143 C142 1.389 . S
C143 H165 0.931 . S
C144 C141 1.481 . S
C144 C145 1.387 . S
C144 C149 1.390 . S
C145 C144 1.387 . S
C145 C146 1.401 . S
C145 H166 0.930 . S
C146 C145 1.401 . S
C146 C147 1.376 . S
C146 C155 1.511 . S
C147 C146 1.376 . S
C147 C148 1.392 . S
C147 H168 0.931 . S
C148 C147 1.392 . S
C148 C149 1.361 . S
C148 C150 1.500 . S
C149 C144 1.390 . S
C149 C148 1.361 . S
C149 H167 0.931 . S
C150 C148 1.500 . S
C150 C151 1.371 . S
C150 C152 1.365 1_455 S
C151 C150 1.371 . S
C151 C161 1.386 1_455 S
C151 H169 0.931 . S
C152 C150 1.365 1_655 S
C152 C153 1.409 . S
C152 H170 0.929 . S
C153 C152 1.409 . S
C153 C154 1.380 . S
C153 H171 0.930 . S
C154 C153 1.380 . S
C154 C161 1.357 . S
C155 C146 1.511 . S
C155 C156 1.341 . S
C155 C157 1.371 . S
C156 C155 1.341 . S
C156 C160 1.394 . S
C156 H172 0.930 . S
C157 C155 1.371 . S
C157 C158 1.392 . S
C157 H173 0.931 . S
C158 C157 1.392 . S
C158 C159 1.331 . S
C158 H176 0.932 . S
C159 C158 1.331 . S
C159 C160 1.336 . S
C160 C156 1.394 . S
C160 C159 1.336 . S
C160 H175 0.929 . S
C161 C151 1.386 1_655 S
C161 C154 1.357 . S
C161 H174 0.928 . S
H162 C138 0.931 . S
H163 C140 0.930 . S
H164 C142 0.929 . S
H165 C143 0.931 . S
H166 C145 0.930 . S
H167 C149 0.931 . S
H168 C147 0.931 . S
H169 C151 0.931 . S
H170 C152 0.929 . S
H171 C153 0.930 . S
H172 C156 0.930 . S
H173 C157 0.931 . S
H174 C161 0.928 . S
H175 C160 0.929 . S
H176 C158 0.932 . S
C177 C178 1.386 1_655 S
C177 C179 1.397 . S
C177 H201 0.931 . S
C178 C177 1.386 1_455 S
C178 C182 1.397 . S
C179 C177 1.397 . S
C179 C180 1.384 1_655 S
C179 H202 0.930 . S
C180 C179 1.384 1_455 S
C180 C181 1.377 . S
C180 C183 1.481 . S
C181 C180 1.377 . S
C181 C182 1.389 . S
C181 H203 0.929 . S
C182 C178 1.397 . S
C182 C181 1.389 . S
C182 H204 0.931 . S
C183 C180 1.481 . S
C183 C184 1.387 1_455 S
C183 C188 1.390 . S
C184 C183 1.387 1_655 S
C184 C185 1.401 . S
C184 H205 0.930 . S
C185 C184 1.401 . S
C185 C186 1.376 1_655 S
C185 C194 1.511 . S
C186 C185 1.376 1_455 S
C186 C187 1.392 . S
C186 H207 0.931 . S
C187 C186 1.392 . S
C187 C188 1.361 . S
C187 C189 1.500 . S
C188 C183 1.390 . S
C188 C187 1.361 . S
C188 H206 0.931 . S
C189 C187 1.500 . S
C189 C190 1.371 . S
C189 C191 1.365 . S
C190 C189 1.371 . S
C190 C200 1.386 . S
C190 H208 0.931 . S
C191 C189 1.365 . S
C191 C192 1.409 . S
C191 H209 0.929 . S
C192 C191 1.409 . S
C192 C193 1.380 . S
C192 H210 0.930 . S
C193 C192 1.380 . S
C193 C200 1.357 . S
C194 C185 1.511 . S
C194 C195 1.341 . S
C194 C196 1.371 . S
C195 C194 1.341 . S
C195 C199 1.394 . S
C195 H211 0.930 . S
C196 C194 1.371 . S
C196 C197 1.392 . S
C196 H212 0.931 . S
C197 C196 1.392 . S
C197 C198 1.331 . S
C197 H215 0.932 . S
C198 C197 1.331 . S
C198 C199 1.336 . S
C199 C195 1.394 . S
C199 C198 1.336 . S
C199 H214 0.929 . S
C200 C190 1.386 . S
C200 C193 1.357 . S
C200 H213 0.928 . S
H201 C177 0.931 . S
H202 C179 0.930 . S
H203 C181 0.929 . S
H204 C182 0.931 . S
H205 C184 0.930 . S
H206 C188 0.931 . S
H207 C186 0.931 . S
H208 C190 0.931 . S
H209 C191 0.929 . S
H210 C192 0.930 . S
H211 C195 0.930 . S
H212 C196 0.931 . S
H213 C200 0.928 . S
H214 C199 0.929 . S
H215 C197 0.932 . S
C216 C217 1.386 . S
C216 C218 1.397 . S
C216 H240 0.931 . S
C217 C216 1.386 . S
C217 C221 1.397 . S
C218 C216 1.397 . S
C218 C219 1.384 . S
C218 H241 0.930 . S
C219 C218 1.384 . S
C219 C220 1.377 . S
C219 C222 1.481 . S
C220 C219 1.377 . S
C220 C221 1.389 . S
C220 H242 0.929 . S
C221 C217 1.397 . S
C221 C220 1.389 . S
C221 H243 0.931 . S
C222 C219 1.481 . S
C222 C223 1.387 . S
C222 C227 1.390 . S
C223 C222 1.387 . S
C223 C224 1.401 . S
C223 H244 0.930 . S
C224 C223 1.401 . S
C224 C225 1.376 . S
C224 C233 1.511 . S
C225 C224 1.376 . S
C225 C226 1.392 . S
C225 H246 0.931 . S
C226 C225 1.392 . S
C226 C227 1.361 . S
C226 C228 1.500 . S
C227 C222 1.390 . S
C227 C226 1.361 . S
C227 H245 0.931 . S
C228 C226 1.500 . S
C228 C229 1.371 . S
C228 C230 1.365 . S
C229 C228 1.371 . S
C229 C239 1.386 . S
C229 H247 0.931 . S
C230 C228 1.365 . S
C230 C231 1.409 . S
C230 H248 0.929 . S
C231 C230 1.409 . S
C231 C232 1.380 . S
C231 H249 0.930 . S
C232 C231 1.380 . S
C232 C239 1.357 . S
C233 C224 1.511 . S
C233 C234 1.341 1_545 S
C233 C235 1.371 . S
C234 C233 1.341 1_565 S
C234 C238 1.394 . S
C234 H250 0.930 . S
C235 C233 1.371 . S
C235 C236 1.392 1_545 S
C235 H251 0.931 . S
C236 C235 1.392 1_565 S
C236 C237 1.331 . S
C236 H254 0.932 . S
C237 C236 1.331 . S
C237 C238 1.336 . S
C238 C234 1.394 . S
C238 C237 1.336 . S
C238 H253 0.929 . S
C239 C229 1.386 . S
C239 C232 1.357 . S
C239 H252 0.928 . S
H240 C216 0.931 . S
H241 C218 0.930 . S
H242 C220 0.929 . S
H243 C221 0.931 . S
H244 C223 0.930 . S
H245 C227 0.931 . S
H246 C225 0.931 . S
H247 C229 0.931 . S
H248 C230 0.929 . S
H249 C231 0.930 . S
H250 C234 0.930 . S
H251 C235 0.931 . S
H252 C239 0.928 . S
H253 C238 0.929 . S
H254 C236 0.932 . S
C255 C256 1.386 . S
C255 C257 1.397 . S
C255 H279 0.931 . S
C256 C255 1.386 . S
C256 C260 1.397 . S
C257 C255 1.397 . S
C257 C258 1.384 . S
C257 H280 0.930 . S
C258 C257 1.384 . S
C258 C259 1.377 . S
C258 C261 1.481 . S
C259 C258 1.377 . S
C259 C260 1.389 . S
C259 H281 0.929 . S
C260 C256 1.397 . S
C260 C259 1.389 . S
C260 H282 0.931 . S
C261 C258 1.481 . S
C261 C262 1.387 . S
C261 C266 1.390 . S
C262 C261 1.387 . S
C262 C263 1.401 . S
C262 H283 0.930 . S
C263 C262 1.401 . S
C263 C264 1.376 . S
C263 C272 1.511 . S
C264 C263 1.376 . S
C264 C265 1.392 . S
C264 H285 0.931 . S
C265 C264 1.392 . S
C265 C266 1.361 . S
C265 C267 1.500 . S
C266 C261 1.390 . S
C266 C265 1.361 . S
C266 H284 0.931 . S
C267 C265 1.500 . S
C267 C268 1.371 . S
C267 C269 1.365 . S
C268 C267 1.371 . S
C268 C278 1.386 . S
C268 H286 0.931 . S
C269 C267 1.365 . S
C269 C270 1.409 . S
C269 H287 0.929 . S
C270 C269 1.409 . S
C270 C271 1.380 . S
C270 H288 0.930 . S
C271 C270 1.380 . S
C271 C278 1.357 . S
C272 C263 1.511 . S
C272 C273 1.341 . S
C272 C274 1.371 . S
C273 C272 1.341 . S
C273 C277 1.394 . S
C273 H289 0.930 . S
C274 C272 1.371 . S
C274 C275 1.392 . S
C274 H290 0.931 . S
C275 C274 1.392 . S
C275 C276 1.331 . S
C275 H293 0.932 . S
C276 C275 1.331 . S
C276 C277 1.336 . S
C277 C273 1.394 . S
C277 C276 1.336 . S
C277 H292 0.929 . S
C278 C268 1.386 . S
C278 C271 1.357 . S
C278 H291 0.928 . S
H279 C255 0.931 . S
H280 C257 0.930 . S
H281 C259 0.929 . S
H282 C260 0.931 . S
H283 C262 0.930 . S
H284 C266 0.931 . S
H285 C264 0.931 . S
H286 C268 0.931 . S
H287 C269 0.929 . S
H288 C270 0.930 . S
H289 C273 0.930 . S
H290 C274 0.931 . S
H291 C278 0.928 . S
H292 C277 0.929 . S
H293 C275 0.932 . S
H294 C312 0.951 . S
H295 C314 0.951 . S
H296 C316 0.950 . S
H297 C317 0.950 . S
H298 C319 0.950 . S
H299 C322 0.950 . S
H300 C323 0.950 . S
H301 C325 0.950 . S
H302 C326 0.950 . S
H303 C327 0.951 . S
H304 C329 0.951 . S
H305 C331 0.950 . S
H306 C332 0.950 . S
H307 C334 0.950 . S
H308 C337 0.950 . S
H309 C338 0.950 . S
H310 C340 0.950 . S
H311 C341 0.950 . S
C312 H294 0.951 . S
C312 C313 1.366 . S
C312 C314 1.388 . S
C313 C312 1.366 . S
C313 C317 1.385 . S
C314 H295 0.951 . S
C314 C312 1.388 . S
C314 C315 1.366 . S
C315 C314 1.366 . S
C315 C316 1.414 . S
C315 C318 1.499 . S
C316 H296 0.950 . S
C316 C315 1.414 . S
C316 C317 1.374 . S
C317 H297 0.950 . S
C317 C313 1.385 . S
C317 C316 1.374 . S
C318 C315 1.499 . S
C318 C319 1.373 . S
C318 C320 1.389 . S
C319 H298 0.950 . S
C319 C318 1.373 . S
C319 C335 1.377 . S
C320 C318 1.389 . S
C320 C321 1.524 . S
C320 C334 1.377 . S
C321 C320 1.524 . S
C321 C322 1.397 . S
C321 C326 1.363 . S
C322 H299 0.950 . S
C322 C321 1.397 . S
C322 C323 1.334 . S
C323 H300 0.950 . S
C323 C322 1.334 . S
C323 C324 1.287 . S
C324 C323 1.287 . S
C324 C325 1.524 . S
C324 H343 0.913 . S
C325 H301 0.950 . S
C325 C324 1.524 . S
C325 C326 1.415 . S
C326 H302 0.950 . S
C326 C321 1.363 . S
C326 C325 1.415 . S
C327 H303 0.951 . S
C327 C328 1.366 . S
C327 C329 1.388 . S
C328 C327 1.366 . S
C328 C332 1.385 . S
C329 H304 0.951 . S
C329 C327 1.388 . S
C329 C330 1.366 . S
C330 C329 1.366 . S
C330 C331 1.414 . S
C330 C333 1.499 . S
C331 H305 0.950 . S
C331 C330 1.414 . S
C331 C332 1.374 . S
C332 H306 0.950 . S
C332 C328 1.385 . S
C332 C331 1.374 . S
C333 C330 1.499 . S
C333 C334 1.373 . S
C333 C335 1.389 . S
C334 H307 0.950 . S
C334 C320 1.377 . S
C334 C333 1.373 . S
C335 C319 1.377 . S
C335 C333 1.389 . S
C335 C336 1.524 . S
C336 C335 1.524 . S
C336 C337 1.397 . S
C336 C341 1.363 . S
C337 H308 0.950 . S
C337 C336 1.397 . S
C337 C338 1.334 . S
C338 H309 0.950 . S
C338 C337 1.334 . S
C338 C339 1.287 . S
C339 C338 1.287 . S
C339 C340 1.524 . S
C339 H342 0.999 . S
C340 H310 0.950 . S
C340 C339 1.524 . S
C340 C341 1.415 . S
C341 H311 0.950 . S
C341 C336 1.363 . S
C341 C340 1.415 . S
H342 C339 0.999 . S
H343 C324 0.913 . S
H344 C362 0.951 . S
H345 C364 0.951 . S
H346 C366 0.950 . S
H347 C367 0.950 . S
H348 C369 0.950 . S
H349 C372 0.950 . S
H350 C373 0.950 . S
H351 C375 0.950 . S
H352 C376 0.950 . S
H353 C377 0.951 . S
H354 C379 0.951 . S
H355 C381 0.950 . S
H356 C382 0.950 . S
H357 C384 0.950 . S
H358 C387 0.950 . S
H359 C388 0.950 . S
H360 C390 0.950 . S
H361 C391 0.950 . S
C362 H344 0.951 . S
C362 C363 1.366 . S
C362 C364 1.388 . S
C363 C362 1.366 . S
C363 C367 1.385 . S
C364 H345 0.951 . S
C364 C362 1.388 . S
C364 C365 1.366 . S
C365 C364 1.366 . S
C365 C366 1.414 . S
C365 C368 1.499 . S
C366 H346 0.950 . S
C366 C365 1.414 . S
C366 C367 1.374 . S
C367 H347 0.950 . S
C367 C363 1.385 . S
C367 C366 1.374 . S
C368 C365 1.499 . S
C368 C369 1.373 . S
C368 C370 1.389 . S
C369 H348 0.950 . S
C369 C368 1.373 . S
C369 C385 1.377 . S
C370 C368 1.389 . S
C370 C371 1.524 . S
C370 C384 1.377 . S
C371 C370 1.524 . S
C371 C372 1.397 . S
C371 C376 1.363 . S
C372 H349 0.950 . S
C372 C371 1.397 . S
C372 C373 1.334 . S
C373 H350 0.950 . S
C373 C372 1.334 . S
C373 C374 1.287 . S
C374 C373 1.287 . S
C374 C375 1.524 . S
C374 H393 0.913 . S
C375 H351 0.950 . S
C375 C374 1.524 . S
C375 C376 1.415 . S
C376 H352 0.950 . S
C376 C371 1.363 . S
C376 C375 1.415 . S
C377 H353 0.951 . S
C377 C378 1.366 . S
C377 C379 1.388 . S
C378 C377 1.366 . S
C378 C382 1.385 . S
C379 H354 0.951 . S
C379 C377 1.388 . S
C379 C380 1.366 . S
C380 C379 1.366 . S
C380 C381 1.414 . S
C380 C383 1.499 . S
C381 H355 0.950 . S
C381 C380 1.414 . S
C381 C382 1.374 . S
C382 H356 0.950 . S
C382 C378 1.385 . S
C382 C381 1.374 . S
C383 C380 1.499 . S
C383 C384 1.373 . S
C383 C385 1.389 . S
C384 H357 0.950 . S
C384 C370 1.377 . S
C384 C383 1.373 . S
C385 C369 1.377 . S
C385 C383 1.389 . S
C385 C386 1.524 . S
C386 C385 1.524 . S
C386 C387 1.397 . S
C386 C391 1.363 . S
C387 H358 0.950 . S
C387 C386 1.397 . S
C387 C388 1.334 . S
C388 H359 0.950 . S
C388 C387 1.334 . S
C388 C389 1.287 . S
C389 C388 1.287 . S
C389 C390 1.524 . S
C389 H392 0.999 . S
C390 H360 0.950 . S
C390 C389 1.524 . S
C390 C391 1.415 . S
C391 H361 0.950 . S
C391 C386 1.363 . S
C391 C390 1.415 . S
H392 C389 0.999 . S
H393 C374 0.913 . S
H394 C412 0.951 . S
H395 C414 0.951 . S
H396 C416 0.950 . S
H397 C417 0.950 . S
H398 C419 0.950 . S
H399 C422 0.950 . S
H400 C423 0.950 . S
H401 C425 0.950 . S
H402 C426 0.950 . S
H403 C427 0.951 . S
H404 C429 0.951 . S
H405 C431 0.950 . S
H406 C432 0.950 . S
H407 C434 0.950 . S
H408 C437 0.950 . S
H409 C438 0.950 . S
H410 C440 0.950 . S
H411 C441 0.950 . S
C412 H394 0.951 . S
C412 C413 1.366 . S
C412 C414 1.388 . S
C413 C412 1.366 . S
C413 C417 1.385 . S
C414 H395 0.951 . S
C414 C412 1.388 . S
C414 C415 1.366 . S
C415 C414 1.366 . S
C415 C416 1.414 . S
C415 C418 1.499 . S
C416 H396 0.950 . S
C416 C415 1.414 . S
C416 C417 1.374 . S
C417 H397 0.950 . S
C417 C413 1.385 . S
C417 C416 1.374 . S
C418 C415 1.499 . S
C418 C419 1.373 . S
C418 C420 1.389 . S
C419 H398 0.950 . S
C419 C418 1.373 . S
C419 C435 1.377 . S
C420 C418 1.389 . S
C420 C421 1.524 . S
C420 C434 1.377 . S
C421 C420 1.524 . S
C421 C422 1.397 . S
C421 C426 1.363 . S
C422 H399 0.950 . S
C422 C421 1.397 . S
C422 C423 1.334 . S
C423 H400 0.950 . S
C423 C422 1.334 . S
C423 C424 1.287 . S
C424 C423 1.287 . S
C424 C425 1.524 . S
C424 H443 0.913 . S
C425 H401 0.950 . S
C425 C424 1.524 . S
C425 C426 1.415 . S
C426 H402 0.950 . S
C426 C421 1.363 . S
C426 C425 1.415 . S
C427 H403 0.951 . S
C427 C428 1.366 . S
C427 C429 1.388 . S
C428 C427 1.366 . S
C428 C432 1.385 . S
C429 H404 0.951 . S
C429 C427 1.388 . S
C429 C430 1.366 . S
C430 C429 1.366 . S
C430 C431 1.414 . S
C430 C433 1.499 . S
C431 H405 0.950 . S
C431 C430 1.414 . S
C431 C432 1.374 . S
C432 H406 0.950 . S
C432 C428 1.385 . S
C432 C431 1.374 . S
C433 C430 1.499 . S
C433 C434 1.373 . S
C433 C435 1.389 . S
C434 H407 0.950 . S
C434 C420 1.377 . S
C434 C433 1.373 . S
C435 C419 1.377 . S
C435 C433 1.389 . S
C435 C436 1.524 . S
C436 C435 1.524 . S
C436 C437 1.397 . S
C436 C441 1.363 . S
C437 H408 0.950 . S
C437 C436 1.397 . S
C437 C438 1.334 . S
C438 H409 0.950 . S
C438 C437 1.334 . S
C438 C439 1.287 . S
C439 C438 1.287 . S
C439 C440 1.524 . S
C439 H442 0.999 . S
C440 H410 0.950 . S
C440 C439 1.524 . S
C440 C441 1.415 . S
C441 H411 0.950 . S
C441 C436 1.363 . S
C441 C440 1.415 . S
H442 C439 0.999 . S
H443 C424 0.913 . S
H444 C462 0.951 . S
H445 C464 0.951 . S
H446 C466 0.950 . S
H447 C467 0.950 . S
H448 C469 0.950 . S
H449 C472 0.950 . S
H450 C473 0.950 . S
H451 C475 0.950 . S
H452 C476 0.950 . S
H453 C477 0.951 . S
H454 C479 0.951 . S
H455 C481 0.950 . S
H456 C482 0.950 . S
H457 C484 0.950 . S
H458 C487 0.950 . S
H459 C488 0.950 . S
H460 C490 0.950 . S
H461 C491 0.950 . S
C462 H444 0.951 . S
C462 C463 1.366 . S
C462 C464 1.388 . S
C463 C462 1.366 . S
C463 C467 1.385 . S
C464 H445 0.951 . S
C464 C462 1.388 . S
C464 C465 1.366 . S
C465 C464 1.366 . S
C465 C466 1.414 . S
C465 C468 1.499 . S
C466 H446 0.950 . S
C466 C465 1.414 . S
C466 C467 1.374 . S
C467 H447 0.950 . S
C467 C463 1.385 . S
C467 C466 1.374 . S
C468 C465 1.499 . S
C468 C469 1.373 . S
C468 C470 1.389 . S
C469 H448 0.950 . S
C469 C468 1.373 . S
C469 C485 1.377 . S
C470 C468 1.389 . S
C470 C471 1.524 . S
C470 C484 1.377 . S
C471 C470 1.524 . S
C471 C472 1.397 . S
C471 C476 1.363 . S
C472 H449 0.950 . S
C472 C471 1.397 . S
C472 C473 1.334 . S
C473 H450 0.950 . S
C473 C472 1.334 . S
C473 C474 1.287 . S
C474 C473 1.287 . S
C474 C475 1.524 . S
C474 H493 0.913 . S
C475 H451 0.950 . S
C475 C474 1.524 . S
C475 C476 1.415 . S
C476 H452 0.950 . S
C476 C471 1.363 . S
C476 C475 1.415 . S
C477 H453 0.951 . S
C477 C478 1.366 . S
C477 C479 1.388 . S
C478 C477 1.366 . S
C478 C482 1.385 . S
C479 H454 0.951 . S
C479 C477 1.388 . S
C479 C480 1.366 . S
C480 C479 1.366 . S
C480 C481 1.414 . S
C480 C483 1.499 . S
C481 H455 0.950 . S
C481 C480 1.414 . S
C481 C482 1.374 . S
C482 H456 0.950 . S
C482 C478 1.385 . S
C482 C481 1.374 . S
C483 C480 1.499 . S
C483 C484 1.373 . S
C483 C485 1.389 . S
C484 H457 0.950 . S
C484 C470 1.377 . S
C484 C483 1.373 . S
C485 C469 1.377 . S
C485 C483 1.389 . S
C485 C486 1.524 . S
C486 C485 1.524 . S
C486 C487 1.397 . S
C486 C491 1.363 . S
C487 H458 0.950 . S
C487 C486 1.397 . S
C487 C488 1.334 . S
C488 H459 0.950 . S
C488 C487 1.334 . S
C488 C489 1.287 . S
C489 C488 1.287 . S
C489 C490 1.524 . S
C489 H492 0.999 . S
C490 H460 0.950 . S
C490 C489 1.524 . S
C490 C491 1.415 . S
C491 H461 0.950 . S
C491 C486 1.363 . S
C491 C490 1.415 . S
H492 C489 0.999 . S
H493 C474 0.913 . S
H494 C512 0.951 . S
H495 C514 0.951 . S
H496 C516 0.950 . S
H497 C517 0.950 . S
H498 C519 0.950 . S
H499 C522 0.950 . S
H500 C523 0.950 . S
H501 C525 0.950 . S
H502 C526 0.950 . S
H503 C527 0.951 . S
H504 C529 0.951 . S
H505 C531 0.950 . S
H506 C532 0.950 . S
H507 C534 0.950 . S
H508 C537 0.950 . S
H509 C538 0.950 . S
H510 C540 0.950 . S
H511 C541 0.950 . S
C512 H494 0.951 . S
C512 C513 1.366 . S
C512 C514 1.388 . S
C513 C512 1.366 . S
C513 C517 1.385 . S
C514 H495 0.951 . S
C514 C512 1.388 . S
C514 C515 1.366 . S
C515 C514 1.366 . S
C515 C516 1.414 . S
C515 C518 1.499 . S
C516 H496 0.950 . S
C516 C515 1.414 . S
C516 C517 1.374 . S
C517 H497 0.950 . S
C517 C513 1.385 . S
C517 C516 1.374 . S
C518 C515 1.499 . S
C518 C519 1.373 . S
C518 C520 1.389 . S
C519 H498 0.950 . S
C519 C518 1.373 . S
C519 C535 1.377 . S
C520 C518 1.389 . S
C520 C521 1.524 . S
C520 C534 1.377 . S
C521 C520 1.524 . S
C521 C522 1.397 . S
C521 C526 1.363 . S
C522 H499 0.950 . S
C522 C521 1.397 . S
C522 C523 1.334 . S
C523 H500 0.950 . S
C523 C522 1.334 . S
C523 C524 1.287 . S
C524 C523 1.287 . S
C524 C525 1.524 . S
C524 H543 0.913 . S
C525 H501 0.950 . S
C525 C524 1.524 . S
C525 C526 1.415 . S
C526 H502 0.950 . S
C526 C521 1.363 . S
C526 C525 1.415 . S
C527 H503 0.951 . S
C527 C528 1.366 . S
C527 C529 1.388 . S
C528 C527 1.366 . S
C528 C532 1.385 . S
C529 H504 0.951 . S
C529 C527 1.388 . S
C529 C530 1.366 . S
C530 C529 1.366 . S
C530 C531 1.414 . S
C530 C533 1.499 . S
C531 H505 0.950 . S
C531 C530 1.414 . S
C531 C532 1.374 . S
C532 H506 0.950 . S
C532 C528 1.385 . S
C532 C531 1.374 . S
C533 C530 1.499 . S
C533 C534 1.373 . S
C533 C535 1.389 . S
C534 H507 0.950 . S
C534 C520 1.377 . S
C534 C533 1.373 . S
C535 C519 1.377 . S
C535 C533 1.389 . S
C535 C536 1.524 . S
C536 C535 1.524 . S
C536 C537 1.397 . S
C536 C541 1.363 . S
C537 H508 0.950 . S
C537 C536 1.397 . S
C537 C538 1.334 . S
C538 H509 0.950 . S
C538 C537 1.334 . S
C538 C539 1.287 . S
C539 C538 1.287 . S
C539 C540 1.524 . S
C539 H542 0.999 . S
C540 H510 0.950 . S
C540 C539 1.524 . S
C540 C541 1.415 . S
C541 H511 0.950 . S
C541 C536 1.363 . S
C541 C540 1.415 . S
H542 C539 0.999 . S
H543 C524 0.913 . S
H544 C562 0.951 . S
H545 C564 0.951 . S
H546 C566 0.950 . S
H547 C567 0.950 . S
H548 C569 0.950 . S
H549 C572 0.950 . S
H550 C573 0.950 . S
H551 C575 0.950 . S
H552 C576 0.950 . S
H553 C577 0.951 . S
H554 C579 0.951 . S
H555 C581 0.950 . S
H556 C582 0.950 . S
H557 C584 0.950 . S
H558 C587 0.950 . S
H559 C588 0.950 . S
H560 C590 0.950 . S
H561 C591 0.950 . S
C562 H544 0.951 . S
C562 C563 1.366 . S
C562 C564 1.388 . S
C563 C562 1.366 . S
C563 C567 1.385 . S
C564 H545 0.951 . S
C564 C562 1.388 . S
C564 C565 1.366 . S
C565 C564 1.366 . S
C565 C566 1.414 . S
C565 C568 1.499 . S
C566 H546 0.950 . S
C566 C565 1.414 . S
C566 C567 1.374 . S
C567 H547 0.950 . S
C567 C563 1.385 . S
C567 C566 1.374 . S
C568 C565 1.499 . S
C568 C569 1.373 . S
C568 C570 1.389 . S
C569 H548 0.950 . S
C569 C568 1.373 . S
C569 C585 1.377 . S
C570 C568 1.389 . S
C570 C571 1.524 . S
C570 C584 1.377 . S
C571 C570 1.524 . S
C571 C572 1.397 . S
C571 C576 1.363 . S
C572 H549 0.950 . S
C572 C571 1.397 . S
C572 C573 1.334 . S
C573 H550 0.950 . S
C573 C572 1.334 . S
C573 C574 1.287 . S
C574 C573 1.287 . S
C574 C575 1.524 . S
C574 H593 0.913 . S
C575 H551 0.950 . S
C575 C574 1.524 . S
C575 C576 1.415 . S
C576 H552 0.950 . S
C576 C571 1.363 . S
C576 C575 1.415 . S
C577 H553 0.951 . S
C577 C578 1.366 . S
C577 C579 1.388 . S
C578 C577 1.366 . S
C578 C582 1.385 . S
C579 H554 0.951 . S
C579 C577 1.388 . S
C579 C580 1.366 . S
C580 C579 1.366 . S
C580 C581 1.414 . S
C580 C583 1.499 . S
C581 H555 0.950 . S
C581 C580 1.414 . S
C581 C582 1.374 . S
C582 H556 0.950 . S
C582 C578 1.385 . S
C582 C581 1.374 . S
C583 C580 1.499 . S
C583 C584 1.373 . S
C583 C585 1.389 . S
C584 H557 0.950 . S
C584 C570 1.377 . S
C584 C583 1.373 . S
C585 C569 1.377 . S
C585 C583 1.389 . S
C585 C586 1.524 . S
C586 C585 1.524 . S
C586 C587 1.397 . S
C586 C591 1.363 . S
C587 H558 0.950 . S
C587 C586 1.397 . S
C587 C588 1.334 . S
C588 H559 0.950 . S
C588 C587 1.334 . S
C588 C589 1.287 . S
C589 C588 1.287 . S
C589 C590 1.524 . S
C589 H592 0.999 . S
C590 H560 0.950 . S
C590 C589 1.524 . S
C590 C591 1.415 . S
C591 H561 0.950 . S
C591 C586 1.363 . S
C591 C590 1.415 . S
H592 C589 0.999 . S
H593 C574 0.913 . S
H594 C612 0.951 . S
H595 C614 0.951 . S
H596 C616 0.950 . S
H597 C617 0.950 . S
H598 C619 0.950 . S
H599 C622 0.950 . S
H600 C623 0.950 . S
H601 C625 0.950 . S
H602 C626 0.950 . S
H603 C627 0.951 . S
H604 C629 0.951 . S
H605 C631 0.950 . S
H606 C632 0.950 . S
H607 C634 0.950 . S
H608 C637 0.950 . S
H609 C638 0.950 . S
H610 C640 0.950 . S
H611 C641 0.950 . S
C612 H594 0.951 . S
C612 C613 1.366 . S
C612 C614 1.388 . S
C613 C612 1.366 . S
C613 C617 1.385 . S
C614 H595 0.951 . S
C614 C612 1.388 . S
C614 C615 1.366 . S
C615 C614 1.366 . S
C615 C616 1.414 . S
C615 C618 1.499 . S
C616 H596 0.950 . S
C616 C615 1.414 . S
C616 C617 1.374 . S
C617 H597 0.950 . S
C617 C613 1.385 . S
C617 C616 1.374 . S
C618 C615 1.499 . S
C618 C619 1.373 . S
C618 C620 1.389 . S
C619 H598 0.950 . S
C619 C618 1.373 . S
C619 C635 1.377 . S
C620 C618 1.389 . S
C620 C621 1.524 . S
C620 C634 1.377 . S
C621 C620 1.524 . S
C621 C622 1.397 . S
C621 C626 1.363 . S
C622 H599 0.950 . S
C622 C621 1.397 . S
C622 C623 1.334 . S
C623 H600 0.950 . S
C623 C622 1.334 . S
C623 C624 1.287 . S
C624 C623 1.287 . S
C624 C625 1.524 . S
C624 H643 0.913 . S
C625 H601 0.950 . S
C625 C624 1.524 . S
C625 C626 1.415 . S
C626 H602 0.950 . S
C626 C621 1.363 . S
C626 C625 1.415 . S
C627 H603 0.951 . S
C627 C628 1.366 . S
C627 C629 1.388 . S
C628 C627 1.366 . S
C628 C632 1.385 . S
C629 H604 0.951 . S
C629 C627 1.388 . S
C629 C630 1.366 . S
C630 C629 1.366 . S
C630 C631 1.414 . S
C630 C633 1.499 . S
C631 H605 0.950 . S
C631 C630 1.414 . S
C631 C632 1.374 . S
C632 H606 0.950 . S
C632 C628 1.385 . S
C632 C631 1.374 . S
C633 C630 1.499 . S
C633 C634 1.373 . S
C633 C635 1.389 . S
C634 H607 0.950 . S
C634 C620 1.377 . S
C634 C633 1.373 . S
C635 C619 1.377 . S
C635 C633 1.389 . S
C635 C636 1.524 . S
C636 C635 1.524 . S
C636 C637 1.397 . S
C636 C641 1.363 . S
C637 H608 0.950 . S
C637 C636 1.397 . S
C637 C638 1.334 . S
C638 H609 0.950 . S
C638 C637 1.334 . S
C638 C639 1.287 . S
C639 C638 1.287 . S
C639 C640 1.524 . S
C639 H642 0.999 . S
C640 H610 0.950 . S
C640 C639 1.524 . S
C640 C641 1.415 . S
C641 H611 0.950 . S
C641 C636 1.363 . S
C641 C640 1.415 . S
H642 C639 0.999 . S
H643 C624 0.913 . S
H644 C662 0.951 . S
H645 C664 0.951 . S
H646 C666 0.950 . S
H647 C667 0.950 . S
H648 C669 0.950 . S
H649 C672 0.950 . S
H650 C673 0.950 . S
H651 C675 0.950 . S
H652 C676 0.950 . S
H653 C677 0.951 . S
H654 C679 0.951 . S
H655 C681 0.950 . S
H656 C682 0.950 . S
H657 C684 0.950 . S
H658 C687 0.950 . S
H659 C688 0.950 . S
H660 C690 0.950 . S
H661 C691 0.950 . S
C662 H644 0.951 . S
C662 C663 1.366 . S
C662 C664 1.388 . S
C663 C662 1.366 . S
C663 C667 1.385 . S
C664 H645 0.951 . S
C664 C662 1.388 . S
C664 C665 1.366 . S
C665 C664 1.366 . S
C665 C666 1.414 . S
C665 C668 1.499 . S
C666 H646 0.950 . S
C666 C665 1.414 . S
C666 C667 1.374 . S
C667 H647 0.950 . S
C667 C663 1.385 . S
C667 C666 1.374 . S
C668 C665 1.499 . S
C668 C669 1.373 . S
C668 C670 1.389 . S
C669 H648 0.950 . S
C669 C668 1.373 . S
C669 C685 1.377 . S
C670 C668 1.389 . S
C670 C671 1.524 . S
C670 C684 1.377 . S
C671 C670 1.524 . S
C671 C672 1.397 . S
C671 C676 1.363 . S
C672 H649 0.950 . S
C672 C671 1.397 . S
C672 C673 1.334 . S
C673 H650 0.950 . S
C673 C672 1.334 . S
C673 C674 1.287 . S
C674 C673 1.287 . S
C674 C675 1.524 . S
C674 H693 0.913 . S
C675 H651 0.950 . S
C675 C674 1.524 . S
C675 C676 1.415 . S
C676 H652 0.950 . S
C676 C671 1.363 . S
C676 C675 1.415 . S
C677 H653 0.951 . S
C677 C678 1.366 . S
C677 C679 1.388 . S
C678 C677 1.366 . S
C678 C682 1.385 . S
C679 H654 0.951 . S
C679 C677 1.388 . S
C679 C680 1.366 . S
C680 C679 1.366 . S
C680 C681 1.414 . S
C680 C683 1.499 . S
C681 H655 0.950 . S
C681 C680 1.414 . S
C681 C682 1.374 . S
C682 H656 0.950 . S
C682 C678 1.385 . S
C682 C681 1.374 . S
C683 C680 1.499 . S
C683 C684 1.373 . S
C683 C685 1.389 . S
C684 H657 0.950 . S
C684 C670 1.377 . S
C684 C683 1.373 . S
C685 C669 1.377 . S
C685 C683 1.389 . S
C685 C686 1.524 . S
C686 C685 1.524 . S
C686 C687 1.397 . S
C686 C691 1.363 . S
C687 H658 0.950 . S
C687 C686 1.397 . S
C687 C688 1.334 . S
C688 H659 0.950 . S
C688 C687 1.334 . S
C688 C689 1.287 . S
C689 C688 1.287 . S
C689 C690 1.524 . S
C689 H692 0.999 . S
C690 H660 0.950 . S
C690 C689 1.524 . S
C690 C691 1.415 . S
C691 H661 0.950 . S
C691 C686 1.363 . S
C691 C690 1.415 . S
H692 C689 0.999 . S
H693 C674 0.913 . S
H694 C712 0.951 . S
H695 C714 0.951 . S
H696 C716 0.950 . S
H697 C717 0.950 . S
H698 C719 0.950 . S
H699 C722 0.950 . S
H700 C723 0.950 . S
H701 C725 0.950 . S
H702 C726 0.950 . S
H703 C727 0.951 . S
H704 C729 0.951 . S
H705 C731 0.950 . S
H706 C732 0.950 . S
H707 C734 0.950 . S
H708 C737 0.950 . S
H709 C738 0.950 . S
H710 C740 0.950 . S
H711 C741 0.950 . S
C712 H694 0.951 . S
C712 C713 1.366 . S
C712 C714 1.388 . S
C713 C712 1.366 . S
C713 C717 1.385 . S
C714 H695 0.951 . S
C714 C712 1.388 . S
C714 C715 1.366 . S
C715 C714 1.366 . S
C715 C716 1.414 . S
C715 C718 1.499 . S
C716 H696 0.950 . S
C716 C715 1.414 . S
C716 C717 1.374 . S
C717 H697 0.950 . S
C717 C713 1.385 . S
C717 C716 1.374 . S
C718 C715 1.499 . S
C718 C719 1.373 . S
C718 C720 1.389 . S
C719 H698 0.950 . S
C719 C718 1.373 . S
C719 C735 1.377 . S
C720 C718 1.389 . S
C720 C721 1.524 . S
C720 C734 1.377 . S
C721 C720 1.524 . S
C721 C722 1.397 . S
C721 C726 1.363 . S
C722 H699 0.950 . S
C722 C721 1.397 . S
C722 C723 1.334 . S
C723 H700 0.950 . S
C723 C722 1.334 . S
C723 C724 1.287 . S
C724 C723 1.287 . S
C724 C725 1.524 . S
C724 H743 0.913 . S
C725 H701 0.950 . S
C725 C724 1.524 . S
C725 C726 1.415 . S
C726 H702 0.950 . S
C726 C721 1.363 . S
C726 C725 1.415 . S
C727 H703 0.951 . S
C727 C728 1.366 . S
C727 C729 1.388 . S
C728 C727 1.366 . S
C728 C732 1.385 . S
C729 H704 0.951 . S
C729 C727 1.388 . S
C729 C730 1.366 . S
C730 C729 1.366 . S
C730 C731 1.414 . S
C730 C733 1.499 . S
C731 H705 0.950 . S
C731 C730 1.414 . S
C731 C732 1.374 . S
C732 H706 0.950 . S
C732 C728 1.385 . S
C732 C731 1.374 . S
C733 C730 1.499 . S
C733 C734 1.373 . S
C733 C735 1.389 . S
C734 H707 0.950 . S
C734 C720 1.377 . S
C734 C733 1.373 . S
C735 C719 1.377 . S
C735 C733 1.389 . S
C735 C736 1.524 . S
C736 C735 1.524 . S
C736 C737 1.397 . S
C736 C741 1.363 . S
C737 H708 0.950 . S
C737 C736 1.397 . S
C737 C738 1.334 . S
C738 H709 0.950 . S
C738 C737 1.334 . S
C738 C739 1.287 . S
C739 C738 1.287 . S
C739 C740 1.524 . S
C739 H742 0.999 . S
C740 H710 0.950 . S
C740 C739 1.524 . S
C740 C741 1.415 . S
C741 H711 0.950 . S
C741 C736 1.363 . S
C741 C740 1.415 . S
H742 C739 0.999 . S
H743 C724 0.913 . S
H744 C762 0.951 . S
H745 C764 0.951 . S
H746 C766 0.950 . S
H747 C767 0.950 . S
H748 C769 0.950 . S
H749 C772 0.950 . S
H750 C773 0.950 . S
H751 C775 0.950 . S
H752 C776 0.950 . S
H753 C777 0.951 . S
H754 C779 0.951 . S
H755 C781 0.950 . S
H756 C782 0.950 . S
H757 C784 0.950 . S
H758 C787 0.950 . S
H759 C788 0.950 . S
H760 C790 0.950 . S
H761 C791 0.950 . S
C762 H744 0.951 . S
C762 C763 1.366 . S
C762 C764 1.388 . S
C763 C762 1.366 . S
C763 C767 1.385 . S
C764 H745 0.951 . S
C764 C762 1.388 . S
C764 C765 1.366 . S
C765 C764 1.366 . S
C765 C766 1.414 . S
C765 C768 1.499 . S
C766 H746 0.950 . S
C766 C765 1.414 . S
C766 C767 1.374 . S
C767 H747 0.950 . S
C767 C763 1.385 . S
C767 C766 1.374 . S
C768 C765 1.499 . S
C768 C769 1.373 . S
C768 C770 1.389 . S
C769 H748 0.950 . S
C769 C768 1.373 . S
C769 C785 1.377 . S
C770 C768 1.389 . S
C770 C771 1.524 . S
C770 C784 1.377 . S
C771 C770 1.524 . S
C771 C772 1.397 . S
C771 C776 1.363 . S
C772 H749 0.950 . S
C772 C771 1.397 . S
C772 C773 1.334 . S
C773 H750 0.950 . S
C773 C772 1.334 . S
C773 C774 1.287 . S
C774 C773 1.287 . S
C774 C775 1.524 . S
C774 H793 0.913 . S
C775 H751 0.950 . S
C775 C774 1.524 . S
C775 C776 1.415 . S
C776 H752 0.950 . S
C776 C771 1.363 . S
C776 C775 1.415 . S
C777 H753 0.951 . S
C777 C778 1.366 . S
C777 C779 1.388 . S
C778 C777 1.366 . S
C778 C782 1.385 . S
C779 H754 0.951 . S
C779 C777 1.388 . S
C779 C780 1.366 . S
C780 C779 1.366 . S
C780 C781 1.414 . S
C780 C783 1.499 . S
C781 H755 0.950 . S
C781 C780 1.414 . S
C781 C782 1.374 . S
C782 H756 0.950 . S
C782 C778 1.385 . S
C782 C781 1.374 . S
C783 C780 1.499 . S
C783 C784 1.373 . S
C783 C785 1.389 . S
C784 H757 0.950 . S
C784 C770 1.377 . S
C784 C783 1.373 . S
C785 C769 1.377 . S
C785 C783 1.389 . S
C785 C786 1.524 . S
C786 C785 1.524 . S
C786 C787 1.397 . S
C786 C791 1.363 . S
C787 H758 0.950 . S
C787 C786 1.397 . S
C787 C788 1.334 . S
C788 H759 0.950 . S
C788 C787 1.334 . S
C788 C789 1.287 . S
C789 C788 1.287 . S
C789 C790 1.524 . S
C789 H792 0.999 . S
C790 H760 0.950 . S
C790 C789 1.524 . S
C790 C791 1.415 . S
C791 H761 0.950 . S
C791 C786 1.363 . S
C791 C790 1.415 . S
H792 C789 0.999 . S
H793 C774 0.913 . S
H794 C812 0.951 . S
H795 C814 0.951 . S
H796 C816 0.950 . S
H797 C817 0.950 . S
H798 C819 0.950 . S
H799 C822 0.950 . S
H800 C823 0.950 . S
H801 C825 0.950 . S
H802 C826 0.950 . S
H803 C827 0.951 . S
H804 C829 0.951 . S
H805 C831 0.950 . S
H806 C832 0.950 . S
H807 C834 0.950 . S
H808 C837 0.950 . S
H809 C838 0.950 . S
H810 C840 0.950 . S
H811 C841 0.950 . S
C812 H794 0.951 . S
C812 C813 1.366 . S
C812 C814 1.388 . S
C813 C812 1.366 . S
C813 C817 1.385 . S
C814 H795 0.951 . S
C814 C812 1.388 . S
C814 C815 1.366 . S
C815 C814 1.366 . S
C815 C816 1.414 . S
C815 C818 1.499 . S
C816 H796 0.950 . S
C816 C815 1.414 . S
C816 C817 1.374 . S
C817 H797 0.950 . S
C817 C813 1.385 . S
C817 C816 1.374 . S
C818 C815 1.499 . S
C818 C819 1.373 . S
C818 C820 1.389 . S
C819 H798 0.950 . S
C819 C818 1.373 . S
C819 C835 1.377 . S
C820 C818 1.389 . S
C820 C821 1.524 . S
C820 C834 1.377 . S
C821 C820 1.524 . S
C821 C822 1.397 . S
C821 C826 1.363 . S
C822 H799 0.950 . S
C822 C821 1.397 . S
C822 C823 1.334 . S
C823 H800 0.950 . S
C823 C822 1.334 . S
C823 C824 1.287 . S
C824 C823 1.287 . S
C824 C825 1.524 . S
C824 H843 0.913 . S
C825 H801 0.950 . S
C825 C824 1.524 . S
C825 C826 1.415 . S
C826 H802 0.950 . S
C826 C821 1.363 . S
C826 C825 1.415 . S
C827 H803 0.951 . S
C827 C828 1.366 . S
C827 C829 1.388 . S
C828 C827 1.366 . S
C828 C832 1.385 . S
C829 H804 0.951 . S
C829 C827 1.388 . S
C829 C830 1.366 . S
C830 C829 1.366 . S
C830 C831 1.414 . S
C830 C833 1.499 . S
C831 H805 0.950 . S
C831 C830 1.414 . S
C831 C832 1.374 . S
C832 H806 0.950 . S
C832 C828 1.385 . S
C832 C831 1.374 . S
C833 C830 1.499 . S
C833 C834 1.373 . S
C833 C835 1.389 . S
C834 H807 0.950 . S
C834 C820 1.377 . S
C834 C833 1.373 . S
C835 C819 1.377 . S
C835 C833 1.389 . S
C835 C836 1.524 . S
C836 C835 1.524 . S
C836 C837 1.397 . S
C836 C841 1.363 . S
C837 H808 0.950 . S
C837 C836 1.397 . S
C837 C838 1.334 . S
C838 H809 0.950 . S
C838 C837 1.334 . S
C838 C839 1.287 . S
C839 C838 1.287 . S
C839 C840 1.524 . S
C839 H842 0.999 . S
C840 H810 0.950 . S
C840 C839 1.524 . S
C840 C841 1.415 . S
C841 H811 0.950 . S
C841 C836 1.363 . S
C841 C840 1.415 . S
H842 C839 0.999 . S
H843 C824 0.913 . S
H844 C862 0.951 . S
H845 C864 0.951 . S
H846 C866 0.950 . S
H847 C867 0.950 . S
H848 C869 0.950 . S
H849 C872 0.950 . S
H850 C873 0.950 . S
H851 C875 0.950 . S
H852 C876 0.950 . S
H853 C877 0.951 . S
H854 C879 0.951 . S
H855 C881 0.950 . S
H856 C882 0.950 . S
H857 C884 0.950 . S
H858 C887 0.950 . S
H859 C888 0.950 . S
H860 C890 0.950 . S
H861 C891 0.950 . S
C862 H844 0.951 . S
C862 C863 1.366 . S
C862 C864 1.388 . S
C863 C862 1.366 . S
C863 C867 1.385 . S
C864 H845 0.951 . S
C864 C862 1.388 . S
C864 C865 1.366 . S
C865 C864 1.366 . S
C865 C866 1.414 . S
C865 C868 1.499 . S
C866 H846 0.950 . S
C866 C865 1.414 . S
C866 C867 1.374 . S
C867 H847 0.950 . S
C867 C863 1.385 . S
C867 C866 1.374 . S
C868 C865 1.499 . S
C868 C869 1.373 . S
C868 C870 1.389 . S
C869 H848 0.950 . S
C869 C868 1.373 . S
C869 C885 1.377 . S
C870 C868 1.389 . S
C870 C871 1.524 . S
C870 C884 1.377 . S
C871 C870 1.524 . S
C871 C872 1.397 . S
C871 C876 1.363 . S
C872 H849 0.950 . S
C872 C871 1.397 . S
C872 C873 1.334 . S
C873 H850 0.950 . S
C873 C872 1.334 . S
C873 C874 1.287 . S
C874 C873 1.287 . S
C874 C875 1.524 . S
C874 H893 0.913 . S
C875 H851 0.950 . S
C875 C874 1.524 . S
C875 C876 1.415 . S
C876 H852 0.950 . S
C876 C871 1.363 . S
C876 C875 1.415 . S
C877 H853 0.951 . S
C877 C878 1.366 . S
C877 C879 1.388 . S
C878 C877 1.366 . S
C878 C882 1.385 . S
C879 H854 0.951 . S
C879 C877 1.388 . S
C879 C880 1.366 . S
C880 C879 1.366 . S
C880 C881 1.414 . S
C880 C883 1.499 . S
C881 H855 0.950 . S
C881 C880 1.414 . S
C881 C882 1.374 . S
C882 H856 0.950 . S
C882 C878 1.385 . S
C882 C881 1.374 . S
C883 C880 1.499 . S
C883 C884 1.373 . S
C883 C885 1.389 . S
C884 H857 0.950 . S
C884 C870 1.377 . S
C884 C883 1.373 . S
C885 C869 1.377 . S
C885 C883 1.389 . S
C885 C886 1.524 . S
C886 C885 1.524 . S
C886 C887 1.397 . S
C886 C891 1.363 . S
C887 H858 0.950 . S
C887 C886 1.397 . S
C887 C888 1.334 . S
C888 H859 0.950 . S
C888 C887 1.334 . S
C888 C889 1.287 . S
C889 C888 1.287 . S
C889 C890 1.524 . S
C889 H892 0.999 . S
C890 H860 0.950 . S
C890 C889 1.524 . S
C890 C891 1.415 . S
C891 H861 0.950 . S
C891 C886 1.363 . S
C891 C890 1.415 . S
H892 C889 0.999 . S
H893 C874 0.913 . S
H894 C912 0.951 . S
H895 C914 0.951 . S
H896 C916 0.950 . S
H897 C917 0.950 . S
H898 C919 0.950 . S
H899 C922 0.950 . S
H900 C923 0.950 . S
H901 C925 0.950 . S
H902 C926 0.950 . S
H903 C927 0.951 . S
H904 C929 0.951 . S
H905 C931 0.950 . S
H906 C932 0.950 . S
H907 C934 0.950 1_655 S
H908 C937 0.950 . S
H909 C938 0.950 . S
H910 C940 0.950 . S
H911 C941 0.950 . S
C912 H894 0.951 . S
C912 C913 1.366 . S
C912 C914 1.388 . S
C913 C912 1.366 . S
C913 C917 1.385 . S
C914 H895 0.951 . S
C914 C912 1.388 . S
C914 C915 1.366 . S
C915 C914 1.366 . S
C915 C916 1.414 . S
C915 C918 1.499 . S
C916 H896 0.950 . S
C916 C915 1.414 . S
C916 C917 1.374 . S
C917 H897 0.950 . S
C917 C913 1.385 . S
C917 C916 1.374 . S
C918 C915 1.499 . S
C918 C919 1.373 . S
C918 C920 1.389 . S
C919 H898 0.950 . S
C919 C918 1.373 . S
C919 C935 1.377 . S
C920 C918 1.389 . S
C920 C921 1.524 1_455 S
C920 C934 1.377 . S
C921 C920 1.524 1_655 S
C921 C922 1.397 . S
C921 C926 1.363 . S
C922 H899 0.950 . S
C922 C921 1.397 . S
C922 C923 1.334 . S
C923 H900 0.950 . S
C923 C922 1.334 . S
C923 C924 1.287 . S
C924 C923 1.287 . S
C924 C925 1.524 . S
C924 H943 0.913 . S
C925 H901 0.950 . S
C925 C924 1.524 . S
C925 C926 1.415 . S
C926 H902 0.950 . S
C926 C921 1.363 . S
C926 C925 1.415 . S
C927 H903 0.951 . S
C927 C928 1.366 . S
C927 C929 1.388 1_556 S
C928 C927 1.366 . S
C928 C932 1.385 . S
C929 H904 0.951 . S
C929 C927 1.388 1_554 S
C929 C930 1.366 . S
C930 C929 1.366 . S
C930 C931 1.414 . S
C930 C933 1.499 . S
C931 H905 0.950 . S
C931 C930 1.414 . S
C931 C932 1.374 1_554 S
C932 H906 0.950 . S
C932 C928 1.385 . S
C932 C931 1.374 1_556 S
C933 C930 1.499 . S
C933 C934 1.373 . S
C933 C935 1.389 . S
C934 H907 0.950 1_455 S
C934 C920 1.377 . S
C934 C933 1.373 . S
C935 C919 1.377 . S
C935 C933 1.389 . S
C935 C936 1.524 . S
C936 C935 1.524 . S
C936 C937 1.397 . S
C936 C941 1.363 . S
C937 H908 0.950 . S
C937 C936 1.397 . S
C937 C938 1.334 . S
C938 H909 0.950 . S
C938 C937 1.334 . S
C938 C939 1.287 . S
C939 C938 1.287 . S
C939 C940 1.524 . S
C939 H942 0.999 . S
C940 H910 0.950 . S
C940 C939 1.524 . S
C940 C941 1.415 . S
C941 H911 0.950 . S
C941 C936 1.363 . S
C941 C940 1.415 . S
H942 C939 0.999 . S
H943 C924 0.913 . S
H944 C962 0.951 . S
H945 C964 0.951 . S
H946 C966 0.950 . S
H947 C967 0.950 . S
H948 C969 0.950 1_565 S
H949 C972 0.950 . S
H950 C973 0.950 . S
H951 C975 0.950 . S
H952 C976 0.950 . S
H953 C977 0.951 . S
H954 C979 0.951 . S
H955 C981 0.950 . S
H956 C982 0.950 . S
H957 C984 0.950 . S
H958 C987 0.950 1_545 S
H959 C988 0.950 . S
H960 C990 0.950 . S
H961 C991 0.950 . S
C962 H944 0.951 . S
C962 C963 1.366 . S
C962 C964 1.388 . S
C963 C962 1.366 . S
C963 C967 1.385 1_545 S
C964 H945 0.951 . S
C964 C962 1.388 . S
C964 C965 1.366 . S
C965 C964 1.366 . S
C965 C966 1.414 1_545 S
C965 C968 1.499 . S
C966 H946 0.950 . S
C966 C965 1.414 1_565 S
C966 C967 1.374 . S
C967 H947 0.950 . S
C967 C963 1.385 1_565 S
C967 C966 1.374 . S
C968 C965 1.499 . S
C968 C969 1.373 . S
C968 C970 1.389 . S
C969 H948 0.950 1_545 S
C969 C968 1.373 . S
C969 C985 1.377 . S
C970 C968 1.389 . S
C970 C971 1.524 . S
C970 C984 1.377 . S
C971 C970 1.524 . S
C971 C972 1.397 . S
C971 C976 1.363 . S
C972 H949 0.950 . S
C972 C971 1.397 . S
C972 C973 1.334 . S
C973 H950 0.950 . S
C973 C972 1.334 . S
C973 C974 1.287 . S
C974 C973 1.287 . S
C974 C975 1.524 . S
C974 H993 0.913 . S
C975 H951 0.950 . S
C975 C974 1.524 . S
C975 C976 1.415 . S
C976 H952 0.950 . S
C976 C971 1.363 . S
C976 C975 1.415 . S
C977 H953 0.951 . S
C977 C978 1.366 1_565 S
C977 C979 1.388 . S
C978 C977 1.366 1_545 S
C978 C982 1.385 . S
C979 H954 0.951 . S
C979 C977 1.388 . S
C979 C980 1.366 1_565 S
C980 C979 1.366 1_545 S
C980 C981 1.414 . S
C980 C983 1.499 . S
C981 H955 0.950 . S
C981 C980 1.414 . S
C981 C982 1.374 . S
C982 H956 0.950 . S
C982 C978 1.385 . S
C982 C981 1.374 . S
C983 C980 1.499 . S
C983 C984 1.373 . S
C983 C985 1.389 . S
C984 H957 0.950 . S
C984 C970 1.377 . S
C984 C983 1.373 . S
C985 C969 1.377 . S
C985 C983 1.389 . S
C985 C986 1.524 1_545 S
C986 C985 1.524 1_565 S
C986 C987 1.397 . S
C986 C991 1.363 . S
C987 H958 0.950 1_565 S
C987 C986 1.397 . S
C987 C988 1.334 . S
C988 H959 0.950 . S
C988 C987 1.334 . S
C988 C989 1.287 . S
C989 C988 1.287 . S
C989 C990 1.524 . S
C989 H992 0.999 . S
C990 H960 0.950 . S
C990 C989 1.524 . S
C990 C991 1.415 . S
C991 H961 0.950 . S
C991 C986 1.363 . S
C991 C990 1.415 . S
H992 C989 0.999 . S
H993 C974 0.913 . S
H994 C1012 0.951 . S
H995 C1014 0.951 . S
H996 C1016 0.950 . S
H997 C1017 0.950 . S
H998 C1019 0.950 . S
H999 C1022 0.950 . S
H1000 C1023 0.950 . S
H1001 C1025 0.950 . S
H1002 C1026 0.950 . S
H1003 C1027 0.951 . S
H1004 C1029 0.951 . S
H1005 C1031 0.950 . S
H1006 C1032 0.950 . S
H1007 C1034 0.950 . S
H1008 C1037 0.950 . S
H1009 C1038 0.950 . S
H1010 C1040 0.950 . S
H1011 C1041 0.950 . S
C1012 H994 0.951 . S
C1012 C1013 1.366 . S
C1012 C1014 1.388 . S
C1013 C1012 1.366 . S
C1013 C1017 1.385 . S
C1014 H995 0.951 . S
C1014 C1012 1.388 . S
C1014 C1015 1.366 . S
C1015 C1014 1.366 . S
C1015 C1016 1.414 . S
C1015 C1018 1.499 . S
C1016 H996 0.950 . S
C1016 C1015 1.414 . S
C1016 C1017 1.374 . S
C1017 H997 0.950 . S
C1017 C1013 1.385 . S
C1017 C1016 1.374 . S
C1018 C1015 1.499 . S
C1018 C1019 1.373 . S
C1018 C1020 1.389 . S
C1019 H998 0.950 . S
C1019 C1018 1.373 . S
C1019 C1035 1.377 . S
C1020 C1018 1.389 . S
C1020 C1021 1.524 . S
C1020 C1034 1.377 . S
C1021 C1020 1.524 . S
C1021 C1022 1.397 . S
C1021 C1026 1.363 . S
C1022 H999 0.950 . S
C1022 C1021 1.397 . S
C1022 C1023 1.334 . S
C1023 H1000 0.950 . S
C1023 C1022 1.334 . S
C1023 C1024 1.287 . S
C1024 C1023 1.287 . S
C1024 C1025 1.524 . S
C1024 H1043 0.913 . S
C1025 H1001 0.950 . S
C1025 C1024 1.524 . S
C1025 C1026 1.415 . S
C1026 H1002 0.950 . S
C1026 C1021 1.363 . S
C1026 C1025 1.415 . S
C1027 H1003 0.951 . S
C1027 C1028 1.366 . S
C1027 C1029 1.388 . S
C1028 C1027 1.366 . S
C1028 C1032 1.385 . S
C1029 H1004 0.951 . S
C1029 C1027 1.388 . S
C1029 C1030 1.366 . S
C1030 C1029 1.366 . S
C1030 C1031 1.414 . S
C1030 C1033 1.499 . S
C1031 H1005 0.950 . S
C1031 C1030 1.414 . S
C1031 C1032 1.374 . S
C1032 H1006 0.950 . S
C1032 C1028 1.385 . S
C1032 C1031 1.374 . S
C1033 C1030 1.499 . S
C1033 C1034 1.373 . S
C1033 C1035 1.389 . S
C1034 H1007 0.950 . S
C1034 C1020 1.377 . S
C1034 C1033 1.373 . S
C1035 C1019 1.377 . S
C1035 C1033 1.389 . S
C1035 C1036 1.524 . S
C1036 C1035 1.524 . S
C1036 C1037 1.397 . S
C1036 C1041 1.363 . S
C1037 H1008 0.950 . S
C1037 C1036 1.397 . S
C1037 C1038 1.334 . S
C1038 H1009 0.950 . S
C1038 C1037 1.334 . S
C1038 C1039 1.287 . S
C1039 C1038 1.287 . S
C1039 C1040 1.524 . S
C1039 H1042 0.999 . S
C1040 H1010 0.950 . S
C1040 C1039 1.524 . S
C1040 C1041 1.415 . S
C1041 H1011 0.950 . S
C1041 C1036 1.363 . S
C1041 C1040 1.415 . S
H1042 C1039 0.999 . S
H1043 C1024 0.913 . S
H1044 C1062 0.951 . S
H1045 C1064 0.951 . S
H1046 C1066 0.950 . S
H1047 C1067 0.950 . S
H1048 C1069 0.950 . S
H1049 C1072 0.950 . S
H1050 C1073 0.950 . S
H1051 C1075 0.950 . S
H1052 C1076 0.950 . S
H1053 C1077 0.951 . S
H1054 C1079 0.951 . S
H1055 C1081 0.950 . S
H1056 C1082 0.950 . S
H1057 C1084 0.950 1_565 S
H1058 C1087 0.950 . S
H1059 C1088 0.950 . S
H1060 C1090 0.950 . S
H1061 C1091 0.950 . S
C1062 H1044 0.951 . S
C1062 C1063 1.366 . S
C1062 C1064 1.388 . S
C1063 C1062 1.366 . S
C1063 C1067 1.385 . S
C1064 H1045 0.951 . S
C1064 C1062 1.388 . S
C1064 C1065 1.366 . S
C1065 C1064 1.366 . S
C1065 C1066 1.414 . S
C1065 C1068 1.499 . S
C1066 H1046 0.950 . S
C1066 C1065 1.414 . S
C1066 C1067 1.374 . S
C1067 H1047 0.950 . S
C1067 C1063 1.385 . S
C1067 C1066 1.374 . S
C1068 C1065 1.499 . S
C1068 C1069 1.373 . S
C1068 C1070 1.389 . S
C1069 H1048 0.950 . S
C1069 C1068 1.373 . S
C1069 C1085 1.377 . S
C1070 C1068 1.389 . S
C1070 C1071 1.524 1_545 S
C1070 C1084 1.377 . S
C1071 C1070 1.524 1_565 S
C1071 C1072 1.397 . S
C1071 C1076 1.363 . S
C1072 H1049 0.950 . S
C1072 C1071 1.397 . S
C1072 C1073 1.334 . S
C1073 H1050 0.950 . S
C1073 C1072 1.334 . S
C1073 C1074 1.287 . S
C1074 C1073 1.287 . S
C1074 C1075 1.524 . S
C1074 H1093 0.913 . S
C1075 H1051 0.950 . S
C1075 C1074 1.524 . S
C1075 C1076 1.415 . S
C1076 H1052 0.950 . S
C1076 C1071 1.363 . S
C1076 C1075 1.415 . S
C1077 H1053 0.951 . S
C1077 C1078 1.366 . S
C1077 C1079 1.388 . S
C1078 C1077 1.366 . S
C1078 C1082 1.385 . S
C1079 H1054 0.951 . S
C1079 C1077 1.388 . S
C1079 C1080 1.366 . S
C1080 C1079 1.366 . S
C1080 C1081 1.414 . S
C1080 C1083 1.499 . S
C1081 H1055 0.950 . S
C1081 C1080 1.414 . S
C1081 C1082 1.374 . S
C1082 H1056 0.950 . S
C1082 C1078 1.385 . S
C1082 C1081 1.374 . S
C1083 C1080 1.499 . S
C1083 C1084 1.373 . S
C1083 C1085 1.389 . S
C1084 H1057 0.950 1_545 S
C1084 C1070 1.377 . S
C1084 C1083 1.373 . S
C1085 C1069 1.377 . S
C1085 C1083 1.389 . S
C1085 C1086 1.524 . S
C1086 C1085 1.524 . S
C1086 C1087 1.397 . S
C1086 C1091 1.363 . S
C1087 H1058 0.950 . S
C1087 C1086 1.397 . S
C1087 C1088 1.334 . S
C1088 H1059 0.950 . S
C1088 C1087 1.334 . S
C1088 C1089 1.287 . S
C1089 C1088 1.287 . S
C1089 C1090 1.524 . S
C1089 H1092 0.999 . S
C1090 H1060 0.950 . S
C1090 C1089 1.524 . S
C1090 C1091 1.415 . S
C1091 H1061 0.950 . S
C1091 C1086 1.363 . S
C1091 C1090 1.415 . S
H1092 C1089 0.999 . S
H1093 C1074 0.913 . S
H1094 C1112 0.951 . S
H1095 C1114 0.951 . S
H1096 C1116 0.950 . S
H1097 C1117 0.950 . S
H1098 C1119 0.950 . S
H1099 C1122 0.950 . S
H1100 C1123 0.950 . S
H1101 C1125 0.950 . S
H1102 C1126 0.950 . S
H1103 C1127 0.951 . S
H1104 C1129 0.951 . S
H1105 C1131 0.954 . S
H1106 C1132 0.950 . S
H1107 C1134 0.950 . S
H1108 C1137 0.950 . S
H1109 C1138 0.950 . S
H1110 C1140 0.950 . S
H1111 C1141 0.950 . S
C1112 H1094 0.951 . S
C1112 C1113 1.366 . S
C1112 C1114 1.388 . S
C1113 C1112 1.366 . S
C1113 C1117 1.385 . S
C1114 H1095 0.951 . S
C1114 C1112 1.388 . S
C1114 C1115 1.366 . S
C1115 C1114 1.366 . S
C1115 C1116 1.414 . S
C1115 C1118 1.499 . S
C1116 H1096 0.950 . S
C1116 C1115 1.414 . S
C1116 C1117 1.374 . S
C1117 H1097 0.950 . S
C1117 C1113 1.385 . S
C1117 C1116 1.374 . S
C1118 C1115 1.499 . S
C1118 C1119 1.373 . S
C1118 C1120 1.389 . S
C1119 H1098 0.950 . S
C1119 C1118 1.373 . S
C1119 C1135 1.377 . S
C1120 C1118 1.389 . S
C1120 C1121 1.524 . S
C1120 C1134 1.377 . S
C1121 C1120 1.524 . S
C1121 C1122 1.397 . S
C1121 C1126 1.363 . S
C1122 H1099 0.950 . S
C1122 C1121 1.397 . S
C1122 C1123 1.334 . S
C1123 H1100 0.950 . S
C1123 C1122 1.334 . S
C1123 C1124 1.287 . S
C1124 C1123 1.287 . S
C1124 C1125 1.524 . S
C1124 H1143 0.913 . S
C1125 H1101 0.950 . S
C1125 C1124 1.524 . S
C1125 C1126 1.415 . S
C1126 H1102 0.950 . S
C1126 C1121 1.363 . S
C1126 C1125 1.415 . S
C1127 H1103 0.951 . S
C1127 C1128 1.366 . S
C1127 C1129 1.388 1_554 S
C1128 C1127 1.366 . S
C1128 C1132 1.385 . S
C1129 H1104 0.951 . S
C1129 C1127 1.388 1_556 S
C1129 C1130 1.366 . S
C1130 C1129 1.366 . S
C1130 C1131 1.418 . S
C1130 C1133 1.499 . S
C1131 H1105 0.954 . S
C1131 C1130 1.418 . S
C1131 C1132 1.366 1_556 S
C1132 H1106 0.950 . S
C1132 C1128 1.385 . S
C1132 C1131 1.366 1_554 S
C1133 C1130 1.499 . S
C1133 C1134 1.373 . S
C1133 C1135 1.389 . S
C1134 H1107 0.950 . S
C1134 C1120 1.377 . S
C1134 C1133 1.373 . S
C1135 C1119 1.377 . S
C1135 C1133 1.389 . S
C1135 C1136 1.524 . S
C1136 C1135 1.524 . S
C1136 C1137 1.397 . S
C1136 C1141 1.363 . S
C1137 H1108 0.950 . S
C1137 C1136 1.397 . S
C1137 C1138 1.334 . S
C1138 H1109 0.950 . S
C1138 C1137 1.334 . S
C1138 C1139 1.287 . S
C1139 C1138 1.287 . S
C1139 C1140 1.524 . S
C1139 H1142 0.999 . S
C1140 H1110 0.950 . S
C1140 C1139 1.524 . S
C1140 C1141 1.415 . S
C1141 H1111 0.950 . S
C1141 C1136 1.363 . S
C1141 C1140 1.415 . S
H1142 C1139 0.999 . S
H1143 C1124 0.913 . S
H1144 C1162 0.951 . S
H1145 C1164 0.951 . S
H1146 C1166 0.950 . S
H1147 C1167 0.950 . S
H1148 C1169 0.950 1_655 S
H1149 C1172 0.950 . S
H1150 C1173 0.950 . S
H1151 C1175 0.950 . S
H1152 C1176 0.950 . S
H1153 C1177 0.951 . S
H1154 C1179 0.951 . S
H1155 C1181 0.950 . S
H1156 C1182 0.950 . S
H1157 C1184 0.950 . S
H1158 C1187 0.950 . S
H1159 C1188 0.950 . S
H1160 C1190 0.950 . S
H1161 C1191 0.950 . S
C1162 H1144 0.951 . S
C1162 C1163 1.366 . S
C1162 C1164 1.388 . S
C1163 C1162 1.366 . S
C1163 C1167 1.385 . S
C1164 H1145 0.951 . S
C1164 C1162 1.388 . S
C1164 C1165 1.366 . S
C1165 C1164 1.366 . S
C1165 C1166 1.414 . S
C1165 C1168 1.499 . S
C1166 H1146 0.950 . S
C1166 C1165 1.414 . S
C1166 C1167 1.374 . S
C1167 H1147 0.950 . S
C1167 C1163 1.385 . S
C1167 C1166 1.374 . S
C1168 C1165 1.499 . S
C1168 C1169 1.373 . S
C1168 C1170 1.389 . S
C1169 H1148 0.950 1_455 S
C1169 C1168 1.373 . S
C1169 C1185 1.377 . S
C1170 C1168 1.389 . S
C1170 C1171 1.524 . S
C1170 C1184 1.377 . S
C1171 C1170 1.524 . S
C1171 C1172 1.397 . S
C1171 C1176 1.363 . S
C1172 H1149 0.950 . S
C1172 C1171 1.397 . S
C1172 C1173 1.334 . S
C1173 H1150 0.950 . S
C1173 C1172 1.334 . S
C1173 C1174 1.287 . S
C1174 C1173 1.287 . S
C1174 C1175 1.524 . S
C1174 H1193 0.913 . S
C1175 H1151 0.950 . S
C1175 C1174 1.524 . S
C1175 C1176 1.415 . S
C1176 H1152 0.950 . S
C1176 C1171 1.363 . S
C1176 C1175 1.415 . S
C1177 H1153 0.951 . S
C1177 C1178 1.366 . S
C1177 C1179 1.388 . S
C1178 C1177 1.366 . S
C1178 C1182 1.385 . S
C1179 H1154 0.951 . S
C1179 C1177 1.388 . S
C1179 C1180 1.366 . S
C1180 C1179 1.366 . S
C1180 C1181 1.414 . S
C1180 C1183 1.499 . S
C1181 H1155 0.950 . S
C1181 C1180 1.414 . S
C1181 C1182 1.374 . S
C1182 H1156 0.950 . S
C1182 C1178 1.385 . S
C1182 C1181 1.374 . S
C1183 C1180 1.499 . S
C1183 C1184 1.373 . S
C1183 C1185 1.389 . S
C1184 H1157 0.950 . S
C1184 C1170 1.377 . S
C1184 C1183 1.373 . S
C1185 C1169 1.377 . S
C1185 C1183 1.389 . S
C1185 C1186 1.524 1_455 S
C1186 C1185 1.524 1_655 S
C1186 C1187 1.397 . S
C1186 C1191 1.363 . S
C1187 H1158 0.950 . S
C1187 C1186 1.397 . S
C1187 C1188 1.334 . S
C1188 H1159 0.950 . S
C1188 C1187 1.334 . S
C1188 C1189 1.287 . S
C1189 C1188 1.287 . S
C1189 C1190 1.524 . S
C1189 H1192 0.999 . S
C1190 H1160 0.950 . S
C1190 C1189 1.524 . S
C1190 C1191 1.415 . S
C1191 H1161 0.950 . S
C1191 C1186 1.363 . S
C1191 C1190 1.415 . S
H1192 C1189 0.999 . S
H1193 C1174 0.913 . S
C313 C2 1.047 . S
C328 C271 1.042 . S
C363 C21 0.970 . S
C378 C198 0.970 . S
C413 C42 1.045 . S
C428 C237 1.039 . S
C463 C1 0.952 . S
C478 C276 0.953 . S
C528 C193 1.023 . S
C513 C22 1.028 . S
C578 C232 0.954 . S
C563 C41 0.954 . S
C613 C38 1.830 . S
C628 C120 1.815 . S
C663 C59 1.919 . S
C678 C154 1.883 . S
C713 C18 1.815 . S
C728 C76 1.798 . S
C778 C115 1.864 . S
C763 C39 1.900 . S
C828 C159 1.795 . S
C813 C58 1.812 . S
C863 C19 1.915 . S
C878 C81 1.881 . S
C928 C139 1.565 . S
C913 C9 1.502 . S
C963 C29 1.504 . S
C978 C61 1.567 . S
C1013 C49 1.502 . S
C1028 C100 1.564 . S
C1078 C217 1.388 . S
C1063 C28 1.359 . S
C1128 C256 1.386 . S
C1113 C48 1.356 . S
C1163 C8 1.355 . S
C1178 C178 1.386 . S
