# Generated by pormake.
# Topology eea, (3,6)-cn, num edge types: 1
# Building blocks:
#     Node 0, Type 0, BuildingBlock: ESEHIV_clean_linker_0, # of connection points: 3
#     Node 1, Type 0, BuildingBlock: ESEHIV_clean_linker_0, # of connection points: 3
#     Node 2, Type 0, BuildingBlock: ESEHIV_clean_linker_0, # of connection points: 3
#     Node 3, Type 0, BuildingBlock: ESEHIV_clean_linker_0, # of connection points: 3
#     Node 4, Type 0, BuildingBlock: ESEHIV_clean_linker_0, # of connection points: 3
#     Node 5, Type 0, BuildingBlock: ESEHIV_clean_linker_0, # of connection points: 3
#     Node 6, Type 0, BuildingBlock: ESEHIV_clean_linker_0, # of connection points: 3
#     Node 7, Type 0, BuildingBlock: ESEHIV_clean_linker_0, # of connection points: 3
#     Node 8, Type 0, BuildingBlock: ESEHIV_clean_linker_0, # of connection points: 3
#     Node 9, Type 0, BuildingBlock: ESEHIV_clean_linker_0, # of connection points: 3
#     Node 10, Type 0, BuildingBlock: ESEHIV_clean_linker_0, # of connection points: 3
#     Node 11, Type 0, BuildingBlock: ESEHIV_clean_linker_0, # of connection points: 3
#     Node 12, Type 0, BuildingBlock: ESEHIV_clean_linker_0, # of connection points: 3
#     Node 13, Type 0, BuildingBlock: ESEHIV_clean_linker_0, # of connection points: 3
#     Node 14, Type 0, BuildingBlock: ESEHIV_clean_linker_0, # of connection points: 3
#     Node 15, Type 0, BuildingBlock: ESEHIV_clean_linker_0, # of connection points: 3
#     Node 16, Type 0, BuildingBlock: ESEHIV_clean_linker_0, # of connection points: 3
#     Node 17, Type 0, BuildingBlock: ESEHIV_clean_linker_0, # of connection points: 3
#     Node 18, Type 1, BuildingBlock: KUMBOL_clean_sbu_0, # of connection points: 6
#     Node 19, Type 1, BuildingBlock: KUMBOL_clean_sbu_0, # of connection points: 6
#     Node 20, Type 1, BuildingBlock: KUMBOL_clean_sbu_0, # of connection points: 6
#     Node 21, Type 1, BuildingBlock: KUMBOL_clean_sbu_0, # of connection points: 6
#     Node 22, Type 1, BuildingBlock: KUMBOL_clean_sbu_0, # of connection points: 6
#     Node 23, Type 1, BuildingBlock: KUMBOL_clean_sbu_0, # of connection points: 6
#     Node 24, Type 1, BuildingBlock: KUMBOL_clean_sbu_0, # of connection points: 6
#     Node 25, Type 1, BuildingBlock: KUMBOL_clean_sbu_0, # of connection points: 6
#     Node 26, Type 1, BuildingBlock: KUMBOL_clean_sbu_0, # of connection points: 6
#     Edge 27, Type (0, 1), BuildingBlock: XUDNAN_clean_linker_2, # of connection points: 2
#     Edge 28, Type (0, 1), BuildingBlock: XUDNAN_clean_linker_2, # of connection points: 2
#     Edge 29, Type (0, 1), BuildingBlock: XUDNAN_clean_linker_2, # of connection points: 2
#     Edge 30, Type (0, 1), BuildingBlock: XUDNAN_clean_linker_2, # of connection points: 2
#     Edge 31, Type (0, 1), BuildingBlock: XUDNAN_clean_linker_2, # of connection points: 2
#     Edge 32, Type (0, 1), BuildingBlock: XUDNAN_clean_linker_2, # of connection points: 2
#     Edge 33, Type (0, 1), BuildingBlock: XUDNAN_clean_linker_2, # of connection points: 2
#     Edge 34, Type (0, 1), BuildingBlock: XUDNAN_clean_linker_2, # of connection points: 2
#     Edge 35, Type (0, 1), BuildingBlock: XUDNAN_clean_linker_2, # of connection points: 2
#     Edge 36, Type (0, 1), BuildingBlock: XUDNAN_clean_linker_2, # of connection points: 2
#     Edge 37, Type (0, 1), BuildingBlock: XUDNAN_clean_linker_2, # of connection points: 2
#     Edge 38, Type (0, 1), BuildingBlock: XUDNAN_clean_linker_2, # of connection points: 2
#     Edge 39, Type (0, 1), BuildingBlock: XUDNAN_clean_linker_2, # of connection points: 2
#     Edge 40, Type (0, 1), BuildingBlock: XUDNAN_clean_linker_2, # of connection points: 2
#     Edge 41, Type (0, 1), BuildingBlock: XUDNAN_clean_linker_2, # of connection points: 2
#     Edge 42, Type (0, 1), BuildingBlock: XUDNAN_clean_linker_2, # of connection points: 2
#     Edge 43, Type (0, 1), BuildingBlock: XUDNAN_clean_linker_2, # of connection points: 2
#     Edge 44, Type (0, 1), BuildingBlock: XUDNAN_clean_linker_2, # of connection points: 2
#     Edge 45, Type (0, 1), BuildingBlock: XUDNAN_clean_linker_2, # of connection points: 2
#     Edge 46, Type (0, 1), BuildingBlock: XUDNAN_clean_linker_2, # of connection points: 2
#     Edge 47, Type (0, 1), BuildingBlock: XUDNAN_clean_linker_2, # of connection points: 2
#     Edge 48, Type (0, 1), BuildingBlock: XUDNAN_clean_linker_2, # of connection points: 2
#     Edge 49, Type (0, 1), BuildingBlock: XUDNAN_clean_linker_2, # of connection points: 2
#     Edge 50, Type (0, 1), BuildingBlock: XUDNAN_clean_linker_2, # of connection points: 2
#     Edge 51, Type (0, 1), BuildingBlock: XUDNAN_clean_linker_2, # of connection points: 2
#     Edge 52, Type (0, 1), BuildingBlock: XUDNAN_clean_linker_2, # of connection points: 2
#     Edge 53, Type (0, 1), BuildingBlock: XUDNAN_clean_linker_2, # of connection points: 2
#     Edge 54, Type (0, 1), BuildingBlock: XUDNAN_clean_linker_2, # of connection points: 2
#     Edge 55, Type (0, 1), BuildingBlock: XUDNAN_clean_linker_2, # of connection points: 2
#     Edge 56, Type (0, 1), BuildingBlock: XUDNAN_clean_linker_2, # of connection points: 2
#     Edge 57, Type (0, 1), BuildingBlock: XUDNAN_clean_linker_2, # of connection points: 2
#     Edge 58, Type (0, 1), BuildingBlock: XUDNAN_clean_linker_2, # of connection points: 2
#     Edge 59, Type (0, 1), BuildingBlock: XUDNAN_clean_linker_2, # of connection points: 2
#     Edge 60, Type (0, 1), BuildingBlock: XUDNAN_clean_linker_2, # of connection points: 2
#     Edge 61, Type (0, 1), BuildingBlock: XUDNAN_clean_linker_2, # of connection points: 2
#     Edge 62, Type (0, 1), BuildingBlock: XUDNAN_clean_linker_2, # of connection points: 2
#     Edge 63, Type (0, 1), BuildingBlock: XUDNAN_clean_linker_2, # of connection points: 2
#     Edge 64, Type (0, 1), BuildingBlock: XUDNAN_clean_linker_2, # of connection points: 2
#     Edge 65, Type (0, 1), BuildingBlock: XUDNAN_clean_linker_2, # of connection points: 2
#     Edge 66, Type (0, 1), BuildingBlock: XUDNAN_clean_linker_2, # of connection points: 2
#     Edge 67, Type (0, 1), BuildingBlock: XUDNAN_clean_linker_2, # of connection points: 2
#     Edge 68, Type (0, 1), BuildingBlock: XUDNAN_clean_linker_2, # of connection points: 2
#     Edge 69, Type (0, 1), BuildingBlock: XUDNAN_clean_linker_2, # of connection points: 2
#     Edge 70, Type (0, 1), BuildingBlock: XUDNAN_clean_linker_2, # of connection points: 2
#     Edge 71, Type (0, 1), BuildingBlock: XUDNAN_clean_linker_2, # of connection points: 2
#     Edge 72, Type (0, 1), BuildingBlock: XUDNAN_clean_linker_2, # of connection points: 2
#     Edge 73, Type (0, 1), BuildingBlock: XUDNAN_clean_linker_2, # of connection points: 2
#     Edge 74, Type (0, 1), BuildingBlock: XUDNAN_clean_linker_2, # of connection points: 2
#     Edge 75, Type (0, 1), BuildingBlock: XUDNAN_clean_linker_2, # of connection points: 2
#     Edge 76, Type (0, 1), BuildingBlock: XUDNAN_clean_linker_2, # of connection points: 2
#     Edge 77, Type (0, 1), BuildingBlock: XUDNAN_clean_linker_2, # of connection points: 2
#     Edge 78, Type (0, 1), BuildingBlock: XUDNAN_clean_linker_2, # of connection points: 2
#     Edge 79, Type (0, 1), BuildingBlock: XUDNAN_clean_linker_2, # of connection points: 2
#     Edge 80, Type (0, 1), BuildingBlock: XUDNAN_clean_linker_2, # of connection points: 2
# Relax obj value: 0.008
# Max RMSD: 0.088
# Mean RMSD: 0.073
data_MOF--net-eea--node1-KUMBOL_clean_sbu_0--node2-ESEHIV_clean_linker_0--edge1-XUDNAN_clean_linker_2
_symmetry_space_group_name_H-M    P1
_symmetry_Int_Tables_number       1
_symmetry_cell_setting            triclinic
loop_
_symmetry_equiv_pos_as_xyz
'x, y, z'
_cell_length_a     47.512919
_cell_length_b     48.647971
_cell_length_c     70.635635
_cell_angle_alpha  90.048502
_cell_angle_beta   90.058238
_cell_angle_gamma 119.90429
loop_
_atom_site_label
_atom_site_type_symbol
_atom_site_fract_x
_atom_site_fract_y
_atom_site_fract_z
_atom_type_partial_charge
H0 H 0.22651 0.15842 0.45006 0.0
H1 H 0.25323 0.08566 0.4494 0.0
H2 H 0.21365 0.10423 0.39954 0.0
C3 C 0.22839 0.13984 0.44271 0.0
C4 C 0.21806 0.13297 0.42379 0.0
C5 C 0.24115 0.12294 0.45216 0.0
C6 C 0.24366 0.09904 0.44233 0.0
C7 C 0.23406 0.09246 0.42329 0.0
C8 C 0.22118 0.10939 0.41422 0.0
H9 H 0.84435 0.09119 0.44408 0.0
H10 H 0.9312 0.18275 0.44462 0.0
H11 H 0.90156 0.12894 0.39328 0.0
C12 C 0.86534 0.10961 0.43679 0.0
C13 C 0.86964 0.10652 0.41725 0.0
C14 C 0.88798 0.13668 0.44695 0.0
C15 C 0.9144 0.16115 0.43722 0.0
C16 C 0.91911 0.15839 0.4179 0.0
C17 C 0.8973 0.13084 0.40816 0.0
H18 H 0.84092 0.76792 0.4433 0.0
H19 H 0.93026 0.76502 0.44292 0.0
H20 H 0.90827 0.80996 0.39742 0.0
C21 C 0.8634 0.77293 0.43647 0.0
C22 C 0.87191 0.78955 0.41923 0.0
C23 C 0.88435 0.76415 0.44536 0.0
C24 C 0.91392 0.77175 0.43641 0.0
C25 C 0.9228 0.78852 0.41919 0.0
C26 C 0.90168 0.79735 0.41079 0.0
H27 H 0.08458 0.24781 0.59397 0.0
H28 H 0.16661 0.23281 0.58907 0.0
H29 H 0.11039 0.20757 0.64024 0.0
C30 C 0.10043 0.23985 0.59974 0.0
C31 C 0.09457 0.22754 0.61824 0.0
C32 C 0.1263 0.24192 0.5888 0.0
C33 C 0.1461 0.23094 0.59686 0.0
C34 C 0.14033 0.21843 0.61532 0.0
C35 C 0.1145 0.21668 0.6259 0.0
H36 H 0.7897 0.93348 0.58504 0.0
H37 H 0.76046 0.8349 0.5889 0.0
H38 H 0.80352 0.89635 0.63728 0.0
C39 C 0.7879 0.91378 0.59318 0.0
C40 C 0.79874 0.91869 0.61202 0.0
C41 C 0.77414 0.88378 0.58475 0.0
C42 C 0.77059 0.85803 0.59553 0.0
C43 C 0.78125 0.86224 0.61453 0.0
C44 C 0.79528 0.89277 0.6227 0.0
H45 H 0.08002 0.83132 0.58322 0.0
H46 H 0.17414 0.91435 0.59065 0.0
H47 H 0.10391 0.88285 0.63565 0.0
C48 C 0.09748 0.85059 0.59201 0.0
C49 C 0.08879 0.85433 0.61048 0.0
C50 C 0.12798 0.87287 0.58454 0.0
C51 C 0.15028 0.89791 0.59615 0.0
C52 C 0.1422 0.90154 0.61479 0.0
C53 C 0.1111 0.87986 0.62159 0.0
H54 H 0.93568 0.51071 0.7868 0.0
H55 H 0.92342 0.41797 0.79594 0.0
H56 H 0.89538 0.44018 0.74279 0.0
C57 C 0.92815 0.48702 0.7817 0.0
C58 C 0.91629 0.47841 0.76304 0.0
C59 C 0.93009 0.46501 0.79383 0.0
C60 C 0.92066 0.43445 0.7869 0.0
C61 C 0.90836 0.42519 0.76841 0.0
C62 C 0.90605 0.44735 0.75675 0.0
H63 H 0.51761 0.41175 0.78392 0.0
H64 H 0.59511 0.50835 0.77887 0.0
H65 H 0.57094 0.44372 0.73189 0.0
C66 C 0.53665 0.43058 0.77563 0.0
C67 C 0.5418 0.42429 0.75696 0.0
C68 C 0.55569 0.46072 0.78375 0.0
C69 C 0.5798 0.48513 0.77268 0.0
C70 C 0.58557 0.47904 0.75398 0.0
C71 C 0.56633 0.44861 0.74618 0.0
H72 H 0.49995 0.07859 0.76941 0.0
H73 H 0.59362 0.08559 0.77522 0.0
H74 H 0.57266 0.12741 0.72717 0.0
C75 C 0.52435 0.08675 0.76425 0.0
C76 C 0.53383 0.10352 0.74719 0.0
C77 C 0.54549 0.07997 0.77456 0.0
C78 C 0.57716 0.09097 0.76759 0.0
C79 C 0.58734 0.10847 0.75053 0.0
C80 C 0.5655 0.11485 0.74055 0.0
H81 H 0.73761 0.57093 0.92468 0.0
H82 H 0.82912 0.57312 0.91936 0.0
H83 H 0.77736 0.54643 0.97216 0.0
C84 C 0.75616 0.56657 0.93049 0.0
C85 C 0.75386 0.55707 0.94949 0.0
C86 C 0.78317 0.57233 0.91934 0.0
C87 C 0.80793 0.56838 0.92759 0.0
C88 C 0.80562 0.55844 0.94649 0.0
C89 C 0.77848 0.55267 0.95734 0.0
H90 H 0.41673 0.25479 0.91268 0.0
H91 H 0.43394 0.1757 0.91124 0.0
H92 H 0.45304 0.23127 0.96202 0.0
C93 C 0.42492 0.24008 0.91953 0.0
C94 C 0.43504 0.24594 0.93849 0.0
C95 C 0.4238 0.21433 0.90969 0.0
C96 C 0.43402 0.19506 0.91889 0.0
C97 C 0.44549 0.20152 0.93768 0.0
C98 C 0.4452 0.22661 0.94737 0.0
H99 H 0.74603 0.16499 0.92386 0.0
H100 H 0.84051 0.24842 0.92281 0.0
H101 H 0.78383 0.22329 0.97381 0.0
C102 C 0.76546 0.18526 0.93108 0.0
C103 C 0.76153 0.19166 0.95006 0.0
C104 C 0.79373 0.2061 0.92112 0.0
C105 C 0.81861 0.23244 0.93049 0.0
C106 C 0.81545 0.23866 0.94951 0.0
C107 C 0.78657 0.2185 0.95914 0.0
H108 H 0.58602 0.8421 0.11258 0.0
H109 H 0.59563 0.75974 0.12058 0.0
H110 H 0.54262 0.76493 0.07267 0.0
C111 C 0.58145 0.8191 0.1077 0.0
C112 C 0.56325 0.80579 0.09109 0.0
C113 C 0.5928 0.80238 0.1185 0.0
C114 C 0.58602 0.77217 0.11251 0.0
C115 C 0.56772 0.75826 0.09604 0.0
C116 C 0.55667 0.77541 0.08539 0.0
H117 H 0.17246 0.77282 0.11226 0.0
H118 H 0.26136 0.85962 0.10168 0.0
H119 H 0.22679 0.78318 0.06147 0.0
C120 C 0.19302 0.78703 0.10319 0.0
C121 C 0.19644 0.77413 0.08606 0.0
C122 C 0.21643 0.81765 0.10913 0.0
C123 C 0.24305 0.83605 0.09724 0.0
C124 C 0.24686 0.82384 0.07998 0.0
C125 C 0.22345 0.79289 0.07453 0.0
H126 H 0.16981 0.42837 0.10883 0.0
H127 H 0.26299 0.4329 0.10872 0.0
H128 H 0.22875 0.457 0.05865 0.0
C129 C 0.19186 0.43295 0.10164 0.0
C130 C 0.19623 0.44244 0.08253 0.0
C131 C 0.2158 0.42934 0.11138 0.0
C132 C 0.24433 0.43566 0.1016 0.0
C133 C 0.24934 0.4461 0.08272 0.0
C134 C 0.22509 0.4492 0.07327 0.0
H135 H 0.4118 0.91093 0.25551 0.0
H136 H 0.49615 0.89939 0.25348 0.0
H137 H 0.43456 0.87005 0.30266 0.0
C138 C 0.42748 0.9032 0.2618 0.0
C139 C 0.42019 0.89015 0.28009 0.0
C140 C 0.45466 0.90646 0.25178 0.0
C141 C 0.47462 0.89635 0.26062 0.0
C142 C 0.4673 0.88277 0.27887 0.0
C143 C 0.43977 0.87943 0.28837 0.0
H144 H 0.07407 0.58006 0.24482 0.0
H145 H 0.06971 0.49132 0.25684 0.0
H146 H 0.12428 0.57172 0.29315 0.0
C147 C 0.08126 0.56615 0.25341 0.0
C148 C 0.10022 0.57968 0.26974 0.0
C149 C 0.07038 0.53435 0.24849 0.0
C150 C 0.07837 0.51594 0.26034 0.0
C151 C 0.09723 0.52905 0.27675 0.0
C152 C 0.10852 0.56106 0.28103 0.0
H153 H 0.41505 0.49782 0.25593 0.0
H154 H 0.50912 0.58151 0.26189 0.0
H155 H 0.44031 0.55185 0.30751 0.0
C156 C 0.43273 0.51744 0.26441 0.0
C157 C 0.42443 0.52205 0.2828 0.0
C158 C 0.46303 0.53937 0.25657 0.0
C159 C 0.48545 0.56513 0.26768 0.0
C160 C 0.47775 0.56971 0.28619 0.0
C161 C 0.44704 0.54813 0.29348 0.0
Gd162 Gd 0.51738 0.02003 0.03599 0.0
Gd163 Gd 0.49077 0.98146 0.98879 0.0
C164 C 0.39044 0.89394 0.98289 0.0
C165 C 0.40356 0.85204 0.97833 0.0
C166 C 0.44667 0.90672 0.98217 0.0
C167 C 0.42386 0.91633 0.98399 0.0
C168 C 0.43682 0.87461 0.9788 0.0
C169 C 0.38042 0.86168 0.98042 0.0
C170 C 0.36812 0.90471 0.98402 0.0
C171 C 0.37937 0.93717 0.98563 0.0
N172 N 0.43436 0.94768 0.9863 0.0
C173 C 0.41278 0.95849 0.9865 0.0
H174 H 0.42113 0.98348 0.98784 0.0
C175 C 0.50191 0.92151 0.97818 0.0
N176 N 0.4786 0.92912 0.98267 0.0
C177 C 0.49334 0.88993 0.97489 0.0
C178 C 0.46068 0.8663 0.97547 0.0
H179 H 0.52718 0.93979 0.97777 0.0
H180 H 0.35484 0.8441 0.97971 0.0
H181 H 0.58668 0.0132 0.03419 0.0
H182 H 0.34224 0.88825 0.98335 0.0
H183 H 0.36233 0.94578 0.98627 0.0
H184 H 0.39549 0.82719 0.97596 0.0
H185 H 0.48644 0.06506 0.05004 0.0
H186 H 0.66817 0.10507 0.04219 0.0
H187 H 0.64497 0.04784 0.03617 0.0
H188 H 0.62176 0.17053 0.05491 0.0
H189 H 0.5119 0.88384 0.97188 0.0
H190 H 0.4541 0.84187 0.97284 0.0
H191 H 0.65931 0.15054 0.049 0.0
H192 H 0.50585 0.12105 0.05846 0.0
N193 N 0.5749 0.04991 0.03881 0.0
C194 C 0.64205 0.08985 0.04144 0.0
C195 C 0.62905 0.05758 0.03807 0.0
C196 C 0.62124 0.10204 0.04413 0.0
C197 C 0.58735 0.08126 0.04287 0.0
C198 C 0.5954 0.03783 0.03698 0.0
N199 N 0.53383 0.07234 0.04504 0.0
C200 C 0.56625 0.09276 0.04599 0.0
C201 C 0.52309 0.11347 0.05488 0.0
C202 C 0.55632 0.13522 0.05493 0.0
C203 C 0.5122 0.08185 0.05013 0.0
C204 C 0.57838 0.12494 0.05072 0.0
H205 H 0.56472 0.15974 0.05862 0.0
O206 O 0.5155 0.02809 0.06627 0.0
O207 O 0.47745 0.98398 0.01864 0.0
O208 O 0.4792 0.02145 0.99111 0.0
O209 O 0.50848 0.05252 0.01716 0.0
O210 O 0.46449 0.00715 0.03794 0.0
O211 O 0.50066 0.9812 0.05618 0.0
O212 O 0.51793 0.99098 0.96256 0.0
O213 O 0.52944 0.02076 1.00559 0.0
O214 O 0.53201 0.98268 0.03129 0.0
O215 O 0.49426 0.94804 1.00934 0.0
O216 O 0.54471 0.99929 0.98633 0.0
O217 O 0.47343 0.99275 0.96292 0.0
C218 C 0.45331 0.9845 0.0256 0.0
C219 C 0.61202 0.1457 0.05148 0.0
C220 C 0.63339 0.13429 0.04815 0.0
C221 C 0.50577 0.99892 0.07099 0.0
C222 C 0.52272 0.99391 0.08701 0.0
C223 C 0.55354 0.99731 0.08445 0.0
C224 C 0.50788 0.98528 0.10498 0.0
C225 C 0.52362 0.9797 0.12028 0.0
C226 C 0.56938 0.99222 0.09953 0.0
C227 C 0.55453 0.98327 0.11725 0.0
C228 C 0.49156 0.04784 1.00135 0.0
C229 C 0.55432 0.02214 0.99841 0.0
C230 C 0.4968 0.99423 0.95247 0.0
C231 C 0.48736 0.97663 0.93432 0.0
C232 C 0.47281 0.94351 0.93444 0.0
C233 C 0.49352 0.99264 0.91677 0.0
C234 C 0.48479 0.97527 0.89962 0.0
C235 C 0.46496 0.92642 0.91761 0.0
C236 C 0.47097 0.94209 0.90035 0.0
C237 C 0.51524 0.95435 0.02326 0.0
H238 H 0.56533 0.00387 0.07078 0.0
H239 H 0.48399 0.98253 0.10697 0.0
H240 H 0.59337 0.99532 0.09751 0.0
H241 H 0.56758 0.97978 0.12872 0.0
H242 H 0.46763 0.9307 0.94752 0.0
H243 H 0.50436 0.01821 0.9165 0.0
H244 H 0.45404 0.90087 0.91795 0.0
H245 H 0.46457 0.92811 0.88748 0.0
Gd246 Gd 0.97892 0.49548 0.03776 0.0
Gd247 Gd 0.02959 0.51728 0.99494 0.0
C248 C 0.05887 0.45552 0.96108 0.0
C249 C 0.11019 0.46801 0.97574 0.0
C250 C 0.08017 0.4933 0.98693 0.0
C251 C 0.05598 0.47631 0.97382 0.0
C252 C 0.10783 0.48968 0.98784 0.0
C253 C 0.08578 0.45099 0.96236 0.0
C254 C 0.0351 0.44061 0.94707 0.0
C255 C 0.00995 0.44749 0.9456 0.0
N256 N 0.03025 0.48115 0.97298 0.0
C257 C 0.00823 0.4684 0.95851 0.0
H258 H 0.98888 0.47382 0.95715 0.0
C259 C 0.10169 0.53304 1.01055 0.0
N260 N 0.07712 0.51401 0.99845 0.0
C261 C 0.12953 0.53027 1.01197 0.0
C262 C 0.13248 0.50826 1.00072 0.0
H263 H 0.09981 0.55 0.01948 0.0
H264 H 0.08828 0.4349 0.95281 0.0
H265 H 0.96688 0.55746 0.03621 0.0
H266 H 0.03647 0.42451 0.937 0.0
H267 H 0.99198 0.43682 0.93448 0.0
H268 H 0.1311 0.46469 0.97636 0.0
H269 H 0.94525 0.41885 0.04944 0.0
H270 H 0.86493 0.52349 0.03222 0.0
H271 H 0.92144 0.56809 0.03369 0.0
H272 H 0.81805 0.41101 0.03885 0.0
H273 H 0.14863 0.54506 0.0218 0.0
H274 H 0.15403 0.5061 1.00191 0.0
H275 H 0.82645 0.46467 0.03394 0.0
H276 H 0.89066 0.37165 0.05224 0.0
N277 N 0.93663 0.5073 0.03545 0.0
C278 C 0.88482 0.51867 0.0332 0.0
C279 C 0.91666 0.5439 0.03411 0.0
C280 C 0.87899 0.48754 0.03428 0.0
C281 C 0.90578 0.48261 0.03548 0.0
C282 C 0.94238 0.53775 0.03552 0.0
N283 N 0.92757 0.44938 0.04078 0.0
C284 C 0.90107 0.45258 0.03825 0.0
C285 C 0.89324 0.39424 0.04819 0.0
C286 C 0.86576 0.39688 0.04466 0.0
C287 C 0.92411 0.42101 0.04657 0.0
C288 C 0.86942 0.42641 0.03996 0.0
H289 H 0.84186 0.3762 0.04616 0.0
O290 O 0.9896 0.4832 0.06551 0.0
O291 O 0.02614 0.50453 0.02539 0.0
O292 O 0.99892 0.46399 0.99642 0.0
O293 O 0.95546 0.45572 0.01596 0.0
O294 O 1.00108 0.46473 0.04257 0.0
O295 O 0.97896 0.52111 0.06299 0.0
O296 O 0.07118 0.55655 0.98106 0.0
O297 O 0.99017 0.52076 1.01022 0.0
O298 O 0.01309 0.54831 0.03764 0.0
O299 O 0.0542 0.55742 0.01629 0.0
O300 O 0.98097 0.50445 0.98254 0.0
O301 O 0.02286 0.54346 0.97208 0.0
C302 C 0.02651 0.48066 0.03235 0.0
C303 C 0.84257 0.43086 0.03777 0.0
C304 C 0.84736 0.46141 0.03498 0.0
C305 C 0.98442 0.50349 0.07452 0.0
C306 C 0.96331 0.49146 0.09128 0.0
C307 C 0.92959 0.47808 0.08949 0.0
C308 C 0.97695 0.49309 0.10922 0.0
C309 C 0.95697 0.48126 0.12536 0.0
C310 C 0.90969 0.46644 0.10538 0.0
C311 C 0.92319 0.46799 0.12318 0.0
C312 C 0.96929 0.44594 1.00332 0.0
C313 C 0.96949 0.51182 0.99694 0.0
C314 C 0.05352 0.55973 0.9681 0.0
C315 C 0.06295 0.55973 0.94801 0.0
C316 C 0.096 0.57499 0.94325 0.0
C317 C 0.03952 0.54503 0.93347 0.0
C318 C 0.0491 0.54548 0.91446 0.0
C319 C 0.10561 0.57535 0.92457 0.0
C320 C 0.08247 0.56072 0.9103 0.0
C321 C 0.04258 0.56606 0.03072 0.0
H322 H 0.91865 0.47673 0.07584 0.0
H323 H 1.00299 0.50313 0.11055 0.0
H324 H 0.88369 0.45625 0.1039 0.0
H325 H 0.90717 0.45913 0.13531 0.0
H326 H 0.11449 0.58661 0.95403 0.0
H327 H 0.01392 0.53357 0.93688 0.0
H328 H 0.13119 0.58696 0.92112 0.0
H329 H 0.09083 0.56099 0.89601 0.0
Gd330 Gd 0.4949 0.51461 0.99758 0.0
Gd331 Gd 0.51688 0.48724 0.04145 0.0
C332 C 0.61158 0.48456 0.04396 0.0
C333 C 0.59204 0.42793 0.04526 0.0
C334 C 0.55386 0.44743 0.04458 0.0
C335 C 0.5792 0.47818 0.04345 0.0
C336 C 0.55993 0.42196 0.04611 0.0
C337 C 0.61786 0.45922 0.0442 0.0
C338 C 0.63655 0.51613 0.04517 0.0
C339 C 0.62878 0.54017 0.04693 0.0
N340 N 0.57214 0.50195 0.04364 0.0
C341 C 0.59621 0.53254 0.04648 0.0
H342 H 0.59052 0.55135 0.04772 0.0
C343 C 0.49796 0.41353 0.05033 0.0
N344 N 0.52331 0.44271 0.04574 0.0
C345 C 0.50259 0.38737 0.05174 0.0
C346 C 0.53365 0.3915 0.04927 0.0
H347 H 0.47397 0.41036 0.05232 0.0
H348 H 0.64257 0.46362 0.0443 0.0
H349 H 0.42226 0.4467 0.99503 0.0
H350 H 0.66177 0.52208 0.04554 0.0
H351 H 0.64784 0.5646 0.0485 0.0
H352 H 0.59722 0.40866 0.04615 0.0
H353 H 0.53478 0.59232 0.98934 0.0
H354 H 0.34763 0.47074 0.99008 0.0
H355 H 0.36459 0.4304 0.99264 0.0
H356 H 0.40655 0.58411 0.9853 0.0
H357 H 0.48226 0.3641 0.05478 0.0
H358 H 0.53726 0.37127 0.05053 0.0
H359 H 0.36349 0.52818 0.98746 0.0
H360 H 0.52301 0.63586 0.98447 0.0
N361 N 0.43871 0.49631 0.99426 0.0
C362 C 0.3732 0.47816 0.99107 0.0
C363 C 0.38269 0.45534 0.99248 0.0
C364 C 0.39687 0.51027 0.9906 0.0
C365 C 0.42982 0.51865 0.99211 0.0
C366 C 0.41568 0.46483 0.9938 0.0
N367 N 0.48514 0.55684 0.99208 0.0
C368 C 0.45386 0.54997 0.99106 0.0
C369 C 0.50329 0.61182 0.98636 0.0
C370 C 0.47116 0.60532 0.98617 0.0
C371 C 0.50987 0.58709 0.9891 0.0
C372 C 0.44592 0.57401 0.98827 0.0
H373 H 0.46611 0.62449 0.98404 0.0
O374 O 0.52281 0.53519 0.97194 0.0
O375 O 0.5323 0.50738 0.0124 0.0
O376 O 0.53408 0.53997 0.0423 0.0
O377 O 0.50319 0.55037 0.02057 0.0
O378 O 0.54825 0.5495 0.99767 0.0
O379 O 0.48215 0.48722 0.97152 0.0
O380 O 0.48899 0.46973 0.06739 0.0
O381 O 0.48101 0.49594 0.02667 0.0
O382 O 0.47759 0.46178 0.99663 0.0
O383 O 0.50581 0.44989 0.01944 0.0
O384 O 0.46216 0.456 0.04318 0.0
O385 O 0.53554 0.51295 0.06792 0.0
C386 C 0.55727 0.533 1.00753 0.0
C387 C 0.41317 0.56597 0.98729 0.0
C388 C 0.38867 0.53413 0.98849 0.0
C389 C 0.50494 0.51016 0.96169 0.0
C390 C 0.49601 0.51553 0.9427 0.0
C391 C 0.47651 0.52934 0.94018 0.0
C392 C 0.50717 0.5064 0.92682 0.0
C393 C 0.4987 0.51058 0.90833 0.0
C394 C 0.46824 0.53391 0.92194 0.0
C395 C 0.47914 0.52458 0.90611 0.0
C396 C 0.52164 0.55732 0.03594 0.0
C397 C 0.45474 0.47322 0.03275 0.0
C398 C 0.51066 0.49264 0.07777 0.0
C399 C 0.51726 0.48386 0.09648 0.0
C400 C 0.52987 0.4634 0.09834 0.0
C401 C 0.50998 0.49571 0.11278 0.0
C402 C 0.51508 0.48716 0.13099 0.0
C403 C 0.53492 0.4547 0.11633 0.0
C404 C 0.52754 0.46639 0.13256 0.0
C405 C 0.48706 0.44287 1.00431 0.0
H406 H 0.46767 0.53647 0.95228 0.0
H407 H 0.52263 0.49615 0.92895 0.0
H408 H 0.45307 0.54448 0.92004 0.0
H409 H 0.47167 0.52775 0.89218 0.0
H410 H 0.53567 0.4541 0.08593 0.0
H411 H 0.49991 0.51127 0.11122 0.0
H412 H 0.54468 0.43889 0.11771 0.0
H413 H 0.53214 0.45961 0.14632 0.0
Gd414 Gd 0.18511 0.35678 0.3732 0.0
Gd415 Gd 0.15144 0.31761 0.32686 0.0
C416 C 0.04919 0.23346 0.31952 0.0
C417 C 0.05986 0.1906 0.31238 0.0
C418 C 0.1046 0.24399 0.31793 0.0
C419 C 0.08286 0.25456 0.32111 0.0
C420 C 0.0934 0.21201 0.31324 0.0
C421 C 0.03779 0.20132 0.31547 0.0
C422 C 0.02802 0.24546 0.32154 0.0
C423 C 0.04067 0.27794 0.32429 0.0
N424 N 0.0947 0.28584 0.3247 0.0
C425 C 0.07429 0.29798 0.32548 0.0
H426 H 0.08377 0.32307 0.3275 0.0
C427 C 0.15923 0.25679 0.31379 0.0
N428 N 0.13682 0.26535 0.31867 0.0
C429 C 0.14931 0.22528 0.30919 0.0
C430 C 0.11626 0.20271 0.30909 0.0
H431 H 0.1848 0.27416 0.31392 0.0
H432 H 0.01199 0.1847 0.31437 0.0
H433 H 0.24656 0.33791 0.3687 0.0
H434 H 1.00197 0.23 0.32053 0.0
H435 H 0.02455 0.28758 0.32546 0.0
H436 H 0.05075 0.16588 0.30893 0.0
H437 H 0.16852 0.41098 0.39032 0.0
H438 H 0.33677 0.42396 0.36874 0.0
H439 H 0.30513 0.36567 0.3661 0.0
H440 H 0.30847 0.50316 0.38291 0.0
H441 H 0.16715 0.21843 0.30572 0.0
H442 H 0.10864 0.17834 0.30545 0.0
H443 H 0.33774 0.47501 0.37476 0.0
H444 H 0.19689 0.46876 0.39646 0.0
N445 N 0.24281 0.37979 0.37254 0.0
C446 C 0.31057 0.41186 0.37001 0.0
C447 C 0.29279 0.37899 0.36853 0.0
C448 C 0.2944 0.42867 0.37357 0.0
C449 C 0.26016 0.41181 0.37497 0.0
C450 C 0.25897 0.36324 0.37003 0.0
N451 N 0.21105 0.41099 0.38101 0.0
C452 C 0.24376 0.42784 0.37927 0.0
C453 C 0.21035 0.45764 0.39146 0.0
C454 C 0.24377 0.47575 0.3885 0.0
C455 C 0.19439 0.42504 0.38793 0.0
C456 C 0.261 0.46084 0.38266 0.0
H457 H 0.25614 0.50103 0.39126 0.0
O458 O 0.18683 0.36716 0.40338 0.0
O459 O 0.1416 0.32192 0.35731 0.0
O460 O 0.14268 0.35889 0.33034 0.0
O461 O 0.17302 0.38947 0.35637 0.0
O462 O 0.13469 0.34937 0.37716 0.0
O463 O 0.16863 0.3192 0.39427 0.0
O464 O 0.17525 0.32558 0.29952 0.0
O465 O 0.1932 0.35577 0.34243 0.0
O466 O 0.1919 0.31444 0.36791 0.0
O467 O 0.15079 0.28147 0.347 0.0
O468 O 0.20433 0.33173 0.32274 0.0
O469 O 0.1353 0.33465 0.30308 0.0
C470 C 0.12036 0.32656 0.36505 0.0
C471 C 0.29487 0.47776 0.3806 0.0
C472 C 0.31153 0.46172 0.376 0.0
C473 C 0.17587 0.33806 0.40871 0.0
C474 C 0.19305 0.33286 0.4245 0.0
C475 C 0.22419 0.3371 0.42185 0.0
C476 C 0.1781 0.32333 0.44239 0.0
C477 C 0.19402 0.31764 0.45753 0.0
C478 C 0.24018 0.33179 0.43678 0.0
C479 C 0.22518 0.32188 0.45442 0.0
C480 C 0.15527 0.38487 0.34089 0.0
C481 C 0.21652 0.35537 0.33432 0.0
C482 C 0.15632 0.33429 0.29135 0.0
C483 C 0.14459 0.32155 0.27222 0.0
C484 C 0.12005 0.29003 0.26963 0.0
C485 C 0.15868 0.34111 0.25629 0.0
C486 C 0.14869 0.32925 0.23773 0.0
C487 C 0.10985 0.27809 0.2514 0.0
C488 C 0.12406 0.29738 0.23558 0.0
C489 C 0.17212 0.28618 0.36046 0.0
H490 H 0.23608 0.34443 0.40825 0.0
H491 H 0.15401 0.32005 0.44445 0.0
H492 H 0.26425 0.33515 0.43462 0.0
H493 H 0.23827 0.31816 0.46576 0.0
H494 H 0.10895 0.27465 0.28168 0.0
H495 H 0.17732 0.3656 0.25846 0.0
H496 H 0.09103 0.25363 0.24949 0.0
H497 H 0.11611 0.28702 0.22167 0.0
Gd498 Gd 0.64893 0.8338 0.37418 0.0
Gd499 Gd 0.69214 0.84497 0.32853 0.0
C500 C 0.78437 0.83765 0.32896 0.0
C501 C 0.82571 0.89133 0.32072 0.0
C502 C 0.76901 0.87733 0.32265 0.0
C503 C 0.76047 0.8467 0.32767 0.0
C504 C 0.80157 0.89971 0.31848 0.0
C505 C 0.81713 0.86035 0.32599 0.0
C506 C 0.77453 0.80588 0.33267 0.0
C507 C 0.7415 0.78383 0.33422 0.0
N508 N 0.72856 0.82533 0.33024 0.0
C509 C 0.71869 0.79392 0.33268 0.0
H510 H 0.69332 0.77657 0.33407 0.0
C511 C 0.75146 0.91245 0.31217 0.0
N512 N 0.74506 0.88449 0.3204 0.0
C513 C 0.7834 0.93559 0.308 0.0
C514 C 0.80867 0.9294 0.31148 0.0
H515 H 0.73188 0.91719 0.30945 0.0
H516 H 0.83587 0.85394 0.32716 0.0
H517 H 0.64661 0.90139 0.36689 0.0
H518 H 0.79214 0.798 0.33389 0.0
H519 H 0.73358 0.75908 0.33672 0.0
H520 H 0.85093 0.90832 0.31783 0.0
H521 H 0.61117 0.76298 0.39474 0.0
H522 H 0.54785 0.87966 0.36978 0.0
H523 H 0.60593 0.91831 0.3646 0.0
H524 H 0.49125 0.77101 0.38961 0.0
H525 H 0.7885 0.95811 0.30206 0.0
H526 H 0.83338 0.94726 0.30811 0.0
H527 H 0.50511 0.82446 0.3789 0.0
H528 H 0.55543 0.72252 0.4041 0.0
N529 N 0.6121 0.85308 0.37283 0.0
C530 C 0.56566 0.87202 0.37084 0.0
C531 C 0.59842 0.89391 0.36797 0.0
C532 C 0.55641 0.84074 0.37562 0.0
C533 C 0.58055 0.83197 0.37664 0.0
C534 C 0.6215 0.88413 0.36933 0.0
N535 N 0.59686 0.79499 0.38406 0.0
C536 C 0.57267 0.8019 0.38241 0.0
C537 C 0.55987 0.74464 0.39787 0.0
C538 C 0.53425 0.75056 0.39512 0.0
C539 C 0.59133 0.76752 0.39256 0.0
C540 C 0.54057 0.77974 0.38765 0.0
H541 H 0.50992 0.73289 0.39933 0.0
O542 O 0.66181 0.82332 0.40165 0.0
O543 O 0.69193 0.83762 0.35951 0.0
O544 O 0.65354 0.79317 0.33286 0.0
O545 O 0.61896 0.78849 0.35797 0.0
O546 O 0.67031 0.80225 0.37956 0.0
O547 O 0.66135 0.86719 0.39743 0.0
O548 O 0.68248 0.85691 0.30054 0.0
O549 O 0.64875 0.8406 0.34304 0.0
O550 O 0.68661 0.88568 0.36957 0.0
O551 O 0.72223 0.88953 0.3454 0.0
O552 O 0.66976 0.87556 0.32275 0.0
O553 O 0.68159 0.81246 0.30499 0.0
C554 C 0.69453 0.81626 0.3681 0.0
C555 C 0.51614 0.78783 0.38587 0.0
C556 C 0.52404 0.81827 0.37981 0.0
C557 C 0.66566 0.84922 0.4094 0.0
C558 C 0.65227 0.84606 0.4285 0.0
C559 C 0.61944 0.83618 0.43147 0.0
C560 C 0.67301 0.8526 0.44407 0.0
C561 C 0.66142 0.84985 0.46271 0.0
C562 C 0.60757 0.83305 0.44991 0.0
C563 C 0.62835 0.83986 0.46545 0.0
C564 C 0.62708 0.77685 0.34333 0.0
C565 C 0.64559 0.86147 0.33423 0.0
C566 C 0.68041 0.83179 0.29263 0.0
C567 C 0.69946 0.83745 0.2752 0.0
C568 C 0.73161 0.84362 0.27596 0.0
C569 C 0.68586 0.83816 0.25766 0.0
C570 C 0.70452 0.84573 0.24102 0.0
C571 C 0.75018 0.85109 0.25949 0.0
C572 C 0.73685 0.85237 0.24212 0.0
C573 C 0.71377 0.90148 0.35968 0.0
H574 H 0.60309 0.83093 0.4196 0.0
H575 H 0.69822 0.8596 0.44158 0.0
H576 H 0.58221 0.8255 0.45218 0.0
H577 H 0.61862 0.83784 0.47956 0.0
H578 H 0.7424 0.8428 0.28924 0.0
H579 H 0.66105 0.83349 0.25701 0.0
H580 H 0.77502 0.85598 0.26021 0.0
H581 H 0.75164 0.85812 0.22949 0.0
Gd582 Gd 0.15786 0.85006 0.3249 0.0
Gd583 Gd 0.18441 0.8261 0.36855 0.0
C584 C 0.27911 0.82394 0.37349 0.0
C585 C 0.2597 0.76742 0.37579 0.0
C586 C 0.22138 0.78659 0.37315 0.0
C587 C 0.24674 0.81744 0.37215 0.0
C588 C 0.2275 0.76125 0.37538 0.0
C589 C 0.28547 0.79874 0.37488 0.0
C590 C 0.30405 0.8556 0.37403 0.0
C591 C 0.29628 0.87974 0.37408 0.0
N592 N 0.23968 0.84119 0.37112 0.0
C593 C 0.26375 0.87204 0.37298 0.0
H594 H 0.25814 0.89096 0.37309 0.0
C595 C 0.16489 0.75201 0.37637 0.0
N596 N 0.19064 0.78155 0.37298 0.0
C597 C 0.16968 0.72605 0.37852 0.0
C598 C 0.2011 0.73061 0.37775 0.0
H599 H 0.14053 0.74833 0.37685 0.0
H600 H 0.31019 0.80325 0.37572 0.0
H601 H 0.08598 0.78183 0.32535 0.0
H602 H 0.32925 0.86161 0.37496 0.0
H603 H 0.31532 0.90429 0.37497 0.0
H604 H 0.26492 0.74825 0.37732 0.0
H605 H 0.19475 0.92601 0.31234 0.0
H606 H 0.00991 0.80448 0.32683 0.0
H607 H 0.02784 0.76468 0.32692 0.0
H608 H 0.06658 0.91745 0.3191 0.0
H609 H 0.14914 0.70255 0.38071 0.0
H610 H 0.20476 0.71048 0.37948 0.0
H611 H 0.02464 0.86169 0.32409 0.0
H612 H 0.1817 0.96899 0.30847 0.0
N613 N 0.10139 0.83116 0.32496 0.0
C614 C 0.03558 0.8122 0.32612 0.0
C615 C 0.0456 0.78968 0.32613 0.0
C616 C 0.05877 0.84438 0.32461 0.0
C617 C 0.09187 0.85315 0.32391 0.0
C618 C 0.07873 0.79959 0.32521 0.0
N619 N 0.1466 0.8914 0.31983 0.0
C620 C 0.11532 0.88437 0.32131 0.0
C621 C 0.1628 0.94535 0.31223 0.0
C622 C 0.13093 0.93888 0.31483 0.0
C623 C 0.17014 0.92103 0.31446 0.0
C624 C 0.10657 0.90794 0.31907 0.0
H625 H 0.12524 0.95769 0.31299 0.0
O626 O 0.18268 0.86723 0.29796 0.0
O627 O 0.19666 0.8448 0.33915 0.0
O628 O 0.20239 0.87918 0.36837 0.0
O629 O 0.17192 0.88938 0.34602 0.0
O630 O 0.21147 0.88376 0.32161 0.0
O631 O 0.13896 0.82145 0.2995 0.0
O632 O 0.15766 0.80858 0.3948 0.0
O633 O 0.14716 0.83386 0.35467 0.0
O634 O 0.14276 0.79786 0.32543 0.0
O635 O 0.17821 0.79133 0.34542 0.0
O636 O 0.13 0.79378 0.37093 0.0
O637 O 0.20284 0.85339 0.39458 0.0
C638 C 0.22126 0.86898 0.33252 0.0
C639 C 0.07379 0.89965 0.32056 0.0
C640 C 0.04991 0.8679 0.32338 0.0
C641 C 0.16121 0.84269 0.28854 0.0
C642 C 0.15017 0.84922 0.27053 0.0
C643 C 0.12521 0.85663 0.27003 0.0
C644 C 0.16494 0.84801 0.25356 0.0
C645 C 0.15488 0.85408 0.23604 0.0
C646 C 0.11504 0.86265 0.25274 0.0
C647 C 0.12969 0.86137 0.23586 0.0
C648 C 0.19212 0.89748 0.36059 0.0
C649 C 0.12158 0.811 0.36127 0.0
C650 C 0.17883 0.83252 0.4048 0.0
C651 C 0.18673 0.82499 0.42355 0.0
C652 C 0.20102 0.80595 0.42539 0.0
C653 C 0.17852 0.83602 0.43989 0.0
C654 C 0.18425 0.82792 0.45809 0.0
C655 C 0.20683 0.79784 0.44336 0.0
C656 C 0.19843 0.8086 0.45961 0.0
C657 C 0.158 0.78264 0.33084 0.0
H658 H 0.11359 0.8577 0.28296 0.0
H659 H 0.18399 0.84192 0.25404 0.0
H660 H 0.09579 0.86841 0.25243 0.0
H661 H 0.1216 0.86655 0.22268 0.0
H662 H 0.20743 0.79721 0.41297 0.0
H663 H 0.16712 0.85044 0.43838 0.0
H664 H 0.21786 0.78311 0.44472 0.0
H665 H 0.20354 0.80223 0.47335 0.0
Gd666 Gd 0.8528 0.68098 0.70586 0.0
Gd667 Gd 0.82724 0.64119 0.65968 0.0
C668 C 0.73427 0.54453 0.65941 0.0
C669 C 0.75523 0.50869 0.65421 0.0
C670 C 0.79194 0.56575 0.65483 0.0
C671 C 0.76618 0.57062 0.65852 0.0
C672 C 0.78657 0.5348 0.65191 0.0
C673 C 0.72911 0.51356 0.65797 0.0
C674 C 0.70835 0.55035 0.66073 0.0
C675 C 0.71445 0.58147 0.66005 0.0
N676 N 0.77193 0.6009 0.65938 0.0
C677 C 0.74645 0.60653 0.65897 0.0
H678 H 0.75024 0.63015 0.65813 0.0
C679 C 0.84648 0.58807 0.64493 0.0
N680 N 0.82184 0.59146 0.65244 0.0
C681 C 0.8424 0.55788 0.64191 0.0
C682 C 0.81251 0.53109 0.64584 0.0
H683 H 0.86977 0.60861 0.64206 0.0
H684 H 0.70484 0.49326 0.65894 0.0
H685 H 0.92821 0.68772 0.70465 0.0
H686 H 0.68351 0.531 0.66143 0.0
H687 H 0.69449 0.58623 0.66033 0.0
H688 H 0.75073 0.48472 0.65233 0.0
H689 H 0.81047 0.71673 0.71978 0.0
H690 H 0.99832 0.78614 0.70572 0.0
H691 H 0.98473 0.73019 0.70374 0.0
H692 H 0.93544 0.83671 0.71571 0.0
H693 H 0.86234 0.55531 0.63663 0.0
H694 H 0.80937 0.50772 0.64342 0.0
H695 H 0.97973 0.82555 0.70994 0.0
H696 H 0.82105 0.77115 0.72547 0.0
N697 N 0.90863 0.71883 0.7066 0.0
C698 C 0.97312 0.76749 0.70615 0.0
C699 C 0.96555 0.73595 0.70506 0.0
C700 C 0.9482 0.77462 0.70828 0.0
C701 C 0.9157 0.74949 0.70861 0.0
C702 C 0.93311 0.71178 0.70559 0.0
N703 N 0.8595 0.73144 0.71243 0.0
C704 C 0.89056 0.75593 0.71159 0.0
C705 C 0.84076 0.76722 0.72148 0.0
C706 C 0.87209 0.79285 0.7193 0.0
C707 C 0.83494 0.73646 0.7184 0.0
C708 C 0.89754 0.78741 0.71468 0.0
H709 H 0.87653 0.81669 0.72171 0.0
O710 O 0.82392 0.67508 0.73103 0.0
O711 O 0.81014 0.64669 0.6879 0.0
O712 O 0.80242 0.67001 0.66511 0.0
O713 O 0.83518 0.70779 0.68738 0.0
O714 O 0.81376 0.63185 0.71424 0.0
O715 O 0.87103 0.6774 0.73327 0.0
O716 O 0.84394 0.6787 0.63849 0.0
O717 O 0.8656 0.68183 0.67557 0.0
O718 O 0.874 0.64902 0.70301 0.0
O719 O 0.84481 0.61422 0.67826 0.0
O720 O 0.88113 0.65945 0.65732 0.0
O721 O 0.81516 0.63045 0.62971 0.0
C722 C 0.79622 0.62405 0.69934 0.0
C723 C 0.92972 0.81239 0.71361 0.0
C724 C 0.95495 0.80602 0.71037 0.0
C725 C 0.84532 0.67397 0.74224 0.0
C726 C 0.85044 0.68849 0.76114 0.0
C727 C 0.87013 0.72124 0.76377 0.0
C728 C 0.83648 0.6687 0.77697 0.0
C729 C 0.84227 0.68137 0.79546 0.0
C730 C 0.87583 0.73406 0.78202 0.0
C731 C 0.86215 0.71436 0.79776 0.0
C732 C 0.81366 0.69798 0.67346 0.0
C733 C 0.89073 0.68357 0.6684 0.0
C734 C 0.83221 0.65965 0.62416 0.0
C735 C 0.85461 0.66604 0.60807 0.0
C736 C 0.88206 0.66264 0.61027 0.0
C737 C 0.84907 0.67627 0.59047 0.0
C738 C 0.871 0.68327 0.57526 0.0
C739 C 0.90376 0.6695 0.59537 0.0
C740 C 0.89835 0.67972 0.57803 0.0
C741 C 0.86412 0.62252 0.69333 0.0
H742 H 0.8813 0.73678 0.75179 0.0
H743 H 0.8217 0.6433 0.77488 0.0
H744 H 0.89104 0.75939 0.78399 0.0
H745 H 0.86684 0.725 0.81171 0.0
H746 H 0.88687 0.65465 0.62344 0.0
H747 H 0.82801 0.67914 0.58873 0.0
H748 H 0.92481 0.66671 0.59726 0.0
H749 H 0.91536 0.68425 0.56664 0.0
Gd750 Gd 0.31532 0.15655 0.71089 0.0
Gd751 Gd 0.35647 0.17191 0.66493 0.0
C752 C 0.45587 0.17915 0.65985 0.0
C753 C 0.49175 0.23575 0.65538 0.0
C754 C 0.43352 0.21421 0.65845 0.0
C755 C 0.42913 0.18418 0.66079 0.0
C756 C 0.46479 0.24031 0.65534 0.0
C757 C 0.48729 0.20519 0.65759 0.0
C758 C 0.45009 0.14802 0.66053 0.0
C759 C 0.4182 0.12287 0.66137 0.0
N760 N 0.39843 0.15961 0.66277 0.0
C761 C 0.3925 0.12912 0.66226 0.0
H762 H 0.36796 0.10948 0.66299 0.0
C763 C 0.40953 0.24611 0.65361 0.0
N764 N 0.40687 0.21763 0.65837 0.0
C765 C 0.44007 0.27279 0.65064 0.0
C766 C 0.46788 0.26998 0.65177 0.0
H767 H 0.38821 0.24855 0.65271 0.0
H768 H 0.50818 0.20186 0.65706 0.0
H769 H 0.36087 0.19918 0.74752 0.0
H770 H 0.46995 0.14312 0.65988 0.0
H771 H 0.41339 0.09866 0.66147 0.0
H772 H 0.51602 0.25553 0.6532 0.0
H773 H 0.23977 0.12334 0.69353 0.0
H774 H 0.33011 0.26477 0.76426 0.0
H775 H 0.36746 0.24343 0.76791 0.0
H776 H 0.2325 0.23019 0.72821 0.0
H777 H 0.44213 0.29548 0.64746 0.0
H778 H 0.49148 0.29065 0.64937 0.0
H779 H 0.27985 0.26003 0.74905 0.0
H780 H 0.19481 0.13486 0.69169 0.0
N781 N 0.32193 0.19735 0.73164 0.0
C782 C 0.32744 0.24569 0.75514 0.0
C783 C 0.34853 0.23367 0.75728 0.0
C784 C 0.30209 0.2318 0.74194 0.0
C785 C 0.29975 0.20707 0.73043 0.0
C786 C 0.34484 0.20875 0.74569 0.0
N787 N 0.27069 0.16498 0.70927 0.0
C788 C 0.27324 0.19034 0.71877 0.0
C789 C 0.21683 0.15081 0.69926 0.0
C790 C 0.21991 0.17793 0.708 0.0
C791 C 0.24241 0.14439 0.70031 0.0
C792 C 0.24812 0.19778 0.71824 0.0
H793 H 0.19994 0.18265 0.70735 0.0
O794 O 0.27375 0.11983 0.72621 0.0
O795 O 0.34926 0.14866 0.6929 0.0
O796 O 0.32213 0.11896 0.66778 0.0
O797 O 0.28624 0.11402 0.69183 0.0
O798 O 0.36347 0.16332 0.72063 0.0
O799 O 0.3221 0.13154 0.73436 0.0
O800 O 0.33924 0.18225 0.63881 0.0
O801 O 0.31221 0.16473 0.68024 0.0
O802 O 0.352 0.20906 0.70813 0.0
O803 O 0.38867 0.21066 0.68547 0.0
O804 O 0.33584 0.20472 0.66384 0.0
O805 O 0.35028 0.14435 0.63946 0.0
C806 C 0.37146 0.1554 0.70499 0.0
C807 C 0.25132 0.2238 0.72866 0.0
C808 C 0.27829 0.2408 0.74051 0.0
C809 C 0.29156 0.11613 0.73879 0.0
C810 C 0.28301 0.11638 0.75894 0.0
C811 C 0.25038 0.09837 0.76444 0.0
C812 C 0.30688 0.13329 0.77287 0.0
C813 C 0.29817 0.13189 0.79207 0.0
C814 C 0.24161 0.09719 0.78338 0.0
C815 C 0.26526 0.11372 0.79713 0.0
C816 C 0.29463 0.10253 0.67725 0.0
C817 C 0.31034 0.18809 0.67392 0.0
C818 C 0.34158 0.16086 0.62906 0.0
C819 C 0.35693 0.17076 0.6104 0.0
C820 C 0.39078 0.187 0.60842 0.0
C821 C 0.33718 0.16414 0.59435 0.0
C822 C 0.35096 0.17381 0.57624 0.0
C823 C 0.4047 0.19656 0.5905 0.0
C824 C 0.385 0.19008 0.5745 0.0
C825 C 0.38079 0.22302 0.69977 0.0
H826 H 0.23163 0.08503 0.75405 0.0
H827 H 0.33223 0.14697 0.7689 0.0
H828 H 0.21636 0.0833 0.78746 0.0
H829 H 0.25774 0.11253 0.81172 0.0
H830 H 0.40637 0.19229 0.62066 0.0
H831 H 0.31101 0.15118 0.59602 0.0
H832 H 0.43085 0.2092 0.58902 0.0
H833 H 0.39645 0.19825 0.56083 0.0
Gd834 Gd 0.83405 0.18358 0.66413 0.0
Gd835 Gd 0.8582 0.15924 0.70818 0.0
C836 C 0.95531 0.16226 0.7144 0.0
C837 C 0.93859 0.10626 0.71615 0.0
C838 C 0.89821 0.12279 0.71323 0.0
C839 C 0.92249 0.15418 0.71272 0.0
C840 C 0.90589 0.09847 0.71535 0.0
C841 C 0.96326 0.13811 0.7157 0.0
C842 C 0.97904 0.19436 0.71532 0.0
C843 C 0.96963 0.21735 0.71541 0.0
N844 N 0.91389 0.17688 0.71171 0.0
C845 C 0.93671 0.20809 0.71393 0.0
H846 H 0.92977 0.2261 0.71399 0.0
C847 C 0.84202 0.08589 0.71527 0.0
N848 N 0.86691 0.11615 0.71254 0.0
C849 C 0.84841 0.06094 0.71739 0.0
C850 C 0.88046 0.06717 0.71714 0.0
H851 H 0.81719 0.08094 0.71534 0.0
H852 H 0.98836 0.14385 0.71679 0.0
H853 H 0.76508 0.11282 0.66189 0.0
H854 H 1.00454 0.20157 0.71651 0.0
H855 H 0.98772 0.24221 0.71656 0.0
H856 H 0.94503 0.0879 0.7176 0.0
H857 H 0.86842 0.2611 0.65577 0.0
H858 H 0.68466 0.12891 0.65841 0.0
H859 H 0.7062 0.09202 0.66027 0.0
H860 H 0.73544 0.24207 0.65356 0.0
H861 H 0.82861 0.03694 0.71926 0.0
H862 H 0.88534 0.04779 0.71882 0.0
H863 H 0.6958 0.18504 0.656 0.0
H864 H 0.852 0.3016 0.65143 0.0
N865 N 0.77726 0.16132 0.66144 0.0
C866 C 0.71065 0.13825 0.65908 0.0
C867 C 0.72272 0.11737 0.6601 0.0
C868 C 0.73231 0.17092 0.65852 0.0
C869 C 0.7659 0.18182 0.65959 0.0
C870 C 0.75627 0.12935 0.66099 0.0
N871 N 0.82004 0.22302 0.65889 0.0
C872 C 0.78804 0.21375 0.65834 0.0
C873 C 0.83374 0.27697 0.65341 0.0
C874 C 0.80085 0.26795 0.6536 0.0
C875 C 0.84295 0.25401 0.65582 0.0
C876 C 0.77748 0.23593 0.65584 0.0
H877 H 0.79375 0.28575 0.65168 0.0
O878 O 0.85913 0.2047 0.63774 0.0
O879 O 0.87306 0.18003 0.67935 0.0
O880 O 0.87257 0.21127 0.70917 0.0
O881 O 0.84089 0.21946 0.68684 0.0
O882 O 0.88704 0.22062 0.66361 0.0
O883 O 0.82225 0.15509 0.63857 0.0
O884 O 0.83036 0.13917 0.7338 0.0
O885 O 0.82054 0.16501 0.69323 0.0
O886 O 0.82237 0.13194 0.66343 0.0
O887 O 0.85631 0.12658 0.68529 0.0
O888 O 0.80381 0.12482 0.70913 0.0
O889 O 0.87409 0.18544 0.73461 0.0
C890 C 0.8973 0.20587 0.67417 0.0
C891 C 0.74406 0.22539 0.65531 0.0
C892 C 0.7215 0.19292 0.65668 0.0
C893 C 0.84264 0.17861 0.62805 0.0
C894 C 0.83087 0.18133 0.60925 0.0
C895 C 0.80793 0.19121 0.6073 0.0
C896 C 0.84268 0.17361 0.59303 0.0
C897 C 0.83206 0.17612 0.57476 0.0
C898 C 0.79709 0.19359 0.58932 0.0
C899 C 0.80906 0.18623 0.57317 0.0
C900 C 0.85908 0.22741 0.70237 0.0
C901 C 0.79491 0.14125 0.69906 0.0
C902 C 0.85013 0.16323 0.74424 0.0
C903 C 0.85766 0.15595 0.76306 0.0
C904 C 0.87475 0.13962 0.76545 0.0
C905 C 0.84684 0.16528 0.77894 0.0
C906 C 0.85316 0.15874 0.79736 0.0
C907 C 0.8809 0.13272 0.78368 0.0
C908 C 0.87022 0.14217 0.79956 0.0
C909 C 0.83729 0.11714 0.67028 0.0
H910 H 0.79848 0.1971 0.61964 0.0
H911 H 0.85998 0.16543 0.59473 0.0
H912 H 0.77949 0.20141 0.58788 0.0
H913 H 0.80071 0.18907 0.55943 0.0
H914 H 0.88319 0.13221 0.7533 0.0
H915 H 0.83318 0.17745 0.77688 0.0
H916 H 0.89415 0.12014 0.78552 0.0
H917 H 0.87583 0.13704 0.81353 0.0
H918 H 0.2764 0.88715 0.07037 0.0
H919 H 0.28497 0.8029 0.06379 0.0
H920 H 0.3361 0.8341 0.04622 0.0
H921 H 0.31177 0.92258 0.02368 0.0
H922 H 0.33245 0.96236 0.03303 0.0
H923 H 0.29475 0.93283 0.04343 0.0
H924 H 0.32273 0.9435 0.07629 0.0
H925 H 0.36041 0.97295 0.06596 0.0
H926 H 0.35873 0.94031 0.07897 0.0
H927 H 0.38914 0.87507 0.03316 0.0
H928 H 0.43965 0.92287 0.02415 0.0
H929 H 0.39675 0.98101 0.03727 0.0
C930 C 0.28889 0.87523 0.06504 0.0
C931 C 0.27653 0.8425 0.06834 0.0
C932 C 0.29361 0.82778 0.06116 0.0
C933 C 0.32274 0.84533 0.05121 0.0
C934 C 0.3344 0.87756 0.04837 0.0
C935 C 0.31793 0.89238 0.05491 0.0
C936 C 0.33668 0.92766 0.05071 0.0
C937 C 0.31777 0.93689 0.03689 0.0
C938 C 0.34514 0.94725 0.06908 0.0
C939 C 0.36676 0.93048 0.04141 0.0
C940 C 0.36476 0.90121 0.0401 0.0
C941 C 0.39057 0.89798 0.03357 0.0
C942 C 0.41921 0.92535 0.0283 0.0
C943 C 0.42169 0.95557 0.02909 0.0
C944 C 0.39507 0.95807 0.03581 0.0
H945 H 0.17118 0.48161 0.08973 0.0
H946 H 0.16417 0.40914 0.05117 0.0
H947 H 0.12209 0.41327 0.0327 0.0
H948 H 0.08696 0.45915 0.08999 0.0
H949 H 0.09444 0.4993 0.09033 0.0
H950 H 0.12373 0.49033 0.10045 0.0
H951 H 0.16799 0.53265 0.07889 0.0
H952 H 0.13886 0.54131 0.06814 0.0
H953 H 0.16242 0.52979 0.05359 0.0
H954 H 0.07752 0.42216 0.02013 0.0
H955 H 0.03631 0.43781 0.01318 0.0
H956 H 0.0758 0.50817 0.05774 0.0
C957 C 0.1606 0.46658 0.07743 0.0
C958 C 0.17056 0.44482 0.07191 0.0
C959 C 0.15667 0.42583 0.05561 0.0
C960 C 0.13284 0.42807 0.04505 0.0
C961 C 0.12359 0.44985 0.05077 0.0
C962 C 0.13723 0.469 0.06648 0.0
C963 C 0.12325 0.49073 0.06942 0.0
C964 C 0.10607 0.48449 0.08869 0.0
C965 C 0.1497 0.5257 0.06738 0.0
C966 C 0.09916 0.48035 0.05317 0.0
C967 C 0.09961 0.4566 0.04264 0.0
C968 C 0.07758 0.44133 0.02793 0.0
C969 C 0.05444 0.45048 0.02397 0.0
C970 C 0.05429 0.4754 0.03417 0.0
C971 C 0.07674 0.4903 0.04905 0.0
H972 H 0.56306 0.73443 0.05978 0.0
H973 H 0.55322 0.7076 0.11914 0.0
H974 H 0.54076 0.65395 0.10994 0.0
H975 H 0.4954 0.65923 0.04353 0.0
H976 H 0.51489 0.65956 0.02159 0.0
H977 H 0.52383 0.69641 0.0327 0.0
H978 H 0.58514 0.71425 0.03271 0.0
H979 H 0.57631 0.67744 0.02163 0.0
H980 H 0.5986 0.6893 0.0436 0.0
H981 H 0.53113 0.60403 0.09473 0.0
H982 H 0.52181 0.5594 0.07417 0.0
H983 H 0.53382 0.61655 0.02448 0.0
C984 C 0.5579 0.71725 0.07088 0.0
C985 C 0.55958 0.72561 0.09026 0.0
C986 C 0.553 0.70226 0.10425 0.0
C987 C 0.54557 0.67155 0.09916 0.0
C988 C 0.54428 0.66426 0.08001 0.0
C989 C 0.5499 0.68625 0.06606 0.0
C990 C 0.54644 0.67191 0.04649 0.0
C991 C 0.51847 0.67177 0.03543 0.0
C992 C 0.57854 0.68926 0.03547 0.0
C993 C 0.53837 0.63855 0.05171 0.0
C994 C 0.53744 0.63482 0.07114 0.0
C995 C 0.53161 0.60659 0.07949 0.0
C996 C 0.52657 0.58145 0.06769 0.0
C997 C 0.52712 0.58455 0.04774 0.0
C998 C 0.53285 0.61342 0.03965 0.0
H999 H 0.8127 0.28434 0.97115 0.0
H1000 H 0.87941 0.25585 0.94887 0.0
H1001 H 0.92563 0.30449 0.96192 0.0
H1002 H 0.86094 0.36569 0.96088 0.0
H1003 H 0.85081 0.3796 0.98205 0.0
H1004 H 0.82248 0.34131 0.97241 0.0
H1005 H 0.82114 0.31437 1.00447 0.0
H1006 H 0.84853 0.353 0.01402 0.0
H1007 H 0.85887 0.32208 0.0152 0.0
H1008 H 0.96448 0.35749 0.97469 0.0
H1009 H 0.99425 0.41148 0.98777 0.0
H1010 H 0.90297 0.40616 1.00265 0.0
C1011 C 0.83701 0.28808 0.96941 0.0
C1012 C 0.84256 0.2664 0.95901 0.0
C1013 C 0.87471 0.27232 0.95668 0.0
C1014 C 0.90107 0.29977 0.9641 0.0
C1015 C 0.89488 0.32101 0.97392 0.0
C1016 C 0.8637 0.31549 0.97673 0.0
C1017 C 0.86407 0.34304 0.98703 0.0
C1018 C 0.84866 0.3583 0.97486 0.0
C1019 C 0.84716 0.33247 1.00634 0.0
C1020 C 0.90033 0.36504 0.9893 0.0
C1021 C 0.91755 0.35174 0.98163 0.0
C1022 C 0.95131 0.36801 0.98099 0.0
C1023 C 0.96799 0.39876 0.98838 0.0
C1024 C 0.95096 0.41297 0.99635 0.0
C1025 C 0.91666 0.39571 0.99694 0.0
H1026 H 0.69353 0.50692 0.95905 0.0
H1027 H 0.75798 0.60763 0.96749 0.0
H1028 H 0.71646 0.61025 0.98723 0.0
H1029 H 0.62151 0.50985 0.95411 0.0
H1030 H 0.59571 0.47362 0.96669 0.0
H1031 H 0.63164 0.47875 0.955 0.0
H1032 H 0.65134 0.46717 0.98658 0.0
H1033 H 0.61581 0.46272 0.99859 0.0
H1034 H 0.65574 0.49094 1.00716 0.0
H1035 H 0.66697 0.60391 1.0023 0.0
H1036 H 0.61139 0.58896 0.01212 0.0
H1037 H 0.57776 0.49154 0.99584 0.0
C1038 C 0.69886 0.5293 0.96537 0.0
C1039 C 0.72886 0.55715 0.96193 0.0
C1040 C 0.73512 0.58616 0.97011 0.0
C1041 C 0.71178 0.58779 0.98138 0.0
C1042 C 0.68232 0.5601 0.98447 0.0
C1043 C 0.67569 0.53131 0.9768 0.0
C1044 C 0.6411 0.5057 0.98141 0.0
C1045 C 0.62133 0.49114 0.96322 0.0
C1046 C 0.641 0.48011 0.9942 0.0
C1047 C 0.62902 0.52495 0.9921 0.0
C1048 C 0.65349 0.55619 0.99387 0.0
C1049 C 0.64783 0.5794 1.00147 0.0
C1050 C 0.61624 0.57071 1.00702 0.0
C1051 C 0.59071 0.539 1.00533 0.0
C1052 C 0.59722 0.51565 0.99804 0.0
H1053 H 0.42143 0.13647 0.93718 0.0
H1054 H 0.49921 0.22461 0.96023 0.0
H1055 H 0.51823 0.19468 0.97918 0.0
H1056 H 0.40417 0.09022 0.97898 0.0
H1057 H 0.39746 0.05455 0.9672 0.0
H1058 H 0.38985 0.08259 0.95485 0.0
H1059 H 0.42907 0.08682 0.92809 0.0
H1060 H 0.4365 0.05851 0.94027 0.0
H1061 H 0.47002 0.0968 0.93396 0.0
H1062 H 0.52724 0.15591 0.99704 0.0
H1063 H 0.52928 0.11033 1.01048 0.0
H1064 H 0.44759 0.04649 0.97516 0.0
C1065 C 0.44274 0.14947 0.94599 0.0
C1066 C 0.45845 0.18295 0.94743 0.0
C1067 C 0.48623 0.19898 0.95921 0.0
C1068 C 0.49737 0.18221 0.96998 0.0
C1069 C 0.48083 0.14931 0.96869 0.0
C1070 C 0.45447 0.13303 0.95679 0.0
C1071 C 0.4414 0.09752 0.9581 0.0
C1072 C 0.40613 0.08021 0.96521 0.0
C1073 C 0.44444 0.08413 0.93896 0.0
C1074 C 0.46433 0.09653 0.97273 0.0
C1075 C 0.48672 0.12673 0.97869 0.0
C1076 C 0.50996 0.13212 0.99242 0.0
C1077 C 0.51072 0.10598 1.0001 0.0
C1078 C 0.48849 0.07474 0.99399 0.0
C1079 C 0.46494 0.07006 0.98012 0.0
H1080 H 0.73049 0.12704 0.9543 0.0
H1081 H 0.72345 0.21009 0.96862 0.0
H1082 H 0.67117 0.176 0.98476 0.0
H1083 H 0.64779 0.07526 0.94451 0.0
H1084 H 0.64624 0.0408 0.95504 0.0
H1085 H 0.68385 0.07187 0.94555 0.0
H1086 H 0.71198 0.07741 0.97798 0.0
H1087 H 0.67434 0.04629 0.98753 0.0
H1088 H 0.69502 0.08444 0.99902 0.0
H1089 H 0.61723 0.13255 0.9962 0.0
H1090 H 0.56693 0.08305 1.00383 0.0
H1091 H 0.61066 0.02828 0.98464 0.0
C1092 C 0.71795 0.13796 0.96095 0.0
C1093 C 0.73082 0.17111 0.96023 0.0
C1094 C 0.71397 0.18471 0.96915 0.0
C1095 C 0.68433 0.16557 0.97832 0.0
C1096 C 0.67218 0.13293 0.97873 0.0
C1097 C 0.68862 0.11924 0.97049 0.0
C1098 C 0.66998 0.08351 0.97271 0.0
C1099 C 0.66146 0.06689 0.9533 0.0
C1100 C 0.68897 0.07226 0.98504 0.0
C1101 C 0.63999 0.07917 0.98288 0.0
C1102 C 0.64178 0.10799 0.98626 0.0
C1103 C 0.61592 0.10991 0.99409 0.0
C1104 C 0.58747 0.08163 0.99851 0.0
C1105 C 0.58537 0.05188 0.99557 0.0
C1106 C 0.61203 0.05076 0.98762 0.0
H1107 H 0.80986 0.5058 0.95576 0.0
H1108 H 0.86311 0.60848 0.95728 0.0
H1109 H 0.90942 0.60751 0.97277 0.0
H1110 H 0.83784 0.49229 1.0002 0.0
H1111 H 0.84224 0.45941 0.99215 0.0
H1112 H 0.81231 0.467 0.98148 0.0
H1113 H 0.83625 0.47077 0.94827 0.0
H1114 H 0.86553 0.46177 0.95836 0.0
H1115 H 0.879 0.49709 0.94435 0.0
H1116 H 0.95042 0.59552 0.98704 0.0
H1117 H 0.98468 0.57335 0.9977 0.0
H1118 H 0.90572 0.47837 0.98648 0.0
C1119 C 0.83129 0.52797 0.95948 0.0
C1120 C 0.83312 0.55726 0.9555 0.0
C1121 C 0.86148 0.5859 0.9603 0.0
C1122 C 0.88775 0.58553 0.96913 0.0
C1123 C 0.88531 0.55629 0.97293 0.0
C1124 C 0.85797 0.52802 0.96808 0.0
C1125 C 0.86234 0.49995 0.97286 0.0
C1126 C 0.8372 0.47838 0.98756 0.0
C1127 C 0.86069 0.48131 0.95489 0.0
C1128 C 0.89636 0.51686 0.98114 0.0
C1129 C 0.90906 0.54936 0.98115 0.0
C1130 C 0.9406 0.57012 0.98734 0.0
C1131 C 0.9598 0.55737 0.99346 0.0
C1132 C 0.94732 0.52422 0.9935 0.0
C1133 C 0.91531 0.50375 0.98715 0.0
H1134 H 0.4631 0.30936 0.92943 0.0
H1135 H 0.40697 0.24058 0.97276 0.0
H1136 H 0.41154 0.28357 0.99337 0.0
H1137 H 0.51881 0.36776 0.9603 0.0
H1138 H 0.52211 0.40131 0.94753 0.0
H1139 H 0.51166 0.36512 0.93511 0.0
H1140 H 0.45937 0.36265 0.92225 0.0
H1141 H 0.46987 0.39905 0.93451 0.0
H1142 H 0.43103 0.36414 0.9386 0.0
H1143 H 0.42603 0.33342 1.01039 0.0
H1144 H 0.44796 0.38799 0.02246 0.0
H1145 H 0.49487 0.42561 0.96858 0.0
C1146 C 0.45111 0.30341 0.94306 0.0
C1147 C 0.4346 0.27168 0.94953 0.0
C1148 C 0.41978 0.26475 0.9676 0.0
C1149 C 0.42218 0.28898 0.97937 0.0
C1150 C 0.43937 0.32008 0.97285 0.0
C1151 C 0.45338 0.32746 0.95508 0.0
C1152 C 0.47209 0.36314 0.9521 0.0
C1153 C 0.50831 0.37501 0.94856 0.0
C1154 C 0.45719 0.37281 0.9359 0.0
C1155 C 0.46689 0.37452 0.9711 0.0
C1156 C 0.44783 0.34918 0.98279 0.0
C1157 C 0.44081 0.35346 1.00134 0.0
C1158 C 0.45366 0.38445 1.00817 0.0
C1159 C 0.47336 0.41069 0.99653 0.0
C1160 C 0.47971 0.40575 0.97768 0.0
H1161 H 0.17428 0.74835 0.05031 0.0
H1162 H 0.1655 0.72303 0.10991 0.0
H1163 H 0.12532 0.6681 0.10187 0.0
H1164 H 0.0916 0.69736 0.0371 0.0
H1165 H 0.10074 0.68614 0.0146 0.0
H1166 H 0.1285 0.72415 0.02483 0.0
H1167 H 0.17503 0.71111 0.02281 0.0
H1168 H 0.14744 0.6731 0.0125 0.0
H1169 H 0.16988 0.67531 0.03358 0.0
H1170 H 0.08443 0.61681 0.08802 0.0
H1171 H 0.04815 0.5703 0.06864 0.0
H1172 H 0.08653 0.62602 0.0175 0.0
C1173 C 0.16423 0.73127 0.06169 0.0
C1174 C 0.17278 0.74053 0.08085 0.0
C1175 C 0.15873 0.71714 0.09521 0.0
C1176 C 0.13605 0.68566 0.09078 0.0
C1177 C 0.12798 0.67755 0.07187 0.0
C1178 C 0.14191 0.69945 0.05749 0.0
C1179 C 0.12936 0.684 0.03828 0.0
C1180 C 0.11149 0.6988 0.02811 0.0
C1181 C 0.15708 0.686 0.02607 0.0
C1182 C 0.10599 0.65008 0.04419 0.0
C1183 C 0.10545 0.64714 0.06368 0.0
C1184 C 0.08483 0.61871 0.07275 0.0
C1185 C 0.06419 0.5925 0.06163 0.0
C1186 C 0.06461 0.59467 0.04164 0.0
C1187 C 0.086 0.62376 0.03277 0.0
H1188 H 0.27768 0.40951 0.07623 0.0
H1189 H 0.29122 0.50352 0.06749 0.0
H1190 H 0.3442 0.52025 0.05221 0.0
H1191 H 0.35955 0.43226 0.08663 0.0
H1192 H 0.35929 0.40001 0.0739 0.0
H1193 H 0.32215 0.39524 0.08371 0.0
H1194 H 0.29509 0.37983 0.05055 0.0
H1195 H 0.33223 0.38457 0.04069 0.0
H1196 H 0.31408 0.40628 0.03086 0.0
H1197 H 0.39791 0.5281 0.04087 0.0
H1198 H 0.44644 0.52536 0.03191 0.0
H1199 H 0.39631 0.42492 0.04467 0.0
C1200 C 0.29184 0.43355 0.071 0.0
C1201 C 0.28056 0.45534 0.07307 0.0
C1202 C 0.2995 0.48653 0.06597 0.0
C1203 C 0.32957 0.49621 0.0573 0.0
C1204 C 0.3401 0.47423 0.05551 0.0
C1205 C 0.32164 0.44341 0.06191 0.0
C1206 C 0.33858 0.42451 0.05811 0.0
C1207 C 0.34529 0.4123 0.0767 0.0
C1208 C 0.31881 0.39718 0.04423 0.0
C1209 C 0.3698 0.44973 0.04908 0.0
C1210 C 0.37021 0.47826 0.04777 0.0
C1211 C 0.39747 0.50565 0.04133 0.0
C1212 C 0.42496 0.50382 0.03609 0.0
C1213 C 0.42479 0.47465 0.03668 0.0
C1214 C 0.39678 0.44733 0.04339 0.0
H1215 H 0.59306 0.87008 0.08386 0.0
H1216 H 0.5043 0.7811 0.07303 0.0
H1217 H 0.48399 0.80929 0.05341 0.0
H1218 H 0.55401 0.91766 0.08856 0.0
H1219 H 0.58735 0.95166 0.07747 0.0
H1220 H 0.59466 0.92389 0.0903 0.0
H1221 H 0.62227 0.91744 0.06015 0.0
H1222 H 0.61373 0.94453 0.04742 0.0
H1223 H 0.59975 0.90521 0.03826 0.0
H1224 H 0.47347 0.84657 0.03457 0.0
H1225 H 0.47123 0.89134 0.01997 0.0
H1226 H 0.56489 0.9569 0.0448 0.0
C1227 C 0.56921 0.85649 0.07755 0.0
C1228 C 0.55056 0.82319 0.07983 0.0
C1229 C 0.51955 0.80644 0.07113 0.0
C1230 C 0.50764 0.82226 0.06004 0.0
C1231 C 0.52679 0.85494 0.05795 0.0
C1232 C 0.55671 0.87197 0.06663 0.0
C1233 C 0.57194 0.9071 0.0625 0.0
C1234 C 0.57726 0.92617 0.08082 0.0
C1235 C 0.60381 0.91928 0.05142 0.0
C1236 C 0.54572 0.90715 0.0503 0.0
C1237 C 0.52012 0.87673 0.04764 0.0
C1238 C 0.49329 0.87053 0.03662 0.0
C1239 C 0.49236 0.89615 0.02829 0.0
C1240 C 0.51792 0.92766 0.0312 0.0
C1241 C 0.54496 0.93313 0.04234 0.0
H1242 H 0.97344 0.16291 0.40094 0.0
H1243 H 0.92323 0.2151 0.41188 0.0
H1244 H 0.96632 0.26155 0.39503 0.0
H1245 H 0.0523 0.22756 0.40961 0.0
H1246 H 0.07209 0.21697 0.39161 0.0
H1247 H 0.03552 0.18671 0.40255 0.0
H1248 H 0.00926 0.16898 0.36949 0.0
H1249 H 0.0454 0.19981 0.35837 0.0
H1250 H 0.00665 0.19718 0.35415 0.0
H1251 H 0.01612 0.30331 0.37983 0.0
H1252 H 0.07212 0.33971 0.36914 0.0
H1253 H 0.09158 0.26167 0.36783 0.0
C1254 C 0.97147 0.18405 0.39948 0.0
C1255 C 0.94507 0.1856 0.40752 0.0
C1256 C 0.94334 0.21365 0.40575 0.0
C1257 C 0.96754 0.23998 0.3961 0.0
C1258 C 0.9934 0.2379 0.38838 0.0
C1259 C 0.99578 0.21082 0.39008 0.0
C1260 C 0.02773 0.21607 0.38202 0.0
C1261 C 0.04811 0.21157 0.39736 0.0
C1262 C 0.02191 0.19421 0.36498 0.0
C1263 C 0.04315 0.25051 0.37593 0.0
C1264 C 0.02261 0.26239 0.3795 0.0
C1265 C 0.03221 0.29419 0.37664 0.0
C1266 C 0.06398 0.31467 0.37056 0.0
C1267 C 0.08568 0.30327 0.36724 0.0
C1268 C 0.07499 0.27067 0.3696 0.0
H1269 H 0.80625 0.75349 0.41278 0.0
H1270 H 0.88849 0.84808 0.40519 0.0
H1271 H 0.85258 0.86493 0.39006 0.0
H1272 H 0.76686 0.75104 0.36801 0.0
H1273 H 0.72647 0.72914 0.37765 0.0
H1274 H 0.75869 0.72429 0.38756 0.0
H1275 H 0.74732 0.73926 0.4208 0.0
H1276 H 0.71497 0.74397 0.41102 0.0
H1277 H 0.74751 0.77615 0.42389 0.0
H1278 H 0.80701 0.87217 0.37727 0.0
H1279 H 0.75554 0.8686 0.36696 0.0
H1280 H 0.70343 0.7689 0.38172 0.0
C1281 C 0.81664 0.77776 0.40797 0.0
C1282 C 0.85014 0.79952 0.41018 0.0
C1283 C 0.86292 0.83099 0.40351 0.0
C1284 C 0.84272 0.84078 0.39494 0.0
C1285 C 0.80981 0.81874 0.39296 0.0
C1286 C 0.79688 0.78783 0.39917 0.0
C1287 C 0.7607 0.76884 0.39533 0.0
C1288 C 0.75272 0.74172 0.3813 0.0
C1289 C 0.7415 0.75633 0.41387 0.0
C1290 C 0.75517 0.79407 0.38644 0.0
C1291 C 0.78381 0.82268 0.38511 0.0
C1292 C 0.78454 0.84976 0.37799 0.0
C1293 C 0.75523 0.84749 0.37206 0.0
C1294 C 0.72575 0.81824 0.37298 0.0
C1295 C 0.7258 0.79136 0.38045 0.0
H1296 H 0.21373 0.03096 0.43379 0.0
H1297 H 0.26048 0.09859 0.38833 0.0
H1298 H 0.25906 0.05635 0.36831 0.0
H1299 H 0.25349 0.98243 0.42397 0.0
H1300 H 0.21712 0.94586 0.42967 0.0
H1301 H 0.2256 0.98217 0.44135 0.0
H1302 H 0.16962 0.97352 0.43055 0.0
H1303 H 0.16116 0.93744 0.4187 0.0
H1304 H 0.15948 0.96847 0.4057 0.0
H1305 H 0.24638 0.0065 0.35191 0.0
H1306 H 0.22592 0.95165 0.34064 0.0
H1307 H 0.18866 0.91579 0.39663 0.0
C1308 C 0.22453 0.03697 0.41983 0.0
C1309 C 0.23721 0.06797 0.41256 0.0
C1310 C 0.25048 0.07491 0.39408 0.0
C1311 C 0.24993 0.05114 0.38266 0.0
C1312 C 0.2363 0.02061 0.38998 0.0
C1313 C 0.22419 0.01344 0.40821 0.0
C1314 C 0.20883 0.97818 0.41206 0.0
C1315 C 0.22738 0.97179 0.42769 0.0
C1316 C 0.17263 0.96356 0.41704 0.0
C1317 C 0.21332 0.96664 0.39298 0.0
C1318 C 0.22938 0.99159 0.3805 0.0
C1319 C 0.23425 0.98681 0.36161 0.0
C1320 C 0.22229 0.95567 0.35528 0.0
C1321 C 0.2058 0.92988 0.3678 0.0
C1322 C 0.20167 0.93537 0.38693 0.0
H1323 H 0.51946 0.6312 0.2745 0.0
H1324 H 0.4892 0.57103 0.32437 0.0
H1325 H 0.52446 0.6173 0.3442 0.0
H1326 H 0.60435 0.68065 0.28929 0.0
H1327 H 0.60767 0.71622 0.27928 0.0
H1328 H 0.5804 0.6782 0.26887 0.0
H1329 H 0.53276 0.68935 0.27265 0.0
H1330 H 0.55984 0.72728 0.28318 0.0
H1331 H 0.52391 0.69907 0.2957 0.0
H1332 H 0.56022 0.67043 0.35895 0.0
H1333 H 0.59755 0.72649 0.36726 0.0
H1334 H 0.6075 0.75188 0.30787 0.0
C1335 C 0.52066 0.62755 0.28953 0.0
C1336 C 0.50116 0.59735 0.29784 0.0
C1337 C 0.50326 0.59393 0.31766 0.0
C1338 C 0.52342 0.62006 0.32905 0.0
C1339 C 0.54178 0.64949 0.32045 0.0
C1340 C 0.54098 0.65335 0.30112 0.0
C1341 C 0.56313 0.68766 0.29549 0.0
C1342 C 0.59052 0.69086 0.28246 0.0
C1343 C 0.54374 0.70166 0.28621 0.0
C1344 C 0.57617 0.70248 0.31471 0.0
C1345 C 0.56336 0.68004 0.32892 0.0
C1346 C 0.57059 0.68817 0.34794 0.0
C1347 C 0.59155 0.72009 0.35256 0.0
C1348 C 0.60518 0.74338 0.33823 0.0
C1349 C 0.5976 0.73439 0.31907 0.0
H1350 H 0.36095 0.84064 0.29178 0.0
H1351 H 0.42186 0.94289 0.29337 0.0
H1352 H 0.37975 0.94709 0.31154 0.0
H1353 H 0.28735 0.8405 0.28374 0.0
H1354 H 0.26244 0.80604 0.29798 0.0
H1355 H 0.2988 0.81065 0.28714 0.0
H1356 H 0.31899 0.80454 0.31994 0.0
H1357 H 0.28328 0.801 0.33119 0.0
H1358 H 0.32312 0.83115 0.33884 0.0
H1359 H 0.33028 0.9413 0.32636 0.0
H1360 H 0.27433 0.92618 0.33546 0.0
H1361 H 0.24352 0.82738 0.32494 0.0
C1362 C 0.36542 0.86377 0.29627 0.0
C1363 C 0.39464 0.89153 0.29137 0.0
C1364 C 0.39963 0.92147 0.29708 0.0
C1365 C 0.37596 0.92402 0.30749 0.0
C1366 C 0.3473 0.89637 0.31204 0.0
C1367 C 0.3417 0.86677 0.30654 0.0
C1368 C 0.30746 0.84123 0.31183 0.0
C1369 C 0.28786 0.82358 0.29412 0.0
C1370 C 0.30826 0.8181 0.32632 0.0
C1371 C 0.2945 0.86125 0.32067 0.0
C1372 C 0.31823 0.89294 0.32086 0.0
C1373 C 0.31169 0.91654 0.32667 0.0
C1374 C 0.2799 0.90775 0.33185 0.0
C1375 C 0.25503 0.87563 0.33146 0.0
C1376 C 0.26248 0.85195 0.32612 0.0
H1377 H 0.11212 0.48258 0.26739 0.0
H1378 H 0.09943 0.53093 0.31557 0.0
H1379 H 0.11468 0.50075 0.33712 0.0
H1380 H 0.07754 0.40581 0.29015 0.0
H1381 H 0.10523 0.39571 0.27891 0.0
H1382 H 0.0941 0.42178 0.26718 0.0
H1383 H 0.15495 0.46439 0.26426 0.0
H1384 H 0.16618 0.43848 0.27609 0.0
H1385 H 0.17986 0.47774 0.28526 0.0
H1386 H 0.13241 0.46607 0.35353 0.0
H1387 H 0.1473 0.42632 0.36358 0.0
H1388 H 0.14571 0.39886 0.30498 0.0
C1389 C 0.11217 0.48662 0.28247 0.0
C1390 C 0.10496 0.50954 0.2897 0.0
C1391 C 0.10562 0.51414 0.30958 0.0
C1392 C 0.11406 0.49696 0.32199 0.0
C1393 C 0.12142 0.47491 0.31437 0.0
C1394 C 0.12019 0.46941 0.2951 0.0
C1395 C 0.12847 0.44382 0.29062 0.0
C1396 C 0.09961 0.41508 0.28116 0.0
C1397 C 0.15919 0.4569 0.27833 0.0
C1398 C 0.13459 0.4359 0.31038 0.0
C1399 C 0.13068 0.45427 0.32387 0.0
C1400 C 0.1355 0.45149 0.34309 0.0
C1401 C 0.14423 0.42907 0.34867 0.0
C1402 C 0.14776 0.40963 0.33509 0.0
C1403 C 0.14294 0.41325 0.31571 0.0
H1404 H 0.39178 0.45687 0.28653 0.0
H1405 H 0.38344 0.54027 0.29745 0.0
H1406 H 0.33053 0.50694 0.31296 0.0
H1407 H 0.30696 0.40299 0.27664 0.0
H1408 H 0.30612 0.36974 0.28842 0.0
H1409 H 0.3433 0.40011 0.27803 0.0
H1410 H 0.37242 0.4086 0.31038 0.0
H1411 H 0.33519 0.37847 0.3209 0.0
H1412 H 0.3562 0.41771 0.33099 0.0
H1413 H 0.27846 0.46501 0.32675 0.0
H1414 H 0.22958 0.41659 0.33743 0.0
H1415 H 0.27156 0.35982 0.31895 0.0
C1416 C 0.37857 0.46795 0.29203 0.0
C1417 C 0.39161 0.50112 0.2908 0.0
C1418 C 0.37389 0.51491 0.29835 0.0
C1419 C 0.34387 0.4962 0.30719 0.0
C1420 C 0.33191 0.46369 0.3085 0.0
C1421 C 0.34858 0.44958 0.30114 0.0
C1422 C 0.33015 0.41405 0.30462 0.0
C1423 C 0.32109 0.39564 0.28581 0.0
C1424 C 0.34967 0.40414 0.31748 0.0
C1425 C 0.30032 0.41043 0.31473 0.0
C1426 C 0.302 0.43943 0.31691 0.0
C1427 C 0.27702 0.4422 0.32531 0.0
C1428 C 0.24942 0.41455 0.33147 0.0
C1429 C 0.24718 0.38455 0.32953 0.0
C1430 C 0.27299 0.38254 0.32099 0.0
H1431 H 0.53333 0.9184 0.28363 0.0
H1432 H 0.45041 0.82636 0.29623 0.0
H1433 H 0.48643 0.81116 0.31301 0.0
H1434 H 0.59106 0.89299 0.2755 0.0
H1435 H 0.62419 0.927 0.28677 0.0
H1436 H 0.59177 0.93039 0.2759 0.0
H1437 H 0.58168 0.95106 0.30761 0.0
H1438 H 0.61404 0.94758 0.31856 0.0
H1439 H 0.57399 0.9277 0.32879 0.0
H1440 H 0.53246 0.80526 0.3271 0.0
H1441 H 0.58418 0.80988 0.33796 0.0
H1442 H 0.63629 0.90688 0.3179 0.0
C1443 C 0.52284 0.89497 0.28981 0.0
C1444 C 0.48913 0.87341 0.2885 0.0
C1445 C 0.47618 0.84319 0.29707 0.0
C1446 C 0.49644 0.83438 0.30663 0.0
C1447 C 0.52958 0.85624 0.30773 0.0
C1448 C 0.54263 0.886 0.29966 0.0
C1449 C 0.57893 0.90523 0.30304 0.0
C1450 C 0.59758 0.91443 0.28418 0.0
C1451 C 0.58766 0.93464 0.31522 0.0
C1452 C 0.58442 0.88143 0.31385 0.0
C1453 C 0.55568 0.85331 0.31648 0.0
C1454 C 0.555 0.82737 0.32537 0.0
C1455 C 0.58447 0.83025 0.33162 0.0
C1456 C 0.61409 0.85905 0.32931 0.0
C1457 C 0.6139 0.88483 0.32025 0.0
H1458 H 0.10402 0.60328 0.30567 0.0
H1459 H 0.12098 0.63171 0.2466 0.0
H1460 H 0.13901 0.68692 0.25608 0.0
H1461 H 0.07455 0.65411 0.32028 0.0
H1462 H 0.0944 0.66299 0.34304 0.0
H1463 H 0.08291 0.62575 0.33163 0.0
H1464 H 0.14236 0.63747 0.33394 0.0
H1465 H 0.15397 0.6748 0.34534 0.0
H1466 H 0.17458 0.6738 0.32417 0.0
H1467 H 0.1538 0.73857 0.27184 0.0
H1468 H 0.16458 0.78333 0.29288 0.0
H1469 H 0.14025 0.72182 0.34172 0.0
C1470 C 0.11195 0.62112 0.29469 0.0
C1471 C 0.11106 0.61303 0.27534 0.0
C1472 C 0.12098 0.63713 0.26147 0.0
C1473 C 0.13153 0.66862 0.26673 0.0
C1474 C 0.13228 0.67569 0.28591 0.0
C1475 C 0.12287 0.65267 0.29969 0.0
C1476 C 0.1257 0.66649 0.31933 0.0
C1477 C 0.09241 0.65144 0.32914 0.0
C1478 C 0.15064 0.66293 0.3314 0.0
C1479 C 0.13783 0.70087 0.31441 0.0
C1480 C 0.14147 0.70564 0.29506 0.0
C1481 C 0.15121 0.73514 0.28701 0.0
C1482 C 0.15711 0.76035 0.29905 0.0
C1483 C 0.15341 0.75595 0.31888 0.0
C1484 C 0.14398 0.72594 0.32667 0.0
H1485 H 0.83219 0.04345 0.42826 0.0
H1486 H 0.85039 0.10664 0.3806 0.0
H1487 H 0.81313 0.06125 0.36099 0.0
H1488 H 0.82506 0.9775 0.40239 0.0
H1489 H 0.79194 0.94791 0.41621 0.0
H1490 H 0.82044 0.98531 0.42681 0.0
H1491 H 0.77322 0.99471 0.43625 0.0
H1492 H 0.74458 0.95722 0.42576 0.0
H1493 H 0.74537 0.99303 0.41832 0.0
H1494 H 0.77669 0.00897 0.34572 0.0
H1495 H 0.73864 0.95321 0.33686 0.0
H1496 H 0.73942 0.92401 0.39471 0.0
C1497 C 0.82808 0.04789 0.41379 0.0
C1498 C 0.84507 0.07882 0.40597 0.0
C1499 C 0.83879 0.08325 0.38688 0.0
C1500 C 0.81734 0.05759 0.3756 0.0
C1501 C 0.80162 0.02751 0.38362 0.0
C1502 C 0.8062 0.02252 0.40235 0.0
C1503 C 0.78562 0.98769 0.40747 0.0
C1504 C 0.80705 0.97379 0.41358 0.0
C1505 C 0.76072 0.98289 0.42286 0.0
C1506 C 0.76912 0.974 0.38863 0.0
C1507 C 0.77901 0.99739 0.37502 0.0
C1508 C 0.76847 0.99047 0.35629 0.0
C1509 C 0.74709 0.9588 0.35134 0.0
C1510 C 0.73619 0.9346 0.36511 0.0
C1511 C 0.74717 0.9423 0.384 0.0
H1512 H 0.94884 0.7506 0.41033 0.0
H1513 H 0.9679 0.84741 0.40709 0.0
H1514 H 0.01978 0.86335 0.39076 0.0
H1515 H 0.03094 0.76877 0.4187 0.0
H1516 H 0.02789 0.73698 0.40411 0.0
H1517 H 0.99225 0.73319 0.41552 0.0
H1518 H 0.96322 0.72213 0.38296 0.0
H1519 H 0.9989 0.72604 0.37149 0.0
H1520 H 0.98206 0.75023 0.36398 0.0
H1521 H 0.07057 0.86929 0.37605 0.0
H1522 H 0.11634 0.86457 0.36348 0.0
H1523 H 0.06349 0.76345 0.37437 0.0
C1524 C 0.9641 0.77516 0.40628 0.0
C1525 C 0.95446 0.79784 0.41002 0.0
C1526 C 0.97482 0.82968 0.40429 0.0
C1527 C 1.0043 0.83894 0.39502 0.0
C1528 C 0.01299 0.81601 0.39137 0.0
C1529 C 0.99348 0.78475 0.39674 0.0
C1530 C 0.00848 0.76483 0.39094 0.0
C1531 C 0.0153 0.75008 0.40836 0.0
C1532 C 0.98686 0.73929 0.37649 0.0
C1533 C 0.03972 0.78989 0.38185 0.0
C1534 C 0.04178 0.81924 0.38222 0.0
C1535 C 0.06897 0.84633 0.37542 0.0
C1536 C 0.09481 0.84338 0.36815 0.0
C1537 C 0.09306 0.81348 0.36733 0.0
C1538 C 0.06513 0.78647 0.37437 0.0
H1539 H 0.24092 0.19716 0.42403 0.0
H1540 H 0.16476 0.10854 0.40062 0.0
H1541 H 0.14438 0.13796 0.38199 0.0
H1542 H 0.19168 0.23535 0.42778 0.0
H1543 H 0.22476 0.27376 0.42142 0.0
H1544 H 0.23287 0.24587 0.43349 0.0
H1545 H 0.27203 0.25055 0.40658 0.0
H1546 H 0.26415 0.27861 0.39452 0.0
H1547 H 0.25766 0.24324 0.38246 0.0
H1548 H 0.13331 0.1772 0.36519 0.0
H1549 H 0.13157 0.22328 0.35209 0.0
H1550 H 0.21492 0.28616 0.38663 0.0
C1551 C 0.21964 0.1839 0.41522 0.0
C1552 C 0.20449 0.15057 0.41373 0.0
C1553 C 0.17698 0.13413 0.4018 0.0
C1554 C 0.16515 0.1506 0.39123 0.0
C1555 C 0.181 0.18349 0.39279 0.0
C1556 C 0.20751 0.19995 0.40456 0.0
C1557 C 0.22038 0.23531 0.40347 0.0
C1558 C 0.21721 0.2483 0.4227 0.0
C1559 C 0.25564 0.25295 0.39633 0.0
C1560 C 0.19731 0.2362 0.38901 0.0
C1561 C 0.17468 0.20607 0.38308 0.0
C1562 C 0.15095 0.20093 0.36972 0.0
C1563 C 0.15031 0.22731 0.36225 0.0
C1564 C 0.1734 0.25847 0.36806 0.0
C1565 C 0.19707 0.26276 0.3817 0.0
H1566 H 0.63758 0.47634 0.73996 0.0
H1567 H 0.59593 0.53762 0.74396 0.0
H1568 H 0.64286 0.57945 0.72629 0.0
H1569 H 0.71798 0.53651 0.74896 0.0
H1570 H 0.73639 0.52066 0.73334 0.0
H1571 H 0.69779 0.49455 0.7441 0.0
H1572 H 0.67305 0.47403 0.71091 0.0
H1573 H 0.71142 0.50056 0.69994 0.0
H1574 H 0.6754 0.5017 0.69319 0.0
H1575 H 0.69578 0.61552 0.70988 0.0
H1576 H 0.75288 0.64498 0.69901 0.0
H1577 H 0.76119 0.56109 0.70711 0.0
C1578 C 0.63816 0.4984 0.73677 0.0
C1579 C 0.61307 0.50377 0.743 0.0
C1580 C 0.61491 0.53314 0.73914 0.0
C1581 C 0.64132 0.55686 0.72903 0.0
C1582 C 0.66578 0.55088 0.72309 0.0
C1583 C 0.6646 0.52248 0.72701 0.0
C1584 C 0.69549 0.52318 0.72082 0.0
C1585 C 0.71294 0.51846 0.73782 0.0
C1586 C 0.68841 0.4984 0.70528 0.0
C1587 C 0.71448 0.55656 0.71306 0.0
C1588 C 0.69667 0.57196 0.71415 0.0
C1589 C 0.70974 0.60356 0.70871 0.0
C1590 C 0.74206 0.62004 0.70246 0.0
C1591 C 0.76086 0.60488 0.70173 0.0
C1592 C 0.74685 0.57277 0.707 0.0
H1593 H 0.53302 0.15789 0.73711 0.0
H1594 H 0.47843 0.05544 0.73269 0.0
H1595 H 0.43325 0.05837 0.71738 0.0
H1596 H 0.46787 0.16736 0.75012 0.0
H1597 H 0.47997 0.20336 0.73705 0.0
H1598 H 0.51014 0.19384 0.7449 0.0
H1599 H 0.53044 0.19862 0.71052 0.0
H1600 H 0.4999 0.20744 0.70223 0.0
H1601 H 0.50255 0.17473 0.69218 0.0
H1602 H 0.39143 0.07137 0.70688 0.0
H1603 H 0.35582 0.09413 0.70106 0.0
H1604 H 0.43655 0.18828 0.71187 0.0
C1605 C 0.5119 0.13626 0.73236 0.0
C1606 C 0.5092 0.10642 0.73582 0.0
C1607 C 0.48092 0.07846 0.72997 0.0
C1608 C 0.45522 0.07992 0.72125 0.0
C1609 C 0.45814 0.10956 0.71843 0.0
C1610 C 0.48579 0.1373 0.7237 0.0
C1611 C 0.48132 0.1658 0.72059 0.0
C1612 C 0.48504 0.18362 0.73928 0.0
C1613 C 0.50496 0.18796 0.70548 0.0
C1614 C 0.44655 0.14958 0.71347 0.0
C1615 C 0.43381 0.11716 0.71209 0.0
C1616 C 0.40136 0.09678 0.70738 0.0
C1617 C 0.38134 0.10984 0.70405 0.0
C1618 C 0.39395 0.14294 0.70525 0.0
C1619 C 0.42685 0.16301 0.71011 0.0
H1620 H 0.91245 0.40574 0.73201 0.0
H1621 H 0.87872 0.36949 0.78869 0.0
H1622 H 0.86173 0.31555 0.7775 0.0
H1623 H 0.84527 0.33877 0.70745 0.0
H1624 H 0.8704 0.33935 0.68819 0.0
H1625 H 0.88035 0.37555 0.70051 0.0
H1626 H 0.93789 0.38475 0.70769 0.0
H1627 H 0.92814 0.34862 0.69539 0.0
H1628 H 0.94216 0.35423 0.71957 0.0
H1629 H 0.85083 0.26606 0.76089 0.0
H1630 H 0.8443 0.22335 0.73933 0.0
H1631 H 0.88041 0.28984 0.69261 0.0
C1632 C 0.90106 0.3865 0.74208 0.0
C1633 C 0.89737 0.39228 0.76139 0.0
C1634 C 0.88272 0.36616 0.77399 0.0
C1635 C 0.87262 0.33525 0.76772 0.0
C1636 C 0.87675 0.33055 0.74871 0.0
C1637 C 0.89029 0.35534 0.73599 0.0
C1638 C 0.8918 0.34359 0.71626 0.0
C1639 C 0.8707 0.34968 0.70228 0.0
C1640 C 0.9271 0.3587 0.70933 0.0
C1641 C 0.87748 0.30839 0.71998 0.0
C1642 C 0.8691 0.30153 0.73885 0.0
C1643 C 0.85696 0.27108 0.74607 0.0
C1644 C 0.85348 0.24704 0.73375 0.0
C1645 C 0.86174 0.25339 0.71438 0.0
C1646 C 0.87349 0.28437 0.70732 0.0
H1647 H 0.18756 0.96312 0.60465 0.0
H1648 H 0.15068 0.90015 0.65322 0.0
H1649 H 0.18589 0.94449 0.67422 0.0
H1650 H 0.27164 0.00727 0.62194 0.0
H1651 H 0.27837 0.04438 0.61232 0.0
H1652 H 0.25024 0.00758 0.60092 0.0
H1653 H 0.20501 0.02238 0.60357 0.0
H1654 H 0.23294 0.05908 0.61507 0.0
H1655 H 0.19523 0.03183 0.62644 0.0
H1656 H 0.22145 0.99642 0.69034 0.0
H1657 H 0.25985 0.05166 0.70008 0.0
H1658 H 0.27827 0.07976 0.64113 0.0
C1659 C 0.18723 0.95838 0.61964 0.0
C1660 C 0.16571 0.92801 0.6272 0.0
C1661 C 0.16607 0.92325 0.64701 0.0
C1662 C 0.18624 0.94827 0.6591 0.0
C1663 C 0.20656 0.9779 0.65122 0.0
C1664 C 0.2077 0.98298 0.63193 0.0
C1665 C 0.23205 0.01718 0.62714 0.0
C1666 C 0.25972 0.01921 0.61485 0.0
C1667 C 0.21529 0.03357 0.61749 0.0
C1668 C 0.24401 0.03053 0.64678 0.0
C1669 C 0.22871 0.00751 0.66048 0.0
C1670 C 0.23403 0.01454 0.67974 0.0
C1671 C 0.25572 0.04591 0.68515 0.0
C1672 C 0.27222 0.06964 0.67134 0.0
C1673 C 0.26641 0.0618 0.65193 0.0
H1674 H 0.03616 0.17808 0.63097 0.0
H1675 H 0.09656 0.28041 0.63169 0.0
H1676 H 0.055 0.28465 0.65044 0.0
H1677 H 0.96201 0.17698 0.62394 0.0
H1678 H 0.93784 0.14287 0.63859 0.0
H1679 H 0.97388 0.14743 0.62733 0.0
H1680 H 0.99572 0.14261 0.65999 0.0
H1681 H 0.96006 0.13879 0.67147 0.0
H1682 H 0.99986 0.16947 0.67877 0.0
H1683 H 0.00598 0.27876 0.66613 0.0
H1684 H 0.95038 0.2634 0.6762 0.0
H1685 H 0.91978 0.16461 0.66576 0.0
C1686 C 0.04069 0.20124 0.63543 0.0
C1687 C 0.06961 0.22901 0.6301 0.0
C1688 C 0.0746 0.25899 0.63575 0.0
C1689 C 0.05123 0.26156 0.64648 0.0
C1690 C 0.02286 0.23389 0.65142 0.0
C1691 C 0.01727 0.20425 0.64602 0.0
C1692 C 0.9833 0.17866 0.65179 0.0
C1693 C 0.96307 0.16043 0.63438 0.0
C1694 C 0.98483 0.15604 0.66638 0.0
C1695 C 0.97044 0.19869 0.66071 0.0
C1696 C 0.99401 0.23043 0.66061 0.0
C1697 C 0.98752 0.25397 0.66662 0.0
C1698 C 0.95592 0.24504 0.67235 0.0
C1699 C 0.93116 0.21286 0.67222 0.0
C1700 C 0.93862 0.18927 0.66666 0.0
H1701 H 0.82679 0.85955 0.63762 0.0
H1702 H 0.72884 0.80237 0.61583 0.0
H1703 H 0.725 0.75508 0.63113 0.0
H1704 H 0.85145 0.80368 0.6305 0.0
H1705 H 0.8753 0.81237 0.65182 0.0
H1706 H 0.86945 0.84263 0.64099 0.0
H1707 H 0.84617 0.85029 0.67247 0.0
H1708 H 0.85216 0.82009 0.68338 0.0
H1709 H 0.81256 0.81656 0.68358 0.0
H1710 H 0.73343 0.71325 0.64571 0.0
H1711 H 0.75331 0.67948 0.65934 0.0
H1712 H 0.84533 0.76308 0.6728 0.0
C1713 C 0.80425 0.83723 0.63649 0.0
C1714 C 0.7781 0.83467 0.62548 0.0
C1715 C 0.74929 0.80487 0.62401 0.0
C1716 C 0.74679 0.7779 0.63276 0.0
C1717 C 0.7732 0.78105 0.64312 0.0
C1718 C 0.80133 0.80996 0.6452 0.0
C1719 C 0.82683 0.80627 0.65613 0.0
C1720 C 0.85756 0.81686 0.64414 0.0
C1721 C 0.8349 0.82438 0.67501 0.0
C1722 C 0.80893 0.77069 0.65936 0.0
C1723 C 0.77795 0.75671 0.65184 0.0
C1724 C 0.75747 0.72396 0.65188 0.0
C1725 C 0.76905 0.70492 0.65956 0.0
C1726 C 0.80079 0.71861 0.66718 0.0
C1727 C 0.82073 0.752 0.66738 0.0
H1728 H 0.05963 0.7898 0.61549 0.0
H1729 H 0.0453 0.8702 0.62409 0.0
H1730 H 0.99367 0.83568 0.64071 0.0
H1731 H 0.97409 0.7303 0.60829 0.0
H1732 H 0.97748 0.69989 0.62091 0.0
H1733 H 0.0122 0.73062 0.60871 0.0
H1734 H 0.04535 0.74467 0.63997 0.0
H1735 H 0.01051 0.71425 0.65226 0.0
H1736 H 0.03013 0.75457 0.66073 0.0
H1737 H 0.94352 0.79241 0.65633 0.0
H1738 H 0.89807 0.74315 0.66935 0.0
H1739 H 0.94666 0.69152 0.65279 0.0
C1740 C 0.04523 0.79988 0.62058 0.0
C1741 C 0.05618 0.83254 0.61839 0.0
C1742 C 0.03714 0.84517 0.62558 0.0
C1743 C 0.00789 0.82579 0.63506 0.0
C1744 C 0.99808 0.79383 0.6374 0.0
C1745 C 0.01608 0.78089 0.63032 0.0
C1746 C 1.00044 0.74599 0.63525 0.0
C1747 C 0.99046 0.72549 0.61721 0.0
C1748 C 0.02296 0.73951 0.6478 0.0
C1749 C 0.97097 0.74139 0.64619 0.0
C1750 C 0.96997 0.76925 0.64719 0.0
C1751 C 0.94432 0.77057 0.65587 0.0
C1752 C 0.91879 0.74256 0.66346 0.0
C1753 C 0.9195 0.71382 0.66278 0.0
C1754 C 0.94601 0.71339 0.65403 0.0
H1755 H 0.19256 0.25129 0.63885 0.0
H1756 H 0.13588 0.16104 0.6104 0.0
H1757 H 0.17114 0.14207 0.62424 0.0
H1758 H 0.27005 0.25693 0.6319 0.0
H1759 H 0.28614 0.27512 0.65457 0.0
H1760 H 0.2555 0.28075 0.64315 0.0
H1761 H 0.22028 0.26004 0.67311 0.0
H1762 H 0.24963 0.25252 0.68467 0.0
H1763 H 0.20827 0.22096 0.6818 0.0
H1764 H 0.21363 0.13376 0.64013 0.0
H1765 H 0.26165 0.13718 0.65601 0.0
H1766 H 0.29159 0.23303 0.67414 0.0
C1767 C 0.18762 0.2275 0.63568 0.0
C1768 C 0.16157 0.20742 0.62367 0.0
C1769 C 0.15575 0.17658 0.61962 0.0
C1770 C 0.17556 0.16566 0.62745 0.0
C1771 C 0.20112 0.18596 0.63928 0.0
C1772 C 0.20734 0.21631 0.64331 0.0
C1773 C 0.23719 0.23376 0.6558 0.0
C1774 C 0.26379 0.26339 0.64575 0.0
C1775 C 0.22833 0.24233 0.67499 0.0
C1776 C 0.24699 0.20863 0.65801 0.0
C1777 C 0.22565 0.18114 0.64849 0.0
C1778 C 0.23022 0.15499 0.64783 0.0
C1779 C 0.25745 0.15707 0.65697 0.0
C1780 C 0.27967 0.185 0.66676 0.0
C1781 C 0.27442 0.21113 0.66719 0.0
H1782 H 0.78508 0.93733 0.6461 0.0
H1783 H 0.84446 0.9736 0.59568 0.0
H1784 H 0.86166 0.02826 0.6057 0.0
H1785 H 0.75675 0.99084 0.64698 0.0
H1786 H 0.75843 0.99624 0.67229 0.0
H1787 H 0.75309 0.95977 0.66247 0.0
H1788 H 0.80417 0.967 0.68042 0.0
H1789 H 0.8083 0.00265 0.6908 0.0
H1790 H 0.84188 0.00392 0.67818 0.0
H1791 H 0.86713 0.07815 0.61883 0.0
H1792 H 0.86589 0.12136 0.6367 0.0
H1793 H 0.8056 0.05407 0.67956 0.0
C1794 C 0.80246 0.95684 0.6375 0.0
C1795 C 0.81328 0.95122 0.62004 0.0
C1796 C 0.8356 0.97737 0.609 0.0
C1797 C 0.84556 0.00851 0.61458 0.0
C1798 C 0.8334 0.01324 0.63141 0.0
C1799 C 0.81289 0.98826 0.64295 0.0
C1800 C 0.80258 1.00007 0.66002 0.0
C1801 C 0.76551 0.98588 0.66045 0.0
C1802 C 0.81501 0.993 0.67844 0.0
C1803 C 0.81982 0.03539 0.65597 0.0
C1804 C 0.83738 0.04239 0.63934 0.0
C1805 C 0.85388 0.07307 0.63202 0.0
C1806 C 0.85283 0.09734 0.64211 0.0
C1807 C 0.83564 0.09077 0.65934 0.0
C1808 C 0.81901 0.05951 0.66641 0.0
H1809 H 0.50601 0.405 0.72398 0.0
H1810 H 0.53323 0.37015 0.77318 0.0
H1811 H 0.49718 0.31509 0.76261 0.0
H1812 H 0.42323 0.34688 0.7243 0.0
H1813 H 0.41846 0.34263 0.69896 0.0
H1814 H 0.44898 0.3796 0.70907 0.0
H1815 H 0.49334 0.37682 0.68918 0.0
H1816 H 0.46283 0.33991 0.67892 0.0
H1817 H 0.49757 0.34206 0.69063 0.0
H1818 H 0.45646 0.26441 0.74817 0.0
H1819 H 0.41243 0.22011 0.7305 0.0
H1820 H 0.40938 0.28638 0.69075 0.0
C1821 C 0.50481 0.3857 0.73224 0.0
C1822 C 0.5224 0.39167 0.74936 0.0
C1823 C 0.51984 0.36595 0.76007 0.0
C1824 C 0.49955 0.33466 0.75414 0.0
C1825 C 0.48196 0.32947 0.73746 0.0
C1826 C 0.48437 0.35415 0.72657 0.0
C1827 C 0.46115 0.34167 0.70985 0.0
C1828 C 0.4365 0.3534 0.7106 0.0
C1829 C 0.47985 0.35066 0.69103 0.0
C1830 C 0.44486 0.30624 0.71334 0.0
C1831 C 0.45762 0.29986 0.72925 0.0
C1832 C 0.4463 0.26908 0.73569 0.0
C1833 C 0.42115 0.24412 0.72567 0.0
C1834 C 0.40736 0.25009 0.70958 0.0
C1835 C 0.41955 0.28144 0.70314 0.0
H1836 H 0.61763 0.07344 0.74421 0.0
H1837 H 0.63103 0.16797 0.73843 0.0
H1838 H 0.68452 0.18611 0.72354 0.0
H1839 H 0.7009 0.0967 0.75479 0.0
H1840 H 0.70055 0.06519 0.74115 0.0
H1841 H 0.66353 0.05976 0.75156 0.0
H1842 H 0.63599 0.04585 0.71851 0.0
H1843 H 0.67306 0.05146 0.70803 0.0
H1844 H 0.65447 0.07342 0.69924 0.0
H1845 H 0.73728 0.19451 0.71037 0.0
H1846 H 0.78528 0.19252 0.69951 0.0
H1847 H 0.73716 0.09189 0.71165 0.0
C1848 C 0.63203 0.09802 0.73998 0.0
C1849 C 0.6203 0.11941 0.74259 0.0
C1850 C 0.63957 0.15124 0.73656 0.0
C1851 C 0.66995 0.16173 0.72808 0.0
C1852 C 0.68066 0.14003 0.7255 0.0
C1853 C 0.66231 0.10881 0.73121 0.0
C1854 C 0.67941 0.09032 0.7265 0.0
C1855 C 0.68652 0.07723 0.74458 0.0
C1856 C 0.65954 0.06368 0.71222 0.0
C1857 C 0.71046 0.11614 0.71759 0.0
C1858 C 0.7106 0.1446 0.71715 0.0
C1859 C 0.73717 0.17221 0.71037 0.0
C1860 C 0.76438 0.17079 0.70404 0.0
C1861 C 0.76477 0.14186 0.70403 0.0
C1862 C 0.73732 0.11421 0.71098 0.0
H1863 H 0.89568 0.52135 0.77091 0.0
H1864 H 0.93129 0.48698 0.72532 0.0
H1865 H 0.92246 0.52043 0.70265 0.0
H1866 H 0.83355 0.52432 0.74489 0.0
H1867 H 0.83933 0.56042 0.7556 0.0
H1868 H 0.84963 0.5348 0.76858 0.0
H1869 H 0.90816 0.58147 0.77359 0.0
H1870 H 0.89792 0.60729 0.76075 0.0
H1871 H 0.93194 0.60317 0.75335 0.0
H1872 H 0.90675 0.55514 0.68445 0.0
H1873 H 0.88874 0.59173 0.6726 0.0
H1874 H 0.86496 0.60501 0.72983 0.0
C1875 C 0.9022 0.52131 0.75624 0.0
C1876 C 0.91392 0.50123 0.74992 0.0
C1877 C 0.92175 0.50168 0.7305 0.0
C1878 C 0.91697 0.52073 0.71749 0.0
C1879 C 0.90465 0.53959 0.72408 0.0
C1880 C 0.89774 0.54038 0.74302 0.0
C1881 C 0.88433 0.56251 0.7463 0.0
C1882 C 0.84966 0.54442 0.75432 0.0
C1883 C 0.90694 0.59026 0.75926 0.0
C1884 C 0.8845 0.57371 0.72624 0.0
C1885 C 0.89617 0.56009 0.71362 0.0
C1886 C 0.89763 0.56601 0.69422 0.0
C1887 C 0.88696 0.58647 0.68755 0.0
C1888 C 0.8751 0.60077 0.70023 0.0
C1889 C 0.87411 0.59445 0.71983 0.0
H1890 H 0.4816 0.89204 0.22108 0.0
H1891 H 0.44636 0.95523 0.23842 0.0
H1892 H 0.45726 0.97841 0.2065 0.0
H1893 H 0.54795 0.9503 0.19289 0.0
H1894 H 0.54439 0.92211 0.17512 0.0
H1895 H 0.53237 0.90931 0.19915 0.0
H1896 H 0.47531 0.86695 0.18738 0.0
H1897 H 0.4871 0.87976 0.16332 0.0
H1898 H 0.45175 0.87898 0.17321 0.0
H1899 H 0.47179 0.99494 0.17237 0.0
H1900 H 0.4928 0.00611 0.13959 0.0
H1901 H 0.5212 0.93438 0.14475 0.0
C1902 C 0.47637 0.91091 0.21829 0.0
C1903 C 0.46252 0.92126 0.23243 0.0
C1904 C 0.45602 0.94601 0.22789 0.0
C1905 C 0.46237 0.9596 0.20975 0.0
C1906 C 0.47564 0.94859 0.19618 0.0
C1907 C 0.4829 0.92505 0.20028 0.0
C1908 C 0.4981 0.9183 0.18329 0.0
C1909 C 0.53276 0.92544 0.18789 0.0
C1910 C 0.47679 0.88395 0.1764 0.0
C1911 C 0.49833 0.94178 0.16905 0.0
C1912 C 0.48495 0.95881 0.17671 0.0
C1913 C 0.48234 0.98176 0.16624 0.0
C1914 C 0.49414 0.9878 0.14757 0.0
C1915 C 0.5087 0.9712 0.13954 0.0
C1916 C 0.51047 0.9477 0.15049 0.0
H1917 H 0.07767 0.56145 0.21324 0.0
H1918 H 0.01667 0.47521 0.24473 0.0
H1919 H 0.98276 0.45163 0.21633 0.0
H1920 H 0.01328 0.56218 0.18723 0.0
H1921 H 0.03652 0.5771 0.16577 0.0
H1922 H 0.05684 0.58673 0.18836 0.0
H1923 H 0.09302 0.56397 0.1771 0.0
H1924 H 0.07269 0.55413 0.15449 0.0
H1925 H 0.07422 0.52382 0.16836 0.0
H1926 H 0.95456 0.43781 0.18482 0.0
H1927 H 0.93356 0.43495 0.15249 0.0
H1928 H 0.01193 0.53057 0.14151 0.0
C1929 C 0.05712 0.53764 0.2142 0.0
C1930 C 0.05001 0.52014 0.23126 0.0
C1931 C 0.02301 0.48893 0.23179 0.0
C1932 C 1.00348 0.47536 0.21574 0.0
C1933 C 0.01119 0.49325 0.1992 0.0
C1934 C 0.03733 0.52371 0.1983 0.0
C1935 C 0.03992 0.53804 0.17886 0.0
C1936 C 0.03642 0.56777 0.18014 0.0
C1937 C 0.07186 0.54542 0.16913 0.0
C1938 C 0.01092 0.51099 0.16905 0.0
C1939 C 0.99479 0.48534 0.18103 0.0
C1940 C 0.96698 0.45776 0.17532 0.0
C1941 C 0.95514 0.45643 0.15695 0.0
C1942 C 0.97098 0.48256 0.14445 0.0
C1943 C 0.99946 0.51006 0.15061 0.0
H1944 H 0.45523 0.48635 0.23748 0.0
H1945 H 0.48893 0.5866 0.23028 0.0
H1946 H 0.50447 0.58374 0.19734 0.0
H1947 H 0.51845 0.48533 0.21075 0.0
H1948 H 0.49276 0.44693 0.20028 0.0
H1949 H 0.48273 0.45627 0.22308 0.0
H1950 H 0.42588 0.44246 0.2106 0.0
H1951 H 0.43569 0.43294 0.18777 0.0
H1952 H 0.4227 0.4619 0.18965 0.0
H1953 H 0.5176 0.5706 0.16548 0.0
H1954 H 0.52826 0.54813 0.13687 0.0
H1955 H 0.48627 0.45625 0.16433 0.0
C1956 C 0.46554 0.50757 0.22888 0.0
C1957 C 0.47098 0.53674 0.23649 0.0
C1958 C 0.48489 0.56409 0.22484 0.0
C1959 C 0.49365 0.56267 0.20607 0.0
C1960 C 0.48839 0.53372 0.19907 0.0
C1961 C 0.47468 0.50663 0.21007 0.0
C1962 C 0.47264 0.47878 0.19918 0.0
C1963 C 0.49285 0.46609 0.20891 0.0
C1964 C 0.43711 0.45247 0.19665 0.0
C1965 C 0.48758 0.49454 0.18044 0.0
C1966 C 0.49627 0.52618 0.18067 0.0
C1967 C 0.51073 0.54579 0.16509 0.0
C1968 C 0.51654 0.53275 0.14885 0.0
C1969 C 0.50804 0.50039 0.14826 0.0
C1970 C 0.49331 0.48112 0.16434 0.0
H1971 H 0.98311 0.51964 0.80755 0.0
H1972 H 0.90302 0.42899 0.82548 0.0
H1973 H 0.923 0.44067 0.85842 0.0
H1974 H 0.04261 0.51863 0.83745 0.0
H1975 H 0.06334 0.5605 0.8426 0.0
H1976 H 0.04167 0.54598 0.82061 0.0
H1977 H 0.0078 0.57303 0.82806 0.0
H1978 H 0.02946 0.58774 0.85006 0.0
H1979 H 0.98577 0.56437 0.85005 0.0
H1980 H 0.95317 0.46119 0.8894 0.0
H1981 H 0.99158 0.48862 0.91563 0.0
H1982 H 0.05157 0.56637 0.87781 0.0
C1983 C 0.9695 0.50248 0.81846 0.0
C1984 C 0.94147 0.47334 0.81386 0.0
C1985 C 0.92471 0.45132 0.82857 0.0
C1986 C 0.93578 0.45782 0.84737 0.0
C1987 C 0.96371 0.48652 0.85138 0.0
C1988 C 0.98033 0.50854 0.83735 0.0
C1989 C 0.01042 0.537 0.84534 0.0
C1990 C 0.04133 0.54073 0.83594 0.0
C1991 C 0.00822 0.56733 0.84325 0.0
C1992 C 0.00832 0.52738 0.86596 0.0
C1993 C 0.98108 0.49827 0.86919 0.0
C1994 C 0.97444 0.48415 0.88705 0.0
C1995 C 0.99633 0.50002 0.90193 0.0
C1996 C 0.02471 0.52975 0.89892 0.0
C1997 C 0.03036 0.54358 0.88065 0.0
H1998 H 0.55102 0.50993 0.80021 0.0
H1999 H 0.54961 0.42209 0.81322 0.0
H2000 H 0.53701 0.42651 0.84652 0.0
H2001 H 0.58727 0.54985 0.84561 0.0
H2002 H 0.56303 0.56886 0.84676 0.0
H2003 H 0.57409 0.56 0.82411 0.0
H2004 H 0.51336 0.52854 0.81459 0.0
H2005 H 0.50211 0.53706 0.83725 0.0
H2006 H 0.48508 0.49655 0.82946 0.0
H2007 H 0.52077 0.43799 0.87772 0.0
H2008 H 0.50371 0.45692 0.90533 0.0
H2009 H 0.51735 0.53863 0.87299 0.0
C2010 C 0.54862 0.49198 0.81017 0.0
C2011 C 0.55108 0.46554 0.80408 0.0
C2012 C 0.5474 0.44232 0.8175 0.0
C2013 C 0.5404 0.44469 0.83648 0.0
C2014 C 0.53732 0.47055 0.84194 0.0
C2015 C 0.54155 0.49396 0.82927 0.0
C2016 C 0.53578 0.51868 0.83884 0.0
C2017 C 0.5669 0.55128 0.83883 0.0
C2018 C 0.50739 0.52028 0.82948 0.0
C2019 C 0.52711 0.50514 0.85872 0.0
C2020 C 0.52831 0.47744 0.86017 0.0
C2021 C 0.52023 0.45994 0.87686 0.0
C2022 C 0.51074 0.47104 0.89254 0.0
C2023 C 0.50946 0.49952 0.89154 0.0
C2024 C 0.51788 0.51672 0.8743 0.0
H2025 H 0.57535 0.08777 0.8098 0.0
H2026 H 0.48702 0.02633 0.77858 0.0
H2027 H 0.462 0.99621 0.80755 0.0
H2028 H 0.5719 0.02417 0.83962 0.0
H2029 H 0.58755 0.04892 0.86035 0.0
H2030 H 0.59907 0.06622 0.83711 0.0
H2031 H 0.57878 0.10521 0.84552 0.0
H2032 H 0.56675 0.08769 0.86868 0.0
H2033 H 0.53752 0.08982 0.85337 0.0
H2034 H 0.44483 0.97442 0.8394 0.0
H2035 H 0.43874 0.95613 0.87234 0.0
H2036 H 0.53846 0.0282 0.88409 0.0
C2037 C 0.55093 0.06771 0.80906 0.0
C2038 C 0.53294 0.0599 0.79191 0.0
C2039 C 0.50104 0.03338 0.79157 0.0
C2040 C 0.48657 0.01603 0.80797 0.0
C2041 C 0.50435 0.02499 0.82471 0.0
C2042 C 0.53602 0.04971 0.82543 0.0
C2043 C 0.54959 0.05335 0.84542 0.0
C2044 C 0.57876 0.04783 0.84563 0.0
C2045 C 0.5587 0.08596 0.85373 0.0
C2046 C 0.52051 0.02686 0.85568 0.0
C2047 C 0.49468 0.01122 0.84335 0.0
C2048 C 0.46497 0.98618 0.84916 0.0
C2049 C 0.46177 0.97597 0.86792 0.0
C2050 C 0.48819 0.99039 0.88076 0.0
C2051 C 0.5178 0.01676 0.87464 0.0
H2052 H 0.15146 0.22697 0.55735 0.0
H2053 H 0.11764 0.29076 0.57589 0.0
H2054 H 0.12788 0.31421 0.54409 0.0
H2055 H 0.21764 0.28531 0.52947 0.0
H2056 H 0.2138 0.25756 0.51132 0.0
H2057 H 0.20168 0.24408 0.53524 0.0
H2058 H 0.14447 0.20246 0.52327 0.0
H2059 H 0.15638 0.21594 0.49932 0.0
H2060 H 0.1212 0.21524 0.50941 0.0
H2061 H 0.14214 0.33141 0.51007 0.0
H2062 H 0.16334 0.34356 0.47735 0.0
H2063 H 0.19126 0.27137 0.48132 0.0
C2064 C 0.14634 0.24599 0.55487 0.0
C2065 C 0.13311 0.25643 0.56935 0.0
C2066 C 0.12674 0.28137 0.56513 0.0
C2067 C 0.13275 0.29515 0.54705 0.0
C2068 C 0.14559 0.28417 0.5332 0.0
C2069 C 0.15264 0.26039 0.53693 0.0
C2070 C 0.16772 0.25396 0.51975 0.0
C2071 C 0.20226 0.26064 0.52422 0.0
C2072 C 0.14615 0.21988 0.51251 0.0
C2073 C 0.16821 0.27799 0.50584 0.0
C2074 C 0.15495 0.2949 0.51381 0.0
C2075 C 0.15259 0.31831 0.50369 0.0
C2076 C 0.16452 0.32493 0.48506 0.0
C2077 C 0.179 0.30849 0.47673 0.0
C2078 C 0.18056 0.28453 0.48731 0.0
H2079 H 0.71599 0.83927 0.56884 0.0
H2080 H 0.8095 0.92069 0.55522 0.0
H2081 H 0.79146 0.91931 0.5223 0.0
H2082 H 0.70313 0.79875 0.52249 0.0
H2083 H 0.66017 0.78493 0.52243 0.0
H2084 H 0.68135 0.79056 0.54455 0.0
H2085 H 0.66059 0.82788 0.55599 0.0
H2086 H 0.63966 0.82267 0.53386 0.0
H2087 H 0.6687 0.86197 0.54192 0.0
H2088 H 0.76225 0.91229 0.49191 0.0
H2089 H 0.72436 0.89849 0.46514 0.0
H2090 H 0.64972 0.82037 0.49765 0.0
C2091 C 0.73284 0.8563 0.55878 0.0
C2092 C 0.76413 0.88014 0.56455 0.0
C2093 C 0.78535 0.9024 0.5511 0.0
C2094 C 0.77537 0.90175 0.53237 0.0
C2095 C 0.74411 0.87857 0.52725 0.0
C2096 C 0.7232 0.85604 0.53995 0.0
C2097 C 0.6904 0.83461 0.53087 0.0
C2098 C 0.68336 0.80017 0.53003 0.0
C2099 C 0.66325 0.83694 0.54128 0.0
C2100 C 0.69602 0.84906 0.51124 0.0
C2101 C 0.72723 0.87429 0.50948 0.0
C2102 C 0.7379 0.89223 0.49298 0.0
C2103 C 0.71617 0.88407 0.4778 0.0
C2104 C 0.68406 0.85807 0.4791 0.0
C2105 C 0.674 0.84043 0.49614 0.0
H2106 H 0.12181 0.82118 0.56462 0.0
H2107 H 0.15327 0.92118 0.55898 0.0
H2108 H 0.16921 0.92007 0.52586 0.0
H2109 H 0.18638 0.82326 0.53763 0.0
H2110 H 0.16168 0.78505 0.52671 0.0
H2111 H 0.15097 0.79309 0.54967 0.0
H2112 H 0.09378 0.77809 0.53719 0.0
H2113 H 0.10429 0.76991 0.51418 0.0
H2114 H 0.09007 0.79786 0.51655 0.0
H2115 H 0.1827 0.90856 0.49354 0.0
H2116 H 0.19465 0.88783 0.46457 0.0
H2117 H 0.15544 0.7954 0.49099 0.0
C2118 C 0.13172 0.8427 0.55632 0.0
C2119 C 0.13633 0.8713 0.56439 0.0
C2120 C 0.14978 0.8991 0.55315 0.0
C2121 C 0.15876 0.89866 0.53429 0.0
C2122 C 0.15427 0.87025 0.52681 0.0
C2123 C 0.14116 0.84277 0.53745 0.0
C2124 C 0.14015 0.81574 0.52615 0.0
C2125 C 0.16104 0.80358 0.53561 0.0
C2126 C 0.10498 0.78881 0.52335 0.0
C2127 C 0.15497 0.83239 0.50758 0.0
C2128 C 0.16264 0.86375 0.50823 0.0
C2129 C 0.17669 0.884 0.49284 0.0
C2130 C 0.18324 0.87196 0.4764 0.0
C2131 C 0.176 0.83998 0.47544 0.0
C2132 C 0.16155 0.82001 0.4913 0.0
H2133 H 0.58407 0.77366 0.15304 0.0
H2134 H 0.64442 0.86222 0.12361 0.0
H2135 H 0.67804 0.88419 0.15244 0.0
H2136 H 0.58667 0.80895 0.19929 0.0
H2137 H 0.58773 0.77745 0.21211 0.0
H2138 H 0.56753 0.76946 0.1895 0.0
H2139 H 0.60324 0.7469 0.17703 0.0
H2140 H 0.62355 0.75484 0.19957 0.0
H2141 H 0.64683 0.77104 0.17825 0.0
H2142 H 0.70771 0.89465 0.18356 0.0
H2143 H 0.72947 0.89395 0.21531 0.0
H2144 H 0.64853 0.79932 0.2248 0.0
C2145 C 0.60427 0.79774 0.15271 0.0
C2146 C 0.61175 0.81627 0.13611 0.0
C2147 C 0.63817 0.84775 0.13625 0.0
C2148 C 0.65742 0.86036 0.15252 0.0
C2149 C 0.64963 0.8413 0.16858 0.0
C2150 C 0.62347 0.81078 0.16887 0.0
C2151 C 0.62063 0.79502 0.18781 0.0
C2152 C 0.58875 0.78727 0.19776 0.0
C2153 C 0.62376 0.76519 0.18552 0.0
C2154 C 0.64971 0.82118 0.19803 0.0
C2155 C 0.66614 0.84768 0.18669 0.0
C2156 C 0.6948 0.87421 0.19265 0.0
C2157 C 0.70703 0.87357 0.21063 0.0
C2158 C 0.69048 0.84672 0.22248 0.0
C2159 C 0.6613 0.82036 0.21613 0.0
H2160 H 0.16174 0.80988 0.12762 0.0
H2161 H 0.26587 0.85071 0.13453 0.0
H2162 H 0.26179 0.86621 0.16722 0.0
H2163 H 0.15308 0.86756 0.15608 0.0
H2164 H 0.11489 0.83826 0.16608 0.0
H2165 H 0.12635 0.83241 0.14277 0.0
H2166 H 0.11888 0.77812 0.15322 0.0
H2167 H 0.10749 0.78383 0.17657 0.0
H2168 H 0.14065 0.77619 0.17363 0.0
H2169 H 0.24597 0.87469 0.19987 0.0
H2170 H 0.21977 0.87685 0.22958 0.0
H2171 H 0.12576 0.82877 0.20174 0.0
C2172 C 0.18375 0.82218 0.13595 0.0
C2173 C 0.21418 0.82921 0.12835 0.0
C2174 C 0.24235 0.84557 0.1398 0.0
C2175 C 0.24026 0.85427 0.15847 0.0
C2176 C 0.20982 0.84647 0.16558 0.0
C2177 C 0.18208 0.83091 0.15465 0.0
C2178 C 0.15219 0.82436 0.16587 0.0
C2179 C 0.13566 0.84169 0.15718 0.0
C2180 C 0.12841 0.7885 0.16741 0.0
C2181 C 0.16742 0.83846 0.18486 0.0
C2182 C 0.20069 0.85114 0.1844 0.0
C2183 C 0.21993 0.86491 0.20037 0.0
C2184 C 0.20479 0.86581 0.21723 0.0
C2185 C 0.17068 0.85299 0.21805 0.0
C2186 C 0.15191 0.83919 0.20156 0.0
H2187 H 0.15968 0.38521 0.12966 0.0
H2188 H 0.26203 0.45118 0.13952 0.0
H2189 H 0.25583 0.4337 0.17274 0.0
H2190 H 0.13185 0.39643 0.17571 0.0
H2191 H 0.10075 0.35539 0.17771 0.0
H2192 H 0.11311 0.3734 0.15469 0.0
H2193 H 0.12582 0.32952 0.14462 0.0
H2194 H 0.11364 0.31146 0.16762 0.0
H2195 H 0.15346 0.3227 0.15867 0.0
H2196 H 0.23903 0.40758 0.20479 0.0
H2197 H 0.21278 0.3755 0.23314 0.0
H2198 H 0.12056 0.32877 0.20319 0.0
C2199 C 0.18074 0.39634 0.13883 0.0
C2200 C 0.21145 0.41948 0.13176 0.0
C2201 C 0.23837 0.43299 0.14434 0.0
C2202 C 0.23506 0.42339 0.16334 0.0
C2203 C 0.20458 0.40036 0.16975 0.0
C2204 C 0.17784 0.38714 0.15792 0.0
C2205 C 0.14787 0.36258 0.16835 0.0
C2206 C 0.12186 0.37255 0.16916 0.0
C2207 C 0.13442 0.32962 0.15927 0.0
C2208 C 0.16204 0.36383 0.18782 0.0
C2209 C 0.19478 0.3858 0.18833 0.0
C2210 C 0.21329 0.39056 0.20461 0.0
C2211 C 0.19802 0.37231 0.22075 0.0
C2212 C 0.1644 0.34953 0.22066 0.0
C2213 C 0.14631 0.34561 0.20387 0.0
H2214 H 0.83695 0.62044 0.90168 0.0
H2215 H 0.73588 0.55035 0.89196 0.0
H2216 H 0.74014 0.56978 0.85916 0.0
H2217 H 0.83655 0.68291 0.87528 0.0
H2218 H 0.87695 0.69811 0.86601 0.0
H2219 H 0.86625 0.67801 0.88848 0.0
H2220 H 0.88388 0.63858 0.87638 0.0
H2221 H 0.89473 0.65862 0.85388 0.0
H2222 H 0.86637 0.61663 0.85487 0.0
H2223 H 0.75554 0.59711 0.82724 0.0
H2224 H 0.7802 0.63129 0.79927 0.0
H2225 H 0.87114 0.6839 0.82985 0.0
C2226 C 0.8158 0.60891 0.89259 0.0
C2227 C 0.78606 0.58372 0.89942 0.0
C2228 C 0.75883 0.56977 0.88712 0.0
C2229 C 0.76107 0.58056 0.86843 0.0
C2230 C 0.79069 0.60548 0.86219 0.0
C2231 C 0.81755 0.61955 0.87392 0.0
C2232 C 0.84629 0.64651 0.8639 0.0
C2233 C 0.85714 0.67826 0.87402 0.0
C2234 C 0.87448 0.63967 0.86216 0.0
C2235 C 0.8314 0.6455 0.84472 0.0
C2236 C 0.79937 0.62152 0.84397 0.0
C2237 C 0.78062 0.61592 0.82769 0.0
C2238 C 0.79491 0.63538 0.81181 0.0
C2239 C 0.82763 0.66036 0.81229 0.0
C2240 C 0.84599 0.66528 0.82904 0.0
H2241 H 0.37719 0.15744 0.8951 0.0
H2242 H 0.44164 0.25568 0.87993 0.0
H2243 H 0.4189 0.24469 0.84745 0.0
H2244 H 0.37831 0.12219 0.84954 0.0
H2245 H 0.33586 0.09269 0.8507 0.0
H2246 H 0.35906 0.10784 0.87218 0.0
H2247 H 0.31773 0.12379 0.88432 0.0
H2248 H 0.29447 0.10879 0.86288 0.0
H2249 H 0.30888 0.14924 0.87002 0.0
H2250 H 0.38775 0.22301 0.81674 0.0
H2251 H 0.3487 0.19326 0.79109 0.0
H2252 H 0.30365 0.10972 0.82679 0.0
C2253 C 0.38687 0.17647 0.88483 0.0
C2254 C 0.41136 0.20735 0.88994 0.0
C2255 C 0.42289 0.23186 0.87626 0.0
C2256 C 0.41022 0.2258 0.85778 0.0
C2257 C 0.38584 0.19514 0.85323 0.0
C2258 C 0.37419 0.17092 0.86641 0.0
C2259 C 0.34653 0.14058 0.85831 0.0
C2260 C 0.35549 0.11427 0.85764 0.0
C2261 C 0.31505 0.12999 0.86955 0.0
C2262 C 0.34423 0.15154 0.8386 0.0
C2263 C 0.36735 0.18297 0.83583 0.0
C2264 C 0.36962 0.19836 0.81875 0.0
C2265 C 0.34745 0.18126 0.80423 0.0
C2266 C 0.32308 0.14923 0.80695 0.0
C2267 C 0.32182 0.13426 0.82434 0.0
H2268 H 0.7907 0.15428 0.90342 0.0
H2269 H 0.80665 0.24885 0.89317 0.0
H2270 H 0.82043 0.24556 0.85987 0.0
H2271 H 0.85637 0.16267 0.87667 0.0
H2272 H 0.83645 0.12296 0.8672 0.0
H2273 H 0.82383 0.13073 0.88962 0.0
H2274 H 0.7648 0.10647 0.87729 0.0
H2275 H 0.77715 0.09823 0.85487 0.0
H2276 H 0.75703 0.12131 0.8557 0.0
H2277 H 0.83749 0.23451 0.82897 0.0
H2278 H 0.85506 0.21557 0.80158 0.0
H2279 H 0.82782 0.12756 0.83119 0.0
C2280 C 0.79625 0.17385 0.89396 0.0
C2281 C 0.79748 0.20176 0.90072 0.0
C2282 C 0.80558 0.22729 0.88816 0.0
C2283 C 0.81338 0.22561 0.86926 0.0
C2284 C 0.81293 0.1982 0.86312 0.0
C2285 C 0.80434 0.17264 0.87499 0.0
C2286 C 0.80784 0.14686 0.86501 0.0
C2287 C 0.8326 0.14044 0.87524 0.0
C2288 C 0.77473 0.11641 0.8631 0.0
C2289 C 0.82049 0.16232 0.8459 0.0
C2290 C 0.82294 0.1918 0.84511 0.0
C2291 C 0.83517 0.21122 0.82927 0.0
C2292 C 0.84499 0.20017 0.81374 0.0
C2293 C 0.84255 0.16991 0.81408 0.0
C2294 C 0.83011 0.15082 0.83046 0.0
H2295 H 0.29553 0.12657 0.46852 0.0
H2296 H 0.21167 0.13659 0.48119 0.0
H2297 H 0.2308 0.15103 0.51413 0.0
H2298 H 0.29702 0.09134 0.51346 0.0
H2299 H 0.34073 0.11147 0.51449 0.0
H2300 H 0.32039 0.10198 0.4919 0.0
H2301 H 0.35362 0.16111 0.48217 0.0
H2302 H 0.37391 0.17082 0.50477 0.0
H2303 H 0.3527 0.19086 0.49697 0.0
H2304 H 0.25951 0.16526 0.54554 0.0
H2305 H 0.29512 0.17717 0.57339 0.0
H2306 H 0.35899 0.15555 0.54063 0.0
C2307 C 0.28094 0.1314 0.47826 0.0
C2308 C 0.25212 0.13055 0.4722 0.0
C2309 C 0.23407 0.13755 0.48538 0.0
C2310 C 0.24464 0.1456 0.50416 0.0
C2311 C 0.27323 0.14641 0.5096 0.0
C2312 C 0.29105 0.13935 0.49707 0.0
C2313 C 0.32094 0.14199 0.50653 0.0
C2314 C 0.31968 0.10978 0.5066 0.0
C2315 C 0.35213 0.16773 0.49704 0.0
C2316 C 0.3172 0.15176 0.52631 0.0
C2317 C 0.28954 0.15419 0.52778 0.0
C2318 C 0.28111 0.16318 0.5446 0.0
C2319 C 0.30141 0.16972 0.56039 0.0
C2320 C 0.32981 0.16713 0.5593 0.0
C2321 C 0.33768 0.15806 0.54194 0.0
H2322 H 0.83279 0.1251 0.46661 0.0
H2323 H 0.93519 0.15694 0.47403 0.0
H2324 H 0.93132 0.1679 0.50774 0.0
H2325 H 0.83078 0.18282 0.49583 0.0
H2326 H 0.79131 0.15687 0.5058 0.0
H2327 H 0.8012 0.14897 0.48257 0.0
H2328 H 0.78705 0.09253 0.49311 0.0
H2329 H 0.77686 0.10016 0.51635 0.0
H2330 H 0.80659 0.08772 0.51372 0.0
H2331 H 0.91757 0.17914 0.53996 0.0
H2332 H 0.89462 0.18889 0.56873 0.0
H2333 H 0.80044 0.1482 0.54114 0.0
C2334 C 0.8542 0.13374 0.47544 0.0
C2335 C 0.88433 0.14021 0.46764 0.0
C2336 C 0.91193 0.15208 0.47962 0.0
C2337 C 0.90995 0.15825 0.49882 0.0
C2338 C 0.88013 0.15232 0.50596 0.0
C2339 C 0.85267 0.14012 0.49471 0.0
C2340 C 0.82395 0.1372 0.50581 0.0
C2341 C 0.81107 0.15769 0.49697 0.0
C2342 C 0.79702 0.10233 0.50734 0.0
C2343 C 0.83976 0.15021 0.52491 0.0
C2344 C 0.87212 0.1586 0.52469 0.0
C2345 C 0.89211 0.17223 0.5404 0.0
C2346 C 0.87874 0.1775 0.55677 0.0
C2347 C 0.84556 0.16915 0.55743 0.0
C2348 C 0.82591 0.15511 0.54119 0.0
H2349 H 0.92457 0.77422 0.47599 0.0
H2350 H 0.82435 0.71764 0.45763 0.0
H2351 H 0.80941 0.6928 0.48922 0.0
H2352 H 0.92647 0.7131 0.50381 0.0
H2353 H 0.95221 0.74014 0.5219 0.0
H2354 H 0.9547 0.75384 0.49795 0.0
H2355 H 0.94383 0.79808 0.50987 0.0
H2356 H 0.94105 0.78435 0.53384 0.0
H2357 H 0.90799 0.78758 0.52369 0.0
H2358 H 0.80542 0.67375 0.52312 0.0
H2359 H 0.81346 0.6602 0.55568 0.0
H2360 H 0.91621 0.72908 0.55172 0.0
C2361 C 0.89953 0.75636 0.47849 0.0
C2362 C 0.87565 0.74805 0.46422 0.0
C2363 C 0.84307 0.72484 0.46833 0.0
C2364 C 0.83433 0.71048 0.48625 0.0
C2365 C 0.85841 0.71947 0.50001 0.0
C2366 C 0.89038 0.74176 0.4963 0.0
C2367 C 0.9117 0.74692 0.51344 0.0
C2368 C 0.93781 0.73796 0.50901 0.0
C2369 C 0.92704 0.78127 0.52063 0.0
C2370 C 0.8868 0.72388 0.52732 0.0
C2371 C 0.85615 0.70841 0.51938 0.0
C2372 C 0.82933 0.6858 0.52948 0.0
C2373 C 0.83408 0.67842 0.54805 0.0
C2374 C 0.86545 0.69346 0.55633 0.0
C2375 C 0.89195 0.71684 0.54579 0.0
loop_
_geom_bond_atom_site_label_1
_geom_bond_atom_site_label_2
_geom_bond_distance
_geom_bond_site_symmetry_2
_ccdc_geom_bond_type
H0 C3 0.931 . S
H1 C6 0.928 . S
H2 C8 0.930 . S
C3 H0 0.931 . S
C3 C4 1.413 . S
C3 C5 1.360 . S
C4 C3 1.413 . S
C4 C8 1.429 . S
C5 C3 1.360 . S
C5 C6 1.372 . S
C6 H1 0.928 . S
C6 C5 1.372 . S
C6 C7 1.404 . S
C7 C6 1.404 . S
C7 C8 1.391 . S
C8 H2 0.930 . S
C8 C4 1.429 . S
C8 C7 1.391 . S
H9 C12 0.931 . S
H10 C15 0.928 . S
H11 C17 0.930 . S
C12 H9 0.931 . S
C12 C13 1.413 . S
C12 C14 1.360 . S
C13 C12 1.413 . S
C13 C17 1.429 . S
C14 C12 1.360 . S
C14 C15 1.372 . S
C15 H10 0.928 . S
C15 C14 1.372 . S
C15 C16 1.404 . S
C16 C15 1.404 . S
C16 C17 1.391 . S
C17 H11 0.930 . S
C17 C13 1.429 . S
C17 C16 1.391 . S
H18 C21 0.931 . S
H19 C24 0.928 . S
H20 C26 0.930 . S
C21 H18 0.931 . S
C21 C22 1.413 . S
C21 C23 1.360 . S
C22 C21 1.413 . S
C22 C26 1.429 . S
C23 C21 1.360 . S
C23 C24 1.372 . S
C24 H19 0.928 . S
C24 C23 1.372 . S
C24 C25 1.404 . S
C25 C24 1.404 . S
C25 C26 1.391 . S
C26 H20 0.930 . S
C26 C22 1.429 . S
C26 C25 1.391 . S
H27 C30 0.931 . S
H28 C33 0.928 . S
H29 C35 0.930 . S
C30 H27 0.931 . S
C30 C31 1.413 . S
C30 C32 1.360 . S
C31 C30 1.413 . S
C31 C35 1.429 . S
C32 C30 1.360 . S
C32 C33 1.372 . S
C33 H28 0.928 . S
C33 C32 1.372 . S
C33 C34 1.404 . S
C34 C33 1.404 . S
C34 C35 1.391 . S
C35 H29 0.930 . S
C35 C31 1.429 . S
C35 C34 1.391 . S
H36 C39 0.931 . S
H37 C42 0.928 . S
H38 C44 0.930 . S
C39 H36 0.931 . S
C39 C40 1.413 . S
C39 C41 1.360 . S
C40 C39 1.413 . S
C40 C44 1.429 . S
C41 C39 1.360 . S
C41 C42 1.372 . S
C42 H37 0.928 . S
C42 C41 1.372 . S
C42 C43 1.404 . S
C43 C42 1.404 . S
C43 C44 1.391 . S
C44 H38 0.930 . S
C44 C40 1.429 . S
C44 C43 1.391 . S
H45 C48 0.931 . S
H46 C51 0.928 . S
H47 C53 0.930 . S
C48 H45 0.931 . S
C48 C49 1.413 . S
C48 C50 1.360 . S
C49 C48 1.413 . S
C49 C53 1.429 . S
C50 C48 1.360 . S
C50 C51 1.372 . S
C51 H46 0.928 . S
C51 C50 1.372 . S
C51 C52 1.404 . S
C52 C51 1.404 . S
C52 C53 1.391 . S
C53 H47 0.930 . S
C53 C49 1.429 . S
C53 C52 1.391 . S
H54 C57 0.931 . S
H55 C60 0.928 . S
H56 C62 0.930 . S
C57 H54 0.931 . S
C57 C58 1.413 . S
C57 C59 1.360 . S
C58 C57 1.413 . S
C58 C62 1.429 . S
C59 C57 1.360 . S
C59 C60 1.372 . S
C60 H55 0.928 . S
C60 C59 1.372 . S
C60 C61 1.404 . S
C61 C60 1.404 . S
C61 C62 1.391 . S
C62 H56 0.930 . S
C62 C58 1.429 . S
C62 C61 1.391 . S
H63 C66 0.931 . S
H64 C69 0.928 . S
H65 C71 0.930 . S
C66 H63 0.931 . S
C66 C67 1.413 . S
C66 C68 1.360 . S
C67 C66 1.413 . S
C67 C71 1.429 . S
C68 C66 1.360 . S
C68 C69 1.372 . S
C69 H64 0.928 . S
C69 C68 1.372 . S
C69 C70 1.404 . S
C70 C69 1.404 . S
C70 C71 1.391 . S
C71 H65 0.930 . S
C71 C67 1.429 . S
C71 C70 1.391 . S
H72 C75 0.931 . S
H73 C78 0.928 . S
H74 C80 0.930 . S
C75 H72 0.931 . S
C75 C76 1.413 . S
C75 C77 1.360 . S
C76 C75 1.413 . S
C76 C80 1.429 . S
C77 C75 1.360 . S
C77 C78 1.372 . S
C78 H73 0.928 . S
C78 C77 1.372 . S
C78 C79 1.404 . S
C79 C78 1.404 . S
C79 C80 1.391 . S
C80 H74 0.930 . S
C80 C76 1.429 . S
C80 C79 1.391 . S
H81 C84 0.931 . S
H82 C87 0.928 . S
H83 C89 0.930 . S
C84 H81 0.931 . S
C84 C85 1.413 . S
C84 C86 1.360 . S
C85 C84 1.413 . S
C85 C89 1.429 . S
C86 C84 1.360 . S
C86 C87 1.372 . S
C87 H82 0.928 . S
C87 C86 1.372 . S
C87 C88 1.404 . S
C88 C87 1.404 . S
C88 C89 1.391 . S
C89 H83 0.930 . S
C89 C85 1.429 . S
C89 C88 1.391 . S
H90 C93 0.931 . S
H91 C96 0.928 . S
H92 C98 0.930 . S
C93 H90 0.931 . S
C93 C94 1.413 . S
C93 C95 1.360 . S
C94 C93 1.413 . S
C94 C98 1.429 . S
C95 C93 1.360 . S
C95 C96 1.372 . S
C96 H91 0.928 . S
C96 C95 1.372 . S
C96 C97 1.404 . S
C97 C96 1.404 . S
C97 C98 1.391 . S
C98 H92 0.930 . S
C98 C94 1.429 . S
C98 C97 1.391 . S
H99 C102 0.931 . S
H100 C105 0.928 . S
H101 C107 0.930 . S
C102 H99 0.931 . S
C102 C103 1.413 . S
C102 C104 1.360 . S
C103 C102 1.413 . S
C103 C107 1.429 . S
C104 C102 1.360 . S
C104 C105 1.372 . S
C105 H100 0.928 . S
C105 C104 1.372 . S
C105 C106 1.404 . S
C106 C105 1.404 . S
C106 C107 1.391 . S
C107 H101 0.930 . S
C107 C103 1.429 . S
C107 C106 1.391 . S
H108 C111 0.931 . S
H109 C114 0.928 . S
H110 C116 0.930 . S
C111 H108 0.931 . S
C111 C112 1.413 . S
C111 C113 1.360 . S
C112 C111 1.413 . S
C112 C116 1.429 . S
C113 C111 1.360 . S
C113 C114 1.372 . S
C114 H109 0.928 . S
C114 C113 1.372 . S
C114 C115 1.404 . S
C115 C114 1.404 . S
C115 C116 1.391 . S
C116 H110 0.930 . S
C116 C112 1.429 . S
C116 C115 1.391 . S
H117 C120 0.931 . S
H118 C123 0.928 . S
H119 C125 0.930 . S
C120 H117 0.931 . S
C120 C121 1.413 . S
C120 C122 1.360 . S
C121 C120 1.413 . S
C121 C125 1.429 . S
C122 C120 1.360 . S
C122 C123 1.372 . S
C123 H118 0.928 . S
C123 C122 1.372 . S
C123 C124 1.404 . S
C124 C123 1.404 . S
C124 C125 1.391 . S
C125 H119 0.930 . S
C125 C121 1.429 . S
C125 C124 1.391 . S
H126 C129 0.931 . S
H127 C132 0.928 . S
H128 C134 0.930 . S
C129 H126 0.931 . S
C129 C130 1.413 . S
C129 C131 1.360 . S
C130 C129 1.413 . S
C130 C134 1.429 . S
C131 C129 1.360 . S
C131 C132 1.372 . S
C132 H127 0.928 . S
C132 C131 1.372 . S
C132 C133 1.404 . S
C133 C132 1.404 . S
C133 C134 1.391 . S
C134 H128 0.930 . S
C134 C130 1.429 . S
C134 C133 1.391 . S
H135 C138 0.931 . S
H136 C141 0.928 . S
H137 C143 0.930 . S
C138 H135 0.931 . S
C138 C139 1.413 . S
C138 C140 1.360 . S
C139 C138 1.413 . S
C139 C143 1.429 . S
C140 C138 1.360 . S
C140 C141 1.372 . S
C141 H136 0.928 . S
C141 C140 1.372 . S
C141 C142 1.404 . S
C142 C141 1.404 . S
C142 C143 1.391 . S
C143 H137 0.930 . S
C143 C139 1.429 . S
C143 C142 1.391 . S
H144 C147 0.931 . S
H145 C150 0.928 . S
H146 C152 0.930 . S
C147 H144 0.931 . S
C147 C148 1.413 . S
C147 C149 1.360 . S
C148 C147 1.413 . S
C148 C152 1.429 . S
C149 C147 1.360 . S
C149 C150 1.372 . S
C150 H145 0.928 . S
C150 C149 1.372 . S
C150 C151 1.404 . S
C151 C150 1.404 . S
C151 C152 1.391 . S
C152 H146 0.930 . S
C152 C148 1.429 . S
C152 C151 1.391 . S
H153 C156 0.931 . S
H154 C159 0.928 . S
H155 C161 0.930 . S
C156 H153 0.931 . S
C156 C157 1.413 . S
C156 C158 1.360 . S
C157 C156 1.413 . S
C157 C161 1.429 . S
C158 C156 1.360 . S
C158 C159 1.372 . S
C159 H154 0.928 . S
C159 C158 1.372 . S
C159 C160 1.404 . S
C160 C159 1.404 . S
C160 C161 1.391 . S
C161 H155 0.930 . S
C161 C157 1.429 . S
C161 C160 1.391 . S
Gd162 N193 2.661 . S
Gd162 N199 2.601 . S
Gd162 O206 2.545 . S
Gd162 O207 2.606 1_545 S
Gd162 O209 2.429 . S
Gd162 O210 2.545 1_545 S
Gd162 O211 2.412 . S
Gd162 O213 2.364 1_554 S
Gd162 O214 2.324 1_545 S
Gd162 C221 2.828 . S
Gd163 N172 2.661 . S
Gd163 N176 2.601 . S
Gd163 O207 2.362 1_556 S
Gd163 O208 2.324 1_565 S
Gd163 O212 2.545 . S
Gd163 O213 2.605 1_565 S
Gd163 O215 2.429 . S
Gd163 O216 2.545 1_565 S
Gd163 O217 2.412 . S
Gd163 C230 2.828 . S
C164 C167 1.417 . S
C164 C169 1.431 . S
C164 C170 1.412 . S
C165 C168 1.437 . S
C165 C169 1.317 . S
C165 H184 0.929 . S
C166 C167 1.426 . S
C166 C168 1.413 . S
C166 N176 1.359 . S
C167 C164 1.417 . S
C167 C166 1.426 . S
C167 N172 1.350 . S
C168 C165 1.437 . S
C168 C166 1.413 . S
C168 C178 1.391 . S
C169 C164 1.431 . S
C169 C165 1.317 . S
C169 H180 0.930 . S
C170 C164 1.412 . S
C170 C171 1.355 . S
C170 H182 0.930 . S
C171 C170 1.355 . S
C171 C173 1.402 . S
C171 H183 0.930 . S
N172 Gd163 2.661 . S
N172 C167 1.350 . S
N172 C173 1.307 . S
C173 C171 1.402 . S
C173 N172 1.307 . S
C173 H174 0.930 . S
H174 C173 0.930 . S
C175 N176 1.334 . S
C175 C177 1.394 . S
C175 H179 0.930 . S
N176 Gd163 2.601 . S
N176 C166 1.359 . S
N176 C175 1.334 . S
C177 C175 1.394 . S
C177 C178 1.359 . S
C177 H189 0.930 . S
C178 C168 1.391 . S
C178 C177 1.359 . S
C178 H190 0.929 . S
H179 C175 0.930 . S
H180 C169 0.930 . S
H181 C198 0.930 . S
H182 C170 0.930 . S
H183 C171 0.930 . S
H184 C165 0.929 . S
H185 C203 0.930 . S
H186 C194 0.930 . S
H187 C195 0.930 . S
H188 C219 0.929 . S
H189 C177 0.930 . S
H190 C178 0.929 . S
H191 C220 0.930 . S
H192 C201 0.930 . S
N193 Gd162 2.661 . S
N193 C197 1.350 . S
N193 C198 1.307 . S
C194 H186 0.930 . S
C194 C195 1.355 . S
C194 C196 1.412 . S
C195 H187 0.930 . S
C195 C194 1.355 . S
C195 C198 1.402 . S
C196 C194 1.412 . S
C196 C197 1.417 . S
C196 C220 1.431 . S
C197 N193 1.350 . S
C197 C196 1.417 . S
C197 C200 1.426 . S
C198 H181 0.930 . S
C198 N193 1.307 . S
C198 C195 1.402 . S
N199 Gd162 2.601 . S
N199 C200 1.359 . S
N199 C203 1.334 . S
C200 C197 1.426 . S
C200 N199 1.359 . S
C200 C204 1.413 . S
C201 H192 0.930 . S
C201 C202 1.359 . S
C201 C203 1.394 . S
C202 C201 1.359 . S
C202 C204 1.391 . S
C202 H205 0.929 . S
C203 H185 0.930 . S
C203 N199 1.334 . S
C203 C201 1.394 . S
C204 C200 1.413 . S
C204 C202 1.391 . S
C204 C219 1.437 . S
H205 C202 0.929 . S
O206 Gd162 2.545 . S
O206 C221 1.258 . S
O207 Gd162 2.606 1_565 S
O207 Gd163 2.362 1_554 S
O207 C218 1.284 . S
O208 Gd163 2.324 1_545 S
O208 C228 1.254 . S
O209 Gd162 2.429 . S
O209 C228 1.268 1_554 S
O210 Gd162 2.545 1_565 S
O210 C218 1.250 . S
O211 Gd162 2.412 . S
O211 C221 1.252 . S
O212 Gd163 2.545 . S
O212 C230 1.258 . S
O213 Gd162 2.364 1_556 S
O213 Gd163 2.605 1_545 S
O213 C229 1.283 . S
O214 Gd162 2.324 1_565 S
O214 C237 1.254 . S
O215 Gd163 2.429 . S
O215 C237 1.268 1_556 S
O216 Gd163 2.545 1_545 S
O216 C229 1.250 . S
O217 Gd163 2.412 . S
O217 C230 1.252 . S
C218 O207 1.284 . S
C218 O210 1.250 . S
C219 H188 0.929 . S
C219 C204 1.437 . S
C219 C220 1.317 . S
C220 H191 0.930 . S
C220 C196 1.431 . S
C220 C219 1.317 . S
C221 Gd162 2.828 . S
C221 O206 1.258 . S
C221 O211 1.252 . S
C221 C222 1.497 . S
C222 C221 1.497 . S
C222 C223 1.395 . S
C222 C224 1.380 1_545 S
C223 C222 1.395 . S
C223 C226 1.398 . S
C223 H238 0.930 . S
C224 C222 1.380 1_565 S
C224 C225 1.391 . S
C224 H239 0.930 . S
C225 C224 1.391 . S
C225 C227 1.387 1_565 S
C226 C223 1.398 . S
C226 C227 1.380 . S
C226 H240 0.930 . S
C227 C225 1.387 1_545 S
C227 C226 1.380 . S
C227 H241 0.930 . S
C228 O208 1.254 . S
C228 O209 1.268 1_556 S
C229 O213 1.283 . S
C229 O216 1.250 . S
C230 Gd163 2.828 . S
C230 O212 1.258 . S
C230 O217 1.252 . S
C230 C231 1.497 . S
C231 C230 1.497 . S
C231 C232 1.395 . S
C231 C233 1.380 1_565 S
C232 C231 1.395 . S
C232 C235 1.398 . S
C232 H242 0.930 . S
C233 C231 1.380 1_545 S
C233 C234 1.391 . S
C233 H243 0.930 . S
C234 C233 1.391 . S
C234 C236 1.387 1_545 S
C235 C232 1.398 . S
C235 C236 1.380 . S
C235 H244 0.930 . S
C236 C234 1.387 1_565 S
C236 C235 1.380 . S
C236 H245 0.930 . S
C237 O214 1.254 . S
C237 O215 1.268 1_554 S
H238 C223 0.930 . S
H239 C224 0.930 . S
H240 C226 0.930 . S
H241 C227 0.930 . S
H242 C232 0.930 . S
H243 C233 0.930 . S
H244 C235 0.930 . S
H245 C236 0.930 . S
Gd246 N277 2.661 . S
Gd246 N283 2.601 . S
Gd246 O290 2.545 . S
Gd246 O291 2.606 1_655 S
Gd246 O293 2.429 . S
Gd246 O294 2.545 1_655 S
Gd246 O295 2.412 . S
Gd246 O297 2.351 1_554 S
Gd246 O298 2.324 1_655 S
Gd246 C305 2.828 . S
Gd247 N256 2.661 . S
Gd247 N260 2.601 . S
Gd247 O291 2.362 1_556 S
Gd247 O292 2.324 1_455 S
Gd247 O296 2.545 . S
Gd247 O297 2.612 1_455 S
Gd247 O299 2.432 1_556 S
Gd247 O300 2.545 1_455 S
Gd247 O301 2.412 . S
Gd247 C314 2.828 . S
C248 C251 1.417 . S
C248 C253 1.431 . S
C248 C254 1.412 . S
C249 C252 1.437 . S
C249 C253 1.317 . S
C249 H268 0.929 . S
C250 C251 1.426 . S
C250 C252 1.413 . S
C250 N260 1.359 . S
C251 C248 1.417 . S
C251 C250 1.426 . S
C251 N256 1.350 . S
C252 C249 1.437 . S
C252 C250 1.413 . S
C252 C262 1.391 . S
C253 C248 1.431 . S
C253 C249 1.317 . S
C253 H264 0.930 . S
C254 C248 1.412 . S
C254 C255 1.355 . S
C254 H266 0.930 . S
C255 C254 1.355 . S
C255 C257 1.402 . S
C255 H267 0.930 . S
N256 Gd247 2.661 . S
N256 C251 1.350 . S
N256 C257 1.307 . S
C257 C255 1.402 . S
C257 N256 1.307 . S
C257 H258 0.930 . S
H258 C257 0.930 . S
C259 N260 1.334 . S
C259 C261 1.394 . S
C259 H263 0.930 . S
N260 Gd247 2.601 . S
N260 C250 1.359 . S
N260 C259 1.334 . S
C261 C259 1.394 . S
C261 C262 1.359 . S
C261 H273 0.930 . S
C262 C252 1.391 . S
C262 C261 1.359 . S
C262 H274 0.929 . S
H263 C259 0.930 . S
H264 C253 0.930 . S
H265 C282 0.930 . S
H266 C254 0.930 . S
H267 C255 0.930 . S
H268 C249 0.929 . S
H269 C287 0.930 . S
H270 C278 0.930 . S
H271 C279 0.930 . S
H272 C303 0.929 . S
H273 C261 0.930 . S
H274 C262 0.929 . S
H275 C304 0.930 . S
H276 C285 0.930 . S
N277 Gd246 2.661 . S
N277 C281 1.350 . S
N277 C282 1.307 . S
C278 H270 0.930 . S
C278 C279 1.355 . S
C278 C280 1.412 . S
C279 H271 0.930 . S
C279 C278 1.355 . S
C279 C282 1.402 . S
C280 C278 1.412 . S
C280 C281 1.417 . S
C280 C304 1.431 . S
C281 N277 1.350 . S
C281 C280 1.417 . S
C281 C284 1.426 . S
C282 H265 0.930 . S
C282 N277 1.307 . S
C282 C279 1.402 . S
N283 Gd246 2.601 . S
N283 C284 1.359 . S
N283 C287 1.334 . S
C284 C281 1.426 . S
C284 N283 1.359 . S
C284 C288 1.413 . S
C285 H276 0.930 . S
C285 C286 1.359 . S
C285 C287 1.394 . S
C286 C285 1.359 . S
C286 C288 1.391 . S
C286 H289 0.929 . S
C287 H269 0.930 . S
C287 N283 1.334 . S
C287 C285 1.394 . S
C288 C284 1.413 . S
C288 C286 1.391 . S
C288 C303 1.437 . S
H289 C286 0.929 . S
O290 Gd246 2.545 . S
O290 C305 1.258 . S
O291 Gd246 2.606 1_455 S
O291 Gd247 2.362 1_554 S
O291 C302 1.284 . S
O292 Gd247 2.324 1_655 S
O292 C312 1.254 . S
O293 Gd246 2.429 . S
O293 C312 1.268 1_554 S
O294 Gd246 2.545 1_455 S
O294 C302 1.250 . S
O295 Gd246 2.412 . S
O295 C305 1.252 . S
O296 Gd247 2.545 . S
O296 C314 1.258 . S
O297 Gd246 2.351 1_556 S
O297 Gd247 2.612 1_655 S
O297 C313 1.293 . S
O298 Gd246 2.324 1_455 S
O298 C321 1.254 . S
O299 Gd247 2.432 1_554 S
O299 C321 1.263 . S
O300 Gd247 2.545 1_655 S
O300 C313 1.250 . S
O301 Gd247 2.412 . S
O301 C314 1.252 . S
C302 O291 1.284 . S
C302 O294 1.250 . S
C303 H272 0.929 . S
C303 C288 1.437 . S
C303 C304 1.317 . S
C304 H275 0.930 . S
C304 C280 1.431 . S
C304 C303 1.317 . S
C305 Gd246 2.828 . S
C305 O290 1.258 . S
C305 O295 1.252 . S
C305 C306 1.497 . S
C306 C305 1.497 . S
C306 C307 1.395 . S
C306 C308 1.380 1_655 S
C307 C306 1.395 . S
C307 C310 1.398 . S
C307 H322 0.930 . S
C308 C306 1.380 1_455 S
C308 C309 1.391 . S
C308 H323 0.930 . S
C309 C308 1.391 . S
C309 C311 1.387 1_455 S
C310 C307 1.398 . S
C310 C311 1.380 . S
C310 H324 0.930 . S
C311 C309 1.387 1_655 S
C311 C310 1.380 . S
C311 H325 0.930 . S
C312 O292 1.254 . S
C312 O293 1.268 1_556 S
C313 O297 1.293 . S
C313 O300 1.250 . S
C314 Gd247 2.828 . S
C314 O296 1.258 . S
C314 O301 1.252 . S
C314 C315 1.497 . S
C315 C314 1.497 . S
C315 C316 1.395 . S
C315 C317 1.380 1_455 S
C316 C315 1.395 . S
C316 C319 1.398 . S
C316 H326 0.930 . S
C317 C315 1.380 1_655 S
C317 C318 1.391 . S
C317 H327 0.930 . S
C318 C317 1.391 . S
C318 C320 1.387 1_655 S
C319 C316 1.398 . S
C319 C320 1.380 . S
C319 H328 0.930 . S
C320 C318 1.387 1_455 S
C320 C319 1.380 . S
C320 H329 0.930 . S
C321 O298 1.254 . S
C321 O299 1.263 . S
H322 C307 0.930 . S
H323 C308 0.930 . S
H324 C310 0.930 . S
H325 C311 0.930 . S
H326 C316 0.930 . S
H327 C317 0.930 . S
H328 C319 0.930 . S
H329 C320 0.930 . S
Gd330 N361 2.661 . S
Gd330 N367 2.601 . S
Gd330 O374 2.545 . S
Gd330 O375 2.631 . S
Gd330 O377 2.429 . S
Gd330 O378 2.545 . S
Gd330 O379 2.412 . S
Gd330 O381 2.362 1_556 S
Gd330 O382 2.324 . S
Gd330 C389 2.828 . S
Gd331 N340 2.661 . S
Gd331 N344 2.601 . S
Gd331 O375 2.319 1_554 S
Gd331 O376 2.324 . S
Gd331 O380 2.545 . S
Gd331 O381 2.606 . S
Gd331 O383 2.429 . S
Gd331 O384 2.545 . S
Gd331 O385 2.412 . S
Gd331 C398 2.828 . S
C332 C335 1.417 . S
C332 C337 1.431 . S
C332 C338 1.412 . S
C333 C336 1.437 . S
C333 C337 1.317 . S
C333 H352 0.929 . S
C334 C335 1.426 . S
C334 C336 1.413 . S
C334 N344 1.359 . S
C335 C332 1.417 . S
C335 C334 1.426 . S
C335 N340 1.350 . S
C336 C333 1.437 . S
C336 C334 1.413 . S
C336 C346 1.391 . S
C337 C332 1.431 . S
C337 C333 1.317 . S
C337 H348 0.930 . S
C338 C332 1.412 . S
C338 C339 1.355 . S
C338 H350 0.930 . S
C339 C338 1.355 . S
C339 C341 1.402 . S
C339 H351 0.930 . S
N340 Gd331 2.661 . S
N340 C335 1.350 . S
N340 C341 1.307 . S
C341 C339 1.402 . S
C341 N340 1.307 . S
C341 H342 0.930 . S
H342 C341 0.930 . S
C343 N344 1.334 . S
C343 C345 1.394 . S
C343 H347 0.930 . S
N344 Gd331 2.601 . S
N344 C334 1.359 . S
N344 C343 1.334 . S
C345 C343 1.394 . S
C345 C346 1.359 . S
C345 H357 0.930 . S
C346 C336 1.391 . S
C346 C345 1.359 . S
C346 H358 0.929 . S
H347 C343 0.930 . S
H348 C337 0.930 . S
H349 C366 0.930 . S
H350 C338 0.930 . S
H351 C339 0.930 . S
H352 C333 0.929 . S
H353 C371 0.930 . S
H354 C362 0.930 . S
H355 C363 0.930 . S
H356 C387 0.929 . S
H357 C345 0.930 . S
H358 C346 0.929 . S
H359 C388 0.930 . S
H360 C369 0.930 . S
N361 Gd330 2.661 . S
N361 C365 1.350 . S
N361 C366 1.307 . S
C362 H354 0.930 . S
C362 C363 1.355 . S
C362 C364 1.412 . S
C363 H355 0.930 . S
C363 C362 1.355 . S
C363 C366 1.402 . S
C364 C362 1.412 . S
C364 C365 1.417 . S
C364 C388 1.431 . S
C365 N361 1.350 . S
C365 C364 1.417 . S
C365 C368 1.426 . S
C366 H349 0.930 . S
C366 N361 1.307 . S
C366 C363 1.402 . S
N367 Gd330 2.601 . S
N367 C368 1.359 . S
N367 C371 1.334 . S
C368 C365 1.426 . S
C368 N367 1.359 . S
C368 C372 1.413 . S
C369 H360 0.930 . S
C369 C370 1.359 . S
C369 C371 1.394 . S
C370 C369 1.359 . S
C370 C372 1.391 . S
C370 H373 0.929 . S
C371 H353 0.930 . S
C371 N367 1.334 . S
C371 C369 1.394 . S
C372 C368 1.413 . S
C372 C370 1.391 . S
C372 C387 1.437 . S
H373 C370 0.929 . S
O374 Gd330 2.545 . S
O374 C389 1.258 . S
O375 Gd330 2.631 . S
O375 Gd331 2.319 1_556 S
O375 C386 1.320 . S
O376 Gd331 2.324 . S
O376 C396 1.254 . S
O377 Gd330 2.429 . S
O377 C396 1.268 1_556 S
O378 Gd330 2.545 . S
O378 C386 1.250 . S
O379 Gd330 2.412 . S
O379 C389 1.252 . S
O380 Gd331 2.545 . S
O380 C398 1.258 . S
O381 Gd330 2.362 1_554 S
O381 Gd331 2.606 . S
O381 C397 1.284 . S
O382 Gd330 2.324 . S
O382 C405 1.254 . S
O383 Gd331 2.429 . S
O383 C405 1.268 1_554 S
O384 Gd331 2.545 . S
O384 C397 1.250 . S
O385 Gd331 2.412 . S
O385 C398 1.252 . S
C386 O375 1.320 . S
C386 O378 1.250 . S
C387 H356 0.929 . S
C387 C372 1.437 . S
C387 C388 1.317 . S
C388 H359 0.930 . S
C388 C364 1.431 . S
C388 C387 1.317 . S
C389 Gd330 2.828 . S
C389 O374 1.258 . S
C389 O379 1.252 . S
C389 C390 1.497 . S
C390 C389 1.497 . S
C390 C391 1.395 . S
C390 C392 1.380 . S
C391 C390 1.395 . S
C391 C394 1.398 . S
C391 H406 0.930 . S
C392 C390 1.380 . S
C392 C393 1.391 . S
C392 H407 0.930 . S
C393 C392 1.391 . S
C393 C395 1.387 . S
C394 C391 1.398 . S
C394 C395 1.380 . S
C394 H408 0.930 . S
C395 C393 1.387 . S
C395 C394 1.380 . S
C395 H409 0.930 . S
C396 O376 1.254 . S
C396 O377 1.268 1_554 S
C397 O381 1.284 . S
C397 O384 1.250 . S
C398 Gd331 2.828 . S
C398 O380 1.258 . S
C398 O385 1.252 . S
C398 C399 1.497 . S
C399 C398 1.497 . S
C399 C400 1.395 . S
C399 C401 1.380 . S
C400 C399 1.395 . S
C400 C403 1.398 . S
C400 H410 0.930 . S
C401 C399 1.380 . S
C401 C402 1.391 . S
C401 H411 0.930 . S
C402 C401 1.391 . S
C402 C404 1.387 . S
C403 C400 1.398 . S
C403 C404 1.380 . S
C403 H412 0.930 . S
C404 C402 1.387 . S
C404 C403 1.380 . S
C404 H413 0.930 . S
C405 O382 1.254 . S
C405 O383 1.268 1_556 S
H406 C391 0.930 . S
H407 C392 0.930 . S
H408 C394 0.930 . S
H409 C395 0.930 . S
H410 C400 0.930 . S
H411 C401 0.930 . S
H412 C403 0.930 . S
H413 C404 0.930 . S
Gd414 N445 2.661 . S
Gd414 N451 2.601 . S
Gd414 O458 2.545 . S
Gd414 O459 2.606 . S
Gd414 O461 2.429 . S
Gd414 O462 2.545 . S
Gd414 O463 2.412 . S
Gd414 O465 2.362 . S
Gd414 O466 2.324 . S
Gd414 C473 2.828 . S
Gd415 N424 2.661 . S
Gd415 N428 2.601 . S
Gd415 O459 2.362 . S
Gd415 O460 2.324 . S
Gd415 O464 2.545 . S
Gd415 O465 2.606 . S
Gd415 O467 2.429 . S
Gd415 O468 2.545 . S
Gd415 O469 2.412 . S
Gd415 C482 2.828 . S
C416 C419 1.417 . S
C416 C421 1.431 . S
C416 C422 1.412 . S
C417 C420 1.437 . S
C417 C421 1.317 . S
C417 H436 0.929 . S
C418 C419 1.426 . S
C418 C420 1.413 . S
C418 N428 1.359 . S
C419 C416 1.417 . S
C419 C418 1.426 . S
C419 N424 1.350 . S
C420 C417 1.437 . S
C420 C418 1.413 . S
C420 C430 1.391 . S
C421 C416 1.431 . S
C421 C417 1.317 . S
C421 H432 0.930 . S
C422 C416 1.412 . S
C422 C423 1.355 . S
C422 H434 0.930 . S
C423 C422 1.355 . S
C423 C425 1.402 . S
C423 H435 0.930 . S
N424 Gd415 2.661 . S
N424 C419 1.350 . S
N424 C425 1.307 . S
C425 C423 1.402 . S
C425 N424 1.307 . S
C425 H426 0.930 . S
H426 C425 0.930 . S
C427 N428 1.334 . S
C427 C429 1.394 . S
C427 H431 0.930 . S
N428 Gd415 2.601 . S
N428 C418 1.359 . S
N428 C427 1.334 . S
C429 C427 1.394 . S
C429 C430 1.359 . S
C429 H441 0.930 . S
C430 C420 1.391 . S
C430 C429 1.359 . S
C430 H442 0.929 . S
H431 C427 0.930 . S
H432 C421 0.930 . S
H433 C450 0.930 . S
H434 C422 0.930 . S
H435 C423 0.930 . S
H436 C417 0.929 . S
H437 C455 0.930 . S
H438 C446 0.930 . S
H439 C447 0.930 . S
H440 C471 0.929 . S
H441 C429 0.930 . S
H442 C430 0.929 . S
H443 C472 0.930 . S
H444 C453 0.930 . S
N445 Gd414 2.661 . S
N445 C449 1.350 . S
N445 C450 1.307 . S
C446 H438 0.930 . S
C446 C447 1.355 . S
C446 C448 1.412 . S
C447 H439 0.930 . S
C447 C446 1.355 . S
C447 C450 1.402 . S
C448 C446 1.412 . S
C448 C449 1.417 . S
C448 C472 1.431 . S
C449 N445 1.350 . S
C449 C448 1.417 . S
C449 C452 1.426 . S
C450 H433 0.930 . S
C450 N445 1.307 . S
C450 C447 1.402 . S
N451 Gd414 2.601 . S
N451 C452 1.359 . S
N451 C455 1.334 . S
C452 C449 1.426 . S
C452 N451 1.359 . S
C452 C456 1.413 . S
C453 H444 0.930 . S
C453 C454 1.359 . S
C453 C455 1.394 . S
C454 C453 1.359 . S
C454 C456 1.391 . S
C454 H457 0.929 . S
C455 H437 0.930 . S
C455 N451 1.334 . S
C455 C453 1.394 . S
C456 C452 1.413 . S
C456 C454 1.391 . S
C456 C471 1.437 . S
H457 C454 0.929 . S
O458 Gd414 2.545 . S
O458 C473 1.258 . S
O459 Gd414 2.606 . S
O459 Gd415 2.362 . S
O459 C470 1.284 . S
O460 Gd415 2.324 . S
O460 C480 1.254 . S
O461 Gd414 2.429 . S
O461 C480 1.268 . S
O462 Gd414 2.545 . S
O462 C470 1.250 . S
O463 Gd414 2.412 . S
O463 C473 1.252 . S
O464 Gd415 2.545 . S
O464 C482 1.258 . S
O465 Gd414 2.362 . S
O465 Gd415 2.606 . S
O465 C481 1.284 . S
O466 Gd414 2.324 . S
O466 C489 1.254 . S
O467 Gd415 2.429 . S
O467 C489 1.268 . S
O468 Gd415 2.545 . S
O468 C481 1.250 . S
O469 Gd415 2.412 . S
O469 C482 1.252 . S
C470 O459 1.284 . S
C470 O462 1.250 . S
C471 H440 0.929 . S
C471 C456 1.437 . S
C471 C472 1.317 . S
C472 H443 0.930 . S
C472 C448 1.431 . S
C472 C471 1.317 . S
C473 Gd414 2.828 . S
C473 O458 1.258 . S
C473 O463 1.252 . S
C473 C474 1.497 . S
C474 C473 1.497 . S
C474 C475 1.395 . S
C474 C476 1.380 . S
C475 C474 1.395 . S
C475 C478 1.398 . S
C475 H490 0.930 . S
C476 C474 1.380 . S
C476 C477 1.391 . S
C476 H491 0.930 . S
C477 C476 1.391 . S
C477 C479 1.387 . S
C478 C475 1.398 . S
C478 C479 1.380 . S
C478 H492 0.930 . S
C479 C477 1.387 . S
C479 C478 1.380 . S
C479 H493 0.930 . S
C480 O460 1.254 . S
C480 O461 1.268 . S
C481 O465 1.284 . S
C481 O468 1.250 . S
C482 Gd415 2.828 . S
C482 O464 1.258 . S
C482 O469 1.252 . S
C482 C483 1.497 . S
C483 C482 1.497 . S
C483 C484 1.395 . S
C483 C485 1.380 . S
C484 C483 1.395 . S
C484 C487 1.398 . S
C484 H494 0.930 . S
C485 C483 1.380 . S
C485 C486 1.391 . S
C485 H495 0.930 . S
C486 C485 1.391 . S
C486 C488 1.387 . S
C487 C484 1.398 . S
C487 C488 1.380 . S
C487 H496 0.930 . S
C488 C486 1.387 . S
C488 C487 1.380 . S
C488 H497 0.930 . S
C489 O466 1.254 . S
C489 O467 1.268 . S
H490 C475 0.930 . S
H491 C476 0.930 . S
H492 C478 0.930 . S
H493 C479 0.930 . S
H494 C484 0.930 . S
H495 C485 0.930 . S
H496 C487 0.930 . S
H497 C488 0.930 . S
Gd498 N529 2.661 . S
Gd498 N535 2.601 . S
Gd498 O542 2.545 . S
Gd498 O543 2.606 . S
Gd498 O545 2.429 . S
Gd498 O546 2.545 . S
Gd498 O547 2.412 . S
Gd498 O549 2.362 . S
Gd498 O550 2.324 . S
Gd498 C557 2.828 . S
Gd499 N508 2.661 . S
Gd499 N512 2.601 . S
Gd499 O543 2.362 . S
Gd499 O544 2.324 . S
Gd499 O548 2.545 . S
Gd499 O549 2.606 . S
Gd499 O551 2.429 . S
Gd499 O552 2.545 . S
Gd499 O553 2.412 . S
Gd499 C566 2.828 . S
C500 C503 1.417 . S
C500 C505 1.431 . S
C500 C506 1.412 . S
C501 C504 1.437 . S
C501 C505 1.317 . S
C501 H520 0.929 . S
C502 C503 1.426 . S
C502 C504 1.413 . S
C502 N512 1.359 . S
C503 C500 1.417 . S
C503 C502 1.426 . S
C503 N508 1.350 . S
C504 C501 1.437 . S
C504 C502 1.413 . S
C504 C514 1.391 . S
C505 C500 1.431 . S
C505 C501 1.317 . S
C505 H516 0.930 . S
C506 C500 1.412 . S
C506 C507 1.355 . S
C506 H518 0.930 . S
C507 C506 1.355 . S
C507 C509 1.402 . S
C507 H519 0.930 . S
N508 Gd499 2.661 . S
N508 C503 1.350 . S
N508 C509 1.307 . S
C509 C507 1.402 . S
C509 N508 1.307 . S
C509 H510 0.930 . S
H510 C509 0.930 . S
C511 N512 1.334 . S
C511 C513 1.394 . S
C511 H515 0.930 . S
N512 Gd499 2.601 . S
N512 C502 1.359 . S
N512 C511 1.334 . S
C513 C511 1.394 . S
C513 C514 1.359 . S
C513 H525 0.930 . S
C514 C504 1.391 . S
C514 C513 1.359 . S
C514 H526 0.929 . S
H515 C511 0.930 . S
H516 C505 0.930 . S
H517 C534 0.930 . S
H518 C506 0.930 . S
H519 C507 0.930 . S
H520 C501 0.929 . S
H521 C539 0.930 . S
H522 C530 0.930 . S
H523 C531 0.930 . S
H524 C555 0.929 . S
H525 C513 0.930 . S
H526 C514 0.929 . S
H527 C556 0.930 . S
H528 C537 0.930 . S
N529 Gd498 2.661 . S
N529 C533 1.350 . S
N529 C534 1.307 . S
C530 H522 0.930 . S
C530 C531 1.355 . S
C530 C532 1.412 . S
C531 H523 0.930 . S
C531 C530 1.355 . S
C531 C534 1.402 . S
C532 C530 1.412 . S
C532 C533 1.417 . S
C532 C556 1.431 . S
C533 N529 1.350 . S
C533 C532 1.417 . S
C533 C536 1.426 . S
C534 H517 0.930 . S
C534 N529 1.307 . S
C534 C531 1.402 . S
N535 Gd498 2.601 . S
N535 C536 1.359 . S
N535 C539 1.334 . S
C536 C533 1.426 . S
C536 N535 1.359 . S
C536 C540 1.413 . S
C537 H528 0.930 . S
C537 C538 1.359 . S
C537 C539 1.394 . S
C538 C537 1.359 . S
C538 C540 1.391 . S
C538 H541 0.929 . S
C539 H521 0.930 . S
C539 N535 1.334 . S
C539 C537 1.394 . S
C540 C536 1.413 . S
C540 C538 1.391 . S
C540 C555 1.437 . S
H541 C538 0.929 . S
O542 Gd498 2.545 . S
O542 C557 1.258 . S
O543 Gd498 2.606 . S
O543 Gd499 2.362 . S
O543 C554 1.284 . S
O544 Gd499 2.324 . S
O544 C564 1.254 . S
O545 Gd498 2.429 . S
O545 C564 1.268 . S
O546 Gd498 2.545 . S
O546 C554 1.250 . S
O547 Gd498 2.412 . S
O547 C557 1.252 . S
O548 Gd499 2.545 . S
O548 C566 1.258 . S
O549 Gd498 2.362 . S
O549 Gd499 2.606 . S
O549 C565 1.284 . S
O550 Gd498 2.324 . S
O550 C573 1.254 . S
O551 Gd499 2.429 . S
O551 C573 1.268 . S
O552 Gd499 2.545 . S
O552 C565 1.250 . S
O553 Gd499 2.412 . S
O553 C566 1.252 . S
C554 O543 1.284 . S
C554 O546 1.250 . S
C555 H524 0.929 . S
C555 C540 1.437 . S
C555 C556 1.317 . S
C556 H527 0.930 . S
C556 C532 1.431 . S
C556 C555 1.317 . S
C557 Gd498 2.828 . S
C557 O542 1.258 . S
C557 O547 1.252 . S
C557 C558 1.497 . S
C558 C557 1.497 . S
C558 C559 1.395 . S
C558 C560 1.380 . S
C559 C558 1.395 . S
C559 C562 1.398 . S
C559 H574 0.930 . S
C560 C558 1.380 . S
C560 C561 1.391 . S
C560 H575 0.930 . S
C561 C560 1.391 . S
C561 C563 1.387 . S
C562 C559 1.398 . S
C562 C563 1.380 . S
C562 H576 0.930 . S
C563 C561 1.387 . S
C563 C562 1.380 . S
C563 H577 0.930 . S
C564 O544 1.254 . S
C564 O545 1.268 . S
C565 O549 1.284 . S
C565 O552 1.250 . S
C566 Gd499 2.828 . S
C566 O548 1.258 . S
C566 O553 1.252 . S
C566 C567 1.497 . S
C567 C566 1.497 . S
C567 C568 1.395 . S
C567 C569 1.380 . S
C568 C567 1.395 . S
C568 C571 1.398 . S
C568 H578 0.930 . S
C569 C567 1.380 . S
C569 C570 1.391 . S
C569 H579 0.930 . S
C570 C569 1.391 . S
C570 C572 1.387 . S
C571 C568 1.398 . S
C571 C572 1.380 . S
C571 H580 0.930 . S
C572 C570 1.387 . S
C572 C571 1.380 . S
C572 H581 0.930 . S
C573 O550 1.254 . S
C573 O551 1.268 . S
H574 C559 0.930 . S
H575 C560 0.930 . S
H576 C562 0.930 . S
H577 C563 0.930 . S
H578 C568 0.930 . S
H579 C569 0.930 . S
H580 C571 0.930 . S
H581 C572 0.930 . S
Gd582 N613 2.661 . S
Gd582 N619 2.601 . S
Gd582 O626 2.545 . S
Gd582 O627 2.606 . S
Gd582 O629 2.429 . S
Gd582 O630 2.545 . S
Gd582 O631 2.412 . S
Gd582 O633 2.362 . S
Gd582 O634 2.324 . S
Gd582 C641 2.828 . S
Gd583 N592 2.661 . S
Gd583 N596 2.601 . S
Gd583 O627 2.362 . S
Gd583 O628 2.324 . S
Gd583 O632 2.545 . S
Gd583 O633 2.606 . S
Gd583 O635 2.429 . S
Gd583 O636 2.545 . S
Gd583 O637 2.412 . S
Gd583 C650 2.828 . S
C584 C587 1.417 . S
C584 C589 1.431 . S
C584 C590 1.412 . S
C585 C588 1.437 . S
C585 C589 1.317 . S
C585 H604 0.929 . S
C586 C587 1.426 . S
C586 C588 1.413 . S
C586 N596 1.359 . S
C587 C584 1.417 . S
C587 C586 1.426 . S
C587 N592 1.350 . S
C588 C585 1.437 . S
C588 C586 1.413 . S
C588 C598 1.391 . S
C589 C584 1.431 . S
C589 C585 1.317 . S
C589 H600 0.930 . S
C590 C584 1.412 . S
C590 C591 1.355 . S
C590 H602 0.930 . S
C591 C590 1.355 . S
C591 C593 1.402 . S
C591 H603 0.930 . S
N592 Gd583 2.661 . S
N592 C587 1.350 . S
N592 C593 1.307 . S
C593 C591 1.402 . S
C593 N592 1.307 . S
C593 H594 0.930 . S
H594 C593 0.930 . S
C595 N596 1.334 . S
C595 C597 1.394 . S
C595 H599 0.930 . S
N596 Gd583 2.601 . S
N596 C586 1.359 . S
N596 C595 1.334 . S
C597 C595 1.394 . S
C597 C598 1.359 . S
C597 H609 0.930 . S
C598 C588 1.391 . S
C598 C597 1.359 . S
C598 H610 0.929 . S
H599 C595 0.930 . S
H600 C589 0.930 . S
H601 C618 0.930 . S
H602 C590 0.930 . S
H603 C591 0.930 . S
H604 C585 0.929 . S
H605 C623 0.930 . S
H606 C614 0.930 . S
H607 C615 0.930 . S
H608 C639 0.929 . S
H609 C597 0.930 . S
H610 C598 0.929 . S
H611 C640 0.930 . S
H612 C621 0.930 . S
N613 Gd582 2.661 . S
N613 C617 1.350 . S
N613 C618 1.307 . S
C614 H606 0.930 . S
C614 C615 1.355 . S
C614 C616 1.412 . S
C615 H607 0.930 . S
C615 C614 1.355 . S
C615 C618 1.402 . S
C616 C614 1.412 . S
C616 C617 1.417 . S
C616 C640 1.431 . S
C617 N613 1.350 . S
C617 C616 1.417 . S
C617 C620 1.426 . S
C618 H601 0.930 . S
C618 N613 1.307 . S
C618 C615 1.402 . S
N619 Gd582 2.601 . S
N619 C620 1.359 . S
N619 C623 1.334 . S
C620 C617 1.426 . S
C620 N619 1.359 . S
C620 C624 1.413 . S
C621 H612 0.930 . S
C621 C622 1.359 . S
C621 C623 1.394 . S
C622 C621 1.359 . S
C622 C624 1.391 . S
C622 H625 0.929 . S
C623 H605 0.930 . S
C623 N619 1.334 . S
C623 C621 1.394 . S
C624 C620 1.413 . S
C624 C622 1.391 . S
C624 C639 1.437 . S
H625 C622 0.929 . S
O626 Gd582 2.545 . S
O626 C641 1.258 . S
O627 Gd582 2.606 . S
O627 Gd583 2.362 . S
O627 C638 1.284 . S
O628 Gd583 2.324 . S
O628 C648 1.254 . S
O629 Gd582 2.429 . S
O629 C648 1.268 . S
O630 Gd582 2.545 . S
O630 C638 1.250 . S
O631 Gd582 2.412 . S
O631 C641 1.252 . S
O632 Gd583 2.545 . S
O632 C650 1.258 . S
O633 Gd582 2.362 . S
O633 Gd583 2.606 . S
O633 C649 1.284 . S
O634 Gd582 2.324 . S
O634 C657 1.254 . S
O635 Gd583 2.429 . S
O635 C657 1.268 . S
O636 Gd583 2.545 . S
O636 C649 1.250 . S
O637 Gd583 2.412 . S
O637 C650 1.252 . S
C638 O627 1.284 . S
C638 O630 1.250 . S
C639 H608 0.929 . S
C639 C624 1.437 . S
C639 C640 1.317 . S
C640 H611 0.930 . S
C640 C616 1.431 . S
C640 C639 1.317 . S
C641 Gd582 2.828 . S
C641 O626 1.258 . S
C641 O631 1.252 . S
C641 C642 1.497 . S
C642 C641 1.497 . S
C642 C643 1.395 . S
C642 C644 1.380 . S
C643 C642 1.395 . S
C643 C646 1.398 . S
C643 H658 0.930 . S
C644 C642 1.380 . S
C644 C645 1.391 . S
C644 H659 0.930 . S
C645 C644 1.391 . S
C645 C647 1.387 . S
C646 C643 1.398 . S
C646 C647 1.380 . S
C646 H660 0.930 . S
C647 C645 1.387 . S
C647 C646 1.380 . S
C647 H661 0.930 . S
C648 O628 1.254 . S
C648 O629 1.268 . S
C649 O633 1.284 . S
C649 O636 1.250 . S
C650 Gd583 2.828 . S
C650 O632 1.258 . S
C650 O637 1.252 . S
C650 C651 1.497 . S
C651 C650 1.497 . S
C651 C652 1.395 . S
C651 C653 1.380 . S
C652 C651 1.395 . S
C652 C655 1.398 . S
C652 H662 0.930 . S
C653 C651 1.380 . S
C653 C654 1.391 . S
C653 H663 0.930 . S
C654 C653 1.391 . S
C654 C656 1.387 . S
C655 C652 1.398 . S
C655 C656 1.380 . S
C655 H664 0.930 . S
C656 C654 1.387 . S
C656 C655 1.380 . S
C656 H665 0.930 . S
C657 O634 1.254 . S
C657 O635 1.268 . S
H658 C643 0.930 . S
H659 C644 0.930 . S
H660 C646 0.930 . S
H661 C647 0.930 . S
H662 C652 0.930 . S
H663 C653 0.930 . S
H664 C655 0.930 . S
H665 C656 0.930 . S
Gd666 N697 2.661 . S
Gd666 N703 2.601 . S
Gd666 O710 2.545 . S
Gd666 O711 2.606 . S
Gd666 O713 2.429 . S
Gd666 O714 2.545 . S
Gd666 O715 2.412 . S
Gd666 O717 2.362 . S
Gd666 O718 2.324 . S
Gd666 C725 2.828 . S
Gd667 N676 2.661 . S
Gd667 N680 2.601 . S
Gd667 O711 2.362 . S
Gd667 O712 2.324 . S
Gd667 O716 2.545 . S
Gd667 O717 2.606 . S
Gd667 O719 2.429 . S
Gd667 O720 2.545 . S
Gd667 O721 2.412 . S
Gd667 C734 2.828 . S
C668 C671 1.417 . S
C668 C673 1.431 . S
C668 C674 1.412 . S
C669 C672 1.437 . S
C669 C673 1.317 . S
C669 H688 0.929 . S
C670 C671 1.426 . S
C670 C672 1.413 . S
C670 N680 1.359 . S
C671 C668 1.417 . S
C671 C670 1.426 . S
C671 N676 1.350 . S
C672 C669 1.437 . S
C672 C670 1.413 . S
C672 C682 1.391 . S
C673 C668 1.431 . S
C673 C669 1.317 . S
C673 H684 0.930 . S
C674 C668 1.412 . S
C674 C675 1.355 . S
C674 H686 0.930 . S
C675 C674 1.355 . S
C675 C677 1.402 . S
C675 H687 0.930 . S
N676 Gd667 2.661 . S
N676 C671 1.350 . S
N676 C677 1.307 . S
C677 C675 1.402 . S
C677 N676 1.307 . S
C677 H678 0.930 . S
H678 C677 0.930 . S
C679 N680 1.334 . S
C679 C681 1.394 . S
C679 H683 0.930 . S
N680 Gd667 2.601 . S
N680 C670 1.359 . S
N680 C679 1.334 . S
C681 C679 1.394 . S
C681 C682 1.359 . S
C681 H693 0.930 . S
C682 C672 1.391 . S
C682 C681 1.359 . S
C682 H694 0.929 . S
H683 C679 0.930 . S
H684 C673 0.930 . S
H685 C702 0.930 . S
H686 C674 0.930 . S
H687 C675 0.930 . S
H688 C669 0.929 . S
H689 C707 0.930 . S
H690 C698 0.930 . S
H691 C699 0.930 . S
H692 C723 0.929 . S
H693 C681 0.930 . S
H694 C682 0.929 . S
H695 C724 0.930 . S
H696 C705 0.930 . S
N697 Gd666 2.661 . S
N697 C701 1.350 . S
N697 C702 1.307 . S
C698 H690 0.930 . S
C698 C699 1.355 . S
C698 C700 1.412 . S
C699 H691 0.930 . S
C699 C698 1.355 . S
C699 C702 1.402 . S
C700 C698 1.412 . S
C700 C701 1.417 . S
C700 C724 1.431 . S
C701 N697 1.350 . S
C701 C700 1.417 . S
C701 C704 1.426 . S
C702 H685 0.930 . S
C702 N697 1.307 . S
C702 C699 1.402 . S
N703 Gd666 2.601 . S
N703 C704 1.359 . S
N703 C707 1.334 . S
C704 C701 1.426 . S
C704 N703 1.359 . S
C704 C708 1.413 . S
C705 H696 0.930 . S
C705 C706 1.359 . S
C705 C707 1.394 . S
C706 C705 1.359 . S
C706 C708 1.391 . S
C706 H709 0.929 . S
C707 H689 0.930 . S
C707 N703 1.334 . S
C707 C705 1.394 . S
C708 C704 1.413 . S
C708 C706 1.391 . S
C708 C723 1.437 . S
H709 C706 0.929 . S
O710 Gd666 2.545 . S
O710 C725 1.258 . S
O711 Gd666 2.606 . S
O711 Gd667 2.362 . S
O711 C722 1.284 . S
O712 Gd667 2.324 . S
O712 C732 1.254 . S
O713 Gd666 2.429 . S
O713 C732 1.268 . S
O714 Gd666 2.545 . S
O714 C722 1.250 . S
O715 Gd666 2.412 . S
O715 C725 1.252 . S
O716 Gd667 2.545 . S
O716 C734 1.258 . S
O717 Gd666 2.362 . S
O717 Gd667 2.606 . S
O717 C733 1.284 . S
O718 Gd666 2.324 . S
O718 C741 1.254 . S
O719 Gd667 2.429 . S
O719 C741 1.268 . S
O720 Gd667 2.545 . S
O720 C733 1.250 . S
O721 Gd667 2.412 . S
O721 C734 1.252 . S
C722 O711 1.284 . S
C722 O714 1.250 . S
C723 H692 0.929 . S
C723 C708 1.437 . S
C723 C724 1.317 . S
C724 H695 0.930 . S
C724 C700 1.431 . S
C724 C723 1.317 . S
C725 Gd666 2.828 . S
C725 O710 1.258 . S
C725 O715 1.252 . S
C725 C726 1.497 . S
C726 C725 1.497 . S
C726 C727 1.395 . S
C726 C728 1.380 . S
C727 C726 1.395 . S
C727 C730 1.398 . S
C727 H742 0.930 . S
C728 C726 1.380 . S
C728 C729 1.391 . S
C728 H743 0.930 . S
C729 C728 1.391 . S
C729 C731 1.387 . S
C730 C727 1.398 . S
C730 C731 1.380 . S
C730 H744 0.930 . S
C731 C729 1.387 . S
C731 C730 1.380 . S
C731 H745 0.930 . S
C732 O712 1.254 . S
C732 O713 1.268 . S
C733 O717 1.284 . S
C733 O720 1.250 . S
C734 Gd667 2.828 . S
C734 O716 1.258 . S
C734 O721 1.252 . S
C734 C735 1.497 . S
C735 C734 1.497 . S
C735 C736 1.395 . S
C735 C737 1.380 . S
C736 C735 1.395 . S
C736 C739 1.398 . S
C736 H746 0.930 . S
C737 C735 1.380 . S
C737 C738 1.391 . S
C737 H747 0.930 . S
C738 C737 1.391 . S
C738 C740 1.387 . S
C739 C736 1.398 . S
C739 C740 1.380 . S
C739 H748 0.930 . S
C740 C738 1.387 . S
C740 C739 1.380 . S
C740 H749 0.930 . S
C741 O718 1.254 . S
C741 O719 1.268 . S
H742 C727 0.930 . S
H743 C728 0.930 . S
H744 C730 0.930 . S
H745 C731 0.930 . S
H746 C736 0.930 . S
H747 C737 0.930 . S
H748 C739 0.930 . S
H749 C740 0.930 . S
Gd750 N781 2.661 . S
Gd750 N787 2.601 . S
Gd750 O794 2.545 . S
Gd750 O795 2.606 . S
Gd750 O797 2.429 . S
Gd750 O798 2.545 . S
Gd750 O799 2.412 . S
Gd750 O801 2.362 . S
Gd750 O802 2.324 . S
Gd750 C809 2.828 . S
Gd751 N760 2.661 . S
Gd751 N764 2.601 . S
Gd751 O795 2.362 . S
Gd751 O796 2.324 . S
Gd751 O800 2.545 . S
Gd751 O801 2.606 . S
Gd751 O803 2.429 . S
Gd751 O804 2.545 . S
Gd751 O805 2.412 . S
Gd751 C818 2.828 . S
C752 C755 1.417 . S
C752 C757 1.431 . S
C752 C758 1.412 . S
C753 C756 1.437 . S
C753 C757 1.317 . S
C753 H772 0.929 . S
C754 C755 1.426 . S
C754 C756 1.413 . S
C754 N764 1.359 . S
C755 C752 1.417 . S
C755 C754 1.426 . S
C755 N760 1.350 . S
C756 C753 1.437 . S
C756 C754 1.413 . S
C756 C766 1.391 . S
C757 C752 1.431 . S
C757 C753 1.317 . S
C757 H768 0.930 . S
C758 C752 1.412 . S
C758 C759 1.355 . S
C758 H770 0.930 . S
C759 C758 1.355 . S
C759 C761 1.402 . S
C759 H771 0.930 . S
N760 Gd751 2.661 . S
N760 C755 1.350 . S
N760 C761 1.307 . S
C761 C759 1.402 . S
C761 N760 1.307 . S
C761 H762 0.930 . S
H762 C761 0.930 . S
C763 N764 1.334 . S
C763 C765 1.394 . S
C763 H767 0.930 . S
N764 Gd751 2.601 . S
N764 C754 1.359 . S
N764 C763 1.334 . S
C765 C763 1.394 . S
C765 C766 1.359 . S
C765 H777 0.930 . S
C766 C756 1.391 . S
C766 C765 1.359 . S
C766 H778 0.929 . S
H767 C763 0.930 . S
H768 C757 0.930 . S
H769 C786 0.930 . S
H770 C758 0.930 . S
H771 C759 0.930 . S
H772 C753 0.929 . S
H773 C791 0.930 . S
H774 C782 0.930 . S
H775 C783 0.930 . S
H776 C807 0.929 . S
H777 C765 0.930 . S
H778 C766 0.929 . S
H779 C808 0.930 . S
H780 C789 0.930 . S
N781 Gd750 2.661 . S
N781 C785 1.350 . S
N781 C786 1.307 . S
C782 H774 0.930 . S
C782 C783 1.355 . S
C782 C784 1.412 . S
C783 H775 0.930 . S
C783 C782 1.355 . S
C783 C786 1.402 . S
C784 C782 1.412 . S
C784 C785 1.417 . S
C784 C808 1.431 . S
C785 N781 1.350 . S
C785 C784 1.417 . S
C785 C788 1.426 . S
C786 H769 0.930 . S
C786 N781 1.307 . S
C786 C783 1.402 . S
N787 Gd750 2.601 . S
N787 C788 1.359 . S
N787 C791 1.334 . S
C788 C785 1.426 . S
C788 N787 1.359 . S
C788 C792 1.413 . S
C789 H780 0.930 . S
C789 C790 1.359 . S
C789 C791 1.394 . S
C790 C789 1.359 . S
C790 C792 1.391 . S
C790 H793 0.929 . S
C791 H773 0.930 . S
C791 N787 1.334 . S
C791 C789 1.394 . S
C792 C788 1.413 . S
C792 C790 1.391 . S
C792 C807 1.437 . S
H793 C790 0.929 . S
O794 Gd750 2.545 . S
O794 C809 1.258 . S
O795 Gd750 2.606 . S
O795 Gd751 2.362 . S
O795 C806 1.284 . S
O796 Gd751 2.324 . S
O796 C816 1.254 . S
O797 Gd750 2.429 . S
O797 C816 1.268 . S
O798 Gd750 2.545 . S
O798 C806 1.250 . S
O799 Gd750 2.412 . S
O799 C809 1.252 . S
O800 Gd751 2.545 . S
O800 C818 1.258 . S
O801 Gd750 2.362 . S
O801 Gd751 2.606 . S
O801 C817 1.284 . S
O802 Gd750 2.324 . S
O802 C825 1.254 . S
O803 Gd751 2.429 . S
O803 C825 1.268 . S
O804 Gd751 2.545 . S
O804 C817 1.250 . S
O805 Gd751 2.412 . S
O805 C818 1.252 . S
C806 O795 1.284 . S
C806 O798 1.250 . S
C807 H776 0.929 . S
C807 C792 1.437 . S
C807 C808 1.317 . S
C808 H779 0.930 . S
C808 C784 1.431 . S
C808 C807 1.317 . S
C809 Gd750 2.828 . S
C809 O794 1.258 . S
C809 O799 1.252 . S
C809 C810 1.497 . S
C810 C809 1.497 . S
C810 C811 1.395 . S
C810 C812 1.380 . S
C811 C810 1.395 . S
C811 C814 1.398 . S
C811 H826 0.930 . S
C812 C810 1.380 . S
C812 C813 1.391 . S
C812 H827 0.930 . S
C813 C812 1.391 . S
C813 C815 1.387 . S
C814 C811 1.398 . S
C814 C815 1.380 . S
C814 H828 0.930 . S
C815 C813 1.387 . S
C815 C814 1.380 . S
C815 H829 0.930 . S
C816 O796 1.254 . S
C816 O797 1.268 . S
C817 O801 1.284 . S
C817 O804 1.250 . S
C818 Gd751 2.828 . S
C818 O800 1.258 . S
C818 O805 1.252 . S
C818 C819 1.497 . S
C819 C818 1.497 . S
C819 C820 1.395 . S
C819 C821 1.380 . S
C820 C819 1.395 . S
C820 C823 1.398 . S
C820 H830 0.930 . S
C821 C819 1.380 . S
C821 C822 1.391 . S
C821 H831 0.930 . S
C822 C821 1.391 . S
C822 C824 1.387 . S
C823 C820 1.398 . S
C823 C824 1.380 . S
C823 H832 0.930 . S
C824 C822 1.387 . S
C824 C823 1.380 . S
C824 H833 0.930 . S
C825 O802 1.254 . S
C825 O803 1.268 . S
H826 C811 0.930 . S
H827 C812 0.930 . S
H828 C814 0.930 . S
H829 C815 0.930 . S
H830 C820 0.930 . S
H831 C821 0.930 . S
H832 C823 0.930 . S
H833 C824 0.930 . S
Gd834 N865 2.661 . S
Gd834 N871 2.601 . S
Gd834 O878 2.545 . S
Gd834 O879 2.606 . S
Gd834 O881 2.429 . S
Gd834 O882 2.545 . S
Gd834 O883 2.412 . S
Gd834 O885 2.362 . S
Gd834 O886 2.324 . S
Gd834 C893 2.828 . S
Gd835 N844 2.661 . S
Gd835 N848 2.601 . S
Gd835 O879 2.362 . S
Gd835 O880 2.324 . S
Gd835 O884 2.545 . S
Gd835 O885 2.606 . S
Gd835 O887 2.429 . S
Gd835 O888 2.545 . S
Gd835 O889 2.412 . S
Gd835 C902 2.828 . S
C836 C839 1.417 . S
C836 C841 1.431 . S
C836 C842 1.412 . S
C837 C840 1.437 . S
C837 C841 1.317 . S
C837 H856 0.929 . S
C838 C839 1.426 . S
C838 C840 1.413 . S
C838 N848 1.359 . S
C839 C836 1.417 . S
C839 C838 1.426 . S
C839 N844 1.350 . S
C840 C837 1.437 . S
C840 C838 1.413 . S
C840 C850 1.391 . S
C841 C836 1.431 . S
C841 C837 1.317 . S
C841 H852 0.930 . S
C842 C836 1.412 . S
C842 C843 1.355 . S
C842 H854 0.930 . S
C843 C842 1.355 . S
C843 C845 1.402 . S
C843 H855 0.930 . S
N844 Gd835 2.661 . S
N844 C839 1.350 . S
N844 C845 1.307 . S
C845 C843 1.402 . S
C845 N844 1.307 . S
C845 H846 0.930 . S
H846 C845 0.930 . S
C847 N848 1.334 . S
C847 C849 1.394 . S
C847 H851 0.930 . S
N848 Gd835 2.601 . S
N848 C838 1.359 . S
N848 C847 1.334 . S
C849 C847 1.394 . S
C849 C850 1.359 . S
C849 H861 0.930 . S
C850 C840 1.391 . S
C850 C849 1.359 . S
C850 H862 0.929 . S
H851 C847 0.930 . S
H852 C841 0.930 . S
H853 C870 0.930 . S
H854 C842 0.930 . S
H855 C843 0.930 . S
H856 C837 0.929 . S
H857 C875 0.930 . S
H858 C866 0.930 . S
H859 C867 0.930 . S
H860 C891 0.929 . S
H861 C849 0.930 . S
H862 C850 0.929 . S
H863 C892 0.930 . S
H864 C873 0.930 . S
N865 Gd834 2.661 . S
N865 C869 1.350 . S
N865 C870 1.307 . S
C866 H858 0.930 . S
C866 C867 1.355 . S
C866 C868 1.412 . S
C867 H859 0.930 . S
C867 C866 1.355 . S
C867 C870 1.402 . S
C868 C866 1.412 . S
C868 C869 1.417 . S
C868 C892 1.431 . S
C869 N865 1.350 . S
C869 C868 1.417 . S
C869 C872 1.426 . S
C870 H853 0.930 . S
C870 N865 1.307 . S
C870 C867 1.402 . S
N871 Gd834 2.601 . S
N871 C872 1.359 . S
N871 C875 1.334 . S
C872 C869 1.426 . S
C872 N871 1.359 . S
C872 C876 1.413 . S
C873 H864 0.930 . S
C873 C874 1.359 . S
C873 C875 1.394 . S
C874 C873 1.359 . S
C874 C876 1.391 . S
C874 H877 0.929 . S
C875 H857 0.930 . S
C875 N871 1.334 . S
C875 C873 1.394 . S
C876 C872 1.413 . S
C876 C874 1.391 . S
C876 C891 1.437 . S
H877 C874 0.929 . S
O878 Gd834 2.545 . S
O878 C893 1.258 . S
O879 Gd834 2.606 . S
O879 Gd835 2.362 . S
O879 C890 1.284 . S
O880 Gd835 2.324 . S
O880 C900 1.254 . S
O881 Gd834 2.429 . S
O881 C900 1.268 . S
O882 Gd834 2.545 . S
O882 C890 1.250 . S
O883 Gd834 2.412 . S
O883 C893 1.252 . S
O884 Gd835 2.545 . S
O884 C902 1.258 . S
O885 Gd834 2.362 . S
O885 Gd835 2.606 . S
O885 C901 1.284 . S
O886 Gd834 2.324 . S
O886 C909 1.254 . S
O887 Gd835 2.429 . S
O887 C909 1.268 . S
O888 Gd835 2.545 . S
O888 C901 1.250 . S
O889 Gd835 2.412 . S
O889 C902 1.252 . S
C890 O879 1.284 . S
C890 O882 1.250 . S
C891 H860 0.929 . S
C891 C876 1.437 . S
C891 C892 1.317 . S
C892 H863 0.930 . S
C892 C868 1.431 . S
C892 C891 1.317 . S
C893 Gd834 2.828 . S
C893 O878 1.258 . S
C893 O883 1.252 . S
C893 C894 1.497 . S
C894 C893 1.497 . S
C894 C895 1.395 . S
C894 C896 1.380 . S
C895 C894 1.395 . S
C895 C898 1.398 . S
C895 H910 0.930 . S
C896 C894 1.380 . S
C896 C897 1.391 . S
C896 H911 0.930 . S
C897 C896 1.391 . S
C897 C899 1.387 . S
C898 C895 1.398 . S
C898 C899 1.380 . S
C898 H912 0.930 . S
C899 C897 1.387 . S
C899 C898 1.380 . S
C899 H913 0.930 . S
C900 O880 1.254 . S
C900 O881 1.268 . S
C901 O885 1.284 . S
C901 O888 1.250 . S
C902 Gd835 2.828 . S
C902 O884 1.258 . S
C902 O889 1.252 . S
C902 C903 1.497 . S
C903 C902 1.497 . S
C903 C904 1.395 . S
C903 C905 1.380 . S
C904 C903 1.395 . S
C904 C907 1.398 . S
C904 H914 0.930 . S
C905 C903 1.380 . S
C905 C906 1.391 . S
C905 H915 0.930 . S
C906 C905 1.391 . S
C906 C908 1.387 . S
C907 C904 1.398 . S
C907 C908 1.380 . S
C907 H916 0.930 . S
C908 C906 1.387 . S
C908 C907 1.380 . S
C908 H917 0.930 . S
C909 O886 1.254 . S
C909 O887 1.268 . S
H910 C895 0.930 . S
H911 C896 0.930 . S
H912 C898 0.930 . S
H913 C899 0.930 . S
H914 C904 0.930 . S
H915 C905 0.930 . S
H916 C907 0.930 . S
H917 C908 0.930 . S
H918 C930 0.930 . S
H919 C932 0.930 . S
H920 C933 0.930 . S
H921 C937 0.959 . S
H922 C937 0.959 . S
H923 C937 0.961 . S
H924 C938 0.960 . S
H925 C938 0.961 . S
H926 C938 0.959 . S
H927 C941 0.929 . S
H928 C942 0.931 . S
H929 C944 0.930 . S
C930 H918 0.930 . S
C930 C931 1.399 . S
C930 C935 1.399 . S
C931 C930 1.399 . S
C931 C932 1.376 . S
C932 H919 0.930 . S
C932 C931 1.376 . S
C932 C933 1.388 . S
C933 H920 0.930 . S
C933 C932 1.388 . S
C933 C934 1.390 . S
C934 C933 1.390 . S
C934 C935 1.394 . S
C934 C940 1.465 . S
C935 C930 1.399 . S
C935 C934 1.394 . S
C935 C936 1.516 . S
C936 C935 1.516 . S
C936 C937 1.502 . S
C936 C938 1.561 . S
C936 C939 1.526 . S
C937 H921 0.959 . S
C937 H922 0.959 . S
C937 H923 0.961 . S
C937 C936 1.502 . S
C938 H924 0.960 . S
C938 H925 0.961 . S
C938 H926 0.959 . S
C938 C936 1.561 . S
C939 C936 1.526 . S
C939 C940 1.396 . S
C939 C944 1.390 . S
C940 C934 1.465 . S
C940 C939 1.396 . S
C940 C941 1.399 . S
C941 H927 0.929 . S
C941 C940 1.399 . S
C941 C942 1.385 . S
C942 H928 0.931 . S
C942 C941 1.385 . S
C942 C943 1.389 . S
C943 C942 1.389 . S
C943 C944 1.387 . S
C944 H929 0.930 . S
C944 C939 1.390 . S
C944 C943 1.387 . S
H945 C957 0.930 . S
H946 C959 0.930 . S
H947 C960 0.930 . S
H948 C964 0.959 . S
H949 C964 0.959 . S
H950 C964 0.961 . S
H951 C965 0.960 . S
H952 C965 0.961 . S
H953 C965 0.959 . S
H954 C968 0.929 . S
H955 C969 0.931 . S
H956 C971 0.930 . S
C957 H945 0.930 . S
C957 C958 1.399 . S
C957 C962 1.399 . S
C958 C957 1.399 . S
C958 C959 1.376 . S
C959 H946 0.930 . S
C959 C958 1.376 . S
C959 C960 1.388 . S
C960 H947 0.930 . S
C960 C959 1.388 . S
C960 C961 1.390 . S
C961 C960 1.390 . S
C961 C962 1.394 . S
C961 C967 1.465 . S
C962 C957 1.399 . S
C962 C961 1.394 . S
C962 C963 1.516 . S
C963 C962 1.516 . S
C963 C964 1.502 . S
C963 C965 1.561 . S
C963 C966 1.526 . S
C964 H948 0.959 . S
C964 H949 0.959 . S
C964 H950 0.961 . S
C964 C963 1.502 . S
C965 H951 0.960 . S
C965 H952 0.961 . S
C965 H953 0.959 . S
C965 C963 1.561 . S
C966 C963 1.526 . S
C966 C967 1.396 . S
C966 C971 1.390 . S
C967 C961 1.465 . S
C967 C966 1.396 . S
C967 C968 1.399 . S
C968 H954 0.929 . S
C968 C967 1.399 . S
C968 C969 1.385 . S
C969 H955 0.931 . S
C969 C968 1.385 . S
C969 C970 1.389 . S
C970 C969 1.389 . S
C970 C971 1.387 . S
C971 H956 0.930 . S
C971 C966 1.390 . S
C971 C970 1.387 . S
H972 C984 0.930 . S
H973 C986 0.930 . S
H974 C987 0.930 . S
H975 C991 0.959 . S
H976 C991 0.959 1_556 S
H977 C991 0.961 . S
H978 C992 0.960 . S
H979 C992 0.961 . S
H980 C992 0.959 . S
H981 C995 0.929 . S
H982 C996 0.931 . S
H983 C998 0.930 . S
C984 H972 0.930 . S
C984 C985 1.399 . S
C984 C989 1.399 . S
C985 C984 1.399 . S
C985 C986 1.376 . S
C986 H973 0.930 . S
C986 C985 1.376 . S
C986 C987 1.388 . S
C987 H974 0.930 . S
C987 C986 1.388 . S
C987 C988 1.390 . S
C988 C987 1.390 . S
C988 C989 1.394 . S
C988 C994 1.465 . S
C989 C984 1.399 . S
C989 C988 1.394 . S
C989 C990 1.516 . S
C990 C989 1.516 . S
C990 C991 1.502 . S
C990 C992 1.561 . S
C990 C993 1.526 . S
C991 H975 0.959 . S
C991 H976 0.959 1_554 S
C991 H977 0.961 . S
C991 C990 1.502 . S
C992 H978 0.960 . S
C992 H979 0.961 . S
C992 H980 0.959 . S
C992 C990 1.561 . S
C993 C990 1.526 . S
C993 C994 1.396 . S
C993 C998 1.390 . S
C994 C988 1.465 . S
C994 C993 1.396 . S
C994 C995 1.399 . S
C995 H981 0.929 . S
C995 C994 1.399 . S
C995 C996 1.385 . S
C996 H982 0.931 . S
C996 C995 1.385 . S
C996 C997 1.389 . S
C997 C996 1.389 . S
C997 C998 1.387 . S
C998 H983 0.930 . S
C998 C993 1.390 . S
C998 C997 1.387 . S
H999 C1011 0.930 . S
H1000 C1013 0.930 . S
H1001 C1014 0.930 . S
H1002 C1018 0.959 . S
H1003 C1018 0.959 . S
H1004 C1018 0.961 . S
H1005 C1019 0.960 . S
H1006 C1019 0.961 . S
H1007 C1019 0.959 . S
H1008 C1022 0.929 . S
H1009 C1023 0.931 . S
H1010 C1025 0.930 . S
C1011 H999 0.930 . S
C1011 C1012 1.399 . S
C1011 C1016 1.399 . S
C1012 C1011 1.399 . S
C1012 C1013 1.376 . S
C1013 H1000 0.930 . S
C1013 C1012 1.376 . S
C1013 C1014 1.388 . S
C1014 H1001 0.930 . S
C1014 C1013 1.388 . S
C1014 C1015 1.390 . S
C1015 C1014 1.390 . S
C1015 C1016 1.394 . S
C1015 C1021 1.465 . S
C1016 C1011 1.399 . S
C1016 C1015 1.394 . S
C1016 C1017 1.516 . S
C1017 C1016 1.516 . S
C1017 C1018 1.502 . S
C1017 C1019 1.561 . S
C1017 C1020 1.526 . S
C1018 H1002 0.959 . S
C1018 H1003 0.959 . S
C1018 H1004 0.961 . S
C1018 C1017 1.502 . S
C1019 H1005 0.960 . S
C1019 H1006 0.961 . S
C1019 H1007 0.959 . S
C1019 C1017 1.561 . S
C1020 C1017 1.526 . S
C1020 C1021 1.396 . S
C1020 C1025 1.390 . S
C1021 C1015 1.465 . S
C1021 C1020 1.396 . S
C1021 C1022 1.399 . S
C1022 H1008 0.929 . S
C1022 C1021 1.399 . S
C1022 C1023 1.385 . S
C1023 H1009 0.931 . S
C1023 C1022 1.385 . S
C1023 C1024 1.389 . S
C1024 C1023 1.389 . S
C1024 C1025 1.387 . S
C1025 H1010 0.930 . S
C1025 C1020 1.390 . S
C1025 C1024 1.387 . S
H1026 C1038 0.930 . S
H1027 C1040 0.930 . S
H1028 C1041 0.930 . S
H1029 C1045 0.959 . S
H1030 C1045 0.959 . S
H1031 C1045 0.961 . S
H1032 C1046 0.960 . S
H1033 C1046 0.961 . S
H1034 C1046 0.959 . S
H1035 C1049 0.929 . S
H1036 C1050 0.931 1_554 S
H1037 C1052 0.930 . S
C1038 H1026 0.930 . S
C1038 C1039 1.399 . S
C1038 C1043 1.399 . S
C1039 C1038 1.399 . S
C1039 C1040 1.376 . S
C1040 H1027 0.930 . S
C1040 C1039 1.376 . S
C1040 C1041 1.388 . S
C1041 H1028 0.930 . S
C1041 C1040 1.388 . S
C1041 C1042 1.390 . S
C1042 C1041 1.390 . S
C1042 C1043 1.394 . S
C1042 C1048 1.465 . S
C1043 C1038 1.399 . S
C1043 C1042 1.394 . S
C1043 C1044 1.516 . S
C1044 C1043 1.516 . S
C1044 C1045 1.502 . S
C1044 C1046 1.561 . S
C1044 C1047 1.526 . S
C1045 H1029 0.959 . S
C1045 H1030 0.959 . S
C1045 H1031 0.961 . S
C1045 C1044 1.502 . S
C1046 H1032 0.960 . S
C1046 H1033 0.961 . S
C1046 H1034 0.959 . S
C1046 C1044 1.561 . S
C1047 C1044 1.526 . S
C1047 C1048 1.396 . S
C1047 C1052 1.390 . S
C1048 C1042 1.465 . S
C1048 C1047 1.396 . S
C1048 C1049 1.399 . S
C1049 H1035 0.929 . S
C1049 C1048 1.399 . S
C1049 C1050 1.385 . S
C1050 H1036 0.931 1_556 S
C1050 C1049 1.385 . S
C1050 C1051 1.389 . S
C1051 C1050 1.389 . S
C1051 C1052 1.387 . S
C1052 H1037 0.930 . S
C1052 C1047 1.390 . S
C1052 C1051 1.387 . S
H1053 C1065 0.930 . S
H1054 C1067 0.930 . S
H1055 C1068 0.930 . S
H1056 C1072 0.959 . S
H1057 C1072 0.959 . S
H1058 C1072 0.961 . S
H1059 C1073 0.960 . S
H1060 C1073 0.961 . S
H1061 C1073 0.959 . S
H1062 C1076 0.929 . S
H1063 C1077 0.931 1_554 S
H1064 C1079 0.930 . S
C1065 H1053 0.930 . S
C1065 C1066 1.399 . S
C1065 C1070 1.399 . S
C1066 C1065 1.399 . S
C1066 C1067 1.376 . S
C1067 H1054 0.930 . S
C1067 C1066 1.376 . S
C1067 C1068 1.388 . S
C1068 H1055 0.930 . S
C1068 C1067 1.388 . S
C1068 C1069 1.390 . S
C1069 C1068 1.390 . S
C1069 C1070 1.394 . S
C1069 C1075 1.465 . S
C1070 C1065 1.399 . S
C1070 C1069 1.394 . S
C1070 C1071 1.516 . S
C1071 C1070 1.516 . S
C1071 C1072 1.502 . S
C1071 C1073 1.561 . S
C1071 C1074 1.526 . S
C1072 H1056 0.959 . S
C1072 H1057 0.959 . S
C1072 H1058 0.961 . S
C1072 C1071 1.502 . S
C1073 H1059 0.960 . S
C1073 H1060 0.961 . S
C1073 H1061 0.959 . S
C1073 C1071 1.561 . S
C1074 C1071 1.526 . S
C1074 C1075 1.396 . S
C1074 C1079 1.390 . S
C1075 C1069 1.465 . S
C1075 C1074 1.396 . S
C1075 C1076 1.399 . S
C1076 H1062 0.929 . S
C1076 C1075 1.399 . S
C1076 C1077 1.385 . S
C1077 H1063 0.931 1_556 S
C1077 C1076 1.385 . S
C1077 C1078 1.389 . S
C1078 C1077 1.389 . S
C1078 C1079 1.387 . S
C1079 H1064 0.930 . S
C1079 C1074 1.390 . S
C1079 C1078 1.387 . S
H1080 C1092 0.930 . S
H1081 C1094 0.930 . S
H1082 C1095 0.930 . S
H1083 C1099 0.958 . S
H1084 C1099 0.965 1_554 S
H1085 C1099 0.962 1_554 S
H1086 C1100 0.960 . S
H1087 C1100 0.961 1_554 S
H1088 C1100 0.959 . S
H1089 C1103 0.929 . S
H1090 C1104 0.931 . S
H1091 C1106 0.930 1_554 S
C1092 H1080 0.930 . S
C1092 C1093 1.399 . S
C1092 C1097 1.399 . S
C1093 C1092 1.399 . S
C1093 C1094 1.376 . S
C1094 H1081 0.930 . S
C1094 C1093 1.376 . S
C1094 C1095 1.388 . S
C1095 H1082 0.930 . S
C1095 C1094 1.388 . S
C1095 C1096 1.390 . S
C1096 C1095 1.390 . S
C1096 C1097 1.394 . S
C1096 C1102 1.465 . S
C1097 C1092 1.399 . S
C1097 C1096 1.394 . S
C1097 C1098 1.516 . S
C1098 C1097 1.516 . S
C1098 C1099 1.497 . S
C1098 C1100 1.561 . S
C1098 C1101 1.526 . S
C1099 H1083 0.958 . S
C1099 H1084 0.965 1_556 S
C1099 H1085 0.962 1_556 S
C1099 C1098 1.497 . S
C1100 H1086 0.960 . S
C1100 H1087 0.961 1_556 S
C1100 H1088 0.959 . S
C1100 C1098 1.561 . S
C1101 C1098 1.526 . S
C1101 C1102 1.396 . S
C1101 C1106 1.390 . S
C1102 C1096 1.465 . S
C1102 C1101 1.396 . S
C1102 C1103 1.399 . S
C1103 H1089 0.929 . S
C1103 C1102 1.399 . S
C1103 C1104 1.385 . S
C1104 H1090 0.931 . S
C1104 C1103 1.385 . S
C1104 C1105 1.389 . S
C1105 C1104 1.389 . S
C1105 C1106 1.387 . S
C1106 H1091 0.930 1_556 S
C1106 C1101 1.390 . S
C1106 C1105 1.387 . S
H1107 C1119 0.930 . S
H1108 C1121 0.930 . S
H1109 C1122 0.930 . S
H1110 C1126 0.959 . S
H1111 C1126 0.959 . S
H1112 C1126 0.961 . S
H1113 C1127 0.960 . S
H1114 C1127 0.961 . S
H1115 C1127 0.959 . S
H1116 C1130 0.929 . S
H1117 C1131 0.931 . S
H1118 C1133 0.930 . S
C1119 H1107 0.930 . S
C1119 C1120 1.399 . S
C1119 C1124 1.399 . S
C1120 C1119 1.399 . S
C1120 C1121 1.376 . S
C1121 H1108 0.930 . S
C1121 C1120 1.376 . S
C1121 C1122 1.388 . S
C1122 H1109 0.930 . S
C1122 C1121 1.388 . S
C1122 C1123 1.390 . S
C1123 C1122 1.390 . S
C1123 C1124 1.394 . S
C1123 C1129 1.465 . S
C1124 C1119 1.399 . S
C1124 C1123 1.394 . S
C1124 C1125 1.516 . S
C1125 C1124 1.516 . S
C1125 C1126 1.502 . S
C1125 C1127 1.561 . S
C1125 C1128 1.526 . S
C1126 H1110 0.959 . S
C1126 H1111 0.959 . S
C1126 H1112 0.961 . S
C1126 C1125 1.502 . S
C1127 H1113 0.960 . S
C1127 H1114 0.961 . S
C1127 H1115 0.959 . S
C1127 C1125 1.561 . S
C1128 C1125 1.526 . S
C1128 C1129 1.396 . S
C1128 C1133 1.390 . S
C1129 C1123 1.465 . S
C1129 C1128 1.396 . S
C1129 C1130 1.399 . S
C1130 H1116 0.929 . S
C1130 C1129 1.399 . S
C1130 C1131 1.385 . S
C1131 H1117 0.931 . S
C1131 C1130 1.385 . S
C1131 C1132 1.389 . S
C1132 C1131 1.389 . S
C1132 C1133 1.387 . S
C1133 H1118 0.930 . S
C1133 C1128 1.390 . S
C1133 C1132 1.387 . S
H1134 C1146 0.930 . S
H1135 C1148 0.930 . S
H1136 C1149 0.930 . S
H1137 C1153 0.959 . S
H1138 C1153 0.959 . S
H1139 C1153 0.961 . S
H1140 C1154 0.960 . S
H1141 C1154 0.961 . S
H1142 C1154 0.959 . S
H1143 C1157 0.929 . S
H1144 C1158 0.931 1_554 S
H1145 C1160 0.930 . S
C1146 H1134 0.930 . S
C1146 C1147 1.399 . S
C1146 C1151 1.399 . S
C1147 C1146 1.399 . S
C1147 C1148 1.376 . S
C1148 H1135 0.930 . S
C1148 C1147 1.376 . S
C1148 C1149 1.388 . S
C1149 H1136 0.930 . S
C1149 C1148 1.388 . S
C1149 C1150 1.390 . S
C1150 C1149 1.390 . S
C1150 C1151 1.394 . S
C1150 C1156 1.465 . S
C1151 C1146 1.399 . S
C1151 C1150 1.394 . S
C1151 C1152 1.516 . S
C1152 C1151 1.516 . S
C1152 C1153 1.502 . S
C1152 C1154 1.561 . S
C1152 C1155 1.526 . S
C1153 H1137 0.959 . S
C1153 H1138 0.959 . S
C1153 H1139 0.961 . S
C1153 C1152 1.502 . S
C1154 H1140 0.960 . S
C1154 H1141 0.961 . S
C1154 H1142 0.959 . S
C1154 C1152 1.561 . S
C1155 C1152 1.526 . S
C1155 C1156 1.396 . S
C1155 C1160 1.390 . S
C1156 C1150 1.465 . S
C1156 C1155 1.396 . S
C1156 C1157 1.399 . S
C1157 H1143 0.929 . S
C1157 C1156 1.399 . S
C1157 C1158 1.385 . S
C1158 H1144 0.931 1_556 S
C1158 C1157 1.385 . S
C1158 C1159 1.389 . S
C1159 C1158 1.389 . S
C1159 C1160 1.387 . S
C1160 H1145 0.930 . S
C1160 C1155 1.390 . S
C1160 C1159 1.387 . S
H1161 C1173 0.930 . S
H1162 C1175 0.930 . S
H1163 C1176 0.930 . S
H1164 C1180 0.959 . S
H1165 C1180 0.915 1_556 S
H1166 C1180 0.961 . S
H1167 C1181 0.960 . S
H1168 C1181 0.961 . S
H1169 C1181 0.959 . S
H1170 C1184 0.929 . S
H1171 C1185 0.931 . S
H1172 C1187 0.930 . S
C1173 H1161 0.930 . S
C1173 C1174 1.399 . S
C1173 C1178 1.399 . S
C1174 C1173 1.399 . S
C1174 C1175 1.376 . S
C1175 H1162 0.930 . S
C1175 C1174 1.376 . S
C1175 C1176 1.388 . S
C1176 H1163 0.930 . S
C1176 C1175 1.388 . S
C1176 C1177 1.390 . S
C1177 C1176 1.390 . S
C1177 C1178 1.394 . S
C1177 C1183 1.465 . S
C1178 C1173 1.399 . S
C1178 C1177 1.394 . S
C1178 C1179 1.516 . S
C1179 C1178 1.516 . S
C1179 C1180 1.502 . S
C1179 C1181 1.561 . S
C1179 C1182 1.526 . S
C1180 H1164 0.959 . S
C1180 H1165 0.915 1_554 S
C1180 H1166 0.961 . S
C1180 C1179 1.502 . S
C1181 H1167 0.960 . S
C1181 H1168 0.961 . S
C1181 H1169 0.959 . S
C1181 C1179 1.561 . S
C1182 C1179 1.526 . S
C1182 C1183 1.396 . S
C1182 C1187 1.390 . S
C1183 C1177 1.465 . S
C1183 C1182 1.396 . S
C1183 C1184 1.399 . S
C1184 H1170 0.929 . S
C1184 C1183 1.399 . S
C1184 C1185 1.385 . S
C1185 H1171 0.931 . S
C1185 C1184 1.385 . S
C1185 C1186 1.389 . S
C1186 C1185 1.389 . S
C1186 C1187 1.387 . S
C1187 H1172 0.930 . S
C1187 C1182 1.390 . S
C1187 C1186 1.387 . S
H1188 C1200 0.930 . S
H1189 C1202 0.930 . S
H1190 C1203 0.930 . S
H1191 C1207 0.959 . S
H1192 C1207 0.959 . S
H1193 C1207 0.961 . S
H1194 C1208 0.960 . S
H1195 C1208 0.961 . S
H1196 C1208 0.959 . S
H1197 C1211 0.929 . S
H1198 C1212 0.931 . S
H1199 C1214 0.930 . S
C1200 H1188 0.930 . S
C1200 C1201 1.399 . S
C1200 C1205 1.399 . S
C1201 C1200 1.399 . S
C1201 C1202 1.376 . S
C1202 H1189 0.930 . S
C1202 C1201 1.376 . S
C1202 C1203 1.388 . S
C1203 H1190 0.930 . S
C1203 C1202 1.388 . S
C1203 C1204 1.390 . S
C1204 C1203 1.390 . S
C1204 C1205 1.394 . S
C1204 C1210 1.465 . S
C1205 C1200 1.399 . S
C1205 C1204 1.394 . S
C1205 C1206 1.516 . S
C1206 C1205 1.516 . S
C1206 C1207 1.502 . S
C1206 C1208 1.561 . S
C1206 C1209 1.526 . S
C1207 H1191 0.959 . S
C1207 H1192 0.959 . S
C1207 H1193 0.961 . S
C1207 C1206 1.502 . S
C1208 H1194 0.960 . S
C1208 H1195 0.961 . S
C1208 H1196 0.959 . S
C1208 C1206 1.561 . S
C1209 C1206 1.526 . S
C1209 C1210 1.396 . S
C1209 C1214 1.390 . S
C1210 C1204 1.465 . S
C1210 C1209 1.396 . S
C1210 C1211 1.399 . S
C1211 H1197 0.929 . S
C1211 C1210 1.399 . S
C1211 C1212 1.385 . S
C1212 H1198 0.931 . S
C1212 C1211 1.385 . S
C1212 C1213 1.389 . S
C1213 C1212 1.389 . S
C1213 C1214 1.387 . S
C1214 H1199 0.930 . S
C1214 C1209 1.390 . S
C1214 C1213 1.387 . S
H1215 C1227 0.930 . S
H1216 C1229 0.930 . S
H1217 C1230 0.930 . S
H1218 C1234 0.959 . S
H1219 C1234 0.959 . S
H1220 C1234 0.961 . S
H1221 C1235 0.960 . S
H1222 C1235 0.961 . S
H1223 C1235 0.959 . S
H1224 C1238 0.929 . S
H1225 C1239 0.931 . S
H1226 C1241 0.930 . S
C1227 H1215 0.930 . S
C1227 C1228 1.399 . S
C1227 C1232 1.399 . S
C1228 C1227 1.399 . S
C1228 C1229 1.376 . S
C1229 H1216 0.930 . S
C1229 C1228 1.376 . S
C1229 C1230 1.388 . S
C1230 H1217 0.930 . S
C1230 C1229 1.388 . S
C1230 C1231 1.390 . S
C1231 C1230 1.390 . S
C1231 C1232 1.394 . S
C1231 C1237 1.465 . S
C1232 C1227 1.399 . S
C1232 C1231 1.394 . S
C1232 C1233 1.516 . S
C1233 C1232 1.516 . S
C1233 C1234 1.502 . S
C1233 C1235 1.561 . S
C1233 C1236 1.526 . S
C1234 H1218 0.959 . S
C1234 H1219 0.959 . S
C1234 H1220 0.961 . S
C1234 C1233 1.502 . S
C1235 H1221 0.960 . S
C1235 H1222 0.961 . S
C1235 H1223 0.959 . S
C1235 C1233 1.561 . S
C1236 C1233 1.526 . S
C1236 C1237 1.396 . S
C1236 C1241 1.390 . S
C1237 C1231 1.465 . S
C1237 C1236 1.396 . S
C1237 C1238 1.399 . S
C1238 H1224 0.929 . S
C1238 C1237 1.399 . S
C1238 C1239 1.385 . S
C1239 H1225 0.931 . S
C1239 C1238 1.385 . S
C1239 C1240 1.389 . S
C1240 C1239 1.389 . S
C1240 C1241 1.387 . S
C1241 H1226 0.930 . S
C1241 C1236 1.390 . S
C1241 C1240 1.387 . S
H1242 C1254 0.930 . S
H1243 C1256 0.930 . S
H1244 C1257 0.930 . S
H1245 C1261 0.959 . S
H1246 C1261 0.959 . S
H1247 C1261 0.961 . S
H1248 C1262 0.960 . S
H1249 C1262 0.961 1_455 S
H1250 C1262 0.959 . S
H1251 C1265 0.929 . S
H1252 C1266 0.931 . S
H1253 C1268 0.930 . S
C1254 H1242 0.930 . S
C1254 C1255 1.399 . S
C1254 C1259 1.399 . S
C1255 C1254 1.399 . S
C1255 C1256 1.376 . S
C1256 H1243 0.930 . S
C1256 C1255 1.376 . S
C1256 C1257 1.388 . S
C1257 H1244 0.930 . S
C1257 C1256 1.388 . S
C1257 C1258 1.390 . S
C1258 C1257 1.390 . S
C1258 C1259 1.394 . S
C1258 C1264 1.465 1_655 S
C1259 C1254 1.399 . S
C1259 C1258 1.394 . S
C1259 C1260 1.516 1_655 S
C1260 C1259 1.516 1_455 S
C1260 C1261 1.502 . S
C1260 C1262 1.561 1_455 S
C1260 C1263 1.526 . S
C1261 H1245 0.959 . S
C1261 H1246 0.959 . S
C1261 H1247 0.961 . S
C1261 C1260 1.502 . S
C1262 H1248 0.960 . S
C1262 H1249 0.961 1_655 S
C1262 H1250 0.959 . S
C1262 C1260 1.561 1_655 S
C1263 C1260 1.526 . S
C1263 C1264 1.396 . S
C1263 C1268 1.390 . S
C1264 C1258 1.465 1_455 S
C1264 C1263 1.396 . S
C1264 C1265 1.399 . S
C1265 H1251 0.929 . S
C1265 C1264 1.399 . S
C1265 C1266 1.385 . S
C1266 H1252 0.931 . S
C1266 C1265 1.385 . S
C1266 C1267 1.389 . S
C1267 C1266 1.389 . S
C1267 C1268 1.387 . S
C1268 H1253 0.930 . S
C1268 C1263 1.390 . S
C1268 C1267 1.387 . S
H1269 C1281 0.930 . S
H1270 C1283 0.930 . S
H1271 C1284 0.930 . S
H1272 C1288 0.959 . S
H1273 C1288 0.959 . S
H1274 C1288 0.961 . S
H1275 C1289 0.960 . S
H1276 C1289 0.961 . S
H1277 C1289 0.959 . S
H1278 C1292 0.929 . S
H1279 C1293 0.931 . S
H1280 C1295 0.930 . S
C1281 H1269 0.930 . S
C1281 C1282 1.399 . S
C1281 C1286 1.399 . S
C1282 C1281 1.399 . S
C1282 C1283 1.376 . S
C1283 H1270 0.930 . S
C1283 C1282 1.376 . S
C1283 C1284 1.388 . S
C1284 H1271 0.930 . S
C1284 C1283 1.388 . S
C1284 C1285 1.390 . S
C1285 C1284 1.390 . S
C1285 C1286 1.394 . S
C1285 C1291 1.465 . S
C1286 C1281 1.399 . S
C1286 C1285 1.394 . S
C1286 C1287 1.516 . S
C1287 C1286 1.516 . S
C1287 C1288 1.502 . S
C1287 C1289 1.561 . S
C1287 C1290 1.526 . S
C1288 H1272 0.959 . S
C1288 H1273 0.959 . S
C1288 H1274 0.961 . S
C1288 C1287 1.502 . S
C1289 H1275 0.960 . S
C1289 H1276 0.961 . S
C1289 H1277 0.959 . S
C1289 C1287 1.561 . S
C1290 C1287 1.526 . S
C1290 C1291 1.396 . S
C1290 C1295 1.390 . S
C1291 C1285 1.465 . S
C1291 C1290 1.396 . S
C1291 C1292 1.399 . S
C1292 H1278 0.929 . S
C1292 C1291 1.399 . S
C1292 C1293 1.385 . S
C1293 H1279 0.931 . S
C1293 C1292 1.385 . S
C1293 C1294 1.389 . S
C1294 C1293 1.389 . S
C1294 C1295 1.387 . S
C1295 H1280 0.930 . S
C1295 C1290 1.390 . S
C1295 C1294 1.387 . S
H1296 C1308 0.930 . S
H1297 C1310 0.930 . S
H1298 C1311 0.930 . S
H1299 C1315 0.959 . S
H1300 C1315 0.959 . S
H1301 C1315 0.961 . S
H1302 C1316 0.960 . S
H1303 C1316 0.961 . S
H1304 C1316 0.959 . S
H1305 C1319 0.929 . S
H1306 C1320 0.931 . S
H1307 C1322 0.930 . S
C1308 H1296 0.930 . S
C1308 C1309 1.399 . S
C1308 C1313 1.399 . S
C1309 C1308 1.399 . S
C1309 C1310 1.376 . S
C1310 H1297 0.930 . S
C1310 C1309 1.376 . S
C1310 C1311 1.388 . S
C1311 H1298 0.930 . S
C1311 C1310 1.388 . S
C1311 C1312 1.390 . S
C1312 C1311 1.390 . S
C1312 C1313 1.394 . S
C1312 C1318 1.465 1_545 S
C1313 C1308 1.399 . S
C1313 C1312 1.394 . S
C1313 C1314 1.516 1_545 S
C1314 C1313 1.516 1_565 S
C1314 C1315 1.502 . S
C1314 C1316 1.561 . S
C1314 C1317 1.526 . S
C1315 H1299 0.959 . S
C1315 H1300 0.959 . S
C1315 H1301 0.961 . S
C1315 C1314 1.502 . S
C1316 H1302 0.960 . S
C1316 H1303 0.961 . S
C1316 H1304 0.959 . S
C1316 C1314 1.561 . S
C1317 C1314 1.526 . S
C1317 C1318 1.396 . S
C1317 C1322 1.390 . S
C1318 C1312 1.465 1_565 S
C1318 C1317 1.396 . S
C1318 C1319 1.399 . S
C1319 H1305 0.929 . S
C1319 C1318 1.399 . S
C1319 C1320 1.385 . S
C1320 H1306 0.931 . S
C1320 C1319 1.385 . S
C1320 C1321 1.389 . S
C1321 C1320 1.389 . S
C1321 C1322 1.387 . S
C1322 H1307 0.930 . S
C1322 C1317 1.390 . S
C1322 C1321 1.387 . S
H1323 C1335 0.930 . S
H1324 C1337 0.930 . S
H1325 C1338 0.930 . S
H1326 C1342 0.959 . S
H1327 C1342 0.959 . S
H1328 C1342 0.961 . S
H1329 C1343 0.960 . S
H1330 C1343 0.961 . S
H1331 C1343 0.959 . S
H1332 C1346 0.929 . S
H1333 C1347 0.931 . S
H1334 C1349 0.930 . S
C1335 H1323 0.930 . S
C1335 C1336 1.399 . S
C1335 C1340 1.399 . S
C1336 C1335 1.399 . S
C1336 C1337 1.376 . S
C1337 H1324 0.930 . S
C1337 C1336 1.376 . S
C1337 C1338 1.388 . S
C1338 H1325 0.930 . S
C1338 C1337 1.388 . S
C1338 C1339 1.390 . S
C1339 C1338 1.390 . S
C1339 C1340 1.394 . S
C1339 C1345 1.465 . S
C1340 C1335 1.399 . S
C1340 C1339 1.394 . S
C1340 C1341 1.516 . S
C1341 C1340 1.516 . S
C1341 C1342 1.502 . S
C1341 C1343 1.561 . S
C1341 C1344 1.526 . S
C1342 H1326 0.959 . S
C1342 H1327 0.959 . S
C1342 H1328 0.961 . S
C1342 C1341 1.502 . S
C1343 H1329 0.960 . S
C1343 H1330 0.961 . S
C1343 H1331 0.959 . S
C1343 C1341 1.561 . S
C1344 C1341 1.526 . S
C1344 C1345 1.396 . S
C1344 C1349 1.390 . S
C1345 C1339 1.465 . S
C1345 C1344 1.396 . S
C1345 C1346 1.399 . S
C1346 H1332 0.929 . S
C1346 C1345 1.399 . S
C1346 C1347 1.385 . S
C1347 H1333 0.931 . S
C1347 C1346 1.385 . S
C1347 C1348 1.389 . S
C1348 C1347 1.389 . S
C1348 C1349 1.387 . S
C1349 H1334 0.930 . S
C1349 C1344 1.390 . S
C1349 C1348 1.387 . S
H1350 C1362 0.930 . S
H1351 C1364 0.930 . S
H1352 C1365 0.930 . S
H1353 C1369 0.959 . S
H1354 C1369 0.959 . S
H1355 C1369 0.961 . S
H1356 C1370 0.960 . S
H1357 C1370 0.961 . S
H1358 C1370 0.959 . S
H1359 C1373 0.929 . S
H1360 C1374 0.931 . S
H1361 C1376 0.930 . S
C1362 H1350 0.930 . S
C1362 C1363 1.399 . S
C1362 C1367 1.399 . S
C1363 C1362 1.399 . S
C1363 C1364 1.376 . S
C1364 H1351 0.930 . S
C1364 C1363 1.376 . S
C1364 C1365 1.388 . S
C1365 H1352 0.930 . S
C1365 C1364 1.388 . S
C1365 C1366 1.390 . S
C1366 C1365 1.390 . S
C1366 C1367 1.394 . S
C1366 C1372 1.465 . S
C1367 C1362 1.399 . S
C1367 C1366 1.394 . S
C1367 C1368 1.516 . S
C1368 C1367 1.516 . S
C1368 C1369 1.502 . S
C1368 C1370 1.561 . S
C1368 C1371 1.526 . S
C1369 H1353 0.959 . S
C1369 H1354 0.959 . S
C1369 H1355 0.961 . S
C1369 C1368 1.502 . S
C1370 H1356 0.960 . S
C1370 H1357 0.961 . S
C1370 H1358 0.959 . S
C1370 C1368 1.561 . S
C1371 C1368 1.526 . S
C1371 C1372 1.396 . S
C1371 C1376 1.390 . S
C1372 C1366 1.465 . S
C1372 C1371 1.396 . S
C1372 C1373 1.399 . S
C1373 H1359 0.929 . S
C1373 C1372 1.399 . S
C1373 C1374 1.385 . S
C1374 H1360 0.931 . S
C1374 C1373 1.385 . S
C1374 C1375 1.389 . S
C1375 C1374 1.389 . S
C1375 C1376 1.387 . S
C1376 H1361 0.930 . S
C1376 C1371 1.390 . S
C1376 C1375 1.387 . S
H1377 C1389 0.930 . S
H1378 C1391 0.930 . S
H1379 C1392 0.930 . S
H1380 C1396 0.959 . S
H1381 C1396 0.959 . S
H1382 C1396 0.961 . S
H1383 C1397 0.960 . S
H1384 C1397 0.961 . S
H1385 C1397 0.959 . S
H1386 C1400 0.929 . S
H1387 C1401 0.931 . S
H1388 C1403 0.930 . S
C1389 H1377 0.930 . S
C1389 C1390 1.399 . S
C1389 C1394 1.399 . S
C1390 C1389 1.399 . S
C1390 C1391 1.376 . S
C1391 H1378 0.930 . S
C1391 C1390 1.376 . S
C1391 C1392 1.388 . S
C1392 H1379 0.930 . S
C1392 C1391 1.388 . S
C1392 C1393 1.390 . S
C1393 C1392 1.390 . S
C1393 C1394 1.394 . S
C1393 C1399 1.465 . S
C1394 C1389 1.399 . S
C1394 C1393 1.394 . S
C1394 C1395 1.516 . S
C1395 C1394 1.516 . S
C1395 C1396 1.502 . S
C1395 C1397 1.561 . S
C1395 C1398 1.526 . S
C1396 H1380 0.959 . S
C1396 H1381 0.959 . S
C1396 H1382 0.961 . S
C1396 C1395 1.502 . S
C1397 H1383 0.960 . S
C1397 H1384 0.961 . S
C1397 H1385 0.959 . S
C1397 C1395 1.561 . S
C1398 C1395 1.526 . S
C1398 C1399 1.396 . S
C1398 C1403 1.390 . S
C1399 C1393 1.465 . S
C1399 C1398 1.396 . S
C1399 C1400 1.399 . S
C1400 H1386 0.929 . S
C1400 C1399 1.399 . S
C1400 C1401 1.385 . S
C1401 H1387 0.931 . S
C1401 C1400 1.385 . S
C1401 C1402 1.389 . S
C1402 C1401 1.389 . S
C1402 C1403 1.387 . S
C1403 H1388 0.930 . S
C1403 C1398 1.390 . S
C1403 C1402 1.387 . S
H1404 C1416 0.930 . S
H1405 C1418 0.930 . S
H1406 C1419 0.930 . S
H1407 C1423 0.959 . S
H1408 C1423 0.959 . S
H1409 C1423 0.961 . S
H1410 C1424 0.960 . S
H1411 C1424 0.961 . S
H1412 C1424 0.959 . S
H1413 C1427 0.929 . S
H1414 C1428 0.931 . S
H1415 C1430 0.930 . S
C1416 H1404 0.930 . S
C1416 C1417 1.399 . S
C1416 C1421 1.399 . S
C1417 C1416 1.399 . S
C1417 C1418 1.376 . S
C1418 H1405 0.930 . S
C1418 C1417 1.376 . S
C1418 C1419 1.388 . S
C1419 H1406 0.930 . S
C1419 C1418 1.388 . S
C1419 C1420 1.390 . S
C1420 C1419 1.390 . S
C1420 C1421 1.394 . S
C1420 C1426 1.465 . S
C1421 C1416 1.399 . S
C1421 C1420 1.394 . S
C1421 C1422 1.516 . S
C1422 C1421 1.516 . S
C1422 C1423 1.502 . S
C1422 C1424 1.561 . S
C1422 C1425 1.526 . S
C1423 H1407 0.959 . S
C1423 H1408 0.959 . S
C1423 H1409 0.961 . S
C1423 C1422 1.502 . S
C1424 H1410 0.960 . S
C1424 H1411 0.961 . S
C1424 H1412 0.959 . S
C1424 C1422 1.561 . S
C1425 C1422 1.526 . S
C1425 C1426 1.396 . S
C1425 C1430 1.390 . S
C1426 C1420 1.465 . S
C1426 C1425 1.396 . S
C1426 C1427 1.399 . S
C1427 H1413 0.929 . S
C1427 C1426 1.399 . S
C1427 C1428 1.385 . S
C1428 H1414 0.931 . S
C1428 C1427 1.385 . S
C1428 C1429 1.389 . S
C1429 C1428 1.389 . S
C1429 C1430 1.387 . S
C1430 H1415 0.930 . S
C1430 C1425 1.390 . S
C1430 C1429 1.387 . S
H1431 C1443 0.930 . S
H1432 C1445 0.930 . S
H1433 C1446 0.930 . S
H1434 C1450 0.959 . S
H1435 C1450 0.959 . S
H1436 C1450 0.961 . S
H1437 C1451 0.960 . S
H1438 C1451 0.961 . S
H1439 C1451 0.959 . S
H1440 C1454 0.929 . S
H1441 C1455 0.931 . S
H1442 C1457 0.930 . S
C1443 H1431 0.930 . S
C1443 C1444 1.399 . S
C1443 C1448 1.399 . S
C1444 C1443 1.399 . S
C1444 C1445 1.376 . S
C1445 H1432 0.930 . S
C1445 C1444 1.376 . S
C1445 C1446 1.388 . S
C1446 H1433 0.930 . S
C1446 C1445 1.388 . S
C1446 C1447 1.390 . S
C1447 C1446 1.390 . S
C1447 C1448 1.394 . S
C1447 C1453 1.465 . S
C1448 C1443 1.399 . S
C1448 C1447 1.394 . S
C1448 C1449 1.516 . S
C1449 C1448 1.516 . S
C1449 C1450 1.502 . S
C1449 C1451 1.561 . S
C1449 C1452 1.526 . S
C1450 H1434 0.959 . S
C1450 H1435 0.959 . S
C1450 H1436 0.961 . S
C1450 C1449 1.502 . S
C1451 H1437 0.960 . S
C1451 H1438 0.961 . S
C1451 H1439 0.959 . S
C1451 C1449 1.561 . S
C1452 C1449 1.526 . S
C1452 C1453 1.396 . S
C1452 C1457 1.390 . S
C1453 C1447 1.465 . S
C1453 C1452 1.396 . S
C1453 C1454 1.399 . S
C1454 H1440 0.929 . S
C1454 C1453 1.399 . S
C1454 C1455 1.385 . S
C1455 H1441 0.931 . S
C1455 C1454 1.385 . S
C1455 C1456 1.389 . S
C1456 C1455 1.389 . S
C1456 C1457 1.387 . S
C1457 H1442 0.930 . S
C1457 C1452 1.390 . S
C1457 C1456 1.387 . S
H1458 C1470 0.930 . S
H1459 C1472 0.930 . S
H1460 C1473 0.930 . S
H1461 C1477 0.959 . S
H1462 C1477 0.959 . S
H1463 C1477 0.961 . S
H1464 C1478 0.960 . S
H1465 C1478 0.961 . S
H1466 C1478 0.959 . S
H1467 C1481 0.929 . S
H1468 C1482 0.931 . S
H1469 C1484 0.930 . S
C1470 H1458 0.930 . S
C1470 C1471 1.399 . S
C1470 C1475 1.399 . S
C1471 C1470 1.399 . S
C1471 C1472 1.376 . S
C1472 H1459 0.930 . S
C1472 C1471 1.376 . S
C1472 C1473 1.388 . S
C1473 H1460 0.930 . S
C1473 C1472 1.388 . S
C1473 C1474 1.390 . S
C1474 C1473 1.390 . S
C1474 C1475 1.394 . S
C1474 C1480 1.465 . S
C1475 C1470 1.399 . S
C1475 C1474 1.394 . S
C1475 C1476 1.516 . S
C1476 C1475 1.516 . S
C1476 C1477 1.502 . S
C1476 C1478 1.561 . S
C1476 C1479 1.526 . S
C1477 H1461 0.959 . S
C1477 H1462 0.959 . S
C1477 H1463 0.961 . S
C1477 C1476 1.502 . S
C1478 H1464 0.960 . S
C1478 H1465 0.961 . S
C1478 H1466 0.959 . S
C1478 C1476 1.561 . S
C1479 C1476 1.526 . S
C1479 C1480 1.396 . S
C1479 C1484 1.390 . S
C1480 C1474 1.465 . S
C1480 C1479 1.396 . S
C1480 C1481 1.399 . S
C1481 H1467 0.929 . S
C1481 C1480 1.399 . S
C1481 C1482 1.385 . S
C1482 H1468 0.931 . S
C1482 C1481 1.385 . S
C1482 C1483 1.389 . S
C1483 C1482 1.389 . S
C1483 C1484 1.387 . S
C1484 H1469 0.930 . S
C1484 C1479 1.390 . S
C1484 C1483 1.387 . S
H1485 C1497 0.930 . S
H1486 C1499 0.930 . S
H1487 C1500 0.930 . S
H1488 C1504 0.959 . S
H1489 C1504 0.959 . S
H1490 C1504 0.961 . S
H1491 C1505 0.960 . S
H1492 C1505 0.961 . S
H1493 C1505 0.959 . S
H1494 C1508 0.929 . S
H1495 C1509 0.931 . S
H1496 C1511 0.930 . S
C1497 H1485 0.930 . S
C1497 C1498 1.399 . S
C1497 C1502 1.399 . S
C1498 C1497 1.399 . S
C1498 C1499 1.376 . S
C1499 H1486 0.930 . S
C1499 C1498 1.376 . S
C1499 C1500 1.388 . S
C1500 H1487 0.930 . S
C1500 C1499 1.388 . S
C1500 C1501 1.390 . S
C1501 C1500 1.390 . S
C1501 C1502 1.394 . S
C1501 C1507 1.465 1_545 S
C1502 C1497 1.399 . S
C1502 C1501 1.394 . S
C1502 C1503 1.516 1_545 S
C1503 C1502 1.516 1_565 S
C1503 C1504 1.502 . S
C1503 C1505 1.561 . S
C1503 C1506 1.526 . S
C1504 H1488 0.959 . S
C1504 H1489 0.959 . S
C1504 H1490 0.961 . S
C1504 C1503 1.502 . S
C1505 H1491 0.960 . S
C1505 H1492 0.961 . S
C1505 H1493 0.959 . S
C1505 C1503 1.561 . S
C1506 C1503 1.526 . S
C1506 C1507 1.396 . S
C1506 C1511 1.390 . S
C1507 C1501 1.465 1_565 S
C1507 C1506 1.396 . S
C1507 C1508 1.399 . S
C1508 H1494 0.929 . S
C1508 C1507 1.399 . S
C1508 C1509 1.385 . S
C1509 H1495 0.931 . S
C1509 C1508 1.385 . S
C1509 C1510 1.389 . S
C1510 C1509 1.389 . S
C1510 C1511 1.387 . S
C1511 H1496 0.930 . S
C1511 C1506 1.390 . S
C1511 C1510 1.387 . S
H1512 C1524 0.930 . S
H1513 C1526 0.930 . S
H1514 C1527 0.930 1_455 S
H1515 C1531 0.959 1_455 S
H1516 C1531 0.959 1_455 S
H1517 C1531 0.961 . S
H1518 C1532 0.960 . S
H1519 C1532 0.961 . S
H1520 C1532 0.959 . S
H1521 C1535 0.929 . S
H1522 C1536 0.931 . S
H1523 C1538 0.930 . S
C1524 H1512 0.930 . S
C1524 C1525 1.399 . S
C1524 C1529 1.399 . S
C1525 C1524 1.399 . S
C1525 C1526 1.376 . S
C1526 H1513 0.930 . S
C1526 C1525 1.376 . S
C1526 C1527 1.388 . S
C1527 H1514 0.930 1_655 S
C1527 C1526 1.388 . S
C1527 C1528 1.390 1_655 S
C1528 C1527 1.390 1_455 S
C1528 C1529 1.394 1_455 S
C1528 C1534 1.465 . S
C1529 C1524 1.399 . S
C1529 C1528 1.394 1_655 S
C1529 C1530 1.516 . S
C1530 C1529 1.516 . S
C1530 C1531 1.502 . S
C1530 C1532 1.561 . S
C1530 C1533 1.526 1_655 S
C1531 H1515 0.959 1_655 S
C1531 H1516 0.959 1_655 S
C1531 H1517 0.961 . S
C1531 C1530 1.502 . S
C1532 H1518 0.960 . S
C1532 H1519 0.961 . S
C1532 H1520 0.959 . S
C1532 C1530 1.561 . S
C1533 C1530 1.526 1_455 S
C1533 C1534 1.396 . S
C1533 C1538 1.390 . S
C1534 C1528 1.465 . S
C1534 C1533 1.396 . S
C1534 C1535 1.399 . S
C1535 H1521 0.929 . S
C1535 C1534 1.399 . S
C1535 C1536 1.385 . S
C1536 H1522 0.931 . S
C1536 C1535 1.385 . S
C1536 C1537 1.389 . S
C1537 C1536 1.389 . S
C1537 C1538 1.387 . S
C1538 H1523 0.930 . S
C1538 C1533 1.390 . S
C1538 C1537 1.387 . S
H1539 C1551 0.930 . S
H1540 C1553 0.930 . S
H1541 C1554 0.930 . S
H1542 C1558 0.959 . S
H1543 C1558 0.959 . S
H1544 C1558 0.961 . S
H1545 C1559 0.960 . S
H1546 C1559 0.961 . S
H1547 C1559 0.959 . S
H1548 C1562 0.929 . S
H1549 C1563 0.931 . S
H1550 C1565 0.930 . S
C1551 H1539 0.930 . S
C1551 C1552 1.399 . S
C1551 C1556 1.399 . S
C1552 C1551 1.399 . S
C1552 C1553 1.376 . S
C1553 H1540 0.930 . S
C1553 C1552 1.376 . S
C1553 C1554 1.388 . S
C1554 H1541 0.930 . S
C1554 C1553 1.388 . S
C1554 C1555 1.390 . S
C1555 C1554 1.390 . S
C1555 C1556 1.394 . S
C1555 C1561 1.465 . S
C1556 C1551 1.399 . S
C1556 C1555 1.394 . S
C1556 C1557 1.516 . S
C1557 C1556 1.516 . S
C1557 C1558 1.502 . S
C1557 C1559 1.561 . S
C1557 C1560 1.526 . S
C1558 H1542 0.959 . S
C1558 H1543 0.959 . S
C1558 H1544 0.961 . S
C1558 C1557 1.502 . S
C1559 H1545 0.960 . S
C1559 H1546 0.961 . S
C1559 H1547 0.959 . S
C1559 C1557 1.561 . S
C1560 C1557 1.526 . S
C1560 C1561 1.396 . S
C1560 C1565 1.390 . S
C1561 C1555 1.465 . S
C1561 C1560 1.396 . S
C1561 C1562 1.399 . S
C1562 H1548 0.929 . S
C1562 C1561 1.399 . S
C1562 C1563 1.385 . S
C1563 H1549 0.931 . S
C1563 C1562 1.385 . S
C1563 C1564 1.389 . S
C1564 C1563 1.389 . S
C1564 C1565 1.387 . S
C1565 H1550 0.930 . S
C1565 C1560 1.390 . S
C1565 C1564 1.387 . S
H1566 C1578 0.930 . S
H1567 C1580 0.930 . S
H1568 C1581 0.930 . S
H1569 C1585 0.959 . S
H1570 C1585 0.959 . S
H1571 C1585 0.961 . S
H1572 C1586 0.960 . S
H1573 C1586 0.961 . S
H1574 C1586 0.959 . S
H1575 C1589 0.929 . S
H1576 C1590 0.931 . S
H1577 C1592 0.930 . S
C1578 H1566 0.930 . S
C1578 C1579 1.399 . S
C1578 C1583 1.399 . S
C1579 C1578 1.399 . S
C1579 C1580 1.376 . S
C1580 H1567 0.930 . S
C1580 C1579 1.376 . S
C1580 C1581 1.388 . S
C1581 H1568 0.930 . S
C1581 C1580 1.388 . S
C1581 C1582 1.390 . S
C1582 C1581 1.390 . S
C1582 C1583 1.394 . S
C1582 C1588 1.465 . S
C1583 C1578 1.399 . S
C1583 C1582 1.394 . S
C1583 C1584 1.516 . S
C1584 C1583 1.516 . S
C1584 C1585 1.502 . S
C1584 C1586 1.561 . S
C1584 C1587 1.526 . S
C1585 H1569 0.959 . S
C1585 H1570 0.959 . S
C1585 H1571 0.961 . S
C1585 C1584 1.502 . S
C1586 H1572 0.960 . S
C1586 H1573 0.961 . S
C1586 H1574 0.959 . S
C1586 C1584 1.561 . S
C1587 C1584 1.526 . S
C1587 C1588 1.396 . S
C1587 C1592 1.390 . S
C1588 C1582 1.465 . S
C1588 C1587 1.396 . S
C1588 C1589 1.399 . S
C1589 H1575 0.929 . S
C1589 C1588 1.399 . S
C1589 C1590 1.385 . S
C1590 H1576 0.931 . S
C1590 C1589 1.385 . S
C1590 C1591 1.389 . S
C1591 C1590 1.389 . S
C1591 C1592 1.387 . S
C1592 H1577 0.930 . S
C1592 C1587 1.390 . S
C1592 C1591 1.387 . S
H1593 C1605 0.930 . S
H1594 C1607 0.930 . S
H1595 C1608 0.930 . S
H1596 C1612 0.959 . S
H1597 C1612 0.959 . S
H1598 C1612 0.961 . S
H1599 C1613 0.960 . S
H1600 C1613 0.961 . S
H1601 C1613 0.959 . S
H1602 C1616 0.929 . S
H1603 C1617 0.931 . S
H1604 C1619 0.930 . S
C1605 H1593 0.930 . S
C1605 C1606 1.399 . S
C1605 C1610 1.399 . S
C1606 C1605 1.399 . S
C1606 C1607 1.376 . S
C1607 H1594 0.930 . S
C1607 C1606 1.376 . S
C1607 C1608 1.388 . S
C1608 H1595 0.930 . S
C1608 C1607 1.388 . S
C1608 C1609 1.390 . S
C1609 C1608 1.390 . S
C1609 C1610 1.394 . S
C1609 C1615 1.465 . S
C1610 C1605 1.399 . S
C1610 C1609 1.394 . S
C1610 C1611 1.516 . S
C1611 C1610 1.516 . S
C1611 C1612 1.502 . S
C1611 C1613 1.561 . S
C1611 C1614 1.526 . S
C1612 H1596 0.959 . S
C1612 H1597 0.959 . S
C1612 H1598 0.961 . S
C1612 C1611 1.502 . S
C1613 H1599 0.960 . S
C1613 H1600 0.961 . S
C1613 H1601 0.959 . S
C1613 C1611 1.561 . S
C1614 C1611 1.526 . S
C1614 C1615 1.396 . S
C1614 C1619 1.390 . S
C1615 C1609 1.465 . S
C1615 C1614 1.396 . S
C1615 C1616 1.399 . S
C1616 H1602 0.929 . S
C1616 C1615 1.399 . S
C1616 C1617 1.385 . S
C1617 H1603 0.931 . S
C1617 C1616 1.385 . S
C1617 C1618 1.389 . S
C1618 C1617 1.389 . S
C1618 C1619 1.387 . S
C1619 H1604 0.930 . S
C1619 C1614 1.390 . S
C1619 C1618 1.387 . S
H1620 C1632 0.930 . S
H1621 C1634 0.930 . S
H1622 C1635 0.930 . S
H1623 C1639 0.959 . S
H1624 C1639 0.959 . S
H1625 C1639 0.961 . S
H1626 C1640 0.960 . S
H1627 C1640 0.961 . S
H1628 C1640 0.959 . S
H1629 C1643 0.929 . S
H1630 C1644 0.931 . S
H1631 C1646 0.930 . S
C1632 H1620 0.930 . S
C1632 C1633 1.399 . S
C1632 C1637 1.399 . S
C1633 C1632 1.399 . S
C1633 C1634 1.376 . S
C1634 H1621 0.930 . S
C1634 C1633 1.376 . S
C1634 C1635 1.388 . S
C1635 H1622 0.930 . S
C1635 C1634 1.388 . S
C1635 C1636 1.390 . S
C1636 C1635 1.390 . S
C1636 C1637 1.394 . S
C1636 C1642 1.465 . S
C1637 C1632 1.399 . S
C1637 C1636 1.394 . S
C1637 C1638 1.516 . S
C1638 C1637 1.516 . S
C1638 C1639 1.502 . S
C1638 C1640 1.561 . S
C1638 C1641 1.526 . S
C1639 H1623 0.959 . S
C1639 H1624 0.959 . S
C1639 H1625 0.961 . S
C1639 C1638 1.502 . S
C1640 H1626 0.960 . S
C1640 H1627 0.961 . S
C1640 H1628 0.959 . S
C1640 C1638 1.561 . S
C1641 C1638 1.526 . S
C1641 C1642 1.396 . S
C1641 C1646 1.390 . S
C1642 C1636 1.465 . S
C1642 C1641 1.396 . S
C1642 C1643 1.399 . S
C1643 H1629 0.929 . S
C1643 C1642 1.399 . S
C1643 C1644 1.385 . S
C1644 H1630 0.931 . S
C1644 C1643 1.385 . S
C1644 C1645 1.389 . S
C1645 C1644 1.389 . S
C1645 C1646 1.387 . S
C1646 H1631 0.930 . S
C1646 C1641 1.390 . S
C1646 C1645 1.387 . S
H1647 C1659 0.930 . S
H1648 C1661 0.930 . S
H1649 C1662 0.930 . S
H1650 C1666 0.959 . S
H1651 C1666 0.959 . S
H1652 C1666 0.961 . S
H1653 C1667 0.960 . S
H1654 C1667 0.961 . S
H1655 C1667 0.959 . S
H1656 C1670 0.929 . S
H1657 C1671 0.931 . S
H1658 C1673 0.930 . S
C1659 H1647 0.930 . S
C1659 C1660 1.399 . S
C1659 C1664 1.399 . S
C1660 C1659 1.399 . S
C1660 C1661 1.376 . S
C1661 H1648 0.930 . S
C1661 C1660 1.376 . S
C1661 C1662 1.388 . S
C1662 H1649 0.930 . S
C1662 C1661 1.388 . S
C1662 C1663 1.390 . S
C1663 C1662 1.390 . S
C1663 C1664 1.394 . S
C1663 C1669 1.465 1_565 S
C1664 C1659 1.399 . S
C1664 C1663 1.394 . S
C1664 C1665 1.516 1_565 S
C1665 C1664 1.516 1_545 S
C1665 C1666 1.502 . S
C1665 C1667 1.561 . S
C1665 C1668 1.526 . S
C1666 H1650 0.959 . S
C1666 H1651 0.959 . S
C1666 H1652 0.961 . S
C1666 C1665 1.502 . S
C1667 H1653 0.960 . S
C1667 H1654 0.961 . S
C1667 H1655 0.959 . S
C1667 C1665 1.561 . S
C1668 C1665 1.526 . S
C1668 C1669 1.396 . S
C1668 C1673 1.390 . S
C1669 C1663 1.465 1_545 S
C1669 C1668 1.396 . S
C1669 C1670 1.399 . S
C1670 H1656 0.929 . S
C1670 C1669 1.399 . S
C1670 C1671 1.385 . S
C1671 H1657 0.931 . S
C1671 C1670 1.385 . S
C1671 C1672 1.389 . S
C1672 C1671 1.389 . S
C1672 C1673 1.387 . S
C1673 H1658 0.930 . S
C1673 C1668 1.390 . S
C1673 C1672 1.387 . S
H1674 C1686 0.930 . S
H1675 C1688 0.930 . S
H1676 C1689 0.930 . S
H1677 C1693 0.959 . S
H1678 C1693 0.959 . S
H1679 C1693 0.961 . S
H1680 C1694 0.960 . S
H1681 C1694 0.961 . S
H1682 C1694 0.959 . S
H1683 C1697 0.929 . S
H1684 C1698 0.931 . S
H1685 C1700 0.930 . S
C1686 H1674 0.930 . S
C1686 C1687 1.399 . S
C1686 C1691 1.399 . S
C1687 C1686 1.399 . S
C1687 C1688 1.376 . S
C1688 H1675 0.930 . S
C1688 C1687 1.376 . S
C1688 C1689 1.388 . S
C1689 H1676 0.930 . S
C1689 C1688 1.388 . S
C1689 C1690 1.390 . S
C1690 C1689 1.390 . S
C1690 C1691 1.394 . S
C1690 C1696 1.465 1_455 S
C1691 C1686 1.399 . S
C1691 C1690 1.394 . S
C1691 C1692 1.516 1_455 S
C1692 C1691 1.516 1_655 S
C1692 C1693 1.502 . S
C1692 C1694 1.561 . S
C1692 C1695 1.526 . S
C1693 H1677 0.959 . S
C1693 H1678 0.959 . S
C1693 H1679 0.961 . S
C1693 C1692 1.502 . S
C1694 H1680 0.960 . S
C1694 H1681 0.961 . S
C1694 H1682 0.959 . S
C1694 C1692 1.561 . S
C1695 C1692 1.526 . S
C1695 C1696 1.396 . S
C1695 C1700 1.390 . S
C1696 C1690 1.465 1_655 S
C1696 C1695 1.396 . S
C1696 C1697 1.399 . S
C1697 H1683 0.929 . S
C1697 C1696 1.399 . S
C1697 C1698 1.385 . S
C1698 H1684 0.931 . S
C1698 C1697 1.385 . S
C1698 C1699 1.389 . S
C1699 C1698 1.389 . S
C1699 C1700 1.387 . S
C1700 H1685 0.930 . S
C1700 C1695 1.390 . S
C1700 C1699 1.387 . S
H1701 C1713 0.930 . S
H1702 C1715 0.930 . S
H1703 C1716 0.930 . S
H1704 C1720 0.959 . S
H1705 C1720 0.959 . S
H1706 C1720 0.961 . S
H1707 C1721 0.960 . S
H1708 C1721 0.961 . S
H1709 C1721 0.959 . S
H1710 C1724 0.929 . S
H1711 C1725 0.931 . S
H1712 C1727 0.930 . S
C1713 H1701 0.930 . S
C1713 C1714 1.399 . S
C1713 C1718 1.399 . S
C1714 C1713 1.399 . S
C1714 C1715 1.376 . S
C1715 H1702 0.930 . S
C1715 C1714 1.376 . S
C1715 C1716 1.388 . S
C1716 H1703 0.930 . S
C1716 C1715 1.388 . S
C1716 C1717 1.390 . S
C1717 C1716 1.390 . S
C1717 C1718 1.394 . S
C1717 C1723 1.465 . S
C1718 C1713 1.399 . S
C1718 C1717 1.394 . S
C1718 C1719 1.516 . S
C1719 C1718 1.516 . S
C1719 C1720 1.502 . S
C1719 C1721 1.561 . S
C1719 C1722 1.526 . S
C1720 H1704 0.959 . S
C1720 H1705 0.959 . S
C1720 H1706 0.961 . S
C1720 C1719 1.502 . S
C1721 H1707 0.960 . S
C1721 H1708 0.961 . S
C1721 H1709 0.959 . S
C1721 C1719 1.561 . S
C1722 C1719 1.526 . S
C1722 C1723 1.396 . S
C1722 C1727 1.390 . S
C1723 C1717 1.465 . S
C1723 C1722 1.396 . S
C1723 C1724 1.399 . S
C1724 H1710 0.929 . S
C1724 C1723 1.399 . S
C1724 C1725 1.385 . S
C1725 H1711 0.931 . S
C1725 C1724 1.385 . S
C1725 C1726 1.389 . S
C1726 C1725 1.389 . S
C1726 C1727 1.387 . S
C1727 H1712 0.930 . S
C1727 C1722 1.390 . S
C1727 C1726 1.387 . S
H1728 C1740 0.930 . S
H1729 C1742 0.930 . S
H1730 C1743 0.930 . S
H1731 C1747 0.959 . S
H1732 C1747 0.959 . S
H1733 C1747 0.961 1_455 S
H1734 C1748 0.960 . S
H1735 C1748 0.961 . S
H1736 C1748 0.959 . S
H1737 C1751 0.929 . S
H1738 C1752 0.931 . S
H1739 C1754 0.930 . S
C1740 H1728 0.930 . S
C1740 C1741 1.399 . S
C1740 C1745 1.399 . S
C1741 C1740 1.399 . S
C1741 C1742 1.376 . S
C1742 H1729 0.930 . S
C1742 C1741 1.376 . S
C1742 C1743 1.388 . S
C1743 H1730 0.930 . S
C1743 C1742 1.388 . S
C1743 C1744 1.390 . S
C1744 C1743 1.390 . S
C1744 C1745 1.394 . S
C1744 C1750 1.465 1_455 S
C1745 C1740 1.399 . S
C1745 C1744 1.394 . S
C1745 C1746 1.516 1_455 S
C1746 C1745 1.516 1_655 S
C1746 C1747 1.502 . S
C1746 C1748 1.561 1_655 S
C1746 C1749 1.526 . S
C1747 H1731 0.959 . S
C1747 H1732 0.959 . S
C1747 H1733 0.961 1_655 S
C1747 C1746 1.502 . S
C1748 H1734 0.960 . S
C1748 H1735 0.961 . S
C1748 H1736 0.959 . S
C1748 C1746 1.561 1_455 S
C1749 C1746 1.526 . S
C1749 C1750 1.396 . S
C1749 C1754 1.390 . S
C1750 C1744 1.465 1_655 S
C1750 C1749 1.396 . S
C1750 C1751 1.399 . S
C1751 H1737 0.929 . S
C1751 C1750 1.399 . S
C1751 C1752 1.385 . S
C1752 H1738 0.931 . S
C1752 C1751 1.385 . S
C1752 C1753 1.389 . S
C1753 C1752 1.389 . S
C1753 C1754 1.387 . S
C1754 H1739 0.930 . S
C1754 C1749 1.390 . S
C1754 C1753 1.387 . S
H1755 C1767 0.930 . S
H1756 C1769 0.930 . S
H1757 C1770 0.930 . S
H1758 C1774 0.959 . S
H1759 C1774 0.959 . S
H1760 C1774 0.961 . S
H1761 C1775 0.960 . S
H1762 C1775 0.961 . S
H1763 C1775 0.959 . S
H1764 C1778 0.929 . S
H1765 C1779 0.931 . S
H1766 C1781 0.930 . S
C1767 H1755 0.930 . S
C1767 C1768 1.399 . S
C1767 C1772 1.399 . S
C1768 C1767 1.399 . S
C1768 C1769 1.376 . S
C1769 H1756 0.930 . S
C1769 C1768 1.376 . S
C1769 C1770 1.388 . S
C1770 H1757 0.930 . S
C1770 C1769 1.388 . S
C1770 C1771 1.390 . S
C1771 C1770 1.390 . S
C1771 C1772 1.394 . S
C1771 C1777 1.465 . S
C1772 C1767 1.399 . S
C1772 C1771 1.394 . S
C1772 C1773 1.516 . S
C1773 C1772 1.516 . S
C1773 C1774 1.502 . S
C1773 C1775 1.561 . S
C1773 C1776 1.526 . S
C1774 H1758 0.959 . S
C1774 H1759 0.959 . S
C1774 H1760 0.961 . S
C1774 C1773 1.502 . S
C1775 H1761 0.960 . S
C1775 H1762 0.961 . S
C1775 H1763 0.959 . S
C1775 C1773 1.561 . S
C1776 C1773 1.526 . S
C1776 C1777 1.396 . S
C1776 C1781 1.390 . S
C1777 C1771 1.465 . S
C1777 C1776 1.396 . S
C1777 C1778 1.399 . S
C1778 H1764 0.929 . S
C1778 C1777 1.399 . S
C1778 C1779 1.385 . S
C1779 H1765 0.931 . S
C1779 C1778 1.385 . S
C1779 C1780 1.389 . S
C1780 C1779 1.389 . S
C1780 C1781 1.387 . S
C1781 H1766 0.930 . S
C1781 C1776 1.390 . S
C1781 C1780 1.387 . S
H1782 C1794 0.930 . S
H1783 C1796 0.930 . S
H1784 C1797 0.930 1_545 S
H1785 C1801 0.959 . S
H1786 C1801 0.959 . S
H1787 C1801 0.961 . S
H1788 C1802 0.960 . S
H1789 C1802 0.961 . S
H1790 C1802 0.959 . S
H1791 C1805 0.929 . S
H1792 C1806 0.931 . S
H1793 C1808 0.930 . S
C1794 H1782 0.930 . S
C1794 C1795 1.399 . S
C1794 C1799 1.399 . S
C1795 C1794 1.399 . S
C1795 C1796 1.376 . S
C1796 H1783 0.930 . S
C1796 C1795 1.376 . S
C1796 C1797 1.388 . S
C1797 H1784 0.930 1_565 S
C1797 C1796 1.388 . S
C1797 C1798 1.390 . S
C1798 C1797 1.390 . S
C1798 C1799 1.394 . S
C1798 C1804 1.465 1_565 S
C1799 C1794 1.399 . S
C1799 C1798 1.394 . S
C1799 C1800 1.516 . S
C1800 C1799 1.516 . S
C1800 C1801 1.502 . S
C1800 C1802 1.561 . S
C1800 C1803 1.526 1_565 S
C1801 H1785 0.959 . S
C1801 H1786 0.959 . S
C1801 H1787 0.961 . S
C1801 C1800 1.502 . S
C1802 H1788 0.960 . S
C1802 H1789 0.961 . S
C1802 H1790 0.959 . S
C1802 C1800 1.561 . S
C1803 C1800 1.526 1_545 S
C1803 C1804 1.396 . S
C1803 C1808 1.390 . S
C1804 C1798 1.465 1_545 S
C1804 C1803 1.396 . S
C1804 C1805 1.399 . S
C1805 H1791 0.929 . S
C1805 C1804 1.399 . S
C1805 C1806 1.385 . S
C1806 H1792 0.931 . S
C1806 C1805 1.385 . S
C1806 C1807 1.389 . S
C1807 C1806 1.389 . S
C1807 C1808 1.387 . S
C1808 H1793 0.930 . S
C1808 C1803 1.390 . S
C1808 C1807 1.387 . S
H1809 C1821 0.930 . S
H1810 C1823 0.930 . S
H1811 C1824 0.930 . S
H1812 C1828 0.959 . S
H1813 C1828 0.959 . S
H1814 C1828 0.961 . S
H1815 C1829 0.960 . S
H1816 C1829 0.961 . S
H1817 C1829 0.959 . S
H1818 C1832 0.929 . S
H1819 C1833 0.931 . S
H1820 C1835 0.930 . S
C1821 H1809 0.930 . S
C1821 C1822 1.399 . S
C1821 C1826 1.399 . S
C1822 C1821 1.399 . S
C1822 C1823 1.376 . S
C1823 H1810 0.930 . S
C1823 C1822 1.376 . S
C1823 C1824 1.388 . S
C1824 H1811 0.930 . S
C1824 C1823 1.388 . S
C1824 C1825 1.390 . S
C1825 C1824 1.390 . S
C1825 C1826 1.394 . S
C1825 C1831 1.465 . S
C1826 C1821 1.399 . S
C1826 C1825 1.394 . S
C1826 C1827 1.516 . S
C1827 C1826 1.516 . S
C1827 C1828 1.502 . S
C1827 C1829 1.561 . S
C1827 C1830 1.526 . S
C1828 H1812 0.959 . S
C1828 H1813 0.959 . S
C1828 H1814 0.961 . S
C1828 C1827 1.502 . S
C1829 H1815 0.960 . S
C1829 H1816 0.961 . S
C1829 H1817 0.959 . S
C1829 C1827 1.561 . S
C1830 C1827 1.526 . S
C1830 C1831 1.396 . S
C1830 C1835 1.390 . S
C1831 C1825 1.465 . S
C1831 C1830 1.396 . S
C1831 C1832 1.399 . S
C1832 H1818 0.929 . S
C1832 C1831 1.399 . S
C1832 C1833 1.385 . S
C1833 H1819 0.931 . S
C1833 C1832 1.385 . S
C1833 C1834 1.389 . S
C1834 C1833 1.389 . S
C1834 C1835 1.387 . S
C1835 H1820 0.930 . S
C1835 C1830 1.390 . S
C1835 C1834 1.387 . S
H1836 C1848 0.930 . S
H1837 C1850 0.930 . S
H1838 C1851 0.930 . S
H1839 C1855 0.959 . S
H1840 C1855 0.959 . S
H1841 C1855 0.961 . S
H1842 C1856 0.960 . S
H1843 C1856 0.961 . S
H1844 C1856 0.959 . S
H1845 C1859 0.929 . S
H1846 C1860 0.931 . S
H1847 C1862 0.930 . S
C1848 H1836 0.930 . S
C1848 C1849 1.399 . S
C1848 C1853 1.399 . S
C1849 C1848 1.399 . S
C1849 C1850 1.376 . S
C1850 H1837 0.930 . S
C1850 C1849 1.376 . S
C1850 C1851 1.388 . S
C1851 H1838 0.930 . S
C1851 C1850 1.388 . S
C1851 C1852 1.390 . S
C1852 C1851 1.390 . S
C1852 C1853 1.394 . S
C1852 C1858 1.465 . S
C1853 C1848 1.399 . S
C1853 C1852 1.394 . S
C1853 C1854 1.516 . S
C1854 C1853 1.516 . S
C1854 C1855 1.502 . S
C1854 C1856 1.561 . S
C1854 C1857 1.526 . S
C1855 H1839 0.959 . S
C1855 H1840 0.959 . S
C1855 H1841 0.961 . S
C1855 C1854 1.502 . S
C1856 H1842 0.960 . S
C1856 H1843 0.961 . S
C1856 H1844 0.959 . S
C1856 C1854 1.561 . S
C1857 C1854 1.526 . S
C1857 C1858 1.396 . S
C1857 C1862 1.390 . S
C1858 C1852 1.465 . S
C1858 C1857 1.396 . S
C1858 C1859 1.399 . S
C1859 H1845 0.929 . S
C1859 C1858 1.399 . S
C1859 C1860 1.385 . S
C1860 H1846 0.931 . S
C1860 C1859 1.385 . S
C1860 C1861 1.389 . S
C1861 C1860 1.389 . S
C1861 C1862 1.387 . S
C1862 H1847 0.930 . S
C1862 C1857 1.390 . S
C1862 C1861 1.387 . S
H1863 C1875 0.930 . S
H1864 C1877 0.930 . S
H1865 C1878 0.930 . S
H1866 C1882 0.959 . S
H1867 C1882 0.959 . S
H1868 C1882 0.961 . S
H1869 C1883 0.960 . S
H1870 C1883 0.961 . S
H1871 C1883 0.959 . S
H1872 C1886 0.929 . S
H1873 C1887 0.931 . S
H1874 C1889 0.930 . S
C1875 H1863 0.930 . S
C1875 C1876 1.399 . S
C1875 C1880 1.399 . S
C1876 C1875 1.399 . S
C1876 C1877 1.376 . S
C1877 H1864 0.930 . S
C1877 C1876 1.376 . S
C1877 C1878 1.388 . S
C1878 H1865 0.930 . S
C1878 C1877 1.388 . S
C1878 C1879 1.390 . S
C1879 C1878 1.390 . S
C1879 C1880 1.394 . S
C1879 C1885 1.465 . S
C1880 C1875 1.399 . S
C1880 C1879 1.394 . S
C1880 C1881 1.516 . S
C1881 C1880 1.516 . S
C1881 C1882 1.502 . S
C1881 C1883 1.561 . S
C1881 C1884 1.526 . S
C1882 H1866 0.959 . S
C1882 H1867 0.959 . S
C1882 H1868 0.961 . S
C1882 C1881 1.502 . S
C1883 H1869 0.960 . S
C1883 H1870 0.961 . S
C1883 H1871 0.959 . S
C1883 C1881 1.561 . S
C1884 C1881 1.526 . S
C1884 C1885 1.396 . S
C1884 C1889 1.390 . S
C1885 C1879 1.465 . S
C1885 C1884 1.396 . S
C1885 C1886 1.399 . S
C1886 H1872 0.929 . S
C1886 C1885 1.399 . S
C1886 C1887 1.385 . S
C1887 H1873 0.931 . S
C1887 C1886 1.385 . S
C1887 C1888 1.389 . S
C1888 C1887 1.389 . S
C1888 C1889 1.387 . S
C1889 H1874 0.930 . S
C1889 C1884 1.390 . S
C1889 C1888 1.387 . S
H1890 C1902 0.930 . S
H1891 C1904 0.930 . S
H1892 C1905 0.930 . S
H1893 C1909 0.959 . S
H1894 C1909 0.959 . S
H1895 C1909 0.961 . S
H1896 C1910 0.960 . S
H1897 C1910 0.961 . S
H1898 C1910 0.959 . S
H1899 C1913 0.929 1_545 S
H1900 C1914 0.931 1_545 S
H1901 C1916 0.930 . S
C1902 H1890 0.930 . S
C1902 C1903 1.399 . S
C1902 C1907 1.399 . S
C1903 C1902 1.399 . S
C1903 C1904 1.376 . S
C1904 H1891 0.930 . S
C1904 C1903 1.376 . S
C1904 C1905 1.388 . S
C1905 H1892 0.930 . S
C1905 C1904 1.388 . S
C1905 C1906 1.390 . S
C1906 C1905 1.390 . S
C1906 C1907 1.394 . S
C1906 C1912 1.465 . S
C1907 C1902 1.399 . S
C1907 C1906 1.394 . S
C1907 C1908 1.516 . S
C1908 C1907 1.516 . S
C1908 C1909 1.502 . S
C1908 C1910 1.561 . S
C1908 C1911 1.526 . S
C1909 H1893 0.959 . S
C1909 H1894 0.959 . S
C1909 H1895 0.961 . S
C1909 C1908 1.502 . S
C1910 H1896 0.960 . S
C1910 H1897 0.961 . S
C1910 H1898 0.959 . S
C1910 C1908 1.561 . S
C1911 C1908 1.526 . S
C1911 C1912 1.396 . S
C1911 C1916 1.390 . S
C1912 C1906 1.465 . S
C1912 C1911 1.396 . S
C1912 C1913 1.399 . S
C1913 H1899 0.929 1_565 S
C1913 C1912 1.399 . S
C1913 C1914 1.385 . S
C1914 H1900 0.931 1_565 S
C1914 C1913 1.385 . S
C1914 C1915 1.389 . S
C1915 C1914 1.389 . S
C1915 C1916 1.387 . S
C1916 H1901 0.930 . S
C1916 C1911 1.390 . S
C1916 C1915 1.387 . S
H1917 C1929 0.930 . S
H1918 C1931 0.930 . S
H1919 C1932 0.930 . S
H1920 C1936 0.959 . S
H1921 C1936 0.959 . S
H1922 C1936 0.961 . S
H1923 C1937 0.960 . S
H1924 C1937 0.961 . S
H1925 C1937 0.959 . S
H1926 C1940 0.929 1_655 S
H1927 C1941 0.931 1_655 S
H1928 C1943 0.930 . S
C1929 H1917 0.930 . S
C1929 C1930 1.399 . S
C1929 C1934 1.399 . S
C1930 C1929 1.399 . S
C1930 C1931 1.376 . S
C1931 H1918 0.930 . S
C1931 C1930 1.376 . S
C1931 C1932 1.388 . S
C1932 H1919 0.930 . S
C1932 C1931 1.388 . S
C1932 C1933 1.390 . S
C1933 C1932 1.390 . S
C1933 C1934 1.394 . S
C1933 C1939 1.465 . S
C1934 C1929 1.399 . S
C1934 C1933 1.394 . S
C1934 C1935 1.516 . S
C1935 C1934 1.516 . S
C1935 C1936 1.502 . S
C1935 C1937 1.561 . S
C1935 C1938 1.526 . S
C1936 H1920 0.959 . S
C1936 H1921 0.959 . S
C1936 H1922 0.961 . S
C1936 C1935 1.502 . S
C1937 H1923 0.960 . S
C1937 H1924 0.961 . S
C1937 H1925 0.959 . S
C1937 C1935 1.561 . S
C1938 C1935 1.526 . S
C1938 C1939 1.396 . S
C1938 C1943 1.390 . S
C1939 C1933 1.465 . S
C1939 C1938 1.396 . S
C1939 C1940 1.399 . S
C1940 H1926 0.929 1_455 S
C1940 C1939 1.399 . S
C1940 C1941 1.385 . S
C1941 H1927 0.931 1_455 S
C1941 C1940 1.385 . S
C1941 C1942 1.389 . S
C1942 C1941 1.389 . S
C1942 C1943 1.387 . S
C1943 H1928 0.930 . S
C1943 C1938 1.390 . S
C1943 C1942 1.387 . S
H1944 C1956 0.930 . S
H1945 C1958 0.930 . S
H1946 C1959 0.930 . S
H1947 C1963 0.959 . S
H1948 C1963 0.959 . S
H1949 C1963 0.961 . S
H1950 C1964 0.960 . S
H1951 C1964 0.961 . S
H1952 C1964 0.959 . S
H1953 C1967 0.929 . S
H1954 C1968 0.931 . S
H1955 C1970 0.930 . S
C1956 H1944 0.930 . S
C1956 C1957 1.399 . S
C1956 C1961 1.399 . S
C1957 C1956 1.399 . S
C1957 C1958 1.376 . S
C1958 H1945 0.930 . S
C1958 C1957 1.376 . S
C1958 C1959 1.388 . S
C1959 H1946 0.930 . S
C1959 C1958 1.388 . S
C1959 C1960 1.390 . S
C1960 C1959 1.390 . S
C1960 C1961 1.394 . S
C1960 C1966 1.465 . S
C1961 C1956 1.399 . S
C1961 C1960 1.394 . S
C1961 C1962 1.516 . S
C1962 C1961 1.516 . S
C1962 C1963 1.502 . S
C1962 C1964 1.561 . S
C1962 C1965 1.526 . S
C1963 H1947 0.959 . S
C1963 H1948 0.959 . S
C1963 H1949 0.961 . S
C1963 C1962 1.502 . S
C1964 H1950 0.960 . S
C1964 H1951 0.961 . S
C1964 H1952 0.959 . S
C1964 C1962 1.561 . S
C1965 C1962 1.526 . S
C1965 C1966 1.396 . S
C1965 C1970 1.390 . S
C1966 C1960 1.465 . S
C1966 C1965 1.396 . S
C1966 C1967 1.399 . S
C1967 H1953 0.929 . S
C1967 C1966 1.399 . S
C1967 C1968 1.385 . S
C1968 H1954 0.931 . S
C1968 C1967 1.385 . S
C1968 C1969 1.389 . S
C1969 C1968 1.389 . S
C1969 C1970 1.387 . S
C1970 H1955 0.930 . S
C1970 C1965 1.390 . S
C1970 C1969 1.387 . S
H1971 C1983 0.930 . S
H1972 C1985 0.930 . S
H1973 C1986 0.930 . S
H1974 C1990 0.959 1_455 S
H1975 C1990 0.959 1_455 S
H1976 C1990 0.961 . S
H1977 C1991 0.960 . S
H1978 C1991 0.961 . S
H1979 C1991 0.959 . S
H1980 C1994 0.929 . S
H1981 C1995 0.931 . S
H1982 C1997 0.930 . S
C1983 H1971 0.930 . S
C1983 C1984 1.399 . S
C1983 C1988 1.399 . S
C1984 C1983 1.399 . S
C1984 C1985 1.376 . S
C1985 H1972 0.930 . S
C1985 C1984 1.376 . S
C1985 C1986 1.388 . S
C1986 H1973 0.930 . S
C1986 C1985 1.388 . S
C1986 C1987 1.390 . S
C1987 C1986 1.390 . S
C1987 C1988 1.394 . S
C1987 C1993 1.465 . S
C1988 C1983 1.399 . S
C1988 C1987 1.394 . S
C1988 C1989 1.516 . S
C1989 C1988 1.516 . S
C1989 C1990 1.502 . S
C1989 C1991 1.561 . S
C1989 C1992 1.526 . S
C1990 H1974 0.959 1_655 S
C1990 H1975 0.959 1_655 S
C1990 H1976 0.961 . S
C1990 C1989 1.502 . S
C1991 H1977 0.960 . S
C1991 H1978 0.961 . S
C1991 H1979 0.959 . S
C1991 C1989 1.561 . S
C1992 C1989 1.526 . S
C1992 C1993 1.396 . S
C1992 C1997 1.390 . S
C1993 C1987 1.465 . S
C1993 C1992 1.396 . S
C1993 C1994 1.399 . S
C1994 H1980 0.929 . S
C1994 C1993 1.399 . S
C1994 C1995 1.385 . S
C1995 H1981 0.931 . S
C1995 C1994 1.385 . S
C1995 C1996 1.389 . S
C1996 C1995 1.389 . S
C1996 C1997 1.387 . S
C1997 H1982 0.930 . S
C1997 C1992 1.390 . S
C1997 C1996 1.387 . S
H1998 C2010 0.930 . S
H1999 C2012 0.930 . S
H2000 C2013 0.930 . S
H2001 C2017 0.959 . S
H2002 C2017 0.959 . S
H2003 C2017 0.961 . S
H2004 C2018 0.960 . S
H2005 C2018 0.961 . S
H2006 C2018 0.959 . S
H2007 C2021 0.929 . S
H2008 C2022 0.931 . S
H2009 C2024 0.930 . S
C2010 H1998 0.930 . S
C2010 C2011 1.399 . S
C2010 C2015 1.399 . S
C2011 C2010 1.399 . S
C2011 C2012 1.376 . S
C2012 H1999 0.930 . S
C2012 C2011 1.376 . S
C2012 C2013 1.388 . S
C2013 H2000 0.930 . S
C2013 C2012 1.388 . S
C2013 C2014 1.390 . S
C2014 C2013 1.390 . S
C2014 C2015 1.394 . S
C2014 C2020 1.465 . S
C2015 C2010 1.399 . S
C2015 C2014 1.394 . S
C2015 C2016 1.516 . S
C2016 C2015 1.516 . S
C2016 C2017 1.502 . S
C2016 C2018 1.561 . S
C2016 C2019 1.526 . S
C2017 H2001 0.959 . S
C2017 H2002 0.959 . S
C2017 H2003 0.961 . S
C2017 C2016 1.502 . S
C2018 H2004 0.960 . S
C2018 H2005 0.961 . S
C2018 H2006 0.959 . S
C2018 C2016 1.561 . S
C2019 C2016 1.526 . S
C2019 C2020 1.396 . S
C2019 C2024 1.390 . S
C2020 C2014 1.465 . S
C2020 C2019 1.396 . S
C2020 C2021 1.399 . S
C2021 H2007 0.929 . S
C2021 C2020 1.399 . S
C2021 C2022 1.385 . S
C2022 H2008 0.931 . S
C2022 C2021 1.385 . S
C2022 C2023 1.389 . S
C2023 C2022 1.389 . S
C2023 C2024 1.387 . S
C2024 H2009 0.930 . S
C2024 C2019 1.390 . S
C2024 C2023 1.387 . S
H2025 C2037 0.930 . S
H2026 C2039 0.930 . S
H2027 C2040 0.930 . S
H2028 C2044 0.959 . S
H2029 C2044 0.959 . S
H2030 C2044 0.961 . S
H2031 C2045 0.960 . S
H2032 C2045 0.961 . S
H2033 C2045 0.959 . S
H2034 C2048 0.929 1_565 S
H2035 C2049 0.931 1_565 S
H2036 C2051 0.930 . S
C2037 H2025 0.930 . S
C2037 C2038 1.399 . S
C2037 C2042 1.399 . S
C2038 C2037 1.399 . S
C2038 C2039 1.376 . S
C2039 H2026 0.930 . S
C2039 C2038 1.376 . S
C2039 C2040 1.388 . S
C2040 H2027 0.930 . S
C2040 C2039 1.388 . S
C2040 C2041 1.390 . S
C2041 C2040 1.390 . S
C2041 C2042 1.394 . S
C2041 C2047 1.465 . S
C2042 C2037 1.399 . S
C2042 C2041 1.394 . S
C2042 C2043 1.516 . S
C2043 C2042 1.516 . S
C2043 C2044 1.502 . S
C2043 C2045 1.561 . S
C2043 C2046 1.526 . S
C2044 H2028 0.959 . S
C2044 H2029 0.959 . S
C2044 H2030 0.961 . S
C2044 C2043 1.502 . S
C2045 H2031 0.960 . S
C2045 H2032 0.961 . S
C2045 H2033 0.959 . S
C2045 C2043 1.561 . S
C2046 C2043 1.526 . S
C2046 C2047 1.396 . S
C2046 C2051 1.390 . S
C2047 C2041 1.465 . S
C2047 C2046 1.396 . S
C2047 C2048 1.399 . S
C2048 H2034 0.929 1_545 S
C2048 C2047 1.399 . S
C2048 C2049 1.385 . S
C2049 H2035 0.931 1_545 S
C2049 C2048 1.385 . S
C2049 C2050 1.389 . S
C2050 C2049 1.389 . S
C2050 C2051 1.387 . S
C2051 H2036 0.930 . S
C2051 C2046 1.390 . S
C2051 C2050 1.387 . S
H2052 C2064 0.930 . S
H2053 C2066 0.930 . S
H2054 C2067 0.930 . S
H2055 C2071 0.959 . S
H2056 C2071 0.959 . S
H2057 C2071 0.961 . S
H2058 C2072 0.960 . S
H2059 C2072 0.961 . S
H2060 C2072 0.959 . S
H2061 C2075 0.929 . S
H2062 C2076 0.931 . S
H2063 C2078 0.930 . S
C2064 H2052 0.930 . S
C2064 C2065 1.399 . S
C2064 C2069 1.399 . S
C2065 C2064 1.399 . S
C2065 C2066 1.376 . S
C2066 H2053 0.930 . S
C2066 C2065 1.376 . S
C2066 C2067 1.388 . S
C2067 H2054 0.930 . S
C2067 C2066 1.388 . S
C2067 C2068 1.390 . S
C2068 C2067 1.390 . S
C2068 C2069 1.394 . S
C2068 C2074 1.465 . S
C2069 C2064 1.399 . S
C2069 C2068 1.394 . S
C2069 C2070 1.516 . S
C2070 C2069 1.516 . S
C2070 C2071 1.502 . S
C2070 C2072 1.561 . S
C2070 C2073 1.526 . S
C2071 H2055 0.959 . S
C2071 H2056 0.959 . S
C2071 H2057 0.961 . S
C2071 C2070 1.502 . S
C2072 H2058 0.960 . S
C2072 H2059 0.961 . S
C2072 H2060 0.959 . S
C2072 C2070 1.561 . S
C2073 C2070 1.526 . S
C2073 C2074 1.396 . S
C2073 C2078 1.390 . S
C2074 C2068 1.465 . S
C2074 C2073 1.396 . S
C2074 C2075 1.399 . S
C2075 H2061 0.929 . S
C2075 C2074 1.399 . S
C2075 C2076 1.385 . S
C2076 H2062 0.931 . S
C2076 C2075 1.385 . S
C2076 C2077 1.389 . S
C2077 C2076 1.389 . S
C2077 C2078 1.387 . S
C2078 H2063 0.930 . S
C2078 C2073 1.390 . S
C2078 C2077 1.387 . S
H2079 C2091 0.930 . S
H2080 C2093 0.930 . S
H2081 C2094 0.930 . S
H2082 C2098 0.959 . S
H2083 C2098 0.959 . S
H2084 C2098 0.961 . S
H2085 C2099 0.960 . S
H2086 C2099 0.961 . S
H2087 C2099 0.959 . S
H2088 C2102 0.929 . S
H2089 C2103 0.931 . S
H2090 C2105 0.930 . S
C2091 H2079 0.930 . S
C2091 C2092 1.399 . S
C2091 C2096 1.399 . S
C2092 C2091 1.399 . S
C2092 C2093 1.376 . S
C2093 H2080 0.930 . S
C2093 C2092 1.376 . S
C2093 C2094 1.388 . S
C2094 H2081 0.930 . S
C2094 C2093 1.388 . S
C2094 C2095 1.390 . S
C2095 C2094 1.390 . S
C2095 C2096 1.394 . S
C2095 C2101 1.465 . S
C2096 C2091 1.399 . S
C2096 C2095 1.394 . S
C2096 C2097 1.516 . S
C2097 C2096 1.516 . S
C2097 C2098 1.502 . S
C2097 C2099 1.561 . S
C2097 C2100 1.526 . S
C2098 H2082 0.959 . S
C2098 H2083 0.959 . S
C2098 H2084 0.961 . S
C2098 C2097 1.502 . S
C2099 H2085 0.960 . S
C2099 H2086 0.961 . S
C2099 H2087 0.959 . S
C2099 C2097 1.561 . S
C2100 C2097 1.526 . S
C2100 C2101 1.396 . S
C2100 C2105 1.390 . S
C2101 C2095 1.465 . S
C2101 C2100 1.396 . S
C2101 C2102 1.399 . S
C2102 H2088 0.929 . S
C2102 C2101 1.399 . S
C2102 C2103 1.385 . S
C2103 H2089 0.931 . S
C2103 C2102 1.385 . S
C2103 C2104 1.389 . S
C2104 C2103 1.389 . S
C2104 C2105 1.387 . S
C2105 H2090 0.930 . S
C2105 C2100 1.390 . S
C2105 C2104 1.387 . S
H2106 C2118 0.930 . S
H2107 C2120 0.930 . S
H2108 C2121 0.930 . S
H2109 C2125 0.959 . S
H2110 C2125 0.959 . S
H2111 C2125 0.961 . S
H2112 C2126 0.960 . S
H2113 C2126 0.961 . S
H2114 C2126 0.959 . S
H2115 C2129 0.929 . S
H2116 C2130 0.931 . S
H2117 C2132 0.930 . S
C2118 H2106 0.930 . S
C2118 C2119 1.399 . S
C2118 C2123 1.399 . S
C2119 C2118 1.399 . S
C2119 C2120 1.376 . S
C2120 H2107 0.930 . S
C2120 C2119 1.376 . S
C2120 C2121 1.388 . S
C2121 H2108 0.930 . S
C2121 C2120 1.388 . S
C2121 C2122 1.390 . S
C2122 C2121 1.390 . S
C2122 C2123 1.394 . S
C2122 C2128 1.465 . S
C2123 C2118 1.399 . S
C2123 C2122 1.394 . S
C2123 C2124 1.516 . S
C2124 C2123 1.516 . S
C2124 C2125 1.502 . S
C2124 C2126 1.561 . S
C2124 C2127 1.526 . S
C2125 H2109 0.959 . S
C2125 H2110 0.959 . S
C2125 H2111 0.961 . S
C2125 C2124 1.502 . S
C2126 H2112 0.960 . S
C2126 H2113 0.961 . S
C2126 H2114 0.959 . S
C2126 C2124 1.561 . S
C2127 C2124 1.526 . S
C2127 C2128 1.396 . S
C2127 C2132 1.390 . S
C2128 C2122 1.465 . S
C2128 C2127 1.396 . S
C2128 C2129 1.399 . S
C2129 H2115 0.929 . S
C2129 C2128 1.399 . S
C2129 C2130 1.385 . S
C2130 H2116 0.931 . S
C2130 C2129 1.385 . S
C2130 C2131 1.389 . S
C2131 C2130 1.389 . S
C2131 C2132 1.387 . S
C2132 H2117 0.930 . S
C2132 C2127 1.390 . S
C2132 C2131 1.387 . S
H2133 C2145 0.930 . S
H2134 C2147 0.930 . S
H2135 C2148 0.930 . S
H2136 C2152 0.959 . S
H2137 C2152 0.959 . S
H2138 C2152 0.961 . S
H2139 C2153 0.960 . S
H2140 C2153 0.961 . S
H2141 C2153 0.959 . S
H2142 C2156 0.929 . S
H2143 C2157 0.931 . S
H2144 C2159 0.930 . S
C2145 H2133 0.930 . S
C2145 C2146 1.399 . S
C2145 C2150 1.399 . S
C2146 C2145 1.399 . S
C2146 C2147 1.376 . S
C2147 H2134 0.930 . S
C2147 C2146 1.376 . S
C2147 C2148 1.388 . S
C2148 H2135 0.930 . S
C2148 C2147 1.388 . S
C2148 C2149 1.390 . S
C2149 C2148 1.390 . S
C2149 C2150 1.394 . S
C2149 C2155 1.465 . S
C2150 C2145 1.399 . S
C2150 C2149 1.394 . S
C2150 C2151 1.516 . S
C2151 C2150 1.516 . S
C2151 C2152 1.502 . S
C2151 C2153 1.561 . S
C2151 C2154 1.526 . S
C2152 H2136 0.959 . S
C2152 H2137 0.959 . S
C2152 H2138 0.961 . S
C2152 C2151 1.502 . S
C2153 H2139 0.960 . S
C2153 H2140 0.961 . S
C2153 H2141 0.959 . S
C2153 C2151 1.561 . S
C2154 C2151 1.526 . S
C2154 C2155 1.396 . S
C2154 C2159 1.390 . S
C2155 C2149 1.465 . S
C2155 C2154 1.396 . S
C2155 C2156 1.399 . S
C2156 H2142 0.929 . S
C2156 C2155 1.399 . S
C2156 C2157 1.385 . S
C2157 H2143 0.931 . S
C2157 C2156 1.385 . S
C2157 C2158 1.389 . S
C2158 C2157 1.389 . S
C2158 C2159 1.387 . S
C2159 H2144 0.930 . S
C2159 C2154 1.390 . S
C2159 C2158 1.387 . S
H2160 C2172 0.930 . S
H2161 C2174 0.930 . S
H2162 C2175 0.930 . S
H2163 C2179 0.959 . S
H2164 C2179 0.959 . S
H2165 C2179 0.961 . S
H2166 C2180 0.960 . S
H2167 C2180 0.961 . S
H2168 C2180 0.959 . S
H2169 C2183 0.929 . S
H2170 C2184 0.931 . S
H2171 C2186 0.930 . S
C2172 H2160 0.930 . S
C2172 C2173 1.399 . S
C2172 C2177 1.399 . S
C2173 C2172 1.399 . S
C2173 C2174 1.376 . S
C2174 H2161 0.930 . S
C2174 C2173 1.376 . S
C2174 C2175 1.388 . S
C2175 H2162 0.930 . S
C2175 C2174 1.388 . S
C2175 C2176 1.390 . S
C2176 C2175 1.390 . S
C2176 C2177 1.394 . S
C2176 C2182 1.465 . S
C2177 C2172 1.399 . S
C2177 C2176 1.394 . S
C2177 C2178 1.516 . S
C2178 C2177 1.516 . S
C2178 C2179 1.502 . S
C2178 C2180 1.561 . S
C2178 C2181 1.526 . S
C2179 H2163 0.959 . S
C2179 H2164 0.959 . S
C2179 H2165 0.961 . S
C2179 C2178 1.502 . S
C2180 H2166 0.960 . S
C2180 H2167 0.961 . S
C2180 H2168 0.959 . S
C2180 C2178 1.561 . S
C2181 C2178 1.526 . S
C2181 C2182 1.396 . S
C2181 C2186 1.390 . S
C2182 C2176 1.465 . S
C2182 C2181 1.396 . S
C2182 C2183 1.399 . S
C2183 H2169 0.929 . S
C2183 C2182 1.399 . S
C2183 C2184 1.385 . S
C2184 H2170 0.931 . S
C2184 C2183 1.385 . S
C2184 C2185 1.389 . S
C2185 C2184 1.389 . S
C2185 C2186 1.387 . S
C2186 H2171 0.930 . S
C2186 C2181 1.390 . S
C2186 C2185 1.387 . S
H2187 C2199 0.930 . S
H2188 C2201 0.930 . S
H2189 C2202 0.930 . S
H2190 C2206 0.959 . S
H2191 C2206 0.959 . S
H2192 C2206 0.961 . S
H2193 C2207 0.960 . S
H2194 C2207 0.961 . S
H2195 C2207 0.959 . S
H2196 C2210 0.929 . S
H2197 C2211 0.931 . S
H2198 C2213 0.930 . S
C2199 H2187 0.930 . S
C2199 C2200 1.399 . S
C2199 C2204 1.399 . S
C2200 C2199 1.399 . S
C2200 C2201 1.376 . S
C2201 H2188 0.930 . S
C2201 C2200 1.376 . S
C2201 C2202 1.388 . S
C2202 H2189 0.930 . S
C2202 C2201 1.388 . S
C2202 C2203 1.390 . S
C2203 C2202 1.390 . S
C2203 C2204 1.394 . S
C2203 C2209 1.465 . S
C2204 C2199 1.399 . S
C2204 C2203 1.394 . S
C2204 C2205 1.516 . S
C2205 C2204 1.516 . S
C2205 C2206 1.502 . S
C2205 C2207 1.561 . S
C2205 C2208 1.526 . S
C2206 H2190 0.959 . S
C2206 H2191 0.959 . S
C2206 H2192 0.961 . S
C2206 C2205 1.502 . S
C2207 H2193 0.960 . S
C2207 H2194 0.961 . S
C2207 H2195 0.959 . S
C2207 C2205 1.561 . S
C2208 C2205 1.526 . S
C2208 C2209 1.396 . S
C2208 C2213 1.390 . S
C2209 C2203 1.465 . S
C2209 C2208 1.396 . S
C2209 C2210 1.399 . S
C2210 H2196 0.929 . S
C2210 C2209 1.399 . S
C2210 C2211 1.385 . S
C2211 H2197 0.931 . S
C2211 C2210 1.385 . S
C2211 C2212 1.389 . S
C2212 C2211 1.389 . S
C2212 C2213 1.387 . S
C2213 H2198 0.930 . S
C2213 C2208 1.390 . S
C2213 C2212 1.387 . S
H2214 C2226 0.930 . S
H2215 C2228 0.930 . S
H2216 C2229 0.930 . S
H2217 C2233 0.959 . S
H2218 C2233 0.959 . S
H2219 C2233 0.961 . S
H2220 C2234 0.960 . S
H2221 C2234 0.961 . S
H2222 C2234 0.959 . S
H2223 C2237 0.929 . S
H2224 C2238 0.931 . S
H2225 C2240 0.930 . S
C2226 H2214 0.930 . S
C2226 C2227 1.399 . S
C2226 C2231 1.399 . S
C2227 C2226 1.399 . S
C2227 C2228 1.376 . S
C2228 H2215 0.930 . S
C2228 C2227 1.376 . S
C2228 C2229 1.388 . S
C2229 H2216 0.930 . S
C2229 C2228 1.388 . S
C2229 C2230 1.390 . S
C2230 C2229 1.390 . S
C2230 C2231 1.394 . S
C2230 C2236 1.465 . S
C2231 C2226 1.399 . S
C2231 C2230 1.394 . S
C2231 C2232 1.516 . S
C2232 C2231 1.516 . S
C2232 C2233 1.502 . S
C2232 C2234 1.561 . S
C2232 C2235 1.526 . S
C2233 H2217 0.959 . S
C2233 H2218 0.959 . S
C2233 H2219 0.961 . S
C2233 C2232 1.502 . S
C2234 H2220 0.960 . S
C2234 H2221 0.961 . S
C2234 H2222 0.959 . S
C2234 C2232 1.561 . S
C2235 C2232 1.526 . S
C2235 C2236 1.396 . S
C2235 C2240 1.390 . S
C2236 C2230 1.465 . S
C2236 C2235 1.396 . S
C2236 C2237 1.399 . S
C2237 H2223 0.929 . S
C2237 C2236 1.399 . S
C2237 C2238 1.385 . S
C2238 H2224 0.931 . S
C2238 C2237 1.385 . S
C2238 C2239 1.389 . S
C2239 C2238 1.389 . S
C2239 C2240 1.387 . S
C2240 H2225 0.930 . S
C2240 C2235 1.390 . S
C2240 C2239 1.387 . S
H2241 C2253 0.930 . S
H2242 C2255 0.930 . S
H2243 C2256 0.930 . S
H2244 C2260 0.959 . S
H2245 C2260 0.959 . S
H2246 C2260 0.961 . S
H2247 C2261 0.960 . S
H2248 C2261 0.961 . S
H2249 C2261 0.959 . S
H2250 C2264 0.929 . S
H2251 C2265 0.931 . S
H2252 C2267 0.930 . S
C2253 H2241 0.930 . S
C2253 C2254 1.399 . S
C2253 C2258 1.399 . S
C2254 C2253 1.399 . S
C2254 C2255 1.376 . S
C2255 H2242 0.930 . S
C2255 C2254 1.376 . S
C2255 C2256 1.388 . S
C2256 H2243 0.930 . S
C2256 C2255 1.388 . S
C2256 C2257 1.390 . S
C2257 C2256 1.390 . S
C2257 C2258 1.394 . S
C2257 C2263 1.465 . S
C2258 C2253 1.399 . S
C2258 C2257 1.394 . S
C2258 C2259 1.516 . S
C2259 C2258 1.516 . S
C2259 C2260 1.502 . S
C2259 C2261 1.561 . S
C2259 C2262 1.526 . S
C2260 H2244 0.959 . S
C2260 H2245 0.959 . S
C2260 H2246 0.961 . S
C2260 C2259 1.502 . S
C2261 H2247 0.960 . S
C2261 H2248 0.961 . S
C2261 H2249 0.959 . S
C2261 C2259 1.561 . S
C2262 C2259 1.526 . S
C2262 C2263 1.396 . S
C2262 C2267 1.390 . S
C2263 C2257 1.465 . S
C2263 C2262 1.396 . S
C2263 C2264 1.399 . S
C2264 H2250 0.929 . S
C2264 C2263 1.399 . S
C2264 C2265 1.385 . S
C2265 H2251 0.931 . S
C2265 C2264 1.385 . S
C2265 C2266 1.389 . S
C2266 C2265 1.389 . S
C2266 C2267 1.387 . S
C2267 H2252 0.930 . S
C2267 C2262 1.390 . S
C2267 C2266 1.387 . S
H2268 C2280 0.930 . S
H2269 C2282 0.930 . S
H2270 C2283 0.930 . S
H2271 C2287 0.959 . S
H2272 C2287 0.959 . S
H2273 C2287 0.961 . S
H2274 C2288 0.960 . S
H2275 C2288 0.961 . S
H2276 C2288 0.959 . S
H2277 C2291 0.929 . S
H2278 C2292 0.931 . S
H2279 C2294 0.930 . S
C2280 H2268 0.930 . S
C2280 C2281 1.399 . S
C2280 C2285 1.399 . S
C2281 C2280 1.399 . S
C2281 C2282 1.376 . S
C2282 H2269 0.930 . S
C2282 C2281 1.376 . S
C2282 C2283 1.388 . S
C2283 H2270 0.930 . S
C2283 C2282 1.388 . S
C2283 C2284 1.390 . S
C2284 C2283 1.390 . S
C2284 C2285 1.394 . S
C2284 C2290 1.465 . S
C2285 C2280 1.399 . S
C2285 C2284 1.394 . S
C2285 C2286 1.516 . S
C2286 C2285 1.516 . S
C2286 C2287 1.502 . S
C2286 C2288 1.561 . S
C2286 C2289 1.526 . S
C2287 H2271 0.959 . S
C2287 H2272 0.959 . S
C2287 H2273 0.961 . S
C2287 C2286 1.502 . S
C2288 H2274 0.960 . S
C2288 H2275 0.961 . S
C2288 H2276 0.959 . S
C2288 C2286 1.561 . S
C2289 C2286 1.526 . S
C2289 C2290 1.396 . S
C2289 C2294 1.390 . S
C2290 C2284 1.465 . S
C2290 C2289 1.396 . S
C2290 C2291 1.399 . S
C2291 H2277 0.929 . S
C2291 C2290 1.399 . S
C2291 C2292 1.385 . S
C2292 H2278 0.931 . S
C2292 C2291 1.385 . S
C2292 C2293 1.389 . S
C2293 C2292 1.389 . S
C2293 C2294 1.387 . S
C2294 H2279 0.930 . S
C2294 C2289 1.390 . S
C2294 C2293 1.387 . S
H2295 C2307 0.930 . S
H2296 C2309 0.930 . S
H2297 C2310 0.930 . S
H2298 C2314 0.959 . S
H2299 C2314 0.959 . S
H2300 C2314 0.961 . S
H2301 C2315 0.960 . S
H2302 C2315 0.961 . S
H2303 C2315 0.959 . S
H2304 C2318 0.929 . S
H2305 C2319 0.931 . S
H2306 C2321 0.930 . S
C2307 H2295 0.930 . S
C2307 C2308 1.399 . S
C2307 C2312 1.399 . S
C2308 C2307 1.399 . S
C2308 C2309 1.376 . S
C2309 H2296 0.930 . S
C2309 C2308 1.376 . S
C2309 C2310 1.388 . S
C2310 H2297 0.930 . S
C2310 C2309 1.388 . S
C2310 C2311 1.390 . S
C2311 C2310 1.390 . S
C2311 C2312 1.394 . S
C2311 C2317 1.465 . S
C2312 C2307 1.399 . S
C2312 C2311 1.394 . S
C2312 C2313 1.516 . S
C2313 C2312 1.516 . S
C2313 C2314 1.502 . S
C2313 C2315 1.561 . S
C2313 C2316 1.526 . S
C2314 H2298 0.959 . S
C2314 H2299 0.959 . S
C2314 H2300 0.961 . S
C2314 C2313 1.502 . S
C2315 H2301 0.960 . S
C2315 H2302 0.961 . S
C2315 H2303 0.959 . S
C2315 C2313 1.561 . S
C2316 C2313 1.526 . S
C2316 C2317 1.396 . S
C2316 C2321 1.390 . S
C2317 C2311 1.465 . S
C2317 C2316 1.396 . S
C2317 C2318 1.399 . S
C2318 H2304 0.929 . S
C2318 C2317 1.399 . S
C2318 C2319 1.385 . S
C2319 H2305 0.931 . S
C2319 C2318 1.385 . S
C2319 C2320 1.389 . S
C2320 C2319 1.389 . S
C2320 C2321 1.387 . S
C2321 H2306 0.930 . S
C2321 C2316 1.390 . S
C2321 C2320 1.387 . S
H2322 C2334 0.930 . S
H2323 C2336 0.930 . S
H2324 C2337 0.930 . S
H2325 C2341 0.959 . S
H2326 C2341 0.959 . S
H2327 C2341 0.961 . S
H2328 C2342 0.960 . S
H2329 C2342 0.961 . S
H2330 C2342 0.959 . S
H2331 C2345 0.929 . S
H2332 C2346 0.931 . S
H2333 C2348 0.930 . S
C2334 H2322 0.930 . S
C2334 C2335 1.399 . S
C2334 C2339 1.399 . S
C2335 C2334 1.399 . S
C2335 C2336 1.376 . S
C2336 H2323 0.930 . S
C2336 C2335 1.376 . S
C2336 C2337 1.388 . S
C2337 H2324 0.930 . S
C2337 C2336 1.388 . S
C2337 C2338 1.390 . S
C2338 C2337 1.390 . S
C2338 C2339 1.394 . S
C2338 C2344 1.465 . S
C2339 C2334 1.399 . S
C2339 C2338 1.394 . S
C2339 C2340 1.516 . S
C2340 C2339 1.516 . S
C2340 C2341 1.502 . S
C2340 C2342 1.561 . S
C2340 C2343 1.526 . S
C2341 H2325 0.959 . S
C2341 H2326 0.959 . S
C2341 H2327 0.961 . S
C2341 C2340 1.502 . S
C2342 H2328 0.960 . S
C2342 H2329 0.961 . S
C2342 H2330 0.959 . S
C2342 C2340 1.561 . S
C2343 C2340 1.526 . S
C2343 C2344 1.396 . S
C2343 C2348 1.390 . S
C2344 C2338 1.465 . S
C2344 C2343 1.396 . S
C2344 C2345 1.399 . S
C2345 H2331 0.929 . S
C2345 C2344 1.399 . S
C2345 C2346 1.385 . S
C2346 H2332 0.931 . S
C2346 C2345 1.385 . S
C2346 C2347 1.389 . S
C2347 C2346 1.389 . S
C2347 C2348 1.387 . S
C2348 H2333 0.930 . S
C2348 C2343 1.390 . S
C2348 C2347 1.387 . S
H2349 C2361 0.930 . S
H2350 C2363 0.930 . S
H2351 C2364 0.930 . S
H2352 C2368 0.959 . S
H2353 C2368 0.959 . S
H2354 C2368 0.961 . S
H2355 C2369 0.960 . S
H2356 C2369 0.961 . S
H2357 C2369 0.959 . S
H2358 C2372 0.929 . S
H2359 C2373 0.931 . S
H2360 C2375 0.930 . S
C2361 H2349 0.930 . S
C2361 C2362 1.399 . S
C2361 C2366 1.399 . S
C2362 C2361 1.399 . S
C2362 C2363 1.376 . S
C2363 H2350 0.930 . S
C2363 C2362 1.376 . S
C2363 C2364 1.388 . S
C2364 H2351 0.930 . S
C2364 C2363 1.388 . S
C2364 C2365 1.390 . S
C2365 C2364 1.390 . S
C2365 C2366 1.394 . S
C2365 C2371 1.465 . S
C2366 C2361 1.399 . S
C2366 C2365 1.394 . S
C2366 C2367 1.516 . S
C2367 C2366 1.516 . S
C2367 C2368 1.502 . S
C2367 C2369 1.561 . S
C2367 C2370 1.526 . S
C2368 H2352 0.959 . S
C2368 H2353 0.959 . S
C2368 H2354 0.961 . S
C2368 C2367 1.502 . S
C2369 H2355 0.960 . S
C2369 H2356 0.961 . S
C2369 H2357 0.959 . S
C2369 C2367 1.561 . S
C2370 C2367 1.526 . S
C2370 C2371 1.396 . S
C2370 C2375 1.390 . S
C2371 C2365 1.465 . S
C2371 C2370 1.396 . S
C2371 C2372 1.399 . S
C2372 H2358 0.929 . S
C2372 C2371 1.399 . S
C2372 C2373 1.385 . S
C2373 H2359 0.931 . S
C2373 C2372 1.385 . S
C2373 C2374 1.389 . S
C2374 C2373 1.389 . S
C2374 C2375 1.387 . S
C2375 H2360 0.930 . S
C2375 C2370 1.390 . S
C2375 C2374 1.387 . S
C931 C124 1.417 . S
C943 C218 1.377 . S
C958 C130 1.483 . S
C970 C302 1.418 . S
C985 C115 1.450 . S
C997 C396 1.436 . S
C1012 C106 1.442 . S
C1024 C312 1.364 . S
C1051 C386 1.368 . S
C1039 C85 1.432 . S
C1066 C97 1.387 . S
C1078 C228 1.384 . S
C1105 C229 1.330 . S
C1093 C103 1.444 . S
C1132 C313 1.350 . S
C1120 C88 1.456 . S
C1147 C94 1.467 . S
C1159 C405 1.385 . S
C1174 C121 1.424 . S
C1186 C321 1.404 . S
C1201 C133 1.394 . S
C1213 C397 1.350 . S
C1240 C237 1.398 . S
C1228 C112 1.419 . S
C1267 C470 1.302 . S
C1255 C16 1.432 . S
C1282 C22 1.467 . S
C1294 C554 1.415 . S
C1309 C7 1.467 . S
C1321 C648 1.394 . S
C1336 C160 1.435 . S
C1348 C564 1.392 . S
C1363 C139 1.426 . S
C1375 C638 1.390 . S
C1390 C151 1.394 . S
C1402 C480 1.367 . S
C1417 C157 1.440 . S
C1429 C481 1.362 . S
C1444 C142 1.443 . S
C1456 C565 1.389 . S
C1483 C657 1.448 . S
C1471 C148 1.443 . S
C1498 C13 1.439 . S
C1510 C573 1.363 . S
C1537 C649 1.343 . S
C1525 C25 1.393 . S
C1552 C4 1.405 . S
C1564 C489 1.415 . S
C1591 C722 1.324 . S
C1579 C70 1.436 . S
C1606 C76 1.485 . S
C1618 C806 1.387 . S
C1645 C900 1.421 . S
C1633 C61 1.456 . S
C1672 C816 1.388 . S
C1660 C52 1.436 . S
C1699 C890 1.390 . S
C1687 C31 1.426 . S
C1714 C43 1.400 . S
C1726 C732 1.343 . S
C1741 C49 1.445 . S
C1753 C733 1.411 . S
C1768 C34 1.441 . S
C1780 C817 1.371 . S
C1807 C909 1.449 . S
C1795 C40 1.442 . S
C1822 C67 1.421 . S
C1834 C825 1.428 . S
C1849 C79 1.402 . S
C1861 C901 1.375 . S
C1876 C58 1.431 . S
C1888 C741 1.347 . S
C1903 C140 1.474 . S
C1915 C225 1.304 . S
C1942 C309 1.310 . S
C1930 C149 1.497 . S
C1957 C158 1.498 . S
C1969 C402 1.426 . S
C1984 C59 1.514 . S
C1996 C318 1.423 . S
C2011 C68 1.480 . S
C2023 C393 1.381 . S
C2050 C234 1.311 . S
C2038 C77 1.475 . S
C2065 C32 1.474 . S
C2077 C477 1.304 . S
C2092 C41 1.500 . S
C2104 C561 1.405 . S
C2119 C50 1.498 . S
C2131 C654 1.424 . S
C2146 C113 1.517 . S
C2158 C570 1.320 . S
C2185 C645 1.338 . S
C2173 C122 1.479 . S
C2200 C131 1.473 . S
C2212 C486 1.380 . S
C2227 C86 1.474 . S
C2239 C729 1.415 . S
C2254 C95 1.500 . S
C2266 C813 1.396 . S
C2293 C906 1.420 . S
C2281 C104 1.497 . S
C2308 C5 1.515 . S
C2320 C822 1.400 . S
C2335 C14 1.480 . S
C2347 C897 1.334 . S
C2362 C23 1.475 . S
C2374 C738 1.320 . S
