# Generated by pormake.
# Topology rtl, (3,6)-cn, num edge types: 1
# Building blocks:
#     Node 0, Type 0, BuildingBlock: BELTOD_clean_linker_0, # of connection points: 3
#     Node 1, Type 0, BuildingBlock: BELTOD_clean_linker_0, # of connection points: 3
#     Node 2, Type 0, BuildingBlock: BELTOD_clean_linker_0, # of connection points: 3
#     Node 3, Type 0, BuildingBlock: BELTOD_clean_linker_0, # of connection points: 3
#     Node 4, Type 1, BuildingBlock: KUMBUR_clean_sbu_1, # of connection points: 6
#     Node 5, Type 1, BuildingBlock: KUMBUR_clean_sbu_1, # of connection points: 6
#     Edge 6, Type (0, 1), BuildingBlock: AJUNOK_clean_linker_0, # of connection points: 2
#     Edge 7, Type (0, 1), BuildingBlock: AJUNOK_clean_linker_0, # of connection points: 2
#     Edge 8, Type (0, 1), BuildingBlock: AJUNOK_clean_linker_0, # of connection points: 2
#     Edge 9, Type (0, 1), BuildingBlock: AJUNOK_clean_linker_0, # of connection points: 2
#     Edge 10, Type (0, 1), BuildingBlock: AJUNOK_clean_linker_0, # of connection points: 2
#     Edge 11, Type (0, 1), BuildingBlock: AJUNOK_clean_linker_0, # of connection points: 2
#     Edge 12, Type (0, 1), BuildingBlock: AJUNOK_clean_linker_0, # of connection points: 2
#     Edge 13, Type (0, 1), BuildingBlock: AJUNOK_clean_linker_0, # of connection points: 2
#     Edge 14, Type (0, 1), BuildingBlock: AJUNOK_clean_linker_0, # of connection points: 2
#     Edge 15, Type (0, 1), BuildingBlock: AJUNOK_clean_linker_0, # of connection points: 2
#     Edge 16, Type (0, 1), BuildingBlock: AJUNOK_clean_linker_0, # of connection points: 2
#     Edge 17, Type (0, 1), BuildingBlock: AJUNOK_clean_linker_0, # of connection points: 2
# Relax obj value: 0.020
# Max RMSD: 0.118
# Mean RMSD: 0.073
data_MOF--net-rtl--node1-KUMBUR_clean_sbu_1--node2-BELTOD_clean_linker_0--edge1-AJUNOK_clean_linker_0
_symmetry_space_group_name_H-M    P1
_symmetry_Int_Tables_number       1
_symmetry_cell_setting            triclinic
loop_
_symmetry_equiv_pos_as_xyz
'x, y, z'
_cell_length_a     28.718946
_cell_length_b     29.491704
_cell_length_c     25.916113
_cell_angle_alpha  75.630745
_cell_angle_beta   99.566574
_cell_angle_gamma 90.828118
loop_
_atom_site_label
_atom_site_type_symbol
_atom_site_fract_x
_atom_site_fract_y
_atom_site_fract_z
_atom_type_partial_charge
P0 P 0.26666 0.87769 0.01918 0.0
H1 H 0.25333 0.81343 0.12394 0.0
H2 H 0.20847 0.82279 0.19357 0.0
H3 H 0.16483 0.96257 0.09987 0.0
H4 H 0.2093 0.95306 0.03044 0.0
H5 H 0.36314 0.85436 0.01165 0.0
H6 H 0.40273 0.78109 0.01357 0.0
H7 H 0.27623 0.70613 0.04504 0.0
H8 H 0.2359 0.78019 0.04167 0.0
H9 H 0.28625 0.90184 0.90952 0.0
H10 H 0.16326 0.87587 0.98697 0.0
O11 O 0.30634 0.91978 0.01591 0.0
H12 H 0.23544 0.91927 0.82091 0.0
H13 H 0.11228 0.89573 0.89882 0.0
C14 C 0.23406 0.88235 0.07153 0.0
C15 C 0.2338 0.84588 0.11805 0.0
C16 C 0.20832 0.8513 0.15794 0.0
C17 C 0.18358 0.89355 0.15226 0.0
C18 C 0.18421 0.92994 0.10573 0.0
C19 C 0.20934 0.9244 0.06591 0.0
C20 C 0.29696 0.82254 0.02815 0.0
C21 C 0.34392 0.82222 0.0197 0.0
C22 C 0.36643 0.78045 0.0202 0.0
C23 C 0.34235 0.73824 0.02918 0.0
C24 C 0.29545 0.73836 0.03819 0.0
C25 C 0.27263 0.78044 0.03678 0.0
C26 C 0.2285 0.88879 0.95471 0.0
C27 C 0.24829 0.90017 0.90741 0.0
C28 C 0.21925 0.91018 0.85688 0.0
C29 C 0.16984 0.909 0.85285 0.0
C30 C 0.1502 0.89625 0.90048 0.0
C31 C 0.17935 0.88563 0.95101 0.0
P32 P 0.7546 0.64364 0.6841 0.0
H33 H 0.78793 0.59116 0.61489 0.0
H34 H 0.74991 0.56827 0.53419 0.0
H35 H 0.6229 0.64489 0.53447 0.0
H36 H 0.66087 0.66632 0.61693 0.0
H37 H 0.83842 0.68031 0.73781 0.0
H38 H 0.88202 0.75182 0.71274 0.0
H39 H 0.7735 0.8036 0.57406 0.0
H40 H 0.73044 0.73112 0.5987 0.0
H41 H 0.68769 0.57157 0.71288 0.0
H42 H 0.73337 0.69717 0.76097 0.0
O43 O 0.79801 0.60387 0.713 0.0
H44 H 0.64052 0.55242 0.78515 0.0
H45 H 0.6855 0.67794 0.83386 0.0
C46 C 0.727 0.62992 0.62225 0.0
C47 C 0.75195 0.60319 0.5976 0.0
C48 C 0.73033 0.59057 0.55099 0.0
C49 C 0.68354 0.60526 0.52747 0.0
C50 C 0.65892 0.63294 0.55173 0.0
C51 C 0.68056 0.64527 0.5987 0.0
C52 C 0.78144 0.7001 0.66988 0.0
C53 C 0.82363 0.70724 0.70238 0.0
C54 C 0.84842 0.74833 0.68815 0.0
C55 C 0.83112 0.78351 0.64149 0.0
C56 C 0.78786 0.77698 0.61001 0.0
C57 C 0.7631 0.73567 0.62426 0.0
C58 C 0.71346 0.63616 0.73092 0.0
C59 C 0.6867 0.59565 0.73819 0.0
C60 C 0.66001 0.58453 0.77972 0.0
C61 C 0.65968 0.6136 0.8151 0.0
C62 C 0.68511 0.65515 0.80684 0.0
C63 C 0.7123 0.66614 0.76522 0.0
P64 P 0.86332 0.2368 0.0793 0.0
H65 H 0.84065 0.29081 0.96816 0.0
H66 H 0.84989 0.27474 0.88216 0.0
H67 H 0.89534 0.13273 0.96553 0.0
H68 H 0.88621 0.14899 0.05151 0.0
H69 H 0.84003 0.31 0.12895 0.0
H70 H 0.76587 0.3499 0.12847 0.0
H71 H 0.69003 0.26114 0.03526 0.0
H72 H 0.76478 0.22192 0.0349 0.0
H73 H 0.95086 0.18272 0.12367 0.0
H74 H 0.81162 0.18592 0.16483 0.0
O75 O 0.90484 0.27666 0.08236 0.0
H76 H 0.97788 0.12644 0.21016 0.0
H77 H 0.83894 0.13081 0.252 0.0
C78 C 0.86284 0.22122 0.01624 0.0
C79 C 0.85192 0.25599 0.96784 0.0
C80 C 0.85721 0.2468 0.91875 0.0
C81 C 0.87398 0.20269 0.91727 0.0
C82 C 0.88324 0.16732 0.96565 0.0
C83 C 0.87776 0.17653 0.0148 0.0
C84 C 0.80795 0.26405 0.08057 0.0
C85 C 0.80748 0.29923 0.10821 0.0
C86 C 0.76505 0.32169 0.10837 0.0
C87 C 0.72227 0.30908 0.08118 0.0
C88 C 0.72262 0.27229 0.0555 0.0
C89 C 0.76521 0.24986 0.05531 0.0
C90 C 0.87946 0.18889 0.13803 0.0
C91 C 0.92595 0.1708 0.15096 0.0
C92 C 0.94139 0.13889 0.20042 0.0
C93 C 0.91068 0.12503 0.23807 0.0
C94 C 0.8633 0.14094 0.22366 0.0
C95 C 0.84776 0.17268 0.17392 0.0
P96 P 0.35874 0.28682 0.48612 0.0
H97 H 0.43101 0.32478 0.55622 0.0
H98 H 0.42622 0.36838 0.62425 0.0
H99 H 0.27433 0.37799 0.57909 0.0
H100 H 0.27945 0.33525 0.51034 0.0
H101 H 0.33327 0.21584 0.57472 0.0
H102 H 0.26457 0.16678 0.58559 0.0
H103 H 0.20339 0.22789 0.41925 0.0
H104 H 0.27281 0.27721 0.40847 0.0
H105 H 0.36055 0.38659 0.42803 0.0
H106 H 0.37598 0.25164 0.39547 0.0
O107 O 0.40647 0.25198 0.51281 0.0
H108 H 0.38495 0.4247 0.34166 0.0
H109 H 0.40031 0.28965 0.30903 0.0
C110 C 0.35555 0.32611 0.52889 0.0
C111 C 0.39675 0.33693 0.56034 0.0
C112 C 0.39396 0.36167 0.59935 0.0
C113 C 0.34989 0.37638 0.60727 0.0
C114 C 0.30883 0.36761 0.57361 0.0
C115 C 0.31169 0.34291 0.53451 0.0
C116 C 0.30839 0.24968 0.49067 0.0
C117 C 0.30522 0.21855 0.54043 0.0
C118 C 0.26574 0.19089 0.54679 0.0
C119 C 0.22837 0.19396 0.50348 0.0
C120 C 0.23172 0.22491 0.4533 0.0
C121 C 0.27134 0.25295 0.44706 0.0
C122 C 0.36647 0.3162 0.41823 0.0
C123 C 0.36823 0.36518 0.40191 0.0
C124 C 0.38223 0.38696 0.35255 0.0
C125 C 0.39522 0.36006 0.31907 0.0
C126 C 0.39125 0.31118 0.33444 0.0
C127 C 0.37698 0.28949 0.38356 0.0
Tb128 Tb 0.04836 0.95777 0.52757 0.0
C129 C 0.90739 0.1145 0.47936 0.0
N130 N 0.95125 0.11345 0.5089 0.0
C131 C 0.96632 0.18873 0.45393 0.0
C132 C 0.89198 0.15184 0.43417 0.0
C133 C 0.98026 0.15056 0.49808 0.0
C134 C 0.92227 0.18908 0.42135 0.0
C135 C 0.83242 0.07718 0.46538 0.0
C136 C 0.87845 0.07742 0.49446 0.0
C137 C 0.81715 0.11358 0.41924 0.0
C138 C 0.84692 0.15082 0.40361 0.0
Tb139 Tb 0.97191 0.04836 0.57807 0.0
N140 N 0.89476 0.0427 0.53904 0.0
C141 C 0.80275 0.04109 0.48444 0.0
C142 C 0.86439 0.00994 0.56037 0.0
C143 C 0.81851 0.00789 0.53279 0.0
H144 H 0.01426 0.15049 0.52319 0.0
H145 H 0.79509 0.98113 0.54932 0.0
H146 H 0.985 0.86203 0.52595 0.0
H147 H 0.22963 0.96918 0.6198 0.0
H148 H 0.87478 0.98586 0.59928 0.0
H149 H 0.76708 0.03962 0.46336 0.0
H150 H 0.1577 0.994 0.55113 0.0
H151 H 0.98967 0.21771 0.44488 0.0
H152 H 0.78209 0.11373 0.396 0.0
H153 H 0.8345 0.17895 0.36836 0.0
H154 H 0.98066 0.78358 0.58696 0.0
H155 H 0.91176 0.21848 0.3869 0.0
H156 H 0.23043 0.89561 0.69139 0.0
N157 N 0.04436 0.88168 0.57578 0.0
C158 C 0.08058 0.86597 0.61709 0.0
C159 C 0.00857 0.80671 0.59651 0.0
C160 C 0.08083 0.82094 0.652 0.0
C161 C 0.01055 0.85152 0.56261 0.0
C162 C 0.04327 0.79175 0.64226 0.0
N163 N 0.11831 0.93574 0.58489 0.0
C164 C 0.15808 0.96171 0.58208 0.0
C165 C 0.15929 0.87813 0.66122 0.0
C166 C 0.11933 0.89376 0.62137 0.0
C167 C 0.199 0.90625 0.66131 0.0
C168 C 0.19869 0.9478 0.62092 0.0
H169 H 0.04197 0.7569 0.66818 0.0
H170 H 0.11991 0.77181 0.72182 0.0
H171 H 0.1886 0.82218 0.73016 0.0
O172 O 0.07266 0.9839 0.45377 0.0
O173 O 0.0724 0.98014 0.6016 0.0
O174 O 0.00785 0.98869 0.6396 0.0
O175 O 0.07158 0.91012 0.48822 0.0
O176 O 0.07255 0.03081 0.51287 0.0
O177 O 0.04579 0.06814 0.57325 0.0
O178 O 0.92578 0.06675 0.62501 0.0
O179 O 0.98396 0.05781 0.49492 0.0
O180 O 0.97983 0.98491 0.48076 0.0
O181 O 0.9962 0.09221 0.62955 0.0
O182 O 0.95774 0.97343 0.60328 0.0
O183 O 0.97369 0.94208 0.5344 0.0
C184 C 0.05111 0.97292 0.6435 0.0
C185 C 0.05802 0.93532 0.39366 0.0
C186 C 0.06829 0.9206 0.3076 0.0
C187 C 0.01896 0.91944 0.29332 0.0
C188 C 0.00885 0.93428 0.37868 0.0
C189 C 0.98949 0.92646 0.32863 0.0
C190 C 0.0876 0.92852 0.35808 0.0
C191 C 0.07415 0.06479 0.5386 0.0
C192 C 0.07895 0.94253 0.4466 0.0
C193 C 0.11939 0.80598 0.69393 0.0
C194 C 0.15856 0.8346 0.69859 0.0
C195 C 0.97154 0.03001 0.46309 0.0
C196 C 0.93796 0.137 0.65203 0.0
C197 C 0.9111 0.18185 0.70971 0.0
C198 C 0.89948 0.21982 0.66428 0.0
C199 C 0.92575 0.17508 0.60717 0.0
C200 C 0.93037 0.14045 0.70309 0.0
C201 C 0.90685 0.21637 0.61341 0.0
C202 C 0.95228 0.9409 0.57607 0.0
C203 C 0.9562 0.09233 0.64677 0.0
H204 H 1.00324 0.91359 0.2546 0.0
H205 H 0.98553 0.93913 0.40578 0.0
H206 H 0.95153 0.92572 0.31723 0.0
H207 H 0.12561 0.92873 0.37001 0.0
H208 H 0.88483 0.25222 0.66815 0.0
H209 H 0.93017 0.17286 0.56739 0.0
H210 H 0.93843 0.11044 0.73744 0.0
H211 H 0.89756 0.2457 0.57864 0.0
Tb212 Tb 0.46039 0.47704 1.00429 0.0
C213 C 0.65003 0.56203 0.06592 0.0
N214 N 0.63213 0.52362 0.0964 0.0
C215 C 0.70689 0.48287 0.11164 0.0
C216 C 0.69626 0.56149 0.05444 0.0
C217 C 0.66092 0.48551 0.12225 0.0
C218 C 0.72434 0.52071 0.07665 0.0
C219 C 0.64019 0.64419 0.01895 0.0
C220 C 0.62272 0.60283 0.04879 0.0
C221 C 0.68526 0.64329 1.00478 0.0
C222 C 0.71327 0.60199 0.02251 0.0
Tb223 Tb 0.55498 0.53073 0.10658 0.0
N224 N 0.5788 0.60187 0.06191 0.0
C225 C 0.61203 0.68521 0.00503 0.0
C226 C 0.55255 0.64237 0.05192 0.0
C227 C 0.56837 0.68445 0.02241 0.0
H228 H 0.64889 0.45752 0.15204 0.0
H229 H 0.5469 0.71622 0.01307 0.0
H230 H 0.36408 0.53746 1.00316 0.0
H231 H 0.49914 0.28985 0.06077 0.0
H232 H 0.51895 0.64186 0.06553 0.0
H233 H 0.62413 0.71779 0.98207 0.0
H234 H 0.51059 0.3716 0.01536 0.0
H235 H 0.72904 0.45197 0.13112 0.0
H236 H 0.69915 0.67454 0.98117 0.0
H237 H 0.74842 0.60207 0.01248 0.0
H238 H 0.28899 0.52273 0.03823 0.0
H239 H 0.76004 0.51876 0.06876 0.0
H240 H 0.42983 0.26875 0.10623 0.0
N241 N 0.38904 0.4667 0.03275 0.0
C242 C 0.37877 0.42214 0.05666 0.0
C243 C 0.31414 0.49418 0.04412 0.0
C244 C 0.33641 0.41203 0.07736 0.0
C245 C 0.35692 0.50251 0.02473 0.0
C246 C 0.30403 0.44883 0.07106 0.0
N247 N 0.45162 0.39842 0.03988 0.0
C248 C 0.4817 0.36378 0.03742 0.0
C249 C 0.40265 0.34018 0.08623 0.0
C250 C 0.4116 0.38693 0.06125 0.0
C251 C 0.43536 0.30511 0.08744 0.0
C252 C 0.47463 0.31692 0.06208 0.0
H253 H 0.271 0.44253 0.08632 0.0
H254 H 0.29573 0.35724 0.12026 0.0
H255 H 0.3537 0.29421 0.12787 0.0
O256 O 0.44009 0.44239 0.94257 0.0
O257 O 0.44914 0.47718 0.08617 0.0
O258 O 0.52232 0.46431 0.13858 0.0
O259 O 0.42485 0.51597 0.92883 0.0
O260 O 0.53306 0.44793 0.02248 0.0
O261 O 0.56752 0.45657 0.10731 0.0
O262 O 0.53088 0.55783 0.16557 0.0
O263 O 0.54037 0.56209 0.01906 0.0
O264 O 0.52746 0.5015 0.97879 0.0
O265 O 0.60355 0.53756 0.17454 0.0
O266 O 0.48179 0.55783 0.08886 0.0
O267 O 0.45086 0.55154 1.00188 0.0
C268 C 0.47676 0.45672 0.13132 0.0
C269 C 0.37634 0.4742 0.87347 0.0
C270 C 0.33701 0.45243 0.79223 0.0
C271 C 0.29316 0.46361 0.80396 0.0
C272 C 0.33233 0.48546 0.88437 0.0
C273 C 0.29095 0.48004 0.84973 0.0
C274 C 0.37844 0.45765 0.82752 0.0
C275 C 0.56473 0.43578 0.06709 0.0
C276 C 0.42098 0.47985 0.90817 0.0
C277 C 0.32791 0.36573 0.10365 0.0
C278 C 0.36099 0.32987 0.10813 0.0
C279 C 0.54809 0.54078 0.9826 0.0
C280 C 0.57188 0.52898 0.25423 0.0
C281 C 0.59347 0.52908 0.34945 0.0
C282 C 0.57417 0.48446 0.36363 0.0
C283 C 0.55327 0.48436 0.26928 0.0
C284 C 0.5916 0.55138 0.29432 0.0
C285 C 0.55415 0.46236 0.32372 0.0
C286 C 0.45275 0.57172 0.04243 0.0
C287 C 0.57169 0.55229 0.19703 0.0
H288 H 0.26058 0.45906 0.77817 0.0
H289 H 0.32987 0.49851 0.91927 0.0
H290 H 0.25702 0.48856 0.85843 0.0
H291 H 0.41254 0.44936 0.81886 0.0
H292 H 0.57527 0.4663 0.40565 0.0
H293 H 0.53824 0.46656 0.239 0.0
H294 H 0.60529 0.58619 0.28248 0.0
H295 H 0.53965 0.4279 0.33501 0.0
C296 C 0.17212 0.13506 0.47592 0.0
C297 C 0.18666 0.16403 0.51088 0.0
C298 C 0.13551 0.10354 0.48498 0.0
C299 C 0.11158 0.09999 0.52913 0.0
H300 H 0.19008 0.13579 0.44213 0.0
H301 H 0.1262 0.08157 0.45719 0.0
S302 S 0.13422 0.17109 0.63028 0.0
N303 N 0.17283 0.18933 0.58951 0.0
N304 N 0.10421 0.13021 0.60688 0.0
C305 C 0.12494 0.12996 0.56346 0.0
C306 C 0.16241 0.16186 0.5543 0.0
C307 C 0.37383 0.65764 0.07704 0.0
C308 C 0.36678 0.69423 0.0298 0.0
C309 C 0.40103 0.61761 0.08035 0.0
C310 C 0.42118 0.61242 0.03615 0.0
H311 H 0.3596 0.66073 0.11224 0.0
H312 H 0.4067 0.59067 0.11797 0.0
S313 S 0.41118 0.69735 0.90259 0.0
N314 N 0.38084 0.72235 0.93745 0.0
N315 N 0.43113 0.64651 0.94333 0.0
C316 C 0.41297 0.648 0.98808 0.0
C317 C 0.38603 0.68913 0.98503 0.0
C318 C 0.86812 0.84023 0.5712 0.0
C319 C 0.85936 0.82577 0.62465 0.0
C320 C 0.89754 0.87787 0.55552 0.0
C321 C 0.9197 0.90227 0.59276 0.0
H322 H 0.85299 0.82163 0.5415 0.0
H323 H 0.90315 0.8877 0.51393 0.0
S324 S 0.90391 0.88145 0.7362 0.0
N325 N 0.87178 0.84142 0.71354 0.0
N326 N 0.92769 0.91126 0.68472 0.0
C327 C 0.90974 0.88919 0.64585 0.0
C328 C 0.87963 0.85109 0.66167 0.0
C329 C 0.66589 0.34603 0.12407 0.0
C330 C 0.67818 0.33629 0.07752 0.0
C331 C 0.62753 0.37616 0.12066 0.0
C332 C 0.60081 0.39887 0.07044 0.0
H333 H 0.68655 0.33074 0.16342 0.0
H334 H 0.61949 0.38248 0.15769 0.0
S335 S 0.61556 0.38078 0.93687 0.0
N336 N 0.65825 0.34835 0.98019 0.0
N337 N 0.58663 0.40523 0.97336 0.0
C338 C 0.6111 0.38711 0.02385 0.0
C339 C 0.64981 0.35601 0.02747 0.0
C340 C 0.12219 0.8673 0.21086 0.0
C341 C 0.15645 0.89972 0.19419 0.0
C342 C 0.09393 0.87421 0.2477 0.0
C343 C 0.09941 0.91342 0.26975 0.0
H344 H 0.11641 0.83698 0.1943 0.0
H345 H 0.06758 0.84867 0.25904 0.0
S346 S 0.18523 0.00768 0.24059 0.0
N347 N 0.1952 0.97174 0.20363 0.0
N348 N 0.14206 0.98474 0.27273 0.0
C349 C 0.13415 0.94559 0.25419 0.0
C350 C 0.16263 0.93877 0.2164 0.0
C351 C 0.59626 0.62418 0.8679 0.0
C352 C 0.63499 0.59821 0.86217 0.0
C353 C 0.56891 0.60616 0.90838 0.0
C354 C 0.57941 0.56162 0.94379 0.0
H355 H 0.58603 0.65765 0.83973 0.0
H356 H 0.53846 0.62635 0.91076 0.0
S357 S 0.68257 0.48466 0.95232 0.0
N358 N 0.68621 0.52912 0.90007 0.0
N359 N 0.63475 0.4954 0.97548 0.0
C360 C 0.61964 0.5369 0.94048 0.0
C361 C 0.64753 0.55523 0.89984 0.0
C362 C 0.90633 0.05797 0.31881 0.0
C363 C 0.92907 0.09821 0.29411 0.0
C364 C 0.92163 0.03444 0.37316 0.0
C365 C 0.95953 0.051 0.40456 0.0
H366 H 0.87622 0.04497 0.29614 0.0
H367 H 0.90263 0.00426 0.39126 0.0
S368 S 0.03181 0.15375 0.35875 0.0
N369 N 0.99202 0.15282 0.30519 0.0
N370 N 0.02085 0.10845 0.40669 0.0
C371 C 0.98318 0.09043 0.38001 0.0
C372 C 0.96792 0.1141 0.32492 0.0
C373 C 0.37102 0.37591 0.70514 0.0
C374 C 0.34673 0.39752 0.65315 0.0
C375 C 0.36769 0.39394 0.74965 0.0
C376 C 0.33987 0.43431 0.74407 0.0
H377 H 0.39217 0.34423 0.71171 0.0
H378 H 0.38652 0.37567 0.78897 0.0
S379 S 0.27219 0.50618 0.616 0.0
N380 N 0.29583 0.46286 0.59818 0.0
N381 N 0.28956 0.49681 0.6819 0.0
C382 C 0.31589 0.45667 0.69221 0.0
C383 C 0.31931 0.43829 0.6468 0.0
C384 C 0.61475 0.57027 0.47927 0.0
C385 C 0.65986 0.58959 0.4795 0.0
C386 C 0.59325 0.55164 0.43666 0.0
C387 C 0.6159 0.55169 0.39245 0.0
H388 H 0.59643 0.56828 0.51305 0.0
H389 H 0.5587 0.5367 0.43858 0.0
S390 S 0.73337 0.6003 0.37226 0.0
N391 N 0.72537 0.60998 0.43028 0.0
N392 N 0.68572 0.5736 0.35113 0.0
C393 C 0.66055 0.57191 0.39154 0.0
C394 C 0.68235 0.59107 0.43484 0.0
C395 C 0.84909 0.20763 0.81856 0.0
C396 C 0.88339 0.19462 0.86551 0.0
C397 C 0.8582 0.20296 0.76858 0.0
C398 C 0.90204 0.18525 0.76354 0.0
H399 H 0.8149 0.22158 0.82047 0.0
H400 H 0.83062 0.21321 0.73358 0.0
S401 S 0.00469 0.14866 0.87368 0.0
N402 N 0.96343 0.16466 0.90352 0.0
N403 N 0.98065 0.1561 0.80958 0.0
C404 C 0.93664 0.17207 0.8102 0.0
C405 C 0.92731 0.17671 0.86114 0.0
C406 C 0.39123 0.42058 0.23075 0.0
C407 C 0.4154 0.3828 0.26992 0.0
C408 C 0.41078 0.44363 0.18531 0.0
C409 C 0.45552 0.43017 0.17779 0.0
H410 H 0.35701 0.43248 0.23537 0.0
H411 H 0.3912 0.47295 0.15658 0.0
S412 S 0.53301 0.33324 0.26814 0.0
N413 N 0.48634 0.33285 0.29785 0.0
N414 N 0.52283 0.37601 0.21247 0.0
C415 C 0.47973 0.39213 0.21623 0.0
C416 C 0.45975 0.36848 0.26224 0.0
C417 C 0.14937 0.9647 0.7618 0.0
C418 C 0.13906 0.92384 0.7992 0.0
C419 C 0.12041 0.9805 0.7115 0.0
C420 C 0.07973 0.95648 0.69725 0.0
H421 H 0.17976 0.98502 0.77169 0.0
H422 H 0.12967 0.01196 0.68371 0.0
S423 S 0.03949 0.84535 0.77715 0.0
N424 N 0.0872 0.85762 0.81601 0.0
N425 N 0.03203 0.88857 0.72178 0.0
C426 C 0.06919 0.9154 0.73346 0.0
C427 C 0.09904 0.89877 0.78443 0.0
loop_
_geom_bond_atom_site_label_1
_geom_bond_atom_site_label_2
_geom_bond_distance
_geom_bond_site_symmetry_2
_ccdc_geom_bond_type
P0 O11 1.490 . S
P0 C14 1.812 . S
P0 C20 1.803 . S
P0 C26 1.819 1_554 S
H1 C15 0.941 . S
H2 C16 0.939 . S
H3 C18 0.940 . S
H4 C19 0.940 . S
H5 C21 0.939 1_556 S
H6 C22 0.942 . S
H7 C24 0.940 . S
H8 C25 0.939 . S
H9 C27 0.941 . S
H10 C31 0.939 . S
O11 P0 1.490 . S
H12 C28 0.939 1_545 S
H13 C30 0.940 . S
C14 P0 1.812 . S
C14 C15 1.389 . S
C14 C19 1.391 . S
C15 H1 0.941 . S
C15 C14 1.389 . S
C15 C16 1.397 . S
C16 H2 0.939 . S
C16 C15 1.397 . S
C16 C17 1.378 . S
C17 C16 1.378 . S
C17 C18 1.378 . S
C18 H3 0.940 . S
C18 C17 1.378 . S
C18 C19 1.396 . S
C19 H4 0.940 . S
C19 C14 1.391 . S
C19 C18 1.396 . S
C20 P0 1.803 . S
C20 C21 1.378 . S
C20 C25 1.400 . S
C21 H5 0.939 1_554 S
C21 C20 1.378 . S
C21 C22 1.361 . S
C22 H6 0.942 . S
C22 C21 1.361 . S
C22 C23 1.369 . S
C23 C22 1.369 . S
C23 C24 1.404 . S
C24 H7 0.940 . S
C24 C23 1.404 . S
C24 C25 1.389 . S
C25 H8 0.939 . S
C25 C20 1.400 . S
C25 C24 1.389 . S
C26 P0 1.819 1_556 S
C26 C27 1.391 . S
C26 C31 1.391 . S
C27 H9 0.941 . S
C27 C26 1.391 . S
C27 C28 1.396 . S
C28 H12 0.939 1_565 S
C28 C27 1.396 . S
C28 C29 1.397 . S
C29 C28 1.397 . S
C29 C30 1.385 . S
C30 H13 0.940 . S
C30 C29 1.385 . S
C30 C31 1.388 . S
C31 H10 0.939 . S
C31 C26 1.391 . S
C31 C30 1.388 . S
P32 O43 1.490 . S
P32 C46 1.812 . S
P32 C52 1.803 . S
P32 C58 1.819 . S
H33 C47 0.941 . S
H34 C48 0.939 . S
H35 C50 0.940 . S
H36 C51 0.940 . S
H37 C53 0.939 . S
H38 C54 0.942 . S
H39 C56 0.940 . S
H40 C57 0.939 . S
H41 C59 0.941 . S
H42 C63 0.939 . S
O43 P32 1.490 . S
H44 C60 0.939 . S
H45 C62 0.940 . S
C46 P32 1.812 . S
C46 C47 1.389 . S
C46 C51 1.391 . S
C47 H33 0.941 . S
C47 C46 1.389 . S
C47 C48 1.397 . S
C48 H34 0.939 . S
C48 C47 1.397 . S
C48 C49 1.378 . S
C49 C48 1.378 . S
C49 C50 1.378 . S
C50 H35 0.940 . S
C50 C49 1.378 . S
C50 C51 1.396 . S
C51 H36 0.940 . S
C51 C46 1.391 . S
C51 C50 1.396 . S
C52 P32 1.803 . S
C52 C53 1.378 . S
C52 C57 1.400 . S
C53 H37 0.939 . S
C53 C52 1.378 . S
C53 C54 1.361 . S
C54 H38 0.942 . S
C54 C53 1.361 . S
C54 C55 1.369 . S
C55 C54 1.369 . S
C55 C56 1.404 . S
C56 H39 0.940 . S
C56 C55 1.404 . S
C56 C57 1.389 . S
C57 H40 0.939 . S
C57 C52 1.400 . S
C57 C56 1.389 . S
C58 P32 1.819 . S
C58 C59 1.391 . S
C58 C63 1.391 . S
C59 H41 0.941 . S
C59 C58 1.391 . S
C59 C60 1.396 . S
C60 H44 0.939 . S
C60 C59 1.396 . S
C60 C61 1.397 . S
C61 C60 1.397 . S
C61 C62 1.385 . S
C62 H45 0.940 . S
C62 C61 1.385 . S
C62 C63 1.388 . S
C63 H42 0.939 . S
C63 C58 1.391 . S
C63 C62 1.388 . S
P64 O75 1.490 . S
P64 C78 1.812 . S
P64 C84 1.803 . S
P64 C90 1.819 . S
H65 C79 0.941 . S
H66 C80 0.939 . S
H67 C82 0.940 1_554 S
H68 C83 0.940 . S
H69 C85 0.939 . S
H70 C86 0.942 . S
H71 C88 0.940 . S
H72 C89 0.939 . S
H73 C91 0.941 . S
H74 C95 0.939 . S
O75 P64 1.490 . S
H76 C92 0.939 . S
H77 C94 0.940 . S
C78 P64 1.812 . S
C78 C79 1.389 1_554 S
C78 C83 1.391 . S
C79 H65 0.941 . S
C79 C78 1.389 1_556 S
C79 C80 1.397 . S
C80 H66 0.939 . S
C80 C79 1.397 . S
C80 C81 1.378 . S
C81 C80 1.378 . S
C81 C82 1.378 . S
C82 H67 0.940 1_556 S
C82 C81 1.378 . S
C82 C83 1.396 1_556 S
C83 H68 0.940 . S
C83 C78 1.391 . S
C83 C82 1.396 1_554 S
C84 P64 1.803 . S
C84 C85 1.378 . S
C84 C89 1.400 . S
C85 H69 0.939 . S
C85 C84 1.378 . S
C85 C86 1.361 . S
C86 H70 0.942 . S
C86 C85 1.361 . S
C86 C87 1.369 . S
C87 C86 1.369 . S
C87 C88 1.404 . S
C88 H71 0.940 . S
C88 C87 1.404 . S
C88 C89 1.389 . S
C89 H72 0.939 . S
C89 C84 1.400 . S
C89 C88 1.389 . S
C90 P64 1.819 . S
C90 C91 1.391 . S
C90 C95 1.391 . S
C91 H73 0.941 . S
C91 C90 1.391 . S
C91 C92 1.396 . S
C92 H76 0.939 . S
C92 C91 1.396 . S
C92 C93 1.397 . S
C93 C92 1.397 . S
C93 C94 1.385 . S
C94 H77 0.940 . S
C94 C93 1.385 . S
C94 C95 1.388 . S
C95 H74 0.939 . S
C95 C90 1.391 . S
C95 C94 1.388 . S
P96 O107 1.490 . S
P96 C110 1.812 . S
P96 C116 1.803 . S
P96 C122 1.819 . S
H97 C111 0.941 . S
H98 C112 0.939 . S
H99 C114 0.940 . S
H100 C115 0.940 . S
H101 C117 0.939 . S
H102 C118 0.942 . S
H103 C120 0.940 . S
H104 C121 0.939 . S
H105 C123 0.941 . S
H106 C127 0.939 . S
O107 P96 1.490 . S
H108 C124 0.939 . S
H109 C126 0.940 . S
C110 P96 1.812 . S
C110 C111 1.389 . S
C110 C115 1.391 . S
C111 H97 0.941 . S
C111 C110 1.389 . S
C111 C112 1.397 . S
C112 H98 0.939 . S
C112 C111 1.397 . S
C112 C113 1.378 . S
C113 C112 1.378 . S
C113 C114 1.378 . S
C114 H99 0.940 . S
C114 C113 1.378 . S
C114 C115 1.396 . S
C115 H100 0.940 . S
C115 C110 1.391 . S
C115 C114 1.396 . S
C116 P96 1.803 . S
C116 C117 1.378 . S
C116 C121 1.400 . S
C117 H101 0.939 . S
C117 C116 1.378 . S
C117 C118 1.361 . S
C118 H102 0.942 . S
C118 C117 1.361 . S
C118 C119 1.369 . S
C119 C118 1.369 . S
C119 C120 1.404 . S
C120 H103 0.940 . S
C120 C119 1.404 . S
C120 C121 1.389 . S
C121 H104 0.939 . S
C121 C116 1.400 . S
C121 C120 1.389 . S
C122 P96 1.819 . S
C122 C123 1.391 . S
C122 C127 1.391 . S
C123 H105 0.941 . S
C123 C122 1.391 . S
C123 C124 1.396 . S
C124 H108 0.939 . S
C124 C123 1.396 . S
C124 C125 1.397 . S
C125 C124 1.397 . S
C125 C126 1.385 . S
C126 H109 0.940 . S
C126 C125 1.385 . S
C126 C127 1.388 . S
C127 H106 0.939 . S
C127 C122 1.391 . S
C127 C126 1.388 . S
Tb128 N157 2.617 . S
Tb128 N163 2.572 . S
Tb128 O172 2.465 . S
Tb128 O173 2.387 . S
Tb128 O175 2.428 . S
Tb128 O176 2.308 1_565 S
Tb128 O180 2.349 1_465 S
Tb128 O183 2.393 1_455 S
Tb128 C192 2.802 . S
C129 N130 1.379 . S
C129 C132 1.416 . S
C129 C136 1.424 . S
N130 C129 1.379 . S
N130 C133 1.342 . S
N130 Tb139 2.617 . S
C131 C133 1.390 . S
C131 C134 1.339 . S
C131 H151 0.930 1_655 S
C132 C129 1.416 . S
C132 C134 1.416 . S
C132 C138 1.448 . S
C133 N130 1.342 . S
C133 C131 1.390 . S
C133 H144 0.922 1_655 S
C134 C131 1.339 . S
C134 C132 1.416 . S
C134 H155 0.930 . S
C135 C136 1.413 . S
C135 C137 1.427 . S
C135 C141 1.416 . S
C136 C129 1.424 . S
C136 C135 1.413 . S
C136 N140 1.361 . S
C137 C135 1.427 . S
C137 C138 1.328 . S
C137 H152 0.929 . S
C138 C132 1.448 . S
C138 C137 1.328 . S
C138 H153 0.930 . S
Tb139 N130 2.617 . S
Tb139 N140 2.572 . S
Tb139 O174 2.349 1_655 S
Tb139 O177 2.393 1_655 S
Tb139 O178 2.465 . S
Tb139 O179 2.387 . S
Tb139 O181 2.428 . S
Tb139 O182 2.308 1_545 S
Tb139 C203 2.802 . S
N140 C136 1.361 . S
N140 Tb139 2.572 . S
N140 C142 1.340 . S
C141 C135 1.416 . S
C141 C143 1.332 . S
C141 H149 0.931 . S
C142 N140 1.340 . S
C142 C143 1.407 . S
C142 H148 0.930 . S
C143 C141 1.332 . S
C143 C142 1.407 . S
C143 H145 0.929 . S
H144 C133 0.922 1_455 S
H145 C143 0.929 . S
H146 C161 0.930 1_655 S
H147 C168 0.929 . S
H148 C142 0.930 . S
H149 C141 0.931 . S
H150 C164 0.930 . S
H151 C131 0.930 1_455 S
H152 C137 0.929 . S
H153 C138 0.930 . S
H154 C159 0.930 1_655 S
H155 C134 0.930 . S
H156 C167 0.931 . S
N157 Tb128 2.617 . S
N157 C158 1.379 . S
N157 C161 1.334 . S
C158 N157 1.379 . S
C158 C160 1.416 . S
C158 C166 1.424 . S
C159 H154 0.930 1_455 S
C159 C161 1.390 . S
C159 C162 1.339 . S
C160 C158 1.416 . S
C160 C162 1.416 . S
C160 C193 1.448 . S
C161 H146 0.930 1_455 S
C161 N157 1.334 . S
C161 C159 1.390 . S
C162 C159 1.339 . S
C162 C160 1.416 . S
C162 H169 0.930 . S
N163 Tb128 2.572 . S
N163 C164 1.340 . S
N163 C166 1.361 . S
C164 H150 0.930 . S
C164 N163 1.340 . S
C164 C168 1.407 . S
C165 C166 1.413 . S
C165 C167 1.416 . S
C165 C194 1.427 . S
C166 C158 1.424 . S
C166 N163 1.361 . S
C166 C165 1.413 . S
C167 H156 0.931 . S
C167 C165 1.416 . S
C167 C168 1.332 . S
C168 H147 0.929 . S
C168 C164 1.407 . S
C168 C167 1.332 . S
H169 C162 0.930 . S
H170 C193 0.930 . S
H171 C194 0.929 . S
O172 Tb128 2.465 . S
O172 C192 1.264 . S
O173 Tb128 2.387 . S
O173 C184 1.264 . S
O174 Tb139 2.349 1_455 S
O174 C184 1.243 1_545 S
O175 Tb128 2.428 . S
O175 C192 1.256 . S
O176 Tb128 2.308 1_545 S
O176 C191 1.266 . S
O177 Tb139 2.393 1_455 S
O177 C191 1.248 . S
O178 Tb139 2.465 . S
O178 C203 1.264 . S
O179 Tb139 2.387 . S
O179 C195 1.264 . S
O180 Tb128 2.349 1_645 S
O180 C195 1.243 . S
O181 Tb139 2.428 . S
O181 C203 1.256 . S
O182 Tb139 2.308 1_565 S
O182 C202 1.266 . S
O183 Tb128 2.393 1_655 S
O183 C202 1.248 . S
C184 O173 1.264 . S
C184 O174 1.243 1_565 S
C185 C188 1.399 . S
C185 C190 1.383 . S
C185 C192 1.496 . S
C186 C187 1.399 . S
C186 C190 1.389 . S
C187 C186 1.399 . S
C187 C189 1.380 . S
C187 H204 0.929 . S
C188 C185 1.399 . S
C188 C189 1.392 . S
C188 H205 0.929 . S
C189 C187 1.380 . S
C189 C188 1.392 . S
C189 H206 0.929 . S
C190 C185 1.383 . S
C190 C186 1.389 . S
C190 H207 0.931 . S
C191 O176 1.266 . S
C191 O177 1.248 . S
C192 Tb128 2.802 . S
C192 O172 1.264 . S
C192 O175 1.256 . S
C192 C185 1.496 . S
C193 C160 1.448 . S
C193 H170 0.930 . S
C193 C194 1.328 . S
C194 C165 1.427 . S
C194 H171 0.929 . S
C194 C193 1.328 . S
C195 O179 1.264 . S
C195 O180 1.243 . S
C196 C199 1.399 . S
C196 C200 1.383 . S
C196 C203 1.496 . S
C197 C198 1.399 . S
C197 C200 1.389 . S
C198 C197 1.399 . S
C198 C201 1.380 . S
C198 H208 0.929 . S
C199 C196 1.399 . S
C199 C201 1.392 . S
C199 H209 0.929 . S
C200 C196 1.383 . S
C200 C197 1.389 . S
C200 H210 0.931 . S
C201 C198 1.380 . S
C201 C199 1.392 . S
C201 H211 0.929 . S
C202 O182 1.266 . S
C202 O183 1.248 . S
C203 Tb139 2.802 . S
C203 O178 1.264 . S
C203 O181 1.256 . S
C203 C196 1.496 . S
H204 C187 0.929 . S
H205 C188 0.929 . S
H206 C189 0.929 . S
H207 C190 0.931 . S
H208 C198 0.929 . S
H209 C199 0.929 . S
H210 C200 0.931 . S
H211 C201 0.929 . S
Tb212 N241 2.616 1_556 S
Tb212 N247 2.571 1_556 S
Tb212 O256 2.471 . S
Tb212 O257 2.380 1_556 S
Tb212 O259 2.434 . S
Tb212 O260 2.306 1_556 S
Tb212 O264 2.352 . S
Tb212 O267 2.390 1_556 S
Tb212 C276 2.809 . S
C213 N214 1.379 . S
C213 C216 1.416 . S
C213 C220 1.424 . S
N214 C213 1.379 . S
N214 C217 1.334 . S
N214 Tb223 2.617 . S
C215 C217 1.390 . S
C215 C218 1.339 . S
C215 H235 0.930 . S
C216 C213 1.416 . S
C216 C218 1.416 . S
C216 C222 1.448 . S
C217 N214 1.334 . S
C217 C215 1.390 . S
C217 H228 0.930 . S
C218 C215 1.339 . S
C218 C216 1.416 . S
C218 H239 0.930 . S
C219 C220 1.413 . S
C219 C221 1.427 . S
C219 C225 1.416 . S
C220 C213 1.424 . S
C220 C219 1.413 . S
C220 N224 1.361 . S
C221 C219 1.427 . S
C221 C222 1.328 . S
C221 H236 0.929 . S
C222 C216 1.448 . S
C222 C221 1.328 . S
C222 H237 0.930 . S
Tb223 N214 2.617 . S
Tb223 N224 2.572 . S
Tb223 O258 2.349 . S
Tb223 O261 2.393 . S
Tb223 O262 2.465 . S
Tb223 O263 2.387 . S
Tb223 O265 2.428 . S
Tb223 O266 2.308 . S
Tb223 C287 2.802 . S
N224 C220 1.361 . S
N224 Tb223 2.572 . S
N224 C226 1.340 . S
C225 C219 1.416 . S
C225 C227 1.332 . S
C225 H233 0.931 . S
C226 N224 1.340 . S
C226 C227 1.407 . S
C226 H232 0.930 . S
C227 C225 1.332 . S
C227 C226 1.407 . S
C227 H229 0.929 . S
H228 C217 0.930 . S
H229 C227 0.929 . S
H230 C245 0.930 . S
H231 C252 0.929 . S
H232 C226 0.930 . S
H233 C225 0.931 . S
H234 C248 0.930 . S
H235 C215 0.930 . S
H236 C221 0.929 . S
H237 C222 0.930 . S
H238 C243 0.930 . S
H239 C218 0.930 . S
H240 C251 0.931 . S
N241 Tb212 2.616 1_554 S
N241 C242 1.379 . S
N241 C245 1.334 1_554 S
C242 N241 1.379 . S
C242 C244 1.416 . S
C242 C250 1.424 . S
C243 H238 0.930 . S
C243 C245 1.390 . S
C243 C246 1.339 1_556 S
C244 C242 1.416 . S
C244 C246 1.416 . S
C244 C277 1.448 . S
C245 H230 0.930 . S
C245 N241 1.334 1_556 S
C245 C243 1.390 . S
C246 C243 1.339 1_554 S
C246 C244 1.416 . S
C246 H253 0.930 . S
N247 Tb212 2.571 1_554 S
N247 C248 1.340 . S
N247 C250 1.361 . S
C248 H234 0.930 . S
C248 N247 1.340 . S
C248 C252 1.407 . S
C249 C250 1.413 . S
C249 C251 1.416 . S
C249 C278 1.427 . S
C250 C242 1.424 . S
C250 N247 1.361 . S
C250 C249 1.413 . S
C251 H240 0.931 . S
C251 C249 1.416 . S
C251 C252 1.332 . S
C252 H231 0.929 . S
C252 C248 1.407 . S
C252 C251 1.332 . S
H253 C246 0.930 . S
H254 C277 0.930 . S
H255 C278 0.929 . S
O256 Tb212 2.471 . S
O256 C276 1.264 . S
O257 Tb212 2.380 1_554 S
O257 C268 1.264 . S
O258 Tb223 2.349 . S
O258 C268 1.243 . S
O259 Tb212 2.434 . S
O259 C276 1.256 . S
O260 Tb212 2.306 1_554 S
O260 C275 1.266 . S
O261 Tb223 2.393 . S
O261 C275 1.248 . S
O262 Tb223 2.465 . S
O262 C287 1.264 . S
O263 Tb223 2.387 . S
O263 C279 1.264 1_554 S
O264 Tb212 2.352 . S
O264 C279 1.243 . S
O265 Tb223 2.428 . S
O265 C287 1.256 . S
O266 Tb223 2.308 . S
O266 C286 1.266 . S
O267 Tb212 2.390 1_554 S
O267 C286 1.248 . S
C268 O257 1.264 . S
C268 O258 1.243 . S
C269 C272 1.399 . S
C269 C274 1.383 . S
C269 C276 1.496 . S
C270 C271 1.399 . S
C270 C274 1.389 . S
C271 C270 1.399 . S
C271 C273 1.380 . S
C271 H288 0.929 . S
C272 C269 1.399 . S
C272 C273 1.392 . S
C272 H289 0.929 . S
C273 C271 1.380 . S
C273 C272 1.392 . S
C273 H290 0.929 . S
C274 C269 1.383 . S
C274 C270 1.389 . S
C274 H291 0.931 . S
C275 O260 1.266 . S
C275 O261 1.248 . S
C276 Tb212 2.809 . S
C276 O256 1.264 . S
C276 O259 1.256 . S
C276 C269 1.496 . S
C277 C244 1.448 . S
C277 H254 0.930 . S
C277 C278 1.328 . S
C278 C249 1.427 . S
C278 H255 0.929 . S
C278 C277 1.328 . S
C279 O263 1.264 1_556 S
C279 O264 1.243 . S
C280 C283 1.399 . S
C280 C284 1.383 . S
C280 C287 1.496 . S
C281 C282 1.399 . S
C281 C284 1.389 . S
C282 C281 1.399 . S
C282 C285 1.380 . S
C282 H292 0.929 . S
C283 C280 1.399 . S
C283 C285 1.392 . S
C283 H293 0.929 . S
C284 C280 1.383 . S
C284 C281 1.389 . S
C284 H294 0.931 . S
C285 C282 1.380 . S
C285 C283 1.392 . S
C285 H295 0.929 . S
C286 O266 1.266 . S
C286 O267 1.248 . S
C287 Tb223 2.802 . S
C287 O262 1.264 . S
C287 O265 1.256 . S
C287 C280 1.496 . S
H288 C271 0.929 . S
H289 C272 0.929 . S
H290 C273 0.929 . S
H291 C274 0.931 . S
H292 C282 0.929 . S
H293 C283 0.929 . S
H294 C284 0.931 . S
H295 C285 0.929 . S
C296 C297 1.369 . S
C296 C298 1.419 . S
C296 H300 0.930 . S
C297 C296 1.369 . S
C297 C306 1.429 . S
C298 C296 1.419 . S
C298 C299 1.363 . S
C298 H301 0.929 . S
C299 C298 1.363 . S
C299 C305 1.428 . S
H300 C296 0.930 . S
H301 C298 0.929 . S
S302 N303 1.613 . S
S302 N304 1.610 . S
N303 S302 1.613 . S
N303 C306 1.350 . S
N304 S302 1.610 . S
N304 C305 1.351 . S
C305 C299 1.428 . S
C305 N304 1.351 . S
C305 C306 1.434 . S
C306 C297 1.429 . S
C306 N303 1.350 . S
C306 C305 1.434 . S
C307 C308 1.369 . S
C307 C309 1.419 . S
C307 H311 0.930 . S
C308 C307 1.369 . S
C308 C317 1.429 1_554 S
C309 C307 1.419 . S
C309 C310 1.363 . S
C309 H312 0.929 . S
C310 C309 1.363 . S
C310 C316 1.428 1_554 S
H311 C307 0.930 . S
H312 C309 0.929 . S
S313 N314 1.613 . S
S313 N315 1.610 . S
N314 S313 1.613 . S
N314 C317 1.350 . S
N315 S313 1.610 . S
N315 C316 1.351 . S
C316 C310 1.428 1_556 S
C316 N315 1.351 . S
C316 C317 1.434 . S
C317 C308 1.429 1_556 S
C317 N314 1.350 . S
C317 C316 1.434 . S
C318 C319 1.369 . S
C318 C320 1.419 . S
C318 H322 0.930 . S
C319 C318 1.369 . S
C319 C328 1.429 . S
C320 C318 1.419 . S
C320 C321 1.363 . S
C320 H323 0.929 . S
C321 C320 1.363 . S
C321 C327 1.428 . S
H322 C318 0.930 . S
H323 C320 0.929 . S
S324 N325 1.613 . S
S324 N326 1.610 . S
N325 S324 1.613 . S
N325 C328 1.350 . S
N326 S324 1.610 . S
N326 C327 1.351 . S
C327 C321 1.428 . S
C327 N326 1.351 . S
C327 C328 1.434 . S
C328 C319 1.429 . S
C328 N325 1.350 . S
C328 C327 1.434 . S
C329 C330 1.369 . S
C329 C331 1.419 . S
C329 H333 0.930 . S
C330 C329 1.369 . S
C330 C339 1.429 . S
C331 C329 1.419 . S
C331 C332 1.363 . S
C331 H334 0.929 . S
C332 C331 1.363 . S
C332 C338 1.428 . S
H333 C329 0.930 . S
H334 C331 0.929 . S
S335 N336 1.613 . S
S335 N337 1.610 . S
N336 S335 1.613 . S
N336 C339 1.350 1_556 S
N337 S335 1.610 . S
N337 C338 1.351 1_556 S
C338 C332 1.428 . S
C338 N337 1.351 1_554 S
C338 C339 1.434 . S
C339 C330 1.429 . S
C339 N336 1.350 1_554 S
C339 C338 1.434 . S
C340 C341 1.369 . S
C340 C342 1.419 . S
C340 H344 0.930 . S
C341 C340 1.369 . S
C341 C350 1.429 . S
C342 C340 1.419 . S
C342 C343 1.363 . S
C342 H345 0.929 . S
C343 C342 1.363 . S
C343 C349 1.428 . S
H344 C340 0.930 . S
H345 C342 0.929 . S
S346 N347 1.613 . S
S346 N348 1.610 . S
N347 S346 1.613 . S
N347 C350 1.350 1_545 S
N348 S346 1.610 . S
N348 C349 1.351 1_545 S
C349 C343 1.428 . S
C349 N348 1.351 1_565 S
C349 C350 1.434 . S
C350 C341 1.429 . S
C350 N347 1.350 1_565 S
C350 C349 1.434 . S
C351 C352 1.369 . S
C351 C353 1.419 . S
C351 H355 0.930 . S
C352 C351 1.369 . S
C352 C361 1.429 . S
C353 C351 1.419 . S
C353 C354 1.363 . S
C353 H356 0.929 . S
C354 C353 1.363 . S
C354 C360 1.428 . S
H355 C351 0.930 . S
H356 C353 0.929 . S
S357 N358 1.613 . S
S357 N359 1.610 . S
N358 S357 1.613 . S
N358 C361 1.350 . S
N359 S357 1.610 . S
N359 C360 1.351 . S
C360 C354 1.428 . S
C360 N359 1.351 . S
C360 C361 1.434 . S
C361 C352 1.429 . S
C361 N358 1.350 . S
C361 C360 1.434 . S
C362 C363 1.369 . S
C362 C364 1.419 . S
C362 H366 0.930 1_545 S
C363 C362 1.369 . S
C363 C372 1.429 . S
C364 C362 1.419 . S
C364 C365 1.363 . S
C364 H367 0.929 1_545 S
C365 C364 1.363 . S
C365 C371 1.428 . S
H366 C362 0.930 1_565 S
H367 C364 0.929 1_565 S
S368 N369 1.613 . S
S368 N370 1.610 . S
N369 S368 1.613 . S
N369 C372 1.350 . S
N370 S368 1.610 . S
N370 C371 1.351 . S
C371 C365 1.428 . S
C371 N370 1.351 . S
C371 C372 1.434 . S
C372 C363 1.429 . S
C372 N369 1.350 . S
C372 C371 1.434 . S
C373 C374 1.369 . S
C373 C375 1.419 . S
C373 H377 0.930 . S
C374 C373 1.369 . S
C374 C383 1.429 . S
C375 C373 1.419 . S
C375 C376 1.363 . S
C375 H378 0.929 . S
C376 C375 1.363 . S
C376 C382 1.428 . S
H377 C373 0.930 . S
H378 C375 0.929 . S
S379 N380 1.613 . S
S379 N381 1.610 . S
N380 S379 1.613 . S
N380 C383 1.350 . S
N381 S379 1.610 . S
N381 C382 1.351 . S
C382 C376 1.428 . S
C382 N381 1.351 . S
C382 C383 1.434 . S
C383 C374 1.429 . S
C383 N380 1.350 . S
C383 C382 1.434 . S
C384 C385 1.369 . S
C384 C386 1.419 . S
C384 H388 0.930 . S
C385 C384 1.369 . S
C385 C394 1.429 . S
C386 C384 1.419 . S
C386 C387 1.363 . S
C386 H389 0.929 . S
C387 C386 1.363 . S
C387 C393 1.428 . S
H388 C384 0.930 . S
H389 C386 0.929 . S
S390 N391 1.613 . S
S390 N392 1.610 . S
N391 S390 1.613 . S
N391 C394 1.350 . S
N392 S390 1.610 . S
N392 C393 1.351 . S
C393 C387 1.428 . S
C393 N392 1.351 . S
C393 C394 1.434 . S
C394 C385 1.429 . S
C394 N391 1.350 . S
C394 C393 1.434 . S
C395 C396 1.369 . S
C395 C397 1.419 . S
C395 H399 0.930 . S
C396 C395 1.369 . S
C396 C405 1.429 . S
C397 C395 1.419 . S
C397 C398 1.363 . S
C397 H400 0.929 . S
C398 C397 1.363 . S
C398 C404 1.428 . S
H399 C395 0.930 . S
H400 C397 0.929 . S
S401 N402 1.613 . S
S401 N403 1.610 . S
N402 S401 1.613 . S
N402 C405 1.350 . S
N403 S401 1.610 . S
N403 C404 1.351 . S
C404 C398 1.428 . S
C404 N403 1.351 . S
C404 C405 1.434 . S
C405 C396 1.429 . S
C405 N402 1.350 . S
C405 C404 1.434 . S
C406 C407 1.369 . S
C406 C408 1.419 . S
C406 H410 0.930 . S
C407 C406 1.369 . S
C407 C416 1.429 . S
C408 C406 1.419 . S
C408 C409 1.363 . S
C408 H411 0.929 . S
C409 C408 1.363 . S
C409 C415 1.428 . S
H410 C406 0.930 . S
H411 C408 0.929 . S
S412 N413 1.613 . S
S412 N414 1.610 . S
N413 S412 1.613 . S
N413 C416 1.350 . S
N414 S412 1.610 . S
N414 C415 1.351 . S
C415 C409 1.428 . S
C415 N414 1.351 . S
C415 C416 1.434 . S
C416 C407 1.429 . S
C416 N413 1.350 . S
C416 C415 1.434 . S
C417 C418 1.369 . S
C417 C419 1.419 . S
C417 H421 0.930 1_565 S
C418 C417 1.369 . S
C418 C427 1.429 . S
C419 C417 1.419 . S
C419 C420 1.363 . S
C419 H422 0.929 1_565 S
C420 C419 1.363 . S
C420 C426 1.428 . S
H421 C417 0.930 1_545 S
H422 C419 0.929 1_545 S
S423 N424 1.613 . S
S423 N425 1.610 . S
N424 S423 1.613 . S
N424 C427 1.350 . S
N425 S423 1.610 . S
N425 C426 1.351 . S
C426 C420 1.428 . S
C426 N425 1.351 . S
C426 C427 1.434 . S
C427 C418 1.429 . S
C427 N424 1.350 . S
C427 C426 1.434 . S
C299 C191 1.650 . S
C297 C119 1.631 . S
C308 C23 1.637 . S
C310 C286 1.617 . S
C319 C55 1.566 . S
C321 C202 1.652 . S
C330 C87 1.524 . S
C332 C275 1.620 . S
C343 C186 1.402 . S
C341 C17 1.537 . S
C354 C279 1.617 . S
C352 C61 1.532 . S
C363 C93 1.488 . S
C365 C195 1.633 . S
C374 C113 1.520 . S
C376 C270 1.397 . S
C387 C281 1.404 . S
C385 C49 1.488 . S
C398 C197 1.392 . S
C396 C81 1.486 . S
C409 C268 1.617 . S
C407 C125 1.607 . S
C418 C29 1.631 . S
C420 C184 1.632 . S
