# Generated by pormake.
# Topology ctn, (3,4)-cn, num edge types: 1
# Building blocks:
#     Node 0, Type 0, BuildingBlock: BETDIP_clean_linker_0, # of connection points: 3
#     Node 1, Type 0, BuildingBlock: BETDIP_clean_linker_0, # of connection points: 3
#     Node 2, Type 0, BuildingBlock: BETDIP_clean_linker_0, # of connection points: 3
#     Node 3, Type 0, BuildingBlock: BETDIP_clean_linker_0, # of connection points: 3
#     Node 4, Type 0, BuildingBlock: BETDIP_clean_linker_0, # of connection points: 3
#     Node 5, Type 0, BuildingBlock: BETDIP_clean_linker_0, # of connection points: 3
#     Node 6, Type 0, BuildingBlock: BETDIP_clean_linker_0, # of connection points: 3
#     Node 7, Type 0, BuildingBlock: BETDIP_clean_linker_0, # of connection points: 3
#     Node 8, Type 0, BuildingBlock: BETDIP_clean_linker_0, # of connection points: 3
#     Node 9, Type 0, BuildingBlock: BETDIP_clean_linker_0, # of connection points: 3
#     Node 10, Type 0, BuildingBlock: BETDIP_clean_linker_0, # of connection points: 3
#     Node 11, Type 0, BuildingBlock: BETDIP_clean_linker_0, # of connection points: 3
#     Node 12, Type 0, BuildingBlock: BETDIP_clean_linker_0, # of connection points: 3
#     Node 13, Type 0, BuildingBlock: BETDIP_clean_linker_0, # of connection points: 3
#     Node 14, Type 0, BuildingBlock: BETDIP_clean_linker_0, # of connection points: 3
#     Node 15, Type 0, BuildingBlock: BETDIP_clean_linker_0, # of connection points: 3
#     Node 16, Type 1, BuildingBlock: QUQFOY_clean_sbu_1, # of connection points: 4
#     Node 17, Type 1, BuildingBlock: QUQFOY_clean_sbu_1, # of connection points: 4
#     Node 18, Type 1, BuildingBlock: QUQFOY_clean_sbu_1, # of connection points: 4
#     Node 19, Type 1, BuildingBlock: QUQFOY_clean_sbu_1, # of connection points: 4
#     Node 20, Type 1, BuildingBlock: QUQFOY_clean_sbu_1, # of connection points: 4
#     Node 21, Type 1, BuildingBlock: QUQFOY_clean_sbu_1, # of connection points: 4
#     Node 22, Type 1, BuildingBlock: QUQFOY_clean_sbu_1, # of connection points: 4
#     Node 23, Type 1, BuildingBlock: QUQFOY_clean_sbu_1, # of connection points: 4
#     Node 24, Type 1, BuildingBlock: QUQFOY_clean_sbu_1, # of connection points: 4
#     Node 25, Type 1, BuildingBlock: QUQFOY_clean_sbu_1, # of connection points: 4
#     Node 26, Type 1, BuildingBlock: QUQFOY_clean_sbu_1, # of connection points: 4
#     Node 27, Type 1, BuildingBlock: QUQFOY_clean_sbu_1, # of connection points: 4
#     Edge 28, Type (0, 1), BuildingBlock: MIFKUJ_clean_linker_0, # of connection points: 2
#     Edge 29, Type (0, 1), BuildingBlock: MIFKUJ_clean_linker_0, # of connection points: 2
#     Edge 30, Type (0, 1), BuildingBlock: MIFKUJ_clean_linker_0, # of connection points: 2
#     Edge 31, Type (0, 1), BuildingBlock: MIFKUJ_clean_linker_0, # of connection points: 2
#     Edge 32, Type (0, 1), BuildingBlock: MIFKUJ_clean_linker_0, # of connection points: 2
#     Edge 33, Type (0, 1), BuildingBlock: MIFKUJ_clean_linker_0, # of connection points: 2
#     Edge 34, Type (0, 1), BuildingBlock: MIFKUJ_clean_linker_0, # of connection points: 2
#     Edge 35, Type (0, 1), BuildingBlock: MIFKUJ_clean_linker_0, # of connection points: 2
#     Edge 36, Type (0, 1), BuildingBlock: MIFKUJ_clean_linker_0, # of connection points: 2
#     Edge 37, Type (0, 1), BuildingBlock: MIFKUJ_clean_linker_0, # of connection points: 2
#     Edge 38, Type (0, 1), BuildingBlock: MIFKUJ_clean_linker_0, # of connection points: 2
#     Edge 39, Type (0, 1), BuildingBlock: MIFKUJ_clean_linker_0, # of connection points: 2
#     Edge 40, Type (0, 1), BuildingBlock: MIFKUJ_clean_linker_0, # of connection points: 2
#     Edge 41, Type (0, 1), BuildingBlock: MIFKUJ_clean_linker_0, # of connection points: 2
#     Edge 42, Type (0, 1), BuildingBlock: MIFKUJ_clean_linker_0, # of connection points: 2
#     Edge 43, Type (0, 1), BuildingBlock: MIFKUJ_clean_linker_0, # of connection points: 2
#     Edge 44, Type (0, 1), BuildingBlock: MIFKUJ_clean_linker_0, # of connection points: 2
#     Edge 45, Type (0, 1), BuildingBlock: MIFKUJ_clean_linker_0, # of connection points: 2
#     Edge 46, Type (0, 1), BuildingBlock: MIFKUJ_clean_linker_0, # of connection points: 2
#     Edge 47, Type (0, 1), BuildingBlock: MIFKUJ_clean_linker_0, # of connection points: 2
#     Edge 48, Type (0, 1), BuildingBlock: MIFKUJ_clean_linker_0, # of connection points: 2
#     Edge 49, Type (0, 1), BuildingBlock: MIFKUJ_clean_linker_0, # of connection points: 2
#     Edge 50, Type (0, 1), BuildingBlock: MIFKUJ_clean_linker_0, # of connection points: 2
#     Edge 51, Type (0, 1), BuildingBlock: MIFKUJ_clean_linker_0, # of connection points: 2
#     Edge 52, Type (0, 1), BuildingBlock: MIFKUJ_clean_linker_0, # of connection points: 2
#     Edge 53, Type (0, 1), BuildingBlock: MIFKUJ_clean_linker_0, # of connection points: 2
#     Edge 54, Type (0, 1), BuildingBlock: MIFKUJ_clean_linker_0, # of connection points: 2
#     Edge 55, Type (0, 1), BuildingBlock: MIFKUJ_clean_linker_0, # of connection points: 2
#     Edge 56, Type (0, 1), BuildingBlock: MIFKUJ_clean_linker_0, # of connection points: 2
#     Edge 57, Type (0, 1), BuildingBlock: MIFKUJ_clean_linker_0, # of connection points: 2
#     Edge 58, Type (0, 1), BuildingBlock: MIFKUJ_clean_linker_0, # of connection points: 2
#     Edge 59, Type (0, 1), BuildingBlock: MIFKUJ_clean_linker_0, # of connection points: 2
#     Edge 60, Type (0, 1), BuildingBlock: MIFKUJ_clean_linker_0, # of connection points: 2
#     Edge 61, Type (0, 1), BuildingBlock: MIFKUJ_clean_linker_0, # of connection points: 2
#     Edge 62, Type (0, 1), BuildingBlock: MIFKUJ_clean_linker_0, # of connection points: 2
#     Edge 63, Type (0, 1), BuildingBlock: MIFKUJ_clean_linker_0, # of connection points: 2
#     Edge 64, Type (0, 1), BuildingBlock: MIFKUJ_clean_linker_0, # of connection points: 2
#     Edge 65, Type (0, 1), BuildingBlock: MIFKUJ_clean_linker_0, # of connection points: 2
#     Edge 66, Type (0, 1), BuildingBlock: MIFKUJ_clean_linker_0, # of connection points: 2
#     Edge 67, Type (0, 1), BuildingBlock: MIFKUJ_clean_linker_0, # of connection points: 2
#     Edge 68, Type (0, 1), BuildingBlock: MIFKUJ_clean_linker_0, # of connection points: 2
#     Edge 69, Type (0, 1), BuildingBlock: MIFKUJ_clean_linker_0, # of connection points: 2
#     Edge 70, Type (0, 1), BuildingBlock: MIFKUJ_clean_linker_0, # of connection points: 2
#     Edge 71, Type (0, 1), BuildingBlock: MIFKUJ_clean_linker_0, # of connection points: 2
#     Edge 72, Type (0, 1), BuildingBlock: MIFKUJ_clean_linker_0, # of connection points: 2
#     Edge 73, Type (0, 1), BuildingBlock: MIFKUJ_clean_linker_0, # of connection points: 2
#     Edge 74, Type (0, 1), BuildingBlock: MIFKUJ_clean_linker_0, # of connection points: 2
#     Edge 75, Type (0, 1), BuildingBlock: MIFKUJ_clean_linker_0, # of connection points: 2
# Relax obj value: 0.093
# Max RMSD: 0.191
# Mean RMSD: 0.143
data_MOF--net-ctn--node1-QUQFOY_clean_sbu_1--node2-BETDIP_clean_linker_0--edge1-MIFKUJ_clean_linker_0
_symmetry_space_group_name_H-M    P1
_symmetry_Int_Tables_number       1
_symmetry_cell_setting            triclinic
loop_
_symmetry_equiv_pos_as_xyz
'x, y, z'
_cell_length_a     68.034341
_cell_length_b     68.145084
_cell_length_c     75.144862
_cell_angle_alpha  96.539974
_cell_angle_beta   93.844429
_cell_angle_gamma 97.519646
loop_
_atom_site_label
_atom_site_type_symbol
_atom_site_fract_x
_atom_site_fract_y
_atom_site_fract_z
_atom_type_partial_charge
H0 H 0.06111 0.13738 0.09558 0.0
H1 H 0.10657 0.11169 0.06805 0.0
H2 H 0.08742 0.08967 0.11637 0.0
H3 H 0.113 0.14424 0.06028 0.0
C4 C 0.09763 0.14585 0.05656 0.0
C5 C 0.07192 0.12701 0.09498 0.0
C6 C 0.07265 0.11344 0.10766 0.0
C7 C 0.08459 0.1269 0.08106 0.0
C8 C 0.09782 0.11271 0.07954 0.0
C9 C 0.09886 0.09899 0.0921 0.0
C10 C 0.08647 0.0998 0.10633 0.0
N11 N 0.08256 0.14009 0.06792 0.0
H12 H 0.26296 0.72558 0.21366 0.0
H13 H 0.31863 0.75812 0.23736 0.0
H14 H 0.29943 0.69965 0.25112 0.0
H15 H 0.31732 0.77196 0.21145 0.0
C16 C 0.30173 0.77351 0.20892 0.0
C17 C 0.27624 0.72645 0.22269 0.0
C18 C 0.27933 0.71044 0.2323 0.0
C19 C 0.29049 0.74346 0.22409 0.0
C20 C 0.30791 0.74471 0.23559 0.0
C21 C 0.3113 0.72888 0.24532 0.0
C22 C 0.29691 0.71186 0.2436 0.0
N23 N 0.28673 0.75907 0.21386 0.0
H24 H 0.89524 0.47306 0.03728 0.0
H25 H 0.9316 0.43969 0.06763 0.0
H26 H 0.92602 0.50014 0.08782 0.0
H27 H 0.90796 0.41281 0.05191 0.0
C28 C 0.91053 0.41831 0.03912 0.0
C29 C 0.90466 0.4721 0.04928 0.0
C30 C 0.9095 0.48873 0.06245 0.0
C31 C 0.91206 0.45422 0.05133 0.0
C32 C 0.92477 0.45304 0.06657 0.0
C33 C 0.93001 0.46956 0.07978 0.0
C34 C 0.92196 0.48725 0.07778 0.0
N35 N 0.90823 0.43835 0.03704 0.0
H36 H 0.72752 0.79303 0.21345 0.0
H37 H 0.74748 0.84547 0.25087 0.0
H38 H 0.77515 0.83608 0.20129 0.0
H39 H 0.73943 0.81956 0.27046 0.0
C40 C 0.72444 0.81535 0.26403 0.0
C41 C 0.73735 0.80697 0.21707 0.0
C42 C 0.75192 0.81302 0.2057 0.0
C43 C 0.73601 0.8184 0.23353 0.0
C44 C 0.74873 0.83651 0.23825 0.0
C45 C 0.76286 0.84318 0.22666 0.0
C46 C 0.76447 0.83115 0.21049 0.0
N47 N 0.72147 0.8117 0.24498 0.0
H48 H 0.06122 0.95008 0.43267 0.0
H49 H 0.11883 0.96432 0.46196 0.0
H50 H 0.10246 0.99965 0.42113 0.0
H51 H 0.11334 0.92969 0.46341 0.0
C52 C 0.09837 0.92941 0.46768 0.0
C53 C 0.07572 0.9591 0.43492 0.0
C54 C 0.08033 0.9751 0.42495 0.0
C55 C 0.08974 0.95468 0.44787 0.0
C56 C 0.10826 0.96686 0.45133 0.0
C57 C 0.11293 0.98297 0.4416 0.0
C58 C 0.09909 0.98676 0.42821 0.0
N59 N 0.08432 0.93897 0.45824 0.0
H60 H 0.23141 0.79064 0.82331 0.0
H61 H 0.26261 0.75159 0.79043 0.0
H62 H 0.28072 0.7659 0.84681 0.0
H63 H 0.23233 0.74551 0.7741 0.0
C64 C 0.22778 0.76025 0.77463 0.0
C65 C 0.2433 0.78155 0.8221 0.0
C66 C 0.2557 0.77951 0.83732 0.0
C67 C 0.24554 0.77144 0.80527 0.0
C68 C 0.26063 0.7593 0.80345 0.0
C69 C 0.27325 0.75706 0.81845 0.0
C70 C 0.2707 0.76722 0.83532 0.0
N71 N 0.23251 0.77408 0.79044 0.0
H72 H 0.96571 0.62115 0.444 0.0
H73 H 0.9294 0.56403 0.42985 0.0
H74 H 0.92079 0.60107 0.47801 0.0
H75 H 0.9385 0.56882 0.40144 0.0
C76 C 0.95407 0.57489 0.40468 0.0
C77 C 0.95349 0.61022 0.44659 0.0
C78 C 0.94368 0.61325 0.46227 0.0
C79 C 0.94829 0.59269 0.43463 0.0
C80 C 0.93308 0.57806 0.43848 0.0
C81 C 0.92295 0.58125 0.45396 0.0
C82 C 0.92823 0.59887 0.46575 0.0
N83 N 0.95981 0.58949 0.4198 0.0
H84 H 0.79382 0.82945 0.77277 0.0
H85 H 0.82302 0.79592 0.80877 0.0
H86 H 0.77088 0.82085 0.82381 0.0
H87 H 0.83554 0.78324 0.78407 0.0
C88 C 0.83752 0.79554 0.77607 0.0
C89 C 0.79454 0.82331 0.78544 0.0
C90 C 0.78055 0.82686 0.79795 0.0
C91 C 0.80959 0.81186 0.78903 0.0
C92 C 0.8108 0.80387 0.80542 0.0
C93 C 0.79669 0.80673 0.81796 0.0
C94 C 0.78162 0.8183 0.81411 0.0
N95 N 0.82386 0.80962 0.77625 0.0
H96 H 0.29971 0.3429 0.28198 0.0
H97 H 0.3245 0.30498 0.3168 0.0
H98 H 0.26638 0.32112 0.32408 0.0
H99 H 0.35266 0.31497 0.30658 0.0
C100 C 0.34971 0.31929 0.29332 0.0
C101 C 0.29843 0.33416 0.29314 0.0
C102 C 0.28116 0.33312 0.3024 0.0
C103 C 0.31417 0.32412 0.29819 0.0
C104 C 0.3125 0.3128 0.31267 0.0
C105 C 0.29538 0.31172 0.32221 0.0
C106 C 0.27965 0.32178 0.31684 0.0
N107 N 0.33124 0.32557 0.28822 0.0
H108 H 0.39701 0.97256 0.53597 0.0
H109 H 0.43354 0.93895 0.566 0.0
H110 H 0.43378 0.00144 0.58285 0.0
H111 H 0.40971 0.91221 0.55159 0.0
C112 C 0.41119 0.91737 0.53851 0.0
C113 C 0.40726 0.97184 0.54748 0.0
C114 C 0.41414 0.98909 0.55949 0.0
C115 C 0.41409 0.95374 0.54976 0.0
C116 C 0.42797 0.95284 0.56428 0.0
C117 C 0.43521 0.96997 0.57632 0.0
C118 C 0.42812 0.98803 0.57383 0.0
N119 N 0.40831 0.93723 0.5363 0.0
H120 H 0.23234 0.29582 0.71642 0.0
H121 H 0.24554 0.3543 0.74654 0.0
H122 H 0.27105 0.34204 0.69649 0.0
H123 H 0.23706 0.33825 0.76965 0.0
C124 C 0.22515 0.32651 0.76411 0.0
C125 C 0.24004 0.31096 0.71798 0.0
C126 C 0.25186 0.31743 0.70458 0.0
C127 C 0.23779 0.32402 0.73329 0.0
C128 C 0.24738 0.34383 0.73504 0.0
C129 C 0.25958 0.35031 0.72192 0.0
C130 C 0.26172 0.33706 0.70671 0.0
N131 N 0.22525 0.31696 0.74628 0.0
H132 H 0.76155 0.22752 0.71625 0.0
H133 H 0.82118 0.25746 0.72926 0.0
H134 H 0.80198 0.20422 0.75225 0.0
H135 H 0.81061 0.28304 0.71952 0.0
C136 C 0.79681 0.27857 0.71113 0.0
C137 C 0.77595 0.22852 0.72363 0.0
C138 C 0.78013 0.21344 0.73404 0.0
C139 C 0.79034 0.24487 0.72234 0.0
C140 C 0.80948 0.24573 0.73105 0.0
C141 C 0.81388 0.23101 0.74177 0.0
C142 C 0.79897 0.21517 0.74343 0.0
N143 N 0.7851 0.25983 0.71185 0.0
H144 H 0.57273 0.63953 0.60039 0.0
H145 H 0.61246 0.60859 0.56926 0.0
H146 H 0.5889 0.58397 0.61474 0.0
H147 H 0.62191 0.64067 0.5616 0.0
C148 C 0.60703 0.64451 0.55927 0.0
C149 C 0.58097 0.62702 0.59821 0.0
C150 C 0.57945 0.61201 0.60962 0.0
C151 C 0.59305 0.6261 0.58384 0.0
C152 C 0.60377 0.60991 0.58078 0.0
C153 C 0.60234 0.59466 0.59193 0.0
C154 C 0.59022 0.59588 0.60631 0.0
N155 N 0.5927 0.64072 0.57182 0.0
H156 H 0.55128 0.45415 0.94358 0.0
H157 H 0.6098 0.47535 0.96939 0.0
H158 H 0.58615 0.5051 0.92703 0.0
H159 H 0.60853 0.44152 0.97296 0.0
C160 C 0.59375 0.43968 0.97775 0.0
C161 C 0.56502 0.46442 0.94473 0.0
C162 C 0.56713 0.47973 0.93377 0.0
C163 C 0.58066 0.46228 0.95716 0.0
C164 C 0.59816 0.47613 0.95906 0.0
C165 C 0.60019 0.49179 0.94839 0.0
C166 C 0.58472 0.49322 0.93551 0.0
N167 N 0.57788 0.44703 0.9685 0.0
H168 H 0.73684 0.29271 0.32422 0.0
H169 H 0.76533 0.25431 0.28803 0.0
H170 H 0.77554 0.25395 0.34495 0.0
H171 H 0.75129 0.26791 0.26654 0.0
C172 C 0.7395 0.27571 0.27157 0.0
C173 C 0.74661 0.28146 0.32212 0.0
C174 C 0.7559 0.27435 0.33689 0.0
C175 C 0.74968 0.27428 0.30449 0.0
C176 C 0.76262 0.25995 0.30152 0.0
C177 C 0.77229 0.25279 0.31609 0.0
C178 C 0.76873 0.25998 0.33371 0.0
N179 N 0.73871 0.28125 0.2903 0.0
H180 H 0.4721 0.11982 0.9462 0.0
H181 H 0.4351 0.06284 0.93758 0.0
H182 H 0.42789 0.10531 0.98266 0.0
H183 H 0.44273 0.06495 0.90802 0.0
C184 C 0.45851 0.07038 0.91073 0.0
C185 C 0.45992 0.10966 0.95001 0.0
C186 C 0.45021 0.115 0.96534 0.0
C187 C 0.45421 0.09114 0.93965 0.0
C188 C 0.43902 0.07756 0.94501 0.0
C189 C 0.4294 0.08262 0.96049 0.0
C190 C 0.43478 0.10154 0.97035 0.0
N191 N 0.4652 0.08596 0.92486 0.0
O192 O 0.25876 0.88768 0.02051 0.0
Cd193 Cd 0.27077 0.90645 0.04311 0.0
Cd194 Cd 0.24553 0.93099 0.03066 0.0
O195 O 0.23848 0.90742 0.01037 0.0
O196 O 0.28418 0.88983 0.05877 0.0
O197 O 0.25856 0.90486 0.06666 0.0
C198 C 0.2718 0.89367 0.07051 0.0
C199 C 0.22064 0.94923 0.04038 0.0
C200 C 0.24586 0.89116 0.00868 0.0
C201 C 0.28978 0.94542 0.03393 0.0
O202 O 0.2722 0.94885 0.03014 0.0
O203 O 0.29279 0.92906 0.03945 0.0
O204 O 0.22712 0.95006 0.02476 0.0
O205 O 0.22759 0.93712 0.0504 0.0
O206 O 0.14997 0.52581 0.26152 0.0
Cd207 Cd 0.13355 0.50273 0.27165 0.0
Cd208 Cd 0.10416 0.50946 0.24563 0.0
O209 O 0.1265 0.53181 0.242 0.0
O210 O 0.15375 0.49108 0.28578 0.0
O211 O 0.13534 0.47423 0.26215 0.0
C212 C 0.1492 0.47482 0.27491 0.0
C213 C 0.0841 0.49608 0.21953 0.0
C214 C 0.14405 0.53591 0.24954 0.0
C215 C 0.09485 0.51224 0.28466 0.0
O216 O 0.08895 0.51231 0.26829 0.0
O217 O 0.11247 0.50926 0.2891 0.0
O218 O 0.08394 0.51403 0.22688 0.0
O219 O 0.09576 0.48536 0.227 0.0
O220 O 0.78864 0.70905 0.9858 0.0
Cd221 Cd 0.77961 0.69148 0.0053 0.0
Cd222 Cd 0.80536 0.66882 0.99064 0.0
O223 O 0.81192 0.69199 0.97583 0.0
O224 O 0.7644 0.70817 0.02115 0.0
O225 O 0.79219 0.69764 0.03069 0.0
C226 C 0.77752 0.70736 0.03413 0.0
C227 C 0.82966 0.65518 0.00642 0.0
C228 C 0.80237 0.70677 0.97539 0.0
C229 C 0.76307 0.65031 0.98758 0.0
O230 O 0.78018 0.64906 0.98216 0.0
O231 O 0.75998 0.66564 0.99772 0.0
O232 O 0.82738 0.65246 0.98909 0.0
O233 O 0.81875 0.66671 0.01485 0.0
O234 O 0.94929 0.05189 0.28976 0.0
Cd235 Cd 0.93076 0.05523 0.26782 0.0
Cd236 Cd 0.90717 0.06622 0.29384 0.0
O237 O 0.93031 0.06098 0.31103 0.0
O238 O 0.9476 0.05139 0.24746 0.0
O239 O 0.93582 0.07964 0.25487 0.0
C240 C 0.94618 0.06941 0.24451 0.0
C241 C 0.89433 0.09627 0.29767 0.0
C242 C 0.94625 0.05482 0.30629 0.0
C243 C 0.89082 0.03019 0.26823 0.0
O244 O 0.88788 0.04176 0.28197 0.0
O245 O 0.90679 0.03324 0.26049 0.0
O246 O 0.89082 0.08295 0.30837 0.0
O247 O 0.9057 0.09272 0.28491 0.0
O248 O 0.288 0.20917 0.488 0.0
Cd249 Cd 0.28026 0.19098 0.50739 0.0
Cd250 Cd 0.30704 0.17033 0.49196 0.0
O251 O 0.3125 0.19416 0.47778 0.0
O252 O 0.26504 0.2074 0.52344 0.0
O253 O 0.29288 0.19682 0.53281 0.0
C254 C 0.27829 0.20662 0.53632 0.0
C255 C 0.33248 0.15683 0.50626 0.0
C256 C 0.30188 0.20814 0.47757 0.0
C257 C 0.26527 0.14994 0.48895 0.0
O258 O 0.2824 0.14991 0.48323 0.0
O259 O 0.26154 0.16455 0.49965 0.0
O260 O 0.32972 0.15507 0.48898 0.0
O261 O 0.32134 0.1673 0.51556 0.0
O262 O 0.44452 0.55069 0.78857 0.0
Cd263 Cd 0.42818 0.55649 0.7661 0.0
Cd264 Cd 0.40558 0.57064 0.79218 0.0
O265 O 0.42769 0.56411 0.80969 0.0
O266 O 0.4463 0.5508 0.7471 0.0
O267 O 0.43681 0.58043 0.75339 0.0
C268 C 0.44718 0.5691 0.74409 0.0
C269 C 0.39436 0.60153 0.79692 0.0
C270 C 0.44213 0.55514 0.80509 0.0
C271 C 0.38649 0.53567 0.76587 0.0
O272 O 0.3851 0.54713 0.78017 0.0
O273 O 0.40222 0.5375 0.75764 0.0
O274 O 0.38994 0.58784 0.80706 0.0
O275 O 0.4056 0.5978 0.7841 0.0
O276 O 0.76122 0.38382 0.51951 0.0
Cd277 Cd 0.76918 0.4055 0.54108 0.0
Cd278 Cd 0.74033 0.42267 0.52581 0.0
O279 O 0.73458 0.39574 0.5094 0.0
O280 O 0.78393 0.39326 0.55962 0.0
O281 O 0.75477 0.40363 0.56344 0.0
C282 C 0.76944 0.39536 0.56957 0.0
C283 C 0.7145 0.4386 0.53682 0.0
C284 C 0.746 0.38236 0.50842 0.0
C285 C 0.78249 0.44324 0.52675 0.0
O286 O 0.76444 0.4423 0.52081 0.0
O287 O 0.78776 0.43035 0.53633 0.0
O288 O 0.71776 0.4373 0.52007 0.0
O289 O 0.72536 0.42985 0.54733 0.0
O290 O 0.65151 0.02734 0.76661 0.0
Cd291 Cd 0.6355 0.00252 0.77454 0.0
Cd292 Cd 0.60576 0.01155 0.74915 0.0
O293 O 0.62779 0.03526 0.74835 0.0
O294 O 0.65502 0.99011 0.78876 0.0
O295 O 0.63906 0.97512 0.76318 0.0
C296 C 0.65164 0.97472 0.77676 0.0
C297 C 0.58537 0.00176 0.72246 0.0
C298 C 0.64531 0.03889 0.75603 0.0
C299 C 0.59588 0.00871 0.78764 0.0
O300 O 0.59011 0.01025 0.77152 0.0
O301 O 0.61372 0.00637 0.79186 0.0
O302 O 0.58472 0.01832 0.73232 0.0
O303 O 0.59808 0.99059 0.72752 0.0
O304 O 0.00242 0.28005 0.91054 0.0
Cd305 Cd 0.01197 0.2583 0.89309 0.0
Cd306 Cd 0.02548 0.29002 0.87767 0.0
O307 O 0.01772 0.30642 0.90018 0.0
O308 O 0.00954 0.23462 0.90638 0.0
O309 O 0.03842 0.24958 0.89956 0.0
C310 C 0.02867 0.23598 0.90747 0.0
C311 C 0.05706 0.29542 0.86757 0.0
C312 C 0.00706 0.29885 0.9116 0.0
C313 C 0.99288 0.26099 0.85685 0.0
O314 O 0.00278 0.27833 0.85844 0.0
O315 O 0.99542 0.24948 0.86873 0.0
O316 O 0.04443 0.30774 0.86559 0.0
O317 O 0.05195 0.28026 0.87598 0.0
O318 O 0.5037 0.77748 0.41338 0.0
Cd319 Cd 0.51169 0.75402 0.39706 0.0
Cd320 Cd 0.5233 0.78356 0.37754 0.0
O321 O 0.51487 0.80212 0.39848 0.0
O322 O 0.51035 0.73232 0.41266 0.0
O323 O 0.53838 0.74522 0.40259 0.0
C324 C 0.52934 0.73303 0.41233 0.0
C325 C 0.5541 0.79045 0.36624 0.0
C326 C 0.50647 0.79598 0.41182 0.0
C327 C 0.4903 0.75166 0.36081 0.0
O328 O 0.50095 0.76811 0.35954 0.0
O329 O 0.49263 0.74281 0.37465 0.0
O330 O 0.53977 0.8004 0.36268 0.0
O331 O 0.55117 0.77688 0.37685 0.0
O332 O 0.00867 0.7864 0.66183 0.0
Cd333 Cd 0.02958 0.78059 0.64406 0.0
Cd334 Cd 0.01465 0.8087 0.6277 0.0
O335 O 0.99961 0.81257 0.65043 0.0
O336 O 0.04811 0.76533 0.65644 0.0
O337 O 0.05727 0.79551 0.64898 0.0
C338 C 0.06182 0.78026 0.6563 0.0
C339 C 0.03254 0.83496 0.61611 0.0
C340 C 0.99845 0.80077 0.66237 0.0
C341 C 0.0089 0.76791 0.60745 0.0
O342 O 0.00386 0.78525 0.60837 0.0
O343 O 0.02009 0.76322 0.62004 0.0
O344 O 0.01336 0.83262 0.61518 0.0
O345 O 0.04168 0.823 0.62475 0.0
O346 O 0.50772 0.2891 0.16622 0.0
Cd347 Cd 0.529 0.28319 0.14861 0.0
Cd348 Cd 0.51245 0.30967 0.13123 0.0
O349 O 0.49714 0.31385 0.15357 0.0
O350 O 0.54717 0.26812 0.16166 0.0
O351 O 0.55674 0.29804 0.15389 0.0
C352 C 0.56104 0.28291 0.16153 0.0
C353 C 0.53094 0.33593 0.12018 0.0
C354 C 0.49674 0.30283 0.1661 0.0
C355 C 0.5088 0.26903 0.11174 0.0
O356 O 0.50218 0.28563 0.11245 0.0
O357 O 0.52072 0.26552 0.12436 0.0
O358 O 0.51174 0.33342 0.11842 0.0
O359 O 0.53971 0.32391 0.12906 0.0
H360 H 0.24567 0.81709 0.84489 0.0
H361 H 0.24042 0.83425 0.87404 0.0
H362 H 0.25526 0.78398 0.89968 0.0
H363 H 0.25922 0.76609 0.87035 0.0
H364 H 0.22538 0.79762 0.91461 0.0
H365 H 0.28895 0.82721 0.9001 0.0
H366 H 0.3132 0.84357 0.88158 0.0
H367 H 0.28072 0.89353 0.88169 0.0
H368 H 0.25611 0.87734 0.90001 0.0
H369 H 0.25405 0.85286 0.00222 0.0
H370 H 0.25161 0.83221 0.9731 0.0
H371 H 0.22566 0.87758 0.94785 0.0
H372 H 0.22783 0.89826 0.97691 0.0
H373 H 0.26031 0.86626 0.93297 0.0
H374 H 0.19753 0.83579 0.94966 0.0
H375 H 0.17522 0.81888 0.96945 0.0
H376 H 0.20906 0.76983 0.96696 0.0
H377 H 0.23176 0.78659 0.94735 0.0
C378 C 0.24753 0.8095 0.85666 0.0
C379 C 0.25293 0.79017 0.85521 0.0
C380 C 0.24477 0.81947 0.87338 0.0
C381 C 0.24778 0.81056 0.88911 0.0
C382 C 0.25294 0.7912 0.88774 0.0
C383 C 0.25545 0.78109 0.87096 0.0
C384 C 0.24578 0.82159 0.90698 0.0
C385 C 0.2332 0.81254 0.9187 0.0
C386 C 0.25578 0.84116 0.91226 0.0
C387 C 0.27057 0.85097 0.90127 0.0
C388 C 0.28689 0.84162 0.89606 0.0
C389 C 0.30072 0.85087 0.88562 0.0
C390 C 0.29848 0.86955 0.88042 0.0
C391 C 0.28243 0.87904 0.8857 0.0
C392 C 0.26854 0.86985 0.89612 0.0
C393 C 0.24744 0.85827 0.99054 0.0
C394 C 0.24126 0.87726 0.99186 0.0
C395 C 0.24601 0.84643 0.97393 0.0
C396 C 0.23851 0.85343 0.95836 0.0
C397 C 0.2315 0.87195 0.95975 0.0
C398 C 0.23268 0.8837 0.97638 0.0
C399 C 0.23983 0.84235 0.94047 0.0
C400 C 0.2524 0.85138 0.92879 0.0
C401 C 0.23012 0.82267 0.93542 0.0
C402 C 0.21646 0.81254 0.94717 0.0
C403 C 0.20033 0.82149 0.95346 0.0
C404 C 0.18758 0.81191 0.96462 0.0
C405 C 0.19075 0.79332 0.9695 0.0
C406 C 0.20663 0.78424 0.96319 0.0
C407 C 0.21943 0.79377 0.95203 0.0
H408 H 0.18086 0.78593 0.97813 0.0
H409 H 0.3092 0.87669 0.87234 0.0
H410 H 0.99465 0.58254 0.41083 0.0
H411 H 0.01926 0.57051 0.39172 0.0
H412 H 0.97215 0.54027 0.353 0.0
H413 H 0.94737 0.5518 0.37246 0.0
H414 H 0.99933 0.517 0.35741 0.0
H415 H 0.00024 0.58497 0.34645 0.0
H416 H 0.00283 0.6214 0.35429 0.0
H417 H 0.0621 0.62309 0.37855 0.0
H418 H 0.05975 0.5866 0.37106 0.0
H419 H 0.05444 0.50818 0.28028 0.0
H420 H 0.03163 0.51703 0.30266 0.0
H421 H 0.08113 0.53472 0.34269 0.0
H422 H 0.10416 0.5256 0.32037 0.0
H423 H 0.05425 0.56373 0.33891 0.0
H424 H 0.053 0.49484 0.34727 0.0
H425 H 0.04956 0.45868 0.33754 0.0
H426 H 0.98967 0.45926 0.31581 0.0
H427 H 0.99284 0.4955 0.32517 0.0
C428 C 0.98952 0.57342 0.39821 0.0
C429 C 0.9691 0.56821 0.39299 0.0
C430 C 0.00361 0.56659 0.38727 0.0
C431 C 0.99757 0.55474 0.3708 0.0
C432 C 0.97716 0.54943 0.36565 0.0
C433 C 0.96304 0.55607 0.37669 0.0
C434 C 0.01253 0.54776 0.35901 0.0
C435 C 0.0112 0.52726 0.35321 0.0
C436 C 0.02828 0.56109 0.35383 0.0
C437 C 0.02973 0.58303 0.35837 0.0
C438 C 0.01376 0.59309 0.35359 0.0
C439 C 0.0152 0.61375 0.35795 0.0
C440 C 0.0326 0.62455 0.36696 0.0
C441 C 0.04862 0.6147 0.3716 0.0
C442 C 0.04725 0.59403 0.36729 0.0
C443 C 0.06048 0.51378 0.29388 0.0
C444 C 0.08109 0.51626 0.29858 0.0
C445 C 0.04742 0.51874 0.30665 0.0
C446 C 0.05474 0.52645 0.32428 0.0
C447 C 0.07527 0.52873 0.32912 0.0
C448 C 0.08835 0.52347 0.3164 0.0
C449 C 0.04093 0.53308 0.33731 0.0
C450 C 0.04245 0.55351 0.34327 0.0
C451 C 0.0252 0.51974 0.3424 0.0
C452 C 0.02323 0.49793 0.33679 0.0
C453 C 0.03915 0.4873 0.34027 0.0
C454 C 0.03724 0.46677 0.33486 0.0
C455 C 0.01943 0.45668 0.32603 0.0
C456 C 0.00347 0.46709 0.32263 0.0
C457 C 0.00531 0.48762 0.32802 0.0
H458 H 0.01797 0.44079 0.32184 0.0
H459 H 0.03368 0.64055 0.37032 0.0
H460 H 0.80667 0.77003 0.82298 0.0
H461 H 0.8095 0.75545 0.85096 0.0
H462 H 0.7912 0.80766 0.8796 0.0
H463 H 0.78965 0.82301 0.85177 0.0
H464 H 0.82002 0.79614 0.89886 0.0
H465 H 0.75881 0.76338 0.86832 0.0
H466 H 0.73639 0.74485 0.84309 0.0
H467 H 0.76995 0.69567 0.84283 0.0
H468 H 0.79275 0.71403 0.86791 0.0
H469 H 0.78975 0.74309 0.97342 0.0
H470 H 0.79122 0.76254 0.94792 0.0
H471 H 0.82319 0.71966 0.91988 0.0
H472 H 0.82213 0.70033 0.94533 0.0
H473 H 0.7866 0.72739 0.9013 0.0
H474 H 0.84779 0.76175 0.9328 0.0
H475 H 0.86849 0.78084 0.95885 0.0
H476 H 0.83203 0.82771 0.95842 0.0
H477 H 0.81093 0.80875 0.93251 0.0
C478 C 0.80351 0.77858 0.83524 0.0
C479 C 0.79789 0.79771 0.83506 0.0
C480 C 0.80488 0.77009 0.85122 0.0
C481 C 0.80021 0.78029 0.86735 0.0
C482 C 0.79477 0.79946 0.8673 0.0
C483 C 0.79365 0.80811 0.85132 0.0
C484 C 0.80101 0.77085 0.88419 0.0
C485 C 0.81247 0.78122 0.89946 0.0
C486 C 0.79132 0.75129 0.88496 0.0
C487 C 0.7776 0.74016 0.8699 0.0
C488 C 0.7615 0.74867 0.8628 0.0
C489 C 0.74871 0.73819 0.84853 0.0
C490 C 0.75177 0.71911 0.84133 0.0
C491 C 0.76761 0.71046 0.84841 0.0
C492 C 0.78046 0.72089 0.86266 0.0
C493 C 0.79742 0.73801 0.96197 0.0
C494 C 0.80573 0.72011 0.96135 0.0
C495 C 0.79827 0.74915 0.94745 0.0
C496 C 0.80725 0.74244 0.93206 0.0
C497 C 0.81619 0.72502 0.93167 0.0
C498 C 0.81563 0.71405 0.94626 0.0
C499 C 0.80581 0.75258 0.91575 0.0
C500 C 0.79411 0.74232 0.90064 0.0
C501 C 0.81498 0.77231 0.91526 0.0
C502 C 0.82764 0.78372 0.93084 0.0
C503 C 0.84406 0.77603 0.93837 0.0
C504 C 0.8559 0.78685 0.95309 0.0
C505 C 0.85154 0.80545 0.96032 0.0
C506 C 0.83537 0.81328 0.95282 0.0
C507 C 0.82348 0.80251 0.93811 0.0
H508 H 0.86073 0.8138 0.97171 0.0
H509 H 0.74185 0.71102 0.83029 0.0
H510 H 0.04174 0.97941 0.4302 0.0
H511 H 0.01827 0.99305 0.41051 0.0
H512 H 0.06158 0.99767 0.37122 0.0
H513 H 0.08518 0.98435 0.39102 0.0
H514 H 0.04679 0.0313 0.37692 0.0
H515 H 0.0194 0.96216 0.3648 0.0
H516 H 0.00586 0.92898 0.37221 0.0
H517 H 0.95799 0.95381 0.39686 0.0
H518 H 0.9714 0.9872 0.3898 0.0
H519 H 0.98395 0.04662 0.30176 0.0
H520 H 0.00631 0.03404 0.32316 0.0
H521 H 0.96351 0.03762 0.36281 0.0
H522 H 0.94098 0.05028 0.34147 0.0
H523 H 0.97721 0.00074 0.35805 0.0
H524 H 0.0045 0.0699 0.36867 0.0
H525 H 0.01815 0.1026 0.36031 0.0
H526 H 0.06649 0.07695 0.33731 0.0
H527 H 0.05297 0.04401 0.3453 0.0
C528 C 0.04607 0.98295 0.4172 0.0
C529 C 0.06525 0.98082 0.41211 0.0
C530 C 0.03268 0.99078 0.40597 0.0
C531 C 0.03814 0.99632 0.38935 0.0
C532 C 0.05708 0.9936 0.38402 0.0
C533 C 0.07052 0.98595 0.3953 0.0
C534 C 0.02455 0.0059 0.37789 0.0
C535 C 0.03166 0.02446 0.3726 0.0
C536 C 0.00463 0.99728 0.37267 0.0
C537 C 0.99653 0.97722 0.37694 0.0
C538 C 0.00608 0.96057 0.37193 0.0
C539 C 0.99841 0.94173 0.37604 0.0
C540 C 0.9811 0.9393 0.38505 0.0
C541 C 0.97141 0.95571 0.38991 0.0
C542 C 0.97903 0.9746 0.38585 0.0
C543 C 0.97937 0.04498 0.3151 0.0
C544 C 0.96067 0.04942 0.3199 0.0
C545 C 0.99219 0.03783 0.32732 0.0
C546 C 0.98655 0.03494 0.34455 0.0
C547 C 0.9681 0.03975 0.34955 0.0
C548 C 0.95531 0.04709 0.33738 0.0
C549 C 0.99956 0.02596 0.35697 0.0
C550 C 0.99233 0.00755 0.36245 0.0
C551 C 0.01942 0.03463 0.36224 0.0
C552 C 0.02761 0.05444 0.35744 0.0
C553 C 0.01795 0.07119 0.36169 0.0
C554 C 0.02568 0.08978 0.35705 0.0
C555 C 0.04315 0.09184 0.34825 0.0
C556 C 0.05295 0.07532 0.34411 0.0
C557 C 0.04527 0.05669 0.34871 0.0
H558 H 0.04912 0.10625 0.34467 0.0
H559 H 0.97518 0.92469 0.38821 0.0
H560 H 0.2637 0.28051 0.70236 0.0
H561 H 0.2684 0.25888 0.67488 0.0
H562 H 0.24881 0.30222 0.64263 0.0
H563 H 0.24451 0.324 0.66998 0.0
H564 H 0.231 0.2602 0.63206 0.0
H565 H 0.29471 0.30257 0.64732 0.0
H566 H 0.32439 0.31652 0.66771 0.0
H567 H 0.33889 0.25754 0.67123 0.0
H568 H 0.30909 0.24322 0.65106 0.0
H569 H 0.25724 0.23696 0.54509 0.0
H570 H 0.2531 0.25313 0.57494 0.0
H571 H 0.29039 0.21475 0.59862 0.0
H572 H 0.29537 0.19908 0.56849 0.0
H573 H 0.29882 0.2502 0.6158 0.0
H574 H 0.2381 0.20724 0.59894 0.0
H575 H 0.20812 0.19168 0.57961 0.0
H576 H 0.18712 0.2485 0.58058 0.0
H577 H 0.21711 0.26446 0.59972 0.0
C578 C 0.26031 0.28529 0.68937 0.0
C579 C 0.25381 0.30387 0.68819 0.0
C580 C 0.26304 0.27301 0.67376 0.0
C581 C 0.25898 0.27904 0.65681 0.0
C582 C 0.252 0.29735 0.65562 0.0
C583 C 0.24963 0.30977 0.67119 0.0
C584 C 0.26231 0.26652 0.6402 0.0
C585 C 0.2458 0.25806 0.62839 0.0
C586 C 0.28159 0.26319 0.63585 0.0
C587 C 0.29955 0.27181 0.64787 0.0
C588 C 0.30412 0.29256 0.65258 0.0
C589 C 0.32099 0.30054 0.66407 0.0
C590 C 0.33349 0.28792 0.67081 0.0
C591 C 0.32917 0.26729 0.66603 0.0
C592 C 0.3123 0.25924 0.65457 0.0
C593 C 0.26459 0.23197 0.55665 0.0
C594 C 0.2765 0.21665 0.55449 0.0
C595 C 0.2621 0.24113 0.57374 0.0
C596 C 0.27097 0.2348 0.5891 0.0
C597 C 0.28326 0.21979 0.58698 0.0
C598 C 0.28609 0.21085 0.56979 0.0
C599 C 0.26748 0.24414 0.60727 0.0
C600 C 0.28395 0.25201 0.61945 0.0
C601 C 0.24808 0.24662 0.61212 0.0
C602 C 0.22994 0.23707 0.60068 0.0
C603 C 0.22715 0.21644 0.59494 0.0
C604 C 0.21015 0.20755 0.58403 0.0
C605 C 0.19575 0.2191 0.57885 0.0
C606 C 0.1983 0.23957 0.5846 0.0
C607 C 0.21528 0.24855 0.59551 0.0
H608 H 0.18259 0.21219 0.57039 0.0
H609 H 0.34654 0.29412 0.67969 0.0
H610 H 0.54248 0.62425 0.6097 0.0
H611 H 0.51921 0.62189 0.63309 0.0
H612 H 0.56187 0.59739 0.66594 0.0
H613 H 0.58569 0.60066 0.64318 0.0
H614 H 0.51613 0.57509 0.65156 0.0
H615 H 0.55977 0.63308 0.68494 0.0
H616 H 0.57642 0.6678 0.68754 0.0
H617 H 0.52 0.68822 0.67802 0.0
H618 H 0.50305 0.65354 0.67508 0.0
H619 H 0.47859 0.55307 0.73133 0.0
H620 H 0.4997 0.56436 0.70861 0.0
H621 H 0.466 0.61307 0.70307 0.0
H622 H 0.44518 0.60222 0.72663 0.0
H623 H 0.50376 0.62564 0.701 0.0
H624 H 0.45908 0.57042 0.67165 0.0
H625 H 0.44032 0.53649 0.66707 0.0
H626 H 0.495 0.51145 0.66563 0.0
H627 H 0.51411 0.54523 0.67046 0.0
C628 C 0.5472 0.61892 0.6221 0.0
C629 C 0.56596 0.61249 0.62445 0.0
C630 C 0.53381 0.6175 0.6354 0.0
C631 C 0.53893 0.60954 0.65118 0.0
C632 C 0.55776 0.60364 0.65383 0.0
C633 C 0.57125 0.60534 0.64071 0.0
C634 C 0.52398 0.60533 0.66409 0.0
C635 C 0.51348 0.58604 0.66248 0.0
C636 C 0.52001 0.61994 0.67773 0.0
C637 C 0.5302 0.64072 0.67952 0.0
C638 C 0.55095 0.64495 0.68317 0.0
C639 C 0.56043 0.66462 0.68477 0.0
C640 C 0.54929 0.6802 0.68287 0.0
C641 C 0.52862 0.67613 0.67943 0.0
C642 C 0.51907 0.65648 0.67781 0.0
C643 C 0.47563 0.56619 0.7253 0.0
C644 C 0.46007 0.57662 0.73059 0.0
C645 C 0.48768 0.5726 0.71223 0.0
C646 C 0.48412 0.58926 0.70373 0.0
C647 C 0.46892 0.60008 0.70932 0.0
C648 C 0.45703 0.59386 0.72273 0.0
C649 C 0.49632 0.59502 0.68897 0.0
C650 C 0.5062 0.61463 0.69006 0.0
C651 C 0.49946 0.58076 0.67455 0.0
C652 C 0.48803 0.56038 0.67154 0.0
C653 C 0.46711 0.55768 0.67047 0.0
C654 C 0.45642 0.53847 0.66782 0.0
C655 C 0.46647 0.52183 0.66609 0.0
C656 C 0.48724 0.52436 0.66697 0.0
C657 C 0.49801 0.54353 0.66964 0.0
H658 H 0.45816 0.50697 0.66404 0.0
H659 H 0.55665 0.69542 0.68412 0.0
H660 H 0.81966 0.31044 0.70152 0.0
H661 H 0.81074 0.33287 0.68015 0.0
H662 H 0.75109 0.30084 0.67188 0.0
H663 H 0.76034 0.27775 0.69266 0.0
H664 H 0.76251 0.30736 0.64143 0.0
H665 H 0.7627 0.34962 0.69592 0.0
H666 H 0.77496 0.36665 0.7261 0.0
H667 H 0.82522 0.39736 0.70423 0.0
H668 H 0.81342 0.3803 0.67396 0.0
H669 H 0.73734 0.38251 0.58733 0.0
H670 H 0.73765 0.36534 0.61437 0.0
H671 H 0.80178 0.37358 0.61824 0.0
H672 H 0.80159 0.3902 0.59105 0.0
H673 H 0.78215 0.38072 0.6526 0.0
H674 H 0.78247 0.33264 0.5988 0.0
H675 H 0.76827 0.31599 0.56898 0.0
H676 H 0.71336 0.29717 0.59116 0.0
H677 H 0.72719 0.31398 0.62107 0.0
C678 C 0.80463 0.30827 0.69519 0.0
C679 C 0.79073 0.29238 0.69868 0.0
C680 C 0.79946 0.32121 0.6831 0.0
C681 C 0.78009 0.31885 0.67462 0.0
C682 C 0.7661 0.30303 0.67827 0.0
C683 C 0.77139 0.28984 0.69014 0.0
C684 C 0.77495 0.33217 0.66116 0.0
C685 C 0.7664 0.32343 0.64409 0.0
C686 C 0.78004 0.3532 0.66447 0.0
C687 C 0.78722 0.36356 0.68266 0.0
C688 C 0.77644 0.3599 0.69756 0.0
C689 C 0.7833 0.36958 0.71468 0.0
C690 C 0.80087 0.38306 0.71708 0.0
C691 C 0.81161 0.38692 0.70235 0.0
C692 C 0.80482 0.37727 0.6852 0.0
C693 C 0.75148 0.38095 0.59415 0.0
C694 C 0.76944 0.38755 0.58708 0.0
C695 C 0.75163 0.37114 0.60954 0.0
C696 C 0.76974 0.36822 0.61821 0.0
C697 C 0.78768 0.37579 0.61174 0.0
C698 C 0.78753 0.38517 0.59618 0.0
C699 C 0.7702 0.35576 0.63305 0.0
C700 C 0.7779 0.36467 0.65026 0.0
C701 C 0.76398 0.33497 0.63002 0.0
C702 C 0.75576 0.32478 0.61209 0.0
C703 C 0.76731 0.32512 0.59727 0.0
C704 C 0.75934 0.31562 0.58037 0.0
C705 C 0.7399 0.30559 0.57816 0.0
C706 C 0.7284 0.30499 0.59288 0.0
C707 C 0.7363 0.31449 0.6098 0.0
H708 H 0.73376 0.29824 0.56507 0.0
H709 H 0.80616 0.39054 0.73035 0.0
H710 H 0.43859 0.98893 0.61075 0.0
H711 H 0.46623 0.99072 0.63364 0.0
H712 H 0.49469 0.95097 0.59826 0.0
H713 H 0.46754 0.94972 0.57491 0.0
H714 H 0.49458 0.9439 0.63732 0.0
H715 H 0.51269 0.99398 0.59869 0.0
H716 H 0.50651 0.02185 0.5818 0.0
H717 H 0.49803 0.05746 0.63088 0.0
H718 H 0.50382 0.02966 0.64804 0.0
H719 H 0.58529 0.97057 0.69569 0.0
H720 H 0.56182 0.9617 0.66878 0.0
H721 H 0.5304 0.01058 0.68625 0.0
H722 H 0.55387 0.01977 0.71258 0.0
H723 H 0.5354 0.01037 0.65236 0.0
H724 H 0.51338 0.96069 0.69071 0.0
H725 H 0.51712 0.93296 0.70852 0.0
H726 H 0.53108 0.89702 0.66157 0.0
H727 H 0.52765 0.92465 0.64352 0.0
C728 C 0.45072 0.98059 0.60778 0.0
C729 C 0.45092 0.96935 0.59091 0.0
C730 C 0.46639 0.98149 0.62092 0.0
C731 C 0.48245 0.97104 0.61753 0.0
C732 C 0.48233 0.95905 0.6011 0.0
C733 C 0.46675 0.95832 0.58782 0.0
C734 C 0.49994 0.97396 0.63075 0.0
C735 C 0.5038 0.95829 0.64045 0.0
C736 C 0.51169 0.99281 0.63487 0.0
C737 C 0.50854 0.00968 0.62462 0.0
C738 C 0.50936 0.0077 0.60586 0.0
C739 C 0.50595 0.02349 0.59624 0.0
C740 C 0.50184 0.0414 0.60525 0.0
C741 C 0.5012 0.04357 0.62392 0.0
C742 C 0.50457 0.02781 0.6336 0.0
C743 C 0.57338 0.97939 0.69371 0.0
C744 C 0.57147 0.9959 0.7062 0.0
C745 C 0.55994 0.97428 0.6784 0.0
C746 C 0.54429 0.98544 0.67554 0.0
C747 C 0.54242 0.00183 0.68808 0.0
C748 C 0.55586 0.00704 0.70318 0.0
C749 C 0.52977 0.9805 0.65952 0.0
C750 C 0.52648 0.99583 0.64915 0.0
C751 C 0.51842 0.96139 0.65499 0.0
C752 C 0.52051 0.94481 0.66583 0.0
C753 C 0.51741 0.94693 0.68422 0.0
C754 C 0.51945 0.93122 0.69435 0.0
C755 C 0.52441 0.91326 0.68619 0.0
C756 C 0.52729 0.91095 0.66788 0.0
C757 C 0.5253 0.92663 0.65769 0.0
H758 H 0.52597 0.90112 0.69406 0.0
H759 H 0.49919 0.0536 0.59778 0.0
H760 H 0.83493 0.20018 0.74744 0.0
H761 H 0.86717 0.20203 0.76446 0.0
H762 H 0.87125 0.26606 0.77385 0.0
H763 H 0.83858 0.26441 0.75772 0.0
H764 H 0.9073 0.24934 0.76187 0.0
H765 H 0.85783 0.24412 0.80585 0.0
H766 H 0.82776 0.22776 0.81763 0.0
H767 H 0.85443 0.17419 0.81932 0.0
H768 H 0.88455 0.19017 0.80727 0.0
H769 H 0.9776 0.28478 0.8343 0.0
H770 H 0.94951 0.2759 0.81184 0.0
H771 H 0.94473 0.21462 0.82254 0.0
H772 H 0.97249 0.22365 0.84576 0.0
H773 H 0.91004 0.22509 0.82168 0.0
H774 H 0.96096 0.23019 0.78191 0.0
H775 H 0.99128 0.24472 0.76928 0.0
H776 H 0.96314 0.29525 0.75788 0.0
H777 H 0.93274 0.28118 0.77069 0.0
C778 C 0.84253 0.21467 0.75328 0.0
C779 C 0.83401 0.23214 0.75129 0.0
C780 C 0.86104 0.21568 0.76283 0.0
C781 C 0.8715 0.23417 0.77034 0.0
C782 C 0.8634 0.25167 0.768 0.0
C783 C 0.84475 0.25067 0.7587 0.0
C784 C 0.89051 0.2353 0.78136 0.0
C785 C 0.90799 0.24417 0.775 0.0
C786 C 0.89137 0.22778 0.79811 0.0
C787 C 0.87332 0.21824 0.80545 0.0
C788 C 0.8572 0.22879 0.80857 0.0
C789 C 0.84017 0.2196 0.81533 0.0
C790 C 0.83916 0.19992 0.81917 0.0
C791 C 0.85521 0.18942 0.8163 0.0
C792 C 0.87227 0.19853 0.80952 0.0
C793 C 0.97079 0.26933 0.83173 0.0
C794 C 0.97728 0.25492 0.84185 0.0
C795 C 0.95476 0.26424 0.81875 0.0
C796 C 0.94514 0.24451 0.81524 0.0
C797 C 0.95193 0.22993 0.82498 0.0
C798 C 0.96782 0.2351 0.83821 0.0
C799 C 0.92706 0.23962 0.80245 0.0
C800 C 0.90963 0.23 0.80844 0.0
C801 C 0.92636 0.24614 0.78519 0.0
C802 C 0.94459 0.25466 0.77737 0.0
C803 C 0.96127 0.24446 0.77682 0.0
C804 C 0.97847 0.25261 0.76961 0.0
C805 C 0.97914 0.27091 0.76281 0.0
C806 C 0.9626 0.28108 0.76316 0.0
C807 C 0.94536 0.273 0.77037 0.0
H808 H 0.99248 0.2772 0.75724 0.0
H809 H 0.82596 0.19284 0.82441 0.0
H810 H 0.42182 0.927 0.50564 0.0
H811 H 0.43841 0.90718 0.48369 0.0
H812 H 0.43569 0.85969 0.51724 0.0
H813 H 0.4195 0.87974 0.53952 0.0
H814 H 0.47175 0.86717 0.50641 0.0
H815 H 0.40536 0.85625 0.47782 0.0
H816 H 0.37405 0.86586 0.46536 0.0
H817 H 0.40583 0.89729 0.42733 0.0
H818 H 0.43738 0.88808 0.43973 0.0
H819 H 0.49281 0.78852 0.44399 0.0
H820 H 0.47773 0.81078 0.46506 0.0
H821 H 0.48745 0.85755 0.43118 0.0
H822 H 0.50257 0.83526 0.40984 0.0
H823 H 0.44903 0.85201 0.44158 0.0
H824 H 0.51539 0.86114 0.46969 0.0
H825 H 0.5462 0.85043 0.48202 0.0
H826 H 0.51379 0.82122 0.52098 0.0
H827 H 0.48272 0.83151 0.50872 0.0
C828 C 0.42455 0.91225 0.50826 0.0
C829 C 0.41937 0.90484 0.52427 0.0
C830 C 0.43399 0.90091 0.49566 0.0
C831 C 0.43817 0.88188 0.49875 0.0
C832 C 0.43263 0.87434 0.51459 0.0
C833 C 0.4233 0.88573 0.52725 0.0
C834 C 0.44907 0.87019 0.48585 0.0
C835 C 0.46663 0.86364 0.49228 0.0
C836 C 0.44272 0.86609 0.46732 0.0
C837 C 0.42376 0.87165 0.45983 0.0
C838 C 0.4057 0.86535 0.4669 0.0
C839 C 0.3879 0.8707 0.45983 0.0
C840 C 0.38796 0.88223 0.4456 0.0
C841 C 0.40581 0.88839 0.43837 0.0
C842 C 0.42365 0.88309 0.44541 0.0
C843 C 0.49192 0.80359 0.44105 0.0
C844 C 0.49888 0.81012 0.42522 0.0
C845 C 0.48335 0.81631 0.45316 0.0
C846 C 0.48159 0.83583 0.44972 0.0
C847 C 0.48872 0.84253 0.43406 0.0
C848 C 0.49743 0.82982 0.42195 0.0
C849 C 0.47154 0.84885 0.46221 0.0
C850 C 0.45417 0.85566 0.4557 0.0
C851 C 0.47799 0.85308 0.48069 0.0
C852 C 0.49669 0.84697 0.48818 0.0
C853 C 0.5148 0.8523 0.4808 0.0
C854 C 0.53232 0.84633 0.48779 0.0
C855 C 0.53195 0.83511 0.50225 0.0
C856 C 0.51406 0.82989 0.50977 0.0
C857 C 0.49649 0.83582 0.50282 0.0
H858 H 0.54553 0.8305 0.50764 0.0
H859 H 0.37416 0.88635 0.44014 0.0
H860 H 0.21965 0.34442 0.79704 0.0
H861 H 0.19221 0.33644 0.81563 0.0
H862 H 0.16688 0.28766 0.77552 0.0
H863 H 0.19401 0.29592 0.75669 0.0
H864 H 0.13908 0.30799 0.78593 0.0
H865 H 0.19028 0.27968 0.81611 0.0
H866 H 0.22357 0.27882 0.83089 0.0
H867 H 0.21435 0.32538 0.87173 0.0
H868 H 0.18109 0.32671 0.85705 0.0
H869 H 0.08551 0.27036 0.86623 0.0
H870 H 0.11529 0.27316 0.84953 0.0
H871 H 0.10163 0.32904 0.83364 0.0
H872 H 0.07187 0.32629 0.85005 0.0
H873 H 0.14872 0.30033 0.85071 0.0
H874 H 0.11049 0.33061 0.79014 0.0
H875 H 0.07694 0.32842 0.77475 0.0
H876 H 0.05999 0.27183 0.79337 0.0
H877 H 0.09351 0.27355 0.80864 0.0
C878 C 0.20827 0.33192 0.79227 0.0
C879 C 0.20894 0.32081 0.77546 0.0
C880 C 0.19267 0.3273 0.80293 0.0
C881 C 0.17759 0.31129 0.79708 0.0
C882 C 0.17835 0.30006 0.78032 0.0
C883 C 0.19389 0.30478 0.76959 0.0
C884 C 0.16058 0.30687 0.80808 0.0
C885 C 0.14123 0.30624 0.80007 0.0
C886 C 0.16329 0.30421 0.82646 0.0
C887 C 0.18325 0.30339 0.8354 0.0
C888 C 0.1954 0.28983 0.82817 0.0
C889 C 0.21426 0.28925 0.83655 0.0
C890 C 0.22109 0.30207 0.85222 0.0
C891 C 0.20905 0.31547 0.85958 0.0
C892 C 0.19018 0.31612 0.85125 0.0
C893 C 0.08899 0.28335 0.85934 0.0
C894 C 0.07623 0.29802 0.85933 0.0
C895 C 0.10601 0.28493 0.84983 0.0
C896 C 0.11047 0.30113 0.84011 0.0
C897 C 0.09826 0.31623 0.84079 0.0
C898 C 0.08128 0.31466 0.85024 0.0
C899 C 0.12739 0.302 0.82863 0.0
C900 C 0.14665 0.30197 0.83654 0.0
C901 C 0.12459 0.30361 0.81005 0.0
C902 C 0.10447 0.30231 0.80067 0.0
C903 C 0.09963 0.31766 0.79087 0.0
C904 C 0.08061 0.3165 0.78218 0.0
C905 C 0.06632 0.30003 0.78312 0.0
C906 C 0.07104 0.28463 0.7927 0.0
C907 C 0.09004 0.28569 0.8014 0.0
H908 H 0.0516 0.29917 0.7764 0.0
H909 H 0.23569 0.3016 0.85868 0.0
H910 H 0.57005 0.64994 0.54568 0.0
H911 H 0.56156 0.66357 0.51794 0.0
H912 H 0.62362 0.67352 0.50824 0.0
H913 H 0.63227 0.65951 0.53603 0.0
H914 H 0.60095 0.70672 0.50337 0.0
H915 H 0.59917 0.63707 0.48409 0.0
H916 H 0.58998 0.60111 0.48556 0.0
H917 H 0.52807 0.60742 0.47833 0.0
H918 H 0.53688 0.64349 0.4771 0.0
H919 H 0.56978 0.73365 0.41784 0.0
H920 H 0.58748 0.71691 0.43988 0.0
H921 H 0.53133 0.68979 0.45544 0.0
H922 H 0.51368 0.70599 0.43334 0.0
H923 H 0.55688 0.66395 0.45478 0.0
H924 H 0.55756 0.73306 0.479 0.0
H925 H 0.56521 0.76948 0.47917 0.0
H926 H 0.62747 0.76468 0.47847 0.0
H927 H 0.62014 0.72817 0.47807 0.0
C928 C 0.58194 0.65512 0.53774 0.0
C929 C 0.60186 0.65371 0.543 0.0
C930 C 0.57704 0.66283 0.52186 0.0
C931 C 0.59196 0.66941 0.51103 0.0
C932 C 0.61192 0.66848 0.51644 0.0
C933 C 0.61682 0.66048 0.53224 0.0
C934 C 0.58641 0.67701 0.49397 0.0
C935 C 0.59169 0.69732 0.49253 0.0
C936 C 0.57407 0.66475 0.48004 0.0
C937 C 0.5687 0.64302 0.48062 0.0
C938 C 0.58359 0.63082 0.48295 0.0
C939 C 0.57845 0.61041 0.48372 0.0
C940 C 0.55845 0.60199 0.48207 0.0
C941 C 0.54356 0.61396 0.47961 0.0
C942 C 0.54862 0.63439 0.47885 0.0
C943 C 0.56125 0.72386 0.42577 0.0
C944 C 0.54033 0.72126 0.42393 0.0
C945 C 0.57137 0.7144 0.43842 0.0
C946 C 0.56072 0.70233 0.44951 0.0
C947 C 0.53988 0.69904 0.44707 0.0
C948 C 0.5298 0.70839 0.43444 0.0
C949 C 0.57094 0.69384 0.46433 0.0
C950 C 0.56651 0.67332 0.46539 0.0
C951 C 0.58387 0.70597 0.47801 0.0
C952 C 0.58828 0.72789 0.47827 0.0
C953 C 0.57286 0.73976 0.47874 0.0
C954 C 0.57714 0.76042 0.4789 0.0
C955 C 0.59681 0.76938 0.47877 0.0
C956 C 0.61224 0.75771 0.47853 0.0
C957 C 0.60804 0.73704 0.47833 0.0
H958 H 0.60009 0.78538 0.4789 0.0
H959 H 0.5545 0.58618 0.48267 0.0
H960 H 0.86625 0.77161 0.77367 0.0
H961 H 0.89482 0.77435 0.75546 0.0
H962 H 0.87562 0.82604 0.73509 0.0
H963 H 0.847 0.82328 0.7531 0.0
H964 H 0.88598 0.79996 0.70853 0.0
H965 H 0.91419 0.83157 0.76659 0.0
H966 H 0.92187 0.83415 0.79938 0.0
H967 H 0.95351 0.78363 0.79242 0.0
H968 H 0.94577 0.78057 0.75959 0.0
H969 H 0.9732 0.82875 0.66684 0.0
H970 H 0.94707 0.82986 0.68754 0.0
H971 H 0.96466 0.77838 0.70948 0.0
H972 H 0.99102 0.7773 0.68903 0.0
H973 H 0.95538 0.80564 0.7356 0.0
H974 H 0.92606 0.77295 0.67806 0.0
H975 H 0.9182 0.76969 0.64525 0.0
H976 H 0.8884 0.82155 0.65128 0.0
H977 H 0.89633 0.82528 0.68413 0.0
C978 C 0.86816 0.78353 0.76528 0.0
C979 C 0.85447 0.79721 0.7648 0.0
C980 C 0.8845 0.78515 0.75498 0.0
C981 C 0.88744 0.80054 0.7441 0.0
C982 C 0.87363 0.81409 0.74345 0.0
C983 C 0.85731 0.8125 0.75376 0.0
C984 C 0.90473 0.80231 0.73316 0.0
C985 C 0.90117 0.80153 0.71447 0.0
C986 C 0.9245 0.80388 0.7409 0.0
C987 C 0.92924 0.80573 0.76064 0.0
C988 C 0.92265 0.82091 0.77206 0.0
C989 C 0.92703 0.82248 0.79065 0.0
C990 C 0.93813 0.80904 0.79798 0.0
C991 C 0.9449 0.79402 0.78673 0.0
C992 C 0.94053 0.79237 0.76812 0.0
C993 C 0.97169 0.81781 0.6762 0.0
C994 C 0.98408 0.80282 0.67615 0.0
C995 C 0.95669 0.81842 0.68798 0.0
C996 C 0.95373 0.80399 0.69982 0.0
C997 C 0.96666 0.7896 0.7004 0.0
C998 C 0.98168 0.789 0.68865 0.0
C999 C 0.93661 0.80329 0.71099 0.0
C1000 C 0.94019 0.80421 0.72969 0.0
C1001 C 0.91683 0.80177 0.70326 0.0
C1002 C 0.91198 0.79952 0.68353 0.0
C1003 C 0.91797 0.78375 0.67237 0.0
C1004 C 0.91348 0.7818 0.65377 0.0
C1005 C 0.90285 0.79544 0.64618 0.0
C1006 C 0.89665 0.81102 0.65718 0.0
C1007 C 0.90113 0.81305 0.67579 0.0
H1008 H 0.89938 0.7939 0.63178 0.0
H1009 H 0.94151 0.81028 0.81238 0.0
H1010 H 0.06381 0.9288 0.4846 0.0
H1011 H 0.05671 0.91485 0.51241 0.0
H1012 H 0.11454 0.89535 0.51539 0.0
H1013 H 0.12175 0.90931 0.48745 0.0
H1014 H 0.0845 0.86649 0.52234 0.0
H1015 H 0.10759 0.93538 0.54216 0.0
H1016 H 0.10872 0.97168 0.54212 0.0
H1017 H 0.04789 0.9676 0.55501 0.0
H1018 H 0.0463 0.93121 0.55486 0.0
H1019 H 0.07162 0.83803 0.60875 0.0
H1020 H 0.08714 0.85687 0.58626 0.0
H1021 H 0.03316 0.88233 0.57673 0.0
H1022 H 0.01767 0.86381 0.59924 0.0
H1023 H 0.06574 0.90921 0.57474 0.0
H1024 H 0.04105 0.84074 0.55092 0.0
H1025 H 0.03858 0.80418 0.55 0.0
H1026 H 0.10118 0.8074 0.54392 0.0
H1027 H 0.10405 0.84401 0.54499 0.0
C1028 C 0.07498 0.92146 0.49111 0.0
C1029 C 0.09336 0.92012 0.48391 0.0
C1030 C 0.07095 0.91361 0.50705 0.0
C1031 C 0.08522 0.90432 0.51606 0.0
C1032 C 0.10339 0.90254 0.50866 0.0
C1033 C 0.10747 0.9105 0.49275 0.0
C1034 C 0.08102 0.89637 0.53315 0.0
C1035 C 0.08079 0.87588 0.53393 0.0
C1036 C 0.07585 0.90862 0.54813 0.0
C1037 C 0.07679 0.93053 0.54837 0.0
C1038 C 0.09441 0.94219 0.54486 0.0
C1039 C 0.09514 0.96279 0.54489 0.0
C1040 C 0.07837 0.97194 0.54853 0.0
C1041 C 0.06086 0.9605 0.55218 0.0
C1042 C 0.06005 0.93988 0.55215 0.0
C1043 C 0.06325 0.84804 0.6022 0.0
C1044 C 0.04335 0.84926 0.6056 0.0
C1045 C 0.07209 0.8587 0.58928 0.0
C1046 C 0.06115 0.87068 0.5796 0.0
C1047 C 0.04183 0.87309 0.58399 0.0
C1048 C 0.03298 0.86245 0.59684 0.0
C1049 C 0.06895 0.87929 0.56382 0.0
C1050 C 0.0698 0.89989 0.56326 0.0
C1051 C 0.07454 0.86713 0.54897 0.0
C1052 C 0.07281 0.84512 0.54827 0.0
C1053 C 0.05431 0.83366 0.54953 0.0
C1054 C 0.05283 0.81293 0.54895 0.0
C1055 C 0.06973 0.80349 0.54699 0.0
C1056 C 0.08812 0.81474 0.5455 0.0
C1057 C 0.08968 0.83547 0.54607 0.0
H1058 H 0.06858 0.78745 0.54657 0.0
H1059 H 0.07897 0.98789 0.54854 0.0
H1060 H 0.20708 0.73356 0.74834 0.0
H1061 H 0.1821 0.73973 0.72547 0.0
H1062 H 0.19256 0.80261 0.74496 0.0
H1063 H 0.21692 0.79632 0.76831 0.0
H1064 H 0.15509 0.79152 0.74043 0.0
H1065 H 0.208 0.78258 0.7034 0.0
H1066 H 0.23505 0.76625 0.6906 0.0
H1067 H 0.1932 0.71492 0.66916 0.0
H1068 H 0.16592 0.73082 0.68204 0.0
H1069 H 0.09044 0.81207 0.66796 0.0
H1070 H 0.12221 0.81148 0.6853 0.0
H1071 H 0.11016 0.74735 0.68139 0.0
H1072 H 0.07837 0.74781 0.66436 0.0
H1073 H 0.15071 0.76298 0.6763 0.0
H1074 H 0.09907 0.77162 0.71719 0.0
H1075 H 0.07244 0.78886 0.72972 0.0
H1076 H 0.11361 0.84276 0.74321 0.0
H1077 H 0.14043 0.82589 0.73051 0.0
C1078 C 0.20412 0.7487 0.74761 0.0
C1079 C 0.2138 0.76442 0.76011 0.0
C1080 C 0.18996 0.75226 0.73446 0.0
C1081 C 0.1856 0.7717 0.73329 0.0
C1082 C 0.19564 0.78749 0.74558 0.0
C1083 C 0.20956 0.78388 0.75891 0.0
C1084 C 0.16967 0.77532 0.72004 0.0
C1085 C 0.15444 0.78565 0.72633 0.0
C1086 C 0.16858 0.76746 0.70164 0.0
C1087 C 0.18493 0.75785 0.69381 0.0
C1088 C 0.20458 0.76775 0.69606 0.0
C1089 C 0.21995 0.75858 0.68878 0.0
C1090 C 0.21585 0.73955 0.6791 0.0
C1091 C 0.19636 0.72966 0.67666 0.0
C1092 C 0.18093 0.73876 0.68393 0.0
C1093 C 0.09472 0.79784 0.67059 0.0
C1094 C 0.08189 0.78 0.66495 0.0
C1095 C 0.11282 0.79754 0.68049 0.0
C1096 C 0.11842 0.77937 0.68465 0.0
C1097 C 0.10609 0.76149 0.67826 0.0
C1098 C 0.0879 0.76181 0.66863 0.0
C1099 C 0.13629 0.77893 0.69684 0.0
C1100 C 0.15174 0.76915 0.69034 0.0
C1101 C 0.13775 0.78748 0.71499 0.0
C1102 C 0.12167 0.79758 0.7227 0.0
C1103 C 0.10239 0.7872 0.72268 0.0
C1104 C 0.08728 0.79689 0.72984 0.0
C1105 C 0.09131 0.81692 0.73721 0.0
C1106 C 0.11049 0.82727 0.73747 0.0
C1107 C 0.12565 0.81765 0.7303 0.0
H1108 H 0.07959 0.82439 0.74275 0.0
H1109 H 0.22778 0.73247 0.67347 0.0
H1110 H 0.95822 0.61216 0.49636 0.0
H1111 H 0.96883 0.64026 0.51967 0.0
H1112 H 0.95463 0.68112 0.48239 0.0
H1113 H 0.94491 0.65282 0.45869 0.0
H1114 H 0.98727 0.69626 0.50191 0.0
H1115 H 0.92314 0.66742 0.51541 0.0
H1116 H 0.89682 0.64093 0.5211 0.0
H1117 H 0.93256 0.629 0.56687 0.0
H1118 H 0.95924 0.65518 0.56128 0.0
H1119 H 0.99019 0.77434 0.57569 0.0
H1120 H 0.97839 0.74967 0.54962 0.0
H1121 H -0.00032 0.70359 0.57743 0.0
H1122 H 0.01154 0.72807 0.6035 0.0
H1123 H 0.96065 0.69361 0.56161 0.0
H1124 H 0.02559 0.72171 0.54603 0.0
H1125 H 0.05065 0.74954 0.5407 0.0
H1126 H 0.01116 0.7644 0.49885 0.0
H1127 H 0.98575 0.73681 0.50411 0.0
C1128 C 0.95745 0.62717 0.49319 0.0
C1129 C 0.95061 0.63047 0.47591 0.0
C1130 C 0.96338 0.6432 0.5065 0.0
C1131 C 0.962 0.66278 0.50293 0.0
C1132 C 0.95566 0.66613 0.48547 0.0
C1133 C 0.9501 0.65004 0.472 0.0
C1134 C 0.96714 0.67961 0.51754 0.0
C1135 C 0.98117 0.69583 0.51486 0.0
C1136 C 0.95928 0.67904 0.5345 0.0
C1137 C 0.94325 0.66321 0.53786 0.0
C1138 C 0.92545 0.65905 0.52661 0.0
C1139 C 0.91045 0.64409 0.52983 0.0
C1140 C 0.91302 0.6333 0.54435 0.0
C1141 C 0.93059 0.63739 0.55564 0.0
C1142 C 0.94565 0.65229 0.55246 0.0
C1143 C 0.99235 0.75895 0.57626 0.0
C1144 C 0.00178 0.75313 0.59166 0.0
C1145 C 0.98568 0.74492 0.56134 0.0
C1146 C 0.98828 0.72488 0.56163 0.0
C1147 C 0.99757 0.71902 0.57699 0.0
C1148 C 0.00438 0.73303 0.59184 0.0
C1149 C 0.98106 0.70983 0.54606 0.0
C1150 C 0.96656 0.69404 0.54858 0.0
C1151 C 0.98828 0.71095 0.52895 0.0
C1152 C 0.00369 0.72733 0.52559 0.0
C1153 C 0.02219 0.731 0.53578 0.0
C1154 C 0.03647 0.74672 0.53276 0.0
C1155 C 0.03248 0.75877 0.51949 0.0
C1156 C 0.01422 0.75508 0.50915 0.0
C1157 C -0.00011 0.73939 0.51214 0.0
H1158 H 0.04354 0.77094 0.51717 0.0
H1159 H 0.90138 0.62179 0.54689 0.0
H1160 H 0.80214 0.85263 0.22082 0.0
H1161 H 0.82267 0.88509 0.22699 0.0
H1162 H 0.77371 0.91043 0.24983 0.0
H1163 H 0.75262 0.87825 0.2426 0.0
H1164 H 0.79121 0.93507 0.2299 0.0
H1165 H 0.81381 0.89912 0.27639 0.0
H1166 H 0.82626 0.87106 0.28946 0.0
H1167 H 0.87871 0.8791 0.26086 0.0
H1168 H 0.86644 0.90705 0.24742 0.0
H1169 H 0.8527 0.02178 0.27757 0.0
H1170 H 0.82988 0.99068 0.26931 0.0
H1171 H 0.87329 0.96684 0.23696 0.0
H1172 H 0.89613 0.99787 0.24496 0.0
H1173 H 0.85821 0.94207 0.2623 0.0
H1174 H 0.83442 0.97897 0.2162 0.0
H1175 H 0.82148 0.00768 0.20472 0.0
H1176 H 0.77052 0.99861 0.23511 0.0
H1177 H 0.78332 0.97 0.24698 0.0
C1178 C 0.79563 0.86512 0.22698 0.0
C1179 C 0.7757 0.86277 0.23122 0.0
C1180 C 0.80749 0.88366 0.23071 0.0
C1181 C 0.79984 0.90016 0.23914 0.0
C1182 C 0.77996 0.8979 0.24339 0.0
C1183 C 0.768 0.87941 0.23945 0.0
C1184 C 0.81256 0.9198 0.24334 0.0
C1185 C 0.80573 0.93663 0.23721 0.0
C1186 C 0.83165 0.92183 0.25267 0.0
C1187 C 0.83911 0.90507 0.26077 0.0
C1188 C 0.82793 0.89481 0.27279 0.0
C1189 C 0.83497 0.87894 0.28028 0.0
C1190 C 0.85325 0.87327 0.27596 0.0
C1191 C 0.86455 0.88349 0.26417 0.0
C1192 C 0.85757 0.89936 0.25663 0.0
C1193 C 0.8573 0.01 0.26853 0.0
C1194 C 0.87625 0.01226 0.26196 0.0
C1195 C 0.84423 0.99229 0.2638 0.0
C1196 C 0.84995 0.97653 0.25255 0.0
C1197 C 0.86865 0.97887 0.24568 0.0
C1198 C 0.88163 0.99664 0.25021 0.0
C1199 C 0.8369 0.95717 0.24873 0.0
C1200 C 0.84366 0.94043 0.255 0.0
C1201 C 0.81768 0.95531 0.23979 0.0
C1202 C 0.80994 0.97247 0.23262 0.0
C1203 C 0.82055 0.98321 0.22057 0.0
C1204 C 0.81322 0.99944 0.21396 0.0
C1205 C 0.79522 0.005 0.21923 0.0
C1206 C 0.78448 0.9943 0.23107 0.0
C1207 C 0.79176 0.97806 0.23772 0.0
H1208 H 0.78957 0.01757 0.2141 0.0
H1209 H 0.85867 0.86097 0.28177 0.0
H1210 H 0.80813 0.25117 0.33438 0.0
H1211 H 0.83001 0.22566 0.32969 0.0
H1212 H 0.78952 0.1949 0.28566 0.0
H1213 H 0.76715 0.21988 0.29076 0.0
H1214 H 0.80069 0.16933 0.3063 0.0
H1215 H 0.83394 0.2222 0.27834 0.0
H1216 H 0.84926 0.25659 0.27612 0.0
H1217 H 0.89268 0.25322 0.31944 0.0
H1218 H 0.87745 0.21889 0.32209 0.0
H1219 H 0.89335 0.12445 0.27443 0.0
H1220 H 0.87387 0.15235 0.27615 0.0
H1221 H 0.85407 0.13716 0.32682 0.0
H1222 H 0.8731 0.10917 0.32507 0.0
H1223 H 0.87284 0.18553 0.29942 0.0
H1224 H 0.80566 0.14207 0.3283 0.0
H1225 H 0.78971 0.10732 0.32775 0.0
H1226 H 0.8128 0.09136 0.27711 0.0
H1227 H 0.82865 0.12606 0.27723 0.0
C1228 C 0.80381 0.2389 0.32377 0.0
C1229 C 0.78589 0.23758 0.31294 0.0
C1230 C 0.81645 0.22445 0.32097 0.0
C1231 C 0.81153 0.2085 0.30717 0.0
C1232 C 0.79366 0.20713 0.29633 0.0
C1233 C 0.78097 0.22152 0.29917 0.0
C1234 C 0.82466 0.19283 0.30445 0.0
C1235 C 0.81645 0.1729 0.30477 0.0
C1236 C 0.84517 0.19742 0.30211 0.0
C1237 C 0.85444 0.21802 0.3005 0.0
C1238 C 0.84667 0.22884 0.28748 0.0
C1239 C 0.85535 0.24832 0.28613 0.0
C1240 C 0.87191 0.2571 0.29766 0.0
C1241 C 0.87985 0.2464 0.31053 0.0
C1242 C 0.87121 0.22693 0.31195 0.0
C1243 C 0.885 0.1272 0.28602 0.0
C1244 C 0.88458 0.11448 0.29951 0.0
C1245 C 0.87392 0.14315 0.28699 0.0
C1246 C 0.86225 0.1466 0.30145 0.0
C1247 C 0.86265 0.13453 0.31537 0.0
C1248 C 0.8736 0.11857 0.31436 0.0
C1249 C 0.84891 0.16216 0.30169 0.0
C1250 C 0.85707 0.18202 0.30092 0.0
C1251 C 0.82823 0.15749 0.30321 0.0
C1252 C 0.81849 0.13663 0.30287 0.0
C1253 C 0.80726 0.13116 0.31701 0.0
C1254 C 0.79824 0.11147 0.31678 0.0
C1255 C 0.80029 0.09713 0.30243 0.0
C1256 C 0.81129 0.10246 0.28825 0.0
C1257 C 0.8203 0.12214 0.2884 0.0
H1258 H 0.79332 0.08189 0.30229 0.0
H1259 H 0.87861 0.27218 0.29659 0.0
H1260 H 0.43355 0.04402 0.96415 0.0
H1261 H 0.41145 0.02013 0.97811 0.0
H1262 H 0.37116 0.06358 0.98681 0.0
H1263 H 0.39339 0.08764 0.97302 0.0
H1264 H 0.37769 0.04676 0.01636 0.0
H1265 H 0.36057 0.02331 0.9538 0.0
H1266 H 0.36701 0.01163 0.92274 0.0
H1267 H 0.3916 0.9618 0.94095 0.0
H1268 H 0.38554 0.97334 0.97218 0.0
H1269 H 0.28935 0.98455 0.02987 0.0
H1270 H 0.3158 0.00744 0.01985 0.0
H1271 H 0.3546 0.96217 0.01933 0.0
H1272 H 0.32815 0.93909 0.02949 0.0
H1273 H 0.35112 0.97864 0.98703 0.0
H1274 H 0.36537 0.00129 0.04963 0.0
H1275 H 0.35782 0.01314 0.08032 0.0
H1276 H 0.33729 0.06469 0.06154 0.0
H1277 H 0.34444 0.05301 0.03067 0.0
C1278 C 0.4198 0.04834 0.96874 0.0
C1279 C 0.4151 0.06763 0.96742 0.0
C1280 C 0.40722 0.03471 0.97676 0.0
C1281 C 0.38959 0.04004 0.98339 0.0
C1282 C 0.38473 0.0592 0.98183 0.0
C1283 C 0.39738 0.07289 0.97393 0.0
C1284 C 0.37649 0.02584 0.9924 0.0
C1285 C 0.37169 0.03194 0.00987 0.0
C1286 C 0.36918 0.00631 0.98413 0.0
C1287 C 0.3728 0.99932 0.96535 0.0
C1288 C 0.3675 0.00996 0.95121 0.0
C1289 C 0.37105 0.00334 0.93356 0.0
C1290 C 0.37976 0.98602 0.92988 0.0
C1291 C 0.38488 0.97524 0.94383 0.0
C1292 C 0.38138 0.9818 0.9615 0.0
C1293 C 0.30361 0.97954 0.02792 0.0
C1294 C 0.30666 0.95999 0.03039 0.0
C1295 C 0.31872 0.99267 0.02226 0.0
C1296 C 0.33712 0.98647 0.01889 0.0
C1297 C 0.34047 0.96719 0.0219 0.0
C1298 C 0.3254 0.95409 0.02778 0.0
C1299 C 0.35213 0.99968 0.01086 0.0
C1300 C 0.35728 0.9934 0.99357 0.0
C1301 C 0.35963 0.01909 0.01924 0.0
C1302 C 0.3553 0.02618 0.0378 0.0
C1303 C 0.35909 0.01507 0.05201 0.0
C1304 C 0.35491 0.02177 0.06945 0.0
C1305 C 0.34704 0.03963 0.07287 0.0
C1306 C 0.34337 0.05085 0.05887 0.0
C1307 C 0.34751 0.04421 0.0414 0.0
H1308 H 0.34382 0.0448 0.08639 0.0
H1309 H 0.3825 0.98092 0.91621 0.0
H1310 H 0.28497 0.37267 0.29925 0.0
H1311 H 0.25839 0.39269 0.29334 0.0
H1312 H 0.21481 0.34003 0.28886 0.0
H1313 H 0.2414 0.3199 0.29519 0.0
H1314 H 0.21545 0.37285 0.25976 0.0
H1315 H 0.20977 0.36027 0.32191 0.0
H1316 H 0.22417 0.35827 0.35255 0.0
H1317 H 0.2495 0.41995 0.35735 0.0
H1318 H 0.23553 0.4222 0.3266 0.0
H1319 H 0.1385 0.43571 0.26044 0.0
H1320 H 0.15702 0.4077 0.2643 0.0
H1321 H 0.20336 0.44781 0.29707 0.0
H1322 H 0.18461 0.47543 0.29394 0.0
H1323 H 0.19695 0.41612 0.31189 0.0
H1324 H 0.20645 0.42955 0.25097 0.0
H1325 H 0.19574 0.43331 0.21967 0.0
H1326 H 0.16677 0.37271 0.21157 0.0
H1327 H 0.17712 0.36868 0.24292 0.0
C1328 C 0.26974 0.36534 0.2968 0.0
C1329 C 0.26516 0.3448 0.29766 0.0
C1330 C 0.25463 0.37676 0.29346 0.0
C1331 C 0.23475 0.36776 0.29067 0.0
C1332 C 0.23013 0.34715 0.29095 0.0
C1333 C 0.24524 0.33574 0.29464 0.0
C1334 C 0.21892 0.38035 0.28848 0.0
C1335 C 0.21097 0.38204 0.27113 0.0
C1336 C 0.21362 0.39258 0.30333 0.0
C1337 C 0.22177 0.39134 0.32191 0.0
C1338 C 0.21857 0.37335 0.32944 0.0
C1339 C 0.22662 0.37218 0.34684 0.0
C1340 C 0.23778 0.38896 0.35688 0.0
C1341 C 0.24087 0.40696 0.34955 0.0
C1342 C 0.23287 0.40819 0.33215 0.0
C1343 C 0.15262 0.43846 0.26849 0.0
C1344 C 0.1601 0.45773 0.27691 0.0
C1345 C 0.16323 0.42249 0.27062 0.0
C1346 C 0.18171 0.42565 0.28085 0.0
C1347 C 0.1891 0.44492 0.28921 0.0
C1348 C 0.17838 0.46074 0.28736 0.0
C1349 C 0.19358 0.40912 0.283 0.0
C1350 C 0.20093 0.4067 0.30043 0.0
C1351 C 0.19857 0.39649 0.26814 0.0
C1352 C 0.19234 0.3989 0.24933 0.0
C1353 C 0.19766 0.41708 0.24255 0.0
C1354 C 0.19168 0.41925 0.2248 0.0
C1355 C 0.18052 0.40328 0.21366 0.0
C1356 C 0.17537 0.38509 0.22023 0.0
C1357 C 0.1813 0.38285 0.23798 0.0
H1358 H 0.17591 0.40499 0.19992 0.0
H1359 H 0.24401 0.38802 0.37034 0.0
H1360 H 0.12579 0.00212 0.4748 0.0
H1361 H 0.15349 0.02924 0.48258 0.0
H1362 H 0.16879 0.02333 0.42765 0.0
H1363 H 0.14079 0.99636 0.41968 0.0
H1364 H 0.20249 0.0293 0.45834 0.0
H1365 H 0.14477 0.05634 0.43465 0.0
H1366 H 0.10929 0.06063 0.43347 0.0
H1367 H 0.11629 0.08557 0.48901 0.0
H1368 H 0.15176 0.08109 0.49059 0.0
H1369 H 0.2638 0.12165 0.45995 0.0
H1370 H 0.23896 0.0922 0.45164 0.0
H1371 H 0.20773 0.1089 0.49795 0.0
H1372 H 0.23207 0.13886 0.50587 0.0
H1373 H 0.18214 0.09648 0.47126 0.0
H1374 H 0.23866 0.07096 0.49621 0.0
H1375 H 0.27375 0.06549 0.49979 0.0
H1376 H 0.26931 0.03674 0.44549 0.0
H1377 H 0.23425 0.04229 0.4415 0.0
C1378 C 0.13534 0.00633 0.46448 0.0
C1379 C 0.13126 0.99723 0.44666 0.0
C1380 C 0.15106 0.02181 0.46893 0.0
C1381 C 0.16303 0.02821 0.45565 0.0
C1382 C 0.15967 0.01847 0.43803 0.0
C1383 C 0.14371 0.00319 0.43351 0.0
C1384 C 0.17794 0.04617 0.45991 0.0
C1385 C 0.19817 0.04406 0.46095 0.0
C1386 C 0.17209 0.06522 0.4638 0.0
C1387 C 0.15085 0.06818 0.46279 0.0
C1388 C 0.1387 0.06257 0.44665 0.0
C1389 C 0.1186 0.06506 0.4459 0.0
C1390 C 0.11053 0.07331 0.46117 0.0
C1391 C 0.12255 0.07915 0.4772 0.0
C1392 C 0.14266 0.07664 0.47803 0.0
C1393 C 0.2516 0.11906 0.46833 0.0
C1394 C 0.2499 0.13251 0.48359 0.0
C1395 C 0.23748 0.10215 0.46363 0.0
C1396 C 0.22169 0.09809 0.47438 0.0
C1397 C 0.21981 0.11168 0.48948 0.0
C1398 C 0.23372 0.1288 0.49399 0.0
C1399 C 0.20698 0.07982 0.46978 0.0
C1400 C 0.18667 0.08181 0.46866 0.0
C1401 C 0.2128 0.06061 0.46614 0.0
C1402 C 0.23388 0.05722 0.4685 0.0
C1403 C 0.2452 0.06361 0.48498 0.0
C1404 C 0.26508 0.06047 0.48709 0.0
C1405 C 0.27377 0.05082 0.47286 0.0
C1406 C 0.26257 0.04424 0.4565 0.0
C1407 C 0.24269 0.04736 0.45431 0.0
H1408 H 0.28916 0.04839 0.47452 0.0
H1409 H 0.09496 0.07524 0.46056 0.0
H1410 H 0.78659 0.17477 0.73519 0.0
H1411 H 0.76243 0.14594 0.73791 0.0
H1412 H 0.71516 0.18237 0.73635 0.0
H1413 H 0.73954 0.21177 0.73502 0.0
H1414 H 0.7091 0.15896 0.76054 0.0
H1415 H 0.72348 0.14844 0.69947 0.0
H1416 H 0.74417 0.14574 0.67383 0.0
H1417 H 0.76833 0.09659 0.69383 0.0
H1418 H 0.74799 0.09917 0.71974 0.0
H1419 H 0.63454 0.0723 0.74344 0.0
H1420 H 0.65638 0.10242 0.7386 0.0
H1421 H 0.7076 0.07625 0.75604 0.0
H1422 H 0.68587 0.04619 0.76127 0.0
H1423 H 0.70937 0.09476 0.72212 0.0
H1424 H 0.69474 0.10783 0.78439 0.0
H1425 H 0.67206 0.11068 0.80853 0.0
H1426 H 0.64564 0.1556 0.7835 0.0
H1427 H 0.66799 0.1528 0.75905 0.0
C1428 C 0.77111 0.1768 0.73568 0.0
C1429 C 0.76508 0.19571 0.73497 0.0
C1430 C 0.75722 0.16016 0.73693 0.0
C1431 C 0.73689 0.16185 0.73698 0.0
C1432 C 0.73076 0.18066 0.73622 0.0
C1433 C 0.74471 0.19743 0.73527 0.0
C1434 C 0.7222 0.14404 0.73836 0.0
C1435 C 0.70897 0.14505 0.7519 0.0
C1436 C 0.72207 0.12576 0.72723 0.0
C1437 C 0.73431 0.12411 0.71163 0.0
C1438 C 0.73331 0.13715 0.69847 0.0
C1439 C 0.74496 0.13563 0.68388 0.0
C1440 C 0.75759 0.12103 0.68222 0.0
C1441 C 0.75855 0.1079 0.69514 0.0
C1442 C 0.74694 0.10937 0.70977 0.0
C1443 C 0.65046 0.07293 0.74621 0.0
C1444 C 0.65851 0.0569 0.75277 0.0
C1445 C 0.66287 0.09014 0.74347 0.0
C1446 C 0.68352 0.09148 0.74701 0.0
C1447 C 0.69166 0.07541 0.75325 0.0
C1448 C 0.67923 0.05833 0.75629 0.0
C1449 C 0.69668 0.10976 0.74437 0.0
C1450 C 0.70953 0.10878 0.7306 0.0
C1451 C 0.69619 0.12813 0.75503 0.0
C1452 C 0.68288 0.12994 0.76979 0.0
C1453 C 0.68397 0.11818 0.78395 0.0
C1454 C 0.6712 0.11981 0.7977 0.0
C1455 C 0.65737 0.13327 0.79752 0.0
C1456 C 0.65633 0.14516 0.78361 0.0
C1457 C 0.66906 0.14357 0.76981 0.0
H1458 H 0.6475 0.13451 0.80817 0.0
H1459 H 0.7666 0.11988 0.67091 0.0
H1460 H 0.37621 0.99618 0.55123 0.0
H1461 H 0.36535 0.02763 0.54469 0.0
H1462 H 0.42592 0.05694 0.55441 0.0
H1463 H 0.43686 0.02555 0.56105 0.0
H1464 H 0.40045 0.08076 0.56812 0.0
H1465 H 0.40622 0.04143 0.51204 0.0
H1466 H 0.4 0.01134 0.48976 0.0
H1467 H 0.33734 0.01493 0.48678 0.0
H1468 H 0.34316 0.04488 0.50926 0.0
H1469 H 0.36278 0.14042 0.49132 0.0
H1470 H 0.38115 0.11554 0.50299 0.0
H1471 H 0.35115 0.12092 0.55177 0.0
H1472 H 0.3331 0.14628 0.54032 0.0
H1473 H 0.36418 0.08076 0.50861 0.0
H1474 H 0.37825 0.10422 0.58562 0.0
H1475 H 0.38681 0.13495 0.60696 0.0
H1476 H 0.41445 0.16503 0.56595 0.0
H1477 H 0.40629 0.13442 0.54445 0.0
C1478 C 0.38719 0.00934 0.55199 0.0
C1479 C 0.40739 0.00838 0.55652 0.0
C1480 C 0.38098 0.0273 0.54831 0.0
C1481 C 0.39488 0.04456 0.54886 0.0
C1482 C 0.41496 0.04381 0.55395 0.0
C1483 C 0.42117 0.02587 0.55774 0.0
C1484 C 0.38861 0.06309 0.54319 0.0
C1485 C 0.39251 0.08082 0.55512 0.0
C1486 C 0.37864 0.06321 0.52608 0.0
C1487 C 0.37511 0.04529 0.51245 0.0
C1488 C 0.3911 0.03572 0.50672 0.0
C1489 C 0.38765 0.0187 0.49405 0.0
C1490 C 0.36829 0.0112 0.48689 0.0
C1491 C 0.35233 0.02074 0.49235 0.0
C1492 C 0.3557 0.03774 0.50505 0.0
C1493 C 0.36048 0.13669 0.50473 0.0
C1494 C 0.34641 0.14517 0.51486 0.0
C1495 C 0.37094 0.12242 0.51136 0.0
C1496 C 0.36745 0.11624 0.5282 0.0
C1497 C 0.35428 0.12559 0.53882 0.0
C1498 C 0.34395 0.14007 0.53226 0.0
C1499 C 0.3758 0.09854 0.5336 0.0
C1500 C 0.37218 0.08084 0.52161 0.0
C1501 C 0.38634 0.09861 0.55051 0.0
C1502 C 0.39148 0.11706 0.56338 0.0
C1503 C 0.38622 0.11737 0.58118 0.0
C1504 C 0.39099 0.13477 0.5933 0.0
C1505 C 0.40111 0.15195 0.5878 0.0
C1506 C 0.40654 0.15174 0.57018 0.0
C1507 C 0.40181 0.13438 0.55801 0.0
H1508 H 0.40478 0.16541 0.5972 0.0
H1509 H 0.36565 0.99802 0.47708 0.0
H1510 H 0.58749 0.55539 0.59192 0.0
H1511 H 0.60457 0.52628 0.58552 0.0
H1512 H 0.6575 0.56475 0.57622 0.0
H1513 H 0.64065 0.59399 0.58307 0.0
H1514 H 0.61948 0.51251 0.55551 0.0
H1515 H 0.69828 0.54433 0.58958 0.0
H1516 H 0.71334 0.56784 0.61582 0.0
H1517 H 0.65945 0.5579 0.64213 0.0
H1518 H 0.64417 0.53412 0.61618 0.0
H1519 H 0.69341 0.46211 0.51833 0.0
H1520 H 0.67212 0.48561 0.53013 0.0
H1521 H 0.68083 0.46721 0.58284 0.0
H1522 H 0.70288 0.44394 0.57115 0.0
H1523 H 0.68511 0.50603 0.58555 0.0
H1524 H 0.63548 0.45443 0.5565 0.0
H1525 H 0.61915 0.42943 0.53183 0.0
H1526 H 0.61194 0.47582 0.49876 0.0
H1527 H 0.62847 0.50107 0.52314 0.0
C1528 C 0.60286 0.55767 0.58876 0.0
C1529 C 0.61278 0.577 0.58811 0.0
C1530 C 0.61254 0.54101 0.58497 0.0
C1531 C 0.63235 0.54334 0.58057 0.0
C1532 C 0.64229 0.56262 0.57985 0.0
C1533 C 0.6326 0.57929 0.5836 0.0
C1534 C 0.64245 0.5256 0.57614 0.0
C1535 C 0.63379 0.51103 0.56212 0.0
C1536 C 0.66087 0.52343 0.58508 0.0
C1537 C 0.67003 0.53757 0.60084 0.0
C1538 C 0.68967 0.54709 0.60099 0.0
C1539 C 0.69824 0.56048 0.61582 0.0
C1540 C 0.68734 0.5644 0.63061 0.0
C1541 C 0.66786 0.5549 0.63064 0.0
C1542 C 0.65923 0.54149 0.61586 0.0
C1543 C 0.69063 0.46281 0.53239 0.0
C1544 C 0.69982 0.4511 0.5438 0.0
C1545 C 0.67834 0.47624 0.53912 0.0
C1546 C 0.67462 0.47803 0.55734 0.0
C1547 C 0.68345 0.46606 0.56873 0.0
C1548 C 0.69596 0.45271 0.56201 0.0
C1549 C 0.66242 0.4932 0.56454 0.0
C1550 C 0.6707 0.50735 0.57906 0.0
C1551 C 0.64344 0.49477 0.55629 0.0
C1552 C 0.63332 0.47963 0.54163 0.0
C1553 C 0.63052 0.45929 0.54393 0.0
C1554 C 0.62121 0.44508 0.53 0.0
C1555 C 0.61454 0.45103 0.51373 0.0
C1556 C 0.61712 0.47123 0.51137 0.0
C1557 C 0.62643 0.4855 0.52525 0.0
H1558 H 0.60735 0.44 0.50296 0.0
H1559 H 0.694 0.57478 0.64207 0.0
H1560 H 0.78251 0.2825 0.36677 0.0
H1561 H 0.7765 0.2961 0.39711 0.0
H1562 H 0.71516 0.29781 0.37961 0.0
H1563 H 0.72075 0.28345 0.34938 0.0
H1564 H 0.73545 0.33417 0.39792 0.0
H1565 H 0.72398 0.26485 0.40565 0.0
H1566 H 0.73193 0.23046 0.40419 0.0
H1567 H 0.78438 0.25073 0.43994 0.0
H1568 H 0.77691 0.28531 0.4414 0.0
H1569 H 0.71345 0.37199 0.48404 0.0
H1570 H 0.71078 0.34903 0.45623 0.0
H1571 H 0.76919 0.33416 0.46994 0.0
H1572 H 0.77167 0.35648 0.49798 0.0
H1573 H 0.74667 0.30238 0.45326 0.0
H1574 H 0.76194 0.37087 0.44267 0.0
H1575 H 0.75666 0.4061 0.44378 0.0
H1576 H 0.70035 0.38845 0.41301 0.0
H1577 H 0.7052 0.35307 0.41191 0.0
C1578 C 0.76762 0.28536 0.36941 0.0
C1579 C 0.75214 0.28194 0.35555 0.0
C1580 C 0.76424 0.2932 0.38676 0.0
C1581 C 0.74537 0.29788 0.39057 0.0
C1582 C 0.72984 0.29432 0.37689 0.0
C1583 C 0.73313 0.28626 0.35959 0.0
C1584 C 0.74222 0.3076 0.40858 0.0
C1585 C 0.73749 0.32709 0.41001 0.0
C1586 C 0.74546 0.2985 0.42432 0.0
C1587 C 0.74996 0.27771 0.42351 0.0
C1588 C 0.7373 0.26201 0.41308 0.0
C1589 C 0.74171 0.24247 0.41228 0.0
C1590 C 0.75867 0.23842 0.42193 0.0
C1591 C 0.77125 0.25389 0.43245 0.0
C1592 C 0.76693 0.27346 0.43329 0.0
C1593 C 0.72556 0.36355 0.48129 0.0
C1594 C 0.74289 0.36627 0.49311 0.0
C1595 C 0.72406 0.35049 0.46536 0.0
C1596 C 0.74 0.34025 0.46079 0.0
C1597 C 0.75674 0.34197 0.47312 0.0
C1598 C 0.75815 0.3548 0.48916 0.0
C1599 C 0.74005 0.32907 0.44265 0.0
C1600 C 0.7443 0.30936 0.44117 0.0
C1601 C 0.73673 0.33808 0.42683 0.0
C1602 C 0.73382 0.35933 0.42739 0.0
C1603 C 0.74837 0.3745 0.43625 0.0
C1604 C 0.74547 0.39449 0.43686 0.0
C1605 C 0.72815 0.39951 0.42852 0.0
C1606 C 0.71374 0.38454 0.4195 0.0
C1607 C 0.71656 0.36452 0.41887 0.0
H1608 H 0.72593 0.41499 0.429 0.0
H1609 H 0.76206 0.22328 0.42129 0.0
H1610 H 0.45022 0.04722 0.87862 0.0
H1611 H 0.47389 0.03394 0.85891 0.0
H1612 H 0.52253 0.06114 0.89741 0.0
H1613 H 0.49903 0.07504 0.91671 0.0
H1614 H 0.53154 0.06777 0.86585 0.0
H1615 H 0.5056 0.00952 0.89122 0.0
H1616 H 0.47974 0.98417 0.89962 0.0
H1617 H 0.45959 0.96687 0.84398 0.0
H1618 H 0.48516 0.99231 0.83525 0.0
H1619 H 0.60456 0.01786 0.82394 0.0
H1620 H 0.58129 0.02521 0.84649 0.0
H1621 H 0.53233 0.01161 0.80554 0.0
H1622 H 0.55542 0.00444 0.78289 0.0
H1623 H 0.5246 0.99683 0.8394 0.0
H1624 H 0.54979 0.05725 0.81501 0.0
H1625 H 0.57647 0.08217 0.80723 0.0
H1626 H 0.59904 0.09462 0.86269 0.0
H1627 H 0.57264 0.06953 0.87075 0.0
C1628 C 0.46598 0.05032 0.8828 0.0
C1629 C 0.47282 0.06222 0.89906 0.0
C1630 C 0.47947 0.04262 0.87164 0.0
C1631 C 0.5 0.04631 0.87679 0.0
C1632 C 0.50679 0.05811 0.89314 0.0
C1633 C 0.49333 0.06605 0.90415 0.0
C1634 C 0.51449 0.0386 0.86486 0.0
C1635 C 0.53017 0.05218 0.86035 0.0
C1636 C 0.51256 0.01831 0.85741 0.0
C1637 C 0.49719 0.00295 0.8626 0.0
C1638 C 0.49556 0.00041 0.88078 0.0
C1639 C 0.48097 0.986 0.8856 0.0
C1640 C 0.468 0.97395 0.87234 0.0
C1641 C 0.46963 0.97623 0.85423 0.0
C1642 C 0.48419 0.99063 0.84934 0.0
C1643 C 0.58881 0.01613 0.8198 0.0
C1644 C 0.58182 0.01079 0.80163 0.0
C1645 C 0.57557 0.02035 0.83267 0.0
C1646 C 0.55517 0.01906 0.82759 0.0
C1647 C 0.54803 0.01266 0.80967 0.0
C1648 C 0.56126 0.0087 0.79676 0.0
C1649 C 0.54148 0.02601 0.84057 0.0
C1650 C 0.52597 0.01234 0.84514 0.0
C1651 C 0.54364 0.04616 0.84826 0.0
C1652 C 0.55939 0.06137 0.84345 0.0
C1653 C 0.56055 0.06518 0.82552 0.0
C1654 C 0.5756 0.07936 0.82106 0.0
C1655 C 0.58948 0.08993 0.83445 0.0
C1656 C 0.5883 0.08639 0.85233 0.0
C1657 C 0.57329 0.07221 0.85685 0.0
H1658 H 0.60112 0.1009 0.83097 0.0
H1659 H 0.45671 0.9628 0.8761 0.0
H1660 H 0.2811 0.32326 0.35442 0.0
H1661 H 0.28195 0.30663 0.38153 0.0
H1662 H 0.3096 0.25981 0.35387 0.0
H1663 H 0.30778 0.27576 0.32644 0.0
H1664 H 0.28336 0.24435 0.37383 0.0
H1665 H 0.33676 0.29873 0.38307 0.0
H1666 H 0.3523 0.33374 0.38471 0.0
H1667 H 0.316 0.35063 0.4269 0.0
H1668 H 0.30004 0.31574 0.42534 0.0
H1669 H 0.32373 0.20496 0.44845 0.0
H1670 H 0.32307 0.2243 0.42305 0.0
H1671 H 0.28439 0.26143 0.44954 0.0
H1672 H 0.28477 0.24204 0.47504 0.0
H1673 H 0.31568 0.28226 0.43095 0.0
H1674 H 0.26284 0.22645 0.42116 0.0
H1675 H 0.24913 0.19089 0.41947 0.0
H1676 H 0.28696 0.17627 0.37784 0.0
H1677 H 0.30113 0.21174 0.3795 0.0
C1678 C 0.287 0.30922 0.35399 0.0
C1679 C 0.29451 0.30091 0.33829 0.0
C1680 C 0.28772 0.29987 0.36958 0.0
C1681 C 0.29624 0.2822 0.36985 0.0
C1682 C 0.30311 0.27352 0.35403 0.0
C1683 C 0.30222 0.28275 0.3384 0.0
C1684 C 0.29823 0.27284 0.38664 0.0
C1685 C 0.29063 0.25262 0.38625 0.0
C1686 C 0.30745 0.28368 0.40294 0.0
C1687 C 0.31706 0.30466 0.40396 0.0
C1688 C 0.33198 0.30993 0.3926 0.0
C1689 C 0.34089 0.32975 0.39353 0.0
C1690 C 0.3351 0.34441 0.40587 0.0
C1691 C 0.32044 0.33926 0.41733 0.0
C1692 C 0.31147 0.31947 0.41644 0.0
C1693 C 0.31537 0.21746 0.44907 0.0
C1694 C 0.30414 0.22184 0.4637 0.0
C1695 C 0.31498 0.22845 0.43451 0.0
C1696 C 0.30349 0.24408 0.43439 0.0
C1697 C 0.29329 0.24935 0.44942 0.0
C1698 C 0.2935 0.23823 0.46394 0.0
C1699 C 0.30094 0.25388 0.41799 0.0
C1700 C 0.3084 0.27411 0.41849 0.0
C1701 C 0.29183 0.24301 0.40172 0.0
C1702 C 0.28318 0.22171 0.40058 0.0
C1703 C 0.26836 0.21563 0.41176 0.0
C1704 C 0.26048 0.1955 0.41079 0.0
C1705 C 0.26721 0.18132 0.39859 0.0
C1706 C 0.28178 0.18727 0.3873 0.0
C1707 C 0.28973 0.20738 0.38824 0.0
H1708 H 0.26109 0.16574 0.39786 0.0
H1709 H 0.34201 0.35974 0.40657 0.0
H1710 H 0.56429 0.47049 0.89762 0.0
H1711 H 0.54094 0.4816 0.87588 0.0
H1712 H 0.51128 0.50835 0.91952 0.0
H1713 H 0.53426 0.49658 0.94122 0.0
H1714 H 0.48499 0.49302 0.8913 0.0
H1715 H 0.54804 0.53564 0.90072 0.0
H1716 H 0.58468 0.54222 0.90213 0.0
H1717 H 0.58315 0.5199 0.8462 0.0
H1718 H 0.54652 0.51287 0.84452 0.0
H1719 H 0.44132 0.56129 0.84173 0.0
H1720 H 0.46169 0.54791 0.86424 0.0
H1721 H 0.49305 0.52034 0.82231 0.0
H1722 H 0.47308 0.53393 0.79978 0.0
H1723 H 0.5182 0.5367 0.85044 0.0
H1724 H 0.45537 0.49347 0.84115 0.0
H1725 H 0.41883 0.48567 0.83987 0.0
H1726 H 0.41996 0.50898 0.89554 0.0
H1727 H 0.45651 0.51716 0.89708 0.0
C1728 C 0.55237 0.47821 0.90245 0.0
C1729 C 0.55085 0.48266 0.92093 0.0
C1730 C 0.53918 0.48468 0.8901 0.0
C1731 C 0.52467 0.49619 0.89612 0.0
C1732 C 0.5224 0.49956 0.91461 0.0
C1733 C 0.53544 0.49283 0.92696 0.0
C1734 C 0.51306 0.50609 0.88329 0.0
C1735 C 0.49223 0.50275 0.88251 0.0
C1736 C 0.52255 0.51865 0.8717 0.0
C1737 C 0.54454 0.52358 0.87254 0.0
C1738 C 0.55552 0.53208 0.88874 0.0
C1739 C 0.57629 0.53588 0.88959 0.0
C1740 C 0.58622 0.53142 0.87428 0.0
C1741 C 0.57542 0.52331 0.85805 0.0
C1742 C 0.55466 0.51943 0.85714 0.0
C1743 C 0.45267 0.55254 0.8373 0.0
C1744 C 0.45547 0.54858 0.81893 0.0
C1745 C 0.46423 0.54481 0.85018 0.0
C1746 C 0.47865 0.53285 0.84491 0.0
C1747 C 0.48195 0.52947 0.82666 0.0
C1748 C 0.47048 0.53724 0.8138 0.0
C1749 C 0.49008 0.52347 0.8583 0.0
C1750 C 0.51093 0.527 0.85925 0.0
C1751 C 0.4806 0.51113 0.87005 0.0
C1752 C 0.45864 0.50611 0.86917 0.0
C1753 C 0.44781 0.49706 0.85308 0.0
C1754 C 0.4271 0.49255 0.85232 0.0
C1755 C 0.41707 0.49688 0.8676 0.0
C1756 C 0.42775 0.50567 0.8837 0.0
C1757 C 0.44846 0.51023 0.88453 0.0
H1758 H 0.40104 0.49338 0.86699 0.0
H1759 H 0.60229 0.53424 0.87497 0.0
H1760 H 0.72377 0.79825 0.17819 0.0
H1761 H 0.72859 0.77888 0.14967 0.0
H1762 H 0.79043 0.7795 0.16731 0.0
H1763 H 0.78577 0.79964 0.19541 0.0
H1764 H 0.78845 0.78689 0.13488 0.0
H1765 H 0.75354 0.73674 0.16523 0.0
H1766 H 0.72656 0.72157 0.18177 0.0
H1767 H 0.68423 0.72316 0.1371 0.0
H1768 H 0.71092 0.73859 0.12039 0.0
H1769 H 0.80456 0.71279 0.06364 0.0
H1770 H 0.80076 0.72935 0.09372 0.0
H1771 H 0.74209 0.74037 0.07583 0.0
H1772 H 0.74574 0.72399 0.04586 0.0
H1773 H 0.74352 0.72559 0.10889 0.0
H1774 H 0.77933 0.77712 0.07943 0.0
H1775 H 0.80696 0.7916 0.06323 0.0
H1776 H 0.84868 0.78591 0.10719 0.0
H1777 H 0.8213 0.77114 0.12354 0.0
C1778 C 0.73831 0.79408 0.17595 0.0
C1779 C 0.7544 0.80036 0.1889 0.0
C1780 C 0.74107 0.78294 0.15972 0.0
C1781 C 0.75983 0.77744 0.1564 0.0
C1782 C 0.77584 0.78356 0.16951 0.0
C1783 C 0.77317 0.79501 0.18555 0.0
C1784 C 0.76302 0.76595 0.13904 0.0
C1785 C 0.7788 0.77329 0.12939 0.0
C1786 C 0.75028 0.74837 0.13164 0.0
C1787 C 0.73421 0.73898 0.14162 0.0
C1788 C 0.73846 0.73398 0.15898 0.0
C1789 C 0.72322 0.72531 0.16838 0.0
C1790 C 0.70369 0.72144 0.16051 0.0
C1791 C 0.69937 0.72618 0.14319 0.0
C1792 C 0.71454 0.73487 0.13375 0.0
C1793 C 0.79086 0.71874 0.06614 0.0
C1794 C 0.77549 0.71717 0.05237 0.0
C1795 C 0.78873 0.7282 0.08329 0.0
C1796 C 0.77117 0.73614 0.08693 0.0
C1797 C 0.75573 0.73432 0.07328 0.0
C1798 C 0.7579 0.72503 0.05614 0.0
C1799 C 0.76885 0.7466 0.10488 0.0
C1800 C 0.75322 0.73909 0.11456 0.0
C1801 C 0.78185 0.76388 0.11241 0.0
C1802 C 0.7983 0.77283 0.10262 0.0
C1803 C 0.79441 0.7788 0.08557 0.0
C1804 C 0.81002 0.78709 0.07638 0.0
C1805 C 0.82957 0.78961 0.08415 0.0
C1806 C 0.83354 0.78391 0.10117 0.0
C1807 C 0.81798 0.77559 0.11041 0.0
H1808 H 0.84164 0.79603 0.07701 0.0
H1809 H 0.69192 0.71474 0.1678 0.0
H1810 H 0.06039 0.14461 0.12862 0.0
H1811 H 0.03605 0.14264 0.15126 0.0
H1812 H 0.02821 0.0784 0.14084 0.0
H1813 H 0.05195 0.08025 0.11801 0.0
H1814 H 0.993 0.0922 0.14262 0.0
H1815 H 0.05725 0.1037 0.17736 0.0
H1816 H 0.09021 0.12265 0.18774 0.0
H1817 H 0.06266 0.17311 0.20749 0.0
H1818 H 0.02952 0.15452 0.19701 0.0
H1819 H 0.96221 0.04904 0.21726 0.0
H1820 H 0.98037 0.0624 0.19348 0.0
H1821 H 0.97193 0.12205 0.21441 0.0
H1822 H 0.95346 0.10867 0.23847 0.0
H1823 H 0.01165 0.118 0.20679 0.0
H1824 H 0.94685 0.10345 0.17674 0.0
H1825 H 0.9142 0.08357 0.16697 0.0
H1826 H 0.94277 0.03838 0.1386 0.0
H1827 H 0.97563 0.05783 0.14842 0.0
C1828 C 0.05337 0.13009 0.13111 0.0
C1829 C 0.05821 0.11258 0.12163 0.0
C1830 C 0.03957 0.12899 0.14411 0.0
C1831 C 0.0304 0.11037 0.1478 0.0
C1832 C 0.03509 0.09293 0.13821 0.0
C1833 C 0.04884 0.09401 0.12529 0.0
C1834 C 0.01599 0.1087 0.16169 0.0
C1835 C 0.99707 0.09783 0.15665 0.0
C1836 C 0.02105 0.11667 0.1799 0.0
C1837 C 0.04095 0.12782 0.18619 0.0
C1838 C 0.05824 0.1189 0.18377 0.0
C1839 C 0.07694 0.12956 0.1897 0.0
C1840 C 0.07853 0.1491 0.19821 0.0
C1841 C 0.06141 0.15799 0.20086 0.0
C1842 C 0.04266 0.1474 0.19493 0.0
C1843 C 0.96408 0.06501 0.21681 0.0
C1844 C 0.95639 0.07781 0.22975 0.0
C1845 C 0.9744 0.07261 0.20314 0.0
C1846 C 0.97733 0.09318 0.20209 0.0
C1847 C 0.96972 0.1061 0.21497 0.0
C1848 C 0.95915 0.09845 0.22863 0.0
C1849 C 0.989 0.10083 0.18777 0.0
C1850 C 0.00737 0.11282 0.1927 0.0
C1851 C 0.98348 0.09384 0.16944 0.0
C1852 C 0.96373 0.08208 0.1634 0.0
C1853 C 0.94619 0.08921 0.16852 0.0
C1854 C 0.92763 0.07802 0.16295 0.0
C1855 C 0.92641 0.05972 0.15219 0.0
C1856 C 0.94374 0.05257 0.14694 0.0
C1857 C 0.96234 0.06369 0.15247 0.0
H1858 H 0.91203 0.05108 0.14789 0.0
H1859 H 0.09303 0.15732 0.2028 0.0
H1860 H 0.26503 0.78497 0.2018 0.0
H1861 H 0.25678 0.80944 0.18206 0.0
H1862 H 0.31835 0.82054 0.1707 0.0
H1863 H 0.32672 0.79664 0.19092 0.0
H1864 H 0.30392 0.85417 0.17413 0.0
H1865 H 0.28168 0.78854 0.14186 0.0
H1866 H 0.26246 0.7548 0.13716 0.0
H1867 H 0.20796 0.78004 0.13996 0.0
H1868 H 0.22689 0.81393 0.14489 0.0
H1869 H 0.30335 0.8795 0.08599 0.0
H1870 H 0.30493 0.86359 0.11343 0.0
H1871 H 0.24428 0.87218 0.12126 0.0
H1872 H 0.24266 0.88854 0.09376 0.0
H1873 H 0.25322 0.83213 0.12271 0.0
H1874 H 0.27715 0.89851 0.14942 0.0
H1875 H 0.29774 0.93147 0.15237 0.0
H1876 H 0.35069 0.90396 0.15829 0.0
H1877 H 0.33044 0.87079 0.1551 0.0
C1878 C 0.2768 0.79272 0.19515 0.0
C1879 C 0.2965 0.7888 0.1977 0.0
C1880 C 0.27206 0.80666 0.18384 0.0
C1881 C 0.28688 0.81661 0.17465 0.0
C1882 C 0.30665 0.81307 0.17763 0.0
C1883 C 0.31141 0.79936 0.18911 0.0
C1884 C 0.2819 0.83018 0.1614 0.0
C1885 C 0.29288 0.84931 0.16286 0.0
C1886 C 0.26708 0.82409 0.14695 0.0
C1887 C 0.2557 0.80374 0.14397 0.0
C1888 C 0.2656 0.78688 0.14161 0.0
C1889 C 0.25477 0.76773 0.13888 0.0
C1890 C 0.23401 0.76528 0.13832 0.0
C1891 C 0.22404 0.78196 0.14044 0.0
C1892 C 0.23481 0.80114 0.14319 0.0
C1893 C 0.29039 0.87819 0.09362 0.0
C1894 C 0.27286 0.88521 0.08772 0.0
C1895 C 0.29135 0.86918 0.10934 0.0
C1896 C 0.27477 0.86684 0.11939 0.0
C1897 C 0.25725 0.87397 0.11368 0.0
C1898 C 0.25637 0.88332 0.09804 0.0
C1899 C 0.27565 0.85579 0.1352 0.0
C1900 C 0.26393 0.83713 0.13421 0.0
C1901 C 0.28999 0.86219 0.14992 0.0
C1902 C 0.30226 0.88213 0.15191 0.0
C1903 C 0.29319 0.89947 0.15121 0.0
C1904 C 0.3048 0.91819 0.15295 0.0
C1905 C 0.32551 0.9198 0.15549 0.0
C1906 C 0.33465 0.90269 0.15632 0.0
C1907 C 0.3231 0.88392 0.15457 0.0
H1908 H 0.33448 0.93432 0.15683 0.0
H1909 H 0.22564 0.75044 0.13621 0.0
H1910 H 0.96072 0.49855 0.09305 0.0
H1911 H 0.98752 0.49662 0.11564 0.0
H1912 H 0.96195 0.43671 0.12195 0.0
H1913 H 0.93442 0.43885 0.0998 0.0
H1914 H 0.97538 0.45735 0.1539 0.0
H1915 H 0.0021 0.44387 0.098 0.0
H1916 H 0.00964 0.44852 0.067 0.0
H1917 H 0.04425 0.50527 0.08593 0.0
H1918 H 0.03667 0.50111 0.11703 0.0
H1919 H 0.06771 0.45738 0.20793 0.0
H1920 H 0.04252 0.44595 0.18248 0.0
H1921 H 0.04591 0.50616 0.16916 0.0
H1922 H 0.07055 0.51762 0.19452 0.0
H1923 H 0.04473 0.47625 0.13892 0.0
H1924 H 0.01127 0.49115 0.19376 0.0
H1925 H 0.00355 0.48589 0.22462 0.0
H1926 H 0.98203 0.42422 0.2068 0.0
H1927 H 0.98989 0.42909 0.17586 0.0
C1928 C 0.96051 0.4851 0.09948 0.0
C1929 C 0.94541 0.46885 0.0946 0.0
C1930 C 0.97603 0.4839 0.11221 0.0
C1931 C 0.97699 0.46634 0.12016 0.0
C1932 C 0.96161 0.45031 0.11582 0.0
C1933 C 0.94597 0.45153 0.10311 0.0
C1934 C 0.99413 0.46499 0.13299 0.0
C1935 C 0.99056 0.461 0.15049 0.0
C1936 C 0.01396 0.46966 0.12854 0.0
C1937 C 0.01873 0.4722 0.10986 0.0
C1938 C 0.01122 0.4574 0.09555 0.0
C1939 C 0.01551 0.45994 0.07796 0.0
C1940 C 0.0274 0.47719 0.0745 0.0
C1941 C 0.03505 0.49191 0.08863 0.0
C1942 C 0.03078 0.48945 0.10625 0.0
C1943 C 0.06325 0.46804 0.19936 0.0
C1944 C 0.07092 0.48838 0.2032 0.0
C1945 C 0.04888 0.46153 0.18491 0.0
C1946 C 0.04238 0.47526 0.17404 0.0
C1947 C 0.05079 0.49535 0.17738 0.0
C1948 C 0.06478 0.50188 0.19192 0.0
C1949 C 0.02586 0.4694 0.15987 0.0
C1950 C 0.02956 0.47202 0.14211 0.0
C1951 C 0.00621 0.46328 0.16404 0.0
C1952 C 0.00141 0.46041 0.18258 0.0
C1953 C 0.00506 0.47643 0.19647 0.0
C1954 C 0.00063 0.47353 0.21396 0.0
C1955 C 0.99237 0.45471 0.21768 0.0
C1956 C 0.98847 0.43877 0.20391 0.0
C1957 C 0.99291 0.4416 0.1864 0.0
H1958 H 0.98894 0.45249 0.23123 0.0
H1959 H 0.03071 0.47913 0.06087 0.0
H1960 H 0.34917 0.74372 0.23876 0.0
H1961 H 0.37987 0.74453 0.25779 0.0
H1962 H 0.34656 0.71615 0.29703 0.0
H1963 H 0.31569 0.71631 0.27856 0.0
H1964 H 0.37285 0.74471 0.31332 0.0
H1965 H 0.37461 0.69016 0.26786 0.0
H1966 H 0.37314 0.67295 0.23701 0.0
H1967 H 0.424 0.71285 0.22622 0.0
H1968 H 0.42561 0.73048 0.25694 0.0
H1969 H 0.45776 0.72429 0.36348 0.0
H1970 H 0.42773 0.71655 0.34271 0.0
H1971 H 0.45512 0.75435 0.30637 0.0
H1972 H 0.48514 0.76229 0.32706 0.0
H1973 H 0.43162 0.71847 0.28897 0.0
H1974 H 0.42756 0.77415 0.33429 0.0
H1975 H 0.42888 0.79045 0.36546 0.0
H1976 H 0.38165 0.74647 0.3767 0.0
H1977 H 0.38027 0.72972 0.34564 0.0
C1978 C 0.34833 0.7379 0.25155 0.0
C1979 C 0.32996 0.72986 0.25708 0.0
C1980 C 0.36594 0.73811 0.2623 0.0
C1981 C 0.36557 0.73003 0.27867 0.0
C1982 C 0.34723 0.72232 0.28438 0.0
C1983 C 0.32961 0.72227 0.27372 0.0
C1984 C 0.38426 0.73001 0.29005 0.0
C1985 C 0.38555 0.73864 0.30804 0.0
C1986 C 0.40098 0.72236 0.28314 0.0
C1987 C 0.40012 0.71175 0.26466 0.0
C1988 C 0.38539 0.69536 0.25887 0.0
C1989 C 0.38455 0.68551 0.24141 0.0
C1990 C 0.39844 0.69183 0.22964 0.0
C1991 C 0.41324 0.70798 0.23534 0.0
C1992 C 0.41414 0.71789 0.25278 0.0
C1993 C 0.45757 0.7306 0.35088 0.0
C1994 C 0.47373 0.74408 0.34699 0.0
C1995 C 0.44039 0.72621 0.33908 0.0
C1996 C 0.43918 0.73509 0.32315 0.0
C1997 C 0.45579 0.7474 0.31862 0.0
C1998 C 0.47288 0.75197 0.33049 0.0
C1999 C 0.42007 0.73317 0.31208 0.0
C2000 C 0.41877 0.72429 0.2942 0.0
C2001 C 0.40326 0.7404 0.3191 0.0
C2002 C 0.40397 0.75056 0.33772 0.0
C2003 C 0.41757 0.76786 0.34346 0.0
C2004 C 0.41831 0.7772 0.36109 0.0
C2005 C 0.4054 0.76947 0.37307 0.0
C2006 C 0.39167 0.75242 0.36742 0.0
C2007 C 0.3909 0.743 0.3498 0.0
H2008 H 0.40599 0.77672 0.38672 0.0
H2009 H 0.39776 0.68419 0.21613 0.0
H2010 H 0.92455 0.42869 0.00759 0.0
H2011 H 0.94104 0.40837 0.98597 0.0
H2012 H 0.93188 0.35909 0.01724 0.0
H2013 H 0.91586 0.37966 0.03926 0.0
H2014 H 0.96854 0.3636 0.00819 0.0
H2015 H 0.90448 0.35972 0.97656 0.0
H2016 H 0.87524 0.37252 0.96342 0.0
H2017 H 0.91211 0.40421 0.92884 0.0
H2018 H 0.94163 0.39181 0.94196 0.0
H2019 H 0.98927 0.28799 0.94118 0.0
H2020 H 0.97365 0.30897 0.96303 0.0
H2021 H 0.99059 0.35999 0.93551 0.0
H2022 H 0.00635 0.33911 0.91356 0.0
H2023 H 0.95037 0.35475 0.94244 0.0
H2024 H 0.01445 0.35734 0.97434 0.0
H2025 H 0.04292 0.34324 0.98736 0.0
H2026 H 0.00469 0.31221 0.02134 0.0
H2027 H 0.97592 0.3259 0.00833 0.0
C2028 C 0.92584 0.41346 0.00977 0.0
C2029 C 0.91886 0.40567 0.02506 0.0
C2030 C 0.93523 0.40183 0.99736 0.0
C2031 C 0.93753 0.38212 -0.00013 0.0
C2032 C 0.93028 0.37425 0.01502 0.0
C2033 C 0.92104 0.38595 0.02752 0.0
C2034 C 0.94817 0.36998 0.98707 0.0
C2035 C 0.96436 0.36143 0.99384 0.0
C2036 C 0.94303 0.36752 0.9683 0.0
C2037 C 0.9253 0.37499 0.96037 0.0
C2038 C 0.90639 0.36955 0.96626 0.0
C2039 C 0.88975 0.37671 0.95879 0.0
C2040 C 0.89183 0.38921 0.94534 0.0
C2041 C 0.91053 0.39454 0.93929 0.0
C2042 C 0.92722 0.38744 0.94672 0.0
C2043 C 0.98984 0.30371 0.93984 0.0
C2044 C 0.99904 0.31189 0.92562 0.0
C2045 C 0.98096 0.31568 0.95238 0.0
C2046 C 0.98103 0.33601 0.95089 0.0
C2047 C 0.9904 0.3443 0.93686 0.0
C2048 C 0.99947 0.33238 0.9244 0.0
C2049 C 0.97064 0.34841 0.9636 0.0
C2050 C 0.95451 0.35697 0.9568 0.0
C2051 C 0.97569 0.35071 0.98234 0.0
C2052 C 0.99299 0.3425 0.99023 0.0
C2053 C 0.01207 0.34737 0.98447 0.0
C2054 C 0.02827 0.33948 0.99188 0.0
C2055 C 0.0256 0.32679 0.00513 0.0
C2056 C 0.00673 0.32202 0.01105 0.0
C2057 C 0.99048 0.32986 0.00368 0.0
H2058 H 0.03816 0.3207 0.01085 0.0
H2059 H 0.87893 0.39473 0.93958 0.0
H2060 H 0.68468 0.81357 0.25419 0.0
H2061 H 0.6572 0.8098 0.27359 0.0
H2062 H 0.69877 0.80611 0.31858 0.0
H2063 H 0.72644 0.81043 0.29933 0.0
H2064 H 0.66127 0.77503 0.31118 0.0
H2065 H 0.6848 0.84603 0.32084 0.0
H2066 H 0.69451 0.87884 0.31071 0.0
H2067 H 0.63625 0.87612 0.28398 0.0
H2068 H 0.62629 0.84314 0.29372 0.0
H2069 H 0.59037 0.77987 0.37633 0.0
H2070 H 0.62095 0.78477 0.36094 0.0
H2071 H 0.59021 0.81253 0.32056 0.0
H2072 H 0.56012 0.80864 0.33637 0.0
H2073 H 0.62451 0.83192 0.32726 0.0
H2074 H 0.6004 0.76193 0.31457 0.0
H2075 H 0.58914 0.72801 0.32164 0.0
H2076 H 0.64574 0.72698 0.3502 0.0
H2077 H 0.65725 0.76101 0.34348 0.0
C2078 C 0.68795 0.81184 0.26818 0.0
C2079 C 0.70764 0.81222 0.27531 0.0
C2080 C 0.67227 0.80975 0.27923 0.0
C2081 C 0.67605 0.8077 0.29746 0.0
C2082 C 0.69564 0.80764 0.30452 0.0
C2083 C 0.71136 0.81014 0.29356 0.0
C2084 C 0.65948 0.80599 0.30919 0.0
C2085 C 0.65336 0.7875 0.31498 0.0
C2086 C 0.64894 0.82215 0.31362 0.0
C2087 C 0.65488 0.84203 0.30785 0.0
C2088 C 0.67413 0.85234 0.31265 0.0
C2089 C 0.67966 0.87099 0.30702 0.0
C2090 C 0.66603 0.87954 0.29667 0.0
C2091 C 0.64681 0.86948 0.29197 0.0
C2092 C 0.64121 0.85081 0.29756 0.0
C2093 C 0.59024 0.78714 0.36423 0.0
C2094 C 0.57288 0.79386 0.35754 0.0
C2095 C 0.60767 0.78981 0.35537 0.0
C2096 C 0.60785 0.79872 0.33937 0.0
C2097 C 0.59054 0.80566 0.33287 0.0
C2098 C 0.5733 0.80339 0.34191 0.0
C2099 C 0.6259 0.80077 0.32921 0.0
C2100 C 0.63238 0.81938 0.32366 0.0
C2101 C 0.63647 0.78454 0.32464 0.0
C2102 C 0.6296 0.7641 0.3287 0.0
C2103 C 0.61039 0.75452 0.32247 0.0
C2104 C 0.60397 0.73527 0.3264 0.0
C2105 C 0.6167 0.72537 0.33642 0.0
C2106 C 0.63589 0.73468 0.34248 0.0
C2107 C 0.64237 0.75395 0.33861 0.0
H2108 H 0.6117 0.71047 0.33944 0.0
H2109 H 0.67034 0.89398 0.29232 0.0
H2110 H 0.12356 0.16358 0.0354 0.0
H2111 H 0.11581 0.17741 0.00737 0.0
H2112 H 0.05314 0.16084 0.01204 0.0
H2113 H 0.06076 0.14724 0.04004 0.0
H2114 H 0.06554 0.14993 0.97738 0.0
H2115 H 0.07228 0.2074 0.02313 0.0
H2116 H 0.09021 0.23109 0.04801 0.0
H2117 H 0.13663 0.24703 0.01414 0.0
H2118 H 0.11909 0.22321 0.98911 0.0
H2119 H 0.01164 0.20638 0.92523 0.0
H2120 H 0.02774 0.18902 0.94736 0.0
H2121 H 0.085 0.21965 0.93788 0.0
H2122 H 0.0688 0.23757 0.91584 0.0
H2123 H 0.08092 0.22223 0.97255 0.0
H2124 H 0.07259 0.16876 0.92551 0.0
H2125 H 0.0555 0.14506 0.90025 0.0
H2126 H 0.01389 0.12101 0.93536 0.0
H2127 H 0.03053 0.14476 0.96079 0.0
C2128 C 0.10815 0.163 0.03044 0.0
C2129 C 0.09277 0.15449 0.03992 0.0
C2130 C 0.10375 0.17086 0.01447 0.0
C2131 C 0.08391 0.17014 0.00768 0.0
C2132 C 0.06855 0.16148 0.01706 0.0
C2133 C 0.07292 0.15383 0.03311 0.0
C2134 C 0.07899 0.17855 0.99088 0.0
C2135 C 0.06878 0.16574 0.9763 0.0
C2136 C 0.08398 0.19904 0.98929 0.0
C2137 C 0.09451 0.21334 0.00433 0.0
C2138 C 0.08641 0.21582 0.02104 0.0
C2139 C 0.09647 0.2293 0.03516 0.0
C2140 C 0.11458 0.24051 0.03268 0.0
C2141 C 0.12262 0.2383 0.01606 0.0
C2142 C 0.11263 0.22482 0.0019 0.0
C2143 C 0.0277 0.20922 0.92759 0.0
C2144 C 0.03894 0.22342 0.91881 0.0
C2145 C 0.03693 0.19916 0.9402 0.0
C2146 C 0.05763 0.20286 0.94419 0.0
C2147 C 0.06901 0.21652 0.93499 0.0
C2148 C 0.05975 0.22668 0.92235 0.0
C2149 C 0.06691 0.1937 0.95908 0.0
C2150 C 0.07796 0.20634 0.97338 0.0
C2151 C 0.06287 0.173 0.96032 0.0
C2152 C 0.05277 0.15865 0.94506 0.0
C2153 C 0.05971 0.15852 0.92783 0.0
C2154 C 0.05011 0.14506 0.91348 0.0
C2155 C 0.0336 0.13156 0.91619 0.0
C2156 C 0.02668 0.13148 0.93328 0.0
C2157 C 0.03621 0.14492 0.94768 0.0
H2158 H 0.0262 0.12115 0.90506 0.0
H2159 H 0.12235 0.25095 0.04362 0.0
H2160 H 0.38399 0.30366 0.29772 0.0
H2161 H 0.40983 0.30137 0.27673 0.0
H2162 H 0.37678 0.33143 0.23975 0.0
H2163 H 0.35066 0.33319 0.26044 0.0
H2164 H 0.38958 0.30095 0.22227 0.0
H2165 H 0.41934 0.35522 0.26596 0.0
H2166 H 0.43088 0.37235 0.29626 0.0
H2167 H 0.4708 0.32945 0.3033 0.0
H2168 H 0.4593 0.3119 0.27311 0.0
H2169 H 0.46654 0.32554 0.16645 0.0
H2170 H 0.44238 0.32861 0.18885 0.0
H2171 H 0.47107 0.28942 0.21999 0.0
H2172 H 0.49534 0.28612 0.19755 0.0
H2173 H 0.46106 0.32417 0.24052 0.0
H2174 H 0.43081 0.27034 0.19605 0.0
H2175 H 0.41944 0.25445 0.1653 0.0
H2176 H 0.38044 0.29841 0.15942 0.0
H2177 H 0.3918 0.31475 0.19005 0.0
C2178 C 0.38232 0.30982 0.28512 0.0
C2179 C 0.36539 0.31859 0.2807 0.0
C2180 C 0.39711 0.3086 0.27319 0.0
C2181 C 0.39537 0.31647 0.25676 0.0
C2182 C 0.37844 0.32528 0.25235 0.0
C2183 C 0.36354 0.32631 0.26421 0.0
C2184 C 0.41094 0.31504 0.24395 0.0
C2185 C 0.40516 0.3063 0.22623 0.0
C2186 C 0.43135 0.32161 0.24919 0.0
C2187 C 0.43831 0.33214 0.26734 0.0
C2188 C 0.43046 0.34935 0.27402 0.0
C2189 C 0.43702 0.35915 0.29117 0.0
C2190 C 0.45152 0.35196 0.30172 0.0
C2191 C 0.45954 0.33499 0.29512 0.0
C2192 C 0.45303 0.32512 0.27799 0.0
C2193 C 0.46783 0.31766 0.1781 0.0
C2194 C 0.48282 0.30551 0.18018 0.0
C2195 C 0.45397 0.31939 0.19085 0.0
C2196 C 0.45489 0.3091 0.20595 0.0
C2197 C 0.47014 0.29743 0.20838 0.0
C2198 C 0.48392 0.29552 0.19553 0.0
C2199 C 0.4396 0.31023 0.21895 0.0
C2200 C 0.44545 0.31886 0.23666 0.0
C2201 C 0.41923 0.30375 0.21367 0.0
C2202 C 0.4123 0.29388 0.19528 0.0
C2203 C 0.41993 0.27672 0.18814 0.0
C2204 C 0.41347 0.26761 0.17075 0.0
C2205 C 0.39926 0.27544 0.1604 0.0
C2206 C 0.39146 0.29238 0.16744 0.0
C2207 C 0.39789 0.30156 0.18483 0.0
H2208 H 0.39428 0.26837 0.14693 0.0
H2209 H 0.45658 0.35957 0.31499 0.0
H2210 H 0.56014 0.43591 0.99594 0.0
H2211 H 0.55571 0.42102 0.02369 0.0
H2212 H 0.6157 0.40683 0.02447 0.0
H2213 H 0.62028 0.42185 0.99655 0.0
H2214 H 0.58785 0.3753 0.03124 0.0
H2215 H 0.60717 0.44389 0.05317 0.0
H2216 H 0.60655 0.48012 0.05453 0.0
H2217 H 0.54587 0.47236 0.06788 0.0
H2218 H 0.54602 0.43603 0.06633 0.0
H2219 H 0.57068 0.34017 0.11496 0.0
H2220 H 0.58771 0.36108 0.09462 0.0
H2221 H 0.53367 0.3858 0.08326 0.0
H2222 H 0.51671 0.36527 0.10361 0.0
H2223 H 0.56593 0.41381 0.08464 0.0
H2224 H 0.5448 0.3456 0.05682 0.0
H2225 H 0.54417 0.30911 0.05442 0.0
H2226 H 0.60748 0.31622 0.05147 0.0
H2227 H 0.6085 0.3528 0.05409 0.0
C2228 C 0.57239 0.42958 0.00195 0.0
C2229 C 0.59058 0.43 0.99412 0.0
C2230 C 0.56987 0.4212 0.01788 0.0
C2231 C 0.58548 0.41308 0.02623 0.0
C2232 C 0.60354 0.41313 0.01825 0.0
C2233 C 0.60612 0.42167 0.00236 0.0
C2234 C 0.58257 0.40423 0.0431 0.0
C2235 C 0.58353 0.3838 0.04309 0.0
C2236 C 0.57672 0.41532 0.05845 0.0
C2237 C 0.57658 0.4372 0.05953 0.0
C2238 C 0.59365 0.44988 0.05627 0.0
C2239 C 0.59339 0.47044 0.0571 0.0
C2240 C 0.57618 0.47853 0.06126 0.0
C2241 C 0.55919 0.46607 0.06465 0.0
C2242 C 0.55937 0.44549 0.06383 0.0
C2243 C 0.56259 0.35041 0.10845 0.0
C2244 C 0.5423 0.3509 0.1107 0.0
C2245 C 0.5723 0.36227 0.09678 0.0
C2246 C 0.56184 0.37473 0.08722 0.0
C2247 C 0.54201 0.37626 0.09047 0.0
C2248 C 0.53231 0.36443 0.10206 0.0
C2249 C 0.57065 0.38478 0.07257 0.0
C2250 C 0.57077 0.40542 0.07298 0.0
C2251 C 0.57738 0.37387 0.05754 0.0
C2252 C 0.57676 0.35191 0.05589 0.0
C2253 C 0.5586 0.33937 0.0558 0.0
C2254 C 0.55817 0.31869 0.05438 0.0
C2255 C 0.57578 0.31036 0.05286 0.0
C2256 C 0.59386 0.3227 0.05269 0.0
C2257 C 0.59437 0.34341 0.05415 0.0
H2258 H 0.57542 0.29433 0.05175 0.0
H2259 H 0.576 0.49445 0.06189 0.0
H2260 H 0.70857 0.29685 0.27823 0.0
H2261 H 0.68008 0.2994 0.25752 0.0
H2262 H 0.7046 0.26412 0.21537 0.0
H2263 H 0.73346 0.26182 0.23605 0.0
H2264 H 0.68746 0.29364 0.20223 0.0
H2265 H 0.6695 0.2423 0.23913 0.0
H2266 H 0.66581 0.22784 0.26755 0.0
H2267 H 0.6269 0.27007 0.28398 0.0
H2268 H 0.63057 0.28497 0.25574 0.0
H2269 H 0.57551 0.25116 0.17382 0.0
H2270 H 0.60762 0.25065 0.19008 0.0
H2271 H 0.62374 0.31329 0.18609 0.0
H2272 H 0.59168 0.31378 0.16933 0.0
H2273 H 0.62123 0.26901 0.22136 0.0
H2274 H 0.67458 0.32404 0.18741 0.0
H2275 H 0.67847 0.33512 0.15755 0.0
H2276 H 0.64664 0.27924 0.13229 0.0
H2277 H 0.64279 0.26773 0.16197 0.0
C2278 C 0.70802 0.28978 0.26452 0.0
C2279 C 0.72311 0.27891 0.25876 0.0
C2280 C 0.6917 0.29124 0.2527 0.0
C2281 C 0.69006 0.28167 0.235 0.0
C2282 C 0.70556 0.27158 0.22899 0.0
C2283 C 0.72197 0.27022 0.2408 0.0
C2284 C 0.67164 0.2812 0.22315 0.0
C2285 C 0.67295 0.2883 0.20639 0.0
C2286 C 0.65277 0.27384 0.22844 0.0
C2287 C 0.65047 0.26487 0.24541 0.0
C2288 C 0.66027 0.2486 0.24886 0.0
C2289 C 0.65817 0.24031 0.26493 0.0
C2290 C 0.64617 0.24806 0.27758 0.0
C2291 C 0.63621 0.2641 0.27417 0.0
C2292 C 0.63829 0.27246 0.25814 0.0
C2293 C 0.58594 0.26481 0.17624 0.0
C2294 C 0.58104 0.28254 0.17036 0.0
C2295 C 0.60429 0.26449 0.18557 0.0
C2296 C 0.61812 0.2819 0.18929 0.0
C2297 C 0.61343 0.2996 0.18316 0.0
C2298 C 0.59507 0.29988 0.17365 0.0
C2299 C 0.63693 0.28163 0.20043 0.0
C2300 C 0.63569 0.27442 0.21714 0.0
C2301 C 0.65584 0.28843 0.19486 0.0
C2302 C 0.65822 0.29513 0.17693 0.0
C2303 C 0.66847 0.3141 0.17548 0.0
C2304 C 0.67066 0.32046 0.15859 0.0
C2305 C 0.66275 0.30792 0.14304 0.0
C2306 C 0.65269 0.28897 0.14435 0.0
C2307 C 0.65048 0.28254 0.1612 0.0
H2308 H 0.66445 0.31288 0.12997 0.0
H2309 H 0.64456 0.24162 0.29001 0.0
H2310 H 0.42836 0.14332 0.97856 0.0
H2311 H 0.43969 0.17191 0.00152 0.0
H2312 H 0.49926 0.15659 0.00248 0.0
H2313 H 0.48808 0.12821 0.97937 0.0
H2314 H 0.48102 0.15974 0.03668 0.0
H2315 H 0.49369 0.19591 0.98613 0.0
H2316 H 0.48473 0.20787 0.95732 0.0
H2317 H 0.4392 0.23733 0.98135 0.0
H2318 H 0.4477 0.22529 0.01026 0.0
H2319 H 0.52874 0.23866 0.09967 0.0
H2320 H 0.51968 0.21421 0.07308 0.0
H2321 H 0.4665 0.24051 0.06184 0.0
H2322 H 0.47605 0.26563 0.08797 0.0
H2323 H 0.4816 0.23186 0.03205 0.0
H2324 H 0.46619 0.19569 0.08134 0.0
H2325 H 0.47214 0.18292 0.11036 0.0
H2326 H 0.51856 0.15239 0.08934 0.0
H2327 H 0.51306 0.16519 0.06025 0.0
C2328 C 0.44393 0.14634 0.98346 0.0
C2329 C 0.45739 0.13368 0.97725 0.0
C2330 C 0.45037 0.16262 0.99649 0.0
C2331 C 0.47028 0.16627 0.00361 0.0
C2332 C 0.48386 0.15399 0.99705 0.0
C2333 C 0.47749 0.13791 0.98382 0.0
C2334 C 0.47652 0.18177 0.01901 0.0
C2335 C 0.48148 0.17556 0.03567 0.0
C2336 C 0.47629 0.20223 0.01768 0.0
C2337 C 0.4712 0.20952 0.00032 0.0
C2338 C 0.48164 0.20477 0.98523 0.0
C2339 C 0.47667 0.2116 0.96889 0.0
C2340 C 0.46137 0.2233 0.96749 0.0
C2341 C 0.45104 0.22824 0.98245 0.0
C2342 C 0.45593 0.22143 0.99882 0.0
C2343 C 0.51509 0.23918 0.09156 0.0
C2344 C 0.50301 0.25394 0.09595 0.0
C2345 C 0.50988 0.22516 0.07639 0.0
C2346 C 0.4922 0.22527 0.06562 0.0
C2347 C 0.4802 0.2401 0.06994 0.0
C2348 C 0.48562 0.25439 0.08491 0.0
C2349 C 0.48626 0.20991 0.04988 0.0
C2350 C 0.48124 0.21608 0.03314 0.0
C2351 C 0.48599 0.1893 0.0512 0.0
C2352 C 0.48935 0.18157 0.06868 0.0
C2353 C 0.47777 0.18638 0.08295 0.0
C2354 C 0.48104 0.17911 0.0994 0.0
C2355 C 0.49576 0.1669 0.1017 0.0
C2356 C 0.50719 0.16188 0.08754 0.0
C2357 C 0.50399 0.16912 0.07107 0.0
H2358 H 0.49827 0.16128 0.11445 0.0
H2359 H 0.45755 0.22858 0.95483 0.0
H2360 H 0.2992 0.36112 0.72009 0.0
H2361 H 0.31796 0.39476 0.72617 0.0
H2362 H 0.2636 0.41916 0.73523 0.0
H2363 H 0.24476 0.38543 0.72943 0.0
H2364 H 0.29273 0.44082 0.71274 0.0
H2365 H 0.2866 0.41526 0.76994 0.0
H2366 H 0.28901 0.38982 0.79055 0.0
H2367 H 0.35161 0.39275 0.78451 0.0
H2368 H 0.34949 0.41798 0.76362 0.0
H2369 H 0.35417 0.52307 0.78341 0.0
H2370 H 0.32933 0.49373 0.77445 0.0
H2371 H 0.35714 0.48145 0.72525 0.0
H2372 H 0.3822 0.51076 0.73413 0.0
H2373 H 0.33827 0.45503 0.76851 0.0
H2374 H 0.31896 0.45886 0.69298 0.0
H2375 H 0.31628 0.48422 0.67232 0.0
H2376 H 0.30354 0.52589 0.71588 0.0
H2377 H 0.30585 0.50071 0.73674 0.0
C2378 C 0.29125 0.3737 0.72316 0.0
C2379 C 0.27059 0.37076 0.72437 0.0
C2380 C 0.30195 0.39284 0.72663 0.0
C2381 C 0.29211 0.40934 0.73112 0.0
C2382 C 0.27139 0.40656 0.73171 0.0
C2383 C 0.2607 0.38735 0.72853 0.0
C2384 C 0.30373 0.42926 0.73639 0.0
C2385 C 0.30268 0.44402 0.72493 0.0
C2386 C 0.31648 0.43335 0.75238 0.0
C2387 C 0.31784 0.41835 0.76509 0.0
C2388 C 0.30084 0.41034 0.77289 0.0
C2389 C 0.30216 0.39599 0.78464 0.0
C2390 C 0.32045 0.38963 0.7888 0.0
C2391 C 0.33745 0.39766 0.78126 0.0
C2392 C 0.3362 0.412 0.76947 0.0
C2393 C 0.35488 0.51432 0.77056 0.0
C2394 C 0.37025 0.5192 0.75952 0.0
C2395 C 0.34069 0.49753 0.7655 0.0
C2396 C 0.34141 0.48548 0.7492 0.0
C2397 C 0.35626 0.49068 0.73782 0.0
C2398 C 0.3706 0.50738 0.74295 0.0
C2399 C 0.32754 0.46667 0.74476 0.0
C2400 C 0.32826 0.45199 0.75635 0.0
C2401 C 0.31447 0.46275 0.72892 0.0
C2402 C 0.31277 0.47794 0.71645 0.0
C2403 C 0.31551 0.47341 0.69813 0.0
C2404 C 0.31407 0.48776 0.68639 0.0
C2405 C 0.30981 0.50668 0.69279 0.0
C2406 C 0.30692 0.51126 0.71095 0.0
C2407 C 0.30833 0.49696 0.72274 0.0
H2408 H 0.30871 0.51777 0.68368 0.0
H2409 H 0.32144 0.37852 0.79791 0.0
H2410 H 0.28274 0.72985 0.84046 0.0
H2411 H 0.30741 0.70703 0.83664 0.0
H2412 H 0.32365 0.73132 0.78825 0.0
H2413 H 0.2989 0.7542 0.79198 0.0
H2414 H 0.31851 0.69172 0.78299 0.0
H2415 H 0.35473 0.74162 0.82705 0.0
H2416 H 0.36036 0.76459 0.8553 0.0
H2417 H 0.35279 0.71489 0.88574 0.0
H2418 H 0.34682 0.69162 0.85768 0.0
H2419 H 0.39683 0.6319 0.77575 0.0
H2420 H 0.38039 0.6619 0.77925 0.0
H2421 H 0.35634 0.64377 0.82745 0.0
H2422 H 0.3728 0.61403 0.82418 0.0
H2423 H 0.36901 0.68348 0.83135 0.0
H2424 H 0.32863 0.63439 0.78752 0.0
H2425 H 0.32224 0.61116 0.75944 0.0
H2426 H 0.3374 0.65959 0.72874 0.0
H2427 H 0.34414 0.68307 0.75669 0.0
C2428 C 0.29177 0.73054 0.82915 0.0
C2429 C 0.28888 0.74383 0.81653 0.0
C2430 C 0.30588 0.7175 0.82699 0.0
C2431 C 0.31756 0.71763 0.81227 0.0
C2432 C 0.31482 0.73098 0.79971 0.0
C2433 C 0.30064 0.74398 0.80183 0.0
C2434 C 0.33191 0.70314 0.80958 0.0
C2435 C 0.32984 0.69021 0.79343 0.0
C2436 C 0.34647 0.70093 0.82331 0.0
C2437 C 0.35019 0.71488 0.84024 0.0
C2438 C 0.35413 0.73559 0.83977 0.0
C2439 C 0.3574 0.74866 0.85575 0.0
C2440 C 0.3569 0.74121 0.8723 0.0
C2441 C 0.35317 0.72065 0.87291 0.0
C2442 C 0.34986 0.7075 0.85697 0.0
C2443 C 0.38822 0.63444 0.78719 0.0
C2444 C 0.38599 0.62052 0.79961 0.0
C2445 C 0.3788 0.65154 0.78914 0.0
C2446 C 0.36697 0.65494 0.80351 0.0
C2447 C 0.36539 0.64145 0.81627 0.0
C2448 C 0.37475 0.62439 0.81432 0.0
C2449 C 0.35535 0.67192 0.80491 0.0
C2450 C 0.35791 0.68527 0.82082 0.0
C2451 C 0.34121 0.67452 0.79098 0.0
C2452 C 0.33712 0.66043 0.77419 0.0
C2453 C 0.33076 0.64005 0.77479 0.0
C2454 C 0.32705 0.62685 0.7589 0.0
C2455 C 0.32948 0.63388 0.74232 0.0
C2456 C 0.33557 0.65415 0.74159 0.0
C2457 C 0.33933 0.66742 0.75745 0.0
H2458 H 0.32659 0.62364 0.73003 0.0
H2459 H 0.35943 0.75136 0.88466 0.0
H2460 H 0.88379 0.58338 0.45712 0.0
H2461 H 0.85968 0.5592 0.46889 0.0
H2462 H 0.90482 0.52083 0.4749 0.0
H2463 H 0.92856 0.54457 0.46219 0.0
H2464 H 0.87105 0.49894 0.46492 0.0
H2465 H 0.89265 0.55433 0.51039 0.0
H2466 H 0.89882 0.58987 0.5228 0.0
H2467 H 0.83633 0.5936 0.51544 0.0
H2468 H 0.82983 0.55816 0.50265 0.0
H2469 H 0.82289 0.44405 0.5287 0.0
H2470 H 0.84725 0.46762 0.51656 0.0
H2471 H 0.80051 0.50052 0.50032 0.0
H2472 H 0.77605 0.47701 0.51228 0.0
H2473 H 0.83571 0.52479 0.51638 0.0
H2474 H 0.81496 0.46919 0.47005 0.0
H2475 H 0.80939 0.43355 0.45793 0.0
H2476 H 0.87161 0.43014 0.46836 0.0
H2477 H 0.87749 0.46572 0.48079 0.0
C2478 C 0.88834 0.56957 0.46065 0.0
C2479 C 0.90787 0.56569 0.45882 0.0
C2480 C 0.87468 0.55587 0.46752 0.0
C2481 C 0.8806 0.53844 0.47325 0.0
C2482 C 0.89994 0.5342 0.47066 0.0
C2483 C 0.91347 0.54771 0.46341 0.0
C2484 C 0.8669 0.52505 0.48257 0.0
C2485 C 0.86356 0.50459 0.47632 0.0
C2486 C 0.85693 0.53241 0.49736 0.0
C2487 C 0.86078 0.55362 0.50542 0.0
C2488 C 0.88023 0.56275 0.51134 0.0
C2489 C 0.88379 0.58289 0.51843 0.0
C2490 C 0.86797 0.59399 0.51988 0.0
C2491 C 0.84857 0.58498 0.51429 0.0
C2492 C 0.84494 0.56487 0.50712 0.0
C2493 C 0.81784 0.45645 0.52276 0.0
C2494 C 0.79754 0.45861 0.52133 0.0
C2495 C 0.83175 0.46983 0.51578 0.0
C2496 C 0.82559 0.48563 0.50741 0.0
C2497 C 0.8055 0.48836 0.5067 0.0
C2498 C 0.79156 0.47489 0.51349 0.0
C2499 C 0.83989 0.49885 0.49865 0.0
C2500 C 0.84334 0.51923 0.50503 0.0
C2501 C 0.85012 0.4914 0.48413 0.0
C2502 C 0.84663 0.47006 0.47653 0.0
C2503 C 0.82742 0.4608 0.4699 0.0
C2504 C 0.82422 0.44062 0.46295 0.0
C2505 C 0.84013 0.42957 0.46242 0.0
C2506 C 0.8593 0.43871 0.4688 0.0
C2507 C 0.86258 0.45888 0.47579 0.0
H2508 H 0.83762 0.41395 0.45704 0.0
H2509 H 0.87072 0.60958 0.52534 0.0
H2510 H 0.78529 0.86109 0.7819 0.0
H2511 H 0.76106 0.88364 0.77714 0.0
H2512 H 0.71764 0.84634 0.80223 0.0
H2513 H 0.74146 0.82288 0.80599 0.0
H2514 H 0.69996 0.86028 0.77496 0.0
H2515 H 0.74465 0.88852 0.82581 0.0
H2516 H 0.77724 0.90005 0.84269 0.0
H2517 H 0.79059 0.94317 0.80622 0.0
H2518 H 0.75818 0.9317 0.78897 0.0
H2519 H 0.66966 0.96533 0.80733 0.0
H2520 H 0.68855 0.93781 0.81072 0.0
H2521 H 0.67709 0.9178 0.75391 0.0
H2522 H 0.65736 0.945 0.75061 0.0
H2523 H 0.72112 0.93149 0.79842 0.0
H2524 H 0.67996 0.86807 0.74552 0.0
H2525 H 0.64581 0.85569 0.73224 0.0
H2526 H 0.62212 0.88182 0.77946 0.0
H2527 H 0.65611 0.89412 0.79311 0.0
C2528 C 0.77047 0.85737 0.78607 0.0
C2529 C 0.7654 0.84016 0.79443 0.0
C2530 C 0.75668 0.87045 0.78352 0.0
C2531 C 0.73766 0.86689 0.78964 0.0
C2532 C 0.73228 0.84944 0.79749 0.0
C2533 C 0.74601 0.83618 0.79984 0.0
C2534 C 0.72377 0.88186 0.78855 0.0
C2535 C 0.70454 0.87586 0.78009 0.0
C2536 C 0.72959 0.90209 0.79562 0.0
C2537 C 0.74906 0.90913 0.80601 0.0
C2538 C 0.75459 0.90037 0.82133 0.0
C2539 C 0.77302 0.90691 0.83096 0.0
C2540 C 0.78599 0.92231 0.82551 0.0
C2541 C 0.78054 0.93123 0.81042 0.0
C2542 C 0.76213 0.92473 0.80072 0.0
C2543 C 0.67099 0.95496 0.79558 0.0
C2544 C 0.66211 0.95734 0.77869 0.0
C2545 C 0.68183 0.93924 0.79753 0.0
C2546 C 0.68425 0.92566 0.78259 0.0
C2547 C 0.67516 0.92785 0.7657 0.0
C2548 C 0.66398 0.94345 0.7638 0.0
C2549 C 0.69725 0.91003 0.78468 0.0
C2550 C 0.71642 0.91593 0.7933 0.0
C2551 C 0.69109 0.88964 0.77828 0.0
C2552 C 0.67059 0.88219 0.77024 0.0
C2553 C 0.66746 0.87112 0.75309 0.0
C2554 C 0.64813 0.86412 0.7455 0.0
C2555 C 0.63181 0.86803 0.75498 0.0
C2556 C 0.63478 0.87888 0.7721 0.0
C2557 C 0.65407 0.88589 0.77976 0.0
H2558 H 0.61686 0.86261 0.74908 0.0
H2559 H 0.80026 0.92735 0.83299 0.0
H2560 H 0.60104 0.53207 0.94976 0.0
H2561 H 0.63006 0.55777 0.95495 0.0
H2562 H 0.66833 0.51252 0.95934 0.0
H2563 H 0.63927 0.48661 0.95402 0.0
H2564 H 0.67749 0.54354 0.98611 0.0
H2565 H 0.66516 0.53495 0.9216 0.0
H2566 H 0.64466 0.53324 0.89297 0.0
H2567 H 0.63425 0.59371 0.90663 0.0
H2568 H 0.65441 0.59569 0.93548 0.0
H2569 H 0.76108 0.62004 0.96009 0.0
H2570 H 0.7345 0.59185 0.95218 0.0
H2571 H 0.70214 0.61438 0.99567 0.0
H2572 H 0.72845 0.64278 0.00354 0.0
H2573 H 0.69243 0.59278 0.9433 0.0
H2574 H 0.68405 0.57185 0.01478 0.0
H2575 H 0.70442 0.57357 0.0435 0.0
H2576 H 0.75695 0.57132 0.01512 0.0
H2577 H 0.73689 0.56937 0.98625 0.0
C2578 C 0.61565 0.52755 0.95158 0.0
C2579 C 0.61791 0.5073 0.95133 0.0
C2580 C 0.6322 0.54226 0.9546 0.0
C2581 C 0.65133 0.53701 0.95731 0.0
C2582 C 0.65366 0.51684 0.95724 0.0
C2583 C 0.63708 0.50209 0.95424 0.0
C2584 C 0.66884 0.55266 0.96053 0.0
C2585 C 0.68081 0.55424 0.97671 0.0
C2586 C 0.67317 0.56655 0.94821 0.0
C2587 C 0.66122 0.56543 0.93076 0.0
C2588 C 0.6584 0.54784 0.91856 0.0
C2589 C 0.64684 0.54683 0.90228 0.0
C2590 C 0.63816 0.56336 0.898 0.0
C2591 C 0.641 0.58093 0.90997 0.0
C2592 C 0.6525 0.58201 0.92627 0.0
C2593 C 0.74827 0.61903 0.96793 0.0
C2594 C 0.74683 0.63361 0.98244 0.0
C2595 C 0.73312 0.60297 0.96336 0.0
C2596 C 0.71652 0.60106 0.97342 0.0
C2597 C 0.71495 0.61561 0.98783 0.0
C2598 C 0.72994 0.63183 0.99225 0.0
C2599 C 0.70081 0.58376 0.96896 0.0
C2600 C 0.68916 0.58195 0.9526 0.0
C2601 C 0.69677 0.56964 0.98109 0.0
C2602 C 0.70898 0.57065 0.99837 0.0
C2603 C 0.69994 0.57167 0.01467 0.0
C2604 C 0.71144 0.57271 0.03098 0.0
C2605 C 0.73198 0.57263 0.03114 0.0
C2606 C 0.74106 0.57149 0.01499 0.0
C2607 C 0.72964 0.57045 0.99865 0.0
H2608 H 0.74083 0.57341 0.04378 0.0
H2609 H 0.62929 0.56259 0.88537 0.0
H2610 H 0.28607 0.67157 0.23155 0.0
H2611 H 0.26173 0.64209 0.23148 0.0
H2612 H 0.21418 0.67797 0.22769 0.0
H2613 H 0.23858 0.70789 0.22925 0.0
H2614 H 0.20663 0.65456 0.2511 0.0
H2615 H 0.22531 0.64407 0.19137 0.0
H2616 H 0.2478 0.64152 0.16708 0.0
H2617 H 0.27073 0.59265 0.18876 0.0
H2618 H 0.24857 0.59508 0.21335 0.0
H2619 H 0.13366 0.56737 0.23339 0.0
H2620 H 0.15562 0.59686 0.22731 0.0
H2621 H 0.20644 0.57267 0.24861 0.0
H2622 H 0.18458 0.54327 0.2551 0.0
H2623 H 0.20988 0.59026 0.21384 0.0
H2624 H 0.19179 0.60418 0.27519 0.0
H2625 H 0.16762 0.60693 0.29807 0.0
H2626 H 0.14124 0.65005 0.27042 0.0
H2627 H 0.1651 0.64731 0.24721 0.0
C2628 C 0.27045 0.67329 0.23088 0.0
C2629 C 0.26434 0.69221 0.2306 0.0
C2630 C 0.25649 0.6563 0.2305 0.0
C2631 C 0.23606 0.6577 0.22929 0.0
C2632 C 0.22986 0.67648 0.22857 0.0
C2633 C 0.24385 0.69357 0.22928 0.0
C2634 C 0.2213 0.63974 0.22992 0.0
C2635 C 0.20715 0.64065 0.24266 0.0
C2636 C 0.22203 0.62143 0.21909 0.0
C2637 C 0.23536 0.61987 0.20429 0.0
C2638 C 0.23524 0.63287 0.19104 0.0
C2639 C 0.24792 0.63143 0.1772 0.0
C2640 C 0.26071 0.61696 0.1764 0.0
C2641 C 0.26082 0.60386 0.18941 0.0
C2642 C 0.24818 0.60524 0.20329 0.0
C2643 C 0.14953 0.56824 0.23665 0.0
C2644 C 0.15741 0.55306 0.2448 0.0
C2645 C 0.16201 0.58508 0.23317 0.0
C2646 C 0.18257 0.58686 0.23755 0.0
C2647 C 0.19058 0.57146 0.24512 0.0
C2648 C 0.17808 0.55477 0.2489 0.0
C2649 C 0.19562 0.60524 0.23507 0.0
C2650 C 0.20936 0.60433 0.22203 0.0
C2651 C 0.1943 0.62363 0.24536 0.0
C2652 C 0.18006 0.62536 0.25936 0.0
C2653 C 0.18071 0.6141 0.27389 0.0
C2654 C 0.1671 0.61569 0.28694 0.0
C2655 C 0.15286 0.62861 0.28567 0.0
C2656 C 0.15225 0.64001 0.27137 0.0
C2657 C 0.16582 0.63846 0.25827 0.0
H2658 H 0.14234 0.62982 0.29578 0.0
H2659 H 0.27052 0.61587 0.16567 0.0
H2660 H 0.91013 0.50687 0.03196 0.0
H2661 H 0.89954 0.53893 0.02729 0.0
H2662 H 0.88331 0.54659 0.08191 0.0
H2663 H 0.89369 0.51426 0.08662 0.0
H2664 H 0.85448 0.55524 0.05718 0.0
H2665 H 0.92422 0.57336 0.07208 0.0
H2666 H 0.95982 0.57064 0.07024 0.0
H2667 H 0.95532 0.58122 0.01496 0.0
H2668 H 0.9196 0.5837 0.01638 0.0
H2669 H 0.83237 0.65111 0.04235 0.0
H2670 H 0.84956 0.62699 0.0569 0.0
H2671 H 0.87322 0.60852 0.0068 0.0
H2672 H 0.85639 0.63264 0.9923 0.0
H2673 H 0.90006 0.60833 0.03493 0.0
H2674 H 0.83026 0.5843 0.01842 0.0
H2675 H 0.79434 0.58606 0.01894 0.0
H2676 H 0.7988 0.58556 0.07616 0.0
H2677 H 0.83487 0.58414 0.076 0.0
C2678 C 0.90415 0.51529 0.04293 0.0
C2679 C 0.90267 0.50803 0.05964 0.0
C2680 C 0.89831 0.53369 0.04031 0.0
C2681 C 0.89089 0.54523 0.05433 0.0
C2682 C 0.88912 0.53795 0.07096 0.0
C2683 C 0.89511 0.51955 0.07365 0.0
C2684 C 0.88456 0.56467 0.05129 0.0
C2685 C 0.86455 0.56707 0.05273 0.0
C2686 C 0.89765 0.57992 0.0452 0.0
C2687 C 0.91918 0.5786 0.04431 0.0
C2688 C 0.93078 0.57497 0.05949 0.0
C2689 C 0.95099 0.57349 0.05853 0.0
C2690 C 0.95982 0.57573 0.04249 0.0
C2691 C 0.94846 0.57949 0.02738 0.0
C2692 C 0.92823 0.58096 0.02826 0.0
C2693 C 0.84163 0.64225 0.03456 0.0
C2694 C 0.84284 0.64361 0.01612 0.0
C2695 C 0.85136 0.62841 0.04287 0.0
C2696 C 0.86238 0.61572 0.03284 0.0
C2697 C 0.86475 0.6181 0.01478 0.0
C2698 C 0.85504 0.63187 0.00649 0.0
C2699 C 0.86991 0.59871 0.04045 0.0
C2700 C 0.89012 0.59672 0.0398 0.0
C2701 C 0.85698 0.58375 0.04713 0.0
C2702 C 0.83529 0.58438 0.04723 0.0
C2703 C 0.8236 0.58472 0.03113 0.0
C2704 C 0.80322 0.58563 0.03135 0.0
C2705 C 0.7943 0.58598 0.04758 0.0
C2706 C 0.80574 0.58534 0.06361 0.0
C2707 C 0.82616 0.58449 0.06346 0.0
H2708 H 0.77852 0.58672 0.04774 0.0
H2709 H 0.97547 0.57457 0.04177 0.0
H2710 H 0.09142 0.0601 0.09922 0.0
H2711 H 0.11184 0.03355 0.09321 0.0
H2712 H 0.15549 0.07451 0.07224 0.0
H2713 H 0.13589 0.10157 0.0792 0.0
H2714 H 0.13589 0.0347 0.04908 0.0
H2715 H 0.17123 0.0642 0.10652 0.0
H2716 H 0.17285 0.07548 0.13901 0.0
H2717 H 0.14923 0.01646 0.14878 0.0
H2718 H 0.14718 0.0049 0.11627 0.0
H2719 H 0.21503 0.98409 0.02824 0.0
H2720 H 0.19345 0.00772 0.03908 0.0
H2721 H 0.17277 0.96897 0.0776 0.0
H2722 H 0.19547 0.94557 0.06734 0.0
H2723 H 0.17735 0.00511 0.09291 0.0
H2724 H 0.14365 0.97389 0.03761 0.0
H2725 H 0.13933 0.96083 0.00541 0.0
H2726 H 0.1554 0.01989 0.99155 0.0
H2727 H 0.1601 0.03329 0.02368 0.0
C2728 C 0.10562 0.06371 0.09382 0.0
C2729 C 0.11192 0.08309 0.08966 0.0
C2730 C 0.11718 0.04843 0.09028 0.0
C2731 C 0.13508 0.05215 0.08229 0.0
C2732 C 0.14164 0.07142 0.07839 0.0
C2733 C 0.13031 0.08681 0.08224 0.0
C2734 C 0.14631 0.03565 0.07684 0.0
C2735 C 0.14514 0.02831 0.05858 0.0
C2736 C 0.15752 0.02681 0.08944 0.0
C2737 C 0.15881 0.03375 0.10895 0.0
C2738 C 0.16617 0.05368 0.11557 0.0
C2739 C 0.16722 0.06011 0.13399 0.0
C2740 C 0.16108 0.04671 0.14595 0.0
C2741 C 0.15394 0.02683 0.1395 0.0
C2742 C 0.15284 0.02033 0.12108 0.0
C2743 C 0.20579 0.98048 0.03894 0.0
C2744 C 0.20674 0.96286 0.0468 0.0
C2745 C 0.19335 0.99399 0.04508 0.0
C2746 C 0.18101 0.98993 0.05884 0.0
C2747 C 0.18203 0.97238 0.06687 0.0
C2748 C 0.19491 0.95899 0.06097 0.0
C2749 C 0.16748 0.00436 0.06491 0.0
C2750 C 0.16804 0.01128 0.08331 0.0
C2751 C 0.15526 0.01254 0.05245 0.0
C2752 C 0.15235 0.00457 0.03308 0.0
C2753 C 0.14639 0.98408 0.0277 0.0
C2754 C 0.14386 0.97662 0.00946 0.0
C2755 C 0.14712 0.98952 0.99644 0.0
C2756 C 0.15288 0.00992 0.00165 0.0
C2757 C 0.15545 0.01746 0.01987 0.0
H2758 H 0.14516 0.98371 0.98233 0.0
H2759 H 0.16191 0.05172 0.16021 0.0
loop_
_geom_bond_atom_site_label_1
_geom_bond_atom_site_label_2
_geom_bond_distance
_geom_bond_site_symmetry_2
_ccdc_geom_bond_type
H0 C5 0.930 . S
H1 C8 0.930 . S
H2 C10 0.930 . S
H3 C4 1.016 . S
C4 H3 1.016 . S
C4 N11 1.286 . S
C5 H0 0.930 . S
C5 C6 1.397 . S
C5 C7 1.361 . S
C6 C5 1.397 . S
C6 C10 1.390 . S
C7 C5 1.361 . S
C7 C8 1.393 . S
C7 N11 1.413 . S
C8 H1 0.930 . S
C8 C7 1.393 . S
C8 C9 1.399 . S
C9 C8 1.399 . S
C9 C10 1.381 . S
C10 H2 0.930 . S
C10 C6 1.390 . S
C10 C9 1.381 . S
N11 C4 1.286 . S
N11 C7 1.413 . S
H12 C17 0.930 . S
H13 C20 0.930 . S
H14 C22 0.930 . S
H15 C16 1.016 . S
C16 H15 1.016 . S
C16 N23 1.286 . S
C17 H12 0.930 . S
C17 C18 1.397 . S
C17 C19 1.361 . S
C18 C17 1.397 . S
C18 C22 1.390 . S
C19 C17 1.361 . S
C19 C20 1.393 . S
C19 N23 1.413 . S
C20 H13 0.930 . S
C20 C19 1.393 . S
C20 C21 1.399 . S
C21 C20 1.399 . S
C21 C22 1.381 . S
C22 H14 0.930 . S
C22 C18 1.390 . S
C22 C21 1.381 . S
N23 C16 1.286 . S
N23 C19 1.413 . S
H24 C29 0.930 . S
H25 C32 0.930 . S
H26 C34 0.930 . S
H27 C28 1.016 . S
C28 H27 1.016 . S
C28 N35 1.286 . S
C29 H24 0.930 . S
C29 C30 1.397 . S
C29 C31 1.361 . S
C30 C29 1.397 . S
C30 C34 1.390 . S
C31 C29 1.361 . S
C31 C32 1.393 . S
C31 N35 1.413 . S
C32 H25 0.930 . S
C32 C31 1.393 . S
C32 C33 1.399 . S
C33 C32 1.399 . S
C33 C34 1.381 . S
C34 H26 0.930 . S
C34 C30 1.390 . S
C34 C33 1.381 . S
N35 C28 1.286 . S
N35 C31 1.413 . S
H36 C41 0.930 . S
H37 C44 0.930 . S
H38 C46 0.930 . S
H39 C40 1.016 . S
C40 H39 1.016 . S
C40 N47 1.286 . S
C41 H36 0.930 . S
C41 C42 1.397 . S
C41 C43 1.361 . S
C42 C41 1.397 . S
C42 C46 1.390 . S
C43 C41 1.361 . S
C43 C44 1.393 . S
C43 N47 1.413 . S
C44 H37 0.930 . S
C44 C43 1.393 . S
C44 C45 1.399 . S
C45 C44 1.399 . S
C45 C46 1.381 . S
C46 H38 0.930 . S
C46 C42 1.390 . S
C46 C45 1.381 . S
N47 C40 1.286 . S
N47 C43 1.413 . S
H48 C53 0.930 . S
H49 C56 0.930 . S
H50 C58 0.930 . S
H51 C52 1.016 . S
C52 H51 1.016 . S
C52 N59 1.286 . S
C53 H48 0.930 . S
C53 C54 1.397 . S
C53 C55 1.361 . S
C54 C53 1.397 . S
C54 C58 1.390 . S
C55 C53 1.361 . S
C55 C56 1.393 . S
C55 N59 1.413 . S
C56 H49 0.930 . S
C56 C55 1.393 . S
C56 C57 1.399 . S
C57 C56 1.399 . S
C57 C58 1.381 . S
C58 H50 0.930 . S
C58 C54 1.390 . S
C58 C57 1.381 . S
N59 C52 1.286 . S
N59 C55 1.413 . S
H60 C65 0.930 . S
H61 C68 0.930 . S
H62 C70 0.930 . S
H63 C64 1.016 . S
C64 H63 1.016 . S
C64 N71 1.286 . S
C65 H60 0.930 . S
C65 C66 1.397 . S
C65 C67 1.361 . S
C66 C65 1.397 . S
C66 C70 1.390 . S
C67 C65 1.361 . S
C67 C68 1.393 . S
C67 N71 1.413 . S
C68 H61 0.930 . S
C68 C67 1.393 . S
C68 C69 1.399 . S
C69 C68 1.399 . S
C69 C70 1.381 . S
C70 H62 0.930 . S
C70 C66 1.390 . S
C70 C69 1.381 . S
N71 C64 1.286 . S
N71 C67 1.413 . S
H72 C77 0.930 . S
H73 C80 0.930 . S
H74 C82 0.930 . S
H75 C76 1.016 . S
C76 H75 1.016 . S
C76 N83 1.286 . S
C77 H72 0.930 . S
C77 C78 1.397 . S
C77 C79 1.361 . S
C78 C77 1.397 . S
C78 C82 1.390 . S
C79 C77 1.361 . S
C79 C80 1.393 . S
C79 N83 1.413 . S
C80 H73 0.930 . S
C80 C79 1.393 . S
C80 C81 1.399 . S
C81 C80 1.399 . S
C81 C82 1.381 . S
C82 H74 0.930 . S
C82 C78 1.390 . S
C82 C81 1.381 . S
N83 C76 1.286 . S
N83 C79 1.413 . S
H84 C89 0.930 . S
H85 C92 0.930 . S
H86 C94 0.930 . S
H87 C88 1.016 . S
C88 H87 1.016 . S
C88 N95 1.286 . S
C89 H84 0.930 . S
C89 C90 1.397 . S
C89 C91 1.361 . S
C90 C89 1.397 . S
C90 C94 1.390 . S
C91 C89 1.361 . S
C91 C92 1.393 . S
C91 N95 1.413 . S
C92 H85 0.930 . S
C92 C91 1.393 . S
C92 C93 1.399 . S
C93 C92 1.399 . S
C93 C94 1.381 . S
C94 H86 0.930 . S
C94 C90 1.390 . S
C94 C93 1.381 . S
N95 C88 1.286 . S
N95 C91 1.413 . S
H96 C101 0.930 . S
H97 C104 0.930 . S
H98 C106 0.930 . S
H99 C100 1.016 . S
C100 H99 1.016 . S
C100 N107 1.286 . S
C101 H96 0.930 . S
C101 C102 1.397 . S
C101 C103 1.361 . S
C102 C101 1.397 . S
C102 C106 1.390 . S
C103 C101 1.361 . S
C103 C104 1.393 . S
C103 N107 1.413 . S
C104 H97 0.930 . S
C104 C103 1.393 . S
C104 C105 1.399 . S
C105 C104 1.399 . S
C105 C106 1.381 . S
C106 H98 0.930 . S
C106 C102 1.390 . S
C106 C105 1.381 . S
N107 C100 1.286 . S
N107 C103 1.413 . S
H108 C113 0.930 . S
H109 C116 0.930 . S
H110 C118 0.930 . S
H111 C112 1.016 . S
C112 H111 1.016 . S
C112 N119 1.286 . S
C113 H108 0.930 . S
C113 C114 1.397 . S
C113 C115 1.361 . S
C114 C113 1.397 . S
C114 C118 1.390 . S
C115 C113 1.361 . S
C115 C116 1.393 . S
C115 N119 1.413 . S
C116 H109 0.930 . S
C116 C115 1.393 . S
C116 C117 1.399 . S
C117 C116 1.399 . S
C117 C118 1.381 . S
C118 H110 0.930 . S
C118 C114 1.390 . S
C118 C117 1.381 . S
N119 C112 1.286 . S
N119 C115 1.413 . S
H120 C125 0.930 . S
H121 C128 0.930 . S
H122 C130 0.930 . S
H123 C124 1.016 . S
C124 H123 1.016 . S
C124 N131 1.286 . S
C125 H120 0.930 . S
C125 C126 1.397 . S
C125 C127 1.361 . S
C126 C125 1.397 . S
C126 C130 1.390 . S
C127 C125 1.361 . S
C127 C128 1.393 . S
C127 N131 1.413 . S
C128 H121 0.930 . S
C128 C127 1.393 . S
C128 C129 1.399 . S
C129 C128 1.399 . S
C129 C130 1.381 . S
C130 H122 0.930 . S
C130 C126 1.390 . S
C130 C129 1.381 . S
N131 C124 1.286 . S
N131 C127 1.413 . S
H132 C137 0.930 . S
H133 C140 0.930 . S
H134 C142 0.930 . S
H135 C136 1.016 . S
C136 H135 1.016 . S
C136 N143 1.286 . S
C137 H132 0.930 . S
C137 C138 1.397 . S
C137 C139 1.361 . S
C138 C137 1.397 . S
C138 C142 1.390 . S
C139 C137 1.361 . S
C139 C140 1.393 . S
C139 N143 1.413 . S
C140 H133 0.930 . S
C140 C139 1.393 . S
C140 C141 1.399 . S
C141 C140 1.399 . S
C141 C142 1.381 . S
C142 H134 0.930 . S
C142 C138 1.390 . S
C142 C141 1.381 . S
N143 C136 1.286 . S
N143 C139 1.413 . S
H144 C149 0.930 . S
H145 C152 0.930 . S
H146 C154 0.930 . S
H147 C148 1.016 . S
C148 H147 1.016 . S
C148 N155 1.286 . S
C149 H144 0.930 . S
C149 C150 1.397 . S
C149 C151 1.361 . S
C150 C149 1.397 . S
C150 C154 1.390 . S
C151 C149 1.361 . S
C151 C152 1.393 . S
C151 N155 1.413 . S
C152 H145 0.930 . S
C152 C151 1.393 . S
C152 C153 1.399 . S
C153 C152 1.399 . S
C153 C154 1.381 . S
C154 H146 0.930 . S
C154 C150 1.390 . S
C154 C153 1.381 . S
N155 C148 1.286 . S
N155 C151 1.413 . S
H156 C161 0.930 . S
H157 C164 0.930 . S
H158 C166 0.930 . S
H159 C160 1.016 . S
C160 H159 1.016 . S
C160 N167 1.286 . S
C161 H156 0.930 . S
C161 C162 1.397 . S
C161 C163 1.361 . S
C162 C161 1.397 . S
C162 C166 1.390 . S
C163 C161 1.361 . S
C163 C164 1.393 . S
C163 N167 1.413 . S
C164 H157 0.930 . S
C164 C163 1.393 . S
C164 C165 1.399 . S
C165 C164 1.399 . S
C165 C166 1.381 . S
C166 H158 0.930 . S
C166 C162 1.390 . S
C166 C165 1.381 . S
N167 C160 1.286 . S
N167 C163 1.413 . S
H168 C173 0.930 . S
H169 C176 0.930 . S
H170 C178 0.930 . S
H171 C172 1.016 . S
C172 H171 1.016 . S
C172 N179 1.286 . S
C173 H168 0.930 . S
C173 C174 1.397 . S
C173 C175 1.361 . S
C174 C173 1.397 . S
C174 C178 1.390 . S
C175 C173 1.361 . S
C175 C176 1.393 . S
C175 N179 1.413 . S
C176 H169 0.930 . S
C176 C175 1.393 . S
C176 C177 1.399 . S
C177 C176 1.399 . S
C177 C178 1.381 . S
C178 H170 0.930 . S
C178 C174 1.390 . S
C178 C177 1.381 . S
N179 C172 1.286 . S
N179 C175 1.413 . S
H180 C185 0.930 . S
H181 C188 0.930 . S
H182 C190 0.930 . S
H183 C184 1.016 . S
C184 H183 1.016 . S
C184 N191 1.286 . S
C185 H180 0.930 . S
C185 C186 1.397 . S
C185 C187 1.361 . S
C186 C185 1.397 . S
C186 C190 1.390 . S
C187 C185 1.361 . S
C187 C188 1.393 . S
C187 N191 1.413 . S
C188 H181 0.930 . S
C188 C187 1.393 . S
C188 C189 1.399 . S
C189 C188 1.399 . S
C189 C190 1.381 . S
C190 H182 0.930 . S
C190 C186 1.390 . S
C190 C189 1.381 . S
N191 C184 1.286 . S
N191 C187 1.413 . S
O192 Cd193 2.223 . S
O192 C200 1.315 . S
Cd193 O192 2.223 . S
Cd193 O196 2.297 . S
Cd193 O197 2.439 . S
Cd193 O203 2.240 . S
Cd194 O195 2.240 . S
Cd194 O202 2.223 . S
Cd194 O204 2.297 . S
Cd194 O205 2.439 . S
O195 Cd194 2.240 . S
O195 C200 1.279 . S
O196 Cd193 2.297 . S
O196 C198 1.247 . S
O197 Cd193 2.439 . S
O197 C198 1.208 . S
C198 O196 1.247 . S
C198 O197 1.208 . S
C199 O204 1.247 . S
C199 O205 1.208 . S
C200 O192 1.315 . S
C200 O195 1.279 . S
C201 O202 1.315 . S
C201 O203 1.279 . S
O202 Cd194 2.223 . S
O202 C201 1.315 . S
O203 Cd193 2.240 . S
O203 C201 1.279 . S
O204 Cd194 2.297 . S
O204 C199 1.247 . S
O205 Cd194 2.439 . S
O205 C199 1.208 . S
O206 Cd207 2.223 . S
O206 C214 1.315 . S
Cd207 O206 2.223 . S
Cd207 O210 2.297 . S
Cd207 O211 2.439 . S
Cd207 O217 2.240 . S
Cd208 O209 2.240 . S
Cd208 O216 2.223 . S
Cd208 O218 2.297 . S
Cd208 O219 2.439 . S
O209 Cd208 2.240 . S
O209 C214 1.279 . S
O210 Cd207 2.297 . S
O210 C212 1.247 . S
O211 Cd207 2.439 . S
O211 C212 1.208 . S
C212 O210 1.247 . S
C212 O211 1.208 . S
C213 O218 1.247 . S
C213 O219 1.208 . S
C214 O206 1.315 . S
C214 O209 1.279 . S
C215 O216 1.315 . S
C215 O217 1.279 . S
O216 Cd208 2.223 . S
O216 C215 1.315 . S
O217 Cd207 2.240 . S
O217 C215 1.279 . S
O218 Cd208 2.297 . S
O218 C213 1.247 . S
O219 Cd208 2.439 . S
O219 C213 1.208 . S
O220 Cd221 2.223 1_556 S
O220 C228 1.315 . S
Cd221 O220 2.223 1_554 S
Cd221 O224 2.297 . S
Cd221 O225 2.439 . S
Cd221 O231 2.240 . S
Cd222 O223 2.240 . S
Cd222 O230 2.223 . S
Cd222 O232 2.297 1_556 S
Cd222 O233 2.439 1_556 S
O223 Cd222 2.240 . S
O223 C228 1.279 . S
O224 Cd221 2.297 . S
O224 C226 1.247 . S
O225 Cd221 2.439 . S
O225 C226 1.208 . S
C226 O224 1.247 . S
C226 O225 1.208 . S
C227 O232 1.247 . S
C227 O233 1.208 . S
C228 O220 1.315 . S
C228 O223 1.279 . S
C229 O230 1.315 . S
C229 O231 1.279 1_556 S
O230 Cd222 2.223 . S
O230 C229 1.315 . S
O231 Cd221 2.240 . S
O231 C229 1.279 1_554 S
O232 Cd222 2.297 1_554 S
O232 C227 1.247 . S
O233 Cd222 2.439 1_554 S
O233 C227 1.208 . S
O234 Cd235 2.223 . S
O234 C242 1.315 . S
Cd235 O234 2.223 . S
Cd235 O238 2.297 . S
Cd235 O239 2.439 . S
Cd235 O245 2.240 . S
Cd236 O237 2.240 . S
Cd236 O244 2.223 . S
Cd236 O246 2.297 . S
Cd236 O247 2.439 . S
O237 Cd236 2.240 . S
O237 C242 1.279 . S
O238 Cd235 2.297 . S
O238 C240 1.247 . S
O239 Cd235 2.439 . S
O239 C240 1.208 . S
C240 O238 1.247 . S
C240 O239 1.208 . S
C241 O246 1.247 . S
C241 O247 1.208 . S
C242 O234 1.315 . S
C242 O237 1.279 . S
C243 O244 1.315 . S
C243 O245 1.279 . S
O244 Cd236 2.223 . S
O244 C243 1.315 . S
O245 Cd235 2.240 . S
O245 C243 1.279 . S
O246 Cd236 2.297 . S
O246 C241 1.247 . S
O247 Cd236 2.439 . S
O247 C241 1.208 . S
O248 Cd249 2.223 . S
O248 C256 1.315 . S
Cd249 O248 2.223 . S
Cd249 O252 2.297 . S
Cd249 O253 2.439 . S
Cd249 O259 2.240 . S
Cd250 O251 2.240 . S
Cd250 O258 2.223 . S
Cd250 O260 2.297 . S
Cd250 O261 2.439 . S
O251 Cd250 2.240 . S
O251 C256 1.279 . S
O252 Cd249 2.297 . S
O252 C254 1.247 . S
O253 Cd249 2.439 . S
O253 C254 1.208 . S
C254 O252 1.247 . S
C254 O253 1.208 . S
C255 O260 1.247 . S
C255 O261 1.208 . S
C256 O248 1.315 . S
C256 O251 1.279 . S
C257 O258 1.315 . S
C257 O259 1.279 . S
O258 Cd250 2.223 . S
O258 C257 1.315 . S
O259 Cd249 2.240 . S
O259 C257 1.279 . S
O260 Cd250 2.297 . S
O260 C255 1.247 . S
O261 Cd250 2.439 . S
O261 C255 1.208 . S
O262 Cd263 2.223 . S
O262 C270 1.315 . S
Cd263 O262 2.223 . S
Cd263 O266 2.297 . S
Cd263 O267 2.439 . S
Cd263 O273 2.240 . S
Cd264 O265 2.240 . S
Cd264 O272 2.223 . S
Cd264 O274 2.297 . S
Cd264 O275 2.439 . S
O265 Cd264 2.240 . S
O265 C270 1.279 . S
O266 Cd263 2.297 . S
O266 C268 1.247 . S
O267 Cd263 2.439 . S
O267 C268 1.208 . S
C268 O266 1.247 . S
C268 O267 1.208 . S
C269 O274 1.247 . S
C269 O275 1.208 . S
C270 O262 1.315 . S
C270 O265 1.279 . S
C271 O272 1.315 . S
C271 O273 1.279 . S
O272 Cd264 2.223 . S
O272 C271 1.315 . S
O273 Cd263 2.240 . S
O273 C271 1.279 . S
O274 Cd264 2.297 . S
O274 C269 1.247 . S
O275 Cd264 2.439 . S
O275 C269 1.208 . S
O276 Cd277 2.223 . S
O276 C284 1.315 . S
Cd277 O276 2.223 . S
Cd277 O280 2.297 . S
Cd277 O281 2.439 . S
Cd277 O287 2.240 . S
Cd278 O279 2.240 . S
Cd278 O286 2.223 . S
Cd278 O288 2.297 . S
Cd278 O289 2.439 . S
O279 Cd278 2.240 . S
O279 C284 1.279 . S
O280 Cd277 2.297 . S
O280 C282 1.247 . S
O281 Cd277 2.439 . S
O281 C282 1.208 . S
C282 O280 1.247 . S
C282 O281 1.208 . S
C283 O288 1.247 . S
C283 O289 1.208 . S
C284 O276 1.315 . S
C284 O279 1.279 . S
C285 O286 1.315 . S
C285 O287 1.279 . S
O286 Cd278 2.223 . S
O286 C285 1.315 . S
O287 Cd277 2.240 . S
O287 C285 1.279 . S
O288 Cd278 2.297 . S
O288 C283 1.247 . S
O289 Cd278 2.439 . S
O289 C283 1.208 . S
O290 Cd291 2.223 1_545 S
O290 C298 1.315 . S
Cd291 O290 2.223 1_565 S
Cd291 O294 2.297 . S
Cd291 O295 2.439 . S
Cd291 O301 2.240 1_565 S
Cd292 O293 2.240 . S
Cd292 O300 2.223 . S
Cd292 O302 2.297 . S
Cd292 O303 2.439 1_545 S
O293 Cd292 2.240 . S
O293 C298 1.279 . S
O294 Cd291 2.297 . S
O294 C296 1.247 . S
O295 Cd291 2.439 . S
O295 C296 1.208 . S
C296 O294 1.247 . S
C296 O295 1.208 . S
C297 O302 1.247 1_565 S
C297 O303 1.208 . S
C298 O290 1.315 . S
C298 O293 1.279 . S
C299 O300 1.315 . S
C299 O301 1.279 . S
O300 Cd292 2.223 . S
O300 C299 1.315 . S
O301 Cd291 2.240 1_545 S
O301 C299 1.279 . S
O302 Cd292 2.297 . S
O302 C297 1.247 1_545 S
O303 Cd292 2.439 1_565 S
O303 C297 1.208 . S
O304 Cd305 2.223 . S
O304 C312 1.315 . S
Cd305 O304 2.223 . S
Cd305 O308 2.297 1_655 S
Cd305 O309 2.439 1_655 S
Cd305 O315 2.240 . S
Cd306 O307 2.240 . S
Cd306 O314 2.223 1_455 S
Cd306 O316 2.297 . S
Cd306 O317 2.439 . S
O307 Cd306 2.240 . S
O307 C312 1.279 1_455 S
O308 Cd305 2.297 1_455 S
O308 C310 1.247 . S
O309 Cd305 2.439 1_455 S
O309 C310 1.208 . S
C310 O308 1.247 . S
C310 O309 1.208 . S
C311 O316 1.247 . S
C311 O317 1.208 . S
C312 O304 1.315 . S
C312 O307 1.279 1_655 S
C313 O314 1.315 . S
C313 O315 1.279 . S
O314 Cd306 2.223 1_655 S
O314 C313 1.315 . S
O315 Cd305 2.240 . S
O315 C313 1.279 . S
O316 Cd306 2.297 . S
O316 C311 1.247 . S
O317 Cd306 2.439 . S
O317 C311 1.208 . S
O318 Cd319 2.223 . S
O318 C326 1.315 . S
Cd319 O318 2.223 . S
Cd319 O322 2.297 . S
Cd319 O323 2.439 . S
Cd319 O329 2.240 . S
Cd320 O321 2.240 . S
Cd320 O328 2.223 . S
Cd320 O330 2.297 . S
Cd320 O331 2.439 . S
O321 Cd320 2.240 . S
O321 C326 1.279 . S
O322 Cd319 2.297 . S
O322 C324 1.247 . S
O323 Cd319 2.439 . S
O323 C324 1.208 . S
C324 O322 1.247 . S
C324 O323 1.208 . S
C325 O330 1.247 . S
C325 O331 1.208 . S
C326 O318 1.315 . S
C326 O321 1.279 . S
C327 O328 1.315 . S
C327 O329 1.279 . S
O328 Cd320 2.223 . S
O328 C327 1.315 . S
O329 Cd319 2.240 . S
O329 C327 1.279 . S
O330 Cd320 2.297 . S
O330 C325 1.247 . S
O331 Cd320 2.439 . S
O331 C325 1.208 . S
O332 Cd333 2.223 . S
O332 C340 1.315 1_455 S
Cd333 O332 2.223 . S
Cd333 O336 2.297 . S
Cd333 O337 2.439 . S
Cd333 O343 2.240 . S
Cd334 O335 2.240 . S
Cd334 O342 2.223 1_455 S
Cd334 O344 2.297 . S
Cd334 O345 2.439 . S
O335 Cd334 2.240 . S
O335 C340 1.279 1_455 S
O336 Cd333 2.297 . S
O336 C338 1.247 . S
O337 Cd333 2.439 . S
O337 C338 1.208 . S
C338 O336 1.247 . S
C338 O337 1.208 . S
C339 O344 1.247 . S
C339 O345 1.208 . S
C340 O332 1.315 1_655 S
C340 O335 1.279 1_655 S
C341 O342 1.315 1_455 S
C341 O343 1.279 . S
O342 Cd334 2.223 1_655 S
O342 C341 1.315 1_655 S
O343 Cd333 2.240 . S
O343 C341 1.279 . S
O344 Cd334 2.297 . S
O344 C339 1.247 . S
O345 Cd334 2.439 . S
O345 C339 1.208 . S
O346 Cd347 2.223 . S
O346 C354 1.315 . S
Cd347 O346 2.223 . S
Cd347 O350 2.297 . S
Cd347 O351 2.439 . S
Cd347 O357 2.240 . S
Cd348 O349 2.240 . S
Cd348 O356 2.223 . S
Cd348 O358 2.297 . S
Cd348 O359 2.439 . S
O349 Cd348 2.240 . S
O349 C354 1.279 . S
O350 Cd347 2.297 . S
O350 C352 1.247 . S
O351 Cd347 2.439 . S
O351 C352 1.208 . S
C352 O350 1.247 . S
C352 O351 1.208 . S
C353 O358 1.247 . S
C353 O359 1.208 . S
C354 O346 1.315 . S
C354 O349 1.279 . S
C355 O356 1.315 . S
C355 O357 1.279 . S
O356 Cd348 2.223 . S
O356 C355 1.315 . S
O357 Cd347 2.240 . S
O357 C355 1.279 . S
O358 Cd348 2.297 . S
O358 C353 1.247 . S
O359 Cd348 2.439 . S
O359 C353 1.208 . S
H360 C378 0.951 . S
H361 C380 0.951 . S
H362 C382 0.950 . S
H363 C383 0.950 . S
H364 C385 0.950 . S
H365 C388 0.950 . S
H366 C389 0.950 . S
H367 C391 0.950 . S
H368 C392 0.950 . S
H369 C393 0.951 . S
H370 C395 0.951 . S
H371 C397 0.950 . S
H372 C398 0.950 . S
H373 C400 0.950 . S
H374 C403 0.950 . S
H375 C404 0.950 . S
H376 C406 0.950 . S
H377 C407 0.950 . S
C378 H360 0.951 . S
C378 C379 1.366 . S
C378 C380 1.388 . S
C379 C378 1.366 . S
C379 C383 1.385 . S
C380 H361 0.951 . S
C380 C378 1.388 . S
C380 C381 1.366 . S
C381 C380 1.366 . S
C381 C382 1.414 . S
C381 C384 1.499 . S
C382 H362 0.950 . S
C382 C381 1.414 . S
C382 C383 1.374 . S
C383 H363 0.950 . S
C383 C379 1.385 . S
C383 C382 1.374 . S
C384 C381 1.499 . S
C384 C385 1.373 . S
C384 C386 1.389 . S
C385 H364 0.950 . S
C385 C384 1.373 . S
C385 C401 1.377 . S
C386 C384 1.389 . S
C386 C387 1.524 . S
C386 C400 1.377 . S
C387 C386 1.524 . S
C387 C388 1.397 . S
C387 C392 1.363 . S
C388 H365 0.950 . S
C388 C387 1.397 . S
C388 C389 1.334 . S
C389 H366 0.950 . S
C389 C388 1.334 . S
C389 C390 1.287 . S
C390 C389 1.287 . S
C390 C391 1.524 . S
C390 H409 0.913 . S
C391 H367 0.950 . S
C391 C390 1.524 . S
C391 C392 1.415 . S
C392 H368 0.950 . S
C392 C387 1.363 . S
C392 C391 1.415 . S
C393 H369 0.951 . S
C393 C394 1.366 . S
C393 C395 1.388 1_554 S
C394 C393 1.366 . S
C394 C398 1.385 1_554 S
C395 H370 0.951 . S
C395 C393 1.388 1_556 S
C395 C396 1.366 . S
C396 C395 1.366 . S
C396 C397 1.414 . S
C396 C399 1.499 . S
C397 H371 0.950 . S
C397 C396 1.414 . S
C397 C398 1.374 . S
C398 H372 0.950 . S
C398 C394 1.385 1_556 S
C398 C397 1.374 . S
C399 C396 1.499 . S
C399 C400 1.373 . S
C399 C401 1.389 . S
C400 H373 0.950 . S
C400 C386 1.377 . S
C400 C399 1.373 . S
C401 C385 1.377 . S
C401 C399 1.389 . S
C401 C402 1.524 . S
C402 C401 1.524 . S
C402 C403 1.397 . S
C402 C407 1.363 . S
C403 H374 0.950 . S
C403 C402 1.397 . S
C403 C404 1.334 . S
C404 H375 0.950 . S
C404 C403 1.334 . S
C404 C405 1.287 . S
C405 C404 1.287 . S
C405 C406 1.524 . S
C405 H408 0.999 . S
C406 H376 0.950 . S
C406 C405 1.524 . S
C406 C407 1.415 . S
C407 H377 0.950 . S
C407 C402 1.363 . S
C407 C406 1.415 . S
H408 C405 0.999 . S
H409 C390 0.913 . S
H410 C428 0.951 . S
H411 C430 0.951 1_455 S
H412 C432 0.950 . S
H413 C433 0.950 . S
H414 C435 0.950 1_655 S
H415 C438 0.950 . S
H416 C439 0.950 . S
H417 C441 0.950 . S
H418 C442 0.950 . S
H419 C443 0.951 . S
H420 C445 0.951 . S
H421 C447 0.950 . S
H422 C448 0.950 . S
H423 C450 0.950 . S
H424 C453 0.950 . S
H425 C454 0.950 . S
H426 C456 0.950 . S
H427 C457 0.950 1_655 S
C428 H410 0.951 . S
C428 C429 1.366 . S
C428 C430 1.388 . S
C429 C428 1.366 . S
C429 C433 1.385 . S
C430 H411 0.951 1_655 S
C430 C428 1.388 . S
C430 C431 1.366 . S
C431 C430 1.366 . S
C431 C432 1.414 . S
C431 C434 1.499 1_655 S
C432 H412 0.950 . S
C432 C431 1.414 . S
C432 C433 1.374 . S
C433 H413 0.950 . S
C433 C429 1.385 . S
C433 C432 1.374 . S
C434 C431 1.499 1_455 S
C434 C435 1.373 . S
C434 C436 1.389 . S
C435 H414 0.950 1_455 S
C435 C434 1.373 . S
C435 C451 1.377 . S
C436 C434 1.389 . S
C436 C437 1.524 . S
C436 C450 1.377 . S
C437 C436 1.524 . S
C437 C438 1.397 1_455 S
C437 C442 1.363 . S
C438 H415 0.950 . S
C438 C437 1.397 1_655 S
C438 C439 1.334 . S
C439 H416 0.950 . S
C439 C438 1.334 . S
C439 C440 1.282 1_655 S
C440 C439 1.282 1_455 S
C440 C441 1.531 . S
C440 H459 0.911 1_455 S
C441 H417 0.950 . S
C441 C440 1.531 . S
C441 C442 1.415 . S
C442 H418 0.950 . S
C442 C437 1.363 . S
C442 C441 1.415 . S
C443 H419 0.951 . S
C443 C444 1.366 . S
C443 C445 1.388 . S
C444 C443 1.366 . S
C444 C448 1.385 . S
C445 H420 0.951 . S
C445 C443 1.388 . S
C445 C446 1.366 . S
C446 C445 1.366 . S
C446 C447 1.414 . S
C446 C449 1.499 . S
C447 H421 0.950 . S
C447 C446 1.414 . S
C447 C448 1.374 . S
C448 H422 0.950 . S
C448 C444 1.385 . S
C448 C447 1.374 . S
C449 C446 1.499 . S
C449 C450 1.373 . S
C449 C451 1.389 . S
C450 H423 0.950 . S
C450 C436 1.377 . S
C450 C449 1.373 . S
C451 C435 1.377 . S
C451 C449 1.389 . S
C451 C452 1.524 . S
C452 C451 1.524 . S
C452 C453 1.397 . S
C452 C457 1.363 . S
C453 H424 0.950 . S
C453 C452 1.397 . S
C453 C454 1.334 . S
C454 H425 0.950 . S
C454 C453 1.334 . S
C454 C455 1.287 . S
C455 C454 1.287 . S
C455 C456 1.524 . S
C455 H458 0.999 . S
C456 H426 0.950 . S
C456 C455 1.524 . S
C456 C457 1.415 . S
C457 H427 0.950 1_455 S
C457 C452 1.363 . S
C457 C456 1.415 . S
H458 C455 0.999 . S
H459 C440 0.911 1_655 S
H460 C478 0.951 . S
H461 C480 0.951 . S
H462 C482 0.950 . S
H463 C483 0.950 . S
H464 C485 0.950 . S
H465 C488 0.950 . S
H466 C489 0.950 . S
H467 C491 0.950 . S
H468 C492 0.950 . S
H469 C493 0.951 . S
H470 C495 0.951 . S
H471 C497 0.950 . S
H472 C498 0.950 . S
H473 C500 0.950 . S
H474 C503 0.950 . S
H475 C504 0.950 . S
H476 C506 0.950 . S
H477 C507 0.950 . S
C478 H460 0.951 . S
C478 C479 1.366 . S
C478 C480 1.388 . S
C479 C478 1.366 . S
C479 C483 1.385 . S
C480 H461 0.951 . S
C480 C478 1.388 . S
C480 C481 1.366 . S
C481 C480 1.366 . S
C481 C482 1.414 . S
C481 C484 1.499 . S
C482 H462 0.950 . S
C482 C481 1.414 . S
C482 C483 1.374 . S
C483 H463 0.950 . S
C483 C479 1.385 . S
C483 C482 1.374 . S
C484 C481 1.499 . S
C484 C485 1.373 . S
C484 C486 1.389 . S
C485 H464 0.950 . S
C485 C484 1.373 . S
C485 C501 1.377 . S
C486 C484 1.389 . S
C486 C487 1.524 . S
C486 C500 1.377 . S
C487 C486 1.524 . S
C487 C488 1.397 . S
C487 C492 1.363 . S
C488 H465 0.950 . S
C488 C487 1.397 . S
C488 C489 1.334 . S
C489 H466 0.950 . S
C489 C488 1.334 . S
C489 C490 1.287 . S
C490 C489 1.287 . S
C490 C491 1.524 . S
C490 H509 0.913 . S
C491 H467 0.950 . S
C491 C490 1.524 . S
C491 C492 1.415 . S
C492 H468 0.950 . S
C492 C487 1.363 . S
C492 C491 1.415 . S
C493 H469 0.951 . S
C493 C494 1.366 . S
C493 C495 1.388 . S
C494 C493 1.366 . S
C494 C498 1.385 . S
C495 H470 0.951 . S
C495 C493 1.388 . S
C495 C496 1.366 . S
C496 C495 1.366 . S
C496 C497 1.414 . S
C496 C499 1.499 . S
C497 H471 0.950 . S
C497 C496 1.414 . S
C497 C498 1.374 . S
C498 H472 0.950 . S
C498 C494 1.385 . S
C498 C497 1.374 . S
C499 C496 1.499 . S
C499 C500 1.373 . S
C499 C501 1.389 . S
C500 H473 0.950 . S
C500 C486 1.377 . S
C500 C499 1.373 . S
C501 C485 1.377 . S
C501 C499 1.389 . S
C501 C502 1.524 . S
C502 C501 1.524 . S
C502 C503 1.397 . S
C502 C507 1.363 . S
C503 H474 0.950 . S
C503 C502 1.397 . S
C503 C504 1.334 . S
C504 H475 0.950 . S
C504 C503 1.334 . S
C504 C505 1.287 . S
C505 C504 1.287 . S
C505 C506 1.524 . S
C505 H508 0.999 . S
C506 H476 0.950 . S
C506 C505 1.524 . S
C506 C507 1.415 . S
C507 H477 0.950 . S
C507 C502 1.363 . S
C507 C506 1.415 . S
H508 C505 0.999 . S
H509 C490 0.913 . S
H510 C528 0.951 . S
H511 C530 0.951 . S
H512 C532 0.950 . S
H513 C533 0.950 . S
H514 C535 0.950 . S
H515 C538 0.950 . S
H516 C539 0.950 . S
H517 C541 0.950 1_655 S
H518 C542 0.950 1_655 S
H519 C543 0.954 . S
H520 C545 0.951 . S
H521 C547 0.950 . S
H522 C548 0.950 . S
H523 C550 0.950 1_565 S
H524 C553 0.950 . S
H525 C554 0.950 . S
H526 C556 0.950 . S
H527 C557 0.950 . S
C528 H510 0.951 . S
C528 C529 1.366 . S
C528 C530 1.388 . S
C529 C528 1.366 . S
C529 C533 1.385 . S
C530 H511 0.951 . S
C530 C528 1.388 . S
C530 C531 1.366 . S
C531 C530 1.366 . S
C531 C532 1.414 1_565 S
C531 C534 1.499 1_565 S
C532 H512 0.950 . S
C532 C531 1.414 1_545 S
C532 C533 1.374 1_545 S
C533 H513 0.950 . S
C533 C529 1.385 . S
C533 C532 1.374 1_565 S
C534 C531 1.499 1_545 S
C534 C535 1.373 . S
C534 C536 1.389 1_545 S
C535 H514 0.950 . S
C535 C534 1.373 . S
C535 C551 1.377 . S
C536 C534 1.389 1_565 S
C536 C537 1.524 . S
C536 C550 1.377 1_565 S
C537 C536 1.524 . S
C537 C538 1.397 . S
C537 C542 1.363 . S
C538 H515 0.950 . S
C538 C537 1.397 . S
C538 C539 1.334 . S
C539 H516 0.950 . S
C539 C538 1.334 . S
C539 C540 1.287 . S
C540 C539 1.287 . S
C540 C541 1.524 . S
C540 H559 0.913 . S
C541 H517 0.950 1_455 S
C541 C540 1.524 . S
C541 C542 1.415 . S
C542 H518 0.950 1_455 S
C542 C537 1.363 . S
C542 C541 1.415 . S
C543 H519 0.954 . S
C543 C544 1.366 . S
C543 C545 1.388 1_655 S
C544 C543 1.366 . S
C544 C548 1.385 . S
C545 H520 0.951 . S
C545 C543 1.388 1_455 S
C545 C546 1.366 . S
C546 C545 1.366 . S
C546 C547 1.414 1_455 S
C546 C549 1.499 . S
C547 H521 0.950 . S
C547 C546 1.414 1_655 S
C547 C548 1.374 . S
C548 H522 0.950 . S
C548 C544 1.385 . S
C548 C547 1.374 . S
C549 C546 1.499 . S
C549 C550 1.373 . S
C549 C551 1.389 . S
C550 H523 0.950 1_545 S
C550 C536 1.377 1_545 S
C550 C549 1.373 . S
C551 C535 1.377 . S
C551 C549 1.389 . S
C551 C552 1.524 . S
C552 C551 1.524 . S
C552 C553 1.397 . S
C552 C557 1.363 . S
C553 H524 0.950 . S
C553 C552 1.397 . S
C553 C554 1.334 . S
C554 H525 0.950 . S
C554 C553 1.334 . S
C554 C555 1.287 . S
C555 C554 1.287 . S
C555 C556 1.524 . S
C555 H558 0.999 . S
C556 H526 0.950 . S
C556 C555 1.524 . S
C556 C557 1.415 . S
C557 H527 0.950 . S
C557 C552 1.363 . S
C557 C556 1.415 . S
H558 C555 0.999 . S
H559 C540 0.913 . S
H560 C578 0.951 . S
H561 C580 0.951 . S
H562 C582 0.950 . S
H563 C583 0.950 . S
H564 C585 0.950 . S
H565 C588 0.950 . S
H566 C589 0.950 . S
H567 C591 0.950 . S
H568 C592 0.950 . S
H569 C593 0.951 . S
H570 C595 0.951 . S
H571 C597 0.950 . S
H572 C598 0.950 . S
H573 C600 0.950 . S
H574 C603 0.950 . S
H575 C604 0.950 . S
H576 C606 0.950 . S
H577 C607 0.950 . S
C578 H560 0.951 . S
C578 C579 1.366 . S
C578 C580 1.388 . S
C579 C578 1.366 . S
C579 C583 1.385 . S
C580 H561 0.951 . S
C580 C578 1.388 . S
C580 C581 1.366 . S
C581 C580 1.366 . S
C581 C582 1.414 . S
C581 C584 1.499 . S
C582 H562 0.950 . S
C582 C581 1.414 . S
C582 C583 1.374 . S
C583 H563 0.950 . S
C583 C579 1.385 . S
C583 C582 1.374 . S
C584 C581 1.499 . S
C584 C585 1.373 . S
C584 C586 1.389 . S
C585 H564 0.950 . S
C585 C584 1.373 . S
C585 C601 1.377 . S
C586 C584 1.389 . S
C586 C587 1.524 . S
C586 C600 1.377 . S
C587 C586 1.524 . S
C587 C588 1.397 . S
C587 C592 1.363 . S
C588 H565 0.950 . S
C588 C587 1.397 . S
C588 C589 1.334 . S
C589 H566 0.950 . S
C589 C588 1.334 . S
C589 C590 1.287 . S
C590 C589 1.287 . S
C590 C591 1.524 . S
C590 H609 0.913 . S
C591 H567 0.950 . S
C591 C590 1.524 . S
C591 C592 1.415 . S
C592 H568 0.950 . S
C592 C587 1.363 . S
C592 C591 1.415 . S
C593 H569 0.951 . S
C593 C594 1.366 . S
C593 C595 1.388 . S
C594 C593 1.366 . S
C594 C598 1.385 . S
C595 H570 0.951 . S
C595 C593 1.388 . S
C595 C596 1.366 . S
C596 C595 1.366 . S
C596 C597 1.414 . S
C596 C599 1.499 . S
C597 H571 0.950 . S
C597 C596 1.414 . S
C597 C598 1.374 . S
C598 H572 0.950 . S
C598 C594 1.385 . S
C598 C597 1.374 . S
C599 C596 1.499 . S
C599 C600 1.373 . S
C599 C601 1.389 . S
C600 H573 0.950 . S
C600 C586 1.377 . S
C600 C599 1.373 . S
C601 C585 1.377 . S
C601 C599 1.389 . S
C601 C602 1.524 . S
C602 C601 1.524 . S
C602 C603 1.397 . S
C602 C607 1.363 . S
C603 H574 0.950 . S
C603 C602 1.397 . S
C603 C604 1.334 . S
C604 H575 0.950 . S
C604 C603 1.334 . S
C604 C605 1.287 . S
C605 C604 1.287 . S
C605 C606 1.524 . S
C605 H608 0.999 . S
C606 H576 0.950 . S
C606 C605 1.524 . S
C606 C607 1.415 . S
C607 H577 0.950 . S
C607 C602 1.363 . S
C607 C606 1.415 . S
H608 C605 0.999 . S
H609 C590 0.913 . S
H610 C628 0.951 . S
H611 C630 0.951 . S
H612 C632 0.950 . S
H613 C633 0.950 . S
H614 C635 0.950 . S
H615 C638 0.950 . S
H616 C639 0.950 . S
H617 C641 0.950 . S
H618 C642 0.950 . S
H619 C643 0.951 . S
H620 C645 0.951 . S
H621 C647 0.950 . S
H622 C648 0.950 . S
H623 C650 0.950 . S
H624 C653 0.950 . S
H625 C654 0.950 . S
H626 C656 0.950 . S
H627 C657 0.950 . S
C628 H610 0.951 . S
C628 C629 1.366 . S
C628 C630 1.388 . S
C629 C628 1.366 . S
C629 C633 1.385 . S
C630 H611 0.951 . S
C630 C628 1.388 . S
C630 C631 1.366 . S
C631 C630 1.366 . S
C631 C632 1.414 . S
C631 C634 1.499 . S
C632 H612 0.950 . S
C632 C631 1.414 . S
C632 C633 1.374 . S
C633 H613 0.950 . S
C633 C629 1.385 . S
C633 C632 1.374 . S
C634 C631 1.499 . S
C634 C635 1.373 . S
C634 C636 1.389 . S
C635 H614 0.950 . S
C635 C634 1.373 . S
C635 C651 1.377 . S
C636 C634 1.389 . S
C636 C637 1.524 . S
C636 C650 1.377 . S
C637 C636 1.524 . S
C637 C638 1.397 . S
C637 C642 1.363 . S
C638 H615 0.950 . S
C638 C637 1.397 . S
C638 C639 1.334 . S
C639 H616 0.950 . S
C639 C638 1.334 . S
C639 C640 1.287 . S
C640 C639 1.287 . S
C640 C641 1.524 . S
C640 H659 0.913 . S
C641 H617 0.950 . S
C641 C640 1.524 . S
C641 C642 1.415 . S
C642 H618 0.950 . S
C642 C637 1.363 . S
C642 C641 1.415 . S
C643 H619 0.951 . S
C643 C644 1.366 . S
C643 C645 1.388 . S
C644 C643 1.366 . S
C644 C648 1.385 . S
C645 H620 0.951 . S
C645 C643 1.388 . S
C645 C646 1.366 . S
C646 C645 1.366 . S
C646 C647 1.414 . S
C646 C649 1.499 . S
C647 H621 0.950 . S
C647 C646 1.414 . S
C647 C648 1.374 . S
C648 H622 0.950 . S
C648 C644 1.385 . S
C648 C647 1.374 . S
C649 C646 1.499 . S
C649 C650 1.373 . S
C649 C651 1.389 . S
C650 H623 0.950 . S
C650 C636 1.377 . S
C650 C649 1.373 . S
C651 C635 1.377 . S
C651 C649 1.389 . S
C651 C652 1.524 . S
C652 C651 1.524 . S
C652 C653 1.397 . S
C652 C657 1.363 . S
C653 H624 0.950 . S
C653 C652 1.397 . S
C653 C654 1.334 . S
C654 H625 0.950 . S
C654 C653 1.334 . S
C654 C655 1.287 . S
C655 C654 1.287 . S
C655 C656 1.524 . S
C655 H658 0.999 . S
C656 H626 0.950 . S
C656 C655 1.524 . S
C656 C657 1.415 . S
C657 H627 0.950 . S
C657 C652 1.363 . S
C657 C656 1.415 . S
H658 C655 0.999 . S
H659 C640 0.913 . S
H660 C678 0.951 . S
H661 C680 0.951 . S
H662 C682 0.950 . S
H663 C683 0.950 . S
H664 C685 0.950 . S
H665 C688 0.950 . S
H666 C689 0.950 . S
H667 C691 0.950 . S
H668 C692 0.950 . S
H669 C693 0.951 . S
H670 C695 0.951 . S
H671 C697 0.950 . S
H672 C698 0.950 . S
H673 C700 0.950 . S
H674 C703 0.950 . S
H675 C704 0.950 . S
H676 C706 0.950 . S
H677 C707 0.950 . S
C678 H660 0.951 . S
C678 C679 1.366 . S
C678 C680 1.388 . S
C679 C678 1.366 . S
C679 C683 1.385 . S
C680 H661 0.951 . S
C680 C678 1.388 . S
C680 C681 1.366 . S
C681 C680 1.366 . S
C681 C682 1.414 . S
C681 C684 1.499 . S
C682 H662 0.950 . S
C682 C681 1.414 . S
C682 C683 1.374 . S
C683 H663 0.950 . S
C683 C679 1.385 . S
C683 C682 1.374 . S
C684 C681 1.499 . S
C684 C685 1.373 . S
C684 C686 1.389 . S
C685 H664 0.950 . S
C685 C684 1.373 . S
C685 C701 1.377 . S
C686 C684 1.389 . S
C686 C687 1.524 . S
C686 C700 1.377 . S
C687 C686 1.524 . S
C687 C688 1.397 . S
C687 C692 1.363 . S
C688 H665 0.950 . S
C688 C687 1.397 . S
C688 C689 1.334 . S
C689 H666 0.950 . S
C689 C688 1.334 . S
C689 C690 1.287 . S
C690 C689 1.287 . S
C690 C691 1.524 . S
C690 H709 0.913 . S
C691 H667 0.950 . S
C691 C690 1.524 . S
C691 C692 1.415 . S
C692 H668 0.950 . S
C692 C687 1.363 . S
C692 C691 1.415 . S
C693 H669 0.951 . S
C693 C694 1.366 . S
C693 C695 1.388 . S
C694 C693 1.366 . S
C694 C698 1.385 . S
C695 H670 0.951 . S
C695 C693 1.388 . S
C695 C696 1.366 . S
C696 C695 1.366 . S
C696 C697 1.414 . S
C696 C699 1.499 . S
C697 H671 0.950 . S
C697 C696 1.414 . S
C697 C698 1.374 . S
C698 H672 0.950 . S
C698 C694 1.385 . S
C698 C697 1.374 . S
C699 C696 1.499 . S
C699 C700 1.373 . S
C699 C701 1.389 . S
C700 H673 0.950 . S
C700 C686 1.377 . S
C700 C699 1.373 . S
C701 C685 1.377 . S
C701 C699 1.389 . S
C701 C702 1.524 . S
C702 C701 1.524 . S
C702 C703 1.397 . S
C702 C707 1.363 . S
C703 H674 0.950 . S
C703 C702 1.397 . S
C703 C704 1.334 . S
C704 H675 0.950 . S
C704 C703 1.334 . S
C704 C705 1.287 . S
C705 C704 1.287 . S
C705 C706 1.524 . S
C705 H708 0.999 . S
C706 H676 0.950 . S
C706 C705 1.524 . S
C706 C707 1.415 . S
C707 H677 0.950 . S
C707 C702 1.363 . S
C707 C706 1.415 . S
H708 C705 0.999 . S
H709 C690 0.913 . S
H710 C728 0.951 . S
H711 C730 0.951 . S
H712 C732 0.950 . S
H713 C733 0.950 . S
H714 C735 0.950 . S
H715 C738 0.950 . S
H716 C739 0.950 . S
H717 C741 0.950 . S
H718 C742 0.950 . S
H719 C743 0.951 . S
H720 C745 0.951 . S
H721 C747 0.950 . S
H722 C748 0.920 1_545 S
H723 C750 0.950 . S
H724 C753 0.950 . S
H725 C754 0.950 . S
H726 C756 0.950 . S
H727 C757 0.950 . S
C728 H710 0.951 . S
C728 C729 1.366 . S
C728 C730 1.388 . S
C729 C728 1.366 . S
C729 C733 1.385 . S
C730 H711 0.951 . S
C730 C728 1.388 . S
C730 C731 1.366 . S
C731 C730 1.366 . S
C731 C732 1.414 . S
C731 C734 1.499 . S
C732 H712 0.950 . S
C732 C731 1.414 . S
C732 C733 1.374 . S
C733 H713 0.950 . S
C733 C729 1.385 . S
C733 C732 1.374 . S
C734 C731 1.499 . S
C734 C735 1.373 . S
C734 C736 1.389 . S
C735 H714 0.950 . S
C735 C734 1.373 . S
C735 C751 1.377 . S
C736 C734 1.389 . S
C736 C737 1.524 . S
C736 C750 1.377 . S
C737 C736 1.524 . S
C737 C738 1.397 . S
C737 C742 1.363 1_565 S
C738 H715 0.950 . S
C738 C737 1.397 . S
C738 C739 1.334 . S
C739 H716 0.950 . S
C739 C738 1.334 . S
C739 C740 1.287 1_565 S
C740 C739 1.287 1_545 S
C740 C741 1.524 . S
C740 H759 0.913 . S
C741 H717 0.950 . S
C741 C740 1.524 . S
C741 C742 1.415 . S
C742 H718 0.950 . S
C742 C737 1.363 1_545 S
C742 C741 1.415 . S
C743 H719 0.951 . S
C743 C744 1.366 . S
C743 C745 1.388 . S
C744 C743 1.366 . S
C744 C748 1.385 . S
C745 H720 0.951 . S
C745 C743 1.388 . S
C745 C746 1.366 . S
C746 C745 1.366 . S
C746 C747 1.414 . S
C746 C749 1.499 . S
C747 H721 0.950 . S
C747 C746 1.414 . S
C747 C748 1.374 . S
C748 H722 0.920 1_565 S
C748 C744 1.385 . S
C748 C747 1.374 . S
C749 C746 1.499 . S
C749 C750 1.373 . S
C749 C751 1.389 . S
C750 H723 0.950 . S
C750 C736 1.377 . S
C750 C749 1.373 . S
C751 C735 1.377 . S
C751 C749 1.389 . S
C751 C752 1.524 . S
C752 C751 1.524 . S
C752 C753 1.397 . S
C752 C757 1.363 . S
C753 H724 0.950 . S
C753 C752 1.397 . S
C753 C754 1.334 . S
C754 H725 0.950 . S
C754 C753 1.334 . S
C754 C755 1.287 . S
C755 C754 1.287 . S
C755 C756 1.524 . S
C755 H758 0.999 . S
C756 H726 0.950 . S
C756 C755 1.524 . S
C756 C757 1.415 . S
C757 H727 0.950 . S
C757 C752 1.363 . S
C757 C756 1.415 . S
H758 C755 0.999 . S
H759 C740 0.913 . S
H760 C778 0.951 . S
H761 C780 0.951 . S
H762 C782 0.950 . S
H763 C783 0.950 . S
H764 C785 0.950 . S
H765 C788 0.950 . S
H766 C789 0.950 . S
H767 C791 0.950 . S
H768 C792 0.950 . S
H769 C793 0.951 . S
H770 C795 0.951 . S
H771 C797 0.950 . S
H772 C798 0.950 . S
H773 C800 0.950 . S
H774 C803 0.950 . S
H775 C804 0.950 . S
H776 C806 0.950 . S
H777 C807 0.950 . S
C778 H760 0.951 . S
C778 C779 1.366 . S
C778 C780 1.388 . S
C779 C778 1.366 . S
C779 C783 1.385 . S
C780 H761 0.951 . S
C780 C778 1.388 . S
C780 C781 1.366 . S
C781 C780 1.366 . S
C781 C782 1.414 . S
C781 C784 1.499 . S
C782 H762 0.950 . S
C782 C781 1.414 . S
C782 C783 1.374 . S
C783 H763 0.950 . S
C783 C779 1.385 . S
C783 C782 1.374 . S
C784 C781 1.499 . S
C784 C785 1.373 . S
C784 C786 1.389 . S
C785 H764 0.950 . S
C785 C784 1.373 . S
C785 C801 1.377 . S
C786 C784 1.389 . S
C786 C787 1.524 . S
C786 C800 1.377 . S
C787 C786 1.524 . S
C787 C788 1.397 . S
C787 C792 1.363 . S
C788 H765 0.950 . S
C788 C787 1.397 . S
C788 C789 1.334 . S
C789 H766 0.950 . S
C789 C788 1.334 . S
C789 C790 1.287 . S
C790 C789 1.287 . S
C790 C791 1.524 . S
C790 H809 0.913 . S
C791 H767 0.950 . S
C791 C790 1.524 . S
C791 C792 1.415 . S
C792 H768 0.950 . S
C792 C787 1.363 . S
C792 C791 1.415 . S
C793 H769 0.951 . S
C793 C794 1.366 . S
C793 C795 1.388 . S
C794 C793 1.366 . S
C794 C798 1.385 . S
C795 H770 0.951 . S
C795 C793 1.388 . S
C795 C796 1.366 . S
C796 C795 1.366 . S
C796 C797 1.414 . S
C796 C799 1.499 . S
C797 H771 0.950 . S
C797 C796 1.414 . S
C797 C798 1.374 . S
C798 H772 0.950 . S
C798 C794 1.385 . S
C798 C797 1.374 . S
C799 C796 1.499 . S
C799 C800 1.373 . S
C799 C801 1.389 . S
C800 H773 0.950 . S
C800 C786 1.377 . S
C800 C799 1.373 . S
C801 C785 1.377 . S
C801 C799 1.389 . S
C801 C802 1.524 . S
C802 C801 1.524 . S
C802 C803 1.397 . S
C802 C807 1.363 . S
C803 H774 0.950 . S
C803 C802 1.397 . S
C803 C804 1.334 . S
C804 H775 0.950 . S
C804 C803 1.334 . S
C804 C805 1.287 . S
C805 C804 1.287 . S
C805 C806 1.524 . S
C805 H808 0.999 . S
C806 H776 0.950 . S
C806 C805 1.524 . S
C806 C807 1.415 . S
C807 H777 0.950 . S
C807 C802 1.363 . S
C807 C806 1.415 . S
H808 C805 0.999 . S
H809 C790 0.913 . S
H810 C828 0.951 . S
H811 C830 0.951 . S
H812 C832 0.950 . S
H813 C833 0.950 . S
H814 C835 0.950 . S
H815 C838 0.950 . S
H816 C839 0.950 . S
H817 C841 0.950 . S
H818 C842 0.950 . S
H819 C843 0.951 . S
H820 C845 0.951 . S
H821 C847 0.950 . S
H822 C848 0.950 . S
H823 C850 0.950 . S
H824 C853 0.950 . S
H825 C854 0.950 . S
H826 C856 0.950 . S
H827 C857 0.950 . S
C828 H810 0.951 . S
C828 C829 1.366 . S
C828 C830 1.388 . S
C829 C828 1.366 . S
C829 C833 1.385 . S
C830 H811 0.951 . S
C830 C828 1.388 . S
C830 C831 1.366 . S
C831 C830 1.366 . S
C831 C832 1.414 . S
C831 C834 1.499 . S
C832 H812 0.950 . S
C832 C831 1.414 . S
C832 C833 1.374 . S
C833 H813 0.950 . S
C833 C829 1.385 . S
C833 C832 1.374 . S
C834 C831 1.499 . S
C834 C835 1.373 . S
C834 C836 1.389 . S
C835 H814 0.950 . S
C835 C834 1.373 . S
C835 C851 1.377 . S
C836 C834 1.389 . S
C836 C837 1.524 . S
C836 C850 1.377 . S
C837 C836 1.524 . S
C837 C838 1.397 . S
C837 C842 1.363 . S
C838 H815 0.950 . S
C838 C837 1.397 . S
C838 C839 1.334 . S
C839 H816 0.950 . S
C839 C838 1.334 . S
C839 C840 1.287 . S
C840 C839 1.287 . S
C840 C841 1.524 . S
C840 H859 0.913 . S
C841 H817 0.950 . S
C841 C840 1.524 . S
C841 C842 1.415 . S
C842 H818 0.950 . S
C842 C837 1.363 . S
C842 C841 1.415 . S
C843 H819 0.951 . S
C843 C844 1.366 . S
C843 C845 1.388 . S
C844 C843 1.366 . S
C844 C848 1.385 . S
C845 H820 0.951 . S
C845 C843 1.388 . S
C845 C846 1.366 . S
C846 C845 1.366 . S
C846 C847 1.414 . S
C846 C849 1.499 . S
C847 H821 0.950 . S
C847 C846 1.414 . S
C847 C848 1.374 . S
C848 H822 0.950 . S
C848 C844 1.385 . S
C848 C847 1.374 . S
C849 C846 1.499 . S
C849 C850 1.373 . S
C849 C851 1.389 . S
C850 H823 0.950 . S
C850 C836 1.377 . S
C850 C849 1.373 . S
C851 C835 1.377 . S
C851 C849 1.389 . S
C851 C852 1.524 . S
C852 C851 1.524 . S
C852 C853 1.397 . S
C852 C857 1.363 . S
C853 H824 0.950 . S
C853 C852 1.397 . S
C853 C854 1.334 . S
C854 H825 0.950 . S
C854 C853 1.334 . S
C854 C855 1.287 . S
C855 C854 1.287 . S
C855 C856 1.524 . S
C855 H858 0.999 . S
C856 H826 0.950 . S
C856 C855 1.524 . S
C856 C857 1.415 . S
C857 H827 0.950 . S
C857 C852 1.363 . S
C857 C856 1.415 . S
H858 C855 0.999 . S
H859 C840 0.913 . S
H860 C878 0.951 . S
H861 C880 0.951 . S
H862 C882 0.950 . S
H863 C883 0.950 . S
H864 C885 0.950 . S
H865 C888 0.950 . S
H866 C889 0.950 . S
H867 C891 0.950 . S
H868 C892 0.950 . S
H869 C893 0.951 . S
H870 C895 0.951 . S
H871 C897 0.950 . S
H872 C898 0.950 . S
H873 C900 0.950 . S
H874 C903 0.950 . S
H875 C904 0.950 . S
H876 C906 0.950 . S
H877 C907 0.950 . S
C878 H860 0.951 . S
C878 C879 1.366 . S
C878 C880 1.388 . S
C879 C878 1.366 . S
C879 C883 1.385 . S
C880 H861 0.951 . S
C880 C878 1.388 . S
C880 C881 1.366 . S
C881 C880 1.366 . S
C881 C882 1.414 . S
C881 C884 1.499 . S
C882 H862 0.950 . S
C882 C881 1.414 . S
C882 C883 1.374 . S
C883 H863 0.950 . S
C883 C879 1.385 . S
C883 C882 1.374 . S
C884 C881 1.499 . S
C884 C885 1.373 . S
C884 C886 1.389 . S
C885 H864 0.950 . S
C885 C884 1.373 . S
C885 C901 1.377 . S
C886 C884 1.389 . S
C886 C887 1.524 . S
C886 C900 1.377 . S
C887 C886 1.524 . S
C887 C888 1.397 . S
C887 C892 1.363 . S
C888 H865 0.950 . S
C888 C887 1.397 . S
C888 C889 1.334 . S
C889 H866 0.950 . S
C889 C888 1.334 . S
C889 C890 1.287 . S
C890 C889 1.287 . S
C890 C891 1.524 . S
C890 H909 0.913 . S
C891 H867 0.950 . S
C891 C890 1.524 . S
C891 C892 1.415 . S
C892 H868 0.950 . S
C892 C887 1.363 . S
C892 C891 1.415 . S
C893 H869 0.951 . S
C893 C894 1.366 . S
C893 C895 1.388 . S
C894 C893 1.366 . S
C894 C898 1.385 . S
C895 H870 0.951 . S
C895 C893 1.388 . S
C895 C896 1.366 . S
C896 C895 1.366 . S
C896 C897 1.414 . S
C896 C899 1.499 . S
C897 H871 0.950 . S
C897 C896 1.414 . S
C897 C898 1.374 . S
C898 H872 0.950 . S
C898 C894 1.385 . S
C898 C897 1.374 . S
C899 C896 1.499 . S
C899 C900 1.373 . S
C899 C901 1.389 . S
C900 H873 0.950 . S
C900 C886 1.377 . S
C900 C899 1.373 . S
C901 C885 1.377 . S
C901 C899 1.389 . S
C901 C902 1.524 . S
C902 C901 1.524 . S
C902 C903 1.397 . S
C902 C907 1.363 . S
C903 H874 0.950 . S
C903 C902 1.397 . S
C903 C904 1.334 . S
C904 H875 0.950 . S
C904 C903 1.334 . S
C904 C905 1.287 . S
C905 C904 1.287 . S
C905 C906 1.524 . S
C905 H908 0.999 . S
C906 H876 0.950 . S
C906 C905 1.524 . S
C906 C907 1.415 . S
C907 H877 0.950 . S
C907 C902 1.363 . S
C907 C906 1.415 . S
H908 C905 0.999 . S
H909 C890 0.913 . S
H910 C928 0.951 . S
H911 C930 0.951 . S
H912 C932 0.950 . S
H913 C933 0.950 . S
H914 C935 0.950 . S
H915 C938 0.950 . S
H916 C939 0.950 . S
H917 C941 0.950 . S
H918 C942 0.950 . S
H919 C943 0.951 . S
H920 C945 0.951 . S
H921 C947 0.950 . S
H922 C948 0.950 . S
H923 C950 0.950 . S
H924 C953 0.950 . S
H925 C954 0.950 . S
H926 C956 0.950 . S
H927 C957 0.950 . S
C928 H910 0.951 . S
C928 C929 1.366 . S
C928 C930 1.388 . S
C929 C928 1.366 . S
C929 C933 1.385 . S
C930 H911 0.951 . S
C930 C928 1.388 . S
C930 C931 1.366 . S
C931 C930 1.366 . S
C931 C932 1.414 . S
C931 C934 1.499 . S
C932 H912 0.950 . S
C932 C931 1.414 . S
C932 C933 1.374 . S
C933 H913 0.950 . S
C933 C929 1.385 . S
C933 C932 1.374 . S
C934 C931 1.499 . S
C934 C935 1.373 . S
C934 C936 1.389 . S
C935 H914 0.950 . S
C935 C934 1.373 . S
C935 C951 1.377 . S
C936 C934 1.389 . S
C936 C937 1.524 . S
C936 C950 1.377 . S
C937 C936 1.524 . S
C937 C938 1.397 . S
C937 C942 1.363 . S
C938 H915 0.950 . S
C938 C937 1.397 . S
C938 C939 1.334 . S
C939 H916 0.950 . S
C939 C938 1.334 . S
C939 C940 1.287 . S
C940 C939 1.287 . S
C940 C941 1.524 . S
C940 H959 0.913 . S
C941 H917 0.950 . S
C941 C940 1.524 . S
C941 C942 1.415 . S
C942 H918 0.950 . S
C942 C937 1.363 . S
C942 C941 1.415 . S
C943 H919 0.951 . S
C943 C944 1.366 . S
C943 C945 1.388 . S
C944 C943 1.366 . S
C944 C948 1.385 . S
C945 H920 0.951 . S
C945 C943 1.388 . S
C945 C946 1.366 . S
C946 C945 1.366 . S
C946 C947 1.414 . S
C946 C949 1.499 . S
C947 H921 0.950 . S
C947 C946 1.414 . S
C947 C948 1.374 . S
C948 H922 0.950 . S
C948 C944 1.385 . S
C948 C947 1.374 . S
C949 C946 1.499 . S
C949 C950 1.373 . S
C949 C951 1.389 . S
C950 H923 0.950 . S
C950 C936 1.377 . S
C950 C949 1.373 . S
C951 C935 1.377 . S
C951 C949 1.389 . S
C951 C952 1.524 . S
C952 C951 1.524 . S
C952 C953 1.397 . S
C952 C957 1.363 . S
C953 H924 0.950 . S
C953 C952 1.397 . S
C953 C954 1.334 . S
C954 H925 0.950 . S
C954 C953 1.334 . S
C954 C955 1.287 . S
C955 C954 1.287 . S
C955 C956 1.524 . S
C955 H958 0.999 . S
C956 H926 0.950 . S
C956 C955 1.524 . S
C956 C957 1.415 . S
C957 H927 0.950 . S
C957 C952 1.363 . S
C957 C956 1.415 . S
H958 C955 0.999 . S
H959 C940 0.913 . S
H960 C978 0.951 . S
H961 C980 0.951 . S
H962 C982 0.950 . S
H963 C983 0.950 . S
H964 C985 0.950 . S
H965 C988 0.950 . S
H966 C989 0.950 . S
H967 C991 0.950 . S
H968 C992 0.950 . S
H969 C993 0.951 . S
H970 C995 0.951 . S
H971 C997 0.950 . S
H972 C998 0.950 . S
H973 C1000 0.950 . S
H974 C1003 0.950 . S
H975 C1004 0.950 . S
H976 C1006 0.950 . S
H977 C1007 0.950 . S
C978 H960 0.951 . S
C978 C979 1.366 . S
C978 C980 1.388 . S
C979 C978 1.366 . S
C979 C983 1.385 . S
C980 H961 0.951 . S
C980 C978 1.388 . S
C980 C981 1.366 . S
C981 C980 1.366 . S
C981 C982 1.414 . S
C981 C984 1.499 . S
C982 H962 0.950 . S
C982 C981 1.414 . S
C982 C983 1.374 . S
C983 H963 0.950 . S
C983 C979 1.385 . S
C983 C982 1.374 . S
C984 C981 1.499 . S
C984 C985 1.373 . S
C984 C986 1.389 . S
C985 H964 0.950 . S
C985 C984 1.373 . S
C985 C1001 1.377 . S
C986 C984 1.389 . S
C986 C987 1.524 . S
C986 C1000 1.377 . S
C987 C986 1.524 . S
C987 C988 1.397 . S
C987 C992 1.363 . S
C988 H965 0.950 . S
C988 C987 1.397 . S
C988 C989 1.334 . S
C989 H966 0.950 . S
C989 C988 1.334 . S
C989 C990 1.287 . S
C990 C989 1.287 . S
C990 C991 1.524 . S
C990 H1009 0.913 . S
C991 H967 0.950 . S
C991 C990 1.524 . S
C991 C992 1.415 . S
C992 H968 0.950 . S
C992 C987 1.363 . S
C992 C991 1.415 . S
C993 H969 0.951 . S
C993 C994 1.366 . S
C993 C995 1.388 . S
C994 C993 1.366 . S
C994 C998 1.385 . S
C995 H970 0.951 . S
C995 C993 1.388 . S
C995 C996 1.366 . S
C996 C995 1.366 . S
C996 C997 1.414 . S
C996 C999 1.499 . S
C997 H971 0.950 . S
C997 C996 1.414 . S
C997 C998 1.374 . S
C998 H972 0.950 . S
C998 C994 1.385 . S
C998 C997 1.374 . S
C999 C996 1.499 . S
C999 C1000 1.373 . S
C999 C1001 1.389 . S
C1000 H973 0.950 . S
C1000 C986 1.377 . S
C1000 C999 1.373 . S
C1001 C985 1.377 . S
C1001 C999 1.389 . S
C1001 C1002 1.524 . S
C1002 C1001 1.524 . S
C1002 C1003 1.397 . S
C1002 C1007 1.363 . S
C1003 H974 0.950 . S
C1003 C1002 1.397 . S
C1003 C1004 1.334 . S
C1004 H975 0.950 . S
C1004 C1003 1.334 . S
C1004 C1005 1.287 . S
C1005 C1004 1.287 . S
C1005 C1006 1.524 . S
C1005 H1008 0.999 . S
C1006 H976 0.950 . S
C1006 C1005 1.524 . S
C1006 C1007 1.415 . S
C1007 H977 0.950 . S
C1007 C1002 1.363 . S
C1007 C1006 1.415 . S
H1008 C1005 0.999 . S
H1009 C990 0.913 . S
H1010 C1028 0.951 . S
H1011 C1030 0.951 . S
H1012 C1032 0.950 . S
H1013 C1033 0.950 . S
H1014 C1035 0.950 . S
H1015 C1038 0.950 . S
H1016 C1039 0.950 . S
H1017 C1041 0.950 . S
H1018 C1042 0.950 . S
H1019 C1043 0.951 . S
H1020 C1045 0.951 . S
H1021 C1047 0.950 . S
H1022 C1048 0.950 . S
H1023 C1050 0.950 . S
H1024 C1053 0.950 . S
H1025 C1054 0.950 . S
H1026 C1056 0.950 . S
H1027 C1057 0.950 . S
C1028 H1010 0.951 . S
C1028 C1029 1.366 . S
C1028 C1030 1.388 . S
C1029 C1028 1.366 . S
C1029 C1033 1.385 . S
C1030 H1011 0.951 . S
C1030 C1028 1.388 . S
C1030 C1031 1.366 . S
C1031 C1030 1.366 . S
C1031 C1032 1.414 . S
C1031 C1034 1.499 . S
C1032 H1012 0.950 . S
C1032 C1031 1.414 . S
C1032 C1033 1.374 . S
C1033 H1013 0.950 . S
C1033 C1029 1.385 . S
C1033 C1032 1.374 . S
C1034 C1031 1.499 . S
C1034 C1035 1.373 . S
C1034 C1036 1.389 . S
C1035 H1014 0.950 . S
C1035 C1034 1.373 . S
C1035 C1051 1.377 . S
C1036 C1034 1.389 . S
C1036 C1037 1.524 . S
C1036 C1050 1.377 . S
C1037 C1036 1.524 . S
C1037 C1038 1.397 . S
C1037 C1042 1.363 . S
C1038 H1015 0.950 . S
C1038 C1037 1.397 . S
C1038 C1039 1.334 . S
C1039 H1016 0.950 . S
C1039 C1038 1.334 . S
C1039 C1040 1.287 . S
C1040 C1039 1.287 . S
C1040 C1041 1.524 . S
C1040 H1059 0.913 . S
C1041 H1017 0.950 . S
C1041 C1040 1.524 . S
C1041 C1042 1.415 . S
C1042 H1018 0.950 . S
C1042 C1037 1.363 . S
C1042 C1041 1.415 . S
C1043 H1019 0.951 . S
C1043 C1044 1.366 . S
C1043 C1045 1.388 . S
C1044 C1043 1.366 . S
C1044 C1048 1.385 . S
C1045 H1020 0.951 . S
C1045 C1043 1.388 . S
C1045 C1046 1.366 . S
C1046 C1045 1.366 . S
C1046 C1047 1.414 . S
C1046 C1049 1.499 . S
C1047 H1021 0.950 . S
C1047 C1046 1.414 . S
C1047 C1048 1.374 . S
C1048 H1022 0.950 . S
C1048 C1044 1.385 . S
C1048 C1047 1.374 . S
C1049 C1046 1.499 . S
C1049 C1050 1.373 . S
C1049 C1051 1.389 . S
C1050 H1023 0.950 . S
C1050 C1036 1.377 . S
C1050 C1049 1.373 . S
C1051 C1035 1.377 . S
C1051 C1049 1.389 . S
C1051 C1052 1.524 . S
C1052 C1051 1.524 . S
C1052 C1053 1.397 . S
C1052 C1057 1.363 . S
C1053 H1024 0.950 . S
C1053 C1052 1.397 . S
C1053 C1054 1.334 . S
C1054 H1025 0.950 . S
C1054 C1053 1.334 . S
C1054 C1055 1.287 . S
C1055 C1054 1.287 . S
C1055 C1056 1.524 . S
C1055 H1058 0.999 . S
C1056 H1026 0.950 . S
C1056 C1055 1.524 . S
C1056 C1057 1.415 . S
C1057 H1027 0.950 . S
C1057 C1052 1.363 . S
C1057 C1056 1.415 . S
H1058 C1055 0.999 . S
H1059 C1040 0.913 . S
H1060 C1078 0.951 . S
H1061 C1080 0.951 . S
H1062 C1082 0.950 . S
H1063 C1083 0.950 . S
H1064 C1085 0.950 . S
H1065 C1088 0.950 . S
H1066 C1089 0.950 . S
H1067 C1091 0.950 . S
H1068 C1092 0.950 . S
H1069 C1093 0.951 . S
H1070 C1095 0.951 . S
H1071 C1097 0.950 . S
H1072 C1098 0.950 . S
H1073 C1100 0.950 . S
H1074 C1103 0.950 . S
H1075 C1104 0.950 . S
H1076 C1106 0.950 . S
H1077 C1107 0.950 . S
C1078 H1060 0.951 . S
C1078 C1079 1.366 . S
C1078 C1080 1.388 . S
C1079 C1078 1.366 . S
C1079 C1083 1.385 . S
C1080 H1061 0.951 . S
C1080 C1078 1.388 . S
C1080 C1081 1.366 . S
C1081 C1080 1.366 . S
C1081 C1082 1.414 . S
C1081 C1084 1.499 . S
C1082 H1062 0.950 . S
C1082 C1081 1.414 . S
C1082 C1083 1.374 . S
C1083 H1063 0.950 . S
C1083 C1079 1.385 . S
C1083 C1082 1.374 . S
C1084 C1081 1.499 . S
C1084 C1085 1.373 . S
C1084 C1086 1.389 . S
C1085 H1064 0.950 . S
C1085 C1084 1.373 . S
C1085 C1101 1.377 . S
C1086 C1084 1.389 . S
C1086 C1087 1.524 . S
C1086 C1100 1.377 . S
C1087 C1086 1.524 . S
C1087 C1088 1.397 . S
C1087 C1092 1.363 . S
C1088 H1065 0.950 . S
C1088 C1087 1.397 . S
C1088 C1089 1.334 . S
C1089 H1066 0.950 . S
C1089 C1088 1.334 . S
C1089 C1090 1.287 . S
C1090 C1089 1.287 . S
C1090 C1091 1.524 . S
C1090 H1109 0.913 . S
C1091 H1067 0.950 . S
C1091 C1090 1.524 . S
C1091 C1092 1.415 . S
C1092 H1068 0.950 . S
C1092 C1087 1.363 . S
C1092 C1091 1.415 . S
C1093 H1069 0.951 . S
C1093 C1094 1.366 . S
C1093 C1095 1.388 . S
C1094 C1093 1.366 . S
C1094 C1098 1.385 . S
C1095 H1070 0.951 . S
C1095 C1093 1.388 . S
C1095 C1096 1.366 . S
C1096 C1095 1.366 . S
C1096 C1097 1.414 . S
C1096 C1099 1.499 . S
C1097 H1071 0.950 . S
C1097 C1096 1.414 . S
C1097 C1098 1.374 . S
C1098 H1072 0.950 . S
C1098 C1094 1.385 . S
C1098 C1097 1.374 . S
C1099 C1096 1.499 . S
C1099 C1100 1.373 . S
C1099 C1101 1.389 . S
C1100 H1073 0.950 . S
C1100 C1086 1.377 . S
C1100 C1099 1.373 . S
C1101 C1085 1.377 . S
C1101 C1099 1.389 . S
C1101 C1102 1.524 . S
C1102 C1101 1.524 . S
C1102 C1103 1.397 . S
C1102 C1107 1.363 . S
C1103 H1074 0.950 . S
C1103 C1102 1.397 . S
C1103 C1104 1.334 . S
C1104 H1075 0.950 . S
C1104 C1103 1.334 . S
C1104 C1105 1.287 . S
C1105 C1104 1.287 . S
C1105 C1106 1.524 . S
C1105 H1108 0.999 . S
C1106 H1076 0.950 . S
C1106 C1105 1.524 . S
C1106 C1107 1.415 . S
C1107 H1077 0.950 . S
C1107 C1102 1.363 . S
C1107 C1106 1.415 . S
H1108 C1105 0.999 . S
H1109 C1090 0.913 . S
H1110 C1128 0.951 . S
H1111 C1130 0.951 . S
H1112 C1132 0.950 . S
H1113 C1133 0.950 . S
H1114 C1135 0.950 . S
H1115 C1138 0.950 . S
H1116 C1139 0.950 . S
H1117 C1141 0.950 . S
H1118 C1142 0.950 . S
H1119 C1143 0.951 . S
H1120 C1145 0.951 . S
H1121 C1147 0.950 . S
H1122 C1148 0.942 1_455 S
H1123 C1150 0.950 . S
H1124 C1153 0.950 . S
H1125 C1154 0.950 . S
H1126 C1156 0.950 . S
H1127 C1157 0.950 . S
C1128 H1110 0.951 . S
C1128 C1129 1.366 . S
C1128 C1130 1.388 . S
C1129 C1128 1.366 . S
C1129 C1133 1.385 . S
C1130 H1111 0.951 . S
C1130 C1128 1.388 . S
C1130 C1131 1.366 . S
C1131 C1130 1.366 . S
C1131 C1132 1.414 . S
C1131 C1134 1.499 . S
C1132 H1112 0.950 . S
C1132 C1131 1.414 . S
C1132 C1133 1.374 . S
C1133 H1113 0.950 . S
C1133 C1129 1.385 . S
C1133 C1132 1.374 . S
C1134 C1131 1.499 . S
C1134 C1135 1.373 . S
C1134 C1136 1.389 . S
C1135 H1114 0.950 . S
C1135 C1134 1.373 . S
C1135 C1151 1.377 . S
C1136 C1134 1.389 . S
C1136 C1137 1.524 . S
C1136 C1150 1.377 . S
C1137 C1136 1.524 . S
C1137 C1138 1.397 . S
C1137 C1142 1.363 . S
C1138 H1115 0.950 . S
C1138 C1137 1.397 . S
C1138 C1139 1.334 . S
C1139 H1116 0.950 . S
C1139 C1138 1.334 . S
C1139 C1140 1.287 . S
C1140 C1139 1.287 . S
C1140 C1141 1.524 . S
C1140 H1159 0.913 . S
C1141 H1117 0.950 . S
C1141 C1140 1.524 . S
C1141 C1142 1.415 . S
C1142 H1118 0.950 . S
C1142 C1137 1.363 . S
C1142 C1141 1.415 . S
C1143 H1119 0.951 . S
C1143 C1144 1.366 . S
C1143 C1145 1.388 . S
C1144 C1143 1.366 . S
C1144 C1148 1.385 . S
C1145 H1120 0.951 . S
C1145 C1143 1.388 . S
C1145 C1146 1.366 . S
C1146 C1145 1.366 . S
C1146 C1147 1.414 . S
C1146 C1149 1.499 . S
C1147 H1121 0.950 . S
C1147 C1146 1.414 . S
C1147 C1148 1.374 . S
C1148 H1122 0.942 1_655 S
C1148 C1144 1.385 . S
C1148 C1147 1.374 . S
C1149 C1146 1.499 . S
C1149 C1150 1.373 . S
C1149 C1151 1.389 . S
C1150 H1123 0.950 . S
C1150 C1136 1.377 . S
C1150 C1149 1.373 . S
C1151 C1135 1.377 . S
C1151 C1149 1.389 . S
C1151 C1152 1.524 . S
C1152 C1151 1.524 . S
C1152 C1153 1.397 1_655 S
C1152 C1157 1.363 . S
C1153 H1124 0.950 . S
C1153 C1152 1.397 1_455 S
C1153 C1154 1.334 . S
C1154 H1125 0.950 . S
C1154 C1153 1.334 . S
C1154 C1155 1.287 . S
C1155 C1154 1.287 . S
C1155 C1156 1.524 . S
C1155 H1158 0.999 . S
C1156 H1126 0.950 . S
C1156 C1155 1.524 . S
C1156 C1157 1.415 1_455 S
C1157 H1127 0.950 . S
C1157 C1152 1.363 . S
C1157 C1156 1.415 1_655 S
H1158 C1155 0.999 . S
H1159 C1140 0.913 . S
H1160 C1178 0.951 . S
H1161 C1180 0.951 . S
H1162 C1182 0.950 . S
H1163 C1183 0.950 . S
H1164 C1185 0.950 . S
H1165 C1188 0.950 . S
H1166 C1189 0.950 . S
H1167 C1191 0.950 . S
H1168 C1192 0.950 . S
H1169 C1193 0.951 . S
H1170 C1195 0.951 . S
H1171 C1197 0.950 . S
H1172 C1198 0.950 . S
H1173 C1200 0.950 . S
H1174 C1203 0.950 1_565 S
H1175 C1204 0.950 . S
H1176 C1206 0.950 . S
H1177 C1207 0.950 1_565 S
C1178 H1160 0.951 . S
C1178 C1179 1.366 . S
C1178 C1180 1.388 . S
C1179 C1178 1.366 . S
C1179 C1183 1.385 . S
C1180 H1161 0.951 . S
C1180 C1178 1.388 . S
C1180 C1181 1.366 . S
C1181 C1180 1.366 . S
C1181 C1182 1.414 . S
C1181 C1184 1.499 . S
C1182 H1162 0.950 . S
C1182 C1181 1.414 . S
C1182 C1183 1.374 . S
C1183 H1163 0.950 . S
C1183 C1179 1.385 . S
C1183 C1182 1.374 . S
C1184 C1181 1.499 . S
C1184 C1185 1.373 . S
C1184 C1186 1.389 . S
C1185 H1164 0.950 . S
C1185 C1184 1.373 . S
C1185 C1201 1.377 . S
C1186 C1184 1.389 . S
C1186 C1187 1.524 . S
C1186 C1200 1.377 . S
C1187 C1186 1.524 . S
C1187 C1188 1.397 . S
C1187 C1192 1.363 . S
C1188 H1165 0.950 . S
C1188 C1187 1.397 . S
C1188 C1189 1.334 . S
C1189 H1166 0.950 . S
C1189 C1188 1.334 . S
C1189 C1190 1.287 . S
C1190 C1189 1.287 . S
C1190 C1191 1.524 . S
C1190 H1209 0.913 . S
C1191 H1167 0.950 . S
C1191 C1190 1.524 . S
C1191 C1192 1.415 . S
C1192 H1168 0.950 . S
C1192 C1187 1.363 . S
C1192 C1191 1.415 . S
C1193 H1169 0.951 . S
C1193 C1194 1.366 . S
C1193 C1195 1.388 . S
C1194 C1193 1.366 . S
C1194 C1198 1.385 . S
C1195 H1170 0.951 . S
C1195 C1193 1.388 . S
C1195 C1196 1.366 1_545 S
C1196 C1195 1.366 1_565 S
C1196 C1197 1.414 . S
C1196 C1199 1.499 . S
C1197 H1171 0.950 . S
C1197 C1196 1.414 . S
C1197 C1198 1.374 1_565 S
C1198 H1172 0.950 . S
C1198 C1194 1.385 . S
C1198 C1197 1.374 1_545 S
C1199 C1196 1.499 . S
C1199 C1200 1.373 . S
C1199 C1201 1.389 . S
C1200 H1173 0.950 . S
C1200 C1186 1.377 . S
C1200 C1199 1.373 . S
C1201 C1185 1.377 . S
C1201 C1199 1.389 . S
C1201 C1202 1.524 . S
C1202 C1201 1.524 . S
C1202 C1203 1.397 1_565 S
C1202 C1207 1.363 1_565 S
C1203 H1174 0.950 1_545 S
C1203 C1202 1.397 1_545 S
C1203 C1204 1.334 . S
C1204 H1175 0.950 . S
C1204 C1203 1.334 . S
C1204 C1205 1.287 . S
C1205 C1204 1.287 . S
C1205 C1206 1.524 . S
C1205 H1208 0.999 . S
C1206 H1176 0.950 . S
C1206 C1205 1.524 . S
C1206 C1207 1.415 . S
C1207 H1177 0.950 1_545 S
C1207 C1202 1.363 1_545 S
C1207 C1206 1.415 . S
H1208 C1205 0.999 . S
H1209 C1190 0.913 . S
H1210 C1228 0.951 . S
H1211 C1230 0.951 . S
H1212 C1232 0.950 . S
H1213 C1233 0.950 . S
H1214 C1235 0.950 . S
H1215 C1238 0.950 . S
H1216 C1239 0.950 . S
H1217 C1241 0.950 . S
H1218 C1242 0.950 . S
H1219 C1243 0.951 . S
H1220 C1245 0.951 . S
H1221 C1247 0.950 . S
H1222 C1248 0.950 . S
H1223 C1250 0.950 . S
H1224 C1253 0.950 . S
H1225 C1254 0.950 . S
H1226 C1256 0.950 . S
H1227 C1257 0.950 . S
C1228 H1210 0.951 . S
C1228 C1229 1.366 . S
C1228 C1230 1.388 . S
C1229 C1228 1.366 . S
C1229 C1233 1.385 . S
C1230 H1211 0.951 . S
C1230 C1228 1.388 . S
C1230 C1231 1.366 . S
C1231 C1230 1.366 . S
C1231 C1232 1.414 . S
C1231 C1234 1.499 . S
C1232 H1212 0.950 . S
C1232 C1231 1.414 . S
C1232 C1233 1.374 . S
C1233 H1213 0.950 . S
C1233 C1229 1.385 . S
C1233 C1232 1.374 . S
C1234 C1231 1.499 . S
C1234 C1235 1.373 . S
C1234 C1236 1.389 . S
C1235 H1214 0.950 . S
C1235 C1234 1.373 . S
C1235 C1251 1.377 . S
C1236 C1234 1.389 . S
C1236 C1237 1.524 . S
C1236 C1250 1.377 . S
C1237 C1236 1.524 . S
C1237 C1238 1.397 . S
C1237 C1242 1.363 . S
C1238 H1215 0.950 . S
C1238 C1237 1.397 . S
C1238 C1239 1.334 . S
C1239 H1216 0.950 . S
C1239 C1238 1.334 . S
C1239 C1240 1.287 . S
C1240 C1239 1.287 . S
C1240 C1241 1.524 . S
C1240 H1259 0.913 . S
C1241 H1217 0.950 . S
C1241 C1240 1.524 . S
C1241 C1242 1.415 . S
C1242 H1218 0.950 . S
C1242 C1237 1.363 . S
C1242 C1241 1.415 . S
C1243 H1219 0.951 . S
C1243 C1244 1.366 . S
C1243 C1245 1.388 . S
C1244 C1243 1.366 . S
C1244 C1248 1.385 . S
C1245 H1220 0.951 . S
C1245 C1243 1.388 . S
C1245 C1246 1.366 . S
C1246 C1245 1.366 . S
C1246 C1247 1.414 . S
C1246 C1249 1.499 . S
C1247 H1221 0.950 . S
C1247 C1246 1.414 . S
C1247 C1248 1.374 . S
C1248 H1222 0.950 . S
C1248 C1244 1.385 . S
C1248 C1247 1.374 . S
C1249 C1246 1.499 . S
C1249 C1250 1.373 . S
C1249 C1251 1.389 . S
C1250 H1223 0.950 . S
C1250 C1236 1.377 . S
C1250 C1249 1.373 . S
C1251 C1235 1.377 . S
C1251 C1249 1.389 . S
C1251 C1252 1.524 . S
C1252 C1251 1.524 . S
C1252 C1253 1.397 . S
C1252 C1257 1.363 . S
C1253 H1224 0.950 . S
C1253 C1252 1.397 . S
C1253 C1254 1.334 . S
C1254 H1225 0.950 . S
C1254 C1253 1.334 . S
C1254 C1255 1.287 . S
C1255 C1254 1.287 . S
C1255 C1256 1.524 . S
C1255 H1258 0.999 . S
C1256 H1226 0.950 . S
C1256 C1255 1.524 . S
C1256 C1257 1.415 . S
C1257 H1227 0.950 . S
C1257 C1252 1.363 . S
C1257 C1256 1.415 . S
H1258 C1255 0.999 . S
H1259 C1240 0.913 . S
H1260 C1278 0.951 . S
H1261 C1280 0.951 . S
H1262 C1282 0.950 . S
H1263 C1283 0.950 . S
H1264 C1285 0.950 1_554 S
H1265 C1288 0.950 . S
H1266 C1289 0.950 . S
H1267 C1291 0.950 1_565 S
H1268 C1292 0.950 1_565 S
H1269 C1293 0.951 . S
H1270 C1295 0.975 . S
H1271 C1297 0.950 1_556 S
H1272 C1298 0.950 . S
H1273 C1300 0.950 1_565 S
H1274 C1303 0.950 1_565 S
H1275 C1304 0.950 1_565 S
H1276 C1306 0.950 . S
H1277 C1307 0.950 . S
C1278 H1260 0.951 . S
C1278 C1279 1.366 . S
C1278 C1280 1.388 . S
C1279 C1278 1.366 . S
C1279 C1283 1.385 . S
C1280 H1261 0.951 . S
C1280 C1278 1.388 . S
C1280 C1281 1.366 . S
C1281 C1280 1.366 . S
C1281 C1282 1.414 . S
C1281 C1284 1.499 . S
C1282 H1262 0.950 . S
C1282 C1281 1.414 . S
C1282 C1283 1.374 . S
C1283 H1263 0.950 . S
C1283 C1279 1.385 . S
C1283 C1282 1.374 . S
C1284 C1281 1.499 . S
C1284 C1285 1.373 . S
C1284 C1286 1.389 . S
C1285 H1264 0.950 1_556 S
C1285 C1284 1.373 . S
C1285 C1301 1.377 1_556 S
C1286 C1284 1.389 . S
C1286 C1287 1.524 . S
C1286 C1300 1.377 . S
C1287 C1286 1.524 . S
C1287 C1288 1.397 . S
C1287 C1292 1.363 . S
C1288 H1265 0.950 . S
C1288 C1287 1.397 . S
C1288 C1289 1.334 . S
C1289 H1266 0.950 . S
C1289 C1288 1.334 . S
C1289 C1290 1.287 . S
C1290 C1289 1.287 . S
C1290 C1291 1.524 . S
C1290 H1309 0.913 . S
C1291 H1267 0.950 1_545 S
C1291 C1290 1.524 . S
C1291 C1292 1.415 . S
C1292 H1268 0.950 1_545 S
C1292 C1287 1.363 . S
C1292 C1291 1.415 . S
C1293 H1269 0.951 . S
C1293 C1294 1.366 . S
C1293 C1295 1.371 1_565 S
C1294 C1293 1.366 . S
C1294 C1298 1.385 . S
C1295 H1270 0.975 . S
C1295 C1293 1.371 1_545 S
C1295 C1296 1.358 1_545 S
C1296 C1295 1.358 1_565 S
C1296 C1297 1.414 . S
C1296 C1299 1.499 1_564 S
C1297 H1271 0.950 1_554 S
C1297 C1296 1.414 . S
C1297 C1298 1.374 . S
C1298 H1272 0.950 . S
C1298 C1294 1.385 . S
C1298 C1297 1.374 . S
C1299 C1296 1.499 1_546 S
C1299 C1300 1.373 . S
C1299 C1301 1.389 1_556 S
C1300 H1273 0.950 1_545 S
C1300 C1286 1.377 . S
C1300 C1299 1.373 . S
C1301 C1285 1.377 1_554 S
C1301 C1299 1.389 1_554 S
C1301 C1302 1.524 . S
C1302 C1301 1.524 . S
C1302 C1303 1.397 . S
C1302 C1307 1.363 . S
C1303 H1274 0.950 1_545 S
C1303 C1302 1.397 . S
C1303 C1304 1.334 . S
C1304 H1275 0.950 1_545 S
C1304 C1303 1.334 . S
C1304 C1305 1.287 . S
C1305 C1304 1.287 . S
C1305 C1306 1.524 . S
C1305 H1308 0.999 . S
C1306 H1276 0.950 . S
C1306 C1305 1.524 . S
C1306 C1307 1.415 . S
C1307 H1277 0.950 . S
C1307 C1302 1.363 . S
C1307 C1306 1.415 . S
H1308 C1305 0.999 . S
H1309 C1290 0.913 . S
H1310 C1328 0.951 . S
H1311 C1330 0.951 . S
H1312 C1332 0.950 . S
H1313 C1333 0.950 . S
H1314 C1335 0.950 . S
H1315 C1338 0.950 . S
H1316 C1339 0.950 . S
H1317 C1341 0.950 . S
H1318 C1342 0.950 . S
H1319 C1343 0.951 . S
H1320 C1345 0.951 . S
H1321 C1347 0.950 . S
H1322 C1348 0.950 . S
H1323 C1350 0.950 . S
H1324 C1353 0.950 . S
H1325 C1354 0.950 . S
H1326 C1356 0.950 . S
H1327 C1357 0.950 . S
C1328 H1310 0.951 . S
C1328 C1329 1.366 . S
C1328 C1330 1.388 . S
C1329 C1328 1.366 . S
C1329 C1333 1.385 . S
C1330 H1311 0.951 . S
C1330 C1328 1.388 . S
C1330 C1331 1.366 . S
C1331 C1330 1.366 . S
C1331 C1332 1.414 . S
C1331 C1334 1.499 . S
C1332 H1312 0.950 . S
C1332 C1331 1.414 . S
C1332 C1333 1.374 . S
C1333 H1313 0.950 . S
C1333 C1329 1.385 . S
C1333 C1332 1.374 . S
C1334 C1331 1.499 . S
C1334 C1335 1.373 . S
C1334 C1336 1.389 . S
C1335 H1314 0.950 . S
C1335 C1334 1.373 . S
C1335 C1351 1.377 . S
C1336 C1334 1.389 . S
C1336 C1337 1.524 . S
C1336 C1350 1.377 . S
C1337 C1336 1.524 . S
C1337 C1338 1.397 . S
C1337 C1342 1.363 . S
C1338 H1315 0.950 . S
C1338 C1337 1.397 . S
C1338 C1339 1.334 . S
C1339 H1316 0.950 . S
C1339 C1338 1.334 . S
C1339 C1340 1.287 . S
C1340 C1339 1.287 . S
C1340 C1341 1.524 . S
C1340 H1359 0.913 . S
C1341 H1317 0.950 . S
C1341 C1340 1.524 . S
C1341 C1342 1.415 . S
C1342 H1318 0.950 . S
C1342 C1337 1.363 . S
C1342 C1341 1.415 . S
C1343 H1319 0.951 . S
C1343 C1344 1.366 . S
C1343 C1345 1.388 . S
C1344 C1343 1.366 . S
C1344 C1348 1.385 . S
C1345 H1320 0.951 . S
C1345 C1343 1.388 . S
C1345 C1346 1.366 . S
C1346 C1345 1.366 . S
C1346 C1347 1.414 . S
C1346 C1349 1.499 . S
C1347 H1321 0.950 . S
C1347 C1346 1.414 . S
C1347 C1348 1.374 . S
C1348 H1322 0.950 . S
C1348 C1344 1.385 . S
C1348 C1347 1.374 . S
C1349 C1346 1.499 . S
C1349 C1350 1.373 . S
C1349 C1351 1.389 . S
C1350 H1323 0.950 . S
C1350 C1336 1.377 . S
C1350 C1349 1.373 . S
C1351 C1335 1.377 . S
C1351 C1349 1.389 . S
C1351 C1352 1.524 . S
C1352 C1351 1.524 . S
C1352 C1353 1.397 . S
C1352 C1357 1.363 . S
C1353 H1324 0.950 . S
C1353 C1352 1.397 . S
C1353 C1354 1.334 . S
C1354 H1325 0.950 . S
C1354 C1353 1.334 . S
C1354 C1355 1.287 . S
C1355 C1354 1.287 . S
C1355 C1356 1.524 . S
C1355 H1358 0.999 . S
C1356 H1326 0.950 . S
C1356 C1355 1.524 . S
C1356 C1357 1.415 . S
C1357 H1327 0.950 . S
C1357 C1352 1.363 . S
C1357 C1356 1.415 . S
H1358 C1355 0.999 . S
H1359 C1340 0.913 . S
H1360 C1378 0.968 . S
H1361 C1380 0.951 . S
H1362 C1382 0.950 . S
H1363 C1383 0.950 . S
H1364 C1385 0.950 . S
H1365 C1388 0.950 . S
H1366 C1389 0.950 . S
H1367 C1391 0.950 . S
H1368 C1392 0.950 . S
H1369 C1393 0.951 . S
H1370 C1395 0.951 . S
H1371 C1397 0.950 . S
H1372 C1398 0.950 . S
H1373 C1400 0.950 . S
H1374 C1403 0.950 . S
H1375 C1404 0.950 . S
H1376 C1406 0.950 . S
H1377 C1407 0.950 . S
C1378 H1360 0.968 . S
C1378 C1379 1.366 . S
C1378 C1380 1.372 1_565 S
C1379 C1378 1.366 . S
C1379 C1383 1.385 1_565 S
C1380 H1361 0.951 . S
C1380 C1378 1.372 1_545 S
C1380 C1381 1.366 . S
C1381 C1380 1.366 . S
C1381 C1382 1.414 . S
C1381 C1384 1.499 . S
C1382 H1362 0.950 . S
C1382 C1381 1.414 . S
C1382 C1383 1.374 . S
C1383 H1363 0.950 . S
C1383 C1379 1.385 1_545 S
C1383 C1382 1.374 . S
C1384 C1381 1.499 . S
C1384 C1385 1.373 . S
C1384 C1386 1.389 . S
C1385 H1364 0.950 . S
C1385 C1384 1.373 . S
C1385 C1401 1.377 . S
C1386 C1384 1.389 . S
C1386 C1387 1.524 . S
C1386 C1400 1.377 . S
C1387 C1386 1.524 . S
C1387 C1388 1.397 . S
C1387 C1392 1.363 . S
C1388 H1365 0.950 . S
C1388 C1387 1.397 . S
C1388 C1389 1.334 . S
C1389 H1366 0.950 . S
C1389 C1388 1.334 . S
C1389 C1390 1.287 . S
C1390 C1389 1.287 . S
C1390 C1391 1.524 . S
C1390 H1409 0.913 . S
C1391 H1367 0.950 . S
C1391 C1390 1.524 . S
C1391 C1392 1.415 . S
C1392 H1368 0.950 . S
C1392 C1387 1.363 . S
C1392 C1391 1.415 . S
C1393 H1369 0.951 . S
C1393 C1394 1.366 . S
C1393 C1395 1.388 . S
C1394 C1393 1.366 . S
C1394 C1398 1.385 . S
C1395 H1370 0.951 . S
C1395 C1393 1.388 . S
C1395 C1396 1.366 . S
C1396 C1395 1.366 . S
C1396 C1397 1.414 . S
C1396 C1399 1.499 . S
C1397 H1371 0.950 . S
C1397 C1396 1.414 . S
C1397 C1398 1.374 . S
C1398 H1372 0.950 . S
C1398 C1394 1.385 . S
C1398 C1397 1.374 . S
C1399 C1396 1.499 . S
C1399 C1400 1.373 . S
C1399 C1401 1.389 . S
C1400 H1373 0.950 . S
C1400 C1386 1.377 . S
C1400 C1399 1.373 . S
C1401 C1385 1.377 . S
C1401 C1399 1.389 . S
C1401 C1402 1.524 . S
C1402 C1401 1.524 . S
C1402 C1403 1.397 . S
C1402 C1407 1.363 . S
C1403 H1374 0.950 . S
C1403 C1402 1.397 . S
C1403 C1404 1.334 . S
C1404 H1375 0.950 . S
C1404 C1403 1.334 . S
C1404 C1405 1.287 . S
C1405 C1404 1.287 . S
C1405 C1406 1.524 . S
C1405 H1408 0.999 . S
C1406 H1376 0.950 . S
C1406 C1405 1.524 . S
C1406 C1407 1.415 . S
C1407 H1377 0.950 . S
C1407 C1402 1.363 . S
C1407 C1406 1.415 . S
H1408 C1405 0.999 . S
H1409 C1390 0.913 . S
H1410 C1428 0.951 . S
H1411 C1430 0.951 . S
H1412 C1432 0.950 . S
H1413 C1433 0.950 . S
H1414 C1435 0.950 . S
H1415 C1438 0.950 . S
H1416 C1439 0.950 . S
H1417 C1441 0.950 . S
H1418 C1442 0.950 . S
H1419 C1443 0.951 . S
H1420 C1445 0.951 . S
H1421 C1447 0.950 . S
H1422 C1448 0.950 . S
H1423 C1450 0.950 . S
H1424 C1453 0.950 . S
H1425 C1454 0.950 . S
H1426 C1456 0.950 . S
H1427 C1457 0.950 . S
C1428 H1410 0.951 . S
C1428 C1429 1.366 . S
C1428 C1430 1.388 . S
C1429 C1428 1.366 . S
C1429 C1433 1.385 . S
C1430 H1411 0.951 . S
C1430 C1428 1.388 . S
C1430 C1431 1.366 . S
C1431 C1430 1.366 . S
C1431 C1432 1.414 . S
C1431 C1434 1.499 . S
C1432 H1412 0.950 . S
C1432 C1431 1.414 . S
C1432 C1433 1.374 . S
C1433 H1413 0.950 . S
C1433 C1429 1.385 . S
C1433 C1432 1.374 . S
C1434 C1431 1.499 . S
C1434 C1435 1.373 . S
C1434 C1436 1.389 . S
C1435 H1414 0.950 . S
C1435 C1434 1.373 . S
C1435 C1451 1.377 . S
C1436 C1434 1.389 . S
C1436 C1437 1.524 . S
C1436 C1450 1.377 . S
C1437 C1436 1.524 . S
C1437 C1438 1.397 . S
C1437 C1442 1.363 . S
C1438 H1415 0.950 . S
C1438 C1437 1.397 . S
C1438 C1439 1.334 . S
C1439 H1416 0.950 . S
C1439 C1438 1.334 . S
C1439 C1440 1.287 . S
C1440 C1439 1.287 . S
C1440 C1441 1.524 . S
C1440 H1459 0.913 . S
C1441 H1417 0.950 . S
C1441 C1440 1.524 . S
C1441 C1442 1.415 . S
C1442 H1418 0.950 . S
C1442 C1437 1.363 . S
C1442 C1441 1.415 . S
C1443 H1419 0.951 . S
C1443 C1444 1.366 . S
C1443 C1445 1.388 . S
C1444 C1443 1.366 . S
C1444 C1448 1.385 . S
C1445 H1420 0.951 . S
C1445 C1443 1.388 . S
C1445 C1446 1.366 . S
C1446 C1445 1.366 . S
C1446 C1447 1.414 . S
C1446 C1449 1.499 . S
C1447 H1421 0.950 . S
C1447 C1446 1.414 . S
C1447 C1448 1.374 . S
C1448 H1422 0.950 . S
C1448 C1444 1.385 . S
C1448 C1447 1.374 . S
C1449 C1446 1.499 . S
C1449 C1450 1.373 . S
C1449 C1451 1.389 . S
C1450 H1423 0.950 . S
C1450 C1436 1.377 . S
C1450 C1449 1.373 . S
C1451 C1435 1.377 . S
C1451 C1449 1.389 . S
C1451 C1452 1.524 . S
C1452 C1451 1.524 . S
C1452 C1453 1.397 . S
C1452 C1457 1.363 . S
C1453 H1424 0.950 . S
C1453 C1452 1.397 . S
C1453 C1454 1.334 . S
C1454 H1425 0.950 . S
C1454 C1453 1.334 . S
C1454 C1455 1.287 . S
C1455 C1454 1.287 . S
C1455 C1456 1.524 . S
C1455 H1458 0.999 . S
C1456 H1426 0.950 . S
C1456 C1455 1.524 . S
C1456 C1457 1.415 . S
C1457 H1427 0.950 . S
C1457 C1452 1.363 . S
C1457 C1456 1.415 . S
H1458 C1455 0.999 . S
H1459 C1440 0.913 . S
H1460 C1478 0.951 . S
H1461 C1480 0.951 . S
H1462 C1482 0.950 . S
H1463 C1483 0.950 . S
H1464 C1485 0.950 . S
H1465 C1488 0.950 . S
H1466 C1489 0.950 . S
H1467 C1491 0.950 . S
H1468 C1492 0.950 . S
H1469 C1493 0.951 . S
H1470 C1495 0.951 . S
H1471 C1497 0.950 . S
H1472 C1498 0.950 . S
H1473 C1500 0.950 . S
H1474 C1503 0.950 . S
H1475 C1504 0.950 . S
H1476 C1506 0.950 . S
H1477 C1507 0.950 . S
C1478 H1460 0.951 . S
C1478 C1479 1.366 . S
C1478 C1480 1.388 . S
C1479 C1478 1.366 . S
C1479 C1483 1.385 . S
C1480 H1461 0.951 . S
C1480 C1478 1.388 . S
C1480 C1481 1.366 1_565 S
C1481 C1480 1.366 1_545 S
C1481 C1482 1.414 . S
C1481 C1484 1.499 . S
C1482 H1462 0.950 . S
C1482 C1481 1.414 . S
C1482 C1483 1.374 1_545 S
C1483 H1463 0.950 . S
C1483 C1479 1.385 . S
C1483 C1482 1.374 1_565 S
C1484 C1481 1.499 . S
C1484 C1485 1.373 . S
C1484 C1486 1.389 . S
C1485 H1464 0.950 . S
C1485 C1484 1.373 . S
C1485 C1501 1.377 . S
C1486 C1484 1.389 . S
C1486 C1487 1.524 . S
C1486 C1500 1.377 . S
C1487 C1486 1.524 . S
C1487 C1488 1.397 . S
C1487 C1492 1.363 . S
C1488 H1465 0.950 . S
C1488 C1487 1.397 . S
C1488 C1489 1.334 1_545 S
C1489 H1466 0.950 . S
C1489 C1488 1.334 1_565 S
C1489 C1490 1.287 . S
C1490 C1489 1.287 . S
C1490 C1491 1.524 . S
C1490 H1509 0.913 . S
C1491 H1467 0.950 . S
C1491 C1490 1.524 . S
C1491 C1492 1.415 1_565 S
C1492 H1468 0.950 . S
C1492 C1487 1.363 . S
C1492 C1491 1.415 1_545 S
C1493 H1469 0.951 . S
C1493 C1494 1.366 . S
C1493 C1495 1.388 . S
C1494 C1493 1.366 . S
C1494 C1498 1.385 . S
C1495 H1470 0.951 . S
C1495 C1493 1.388 . S
C1495 C1496 1.366 . S
C1496 C1495 1.366 . S
C1496 C1497 1.414 . S
C1496 C1499 1.499 . S
C1497 H1471 0.950 . S
C1497 C1496 1.414 . S
C1497 C1498 1.374 . S
C1498 H1472 0.950 . S
C1498 C1494 1.385 . S
C1498 C1497 1.374 . S
C1499 C1496 1.499 . S
C1499 C1500 1.373 . S
C1499 C1501 1.389 . S
C1500 H1473 0.950 . S
C1500 C1486 1.377 . S
C1500 C1499 1.373 . S
C1501 C1485 1.377 . S
C1501 C1499 1.389 . S
C1501 C1502 1.524 . S
C1502 C1501 1.524 . S
C1502 C1503 1.397 . S
C1502 C1507 1.363 . S
C1503 H1474 0.950 . S
C1503 C1502 1.397 . S
C1503 C1504 1.334 . S
C1504 H1475 0.950 . S
C1504 C1503 1.334 . S
C1504 C1505 1.287 . S
C1505 C1504 1.287 . S
C1505 C1506 1.524 . S
C1505 H1508 0.999 . S
C1506 H1476 0.950 . S
C1506 C1505 1.524 . S
C1506 C1507 1.415 . S
C1507 H1477 0.950 . S
C1507 C1502 1.363 . S
C1507 C1506 1.415 . S
H1508 C1505 0.999 . S
H1509 C1490 0.913 . S
H1510 C1528 0.951 . S
H1511 C1530 0.951 . S
H1512 C1532 0.950 . S
H1513 C1533 0.950 . S
H1514 C1535 0.950 . S
H1515 C1538 0.950 . S
H1516 C1539 0.950 . S
H1517 C1541 0.950 . S
H1518 C1542 0.950 . S
H1519 C1543 0.951 . S
H1520 C1545 0.951 . S
H1521 C1547 0.950 . S
H1522 C1548 0.950 . S
H1523 C1550 0.950 . S
H1524 C1553 0.950 . S
H1525 C1554 0.950 . S
H1526 C1556 0.950 . S
H1527 C1557 0.950 . S
C1528 H1510 0.951 . S
C1528 C1529 1.366 . S
C1528 C1530 1.388 . S
C1529 C1528 1.366 . S
C1529 C1533 1.385 . S
C1530 H1511 0.951 . S
C1530 C1528 1.388 . S
C1530 C1531 1.366 . S
C1531 C1530 1.366 . S
C1531 C1532 1.414 . S
C1531 C1534 1.499 . S
C1532 H1512 0.950 . S
C1532 C1531 1.414 . S
C1532 C1533 1.374 . S
C1533 H1513 0.950 . S
C1533 C1529 1.385 . S
C1533 C1532 1.374 . S
C1534 C1531 1.499 . S
C1534 C1535 1.373 . S
C1534 C1536 1.389 . S
C1535 H1514 0.950 . S
C1535 C1534 1.373 . S
C1535 C1551 1.377 . S
C1536 C1534 1.389 . S
C1536 C1537 1.524 . S
C1536 C1550 1.377 . S
C1537 C1536 1.524 . S
C1537 C1538 1.397 . S
C1537 C1542 1.363 . S
C1538 H1515 0.950 . S
C1538 C1537 1.397 . S
C1538 C1539 1.334 . S
C1539 H1516 0.950 . S
C1539 C1538 1.334 . S
C1539 C1540 1.287 . S
C1540 C1539 1.287 . S
C1540 C1541 1.524 . S
C1540 H1559 0.913 . S
C1541 H1517 0.950 . S
C1541 C1540 1.524 . S
C1541 C1542 1.415 . S
C1542 H1518 0.950 . S
C1542 C1537 1.363 . S
C1542 C1541 1.415 . S
C1543 H1519 0.951 . S
C1543 C1544 1.366 . S
C1543 C1545 1.388 . S
C1544 C1543 1.366 . S
C1544 C1548 1.385 . S
C1545 H1520 0.951 . S
C1545 C1543 1.388 . S
C1545 C1546 1.366 . S
C1546 C1545 1.366 . S
C1546 C1547 1.414 . S
C1546 C1549 1.499 . S
C1547 H1521 0.950 . S
C1547 C1546 1.414 . S
C1547 C1548 1.374 . S
C1548 H1522 0.950 . S
C1548 C1544 1.385 . S
C1548 C1547 1.374 . S
C1549 C1546 1.499 . S
C1549 C1550 1.373 . S
C1549 C1551 1.389 . S
C1550 H1523 0.950 . S
C1550 C1536 1.377 . S
C1550 C1549 1.373 . S
C1551 C1535 1.377 . S
C1551 C1549 1.389 . S
C1551 C1552 1.524 . S
C1552 C1551 1.524 . S
C1552 C1553 1.397 . S
C1552 C1557 1.363 . S
C1553 H1524 0.950 . S
C1553 C1552 1.397 . S
C1553 C1554 1.334 . S
C1554 H1525 0.950 . S
C1554 C1553 1.334 . S
C1554 C1555 1.287 . S
C1555 C1554 1.287 . S
C1555 C1556 1.524 . S
C1555 H1558 0.999 . S
C1556 H1526 0.950 . S
C1556 C1555 1.524 . S
C1556 C1557 1.415 . S
C1557 H1527 0.950 . S
C1557 C1552 1.363 . S
C1557 C1556 1.415 . S
H1558 C1555 0.999 . S
H1559 C1540 0.913 . S
H1560 C1578 0.951 . S
H1561 C1580 0.951 . S
H1562 C1582 0.950 . S
H1563 C1583 0.950 . S
H1564 C1585 0.950 . S
H1565 C1588 0.950 . S
H1566 C1589 0.950 . S
H1567 C1591 0.950 . S
H1568 C1592 0.950 . S
H1569 C1593 0.951 . S
H1570 C1595 0.951 . S
H1571 C1597 0.950 . S
H1572 C1598 0.950 . S
H1573 C1600 0.950 . S
H1574 C1603 0.950 . S
H1575 C1604 0.950 . S
H1576 C1606 0.950 . S
H1577 C1607 0.950 . S
C1578 H1560 0.951 . S
C1578 C1579 1.366 . S
C1578 C1580 1.388 . S
C1579 C1578 1.366 . S
C1579 C1583 1.385 . S
C1580 H1561 0.951 . S
C1580 C1578 1.388 . S
C1580 C1581 1.366 . S
C1581 C1580 1.366 . S
C1581 C1582 1.414 . S
C1581 C1584 1.499 . S
C1582 H1562 0.950 . S
C1582 C1581 1.414 . S
C1582 C1583 1.374 . S
C1583 H1563 0.950 . S
C1583 C1579 1.385 . S
C1583 C1582 1.374 . S
C1584 C1581 1.499 . S
C1584 C1585 1.373 . S
C1584 C1586 1.389 . S
C1585 H1564 0.950 . S
C1585 C1584 1.373 . S
C1585 C1601 1.377 . S
C1586 C1584 1.389 . S
C1586 C1587 1.524 . S
C1586 C1600 1.377 . S
C1587 C1586 1.524 . S
C1587 C1588 1.397 . S
C1587 C1592 1.363 . S
C1588 H1565 0.950 . S
C1588 C1587 1.397 . S
C1588 C1589 1.334 . S
C1589 H1566 0.950 . S
C1589 C1588 1.334 . S
C1589 C1590 1.287 . S
C1590 C1589 1.287 . S
C1590 C1591 1.524 . S
C1590 H1609 0.913 . S
C1591 H1567 0.950 . S
C1591 C1590 1.524 . S
C1591 C1592 1.415 . S
C1592 H1568 0.950 . S
C1592 C1587 1.363 . S
C1592 C1591 1.415 . S
C1593 H1569 0.951 . S
C1593 C1594 1.366 . S
C1593 C1595 1.388 . S
C1594 C1593 1.366 . S
C1594 C1598 1.385 . S
C1595 H1570 0.951 . S
C1595 C1593 1.388 . S
C1595 C1596 1.366 . S
C1596 C1595 1.366 . S
C1596 C1597 1.414 . S
C1596 C1599 1.499 . S
C1597 H1571 0.950 . S
C1597 C1596 1.414 . S
C1597 C1598 1.374 . S
C1598 H1572 0.950 . S
C1598 C1594 1.385 . S
C1598 C1597 1.374 . S
C1599 C1596 1.499 . S
C1599 C1600 1.373 . S
C1599 C1601 1.389 . S
C1600 H1573 0.950 . S
C1600 C1586 1.377 . S
C1600 C1599 1.373 . S
C1601 C1585 1.377 . S
C1601 C1599 1.389 . S
C1601 C1602 1.524 . S
C1602 C1601 1.524 . S
C1602 C1603 1.397 . S
C1602 C1607 1.363 . S
C1603 H1574 0.950 . S
C1603 C1602 1.397 . S
C1603 C1604 1.334 . S
C1604 H1575 0.950 . S
C1604 C1603 1.334 . S
C1604 C1605 1.287 . S
C1605 C1604 1.287 . S
C1605 C1606 1.524 . S
C1605 H1608 0.999 . S
C1606 H1576 0.950 . S
C1606 C1605 1.524 . S
C1606 C1607 1.415 . S
C1607 H1577 0.950 . S
C1607 C1602 1.363 . S
C1607 C1606 1.415 . S
H1608 C1605 0.999 . S
H1609 C1590 0.913 . S
H1610 C1628 0.951 . S
H1611 C1630 0.951 . S
H1612 C1632 0.950 . S
H1613 C1633 0.950 . S
H1614 C1635 0.950 . S
H1615 C1638 0.950 . S
H1616 C1639 0.950 . S
H1617 C1641 0.950 1_565 S
H1618 C1642 0.950 . S
H1619 C1643 0.951 . S
H1620 C1645 0.951 . S
H1621 C1647 0.950 . S
H1622 C1648 0.950 . S
H1623 C1650 0.950 . S
H1624 C1653 0.950 . S
H1625 C1654 0.950 . S
H1626 C1656 0.950 . S
H1627 C1657 0.950 . S
C1628 H1610 0.951 . S
C1628 C1629 1.366 . S
C1628 C1630 1.388 . S
C1629 C1628 1.366 . S
C1629 C1633 1.385 . S
C1630 H1611 0.951 . S
C1630 C1628 1.388 . S
C1630 C1631 1.366 . S
C1631 C1630 1.366 . S
C1631 C1632 1.414 . S
C1631 C1634 1.499 . S
C1632 H1612 0.950 . S
C1632 C1631 1.414 . S
C1632 C1633 1.374 . S
C1633 H1613 0.950 . S
C1633 C1629 1.385 . S
C1633 C1632 1.374 . S
C1634 C1631 1.499 . S
C1634 C1635 1.373 . S
C1634 C1636 1.389 . S
C1635 H1614 0.950 . S
C1635 C1634 1.373 . S
C1635 C1651 1.377 . S
C1636 C1634 1.389 . S
C1636 C1637 1.524 . S
C1636 C1650 1.377 . S
C1637 C1636 1.524 . S
C1637 C1638 1.397 . S
C1637 C1642 1.363 . S
C1638 H1615 0.950 . S
C1638 C1637 1.397 . S
C1638 C1639 1.334 . S
C1639 H1616 0.950 . S
C1639 C1638 1.334 . S
C1639 C1640 1.287 1_545 S
C1640 C1639 1.287 1_565 S
C1640 C1641 1.524 1_565 S
C1640 H1659 0.913 . S
C1641 H1617 0.950 1_545 S
C1641 C1640 1.524 1_545 S
C1641 C1642 1.415 . S
C1642 H1618 0.950 . S
C1642 C1637 1.363 . S
C1642 C1641 1.415 . S
C1643 H1619 0.951 . S
C1643 C1644 1.366 . S
C1643 C1645 1.388 . S
C1644 C1643 1.366 . S
C1644 C1648 1.385 . S
C1645 H1620 0.951 . S
C1645 C1643 1.388 . S
C1645 C1646 1.366 . S
C1646 C1645 1.366 . S
C1646 C1647 1.414 . S
C1646 C1649 1.499 . S
C1647 H1621 0.950 . S
C1647 C1646 1.414 . S
C1647 C1648 1.374 . S
C1648 H1622 0.950 . S
C1648 C1644 1.385 . S
C1648 C1647 1.374 . S
C1649 C1646 1.499 . S
C1649 C1650 1.373 . S
C1649 C1651 1.389 . S
C1650 H1623 0.950 . S
C1650 C1636 1.377 . S
C1650 C1649 1.373 . S
C1651 C1635 1.377 . S
C1651 C1649 1.389 . S
C1651 C1652 1.524 . S
C1652 C1651 1.524 . S
C1652 C1653 1.397 . S
C1652 C1657 1.363 . S
C1653 H1624 0.950 . S
C1653 C1652 1.397 . S
C1653 C1654 1.334 . S
C1654 H1625 0.950 . S
C1654 C1653 1.334 . S
C1654 C1655 1.287 . S
C1655 C1654 1.287 . S
C1655 C1656 1.524 . S
C1655 H1658 0.999 . S
C1656 H1626 0.950 . S
C1656 C1655 1.524 . S
C1656 C1657 1.415 . S
C1657 H1627 0.950 . S
C1657 C1652 1.363 . S
C1657 C1656 1.415 . S
H1658 C1655 0.999 . S
H1659 C1640 0.913 . S
H1660 C1678 0.951 . S
H1661 C1680 0.951 . S
H1662 C1682 0.950 . S
H1663 C1683 0.950 . S
H1664 C1685 0.950 . S
H1665 C1688 0.950 . S
H1666 C1689 0.950 . S
H1667 C1691 0.950 . S
H1668 C1692 0.950 . S
H1669 C1693 0.951 . S
H1670 C1695 0.951 . S
H1671 C1697 0.950 . S
H1672 C1698 0.950 . S
H1673 C1700 0.950 . S
H1674 C1703 0.950 . S
H1675 C1704 0.950 . S
H1676 C1706 0.950 . S
H1677 C1707 0.950 . S
C1678 H1660 0.951 . S
C1678 C1679 1.366 . S
C1678 C1680 1.388 . S
C1679 C1678 1.366 . S
C1679 C1683 1.385 . S
C1680 H1661 0.951 . S
C1680 C1678 1.388 . S
C1680 C1681 1.366 . S
C1681 C1680 1.366 . S
C1681 C1682 1.414 . S
C1681 C1684 1.499 . S
C1682 H1662 0.950 . S
C1682 C1681 1.414 . S
C1682 C1683 1.374 . S
C1683 H1663 0.950 . S
C1683 C1679 1.385 . S
C1683 C1682 1.374 . S
C1684 C1681 1.499 . S
C1684 C1685 1.373 . S
C1684 C1686 1.389 . S
C1685 H1664 0.950 . S
C1685 C1684 1.373 . S
C1685 C1701 1.377 . S
C1686 C1684 1.389 . S
C1686 C1687 1.524 . S
C1686 C1700 1.377 . S
C1687 C1686 1.524 . S
C1687 C1688 1.397 . S
C1687 C1692 1.363 . S
C1688 H1665 0.950 . S
C1688 C1687 1.397 . S
C1688 C1689 1.334 . S
C1689 H1666 0.950 . S
C1689 C1688 1.334 . S
C1689 C1690 1.287 . S
C1690 C1689 1.287 . S
C1690 C1691 1.524 . S
C1690 H1709 0.913 . S
C1691 H1667 0.950 . S
C1691 C1690 1.524 . S
C1691 C1692 1.415 . S
C1692 H1668 0.950 . S
C1692 C1687 1.363 . S
C1692 C1691 1.415 . S
C1693 H1669 0.951 . S
C1693 C1694 1.366 . S
C1693 C1695 1.388 . S
C1694 C1693 1.366 . S
C1694 C1698 1.385 . S
C1695 H1670 0.951 . S
C1695 C1693 1.388 . S
C1695 C1696 1.366 . S
C1696 C1695 1.366 . S
C1696 C1697 1.414 . S
C1696 C1699 1.499 . S
C1697 H1671 0.950 . S
C1697 C1696 1.414 . S
C1697 C1698 1.374 . S
C1698 H1672 0.950 . S
C1698 C1694 1.385 . S
C1698 C1697 1.374 . S
C1699 C1696 1.499 . S
C1699 C1700 1.373 . S
C1699 C1701 1.389 . S
C1700 H1673 0.950 . S
C1700 C1686 1.377 . S
C1700 C1699 1.373 . S
C1701 C1685 1.377 . S
C1701 C1699 1.389 . S
C1701 C1702 1.524 . S
C1702 C1701 1.524 . S
C1702 C1703 1.397 . S
C1702 C1707 1.363 . S
C1703 H1674 0.950 . S
C1703 C1702 1.397 . S
C1703 C1704 1.334 . S
C1704 H1675 0.950 . S
C1704 C1703 1.334 . S
C1704 C1705 1.287 . S
C1705 C1704 1.287 . S
C1705 C1706 1.524 . S
C1705 H1708 0.999 . S
C1706 H1676 0.950 . S
C1706 C1705 1.524 . S
C1706 C1707 1.415 . S
C1707 H1677 0.950 . S
C1707 C1702 1.363 . S
C1707 C1706 1.415 . S
H1708 C1705 0.999 . S
H1709 C1690 0.913 . S
H1710 C1728 0.951 . S
H1711 C1730 0.951 . S
H1712 C1732 0.950 . S
H1713 C1733 0.950 . S
H1714 C1735 0.950 . S
H1715 C1738 0.950 . S
H1716 C1739 0.950 . S
H1717 C1741 0.950 . S
H1718 C1742 0.950 . S
H1719 C1743 0.951 . S
H1720 C1745 0.951 . S
H1721 C1747 0.950 . S
H1722 C1748 0.950 . S
H1723 C1750 0.950 . S
H1724 C1753 0.950 . S
H1725 C1754 0.950 . S
H1726 C1756 0.950 . S
H1727 C1757 0.950 . S
C1728 H1710 0.951 . S
C1728 C1729 1.366 . S
C1728 C1730 1.388 . S
C1729 C1728 1.366 . S
C1729 C1733 1.385 . S
C1730 H1711 0.951 . S
C1730 C1728 1.388 . S
C1730 C1731 1.366 . S
C1731 C1730 1.366 . S
C1731 C1732 1.414 . S
C1731 C1734 1.499 . S
C1732 H1712 0.950 . S
C1732 C1731 1.414 . S
C1732 C1733 1.374 . S
C1733 H1713 0.950 . S
C1733 C1729 1.385 . S
C1733 C1732 1.374 . S
C1734 C1731 1.499 . S
C1734 C1735 1.373 . S
C1734 C1736 1.389 . S
C1735 H1714 0.950 . S
C1735 C1734 1.373 . S
C1735 C1751 1.377 . S
C1736 C1734 1.389 . S
C1736 C1737 1.524 . S
C1736 C1750 1.377 . S
C1737 C1736 1.524 . S
C1737 C1738 1.397 . S
C1737 C1742 1.363 . S
C1738 H1715 0.950 . S
C1738 C1737 1.397 . S
C1738 C1739 1.334 . S
C1739 H1716 0.950 . S
C1739 C1738 1.334 . S
C1739 C1740 1.287 . S
C1740 C1739 1.287 . S
C1740 C1741 1.524 . S
C1740 H1759 0.913 . S
C1741 H1717 0.950 . S
C1741 C1740 1.524 . S
C1741 C1742 1.415 . S
C1742 H1718 0.950 . S
C1742 C1737 1.363 . S
C1742 C1741 1.415 . S
C1743 H1719 0.951 . S
C1743 C1744 1.366 . S
C1743 C1745 1.388 . S
C1744 C1743 1.366 . S
C1744 C1748 1.385 . S
C1745 H1720 0.951 . S
C1745 C1743 1.388 . S
C1745 C1746 1.366 . S
C1746 C1745 1.366 . S
C1746 C1747 1.414 . S
C1746 C1749 1.499 . S
C1747 H1721 0.950 . S
C1747 C1746 1.414 . S
C1747 C1748 1.374 . S
C1748 H1722 0.950 . S
C1748 C1744 1.385 . S
C1748 C1747 1.374 . S
C1749 C1746 1.499 . S
C1749 C1750 1.373 . S
C1749 C1751 1.389 . S
C1750 H1723 0.950 . S
C1750 C1736 1.377 . S
C1750 C1749 1.373 . S
C1751 C1735 1.377 . S
C1751 C1749 1.389 . S
C1751 C1752 1.524 . S
C1752 C1751 1.524 . S
C1752 C1753 1.397 . S
C1752 C1757 1.363 . S
C1753 H1724 0.950 . S
C1753 C1752 1.397 . S
C1753 C1754 1.334 . S
C1754 H1725 0.950 . S
C1754 C1753 1.334 . S
C1754 C1755 1.287 . S
C1755 C1754 1.287 . S
C1755 C1756 1.524 . S
C1755 H1758 0.999 . S
C1756 H1726 0.950 . S
C1756 C1755 1.524 . S
C1756 C1757 1.415 . S
C1757 H1727 0.950 . S
C1757 C1752 1.363 . S
C1757 C1756 1.415 . S
H1758 C1755 0.999 . S
H1759 C1740 0.913 . S
H1760 C1778 0.951 . S
H1761 C1780 0.951 . S
H1762 C1782 0.950 . S
H1763 C1783 0.950 . S
H1764 C1785 0.950 . S
H1765 C1788 0.950 . S
H1766 C1789 0.950 . S
H1767 C1791 0.950 . S
H1768 C1792 0.950 . S
H1769 C1793 0.951 . S
H1770 C1795 0.951 . S
H1771 C1797 0.950 . S
H1772 C1798 0.950 . S
H1773 C1800 0.950 . S
H1774 C1803 0.950 . S
H1775 C1804 0.950 . S
H1776 C1806 0.950 . S
H1777 C1807 0.950 . S
C1778 H1760 0.951 . S
C1778 C1779 1.366 . S
C1778 C1780 1.388 . S
C1779 C1778 1.366 . S
C1779 C1783 1.385 . S
C1780 H1761 0.951 . S
C1780 C1778 1.388 . S
C1780 C1781 1.366 . S
C1781 C1780 1.366 . S
C1781 C1782 1.414 . S
C1781 C1784 1.499 . S
C1782 H1762 0.950 . S
C1782 C1781 1.414 . S
C1782 C1783 1.374 . S
C1783 H1763 0.950 . S
C1783 C1779 1.385 . S
C1783 C1782 1.374 . S
C1784 C1781 1.499 . S
C1784 C1785 1.373 . S
C1784 C1786 1.389 . S
C1785 H1764 0.950 . S
C1785 C1784 1.373 . S
C1785 C1801 1.377 . S
C1786 C1784 1.389 . S
C1786 C1787 1.524 . S
C1786 C1800 1.377 . S
C1787 C1786 1.524 . S
C1787 C1788 1.397 . S
C1787 C1792 1.363 . S
C1788 H1765 0.950 . S
C1788 C1787 1.397 . S
C1788 C1789 1.334 . S
C1789 H1766 0.950 . S
C1789 C1788 1.334 . S
C1789 C1790 1.287 . S
C1790 C1789 1.287 . S
C1790 C1791 1.524 . S
C1790 H1809 0.913 . S
C1791 H1767 0.950 . S
C1791 C1790 1.524 . S
C1791 C1792 1.415 . S
C1792 H1768 0.950 . S
C1792 C1787 1.363 . S
C1792 C1791 1.415 . S
C1793 H1769 0.951 . S
C1793 C1794 1.366 . S
C1793 C1795 1.388 . S
C1794 C1793 1.366 . S
C1794 C1798 1.385 . S
C1795 H1770 0.951 . S
C1795 C1793 1.388 . S
C1795 C1796 1.366 . S
C1796 C1795 1.366 . S
C1796 C1797 1.414 . S
C1796 C1799 1.499 . S
C1797 H1771 0.950 . S
C1797 C1796 1.414 . S
C1797 C1798 1.374 . S
C1798 H1772 0.950 . S
C1798 C1794 1.385 . S
C1798 C1797 1.374 . S
C1799 C1796 1.499 . S
C1799 C1800 1.373 . S
C1799 C1801 1.389 . S
C1800 H1773 0.950 . S
C1800 C1786 1.377 . S
C1800 C1799 1.373 . S
C1801 C1785 1.377 . S
C1801 C1799 1.389 . S
C1801 C1802 1.524 . S
C1802 C1801 1.524 . S
C1802 C1803 1.397 . S
C1802 C1807 1.363 . S
C1803 H1774 0.950 . S
C1803 C1802 1.397 . S
C1803 C1804 1.334 . S
C1804 H1775 0.950 . S
C1804 C1803 1.334 . S
C1804 C1805 1.287 . S
C1805 C1804 1.287 . S
C1805 C1806 1.524 . S
C1805 H1808 0.999 . S
C1806 H1776 0.950 . S
C1806 C1805 1.524 . S
C1806 C1807 1.415 . S
C1807 H1777 0.950 . S
C1807 C1802 1.363 . S
C1807 C1806 1.415 . S
H1808 C1805 0.999 . S
H1809 C1790 0.913 . S
H1810 C1828 0.951 . S
H1811 C1830 0.951 . S
H1812 C1832 0.950 . S
H1813 C1833 0.950 . S
H1814 C1835 0.950 . S
H1815 C1838 0.950 . S
H1816 C1839 0.950 . S
H1817 C1841 0.950 . S
H1818 C1842 0.950 . S
H1819 C1843 0.951 . S
H1820 C1845 0.951 . S
H1821 C1847 0.950 . S
H1822 C1848 0.950 . S
H1823 C1850 0.950 . S
H1824 C1853 0.950 . S
H1825 C1854 0.950 . S
H1826 C1856 0.950 . S
H1827 C1857 0.950 . S
C1828 H1810 0.951 . S
C1828 C1829 1.366 . S
C1828 C1830 1.388 . S
C1829 C1828 1.366 . S
C1829 C1833 1.385 . S
C1830 H1811 0.951 . S
C1830 C1828 1.388 . S
C1830 C1831 1.366 . S
C1831 C1830 1.366 . S
C1831 C1832 1.414 . S
C1831 C1834 1.499 . S
C1832 H1812 0.950 . S
C1832 C1831 1.414 . S
C1832 C1833 1.374 . S
C1833 H1813 0.950 . S
C1833 C1829 1.385 . S
C1833 C1832 1.374 . S
C1834 C1831 1.499 . S
C1834 C1835 1.373 . S
C1834 C1836 1.389 . S
C1835 H1814 0.950 . S
C1835 C1834 1.373 . S
C1835 C1851 1.377 . S
C1836 C1834 1.389 . S
C1836 C1837 1.524 . S
C1836 C1850 1.377 . S
C1837 C1836 1.524 . S
C1837 C1838 1.397 . S
C1837 C1842 1.363 . S
C1838 H1815 0.950 . S
C1838 C1837 1.397 . S
C1838 C1839 1.334 . S
C1839 H1816 0.950 . S
C1839 C1838 1.334 . S
C1839 C1840 1.287 . S
C1840 C1839 1.287 . S
C1840 C1841 1.524 . S
C1840 H1859 0.913 . S
C1841 H1817 0.950 . S
C1841 C1840 1.524 . S
C1841 C1842 1.415 . S
C1842 H1818 0.950 . S
C1842 C1837 1.363 . S
C1842 C1841 1.415 . S
C1843 H1819 0.951 . S
C1843 C1844 1.366 . S
C1843 C1845 1.388 1_655 S
C1844 C1843 1.366 . S
C1844 C1848 1.385 1_655 S
C1845 H1820 0.951 . S
C1845 C1843 1.388 1_455 S
C1845 C1846 1.366 . S
C1846 C1845 1.366 . S
C1846 C1847 1.414 . S
C1846 C1849 1.499 . S
C1847 H1821 0.950 . S
C1847 C1846 1.414 . S
C1847 C1848 1.374 . S
C1848 H1822 0.950 . S
C1848 C1844 1.385 1_455 S
C1848 C1847 1.374 . S
C1849 C1846 1.499 . S
C1849 C1850 1.373 . S
C1849 C1851 1.389 . S
C1850 H1823 0.950 . S
C1850 C1836 1.377 . S
C1850 C1849 1.373 . S
C1851 C1835 1.377 . S
C1851 C1849 1.389 . S
C1851 C1852 1.524 . S
C1852 C1851 1.524 . S
C1852 C1853 1.397 1_455 S
C1852 C1857 1.363 . S
C1853 H1824 0.950 . S
C1853 C1852 1.397 1_655 S
C1853 C1854 1.334 . S
C1854 H1825 0.950 . S
C1854 C1853 1.334 . S
C1854 C1855 1.287 . S
C1855 C1854 1.287 . S
C1855 C1856 1.524 . S
C1855 H1858 0.999 . S
C1856 H1826 0.950 . S
C1856 C1855 1.524 . S
C1856 C1857 1.415 1_655 S
C1857 H1827 0.950 . S
C1857 C1852 1.363 . S
C1857 C1856 1.415 1_455 S
H1858 C1855 0.999 . S
H1859 C1840 0.913 . S
H1860 C1878 0.951 . S
H1861 C1880 0.951 . S
H1862 C1882 0.950 . S
H1863 C1883 0.950 . S
H1864 C1885 0.950 . S
H1865 C1888 0.950 . S
H1866 C1889 0.950 . S
H1867 C1891 0.950 . S
H1868 C1892 0.950 . S
H1869 C1893 0.951 . S
H1870 C1895 0.951 . S
H1871 C1897 0.950 . S
H1872 C1898 0.950 . S
H1873 C1900 0.950 . S
H1874 C1903 0.950 . S
H1875 C1904 0.950 . S
H1876 C1906 0.950 . S
H1877 C1907 0.950 . S
C1878 H1860 0.951 . S
C1878 C1879 1.366 . S
C1878 C1880 1.388 . S
C1879 C1878 1.366 . S
C1879 C1883 1.385 . S
C1880 H1861 0.951 . S
C1880 C1878 1.388 . S
C1880 C1881 1.366 . S
C1881 C1880 1.366 . S
C1881 C1882 1.414 . S
C1881 C1884 1.499 . S
C1882 H1862 0.950 . S
C1882 C1881 1.414 . S
C1882 C1883 1.374 . S
C1883 H1863 0.950 . S
C1883 C1879 1.385 . S
C1883 C1882 1.374 . S
C1884 C1881 1.499 . S
C1884 C1885 1.373 . S
C1884 C1886 1.389 . S
C1885 H1864 0.950 . S
C1885 C1884 1.373 . S
C1885 C1901 1.377 . S
C1886 C1884 1.389 . S
C1886 C1887 1.524 . S
C1886 C1900 1.377 . S
C1887 C1886 1.524 . S
C1887 C1888 1.397 . S
C1887 C1892 1.363 . S
C1888 H1865 0.950 . S
C1888 C1887 1.397 . S
C1888 C1889 1.334 . S
C1889 H1866 0.950 . S
C1889 C1888 1.334 . S
C1889 C1890 1.287 . S
C1890 C1889 1.287 . S
C1890 C1891 1.524 . S
C1890 H1909 0.913 . S
C1891 H1867 0.950 . S
C1891 C1890 1.524 . S
C1891 C1892 1.415 . S
C1892 H1868 0.950 . S
C1892 C1887 1.363 . S
C1892 C1891 1.415 . S
C1893 H1869 0.951 . S
C1893 C1894 1.366 . S
C1893 C1895 1.388 . S
C1894 C1893 1.366 . S
C1894 C1898 1.385 . S
C1895 H1870 0.951 . S
C1895 C1893 1.388 . S
C1895 C1896 1.366 . S
C1896 C1895 1.366 . S
C1896 C1897 1.414 . S
C1896 C1899 1.499 . S
C1897 H1871 0.950 . S
C1897 C1896 1.414 . S
C1897 C1898 1.374 . S
C1898 H1872 0.950 . S
C1898 C1894 1.385 . S
C1898 C1897 1.374 . S
C1899 C1896 1.499 . S
C1899 C1900 1.373 . S
C1899 C1901 1.389 . S
C1900 H1873 0.950 . S
C1900 C1886 1.377 . S
C1900 C1899 1.373 . S
C1901 C1885 1.377 . S
C1901 C1899 1.389 . S
C1901 C1902 1.524 . S
C1902 C1901 1.524 . S
C1902 C1903 1.397 . S
C1902 C1907 1.363 . S
C1903 H1874 0.950 . S
C1903 C1902 1.397 . S
C1903 C1904 1.334 . S
C1904 H1875 0.950 . S
C1904 C1903 1.334 . S
C1904 C1905 1.287 . S
C1905 C1904 1.287 . S
C1905 C1906 1.524 . S
C1905 H1908 0.999 . S
C1906 H1876 0.950 . S
C1906 C1905 1.524 . S
C1906 C1907 1.415 . S
C1907 H1877 0.950 . S
C1907 C1902 1.363 . S
C1907 C1906 1.415 . S
H1908 C1905 0.999 . S
H1909 C1890 0.913 . S
H1910 C1928 0.951 . S
H1911 C1930 0.951 . S
H1912 C1932 0.950 . S
H1913 C1933 0.950 . S
H1914 C1935 0.950 . S
H1915 C1938 0.950 . S
H1916 C1939 0.944 1_655 S
H1917 C1941 0.950 . S
H1918 C1942 0.950 . S
H1919 C1943 0.951 . S
H1920 C1945 0.951 . S
H1921 C1947 0.950 . S
H1922 C1948 0.950 . S
H1923 C1950 0.950 . S
H1924 C1953 0.950 . S
H1925 C1954 0.950 . S
H1926 C1956 0.950 . S
H1927 C1957 0.950 . S
C1928 H1910 0.951 . S
C1928 C1929 1.366 . S
C1928 C1930 1.388 . S
C1929 C1928 1.366 . S
C1929 C1933 1.385 . S
C1930 H1911 0.951 . S
C1930 C1928 1.388 . S
C1930 C1931 1.366 . S
C1931 C1930 1.366 . S
C1931 C1932 1.414 . S
C1931 C1934 1.499 . S
C1932 H1912 0.950 . S
C1932 C1931 1.414 . S
C1932 C1933 1.374 . S
C1933 H1913 0.950 . S
C1933 C1929 1.385 . S
C1933 C1932 1.374 . S
C1934 C1931 1.499 . S
C1934 C1935 1.373 . S
C1934 C1936 1.389 . S
C1935 H1914 0.950 . S
C1935 C1934 1.373 . S
C1935 C1951 1.377 . S
C1936 C1934 1.389 . S
C1936 C1937 1.524 1_655 S
C1936 C1950 1.377 1_655 S
C1937 C1936 1.524 1_455 S
C1937 C1938 1.397 1_455 S
C1937 C1942 1.363 . S
C1938 H1915 0.950 . S
C1938 C1937 1.397 1_655 S
C1938 C1939 1.334 1_655 S
C1939 H1916 0.944 1_455 S
C1939 C1938 1.334 1_455 S
C1939 C1940 1.287 . S
C1940 C1939 1.287 . S
C1940 C1941 1.524 . S
C1940 H1959 0.913 . S
C1941 H1917 0.950 . S
C1941 C1940 1.524 . S
C1941 C1942 1.415 . S
C1942 H1918 0.950 . S
C1942 C1937 1.363 . S
C1942 C1941 1.415 . S
C1943 H1919 0.951 . S
C1943 C1944 1.366 . S
C1943 C1945 1.388 . S
C1944 C1943 1.366 . S
C1944 C1948 1.385 . S
C1945 H1920 0.951 . S
C1945 C1943 1.388 . S
C1945 C1946 1.366 . S
C1946 C1945 1.366 . S
C1946 C1947 1.414 . S
C1946 C1949 1.499 . S
C1947 H1921 0.950 . S
C1947 C1946 1.414 . S
C1947 C1948 1.374 . S
C1948 H1922 0.950 . S
C1948 C1944 1.385 . S
C1948 C1947 1.374 . S
C1949 C1946 1.499 . S
C1949 C1950 1.373 . S
C1949 C1951 1.389 1_455 S
C1950 H1923 0.950 . S
C1950 C1936 1.377 1_455 S
C1950 C1949 1.373 . S
C1951 C1935 1.377 . S
C1951 C1949 1.389 1_655 S
C1951 C1952 1.524 . S
C1952 C1951 1.524 . S
C1952 C1953 1.397 . S
C1952 C1957 1.363 . S
C1953 H1924 0.950 . S
C1953 C1952 1.397 . S
C1953 C1954 1.334 . S
C1954 H1925 0.950 . S
C1954 C1953 1.334 . S
C1954 C1955 1.287 . S
C1955 C1954 1.287 . S
C1955 C1956 1.524 . S
C1955 H1958 0.999 . S
C1956 H1926 0.950 . S
C1956 C1955 1.524 . S
C1956 C1957 1.415 . S
C1957 H1927 0.950 . S
C1957 C1952 1.363 . S
C1957 C1956 1.415 . S
H1958 C1955 0.999 . S
H1959 C1940 0.913 . S
H1960 C1978 0.951 . S
H1961 C1980 0.951 . S
H1962 C1982 0.950 . S
H1963 C1983 0.950 . S
H1964 C1985 0.950 . S
H1965 C1988 0.950 . S
H1966 C1989 0.950 . S
H1967 C1991 0.950 . S
H1968 C1992 0.950 . S
H1969 C1993 0.951 . S
H1970 C1995 0.951 . S
H1971 C1997 0.950 . S
H1972 C1998 0.950 . S
H1973 C2000 0.950 . S
H1974 C2003 0.950 . S
H1975 C2004 0.950 . S
H1976 C2006 0.950 . S
H1977 C2007 0.950 . S
C1978 H1960 0.951 . S
C1978 C1979 1.366 . S
C1978 C1980 1.388 . S
C1979 C1978 1.366 . S
C1979 C1983 1.385 . S
C1980 H1961 0.951 . S
C1980 C1978 1.388 . S
C1980 C1981 1.366 . S
C1981 C1980 1.366 . S
C1981 C1982 1.414 . S
C1981 C1984 1.499 . S
C1982 H1962 0.950 . S
C1982 C1981 1.414 . S
C1982 C1983 1.374 . S
C1983 H1963 0.950 . S
C1983 C1979 1.385 . S
C1983 C1982 1.374 . S
C1984 C1981 1.499 . S
C1984 C1985 1.373 . S
C1984 C1986 1.389 . S
C1985 H1964 0.950 . S
C1985 C1984 1.373 . S
C1985 C2001 1.377 . S
C1986 C1984 1.389 . S
C1986 C1987 1.524 . S
C1986 C2000 1.377 . S
C1987 C1986 1.524 . S
C1987 C1988 1.397 . S
C1987 C1992 1.363 . S
C1988 H1965 0.950 . S
C1988 C1987 1.397 . S
C1988 C1989 1.334 . S
C1989 H1966 0.950 . S
C1989 C1988 1.334 . S
C1989 C1990 1.287 . S
C1990 C1989 1.287 . S
C1990 C1991 1.524 . S
C1990 H2009 0.913 . S
C1991 H1967 0.950 . S
C1991 C1990 1.524 . S
C1991 C1992 1.415 . S
C1992 H1968 0.950 . S
C1992 C1987 1.363 . S
C1992 C1991 1.415 . S
C1993 H1969 0.951 . S
C1993 C1994 1.366 . S
C1993 C1995 1.388 . S
C1994 C1993 1.366 . S
C1994 C1998 1.385 . S
C1995 H1970 0.951 . S
C1995 C1993 1.388 . S
C1995 C1996 1.366 . S
C1996 C1995 1.366 . S
C1996 C1997 1.414 . S
C1996 C1999 1.499 . S
C1997 H1971 0.950 . S
C1997 C1996 1.414 . S
C1997 C1998 1.374 . S
C1998 H1972 0.950 . S
C1998 C1994 1.385 . S
C1998 C1997 1.374 . S
C1999 C1996 1.499 . S
C1999 C2000 1.373 . S
C1999 C2001 1.389 . S
C2000 H1973 0.950 . S
C2000 C1986 1.377 . S
C2000 C1999 1.373 . S
C2001 C1985 1.377 . S
C2001 C1999 1.389 . S
C2001 C2002 1.524 . S
C2002 C2001 1.524 . S
C2002 C2003 1.397 . S
C2002 C2007 1.363 . S
C2003 H1974 0.950 . S
C2003 C2002 1.397 . S
C2003 C2004 1.334 . S
C2004 H1975 0.950 . S
C2004 C2003 1.334 . S
C2004 C2005 1.287 . S
C2005 C2004 1.287 . S
C2005 C2006 1.524 . S
C2005 H2008 0.999 . S
C2006 H1976 0.950 . S
C2006 C2005 1.524 . S
C2006 C2007 1.415 . S
C2007 H1977 0.950 . S
C2007 C2002 1.363 . S
C2007 C2006 1.415 . S
H2008 C2005 0.999 . S
H2009 C1990 0.913 . S
H2010 C2028 0.951 . S
H2011 C2030 0.951 . S
H2012 C2032 0.950 . S
H2013 C2033 0.950 . S
H2014 C2035 0.950 1_554 S
H2015 C2038 0.950 . S
H2016 C2039 0.950 . S
H2017 C2041 0.950 . S
H2018 C2042 0.950 . S
H2019 C2043 0.951 . S
H2020 C2045 0.951 . S
H2021 C2047 0.950 . S
H2022 C2048 0.950 . S
H2023 C2050 0.950 . S
H2024 C2053 0.951 . S
H2025 C2054 0.950 . S
H2026 C2056 0.950 . S
H2027 C2057 0.950 1_554 S
C2028 H2010 0.951 . S
C2028 C2029 1.366 . S
C2028 C2030 1.388 1_554 S
C2029 C2028 1.366 . S
C2029 C2033 1.385 . S
C2030 H2011 0.951 . S
C2030 C2028 1.388 1_556 S
C2030 C2031 1.366 1_556 S
C2031 C2030 1.366 1_554 S
C2031 C2032 1.413 . S
C2031 C2034 1.499 1_554 S
C2032 H2012 0.950 . S
C2032 C2031 1.413 . S
C2032 C2033 1.374 . S
C2033 H2013 0.950 . S
C2033 C2029 1.385 . S
C2033 C2032 1.374 . S
C2034 C2031 1.499 1_556 S
C2034 C2035 1.373 . S
C2034 C2036 1.389 . S
C2035 H2014 0.950 1_556 S
C2035 C2034 1.373 . S
C2035 C2051 1.377 . S
C2036 C2034 1.389 . S
C2036 C2037 1.524 . S
C2036 C2050 1.377 . S
C2037 C2036 1.524 . S
C2037 C2038 1.397 . S
C2037 C2042 1.363 . S
C2038 H2015 0.950 . S
C2038 C2037 1.397 . S
C2038 C2039 1.334 . S
C2039 H2016 0.950 . S
C2039 C2038 1.334 . S
C2039 C2040 1.287 . S
C2040 C2039 1.287 . S
C2040 C2041 1.524 . S
C2040 H2059 0.913 . S
C2041 H2017 0.950 . S
C2041 C2040 1.524 . S
C2041 C2042 1.415 . S
C2042 H2018 0.950 . S
C2042 C2037 1.363 . S
C2042 C2041 1.415 . S
C2043 H2019 0.951 . S
C2043 C2044 1.366 . S
C2043 C2045 1.388 . S
C2044 C2043 1.366 . S
C2044 C2048 1.385 . S
C2045 H2020 0.951 . S
C2045 C2043 1.388 . S
C2045 C2046 1.366 . S
C2046 C2045 1.366 . S
C2046 C2047 1.414 . S
C2046 C2049 1.499 . S
C2047 H2021 0.950 . S
C2047 C2046 1.414 . S
C2047 C2048 1.374 . S
C2048 H2022 0.950 . S
C2048 C2044 1.385 . S
C2048 C2047 1.374 . S
C2049 C2046 1.499 . S
C2049 C2050 1.373 . S
C2049 C2051 1.389 . S
C2050 H2023 0.950 . S
C2050 C2036 1.377 . S
C2050 C2049 1.373 . S
C2051 C2035 1.377 . S
C2051 C2049 1.389 . S
C2051 C2052 1.524 . S
C2052 C2051 1.524 . S
C2052 C2053 1.397 1_655 S
C2052 C2057 1.363 . S
C2053 H2024 0.951 . S
C2053 C2052 1.397 1_455 S
C2053 C2054 1.334 . S
C2054 H2025 0.950 . S
C2054 C2053 1.334 . S
C2054 C2055 1.287 . S
C2055 C2054 1.287 . S
C2055 C2056 1.524 1_556 S
C2055 H2058 0.999 . S
C2056 H2026 0.950 . S
C2056 C2055 1.524 1_554 S
C2056 C2057 1.415 1_454 S
C2057 H2027 0.950 1_556 S
C2057 C2052 1.363 . S
C2057 C2056 1.415 1_656 S
H2058 C2055 0.999 . S
H2059 C2040 0.913 . S
H2060 C2078 0.951 . S
H2061 C2080 0.951 . S
H2062 C2082 0.950 . S
H2063 C2083 0.950 . S
H2064 C2085 0.950 . S
H2065 C2088 0.950 . S
H2066 C2089 0.950 . S
H2067 C2091 0.950 . S
H2068 C2092 0.950 . S
H2069 C2093 0.951 . S
H2070 C2095 0.951 . S
H2071 C2097 0.950 . S
H2072 C2098 0.950 . S
H2073 C2100 0.950 . S
H2074 C2103 0.950 . S
H2075 C2104 0.950 . S
H2076 C2106 0.950 . S
H2077 C2107 0.950 . S
C2078 H2060 0.951 . S
C2078 C2079 1.366 . S
C2078 C2080 1.388 . S
C2079 C2078 1.366 . S
C2079 C2083 1.385 . S
C2080 H2061 0.951 . S
C2080 C2078 1.388 . S
C2080 C2081 1.366 . S
C2081 C2080 1.366 . S
C2081 C2082 1.414 . S
C2081 C2084 1.499 . S
C2082 H2062 0.950 . S
C2082 C2081 1.414 . S
C2082 C2083 1.374 . S
C2083 H2063 0.950 . S
C2083 C2079 1.385 . S
C2083 C2082 1.374 . S
C2084 C2081 1.499 . S
C2084 C2085 1.373 . S
C2084 C2086 1.389 . S
C2085 H2064 0.950 . S
C2085 C2084 1.373 . S
C2085 C2101 1.377 . S
C2086 C2084 1.389 . S
C2086 C2087 1.524 . S
C2086 C2100 1.377 . S
C2087 C2086 1.524 . S
C2087 C2088 1.397 . S
C2087 C2092 1.363 . S
C2088 H2065 0.950 . S
C2088 C2087 1.397 . S
C2088 C2089 1.334 . S
C2089 H2066 0.950 . S
C2089 C2088 1.334 . S
C2089 C2090 1.287 . S
C2090 C2089 1.287 . S
C2090 C2091 1.524 . S
C2090 H2109 0.913 . S
C2091 H2067 0.950 . S
C2091 C2090 1.524 . S
C2091 C2092 1.415 . S
C2092 H2068 0.950 . S
C2092 C2087 1.363 . S
C2092 C2091 1.415 . S
C2093 H2069 0.951 . S
C2093 C2094 1.366 . S
C2093 C2095 1.388 . S
C2094 C2093 1.366 . S
C2094 C2098 1.385 . S
C2095 H2070 0.951 . S
C2095 C2093 1.388 . S
C2095 C2096 1.366 . S
C2096 C2095 1.366 . S
C2096 C2097 1.414 . S
C2096 C2099 1.499 . S
C2097 H2071 0.950 . S
C2097 C2096 1.414 . S
C2097 C2098 1.374 . S
C2098 H2072 0.950 . S
C2098 C2094 1.385 . S
C2098 C2097 1.374 . S
C2099 C2096 1.499 . S
C2099 C2100 1.373 . S
C2099 C2101 1.389 . S
C2100 H2073 0.950 . S
C2100 C2086 1.377 . S
C2100 C2099 1.373 . S
C2101 C2085 1.377 . S
C2101 C2099 1.389 . S
C2101 C2102 1.524 . S
C2102 C2101 1.524 . S
C2102 C2103 1.397 . S
C2102 C2107 1.363 . S
C2103 H2074 0.950 . S
C2103 C2102 1.397 . S
C2103 C2104 1.334 . S
C2104 H2075 0.950 . S
C2104 C2103 1.334 . S
C2104 C2105 1.287 . S
C2105 C2104 1.287 . S
C2105 C2106 1.524 . S
C2105 H2108 0.999 . S
C2106 H2076 0.950 . S
C2106 C2105 1.524 . S
C2106 C2107 1.415 . S
C2107 H2077 0.950 . S
C2107 C2102 1.363 . S
C2107 C2106 1.415 . S
H2108 C2105 0.999 . S
H2109 C2090 0.913 . S
H2110 C2128 0.951 . S
H2111 C2130 0.951 . S
H2112 C2132 0.950 . S
H2113 C2133 0.950 . S
H2114 C2135 0.950 . S
H2115 C2138 0.950 . S
H2116 C2139 0.950 . S
H2117 C2141 0.950 . S
H2118 C2142 0.950 . S
H2119 C2143 0.951 . S
H2120 C2145 0.951 . S
H2121 C2147 0.950 . S
H2122 C2148 0.950 . S
H2123 C2150 0.950 . S
H2124 C2153 0.950 . S
H2125 C2154 0.950 . S
H2126 C2156 0.950 . S
H2127 C2157 0.950 . S
C2128 H2110 0.951 . S
C2128 C2129 1.366 . S
C2128 C2130 1.388 . S
C2129 C2128 1.366 . S
C2129 C2133 1.385 . S
C2130 H2111 0.951 . S
C2130 C2128 1.388 . S
C2130 C2131 1.366 . S
C2131 C2130 1.366 . S
C2131 C2132 1.414 . S
C2131 C2134 1.499 . S
C2132 H2112 0.950 . S
C2132 C2131 1.414 . S
C2132 C2133 1.374 . S
C2133 H2113 0.950 . S
C2133 C2129 1.385 . S
C2133 C2132 1.374 . S
C2134 C2131 1.499 . S
C2134 C2135 1.373 1_554 S
C2134 C2136 1.389 . S
C2135 H2114 0.950 . S
C2135 C2134 1.373 1_556 S
C2135 C2151 1.377 . S
C2136 C2134 1.389 . S
C2136 C2137 1.524 . S
C2136 C2150 1.377 1_554 S
C2137 C2136 1.524 . S
C2137 C2138 1.397 . S
C2137 C2142 1.363 . S
C2138 H2115 0.950 . S
C2138 C2137 1.397 . S
C2138 C2139 1.334 . S
C2139 H2116 0.950 . S
C2139 C2138 1.334 . S
C2139 C2140 1.287 . S
C2140 C2139 1.287 . S
C2140 C2141 1.524 . S
C2140 H2159 0.913 . S
C2141 H2117 0.950 . S
C2141 C2140 1.524 . S
C2141 C2142 1.415 . S
C2142 H2118 0.950 . S
C2142 C2137 1.363 . S
C2142 C2141 1.415 . S
C2143 H2119 0.951 . S
C2143 C2144 1.366 . S
C2143 C2145 1.388 . S
C2144 C2143 1.366 . S
C2144 C2148 1.385 . S
C2145 H2120 0.951 . S
C2145 C2143 1.388 . S
C2145 C2146 1.366 . S
C2146 C2145 1.366 . S
C2146 C2147 1.414 . S
C2146 C2149 1.499 . S
C2147 H2121 0.950 . S
C2147 C2146 1.414 . S
C2147 C2148 1.374 . S
C2148 H2122 0.950 . S
C2148 C2144 1.385 . S
C2148 C2147 1.374 . S
C2149 C2146 1.499 . S
C2149 C2150 1.373 . S
C2149 C2151 1.389 . S
C2150 H2123 0.950 . S
C2150 C2136 1.377 1_556 S
C2150 C2149 1.373 . S
C2151 C2135 1.377 . S
C2151 C2149 1.389 . S
C2151 C2152 1.524 . S
C2152 C2151 1.524 . S
C2152 C2153 1.397 . S
C2152 C2157 1.363 . S
C2153 H2124 0.950 . S
C2153 C2152 1.397 . S
C2153 C2154 1.334 . S
C2154 H2125 0.950 . S
C2154 C2153 1.334 . S
C2154 C2155 1.287 . S
C2155 C2154 1.287 . S
C2155 C2156 1.524 . S
C2155 H2158 0.999 . S
C2156 H2126 0.950 . S
C2156 C2155 1.524 . S
C2156 C2157 1.415 . S
C2157 H2127 0.950 . S
C2157 C2152 1.363 . S
C2157 C2156 1.415 . S
H2158 C2155 0.999 . S
H2159 C2140 0.913 . S
H2160 C2178 0.951 . S
H2161 C2180 0.951 . S
H2162 C2182 0.950 . S
H2163 C2183 0.950 . S
H2164 C2185 0.950 . S
H2165 C2188 0.950 . S
H2166 C2189 0.950 . S
H2167 C2191 0.950 . S
H2168 C2192 0.950 . S
H2169 C2193 0.951 . S
H2170 C2195 0.951 . S
H2171 C2197 0.950 . S
H2172 C2198 0.950 . S
H2173 C2200 0.950 . S
H2174 C2203 0.950 . S
H2175 C2204 0.950 . S
H2176 C2206 0.950 . S
H2177 C2207 0.950 . S
C2178 H2160 0.951 . S
C2178 C2179 1.366 . S
C2178 C2180 1.388 . S
C2179 C2178 1.366 . S
C2179 C2183 1.385 . S
C2180 H2161 0.951 . S
C2180 C2178 1.388 . S
C2180 C2181 1.366 . S
C2181 C2180 1.366 . S
C2181 C2182 1.414 . S
C2181 C2184 1.499 . S
C2182 H2162 0.950 . S
C2182 C2181 1.414 . S
C2182 C2183 1.374 . S
C2183 H2163 0.950 . S
C2183 C2179 1.385 . S
C2183 C2182 1.374 . S
C2184 C2181 1.499 . S
C2184 C2185 1.373 . S
C2184 C2186 1.389 . S
C2185 H2164 0.950 . S
C2185 C2184 1.373 . S
C2185 C2201 1.377 . S
C2186 C2184 1.389 . S
C2186 C2187 1.524 . S
C2186 C2200 1.377 . S
C2187 C2186 1.524 . S
C2187 C2188 1.397 . S
C2187 C2192 1.363 . S
C2188 H2165 0.950 . S
C2188 C2187 1.397 . S
C2188 C2189 1.334 . S
C2189 H2166 0.950 . S
C2189 C2188 1.334 . S
C2189 C2190 1.287 . S
C2190 C2189 1.287 . S
C2190 C2191 1.524 . S
C2190 H2209 0.913 . S
C2191 H2167 0.950 . S
C2191 C2190 1.524 . S
C2191 C2192 1.415 . S
C2192 H2168 0.950 . S
C2192 C2187 1.363 . S
C2192 C2191 1.415 . S
C2193 H2169 0.951 . S
C2193 C2194 1.366 . S
C2193 C2195 1.388 . S
C2194 C2193 1.366 . S
C2194 C2198 1.385 . S
C2195 H2170 0.951 . S
C2195 C2193 1.388 . S
C2195 C2196 1.366 . S
C2196 C2195 1.366 . S
C2196 C2197 1.414 . S
C2196 C2199 1.499 . S
C2197 H2171 0.950 . S
C2197 C2196 1.414 . S
C2197 C2198 1.374 . S
C2198 H2172 0.950 . S
C2198 C2194 1.385 . S
C2198 C2197 1.374 . S
C2199 C2196 1.499 . S
C2199 C2200 1.373 . S
C2199 C2201 1.389 . S
C2200 H2173 0.950 . S
C2200 C2186 1.377 . S
C2200 C2199 1.373 . S
C2201 C2185 1.377 . S
C2201 C2199 1.389 . S
C2201 C2202 1.524 . S
C2202 C2201 1.524 . S
C2202 C2203 1.397 . S
C2202 C2207 1.363 . S
C2203 H2174 0.950 . S
C2203 C2202 1.397 . S
C2203 C2204 1.334 . S
C2204 H2175 0.950 . S
C2204 C2203 1.334 . S
C2204 C2205 1.287 . S
C2205 C2204 1.287 . S
C2205 C2206 1.524 . S
C2205 H2208 0.999 . S
C2206 H2176 0.950 . S
C2206 C2205 1.524 . S
C2206 C2207 1.415 . S
C2207 H2177 0.950 . S
C2207 C2202 1.363 . S
C2207 C2206 1.415 . S
H2208 C2205 0.999 . S
H2209 C2190 0.913 . S
H2210 C2228 0.951 . S
H2211 C2230 0.951 1_554 S
H2212 C2232 0.950 . S
H2213 C2233 0.950 . S
H2214 C2235 0.926 1_556 S
H2215 C2238 0.950 . S
H2216 C2239 0.950 . S
H2217 C2241 0.950 . S
H2218 C2242 0.950 . S
H2219 C2243 0.951 . S
H2220 C2245 0.951 . S
H2221 C2247 0.950 . S
H2222 C2248 0.950 . S
H2223 C2250 0.950 . S
H2224 C2253 0.950 . S
H2225 C2254 0.950 . S
H2226 C2256 0.950 . S
H2227 C2257 0.950 . S
C2228 H2210 0.951 . S
C2228 C2229 1.366 . S
C2228 C2230 1.388 . S
C2229 C2228 1.366 . S
C2229 C2233 1.385 . S
C2230 H2211 0.951 1_556 S
C2230 C2228 1.388 . S
C2230 C2231 1.366 . S
C2231 C2230 1.366 . S
C2231 C2232 1.414 . S
C2231 C2234 1.499 1_556 S
C2232 H2212 0.950 . S
C2232 C2231 1.414 . S
C2232 C2233 1.374 . S
C2233 H2213 0.950 . S
C2233 C2229 1.385 . S
C2233 C2232 1.374 . S
C2234 C2231 1.499 1_554 S
C2234 C2235 1.376 . S
C2234 C2236 1.389 . S
C2235 H2214 0.926 1_554 S
C2235 C2234 1.376 . S
C2235 C2251 1.398 . S
C2236 C2234 1.389 . S
C2236 C2237 1.524 . S
C2236 C2250 1.377 . S
C2237 C2236 1.524 . S
C2237 C2238 1.397 . S
C2237 C2242 1.363 . S
C2238 H2215 0.950 . S
C2238 C2237 1.397 . S
C2238 C2239 1.334 . S
C2239 H2216 0.950 . S
C2239 C2238 1.334 . S
C2239 C2240 1.287 . S
C2240 C2239 1.287 . S
C2240 C2241 1.524 . S
C2240 H2259 0.913 . S
C2241 H2217 0.950 . S
C2241 C2240 1.524 . S
C2241 C2242 1.415 . S
C2242 H2218 0.950 . S
C2242 C2237 1.363 . S
C2242 C2241 1.415 . S
C2243 H2219 0.951 . S
C2243 C2244 1.366 . S
C2243 C2245 1.388 . S
C2244 C2243 1.366 . S
C2244 C2248 1.385 . S
C2245 H2220 0.951 . S
C2245 C2243 1.388 . S
C2245 C2246 1.366 . S
C2246 C2245 1.366 . S
C2246 C2247 1.414 . S
C2246 C2249 1.499 . S
C2247 H2221 0.950 . S
C2247 C2246 1.414 . S
C2247 C2248 1.374 . S
C2248 H2222 0.950 . S
C2248 C2244 1.385 . S
C2248 C2247 1.374 . S
C2249 C2246 1.499 . S
C2249 C2250 1.373 . S
C2249 C2251 1.389 . S
C2250 H2223 0.950 . S
C2250 C2236 1.377 . S
C2250 C2249 1.373 . S
C2251 C2235 1.398 . S
C2251 C2249 1.389 . S
C2251 C2252 1.524 . S
C2252 C2251 1.524 . S
C2252 C2253 1.397 . S
C2252 C2257 1.363 1_554 S
C2253 H2224 0.950 . S
C2253 C2252 1.397 . S
C2253 C2254 1.334 . S
C2254 H2225 0.950 . S
C2254 C2253 1.334 . S
C2254 C2255 1.287 1_554 S
C2255 C2254 1.287 1_556 S
C2255 C2256 1.524 . S
C2255 H2258 0.999 . S
C2256 H2226 0.950 . S
C2256 C2255 1.524 . S
C2256 C2257 1.415 . S
C2257 H2227 0.950 . S
C2257 C2252 1.363 1_556 S
C2257 C2256 1.415 . S
H2258 C2255 0.999 . S
H2259 C2240 0.913 . S
H2260 C2278 0.951 . S
H2261 C2280 0.951 . S
H2262 C2282 0.950 . S
H2263 C2283 0.950 . S
H2264 C2285 0.950 . S
H2265 C2288 0.950 . S
H2266 C2289 0.950 . S
H2267 C2291 0.950 . S
H2268 C2292 0.950 . S
H2269 C2293 0.951 . S
H2270 C2295 0.951 . S
H2271 C2297 0.950 . S
H2272 C2298 0.950 . S
H2273 C2300 0.950 . S
H2274 C2303 0.950 . S
H2275 C2304 0.950 . S
H2276 C2306 0.950 . S
H2277 C2307 0.950 . S
C2278 H2260 0.951 . S
C2278 C2279 1.366 . S
C2278 C2280 1.388 . S
C2279 C2278 1.366 . S
C2279 C2283 1.385 . S
C2280 H2261 0.951 . S
C2280 C2278 1.388 . S
C2280 C2281 1.366 . S
C2281 C2280 1.366 . S
C2281 C2282 1.414 . S
C2281 C2284 1.499 . S
C2282 H2262 0.950 . S
C2282 C2281 1.414 . S
C2282 C2283 1.374 . S
C2283 H2263 0.950 . S
C2283 C2279 1.385 . S
C2283 C2282 1.374 . S
C2284 C2281 1.499 . S
C2284 C2285 1.373 . S
C2284 C2286 1.389 . S
C2285 H2264 0.950 . S
C2285 C2284 1.373 . S
C2285 C2301 1.377 . S
C2286 C2284 1.389 . S
C2286 C2287 1.524 . S
C2286 C2300 1.377 . S
C2287 C2286 1.524 . S
C2287 C2288 1.397 . S
C2287 C2292 1.363 . S
C2288 H2265 0.950 . S
C2288 C2287 1.397 . S
C2288 C2289 1.334 . S
C2289 H2266 0.950 . S
C2289 C2288 1.334 . S
C2289 C2290 1.287 . S
C2290 C2289 1.287 . S
C2290 C2291 1.524 . S
C2290 H2309 0.913 . S
C2291 H2267 0.950 . S
C2291 C2290 1.524 . S
C2291 C2292 1.415 . S
C2292 H2268 0.950 . S
C2292 C2287 1.363 . S
C2292 C2291 1.415 . S
C2293 H2269 0.951 . S
C2293 C2294 1.366 . S
C2293 C2295 1.388 . S
C2294 C2293 1.366 . S
C2294 C2298 1.385 . S
C2295 H2270 0.951 . S
C2295 C2293 1.388 . S
C2295 C2296 1.366 . S
C2296 C2295 1.366 . S
C2296 C2297 1.414 . S
C2296 C2299 1.499 . S
C2297 H2271 0.950 . S
C2297 C2296 1.414 . S
C2297 C2298 1.374 . S
C2298 H2272 0.950 . S
C2298 C2294 1.385 . S
C2298 C2297 1.374 . S
C2299 C2296 1.499 . S
C2299 C2300 1.373 . S
C2299 C2301 1.389 . S
C2300 H2273 0.950 . S
C2300 C2286 1.377 . S
C2300 C2299 1.373 . S
C2301 C2285 1.377 . S
C2301 C2299 1.389 . S
C2301 C2302 1.524 . S
C2302 C2301 1.524 . S
C2302 C2303 1.397 . S
C2302 C2307 1.363 . S
C2303 H2274 0.950 . S
C2303 C2302 1.397 . S
C2303 C2304 1.334 . S
C2304 H2275 0.950 . S
C2304 C2303 1.334 . S
C2304 C2305 1.287 . S
C2305 C2304 1.287 . S
C2305 C2306 1.524 . S
C2305 H2308 0.999 . S
C2306 H2276 0.950 . S
C2306 C2305 1.524 . S
C2306 C2307 1.415 . S
C2307 H2277 0.950 . S
C2307 C2302 1.363 . S
C2307 C2306 1.415 . S
H2308 C2305 0.999 . S
H2309 C2290 0.913 . S
H2310 C2328 0.951 . S
H2311 C2330 0.951 . S
H2312 C2332 0.950 . S
H2313 C2333 0.950 . S
H2314 C2335 0.950 . S
H2315 C2338 0.950 . S
H2316 C2339 0.950 . S
H2317 C2341 0.950 . S
H2318 C2342 0.950 1_554 S
H2319 C2343 0.951 . S
H2320 C2345 0.951 . S
H2321 C2347 0.950 . S
H2322 C2348 0.950 . S
H2323 C2350 0.950 . S
H2324 C2353 0.950 . S
H2325 C2354 0.950 . S
H2326 C2356 0.950 . S
H2327 C2357 0.950 . S
C2328 H2310 0.951 . S
C2328 C2329 1.366 . S
C2328 C2330 1.388 . S
C2329 C2328 1.366 . S
C2329 C2333 1.385 . S
C2330 H2311 0.951 . S
C2330 C2328 1.388 . S
C2330 C2331 1.366 . S
C2331 C2330 1.366 . S
C2331 C2332 1.414 . S
C2331 C2334 1.499 1_556 S
C2332 H2312 0.950 . S
C2332 C2331 1.414 . S
C2332 C2333 1.374 . S
C2333 H2313 0.950 . S
C2333 C2329 1.385 . S
C2333 C2332 1.374 . S
C2334 C2331 1.499 1_554 S
C2334 C2335 1.373 . S
C2334 C2336 1.389 . S
C2335 H2314 0.950 . S
C2335 C2334 1.373 . S
C2335 C2351 1.377 . S
C2336 C2334 1.389 . S
C2336 C2337 1.524 1_554 S
C2336 C2350 1.377 . S
C2337 C2336 1.524 1_556 S
C2337 C2338 1.397 . S
C2337 C2342 1.363 . S
C2338 H2315 0.950 . S
C2338 C2337 1.397 . S
C2338 C2339 1.334 . S
C2339 H2316 0.950 . S
C2339 C2338 1.334 . S
C2339 C2340 1.287 . S
C2340 C2339 1.287 . S
C2340 C2341 1.524 . S
C2340 H2359 0.913 . S
C2341 H2317 0.950 . S
C2341 C2340 1.524 . S
C2341 C2342 1.415 . S
C2342 H2318 0.950 1_556 S
C2342 C2337 1.363 . S
C2342 C2341 1.415 . S
C2343 H2319 0.951 . S
C2343 C2344 1.366 . S
C2343 C2345 1.388 . S
C2344 C2343 1.366 . S
C2344 C2348 1.385 . S
C2345 H2320 0.951 . S
C2345 C2343 1.388 . S
C2345 C2346 1.366 . S
C2346 C2345 1.366 . S
C2346 C2347 1.414 . S
C2346 C2349 1.499 . S
C2347 H2321 0.950 . S
C2347 C2346 1.414 . S
C2347 C2348 1.374 . S
C2348 H2322 0.950 . S
C2348 C2344 1.385 . S
C2348 C2347 1.374 . S
C2349 C2346 1.499 . S
C2349 C2350 1.373 . S
C2349 C2351 1.389 . S
C2350 H2323 0.950 . S
C2350 C2336 1.377 . S
C2350 C2349 1.373 . S
C2351 C2335 1.377 . S
C2351 C2349 1.389 . S
C2351 C2352 1.524 . S
C2352 C2351 1.524 . S
C2352 C2353 1.397 . S
C2352 C2357 1.363 . S
C2353 H2324 0.950 . S
C2353 C2352 1.397 . S
C2353 C2354 1.334 . S
C2354 H2325 0.950 . S
C2354 C2353 1.334 . S
C2354 C2355 1.287 . S
C2355 C2354 1.287 . S
C2355 C2356 1.524 . S
C2355 H2358 0.999 . S
C2356 H2326 0.950 . S
C2356 C2355 1.524 . S
C2356 C2357 1.415 . S
C2357 H2327 0.950 . S
C2357 C2352 1.363 . S
C2357 C2356 1.415 . S
H2358 C2355 0.999 . S
H2359 C2340 0.913 . S
H2360 C2378 0.951 . S
H2361 C2380 0.951 . S
H2362 C2382 0.950 . S
H2363 C2383 0.950 . S
H2364 C2385 0.950 . S
H2365 C2388 0.950 . S
H2366 C2389 0.950 . S
H2367 C2391 0.950 . S
H2368 C2392 0.950 . S
H2369 C2393 0.951 . S
H2370 C2395 0.951 . S
H2371 C2397 0.950 . S
H2372 C2398 0.950 . S
H2373 C2400 0.950 . S
H2374 C2403 0.950 . S
H2375 C2404 0.950 . S
H2376 C2406 0.950 . S
H2377 C2407 0.950 . S
C2378 H2360 0.951 . S
C2378 C2379 1.366 . S
C2378 C2380 1.388 . S
C2379 C2378 1.366 . S
C2379 C2383 1.385 . S
C2380 H2361 0.951 . S
C2380 C2378 1.388 . S
C2380 C2381 1.366 . S
C2381 C2380 1.366 . S
C2381 C2382 1.414 . S
C2381 C2384 1.499 . S
C2382 H2362 0.950 . S
C2382 C2381 1.414 . S
C2382 C2383 1.374 . S
C2383 H2363 0.950 . S
C2383 C2379 1.385 . S
C2383 C2382 1.374 . S
C2384 C2381 1.499 . S
C2384 C2385 1.373 . S
C2384 C2386 1.389 . S
C2385 H2364 0.950 . S
C2385 C2384 1.373 . S
C2385 C2401 1.377 . S
C2386 C2384 1.389 . S
C2386 C2387 1.524 . S
C2386 C2400 1.377 . S
C2387 C2386 1.524 . S
C2387 C2388 1.397 . S
C2387 C2392 1.363 . S
C2388 H2365 0.950 . S
C2388 C2387 1.397 . S
C2388 C2389 1.334 . S
C2389 H2366 0.950 . S
C2389 C2388 1.334 . S
C2389 C2390 1.287 . S
C2390 C2389 1.287 . S
C2390 C2391 1.524 . S
C2390 H2409 0.913 . S
C2391 H2367 0.950 . S
C2391 C2390 1.524 . S
C2391 C2392 1.415 . S
C2392 H2368 0.950 . S
C2392 C2387 1.363 . S
C2392 C2391 1.415 . S
C2393 H2369 0.951 . S
C2393 C2394 1.366 . S
C2393 C2395 1.388 . S
C2394 C2393 1.366 . S
C2394 C2398 1.385 . S
C2395 H2370 0.951 . S
C2395 C2393 1.388 . S
C2395 C2396 1.366 . S
C2396 C2395 1.366 . S
C2396 C2397 1.414 . S
C2396 C2399 1.499 . S
C2397 H2371 0.950 . S
C2397 C2396 1.414 . S
C2397 C2398 1.374 . S
C2398 H2372 0.950 . S
C2398 C2394 1.385 . S
C2398 C2397 1.374 . S
C2399 C2396 1.499 . S
C2399 C2400 1.373 . S
C2399 C2401 1.389 . S
C2400 H2373 0.950 . S
C2400 C2386 1.377 . S
C2400 C2399 1.373 . S
C2401 C2385 1.377 . S
C2401 C2399 1.389 . S
C2401 C2402 1.524 . S
C2402 C2401 1.524 . S
C2402 C2403 1.397 . S
C2402 C2407 1.363 . S
C2403 H2374 0.950 . S
C2403 C2402 1.397 . S
C2403 C2404 1.334 . S
C2404 H2375 0.950 . S
C2404 C2403 1.334 . S
C2404 C2405 1.287 . S
C2405 C2404 1.287 . S
C2405 C2406 1.524 . S
C2405 H2408 0.999 . S
C2406 H2376 0.950 . S
C2406 C2405 1.524 . S
C2406 C2407 1.415 . S
C2407 H2377 0.950 . S
C2407 C2402 1.363 . S
C2407 C2406 1.415 . S
H2408 C2405 0.999 . S
H2409 C2390 0.913 . S
H2410 C2428 0.951 . S
H2411 C2430 0.951 . S
H2412 C2432 0.950 . S
H2413 C2433 0.950 . S
H2414 C2435 0.950 . S
H2415 C2438 0.950 . S
H2416 C2439 0.950 . S
H2417 C2441 0.950 . S
H2418 C2442 0.950 . S
H2419 C2443 0.951 . S
H2420 C2445 0.951 . S
H2421 C2447 0.950 . S
H2422 C2448 0.950 . S
H2423 C2450 0.950 . S
H2424 C2453 0.950 . S
H2425 C2454 0.950 . S
H2426 C2456 0.950 . S
H2427 C2457 0.950 . S
C2428 H2410 0.951 . S
C2428 C2429 1.366 . S
C2428 C2430 1.388 . S
C2429 C2428 1.366 . S
C2429 C2433 1.385 . S
C2430 H2411 0.951 . S
C2430 C2428 1.388 . S
C2430 C2431 1.366 . S
C2431 C2430 1.366 . S
C2431 C2432 1.414 . S
C2431 C2434 1.499 . S
C2432 H2412 0.950 . S
C2432 C2431 1.414 . S
C2432 C2433 1.374 . S
C2433 H2413 0.950 . S
C2433 C2429 1.385 . S
C2433 C2432 1.374 . S
C2434 C2431 1.499 . S
C2434 C2435 1.373 . S
C2434 C2436 1.389 . S
C2435 H2414 0.950 . S
C2435 C2434 1.373 . S
C2435 C2451 1.377 . S
C2436 C2434 1.389 . S
C2436 C2437 1.524 . S
C2436 C2450 1.377 . S
C2437 C2436 1.524 . S
C2437 C2438 1.397 . S
C2437 C2442 1.363 . S
C2438 H2415 0.950 . S
C2438 C2437 1.397 . S
C2438 C2439 1.334 . S
C2439 H2416 0.950 . S
C2439 C2438 1.334 . S
C2439 C2440 1.287 . S
C2440 C2439 1.287 . S
C2440 C2441 1.524 . S
C2440 H2459 0.913 . S
C2441 H2417 0.950 . S
C2441 C2440 1.524 . S
C2441 C2442 1.415 . S
C2442 H2418 0.950 . S
C2442 C2437 1.363 . S
C2442 C2441 1.415 . S
C2443 H2419 0.951 . S
C2443 C2444 1.366 . S
C2443 C2445 1.388 . S
C2444 C2443 1.366 . S
C2444 C2448 1.385 . S
C2445 H2420 0.951 . S
C2445 C2443 1.388 . S
C2445 C2446 1.366 . S
C2446 C2445 1.366 . S
C2446 C2447 1.414 . S
C2446 C2449 1.499 . S
C2447 H2421 0.950 . S
C2447 C2446 1.414 . S
C2447 C2448 1.374 . S
C2448 H2422 0.950 . S
C2448 C2444 1.385 . S
C2448 C2447 1.374 . S
C2449 C2446 1.499 . S
C2449 C2450 1.373 . S
C2449 C2451 1.389 . S
C2450 H2423 0.950 . S
C2450 C2436 1.377 . S
C2450 C2449 1.373 . S
C2451 C2435 1.377 . S
C2451 C2449 1.389 . S
C2451 C2452 1.524 . S
C2452 C2451 1.524 . S
C2452 C2453 1.397 . S
C2452 C2457 1.363 . S
C2453 H2424 0.950 . S
C2453 C2452 1.397 . S
C2453 C2454 1.334 . S
C2454 H2425 0.950 . S
C2454 C2453 1.334 . S
C2454 C2455 1.287 . S
C2455 C2454 1.287 . S
C2455 C2456 1.524 . S
C2455 H2458 0.999 . S
C2456 H2426 0.950 . S
C2456 C2455 1.524 . S
C2456 C2457 1.415 . S
C2457 H2427 0.950 . S
C2457 C2452 1.363 . S
C2457 C2456 1.415 . S
H2458 C2455 0.999 . S
H2459 C2440 0.913 . S
H2460 C2478 0.951 . S
H2461 C2480 0.951 . S
H2462 C2482 0.950 . S
H2463 C2483 0.950 . S
H2464 C2485 0.950 . S
H2465 C2488 0.950 . S
H2466 C2489 0.950 . S
H2467 C2491 0.950 . S
H2468 C2492 0.950 . S
H2469 C2493 0.951 . S
H2470 C2495 0.951 . S
H2471 C2497 0.950 . S
H2472 C2498 0.950 . S
H2473 C2500 0.950 . S
H2474 C2503 0.950 . S
H2475 C2504 0.950 . S
H2476 C2506 0.950 . S
H2477 C2507 0.950 . S
C2478 H2460 0.951 . S
C2478 C2479 1.366 . S
C2478 C2480 1.388 . S
C2479 C2478 1.366 . S
C2479 C2483 1.385 . S
C2480 H2461 0.951 . S
C2480 C2478 1.388 . S
C2480 C2481 1.366 . S
C2481 C2480 1.366 . S
C2481 C2482 1.414 . S
C2481 C2484 1.499 . S
C2482 H2462 0.950 . S
C2482 C2481 1.414 . S
C2482 C2483 1.374 . S
C2483 H2463 0.950 . S
C2483 C2479 1.385 . S
C2483 C2482 1.374 . S
C2484 C2481 1.499 . S
C2484 C2485 1.373 . S
C2484 C2486 1.389 . S
C2485 H2464 0.950 . S
C2485 C2484 1.373 . S
C2485 C2501 1.377 . S
C2486 C2484 1.389 . S
C2486 C2487 1.524 . S
C2486 C2500 1.377 . S
C2487 C2486 1.524 . S
C2487 C2488 1.397 . S
C2487 C2492 1.363 . S
C2488 H2465 0.950 . S
C2488 C2487 1.397 . S
C2488 C2489 1.334 . S
C2489 H2466 0.950 . S
C2489 C2488 1.334 . S
C2489 C2490 1.287 . S
C2490 C2489 1.287 . S
C2490 C2491 1.524 . S
C2490 H2509 0.913 . S
C2491 H2467 0.950 . S
C2491 C2490 1.524 . S
C2491 C2492 1.415 . S
C2492 H2468 0.950 . S
C2492 C2487 1.363 . S
C2492 C2491 1.415 . S
C2493 H2469 0.951 . S
C2493 C2494 1.366 . S
C2493 C2495 1.388 . S
C2494 C2493 1.366 . S
C2494 C2498 1.385 . S
C2495 H2470 0.951 . S
C2495 C2493 1.388 . S
C2495 C2496 1.366 . S
C2496 C2495 1.366 . S
C2496 C2497 1.414 . S
C2496 C2499 1.499 . S
C2497 H2471 0.950 . S
C2497 C2496 1.414 . S
C2497 C2498 1.374 . S
C2498 H2472 0.950 . S
C2498 C2494 1.385 . S
C2498 C2497 1.374 . S
C2499 C2496 1.499 . S
C2499 C2500 1.373 . S
C2499 C2501 1.389 . S
C2500 H2473 0.950 . S
C2500 C2486 1.377 . S
C2500 C2499 1.373 . S
C2501 C2485 1.377 . S
C2501 C2499 1.389 . S
C2501 C2502 1.524 . S
C2502 C2501 1.524 . S
C2502 C2503 1.397 . S
C2502 C2507 1.363 . S
C2503 H2474 0.950 . S
C2503 C2502 1.397 . S
C2503 C2504 1.334 . S
C2504 H2475 0.950 . S
C2504 C2503 1.334 . S
C2504 C2505 1.287 . S
C2505 C2504 1.287 . S
C2505 C2506 1.524 . S
C2505 H2508 0.999 . S
C2506 H2476 0.950 . S
C2506 C2505 1.524 . S
C2506 C2507 1.415 . S
C2507 H2477 0.950 . S
C2507 C2502 1.363 . S
C2507 C2506 1.415 . S
H2508 C2505 0.999 . S
H2509 C2490 0.913 . S
H2510 C2528 0.951 . S
H2511 C2530 0.951 . S
H2512 C2532 0.950 . S
H2513 C2533 0.950 . S
H2514 C2535 0.950 . S
H2515 C2538 0.950 . S
H2516 C2539 0.950 . S
H2517 C2541 0.950 . S
H2518 C2542 0.950 . S
H2519 C2543 0.951 . S
H2520 C2545 0.951 . S
H2521 C2547 0.950 . S
H2522 C2548 0.950 . S
H2523 C2550 0.950 . S
H2524 C2553 0.950 . S
H2525 C2554 0.950 . S
H2526 C2556 0.950 . S
H2527 C2557 0.950 . S
C2528 H2510 0.951 . S
C2528 C2529 1.366 . S
C2528 C2530 1.388 . S
C2529 C2528 1.366 . S
C2529 C2533 1.385 . S
C2530 H2511 0.951 . S
C2530 C2528 1.388 . S
C2530 C2531 1.366 . S
C2531 C2530 1.366 . S
C2531 C2532 1.414 . S
C2531 C2534 1.499 . S
C2532 H2512 0.950 . S
C2532 C2531 1.414 . S
C2532 C2533 1.374 . S
C2533 H2513 0.950 . S
C2533 C2529 1.385 . S
C2533 C2532 1.374 . S
C2534 C2531 1.499 . S
C2534 C2535 1.373 . S
C2534 C2536 1.389 . S
C2535 H2514 0.950 . S
C2535 C2534 1.373 . S
C2535 C2551 1.377 . S
C2536 C2534 1.389 . S
C2536 C2537 1.524 . S
C2536 C2550 1.377 . S
C2537 C2536 1.524 . S
C2537 C2538 1.397 . S
C2537 C2542 1.363 . S
C2538 H2515 0.950 . S
C2538 C2537 1.397 . S
C2538 C2539 1.334 . S
C2539 H2516 0.950 . S
C2539 C2538 1.334 . S
C2539 C2540 1.287 . S
C2540 C2539 1.287 . S
C2540 C2541 1.524 . S
C2540 H2559 0.913 . S
C2541 H2517 0.950 . S
C2541 C2540 1.524 . S
C2541 C2542 1.415 . S
C2542 H2518 0.950 . S
C2542 C2537 1.363 . S
C2542 C2541 1.415 . S
C2543 H2519 0.951 . S
C2543 C2544 1.366 . S
C2543 C2545 1.388 . S
C2544 C2543 1.366 . S
C2544 C2548 1.385 . S
C2545 H2520 0.951 . S
C2545 C2543 1.388 . S
C2545 C2546 1.366 . S
C2546 C2545 1.366 . S
C2546 C2547 1.414 . S
C2546 C2549 1.499 . S
C2547 H2521 0.950 . S
C2547 C2546 1.414 . S
C2547 C2548 1.374 . S
C2548 H2522 0.950 . S
C2548 C2544 1.385 . S
C2548 C2547 1.374 . S
C2549 C2546 1.499 . S
C2549 C2550 1.373 . S
C2549 C2551 1.389 . S
C2550 H2523 0.950 . S
C2550 C2536 1.377 . S
C2550 C2549 1.373 . S
C2551 C2535 1.377 . S
C2551 C2549 1.389 . S
C2551 C2552 1.524 . S
C2552 C2551 1.524 . S
C2552 C2553 1.397 . S
C2552 C2557 1.363 . S
C2553 H2524 0.950 . S
C2553 C2552 1.397 . S
C2553 C2554 1.334 . S
C2554 H2525 0.950 . S
C2554 C2553 1.334 . S
C2554 C2555 1.287 . S
C2555 C2554 1.287 . S
C2555 C2556 1.524 . S
C2555 H2558 0.999 . S
C2556 H2526 0.950 . S
C2556 C2555 1.524 . S
C2556 C2557 1.415 . S
C2557 H2527 0.950 . S
C2557 C2552 1.363 . S
C2557 C2556 1.415 . S
H2558 C2555 0.999 . S
H2559 C2540 0.913 . S
H2560 C2578 0.951 . S
H2561 C2580 0.951 . S
H2562 C2582 0.950 . S
H2563 C2583 0.950 . S
H2564 C2585 0.950 . S
H2565 C2588 0.950 . S
H2566 C2589 0.950 . S
H2567 C2591 0.950 . S
H2568 C2592 0.950 . S
H2569 C2593 0.951 . S
H2570 C2595 0.951 . S
H2571 C2597 0.950 . S
H2572 C2598 0.950 . S
H2573 C2600 0.950 . S
H2574 C2603 0.950 . S
H2575 C2604 0.950 . S
H2576 C2606 0.950 . S
H2577 C2607 0.950 . S
C2578 H2560 0.951 . S
C2578 C2579 1.366 . S
C2578 C2580 1.388 . S
C2579 C2578 1.366 . S
C2579 C2583 1.385 . S
C2580 H2561 0.951 . S
C2580 C2578 1.388 . S
C2580 C2581 1.366 . S
C2581 C2580 1.366 . S
C2581 C2582 1.414 . S
C2581 C2584 1.499 . S
C2582 H2562 0.950 . S
C2582 C2581 1.414 . S
C2582 C2583 1.374 . S
C2583 H2563 0.950 . S
C2583 C2579 1.385 . S
C2583 C2582 1.374 . S
C2584 C2581 1.499 . S
C2584 C2585 1.373 . S
C2584 C2586 1.389 . S
C2585 H2564 0.950 . S
C2585 C2584 1.373 . S
C2585 C2601 1.377 . S
C2586 C2584 1.389 . S
C2586 C2587 1.524 . S
C2586 C2600 1.377 . S
C2587 C2586 1.524 . S
C2587 C2588 1.397 . S
C2587 C2592 1.363 . S
C2588 H2565 0.950 . S
C2588 C2587 1.397 . S
C2588 C2589 1.334 . S
C2589 H2566 0.950 . S
C2589 C2588 1.334 . S
C2589 C2590 1.287 . S
C2590 C2589 1.287 . S
C2590 C2591 1.524 . S
C2590 H2609 0.913 . S
C2591 H2567 0.950 . S
C2591 C2590 1.524 . S
C2591 C2592 1.415 . S
C2592 H2568 0.950 . S
C2592 C2587 1.363 . S
C2592 C2591 1.415 . S
C2593 H2569 0.951 . S
C2593 C2594 1.366 . S
C2593 C2595 1.388 . S
C2594 C2593 1.366 . S
C2594 C2598 1.385 . S
C2595 H2570 0.951 . S
C2595 C2593 1.388 . S
C2595 C2596 1.366 . S
C2596 C2595 1.366 . S
C2596 C2597 1.414 . S
C2596 C2599 1.499 . S
C2597 H2571 0.950 . S
C2597 C2596 1.414 . S
C2597 C2598 1.374 . S
C2598 H2572 0.950 . S
C2598 C2594 1.385 . S
C2598 C2597 1.374 . S
C2599 C2596 1.499 . S
C2599 C2600 1.373 . S
C2599 C2601 1.389 . S
C2600 H2573 0.950 . S
C2600 C2586 1.377 . S
C2600 C2599 1.373 . S
C2601 C2585 1.377 . S
C2601 C2599 1.389 . S
C2601 C2602 1.524 . S
C2602 C2601 1.524 . S
C2602 C2603 1.397 . S
C2602 C2607 1.363 . S
C2603 H2574 0.950 . S
C2603 C2602 1.397 . S
C2603 C2604 1.334 1_556 S
C2604 H2575 0.950 . S
C2604 C2603 1.334 1_554 S
C2604 C2605 1.287 . S
C2605 C2604 1.287 . S
C2605 C2606 1.524 1_554 S
C2605 H2608 0.999 . S
C2606 H2576 0.950 . S
C2606 C2605 1.524 1_556 S
C2606 C2607 1.415 . S
C2607 H2577 0.950 . S
C2607 C2602 1.363 . S
C2607 C2606 1.415 . S
H2608 C2605 0.999 . S
H2609 C2590 0.913 . S
H2610 C2628 0.951 . S
H2611 C2630 0.951 . S
H2612 C2632 0.950 . S
H2613 C2633 0.950 . S
H2614 C2635 0.950 . S
H2615 C2638 0.950 . S
H2616 C2639 0.950 . S
H2617 C2641 0.950 . S
H2618 C2642 0.950 . S
H2619 C2643 0.951 . S
H2620 C2645 0.951 . S
H2621 C2647 0.950 . S
H2622 C2648 0.950 . S
H2623 C2650 0.950 . S
H2624 C2653 0.950 . S
H2625 C2654 0.950 . S
H2626 C2656 0.950 . S
H2627 C2657 0.950 . S
C2628 H2610 0.951 . S
C2628 C2629 1.366 . S
C2628 C2630 1.388 . S
C2629 C2628 1.366 . S
C2629 C2633 1.385 . S
C2630 H2611 0.951 . S
C2630 C2628 1.388 . S
C2630 C2631 1.366 . S
C2631 C2630 1.366 . S
C2631 C2632 1.414 . S
C2631 C2634 1.499 . S
C2632 H2612 0.950 . S
C2632 C2631 1.414 . S
C2632 C2633 1.374 . S
C2633 H2613 0.950 . S
C2633 C2629 1.385 . S
C2633 C2632 1.374 . S
C2634 C2631 1.499 . S
C2634 C2635 1.373 . S
C2634 C2636 1.389 . S
C2635 H2614 0.950 . S
C2635 C2634 1.373 . S
C2635 C2651 1.377 . S
C2636 C2634 1.389 . S
C2636 C2637 1.524 . S
C2636 C2650 1.377 . S
C2637 C2636 1.524 . S
C2637 C2638 1.397 . S
C2637 C2642 1.363 . S
C2638 H2615 0.950 . S
C2638 C2637 1.397 . S
C2638 C2639 1.334 . S
C2639 H2616 0.950 . S
C2639 C2638 1.334 . S
C2639 C2640 1.287 . S
C2640 C2639 1.287 . S
C2640 C2641 1.524 . S
C2640 H2659 0.913 . S
C2641 H2617 0.950 . S
C2641 C2640 1.524 . S
C2641 C2642 1.415 . S
C2642 H2618 0.950 . S
C2642 C2637 1.363 . S
C2642 C2641 1.415 . S
C2643 H2619 0.951 . S
C2643 C2644 1.366 . S
C2643 C2645 1.388 . S
C2644 C2643 1.366 . S
C2644 C2648 1.385 . S
C2645 H2620 0.951 . S
C2645 C2643 1.388 . S
C2645 C2646 1.366 . S
C2646 C2645 1.366 . S
C2646 C2647 1.414 . S
C2646 C2649 1.499 . S
C2647 H2621 0.950 . S
C2647 C2646 1.414 . S
C2647 C2648 1.374 . S
C2648 H2622 0.950 . S
C2648 C2644 1.385 . S
C2648 C2647 1.374 . S
C2649 C2646 1.499 . S
C2649 C2650 1.373 . S
C2649 C2651 1.389 . S
C2650 H2623 0.950 . S
C2650 C2636 1.377 . S
C2650 C2649 1.373 . S
C2651 C2635 1.377 . S
C2651 C2649 1.389 . S
C2651 C2652 1.524 . S
C2652 C2651 1.524 . S
C2652 C2653 1.397 . S
C2652 C2657 1.363 . S
C2653 H2624 0.950 . S
C2653 C2652 1.397 . S
C2653 C2654 1.334 . S
C2654 H2625 0.950 . S
C2654 C2653 1.334 . S
C2654 C2655 1.287 . S
C2655 C2654 1.287 . S
C2655 C2656 1.524 . S
C2655 H2658 0.999 . S
C2656 H2626 0.950 . S
C2656 C2655 1.524 . S
C2656 C2657 1.415 . S
C2657 H2627 0.950 . S
C2657 C2652 1.363 . S
C2657 C2656 1.415 . S
H2658 C2655 0.999 . S
H2659 C2640 0.913 . S
H2660 C2678 0.951 . S
H2661 C2680 0.951 . S
H2662 C2682 0.950 . S
H2663 C2683 0.950 . S
H2664 C2685 0.950 . S
H2665 C2688 0.950 . S
H2666 C2689 0.950 . S
H2667 C2691 0.950 . S
H2668 C2692 0.950 . S
H2669 C2693 0.951 . S
H2670 C2695 0.951 . S
H2671 C2697 0.950 . S
H2672 C2698 0.950 . S
H2673 C2700 0.950 . S
H2674 C2703 0.950 . S
H2675 C2704 0.950 1_556 S
H2676 C2706 0.950 . S
H2677 C2707 0.950 . S
C2678 H2660 0.951 . S
C2678 C2679 1.366 . S
C2678 C2680 1.388 . S
C2679 C2678 1.366 . S
C2679 C2683 1.385 . S
C2680 H2661 0.951 . S
C2680 C2678 1.388 . S
C2680 C2681 1.366 . S
C2681 C2680 1.366 . S
C2681 C2682 1.414 . S
C2681 C2684 1.499 . S
C2682 H2662 0.950 . S
C2682 C2681 1.414 . S
C2682 C2683 1.374 . S
C2683 H2663 0.950 . S
C2683 C2679 1.385 . S
C2683 C2682 1.374 . S
C2684 C2681 1.499 . S
C2684 C2685 1.373 . S
C2684 C2686 1.389 . S
C2685 H2664 0.950 . S
C2685 C2684 1.373 . S
C2685 C2701 1.377 . S
C2686 C2684 1.389 . S
C2686 C2687 1.524 . S
C2686 C2700 1.377 . S
C2687 C2686 1.524 . S
C2687 C2688 1.397 . S
C2687 C2692 1.363 . S
C2688 H2665 0.950 . S
C2688 C2687 1.397 . S
C2688 C2689 1.334 . S
C2689 H2666 0.950 . S
C2689 C2688 1.334 . S
C2689 C2690 1.287 . S
C2690 C2689 1.287 . S
C2690 C2691 1.524 . S
C2690 H2709 0.913 . S
C2691 H2667 0.950 . S
C2691 C2690 1.524 . S
C2691 C2692 1.415 . S
C2692 H2668 0.950 . S
C2692 C2687 1.363 . S
C2692 C2691 1.415 . S
C2693 H2669 0.951 . S
C2693 C2694 1.366 . S
C2693 C2695 1.388 . S
C2694 C2693 1.366 . S
C2694 C2698 1.385 . S
C2695 H2670 0.951 . S
C2695 C2693 1.388 . S
C2695 C2696 1.366 . S
C2696 C2695 1.366 . S
C2696 C2697 1.414 . S
C2696 C2699 1.499 . S
C2697 H2671 0.950 . S
C2697 C2696 1.414 . S
C2697 C2698 1.374 . S
C2698 H2672 0.950 . S
C2698 C2694 1.385 . S
C2698 C2697 1.374 . S
C2699 C2696 1.499 . S
C2699 C2700 1.373 . S
C2699 C2701 1.389 . S
C2700 H2673 0.950 . S
C2700 C2686 1.377 . S
C2700 C2699 1.373 . S
C2701 C2685 1.377 . S
C2701 C2699 1.389 . S
C2701 C2702 1.524 . S
C2702 C2701 1.524 . S
C2702 C2703 1.397 . S
C2702 C2707 1.363 . S
C2703 H2674 0.950 . S
C2703 C2702 1.397 . S
C2703 C2704 1.334 . S
C2704 H2675 0.950 1_554 S
C2704 C2703 1.334 . S
C2704 C2705 1.287 . S
C2705 C2704 1.287 . S
C2705 C2706 1.524 . S
C2705 H2708 1.017 . S
C2706 H2676 0.950 . S
C2706 C2705 1.524 . S
C2706 C2707 1.415 . S
C2707 H2677 0.950 . S
C2707 C2702 1.363 . S
C2707 C2706 1.415 . S
H2708 C2705 1.017 . S
H2709 C2690 0.913 . S
H2710 C2728 0.951 . S
H2711 C2730 0.951 . S
H2712 C2732 0.950 . S
H2713 C2733 0.950 . S
H2714 C2735 0.950 . S
H2715 C2738 0.950 . S
H2716 C2739 0.950 . S
H2717 C2741 0.950 . S
H2718 C2742 0.950 . S
H2719 C2743 0.951 . S
H2720 C2745 0.951 . S
H2721 C2747 0.950 . S
H2722 C2748 0.950 . S
H2723 C2750 0.950 . S
H2724 C2753 0.950 . S
H2725 C2754 0.950 . S
H2726 C2756 0.950 . S
H2727 C2757 0.950 . S
C2728 H2710 0.951 . S
C2728 C2729 1.366 . S
C2728 C2730 1.388 . S
C2729 C2728 1.366 . S
C2729 C2733 1.385 . S
C2730 H2711 0.951 . S
C2730 C2728 1.388 . S
C2730 C2731 1.366 . S
C2731 C2730 1.366 . S
C2731 C2732 1.414 . S
C2731 C2734 1.499 . S
C2732 H2712 0.950 . S
C2732 C2731 1.414 . S
C2732 C2733 1.374 . S
C2733 H2713 0.950 . S
C2733 C2729 1.385 . S
C2733 C2732 1.374 . S
C2734 C2731 1.499 . S
C2734 C2735 1.373 . S
C2734 C2736 1.389 . S
C2735 H2714 0.950 . S
C2735 C2734 1.373 . S
C2735 C2751 1.377 . S
C2736 C2734 1.389 . S
C2736 C2737 1.524 . S
C2736 C2750 1.377 . S
C2737 C2736 1.524 . S
C2737 C2738 1.397 . S
C2737 C2742 1.363 . S
C2738 H2715 0.950 . S
C2738 C2737 1.397 . S
C2738 C2739 1.334 . S
C2739 H2716 0.950 . S
C2739 C2738 1.334 . S
C2739 C2740 1.287 . S
C2740 C2739 1.287 . S
C2740 C2741 1.524 . S
C2740 H2759 0.913 . S
C2741 H2717 0.950 . S
C2741 C2740 1.524 . S
C2741 C2742 1.415 . S
C2742 H2718 0.950 . S
C2742 C2737 1.363 . S
C2742 C2741 1.415 . S
C2743 H2719 0.951 . S
C2743 C2744 1.366 1_545 S
C2743 C2745 1.388 . S
C2744 C2743 1.366 1_565 S
C2744 C2748 1.385 . S
C2745 H2720 0.951 . S
C2745 C2743 1.388 . S
C2745 C2746 1.366 . S
C2746 C2745 1.366 . S
C2746 C2747 1.414 . S
C2746 C2749 1.499 . S
C2747 H2721 0.950 . S
C2747 C2746 1.414 . S
C2747 C2748 1.374 1_545 S
C2748 H2722 0.950 . S
C2748 C2744 1.385 . S
C2748 C2747 1.374 1_565 S
C2749 C2746 1.499 . S
C2749 C2750 1.373 . S
C2749 C2751 1.389 . S
C2750 H2723 0.950 . S
C2750 C2736 1.377 . S
C2750 C2749 1.373 . S
C2751 C2735 1.377 . S
C2751 C2749 1.389 . S
C2751 C2752 1.524 . S
C2752 C2751 1.524 . S
C2752 C2753 1.397 . S
C2752 C2757 1.363 . S
C2753 H2724 0.950 . S
C2753 C2752 1.397 . S
C2753 C2754 1.334 . S
C2754 H2725 0.950 . S
C2754 C2753 1.334 . S
C2754 C2755 1.287 . S
C2755 C2754 1.287 . S
C2755 C2756 1.524 . S
C2755 H2758 0.999 . S
C2756 H2726 0.950 . S
C2756 C2755 1.524 . S
C2756 C2757 1.415 . S
C2757 H2727 0.950 . S
C2757 C2752 1.363 . S
C2757 C2756 1.415 . S
H2758 C2755 0.999 . S
H2759 C2740 0.913 . S
C394 C200 1.909 . S
C379 C66 1.921 . S
C444 C215 1.351 . S
C429 C76 1.359 . S
C479 C93 2.175 . S
C494 C228 2.162 . S
C544 C242 1.405 . S
C529 C54 1.405 . S
C594 C254 1.690 . S
C579 C126 1.782 . S
C644 C268 1.584 . S
C629 C150 1.606 . S
C679 C136 1.341 . S
C694 C282 1.334 . S
C744 C297 1.650 . S
C729 C117 1.710 . S
C779 C141 1.357 . S
C794 C313 1.335 . S
C844 C326 1.312 . S
C829 C112 1.300 . S
C879 C124 1.697 . S
C894 C311 1.639 . S
C944 C324 1.251 . S
C929 C148 1.244 . S
C979 C88 1.650 . S
C994 C340 1.640 . S
C1029 C52 1.603 . S
C1044 C339 1.590 . S
C1079 C64 1.457 . S
C1094 C338 1.421 . S
C1129 C78 1.262 . S
C1144 C341 1.242 1_655 S
C1179 C45 2.020 . S
C1194 C243 2.006 . S
C1229 C177 1.826 . S
C1244 C241 1.791 . S
C1294 C201 1.294 . S
C1279 C189 1.316 . S
C1344 C212 1.862 . S
C1329 C102 1.897 . S
C1379 C57 1.645 . S
C1394 C257 1.632 . S
C1444 C298 1.957 . S
C1429 C138 1.958 . S
C1494 C255 1.843 . S
C1479 C114 1.883 . S
C1544 C283 1.577 . S
C1529 C153 1.592 . S
C1594 C284 1.909 . S
C1579 C174 1.922 . S
C1629 C184 1.360 . S
C1644 C299 1.352 . S
C1679 C105 2.175 . S
C1694 C256 2.163 . S
C1744 C270 1.405 . S
C1729 C162 1.405 . S
C1779 C42 1.782 . S
C1794 C226 1.689 . S
C1844 C240 1.584 . S
C1829 C6 1.606 . S
C1894 C198 1.334 . S
C1879 C16 1.341 . S
C1944 C213 1.651 . S
C1929 C33 1.710 . S
C1979 C21 1.358 . S
C1994 C327 1.335 . S
C2029 C28 1.300 . S
C2044 C312 1.311 . S
C2079 C40 1.697 . S
C2094 C325 1.638 . S
C2129 C4 1.243 . S
C2144 C310 1.251 . S
C2194 C354 1.640 . S
C2179 C100 1.650 . S
C2244 C353 1.590 . S
C2229 C160 1.603 . S
C2294 C352 1.421 . S
C2279 C172 1.456 . S
C2329 C186 1.262 . S
C2344 C355 1.241 . S
C2379 C129 2.020 . S
C2394 C271 2.006 . S
C2444 C269 1.790 . S
C2429 C69 1.826 . S
C2494 C285 1.294 . S
C2479 C81 1.317 . S
C2544 C296 1.862 . S
C2529 C90 1.897 . S
C2579 C165 1.645 . S
C2594 C229 1.632 . S
C2644 C214 1.957 . S
C2629 C18 1.958 . S
C2679 C30 1.883 . S
C2694 C227 1.844 . S
C2744 C199 1.577 . S
C2729 C9 1.592 . S
