# Generated by pormake.
# Topology eea, (3,6)-cn, num edge types: 1
# Building blocks:
#     Node 0, Type 0, BuildingBlock: BETDIP_clean_linker_0, # of connection points: 3
#     Node 1, Type 0, BuildingBlock: BETDIP_clean_linker_0, # of connection points: 3
#     Node 2, Type 0, BuildingBlock: BETDIP_clean_linker_0, # of connection points: 3
#     Node 3, Type 0, BuildingBlock: BETDIP_clean_linker_0, # of connection points: 3
#     Node 4, Type 0, BuildingBlock: BETDIP_clean_linker_0, # of connection points: 3
#     Node 5, Type 0, BuildingBlock: BETDIP_clean_linker_0, # of connection points: 3
#     Node 6, Type 0, BuildingBlock: BETDIP_clean_linker_0, # of connection points: 3
#     Node 7, Type 0, BuildingBlock: BETDIP_clean_linker_0, # of connection points: 3
#     Node 8, Type 0, BuildingBlock: BETDIP_clean_linker_0, # of connection points: 3
#     Node 9, Type 0, BuildingBlock: BETDIP_clean_linker_0, # of connection points: 3
#     Node 10, Type 0, BuildingBlock: BETDIP_clean_linker_0, # of connection points: 3
#     Node 11, Type 0, BuildingBlock: BETDIP_clean_linker_0, # of connection points: 3
#     Node 12, Type 0, BuildingBlock: BETDIP_clean_linker_0, # of connection points: 3
#     Node 13, Type 0, BuildingBlock: BETDIP_clean_linker_0, # of connection points: 3
#     Node 14, Type 0, BuildingBlock: BETDIP_clean_linker_0, # of connection points: 3
#     Node 15, Type 0, BuildingBlock: BETDIP_clean_linker_0, # of connection points: 3
#     Node 16, Type 0, BuildingBlock: BETDIP_clean_linker_0, # of connection points: 3
#     Node 17, Type 0, BuildingBlock: BETDIP_clean_linker_0, # of connection points: 3
#     Node 18, Type 1, BuildingBlock: NUHQIS_clean_sbu_0, # of connection points: 6
#     Node 19, Type 1, BuildingBlock: NUHQIS_clean_sbu_0, # of connection points: 6
#     Node 20, Type 1, BuildingBlock: NUHQIS_clean_sbu_0, # of connection points: 6
#     Node 21, Type 1, BuildingBlock: NUHQIS_clean_sbu_0, # of connection points: 6
#     Node 22, Type 1, BuildingBlock: NUHQIS_clean_sbu_0, # of connection points: 6
#     Node 23, Type 1, BuildingBlock: NUHQIS_clean_sbu_0, # of connection points: 6
#     Node 24, Type 1, BuildingBlock: NUHQIS_clean_sbu_0, # of connection points: 6
#     Node 25, Type 1, BuildingBlock: NUHQIS_clean_sbu_0, # of connection points: 6
#     Node 26, Type 1, BuildingBlock: NUHQIS_clean_sbu_0, # of connection points: 6
#     Edge 27, Type (0, 1), BuildingBlock: EZIPEK_clean_linker_0, # of connection points: 2
#     Edge 28, Type (0, 1), BuildingBlock: EZIPEK_clean_linker_0, # of connection points: 2
#     Edge 29, Type (0, 1), BuildingBlock: EZIPEK_clean_linker_0, # of connection points: 2
#     Edge 30, Type (0, 1), BuildingBlock: EZIPEK_clean_linker_0, # of connection points: 2
#     Edge 31, Type (0, 1), BuildingBlock: EZIPEK_clean_linker_0, # of connection points: 2
#     Edge 32, Type (0, 1), BuildingBlock: EZIPEK_clean_linker_0, # of connection points: 2
#     Edge 33, Type (0, 1), BuildingBlock: EZIPEK_clean_linker_0, # of connection points: 2
#     Edge 34, Type (0, 1), BuildingBlock: EZIPEK_clean_linker_0, # of connection points: 2
#     Edge 35, Type (0, 1), BuildingBlock: EZIPEK_clean_linker_0, # of connection points: 2
#     Edge 36, Type (0, 1), BuildingBlock: EZIPEK_clean_linker_0, # of connection points: 2
#     Edge 37, Type (0, 1), BuildingBlock: EZIPEK_clean_linker_0, # of connection points: 2
#     Edge 38, Type (0, 1), BuildingBlock: EZIPEK_clean_linker_0, # of connection points: 2
#     Edge 39, Type (0, 1), BuildingBlock: EZIPEK_clean_linker_0, # of connection points: 2
#     Edge 40, Type (0, 1), BuildingBlock: EZIPEK_clean_linker_0, # of connection points: 2
#     Edge 41, Type (0, 1), BuildingBlock: EZIPEK_clean_linker_0, # of connection points: 2
#     Edge 42, Type (0, 1), BuildingBlock: EZIPEK_clean_linker_0, # of connection points: 2
#     Edge 43, Type (0, 1), BuildingBlock: EZIPEK_clean_linker_0, # of connection points: 2
#     Edge 44, Type (0, 1), BuildingBlock: EZIPEK_clean_linker_0, # of connection points: 2
#     Edge 45, Type (0, 1), BuildingBlock: EZIPEK_clean_linker_0, # of connection points: 2
#     Edge 46, Type (0, 1), BuildingBlock: EZIPEK_clean_linker_0, # of connection points: 2
#     Edge 47, Type (0, 1), BuildingBlock: EZIPEK_clean_linker_0, # of connection points: 2
#     Edge 48, Type (0, 1), BuildingBlock: EZIPEK_clean_linker_0, # of connection points: 2
#     Edge 49, Type (0, 1), BuildingBlock: EZIPEK_clean_linker_0, # of connection points: 2
#     Edge 50, Type (0, 1), BuildingBlock: EZIPEK_clean_linker_0, # of connection points: 2
#     Edge 51, Type (0, 1), BuildingBlock: EZIPEK_clean_linker_0, # of connection points: 2
#     Edge 52, Type (0, 1), BuildingBlock: EZIPEK_clean_linker_0, # of connection points: 2
#     Edge 53, Type (0, 1), BuildingBlock: EZIPEK_clean_linker_0, # of connection points: 2
#     Edge 54, Type (0, 1), BuildingBlock: EZIPEK_clean_linker_0, # of connection points: 2
#     Edge 55, Type (0, 1), BuildingBlock: EZIPEK_clean_linker_0, # of connection points: 2
#     Edge 56, Type (0, 1), BuildingBlock: EZIPEK_clean_linker_0, # of connection points: 2
#     Edge 57, Type (0, 1), BuildingBlock: EZIPEK_clean_linker_0, # of connection points: 2
#     Edge 58, Type (0, 1), BuildingBlock: EZIPEK_clean_linker_0, # of connection points: 2
#     Edge 59, Type (0, 1), BuildingBlock: EZIPEK_clean_linker_0, # of connection points: 2
#     Edge 60, Type (0, 1), BuildingBlock: EZIPEK_clean_linker_0, # of connection points: 2
#     Edge 61, Type (0, 1), BuildingBlock: EZIPEK_clean_linker_0, # of connection points: 2
#     Edge 62, Type (0, 1), BuildingBlock: EZIPEK_clean_linker_0, # of connection points: 2
#     Edge 63, Type (0, 1), BuildingBlock: EZIPEK_clean_linker_0, # of connection points: 2
#     Edge 64, Type (0, 1), BuildingBlock: EZIPEK_clean_linker_0, # of connection points: 2
#     Edge 65, Type (0, 1), BuildingBlock: EZIPEK_clean_linker_0, # of connection points: 2
#     Edge 66, Type (0, 1), BuildingBlock: EZIPEK_clean_linker_0, # of connection points: 2
#     Edge 67, Type (0, 1), BuildingBlock: EZIPEK_clean_linker_0, # of connection points: 2
#     Edge 68, Type (0, 1), BuildingBlock: EZIPEK_clean_linker_0, # of connection points: 2
#     Edge 69, Type (0, 1), BuildingBlock: EZIPEK_clean_linker_0, # of connection points: 2
#     Edge 70, Type (0, 1), BuildingBlock: EZIPEK_clean_linker_0, # of connection points: 2
#     Edge 71, Type (0, 1), BuildingBlock: EZIPEK_clean_linker_0, # of connection points: 2
#     Edge 72, Type (0, 1), BuildingBlock: EZIPEK_clean_linker_0, # of connection points: 2
#     Edge 73, Type (0, 1), BuildingBlock: EZIPEK_clean_linker_0, # of connection points: 2
#     Edge 74, Type (0, 1), BuildingBlock: EZIPEK_clean_linker_0, # of connection points: 2
#     Edge 75, Type (0, 1), BuildingBlock: EZIPEK_clean_linker_0, # of connection points: 2
#     Edge 76, Type (0, 1), BuildingBlock: EZIPEK_clean_linker_0, # of connection points: 2
#     Edge 77, Type (0, 1), BuildingBlock: EZIPEK_clean_linker_0, # of connection points: 2
#     Edge 78, Type (0, 1), BuildingBlock: EZIPEK_clean_linker_0, # of connection points: 2
#     Edge 79, Type (0, 1), BuildingBlock: EZIPEK_clean_linker_0, # of connection points: 2
#     Edge 80, Type (0, 1), BuildingBlock: EZIPEK_clean_linker_0, # of connection points: 2
# Relax obj value: 0.062
# Max RMSD: 0.228
# Mean RMSD: 0.163
data_MOF--net-eea--node1-NUHQIS_clean_sbu_0--node2-BETDIP_clean_linker_0--edge1-EZIPEK_clean_linker_0
_symmetry_space_group_name_H-M    P1
_symmetry_Int_Tables_number       1
_symmetry_cell_setting            triclinic
loop_
_symmetry_equiv_pos_as_xyz
'x, y, z'
_cell_length_a     39.701351
_cell_length_b     39.922124
_cell_length_c     54.325152
_cell_angle_alpha  93.029778
_cell_angle_beta   93.122006
_cell_angle_gamma 119.85198
loop_
_atom_site_label
_atom_site_type_symbol
_atom_site_fract_x
_atom_site_fract_y
_atom_site_fract_z
_atom_type_partial_charge
H0 H 0.22597 0.0898 0.37654 0.0
H1 H 0.27622 0.1767 0.43868 0.0
H2 H 0.28362 0.07318 0.44018 0.0
H3 H 0.28507 0.217 0.40624 0.0
C4 C 0.25577 0.19979 0.39702 0.0
C5 C 0.24224 0.1003 0.39462 0.0
C6 C 0.25432 0.07744 0.40689 0.0
C7 C 0.25131 0.13679 0.40546 0.0
C8 C 0.27093 0.14961 0.42941 0.0
C9 C 0.28227 0.12651 0.44198 0.0
C10 C 0.27484 0.09101 0.43042 0.0
N11 N 0.23848 0.15897 0.39248 0.0
H12 H 0.93864 0.13306 0.38527 0.0
H13 H 0.87589 0.11635 0.44985 0.0
H14 H 0.97793 0.22614 0.44323 0.0
H15 H 0.82477 0.07647 0.42104 0.0
C16 C 0.83752 0.06106 0.41202 0.0
C17 C 0.93541 0.1441 0.40312 0.0
C18 C 0.96255 0.18232 0.41278 0.0
C19 C 0.90387 0.12019 0.4162 0.0
C20 C 0.8997 0.1346 0.43927 0.0
C21 C 0.926 0.17276 0.44895 0.0
C22 C 0.95763 0.19654 0.4358 0.0
N23 N 0.87669 0.08185 0.40586 0.0
H24 H 0.89108 0.81005 0.3873 0.0
H25 H 0.92643 0.76229 0.44606 0.0
H26 H 0.81677 0.75925 0.44541 0.0
H27 H 0.98507 0.79396 0.43234 0.0
C28 C 0.98148 0.79756 0.4129 0.0
C29 C 0.88552 0.79583 0.40429 0.0
C30 C 0.85045 0.78536 0.41489 0.0
C31 C 0.91341 0.78797 0.41525 0.0
C32 C 0.90591 0.76938 0.43738 0.0
C33 C 0.87125 0.75935 0.44847 0.0
C34 C 0.84361 0.76718 0.43702 0.0
N35 N 0.94789 0.79841 0.4031 0.0
H36 H 0.09864 0.21529 0.64689 0.0
H37 H 0.17054 0.26281 0.58703 0.0
H38 H 0.0619 0.26133 0.58794 0.0
H39 H 0.2009 0.2336 0.59977 0.0
C40 C 0.19649 0.22785 0.61894 0.0
C41 C 0.10385 0.22886 0.62966 0.0
C42 C 0.07652 0.23768 0.61893 0.0
C43 C 0.13762 0.23694 0.61822 0.0
C44 C 0.14433 0.25506 0.59599 0.0
C45 C 0.11711 0.26378 0.58496 0.0
C46 C 0.08308 0.25481 0.59643 0.0
N47 N 0.16395 0.22657 0.62968 0.0
H48 H 0.79287 0.87745 0.66014 0.0
H49 H 0.73105 0.89165 0.59837 0.0
H50 H 0.72958 0.78412 0.60406 0.0
H51 H 0.73525 0.94021 0.62242 0.0
C52 C 0.76366 0.95241 0.63271 0.0
C53 C 0.77333 0.86545 0.64329 0.0
C54 C 0.76107 0.82765 0.63346 0.0
C55 C 0.76206 0.88848 0.63086 0.0
C56 C 0.73678 0.87267 0.60898 0.0
C57 C 0.72024 0.83317 0.6001 0.0
C58 C 0.73568 0.81216 0.61168 0.0
N59 N 0.77786 0.92782 0.6403 0.0
H60 H 0.1404 0.92139 0.65143 0.0
H61 H 0.10014 0.83536 0.58879 0.0
H62 H 0.2095 0.94126 0.58982 0.0
H63 H 0.04252 0.81328 0.60323 0.0
C64 C 0.04679 0.82036 0.62312 0.0
C65 C 0.14447 0.91162 0.63342 0.0
C66 C 0.17823 0.93524 0.62199 0.0
C67 C 0.11568 0.87568 0.62165 0.0
C68 C 0.1213 0.86326 0.59818 0.0
C69 C 0.1551 0.88702 0.58668 0.0
C70 C 0.18347 0.92285 0.5987 0.0
N71 N 0.08188 0.8531 0.63411 0.0
H72 H 0.90407 0.42842 0.70774 0.0
H73 H 0.94952 0.51917 0.76747 0.0
H74 H 0.95371 0.41503 0.77641 0.0
H75 H 0.96034 0.55697 0.73335 0.0
C76 C 0.9311 0.53884 0.72421 0.0
C77 C 0.91844 0.43996 0.72624 0.0
C78 C 0.92854 0.41778 0.74085 0.0
C79 C 0.92674 0.47696 0.73538 0.0
C80 C 0.94437 0.49131 0.75966 0.0
C81 C 0.95404 0.46904 0.77447 0.0
C82 C 0.94651 0.43242 0.76495 0.0
N83 N 0.9148 0.49804 0.72046 0.0
H84 H 0.60586 0.46866 0.71665 0.0
H85 H 0.54298 0.44861 0.78143 0.0
H86 H 0.64657 0.55805 0.77719 0.0
H87 H 0.49271 0.40602 0.75504 0.0
C88 C 0.50561 0.39305 0.74364 0.0
C89 C 0.60273 0.47867 0.73487 0.0
C90 C 0.63043 0.51608 0.74549 0.0
C91 C 0.5709 0.45414 0.7475 0.0
C92 C 0.56693 0.46723 0.77109 0.0
C93 C 0.59378 0.50469 0.7817 0.0
C94 C 0.62581 0.52901 0.76903 0.0
N95 N 0.54369 0.41642 0.7362 0.0
H96 H 0.56417 0.14169 0.72346 0.0
H97 H 0.6023 0.09572 0.78196 0.0
H98 H 0.49246 0.09221 0.78282 0.0
H99 H 0.64242 0.09483 0.75516 0.0
C100 C 0.64814 0.11683 0.74252 0.0
C101 C 0.5594 0.12783 0.74057 0.0
C102 C 0.52505 0.11775 0.75189 0.0
C103 C 0.58743 0.11976 0.75095 0.0
C104 C 0.58093 0.10168 0.77326 0.0
C105 C 0.54672 0.0918 0.78487 0.0
C106 C 0.51899 0.10001 0.77407 0.0
N107 N 0.62187 0.13099 0.73867 0.0
H108 H 0.75241 0.53967 0.97698 0.0
H109 H 0.82129 0.58758 0.91589 0.0
H110 H 0.71532 0.59055 0.92147 0.0
H111 H 0.84452 0.54782 0.92531 0.0
C112 C 0.84562 0.54829 0.94533 0.0
C113 C 0.75705 0.55402 0.96007 0.0
C114 C 0.72997 0.56427 0.95082 0.0
C115 C 0.78989 0.56177 0.94759 0.0
C116 C 0.79579 0.58045 0.92558 0.0
C117 C 0.7689 0.59078 0.9161 0.0
C118 C 0.73616 0.58272 0.92881 0.0
N119 N 0.81668 0.55128 0.95808 0.0
H120 H 0.45864 0.20559 0.98986 0.0
H121 H 0.39411 0.22056 0.93017 0.0
H122 H 0.3923 0.11233 0.93418 0.0
H123 H 0.39365 0.264 0.95853 0.0
C124 C 0.4238 0.27824 0.9664 0.0
C125 C 0.4384 0.19374 0.97331 0.0
C126 C 0.42541 0.15586 0.96328 0.0
C127 C 0.42633 0.21678 0.96169 0.0
C128 C 0.40032 0.20129 0.94014 0.0
C129 C 0.38364 0.16196 0.93083 0.0
C130 C 0.39908 0.14054 0.94189 0.0
N131 N 0.44168 0.25584 0.97158 0.0
H132 H 0.80552 0.25457 0.98326 0.0
H133 H 0.76685 0.16741 0.92143 0.0
H134 H 0.87206 0.27657 0.92021 0.0
H135 H 0.71104 0.14052 0.93742 0.0
C136 C 0.71471 0.15024 0.9569 0.0
C137 C 0.80949 0.24493 0.96517 0.0
C138 C 0.842 0.26963 0.95305 0.0
C139 C 0.78165 0.20818 0.95397 0.0
C140 C 0.78719 0.19585 0.93045 0.0
C141 C 0.81982 0.22054 0.9183 0.0
C142 C 0.847 0.25739 0.92963 0.0
N143 N 0.74868 0.18501 0.96694 0.0
H144 H 0.56391 0.76037 0.03983 0.0
H145 H 0.61413 0.84375 0.10387 0.0
H146 H 0.60988 0.73428 0.10492 0.0
H147 H 0.62473 0.88676 0.07364 0.0
C148 C 0.59613 0.87046 0.06339 0.0
C149 C 0.57859 0.76908 0.0584 0.0
C150 C 0.58642 0.74352 0.0709 0.0
C151 C 0.58926 0.8057 0.06983 0.0
C152 C 0.60712 0.81628 0.09428 0.0
C153 C 0.61451 0.79052 0.10693 0.0
C154 C 0.60456 0.75439 0.09508 0.0
N155 N 0.57925 0.83003 0.05695 0.0
H156 H 0.26963 0.80163 0.04762 0.0
H157 H 0.20874 0.78145 0.11325 0.0
H158 H 0.3161 0.88812 0.11013 0.0
H159 H 0.15601 0.74468 0.08356 0.0
C160 C 0.16833 0.72945 0.0738 0.0
C161 C 0.26766 0.81124 0.06625 0.0
C162 C 0.29688 0.84769 0.07732 0.0
C163 C 0.23575 0.78719 0.07898 0.0
C164 C 0.23298 0.79983 0.10302 0.0
C165 C 0.26165 0.83628 0.11416 0.0
C166 C 0.29388 0.85995 0.10146 0.0
N167 N 0.20736 0.75012 0.06745 0.0
H168 H 0.21941 0.46941 0.0537 0.0
H169 H 0.25519 0.42204 0.11246 0.0
H170 H 0.14635 0.42057 0.11265 0.0
H171 H 0.31417 0.45705 0.1001 0.0
C172 C 0.3117 0.4618 0.08077 0.0
C173 C 0.21412 0.45555 0.07082 0.0
C174 C 0.17948 0.44573 0.08178 0.0
C175 C 0.24211 0.44786 0.08178 0.0
C176 C 0.23479 0.42944 0.10395 0.0
C177 C 0.20041 0.41982 0.11527 0.0
C178 C 0.17292 0.42803 0.10405 0.0
N179 N 0.27661 0.45834 0.06968 0.0
H180 H 0.42379 0.87106 0.30658 0.0
H181 H 0.48981 0.92759 0.24614 0.0
H182 H 0.38136 0.92401 0.2559 0.0
H183 H 0.45664 0.83491 0.29948 0.0
C184 C 0.48571 0.85934 0.29837 0.0
C185 C 0.42711 0.88653 0.29028 0.0
C186 C 0.39871 0.89632 0.28293 0.0
C187 C 0.46023 0.89795 0.27704 0.0
C188 C 0.46436 0.91869 0.25629 0.0
C189 C 0.43576 0.92758 0.24834 0.0
C190 C 0.40325 0.91672 0.26186 0.0
N191 N 0.49068 0.89061 0.28466 0.0
H192 H 0.13258 0.54375 0.31846 0.0
H193 H 0.06521 0.5562 0.25935 0.0
H194 H 0.06101 0.44707 0.26609 0.0
H195 H 0.06538 0.59991 0.28869 0.0
C196 C 0.09611 0.6148 0.29538 0.0
C197 C 0.11149 0.53117 0.30234 0.0
C198 C 0.09706 0.49254 0.2934 0.0
C199 C 0.09924 0.55381 0.29039 0.0
C200 C 0.072 0.5374 0.26947 0.0
C201 C 0.05452 0.49763 0.26106 0.0
C202 C 0.06946 0.47622 0.27266 0.0
N203 N 0.11519 0.59324 0.2995 0.0
H204 H 0.47054 0.59034 0.31736 0.0
H205 H 0.42985 0.50382 0.25512 0.0
H206 H 0.5417 0.60727 0.2571 0.0
H207 H 0.39285 0.46371 0.28242 0.0
C208 C 0.38676 0.48083 0.2957 0.0
C209 C 0.47517 0.57995 0.29973 0.0
C210 C 0.50962 0.60291 0.28869 0.0
C211 C 0.44674 0.54355 0.28835 0.0
C212 C 0.45222 0.53083 0.26494 0.0
C213 C 0.48647 0.55387 0.25362 0.0
C214 C 0.51531 0.58943 0.26582 0.0
N215 N 0.41256 0.52144 0.30057 0.0
Tb216 Tb 0.49003 0.98723 0.9889 0.0
Eu217 Eu 0.51553 0.03055 0.04678 0.0
C218 C 0.52929 0.96094 0.02881 0.0
C219 C 0.4333 0.9535 0.03103 0.0
C220 C 0.48627 0.98048 0.92067 0.0
C221 C 0.51008 0.98273 0.88005 0.0
C222 C 0.49859 0.96462 0.90192 0.0
C223 C 0.48602 0.01507 0.91725 0.0
C224 C 0.49709 0.03293 0.89529 0.0
C225 C 0.50911 0.01686 0.87647 0.0
C226 C 0.47481 0.96133 0.94384 0.0
O227 O 0.49062 0.04172 0.98769 0.0
O228 O 0.47778 0.05041 0.02739 0.0
O229 O 0.56175 0.07253 0.02402 0.0
O230 O 0.55236 0.02831 0.99138 0.0
C231 C 0.47815 0.0572 1.00404 0.0
O232 O 0.50569 0.06067 0.07786 0.0
O233 O 0.54977 0.04443 0.08263 0.0
O234 O 0.54465 0.99512 0.04123 0.0
O235 O 0.50117 0.94906 1.01086 0.0
O236 O 0.43639 0.95964 1.00749 0.0
O237 O 0.46245 0.97244 0.04812 0.0
C238 C 0.57293 0.06258 1.00384 0.0
O239 O 0.50281 0.96242 0.95819 0.0
O240 O 0.45173 0.9685 0.95648 0.0
C241 C 0.51236 0.0388 0.11626 0.0
C242 C 0.47509 0.00532 0.15929 0.0
C243 C 0.50696 0.04391 0.16048 0.0
C244 C 0.52443 0.06062 0.13922 0.0
C245 C 0.48415 0.99942 0.11511 0.0
C246 C 0.46663 0.98275 0.13633 0.0
C247 C 0.52927 0.05697 0.09364 0.0
H248 H 0.51937 0.96995 0.86579 0.0
H249 H 0.49936 0.93821 0.90422 0.0
H250 H 0.47724 0.02834 0.93152 0.0
H251 H 0.49627 0.0593 0.89294 0.0
H252 H 0.5197 0.06172 0.17774 0.0
H253 H 0.54764 0.09064 0.14081 0.0
H254 H 0.47577 0.98135 0.09778 0.0
H255 H 0.44712 0.9518 0.13434 0.0
Tb256 Tb 0.03274 0.50475 0.99078 0.0
Eu257 Eu 0.98897 0.48809 0.04373 0.0
C258 C 0.06258 0.57083 0.0345 0.0
C259 C 0.06323 0.47789 0.03688 0.0
C260 C 0.04821 0.50862 0.92462 0.0
C261 C 0.05806 0.52233 0.88186 0.0
C262 C 0.07317 0.52386 0.90603 0.0
C263 C 0.00791 0.48931 0.91845 0.0
C264 C 0.99285 0.4878 0.89432 0.0
C265 C 0.01762 0.50767 0.8759 0.0
C266 C 0.06415 0.51459 0.95051 0.0
O267 O 0.98557 0.44441 0.98521 0.0
O268 O 0.94901 0.43546 0.01856 0.0
O269 O 0.95461 0.50545 0.01822 0.0
O270 O 0.98374 0.5133 0.98152 0.0
C271 C 0.95484 0.42365 0.99715 0.0
O272 O 0.95837 0.45004 0.07191 0.0
O273 O 0.97168 0.50989 0.07547 0.0
O274 O 0.04488 0.54557 0.0505 0.0
O275 O 0.05671 0.56161 1.01054 0.0
O276 O 0.07194 0.49952 0.01818 0.0
O277 O 0.02983 0.46448 0.04654 0.0
C278 C 0.95703 0.51319 0.9949 0.0
O279 O 0.06253 0.54168 0.96382 0.0
O280 O 0.0528 0.48355 0.96217 0.0
C281 C 0.96913 0.47967 0.1122 0.0
C282 C 0.98958 0.47999 0.16249 0.0
C283 C 0.95037 0.45895 0.15286 0.0
C284 C 0.94023 0.45886 0.12785 0.0
C285 C 0.00844 0.50079 0.12179 0.0
C286 C 0.01861 0.50104 0.1469 0.0
C287 C 0.95768 0.4773 0.08578 0.0
H288 H 0.07874 0.53245 0.86814 0.0
H289 H 0.10444 0.53729 0.91022 0.0
H290 H 0.98801 0.47566 0.93239 0.0
H291 H 0.9616 0.47051 0.89052 0.0
H292 H 0.92771 0.44252 0.1647 0.0
H293 H 0.90982 0.4422 0.12066 0.0
H294 H 0.03113 0.51673 0.10985 0.0
H295 H 0.04901 0.51729 0.15412 0.0
Tb296 Tb 0.53512 0.5098 0.0414 0.0
Eu297 Eu 0.50536 0.5221 0.98614 0.0
C298 C 0.49456 0.44107 0.99936 0.0
C299 C 0.58971 0.5315 0.99801 0.0
C300 C 0.54303 0.50783 0.10942 0.0
C301 C 0.55951 0.52732 0.1536 0.0
C302 C 0.57021 0.52133 0.13034 0.0
C303 C 0.5049 0.50032 0.11212 0.0
C304 C 0.49413 0.50598 0.13538 0.0
C305 C 0.5214 0.5197 0.15628 0.0
C306 C 0.55474 0.50206 0.08492 0.0
O307 O 0.55783 0.57179 0.03979 0.0
O308 O 0.51178 0.57094 1.01196 0.0
O309 O 0.45129 0.49388 1.00678 0.0
O310 O 0.48144 0.51061 0.04661 0.0
C311 C 0.53941 0.58837 0.03014 0.0
O312 O 0.51359 0.56124 0.95756 0.0
O313 O 0.46926 0.5005 0.95087 0.0
O314 O 0.50482 0.46562 0.98243 0.0
O315 O 0.49719 0.45205 0.02289 0.0
O316 O 0.57735 0.51021 0.01681 0.0
O317 O 0.57027 0.54661 0.98786 0.0
C318 C 0.45011 0.49735 0.03093 0.0
O319 O 0.52779 0.47384 0.06985 0.0
O320 O 0.57451 0.53309 0.0736 0.0
C321 C 0.50623 0.53135 0.91755 0.0
C322 C 0.54144 0.53047 0.87398 0.0
C323 C 0.54031 0.56369 0.88248 0.0
C324 C 0.52263 0.56402 0.90402 0.0
C325 C 0.50797 0.49832 0.90919 0.0
C326 C 0.52526 0.49786 0.88752 0.0
C327 C 0.48982 0.53312 0.94106 0.0
H328 H 0.58097 0.53804 0.16951 0.0
H329 H 0.59976 0.52742 0.12865 0.0
H330 H 0.48345 0.49016 0.09625 0.0
H331 H 0.46463 0.50006 0.13708 0.0
H332 H 0.5527 0.58914 0.87227 0.0
H333 H 0.52204 0.58995 0.91024 0.0
H334 H 0.49624 0.47291 0.91943 0.0
H335 H 0.52596 0.47201 0.88126 0.0
Tb336 Tb 0.15381 0.31989 0.32166 0.0
Eu337 Eu 0.18046 0.36406 0.37928 0.0
C338 C 0.19005 0.29074 0.36207 0.0
C339 C 0.09793 0.2872 0.36474 0.0
C340 C 0.14665 0.31271 0.25311 0.0
C341 C 0.16731 0.31348 0.21161 0.0
C342 C 0.15743 0.29612 0.23387 0.0
C343 C 0.1463 0.34728 0.24977 0.0
C344 C 0.15575 0.36438 0.22743 0.0
C345 C 0.16624 0.34759 0.20812 0.0
C346 C 0.13638 0.29402 0.27656 0.0
O347 O 0.15834 0.37608 0.32012 0.0
O348 O 0.14422 0.38514 0.35931 0.0
O349 O 0.22749 0.40404 0.35623 0.0
O350 O 0.21682 0.35836 0.3243 0.0
C351 C 0.14592 0.39222 0.33599 0.0
O352 O 0.16849 0.39175 0.41058 0.0
O353 O 0.21827 0.38342 0.4141 0.0
O354 O 0.20497 0.32414 0.37547 0.0
O355 O 0.16416 0.28063 0.3429 0.0
O356 O 0.10062 0.2931 0.3411 0.0
O357 O 0.12729 0.30652 0.3816 0.0
C358 C 0.23849 0.39272 0.33654 0.0
O359 O 0.16478 0.29475 0.29024 0.0
O360 O 0.11433 0.30181 0.28987 0.0
C361 C 0.18208 0.37345 0.44897 0.0
C362 C 0.15799 0.33734 0.49313 0.0
C363 C 0.19641 0.3678 0.49221 0.0
C364 C 0.20832 0.38576 0.47032 0.0
C365 C 0.14364 0.34284 0.4499 0.0
C366 C 0.13166 0.32516 0.47183 0.0
C367 C 0.19518 0.39187 0.42574 0.0
H368 H 0.17548 0.30015 0.197 0.0
H369 H 0.15819 0.26968 0.23606 0.0
H370 H 0.13861 0.36107 0.26438 0.0
H371 H 0.1549 0.39076 0.22518 0.0
H372 H 0.21719 0.37756 0.50844 0.0
H373 H 0.2381 0.4091 0.47001 0.0
H374 H 0.12285 0.33245 0.43365 0.0
H375 H 0.10194 0.30168 0.47213 0.0
Tb376 Tb 0.69371 0.83834 0.32744 0.0
Eu377 Eu 0.65459 0.81929 0.38082 0.0
C378 C 0.72697 0.90349 0.37227 0.0
C379 C 0.7308 0.81433 0.37136 0.0
C380 C 0.70668 0.84177 0.25968 0.0
C381 C 0.7051 0.86267 0.21865 0.0
C382 C 0.71974 0.87117 0.24353 0.0
C383 C 0.679 0.80352 0.25053 0.0
C384 C 0.66439 0.79499 0.2256 0.0
C385 C 0.67726 0.82459 0.20958 0.0
C386 C 0.72157 0.85216 0.28599 0.0
O387 O 0.65852 0.77554 0.32574 0.0
O388 O 0.61373 0.77036 0.35244 0.0
O389 O 0.62362 0.84493 0.36021 0.0
O390 O 0.63644 0.83431 0.32065 0.0
C391 C 0.62431 0.75587 0.33418 0.0
O392 O 0.62619 0.77751 0.40778 0.0
O393 O 0.63604 0.83594 0.41403 0.0
O394 O 0.70998 0.87765 0.38819 0.0
O395 O 0.71977 0.89464 0.34827 0.0
O396 O 0.73745 0.83713 0.35335 0.0
O397 O 0.69735 0.79795 0.38106 0.0
C398 C 0.61685 0.84308 0.33615 0.0
O399 O 0.7112 0.87398 0.2982 0.0
O400 O 0.71971 0.82471 0.29885 0.0
C401 C 0.63613 0.80363 0.44916 0.0
C402 C 0.65717 0.80611 0.49965 0.0
C403 C 0.61849 0.78159 0.48971 0.0
C404 C 0.60805 0.78036 0.4646 0.0
C405 C 0.67505 0.82774 0.45898 0.0
C406 C 0.68551 0.82901 0.48418 0.0
C407 C 0.62401 0.80256 0.42302 0.0
H408 H 0.71526 0.8858 0.2065 0.0
H409 H 0.74102 0.90084 0.25025 0.0
H410 H 0.66851 0.78033 0.26262 0.0
H411 H 0.64288 0.76544 0.21882 0.0
H412 H 0.59634 0.76384 0.5015 0.0
H413 H 0.57794 0.76155 0.45726 0.0
H414 H 0.6971 0.84582 0.44726 0.0
H415 H 0.71547 0.84812 0.49166 0.0
Tb416 Tb 0.20483 0.84409 0.37475 0.0
Eu417 Eu 0.17853 0.86001 0.31958 0.0
C418 C 0.16408 0.77574 0.33218 0.0
C419 C 0.2604 0.86459 0.33195 0.0
C420 C 0.21409 0.84265 0.44325 0.0
C421 C 0.18162 0.81711 0.48022 0.0
C422 C 0.19231 0.81116 0.45703 0.0
C423 C 0.22552 0.88039 0.45333 0.0
C424 C 0.21494 0.88633 0.47662 0.0
C425 C 0.19281 0.8547 0.49015 0.0
C426 C 0.22321 0.83508 0.41823 0.0
O427 O 0.23134 0.90651 0.37354 0.0
O428 O 0.18631 0.9085 0.34646 0.0
O429 O 0.12346 0.83665 0.33887 0.0
O430 O 0.15021 0.84433 0.37908 0.0
C431 C 0.21392 0.92448 0.36475 0.0
O432 O 0.1888 0.90106 0.29207 0.0
O433 O 0.14517 0.84049 0.28323 0.0
O434 O 0.17126 0.80021 0.31529 0.0
O435 O 0.17087 0.7865 0.35595 0.0
O436 O 0.24624 0.84244 0.35018 0.0
O437 O 0.243 0.88196 0.32221 0.0
C438 C 0.12039 0.83589 0.36286 0.0
O439 O 0.19377 0.8084 0.40378 0.0
O440 O 0.24533 0.86479 0.40635 0.0
C441 C 0.18407 0.87321 0.25158 0.0
C442 C 0.21685 0.86731 0.20799 0.0
C443 C 0.17638 0.85181 0.2079 0.0
C444 C 0.16013 0.85479 0.22953 0.0
C445 C 0.22467 0.88896 0.25161 0.0
C446 C 0.24094 0.88625 0.22993 0.0
C447 C 0.1663 0.87399 0.27462 0.0
H448 H 0.16458 0.7924 0.49045 0.0
H449 H 0.18319 0.78183 0.4497 0.0
H450 H 0.24237 0.90527 0.44321 0.0
H451 H 0.22385 0.91556 0.48406 0.0
H452 H 0.15739 0.83716 0.19109 0.0
H453 H 0.12881 0.84226 0.22913 0.0
H454 H 0.24382 0.90292 0.26845 0.0
H455 H 0.27221 0.89838 0.23032 0.0
Tb456 Tb 0.82127 0.65652 0.65497 0.0
Eu457 Eu 0.84912 0.69733 0.71367 0.0
C458 C 0.86011 0.62681 0.69297 0.0
C459 C 0.76609 0.62141 0.69802 0.0
C460 C 0.81491 0.65173 0.58622 0.0
C461 C 0.83781 0.65379 0.54526 0.0
C462 C 0.82739 0.63614 0.56739 0.0
C463 C 0.81339 0.68564 0.58255 0.0
C464 C 0.82341 0.70304 0.56031 0.0
C465 C 0.8356 0.68722 0.54143 0.0
C466 C 0.80402 0.63255 0.60951 0.0
O467 O 0.82341 0.7118 0.65563 0.0
O468 O 0.81177 0.71898 0.69587 0.0
O469 O 0.89528 0.73973 0.6911 0.0
O470 O 0.88381 0.69709 0.65693 0.0
C471 C 0.81185 0.72695 0.67277 0.0
O472 O 0.83985 0.72557 0.74605 0.0
O473 O 0.88499 0.7105 0.74877 0.0
O474 O 0.87593 0.66014 0.7065 0.0
O475 O 0.83236 0.61663 0.675 0.0
O476 O 0.76841 0.62857 0.67457 0.0
O477 O 0.79583 0.63943 0.71478 0.0
C478 C 0.90541 0.73056 0.6702 0.0
O479 O 0.83186 0.63205 0.62306 0.0
O480 O 0.78235 0.64062 0.62303 0.0
C481 C 0.84876 0.70253 0.78343 0.0
C482 C 0.8114 0.6663 0.8258 0.0
C483 C 0.83942 0.70647 0.82711 0.0
C484 C 0.85678 0.72439 0.80613 0.0
C485 C 0.82511 0.66217 0.78241 0.0
C486 C 0.80776 0.64429 0.80339 0.0
C487 C 0.86444 0.72185 0.76089 0.0
H488 H 0.84726 0.64117 0.531 0.0
H489 H 0.82905 0.61022 0.56981 0.0
H490 H 0.80435 0.69868 0.5968 0.0
H491 H 0.82162 0.72886 0.5578 0.0
H492 H 0.84902 0.72477 0.84428 0.0
H493 H 0.87658 0.75545 0.80769 0.0
H494 H 0.82006 0.64434 0.76534 0.0
H495 H 0.79213 0.61303 0.80164 0.0
Tb496 Tb 0.37043 0.1679 0.66017 0.0
Eu497 Eu 0.32662 0.1503 0.71281 0.0
C498 C 0.40332 0.2335 0.7045 0.0
C499 C 0.40475 0.14498 0.70775 0.0
C500 C 0.38153 0.17144 0.59279 0.0
C501 C 0.37683 0.14853 0.54973 0.0
C502 C 0.39256 0.15402 0.57425 0.0
C503 C 0.35473 0.18361 0.58645 0.0
C504 C 0.33912 0.17824 0.56193 0.0
C505 C 0.34994 0.16049 0.54347 0.0
C506 C 0.39771 0.17617 0.6186 0.0
O507 O 0.31405 0.11463 0.65247 0.0
O508 O 0.30357 0.09283 0.691 0.0
O509 O 0.28777 0.15775 0.68451 0.0
O510 O 0.33313 0.19348 0.65798 0.0
C511 C 0.29659 0.08673 0.66692 0.0
O512 O 0.29499 0.11075 0.74011 0.0
O513 O 0.3042 0.16902 0.74323 0.0
O514 O 0.37266 0.21373 0.71672 0.0
O515 O 0.4098 0.21948 0.68408 0.0
O516 O 0.4038 0.1499 0.68393 0.0
O517 O 0.37975 0.14588 0.72224 0.0
C518 C 0.2989 0.18067 0.66654 0.0
O519 O 0.39936 0.20434 0.63286 0.0
O520 O 0.38514 0.14447 0.62975 0.0
C521 C 0.30199 0.13959 0.78017 0.0
C522 C 0.32101 0.14145 0.83093 0.0
C523 C 0.28189 0.12165 0.82107 0.0
C524 C 0.27245 0.12078 0.79582 0.0
C525 C 0.3412 0.15944 0.78998 0.0
C526 C 0.35067 0.16045 0.81531 0.0
C527 C 0.29141 0.13659 0.75354 0.0
H528 H 0.38535 0.13468 0.53566 0.0
H529 H 0.41312 0.14442 0.57878 0.0
H530 H 0.34573 0.1971 0.60043 0.0
H531 H 0.31829 0.18751 0.55738 0.0
H532 H 0.25873 0.10682 0.83293 0.0
H533 H 0.24209 0.1051 0.78847 0.0
H534 H 0.36437 0.17379 0.77804 0.0
H535 H 0.381 0.17577 0.8227 0.0
Tb536 Tb 0.87977 0.18302 0.70921 0.0
Eu537 Eu 0.8506 0.19945 0.65442 0.0
C538 C 0.83975 0.1155 0.66654 0.0
C539 C 0.93453 0.20449 0.66421 0.0
C540 C 0.88457 0.17784 0.77675 0.0
C541 C 0.89915 0.20336 0.82 0.0
C542 C 0.91174 0.19857 0.79721 0.0
C543 C 0.84451 0.16164 0.77949 0.0
C544 C 0.83193 0.16625 0.80229 0.0
C545 C 0.85919 0.18739 0.82263 0.0
C546 C 0.89832 0.17433 0.75255 0.0
O547 O 0.87839 0.23678 0.7149 0.0
O548 O 0.88669 0.25746 0.67601 0.0
O549 O 0.80539 0.19371 0.68003 0.0
O550 O 0.81702 0.15956 0.70899 0.0
C551 C 0.88809 0.26423 0.69995 0.0
O552 O 0.85884 0.2388 0.62594 0.0
O553 O 0.81093 0.17971 0.62057 0.0
O554 O 0.82738 0.13509 0.65385 0.0
O555 O 0.865 0.1309 0.68614 0.0
O556 O 0.93082 0.20147 0.68813 0.0
O557 O 0.90677 0.20147 0.64841 0.0
C558 C 0.79506 0.1721 0.69876 0.0
O559 O 0.87316 0.14592 0.73674 0.0
O560 O 0.91754 0.20644 0.74205 0.0
C561 C 0.84528 0.20754 0.58585 0.0
C562 C 0.8762 0.20348 0.54101 0.0
C563 C 0.87278 0.2359 0.54817 0.0
C564 C 0.85723 0.2378 0.57037 0.0
C565 C 0.8491 0.17528 0.57876 0.0
C566 C 0.8642 0.17318 0.55644 0.0
C567 C 0.83217 0.21152 0.6102 0.0
H568 H 0.92053 0.21977 0.83556 0.0
H569 H 0.94271 0.21137 0.79549 0.0
H570 H 0.82287 0.14567 0.76398 0.0
H571 H 0.801 0.15376 0.80403 0.0
H572 H 0.88202 0.2596 0.53652 0.0
H573 H 0.8551 0.26318 0.57566 0.0
H574 H 0.84089 0.15189 0.59058 0.0
H575 H 0.86676 0.14802 0.55126 0.0
C576 C 0.35622 0.8618 0.05503 0.0
C577 C 0.33008 0.87366 0.06332 0.0
C578 C 0.37122 0.93799 0.04941 0.0
C579 C 0.39541 0.92505 0.03934 0.0
N580 N 0.40571 0.87214 0.02733 0.0
N581 N 0.30719 0.91947 0.06196 0.0
C582 C 0.38608 0.88604 0.04036 0.0
C583 C 0.33589 0.91071 0.05854 0.0
N584 N 0.35408 0.8286 0.06232 0.0
N585 N 0.38251 0.97648 0.05102 0.0
H586 H 0.28019 0.89962 0.06762 0.0
H587 H 0.30859 0.94478 0.05661 0.0
H588 H 0.40828 0.99742 0.0446 0.0
H589 H 0.36795 0.98795 0.06061 0.0
H590 H 0.37492 0.82078 0.05886 0.0
H591 H 0.33376 0.81083 0.07396 0.0
H592 H 0.39779 0.84296 0.02563 0.0
H593 H 0.4276 0.88923 0.01631 0.0
C594 C 0.12838 0.4337 0.04723 0.0
C595 C 0.14996 0.45427 0.07003 0.0
C596 C 0.11197 0.48748 0.07219 0.0
C597 C 0.09305 0.46971 0.04827 0.0
N598 N 0.08673 0.4297 1.01147 0.0
N599 N 0.16755 0.5061 0.10189 0.0
C600 C 0.10249 0.44411 0.03527 0.0
C601 C 0.14313 0.4826 0.0819 0.0
N602 N 0.13125 0.40298 0.03756 0.0
N603 N 0.10006 0.50884 0.08578 0.0
H604 H 0.19109 0.50392 0.10932 0.0
H605 H 0.16677 0.53008 0.10967 0.0
H606 H 0.07863 0.51468 0.07905 0.0
H607 H 0.10946 0.51849 0.10439 0.0
H608 H 0.1132 0.38418 0.02248 0.0
H609 H 0.14936 0.39406 0.04595 0.0
H610 H 0.09586 0.41455 1.00006 0.0
H611 H 0.06638 0.43519 1.00243 0.0
C612 C 0.53699 0.67282 0.06416 0.0
C613 C 0.57356 0.70414 0.05928 0.0
C614 C 0.58803 0.65957 0.03553 0.0
C615 C 0.55088 0.62833 0.03975 0.0
N616 N 0.48824 0.60477 0.0558 0.0
N617 N 0.63218 0.72929 0.03837 0.0
C618 C 0.52477 0.63488 0.05331 0.0
C619 C 0.59863 0.69807 0.04438 0.0
N620 N 0.51457 0.67928 0.07986 0.0
N621 N 0.61324 0.65228 0.02325 0.0
H622 H 0.64132 0.75775 0.04512 0.0
H623 H 0.64991 0.72761 0.02554 0.0
H624 H 0.60563 0.62493 0.01505 0.0
H625 H 0.64235 0.67276 0.02205 0.0
H626 H 0.48997 0.65735 0.08672 0.0
H627 H 0.5217 0.70688 0.08731 0.0
H628 H 0.46598 0.60811 0.06259 0.0
H629 H 0.47926 0.57613 0.04987 0.0
C630 C 0.86094 0.33855 0.96547 0.0
C631 C 0.87076 0.30891 0.96473 0.0
C632 C 0.93644 0.35499 0.98415 0.0
C633 C 0.92574 0.38403 0.9863 0.0
N634 N 0.87553 0.40155 0.98348 0.0
N635 N 0.91505 0.28651 0.97653 0.0
C636 C 0.88726 0.37522 0.97838 0.0
C637 C 0.90783 0.31649 0.97488 0.0
N638 N 0.82712 0.33215 0.95294 0.0
N639 N 0.97385 0.36412 0.99122 0.0
H640 H 0.89475 0.25795 0.96996 0.0
H641 H 0.93982 0.28917 0.98609 0.0
H642 H 0.99472 0.3909 1.00019 0.0
H643 H 0.98489 0.34585 0.9872 0.0
H644 H 0.82053 0.35398 0.95032 0.0
H645 H 0.80702 0.30565 0.94324 0.0
H646 H 0.84665 0.39502 0.98073 0.0
H647 H 0.894 0.42923 0.99222 0.0
C648 C 0.65707 0.52632 0.95208 0.0
C649 C 0.69423 0.55448 0.96372 0.0
C650 C 0.66302 0.56283 0.99972 0.0
C651 C 0.62573 0.53774 0.98689 0.0
N652 N 0.58726 0.5 0.94913 0.0
N653 N 0.73262 0.60383 0.99703 0.0
C654 C 0.62278 0.52082 0.96255 0.0
C655 C 0.69727 0.57373 0.98723 0.0
N656 N 0.65449 0.50373 0.93142 0.0
N657 N 0.66572 0.57663 0.02374 0.0
H658 H 0.75816 0.61303 0.98831 0.0
H659 H 0.73623 0.62185 1.01272 0.0
H660 H 0.64141 0.57101 0.03306 0.0
H661 H 0.69187 0.59142 0.03501 0.0
H662 H 0.62843 0.47989 0.92363 0.0
H663 H 0.67886 0.50639 0.92337 0.0
H664 H 0.58389 0.49142 0.93029 0.0
H665 H 0.56116 0.49363 0.95626 0.0
C666 C 0.41308 0.09874 0.98664 0.0
C667 C 0.43951 0.13182 0.97513 0.0
C668 C 0.4925 0.1195 0.98697 0.0
C669 C 0.46511 0.08389 0.99561 0.0
N670 N 0.39811 0.03603 0.99954 0.0
N671 N 0.50303 0.17022 0.96058 0.0
C672 C 0.42503 0.07254 0.99445 0.0
C673 C 0.47894 0.14137 0.97431 0.0
N674 N 0.37685 0.09275 0.99056 0.0
N675 N 0.53154 0.13297 0.99145 0.0
H676 H 0.4941 0.18661 0.95073 0.0
H677 H 0.53075 0.17555 0.95713 0.0
H678 H 0.54247 0.11809 1.00117 0.0
H679 H 0.55298 0.16049 0.98769 0.0
H680 H 0.35785 0.07127 1.00107 0.0
H681 H 0.36717 0.11152 0.9853 0.0
H682 H 0.36812 0.0248 0.99655 0.0
H683 H 0.40568 0.01559 1.00447 0.0
C684 C 0.64429 0.12792 0.96006 0.0
C685 C 0.67964 0.13223 0.97088 0.0
C686 C 0.64628 0.0992 1.00651 0.0
C687 C 0.61005 0.0904 0.99403 0.0
N688 N 0.57396 0.09297 0.95752 0.0
N689 N 0.71427 0.11882 1.00313 0.0
C690 C 0.60891 0.10391 0.97044 0.0
C691 C 0.68084 0.11756 0.99398 0.0
N692 N 0.64468 0.14788 0.94025 0.0
N693 N 0.64755 0.08923 0.03009 0.0
H694 H 0.73991 0.13137 0.99432 0.0
H695 H 0.7159 0.10475 0.01835 0.0
H696 H 0.6227 0.07397 0.03937 0.0
H697 H 0.6734 0.09848 0.04118 0.0
H698 H 0.62051 0.14922 0.93317 0.0
H699 H 0.67015 0.16639 0.93238 0.0
H700 H 0.57116 0.0973 0.93895 0.0
H701 H 0.54736 0.0773 0.96481 0.0
C702 C 0.89796 0.56289 0.97954 0.0
C703 C 0.87331 0.53877 0.95854 0.0
C704 C 0.90503 0.49934 0.96035 0.0
C705 C 0.92752 0.52148 0.98271 0.0
N706 N 0.941 0.57134 0.0155 0.0
N707 N 0.84821 0.47994 0.93157 0.0
C708 C 0.9224 0.5521 0.99299 0.0
C709 C 0.8756 0.50601 0.94958 0.0
N710 N 0.89998 0.59755 0.98577 0.0
N711 N 0.91146 0.47171 0.94928 0.0
H712 H 0.82578 0.4833 0.92346 0.0
H713 H 0.84534 0.45312 0.92628 0.0
H714 H 0.92932 0.46241 0.95743 0.0
H715 H 0.90037 0.45909 0.93127 0.0
H716 H 0.92072 0.61861 0.999 0.0
H717 H 0.88354 0.60715 0.97602 0.0
H718 H 0.93423 0.59006 0.02525 0.0
H719 H 0.96138 0.56696 0.02543 0.0
C720 C 0.42254 0.33277 0.99034 0.0
C721 C 0.44303 0.31975 0.97571 0.0
C722 C 0.49928 0.38575 0.97921 0.0
C723 C 0.47713 0.39931 0.99149 0.0
N724 N 0.41498 0.38693 1.00436 0.0
N725 N 0.49801 0.33485 0.95219 0.0
C726 C 0.43802 0.37315 0.99593 0.0
C727 C 0.48073 0.34645 0.9691 0.0
N728 N 0.3889 0.30653 0.9996 0.0
N729 N 0.53827 0.4101 0.97781 0.0
H730 H 0.48495 0.30662 0.94375 0.0
H731 H 0.52358 0.35402 0.94473 0.0
H732 H 0.55294 0.43896 0.98527 0.0
H733 H 0.55673 0.4008 0.97131 0.0
H734 H 0.37503 0.31437 1.01253 0.0
H735 H 0.37687 0.2766 0.9963 0.0
H736 H 0.38512 0.36943 1.00548 0.0
H737 H 0.42478 0.4164 1.00791 0.0
C738 C 0.10911 0.68043 0.0467 0.0
C739 C 0.14195 0.68901 0.06313 0.0
C740 C 0.12533 0.62098 0.05817 0.0
C741 C 0.09037 0.61166 0.0438 0.0
N742 N 0.04671 0.63143 0.02598 0.0
N743 N 0.17865 0.66721 0.08758 0.0
C744 C 0.08168 0.64113 0.03841 0.0
C745 C 0.14945 0.65925 0.06966 0.0
N746 N 0.10497 0.70998 0.03825 0.0
N747 N 0.13631 0.59365 0.05994 0.0
H748 H 0.19686 0.69486 0.09653 0.0
H749 H 0.18273 0.64589 0.0951 0.0
H750 H 0.1199 0.56569 0.0511 0.0
H751 H 0.16332 0.59966 0.06807 0.0
H752 H 0.08414 0.70597 0.02415 0.0
H753 H 0.12449 0.73915 0.04389 0.0
H754 H 0.03647 0.65073 0.0242 0.0
H755 H 0.02654 0.60324 0.01874 0.0
C756 C 0.36199 0.50183 0.05185 0.0
C757 C 0.34499 0.46926 0.06595 0.0
C758 C 0.39661 0.4548 0.05668 0.0
C759 C 0.41226 0.48596 0.04136 0.0
N760 N 0.40577 0.53488 0.02078 0.0
N761 N 0.3413 0.41021 0.07764 0.0
C762 C 0.39341 0.50787 0.03763 0.0
C763 C 0.36101 0.4445 0.06721 0.0
N764 N 0.35017 0.52866 0.05344 0.0
N765 N 0.41594 0.43515 0.06144 0.0
H766 H 0.31486 0.4013 0.08521 0.0
H767 H 0.34908 0.38885 0.07674 0.0
H768 H 0.44056 0.43976 0.05289 0.0
H769 H 0.40899 0.41587 0.07503 0.0
H770 H 0.36442 0.55518 0.04589 0.0
H771 H 0.3285 0.52634 0.0644 0.0
H772 H 0.3904 0.54846 0.01519 0.0
H773 H 0.42988 0.5418 1.01096 0.0
C774 C 0.54041 0.88344 0.06009 0.0
C775 C 0.57764 0.8918 0.05322 0.0
C776 C 0.58142 0.94318 0.02858 0.0
C777 C 0.54443 0.93519 0.03568 0.0
N778 N 0.49013 0.90128 0.05989 0.0
N779 N 0.63114 0.92461 0.02823 0.0
C780 C 0.52398 0.90583 0.0516 0.0
C781 C 0.5976 0.92047 0.03681 0.0
N782 N 0.52099 0.85426 0.07494 0.0
N783 N 0.60154 0.97337 0.01457 0.0
H784 H 0.64373 0.90837 0.03379 0.0
H785 H 0.64525 0.94199 0.01432 0.0
H786 H 0.58975 0.98925 1.0071 0.0
H787 H 0.63055 0.98416 1.01124 0.0
H788 H 0.492 0.84325 0.07836 0.0
H789 H 0.53342 0.83964 0.0834 0.0
H790 H 0.47526 0.88327 0.07334 0.0
H791 H 0.47752 0.91734 0.05418 0.0
C792 C 0.02421 0.19776 0.39285 0.0
C793 C 0.99563 0.20786 0.39845 0.0
C794 C 0.03385 0.27008 0.38109 0.0
C795 C 0.06037 0.25843 0.37349 0.0
N796 N 0.07625 0.20789 0.36743 0.0
N797 N 0.96847 0.24939 0.39201 0.0
C798 C 0.05396 0.2211 0.37779 0.0
C799 C 0.99895 0.24274 0.39073 0.0
N800 N 0.02438 0.16726 0.40305 0.0
N801 N 0.04272 0.3077 0.38021 0.0
H802 H 0.94195 0.22953 0.39824 0.0
H803 H 0.9681 0.2727 0.38449 0.0
H804 H 0.06852 0.3288 0.37392 0.0
H805 H 0.02629 0.31867 0.38789 0.0
H806 H 0.04689 0.16117 0.40165 0.0
H807 H 1.0041 0.15033 0.41499 0.0
H808 H 0.07064 0.17955 0.36806 0.0
H809 H 0.09804 0.22425 0.35616 0.0
C810 C 0.80113 0.77547 0.37943 0.0
C811 C 0.82087 0.79391 0.40309 0.0
C812 C 0.77937 0.82312 0.40667 0.0
C813 C 0.76243 0.808 0.38201 0.0
N814 N 0.76041 0.77336 0.34369 0.0
N815 N 0.83465 0.84226 0.43665 0.0
C816 C 0.77459 0.78555 0.36794 0.0
C817 C 0.81161 0.8197 0.41599 0.0
N818 N 0.80604 0.74672 0.36853 0.0
N819 N 0.76445 0.84033 0.42148 0.0
H820 H 0.85919 0.84148 0.44371 0.0
H821 H 0.83182 0.86455 0.44529 0.0
H822 H 0.74196 0.84501 0.41532 0.0
H823 H 0.77255 0.84749 0.44042 0.0
H824 H 0.7894 0.72931 0.35262 0.0
H825 H 0.82428 0.73771 0.37661 0.0
H826 H 0.77155 0.76088 0.3317 0.0
H827 H 0.73922 0.77804 0.33502 0.0
C828 C 0.22036 0.00522 0.40816 0.0
C829 C 0.24402 0.03832 0.39571 0.0
C830 C 0.24648 0.99634 0.36205 0.0
C831 C 0.2259 0.96389 0.37574 0.0
N832 N 0.20174 0.93905 0.41457 0.0
N833 N 0.28636 0.06629 0.36332 0.0
C834 C 0.21569 0.96885 0.39971 0.0
C835 C 0.25891 0.03418 0.37326 0.0
N836 N 0.20066 0.00804 0.4273 0.0
N837 N 0.25445 0.99109 0.33846 0.0
H838 H 0.29708 0.09444 0.37137 0.0
H839 H 0.3012 0.06496 0.3484 0.0
H840 H 0.24814 0.96416 0.3302 0.0
H841 H 0.26522 0.01304 0.32656 0.0
H842 H 0.17998 0.984 0.43536 0.0
H843 H 0.20173 0.03381 0.43333 0.0
H844 H 0.19801 0.94261 0.43318 0.0
H845 H 0.19668 0.91145 0.40893 0.0
C846 C 0.56015 0.64583 0.3236 0.0
C847 C 0.5393 0.64201 0.30054 0.0
C848 C 0.57913 0.71203 0.29785 0.0
C849 C 0.59638 0.7165 0.32227 0.0
N850 N 0.60137 0.68819 0.35948 0.0
N851 N 0.52326 0.67255 0.26833 0.0
C852 C 0.58612 0.68354 0.33554 0.0
C853 C 0.54731 0.67541 0.28833 0.0
N854 N 0.55655 0.61355 0.3335 0.0
N855 N 0.59301 0.74259 0.2836 0.0
H856 H 0.49863 0.64652 0.26134 0.0
H857 H 0.52533 0.69659 0.26034 0.0
H858 H 0.61514 0.77045 0.29004 0.0
H859 H 0.58446 0.73961 0.26476 0.0
H860 H 0.57397 0.61464 0.34891 0.0
H861 H 0.53855 0.58554 0.32502 0.0
H862 H 0.59145 0.6658 0.37104 0.0
H863 H 0.62248 0.71501 0.36832 0.0
C864 C 0.36729 0.90226 0.32119 0.0
C865 C 0.36357 0.88487 0.2969 0.0
C866 C 0.29224 0.85358 0.29588 0.0
C867 C 0.29576 0.86899 0.32073 0.0
N868 N 0.33637 0.90306 0.35845 0.0
N869 N 0.32257 0.83679 0.26362 0.0
C870 C 0.33324 0.89146 0.3339 0.0
C871 C 0.32601 0.85833 0.28502 0.0
N872 N 0.40308 0.93085 0.33156 0.0
N873 N 0.25675 0.83512 0.28231 0.0
H874 H 0.34662 0.83895 0.25536 0.0
H875 H 0.29606 0.81411 0.25538 0.0
H876 H 0.23094 0.82966 0.28955 0.0
H877 H 0.25322 0.8276 0.26332 0.0
H878 H 0.40722 0.94773 0.34794 0.0
H879 H 0.42856 0.94007 0.32277 0.0
H880 H 0.3625 0.91576 0.36975 0.0
H881 H 0.31231 0.89741 0.36805 0.0
C882 C 0.14936 0.47637 0.30463 0.0
C883 C 0.11052 0.46852 0.30592 0.0
C884 C 0.09448 0.40972 0.3262 0.0
C885 C 0.13411 0.41953 0.32703 0.0
N886 N 0.2009 0.46608 0.32144 0.0
N887 N 0.04843 0.43259 0.3227 0.0
C888 C 0.16209 0.45408 0.31756 0.0
C889 C 0.08379 0.43671 0.31824 0.0
N890 N 0.17357 0.50392 0.29019 0.0
N891 N 0.06666 0.37374 0.33152 0.0
H892 H 0.03972 0.45208 0.3174 0.0
H893 H 0.02941 0.41206 0.33372 0.0
H894 H 0.07319 0.35243 0.336 0.0
H895 H 0.03685 0.36369 0.32888 0.0
H896 H 0.20069 0.50787 0.28642 0.0
H897 H 0.16521 0.52054 0.28013 0.0
H898 H 0.22287 0.49293 0.31707 0.0
H899 H 0.21129 0.45081 0.33122 0.0
C900 C 0.31375 0.44608 0.29145 0.0
C901 C 0.34904 0.46148 0.30694 0.0
C902 C 0.31208 0.43282 0.34241 0.0
C903 C 0.27667 0.41917 0.32719 0.0
N904 N 0.24389 0.41986 0.2886 0.0
N905 N 0.38242 0.4748 0.3478 0.0
C906 C 0.27756 0.42782 0.30208 0.0
C907 C 0.34836 0.45684 0.33269 0.0
N908 N 0.31476 0.44851 0.26645 0.0
N909 N 0.31124 0.4207 0.36557 0.0
H910 H 0.40975 0.49045 0.34122 0.0
H911 H 0.38349 0.47639 0.36705 0.0
H912 H 0.28548 0.40249 0.37324 0.0
H913 H 0.33605 0.4259 0.37647 0.0
H914 H 0.29019 0.4335 0.25381 0.0
H915 H 0.3406 0.46361 0.25804 0.0
H916 H 0.24306 0.42912 0.27113 0.0
H917 H 0.21691 0.40718 0.29577 0.0
C918 C 0.52314 0.82379 0.29884 0.0
C919 C 0.52013 0.85627 0.3074 0.0
C920 C 0.58179 0.88172 0.33365 0.0
C921 C 0.58346 0.84778 0.32635 0.0
N922 N 0.54916 0.78193 0.30751 0.0
N923 N 0.54271 0.91287 0.33613 0.0
C924 C 0.55243 0.81762 0.31031 0.0
C925 C 0.54854 0.8845 0.32557 0.0
N926 N 0.49847 0.79913 0.27933 0.0
N927 N 0.61221 0.91168 0.34807 0.0
H928 H 0.51868 0.91575 0.3309 0.0
H929 H 0.5598 0.93155 0.35152 0.0
H930 H 0.63556 0.90984 0.35595 0.0
H931 H 0.61538 0.93912 0.35111 0.0
H932 H 0.50204 0.77742 0.27054 0.0
H933 H 0.47662 0.80264 0.27042 0.0
H934 H 0.52521 0.7577 0.29798 0.0
H935 H 0.56806 0.7754 0.3173 0.0
C936 C 0.09683 0.66598 0.32428 0.0
C937 C 0.11466 0.65568 0.30574 0.0
C938 C 0.16837 0.72281 0.30821 0.0
C939 C 0.14794 0.73409 0.32417 0.0
N940 N 0.09113 0.71684 0.34637 0.0
N941 N 0.1646 0.67457 0.27749 0.0
C942 C 0.11182 0.70577 0.33207 0.0
C943 C 0.14976 0.68413 0.29704 0.0
N944 N 0.06648 0.63762 0.33514 0.0
N945 N 0.20627 0.74853 0.30475 0.0
H946 H 0.1517 0.64656 0.2687 0.0
H947 H 0.18773 0.69504 0.26863 0.0
H948 H 0.22148 0.77632 0.31393 0.0
H949 H 0.22386 0.741 0.29511 0.0
H950 H 0.05513 0.64306 0.3507 0.0
H951 H 0.0548 0.6081 0.33005 0.0
H952 H 0.06241 0.69818 0.34988 0.0
H953 H 0.10156 0.74532 0.3535 0.0
C954 C 0.78011 0.01419 0.38298 0.0
C955 C 0.81079 0.02105 0.40078 0.0
C956 C 0.79016 0.95195 0.39673 0.0
C957 C 0.75645 0.94422 0.38145 0.0
N958 N 0.71837 0.96801 0.36047 0.0
N959 N 0.84303 0.99661 0.42698 0.0
C960 C 0.75128 0.9754 0.37457 0.0
C961 C 0.81536 0.98999 0.40829 0.0
N962 N 0.77944 0.04488 0.37337 0.0
N963 N 0.79942 0.9235 0.39896 0.0
H964 H 0.86236 0.02418 0.43569 0.0
H965 H 0.84478 0.97445 0.43518 0.0
H966 H 0.78307 0.89618 0.38931 0.0
H967 H 0.82544 0.9282 0.40798 0.0
H968 H 0.76055 0.042 0.35829 0.0
H969 H 0.80012 0.07372 0.37904 0.0
H970 H 0.71016 0.98869 0.35781 0.0
H971 H 0.69799 0.94056 0.35236 0.0
C972 C 0.05149 0.8433 0.40592 0.0
C973 C 0.01561 0.80904 0.39809 0.0
C974 C 0.04682 0.79375 0.36469 0.0
C975 C 0.08275 0.82828 0.37258 0.0
N976 N 0.11439 0.89182 0.39448 0.0
N977 N 0.97698 0.75474 0.36771 0.0
C978 C 0.08367 0.85471 0.39149 0.0
C979 C 0.01256 0.78543 0.37661 0.0
N980 N 0.05499 0.86512 0.42719 0.0
N981 N 0.04561 0.76797 0.34659 0.0
H982 H 0.95188 0.74591 0.37684 0.0
H983 H 0.97165 0.73934 0.35052 0.0
H984 H 0.06888 0.77365 0.33627 0.0
H985 H 0.02211 0.73997 0.34246 0.0
H986 H 0.08169 0.88754 0.43541 0.0
H987 H 0.03161 0.85936 0.43752 0.0
H988 H 0.11545 0.91368 0.40643 0.0
H989 H 0.13653 0.90187 0.38263 0.0
C990 C 0.20298 0.21681 0.39662 0.0
C991 C 0.23642 0.21998 0.38635 0.0
C992 C 0.23447 0.26381 0.35703 0.0
C993 C 0.20364 0.26383 0.36904 0.0
N994 N 0.16061 0.2437 0.40165 0.0
N995 N 0.2861 0.24788 0.35811 0.0
C996 C 0.18824 0.24101 0.38911 0.0
C997 C 0.25273 0.24382 0.36687 0.0
N998 N 0.18547 0.19087 0.41371 0.0
N999 N 0.24605 0.28272 0.33614 0.0
H1000 H 0.29914 0.23219 0.36398 0.0
H1001 H 0.30216 0.26823 0.34604 0.0
H1002 H 0.23385 0.29831 0.32877 0.0
H1003 H 0.26562 0.28073 0.32502 0.0
H1004 H 0.15843 0.18379 0.41968 0.0
H1005 H 0.19668 0.17431 0.42083 0.0
H1006 H 0.15152 0.23165 0.41824 0.0
H1007 H 0.14832 0.26021 0.39627 0.0
C1008 C 0.66759 0.5774 0.7245 0.0
C1009 C 0.66382 0.54205 0.73159 0.0
C1010 C 0.72178 0.55513 0.71055 0.0
C1011 C 0.72854 0.59273 0.70674 0.0
N1012 N 0.71184 0.64251 0.71447 0.0
N1013 N 0.69151 0.50039 0.73506 0.0
C1014 C 0.70248 0.60468 0.71485 0.0
C1015 C 0.69195 0.53158 0.7255 0.0
N1016 N 0.63752 0.58457 0.72638 0.0
N1017 N 0.74377 0.54188 0.69982 0.0
H1018 H 0.67105 0.48318 0.74681 0.0
H1019 H 0.71367 0.49387 0.73331 0.0
H1020 H 0.76563 0.55842 0.68863 0.0
H1021 H 0.73791 0.51341 0.70007 0.0
H1022 H 0.6374 0.60825 0.71926 0.0
H1023 H 0.61106 0.56486 0.73275 0.0
H1024 H 0.6958 0.65364 0.72253 0.0
H1025 H 0.73768 0.66358 0.70821 0.0
C1026 C 0.46749 0.09848 0.72101 0.0
C1027 C 0.49478 0.12511 0.74025 0.0
C1028 C 0.46149 0.16304 0.73961 0.0
C1029 C 0.43584 0.13813 0.71893 0.0
N1030 N 0.41673 0.08382 0.68846 0.0
N1031 N 0.52195 0.18568 0.76553 0.0
C1032 C 0.43971 0.10649 0.70911 0.0
C1033 C 0.49287 0.15815 0.74893 0.0
N1034 N 0.46715 0.06464 0.71478 0.0
N1035 N 0.45591 0.19131 0.75061 0.0
H1036 H 0.54504 0.18282 0.77305 0.0
H1037 H 0.5251 0.21275 0.77033 0.0
H1038 H 0.43575 0.19859 0.74356 0.0
H1039 H 0.46999 0.20647 0.76765 0.0
H1040 H 0.44517 0.04171 0.70314 0.0
H1041 H 0.4874 0.05804 0.72276 0.0
H1042 H 0.42171 0.06396 0.67848 0.0
H1043 H 0.39373 0.08607 0.68029 0.0
C1044 C 0.94555 0.37357 0.71699 0.0
C1045 C 0.91892 0.37841 0.73101 0.0
C1046 C 0.8709 0.30931 0.72257 0.0
C1047 C 0.89864 0.3037 0.71031 0.0
N1048 N 0.96398 0.32925 0.69826 0.0
N1049 N 0.85876 0.35075 0.75046 0.0
C1050 C 0.93642 0.33555 0.70809 0.0
C1051 C 0.88239 0.34617 0.73487 0.0
N1052 N 0.97925 0.40542 0.71182 0.0
N1053 N 0.83293 0.28007 0.7212 0.0
H1054 H 0.86554 0.37757 0.75917 0.0
H1055 H 0.83394 0.3276 0.7563 0.0
H1056 H 0.82301 0.25326 0.71139 0.0
H1057 H 0.81047 0.28351 0.72758 0.0
H1058 H 0.99771 0.40435 0.6993 0.0
H1059 H 0.98764 0.43357 0.71886 0.0
H1060 H 0.99328 0.35039 0.69873 0.0
H1061 H 0.95815 0.30198 0.69112 0.0
C1062 C 0.23942 0.9773 0.6499 0.0
C1063 C 0.208 0.97378 0.63409 0.0
C1064 C 0.23232 0.04335 0.64204 0.0
C1065 C 0.26589 0.04769 0.65588 0.0
N1066 N 0.3039 0.01971 0.67079 0.0
N1067 N 0.17676 0.0035 0.6122 0.0
C1068 C 0.27004 0.01484 0.65934 0.0
C1069 C 0.20515 0.00686 0.62927 0.0
N1070 N 0.23967 0.94467 0.65612 0.0
N1071 N 0.22519 0.07349 0.64226 0.0
H1072 H 0.15536 0.97701 0.60311 0.0
H1073 H 0.17613 0.02726 0.60566 0.0
H1074 H 0.24346 0.10011 0.6523 0.0
H1075 H 0.19932 0.07102 0.63464 0.0
H1076 H 0.2593 0.9449 0.66973 0.0
H1077 H 0.21836 0.91677 0.64893 0.0
H1078 H 0.31068 0.99769 0.67136 0.0
H1079 H 0.32674 0.04661 0.67822 0.0
C1080 C 0.04192 0.25454 0.65055 0.0
C1081 C 0.04058 0.22847 0.63123 0.0
C1082 C 0.97017 0.18661 0.63356 0.0
C1083 C 0.97163 0.21152 0.654 0.0
N1084 N 0.01046 0.26702 0.68391 0.0
N1085 N 1.00558 0.16674 0.607 0.0
C1086 C 0.00804 0.24465 0.6632 0.0
C1087 C 1.00529 0.19369 0.6235 0.0
N1088 N 0.07529 0.28962 0.65612 0.0
N1089 N 0.93515 0.15633 0.62341 0.0
H1090 H 0.0305 0.17122 0.59882 0.0
H1091 H 0.98208 0.13872 0.60287 0.0
H1092 H 0.90889 0.14747 0.63107 0.0
H1093 H 0.93161 0.14098 0.60645 0.0
H1094 H 0.07703 0.3121 0.66774 0.0
H1095 H 0.10082 0.29758 0.64759 0.0
H1096 H 0.03674 0.28822 0.69331 0.0
H1097 H 0.98645 0.26308 0.69286 0.0
C1098 C 0.81478 0.81424 0.64659 0.0
C1099 C 0.77488 0.80375 0.64581 0.0
C1100 C 0.75906 0.74241 0.66264 0.0
C1101 C 0.79928 0.75444 0.66545 0.0
N1102 N 0.8662 0.80504 0.66498 0.0
N1103 N 0.7106 0.76215 0.6584 0.0
C1104 C 0.82742 0.79145 0.65898 0.0
C1105 C 0.74749 0.76917 0.65556 0.0
N1106 N 0.84021 0.84468 0.63443 0.0
N1107 N 0.73178 0.70486 0.66532 0.0
H1108 H 0.70126 0.78145 0.65379 0.0
H1109 H 0.69063 0.73916 0.66756 0.0
H1110 H 0.73922 0.68399 0.66935 0.0
H1111 H 0.70197 0.69353 0.66107 0.0
H1112 H 0.86858 0.85091 0.63216 0.0
H1113 H 0.83201 0.8616 0.62458 0.0
H1114 H 0.88788 0.8333 0.66284 0.0
H1115 H 0.87637 0.7892 0.67432 0.0
C1116 C 0.97709 0.79984 0.62803 0.0
C1117 C 0.01197 0.80148 0.6373 0.0
C1118 C 0.97861 0.7645 0.67176 0.0
C1119 C 0.94265 0.75852 0.66055 0.0
N1120 N 0.90685 0.76737 0.62652 0.0
N1121 N 0.0456 0.78207 0.66644 0.0
C1122 C 0.9417 0.77541 0.6383 0.0
C1123 C 0.01287 0.78341 0.65899 0.0
N1124 N 0.97803 0.82277 0.60992 0.0
N1125 N 0.9799 0.75148 0.69437 0.0
H1126 H 0.07096 0.79489 0.65737 0.0
H1127 H 0.04674 0.76563 0.68036 0.0
H1128 H 0.95518 0.73595 0.70371 0.0
H1129 H 1.00576 0.7585 0.70474 0.0
H1130 H 0.95443 0.82603 0.60424 0.0
H1131 H 1.00356 0.84168 0.60225 0.0
H1132 H 0.90385 0.7743 0.60862 0.0
H1133 H 0.88041 0.75156 0.63398 0.0
C1134 C 0.22742 0.18627 0.61937 0.0
C1135 C 0.22095 0.21433 0.63198 0.0
C1136 C 0.26141 0.21624 0.66852 0.0
C1137 C 0.27141 0.1916 0.65486 0.0
N1138 N 0.2676 0.15669 0.61609 0.0
N1139 N 0.23759 0.26149 0.66689 0.0
C1140 C 0.25563 0.17781 0.62989 0.0
C1141 C 0.23921 0.2306 0.65621 0.0
N1142 N 0.20522 0.16623 0.59783 0.0
N1143 N 0.27334 0.22628 0.69321 0.0
H1144 H 0.22299 0.27391 0.65818 0.0
H1145 H 0.25387 0.27731 0.68331 0.0
H1146 H 0.29121 0.21808 0.70272 0.0
H1147 H 0.26318 0.24037 0.7047 0.0
H1148 H 0.20554 0.14248 0.5892 0.0
H1149 H 0.18344 0.17068 0.58983 0.0
H1150 H 0.26097 0.15019 0.59701 0.0
H1151 H 0.28642 0.14781 0.62329 0.0
C1152 C 0.76242 0.0086 0.65448 0.0
C1153 C 0.78383 0.99376 0.64258 0.0
C1154 C 0.84358 0.05697 0.65116 0.0
C1155 C 0.82121 0.07316 0.65983 0.0
N1156 N 0.75903 0.0648 0.66975 0.0
N1157 N 0.84322 0.00535 0.62551 0.0
C1158 C 0.78047 0.04908 0.66137 0.0
C1159 C 0.82407 0.01824 0.63996 0.0
N1160 N 0.7255 0.98372 0.66037 0.0
N1161 N 0.88339 0.07823 0.6538 0.0
H1162 H 0.8297 0.97773 0.61611 0.0
H1163 H 0.87141 0.02333 0.62077 0.0
H1164 H 0.89895 0.10659 0.66202 0.0
H1165 H 0.90104 0.06647 0.65005 0.0
H1166 H 0.70989 0.99216 0.6714 0.0
H1167 H 0.71155 0.95375 0.65622 0.0
H1168 H 0.72866 0.05014 0.66797 0.0
H1169 H 0.77156 0.09323 0.67768 0.0
C1170 C 0.44282 0.3413 0.72093 0.0
C1171 C 0.48032 0.3526 0.73249 0.0
C1172 C 0.46971 0.28743 0.72179 0.0
C1173 C 0.43047 0.2748 0.71315 0.0
N1174 N 0.37886 0.28913 0.70456 0.0
N1175 N 0.52692 0.33488 0.748 0.0
C1176 C 0.41673 0.30157 0.71288 0.0
C1177 C 0.49327 0.32537 0.73388 0.0
N1178 N 0.43293 0.36887 0.71649 0.0
N1179 N 0.48474 0.26346 0.71832 0.0
H1180 H 0.5444 0.36188 0.75792 0.0
H1181 H 0.5355 0.31482 0.75193 0.0
H1182 H 0.46849 0.23523 0.70993 0.0
H1183 H 0.51427 0.27269 0.72185 0.0
H1184 H 0.40775 0.36317 0.70582 0.0
H1185 H 0.45156 0.39839 0.72155 0.0
H1186 H 0.36552 0.3057 0.70709 0.0
H1187 H 0.36003 0.26143 0.69592 0.0
C1188 C 0.72136 0.15317 0.74605 0.0
C1189 C 0.68561 0.1338 0.73076 0.0
C1190 C 0.72141 0.14007 0.69407 0.0
C1191 C 0.7573 0.16117 0.70924 0.0
N1192 N 0.79154 0.19481 0.74881 0.0
N1193 N 0.65119 0.11295 0.68993 0.0
C1194 C 0.75728 0.16965 0.73501 0.0
C1195 C 0.68556 0.12892 0.70465 0.0
N1196 N 0.72107 0.15553 0.77125 0.0
N1197 N 0.72129 0.12839 0.66992 0.0
H1198 H 0.62406 0.10149 0.69692 0.0
H1199 H 0.64962 0.11314 0.67075 0.0
H1200 H 0.74662 0.13545 0.66142 0.0
H1201 H 0.69609 0.10896 0.65873 0.0
H1202 H 0.74579 0.1647 0.78347 0.0
H1203 H 0.69561 0.14607 0.78011 0.0
H1204 H 0.7931 0.20572 0.76693 0.0
H1205 H 0.81848 0.20767 0.74154 0.0
C1206 C 0.92514 0.58245 0.69493 0.0
C1207 C 0.90992 0.55765 0.71412 0.0
C1208 C 0.8599 0.576 0.71818 0.0
C1209 C 0.87448 0.60003 0.69857 0.0
N1210 N 0.91626 0.62177 0.66545 0.0
N1211 N 0.85982 0.52606 0.74176 0.0
C1212 C 0.90562 0.60179 0.68601 0.0
C1213 C 0.87612 0.55268 0.72488 0.0
N1214 N 0.95872 0.58807 0.68562 0.0
N1215 N 0.83176 0.57688 0.73117 0.0
H1216 H 0.87228 0.51039 0.74857 0.0
H1217 H 0.83262 0.51762 0.74797 0.0
H1218 H 0.81843 0.5927 0.72637 0.0
H1219 H 0.82315 0.56395 0.74757 0.0
H1220 H 0.97402 0.60915 0.67377 0.0
H1221 H 0.97266 0.57287 0.69079 0.0
H1222 H 0.93615 0.62126 0.65396 0.0
H1223 H 0.9029 0.63671 0.6587 0.0
C1224 C 0.46199 0.98962 0.22751 0.0
C1225 C 0.43993 0.94851 0.22577 0.0
C1226 C 0.4241 0.94824 0.18145 0.0
C1227 C 0.45439 0.98757 0.18224 0.0
N1228 N 0.47185 0.04607 0.20768 0.0
N1229 N 0.39739 0.88814 0.20091 0.0
C1230 C 0.46523 0.00905 0.20581 0.0
C1231 C 0.41987 0.92762 0.20272 0.0
N1232 N 0.48006 0.01025 0.24973 0.0
N1233 N 0.39568 0.93278 0.16218 0.0
H1234 H 0.39292 0.87199 0.21613 0.0
H1235 H 0.38541 0.87148 0.18398 0.0
H1236 H 0.39437 0.94982 0.14863 0.0
H1237 H 0.37087 0.90541 0.16165 0.0
H1238 H 0.49971 0.04002 0.25133 0.0
H1239 H 0.47721 0.99724 0.26625 0.0
H1240 H 0.47642 0.06205 0.22458 0.0
H1241 H 0.46683 0.05825 0.19235 0.0
C1242 C 0.01908 0.45103 0.22184 0.0
C1243 C 0.02387 0.48138 0.23897 0.0
C1244 C 0.99423 0.50256 0.20721 0.0
C1245 C 0.99989 0.47942 0.18901 0.0
N1246 N 0.01628 0.42981 0.17896 0.0
N1247 N 0.99116 0.51572 0.25094 0.0
C1248 C 0.01199 0.45314 0.19628 0.0
C1249 C 1.00355 0.50098 0.23258 0.0
N1250 N 0.01283 0.41688 0.22997 0.0
N1251 N 0.98196 0.52743 0.20025 0.0
H1252 H 0.99553 0.51202 0.26951 0.0
H1253 H 0.97331 0.52754 0.24769 0.0
H1254 H 0.97485 0.52939 0.18181 0.0
H1255 H 0.98146 0.54801 0.21259 0.0
H1256 H 1.0067 0.39278 0.21808 0.0
H1257 H 1.00584 0.41048 0.24802 0.0
H1258 H 0.02868 0.413 0.18355 0.0
H1259 H 0.00978 0.42918 0.16002 0.0
C1260 C 0.49016 0.56323 0.20834 0.0
C1261 C 0.49178 0.54229 0.22824 0.0
C1262 C 0.5069 0.50258 0.19995 0.0
C1263 C 0.51026 0.52687 0.18094 0.0
N1264 N 0.51086 0.58412 0.16807 0.0
N1265 N 0.50615 0.49497 0.24397 0.0
C1266 C 0.50331 0.55819 0.18538 0.0
C1267 C 0.5012 0.51259 0.22431 0.0
N1268 N 0.47513 0.5873 0.21124 0.0
N1269 N 0.5081 0.46937 0.19457 0.0
H1270 H 0.50188 0.50125 0.26202 0.0
H1271 H 0.51734 0.4763 0.24272 0.0
H1272 H 0.51201 0.46101 0.17693 0.0
H1273 H 0.50178 0.44843 0.20697 0.0
H1274 H 0.46957 0.60039 0.1967 0.0
H1275 H 0.46455 0.59115 0.22768 0.0
H1276 H 0.51047 0.60985 0.1714 0.0
H1277 H 0.52097 0.58178 0.15111 0.0
C1278 C 0.01087 0.5094 0.80606 0.0
C1279 C 0.97028 0.4837 0.80048 0.0
C1280 C 0.9605 0.49243 0.84388 0.0
C1281 C 1.00117 0.50908 0.85016 0.0
N1282 N 0.05912 0.56027 0.83553 0.0
N1283 N 0.90538 0.45199 0.81406 0.0
C1284 C 0.02541 0.52552 0.83083 0.0
C1285 C 0.94468 0.47572 0.81936 0.0
N1286 N 0.03565 0.51818 0.78789 0.0
N1287 N 0.93835 0.49842 0.85991 0.0
H1288 H 0.89244 0.43991 0.79619 0.0
H1289 H 0.88614 0.44234 0.82778 0.0
H1290 H 0.95099 0.51675 0.87624 0.0
H1291 H 0.90918 0.49 0.85545 0.0
H1292 H 0.0659 0.53385 0.79167 0.0
H1293 H 0.02602 0.50749 0.76938 0.0
H1294 H 0.07626 0.57541 0.8217 0.0
H1295 H 0.06646 0.57631 0.85275 0.0
C1296 C 0.5547 0.52647 0.8051 0.0
C1297 C 0.58577 0.51857 0.8054 0.0
C1298 C 0.59322 0.52737 0.8508 0.0
C1299 C 0.5583 0.5291 0.85039 0.0
N1300 N 0.5028 0.5254 0.82701 0.0
N1301 N 0.63348 0.50885 0.82826 0.0
C1302 C 0.5384 0.52776 0.8275 0.0
C1303 C 0.60506 0.51868 0.8282 0.0
N1304 N 0.54087 0.53288 0.7833 0.0
N1305 N 0.6153 0.53463 0.87274 0.0
H1306 H 0.64338 0.50312 0.81205 0.0
H1307 H 0.64559 0.5041 0.84425 0.0
H1308 H 0.60749 0.54123 0.88958 0.0
H1309 H 0.6429 0.53749 0.87401 0.0
H1310 H 0.52088 0.54255 0.78224 0.0
H1311 H 0.55229 0.53222 0.76654 0.0
H1312 H 0.485 0.51988 0.81076 0.0
H1313 H 0.48932 0.52551 0.84293 0.0
C1314 C 0.56118 0.09231 0.83087 0.0
C1315 C 0.53903 0.07194 0.80818 0.0
C1316 C 0.49598 0.01647 0.83044 0.0
C1317 C 0.52 0.0355 0.85281 0.0
N1318 N 0.57985 0.08835 0.87343 0.0
N1319 N 0.49064 0.01165 0.7856 0.0
C1320 C 0.55395 0.07253 0.85276 0.0
C1321 C 0.50801 0.03308 0.80775 0.0
N1322 N 0.58801 0.13096 0.83176 0.0
N1323 N 0.46078 0.98338 0.83097 0.0
H1324 H 0.49898 0.02263 0.76857 0.0
H1325 H 0.47066 0.982 0.78409 0.0
H1326 H 0.45047 0.97059 0.84723 0.0
H1327 H 0.44021 0.97064 0.81566 0.0
H1328 H 0.60193 0.1483 0.84823 0.0
H1329 H 0.59401 0.14655 0.81621 0.0
H1330 H 0.60701 0.11336 0.87373 0.0
H1331 H 0.57577 0.07457 0.88969 0.0
C1332 C 0.123 0.26003 0.53915 0.0
C1333 C 0.12453 0.28197 0.56105 0.0
C1334 C 0.14215 0.33834 0.53743 0.0
C1335 C 0.14548 0.31789 0.51637 0.0
N1336 N 0.1447 0.26096 0.49823 0.0
N1337 N 0.14063 0.34362 0.58199 0.0
C1338 C 0.13728 0.27909 0.51747 0.0
C1339 C 0.13534 0.32157 0.56045 0.0
N1340 N 0.10701 0.22074 0.53891 0.0
N1341 N 0.14438 0.37333 0.53528 0.0
H1342 H 0.13588 0.33247 0.5992 0.0
H1343 H 0.15274 0.37361 0.58309 0.0
H1344 H 0.14899 0.38636 0.51869 0.0
H1345 H 0.1381 0.38771 0.54924 0.0
H1346 H 0.10134 0.20262 0.52285 0.0
H1347 H 0.09594 0.20575 0.55438 0.0
H1348 H 0.14334 0.23432 0.49909 0.0
H1349 H 0.15564 0.27402 0.48215 0.0
C1350 C 0.68338 0.78314 0.56237 0.0
C1351 C 0.69083 0.81673 0.5773 0.0
C1352 C 0.66375 0.83573 0.54276 0.0
C1353 C 0.66729 0.80877 0.52657 0.0
N1354 N 0.67894 0.75502 0.52104 0.0
N1355 N 0.65966 0.85412 0.58523 0.0
C1356 C 0.67658 0.78184 0.53638 0.0
C1357 C 0.67241 0.83707 0.56861 0.0
N1358 N 0.67477 0.74998 0.57301 0.0
N1359 N 0.65338 0.86078 0.53345 0.0
H1360 H 0.66215 0.85154 0.60419 0.0
H1361 H 0.64288 0.86648 0.58015 0.0
H1362 H 0.64595 0.8601 0.51464 0.0
H1363 H 0.65464 0.88381 0.54425 0.0
H1364 H 0.66615 0.7237 0.56276 0.0
H1365 H 0.6696 0.7475 0.59165 0.0
H1366 H 0.68913 0.73723 0.52749 0.0
H1367 H 0.67332 0.75253 0.50184 0.0
C1368 C 0.14417 0.88102 0.54025 0.0
C1369 C 0.16143 0.87492 0.56185 0.0
C1370 C 0.20019 0.85686 0.53655 0.0
C1371 C 0.18141 0.86091 0.51485 0.0
N1372 N 0.13046 0.86963 0.49557 0.0
N1373 N 0.19999 0.85024 0.58069 0.0
C1374 C 0.15185 0.87086 0.51656 0.0
C1375 C 0.18762 0.86066 0.56001 0.0
N1376 N 0.12158 0.89782 0.54241 0.0
N1377 N 0.23117 0.85103 0.53482 0.0
H1378 H 0.1915 0.8529 0.5982 0.0
H1379 H 0.21581 0.83585 0.58022 0.0
H1380 H 0.24138 0.84824 0.51798 0.0
H1381 H 0.24879 0.8521 0.5501 0.0
H1382 H 0.11199 0.90727 0.52751 0.0
H1383 H 0.11457 0.90485 0.55941 0.0
H1384 H 0.10586 0.87258 0.49575 0.0
H1385 H 0.13532 0.86239 0.4779 0.0
C1386 C 0.60657 0.79771 0.15205 0.0
C1387 C 0.63092 0.80036 0.13319 0.0
C1388 C 0.68445 0.81532 0.1645 0.0
C1389 C 0.66118 0.81592 0.18326 0.0
N1390 N 0.60265 0.81427 0.19495 0.0
N1391 N 0.69451 0.8174 0.12084 0.0
C1392 C 0.62291 0.80896 0.17706 0.0
C1393 C 0.67034 0.81082 0.13924 0.0
N1394 N 0.56755 0.78316 0.14617 0.0
N1395 N 0.71946 0.81777 0.17087 0.0
H1396 H 0.68508 0.81419 0.10211 0.0
H1397 H 0.72452 0.8291 0.12415 0.0
H1398 H 0.73074 0.82106 0.1892 0.0
H1399 H 0.73583 0.81331 0.15813 0.0
H1400 H 0.54757 0.77641 0.15935 0.0
H1401 H 0.55444 0.77477 0.12804 0.0
H1402 H 0.57644 0.81384 0.19112 0.0
H1403 H 0.61356 0.82236 0.21352 0.0
C1404 C 0.26367 0.83405 0.16017 0.0
C1405 C 0.25658 0.84965 0.13898 0.0
C1406 C 0.23263 0.88422 0.16469 0.0
C1407 C 0.23369 0.86358 0.18491 0.0
N1408 N 0.2469 0.8159 0.20151 0.0
N1409 N 0.23148 0.88726 0.12026 0.0
C1410 C 0.24877 0.83801 0.18268 0.0
C1411 C 0.24064 0.87445 0.14104 0.0
N1412 N 0.28484 0.81565 0.15874 0.0
N1413 N 0.22462 0.91361 0.16823 0.0
H1414 H 0.23737 0.88121 0.10263 0.0
H1415 H 0.21555 0.90155 0.12023 0.0
H1416 H 0.21898 0.92173 0.1854 0.0
H1417 H 0.22721 0.93226 0.15483 0.0
H1418 H 0.29443 0.8071 0.17412 0.0
H1419 H 0.29601 0.81226 0.14243 0.0
H1420 H 0.25361 0.79382 0.19994 0.0
H1421 H 0.23554 0.81737 0.21811 0.0
C1422 C 0.16162 0.36214 0.13918 0.0
C1423 C 0.19279 0.4008 0.13894 0.0
C1424 C 0.20969 0.40247 0.18337 0.0
C1425 C 0.17578 0.36564 0.18416 0.0
N1426 N 0.11552 0.31339 0.16349 0.0
N1427 N 0.24258 0.46029 0.16169 0.0
C1428 C 0.15066 0.34623 0.16222 0.0
C1429 C 0.21585 0.42168 0.16129 0.0
N1430 N 0.14316 0.34016 0.11735 0.0
N1431 N 0.23665 0.41862 0.2035 0.0
H1432 H 0.24765 0.47557 0.14603 0.0
H1433 H 0.2572 0.47795 0.17795 0.0
H1434 H 0.23341 0.40523 0.21988 0.0
H1435 H 0.26383 0.44343 0.20319 0.0
H1436 H 0.12301 0.31058 0.1163 0.0
H1437 H 0.1507 0.35056 0.1001 0.0
H1438 H 0.09423 0.30039 0.14857 0.0
H1439 H 0.10605 0.30112 0.18002 0.0
C1440 C 0.75946 0.58755 0.86953 0.0
C1441 C 0.77483 0.61013 0.89269 0.0
C1442 C 0.79556 0.66884 0.87121 0.0
C1443 C 0.78989 0.64714 0.84824 0.0
N1444 N 0.73767 0.58767 0.8272 0.0
N1445 N 0.80667 0.67319 0.91576 0.0
C1446 C 0.76357 0.60655 0.84751 0.0
C1447 C 0.79247 0.65107 0.89361 0.0
N1448 N 0.74105 0.54803 0.86845 0.0
N1449 N 0.79681 0.70361 0.87147 0.0
H1450 H 0.80433 0.6613 0.93267 0.0
H1451 H 0.82317 0.70339 0.91699 0.0
H1452 H 0.79122 0.71361 0.85524 0.0
H1453 H 0.79734 0.71914 0.88768 0.0
H1454 H 0.73293 0.53056 0.8518 0.0
H1455 H 0.73624 0.53296 0.88421 0.0
H1456 H 0.71562 0.55875 0.82631 0.0
H1457 H 0.7348 0.60274 0.81285 0.0
C1458 C 0.34724 0.11407 0.89211 0.0
C1459 C 0.35392 0.1463 0.90818 0.0
C1460 C 0.32654 0.16739 0.87499 0.0
C1461 C 0.33061 0.14195 0.85774 0.0
N1462 N 0.34286 0.08894 0.84992 0.0
N1463 N 0.32215 0.18248 0.91809 0.0
C1464 C 0.34039 0.11461 0.86628 0.0
C1465 C 0.33501 0.16677 0.90063 0.0
N1466 N 0.33923 0.08019 0.90152 0.0
N1467 N 0.31635 0.19324 0.86691 0.0
H1468 H 0.32499 0.17885 0.93685 0.0
H1469 H 0.30508 0.19485 0.91381 0.0
H1470 H 0.30977 0.19448 0.84825 0.0
H1471 H 0.31717 0.21523 0.87861 0.0
H1472 H 0.33127 0.05477 0.89046 0.0
H1473 H 0.33354 0.07604 0.92 0.0
H1474 H 0.35359 0.07109 0.8554 0.0
H1475 H 0.33655 0.08727 0.83085 0.0
C1476 C 0.84153 0.18351 0.89086 0.0
C1477 C 0.82582 0.20846 0.89336 0.0
C1478 C 0.83196 0.21971 0.84948 0.0
C1479 C 0.84598 0.19335 0.84671 0.0
N1480 N 0.8565 0.14404 0.86315 0.0
N1481 N 0.79851 0.244 0.87447 0.0
C1482 C 0.84844 0.17336 0.86695 0.0
C1483 C 0.81863 0.22457 0.87243 0.0
N1484 N 0.85129 0.17077 0.91146 0.0
N1485 N 0.83295 0.24135 0.83054 0.0
H1486 H 0.78842 0.24815 0.89105 0.0
H1487 H 0.7888 0.25298 0.85938 0.0
H1488 H 0.84251 0.2387 0.81342 0.0
H1489 H 0.82726 0.26412 0.83237 0.0
H1490 H 0.86703 0.1563 0.91117 0.0
H1491 H 0.84613 0.1771 0.92926 0.0
H1492 H 0.8547 0.12567 0.87657 0.0
H1493 H 0.86166 0.13579 0.84585 0.0
C1494 C 0.2754 0.11843 0.48709 0.0
C1495 C 0.29921 0.13772 0.46813 0.0
C1496 C 0.35481 0.17596 0.49911 0.0
C1497 C 0.33221 0.15336 0.5176 0.0
N1498 N 0.27272 0.09934 0.52884 0.0
N1499 N 0.36239 0.18187 0.45526 0.0
C1500 C 0.29289 0.12362 0.51152 0.0
C1501 C 0.33916 0.16583 0.4739 0.0
N1502 N 0.2359 0.09587 0.48183 0.0
N1503 N 0.39079 0.20768 0.50576 0.0
H1504 H 0.35176 0.1756 0.43661 0.0
H1505 H 0.39261 0.19919 0.45808 0.0
H1506 H 0.40314 0.21594 0.52405 0.0
H1507 H 0.40699 0.22766 0.49351 0.0
H1508 H 0.21658 0.08428 0.49533 0.0
H1509 H 0.22199 0.09172 0.46416 0.0
H1510 H 0.24554 0.07447 0.52471 0.0
H1511 H 0.28449 0.10209 0.54697 0.0
C1512 C 0.93966 0.19198 0.495 0.0
C1513 C 0.918 0.18773 0.47225 0.0
C1514 C 0.86972 0.19527 0.49442 0.0
C1515 C 0.89194 0.20079 0.51719 0.0
N1516 N 0.95237 0.21349 0.53886 0.0
N1517 N 0.86869 0.19551 0.44979 0.0
C1518 C 0.92836 0.20204 0.51738 0.0
C1519 C 0.88508 0.1928 0.47184 0.0
N1520 N 0.96988 0.18473 0.49536 0.0
N1521 N 0.83302 0.19021 0.49433 0.0
H1522 H 0.87951 0.19412 0.43291 0.0
H1523 H 0.84701 0.20296 0.44847 0.0
H1524 H 0.82026 0.19112 0.51044 0.0
H1525 H 0.81385 0.18172 0.47838 0.0
H1526 H 0.98388 0.18293 0.51159 0.0
H1527 H 0.97937 0.17792 0.47932 0.0
H1528 H 0.98084 0.2186 0.53973 0.0
H1529 H 0.94509 0.22133 0.55552 0.0
C1530 C 0.83289 0.70139 0.4723 0.0
C1531 C 0.86345 0.74038 0.47219 0.0
C1532 C 0.8789 0.74272 0.51695 0.0
C1533 C 0.84555 0.70538 0.51749 0.0
N1534 N 0.78671 0.65198 0.49621 0.0
N1535 N 0.91158 0.80048 0.49515 0.0
C1536 C 0.82144 0.68543 0.49528 0.0
C1537 C 0.88546 0.76169 0.49473 0.0
N1538 N 0.81548 0.6792 0.45039 0.0
N1539 N 0.90499 0.7596 0.53747 0.0
H1540 H 0.91702 0.81554 0.47938 0.0
H1541 H 0.92531 0.81841 0.51144 0.0
H1542 H 0.90145 0.74649 0.55398 0.0
H1543 H 0.93186 0.78488 0.53744 0.0
H1544 H 0.79592 0.64947 0.44927 0.0
H1545 H 0.82336 0.68971 0.4332 0.0
H1546 H 0.766 0.63844 0.48103 0.0
H1547 H 0.77687 0.63963 0.51267 0.0
loop_
_geom_bond_atom_site_label_1
_geom_bond_atom_site_label_2
_geom_bond_distance
_geom_bond_site_symmetry_2
_ccdc_geom_bond_type
H0 C5 0.930 . S
H1 C8 0.930 . S
H2 C10 0.930 . S
H3 C4 1.016 . S
C4 H3 1.016 . S
C4 N11 1.286 . S
C5 H0 0.930 . S
C5 C6 1.397 . S
C5 C7 1.361 . S
C6 C5 1.397 . S
C6 C10 1.390 . S
C7 C5 1.361 . S
C7 C8 1.393 . S
C7 N11 1.413 . S
C8 H1 0.930 . S
C8 C7 1.393 . S
C8 C9 1.399 . S
C9 C8 1.399 . S
C9 C10 1.381 . S
C10 H2 0.930 . S
C10 C6 1.390 . S
C10 C9 1.381 . S
N11 C4 1.286 . S
N11 C7 1.413 . S
H12 C17 0.930 . S
H13 C20 0.930 . S
H14 C22 0.930 . S
H15 C16 1.016 . S
C16 H15 1.016 . S
C16 N23 1.286 . S
C17 H12 0.930 . S
C17 C18 1.397 . S
C17 C19 1.361 . S
C18 C17 1.397 . S
C18 C22 1.390 . S
C19 C17 1.361 . S
C19 C20 1.393 . S
C19 N23 1.413 . S
C20 H13 0.930 . S
C20 C19 1.393 . S
C20 C21 1.399 . S
C21 C20 1.399 . S
C21 C22 1.381 . S
C22 H14 0.930 . S
C22 C18 1.390 . S
C22 C21 1.381 . S
N23 C16 1.286 . S
N23 C19 1.413 . S
H24 C29 0.930 . S
H25 C32 0.930 . S
H26 C34 0.930 . S
H27 C28 1.016 . S
C28 H27 1.016 . S
C28 N35 1.286 . S
C29 H24 0.930 . S
C29 C30 1.397 . S
C29 C31 1.361 . S
C30 C29 1.397 . S
C30 C34 1.390 . S
C31 C29 1.361 . S
C31 C32 1.393 . S
C31 N35 1.413 . S
C32 H25 0.930 . S
C32 C31 1.393 . S
C32 C33 1.399 . S
C33 C32 1.399 . S
C33 C34 1.381 . S
C34 H26 0.930 . S
C34 C30 1.390 . S
C34 C33 1.381 . S
N35 C28 1.286 . S
N35 C31 1.413 . S
H36 C41 0.930 . S
H37 C44 0.930 . S
H38 C46 0.930 . S
H39 C40 1.016 . S
C40 H39 1.016 . S
C40 N47 1.286 . S
C41 H36 0.930 . S
C41 C42 1.397 . S
C41 C43 1.361 . S
C42 C41 1.397 . S
C42 C46 1.390 . S
C43 C41 1.361 . S
C43 C44 1.393 . S
C43 N47 1.413 . S
C44 H37 0.930 . S
C44 C43 1.393 . S
C44 C45 1.399 . S
C45 C44 1.399 . S
C45 C46 1.381 . S
C46 H38 0.930 . S
C46 C42 1.390 . S
C46 C45 1.381 . S
N47 C40 1.286 . S
N47 C43 1.413 . S
H48 C53 0.930 . S
H49 C56 0.930 . S
H50 C58 0.930 . S
H51 C52 1.016 . S
C52 H51 1.016 . S
C52 N59 1.286 . S
C53 H48 0.930 . S
C53 C54 1.397 . S
C53 C55 1.361 . S
C54 C53 1.397 . S
C54 C58 1.390 . S
C55 C53 1.361 . S
C55 C56 1.393 . S
C55 N59 1.413 . S
C56 H49 0.930 . S
C56 C55 1.393 . S
C56 C57 1.399 . S
C57 C56 1.399 . S
C57 C58 1.381 . S
C58 H50 0.930 . S
C58 C54 1.390 . S
C58 C57 1.381 . S
N59 C52 1.286 . S
N59 C55 1.413 . S
H60 C65 0.930 . S
H61 C68 0.930 . S
H62 C70 0.930 . S
H63 C64 1.016 . S
C64 H63 1.016 . S
C64 N71 1.286 . S
C65 H60 0.930 . S
C65 C66 1.397 . S
C65 C67 1.361 . S
C66 C65 1.397 . S
C66 C70 1.390 . S
C67 C65 1.361 . S
C67 C68 1.393 . S
C67 N71 1.413 . S
C68 H61 0.930 . S
C68 C67 1.393 . S
C68 C69 1.399 . S
C69 C68 1.399 . S
C69 C70 1.381 . S
C70 H62 0.930 . S
C70 C66 1.390 . S
C70 C69 1.381 . S
N71 C64 1.286 . S
N71 C67 1.413 . S
H72 C77 0.930 . S
H73 C80 0.930 . S
H74 C82 0.930 . S
H75 C76 1.016 . S
C76 H75 1.016 . S
C76 N83 1.286 . S
C77 H72 0.930 . S
C77 C78 1.397 . S
C77 C79 1.361 . S
C78 C77 1.397 . S
C78 C82 1.390 . S
C79 C77 1.361 . S
C79 C80 1.393 . S
C79 N83 1.413 . S
C80 H73 0.930 . S
C80 C79 1.393 . S
C80 C81 1.399 . S
C81 C80 1.399 . S
C81 C82 1.381 . S
C82 H74 0.930 . S
C82 C78 1.390 . S
C82 C81 1.381 . S
N83 C76 1.286 . S
N83 C79 1.413 . S
H84 C89 0.930 . S
H85 C92 0.930 . S
H86 C94 0.930 . S
H87 C88 1.016 . S
C88 H87 1.016 . S
C88 N95 1.286 . S
C89 H84 0.930 . S
C89 C90 1.397 . S
C89 C91 1.361 . S
C90 C89 1.397 . S
C90 C94 1.390 . S
C91 C89 1.361 . S
C91 C92 1.393 . S
C91 N95 1.413 . S
C92 H85 0.930 . S
C92 C91 1.393 . S
C92 C93 1.399 . S
C93 C92 1.399 . S
C93 C94 1.381 . S
C94 H86 0.930 . S
C94 C90 1.390 . S
C94 C93 1.381 . S
N95 C88 1.286 . S
N95 C91 1.413 . S
H96 C101 0.930 . S
H97 C104 0.930 . S
H98 C106 0.930 . S
H99 C100 1.016 . S
C100 H99 1.016 . S
C100 N107 1.286 . S
C101 H96 0.930 . S
C101 C102 1.397 . S
C101 C103 1.361 . S
C102 C101 1.397 . S
C102 C106 1.390 . S
C103 C101 1.361 . S
C103 C104 1.393 . S
C103 N107 1.413 . S
C104 H97 0.930 . S
C104 C103 1.393 . S
C104 C105 1.399 . S
C105 C104 1.399 . S
C105 C106 1.381 . S
C106 H98 0.930 . S
C106 C102 1.390 . S
C106 C105 1.381 . S
N107 C100 1.286 . S
N107 C103 1.413 . S
H108 C113 0.930 . S
H109 C116 0.930 . S
H110 C118 0.930 . S
H111 C112 1.016 . S
C112 H111 1.016 . S
C112 N119 1.286 . S
C113 H108 0.930 . S
C113 C114 1.397 . S
C113 C115 1.361 . S
C114 C113 1.397 . S
C114 C118 1.390 . S
C115 C113 1.361 . S
C115 C116 1.393 . S
C115 N119 1.413 . S
C116 H109 0.930 . S
C116 C115 1.393 . S
C116 C117 1.399 . S
C117 C116 1.399 . S
C117 C118 1.381 . S
C118 H110 0.930 . S
C118 C114 1.390 . S
C118 C117 1.381 . S
N119 C112 1.286 . S
N119 C115 1.413 . S
H120 C125 0.930 1_554 S
H121 C128 0.930 . S
H122 C130 0.930 . S
H123 C124 1.016 . S
C124 H123 1.016 . S
C124 N131 1.286 . S
C125 H120 0.930 1_556 S
C125 C126 1.397 . S
C125 C127 1.361 . S
C126 C125 1.397 . S
C126 C130 1.390 . S
C127 C125 1.361 . S
C127 C128 1.393 . S
C127 N131 1.413 . S
C128 H121 0.930 . S
C128 C127 1.393 . S
C128 C129 1.399 . S
C129 C128 1.399 . S
C129 C130 1.381 . S
C130 H122 0.930 . S
C130 C126 1.390 . S
C130 C129 1.381 . S
N131 C124 1.286 . S
N131 C127 1.413 . S
H132 C137 0.930 . S
H133 C140 0.930 . S
H134 C142 0.930 . S
H135 C136 1.016 . S
C136 H135 1.016 . S
C136 N143 1.286 . S
C137 H132 0.930 . S
C137 C138 1.397 . S
C137 C139 1.361 . S
C138 C137 1.397 . S
C138 C142 1.390 . S
C139 C137 1.361 . S
C139 C140 1.393 . S
C139 N143 1.413 . S
C140 H133 0.930 . S
C140 C139 1.393 . S
C140 C141 1.399 . S
C141 C140 1.399 . S
C141 C142 1.381 . S
C142 H134 0.930 . S
C142 C138 1.390 . S
C142 C141 1.381 . S
N143 C136 1.286 . S
N143 C139 1.413 . S
H144 C149 0.930 . S
H145 C152 0.930 . S
H146 C154 0.930 . S
H147 C148 1.016 . S
C148 H147 1.016 . S
C148 N155 1.286 . S
C149 H144 0.930 . S
C149 C150 1.397 . S
C149 C151 1.361 . S
C150 C149 1.397 . S
C150 C154 1.390 . S
C151 C149 1.361 . S
C151 C152 1.393 . S
C151 N155 1.413 . S
C152 H145 0.930 . S
C152 C151 1.393 . S
C152 C153 1.399 . S
C153 C152 1.399 . S
C153 C154 1.381 . S
C154 H146 0.930 . S
C154 C150 1.390 . S
C154 C153 1.381 . S
N155 C148 1.286 . S
N155 C151 1.413 . S
H156 C161 0.930 . S
H157 C164 0.930 . S
H158 C166 0.930 . S
H159 C160 1.016 . S
C160 H159 1.016 . S
C160 N167 1.286 . S
C161 H156 0.930 . S
C161 C162 1.397 . S
C161 C163 1.361 . S
C162 C161 1.397 . S
C162 C166 1.390 . S
C163 C161 1.361 . S
C163 C164 1.393 . S
C163 N167 1.413 . S
C164 H157 0.930 . S
C164 C163 1.393 . S
C164 C165 1.399 . S
C165 C164 1.399 . S
C165 C166 1.381 . S
C166 H158 0.930 . S
C166 C162 1.390 . S
C166 C165 1.381 . S
N167 C160 1.286 . S
N167 C163 1.413 . S
H168 C173 0.930 . S
H169 C176 0.930 . S
H170 C178 0.930 . S
H171 C172 1.016 . S
C172 H171 1.016 . S
C172 N179 1.286 . S
C173 H168 0.930 . S
C173 C174 1.397 . S
C173 C175 1.361 . S
C174 C173 1.397 . S
C174 C178 1.390 . S
C175 C173 1.361 . S
C175 C176 1.393 . S
C175 N179 1.413 . S
C176 H169 0.930 . S
C176 C175 1.393 . S
C176 C177 1.399 . S
C177 C176 1.399 . S
C177 C178 1.381 . S
C178 H170 0.930 . S
C178 C174 1.390 . S
C178 C177 1.381 . S
N179 C172 1.286 . S
N179 C175 1.413 . S
H180 C185 0.930 . S
H181 C188 0.930 . S
H182 C190 0.930 . S
H183 C184 1.016 . S
C184 H183 1.016 . S
C184 N191 1.286 . S
C185 H180 0.930 . S
C185 C186 1.397 . S
C185 C187 1.361 . S
C186 C185 1.397 . S
C186 C190 1.390 . S
C187 C185 1.361 . S
C187 C188 1.393 . S
C187 N191 1.413 . S
C188 H181 0.930 . S
C188 C187 1.393 . S
C188 C189 1.399 . S
C189 C188 1.399 . S
C189 C190 1.381 . S
C190 H182 0.930 . S
C190 C186 1.390 . S
C190 C189 1.381 . S
N191 C184 1.286 . S
N191 C187 1.413 . S
H192 C197 0.930 . S
H193 C200 0.930 . S
H194 C202 0.930 . S
H195 C196 1.016 . S
C196 H195 1.016 . S
C196 N203 1.286 . S
C197 H192 0.930 . S
C197 C198 1.397 . S
C197 C199 1.361 . S
C198 C197 1.397 . S
C198 C202 1.390 . S
C199 C197 1.361 . S
C199 C200 1.393 . S
C199 N203 1.413 . S
C200 H193 0.930 . S
C200 C199 1.393 . S
C200 C201 1.399 . S
C201 C200 1.399 . S
C201 C202 1.381 . S
C202 H194 0.930 . S
C202 C198 1.390 . S
C202 C201 1.381 . S
N203 C196 1.286 . S
N203 C199 1.413 . S
H204 C209 0.930 . S
H205 C212 0.930 . S
H206 C214 0.930 . S
H207 C208 1.016 . S
C208 H207 1.016 . S
C208 N215 1.286 . S
C209 H204 0.930 . S
C209 C210 1.397 . S
C209 C211 1.361 . S
C210 C209 1.397 . S
C210 C214 1.390 . S
C211 C209 1.361 . S
C211 C212 1.393 . S
C211 N215 1.413 . S
C212 H205 0.930 . S
C212 C211 1.393 . S
C212 C213 1.399 . S
C213 C212 1.399 . S
C213 C214 1.381 . S
C214 H206 0.930 . S
C214 C210 1.390 . S
C214 C213 1.381 . S
N215 C208 1.286 . S
N215 C211 1.413 . S
Tb216 C226 2.825 1_565 S
Tb216 O227 2.347 1_565 S
Tb216 O230 2.366 1_565 S
Tb216 O235 2.418 . S
Tb216 O236 2.384 . S
Tb216 O239 2.479 . S
Tb216 O240 2.471 1_565 S
Eu217 O228 2.418 . S
Eu217 O229 2.384 . S
Eu217 O232 2.479 . S
Eu217 O233 2.471 1_545 S
Eu217 O234 2.347 1_545 S
Eu217 O237 2.366 1_545 S
Eu217 C247 2.825 . S
C218 O234 1.259 . S
C218 O235 1.265 1_554 S
C219 O236 1.255 1_554 S
C219 O237 1.265 . S
C220 C222 1.380 1_545 S
C220 C223 1.374 . S
C220 C226 1.507 . S
C221 C222 1.384 1_545 S
C221 C225 1.387 . S
C221 H248 0.930 1_545 S
C222 C220 1.380 1_565 S
C222 C221 1.384 1_565 S
C222 H249 0.931 . S
C223 C220 1.374 . S
C223 C224 1.390 . S
C223 H250 0.930 . S
C224 C223 1.390 . S
C224 C225 1.391 . S
C224 H251 0.930 . S
C225 C221 1.387 . S
C225 C224 1.391 . S
C226 Tb216 2.825 1_545 S
C226 C220 1.507 . S
C226 O239 1.238 1_545 S
C226 O240 1.247 . S
O227 Tb216 2.347 1_545 S
O227 C231 1.259 1_556 S
O228 Eu217 2.418 . S
O228 C231 1.265 . S
O229 Eu217 2.384 . S
O229 C238 1.255 1_554 S
O230 Tb216 2.366 1_545 S
O230 C238 1.265 . S
C231 O227 1.259 1_554 S
C231 O228 1.265 . S
O232 Eu217 2.479 . S
O232 C247 1.238 . S
O233 Eu217 2.471 1_565 S
O233 C247 1.247 1_565 S
O234 Eu217 2.347 1_565 S
O234 C218 1.259 . S
O235 Tb216 2.418 . S
O235 C218 1.265 1_556 S
O236 Tb216 2.384 . S
O236 C219 1.255 1_556 S
O237 Eu217 2.366 1_565 S
O237 C219 1.265 . S
C238 O229 1.255 1_556 S
C238 O230 1.265 . S
O239 Tb216 2.479 . S
O239 C226 1.238 1_565 S
O240 Tb216 2.471 1_545 S
O240 C226 1.247 . S
C241 C244 1.380 1_565 S
C241 C245 1.374 . S
C241 C247 1.507 1_565 S
C242 C243 1.387 1_565 S
C242 C246 1.391 . S
C243 C242 1.387 1_545 S
C243 C244 1.384 . S
C243 H252 0.930 . S
C244 C241 1.380 1_545 S
C244 C243 1.384 . S
C244 H253 0.931 . S
C245 C241 1.374 . S
C245 C246 1.390 . S
C245 H254 0.930 . S
C246 C242 1.391 . S
C246 C245 1.390 . S
C246 H255 0.930 . S
C247 Eu217 2.825 . S
C247 O232 1.238 . S
C247 O233 1.247 1_545 S
C247 C241 1.507 1_545 S
H248 C221 0.930 1_565 S
H249 C222 0.931 . S
H250 C223 0.930 . S
H251 C224 0.930 . S
H252 C243 0.930 . S
H253 C244 0.931 . S
H254 C245 0.930 . S
H255 C246 0.930 . S
Tb256 C266 2.833 . S
Tb256 O267 2.347 1_455 S
Tb256 O270 2.366 1_455 S
Tb256 O275 2.418 . S
Tb256 O276 2.384 1_556 S
Tb256 O279 2.479 . S
Tb256 O280 2.471 1_455 S
Eu257 O268 2.418 . S
Eu257 O269 2.384 . S
Eu257 O272 2.479 . S
Eu257 O273 2.471 1_655 S
Eu257 O274 2.347 1_655 S
Eu257 O277 2.366 1_655 S
Eu257 C287 2.825 1_655 S
C258 O274 1.259 . S
C258 O275 1.265 1_554 S
C259 O276 1.255 . S
C259 O277 1.265 . S
C260 C262 1.380 1_655 S
C260 C263 1.374 . S
C260 C266 1.498 1_655 S
C261 C262 1.384 1_655 S
C261 C265 1.387 . S
C261 H288 0.930 1_655 S
C262 C260 1.380 1_455 S
C262 C261 1.384 1_455 S
C262 H289 0.931 . S
C263 C260 1.374 . S
C263 C264 1.390 . S
C263 H290 0.930 . S
C264 C263 1.390 . S
C264 C265 1.391 . S
C264 H291 0.930 . S
C265 C261 1.387 . S
C265 C264 1.391 . S
C266 Tb256 2.833 . S
C266 C260 1.498 1_455 S
C266 O279 1.249 . S
C266 O280 1.245 1_455 S
O267 Tb256 2.347 1_655 S
O267 C271 1.259 . S
O268 Eu257 2.418 . S
O268 C271 1.265 1_554 S
O269 Eu257 2.384 . S
O269 C278 1.255 1_554 S
O270 Tb256 2.366 1_655 S
O270 C278 1.265 . S
C271 O267 1.259 . S
C271 O268 1.265 1_556 S
O272 Eu257 2.479 . S
O272 C287 1.238 1_655 S
O273 Eu257 2.471 1_455 S
O273 C287 1.247 . S
O274 Eu257 2.347 1_455 S
O274 C258 1.259 . S
O275 Tb256 2.418 . S
O275 C258 1.265 1_556 S
O276 Tb256 2.384 1_554 S
O276 C259 1.255 . S
O277 Eu257 2.366 1_455 S
O277 C259 1.265 . S
C278 O269 1.255 1_556 S
C278 O270 1.265 . S
O279 Tb256 2.479 . S
O279 C266 1.249 . S
O280 Tb256 2.471 1_655 S
O280 C266 1.245 1_655 S
C281 C284 1.380 1_455 S
C281 C285 1.374 . S
C281 C287 1.507 . S
C282 C283 1.387 . S
C282 C286 1.391 . S
C283 C282 1.387 . S
C283 C284 1.384 1_455 S
C283 H292 0.930 1_455 S
C284 C281 1.380 1_655 S
C284 C283 1.384 1_655 S
C284 H293 0.931 . S
C285 C281 1.374 . S
C285 C286 1.390 . S
C285 H294 0.930 . S
C286 C282 1.391 . S
C286 C285 1.390 . S
C286 H295 0.930 . S
C287 Eu257 2.825 1_455 S
C287 O272 1.238 1_455 S
C287 O273 1.247 . S
C287 C281 1.507 . S
H288 C261 0.930 1_455 S
H289 C262 0.931 . S
H290 C263 0.930 . S
H291 C264 0.930 . S
H292 C283 0.930 1_655 S
H293 C284 0.931 . S
H294 C285 0.930 . S
H295 C286 0.930 . S
Tb296 C306 2.825 . S
Tb296 O307 2.347 . S
Tb296 O310 2.366 . S
Tb296 O315 2.418 . S
Tb296 O316 2.384 . S
Tb296 O319 2.479 . S
Tb296 O320 2.471 . S
Eu297 O308 2.418 . S
Eu297 O309 2.384 1_556 S
Eu297 O312 2.479 . S
Eu297 O313 2.471 . S
Eu297 O314 2.347 . S
Eu297 O317 2.366 . S
Eu297 C327 2.825 . S
C298 O314 1.259 1_554 S
C298 O315 1.265 . S
C299 O316 1.255 1_556 S
C299 O317 1.265 . S
C300 C302 1.380 . S
C300 C303 1.374 . S
C300 C306 1.507 . S
C301 C302 1.384 . S
C301 C305 1.387 . S
C301 H328 0.930 . S
C302 C300 1.380 . S
C302 C301 1.384 . S
C302 H329 0.931 . S
C303 C300 1.374 . S
C303 C304 1.390 . S
C303 H330 0.930 . S
C304 C303 1.390 . S
C304 C305 1.391 . S
C304 H331 0.930 . S
C305 C301 1.387 . S
C305 C304 1.391 . S
C306 Tb296 2.825 . S
C306 C300 1.507 . S
C306 O319 1.238 . S
C306 O320 1.247 . S
O307 Tb296 2.347 . S
O307 C311 1.259 . S
O308 Eu297 2.418 . S
O308 C311 1.265 1_556 S
O309 Eu297 2.384 1_554 S
O309 C318 1.255 . S
O310 Tb296 2.366 . S
O310 C318 1.265 . S
C311 O307 1.259 . S
C311 O308 1.265 1_554 S
O312 Eu297 2.479 . S
O312 C327 1.238 . S
O313 Eu297 2.471 . S
O313 C327 1.247 . S
O314 Eu297 2.347 . S
O314 C298 1.259 1_556 S
O315 Tb296 2.418 . S
O315 C298 1.265 . S
O316 Tb296 2.384 . S
O316 C299 1.255 1_554 S
O317 Eu297 2.366 . S
O317 C299 1.265 . S
C318 O309 1.255 . S
C318 O310 1.265 . S
O319 Tb296 2.479 . S
O319 C306 1.238 . S
O320 Tb296 2.471 . S
O320 C306 1.247 . S
C321 C324 1.380 . S
C321 C325 1.374 . S
C321 C327 1.507 . S
C322 C323 1.387 . S
C322 C326 1.391 . S
C323 C322 1.387 . S
C323 C324 1.384 . S
C323 H332 0.930 . S
C324 C321 1.380 . S
C324 C323 1.384 . S
C324 H333 0.931 . S
C325 C321 1.374 . S
C325 C326 1.390 . S
C325 H334 0.930 . S
C326 C322 1.391 . S
C326 C325 1.390 . S
C326 H335 0.930 . S
C327 Eu297 2.825 . S
C327 O312 1.238 . S
C327 O313 1.247 . S
C327 C321 1.507 . S
H328 C301 0.930 . S
H329 C302 0.931 . S
H330 C303 0.930 . S
H331 C304 0.930 . S
H332 C323 0.930 . S
H333 C324 0.931 . S
H334 C325 0.930 . S
H335 C326 0.930 . S
Tb336 C346 2.825 . S
Tb336 O347 2.347 . S
Tb336 O350 2.366 . S
Tb336 O355 2.418 . S
Tb336 O356 2.384 . S
Tb336 O359 2.479 . S
Tb336 O360 2.471 . S
Eu337 O348 2.418 . S
Eu337 O349 2.384 . S
Eu337 O352 2.479 . S
Eu337 O353 2.471 . S
Eu337 O354 2.347 . S
Eu337 O357 2.366 . S
Eu337 C367 2.825 . S
C338 O354 1.259 . S
C338 O355 1.265 . S
C339 O356 1.255 . S
C339 O357 1.265 . S
C340 C342 1.380 . S
C340 C343 1.374 . S
C340 C346 1.507 . S
C341 C342 1.384 . S
C341 C345 1.387 . S
C341 H368 0.930 . S
C342 C340 1.380 . S
C342 C341 1.384 . S
C342 H369 0.931 . S
C343 C340 1.374 . S
C343 C344 1.390 . S
C343 H370 0.930 . S
C344 C343 1.390 . S
C344 C345 1.391 . S
C344 H371 0.930 . S
C345 C341 1.387 . S
C345 C344 1.391 . S
C346 Tb336 2.825 . S
C346 C340 1.507 . S
C346 O359 1.238 . S
C346 O360 1.247 . S
O347 Tb336 2.347 . S
O347 C351 1.259 . S
O348 Eu337 2.418 . S
O348 C351 1.265 . S
O349 Eu337 2.384 . S
O349 C358 1.255 . S
O350 Tb336 2.366 . S
O350 C358 1.265 . S
C351 O347 1.259 . S
C351 O348 1.265 . S
O352 Eu337 2.479 . S
O352 C367 1.238 . S
O353 Eu337 2.471 . S
O353 C367 1.247 . S
O354 Eu337 2.347 . S
O354 C338 1.259 . S
O355 Tb336 2.418 . S
O355 C338 1.265 . S
O356 Tb336 2.384 . S
O356 C339 1.255 . S
O357 Eu337 2.366 . S
O357 C339 1.265 . S
C358 O349 1.255 . S
C358 O350 1.265 . S
O359 Tb336 2.479 . S
O359 C346 1.238 . S
O360 Tb336 2.471 . S
O360 C346 1.247 . S
C361 C364 1.380 . S
C361 C365 1.374 . S
C361 C367 1.507 . S
C362 C363 1.387 . S
C362 C366 1.391 . S
C363 C362 1.387 . S
C363 C364 1.384 . S
C363 H372 0.930 . S
C364 C361 1.380 . S
C364 C363 1.384 . S
C364 H373 0.931 . S
C365 C361 1.374 . S
C365 C366 1.390 . S
C365 H374 0.930 . S
C366 C362 1.391 . S
C366 C365 1.390 . S
C366 H375 0.930 . S
C367 Eu337 2.825 . S
C367 O352 1.238 . S
C367 O353 1.247 . S
C367 C361 1.507 . S
H368 C341 0.930 . S
H369 C342 0.931 . S
H370 C343 0.930 . S
H371 C344 0.930 . S
H372 C363 0.930 . S
H373 C364 0.931 . S
H374 C365 0.930 . S
H375 C366 0.930 . S
Tb376 C386 2.825 . S
Tb376 O387 2.347 . S
Tb376 O390 2.366 . S
Tb376 O395 2.418 . S
Tb376 O396 2.384 . S
Tb376 O399 2.479 . S
Tb376 O400 2.471 . S
Eu377 O388 2.418 . S
Eu377 O389 2.384 . S
Eu377 O392 2.479 . S
Eu377 O393 2.471 . S
Eu377 O394 2.347 . S
Eu377 O397 2.366 . S
Eu377 C407 2.825 . S
C378 O394 1.259 . S
C378 O395 1.265 . S
C379 O396 1.255 . S
C379 O397 1.265 . S
C380 C382 1.380 . S
C380 C383 1.374 . S
C380 C386 1.507 . S
C381 C382 1.384 . S
C381 C385 1.387 . S
C381 H408 0.930 . S
C382 C380 1.380 . S
C382 C381 1.384 . S
C382 H409 0.931 . S
C383 C380 1.374 . S
C383 C384 1.390 . S
C383 H410 0.930 . S
C384 C383 1.390 . S
C384 C385 1.391 . S
C384 H411 0.930 . S
C385 C381 1.387 . S
C385 C384 1.391 . S
C386 Tb376 2.825 . S
C386 C380 1.507 . S
C386 O399 1.238 . S
C386 O400 1.247 . S
O387 Tb376 2.347 . S
O387 C391 1.259 . S
O388 Eu377 2.418 . S
O388 C391 1.265 . S
O389 Eu377 2.384 . S
O389 C398 1.255 . S
O390 Tb376 2.366 . S
O390 C398 1.265 . S
C391 O387 1.259 . S
C391 O388 1.265 . S
O392 Eu377 2.479 . S
O392 C407 1.238 . S
O393 Eu377 2.471 . S
O393 C407 1.247 . S
O394 Eu377 2.347 . S
O394 C378 1.259 . S
O395 Tb376 2.418 . S
O395 C378 1.265 . S
O396 Tb376 2.384 . S
O396 C379 1.255 . S
O397 Eu377 2.366 . S
O397 C379 1.265 . S
C398 O389 1.255 . S
C398 O390 1.265 . S
O399 Tb376 2.479 . S
O399 C386 1.238 . S
O400 Tb376 2.471 . S
O400 C386 1.247 . S
C401 C404 1.380 . S
C401 C405 1.374 . S
C401 C407 1.507 . S
C402 C403 1.387 . S
C402 C406 1.391 . S
C403 C402 1.387 . S
C403 C404 1.384 . S
C403 H412 0.930 . S
C404 C401 1.380 . S
C404 C403 1.384 . S
C404 H413 0.931 . S
C405 C401 1.374 . S
C405 C406 1.390 . S
C405 H414 0.930 . S
C406 C402 1.391 . S
C406 C405 1.390 . S
C406 H415 0.930 . S
C407 Eu377 2.825 . S
C407 O392 1.238 . S
C407 O393 1.247 . S
C407 C401 1.507 . S
H408 C381 0.930 . S
H409 C382 0.931 . S
H410 C383 0.930 . S
H411 C384 0.930 . S
H412 C403 0.930 . S
H413 C404 0.931 . S
H414 C405 0.930 . S
H415 C406 0.930 . S
Tb416 C426 2.825 . S
Tb416 O427 2.347 . S
Tb416 O430 2.366 . S
Tb416 O435 2.418 . S
Tb416 O436 2.384 . S
Tb416 O439 2.479 . S
Tb416 O440 2.471 . S
Eu417 O428 2.418 . S
Eu417 O429 2.384 . S
Eu417 O432 2.479 . S
Eu417 O433 2.471 . S
Eu417 O434 2.347 . S
Eu417 O437 2.366 . S
Eu417 C447 2.825 . S
C418 O434 1.259 . S
C418 O435 1.265 . S
C419 O436 1.255 . S
C419 O437 1.265 . S
C420 C422 1.380 . S
C420 C423 1.374 . S
C420 C426 1.507 . S
C421 C422 1.384 . S
C421 C425 1.387 . S
C421 H448 0.930 . S
C422 C420 1.380 . S
C422 C421 1.384 . S
C422 H449 0.931 . S
C423 C420 1.374 . S
C423 C424 1.390 . S
C423 H450 0.930 . S
C424 C423 1.390 . S
C424 C425 1.391 . S
C424 H451 0.930 . S
C425 C421 1.387 . S
C425 C424 1.391 . S
C426 Tb416 2.825 . S
C426 C420 1.507 . S
C426 O439 1.238 . S
C426 O440 1.247 . S
O427 Tb416 2.347 . S
O427 C431 1.259 . S
O428 Eu417 2.418 . S
O428 C431 1.265 . S
O429 Eu417 2.384 . S
O429 C438 1.255 . S
O430 Tb416 2.366 . S
O430 C438 1.265 . S
C431 O427 1.259 . S
C431 O428 1.265 . S
O432 Eu417 2.479 . S
O432 C447 1.238 . S
O433 Eu417 2.471 . S
O433 C447 1.247 . S
O434 Eu417 2.347 . S
O434 C418 1.259 . S
O435 Tb416 2.418 . S
O435 C418 1.265 . S
O436 Tb416 2.384 . S
O436 C419 1.255 . S
O437 Eu417 2.366 . S
O437 C419 1.265 . S
C438 O429 1.255 . S
C438 O430 1.265 . S
O439 Tb416 2.479 . S
O439 C426 1.238 . S
O440 Tb416 2.471 . S
O440 C426 1.247 . S
C441 C444 1.380 . S
C441 C445 1.374 . S
C441 C447 1.507 . S
C442 C443 1.387 . S
C442 C446 1.391 . S
C443 C442 1.387 . S
C443 C444 1.384 . S
C443 H452 0.930 . S
C444 C441 1.380 . S
C444 C443 1.384 . S
C444 H453 0.931 . S
C445 C441 1.374 . S
C445 C446 1.390 . S
C445 H454 0.930 . S
C446 C442 1.391 . S
C446 C445 1.390 . S
C446 H455 0.930 . S
C447 Eu417 2.825 . S
C447 O432 1.238 . S
C447 O433 1.247 . S
C447 C441 1.507 . S
H448 C421 0.930 . S
H449 C422 0.931 . S
H450 C423 0.930 . S
H451 C424 0.930 . S
H452 C443 0.930 . S
H453 C444 0.931 . S
H454 C445 0.930 . S
H455 C446 0.930 . S
Tb456 C466 2.825 . S
Tb456 O467 2.347 . S
Tb456 O470 2.366 . S
Tb456 O475 2.418 . S
Tb456 O476 2.384 . S
Tb456 O479 2.479 . S
Tb456 O480 2.471 . S
Eu457 O468 2.418 . S
Eu457 O469 2.384 . S
Eu457 O472 2.479 . S
Eu457 O473 2.471 . S
Eu457 O474 2.347 . S
Eu457 O477 2.366 . S
Eu457 C487 2.825 . S
C458 O474 1.259 . S
C458 O475 1.265 . S
C459 O476 1.255 . S
C459 O477 1.265 . S
C460 C462 1.380 . S
C460 C463 1.374 . S
C460 C466 1.507 . S
C461 C462 1.384 . S
C461 C465 1.387 . S
C461 H488 0.930 . S
C462 C460 1.380 . S
C462 C461 1.384 . S
C462 H489 0.931 . S
C463 C460 1.374 . S
C463 C464 1.390 . S
C463 H490 0.930 . S
C464 C463 1.390 . S
C464 C465 1.391 . S
C464 H491 0.930 . S
C465 C461 1.387 . S
C465 C464 1.391 . S
C466 Tb456 2.825 . S
C466 C460 1.507 . S
C466 O479 1.238 . S
C466 O480 1.247 . S
O467 Tb456 2.347 . S
O467 C471 1.259 . S
O468 Eu457 2.418 . S
O468 C471 1.265 . S
O469 Eu457 2.384 . S
O469 C478 1.255 . S
O470 Tb456 2.366 . S
O470 C478 1.265 . S
C471 O467 1.259 . S
C471 O468 1.265 . S
O472 Eu457 2.479 . S
O472 C487 1.238 . S
O473 Eu457 2.471 . S
O473 C487 1.247 . S
O474 Eu457 2.347 . S
O474 C458 1.259 . S
O475 Tb456 2.418 . S
O475 C458 1.265 . S
O476 Tb456 2.384 . S
O476 C459 1.255 . S
O477 Eu457 2.366 . S
O477 C459 1.265 . S
C478 O469 1.255 . S
C478 O470 1.265 . S
O479 Tb456 2.479 . S
O479 C466 1.238 . S
O480 Tb456 2.471 . S
O480 C466 1.247 . S
C481 C484 1.380 . S
C481 C485 1.374 . S
C481 C487 1.507 . S
C482 C483 1.387 . S
C482 C486 1.391 . S
C483 C482 1.387 . S
C483 C484 1.384 . S
C483 H492 0.930 . S
C484 C481 1.380 . S
C484 C483 1.384 . S
C484 H493 0.931 . S
C485 C481 1.374 . S
C485 C486 1.390 . S
C485 H494 0.930 . S
C486 C482 1.391 . S
C486 C485 1.390 . S
C486 H495 0.930 . S
C487 Eu457 2.825 . S
C487 O472 1.238 . S
C487 O473 1.247 . S
C487 C481 1.507 . S
H488 C461 0.930 . S
H489 C462 0.931 . S
H490 C463 0.930 . S
H491 C464 0.930 . S
H492 C483 0.930 . S
H493 C484 0.931 . S
H494 C485 0.930 . S
H495 C486 0.930 . S
Tb496 C506 2.825 . S
Tb496 O507 2.347 . S
Tb496 O510 2.366 . S
Tb496 O515 2.418 . S
Tb496 O516 2.384 . S
Tb496 O519 2.479 . S
Tb496 O520 2.471 . S
Eu497 O508 2.418 . S
Eu497 O509 2.384 . S
Eu497 O512 2.479 . S
Eu497 O513 2.471 . S
Eu497 O514 2.347 . S
Eu497 O517 2.366 . S
Eu497 C527 2.825 . S
C498 O514 1.259 . S
C498 O515 1.265 . S
C499 O516 1.255 . S
C499 O517 1.265 . S
C500 C502 1.380 . S
C500 C503 1.374 . S
C500 C506 1.507 . S
C501 C502 1.384 . S
C501 C505 1.387 . S
C501 H528 0.930 . S
C502 C500 1.380 . S
C502 C501 1.384 . S
C502 H529 0.931 . S
C503 C500 1.374 . S
C503 C504 1.390 . S
C503 H530 0.930 . S
C504 C503 1.390 . S
C504 C505 1.391 . S
C504 H531 0.930 . S
C505 C501 1.387 . S
C505 C504 1.391 . S
C506 Tb496 2.825 . S
C506 C500 1.507 . S
C506 O519 1.238 . S
C506 O520 1.247 . S
O507 Tb496 2.347 . S
O507 C511 1.259 . S
O508 Eu497 2.418 . S
O508 C511 1.265 . S
O509 Eu497 2.384 . S
O509 C518 1.255 . S
O510 Tb496 2.366 . S
O510 C518 1.265 . S
C511 O507 1.259 . S
C511 O508 1.265 . S
O512 Eu497 2.479 . S
O512 C527 1.238 . S
O513 Eu497 2.471 . S
O513 C527 1.247 . S
O514 Eu497 2.347 . S
O514 C498 1.259 . S
O515 Tb496 2.418 . S
O515 C498 1.265 . S
O516 Tb496 2.384 . S
O516 C499 1.255 . S
O517 Eu497 2.366 . S
O517 C499 1.265 . S
C518 O509 1.255 . S
C518 O510 1.265 . S
O519 Tb496 2.479 . S
O519 C506 1.238 . S
O520 Tb496 2.471 . S
O520 C506 1.247 . S
C521 C524 1.380 . S
C521 C525 1.374 . S
C521 C527 1.507 . S
C522 C523 1.387 . S
C522 C526 1.391 . S
C523 C522 1.387 . S
C523 C524 1.384 . S
C523 H532 0.930 . S
C524 C521 1.380 . S
C524 C523 1.384 . S
C524 H533 0.931 . S
C525 C521 1.374 . S
C525 C526 1.390 . S
C525 H534 0.930 . S
C526 C522 1.391 . S
C526 C525 1.390 . S
C526 H535 0.930 . S
C527 Eu497 2.825 . S
C527 O512 1.238 . S
C527 O513 1.247 . S
C527 C521 1.507 . S
H528 C501 0.930 . S
H529 C502 0.931 . S
H530 C503 0.930 . S
H531 C504 0.930 . S
H532 C523 0.930 . S
H533 C524 0.931 . S
H534 C525 0.930 . S
H535 C526 0.930 . S
Tb536 C546 2.825 . S
Tb536 O547 2.347 . S
Tb536 O550 2.366 . S
Tb536 O555 2.418 . S
Tb536 O556 2.384 . S
Tb536 O559 2.479 . S
Tb536 O560 2.471 . S
Eu537 O548 2.418 . S
Eu537 O549 2.384 . S
Eu537 O552 2.479 . S
Eu537 O553 2.471 . S
Eu537 O554 2.347 . S
Eu537 O557 2.366 . S
Eu537 C567 2.825 . S
C538 O554 1.259 . S
C538 O555 1.265 . S
C539 O556 1.255 . S
C539 O557 1.265 . S
C540 C542 1.380 . S
C540 C543 1.374 . S
C540 C546 1.507 . S
C541 C542 1.384 . S
C541 C545 1.387 . S
C541 H568 0.930 . S
C542 C540 1.380 . S
C542 C541 1.384 . S
C542 H569 0.931 . S
C543 C540 1.374 . S
C543 C544 1.390 . S
C543 H570 0.930 . S
C544 C543 1.390 . S
C544 C545 1.391 . S
C544 H571 0.930 . S
C545 C541 1.387 . S
C545 C544 1.391 . S
C546 Tb536 2.825 . S
C546 C540 1.507 . S
C546 O559 1.238 . S
C546 O560 1.247 . S
O547 Tb536 2.347 . S
O547 C551 1.259 . S
O548 Eu537 2.418 . S
O548 C551 1.265 . S
O549 Eu537 2.384 . S
O549 C558 1.255 . S
O550 Tb536 2.366 . S
O550 C558 1.265 . S
C551 O547 1.259 . S
C551 O548 1.265 . S
O552 Eu537 2.479 . S
O552 C567 1.238 . S
O553 Eu537 2.471 . S
O553 C567 1.247 . S
O554 Eu537 2.347 . S
O554 C538 1.259 . S
O555 Tb536 2.418 . S
O555 C538 1.265 . S
O556 Tb536 2.384 . S
O556 C539 1.255 . S
O557 Eu537 2.366 . S
O557 C539 1.265 . S
C558 O549 1.255 . S
C558 O550 1.265 . S
O559 Tb536 2.479 . S
O559 C546 1.238 . S
O560 Tb536 2.471 . S
O560 C546 1.247 . S
C561 C564 1.380 . S
C561 C565 1.374 . S
C561 C567 1.507 . S
C562 C563 1.387 . S
C562 C566 1.391 . S
C563 C562 1.387 . S
C563 C564 1.384 . S
C563 H572 0.930 . S
C564 C561 1.380 . S
C564 C563 1.384 . S
C564 H573 0.931 . S
C565 C561 1.374 . S
C565 C566 1.390 . S
C565 H574 0.930 . S
C566 C562 1.391 . S
C566 C565 1.390 . S
C566 H575 0.930 . S
C567 Eu537 2.825 . S
C567 O552 1.238 . S
C567 O553 1.247 . S
C567 C561 1.507 . S
H568 C541 0.930 . S
H569 C542 0.931 . S
H570 C543 0.930 . S
H571 C544 0.930 . S
H572 C563 0.930 . S
H573 C564 0.931 . S
H574 C565 0.930 . S
H575 C566 0.930 . S
C576 C577 1.363 . S
C576 C582 1.379 . S
C576 N584 1.356 . S
C577 C576 1.363 . S
C577 C583 1.363 . S
C578 C579 1.363 . S
C578 C583 1.379 . S
C578 N585 1.356 . S
C579 C578 1.363 . S
C579 C582 1.363 . S
N580 C582 1.356 . S
N580 H592 0.984 . S
N580 H593 0.985 . S
N581 C583 1.356 . S
N581 H586 0.984 . S
N581 H587 0.985 . S
C582 C576 1.379 . S
C582 C579 1.363 . S
C582 N580 1.356 . S
C583 C577 1.363 . S
C583 C578 1.379 . S
C583 N581 1.356 . S
N584 C576 1.356 . S
N584 H590 0.984 . S
N584 H591 0.984 . S
N585 C578 1.356 . S
N585 H588 0.984 . S
N585 H589 0.985 . S
H586 N581 0.984 . S
H587 N581 0.985 . S
H588 N585 0.984 . S
H589 N585 0.985 . S
H590 N584 0.984 . S
H591 N584 0.984 . S
H592 N580 0.984 . S
H593 N580 0.985 . S
C594 C595 1.363 . S
C594 C600 1.379 . S
C594 N602 1.356 . S
C595 C594 1.363 . S
C595 C601 1.363 . S
C596 C597 1.363 . S
C596 C601 1.379 . S
C596 N603 1.356 . S
C597 C596 1.363 . S
C597 C600 1.363 . S
N598 C600 1.383 . S
N598 H610 0.959 1_554 S
N598 H611 0.985 1_554 S
N599 C601 1.356 . S
N599 H604 0.984 . S
N599 H605 0.985 . S
C600 C594 1.379 . S
C600 C597 1.363 . S
C600 N598 1.383 . S
C601 C595 1.363 . S
C601 C596 1.379 . S
C601 N599 1.356 . S
N602 C594 1.356 . S
N602 H608 0.984 . S
N602 H609 0.984 . S
N603 C596 1.356 . S
N603 H606 0.984 . S
N603 H607 0.985 . S
H604 N599 0.984 . S
H605 N599 0.985 . S
H606 N603 0.984 . S
H607 N603 0.985 . S
H608 N602 0.984 . S
H609 N602 0.984 . S
H610 N598 0.959 1_556 S
H611 N598 0.985 1_556 S
C612 C613 1.363 . S
C612 C618 1.381 . S
C612 N620 1.356 1_554 S
C613 C612 1.363 . S
C613 C619 1.363 . S
C614 C615 1.363 . S
C614 C619 1.379 . S
C614 N621 1.356 . S
C615 C614 1.363 . S
C615 C618 1.388 . S
N616 C618 1.335 1_556 S
N616 H628 0.984 . S
N616 H629 0.985 . S
N617 C619 1.356 . S
N617 H622 0.984 . S
N617 H623 0.985 . S
C618 C612 1.381 . S
C618 C615 1.388 . S
C618 N616 1.335 1_554 S
C619 C613 1.363 . S
C619 C614 1.379 . S
C619 N617 1.356 . S
N620 C612 1.356 1_556 S
N620 H626 0.984 . S
N620 H627 0.984 . S
N621 C614 1.356 . S
N621 H624 0.984 . S
N621 H625 0.985 . S
H622 N617 0.984 . S
H623 N617 0.985 . S
H624 N621 0.984 . S
H625 N621 0.985 . S
H626 N620 0.984 . S
H627 N620 0.984 . S
H628 N616 0.984 . S
H629 N616 0.985 . S
C630 C631 1.363 . S
C630 C636 1.380 . S
C630 N638 1.356 1_556 S
C631 C630 1.363 . S
C631 C637 1.363 . S
C632 C633 1.363 . S
C632 C637 1.379 . S
C632 N639 1.356 . S
C633 C632 1.363 . S
C633 C636 1.369 . S
N634 C636 1.350 1_554 S
N634 H646 0.984 . S
N634 H647 0.985 . S
N635 C637 1.356 . S
N635 H640 0.984 . S
N635 H641 0.985 . S
C636 C630 1.380 . S
C636 C633 1.369 . S
C636 N634 1.350 1_556 S
C637 C631 1.363 . S
C637 C632 1.379 . S
C637 N635 1.356 . S
N638 C630 1.356 1_554 S
N638 H644 0.984 . S
N638 H645 0.984 1_554 S
N639 C632 1.356 . S
N639 H642 0.984 . S
N639 H643 0.985 . S
H640 N635 0.984 . S
H641 N635 0.985 . S
H642 N639 0.984 . S
H643 N639 0.985 . S
H644 N638 0.984 . S
H645 N638 0.984 1_556 S
H646 N634 0.984 . S
H647 N634 0.985 . S
C648 C649 1.363 . S
C648 C654 1.379 . S
C648 N656 1.356 . S
C649 C648 1.363 . S
C649 C655 1.363 . S
C650 C651 1.363 . S
C650 C655 1.379 . S
C650 N657 1.356 1_556 S
C651 C650 1.363 . S
C651 C654 1.363 . S
N652 C654 1.356 . S
N652 H664 0.984 . S
N652 H665 0.985 . S
N653 C655 1.356 . S
N653 H658 0.984 . S
N653 H659 0.985 . S
C654 C648 1.379 . S
C654 C651 1.363 . S
C654 N652 1.356 . S
C655 C649 1.363 . S
C655 C650 1.379 . S
C655 N653 1.356 . S
N656 C648 1.356 . S
N656 H662 0.984 . S
N656 H663 0.984 . S
N657 C650 1.356 1_554 S
N657 H660 0.984 . S
N657 H661 0.985 . S
H658 N653 0.984 . S
H659 N653 0.985 . S
H660 N657 0.984 . S
H661 N657 0.985 . S
H662 N656 0.984 . S
H663 N656 0.984 . S
H664 N652 0.984 . S
H665 N652 0.985 . S
C666 C667 1.363 . S
C666 C672 1.379 . S
C666 N674 1.356 . S
C667 C666 1.363 . S
C667 C673 1.374 . S
C668 C669 1.363 1_554 S
C668 C673 1.375 1_554 S
C668 N675 1.356 . S
C669 C668 1.363 1_556 S
C669 C672 1.363 . S
N670 C672 1.356 . S
N670 H682 0.984 . S
N670 H683 0.985 . S
N671 C673 1.352 1_554 S
N671 H676 0.990 . S
N671 H677 0.985 . S
C672 C666 1.379 . S
C672 C669 1.363 . S
C672 N670 1.356 . S
C673 C667 1.374 . S
C673 C668 1.375 1_556 S
C673 N671 1.352 1_556 S
N674 C666 1.356 . S
N674 H680 0.984 . S
N674 H681 0.984 . S
N675 C668 1.356 . S
N675 H678 0.984 . S
N675 H679 0.985 . S
H676 N671 0.990 . S
H677 N671 0.985 . S
H678 N675 0.984 . S
H679 N675 0.985 . S
H680 N674 0.984 . S
H681 N674 0.984 . S
H682 N670 0.984 . S
H683 N670 0.985 . S
C684 C685 1.363 . S
C684 C690 1.379 . S
C684 N692 1.356 . S
C685 C684 1.363 . S
C685 C691 1.363 . S
C686 C687 1.363 . S
C686 C691 1.379 . S
C686 N693 1.356 1_556 S
C687 C686 1.363 . S
C687 C690 1.363 . S
N688 C690 1.356 . S
N688 H700 0.984 . S
N688 H701 0.985 . S
N689 C691 1.356 1_554 S
N689 H694 0.984 1_554 S
N689 H695 0.985 . S
C690 C684 1.379 . S
C690 C687 1.363 . S
C690 N688 1.356 . S
C691 C685 1.363 . S
C691 C686 1.379 . S
C691 N689 1.356 1_556 S
N692 C684 1.356 . S
N692 H698 0.984 . S
N692 H699 0.984 . S
N693 C686 1.356 1_554 S
N693 H696 0.984 . S
N693 H697 0.985 . S
H694 N689 0.984 1_556 S
H695 N689 0.985 . S
H696 N693 0.984 . S
H697 N693 0.985 . S
H698 N692 0.984 . S
H699 N692 0.984 . S
H700 N688 0.984 . S
H701 N688 0.985 . S
C702 C703 1.363 . S
C702 C708 1.379 . S
C702 N710 1.356 . S
C703 C702 1.363 . S
C703 C709 1.363 . S
C704 C705 1.363 . S
C704 C709 1.379 . S
C704 N711 1.356 . S
C705 C704 1.363 . S
C705 C708 1.363 . S
N706 C708 1.356 . S
N706 H718 0.984 1_556 S
N706 H719 0.985 . S
N707 C709 1.356 . S
N707 H712 0.984 . S
N707 H713 0.985 . S
C708 C702 1.379 . S
C708 C705 1.363 . S
C708 N706 1.356 . S
C709 C703 1.363 . S
C709 C704 1.379 . S
C709 N707 1.356 . S
N710 C702 1.356 . S
N710 H716 0.970 1_556 S
N710 H717 0.984 . S
N711 C704 1.356 . S
N711 H714 0.984 . S
N711 H715 0.985 . S
H712 N707 0.984 . S
H713 N707 0.985 . S
H714 N711 0.984 . S
H715 N711 0.985 . S
H716 N710 0.970 1_554 S
H717 N710 0.984 . S
H718 N706 0.984 1_554 S
H719 N706 0.985 . S
C720 C721 1.363 1_554 S
C720 C726 1.379 . S
C720 N728 1.356 . S
C721 C720 1.363 1_556 S
C721 C727 1.363 . S
C722 C723 1.363 . S
C722 C727 1.379 . S
C722 N729 1.356 . S
C723 C722 1.363 . S
C723 C726 1.363 1_556 S
N724 C726 1.356 . S
N724 H736 0.984 . S
N724 H737 0.985 . S
N725 C727 1.356 . S
N725 H730 0.984 . S
N725 H731 0.985 . S
C726 C720 1.379 . S
C726 C723 1.363 1_554 S
C726 N724 1.356 . S
C727 C721 1.363 . S
C727 C722 1.379 . S
C727 N725 1.356 . S
N728 C720 1.356 . S
N728 H734 0.984 . S
N728 H735 0.984 . S
N729 C722 1.356 . S
N729 H732 0.984 . S
N729 H733 0.985 . S
H730 N725 0.984 . S
H731 N725 0.985 . S
H732 N729 0.984 . S
H733 N729 0.985 . S
H734 N728 0.984 . S
H735 N728 0.984 . S
H736 N724 0.984 . S
H737 N724 0.985 . S
C738 C739 1.363 . S
C738 C744 1.379 . S
C738 N746 1.356 1_554 S
C739 C738 1.363 . S
C739 C745 1.363 . S
C740 C741 1.363 . S
C740 C745 1.379 . S
C740 N747 1.356 . S
C741 C740 1.363 . S
C741 C744 1.367 . S
N742 C744 1.353 1_556 S
N742 H754 0.984 . S
N742 H755 0.985 . S
N743 C745 1.356 . S
N743 H748 0.984 . S
N743 H749 0.985 . S
C744 C738 1.379 . S
C744 C741 1.367 . S
C744 N742 1.353 1_554 S
C745 C739 1.363 . S
C745 C740 1.379 . S
C745 N743 1.356 . S
N746 C738 1.356 1_556 S
N746 H752 0.984 . S
N746 H753 0.984 . S
N747 C740 1.356 . S
N747 H750 0.984 . S
N747 H751 0.985 . S
H748 N743 0.984 . S
H749 N743 0.985 . S
H750 N747 0.984 . S
H751 N747 0.985 . S
H752 N746 0.984 . S
H753 N746 0.984 . S
H754 N742 0.984 . S
H755 N742 0.985 . S
C756 C757 1.363 . S
C756 C762 1.379 . S
C756 N764 1.356 . S
C757 C756 1.363 . S
C757 C763 1.363 . S
C758 C759 1.363 . S
C758 C763 1.379 . S
C758 N765 1.356 . S
C759 C758 1.363 . S
C759 C762 1.363 . S
N760 C762 1.356 . S
N760 H772 0.984 . S
N760 H773 0.985 . S
N761 C763 1.356 . S
N761 H766 0.984 . S
N761 H767 0.985 . S
C762 C756 1.379 . S
C762 C759 1.363 . S
C762 N760 1.356 . S
C763 C757 1.363 . S
C763 C758 1.379 . S
C763 N761 1.356 . S
N764 C756 1.356 . S
N764 H770 0.984 . S
N764 H771 0.984 . S
N765 C758 1.356 . S
N765 H768 0.984 . S
N765 H769 0.985 . S
H766 N761 0.984 . S
H767 N761 0.985 . S
H768 N765 0.984 . S
H769 N765 0.985 . S
H770 N764 0.984 . S
H771 N764 0.984 . S
H772 N760 0.984 . S
H773 N760 0.985 . S
C774 C775 1.363 . S
C774 C780 1.379 . S
C774 N782 1.356 . S
C775 C774 1.363 . S
C775 C781 1.363 . S
C776 C777 1.363 1_556 S
C776 C781 1.379 1_556 S
C776 N783 1.356 . S
C777 C776 1.363 1_554 S
C777 C780 1.363 . S
N778 C780 1.356 . S
N778 H790 0.984 . S
N778 H791 0.985 . S
N779 C781 1.356 1_556 S
N779 H784 0.984 . S
N779 H785 0.985 . S
C780 C774 1.379 . S
C780 C777 1.363 . S
C780 N778 1.356 . S
C781 C775 1.363 . S
C781 C776 1.379 1_554 S
C781 N779 1.356 1_554 S
N782 C774 1.356 . S
N782 H788 0.984 . S
N782 H789 0.984 . S
N783 C776 1.356 . S
N783 H786 0.984 . S
N783 H787 0.985 . S
H784 N779 0.984 . S
H785 N779 0.985 . S
H786 N783 0.984 . S
H787 N783 0.985 . S
H788 N782 0.984 . S
H789 N782 0.984 . S
H790 N778 0.984 . S
H791 N778 0.985 . S
C792 C793 1.363 . S
C792 C798 1.379 1_655 S
C792 N800 1.356 . S
C793 C792 1.363 . S
C793 C799 1.363 . S
C794 C795 1.363 . S
C794 C799 1.379 1_455 S
C794 N801 1.356 . S
C795 C794 1.363 . S
C795 C798 1.363 . S
N796 C798 1.356 . S
N796 H808 0.984 . S
N796 H809 0.985 . S
N797 C799 1.356 . S
N797 H802 0.984 . S
N797 H803 0.985 . S
C798 C792 1.379 1_455 S
C798 C795 1.363 . S
C798 N796 1.356 . S
C799 C793 1.363 . S
C799 C794 1.379 1_655 S
C799 N797 1.356 . S
N800 C792 1.356 . S
N800 H806 0.984 . S
N800 H807 0.984 . S
N801 C794 1.356 . S
N801 H804 0.984 . S
N801 H805 0.985 . S
H802 N797 0.984 . S
H803 N797 0.985 . S
H804 N801 0.984 . S
H805 N801 0.985 . S
H806 N800 0.984 . S
H807 N800 0.984 . S
H808 N796 0.984 . S
H809 N796 0.985 . S
C810 C811 1.363 . S
C810 C816 1.379 . S
C810 N818 1.356 . S
C811 C810 1.363 . S
C811 C817 1.363 . S
C812 C813 1.363 . S
C812 C817 1.379 . S
C812 N819 1.356 . S
C813 C812 1.363 . S
C813 C816 1.363 . S
N814 C816 1.356 . S
N814 H826 0.984 . S
N814 H827 0.985 . S
N815 C817 1.356 . S
N815 H820 0.984 . S
N815 H821 0.985 . S
C816 C810 1.379 . S
C816 C813 1.363 . S
C816 N814 1.356 . S
C817 C811 1.363 . S
C817 C812 1.379 . S
C817 N815 1.356 . S
N818 C810 1.356 . S
N818 H824 0.984 . S
N818 H825 0.984 . S
N819 C812 1.356 . S
N819 H822 0.984 . S
N819 H823 0.985 . S
H820 N815 0.984 . S
H821 N815 0.985 . S
H822 N819 0.984 . S
H823 N819 0.985 . S
H824 N818 0.984 . S
H825 N818 0.984 . S
H826 N814 0.984 . S
H827 N814 0.985 . S
C828 C829 1.363 . S
C828 C834 1.379 . S
C828 N836 1.356 . S
C829 C828 1.363 . S
C829 C835 1.363 . S
C830 C831 1.363 1_545 S
C830 C835 1.379 . S
C830 N837 1.356 1_545 S
C831 C830 1.363 1_565 S
C831 C834 1.363 1_565 S
N832 C834 1.356 1_565 S
N832 H844 0.984 . S
N832 H845 0.985 . S
N833 C835 1.356 . S
N833 H838 0.984 . S
N833 H839 0.985 . S
C834 C828 1.379 . S
C834 C831 1.363 1_545 S
C834 N832 1.356 1_545 S
C835 C829 1.363 . S
C835 C830 1.379 . S
C835 N833 1.356 . S
N836 C828 1.356 . S
N836 H842 0.984 . S
N836 H843 0.984 . S
N837 C830 1.356 1_565 S
N837 H840 0.984 . S
N837 H841 0.985 . S
H838 N833 0.984 . S
H839 N833 0.985 . S
H840 N837 0.984 . S
H841 N837 0.985 . S
H842 N836 0.984 . S
H843 N836 0.984 . S
H844 N832 0.984 . S
H845 N832 0.985 . S
C846 C847 1.363 . S
C846 C852 1.379 . S
C846 N854 1.356 . S
C847 C846 1.363 . S
C847 C853 1.363 . S
C848 C849 1.363 . S
C848 C853 1.379 . S
C848 N855 1.356 . S
C849 C848 1.363 . S
C849 C852 1.363 . S
N850 C852 1.356 . S
N850 H862 0.984 . S
N850 H863 0.985 . S
N851 C853 1.356 . S
N851 H856 0.984 . S
N851 H857 0.985 . S
C852 C846 1.379 . S
C852 C849 1.363 . S
C852 N850 1.356 . S
C853 C847 1.363 . S
C853 C848 1.379 . S
C853 N851 1.356 . S
N854 C846 1.356 . S
N854 H860 0.984 . S
N854 H861 0.984 . S
N855 C848 1.356 . S
N855 H858 0.984 . S
N855 H859 0.985 . S
H856 N851 0.984 . S
H857 N851 0.985 . S
H858 N855 0.984 . S
H859 N855 0.985 . S
H860 N854 0.984 . S
H861 N854 0.984 . S
H862 N850 0.984 . S
H863 N850 0.985 . S
C864 C865 1.363 . S
C864 C870 1.379 . S
C864 N872 1.356 . S
C865 C864 1.363 . S
C865 C871 1.363 . S
C866 C867 1.363 . S
C866 C871 1.379 . S
C866 N873 1.356 . S
C867 C866 1.363 . S
C867 C870 1.363 . S
N868 C870 1.356 . S
N868 H880 0.984 . S
N868 H881 0.985 . S
N869 C871 1.356 . S
N869 H874 0.984 . S
N869 H875 0.985 . S
C870 C864 1.379 . S
C870 C867 1.363 . S
C870 N868 1.356 . S
C871 C865 1.363 . S
C871 C866 1.379 . S
C871 N869 1.356 . S
N872 C864 1.356 . S
N872 H878 0.984 . S
N872 H879 0.984 . S
N873 C866 1.356 . S
N873 H876 0.984 . S
N873 H877 0.985 . S
H874 N869 0.984 . S
H875 N869 0.985 . S
H876 N873 0.984 . S
H877 N873 0.985 . S
H878 N872 0.984 . S
H879 N872 0.984 . S
H880 N868 0.984 . S
H881 N868 0.985 . S
C882 C883 1.363 . S
C882 C888 1.379 . S
C882 N890 1.356 . S
C883 C882 1.363 . S
C883 C889 1.363 . S
C884 C885 1.363 . S
C884 C889 1.379 . S
C884 N891 1.356 . S
C885 C884 1.363 . S
C885 C888 1.363 . S
N886 C888 1.356 . S
N886 H898 0.984 . S
N886 H899 0.985 . S
N887 C889 1.356 . S
N887 H892 0.984 . S
N887 H893 0.985 . S
C888 C882 1.379 . S
C888 C885 1.363 . S
C888 N886 1.356 . S
C889 C883 1.363 . S
C889 C884 1.379 . S
C889 N887 1.356 . S
N890 C882 1.356 . S
N890 H896 0.984 . S
N890 H897 0.984 . S
N891 C884 1.356 . S
N891 H894 0.984 . S
N891 H895 0.985 . S
H892 N887 0.984 . S
H893 N887 0.985 . S
H894 N891 0.984 . S
H895 N891 0.985 . S
H896 N890 0.984 . S
H897 N890 0.984 . S
H898 N886 0.984 . S
H899 N886 0.985 . S
C900 C901 1.363 . S
C900 C906 1.379 . S
C900 N908 1.356 . S
C901 C900 1.363 . S
C901 C907 1.363 . S
C902 C903 1.363 . S
C902 C907 1.379 . S
C902 N909 1.356 . S
C903 C902 1.363 . S
C903 C906 1.363 . S
N904 C906 1.356 . S
N904 H916 0.984 . S
N904 H917 0.985 . S
N905 C907 1.356 . S
N905 H910 0.984 . S
N905 H911 0.985 . S
C906 C900 1.379 . S
C906 C903 1.363 . S
C906 N904 1.356 . S
C907 C901 1.363 . S
C907 C902 1.379 . S
C907 N905 1.356 . S
N908 C900 1.356 . S
N908 H914 0.984 . S
N908 H915 0.984 . S
N909 C902 1.356 . S
N909 H912 0.984 . S
N909 H913 0.985 . S
H910 N905 0.984 . S
H911 N905 0.985 . S
H912 N909 0.984 . S
H913 N909 0.985 . S
H914 N908 0.984 . S
H915 N908 0.984 . S
H916 N904 0.984 . S
H917 N904 0.985 . S
C918 C919 1.363 . S
C918 C924 1.379 . S
C918 N926 1.356 . S
C919 C918 1.363 . S
C919 C925 1.363 . S
C920 C921 1.363 . S
C920 C925 1.379 . S
C920 N927 1.356 . S
C921 C920 1.363 . S
C921 C924 1.363 . S
N922 C924 1.356 . S
N922 H934 0.984 . S
N922 H935 0.985 . S
N923 C925 1.356 . S
N923 H928 0.984 . S
N923 H929 0.985 . S
C924 C918 1.379 . S
C924 C921 1.363 . S
C924 N922 1.356 . S
C925 C919 1.363 . S
C925 C920 1.379 . S
C925 N923 1.356 . S
N926 C918 1.356 . S
N926 H932 0.984 . S
N926 H933 0.984 . S
N927 C920 1.356 . S
N927 H930 0.984 . S
N927 H931 0.985 . S
H928 N923 0.984 . S
H929 N923 0.985 . S
H930 N927 0.984 . S
H931 N927 0.985 . S
H932 N926 0.984 . S
H933 N926 0.984 . S
H934 N922 0.984 . S
H935 N922 0.985 . S
C936 C937 1.363 . S
C936 C942 1.379 . S
C936 N944 1.356 . S
C937 C936 1.363 . S
C937 C943 1.363 . S
C938 C939 1.363 . S
C938 C943 1.379 . S
C938 N945 1.356 . S
C939 C938 1.363 . S
C939 C942 1.363 . S
N940 C942 1.356 . S
N940 H952 0.984 . S
N940 H953 0.985 . S
N941 C943 1.356 . S
N941 H946 0.984 . S
N941 H947 0.985 . S
C942 C936 1.379 . S
C942 C939 1.363 . S
C942 N940 1.356 . S
C943 C937 1.363 . S
C943 C938 1.379 . S
C943 N941 1.356 . S
N944 C936 1.356 . S
N944 H950 0.984 . S
N944 H951 0.984 . S
N945 C938 1.356 . S
N945 H948 0.984 . S
N945 H949 0.985 . S
H946 N941 0.984 . S
H947 N941 0.985 . S
H948 N945 0.984 . S
H949 N945 0.985 . S
H950 N944 0.984 . S
H951 N944 0.984 . S
H952 N940 0.984 . S
H953 N940 0.985 . S
C954 C955 1.363 1_565 S
C954 C960 1.379 . S
C954 N962 1.356 1_565 S
C955 C954 1.363 1_545 S
C955 C961 1.363 1_545 S
C956 C957 1.363 . S
C956 C961 1.379 . S
C956 N963 1.356 . S
C957 C956 1.363 . S
C957 C960 1.363 . S
N958 C960 1.356 . S
N958 H970 0.984 . S
N958 H971 0.985 . S
N959 C961 1.356 1_545 S
N959 H964 0.984 . S
N959 H965 0.985 . S
C960 C954 1.379 . S
C960 C957 1.363 . S
C960 N958 1.356 . S
C961 C955 1.363 1_565 S
C961 C956 1.379 . S
C961 N959 1.356 1_565 S
N962 C954 1.356 1_545 S
N962 H968 0.984 . S
N962 H969 0.984 . S
N963 C956 1.356 . S
N963 H966 0.984 . S
N963 H967 0.985 . S
H964 N959 0.984 . S
H965 N959 0.985 . S
H966 N963 0.984 . S
H967 N963 0.985 . S
H968 N962 0.984 . S
H969 N962 0.984 . S
H970 N958 0.984 . S
H971 N958 0.985 . S
C972 C973 1.363 . S
C972 C978 1.379 . S
C972 N980 1.356 . S
C973 C972 1.363 . S
C973 C979 1.363 . S
C974 C975 1.363 . S
C974 C979 1.379 . S
C974 N981 1.356 . S
C975 C974 1.363 . S
C975 C978 1.363 . S
N976 C978 1.356 . S
N976 H988 0.984 . S
N976 H989 0.985 . S
N977 C979 1.370 . S
N977 H982 0.961 1_455 S
N977 H983 0.999 1_455 S
C978 C972 1.379 . S
C978 C975 1.363 . S
C978 N976 1.356 . S
C979 C973 1.363 . S
C979 C974 1.379 . S
C979 N977 1.370 . S
N980 C972 1.356 . S
N980 H986 0.984 . S
N980 H987 0.984 . S
N981 C974 1.356 . S
N981 H984 0.984 . S
N981 H985 0.985 . S
H982 N977 0.961 1_655 S
H983 N977 0.999 1_655 S
H984 N981 0.984 . S
H985 N981 0.985 . S
H986 N980 0.984 . S
H987 N980 0.984 . S
H988 N976 0.984 . S
H989 N976 0.985 . S
C990 C991 1.363 . S
C990 C996 1.379 . S
C990 N998 1.356 . S
C991 C990 1.363 . S
C991 C997 1.363 . S
C992 C993 1.363 . S
C992 C997 1.379 . S
C992 N999 1.356 . S
C993 C992 1.363 . S
C993 C996 1.363 . S
N994 C996 1.356 . S
N994 H1006 0.984 . S
N994 H1007 0.985 . S
N995 C997 1.356 . S
N995 H1000 0.984 . S
N995 H1001 0.985 . S
C996 C990 1.379 . S
C996 C993 1.363 . S
C996 N994 1.356 . S
C997 C991 1.363 . S
C997 C992 1.379 . S
C997 N995 1.356 . S
N998 C990 1.356 . S
N998 H1004 0.984 . S
N998 H1005 0.984 . S
N999 C992 1.356 . S
N999 H1002 0.984 . S
N999 H1003 0.985 . S
H1000 N995 0.984 . S
H1001 N995 0.985 . S
H1002 N999 0.984 . S
H1003 N999 0.985 . S
H1004 N998 0.984 . S
H1005 N998 0.984 . S
H1006 N994 0.984 . S
H1007 N994 0.985 . S
C1008 C1009 1.363 . S
C1008 C1014 1.379 . S
C1008 N1016 1.356 . S
C1009 C1008 1.363 . S
C1009 C1015 1.363 . S
C1010 C1011 1.363 . S
C1010 C1015 1.379 . S
C1010 N1017 1.356 . S
C1011 C1010 1.363 . S
C1011 C1014 1.363 . S
N1012 C1014 1.356 . S
N1012 H1024 0.984 . S
N1012 H1025 0.985 . S
N1013 C1015 1.356 . S
N1013 H1018 0.984 . S
N1013 H1019 0.985 . S
C1014 C1008 1.379 . S
C1014 C1011 1.363 . S
C1014 N1012 1.356 . S
C1015 C1009 1.363 . S
C1015 C1010 1.379 . S
C1015 N1013 1.356 . S
N1016 C1008 1.356 . S
N1016 H1022 0.984 . S
N1016 H1023 0.984 . S
N1017 C1010 1.356 . S
N1017 H1020 0.984 . S
N1017 H1021 0.985 . S
H1018 N1013 0.984 . S
H1019 N1013 0.985 . S
H1020 N1017 0.984 . S
H1021 N1017 0.985 . S
H1022 N1016 0.984 . S
H1023 N1016 0.984 . S
H1024 N1012 0.984 . S
H1025 N1012 0.985 . S
C1026 C1027 1.363 . S
C1026 C1032 1.379 . S
C1026 N1034 1.356 . S
C1027 C1026 1.363 . S
C1027 C1033 1.363 . S
C1028 C1029 1.363 . S
C1028 C1033 1.379 . S
C1028 N1035 1.356 . S
C1029 C1028 1.363 . S
C1029 C1032 1.363 . S
N1030 C1032 1.356 . S
N1030 H1042 0.984 . S
N1030 H1043 0.985 . S
N1031 C1033 1.356 . S
N1031 H1036 0.984 . S
N1031 H1037 0.985 . S
C1032 C1026 1.379 . S
C1032 C1029 1.363 . S
C1032 N1030 1.356 . S
C1033 C1027 1.363 . S
C1033 C1028 1.379 . S
C1033 N1031 1.356 . S
N1034 C1026 1.356 . S
N1034 H1040 0.984 . S
N1034 H1041 0.984 . S
N1035 C1028 1.356 . S
N1035 H1038 0.984 . S
N1035 H1039 0.985 . S
H1036 N1031 0.984 . S
H1037 N1031 0.985 . S
H1038 N1035 0.984 . S
H1039 N1035 0.985 . S
H1040 N1034 0.984 . S
H1041 N1034 0.984 . S
H1042 N1030 0.984 . S
H1043 N1030 0.985 . S
C1044 C1045 1.363 . S
C1044 C1050 1.379 . S
C1044 N1052 1.356 . S
C1045 C1044 1.363 . S
C1045 C1051 1.363 . S
C1046 C1047 1.363 . S
C1046 C1051 1.379 . S
C1046 N1053 1.356 . S
C1047 C1046 1.363 . S
C1047 C1050 1.363 . S
N1048 C1050 1.356 . S
N1048 H1060 0.984 . S
N1048 H1061 0.985 . S
N1049 C1051 1.356 . S
N1049 H1054 0.984 . S
N1049 H1055 0.985 . S
C1050 C1044 1.379 . S
C1050 C1047 1.363 . S
C1050 N1048 1.356 . S
C1051 C1045 1.363 . S
C1051 C1046 1.379 . S
C1051 N1049 1.356 . S
N1052 C1044 1.356 . S
N1052 H1058 0.984 . S
N1052 H1059 0.984 . S
N1053 C1046 1.356 . S
N1053 H1056 0.984 . S
N1053 H1057 0.985 . S
H1054 N1049 0.984 . S
H1055 N1049 0.985 . S
H1056 N1053 0.984 . S
H1057 N1053 0.985 . S
H1058 N1052 0.984 . S
H1059 N1052 0.984 . S
H1060 N1048 0.984 . S
H1061 N1048 0.985 . S
C1062 C1063 1.363 . S
C1062 C1068 1.379 1_565 S
C1062 N1070 1.356 . S
C1063 C1062 1.363 . S
C1063 C1069 1.363 . S
C1064 C1065 1.363 . S
C1064 C1069 1.379 1_545 S
C1064 N1071 1.356 . S
C1065 C1064 1.363 . S
C1065 C1068 1.363 . S
N1066 C1068 1.356 . S
N1066 H1078 0.984 . S
N1066 H1079 0.985 . S
N1067 C1069 1.356 . S
N1067 H1072 0.984 . S
N1067 H1073 0.985 . S
C1068 C1062 1.379 1_545 S
C1068 C1065 1.363 . S
C1068 N1066 1.356 . S
C1069 C1063 1.363 . S
C1069 C1064 1.379 1_565 S
C1069 N1067 1.356 . S
N1070 C1062 1.356 . S
N1070 H1076 0.984 . S
N1070 H1077 0.984 . S
N1071 C1064 1.356 . S
N1071 H1074 0.984 . S
N1071 H1075 0.985 . S
H1072 N1067 0.984 . S
H1073 N1067 0.985 . S
H1074 N1071 0.984 . S
H1075 N1071 0.985 . S
H1076 N1070 0.984 . S
H1077 N1070 0.984 . S
H1078 N1066 0.984 . S
H1079 N1066 0.985 . S
C1080 C1081 1.363 . S
C1080 C1086 1.379 . S
C1080 N1088 1.356 . S
C1081 C1080 1.363 . S
C1081 C1087 1.363 . S
C1082 C1083 1.363 . S
C1082 C1087 1.379 1_655 S
C1082 N1089 1.356 . S
C1083 C1082 1.363 . S
C1083 C1086 1.363 1_655 S
N1084 C1086 1.356 . S
N1084 H1096 0.984 . S
N1084 H1097 0.985 1_455 S
N1085 C1087 1.356 . S
N1085 H1090 0.984 . S
N1085 H1091 0.985 1_455 S
C1086 C1080 1.379 . S
C1086 C1083 1.363 1_455 S
C1086 N1084 1.356 . S
C1087 C1081 1.363 . S
C1087 C1082 1.379 1_455 S
C1087 N1085 1.356 . S
N1088 C1080 1.356 . S
N1088 H1094 0.984 . S
N1088 H1095 0.984 . S
N1089 C1082 1.356 . S
N1089 H1092 0.984 . S
N1089 H1093 0.985 . S
H1090 N1085 0.984 . S
H1091 N1085 0.985 1_655 S
H1092 N1089 0.984 . S
H1093 N1089 0.985 . S
H1094 N1088 0.984 . S
H1095 N1088 0.984 . S
H1096 N1084 0.984 . S
H1097 N1084 0.985 1_655 S
C1098 C1099 1.363 . S
C1098 C1104 1.379 . S
C1098 N1106 1.356 . S
C1099 C1098 1.363 . S
C1099 C1105 1.363 . S
C1100 C1101 1.363 . S
C1100 C1105 1.379 . S
C1100 N1107 1.356 . S
C1101 C1100 1.363 . S
C1101 C1104 1.363 . S
N1102 C1104 1.356 . S
N1102 H1114 0.984 . S
N1102 H1115 0.985 . S
N1103 C1105 1.356 . S
N1103 H1108 0.984 . S
N1103 H1109 0.985 . S
C1104 C1098 1.379 . S
C1104 C1101 1.363 . S
C1104 N1102 1.356 . S
C1105 C1099 1.363 . S
C1105 C1100 1.379 . S
C1105 N1103 1.356 . S
N1106 C1098 1.356 . S
N1106 H1112 0.984 . S
N1106 H1113 0.984 . S
N1107 C1100 1.356 . S
N1107 H1110 0.984 . S
N1107 H1111 0.985 . S
H1108 N1103 0.984 . S
H1109 N1103 0.985 . S
H1110 N1107 0.984 . S
H1111 N1107 0.985 . S
H1112 N1106 0.984 . S
H1113 N1106 0.984 . S
H1114 N1102 0.984 . S
H1115 N1102 0.985 . S
C1116 C1117 1.363 . S
C1116 C1122 1.379 . S
C1116 N1124 1.356 1_655 S
C1117 C1116 1.363 . S
C1117 C1123 1.363 . S
C1118 C1119 1.363 . S
C1118 C1123 1.379 . S
C1118 N1125 1.356 . S
C1119 C1118 1.363 . S
C1119 C1122 1.363 . S
N1120 C1122 1.356 . S
N1120 H1132 0.984 . S
N1120 H1133 0.985 . S
N1121 C1123 1.356 1_455 S
N1121 H1126 0.984 . S
N1121 H1127 0.985 . S
C1122 C1116 1.379 . S
C1122 C1119 1.363 . S
C1122 N1120 1.356 . S
C1123 C1117 1.363 . S
C1123 C1118 1.379 . S
C1123 N1121 1.356 1_655 S
N1124 C1116 1.356 1_455 S
N1124 H1130 0.984 1_455 S
N1124 H1131 0.984 . S
N1125 C1118 1.356 . S
N1125 H1128 0.984 . S
N1125 H1129 0.985 . S
H1126 N1121 0.984 . S
H1127 N1121 0.985 . S
H1128 N1125 0.984 . S
H1129 N1125 0.985 . S
H1130 N1124 0.984 1_655 S
H1131 N1124 0.984 . S
H1132 N1120 0.984 . S
H1133 N1120 0.985 . S
C1134 C1135 1.363 . S
C1134 C1140 1.379 . S
C1134 N1142 1.356 . S
C1135 C1134 1.363 . S
C1135 C1141 1.363 . S
C1136 C1137 1.363 . S
C1136 C1141 1.379 . S
C1136 N1143 1.356 . S
C1137 C1136 1.363 . S
C1137 C1140 1.363 . S
N1138 C1140 1.356 . S
N1138 H1150 0.984 . S
N1138 H1151 0.985 . S
N1139 C1141 1.356 . S
N1139 H1144 0.984 . S
N1139 H1145 0.985 . S
C1140 C1134 1.379 . S
C1140 C1137 1.363 . S
C1140 N1138 1.356 . S
C1141 C1135 1.363 . S
C1141 C1136 1.379 . S
C1141 N1139 1.356 . S
N1142 C1134 1.356 . S
N1142 H1148 0.984 . S
N1142 H1149 0.984 . S
N1143 C1136 1.356 . S
N1143 H1146 0.984 . S
N1143 H1147 0.985 . S
H1144 N1139 0.984 . S
H1145 N1139 0.985 . S
H1146 N1143 0.984 . S
H1147 N1143 0.985 . S
H1148 N1142 0.984 . S
H1149 N1142 0.984 . S
H1150 N1138 0.984 . S
H1151 N1138 0.985 . S
C1152 C1153 1.363 . S
C1152 C1158 1.379 . S
C1152 N1160 1.357 . S
C1153 C1152 1.363 . S
C1153 C1159 1.363 . S
C1154 C1155 1.363 . S
C1154 C1159 1.379 . S
C1154 N1161 1.356 . S
C1155 C1154 1.363 . S
C1155 C1158 1.363 . S
N1156 C1158 1.356 . S
N1156 H1168 0.984 . S
N1156 H1169 0.985 . S
N1157 C1159 1.356 1_565 S
N1157 H1162 0.984 . S
N1157 H1163 0.985 . S
C1158 C1152 1.379 . S
C1158 C1155 1.363 . S
C1158 N1156 1.356 . S
C1159 C1153 1.363 . S
C1159 C1154 1.379 . S
C1159 N1157 1.356 1_545 S
N1160 C1152 1.357 . S
N1160 H1166 0.986 . S
N1160 H1167 0.982 1_545 S
N1161 C1154 1.356 . S
N1161 H1164 0.984 . S
N1161 H1165 0.985 . S
H1162 N1157 0.984 . S
H1163 N1157 0.985 . S
H1164 N1161 0.984 . S
H1165 N1161 0.985 . S
H1166 N1160 0.986 . S
H1167 N1160 0.982 1_565 S
H1168 N1156 0.984 . S
H1169 N1156 0.985 . S
C1170 C1171 1.363 . S
C1170 C1176 1.379 . S
C1170 N1178 1.356 . S
C1171 C1170 1.363 . S
C1171 C1177 1.363 . S
C1172 C1173 1.363 . S
C1172 C1177 1.379 . S
C1172 N1179 1.356 . S
C1173 C1172 1.363 . S
C1173 C1176 1.363 . S
N1174 C1176 1.356 . S
N1174 H1186 0.984 . S
N1174 H1187 0.985 . S
N1175 C1177 1.356 . S
N1175 H1180 0.984 . S
N1175 H1181 0.985 . S
C1176 C1170 1.379 . S
C1176 C1173 1.363 . S
C1176 N1174 1.356 . S
C1177 C1171 1.363 . S
C1177 C1172 1.379 . S
C1177 N1175 1.356 . S
N1178 C1170 1.356 . S
N1178 H1184 0.984 . S
N1178 H1185 0.984 . S
N1179 C1172 1.356 . S
N1179 H1182 0.984 . S
N1179 H1183 0.985 . S
H1180 N1175 0.984 . S
H1181 N1175 0.985 . S
H1182 N1179 0.984 . S
H1183 N1179 0.985 . S
H1184 N1178 0.984 . S
H1185 N1178 0.984 . S
H1186 N1174 0.984 . S
H1187 N1174 0.985 . S
C1188 C1189 1.363 . S
C1188 C1194 1.379 . S
C1188 N1196 1.356 . S
C1189 C1188 1.363 . S
C1189 C1195 1.363 . S
C1190 C1191 1.363 . S
C1190 C1195 1.379 . S
C1190 N1197 1.356 . S
C1191 C1190 1.363 . S
C1191 C1194 1.363 . S
N1192 C1194 1.356 . S
N1192 H1204 0.984 . S
N1192 H1205 0.985 . S
N1193 C1195 1.356 . S
N1193 H1198 0.984 . S
N1193 H1199 0.985 . S
C1194 C1188 1.379 . S
C1194 C1191 1.363 . S
C1194 N1192 1.356 . S
C1195 C1189 1.363 . S
C1195 C1190 1.379 . S
C1195 N1193 1.356 . S
N1196 C1188 1.356 . S
N1196 H1202 0.984 . S
N1196 H1203 0.984 . S
N1197 C1190 1.356 . S
N1197 H1200 0.984 . S
N1197 H1201 0.985 . S
H1198 N1193 0.984 . S
H1199 N1193 0.985 . S
H1200 N1197 0.984 . S
H1201 N1197 0.985 . S
H1202 N1196 0.984 . S
H1203 N1196 0.984 . S
H1204 N1192 0.984 . S
H1205 N1192 0.985 . S
C1206 C1207 1.363 . S
C1206 C1212 1.379 . S
C1206 N1214 1.356 . S
C1207 C1206 1.363 . S
C1207 C1213 1.363 . S
C1208 C1209 1.363 . S
C1208 C1213 1.379 . S
C1208 N1215 1.356 . S
C1209 C1208 1.363 . S
C1209 C1212 1.363 . S
N1210 C1212 1.356 . S
N1210 H1222 0.984 . S
N1210 H1223 0.985 . S
N1211 C1213 1.356 . S
N1211 H1216 0.984 . S
N1211 H1217 0.985 . S
C1212 C1206 1.379 . S
C1212 C1209 1.363 . S
C1212 N1210 1.356 . S
C1213 C1207 1.363 . S
C1213 C1208 1.379 . S
C1213 N1211 1.356 . S
N1214 C1206 1.356 . S
N1214 H1220 0.984 . S
N1214 H1221 0.984 . S
N1215 C1208 1.356 . S
N1215 H1218 0.984 . S
N1215 H1219 0.985 . S
H1216 N1211 0.984 . S
H1217 N1211 0.985 . S
H1218 N1215 0.984 . S
H1219 N1215 0.985 . S
H1220 N1214 0.984 . S
H1221 N1214 0.984 . S
H1222 N1210 0.984 . S
H1223 N1210 0.985 . S
C1224 C1225 1.363 . S
C1224 C1230 1.379 . S
C1224 N1232 1.356 . S
C1225 C1224 1.363 . S
C1225 C1231 1.363 . S
C1226 C1227 1.363 . S
C1226 C1231 1.379 . S
C1226 N1233 1.356 . S
C1227 C1226 1.363 . S
C1227 C1230 1.363 . S
N1228 C1230 1.356 1_545 S
N1228 H1240 0.984 . S
N1228 H1241 0.985 . S
N1229 C1231 1.356 . S
N1229 H1234 0.984 . S
N1229 H1235 0.985 . S
C1230 C1224 1.379 . S
C1230 C1227 1.363 . S
C1230 N1228 1.356 1_565 S
C1231 C1225 1.363 . S
C1231 C1226 1.379 . S
C1231 N1229 1.356 . S
N1232 C1224 1.356 . S
N1232 H1238 0.984 . S
N1232 H1239 0.984 . S
N1233 C1226 1.356 . S
N1233 H1236 0.984 . S
N1233 H1237 0.985 . S
H1234 N1229 0.984 . S
H1235 N1229 0.985 . S
H1236 N1233 0.984 . S
H1237 N1233 0.985 . S
H1238 N1232 0.984 . S
H1239 N1232 0.984 . S
H1240 N1228 0.984 . S
H1241 N1228 0.985 . S
C1242 C1243 1.363 . S
C1242 C1248 1.379 . S
C1242 N1250 1.356 . S
C1243 C1242 1.363 . S
C1243 C1249 1.363 . S
C1244 C1245 1.363 . S
C1244 C1249 1.379 . S
C1244 N1251 1.356 . S
C1245 C1244 1.363 . S
C1245 C1248 1.363 . S
N1246 C1248 1.356 . S
N1246 H1258 0.984 . S
N1246 H1259 0.985 . S
N1247 C1249 1.356 . S
N1247 H1252 0.984 . S
N1247 H1253 0.985 . S
C1248 C1242 1.379 . S
C1248 C1245 1.363 . S
C1248 N1246 1.356 . S
C1249 C1243 1.363 . S
C1249 C1244 1.379 . S
C1249 N1247 1.356 . S
N1250 C1242 1.356 . S
N1250 H1256 0.984 . S
N1250 H1257 0.984 . S
N1251 C1244 1.356 . S
N1251 H1254 0.984 . S
N1251 H1255 0.985 . S
H1252 N1247 0.984 . S
H1253 N1247 0.985 . S
H1254 N1251 0.984 . S
H1255 N1251 0.985 . S
H1256 N1250 0.984 . S
H1257 N1250 0.984 . S
H1258 N1246 0.984 . S
H1259 N1246 0.985 . S
C1260 C1261 1.363 . S
C1260 C1266 1.379 . S
C1260 N1268 1.356 . S
C1261 C1260 1.363 . S
C1261 C1267 1.363 . S
C1262 C1263 1.363 . S
C1262 C1267 1.379 . S
C1262 N1269 1.356 . S
C1263 C1262 1.363 . S
C1263 C1266 1.363 . S
N1264 C1266 1.356 . S
N1264 H1276 0.984 . S
N1264 H1277 0.985 . S
N1265 C1267 1.356 . S
N1265 H1270 0.984 . S
N1265 H1271 0.985 . S
C1266 C1260 1.379 . S
C1266 C1263 1.363 . S
C1266 N1264 1.356 . S
C1267 C1261 1.363 . S
C1267 C1262 1.379 . S
C1267 N1265 1.356 . S
N1268 C1260 1.356 . S
N1268 H1274 0.984 . S
N1268 H1275 0.984 . S
N1269 C1262 1.356 . S
N1269 H1272 0.984 . S
N1269 H1273 0.985 . S
H1270 N1265 0.984 . S
H1271 N1265 0.985 . S
H1272 N1269 0.984 . S
H1273 N1269 0.985 . S
H1274 N1268 0.984 . S
H1275 N1268 0.984 . S
H1276 N1264 0.984 . S
H1277 N1264 0.985 . S
C1278 C1279 1.363 . S
C1278 C1284 1.379 . S
C1278 N1286 1.356 1_655 S
C1279 C1278 1.363 . S
C1279 C1285 1.363 . S
C1280 C1281 1.363 . S
C1280 C1285 1.379 . S
C1280 N1287 1.356 . S
C1281 C1280 1.363 . S
C1281 C1284 1.363 . S
N1282 C1284 1.356 1_455 S
N1282 H1294 0.984 . S
N1282 H1295 0.985 1_455 S
N1283 C1285 1.356 . S
N1283 H1288 0.984 . S
N1283 H1289 0.985 . S
C1284 C1278 1.379 . S
C1284 C1281 1.363 . S
C1284 N1282 1.356 1_655 S
C1285 C1279 1.363 . S
C1285 C1280 1.379 . S
C1285 N1283 1.356 . S
N1286 C1278 1.356 1_455 S
N1286 H1292 0.984 . S
N1286 H1293 0.984 . S
N1287 C1280 1.356 . S
N1287 H1290 0.984 . S
N1287 H1291 0.985 . S
H1288 N1283 0.984 . S
H1289 N1283 0.985 . S
H1290 N1287 0.984 . S
H1291 N1287 0.985 . S
H1292 N1286 0.984 . S
H1293 N1286 0.984 . S
H1294 N1282 0.984 . S
H1295 N1282 0.985 1_655 S
C1296 C1297 1.363 . S
C1296 C1302 1.379 . S
C1296 N1304 1.356 . S
C1297 C1296 1.363 . S
C1297 C1303 1.363 . S
C1298 C1299 1.363 . S
C1298 C1303 1.379 . S
C1298 N1305 1.356 . S
C1299 C1298 1.363 . S
C1299 C1302 1.363 . S
N1300 C1302 1.356 . S
N1300 H1312 0.984 . S
N1300 H1313 0.985 . S
N1301 C1303 1.356 . S
N1301 H1306 0.984 . S
N1301 H1307 0.985 . S
C1302 C1296 1.379 . S
C1302 C1299 1.363 . S
C1302 N1300 1.356 . S
C1303 C1297 1.363 . S
C1303 C1298 1.379 . S
C1303 N1301 1.356 . S
N1304 C1296 1.356 . S
N1304 H1310 0.984 . S
N1304 H1311 0.984 . S
N1305 C1298 1.356 . S
N1305 H1308 0.984 . S
N1305 H1309 0.985 . S
H1306 N1301 0.984 . S
H1307 N1301 0.985 . S
H1308 N1305 0.984 . S
H1309 N1305 0.985 . S
H1310 N1304 0.984 . S
H1311 N1304 0.984 . S
H1312 N1300 0.984 . S
H1313 N1300 0.985 . S
C1314 C1315 1.363 . S
C1314 C1320 1.379 . S
C1314 N1322 1.356 . S
C1315 C1314 1.363 . S
C1315 C1321 1.363 . S
C1316 C1317 1.363 . S
C1316 C1321 1.379 . S
C1316 N1323 1.356 . S
C1317 C1316 1.363 . S
C1317 C1320 1.363 . S
N1318 C1320 1.356 . S
N1318 H1330 0.984 . S
N1318 H1331 0.985 . S
N1319 C1321 1.356 . S
N1319 H1324 0.984 . S
N1319 H1325 0.985 . S
C1320 C1314 1.379 . S
C1320 C1317 1.363 . S
C1320 N1318 1.356 . S
C1321 C1315 1.363 . S
C1321 C1316 1.379 . S
C1321 N1319 1.356 . S
N1322 C1314 1.356 . S
N1322 H1328 0.984 . S
N1322 H1329 0.984 . S
N1323 C1316 1.356 . S
N1323 H1326 0.984 . S
N1323 H1327 0.985 1_545 S
H1324 N1319 0.984 . S
H1325 N1319 0.985 . S
H1326 N1323 0.984 . S
H1327 N1323 0.985 1_565 S
H1328 N1322 0.984 . S
H1329 N1322 0.984 . S
H1330 N1318 0.984 . S
H1331 N1318 0.985 . S
C1332 C1333 1.363 . S
C1332 C1338 1.379 . S
C1332 N1340 1.356 . S
C1333 C1332 1.363 . S
C1333 C1339 1.363 . S
C1334 C1335 1.363 . S
C1334 C1339 1.379 . S
C1334 N1341 1.356 . S
C1335 C1334 1.363 . S
C1335 C1338 1.363 . S
N1336 C1338 1.356 . S
N1336 H1348 0.984 . S
N1336 H1349 0.985 . S
N1337 C1339 1.356 . S
N1337 H1342 0.984 . S
N1337 H1343 0.985 . S
C1338 C1332 1.379 . S
C1338 C1335 1.363 . S
C1338 N1336 1.356 . S
C1339 C1333 1.363 . S
C1339 C1334 1.379 . S
C1339 N1337 1.356 . S
N1340 C1332 1.356 . S
N1340 H1346 0.984 . S
N1340 H1347 0.984 . S
N1341 C1334 1.356 . S
N1341 H1344 0.984 . S
N1341 H1345 0.985 . S
H1342 N1337 0.984 . S
H1343 N1337 0.985 . S
H1344 N1341 0.984 . S
H1345 N1341 0.985 . S
H1346 N1340 0.984 . S
H1347 N1340 0.984 . S
H1348 N1336 0.984 . S
H1349 N1336 0.985 . S
C1350 C1351 1.363 . S
C1350 C1356 1.379 . S
C1350 N1358 1.356 . S
C1351 C1350 1.363 . S
C1351 C1357 1.363 . S
C1352 C1353 1.363 . S
C1352 C1357 1.379 . S
C1352 N1359 1.356 . S
C1353 C1352 1.363 . S
C1353 C1356 1.363 . S
N1354 C1356 1.356 . S
N1354 H1366 0.984 . S
N1354 H1367 0.985 . S
N1355 C1357 1.356 . S
N1355 H1360 0.984 . S
N1355 H1361 0.985 . S
C1356 C1350 1.379 . S
C1356 C1353 1.363 . S
C1356 N1354 1.356 . S
C1357 C1351 1.363 . S
C1357 C1352 1.379 . S
C1357 N1355 1.356 . S
N1358 C1350 1.356 . S
N1358 H1364 0.984 . S
N1358 H1365 0.984 . S
N1359 C1352 1.356 . S
N1359 H1362 0.984 . S
N1359 H1363 0.985 . S
H1360 N1355 0.984 . S
H1361 N1355 0.985 . S
H1362 N1359 0.984 . S
H1363 N1359 0.985 . S
H1364 N1358 0.984 . S
H1365 N1358 0.984 . S
H1366 N1354 0.984 . S
H1367 N1354 0.985 . S
C1368 C1369 1.363 . S
C1368 C1374 1.379 . S
C1368 N1376 1.356 . S
C1369 C1368 1.363 . S
C1369 C1375 1.363 . S
C1370 C1371 1.363 . S
C1370 C1375 1.379 . S
C1370 N1377 1.356 . S
C1371 C1370 1.363 . S
C1371 C1374 1.363 . S
N1372 C1374 1.356 . S
N1372 H1384 0.984 . S
N1372 H1385 0.985 . S
N1373 C1375 1.356 . S
N1373 H1378 0.984 . S
N1373 H1379 0.985 . S
C1374 C1368 1.379 . S
C1374 C1371 1.363 . S
C1374 N1372 1.356 . S
C1375 C1369 1.363 . S
C1375 C1370 1.379 . S
C1375 N1373 1.356 . S
N1376 C1368 1.356 . S
N1376 H1382 0.984 . S
N1376 H1383 0.984 . S
N1377 C1370 1.356 . S
N1377 H1380 0.984 . S
N1377 H1381 0.985 . S
H1378 N1373 0.984 . S
H1379 N1373 0.985 . S
H1380 N1377 0.984 . S
H1381 N1377 0.985 . S
H1382 N1376 0.984 . S
H1383 N1376 0.984 . S
H1384 N1372 0.984 . S
H1385 N1372 0.985 . S
C1386 C1387 1.363 . S
C1386 C1392 1.379 . S
C1386 N1394 1.356 . S
C1387 C1386 1.363 . S
C1387 C1393 1.363 . S
C1388 C1389 1.363 . S
C1388 C1393 1.379 . S
C1388 N1395 1.356 . S
C1389 C1388 1.363 . S
C1389 C1392 1.363 . S
N1390 C1392 1.356 . S
N1390 H1402 0.984 . S
N1390 H1403 0.985 . S
N1391 C1393 1.356 . S
N1391 H1396 0.984 . S
N1391 H1397 0.985 . S
C1392 C1386 1.379 . S
C1392 C1389 1.363 . S
C1392 N1390 1.356 . S
C1393 C1387 1.363 . S
C1393 C1388 1.379 . S
C1393 N1391 1.356 . S
N1394 C1386 1.356 . S
N1394 H1400 0.984 . S
N1394 H1401 0.984 . S
N1395 C1388 1.356 . S
N1395 H1398 0.984 . S
N1395 H1399 0.985 . S
H1396 N1391 0.984 . S
H1397 N1391 0.985 . S
H1398 N1395 0.984 . S
H1399 N1395 0.985 . S
H1400 N1394 0.984 . S
H1401 N1394 0.984 . S
H1402 N1390 0.984 . S
H1403 N1390 0.985 . S
C1404 C1405 1.363 . S
C1404 C1410 1.379 . S
C1404 N1412 1.356 . S
C1405 C1404 1.363 . S
C1405 C1411 1.363 . S
C1406 C1407 1.363 . S
C1406 C1411 1.379 . S
C1406 N1413 1.356 . S
C1407 C1406 1.363 . S
C1407 C1410 1.363 . S
N1408 C1410 1.356 . S
N1408 H1420 0.984 . S
N1408 H1421 0.985 . S
N1409 C1411 1.356 . S
N1409 H1414 0.984 . S
N1409 H1415 0.985 . S
C1410 C1404 1.379 . S
C1410 C1407 1.363 . S
C1410 N1408 1.356 . S
C1411 C1405 1.363 . S
C1411 C1406 1.379 . S
C1411 N1409 1.356 . S
N1412 C1404 1.356 . S
N1412 H1418 0.984 . S
N1412 H1419 0.984 . S
N1413 C1406 1.356 . S
N1413 H1416 0.984 . S
N1413 H1417 0.985 . S
H1414 N1409 0.984 . S
H1415 N1409 0.985 . S
H1416 N1413 0.984 . S
H1417 N1413 0.985 . S
H1418 N1412 0.984 . S
H1419 N1412 0.984 . S
H1420 N1408 0.984 . S
H1421 N1408 0.985 . S
C1422 C1423 1.363 . S
C1422 C1428 1.379 . S
C1422 N1430 1.356 . S
C1423 C1422 1.363 . S
C1423 C1429 1.363 . S
C1424 C1425 1.363 . S
C1424 C1429 1.379 . S
C1424 N1431 1.356 . S
C1425 C1424 1.363 . S
C1425 C1428 1.363 . S
N1426 C1428 1.356 . S
N1426 H1438 0.984 . S
N1426 H1439 0.985 . S
N1427 C1429 1.356 . S
N1427 H1432 0.984 . S
N1427 H1433 0.985 . S
C1428 C1422 1.379 . S
C1428 C1425 1.363 . S
C1428 N1426 1.356 . S
C1429 C1423 1.363 . S
C1429 C1424 1.379 . S
C1429 N1427 1.356 . S
N1430 C1422 1.356 . S
N1430 H1436 0.984 . S
N1430 H1437 0.984 . S
N1431 C1424 1.356 . S
N1431 H1434 0.984 . S
N1431 H1435 0.985 . S
H1432 N1427 0.984 . S
H1433 N1427 0.985 . S
H1434 N1431 0.984 . S
H1435 N1431 0.985 . S
H1436 N1430 0.984 . S
H1437 N1430 0.984 . S
H1438 N1426 0.984 . S
H1439 N1426 0.985 . S
C1440 C1441 1.363 . S
C1440 C1446 1.379 . S
C1440 N1448 1.356 . S
C1441 C1440 1.363 . S
C1441 C1447 1.363 . S
C1442 C1443 1.363 . S
C1442 C1447 1.379 . S
C1442 N1449 1.356 . S
C1443 C1442 1.363 . S
C1443 C1446 1.363 . S
N1444 C1446 1.356 . S
N1444 H1456 0.984 . S
N1444 H1457 0.985 . S
N1445 C1447 1.356 . S
N1445 H1450 0.984 . S
N1445 H1451 0.985 . S
C1446 C1440 1.379 . S
C1446 C1443 1.363 . S
C1446 N1444 1.356 . S
C1447 C1441 1.363 . S
C1447 C1442 1.379 . S
C1447 N1445 1.356 . S
N1448 C1440 1.356 . S
N1448 H1454 0.984 . S
N1448 H1455 0.984 . S
N1449 C1442 1.356 . S
N1449 H1452 0.984 . S
N1449 H1453 0.985 . S
H1450 N1445 0.984 . S
H1451 N1445 0.985 . S
H1452 N1449 0.984 . S
H1453 N1449 0.985 . S
H1454 N1448 0.984 . S
H1455 N1448 0.984 . S
H1456 N1444 0.984 . S
H1457 N1444 0.985 . S
C1458 C1459 1.363 . S
C1458 C1464 1.379 . S
C1458 N1466 1.356 . S
C1459 C1458 1.363 . S
C1459 C1465 1.363 . S
C1460 C1461 1.363 . S
C1460 C1465 1.379 . S
C1460 N1467 1.356 . S
C1461 C1460 1.363 . S
C1461 C1464 1.363 . S
N1462 C1464 1.356 . S
N1462 H1474 0.984 . S
N1462 H1475 0.985 . S
N1463 C1465 1.356 . S
N1463 H1468 0.984 . S
N1463 H1469 0.985 . S
C1464 C1458 1.379 . S
C1464 C1461 1.363 . S
C1464 N1462 1.356 . S
C1465 C1459 1.363 . S
C1465 C1460 1.379 . S
C1465 N1463 1.356 . S
N1466 C1458 1.356 . S
N1466 H1472 0.984 . S
N1466 H1473 0.984 . S
N1467 C1460 1.356 . S
N1467 H1470 0.984 . S
N1467 H1471 0.985 . S
H1468 N1463 0.984 . S
H1469 N1463 0.985 . S
H1470 N1467 0.984 . S
H1471 N1467 0.985 . S
H1472 N1466 0.984 . S
H1473 N1466 0.984 . S
H1474 N1462 0.984 . S
H1475 N1462 0.985 . S
C1476 C1477 1.363 . S
C1476 C1482 1.379 . S
C1476 N1484 1.356 . S
C1477 C1476 1.363 . S
C1477 C1483 1.363 . S
C1478 C1479 1.363 . S
C1478 C1483 1.379 . S
C1478 N1485 1.356 . S
C1479 C1478 1.363 . S
C1479 C1482 1.363 . S
N1480 C1482 1.356 . S
N1480 H1492 0.984 . S
N1480 H1493 0.985 . S
N1481 C1483 1.356 . S
N1481 H1486 0.984 . S
N1481 H1487 0.985 . S
C1482 C1476 1.379 . S
C1482 C1479 1.363 . S
C1482 N1480 1.356 . S
C1483 C1477 1.363 . S
C1483 C1478 1.379 . S
C1483 N1481 1.356 . S
N1484 C1476 1.356 . S
N1484 H1490 0.984 . S
N1484 H1491 0.984 . S
N1485 C1478 1.356 . S
N1485 H1488 0.984 . S
N1485 H1489 0.985 . S
H1486 N1481 0.984 . S
H1487 N1481 0.985 . S
H1488 N1485 0.984 . S
H1489 N1485 0.985 . S
H1490 N1484 0.984 . S
H1491 N1484 0.984 . S
H1492 N1480 0.984 . S
H1493 N1480 0.985 . S
C1494 C1495 1.363 . S
C1494 C1500 1.379 . S
C1494 N1502 1.356 . S
C1495 C1494 1.363 . S
C1495 C1501 1.363 . S
C1496 C1497 1.363 . S
C1496 C1501 1.379 . S
C1496 N1503 1.356 . S
C1497 C1496 1.363 . S
C1497 C1500 1.363 . S
N1498 C1500 1.356 . S
N1498 H1510 0.984 . S
N1498 H1511 0.985 . S
N1499 C1501 1.356 . S
N1499 H1504 0.984 . S
N1499 H1505 0.985 . S
C1500 C1494 1.379 . S
C1500 C1497 1.363 . S
C1500 N1498 1.356 . S
C1501 C1495 1.363 . S
C1501 C1496 1.379 . S
C1501 N1499 1.356 . S
N1502 C1494 1.356 . S
N1502 H1508 0.984 . S
N1502 H1509 0.984 . S
N1503 C1496 1.356 . S
N1503 H1506 0.984 . S
N1503 H1507 0.985 . S
H1504 N1499 0.984 . S
H1505 N1499 0.985 . S
H1506 N1503 0.984 . S
H1507 N1503 0.985 . S
H1508 N1502 0.984 . S
H1509 N1502 0.984 . S
H1510 N1498 0.984 . S
H1511 N1498 0.985 . S
C1512 C1513 1.363 . S
C1512 C1518 1.379 . S
C1512 N1520 1.356 . S
C1513 C1512 1.363 . S
C1513 C1519 1.363 . S
C1514 C1515 1.363 . S
C1514 C1519 1.379 . S
C1514 N1521 1.356 . S
C1515 C1514 1.363 . S
C1515 C1518 1.363 . S
N1516 C1518 1.356 . S
N1516 H1528 0.984 . S
N1516 H1529 0.985 . S
N1517 C1519 1.356 . S
N1517 H1522 0.984 . S
N1517 H1523 0.985 . S
C1518 C1512 1.379 . S
C1518 C1515 1.363 . S
C1518 N1516 1.356 . S
C1519 C1513 1.363 . S
C1519 C1514 1.379 . S
C1519 N1517 1.356 . S
N1520 C1512 1.356 . S
N1520 H1526 0.984 . S
N1520 H1527 0.984 . S
N1521 C1514 1.356 . S
N1521 H1524 0.984 . S
N1521 H1525 0.985 . S
H1522 N1517 0.984 . S
H1523 N1517 0.985 . S
H1524 N1521 0.984 . S
H1525 N1521 0.985 . S
H1526 N1520 0.984 . S
H1527 N1520 0.984 . S
H1528 N1516 0.984 . S
H1529 N1516 0.985 . S
C1530 C1531 1.363 . S
C1530 C1536 1.379 . S
C1530 N1538 1.356 . S
C1531 C1530 1.363 . S
C1531 C1537 1.363 . S
C1532 C1533 1.363 . S
C1532 C1537 1.379 . S
C1532 N1539 1.356 . S
C1533 C1532 1.363 . S
C1533 C1536 1.363 . S
N1534 C1536 1.356 . S
N1534 H1546 0.984 . S
N1534 H1547 0.985 . S
N1535 C1537 1.356 . S
N1535 H1540 0.984 . S
N1535 H1541 0.985 . S
C1536 C1530 1.379 . S
C1536 C1533 1.363 . S
C1536 N1534 1.356 . S
C1537 C1531 1.363 . S
C1537 C1532 1.379 . S
C1537 N1535 1.356 . S
N1538 C1530 1.356 . S
N1538 H1544 0.984 . S
N1538 H1545 0.984 . S
N1539 C1532 1.356 . S
N1539 H1542 0.984 . S
N1539 H1543 0.985 . S
H1540 N1535 0.984 . S
H1541 N1535 0.985 . S
H1542 N1539 0.984 . S
H1543 N1539 0.985 . S
H1544 N1538 0.984 . S
H1545 N1538 0.984 . S
H1546 N1534 0.984 . S
H1547 N1534 0.985 . S
C577 C162 1.658 . S
C579 C219 1.666 . S
C595 C174 1.755 . S
C597 C259 1.749 . S
C613 C150 1.591 . S
C615 C311 1.578 . S
C631 C138 1.496 . S
C633 C271 1.472 . S
C651 C299 1.520 . S
C649 C114 1.524 . S
C667 C126 1.404 . S
C669 C231 1.400 1_556 S
C687 C238 1.671 . S
C685 C136 1.644 . S
C705 C278 1.646 . S
C703 C112 1.626 . S
C721 C124 1.629 . S
C723 C298 1.675 1_556 S
C739 C160 1.509 . S
C741 C258 1.534 . S
C757 C172 1.478 . S
C759 C318 1.487 . S
C777 C218 1.528 . S
C775 C148 1.489 . S
C795 C339 1.666 . S
C793 C18 1.658 . S
C811 C30 1.755 . S
C813 C379 1.749 . S
C829 C6 1.591 . S
C831 C431 1.578 . S
C847 C210 1.496 . S
C849 C391 1.472 . S
C865 C186 1.524 . S
C867 C419 1.520 . S
C883 C198 1.404 . S
C885 C351 1.400 . S
C901 C208 1.644 . S
C903 C358 1.671 . S
C919 C184 1.626 . S
C921 C398 1.646 . S
C939 C418 1.675 . S
C937 C196 1.630 . S
C955 C16 1.509 . S
C957 C378 1.534 . S
C975 C438 1.486 . S
C973 C28 1.478 1_455 S
C991 C4 1.489 . S
C993 C338 1.528 . S
C1011 C459 1.666 . S
C1009 C90 1.658 . S
C1027 C102 1.755 . S
C1029 C499 1.749 . S
C1047 C551 1.579 . S
C1045 C78 1.592 . S
C1065 C511 1.472 . S
C1063 C66 1.496 . S
C1083 C539 1.520 . S
C1081 C42 1.524 . S
C1099 C54 1.404 . S
C1101 C471 1.400 . S
C1117 C64 1.644 1_655 S
C1119 C478 1.671 . S
C1135 C40 1.626 . S
C1137 C518 1.646 . S
C1155 C538 1.675 . S
C1153 C52 1.630 1_545 S
C1171 C88 1.509 . S
C1173 C498 1.534 . S
C1189 C100 1.478 . S
C1191 C558 1.487 . S
C1207 C76 1.489 . S
C1209 C458 1.528 . S
C1225 C189 1.612 . S
C1227 C242 1.570 . S
C1245 C282 1.876 . S
C1243 C201 1.932 . S
C1261 C213 1.562 . S
C1263 C305 1.577 . S
C1279 C81 1.738 . S
C1281 C265 1.729 . S
C1297 C93 1.692 . S
C1299 C322 1.662 . S
C1317 C225 1.375 . S
C1315 C105 1.367 . S
C1333 C45 1.612 . S
C1335 C362 1.571 . S
C1351 C57 1.932 . S
C1353 C402 1.876 . S
C1369 C69 1.562 . S
C1371 C425 1.577 . S
C1387 C153 1.738 . S
C1389 C385 1.729 . S
C1407 C442 1.662 . S
C1405 C165 1.692 . S
C1423 C177 1.367 . S
C1425 C345 1.375 . S
C1441 C117 1.612 . S
C1443 C482 1.570 . S
C1459 C129 1.932 . S
C1461 C522 1.876 . S
C1479 C545 1.577 . S
C1477 C141 1.562 . S
C1495 C9 1.738 . S
C1497 C505 1.729 . S
C1513 C21 1.692 . S
C1515 C562 1.662 . S
C1531 C33 1.367 . S
C1533 C465 1.375 . S
