# Generated by pormake.
# Topology pyr, (3,6)-cn, num edge types: 1
# Building blocks:
#     Node 0, Type 0, BuildingBlock: BELTOD_clean_linker_0, # of connection points: 3
#     Node 1, Type 0, BuildingBlock: BELTOD_clean_linker_0, # of connection points: 3
#     Node 2, Type 0, BuildingBlock: BELTOD_clean_linker_0, # of connection points: 3
#     Node 3, Type 0, BuildingBlock: BELTOD_clean_linker_0, # of connection points: 3
#     Node 4, Type 0, BuildingBlock: BELTOD_clean_linker_0, # of connection points: 3
#     Node 5, Type 0, BuildingBlock: BELTOD_clean_linker_0, # of connection points: 3
#     Node 6, Type 0, BuildingBlock: BELTOD_clean_linker_0, # of connection points: 3
#     Node 7, Type 0, BuildingBlock: BELTOD_clean_linker_0, # of connection points: 3
#     Node 8, Type 1, BuildingBlock: MIFKUJ_clean_sbu_0, # of connection points: 6
#     Node 9, Type 1, BuildingBlock: MIFKUJ_clean_sbu_0, # of connection points: 6
#     Node 10, Type 1, BuildingBlock: MIFKUJ_clean_sbu_0, # of connection points: 6
#     Node 11, Type 1, BuildingBlock: MIFKUJ_clean_sbu_0, # of connection points: 6
#     Edge 12, Type (0, 1), BuildingBlock: CIFDUS_clean_linker_0, # of connection points: 2
#     Edge 13, Type (0, 1), BuildingBlock: CIFDUS_clean_linker_0, # of connection points: 2
#     Edge 14, Type (0, 1), BuildingBlock: CIFDUS_clean_linker_0, # of connection points: 2
#     Edge 15, Type (0, 1), BuildingBlock: CIFDUS_clean_linker_0, # of connection points: 2
#     Edge 16, Type (0, 1), BuildingBlock: CIFDUS_clean_linker_0, # of connection points: 2
#     Edge 17, Type (0, 1), BuildingBlock: CIFDUS_clean_linker_0, # of connection points: 2
#     Edge 18, Type (0, 1), BuildingBlock: CIFDUS_clean_linker_0, # of connection points: 2
#     Edge 19, Type (0, 1), BuildingBlock: CIFDUS_clean_linker_0, # of connection points: 2
#     Edge 20, Type (0, 1), BuildingBlock: CIFDUS_clean_linker_0, # of connection points: 2
#     Edge 21, Type (0, 1), BuildingBlock: CIFDUS_clean_linker_0, # of connection points: 2
#     Edge 22, Type (0, 1), BuildingBlock: CIFDUS_clean_linker_0, # of connection points: 2
#     Edge 23, Type (0, 1), BuildingBlock: CIFDUS_clean_linker_0, # of connection points: 2
#     Edge 24, Type (0, 1), BuildingBlock: CIFDUS_clean_linker_0, # of connection points: 2
#     Edge 25, Type (0, 1), BuildingBlock: CIFDUS_clean_linker_0, # of connection points: 2
#     Edge 26, Type (0, 1), BuildingBlock: CIFDUS_clean_linker_0, # of connection points: 2
#     Edge 27, Type (0, 1), BuildingBlock: CIFDUS_clean_linker_0, # of connection points: 2
#     Edge 28, Type (0, 1), BuildingBlock: CIFDUS_clean_linker_0, # of connection points: 2
#     Edge 29, Type (0, 1), BuildingBlock: CIFDUS_clean_linker_0, # of connection points: 2
#     Edge 30, Type (0, 1), BuildingBlock: CIFDUS_clean_linker_0, # of connection points: 2
#     Edge 31, Type (0, 1), BuildingBlock: CIFDUS_clean_linker_0, # of connection points: 2
#     Edge 32, Type (0, 1), BuildingBlock: CIFDUS_clean_linker_0, # of connection points: 2
#     Edge 33, Type (0, 1), BuildingBlock: CIFDUS_clean_linker_0, # of connection points: 2
#     Edge 34, Type (0, 1), BuildingBlock: CIFDUS_clean_linker_0, # of connection points: 2
#     Edge 35, Type (0, 1), BuildingBlock: CIFDUS_clean_linker_0, # of connection points: 2
# Relax obj value: 0.033
# Max RMSD: 0.088
# Mean RMSD: 0.053
data_MOF--net-pyr--node1-MIFKUJ_clean_sbu_0--node2-BELTOD_clean_linker_0--edge1-CIFDUS_clean_linker_0
_symmetry_space_group_name_H-M    P1
_symmetry_Int_Tables_number       1
_symmetry_cell_setting            triclinic
loop_
_symmetry_equiv_pos_as_xyz
'x, y, z'
_cell_length_a     39.871512
_cell_length_b     36.17621
_cell_length_c     38.010762
_cell_angle_alpha  85.932675
_cell_angle_beta   88.467488
_cell_angle_gamma 96.530402
loop_
_atom_site_label
_atom_site_type_symbol
_atom_site_fract_x
_atom_site_fract_y
_atom_site_fract_z
_atom_type_partial_charge
P0 P 0.2436 0.21599 0.24248 0.0
H1 H 0.31038 0.19216 0.25129 0.0
H2 H 0.3459 0.15813 0.21465 0.0
H3 H 0.26883 0.15072 0.13693 0.0
H4 H 0.23333 0.1844 0.17372 0.0
H5 H 0.24822 0.29125 0.20775 0.0
H6 H 0.20851 0.32408 0.17278 0.0
H7 H 0.13642 0.22501 0.18261 0.0
H8 H 0.17637 0.19218 0.2171 0.0
H9 H 0.25268 0.14137 0.27514 0.0
H10 H 0.18322 0.2235 0.28465 0.0
O11 O 0.26846 0.2475 0.26275 0.0
H12 H 0.2195 0.09996 0.31984 0.0
H13 H 0.14853 0.18145 0.327 0.0
C14 C 0.26948 0.19131 0.21502 0.0
C15 C 0.3012 0.18331 0.22631 0.0
C16 C 0.32135 0.16371 0.20548 0.0
C17 C 0.31012 0.15195 0.1729 0.0
C18 C 0.27824 0.15988 0.16172 0.0
C19 C 0.25793 0.1791 0.18279 0.0
C20 C 0.21484 0.23968 0.21579 0.0
C21 C 0.22387 0.27664 0.2024 0.0
C22 C 0.20126 0.29527 0.18231 0.0
C23 C 0.16928 0.27714 0.17536 0.0
C24 C 0.16066 0.2398 0.18812 0.0
C25 C 0.18345 0.22109 0.20783 0.0
C26 C 0.2199 0.18513 0.27582 0.0
C27 C 0.23008 0.15036 0.2865 0.0
C28 C 0.21087 0.12653 0.31197 0.0
C29 C 0.18102 0.13701 0.32703 0.0
C30 C 0.17154 0.17239 0.31665 0.0
C31 C 0.19113 0.1964 0.29188 0.0
P32 P 0.38099 0.89775 0.65297 0.0
H33 H 0.42276 0.95392 0.68913 0.0
H34 H 0.43792 0.95801 0.75043 0.0
H35 H 0.36953 0.85853 0.78004 0.0
H36 H 0.35494 0.85421 0.71808 0.0
H37 H 0.36165 0.85444 0.59337 0.0
H38 H 0.3783 0.79629 0.57345 0.0
H39 H 0.43743 0.78355 0.66634 0.0
H40 H 0.42184 0.84246 0.68519 0.0
H41 H 0.354 0.95978 0.6143 0.0
H42 H 0.31482 0.85371 0.66734 0.0
O43 O 0.4081 0.92865 0.62883 0.0
H44 H 0.29745 0.96951 0.59554 0.0
H45 H 0.25777 0.8634 0.64862 0.0
C46 C 0.38796 0.90354 0.699 0.0
C47 C 0.41066 0.9332 0.70879 0.0
C48 C 0.41916 0.93567 0.74401 0.0
C49 C 0.40505 0.90851 0.77021 0.0
C50 C 0.38116 0.87965 0.76046 0.0
C51 C 0.3726 0.87728 0.72512 0.0
C52 C 0.38969 0.85232 0.64125 0.0
C53 C 0.37774 0.83879 0.60973 0.0
C54 C 0.38727 0.80543 0.5984 0.0
C55 C 0.40914 0.78502 0.61834 0.0
C56 C 0.42084 0.79864 0.65012 0.0
C57 C 0.4115 0.83216 0.66123 0.0
C58 C 0.33865 0.90584 0.64192 0.0
C59 C 0.3332 0.93859 0.62203 0.0
C60 C 0.30085 0.94407 0.61118 0.0
C61 C 0.27323 0.91703 0.62026 0.0
C62 C 0.27856 0.88477 0.6413 0.0
C63 C 0.3111 0.87918 0.65197 0.0
P64 P 0.68094 0.33527 0.80161 0.0
H65 H 0.73404 0.31149 0.84574 0.0
H66 H 0.78113 0.34535 0.87431 0.0
H67 H 0.74415 0.44961 0.84129 0.0
H68 H 0.69725 0.41549 0.81254 0.0
H69 H 0.63415 0.27244 0.784 0.0
H70 H 0.59859 0.22322 0.81946 0.0
H71 H 0.63208 0.27249 0.91454 0.0
H72 H 0.66734 0.32202 0.87884 0.0
H73 H 0.69903 0.38781 0.74036 0.0
H74 H 0.60851 0.34606 0.802 0.0
O75 O 0.7024 0.31189 0.77409 0.0
H76 H 0.66496 0.41806 0.69655 0.0
H77 H 0.57446 0.37558 0.75812 0.0
C78 C 0.71221 0.36092 0.82688 0.0
C79 C 0.7358 0.34164 0.84512 0.0
C80 C 0.76266 0.36104 0.8616 0.0
C81 C 0.76661 0.40025 0.85994 0.0
C82 C 0.74214 0.41944 0.84266 0.0
C83 C 0.71518 0.39994 0.82631 0.0
C84 C 0.65373 0.30059 0.82874 0.0
C85 C 0.6337 0.27277 0.81248 0.0
C86 C 0.61321 0.2448 0.83276 0.0
C87 C 0.6126 0.24392 0.8698 0.0
C88 C 0.6323 0.27225 0.88605 0.0
C89 C 0.65249 0.30057 0.86566 0.0
C90 C 0.65638 0.36423 0.77423 0.0
C91 C 0.67192 0.38577 0.74484 0.0
C92 C 0.65243 0.40308 0.71984 0.0
C93 C 0.617 0.39877 0.72367 0.0
C94 C 0.60169 0.37894 0.75421 0.0
C95 C 0.62121 0.36206 0.77937 0.0
P96 P 0.83032 0.68038 0.28726 0.0
H97 H 0.8709 0.75302 0.27804 0.0
H98 H 0.89525 0.79606 0.31962 0.0
H99 H 0.8641 0.71413 0.406 0.0
H100 H 0.83929 0.67142 0.3642 0.0
H101 H 0.81317 0.61181 0.25213 0.0
H102 H 0.84666 0.577 0.21425 0.0
H103 H 0.93726 0.64512 0.24073 0.0
H104 H 0.90358 0.68007 0.27814 0.0
H105 H 0.76071 0.69748 0.28283 0.0
H106 H 0.81348 0.61326 0.33597 0.0
O107 O 0.82064 0.70861 0.25331 0.0
H108 H 0.70709 0.66668 0.30853 0.0
H109 H 0.75953 0.58271 0.36268 0.0
C110 C 0.85248 0.70934 0.31803 0.0
C111 C 0.86952 0.74416 0.3059 0.0
C112 C 0.88373 0.76869 0.32974 0.0
C113 C 0.88132 0.75878 0.36626 0.0
C114 C 0.86584 0.72295 0.37812 0.0
C115 C 0.85168 0.69841 0.3542 0.0
C116 C 0.85588 0.64818 0.26849 0.0
C117 C 0.84038 0.61841 0.25076 0.0
C118 C 0.85958 0.5985 0.22903 0.0
C119 C 0.89464 0.60842 0.22421 0.0
C120 C 0.91027 0.63701 0.24355 0.0
C121 C 0.89104 0.65683 0.26528 0.0
C122 C 0.79107 0.65738 0.3071 0.0
C123 C 0.76081 0.67233 0.30002 0.0
C124 C 0.73013 0.65477 0.31477 0.0
C125 C 0.72918 0.62228 0.33748 0.0
C126 C 0.75963 0.60783 0.34536 0.0
C127 C 0.79036 0.62513 0.33005 0.0
P128 P 0.88445 0.89579 0.87549 0.0
H129 H 0.85066 0.90044 0.9431 0.0
H130 H 0.79239 0.90718 0.96061 0.0
H131 H 0.76441 0.90471 0.85164 0.0
H132 H 0.82291 0.89844 0.83431 0.0
H133 H 0.9494 0.87267 0.89494 0.0
H134 H 0.96712 0.81204 0.91386 0.0
H135 H 0.8638 0.76147 0.9102 0.0
H136 H 0.84627 0.82225 0.89197 0.0
H137 H 0.89704 0.96019 0.82448 0.0
H138 H 0.88814 0.84033 0.82291 0.0
O139 O 0.90846 0.93014 0.89301 0.0
H140 H 0.9122 0.96647 0.76134 0.0
H141 H 0.90331 0.84644 0.75996 0.0
C142 C 0.84112 0.89945 0.88746 0.0
C143 C 0.83193 0.90131 0.92302 0.0
C144 C 0.79858 0.90484 0.933 0.0
C145 C 0.77378 0.90653 0.90749 0.0
C146 C 0.78303 0.90396 0.87184 0.0
C147 C 0.81646 0.90031 0.86191 0.0
C148 C 0.89646 0.85202 0.89301 0.0
C149 C 0.93053 0.8486 0.89886 0.0
C150 C 0.94066 0.81389 0.90925 0.0
C151 C 0.91684 0.78198 0.91361 0.0
C152 C 0.88265 0.78563 0.90769 0.0
C153 C 0.87258 0.82036 0.89733 0.0
C154 C 0.89232 0.8999 0.82852 0.0
C155 C 0.89817 0.93526 0.81051 0.0
C156 C 0.9066 0.93878 0.77443 0.0
C157 C 0.90924 0.9069 0.75586 0.0
C158 C 0.90199 0.87146 0.77376 0.0
C159 C 0.89331 0.86798 0.80977 0.0
P160 P 0.72292 0.22231 0.29242 0.0
H161 H 0.74234 0.29345 0.32191 0.0
H162 H 0.71503 0.32825 0.36499 0.0
H163 H 0.63326 0.23878 0.38008 0.0
H164 H 0.66082 0.20406 0.3367 0.0
H165 H 0.7957 0.21849 0.28785 0.0
H166 H 0.83253 0.1794 0.31952 0.0
H167 H 0.74571 0.11888 0.37657 0.0
H168 H 0.70883 0.15872 0.34485 0.0
H169 H 0.65758 0.23999 0.268 0.0
H170 H 0.72201 0.15344 0.25566 0.0
O171 O 0.74669 0.25371 0.26533 0.0
H172 H 0.61874 0.21211 0.22638 0.0
H173 H 0.68378 0.12604 0.21266 0.0
C174 C 0.70314 0.24668 0.32546 0.0
C175 C 0.71854 0.2813 0.33447 0.0
C176 C 0.70303 0.30103 0.35933 0.0
C177 C 0.67187 0.28635 0.37577 0.0
C178 C 0.657 0.25103 0.36746 0.0
C179 C 0.67272 0.23118 0.34273 0.0
C180 C 0.74954 0.19147 0.31404 0.0
C181 C 0.78448 0.19667 0.30696 0.0
C182 C 0.80554 0.17413 0.32499 0.0
C183 C 0.79205 0.14595 0.35054 0.0
C184 C 0.75689 0.14057 0.35729 0.0
C185 C 0.73579 0.16314 0.3391 0.0
C186 C 0.6922 0.19822 0.26571 0.0
C187 C 0.66306 0.21453 0.25684 0.0
C188 C 0.64107 0.19881 0.23258 0.0
C189 C 0.64823 0.16694 0.21593 0.0
C190 C 0.67726 0.15027 0.22532 0.0
C191 C 0.69916 0.16594 0.24989 0.0
P192 P 0.35414 0.62492 0.16277 0.0
H193 H 0.32177 0.64321 0.0975 0.0
H194 H 0.26574 0.6256 0.07558 0.0
H195 H 0.23561 0.56668 0.17639 0.0
H196 H 0.2914 0.58576 0.19855 0.0
H197 H 0.41668 0.65756 0.12503 0.0
H198 H 0.43786 0.72103 0.10307 0.0
H199 H 0.349 0.76077 0.14785 0.0
H200 H 0.32745 0.69659 0.16875 0.0
H201 H 0.34499 0.55597 0.20857 0.0
H202 H 0.38156 0.67143 0.21861 0.0
O203 O 0.37577 0.5965 0.14078 0.0
H204 H 0.36173 0.54015 0.26861 0.0
H205 H 0.39994 0.6557 0.27768 0.0
C206 C 0.31086 0.61605 0.14975 0.0
C207 C 0.3029 0.62714 0.11516 0.0
C208 C 0.27088 0.61666 0.1025 0.0
C209 C 0.2461 0.59435 0.12402 0.0
C210 C 0.25388 0.58415 0.15911 0.0
C211 C 0.28597 0.59488 0.17182 0.0
C212 C 0.37027 0.67232 0.14808 0.0
C213 C 0.40169 0.67988 0.13007 0.0
C214 C 0.41394 0.71636 0.11778 0.0
C215 C 0.39517 0.7462 0.12361 0.0
C216 C 0.3639 0.73849 0.14236 0.0
C217 C 0.3516 0.70186 0.1545 0.0
C218 C 0.36149 0.61495 0.20908 0.0
C219 C 0.35615 0.57805 0.22388 0.0
C220 C 0.36626 0.56895 0.25812 0.0
C221 C 0.38257 0.59652 0.27817 0.0
C222 C 0.38707 0.6337 0.26346 0.0
C223 C 0.3766 0.64279 0.22937 0.0
P224 P 0.18367 0.31166 0.73633 0.0
H225 H 0.17141 0.32223 0.66034 0.0
H226 H 0.14791 0.27923 0.61802 0.0
H227 H 0.12333 0.19384 0.703 0.0
H228 H 0.14676 0.23701 0.74513 0.0
H229 H 0.2497 0.29897 0.7086 0.0
H230 H 0.29611 0.33984 0.67789 0.0
H231 H 0.23673 0.43239 0.67998 0.0
H232 H 0.19021 0.3912 0.71037 0.0
H233 H 0.11022 0.30196 0.7519 0.0
H234 H 0.19748 0.37332 0.78128 0.0
O235 O 0.20221 0.28364 0.76457 0.0
H236 H 0.07516 0.3291 0.79472 0.0
H237 H 0.16252 0.40076 0.82392 0.0
C238 C 0.1614 0.28257 0.70581 0.0
C239 C 0.16064 0.29441 0.66993 0.0
C240 C 0.14728 0.26975 0.64573 0.0
C241 C 0.13408 0.23295 0.65707 0.0
C242 C 0.13311 0.222 0.69338 0.0
C243 C 0.14668 0.2466 0.71749 0.0
C244 C 0.21697 0.34232 0.71276 0.0
C245 C 0.24669 0.32808 0.70247 0.0
C246 C 0.27308 0.35137 0.68466 0.0
C247 C 0.27019 0.3894 0.67682 0.0
C248 C 0.23989 0.40333 0.6862 0.0
C249 C 0.21333 0.37986 0.70366 0.0
C250 C 0.1564 0.33619 0.76273 0.0
C251 C 0.12175 0.32405 0.76692 0.0
C252 C 0.10174 0.33941 0.79164 0.0
C253 C 0.11604 0.36715 0.8127 0.0
C254 C 0.1506 0.3799 0.80775 0.0
C255 C 0.17062 0.36425 0.7833 0.0
Zn256 Zn 0.04006 0.98657 0.5297 0.0
Zn257 Zn 0.97466 0.00768 0.48763 0.0
C258 C 0.06979 0.05843 0.54905 0.0
O259 O 0.09441 0.05081 0.52807 0.0
C260 C 0.94936 0.9348 0.47056 0.0
O261 O 0.92506 0.94254 0.4919 0.0
O262 O 0.08023 0.96228 0.54713 0.0
O263 O 0.99738 0.95533 0.54928 0.0
O264 O 0.9631 0.99839 0.53916 0.0
C265 C 0.08336 0.95243 0.57954 0.0
O266 O 0.05871 0.95598 0.60225 0.0
O267 O 0.0431 0.03545 0.55314 0.0
C268 C 0.93881 0.03613 0.43094 0.0
O269 O 0.9646 0.02484 0.41417 0.0
O270 O 0.93693 0.0318 0.46446 0.0
O271 O 0.01648 0.04283 0.47528 0.0
O272 O 0.04857 0.99745 0.477 0.0
O273 O 0.97547 0.95848 0.46513 0.0
C274 C 0.97159 0.97082 0.55807 0.0
C275 C 0.04311 0.0299 0.4654 0.0
Zn276 Zn 0.54221 0.98317 0.99902 0.0
Zn277 Zn 0.48877 0.02023 0.03413 0.0
C278 C 0.49732 0.94788 0.94957 0.0
O279 O 0.50871 0.91761 0.96341 0.0
C280 C 0.52934 0.06395 0.0779 0.0
O281 O 0.51313 0.08856 0.06029 0.0
O282 O 0.583 0.96269 0.97961 0.0
O283 O 0.55732 0.03735 0.00368 0.0
O284 O 0.50725 0.0519 0.98961 0.0
C285 C 0.59537 0.97639 0.94971 0.0
O286 O 0.58062 0.0026 0.93261 0.0
O287 O 0.50739 0.97912 0.96133 0.0
C288 C 0.43879 0.0293 0.08452 0.0
O289 O 0.45408 0.00244 0.09981 0.0
O290 O 0.44842 0.04202 0.05338 0.0
O291 O 0.47413 0.96444 0.03409 0.0
O292 O 0.52554 0.95048 0.04231 0.0
O293 O 0.52357 0.02982 0.07143 0.0
C294 C 0.53916 0.06031 0.98915 0.0
C295 C 0.49384 0.9417 0.04609 0.0
Zn296 Zn 0.51633 0.47284 0.48724 0.0
Zn297 Zn 0.48324 0.53657 0.5241 0.0
C298 C 0.56366 0.51702 0.43984 0.0
O299 O 0.54419 0.49952 0.41746 0.0
C300 C 0.43331 0.49995 0.57412 0.0
O301 O 0.44741 0.52611 0.59304 0.0
O302 O 0.53051 0.42596 0.4687 0.0
O303 O 0.51305 0.46426 0.54038 0.0
O304 O 0.52639 0.52379 0.54733 0.0
C305 C 0.55962 0.41728 0.47626 0.0
O306 O 0.57795 0.43766 0.49757 0.0
O307 O 0.55595 0.51175 0.47266 0.0
C308 C 0.44297 0.59482 0.53509 0.0
O309 O 0.42251 0.57322 0.51671 0.0
O310 O 0.47202 0.58528 0.54177 0.0
O311 O 0.48055 0.54403 0.47082 0.0
O312 O 0.47557 0.48467 0.46014 0.0
O313 O 0.44492 0.49764 0.54292 0.0
C314 C 0.52746 0.48979 0.55791 0.0
C315 C 0.47056 0.51809 0.45134 0.0
Zn316 Zn 0.9852 0.51659 0.99525 0.0
Zn317 Zn 0.0181 0.4557 0.04111 0.0
C318 C 0.93373 0.48616 0.9521 0.0
O319 O 0.9514 0.51097 0.92998 0.0
C320 C 0.06098 0.50319 0.08071 0.0
O321 O 0.04082 0.48446 0.10531 0.0
O322 O 0.97562 0.56716 0.97564 0.0
O323 O 0.98683 0.52365 0.04754 0.0
O324 O 0.97577 0.4653 0.06832 0.0
C325 C 0.94876 0.57759 0.98846 0.0
O326 O 0.93036 0.55505 0.01197 0.0
O327 O 0.94379 0.4815 0.98349 0.0
C328 C 0.06638 0.4076 0.05153 0.0
O329 O 0.07816 0.42939 0.02376 0.0
O330 O 0.03753 0.41179 0.06478 0.0
O331 O 0.01512 0.44428 0.9897 0.0
O332 O 0.02611 0.50262 0.96871 0.0
O333 O 0.05556 0.49763 0.04849 0.0
C334 C 0.97368 0.49971 0.07146 0.0
C335 C 0.02785 0.46816 0.96547 0.0
H336 H 0.14374 0.15483 0.38337 0.0
H337 H 0.16903 0.06044 0.32869 0.0
H338 H 0.13073 0.01865 0.36855 0.0
H339 H 0.087 0.00924 0.41659 0.0
H340 H 0.05745 0.1048 0.46606 0.0
H341 H 0.09975 0.14587 0.42991 0.0
C342 C 0.14066 0.12521 0.37968 0.0
C343 C 0.15927 0.11109 0.35271 0.0
C344 C 0.11747 0.1015 0.40161 0.0
C345 C 0.15554 0.07231 0.3494 0.0
C346 C 0.13331 0.04832 0.37199 0.0
C347 C 0.09001 0.03905 0.41944 0.0
C348 C 0.06914 0.05408 0.44371 0.0
C349 C 0.11376 0.06266 0.39785 0.0
C350 C 0.07302 0.09271 0.44717 0.0
C351 C 0.09727 0.11617 0.42665 0.0
H352 H 0.41845 0.9687 0.80916 0.0
H353 H 0.41972 0.84933 0.8135 0.0
H354 H 0.44585 0.85063 0.87077 0.0
H355 H 0.47276 0.88619 0.91718 0.0
H356 H 0.47323 0.00587 0.91193 0.0
H357 H 0.44225 0.00386 0.85746 0.0
C358 C 0.42437 0.94295 0.82267 0.0
C359 C 0.41728 0.90902 0.80686 0.0
C360 C 0.44001 0.94396 0.85534 0.0
C361 C 0.42455 0.87582 0.82511 0.0
C362 C 0.43979 0.87656 0.85777 0.0
C363 C 0.46585 0.91183 0.90431 0.0
C364 C 0.47564 0.94615 0.9185 0.0
C365 C 0.44828 0.91055 0.87278 0.0
C366 C 0.46622 0.97905 0.90155 0.0
C367 C 0.44852 0.97796 0.87032 0.0
H368 H 0.62301 0.46707 0.68649 0.0
H369 H 0.56403 0.35902 0.69499 0.0
H370 H 0.53104 0.37769 0.64499 0.0
H371 H 0.51992 0.42384 0.59764 0.0
H372 H 0.57701 0.53294 0.58982 0.0
H373 H 0.60965 0.51484 0.64061 0.0
C374 C 0.60286 0.44774 0.6774 0.0
C375 C 0.59598 0.41171 0.6945 0.0
C376 C 0.5837 0.45879 0.64866 0.0
C377 C 0.5696 0.38703 0.6826 0.0
C378 C 0.55084 0.3976 0.65384 0.0
C379 C 0.53948 0.44371 0.60706 0.0
C380 C 0.54617 0.4796 0.58976 0.0
C381 C 0.55781 0.43328 0.63651 0.0
C382 C 0.57131 0.50514 0.60264 0.0
C383 C 0.59005 0.49477 0.63164 0.0
H384 H 0.89182 0.53519 0.20812 0.0
H385 H 0.9406 0.64572 0.17646 0.0
H386 H 0.96985 0.62154 0.12763 0.0
H387 H 0.97987 0.57006 0.09224 0.0
H388 H 0.93217 0.45892 0.12275 0.0
H389 H 0.9042 0.48228 0.17357 0.0
C390 C 0.90895 0.5539 0.19058 0.0
C391 C 0.91407 0.59225 0.19619 0.0
C392 C 0.92575 0.53978 0.1622 0.0
C393 C 0.93656 0.61605 0.17329 0.0
C394 C 0.95313 0.60229 0.1451 0.0
C395 C 0.96341 0.5508 0.10999 0.0
C396 C 0.95792 0.51281 0.10346 0.0
C397 C 0.94766 0.56435 0.13909 0.0
C398 C 0.93682 0.4883 0.12708 0.0
C399 C 0.92077 0.50168 0.15611 0.0
H400 H 0.34277 0.09296 0.19382 0.0
H401 H 0.32541 0.16482 0.10234 0.0
H402 H 0.36266 0.13225 0.06626 0.0
H403 H 0.40193 0.08482 0.06143 0.0
H404 H 0.41849 0.01276 0.15332 0.0
H405 H 0.37982 0.04391 0.18844 0.0
C406 C 0.34726 0.10151 0.166 0.0
C407 C 0.33164 0.13136 0.15078 0.0
C408 C 0.36855 0.08264 0.14549 0.0
C409 C 0.3371 0.14178 0.11457 0.0
C410 C 0.35847 0.12328 0.094 0.0
C411 C 0.3969 0.07578 0.08907 0.0
C412 C 0.41326 0.04662 0.10471 0.0
C413 C 0.37456 0.09384 0.10925 0.0
C414 C 0.40633 0.03515 0.14055 0.0
C415 C 0.38426 0.053 0.16075 0.0
H416 H 0.21263 0.90657 0.65692 0.0
H417 H 0.25778 0.93946 0.5534 0.0
H418 H 0.20284 0.95138 0.53129 0.0
H419 H 0.1425 0.95488 0.54174 0.0
H420 H 0.09704 0.92372 0.64548 0.0
H421 H 0.15139 0.90829 0.66696 0.0
C422 C 0.21031 0.91597 0.62946 0.0
C423 C 0.23928 0.92236 0.60691 0.0
C424 C 0.1786 0.92312 0.61694 0.0
C425 C 0.23596 0.93485 0.57143 0.0
C426 C 0.20452 0.94153 0.55871 0.0
C427 C 0.14435 0.94439 0.56899 0.0
C428 C 0.11569 0.94051 0.59195 0.0
C429 C 0.17575 0.93615 0.5813 0.0
C430 C 0.11869 0.92707 0.62722 0.0
C431 C 0.14978 0.91827 0.63956 0.0
H432 H 0.79801 0.38549 0.92201 0.0
H433 H 0.80494 0.46151 0.82859 0.0
H434 H 0.85674 0.49434 0.84894 0.0
H435 H 0.90078 0.50092 0.89224 0.0
H436 H 0.89465 0.42599 0.98628 0.0
H437 H 0.84211 0.39309 0.96653 0.0
C438 C 0.8109 0.40921 0.9061 0.0
C439 C 0.79738 0.42103 0.87382 0.0
C440 C 0.84096 0.42804 0.91794 0.0
C441 C 0.81431 0.45209 0.85376 0.0
C442 C 0.84416 0.47075 0.86524 0.0
C443 C 0.88808 0.47732 0.90847 0.0
C444 C 0.90185 0.46581 0.94062 0.0
C445 C 0.8578 0.45886 0.89715 0.0
C446 C 0.88471 0.43541 0.96139 0.0
C447 C 0.85464 0.4166 0.95009 0.0
H448 H 0.71067 0.60045 0.40615 0.0
H449 H 0.67379 0.60146 0.30053 0.0
H450 H 0.61908 0.57016 0.32296 0.0
H451 H 0.58203 0.54161 0.37228 0.0
H452 H 0.61766 0.54192 0.47846 0.0
H453 H 0.67233 0.5739 0.45626 0.0
C454 C 0.69062 0.59364 0.38815 0.0
C455 C 0.69623 0.60307 0.35174 0.0
C456 C 0.65897 0.5761 0.40133 0.0
C457 C 0.66997 0.59459 0.32866 0.0
C458 C 0.63873 0.57666 0.34146 0.0
C459 C 0.60168 0.54882 0.39063 0.0
C460 C 0.59576 0.53925 0.42697 0.0
C461 C 0.63296 0.56725 0.37771 0.0
C462 C 0.62146 0.54907 0.45037 0.0
C463 C 0.65281 0.56719 0.43766 0.0
H464 H 0.18128 0.31886 0.11341 0.0
H465 H 0.10272 0.28026 0.19194 0.0
H466 H 0.06307 0.31576 0.15969 0.0
H467 H 0.05164 0.3601 0.11043 0.0
H468 H 0.13066 0.39789 0.03184 0.0
H469 H 0.1691 0.36037 0.06279 0.0
C470 C 0.15547 0.31831 0.12343 0.0
C471 C 0.14494 0.29728 0.15504 0.0
C472 C 0.1329 0.33864 0.10476 0.0
C473 C 0.11131 0.2962 0.16752 0.0
C474 C 0.08871 0.31657 0.14918 0.0
C475 C 0.07717 0.35986 0.09993 0.0
C476 C 0.08825 0.38197 0.06897 0.0
C477 C 0.09931 0.33818 0.11792 0.0
C478 C 0.12141 0.38124 0.05566 0.0
C479 C 0.14352 0.35984 0.07338 0.0
H480 H 0.63319 0.20294 0.92603 0.0
H481 H 0.54742 0.21401 0.86103 0.0
H482 H 0.5161 0.15942 0.89351 0.0
H483 H 0.51419 0.10652 0.93872 0.0
H484 H 0.60132 0.0947 1.00173 0.0
H485 H 0.63073 0.15163 0.97209 0.0
C486 C 0.60746 0.19374 0.91934 0.0
C487 C 0.59265 0.21252 0.8912 0.0
C488 C 0.58985 0.16201 0.93772 0.0
C489 C 0.55947 0.19985 0.88244 0.0
C490 C 0.54153 0.16868 0.90104 0.0
C491 C 0.53947 0.11665 0.94614 0.0
C492 C 0.55555 0.09628 0.9723 0.0
C493 C 0.55662 0.14921 0.92846 0.0
C494 C 0.58843 0.10964 0.98148 0.0
C495 C 0.60531 0.14226 0.96457 0.0
H496 H 0.9384 0.80917 0.36253 0.0
H497 H 0.84869 0.77188 0.42732 0.0
H498 H 0.86333 0.82111 0.46663 0.0
H499 H 0.89908 0.87746 0.48031 0.0
H500 H 0.98828 0.91623 0.41532 0.0
H501 H 0.97632 0.86383 0.37848 0.0
C502 C 0.9221 0.81177 0.3853 0.0
C503 C 0.89241 0.78678 0.39181 0.0
C504 C 0.93045 0.84058 0.4077 0.0
C505 C 0.87189 0.79029 0.4218 0.0
C506 C 0.88009 0.81869 0.4442 0.0
C507 C 0.91612 0.87435 0.45827 0.0
C508 C 0.94439 0.90098 0.45046 0.0
C509 C 0.90897 0.84435 0.43708 0.0
C510 C 0.9663 0.89622 0.42194 0.0
C511 C 0.9594 0.86631 0.40076 0.0
H512 H 0.37216 0.73043 0.58519 0.0
H513 H 0.4721 0.76175 0.62222 0.0
H514 H 0.49115 0.70554 0.60057 0.0
H515 H 0.47984 0.64795 0.57005 0.0
H516 H 0.38046 0.61815 0.53096 0.0
H517 H 0.36112 0.67362 0.55386 0.0
C518 C 0.39821 0.72522 0.58825 0.0
C519 C 0.42055 0.75039 0.60546 0.0
C520 C 0.40922 0.69314 0.57517 0.0
C521 C 0.45409 0.74266 0.60967 0.0
C522 C 0.46514 0.71062 0.59701 0.0
C523 C 0.45396 0.65359 0.56652 0.0
C524 C 0.43169 0.62888 0.54877 0.0
C525 C 0.44296 0.68571 0.57963 0.0
C526 C 0.39822 0.63669 0.54442 0.0
C527 C 0.38707 0.66841 0.55756 0.0
H528 H 0.88878 0.95253 0.70288 0.0
H529 H 0.95692 0.87008 0.72513 0.0
H530 H 0.98058 0.8804 0.6648 0.0
H531 H 0.98479 0.91625 0.60724 0.0
H532 H 0.91694 0.99937 0.58545 0.0
H533 H 0.89031 0.98529 0.644 0.0
C534 C 0.90874 0.93678 0.69443 0.0
C535 C 0.92125 0.91081 0.71842 0.0
C536 C 0.9224 0.94306 0.65985 0.0
C537 C 0.94672 0.89008 0.70704 0.0
C538 C 0.9604 0.89612 0.67263 0.0
C539 C 0.96395 0.93103 0.61513 0.0
C540 C 0.95318 0.9591 0.59206 0.0
C541 C 0.94884 0.92302 0.649 0.0
C542 C 0.92597 0.9778 0.60271 0.0
C543 C 0.91071 0.96984 0.63625 0.0
H544 H 0.62773 0.09424 0.20328 0.0
H545 H 0.62021 0.20789 0.164 0.0
H546 H 0.58325 0.18587 0.11814 0.0
H547 H 0.55251 0.13493 0.08952 0.0
H548 H 0.56032 0.02085 0.12673 0.0
H549 H 0.59824 0.04248 0.17263 0.0
C550 C 0.61823 0.11415 0.1845 0.0
C551 C 0.62641 0.15271 0.18751 0.0
C552 C 0.59712 0.10127 0.15775 0.0
C553 C 0.61372 0.1781 0.16297 0.0
C554 C 0.59276 0.16555 0.13649 0.0
C555 C 0.56247 0.11469 0.10763 0.0
C556 C 0.55342 0.07634 0.10484 0.0
C557 C 0.58412 0.12727 0.13379 0.0
C558 C 0.56687 0.05056 0.12833 0.0
C559 C 0.58849 0.06292 0.15462 0.0
H560 H 0.41121 0.53362 0.29917 0.0
H561 H 0.38502 0.63677 0.33702 0.0
H562 H 0.41038 0.62211 0.39327 0.0
H563 H 0.44059 0.58025 0.4318 0.0
H564 H 0.46382 0.47567 0.39485 0.0
H565 H 0.43842 0.49039 0.33859 0.0
C566 C 0.41041 0.5527 0.31984 0.0
C567 C 0.39623 0.58643 0.31346 0.0
C568 C 0.42458 0.54384 0.35245 0.0
C569 C 0.39622 0.61094 0.34066 0.0
C570 C 0.41057 0.60247 0.37303 0.0
C571 C 0.44008 0.56068 0.41143 0.0
C572 C 0.45424 0.52695 0.41756 0.0
C573 C 0.42505 0.56913 0.37916 0.0
C574 C 0.45305 0.50177 0.39096 0.0
C575 C 0.43858 0.51021 0.3587 0.0
H576 H 0.11419 0.43906 0.82989 0.0
H577 H 0.07238 0.32572 0.8605 0.0
H578 H 0.04112 0.34693 0.90985 0.0
H579 H 0.02699 0.39728 0.94553 0.0
H580 H 0.06782 0.51096 0.91475 0.0
H581 H 0.09814 0.49002 0.86447 0.0
C582 C 0.0982 0.41905 0.84737 0.0
C583 C 0.09564 0.38084 0.84144 0.0
C584 C 0.0802 0.43147 0.87579 0.0
C585 C 0.07452 0.35531 0.86414 0.0
C586 C 0.05679 0.36739 0.89254 0.0
C587 C 0.04246 0.41755 0.92781 0.0
C588 C 0.04522 0.45566 0.93411 0.0
C589 C 0.05963 0.40535 0.89878 0.0
C590 C 0.0652 0.48147 0.91061 0.0
C591 C 0.08262 0.4695 0.88185 0.0
H592 H 0.73364 0.95326 0.8748 0.0
H593 H 0.7355 0.87321 0.96426 0.0
H594 H 0.67982 0.8867 0.98451 0.0
H595 H 0.63188 0.92333 0.97828 0.0
H596 H 0.63013 0.00342 0.88872 0.0
H597 H 0.68425 0.98732 0.86677 0.0
C598 C 0.72162 0.9383 0.8984 0.0
C599 C 0.73879 0.91243 0.91809 0.0
C600 C 0.68968 0.94628 0.90995 0.0
C601 C 0.72303 0.89366 0.9489 0.0
C602 C 0.69116 0.90126 0.96043 0.0
C603 C 0.64322 0.93712 0.95385 0.0
C604 C 0.62706 0.96473 0.93534 0.0
C605 C 0.67447 0.92792 0.94145 0.0
C606 C 0.64205 0.98217 0.90361 0.0
C607 C 0.67305 0.97301 0.89102 0.0
H608 H 0.84598 0.11544 0.32475 0.0
H609 H 0.78947 0.12533 0.42134 0.0
H610 H 0.82918 0.09115 0.45473 0.0
H611 H 0.88148 0.06088 0.45676 0.0
H612 H 0.93819 0.05219 0.35988 0.0
H613 H 0.89711 0.08384 0.3265 0.0
C614 C 0.84241 0.11024 0.35314 0.0
C615 C 0.8149 0.12311 0.37052 0.0
C616 C 0.86552 0.09098 0.37219 0.0
C617 C 0.81026 0.11546 0.40723 0.0
C618 C 0.83311 0.09615 0.42639 0.0
C619 C 0.88481 0.06583 0.42835 0.0
C620 C 0.91302 0.05433 0.41094 0.0
C621 C 0.86105 0.08413 0.40919 0.0
C622 C 0.91681 0.06081 0.37405 0.0
C623 C 0.89332 0.07893 0.35487 0.0
H624 H 0.18325 0.58646 0.1564 0.0
H625 H 0.2346 0.56988 0.05835 0.0
H626 H 0.18141 0.54412 0.03479 0.0
H627 H 0.12071 0.52201 0.04333 0.0
H628 H 0.07015 0.53553 0.14255 0.0
H629 H 0.12235 0.56656 0.16416 0.0
C630 C 0.18287 0.57713 0.12991 0.0
C631 C 0.21308 0.5802 0.10932 0.0
C632 C 0.15218 0.56167 0.11663 0.0
C633 C 0.21181 0.56844 0.07477 0.0
C634 C 0.18136 0.55341 0.06127 0.0
C635 C 0.12101 0.53236 0.06943 0.0
C636 C 0.09157 0.52645 0.09128 0.0
C637 C 0.15142 0.54946 0.08208 0.0
C638 C 0.09249 0.5396 0.12522 0.0
C639 C 0.12238 0.55728 0.13767 0.0
H640 H 0.3103 0.37801 0.62013 0.0
H641 H 0.29541 0.4575 0.69685 0.0
H642 H 0.34455 0.49837 0.67199 0.0
H643 H 0.39229 0.51108 0.62933 0.0
H644 H 0.40677 0.43301 0.55115 0.0
H645 H 0.35741 0.3919 0.57581 0.0
C646 C 0.3179 0.40427 0.63138 0.0
C647 C 0.29924 0.4147 0.66033 0.0
C648 C 0.34616 0.42777 0.61681 0.0
C649 C 0.30911 0.44901 0.67437 0.0
C650 C 0.33733 0.47228 0.66031 0.0
C651 C 0.38475 0.48501 0.61772 0.0
C652 C 0.40336 0.47497 0.58862 0.0
C653 C 0.35614 0.46187 0.63168 0.0
C654 C 0.39291 0.44136 0.57359 0.0
C655 C 0.3647 0.41784 0.5877 0.0
H656 H 0.88566 0.72855 0.96099 0.0
H657 H 0.97228 0.75228 0.88909 0.0
H658 H 0.98998 0.6912 0.90594 0.0
H659 H 0.98059 0.63088 0.94087 0.0
H660 H 0.89332 0.60722 0.01206 0.0
H661 H 0.87592 0.66823 0.99525 0.0
C662 C 0.90825 0.72023 0.94876 0.0
C663 C 0.92762 0.74493 0.92387 0.0
C664 C 0.91813 0.68504 0.95835 0.0
C665 C 0.95714 0.73396 0.90869 0.0
C666 C 0.96717 0.69896 0.91813 0.0
C667 C 0.95776 0.63906 0.95268 0.0
C668 C 0.93832 0.61451 0.97768 0.0
C669 C 0.94785 0.67427 0.94295 0.0
C670 C 0.90878 0.62554 0.99273 0.0
C671 C 0.89878 0.66046 0.98317 0.0
H672 H 0.46013 0.77986 0.12144 0.0
H673 H 0.35908 0.79989 0.09392 0.0
H674 H 0.38034 0.86245 0.06889 0.0
H675 H 0.42797 0.91077 0.05273 0.0
H676 H 0.52918 0.88931 0.07831 0.0
H677 H 0.5075 0.82793 0.10556 0.0
C678 C 0.44272 0.79773 0.10972 0.0
C679 C 0.40801 0.78494 0.10956 0.0
C680 C 0.45517 0.83346 0.09478 0.0
C681 C 0.38584 0.80899 0.09489 0.0
C682 C 0.39802 0.84475 0.08028 0.0
C683 C 0.44529 0.89272 0.06434 0.0
C684 C 0.4802 0.90473 0.06332 0.0
C685 C 0.43268 0.85719 0.07982 0.0
C686 C 0.50222 0.88087 0.07854 0.0
C687 C 0.48985 0.8457 0.09419 0.0
H688 H 0.07855 0.18075 0.6603 0.0
H689 H 0.16719 0.22246 0.59554 0.0
H690 H 0.15394 0.1737 0.55526 0.0
H691 H 0.11942 0.11672 0.54048 0.0
H692 H 0.03082 0.07447 0.60511 0.0
H693 H 0.0418 0.12582 0.64323 0.0
C694 C 0.09489 0.17921 0.6373 0.0
C695 C 0.12388 0.20522 0.63106 0.0
C696 C 0.08724 0.15085 0.61427 0.0
C697 C 0.14452 0.20312 0.60084 0.0
C698 C 0.13711 0.17504 0.57789 0.0
C699 C 0.10236 0.11884 0.56277 0.0
C700 C 0.07452 0.09154 0.57008 0.0
C701 C 0.10885 0.1484 0.58464 0.0
C702 C 0.05248 0.09502 0.59887 0.0
C703 C 0.05881 0.12434 0.62078 0.0
H704 H 0.6055 0.29734 0.37814 0.0
H705 H 0.69964 0.32565 0.42866 0.0
H706 H 0.67255 0.36684 0.46584 0.0
H707 H 0.62313 0.39755 0.48147 0.0
H708 H 0.52913 0.37039 0.43016 0.0
H709 H 0.55504 0.32552 0.39627 0.0
C710 C 0.61993 0.31205 0.39771 0.0
C711 C 0.65457 0.3086 0.4005 0.0
C712 C 0.60426 0.33596 0.41878 0.0
C713 C 0.67304 0.32821 0.42568 0.0
C714 C 0.65755 0.35167 0.44701 0.0
C715 C 0.60815 0.38157 0.46315 0.0
C716 C 0.57427 0.38751 0.45827 0.0
C717 C 0.62333 0.35623 0.44337 0.0
C718 C 0.5553 0.3665 0.43439 0.0
C719 C 0.57011 0.34087 0.41492 0.0
loop_
_geom_bond_atom_site_label_1
_geom_bond_atom_site_label_2
_geom_bond_distance
_geom_bond_site_symmetry_2
_ccdc_geom_bond_type
P0 O11 1.490 . S
P0 C14 1.812 . S
P0 C20 1.803 . S
P0 C26 1.819 . S
H1 C15 0.941 . S
H2 C16 0.939 . S
H3 C18 0.940 . S
H4 C19 0.940 . S
H5 C21 0.939 . S
H6 C22 0.942 . S
H7 C24 0.940 . S
H8 C25 0.939 . S
H9 C27 0.941 . S
H10 C31 0.939 . S
O11 P0 1.490 . S
H12 C28 0.939 . S
H13 C30 0.940 . S
C14 P0 1.812 . S
C14 C15 1.389 . S
C14 C19 1.391 . S
C15 H1 0.941 . S
C15 C14 1.389 . S
C15 C16 1.397 . S
C16 H2 0.939 . S
C16 C15 1.397 . S
C16 C17 1.378 . S
C17 C16 1.378 . S
C17 C18 1.378 . S
C18 H3 0.940 . S
C18 C17 1.378 . S
C18 C19 1.396 . S
C19 H4 0.940 . S
C19 C14 1.391 . S
C19 C18 1.396 . S
C20 P0 1.803 . S
C20 C21 1.378 . S
C20 C25 1.400 . S
C21 H5 0.939 . S
C21 C20 1.378 . S
C21 C22 1.361 . S
C22 H6 0.942 . S
C22 C21 1.361 . S
C22 C23 1.369 . S
C23 C22 1.369 . S
C23 C24 1.404 . S
C24 H7 0.940 . S
C24 C23 1.404 . S
C24 C25 1.389 . S
C25 H8 0.939 . S
C25 C20 1.400 . S
C25 C24 1.389 . S
C26 P0 1.819 . S
C26 C27 1.391 . S
C26 C31 1.391 . S
C27 H9 0.941 . S
C27 C26 1.391 . S
C27 C28 1.396 . S
C28 H12 0.939 . S
C28 C27 1.396 . S
C28 C29 1.397 . S
C29 C28 1.397 . S
C29 C30 1.385 . S
C30 H13 0.940 . S
C30 C29 1.385 . S
C30 C31 1.388 . S
C31 H10 0.939 . S
C31 C26 1.391 . S
C31 C30 1.388 . S
P32 O43 1.490 . S
P32 C46 1.812 . S
P32 C52 1.803 . S
P32 C58 1.819 . S
H33 C47 0.941 . S
H34 C48 0.939 . S
H35 C50 0.940 . S
H36 C51 0.940 . S
H37 C53 0.939 . S
H38 C54 0.942 . S
H39 C56 0.940 . S
H40 C57 0.939 . S
H41 C59 0.941 . S
H42 C63 0.939 . S
O43 P32 1.490 . S
H44 C60 0.939 . S
H45 C62 0.940 . S
C46 P32 1.812 . S
C46 C47 1.389 . S
C46 C51 1.391 . S
C47 H33 0.941 . S
C47 C46 1.389 . S
C47 C48 1.397 . S
C48 H34 0.939 . S
C48 C47 1.397 . S
C48 C49 1.378 . S
C49 C48 1.378 . S
C49 C50 1.378 . S
C50 H35 0.940 . S
C50 C49 1.378 . S
C50 C51 1.396 . S
C51 H36 0.940 . S
C51 C46 1.391 . S
C51 C50 1.396 . S
C52 P32 1.803 . S
C52 C53 1.378 . S
C52 C57 1.400 . S
C53 H37 0.939 . S
C53 C52 1.378 . S
C53 C54 1.361 . S
C54 H38 0.942 . S
C54 C53 1.361 . S
C54 C55 1.369 . S
C55 C54 1.369 . S
C55 C56 1.404 . S
C56 H39 0.940 . S
C56 C55 1.404 . S
C56 C57 1.389 . S
C57 H40 0.939 . S
C57 C52 1.400 . S
C57 C56 1.389 . S
C58 P32 1.819 . S
C58 C59 1.391 . S
C58 C63 1.391 . S
C59 H41 0.941 . S
C59 C58 1.391 . S
C59 C60 1.396 . S
C60 H44 0.939 . S
C60 C59 1.396 . S
C60 C61 1.397 . S
C61 C60 1.397 . S
C61 C62 1.385 . S
C62 H45 0.940 . S
C62 C61 1.385 . S
C62 C63 1.388 . S
C63 H42 0.939 . S
C63 C58 1.391 . S
C63 C62 1.388 . S
P64 O75 1.490 . S
P64 C78 1.812 . S
P64 C84 1.803 . S
P64 C90 1.819 . S
H65 C79 0.941 . S
H66 C80 0.939 . S
H67 C82 0.940 . S
H68 C83 0.940 . S
H69 C85 0.939 . S
H70 C86 0.942 . S
H71 C88 0.940 . S
H72 C89 0.939 . S
H73 C91 0.941 . S
H74 C95 0.939 . S
O75 P64 1.490 . S
H76 C92 0.939 . S
H77 C94 0.940 . S
C78 P64 1.812 . S
C78 C79 1.389 . S
C78 C83 1.391 . S
C79 H65 0.941 . S
C79 C78 1.389 . S
C79 C80 1.397 . S
C80 H66 0.939 . S
C80 C79 1.397 . S
C80 C81 1.378 . S
C81 C80 1.378 . S
C81 C82 1.378 . S
C82 H67 0.940 . S
C82 C81 1.378 . S
C82 C83 1.396 . S
C83 H68 0.940 . S
C83 C78 1.391 . S
C83 C82 1.396 . S
C84 P64 1.803 . S
C84 C85 1.378 . S
C84 C89 1.400 . S
C85 H69 0.939 . S
C85 C84 1.378 . S
C85 C86 1.361 . S
C86 H70 0.942 . S
C86 C85 1.361 . S
C86 C87 1.369 . S
C87 C86 1.369 . S
C87 C88 1.404 . S
C88 H71 0.940 . S
C88 C87 1.404 . S
C88 C89 1.389 . S
C89 H72 0.939 . S
C89 C84 1.400 . S
C89 C88 1.389 . S
C90 P64 1.819 . S
C90 C91 1.391 . S
C90 C95 1.391 . S
C91 H73 0.941 . S
C91 C90 1.391 . S
C91 C92 1.396 . S
C92 H76 0.939 . S
C92 C91 1.396 . S
C92 C93 1.397 . S
C93 C92 1.397 . S
C93 C94 1.385 . S
C94 H77 0.940 . S
C94 C93 1.385 . S
C94 C95 1.388 . S
C95 H74 0.939 . S
C95 C90 1.391 . S
C95 C94 1.388 . S
P96 O107 1.490 . S
P96 C110 1.812 . S
P96 C116 1.803 . S
P96 C122 1.819 . S
H97 C111 0.941 . S
H98 C112 0.939 . S
H99 C114 0.940 . S
H100 C115 0.940 . S
H101 C117 0.939 . S
H102 C118 0.942 . S
H103 C120 0.940 . S
H104 C121 0.939 . S
H105 C123 0.941 . S
H106 C127 0.939 . S
O107 P96 1.490 . S
H108 C124 0.939 . S
H109 C126 0.940 . S
C110 P96 1.812 . S
C110 C111 1.389 . S
C110 C115 1.391 . S
C111 H97 0.941 . S
C111 C110 1.389 . S
C111 C112 1.397 . S
C112 H98 0.939 . S
C112 C111 1.397 . S
C112 C113 1.378 . S
C113 C112 1.378 . S
C113 C114 1.378 . S
C114 H99 0.940 . S
C114 C113 1.378 . S
C114 C115 1.396 . S
C115 H100 0.940 . S
C115 C110 1.391 . S
C115 C114 1.396 . S
C116 P96 1.803 . S
C116 C117 1.378 . S
C116 C121 1.400 . S
C117 H101 0.939 . S
C117 C116 1.378 . S
C117 C118 1.361 . S
C118 H102 0.942 . S
C118 C117 1.361 . S
C118 C119 1.369 . S
C119 C118 1.369 . S
C119 C120 1.404 . S
C120 H103 0.940 . S
C120 C119 1.404 . S
C120 C121 1.389 . S
C121 H104 0.939 . S
C121 C116 1.400 . S
C121 C120 1.389 . S
C122 P96 1.819 . S
C122 C123 1.391 . S
C122 C127 1.391 . S
C123 H105 0.941 . S
C123 C122 1.391 . S
C123 C124 1.396 . S
C124 H108 0.939 . S
C124 C123 1.396 . S
C124 C125 1.397 . S
C125 C124 1.397 . S
C125 C126 1.385 . S
C126 H109 0.940 . S
C126 C125 1.385 . S
C126 C127 1.388 . S
C127 H106 0.939 . S
C127 C122 1.391 . S
C127 C126 1.388 . S
P128 O139 1.490 . S
P128 C142 1.812 . S
P128 C148 1.803 . S
P128 C154 1.819 . S
H129 C143 0.941 . S
H130 C144 0.939 . S
H131 C146 0.940 . S
H132 C147 0.940 . S
H133 C149 0.939 . S
H134 C150 0.942 . S
H135 C152 0.940 . S
H136 C153 0.939 . S
H137 C155 0.941 . S
H138 C159 0.939 . S
O139 P128 1.490 . S
H140 C156 0.939 . S
H141 C158 0.940 . S
C142 P128 1.812 . S
C142 C143 1.389 . S
C142 C147 1.391 . S
C143 H129 0.941 . S
C143 C142 1.389 . S
C143 C144 1.397 . S
C144 H130 0.939 . S
C144 C143 1.397 . S
C144 C145 1.378 . S
C145 C144 1.378 . S
C145 C146 1.378 . S
C146 H131 0.940 . S
C146 C145 1.378 . S
C146 C147 1.396 . S
C147 H132 0.940 . S
C147 C142 1.391 . S
C147 C146 1.396 . S
C148 P128 1.803 . S
C148 C149 1.378 . S
C148 C153 1.400 . S
C149 H133 0.939 . S
C149 C148 1.378 . S
C149 C150 1.361 . S
C150 H134 0.942 . S
C150 C149 1.361 . S
C150 C151 1.369 . S
C151 C150 1.369 . S
C151 C152 1.404 . S
C152 H135 0.940 . S
C152 C151 1.404 . S
C152 C153 1.389 . S
C153 H136 0.939 . S
C153 C148 1.400 . S
C153 C152 1.389 . S
C154 P128 1.819 . S
C154 C155 1.391 . S
C154 C159 1.391 . S
C155 H137 0.941 . S
C155 C154 1.391 . S
C155 C156 1.396 . S
C156 H140 0.939 . S
C156 C155 1.396 . S
C156 C157 1.397 . S
C157 C156 1.397 . S
C157 C158 1.385 . S
C158 H141 0.940 . S
C158 C157 1.385 . S
C158 C159 1.388 . S
C159 H138 0.939 . S
C159 C154 1.391 . S
C159 C158 1.388 . S
P160 O171 1.490 . S
P160 C174 1.812 . S
P160 C180 1.803 . S
P160 C186 1.819 . S
H161 C175 0.941 . S
H162 C176 0.939 . S
H163 C178 0.940 . S
H164 C179 0.940 . S
H165 C181 0.939 . S
H166 C182 0.942 . S
H167 C184 0.940 . S
H168 C185 0.939 . S
H169 C187 0.941 . S
H170 C191 0.939 . S
O171 P160 1.490 . S
H172 C188 0.939 . S
H173 C190 0.940 . S
C174 P160 1.812 . S
C174 C175 1.389 . S
C174 C179 1.391 . S
C175 H161 0.941 . S
C175 C174 1.389 . S
C175 C176 1.397 . S
C176 H162 0.939 . S
C176 C175 1.397 . S
C176 C177 1.378 . S
C177 C176 1.378 . S
C177 C178 1.378 . S
C178 H163 0.940 . S
C178 C177 1.378 . S
C178 C179 1.396 . S
C179 H164 0.940 . S
C179 C174 1.391 . S
C179 C178 1.396 . S
C180 P160 1.803 . S
C180 C181 1.378 . S
C180 C185 1.400 . S
C181 H165 0.939 . S
C181 C180 1.378 . S
C181 C182 1.361 . S
C182 H166 0.942 . S
C182 C181 1.361 . S
C182 C183 1.369 . S
C183 C182 1.369 . S
C183 C184 1.404 . S
C184 H167 0.940 . S
C184 C183 1.404 . S
C184 C185 1.389 . S
C185 H168 0.939 . S
C185 C180 1.400 . S
C185 C184 1.389 . S
C186 P160 1.819 . S
C186 C187 1.391 . S
C186 C191 1.391 . S
C187 H169 0.941 . S
C187 C186 1.391 . S
C187 C188 1.396 . S
C188 H172 0.939 . S
C188 C187 1.396 . S
C188 C189 1.397 . S
C189 C188 1.397 . S
C189 C190 1.385 . S
C190 H173 0.940 . S
C190 C189 1.385 . S
C190 C191 1.388 . S
C191 H170 0.939 . S
C191 C186 1.391 . S
C191 C190 1.388 . S
P192 O203 1.490 . S
P192 C206 1.812 . S
P192 C212 1.803 . S
P192 C218 1.819 . S
H193 C207 0.941 . S
H194 C208 0.939 . S
H195 C210 0.940 . S
H196 C211 0.940 . S
H197 C213 0.939 . S
H198 C214 0.942 . S
H199 C216 0.940 . S
H200 C217 0.939 . S
H201 C219 0.941 . S
H202 C223 0.939 . S
O203 P192 1.490 . S
H204 C220 0.939 . S
H205 C222 0.940 . S
C206 P192 1.812 . S
C206 C207 1.389 . S
C206 C211 1.391 . S
C207 H193 0.941 . S
C207 C206 1.389 . S
C207 C208 1.397 . S
C208 H194 0.939 . S
C208 C207 1.397 . S
C208 C209 1.378 . S
C209 C208 1.378 . S
C209 C210 1.378 . S
C210 H195 0.940 . S
C210 C209 1.378 . S
C210 C211 1.396 . S
C211 H196 0.940 . S
C211 C206 1.391 . S
C211 C210 1.396 . S
C212 P192 1.803 . S
C212 C213 1.378 . S
C212 C217 1.400 . S
C213 H197 0.939 . S
C213 C212 1.378 . S
C213 C214 1.361 . S
C214 H198 0.942 . S
C214 C213 1.361 . S
C214 C215 1.369 . S
C215 C214 1.369 . S
C215 C216 1.404 . S
C216 H199 0.940 . S
C216 C215 1.404 . S
C216 C217 1.389 . S
C217 H200 0.939 . S
C217 C212 1.400 . S
C217 C216 1.389 . S
C218 P192 1.819 . S
C218 C219 1.391 . S
C218 C223 1.391 . S
C219 H201 0.941 . S
C219 C218 1.391 . S
C219 C220 1.396 . S
C220 H204 0.939 . S
C220 C219 1.396 . S
C220 C221 1.397 . S
C221 C220 1.397 . S
C221 C222 1.385 . S
C222 H205 0.940 . S
C222 C221 1.385 . S
C222 C223 1.388 . S
C223 H202 0.939 . S
C223 C218 1.391 . S
C223 C222 1.388 . S
P224 O235 1.490 . S
P224 C238 1.812 . S
P224 C244 1.803 . S
P224 C250 1.819 . S
H225 C239 0.941 . S
H226 C240 0.939 . S
H227 C242 0.940 . S
H228 C243 0.940 . S
H229 C245 0.939 . S
H230 C246 0.942 . S
H231 C248 0.940 . S
H232 C249 0.939 . S
H233 C251 0.941 . S
H234 C255 0.939 . S
O235 P224 1.490 . S
H236 C252 0.939 . S
H237 C254 0.940 . S
C238 P224 1.812 . S
C238 C239 1.389 . S
C238 C243 1.391 . S
C239 H225 0.941 . S
C239 C238 1.389 . S
C239 C240 1.397 . S
C240 H226 0.939 . S
C240 C239 1.397 . S
C240 C241 1.378 . S
C241 C240 1.378 . S
C241 C242 1.378 . S
C242 H227 0.940 . S
C242 C241 1.378 . S
C242 C243 1.396 . S
C243 H228 0.940 . S
C243 C238 1.391 . S
C243 C242 1.396 . S
C244 P224 1.803 . S
C244 C245 1.378 . S
C244 C249 1.400 . S
C245 H229 0.939 . S
C245 C244 1.378 . S
C245 C246 1.361 . S
C246 H230 0.942 . S
C246 C245 1.361 . S
C246 C247 1.369 . S
C247 C246 1.369 . S
C247 C248 1.404 . S
C248 H231 0.940 . S
C248 C247 1.404 . S
C248 C249 1.389 . S
C249 H232 0.939 . S
C249 C244 1.400 . S
C249 C248 1.389 . S
C250 P224 1.819 . S
C250 C251 1.391 . S
C250 C255 1.391 . S
C251 H233 0.941 . S
C251 C250 1.391 . S
C251 C252 1.396 . S
C252 H236 0.939 . S
C252 C251 1.396 . S
C252 C253 1.397 . S
C253 C252 1.397 . S
C253 C254 1.385 . S
C254 H237 0.940 . S
C254 C253 1.385 . S
C254 C255 1.388 . S
C255 H234 0.939 . S
C255 C250 1.391 . S
C255 C254 1.388 . S
Zn256 O262 1.969 1_545 S
Zn256 O263 1.965 1_545 S
Zn256 O267 2.024 . S
Zn256 O272 1.969 . S
Zn257 O264 1.969 . S
Zn257 O270 1.969 1_565 S
Zn257 O271 1.965 1_665 S
Zn257 O273 2.024 . S
C258 O259 1.229 . S
C258 O267 1.058 . S
O259 C258 1.229 . S
C260 O261 1.229 . S
C260 O273 1.058 . S
O261 C260 1.229 . S
O262 Zn256 1.969 1_565 S
O262 C265 1.267 . S
O263 Zn256 1.965 1_565 S
O263 C274 1.260 1_455 S
O264 Zn257 1.969 . S
O264 C274 1.258 . S
C265 O262 1.267 . S
C265 O266 1.228 . S
O266 C265 1.228 . S
O267 Zn256 2.024 . S
O267 C258 1.058 . S
C268 O269 1.228 . S
C268 O270 1.267 . S
O269 C268 1.228 . S
O270 Zn257 1.969 1_545 S
O270 C268 1.267 . S
O271 Zn257 1.965 1_445 S
O271 C275 1.260 . S
O272 Zn256 1.969 . S
O272 C275 1.258 . S
O273 Zn257 2.024 . S
O273 C260 1.058 . S
C274 O263 1.260 1_655 S
C274 O264 1.258 . S
C275 O271 1.260 . S
C275 O272 1.258 . S
Zn276 O282 1.969 . S
Zn276 O283 1.965 1_565 S
Zn276 O287 2.024 . S
Zn276 O292 1.969 1_556 S
Zn277 O284 1.969 . S
Zn277 O290 1.969 . S
Zn277 O291 1.965 1_545 S
Zn277 O293 2.024 . S
C278 O279 1.229 . S
C278 O287 1.058 . S
O279 C278 1.229 . S
C280 O281 1.229 . S
C280 O293 1.058 . S
O281 C280 1.229 . S
O282 Zn276 1.969 . S
O282 C285 1.267 . S
O283 Zn276 1.965 1_545 S
O283 C294 1.260 . S
O284 Zn277 1.969 . S
O284 C294 1.258 1_554 S
C285 O282 1.267 . S
C285 O286 1.228 . S
O286 C285 1.228 . S
O287 Zn276 2.024 . S
O287 C278 1.058 . S
C288 O289 1.228 . S
C288 O290 1.267 . S
O289 C288 1.228 . S
O290 Zn277 1.969 . S
O290 C288 1.267 . S
O291 Zn277 1.965 1_565 S
O291 C295 1.260 . S
O292 Zn276 1.969 1_554 S
O292 C295 1.258 . S
O293 Zn277 2.024 . S
O293 C280 1.058 . S
C294 O283 1.260 . S
C294 O284 1.258 1_556 S
C295 O291 1.260 . S
C295 O292 1.258 . S
Zn296 O302 1.969 . S
Zn296 O303 1.965 . S
Zn296 O307 2.024 . S
Zn296 O312 1.969 . S
Zn297 O304 1.969 . S
Zn297 O310 1.969 . S
Zn297 O311 1.965 . S
Zn297 O313 2.024 . S
C298 O299 1.229 . S
C298 O307 1.058 . S
O299 C298 1.229 . S
C300 O301 1.229 . S
C300 O313 1.058 . S
O301 C300 1.229 . S
O302 Zn296 1.969 . S
O302 C305 1.267 . S
O303 Zn296 1.965 . S
O303 C314 1.260 . S
O304 Zn297 1.969 . S
O304 C314 1.258 . S
C305 O302 1.267 . S
C305 O306 1.228 . S
O306 C305 1.228 . S
O307 Zn296 2.024 . S
O307 C298 1.058 . S
C308 O309 1.228 . S
C308 O310 1.267 . S
O309 C308 1.228 . S
O310 Zn297 1.969 . S
O310 C308 1.267 . S
O311 Zn297 1.965 . S
O311 C315 1.260 . S
O312 Zn296 1.969 . S
O312 C315 1.258 . S
O313 Zn297 2.024 . S
O313 C300 1.058 . S
C314 O303 1.260 . S
C314 O304 1.258 . S
C315 O311 1.260 . S
C315 O312 1.258 . S
Zn316 O322 1.969 . S
Zn316 O323 1.965 1_556 S
Zn316 O327 2.024 . S
Zn316 O332 1.969 1_655 S
Zn317 O324 1.969 . S
Zn317 O330 1.969 . S
Zn317 O331 1.965 1_554 S
Zn317 O333 2.024 . S
C318 O319 1.229 . S
C318 O327 1.058 . S
O319 C318 1.229 . S
C320 O321 1.229 . S
C320 O333 1.058 . S
O321 C320 1.229 . S
O322 Zn316 1.969 . S
O322 C325 1.267 . S
O323 Zn316 1.965 1_554 S
O323 C334 1.260 . S
O324 Zn317 1.969 . S
O324 C334 1.258 1_455 S
C325 O322 1.267 . S
C325 O326 1.228 . S
O326 C325 1.228 . S
O327 Zn316 2.024 . S
O327 C318 1.058 . S
C328 O329 1.228 . S
C328 O330 1.267 . S
O329 C328 1.228 . S
O330 Zn317 1.969 . S
O330 C328 1.267 . S
O331 Zn317 1.965 1_556 S
O331 C335 1.260 . S
O332 Zn316 1.969 1_455 S
O332 C335 1.258 . S
O333 Zn317 2.024 . S
O333 C320 1.058 . S
C334 O323 1.260 . S
C334 O324 1.258 1_655 S
C335 O331 1.260 . S
C335 O332 1.258 . S
H336 C342 0.930 . S
H337 C345 0.930 . S
H338 C346 0.930 . S
H339 C347 0.930 . S
H340 C350 0.930 . S
H341 C351 0.930 . S
C342 H336 0.930 . S
C342 C343 1.355 . S
C342 C344 1.415 . S
C343 C342 1.355 . S
C343 C345 1.419 . S
C344 C342 1.415 . S
C344 C349 1.425 . S
C344 C351 1.409 . S
C345 H337 0.930 . S
C345 C343 1.419 . S
C345 C346 1.362 . S
C346 H338 0.930 . S
C346 C345 1.362 . S
C346 C349 1.409 . S
C347 H339 0.930 . S
C347 C348 1.355 . S
C347 C349 1.415 . S
C348 C347 1.355 . S
C348 C350 1.419 . S
C349 C344 1.425 . S
C349 C346 1.409 . S
C349 C347 1.415 . S
C350 H340 0.930 . S
C350 C348 1.419 . S
C350 C351 1.362 . S
C351 H341 0.930 . S
C351 C344 1.409 . S
C351 C350 1.362 . S
H352 C358 0.930 . S
H353 C361 0.930 . S
H354 C362 0.930 . S
H355 C363 0.930 . S
H356 C366 0.930 . S
H357 C367 0.930 . S
C358 H352 0.930 . S
C358 C359 1.355 . S
C358 C360 1.415 . S
C359 C358 1.355 . S
C359 C361 1.419 . S
C360 C358 1.415 . S
C360 C365 1.425 . S
C360 C367 1.409 . S
C361 H353 0.930 . S
C361 C359 1.419 . S
C361 C362 1.362 . S
C362 H354 0.930 . S
C362 C361 1.362 . S
C362 C365 1.409 . S
C363 H355 0.930 . S
C363 C364 1.355 . S
C363 C365 1.415 . S
C364 C363 1.355 . S
C364 C366 1.419 . S
C365 C360 1.425 . S
C365 C362 1.409 . S
C365 C363 1.415 . S
C366 H356 0.930 . S
C366 C364 1.419 . S
C366 C367 1.362 . S
C367 H357 0.930 . S
C367 C360 1.409 . S
C367 C366 1.362 . S
H368 C374 0.930 . S
H369 C377 0.930 . S
H370 C378 0.930 . S
H371 C379 0.930 . S
H372 C382 0.930 . S
H373 C383 0.930 . S
C374 H368 0.930 . S
C374 C375 1.355 . S
C374 C376 1.415 . S
C375 C374 1.355 . S
C375 C377 1.419 . S
C376 C374 1.415 . S
C376 C381 1.425 . S
C376 C383 1.409 . S
C377 H369 0.930 . S
C377 C375 1.419 . S
C377 C378 1.362 . S
C378 H370 0.930 . S
C378 C377 1.362 . S
C378 C381 1.409 . S
C379 H371 0.930 . S
C379 C380 1.355 . S
C379 C381 1.415 . S
C380 C379 1.355 . S
C380 C382 1.419 . S
C381 C376 1.425 . S
C381 C378 1.409 . S
C381 C379 1.415 . S
C382 H372 0.930 . S
C382 C380 1.419 . S
C382 C383 1.362 . S
C383 H373 0.930 . S
C383 C376 1.409 . S
C383 C382 1.362 . S
H384 C390 0.930 . S
H385 C393 0.930 . S
H386 C394 0.930 . S
H387 C395 0.930 . S
H388 C398 0.930 . S
H389 C399 0.930 . S
C390 H384 0.930 . S
C390 C391 1.355 . S
C390 C392 1.415 . S
C391 C390 1.355 . S
C391 C393 1.419 . S
C392 C390 1.415 . S
C392 C397 1.425 . S
C392 C399 1.409 . S
C393 H385 0.930 . S
C393 C391 1.419 . S
C393 C394 1.362 . S
C394 H386 0.930 . S
C394 C393 1.362 . S
C394 C397 1.409 . S
C395 H387 0.930 . S
C395 C396 1.355 . S
C395 C397 1.415 . S
C396 C395 1.355 . S
C396 C398 1.419 . S
C397 C392 1.425 . S
C397 C394 1.409 . S
C397 C395 1.415 . S
C398 H388 0.930 . S
C398 C396 1.419 . S
C398 C399 1.362 . S
C399 H389 0.930 . S
C399 C392 1.409 . S
C399 C398 1.362 . S
H400 C406 0.930 . S
H401 C409 0.930 . S
H402 C410 0.930 . S
H403 C411 0.930 . S
H404 C414 0.930 . S
H405 C415 0.930 . S
C406 H400 0.930 . S
C406 C407 1.355 . S
C406 C408 1.415 . S
C407 C406 1.355 . S
C407 C409 1.419 . S
C408 C406 1.415 . S
C408 C413 1.425 . S
C408 C415 1.409 . S
C409 H401 0.930 . S
C409 C407 1.419 . S
C409 C410 1.362 . S
C410 H402 0.930 . S
C410 C409 1.362 . S
C410 C413 1.409 . S
C411 H403 0.930 . S
C411 C412 1.355 . S
C411 C413 1.415 . S
C412 C411 1.355 . S
C412 C414 1.419 . S
C413 C408 1.425 . S
C413 C410 1.409 . S
C413 C411 1.415 . S
C414 H404 0.930 . S
C414 C412 1.419 . S
C414 C415 1.362 . S
C415 H405 0.930 . S
C415 C408 1.409 . S
C415 C414 1.362 . S
H416 C422 0.930 . S
H417 C425 0.930 . S
H418 C426 0.930 . S
H419 C427 0.930 . S
H420 C430 0.930 . S
H421 C431 0.930 . S
C422 H416 0.930 . S
C422 C423 1.355 . S
C422 C424 1.415 . S
C423 C422 1.355 . S
C423 C425 1.419 . S
C424 C422 1.415 . S
C424 C429 1.425 . S
C424 C431 1.409 . S
C425 H417 0.930 . S
C425 C423 1.419 . S
C425 C426 1.362 . S
C426 H418 0.930 . S
C426 C425 1.362 . S
C426 C429 1.409 . S
C427 H419 0.930 . S
C427 C428 1.355 . S
C427 C429 1.415 . S
C428 C427 1.355 . S
C428 C430 1.419 . S
C429 C424 1.425 . S
C429 C426 1.409 . S
C429 C427 1.415 . S
C430 H420 0.930 . S
C430 C428 1.419 . S
C430 C431 1.362 . S
C431 H421 0.930 . S
C431 C424 1.409 . S
C431 C430 1.362 . S
H432 C438 0.930 . S
H433 C441 0.930 . S
H434 C442 0.930 . S
H435 C443 0.930 . S
H436 C446 0.930 . S
H437 C447 0.930 . S
C438 H432 0.930 . S
C438 C439 1.355 . S
C438 C440 1.415 . S
C439 C438 1.355 . S
C439 C441 1.419 . S
C440 C438 1.415 . S
C440 C445 1.425 . S
C440 C447 1.409 . S
C441 H433 0.930 . S
C441 C439 1.419 . S
C441 C442 1.362 . S
C442 H434 0.930 . S
C442 C441 1.362 . S
C442 C445 1.409 . S
C443 H435 0.930 . S
C443 C444 1.355 . S
C443 C445 1.415 . S
C444 C443 1.355 . S
C444 C446 1.419 . S
C445 C440 1.425 . S
C445 C442 1.409 . S
C445 C443 1.415 . S
C446 H436 0.930 . S
C446 C444 1.419 . S
C446 C447 1.362 . S
C447 H437 0.930 . S
C447 C440 1.409 . S
C447 C446 1.362 . S
H448 C454 0.930 . S
H449 C457 0.930 . S
H450 C458 0.930 . S
H451 C459 0.930 . S
H452 C462 0.930 . S
H453 C463 0.930 . S
C454 H448 0.930 . S
C454 C455 1.355 . S
C454 C456 1.415 . S
C455 C454 1.355 . S
C455 C457 1.419 . S
C456 C454 1.415 . S
C456 C461 1.425 . S
C456 C463 1.409 . S
C457 H449 0.930 . S
C457 C455 1.419 . S
C457 C458 1.362 . S
C458 H450 0.930 . S
C458 C457 1.362 . S
C458 C461 1.409 . S
C459 H451 0.930 . S
C459 C460 1.355 . S
C459 C461 1.415 . S
C460 C459 1.355 . S
C460 C462 1.419 . S
C461 C456 1.425 . S
C461 C458 1.409 . S
C461 C459 1.415 . S
C462 H452 0.930 . S
C462 C460 1.419 . S
C462 C463 1.362 . S
C463 H453 0.930 . S
C463 C456 1.409 . S
C463 C462 1.362 . S
H464 C470 0.930 . S
H465 C473 0.930 . S
H466 C474 0.930 . S
H467 C475 0.930 . S
H468 C478 0.930 . S
H469 C479 0.930 . S
C470 H464 0.930 . S
C470 C471 1.355 . S
C470 C472 1.415 . S
C471 C470 1.355 . S
C471 C473 1.419 . S
C472 C470 1.415 . S
C472 C477 1.425 . S
C472 C479 1.409 . S
C473 H465 0.930 . S
C473 C471 1.419 . S
C473 C474 1.362 . S
C474 H466 0.930 . S
C474 C473 1.362 . S
C474 C477 1.409 . S
C475 H467 0.930 . S
C475 C476 1.355 . S
C475 C477 1.415 . S
C476 C475 1.355 . S
C476 C478 1.419 . S
C477 C472 1.425 . S
C477 C474 1.409 . S
C477 C475 1.415 . S
C478 H468 0.930 . S
C478 C476 1.419 . S
C478 C479 1.362 . S
C479 H469 0.930 . S
C479 C472 1.409 . S
C479 C478 1.362 . S
H480 C486 0.930 . S
H481 C489 0.930 . S
H482 C490 0.930 . S
H483 C491 0.930 . S
H484 C494 0.930 . S
H485 C495 0.930 . S
C486 H480 0.930 . S
C486 C487 1.355 . S
C486 C488 1.415 . S
C487 C486 1.355 . S
C487 C489 1.419 . S
C488 C486 1.415 . S
C488 C493 1.425 . S
C488 C495 1.409 . S
C489 H481 0.930 . S
C489 C487 1.419 . S
C489 C490 1.362 . S
C490 H482 0.930 . S
C490 C489 1.362 . S
C490 C493 1.409 . S
C491 H483 0.930 . S
C491 C492 1.355 . S
C491 C493 1.415 . S
C492 C491 1.355 . S
C492 C494 1.419 . S
C493 C488 1.425 . S
C493 C490 1.409 . S
C493 C491 1.415 . S
C494 H484 0.930 . S
C494 C492 1.419 . S
C494 C495 1.362 . S
C495 H485 0.930 . S
C495 C488 1.409 . S
C495 C494 1.362 . S
H496 C502 0.930 . S
H497 C505 0.930 . S
H498 C506 0.930 . S
H499 C507 0.930 . S
H500 C510 0.930 . S
H501 C511 0.930 . S
C502 H496 0.930 . S
C502 C503 1.355 . S
C502 C504 1.415 . S
C503 C502 1.355 . S
C503 C505 1.419 . S
C504 C502 1.415 . S
C504 C509 1.425 . S
C504 C511 1.409 . S
C505 H497 0.930 . S
C505 C503 1.419 . S
C505 C506 1.362 . S
C506 H498 0.930 . S
C506 C505 1.362 . S
C506 C509 1.409 . S
C507 H499 0.930 . S
C507 C508 1.355 . S
C507 C509 1.415 . S
C508 C507 1.355 . S
C508 C510 1.419 . S
C509 C504 1.425 . S
C509 C506 1.409 . S
C509 C507 1.415 . S
C510 H500 0.930 . S
C510 C508 1.419 . S
C510 C511 1.362 . S
C511 H501 0.930 . S
C511 C504 1.409 . S
C511 C510 1.362 . S
H512 C518 0.930 . S
H513 C521 0.930 . S
H514 C522 0.930 . S
H515 C523 0.930 . S
H516 C526 0.930 . S
H517 C527 0.930 . S
C518 H512 0.930 . S
C518 C519 1.355 . S
C518 C520 1.415 . S
C519 C518 1.355 . S
C519 C521 1.419 . S
C520 C518 1.415 . S
C520 C525 1.425 . S
C520 C527 1.409 . S
C521 H513 0.930 . S
C521 C519 1.419 . S
C521 C522 1.362 . S
C522 H514 0.930 . S
C522 C521 1.362 . S
C522 C525 1.409 . S
C523 H515 0.930 . S
C523 C524 1.355 . S
C523 C525 1.415 . S
C524 C523 1.355 . S
C524 C526 1.419 . S
C525 C520 1.425 . S
C525 C522 1.409 . S
C525 C523 1.415 . S
C526 H516 0.930 . S
C526 C524 1.419 . S
C526 C527 1.362 . S
C527 H517 0.930 . S
C527 C520 1.409 . S
C527 C526 1.362 . S
H528 C534 0.930 . S
H529 C537 0.930 . S
H530 C538 0.930 . S
H531 C539 0.930 . S
H532 C542 0.930 1_545 S
H533 C543 0.930 . S
C534 H528 0.930 . S
C534 C535 1.355 . S
C534 C536 1.415 . S
C535 C534 1.355 . S
C535 C537 1.419 . S
C536 C534 1.415 . S
C536 C541 1.425 . S
C536 C543 1.409 . S
C537 H529 0.930 . S
C537 C535 1.419 . S
C537 C538 1.362 . S
C538 H530 0.930 . S
C538 C537 1.362 . S
C538 C541 1.409 . S
C539 H531 0.930 . S
C539 C540 1.355 . S
C539 C541 1.415 . S
C540 C539 1.355 . S
C540 C542 1.419 . S
C541 C536 1.425 . S
C541 C538 1.409 . S
C541 C539 1.415 . S
C542 H532 0.930 1_565 S
C542 C540 1.419 . S
C542 C543 1.362 . S
C543 H533 0.930 . S
C543 C536 1.409 . S
C543 C542 1.362 . S
H544 C550 0.930 . S
H545 C553 0.930 . S
H546 C554 0.930 . S
H547 C555 0.930 . S
H548 C558 0.930 . S
H549 C559 0.930 . S
C550 H544 0.930 . S
C550 C551 1.355 . S
C550 C552 1.415 . S
C551 C550 1.355 . S
C551 C553 1.419 . S
C552 C550 1.415 . S
C552 C557 1.425 . S
C552 C559 1.409 . S
C553 H545 0.930 . S
C553 C551 1.419 . S
C553 C554 1.362 . S
C554 H546 0.930 . S
C554 C553 1.362 . S
C554 C557 1.409 . S
C555 H547 0.930 . S
C555 C556 1.355 . S
C555 C557 1.415 . S
C556 C555 1.355 . S
C556 C558 1.419 . S
C557 C552 1.425 . S
C557 C554 1.409 . S
C557 C555 1.415 . S
C558 H548 0.930 . S
C558 C556 1.419 . S
C558 C559 1.362 . S
C559 H549 0.930 . S
C559 C552 1.409 . S
C559 C558 1.362 . S
H560 C566 0.930 . S
H561 C569 0.930 . S
H562 C570 0.930 . S
H563 C571 0.930 . S
H564 C574 0.930 . S
H565 C575 0.930 . S
C566 H560 0.930 . S
C566 C567 1.355 . S
C566 C568 1.415 . S
C567 C566 1.355 . S
C567 C569 1.419 . S
C568 C566 1.415 . S
C568 C573 1.425 . S
C568 C575 1.409 . S
C569 H561 0.930 . S
C569 C567 1.419 . S
C569 C570 1.362 . S
C570 H562 0.930 . S
C570 C569 1.362 . S
C570 C573 1.409 . S
C571 H563 0.930 . S
C571 C572 1.355 . S
C571 C573 1.415 . S
C572 C571 1.355 . S
C572 C574 1.419 . S
C573 C568 1.425 . S
C573 C570 1.409 . S
C573 C571 1.415 . S
C574 H564 0.930 . S
C574 C572 1.419 . S
C574 C575 1.362 . S
C575 H565 0.930 . S
C575 C568 1.409 . S
C575 C574 1.362 . S
H576 C582 0.930 . S
H577 C585 0.930 . S
H578 C586 0.930 . S
H579 C587 0.930 . S
H580 C590 0.930 . S
H581 C591 0.930 . S
C582 H576 0.930 . S
C582 C583 1.355 . S
C582 C584 1.415 . S
C583 C582 1.355 . S
C583 C585 1.419 . S
C584 C582 1.415 . S
C584 C589 1.425 . S
C584 C591 1.409 . S
C585 H577 0.930 . S
C585 C583 1.419 . S
C585 C586 1.362 . S
C586 H578 0.930 . S
C586 C585 1.362 . S
C586 C589 1.409 . S
C587 H579 0.930 . S
C587 C588 1.355 . S
C587 C589 1.415 . S
C588 C587 1.355 . S
C588 C590 1.419 . S
C589 C584 1.425 . S
C589 C586 1.409 . S
C589 C587 1.415 . S
C590 H580 0.930 . S
C590 C588 1.419 . S
C590 C591 1.362 . S
C591 H581 0.930 . S
C591 C584 1.409 . S
C591 C590 1.362 . S
H592 C598 0.930 . S
H593 C601 0.930 . S
H594 C602 0.930 . S
H595 C603 0.930 . S
H596 C606 0.930 . S
H597 C607 0.930 . S
C598 H592 0.930 . S
C598 C599 1.355 . S
C598 C600 1.415 . S
C599 C598 1.355 . S
C599 C601 1.419 . S
C600 C598 1.415 . S
C600 C605 1.425 . S
C600 C607 1.409 . S
C601 H593 0.930 . S
C601 C599 1.419 . S
C601 C602 1.362 . S
C602 H594 0.930 . S
C602 C601 1.362 . S
C602 C605 1.409 . S
C603 H595 0.930 . S
C603 C604 1.355 . S
C603 C605 1.415 . S
C604 C603 1.355 . S
C604 C606 1.419 . S
C605 C600 1.425 . S
C605 C602 1.409 . S
C605 C603 1.415 . S
C606 H596 0.930 . S
C606 C604 1.419 . S
C606 C607 1.362 . S
C607 H597 0.930 . S
C607 C600 1.409 . S
C607 C606 1.362 . S
H608 C614 0.930 . S
H609 C617 0.930 . S
H610 C618 0.930 . S
H611 C619 0.930 . S
H612 C622 0.930 . S
H613 C623 0.930 . S
C614 H608 0.930 . S
C614 C615 1.355 . S
C614 C616 1.415 . S
C615 C614 1.355 . S
C615 C617 1.419 . S
C616 C614 1.415 . S
C616 C621 1.425 . S
C616 C623 1.409 . S
C617 H609 0.930 . S
C617 C615 1.419 . S
C617 C618 1.362 . S
C618 H610 0.930 . S
C618 C617 1.362 . S
C618 C621 1.409 . S
C619 H611 0.930 . S
C619 C620 1.355 . S
C619 C621 1.415 . S
C620 C619 1.355 . S
C620 C622 1.419 . S
C621 C616 1.425 . S
C621 C618 1.409 . S
C621 C619 1.415 . S
C622 H612 0.930 . S
C622 C620 1.419 . S
C622 C623 1.362 . S
C623 H613 0.930 . S
C623 C616 1.409 . S
C623 C622 1.362 . S
H624 C630 0.930 . S
H625 C633 0.930 . S
H626 C634 0.930 . S
H627 C635 0.930 . S
H628 C638 0.930 . S
H629 C639 0.930 . S
C630 H624 0.930 . S
C630 C631 1.355 . S
C630 C632 1.415 . S
C631 C630 1.355 . S
C631 C633 1.419 . S
C632 C630 1.415 . S
C632 C637 1.425 . S
C632 C639 1.409 . S
C633 H625 0.930 . S
C633 C631 1.419 . S
C633 C634 1.362 . S
C634 H626 0.930 . S
C634 C633 1.362 . S
C634 C637 1.409 . S
C635 H627 0.930 . S
C635 C636 1.355 . S
C635 C637 1.415 . S
C636 C635 1.355 . S
C636 C638 1.419 . S
C637 C632 1.425 . S
C637 C634 1.409 . S
C637 C635 1.415 . S
C638 H628 0.930 . S
C638 C636 1.419 . S
C638 C639 1.362 . S
C639 H629 0.930 . S
C639 C632 1.409 . S
C639 C638 1.362 . S
H640 C646 0.930 . S
H641 C649 0.930 . S
H642 C650 0.930 . S
H643 C651 0.930 . S
H644 C654 0.930 . S
H645 C655 0.930 . S
C646 H640 0.930 . S
C646 C647 1.355 . S
C646 C648 1.415 . S
C647 C646 1.355 . S
C647 C649 1.419 . S
C648 C646 1.415 . S
C648 C653 1.425 . S
C648 C655 1.409 . S
C649 H641 0.930 . S
C649 C647 1.419 . S
C649 C650 1.362 . S
C650 H642 0.930 . S
C650 C649 1.362 . S
C650 C653 1.409 . S
C651 H643 0.930 . S
C651 C652 1.355 . S
C651 C653 1.415 . S
C652 C651 1.355 . S
C652 C654 1.419 . S
C653 C648 1.425 . S
C653 C650 1.409 . S
C653 C651 1.415 . S
C654 H644 0.930 . S
C654 C652 1.419 . S
C654 C655 1.362 . S
C655 H645 0.930 . S
C655 C648 1.409 . S
C655 C654 1.362 . S
H656 C662 0.930 . S
H657 C665 0.930 . S
H658 C666 0.930 . S
H659 C667 0.930 . S
H660 C670 0.930 . S
H661 C671 0.930 . S
C662 H656 0.930 . S
C662 C663 1.355 . S
C662 C664 1.415 . S
C663 C662 1.355 . S
C663 C665 1.419 . S
C664 C662 1.415 . S
C664 C669 1.425 . S
C664 C671 1.409 . S
C665 H657 0.930 . S
C665 C663 1.419 . S
C665 C666 1.362 . S
C666 H658 0.930 . S
C666 C665 1.362 . S
C666 C669 1.409 . S
C667 H659 0.930 . S
C667 C668 1.355 . S
C667 C669 1.415 . S
C668 C667 1.355 . S
C668 C670 1.419 . S
C669 C664 1.425 . S
C669 C666 1.409 . S
C669 C667 1.415 . S
C670 H660 0.930 . S
C670 C668 1.419 . S
C670 C671 1.362 . S
C671 H661 0.930 . S
C671 C664 1.409 . S
C671 C670 1.362 . S
H672 C678 0.930 . S
H673 C681 0.930 . S
H674 C682 0.930 . S
H675 C683 0.930 . S
H676 C686 0.930 . S
H677 C687 0.930 . S
C678 H672 0.930 . S
C678 C679 1.355 . S
C678 C680 1.415 . S
C679 C678 1.355 . S
C679 C681 1.419 . S
C680 C678 1.415 . S
C680 C685 1.425 . S
C680 C687 1.409 . S
C681 H673 0.930 . S
C681 C679 1.419 . S
C681 C682 1.362 . S
C682 H674 0.930 . S
C682 C681 1.362 . S
C682 C685 1.409 . S
C683 H675 0.930 . S
C683 C684 1.355 . S
C683 C685 1.415 . S
C684 C683 1.355 . S
C684 C686 1.419 . S
C685 C680 1.425 . S
C685 C682 1.409 . S
C685 C683 1.415 . S
C686 H676 0.930 . S
C686 C684 1.419 . S
C686 C687 1.362 . S
C687 H677 0.930 . S
C687 C680 1.409 . S
C687 C686 1.362 . S
H688 C694 0.930 . S
H689 C697 0.930 . S
H690 C698 0.930 . S
H691 C699 0.930 . S
H692 C702 0.930 . S
H693 C703 0.930 . S
C694 H688 0.930 . S
C694 C695 1.355 . S
C694 C696 1.415 . S
C695 C694 1.355 . S
C695 C697 1.419 . S
C696 C694 1.415 . S
C696 C701 1.425 . S
C696 C703 1.409 . S
C697 H689 0.930 . S
C697 C695 1.419 . S
C697 C698 1.362 . S
C698 H690 0.930 . S
C698 C697 1.362 . S
C698 C701 1.409 . S
C699 H691 0.930 . S
C699 C700 1.355 . S
C699 C701 1.415 . S
C700 C699 1.355 . S
C700 C702 1.419 . S
C701 C696 1.425 . S
C701 C698 1.409 . S
C701 C699 1.415 . S
C702 H692 0.930 . S
C702 C700 1.419 . S
C702 C703 1.362 . S
C703 H693 0.930 . S
C703 C696 1.409 . S
C703 C702 1.362 . S
H704 C710 0.930 . S
H705 C713 0.930 . S
H706 C714 0.930 . S
H707 C715 0.930 . S
H708 C718 0.930 . S
H709 C719 0.930 . S
C710 H704 0.930 . S
C710 C711 1.355 . S
C710 C712 1.415 . S
C711 C710 1.355 . S
C711 C713 1.419 . S
C712 C710 1.415 . S
C712 C717 1.425 . S
C712 C719 1.409 . S
C713 H705 0.930 . S
C713 C711 1.419 . S
C713 C714 1.362 . S
C714 H706 0.930 . S
C714 C713 1.362 . S
C714 C717 1.409 . S
C715 H707 0.930 . S
C715 C716 1.355 . S
C715 C717 1.415 . S
C716 C715 1.355 . S
C716 C718 1.419 . S
C717 C712 1.425 . S
C717 C714 1.409 . S
C717 C715 1.415 . S
C718 H708 0.930 . S
C718 C716 1.419 . S
C718 C719 1.362 . S
C719 H709 0.930 . S
C719 C712 1.409 . S
C719 C718 1.362 . S
C343 C29 1.567 . S
C348 C275 1.499 . S
C359 C49 1.254 . S
C364 C278 1.235 . S
C380 C314 1.815 . S
C375 C93 1.789 . S
C391 C119 1.635 . S
C396 C334 1.640 . S
C412 C288 1.601 . S
C407 C17 1.660 . S
C428 C265 1.518 . S
C423 C61 1.478 . S
C444 C318 1.599 . S
C439 C81 1.675 . S
C460 C298 1.437 . S
C455 C125 1.494 . S
C471 C23 1.356 . S
C476 C328 1.244 . S
C492 C294 1.596 . S
C487 C87 1.616 . S
C503 C113 1.640 . S
C508 C260 1.626 . S
C519 C55 1.306 . S
C524 C308 1.281 . S
C540 C274 1.478 . S
C535 C157 1.426 . S
C551 C189 1.270 . S
C556 C280 1.207 . S
C567 C221 1.764 . S
C572 C315 1.751 . S
C583 C253 1.682 . S
C588 C335 1.654 . S
C599 C145 1.659 . S
C604 C285 1.667 . S
C620 C268 1.447 . S
C615 C183 1.476 . S
C636 C320 1.607 . S
C631 C209 1.643 . S
C652 C300 1.404 . S
C647 C247 1.484 . S
C663 C151 1.246 . S
C668 C325 1.241 . S
C684 C295 1.600 . S
C679 C215 1.607 . S
C700 C258 1.625 . S
C695 C241 1.611 . S
C711 C177 1.301 . S
C716 C305 1.350 . S
