# Generated by pormake.
# Topology ant, (3,6)-cn, num edge types: 1
# Building blocks:
#     Node 0, Type 0, BuildingBlock: PAMTOO_clean_linker_0, # of connection points: 3
#     Node 1, Type 0, BuildingBlock: PAMTOO_clean_linker_0, # of connection points: 3
#     Node 2, Type 0, BuildingBlock: PAMTOO_clean_linker_0, # of connection points: 3
#     Node 3, Type 0, BuildingBlock: PAMTOO_clean_linker_0, # of connection points: 3
#     Node 4, Type 0, BuildingBlock: PAMTOO_clean_linker_0, # of connection points: 3
#     Node 5, Type 0, BuildingBlock: PAMTOO_clean_linker_0, # of connection points: 3
#     Node 6, Type 0, BuildingBlock: PAMTOO_clean_linker_0, # of connection points: 3
#     Node 7, Type 0, BuildingBlock: PAMTOO_clean_linker_0, # of connection points: 3
#     Node 8, Type 1, BuildingBlock: MIDCAF_clean_sbu_0, # of connection points: 6
#     Node 9, Type 1, BuildingBlock: MIDCAF_clean_sbu_0, # of connection points: 6
#     Node 10, Type 1, BuildingBlock: MIDCAF_clean_sbu_0, # of connection points: 6
#     Node 11, Type 1, BuildingBlock: MIDCAF_clean_sbu_0, # of connection points: 6
#     Edge 12, Type (0, 1), BuildingBlock: XIVTED_clean_linker_0, # of connection points: 2
#     Edge 13, Type (0, 1), BuildingBlock: XIVTED_clean_linker_0, # of connection points: 2
#     Edge 14, Type (0, 1), BuildingBlock: XIVTED_clean_linker_0, # of connection points: 2
#     Edge 15, Type (0, 1), BuildingBlock: XIVTED_clean_linker_0, # of connection points: 2
#     Edge 16, Type (0, 1), BuildingBlock: XIVTED_clean_linker_0, # of connection points: 2
#     Edge 17, Type (0, 1), BuildingBlock: XIVTED_clean_linker_0, # of connection points: 2
#     Edge 18, Type (0, 1), BuildingBlock: XIVTED_clean_linker_0, # of connection points: 2
#     Edge 19, Type (0, 1), BuildingBlock: XIVTED_clean_linker_0, # of connection points: 2
#     Edge 20, Type (0, 1), BuildingBlock: XIVTED_clean_linker_0, # of connection points: 2
#     Edge 21, Type (0, 1), BuildingBlock: XIVTED_clean_linker_0, # of connection points: 2
#     Edge 22, Type (0, 1), BuildingBlock: XIVTED_clean_linker_0, # of connection points: 2
#     Edge 23, Type (0, 1), BuildingBlock: XIVTED_clean_linker_0, # of connection points: 2
#     Edge 24, Type (0, 1), BuildingBlock: XIVTED_clean_linker_0, # of connection points: 2
#     Edge 25, Type (0, 1), BuildingBlock: XIVTED_clean_linker_0, # of connection points: 2
#     Edge 26, Type (0, 1), BuildingBlock: XIVTED_clean_linker_0, # of connection points: 2
#     Edge 27, Type (0, 1), BuildingBlock: XIVTED_clean_linker_0, # of connection points: 2
#     Edge 28, Type (0, 1), BuildingBlock: XIVTED_clean_linker_0, # of connection points: 2
#     Edge 29, Type (0, 1), BuildingBlock: XIVTED_clean_linker_0, # of connection points: 2
#     Edge 30, Type (0, 1), BuildingBlock: XIVTED_clean_linker_0, # of connection points: 2
#     Edge 31, Type (0, 1), BuildingBlock: XIVTED_clean_linker_0, # of connection points: 2
#     Edge 32, Type (0, 1), BuildingBlock: XIVTED_clean_linker_0, # of connection points: 2
#     Edge 33, Type (0, 1), BuildingBlock: XIVTED_clean_linker_0, # of connection points: 2
#     Edge 34, Type (0, 1), BuildingBlock: XIVTED_clean_linker_0, # of connection points: 2
#     Edge 35, Type (0, 1), BuildingBlock: XIVTED_clean_linker_0, # of connection points: 2
# Relax obj value: 0.057
# Max RMSD: 0.149
# Mean RMSD: 0.093
data_MOF--net-ant--node1-MIDCAF_clean_sbu_0--node2-PAMTOO_clean_linker_0--edge1-XIVTED_clean_linker_0
_symmetry_space_group_name_H-M    P1
_symmetry_Int_Tables_number       1
_symmetry_cell_setting            triclinic
loop_
_symmetry_equiv_pos_as_xyz
'x, y, z'
_cell_length_a     28.828577
_cell_length_b     28.580793
_cell_length_c     70.520258
_cell_angle_alpha  86.366894
_cell_angle_beta   98.805051
_cell_angle_gamma 90.371561
loop_
_atom_site_label
_atom_site_type_symbol
_atom_site_fract_x
_atom_site_fract_y
_atom_site_fract_z
_atom_type_partial_charge
H0 H 0.22749 0.1084 0.05436 0.0
H1 H 0.18472 0.25238 0.042 0.0
H2 H 0.25836 0.20785 0.09788 0.0
H3 H 0.18064 0.28321 0.09716 0.0
C4 C 0.18297 0.29921 0.08255 0.0
O5 O 0.22042 0.27989 0.07568 0.0
H6 H 0.14972 0.29184 0.07292 0.0
C7 C 0.22606 0.14395 0.0588 0.0
C8 C 0.24627 0.15397 0.07748 0.0
C9 C 0.20332 0.1788 0.04593 0.0
C10 C 0.20098 0.22456 0.05191 0.0
C11 C 0.22069 0.23507 0.07059 0.0
C12 C 0.24289 0.1996 0.0835 0.0
H13 H 0.16903 0.81581 0.28493 0.0
H14 H 0.02154 0.81228 0.28821 0.0
H15 H 0.11903 0.85507 0.33633 0.0
H16 H 0.03575 0.80145 0.3494 0.0
C17 C 0.01606 0.80091 0.33458 0.0
O18 O 0.0304 0.83816 0.32344 0.0
H19 H 0.02394 0.76693 0.32879 0.0
C20 C 0.14049 0.82209 0.29284 0.0
C21 C 0.15014 0.83793 0.31152 0.0
C22 C 0.09437 0.81303 0.28435 0.0
C23 C 0.05726 0.8198 0.29456 0.0
C24 C 0.06632 0.83431 0.31336 0.0
C25 C 0.11258 0.8436 0.32181 0.0
H26 H 0.73908 0.61019 0.55544 0.0
H27 H 0.69644 0.75418 0.54305 0.0
H28 H 0.7666 0.70885 0.59942 0.0
H29 H 0.68719 0.78259 0.59769 0.0
C30 C 0.69151 0.80006 0.58352 0.0
O31 O 0.72978 0.78116 0.57709 0.0
H32 H 0.65914 0.79405 0.57315 0.0
C33 C 0.7373 0.64564 0.55994 0.0
C34 C 0.7562 0.65535 0.57881 0.0
C35 C 0.7152 0.68065 0.54696 0.0
C36 C 0.71227 0.72627 0.55302 0.0
C37 C 0.73072 0.73648 0.57187 0.0
C38 C 0.75221 0.70084 0.58489 0.0
H39 H 0.6667 0.33228 0.78325 0.0
H40 H 0.52197 0.31434 0.78991 0.0
H41 H 0.6231 0.34781 0.83841 0.0
H42 H 0.54059 0.28585 0.85013 0.0
C43 C 0.51989 0.29037 0.83548 0.0
O44 O 0.53414 0.33085 0.82628 0.0
H45 H 0.52636 0.25913 0.82755 0.0
C46 C 0.6394 0.33341 0.79222 0.0
C47 C 0.65117 0.34212 0.8118 0.0
C48 C 0.5931 0.32324 0.78424 0.0
C49 C 0.55786 0.32228 0.79588 0.0
C50 C 0.56875 0.33128 0.81533 0.0
C51 C 0.61525 0.34101 0.82332 0.0
H52 H 0.08957 0.80283 0.94742 0.0
H53 H 0.05865 0.66295 0.92976 0.0
H54 H 0.02576 0.78051 0.88928 0.0
H55 H 0.95989 0.69283 0.87747 0.0
C56 C 0.97786 0.67435 0.89091 0.0
O57 O 0.02394 0.68922 0.89431 0.0
H58 H 0.95838 0.68318 0.90271 0.0
C59 C 0.07664 0.77941 0.93631 0.0
C60 C 0.05764 0.79816 0.91782 0.0
C61 C 0.07684 0.73065 0.94085 0.0
C62 C 0.05847 0.70056 0.92659 0.0
C63 C 0.04015 0.71867 0.90809 0.0
C64 C 0.03975 0.76718 0.90374 0.0
H65 H 0.60952 0.82976 0.20219 0.0
H66 H 0.75361 0.81033 0.19582 0.0
H67 H 0.64996 0.83539 0.14564 0.0
H68 H 0.7329 0.77106 0.13822 0.0
C69 C 0.75346 0.77762 0.15245 0.0
O70 O 0.73931 0.81975 0.15834 0.0
H71 H 0.74678 0.74812 0.1628 0.0
C72 C 0.6362 0.8295 0.19292 0.0
C73 C 0.6233 0.83467 0.17282 0.0
C74 C 0.68291 0.82082 0.2013 0.0
C75 C 0.71746 0.81746 0.18952 0.0
C76 C 0.70545 0.82278 0.16951 0.0
C77 C 0.65858 0.83137 0.16115 0.0
H78 H 0.59708 0.30759 0.44961 0.0
H79 H 0.56457 0.16876 0.43105 0.0
H80 H 0.53107 0.28801 0.39151 0.0
H81 H 0.46426 0.19987 0.37942 0.0
C82 C 0.48265 0.18159 0.39282 0.0
O83 O 0.52874 0.19655 0.39592 0.0
H84 H 0.4636 0.19066 0.40472 0.0
C85 C 0.58359 0.28473 0.43838 0.0
C86 C 0.56416 0.30433 0.42007 0.0
C87 C 0.58355 0.23584 0.44257 0.0
C88 C 0.56453 0.20646 0.42815 0.0
C89 C 0.54566 0.22539 0.40984 0.0
C90 C 0.54546 0.27404 0.40583 0.0
H91 H 0.11344 0.33426 0.70319 0.0
H92 H 0.25724 0.31793 0.69581 0.0
H93 H 0.15157 0.34202 0.64623 0.0
H94 H 0.23355 0.27962 0.63797 0.0
C95 C 0.25519 0.28599 0.65201 0.0
O96 O 0.24138 0.32777 0.65832 0.0
H97 H 0.24958 0.25615 0.66237 0.0
C98 C 0.1397 0.33482 0.6937 0.0
C99 C 0.12598 0.34009 0.67365 0.0
C100 C 0.18675 0.32701 0.70178 0.0
C101 C 0.22085 0.32456 0.68974 0.0
C102 C 0.20803 0.3301 0.66976 0.0
C103 C 0.16082 0.3379 0.66172 0.0
Zn104 Zn 0.23309 0.68449 0.14874 0.0
Zn105 Zn 0.13966 0.79772 0.09437 0.0
Zn106 Zn 0.1849 0.73836 0.12067 0.0
C107 C 0.15178 0.71451 0.07668 0.0
C108 C 0.22259 0.84136 0.10709 0.0
O109 O 0.14456 0.73232 0.14508 0.0
O110 O 0.18654 0.68382 0.16667 0.0
C111 C 0.21621 0.63181 0.11592 0.0
O112 O 0.17265 0.70101 0.09362 0.0
O113 O 0.13413 0.755 0.07336 0.0
O114 O 0.18646 0.84843 0.09472 0.0
O115 O 0.22759 0.80279 0.1177 0.0
O116 O 0.23706 0.63006 0.13306 0.0
O117 O 0.19412 0.66937 0.10855 0.0
O118 O 0.255 0.77007 0.12992 0.0
O119 O 0.28966 0.72423 0.1544 0.0
C120 C 0.29043 0.7601 0.14307 0.0
O121 O 0.11588 0.75585 0.12936 0.0
O122 O 0.08344 0.80726 0.10649 0.0
C123 C 0.15096 0.70982 0.16171 0.0
C124 C 0.08135 0.78302 0.12192 0.0
Zn125 Zn 0.53843 0.70633 0.34254 0.0
Zn126 Zn 0.63992 0.79854 0.39522 0.0
Zn127 Zn 0.58742 0.75253 0.37006 0.0
C128 C 0.55624 0.84739 0.388 0.0
C129 C 0.69087 0.79866 0.36602 0.0
O130 O 0.57595 0.67908 0.38193 0.0
O131 O 0.5308 0.64722 0.35794 0.0
C132 C 0.48451 0.78421 0.34852 0.0
O133 O 0.54766 0.81617 0.37549 0.0
O134 O 0.59421 0.84601 0.39959 0.0
O135 O 0.69169 0.81892 0.38143 0.0
O136 O 0.65559 0.77258 0.35997 0.0
O137 O 0.48503 0.75132 0.33741 0.0
O138 O 0.51934 0.79005 0.36196 0.0
O139 O 0.62496 0.75319 0.3449 0.0
O140 O 0.58402 0.70799 0.32413 0.0
C141 C 0.61897 0.73402 0.32863 0.0
O142 O 0.60127 0.70516 0.39631 0.0
O143 O 0.65323 0.74637 0.41476 0.0
C144 C 0.55243 0.64384 0.37495 0.0
C145 C 0.62962 0.70946 0.41208 0.0
Zn146 Zn 0.64466 0.3004 0.5946 0.0
Zn147 Zn 0.73216 0.18774 0.6516 0.0
Zn148 Zn 0.68794 0.24095 0.62165 0.0
C149 C 0.79251 0.2613 0.64501 0.0
C150 C 0.7165 0.13287 0.61899 0.0
O151 O 0.61782 0.25987 0.62894 0.0
O152 O 0.58607 0.30949 0.60524 0.0
C153 C 0.72751 0.3433 0.60845 0.0
O154 O 0.75808 0.27138 0.63142 0.0
O155 O 0.78995 0.22646 0.65673 0.0
O156 O 0.73434 0.13174 0.63653 0.0
O157 O 0.69712 0.17082 0.61058 0.0
O158 O 0.69153 0.35115 0.59607 0.0
O159 O 0.73202 0.30437 0.61882 0.0
O160 O 0.67754 0.20206 0.59505 0.0
O161 O 0.64316 0.25688 0.574 0.0
C162 C 0.65937 0.2159 0.57778 0.0
O163 O 0.64581 0.23864 0.6454 0.0
O164 O 0.68412 0.19203 0.6688 0.0
C165 C 0.58317 0.2861 0.6208 0.0
C166 C 0.6498 0.21881 0.66252 0.0
Zn167 Zn 0.03956 0.20125 0.84027 0.0
Zn168 Zn 0.13887 0.29189 0.89457 0.0
Zn169 Zn 0.08771 0.24639 0.86855 0.0
C170 C 0.12512 0.20294 0.91104 0.0
C171 C 0.05568 0.34158 0.88604 0.0
O172 O 0.12714 0.24773 0.84395 0.0
O173 O 0.08653 0.20419 0.82242 0.0
C174 C 0.05257 0.13767 0.87246 0.0
O175 O 0.09908 0.19858 0.89471 0.0
O176 O 0.14829 0.23988 0.91432 0.0
O177 O 0.09333 0.34059 0.89782 0.0
O178 O 0.04757 0.30996 0.87369 0.0
O179 O 0.03187 0.14149 0.8553 0.0
O180 O 0.07547 0.17281 0.87985 0.0
O181 O 0.01978 0.284 0.85998 0.0
O182 O 0.98597 0.24616 0.83509 0.0
C183 C 0.98518 0.27864 0.84637 0.0
O184 O 0.15716 0.26598 0.85947 0.0
O185 O 0.19296 0.31016 0.88183 0.0
C186 C 0.12175 0.22945 0.8275 0.0
C187 C 0.19283 0.29074 0.86626 0.0
H188 H 0.12221 0.37128 0.06744 0.0
H189 H 0.28569 0.5674 0.11914 0.0
H190 H 0.2588 0.34528 0.10079 0.0
H191 H 0.14593 0.59722 0.0894 0.0
H192 H 0.28021 0.48866 0.1078 0.0
H193 H 0.13299 0.45565 0.07141 0.0
C194 C 0.15466 0.38346 0.07543 0.0
C195 C 0.18984 0.3514 0.08374 0.0
C196 C 0.25082 0.51239 0.1035 0.0
C197 C 0.20235 0.44759 0.08837 0.0
C198 C 0.25404 0.55752 0.10991 0.0
C199 C 0.21603 0.58872 0.10535 0.0
C200 C 0.20896 0.49777 0.09264 0.0
C201 C 0.17604 0.57421 0.09322 0.0
C202 C 0.16079 0.43154 0.07768 0.0
C203 C 0.231 0.36888 0.09408 0.0
N204 N 0.17321 0.5294 0.08751 0.0
N205 N 0.23604 0.41567 0.09613 0.0
H206 H 0.96893 0.87341 0.3467 0.0
H207 H 0.72753 0.73335 0.34544 0.0
H208 H 0.94626 0.73656 0.32466 0.0
H209 H 0.75036 0.87262 0.36512 0.0
H210 H 0.80375 0.73708 0.33404 0.0
H211 H 0.88594 0.87685 0.35038 0.0
C212 C 0.94621 0.84434 0.34246 0.0
C213 C 0.96429 0.80472 0.33538 0.0
C214 C 0.79175 0.76711 0.34058 0.0
C215 C 0.86949 0.8079 0.33974 0.0
C216 C 0.74802 0.76515 0.3469 0.0
C217 C 0.73254 0.80282 0.35614 0.0
C218 C 0.82033 0.80682 0.34376 0.0
C219 C 0.76106 0.84272 0.35813 0.0
C220 C 0.89889 0.8462 0.34456 0.0
C221 C 0.9336 0.76776 0.33018 0.0
N222 N 0.80366 0.84351 0.35216 0.0
N223 N 0.88775 0.77008 0.33258 0.0
H224 H 0.82907 0.60068 0.57333 0.0
H225 H 0.73855 0.3961 0.63935 0.0
H226 H 0.73162 0.61975 0.61283 0.0
H227 H 0.7871 0.38045 0.58533 0.0
H228 H 0.76762 0.47713 0.63919 0.0
H229 H 0.84573 0.52133 0.58776 0.0
C230 C 0.81254 0.58866 0.58556 0.0
C231 C 0.77832 0.61624 0.59172 0.0
C232 C 0.77359 0.45533 0.62778 0.0
C233 C 0.79645 0.52547 0.60799 0.0
C234 C 0.75747 0.40907 0.62795 0.0
C235 C 0.76047 0.38206 0.61228 0.0
C236 C 0.79296 0.47413 0.61186 0.0
C237 C 0.78427 0.40043 0.59765 0.0
C238 C 0.82187 0.54337 0.59371 0.0
C239 C 0.75798 0.59932 0.60762 0.0
N240 N 0.79905 0.44564 0.59764 0.0
N241 N 0.76649 0.55443 0.61494 0.0
H242 H 0.71826 0.3921 0.79552 0.0
H243 H 0.93294 0.29857 0.87417 0.0
H244 H 0.69903 0.30862 0.84691 0.0
H245 H 0.93881 0.32125 0.81361 0.0
H246 H 0.85121 0.32737 0.86834 0.0
H247 H 0.80289 0.39112 0.80635 0.0
C248 C 0.7317 0.37394 0.80918 0.0
C249 C 0.70137 0.34935 0.82006 0.0
C250 C 0.87092 0.32711 0.85645 0.0
C251 C 0.79842 0.349 0.8327 0.0
C252 C 0.91753 0.31116 0.85979 0.0
C253 C 0.94226 0.30743 0.8443 0.0
C254 C 0.84964 0.34014 0.83758 0.0
C255 C 0.92071 0.3235 0.82589 0.0
C256 C 0.78002 0.37366 0.81539 0.0
C257 C 0.72093 0.32785 0.83797 0.0
N258 N 0.87557 0.33889 0.82302 0.0
N259 N 0.7683 0.32763 0.84363 0.0
H260 H 0.97339 0.6259 0.85816 0.0
H261 H 0.03105 0.38111 0.91686 0.0
H262 H 0.98198 0.60482 0.91962 0.0
H263 H 0.01245 0.39604 0.85499 0.0
H264 H 1.00053 0.46021 0.91747 0.0
H265 H 0.97786 0.54065 0.85596 0.0
C266 C 0.97556 0.60314 0.87114 0.0
C267 C 0.97686 0.62213 0.88908 0.0
C268 C 1.00215 0.44611 0.90369 0.0
C269 C 0.9825 0.52493 0.88676 0.0
C270 C 0.01922 0.40076 0.90335 0.0
C271 C 0.02445 0.38228 0.88586 0.0
C272 C 0.99118 0.47374 0.88641 0.0
C273 C 0.00878 0.40909 0.86876 0.0
C274 C 0.97803 0.55458 0.8699 0.0
C275 C 0.98044 0.5914 0.90552 0.0
N276 N 0.99374 0.45399 0.86946 0.0
N277 N 0.98334 0.5444 0.90397 0.0
H278 H 0.82354 0.71393 0.16695 0.0
H279 H 0.02066 0.85618 0.11896 0.0
H280 H 0.79955 0.84523 0.13336 0.0
H281 H 0.04171 0.71448 0.14358 0.0
H282 H 0.94314 0.85668 0.12864 0.0
H283 H 0.90635 0.71685 0.16246 0.0
C284 C 0.83588 0.74356 0.15877 0.0
C285 C 0.80489 0.77968 0.15066 0.0
C286 C 0.96475 0.82555 0.13212 0.0
C287 C 0.89923 0.78317 0.14541 0.0
C288 C 0.00914 0.82529 0.12664 0.0
C289 C 0.03767 0.78519 0.13046 0.0
C290 C 0.94834 0.78527 0.14138 0.0
C291 C 0.021 0.74626 0.14053 0.0
C292 C 0.88304 0.74517 0.1562 0.0
C293 C 0.82244 0.81697 0.14001 0.0
N294 N 0.97718 0.74711 0.14552 0.0
N295 N 0.86838 0.81776 0.13772 0.0
H296 H 0.63184 0.37035 0.43092 0.0
H297 H 0.48075 0.58183 0.37258 0.0
H298 H 0.49171 0.35701 0.39996 0.0
H299 H 0.62197 0.60041 0.40149 0.0
H300 H 0.48232 0.50103 0.38577 0.0
H301 H 0.62757 0.45535 0.42319 0.0
C302 C 0.60006 0.38526 0.42262 0.0
C303 C 0.56221 0.35625 0.41594 0.0
C304 C 0.51292 0.5227 0.38948 0.0
C305 C 0.55717 0.45357 0.40704 0.0
C306 C 0.51195 0.56902 0.38199 0.0
C307 C 0.55129 0.59796 0.38594 0.0
C308 C 0.55381 0.50452 0.40088 0.0
C309 C 0.59069 0.57947 0.39827 0.0
C310 C 0.59774 0.43379 0.41817 0.0
C311 C 0.52212 0.37764 0.40512 0.0
N312 N 0.5912 0.53367 0.40513 0.0
N313 N 0.52076 0.42475 0.401 0.0
H314 H 0.05696 0.38717 0.68777 0.0
H315 H 0.84068 0.29246 0.61613 0.0
H316 H 0.07794 0.30231 0.64121 0.0
H317 H 0.84465 0.29012 0.67754 0.0
H318 H 0.92132 0.3238 0.62015 0.0
H319 H 0.97219 0.37952 0.67856 0.0
C320 C 0.04393 0.36733 0.67549 0.0
C321 C 0.07498 0.34414 0.66564 0.0
C322 C 0.90397 0.31725 0.63264 0.0
C323 C 0.97776 0.33691 0.65467 0.0
C324 C 0.85809 0.29974 0.63037 0.0
C325 C 0.83642 0.28848 0.64658 0.0
C326 C 0.9274 0.32468 0.65116 0.0
C327 C 0.86041 0.2981 0.66473 0.0
C328 C 0.99552 0.36334 0.6702 0.0
C329 C 0.05564 0.3206 0.64934 0.0
N330 N 0.90464 0.31564 0.66654 0.0
N331 N 0.00821 0.31714 0.64448 0.0
H332 H 0.2981 0.35267 0.63121 0.0
H333 H 0.54543 0.21972 0.64403 0.0
H334 H 0.32725 0.22458 0.66659 0.0
H335 H 0.51876 0.35662 0.61511 0.0
H336 H 0.46749 0.22164 0.65388 0.0
H337 H 0.38008 0.35526 0.62599 0.0
C338 C 0.32201 0.32532 0.63799 0.0
C339 C 0.30612 0.28864 0.64945 0.0
C340 C 0.47895 0.25147 0.64556 0.0
C341 C 0.39986 0.29079 0.64339 0.0
C342 C 0.52362 0.25055 0.6401 0.0
C343 C 0.53875 0.28818 0.62884 0.0
C344 C 0.44909 0.29005 0.6395 0.0
C345 C 0.50849 0.32673 0.62372 0.0
C346 C 0.36877 0.32672 0.63503 0.0
C347 C 0.33827 0.25364 0.65774 0.0
N348 N 0.46512 0.32652 0.62897 0.0
N349 N 0.3836 0.25547 0.65449 0.0
H350 H 0.55491 0.88416 0.18628 0.0
H351 H 0.33895 0.78998 0.11418 0.0
H352 H 0.57534 0.79732 0.14027 0.0
H353 H 0.34075 0.79209 0.17533 0.0
H354 H 0.41974 0.82095 0.1183 0.0
H355 H 0.47011 0.87871 0.17655 0.0
C356 C 0.54176 0.86435 0.17401 0.0
C357 C 0.5726 0.83994 0.16447 0.0
C358 C 0.40185 0.8156 0.13069 0.0
C359 C 0.47539 0.83518 0.1529 0.0
C360 C 0.35586 0.79834 0.12835 0.0
C361 C 0.33361 0.78834 0.14449 0.0
C362 C 0.42479 0.82399 0.1492 0.0
C363 C 0.35697 0.79919 0.16258 0.0
C364 C 0.49334 0.86162 0.16841 0.0
C365 C 0.55319 0.81649 0.14816 0.0
N366 N 0.40135 0.81637 0.16447 0.0
N367 N 0.50574 0.81422 0.14302 0.0
H368 H 0.47555 0.35904 0.85132 0.0
H369 H 0.22905 0.22634 0.84506 0.0
H370 H 0.44821 0.22917 0.8238 0.0
H371 H 0.25521 0.36252 0.86748 0.0
H372 H 0.30639 0.229 0.83457 0.0
H373 H 0.39293 0.36286 0.85545 0.0
C374 C 0.4519 0.33155 0.84602 0.0
C375 C 0.46853 0.29391 0.83715 0.0
C376 C 0.2949 0.2586 0.84153 0.0
C377 C 0.37403 0.29752 0.84199 0.0
C378 C 0.25053 0.2573 0.84731 0.0
C379 C 0.23557 0.29441 0.85702 0.0
C380 C 0.32462 0.29704 0.84572 0.0
C381 C 0.26541 0.33308 0.86008 0.0
C382 C 0.40477 0.33367 0.84836 0.0
C383 C 0.43667 0.25888 0.83067 0.0
N384 N 0.30855 0.33322 0.8546 0.0
N385 N 0.39097 0.26139 0.83331 0.0
H386 H 0.19437 0.81239 0.34817 0.0
H387 H 0.44389 0.83314 0.3163 0.0
H388 H 0.21919 0.88201 0.29458 0.0
H389 H 0.4268 0.79754 0.37506 0.0
H390 H 0.36285 0.86096 0.3096 0.0
H391 H 0.27886 0.81516 0.35997 0.0
C392 C 0.21741 0.82912 0.33903 0.0
C393 C 0.19974 0.84615 0.3202 0.0
C394 C 0.37687 0.84815 0.32411 0.0
C395 C 0.29646 0.84893 0.33352 0.0
C396 C 0.42327 0.83259 0.32794 0.0
C397 C 0.4418 0.81322 0.34623 0.0
C398 C 0.34823 0.84285 0.33854 0.0
C399 C 0.41366 0.81263 0.3608 0.0
C400 C 0.26569 0.83058 0.34576 0.0
C401 C 0.23134 0.86731 0.309 0.0
N402 N 0.36779 0.82618 0.35654 0.0
N403 N 0.27808 0.86746 0.31571 0.0
H404 H 0.76499 0.84288 0.60481 0.0
H405 H 0.65251 0.10107 0.58928 0.0
H406 H 0.63426 0.87434 0.56777 0.0
H407 H 0.78168 0.06382 0.62653 0.0
H408 H 0.64899 0.0213 0.57781 0.0
H409 H 0.77515 0.92632 0.61002 0.0
C410 C 0.73865 0.86758 0.59766 0.0
C411 C 0.6989 0.85184 0.58582 0.0
C412 C 0.6784 0.03091 0.5883 0.0
C413 C 0.70974 0.94753 0.59184 0.0
C414 C 0.68061 0.07653 0.5947 0.0
C415 C 0.71722 0.08891 0.60899 0.0
C416 C 0.71315 0.99782 0.59624 0.0
C417 C 0.75247 0.0556 0.61568 0.0
C418 C 0.74434 0.91522 0.60062 0.0
C419 C 0.6655 0.88517 0.57698 0.0
N420 N 0.74935 0.01168 0.60939 0.0
N421 N 0.67153 0.93145 0.58025 0.0
H422 H 0.31929 0.1005 0.07133 0.0
H423 H 0.23515 0.89377 0.13812 0.0
H424 H 0.2238 0.11772 0.11177 0.0
H425 H 0.27976 0.87984 0.08322 0.0
H426 H 0.2632 0.97518 0.13781 0.0
H427 H 0.33751 0.02122 0.08554 0.0
C428 C 0.30357 0.08811 0.08372 0.0
C429 C 0.26943 0.11512 0.09022 0.0
C430 C 0.26855 0.95368 0.12622 0.0
C431 C 0.28931 0.02443 0.10625 0.0
C432 C 0.25301 0.90722 0.12647 0.0
C433 C 0.25515 0.88057 0.11062 0.0
C434 C 0.28654 0.97301 0.11005 0.0
C435 C 0.2776 0.89953 0.09568 0.0
C436 C 0.31377 0.04286 0.09175 0.0
C437 C 0.25009 0.09772 0.10631 0.0
N438 N 0.29188 0.94489 0.09562 0.0
N439 N 0.25943 0.05287 0.11351 0.0
H440 H 0.47657 0.13253 0.36017 0.0
H441 H 0.53394 0.8878 0.41907 0.0
H442 H 0.48795 0.11245 0.42176 0.0
H443 H 0.51205 0.90191 0.35715 0.0
H444 H 0.50494 0.96746 0.41979 0.0
H445 H 0.48018 0.04717 0.35814 0.0
C446 C 0.47922 0.10998 0.37322 0.0
C447 C 0.48152 0.12929 0.39114 0.0
C448 C 0.5055 0.95307 0.40599 0.0
C449 C 0.48614 0.03193 0.38901 0.0
C450 C 0.52168 0.90738 0.40559 0.0
C451 C 0.52556 0.88846 0.38804 0.0
C452 C 0.49403 0.98057 0.3887 0.0
C453 C 0.5094 0.91526 0.37098 0.0
C454 C 0.48118 0.06134 0.37207 0.0
C455 C 0.48566 0.0988 0.40767 0.0
N456 N 0.49524 0.96045 0.37173 0.0
N457 N 0.48804 0.05171 0.40621 0.0
H458 H 0.98505 0.8493 0.89707 0.0
H459 H 0.11978 0.09586 0.90045 0.0
H460 H 0.12432 0.86527 0.92848 0.0
H461 H 0.98285 0.07337 0.86813 0.0
H462 H 0.1199 0.01427 0.9139 0.0
H463 H 0.98193 0.93337 0.88882 0.0
C464 C 0.01514 0.87047 0.90217 0.0
C465 C 0.05522 0.84991 0.91331 0.0
C466 C 0.0896 0.02746 0.90406 0.0
C467 C 0.05173 0.94701 0.90404 0.0
C468 C 0.08931 0.07419 0.89657 0.0
C469 C 0.0512 0.09149 0.8832 0.0
C470 C 0.05149 0.99803 0.8981 0.0
C471 C 0.01312 0.06147 0.8783 0.0
C472 C 0.01322 0.91867 0.89756 0.0
C473 C 0.09264 0.87954 0.9199 0.0
N474 N 0.01437 0.01636 0.88564 0.0
N475 N 0.09014 0.92652 0.91506 0.0
H476 H 0.1182 0.20463 0.02497 0.0
H477 H 0.19541 0.14536 0.9281 0.0
H478 H 0.24402 0.12642 0.02183 0.0
H479 H 0.05485 0.1892 0.93201 0.0
H480 H 0.20773 0.12271 0.96246 0.0
H481 H 0.08924 0.18886 0.9915 0.0
C482 C 0.13957 0.18396 0.01725 0.0
C483 C 0.18381 0.16736 0.02608 0.0
C484 C 0.17353 0.13569 0.95577 0.0
C485 C 0.1509 0.14882 0.98791 0.0
C486 C 0.16635 0.14791 0.93609 0.0
C487 C 0.12416 0.16911 0.92739 0.0
C488 C 0.13875 0.14639 0.96679 0.0
C489 C 0.08781 0.17268 0.93831 0.0
C490 C 0.12283 0.17444 -0.00176 0.0
C491 C 0.20971 0.13993 0.01557 0.0
N492 N 0.09639 0.16287 0.95764 0.0
N493 N 0.19318 0.13211 -0.00302 0.0
H494 H 0.05326 0.85655 0.25034 0.0
H495 H 0.13113 0.64974 0.1908 0.0
H496 H 0.11762 0.7267 0.27515 0.0
H497 H 0.10654 0.79156 0.1668 0.0
H498 H 0.10194 0.67106 0.21982 0.0
H499 H 0.05043 0.8271 0.21808 0.0
C500 C 0.06588 0.82151 0.24893 0.0
C501 C 0.08599 0.79393 0.26521 0.0
C502 C 0.10193 0.69731 0.20804 0.0
C503 C 0.08276 0.76016 0.22876 0.0
C504 C 0.11834 0.68508 0.19144 0.0
C505 C 0.12153 0.71902 0.17645 0.0
C506 C 0.08914 0.74397 0.20978 0.0
C507 C 0.10439 0.76427 0.17799 0.0
C508 C 0.06438 0.8048 0.23062 0.0
C509 C 0.10212 0.74894 0.26284 0.0
N510 N 0.08965 0.77571 0.19454 0.0
N511 N 0.10041 0.73353 0.24494 0.0
H512 H 0.75755 0.62897 0.52313 0.0
H513 H 0.5603 0.68977 0.43315 0.0
H514 H 0.63055 0.70605 0.52547 0.0
H515 H 0.70404 0.65737 0.42928 0.0
H516 H 0.5753 0.66685 0.46766 0.0
H517 H 0.72834 0.61352 0.48974 0.0
C518 C 0.72321 0.64213 0.51669 0.0
C519 C 0.69665 0.66939 0.52699 0.0
C520 C 0.60307 0.66306 0.45911 0.0
C521 C 0.66306 0.65167 0.48883 0.0
C522 C 0.59429 0.67531 0.4394 0.0
C523 C 0.63115 0.67552 0.42857 0.0
C524 C 0.64891 0.65086 0.46779 0.0
C525 C 0.67483 0.65758 0.43728 0.0
C526 C 0.70659 0.63325 0.49765 0.0
C527 C 0.65252 0.68572 0.5179 0.0
N528 N 0.68283 0.64677 0.45651 0.0
N529 N 0.63722 0.67691 0.49925 0.0
H530 H 0.55351 0.24277 0.77052 0.0
H531 H 0.6129 0.30542 0.66489 0.0
H532 H 0.61057 0.37492 0.75228 0.0
H533 H 0.62058 0.16545 0.69189 0.0
H534 H 0.58207 0.33334 0.69266 0.0
H535 H 0.54952 0.21725 0.73766 0.0
C536 C 0.56405 0.26677 0.75945 0.0
C537 C 0.58281 0.31076 0.76401 0.0
C538 C 0.58936 0.29632 0.69224 0.0
C539 C 0.57805 0.28214 0.72666 0.0
C540 C 0.6065 0.28028 0.67634 0.0
C541 C 0.61956 0.23313 0.67621 0.0
C542 C 0.58505 0.26487 0.70799 0.0
C543 C 0.61124 0.20216 0.69155 0.0
C544 C 0.56192 0.25219 0.7408 0.0
C545 C 0.59633 0.34055 0.74928 0.0
N546 N 0.59497 0.21866 0.70696 0.0
N547 N 0.59399 0.32559 0.73126 0.0
H548 H 0.0345 0.66654 0.96306 0.0
H549 H 0.22262 0.7037 0.05632 0.0
H550 H 0.15907 0.75117 0.96376 0.0
H551 H 0.07812 0.66773 0.05816 0.0
H552 H 0.21021 0.69273 0.02171 0.0
H553 H 0.06024 0.64158 -0.00306 0.0
C554 C 0.06767 0.67921 0.97026 0.0
C555 C 0.09443 0.71148 0.9607 0.0
C556 C 0.18167 0.68551 0.02981 0.0
C557 C 0.12419 0.68273 -0.00069 0.0
C558 C 0.18899 0.6909 0.04961 0.0
C559 C 0.15136 0.6863 0.06001 0.0
C560 C 0.1364 0.67547 0.02049 0.0
C561 C 0.10806 0.67112 0.05059 0.0
C562 C 0.08227 0.66498 0.98957 0.0
C563 C 0.13703 0.72689 0.97072 0.0
N564 N 0.10146 0.66702 0.03126 0.0
N565 N 0.15046 0.71262 0.98951 0.0
H566 H 0.72216 0.74222 0.22107 0.0
H567 H 0.65577 0.81965 0.32042 0.0
H568 H 0.66707 0.87818 0.22906 0.0
H569 H 0.64839 0.6774 0.30318 0.0
H570 H 0.68966 0.84358 0.29146 0.0
H571 H 0.72438 0.72138 0.25554 0.0
C572 C 0.71188 0.76809 0.23023 0.0
C573 C 0.694 0.81174 0.22234 0.0
C574 C 0.68168 0.80695 0.2943 0.0
C575 C 0.69646 0.78838 0.26147 0.0
C576 C 0.66268 0.79325 0.31084 0.0
C577 C 0.64907 0.74659 0.31402 0.0
C578 C 0.68718 0.77365 0.281 0.0
C579 C 0.65814 0.7138 0.30108 0.0
C580 C 0.71292 0.75616 0.2498 0.0
C581 C 0.68068 0.84402 0.23468 0.0
N582 N 0.67625 0.72803 0.285 0.0
N583 N 0.68177 0.83155 0.25365 0.0
H584 H 0.54182 0.1705 0.46448 0.0
H585 H 0.73053 0.20659 0.55752 0.0
H586 H 0.66621 0.25548 0.46539 0.0
H587 H 0.58715 0.1666 0.55957 0.0
H588 H 0.71817 0.19619 0.52289 0.0
H589 H 0.56831 0.14397 0.49814 0.0
C590 C 0.57511 0.18292 0.47167 0.0
C591 C 0.60158 0.21576 0.46225 0.0
C592 C 0.6899 0.18794 0.53104 0.0
C593 C 0.63218 0.18526 0.50061 0.0
C594 C 0.69723 0.19298 0.55085 0.0
C595 C 0.65983 0.18717 0.56132 0.0
C596 C 0.6448 0.17715 0.52176 0.0
C597 C 0.61692 0.17095 0.55195 0.0
C598 C 0.59014 0.1678 0.49086 0.0
C599 C 0.64436 0.23081 0.47225 0.0
N600 N 0.61022 0.16736 0.53258 0.0
N601 N 0.65817 0.2157 0.49092 0.0
H602 H 0.17264 0.38414 0.72982 0.0
H603 H 0.15242 0.17344 0.80218 0.0
H604 H 0.22552 0.24775 0.72113 0.0
H605 H 0.15962 0.31505 0.82009 0.0
H606 H 0.18759 0.19945 0.7739 0.0
H607 H 0.17571 0.36133 0.76404 0.0
C608 C 0.18603 0.34978 0.7353 0.0
C609 C 0.19859 0.31759 0.72278 0.0
C610 C 0.18269 0.22468 0.78426 0.0
C611 C 0.20101 0.29076 0.76163 0.0
C612 C 0.16257 0.20982 0.80036 0.0
C613 C 0.1529 0.24227 0.81332 0.0
C614 C 0.19174 0.27256 0.78082 0.0
C615 C 0.1666 0.28899 0.81039 0.0
C616 C 0.18786 0.33675 0.75479 0.0
C617 C 0.21558 0.27346 0.73043 0.0
N618 N 0.18434 0.30303 0.79417 0.0
N619 N 0.21528 0.26088 0.74933 0.0
loop_
_geom_bond_atom_site_label_1
_geom_bond_atom_site_label_2
_geom_bond_distance
_geom_bond_site_symmetry_2
_ccdc_geom_bond_type
H0 C7 0.929 . S
H1 C10 0.930 . S
H2 C12 0.929 . S
H3 C4 0.969 . S
C4 H3 0.969 . S
C4 O5 1.550 . S
C4 H6 0.973 . S
O5 C4 1.550 . S
O5 C11 1.412 . S
H6 C4 0.973 . S
C7 H0 0.929 . S
C7 C8 1.400 . S
C7 C9 1.364 . S
C8 C7 1.400 . S
C8 C12 1.377 . S
C9 C7 1.364 . S
C9 C10 1.374 . S
C10 H1 0.930 . S
C10 C9 1.374 . S
C10 C11 1.383 . S
C11 O5 1.412 . S
C11 C10 1.383 . S
C11 C12 1.394 . S
C12 H2 0.929 . S
C12 C8 1.377 . S
C12 C11 1.394 . S
H13 C20 0.929 . S
H14 C23 0.930 . S
H15 C25 0.929 . S
H16 C17 0.969 . S
C17 H16 0.969 . S
C17 O18 1.550 . S
C17 H19 0.973 1_455 S
O18 C17 1.550 . S
O18 C24 1.412 . S
H19 C17 0.973 1_655 S
C20 H13 0.929 . S
C20 C21 1.400 . S
C20 C22 1.364 . S
C21 C20 1.400 . S
C21 C25 1.377 . S
C22 C20 1.364 . S
C22 C23 1.374 . S
C23 H14 0.930 . S
C23 C22 1.374 . S
C23 C24 1.383 . S
C24 O18 1.412 . S
C24 C23 1.383 . S
C24 C25 1.394 . S
C25 H15 0.929 . S
C25 C21 1.377 . S
C25 C24 1.394 . S
H26 C33 0.929 . S
H27 C36 0.930 . S
H28 C38 0.929 . S
H29 C30 0.969 . S
C30 H29 0.969 . S
C30 O31 1.550 . S
C30 H32 0.973 . S
O31 C30 1.550 . S
O31 C37 1.412 . S
H32 C30 0.973 . S
C33 H26 0.929 . S
C33 C34 1.400 . S
C33 C35 1.364 . S
C34 C33 1.400 . S
C34 C38 1.377 . S
C35 C33 1.364 . S
C35 C36 1.374 . S
C36 H27 0.930 . S
C36 C35 1.374 . S
C36 C37 1.383 . S
C37 O31 1.412 . S
C37 C36 1.383 . S
C37 C38 1.394 . S
C38 H28 0.929 . S
C38 C34 1.377 . S
C38 C37 1.394 . S
H39 C46 0.929 . S
H40 C49 0.930 . S
H41 C51 0.929 . S
H42 C43 0.969 . S
C43 H42 0.969 . S
C43 O44 1.550 . S
C43 H45 0.973 . S
O44 C43 1.550 . S
O44 C50 1.412 . S
H45 C43 0.973 . S
C46 H39 0.929 . S
C46 C47 1.400 . S
C46 C48 1.364 . S
C47 C46 1.400 . S
C47 C51 1.377 . S
C48 C46 1.364 . S
C48 C49 1.374 . S
C49 H40 0.930 . S
C49 C48 1.374 . S
C49 C50 1.383 . S
C50 O44 1.412 . S
C50 C49 1.383 . S
C50 C51 1.394 . S
C51 H41 0.929 . S
C51 C47 1.377 . S
C51 C50 1.394 . S
H52 C59 0.929 . S
H53 C62 0.930 . S
H54 C64 0.929 . S
H55 C56 0.982 . S
C56 H55 0.982 . S
C56 O57 1.550 . S
C56 H58 0.973 . S
O57 C56 1.550 . S
O57 C63 1.412 . S
H58 C56 0.973 . S
C59 H52 0.929 . S
C59 C60 1.400 . S
C59 C61 1.364 . S
C60 C59 1.400 . S
C60 C64 1.377 . S
C61 C59 1.364 . S
C61 C62 1.374 . S
C62 H53 0.930 . S
C62 C61 1.374 . S
C62 C63 1.383 . S
C63 O57 1.412 . S
C63 C62 1.383 . S
C63 C64 1.394 . S
C64 H54 0.929 . S
C64 C60 1.377 . S
C64 C63 1.394 . S
H65 C72 0.929 . S
H66 C75 0.930 . S
H67 C77 0.929 . S
H68 C69 0.969 . S
C69 H68 0.969 . S
C69 O70 1.550 . S
C69 H71 0.973 . S
O70 C69 1.550 . S
O70 C76 1.412 . S
H71 C69 0.973 . S
C72 H65 0.929 . S
C72 C73 1.400 . S
C72 C74 1.364 . S
C73 C72 1.400 . S
C73 C77 1.377 . S
C74 C72 1.364 . S
C74 C75 1.374 . S
C75 H66 0.930 . S
C75 C74 1.374 . S
C75 C76 1.383 . S
C76 O70 1.412 . S
C76 C75 1.383 . S
C76 C77 1.394 . S
C77 H67 0.929 . S
C77 C73 1.377 . S
C77 C76 1.394 . S
H78 C85 0.929 . S
H79 C88 0.930 . S
H80 C90 0.929 . S
H81 C82 0.969 . S
C82 H81 0.969 . S
C82 O83 1.550 . S
C82 H84 0.973 . S
O83 C82 1.550 . S
O83 C89 1.412 . S
H84 C82 0.973 . S
C85 H78 0.929 . S
C85 C86 1.400 . S
C85 C87 1.364 . S
C86 C85 1.400 . S
C86 C90 1.377 . S
C87 C85 1.364 . S
C87 C88 1.374 . S
C88 H79 0.930 . S
C88 C87 1.374 . S
C88 C89 1.383 . S
C89 O83 1.412 . S
C89 C88 1.383 . S
C89 C90 1.394 . S
C90 H80 0.929 . S
C90 C86 1.377 . S
C90 C89 1.394 . S
H91 C98 0.929 . S
H92 C101 0.930 . S
H93 C103 0.929 . S
H94 C95 0.969 . S
C95 H94 0.969 . S
C95 O96 1.550 . S
C95 H97 0.973 . S
O96 C95 1.550 . S
O96 C102 1.412 . S
H97 C95 0.973 . S
C98 H91 0.929 . S
C98 C99 1.400 . S
C98 C100 1.364 . S
C99 C98 1.400 . S
C99 C103 1.377 . S
C100 C98 1.364 . S
C100 C101 1.374 . S
C101 H92 0.930 . S
C101 C100 1.374 . S
C101 C102 1.383 . S
C102 O96 1.412 . S
C102 C101 1.383 . S
C102 C103 1.394 . S
C103 H93 0.929 . S
C103 C99 1.377 . S
C103 C102 1.394 . S
Zn104 O110 1.920 . S
Zn104 O116 1.898 . S
Zn104 O119 1.905 . S
Zn105 O113 1.905 . S
Zn105 O114 1.898 . S
Zn105 O122 1.920 . S
Zn106 O109 2.080 . S
Zn106 O112 2.114 . S
Zn106 O115 2.120 . S
Zn106 O117 2.120 . S
Zn106 O118 2.114 . S
Zn106 O121 2.080 . S
C107 O112 1.166 . S
C107 O113 1.182 . S
C108 O114 1.167 . S
C108 O115 1.299 . S
O109 Zn106 2.080 . S
O109 C123 1.305 . S
O110 Zn104 1.920 . S
O110 C123 1.234 . S
C111 O116 1.167 . S
C111 O117 1.299 . S
O112 Zn106 2.114 . S
O112 C107 1.166 . S
O113 Zn105 1.905 . S
O113 C107 1.182 . S
O114 Zn105 1.898 . S
O114 C108 1.167 . S
O115 Zn106 2.120 . S
O115 C108 1.299 . S
O116 Zn104 1.898 . S
O116 C111 1.167 . S
O117 Zn106 2.120 . S
O117 C111 1.299 . S
O118 Zn106 2.114 . S
O118 C120 1.166 . S
O119 Zn104 1.905 . S
O119 C120 1.182 . S
C120 O118 1.166 . S
C120 O119 1.182 . S
O121 Zn106 2.080 . S
O121 C124 1.305 . S
O122 Zn105 1.920 . S
O122 C124 1.234 . S
C123 O109 1.305 . S
C123 O110 1.234 . S
C124 O121 1.305 . S
C124 O122 1.234 . S
Zn125 O131 1.920 . S
Zn125 O137 1.898 . S
Zn125 O140 1.905 . S
Zn126 O134 1.905 . S
Zn126 O135 1.898 . S
Zn126 O143 1.920 . S
Zn127 O130 2.080 . S
Zn127 O133 2.114 . S
Zn127 O136 2.120 . S
Zn127 O138 2.120 . S
Zn127 O139 2.114 . S
Zn127 O142 2.080 . S
C128 O133 1.166 . S
C128 O134 1.182 . S
C129 O135 1.167 . S
C129 O136 1.299 . S
O130 Zn127 2.080 . S
O130 C144 1.305 . S
O131 Zn125 1.920 . S
O131 C144 1.234 . S
C132 O137 1.167 . S
C132 O138 1.299 . S
O133 Zn127 2.114 . S
O133 C128 1.166 . S
O134 Zn126 1.905 . S
O134 C128 1.182 . S
O135 Zn126 1.898 . S
O135 C129 1.167 . S
O136 Zn127 2.120 . S
O136 C129 1.299 . S
O137 Zn125 1.898 . S
O137 C132 1.167 . S
O138 Zn127 2.120 . S
O138 C132 1.299 . S
O139 Zn127 2.114 . S
O139 C141 1.166 . S
O140 Zn125 1.905 . S
O140 C141 1.182 . S
C141 O139 1.166 . S
C141 O140 1.182 . S
O142 Zn127 2.080 . S
O142 C145 1.305 . S
O143 Zn126 1.920 . S
O143 C145 1.234 . S
C144 O130 1.305 . S
C144 O131 1.234 . S
C145 O142 1.305 . S
C145 O143 1.234 . S
Zn146 O152 1.920 . S
Zn146 O158 1.898 . S
Zn146 O161 1.905 . S
Zn147 O155 1.905 . S
Zn147 O156 1.898 . S
Zn147 O164 1.920 . S
Zn148 O151 2.080 . S
Zn148 O154 2.114 . S
Zn148 O157 2.120 . S
Zn148 O159 2.120 . S
Zn148 O160 2.114 . S
Zn148 O163 2.080 . S
C149 O154 1.166 . S
C149 O155 1.182 . S
C150 O156 1.167 . S
C150 O157 1.299 . S
O151 Zn148 2.080 . S
O151 C165 1.305 . S
O152 Zn146 1.920 . S
O152 C165 1.234 . S
C153 O158 1.167 . S
C153 O159 1.299 . S
O154 Zn148 2.114 . S
O154 C149 1.166 . S
O155 Zn147 1.905 . S
O155 C149 1.182 . S
O156 Zn147 1.898 . S
O156 C150 1.167 . S
O157 Zn148 2.120 . S
O157 C150 1.299 . S
O158 Zn146 1.898 . S
O158 C153 1.167 . S
O159 Zn148 2.120 . S
O159 C153 1.299 . S
O160 Zn148 2.114 . S
O160 C162 1.166 . S
O161 Zn146 1.905 . S
O161 C162 1.182 . S
C162 O160 1.166 . S
C162 O161 1.182 . S
O163 Zn148 2.080 . S
O163 C166 1.305 . S
O164 Zn147 1.920 . S
O164 C166 1.234 . S
C165 O151 1.305 . S
C165 O152 1.234 . S
C166 O163 1.305 . S
C166 O164 1.234 . S
Zn167 O173 1.920 . S
Zn167 O179 1.898 . S
Zn167 O182 1.905 1_455 S
Zn168 O176 1.905 . S
Zn168 O177 1.898 . S
Zn168 O185 1.920 . S
Zn169 O172 2.080 . S
Zn169 O175 2.114 . S
Zn169 O178 2.120 . S
Zn169 O180 2.120 . S
Zn169 O181 2.114 . S
Zn169 O184 2.080 . S
C170 O175 1.166 . S
C170 O176 1.182 . S
C171 O177 1.167 . S
C171 O178 1.299 . S
O172 Zn169 2.080 . S
O172 C186 1.305 . S
O173 Zn167 1.920 . S
O173 C186 1.234 . S
C174 O179 1.167 . S
C174 O180 1.299 . S
O175 Zn169 2.114 . S
O175 C170 1.166 . S
O176 Zn168 1.905 . S
O176 C170 1.182 . S
O177 Zn168 1.898 . S
O177 C171 1.167 . S
O178 Zn169 2.120 . S
O178 C171 1.299 . S
O179 Zn167 1.898 . S
O179 C174 1.167 . S
O180 Zn169 2.120 . S
O180 C174 1.299 . S
O181 Zn169 2.114 . S
O181 C183 1.148 1_455 S
O182 Zn167 1.905 1_655 S
O182 C183 1.189 . S
C183 O181 1.148 1_655 S
C183 O182 1.189 . S
O184 Zn169 2.080 . S
O184 C187 1.305 . S
O185 Zn168 1.920 . S
O185 C187 1.234 . S
C186 O172 1.305 . S
C186 O173 1.234 . S
C187 O184 1.305 . S
C187 O185 1.234 . S
H188 C194 0.930 . S
H189 C198 0.930 . S
H190 C203 0.929 . S
H191 C201 0.929 . S
H192 C196 0.929 . S
H193 C202 0.929 . S
C194 H188 0.930 . S
C194 C195 1.367 . S
C194 C202 1.378 . S
C195 C194 1.367 . S
C195 C203 1.433 . S
C196 H192 0.929 . S
C196 C198 1.378 . S
C196 C200 1.350 . S
C197 C200 1.463 . S
C197 C202 1.350 . S
C197 N205 1.427 . S
C198 H189 0.930 . S
C198 C196 1.378 . S
C198 C199 1.367 . S
C199 C198 1.367 . S
C199 C201 1.433 . S
C200 C196 1.350 . S
C200 C197 1.463 . S
C200 N204 1.427 . S
C201 H191 0.929 . S
C201 C199 1.433 . S
C201 N204 1.384 . S
C202 H193 0.929 . S
C202 C194 1.378 . S
C202 C197 1.350 . S
C203 H190 0.929 . S
C203 C195 1.433 . S
C203 N205 1.384 . S
N204 C200 1.427 . S
N204 C201 1.384 . S
N205 C197 1.427 . S
N205 C203 1.384 . S
H206 C212 0.930 . S
H207 C216 0.930 . S
H208 C221 0.929 . S
H209 C219 0.929 . S
H210 C214 0.929 . S
H211 C220 0.929 . S
C212 H206 0.930 . S
C212 C213 1.367 . S
C212 C220 1.378 . S
C213 C212 1.367 . S
C213 C221 1.433 . S
C214 H210 0.929 . S
C214 C216 1.378 . S
C214 C218 1.350 . S
C215 C218 1.463 . S
C215 C220 1.350 . S
C215 N223 1.427 . S
C216 H207 0.930 . S
C216 C214 1.378 . S
C216 C217 1.367 . S
C217 C216 1.367 . S
C217 C219 1.433 . S
C218 C214 1.350 . S
C218 C215 1.463 . S
C218 N222 1.427 . S
C219 H209 0.929 . S
C219 C217 1.433 . S
C219 N222 1.384 . S
C220 H211 0.929 . S
C220 C212 1.378 . S
C220 C215 1.350 . S
C221 H208 0.929 . S
C221 C213 1.433 . S
C221 N223 1.384 . S
N222 C218 1.427 . S
N222 C219 1.384 . S
N223 C215 1.427 . S
N223 C221 1.384 . S
H224 C230 0.930 . S
H225 C234 0.930 . S
H226 C239 0.929 . S
H227 C237 0.929 . S
H228 C232 0.929 . S
H229 C238 0.929 . S
C230 H224 0.930 . S
C230 C231 1.367 . S
C230 C238 1.378 . S
C231 C230 1.367 . S
C231 C239 1.433 . S
C232 H228 0.929 . S
C232 C234 1.378 . S
C232 C236 1.350 . S
C233 C236 1.463 . S
C233 C238 1.350 . S
C233 N241 1.427 . S
C234 H225 0.930 . S
C234 C232 1.378 . S
C234 C235 1.367 . S
C235 C234 1.367 . S
C235 C237 1.433 . S
C236 C232 1.350 . S
C236 C233 1.463 . S
C236 N240 1.427 . S
C237 H227 0.929 . S
C237 C235 1.433 . S
C237 N240 1.384 . S
C238 H229 0.929 . S
C238 C230 1.378 . S
C238 C233 1.350 . S
C239 H226 0.929 . S
C239 C231 1.433 . S
C239 N241 1.384 . S
N240 C236 1.427 . S
N240 C237 1.384 . S
N241 C233 1.427 . S
N241 C239 1.384 . S
H242 C248 0.930 . S
H243 C252 0.930 . S
H244 C257 0.929 . S
H245 C255 0.929 . S
H246 C250 0.929 . S
H247 C256 0.929 . S
C248 H242 0.930 . S
C248 C249 1.367 . S
C248 C256 1.378 . S
C249 C248 1.367 . S
C249 C257 1.433 . S
C250 H246 0.929 . S
C250 C252 1.378 . S
C250 C254 1.350 . S
C251 C254 1.463 . S
C251 C256 1.350 . S
C251 N259 1.427 . S
C252 H243 0.930 . S
C252 C250 1.378 . S
C252 C253 1.367 . S
C253 C252 1.367 . S
C253 C255 1.433 . S
C254 C250 1.350 . S
C254 C251 1.463 . S
C254 N258 1.427 . S
C255 H245 0.929 . S
C255 C253 1.433 . S
C255 N258 1.384 . S
C256 H247 0.929 . S
C256 C248 1.378 . S
C256 C251 1.350 . S
C257 H244 0.929 . S
C257 C249 1.433 . S
C257 N259 1.384 . S
N258 C254 1.427 . S
N258 C255 1.384 . S
N259 C251 1.427 . S
N259 C257 1.384 . S
H260 C266 0.930 . S
H261 C270 0.930 . S
H262 C275 0.929 . S
H263 C273 0.929 . S
H264 C268 0.929 . S
H265 C274 0.929 . S
C266 H260 0.930 . S
C266 C267 1.367 . S
C266 C274 1.378 . S
C267 C266 1.367 . S
C267 C275 1.433 . S
C268 H264 0.929 . S
C268 C270 1.378 . S
C268 C272 1.350 . S
C269 C272 1.463 . S
C269 C274 1.350 . S
C269 N277 1.427 . S
C270 H261 0.930 . S
C270 C268 1.378 . S
C270 C271 1.367 . S
C271 C270 1.367 . S
C271 C273 1.433 . S
C272 C268 1.350 . S
C272 C269 1.463 . S
C272 N276 1.427 . S
C273 H263 0.929 . S
C273 C271 1.433 . S
C273 N276 1.384 . S
C274 H265 0.929 . S
C274 C266 1.378 . S
C274 C269 1.350 . S
C275 H262 0.929 . S
C275 C267 1.433 . S
C275 N277 1.384 . S
N276 C272 1.427 . S
N276 C273 1.384 . S
N277 C269 1.427 . S
N277 C275 1.384 . S
H278 C284 0.930 . S
H279 C288 0.930 . S
H280 C293 0.929 . S
H281 C291 0.929 1_455 S
H282 C286 0.929 . S
H283 C292 0.929 . S
C284 H278 0.930 . S
C284 C285 1.367 . S
C284 C292 1.378 . S
C285 C284 1.367 . S
C285 C293 1.433 . S
C286 H282 0.929 . S
C286 C288 1.378 . S
C286 C290 1.350 . S
C287 C290 1.463 . S
C287 C292 1.350 . S
C287 N295 1.427 . S
C288 H279 0.930 . S
C288 C286 1.378 . S
C288 C289 1.367 1_655 S
C289 C288 1.367 1_455 S
C289 C291 1.433 1_455 S
C290 C286 1.350 . S
C290 C287 1.463 . S
C290 N294 1.427 . S
C291 H281 0.929 1_655 S
C291 C289 1.433 1_655 S
C291 N294 1.384 . S
C292 H283 0.929 . S
C292 C284 1.378 . S
C292 C287 1.350 . S
C293 H280 0.929 . S
C293 C285 1.433 . S
C293 N295 1.384 . S
N294 C290 1.427 . S
N294 C291 1.384 . S
N295 C287 1.427 . S
N295 C293 1.384 . S
H296 C302 0.930 . S
H297 C306 0.930 . S
H298 C311 0.929 . S
H299 C309 0.929 . S
H300 C304 0.929 . S
H301 C310 0.929 . S
C302 H296 0.930 . S
C302 C303 1.367 . S
C302 C310 1.378 . S
C303 C302 1.367 . S
C303 C311 1.433 . S
C304 H300 0.929 . S
C304 C306 1.378 . S
C304 C308 1.350 . S
C305 C308 1.463 . S
C305 C310 1.350 . S
C305 N313 1.427 . S
C306 H297 0.930 . S
C306 C304 1.378 . S
C306 C307 1.367 . S
C307 C306 1.367 . S
C307 C309 1.433 . S
C308 C304 1.350 . S
C308 C305 1.463 . S
C308 N312 1.427 . S
C309 H299 0.929 . S
C309 C307 1.433 . S
C309 N312 1.384 . S
C310 H301 0.929 . S
C310 C302 1.378 . S
C310 C305 1.350 . S
C311 H298 0.929 . S
C311 C303 1.433 . S
C311 N313 1.384 . S
N312 C308 1.427 . S
N312 C309 1.384 . S
N313 C305 1.427 . S
N313 C311 1.384 . S
H314 C320 0.930 . S
H315 C324 0.930 . S
H316 C329 0.929 . S
H317 C327 0.929 . S
H318 C322 0.929 . S
H319 C328 0.929 . S
C320 H314 0.930 . S
C320 C321 1.367 . S
C320 C328 1.378 1_455 S
C321 C320 1.367 . S
C321 C329 1.433 . S
C322 H318 0.929 . S
C322 C324 1.378 . S
C322 C326 1.350 . S
C323 C326 1.463 . S
C323 C328 1.350 . S
C323 N331 1.427 . S
C324 H315 0.930 . S
C324 C322 1.378 . S
C324 C325 1.367 . S
C325 C324 1.367 . S
C325 C327 1.433 . S
C326 C322 1.350 . S
C326 C323 1.463 . S
C326 N330 1.427 . S
C327 H317 0.929 . S
C327 C325 1.433 . S
C327 N330 1.384 . S
C328 H319 0.929 . S
C328 C320 1.378 1_655 S
C328 C323 1.350 . S
C329 H316 0.929 . S
C329 C321 1.433 . S
C329 N331 1.384 1_455 S
N330 C326 1.427 . S
N330 C327 1.384 . S
N331 C323 1.427 . S
N331 C329 1.384 1_655 S
H332 C338 0.930 . S
H333 C342 0.930 . S
H334 C347 0.929 . S
H335 C345 0.929 . S
H336 C340 0.929 . S
H337 C346 0.929 . S
C338 H332 0.930 . S
C338 C339 1.367 . S
C338 C346 1.378 . S
C339 C338 1.367 . S
C339 C347 1.433 . S
C340 H336 0.929 . S
C340 C342 1.378 . S
C340 C344 1.350 . S
C341 C344 1.463 . S
C341 C346 1.350 . S
C341 N349 1.427 . S
C342 H333 0.930 . S
C342 C340 1.378 . S
C342 C343 1.367 . S
C343 C342 1.367 . S
C343 C345 1.433 . S
C344 C340 1.350 . S
C344 C341 1.463 . S
C344 N348 1.427 . S
C345 H335 0.929 . S
C345 C343 1.433 . S
C345 N348 1.384 . S
C346 H337 0.929 . S
C346 C338 1.378 . S
C346 C341 1.350 . S
C347 H334 0.929 . S
C347 C339 1.433 . S
C347 N349 1.384 . S
N348 C344 1.427 . S
N348 C345 1.384 . S
N349 C341 1.427 . S
N349 C347 1.384 . S
H350 C356 0.930 . S
H351 C360 0.930 . S
H352 C365 0.929 . S
H353 C363 0.929 . S
H354 C358 0.929 . S
H355 C364 0.929 . S
C356 H350 0.930 . S
C356 C357 1.367 . S
C356 C364 1.378 . S
C357 C356 1.367 . S
C357 C365 1.433 . S
C358 H354 0.929 . S
C358 C360 1.378 . S
C358 C362 1.350 . S
C359 C362 1.463 . S
C359 C364 1.350 . S
C359 N367 1.427 . S
C360 H351 0.930 . S
C360 C358 1.378 . S
C360 C361 1.367 . S
C361 C360 1.367 . S
C361 C363 1.433 . S
C362 C358 1.350 . S
C362 C359 1.463 . S
C362 N366 1.427 . S
C363 H353 0.929 . S
C363 C361 1.433 . S
C363 N366 1.384 . S
C364 H355 0.929 . S
C364 C356 1.378 . S
C364 C359 1.350 . S
C365 H352 0.929 . S
C365 C357 1.433 . S
C365 N367 1.384 . S
N366 C362 1.427 . S
N366 C363 1.384 . S
N367 C359 1.427 . S
N367 C365 1.384 . S
H368 C374 0.930 . S
H369 C378 0.930 . S
H370 C383 0.929 . S
H371 C381 0.929 . S
H372 C376 0.929 . S
H373 C382 0.929 . S
C374 H368 0.930 . S
C374 C375 1.367 . S
C374 C382 1.378 . S
C375 C374 1.367 . S
C375 C383 1.433 . S
C376 H372 0.929 . S
C376 C378 1.378 . S
C376 C380 1.350 . S
C377 C380 1.463 . S
C377 C382 1.350 . S
C377 N385 1.427 . S
C378 H369 0.930 . S
C378 C376 1.378 . S
C378 C379 1.367 . S
C379 C378 1.367 . S
C379 C381 1.433 . S
C380 C376 1.350 . S
C380 C377 1.463 . S
C380 N384 1.427 . S
C381 H371 0.929 . S
C381 C379 1.433 . S
C381 N384 1.384 . S
C382 H373 0.929 . S
C382 C374 1.378 . S
C382 C377 1.350 . S
C383 H370 0.929 . S
C383 C375 1.433 . S
C383 N385 1.384 . S
N384 C380 1.427 . S
N384 C381 1.384 . S
N385 C377 1.427 . S
N385 C383 1.384 . S
H386 C392 0.930 . S
H387 C396 0.930 . S
H388 C401 0.929 . S
H389 C399 0.929 . S
H390 C394 0.929 . S
H391 C400 0.929 . S
C392 H386 0.930 . S
C392 C393 1.367 . S
C392 C400 1.378 . S
C393 C392 1.367 . S
C393 C401 1.433 . S
C394 H390 0.929 . S
C394 C396 1.378 . S
C394 C398 1.350 . S
C395 C398 1.463 . S
C395 C400 1.350 . S
C395 N403 1.427 . S
C396 H387 0.930 . S
C396 C394 1.378 . S
C396 C397 1.367 . S
C397 C396 1.367 . S
C397 C399 1.433 . S
C398 C394 1.350 . S
C398 C395 1.463 . S
C398 N402 1.427 . S
C399 H389 0.929 . S
C399 C397 1.433 . S
C399 N402 1.384 . S
C400 H391 0.929 . S
C400 C392 1.378 . S
C400 C395 1.350 . S
C401 H388 0.929 . S
C401 C393 1.433 . S
C401 N403 1.384 . S
N402 C398 1.427 . S
N402 C399 1.384 . S
N403 C395 1.427 . S
N403 C401 1.384 . S
H404 C410 0.930 . S
H405 C414 0.930 . S
H406 C419 0.929 . S
H407 C417 0.929 . S
H408 C412 0.929 . S
H409 C418 0.929 . S
C410 H404 0.930 . S
C410 C411 1.367 . S
C410 C418 1.378 . S
C411 C410 1.367 . S
C411 C419 1.433 . S
C412 H408 0.929 . S
C412 C414 1.378 . S
C412 C416 1.350 . S
C413 C416 1.463 1_565 S
C413 C418 1.350 . S
C413 N421 1.427 . S
C414 H405 0.930 . S
C414 C412 1.378 . S
C414 C415 1.367 . S
C415 C414 1.367 . S
C415 C417 1.433 . S
C416 C412 1.350 . S
C416 C413 1.463 1_545 S
C416 N420 1.427 . S
C417 H407 0.929 . S
C417 C415 1.433 . S
C417 N420 1.384 . S
C418 H409 0.929 . S
C418 C410 1.378 . S
C418 C413 1.350 . S
C419 H406 0.929 . S
C419 C411 1.433 . S
C419 N421 1.384 . S
N420 C416 1.427 . S
N420 C417 1.384 . S
N421 C413 1.427 . S
N421 C419 1.384 . S
H422 C428 0.930 . S
H423 C432 0.930 . S
H424 C437 0.929 . S
H425 C435 0.929 . S
H426 C430 0.929 1_545 S
H427 C436 0.929 . S
C428 H422 0.930 . S
C428 C429 1.367 . S
C428 C436 1.378 . S
C429 C428 1.367 . S
C429 C437 1.433 . S
C430 H426 0.929 1_565 S
C430 C432 1.378 . S
C430 C434 1.350 1_565 S
C431 C434 1.463 . S
C431 C436 1.350 . S
C431 N439 1.427 . S
C432 H423 0.930 . S
C432 C430 1.378 . S
C432 C433 1.367 . S
C433 C432 1.367 . S
C433 C435 1.433 . S
C434 C430 1.350 1_545 S
C434 C431 1.463 . S
C434 N438 1.427 1_545 S
C435 H425 0.929 . S
C435 C433 1.433 . S
C435 N438 1.384 . S
C436 H427 0.929 . S
C436 C428 1.378 . S
C436 C431 1.350 . S
C437 H424 0.929 . S
C437 C429 1.433 . S
C437 N439 1.384 . S
N438 C434 1.427 1_565 S
N438 C435 1.384 . S
N439 C431 1.427 . S
N439 C437 1.384 . S
H440 C446 0.930 . S
H441 C450 0.930 . S
H442 C455 0.929 . S
H443 C453 0.929 . S
H444 C448 0.929 . S
H445 C454 0.929 . S
C446 H440 0.930 . S
C446 C447 1.367 . S
C446 C454 1.378 . S
C447 C446 1.367 . S
C447 C455 1.433 . S
C448 H444 0.929 . S
C448 C450 1.378 . S
C448 C452 1.350 . S
C449 C452 1.463 . S
C449 C454 1.350 1_565 S
C449 N457 1.427 1_565 S
C450 H441 0.930 . S
C450 C448 1.378 . S
C450 C451 1.367 . S
C451 C450 1.367 . S
C451 C453 1.433 . S
C452 C448 1.350 . S
C452 C449 1.463 . S
C452 N456 1.427 . S
C453 H443 0.929 . S
C453 C451 1.433 . S
C453 N456 1.384 . S
C454 H445 0.929 . S
C454 C446 1.378 . S
C454 C449 1.350 1_545 S
C455 H442 0.929 . S
C455 C447 1.433 . S
C455 N457 1.384 . S
N456 C452 1.427 . S
N456 C453 1.384 . S
N457 C449 1.427 1_545 S
N457 C455 1.384 . S
H458 C464 0.930 . S
H459 C468 0.930 . S
H460 C473 0.929 . S
H461 C471 0.929 . S
H462 C466 0.929 1_565 S
H463 C472 0.929 . S
C464 H458 0.930 . S
C464 C465 1.367 . S
C464 C472 1.378 . S
C465 C464 1.367 . S
C465 C473 1.433 . S
C466 H462 0.929 1_545 S
C466 C468 1.378 . S
C466 C470 1.350 1_545 S
C467 C470 1.463 . S
C467 C472 1.350 . S
C467 N475 1.427 . S
C468 H459 0.930 . S
C468 C466 1.378 . S
C468 C469 1.367 . S
C469 C468 1.367 . S
C469 C471 1.433 . S
C470 C466 1.350 1_565 S
C470 C467 1.463 . S
C470 N474 1.427 . S
C471 H461 0.929 . S
C471 C469 1.433 . S
C471 N474 1.384 1_545 S
C472 H463 0.929 . S
C472 C464 1.378 . S
C472 C467 1.350 . S
C473 H460 0.929 . S
C473 C465 1.433 . S
C473 N475 1.384 . S
N474 C470 1.427 . S
N474 C471 1.384 1_565 S
N475 C467 1.427 . S
N475 C473 1.384 . S
H476 C482 0.930 . S
H477 C486 0.930 . S
H478 C491 0.929 . S
H479 C489 0.929 . S
H480 C484 0.929 . S
H481 C490 0.929 . S
C482 H476 0.930 . S
C482 C483 1.367 . S
C482 C490 1.378 . S
C483 C482 1.367 . S
C483 C491 1.433 . S
C484 H480 0.929 . S
C484 C486 1.378 . S
C484 C488 1.350 . S
C485 C488 1.463 . S
C485 C490 1.350 1_556 S
C485 N493 1.432 . S
C486 H477 0.930 . S
C486 C484 1.378 . S
C486 C487 1.367 . S
C487 C486 1.367 . S
C487 C489 1.433 . S
C488 C484 1.350 . S
C488 C485 1.463 . S
C488 N492 1.427 . S
C489 H479 0.929 . S
C489 C487 1.433 . S
C489 N492 1.384 . S
C490 H481 0.929 . S
C490 C482 1.378 . S
C490 C485 1.350 1_554 S
C491 H478 0.929 . S
C491 C483 1.433 . S
C491 N493 1.360 1_554 S
N492 C488 1.427 . S
N492 C489 1.384 . S
N493 C485 1.432 . S
N493 C491 1.360 1_556 S
H494 C500 0.930 . S
H495 C504 0.930 . S
H496 C509 0.929 . S
H497 C507 0.929 . S
H498 C502 0.929 . S
H499 C508 0.929 . S
C500 H494 0.930 . S
C500 C501 1.367 . S
C500 C508 1.378 . S
C501 C500 1.367 . S
C501 C509 1.433 . S
C502 H498 0.929 . S
C502 C504 1.378 . S
C502 C506 1.350 . S
C503 C506 1.463 . S
C503 C508 1.350 . S
C503 N511 1.427 . S
C504 H495 0.930 . S
C504 C502 1.378 . S
C504 C505 1.367 . S
C505 C504 1.367 . S
C505 C507 1.433 . S
C506 C502 1.350 . S
C506 C503 1.463 . S
C506 N510 1.427 . S
C507 H497 0.929 . S
C507 C505 1.433 . S
C507 N510 1.384 . S
C508 H499 0.929 . S
C508 C500 1.378 . S
C508 C503 1.350 . S
C509 H496 0.929 . S
C509 C501 1.433 . S
C509 N511 1.384 . S
N510 C506 1.427 . S
N510 C507 1.384 . S
N511 C503 1.427 . S
N511 C509 1.384 . S
H512 C518 0.930 . S
H513 C522 0.930 . S
H514 C527 0.929 . S
H515 C525 0.929 . S
H516 C520 0.929 . S
H517 C526 0.929 . S
C518 H512 0.930 . S
C518 C519 1.367 . S
C518 C526 1.378 . S
C519 C518 1.367 . S
C519 C527 1.433 . S
C520 H516 0.929 . S
C520 C522 1.378 . S
C520 C524 1.350 . S
C521 C524 1.463 . S
C521 C526 1.350 . S
C521 N529 1.427 . S
C522 H513 0.930 . S
C522 C520 1.378 . S
C522 C523 1.367 . S
C523 C522 1.367 . S
C523 C525 1.433 . S
C524 C520 1.350 . S
C524 C521 1.463 . S
C524 N528 1.427 . S
C525 H515 0.929 . S
C525 C523 1.433 . S
C525 N528 1.384 . S
C526 H517 0.929 . S
C526 C518 1.378 . S
C526 C521 1.350 . S
C527 H514 0.929 . S
C527 C519 1.433 . S
C527 N529 1.384 . S
N528 C524 1.427 . S
N528 C525 1.384 . S
N529 C521 1.427 . S
N529 C527 1.384 . S
H530 C536 0.930 . S
H531 C540 0.930 . S
H532 C545 0.929 . S
H533 C543 0.929 . S
H534 C538 0.929 . S
H535 C544 0.929 . S
C536 H530 0.930 . S
C536 C537 1.367 . S
C536 C544 1.378 . S
C537 C536 1.367 . S
C537 C545 1.433 . S
C538 H534 0.929 . S
C538 C540 1.378 . S
C538 C542 1.350 . S
C539 C542 1.463 . S
C539 C544 1.350 . S
C539 N547 1.427 . S
C540 H531 0.930 . S
C540 C538 1.378 . S
C540 C541 1.367 . S
C541 C540 1.367 . S
C541 C543 1.433 . S
C542 C538 1.350 . S
C542 C539 1.463 . S
C542 N546 1.427 . S
C543 H533 0.929 . S
C543 C541 1.433 . S
C543 N546 1.384 . S
C544 H535 0.929 . S
C544 C536 1.378 . S
C544 C539 1.350 . S
C545 H532 0.929 . S
C545 C537 1.433 . S
C545 N547 1.384 . S
N546 C542 1.427 . S
N546 C543 1.384 . S
N547 C539 1.427 . S
N547 C545 1.384 . S
H548 C554 0.930 . S
H549 C558 0.930 . S
H550 C563 0.929 . S
H551 C561 0.929 . S
H552 C556 0.929 . S
H553 C562 0.964 . S
C554 H548 0.930 . S
C554 C555 1.367 . S
C554 C562 1.378 . S
C555 C554 1.367 . S
C555 C563 1.433 . S
C556 H552 0.929 . S
C556 C558 1.378 . S
C556 C560 1.350 . S
C557 C560 1.463 . S
C557 C562 1.350 1_554 S
C557 N565 1.427 1_554 S
C558 H549 0.930 . S
C558 C556 1.378 . S
C558 C559 1.367 . S
C559 C558 1.367 . S
C559 C561 1.433 . S
C560 C556 1.350 . S
C560 C557 1.463 . S
C560 N564 1.427 . S
C561 H551 0.929 . S
C561 C559 1.433 . S
C561 N564 1.384 . S
C562 H553 0.964 . S
C562 C554 1.378 . S
C562 C557 1.350 1_556 S
C563 H550 0.929 . S
C563 C555 1.433 . S
C563 N565 1.384 . S
N564 C560 1.427 . S
N564 C561 1.384 . S
N565 C557 1.427 1_556 S
N565 C563 1.384 . S
H566 C572 0.930 . S
H567 C576 0.930 . S
H568 C581 0.929 . S
H569 C579 0.929 . S
H570 C574 0.929 . S
H571 C580 0.929 . S
C572 H566 0.930 . S
C572 C573 1.367 . S
C572 C580 1.378 . S
C573 C572 1.367 . S
C573 C581 1.433 . S
C574 H570 0.929 . S
C574 C576 1.378 . S
C574 C578 1.350 . S
C575 C578 1.463 . S
C575 C580 1.350 . S
C575 N583 1.427 . S
C576 H567 0.930 . S
C576 C574 1.378 . S
C576 C577 1.367 . S
C577 C576 1.367 . S
C577 C579 1.433 . S
C578 C574 1.350 . S
C578 C575 1.463 . S
C578 N582 1.427 . S
C579 H569 0.929 . S
C579 C577 1.433 . S
C579 N582 1.384 . S
C580 H571 0.929 . S
C580 C572 1.378 . S
C580 C575 1.350 . S
C581 H568 0.929 . S
C581 C573 1.433 . S
C581 N583 1.384 . S
N582 C578 1.427 . S
N582 C579 1.384 . S
N583 C575 1.427 . S
N583 C581 1.384 . S
H584 C590 0.930 . S
H585 C594 0.930 . S
H586 C599 0.929 . S
H587 C597 0.929 . S
H588 C592 0.929 . S
H589 C598 0.929 . S
C590 H584 0.930 . S
C590 C591 1.367 . S
C590 C598 1.378 . S
C591 C590 1.367 . S
C591 C599 1.433 . S
C592 H588 0.929 . S
C592 C594 1.378 . S
C592 C596 1.350 . S
C593 C596 1.463 . S
C593 C598 1.350 . S
C593 N601 1.427 . S
C594 H585 0.930 . S
C594 C592 1.378 . S
C594 C595 1.367 . S
C595 C594 1.367 . S
C595 C597 1.433 . S
C596 C592 1.350 . S
C596 C593 1.463 . S
C596 N600 1.427 . S
C597 H587 0.929 . S
C597 C595 1.433 . S
C597 N600 1.384 . S
C598 H589 0.929 . S
C598 C590 1.378 . S
C598 C593 1.350 . S
C599 H586 0.929 . S
C599 C591 1.433 . S
C599 N601 1.384 . S
N600 C596 1.427 . S
N600 C597 1.384 . S
N601 C593 1.427 . S
N601 C599 1.384 . S
H602 C608 0.930 . S
H603 C612 0.930 . S
H604 C617 0.929 . S
H605 C615 0.929 . S
H606 C610 0.929 . S
H607 C616 0.929 . S
C608 H602 0.930 . S
C608 C609 1.367 . S
C608 C616 1.378 . S
C609 C608 1.367 . S
C609 C617 1.433 . S
C610 H606 0.929 . S
C610 C612 1.378 . S
C610 C614 1.350 . S
C611 C614 1.463 . S
C611 C616 1.350 . S
C611 N619 1.427 . S
C612 H603 0.930 . S
C612 C610 1.378 . S
C612 C613 1.367 . S
C613 C612 1.367 . S
C613 C615 1.433 . S
C614 C610 1.350 . S
C614 C611 1.463 . S
C614 N618 1.427 . S
C615 H605 0.929 . S
C615 C613 1.433 . S
C615 N618 1.384 . S
C616 H607 0.929 . S
C616 C608 1.378 . S
C616 C611 1.350 . S
C617 H604 0.929 . S
C617 C609 1.433 . S
C617 N619 1.384 . S
N618 C614 1.427 . S
N618 C615 1.384 . S
N619 C611 1.427 . S
N619 C617 1.384 . S
C199 C111 1.487 . S
C195 C4 1.486 . S
C217 C129 1.370 . S
C213 C17 1.373 1_655 S
C231 C34 1.336 . S
C235 C153 1.235 . S
C253 C183 1.304 . S
C249 C47 1.424 . S
C271 C171 1.294 . S
C267 C56 1.365 . S
C285 C69 1.381 . S
C289 C124 1.387 . S
C303 C86 1.549 . S
C307 C144 1.420 . S
C321 C99 1.418 . S
C325 C149 1.259 . S
C339 C95 1.376 . S
C343 C165 1.382 . S
C357 C73 1.424 . S
C361 C120 1.257 . S
C379 C187 1.384 . S
C375 C43 1.380 . S
C397 C132 1.286 . S
C393 C21 1.429 . S
C411 C30 1.498 . S
C415 C150 1.501 . S
C429 C8 1.343 . S
C433 C108 1.249 . S
C451 C128 1.302 . S
C447 C82 1.360 . S
C469 C174 1.437 . S
C465 C60 1.562 . S
C487 C170 1.335 . S
C483 C9 1.571 . S
C505 C123 1.392 . S
C501 C22 1.472 . S
C519 C35 1.567 . S
C523 C145 1.345 . S
C537 C48 1.488 . S
C541 C166 1.418 . S
C559 C107 1.392 . S
C555 C61 1.519 . S
C573 C74 1.562 . S
C577 C141 1.495 . S
C595 C162 1.409 . S
C591 C87 1.538 . S
C613 C186 1.479 . S
C609 C100 1.536 . S
