# Generated by pormake.
# Topology anh, (6,3)-cn, num edge types: 1
# Building blocks:
#     Node 0, Type 0, BuildingBlock: BETFAJ_clean_sbu_0, # of connection points: 6
#     Node 1, Type 0, BuildingBlock: BETFAJ_clean_sbu_0, # of connection points: 6
#     Node 2, Type 0, BuildingBlock: BETFAJ_clean_sbu_0, # of connection points: 6
#     Node 3, Type 1, BuildingBlock: MIDCAF_clean_linker_0, # of connection points: 3
#     Node 4, Type 1, BuildingBlock: MIDCAF_clean_linker_0, # of connection points: 3
#     Node 5, Type 1, BuildingBlock: MIDCAF_clean_linker_0, # of connection points: 3
#     Node 6, Type 1, BuildingBlock: MIDCAF_clean_linker_0, # of connection points: 3
#     Node 7, Type 1, BuildingBlock: MIDCAF_clean_linker_0, # of connection points: 3
#     Node 8, Type 1, BuildingBlock: MIDCAF_clean_linker_0, # of connection points: 3
#     Edge 9, Type (0, 1), BuildingBlock: OJICUG_clean_linker_0, # of connection points: 2
#     Edge 10, Type (0, 1), BuildingBlock: OJICUG_clean_linker_0, # of connection points: 2
#     Edge 11, Type (0, 1), BuildingBlock: OJICUG_clean_linker_0, # of connection points: 2
#     Edge 12, Type (0, 1), BuildingBlock: OJICUG_clean_linker_0, # of connection points: 2
#     Edge 13, Type (0, 1), BuildingBlock: OJICUG_clean_linker_0, # of connection points: 2
#     Edge 14, Type (0, 1), BuildingBlock: OJICUG_clean_linker_0, # of connection points: 2
#     Edge 15, Type (0, 1), BuildingBlock: OJICUG_clean_linker_0, # of connection points: 2
#     Edge 16, Type (0, 1), BuildingBlock: OJICUG_clean_linker_0, # of connection points: 2
#     Edge 17, Type (0, 1), BuildingBlock: OJICUG_clean_linker_0, # of connection points: 2
#     Edge 18, Type (0, 1), BuildingBlock: OJICUG_clean_linker_0, # of connection points: 2
#     Edge 19, Type (0, 1), BuildingBlock: OJICUG_clean_linker_0, # of connection points: 2
#     Edge 20, Type (0, 1), BuildingBlock: OJICUG_clean_linker_0, # of connection points: 2
#     Edge 21, Type (0, 1), BuildingBlock: OJICUG_clean_linker_0, # of connection points: 2
#     Edge 22, Type (0, 1), BuildingBlock: OJICUG_clean_linker_0, # of connection points: 2
#     Edge 23, Type (0, 1), BuildingBlock: OJICUG_clean_linker_0, # of connection points: 2
#     Edge 24, Type (0, 1), BuildingBlock: OJICUG_clean_linker_0, # of connection points: 2
#     Edge 25, Type (0, 1), BuildingBlock: OJICUG_clean_linker_0, # of connection points: 2
#     Edge 26, Type (0, 1), BuildingBlock: OJICUG_clean_linker_0, # of connection points: 2
# Relax obj value: 0.216
# Max RMSD: 0.226
# Mean RMSD: 0.165
data_MOF--net-anh--node1-BETFAJ_clean_sbu_0--node2-MIDCAF_clean_linker_0--edge1-OJICUG_clean_linker_0
_symmetry_space_group_name_H-M    P1
_symmetry_Int_Tables_number       1
_symmetry_cell_setting            triclinic
loop_
_symmetry_equiv_pos_as_xyz
'x, y, z'
_cell_length_a     29.258062
_cell_length_b     35.674384
_cell_length_c     52.192594
_cell_angle_alpha  92.707557
_cell_angle_beta   88.820285
_cell_angle_gamma 130.43402
loop_
_atom_site_label
_atom_site_type_symbol
_atom_site_fract_x
_atom_site_fract_y
_atom_site_fract_z
_atom_type_partial_charge
Sm0 Sm 0.13451 0.52545 0.13695 0.0
Sm1 Sm 1.06324 0.55358 0.15349 0.0
C2 C 0.21586 0.52368 0.11638 0.0
C3 C 0.27684 0.54842 0.12552 0.0
C4 C 0.3204 0.55823 0.10838 0.0
C5 C 0.37621 0.57651 0.11764 0.0
C6 C 0.38871 0.58462 0.1442 0.0
C7 C 0.34651 0.57819 0.16113 0.0
C8 C 0.29109 0.56066 0.15181 0.0
C9 C 0.1208 0.5245 0.18912 0.0
C10 C 0.20286 0.6449 0.14883 0.0
C11 C 0.98049 0.55113 0.17646 0.0
C12 C 0.91589 0.50869 0.1774 0.0
C13 C 0.88471 0.4966 0.20052 0.0
C14 C 0.82497 0.45286 0.20191 0.0
C15 C 0.79598 0.42048 0.18022 0.0
C16 C 0.82764 0.43292 0.15717 0.0
C17 C 0.88691 0.47632 0.15581 0.0
C18 C 0.07735 0.55302 0.10106 0.0
C19 C 0.99519 0.4349 0.14277 0.0
O20 O 0.20663 0.55258 0.10854 0.0
O21 O 0.17301 0.48915 0.13091 0.0
O22 O 0.13187 0.55724 0.17503 0.0
O23 O 0.12081 0.49278 0.17606 0.0
O24 O 0.2043 0.61167 0.13746 0.0
O25 O 0.15337 0.63145 0.15965 0.0
O26 O 1.0143 0.54579 0.18871 0.0
O27 O 1.00161 0.56976 0.15395 0.0
O28 O 1.06523 0.5205 0.11561 0.0
O29 O 0.07972 0.58643 0.11381 0.0
O30 O 0.99667 0.46841 0.15571 0.0
O31 O 1.04207 0.44847 0.12932 0.0
H32 H 0.3103 0.54959 0.08803 0.0
H33 H 0.40766 0.58041 0.10421 0.0
H34 H 0.35504 0.58391 0.18164 0.0
H35 H 0.25818 0.55423 0.16527 0.0
H36 H 0.90679 0.52062 0.21754 0.0
H37 H 0.80147 0.44435 0.21986 0.0
H38 H 0.80629 0.40951 0.13992 0.0
H39 H 0.91034 0.4841 0.13787 0.0
Sm40 Sm 0.63653 0.02412 0.47104 0.0
Sm41 Sm 0.55979 0.04991 0.4621 0.0
C42 C 0.68902 0.99074 0.48749 0.0
C43 C 0.67766 0.94494 0.49169 0.0
C44 C 0.61926 0.89995 0.49446 0.0
C45 C 0.61036 0.85755 0.4999 0.0
C46 C 0.65979 0.85972 0.50275 0.0
C47 C 0.71796 0.90463 0.49913 0.0
C48 C 0.72674 0.9468 0.49366 0.0
C49 C 0.62795 0.03692 0.42048 0.0
C50 C 0.48956 0.93389 0.46214 0.0
C51 C 0.51359 0.08966 0.44781 0.0
C52 C 0.52855 0.1368 0.45522 0.0
C53 C 0.50165 0.15214 0.44266 0.0
C54 C 0.51537 0.19668 0.45029 0.0
C55 C 0.55624 0.22655 0.47065 0.0
C56 C 0.58336 0.21092 0.48297 0.0
C57 C 0.56978 0.16662 0.47529 0.0
C58 C 0.57025 0.03878 0.51287 0.0
C59 C 0.70783 0.14055 0.46813 0.0
O60 O 0.66178 1.00089 0.5026 0.0
O61 O 0.69078 1.00137 0.4637 0.0
O62 O 0.58443 0.01387 0.43574 0.0
O63 O 0.67736 0.05284 0.4315 0.0
O64 O 0.53958 0.94763 0.47259 0.0
O65 O 0.4882 0.96682 0.4526 0.0
O66 O 0.55444 0.09283 0.43465 0.0
O67 O 0.4911 0.05826 0.46601 0.0
O68 O 0.61284 0.06099 0.49717 0.0
O69 O 0.52102 0.02399 0.50232 0.0
O70 O 0.65576 0.12628 0.4603 0.0
O71 O 0.7119 0.1083 0.47627 0.0
H72 H 0.58082 0.89789 0.49292 0.0
H73 H 0.56506 0.82356 0.50274 0.0
H74 H 0.75684 0.90731 0.5008 0.0
H75 H 0.77208 0.98116 0.49139 0.0
H76 H 0.46989 0.1296 0.42705 0.0
H77 H 0.49416 0.2078 0.44019 0.0
H78 H 0.61415 0.23233 0.49899 0.0
H79 H 0.59095 0.15529 0.48524 0.0
Sm80 Sm 0.63686 0.57345 0.84172 0.0
Sm81 Sm 0.54617 0.45624 0.84202 0.0
C82 C 0.69383 0.66685 0.83248 0.0
C83 C 0.68014 0.69781 0.824 0.0
C84 C 0.65799 0.69204 0.79917 0.0
C85 C 0.64701 0.72265 0.7914 0.0
C86 C 0.65771 0.75972 0.80827 0.0
C87 C 0.67947 0.76511 0.83316 0.0
C88 C 0.69073 0.73467 0.84086 0.0
C89 C 0.61186 0.53136 0.88806 0.0
C90 C 0.48528 0.51029 0.8429 0.0
C91 C 0.49125 0.36612 0.85643 0.0
C92 C 0.49915 0.33084 0.84751 0.0
C93 C 0.47714 0.28974 0.86164 0.0
C94 C 0.4892 0.25871 0.8539 0.0
C95 C 0.52384 0.26857 0.83199 0.0
C96 C 0.54498 0.30957 0.81778 0.0
C97 C 0.53302 0.34042 0.82552 0.0
C98 C 0.57742 0.48486 0.79206 0.0
C99 C 0.69836 0.52079 0.84156 0.0
O100 O 0.68827 0.63571 0.81554 0.0
O101 O 0.67535 0.64895 0.85529 0.0
O102 O 0.57513 0.51705 0.87014 0.0
O103 O 0.66525 0.57156 0.88251 0.0
O104 O 0.54112 0.55252 0.83914 0.0
O105 O 0.47585 0.4687 0.84614 0.0
O106 O 0.53782 0.40567 0.86877 0.0
O107 O 0.46777 0.37596 0.83967 0.0
O108 O 0.5953 0.51257 0.81194 0.0
O109 O 0.53994 0.43926 0.79836 0.0
O110 O 0.6426 0.47882 0.84552 0.0
O111 O 0.70769 0.56194 0.83729 0.0
H112 H 0.64955 0.66415 0.78561 0.0
H113 H 0.63118 0.71779 0.77197 0.0
H114 H 0.68747 0.79266 0.84683 0.0
H115 H 0.70794 0.74006 0.86009 0.0
H116 H 0.45157 0.28214 0.87886 0.0
H117 H 0.47263 0.22773 0.8654 0.0
H118 H 0.57079 0.31789 0.80056 0.0
H119 H 0.551 0.37226 0.81449 0.0
C120 C 0.47081 0.86136 0.17153 0.0
C121 C 0.42182 0.85117 0.15866 0.0
C122 C 0.42608 0.89126 0.15208 0.0
C123 C 0.47687 0.94003 0.15927 0.0
H124 H 0.69628 0.1085 0.14089 0.0
H125 H 0.77781 0.19184 0.12579 0.0
H126 H 0.78386 0.25426 0.19989 0.0
H127 H 0.70315 0.17336 0.2143 0.0
H128 H 0.68145 0.11808 0.26188 0.0
H129 H 0.68307 0.11801 0.30838 0.0
H130 H 0.5351 0.96094 0.30549 0.0
H131 H 0.53272 0.96079 0.25874 0.0
H132 H 0.55592 0.916 0.19042 0.0
H133 H 0.46905 0.83162 0.17717 0.0
H134 H 0.38936 0.88479 0.14204 0.0
H135 H 0.47745 0.96984 0.15524 0.0
N136 N 0.60796 0.0414 0.1756 0.0
N137 N 0.64621 0.08252 0.21603 0.0
N138 N 0.56892 0.99732 0.2136 0.0
C139 C 0.64748 0.08433 0.19007 0.0
C140 C 0.60734 0.03961 0.22798 0.0
C141 C 0.56855 0.99763 0.18758 0.0
C142 C 0.69275 0.13379 0.17884 0.0
C143 C 0.71452 0.14023 0.15369 0.0
C144 C 0.7617 0.18799 0.14515 0.0
C145 C 0.78754 0.23022 0.16151 0.0
C146 C 0.7648 0.22324 0.18641 0.0
C147 C 0.71835 0.17623 0.19482 0.0
C148 C 0.6072 0.03935 0.25643 0.0
C149 C 0.64904 0.08341 0.27103 0.0
C150 C 0.65016 0.08342 0.29775 0.0
C151 C 0.60944 0.03944 0.3106 0.0
C152 C 0.56675 0.99549 0.29613 0.0
C153 C 0.56572 0.9954 0.26932 0.0
C154 C 0.52397 0.94959 0.17347 0.0
C155 C 0.52081 0.9098 0.17905 0.0
C156 C 0.6321 0.41586 0.5402 0.0
C157 C 0.60252 0.39961 0.51626 0.0
C158 C 0.58115 0.4222 0.50698 0.0
C159 C 0.58886 0.46007 0.52152 0.0
H160 H 0.61302 0.59288 0.51729 0.0
H161 H 0.61881 0.65881 0.50049 0.0
H162 H 0.63366 0.71479 0.57777 0.0
H163 H 0.62833 0.64992 0.59457 0.0
H164 H 0.61709 0.5946 0.64157 0.0
H165 H 0.61293 0.58538 0.68778 0.0
H166 H 0.65157 0.48771 0.67643 0.0
H167 H 0.65433 0.49584 0.63033 0.0
H168 H 0.66118 0.46398 0.5734 0.0
H169 H 0.64848 0.39882 0.54799 0.0
H170 H 0.55837 0.41048 0.48853 0.0
H171 H 0.5713 0.47641 0.51405 0.0
N172 N 0.61832 0.54533 0.55228 0.0
N173 N 0.62782 0.57878 0.59366 0.0
N174 N 0.62797 0.51347 0.58815 0.0
C175 C 0.62182 0.57884 0.56791 0.0
C176 C 0.63095 0.54631 0.60395 0.0
C177 C 0.62153 0.51256 0.56236 0.0
C178 C 0.6209 0.61626 0.55729 0.0
C179 C 0.61713 0.61906 0.5307 0.0
C180 C 0.62017 0.65665 0.52106 0.0
C181 C 0.62741 0.69225 0.53782 0.0
C182 C 0.62918 0.68842 0.56436 0.0
C183 C 0.6259 0.65097 0.57397 0.0
C184 C 0.63499 0.54526 0.63215 0.0
C185 C 0.62535 0.57156 0.64893 0.0
C186 C 0.62335 0.56657 0.67546 0.0
C187 C 0.63115 0.53533 0.68575 0.0
C188 C 0.64409 0.51125 0.66906 0.0
C189 C 0.64577 0.516 0.6426 0.0
C190 C 0.61706 0.47533 0.5458 0.0
C191 C 0.63898 0.45302 0.55484 0.0
C192 C 0.90244 0.48101 0.84277 0.0
C193 C 0.90804 0.5236 0.84711 0.0
C194 C 0.96661 0.56724 0.85444 0.0
C195 C 1.01528 0.56786 0.85818 0.0
H196 H 0.22737 0.57087 0.83303 0.0
H197 H 0.30942 0.56896 0.82542 0.0
H198 H 0.22767 0.45159 0.87788 0.0
H199 H 0.14681 0.45343 0.88499 0.0
H200 H 0.15388 0.51727 0.94296 0.0
H201 H 0.15215 0.52476 0.98967 0.0
H202 H 1.03376 0.55682 0.98326 0.0
H203 H 1.03589 0.55001 0.93679 0.0
H204 H 0.94302 0.4474 0.84441 0.0
H205 H 0.85946 0.44623 0.83694 0.0
H206 H 0.97482 0.60114 0.85865 0.0
H207 H 1.0575 0.60182 0.86548 0.0
N208 N 0.09422 0.5187 0.85493 0.0
N209 N 0.13213 0.52235 0.89546 0.0
N210 N 1.05767 0.52882 0.89313 0.0
C211 C 0.13347 0.51806 0.86945 0.0
C212 C 0.09515 0.52801 0.90742 0.0
C213 C 1.05542 0.52393 0.86716 0.0
C214 C 0.17786 0.51124 0.85914 0.0
C215 C 0.22567 0.54347 0.84228 0.0
C216 C 0.27403 0.5429 0.8383 0.0
C217 C 0.27727 0.50998 0.85087 0.0
C218 C 0.22843 0.47721 0.86718 0.0
C219 C 0.18091 0.47814 0.87128 0.0
C220 C 0.09503 0.53298 0.93594 0.0
C221 C 0.12762 0.52608 0.95147 0.0
C222 C 0.12636 0.53009 0.97829 0.0
C223 C 0.09287 0.54147 0.99026 0.0
C224 C 1.06066 0.54866 0.97473 0.0
C225 C 1.0616 0.54438 0.94799 0.0
C226 C 1.00944 0.5253 0.85438 0.0
C227 C 0.95151 0.4818 0.84645 0.0
C228 C 0.23508 0.71414 0.42913 0.0
C229 C 0.27404 0.72607 0.44942 0.0
C230 C 0.26166 0.68681 0.46276 0.0
C231 C 0.21313 0.63722 0.45528 0.0
H232 H 0.98462 0.46578 0.46242 0.0
H233 H 0.90166 0.38306 0.4775 0.0
H234 H 0.95366 0.3204 0.4245 0.0
H235 H 1.03509 0.40218 0.40933 0.0
H236 H 1.02754 0.44735 0.34906 0.0
H237 H 1.0297 0.44582 0.30228 0.0
H238 H 0.17096 0.6041 0.30469 0.0
H239 H 0.16803 0.60594 0.35117 0.0
H240 H 0.16006 0.6579 0.4053 0.0
H241 H 0.24303 0.74268 0.418 0.0
H242 H 0.29012 0.69433 0.47866 0.0
H243 H 0.20648 0.60795 0.46508 0.0
N244 N 0.09666 0.53313 0.435 0.0
N245 N 1.0605 0.48652 0.39567 0.0
N246 N 0.1331 0.57224 0.39572 0.0
C247 C 1.05958 0.48827 0.42178 0.0
C248 C 0.09695 0.52833 0.3825 0.0
C249 C 0.13391 0.57547 0.42172 0.0
C250 C 1.01669 0.44065 0.43476 0.0
C251 C 0.97907 0.43442 0.45449 0.0
C252 C 0.93119 0.38696 0.46291 0.0
C253 C 0.92076 0.34488 0.45219 0.0
C254 C 0.96044 0.35176 0.43339 0.0
C255 C 1.0072 0.39876 0.42465 0.0
C256 C 0.09763 0.52672 0.354 0.0
C257 C 1.05897 0.48185 0.33963 0.0
C258 C 1.06037 0.48095 0.31278 0.0
C259 C 0.10049 0.52487 0.29969 0.0
C260 C 0.13884 0.56967 0.31408 0.0
C261 C 0.1374 0.5706 0.34084 0.0
C262 C 0.17635 0.62592 0.43417 0.0
C263 C 0.18726 0.66513 0.42171 0.0
C264 C 0.59943 0.15822 0.76512 0.0
C265 C 0.57445 0.14578 0.7897 0.0
C266 C 0.55859 0.10318 0.80027 0.0
C267 C 0.56731 0.07358 0.78639 0.0
H268 H 0.62742 0.98685 0.79079 0.0
H269 H 0.63771 0.93018 0.80829 0.0
H270 H 0.60368 0.86056 0.733 0.0
H271 H 0.59311 0.91656 0.71553 0.0
H272 H 0.63344 0.99064 0.66661 0.0
H273 H 0.62864 0.99383 0.61998 0.0
H274 H 0.55852 0.06881 0.63097 0.0
H275 H 0.56357 0.06616 0.67723 0.0
H276 H 0.62586 0.13905 0.73214 0.0
H277 H 0.61149 0.19042 0.75629 0.0
H278 H 0.53945 0.0928 0.81923 0.0
H279 H 0.55405 0.04068 0.79483 0.0
N280 N 0.60005 0.02093 0.75596 0.0
N281 N 0.60473 0.99423 0.71463 0.0
N282 N 0.5961 0.05489 0.71953 0.0
C283 C 0.60463 0.99147 0.74058 0.0
C284 C 0.60035 0.02579 0.70397 0.0
C285 C 0.59599 0.05294 0.74543 0.0
C286 C 0.60952 0.95649 0.75171 0.0
C287 C 0.62185 0.95932 0.77798 0.0
C288 C 0.62809 0.92702 0.78801 0.0
C289 C 0.62143 0.89078 0.77205 0.0
C290 C 0.6084 0.88762 0.74589 0.0
C291 C 0.60275 0.9201 0.73584 0.0
C292 C 0.59875 0.02802 0.6757 0.0
C293 C 0.61711 0.00788 0.65907 0.0
C294 C 0.61473 0.00993 0.63241 0.0
C295 C 0.59297 0.03137 0.62192 0.0
C296 C 0.57498 0.05167 0.63854 0.0
C297 C 0.57816 0.0503 0.66507 0.0
C298 C 0.59092 0.08557 0.7615 0.0
C299 C 0.60728 0.12847 0.75119 0.0
C300 C 0.57415 0.2978 0.11769 0.0
C301 C 0.56278 0.29602 0.1442 0.0
C302 C 0.5159 0.29501 0.15232 0.0
C303 C 0.49104 0.30685 0.13542 0.0
H304 H 0.5145 0.434 0.15094 0.0
H305 H 0.51655 0.49608 0.17427 0.0
H306 H 0.54071 0.56294 0.10258 0.0
H307 H 0.54083 0.50305 0.07987 0.0
H308 H 0.44995 0.39853 0.02869 0.0
H309 H 0.47236 0.42642 0.98508 0.0
H310 H 0.61215 0.41674 0.98179 0.0
H311 H 0.58907 0.38836 0.02592 0.0
H312 H 0.56417 0.31648 0.08112 0.0
H313 H 0.60921 0.29795 0.11046 0.0
H314 H 0.5043 0.29173 0.17241 0.0
H315 H 0.46094 0.31245 0.14291 0.0
N316 N 0.51176 0.38651 0.11028 0.0
N317 N 0.51743 0.42188 0.0726 0.0
N318 N 0.51039 0.35244 0.07023 0.0
C319 C 0.51733 0.42228 0.09851 0.0
C320 C 0.51372 0.38726 0.05838 0.0
C321 C 0.50773 0.35126 0.09633 0.0
C322 C 0.52544 0.46254 0.11343 0.0
C323 C 0.52137 0.46262 0.14032 0.0
C324 C 0.52286 0.49836 0.15371 0.0
C325 C 0.52804 0.53436 0.1404 0.0
C326 C 0.53735 0.53647 0.11377 0.0
C327 C 0.53612 0.50115 0.10051 0.0
C328 C 0.51756 0.39108 0.03043 0.0
C329 C 0.48411 0.40081 0.01832 0.0
C330 C 0.49702 0.4168 0.99337 0.0
C331 C 0.54427 0.42404 0.98009 0.0
C332 C 0.57577 0.41175 0.9917 0.0
C333 C 0.56212 0.39494 0.01672 0.0
C334 C 0.51146 0.31822 0.11008 0.0
C335 C 0.54846 0.30877 0.1007 0.0
C336 C 0.42323 0.54941 0.16869 0.0
C337 C 0.43808 0.58767 0.15386 0.0
H338 H 0.44136 0.50215 0.1763 0.0
C339 C 0.49481 0.61883 0.14257 0.0
H340 H 0.37991 0.52511 0.17783 0.0
C341 C 0.53135 0.60646 0.14229 0.0
C342 C 0.51008 0.56172 0.15232 0.0
H343 H 0.50772 0.64926 0.1315 0.0
H344 H 0.57217 0.62823 0.13124 0.0
C345 C 0.45892 0.53629 0.16785 0.0
C346 C 0.75806 0.23003 0.46342 0.0
C347 C 0.76284 0.19367 0.46662 0.0
H348 H 0.80371 0.30595 0.45681 0.0
C349 C 0.82058 0.20835 0.46686 0.0
H350 H 0.71445 0.22027 0.46321 0.0
C351 C 0.87181 0.25753 0.46294 0.0
C352 C 0.86692 0.29366 0.4591 0.0
H353 H 0.82615 0.18151 0.46921 0.0
H354 H 0.91537 0.2672 0.46258 0.0
C355 C 0.80938 0.27936 0.45992 0.0
C356 C 0.686 0.84331 0.80767 0.0
C357 C 0.64706 0.793 0.7998 0.0
H358 H 0.70859 0.91345 0.80511 0.0
C359 C 0.5984 0.77497 0.78343 0.0
H360 H 0.72448 0.85881 0.81994 0.0
C361 C 0.58965 0.80648 0.77477 0.0
C362 C 0.62906 0.85683 0.78237 0.0
H363 H 0.56671 0.73635 0.77736 0.0
H364 H 0.55176 0.79133 0.76216 0.0
C365 C 0.67697 0.87475 0.79915 0.0
C366 C 0.70864 0.33384 0.16564 0.0
C367 C 0.73099 0.37708 0.18009 0.0
H368 H 0.63458 0.27109 0.14379 0.0
C369 C 0.69045 0.38269 0.18954 0.0
H370 H 0.73868 0.3279 0.15866 0.0
C371 C 0.63096 0.35036 0.18091 0.0
C372 C 0.61127 0.31208 0.1626 0.0
H373 H 0.70608 0.41532 0.20093 0.0
H374 H 0.60341 0.35988 0.18594 0.0
C375 C 0.64894 0.30125 0.15712 0.0
C376 C 0.43629 0.84302 0.46476 0.0
C377 C 0.43419 0.88062 0.46061 0.0
H378 H 0.38826 0.76522 0.46434 0.0
C379 C 0.37827 0.86682 0.45465 0.0
H380 H 0.47848 0.85215 0.46943 0.0
C381 C 0.32634 0.81704 0.45223 0.0
C382 C 0.32853 0.77916 0.45528 0.0
H383 H 0.37448 0.89457 0.45174 0.0
H384 H 0.28435 0.80832 0.44766 0.0
C385 C 0.38425 0.79299 0.46204 0.0
C386 C 0.59525 0.25799 0.81375 0.0
C387 C 0.5384 0.23675 0.82375 0.0
H388 H 0.65138 0.24604 0.79561 0.0
C389 C 0.49522 0.18506 0.82467 0.0
H390 H 0.6302 0.29765 0.81335 0.0
C391 C 0.50773 0.15538 0.81469 0.0
C392 C 0.56357 0.17678 0.8035 0.0
H393 H 0.4509 0.1674 0.83212 0.0
H394 H 0.47278 0.11568 0.81467 0.0
C395 C 0.60757 0.22843 0.80369 0.0
C396 C 0.60604 0.7688 0.50023 0.0
C397 C 0.6515 0.81639 0.511 0.0
H398 H 0.56296 0.69197 0.50011 0.0
C399 C 0.68919 0.82265 0.53018 0.0
H400 H 0.57655 0.76293 0.4853 0.0
C401 C 0.68149 0.78238 0.53857 0.0
C402 C 0.63594 0.73475 0.52798 0.0
H403 H 0.72418 0.85871 0.53908 0.0
H404 H 0.71141 0.78858 0.55338 0.0
C405 C 0.59858 0.72833 0.50853 0.0
C406 C 0.81229 0.56479 0.8391 0.0
C407 C 0.75197 0.52141 0.84243 0.0
H408 H 0.90609 0.59995 0.83735 0.0
C409 C 0.74397 0.47854 0.84688 0.0
H410 H 0.82185 0.59891 0.83554 0.0
C411 C 0.7932 0.47906 0.84809 0.0
C412 C 0.85384 0.52256 0.84497 0.0
H413 H 0.69911 0.44401 0.84964 0.0
H414 H 0.78323 0.44494 0.85202 0.0
C415 C 0.86155 0.56536 0.84034 0.0
C416 C 0.25631 0.73505 0.15806 0.0
C417 C 0.25845 0.698 0.14998 0.0
H418 H 0.30561 0.81208 0.16683 0.0
C419 C 0.31457 0.71221 0.14342 0.0
H420 H 0.21399 0.72564 0.16318 0.0
C421 C 0.3672 0.76186 0.14559 0.0
C422 C 0.36521 0.79885 0.15407 0.0
H423 H 0.31812 0.68484 0.13708 0.0
H424 H 0.40967 0.77129 0.14078 0.0
C425 C 0.30888 0.78479 0.15994 0.0
C426 C 0.52343 0.27564 0.48122 0.0
C427 C 0.56938 0.27298 0.47972 0.0
H428 H 0.49799 0.31787 0.49389 0.0
C429 C 0.62746 0.31423 0.48833 0.0
H430 H 0.47805 0.24447 0.47503 0.0
C431 C 0.63861 0.35597 0.49935 0.0
C432 C 0.59216 0.35777 0.50179 0.0
H433 H 0.66429 0.31404 0.48692 0.0
H434 H 0.68351 0.38666 0.50634 0.0
C435 C 0.53478 0.31767 0.49206 0.0
C436 C 0.43905 0.55277 0.84024 0.0
C437 C 0.4319 0.51009 0.84418 0.0
H438 H 0.39938 0.58693 0.83907 0.0
C439 C 0.37262 0.46732 0.84973 0.0
H440 H 0.48312 0.58689 0.83594 0.0
C441 C 0.32376 0.46728 0.85153 0.0
C442 C 0.33071 0.51 0.84784 0.0
H443 H 0.36363 0.4333 0.85288 0.0
H444 H 0.2799 0.4329 0.85567 0.0
C445 C 0.39004 0.5527 0.84192 0.0
C446 C 0.89046 0.3697 0.15816 0.0
C447 C 0.94033 0.38182 0.1447 0.0
H448 H 0.80361 0.31356 0.17311 0.0
C449 C 0.93752 0.34295 0.1347 0.0
H450 H 0.89054 0.39821 0.16624 0.0
C451 C 0.88701 0.29342 0.13906 0.0
C452 C 0.83823 0.28172 0.15349 0.0
H453 H 0.97504 0.35079 0.12425 0.0
H454 H 0.88732 0.26453 0.13207 0.0
C455 C 0.84034 0.32072 0.1623 0.0
C456 C 0.08069 0.51361 0.06083 0.0
C457 C 0.08261 0.55072 0.07285 0.0
H458 H 0.08221 0.48144 0.02543 0.0
C459 C 0.08944 0.58547 0.05765 0.0
H460 H 0.07566 0.48638 0.07207 0.0
C461 C 0.09329 0.58272 0.03093 0.0
C462 C 0.09077 0.5453 0.0188 0.0
H463 H 0.09142 0.61466 0.06638 0.0
H464 H 0.09862 0.61015 0.01977 0.0
C465 C 0.08487 0.511 0.03412 0.0
C466 C 0.67412 0.06554 0.37757 0.0
C467 C 0.62234 0.03849 0.39261 0.0
H468 H 0.71052 0.08659 0.33996 0.0
C469 C 0.56591 0.01227 0.38066 0.0
H470 H 0.71821 0.08609 0.38627 0.0
C471 C 0.56145 0.01252 0.35401 0.0
C472 C 0.61339 0.03938 0.33893 0.0
H473 H 0.52528 0.99116 0.39186 0.0
H474 H 0.51746 0.99198 0.34521 0.0
C475 C 0.66973 0.06604 0.35105 0.0
C476 C 0.57381 0.46318 0.74601 0.0
C477 C 0.594 0.49977 0.76532 0.0
H478 H 0.56915 0.44565 0.70604 0.0
C479 C 0.62806 0.54893 0.75854 0.0
H480 H 0.54732 0.42491 0.75064 0.0
C481 C 0.641 0.56102 0.7327 0.0
C482 C 0.62041 0.52412 0.71336 0.0
H483 H 0.64392 0.57775 0.77308 0.0
H484 H 0.66712 0.59913 0.72786 0.0
C485 C 0.58681 0.47515 0.72041 0.0
C486 C 0.63049 0.0513 0.55107 0.0
C487 C 0.57659 0.03597 0.54056 0.0
H488 H 0.67779 0.06131 0.58522 0.0
C489 C 0.52797 0.01785 0.55682 0.0
H490 H 0.66867 0.06545 0.53894 0.0
C491 C 0.53338 0.01603 0.58314 0.0
C492 C 0.58729 0.03169 0.59377 0.0
H493 H 0.48577 1.00555 0.54927 0.0
H494 H 0.49522 1.00222 0.59523 0.0
C495 C 0.63564 0.04879 0.57747 0.0
C496 C 0.53577 0.46174 0.9152 0.0
C497 C 0.59612 0.50285 0.91102 0.0
H498 H 0.47239 0.40357 0.93987 0.0
C499 C 0.64017 0.51577 0.92876 0.0
H500 H 0.50088 0.45076 0.90174 0.0
C501 C 0.62374 0.48859 0.95071 0.0
C502 C 0.56301 0.44828 0.95522 0.0
H503 H 0.68704 0.54717 0.92586 0.0
H504 H 0.65819 0.50029 0.96461 0.0
C505 C 0.51943 0.43465 0.937 0.0
C506 C 0.11759 0.56122 0.23053 0.0
C507 C 0.11461 0.52455 0.21725 0.0
H508 H 0.11429 0.5896 0.26696 0.0
C509 C 0.10543 0.48737 0.23108 0.0
H510 H 0.12427 0.59014 0.22031 0.0
C511 C 0.10009 0.48715 0.25774 0.0
C512 C 0.10368 0.52407 0.27119 0.0
H513 H 0.10286 0.45856 0.22131 0.0
H514 H 0.09445 0.45859 0.26785 0.0
C515 C 0.11213 0.56097 0.25724 0.0
loop_
_geom_bond_atom_site_label_1
_geom_bond_atom_site_label_2
_geom_bond_distance
_geom_bond_site_symmetry_2
_ccdc_geom_bond_type
Sm0 C2 2.846 . S
Sm0 O20 2.543 . S
Sm0 O21 2.450 . S
Sm0 O22 2.681 . S
Sm0 O23 2.464 . S
Sm0 O24 2.396 . S
Sm0 O28 2.386 . S
Sm0 O31 2.408 1_455 S
Sm1 C11 2.846 . S
Sm1 O22 2.386 1_655 S
Sm1 O25 2.408 1_655 S
Sm1 O26 2.543 . S
Sm1 O27 2.450 . S
Sm1 O28 2.681 1_655 S
Sm1 O29 2.464 . S
Sm1 O30 2.396 . S
C2 Sm0 2.846 . S
C2 C3 1.506 . S
C2 O20 1.261 . S
C2 O21 1.242 . S
C3 C2 1.506 . S
C3 C4 1.358 . S
C3 C8 1.382 . S
C4 C3 1.358 . S
C4 C5 1.385 . S
C4 H32 0.930 . S
C5 C4 1.385 . S
C5 C6 1.395 . S
C5 H33 0.929 . S
C6 C5 1.395 . S
C6 C7 1.335 . S
C7 C6 1.335 . S
C7 C8 1.398 . S
C7 H34 0.930 . S
C8 C3 1.382 . S
C8 C7 1.398 . S
C8 H35 0.929 . S
C9 O22 1.271 . S
C9 O23 1.251 . S
C10 O24 1.252 . S
C10 O25 1.272 . S
C11 Sm1 2.846 . S
C11 C12 1.506 . S
C11 O26 1.261 . S
C11 O27 1.242 . S
C12 C11 1.506 . S
C12 C13 1.358 . S
C12 C17 1.382 . S
C13 C12 1.358 . S
C13 C14 1.385 . S
C13 H36 0.930 . S
C14 C13 1.385 . S
C14 C15 1.395 . S
C14 H37 0.929 . S
C15 C14 1.395 . S
C15 C16 1.335 . S
C16 C15 1.335 . S
C16 C17 1.398 . S
C16 H38 0.930 . S
C17 C12 1.382 . S
C17 C16 1.398 . S
C17 H39 0.929 . S
C18 O28 1.271 . S
C18 O29 1.251 1_455 S
C19 O30 1.252 . S
C19 O31 1.272 . S
O20 Sm0 2.543 . S
O20 C2 1.261 . S
O21 Sm0 2.450 . S
O21 C2 1.242 . S
O22 Sm0 2.681 . S
O22 Sm1 2.386 1_455 S
O22 C9 1.271 . S
O23 Sm0 2.464 . S
O23 C9 1.251 . S
O24 Sm0 2.396 . S
O24 C10 1.252 . S
O25 Sm1 2.408 1_455 S
O25 C10 1.272 . S
O26 Sm1 2.543 . S
O26 C11 1.261 . S
O27 Sm1 2.450 . S
O27 C11 1.242 . S
O28 Sm0 2.386 . S
O28 Sm1 2.681 1_455 S
O28 C18 1.271 . S
O29 Sm1 2.464 . S
O29 C18 1.251 1_655 S
O30 Sm1 2.396 . S
O30 C19 1.252 . S
O31 Sm0 2.408 1_655 S
O31 C19 1.272 . S
H32 C4 0.930 . S
H33 C5 0.929 . S
H34 C7 0.930 . S
H35 C8 0.929 . S
H36 C13 0.930 . S
H37 C14 0.929 . S
H38 C16 0.930 . S
H39 C17 0.929 . S
Sm40 C42 2.846 . S
Sm40 O60 2.543 . S
Sm40 O61 2.450 . S
Sm40 O62 2.681 1_565 S
Sm40 O63 2.464 . S
Sm40 O64 2.396 . S
Sm40 O68 2.386 . S
Sm40 O71 2.408 1_565 S
Sm41 C51 2.846 . S
Sm41 O62 2.386 . S
Sm41 O65 2.408 1_545 S
Sm41 O66 2.543 . S
Sm41 O67 2.450 . S
Sm41 O68 2.681 1_545 S
Sm41 O69 2.464 . S
Sm41 O70 2.396 . S
C42 Sm40 2.846 . S
C42 C43 1.506 . S
C42 O60 1.261 . S
C42 O61 1.242 . S
C43 C42 1.506 . S
C43 C44 1.358 . S
C43 C48 1.382 . S
C44 C43 1.358 . S
C44 C45 1.385 . S
C44 H72 0.930 . S
C45 C44 1.385 . S
C45 C46 1.395 . S
C45 H73 0.929 . S
C46 C45 1.395 . S
C46 C47 1.335 . S
C47 C46 1.335 . S
C47 C48 1.398 . S
C47 H74 0.930 . S
C48 C43 1.382 . S
C48 C47 1.398 . S
C48 H75 0.929 . S
C49 O62 1.271 . S
C49 O63 1.251 1_545 S
C50 O64 1.252 . S
C50 O65 1.272 . S
C51 Sm41 2.846 . S
C51 C52 1.506 . S
C51 O66 1.261 . S
C51 O67 1.242 . S
C52 C51 1.506 . S
C52 C53 1.358 . S
C52 C57 1.382 . S
C53 C52 1.358 . S
C53 C54 1.385 . S
C53 H76 0.930 . S
C54 C53 1.385 . S
C54 C55 1.395 . S
C54 H77 0.929 . S
C55 C54 1.395 . S
C55 C56 1.335 . S
C56 C55 1.335 . S
C56 C57 1.398 . S
C56 H78 0.930 . S
C57 C52 1.382 . S
C57 C56 1.398 . S
C57 H79 0.929 . S
C58 O68 1.271 1_545 S
C58 O69 1.251 . S
C59 O70 1.252 . S
C59 O71 1.272 . S
O60 Sm40 2.543 . S
O60 C42 1.261 . S
O61 Sm40 2.450 . S
O61 C42 1.242 . S
O62 Sm40 2.681 1_545 S
O62 Sm41 2.386 . S
O62 C49 1.271 . S
O63 Sm40 2.464 . S
O63 C49 1.251 1_565 S
O64 Sm40 2.396 . S
O64 C50 1.252 . S
O65 Sm41 2.408 1_565 S
O65 C50 1.272 . S
O66 Sm41 2.543 . S
O66 C51 1.261 . S
O67 Sm41 2.450 . S
O67 C51 1.242 . S
O68 Sm40 2.386 . S
O68 Sm41 2.681 1_565 S
O68 C58 1.271 1_565 S
O69 Sm41 2.464 . S
O69 C58 1.251 . S
O70 Sm41 2.396 . S
O70 C59 1.252 . S
O71 Sm40 2.408 1_545 S
O71 C59 1.272 . S
H72 C44 0.930 . S
H73 C45 0.929 . S
H74 C47 0.930 . S
H75 C48 0.929 . S
H76 C53 0.930 . S
H77 C54 0.929 . S
H78 C56 0.930 . S
H79 C57 0.929 . S
Sm80 C82 2.846 . S
Sm80 O100 2.543 . S
Sm80 O101 2.450 . S
Sm80 O102 2.681 . S
Sm80 O103 2.464 . S
Sm80 O104 2.396 . S
Sm80 O108 2.386 . S
Sm80 O111 2.408 . S
Sm81 C91 2.846 . S
Sm81 O102 2.386 . S
Sm81 O105 2.408 . S
Sm81 O106 2.543 . S
Sm81 O107 2.450 . S
Sm81 O108 2.681 . S
Sm81 O109 2.464 . S
Sm81 O110 2.396 . S
C82 Sm80 2.846 . S
C82 C83 1.506 . S
C82 O100 1.261 . S
C82 O101 1.242 . S
C83 C82 1.506 . S
C83 C84 1.358 . S
C83 C88 1.382 . S
C84 C83 1.358 . S
C84 C85 1.385 . S
C84 H112 0.930 . S
C85 C84 1.385 . S
C85 C86 1.395 . S
C85 H113 0.929 . S
C86 C85 1.395 . S
C86 C87 1.335 . S
C87 C86 1.335 . S
C87 C88 1.398 . S
C87 H114 0.930 . S
C88 C83 1.382 . S
C88 C87 1.398 . S
C88 H115 0.929 . S
C89 O102 1.271 . S
C89 O103 1.251 . S
C90 O104 1.252 . S
C90 O105 1.272 . S
C91 Sm81 2.846 . S
C91 C92 1.506 . S
C91 O106 1.261 . S
C91 O107 1.242 . S
C92 C91 1.506 . S
C92 C93 1.358 . S
C92 C97 1.382 . S
C93 C92 1.358 . S
C93 C94 1.385 . S
C93 H116 0.930 . S
C94 C93 1.385 . S
C94 C95 1.395 . S
C94 H117 0.929 . S
C95 C94 1.395 . S
C95 C96 1.335 . S
C96 C95 1.335 . S
C96 C97 1.398 . S
C96 H118 0.930 . S
C97 C92 1.382 . S
C97 C96 1.398 . S
C97 H119 0.929 . S
C98 O108 1.271 . S
C98 O109 1.251 . S
C99 O110 1.252 . S
C99 O111 1.272 . S
O100 Sm80 2.543 . S
O100 C82 1.261 . S
O101 Sm80 2.450 . S
O101 C82 1.242 . S
O102 Sm80 2.681 . S
O102 Sm81 2.386 . S
O102 C89 1.271 . S
O103 Sm80 2.464 . S
O103 C89 1.251 . S
O104 Sm80 2.396 . S
O104 C90 1.252 . S
O105 Sm81 2.408 . S
O105 C90 1.272 . S
O106 Sm81 2.543 . S
O106 C91 1.261 . S
O107 Sm81 2.450 . S
O107 C91 1.242 . S
O108 Sm80 2.386 . S
O108 Sm81 2.681 . S
O108 C98 1.271 . S
O109 Sm81 2.464 . S
O109 C98 1.251 . S
O110 Sm81 2.396 . S
O110 C99 1.252 . S
O111 Sm80 2.408 . S
O111 C99 1.272 . S
H112 C84 0.930 . S
H113 C85 0.929 . S
H114 C87 0.930 . S
H115 C88 0.929 . S
H116 C93 0.930 . S
H117 C94 0.929 . S
H118 C96 0.930 . S
H119 C97 0.929 . S
C120 C121 1.384 . S
C120 H133 0.947 . S
C120 C155 1.382 . S
C121 C120 1.384 . S
C121 C122 1.378 . S
C122 C121 1.378 . S
C122 C123 1.378 . S
C122 H134 0.952 . S
C123 C122 1.378 . S
C123 H135 0.950 . S
C123 C154 1.383 . S
H124 C143 0.947 . S
H125 C144 0.946 . S
H126 C146 0.953 . S
H127 C147 0.945 . S
H128 C149 0.952 . S
H129 C150 0.949 . S
H130 C152 0.950 . S
H131 C153 0.948 . S
H132 C155 0.951 . S
H133 C120 0.947 . S
H134 C122 0.952 . S
H135 C123 0.950 . S
N136 C139 1.382 . S
N136 C141 1.363 1_545 S
N137 C139 1.371 . S
N137 C140 1.372 . S
N138 C140 1.361 1_565 S
N138 C141 1.377 . S
C139 N136 1.382 . S
C139 N137 1.371 . S
C139 C142 1.480 . S
C140 N137 1.372 . S
C140 N138 1.361 1_545 S
C140 C148 1.457 . S
C141 N136 1.363 1_565 S
C141 N138 1.377 . S
C141 C154 1.479 . S
C142 C139 1.480 . S
C142 C143 1.383 . S
C142 C147 1.385 . S
C143 H124 0.947 . S
C143 C142 1.383 . S
C143 C144 1.388 . S
C144 H125 0.946 . S
C144 C143 1.388 . S
C144 C145 1.384 . S
C145 C144 1.384 . S
C145 C146 1.377 . S
C146 H126 0.953 . S
C146 C145 1.377 . S
C146 C147 1.369 . S
C147 H127 0.945 . S
C147 C142 1.385 . S
C147 C146 1.369 . S
C148 C140 1.457 . S
C148 C149 1.372 . S
C148 C153 1.364 1_545 S
C149 H128 0.952 . S
C149 C148 1.372 . S
C149 C150 1.389 . S
C150 H129 0.949 . S
C150 C149 1.389 . S
C150 C151 1.387 . S
C151 C150 1.387 . S
C151 C152 1.372 1_545 S
C152 H130 0.950 . S
C152 C151 1.372 1_565 S
C152 C153 1.379 . S
C153 H131 0.948 . S
C153 C148 1.364 1_565 S
C153 C152 1.379 . S
C154 C123 1.383 . S
C154 C141 1.479 . S
C154 C155 1.398 . S
C155 C120 1.382 . S
C155 H132 0.951 . S
C155 C154 1.398 . S
C156 C157 1.384 . S
C156 H169 0.947 . S
C156 C191 1.382 . S
C157 C156 1.384 . S
C157 C158 1.378 . S
C158 C157 1.378 . S
C158 C159 1.378 . S
C158 H170 0.952 . S
C159 C158 1.378 . S
C159 H171 0.950 . S
C159 C190 1.383 . S
H160 C179 0.947 . S
H161 C180 0.946 . S
H162 C182 0.953 . S
H163 C183 0.945 . S
H164 C185 0.952 . S
H165 C186 0.949 . S
H166 C188 0.950 . S
H167 C189 0.948 . S
H168 C191 0.951 . S
H169 C156 0.947 . S
H170 C158 0.952 . S
H171 C159 0.950 . S
N172 C175 1.382 . S
N172 C177 1.363 . S
N173 C175 1.371 . S
N173 C176 1.372 . S
N174 C176 1.361 . S
N174 C177 1.377 . S
C175 N172 1.382 . S
C175 N173 1.371 . S
C175 C178 1.480 . S
C176 N173 1.372 . S
C176 N174 1.361 . S
C176 C184 1.457 . S
C177 N172 1.363 . S
C177 N174 1.377 . S
C177 C190 1.479 . S
C178 C175 1.480 . S
C178 C179 1.383 . S
C178 C183 1.385 . S
C179 H160 0.947 . S
C179 C178 1.383 . S
C179 C180 1.388 . S
C180 H161 0.946 . S
C180 C179 1.388 . S
C180 C181 1.384 . S
C181 C180 1.384 . S
C181 C182 1.377 . S
C182 H162 0.953 . S
C182 C181 1.377 . S
C182 C183 1.369 . S
C183 H163 0.945 . S
C183 C178 1.385 . S
C183 C182 1.369 . S
C184 C176 1.457 . S
C184 C185 1.372 . S
C184 C189 1.364 . S
C185 H164 0.952 . S
C185 C184 1.372 . S
C185 C186 1.389 . S
C186 H165 0.949 . S
C186 C185 1.389 . S
C186 C187 1.387 . S
C187 C186 1.387 . S
C187 C188 1.372 . S
C188 H166 0.950 . S
C188 C187 1.372 . S
C188 C189 1.379 . S
C189 H167 0.948 . S
C189 C184 1.364 . S
C189 C188 1.379 . S
C190 C159 1.383 . S
C190 C177 1.479 . S
C190 C191 1.398 . S
C191 C156 1.382 . S
C191 H168 0.951 . S
C191 C190 1.398 . S
C192 C193 1.384 . S
C192 H205 0.947 . S
C192 C227 1.382 . S
C193 C192 1.384 . S
C193 C194 1.378 . S
C194 C193 1.378 . S
C194 C195 1.378 . S
C194 H206 0.952 . S
C195 C194 1.378 . S
C195 H207 0.950 . S
C195 C226 1.383 . S
H196 C215 0.947 . S
H197 C216 0.946 . S
H198 C218 0.953 . S
H199 C219 0.945 . S
H200 C221 0.952 . S
H201 C222 0.949 . S
H202 C224 0.950 . S
H203 C225 0.948 . S
H204 C227 0.951 . S
H205 C192 0.947 . S
H206 C194 0.952 . S
H207 C195 0.950 . S
N208 C211 1.382 . S
N208 C213 1.363 . S
N209 C211 1.371 . S
N209 C212 1.372 . S
N210 C212 1.361 . S
N210 C213 1.377 . S
C211 N208 1.382 . S
C211 N209 1.371 . S
C211 C214 1.480 . S
C212 N209 1.372 . S
C212 N210 1.361 . S
C212 C220 1.457 . S
C213 N208 1.363 . S
C213 N210 1.377 . S
C213 C226 1.479 1_455 S
C214 C211 1.480 . S
C214 C215 1.383 . S
C214 C219 1.385 . S
C215 H196 0.947 . S
C215 C214 1.383 . S
C215 C216 1.388 . S
C216 H197 0.946 . S
C216 C215 1.388 . S
C216 C217 1.384 . S
C217 C216 1.384 . S
C217 C218 1.377 . S
C218 H198 0.953 . S
C218 C217 1.377 . S
C218 C219 1.369 . S
C219 H199 0.945 . S
C219 C214 1.385 . S
C219 C218 1.369 . S
C220 C212 1.457 . S
C220 C221 1.372 . S
C220 C225 1.364 1_455 S
C221 H200 0.952 . S
C221 C220 1.372 . S
C221 C222 1.389 . S
C222 H201 0.949 . S
C222 C221 1.389 . S
C222 C223 1.387 . S
C223 C222 1.387 . S
C223 C224 1.372 1_455 S
C224 H202 0.950 . S
C224 C223 1.372 1_655 S
C224 C225 1.379 . S
C225 H203 0.948 . S
C225 C220 1.364 1_655 S
C225 C224 1.379 . S
C226 C195 1.383 . S
C226 C213 1.479 1_655 S
C226 C227 1.398 . S
C227 C192 1.382 . S
C227 H204 0.951 . S
C227 C226 1.398 . S
C228 C229 1.384 . S
C228 H241 0.947 . S
C228 C263 1.382 . S
C229 C228 1.384 . S
C229 C230 1.378 . S
C230 C229 1.378 . S
C230 C231 1.378 . S
C230 H242 0.952 . S
C231 C230 1.378 . S
C231 H243 0.950 . S
C231 C262 1.383 . S
H232 C251 0.947 . S
H233 C252 0.946 . S
H234 C254 0.953 . S
H235 C255 0.945 . S
H236 C257 0.952 . S
H237 C258 0.949 . S
H238 C260 0.950 . S
H239 C261 0.948 . S
H240 C263 0.951 . S
H241 C228 0.947 . S
H242 C230 0.952 . S
H243 C231 0.950 . S
N244 C247 1.382 1_455 S
N244 C249 1.363 . S
N245 C247 1.371 . S
N245 C248 1.372 1_655 S
N246 C248 1.361 . S
N246 C249 1.377 . S
C247 N244 1.382 1_655 S
C247 N245 1.371 . S
C247 C250 1.480 . S
C248 N245 1.372 1_455 S
C248 N246 1.361 . S
C248 C256 1.457 . S
C249 N244 1.363 . S
C249 N246 1.377 . S
C249 C262 1.479 . S
C250 C247 1.480 . S
C250 C251 1.383 . S
C250 C255 1.385 . S
C251 H232 0.947 . S
C251 C250 1.383 . S
C251 C252 1.388 . S
C252 H233 0.946 . S
C252 C251 1.388 . S
C252 C253 1.384 . S
C253 C252 1.384 . S
C253 C254 1.377 . S
C254 H234 0.953 . S
C254 C253 1.377 . S
C254 C255 1.369 . S
C255 H235 0.945 . S
C255 C250 1.385 . S
C255 C254 1.369 . S
C256 C248 1.457 . S
C256 C257 1.372 1_455 S
C256 C261 1.364 . S
C257 H236 0.952 . S
C257 C256 1.372 1_655 S
C257 C258 1.389 . S
C258 H237 0.949 . S
C258 C257 1.389 . S
C258 C259 1.387 1_655 S
C259 C258 1.387 1_455 S
C259 C260 1.372 . S
C260 H238 0.950 . S
C260 C259 1.372 . S
C260 C261 1.379 . S
C261 H239 0.948 . S
C261 C256 1.364 . S
C261 C260 1.379 . S
C262 C231 1.383 . S
C262 C249 1.479 . S
C262 C263 1.398 . S
C263 C228 1.382 . S
C263 H240 0.951 . S
C263 C262 1.398 . S
C264 C265 1.384 . S
C264 H277 0.947 . S
C264 C299 1.382 . S
C265 C264 1.384 . S
C265 C266 1.378 . S
C266 C265 1.378 . S
C266 C267 1.378 . S
C266 H278 0.952 . S
C267 C266 1.378 . S
C267 H279 0.950 . S
C267 C298 1.383 . S
H268 C287 0.947 . S
H269 C288 0.946 . S
H270 C290 0.953 . S
H271 C291 0.945 . S
H272 C293 0.952 . S
H273 C294 0.949 . S
H274 C296 0.950 . S
H275 C297 0.948 . S
H276 C299 0.951 . S
H277 C264 0.947 . S
H278 C266 0.952 . S
H279 C267 0.950 . S
N280 C283 1.382 1_545 S
N280 C285 1.363 . S
N281 C283 1.371 . S
N281 C284 1.372 1_565 S
N282 C284 1.361 . S
N282 C285 1.377 . S
C283 N280 1.382 1_565 S
C283 N281 1.371 . S
C283 C286 1.480 . S
C284 N281 1.372 1_545 S
C284 N282 1.361 . S
C284 C292 1.457 . S
C285 N280 1.363 . S
C285 N282 1.377 . S
C285 C298 1.479 . S
C286 C283 1.480 . S
C286 C287 1.383 . S
C286 C291 1.385 . S
C287 H268 0.947 . S
C287 C286 1.383 . S
C287 C288 1.388 . S
C288 H269 0.946 . S
C288 C287 1.388 . S
C288 C289 1.384 . S
C289 C288 1.384 . S
C289 C290 1.377 . S
C290 H270 0.953 . S
C290 C289 1.377 . S
C290 C291 1.369 . S
C291 H271 0.945 . S
C291 C286 1.385 . S
C291 C290 1.369 . S
C292 C284 1.457 . S
C292 C293 1.372 1_545 S
C292 C297 1.364 . S
C293 H272 0.952 . S
C293 C292 1.372 1_565 S
C293 C294 1.389 . S
C294 H273 0.949 . S
C294 C293 1.389 . S
C294 C295 1.387 . S
C295 C294 1.387 . S
C295 C296 1.372 1_565 S
C296 H274 0.950 . S
C296 C295 1.372 1_545 S
C296 C297 1.379 . S
C297 H275 0.948 . S
C297 C292 1.364 . S
C297 C296 1.379 . S
C298 C267 1.383 . S
C298 C285 1.479 . S
C298 C299 1.398 . S
C299 C264 1.382 . S
C299 H276 0.951 . S
C299 C298 1.398 . S
C300 C301 1.384 . S
C300 H313 0.947 . S
C300 C335 1.382 . S
C301 C300 1.384 . S
C301 C302 1.378 . S
C302 C301 1.378 . S
C302 C303 1.378 . S
C302 H314 0.952 . S
C303 C302 1.378 . S
C303 H315 0.950 . S
C303 C334 1.383 . S
H304 C323 0.947 . S
H305 C324 0.946 . S
H306 C326 0.953 . S
H307 C327 0.945 . S
H308 C329 0.952 . S
H309 C330 0.949 . S
H310 C332 0.950 . S
H311 C333 0.948 . S
H312 C335 0.951 . S
H313 C300 0.947 . S
H314 C302 0.952 . S
H315 C303 0.950 . S
N316 C319 1.382 . S
N316 C321 1.363 . S
N317 C319 1.371 . S
N317 C320 1.372 . S
N318 C320 1.361 . S
N318 C321 1.377 . S
C319 N316 1.382 . S
C319 N317 1.371 . S
C319 C322 1.480 . S
C320 N317 1.372 . S
C320 N318 1.361 . S
C320 C328 1.457 . S
C321 N316 1.363 . S
C321 N318 1.377 . S
C321 C334 1.479 . S
C322 C319 1.480 . S
C322 C323 1.383 . S
C322 C327 1.385 . S
C323 H304 0.947 . S
C323 C322 1.383 . S
C323 C324 1.388 . S
C324 H305 0.946 . S
C324 C323 1.388 . S
C324 C325 1.384 . S
C325 C324 1.384 . S
C325 C326 1.377 . S
C326 H306 0.953 . S
C326 C325 1.377 . S
C326 C327 1.369 . S
C327 H307 0.945 . S
C327 C322 1.385 . S
C327 C326 1.369 . S
C328 C320 1.457 . S
C328 C329 1.372 . S
C328 C333 1.364 . S
C329 H308 0.952 . S
C329 C328 1.372 . S
C329 C330 1.389 1_554 S
C330 H309 0.949 . S
C330 C329 1.389 1_556 S
C330 C331 1.387 . S
C331 C330 1.387 . S
C331 C332 1.372 . S
C332 H310 0.950 . S
C332 C331 1.372 . S
C332 C333 1.379 1_556 S
C333 H311 0.948 . S
C333 C328 1.364 . S
C333 C332 1.379 1_554 S
C334 C303 1.383 . S
C334 C321 1.479 . S
C334 C335 1.398 . S
C335 C300 1.382 . S
C335 H312 0.951 . S
C335 C334 1.398 . S
C336 C337 1.387 . S
C336 H340 0.950 . S
C336 C345 1.390 . S
C337 C336 1.387 . S
C337 C339 1.387 . S
H338 C345 0.950 . S
C339 C337 1.387 . S
C339 C341 1.390 . S
C339 H343 0.950 . S
H340 C336 0.950 . S
C341 C339 1.390 . S
C341 C342 1.387 . S
C341 H344 0.950 . S
C342 C341 1.387 . S
C342 C345 1.387 . S
H343 C339 0.950 . S
H344 C341 0.950 . S
C345 C336 1.390 . S
C345 H338 0.950 . S
C345 C342 1.387 . S
C346 C347 1.387 . S
C346 H350 0.950 . S
C346 C355 1.390 . S
C347 C346 1.387 . S
C347 C349 1.387 . S
H348 C355 0.950 . S
C349 C347 1.387 . S
C349 C351 1.390 . S
C349 H353 0.950 . S
H350 C346 0.950 . S
C351 C349 1.390 . S
C351 C352 1.387 . S
C351 H354 0.950 . S
C352 C351 1.387 . S
C352 C355 1.387 . S
H353 C349 0.950 . S
H354 C351 0.950 . S
C355 C346 1.390 . S
C355 H348 0.950 . S
C355 C352 1.387 . S
C356 C357 1.387 . S
C356 H360 0.950 . S
C356 C365 1.390 . S
C357 C356 1.387 . S
C357 C359 1.387 . S
H358 C365 0.950 . S
C359 C357 1.387 . S
C359 C361 1.390 . S
C359 H363 0.950 . S
H360 C356 0.950 . S
C361 C359 1.390 . S
C361 C362 1.387 . S
C361 H364 0.950 . S
C362 C361 1.387 . S
C362 C365 1.387 . S
H363 C359 0.950 . S
H364 C361 0.950 . S
C365 C356 1.390 . S
C365 H358 0.950 . S
C365 C362 1.387 . S
C366 C367 1.387 . S
C366 H370 0.950 . S
C366 C375 1.390 . S
C367 C366 1.387 . S
C367 C369 1.387 . S
H368 C375 0.950 . S
C369 C367 1.387 . S
C369 C371 1.390 . S
C369 H373 0.950 . S
H370 C366 0.950 . S
C371 C369 1.390 . S
C371 C372 1.387 . S
C371 H374 0.950 . S
C372 C371 1.387 . S
C372 C375 1.387 . S
H373 C369 0.950 . S
H374 C371 0.950 . S
C375 C366 1.390 . S
C375 H368 0.950 . S
C375 C372 1.387 . S
C376 C377 1.387 . S
C376 H380 0.950 . S
C376 C385 1.390 . S
C377 C376 1.387 . S
C377 C379 1.387 . S
H378 C385 0.950 . S
C379 C377 1.387 . S
C379 C381 1.390 . S
C379 H383 0.950 . S
H380 C376 0.950 . S
C381 C379 1.390 . S
C381 C382 1.387 . S
C381 H384 0.950 . S
C382 C381 1.387 . S
C382 C385 1.387 . S
H383 C379 0.950 . S
H384 C381 0.950 . S
C385 C376 1.390 . S
C385 H378 0.950 . S
C385 C382 1.387 . S
C386 C387 1.387 . S
C386 H390 0.950 . S
C386 C395 1.390 . S
C387 C386 1.387 . S
C387 C389 1.387 . S
H388 C395 0.950 . S
C389 C387 1.387 . S
C389 C391 1.390 . S
C389 H393 0.950 . S
H390 C386 0.950 . S
C391 C389 1.390 . S
C391 C392 1.387 . S
C391 H394 0.950 . S
C392 C391 1.387 . S
C392 C395 1.387 . S
H393 C389 0.950 . S
H394 C391 0.950 . S
C395 C386 1.390 . S
C395 H388 0.950 . S
C395 C392 1.387 . S
C396 C397 1.387 . S
C396 H400 0.950 . S
C396 C405 1.390 . S
C397 C396 1.387 . S
C397 C399 1.387 . S
H398 C405 0.950 . S
C399 C397 1.387 . S
C399 C401 1.390 . S
C399 H403 0.950 . S
H400 C396 0.950 . S
C401 C399 1.390 . S
C401 C402 1.387 . S
C401 H404 0.950 . S
C402 C401 1.387 . S
C402 C405 1.387 . S
H403 C399 0.950 . S
H404 C401 0.950 . S
C405 C396 1.390 . S
C405 H398 0.950 . S
C405 C402 1.387 . S
C406 C407 1.387 . S
C406 H410 0.950 . S
C406 C415 1.390 . S
C407 C406 1.387 . S
C407 C409 1.387 . S
H408 C415 0.950 . S
C409 C407 1.387 . S
C409 C411 1.390 . S
C409 H413 0.950 . S
H410 C406 0.950 . S
C411 C409 1.390 . S
C411 C412 1.387 . S
C411 H414 0.950 . S
C412 C411 1.387 . S
C412 C415 1.387 . S
H413 C409 0.950 . S
H414 C411 0.950 . S
C415 C406 1.390 . S
C415 H408 0.950 . S
C415 C412 1.387 . S
C416 C417 1.387 . S
C416 H420 0.950 . S
C416 C425 1.390 . S
C417 C416 1.387 . S
C417 C419 1.387 . S
H418 C425 0.950 . S
C419 C417 1.387 . S
C419 C421 1.390 . S
C419 H423 0.950 . S
H420 C416 0.950 . S
C421 C419 1.390 . S
C421 C422 1.387 . S
C421 H424 0.950 . S
C422 C421 1.387 . S
C422 C425 1.387 . S
H423 C419 0.950 . S
H424 C421 0.950 . S
C425 C416 1.390 . S
C425 H418 0.950 . S
C425 C422 1.387 . S
C426 C427 1.387 . S
C426 H430 0.950 . S
C426 C435 1.390 . S
C427 C426 1.387 . S
C427 C429 1.387 . S
H428 C435 0.950 . S
C429 C427 1.387 . S
C429 C431 1.390 . S
C429 H433 0.950 . S
H430 C426 0.950 . S
C431 C429 1.390 . S
C431 C432 1.387 . S
C431 H434 0.950 . S
C432 C431 1.387 . S
C432 C435 1.387 . S
H433 C429 0.950 . S
H434 C431 0.950 . S
C435 C426 1.390 . S
C435 H428 0.950 . S
C435 C432 1.387 . S
C436 C437 1.387 . S
C436 H440 0.950 . S
C436 C445 1.390 . S
C437 C436 1.387 . S
C437 C439 1.387 . S
H438 C445 0.950 . S
C439 C437 1.387 . S
C439 C441 1.390 . S
C439 H443 0.950 . S
H440 C436 0.950 . S
C441 C439 1.390 . S
C441 C442 1.387 . S
C441 H444 0.950 . S
C442 C441 1.387 . S
C442 C445 1.387 . S
H443 C439 0.950 . S
H444 C441 0.950 . S
C445 C436 1.390 . S
C445 H438 0.950 . S
C445 C442 1.387 . S
C446 C447 1.387 . S
C446 H450 0.950 . S
C446 C455 1.390 . S
C447 C446 1.387 . S
C447 C449 1.387 . S
H448 C455 0.950 . S
C449 C447 1.387 . S
C449 C451 1.390 . S
C449 H453 0.950 . S
H450 C446 0.950 . S
C451 C449 1.390 . S
C451 C452 1.387 . S
C451 H454 0.950 . S
C452 C451 1.387 . S
C452 C455 1.387 . S
H453 C449 0.950 . S
H454 C451 0.950 . S
C455 C446 1.390 . S
C455 H448 0.950 . S
C455 C452 1.387 . S
C456 C457 1.387 . S
C456 H460 0.950 . S
C456 C465 1.390 . S
C457 C456 1.387 . S
C457 C459 1.387 . S
H458 C465 0.950 . S
C459 C457 1.387 . S
C459 C461 1.390 . S
C459 H463 0.950 . S
H460 C456 0.950 . S
C461 C459 1.390 . S
C461 C462 1.387 . S
C461 H464 0.950 . S
C462 C461 1.387 . S
C462 C465 1.387 . S
H463 C459 0.950 . S
H464 C461 0.950 . S
C465 C456 1.390 . S
C465 H458 0.950 . S
C465 C462 1.387 . S
C466 C467 1.387 . S
C466 H470 0.950 . S
C466 C475 1.390 . S
C467 C466 1.387 . S
C467 C469 1.387 . S
H468 C475 0.950 . S
C469 C467 1.387 . S
C469 C471 1.390 . S
C469 H473 0.950 . S
H470 C466 0.950 . S
C471 C469 1.390 . S
C471 C472 1.387 . S
C471 H474 0.950 . S
C472 C471 1.387 . S
C472 C475 1.387 . S
H473 C469 0.950 . S
H474 C471 0.950 . S
C475 C466 1.390 . S
C475 H468 0.950 . S
C475 C472 1.387 . S
C476 C477 1.387 . S
C476 H480 0.950 . S
C476 C485 1.390 . S
C477 C476 1.387 . S
C477 C479 1.387 . S
H478 C485 0.950 . S
C479 C477 1.387 . S
C479 C481 1.390 . S
C479 H483 0.950 . S
H480 C476 0.950 . S
C481 C479 1.390 . S
C481 C482 1.387 . S
C481 H484 0.950 . S
C482 C481 1.387 . S
C482 C485 1.387 . S
H483 C479 0.950 . S
H484 C481 0.950 . S
C485 C476 1.390 . S
C485 H478 0.950 . S
C485 C482 1.387 . S
C486 C487 1.387 . S
C486 H490 0.950 . S
C486 C495 1.391 . S
C487 C486 1.387 . S
C487 C489 1.387 1_545 S
H488 C495 0.944 . S
C489 C487 1.387 1_565 S
C489 C491 1.390 . S
C489 H493 0.950 . S
H490 C486 0.950 . S
C491 C489 1.390 . S
C491 C492 1.387 . S
C491 H494 0.950 . S
C492 C491 1.387 . S
C492 C495 1.392 1_565 S
H493 C489 0.950 . S
H494 C491 0.950 . S
C495 C486 1.391 . S
C495 H488 0.944 . S
C495 C492 1.392 1_545 S
C496 C497 1.387 . S
C496 H500 0.950 . S
C496 C505 1.390 . S
C497 C496 1.387 . S
C497 C499 1.387 . S
H498 C505 0.950 . S
C499 C497 1.387 . S
C499 C501 1.390 . S
C499 H503 0.950 . S
H500 C496 0.950 . S
C501 C499 1.390 . S
C501 C502 1.387 . S
C501 H504 0.950 . S
C502 C501 1.387 . S
C502 C505 1.387 . S
H503 C499 0.950 . S
H504 C501 0.950 . S
C505 C496 1.390 . S
C505 H498 0.950 . S
C505 C502 1.387 . S
C506 C507 1.387 . S
C506 H510 0.950 . S
C506 C515 1.390 . S
C507 C506 1.387 . S
C507 C509 1.387 1_455 S
H508 C515 0.950 . S
C509 C507 1.387 1_655 S
C509 C511 1.390 . S
C509 H513 0.950 . S
H510 C506 0.950 . S
C511 C509 1.390 . S
C511 C512 1.387 1_655 S
C511 H514 0.950 . S
C512 C511 1.387 1_455 S
C512 C515 1.387 . S
H513 C509 0.950 . S
H514 C511 0.950 . S
C515 C506 1.390 . S
C515 H508 0.950 . S
C515 C512 1.387 . S
C337 C6 0.914 . S
C342 C325 0.989 . S
C347 C59 2.022 . S
C352 C253 1.931 . S
C357 C86 1.361 . S
C362 C289 1.377 . S
C367 C15 0.664 . S
C372 C301 0.604 . S
C382 C229 2.064 . S
C377 C50 2.155 . S
C392 C265 1.391 . S
C387 C95 1.361 . S
C397 C46 1.296 . S
C402 C181 1.325 . S
C407 C99 3.179 . S
C412 C193 3.129 . S
C417 C10 2.185 . S
C422 C121 2.111 . S
C432 C157 1.396 . S
C427 C55 1.352 . S
C442 C217 3.022 . S
C437 C90 3.119 . S
C447 C19 2.020 . S
C452 C145 1.952 . S
C462 C223 1.785 1_554 S
C457 C18 1.723 . S
C467 C49 1.326 . S
C472 C151 1.362 . S
C477 C98 1.453 . S
C482 C187 1.503 . S
C492 C295 1.475 . S
C487 C58 1.443 . S
C502 C331 1.082 . S
C497 C89 1.077 . S
C507 C9 1.316 . S
C512 C259 1.347 . S
