# Generated by pormake.
# Topology pyr, (3,6)-cn, num edge types: 1
# Building blocks:
#     Node 0, Type 0, BuildingBlock: BETDIP_clean_linker_0, # of connection points: 3
#     Node 1, Type 0, BuildingBlock: BETDIP_clean_linker_0, # of connection points: 3
#     Node 2, Type 0, BuildingBlock: BETDIP_clean_linker_0, # of connection points: 3
#     Node 3, Type 0, BuildingBlock: BETDIP_clean_linker_0, # of connection points: 3
#     Node 4, Type 0, BuildingBlock: BETDIP_clean_linker_0, # of connection points: 3
#     Node 5, Type 0, BuildingBlock: BETDIP_clean_linker_0, # of connection points: 3
#     Node 6, Type 0, BuildingBlock: BETDIP_clean_linker_0, # of connection points: 3
#     Node 7, Type 0, BuildingBlock: BETDIP_clean_linker_0, # of connection points: 3
#     Node 8, Type 1, BuildingBlock: PAMTOO_clean_sbu_0, # of connection points: 6
#     Node 9, Type 1, BuildingBlock: PAMTOO_clean_sbu_0, # of connection points: 6
#     Node 10, Type 1, BuildingBlock: PAMTOO_clean_sbu_0, # of connection points: 6
#     Node 11, Type 1, BuildingBlock: PAMTOO_clean_sbu_0, # of connection points: 6
#     Edge 12, Type (0, 1), BuildingBlock: MIFKUJ_clean_linker_0, # of connection points: 2
#     Edge 13, Type (0, 1), BuildingBlock: MIFKUJ_clean_linker_0, # of connection points: 2
#     Edge 14, Type (0, 1), BuildingBlock: MIFKUJ_clean_linker_0, # of connection points: 2
#     Edge 15, Type (0, 1), BuildingBlock: MIFKUJ_clean_linker_0, # of connection points: 2
#     Edge 16, Type (0, 1), BuildingBlock: MIFKUJ_clean_linker_0, # of connection points: 2
#     Edge 17, Type (0, 1), BuildingBlock: MIFKUJ_clean_linker_0, # of connection points: 2
#     Edge 18, Type (0, 1), BuildingBlock: MIFKUJ_clean_linker_0, # of connection points: 2
#     Edge 19, Type (0, 1), BuildingBlock: MIFKUJ_clean_linker_0, # of connection points: 2
#     Edge 20, Type (0, 1), BuildingBlock: MIFKUJ_clean_linker_0, # of connection points: 2
#     Edge 21, Type (0, 1), BuildingBlock: MIFKUJ_clean_linker_0, # of connection points: 2
#     Edge 22, Type (0, 1), BuildingBlock: MIFKUJ_clean_linker_0, # of connection points: 2
#     Edge 23, Type (0, 1), BuildingBlock: MIFKUJ_clean_linker_0, # of connection points: 2
#     Edge 24, Type (0, 1), BuildingBlock: MIFKUJ_clean_linker_0, # of connection points: 2
#     Edge 25, Type (0, 1), BuildingBlock: MIFKUJ_clean_linker_0, # of connection points: 2
#     Edge 26, Type (0, 1), BuildingBlock: MIFKUJ_clean_linker_0, # of connection points: 2
#     Edge 27, Type (0, 1), BuildingBlock: MIFKUJ_clean_linker_0, # of connection points: 2
#     Edge 28, Type (0, 1), BuildingBlock: MIFKUJ_clean_linker_0, # of connection points: 2
#     Edge 29, Type (0, 1), BuildingBlock: MIFKUJ_clean_linker_0, # of connection points: 2
#     Edge 30, Type (0, 1), BuildingBlock: MIFKUJ_clean_linker_0, # of connection points: 2
#     Edge 31, Type (0, 1), BuildingBlock: MIFKUJ_clean_linker_0, # of connection points: 2
#     Edge 32, Type (0, 1), BuildingBlock: MIFKUJ_clean_linker_0, # of connection points: 2
#     Edge 33, Type (0, 1), BuildingBlock: MIFKUJ_clean_linker_0, # of connection points: 2
#     Edge 34, Type (0, 1), BuildingBlock: MIFKUJ_clean_linker_0, # of connection points: 2
#     Edge 35, Type (0, 1), BuildingBlock: MIFKUJ_clean_linker_0, # of connection points: 2
# Relax obj value: 0.092
# Max RMSD: 0.181
# Mean RMSD: 0.129
data_MOF--net-pyr--node1-PAMTOO_clean_sbu_0--node2-BETDIP_clean_linker_0--edge1-MIFKUJ_clean_linker_0
_symmetry_space_group_name_H-M    P1
_symmetry_Int_Tables_number       1
_symmetry_cell_setting            triclinic
loop_
_symmetry_equiv_pos_as_xyz
'x, y, z'
_cell_length_a     47.47927
_cell_length_b     49.645213
_cell_length_c     52.575089
_cell_angle_alpha  92.450339
_cell_angle_beta   87.317641
_cell_angle_gamma 107.99666
loop_
_atom_site_label
_atom_site_type_symbol
_atom_site_fract_x
_atom_site_fract_y
_atom_site_fract_z
_atom_type_partial_charge
H0 H 0.28644 0.27562 0.21326 0.0
H1 H 0.32978 0.25863 0.14353 0.0
H2 H 0.32658 0.20871 0.20887 0.0
H3 H 0.3179 0.29565 0.12832 0.0
C4 C 0.29908 0.29729 0.14011 0.0
C5 C 0.299 0.26362 0.20278 0.0
C6 C 0.30565 0.24153 0.21446 0.0
C7 C 0.30724 0.26985 0.17729 0.0
C8 C 0.32359 0.25451 0.16338 0.0
C9 C 0.33085 0.23262 0.17493 0.0
C10 C 0.32173 0.22621 0.20034 0.0
N11 N 0.29597 0.28973 0.16607 0.0
H12 H 0.19997 0.80657 0.71681 0.0
H13 H 0.20512 0.76561 0.64377 0.0
H14 H 0.26348 0.76142 0.7024 0.0
H15 H 0.15637 0.76769 0.64192 0.0
C16 C 0.15966 0.78882 0.65019 0.0
C17 C 0.20945 0.7933 0.7045 0.0
C18 C 0.23276 0.78451 0.71288 0.0
C19 C 0.19894 0.7862 0.67988 0.0
C20 C 0.21205 0.77015 0.66323 0.0
C21 C 0.23572 0.76163 0.67124 0.0
C22 C 0.24554 0.76846 0.69615 0.0
N23 N 0.17729 0.79801 0.67185 0.0
H24 H 0.68636 0.39456 0.82111 0.0
H25 H 0.61152 0.31834 0.82529 0.0
H26 H 0.68327 0.33269 0.87665 0.0
H27 H 0.67231 0.38787 0.77683 0.0
C28 C 0.64846 0.38351 0.77891 0.0
C29 C 0.67505 0.37435 0.8295 0.0
C30 C 0.68819 0.36524 0.84978 0.0
C31 C 0.64726 0.35743 0.82026 0.0
C32 C 0.63268 0.33135 0.83222 0.0
C33 C 0.64573 0.32154 0.85228 0.0
C34 C 0.67331 0.33908 0.86075 0.0
N35 N 0.63317 0.36622 0.79965 0.0
H36 H 0.81893 0.6354 0.32809 0.0
H37 H 0.89147 0.70993 0.31073 0.0
H38 H 0.83962 0.70763 0.38011 0.0
H39 H 0.88083 0.69293 0.26997 0.0
C40 C 0.87569 0.67016 0.27152 0.0
C41 C 0.83245 0.65663 0.33337 0.0
C42 C 0.82606 0.66979 0.35617 0.0
C43 C 0.85561 0.67097 0.31669 0.0
C44 C 0.87315 0.69873 0.32315 0.0
C45 C 0.86703 0.71218 0.34584 0.0
C46 C 0.84367 0.69751 0.36223 0.0
N47 N 0.86085 0.65662 0.29383 0.0
H48 H 0.67106 0.76444 0.89613 0.0
H49 H 0.73483 0.76847 0.83452 0.0
H50 H 0.6844 0.82701 0.83881 0.0
H51 H 0.72112 0.71988 0.84221 0.0
C52 C 0.72342 0.72225 0.86273 0.0
C53 C 0.68188 0.7739 0.87864 0.0
C54 C 0.67483 0.79679 0.86876 0.0
C55 C 0.70274 0.76294 0.86594 0.0
C56 C 0.71741 0.77568 0.8436 0.0
C57 C 0.71103 0.7989 0.83376 0.0
C58 C 0.6894 0.80904 0.84626 0.0
N59 N 0.71018 0.74048 0.87691 0.0
H60 H 0.83192 0.23793 0.31802 0.0
H61 H 0.82689 0.27951 0.39063 0.0
H62 H 0.77804 0.2935 0.32873 0.0
H63 H 0.8682 0.26916 0.39834 0.0
C64 C 0.86799 0.25054 0.38668 0.0
C65 C 0.82411 0.25294 0.32958 0.0
C66 C 0.8038 0.26503 0.31994 0.0
C67 C 0.83344 0.25872 0.35466 0.0
C68 C 0.82153 0.2762 0.37074 0.0
C69 C 0.80155 0.28876 0.36132 0.0
C70 C 0.7936 0.28383 0.33578 0.0
N71 N 0.85297 0.2447 0.36337 0.0
H72 H 0.32526 0.62689 0.21826 0.0
H73 H 0.40133 0.70191 0.22437 0.0
H74 H 0.33631 0.69623 0.16849 0.0
H75 H 0.40713 0.68404 0.2624 0.0
C76 C 0.39578 0.66146 0.26304 0.0
C77 C 0.33789 0.64776 0.21186 0.0
C78 C 0.32706 0.65984 0.19201 0.0
C79 C 0.36443 0.66258 0.22422 0.0
C80 C 0.38082 0.69012 0.21564 0.0
C81 C 0.37041 0.70262 0.19565 0.0
C82 C 0.34379 0.68708 0.18421 0.0
N83 N 0.37345 0.64882 0.24478 0.0
H84 H 0.10514 0.32187 0.71715 0.0
H85 H 0.18523 0.39208 0.71234 0.0
H86 H 0.16754 0.32634 0.65409 0.0
H87 H 0.17932 0.38848 0.75635 0.0
C88 C 0.15584 0.38619 0.75868 0.0
C89 C 0.12588 0.33248 0.70724 0.0
C90 C 0.13403 0.32078 0.68428 0.0
C91 C 0.14446 0.35783 0.71772 0.0
C92 C 0.17106 0.3722 0.70465 0.0
C93 C 0.17947 0.36098 0.68161 0.0
C94 C 0.16094 0.33521 0.67172 0.0
N95 N 0.13561 0.36867 0.74119 0.0
Dy96 Dy 0.04097 0.02538 0.50354 0.0
Dy97 Dy 0.97292 1.00174 0.52821 0.0
C98 C 0.01833 0.0585 0.54837 0.0
O99 O 0.04403 1.00336 0.53896 0.0
O100 O 0.99684 0.97263 0.54068 0.0
O101 O 0.08707 0.05011 0.50739 0.0
O102 O 0.07268 0.02411 0.47332 0.0
O103 O 0.97258 0.98387 0.48863 0.0
O104 O 0.01971 0.98153 0.48799 0.0
O105 O 0.97105 0.03536 0.50227 0.0
O106 O 0.01524 0.04394 0.47872 0.0
O107 O 0.93268 0.96696 0.53345 0.0
O108 O 0.93616 0.00837 0.55052 0.0
C109 C 0.02476 0.97968 0.54658 0.0
O110 O 0.0315 0.06096 0.52573 0.0
O111 O 1.00031 0.03399 0.55566 0.0
C112 C 0.11238 0.06645 0.46839 0.0
C113 C 0.1494 0.10749 0.43588 0.0
C114 C 0.15986 0.10148 0.45892 0.0
C115 C 0.14154 0.08105 0.47494 0.0
C116 C 0.10143 0.07322 0.44597 0.0
C117 C 0.11979 0.0934 0.42982 0.0
C118 C 0.09437 0.04325 0.48434 0.0
C119 C 0.99273 0.97267 0.47956 0.0
C120 C 0.98898 0.04725 0.48327 0.0
C121 C 0.90639 0.96795 0.57232 0.0
C122 C 0.87886 0.9401 0.61668 0.0
C123 C 0.8663 0.93166 0.59283 0.0
C124 C 0.87992 0.94551 0.57088 0.0
C125 C 0.91919 0.97639 0.59607 0.0
C126 C 0.90542 0.96265 0.61812 0.0
C127 C 0.92032 0.98173 0.54872 0.0
H128 H 0.18233 0.11227 0.46444 0.0
H129 H 0.15034 0.07624 0.49224 0.0
H130 H 0.07892 0.06237 0.44053 0.0
H131 H 0.11103 0.09714 0.41212 0.0
H132 H 0.84567 0.91458 0.59119 0.0
H133 H 0.86975 0.93869 0.55271 0.0
H134 H 0.93981 0.9935 0.59757 0.0
H135 H 0.9157 0.96943 0.63623 0.0
Dy136 Dy 0.4775 1.00375 0.01108 0.0
Dy137 Dy 0.53707 0.02501 0.04441 0.0
C138 C 0.48631 0.96529 0.05588 0.0
O139 O 0.46575 0.02476 0.0466 0.0
O140 O 0.51168 0.05518 0.05454 0.0
O141 O 0.43053 0.98215 1.00834 0.0
O142 O 0.45591 1.00447 0.97612 0.0
O143 O 0.54741 0.05322 0.01031 0.0
O144 O 0.49986 0.04919 1.00039 0.0
O145 O 0.54155 0.9879 0.02133 0.0
O146 O 0.5109 0.98802 0.98894 0.0
O147 O 0.58484 0.03984 0.04725 0.0
O148 O 0.55619 0.03243 0.08128 0.0
C149 C 0.48277 0.04818 0.05713 0.0
O150 O 0.47643 0.96523 0.03287 0.0
O151 O 0.50539 0.98834 0.06556 0.0
C152 C 0.415 0.96406 0.9668 0.0
C153 C 0.38243 0.92156 0.93269 0.0
C154 C 0.37633 0.9194 0.95908 0.0
C155 C 0.39242 0.94047 0.97597 0.0
C156 C 0.42126 0.96602 0.94043 0.0
C157 C 0.40523 0.945 0.9236 0.0
C158 C 0.43049 0.98757 0.98427 0.0
C159 C 0.52853 0.06246 0.99838 0.0
C160 C 0.53178 0.97967 0.99848 0.0
C161 C 0.6023 0.06875 0.08422 0.0
C162 C 0.64114 0.11546 0.11037 0.0
C163 C 0.64993 0.10562 0.08676 0.0
C164 C 0.63073 0.08242 0.07387 0.0
C165 C 0.59325 0.07911 0.10745 0.0
C166 C 0.61241 0.10213 0.12034 0.0
C167 C 0.58327 0.0424 0.07206 0.0
H168 H 0.35899 0.90151 0.96666 0.0
H169 H 0.38683 0.93849 0.99616 0.0
H170 H 0.43814 0.98414 0.93267 0.0
H171 H 0.41011 0.94761 0.90336 0.0
H172 H 0.67181 0.11553 0.07845 0.0
H173 H 0.63841 0.07476 0.0561 0.0
H174 H 0.57165 0.06893 0.11617 0.0
H175 H 0.60504 0.10867 0.13871 0.0
Dy176 Dy 0.50598 0.48212 0.50629 0.0
Dy177 Dy 0.50857 0.54034 0.53855 0.0
C178 C 0.53089 0.49168 0.56314 0.0
O179 O 0.46574 0.47187 0.5321 0.0
O180 O 0.46072 0.51605 0.53557 0.0
O181 O 0.49937 0.437 0.50573 0.0
O182 O 0.5086 0.45969 0.47061 0.0
O183 O 0.49992 0.54923 0.49826 0.0
O184 O 0.481 0.5038 0.4823 0.0
O185 O 0.55598 0.54635 0.52721 0.0
O186 O 0.54896 0.51304 0.49441 0.0
O187 O 0.52082 0.58595 0.54285 0.0
O188 O 0.49662 0.55951 0.5733 0.0
C189 C 0.44982 0.48866 0.53828 0.0
O190 O 0.53453 0.48223 0.53977 0.0
O191 O 0.51696 0.51081 0.56711 0.0
C192 C 0.53103 0.42435 0.47528 0.0
C193 C 0.57825 0.40252 0.463 0.0
C194 C 0.58378 0.43027 0.47303 0.0
C195 C 0.56035 0.441 0.47929 0.0
C196 C 0.52531 0.39658 0.46546 0.0
C197 C 0.54877 0.38566 0.45945 0.0
C198 C 0.50667 0.43611 0.48159 0.0
C199 C 0.48574 0.53136 0.48039 0.0
C200 C 0.5658 0.53501 0.50703 0.0
C201 C 0.48403 0.60035 0.56595 0.0
C202 C 0.43917 0.62661 0.57108 0.0
C203 C 0.4395 0.60753 0.55058 0.0
C204 C 0.4617 0.59446 0.54808 0.0
C205 C 0.48409 0.61959 0.58619 0.0
C206 C 0.46186 0.63264 0.58876 0.0
C207 C 0.50597 0.58499 0.56447 0.0
H208 H 0.60623 0.44359 0.47627 0.0
H209 H 0.56507 0.46233 0.48726 0.0
H210 H 0.50276 0.38341 0.46238 0.0
H211 H 0.54393 0.36425 0.45161 0.0
H212 H 0.42258 0.60265 0.53649 0.0
H213 H 0.46123 0.57943 0.53241 0.0
H214 H 0.50098 0.62409 0.6003 0.0
H215 H 0.46201 0.64685 0.605 0.0
Dy216 Dy 0.01245 0.5431 1.00693 0.0
Dy217 Dy 1.00086 0.48275 0.03489 0.0
C218 C 0.9713 0.52879 0.0572 0.0
O219 O 0.04621 0.55261 0.03767 0.0
O220 O 0.04822 0.50767 0.0429 0.0
O221 O 0.01845 0.58804 1.00949 0.0
O222 O 0.01733 0.5668 0.97258 0.0
O223 O 0.02194 0.47821 0.99681 0.0
O224 O 0.04566 0.52479 0.98797 0.0
O225 O 0.95751 0.47885 0.01668 0.0
O226 O 0.97642 0.51099 0.98551 0.0
O227 O 0.98684 0.43697 0.03346 0.0
O228 O 1.00245 0.45992 0.0686 0.0
C229 C 0.05925 0.53528 0.04669 0.0
O230 O 0.97442 0.53948 0.03451 0.0
O231 O 0.98388 0.50977 0.06266 0.0
C232 C 0.99258 0.60094 0.97747 0.0
C233 C 0.94638 0.61989 0.96128 0.0
C234 C 0.9412 0.6004 0.98088 0.0
C235 C 0.96404 0.59092 0.98881 0.0
C236 C 0.99793 0.62046 0.95797 0.0
C237 C 0.97497 0.62984 0.94988 0.0
C238 C 0.01607 0.58969 0.98503 0.0
C239 C 0.04155 0.49764 0.98359 0.0
C240 C 0.95493 0.48958 0.99471 0.0
C241 C 0.01703 0.41947 0.05879 0.0
C242 C 0.06207 0.39438 0.06508 0.0
C243 C 0.05565 0.40095 0.04067 0.0
C244 C 0.03349 0.41351 0.03757 0.0
C245 C 0.02275 0.41217 0.08305 0.0
C246 C 0.04509 0.39984 0.0862 0.0
C247 C 0.99592 0.43556 0.05627 0.0
H248 H 0.9193 0.59201 0.98971 0.0
H249 H 0.95932 0.57547 1.00361 0.0
H250 H 0.01975 0.6282 0.94885 0.0
H251 H 0.97961 0.64498 0.93481 0.0
H252 H 0.06792 0.39663 0.02394 0.0
H253 H 0.02972 0.41907 0.01861 0.0
H254 H 0.01054 0.41684 0.0997 0.0
H255 H 0.04966 0.39549 0.10532 0.0
H256 H 0.25117 0.23912 0.23558 0.0
H257 H 0.23066 0.22242 0.27744 0.0
H258 H 0.31214 0.20672 0.29422 0.0
H259 H 0.33332 0.22425 0.25249 0.0
H260 H 0.26213 0.16071 0.30253 0.0
H261 H 0.2953 0.25964 0.32499 0.0
H262 H 0.30062 0.3102 0.32032 0.0
H263 H 0.20628 0.29218 0.32881 0.0
H264 H 0.20034 0.24144 0.33317 0.0
H265 H 0.20805 0.11377 0.4247 0.0
H266 H 0.23987 0.1423 0.39174 0.0
H267 H 0.16818 0.17233 0.37104 0.0
H268 H 0.13673 0.14527 0.40509 0.0
H269 H 0.21851 0.21353 0.36709 0.0
H270 H 0.18391 0.11569 0.33895 0.0
H271 H 0.17611 0.06439 0.34141 0.0
H272 H 0.2702 0.07952 0.34107 0.0
H273 H 0.27853 0.13098 0.33894 0.0
C274 C 0.26509 0.23283 0.24835 0.0
C275 C 0.29397 0.23312 0.24065 0.0
C276 C 0.25325 0.22319 0.27228 0.0
C277 C 0.26998 0.21355 0.28897 0.0
C278 C 0.29892 0.21412 0.28157 0.0
C279 C 0.3109 0.22399 0.25769 0.0
C280 C 0.25632 0.20103 0.31335 0.0
C281 C 0.25316 0.17241 0.31694 0.0
C282 C 0.24387 0.21613 0.33169 0.0
C283 C 0.24737 0.24668 0.32922 0.0
C284 C 0.27566 0.26642 0.32567 0.0
C285 C 0.27879 0.29512 0.32311 0.0
C286 C 0.2538 0.30439 0.32422 0.0
C287 C 0.22562 0.28497 0.32795 0.0
C288 C 0.22236 0.25624 0.3305 0.0
C289 C 0.1992 0.12699 0.41364 0.0
C290 C 0.16964 0.12694 0.41744 0.0
C291 C 0.21737 0.14305 0.39455 0.0
C292 C 0.20621 0.15894 0.37852 0.0
C293 C 0.17722 0.16005 0.38304 0.0
C294 C 0.15914 0.14428 0.40234 0.0
C295 C 0.22406 0.1731 0.35617 0.0
C296 C 0.2279 0.20195 0.3529 0.0
C297 C 0.23679 0.15812 0.33786 0.0
C298 C 0.23183 0.12719 0.33909 0.0
C299 C 0.20292 0.10809 0.3396 0.0
C300 C 0.19841 0.07898 0.3409 0.0
C301 C 0.22264 0.06871 0.34148 0.0
C302 C 0.25145 0.08752 0.34068 0.0
C303 C 0.25608 0.11665 0.33941 0.0
H304 H 0.21911 0.04616 0.34248 0.0
H305 H 0.25627 0.32662 0.32224 0.0
H306 H 0.20238 0.78664 0.75827 0.0
H307 H 0.2232 0.80345 0.79993 0.0
H308 H 0.31148 0.81945 0.76682 0.0
H309 H 0.29099 0.80316 0.72523 0.0
H310 H 0.30533 0.79397 0.81279 0.0
H311 H 0.28214 0.87259 0.77673 0.0
H312 H 0.24905 0.89599 0.75866 0.0
H313 H 0.19396 0.88101 0.82697 0.0
H314 H 0.22655 0.85716 0.84532 0.0
H315 H 0.40148 0.8986 0.88962 0.0
H316 H 0.37119 0.86845 0.85692 0.0
H317 H 0.292 0.8659 0.90181 0.0
H318 H 0.32221 0.89706 0.93422 0.0
H319 H 0.287 0.87887 0.85443 0.0
H320 H 0.31487 0.80651 0.89306 0.0
H321 H 0.34863 0.7839 0.91112 0.0
H322 H 0.39503 0.78695 0.83869 0.0
H323 H 0.36182 0.80995 0.82026 0.0
C324 C 0.22622 0.7938 0.75988 0.0
C325 C 0.24502 0.79355 0.73844 0.0
C326 C 0.23806 0.80327 0.78369 0.0
C327 C 0.26888 0.81276 0.7864 0.0
C328 C 0.28763 0.812 0.76516 0.0
C329 C 0.27585 0.80261 0.74141 0.0
C330 C 0.28191 0.82466 0.81103 0.0
C331 C 0.30144 0.81259 0.82191 0.0
C332 C 0.27609 0.84842 0.82326 0.0
C333 C 0.25655 0.86279 0.81226 0.0
C334 C 0.26283 0.87407 0.7878 0.0
C335 C 0.24419 0.88745 0.77753 0.0
C336 C 0.21936 0.88989 0.79162 0.0
C337 C 0.21316 0.87904 0.81605 0.0
C338 C 0.23171 0.8656 0.8264 0.0
C339 C 0.37763 0.89151 0.8926 0.0
C340 C 0.36425 0.90037 0.91444 0.0
C341 C 0.36033 0.87399 0.87403 0.0
C342 C 0.32931 0.86468 0.87702 0.0
C343 C 0.31591 0.87274 0.89917 0.0
C344 C 0.33322 0.89037 0.91776 0.0
C345 C 0.31103 0.84858 0.856 0.0
C346 C 0.2905 0.85989 0.84572 0.0
C347 C 0.31595 0.82411 0.84435 0.0
C348 C 0.33592 0.81012 0.85532 0.0
C349 C 0.33239 0.80254 0.88102 0.0
C350 C 0.35142 0.78962 0.89132 0.0
C351 C 0.37399 0.78403 0.87608 0.0
C352 C 0.37754 0.79129 0.85048 0.0
C353 C 0.35858 0.80423 0.84008 0.0
H354 H 0.3887 0.77403 0.88409 0.0
H355 H 0.20497 0.90027 0.78364 0.0
H356 H 0.59318 0.39291 0.77829 0.0
H357 H 0.57232 0.41127 0.74342 0.0
H358 H 0.64845 0.41156 0.69515 0.0
H359 H 0.66998 0.39538 0.73047 0.0
H360 H 0.63829 0.45356 0.68289 0.0
H361 H 0.56853 0.36087 0.69182 0.0
H362 H 0.53217 0.32125 0.71373 0.0
H363 H 0.47692 0.37386 0.73241 0.0
H364 H 0.51314 0.4139 0.71084 0.0
H365 H 0.57255 0.46291 0.5634 0.0
H366 H 0.59077 0.44461 0.59989 0.0
H367 H 0.53279 0.47513 0.65061 0.0
H368 H 0.51503 0.49409 0.61431 0.0
H369 H 0.53233 0.41856 0.66159 0.0
H370 H 0.60401 0.51039 0.64896 0.0
H371 H 0.64025 0.54695 0.6237 0.0
H372 H 0.69225 0.4907 0.60811 0.0
H373 H 0.65607 0.45364 0.63299 0.0
C374 C 0.60533 0.39669 0.76017 0.0
C375 C 0.6333 0.39235 0.75734 0.0
C376 C 0.59323 0.40711 0.73991 0.0
C377 C 0.6082 0.41268 0.71578 0.0
C378 C 0.63601 0.40789 0.71314 0.0
C379 C 0.64837 0.39828 0.73349 0.0
C380 C 0.59582 0.4241 0.69353 0.0
C381 C 0.61513 0.44531 0.67824 0.0
C382 C 0.56544 0.41441 0.68694 0.0
C383 C 0.5437 0.39045 0.69998 0.0
C384 C 0.54872 0.36403 0.70076 0.0
C385 C 0.52813 0.3415 0.71309 0.0
C386 C 0.5023 0.34506 0.72452 0.0
C387 C 0.49697 0.37115 0.72359 0.0
C388 C 0.51751 0.39376 0.7113 0.0
C389 C 0.56365 0.46585 0.58229 0.0
C390 C 0.54226 0.48027 0.58559 0.0
C391 C 0.57417 0.45531 0.6033 0.0
C392 C 0.56336 0.45832 0.6284 0.0
C393 C 0.54166 0.4723 0.63168 0.0
C394 C 0.53156 0.48334 0.61075 0.0
C395 C 0.57493 0.44736 0.6511 0.0
C396 C 0.55547 0.42646 0.6664 0.0
C397 C 0.60526 0.45679 0.65735 0.0
C398 C 0.62718 0.47915 0.64263 0.0
C399 C 0.62306 0.50574 0.63999 0.0
C400 C 0.64361 0.52657 0.62577 0.0
C401 C 0.6685 0.52113 0.61425 0.0
C402 C 0.67294 0.49488 0.61701 0.0
C403 C 0.65243 0.47396 0.63119 0.0
H404 H 0.68437 0.53727 0.60323 0.0
H405 H 0.48638 0.32759 0.73406 0.0
H406 H 0.89584 0.6892 0.22449 0.0
H407 H 0.90661 0.66199 0.18734 0.0
H408 H 0.88028 0.58614 0.23114 0.0
H409 H 0.86947 0.61321 0.2683 0.0
H410 H 0.93319 0.5934 0.20478 0.0
H411 H 0.83552 0.59447 0.18715 0.0
H412 H 0.79617 0.61623 0.18136 0.0
H413 H 0.84702 0.66429 0.11959 0.0
H414 H 0.88689 0.64312 0.12525 0.0
H415 H 0.9459 0.50309 0.10119 0.0
H416 H 0.92303 0.52333 0.13661 0.0
H417 H 0.93784 0.59989 0.09507 0.0
H418 H 0.95936 0.57921 0.05913 0.0
H419 H 0.88768 0.58972 0.12112 0.0
H420 H 0.98631 0.59085 0.13989 0.0
H421 H 0.02517 0.56828 0.1443 0.0
H422 H 0.97383 0.51767 0.20451 0.0
H423 H 0.93404 0.5392 0.19974 0.0
C424 C 0.89225 0.66669 0.22612 0.0
C425 C 0.88176 0.65332 0.24921 0.0
C426 C 0.89827 0.65116 0.20488 0.0
C427 C 0.89396 0.62198 0.20641 0.0
C428 C 0.88364 0.60861 0.22954 0.0
C429 C 0.87742 0.6241 0.25073 0.0
C430 C 0.90124 0.60565 0.18413 0.0
C431 C 0.9229 0.5922 0.1866 0.0
C432 C 0.88828 0.60465 0.16026 0.0
C433 C 0.86432 0.61739 0.15679 0.0
C434 C 0.83843 0.60986 0.17247 0.0
C435 C 0.816 0.62206 0.16919 0.0
C436 C 0.81912 0.64169 0.15017 0.0
C437 C 0.84465 0.64911 0.13434 0.0
C438 C 0.86715 0.63699 0.13756 0.0
C439 C 0.94391 0.52409 0.09949 0.0
C440 C 0.95474 0.53969 0.07752 0.0
C441 C 0.93092 0.53568 0.11978 0.0
C442 C 0.9294 0.56346 0.11882 0.0
C443 C 0.93887 0.5785 0.09636 0.0
C444 C 0.95126 0.56667 0.07584 0.0
C445 C 0.91983 0.57757 0.14169 0.0
C446 C 0.89783 0.59073 0.13934 0.0
C447 C 0.93265 0.57851 0.16568 0.0
C448 C 0.95706 0.56641 0.16927 0.0
C449 C 0.98324 0.57482 0.154 0.0
C450 C 0.00543 0.56217 0.15655 0.0
C451 C 1.00202 0.54157 0.17473 0.0
C452 C 0.97642 0.53361 0.19042 0.0
C453 C 0.954 0.54596 0.18774 0.0
H454 H 0.01917 0.53171 0.17665 0.0
H455 H 0.80173 0.6511 0.14765 0.0
H456 H 0.38465 0.25057 0.14969 0.0
H457 H 0.41257 0.22093 0.12913 0.0
H458 H 0.33979 0.146 0.14639 0.0
H459 H 0.31258 0.17552 0.16776 0.0
H460 H 0.38776 0.13768 0.15844 0.0
H461 H 0.35808 0.17441 0.0847 0.0
H462 H 0.35341 0.21086 0.05621 0.0
H463 H 0.44815 0.24385 0.04776 0.0
H464 H 0.45341 0.20789 0.07656 0.0
H465 H 0.42544 0.03689 0.07486 0.0
H466 H 0.40197 0.07022 0.095 0.0
H467 H 0.48497 0.13743 0.08946 0.0
H468 H 0.50876 0.10418 0.06945 0.0
H469 H 0.43549 0.15146 0.072 0.0
H470 H 0.46368 0.11224 0.14512 0.0
H471 H 0.46661 0.07354 0.17172 0.0
H472 H 0.37166 0.04289 0.17907 0.0
H473 H 0.36814 0.08119 0.15219 0.0
C474 C 0.37463 0.22778 0.14878 0.0
C475 C 0.34661 0.21522 0.16031 0.0
C476 C 0.39049 0.21086 0.13699 0.0
C477 C 0.37824 0.18117 0.13605 0.0
C478 C 0.34983 0.1688 0.14699 0.0
C479 C 0.33425 0.18563 0.15911 0.0
C480 C 0.39532 0.16274 0.1248 0.0
C481 C 0.39784 0.14056 0.13939 0.0
C482 C 0.40926 0.16685 0.10021 0.0
C483 C 0.40613 0.18868 0.08308 0.0
C484 C 0.37792 0.18962 0.077 0.0
C485 C 0.37517 0.21017 0.06075 0.0
C486 C 0.40047 0.22973 0.05026 0.0
C487 C 0.42858 0.22874 0.05596 0.0
C488 C 0.43146 0.20829 0.07225 0.0
C489 C 0.43877 0.05871 0.07807 0.0
C490 C 0.46898 0.06788 0.07066 0.0
C491 C 0.42534 0.0777 0.0896 0.0
C492 C 0.4418 0.10622 0.09376 0.0
C493 C 0.47194 0.11548 0.0864 0.0
C494 C 0.48551 0.09641 0.07514 0.0
C495 C 0.42728 0.12637 0.1055 0.0
C496 C 0.4254 0.14881 0.09105 0.0
C497 C 0.41359 0.12233 0.13007 0.0
C498 C 0.41565 0.09945 0.14646 0.0
C499 C 0.44342 0.09713 0.15225 0.0
C500 C 0.44518 0.07528 0.16741 0.0
C501 C 0.41933 0.05573 0.17703 0.0
C502 C 0.39166 0.05804 0.17158 0.0
C503 C 0.38977 0.07983 0.15641 0.0
H504 H 0.42075 0.03882 0.18875 0.0
H505 H 0.39828 0.24559 0.03766 0.0
H506 H 0.11185 0.77318 0.62011 0.0
H507 H 0.08506 0.80361 0.604 0.0
H508 H 0.14606 0.87641 0.6408 0.0
H509 H 0.17176 0.84594 0.65784 0.0
H510 H 0.09438 0.88068 0.64768 0.0
H511 H 0.14851 0.85931 0.57419 0.0
H512 H 0.16463 0.82904 0.542 0.0
H513 H 0.07498 0.79294 0.51852 0.0
H514 H 0.05826 0.82272 0.55084 0.0
H515 H 0.07582 0.99048 0.57254 0.0
H516 H 0.09486 0.95599 0.59212 0.0
H517 H 0.01717 0.88854 0.57011 0.0
H518 H 0.99772 0.92287 0.55085 0.0
H519 H 0.07315 0.87958 0.55608 0.0
H520 H 0.02116 0.90548 0.6291 0.0
H521 H 0.00813 0.93899 0.65987 0.0
H522 H 0.0985 0.97041 0.68248 0.0
H523 H 0.11216 0.93737 0.65155 0.0
C524 C 0.11938 0.79568 0.62475 0.0
C525 C 0.14372 0.80719 0.64026 0.0
C526 C 0.10421 0.81309 0.61544 0.0
C527 C 0.11373 0.84245 0.62088 0.0
C528 C 0.13815 0.85387 0.63639 0.0
C529 C 0.15289 0.83641 0.64609 0.0
C530 C 0.09837 0.86143 0.61065 0.0
C531 C 0.09006 0.88057 0.62758 0.0
C532 C 0.09209 0.86102 0.58451 0.0
C533 C 0.10208 0.84297 0.56517 0.0
C534 C 0.13219 0.84472 0.56233 0.0
C535 C 0.14145 0.82769 0.54403 0.0
C536 C 0.12083 0.809 0.52829 0.0
C537 C 0.09092 0.80737 0.53077 0.0
C538 C 0.08154 0.82432 0.54908 0.0
C539 C 0.06265 0.96835 0.57212 0.0
C540 C 0.03526 0.95939 0.56022 0.0
C541 C 0.07352 0.94871 0.58333 0.0
C542 C 0.05735 0.91979 0.58256 0.0
C543 C 0.0299 0.9108 0.57091 0.0
C544 C 0.01878 0.93047 0.56006 0.0
C545 C 0.06973 0.89886 0.59305 0.0
C546 C 0.07739 0.87942 0.57617 0.0
C547 C 0.07593 0.89935 0.61911 0.0
C548 C 0.06772 0.91911 0.63784 0.0
C549 C 0.0383 0.9197 0.64047 0.0
C550 C 0.03079 0.93858 0.65798 0.0
C551 C 0.05248 0.95686 0.67308 0.0
C552 C 0.08172 0.95625 0.67075 0.0
C553 C 0.08935 0.93743 0.65326 0.0
H554 H 0.04663 0.97147 0.68662 0.0
H555 H 0.12804 0.79585 0.51412 0.0
H556 H 0.73841 0.34975 0.85132 0.0
H557 H 0.78347 0.37306 0.87439 0.0
H558 H 0.74877 0.4414 0.89733 0.0
H559 H 0.70398 0.41844 0.87317 0.0
H560 H 0.8058 0.46309 0.8911 0.0
H561 H 0.74564 0.384 0.93731 0.0
H562 H 0.71608 0.33415 0.94355 0.0
H563 H 0.79305 0.30792 0.92582 0.0
H564 H 0.82298 0.35759 0.91908 0.0
H565 H 0.89944 0.45604 0.01101 0.0
H566 H 0.85451 0.43793 0.98632 0.0
H567 H 0.90362 0.47608 0.91905 0.0
H568 H 0.94792 0.49538 0.94391 0.0
H569 H 0.83644 0.40297 0.95028 0.0
H570 H 0.86005 0.49081 0.87568 0.0
H571 H 0.88745 0.54166 0.87239 0.0
H572 H 0.87872 0.55317 0.95343 0.0
H573 H 0.85055 0.50252 0.95718 0.0
C574 C 0.74065 0.37006 0.86083 0.0
C575 C 0.71755 0.38224 0.86026 0.0
C576 C 0.76638 0.38329 0.87436 0.0
C577 C 0.76957 0.40879 0.88846 0.0
C578 C 0.7471 0.42172 0.88689 0.0
C579 C 0.72144 0.40863 0.87294 0.0
C580 C 0.79564 0.42108 0.90549 0.0
C581 C 0.81244 0.44987 0.904 0.0
C582 C 0.8043 0.40435 0.92305 0.0
C583 C 0.7865 0.3745 0.9275 0.0
C584 C 0.75623 0.36759 0.93463 0.0
C585 C 0.73941 0.33937 0.93825 0.0
C586 C 0.75267 0.31788 0.93504 0.0
C587 C 0.78281 0.32459 0.92828 0.0
C588 C 0.79972 0.35278 0.92457 0.0
C589 C 0.90064 0.4607 0.99098 0.0
C590 C 0.92744 0.47747 0.97964 0.0
C591 C 0.87482 0.45023 0.97675 0.0
C592 C 0.87502 0.45593 0.95065 0.0
C593 C 0.90212 0.47195 0.9392 0.0
C594 C 0.92772 0.48288 0.9535 0.0
C595 C 0.84719 0.44485 0.93545 0.0
C596 C 0.82991 0.41626 0.93738 0.0
C597 C 0.83773 0.46198 0.9188 0.0
C598 C 0.85348 0.49275 0.91672 0.0
C599 C 0.86377 0.50421 0.89279 0.0
C600 C 0.87947 0.53298 0.89085 0.0
C601 C 0.885 0.55054 0.91271 0.0
C602 C 0.87459 0.53946 0.93655 0.0
C603 C 0.85867 0.51073 0.93858 0.0
H604 H 0.89719 0.57274 0.91111 0.0
H605 H 0.7396 0.29604 0.93783 0.0
H606 H 0.80718 0.61357 0.36848 0.0
H607 H 0.76547 0.58963 0.39694 0.0
H608 H 0.74693 0.66856 0.41241 0.0
H609 H 0.78769 0.69247 0.38333 0.0
H610 H 0.74662 0.63678 0.45682 0.0
H611 H 0.70568 0.62458 0.37279 0.0
H612 H 0.70366 0.6098 0.32735 0.0
H613 H 0.69355 0.5243 0.34743 0.0
H614 H 0.69594 0.53868 0.393 0.0
H615 H 0.5992 0.59078 0.50973 0.0
H616 H 0.64662 0.61272 0.4873 0.0
H617 H 0.64882 0.53018 0.45972 0.0
H618 H 0.60093 0.50849 0.48105 0.0
H619 H 0.65975 0.56264 0.42231 0.0
H620 H 0.69754 0.5722 0.50581 0.0
H621 H 0.7007 0.58547 0.55157 0.0
H622 H 0.71858 0.67296 0.53396 0.0
H623 H 0.7151 0.66018 0.4881 0.0
C624 C 0.79406 0.62581 0.3777 0.0
C625 C 0.80088 0.65499 0.37357 0.0
C626 C 0.7704 0.61213 0.39412 0.0
C627 C 0.75325 0.6274 0.40679 0.0
C628 C 0.76013 0.6565 0.40298 0.0
C629 C 0.78352 0.67012 0.38639 0.0
C630 C 0.72742 0.61291 0.42337 0.0
C631 C 0.72747 0.62069 0.44935 0.0
C632 C 0.70291 0.59144 0.41364 0.0
C633 C 0.70132 0.58277 0.38627 0.0
C634 C 0.70329 0.60268 0.3675 0.0
C635 C 0.70203 0.59437 0.34173 0.0
C636 C 0.69857 0.56615 0.3345 0.0
C637 C 0.69628 0.54616 0.35305 0.0
C638 C 0.69757 0.55438 0.37884 0.0
C639 C 0.61013 0.57734 0.49926 0.0
C640 C 0.59636 0.54797 0.49701 0.0
C641 C 0.63729 0.58986 0.4865 0.0
C642 C 0.65148 0.57311 0.47186 0.0
C643 C 0.63829 0.54361 0.47071 0.0
C644 C 0.61094 0.5312 0.48298 0.0
C645 C 0.6787 0.58633 0.45608 0.0
C646 C 0.67892 0.57844 0.43008 0.0
C647 C 0.7036 0.60739 0.46594 0.0
C648 C 0.70579 0.61519 0.49351 0.0
C649 C 0.70192 0.59425 0.5117 0.0
C650 C 0.70381 0.60168 0.53766 0.0
C651 C 0.70977 0.63003 0.54567 0.0
C652 C 0.71393 0.65101 0.52773 0.0
C653 C 0.71204 0.64368 0.50174 0.0
H654 H 0.71122 0.63575 0.56577 0.0
H655 H 0.69759 0.55975 0.31454 0.0
H656 H 0.30252 0.32419 0.09533 0.0
H657 H 0.26406 0.34076 0.07727 0.0
H658 H 0.20584 0.30922 0.14207 0.0
H659 H 0.2439 0.29316 0.16025 0.0
H660 H 0.17947 0.29325 0.09368 0.0
H661 H 0.2389 0.37614 0.1409 0.0
H662 H 0.28531 0.41352 0.15101 0.0
H663 H 0.29363 0.44219 0.0743 0.0
H664 H 0.24745 0.40467 0.06364 0.0
H665 H 0.0646 0.35439 0.0986 0.0
H666 H 0.10659 0.33782 0.10625 0.0
H667 H 0.15774 0.39047 0.04663 0.0
H668 H 0.11639 0.40852 0.03992 0.0
H669 H 0.1906 0.39525 0.08557 0.0
H670 H 0.12922 0.31687 0.03874 0.0
H671 H 0.08329 0.27963 0.02721 0.0
H672 H 0.07938 0.24187 0.09978 0.0
H673 H 0.12507 0.27911 0.11191 0.0
C674 C 0.28152 0.32096 0.10568 0.0
C675 C 0.2763 0.30763 0.12924 0.0
C676 C 0.25965 0.33038 0.09539 0.0
C677 C 0.23218 0.32618 0.1084 0.0
C678 C 0.22689 0.3126 0.13175 0.0
C679 C 0.24878 0.3036 0.14218 0.0
C680 C 0.20868 0.33589 0.098 0.0
C681 C 0.18177 0.31554 0.09196 0.0
C682 C 0.21218 0.3649 0.09498 0.0
C683 C 0.23996 0.38736 0.10138 0.0
C684 C 0.2508 0.39022 0.12611 0.0
C685 C 0.27702 0.41147 0.13196 0.0
C686 C 0.29247 0.43015 0.11328 0.0
C687 C 0.28168 0.42766 0.08873 0.0
C688 C 0.25549 0.40641 0.08278 0.0
C689 C 0.08481 0.36262 0.0872 0.0
C690 C 0.08702 0.38282 0.06863 0.0
C691 C 0.10872 0.3528 0.09135 0.0
C692 C 0.13523 0.36252 0.07672 0.0
C693 C 0.13748 0.38252 0.05805 0.0
C694 C 0.11366 0.39259 0.05406 0.0
C695 C 0.1609 0.35262 0.08175 0.0
C696 C 0.18828 0.3729 0.08679 0.0
C697 C 0.15795 0.32348 0.08353 0.0
C698 C 0.13049 0.30092 0.0763 0.0
C699 C 0.11847 0.30073 0.05232 0.0
C700 C 0.09248 0.2796 0.04566 0.0
C701 C 0.0784 0.25842 0.06277 0.0
C702 C 0.09031 0.25829 0.08655 0.0
C703 C 0.11628 0.27939 0.09331 0.0
H704 H 0.05828 0.24208 0.05759 0.0
H705 H 0.31275 0.44661 0.11786 0.0
H706 H 0.67293 0.28454 0.86988 0.0
H707 H 0.65159 0.24172 0.89364 0.0
H708 H 0.5643 0.24917 0.8862 0.0
H709 H 0.58598 0.29356 0.86352 0.0
H710 H 0.56681 0.23262 0.93204 0.0
H711 H 0.59208 0.19767 0.85116 0.0
H712 H 0.6238 0.19416 0.81345 0.0
H713 H 0.68393 0.17188 0.86085 0.0
H714 H 0.65276 0.17561 0.8989 0.0
H715 H 0.49594 0.09109 0.97489 0.0
H716 H 0.5137 0.13368 0.94954 0.0
H717 H 0.60394 0.13665 0.96069 0.0
H718 H 0.58631 0.09393 0.98605 0.0
H719 H 0.59737 0.14699 0.91183 0.0
H720 H 0.57084 0.18263 0.99296 0.0
H721 H 0.53743 0.18491 0.02978 0.0
H722 H 0.47731 0.20443 0.98044 0.0
H723 H 0.51015 0.20182 0.94324 0.0
C724 C 0.64916 0.27746 0.87337 0.0
C725 C 0.63143 0.29321 0.86475 0.0
C726 C 0.63681 0.2524 0.8868 0.0
C727 C 0.60604 0.24142 0.89168 0.0
C728 C 0.58809 0.25681 0.88283 0.0
C729 C 0.60054 0.28221 0.86951 0.0
C730 C 0.59305 0.21435 0.90633 0.0
C731 C 0.5732 0.21381 0.92724 0.0
C732 C 0.60144 0.18952 0.90075 0.0
C733 C 0.6202 0.18715 0.87791 0.0
C734 C 0.61217 0.1922 0.85356 0.0
C735 C 0.63004 0.19015 0.83213 0.0
C736 C 0.6559 0.18287 0.83476 0.0
C737 C 0.66391 0.17755 0.85884 0.0
C738 C 0.64613 0.17959 0.88034 0.0
C739 C 0.51961 0.10073 0.97205 0.0
C740 C 0.53957 0.08877 0.98275 0.0
C741 C 0.5298 0.12535 0.95754 0.0
C742 C 0.56033 0.13894 0.95319 0.0
C743 C 0.5803 0.12686 0.96363 0.0
C744 C 0.57013 0.10232 0.97828 0.0
C745 C 0.57144 0.16541 0.93761 0.0
C746 C 0.59094 0.1658 0.91653 0.0
C747 C 0.56246 0.18993 0.94289 0.0
C748 C 0.54282 0.19174 0.96527 0.0
C749 C 0.55039 0.1872 0.98993 0.0
C750 C 0.53157 0.18858 0.01088 0.0
C751 C 0.50522 0.19474 1.00745 0.0
C752 C 0.4977 0.19961 0.98306 0.0
C753 C 0.51641 0.1982 0.96204 0.0
H754 H 0.49068 0.19579 0.02369 0.0
H755 H 0.66971 0.18129 0.81814 0.0
H756 H 0.84627 0.7555 0.36174 0.0
H757 H 0.87459 0.80244 0.37782 0.0
H758 H 0.95598 0.78238 0.36211 0.0
H759 H 0.92749 0.73494 0.34618 0.0
H760 H 0.95263 0.80406 0.41055 0.0
H761 H 0.94064 0.83044 0.32679 0.0
H762 H 0.91384 0.83227 0.28818 0.0
H763 H 0.85908 0.87356 0.33125 0.0
H764 H 0.88525 0.87162 0.37022 0.0
H765 H 0.0283 0.94384 0.45658 0.0
H766 H 0.01348 0.90241 0.42758 0.0
H767 H 0.92357 0.90552 0.4316 0.0
H768 H 0.93821 0.94711 0.46015 0.0
H769 H 0.93954 0.89396 0.38377 0.0
H770 H 0.94577 0.86068 0.46797 0.0
H771 H 0.97123 0.8584 0.50728 0.0
H772 H 0.03561 0.82941 0.46373 0.0
H773 H 0.01076 0.83196 0.42409 0.0
C774 C 0.87022 0.76119 0.3615 0.0
C775 C 0.88471 0.74158 0.35283 0.0
C776 C 0.8864 0.78808 0.37051 0.0
C777 C 0.91742 0.79599 0.37098 0.0
C778 C 0.93206 0.7767 0.3618 0.0
C779 C 0.91582 0.74974 0.35258 0.0
C780 C 0.934 0.82369 0.38277 0.0
C781 C 0.95041 0.82384 0.40433 0.0
C782 C 0.93058 0.84938 0.37492 0.0
C783 C 0.91484 0.85074 0.35148 0.0
C784 C 0.92275 0.83974 0.32808 0.0
C785 C 0.90768 0.84082 0.30612 0.0
C786 C 0.88474 0.85299 0.30727 0.0
C787 C 0.87686 0.86415 0.33038 0.0
C788 C 0.89183 0.8631 0.35241 0.0
C789 C 0.00541 0.93584 0.45114 0.0
C790 C 0.98438 0.94867 0.46084 0.0
C791 C 0.99698 0.91212 0.43461 0.0
C792 C 0.96735 0.90068 0.42767 0.0
C793 C 0.94656 0.914 0.43669 0.0
C794 C 0.95496 0.93773 0.45312 0.0
C795 C 0.95748 0.87417 0.4119 0.0
C796 C 0.94231 0.87427 0.38965 0.0
C797 C 0.96188 0.84867 0.41919 0.0
C798 C 0.97663 0.84685 0.44304 0.0
C799 C 0.96548 0.85403 0.46676 0.0
C800 C 0.97979 0.85266 0.4891 0.0
C801 C 0.00508 0.84385 0.488 0.0
C802 C 0.01605 0.83629 0.46455 0.0
C803 C 1.00187 0.83769 0.44214 0.0
H804 H 0.01613 0.84282 0.50531 0.0
H805 H 0.87311 0.85381 0.29024 0.0
H806 H 0.29484 0.77759 0.66095 0.0
H807 H 0.32291 0.75228 0.63488 0.0
H808 H 0.24161 0.688 0.61533 0.0
H809 H 0.21321 0.71354 0.64166 0.0
H810 H 0.284 0.66607 0.63296 0.0
H811 H 0.2791 0.72952 0.56969 0.0
H812 H 0.28195 0.77543 0.55185 0.0
H813 H 0.37455 0.80725 0.56743 0.0
H814 H 0.3722 0.76167 0.58574 0.0
H815 H 0.37986 0.60145 0.56371 0.0
H816 H 0.33968 0.62217 0.57175 0.0
H817 H 0.403 0.70122 0.59532 0.0
H818 H 0.44336 0.68108 0.58625 0.0
H819 H 0.36142 0.71068 0.56771 0.0
H820 H 0.36327 0.65164 0.6387 0.0
H821 H 0.36106 0.60666 0.65816 0.0
H822 H 0.27446 0.56748 0.62894 0.0
H823 H 0.27633 0.6122 0.60906 0.0
C824 C 0.28293 0.7582 0.65088 0.0
C825 C 0.25193 0.74736 0.65338 0.0
C826 C 0.29895 0.74388 0.63585 0.0
C827 C 0.28432 0.71839 0.623 0.0
C828 C 0.25326 0.70774 0.625 0.0
C829 C 0.23711 0.72231 0.63992 0.0
C830 C 0.30209 0.70216 0.60927 0.0
C831 C 0.3004 0.67546 0.61817 0.0
C832 C 0.32379 0.71468 0.59032 0.0
C833 C 0.32542 0.74216 0.57921 0.0
C834 C 0.30004 0.74636 0.56948 0.0
C835 C 0.30157 0.77233 0.55926 0.0
C836 C 0.32841 0.79425 0.55853 0.0
C837 C 0.35378 0.79024 0.568 0.0
C838 C 0.35237 0.76431 0.57826 0.0
C839 C 0.3853 0.62342 0.57013 0.0
C840 C 0.41484 0.63956 0.57453 0.0
C841 C 0.36226 0.63514 0.57494 0.0
C842 C 0.36829 0.66312 0.58447 0.0
C843 C 0.39781 0.67955 0.58803 0.0
C844 C 0.42084 0.66792 0.58311 0.0
C845 C 0.34399 0.67508 0.59204 0.0
C846 C 0.34451 0.70097 0.582 0.0
C847 C 0.3213 0.66191 0.61005 0.0
C848 C 0.32009 0.63512 0.62215 0.0
C849 C 0.34385 0.63337 0.63629 0.0
C850 C 0.34264 0.60794 0.64741 0.0
C851 C 0.31768 0.5842 0.64471 0.0
C852 C 0.29381 0.58587 0.63096 0.0
C853 C 0.29493 0.61125 0.61978 0.0
H854 H 0.31679 0.56453 0.65333 0.0
H855 H 0.32955 0.81434 0.55061 0.0
H856 H 0.72642 0.77486 0.78959 0.0
H857 H 0.75615 0.79906 0.75323 0.0
H858 H 0.76404 0.87994 0.79075 0.0
H859 H 0.73442 0.85591 0.82715 0.0
H860 H 0.75201 0.8806 0.74159 0.0
H861 H 0.82112 0.85216 0.78918 0.0
H862 H 0.83973 0.81863 0.81134 0.0
H863 H 0.83931 0.77028 0.74158 0.0
H864 H 0.82026 0.8033 0.71906 0.0
H865 H 0.86862 0.96422 0.66246 0.0
H866 H 0.84138 0.94017 0.69999 0.0
H867 H 0.82785 0.85928 0.66082 0.0
H868 H 0.85536 0.88317 0.62334 0.0
H869 H 0.84341 0.859 0.71106 0.0
H870 H 0.77344 0.8874 0.66389 0.0
H871 H 0.75488 0.92116 0.64202 0.0
H872 H 0.75742 0.97011 0.7117 0.0
H873 H 0.77643 0.93685 0.7339 0.0
C874 C 0.7346 0.79779 0.79012 0.0
C875 C 0.7281 0.81347 0.81124 0.0
C876 C 0.75158 0.81159 0.76935 0.0
C877 C 0.7626 0.8413 0.76943 0.0
C878 C 0.75573 0.857 0.79029 0.0
C879 C 0.7387 0.84324 0.81103 0.0
C880 C 0.78127 0.85605 0.74775 0.0
C881 C 0.77222 0.87616 0.73515 0.0
C882 C 0.80733 0.84984 0.73905 0.0
C883 C 0.81899 0.83006 0.75249 0.0
C884 C 0.82478 0.83426 0.7786 0.0
C885 C 0.83544 0.81536 0.79122 0.0
C886 C 0.84062 0.7923 0.77789 0.0
C887 C 0.83524 0.78813 0.75189 0.0
C888 C 0.82453 0.80695 0.73918 0.0
C889 C 0.86016 0.9413 0.66199 0.0
C890 C 0.86394 0.92556 0.63995 0.0
C891 C 0.84446 0.92762 0.68334 0.0
C892 C 0.83236 0.89799 0.68303 0.0
C893 C 0.83694 0.88217 0.66138 0.0
C894 C 0.85246 0.89584 0.63996 0.0
C895 C 0.81413 0.88352 0.705 0.0
C896 C 0.82325 0.86346 0.71759 0.0
C897 C 0.78818 0.88983 0.71378 0.0
C898 C 0.77667 0.90981 0.70049 0.0
C899 C 0.77029 0.9055 0.6745 0.0
C900 C 0.75964 0.92452 0.66205 0.0
C901 C 0.75505 0.94781 0.67544 0.0
C902 C 0.76103 0.95209 0.70133 0.0
C903 C 0.77173 0.93315 0.71386 0.0
H904 H 0.7468 0.96251 0.66578 0.0
H905 H 0.84887 0.77769 0.7877 0.0
H906 H 0.74674 0.25732 0.30623 0.0
H907 H 0.72411 0.23822 0.26637 0.0
H908 H 0.80707 0.22928 0.23661 0.0
H909 H 0.83088 0.25088 0.27595 0.0
H910 H 0.77889 0.24274 0.19945 0.0
H911 H 0.753 0.17294 0.26278 0.0
H912 H 0.73505 0.1525 0.30464 0.0
H913 H 0.64967 0.16197 0.29331 0.0
H914 H 0.66724 0.18286 0.25152 0.0
H915 H 0.70038 0.12357 0.11615 0.0
H916 H 0.73271 0.15551 0.14685 0.0
H917 H 0.66185 0.18898 0.17106 0.0
H918 H 0.62972 0.15809 0.13974 0.0
H919 H 0.68669 0.16203 0.20954 0.0
H920 H 0.7159 0.23166 0.14375 0.0
H921 H 0.73606 0.24863 0.10126 0.0
H922 H 0.81809 0.23394 0.11648 0.0
H923 H 0.79825 0.21648 0.15895 0.0
C924 C 0.76065 0.25228 0.29105 0.0
C925 C 0.79079 0.25565 0.29455 0.0
C926 C 0.74743 0.24085 0.2683 0.0
C927 C 0.76366 0.23156 0.24876 0.0
C928 C 0.79403 0.23603 0.25156 0.0
C929 C 0.80751 0.24807 0.27421 0.0
C930 C 0.74827 0.21577 0.2262 0.0
C931 C 0.75894 0.22488 0.20164 0.0
C932 C 0.72226 0.19237 0.22901 0.0
C933 C 0.71153 0.1797 0.2541 0.0
C934 C 0.73046 0.17085 0.26929 0.0
C935 C 0.72034 0.15916 0.29299 0.0
C936 C 0.69126 0.156 0.30165 0.0
C937 C 0.6722 0.16446 0.28659 0.0
C938 C 0.68222 0.1762 0.26288 0.0
C939 C 0.69194 0.13839 0.12735 0.0
C940 C 0.66228 0.13797 0.12571 0.0
C941 C 0.71044 0.15654 0.14495 0.0
C942 C 0.69953 0.1744 0.16122 0.0
C943 C 0.67056 0.17521 0.15867 0.0
C944 C 0.6522 0.15739 0.1409 0.0
C945 C 0.71682 0.18951 0.18298 0.0
C946 C 0.70662 0.17996 0.20741 0.0
C947 C 0.74353 0.21191 0.17992 0.0
C948 C 0.75547 0.22246 0.15442 0.0
C949 C 0.73813 0.23177 0.13794 0.0
C950 C 0.74952 0.24155 0.11388 0.0
C951 C 0.7783 0.24228 0.10614 0.0
C952 C 0.79578 0.23332 0.12249 0.0
C953 C 0.78448 0.22351 0.14656 0.0
H954 H 0.78709 0.24987 0.08751 0.0
H955 H 0.68347 0.14694 0.32001 0.0
H956 H 0.37599 0.60338 0.27343 0.0
H957 H 0.38992 0.57937 0.30856 0.0
H958 H 0.44594 0.65978 0.33726 0.0
H959 H 0.4328 0.68342 0.3019 0.0
H960 H 0.47432 0.62549 0.34292 0.0
H961 H 0.373 0.61819 0.3652 0.0
H962 H 0.31921 0.60503 0.35903 0.0
H963 H 0.31473 0.51747 0.34976 0.0
H964 H 0.36859 0.53015 0.35558 0.0
H965 H 0.49551 0.58721 0.46828 0.0
H966 H 0.47941 0.60645 0.43155 0.0
H967 H 0.43542 0.52184 0.40332 0.0
H968 H 0.45153 0.50234 0.44027 0.0
H969 H 0.40085 0.55541 0.39628 0.0
H970 H 0.50246 0.56346 0.37631 0.0
H971 H 0.55604 0.57736 0.38368 0.0
H972 H 0.55957 0.66487 0.38968 0.0
H973 H 0.50591 0.65146 0.38269 0.0
C974 C 0.39122 0.61596 0.28724 0.0
C975 C 0.40312 0.64554 0.28462 0.0
C976 C 0.39914 0.60216 0.30764 0.0
C977 C 0.41893 0.61747 0.32635 0.0
C978 C 0.43077 0.64701 0.32348 0.0
C979 C 0.42307 0.66068 0.30311 0.0
C980 C 0.42784 0.60321 0.34859 0.0
C981 C 0.45799 0.61047 0.35466 0.0
C982 C 0.40719 0.58283 0.36408 0.0
C983 C 0.37486 0.57516 0.36053 0.0
C984 C 0.36058 0.59615 0.36165 0.0
C985 C 0.33007 0.58878 0.35825 0.0
C986 C 0.31358 0.56044 0.35392 0.0
C987 C 0.32754 0.53941 0.35306 0.0
C988 C 0.35805 0.54668 0.35643 0.0
C989 C 0.48242 0.5725 0.45435 0.0
C990 C 0.47512 0.54298 0.45759 0.0
C991 C 0.47324 0.58367 0.43306 0.0
C992 C 0.4563 0.56586 0.41401 0.0
C993 C 0.44845 0.53635 0.41742 0.0
C994 C 0.45784 0.52512 0.43869 0.0
C995 C 0.44716 0.5781 0.39069 0.0
C996 C 0.41707 0.57043 0.38445 0.0
C997 C 0.46782 0.59827 0.37512 0.0
C998 C 0.50011 0.60642 0.3792 0.0
C999 C 0.51462 0.58565 0.37938 0.0
C1000 C 0.54501 0.59345 0.38346 0.0
C1001 C 0.56118 0.62197 0.38721 0.0
C1002 C 0.547 0.64277 0.38681 0.0
C1003 C 0.51661 0.63509 0.38276 0.0
H1004 H 0.58471 0.62796 0.39037 0.0
H1005 H 0.28996 0.55478 0.3513 0.0
H1006 H 0.18714 0.40855 0.80035 0.0
H1007 H 0.16997 0.42807 0.83947 0.0
H1008 H 0.08407 0.41288 0.80762 0.0
H1009 H 0.10084 0.39226 0.76898 0.0
H1010 H 0.15225 0.47098 0.85089 0.0
H1011 H 0.03016 0.39844 0.85304 0.0
H1012 H 1.00117 0.35003 0.83935 0.0
H1013 H 0.0783 0.32277 0.84314 0.0
H1014 H 0.10764 0.3709 0.85717 0.0
H1015 H 0.06605 0.52646 0.94072 0.0
H1016 H 0.08794 0.50853 0.90325 0.0
H1017 H 0.07631 0.42997 0.94081 0.0
H1018 H 0.0533 0.44736 0.97777 0.0
H1019 H 0.05867 0.4179 0.89589 0.0
H1020 H 0.14638 0.48192 0.93048 0.0
H1021 H 0.17882 0.52743 0.94748 0.0
H1022 H 0.17685 0.56646 0.87654 0.0
H1023 H 0.14407 0.52125 0.85921 0.0
C1024 C 0.16456 0.4093 0.80181 0.0
C1025 C 0.14522 0.39859 0.78184 0.0
C1026 C 0.1548 0.42057 0.8241 0.0
C1027 C 0.12557 0.42161 0.82672 0.0
C1028 C 0.10649 0.4117 0.80636 0.0
C1029 C 0.11612 0.4 0.78423 0.0
C1030 C 0.11504 0.4328 0.85083 0.0
C1031 C 0.13179 0.45936 0.86073 0.0
C1032 C 0.08868 0.41745 0.86406 0.0
C1033 C 0.07114 0.38835 0.8559 0.0
C1034 C 0.04089 0.38208 0.85104 0.0
C1035 C 0.02441 0.3547 0.84321 0.0
C1036 C 0.03791 0.33336 0.8403 0.0
C1037 C 0.0679 0.33934 0.84531 0.0
C1038 C 0.08447 0.36667 0.85317 0.0
C1039 C 0.06855 0.50552 0.94109 0.0
C1040 C 0.05792 0.48829 0.96215 0.0
C1041 C 0.08114 0.49529 0.91967 0.0
C1042 C 0.08401 0.46791 0.91918 0.0
C1043 C 0.07421 0.45108 0.94059 0.0
C1044 C 0.06115 0.46108 0.96177 0.0
C1045 C 0.0958 0.45618 0.89597 0.0
C1046 C 0.07919 0.42954 0.88613 0.0
C1047 C 0.12278 0.47105 0.88331 0.0
C1048 C 0.14254 0.49826 0.89364 0.0
C1049 C 0.15269 0.50026 0.91857 0.0
C1050 C 0.17117 0.52599 0.92825 0.0
C1051 C 0.17983 0.54983 0.91312 0.0
C1052 C 0.17009 0.54798 0.88825 0.0
C1053 C 0.15159 0.5223 0.87848 0.0
H1054 H 0.19414 0.56974 0.92065 0.0
H1055 H 0.02512 0.31219 0.83421 0.0
H1056 H 0.62946 0.81102 0.84889 0.0
H1057 H 0.59885 0.83739 0.87028 0.0
H1058 H 0.64218 0.83762 0.94066 0.0
H1059 H 0.67257 0.81089 0.91941 0.0
H1060 H 0.58397 0.83129 0.94938 0.0
H1061 H 0.66562 0.89334 0.90138 0.0
H1062 H 0.69672 0.90927 0.86267 0.0
H1063 H 0.62173 0.9185 0.82551 0.0
H1064 H 0.59006 0.90217 0.86389 0.0
H1065 H 0.57111 0.95423 0.0141 0.0
H1066 H 0.5893 0.91909 0.99089 0.0
H1067 H 0.53743 0.92288 0.92672 0.0
H1068 H 0.51902 0.95833 0.94984 0.0
H1069 H 0.59481 0.92471 0.91289 0.0
H1070 H 0.51445 0.86748 0.96387 0.0
H1071 H 0.48481 0.85274 1.00351 0.0
H1072 H 0.55848 0.83559 0.03617 0.0
H1073 H 0.58877 0.85072 0.99688 0.0
C1074 C 0.63217 0.81642 0.869 0.0
C1075 C 0.65358 0.80921 0.88245 0.0
C1076 C 0.6147 0.83146 0.88119 0.0
C1077 C 0.61865 0.83993 0.90694 0.0
C1078 C 0.63881 0.83134 0.92077 0.0
C1079 C 0.65614 0.81606 0.90863 0.0
C1080 C 0.60352 0.85954 0.91894 0.0
C1081 C 0.58646 0.85178 0.94151 0.0
C1082 C 0.60632 0.88606 0.90836 0.0
C1083 C 0.62541 0.89624 0.8854 0.0
C1084 C 0.65572 0.89858 0.88489 0.0
C1085 C 0.67345 0.9077 0.86302 0.0
C1086 C 0.66119 0.91482 0.84162 0.0
C1087 C 0.63119 0.91293 0.84208 0.0
C1088 C 0.61334 0.90375 0.86389 0.0
C1089 C 0.56354 0.94772 0.99503 0.0
C1090 C 0.54355 0.95911 0.98384 0.0
C1091 C 0.57385 0.92746 0.98186 0.0
C1092 C 0.56437 0.9181 0.95726 0.0
C1093 C 0.54486 0.92974 0.94578 0.0
C1094 C 0.53438 0.94999 0.95901 0.0
C1095 C 0.5755 0.8966 0.94346 0.0
C1096 C 0.59193 0.90405 0.92058 0.0
C1097 C 0.57226 0.86992 0.95388 0.0
C1098 C 0.55397 0.86045 0.97746 0.0
C1099 C 0.52442 0.86076 0.97956 0.0
C1100 C 0.50749 0.85232 1.00197 0.0
C1101 C 0.51977 0.84328 0.02236 0.0
C1102 C 0.549 0.84261 0.02036 0.0
C1103 C 0.56605 0.8511 0.99801 0.0
H1104 H 0.50662 0.83676 0.0397 0.0
H1105 H 0.67495 0.92187 0.8247 0.0
H1106 H 0.8992 0.25607 0.42959 0.0
H1107 H 0.92527 0.22423 0.44418 0.0
H1108 H 0.89877 0.17027 0.37738 0.0
H1109 H 0.8732 0.20206 0.3626 0.0
H1110 H 0.90446 0.17068 0.45695 0.0
H1111 H 0.95096 0.13935 0.35938 0.0
H1112 H 0.97062 0.16131 0.31841 0.0
H1113 H 0.99488 0.24375 0.3552 0.0
H1114 H 0.97577 0.22228 0.39644 0.0
H1115 H 0.93285 0.04364 0.47147 0.0
H1116 H 0.91656 0.0795 0.45143 0.0
H1117 H 0.00759 0.13133 0.44102 0.0
H1118 H 0.02407 0.09482 0.46012 0.0
H1119 H 0.97592 0.13732 0.40235 0.0
H1120 H 0.96595 0.13884 0.49284 0.0
H1121 H 0.94953 0.11673 0.5342 0.0
H1122 H 0.85866 0.10071 0.51546 0.0
H1123 H 0.87448 0.12117 0.47328 0.0
C1124 C 0.89918 0.23751 0.41798 0.0
C1125 C 0.88426 0.2316 0.39499 0.0
C1126 C 0.914 0.21933 0.42633 0.0
C1127 C 0.91425 0.19503 0.41173 0.0
C1128 C 0.89936 0.18916 0.38872 0.0
C1129 C 0.88459 0.20731 0.38037 0.0
C1130 C 0.92889 0.17506 0.42099 0.0
C1131 C 0.92018 0.16349 0.44506 0.0
C1132 C 0.94987 0.16611 0.40569 0.0
C1133 C 0.96168 0.17919 0.38097 0.0
C1134 C 0.96061 0.16215 0.35875 0.0
C1135 C 0.97164 0.17452 0.33547 0.0
C1136 C 0.98391 0.20391 0.33418 0.0
C1137 C 0.98526 0.221 0.3562 0.0
C1138 C 0.97429 0.20874 0.37952 0.0
C1139 C 0.9494 0.06244 0.46445 0.0
C1140 C 0.97968 0.06669 0.46761 0.0
C1141 C 0.94008 0.08293 0.45306 0.0
C1142 C 0.96083 0.10843 0.44538 0.0
C1143 C 0.9912 0.11189 0.44696 0.0
C1144 C 1.00059 0.09106 0.45789 0.0
C1145 C 0.95064 0.13226 0.43786 0.0
C1146 C 0.96029 0.14462 0.41425 0.0
C1147 C 0.93103 0.14245 0.45385 0.0
C1148 C 0.92144 0.13137 0.47974 0.0
C1149 C 0.94245 0.13043 0.49742 0.0
C1150 C 0.93324 0.11808 0.521 0.0
C1151 C 0.90307 0.10748 0.52754 0.0
C1152 C 0.88203 0.10899 0.51039 0.0
C1153 C 0.89111 0.1208 0.48656 0.0
H1154 H 0.896 0.09808 0.54587 0.0
H1155 H 0.99242 0.21344 0.31614 0.0
H1156 H 0.30365 0.60289 0.17777 0.0
H1157 H 0.25846 0.5799 0.15437 0.0
H1158 H 0.24041 0.65973 0.15281 0.0
H1159 H 0.28456 0.68239 0.17691 0.0
H1160 H 0.19081 0.62108 0.16135 0.0
H1161 H 0.27065 0.62834 0.09947 0.0
H1162 H 0.31674 0.62059 0.082 0.0
H1163 H 0.27565 0.53054 0.08426 0.0
H1164 H 0.22941 0.53777 0.10205 0.0
H1165 H 0.0859 0.59048 0.06328 0.0
H1166 H 0.13018 0.60935 0.08849 0.0
H1167 H 0.14006 0.52602 0.08988 0.0
H1168 H 0.09579 0.507 0.06456 0.0
H1169 H 0.19335 0.56402 0.08203 0.0
H1170 H 0.11538 0.55587 0.14516 0.0
H1171 H 0.06976 0.56215 0.16499 0.0
H1172 H 0.1071 0.65249 0.16072 0.0
H1173 H 0.15327 0.64669 0.14114 0.0
C1174 C 0.2899 0.61551 0.17273 0.0
C1175 C 0.29829 0.64473 0.17914 0.0
C1176 C 0.2641 0.60236 0.15898 0.0
C1177 C 0.24593 0.61802 0.15114 0.0
C1178 C 0.25384 0.64696 0.15827 0.0
C1179 C 0.27946 0.66003 0.17198 0.0
C1180 C 0.21867 0.60465 0.13571 0.0
C1181 C 0.19166 0.60896 0.14383 0.0
C1182 C 0.21896 0.58798 0.11308 0.0
C1183 C 0.24669 0.5836 0.10235 0.0
C1184 C 0.27152 0.60689 0.09642 0.0
C1185 C 0.29766 0.60259 0.08643 0.0
C1186 C 0.29915 0.57509 0.08209 0.0
C1187 C 0.27448 0.55183 0.08767 0.0
C1188 C 0.24829 0.55601 0.09769 0.0
C1189 C 0.09743 0.57608 0.06887 0.0
C1190 C 0.08693 0.54708 0.06173 0.0
C1191 C 0.12282 0.58693 0.08353 0.0
C1192 C 0.13865 0.5692 0.09156 0.0
C1193 C 0.12849 0.54032 0.08411 0.0
C1194 C 0.10297 0.52941 0.06959 0.0
C1195 C 0.16571 0.58081 0.10756 0.0
C1196 C 0.19261 0.57617 0.09955 0.0
C1197 C 0.1654 0.59715 0.13033 0.0
C1198 C 0.13757 0.60083 0.14145 0.0
C1199 C 0.11375 0.57706 0.14826 0.0
C1200 C 0.08784 0.58055 0.15954 0.0
C1201 C 0.08538 0.6077 0.16395 0.0
C1202 C 0.10899 0.63146 0.15724 0.0
C1203 C 0.13509 0.62809 0.14616 0.0
H1204 H 0.06525 0.61034 0.17266 0.0
H1205 H 0.31941 0.5718 0.07436 0.0
H1206 H 0.2202 0.33812 0.65894 0.0
H1207 H 0.26536 0.36237 0.63471 0.0
H1208 H 0.24819 0.44216 0.64916 0.0
H1209 H 0.20225 0.41779 0.67277 0.0
H1210 H 0.26517 0.43694 0.60023 0.0
H1211 H 0.30133 0.42642 0.68101 0.0
H1212 H 0.30718 0.40147 0.719 0.0
H1213 H 0.34465 0.34729 0.67219 0.0
H1214 H 0.33863 0.37166 0.63385 0.0
H1215 H 0.41228 0.51728 0.55785 0.0
H1216 H 0.36555 0.49771 0.58195 0.0
H1217 H 0.37331 0.41368 0.57062 0.0
H1218 H 0.42012 0.43301 0.54682 0.0
H1219 H 0.36158 0.42466 0.61988 0.0
H1220 H 0.3228 0.43481 0.5387 0.0
H1221 H 0.31747 0.46109 0.50139 0.0
H1222 H 0.28595 0.51799 0.5502 0.0
H1223 H 0.29143 0.49224 0.58785 0.0
C1224 C 0.2259 0.3608 0.65685 0.0
C1225 C 0.2076 0.37602 0.66777 0.0
C1226 C 0.25189 0.37469 0.64319 0.0
C1227 C 0.26034 0.40414 0.64036 0.0
C1228 C 0.24214 0.41943 0.65119 0.0
C1229 C 0.21605 0.40552 0.66485 0.0
C1230 C 0.28801 0.41872 0.62577 0.0
C1231 C 0.28635 0.43464 0.60476 0.0
C1232 C 0.31558 0.41544 0.6315 0.0
C1233 C 0.31928 0.40072 0.65452 0.0
C1234 C 0.3106 0.40904 0.67878 0.0
C1235 C 0.31398 0.39502 0.70039 0.0
C1236 C 0.32622 0.37276 0.698 0.0
C1237 C 0.33515 0.36452 0.67401 0.0
C1238 C 0.33178 0.37845 0.65233 0.0
C1239 C 0.40387 0.49458 0.5602 0.0
C1240 C 0.42001 0.47672 0.55045 0.0
C1241 C 0.37711 0.48343 0.57395 0.0
C1242 C 0.36592 0.45422 0.57804 0.0
C1243 C 0.3816 0.4363 0.56777 0.0
C1244 C 0.40832 0.4474 0.55407 0.0
C1245 C 0.33862 0.44233 0.59402 0.0
C1246 C 0.34041 0.42703 0.6154 0.0
C1247 C 0.31128 0.44638 0.58872 0.0
C1248 C 0.3078 0.46176 0.5661 0.0
C1249 C 0.31494 0.45305 0.54149 0.0
C1250 C 0.31185 0.46782 0.52028 0.0
C1251 C 0.30145 0.49124 0.52343 0.0
C1252 C 0.29404 0.49987 0.54779 0.0
C1253 C 0.2971 0.48518 0.56907 0.0
H1254 H 0.29909 0.50265 0.50699 0.0
H1255 H 0.32883 0.36194 0.71476 0.0
H1256 H 0.73588 0.72342 0.91341 0.0
H1257 H 0.77105 0.70356 0.93217 0.0
H1258 H 0.79035 0.67129 0.85807 0.0
H1259 H 0.7548 0.69071 0.8393 0.0
H1260 H 0.78643 0.63325 0.89376 0.0
H1261 H 0.83627 0.73267 0.88346 0.0
H1262 H 0.8428 0.7838 0.88885 0.0
H1263 H 0.84179 0.77737 0.9701 0.0
H1264 H 0.83484 0.72608 0.9652 0.0
H1265 H 0.93177 0.62425 0.91233 0.0
H1266 H 0.89017 0.63844 0.89804 0.0
H1267 H 0.86436 0.65164 0.97614 0.0
H1268 H 0.90556 0.63689 0.99062 0.0
H1269 H 0.87002 0.69806 0.94103 0.0
H1270 H 0.82037 0.59888 0.95129 0.0
H1271 H 0.8116 0.54737 0.94602 0.0
H1272 H 0.81333 0.55379 0.86476 0.0
H1273 H 0.82198 0.60539 0.86955 0.0
C1274 C 0.74743 0.71188 0.90116 0.0
C1275 C 0.74279 0.70869 0.87486 0.0
C1276 C 0.76761 0.70065 0.91189 0.0
C1277 C 0.78365 0.6863 0.89645 0.0
C1278 C 0.77826 0.68231 0.87033 0.0
C1279 C 0.75803 0.69344 0.85963 0.0
C1280 C 0.80673 0.67619 0.9073 0.0
C1281 C 0.80486 0.6475 0.90386 0.0
C1282 C 0.83044 0.69465 0.92098 0.0
C1283 C 0.83471 0.72549 0.92397 0.0
C1284 C 0.8372 0.74212 0.90248 0.0
C1285 C 0.84102 0.77113 0.90545 0.0
C1286 C 0.84262 0.78381 0.92981 0.0
C1287 C 0.84049 0.76751 0.95125 0.0
C1288 C 0.83663 0.73847 0.94839 0.0
C1289 C 0.91726 0.63023 0.92644 0.0
C1290 C 0.92181 0.62936 0.95258 0.0
C1291 C 0.89343 0.63811 0.91827 0.0
C1292 C 0.87416 0.64584 0.93608 0.0
C1293 C 0.87893 0.64554 0.96216 0.0
C1294 C 0.90239 0.63707 0.97036 0.0
C1295 C 0.84973 0.65527 0.92732 0.0
C1296 C 0.85146 0.68385 0.93106 0.0
C1297 C 0.82599 0.63677 0.91384 0.0
C1298 C 0.82207 0.60601 0.91077 0.0
C1299 C 0.81918 0.58935 0.93228 0.0
C1300 C 0.814 0.56012 0.92939 0.0
C1301 C 0.81183 0.54731 0.90507 0.0
C1302 C 0.81493 0.56374 0.88358 0.0
C1303 C 0.81986 0.59296 0.88638 0.0
H1304 H 0.80781 0.52467 0.90288 0.0
H1305 H 0.84558 0.80628 0.93206 0.0
H1306 H 0.34709 0.74571 0.18923 0.0
H1307 H 0.36916 0.79012 0.16728 0.0
H1308 H 0.45151 0.77076 0.15714 0.0
H1309 H 0.42913 0.7258 0.17905 0.0
H1310 H 0.41213 0.83719 0.17377 0.0
H1311 H 0.486 0.79896 0.09929 0.0
H1312 H 0.48842 0.75465 0.07753 0.0
H1313 H 0.39431 0.71801 0.08866 0.0
H1314 H 0.39127 0.76222 0.11012 0.0
H1315 H 0.50049 0.95722 0.10478 0.0
H1316 H 0.48389 0.91416 0.12956 0.0
H1317 H 0.43197 0.86955 0.06698 0.0
H1318 H 0.44883 0.91249 0.04195 0.0
H1319 H 0.45686 0.83521 0.08684 0.0
H1320 H 0.4006 0.89397 0.12213 0.0
H1321 H 0.39309 0.93744 0.14157 0.0
H1322 H 0.44344 0.93122 0.20559 0.0
H1323 H 0.45158 0.88789 0.18635 0.0
C1324 C 0.37006 0.751 0.18264 0.0
C1325 C 0.38622 0.73193 0.186 0.0
C1326 C 0.38275 0.77659 0.17003 0.0
C1327 C 0.41205 0.78406 0.16 0.0
C1328 C 0.42874 0.7656 0.16422 0.0
C1329 C 0.41602 0.73993 0.17708 0.0
C1330 C 0.42435 0.81064 0.14464 0.0
C1331 C 0.42214 0.83665 0.15486 0.0
C1332 C 0.43698 0.81041 0.1196 0.0
C1333 C 0.4385 0.78376 0.10664 0.0
C1334 C 0.46583 0.78145 0.09706 0.0
C1335 C 0.4673 0.75636 0.08476 0.0
C1336 C 0.44156 0.73348 0.08182 0.0
C1337 C 0.41426 0.73569 0.09106 0.0
C1338 C 0.41265 0.76076 0.10332 0.0
C1339 C 0.4855 0.93831 0.0962 0.0
C1340 C 0.47596 0.93872 0.07123 0.0
C1341 C 0.47586 0.91353 0.11053 0.0
C1342 C 0.4562 0.88826 0.10051 0.0
C1343 C 0.44704 0.88851 0.07542 0.0
C1344 C 0.45665 0.9133 0.06107 0.0
C1345 C 0.44501 0.8618 0.11614 0.0
C1346 C 0.44727 0.83581 0.10592 0.0
C1347 C 0.43194 0.86192 0.14101 0.0
C1348 C 0.42695 0.88786 0.15268 0.0
C1349 C 0.41024 0.90199 0.14027 0.0
C1350 C 0.40585 0.92658 0.15126 0.0
C1351 C 0.41785 0.93713 0.17477 0.0
C1352 C 0.4342 0.92305 0.18737 0.0
C1353 C 0.43869 0.89846 0.17644 0.0
H1354 H 0.41443 0.95619 0.18324 0.0
H1355 H 0.44275 0.71407 0.07232 0.0
H1356 H 0.10301 0.27275 0.70975 0.0
H1357 H 0.07495 0.22671 0.69132 0.0
H1358 H 0.09533 0.26022 0.61595 0.0
H1359 H 0.12182 0.30653 0.63423 0.0
H1360 H 0.041 0.22704 0.61808 0.0
H1361 H 0.13515 0.22019 0.64414 0.0
H1362 H 0.17343 0.22255 0.67505 0.0
H1363 H 0.11054 0.15915 0.71946 0.0
H1364 H 0.07178 0.15668 0.68894 0.0
H1365 H 0.04367 0.1134 0.53535 0.0
H1366 H 0.05432 0.15568 0.56298 0.0
H1367 H 0.01621 0.10435 0.62753 0.0
H1368 H 0.00529 0.06152 0.59977 0.0
H1369 H 0.07144 0.14311 0.63674 0.0
H1370 H 0.9788 0.14669 0.6073 0.0
H1371 H 0.9409 0.14554 0.5764 0.0
H1372 H 1.00231 0.21482 0.53715 0.0
H1373 H 0.04052 0.21654 0.56797 0.0
C1374 C 0.10102 0.27047 0.68928 0.0
C1375 C 0.11502 0.2933 0.67346 0.0
C1376 C 0.08525 0.24401 0.67875 0.0
C1377 C 0.08351 0.23978 0.65219 0.0
C1378 C 0.09648 0.26284 0.63648 0.0
C1379 C 0.11193 0.28929 0.64697 0.0
C1380 C 0.06912 0.21132 0.64044 0.0
C1381 C 0.04778 0.20875 0.62212 0.0
C1382 C 0.0772 0.18712 0.6462 0.0
C1383 C 0.10051 0.1885 0.66445 0.0
C1384 C 0.12945 0.20691 0.6606 0.0
C1385 C 0.15123 0.20824 0.67802 0.0
C1386 C 0.14439 0.19107 0.69925 0.0
C1387 C 0.11578 0.17247 0.70304 0.0
C1388 C 0.09391 0.17109 0.68569 0.0
C1389 C 0.03739 0.11098 0.5554 0.0
C1390 C 0.02375 0.08403 0.56538 0.0
C1391 C 0.04329 0.13526 0.57115 0.0
C1392 C 0.03576 0.13322 0.59726 0.0
C1393 C 0.02203 0.10638 0.60738 0.0
C1394 C 0.01581 0.08197 0.59151 0.0
C1395 C 0.04404 0.15917 0.61391 0.0
C1396 C 0.06425 0.16128 0.6331 0.0
C1397 C 0.03514 0.18303 0.60882 0.0
C1398 C 0.01253 0.18164 0.58987 0.0
C1399 C 0.98427 0.16156 0.59199 0.0
C1400 C 0.9627 0.1609 0.57456 0.0
C1401 C 0.96921 0.18008 0.55481 0.0
C1402 C 0.99729 0.2 0.55248 0.0
C1403 C 0.01886 0.20092 0.56999 0.0
H1404 H 0.95248 0.17953 0.54133 0.0
H1405 H 0.16128 0.19213 0.71272 0.0
H1406 H 0.7961 0.34125 0.35553 0.0
H1407 H 0.76191 0.36212 0.37934 0.0
H1408 H 0.73567 0.29062 0.42856 0.0
H1409 H 0.77012 0.26986 0.405 0.0
H1410 H 0.68865 0.30138 0.40305 0.0
H1411 H 0.77067 0.35067 0.45433 0.0
H1412 H 0.82169 0.38073 0.46226 0.0
H1413 H 0.80548 0.44974 0.42534 0.0
H1414 H 0.75446 0.41996 0.41685 0.0
H1415 H 0.58423 0.35156 0.47486 0.0
H1416 H 0.62555 0.3333 0.46299 0.0
H1417 H 0.66958 0.41 0.42304 0.0
H1418 H 0.62872 0.42859 0.43548 0.0
H1419 H 0.70869 0.39524 0.44745 0.0
H1420 H 0.6306 0.34701 0.39173 0.0
H1421 H 0.58019 0.31806 0.38044 0.0
H1422 H 0.5896 0.24847 0.42135 0.0
H1423 H 0.63996 0.27717 0.43317 0.0
C1424 C 0.7836 0.33043 0.37187 0.0
C1425 C 0.78574 0.30405 0.37853 0.0
C1426 C 0.76415 0.34234 0.38545 0.0
C1427 C 0.74631 0.32786 0.40567 0.0
C1428 C 0.74935 0.30211 0.41305 0.0
C1429 C 0.76915 0.29041 0.39972 0.0
C1430 C 0.72234 0.33814 0.41719 0.0
C1431 C 0.69296 0.32164 0.41325 0.0
C1432 C 0.72814 0.36498 0.42964 0.0
C1433 C 0.7588 0.38298 0.43476 0.0
C1434 C 0.77805 0.37217 0.4477 0.0
C1435 C 0.80696 0.38918 0.45234 0.0
C1436 C 0.81684 0.41711 0.44426 0.0
C1437 C 0.7978 0.4281 0.43157 0.0
C1438 C 0.76887 0.41117 0.42687 0.0
C1439 C 0.60273 0.36445 0.4635 0.0
C1440 C 0.60324 0.39141 0.45597 0.0
C1441 C 0.62631 0.35403 0.45672 0.0
C1442 C 0.65053 0.37011 0.44181 0.0
C1443 C 0.65121 0.39722 0.43459 0.0
C1444 C 0.62784 0.4078 0.44166 0.0
C1445 C 0.67485 0.35853 0.43321 0.0
C1446 C 0.70429 0.37481 0.43756 0.0
C1447 C 0.66917 0.33166 0.42067 0.0
C1448 C 0.63891 0.31435 0.41358 0.0
C1449 C 0.62183 0.32561 0.39849 0.0
C1450 C 0.59329 0.30924 0.39196 0.0
C1451 C 0.58167 0.28147 0.40024 0.0
C1452 C 0.59861 0.27 0.415 0.0
C1453 C 0.62716 0.2863 0.42161 0.0
H1454 H 0.55957 0.26883 0.39516 0.0
H1455 H 0.83923 0.43024 0.44788 0.0
loop_
_geom_bond_atom_site_label_1
_geom_bond_atom_site_label_2
_geom_bond_distance
_geom_bond_site_symmetry_2
_ccdc_geom_bond_type
H0 C5 0.930 . S
H1 C8 0.930 . S
H2 C10 0.930 . S
H3 C4 1.016 . S
C4 H3 1.016 . S
C4 N11 1.286 . S
C5 H0 0.930 . S
C5 C6 1.397 . S
C5 C7 1.361 . S
C6 C5 1.397 . S
C6 C10 1.390 . S
C7 C5 1.361 . S
C7 C8 1.393 . S
C7 N11 1.413 . S
C8 H1 0.930 . S
C8 C7 1.393 . S
C8 C9 1.399 . S
C9 C8 1.399 . S
C9 C10 1.381 . S
C10 H2 0.930 . S
C10 C6 1.390 . S
C10 C9 1.381 . S
N11 C4 1.286 . S
N11 C7 1.413 . S
H12 C17 0.930 . S
H13 C20 0.930 . S
H14 C22 0.930 . S
H15 C16 1.016 . S
C16 H15 1.016 . S
C16 N23 1.286 . S
C17 H12 0.930 . S
C17 C18 1.397 . S
C17 C19 1.361 . S
C18 C17 1.397 . S
C18 C22 1.390 . S
C19 C17 1.361 . S
C19 C20 1.393 . S
C19 N23 1.413 . S
C20 H13 0.930 . S
C20 C19 1.393 . S
C20 C21 1.399 . S
C21 C20 1.399 . S
C21 C22 1.381 . S
C22 H14 0.930 . S
C22 C18 1.390 . S
C22 C21 1.381 . S
N23 C16 1.286 . S
N23 C19 1.413 . S
H24 C29 0.930 . S
H25 C32 0.930 . S
H26 C34 0.930 . S
H27 C28 1.016 . S
C28 H27 1.016 . S
C28 N35 1.286 . S
C29 H24 0.930 . S
C29 C30 1.397 . S
C29 C31 1.361 . S
C30 C29 1.397 . S
C30 C34 1.390 . S
C31 C29 1.361 . S
C31 C32 1.393 . S
C31 N35 1.413 . S
C32 H25 0.930 . S
C32 C31 1.393 . S
C32 C33 1.399 . S
C33 C32 1.399 . S
C33 C34 1.381 . S
C34 H26 0.930 . S
C34 C30 1.390 . S
C34 C33 1.381 . S
N35 C28 1.286 . S
N35 C31 1.413 . S
H36 C41 0.930 . S
H37 C44 0.930 . S
H38 C46 0.930 . S
H39 C40 1.016 . S
C40 H39 1.016 . S
C40 N47 1.286 . S
C41 H36 0.930 . S
C41 C42 1.397 . S
C41 C43 1.361 . S
C42 C41 1.397 . S
C42 C46 1.390 . S
C43 C41 1.361 . S
C43 C44 1.393 . S
C43 N47 1.413 . S
C44 H37 0.930 . S
C44 C43 1.393 . S
C44 C45 1.399 . S
C45 C44 1.399 . S
C45 C46 1.381 . S
C46 H38 0.930 . S
C46 C42 1.390 . S
C46 C45 1.381 . S
N47 C40 1.286 . S
N47 C43 1.413 . S
H48 C53 0.930 . S
H49 C56 0.930 . S
H50 C58 0.930 . S
H51 C52 1.016 . S
C52 H51 1.016 . S
C52 N59 1.286 . S
C53 H48 0.930 . S
C53 C54 1.397 . S
C53 C55 1.361 . S
C54 C53 1.397 . S
C54 C58 1.390 . S
C55 C53 1.361 . S
C55 C56 1.393 . S
C55 N59 1.413 . S
C56 H49 0.930 . S
C56 C55 1.393 . S
C56 C57 1.399 . S
C57 C56 1.399 . S
C57 C58 1.381 . S
C58 H50 0.930 . S
C58 C54 1.390 . S
C58 C57 1.381 . S
N59 C52 1.286 . S
N59 C55 1.413 . S
H60 C65 0.930 . S
H61 C68 0.930 . S
H62 C70 0.930 . S
H63 C64 1.016 . S
C64 H63 1.016 . S
C64 N71 1.286 . S
C65 H60 0.930 . S
C65 C66 1.397 . S
C65 C67 1.361 . S
C66 C65 1.397 . S
C66 C70 1.390 . S
C67 C65 1.361 . S
C67 C68 1.393 . S
C67 N71 1.413 . S
C68 H61 0.930 . S
C68 C67 1.393 . S
C68 C69 1.399 . S
C69 C68 1.399 . S
C69 C70 1.381 . S
C70 H62 0.930 . S
C70 C66 1.390 . S
C70 C69 1.381 . S
N71 C64 1.286 . S
N71 C67 1.413 . S
H72 C77 0.930 . S
H73 C80 0.930 . S
H74 C82 0.930 . S
H75 C76 1.016 . S
C76 H75 1.016 . S
C76 N83 1.286 . S
C77 H72 0.930 . S
C77 C78 1.397 . S
C77 C79 1.361 . S
C78 C77 1.397 . S
C78 C82 1.390 . S
C79 C77 1.361 . S
C79 C80 1.393 . S
C79 N83 1.413 . S
C80 H73 0.930 . S
C80 C79 1.393 . S
C80 C81 1.399 . S
C81 C80 1.399 . S
C81 C82 1.381 . S
C82 H74 0.930 . S
C82 C78 1.390 . S
C82 C81 1.381 . S
N83 C76 1.286 . S
N83 C79 1.413 . S
H84 C89 0.930 . S
H85 C92 0.930 . S
H86 C94 0.930 . S
H87 C88 1.016 . S
C88 H87 1.016 . S
C88 N95 1.286 . S
C89 H84 0.930 . S
C89 C90 1.397 . S
C89 C91 1.361 . S
C90 C89 1.397 . S
C90 C94 1.390 . S
C91 C89 1.361 . S
C91 C92 1.393 . S
C91 N95 1.413 . S
C92 H85 0.930 . S
C92 C91 1.393 . S
C92 C93 1.399 . S
C93 C92 1.399 . S
C93 C94 1.381 . S
C94 H86 0.930 . S
C94 C90 1.390 . S
C94 C93 1.381 . S
N95 C88 1.286 . S
N95 C91 1.413 . S
Dy96 O99 2.307 1_545 S
Dy96 O101 2.395 . S
Dy96 O102 2.379 . S
Dy96 O104 2.339 1_545 S
Dy96 O106 2.263 1_455 S
Dy96 O110 2.275 . S
Dy96 C118 2.738 . S
Dy97 O100 2.298 1_655 S
Dy97 O103 2.275 . S
Dy97 O105 2.307 1_565 S
Dy97 O107 2.395 . S
Dy97 O108 2.379 . S
Dy97 O111 2.339 1_565 S
Dy97 C127 2.738 . S
C98 O110 1.254 . S
C98 O111 1.257 1_455 S
O99 Dy96 2.307 1_565 S
O99 C109 1.266 . S
O100 Dy97 2.298 1_455 S
O100 C109 1.236 . S
O101 Dy96 2.395 . S
O101 C118 1.255 . S
O102 Dy96 2.379 . S
O102 C118 1.249 . S
O103 Dy97 2.275 . S
O103 C119 1.254 . S
O104 Dy96 2.339 1_565 S
O104 C119 1.257 1_455 S
O105 Dy97 2.307 1_545 S
O105 C120 1.266 . S
O106 Dy96 2.263 1_655 S
O106 C120 1.269 . S
O107 Dy97 2.395 . S
O107 C127 1.255 . S
O108 Dy97 2.379 . S
O108 C127 1.249 . S
C109 O99 1.266 . S
C109 O100 1.236 . S
O110 Dy96 2.275 . S
O110 C98 1.254 . S
O111 Dy97 2.339 1_545 S
O111 C98 1.257 1_655 S
C112 C115 1.344 . S
C112 C116 1.328 . S
C112 C118 1.516 . S
C113 C114 1.304 . S
C113 C117 1.323 . S
C114 C113 1.304 . S
C114 C115 1.371 . S
C114 H128 0.930 . S
C115 C112 1.344 . S
C115 C114 1.371 . S
C115 H129 0.931 . S
C116 C112 1.328 . S
C116 C117 1.433 . S
C116 H130 0.931 . S
C117 C113 1.323 . S
C117 C116 1.433 . S
C117 H131 0.933 . S
C118 Dy96 2.738 . S
C118 O101 1.255 . S
C118 O102 1.249 . S
C118 C112 1.516 . S
C119 O103 1.254 . S
C119 O104 1.257 1_655 S
C120 O105 1.266 . S
C120 O106 1.269 . S
C121 C124 1.344 . S
C121 C125 1.328 . S
C121 C127 1.516 . S
C122 C123 1.304 . S
C122 C126 1.323 . S
C123 C122 1.304 . S
C123 C124 1.371 . S
C123 H132 0.930 . S
C124 C121 1.344 . S
C124 C123 1.371 . S
C124 H133 0.931 . S
C125 C121 1.328 . S
C125 C126 1.433 . S
C125 H134 0.931 . S
C126 C122 1.323 . S
C126 C125 1.433 . S
C126 H135 0.933 . S
C127 Dy97 2.738 . S
C127 O107 1.255 . S
C127 O108 1.249 . S
C127 C121 1.516 . S
H128 C114 0.930 . S
H129 C115 0.931 . S
H130 C116 0.931 . S
H131 C117 0.933 . S
H132 C123 0.930 . S
H133 C124 0.931 . S
H134 C125 0.931 . S
H135 C126 0.933 . S
Dy136 O139 2.307 1_556 S
Dy136 O141 2.395 1_545 S
Dy136 O142 2.379 1_545 S
Dy136 O144 2.339 . S
Dy136 O146 2.298 1_545 S
Dy136 O150 2.275 1_546 S
Dy136 C158 2.738 1_545 S
Dy137 O140 2.298 . S
Dy137 O143 2.264 1_554 S
Dy137 O145 2.294 1_544 S
Dy137 O147 2.395 . S
Dy137 O148 2.379 . S
Dy137 O151 2.339 1_545 S
Dy137 C167 2.738 . S
C138 O150 1.254 . S
C138 O151 1.257 . S
O139 Dy136 2.307 1_554 S
O139 C149 1.266 . S
O140 Dy137 2.298 . S
O140 C149 1.236 . S
O141 Dy136 2.395 1_565 S
O141 C158 1.255 . S
O142 Dy136 2.379 1_565 S
O142 C158 1.249 . S
O143 Dy137 2.264 1_556 S
O143 C159 1.265 . S
O144 Dy136 2.339 . S
O144 C159 1.257 . S
O145 Dy137 2.294 1_566 S
O145 C160 1.282 . S
O146 Dy136 2.298 1_565 S
O146 C160 1.236 . S
O147 Dy137 2.395 . S
O147 C167 1.255 . S
O148 Dy137 2.379 . S
O148 C167 1.249 . S
C149 O139 1.266 . S
C149 O140 1.236 . S
O150 Dy136 2.275 1_564 S
O150 C138 1.254 . S
O151 Dy137 2.339 1_565 S
O151 C138 1.257 . S
C152 C155 1.344 . S
C152 C156 1.328 . S
C152 C158 1.516 . S
C153 C154 1.304 . S
C153 C157 1.323 . S
C154 C153 1.304 . S
C154 C155 1.371 . S
C154 H168 0.930 . S
C155 C152 1.344 . S
C155 C154 1.371 . S
C155 H169 0.931 . S
C156 C152 1.328 . S
C156 C157 1.433 . S
C156 H170 0.931 . S
C157 C153 1.323 . S
C157 C156 1.433 . S
C157 H171 0.933 . S
C158 Dy136 2.738 1_565 S
C158 O141 1.255 . S
C158 O142 1.249 . S
C158 C152 1.516 . S
C159 O143 1.265 . S
C159 O144 1.257 . S
C160 O145 1.282 . S
C160 O146 1.236 . S
C161 C164 1.344 . S
C161 C165 1.328 . S
C161 C167 1.516 . S
C162 C163 1.304 . S
C162 C166 1.323 . S
C163 C162 1.304 . S
C163 C164 1.371 . S
C163 H172 0.930 . S
C164 C161 1.344 . S
C164 C163 1.371 . S
C164 H173 0.931 . S
C165 C161 1.328 . S
C165 C166 1.433 . S
C165 H174 0.931 . S
C166 C162 1.323 . S
C166 C165 1.433 . S
C166 H175 0.933 . S
C167 Dy137 2.738 . S
C167 O147 1.255 . S
C167 O148 1.249 . S
C167 C161 1.516 . S
H168 C154 0.930 . S
H169 C155 0.931 . S
H170 C156 0.931 . S
H171 C157 0.933 . S
H172 C163 0.930 . S
H173 C164 0.931 . S
H174 C165 0.931 . S
H175 C166 0.933 . S
Dy176 O179 2.307 . S
Dy176 O181 2.395 . S
Dy176 O182 2.379 . S
Dy176 O184 2.339 . S
Dy176 O186 2.298 . S
Dy176 O190 2.275 . S
Dy176 C198 2.738 . S
Dy177 O180 2.298 . S
Dy177 O183 2.275 . S
Dy177 O185 2.307 . S
Dy177 O187 2.395 . S
Dy177 O188 2.379 . S
Dy177 O191 2.339 . S
Dy177 C207 2.738 . S
C178 O190 1.254 . S
C178 O191 1.257 . S
O179 Dy176 2.307 . S
O179 C189 1.266 . S
O180 Dy177 2.298 . S
O180 C189 1.236 . S
O181 Dy176 2.395 . S
O181 C198 1.255 . S
O182 Dy176 2.379 . S
O182 C198 1.249 . S
O183 Dy177 2.275 . S
O183 C199 1.254 . S
O184 Dy176 2.339 . S
O184 C199 1.257 . S
O185 Dy177 2.307 . S
O185 C200 1.266 . S
O186 Dy176 2.298 . S
O186 C200 1.236 . S
O187 Dy177 2.395 . S
O187 C207 1.255 . S
O188 Dy177 2.379 . S
O188 C207 1.249 . S
C189 O179 1.266 . S
C189 O180 1.236 . S
O190 Dy176 2.275 . S
O190 C178 1.254 . S
O191 Dy177 2.339 . S
O191 C178 1.257 . S
C192 C195 1.344 . S
C192 C196 1.328 . S
C192 C198 1.516 . S
C193 C194 1.304 . S
C193 C197 1.323 . S
C194 C193 1.304 . S
C194 C195 1.371 . S
C194 H208 0.930 . S
C195 C192 1.344 . S
C195 C194 1.371 . S
C195 H209 0.931 . S
C196 C192 1.328 . S
C196 C197 1.433 . S
C196 H210 0.931 . S
C197 C193 1.323 . S
C197 C196 1.433 . S
C197 H211 0.933 . S
C198 Dy176 2.738 . S
C198 O181 1.255 . S
C198 O182 1.249 . S
C198 C192 1.516 . S
C199 O183 1.254 . S
C199 O184 1.257 . S
C200 O185 1.266 . S
C200 O186 1.236 . S
C201 C204 1.344 . S
C201 C205 1.328 . S
C201 C207 1.516 . S
C202 C203 1.304 . S
C202 C206 1.323 . S
C203 C202 1.304 . S
C203 C204 1.371 . S
C203 H212 0.930 . S
C204 C201 1.344 . S
C204 C203 1.371 . S
C204 H213 0.931 . S
C205 C201 1.328 . S
C205 C206 1.433 . S
C205 H214 0.931 . S
C206 C202 1.323 . S
C206 C205 1.433 . S
C206 H215 0.933 . S
C207 Dy177 2.738 . S
C207 O187 1.255 . S
C207 O188 1.249 . S
C207 C201 1.516 . S
H208 C194 0.930 . S
H209 C195 0.931 . S
H210 C196 0.931 . S
H211 C197 0.933 . S
H212 C203 0.930 . S
H213 C204 0.931 . S
H214 C205 0.931 . S
H215 C206 0.933 . S
Dy216 O219 2.307 1_556 S
Dy216 O221 2.395 1_455 S
Dy216 O222 2.379 1_455 S
Dy216 O224 2.339 . S
Dy216 O226 2.298 1_455 S
Dy216 O230 2.275 1_456 S
Dy216 C238 2.738 1_455 S
Dy217 O220 2.298 . S
Dy217 O223 2.275 1_554 S
Dy217 O225 2.307 1_455 S
Dy217 O227 2.395 . S
Dy217 O228 2.379 . S
Dy217 O231 2.339 1_455 S
Dy217 C247 2.738 . S
C218 O230 1.254 . S
C218 O231 1.257 . S
O219 Dy216 2.307 1_554 S
O219 C229 1.266 . S
O220 Dy217 2.298 . S
O220 C229 1.236 . S
O221 Dy216 2.395 1_655 S
O221 C238 1.255 . S
O222 Dy216 2.379 1_655 S
O222 C238 1.249 . S
O223 Dy217 2.275 1_556 S
O223 C239 1.254 . S
O224 Dy216 2.339 . S
O224 C239 1.257 . S
O225 Dy217 2.307 1_655 S
O225 C240 1.266 1_554 S
O226 Dy216 2.298 1_655 S
O226 C240 1.236 . S
O227 Dy217 2.395 . S
O227 C247 1.255 . S
O228 Dy217 2.379 . S
O228 C247 1.249 . S
C229 O219 1.266 . S
C229 O220 1.236 . S
O230 Dy216 2.275 1_654 S
O230 C218 1.254 . S
O231 Dy217 2.339 1_655 S
O231 C218 1.257 . S
C232 C235 1.344 . S
C232 C236 1.328 . S
C232 C238 1.516 . S
C233 C234 1.304 . S
C233 C237 1.323 . S
C234 C233 1.304 . S
C234 C235 1.371 . S
C234 H248 0.930 . S
C235 C232 1.344 . S
C235 C234 1.371 . S
C235 H249 0.931 . S
C236 C232 1.328 . S
C236 C237 1.433 . S
C236 H250 0.931 . S
C237 C233 1.323 . S
C237 C236 1.433 . S
C237 H251 0.933 . S
C238 Dy216 2.738 1_655 S
C238 O221 1.255 . S
C238 O222 1.249 . S
C238 C232 1.516 . S
C239 O223 1.254 . S
C239 O224 1.257 . S
C240 O225 1.266 1_556 S
C240 O226 1.236 . S
C241 C244 1.344 . S
C241 C245 1.328 . S
C241 C247 1.516 . S
C242 C243 1.304 . S
C242 C246 1.323 . S
C243 C242 1.304 . S
C243 C244 1.371 . S
C243 H252 0.930 . S
C244 C241 1.344 . S
C244 C243 1.371 . S
C244 H253 0.931 . S
C245 C241 1.328 . S
C245 C246 1.433 . S
C245 H254 0.931 . S
C246 C242 1.323 . S
C246 C245 1.433 . S
C246 H255 0.933 . S
C247 Dy217 2.738 . S
C247 O227 1.255 . S
C247 O228 1.249 . S
C247 C241 1.516 . S
H248 C234 0.930 . S
H249 C235 0.931 . S
H250 C236 0.931 . S
H251 C237 0.933 . S
H252 C243 0.930 . S
H253 C244 0.931 . S
H254 C245 0.931 . S
H255 C246 0.933 . S
H256 C274 0.951 . S
H257 C276 0.951 . S
H258 C278 0.950 . S
H259 C279 0.950 . S
H260 C281 0.950 . S
H261 C284 0.950 . S
H262 C285 0.950 . S
H263 C287 0.950 . S
H264 C288 0.950 . S
H265 C289 0.951 . S
H266 C291 0.951 . S
H267 C293 0.950 . S
H268 C294 0.950 . S
H269 C296 0.950 . S
H270 C299 0.950 . S
H271 C300 0.950 . S
H272 C302 0.950 . S
H273 C303 0.950 . S
C274 H256 0.951 . S
C274 C275 1.366 . S
C274 C276 1.388 . S
C275 C274 1.366 . S
C275 C279 1.385 . S
C276 H257 0.951 . S
C276 C274 1.388 . S
C276 C277 1.366 . S
C277 C276 1.366 . S
C277 C278 1.414 . S
C277 C280 1.499 . S
C278 H258 0.950 . S
C278 C277 1.414 . S
C278 C279 1.374 . S
C279 H259 0.950 . S
C279 C275 1.385 . S
C279 C278 1.374 . S
C280 C277 1.499 . S
C280 C281 1.373 . S
C280 C282 1.389 . S
C281 H260 0.950 . S
C281 C280 1.373 . S
C281 C297 1.377 . S
C282 C280 1.389 . S
C282 C283 1.524 . S
C282 C296 1.377 . S
C283 C282 1.524 . S
C283 C284 1.397 . S
C283 C288 1.363 . S
C284 H261 0.950 . S
C284 C283 1.397 . S
C284 C285 1.334 . S
C285 H262 0.950 . S
C285 C284 1.334 . S
C285 C286 1.287 . S
C286 C285 1.287 . S
C286 C287 1.524 . S
C286 H305 0.913 . S
C287 H263 0.950 . S
C287 C286 1.524 . S
C287 C288 1.415 . S
C288 H264 0.950 . S
C288 C283 1.363 . S
C288 C287 1.415 . S
C289 H265 0.951 . S
C289 C290 1.366 . S
C289 C291 1.388 . S
C290 C289 1.366 . S
C290 C294 1.385 . S
C291 H266 0.951 . S
C291 C289 1.388 . S
C291 C292 1.366 . S
C292 C291 1.366 . S
C292 C293 1.414 . S
C292 C295 1.499 . S
C293 H267 0.950 . S
C293 C292 1.414 . S
C293 C294 1.374 . S
C294 H268 0.950 . S
C294 C290 1.385 . S
C294 C293 1.374 . S
C295 C292 1.499 . S
C295 C296 1.373 . S
C295 C297 1.389 . S
C296 H269 0.950 . S
C296 C282 1.377 . S
C296 C295 1.373 . S
C297 C281 1.377 . S
C297 C295 1.389 . S
C297 C298 1.524 . S
C298 C297 1.524 . S
C298 C299 1.397 . S
C298 C303 1.363 . S
C299 H270 0.950 . S
C299 C298 1.397 . S
C299 C300 1.334 . S
C300 H271 0.950 . S
C300 C299 1.334 . S
C300 C301 1.287 . S
C301 C300 1.287 . S
C301 C302 1.524 . S
C301 H304 0.999 . S
C302 H272 0.950 . S
C302 C301 1.524 . S
C302 C303 1.415 . S
C303 H273 0.950 . S
C303 C298 1.363 . S
C303 C302 1.415 . S
H304 C301 0.999 . S
H305 C286 0.913 . S
H306 C324 0.951 . S
H307 C326 0.951 . S
H308 C328 0.950 . S
H309 C329 0.950 . S
H310 C331 0.950 . S
H311 C334 0.950 . S
H312 C335 0.950 . S
H313 C337 0.950 . S
H314 C338 0.950 . S
H315 C339 0.951 . S
H316 C341 0.951 . S
H317 C343 0.950 . S
H318 C344 0.950 . S
H319 C346 0.950 . S
H320 C349 0.950 . S
H321 C350 0.950 . S
H322 C352 0.950 . S
H323 C353 0.950 . S
C324 H306 0.951 . S
C324 C325 1.366 . S
C324 C326 1.388 . S
C325 C324 1.366 . S
C325 C329 1.385 . S
C326 H307 0.951 . S
C326 C324 1.388 . S
C326 C327 1.366 . S
C327 C326 1.366 . S
C327 C328 1.414 . S
C327 C330 1.499 . S
C328 H308 0.950 . S
C328 C327 1.414 . S
C328 C329 1.374 . S
C329 H309 0.950 . S
C329 C325 1.385 . S
C329 C328 1.374 . S
C330 C327 1.499 . S
C330 C331 1.373 . S
C330 C332 1.389 . S
C331 H310 0.950 . S
C331 C330 1.373 . S
C331 C347 1.377 . S
C332 C330 1.389 . S
C332 C333 1.524 . S
C332 C346 1.377 . S
C333 C332 1.524 . S
C333 C334 1.397 . S
C333 C338 1.363 . S
C334 H311 0.950 . S
C334 C333 1.397 . S
C334 C335 1.334 . S
C335 H312 0.950 . S
C335 C334 1.334 . S
C335 C336 1.287 . S
C336 C335 1.287 . S
C336 C337 1.524 . S
C336 H355 0.913 . S
C337 H313 0.950 . S
C337 C336 1.524 . S
C337 C338 1.415 . S
C338 H314 0.950 . S
C338 C333 1.363 . S
C338 C337 1.415 . S
C339 H315 0.951 . S
C339 C340 1.366 . S
C339 C341 1.388 . S
C340 C339 1.366 . S
C340 C344 1.385 . S
C341 H316 0.951 . S
C341 C339 1.388 . S
C341 C342 1.366 . S
C342 C341 1.366 . S
C342 C343 1.414 . S
C342 C345 1.499 . S
C343 H317 0.950 . S
C343 C342 1.414 . S
C343 C344 1.374 . S
C344 H318 0.950 . S
C344 C340 1.385 . S
C344 C343 1.374 . S
C345 C342 1.499 . S
C345 C346 1.373 . S
C345 C347 1.389 . S
C346 H319 0.950 . S
C346 C332 1.377 . S
C346 C345 1.373 . S
C347 C331 1.377 . S
C347 C345 1.389 . S
C347 C348 1.524 . S
C348 C347 1.524 . S
C348 C349 1.397 . S
C348 C353 1.363 . S
C349 H320 0.950 . S
C349 C348 1.397 . S
C349 C350 1.334 . S
C350 H321 0.950 . S
C350 C349 1.334 . S
C350 C351 1.287 . S
C351 C350 1.287 . S
C351 C352 1.524 . S
C351 H354 0.999 . S
C352 H322 0.950 . S
C352 C351 1.524 . S
C352 C353 1.415 . S
C353 H323 0.950 . S
C353 C348 1.363 . S
C353 C352 1.415 . S
H354 C351 0.999 . S
H355 C336 0.913 . S
H356 C374 0.951 . S
H357 C376 0.951 . S
H358 C378 0.950 . S
H359 C379 0.950 . S
H360 C381 0.950 . S
H361 C384 0.950 . S
H362 C385 0.950 . S
H363 C387 0.950 . S
H364 C388 0.950 . S
H365 C389 0.951 . S
H366 C391 0.951 . S
H367 C393 0.950 . S
H368 C394 0.950 . S
H369 C396 0.950 . S
H370 C399 0.950 . S
H371 C400 0.950 . S
H372 C402 0.950 . S
H373 C403 0.950 . S
C374 H356 0.951 . S
C374 C375 1.366 . S
C374 C376 1.388 . S
C375 C374 1.366 . S
C375 C379 1.385 . S
C376 H357 0.951 . S
C376 C374 1.388 . S
C376 C377 1.366 . S
C377 C376 1.366 . S
C377 C378 1.414 . S
C377 C380 1.499 . S
C378 H358 0.950 . S
C378 C377 1.414 . S
C378 C379 1.374 . S
C379 H359 0.950 . S
C379 C375 1.385 . S
C379 C378 1.374 . S
C380 C377 1.499 . S
C380 C381 1.373 . S
C380 C382 1.389 . S
C381 H360 0.950 . S
C381 C380 1.373 . S
C381 C397 1.377 . S
C382 C380 1.389 . S
C382 C383 1.524 . S
C382 C396 1.377 . S
C383 C382 1.524 . S
C383 C384 1.397 . S
C383 C388 1.363 . S
C384 H361 0.950 . S
C384 C383 1.397 . S
C384 C385 1.334 . S
C385 H362 0.950 . S
C385 C384 1.334 . S
C385 C386 1.287 . S
C386 C385 1.287 . S
C386 C387 1.524 . S
C386 H405 0.913 . S
C387 H363 0.950 . S
C387 C386 1.524 . S
C387 C388 1.415 . S
C388 H364 0.950 . S
C388 C383 1.363 . S
C388 C387 1.415 . S
C389 H365 0.951 . S
C389 C390 1.366 . S
C389 C391 1.388 . S
C390 C389 1.366 . S
C390 C394 1.385 . S
C391 H366 0.951 . S
C391 C389 1.388 . S
C391 C392 1.366 . S
C392 C391 1.366 . S
C392 C393 1.414 . S
C392 C395 1.499 . S
C393 H367 0.950 . S
C393 C392 1.414 . S
C393 C394 1.374 . S
C394 H368 0.950 . S
C394 C390 1.385 . S
C394 C393 1.374 . S
C395 C392 1.499 . S
C395 C396 1.373 . S
C395 C397 1.389 . S
C396 H369 0.950 . S
C396 C382 1.377 . S
C396 C395 1.373 . S
C397 C381 1.377 . S
C397 C395 1.389 . S
C397 C398 1.524 . S
C398 C397 1.524 . S
C398 C399 1.397 . S
C398 C403 1.363 . S
C399 H370 0.950 . S
C399 C398 1.397 . S
C399 C400 1.334 . S
C400 H371 0.950 . S
C400 C399 1.334 . S
C400 C401 1.287 . S
C401 C400 1.287 . S
C401 C402 1.524 . S
C401 H404 0.999 . S
C402 H372 0.950 . S
C402 C401 1.524 . S
C402 C403 1.415 . S
C403 H373 0.950 . S
C403 C398 1.363 . S
C403 C402 1.415 . S
H404 C401 0.999 . S
H405 C386 0.913 . S
H406 C424 0.951 . S
H407 C426 0.951 . S
H408 C428 0.950 . S
H409 C429 0.950 . S
H410 C431 0.950 . S
H411 C434 0.950 . S
H412 C435 0.950 . S
H413 C437 0.950 . S
H414 C438 0.950 . S
H415 C439 0.951 . S
H416 C441 0.951 . S
H417 C443 0.950 . S
H418 C444 0.950 . S
H419 C446 0.950 . S
H420 C449 0.943 . S
H421 C450 0.950 . S
H422 C452 0.950 . S
H423 C453 0.950 . S
C424 H406 0.951 . S
C424 C425 1.366 . S
C424 C426 1.388 . S
C425 C424 1.366 . S
C425 C429 1.385 . S
C426 H407 0.951 . S
C426 C424 1.388 . S
C426 C427 1.366 . S
C427 C426 1.366 . S
C427 C428 1.414 . S
C427 C430 1.499 . S
C428 H408 0.950 . S
C428 C427 1.414 . S
C428 C429 1.374 . S
C429 H409 0.950 . S
C429 C425 1.385 . S
C429 C428 1.374 . S
C430 C427 1.499 . S
C430 C431 1.373 . S
C430 C432 1.389 . S
C431 H410 0.950 . S
C431 C430 1.373 . S
C431 C447 1.377 . S
C432 C430 1.389 . S
C432 C433 1.524 . S
C432 C446 1.377 . S
C433 C432 1.524 . S
C433 C434 1.397 . S
C433 C438 1.363 . S
C434 H411 0.950 . S
C434 C433 1.397 . S
C434 C435 1.334 . S
C435 H412 0.950 . S
C435 C434 1.334 . S
C435 C436 1.287 . S
C436 C435 1.287 . S
C436 C437 1.524 . S
C436 H455 0.913 . S
C437 H413 0.950 . S
C437 C436 1.524 . S
C437 C438 1.415 . S
C438 H414 0.950 . S
C438 C433 1.363 . S
C438 C437 1.415 . S
C439 H415 0.951 . S
C439 C440 1.366 . S
C439 C441 1.388 . S
C440 C439 1.366 . S
C440 C444 1.385 . S
C441 H416 0.951 . S
C441 C439 1.388 . S
C441 C442 1.366 . S
C442 C441 1.366 . S
C442 C443 1.414 . S
C442 C445 1.499 . S
C443 H417 0.950 . S
C443 C442 1.414 . S
C443 C444 1.374 . S
C444 H418 0.950 . S
C444 C440 1.385 . S
C444 C443 1.374 . S
C445 C442 1.499 . S
C445 C446 1.373 . S
C445 C447 1.389 . S
C446 H419 0.950 . S
C446 C432 1.377 . S
C446 C445 1.373 . S
C447 C431 1.377 . S
C447 C445 1.389 . S
C447 C448 1.524 . S
C448 C447 1.524 . S
C448 C449 1.377 1_655 S
C448 C453 1.363 . S
C449 H420 0.943 . S
C449 C448 1.377 1_455 S
C449 C450 1.360 . S
C450 H421 0.950 . S
C450 C449 1.360 . S
C450 C451 1.287 . S
C451 C450 1.287 . S
C451 C452 1.524 1_455 S
C451 H454 0.999 . S
C452 H422 0.950 . S
C452 C451 1.524 1_655 S
C452 C453 1.415 . S
C453 H423 0.950 . S
C453 C448 1.363 . S
C453 C452 1.415 . S
H454 C451 0.999 . S
H455 C436 0.913 . S
H456 C474 0.951 . S
H457 C476 0.951 . S
H458 C478 0.950 . S
H459 C479 0.950 . S
H460 C481 0.950 . S
H461 C484 0.950 . S
H462 C485 0.950 . S
H463 C487 0.950 . S
H464 C488 0.950 . S
H465 C489 0.951 . S
H466 C491 0.951 . S
H467 C493 0.950 . S
H468 C494 0.950 . S
H469 C496 0.950 . S
H470 C499 0.950 . S
H471 C500 0.950 . S
H472 C502 0.950 . S
H473 C503 0.950 . S
C474 H456 0.951 . S
C474 C475 1.366 . S
C474 C476 1.388 . S
C475 C474 1.366 . S
C475 C479 1.385 . S
C476 H457 0.951 . S
C476 C474 1.388 . S
C476 C477 1.366 . S
C477 C476 1.366 . S
C477 C478 1.414 . S
C477 C480 1.499 . S
C478 H458 0.950 . S
C478 C477 1.414 . S
C478 C479 1.374 . S
C479 H459 0.950 . S
C479 C475 1.385 . S
C479 C478 1.374 . S
C480 C477 1.499 . S
C480 C481 1.373 . S
C480 C482 1.389 . S
C481 H460 0.950 . S
C481 C480 1.373 . S
C481 C497 1.377 . S
C482 C480 1.389 . S
C482 C483 1.524 . S
C482 C496 1.377 . S
C483 C482 1.524 . S
C483 C484 1.397 . S
C483 C488 1.363 . S
C484 H461 0.950 . S
C484 C483 1.397 . S
C484 C485 1.334 . S
C485 H462 0.950 . S
C485 C484 1.334 . S
C485 C486 1.287 . S
C486 C485 1.287 . S
C486 C487 1.524 . S
C486 H505 0.913 . S
C487 H463 0.950 . S
C487 C486 1.524 . S
C487 C488 1.415 . S
C488 H464 0.950 . S
C488 C483 1.363 . S
C488 C487 1.415 . S
C489 H465 0.951 . S
C489 C490 1.366 . S
C489 C491 1.388 . S
C490 C489 1.366 . S
C490 C494 1.385 . S
C491 H466 0.951 . S
C491 C489 1.388 . S
C491 C492 1.366 . S
C492 C491 1.366 . S
C492 C493 1.414 . S
C492 C495 1.499 . S
C493 H467 0.950 . S
C493 C492 1.414 . S
C493 C494 1.374 . S
C494 H468 0.950 . S
C494 C490 1.385 . S
C494 C493 1.374 . S
C495 C492 1.499 . S
C495 C496 1.373 . S
C495 C497 1.389 . S
C496 H469 0.950 . S
C496 C482 1.377 . S
C496 C495 1.373 . S
C497 C481 1.377 . S
C497 C495 1.389 . S
C497 C498 1.524 . S
C498 C497 1.524 . S
C498 C499 1.397 . S
C498 C503 1.363 . S
C499 H470 0.950 . S
C499 C498 1.397 . S
C499 C500 1.334 . S
C500 H471 0.950 . S
C500 C499 1.334 . S
C500 C501 1.287 . S
C501 C500 1.287 . S
C501 C502 1.524 . S
C501 H504 0.999 . S
C502 H472 0.950 . S
C502 C501 1.524 . S
C502 C503 1.415 . S
C503 H473 0.950 . S
C503 C498 1.363 . S
C503 C502 1.415 . S
H504 C501 0.999 . S
H505 C486 0.913 . S
H506 C524 0.951 . S
H507 C526 0.951 . S
H508 C528 0.950 . S
H509 C529 0.950 . S
H510 C531 0.950 . S
H511 C534 0.950 . S
H512 C535 0.950 . S
H513 C537 0.950 . S
H514 C538 0.950 . S
H515 C539 0.951 . S
H516 C541 0.951 . S
H517 C543 0.950 . S
H518 C544 0.968 . S
H519 C546 0.950 . S
H520 C549 0.950 . S
H521 C550 0.950 . S
H522 C552 0.950 . S
H523 C553 0.950 . S
C524 H506 0.951 . S
C524 C525 1.366 . S
C524 C526 1.388 . S
C525 C524 1.366 . S
C525 C529 1.385 . S
C526 H507 0.951 . S
C526 C524 1.388 . S
C526 C527 1.366 . S
C527 C526 1.366 . S
C527 C528 1.414 . S
C527 C530 1.499 . S
C528 H508 0.950 . S
C528 C527 1.414 . S
C528 C529 1.374 . S
C529 H509 0.950 . S
C529 C525 1.385 . S
C529 C528 1.374 . S
C530 C527 1.499 . S
C530 C531 1.373 . S
C530 C532 1.389 . S
C531 H510 0.950 . S
C531 C530 1.373 . S
C531 C547 1.377 . S
C532 C530 1.389 . S
C532 C533 1.524 . S
C532 C546 1.377 . S
C533 C532 1.524 . S
C533 C534 1.397 . S
C533 C538 1.363 . S
C534 H511 0.950 . S
C534 C533 1.397 . S
C534 C535 1.334 . S
C535 H512 0.950 . S
C535 C534 1.334 . S
C535 C536 1.287 . S
C536 C535 1.287 . S
C536 C537 1.524 . S
C536 H555 0.913 . S
C537 H513 0.950 . S
C537 C536 1.524 . S
C537 C538 1.415 . S
C538 H514 0.950 . S
C538 C533 1.363 . S
C538 C537 1.415 . S
C539 H515 0.951 . S
C539 C540 1.366 . S
C539 C541 1.388 . S
C540 C539 1.366 . S
C540 C544 1.385 . S
C541 H516 0.951 . S
C541 C539 1.388 . S
C541 C542 1.366 . S
C542 C541 1.366 . S
C542 C543 1.414 . S
C542 C545 1.499 . S
C543 H517 0.950 . S
C543 C542 1.414 . S
C543 C544 1.374 . S
C544 H518 0.968 . S
C544 C540 1.385 . S
C544 C543 1.374 . S
C545 C542 1.499 . S
C545 C546 1.373 . S
C545 C547 1.389 . S
C546 H519 0.950 . S
C546 C532 1.377 . S
C546 C545 1.373 . S
C547 C531 1.377 . S
C547 C545 1.389 . S
C547 C548 1.524 . S
C548 C547 1.524 . S
C548 C549 1.397 . S
C548 C553 1.363 . S
C549 H520 0.950 . S
C549 C548 1.397 . S
C549 C550 1.334 . S
C550 H521 0.950 . S
C550 C549 1.334 . S
C550 C551 1.287 . S
C551 C550 1.287 . S
C551 C552 1.524 . S
C551 H554 0.999 . S
C552 H522 0.950 . S
C552 C551 1.524 . S
C552 C553 1.415 . S
C553 H523 0.950 . S
C553 C548 1.363 . S
C553 C552 1.415 . S
H554 C551 0.999 . S
H555 C536 0.913 . S
H556 C574 0.951 . S
H557 C576 0.951 . S
H558 C578 0.950 . S
H559 C579 0.950 . S
H560 C581 0.950 . S
H561 C584 0.950 . S
H562 C585 0.950 . S
H563 C587 0.950 . S
H564 C588 0.950 . S
H565 C589 0.951 1_554 S
H566 C591 0.951 . S
H567 C593 0.950 . S
H568 C594 0.950 . S
H569 C596 0.950 . S
H570 C599 0.950 . S
H571 C600 0.950 . S
H572 C602 0.950 . S
H573 C603 0.950 . S
C574 H556 0.951 . S
C574 C575 1.366 . S
C574 C576 1.388 . S
C575 C574 1.366 . S
C575 C579 1.385 . S
C576 H557 0.951 . S
C576 C574 1.388 . S
C576 C577 1.366 . S
C577 C576 1.366 . S
C577 C578 1.414 . S
C577 C580 1.499 . S
C578 H558 0.950 . S
C578 C577 1.414 . S
C578 C579 1.374 . S
C579 H559 0.950 . S
C579 C575 1.385 . S
C579 C578 1.374 . S
C580 C577 1.499 . S
C580 C581 1.373 . S
C580 C582 1.389 . S
C581 H560 0.950 . S
C581 C580 1.373 . S
C581 C597 1.377 . S
C582 C580 1.389 . S
C582 C583 1.524 . S
C582 C596 1.377 . S
C583 C582 1.524 . S
C583 C584 1.397 . S
C583 C588 1.363 . S
C584 H561 0.950 . S
C584 C583 1.397 . S
C584 C585 1.334 . S
C585 H562 0.950 . S
C585 C584 1.334 . S
C585 C586 1.287 . S
C586 C585 1.287 . S
C586 C587 1.524 . S
C586 H605 0.913 . S
C587 H563 0.950 . S
C587 C586 1.524 . S
C587 C588 1.415 . S
C588 H564 0.950 . S
C588 C583 1.363 . S
C588 C587 1.415 . S
C589 H565 0.951 1_556 S
C589 C590 1.366 . S
C589 C591 1.388 . S
C590 C589 1.366 . S
C590 C594 1.385 . S
C591 H566 0.951 . S
C591 C589 1.388 . S
C591 C592 1.366 . S
C592 C591 1.366 . S
C592 C593 1.414 . S
C592 C595 1.499 . S
C593 H567 0.950 . S
C593 C592 1.414 . S
C593 C594 1.374 . S
C594 H568 0.950 . S
C594 C590 1.385 . S
C594 C593 1.374 . S
C595 C592 1.499 . S
C595 C596 1.373 . S
C595 C597 1.389 . S
C596 H569 0.950 . S
C596 C582 1.377 . S
C596 C595 1.373 . S
C597 C581 1.377 . S
C597 C595 1.389 . S
C597 C598 1.524 . S
C598 C597 1.524 . S
C598 C599 1.397 . S
C598 C603 1.363 . S
C599 H570 0.950 . S
C599 C598 1.397 . S
C599 C600 1.334 . S
C600 H571 0.950 . S
C600 C599 1.334 . S
C600 C601 1.287 . S
C601 C600 1.287 . S
C601 C602 1.524 . S
C601 H604 0.999 . S
C602 H572 0.950 . S
C602 C601 1.524 . S
C602 C603 1.415 . S
C603 H573 0.950 . S
C603 C598 1.363 . S
C603 C602 1.415 . S
H604 C601 0.999 . S
H605 C586 0.913 . S
H606 C624 0.951 . S
H607 C626 0.951 . S
H608 C628 0.950 . S
H609 C629 0.950 . S
H610 C631 0.950 . S
H611 C634 0.950 . S
H612 C635 0.950 . S
H613 C637 0.950 . S
H614 C638 0.950 . S
H615 C639 0.951 . S
H616 C641 0.951 . S
H617 C643 0.950 . S
H618 C644 0.950 . S
H619 C646 0.950 . S
H620 C649 0.950 . S
H621 C650 0.950 . S
H622 C652 0.950 . S
H623 C653 0.950 . S
C624 H606 0.951 . S
C624 C625 1.366 . S
C624 C626 1.388 . S
C625 C624 1.366 . S
C625 C629 1.385 . S
C626 H607 0.951 . S
C626 C624 1.388 . S
C626 C627 1.366 . S
C627 C626 1.366 . S
C627 C628 1.414 . S
C627 C630 1.499 . S
C628 H608 0.950 . S
C628 C627 1.414 . S
C628 C629 1.374 . S
C629 H609 0.950 . S
C629 C625 1.385 . S
C629 C628 1.374 . S
C630 C627 1.499 . S
C630 C631 1.373 . S
C630 C632 1.389 . S
C631 H610 0.950 . S
C631 C630 1.373 . S
C631 C647 1.377 . S
C632 C630 1.389 . S
C632 C633 1.524 . S
C632 C646 1.377 . S
C633 C632 1.524 . S
C633 C634 1.397 . S
C633 C638 1.363 . S
C634 H611 0.950 . S
C634 C633 1.397 . S
C634 C635 1.334 . S
C635 H612 0.950 . S
C635 C634 1.334 . S
C635 C636 1.287 . S
C636 C635 1.287 . S
C636 C637 1.524 . S
C636 H655 0.913 . S
C637 H613 0.950 . S
C637 C636 1.524 . S
C637 C638 1.415 . S
C638 H614 0.950 . S
C638 C633 1.363 . S
C638 C637 1.415 . S
C639 H615 0.951 . S
C639 C640 1.366 . S
C639 C641 1.388 . S
C640 C639 1.366 . S
C640 C644 1.385 . S
C641 H616 0.951 . S
C641 C639 1.388 . S
C641 C642 1.366 . S
C642 C641 1.366 . S
C642 C643 1.414 . S
C642 C645 1.499 . S
C643 H617 0.950 . S
C643 C642 1.414 . S
C643 C644 1.374 . S
C644 H618 0.950 . S
C644 C640 1.385 . S
C644 C643 1.374 . S
C645 C642 1.499 . S
C645 C646 1.373 . S
C645 C647 1.389 . S
C646 H619 0.950 . S
C646 C632 1.377 . S
C646 C645 1.373 . S
C647 C631 1.377 . S
C647 C645 1.389 . S
C647 C648 1.524 . S
C648 C647 1.524 . S
C648 C649 1.397 . S
C648 C653 1.363 . S
C649 H620 0.950 . S
C649 C648 1.397 . S
C649 C650 1.334 . S
C650 H621 0.950 . S
C650 C649 1.334 . S
C650 C651 1.287 . S
C651 C650 1.287 . S
C651 C652 1.524 . S
C651 H654 0.999 . S
C652 H622 0.950 . S
C652 C651 1.524 . S
C652 C653 1.415 . S
C653 H623 0.950 . S
C653 C648 1.363 . S
C653 C652 1.415 . S
H654 C651 0.999 . S
H655 C636 0.913 . S
H656 C674 0.951 . S
H657 C676 0.951 . S
H658 C678 0.950 . S
H659 C679 0.950 . S
H660 C681 0.950 . S
H661 C684 0.950 . S
H662 C685 0.950 . S
H663 C687 0.950 . S
H664 C688 0.950 . S
H665 C689 0.951 . S
H666 C691 0.951 . S
H667 C693 0.950 . S
H668 C694 0.950 . S
H669 C696 0.950 . S
H670 C699 0.950 . S
H671 C700 0.950 . S
H672 C702 0.950 . S
H673 C703 0.950 . S
C674 H656 0.951 . S
C674 C675 1.366 . S
C674 C676 1.388 . S
C675 C674 1.366 . S
C675 C679 1.385 . S
C676 H657 0.951 . S
C676 C674 1.388 . S
C676 C677 1.366 . S
C677 C676 1.366 . S
C677 C678 1.414 . S
C677 C680 1.499 . S
C678 H658 0.950 . S
C678 C677 1.414 . S
C678 C679 1.374 . S
C679 H659 0.950 . S
C679 C675 1.385 . S
C679 C678 1.374 . S
C680 C677 1.499 . S
C680 C681 1.373 . S
C680 C682 1.389 . S
C681 H660 0.950 . S
C681 C680 1.373 . S
C681 C697 1.377 . S
C682 C680 1.389 . S
C682 C683 1.524 . S
C682 C696 1.377 . S
C683 C682 1.524 . S
C683 C684 1.397 . S
C683 C688 1.363 . S
C684 H661 0.950 . S
C684 C683 1.397 . S
C684 C685 1.334 . S
C685 H662 0.950 . S
C685 C684 1.334 . S
C685 C686 1.287 . S
C686 C685 1.287 . S
C686 C687 1.524 . S
C686 H705 0.913 . S
C687 H663 0.950 . S
C687 C686 1.524 . S
C687 C688 1.415 . S
C688 H664 0.950 . S
C688 C683 1.363 . S
C688 C687 1.415 . S
C689 H665 0.951 . S
C689 C690 1.366 . S
C689 C691 1.388 . S
C690 C689 1.366 . S
C690 C694 1.385 . S
C691 H666 0.951 . S
C691 C689 1.388 . S
C691 C692 1.366 . S
C692 C691 1.366 . S
C692 C693 1.414 . S
C692 C695 1.499 . S
C693 H667 0.950 . S
C693 C692 1.414 . S
C693 C694 1.374 . S
C694 H668 0.950 . S
C694 C690 1.385 . S
C694 C693 1.374 . S
C695 C692 1.499 . S
C695 C696 1.373 . S
C695 C697 1.389 . S
C696 H669 0.950 . S
C696 C682 1.377 . S
C696 C695 1.373 . S
C697 C681 1.377 . S
C697 C695 1.389 . S
C697 C698 1.524 . S
C698 C697 1.524 . S
C698 C699 1.397 . S
C698 C703 1.363 . S
C699 H670 0.950 . S
C699 C698 1.397 . S
C699 C700 1.334 . S
C700 H671 0.950 . S
C700 C699 1.334 . S
C700 C701 1.287 . S
C701 C700 1.287 . S
C701 C702 1.524 . S
C701 H704 0.999 . S
C702 H672 0.950 . S
C702 C701 1.524 . S
C702 C703 1.415 . S
C703 H673 0.950 . S
C703 C698 1.363 . S
C703 C702 1.415 . S
H704 C701 0.999 . S
H705 C686 0.913 . S
H706 C724 0.951 . S
H707 C726 0.951 . S
H708 C728 0.950 . S
H709 C729 0.950 . S
H710 C731 0.950 . S
H711 C734 0.950 . S
H712 C735 0.950 . S
H713 C737 0.950 . S
H714 C738 0.950 . S
H715 C739 0.951 . S
H716 C741 0.951 . S
H717 C743 0.950 . S
H718 C744 0.950 . S
H719 C746 0.950 . S
H720 C749 0.950 . S
H721 C750 0.950 . S
H722 C752 0.950 . S
H723 C753 0.950 . S
C724 H706 0.951 . S
C724 C725 1.366 . S
C724 C726 1.388 . S
C725 C724 1.366 . S
C725 C729 1.385 . S
C726 H707 0.951 . S
C726 C724 1.388 . S
C726 C727 1.366 . S
C727 C726 1.366 . S
C727 C728 1.414 . S
C727 C730 1.499 . S
C728 H708 0.950 . S
C728 C727 1.414 . S
C728 C729 1.374 . S
C729 H709 0.950 . S
C729 C725 1.385 . S
C729 C728 1.374 . S
C730 C727 1.499 . S
C730 C731 1.373 . S
C730 C732 1.389 . S
C731 H710 0.950 . S
C731 C730 1.373 . S
C731 C747 1.377 . S
C732 C730 1.389 . S
C732 C733 1.524 . S
C732 C746 1.377 . S
C733 C732 1.524 . S
C733 C734 1.397 . S
C733 C738 1.363 . S
C734 H711 0.950 . S
C734 C733 1.397 . S
C734 C735 1.334 . S
C735 H712 0.950 . S
C735 C734 1.334 . S
C735 C736 1.287 . S
C736 C735 1.287 . S
C736 C737 1.524 . S
C736 H755 0.913 . S
C737 H713 0.950 . S
C737 C736 1.524 . S
C737 C738 1.415 . S
C738 H714 0.950 . S
C738 C733 1.363 . S
C738 C737 1.415 . S
C739 H715 0.951 . S
C739 C740 1.366 . S
C739 C741 1.388 . S
C740 C739 1.366 . S
C740 C744 1.385 . S
C741 H716 0.951 . S
C741 C739 1.388 . S
C741 C742 1.366 . S
C742 C741 1.366 . S
C742 C743 1.414 . S
C742 C745 1.499 . S
C743 H717 0.950 . S
C743 C742 1.414 . S
C743 C744 1.374 . S
C744 H718 0.950 . S
C744 C740 1.385 . S
C744 C743 1.374 . S
C745 C742 1.499 . S
C745 C746 1.373 . S
C745 C747 1.389 . S
C746 H719 0.950 . S
C746 C732 1.377 . S
C746 C745 1.373 . S
C747 C731 1.377 . S
C747 C745 1.389 . S
C747 C748 1.524 . S
C748 C747 1.524 . S
C748 C749 1.397 . S
C748 C753 1.363 . S
C749 H720 0.950 . S
C749 C748 1.397 . S
C749 C750 1.334 1_556 S
C750 H721 0.950 . S
C750 C749 1.334 1_554 S
C750 C751 1.287 . S
C751 C750 1.287 . S
C751 C752 1.524 1_554 S
C751 H754 0.999 . S
C752 H722 0.950 . S
C752 C751 1.524 1_556 S
C752 C753 1.415 . S
C753 H723 0.950 . S
C753 C748 1.363 . S
C753 C752 1.415 . S
H754 C751 0.999 . S
H755 C736 0.913 . S
H756 C774 0.951 . S
H757 C776 0.951 . S
H758 C778 0.950 . S
H759 C779 0.950 . S
H760 C781 0.950 . S
H761 C784 0.950 . S
H762 C785 0.950 . S
H763 C787 0.950 . S
H764 C788 0.950 . S
H765 C789 0.951 . S
H766 C791 0.951 . S
H767 C793 0.950 . S
H768 C794 0.950 . S
H769 C796 0.950 . S
H770 C799 0.950 . S
H771 C800 0.950 . S
H772 C802 0.950 . S
H773 C803 0.950 . S
C774 H756 0.951 . S
C774 C775 1.366 . S
C774 C776 1.388 . S
C775 C774 1.366 . S
C775 C779 1.385 . S
C776 H757 0.951 . S
C776 C774 1.388 . S
C776 C777 1.366 . S
C777 C776 1.366 . S
C777 C778 1.414 . S
C777 C780 1.499 . S
C778 H758 0.950 . S
C778 C777 1.414 . S
C778 C779 1.374 . S
C779 H759 0.950 . S
C779 C775 1.385 . S
C779 C778 1.374 . S
C780 C777 1.499 . S
C780 C781 1.373 . S
C780 C782 1.389 . S
C781 H760 0.950 . S
C781 C780 1.373 . S
C781 C797 1.377 . S
C782 C780 1.389 . S
C782 C783 1.524 . S
C782 C796 1.377 . S
C783 C782 1.524 . S
C783 C784 1.397 . S
C783 C788 1.363 . S
C784 H761 0.950 . S
C784 C783 1.397 . S
C784 C785 1.334 . S
C785 H762 0.950 . S
C785 C784 1.334 . S
C785 C786 1.287 . S
C786 C785 1.287 . S
C786 C787 1.524 . S
C786 H805 0.913 . S
C787 H763 0.950 . S
C787 C786 1.524 . S
C787 C788 1.415 . S
C788 H764 0.950 . S
C788 C783 1.363 . S
C788 C787 1.415 . S
C789 H765 0.951 . S
C789 C790 1.366 . S
C789 C791 1.388 . S
C790 C789 1.366 . S
C790 C794 1.385 . S
C791 H766 0.951 . S
C791 C789 1.388 . S
C791 C792 1.366 . S
C792 C791 1.366 . S
C792 C793 1.414 . S
C792 C795 1.499 . S
C793 H767 0.950 . S
C793 C792 1.414 . S
C793 C794 1.374 . S
C794 H768 0.950 . S
C794 C790 1.385 . S
C794 C793 1.374 . S
C795 C792 1.499 . S
C795 C796 1.373 . S
C795 C797 1.389 . S
C796 H769 0.950 . S
C796 C782 1.377 . S
C796 C795 1.373 . S
C797 C781 1.377 . S
C797 C795 1.389 . S
C797 C798 1.524 . S
C798 C797 1.524 . S
C798 C799 1.397 . S
C798 C803 1.363 . S
C799 H770 0.950 . S
C799 C798 1.397 . S
C799 C800 1.334 . S
C800 H771 0.950 . S
C800 C799 1.334 . S
C800 C801 1.287 . S
C801 C800 1.287 . S
C801 C802 1.524 . S
C801 H804 0.999 . S
C802 H772 0.950 . S
C802 C801 1.524 . S
C802 C803 1.415 . S
C803 H773 0.950 . S
C803 C798 1.363 . S
C803 C802 1.415 . S
H804 C801 0.999 . S
H805 C786 0.913 . S
H806 C824 0.951 . S
H807 C826 0.951 . S
H808 C828 0.950 . S
H809 C829 0.950 . S
H810 C831 0.950 . S
H811 C834 0.950 . S
H812 C835 0.950 . S
H813 C837 0.950 . S
H814 C838 0.950 . S
H815 C839 0.951 . S
H816 C841 0.951 . S
H817 C843 0.950 . S
H818 C844 0.950 . S
H819 C846 0.950 . S
H820 C849 0.950 . S
H821 C850 0.950 . S
H822 C852 0.950 . S
H823 C853 0.950 . S
C824 H806 0.951 . S
C824 C825 1.366 . S
C824 C826 1.388 . S
C825 C824 1.366 . S
C825 C829 1.385 . S
C826 H807 0.951 . S
C826 C824 1.388 . S
C826 C827 1.366 . S
C827 C826 1.366 . S
C827 C828 1.414 . S
C827 C830 1.499 . S
C828 H808 0.950 . S
C828 C827 1.414 . S
C828 C829 1.374 . S
C829 H809 0.950 . S
C829 C825 1.385 . S
C829 C828 1.374 . S
C830 C827 1.499 . S
C830 C831 1.373 . S
C830 C832 1.389 . S
C831 H810 0.950 . S
C831 C830 1.373 . S
C831 C847 1.377 . S
C832 C830 1.389 . S
C832 C833 1.524 . S
C832 C846 1.377 . S
C833 C832 1.524 . S
C833 C834 1.397 . S
C833 C838 1.363 . S
C834 H811 0.950 . S
C834 C833 1.397 . S
C834 C835 1.334 . S
C835 H812 0.950 . S
C835 C834 1.334 . S
C835 C836 1.287 . S
C836 C835 1.287 . S
C836 C837 1.524 . S
C836 H855 0.913 . S
C837 H813 0.950 . S
C837 C836 1.524 . S
C837 C838 1.415 . S
C838 H814 0.950 . S
C838 C833 1.363 . S
C838 C837 1.415 . S
C839 H815 0.951 . S
C839 C840 1.366 . S
C839 C841 1.388 . S
C840 C839 1.366 . S
C840 C844 1.385 . S
C841 H816 0.951 . S
C841 C839 1.388 . S
C841 C842 1.366 . S
C842 C841 1.366 . S
C842 C843 1.414 . S
C842 C845 1.499 . S
C843 H817 0.950 . S
C843 C842 1.414 . S
C843 C844 1.374 . S
C844 H818 0.950 . S
C844 C840 1.385 . S
C844 C843 1.374 . S
C845 C842 1.499 . S
C845 C846 1.373 . S
C845 C847 1.389 . S
C846 H819 0.950 . S
C846 C832 1.377 . S
C846 C845 1.373 . S
C847 C831 1.377 . S
C847 C845 1.389 . S
C847 C848 1.524 . S
C848 C847 1.524 . S
C848 C849 1.397 . S
C848 C853 1.363 . S
C849 H820 0.950 . S
C849 C848 1.397 . S
C849 C850 1.334 . S
C850 H821 0.950 . S
C850 C849 1.334 . S
C850 C851 1.287 . S
C851 C850 1.287 . S
C851 C852 1.524 . S
C851 H854 0.999 . S
C852 H822 0.950 . S
C852 C851 1.524 . S
C852 C853 1.415 . S
C853 H823 0.950 . S
C853 C848 1.363 . S
C853 C852 1.415 . S
H854 C851 0.999 . S
H855 C836 0.913 . S
H856 C874 0.951 . S
H857 C876 0.951 . S
H858 C878 0.950 . S
H859 C879 0.950 . S
H860 C881 0.950 . S
H861 C884 0.950 . S
H862 C885 0.950 . S
H863 C887 0.950 . S
H864 C888 0.950 . S
H865 C889 0.951 . S
H866 C891 0.951 . S
H867 C893 0.950 . S
H868 C894 0.950 . S
H869 C896 0.950 . S
H870 C899 0.950 . S
H871 C900 0.950 . S
H872 C902 0.950 . S
H873 C903 0.950 . S
C874 H856 0.951 . S
C874 C875 1.366 . S
C874 C876 1.388 . S
C875 C874 1.366 . S
C875 C879 1.385 . S
C876 H857 0.951 . S
C876 C874 1.388 . S
C876 C877 1.366 . S
C877 C876 1.366 . S
C877 C878 1.414 . S
C877 C880 1.499 . S
C878 H858 0.950 . S
C878 C877 1.414 . S
C878 C879 1.374 . S
C879 H859 0.950 . S
C879 C875 1.385 . S
C879 C878 1.374 . S
C880 C877 1.499 . S
C880 C881 1.373 . S
C880 C882 1.389 . S
C881 H860 0.950 . S
C881 C880 1.373 . S
C881 C897 1.377 . S
C882 C880 1.389 . S
C882 C883 1.524 . S
C882 C896 1.377 . S
C883 C882 1.524 . S
C883 C884 1.397 . S
C883 C888 1.363 . S
C884 H861 0.950 . S
C884 C883 1.397 . S
C884 C885 1.334 . S
C885 H862 0.950 . S
C885 C884 1.334 . S
C885 C886 1.287 . S
C886 C885 1.287 . S
C886 C887 1.524 . S
C886 H905 0.913 . S
C887 H863 0.950 . S
C887 C886 1.524 . S
C887 C888 1.415 . S
C888 H864 0.950 . S
C888 C883 1.363 . S
C888 C887 1.415 . S
C889 H865 0.951 . S
C889 C890 1.366 . S
C889 C891 1.388 . S
C890 C889 1.366 . S
C890 C894 1.385 . S
C891 H866 0.951 . S
C891 C889 1.388 . S
C891 C892 1.366 . S
C892 C891 1.366 . S
C892 C893 1.414 . S
C892 C895 1.499 . S
C893 H867 0.950 . S
C893 C892 1.414 . S
C893 C894 1.374 . S
C894 H868 0.950 . S
C894 C890 1.385 . S
C894 C893 1.374 . S
C895 C892 1.499 . S
C895 C896 1.373 . S
C895 C897 1.389 . S
C896 H869 0.950 . S
C896 C882 1.377 . S
C896 C895 1.373 . S
C897 C881 1.377 . S
C897 C895 1.389 . S
C897 C898 1.524 . S
C898 C897 1.524 . S
C898 C899 1.397 . S
C898 C903 1.363 . S
C899 H870 0.950 . S
C899 C898 1.397 . S
C899 C900 1.334 . S
C900 H871 0.950 . S
C900 C899 1.334 . S
C900 C901 1.287 . S
C901 C900 1.287 . S
C901 C902 1.524 . S
C901 H904 0.999 . S
C902 H872 0.950 . S
C902 C901 1.524 . S
C902 C903 1.415 . S
C903 H873 0.950 . S
C903 C898 1.363 . S
C903 C902 1.415 . S
H904 C901 0.999 . S
H905 C886 0.913 . S
H906 C924 0.951 . S
H907 C926 0.951 . S
H908 C928 0.950 . S
H909 C929 0.950 . S
H910 C931 0.950 . S
H911 C934 0.950 . S
H912 C935 0.950 . S
H913 C937 0.950 . S
H914 C938 0.950 . S
H915 C939 0.951 . S
H916 C941 0.951 . S
H917 C943 0.950 . S
H918 C944 0.950 . S
H919 C946 0.950 . S
H920 C949 0.950 . S
H921 C950 0.950 . S
H922 C952 0.950 . S
H923 C953 0.950 . S
C924 H906 0.951 . S
C924 C925 1.366 . S
C924 C926 1.388 . S
C925 C924 1.366 . S
C925 C929 1.385 . S
C926 H907 0.951 . S
C926 C924 1.388 . S
C926 C927 1.366 . S
C927 C926 1.366 . S
C927 C928 1.414 . S
C927 C930 1.499 . S
C928 H908 0.950 . S
C928 C927 1.414 . S
C928 C929 1.374 . S
C929 H909 0.950 . S
C929 C925 1.385 . S
C929 C928 1.374 . S
C930 C927 1.499 . S
C930 C931 1.373 . S
C930 C932 1.389 . S
C931 H910 0.950 . S
C931 C930 1.373 . S
C931 C947 1.377 . S
C932 C930 1.389 . S
C932 C933 1.524 . S
C932 C946 1.377 . S
C933 C932 1.524 . S
C933 C934 1.397 . S
C933 C938 1.363 . S
C934 H911 0.950 . S
C934 C933 1.397 . S
C934 C935 1.334 . S
C935 H912 0.950 . S
C935 C934 1.334 . S
C935 C936 1.287 . S
C936 C935 1.287 . S
C936 C937 1.524 . S
C936 H955 0.913 . S
C937 H913 0.950 . S
C937 C936 1.524 . S
C937 C938 1.415 . S
C938 H914 0.950 . S
C938 C933 1.363 . S
C938 C937 1.415 . S
C939 H915 0.951 . S
C939 C940 1.366 . S
C939 C941 1.388 . S
C940 C939 1.366 . S
C940 C944 1.385 . S
C941 H916 0.951 . S
C941 C939 1.388 . S
C941 C942 1.366 . S
C942 C941 1.366 . S
C942 C943 1.414 . S
C942 C945 1.499 . S
C943 H917 0.950 . S
C943 C942 1.414 . S
C943 C944 1.374 . S
C944 H918 0.950 . S
C944 C940 1.385 . S
C944 C943 1.374 . S
C945 C942 1.499 . S
C945 C946 1.373 . S
C945 C947 1.389 . S
C946 H919 0.950 . S
C946 C932 1.377 . S
C946 C945 1.373 . S
C947 C931 1.377 . S
C947 C945 1.389 . S
C947 C948 1.524 . S
C948 C947 1.524 . S
C948 C949 1.397 . S
C948 C953 1.363 . S
C949 H920 0.950 . S
C949 C948 1.397 . S
C949 C950 1.334 . S
C950 H921 0.950 . S
C950 C949 1.334 . S
C950 C951 1.287 . S
C951 C950 1.287 . S
C951 C952 1.524 . S
C951 H954 0.999 . S
C952 H922 0.950 . S
C952 C951 1.524 . S
C952 C953 1.415 . S
C953 H923 0.950 . S
C953 C948 1.363 . S
C953 C952 1.415 . S
H954 C951 0.999 . S
H955 C936 0.913 . S
H956 C974 0.951 . S
H957 C976 0.951 . S
H958 C978 0.950 . S
H959 C979 0.950 . S
H960 C981 0.950 . S
H961 C984 0.950 . S
H962 C985 0.950 . S
H963 C987 0.950 . S
H964 C988 0.950 . S
H965 C989 0.951 . S
H966 C991 0.951 . S
H967 C993 0.950 . S
H968 C994 0.950 . S
H969 C996 0.950 . S
H970 C999 0.950 . S
H971 C1000 0.950 . S
H972 C1002 0.950 . S
H973 C1003 0.950 . S
C974 H956 0.951 . S
C974 C975 1.366 . S
C974 C976 1.388 . S
C975 C974 1.366 . S
C975 C979 1.385 . S
C976 H957 0.951 . S
C976 C974 1.388 . S
C976 C977 1.366 . S
C977 C976 1.366 . S
C977 C978 1.414 . S
C977 C980 1.499 . S
C978 H958 0.950 . S
C978 C977 1.414 . S
C978 C979 1.374 . S
C979 H959 0.950 . S
C979 C975 1.385 . S
C979 C978 1.374 . S
C980 C977 1.499 . S
C980 C981 1.373 . S
C980 C982 1.389 . S
C981 H960 0.950 . S
C981 C980 1.373 . S
C981 C997 1.377 . S
C982 C980 1.389 . S
C982 C983 1.524 . S
C982 C996 1.377 . S
C983 C982 1.524 . S
C983 C984 1.397 . S
C983 C988 1.363 . S
C984 H961 0.950 . S
C984 C983 1.397 . S
C984 C985 1.334 . S
C985 H962 0.950 . S
C985 C984 1.334 . S
C985 C986 1.287 . S
C986 C985 1.287 . S
C986 C987 1.524 . S
C986 H1005 0.913 . S
C987 H963 0.950 . S
C987 C986 1.524 . S
C987 C988 1.415 . S
C988 H964 0.950 . S
C988 C983 1.363 . S
C988 C987 1.415 . S
C989 H965 0.951 . S
C989 C990 1.366 . S
C989 C991 1.388 . S
C990 C989 1.366 . S
C990 C994 1.385 . S
C991 H966 0.951 . S
C991 C989 1.388 . S
C991 C992 1.366 . S
C992 C991 1.366 . S
C992 C993 1.414 . S
C992 C995 1.499 . S
C993 H967 0.950 . S
C993 C992 1.414 . S
C993 C994 1.374 . S
C994 H968 0.950 . S
C994 C990 1.385 . S
C994 C993 1.374 . S
C995 C992 1.499 . S
C995 C996 1.373 . S
C995 C997 1.389 . S
C996 H969 0.950 . S
C996 C982 1.377 . S
C996 C995 1.373 . S
C997 C981 1.377 . S
C997 C995 1.389 . S
C997 C998 1.524 . S
C998 C997 1.524 . S
C998 C999 1.397 . S
C998 C1003 1.363 . S
C999 H970 0.950 . S
C999 C998 1.397 . S
C999 C1000 1.334 . S
C1000 H971 0.950 . S
C1000 C999 1.334 . S
C1000 C1001 1.287 . S
C1001 C1000 1.287 . S
C1001 C1002 1.524 . S
C1001 H1004 0.999 . S
C1002 H972 0.950 . S
C1002 C1001 1.524 . S
C1002 C1003 1.415 . S
C1003 H973 0.950 . S
C1003 C998 1.363 . S
C1003 C1002 1.415 . S
H1004 C1001 0.999 . S
H1005 C986 0.913 . S
H1006 C1024 0.951 . S
H1007 C1026 0.951 . S
H1008 C1028 0.950 . S
H1009 C1029 0.950 . S
H1010 C1031 0.950 . S
H1011 C1034 0.950 . S
H1012 C1035 0.950 . S
H1013 C1037 0.950 . S
H1014 C1038 0.950 . S
H1015 C1039 0.951 . S
H1016 C1041 0.951 . S
H1017 C1043 0.950 . S
H1018 C1044 0.950 . S
H1019 C1046 0.950 . S
H1020 C1049 0.950 . S
H1021 C1050 0.950 . S
H1022 C1052 0.950 . S
H1023 C1053 0.950 . S
C1024 H1006 0.951 . S
C1024 C1025 1.366 . S
C1024 C1026 1.388 . S
C1025 C1024 1.366 . S
C1025 C1029 1.385 . S
C1026 H1007 0.951 . S
C1026 C1024 1.388 . S
C1026 C1027 1.366 . S
C1027 C1026 1.366 . S
C1027 C1028 1.414 . S
C1027 C1030 1.499 . S
C1028 H1008 0.950 . S
C1028 C1027 1.414 . S
C1028 C1029 1.374 . S
C1029 H1009 0.950 . S
C1029 C1025 1.385 . S
C1029 C1028 1.374 . S
C1030 C1027 1.499 . S
C1030 C1031 1.373 . S
C1030 C1032 1.389 . S
C1031 H1010 0.950 . S
C1031 C1030 1.373 . S
C1031 C1047 1.377 . S
C1032 C1030 1.389 . S
C1032 C1033 1.524 . S
C1032 C1046 1.377 . S
C1033 C1032 1.524 . S
C1033 C1034 1.397 . S
C1033 C1038 1.363 . S
C1034 H1011 0.950 . S
C1034 C1033 1.397 . S
C1034 C1035 1.334 . S
C1035 H1012 0.950 . S
C1035 C1034 1.334 . S
C1035 C1036 1.287 . S
C1036 C1035 1.287 . S
C1036 C1037 1.524 . S
C1036 H1055 0.913 . S
C1037 H1013 0.950 . S
C1037 C1036 1.524 . S
C1037 C1038 1.415 . S
C1038 H1014 0.950 . S
C1038 C1033 1.363 . S
C1038 C1037 1.415 . S
C1039 H1015 0.951 . S
C1039 C1040 1.366 . S
C1039 C1041 1.388 . S
C1040 C1039 1.366 . S
C1040 C1044 1.385 . S
C1041 H1016 0.951 . S
C1041 C1039 1.388 . S
C1041 C1042 1.366 . S
C1042 C1041 1.366 . S
C1042 C1043 1.414 . S
C1042 C1045 1.499 . S
C1043 H1017 0.950 . S
C1043 C1042 1.414 . S
C1043 C1044 1.374 . S
C1044 H1018 0.950 . S
C1044 C1040 1.385 . S
C1044 C1043 1.374 . S
C1045 C1042 1.499 . S
C1045 C1046 1.373 . S
C1045 C1047 1.389 . S
C1046 H1019 0.950 . S
C1046 C1032 1.377 . S
C1046 C1045 1.373 . S
C1047 C1031 1.377 . S
C1047 C1045 1.389 . S
C1047 C1048 1.524 . S
C1048 C1047 1.524 . S
C1048 C1049 1.397 . S
C1048 C1053 1.363 . S
C1049 H1020 0.950 . S
C1049 C1048 1.397 . S
C1049 C1050 1.334 . S
C1050 H1021 0.950 . S
C1050 C1049 1.334 . S
C1050 C1051 1.287 . S
C1051 C1050 1.287 . S
C1051 C1052 1.524 . S
C1051 H1054 0.999 . S
C1052 H1022 0.950 . S
C1052 C1051 1.524 . S
C1052 C1053 1.415 . S
C1053 H1023 0.950 . S
C1053 C1048 1.363 . S
C1053 C1052 1.415 . S
H1054 C1051 0.999 . S
H1055 C1036 0.913 . S
H1056 C1074 0.951 . S
H1057 C1076 0.951 . S
H1058 C1078 0.950 . S
H1059 C1079 0.950 . S
H1060 C1081 0.950 . S
H1061 C1084 0.950 . S
H1062 C1085 0.950 . S
H1063 C1087 0.950 . S
H1064 C1088 0.950 . S
H1065 C1089 0.951 . S
H1066 C1091 0.951 . S
H1067 C1093 0.950 . S
H1068 C1094 0.950 . S
H1069 C1096 0.950 . S
H1070 C1099 0.950 . S
H1071 C1100 0.950 1_554 S
H1072 C1102 0.977 . S
H1073 C1103 0.950 . S
C1074 H1056 0.951 . S
C1074 C1075 1.366 . S
C1074 C1076 1.388 . S
C1075 C1074 1.366 . S
C1075 C1079 1.385 . S
C1076 H1057 0.951 . S
C1076 C1074 1.388 . S
C1076 C1077 1.366 . S
C1077 C1076 1.366 . S
C1077 C1078 1.414 . S
C1077 C1080 1.499 . S
C1078 H1058 0.950 . S
C1078 C1077 1.414 . S
C1078 C1079 1.374 . S
C1079 H1059 0.950 . S
C1079 C1075 1.385 . S
C1079 C1078 1.374 . S
C1080 C1077 1.499 . S
C1080 C1081 1.373 . S
C1080 C1082 1.389 . S
C1081 H1060 0.950 . S
C1081 C1080 1.373 . S
C1081 C1097 1.377 . S
C1082 C1080 1.389 . S
C1082 C1083 1.524 . S
C1082 C1096 1.377 . S
C1083 C1082 1.524 . S
C1083 C1084 1.397 . S
C1083 C1088 1.363 . S
C1084 H1061 0.950 . S
C1084 C1083 1.397 . S
C1084 C1085 1.334 . S
C1085 H1062 0.950 . S
C1085 C1084 1.334 . S
C1085 C1086 1.287 . S
C1086 C1085 1.287 . S
C1086 C1087 1.524 . S
C1086 H1105 0.913 . S
C1087 H1063 0.950 . S
C1087 C1086 1.524 . S
C1087 C1088 1.415 . S
C1088 H1064 0.950 . S
C1088 C1083 1.363 . S
C1088 C1087 1.415 . S
C1089 H1065 0.951 . S
C1089 C1090 1.366 . S
C1089 C1091 1.388 . S
C1090 C1089 1.366 . S
C1090 C1094 1.385 . S
C1091 H1066 0.951 . S
C1091 C1089 1.388 . S
C1091 C1092 1.366 . S
C1092 C1091 1.366 . S
C1092 C1093 1.414 . S
C1092 C1095 1.499 . S
C1093 H1067 0.950 . S
C1093 C1092 1.414 . S
C1093 C1094 1.374 . S
C1094 H1068 0.950 . S
C1094 C1090 1.385 . S
C1094 C1093 1.374 . S
C1095 C1092 1.499 . S
C1095 C1096 1.373 . S
C1095 C1097 1.389 . S
C1096 H1069 0.950 . S
C1096 C1082 1.377 . S
C1096 C1095 1.373 . S
C1097 C1081 1.377 . S
C1097 C1095 1.389 . S
C1097 C1098 1.524 . S
C1098 C1097 1.524 . S
C1098 C1099 1.397 . S
C1098 C1103 1.363 . S
C1099 H1070 0.950 . S
C1099 C1098 1.397 . S
C1099 C1100 1.334 . S
C1100 H1071 0.950 1_556 S
C1100 C1099 1.334 . S
C1100 C1101 1.287 1_556 S
C1101 C1100 1.287 1_554 S
C1101 C1102 1.536 . S
C1101 H1104 0.999 . S
C1102 H1072 0.977 . S
C1102 C1101 1.536 . S
C1102 C1103 1.373 1_554 S
C1103 H1073 0.950 . S
C1103 C1098 1.363 . S
C1103 C1102 1.373 1_556 S
H1104 C1101 0.999 . S
H1105 C1086 0.913 . S
H1106 C1124 0.951 . S
H1107 C1126 0.951 . S
H1108 C1128 0.950 . S
H1109 C1129 0.950 . S
H1110 C1131 0.950 . S
H1111 C1134 0.950 . S
H1112 C1135 0.950 . S
H1113 C1137 0.932 1_455 S
H1114 C1138 0.950 . S
H1115 C1139 0.951 . S
H1116 C1141 0.951 . S
H1117 C1143 0.950 . S
H1118 C1144 0.950 1_455 S
H1119 C1146 0.950 . S
H1120 C1149 0.950 . S
H1121 C1150 0.950 . S
H1122 C1152 0.950 . S
H1123 C1153 0.950 . S
C1124 H1106 0.951 . S
C1124 C1125 1.366 . S
C1124 C1126 1.388 . S
C1125 C1124 1.366 . S
C1125 C1129 1.385 . S
C1126 H1107 0.951 . S
C1126 C1124 1.388 . S
C1126 C1127 1.366 . S
C1127 C1126 1.366 . S
C1127 C1128 1.414 . S
C1127 C1130 1.499 . S
C1128 H1108 0.950 . S
C1128 C1127 1.414 . S
C1128 C1129 1.374 . S
C1129 H1109 0.950 . S
C1129 C1125 1.385 . S
C1129 C1128 1.374 . S
C1130 C1127 1.499 . S
C1130 C1131 1.373 . S
C1130 C1132 1.389 . S
C1131 H1110 0.950 . S
C1131 C1130 1.373 . S
C1131 C1147 1.377 . S
C1132 C1130 1.389 . S
C1132 C1133 1.524 . S
C1132 C1146 1.377 . S
C1133 C1132 1.524 . S
C1133 C1134 1.397 . S
C1133 C1138 1.363 . S
C1134 H1111 0.950 . S
C1134 C1133 1.397 . S
C1134 C1135 1.334 . S
C1135 H1112 0.950 . S
C1135 C1134 1.334 . S
C1135 C1136 1.287 . S
C1136 C1135 1.287 . S
C1136 C1137 1.524 . S
C1136 H1155 0.913 . S
C1137 H1113 0.932 1_655 S
C1137 C1136 1.524 . S
C1137 C1138 1.415 . S
C1138 H1114 0.950 . S
C1138 C1133 1.363 . S
C1138 C1137 1.415 . S
C1139 H1115 0.951 . S
C1139 C1140 1.366 . S
C1139 C1141 1.388 . S
C1140 C1139 1.366 . S
C1140 C1144 1.385 . S
C1141 H1116 0.951 . S
C1141 C1139 1.388 . S
C1141 C1142 1.366 . S
C1142 C1141 1.366 . S
C1142 C1143 1.414 . S
C1142 C1145 1.499 . S
C1143 H1117 0.950 . S
C1143 C1142 1.414 . S
C1143 C1144 1.374 . S
C1144 H1118 0.950 1_655 S
C1144 C1140 1.385 . S
C1144 C1143 1.374 . S
C1145 C1142 1.499 . S
C1145 C1146 1.373 . S
C1145 C1147 1.389 . S
C1146 H1119 0.950 . S
C1146 C1132 1.377 . S
C1146 C1145 1.373 . S
C1147 C1131 1.377 . S
C1147 C1145 1.389 . S
C1147 C1148 1.524 . S
C1148 C1147 1.524 . S
C1148 C1149 1.397 . S
C1148 C1153 1.363 . S
C1149 H1120 0.950 . S
C1149 C1148 1.397 . S
C1149 C1150 1.334 . S
C1150 H1121 0.950 . S
C1150 C1149 1.334 . S
C1150 C1151 1.287 . S
C1151 C1150 1.287 . S
C1151 C1152 1.524 . S
C1151 H1154 0.999 . S
C1152 H1122 0.950 . S
C1152 C1151 1.524 . S
C1152 C1153 1.415 . S
C1153 H1123 0.950 . S
C1153 C1148 1.363 . S
C1153 C1152 1.415 . S
H1154 C1151 0.999 . S
H1155 C1136 0.913 . S
H1156 C1174 0.951 . S
H1157 C1176 0.951 . S
H1158 C1178 0.950 . S
H1159 C1179 0.950 . S
H1160 C1181 0.950 . S
H1161 C1184 0.950 . S
H1162 C1185 0.950 . S
H1163 C1187 0.950 . S
H1164 C1188 0.950 . S
H1165 C1189 0.951 . S
H1166 C1191 0.951 . S
H1167 C1193 0.950 . S
H1168 C1194 0.950 . S
H1169 C1196 0.950 . S
H1170 C1199 0.950 . S
H1171 C1200 0.950 . S
H1172 C1202 0.950 . S
H1173 C1203 0.950 . S
C1174 H1156 0.951 . S
C1174 C1175 1.366 . S
C1174 C1176 1.388 . S
C1175 C1174 1.366 . S
C1175 C1179 1.385 . S
C1176 H1157 0.951 . S
C1176 C1174 1.388 . S
C1176 C1177 1.366 . S
C1177 C1176 1.366 . S
C1177 C1178 1.414 . S
C1177 C1180 1.499 . S
C1178 H1158 0.950 . S
C1178 C1177 1.414 . S
C1178 C1179 1.374 . S
C1179 H1159 0.950 . S
C1179 C1175 1.385 . S
C1179 C1178 1.374 . S
C1180 C1177 1.499 . S
C1180 C1181 1.373 . S
C1180 C1182 1.389 . S
C1181 H1160 0.950 . S
C1181 C1180 1.373 . S
C1181 C1197 1.377 . S
C1182 C1180 1.389 . S
C1182 C1183 1.524 . S
C1182 C1196 1.377 . S
C1183 C1182 1.524 . S
C1183 C1184 1.397 . S
C1183 C1188 1.363 . S
C1184 H1161 0.950 . S
C1184 C1183 1.397 . S
C1184 C1185 1.334 . S
C1185 H1162 0.950 . S
C1185 C1184 1.334 . S
C1185 C1186 1.287 . S
C1186 C1185 1.287 . S
C1186 C1187 1.524 . S
C1186 H1205 0.913 . S
C1187 H1163 0.950 . S
C1187 C1186 1.524 . S
C1187 C1188 1.415 . S
C1188 H1164 0.950 . S
C1188 C1183 1.363 . S
C1188 C1187 1.415 . S
C1189 H1165 0.951 . S
C1189 C1190 1.366 . S
C1189 C1191 1.388 . S
C1190 C1189 1.366 . S
C1190 C1194 1.385 . S
C1191 H1166 0.951 . S
C1191 C1189 1.388 . S
C1191 C1192 1.366 . S
C1192 C1191 1.366 . S
C1192 C1193 1.414 . S
C1192 C1195 1.499 . S
C1193 H1167 0.950 . S
C1193 C1192 1.414 . S
C1193 C1194 1.374 . S
C1194 H1168 0.950 . S
C1194 C1190 1.385 . S
C1194 C1193 1.374 . S
C1195 C1192 1.499 . S
C1195 C1196 1.373 . S
C1195 C1197 1.389 . S
C1196 H1169 0.950 . S
C1196 C1182 1.377 . S
C1196 C1195 1.373 . S
C1197 C1181 1.377 . S
C1197 C1195 1.389 . S
C1197 C1198 1.524 . S
C1198 C1197 1.524 . S
C1198 C1199 1.397 . S
C1198 C1203 1.363 . S
C1199 H1170 0.950 . S
C1199 C1198 1.397 . S
C1199 C1200 1.334 . S
C1200 H1171 0.950 . S
C1200 C1199 1.334 . S
C1200 C1201 1.287 . S
C1201 C1200 1.287 . S
C1201 C1202 1.524 . S
C1201 H1204 0.999 . S
C1202 H1172 0.950 . S
C1202 C1201 1.524 . S
C1202 C1203 1.415 . S
C1203 H1173 0.950 . S
C1203 C1198 1.363 . S
C1203 C1202 1.415 . S
H1204 C1201 0.999 . S
H1205 C1186 0.913 . S
H1206 C1224 0.951 . S
H1207 C1226 0.951 . S
H1208 C1228 0.950 . S
H1209 C1229 0.950 . S
H1210 C1231 0.950 . S
H1211 C1234 0.950 . S
H1212 C1235 0.950 . S
H1213 C1237 0.950 . S
H1214 C1238 0.950 . S
H1215 C1239 0.951 . S
H1216 C1241 0.951 . S
H1217 C1243 0.950 . S
H1218 C1244 0.950 . S
H1219 C1246 0.950 . S
H1220 C1249 0.950 . S
H1221 C1250 0.950 . S
H1222 C1252 0.950 . S
H1223 C1253 0.950 . S
C1224 H1206 0.951 . S
C1224 C1225 1.366 . S
C1224 C1226 1.388 . S
C1225 C1224 1.366 . S
C1225 C1229 1.385 . S
C1226 H1207 0.951 . S
C1226 C1224 1.388 . S
C1226 C1227 1.366 . S
C1227 C1226 1.366 . S
C1227 C1228 1.414 . S
C1227 C1230 1.499 . S
C1228 H1208 0.950 . S
C1228 C1227 1.414 . S
C1228 C1229 1.374 . S
C1229 H1209 0.950 . S
C1229 C1225 1.385 . S
C1229 C1228 1.374 . S
C1230 C1227 1.499 . S
C1230 C1231 1.373 . S
C1230 C1232 1.389 . S
C1231 H1210 0.950 . S
C1231 C1230 1.373 . S
C1231 C1247 1.377 . S
C1232 C1230 1.389 . S
C1232 C1233 1.524 . S
C1232 C1246 1.377 . S
C1233 C1232 1.524 . S
C1233 C1234 1.397 . S
C1233 C1238 1.363 . S
C1234 H1211 0.950 . S
C1234 C1233 1.397 . S
C1234 C1235 1.334 . S
C1235 H1212 0.950 . S
C1235 C1234 1.334 . S
C1235 C1236 1.287 . S
C1236 C1235 1.287 . S
C1236 C1237 1.524 . S
C1236 H1255 0.913 . S
C1237 H1213 0.950 . S
C1237 C1236 1.524 . S
C1237 C1238 1.415 . S
C1238 H1214 0.950 . S
C1238 C1233 1.363 . S
C1238 C1237 1.415 . S
C1239 H1215 0.951 . S
C1239 C1240 1.366 . S
C1239 C1241 1.388 . S
C1240 C1239 1.366 . S
C1240 C1244 1.385 . S
C1241 H1216 0.951 . S
C1241 C1239 1.388 . S
C1241 C1242 1.366 . S
C1242 C1241 1.366 . S
C1242 C1243 1.414 . S
C1242 C1245 1.499 . S
C1243 H1217 0.950 . S
C1243 C1242 1.414 . S
C1243 C1244 1.374 . S
C1244 H1218 0.950 . S
C1244 C1240 1.385 . S
C1244 C1243 1.374 . S
C1245 C1242 1.499 . S
C1245 C1246 1.373 . S
C1245 C1247 1.389 . S
C1246 H1219 0.950 . S
C1246 C1232 1.377 . S
C1246 C1245 1.373 . S
C1247 C1231 1.377 . S
C1247 C1245 1.389 . S
C1247 C1248 1.524 . S
C1248 C1247 1.524 . S
C1248 C1249 1.397 . S
C1248 C1253 1.363 . S
C1249 H1220 0.950 . S
C1249 C1248 1.397 . S
C1249 C1250 1.334 . S
C1250 H1221 0.950 . S
C1250 C1249 1.334 . S
C1250 C1251 1.287 . S
C1251 C1250 1.287 . S
C1251 C1252 1.524 . S
C1251 H1254 0.999 . S
C1252 H1222 0.950 . S
C1252 C1251 1.524 . S
C1252 C1253 1.415 . S
C1253 H1223 0.950 . S
C1253 C1248 1.363 . S
C1253 C1252 1.415 . S
H1254 C1251 0.999 . S
H1255 C1236 0.913 . S
H1256 C1274 0.951 . S
H1257 C1276 0.951 . S
H1258 C1278 0.950 . S
H1259 C1279 0.950 . S
H1260 C1281 0.950 . S
H1261 C1284 0.950 . S
H1262 C1285 0.950 . S
H1263 C1287 0.950 . S
H1264 C1288 0.950 . S
H1265 C1289 0.951 . S
H1266 C1291 0.951 . S
H1267 C1293 0.950 . S
H1268 C1294 0.950 . S
H1269 C1296 0.950 . S
H1270 C1299 0.950 . S
H1271 C1300 0.950 . S
H1272 C1302 0.950 . S
H1273 C1303 0.950 . S
C1274 H1256 0.951 . S
C1274 C1275 1.366 . S
C1274 C1276 1.388 . S
C1275 C1274 1.366 . S
C1275 C1279 1.385 . S
C1276 H1257 0.951 . S
C1276 C1274 1.388 . S
C1276 C1277 1.366 . S
C1277 C1276 1.366 . S
C1277 C1278 1.414 . S
C1277 C1280 1.499 . S
C1278 H1258 0.950 . S
C1278 C1277 1.414 . S
C1278 C1279 1.374 . S
C1279 H1259 0.950 . S
C1279 C1275 1.385 . S
C1279 C1278 1.374 . S
C1280 C1277 1.499 . S
C1280 C1281 1.373 . S
C1280 C1282 1.389 . S
C1281 H1260 0.950 . S
C1281 C1280 1.373 . S
C1281 C1297 1.377 . S
C1282 C1280 1.389 . S
C1282 C1283 1.524 . S
C1282 C1296 1.377 . S
C1283 C1282 1.524 . S
C1283 C1284 1.397 . S
C1283 C1288 1.363 . S
C1284 H1261 0.950 . S
C1284 C1283 1.397 . S
C1284 C1285 1.334 . S
C1285 H1262 0.950 . S
C1285 C1284 1.334 . S
C1285 C1286 1.287 . S
C1286 C1285 1.287 . S
C1286 C1287 1.524 . S
C1286 H1305 0.913 . S
C1287 H1263 0.950 . S
C1287 C1286 1.524 . S
C1287 C1288 1.415 . S
C1288 H1264 0.950 . S
C1288 C1283 1.363 . S
C1288 C1287 1.415 . S
C1289 H1265 0.951 . S
C1289 C1290 1.366 . S
C1289 C1291 1.388 . S
C1290 C1289 1.366 . S
C1290 C1294 1.385 . S
C1291 H1266 0.951 . S
C1291 C1289 1.388 . S
C1291 C1292 1.366 . S
C1292 C1291 1.366 . S
C1292 C1293 1.414 . S
C1292 C1295 1.499 . S
C1293 H1267 0.950 . S
C1293 C1292 1.414 . S
C1293 C1294 1.374 . S
C1294 H1268 0.950 . S
C1294 C1290 1.385 . S
C1294 C1293 1.374 . S
C1295 C1292 1.499 . S
C1295 C1296 1.373 . S
C1295 C1297 1.389 . S
C1296 H1269 0.950 . S
C1296 C1282 1.377 . S
C1296 C1295 1.373 . S
C1297 C1281 1.377 . S
C1297 C1295 1.389 . S
C1297 C1298 1.524 . S
C1298 C1297 1.524 . S
C1298 C1299 1.397 . S
C1298 C1303 1.363 . S
C1299 H1270 0.950 . S
C1299 C1298 1.397 . S
C1299 C1300 1.334 . S
C1300 H1271 0.950 . S
C1300 C1299 1.334 . S
C1300 C1301 1.287 . S
C1301 C1300 1.287 . S
C1301 C1302 1.524 . S
C1301 H1304 0.999 . S
C1302 H1272 0.950 . S
C1302 C1301 1.524 . S
C1302 C1303 1.415 . S
C1303 H1273 0.950 . S
C1303 C1298 1.363 . S
C1303 C1302 1.415 . S
H1304 C1301 0.999 . S
H1305 C1286 0.913 . S
H1306 C1324 0.951 . S
H1307 C1326 0.951 . S
H1308 C1328 0.950 . S
H1309 C1329 0.950 . S
H1310 C1331 0.950 . S
H1311 C1334 0.950 . S
H1312 C1335 0.950 . S
H1313 C1337 0.950 . S
H1314 C1338 0.950 . S
H1315 C1339 0.951 . S
H1316 C1341 0.951 . S
H1317 C1343 0.950 . S
H1318 C1344 0.950 . S
H1319 C1346 0.950 . S
H1320 C1349 0.950 . S
H1321 C1350 0.950 . S
H1322 C1352 0.950 . S
H1323 C1353 0.950 . S
C1324 H1306 0.951 . S
C1324 C1325 1.366 . S
C1324 C1326 1.388 . S
C1325 C1324 1.366 . S
C1325 C1329 1.385 . S
C1326 H1307 0.951 . S
C1326 C1324 1.388 . S
C1326 C1327 1.366 . S
C1327 C1326 1.366 . S
C1327 C1328 1.414 . S
C1327 C1330 1.499 . S
C1328 H1308 0.950 . S
C1328 C1327 1.414 . S
C1328 C1329 1.374 . S
C1329 H1309 0.950 . S
C1329 C1325 1.385 . S
C1329 C1328 1.374 . S
C1330 C1327 1.499 . S
C1330 C1331 1.373 . S
C1330 C1332 1.389 . S
C1331 H1310 0.950 . S
C1331 C1330 1.373 . S
C1331 C1347 1.377 . S
C1332 C1330 1.389 . S
C1332 C1333 1.524 . S
C1332 C1346 1.377 . S
C1333 C1332 1.524 . S
C1333 C1334 1.397 . S
C1333 C1338 1.363 . S
C1334 H1311 0.950 . S
C1334 C1333 1.397 . S
C1334 C1335 1.334 . S
C1335 H1312 0.950 . S
C1335 C1334 1.334 . S
C1335 C1336 1.287 . S
C1336 C1335 1.287 . S
C1336 C1337 1.524 . S
C1336 H1355 0.913 . S
C1337 H1313 0.950 . S
C1337 C1336 1.524 . S
C1337 C1338 1.415 . S
C1338 H1314 0.950 . S
C1338 C1333 1.363 . S
C1338 C1337 1.415 . S
C1339 H1315 0.951 . S
C1339 C1340 1.366 . S
C1339 C1341 1.388 . S
C1340 C1339 1.366 . S
C1340 C1344 1.385 . S
C1341 H1316 0.951 . S
C1341 C1339 1.388 . S
C1341 C1342 1.366 . S
C1342 C1341 1.366 . S
C1342 C1343 1.414 . S
C1342 C1345 1.499 . S
C1343 H1317 0.950 . S
C1343 C1342 1.414 . S
C1343 C1344 1.374 . S
C1344 H1318 0.950 . S
C1344 C1340 1.385 . S
C1344 C1343 1.374 . S
C1345 C1342 1.499 . S
C1345 C1346 1.373 . S
C1345 C1347 1.389 . S
C1346 H1319 0.950 . S
C1346 C1332 1.377 . S
C1346 C1345 1.373 . S
C1347 C1331 1.377 . S
C1347 C1345 1.389 . S
C1347 C1348 1.524 . S
C1348 C1347 1.524 . S
C1348 C1349 1.397 . S
C1348 C1353 1.363 . S
C1349 H1320 0.950 . S
C1349 C1348 1.397 . S
C1349 C1350 1.334 . S
C1350 H1321 0.950 . S
C1350 C1349 1.334 . S
C1350 C1351 1.287 . S
C1351 C1350 1.287 . S
C1351 C1352 1.524 . S
C1351 H1354 0.999 . S
C1352 H1322 0.950 . S
C1352 C1351 1.524 . S
C1352 C1353 1.415 . S
C1353 H1323 0.950 . S
C1353 C1348 1.363 . S
C1353 C1352 1.415 . S
H1354 C1351 0.999 . S
H1355 C1336 0.913 . S
H1356 C1374 0.951 . S
H1357 C1376 0.951 . S
H1358 C1378 0.950 . S
H1359 C1379 0.950 . S
H1360 C1381 0.950 . S
H1361 C1384 0.950 . S
H1362 C1385 0.950 . S
H1363 C1387 0.950 . S
H1364 C1388 0.950 . S
H1365 C1389 0.951 . S
H1366 C1391 0.951 . S
H1367 C1393 0.950 . S
H1368 C1394 0.950 . S
H1369 C1396 0.950 . S
H1370 C1399 0.950 . S
H1371 C1400 0.950 . S
H1372 C1402 0.950 . S
H1373 C1403 0.950 . S
C1374 H1356 0.951 . S
C1374 C1375 1.366 . S
C1374 C1376 1.388 . S
C1375 C1374 1.366 . S
C1375 C1379 1.385 . S
C1376 H1357 0.951 . S
C1376 C1374 1.388 . S
C1376 C1377 1.366 . S
C1377 C1376 1.366 . S
C1377 C1378 1.414 . S
C1377 C1380 1.499 . S
C1378 H1358 0.950 . S
C1378 C1377 1.414 . S
C1378 C1379 1.374 . S
C1379 H1359 0.950 . S
C1379 C1375 1.385 . S
C1379 C1378 1.374 . S
C1380 C1377 1.499 . S
C1380 C1381 1.373 . S
C1380 C1382 1.389 . S
C1381 H1360 0.950 . S
C1381 C1380 1.373 . S
C1381 C1397 1.377 . S
C1382 C1380 1.389 . S
C1382 C1383 1.524 . S
C1382 C1396 1.377 . S
C1383 C1382 1.524 . S
C1383 C1384 1.397 . S
C1383 C1388 1.363 . S
C1384 H1361 0.950 . S
C1384 C1383 1.397 . S
C1384 C1385 1.334 . S
C1385 H1362 0.950 . S
C1385 C1384 1.334 . S
C1385 C1386 1.287 . S
C1386 C1385 1.287 . S
C1386 C1387 1.524 . S
C1386 H1405 0.913 . S
C1387 H1363 0.950 . S
C1387 C1386 1.524 . S
C1387 C1388 1.415 . S
C1388 H1364 0.950 . S
C1388 C1383 1.363 . S
C1388 C1387 1.415 . S
C1389 H1365 0.951 . S
C1389 C1390 1.366 . S
C1389 C1391 1.388 . S
C1390 C1389 1.366 . S
C1390 C1394 1.385 . S
C1391 H1366 0.951 . S
C1391 C1389 1.388 . S
C1391 C1392 1.366 . S
C1392 C1391 1.366 . S
C1392 C1393 1.414 . S
C1392 C1395 1.499 . S
C1393 H1367 0.950 . S
C1393 C1392 1.414 . S
C1393 C1394 1.374 . S
C1394 H1368 0.950 . S
C1394 C1390 1.385 . S
C1394 C1393 1.374 . S
C1395 C1392 1.499 . S
C1395 C1396 1.373 . S
C1395 C1397 1.389 . S
C1396 H1369 0.950 . S
C1396 C1382 1.377 . S
C1396 C1395 1.373 . S
C1397 C1381 1.377 . S
C1397 C1395 1.389 . S
C1397 C1398 1.524 . S
C1398 C1397 1.524 . S
C1398 C1399 1.397 . S
C1398 C1403 1.363 . S
C1399 H1370 0.950 . S
C1399 C1398 1.397 . S
C1399 C1400 1.334 . S
C1400 H1371 0.950 . S
C1400 C1399 1.334 . S
C1400 C1401 1.287 . S
C1401 C1400 1.287 . S
C1401 C1402 1.524 . S
C1401 H1404 0.999 . S
C1402 H1372 0.950 . S
C1402 C1401 1.524 . S
C1402 C1403 1.415 . S
C1403 H1373 0.950 . S
C1403 C1398 1.363 . S
C1403 C1402 1.415 . S
H1404 C1401 0.999 . S
H1405 C1386 0.913 . S
H1406 C1424 0.951 . S
H1407 C1426 0.951 . S
H1408 C1428 0.950 . S
H1409 C1429 0.950 . S
H1410 C1431 0.950 . S
H1411 C1434 0.950 . S
H1412 C1435 0.950 . S
H1413 C1437 0.950 . S
H1414 C1438 0.950 . S
H1415 C1439 0.951 . S
H1416 C1441 0.951 . S
H1417 C1443 0.950 . S
H1418 C1444 0.950 . S
H1419 C1446 0.950 . S
H1420 C1449 0.950 . S
H1421 C1450 0.950 . S
H1422 C1452 0.950 . S
H1423 C1453 0.950 . S
C1424 H1406 0.951 . S
C1424 C1425 1.366 . S
C1424 C1426 1.388 . S
C1425 C1424 1.366 . S
C1425 C1429 1.385 . S
C1426 H1407 0.951 . S
C1426 C1424 1.388 . S
C1426 C1427 1.366 . S
C1427 C1426 1.366 . S
C1427 C1428 1.414 . S
C1427 C1430 1.499 . S
C1428 H1408 0.950 . S
C1428 C1427 1.414 . S
C1428 C1429 1.374 . S
C1429 H1409 0.950 . S
C1429 C1425 1.385 . S
C1429 C1428 1.374 . S
C1430 C1427 1.499 . S
C1430 C1431 1.373 . S
C1430 C1432 1.389 . S
C1431 H1410 0.950 . S
C1431 C1430 1.373 . S
C1431 C1447 1.377 . S
C1432 C1430 1.389 . S
C1432 C1433 1.524 . S
C1432 C1446 1.377 . S
C1433 C1432 1.524 . S
C1433 C1434 1.397 . S
C1433 C1438 1.363 . S
C1434 H1411 0.950 . S
C1434 C1433 1.397 . S
C1434 C1435 1.334 . S
C1435 H1412 0.950 . S
C1435 C1434 1.334 . S
C1435 C1436 1.287 . S
C1436 C1435 1.287 . S
C1436 C1437 1.524 . S
C1436 H1455 0.913 . S
C1437 H1413 0.950 . S
C1437 C1436 1.524 . S
C1437 C1438 1.415 . S
C1438 H1414 0.950 . S
C1438 C1433 1.363 . S
C1438 C1437 1.415 . S
C1439 H1415 0.951 . S
C1439 C1440 1.366 . S
C1439 C1441 1.388 . S
C1440 C1439 1.366 . S
C1440 C1444 1.385 . S
C1441 H1416 0.951 . S
C1441 C1439 1.388 . S
C1441 C1442 1.366 . S
C1442 C1441 1.366 . S
C1442 C1443 1.414 . S
C1442 C1445 1.499 . S
C1443 H1417 0.950 . S
C1443 C1442 1.414 . S
C1443 C1444 1.374 . S
C1444 H1418 0.950 . S
C1444 C1440 1.385 . S
C1444 C1443 1.374 . S
C1445 C1442 1.499 . S
C1445 C1446 1.373 . S
C1445 C1447 1.389 . S
C1446 H1419 0.950 . S
C1446 C1432 1.377 . S
C1446 C1445 1.373 . S
C1447 C1431 1.377 . S
C1447 C1445 1.389 . S
C1447 C1448 1.524 . S
C1448 C1447 1.524 . S
C1448 C1449 1.397 . S
C1448 C1453 1.363 . S
C1449 H1420 0.950 . S
C1449 C1448 1.397 . S
C1449 C1450 1.334 . S
C1450 H1421 0.950 . S
C1450 C1449 1.334 . S
C1450 C1451 1.287 . S
C1451 C1450 1.287 . S
C1451 C1452 1.524 . S
C1451 H1454 0.999 . S
C1452 H1422 0.950 . S
C1452 C1451 1.524 . S
C1452 C1453 1.415 . S
C1453 H1423 0.950 . S
C1453 C1448 1.363 . S
C1453 C1452 1.415 . S
H1454 C1451 0.999 . S
H1455 C1436 0.913 . S
C275 C6 1.071 . S
C290 C113 1.093 . S
C325 C18 1.344 . S
C340 C153 1.352 . S
C390 C178 2.483 . S
C375 C28 2.523 . S
C425 C40 1.653 . S
C440 C218 1.612 . S
C490 C149 1.967 . S
C475 C9 1.915 . S
C540 C109 1.688 . S
C525 C16 1.641 . S
C590 C240 1.588 . S
C575 C30 1.604 . S
C640 C200 1.170 . S
C625 C42 1.185 . S
C675 C4 1.159 . S
C690 C242 1.157 . S
C740 C159 2.345 . S
C725 C33 2.376 . S
C775 C45 1.818 . S
C790 C119 1.793 . S
C825 C21 1.402 . S
C840 C202 1.427 . S
C890 C122 1.127 . S
C875 C57 1.111 . S
C925 C66 1.317 . S
C940 C162 1.342 . S
C975 C76 2.578 . S
C990 C199 2.534 . S
C1025 C88 1.558 . S
C1040 C239 1.527 . S
C1075 C54 1.902 . S
C1090 C160 1.951 . S
C1140 C120 1.784 . S
C1125 C64 1.755 . S
C1190 C229 1.466 . S
C1175 C78 1.484 . S
C1240 C189 1.234 . S
C1225 C93 1.243 . S
C1275 C52 1.149 . S
C1290 C233 1.169 . S
C1340 C138 2.329 . S
C1325 C81 2.357 . S
C1390 C98 1.751 . S
C1375 C90 1.782 . S
C1425 C69 1.402 . S
C1440 C193 1.441 . S
