# Generated by pormake.
# Topology dag, (6,3)-cn, num edge types: 1
# Building blocks:
#     Node 0, Type 0, BuildingBlock: MIDCAF_clean_sbu_0, # of connection points: 6
#     Node 1, Type 0, BuildingBlock: MIDCAF_clean_sbu_0, # of connection points: 6
#     Node 2, Type 0, BuildingBlock: MIDCAF_clean_sbu_0, # of connection points: 6
#     Node 3, Type 0, BuildingBlock: MIDCAF_clean_sbu_0, # of connection points: 6
#     Node 4, Type 1, BuildingBlock: PAMTOO_clean_linker_0, # of connection points: 3
#     Node 5, Type 1, BuildingBlock: PAMTOO_clean_linker_0, # of connection points: 3
#     Node 6, Type 1, BuildingBlock: PAMTOO_clean_linker_0, # of connection points: 3
#     Node 7, Type 1, BuildingBlock: PAMTOO_clean_linker_0, # of connection points: 3
#     Node 8, Type 1, BuildingBlock: PAMTOO_clean_linker_0, # of connection points: 3
#     Node 9, Type 1, BuildingBlock: PAMTOO_clean_linker_0, # of connection points: 3
#     Node 10, Type 1, BuildingBlock: PAMTOO_clean_linker_0, # of connection points: 3
#     Node 11, Type 1, BuildingBlock: PAMTOO_clean_linker_0, # of connection points: 3
#     Edge 12, Type (0, 1), BuildingBlock: CIFDUS_clean_linker_0, # of connection points: 2
#     Edge 13, Type (0, 1), BuildingBlock: CIFDUS_clean_linker_0, # of connection points: 2
#     Edge 14, Type (0, 1), BuildingBlock: CIFDUS_clean_linker_0, # of connection points: 2
#     Edge 15, Type (0, 1), BuildingBlock: CIFDUS_clean_linker_0, # of connection points: 2
#     Edge 16, Type (0, 1), BuildingBlock: CIFDUS_clean_linker_0, # of connection points: 2
#     Edge 17, Type (0, 1), BuildingBlock: CIFDUS_clean_linker_0, # of connection points: 2
#     Edge 18, Type (0, 1), BuildingBlock: CIFDUS_clean_linker_0, # of connection points: 2
#     Edge 19, Type (0, 1), BuildingBlock: CIFDUS_clean_linker_0, # of connection points: 2
#     Edge 20, Type (0, 1), BuildingBlock: CIFDUS_clean_linker_0, # of connection points: 2
#     Edge 21, Type (0, 1), BuildingBlock: CIFDUS_clean_linker_0, # of connection points: 2
#     Edge 22, Type (0, 1), BuildingBlock: CIFDUS_clean_linker_0, # of connection points: 2
#     Edge 23, Type (0, 1), BuildingBlock: CIFDUS_clean_linker_0, # of connection points: 2
#     Edge 24, Type (0, 1), BuildingBlock: CIFDUS_clean_linker_0, # of connection points: 2
#     Edge 25, Type (0, 1), BuildingBlock: CIFDUS_clean_linker_0, # of connection points: 2
#     Edge 26, Type (0, 1), BuildingBlock: CIFDUS_clean_linker_0, # of connection points: 2
#     Edge 27, Type (0, 1), BuildingBlock: CIFDUS_clean_linker_0, # of connection points: 2
#     Edge 28, Type (0, 1), BuildingBlock: CIFDUS_clean_linker_0, # of connection points: 2
#     Edge 29, Type (0, 1), BuildingBlock: CIFDUS_clean_linker_0, # of connection points: 2
#     Edge 30, Type (0, 1), BuildingBlock: CIFDUS_clean_linker_0, # of connection points: 2
#     Edge 31, Type (0, 1), BuildingBlock: CIFDUS_clean_linker_0, # of connection points: 2
#     Edge 32, Type (0, 1), BuildingBlock: CIFDUS_clean_linker_0, # of connection points: 2
#     Edge 33, Type (0, 1), BuildingBlock: CIFDUS_clean_linker_0, # of connection points: 2
#     Edge 34, Type (0, 1), BuildingBlock: CIFDUS_clean_linker_0, # of connection points: 2
#     Edge 35, Type (0, 1), BuildingBlock: CIFDUS_clean_linker_0, # of connection points: 2
# Relax obj value: 0.134
# Max RMSD: 0.141
# Mean RMSD: 0.112
data_MOF--net-dag--node1-MIDCAF_clean_sbu_0--node2-PAMTOO_clean_linker_0--edge1-CIFDUS_clean_linker_0
_symmetry_space_group_name_H-M    P1
_symmetry_Int_Tables_number       1
_symmetry_cell_setting            triclinic
loop_
_symmetry_equiv_pos_as_xyz
'x, y, z'
_cell_length_a     34.925194
_cell_length_b     36.206478
_cell_length_c     27.479446
_cell_angle_alpha  89.58023
_cell_angle_beta   93.258276
_cell_angle_gamma 90.396159
loop_
_atom_site_label
_atom_site_type_symbol
_atom_site_fract_x
_atom_site_fract_y
_atom_site_fract_z
_atom_type_partial_charge
Zn0 Zn 0.14727 0.83789 0.12144 0.0
Zn1 Zn 0.15172 0.83173 0.93902 0.0
Zn2 Zn 0.14493 0.83208 0.02988 0.0
C3 C 0.15461 0.90495 0.96072 0.0
C4 C 0.07744 0.80659 0.95619 0.0
O5 O 0.17964 0.78469 0.06195 0.0
O6 O 0.17323 0.79244 0.14078 0.0
C7 C 0.18503 0.89961 0.09255 0.0
O8 O 0.15715 0.88945 1.00333 0.0
O9 O 0.15117 0.88517 0.92314 0.0
O10 O 0.10229 0.80499 0.92457 0.0
O11 O 0.08699 0.81897 0.99907 0.0
O12 O 0.17839 0.88277 0.1315 0.0
O13 O 0.17226 0.88616 0.05127 0.0
O14 O 0.08425 0.82748 0.04948 0.0
O15 O 0.09134 0.83958 0.12827 0.0
C16 C 0.06974 0.83303 0.09089 0.0
O17 O 0.18594 0.78771 0.01188 0.0
O18 O 0.20034 0.80441 0.93749 0.0
C19 C 0.18592 0.77397 0.10661 0.0
C20 C 0.20632 0.78404 0.97451 0.0
Zn21 Zn 0.6153 0.66593 0.44693 0.0
Zn22 Zn 0.64528 0.64291 0.61701 0.0
Zn23 Zn 0.62914 0.65445 0.5324 0.0
C24 C 0.64767 0.57417 0.57835 0.0
C25 C 0.57125 0.67096 0.61266 0.0
O26 O 0.66067 0.70494 0.50926 0.0
O27 O 0.62371 0.72 0.44466 0.0
C28 C 0.66795 0.60907 0.45144 0.0
O29 O 0.64762 0.59534 0.54032 0.0
O30 O 0.6445 0.58842 0.61964 0.0
O31 O 0.60003 0.66851 0.64243 0.0
O32 O 0.57475 0.66235 0.56767 0.0
O33 O 0.65676 0.63437 0.42221 0.0
O34 O 0.65649 0.6089 0.49522 0.0
O35 O 0.56522 0.65282 0.51952 0.0
O36 O 0.56219 0.64692 0.43967 0.0
C37 C 0.54565 0.64594 0.47928 0.0
O38 O 0.66763 0.69911 0.56313 0.0
O39 O 0.69489 0.66928 0.62572 0.0
C40 C 0.65119 0.72785 0.47462 0.0
C41 C 0.69266 0.69801 0.59946 0.0
Zn42 Zn 0.77612 0.15569 0.94555 0.0
Zn43 Zn 0.90521 0.20256 0.11046 0.0
Zn44 Zn 0.86621 0.17894 0.03221 0.0
C45 C 0.95822 0.19228 0.04261 0.0
C46 C 0.86766 0.13184 0.12726 0.0
O47 O 0.83002 0.22113 0.992 0.0
O48 O 0.77212 0.19852 0.99356 0.0
C49 C 0.84709 0.16512 0.91804 0.0
O50 O 0.92772 0.17973 0.0204 0.0
O51 O 0.95637 0.20717 0.08375 0.0
O52 O 0.89099 0.15548 0.14588 0.0
O53 O 0.85353 0.13628 0.08355 0.0
O54 O 0.81655 0.15945 0.89198 0.0
O55 O 0.84342 0.17086 0.96292 0.0
O56 O 0.84291 0.12131 0.0313 0.0
O57 O 0.79045 0.1086 0.98244 0.0
C58 C 0.81723 0.09853 0.013 0.0
O59 O 0.83781 0.22662 0.06291 0.0
O60 O 0.87671 0.24815 0.122 0.0
C61 C 0.79393 0.22433 0.98062 0.0
C62 C 0.84583 0.25051 0.09611 0.0
Zn63 Zn 0.38446 0.2966 0.60511 0.0
Zn64 Zn 0.35377 0.35711 0.46132 0.0
Zn65 Zn 0.36595 0.32215 0.52846 0.0
C66 C 0.43001 0.36584 0.4803 0.0
C67 C 0.30552 0.37909 0.5291 0.0
O68 O 0.31461 0.31198 0.57178 0.0
O69 O 0.33939 0.26387 0.6106 0.0
C70 C 0.42766 0.26725 0.52981 0.0
O71 O 0.41689 0.35926 0.52252 0.0
O72 O 0.40729 0.36354 0.44311 0.0
O73 O 0.32842 0.3938 0.50063 0.0
O74 O 0.30904 0.34469 0.54039 0.0
O75 O 0.42967 0.27762 0.57377 0.0
O76 O 0.39786 0.2755 0.50221 0.0
O77 O 0.39789 0.36749 0.56264 0.0
O78 O 0.38271 0.34775 0.63479 0.0
C79 C 0.39221 0.37418 0.60757 0.0
O80 O 0.36499 0.28342 0.46599 0.0
O81 O 0.32273 0.31879 0.42678 0.0
C82 C 0.31035 0.28315 0.59869 0.0
C83 C 0.33918 0.2879 0.4311 0.0
H84 H 0.17845 0.11276 0.01906 0.0
H85 H 0.19162 0.20225 0.12241 0.0
H86 H 0.2754 0.11711 0.1219 0.0
H87 H 0.27009 0.13771 0.21325 0.0
C88 C 0.25322 0.16363 0.20972 0.0
O89 O 0.25602 0.17794 0.16316 0.0
H90 H 0.2228 0.15681 0.21632 0.0
C91 C 0.19467 0.12749 0.04756 0.0
C92 C 0.22785 0.11092 0.06887 0.0
C93 C 0.18059 0.16068 0.06617 0.0
C94 C 0.20216 0.17791 0.10504 0.0
C95 C 0.23678 0.16271 0.12397 0.0
C96 C 0.24991 0.12982 0.10499 0.0
H97 H 0.40787 0.58498 0.70022 0.0
H98 H 0.31501 0.55573 0.79022 0.0
H99 H 0.36647 0.66374 0.80034 0.0
H100 H 0.35299 0.61941 0.89181 0.0
C101 C 0.32194 0.61429 0.88252 0.0
O102 O 0.31345 0.61991 0.83332 0.0
H103 H 0.31553 0.5851 0.89214 0.0
C104 C 0.38713 0.59235 0.72635 0.0
C105 C 0.38915 0.62765 0.74689 0.0
C106 C 0.36097 0.56577 0.74181 0.0
C107 C 0.33583 0.5755 0.77788 0.0
C108 C 0.33771 0.61081 0.79875 0.0
C109 C 0.36457 0.63679 0.78346 0.0
H110 H 0.87847 0.92062 0.16108 0.0
H111 H 0.7895 0.92342 0.26215 0.0
H112 H 0.85306 0.82364 0.24621 0.0
H113 H 0.76755 0.81705 0.25749 0.0
C114 C 0.76578 0.83771 0.28709 0.0
O115 O 0.80048 0.85573 0.29462 0.0
H116 H 0.74335 0.85807 0.27523 0.0
C117 C 0.86112 0.90601 0.18654 0.0
C118 C 0.86936 0.86916 0.19956 0.0
C119 C 0.83211 0.92541 0.20827 0.0
C120 C 0.81107 0.90816 0.24398 0.0
C121 C 0.81889 0.8715 0.25767 0.0
C122 C 0.84748 0.85193 0.23503 0.0
H123 H 0.61368 0.34669 0.56845 0.0
H124 H 0.66015 0.24822 0.6384 0.0
H125 H 0.70927 0.35313 0.67423 0.0
H126 H 0.76154 0.29618 0.68234 0.0
C127 C 0.74463 0.27477 0.70116 0.0
O128 O 0.70636 0.28436 0.69907 0.0
H129 H 0.74775 0.24791 0.68252 0.0
C130 C 0.63535 0.33313 0.59167 0.0
C131 C 0.66248 0.35494 0.6188 0.0
C132 C 0.63368 0.29434 0.59832 0.0
C133 C 0.66086 0.27769 0.63154 0.0
C134 C 0.68711 0.29919 0.65956 0.0
C135 C 0.68855 0.33726 0.6521 0.0
H136 H 0.65361 0.41465 0.44002 0.0
H137 H 0.64036 0.32934 0.33211 0.0
H138 H 0.74138 0.39763 0.3394 0.0
H139 H 0.70038 0.38506 0.24216 0.0
C140 C 0.69412 0.35504 0.24633 0.0
O141 O 0.70526 0.34333 0.29294 0.0
H142 H 0.66265 0.35095 0.23967 0.0
C143 C 0.66541 0.39801 0.41195 0.0
C144 C 0.70105 0.40796 0.39451 0.0
C145 C 0.64261 0.37054 0.38902 0.0
C146 C 0.65738 0.35077 0.35043 0.0
C147 C 0.69306 0.36029 0.33286 0.0
C148 C 0.71479 0.38905 0.35471 0.0
H149 H 0.06848 0.10431 0.90496 0.0
H150 H 0.07353 0.2028 0.81747 0.0
H151 H 0.16804 0.12779 0.82333 0.0
H152 H 0.17887 0.21587 0.82654 0.0
C153 C 0.16152 0.21887 0.79147 0.0
O154 O 0.13936 0.18773 0.78233 0.0
H155 H 0.14239 0.24308 0.79438 0.0
C156 C 0.08457 0.12242 0.88194 0.0
C157 C 0.12099 0.11187 0.86766 0.0
C158 C 0.06758 0.15535 0.86455 0.0
C159 C 0.08704 0.17807 0.83258 0.0
C160 C 0.12304 0.16793 0.81764 0.0
C161 C 0.14026 0.13531 0.83569 0.0
H162 H 0.3279 0.55355 0.46483 0.0
H163 H 0.30963 0.64092 0.35893 0.0
H164 H 0.21926 0.56441 0.3833 0.0
H165 H 0.22278 0.58904 0.26986 0.0
C166 C 0.24588 0.60909 0.28077 0.0
O167 O 0.24171 0.61905 0.32883 0.0
H168 H 0.27398 0.59546 0.27647 0.0
C169 C 0.30915 0.56874 0.43926 0.0
C170 C 0.27111 0.55614 0.42943 0.0
C171 C 0.32394 0.59905 0.41366 0.0
C172 C 0.29963 0.61708 0.37857 0.0
C173 C 0.26273 0.60372 0.36658 0.0
C174 C 0.24822 0.57389 0.39254 0.0
H175 H 0.86197 0.8727 0.98246 0.0
H176 H 0.84605 0.81236 0.84805 0.0
H177 H 0.77891 0.90842 0.8704 0.0
H178 H 0.73805 0.86606 0.78834 0.0
C179 C 0.75737 0.8426 0.79829 0.0
O180 O 0.79376 0.85649 0.8092 0.0
H181 H 0.74563 0.82863 0.83057 0.0
C182 C 0.84659 0.86827 0.9476 0.0
C183 C 0.81805 0.89337 0.93134 0.0
C184 C 0.85742 0.83921 0.91764 0.0
C185 C 0.8378 0.83423 0.87195 0.0
C186 C 0.80942 0.85907 0.85529 0.0
C187 C 0.79976 0.88855 0.88478 0.0
H188 H 0.21357 0.94213 0.01933 0.0
H189 H 0.20194 0.93898 0.17481 0.0
H190 H 0.22262 0.0029 0.181 0.0
H191 H 0.23198 0.06202 0.14169 0.0
H192 H 0.23187 0.06981 0.9851 0.0
H193 H 0.2266 0.00222 0.97933 0.0
C194 C 0.21467 0.9557 0.05427 0.0
C195 C 0.20394 0.93632 0.09595 0.0
C196 C 0.22413 0.99346 0.05724 0.0
C197 C 0.20881 0.95341 0.14172 0.0
C198 C 0.22054 0.9901 0.1454 0.0
C199 C 0.23198 0.04887 0.10631 0.0
C200 C 0.23281 0.07064 0.06392 0.0
C201 C 0.2265 0.01074 0.10325 0.0
C202 C 0.23164 0.05342 0.01822 0.0
C203 C 0.22837 0.0149 0.01499 0.0
H204 H 0.55377 0.67419 0.70749 0.0
H205 H 0.50338 0.68741 0.56163 0.0
H206 H 0.43917 0.68085 0.59226 0.0
H207 H 0.39942 0.65877 0.6587 0.0
H208 H 0.45043 0.64871 0.80461 0.0
H209 H 0.51255 0.66818 0.77615 0.0
C210 C 0.52879 0.6765 0.68236 0.0
C211 C 0.53324 0.67841 0.63179 0.0
C212 C 0.49219 0.67343 0.70045 0.0
C213 C 0.5006 0.6832 0.60027 0.0
C214 C 0.46392 0.67992 0.61787 0.0
C215 C 0.42387 0.66243 0.68442 0.0
C216 C 0.42077 0.65216 0.73348 0.0
C217 C 0.45957 0.67295 0.66758 0.0
C218 C 0.45235 0.65674 0.76675 0.0
C219 C 0.48791 0.66739 0.75035 0.0
H220 H 0.80806 0.08274 0.11385 0.0
H221 H 0.91192 0.10316 0.20248 0.0
H222 H 0.90715 0.04223 0.2396 0.0
H223 H 0.87812 0.98047 0.23994 0.0
H224 H 0.77674 0.95756 0.14851 0.0
H225 H 0.77612 0.02169 0.11846 0.0
C226 C 0.82975 0.07368 0.14094 0.0
C227 C 0.86089 0.09706 0.15419 0.0
C228 C 0.8274 0.03805 0.16133 0.0
C229 C 0.88781 0.08565 0.19118 0.0
C230 C 0.88526 0.05068 0.21231 0.0
C231 C 0.85549 0.98994 0.21424 0.0
C232 C 0.82736 0.96491 0.19658 0.0
C233 C 0.85586 0.02633 0.19667 0.0
C234 C 0.79832 0.97683 0.16287 0.0
C235 C 0.79818 0.0133 0.14554 0.0
H236 H 0.47403 0.21701 0.57308 0.0
H237 H 0.46445 0.28935 0.44829 0.0
H238 H 0.53439 0.29784 0.45268 0.0
H239 H 0.5928 0.30235 0.50928 0.0
H240 H 0.59674 0.237 0.64188 0.0
H241 H 0.53519 0.20999 0.61856 0.0
C242 C 0.48748 0.23352 0.54557 0.0
C243 C 0.46403 0.25368 0.51171 0.0
C244 C 0.52667 0.24206 0.55217 0.0
C245 C 0.4817 0.27413 0.4755 0.0
C246 C 0.52158 0.28014 0.47917 0.0
C247 C 0.58047 0.28185 0.53279 0.0
C248 C 0.59974 0.27254 0.57789 0.0
C249 C 0.54358 0.26728 0.52026 0.0
C250 C 0.58344 0.24495 0.6069 0.0
C251 C 0.54771 0.2295 0.59379 0.0
H252 H 0.70674 0.55505 0.50354 0.0
H253 H 0.67895 0.59294 0.35662 0.0
H254 H 0.69942 0.53432 0.32466 0.0
H255 H 0.70878 0.46833 0.33944 0.0
H256 H 0.72695 0.42756 0.48646 0.0
H257 H 0.72783 0.49082 0.51739 0.0
C258 C 0.7054 0.55049 0.46457 0.0
C259 C 0.68942 0.57755 0.43276 0.0
C260 C 0.7155 0.51593 0.44645 0.0
C261 C 0.69 0.57216 0.38215 0.0
C262 C 0.70164 0.53854 0.36373 0.0
C263 C 0.71471 0.47351 0.378 0.0
C264 C 0.71773 0.44363 0.41071 0.0
C265 C 0.71208 0.50955 0.39565 0.0
C266 C 0.72483 0.45037 0.46071 0.0
C267 C 0.72472 0.48647 0.47837 0.0
H268 H 0.90801 0.21129 0.93084 0.0
H269 H 0.87074 0.10946 0.86262 0.0
H270 H 0.93625 0.09719 0.84018 0.0
H271 H 0.00468 0.11377 0.84431 0.0
H272 H 0.04204 0.21696 0.90862 0.0
H273 H 0.97594 0.23076 0.92813 0.0
C274 C 0.91441 0.18666 0.91065 0.0
C275 C 0.8851 0.16106 0.8987 0.0
C276 C 0.95203 0.18002 0.89759 0.0
C277 C 0.89311 0.1295 0.87194 0.0
C278 C 0.93051 0.12236 0.8595 0.0
C279 C 0.99819 0.13919 0.86273 0.0
C280 C 0.02788 0.1641 0.87582 0.0
C281 C 0.96028 0.14707 0.87298 0.0
C282 C 0.01939 0.19741 0.89853 0.0
C283 C 0.98172 0.20526 0.90956 0.0
H284 H 0.23884 0.39194 0.47954 0.0
H285 H 0.30511 0.4227 0.60938 0.0
H286 H 0.29437 0.48797 0.59085 0.0
H287 H 0.2843 0.53407 0.52459 0.0
H288 H 0.22662 0.50058 0.3886 0.0
H289 H 0.21561 0.43944 0.42197 0.0
C290 C 0.24873 0.41298 0.50535 0.0
C291 C 0.27461 0.40287 0.54406 0.0
C292 C 0.24576 0.45031 0.49145 0.0
C293 C 0.28612 0.42996 0.5783 0.0
C294 C 0.281 0.46742 0.56682 0.0
C295 C 0.26879 0.51357 0.5025 0.0
C296 C 0.25725 0.52188 0.45363 0.0
C297 C 0.26398 0.47767 0.5212 0.0
C298 C 0.23605 0.49526 0.42619 0.0
C299 C 0.22986 0.46 0.4452 0.0
H300 H 0.01664 0.7895 0.01158 0.0
H301 H 0.04682 0.80882 0.86342 0.0
H302 H 0.97959 0.81355 0.83693 0.0
H303 H 0.91409 0.82471 0.85802 0.0
H304 H 0.88239 0.80945 1.00629 0.0
H305 H 0.9479 0.7902 0.03036 0.0
C306 C 0.00834 0.79475 0.97362 0.0
C307 C 0.03675 0.80049 0.94009 0.0
C308 C 0.96934 0.79857 0.95864 0.0
C309 C 0.02565 0.80503 0.89037 0.0
C310 C 0.98711 0.80797 0.87508 0.0
C311 C 0.92108 0.81614 0.89536 0.0
C312 C 0.89352 0.81902 0.9304 0.0
C313 C 0.95894 0.80666 0.90925 0.0
C314 C 0.9033 0.80805 0.97873 0.0
C315 C 0.94079 0.79727 0.99256 0.0
H316 H 0.76196 0.046 1.0036 0.0
H317 H 0.88325 0.06042 0.03714 0.0
H318 H 0.89361 0.99487 0.02171 0.0
H319 H 0.86983 0.93778 0.98177 0.0
H320 H 0.74862 0.92458 0.94546 0.0
H321 H 0.73669 0.98559 0.97832 0.0
C322 C 0.79057 0.03461 1.00869 0.0
C323 C 0.82192 0.0582 0.02017 0.0
C324 C 0.79645 -0.00263 0.99794 0.0
C325 C 0.85866 0.04293 0.02784 0.0
C326 C 0.86465 0.00551 0.01847 0.0
C327 C 0.84064 0.94769 0.98236 0.0
C328 C 0.81022 0.92691 0.9601 0.0
C329 C 0.83403 0.98305 1.00082 0.0
C330 C 0.77264 0.9404 0.96114 0.0
C331 C 0.76577 0.97521 0.98013 0.0
H332 H 0.46321 0.369 0.39464 0.0
H333 H 0.48969 0.37502 0.54975 0.0
H334 H 0.55839 0.37729 0.53525 0.0
H335 H 0.61073 0.37221 0.47797 0.0
H336 H 0.58168 0.36396 0.3236 0.0
H337 H 0.51389 0.36562 0.33877 0.0
C338 C 0.48384 0.3712 0.42554 0.0
C339 C 0.47128 0.37197 0.47328 0.0
C340 C 0.52286 0.37082 0.41706 0.0
C341 C 0.49859 0.37454 0.51265 0.0
C342 C 0.53786 0.37547 0.50434 0.0
C343 C 0.58953 0.37106 0.44775 0.0
C344 C 0.60145 0.36761 0.39977 0.0
C345 C 0.55033 0.37277 0.45667 0.0
C346 C 0.57354 0.36557 0.36097 0.0
C347 C 0.5347 0.36716 0.36951 0.0
H348 H 0.17456 0.94588 0.88308 0.0
H349 H 0.12822 0.95527 0.02455 0.0
H350 H 0.11783 0.02143 1.01061 0.0
H351 H 0.11696 0.07537 0.95521 0.0
H352 H 0.15919 0.06391 0.81138 0.0
H353 H 0.17698 0.0003 0.82981 0.0
C354 C 0.16251 0.96248 0.91107 0.0
C355 C 0.15238 0.94569 0.95488 0.0
C356 C 0.15585 0.00024 0.90235 0.0
C357 C 0.13667 0.96757 0.99071 0.0
C358 C 0.1305 0.00536 0.98262 0.0
C359 C 0.13012 0.05902 0.92788 0.0
C360 C 0.13642 0.07466 0.88178 0.0
C361 C 0.13922 0.02183 0.93811 0.0
C362 C 0.15433 0.05309 0.84735 0.0
C363 C 0.16416 0.01642 0.85764 0.0
H364 H 0.49548 0.6532 0.40202 0.0
H365 H 0.50308 0.61548 0.55134 0.0
H366 H 0.43443 0.59986 0.54574 0.0
H367 H 0.37244 0.59612 0.49699 0.0
H368 H 0.37006 0.62564 0.34392 0.0
H369 H 0.43629 0.64532 0.3527 0.0
C370 C 0.48222 0.64161 0.43352 0.0
C371 C 0.50411 0.63675 0.47759 0.0
C372 C 0.4435 0.6312 0.42928 0.0
C373 C 0.48651 0.62095 0.51759 0.0
C374 C 0.44738 0.61158 0.51415 0.0
C375 C 0.38637 0.60653 0.46538 0.0
C376 C 0.36532 0.61016 0.4201 0.0
C377 C 0.42554 0.6165 0.46999 0.0
C378 C 0.38443 0.62381 0.37979 0.0
C379 C 0.42273 0.63471 0.3845 0.0
H380 H 0.37902 0.39594 0.69923 0.0
H381 H 0.40096 0.43862 0.55628 0.0
H382 H 0.39026 0.50148 0.58428 0.0
H383 H 0.37335 0.54399 0.64889 0.0
H384 H 0.3534 0.50094 0.79235 0.0
H385 H 0.36302 0.43829 0.76379 0.0
C386 C 0.38198 0.41898 0.67425 0.0
C387 C 0.39118 0.41253 0.62582 0.0
C388 C 0.37525 0.45489 0.69035 0.0
C389 C 0.39447 0.44277 0.59393 0.0
C390 C 0.38798 0.4787 0.60979 0.0
C391 C 0.37132 0.52096 0.67408 0.0
C392 C 0.36271 0.52738 0.72285 0.0
C393 C 0.37808 0.48503 0.65784 0.0
C394 C 0.35936 0.49699 0.75451 0.0
C395 C 0.3654 0.46112 0.73837 0.0
H396 H 0.03215 0.80464 0.16499 0.0
H397 H 0.01471 0.866 0.03076 0.0
H398 H 0.94806 0.87802 0.04954 0.0
H399 H 0.89747 0.87635 0.10842 0.0
H400 H 0.91922 0.82104 0.24717 0.0
H401 H 0.98055 0.79981 0.22125 0.0
C402 C 0.01342 0.81997 0.13938 0.0
C403 C 0.02799 0.83409 0.09636 0.0
C404 C 0.97582 0.8277 0.15123 0.0
C405 C 0.0038 0.85433 0.0637 0.0
C406 C 0.9659 0.86151 0.07473 0.0
C407 C 0.91556 0.85969 0.13315 0.0
C408 C 0.90356 0.85091 0.18015 0.0
C409 C 0.95195 0.84913 0.11906 0.0
C410 C 0.92708 0.82813 0.21072 0.0
C411 C 0.96258 0.81629 0.19616 0.0
H412 H 0.66715 0.52723 0.65181 0.0
H413 H 0.63178 0.52908 0.49894 0.0
H414 H 0.63394 0.46137 0.49713 0.0
H415 H 0.64692 0.40139 0.53991 0.0
H416 H 0.67347 0.40214 0.69543 0.0
H417 H 0.67448 0.46892 0.69487 0.0
C418 C 0.66008 0.51296 0.61786 0.0
C419 C 0.65037 0.53333 0.57526 0.0
C420 C 0.66021 0.47429 0.61751 0.0
C421 C 0.64058 0.51416 0.53195 0.0
C422 C 0.64146 0.47539 0.53104 0.0
C423 C 0.65239 0.41611 0.57371 0.0
C424 C 0.66106 0.39625 0.61735 0.0
C425 C 0.6514 0.45509 0.5737 0.0
C426 C 0.66824 0.41618 0.66081 0.0
C427 C 0.6684 0.4546 0.66076 0.0
H428 H 0.01957 0.2381 0.04633 0.0
H429 H 0.98339 0.1285 1.00347 0.0
H430 H 0.0505 0.10946 1.00176 0.0
H431 H 0.11746 0.12114 0.02869 0.0
H432 H 0.1544 0.23244 0.06507 0.0
H433 H 0.08846 0.25333 0.05417 0.0
C434 C 0.02649 0.21036 0.03518 0.0
C435 C 0.99676 0.18453 0.02586 0.0
C436 C 0.06502 0.1996 0.03477 0.0
C437 C 0.00585 0.14881 1.01093 0.0
C438 C 0.04421 0.13784 1.01052 0.0
C439 C 0.11194 0.1503 0.03262 0.0
C440 C 0.14152 0.17473 0.0496 0.0
C441 C 0.07393 0.16256 0.02481 0.0
C442 C 0.13247 0.21236 0.05442 0.0
C443 C 0.09466 0.22456 0.04759 0.0
H444 H 0.23974 0.76562 0.17849 0.0
H445 H 0.17391 0.7049 0.06826 0.0
H446 H 0.18945 0.64675 0.11143 0.0
H447 H 0.213 0.61512 0.18801 0.0
H448 H 0.27665 0.67788 0.29863 0.0
H449 H 0.27059 0.73334 0.24823 0.0
C450 C 0.22987 0.73946 0.16313 0.0
C451 C 0.20571 0.73935 0.12048 0.0
C452 C 0.2375 0.70672 0.18918 0.0
C453 C 0.19299 0.70551 0.10073 0.0
C454 C 0.2013 0.6724 0.12595 0.0
C455 C 0.22558 0.64098 0.20086 0.0
C456 C 0.24383 0.64275 0.24791 0.0
C457 C 0.22195 0.67295 0.17147 0.0
C458 C 0.26133 0.67602 0.2634 0.0
C459 C 0.25809 0.70772 0.23443 0.0
H460 H 0.7523 0.70148 0.66648 0.0
H461 H 0.67621 0.77045 0.5769 0.0
H462 H 0.69388 0.82365 0.628 0.0
H463 H 0.7216 0.84723 0.70685 0.0
H464 H 0.79365 0.77634 0.79881 0.0
H465 H 0.78685 0.72715 0.73834 0.0
C466 C 0.74029 0.72837 0.6573 0.0
C467 C 0.7124 0.73179 0.61845 0.0
C468 C 0.74921 0.7583 0.6881 0.0
C469 C 0.69763 0.76694 0.60662 0.0
C470 C 0.70735 0.79729 0.6363 0.0
C471 C 0.73635 0.82122 0.71309 0.0
C472 C 0.75781 0.81513 0.75736 0.0
C473 C 0.73155 0.79279 0.67855 0.0
C474 C 0.77694 0.78147 0.76505 0.0
C475 C 0.77296 0.75338 0.73056 0.0
H476 H 0.77052 0.23943 0.11022 0.0
H477 H 0.85972 0.32233 0.11684 0.0
H478 H 0.81905 0.36358 0.16101 0.0
H479 H 0.76157 0.37273 0.20691 0.0
H480 H 0.67404 0.28835 0.20582 0.0
H481 H 0.7105 0.25074 0.15103 0.0
C482 C 0.78039 0.26702 0.11996 0.0
C483 C 0.81778 0.27812 0.10999 0.0
C484 C 0.7575 0.28988 0.14746 0.0
C485 C 0.83083 0.31349 0.12384 0.0
C486 C 0.80777 0.33688 0.14953 0.0
C487 C 0.75033 0.34635 0.19397 0.0
C488 C 0.71515 0.33335 0.20982 0.0
C489 C 0.77165 0.32483 0.16308 0.0
C490 C 0.70099 0.29891 0.19361 0.0
C491 C 0.72179 0.27748 0.16233 0.0
H492 H 0.29215 0.21919 0.64239 0.0
H493 H 0.24851 0.3285 0.61094 0.0
H494 H 0.19658 0.31741 0.66596 0.0
H495 H 0.16798 0.27864 0.72977 0.0
H496 H 0.21527 0.17111 0.76328 0.0
H497 H 0.26186 0.17965 0.701 0.0
C498 C 0.27101 0.24053 0.64697 0.0
C499 C 0.27441 0.27477 0.62292 0.0
C500 C 0.24232 0.23443 0.6797 0.0
C501 C 0.2465 0.30187 0.62887 0.0
C502 C 0.21706 0.29565 0.66074 0.0
C503 C 0.18835 0.25706 0.72302 0.0
C504 C 0.18843 0.22428 0.75104 0.0
C505 C 0.21541 0.26242 0.68748 0.0
C506 C 0.21486 0.19649 0.74212 0.0
C507 C 0.24139 0.20137 0.70656 0.0
H508 H 0.72439 0.72337 0.45033 0.0
H509 H 0.63179 0.79981 0.46361 0.0
H510 H 0.6628 0.84403 0.41052 0.0
H511 H 0.70944 0.85524 0.34808 0.0
H512 H 0.79877 0.77615 0.32872 0.0
H513 H 0.77622 0.73863 0.39613 0.0
C514 C 0.71207 0.75046 0.44337 0.0
C515 C 0.67622 0.7587 0.46127 0.0
C516 C 0.72889 0.77466 0.41028 0.0
C517 C 0.65973 0.7933 0.45083 0.0
C518 C 0.67715 0.81827 0.41982 0.0
C519 C 0.7243 0.83011 0.35927 0.0
C520 C 0.75521 0.81797 0.33304 0.0
C521 C 0.71061 0.80837 0.39729 0.0
C522 C 0.77458 0.78563 0.34812 0.0
C523 C 0.76169 0.76425 0.38661 0.0
H524 H 0.83662 0.24426 0.90351 0.0
H525 H 0.72236 0.24819 0.95511 0.0
H526 H 0.69689 0.26652 0.87403 0.0
H527 H 0.70573 0.27376 0.78687 0.0
H528 H 0.81919 0.2667 0.73332 0.0
H529 H 0.84617 0.25637 0.81656 0.0
C530 C 0.80629 0.24993 0.8973 0.0
C531 C 0.78135 0.24456 0.93535 0.0
C532 C 0.79153 0.25896 0.84991 0.0
C533 C 0.74212 0.25203 0.92646 0.0
C534 C 0.72748 0.26216 0.87996 0.0
C535 C 0.73644 0.2705 0.79318 0.0
C536 C 0.76048 0.27115 0.75363 0.0
C537 C 0.75169 0.26441 0.84104 0.0
C538 C 0.80014 0.26645 0.76309 0.0
C539 C 0.81556 0.26061 0.81067 0.0
H540 H 0.28656 0.29456 0.35616 0.0
H541 H 0.3679 0.21716 0.42196 0.0
H542 H 0.34921 0.17195 0.35835 0.0
H543 H 0.30895 0.15481 0.28397 0.0
H544 H 0.22828 0.23369 0.22064 0.0
H545 H 0.24785 0.27838 0.28364 0.0
C546 C 0.30045 0.26784 0.35696 0.0
C547 C 0.32867 0.25931 0.39404 0.0
C548 C 0.28975 0.24243 0.32051 0.0
C549 C 0.34608 0.22445 0.39402 0.0
C550 C 0.33542 0.19868 0.35759 0.0
C551 C 0.29598 0.18193 0.28389 0.0
C552 C 0.26753 0.19129 0.24739 0.0
C553 C 0.30726 0.20743 0.3206 0.0
C554 C 0.25051 0.22622 0.24798 0.0
C555 C 0.26159 0.25161 0.28406 0.0
H556 H 0.19625 0.70997 0.97983 0.0
H557 H 0.28111 0.79471 0.95965 0.0
H558 H 0.32633 0.74855 0.93367 0.0
H559 H 0.33837 0.6855 0.90612 0.0
H560 H 0.25212 0.60118 0.92043 0.0
H561 H 0.21069 0.64538 0.95905 0.0
C562 C 0.22515 0.71793 0.97142 0.0
C563 C 0.23576 0.7554 0.97226 0.0
C564 C 0.25036 0.69138 0.9544 0.0
C565 C 0.27273 0.76583 0.9598 0.0
C566 C 0.29838 0.73954 0.94449 0.0
C567 C 0.31079 0.67678 0.91863 0.0
C568 C 0.29836 0.64022 0.91103 0.0
C569 C 0.28701 0.70246 0.93995 0.0
C570 C 0.26232 0.62919 0.92642 0.0
C571 C 0.23867 0.65444 0.9484 0.0
loop_
_geom_bond_atom_site_label_1
_geom_bond_atom_site_label_2
_geom_bond_distance
_geom_bond_site_symmetry_2
_ccdc_geom_bond_type
Zn0 O6 1.920 . S
Zn0 O12 1.898 . S
Zn0 O15 1.905 . S
Zn1 O9 1.905 . S
Zn1 O10 1.898 . S
Zn1 O18 1.920 . S
Zn2 O5 2.092 . S
Zn2 O8 2.103 1_554 S
Zn2 O11 2.103 1_554 S
Zn2 O13 2.136 . S
Zn2 O14 2.128 . S
Zn2 O17 2.067 1_554 S
C3 O8 1.166 . S
C3 O9 1.182 . S
C4 O10 1.167 . S
C4 O11 1.299 . S
O5 Zn2 2.092 . S
O5 C19 1.305 . S
O6 Zn0 1.920 . S
O6 C19 1.234 . S
C7 O12 1.167 . S
C7 O13 1.299 . S
O8 Zn2 2.103 1_556 S
O8 C3 1.166 . S
O9 Zn1 1.905 . S
O9 C3 1.182 . S
O10 Zn1 1.898 . S
O10 C4 1.167 . S
O11 Zn2 2.103 1_556 S
O11 C4 1.299 . S
O12 Zn0 1.898 . S
O12 C7 1.167 . S
O13 Zn2 2.136 . S
O13 C7 1.299 . S
O14 Zn2 2.128 . S
O14 C16 1.166 . S
O15 Zn0 1.905 . S
O15 C16 1.182 . S
C16 O14 1.166 . S
C16 O15 1.182 . S
O17 Zn2 2.067 1_556 S
O17 C20 1.305 . S
O18 Zn1 1.920 . S
O18 C20 1.234 . S
C19 O5 1.305 . S
C19 O6 1.234 . S
C20 O17 1.305 . S
C20 O18 1.234 . S
Zn21 O27 1.920 . S
Zn21 O33 1.898 . S
Zn21 O36 1.905 . S
Zn22 O30 1.905 . S
Zn22 O31 1.898 . S
Zn22 O39 1.920 . S
Zn23 O26 2.080 . S
Zn23 O29 2.114 . S
Zn23 O32 2.120 . S
Zn23 O34 2.120 . S
Zn23 O35 2.114 . S
Zn23 O38 2.080 . S
C24 O29 1.166 . S
C24 O30 1.182 . S
C25 O31 1.167 . S
C25 O32 1.299 . S
O26 Zn23 2.080 . S
O26 C40 1.305 . S
O27 Zn21 1.920 . S
O27 C40 1.234 . S
C28 O33 1.167 . S
C28 O34 1.299 . S
O29 Zn23 2.114 . S
O29 C24 1.166 . S
O30 Zn22 1.905 . S
O30 C24 1.182 . S
O31 Zn22 1.898 . S
O31 C25 1.167 . S
O32 Zn23 2.120 . S
O32 C25 1.299 . S
O33 Zn21 1.898 . S
O33 C28 1.167 . S
O34 Zn23 2.120 . S
O34 C28 1.299 . S
O35 Zn23 2.114 . S
O35 C37 1.166 . S
O36 Zn21 1.905 . S
O36 C37 1.182 . S
C37 O35 1.166 . S
C37 O36 1.182 . S
O38 Zn23 2.080 . S
O38 C41 1.305 . S
O39 Zn22 1.920 . S
O39 C41 1.234 . S
C40 O26 1.305 . S
C40 O27 1.234 . S
C41 O38 1.305 . S
C41 O39 1.234 . S
Zn42 O48 1.920 . S
Zn42 O54 1.898 . S
Zn42 O57 1.905 . S
Zn43 O51 1.905 . S
Zn43 O52 1.898 . S
Zn43 O60 1.920 . S
Zn44 O47 2.080 1_554 S
Zn44 O50 2.114 . S
Zn44 O53 2.120 . S
Zn44 O55 2.120 . S
Zn44 O56 2.114 1_554 S
Zn44 O59 2.080 . S
C45 O50 1.166 . S
C45 O51 1.182 . S
C46 O52 1.167 . S
C46 O53 1.299 . S
O47 Zn44 2.080 1_556 S
O47 C61 1.305 . S
O48 Zn42 1.920 . S
O48 C61 1.234 . S
C49 O54 1.167 . S
C49 O55 1.299 1_556 S
O50 Zn44 2.114 . S
O50 C45 1.166 . S
O51 Zn43 1.905 . S
O51 C45 1.182 . S
O52 Zn43 1.898 . S
O52 C46 1.167 . S
O53 Zn44 2.120 . S
O53 C46 1.299 . S
O54 Zn42 1.898 . S
O54 C49 1.167 . S
O55 Zn44 2.120 . S
O55 C49 1.299 1_554 S
O56 Zn44 2.114 1_556 S
O56 C58 1.166 . S
O57 Zn42 1.905 . S
O57 C58 1.182 . S
C58 O56 1.166 . S
C58 O57 1.182 . S
O59 Zn44 2.080 . S
O59 C62 1.305 . S
O60 Zn43 1.920 . S
O60 C62 1.234 . S
C61 O47 1.305 . S
C61 O48 1.234 . S
C62 O59 1.305 . S
C62 O60 1.234 . S
Zn63 O69 1.920 . S
Zn63 O75 1.898 . S
Zn63 O78 1.905 . S
Zn64 O72 1.905 . S
Zn64 O73 1.898 . S
Zn64 O81 1.920 . S
Zn65 O68 2.080 . S
Zn65 O71 2.114 . S
Zn65 O74 2.120 . S
Zn65 O76 2.120 . S
Zn65 O77 2.114 . S
Zn65 O80 2.080 . S
C66 O71 1.166 . S
C66 O72 1.182 . S
C67 O73 1.167 . S
C67 O74 1.299 . S
O68 Zn65 2.080 . S
O68 C82 1.305 . S
O69 Zn63 1.920 . S
O69 C82 1.234 . S
C70 O75 1.167 . S
C70 O76 1.299 . S
O71 Zn65 2.114 . S
O71 C66 1.166 . S
O72 Zn64 1.905 . S
O72 C66 1.182 . S
O73 Zn64 1.898 . S
O73 C67 1.167 . S
O74 Zn65 2.120 . S
O74 C67 1.299 . S
O75 Zn63 1.898 . S
O75 C70 1.167 . S
O76 Zn65 2.120 . S
O76 C70 1.299 . S
O77 Zn65 2.114 . S
O77 C79 1.166 . S
O78 Zn63 1.905 . S
O78 C79 1.182 . S
C79 O77 1.166 . S
C79 O78 1.182 . S
O80 Zn65 2.080 . S
O80 C83 1.305 . S
O81 Zn64 1.920 . S
O81 C83 1.234 . S
C82 O68 1.305 . S
C82 O69 1.234 . S
C83 O80 1.305 . S
C83 O81 1.234 . S
H84 C91 0.929 . S
H85 C94 0.930 . S
H86 C96 0.929 . S
H87 C88 0.969 . S
C88 H87 0.969 . S
C88 O89 1.550 . S
C88 H90 0.973 . S
O89 C88 1.550 . S
O89 C95 1.412 . S
H90 C88 0.973 . S
C91 H84 0.929 . S
C91 C92 1.400 . S
C91 C93 1.364 . S
C92 C91 1.400 . S
C92 C96 1.377 . S
C93 C91 1.364 . S
C93 C94 1.374 . S
C94 H85 0.930 . S
C94 C93 1.374 . S
C94 C95 1.383 . S
C95 O89 1.412 . S
C95 C94 1.383 . S
C95 C96 1.394 . S
C96 H86 0.929 . S
C96 C92 1.377 . S
C96 C95 1.394 . S
H97 C104 0.929 . S
H98 C107 0.930 . S
H99 C109 0.929 . S
H100 C101 0.969 . S
C101 H100 0.969 . S
C101 O102 1.550 . S
C101 H103 0.973 . S
O102 C101 1.550 . S
O102 C108 1.412 . S
H103 C101 0.973 . S
C104 H97 0.929 . S
C104 C105 1.400 . S
C104 C106 1.364 . S
C105 C104 1.400 . S
C105 C109 1.377 . S
C106 C104 1.364 . S
C106 C107 1.374 . S
C107 H98 0.930 . S
C107 C106 1.374 . S
C107 C108 1.383 . S
C108 O102 1.412 . S
C108 C107 1.383 . S
C108 C109 1.394 . S
C109 H99 0.929 . S
C109 C105 1.377 . S
C109 C108 1.394 . S
H110 C117 0.929 . S
H111 C120 0.930 . S
H112 C122 0.929 . S
H113 C114 0.969 . S
C114 H113 0.969 . S
C114 O115 1.550 . S
C114 H116 0.973 . S
O115 C114 1.550 . S
O115 C121 1.412 . S
H116 C114 0.973 . S
C117 H110 0.929 . S
C117 C118 1.400 . S
C117 C119 1.364 . S
C118 C117 1.400 . S
C118 C122 1.377 . S
C119 C117 1.364 . S
C119 C120 1.374 . S
C120 H111 0.930 . S
C120 C119 1.374 . S
C120 C121 1.383 . S
C121 O115 1.412 . S
C121 C120 1.383 . S
C121 C122 1.394 . S
C122 H112 0.929 . S
C122 C118 1.377 . S
C122 C121 1.394 . S
H123 C130 0.929 . S
H124 C133 0.930 . S
H125 C135 0.929 . S
H126 C127 0.969 . S
C127 H126 0.969 . S
C127 O128 1.550 . S
C127 H129 0.973 . S
O128 C127 1.550 . S
O128 C134 1.412 . S
H129 C127 0.973 . S
C130 H123 0.929 . S
C130 C131 1.400 . S
C130 C132 1.364 . S
C131 C130 1.400 . S
C131 C135 1.377 . S
C132 C130 1.364 . S
C132 C133 1.374 . S
C133 H124 0.930 . S
C133 C132 1.374 . S
C133 C134 1.383 . S
C134 O128 1.412 . S
C134 C133 1.383 . S
C134 C135 1.394 . S
C135 H125 0.929 . S
C135 C131 1.377 . S
C135 C134 1.394 . S
H136 C143 0.929 . S
H137 C146 0.930 . S
H138 C148 0.929 . S
H139 C140 0.969 . S
C140 H139 0.969 . S
C140 O141 1.550 . S
C140 H142 0.973 . S
O141 C140 1.550 . S
O141 C147 1.412 . S
H142 C140 0.973 . S
C143 H136 0.929 . S
C143 C144 1.400 . S
C143 C145 1.364 . S
C144 C143 1.400 . S
C144 C148 1.377 . S
C145 C143 1.364 . S
C145 C146 1.374 . S
C146 H137 0.930 . S
C146 C145 1.374 . S
C146 C147 1.383 . S
C147 O141 1.412 . S
C147 C146 1.383 . S
C147 C148 1.394 . S
C148 H138 0.929 . S
C148 C144 1.377 . S
C148 C147 1.394 . S
H149 C156 0.929 . S
H150 C159 0.930 . S
H151 C161 0.929 . S
H152 C153 0.969 . S
C153 H152 0.969 . S
C153 O154 1.550 . S
C153 H155 0.973 . S
O154 C153 1.550 . S
O154 C160 1.412 . S
H155 C153 0.973 . S
C156 H149 0.929 . S
C156 C157 1.400 . S
C156 C158 1.364 . S
C157 C156 1.400 . S
C157 C161 1.377 . S
C158 C156 1.364 . S
C158 C159 1.374 . S
C159 H150 0.930 . S
C159 C158 1.374 . S
C159 C160 1.383 . S
C160 O154 1.412 . S
C160 C159 1.383 . S
C160 C161 1.394 . S
C161 H151 0.929 . S
C161 C157 1.377 . S
C161 C160 1.394 . S
H162 C169 0.929 . S
H163 C172 0.930 . S
H164 C174 0.929 . S
H165 C166 0.969 . S
C166 H165 0.969 . S
C166 O167 1.550 . S
C166 H168 0.973 . S
O167 C166 1.550 . S
O167 C173 1.412 . S
H168 C166 0.973 . S
C169 H162 0.929 . S
C169 C170 1.400 . S
C169 C171 1.364 . S
C170 C169 1.400 . S
C170 C174 1.377 . S
C171 C169 1.364 . S
C171 C172 1.374 . S
C172 H163 0.930 . S
C172 C171 1.374 . S
C172 C173 1.383 . S
C173 O167 1.412 . S
C173 C172 1.383 . S
C173 C174 1.394 . S
C174 H164 0.929 . S
C174 C170 1.377 . S
C174 C173 1.394 . S
H175 C182 0.929 . S
H176 C185 0.930 . S
H177 C187 0.929 . S
H178 C179 0.969 . S
C179 H178 0.969 . S
C179 O180 1.550 . S
C179 H181 0.973 . S
O180 C179 1.550 . S
O180 C186 1.412 . S
H181 C179 0.973 . S
C182 H175 0.929 . S
C182 C183 1.400 . S
C182 C184 1.364 . S
C183 C182 1.400 . S
C183 C187 1.377 . S
C184 C182 1.364 . S
C184 C185 1.374 . S
C185 H176 0.930 . S
C185 C184 1.374 . S
C185 C186 1.383 . S
C186 O180 1.412 . S
C186 C185 1.383 . S
C186 C187 1.394 . S
C187 H177 0.929 . S
C187 C183 1.377 . S
C187 C186 1.394 . S
H188 C194 0.930 . S
H189 C197 0.930 . S
H190 C198 0.930 . S
H191 C199 0.930 . S
H192 C202 0.930 . S
H193 C203 0.930 . S
C194 H188 0.930 . S
C194 C195 1.355 . S
C194 C196 1.415 . S
C195 C194 1.355 . S
C195 C197 1.419 . S
C196 C194 1.415 . S
C196 C201 1.425 . S
C196 C203 1.409 1_565 S
C197 H189 0.930 . S
C197 C195 1.419 . S
C197 C198 1.362 . S
C198 H190 0.930 . S
C198 C197 1.362 . S
C198 C201 1.409 . S
C199 H191 0.930 . S
C199 C200 1.355 1_565 S
C199 C201 1.415 . S
C200 C199 1.355 1_545 S
C200 C202 1.419 . S
C201 C196 1.425 . S
C201 C198 1.409 . S
C201 C199 1.415 . S
C202 H192 0.930 . S
C202 C200 1.419 . S
C202 C203 1.362 . S
C203 H193 0.930 . S
C203 C196 1.409 1_545 S
C203 C202 1.362 . S
H204 C210 0.930 . S
H205 C213 0.930 . S
H206 C214 0.930 . S
H207 C215 0.930 . S
H208 C218 0.930 . S
H209 C219 0.930 . S
C210 H204 0.930 . S
C210 C211 1.355 . S
C210 C212 1.415 . S
C211 C210 1.355 . S
C211 C213 1.419 . S
C212 C210 1.415 . S
C212 C217 1.425 . S
C212 C219 1.409 . S
C213 H205 0.930 . S
C213 C211 1.419 . S
C213 C214 1.362 . S
C214 H206 0.930 . S
C214 C213 1.362 . S
C214 C217 1.409 . S
C215 H207 0.930 . S
C215 C216 1.355 . S
C215 C217 1.415 . S
C216 C215 1.355 . S
C216 C218 1.419 . S
C217 C212 1.425 . S
C217 C214 1.409 . S
C217 C215 1.415 . S
C218 H208 0.930 . S
C218 C216 1.419 . S
C218 C219 1.362 . S
C219 H209 0.930 . S
C219 C212 1.409 . S
C219 C218 1.362 . S
H220 C226 0.930 . S
H221 C229 0.930 . S
H222 C230 0.930 . S
H223 C231 0.930 . S
H224 C234 0.930 . S
H225 C235 0.930 . S
C226 H220 0.930 . S
C226 C227 1.355 . S
C226 C228 1.415 1_545 S
C227 C226 1.355 . S
C227 C229 1.419 . S
C228 C226 1.415 1_565 S
C228 C233 1.425 . S
C228 C235 1.409 . S
C229 H221 0.930 . S
C229 C227 1.419 . S
C229 C230 1.362 1_545 S
C230 H222 0.930 . S
C230 C229 1.362 1_565 S
C230 C233 1.409 . S
C231 H223 0.930 . S
C231 C232 1.355 . S
C231 C233 1.415 . S
C232 C231 1.355 . S
C232 C234 1.419 . S
C233 C228 1.425 . S
C233 C230 1.409 . S
C233 C231 1.415 . S
C234 H224 0.930 . S
C234 C232 1.419 . S
C234 C235 1.362 . S
C235 H225 0.930 . S
C235 C228 1.409 . S
C235 C234 1.362 . S
H236 C242 0.930 . S
H237 C245 0.930 . S
H238 C246 0.930 . S
H239 C247 0.930 . S
H240 C250 0.930 . S
H241 C251 0.930 . S
C242 H236 0.930 . S
C242 C243 1.355 . S
C242 C244 1.415 . S
C243 C242 1.355 . S
C243 C245 1.419 . S
C244 C242 1.415 . S
C244 C249 1.425 . S
C244 C251 1.409 . S
C245 H237 0.930 . S
C245 C243 1.419 . S
C245 C246 1.362 . S
C246 H238 0.930 . S
C246 C245 1.362 . S
C246 C249 1.409 . S
C247 H239 0.930 . S
C247 C248 1.355 . S
C247 C249 1.415 . S
C248 C247 1.355 . S
C248 C250 1.419 . S
C249 C244 1.425 . S
C249 C246 1.409 . S
C249 C247 1.415 . S
C250 H240 0.930 . S
C250 C248 1.419 . S
C250 C251 1.362 . S
C251 H241 0.930 . S
C251 C244 1.409 . S
C251 C250 1.362 . S
H252 C258 0.930 . S
H253 C261 0.930 . S
H254 C262 0.930 . S
H255 C263 0.930 . S
H256 C266 0.930 . S
H257 C267 0.930 . S
C258 H252 0.930 . S
C258 C259 1.355 . S
C258 C260 1.415 . S
C259 C258 1.355 . S
C259 C261 1.419 . S
C260 C258 1.415 . S
C260 C265 1.425 . S
C260 C267 1.409 . S
C261 H253 0.930 . S
C261 C259 1.419 . S
C261 C262 1.362 . S
C262 H254 0.930 . S
C262 C261 1.362 . S
C262 C265 1.409 . S
C263 H255 0.930 . S
C263 C264 1.355 . S
C263 C265 1.415 . S
C264 C263 1.355 . S
C264 C266 1.419 . S
C265 C260 1.425 . S
C265 C262 1.409 . S
C265 C263 1.415 . S
C266 H256 0.930 . S
C266 C264 1.419 . S
C266 C267 1.362 . S
C267 H257 0.930 . S
C267 C260 1.409 . S
C267 C266 1.362 . S
H268 C274 0.930 . S
H269 C277 0.930 . S
H270 C278 0.930 1_455 S
H271 C279 0.930 . S
H272 C282 0.930 . S
H273 C283 0.930 . S
C274 H268 0.930 . S
C274 C275 1.355 . S
C274 C276 1.415 1_655 S
C275 C274 1.355 . S
C275 C277 1.419 . S
C276 C274 1.415 1_455 S
C276 C281 1.425 . S
C276 C283 1.409 . S
C277 H269 0.930 . S
C277 C275 1.419 . S
C277 C278 1.362 . S
C278 H270 0.930 1_655 S
C278 C277 1.362 . S
C278 C281 1.409 1_655 S
C279 H271 0.930 . S
C279 C280 1.355 . S
C279 C281 1.415 . S
C280 C279 1.355 . S
C280 C282 1.419 . S
C281 C276 1.425 . S
C281 C278 1.409 1_455 S
C281 C279 1.415 . S
C282 H272 0.930 . S
C282 C280 1.419 . S
C282 C283 1.362 . S
C283 H273 0.930 . S
C283 C276 1.409 . S
C283 C282 1.362 . S
H284 C290 0.930 . S
H285 C293 0.930 . S
H286 C294 0.930 . S
H287 C295 0.930 . S
H288 C298 0.930 . S
H289 C299 0.930 . S
C290 H284 0.930 . S
C290 C291 1.355 . S
C290 C292 1.415 . S
C291 C290 1.355 . S
C291 C293 1.419 . S
C292 C290 1.415 . S
C292 C297 1.425 . S
C292 C299 1.409 . S
C293 H285 0.930 . S
C293 C291 1.419 . S
C293 C294 1.362 . S
C294 H286 0.930 . S
C294 C293 1.362 . S
C294 C297 1.409 . S
C295 H287 0.930 . S
C295 C296 1.355 . S
C295 C297 1.415 . S
C296 C295 1.355 . S
C296 C298 1.419 . S
C297 C292 1.425 . S
C297 C294 1.409 . S
C297 C295 1.415 . S
C298 H288 0.930 . S
C298 C296 1.419 . S
C298 C299 1.362 . S
C299 H289 0.930 . S
C299 C292 1.409 . S
C299 C298 1.362 . S
H300 C306 0.930 . S
H301 C309 0.930 . S
H302 C310 0.930 . S
H303 C311 0.930 . S
H304 C314 0.930 . S
H305 C315 0.930 . S
C306 H300 0.930 . S
C306 C307 1.355 . S
C306 C308 1.415 1_455 S
C307 C306 1.355 . S
C307 C309 1.419 . S
C308 C306 1.415 1_655 S
C308 C313 1.425 . S
C308 C315 1.409 . S
C309 H301 0.930 . S
C309 C307 1.419 . S
C309 C310 1.362 . S
C310 H302 0.930 . S
C310 C309 1.362 . S
C310 C313 1.409 1_455 S
C311 H303 0.930 . S
C311 C312 1.355 . S
C311 C313 1.415 . S
C312 C311 1.355 . S
C312 C314 1.419 . S
C313 C308 1.425 . S
C313 C310 1.409 1_655 S
C313 C311 1.415 . S
C314 H304 0.930 . S
C314 C312 1.419 . S
C314 C315 1.362 . S
C315 H305 0.930 . S
C315 C308 1.409 . S
C315 C314 1.362 . S
H316 C322 0.930 1_565 S
H317 C325 0.930 . S
H318 C326 0.930 . S
H319 C327 0.930 . S
H320 C330 0.930 . S
H321 C331 0.930 . S
C322 H316 0.930 1_545 S
C322 C323 1.355 . S
C322 C324 1.415 1_545 S
C323 C322 1.355 . S
C323 C325 1.419 . S
C324 C322 1.415 1_565 S
C324 C329 1.425 . S
C324 C331 1.409 . S
C325 H317 0.930 . S
C325 C323 1.419 . S
C325 C326 1.362 . S
C326 H318 0.930 . S
C326 C325 1.362 . S
C326 C329 1.409 1_545 S
C327 H319 0.930 . S
C327 C328 1.355 . S
C327 C329 1.415 . S
C328 C327 1.355 . S
C328 C330 1.419 . S
C329 C324 1.425 . S
C329 C326 1.409 1_565 S
C329 C327 1.415 . S
C330 H320 0.930 . S
C330 C328 1.419 . S
C330 C331 1.362 . S
C331 H321 0.930 . S
C331 C324 1.409 . S
C331 C330 1.362 . S
H332 C338 0.930 . S
H333 C341 0.930 . S
H334 C342 0.930 . S
H335 C343 0.930 . S
H336 C346 0.930 . S
H337 C347 0.930 . S
C338 H332 0.930 . S
C338 C339 1.355 . S
C338 C340 1.415 . S
C339 C338 1.355 . S
C339 C341 1.419 . S
C340 C338 1.415 . S
C340 C345 1.425 . S
C340 C347 1.409 . S
C341 H333 0.930 . S
C341 C339 1.419 . S
C341 C342 1.362 . S
C342 H334 0.930 . S
C342 C341 1.362 . S
C342 C345 1.409 . S
C343 H335 0.930 . S
C343 C344 1.355 . S
C343 C345 1.415 . S
C344 C343 1.355 . S
C344 C346 1.419 . S
C345 C340 1.425 . S
C345 C342 1.409 . S
C345 C343 1.415 . S
C346 H336 0.930 . S
C346 C344 1.419 . S
C346 C347 1.362 . S
C347 H337 0.930 . S
C347 C340 1.409 . S
C347 C346 1.362 . S
H348 C354 0.930 . S
H349 C357 0.943 1_554 S
H350 C358 0.930 . S
H351 C359 0.930 . S
H352 C362 0.930 . S
H353 C363 0.930 . S
C354 H348 0.930 . S
C354 C355 1.355 . S
C354 C356 1.415 1_565 S
C355 C354 1.355 . S
C355 C357 1.434 . S
C356 C354 1.415 1_545 S
C356 C361 1.425 . S
C356 C363 1.409 . S
C357 H349 0.943 1_556 S
C357 C355 1.434 . S
C357 C358 1.335 1_565 S
C358 H350 0.930 . S
C358 C357 1.335 1_545 S
C358 C361 1.409 . S
C359 H351 0.930 . S
C359 C360 1.355 . S
C359 C361 1.415 . S
C360 C359 1.355 . S
C360 C362 1.419 . S
C361 C356 1.425 . S
C361 C358 1.409 . S
C361 C359 1.415 . S
C362 H352 0.930 . S
C362 C360 1.419 . S
C362 C363 1.362 . S
C363 H353 0.930 . S
C363 C356 1.409 . S
C363 C362 1.362 . S
H364 C370 0.930 . S
H365 C373 0.930 . S
H366 C374 0.930 . S
H367 C375 0.930 . S
H368 C378 0.930 . S
H369 C379 0.930 . S
C370 H364 0.930 . S
C370 C371 1.355 . S
C370 C372 1.415 . S
C371 C370 1.355 . S
C371 C373 1.419 . S
C372 C370 1.415 . S
C372 C377 1.425 . S
C372 C379 1.409 . S
C373 H365 0.930 . S
C373 C371 1.419 . S
C373 C374 1.362 . S
C374 H366 0.930 . S
C374 C373 1.362 . S
C374 C377 1.409 . S
C375 H367 0.930 . S
C375 C376 1.355 . S
C375 C377 1.415 . S
C376 C375 1.355 . S
C376 C378 1.419 . S
C377 C372 1.425 . S
C377 C374 1.409 . S
C377 C375 1.415 . S
C378 H368 0.930 . S
C378 C376 1.419 . S
C378 C379 1.362 . S
C379 H369 0.930 . S
C379 C372 1.409 . S
C379 C378 1.362 . S
H380 C386 0.930 . S
H381 C389 0.930 . S
H382 C390 0.930 . S
H383 C391 0.930 . S
H384 C394 0.930 . S
H385 C395 0.930 . S
C386 H380 0.930 . S
C386 C387 1.355 . S
C386 C388 1.415 . S
C387 C386 1.355 . S
C387 C389 1.419 . S
C388 C386 1.415 . S
C388 C393 1.425 . S
C388 C395 1.409 . S
C389 H381 0.930 . S
C389 C387 1.419 . S
C389 C390 1.362 . S
C390 H382 0.930 . S
C390 C389 1.362 . S
C390 C393 1.409 . S
C391 H383 0.930 . S
C391 C392 1.355 . S
C391 C393 1.415 . S
C392 C391 1.355 . S
C392 C394 1.419 . S
C393 C388 1.425 . S
C393 C390 1.409 . S
C393 C391 1.415 . S
C394 H384 0.930 . S
C394 C392 1.419 . S
C394 C395 1.362 . S
C395 H385 0.930 . S
C395 C388 1.409 . S
C395 C394 1.362 . S
H396 C402 0.930 1_455 S
H397 C405 0.930 1_455 S
H398 C406 0.930 . S
H399 C407 0.930 . S
H400 C410 0.930 . S
H401 C411 0.930 . S
C402 H396 0.930 1_655 S
C402 C403 1.355 1_655 S
C402 C404 1.415 . S
C403 C402 1.355 1_455 S
C403 C405 1.419 1_455 S
C404 C402 1.415 . S
C404 C409 1.425 . S
C404 C411 1.409 . S
C405 H397 0.930 1_655 S
C405 C403 1.419 1_655 S
C405 C406 1.362 . S
C406 H398 0.930 . S
C406 C405 1.362 . S
C406 C409 1.409 . S
C407 H399 0.930 . S
C407 C408 1.355 . S
C407 C409 1.415 . S
C408 C407 1.355 . S
C408 C410 1.419 . S
C409 C404 1.425 . S
C409 C406 1.409 . S
C409 C407 1.415 . S
C410 H400 0.930 . S
C410 C408 1.419 . S
C410 C411 1.362 . S
C411 H401 0.930 . S
C411 C404 1.409 . S
C411 C410 1.362 . S
H412 C418 0.930 . S
H413 C421 0.930 . S
H414 C422 0.930 . S
H415 C423 0.930 . S
H416 C426 0.930 . S
H417 C427 0.930 . S
C418 H412 0.930 . S
C418 C419 1.355 . S
C418 C420 1.415 . S
C419 C418 1.355 . S
C419 C421 1.419 . S
C420 C418 1.415 . S
C420 C425 1.425 . S
C420 C427 1.409 . S
C421 H413 0.930 . S
C421 C419 1.419 . S
C421 C422 1.362 . S
C422 H414 0.930 . S
C422 C421 1.362 . S
C422 C425 1.409 . S
C423 H415 0.930 . S
C423 C424 1.355 . S
C423 C425 1.415 . S
C424 C423 1.355 . S
C424 C426 1.419 . S
C425 C420 1.425 . S
C425 C422 1.409 . S
C425 C423 1.415 . S
C426 H416 0.930 . S
C426 C424 1.419 . S
C426 C427 1.362 . S
C427 H417 0.930 . S
C427 C420 1.409 . S
C427 C426 1.362 . S
H428 C434 0.930 . S
H429 C437 0.930 . S
H430 C438 0.930 . S
H431 C439 0.930 . S
H432 C442 0.930 . S
H433 C443 0.930 . S
C434 H428 0.930 . S
C434 C435 1.355 1_455 S
C434 C436 1.415 . S
C435 C434 1.355 1_655 S
C435 C437 1.419 . S
C436 C434 1.415 . S
C436 C441 1.425 . S
C436 C443 1.409 . S
C437 H429 0.930 . S
C437 C435 1.419 . S
C437 C438 1.362 1_655 S
C438 H430 0.930 . S
C438 C437 1.362 1_455 S
C438 C441 1.409 . S
C439 H431 0.930 . S
C439 C440 1.355 . S
C439 C441 1.415 . S
C440 C439 1.355 . S
C440 C442 1.419 . S
C441 C436 1.425 . S
C441 C438 1.409 . S
C441 C439 1.415 . S
C442 H432 0.930 . S
C442 C440 1.419 . S
C442 C443 1.362 . S
C443 H433 0.930 . S
C443 C436 1.409 . S
C443 C442 1.362 . S
H444 C450 0.930 . S
H445 C453 0.930 . S
H446 C454 0.930 . S
H447 C455 0.930 . S
H448 C458 0.930 . S
H449 C459 0.930 . S
C450 H444 0.930 . S
C450 C451 1.355 . S
C450 C452 1.415 . S
C451 C450 1.355 . S
C451 C453 1.419 . S
C452 C450 1.415 . S
C452 C457 1.425 . S
C452 C459 1.409 . S
C453 H445 0.930 . S
C453 C451 1.419 . S
C453 C454 1.362 . S
C454 H446 0.930 . S
C454 C453 1.362 . S
C454 C457 1.409 . S
C455 H447 0.930 . S
C455 C456 1.355 . S
C455 C457 1.415 . S
C456 C455 1.355 . S
C456 C458 1.419 . S
C457 C452 1.425 . S
C457 C454 1.409 . S
C457 C455 1.415 . S
C458 H448 0.930 . S
C458 C456 1.419 . S
C458 C459 1.362 . S
C459 H449 0.930 . S
C459 C452 1.409 . S
C459 C458 1.362 . S
H460 C466 0.930 . S
H461 C469 0.930 . S
H462 C470 0.930 . S
H463 C471 0.930 . S
H464 C474 0.930 . S
H465 C475 0.930 . S
C466 H460 0.930 . S
C466 C467 1.355 . S
C466 C468 1.415 . S
C467 C466 1.355 . S
C467 C469 1.419 . S
C468 C466 1.415 . S
C468 C473 1.425 . S
C468 C475 1.409 . S
C469 H461 0.930 . S
C469 C467 1.419 . S
C469 C470 1.362 . S
C470 H462 0.930 . S
C470 C469 1.362 . S
C470 C473 1.409 . S
C471 H463 0.930 . S
C471 C472 1.355 . S
C471 C473 1.415 . S
C472 C471 1.355 . S
C472 C474 1.419 . S
C473 C468 1.425 . S
C473 C470 1.409 . S
C473 C471 1.415 . S
C474 H464 0.930 . S
C474 C472 1.419 . S
C474 C475 1.362 . S
C475 H465 0.930 . S
C475 C468 1.409 . S
C475 C474 1.362 . S
H476 C482 0.930 . S
H477 C485 0.930 . S
H478 C486 0.930 . S
H479 C487 0.930 . S
H480 C490 0.930 . S
H481 C491 0.930 . S
C482 H476 0.930 . S
C482 C483 1.355 . S
C482 C484 1.415 . S
C483 C482 1.355 . S
C483 C485 1.419 . S
C484 C482 1.415 . S
C484 C489 1.425 . S
C484 C491 1.409 . S
C485 H477 0.930 . S
C485 C483 1.419 . S
C485 C486 1.362 . S
C486 H478 0.930 . S
C486 C485 1.362 . S
C486 C489 1.409 . S
C487 H479 0.930 . S
C487 C488 1.355 . S
C487 C489 1.415 . S
C488 C487 1.355 . S
C488 C490 1.419 . S
C489 C484 1.425 . S
C489 C486 1.409 . S
C489 C487 1.415 . S
C490 H480 0.930 . S
C490 C488 1.419 . S
C490 C491 1.362 . S
C491 H481 0.930 . S
C491 C484 1.409 . S
C491 C490 1.362 . S
H492 C498 0.930 . S
H493 C501 0.930 . S
H494 C502 0.930 . S
H495 C503 0.930 . S
H496 C506 0.930 . S
H497 C507 0.930 . S
C498 H492 0.930 . S
C498 C499 1.355 . S
C498 C500 1.415 . S
C499 C498 1.355 . S
C499 C501 1.419 . S
C500 C498 1.415 . S
C500 C505 1.425 . S
C500 C507 1.409 . S
C501 H493 0.930 . S
C501 C499 1.419 . S
C501 C502 1.362 . S
C502 H494 0.930 . S
C502 C501 1.362 . S
C502 C505 1.409 . S
C503 H495 0.930 . S
C503 C504 1.355 . S
C503 C505 1.415 . S
C504 C503 1.355 . S
C504 C506 1.419 . S
C505 C500 1.425 . S
C505 C502 1.409 . S
C505 C503 1.415 . S
C506 H496 0.930 . S
C506 C504 1.419 . S
C506 C507 1.362 . S
C507 H497 0.930 . S
C507 C500 1.409 . S
C507 C506 1.362 . S
H508 C514 0.930 . S
H509 C517 0.930 . S
H510 C518 0.930 . S
H511 C519 0.930 . S
H512 C522 0.930 . S
H513 C523 0.930 . S
C514 H508 0.930 . S
C514 C515 1.355 . S
C514 C516 1.415 . S
C515 C514 1.355 . S
C515 C517 1.419 . S
C516 C514 1.415 . S
C516 C521 1.425 . S
C516 C523 1.409 . S
C517 H509 0.930 . S
C517 C515 1.419 . S
C517 C518 1.362 . S
C518 H510 0.930 . S
C518 C517 1.362 . S
C518 C521 1.409 . S
C519 H511 0.930 . S
C519 C520 1.355 . S
C519 C521 1.415 . S
C520 C519 1.355 . S
C520 C522 1.419 . S
C521 C516 1.425 . S
C521 C518 1.409 . S
C521 C519 1.415 . S
C522 H512 0.930 . S
C522 C520 1.419 . S
C522 C523 1.362 . S
C523 H513 0.930 . S
C523 C516 1.409 . S
C523 C522 1.362 . S
H524 C530 0.930 . S
H525 C533 0.930 . S
H526 C534 0.930 . S
H527 C535 0.930 . S
H528 C538 0.930 . S
H529 C539 0.930 . S
C530 H524 0.930 . S
C530 C531 1.355 . S
C530 C532 1.415 . S
C531 C530 1.355 . S
C531 C533 1.419 . S
C532 C530 1.415 . S
C532 C537 1.425 . S
C532 C539 1.409 . S
C533 H525 0.930 . S
C533 C531 1.419 . S
C533 C534 1.362 . S
C534 H526 0.930 . S
C534 C533 1.362 . S
C534 C537 1.409 . S
C535 H527 0.930 . S
C535 C536 1.355 . S
C535 C537 1.415 . S
C536 C535 1.355 . S
C536 C538 1.419 . S
C537 C532 1.425 . S
C537 C534 1.409 . S
C537 C535 1.415 . S
C538 H528 0.930 . S
C538 C536 1.419 . S
C538 C539 1.362 . S
C539 H529 0.930 . S
C539 C532 1.409 . S
C539 C538 1.362 . S
H540 C546 0.930 . S
H541 C549 0.930 . S
H542 C550 0.930 . S
H543 C551 0.930 . S
H544 C554 0.930 . S
H545 C555 0.930 . S
C546 H540 0.930 . S
C546 C547 1.355 . S
C546 C548 1.415 . S
C547 C546 1.355 . S
C547 C549 1.419 . S
C548 C546 1.415 . S
C548 C553 1.425 . S
C548 C555 1.409 . S
C549 H541 0.930 . S
C549 C547 1.419 . S
C549 C550 1.362 . S
C550 H542 0.930 . S
C550 C549 1.362 . S
C550 C553 1.409 . S
C551 H543 0.930 . S
C551 C552 1.355 . S
C551 C553 1.415 . S
C552 C551 1.355 . S
C552 C554 1.419 . S
C553 C548 1.425 . S
C553 C550 1.409 . S
C553 C551 1.415 . S
C554 H544 0.930 . S
C554 C552 1.419 . S
C554 C555 1.362 . S
C555 H545 0.930 . S
C555 C548 1.409 . S
C555 C554 1.362 . S
H556 C562 0.930 . S
H557 C565 0.930 . S
H558 C566 0.930 . S
H559 C567 0.930 . S
H560 C570 0.930 . S
H561 C571 0.930 . S
C562 H556 0.930 . S
C562 C563 1.355 . S
C562 C564 1.415 . S
C563 C562 1.355 . S
C563 C565 1.419 . S
C564 C562 1.415 . S
C564 C569 1.425 . S
C564 C571 1.409 . S
C565 H557 0.930 . S
C565 C563 1.419 . S
C565 C566 1.362 . S
C566 H558 0.930 . S
C566 C565 1.362 . S
C566 C569 1.409 . S
C567 H559 0.930 . S
C567 C568 1.355 . S
C567 C569 1.415 . S
C568 C567 1.355 . S
C568 C570 1.419 . S
C569 C564 1.425 . S
C569 C566 1.409 . S
C569 C567 1.415 . S
C570 H560 0.930 . S
C570 C568 1.419 . S
C570 C571 1.362 . S
C571 H561 0.930 . S
C571 C564 1.409 . S
C571 C570 1.362 . S
C195 C7 0.893 . S
C200 C92 0.894 . S
C211 C25 0.883 . S
C216 C105 0.796 . S
C227 C46 0.885 . S
C232 C119 0.992 . S
C248 C132 0.866 . S
C243 C70 0.890 . S
C264 C144 0.801 . S
C259 C28 0.777 . S
C275 C49 0.856 . S
C280 C158 0.983 . S
C291 C67 0.962 . S
C296 C170 0.972 . S
C307 C4 0.709 . S
C312 C184 0.773 . S
C323 C58 1.453 . S
C328 C183 1.565 . S
C344 C145 1.740 . S
C339 C66 1.740 . S
C360 C157 1.634 . S
C355 C3 1.586 . S
C371 C37 1.670 . S
C376 C171 1.729 . S
C392 C106 1.787 . S
C387 C79 1.739 . S
C403 C16 1.557 . S
C408 C118 1.613 . S
C424 C131 1.613 . S
C419 C24 1.564 . S
C440 C93 1.723 . S
C435 C45 1.604 . S
C456 C166 1.327 . S
C451 C19 1.332 . S
C472 C179 1.243 . S
C467 C41 1.200 . S
C483 C62 1.275 . S
C488 C140 1.296 . S
C504 C153 1.474 . S
C499 C82 1.257 . S
C520 C114 1.386 . S
C515 C40 1.184 . S
C531 C61 1.264 . S
C536 C127 1.343 . S
C552 C88 1.348 . S
C547 C83 1.295 . S
C568 C101 1.293 . S
C563 C20 1.260 . S
