# Generated by pormake.
# Topology tsx, (6,3)-cn, num edge types: 1
# Building blocks:
#     Node 0, Type 0, BuildingBlock: MIDCAF_clean_sbu_0, # of connection points: 6
#     Node 1, Type 0, BuildingBlock: MIDCAF_clean_sbu_0, # of connection points: 6
#     Node 2, Type 1, BuildingBlock: PAMTOO_clean_linker_0, # of connection points: 3
#     Node 3, Type 1, BuildingBlock: PAMTOO_clean_linker_0, # of connection points: 3
#     Node 4, Type 1, BuildingBlock: PAMTOO_clean_linker_0, # of connection points: 3
#     Node 5, Type 1, BuildingBlock: PAMTOO_clean_linker_0, # of connection points: 3
#     Edge 6, Type (0, 1), BuildingBlock: XIVTED_clean_linker_0, # of connection points: 2
#     Edge 7, Type (0, 1), BuildingBlock: XIVTED_clean_linker_0, # of connection points: 2
#     Edge 8, Type (0, 1), BuildingBlock: XIVTED_clean_linker_0, # of connection points: 2
#     Edge 9, Type (0, 1), BuildingBlock: XIVTED_clean_linker_0, # of connection points: 2
#     Edge 10, Type (0, 1), BuildingBlock: XIVTED_clean_linker_0, # of connection points: 2
#     Edge 11, Type (0, 1), BuildingBlock: XIVTED_clean_linker_0, # of connection points: 2
#     Edge 12, Type (0, 1), BuildingBlock: XIVTED_clean_linker_0, # of connection points: 2
#     Edge 13, Type (0, 1), BuildingBlock: XIVTED_clean_linker_0, # of connection points: 2
#     Edge 14, Type (0, 1), BuildingBlock: XIVTED_clean_linker_0, # of connection points: 2
#     Edge 15, Type (0, 1), BuildingBlock: XIVTED_clean_linker_0, # of connection points: 2
#     Edge 16, Type (0, 1), BuildingBlock: XIVTED_clean_linker_0, # of connection points: 2
#     Edge 17, Type (0, 1), BuildingBlock: XIVTED_clean_linker_0, # of connection points: 2
# Relax obj value: 0.096
# Max RMSD: 0.163
# Mean RMSD: 0.128
data_MOF--net-tsx--node1-MIDCAF_clean_sbu_0--node2-PAMTOO_clean_linker_0--edge1-XIVTED_clean_linker_0
_symmetry_space_group_name_H-M    P1
_symmetry_Int_Tables_number       1
_symmetry_cell_setting            triclinic
loop_
_symmetry_equiv_pos_as_xyz
'x, y, z'
_cell_length_a     19.41848
_cell_length_b     21.125323
_cell_length_c     35.745448
_cell_angle_alpha  83.808678
_cell_angle_beta   101.11829
_cell_angle_gamma 90.475982
loop_
_atom_site_label
_atom_site_type_symbol
_atom_site_fract_x
_atom_site_fract_y
_atom_site_fract_z
_atom_type_partial_charge
Zn0 Zn 0.96658 0.00852 0.9469 0.0
Zn1 Zn 0.1928 0.9847 0.05761 0.0
Zn2 Zn 0.08058 -0.00211 0.00164 0.0
C3 C 0.16978 0.11524 0.03718 0.0
C4 C 0.22448 0.9228 -0.00188 0.0
O5 O 0.99241 0.94787 0.02294 0.0
O6 O 0.89973 0.96558 0.97612 0.0
C7 C 1.00909 0.13175 0.96056 0.0
O8 O 0.11948 0.09431 0.01271 0.0
O9 O 0.20929 0.07682 0.06128 0.0
O10 O 0.25241 0.93783 0.03081 0.0
O11 O 0.16111 0.94098 0.9828 0.0
O12 O 0.96471 0.10277 0.9381 0.0
O13 O 0.05586 0.10053 0.98621 0.0
O14 O 0.10414 0.95442 0.95171 0.0
O15 O 1.00298 0.96022 0.9104 0.0
C16 C 0.06686 0.9437 0.91909 0.0
O17 O 0.04928 0.95092 0.05394 0.0
O18 O 0.14791 0.93672 0.09694 0.0
C19 C 0.92668 0.9405 0.00932 0.0
C20 C 0.08222 0.93103 0.08799 0.0
Zn21 Zn 0.68076 0.50119 0.54615 0.0
Zn22 Zn 0.44335 0.5169 0.4597 0.0
Zn23 Zn 0.55916 0.51232 0.49977 0.0
C24 C 0.52876 0.49278 0.41126 0.0
C25 C 0.45806 0.63252 0.48658 0.0
O26 O 0.54506 0.46073 0.55513 0.0
O27 O 0.65174 0.45345 0.59112 0.0
C28 C 0.69607 0.44431 0.48158 0.0
O29 O 0.57006 0.48041 0.44405 0.0
O30 O 0.47013 0.51962 0.40924 0.0
O31 O 0.40901 0.5946 0.47681 0.0
O32 O 0.52234 0.61321 0.49196 0.0
O33 O 0.73045 0.45584 0.5138 0.0
O34 O 0.63157 0.46312 0.47076 0.0
O35 O 0.59356 0.61075 0.51004 0.0
O36 O 0.69689 0.59324 0.54868 0.0
C37 C 0.64993 0.63156 0.53006 0.0
O38 O 0.48943 0.44425 0.52689 0.0
O39 O 0.40642 0.43447 0.4764 0.0
C40 C 0.58665 0.4441 0.58743 0.0
C41 C 0.43572 0.41475 0.51014 0.0
H42 H 0.14045 0.91583 0.35371 0.0
H43 H 0.95452 0.03218 0.34109 0.0
H44 H 0.11467 0.03103 0.44232 0.0
H45 H 0.96633 0.04594 0.45562 0.0
C46 C 0.94242 0.06748 0.42625 0.0
O47 O 0.99432 0.08131 0.40532 0.0
H48 H 0.90508 0.03281 0.41233 0.0
C49 C 0.10918 0.94896 0.36477 0.0
C50 C 0.13539 0.97038 0.4006 0.0
C51 C 0.04366 0.97016 0.343 0.0
C52 C 1.00476 0.01431 0.35741 0.0
C53 C 0.03041 0.03603 0.39306 0.0
C54 C 0.09518 0.01362 0.41486 0.0
H55 H 0.22914 0.02823 0.66347 0.0
H56 H 0.03002 0.93361 0.6394 0.0
H57 H 0.1032 0.04926 0.54975 0.0
H58 H 0.94516 0.04169 0.53099 0.0
C59 C 0.94394 0.00832 0.55712 0.0
O60 O 1.00518 0.97236 0.56625 0.0
H61 H 0.93866 0.03746 0.58064 0.0
C62 C 0.18161 0.01784 0.64385 0.0
C63 C 0.17179 0.04504 0.60556 0.0
C64 C 0.13076 0.97808 0.657 0.0
C65 C 0.07091 0.96316 0.63035 0.0
C66 C 0.06206 0.98796 0.59173 0.0
C67 C 0.11218 0.02882 0.57944 0.0
H68 H 0.69355 0.42785 0.85667 0.0
H69 H 0.5087 0.5395 0.85632 0.0
H70 H 0.68043 0.53029 0.95265 0.0
H71 H 0.53498 0.54411 0.97334 0.0
C72 C 0.50776 0.56416 0.94427 0.0
O73 O 0.55675 0.58172 0.922 0.0
H74 H 0.47277 0.52688 0.93142 0.0
C75 C 0.66396 0.45823 0.8706 0.0
C76 C 0.69462 0.47596 0.90673 0.0
C77 C 0.59647 0.47984 0.85214 0.0
C78 C 0.56036 0.52119 0.87011 0.0
C79 C 0.59061 0.53926 0.90619 0.0
C80 C 0.65727 0.51593 0.92482 0.0
H81 H 0.66492 0.58665 0.15767 0.0
H82 H 0.50298 0.45445 0.11883 0.0
H83 H 0.57215 0.59248 0.03794 0.0
H84 H 0.40965 0.55527 0.00856 0.0
C85 C 0.41598 0.52732 0.03713 0.0
O86 O 0.48318 0.50177 0.04707 0.0
H87 H 0.406 0.56075 0.05766 0.0
C88 C 0.62957 0.56669 0.13473 0.0
C89 C 0.62549 0.59445 0.09684 0.0
C90 C 0.58532 0.51638 0.14338 0.0
C91 C 0.53736 0.49346 0.1132 0.0
C92 C 0.53205 0.52176 0.07549 0.0
C93 C 0.57635 0.57161 0.06732 0.0
H94 H 0.1547 0.20546 0.97482 0.0
H95 H 0.36796 0.46453 0.09767 0.0
H96 H 0.22338 0.17971 0.09768 0.0
H97 H 0.34868 0.46898 0.97528 0.0
H98 H 0.29221 0.37121 0.09741 0.0
H99 H 0.20126 0.31395 0.97391 0.0
C100 C 0.17788 0.22325 0.00166 0.0
C101 C 0.18548 0.18372 0.03637 0.0
C102 C 0.3038 0.39299 0.07052 0.0
C103 C 0.23966 0.30669 0.03551 0.0
C104 C 0.34685 0.44614 0.0707 0.0
C105 C 0.36399 0.47428 0.03645 0.0
C106 C 0.27805 0.36761 0.03582 0.0
C107 C 0.33607 0.44861 0.00223 0.0
C108 C 0.20509 0.2848 0.00109 0.0
C109 C 0.21706 0.20858 0.07027 0.0
N110 N 0.29456 0.39646 0.00276 0.0
N111 N 0.24338 0.26828 0.06897 0.0
H112 H 0.17395 0.8314 0.95099 0.0
H113 H 0.55419 0.67036 0.97795 0.0
H114 H 0.36588 0.91401 0.00593 0.0
H115 H 0.36659 0.58922 0.91725 0.0
H116 H 0.48596 0.76402 0.9843 0.0
H117 H 0.24324 0.74779 0.93229 0.0
C118 C 0.23066 0.83298 0.95815 0.0
C119 C 0.26427 0.87968 0.97997 0.0
C120 C 0.45952 0.72598 0.96941 0.0
C121 C 0.34362 0.78338 0.95987 0.0
C122 C 0.49847 0.67251 0.966 0.0
C123 C 0.46568 0.62203 0.94749 0.0
C124 C 0.38706 0.72902 0.95419 0.0
C125 C 0.39358 0.62715 0.93198 0.0
C126 C 0.27018 0.78483 0.94791 0.0
C127 C 0.33785 0.87861 0.98932 0.0
N128 N 0.35648 0.67959 0.93589 0.0
N129 N 0.37492 0.83096 0.97954 0.0
H130 H 0.78502 0.94602 0.00298 0.0
H131 H 0.76591 0.60778 0.12453 0.0
H132 H 0.96838 0.83703 0.06184 0.0
H133 H 0.58773 0.70521 0.05049 0.0
H134 H 0.83975 0.69798 0.10975 0.0
H135 H 0.7109 0.8656 0.02891 0.0
C136 C 0.80971 0.90565 0.02196 0.0
C137 C 0.88295 0.89823 0.03039 0.0
C138 C 0.78446 0.69966 0.09685 0.0
C139 C 0.79845 0.80545 0.05967 0.0
C140 C 0.74231 0.64833 0.10533 0.0
C141 C 0.67076 0.64886 0.08844 0.0
C142 C 0.75472 0.752 0.07147 0.0
C143 C 0.6429 0.70237 0.06359 0.0
C144 C 0.76737 0.85963 0.03663 0.0
C145 C 0.91222 0.84513 0.05514 0.0
N146 N 0.68497 0.75172 0.05582 0.0
N147 N 0.8698 0.80034 0.06866 0.0
H148 H 0.99868 0.21913 0.89864 0.0
H149 H 0.81517 0.49347 0.87916 0.0
H150 H 0.99307 0.19922 0.01915 0.0
H151 H 0.73369 0.39976 0.97428 0.0
H152 H 0.92223 0.42837 0.89912 0.0
H153 H 0.94521 0.3244 0.89198 0.0
C154 C 0.9887 0.23838 0.92402 0.0
C155 C 1.00007 0.20092 0.95941 0.0
C156 C 0.88138 0.42239 0.91592 0.0
C157 C 0.93712 0.32094 0.95215 0.0
C158 C 0.82074 0.46001 0.90479 0.0
C159 C 0.7654 0.45085 0.92476 0.0
C160 C 0.88567 0.37416 0.94661 0.0
C161 C 0.77516 0.40764 0.958 0.0
C162 C 0.95823 0.29871 0.92033 0.0
C163 C 0.98528 0.2272 0.99141 0.0
N164 N 0.83363 0.36975 0.96746 0.0
N165 N 0.95239 0.28499 0.98681 0.0
H166 H 0.67825 0.69296 0.59343 0.0
H167 H 0.87445 0.96965 0.48887 0.0
H168 H 0.65735 0.72285 0.47067 0.0
H169 H 0.87678 0.94565 0.61033 0.0
H170 H 0.7825 0.88911 0.47985 0.0
H171 H 0.73456 0.79614 0.59856 0.0
C172 C 0.68372 0.72246 0.56744 0.0
C173 C 0.66313 0.69988 0.53161 0.0
C174 C 0.80217 0.90223 0.50839 0.0
C175 C 0.73049 0.81673 0.53718 0.0
C176 C 0.85459 0.94807 0.5135 0.0
C177 C 0.88248 0.96444 0.55035 0.0
C178 C 0.77839 0.872 0.54047 0.0
C179 C 0.85601 0.93461 0.58145 0.0
C180 C 0.71643 0.78112 0.57034 0.0
C181 C 0.67204 0.73919 0.49878 0.0
N182 N 0.80581 0.88961 0.57584 0.0
N183 N 0.70644 0.79536 0.50237 0.0
H184 H 0.63321 0.35768 0.43399 0.0
H185 H 0.99757 0.1716 0.45914 0.0
H186 H 0.83473 0.4329 0.48106 0.0
H187 H 0.80311 0.10117 0.39892 0.0
H188 H 0.93816 0.27155 0.46292 0.0
H189 H 0.6934 0.26909 0.4139 0.0
C190 C 0.69003 0.3566 0.43904 0.0
C191 C 0.72915 0.40207 0.45967 0.0
C192 C 0.90829 0.23453 0.44866 0.0
C193 C 0.79802 0.30061 0.43777 0.0
C194 C 0.9422 0.17746 0.44674 0.0
C195 C 0.905 0.12831 0.42894 0.0
C196 C 0.83626 0.24236 0.433 0.0
C197 C 0.83342 0.13802 0.4131 0.0
C198 C 0.72437 0.30572 0.42796 0.0
C199 C 0.8026 0.39826 0.46572 0.0
N200 N 0.80113 0.19387 0.41573 0.0
N201 N 0.83456 0.34796 0.45535 0.0
H202 H 0.42715 0.38138 0.5859 0.0
H203 H 0.22215 0.05997 0.53844 0.0
H204 H 0.38338 0.31395 0.4743 0.0
H205 H 0.23422 0.14077 0.64543 0.0
H206 H 0.29682 0.14508 0.51779 0.0
H207 H 0.37313 0.2851 0.61196 0.0
C208 C 0.40754 0.34581 0.56716 0.0
C209 C 0.40966 0.35554 0.52804 0.0
C210 C 0.28354 0.14393 0.54592 0.0
C211 C 0.34713 0.24624 0.55709 0.0
C212 C 0.24064 0.09548 0.55763 0.0
C213 C 0.22151 0.09337 0.59361 0.0
C214 C 0.3074 0.19082 0.57029 0.0
C215 C 0.24815 0.14011 0.61757 0.0
C216 C 0.3761 0.2912 0.58185 0.0
C217 C 0.38205 0.30858 0.50463 0.0
N218 N 0.28935 0.18714 0.60539 0.0
N219 N 0.35178 0.25619 0.51946 0.0
H220 H 0.51453 0.74284 0.4581 0.0
H221 H 0.25956 0.96262 0.37607 0.0
H222 H 0.35569 0.67192 0.52035 0.0
H223 H 0.16599 0.91915 0.47564 0.0
H224 H 0.36164 0.89786 0.40761 0.0
H225 H 0.45614 0.84781 0.4464 0.0
C226 C 0.46859 0.75003 0.47024 0.0
C227 C 0.43877 0.69876 0.48945 0.0
C228 C 0.32038 0.90412 0.42338 0.0
C229 C 0.37027 0.81698 0.47504 0.0
C230 C 0.26156 0.94069 0.40511 0.0
C231 C 0.20375 0.94505 0.42301 0.0
C232 C 0.32101 0.87101 0.45974 0.0
C233 C 0.20924 0.91654 0.46073 0.0
C234 C 0.43448 0.80955 0.46302 0.0
C235 C 0.37936 0.71021 0.50471 0.0
N236 N 0.26605 0.87936 0.47747 0.0
N237 N 0.34646 0.76778 0.49669 0.0
H238 H 0.96106 0.98311 0.09938 0.0
H239 H 0.05497 0.85098 0.32043 0.0
H240 H 0.11888 0.83953 0.1481 0.0
H241 H 0.97576 0.0406 0.27721 0.0
H242 H 0.03648 0.82327 0.25461 0.0
H243 H 0.92358 0.97827 0.16137 0.0
C244 C 0.9858 0.94866 0.12266 0.0
C245 C 0.04386 0.9124 0.11906 0.0
C246 C 1.02175 0.87047 0.25972 0.0
C247 C 1.00183 0.907 0.18955 0.0
C248 C 0.03283 0.88658 0.2972 0.0
C249 C 1.01901 0.9489 0.30436 0.0
C250 C 0.99613 0.91677 0.22916 0.0
C251 C 0.98783 0.99219 0.27318 0.0
C252 C 0.96483 0.94636 0.15804 0.0
C253 C 0.07449 0.86885 0.15005 0.0
N254 N 0.97853 0.97562 0.23685 0.0
N255 N 0.05383 0.86804 0.18426 0.0
H256 H 0.19479 0.97454 0.902 0.0
H257 H 0.08551 0.86584 0.69166 0.0
H258 H 1.00986 0.86539 0.86608 0.0
H259 H 0.19291 0.04026 0.7185 0.0
H260 H 0.08793 0.83766 0.76019 0.0
H261 H 0.22799 0.96665 0.83979 0.0
C262 C 0.1627 0.94681 0.88161 0.0
C263 C 0.09904 0.92138 0.88874 0.0
C264 C 0.11212 0.88141 0.75084 0.0
C265 C 0.13604 0.91276 0.81789 0.0
C266 C 0.11009 0.89804 0.7117 0.0
C267 C 0.13831 0.95605 0.69877 0.0
C268 C 0.14358 0.92249 0.77733 0.0
C269 C 0.17125 0.99465 0.72659 0.0
C270 C 0.18124 0.94286 0.84605 0.0
C271 C 0.05895 0.88631 0.86131 0.0
N272 N 0.17258 0.97733 0.76439 0.0
N273 N 0.07755 0.88378 0.82678 0.0
H274 H 0.63616 0.35209 0.64555 0.0
H275 H 0.5205 0.55452 0.79044 0.0
H276 H 0.47757 0.49918 0.60949 0.0
H277 H 0.60466 0.36404 0.82491 0.0
H278 H 0.49159 0.52946 0.72423 0.0
H279 H 0.61366 0.34707 0.71079 0.0
C280 C 0.59487 0.38172 0.65122 0.0
C281 C 0.55866 0.42608 0.62237 0.0
C282 C 0.51506 0.49269 0.7464 0.0
C283 C 0.5347 0.4228 0.69695 0.0
C284 C 0.53148 0.50695 0.78431 0.0
C285 C 0.56677 0.46187 0.81324 0.0
C286 C 0.53511 0.43335 0.73728 0.0
C287 C 0.57976 0.40106 0.80336 0.0
C288 C 0.58215 0.37911 0.68844 0.0
C289 C 0.5063 0.46411 0.63107 0.0
N290 N 0.56535 0.38903 0.76612 0.0
N291 N 0.49704 0.46278 0.66787 0.0
H292 H 0.43935 0.44633 0.35381 0.0
H293 H 0.69684 0.49987 0.20483 0.0
H294 H 0.65613 0.49744 0.38754 0.0
H295 H 0.47188 0.47956 0.17529 0.0
H296 H 0.69037 0.47698 0.27273 0.0
H297 H 0.45925 0.43309 0.29004 0.0
C298 C 0.49156 0.45408 0.34777 0.0
C299 C 0.54592 0.47412 0.3756 0.0
C300 C 0.64274 0.47663 0.25124 0.0
C301 C 0.5689 0.46036 0.30224 0.0
C302 C 0.6462 0.49006 0.21247 0.0
C303 C 0.58464 0.49266 0.18409 0.0
C304 C 0.57735 0.46531 0.26167 0.0
C305 C 0.52091 0.47779 0.19579 0.0
C306 C 0.5029 0.44658 0.31133 0.0
C307 C 0.61282 0.48236 0.36664 0.0
N308 N 0.51897 0.4654 0.23358 0.0
N309 N 0.62226 0.4766 0.33032 0.0
loop_
_geom_bond_atom_site_label_1
_geom_bond_atom_site_label_2
_geom_bond_distance
_geom_bond_site_symmetry_2
_ccdc_geom_bond_type
Zn0 O6 1.920 1_545 S
Zn0 O12 1.898 . S
Zn0 O15 1.905 1_545 S
Zn1 O9 1.897 1_565 S
Zn1 O10 1.905 . S
Zn1 O18 1.922 . S
Zn2 O5 2.080 1_445 S
Zn2 O8 2.114 1_554 S
Zn2 O11 2.120 1_545 S
Zn2 O13 2.120 1_455 S
Zn2 O14 2.114 1_554 S
Zn2 O17 2.080 . S
C3 O8 1.166 1_554 S
C3 O9 1.182 . S
C4 O10 1.167 . S
C4 O11 1.299 . S
O5 Zn2 2.080 1_665 S
O5 C19 1.305 . S
O6 Zn0 1.920 1_565 S
O6 C19 1.234 1_556 S
C7 O12 1.167 . S
C7 O13 1.299 1_556 S
O8 Zn2 2.114 1_556 S
O8 C3 1.166 1_556 S
O9 Zn1 1.897 1_545 S
O9 C3 1.182 . S
O10 Zn1 1.905 . S
O10 C4 1.167 . S
O11 Zn2 2.120 1_565 S
O11 C4 1.299 . S
O12 Zn0 1.898 . S
O12 C7 1.167 . S
O13 Zn2 2.120 1_655 S
O13 C7 1.299 1_554 S
O14 Zn2 2.114 1_556 S
O14 C16 1.166 1_545 S
O15 Zn0 1.905 1_565 S
O15 C16 1.182 1_655 S
C16 O14 1.166 1_565 S
C16 O15 1.182 1_455 S
O17 Zn2 2.080 . S
O17 C20 1.305 1_545 S
O18 Zn1 1.922 . S
O18 C20 1.234 . S
C19 O5 1.305 . S
C19 O6 1.234 1_554 S
C20 O17 1.305 1_565 S
C20 O18 1.234 . S
Zn21 O27 1.920 . S
Zn21 O33 1.898 . S
Zn21 O36 1.905 . S
Zn22 O30 1.905 . S
Zn22 O31 1.898 . S
Zn22 O39 1.920 . S
Zn23 O26 2.080 . S
Zn23 O29 2.114 . S
Zn23 O32 2.120 . S
Zn23 O34 2.120 . S
Zn23 O35 2.114 . S
Zn23 O38 2.080 . S
C24 O29 1.166 . S
C24 O30 1.182 . S
C25 O31 1.167 . S
C25 O32 1.299 . S
O26 Zn23 2.080 . S
O26 C40 1.305 . S
O27 Zn21 1.920 . S
O27 C40 1.234 . S
C28 O33 1.167 . S
C28 O34 1.299 . S
O29 Zn23 2.114 . S
O29 C24 1.166 . S
O30 Zn22 1.905 . S
O30 C24 1.182 . S
O31 Zn22 1.898 . S
O31 C25 1.167 . S
O32 Zn23 2.120 . S
O32 C25 1.299 . S
O33 Zn21 1.898 . S
O33 C28 1.167 . S
O34 Zn23 2.120 . S
O34 C28 1.299 . S
O35 Zn23 2.114 . S
O35 C37 1.166 . S
O36 Zn21 1.905 . S
O36 C37 1.182 . S
C37 O35 1.166 . S
C37 O36 1.182 . S
O38 Zn23 2.080 . S
O38 C41 1.305 . S
O39 Zn22 1.920 . S
O39 C41 1.234 . S
C40 O26 1.305 . S
C40 O27 1.234 . S
C41 O38 1.305 . S
C41 O39 1.234 . S
H42 C49 0.929 . S
H43 C52 0.930 . S
H44 C54 0.929 . S
H45 C46 0.969 . S
C46 H45 0.969 . S
C46 O47 1.550 1_655 S
C46 H48 0.973 . S
O47 C46 1.550 1_455 S
O47 C53 1.412 . S
H48 C46 0.973 . S
C49 H42 0.929 . S
C49 C50 1.400 . S
C49 C51 1.364 1_565 S
C50 C49 1.400 . S
C50 C54 1.377 . S
C51 C49 1.364 1_545 S
C51 C52 1.374 . S
C52 H43 0.930 . S
C52 C51 1.374 . S
C52 C53 1.383 . S
C53 O47 1.412 . S
C53 C52 1.383 . S
C53 C54 1.394 1_545 S
C54 H44 0.929 . S
C54 C50 1.377 . S
C54 C53 1.394 1_565 S
H55 C62 0.929 . S
H56 C65 0.930 1_565 S
H57 C67 0.929 . S
H58 C59 0.969 . S
C59 H58 0.969 . S
C59 O60 1.550 . S
C59 H61 0.973 . S
O60 C59 1.550 . S
O60 C66 1.412 1_565 S
H61 C59 0.973 . S
C62 H55 0.929 . S
C62 C63 1.400 . S
C62 C64 1.364 . S
C63 C62 1.400 . S
C63 C67 1.377 . S
C64 C62 1.364 . S
C64 C65 1.374 1_455 S
C65 H56 0.930 1_545 S
C65 C64 1.374 1_655 S
C65 C66 1.383 . S
C66 O60 1.412 1_545 S
C66 C65 1.383 . S
C66 C67 1.394 1_655 S
C67 H57 0.929 . S
C67 C63 1.377 . S
C67 C66 1.394 1_455 S
H68 C75 0.929 . S
H69 C78 0.930 . S
H70 C80 0.929 . S
H71 C72 0.969 . S
C72 H71 0.969 . S
C72 O73 1.550 . S
C72 H74 0.973 . S
O73 C72 1.550 . S
O73 C79 1.412 . S
H74 C72 0.973 . S
C75 H68 0.929 . S
C75 C76 1.400 . S
C75 C77 1.364 . S
C76 C75 1.400 . S
C76 C80 1.377 . S
C77 C75 1.364 . S
C77 C78 1.374 . S
C78 H69 0.930 . S
C78 C77 1.374 . S
C78 C79 1.383 . S
C79 O73 1.412 . S
C79 C78 1.383 . S
C79 C80 1.394 . S
C80 H70 0.929 . S
C80 C76 1.377 . S
C80 C79 1.394 . S
H81 C88 0.929 . S
H82 C91 0.930 . S
H83 C93 0.929 . S
H84 C85 0.969 . S
C85 H84 0.969 . S
C85 O86 1.550 . S
C85 H87 0.973 . S
O86 C85 1.550 . S
O86 C92 1.412 . S
H87 C85 0.973 . S
C88 H81 0.929 . S
C88 C89 1.400 . S
C88 C90 1.364 . S
C89 C88 1.400 . S
C89 C93 1.377 . S
C90 C88 1.364 . S
C90 C91 1.374 . S
C91 H82 0.930 . S
C91 C90 1.374 . S
C91 C92 1.383 . S
C92 O86 1.412 . S
C92 C91 1.383 . S
C92 C93 1.394 . S
C93 H83 0.929 . S
C93 C89 1.377 . S
C93 C92 1.394 . S
H94 C100 0.930 . S
H95 C104 0.930 . S
H96 C109 0.929 . S
H97 C107 0.929 . S
H98 C102 0.929 . S
H99 C108 0.929 1_556 S
C100 H94 0.930 . S
C100 C101 1.367 1_556 S
C100 C108 1.378 1_556 S
C101 C100 1.367 1_554 S
C101 C109 1.433 . S
C102 H98 0.929 . S
C102 C104 1.378 . S
C102 C106 1.350 . S
C103 C106 1.463 . S
C103 C108 1.350 . S
C103 N111 1.427 . S
C104 H95 0.930 . S
C104 C102 1.378 . S
C104 C105 1.367 . S
C105 C104 1.367 . S
C105 C107 1.433 . S
C106 C102 1.350 . S
C106 C103 1.463 . S
C106 N110 1.427 . S
C107 H97 0.929 . S
C107 C105 1.433 . S
C107 N110 1.384 . S
C108 H99 0.929 1_554 S
C108 C100 1.378 1_554 S
C108 C103 1.350 . S
C109 H96 0.929 . S
C109 C101 1.433 . S
C109 N111 1.384 . S
N110 C106 1.427 . S
N110 C107 1.384 . S
N111 C103 1.427 . S
N111 C109 1.384 . S
H112 C118 0.930 . S
H113 C122 0.930 1_554 S
H114 C127 0.929 . S
H115 C125 0.929 . S
H116 C120 0.929 1_554 S
H117 C126 0.929 . S
C118 H112 0.930 . S
C118 C119 1.367 . S
C118 C126 1.378 . S
C119 C118 1.367 . S
C119 C127 1.433 1_556 S
C120 H116 0.929 1_556 S
C120 C122 1.378 . S
C120 C124 1.350 . S
C121 C124 1.463 . S
C121 C126 1.350 . S
C121 N129 1.427 1_556 S
C122 H113 0.930 1_556 S
C122 C120 1.378 . S
C122 C123 1.367 . S
C123 C122 1.367 . S
C123 C125 1.433 . S
C124 C120 1.350 . S
C124 C121 1.463 . S
C124 N128 1.427 . S
C125 H115 0.929 . S
C125 C123 1.433 . S
C125 N128 1.384 . S
C126 H117 0.929 . S
C126 C118 1.378 . S
C126 C121 1.350 . S
C127 H114 0.929 . S
C127 C119 1.433 1_554 S
C127 N129 1.384 . S
N128 C124 1.427 . S
N128 C125 1.384 . S
N129 C121 1.427 1_554 S
N129 C127 1.384 . S
H130 C136 0.930 . S
H131 C140 0.930 . S
H132 C145 0.929 . S
H133 C143 0.929 . S
H134 C138 0.929 . S
H135 C144 0.929 . S
C136 H130 0.930 . S
C136 C137 1.367 . S
C136 C144 1.378 . S
C137 C136 1.367 . S
C137 C145 1.433 . S
C138 H134 0.929 . S
C138 C140 1.378 . S
C138 C142 1.350 . S
C139 C142 1.463 . S
C139 C144 1.350 . S
C139 N147 1.427 . S
C140 H131 0.930 . S
C140 C138 1.378 . S
C140 C141 1.367 . S
C141 C140 1.367 . S
C141 C143 1.433 . S
C142 C138 1.350 . S
C142 C139 1.463 . S
C142 N146 1.427 . S
C143 H133 0.929 . S
C143 C141 1.433 . S
C143 N146 1.384 . S
C144 H135 0.929 . S
C144 C136 1.378 . S
C144 C139 1.350 . S
C145 H132 0.929 . S
C145 C137 1.433 . S
C145 N147 1.384 . S
N146 C142 1.427 . S
N146 C143 1.384 . S
N147 C139 1.427 . S
N147 C145 1.384 . S
H148 C154 0.930 . S
H149 C158 0.930 . S
H150 C163 0.929 . S
H151 C161 0.929 . S
H152 C156 0.929 1_554 S
H153 C162 0.929 . S
C154 H148 0.930 . S
C154 C155 1.367 . S
C154 C162 1.378 . S
C155 C154 1.367 . S
C155 C163 1.433 1_556 S
C156 H152 0.929 1_556 S
C156 C158 1.378 . S
C156 C160 1.350 . S
C157 C160 1.463 . S
C157 C162 1.350 . S
C157 N165 1.427 . S
C158 H149 0.930 . S
C158 C156 1.378 . S
C158 C159 1.367 . S
C159 C158 1.367 . S
C159 C161 1.433 . S
C160 C156 1.350 . S
C160 C157 1.463 . S
C160 N164 1.427 . S
C161 H151 0.929 . S
C161 C159 1.433 . S
C161 N164 1.384 . S
C162 H153 0.929 . S
C162 C154 1.378 . S
C162 C157 1.350 . S
C163 H150 0.929 . S
C163 C155 1.433 1_554 S
C163 N165 1.384 1_554 S
N164 C160 1.427 . S
N164 C161 1.384 . S
N165 C157 1.427 . S
N165 C163 1.384 1_556 S
H166 C172 0.930 . S
H167 C176 0.930 . S
H168 C181 0.929 . S
H169 C179 0.929 . S
H170 C174 0.929 . S
H171 C180 0.929 . S
C172 H166 0.930 . S
C172 C173 1.367 . S
C172 C180 1.378 . S
C173 C172 1.367 . S
C173 C181 1.433 . S
C174 H170 0.929 . S
C174 C176 1.378 . S
C174 C178 1.350 . S
C175 C178 1.463 . S
C175 C180 1.350 . S
C175 N183 1.427 . S
C176 H167 0.930 . S
C176 C174 1.378 . S
C176 C177 1.367 . S
C177 C176 1.367 . S
C177 C179 1.433 . S
C178 C174 1.350 . S
C178 C175 1.463 . S
C178 N182 1.427 . S
C179 H169 0.929 . S
C179 C177 1.433 . S
C179 N182 1.384 . S
C180 H171 0.929 . S
C180 C172 1.378 . S
C180 C175 1.350 . S
C181 H168 0.929 . S
C181 C173 1.433 . S
C181 N183 1.384 . S
N182 C178 1.427 . S
N182 C179 1.384 . S
N183 C175 1.427 . S
N183 C181 1.384 . S
H184 C190 0.930 . S
H185 C194 0.930 . S
H186 C199 0.929 . S
H187 C197 0.929 . S
H188 C192 0.929 . S
H189 C198 0.929 . S
C190 H184 0.930 . S
C190 C191 1.367 . S
C190 C198 1.378 . S
C191 C190 1.367 . S
C191 C199 1.433 . S
C192 H188 0.929 . S
C192 C194 1.378 . S
C192 C196 1.350 . S
C193 C196 1.463 . S
C193 C198 1.350 . S
C193 N201 1.427 . S
C194 H185 0.930 . S
C194 C192 1.378 . S
C194 C195 1.367 . S
C195 C194 1.367 . S
C195 C197 1.433 . S
C196 C192 1.350 . S
C196 C193 1.463 . S
C196 N200 1.427 . S
C197 H187 0.929 . S
C197 C195 1.433 . S
C197 N200 1.384 . S
C198 H189 0.929 . S
C198 C190 1.378 . S
C198 C193 1.350 . S
C199 H186 0.929 . S
C199 C191 1.433 . S
C199 N201 1.384 . S
N200 C196 1.427 . S
N200 C197 1.384 . S
N201 C193 1.427 . S
N201 C199 1.384 . S
H202 C208 0.930 . S
H203 C212 0.930 . S
H204 C217 0.929 . S
H205 C215 0.929 . S
H206 C210 0.929 . S
H207 C216 0.929 . S
C208 H202 0.930 . S
C208 C209 1.367 . S
C208 C216 1.378 . S
C209 C208 1.367 . S
C209 C217 1.433 . S
C210 H206 0.929 . S
C210 C212 1.378 . S
C210 C214 1.350 . S
C211 C214 1.463 . S
C211 C216 1.350 . S
C211 N219 1.427 . S
C212 H203 0.930 . S
C212 C210 1.378 . S
C212 C213 1.367 . S
C213 C212 1.367 . S
C213 C215 1.433 . S
C214 C210 1.350 . S
C214 C211 1.463 . S
C214 N218 1.427 . S
C215 H205 0.929 . S
C215 C213 1.433 . S
C215 N218 1.384 . S
C216 H207 0.929 . S
C216 C208 1.378 . S
C216 C211 1.350 . S
C217 H204 0.929 . S
C217 C209 1.433 . S
C217 N219 1.384 . S
N218 C214 1.427 . S
N218 C215 1.384 . S
N219 C211 1.427 . S
N219 C217 1.384 . S
H220 C226 0.930 . S
H221 C230 0.930 . S
H222 C235 0.929 . S
H223 C233 0.929 . S
H224 C228 0.929 . S
H225 C234 0.929 . S
C226 H220 0.930 . S
C226 C227 1.367 . S
C226 C234 1.378 . S
C227 C226 1.367 . S
C227 C235 1.433 . S
C228 H224 0.929 . S
C228 C230 1.378 . S
C228 C232 1.350 . S
C229 C232 1.463 . S
C229 C234 1.350 . S
C229 N237 1.427 . S
C230 H221 0.930 . S
C230 C228 1.378 . S
C230 C231 1.367 . S
C231 C230 1.367 . S
C231 C233 1.433 . S
C232 C228 1.350 . S
C232 C229 1.463 . S
C232 N236 1.427 . S
C233 H223 0.929 . S
C233 C231 1.433 . S
C233 N236 1.384 . S
C234 H225 0.929 . S
C234 C226 1.378 . S
C234 C229 1.350 . S
C235 H222 0.929 . S
C235 C227 1.433 . S
C235 N237 1.384 . S
N236 C232 1.427 . S
N236 C233 1.384 . S
N237 C229 1.427 . S
N237 C235 1.384 . S
H238 C244 0.930 . S
H239 C248 0.930 . S
H240 C253 0.929 . S
H241 C251 0.929 . S
H242 C246 0.929 . S
H243 C252 0.929 . S
C244 H238 0.930 . S
C244 C245 1.367 1_545 S
C244 C252 1.378 . S
C245 C244 1.367 1_565 S
C245 C253 1.433 . S
C246 H242 0.929 . S
C246 C248 1.378 . S
C246 C250 1.350 . S
C247 C250 1.463 . S
C247 C252 1.350 1_565 S
C247 N255 1.427 . S
C248 H239 0.930 . S
C248 C246 1.378 . S
C248 C249 1.367 1_565 S
C249 C248 1.367 1_545 S
C249 C251 1.433 . S
C250 C246 1.350 . S
C250 C247 1.463 . S
C250 N254 1.427 1_565 S
C251 H241 0.929 . S
C251 C249 1.433 . S
C251 N254 1.384 . S
C252 H243 0.929 . S
C252 C244 1.378 . S
C252 C247 1.350 1_545 S
C253 H240 0.929 . S
C253 C245 1.433 . S
C253 N255 1.384 . S
N254 C250 1.427 1_545 S
N254 C251 1.384 . S
N255 C247 1.427 . S
N255 C253 1.384 . S
H256 C262 0.930 . S
H257 C266 0.930 . S
H258 C271 0.929 1_655 S
H259 C269 0.929 . S
H260 C264 0.930 . S
H261 C270 0.929 . S
C262 H256 0.930 . S
C262 C263 1.367 1_545 S
C262 C270 1.378 . S
C263 C262 1.367 1_565 S
C263 C271 1.433 . S
C264 H260 0.930 . S
C264 C266 1.378 . S
C264 C268 1.349 1_665 S
C265 C268 1.463 . S
C265 C270 1.350 . S
C265 N273 1.427 1_545 S
C266 H257 0.930 . S
C266 C264 1.378 . S
C266 C267 1.367 1_665 S
C267 C266 1.367 1_445 S
C267 C269 1.433 . S
C268 C264 1.349 1_445 S
C268 C265 1.463 . S
C268 N272 1.427 . S
C269 H259 0.929 . S
C269 C267 1.433 . S
C269 N272 1.384 . S
C270 H261 0.929 . S
C270 C262 1.378 . S
C270 C265 1.350 . S
C271 H258 0.929 1_455 S
C271 C263 1.433 . S
C271 N273 1.384 . S
N272 C268 1.427 . S
N272 C269 1.384 . S
N273 C265 1.427 1_565 S
N273 C271 1.384 . S
H274 C280 0.930 . S
H275 C284 0.930 . S
H276 C289 0.929 . S
H277 C287 0.929 . S
H278 C282 0.929 . S
H279 C288 0.929 . S
C280 H274 0.930 . S
C280 C281 1.367 . S
C280 C288 1.378 . S
C281 C280 1.367 . S
C281 C289 1.433 . S
C282 H278 0.929 . S
C282 C284 1.378 . S
C282 C286 1.350 . S
C283 C286 1.463 . S
C283 C288 1.350 . S
C283 N291 1.427 . S
C284 H275 0.930 . S
C284 C282 1.378 . S
C284 C285 1.367 . S
C285 C284 1.367 . S
C285 C287 1.433 . S
C286 C282 1.350 . S
C286 C283 1.463 . S
C286 N290 1.427 . S
C287 H277 0.929 . S
C287 C285 1.433 . S
C287 N290 1.384 . S
C288 H279 0.929 . S
C288 C280 1.378 . S
C288 C283 1.350 . S
C289 H276 0.929 . S
C289 C281 1.433 . S
C289 N291 1.384 . S
N290 C286 1.427 . S
N290 C287 1.384 . S
N291 C283 1.427 . S
N291 C289 1.384 . S
H292 C298 0.930 . S
H293 C302 0.930 . S
H294 C307 0.929 . S
H295 C305 0.929 . S
H296 C300 0.929 . S
H297 C306 0.929 . S
C298 H292 0.930 . S
C298 C299 1.367 . S
C298 C306 1.378 . S
C299 C298 1.367 . S
C299 C307 1.433 . S
C300 H296 0.929 . S
C300 C302 1.378 . S
C300 C304 1.350 . S
C301 C304 1.463 . S
C301 C306 1.350 . S
C301 N309 1.427 . S
C302 H293 0.930 . S
C302 C300 1.378 . S
C302 C303 1.367 . S
C303 C302 1.367 . S
C303 C305 1.433 . S
C304 C300 1.350 . S
C304 C301 1.463 . S
C304 N308 1.427 . S
C305 H295 0.929 . S
C305 C303 1.433 . S
C305 N308 1.384 . S
C306 H297 0.929 . S
C306 C298 1.378 . S
C306 C301 1.350 . S
C307 H294 0.929 . S
C307 C299 1.433 . S
C307 N309 1.384 . S
N308 C304 1.427 . S
N308 C305 1.384 . S
N309 C301 1.427 . S
N309 C307 1.384 . S
C105 C85 1.179 . S
C101 C3 1.150 . S
C119 C4 1.461 1_556 S
C123 C72 1.451 . S
C137 C19 1.540 . S
C141 C89 1.668 . S
C155 C7 1.180 . S
C159 C76 1.342 . S
C173 C37 1.147 . S
C177 C59 1.186 . S
C191 C28 1.448 . S
C195 C46 1.436 . S
C213 C63 1.669 . S
C209 C41 1.545 . S
C231 C50 1.342 . S
C227 C25 1.180 . S
C245 C20 1.343 . S
C249 C51 1.505 . S
C263 C16 1.380 . S
C267 C64 1.532 . S
C285 C77 1.513 . S
C281 C40 1.343 . S
C299 C24 1.375 . S
C303 C90 1.531 . S
