# Generated by pormake.
# Topology pyr, (3,6)-cn, num edge types: 1
# Building blocks:
#     Node 0, Type 0, BuildingBlock: BETDIP_clean_linker_0, # of connection points: 3
#     Node 1, Type 0, BuildingBlock: BETDIP_clean_linker_0, # of connection points: 3
#     Node 2, Type 0, BuildingBlock: BETDIP_clean_linker_0, # of connection points: 3
#     Node 3, Type 0, BuildingBlock: BETDIP_clean_linker_0, # of connection points: 3
#     Node 4, Type 0, BuildingBlock: BETDIP_clean_linker_0, # of connection points: 3
#     Node 5, Type 0, BuildingBlock: BETDIP_clean_linker_0, # of connection points: 3
#     Node 6, Type 0, BuildingBlock: BETDIP_clean_linker_0, # of connection points: 3
#     Node 7, Type 0, BuildingBlock: BETDIP_clean_linker_0, # of connection points: 3
#     Node 8, Type 1, BuildingBlock: BETDEL_clean_sbu_0, # of connection points: 6
#     Node 9, Type 1, BuildingBlock: BETDEL_clean_sbu_0, # of connection points: 6
#     Node 10, Type 1, BuildingBlock: BETDEL_clean_sbu_0, # of connection points: 6
#     Node 11, Type 1, BuildingBlock: BETDEL_clean_sbu_0, # of connection points: 6
#     Edge 12, Type (0, 1), BuildingBlock: CIFDUS_clean_linker_0, # of connection points: 2
#     Edge 13, Type (0, 1), BuildingBlock: CIFDUS_clean_linker_0, # of connection points: 2
#     Edge 14, Type (0, 1), BuildingBlock: CIFDUS_clean_linker_0, # of connection points: 2
#     Edge 15, Type (0, 1), BuildingBlock: CIFDUS_clean_linker_0, # of connection points: 2
#     Edge 16, Type (0, 1), BuildingBlock: CIFDUS_clean_linker_0, # of connection points: 2
#     Edge 17, Type (0, 1), BuildingBlock: CIFDUS_clean_linker_0, # of connection points: 2
#     Edge 18, Type (0, 1), BuildingBlock: CIFDUS_clean_linker_0, # of connection points: 2
#     Edge 19, Type (0, 1), BuildingBlock: CIFDUS_clean_linker_0, # of connection points: 2
#     Edge 20, Type (0, 1), BuildingBlock: CIFDUS_clean_linker_0, # of connection points: 2
#     Edge 21, Type (0, 1), BuildingBlock: CIFDUS_clean_linker_0, # of connection points: 2
#     Edge 22, Type (0, 1), BuildingBlock: CIFDUS_clean_linker_0, # of connection points: 2
#     Edge 23, Type (0, 1), BuildingBlock: CIFDUS_clean_linker_0, # of connection points: 2
#     Edge 24, Type (0, 1), BuildingBlock: CIFDUS_clean_linker_0, # of connection points: 2
#     Edge 25, Type (0, 1), BuildingBlock: CIFDUS_clean_linker_0, # of connection points: 2
#     Edge 26, Type (0, 1), BuildingBlock: CIFDUS_clean_linker_0, # of connection points: 2
#     Edge 27, Type (0, 1), BuildingBlock: CIFDUS_clean_linker_0, # of connection points: 2
#     Edge 28, Type (0, 1), BuildingBlock: CIFDUS_clean_linker_0, # of connection points: 2
#     Edge 29, Type (0, 1), BuildingBlock: CIFDUS_clean_linker_0, # of connection points: 2
#     Edge 30, Type (0, 1), BuildingBlock: CIFDUS_clean_linker_0, # of connection points: 2
#     Edge 31, Type (0, 1), BuildingBlock: CIFDUS_clean_linker_0, # of connection points: 2
#     Edge 32, Type (0, 1), BuildingBlock: CIFDUS_clean_linker_0, # of connection points: 2
#     Edge 33, Type (0, 1), BuildingBlock: CIFDUS_clean_linker_0, # of connection points: 2
#     Edge 34, Type (0, 1), BuildingBlock: CIFDUS_clean_linker_0, # of connection points: 2
#     Edge 35, Type (0, 1), BuildingBlock: CIFDUS_clean_linker_0, # of connection points: 2
# Relax obj value: 0.066
# Max RMSD: 0.178
# Mean RMSD: 0.129
data_MOF--net-pyr--node1-BETDEL_clean_sbu_0--node2-BETDIP_clean_linker_0--edge1-CIFDUS_clean_linker_0
_symmetry_space_group_name_H-M    P1
_symmetry_Int_Tables_number       1
_symmetry_cell_setting            triclinic
loop_
_symmetry_equiv_pos_as_xyz
'x, y, z'
_cell_length_a     31.736931
_cell_length_b     32.235527
_cell_length_c     31.698379
_cell_angle_alpha  91.518853
_cell_angle_beta   86.320095
_cell_angle_gamma 101.05337
loop_
_atom_site_label
_atom_site_type_symbol
_atom_site_fract_x
_atom_site_fract_y
_atom_site_fract_z
_atom_type_partial_charge
H0 H 0.14921 0.19169 0.1695 0.0
H1 H 0.24799 0.18779 0.07112 0.0
H2 H 0.21387 0.086 0.1595 0.0
H3 H 0.18391 0.26337 0.1658 0.0
C4 C 0.18238 0.26604 0.13183 0.0
C5 C 0.17263 0.17549 0.15335 0.0
C6 C 0.17815 0.13649 0.1683 0.0
C7 C 0.19819 0.1942 0.11855 0.0
C8 C 0.22817 0.1731 0.09783 0.0
C9 C 0.23399 0.13411 0.11256 0.0
C10 C 0.2087 0.11573 0.14754 0.0
N11 N 0.19469 0.23454 0.1043 0.0
H12 H 0.25872 0.85322 0.7351 0.0
H13 H 0.26282 0.76473 0.63159 0.0
H14 H 0.34554 0.76565 0.73335 0.0
H15 H 0.20193 0.78112 0.61613 0.0
C16 C 0.2006 0.8127 0.62813 0.0
C17 C 0.27183 0.82743 0.7202 0.0
C18 C 0.30442 0.8117 0.73911 0.0
C19 C 0.25585 0.81043 0.68189 0.0
C20 C 0.27304 0.77704 0.66206 0.0
C21 C 0.30532 0.76053 0.68064 0.0
C22 C 0.32038 0.77793 0.71922 0.0
N23 N 0.22432 0.8293 0.66343 0.0
H24 H 0.73419 0.41434 0.83676 0.0
H25 H 0.63808 0.30138 0.83325 0.0
H26 H 0.72274 0.3238 0.9362 0.0
H27 H 0.60154 0.35275 0.8033 0.0
C28 C 0.62735 0.36719 0.78108 0.0
C29 C 0.71845 0.38483 0.85119 0.0
C30 C 0.73277 0.37218 0.88903 0.0
C31 C 0.68367 0.36016 0.83169 0.0
C32 C 0.66365 0.32125 0.84952 0.0
C33 C 0.67785 0.30715 0.88706 0.0
C34 C 0.71236 0.33323 0.90663 0.0
N35 N 0.67052 0.37486 0.79351 0.0
H36 H 0.80154 0.60515 0.37074 0.0
H37 H 0.88379 0.72592 0.35216 0.0
H38 H 0.81286 0.69831 0.4712 0.0
H39 H 0.87455 0.71176 0.28446 0.0
C40 C 0.8704 0.67769 0.2808 0.0
C41 C 0.81521 0.63612 0.38312 0.0
C42 C 0.80274 0.64861 0.42412 0.0
C43 C 0.84354 0.66403 0.35675 0.0
C44 C 0.8618 0.7042 0.37233 0.0
C45 C 0.85136 0.71668 0.41394 0.0
C46 C 0.82196 0.68852 0.43957 0.0
N47 N 0.85249 0.65061 0.31467 0.0
H48 H 0.72585 0.79167 0.88777 0.0
H49 H 0.84019 0.8045 0.80519 0.0
H50 H 0.78306 0.91283 0.83546 0.0
H51 H 0.81611 0.72791 0.79792 0.0
C52 C 0.81297 0.72794 0.83227 0.0
C53 C 0.75069 0.81127 0.86814 0.0
C54 C 0.75062 0.85451 0.86418 0.0
C55 C 0.78288 0.79305 0.84723 0.0
C56 C 0.81545 0.81838 0.82207 0.0
C57 C 0.81569 0.86158 0.81758 0.0
C58 C 0.78334 0.87953 0.83906 0.0
N59 N 0.78253 0.74953 0.85315 0.0
H60 H 0.77388 0.17301 0.2971 0.0
H61 H 0.76859 0.26216 0.39942 0.0
H62 H 0.6771 0.25001 0.30362 0.0
H63 H 0.83217 0.25085 0.41232 0.0
C64 C 0.83517 0.21965 0.40035 0.0
C65 C 0.75942 0.19784 0.31224 0.0
C66 C 0.72395 0.20999 0.29507 0.0
C67 C 0.77596 0.21646 0.34962 0.0
C68 C 0.75636 0.24777 0.37046 0.0
C69 C 0.7203 0.26022 0.35433 0.0
C70 C 0.70481 0.24116 0.31641 0.0
N71 N 0.8107 0.20106 0.36626 0.0
H72 H 0.31094 0.63918 0.20275 0.0
H73 H 0.42801 0.73066 0.19821 0.0
H74 H 0.3205 0.75336 0.13183 0.0
H75 H 0.45526 0.67151 0.21613 0.0
C76 C 0.43061 0.65641 0.23914 0.0
C77 C 0.32886 0.66931 0.19157 0.0
C78 C 0.31005 0.6943 0.16518 0.0
C79 C 0.37103 0.68206 0.20371 0.0
C80 C 0.39547 0.7205 0.18869 0.0
C81 C 0.37764 0.7465 0.16232 0.0
C82 C 0.33492 0.73294 0.1507 0.0
N83 N 0.38657 0.65657 0.23308 0.0
H84 H 0.11093 0.31586 0.71804 0.0
H85 H 0.21892 0.41893 0.71288 0.0
H86 H 0.21269 0.31608 0.62242 0.0
H87 H 0.19563 0.42197 0.7863 0.0
C88 C 0.16155 0.41894 0.78161 0.0
C89 C 0.14196 0.33039 0.70359 0.0
C90 C 0.16031 0.31064 0.66924 0.0
C91 C 0.16293 0.36917 0.71938 0.0
C92 C 0.20288 0.38883 0.70055 0.0
C93 C 0.22138 0.37004 0.66514 0.0
C94 C 0.1995 0.33094 0.64986 0.0
N95 N 0.14135 0.38873 0.75241 0.0
Dy96 Dy 0.05042 0.02755 0.47256 0.0
C97 C 0.94809 0.98677 0.62438 0.0
C98 C 0.09204 0.0557 0.39816 0.0
Dy99 Dy 0.99663 0.01356 0.55273 0.0
O100 O 0.11056 0.04532 0.43055 0.0
O101 O 0.05087 0.05107 0.40652 0.0
O102 O 0.07871 0.97076 0.4833 0.0
O103 O 0.06299 1.00751 0.53572 0.0
C104 C 0.07626 0.97413 0.52421 0.0
C105 C 0.97165 0.06708 0.5005 0.0
O106 O 0.04478 0.06806 0.57431 0.0
O107 O 0.06871 0.08958 0.5065 0.0
O108 O 0.93493 1.00418 0.59266 0.0
O109 O 0.98816 0.98374 0.61715 0.0
O110 O 0.97089 0.07178 0.54126 0.0
O111 O 0.984 0.03311 0.48957 0.0
O112 O 0.00587 0.97061 0.45137 0.0
O113 O 0.9766 0.95166 0.51858 0.0
C114 C 0.06642 0.09661 0.54783 0.0
C115 C 0.98204 0.94347 0.47767 0.0
Dy116 Dy 0.54627 0.046 0.04596 0.0
C117 C 0.43272 0.95719 0.91482 0.0
C118 C 0.588 0.09938 0.10453 0.0
Dy119 Dy 0.4898 1.00272 0.96719 0.0
O120 O 0.60728 0.08052 0.07423 0.0
O121 O 0.54666 0.08976 0.10174 0.0
O122 O 0.5249 0.99067 0.09042 0.0
O123 O 0.50043 0.9894 0.03195 0.0
C124 C 0.49859 0.96837 0.06503 0.0
C125 C 0.53673 0.08097 0.94896 0.0
O126 O 0.4428 0.0249 0.01315 0.0
O127 O 0.49085 0.07937 0.04355 0.0
O128 O 0.4348 0.99666 0.92535 0.0
O129 O 0.46182 0.94189 0.9334 0.0
O130 O 0.5114 0.05832 0.923 0.0
O131 O 0.53543 0.05952 0.98163 0.0
O132 O 0.59477 0.01881 1.00485 0.0
O133 O 0.54911 0.97508 0.95904 0.0
C134 C 0.45125 0.06085 0.03492 0.0
C135 C 0.5872 0.98868 0.97509 0.0
Dy136 Dy 0.51725 0.46633 0.48837 0.0
C137 C 0.4447 0.59256 0.58823 0.0
C138 C 0.56952 0.41909 0.44533 0.0
Dy139 Dy 0.48575 0.53526 0.54566 0.0
O140 O 0.53316 0.4256 0.43282 0.0
O141 O 0.57729 0.43828 0.4813 0.0
O142 O 0.45084 0.42706 0.48628 0.0
O143 O 0.4665 0.46703 0.53798 0.0
C144 C 0.43585 0.44436 0.52011 0.0
C145 C 0.56736 0.55249 0.51343 0.0
O146 O 0.49916 0.49222 0.59528 0.0
O147 O 0.54439 0.45832 0.55194 0.0
O148 O 0.48563 0.5926 0.58749 0.0
O149 O 0.42576 0.56054 0.56625 0.0
O150 O 0.55568 0.56669 0.55012 0.0
O151 O 0.5351 0.53374 0.49547 0.0
O152 O 0.50043 0.50935 0.4394 0.0
O153 O 0.45689 0.54376 0.48399 0.0
C154 C 0.52863 0.46796 0.59019 0.0
C155 C 0.4711 0.53376 0.44546 0.0
Dy156 Dy 0.02474 0.51333 0.05475 0.0
C157 C 0.9679 0.65432 0.98731 0.0
C158 C 0.06379 0.45299 0.08362 0.0
Dy159 Dy 1.00059 0.58715 0.01105 0.0
O160 O 0.04883 0.48095 0.10729 0.0
O161 O 0.05712 0.45771 0.04416 0.0
O162 O 0.96294 0.50496 0.09451 0.0
O163 O 0.99386 0.56574 0.07599 0.0
C164 C 0.96074 0.54478 0.09486 0.0
C165 C 0.04136 0.53748 0.96102 0.0
O166 O 0.06068 0.62241 0.03952 0.0
O167 O 0.07896 0.5649 0.07239 0.0
O168 O 1.00196 0.6427 0.96961 0.0
O169 O 0.95287 0.63018 0.01912 0.0
O170 O 0.01152 0.55574 0.94824 0.0
O171 O 0.04932 0.54861 0.99838 0.0
O172 O 0.97583 0.47909 0.01178 0.0
O173 O 0.94236 0.53577 1.00381 0.0
C174 C 0.0863 0.60558 0.06285 0.0
C175 C 0.94289 0.49481 0.99996 0.0
H176 H 0.2123 0.10942 0.23576 0.0
H177 H 0.09221 0.12709 0.18949 0.0
H178 H 0.05466 0.1034 0.25702 0.0
H179 H 0.05658 0.07896 0.32952 0.0
H180 H 0.1771 0.06256 0.3759 0.0
H181 H 0.21412 0.08436 0.30777 0.0
C182 C 0.1778 0.10744 0.24032 0.0
C183 C 0.15487 0.11958 0.20783 0.0
C184 C 0.15671 0.09434 0.27919 0.0
C185 C 0.11038 0.11786 0.21426 0.0
C186 C 0.08899 0.10436 0.25275 0.0
C187 C 0.09094 0.08019 0.3246 0.0
C188 C 0.11423 0.06932 0.35742 0.0
C189 C 0.11192 0.09283 0.28551 0.0
C190 C 0.15866 0.07095 0.35094 0.0
C191 C 0.17977 0.08331 0.31206 0.0
H192 H 0.32056 0.89559 0.76064 0.0
H193 H 0.33297 0.77342 0.80552 0.0
H194 H 0.37405 0.80728 0.86366 0.0
H195 H 0.40986 0.87222 0.90002 0.0
H196 H 0.39195 0.99342 0.85786 0.0
H197 H 0.34897 0.95925 0.80112 0.0
C198 C 0.33125 0.87613 0.78359 0.0
C199 C 0.32412 0.83193 0.77798 0.0
C200 C 0.35418 0.89571 0.81752 0.0
C201 C 0.33888 0.80757 0.80813 0.0
C202 C 0.36224 0.82689 0.84165 0.0
C203 C 0.39626 0.89096 0.8785 0.0
C204 C 0.40437 0.93521 0.88278 0.0
C205 C 0.37082 0.87102 0.84622 0.0
C206 C 0.3862 0.95925 0.85511 0.0
C207 C 0.36166 0.93976 0.82259 0.0
H208 H 0.55074 0.3859 0.76467 0.0
H209 H 0.67887 0.3895 0.70911 0.0
H210 H 0.65943 0.41937 0.64438 0.0
H211 H 0.60568 0.44538 0.60362 0.0
H212 H 0.47946 0.44652 0.66235 0.0
H213 H 0.49831 0.41412 0.72544 0.0
C214 C 0.57435 0.3932 0.73832 0.0
C215 C 0.6161 0.38541 0.74163 0.0
C216 C 0.56324 0.41135 0.70168 0.0
C217 C 0.64653 0.39533 0.70742 0.0
C218 C 0.63539 0.41236 0.67036 0.0
C219 C 0.58236 0.4384 0.63023 0.0
C220 C 0.54118 0.4483 0.62818 0.0
C221 C 0.59382 0.42063 0.66711 0.0
C222 C 0.51145 0.43949 0.66313 0.0
C223 C 0.52215 0.42082 0.69924 0.0
H224 H 0.85401 0.5954 0.25445 0.0
H225 H 0.91942 0.72002 0.21683 0.0
H226 H 0.94996 0.69024 0.15266 0.0
H227 H 0.96314 0.62805 0.11109 0.0
H228 H 0.89802 0.50353 0.14945 0.0
H229 H 0.86162 0.5341 0.20935 0.0
C230 C 0.87475 0.61609 0.2321 0.0
C231 C 0.88516 0.65974 0.2405 0.0
C232 C 0.89216 0.59876 0.19554 0.0
C233 C 0.91136 0.68625 0.21098 0.0
C234 C 0.92881 0.66925 0.17441 0.0
C235 C 0.94046 0.60772 0.13222 0.0
C236 C 0.93365 0.56364 0.12636 0.0
C237 C 0.92017 0.62546 0.16687 0.0
C238 C 0.904 0.53757 0.15364 0.0
C239 C 0.88333 0.555 0.18795 0.0
H240 H 0.31728 0.17113 0.10288 0.0
H241 H 0.22958 0.05351 0.08282 0.0
H242 H 0.28957 0.02047 0.05592 0.0
H243 H 0.36676 0.025 0.03998 0.0
H244 H 0.45481 0.14209 0.06303 0.0
H245 H 0.39463 0.1756 0.08711 0.0
C246 C 0.31141 0.13842 0.09207 0.0
C247 C 0.26941 0.1147 0.09424 0.0
C248 C 0.34595 0.11963 0.0776 0.0
C249 C 0.26189 0.07216 0.08117 0.0
C250 C 0.29605 0.05338 0.0659 0.0
C251 C 0.3728 0.05791 0.0501 0.0
C252 C 0.4151 0.08107 0.04969 0.0
C253 C 0.33821 0.07678 0.06428 0.0
C254 C 0.4225 0.12354 0.06326 0.0
C255 C 0.38815 0.14276 0.07689 0.0
H256 H 0.17567 0.88746 0.65332 0.0
H257 H 0.16745 0.79431 0.55241 0.0
H258 H 0.12714 0.83525 0.5121 0.0
H259 H 0.09629 0.89838 0.50423 0.0
H260 H 0.10135 0.99099 0.60527 0.0
H261 H 0.14036 0.94933 0.64706 0.0
C262 C 0.16498 0.87617 0.62255 0.0
C263 C 0.17488 0.83805 0.60562 0.0
C264 C 0.1412 0.89974 0.59964 0.0
C265 C 0.16035 0.82359 0.56598 0.0
C266 C 0.13732 0.84698 0.5429 0.0
C267 C 0.10578 0.90936 0.53551 0.0
C268 C 0.09638 0.94785 0.55152 0.0
C269 C 0.12786 0.88521 0.55924 0.0
C270 C 0.10833 0.96146 0.59226 0.0
C271 C 0.13076 0.93772 0.61605 0.0
H272 H 0.80186 0.35023 0.92432 0.0
H273 H 0.74404 0.45763 0.90156 0.0
H274 H 0.80326 0.50468 0.9339 0.0
H275 H 0.87199 0.51577 0.96788 0.0
H276 H 0.93044 0.40864 0.99045 0.0
H277 H 0.87051 0.36133 0.95939 0.0
C278 C 0.80204 0.38388 0.9268 0.0
C279 C 0.76853 0.40029 0.91028 0.0
C280 C 0.83642 0.41095 0.94541 0.0
C281 C 0.76962 0.44411 0.91341 0.0
C282 C 0.80342 0.47109 0.9321 0.0
C283 C 0.87167 0.48207 0.96617 0.0
C284 C 0.90589 0.46598 0.98161 0.0
C285 C 0.83714 0.45493 0.94801 0.0
C286 C 0.90471 0.42212 0.97888 0.0
C287 C 0.87036 0.39492 0.96108 0.0
H288 H 0.73081 0.60263 0.39241 0.0
H289 H 0.78978 0.63794 0.5105 0.0
H290 H 0.72174 0.60995 0.54939 0.0
H291 H 0.64336 0.58208 0.54901 0.0
H292 H 0.58758 0.54327 0.43024 0.0
H293 H 0.65713 0.56503 0.39253 0.0
C294 C 0.7296 0.60302 0.42667 0.0
C295 C 0.76535 0.62321 0.44831 0.0
C296 C 0.69073 0.58662 0.44876 0.0
C297 C 0.76245 0.62369 0.49285 0.0
C298 C 0.72358 0.60759 0.51518 0.0
C299 C 0.64674 0.57815 0.51495 0.0
C300 C 0.61048 0.56207 0.49228 0.0
C301 C 0.6871 0.59031 0.49334 0.0
C302 C 0.61506 0.55614 0.44829 0.0
C303 C 0.6548 0.56854 0.42666 0.0
H304 H 0.1499 0.32476 0.17764 0.0
H305 H 0.17426 0.28414 0.04909 0.0
H306 H 0.13987 0.33913 0.02294 0.0
H307 H 0.10094 0.39729 0.03682 0.0
H308 H 0.07615 0.43779 0.1653 0.0
H309 H 0.11259 0.38418 0.19145 0.0
C310 C 0.14786 0.32826 0.14392 0.0
C311 C 0.16433 0.30061 0.11536 0.0
C312 C 0.12779 0.35963 0.12918 0.0
C313 C 0.16164 0.30511 0.07171 0.0
C314 C 0.14194 0.33645 0.05673 0.0
C315 C 0.10358 0.3943 0.07052 0.0
C316 C 0.08587 0.42104 0.0992 0.0
C317 C 0.12454 0.36358 0.08521 0.0
C318 C 0.08955 0.41727 0.14274 0.0
C319 C 0.11036 0.38673 0.15767 0.0
H320 H 0.59295 0.26862 0.88817 0.0
H321 H 0.71571 0.25034 0.92764 0.0
H322 H 0.68227 0.18109 0.95533 0.0
H323 H 0.61854 0.12267 0.96388 0.0
H324 H 0.49839 0.13947 0.91734 0.0
H325 H 0.53025 0.21167 0.89685 0.0
C326 C 0.61268 0.2495 0.90241 0.0
C327 C 0.65703 0.26514 0.90543 0.0
C328 C 0.59352 0.20904 0.91718 0.0
C329 C 0.68145 0.23981 0.92516 0.0
C330 C 0.66237 0.19986 0.94083 0.0
C331 C 0.59936 0.14256 0.94992 0.0
C332 C 0.55612 0.12602 0.94239 0.0
C333 C 0.61848 0.18382 0.93659 0.0
C334 C 0.53172 0.15166 0.92352 0.0
C335 C 0.54996 0.1929 0.91166 0.0
H336 H 0.93191 0.76266 0.39657 0.0
H337 H 0.81197 0.76825 0.46732 0.0
H338 H 0.8427 0.83769 0.49509 0.0
H339 H 0.9033 0.89775 0.49846 0.0
H340 H 0.01937 0.89593 0.42053 0.0
H341 H 0.98992 0.82458 0.39522 0.0
C342 C 0.91206 0.77921 0.41741 0.0
C343 C 0.86978 0.75967 0.43008 0.0
C344 C 0.92913 0.82005 0.43174 0.0
C345 C 0.84505 0.78166 0.45787 0.0
C346 C 0.86239 0.82173 0.47346 0.0
C347 C 0.92193 0.88159 0.47586 0.0
C348 C 0.96325 0.90158 0.46132 0.0
C349 C 0.90437 0.8412 0.46061 0.0
C350 C 0.98724 0.88094 0.43179 0.0
C351 C 0.97054 0.8402 0.41751 0.0
H352 H 0.38962 0.75345 0.67483 0.0
H353 H 0.26451 0.6898 0.63869 0.0
H354 H 0.29625 0.63201 0.60682 0.0
H355 H 0.35985 0.59877 0.59054 0.0
H356 H 0.48374 0.66219 0.63003 0.0
H357 H 0.45191 0.72017 0.66037 0.0
C358 C 0.36903 0.72672 0.66054 0.0
C359 C 0.32459 0.72596 0.65957 0.0
C360 C 0.38729 0.69328 0.64316 0.0
C361 C 0.29885 0.69151 0.63966 0.0
C362 C 0.31694 0.65824 0.62171 0.0
C363 C 0.37972 0.62523 0.60599 0.0
C364 C 0.42406 0.62618 0.60813 0.0
C365 C 0.36112 0.65865 0.62351 0.0
C366 C 0.44951 0.66065 0.62809 0.0
C367 C 0.43137 0.69391 0.64534 0.0
H368 H 0.8009 0.91642 0.75983 0.0
H369 H 0.90232 0.86279 0.80818 0.0
H370 H 0.95345 0.8989 0.75375 0.0
H371 H 0.96794 0.94225 0.68951 0.0
H372 H 0.86552 0.99475 0.64159 0.0
H373 H 0.8163 0.96319 0.69927 0.0
C374 C 0.83439 0.91336 0.75906 0.0
C375 C 0.84781 0.88695 0.78786 0.0
C376 C 0.86335 0.93386 0.72763 0.0
C377 C 0.89116 0.88264 0.78598 0.0
C378 C 0.92038 0.90332 0.75496 0.0
C379 C 0.93496 0.94705 0.69209 0.0
C380 C 0.92019 0.97046 0.66139 0.0
C381 C 0.90664 0.9284 0.72513 0.0
C382 C 0.87748 0.9766 0.66485 0.0
C383 C 0.84931 0.95857 0.69776 0.0
H384 H 0.6396 0.18897 0.27692 0.0
H385 H 0.76743 0.18397 0.22418 0.0
H386 H 0.73724 0.14976 0.16018 0.0
H387 H 0.67383 0.12083 0.11903 0.0
H388 H 0.54731 0.13128 0.17146 0.0
H389 H 0.57795 0.16524 0.23489 0.0
C390 C 0.66118 0.18137 0.25122 0.0
C391 C 0.70587 0.18936 0.25564 0.0
C392 C 0.64379 0.16287 0.21409 0.0
C393 C 0.73286 0.17776 0.22215 0.0
C394 C 0.71564 0.1585 0.18528 0.0
C395 C 0.65316 0.13098 0.14422 0.0
C396 C 0.60838 0.12345 0.14058 0.0
C397 C 0.67108 0.15084 0.18087 0.0
C398 C 0.5819 0.1367 0.17343 0.0
C399 C 0.59935 0.156 0.20986 0.0
H400 H 0.38351 0.62675 0.31144 0.0
H401 H 0.50669 0.63097 0.24427 0.0
H402 H 0.52942 0.59092 0.30042 0.0
H403 H 0.51502 0.55625 0.36991 0.0
H404 H 0.39372 0.55687 0.43924 0.0
H405 H 0.36951 0.59304 0.38119 0.0
C406 C 0.41522 0.61867 0.30898 0.0
C407 C 0.44329 0.63156 0.27353 0.0
C408 C 0.42843 0.59642 0.34191 0.0
C409 C 0.48448 0.62133 0.27119 0.0
C410 C 0.49748 0.5984 0.30328 0.0
C411 C 0.48313 0.56391 0.37206 0.0
C412 C 0.45611 0.55355 0.40878 0.0
C413 C 0.46982 0.58589 0.33894 0.0
C414 C 0.41517 0.56444 0.41137 0.0
C415 C 0.40128 0.58518 0.37816 0.0
H416 H 0.1785 0.44915 0.86027 0.0
H417 H 0.08415 0.43798 0.76653 0.0
H418 H 0.03839 0.47347 0.81411 0.0
H419 H 0.02517 0.50769 0.88232 0.0
H420 H 0.11734 0.51589 0.97784 0.0
H421 H 0.1638 0.48112 0.92998 0.0
C422 C 0.14796 0.4547 0.85042 0.0
C423 C 0.13462 0.44117 0.81018 0.0
C424 C 0.12138 0.47429 0.8783 0.0
C425 C 0.0949 0.44802 0.79758 0.0
C426 C 0.06875 0.4683 0.8247 0.0
C427 C 0.0554 0.50175 0.89258 0.0
C428 C 0.0681 0.51448 0.9332 0.0
C429 C 0.08162 0.48147 0.86514 0.0
C430 C 0.10705 0.50633 0.94652 0.0
C431 C 0.13365 0.48661 0.91918 0.0
H432 H 0.7577 0.92764 0.91005 0.0
H433 H 0.66477 0.82328 0.86417 0.0
H434 H 0.6061 0.85538 0.89528 0.0
H435 H 0.58136 0.91373 0.93345 0.0
H436 H 0.67364 0.01837 0.9801 0.0
H437 H 0.73261 0.98548 0.9506 0.0
C438 C 0.72456 0.91207 0.90687 0.0
C439 C 0.71545 0.87327 0.88483 0.0
C440 C 0.69103 0.93073 0.92478 0.0
C441 C 0.67249 0.85299 0.88136 0.0
C442 C 0.63899 0.87142 0.8989 0.0
C443 C 0.61435 0.9295 0.93712 0.0
C444 C 0.62311 0.96862 0.95859 0.0
C445 C 0.64791 0.9104 0.92035 0.0
C446 C 0.66605 0.98822 0.96367 0.0
C447 C 0.69976 0.9695 0.94675 0.0
H448 H 0.86239 0.14615 0.375 0.0
H449 H 0.87286 0.24206 0.47334 0.0
H450 H 0.91768 0.20438 0.51195 0.0
H451 H 0.95122 0.14288 0.51948 0.0
H452 H 0.94323 0.04733 0.42107 0.0
H453 H 0.9006 0.08631 0.38045 0.0
C454 C 0.87461 0.15881 0.4048 0.0
C455 C 0.86398 0.19668 0.42157 0.0
C456 C 0.90083 0.13707 0.42674 0.0
C457 C 0.88047 0.21291 0.45994 0.0
C458 C 0.90608 0.19139 0.48203 0.0
C459 C 0.94037 0.13072 0.48899 0.0
C460 C 0.94993 0.09213 0.47344 0.0
C461 C 0.91607 0.15327 0.46598 0.0
C462 C 0.93616 0.07696 0.4337 0.0
C463 C 0.91165 0.09916 0.4106 0.0
H464 H 0.27313 0.70681 0.09103 0.0
H465 H 0.24253 0.65011 0.21405 0.0
H466 H 0.17082 0.61914 0.19355 0.0
H467 H 0.11787 0.604 0.13951 0.0
H468 H 0.14437 0.6653 0.01904 0.0
H469 H 0.21595 0.69972 0.04026 0.0
C470 C 0.25068 0.68841 0.11377 0.0
C471 C 0.26432 0.67988 0.15369 0.0
C472 C 0.20849 0.67156 0.1023 0.0
C473 C 0.23413 0.65591 0.18246 0.0
C474 C 0.19268 0.63846 0.17099 0.0
C475 C 0.13913 0.62543 0.11817 0.0
C476 C 0.12613 0.63197 0.07773 0.0
C477 C 0.17982 0.64532 0.13076 0.0
C478 C 0.15368 0.66003 0.05045 0.0
C479 C 0.19469 0.67941 0.06248 0.0
H480 H 0.2833 0.33285 0.62411 0.0
H481 H 0.2527 0.45555 0.65536 0.0
H482 H 0.31737 0.48934 0.61471 0.0
H483 H 0.3809 0.48378 0.56705 0.0
H484 H 0.40377 0.36073 0.52743 0.0
H485 H 0.34211 0.32709 0.57273 0.0
C486 C 0.28979 0.36695 0.62142 0.0
C487 C 0.2624 0.39129 0.64276 0.0
C488 C 0.3253 0.38609 0.59573 0.0
C489 C 0.27318 0.43567 0.64008 0.0
C490 C 0.30994 0.45513 0.61625 0.0
C491 C 0.37201 0.44966 0.56825 0.0
C492 C 0.39641 0.42465 0.54408 0.0
C493 C 0.33588 0.43061 0.59348 0.0
C494 C 0.3849 0.38047 0.5455 0.0
C495 C 0.34997 0.3613 0.57161 0.0
H496 H 0.81821 0.72748 0.91764 0.0
H497 H 0.88584 0.70459 0.79945 0.0
H498 H 0.94434 0.68663 0.83772 0.0
H499 H 0.97318 0.67237 0.90456 0.0
H500 H 0.90281 0.68999 0.02252 0.0
H501 H 0.84893 0.7167 0.98459 0.0
C502 C 0.84583 0.71874 0.90025 0.0
C503 C 0.84775 0.71695 0.85584 0.0
C504 C 0.87898 0.70815 0.92243 0.0
C505 C 0.88366 0.70568 0.83371 0.0
C506 C 0.91713 0.6957 0.85553 0.0
C507 C 0.94664 0.68314 0.92199 0.0
C508 C 0.94188 0.67957 0.96615 0.0
C509 C 0.91485 0.69633 0.89987 0.0
C510 C 0.90708 0.69282 0.98845 0.0
C511 C 0.87612 0.70762 0.96678 0.0
H512 H 0.38092 0.78609 0.0856 0.0
H513 H 0.43057 0.8033 0.20994 0.0
H514 H 0.47246 0.87192 0.18995 0.0
H515 H 0.49486 0.92758 0.13816 0.0
H516 H 0.4444 0.914 0.01454 0.0
H517 H 0.40263 0.84377 0.03332 0.0
C518 C 0.40069 0.80495 0.10842 0.0
C519 C 0.40283 0.78889 0.14918 0.0
C520 C 0.42453 0.84514 0.09687 0.0
C521 C 0.42892 0.81397 0.17809 0.0
C522 C 0.45271 0.85355 0.16681 0.0
C523 C 0.47479 0.90927 0.11519 0.0
C524 C 0.47292 0.92585 0.07489 0.0
C525 C 0.45083 0.86939 0.12638 0.0
C526 C 0.44655 0.90183 0.04566 0.0
C527 C 0.42266 0.86172 0.05649 0.0
H528 H 0.15165 0.28504 0.58749 0.0
H529 H 0.12082 0.2422 0.71562 0.0
H530 H 0.08872 0.17202 0.68942 0.0
H531 H 0.0714 0.12249 0.63009 0.0
H532 H 0.10558 0.16526 0.50217 0.0
H533 H 0.13561 0.23557 0.52855 0.0
C534 C 0.13833 0.26025 0.60974 0.0
C535 C 0.13884 0.26876 0.65341 0.0
C536 C 0.12097 0.21987 0.59455 0.0
C537 C 0.12043 0.23658 0.6818 0.0
C538 C 0.10242 0.19636 0.66687 0.0
C539 C 0.08553 0.14713 0.60797 0.0
C540 C 0.0863 0.13854 0.56425 0.0
C541 C 0.10285 0.18759 0.6233 0.0
C542 C 0.10472 0.17087 0.53602 0.0
C543 C 0.12177 0.2112 0.55103 0.0
H544 H 0.67648 0.31687 0.32159 0.0
H545 H 0.71141 0.27444 0.44057 0.0
H546 H 0.67155 0.32252 0.47847 0.0
H547 H 0.62266 0.37364 0.47858 0.0
H548 H 0.57879 0.40698 0.36046 0.0
H549 H 0.62488 0.36427 0.32169 0.0
C550 C 0.67496 0.31721 0.35582 0.0
C551 C 0.69738 0.29145 0.37771 0.0
C552 C 0.64978 0.34318 0.37778 0.0
C553 C 0.69567 0.29418 0.42226 0.0
C554 C 0.67226 0.32141 0.44423 0.0
C555 C 0.62342 0.37158 0.44433 0.0
C556 C 0.59763 0.39346 0.42227 0.0
C557 C 0.64874 0.34566 0.42238 0.0
C558 C 0.59834 0.39025 0.37802 0.0
C559 C 0.62474 0.36593 0.35589 0.0
loop_
_geom_bond_atom_site_label_1
_geom_bond_atom_site_label_2
_geom_bond_distance
_geom_bond_site_symmetry_2
_ccdc_geom_bond_type
H0 C5 0.930 . S
H1 C8 0.930 . S
H2 C10 0.930 . S
H3 C4 1.016 . S
C4 H3 1.016 . S
C4 N11 1.286 . S
C5 H0 0.930 . S
C5 C6 1.397 . S
C5 C7 1.361 . S
C6 C5 1.397 . S
C6 C10 1.390 . S
C7 C5 1.361 . S
C7 C8 1.393 . S
C7 N11 1.413 . S
C8 H1 0.930 . S
C8 C7 1.393 . S
C8 C9 1.399 . S
C9 C8 1.399 . S
C9 C10 1.381 . S
C10 H2 0.930 . S
C10 C6 1.390 . S
C10 C9 1.381 . S
N11 C4 1.286 . S
N11 C7 1.413 . S
H12 C17 0.930 . S
H13 C20 0.930 . S
H14 C22 0.930 . S
H15 C16 1.016 . S
C16 H15 1.016 . S
C16 N23 1.286 . S
C17 H12 0.930 . S
C17 C18 1.397 . S
C17 C19 1.361 . S
C18 C17 1.397 . S
C18 C22 1.390 . S
C19 C17 1.361 . S
C19 C20 1.393 . S
C19 N23 1.413 . S
C20 H13 0.930 . S
C20 C19 1.393 . S
C20 C21 1.399 . S
C21 C20 1.399 . S
C21 C22 1.381 . S
C22 H14 0.930 . S
C22 C18 1.390 . S
C22 C21 1.381 . S
N23 C16 1.286 . S
N23 C19 1.413 . S
H24 C29 0.930 . S
H25 C32 0.930 . S
H26 C34 0.930 . S
H27 C28 1.016 . S
C28 H27 1.016 . S
C28 N35 1.286 . S
C29 H24 0.930 . S
C29 C30 1.397 . S
C29 C31 1.361 . S
C30 C29 1.397 . S
C30 C34 1.390 . S
C31 C29 1.361 . S
C31 C32 1.393 . S
C31 N35 1.413 . S
C32 H25 0.930 . S
C32 C31 1.393 . S
C32 C33 1.399 . S
C33 C32 1.399 . S
C33 C34 1.381 . S
C34 H26 0.930 . S
C34 C30 1.390 . S
C34 C33 1.381 . S
N35 C28 1.286 . S
N35 C31 1.413 . S
H36 C41 0.930 . S
H37 C44 0.930 . S
H38 C46 0.930 . S
H39 C40 1.016 . S
C40 H39 1.016 . S
C40 N47 1.286 . S
C41 H36 0.930 . S
C41 C42 1.397 . S
C41 C43 1.361 . S
C42 C41 1.397 . S
C42 C46 1.390 . S
C43 C41 1.361 . S
C43 C44 1.393 . S
C43 N47 1.413 . S
C44 H37 0.930 . S
C44 C43 1.393 . S
C44 C45 1.399 . S
C45 C44 1.399 . S
C45 C46 1.381 . S
C46 H38 0.930 . S
C46 C42 1.390 . S
C46 C45 1.381 . S
N47 C40 1.286 . S
N47 C43 1.413 . S
H48 C53 0.930 . S
H49 C56 0.930 . S
H50 C58 0.930 . S
H51 C52 1.016 . S
C52 H51 1.016 . S
C52 N59 1.286 . S
C53 H48 0.930 . S
C53 C54 1.397 . S
C53 C55 1.361 . S
C54 C53 1.397 . S
C54 C58 1.390 . S
C55 C53 1.361 . S
C55 C56 1.393 . S
C55 N59 1.413 . S
C56 H49 0.930 . S
C56 C55 1.393 . S
C56 C57 1.399 . S
C57 C56 1.399 . S
C57 C58 1.381 . S
C58 H50 0.930 . S
C58 C54 1.390 . S
C58 C57 1.381 . S
N59 C52 1.286 . S
N59 C55 1.413 . S
H60 C65 0.930 . S
H61 C68 0.930 . S
H62 C70 0.930 . S
H63 C64 1.016 . S
C64 H63 1.016 . S
C64 N71 1.286 . S
C65 H60 0.930 . S
C65 C66 1.397 . S
C65 C67 1.361 . S
C66 C65 1.397 . S
C66 C70 1.390 . S
C67 C65 1.361 . S
C67 C68 1.393 . S
C67 N71 1.413 . S
C68 H61 0.930 . S
C68 C67 1.393 . S
C68 C69 1.399 . S
C69 C68 1.399 . S
C69 C70 1.381 . S
C70 H62 0.930 . S
C70 C66 1.390 . S
C70 C69 1.381 . S
N71 C64 1.286 . S
N71 C67 1.413 . S
H72 C77 0.930 . S
H73 C80 0.930 . S
H74 C82 0.930 . S
H75 C76 1.016 . S
C76 H75 1.016 . S
C76 N83 1.286 . S
C77 H72 0.930 . S
C77 C78 1.397 . S
C77 C79 1.361 . S
C78 C77 1.397 . S
C78 C82 1.390 . S
C79 C77 1.361 . S
C79 C80 1.393 . S
C79 N83 1.413 . S
C80 H73 0.930 . S
C80 C79 1.393 . S
C80 C81 1.399 . S
C81 C80 1.399 . S
C81 C82 1.381 . S
C82 H74 0.930 . S
C82 C78 1.390 . S
C82 C81 1.381 . S
N83 C76 1.286 . S
N83 C79 1.413 . S
H84 C89 0.930 . S
H85 C92 0.930 . S
H86 C94 0.930 . S
H87 C88 1.016 . S
C88 H87 1.016 . S
C88 N95 1.286 . S
C89 H84 0.930 . S
C89 C90 1.397 . S
C89 C91 1.361 . S
C90 C89 1.397 . S
C90 C94 1.390 . S
C91 C89 1.361 . S
C91 C92 1.393 . S
C91 N95 1.413 . S
C92 H85 0.930 . S
C92 C91 1.393 . S
C92 C93 1.399 . S
C93 C92 1.399 . S
C93 C94 1.381 . S
C94 H86 0.930 . S
C94 C90 1.390 . S
C94 C93 1.381 . S
N95 C88 1.286 . S
N95 C91 1.413 . S
Dy96 O100 2.398 . S
Dy96 O101 2.491 . S
Dy96 O102 2.403 1_545 S
Dy96 O103 2.664 1_545 S
Dy96 O107 2.326 . S
Dy96 O111 2.310 1_455 S
Dy96 O112 2.351 1_445 S
C97 O108 1.185 . S
C97 O109 1.355 . S
C98 O100 1.185 . S
C98 O101 1.355 . S
Dy99 O103 2.310 1_655 S
Dy99 O106 2.351 1_665 S
Dy99 O108 2.398 . S
Dy99 O109 2.491 . S
Dy99 O110 2.403 1_565 S
Dy99 O111 2.664 1_565 S
Dy99 O113 2.326 . S
O100 Dy96 2.398 . S
O100 C98 1.185 . S
O101 Dy96 2.491 . S
O101 C98 1.355 . S
O102 Dy96 2.403 1_565 S
O102 C104 1.254 . S
O103 Dy96 2.664 1_565 S
O103 Dy99 2.310 1_455 S
O103 C104 1.268 . S
C104 O102 1.254 . S
C104 O103 1.268 . S
C105 O110 1.254 . S
C105 O111 1.268 . S
O106 Dy99 2.351 1_445 S
O106 C114 1.249 . S
O107 Dy96 2.326 . S
O107 C114 1.267 . S
O108 C97 1.185 . S
O108 Dy99 2.398 . S
O109 C97 1.355 . S
O109 Dy99 2.491 . S
O110 Dy99 2.403 1_545 S
O110 C105 1.254 . S
O111 Dy96 2.310 1_655 S
O111 Dy99 2.664 1_545 S
O111 C105 1.268 . S
O112 Dy96 2.351 1_665 S
O112 C115 1.249 . S
O113 Dy99 2.326 . S
O113 C115 1.267 . S
C114 O106 1.249 . S
C114 O107 1.267 . S
C115 O112 1.249 . S
C115 O113 1.267 . S
Dy116 O120 2.398 . S
Dy116 O121 2.491 . S
Dy116 O122 2.403 1_545 S
Dy116 O123 2.664 1_545 S
Dy116 O127 2.326 . S
Dy116 O131 2.310 . S
Dy116 O132 2.351 1_544 S
C117 O128 1.185 . S
C117 O129 1.355 . S
C118 O120 1.185 . S
C118 O121 1.355 . S
Dy119 O123 2.310 1_546 S
Dy119 O126 2.351 1_556 S
Dy119 O128 2.398 1_545 S
Dy119 O129 2.491 1_545 S
Dy119 O130 2.403 . S
Dy119 O131 2.664 1_556 S
Dy119 O133 2.326 1_545 S
O120 Dy116 2.398 . S
O120 C118 1.185 . S
O121 Dy116 2.491 . S
O121 C118 1.355 . S
O122 Dy116 2.403 1_565 S
O122 C124 1.254 . S
O123 Dy116 2.664 1_565 S
O123 Dy119 2.310 1_564 S
O123 C124 1.268 . S
C124 O122 1.254 . S
C124 O123 1.268 . S
C125 O130 1.254 . S
C125 O131 1.268 1_556 S
O126 Dy119 2.351 1_554 S
O126 C134 1.249 . S
O127 Dy116 2.326 . S
O127 C134 1.267 . S
O128 C117 1.185 . S
O128 Dy119 2.398 1_565 S
O129 C117 1.355 . S
O129 Dy119 2.491 1_565 S
O130 Dy119 2.403 . S
O130 C125 1.254 . S
O131 Dy116 2.310 . S
O131 Dy119 2.664 1_554 S
O131 C125 1.268 1_554 S
O132 Dy116 2.351 1_566 S
O132 C135 1.249 . S
O133 Dy119 2.326 1_565 S
O133 C135 1.267 . S
C134 O126 1.249 . S
C134 O127 1.267 . S
C135 O132 1.249 . S
C135 O133 1.267 . S
Dy136 O140 2.398 . S
Dy136 O141 2.491 . S
Dy136 O142 2.403 . S
Dy136 O143 2.664 . S
Dy136 O147 2.326 . S
Dy136 O151 2.310 . S
Dy136 O152 2.351 . S
C137 O148 1.185 . S
C137 O149 1.355 . S
C138 O140 1.185 . S
C138 O141 1.355 . S
Dy139 O143 2.310 . S
Dy139 O146 2.351 . S
Dy139 O148 2.398 . S
Dy139 O149 2.491 . S
Dy139 O150 2.403 . S
Dy139 O151 2.664 . S
Dy139 O153 2.326 . S
O140 Dy136 2.398 . S
O140 C138 1.185 . S
O141 Dy136 2.491 . S
O141 C138 1.355 . S
O142 Dy136 2.403 . S
O142 C144 1.254 . S
O143 Dy136 2.664 . S
O143 Dy139 2.310 . S
O143 C144 1.268 . S
C144 O142 1.254 . S
C144 O143 1.268 . S
C145 O150 1.254 . S
C145 O151 1.268 . S
O146 Dy139 2.351 . S
O146 C154 1.249 . S
O147 Dy136 2.326 . S
O147 C154 1.267 . S
O148 C137 1.185 . S
O148 Dy139 2.398 . S
O149 C137 1.355 . S
O149 Dy139 2.491 . S
O150 Dy139 2.403 . S
O150 C145 1.254 . S
O151 Dy136 2.310 . S
O151 Dy139 2.664 . S
O151 C145 1.268 . S
O152 Dy136 2.351 . S
O152 C155 1.249 . S
O153 Dy139 2.326 . S
O153 C155 1.267 . S
C154 O146 1.249 . S
C154 O147 1.267 . S
C155 O152 1.249 . S
C155 O153 1.267 . S
Dy156 O160 2.398 . S
Dy156 O161 2.491 . S
Dy156 O162 2.403 1_455 S
Dy156 O163 2.664 1_455 S
Dy156 O167 2.326 . S
Dy156 O171 2.310 1_554 S
Dy156 O172 2.350 1_455 S
C157 O168 1.185 . S
C157 O169 1.355 . S
C158 O160 1.185 . S
C158 O161 1.355 . S
Dy159 O163 2.310 1_456 S
Dy159 O166 2.351 1_556 S
Dy159 O168 2.398 1_455 S
Dy159 O169 2.491 1_455 S
Dy159 O170 2.403 . S
Dy159 O171 2.664 . S
Dy159 O173 2.326 1_455 S
O160 Dy156 2.398 . S
O160 C158 1.185 . S
O161 Dy156 2.491 . S
O161 C158 1.355 . S
O162 Dy156 2.403 1_655 S
O162 C164 1.254 . S
O163 Dy156 2.664 1_655 S
O163 Dy159 2.310 1_654 S
O163 C164 1.268 . S
C164 O162 1.254 . S
C164 O163 1.268 . S
C165 O170 1.254 . S
C165 O171 1.268 . S
O166 Dy159 2.351 1_554 S
O166 C174 1.249 . S
O167 Dy156 2.326 . S
O167 C174 1.267 . S
O168 C157 1.185 . S
O168 Dy159 2.398 1_655 S
O169 C157 1.355 . S
O169 Dy159 2.491 1_655 S
O170 Dy159 2.403 . S
O170 C165 1.254 . S
O171 Dy156 2.310 1_556 S
O171 Dy159 2.664 . S
O171 C165 1.268 . S
O172 Dy156 2.350 1_655 S
O172 C175 1.250 1_554 S
O173 Dy159 2.326 1_655 S
O173 C175 1.267 . S
C174 O166 1.249 . S
C174 O167 1.267 . S
C175 O172 1.250 1_556 S
C175 O173 1.267 . S
H176 C182 0.930 . S
H177 C185 0.930 . S
H178 C186 0.930 . S
H179 C187 0.930 . S
H180 C190 0.930 . S
H181 C191 0.930 . S
C182 H176 0.930 . S
C182 C183 1.355 . S
C182 C184 1.415 . S
C183 C182 1.355 . S
C183 C185 1.419 . S
C184 C182 1.415 . S
C184 C189 1.425 . S
C184 C191 1.409 . S
C185 H177 0.930 . S
C185 C183 1.419 . S
C185 C186 1.362 . S
C186 H178 0.930 . S
C186 C185 1.362 . S
C186 C189 1.409 . S
C187 H179 0.930 . S
C187 C188 1.355 . S
C187 C189 1.415 . S
C188 C187 1.355 . S
C188 C190 1.419 . S
C189 C184 1.425 . S
C189 C186 1.409 . S
C189 C187 1.415 . S
C190 H180 0.930 . S
C190 C188 1.419 . S
C190 C191 1.362 . S
C191 H181 0.930 . S
C191 C184 1.409 . S
C191 C190 1.362 . S
H192 C198 0.930 . S
H193 C201 0.930 . S
H194 C202 0.930 . S
H195 C203 0.930 . S
H196 C206 0.930 . S
H197 C207 0.930 . S
C198 H192 0.930 . S
C198 C199 1.355 . S
C198 C200 1.415 . S
C199 C198 1.355 . S
C199 C201 1.419 . S
C200 C198 1.415 . S
C200 C205 1.425 . S
C200 C207 1.409 . S
C201 H193 0.930 . S
C201 C199 1.419 . S
C201 C202 1.362 . S
C202 H194 0.930 . S
C202 C201 1.362 . S
C202 C205 1.409 . S
C203 H195 0.930 . S
C203 C204 1.355 . S
C203 C205 1.415 . S
C204 C203 1.355 . S
C204 C206 1.419 . S
C205 C200 1.425 . S
C205 C202 1.409 . S
C205 C203 1.415 . S
C206 H196 0.930 . S
C206 C204 1.419 . S
C206 C207 1.362 . S
C207 H197 0.930 . S
C207 C200 1.409 . S
C207 C206 1.362 . S
H208 C214 0.930 . S
H209 C217 0.930 . S
H210 C218 0.930 . S
H211 C219 0.930 . S
H212 C222 0.930 . S
H213 C223 0.930 . S
C214 H208 0.930 . S
C214 C215 1.355 . S
C214 C216 1.415 . S
C215 C214 1.355 . S
C215 C217 1.419 . S
C216 C214 1.415 . S
C216 C221 1.425 . S
C216 C223 1.409 . S
C217 H209 0.930 . S
C217 C215 1.419 . S
C217 C218 1.362 . S
C218 H210 0.930 . S
C218 C217 1.362 . S
C218 C221 1.409 . S
C219 H211 0.930 . S
C219 C220 1.355 . S
C219 C221 1.415 . S
C220 C219 1.355 . S
C220 C222 1.419 . S
C221 C216 1.425 . S
C221 C218 1.409 . S
C221 C219 1.415 . S
C222 H212 0.930 . S
C222 C220 1.419 . S
C222 C223 1.362 . S
C223 H213 0.930 . S
C223 C216 1.409 . S
C223 C222 1.362 . S
H224 C230 0.930 . S
H225 C233 0.930 . S
H226 C234 0.930 1_455 S
H227 C235 0.930 1_455 S
H228 C238 0.930 . S
H229 C239 0.930 . S
C230 H224 0.930 . S
C230 C231 1.355 . S
C230 C232 1.415 . S
C231 C230 1.355 . S
C231 C233 1.419 . S
C232 C230 1.415 . S
C232 C237 1.425 . S
C232 C239 1.409 . S
C233 H225 0.930 . S
C233 C231 1.419 . S
C233 C234 1.362 . S
C234 H226 0.930 1_655 S
C234 C233 1.362 . S
C234 C237 1.409 . S
C235 H227 0.930 1_655 S
C235 C236 1.355 . S
C235 C237 1.415 . S
C236 C235 1.355 . S
C236 C238 1.419 . S
C237 C232 1.425 . S
C237 C234 1.409 . S
C237 C235 1.415 . S
C238 H228 0.930 . S
C238 C236 1.419 . S
C238 C239 1.362 . S
C239 H229 0.930 . S
C239 C232 1.409 . S
C239 C238 1.362 . S
H240 C246 0.930 . S
H241 C249 0.930 . S
H242 C250 0.930 . S
H243 C251 0.930 . S
H244 C254 0.930 . S
H245 C255 0.930 . S
C246 H240 0.930 . S
C246 C247 1.355 . S
C246 C248 1.415 . S
C247 C246 1.355 . S
C247 C249 1.419 . S
C248 C246 1.415 . S
C248 C253 1.425 . S
C248 C255 1.409 . S
C249 H241 0.930 . S
C249 C247 1.419 . S
C249 C250 1.362 . S
C250 H242 0.930 . S
C250 C249 1.362 . S
C250 C253 1.409 . S
C251 H243 0.930 . S
C251 C252 1.355 . S
C251 C253 1.415 . S
C252 C251 1.355 . S
C252 C254 1.419 . S
C253 C248 1.425 . S
C253 C250 1.409 . S
C253 C251 1.415 . S
C254 H244 0.930 . S
C254 C252 1.419 . S
C254 C255 1.362 . S
C255 H245 0.930 . S
C255 C248 1.409 . S
C255 C254 1.362 . S
H256 C262 0.930 . S
H257 C265 0.930 . S
H258 C266 0.930 . S
H259 C267 0.930 . S
H260 C270 0.930 . S
H261 C271 0.930 . S
C262 H256 0.930 . S
C262 C263 1.355 . S
C262 C264 1.415 . S
C263 C262 1.355 . S
C263 C265 1.419 . S
C264 C262 1.415 . S
C264 C269 1.425 . S
C264 C271 1.409 . S
C265 H257 0.930 . S
C265 C263 1.419 . S
C265 C266 1.362 . S
C266 H258 0.930 . S
C266 C265 1.362 . S
C266 C269 1.409 . S
C267 H259 0.930 . S
C267 C268 1.355 . S
C267 C269 1.415 . S
C268 C267 1.355 . S
C268 C270 1.419 . S
C269 C264 1.425 . S
C269 C266 1.409 . S
C269 C267 1.415 . S
C270 H260 0.930 . S
C270 C268 1.419 . S
C270 C271 1.362 . S
C271 H261 0.930 . S
C271 C264 1.409 . S
C271 C270 1.362 . S
H272 C278 0.930 . S
H273 C281 0.930 . S
H274 C282 0.930 . S
H275 C283 0.930 1_554 S
H276 C286 0.930 . S
H277 C287 0.930 . S
C278 H272 0.930 . S
C278 C279 1.355 . S
C278 C280 1.415 . S
C279 C278 1.355 . S
C279 C281 1.419 . S
C280 C278 1.415 . S
C280 C285 1.425 . S
C280 C287 1.409 . S
C281 H273 0.930 . S
C281 C279 1.419 . S
C281 C282 1.362 . S
C282 H274 0.930 . S
C282 C281 1.362 . S
C282 C285 1.409 . S
C283 H275 0.930 1_556 S
C283 C284 1.355 . S
C283 C285 1.415 . S
C284 C283 1.355 . S
C284 C286 1.419 . S
C285 C280 1.425 . S
C285 C282 1.409 . S
C285 C283 1.415 . S
C286 H276 0.930 . S
C286 C284 1.419 . S
C286 C287 1.362 . S
C287 H277 0.930 . S
C287 C280 1.409 . S
C287 C286 1.362 . S
H288 C294 0.930 . S
H289 C297 0.930 . S
H290 C298 0.930 . S
H291 C299 0.930 . S
H292 C302 0.930 . S
H293 C303 0.930 . S
C294 H288 0.930 . S
C294 C295 1.355 . S
C294 C296 1.415 . S
C295 C294 1.355 . S
C295 C297 1.419 . S
C296 C294 1.415 . S
C296 C301 1.425 . S
C296 C303 1.409 . S
C297 H289 0.930 . S
C297 C295 1.419 . S
C297 C298 1.362 . S
C298 H290 0.930 . S
C298 C297 1.362 . S
C298 C301 1.409 . S
C299 H291 0.930 . S
C299 C300 1.355 . S
C299 C301 1.415 . S
C300 C299 1.355 . S
C300 C302 1.419 . S
C301 C296 1.425 . S
C301 C298 1.409 . S
C301 C299 1.415 . S
C302 H292 0.930 . S
C302 C300 1.419 . S
C302 C303 1.362 . S
C303 H293 0.930 . S
C303 C296 1.409 . S
C303 C302 1.362 . S
H304 C310 0.930 . S
H305 C313 0.930 . S
H306 C314 0.930 . S
H307 C315 0.930 . S
H308 C318 0.930 . S
H309 C319 0.930 . S
C310 H304 0.930 . S
C310 C311 1.355 . S
C310 C312 1.415 . S
C311 C310 1.355 . S
C311 C313 1.419 . S
C312 C310 1.415 . S
C312 C317 1.425 . S
C312 C319 1.409 . S
C313 H305 0.930 . S
C313 C311 1.419 . S
C313 C314 1.362 . S
C314 H306 0.930 . S
C314 C313 1.362 . S
C314 C317 1.409 . S
C315 H307 0.930 . S
C315 C316 1.355 . S
C315 C317 1.415 . S
C316 C315 1.355 . S
C316 C318 1.419 . S
C317 C312 1.425 . S
C317 C314 1.409 . S
C317 C315 1.415 . S
C318 H308 0.930 . S
C318 C316 1.419 . S
C318 C319 1.362 . S
C319 H309 0.930 . S
C319 C312 1.409 . S
C319 C318 1.362 . S
H320 C326 0.930 . S
H321 C329 0.930 . S
H322 C330 0.930 . S
H323 C331 0.930 . S
H324 C334 0.930 . S
H325 C335 0.930 . S
C326 H320 0.930 . S
C326 C327 1.355 . S
C326 C328 1.415 . S
C327 C326 1.355 . S
C327 C329 1.419 . S
C328 C326 1.415 . S
C328 C333 1.425 . S
C328 C335 1.409 . S
C329 H321 0.930 . S
C329 C327 1.419 . S
C329 C330 1.362 . S
C330 H322 0.930 . S
C330 C329 1.362 . S
C330 C333 1.409 . S
C331 H323 0.930 . S
C331 C332 1.355 . S
C331 C333 1.415 . S
C332 C331 1.355 . S
C332 C334 1.419 . S
C333 C328 1.425 . S
C333 C330 1.409 . S
C333 C331 1.415 . S
C334 H324 0.930 . S
C334 C332 1.419 . S
C334 C335 1.362 . S
C335 H325 0.930 . S
C335 C328 1.409 . S
C335 C334 1.362 . S
H336 C342 0.930 . S
H337 C345 0.930 . S
H338 C346 0.930 . S
H339 C347 0.930 . S
H340 C350 0.930 1_455 S
H341 C351 0.930 . S
C342 H336 0.930 . S
C342 C343 1.355 . S
C342 C344 1.415 . S
C343 C342 1.355 . S
C343 C345 1.419 . S
C344 C342 1.415 . S
C344 C349 1.425 . S
C344 C351 1.409 . S
C345 H337 0.930 . S
C345 C343 1.419 . S
C345 C346 1.362 . S
C346 H338 0.930 . S
C346 C345 1.362 . S
C346 C349 1.409 . S
C347 H339 0.930 . S
C347 C348 1.355 . S
C347 C349 1.415 . S
C348 C347 1.355 . S
C348 C350 1.419 . S
C349 C344 1.425 . S
C349 C346 1.409 . S
C349 C347 1.415 . S
C350 H340 0.930 1_655 S
C350 C348 1.419 . S
C350 C351 1.362 . S
C351 H341 0.930 . S
C351 C344 1.409 . S
C351 C350 1.362 . S
H352 C358 0.930 . S
H353 C361 0.930 . S
H354 C362 0.930 . S
H355 C363 0.930 . S
H356 C366 0.930 . S
H357 C367 0.930 . S
C358 H352 0.930 . S
C358 C359 1.355 . S
C358 C360 1.415 . S
C359 C358 1.355 . S
C359 C361 1.419 . S
C360 C358 1.415 . S
C360 C365 1.425 . S
C360 C367 1.409 . S
C361 H353 0.930 . S
C361 C359 1.419 . S
C361 C362 1.362 . S
C362 H354 0.930 . S
C362 C361 1.362 . S
C362 C365 1.409 . S
C363 H355 0.930 . S
C363 C364 1.355 . S
C363 C365 1.415 . S
C364 C363 1.355 . S
C364 C366 1.419 . S
C365 C360 1.425 . S
C365 C362 1.409 . S
C365 C363 1.415 . S
C366 H356 0.930 . S
C366 C364 1.419 . S
C366 C367 1.362 . S
C367 H357 0.930 . S
C367 C360 1.409 . S
C367 C366 1.362 . S
H368 C374 0.930 . S
H369 C377 0.930 . S
H370 C378 0.930 . S
H371 C379 0.930 . S
H372 C382 0.930 . S
H373 C383 0.930 . S
C374 H368 0.930 . S
C374 C375 1.355 . S
C374 C376 1.415 . S
C375 C374 1.355 . S
C375 C377 1.419 . S
C376 C374 1.415 . S
C376 C381 1.425 . S
C376 C383 1.409 . S
C377 H369 0.930 . S
C377 C375 1.419 . S
C377 C378 1.362 . S
C378 H370 0.930 . S
C378 C377 1.362 . S
C378 C381 1.409 . S
C379 H371 0.930 . S
C379 C380 1.355 . S
C379 C381 1.415 . S
C380 C379 1.355 . S
C380 C382 1.419 . S
C381 C376 1.425 . S
C381 C378 1.409 . S
C381 C379 1.415 . S
C382 H372 0.930 . S
C382 C380 1.419 . S
C382 C383 1.362 . S
C383 H373 0.930 . S
C383 C376 1.409 . S
C383 C382 1.362 . S
H384 C390 0.930 . S
H385 C393 0.930 . S
H386 C394 0.930 . S
H387 C395 0.930 . S
H388 C398 0.930 . S
H389 C399 0.930 . S
C390 H384 0.930 . S
C390 C391 1.355 . S
C390 C392 1.415 . S
C391 C390 1.355 . S
C391 C393 1.419 . S
C392 C390 1.415 . S
C392 C397 1.425 . S
C392 C399 1.409 . S
C393 H385 0.930 . S
C393 C391 1.419 . S
C393 C394 1.362 . S
C394 H386 0.930 . S
C394 C393 1.362 . S
C394 C397 1.409 . S
C395 H387 0.930 . S
C395 C396 1.355 . S
C395 C397 1.415 . S
C396 C395 1.355 . S
C396 C398 1.419 . S
C397 C392 1.425 . S
C397 C394 1.409 . S
C397 C395 1.415 . S
C398 H388 0.930 . S
C398 C396 1.419 . S
C398 C399 1.362 . S
C399 H389 0.930 . S
C399 C392 1.409 . S
C399 C398 1.362 . S
H400 C406 0.930 . S
H401 C409 0.930 . S
H402 C410 0.930 . S
H403 C411 0.930 . S
H404 C414 0.930 . S
H405 C415 0.930 . S
C406 H400 0.930 . S
C406 C407 1.355 . S
C406 C408 1.415 . S
C407 C406 1.355 . S
C407 C409 1.419 . S
C408 C406 1.415 . S
C408 C413 1.425 . S
C408 C415 1.409 . S
C409 H401 0.930 . S
C409 C407 1.419 . S
C409 C410 1.362 . S
C410 H402 0.930 . S
C410 C409 1.362 . S
C410 C413 1.409 . S
C411 H403 0.930 . S
C411 C412 1.355 . S
C411 C413 1.415 . S
C412 C411 1.355 . S
C412 C414 1.419 . S
C413 C408 1.425 . S
C413 C410 1.409 . S
C413 C411 1.415 . S
C414 H404 0.930 . S
C414 C412 1.419 . S
C414 C415 1.362 . S
C415 H405 0.930 . S
C415 C408 1.409 . S
C415 C414 1.362 . S
H416 C422 0.930 . S
H417 C425 0.930 . S
H418 C426 0.930 . S
H419 C427 0.930 . S
H420 C430 0.930 . S
H421 C431 0.930 . S
C422 H416 0.930 . S
C422 C423 1.355 . S
C422 C424 1.415 . S
C423 C422 1.355 . S
C423 C425 1.419 . S
C424 C422 1.415 . S
C424 C429 1.425 . S
C424 C431 1.409 . S
C425 H417 0.930 . S
C425 C423 1.419 . S
C425 C426 1.362 . S
C426 H418 0.930 . S
C426 C425 1.362 . S
C426 C429 1.409 . S
C427 H419 0.930 . S
C427 C428 1.355 . S
C427 C429 1.415 . S
C428 C427 1.355 . S
C428 C430 1.419 . S
C429 C424 1.425 . S
C429 C426 1.409 . S
C429 C427 1.415 . S
C430 H420 0.930 . S
C430 C428 1.419 . S
C430 C431 1.362 . S
C431 H421 0.930 . S
C431 C424 1.409 . S
C431 C430 1.362 . S
H432 C438 0.930 . S
H433 C441 0.930 . S
H434 C442 0.930 . S
H435 C443 0.930 . S
H436 C446 0.930 . S
H437 C447 0.930 . S
C438 H432 0.930 . S
C438 C439 1.355 . S
C438 C440 1.415 . S
C439 C438 1.355 . S
C439 C441 1.419 . S
C440 C438 1.415 . S
C440 C445 1.425 . S
C440 C447 1.409 . S
C441 H433 0.930 . S
C441 C439 1.419 . S
C441 C442 1.362 . S
C442 H434 0.930 . S
C442 C441 1.362 . S
C442 C445 1.409 . S
C443 H435 0.930 . S
C443 C444 1.355 . S
C443 C445 1.415 . S
C444 C443 1.355 . S
C444 C446 1.419 . S
C445 C440 1.425 . S
C445 C442 1.409 . S
C445 C443 1.415 . S
C446 H436 0.930 . S
C446 C444 1.419 . S
C446 C447 1.362 . S
C447 H437 0.930 . S
C447 C440 1.409 . S
C447 C446 1.362 . S
H448 C454 0.930 . S
H449 C457 0.930 . S
H450 C458 0.930 . S
H451 C459 0.930 . S
H452 C462 0.930 1_565 S
H453 C463 0.930 . S
C454 H448 0.930 . S
C454 C455 1.355 . S
C454 C456 1.415 . S
C455 C454 1.355 . S
C455 C457 1.419 . S
C456 C454 1.415 . S
C456 C461 1.425 . S
C456 C463 1.409 . S
C457 H449 0.930 . S
C457 C455 1.419 . S
C457 C458 1.362 . S
C458 H450 0.930 . S
C458 C457 1.362 . S
C458 C461 1.409 . S
C459 H451 0.930 . S
C459 C460 1.355 . S
C459 C461 1.415 . S
C460 C459 1.355 . S
C460 C462 1.419 . S
C461 C456 1.425 . S
C461 C458 1.409 . S
C461 C459 1.415 . S
C462 H452 0.930 1_545 S
C462 C460 1.419 . S
C462 C463 1.362 . S
C463 H453 0.930 . S
C463 C456 1.409 . S
C463 C462 1.362 . S
H464 C470 0.930 . S
H465 C473 0.930 . S
H466 C474 0.930 . S
H467 C475 0.930 . S
H468 C478 0.930 . S
H469 C479 0.930 . S
C470 H464 0.930 . S
C470 C471 1.355 . S
C470 C472 1.415 . S
C471 C470 1.355 . S
C471 C473 1.419 . S
C472 C470 1.415 . S
C472 C477 1.425 . S
C472 C479 1.409 . S
C473 H465 0.930 . S
C473 C471 1.419 . S
C473 C474 1.362 . S
C474 H466 0.930 . S
C474 C473 1.362 . S
C474 C477 1.409 . S
C475 H467 0.930 . S
C475 C476 1.355 . S
C475 C477 1.415 . S
C476 C475 1.355 . S
C476 C478 1.419 . S
C477 C472 1.425 . S
C477 C474 1.409 . S
C477 C475 1.415 . S
C478 H468 0.930 . S
C478 C476 1.419 . S
C478 C479 1.362 . S
C479 H469 0.930 . S
C479 C472 1.409 . S
C479 C478 1.362 . S
H480 C486 0.930 . S
H481 C489 0.930 . S
H482 C490 0.930 . S
H483 C491 0.930 . S
H484 C494 0.930 . S
H485 C495 0.930 . S
C486 H480 0.930 . S
C486 C487 1.355 . S
C486 C488 1.415 . S
C487 C486 1.355 . S
C487 C489 1.419 . S
C488 C486 1.415 . S
C488 C493 1.425 . S
C488 C495 1.409 . S
C489 H481 0.930 . S
C489 C487 1.419 . S
C489 C490 1.362 . S
C490 H482 0.930 . S
C490 C489 1.362 . S
C490 C493 1.409 . S
C491 H483 0.930 . S
C491 C492 1.355 . S
C491 C493 1.415 . S
C492 C491 1.355 . S
C492 C494 1.419 . S
C493 C488 1.425 . S
C493 C490 1.409 . S
C493 C491 1.415 . S
C494 H484 0.930 . S
C494 C492 1.419 . S
C494 C495 1.362 . S
C495 H485 0.930 . S
C495 C488 1.409 . S
C495 C494 1.362 . S
H496 C502 0.930 . S
H497 C505 0.930 . S
H498 C506 0.930 . S
H499 C507 0.930 . S
H500 C510 0.930 . S
H501 C511 0.930 . S
C502 H496 0.930 . S
C502 C503 1.355 . S
C502 C504 1.415 . S
C503 C502 1.355 . S
C503 C505 1.419 . S
C504 C502 1.415 . S
C504 C509 1.425 . S
C504 C511 1.409 . S
C505 H497 0.930 . S
C505 C503 1.419 . S
C505 C506 1.362 . S
C506 H498 0.930 . S
C506 C505 1.362 . S
C506 C509 1.409 . S
C507 H499 0.930 . S
C507 C508 1.355 . S
C507 C509 1.415 . S
C508 C507 1.355 . S
C508 C510 1.419 . S
C509 C504 1.425 . S
C509 C506 1.409 . S
C509 C507 1.415 . S
C510 H500 0.930 . S
C510 C508 1.419 . S
C510 C511 1.362 . S
C511 H501 0.930 . S
C511 C504 1.409 . S
C511 C510 1.362 . S
H512 C518 0.930 . S
H513 C521 0.930 . S
H514 C522 0.930 . S
H515 C523 0.930 . S
H516 C526 0.930 . S
H517 C527 0.930 . S
C518 H512 0.930 . S
C518 C519 1.355 . S
C518 C520 1.415 . S
C519 C518 1.355 . S
C519 C521 1.419 . S
C520 C518 1.415 . S
C520 C525 1.425 . S
C520 C527 1.409 . S
C521 H513 0.930 . S
C521 C519 1.419 . S
C521 C522 1.362 . S
C522 H514 0.930 . S
C522 C521 1.362 . S
C522 C525 1.409 . S
C523 H515 0.930 . S
C523 C524 1.355 . S
C523 C525 1.415 . S
C524 C523 1.355 . S
C524 C526 1.419 . S
C525 C520 1.425 . S
C525 C522 1.409 . S
C525 C523 1.415 . S
C526 H516 0.930 . S
C526 C524 1.419 . S
C526 C527 1.362 . S
C527 H517 0.930 . S
C527 C520 1.409 . S
C527 C526 1.362 . S
H528 C534 0.930 . S
H529 C537 0.930 . S
H530 C538 0.930 . S
H531 C539 0.930 . S
H532 C542 0.930 . S
H533 C543 0.930 . S
C534 H528 0.930 . S
C534 C535 1.355 . S
C534 C536 1.415 . S
C535 C534 1.355 . S
C535 C537 1.419 . S
C536 C534 1.415 . S
C536 C541 1.425 . S
C536 C543 1.409 . S
C537 H529 0.930 . S
C537 C535 1.419 . S
C537 C538 1.362 . S
C538 H530 0.930 . S
C538 C537 1.362 . S
C538 C541 1.409 . S
C539 H531 0.930 . S
C539 C540 1.355 . S
C539 C541 1.415 . S
C540 C539 1.355 . S
C540 C542 1.419 . S
C541 C536 1.425 . S
C541 C538 1.409 . S
C541 C539 1.415 . S
C542 H532 0.930 . S
C542 C540 1.419 . S
C542 C543 1.362 . S
C543 H533 0.930 . S
C543 C536 1.409 . S
C543 C542 1.362 . S
H544 C550 0.930 . S
H545 C553 0.930 . S
H546 C554 0.930 . S
H547 C555 0.930 . S
H548 C558 0.930 . S
H549 C559 0.930 . S
C550 H544 0.930 . S
C550 C551 1.355 . S
C550 C552 1.415 . S
C551 C550 1.355 . S
C551 C553 1.419 . S
C552 C550 1.415 . S
C552 C557 1.425 . S
C552 C559 1.409 . S
C553 H545 0.930 . S
C553 C551 1.419 . S
C553 C554 1.362 . S
C554 H546 0.930 . S
C554 C553 1.362 . S
C554 C557 1.409 . S
C555 H547 0.930 . S
C555 C556 1.355 . S
C555 C557 1.415 . S
C556 C555 1.355 . S
C556 C558 1.419 . S
C557 C552 1.425 . S
C557 C554 1.409 . S
C557 C555 1.415 . S
C558 H548 0.930 . S
C558 C556 1.419 . S
C558 C559 1.362 . S
C559 H549 0.930 . S
C559 C552 1.409 . S
C559 C558 1.362 . S
C183 C6 1.423 . S
C188 C98 1.463 . S
C199 C18 1.543 . S
C204 C117 1.502 . S
C220 C154 1.785 . S
C215 C28 1.819 . S
C231 C40 1.262 . S
C236 C164 1.243 . S
C252 C134 2.000 . S
C247 C9 1.925 . S
C268 C104 1.438 . S
C263 C16 1.468 . S
C284 C175 1.514 . S
C279 C30 1.543 . S
C300 C145 1.183 . S
C295 C42 1.194 . S
C311 C4 1.550 . S
C316 C158 1.594 . S
C332 C125 1.779 . S
C327 C33 1.859 . S
C343 C45 1.568 . S
C348 C115 1.563 . S
C359 C21 1.423 . S
C364 C137 1.378 . S
C380 C97 1.448 . S
C375 C57 1.481 . S
C391 C66 1.565 . S
C396 C118 1.542 . S
C407 C76 1.863 . S
C412 C155 1.852 . S
C423 C88 1.203 . S
C428 C165 1.143 . S
C439 C54 1.931 . S
C444 C135 1.964 . S
C460 C105 1.451 . S
C455 C64 1.511 . S
C476 C174 1.458 . S
C471 C78 1.456 . S
C492 C144 1.149 . S
C487 C93 1.216 . S
C503 C52 1.534 . S
C508 C157 1.566 . S
C524 C124 1.811 . S
C519 C81 1.864 . S
C540 C114 1.554 . S
C535 C90 1.553 . S
C551 C69 1.443 . S
C556 C138 1.398 . S
