# Generated by pormake.
# Topology zzz, (3,6)-cn, num edge types: 1
# Building blocks:
#     Node 0, Type 0, BuildingBlock: VETTIZ_charged_linker_0, # of connection points: 3
#     Node 1, Type 0, BuildingBlock: VETTIZ_charged_linker_0, # of connection points: 3
#     Node 2, Type 0, BuildingBlock: VETTIZ_charged_linker_0, # of connection points: 3
#     Node 3, Type 0, BuildingBlock: VETTIZ_charged_linker_0, # of connection points: 3
#     Node 4, Type 0, BuildingBlock: VETTIZ_charged_linker_0, # of connection points: 3
#     Node 5, Type 0, BuildingBlock: VETTIZ_charged_linker_0, # of connection points: 3
#     Node 6, Type 0, BuildingBlock: VETTIZ_charged_linker_0, # of connection points: 3
#     Node 7, Type 0, BuildingBlock: VETTIZ_charged_linker_0, # of connection points: 3
#     Node 8, Type 1, BuildingBlock: BETDEL_clean_sbu_0, # of connection points: 6
#     Node 9, Type 1, BuildingBlock: BETDEL_clean_sbu_0, # of connection points: 6
#     Node 10, Type 1, BuildingBlock: BETDEL_clean_sbu_0, # of connection points: 6
#     Node 11, Type 1, BuildingBlock: BETDEL_clean_sbu_0, # of connection points: 6
#     Edge 12, Type (0, 1), BuildingBlock: ZUJKAS_clean_linker_0, # of connection points: 2
#     Edge 13, Type (0, 1), BuildingBlock: ZUJKAS_clean_linker_0, # of connection points: 2
#     Edge 14, Type (0, 1), BuildingBlock: ZUJKAS_clean_linker_0, # of connection points: 2
#     Edge 15, Type (0, 1), BuildingBlock: ZUJKAS_clean_linker_0, # of connection points: 2
#     Edge 16, Type (0, 1), BuildingBlock: ZUJKAS_clean_linker_0, # of connection points: 2
#     Edge 17, Type (0, 1), BuildingBlock: ZUJKAS_clean_linker_0, # of connection points: 2
#     Edge 18, Type (0, 1), BuildingBlock: ZUJKAS_clean_linker_0, # of connection points: 2
#     Edge 19, Type (0, 1), BuildingBlock: ZUJKAS_clean_linker_0, # of connection points: 2
#     Edge 20, Type (0, 1), BuildingBlock: ZUJKAS_clean_linker_0, # of connection points: 2
#     Edge 21, Type (0, 1), BuildingBlock: ZUJKAS_clean_linker_0, # of connection points: 2
#     Edge 22, Type (0, 1), BuildingBlock: ZUJKAS_clean_linker_0, # of connection points: 2
#     Edge 23, Type (0, 1), BuildingBlock: ZUJKAS_clean_linker_0, # of connection points: 2
#     Edge 24, Type (0, 1), BuildingBlock: ZUJKAS_clean_linker_0, # of connection points: 2
#     Edge 25, Type (0, 1), BuildingBlock: ZUJKAS_clean_linker_0, # of connection points: 2
#     Edge 26, Type (0, 1), BuildingBlock: ZUJKAS_clean_linker_0, # of connection points: 2
#     Edge 27, Type (0, 1), BuildingBlock: ZUJKAS_clean_linker_0, # of connection points: 2
#     Edge 28, Type (0, 1), BuildingBlock: ZUJKAS_clean_linker_0, # of connection points: 2
#     Edge 29, Type (0, 1), BuildingBlock: ZUJKAS_clean_linker_0, # of connection points: 2
#     Edge 30, Type (0, 1), BuildingBlock: ZUJKAS_clean_linker_0, # of connection points: 2
#     Edge 31, Type (0, 1), BuildingBlock: ZUJKAS_clean_linker_0, # of connection points: 2
#     Edge 32, Type (0, 1), BuildingBlock: ZUJKAS_clean_linker_0, # of connection points: 2
#     Edge 33, Type (0, 1), BuildingBlock: ZUJKAS_clean_linker_0, # of connection points: 2
#     Edge 34, Type (0, 1), BuildingBlock: ZUJKAS_clean_linker_0, # of connection points: 2
#     Edge 35, Type (0, 1), BuildingBlock: ZUJKAS_clean_linker_0, # of connection points: 2
# Relax obj value: 0.331
# Max RMSD: 0.230
# Mean RMSD: 0.211
data_MOF--net-zzz--node1-BETDEL_clean_sbu_0--node2-VETTIZ_charged_linker_0--edge1-ZUJKAS_clean_linker_0
_symmetry_space_group_name_H-M    P1
_symmetry_Int_Tables_number       1
_symmetry_cell_setting            triclinic
loop_
_symmetry_equiv_pos_as_xyz
'x, y, z'
_cell_length_a     70.058873
_cell_length_b     69.612095
_cell_length_c     24.760605
_cell_angle_alpha  91.149238
_cell_angle_beta   89.539407
_cell_angle_gamma 96.160033
loop_
_atom_site_label
_atom_site_type_symbol
_atom_site_fract_x
_atom_site_fract_y
_atom_site_fract_z
_atom_type_partial_charge
C0 C 0.78977 0.4886 0.17156 0.0
C1 C 0.80446 0.48055 0.19958 0.0
C2 C 0.80849 0.4617 0.18626 0.0
C3 C 0.78559 0.45989 0.11356 0.0
C4 C 0.78014 0.47768 0.12913 0.0
C5 C 0.76336 0.48267 0.0955 0.0
H6 H 0.70464 0.45744 0.87877 0.0
C7 C 0.77475 0.45293 0.06511 0.0
C8 C 0.76115 0.4658 0.05453 0.0
H9 H 0.70002 0.50508 0.99065 0.0
H10 H 0.72809 0.49676 0.03908 0.0
H11 H 0.74767 0.4659 0.86288 0.0
H12 H 0.71468 0.42516 0.96354 0.0
H13 H 0.73243 0.41323 0.92955 0.0
H14 H 0.71502 0.42422 0.89097 0.0
H15 H 0.73913 0.44226 0.83792 0.0
H16 H 0.76222 0.44716 0.87021 0.0
C17 C 0.769 0.50216 0.068 0.0
C18 C 0.74566 0.48273 0.13302 0.0
C19 C 0.80233 0.40235 0.94816 0.0
C20 C 0.79908 0.39648 0.89411 0.0
C21 C 0.78199 0.40061 0.86919 0.0
C22 C 0.76931 0.41191 0.89619 0.0
C23 C 0.77396 0.41945 0.94819 0.0
C24 C 0.78992 0.41408 0.97386 0.0
C25 C 0.79358 0.42441 0.02717 0.0
C26 C 0.77774 0.43773 0.02802 0.0
C27 C 0.76624 0.43466 0.98205 0.0
C28 C 0.8139 0.43577 0.02461 0.0
C29 C 0.79093 0.4092 0.07243 0.0
C30 C 0.70939 0.4659 0.91432 0.0
C31 C 0.69981 0.48162 0.93162 0.0
C32 C 0.70704 0.49275 0.97679 0.0
C33 C 0.72321 0.4878 0.0051 0.0
C34 C 0.73233 0.47165 0.9878 0.0
C35 C 0.72543 0.46124 0.9425 0.0
C36 C 0.7373 0.44532 0.92701 0.0
C37 C 0.75159 0.44674 0.97275 0.0
C38 C 0.74893 0.4623 0.00846 0.0
C39 C 0.74704 0.45023 0.87161 0.0
C40 C 0.72425 0.42589 0.92739 0.0
H41 H 0.80322 0.43727 0.13509 0.0
H42 H 0.78603 0.50288 0.18223 0.0
H43 H 0.74477 0.47029 0.16077 0.0
H44 H 0.73201 0.48117 0.11073 0.0
H45 H 0.7465 0.4962 0.15814 0.0
H46 H 0.7833 0.50223 0.04816 0.0
H47 H 0.76979 0.51428 0.09806 0.0
H48 H 0.75882 0.50507 0.03617 0.0
H49 H 0.81539 0.39967 0.9684 0.0
H50 H 0.77901 0.39605 0.82776 0.0
H51 H 0.75687 0.41509 0.87453 0.0
H52 H 0.81617 0.44315 0.98525 0.0
H53 H 0.82526 0.42594 0.0288 0.0
H54 H 0.81644 0.4473 0.05553 0.0
H55 H 0.78297 0.39536 0.05813 0.0
H56 H 0.78223 0.41408 0.1067 0.0
H57 H 0.80498 0.40574 0.08786 0.0
H58 H 0.81951 0.45519 0.20772 0.0
C59 C 0.79908 0.45134 0.14386 0.0
C60 C 0.92281 0.79201 0.89789 0.0
C61 C 0.9178 0.81066 0.91069 0.0
C62 C 0.91131 0.81454 0.96346 0.0
C63 C 0.92051 0.78399 0.99251 0.0
C64 C 0.92406 0.77886 0.93962 0.0
C65 C 0.93132 0.75925 0.93539 0.0
H66 H 0.97272 0.68782 0.0559 0.0
C67 C 0.92819 0.76991 0.02775 0.0
C68 C 0.93417 0.75509 0.99491 0.0
H69 H 0.95181 0.68978 0.89246 0.0
H70 H 0.94019 0.72043 0.91173 0.0
H71 H 0.98974 0.73437 0.05819 0.0
H72 H 0.93596 0.70669 0.12093 0.0
H73 H 0.94874 0.72184 0.1701 0.0
H74 H 0.95895 0.70096 0.14389 0.0
H75 H 0.98893 0.71985 0.11747 0.0
H76 H 0.98444 0.74489 0.12086 0.0
C77 C 0.95056 0.76114 0.90369 0.0
C78 C 0.91539 0.74491 0.90909 0.0
C79 C 0.945 0.79319 0.21697 0.0
C80 C 0.95806 0.78808 0.25529 0.0
C81 C 0.96662 0.77076 0.24689 0.0
C82 C 0.96239 0.75905 0.20028 0.0
C83 C 0.94999 0.76506 0.16092 0.0
C84 C 0.94159 0.78194 0.17011 0.0
C85 C 0.93048 0.78764 0.12278 0.0
C86 C 0.93372 0.77157 0.08272 0.0
C87 C 0.94477 0.75802 0.10521 0.0
C88 C 0.93937 0.80795 0.10386 0.0
C89 C 0.90908 0.7867 0.1398 0.0
C90 C 0.96552 0.69492 0.02464 0.0
C91 C 0.96321 0.68646 0.97246 0.0
C92 C 0.95391 0.69611 0.93261 0.0
C93 C 0.94706 0.71385 0.94389 0.0
C94 C 0.94974 0.72236 0.99538 0.0
C95 C 0.95872 0.713 0.03515 0.0
C96 C 0.96044 0.72494 0.08708 0.0
C97 C 0.94953 0.74197 0.07282 0.0
C98 C 0.94386 0.74047 0.01839 0.0
C99 C 0.98198 0.73131 0.09699 0.0
C100 C 0.95057 0.71301 0.13328 0.0
H101 H 0.90823 0.80527 0.04413 0.0
H102 H 0.92715 0.78838 0.85722 0.0
H103 H 0.90129 0.75089 0.90809 0.0
H104 H 0.91266 0.73138 0.93217 0.0
H105 H 0.91911 0.74121 0.86672 0.0
H106 H 0.96026 0.77367 0.91943 0.0
H107 H 0.94816 0.76339 0.86009 0.0
H108 H 0.9585 0.74838 0.90708 0.0
H109 H 0.93858 0.80664 0.22109 0.0
H110 H 0.97675 0.76646 0.27593 0.0
H111 H 0.96926 0.74604 0.19592 0.0
H112 H 0.95264 0.81339 0.12614 0.0
H113 H 0.92922 0.81903 0.10979 0.0
H114 H 0.94402 0.80781 0.06099 0.0
H115 H 0.90494 0.77394 0.1654 0.0
H116 H 0.89925 0.78493 0.10491 0.0
H117 H 0.90625 0.79983 0.16351 0.0
H118 H 0.90707 0.82858 0.97471 0.0
C119 C 0.91246 0.80117 0.00428 0.0
C120 C 0.81545 0.98536 0.02686 0.0
C121 C 0.82529 0.97766 0.98231 0.0
C122 C 0.81543 0.96326 0.94912 0.0
C123 C 0.7859 0.96798 0.99468 0.0
C124 C 0.79555 0.97955 0.03337 0.0
C125 C 0.782 0.98316 0.08026 0.0
H126 H 0.68746 0.97154 0.16773 0.0
C127 C 0.7655 0.96614 0.00653 0.0
C128 C 0.76263 0.9737 0.05857 0.0
H129 H 0.73593 0.99545 0.26267 0.0
H130 H 0.75741 0.99116 0.18565 0.0
H131 H 0.69536 0.99461 0.07865 0.0
H132 H 0.70612 0.93696 0.10248 0.0
H133 H 0.69722 0.93869 0.03621 0.0
H134 H 0.6835 0.94638 0.09297 0.0
H135 H 0.68118 0.97571 0.0437 0.0
H136 H 0.7022 0.98839 0.01268 0.0
C137 C 0.78194 0.00507 0.08987 0.0
C138 C 0.78855 0.9727 0.13002 0.0
C139 C 0.72171 0.96934 0.84799 0.0
C140 C 0.7019 0.97079 0.84542 0.0
C141 C 0.69022 0.9652 0.89029 0.0
C142 C 0.69845 0.96036 0.9388 0.0
C143 C 0.71849 0.96159 0.94275 0.0
C144 C 0.72972 0.96467 0.89705 0.0
C145 C 0.75068 0.96406 0.90844 0.0
C146 C 0.7501 0.96235 0.97009 0.0
C147 C 0.7313 0.96182 0.98969 0.0
C148 C 0.76211 0.98313 0.89039 0.0
C149 C 0.75738 0.94621 0.87836 0.0
C150 C 0.70276 0.97542 0.17262 0.0
C151 C 0.71005 0.98324 0.22171 0.0
C152 C 0.72999 0.98904 0.22542 0.0
C153 C 0.74242 0.98638 0.18102 0.0
C154 C 0.73478 0.97811 0.13234 0.0
C155 C 0.71512 0.97326 0.12885 0.0
C156 C 0.70874 0.9668 0.07328 0.0
C157 C 0.72791 0.96675 0.04462 0.0
C158 C 0.74337 0.97331 0.07899 0.0
C159 C 0.69622 0.98201 0.0507 0.0
C160 C 0.69822 0.94612 0.07613 0.0
H161 H 0.7889 0.94626 0.93273 0.0
H162 H 0.82298 0.99543 0.05524 0.0
H163 H 0.79101 0.95758 0.11908 0.0
H164 H 0.77776 0.97175 0.16271 0.0
H165 H 0.8022 0.98017 0.14611 0.0
H166 H 0.77886 0.0122 0.05159 0.0
H167 H 0.79612 0.01161 0.10488 0.0
H168 H 0.77086 0.00841 0.11953 0.0
H169 H 0.73084 0.97281 0.8133 0.0
H170 H 0.67486 0.96588 0.88925 0.0
H171 H 0.68902 0.95663 0.9721 0.0
H172 H 0.75663 0.99576 0.91121 0.0
H173 H 0.76099 0.98493 0.84611 0.0
H174 H 0.77758 0.98346 0.8994 0.0
H175 H 0.74827 0.94172 0.84277 0.0
H176 H 0.75685 0.93357 0.90526 0.0
H177 H 0.77207 0.94934 0.86148 0.0
H178 H 0.82282 0.95635 0.91674 0.0
C179 C 0.79583 0.9581 0.95607 0.0
C180 C 0.56607 0.73529 0.21897 0.0
C181 C 0.57428 0.71917 0.2391 0.0
C182 C 0.5914 0.71395 0.21562 0.0
C183 C 0.5899 0.73784 0.1472 0.0
C184 C 0.57459 0.74483 0.17355 0.0
C185 C 0.56941 0.76307 0.14724 0.0
H186 H 0.58154 0.82179 0.92829 0.0
C187 C 0.5939 0.74857 0.09734 0.0
C188 C 0.58258 0.76405 0.09751 0.0
H189 H 0.54864 0.83192 0.07235 0.0
H190 H 0.55706 0.8018 0.10955 0.0
H191 H 0.61868 0.80647 0.98428 0.0
H192 H 0.56636 0.78059 0.91412 0.0
H193 H 0.58159 0.76222 0.90874 0.0
H194 H 0.58775 0.78469 0.87429 0.0
H195 H 0.6125 0.80678 0.91403 0.0
H196 H 0.62404 0.78722 0.94108 0.0
C197 C 0.57462 0.78022 0.18692 0.0
C198 C 0.548 0.76033 0.13166 0.0
C199 C 0.62241 0.71323 0.9418 0.0
C200 C 0.62239 0.71644 0.88598 0.0
C201 C 0.62005 0.7351 0.86785 0.0
C202 C 0.61569 0.74965 0.90451 0.0
C203 C 0.61319 0.74533 0.95954 0.0
C204 C 0.61733 0.72762 0.97766 0.0
C205 C 0.61284 0.72499 0.03671 0.0
C206 C 0.60399 0.7436 0.05008 0.0
C207 C 0.60424 0.75536 0.00481 0.0
C208 C 0.63195 0.72372 0.06715 0.0
C209 C 0.59814 0.7068 0.04248 0.0
C210 C 0.57649 0.81786 0.96846 0.0
C211 C 0.56485 0.82954 0.99792 0.0
C212 C 0.55782 0.82328 0.049 0.0
C213 C 0.56287 0.80593 0.07074 0.0
C214 C 0.57497 0.79468 0.04095 0.0
C215 C 0.58135 0.80073 0.99043 0.0
C216 C 0.59311 0.78673 0.96248 0.0
C217 C 0.59424 0.77203 0.00621 0.0
C218 C 0.58339 0.77645 0.05212 0.0
C219 C 0.61316 0.79728 0.94933 0.0
C220 C 0.58179 0.77813 0.9122 0.0
H221 H 0.61213 0.71853 0.15348 0.0
H222 H 0.55336 0.74012 0.23772 0.0
H223 H 0.5446 0.74645 0.10895 0.0
H224 H 0.54403 0.77186 0.10541 0.0
H225 H 0.5387 0.76002 0.16826 0.0
H226 H 0.5881 0.77843 0.20885 0.0
H227 H 0.56308 0.78128 0.21752 0.0
H228 H 0.57748 0.79414 0.16631 0.0
H229 H 0.62417 0.69906 0.95696 0.0
H230 H 0.62031 0.73803 0.82504 0.0
H231 H 0.61337 0.76335 0.88819 0.0
H232 H 0.64479 0.72691 0.04079 0.0
H233 H 0.63271 0.70904 0.08326 0.0
H234 H 0.63384 0.73444 0.10103 0.0
H235 H 0.58573 0.70759 0.01515 0.0
H236 H 0.59221 0.70489 0.08347 0.0
H237 H 0.60481 0.69343 0.03203 0.0
H238 H 0.59819 0.70187 0.23073 0.0
C239 C 0.59934 0.72335 0.17029 0.0
C240 C 0.30388 0.52269 0.18451 0.0
C241 C 0.31468 0.5322 0.22714 0.0
C242 C 0.30883 0.54936 0.24958 0.0
C243 C 0.282 0.54757 0.18839 0.0
C244 C 0.28769 0.53088 0.16507 0.0
C245 C 0.27464 0.52373 0.11854 0.0
H246 H 0.19984 0.54198 0.95639 0.0
C247 C 0.26515 0.55289 0.15938 0.0
C248 C 0.26097 0.53944 0.11679 0.0
H249 H 0.22886 0.49042 0.95196 0.0
H250 H 0.25014 0.50372 0.02451 0.0
H251 H 0.19211 0.54139 0.06525 0.0
H252 H 0.23711 0.57453 0.98212 0.0
H253 H 0.22807 0.58995 0.03121 0.0
H254 H 0.21207 0.57795 0.98139 0.0
H255 H 0.18986 0.56592 0.04932 0.0
H256 H 0.19904 0.5594 0.11358 0.0
C257 C 0.26405 0.50396 0.13374 0.0
C258 C 0.2868 0.523 0.0665 0.0
C259 C 0.22439 0.60162 0.24219 0.0
C260 C 0.20681 0.60756 0.22549 0.0
C261 C 0.20172 0.60531 0.17057 0.0
C262 C 0.21252 0.59496 0.13487 0.0
C263 C 0.22833 0.58651 0.15444 0.0
C264 C 0.23489 0.59101 0.20602 0.0
C265 C 0.25254 0.58136 0.21849 0.0
C266 C 0.25364 0.56822 0.16873 0.0
C267 C 0.23931 0.57125 0.13186 0.0
C268 C 0.24882 0.56965 0.27081 0.0
C269 C 0.26987 0.59724 0.222 0.0
C270 C 0.21109 0.53372 0.97002 0.0
C271 C 0.213 0.5154 0.94778 0.0
C272 C 0.22727 0.50471 0.9683 0.0
C273 C 0.2395 0.51241 0.01047 0.0
C274 C 0.237 0.53072 0.03329 0.0
C275 C 0.22274 0.54081 0.01298 0.0
C276 C 0.21998 0.55868 0.04529 0.0
C277 C 0.2353 0.55818 0.08779 0.0
C278 C 0.24565 0.54201 0.08057 0.0
C279 C 0.19925 0.55641 0.06951 0.0
C280 C 0.22439 0.57629 0.00824 0.0
H281 H 0.28901 0.57004 0.24972 0.0
H282 H 0.30815 0.50953 0.16632 0.0
H283 H 0.29611 0.53684 0.06156 0.0
H284 H 0.27792 0.52086 0.02987 0.0
H285 H 0.29621 0.51115 0.06798 0.0
H286 H 0.2592 0.50416 0.17663 0.0
H287 H 0.27362 0.49231 0.12867 0.0
H288 H 0.25094 0.50011 0.10982 0.0
H289 H 0.22897 0.60376 0.28374 0.0
H290 H 0.18841 0.6099 0.15617 0.0
H291 H 0.20739 0.59287 0.09434 0.0
H292 H 0.23461 0.56084 0.269 0.0
H293 H 0.24888 0.57941 0.30685 0.0
H294 H 0.25951 0.55943 0.27751 0.0
H295 H 0.26643 0.61132 0.20627 0.0
H296 H 0.28221 0.59342 0.19708 0.0
H297 H 0.27469 0.59994 0.26437 0.0
H298 H 0.31678 0.55682 0.28258 0.0
C299 C 0.29268 0.55705 0.23048 0.0
C300 C 0.09592 0.22475 0.22918 0.0
C301 C 0.10071 0.20603 0.21601 0.0
C302 C 0.11019 0.20301 0.1665 0.0
C303 C 0.10404 0.23464 0.13826 0.0
C304 C 0.09797 0.23899 0.18962 0.0
C305 C 0.09253 0.25935 0.19374 0.0
H306 H 0.05146 0.33009 0.0861 0.0
C307 C 0.09913 0.2497 0.10193 0.0
C308 C 0.0942 0.26516 0.13424 0.0
H309 H 0.09155 0.33626 0.21916 0.0
H310 H 0.10302 0.30557 0.19265 0.0
H311 H 0.08514 0.3136 0.00556 0.0
H312 H 0.03817 0.28096 0.08993 0.0
H313 H 0.03942 0.27354 0.02144 0.0
H314 H 0.03393 0.29763 0.03792 0.0
H315 H 0.0605 0.31597 0.98976 0.0
H316 H 0.0724 0.29626 0.96245 0.0
C317 C 0.10693 0.27125 0.23154 0.0
C318 C 0.07174 0.25926 0.21495 0.0
C319 C 0.07616 0.22409 0.91886 0.0
C320 C 0.06223 0.2291 0.88301 0.0
C321 C 0.05388 0.24644 0.89277 0.0
C322 C 0.05937 0.25844 0.93792 0.0
C323 C 0.07294 0.25273 0.97442 0.0
C324 C 0.08085 0.23563 0.96455 0.0
C325 C 0.09344 0.23039 0.00937 0.0
C326 C 0.09216 0.24742 0.04813 0.0
C327 C 0.08038 0.26071 0.02723 0.0
C328 C 0.11405 0.23008 0.98685 0.0
C329 C 0.0848 0.21067 0.03284 0.0
C330 C 0.06197 0.32438 0.11139 0.0
C331 C 0.06992 0.33517 0.15638 0.0
C332 C 0.08463 0.32792 0.18597 0.0
C333 C 0.09059 0.30987 0.1731 0.0
C334 C 0.08119 0.29861 0.13221 0.0
C335 C 0.06837 0.30627 0.09902 0.0
C336 C 0.06434 0.29358 0.04894 0.0
C337 C 0.07705 0.27743 0.05869 0.0
C338 C 0.08552 0.28013 0.10968 0.0
C339 C 0.07081 0.30541 0.99871 0.0
C340 C 0.0428 0.28603 0.04906 0.0
H341 H 0.11913 0.21459 0.09029 0.0
H342 H 0.0896 0.2278 0.26803 0.0
H343 H 0.06161 0.24991 0.18882 0.0
H344 H 0.06725 0.27408 0.21559 0.0
H345 H 0.07043 0.25385 0.25686 0.0
H346 H 0.11142 0.26234 0.26501 0.0
H347 H 0.10038 0.28329 0.25185 0.0
H348 H 0.12009 0.27694 0.20919 0.0
H349 H 0.08247 0.21062 0.91355 0.0
H350 H 0.04301 0.2506 0.86579 0.0
H351 H 0.05254 0.27141 0.94346 0.0
H352 H 0.11798 0.24261 0.96029 0.0
H353 H 0.11533 0.21665 0.96268 0.0
H354 H 0.12492 0.23122 0.01919 0.0
H355 H 0.0738 0.20272 0.00634 0.0
H356 H 0.07741 0.21261 0.07212 0.0
H357 H 0.09585 0.20059 0.03772 0.0
H358 H 0.11462 0.18902 0.15554 0.0
C359 C 0.11219 0.21747 0.12789 0.0
C360 C 0.29831 0.00949 0.96237 0.0
C361 C 0.31481 1.00155 0.94232 0.0
C362 C 0.32012 0.9846 0.96498 0.0
C363 C 0.29388 0.98418 0.0291 0.0
C364 C 0.28781 1.00028 0.00558 0.0
C365 C 0.26945 0.0057 0.0323 0.0
H366 H 0.20125 0.98454 0.23011 0.0
C367 C 0.28099 0.97845 0.07465 0.0
C368 C 0.26621 0.99065 0.07669 0.0
H369 H 0.20144 0.02995 0.11418 0.0
H370 H 0.2316 0.02096 0.07575 0.0
H371 H 0.21584 0.95114 0.15289 0.0
H372 H 0.24284 0.99459 0.26068 0.0
H373 H 0.25757 0.97582 0.26238 0.0
H374 H 0.2329 0.97154 0.28475 0.0
H375 H 0.21295 0.95115 0.22504 0.0
H376 H 0.23228 0.9402 0.19256 0.0
C377 C 0.2533 0.00334 0.98994 0.0
C378 C 0.27321 0.02642 0.05596 0.0
C379 C 0.30204 0.93027 0.20632 0.0
C380 C 0.29525 0.92458 0.2577 0.0
C381 C 0.27703 0.92919 0.27478 0.0
C382 C 0.26633 0.94038 0.2425 0.0
C383 C 0.2741 0.94737 0.19315 0.0
C384 C 0.29143 0.94184 0.17526 0.0
C385 C 0.29808 0.95141 0.12359 0.0
C386 C 0.28229 0.96435 0.11465 0.0
C387 C 0.26828 0.96182 0.15517 0.0
C388 C 0.29835 0.93544 0.07892 0.0
C389 C 0.31781 0.96325 0.13437 0.0
C390 C 0.20757 0.99237 0.19579 0.0
C391 C 0.19877 0.00761 0.17431 0.0
C392 C 0.20788 0.01796 0.13102 0.0
C393 C 0.2253 0.01267 0.1087 0.0
C394 C 0.2338 0.99708 0.13053 0.0
C395 C 0.2249 0.98751 0.17398 0.0
C396 C 0.2362 0.97239 0.19572 0.0
C397 C 0.25285 0.9734 0.15636 0.0
C398 C 0.25167 0.98789 0.11779 0.0
C399 C 0.22373 0.95263 0.19182 0.0
C400 C 0.24267 0.97871 0.25394 0.0
H401 H 0.31495 0.96325 0.0236 0.0
H402 H 0.29378 0.02239 0.94498 0.0
H403 H 0.28685 0.02816 0.07906 0.0
H404 H 0.26186 0.02997 0.08442 0.0
H405 H 0.2744 0.0372 0.02328 0.0
H406 H 0.25335 0.98931 0.96765 0.0
H407 H 0.25527 0.01509 0.96003 0.0
H408 H 0.2389 0.00326 0.00822 0.0
H409 H 0.31613 0.92725 0.19248 0.0
H410 H 0.27149 0.92488 0.31419 0.0
H411 H 0.25277 0.94378 0.25829 0.0
H412 H 0.28891 0.92213 0.08932 0.0
H413 H 0.31305 0.93121 0.07243 0.0
H414 H 0.2927 0.93994 0.03998 0.0
H415 H 0.31789 0.97055 0.1748 0.0
H416 H 0.3214 0.97502 0.10573 0.0
H417 H 0.32959 0.95377 0.13351 0.0
H418 H 0.33267 0.97827 0.95004 0.0
C419 C 0.30979 0.97591 0.00788 0.0
C420 C 0.47218 0.27717 0.90018 0.0
C421 C 0.46385 0.29242 0.87562 0.0
C422 C 0.44511 0.29603 0.89054 0.0
C423 C 0.44523 0.27325 0.96216 0.0
C424 C 0.4621 0.26721 0.94258 0.0
C425 C 0.46691 0.24948 0.97218 0.0
H426 H 0.45215 0.19582 0.19934 0.0
C427 C 0.43996 0.26319 0.01221 0.0
C428 C 0.45193 0.24844 0.0177 0.0
H429 H 0.48484 0.18144 0.058 0.0
H430 H 0.47727 0.21086 0.01531 0.0
H431 H 0.46573 0.23784 0.20586 0.0
H432 H 0.41538 0.20768 0.13564 0.0
H433 H 0.40847 0.22787 0.1723 0.0
H434 H 0.42038 0.21 0.20667 0.0
H435 H 0.44394 0.23377 0.24397 0.0
H436 H 0.44954 0.25538 0.20532 0.0
C437 C 0.48756 0.25301 0.99406 0.0
C438 C 0.46372 0.23184 0.93298 0.0
C439 C 0.40841 0.30169 0.15553 0.0
C440 C 0.40723 0.29977 0.21184 0.0
C441 C 0.40954 0.2817 0.23416 0.0
C442 C 0.41494 0.2665 0.20141 0.0
C443 C 0.41843 0.26956 0.14606 0.0
C444 C 0.41441 0.28665 0.12359 0.0
C445 C 0.4199 0.28793 0.06484 0.0
C446 C 0.42893 0.26908 0.05662 0.0
C447 C 0.42821 0.25859 0.10443 0.0
C448 C 0.43474 0.30593 0.05776 0.0
C449 C 0.40143 0.2886 0.03098 0.0
C450 C 0.45737 0.19856 0.15865 0.0
C451 C 0.46878 0.18589 0.13186 0.0
C452 C 0.47597 0.19082 0.0798 0.0
C453 C 0.47135 0.20773 0.05466 0.0
C454 C 0.45927 0.21973 0.08156 0.0
C455 C 0.45256 0.21499 0.13274 0.0
C456 C 0.43984 0.22913 0.15578 0.0
C457 C 0.43876 0.2424 0.10845 0.0
C458 C 0.45052 0.2372 0.06533 0.0
C459 C 0.45012 0.23955 0.20539 0.0
C460 C 0.41995 0.21819 0.16872 0.0
H461 H 0.42156 0.28968 0.94397 0.0
H462 H 0.48615 0.27344 0.88738 0.0
H463 H 0.45249 0.23381 0.90265 0.0
H464 H 0.45837 0.21843 0.95391 0.0
H465 H 0.47711 0.22955 0.91054 0.0
H466 H 0.48946 0.26665 0.01851 0.0
H467 H 0.49817 0.25423 0.96037 0.0
H468 H 0.49109 0.24125 0.02025 0.0
H469 H 0.40667 0.31536 0.13713 0.0
H470 H 0.40831 0.27971 0.27737 0.0
H471 H 0.41723 0.25334 0.22093 0.0
H472 H 0.44715 0.3053 0.08514 0.0
H473 H 0.4282 0.31946 0.06708 0.0
H474 H 0.44047 0.30742 0.01643 0.0
H475 H 0.3882 0.28785 0.05636 0.0
H476 H 0.39925 0.27618 1.002 0.0
H477 H 0.40187 0.30222 0.00817 0.0
H478 H 0.4382 0.30725 0.87114 0.0
C479 C 0.43566 0.28628 0.93328 0.0
Dy480 Dy 0.01591 0.99958 0.62488 0.0
C481 C 0.00588 0.03335 0.41977 0.0
C482 C 0.0136 0.98358 0.7247 0.0
Dy483 Dy 1.00361 0.01759 0.51985 0.0
O484 O 0.02635 0.98054 0.68795 0.0
O485 O 1.00308 0.99647 0.70781 0.0
O486 O 0.04388 0.99297 0.58735 0.0
O487 O 0.03071 0.01678 0.56135 0.0
C488 C 0.04409 0.00641 0.55153 0.0
C489 C 0.97571 0.0109 0.5943 0.0
O490 O 1.00171 0.98626 0.49327 0.0
O491 O 1.00453 0.97296 0.57787 0.0
O492 O 0.99275 0.03601 0.45577 0.0
O493 O 0.01693 0.0211 0.43763 0.0
O494 O 0.97588 0.02454 0.55904 0.0
O495 O 0.98895 1.00049 0.58338 0.0
O496 O 0.01742 0.03089 0.65151 0.0
O497 O 0.01478 0.0442 0.56681 0.0
C498 C 1.00178 0.97108 0.52497 0.0
C499 C 0.01729 0.04606 0.61978 0.0
Dy500 Dy 0.49754 0.99235 0.5463 0.0
C501 C 0.55708 0.04516 0.63485 0.0
C502 C 0.46558 0.97023 0.51026 0.0
Dy503 Dy 0.52426 0.0238 0.60131 0.0
O504 O 0.4831 0.96685 0.49948 0.0
O505 O 0.46555 0.98582 0.53984 0.0
O506 O 0.52269 0.97694 0.51891 0.0
O507 O 0.52575 0.00716 0.5264 0.0
C508 C 0.53465 0.99257 0.51718 0.0
C509 C 0.48742 0.02341 0.63216 0.0
O510 O 0.51551 0.04113 0.53277 0.0
O511 O 0.49326 0.01773 0.49406 0.0
O512 O 0.54357 0.03767 0.66679 0.0
O513 O 0.55231 0.04128 0.58511 0.0
O514 O 0.49943 0.03905 0.63143 0.0
O515 O 0.49626 0.00885 0.62186 0.0
O516 O 0.50356 0.97704 0.62137 0.0
O517 O 0.53127 0.99675 0.64289 0.0
C518 C 0.50238 0.03548 0.496 0.0
C519 C 0.51956 0.98064 0.64955 0.0
Dy520 Dy 0.50792 0.52047 0.62196 0.0
C521 C 0.49153 0.47418 0.43264 0.0
C522 C 0.51794 0.54611 0.70399 0.0
Dy523 Dy 0.51081 0.49635 0.50958 0.0
O524 O 0.50587 0.54866 0.66586 0.0
O525 O 0.5236 0.529 0.69892 0.0
O526 O 0.47549 0.5147 0.6174 0.0
O527 O 0.49234 0.51614 0.54699 0.0
C528 C 0.47549 0.5125 0.56486 0.0
C529 C 0.5434 0.4982 0.56796 0.0
O530 O 0.51731 0.5264 0.47883 0.0
O531 O 0.52263 0.54185 0.56332 0.0
O532 O 0.5096 0.48105 0.42792 0.0
O533 O 0.48452 0.47944 0.47854 0.0
O534 O 0.54152 0.48882 0.52161 0.0
O535 O 0.52801 0.50539 0.57725 0.0
O536 O 0.50587 0.49039 0.65371 0.0
O537 O 0.50093 0.47392 0.57083 0.0
C538 C 0.52278 0.54197 0.50941 0.0
C539 C 0.50181 0.47426 0.62446 0.0
Dy540 Dy 0.99455 0.48618 0.6246 0.0
C541 C 0.03946 0.54103 0.48722 0.0
C542 C 0.97174 0.46758 0.70081 0.0
Dy543 Dy 0.01539 0.51737 0.54992 0.0
O544 O 0.98759 0.46187 0.68199 0.0
O545 O 0.96869 0.48386 0.67926 0.0
O546 O 0.99747 0.45956 0.57319 0.0
O547 O 0.00857 0.48647 0.54639 0.0
C548 C 0.00656 0.46874 0.53407 0.0
C549 C 0.9953 0.53058 0.63326 0.0
O550 O 0.98822 0.51044 0.50332 0.0
O551 O 0.97064 0.4956 0.57409 0.0
O552 O 0.03157 0.5461 0.53202 0.0
O553 O 0.03413 0.52292 0.47612 0.0
O554 O 0.99629 0.5381 0.58561 0.0
O555 O 0.00549 0.51667 0.63444 0.0
O556 O 0.02337 0.48998 0.6646 0.0
O557 O 0.04001 0.50835 0.59814 0.0
C558 C 0.97168 0.50321 0.52513 0.0
C559 C 0.03958 0.4984 0.64353 0.0
H560 H 0.19049 0.04209 0.21986 0.0
H561 H 0.16265 0.04734 0.27767 0.0
H562 H 0.13831 0.9888 0.2447 0.0
H563 H 0.16597 0.98353 0.18739 0.0
H564 H 0.11064 0.01805 0.24826 0.0
H565 H 0.15833 0.0197 0.4276 0.0
H566 H 0.16544 0.03614 0.37414 0.0
H567 H 0.16534 0.01061 0.36242 0.0
C568 C 0.17891 0.03057 0.22379 0.0
C569 C 0.18039 0.01241 0.19916 0.0
C570 C 0.1631 0.03351 0.25716 0.0
C571 C 0.14847 0.01838 0.26605 0.0
C572 C 0.14938 1.00068 0.23856 0.0
H573 H 0.07213 0.9838 0.52471 0.0
H574 H 0.09683 0.98897 0.45458 0.0
C575 C 0.16519 0.99769 0.20577 0.0
C576 C 0.13312 0.02013 0.30743 0.0
H577 H 0.12542 0.02057 0.44402 0.0
C578 C 0.11386 0.01889 0.29107 0.0
C579 C 0.13732 0.021 0.36332 0.0
C580 C 0.15768 0.02182 0.38332 0.0
C581 C 0.0987 0.01814 0.32908 0.0
C582 C 0.10291 0.0186 0.38498 0.0
C583 C 0.12219 0.02027 0.40123 0.0
C584 C 0.0876 0.0158 0.42727 0.0
C585 C 0.07827 0.0161 0.30918 0.0
C586 C 0.0742 0.02925 0.4358 0.0
C587 C 0.06007 0.02635 0.47631 0.0
C588 C 0.05902 0.00991 0.50882 0.0
C589 C 0.07252 0.99659 0.50035 0.0
C590 C 0.08665 0.99953 0.46021 0.0
H591 H 0.07735 0.01227 0.26543 0.0
H592 H 0.06929 0.00489 0.33206 0.0
H593 H 0.07216 0.03003 0.31564 0.0
H594 H 0.07479 0.04208 0.41155 0.0
H595 H 0.05006 0.03703 0.48239 0.0
H596 H 0.50178 0.16733 0.12796 0.0
H597 H 0.50833 0.13862 0.17727 0.0
H598 H 0.45187 0.13561 0.24946 0.0
H599 H 0.44463 0.1629 0.19712 0.0
H600 H 0.51169 0.13349 0.27813 0.0
H601 H 0.45199 0.08067 0.21264 0.0
H602 H 0.45736 0.10347 0.17958 0.0
H603 H 0.44231 0.10168 0.23923 0.0
C604 C 0.49056 0.16022 0.15311 0.0
C605 C 0.47272 0.16766 0.15867 0.0
C606 C 0.49439 0.14387 0.18175 0.0
C607 C 0.4805 0.13463 0.21667 0.0
C608 C 0.46268 0.14197 0.22176 0.0
H609 H 0.50399 0.07463 0.50598 0.0
H610 H 0.4992 0.09772 0.43566 0.0
C611 C 0.45871 0.15798 0.19248 0.0
C612 C 0.48495 0.1183 0.25097 0.0
H613 H 0.46553 0.07497 0.3002 0.0
C614 C 0.50173 0.12055 0.28219 0.0
C615 C 0.4723 0.10109 0.25568 0.0
C616 C 0.45513 0.09652 0.21943 0.0
C617 C 0.50571 0.10661 0.3196 0.0
C618 C 0.4921 0.09033 0.32811 0.0
C619 C 0.4758 0.08762 0.29496 0.0
C620 C 0.49429 0.07615 0.37152 0.0
C621 C 0.52464 0.10947 0.34896 0.0
C622 C 0.49193 0.05615 0.36012 0.0
C623 C 0.49393 0.04286 0.40093 0.0
C624 C 0.49863 0.04932 0.45377 0.0
C625 C 0.50063 0.06926 0.46542 0.0
C626 C 0.49813 0.08249 0.425 0.0
H627 H 0.53582 0.11785 0.32433 0.0
H628 H 0.52288 0.11786 0.38693 0.0
H629 H 0.52985 0.09547 0.35899 0.0
H630 H 0.48881 0.05079 0.31942 0.0
H631 H 0.49238 0.02757 0.39075 0.0
H632 H 0.31798 0.49738 0.27457 0.0
H633 H 0.34471 0.48955 0.33147 0.0
H634 H 0.37691 0.54354 0.28979 0.0
H635 H 0.35037 0.55139 0.23357 0.0
H636 H 0.38619 0.48809 0.31433 0.0
H637 H 0.36978 0.54668 0.45677 0.0
H638 H 0.35326 0.53694 0.40503 0.0
H639 H 0.37325 0.55421 0.3881 0.0
C640 C 0.33102 0.50725 0.27635 0.0
C641 C 0.33211 0.525 0.24981 0.0
C642 C 0.34621 0.50285 0.30914 0.0
C643 C 0.36263 0.51618 0.31585 0.0
C644 C 0.36425 0.53322 0.28608 0.0
H645 H 0.47421 0.51564 0.45545 0.0
H646 H 0.44597 0.51378 0.39761 0.0
C647 C 0.34915 0.53761 0.25362 0.0
C648 C 0.37758 0.51312 0.35635 0.0
H649 H 0.39932 0.53346 0.47009 0.0
C650 C 0.38898 0.4979 0.34862 0.0
C651 C 0.38099 0.5257 0.40177 0.0
C652 C 0.36857 0.5417 0.41389 0.0
C653 C 0.40424 0.49547 0.38375 0.0
C654 C 0.40831 0.50871 0.42744 0.0
C655 C 0.39635 0.5234 0.43642 0.0
C656 C 0.42543 0.50824 0.46263 0.0
C657 C 0.41582 0.47869 0.3742 0.0
C658 C 0.42339 0.50602 0.51881 0.0
C659 C 0.43962 0.507 0.55216 0.0
C660 C 0.45818 0.51041 0.52999 0.0
C661 C 0.46014 0.51267 0.47379 0.0
C662 C 0.44398 0.51153 0.44054 0.0
H663 H 0.40831 0.46746 0.3471 0.0
H664 H 0.42974 0.4839 0.35507 0.0
H665 H 0.4188 0.47199 0.41312 0.0
H666 H 0.40922 0.50369 0.5369 0.0
H667 H 0.43763 0.50535 0.59531 0.0
H668 H 0.09159 0.36949 0.17608 0.0
H669 H 0.08169 0.3976 0.22561 0.0
H670 H 0.02331 0.37075 0.22911 0.0
H671 H 0.03315 0.34264 0.1787 0.0
H672 H 0.02707 0.41259 0.21852 0.0
H673 H 0.06998 0.38813 0.38717 0.0
H674 H 0.08293 0.3929 0.32513 0.0
H675 H 0.06408 0.37328 0.32787 0.0
C676 C 0.07656 0.36981 0.18622 0.0
C677 C 0.06316 0.35381 0.17412 0.0
C678 C 0.07093 0.38585 0.21462 0.0
C679 C 0.05185 0.38609 0.23206 0.0
C680 C 0.03813 0.37083 0.21618 0.0
H681 H 1.00161 0.43061 0.51114 0.0
H682 H 0.01325 0.41329 0.4334 0.0
C683 C 0.04374 0.35481 0.18727 0.0
C684 C 0.04673 0.40092 0.27214 0.0
H685 H 0.0541 0.41569 0.40348 0.0
C686 C 0.03312 0.41345 0.25877 0.0
C687 C 0.05452 0.40187 0.32488 0.0
C688 C 0.06856 0.38826 0.34252 0.0
C689 C 0.02693 0.42674 0.29709 0.0
C690 C 0.03457 0.42747 0.34986 0.0
C691 C 0.04845 0.41523 0.36275 0.0
C692 C 0.02667 0.43884 0.3945 0.0
C693 C 0.01169 0.43933 0.2819 0.0
C694 C 0.03029 0.4591 0.39843 0.0
C695 C 0.02364 0.46917 0.44344 0.0
C696 C 0.01334 0.45905 0.48487 0.0
C697 C 0.00955 0.43885 0.48004 0.0
C698 C 0.01617 0.42889 0.43554 0.0
H699 H 0.00626 0.43612 0.2403 0.0
H700 H 0.99944 0.43731 0.31074 0.0
H701 H 0.01767 0.45474 0.28456 0.0
H702 H 0.03854 0.46703 0.36735 0.0
H703 H 0.02673 0.48473 0.44615 0.0
H704 H 0.85613 0.957 0.97789 0.0
H705 H 0.88501 0.9643 0.92253 0.0
H706 H 0.8674 0.02024 0.88814 0.0
H707 H 0.83869 0.01304 0.94452 0.0
H708 H 0.88231 0.96944 0.81576 0.0
H709 H 0.92461 0.0339 0.905 0.0
H710 H 0.90613 0.01962 0.94234 0.0
H711 H 0.89983 0.03722 0.89525 0.0
C712 C 0.85893 0.97122 0.96067 0.0
C713 C 0.84532 0.98459 0.96631 0.0
C714 C 0.87534 0.97531 0.92846 0.0
C715 C 0.87852 0.99285 0.90096 0.0
C716 C 0.86559 0.00677 0.90962 0.0
H717 H 0.94999 0.03512 0.63018 0.0
H718 H 0.92703 0.03036 0.70521 0.0
C719 C 0.84919 0.00271 0.9422 0.0
C720 C 0.89376 0.9954 0.85817 0.0
H721 H 0.9323 0.02551 0.81387 0.0
C722 C 0.89337 0.98161 0.81577 0.0
C723 C 0.90813 0.01135 0.85758 0.0
C724 C 0.90986 0.02628 0.90274 0.0
C725 C 0.90654 0.9835 0.77249 0.0
C726 C 0.92087 0.99949 0.77173 0.0
C727 C 0.92136 0.01325 0.81427 0.0
C728 C 0.93515 0.00238 0.72658 0.0
C729 C 0.90454 0.96866 0.72705 0.0
C730 C 0.94755 0.98833 0.71353 0.0
C731 C 0.96062 0.99098 0.67038 0.0
C732 C 0.96173 0.00784 0.63964 0.0
C733 C 0.94945 0.02195 0.65296 0.0
C734 C 0.93637 0.01928 0.69606 0.0
H735 H 0.88998 0.96056 0.72628 0.0
H736 H 0.90738 0.97553 0.68728 0.0
H737 H 0.91509 0.95807 0.7327 0.0
H738 H 0.94718 0.97531 0.73687 0.0
H739 H 0.96984 0.97982 0.66106 0.0
H740 H 0.52975 0.84392 0.9945 0.0
H741 H 0.52148 0.87156 0.94237 0.0
H742 H 0.58064 0.88372 0.89353 0.0
H743 H 0.58906 0.85651 0.9459 0.0
H744 H 0.54054 0.91471 0.94052 0.0
H745 H 0.54588 0.87076 0.7518 0.0
H746 H 0.54179 0.85995 0.81718 0.0
H747 H 0.56527 0.87089 0.79913 0.0
C748 C 0.54105 0.85277 0.97371 0.0
C749 C 0.56002 0.84785 0.97377 0.0
C750 C 0.5363 0.8685 0.94381 0.0
C751 C 0.55043 0.87951 0.91362 0.0
C752 C 0.5695 0.87529 0.91611 0.0
H753 H 0.54938 0.98345 0.72209 0.0
H754 H 0.55651 0.95952 0.78837 0.0
C755 C 0.57426 0.85968 0.94592 0.0
C756 C 0.54521 0.89448 0.87621 0.0
H757 H 0.54125 0.90357 0.74192 0.0
C758 C 0.54062 0.91231 0.89711 0.0
C759 C 0.54525 0.89123 0.81965 0.0
C760 C 0.54968 0.87215 0.79528 0.0
C761 C 0.53632 0.92711 0.86267 0.0
C762 C 0.53676 0.92398 0.806 0.0
C763 C 0.54106 0.90601 0.78532 0.0
C764 C 0.53226 0.93889 0.76721 0.0
C765 C 0.53109 0.94588 0.88709 0.0
C766 C 0.51648 0.93513 0.73268 0.0
C767 C 0.5124 0.94871 0.69476 0.0
C768 C 0.52412 0.96635 0.69009 0.0
C769 C 0.54002 0.97006 0.72459 0.0
C770 C 0.54405 0.95645 0.76279 0.0
H771 H 0.52739 0.94451 0.93065 0.0
H772 H 0.5435 0.9571 0.88314 0.0
H773 H 0.51876 0.9509 0.86554 0.0
H774 H 0.50726 0.92164 0.73512 0.0
H775 H 0.50005 0.94528 0.66891 0.0
H776 H 0.6693 0.45639 0.90013 0.0
H777 H 0.64275 0.46239 0.84146 0.0
H778 H 0.66438 0.52266 0.83557 0.0
H779 H 0.69121 0.51669 0.89439 0.0
H780 H 0.61384 0.48903 0.85299 0.0
H781 H 0.66142 0.50341 0.67401 0.0
H782 H 0.66907 0.49166 0.73323 0.0
H783 H 0.66775 0.51727 0.7346 0.0
C784 C 0.66836 0.47097 0.88666 0.0
C785 C 0.68246 0.48605 0.90159 0.0
C786 C 0.65313 0.47438 0.85323 0.0
C787 C 0.65169 0.4929 0.83343 0.0
C788 C 0.66533 0.50819 0.84981 0.0
H789 H 0.55343 0.52453 0.64859 0.0
H790 H 0.5794 0.52419 0.71437 0.0
C791 C 0.68055 0.50481 0.88379 0.0
C792 C 0.63624 0.49584 0.79434 0.0
H793 H 0.62829 0.5047 0.66138 0.0
C794 C 0.61699 0.49265 0.81123 0.0
C795 C 0.64036 0.50028 0.73963 0.0
C796 C 0.66074 0.50324 0.71884 0.0
C797 C 0.60178 0.49373 0.77493 0.0
C798 C 0.60591 0.49816 0.72023 0.0
C799 C 0.62515 0.50141 0.70335 0.0
C800 C 0.5904 0.49878 0.67965 0.0
C801 C 0.58139 0.48958 0.79493 0.0
C802 C 0.58818 0.48493 0.63744 0.0
C803 C 0.57311 0.48495 0.60046 0.0
C804 C 0.56002 0.49886 0.60494 0.0
C805 C 0.56274 0.51315 0.64583 0.0
C806 C 0.57771 0.51307 0.68301 0.0
H807 H 0.58066 0.483 0.83551 0.0
H808 H 0.57465 0.50329 0.79764 0.0
H809 H 0.57283 0.4797 0.7663 0.0
H810 H 0.59788 0.47385 0.63379 0.0
H811 H 0.57147 0.47385 0.56907 0.0
H812 H 0.9536 0.65123 0.01846 0.0
H813 H 0.95999 0.61951 0.98082 0.0
H814 H 0.99388 0.64787 0.85345 0.0
H815 H 0.98761 0.67931 0.8909 0.0
H816 H 0.94842 0.6065 0.87856 0.0
H817 H 0.02692 0.60603 0.89559 0.0
H818 H 0.01373 0.62235 0.93506 0.0
H819 H 0.02086 0.62798 0.86664 0.0
C820 C 0.96293 0.65061 0.98352 0.0
C821 C 0.97021 0.66767 0.95769 0.0
C822 C 0.96647 0.63252 0.96183 0.0
C823 C 0.97759 0.63127 0.91457 0.0
C824 C 0.98561 0.64839 0.8905 0.0
H825 H 0.97395 0.56083 0.63557 0.0
H826 H 0.9682 0.58207 0.71226 0.0
C827 C 0.98196 0.66637 0.9118 0.0
C828 C 0.97911 0.6124 0.88636 0.0
H829 H 0.0115 0.58583 0.82414 0.0
C830 C 0.96221 0.60174 0.86767 0.0
C831 C 0.99705 0.60599 0.87258 0.0
C832 C 0.01565 0.61609 0.89402 0.0
C833 C 0.96283 0.58568 0.83258 0.0
C834 C 0.98083 0.58028 0.81516 0.0
C835 C 0.99768 0.59008 0.83692 0.0
C836 C 0.98255 0.56592 0.77049 0.0
C837 C 0.9442 0.57496 0.81335 0.0
C838 C 0.99254 0.54968 0.7775 0.0
C839 C 0.99583 0.53743 0.73345 0.0
C840 C 0.98946 0.54144 0.68157 0.0
C841 C 0.97898 0.55734 0.67508 0.0
C842 C 0.97559 0.56945 0.71901 0.0
H843 H 0.93242 0.57644 0.84294 0.0
H844 H 0.94008 0.58114 0.77472 0.0
H845 H 0.9456 0.55936 0.80639 0.0
H846 H 0.99815 0.54674 0.81677 0.0
H847 H 1.00404 0.52534 0.73958 0.0
H848 H 0.06543 0.20001 0.26342 0.0
H849 H 0.04971 0.16973 0.29724 0.0
H850 H 0.10173 0.14278 0.27171 0.0
H851 H 0.11785 0.17328 0.23849 0.0
H852 H 0.06879 0.12361 0.21979 0.0
H853 H 0.05427 0.1393 0.43592 0.0
H854 H 0.04711 0.15705 0.39083 0.0
H855 H 0.07211 0.15381 0.39694 0.0
C856 C 0.07385 0.18792 0.26693 0.0
C857 C 0.09294 0.18911 0.2481 0.0
C858 C 0.06475 0.17054 0.28602 0.0
C859 C 0.07456 0.15404 0.28697 0.0
C860 C 0.09392 0.15538 0.2711 0.0
H861 H 0.03841 0.03491 0.35883 0.0
H862 H 0.0544 0.06388 0.31743 0.0
C863 C 0.10308 0.17281 0.25215 0.0
C864 C 0.06402 0.1351 0.29963 0.0
H865 H 0.03718 0.11103 0.39737 0.0
C866 C 0.062 0.12075 0.25874 0.0
C867 C 0.05508 0.13154 0.35028 0.0
C868 C 0.05736 0.14616 0.39622 0.0
C869 C 0.05086 0.10303 0.26684 0.0
C870 C 0.04176 0.09955 0.31736 0.0
C871 C 0.04397 0.11384 0.35837 0.0
C872 C 0.03058 0.08091 0.3301 0.0
C873 C 0.04859 0.08838 0.22099 0.0
C874 C 0.01162 0.08062 0.34907 0.0
C875 C 1.00248 0.06409 0.37306 0.0
C876 C 0.01227 0.04767 0.37867 0.0
C877 C 0.03051 0.04735 0.35483 0.0
C878 C 0.03968 0.06392 0.3311 0.0
H879 H 0.05171 0.09523 0.18128 0.0
H880 H 0.05882 0.07748 0.22649 0.0
H881 H 0.03383 0.08075 0.22021 0.0
H882 H 1.00435 0.0936 0.34852 0.0
H883 H 0.98844 0.06473 0.39119 0.0
H884 H 0.30283 0.93781 0.3599 0.0
H885 H 0.33166 0.93403 0.41114 0.0
H886 H 0.34766 0.89193 0.29376 0.0
H887 H 0.31887 0.89601 0.24132 0.0
H888 H 0.35186 0.90613 0.45696 0.0
H889 H 0.38843 0.93741 0.27284 0.0
H890 H 0.36275 0.93555 0.28122 0.0
H891 H 0.37438 0.91447 0.26376 0.0
C892 C 0.31205 0.92716 0.34605 0.0
C893 C 0.30879 0.91743 0.29618 0.0
C894 C 0.32859 0.92506 0.37534 0.0
C895 C 0.34205 0.91312 0.35538 0.0
C896 C 0.33765 0.90158 0.30909 0.0
H897 H 0.46342 0.93848 0.44329 0.0
H898 H 0.4342 0.91959 0.40944 0.0
C899 C 0.32119 0.90384 0.27935 0.0
C900 C 0.36167 0.91543 0.37807 0.0
H901 H 0.40708 0.93571 0.34957 0.0
C902 C 0.36405 0.91224 0.4333 0.0
C903 C 0.37753 0.92351 0.3471 0.0
C904 C 0.37573 0.9281 0.28807 0.0
C905 C 0.38167 0.91768 0.45887 0.0
C906 C 0.39716 0.92668 0.42843 0.0
C907 C 0.39514 0.92876 0.37267 0.0
C908 C 0.41477 0.93624 0.45411 0.0
C909 C 0.3834 0.91428 0.51849 0.0
C910 C 0.41346 0.95187 0.49013 0.0
C911 C 0.43005 0.96273 0.50903 0.0
C912 C 0.44821 0.95817 0.49201 0.0
C913 C 0.44956 0.94227 0.4569 0.0
C914 C 0.43293 0.93145 0.4378 0.0
H915 H 0.37306 0.90202 0.53169 0.0
H916 H 0.39816 0.91126 0.52896 0.0
H917 H 0.38012 0.9274 0.5414 0.0
H918 H 0.3996 0.95613 0.50209 0.0
H919 H 0.42864 0.97492 0.53612 0.0
H920 H 0.42983 0.30881 0.29948 0.0
H921 H 0.43856 0.34091 0.33786 0.0
H922 H 0.39645 0.36373 0.23825 0.0
H923 H 0.38729 0.33136 0.19997 0.0
H924 H 0.43422 0.38097 0.2227 0.0
H925 H 0.41512 0.37896 0.4402 0.0
H926 H 0.42766 0.35898 0.41837 0.0
H927 H 0.40429 0.36149 0.39153 0.0
C928 C 0.42173 0.3204 0.28748 0.0
C929 C 0.40794 0.31752 0.24629 0.0
C930 C 0.42685 0.33883 0.30932 0.0
C931 C 0.4182 0.35468 0.29071 0.0
C932 C 0.40332 0.35165 0.25293 0.0
H933 H 0.45321 0.46791 0.42751 0.0
H934 H 0.43412 0.44057 0.38444 0.0
C935 C 0.39811 0.33316 0.2312 0.0
C936 C 0.42654 0.37448 0.30535 0.0
H937 H 0.43931 0.40401 0.41331 0.0
C938 C 0.43508 0.38619 0.26428 0.0
C939 C 0.42762 0.38119 0.35951 0.0
C940 C 0.41802 0.36957 0.40489 0.0
C941 C 0.44527 0.40422 0.27626 0.0
C942 C 0.44712 0.4105 0.33071 0.0
C943 C 0.43802 0.39907 0.37154 0.0
C944 C 0.45843 0.42884 0.34699 0.0
C945 C 0.454 0.41634 0.23072 0.0
C946 C 0.47841 0.43169 0.33842 0.0
C947 C 0.48939 0.44753 0.36264 0.0
C948 C 0.48045 0.46042 0.39612 0.0
C949 C 0.46039 0.45815 0.40173 0.0
C950 C 0.44948 0.44253 0.37733 0.0
H951 H 0.44715 0.41195 0.19143 0.0
H952 H 0.45265 0.43191 0.23851 0.0
H953 H 0.4695 0.41448 0.22728 0.0
H954 H 0.48563 0.42108 0.31582 0.0
H955 H 0.50487 0.44889 0.35835 0.0
H956 H 0.1985 0.58879 0.31921 0.0
H957 H 0.1685 0.5874 0.36911 0.0
H958 H 0.15045 0.6331 0.27297 0.0
H959 H 0.18067 0.63446 0.22177 0.0
H960 H 0.14628 0.61006 0.42717 0.0
H961 H 0.11237 0.58736 0.22995 0.0
H962 H 0.13804 0.59064 0.23841 0.0
H963 H 0.12482 0.61128 0.23354 0.0
C964 C 0.18858 0.59915 0.30989 0.0
C965 C 0.19186 0.61152 0.2658 0.0
C966 C 0.1713 0.59824 0.3384 0.0
C967 C 0.157 0.60972 0.32361 0.0
C968 C 0.1611 0.62372 0.28393 0.0
H969 H 0.04863 0.57971 0.50123 0.0
H970 H 0.0752 0.59994 0.45917 0.0
C971 C 0.1784 0.62455 0.25495 0.0
C972 C 0.13728 0.60487 0.34484 0.0
H973 H 0.09319 0.58326 0.30715 0.0
C974 C 0.13451 0.60454 0.40102 0.0
C975 C 0.12208 0.5974 0.31044 0.0
C976 C 0.1244 0.5965 0.24976 0.0
C977 C 0.11734 0.59601 0.42387 0.0
C978 C 0.10234 0.5881 0.38943 0.0
C979 C 0.10472 0.58938 0.3333 0.0
C980 C 0.08493 0.57666 0.41059 0.0
C981 C 0.11595 0.59439 0.48453 0.0
C982 C 0.08097 0.55711 0.39502 0.0
C983 C 0.0656 0.54564 0.4182 0.0
C984 C 0.05404 0.55352 0.45751 0.0
C985 C 0.05748 0.57326 0.47131 0.0
C986 C 0.07271 0.58479 0.44765 0.0
H987 H 0.13019 0.5974 0.50416 0.0
H988 H 0.10657 0.60504 0.50072 0.0
H989 H 0.10958 0.57974 0.49608 0.0
H990 H 0.09018 0.55057 0.36626 0.0
H991 H 0.06323 0.53045 0.40691 0.0
H992 H 0.89848 0.84232 0.89227 0.0
H993 H 0.91279 0.87326 0.85719 0.0
H994 H 0.9642 0.84744 0.81425 0.0
H995 H 0.95031 0.81678 0.84976 0.0
H996 H 0.9461 0.89109 0.90625 0.0
H997 H 0.95754 0.88194 0.68602 0.0
H998 H 0.94055 0.86599 0.72379 0.0
H999 H 0.96571 0.86283 0.72434 0.0
C1000 C 0.91261 0.8431 0.87391 0.0
C1001 C 0.92331 0.8271 0.87442 0.0
C1002 C 0.92075 0.86078 0.85389 0.0
C1003 C 0.93955 0.86262 0.83327 0.0
C1004 C 0.94956 0.84626 0.82921 0.0
H1005 H 0.02887 0.95037 0.74755 0.0
H1006 H 0.01085 0.92135 0.7835 0.0
C1007 C 0.9415 0.82864 0.84939 0.0
C1008 C 0.94983 0.88193 0.82351 0.0
H1009 H 0.97677 0.90813 0.72999 0.0
C1010 C 0.9526 0.89498 0.86752 0.0
C1011 C 0.95839 0.88683 0.77313 0.0
C1012 C 0.95526 0.87374 0.72399 0.0
C1013 C 0.96432 0.91254 0.86296 0.0
C1014 C 0.97328 0.91719 0.81294 0.0
C1015 C 0.9701 0.90436 0.76859 0.0
C1016 C 0.9857 0.93546 0.80468 0.0
C1017 C 0.96751 0.92566 0.91202 0.0
C1018 C 0.97794 0.9532 0.8079 0.0
C1019 C 0.98832 0.96986 0.78812 0.0
C1020 C 0.00642 0.96886 0.7639 0.0
C1021 C 0.01494 0.95154 0.76595 0.0
C1022 C 1.0046 0.93492 0.78601 0.0
H1023 H 0.9637 0.91787 0.95001 0.0
H1024 H 0.9827 0.93207 0.91433 0.0
H1025 H 0.95833 0.93763 0.90917 0.0
H1026 H 0.96331 0.95391 0.82167 0.0
H1027 H 0.98142 0.98305 0.78708 0.0
H1028 H 0.66786 0.96131 0.79274 0.0
H1029 H 0.65162 0.98239 0.73494 0.0
H1030 H 0.70135 0.02467 0.73965 0.0
H1031 H 0.71752 0.00387 0.79839 0.0
H1032 H 0.66922 0.03934 0.77546 0.0
H1033 H 0.65454 1.0016 0.58061 0.0
H1034 H 0.64716 0.98552 0.63432 0.0
H1035 H 0.67216 0.99449 0.62697 0.0
C1036 C 0.67551 0.97486 0.78027 0.0
C1037 C 0.69389 0.98097 0.80033 0.0
C1038 C 0.66631 0.98682 0.74681 0.0
C1039 C 0.67536 0.00504 0.73274 0.0
C1040 C 0.6942 0.01061 0.74972 0.0
H1041 H 0.58687 0.0585 0.57031 0.0
H1042 H 0.62079 0.05697 0.5899 0.0
C1043 C 0.70344 0.99863 0.78303 0.0
C1044 C 0.66393 0.01923 0.7084 0.0
H1045 H 0.63011 0.02224 0.61213 0.0
C1046 C 0.66106 0.03596 0.73879 0.0
C1047 C 0.65366 0.01511 0.66002 0.0
C1048 C 0.65723 0.99828 0.62341 0.0
C1049 C 0.64668 0.04748 0.72512 0.0
C1050 C 0.63476 0.0419 0.68057 0.0
C1051 C 0.63906 0.02642 0.64687 0.0
C1052 C 0.61594 0.04931 0.67352 0.0
C1053 C 0.64376 0.06491 0.76012 0.0
C1054 C 0.60212 0.04666 0.71494 0.0
C1055 C 0.58276 0.04764 0.70393 0.0
C1056 C 0.57699 0.05101 0.6512 0.0
C1057 C 0.59099 0.05579 0.61132 0.0
C1058 C 0.61037 0.0549 0.6224 0.0
H1059 H 0.65768 0.07169 0.77633 0.0
H1060 H 0.63683 0.07588 0.7375 0.0
H1061 H 0.6345 0.06031 0.79511 0.0
H1062 H 0.606 0.04196 0.75442 0.0
H1063 H 0.57223 0.04385 0.73529 0.0
H1064 H 0.59647 0.70983 0.80494 0.0
H1065 H 0.58423 0.67832 0.76811 0.0
H1066 H 0.62935 0.6524 0.84758 0.0
H1067 H 0.64182 0.68411 0.88491 0.0
H1068 H 0.59672 0.64658 0.71029 0.0
H1069 H 0.57998 0.63025 0.92605 0.0
H1070 H 0.58826 0.65427 0.90412 0.0
H1071 H 0.60486 0.63646 0.90948 0.0
C1072 C 0.60439 0.69765 0.81267 0.0
C1073 C 0.61992 0.69941 0.84872 0.0
C1074 C 0.59725 0.67956 0.79186 0.0
C1075 C 0.60553 0.663 0.80661 0.0
C1076 C 0.62249 0.665 0.83692 0.0
H1077 H 0.54963 0.54472 0.76636 0.0
H1078 H 0.57221 0.5724 0.79459 0.0
C1079 C 0.62964 0.68312 0.85791 0.0
C1080 C 0.59477 0.64381 0.79663 0.0
H1081 H 0.56762 0.60735 0.86115 0.0
C1082 C 0.59058 0.63786 0.74321 0.0
C1083 C 0.58663 0.63257 0.83983 0.0
C1084 C 0.58998 0.6387 0.89815 0.0
C1085 C 0.57812 0.62115 0.73181 0.0
C1086 C 0.56949 0.61033 0.775 0.0
C1087 C 0.57425 0.6158 0.82832 0.0
C1088 C 0.55482 0.5938 0.76528 0.0
C1089 C 0.57405 0.61533 0.67364 0.0
C1090 C 0.53717 0.59683 0.74239 0.0
C1091 C 0.5242 0.58112 0.72677 0.0
C1092 C 0.52873 0.56218 0.73386 0.0
C1093 C 0.54575 0.55919 0.76068 0.0
C1094 C 0.55872 0.57495 0.77641 0.0
H1095 H 0.58519 0.62222 0.64591 0.0
H1096 H 0.57327 0.5994 0.668 0.0
H1097 H 0.55999 0.61994 0.66203 0.0
H1098 H 0.5338 0.61134 0.73451 0.0
H1099 H 0.5112 0.58382 0.70614 0.0
H1100 H 0.81095 0.40878 0.79449 0.0
H1101 H 0.84341 0.40933 0.75927 0.0
H1102 H 0.85774 0.37235 0.88713 0.0
H1103 H 0.82493 0.3714 0.92234 0.0
H1104 H 0.87751 0.40883 0.8916 0.0
H1105 H 0.88249 0.37812 0.68511 0.0
H1106 H 0.86301 0.39279 0.69158 0.0
H1107 H 0.86259 0.37106 0.73003 0.0
C1108 C 0.82059 0.39982 0.81347 0.0
C1109 C 0.81544 0.39036 0.86193 0.0
C1110 C 0.83926 0.40019 0.79321 0.0
C1111 C 0.85304 0.391 0.8208 0.0
C1112 C 0.84732 0.37958 0.86533 0.0
H1113 H 0.97204 0.42953 0.72369 0.0
H1114 H 0.94533 0.40778 0.75995 0.0
C1115 C 0.82858 0.37909 0.88544 0.0
C1116 C 0.87364 0.39704 0.81068 0.0
H1117 H 0.90636 0.40505 0.70867 0.0
C1118 C 0.88403 0.40751 0.852 0.0
C1119 C 0.88215 0.39534 0.75913 0.0
C1120 C 0.87203 0.38354 0.71411 0.0
C1121 C 0.90208 0.41756 0.8419 0.0
C1122 C 0.90986 0.41714 0.78923 0.0
C1123 C 0.90021 0.40547 0.74897 0.0
C1124 C 0.92682 0.43035 0.77365 0.0
C1125 C 0.91232 0.4293 0.88688 0.0
C1126 C 0.92527 0.45022 0.77037 0.0
C1127 C 0.94038 0.46262 0.74935 0.0
C1128 C 0.95729 0.45531 0.73165 0.0
C1129 C 0.95918 0.43555 0.73744 0.0
C1130 C 0.94395 0.4231 0.75785 0.0
H1131 H 0.90693 0.42446 0.92723 0.0
H1132 H 0.92803 0.42835 0.88465 0.0
H1133 H 0.90989 0.4447 0.88279 0.0
H1134 H 0.91204 0.45601 0.78194 0.0
H1135 H 0.93854 0.47776 0.74502 0.0
H1136 H 0.08416 0.20922 0.81492 0.0
H1137 H 0.0737 0.1803 0.76166 0.0
H1138 H 0.01463 0.1876 0.7991 0.0
H1139 H 0.02519 0.21619 0.85506 0.0
H1140 H 0.02151 0.15231 0.82054 0.0
H1141 H 0.05093 0.16832 0.61731 0.0
H1142 H 0.06957 0.17232 0.66659 0.0
H1143 H 0.0498 0.18693 0.66867 0.0
C1144 C 0.06891 0.20493 0.81088 0.0
C1145 C 0.05551 0.21494 0.83954 0.0
C1146 C 0.06291 0.18843 0.77991 0.0
C1147 C 0.04334 0.18175 0.77578 0.0
C1148 C 0.02982 0.19246 0.80152 0.0
H1149 H 0.00932 0.07953 0.57377 0.0
H1150 H 0.01396 0.11225 0.61184 0.0
C1151 C 0.03585 0.20894 0.83302 0.0
C1152 C 0.03733 0.16255 0.74988 0.0
H1153 H 0.04466 0.13445 0.63853 0.0
C1154 C 0.02633 0.14852 0.78036 0.0
C1155 C 0.04337 0.15753 0.69723 0.0
C1156 C 0.05389 0.17217 0.66043 0.0
C1157 C 0.02181 0.12952 0.76053 0.0
C1158 C 0.02902 0.12415 0.70943 0.0
C1159 C 0.03941 0.13837 0.67814 0.0
C1160 C 0.02583 0.10399 0.6873 0.0
C1161 C 0.00917 0.11551 0.79447 0.0
C1162 C 0.03107 0.08829 0.71672 0.0
C1163 C 0.02816 0.06942 0.69527 0.0
C1164 C 0.02037 0.06591 0.64341 0.0
C1165 C 0.01543 0.08168 0.61376 0.0
C1166 C 0.01807 0.10045 0.6355 0.0
H1167 H 0.99995 0.12319 0.82246 0.0
H1168 H 0.99978 0.10522 0.76892 0.0
H1169 H 0.01832 0.10715 0.81937 0.0
H1170 H 0.03762 0.09064 0.75607 0.0
H1171 H 0.03229 0.05764 0.71895 0.0
H1172 H 0.31738 0.98958 0.83768 0.0
H1173 H 0.34519 0.99661 0.77762 0.0
H1174 H 0.37033 0.03888 0.89315 0.0
H1175 H 0.34242 0.0319 0.95312 0.0
H1176 H 0.3667 0.03235 0.73169 0.0
H1177 H 0.40704 0.99454 0.88211 0.0
H1178 H 0.38114 0.99269 0.88126 0.0
H1179 H 0.39461 0.01414 0.90779 0.0
C1180 C 0.32843 1.00102 0.84899 0.0
C1181 C 0.32758 0.01049 0.89952 0.0
C1182 C 0.34441 0.00489 0.81492 0.0
C1183 C 0.35998 0.01809 0.83114 0.0
C1184 C 0.35854 0.02857 0.87989 0.0
H1185 H 0.46737 0.05361 0.66056 0.0
H1186 H 0.43601 0.05247 0.70566 0.0
C1187 C 0.34248 0.02478 0.91382 0.0
C1188 C 0.37841 0.01924 0.80017 0.0
H1189 H 0.42441 0.00716 0.80654 0.0
C1190 C 0.37935 0.02693 0.74808 0.0
C1191 C 0.39483 0.01183 0.82115 0.0
C1192 C 0.39446 0.00268 0.87595 0.0
C1193 C 0.39635 0.02769 0.71688 0.0
C1194 C 0.41287 0.02059 0.73834 0.0
C1195 C 0.41181 0.01267 0.79012 0.0
C1196 C 0.43144 0.02126 0.70799 0.0
C1197 C 0.39641 0.03573 0.66079 0.0
C1198 C 0.43948 0.00412 0.6945 0.0
C1199 C 0.45744 0.00474 0.66864 0.0
C1200 C 0.46785 0.02254 0.65633 0.0
C1201 C 0.4597 0.03967 0.66939 0.0
C1202 C 0.44171 0.03904 0.69494 0.0
H1203 H 0.38162 0.03631 0.6455 0.0
H1204 H 0.40381 0.05065 0.66154 0.0
H1205 H 0.40429 0.02691 0.63214 0.0
H1206 H 0.4319 0.99023 0.70433 0.0
H1207 H 0.46334 0.99129 0.65927 0.0
H1208 H 0.45543 0.30037 0.7719 0.0
H1209 H 0.46603 0.33031 0.72505 0.0
H1210 H 0.50535 0.34748 0.85477 0.0
H1211 H 0.49518 0.31722 0.9006 0.0
H1212 H 0.45907 0.36401 0.7689 0.0
H1213 H 0.53719 0.36705 0.72767 0.0
H1214 H 0.52276 0.34486 0.74421 0.0
H1215 H 0.53103 0.36191 0.79674 0.0
C1216 C 0.46703 0.31011 0.78892 0.0
C1217 C 0.47469 0.30639 0.83943 0.0
C1218 C 0.47294 0.32732 0.76249 0.0
C1219 C 0.48651 0.34124 0.78626 0.0
C1220 C 0.49518 0.33688 0.8349 0.0
H1221 H 0.51182 0.46554 0.72778 0.0
H1222 H 0.50844 0.43358 0.7695 0.0
C1223 C 0.48942 0.31952 0.86104 0.0
C1224 C 0.48937 0.36114 0.76428 0.0
H1225 H 0.52314 0.39672 0.72057 0.0
C1226 C 0.47309 0.37105 0.75799 0.0
C1227 C 0.50768 0.37052 0.75069 0.0
C1228 C 0.52564 0.36048 0.75467 0.0
C1229 C 0.47458 0.38995 0.73848 0.0
C1230 C 0.49282 0.39926 0.72465 0.0
C1231 C 0.50918 0.38955 0.73153 0.0
C1232 C 0.49493 0.41865 0.70005 0.0
C1233 C 0.45663 0.39993 0.73296 0.0
C1234 C 0.48842 0.42079 0.64737 0.0
C1235 C 0.49034 0.43891 0.62349 0.0
C1236 C 0.49877 0.45537 0.65186 0.0
C1237 C 0.50511 0.45322 0.70499 0.0
C1238 C 0.50332 0.43497 0.72875 0.0
H1239 H 0.44429 0.39241 0.75533 0.0
H1240 H 0.45909 0.41512 0.748 0.0
H1241 H 0.45272 0.40017 0.68965 0.0
H1242 H 0.48197 0.40837 0.62449 0.0
H1243 H 0.48528 0.43997 0.58256 0.0
H1244 H 0.18714 0.4832 0.95419 0.0
H1245 H 0.1585 0.47538 0.89776 0.0
H1246 H 0.17726 0.52309 0.79495 0.0
H1247 H 0.2057 0.53094 0.85123 0.0
H1248 H 0.13138 0.50289 0.88452 0.0
H1249 H 0.1589 0.47931 0.68618 0.0
H1250 H 0.17247 0.47883 0.74782 0.0
H1251 H 0.17151 0.50117 0.71332 0.0
C1252 C 0.18548 0.49152 0.91833 0.0
C1253 C 0.19874 0.50753 0.90666 0.0
C1254 C 0.16904 0.48717 0.88642 0.0
C1255 C 0.16576 0.49856 0.84182 0.0
C1256 C 0.17958 0.51387 0.82847 0.0
H1257 H 0.07482 0.51825 0.6232 0.0
H1258 H 0.10477 0.5169 0.67215 0.0
C1259 C 0.19586 0.51834 0.86062 0.0
C1260 C 0.14704 0.49598 0.81291 0.0
H1261 H 0.12697 0.48828 0.68788 0.0
C1262 C 0.13034 0.49941 0.84167 0.0
C1263 C 0.14573 0.49169 0.7569 0.0
C1264 C 0.16307 0.48737 0.72421 0.0
C1265 C 0.11254 0.49939 0.81567 0.0
C1266 C 0.11122 0.49527 0.75942 0.0
C1267 C 0.12789 0.49144 0.73091 0.0
C1268 C 0.09289 0.49558 0.7291 0.0
C1269 C 0.09553 0.50467 0.84842 0.0
C1270 C 0.07616 0.48385 0.74405 0.0
C1271 C 0.05888 0.48474 0.7164 0.0
C1272 C 0.05798 0.49716 0.67252 0.0
C1273 C 0.07489 0.50852 0.65678 0.0
C1274 C 0.09209 0.50774 0.68474 0.0
H1275 H 0.10006 0.51256 0.88643 0.0
H1276 H 0.08665 0.5138 0.82497 0.0
H1277 H 0.08644 0.49128 0.85952 0.0
H1278 H 0.07644 0.47395 0.77713 0.0
H1279 H 0.04625 0.47561 0.72935 0.0
H1280 H 0.93481 0.808 0.31951 0.0
H1281 H 0.94424 0.83728 0.37279 0.0
H1282 H 1.0039 0.82971 0.34584 0.0
H1283 H 0.99447 0.80081 0.28992 0.0
H1284 H 0.96422 0.84815 0.46008 0.0
H1285 H 1.00158 0.88193 0.2817 0.0
H1286 H 0.98714 0.85892 0.2775 0.0
H1287 H 0.01123 0.8605 0.30314 0.0
C1288 C 0.94996 0.8124 0.32555 0.0
C1289 C 0.96388 0.80226 0.29961 0.0
C1290 C 0.95535 0.82916 0.35613 0.0
C1291 C 0.97479 0.83613 0.36193 0.0
C1292 C 0.98879 0.825 0.3405 0.0
H1293 H 0.00892 0.9372 0.57061 0.0
H1294 H 1.00315 0.90453 0.5325 0.0
C1295 C 0.98339 0.80826 0.30932 0.0
C1296 C 0.98009 0.85559 0.38731 0.0
H1297 H 1.00279 0.90055 0.3624 0.0
C1298 C 0.97273 0.85958 0.4388 0.0
C1299 C 0.99082 0.8707 0.35911 0.0
C1300 C 0.998 0.86792 0.30212 0.0
C1301 C 0.97571 0.87816 0.46271 0.0
C1302 C 0.9869 0.89313 0.43514 0.0
C1303 C 0.99434 0.88911 0.38378 0.0
C1304 C 0.99075 0.91315 0.45815 0.0
C1305 C 0.96616 0.88168 0.51636 0.0
C1306 C 0.98647 0.92913 0.42833 0.0
C1307 C 0.99015 0.94797 0.44962 0.0
C1308 C 0.99807 0.95123 0.50142 0.0
C1309 C 1.00254 0.93523 0.53092 0.0
C1310 C 0.99911 0.91646 0.5093 0.0
H1311 H 0.9536 0.87084 0.52352 0.0
H1312 H 0.97657 0.88045 0.54932 0.0
H1313 H 0.96125 0.89632 0.5188 0.0
H1314 H 0.98012 0.92702 0.38862 0.0
H1315 H 0.98657 0.95994 0.42576 0.0
H1316 H 0.68427 0.95554 0.26424 0.0
H1317 H 0.65746 0.95997 0.32563 0.0
H1318 H 0.67699 0.02066 0.3414 0.0
H1319 H 0.70401 0.01624 0.27965 0.0
H1320 H 0.65529 0.97631 0.43513 0.0
H1321 H 0.62117 0.01826 0.2805 0.0
H1322 H 0.64025 0.00365 0.2638 0.0
H1323 H 0.64556 0.02643 0.29856 0.0
C1324 C 0.68308 0.96977 0.28167 0.0
C1325 C 0.69627 0.98555 0.26709 0.0
C1326 C 0.66772 0.97229 0.31672 0.0
C1327 C 0.66499 0.99069 0.33761 0.0
C1328 C 0.67866 0.00635 0.32532 0.0
H1329 H 0.55961 0.02446 0.4928 0.0
H1330 H 0.59228 0.02525 0.45601 0.0
C1331 C 0.69421 0.00379 0.29051 0.0
C1332 C 0.6472 0.9934 0.36935 0.0
H1333 H 0.60394 0.01174 0.36086 0.0
C1334 C 0.64412 0.9842 0.41914 0.0
C1335 C 0.6326 0.00372 0.34864 0.0
C1336 C 0.63487 0.01351 0.29481 0.0
C1337 C 0.62685 0.98489 0.44842 0.0
C1338 C 0.61192 0.99458 0.4267 0.0
C1339 C 0.61526 0.00425 0.37763 0.0
C1340 C 0.59249 0.99417 0.45274 0.0
C1341 C 0.62485 0.97535 0.50265 0.0
C1342 C 0.58151 0.97649 0.46316 0.0
C1343 C 0.56292 0.97604 0.48491 0.0
C1344 C 0.5547 0.99325 0.49618 0.0
C1345 C 0.56561 0.01095 0.48555 0.0
C1346 C 0.58428 0.01141 0.46412 0.0
H1347 H 0.63909 0.97383 0.52054 0.0
H1348 H 0.61653 0.9837 0.53139 0.0
H1349 H 0.61721 0.96063 0.49756 0.0
H1350 H 0.58713 0.96295 0.45329 0.0
H1351 H 0.55486 0.96216 0.49214 0.0
H1352 H 0.58982 0.70771 0.33203 0.0
H1353 H 0.5785 0.67896 0.38332 0.0
H1354 H 0.52668 0.67159 0.28906 0.0
H1355 H 0.538 0.70046 0.23745 0.0
H1356 H 0.52311 0.66181 0.40778 0.0
H1357 H 0.57892 0.62654 0.29368 0.0
H1358 H 0.58719 0.64883 0.32813 0.0
H1359 H 0.57066 0.64896 0.27312 0.0
C1360 C 0.5757 0.70036 0.32357 0.0
C1361 C 0.5648 0.70627 0.28067 0.0
C1362 C 0.56932 0.68386 0.35259 0.0
C1363 C 0.55195 0.67294 0.33923 0.0
C1364 C 0.54018 0.67979 0.29983 0.0
H1365 H 0.52313 0.55001 0.40096 0.0
H1366 H 0.52937 0.58169 0.35917 0.0
C1367 C 0.54657 0.69638 0.27072 0.0
C1368 C 0.54722 0.65343 0.36212 0.0
H1369 H 0.56237 0.60835 0.36253 0.0
C1370 C 0.53164 0.6501 0.39788 0.0
C1371 C 0.55818 0.63807 0.34839 0.0
C1372 C 0.57459 0.64063 0.30839 0.0
C1373 C 0.52707 0.63192 0.42142 0.0
C1374 C 0.53848 0.61676 0.40915 0.0
C1375 C 0.55373 0.61999 0.37226 0.0
C1376 C 0.53497 0.59749 0.43452 0.0
C1377 C 0.50994 0.62902 0.45881 0.0
C1378 C 0.53656 0.59575 0.49061 0.0
C1379 C 0.53311 0.57768 0.5146 0.0
C1380 C 0.52805 0.56086 0.48302 0.0
C1381 C 0.52698 0.56259 0.4266 0.0
C1382 C 0.53049 0.58072 0.40262 0.0
H1383 H 0.49992 0.64013 0.45304 0.0
H1384 H 0.50198 0.61449 0.45242 0.0
H1385 H 0.51495 0.63016 0.50128 0.0
H1386 H 0.54046 0.60841 0.51594 0.0
H1387 H 0.53418 0.57699 0.55812 0.0
H1388 H 0.80438 0.47466 0.30756 0.0
H1389 H 0.8314 0.48332 0.36868 0.0
H1390 H 0.86118 0.5168 0.24306 0.0
H1391 H 0.8339 0.50849 0.18251 0.0
H1392 H 0.86569 0.47122 0.34627 0.0
H1393 H 0.87575 0.55084 0.37346 0.0
H1394 H 0.85373 0.53814 0.34798 0.0
H1395 H 0.87413 0.54309 0.30394 0.0
C1396 C 0.81627 0.48471 0.2941 0.0
C1397 C 0.81687 0.49127 0.24077 0.0
C1398 C 0.83183 0.48946 0.32877 0.0
C1399 C 0.8484 0.50078 0.31076 0.0
C1400 C 0.84847 0.50842 0.25856 0.0
H1401 H 0.96699 0.518 0.4243 0.0
H1402 H 0.93715 0.51792 0.37321 0.0
C1403 C 0.83281 0.50376 0.22396 0.0
C1404 C 0.86636 0.50219 0.34348 0.0
H1405 H 0.90197 0.53375 0.39941 0.0
C1406 C 0.87347 0.48493 0.35833 0.0
C1407 C 0.87676 0.52004 0.35869 0.0
C1408 C 0.86963 0.53908 0.34565 0.0
C1409 C 0.89067 0.48497 0.38723 0.0
C1410 C 0.90103 0.50278 0.40267 0.0
C1411 C 0.89403 0.52009 0.38766 0.0
C1412 C 0.91906 0.5036 0.43469 0.0
C1413 C 0.89784 0.46588 0.39988 0.0
C1414 C 0.91883 0.49584 0.48664 0.0
C1415 C 0.93585 0.49582 0.51593 0.0
C1416 C 0.95356 0.50364 0.4941 0.0
C1417 C 0.95369 0.51176 0.44241 0.0
C1418 C 0.93661 0.5118 0.41314 0.0
H1419 H 0.89106 0.45395 0.37371 0.0
H1420 H 0.91367 0.46665 0.39481 0.0
H1421 H 0.89428 0.46227 0.44248 0.0
H1422 H 0.90544 0.48972 0.50455 0.0
H1423 H 0.93508 0.48956 0.55567 0.0
loop_
_geom_bond_atom_site_label_1
_geom_bond_atom_site_label_2
_geom_bond_distance
_geom_bond_site_symmetry_2
_ccdc_geom_bond_type
C0 C1 1.391 . S
C0 C4 1.391 . S
C0 H42 0.948 . S
C1 C0 1.391 . S
C1 C2 1.391 . S
C2 C1 1.391 . S
C2 H58 0.947 . S
C2 C59 1.392 . S
C3 C4 1.391 . S
C3 C7 1.397 . S
C3 C59 1.419 . S
C4 C0 1.391 . S
C4 C3 1.391 . S
C4 C5 1.399 . S
C5 C4 1.399 . S
C5 C8 1.396 . S
C5 C17 1.453 . S
C5 C18 1.684 . S
H6 C30 0.948 . S
C7 C3 1.397 . S
C7 C8 1.394 . S
C7 C26 1.723 . S
C8 C5 1.396 . S
C8 C7 1.394 . S
C8 C38 1.723 . S
H9 C32 0.947 . S
H10 C33 0.948 . S
H11 C39 0.982 . S
H12 C40 0.979 . S
H13 C40 0.980 . S
H14 C40 0.983 . S
H15 C39 0.979 . S
H16 C39 0.977 . S
C17 C5 1.453 . S
C17 H46 0.982 . S
C17 H47 0.979 . S
C17 H48 0.977 . S
C18 C5 1.684 . S
C18 H43 0.979 . S
C18 H44 0.980 . S
C18 H45 0.983 . S
C19 C20 1.391 . S
C19 C24 1.391 . S
C19 H49 0.948 . S
C20 C19 1.391 . S
C20 C21 1.391 . S
C21 C20 1.391 . S
C21 C22 1.392 . S
C21 H50 0.947 . S
C22 C21 1.392 . S
C22 C23 1.419 . S
C22 H51 0.948 . S
C23 C22 1.419 . S
C23 C24 1.391 . S
C23 C27 1.397 . S
C24 C19 1.391 . S
C24 C23 1.391 . S
C24 C25 1.399 . S
C25 C24 1.399 . S
C25 C26 1.396 1_556 S
C25 C28 1.453 1_556 S
C25 C29 1.684 1_556 S
C26 C7 1.723 . S
C26 C25 1.396 1_554 S
C26 C27 1.394 1_554 S
C27 C23 1.397 . S
C27 C26 1.394 1_556 S
C27 C37 1.723 . S
C28 C25 1.453 1_554 S
C28 H52 0.982 . S
C28 H53 0.979 . S
C28 H54 0.977 . S
C29 C25 1.684 1_554 S
C29 H55 0.979 . S
C29 H56 0.980 . S
C29 H57 0.983 . S
C30 H6 0.948 . S
C30 C31 1.391 . S
C30 C35 1.391 . S
C31 C30 1.391 . S
C31 C32 1.391 1_556 S
C32 H9 0.947 . S
C32 C31 1.391 1_554 S
C32 C33 1.392 . S
C33 H10 0.948 . S
C33 C32 1.392 . S
C33 C34 1.419 . S
C34 C33 1.419 . S
C34 C35 1.391 1_554 S
C34 C38 1.397 . S
C35 C30 1.391 . S
C35 C34 1.391 1_556 S
C35 C36 1.399 . S
C36 C35 1.399 . S
C36 C37 1.396 . S
C36 C39 1.453 . S
C36 C40 1.684 . S
C37 C27 1.723 . S
C37 C36 1.396 . S
C37 C38 1.394 1_556 S
C38 C8 1.723 . S
C38 C34 1.397 . S
C38 C37 1.394 1_554 S
C39 H11 0.982 . S
C39 H15 0.979 . S
C39 H16 0.977 . S
C39 C36 1.453 . S
C40 H12 0.979 . S
C40 H13 0.980 . S
C40 H14 0.983 . S
C40 C36 1.684 . S
H41 C59 0.948 . S
H42 C0 0.948 . S
H43 C18 0.979 . S
H44 C18 0.980 . S
H45 C18 0.983 . S
H46 C17 0.982 . S
H47 C17 0.979 . S
H48 C17 0.977 . S
H49 C19 0.948 . S
H50 C21 0.947 . S
H51 C22 0.948 . S
H52 C28 0.982 . S
H53 C28 0.979 . S
H54 C28 0.977 . S
H55 C29 0.979 . S
H56 C29 0.980 . S
H57 C29 0.983 . S
H58 C2 0.947 . S
C59 C2 1.392 . S
C59 C3 1.419 . S
C59 H41 0.948 . S
C60 C61 1.391 . S
C60 C64 1.391 . S
C60 H102 0.948 . S
C61 C60 1.391 . S
C61 C62 1.391 . S
C62 C61 1.391 . S
C62 H118 0.947 . S
C62 C119 1.392 . S
C63 C64 1.391 . S
C63 C67 1.397 . S
C63 C119 1.419 . S
C64 C60 1.391 . S
C64 C63 1.391 . S
C64 C65 1.399 . S
C65 C64 1.399 . S
C65 C68 1.396 . S
C65 C77 1.453 . S
C65 C78 1.684 . S
H66 C90 0.948 1_554 S
C67 C63 1.397 . S
C67 C68 1.394 . S
C67 C86 1.723 1_556 S
C68 C65 1.396 . S
C68 C67 1.394 . S
C68 C98 1.723 . S
H69 C92 0.947 . S
H70 C93 0.948 . S
H71 C99 0.982 . S
H72 C100 0.979 . S
H73 C100 0.980 . S
H74 C100 0.983 . S
H75 C99 0.979 . S
H76 C99 0.977 . S
C77 C65 1.453 . S
C77 H106 0.982 . S
C77 H107 0.979 . S
C77 H108 0.977 . S
C78 C65 1.684 . S
C78 H103 0.979 . S
C78 H104 0.980 . S
C78 H105 0.983 . S
C79 C80 1.391 . S
C79 C84 1.391 . S
C79 H109 0.948 . S
C80 C79 1.391 . S
C80 C81 1.391 . S
C81 C80 1.391 . S
C81 C82 1.392 . S
C81 H110 0.947 . S
C82 C81 1.392 . S
C82 C83 1.419 . S
C82 H111 0.948 . S
C83 C82 1.419 . S
C83 C84 1.391 . S
C83 C87 1.397 . S
C84 C79 1.391 . S
C84 C83 1.391 . S
C84 C85 1.399 . S
C85 C84 1.399 . S
C85 C86 1.396 . S
C85 C88 1.453 . S
C85 C89 1.684 . S
C86 C67 1.723 1_554 S
C86 C85 1.396 . S
C86 C87 1.394 . S
C87 C83 1.397 . S
C87 C86 1.394 . S
C87 C97 1.723 . S
C88 C85 1.453 . S
C88 H112 0.982 . S
C88 H113 0.979 . S
C88 H114 0.977 . S
C89 C85 1.684 . S
C89 H115 0.979 . S
C89 H116 0.980 . S
C89 H117 0.983 . S
C90 H66 0.948 1_556 S
C90 C91 1.391 . S
C90 C95 1.391 1_556 S
C91 C90 1.391 . S
C91 C92 1.391 . S
C92 H69 0.947 . S
C92 C91 1.391 . S
C92 C93 1.392 . S
C93 H70 0.948 . S
C93 C92 1.392 . S
C93 C94 1.419 . S
C94 C93 1.419 . S
C94 C95 1.391 1_556 S
C94 C98 1.397 . S
C95 C90 1.391 1_554 S
C95 C94 1.391 1_554 S
C95 C96 1.399 . S
C96 C95 1.399 . S
C96 C97 1.396 . S
C96 C99 1.453 . S
C96 C100 1.684 . S
C97 C87 1.723 . S
C97 C96 1.396 . S
C97 C98 1.394 1_554 S
C98 C68 1.723 . S
C98 C94 1.397 . S
C98 C97 1.394 1_556 S
C99 H71 0.982 . S
C99 H75 0.979 . S
C99 H76 0.977 . S
C99 C96 1.453 . S
C100 H72 0.979 . S
C100 H73 0.980 . S
C100 H74 0.983 . S
C100 C96 1.684 . S
H101 C119 0.948 . S
H102 C60 0.948 . S
H103 C78 0.979 . S
H104 C78 0.980 . S
H105 C78 0.983 . S
H106 C77 0.982 . S
H107 C77 0.979 . S
H108 C77 0.977 . S
H109 C79 0.948 . S
H110 C81 0.947 . S
H111 C82 0.948 . S
H112 C88 0.982 . S
H113 C88 0.979 . S
H114 C88 0.977 . S
H115 C89 0.979 . S
H116 C89 0.980 . S
H117 C89 0.983 . S
H118 C62 0.947 . S
C119 C62 1.392 . S
C119 C63 1.419 . S
C119 H101 0.948 . S
C120 C121 1.391 1_554 S
C120 C124 1.391 . S
C120 H162 0.948 . S
C121 C120 1.391 1_556 S
C121 C122 1.391 . S
C122 C121 1.391 . S
C122 H178 0.947 . S
C122 C179 1.392 . S
C123 C124 1.391 1_556 S
C123 C127 1.398 1_566 S
C123 C179 1.419 . S
C124 C120 1.391 . S
C124 C123 1.391 1_554 S
C124 C125 1.399 . S
C125 C124 1.399 . S
C125 C128 1.382 1_565 S
C125 C137 1.453 1_565 S
C125 C138 1.684 . S
H126 C150 0.948 . S
C127 C123 1.398 1_544 S
C127 C128 1.395 . S
C127 C146 1.716 1_554 S
C128 C125 1.382 1_545 S
C128 C127 1.395 . S
C128 C158 1.727 . S
H129 C152 0.947 . S
H130 C153 0.948 . S
H131 C159 0.982 . S
H132 C160 0.979 . S
H133 C160 0.980 . S
H134 C160 0.983 . S
H135 C159 0.979 . S
H136 C159 0.977 . S
C137 C125 1.453 1_545 S
C137 H166 0.982 . S
C137 H167 0.979 . S
C137 H168 0.977 . S
C138 C125 1.684 . S
C138 H163 0.979 . S
C138 H164 0.980 . S
C138 H165 0.983 . S
C139 C140 1.391 . S
C139 C144 1.391 . S
C139 H169 0.948 . S
C140 C139 1.391 . S
C140 C141 1.391 . S
C141 C140 1.391 . S
C141 C142 1.392 . S
C141 H170 0.947 . S
C142 C141 1.392 . S
C142 C143 1.419 . S
C142 H171 0.948 1_556 S
C143 C142 1.419 . S
C143 C144 1.391 . S
C143 C147 1.397 1_565 S
C144 C139 1.391 . S
C144 C143 1.391 . S
C144 C145 1.399 . S
C145 C144 1.399 . S
C145 C146 1.391 1_565 S
C145 C148 1.453 1_565 S
C145 C149 1.684 . S
C146 C127 1.716 1_556 S
C146 C145 1.391 1_545 S
C146 C147 1.398 . S
C147 C143 1.397 1_545 S
C147 C146 1.398 . S
C147 C157 1.722 1_556 S
C148 C145 1.453 1_545 S
C148 H172 0.982 . S
C148 H173 0.979 . S
C148 H174 0.977 . S
C149 C145 1.684 . S
C149 H175 0.979 . S
C149 H176 0.980 . S
C149 H177 0.983 . S
C150 H126 0.948 . S
C150 C151 1.391 . S
C150 C155 1.391 . S
C151 C150 1.391 . S
C151 C152 1.391 . S
C152 H129 0.947 . S
C152 C151 1.391 . S
C152 C153 1.392 . S
C153 H130 0.948 . S
C153 C152 1.392 . S
C153 C154 1.419 . S
C154 C153 1.419 . S
C154 C155 1.391 . S
C154 C158 1.397 1_565 S
C155 C150 1.391 . S
C155 C154 1.391 . S
C155 C156 1.399 . S
C156 C155 1.399 . S
C156 C157 1.392 1_565 S
C156 C159 1.453 1_565 S
C156 C160 1.684 . S
C157 C147 1.722 1_554 S
C157 C156 1.392 1_545 S
C157 C158 1.386 . S
C158 C128 1.727 . S
C158 C154 1.397 1_545 S
C158 C157 1.386 . S
C159 H131 0.982 . S
C159 H135 0.979 . S
C159 H136 0.977 . S
C159 C156 1.453 1_545 S
C160 H132 0.979 . S
C160 H133 0.980 . S
C160 H134 0.983 . S
C160 C156 1.684 . S
H161 C179 0.948 . S
H162 C120 0.948 . S
H163 C138 0.979 . S
H164 C138 0.980 . S
H165 C138 0.983 . S
H166 C137 0.982 . S
H167 C137 0.979 . S
H168 C137 0.977 . S
H169 C139 0.948 . S
H170 C141 0.947 . S
H171 C142 0.948 1_554 S
H172 C148 0.982 . S
H173 C148 0.979 . S
H174 C148 0.977 . S
H175 C149 0.979 . S
H176 C149 0.980 . S
H177 C149 0.983 . S
H178 C122 0.947 . S
C179 C122 1.392 . S
C179 C123 1.419 . S
C179 H161 0.948 . S
C180 C181 1.391 . S
C180 C184 1.391 . S
C180 H222 0.948 . S
C181 C180 1.391 . S
C181 C182 1.391 . S
C182 C181 1.391 . S
C182 H238 0.947 . S
C182 C239 1.392 . S
C183 C184 1.391 . S
C183 C187 1.397 . S
C183 C239 1.419 . S
C184 C180 1.391 . S
C184 C183 1.391 . S
C184 C185 1.399 . S
C185 C184 1.399 . S
C185 C188 1.396 . S
C185 C197 1.453 . S
C185 C198 1.684 . S
H186 C210 0.948 . S
C187 C183 1.397 . S
C187 C188 1.394 . S
C187 C206 1.723 . S
C188 C185 1.396 . S
C188 C187 1.394 . S
C188 C218 1.723 . S
H189 C212 0.947 . S
H190 C213 0.948 . S
H191 C219 0.982 . S
H192 C220 0.979 . S
H193 C220 0.980 . S
H194 C220 0.983 . S
H195 C219 0.979 . S
H196 C219 0.977 . S
C197 C185 1.453 . S
C197 H226 0.982 . S
C197 H227 0.979 . S
C197 H228 0.977 . S
C198 C185 1.684 . S
C198 H223 0.979 . S
C198 H224 0.980 . S
C198 H225 0.983 . S
C199 C200 1.391 . S
C199 C204 1.391 . S
C199 H229 0.948 . S
C200 C199 1.391 . S
C200 C201 1.391 . S
C201 C200 1.391 . S
C201 C202 1.392 . S
C201 H230 0.947 . S
C202 C201 1.392 . S
C202 C203 1.419 . S
C202 H231 0.948 . S
C203 C202 1.419 . S
C203 C204 1.391 . S
C203 C207 1.397 1_556 S
C204 C199 1.391 . S
C204 C203 1.391 . S
C204 C205 1.399 1_556 S
C205 C204 1.399 1_554 S
C205 C206 1.396 . S
C205 C208 1.453 . S
C205 C209 1.684 . S
C206 C187 1.723 . S
C206 C205 1.396 . S
C206 C207 1.394 . S
C207 C203 1.397 1_554 S
C207 C206 1.394 . S
C207 C217 1.723 . S
C208 C205 1.453 . S
C208 H232 0.982 . S
C208 H233 0.979 . S
C208 H234 0.977 . S
C209 C205 1.684 . S
C209 H235 0.979 . S
C209 H236 0.980 . S
C209 H237 0.983 . S
C210 H186 0.948 . S
C210 C211 1.391 1_556 S
C210 C215 1.393 . S
C211 C210 1.391 1_554 S
C211 C212 1.391 . S
C212 H189 0.947 . S
C212 C211 1.391 . S
C212 C213 1.392 . S
C213 H190 0.948 . S
C213 C212 1.392 . S
C213 C214 1.419 . S
C214 C213 1.419 . S
C214 C215 1.386 1_554 S
C214 C218 1.397 . S
C215 C210 1.393 . S
C215 C214 1.386 1_556 S
C215 C216 1.402 . S
C216 C215 1.402 . S
C216 C217 1.396 1_556 S
C216 C219 1.453 . S
C216 C220 1.684 . S
C217 C207 1.723 . S
C217 C216 1.396 1_554 S
C217 C218 1.394 . S
C218 C188 1.723 . S
C218 C214 1.397 . S
C218 C217 1.394 . S
C219 H191 0.982 . S
C219 H195 0.979 . S
C219 H196 0.977 . S
C219 C216 1.453 . S
C220 H192 0.979 . S
C220 H193 0.980 . S
C220 H194 0.983 . S
C220 C216 1.684 . S
H221 C239 0.948 . S
H222 C180 0.948 . S
H223 C198 0.979 . S
H224 C198 0.980 . S
H225 C198 0.983 . S
H226 C197 0.982 . S
H227 C197 0.979 . S
H228 C197 0.977 . S
H229 C199 0.948 . S
H230 C201 0.947 . S
H231 C202 0.948 . S
H232 C208 0.982 . S
H233 C208 0.979 . S
H234 C208 0.977 . S
H235 C209 0.979 . S
H236 C209 0.980 . S
H237 C209 0.983 . S
H238 C182 0.947 . S
C239 C182 1.392 . S
C239 C183 1.419 . S
C239 H221 0.948 . S
C240 C241 1.391 . S
C240 C244 1.391 . S
C240 H282 0.948 . S
C241 C240 1.391 . S
C241 C242 1.391 . S
C242 C241 1.391 . S
C242 H298 0.947 . S
C242 C299 1.392 . S
C243 C244 1.391 . S
C243 C247 1.397 . S
C243 C299 1.419 . S
C244 C240 1.391 . S
C244 C243 1.391 . S
C244 C245 1.399 . S
C245 C244 1.399 . S
C245 C248 1.396 . S
C245 C257 1.453 . S
C245 C258 1.684 . S
H246 C270 0.948 . S
C247 C243 1.397 . S
C247 C248 1.394 . S
C247 C266 1.723 . S
C248 C245 1.396 . S
C248 C247 1.394 . S
C248 C278 1.723 . S
H249 C272 0.947 . S
H250 C273 0.948 . S
H251 C279 0.982 . S
H252 C280 0.979 . S
H253 C280 0.980 . S
H254 C280 0.983 . S
H255 C279 0.979 . S
H256 C279 0.977 . S
C257 C245 1.453 . S
C257 H286 0.982 . S
C257 H287 0.979 . S
C257 H288 0.975 1_554 S
C258 C245 1.684 . S
C258 H283 0.979 . S
C258 H284 0.980 1_554 S
C258 H285 0.983 . S
C259 C260 1.391 . S
C259 C264 1.391 . S
C259 H289 0.948 . S
C260 C259 1.391 . S
C260 C261 1.391 . S
C261 C260 1.391 . S
C261 C262 1.392 . S
C261 H290 0.947 . S
C262 C261 1.392 . S
C262 C263 1.419 . S
C262 H291 0.948 . S
C263 C262 1.419 . S
C263 C264 1.391 . S
C263 C267 1.397 . S
C264 C259 1.391 . S
C264 C263 1.391 . S
C264 C265 1.399 . S
C265 C264 1.399 . S
C265 C266 1.396 . S
C265 C268 1.453 . S
C265 C269 1.684 . S
C266 C247 1.723 . S
C266 C265 1.396 . S
C266 C267 1.394 . S
C267 C263 1.397 . S
C267 C266 1.394 . S
C267 C277 1.723 . S
C268 C265 1.453 . S
C268 H292 0.982 . S
C268 H293 0.979 . S
C268 H294 0.977 . S
C269 C265 1.684 . S
C269 H295 0.979 . S
C269 H296 0.980 . S
C269 H297 0.983 . S
C270 H246 0.948 . S
C270 C271 1.391 . S
C270 C275 1.391 . S
C271 C270 1.391 . S
C271 C272 1.391 . S
C272 H249 0.947 . S
C272 C271 1.391 . S
C272 C273 1.392 . S
C273 H250 0.948 . S
C273 C272 1.392 . S
C273 C274 1.419 1_556 S
C274 C273 1.419 1_554 S
C274 C275 1.391 1_554 S
C274 C278 1.397 . S
C275 C270 1.391 . S
C275 C274 1.391 1_556 S
C275 C276 1.399 1_556 S
C276 C275 1.399 1_554 S
C276 C277 1.396 . S
C276 C279 1.453 . S
C276 C280 1.684 . S
C277 C267 1.723 . S
C277 C276 1.396 . S
C277 C278 1.394 . S
C278 C248 1.723 . S
C278 C274 1.397 . S
C278 C277 1.394 . S
C279 H251 0.982 . S
C279 H255 0.979 . S
C279 H256 0.977 . S
C279 C276 1.453 . S
C280 H252 0.979 . S
C280 H253 0.980 . S
C280 H254 0.983 . S
C280 C276 1.684 . S
H281 C299 0.948 . S
H282 C240 0.948 . S
H283 C258 0.979 . S
H284 C258 0.980 1_556 S
H285 C258 0.983 . S
H286 C257 0.982 . S
H287 C257 0.979 . S
H288 C257 0.975 1_556 S
H289 C259 0.948 . S
H290 C261 0.947 . S
H291 C262 0.948 . S
H292 C268 0.982 . S
H293 C268 0.979 . S
H294 C268 0.977 . S
H295 C269 0.979 . S
H296 C269 0.980 . S
H297 C269 0.983 . S
H298 C242 0.947 . S
C299 C242 1.392 . S
C299 C243 1.419 . S
C299 H281 0.948 . S
C300 C301 1.391 . S
C300 C304 1.391 . S
C300 H342 0.948 . S
C301 C300 1.391 . S
C301 C302 1.391 . S
C302 C301 1.391 . S
C302 H358 0.947 . S
C302 C359 1.392 . S
C303 C304 1.391 . S
C303 C307 1.397 . S
C303 C359 1.419 . S
C304 C300 1.391 . S
C304 C303 1.391 . S
C304 C305 1.399 . S
C305 C304 1.399 . S
C305 C308 1.396 . S
C305 C317 1.453 . S
C305 C318 1.684 . S
H306 C330 0.948 . S
C307 C303 1.397 . S
C307 C308 1.394 . S
C307 C326 1.723 . S
C308 C305 1.396 . S
C308 C307 1.394 . S
C308 C338 1.723 . S
H309 C332 0.947 . S
H310 C333 0.948 . S
H311 C339 0.982 . S
H312 C340 0.979 . S
H313 C340 0.980 . S
H314 C340 0.983 . S
H315 C339 0.979 . S
H316 C339 0.977 . S
C317 C305 1.453 . S
C317 H346 0.982 . S
C317 H347 0.979 . S
C317 H348 0.977 . S
C318 C305 1.684 . S
C318 H343 0.979 . S
C318 H344 0.980 . S
C318 H345 0.983 . S
C319 C320 1.391 . S
C319 C324 1.391 1_556 S
C319 H349 0.948 . S
C320 C319 1.391 . S
C320 C321 1.391 . S
C321 C320 1.391 . S
C321 C322 1.392 . S
C321 H350 0.947 . S
C322 C321 1.392 . S
C322 C323 1.419 1_556 S
C322 H351 0.948 . S
C323 C322 1.419 1_554 S
C323 C324 1.391 . S
C323 C327 1.397 . S
C324 C319 1.391 1_554 S
C324 C323 1.391 . S
C324 C325 1.399 . S
C325 C324 1.399 . S
C325 C326 1.396 . S
C325 C328 1.453 . S
C325 C329 1.684 . S
C326 C307 1.723 . S
C326 C325 1.396 . S
C326 C327 1.394 . S
C327 C323 1.397 . S
C327 C326 1.394 . S
C327 C337 1.723 . S
C328 C325 1.453 . S
C328 H352 0.982 . S
C328 H353 0.979 . S
C328 H354 0.977 . S
C329 C325 1.684 . S
C329 H355 0.979 . S
C329 H356 0.980 . S
C329 H357 0.983 . S
C330 H306 0.948 . S
C330 C331 1.391 . S
C330 C335 1.391 . S
C331 C330 1.391 . S
C331 C332 1.391 . S
C332 H309 0.947 . S
C332 C331 1.391 . S
C332 C333 1.392 . S
C333 H310 0.948 . S
C333 C332 1.392 . S
C333 C334 1.419 . S
C334 C333 1.419 . S
C334 C335 1.391 . S
C334 C338 1.397 . S
C335 C330 1.391 . S
C335 C334 1.391 . S
C335 C336 1.399 . S
C336 C335 1.399 . S
C336 C337 1.396 . S
C336 C339 1.453 . S
C336 C340 1.684 . S
C337 C327 1.723 . S
C337 C336 1.396 . S
C337 C338 1.394 . S
C338 C308 1.723 . S
C338 C334 1.397 . S
C338 C337 1.394 . S
C339 H311 0.982 . S
C339 H315 0.979 . S
C339 H316 0.977 . S
C339 C336 1.453 . S
C340 H312 0.979 . S
C340 H313 0.980 . S
C340 H314 0.983 . S
C340 C336 1.684 . S
H341 C359 0.948 . S
H342 C300 0.948 . S
H343 C318 0.979 . S
H344 C318 0.980 . S
H345 C318 0.983 . S
H346 C317 0.982 . S
H347 C317 0.979 . S
H348 C317 0.977 . S
H349 C319 0.948 . S
H350 C321 0.947 . S
H351 C322 0.948 . S
H352 C328 0.982 . S
H353 C328 0.979 . S
H354 C328 0.977 . S
H355 C329 0.979 . S
H356 C329 0.980 . S
H357 C329 0.983 . S
H358 C302 0.947 . S
C359 C302 1.392 . S
C359 C303 1.419 . S
C359 H341 0.948 . S
C360 C361 1.391 . S
C360 C364 1.391 . S
C360 H402 0.948 . S
C361 C360 1.391 . S
C361 C362 1.391 . S
C362 C361 1.391 . S
C362 H418 0.947 . S
C362 C419 1.392 . S
C363 C364 1.391 . S
C363 C367 1.397 1_546 S
C363 C419 1.419 . S
C364 C360 1.391 . S
C364 C363 1.391 . S
C364 C365 1.399 . S
C365 C364 1.399 . S
C365 C368 1.386 1_546 S
C365 C377 1.453 1_545 S
C365 C378 1.684 . S
H366 C390 0.948 . S
C367 C363 1.397 1_564 S
C367 C368 1.400 . S
C367 C386 1.717 . S
C368 C365 1.386 1_564 S
C368 C367 1.400 . S
C368 C398 1.720 . S
H369 C392 0.947 . S
H370 C393 0.948 . S
H371 C399 0.982 . S
H372 C400 0.979 . S
H373 C400 0.980 . S
H374 C400 0.983 . S
H375 C399 0.979 . S
H376 C399 0.977 . S
C377 C365 1.453 1_565 S
C377 H406 0.982 . S
C377 H407 0.979 . S
C377 H408 0.977 . S
C378 C365 1.684 . S
C378 H403 0.979 . S
C378 H404 0.980 . S
C378 H405 0.983 . S
C379 C380 1.391 . S
C379 C384 1.391 . S
C379 H409 0.948 . S
C380 C379 1.391 . S
C380 C381 1.391 . S
C381 C380 1.391 . S
C381 C382 1.392 . S
C381 H410 0.947 . S
C382 C381 1.392 . S
C382 C383 1.419 . S
C382 H411 0.948 . S
C383 C382 1.419 . S
C383 C384 1.391 . S
C383 C387 1.397 1_545 S
C384 C379 1.391 . S
C384 C383 1.391 . S
C384 C385 1.399 . S
C385 C384 1.399 . S
C385 C386 1.394 1_545 S
C385 C388 1.453 1_545 S
C385 C389 1.684 . S
C386 C367 1.717 . S
C386 C385 1.394 1_565 S
C386 C387 1.390 . S
C387 C383 1.397 1_565 S
C387 C386 1.390 . S
C387 C397 1.728 . S
C388 C385 1.453 1_565 S
C388 H412 0.982 . S
C388 H413 0.979 . S
C388 H414 0.977 . S
C389 C385 1.684 . S
C389 H415 0.979 . S
C389 H416 0.980 . S
C389 H417 0.983 . S
C390 H366 0.948 . S
C390 C391 1.391 . S
C390 C395 1.391 . S
C391 C390 1.391 . S
C391 C392 1.391 . S
C392 H369 0.947 . S
C392 C391 1.391 . S
C392 C393 1.392 . S
C393 H370 0.948 . S
C393 C392 1.392 . S
C393 C394 1.419 . S
C394 C393 1.419 . S
C394 C395 1.391 . S
C394 C398 1.398 1_545 S
C395 C390 1.391 . S
C395 C394 1.391 . S
C395 C396 1.399 . S
C396 C395 1.399 . S
C396 C397 1.384 1_545 S
C396 C399 1.453 1_545 S
C396 C400 1.684 . S
C397 C387 1.728 . S
C397 C396 1.384 1_565 S
C397 C398 1.389 . S
C398 C368 1.720 . S
C398 C394 1.398 1_565 S
C398 C397 1.389 . S
C399 H371 0.982 . S
C399 H375 0.979 . S
C399 H376 0.977 . S
C399 C396 1.453 1_565 S
C400 H372 0.979 . S
C400 H373 0.980 . S
C400 H374 0.983 . S
C400 C396 1.684 . S
H401 C419 0.948 1_554 S
H402 C360 0.948 . S
H403 C378 0.979 . S
H404 C378 0.980 . S
H405 C378 0.983 . S
H406 C377 0.982 . S
H407 C377 0.979 . S
H408 C377 0.977 . S
H409 C379 0.948 . S
H410 C381 0.947 . S
H411 C382 0.948 . S
H412 C388 0.982 . S
H413 C388 0.979 . S
H414 C388 0.977 . S
H415 C389 0.979 . S
H416 C389 0.980 . S
H417 C389 0.983 . S
H418 C362 0.947 . S
C419 C362 1.392 . S
C419 C363 1.419 . S
C419 H401 0.948 1_556 S
C420 C421 1.391 . S
C420 C424 1.391 . S
C420 H462 0.948 . S
C421 C420 1.391 . S
C421 C422 1.391 . S
C422 C421 1.391 . S
C422 H478 0.947 . S
C422 C479 1.392 . S
C423 C424 1.391 . S
C423 C427 1.397 1_556 S
C423 C479 1.419 . S
C424 C420 1.391 . S
C424 C423 1.391 . S
C424 C425 1.399 . S
C425 C424 1.399 . S
C425 C428 1.396 1_556 S
C425 C437 1.453 . S
C425 C438 1.684 . S
H426 C450 0.948 . S
C427 C423 1.397 1_554 S
C427 C428 1.394 . S
C427 C446 1.723 . S
C428 C425 1.396 1_554 S
C428 C427 1.394 . S
C428 C458 1.723 . S
H429 C452 0.947 . S
H430 C453 0.948 . S
H431 C459 0.982 . S
H432 C460 0.979 . S
H433 C460 0.980 . S
H434 C460 0.983 . S
H435 C459 0.979 . S
H436 C459 0.977 . S
C437 C425 1.453 . S
C437 H466 0.982 . S
C437 H467 0.979 . S
C437 H468 0.977 . S
C438 C425 1.684 . S
C438 H463 0.979 . S
C438 H464 0.980 . S
C438 H465 0.983 . S
C439 C440 1.391 . S
C439 C444 1.391 . S
C439 H469 0.948 . S
C440 C439 1.391 . S
C440 C441 1.391 . S
C441 C440 1.391 . S
C441 C442 1.392 . S
C441 H470 0.947 . S
C442 C441 1.392 . S
C442 C443 1.419 . S
C442 H471 0.948 . S
C443 C442 1.419 . S
C443 C444 1.391 . S
C443 C447 1.397 . S
C444 C439 1.391 . S
C444 C443 1.391 . S
C444 C445 1.399 . S
C445 C444 1.399 . S
C445 C446 1.396 . S
C445 C448 1.453 . S
C445 C449 1.684 . S
C446 C427 1.723 . S
C446 C445 1.396 . S
C446 C447 1.394 . S
C447 C443 1.397 . S
C447 C446 1.394 . S
C447 C457 1.723 . S
C448 C445 1.453 . S
C448 H472 0.982 . S
C448 H473 0.979 . S
C448 H474 0.977 . S
C449 C445 1.684 . S
C449 H475 0.979 . S
C449 H476 0.980 . S
C449 H477 0.983 . S
C450 H426 0.948 . S
C450 C451 1.391 . S
C450 C455 1.391 . S
C451 C450 1.391 . S
C451 C452 1.391 . S
C452 H429 0.947 . S
C452 C451 1.391 . S
C452 C453 1.392 . S
C453 H430 0.948 . S
C453 C452 1.392 . S
C453 C454 1.419 . S
C454 C453 1.419 . S
C454 C455 1.391 . S
C454 C458 1.397 . S
C455 C450 1.391 . S
C455 C454 1.391 . S
C455 C456 1.399 . S
C456 C455 1.399 . S
C456 C457 1.396 . S
C456 C459 1.453 . S
C456 C460 1.684 . S
C457 C447 1.723 . S
C457 C456 1.396 . S
C457 C458 1.394 . S
C458 C428 1.723 . S
C458 C454 1.397 . S
C458 C457 1.394 . S
C459 H431 0.982 . S
C459 H435 0.979 . S
C459 H436 0.977 . S
C459 C456 1.453 . S
C460 H432 0.979 . S
C460 H433 0.980 . S
C460 H434 0.983 . S
C460 C456 1.684 . S
H461 C479 0.948 . S
H462 C420 0.948 . S
H463 C438 0.979 . S
H464 C438 0.980 . S
H465 C438 0.983 . S
H466 C437 0.982 . S
H467 C437 0.979 . S
H468 C437 0.977 . S
H469 C439 0.948 . S
H470 C441 0.947 . S
H471 C442 0.948 . S
H472 C448 0.982 . S
H473 C448 0.979 . S
H474 C448 0.977 . S
H475 C449 0.979 . S
H476 C449 0.980 . S
H477 C449 0.983 . S
H478 C422 0.947 . S
C479 C422 1.392 . S
C479 C423 1.419 . S
C479 H461 0.948 . S
Dy480 O484 2.398 . S
Dy480 O485 2.491 1_455 S
Dy480 O486 2.403 . S
Dy480 O487 2.664 1_565 S
Dy480 O491 2.326 . S
Dy480 O495 2.310 1_455 S
Dy480 O496 2.351 1_565 S
C481 O492 1.185 1_455 S
C481 O493 1.355 . S
C482 O484 1.185 . S
C482 O485 1.355 1_455 S
Dy483 O487 2.285 1_655 S
Dy483 O490 2.357 1_545 S
Dy483 O492 2.406 . S
Dy483 O493 2.474 1_655 S
Dy483 O494 2.428 . S
Dy483 O495 2.673 1_545 S
Dy483 O497 2.320 1_655 S
O484 Dy480 2.398 . S
O484 C482 1.185 . S
O485 Dy480 2.491 1_655 S
O485 C482 1.355 1_655 S
O486 Dy480 2.403 . S
O486 C488 1.254 . S
O487 Dy480 2.664 1_545 S
O487 Dy483 2.285 1_455 S
O487 C488 1.268 1_545 S
C488 O486 1.254 . S
C488 O487 1.268 1_565 S
C489 O494 1.254 . S
C489 O495 1.268 1_545 S
O490 Dy483 2.357 1_565 S
O490 C498 1.249 . S
O491 Dy480 2.326 . S
O491 C498 1.267 1_455 S
O492 C481 1.185 1_655 S
O492 Dy483 2.406 . S
O493 C481 1.355 . S
O493 Dy483 2.474 1_455 S
O494 Dy483 2.428 . S
O494 C489 1.254 . S
O495 Dy480 2.310 1_655 S
O495 Dy483 2.673 1_565 S
O495 C489 1.268 1_565 S
O496 Dy480 2.351 1_545 S
O496 C499 1.249 . S
O497 Dy483 2.320 1_455 S
O497 C499 1.267 . S
C498 O490 1.249 . S
C498 O491 1.267 1_655 S
C499 O496 1.249 . S
C499 O497 1.267 . S
Dy500 O504 2.398 . S
Dy500 O505 2.491 . S
Dy500 O506 2.403 . S
Dy500 O507 2.664 . S
Dy500 O511 2.326 1_565 S
Dy500 O515 2.310 1_565 S
Dy500 O516 2.351 . S
C501 O512 1.185 . S
C501 O513 1.355 . S
C502 O504 1.185 . S
C502 O505 1.355 . S
Dy503 O507 2.310 1_545 S
Dy503 O510 2.351 . S
Dy503 O512 2.398 . S
Dy503 O513 2.491 . S
Dy503 O514 2.403 . S
Dy503 O515 2.664 . S
Dy503 O517 2.326 1_545 S
O504 Dy500 2.398 . S
O504 C502 1.185 . S
O505 Dy500 2.491 . S
O505 C502 1.355 . S
O506 Dy500 2.403 . S
O506 C508 1.254 . S
O507 Dy500 2.664 . S
O507 Dy503 2.310 1_565 S
O507 C508 1.268 . S
C508 O506 1.254 . S
C508 O507 1.268 . S
C509 O514 1.254 . S
C509 O515 1.268 . S
O510 Dy503 2.351 . S
O510 C518 1.249 . S
O511 Dy500 2.326 1_545 S
O511 C518 1.267 . S
O512 C501 1.185 . S
O512 Dy503 2.398 . S
O513 C501 1.355 . S
O513 Dy503 2.491 . S
O514 Dy503 2.403 . S
O514 C509 1.254 . S
O515 Dy500 2.310 1_545 S
O515 Dy503 2.664 . S
O515 C509 1.268 . S
O516 Dy500 2.351 . S
O516 C519 1.249 . S
O517 Dy503 2.326 1_565 S
O517 C519 1.267 . S
C518 O510 1.249 . S
C518 O511 1.267 . S
C519 O516 1.249 . S
C519 O517 1.267 . S
Dy520 O524 2.398 . S
Dy520 O525 2.491 . S
Dy520 O526 2.403 . S
Dy520 O527 2.664 . S
Dy520 O531 2.326 . S
Dy520 O535 2.310 . S
Dy520 O536 2.351 . S
C521 O532 1.185 . S
C521 O533 1.355 . S
C522 O524 1.185 . S
C522 O525 1.355 . S
Dy523 O527 2.310 . S
Dy523 O530 2.351 . S
Dy523 O532 2.398 . S
Dy523 O533 2.491 . S
Dy523 O534 2.403 . S
Dy523 O535 2.664 . S
Dy523 O537 2.326 . S
O524 Dy520 2.398 . S
O524 C522 1.185 . S
O525 Dy520 2.491 . S
O525 C522 1.355 . S
O526 Dy520 2.403 . S
O526 C528 1.254 . S
O527 Dy520 2.664 . S
O527 Dy523 2.310 . S
O527 C528 1.268 . S
C528 O526 1.254 . S
C528 O527 1.268 . S
C529 O534 1.254 . S
C529 O535 1.268 . S
O530 Dy523 2.351 . S
O530 C538 1.249 . S
O531 Dy520 2.326 . S
O531 C538 1.267 . S
O532 C521 1.185 . S
O532 Dy523 2.398 . S
O533 C521 1.355 . S
O533 Dy523 2.491 . S
O534 Dy523 2.403 . S
O534 C529 1.254 . S
O535 Dy520 2.310 . S
O535 Dy523 2.664 . S
O535 C529 1.268 . S
O536 Dy520 2.351 . S
O536 C539 1.249 . S
O537 Dy523 2.326 . S
O537 C539 1.267 . S
C538 O530 1.249 . S
C538 O531 1.267 . S
C539 O536 1.249 . S
C539 O537 1.267 . S
Dy540 O544 2.398 . S
Dy540 O545 2.491 . S
Dy540 O546 2.403 1_655 S
Dy540 O547 2.664 1_655 S
Dy540 O551 2.326 . S
Dy540 O555 2.310 . S
Dy540 O556 2.351 1_655 S
C541 O552 1.185 . S
C541 O553 1.355 . S
C542 O544 1.185 . S
C542 O545 1.355 . S
Dy543 O547 2.310 . S
Dy543 O550 2.351 1_455 S
Dy543 O552 2.398 . S
Dy543 O553 2.491 . S
Dy543 O554 2.403 . S
Dy543 O555 2.664 1_455 S
Dy543 O557 2.326 . S
O544 Dy540 2.398 . S
O544 C542 1.185 . S
O545 Dy540 2.491 . S
O545 C542 1.355 . S
O546 Dy540 2.403 1_455 S
O546 C548 1.254 . S
O547 Dy540 2.664 1_455 S
O547 Dy543 2.310 . S
O547 C548 1.268 . S
C548 O546 1.254 . S
C548 O547 1.268 . S
C549 O554 1.254 1_655 S
C549 O555 1.268 . S
O550 Dy543 2.351 1_655 S
O550 C558 1.249 . S
O551 Dy540 2.326 . S
O551 C558 1.267 . S
O552 C541 1.185 . S
O552 Dy543 2.398 . S
O553 C541 1.355 . S
O553 Dy543 2.491 . S
O554 Dy543 2.403 . S
O554 C549 1.254 1_455 S
O555 Dy540 2.310 . S
O555 Dy543 2.664 1_655 S
O555 C549 1.268 . S
O556 Dy540 2.351 1_455 S
O556 C559 1.249 . S
O557 Dy543 2.326 . S
O557 C559 1.267 . S
C558 O550 1.249 . S
C558 O551 1.267 . S
C559 O556 1.249 . S
C559 O557 1.267 . S
H560 C568 0.929 . S
H561 C570 0.930 . S
H562 C572 0.930 . S
H563 C575 0.929 . S
H564 C578 0.930 . S
H565 C580 0.960 . S
H566 C580 0.960 . S
H567 C580 0.960 . S
C568 H560 0.929 . S
C568 C569 1.378 . S
C568 C570 1.384 . S
C569 C568 1.378 . S
C569 C575 1.390 1_545 S
C570 H561 0.930 . S
C570 C568 1.384 . S
C570 C571 1.364 1_545 S
C571 C570 1.364 1_565 S
C571 C572 1.409 . S
C571 C576 1.490 . S
C572 H562 0.930 . S
C572 C571 1.409 . S
C572 C575 1.386 . S
H573 C589 0.930 . S
H574 C590 0.931 . S
C575 H563 0.929 . S
C575 C569 1.390 1_565 S
C575 C572 1.386 . S
C576 C571 1.490 . S
C576 C578 1.395 . S
C576 C579 1.403 1_565 S
H577 C583 0.930 . S
C578 H564 0.930 . S
C578 C576 1.395 . S
C578 C581 1.403 . S
C579 C576 1.403 1_545 S
C579 C580 1.524 . S
C579 C583 1.400 . S
C580 H565 0.960 . S
C580 H566 0.960 . S
C580 H567 0.960 . S
C580 C579 1.524 . S
C581 C578 1.403 . S
C581 C582 1.392 . S
C581 C585 1.495 . S
C582 C581 1.392 . S
C582 C583 1.385 1_565 S
C582 C584 1.478 . S
C583 H577 0.930 . S
C583 C579 1.400 . S
C583 C582 1.385 1_545 S
C584 C582 1.478 . S
C584 C586 1.373 1_565 S
C584 C590 1.383 . S
C585 C581 1.495 . S
C585 H591 0.959 . S
C585 H592 0.961 . S
C585 H593 0.960 . S
C586 C584 1.373 1_545 S
C586 C587 1.396 . S
C586 H594 0.937 . S
C587 C586 1.396 . S
C587 C588 1.383 1_545 S
C587 H595 0.929 . S
C588 C587 1.383 1_565 S
C588 C589 1.377 . S
C589 H573 0.930 . S
C589 C588 1.377 . S
C589 C590 1.379 . S
C590 H574 0.931 . S
C590 C584 1.383 . S
C590 C589 1.379 . S
H591 C585 0.959 . S
H592 C585 0.961 . S
H593 C585 0.960 . S
H594 C586 0.937 . S
H595 C587 0.929 . S
H596 C604 0.929 . S
H597 C606 0.930 . S
H598 C608 0.930 . S
H599 C611 0.929 . S
H600 C614 0.930 . S
H601 C616 0.960 . S
H602 C616 0.960 . S
H603 C616 0.960 . S
C604 H596 0.929 . S
C604 C605 1.377 . S
C604 C606 1.384 . S
C605 C604 1.377 . S
C605 C611 1.390 . S
C606 H597 0.930 . S
C606 C604 1.384 . S
C606 C607 1.372 . S
C607 C606 1.372 . S
C607 C608 1.400 . S
C607 C612 1.490 . S
C608 H598 0.930 . S
C608 C607 1.400 . S
C608 C611 1.386 . S
H609 C625 0.930 . S
H610 C626 0.931 . S
C611 H599 0.929 . S
C611 C605 1.390 . S
C611 C608 1.386 . S
C612 C607 1.490 . S
C612 C614 1.395 . S
C612 C615 1.403 . S
H613 C619 0.930 . S
C614 H600 0.930 . S
C614 C612 1.395 . S
C614 C617 1.403 . S
C615 C612 1.403 . S
C615 C616 1.524 . S
C615 C619 1.400 . S
C616 H601 0.960 . S
C616 H602 0.960 . S
C616 H603 0.960 . S
C616 C615 1.524 . S
C617 C614 1.403 . S
C617 C618 1.392 . S
C617 C621 1.495 . S
C618 C617 1.392 . S
C618 C619 1.385 . S
C618 C620 1.478 . S
C619 H613 0.930 . S
C619 C615 1.400 . S
C619 C618 1.385 . S
C620 C618 1.478 . S
C620 C622 1.381 . S
C620 C626 1.383 . S
C621 C617 1.495 . S
C621 H627 0.959 . S
C621 H628 0.961 . S
C621 H629 0.960 . S
C622 C620 1.381 . S
C622 C623 1.394 . S
C622 H630 0.930 . S
C623 C622 1.394 . S
C623 C624 1.383 . S
C623 H631 0.929 . S
C624 C623 1.383 . S
C624 C625 1.377 . S
C625 H609 0.930 . S
C625 C624 1.377 . S
C625 C626 1.379 . S
C626 H610 0.931 . S
C626 C620 1.383 . S
C626 C625 1.379 . S
H627 C621 0.959 . S
H628 C621 0.961 . S
H629 C621 0.960 . S
H630 C622 0.930 . S
H631 C623 0.929 . S
H632 C640 0.929 . S
H633 C642 0.930 . S
H634 C644 0.930 . S
H635 C647 0.929 . S
H636 C650 0.930 . S
H637 C652 0.960 . S
H638 C652 0.960 . S
H639 C652 0.960 . S
C640 H632 0.929 . S
C640 C641 1.377 . S
C640 C642 1.384 . S
C641 C640 1.377 . S
C641 C647 1.390 . S
C642 H633 0.930 . S
C642 C640 1.384 . S
C642 C643 1.372 . S
C643 C642 1.372 . S
C643 C644 1.400 . S
C643 C648 1.490 . S
C644 H634 0.930 . S
C644 C643 1.400 . S
C644 C647 1.386 . S
H645 C661 0.930 . S
H646 C662 0.931 . S
C647 H635 0.929 . S
C647 C641 1.390 . S
C647 C644 1.386 . S
C648 C643 1.490 . S
C648 C650 1.395 . S
C648 C651 1.403 . S
H649 C655 0.930 . S
C650 H636 0.930 . S
C650 C648 1.395 . S
C650 C653 1.403 . S
C651 C648 1.403 . S
C651 C652 1.524 . S
C651 C655 1.400 . S
C652 H637 0.960 . S
C652 H638 0.960 . S
C652 H639 0.960 . S
C652 C651 1.524 . S
C653 C650 1.403 . S
C653 C654 1.392 . S
C653 C657 1.495 . S
C654 C653 1.392 . S
C654 C655 1.385 . S
C654 C656 1.478 . S
C655 H649 0.930 . S
C655 C651 1.400 . S
C655 C654 1.385 . S
C656 C654 1.478 . S
C656 C658 1.381 . S
C656 C662 1.383 . S
C657 C653 1.495 . S
C657 H663 0.959 . S
C657 H664 0.961 . S
C657 H665 0.960 . S
C658 C656 1.381 . S
C658 C659 1.394 . S
C658 H666 0.930 . S
C659 C658 1.394 . S
C659 C660 1.383 . S
C659 H667 0.929 . S
C660 C659 1.383 . S
C660 C661 1.377 . S
C661 H645 0.930 . S
C661 C660 1.377 . S
C661 C662 1.379 . S
C662 H646 0.931 . S
C662 C656 1.383 . S
C662 C661 1.379 . S
H663 C657 0.959 . S
H664 C657 0.961 . S
H665 C657 0.960 . S
H666 C658 0.930 . S
H667 C659 0.929 . S
H668 C676 0.929 . S
H669 C678 0.930 . S
H670 C680 0.930 . S
H671 C683 0.929 . S
H672 C686 0.930 . S
H673 C688 0.960 . S
H674 C688 0.960 . S
H675 C688 0.960 . S
C676 H668 0.929 . S
C676 C677 1.377 . S
C676 C678 1.384 . S
C677 C676 1.377 . S
C677 C683 1.390 . S
C678 H669 0.930 . S
C678 C676 1.384 . S
C678 C679 1.372 . S
C679 C678 1.372 . S
C679 C680 1.400 . S
C679 C684 1.490 . S
C680 H670 0.930 . S
C680 C679 1.400 . S
C680 C683 1.386 . S
H681 C697 0.915 1_655 S
H682 C698 0.931 . S
C683 H671 0.929 . S
C683 C677 1.390 . S
C683 C680 1.386 . S
C684 C679 1.490 . S
C684 C686 1.395 . S
C684 C687 1.403 . S
H685 C691 0.930 . S
C686 H672 0.930 . S
C686 C684 1.395 . S
C686 C689 1.403 . S
C687 C684 1.403 . S
C687 C688 1.524 . S
C687 C691 1.400 . S
C688 H673 0.960 . S
C688 H674 0.960 . S
C688 H675 0.960 . S
C688 C687 1.524 . S
C689 C686 1.403 . S
C689 C690 1.392 . S
C689 C693 1.495 . S
C690 C689 1.392 . S
C690 C691 1.385 . S
C690 C692 1.478 . S
C691 H685 0.930 . S
C691 C687 1.400 . S
C691 C690 1.385 . S
C692 C690 1.478 . S
C692 C694 1.381 . S
C692 C698 1.383 . S
C693 C689 1.495 . S
C693 H699 0.959 . S
C693 H700 0.961 . S
C693 H701 0.960 . S
C694 C692 1.381 . S
C694 C695 1.394 . S
C694 H702 0.930 . S
C695 C694 1.394 . S
C695 C696 1.383 . S
C695 H703 0.929 . S
C696 C695 1.383 . S
C696 C697 1.377 . S
C697 H681 0.915 1_455 S
C697 C696 1.377 . S
C697 C698 1.379 . S
C698 H682 0.931 . S
C698 C692 1.383 . S
C698 C697 1.379 . S
H699 C693 0.959 . S
H700 C693 0.961 . S
H701 C693 0.960 . S
H702 C694 0.930 . S
H703 C695 0.929 . S
H704 C712 0.929 . S
H705 C714 0.930 . S
H706 C716 0.930 . S
H707 C719 0.929 . S
H708 C722 0.930 . S
H709 C724 0.960 . S
H710 C724 0.960 . S
H711 C724 0.960 . S
C712 H704 0.929 . S
C712 C713 1.372 1_565 S
C712 C714 1.384 . S
C713 C712 1.372 1_545 S
C713 C719 1.395 . S
C714 H705 0.930 . S
C714 C712 1.384 . S
C714 C715 1.369 1_565 S
C715 C714 1.369 1_545 S
C715 C716 1.403 . S
C715 C720 1.490 . S
C716 H706 0.930 . S
C716 C715 1.403 . S
C716 C719 1.386 . S
H717 C733 0.930 . S
H718 C734 0.931 . S
C719 H707 0.929 . S
C719 C713 1.395 . S
C719 C716 1.386 . S
C720 C715 1.490 . S
C720 C722 1.391 1_545 S
C720 C723 1.406 . S
H721 C727 0.930 . S
C722 H708 0.930 . S
C722 C720 1.391 1_565 S
C722 C725 1.403 . S
C723 C720 1.406 . S
C723 C724 1.524 . S
C723 C727 1.400 . S
C724 H709 0.960 . S
C724 H710 0.960 . S
C724 H711 0.960 . S
C724 C723 1.524 . S
C725 C722 1.403 . S
C725 C726 1.394 . S
C725 C729 1.495 . S
C726 C725 1.394 . S
C726 C727 1.383 1_565 S
C726 C728 1.479 1_565 S
C727 H721 0.930 . S
C727 C723 1.400 . S
C727 C726 1.383 1_545 S
C728 C726 1.479 1_545 S
C728 C730 1.348 1_545 S
C728 C734 1.415 . S
C729 C725 1.495 . S
C729 H735 0.959 . S
C729 H736 0.961 . S
C729 H737 0.960 . S
C730 C728 1.348 1_565 S
C730 C731 1.394 . S
C730 H738 0.930 . S
C731 C730 1.394 . S
C731 C732 1.383 1_565 S
C731 H739 0.929 . S
C732 C731 1.383 1_545 S
C732 C733 1.377 . S
C733 H717 0.930 . S
C733 C732 1.377 . S
C733 C734 1.379 . S
C734 H718 0.931 . S
C734 C728 1.415 . S
C734 C733 1.379 . S
H735 C729 0.959 . S
H736 C729 0.961 . S
H737 C729 0.960 . S
H738 C730 0.930 . S
H739 C731 0.929 . S
H740 C748 0.929 . S
H741 C750 0.930 . S
H742 C752 0.930 . S
H743 C755 0.929 . S
H744 C758 0.930 . S
H745 C760 0.960 . S
H746 C760 0.960 . S
H747 C760 0.960 . S
C748 H740 0.929 . S
C748 C749 1.377 . S
C748 C750 1.384 . S
C749 C748 1.377 . S
C749 C755 1.390 . S
C750 H741 0.930 . S
C750 C748 1.384 . S
C750 C751 1.372 . S
C751 C750 1.372 . S
C751 C752 1.400 . S
C751 C756 1.490 . S
C752 H742 0.930 . S
C752 C751 1.400 . S
C752 C755 1.386 . S
H753 C769 0.930 . S
H754 C770 0.931 . S
C755 H743 0.929 . S
C755 C749 1.390 . S
C755 C752 1.386 . S
C756 C751 1.490 . S
C756 C758 1.395 . S
C756 C759 1.403 . S
H757 C763 0.930 . S
C758 H744 0.930 . S
C758 C756 1.395 . S
C758 C761 1.403 . S
C759 C756 1.403 . S
C759 C760 1.524 . S
C759 C763 1.400 . S
C760 H745 0.960 . S
C760 H746 0.960 . S
C760 H747 0.960 . S
C760 C759 1.524 . S
C761 C758 1.403 . S
C761 C762 1.392 . S
C761 C765 1.495 . S
C762 C761 1.392 . S
C762 C763 1.385 . S
C762 C764 1.478 . S
C763 H757 0.930 . S
C763 C759 1.400 . S
C763 C762 1.385 . S
C764 C762 1.478 . S
C764 C766 1.381 . S
C764 C770 1.383 . S
C765 C761 1.495 . S
C765 H771 0.959 . S
C765 H772 0.961 . S
C765 H773 0.960 . S
C766 C764 1.381 . S
C766 C767 1.394 . S
C766 H774 0.930 . S
C767 C766 1.394 . S
C767 C768 1.383 . S
C767 H775 0.929 . S
C768 C767 1.383 . S
C768 C769 1.377 . S
C769 H753 0.930 . S
C769 C768 1.377 . S
C769 C770 1.379 . S
C770 H754 0.931 . S
C770 C764 1.383 . S
C770 C769 1.379 . S
H771 C765 0.959 . S
H772 C765 0.961 . S
H773 C765 0.960 . S
H774 C766 0.930 . S
H775 C767 0.929 . S
H776 C784 0.929 . S
H777 C786 0.930 . S
H778 C788 0.930 . S
H779 C791 0.929 . S
H780 C794 0.930 . S
H781 C796 0.960 . S
H782 C796 0.960 . S
H783 C796 0.960 . S
C784 H776 0.929 . S
C784 C785 1.377 . S
C784 C786 1.384 . S
C785 C784 1.377 . S
C785 C791 1.390 . S
C786 H777 0.930 . S
C786 C784 1.384 . S
C786 C787 1.372 . S
C787 C786 1.372 . S
C787 C788 1.400 . S
C787 C792 1.490 . S
C788 H778 0.930 . S
C788 C787 1.400 . S
C788 C791 1.386 . S
H789 C805 0.930 . S
H790 C806 0.931 . S
C791 H779 0.929 . S
C791 C785 1.390 . S
C791 C788 1.386 . S
C792 C787 1.490 . S
C792 C794 1.395 . S
C792 C795 1.403 . S
H793 C799 0.930 . S
C794 H780 0.930 . S
C794 C792 1.395 . S
C794 C797 1.403 . S
C795 C792 1.403 . S
C795 C796 1.524 . S
C795 C799 1.400 . S
C796 H781 0.960 . S
C796 H782 0.960 . S
C796 H783 0.960 . S
C796 C795 1.524 . S
C797 C794 1.403 . S
C797 C798 1.392 . S
C797 C801 1.495 . S
C798 C797 1.392 . S
C798 C799 1.385 . S
C798 C800 1.478 . S
C799 H793 0.930 . S
C799 C795 1.400 . S
C799 C798 1.385 . S
C800 C798 1.478 . S
C800 C802 1.381 . S
C800 C806 1.383 . S
C801 C797 1.495 . S
C801 H807 0.959 . S
C801 H808 0.961 . S
C801 H809 0.960 . S
C802 C800 1.381 . S
C802 C803 1.394 . S
C802 H810 0.930 . S
C803 C802 1.394 . S
C803 C804 1.383 . S
C803 H811 0.929 . S
C804 C803 1.383 . S
C804 C805 1.377 . S
C805 H789 0.930 . S
C805 C804 1.377 . S
C805 C806 1.379 . S
C806 H790 0.931 . S
C806 C800 1.383 . S
C806 C805 1.379 . S
H807 C801 0.959 . S
H808 C801 0.961 . S
H809 C801 0.960 . S
H810 C802 0.930 . S
H811 C803 0.929 . S
H812 C820 0.929 . S
H813 C822 0.930 . S
H814 C824 0.930 . S
H815 C827 0.929 . S
H816 C830 0.930 . S
H817 C832 0.960 . S
H818 C832 0.960 . S
H819 C832 0.960 . S
C820 H812 0.929 . S
C820 C821 1.377 . S
C820 C822 1.384 . S
C821 C820 1.377 . S
C821 C827 1.390 . S
C822 H813 0.930 . S
C822 C820 1.384 . S
C822 C823 1.372 . S
C823 C822 1.372 . S
C823 C824 1.400 . S
C823 C828 1.490 . S
C824 H814 0.930 . S
C824 C823 1.400 . S
C824 C827 1.386 . S
H825 C841 0.930 . S
H826 C842 0.931 . S
C827 H815 0.929 . S
C827 C821 1.390 . S
C827 C824 1.386 . S
C828 C823 1.490 . S
C828 C830 1.395 . S
C828 C831 1.403 . S
H829 C835 0.930 . S
C830 H816 0.930 . S
C830 C828 1.395 . S
C830 C833 1.403 . S
C831 C828 1.403 . S
C831 C832 1.524 . S
C831 C835 1.400 . S
C832 H817 0.960 . S
C832 H818 0.960 . S
C832 H819 0.960 . S
C832 C831 1.524 . S
C833 C830 1.403 . S
C833 C834 1.392 . S
C833 C837 1.495 . S
C834 C833 1.392 . S
C834 C835 1.385 . S
C834 C836 1.478 . S
C835 H829 0.930 . S
C835 C831 1.400 . S
C835 C834 1.385 . S
C836 C834 1.478 . S
C836 C838 1.381 . S
C836 C842 1.383 . S
C837 C833 1.495 . S
C837 H843 0.959 . S
C837 H844 0.961 . S
C837 H845 0.960 . S
C838 C836 1.381 . S
C838 C839 1.394 . S
C838 H846 0.930 . S
C839 C838 1.394 . S
C839 C840 1.383 . S
C839 H847 0.929 . S
C840 C839 1.383 . S
C840 C841 1.377 . S
C841 H825 0.930 . S
C841 C840 1.377 . S
C841 C842 1.379 . S
C842 H826 0.931 . S
C842 C836 1.383 . S
C842 C841 1.379 . S
H843 C837 0.959 . S
H844 C837 0.961 . S
H845 C837 0.960 . S
H846 C838 0.930 . S
H847 C839 0.929 . S
H848 C856 0.929 . S
H849 C858 0.930 . S
H850 C860 0.930 . S
H851 C863 0.929 . S
H852 C866 0.930 . S
H853 C868 0.960 . S
H854 C868 0.960 . S
H855 C868 0.960 . S
C856 H848 0.929 . S
C856 C857 1.377 . S
C856 C858 1.384 . S
C857 C856 1.377 . S
C857 C863 1.390 . S
C858 H849 0.930 . S
C858 C856 1.384 . S
C858 C859 1.372 . S
C859 C858 1.372 . S
C859 C860 1.400 . S
C859 C864 1.490 . S
C860 H850 0.930 . S
C860 C859 1.400 . S
C860 C863 1.386 . S
H861 C877 0.930 . S
H862 C878 0.931 . S
C863 H851 0.929 . S
C863 C857 1.390 . S
C863 C860 1.386 . S
C864 C859 1.490 . S
C864 C866 1.395 . S
C864 C867 1.403 . S
H865 C871 0.930 . S
C866 H852 0.930 . S
C866 C864 1.395 . S
C866 C869 1.403 . S
C867 C864 1.403 . S
C867 C868 1.524 . S
C867 C871 1.400 . S
C868 H853 0.960 . S
C868 H854 0.960 . S
C868 H855 0.960 . S
C868 C867 1.524 . S
C869 C866 1.403 . S
C869 C870 1.392 . S
C869 C873 1.495 . S
C870 C869 1.392 . S
C870 C871 1.385 . S
C870 C872 1.478 . S
C871 H865 0.930 . S
C871 C867 1.400 . S
C871 C870 1.385 . S
C872 C870 1.478 . S
C872 C874 1.381 . S
C872 C878 1.383 . S
C873 C869 1.495 . S
C873 H879 0.959 . S
C873 H880 0.961 . S
C873 H881 0.960 . S
C874 C872 1.381 . S
C874 C875 1.416 . S
C874 H882 0.930 . S
C875 C874 1.416 . S
C875 C876 1.413 . S
C875 H883 0.879 1_455 S
C876 C875 1.413 . S
C876 C877 1.377 . S
C877 H861 0.930 . S
C877 C876 1.377 . S
C877 C878 1.379 . S
C878 H862 0.931 . S
C878 C872 1.383 . S
C878 C877 1.379 . S
H879 C873 0.959 . S
H880 C873 0.961 . S
H881 C873 0.960 . S
H882 C874 0.930 . S
H883 C875 0.879 1_655 S
H884 C892 0.929 . S
H885 C894 0.930 . S
H886 C896 0.930 . S
H887 C899 0.929 . S
H888 C902 0.930 . S
H889 C904 0.957 1_565 S
H890 C904 0.980 . S
H891 C904 0.946 1_565 S
C892 H884 0.929 . S
C892 C893 1.377 . S
C892 C894 1.384 . S
C893 C892 1.377 . S
C893 C899 1.390 1_545 S
C894 H885 0.930 . S
C894 C892 1.384 . S
C894 C895 1.349 1_545 S
C895 C894 1.349 1_565 S
C895 C896 1.418 . S
C895 C900 1.495 . S
C896 H886 0.930 . S
C896 C895 1.418 . S
C896 C899 1.386 . S
H897 C913 0.930 . S
H898 C914 0.931 . S
C899 H887 0.929 . S
C899 C893 1.390 1_565 S
C899 C896 1.386 . S
C900 C895 1.495 . S
C900 C902 1.395 . S
C900 C903 1.403 . S
H901 C907 0.930 . S
C902 H888 0.930 . S
C902 C900 1.395 . S
C902 C905 1.403 . S
C903 C900 1.403 . S
C903 C904 1.521 1_565 S
C903 C907 1.400 . S
C904 H889 0.957 1_545 S
C904 H890 0.980 . S
C904 H891 0.946 1_545 S
C904 C903 1.521 1_545 S
C905 C902 1.403 . S
C905 C906 1.392 . S
C905 C909 1.495 . S
C906 C905 1.392 . S
C906 C907 1.385 . S
C906 C908 1.478 . S
C907 H901 0.930 . S
C907 C903 1.400 . S
C907 C906 1.385 . S
C908 C906 1.478 . S
C908 C910 1.381 1_565 S
C908 C914 1.383 . S
C909 C905 1.495 . S
C909 H915 0.959 . S
C909 H916 0.961 . S
C909 H917 0.960 1_565 S
C910 C908 1.381 1_545 S
C910 C911 1.394 . S
C910 H918 0.930 . S
C911 C910 1.394 . S
C911 C912 1.383 1_545 S
C911 H919 0.929 . S
C912 C911 1.383 1_565 S
C912 C913 1.377 . S
C913 H897 0.930 . S
C913 C912 1.377 . S
C913 C914 1.379 . S
C914 H898 0.931 . S
C914 C908 1.383 . S
C914 C913 1.379 . S
H915 C909 0.959 . S
H916 C909 0.961 . S
H917 C909 0.960 1_545 S
H918 C910 0.930 . S
H919 C911 0.929 . S
H920 C928 0.929 . S
H921 C930 0.930 . S
H922 C932 0.930 . S
H923 C935 0.929 . S
H924 C938 0.930 . S
H925 C940 0.960 . S
H926 C940 0.960 . S
H927 C940 0.960 . S
C928 H920 0.929 . S
C928 C929 1.377 . S
C928 C930 1.384 . S
C929 C928 1.377 . S
C929 C935 1.390 . S
C930 H921 0.930 . S
C930 C928 1.384 . S
C930 C931 1.372 . S
C931 C930 1.372 . S
C931 C932 1.400 . S
C931 C936 1.490 . S
C932 H922 0.930 . S
C932 C931 1.400 . S
C932 C935 1.386 . S
H933 C949 0.930 . S
H934 C950 0.931 . S
C935 H923 0.929 . S
C935 C929 1.390 . S
C935 C932 1.386 . S
C936 C931 1.490 . S
C936 C938 1.395 . S
C936 C939 1.403 . S
H937 C943 0.930 . S
C938 H924 0.930 . S
C938 C936 1.395 . S
C938 C941 1.403 . S
C939 C936 1.403 . S
C939 C940 1.524 . S
C939 C943 1.400 . S
C940 H925 0.960 . S
C940 H926 0.960 . S
C940 H927 0.960 . S
C940 C939 1.524 . S
C941 C938 1.403 . S
C941 C942 1.392 . S
C941 C945 1.495 . S
C942 C941 1.392 . S
C942 C943 1.385 . S
C942 C944 1.478 . S
C943 H937 0.930 . S
C943 C939 1.400 . S
C943 C942 1.385 . S
C944 C942 1.478 . S
C944 C946 1.381 . S
C944 C950 1.383 . S
C945 C941 1.495 . S
C945 H951 0.959 . S
C945 H952 0.961 . S
C945 H953 0.960 . S
C946 C944 1.381 . S
C946 C947 1.394 . S
C946 H954 0.930 . S
C947 C946 1.394 . S
C947 C948 1.383 . S
C947 H955 0.929 . S
C948 C947 1.383 . S
C948 C949 1.377 . S
C949 H933 0.930 . S
C949 C948 1.377 . S
C949 C950 1.379 . S
C950 H934 0.931 . S
C950 C944 1.383 . S
C950 C949 1.379 . S
H951 C945 0.959 . S
H952 C945 0.961 . S
H953 C945 0.960 . S
H954 C946 0.930 . S
H955 C947 0.929 . S
H956 C964 0.929 . S
H957 C966 0.930 . S
H958 C968 0.930 . S
H959 C971 0.929 . S
H960 C974 0.930 . S
H961 C976 0.960 . S
H962 C976 0.960 . S
H963 C976 0.960 . S
C964 H956 0.929 . S
C964 C965 1.377 . S
C964 C966 1.384 . S
C965 C964 1.377 . S
C965 C971 1.390 . S
C966 H957 0.930 . S
C966 C964 1.384 . S
C966 C967 1.372 . S
C967 C966 1.372 . S
C967 C968 1.400 . S
C967 C972 1.490 . S
C968 H958 0.930 . S
C968 C967 1.400 . S
C968 C971 1.386 . S
H969 C985 0.930 . S
H970 C986 0.931 . S
C971 H959 0.929 . S
C971 C965 1.390 . S
C971 C968 1.386 . S
C972 C967 1.490 . S
C972 C974 1.395 . S
C972 C975 1.403 . S
H973 C979 0.930 . S
C974 H960 0.930 . S
C974 C972 1.395 . S
C974 C977 1.403 . S
C975 C972 1.403 . S
C975 C976 1.524 . S
C975 C979 1.400 . S
C976 H961 0.960 . S
C976 H962 0.960 . S
C976 H963 0.960 . S
C976 C975 1.524 . S
C977 C974 1.403 . S
C977 C978 1.392 . S
C977 C981 1.495 . S
C978 C977 1.392 . S
C978 C979 1.385 . S
C978 C980 1.478 . S
C979 H973 0.930 . S
C979 C975 1.400 . S
C979 C978 1.385 . S
C980 C978 1.478 . S
C980 C982 1.381 . S
C980 C986 1.383 . S
C981 C977 1.495 . S
C981 H987 0.959 . S
C981 H988 0.961 . S
C981 H989 0.960 . S
C982 C980 1.381 . S
C982 C983 1.394 . S
C982 H990 0.930 . S
C983 C982 1.394 . S
C983 C984 1.383 . S
C983 H991 0.929 . S
C984 C983 1.383 . S
C984 C985 1.377 . S
C985 H969 0.930 . S
C985 C984 1.377 . S
C985 C986 1.379 . S
C986 H970 0.931 . S
C986 C980 1.383 . S
C986 C985 1.379 . S
H987 C981 0.959 . S
H988 C981 0.961 . S
H989 C981 0.960 . S
H990 C982 0.930 . S
H991 C983 0.929 . S
H992 C1000 0.929 . S
H993 C1002 0.930 . S
H994 C1004 0.930 . S
H995 C1007 0.929 . S
H996 C1010 0.930 . S
H997 C1012 0.960 . S
H998 C1012 0.960 . S
H999 C1012 0.960 . S
C1000 H992 0.929 . S
C1000 C1001 1.377 . S
C1000 C1002 1.384 . S
C1001 C1000 1.377 . S
C1001 C1007 1.390 . S
C1002 H993 0.930 . S
C1002 C1000 1.384 . S
C1002 C1003 1.372 . S
C1003 C1002 1.372 . S
C1003 C1004 1.400 . S
C1003 C1008 1.490 . S
C1004 H994 0.930 . S
C1004 C1003 1.400 . S
C1004 C1007 1.386 . S
H1005 C1021 0.930 . S
H1006 C1022 0.931 1_455 S
C1007 H995 0.929 . S
C1007 C1001 1.390 . S
C1007 C1004 1.386 . S
C1008 C1003 1.490 . S
C1008 C1010 1.395 . S
C1008 C1011 1.403 . S
H1009 C1015 0.930 . S
C1010 H996 0.930 . S
C1010 C1008 1.395 . S
C1010 C1013 1.403 . S
C1011 C1008 1.403 . S
C1011 C1012 1.524 . S
C1011 C1015 1.400 . S
C1012 H997 0.960 . S
C1012 H998 0.960 . S
C1012 H999 0.960 . S
C1012 C1011 1.524 . S
C1013 C1010 1.403 . S
C1013 C1014 1.392 . S
C1013 C1017 1.495 . S
C1014 C1013 1.392 . S
C1014 C1015 1.385 . S
C1014 C1016 1.478 . S
C1015 H1009 0.930 . S
C1015 C1011 1.400 . S
C1015 C1014 1.385 . S
C1016 C1014 1.478 . S
C1016 C1018 1.381 . S
C1016 C1022 1.383 . S
C1017 C1013 1.495 . S
C1017 H1023 0.959 . S
C1017 H1024 0.961 . S
C1017 H1025 0.960 . S
C1018 C1016 1.381 . S
C1018 C1019 1.394 . S
C1018 H1026 0.930 . S
C1019 C1018 1.394 . S
C1019 C1020 1.336 1_655 S
C1019 H1027 0.929 . S
C1020 C1019 1.336 1_455 S
C1020 C1021 1.402 . S
C1021 H1005 0.930 . S
C1021 C1020 1.402 . S
C1021 C1022 1.379 1_455 S
C1022 H1006 0.931 1_655 S
C1022 C1016 1.383 . S
C1022 C1021 1.379 1_655 S
H1023 C1017 0.959 . S
H1024 C1017 0.961 . S
H1025 C1017 0.960 . S
H1026 C1018 0.930 . S
H1027 C1019 0.929 . S
H1028 C1036 0.929 . S
H1029 C1038 0.930 . S
H1030 C1040 0.930 . S
H1031 C1043 0.929 . S
H1032 C1046 0.930 . S
H1033 C1048 0.960 . S
H1034 C1048 0.960 . S
H1035 C1048 0.960 . S
C1036 H1028 0.929 . S
C1036 C1037 1.377 . S
C1036 C1038 1.384 . S
C1037 C1036 1.377 . S
C1037 C1043 1.390 1_565 S
C1038 H1029 0.930 . S
C1038 C1036 1.384 . S
C1038 C1039 1.341 1_565 S
C1039 C1038 1.341 1_545 S
C1039 C1040 1.423 . S
C1039 C1044 1.501 . S
C1040 H1030 0.930 . S
C1040 C1039 1.423 . S
C1040 C1043 1.386 . S
H1041 C1057 0.930 . S
H1042 C1058 0.931 . S
C1043 H1031 0.929 . S
C1043 C1037 1.390 1_545 S
C1043 C1040 1.386 . S
C1044 C1039 1.501 . S
C1044 C1046 1.395 . S
C1044 C1047 1.403 1_545 S
H1045 C1051 0.942 . S
C1046 H1032 0.930 . S
C1046 C1044 1.395 . S
C1046 C1049 1.403 . S
C1047 C1044 1.403 1_565 S
C1047 C1048 1.524 . S
C1047 C1051 1.412 . S
C1048 H1033 0.960 . S
C1048 H1034 0.960 . S
C1048 H1035 0.960 . S
C1048 C1047 1.524 . S
C1049 C1046 1.403 . S
C1049 C1050 1.392 . S
C1049 C1053 1.495 . S
C1050 C1049 1.392 . S
C1050 C1051 1.365 1_545 S
C1050 C1052 1.478 . S
C1051 H1045 0.942 . S
C1051 C1047 1.412 . S
C1051 C1050 1.365 1_565 S
C1052 C1050 1.478 . S
C1052 C1054 1.381 1_545 S
C1052 C1058 1.383 . S
C1053 C1049 1.495 . S
C1053 H1059 0.959 . S
C1053 H1060 0.961 . S
C1053 H1061 0.960 . S
C1054 C1052 1.381 1_565 S
C1054 C1055 1.394 . S
C1054 H1062 0.930 . S
C1055 C1054 1.394 . S
C1055 C1056 1.383 1_565 S
C1055 H1063 0.929 . S
C1056 C1055 1.383 1_545 S
C1056 C1057 1.377 . S
C1057 H1041 0.930 . S
C1057 C1056 1.377 . S
C1057 C1058 1.379 . S
C1058 H1042 0.931 . S
C1058 C1052 1.383 . S
C1058 C1057 1.379 . S
H1059 C1053 0.959 . S
H1060 C1053 0.961 . S
H1061 C1053 0.960 . S
H1062 C1054 0.930 . S
H1063 C1055 0.929 . S
H1064 C1072 0.929 . S
H1065 C1074 0.930 . S
H1066 C1076 0.930 . S
H1067 C1079 0.929 . S
H1068 C1082 0.930 . S
H1069 C1084 0.960 . S
H1070 C1084 0.960 . S
H1071 C1084 0.960 . S
C1072 H1064 0.929 . S
C1072 C1073 1.377 . S
C1072 C1074 1.384 . S
C1073 C1072 1.377 . S
C1073 C1079 1.390 . S
C1074 H1065 0.930 . S
C1074 C1072 1.384 . S
C1074 C1075 1.372 . S
C1075 C1074 1.372 . S
C1075 C1076 1.400 . S
C1075 C1080 1.490 . S
C1076 H1066 0.930 . S
C1076 C1075 1.400 . S
C1076 C1079 1.386 . S
H1077 C1093 0.930 . S
H1078 C1094 0.931 . S
C1079 H1067 0.929 . S
C1079 C1073 1.390 . S
C1079 C1076 1.386 . S
C1080 C1075 1.490 . S
C1080 C1082 1.395 . S
C1080 C1083 1.403 . S
H1081 C1087 0.930 . S
C1082 H1068 0.930 . S
C1082 C1080 1.395 . S
C1082 C1085 1.403 . S
C1083 C1080 1.403 . S
C1083 C1084 1.524 . S
C1083 C1087 1.400 . S
C1084 H1069 0.960 . S
C1084 H1070 0.960 . S
C1084 H1071 0.960 . S
C1084 C1083 1.524 . S
C1085 C1082 1.403 . S
C1085 C1086 1.392 . S
C1085 C1089 1.495 . S
C1086 C1085 1.392 . S
C1086 C1087 1.385 . S
C1086 C1088 1.478 . S
C1087 H1081 0.930 . S
C1087 C1083 1.400 . S
C1087 C1086 1.385 . S
C1088 C1086 1.478 . S
C1088 C1090 1.381 . S
C1088 C1094 1.383 . S
C1089 C1085 1.495 . S
C1089 H1095 0.959 . S
C1089 H1096 0.961 . S
C1089 H1097 0.960 . S
C1090 C1088 1.381 . S
C1090 C1091 1.394 . S
C1090 H1098 0.930 . S
C1091 C1090 1.394 . S
C1091 C1092 1.383 . S
C1091 H1099 0.929 . S
C1092 C1091 1.383 . S
C1092 C1093 1.377 . S
C1093 H1077 0.930 . S
C1093 C1092 1.377 . S
C1093 C1094 1.379 . S
C1094 H1078 0.931 . S
C1094 C1088 1.383 . S
C1094 C1093 1.379 . S
H1095 C1089 0.959 . S
H1096 C1089 0.961 . S
H1097 C1089 0.960 . S
H1098 C1090 0.930 . S
H1099 C1091 0.929 . S
H1100 C1108 0.929 . S
H1101 C1110 0.930 . S
H1102 C1112 0.930 . S
H1103 C1115 0.929 . S
H1104 C1118 0.930 . S
H1105 C1120 0.960 . S
H1106 C1120 0.960 . S
H1107 C1120 0.960 . S
C1108 H1100 0.929 . S
C1108 C1109 1.377 . S
C1108 C1110 1.384 . S
C1109 C1108 1.377 . S
C1109 C1115 1.390 . S
C1110 H1101 0.930 . S
C1110 C1108 1.384 . S
C1110 C1111 1.372 . S
C1111 C1110 1.372 . S
C1111 C1112 1.400 . S
C1111 C1116 1.490 . S
C1112 H1102 0.930 . S
C1112 C1111 1.400 . S
C1112 C1115 1.386 . S
H1113 C1129 0.930 . S
H1114 C1130 0.931 . S
C1115 H1103 0.929 . S
C1115 C1109 1.390 . S
C1115 C1112 1.386 . S
C1116 C1111 1.490 . S
C1116 C1118 1.395 . S
C1116 C1119 1.403 . S
H1117 C1123 0.930 . S
C1118 H1104 0.930 . S
C1118 C1116 1.395 . S
C1118 C1121 1.403 . S
C1119 C1116 1.403 . S
C1119 C1120 1.524 . S
C1119 C1123 1.400 . S
C1120 H1105 0.960 . S
C1120 H1106 0.960 . S
C1120 H1107 0.960 . S
C1120 C1119 1.524 . S
C1121 C1118 1.403 . S
C1121 C1122 1.392 . S
C1121 C1125 1.495 . S
C1122 C1121 1.392 . S
C1122 C1123 1.385 . S
C1122 C1124 1.478 . S
C1123 H1117 0.930 . S
C1123 C1119 1.400 . S
C1123 C1122 1.385 . S
C1124 C1122 1.478 . S
C1124 C1126 1.381 . S
C1124 C1130 1.383 . S
C1125 C1121 1.495 . S
C1125 H1131 0.959 . S
C1125 H1132 0.961 . S
C1125 H1133 0.960 . S
C1126 C1124 1.381 . S
C1126 C1127 1.394 . S
C1126 H1134 0.930 . S
C1127 C1126 1.394 . S
C1127 C1128 1.383 . S
C1127 H1135 0.929 . S
C1128 C1127 1.383 . S
C1128 C1129 1.377 . S
C1129 H1113 0.930 . S
C1129 C1128 1.377 . S
C1129 C1130 1.379 . S
C1130 H1114 0.931 . S
C1130 C1124 1.383 . S
C1130 C1129 1.379 . S
H1131 C1125 0.959 . S
H1132 C1125 0.961 . S
H1133 C1125 0.960 . S
H1134 C1126 0.930 . S
H1135 C1127 0.929 . S
H1136 C1144 0.929 . S
H1137 C1146 0.930 . S
H1138 C1148 0.930 . S
H1139 C1151 0.929 . S
H1140 C1154 0.930 . S
H1141 C1156 0.960 . S
H1142 C1156 0.960 . S
H1143 C1156 0.960 . S
C1144 H1136 0.929 . S
C1144 C1145 1.377 . S
C1144 C1146 1.384 . S
C1145 C1144 1.377 . S
C1145 C1151 1.390 . S
C1146 H1137 0.930 . S
C1146 C1144 1.384 . S
C1146 C1147 1.372 . S
C1147 C1146 1.372 . S
C1147 C1148 1.400 . S
C1147 C1152 1.490 . S
C1148 H1138 0.930 . S
C1148 C1147 1.400 . S
C1148 C1151 1.386 . S
H1149 C1165 0.930 . S
H1150 C1166 0.931 . S
C1151 H1139 0.929 . S
C1151 C1145 1.390 . S
C1151 C1148 1.386 . S
C1152 C1147 1.490 . S
C1152 C1154 1.395 . S
C1152 C1155 1.403 . S
H1153 C1159 0.930 . S
C1154 H1140 0.930 . S
C1154 C1152 1.395 . S
C1154 C1157 1.403 . S
C1155 C1152 1.403 . S
C1155 C1156 1.524 . S
C1155 C1159 1.400 . S
C1156 H1141 0.960 . S
C1156 H1142 0.960 . S
C1156 H1143 0.960 . S
C1156 C1155 1.524 . S
C1157 C1154 1.403 . S
C1157 C1158 1.392 . S
C1157 C1161 1.495 . S
C1158 C1157 1.392 . S
C1158 C1159 1.385 . S
C1158 C1160 1.478 . S
C1159 H1153 0.930 . S
C1159 C1155 1.400 . S
C1159 C1158 1.385 . S
C1160 C1158 1.478 . S
C1160 C1162 1.381 . S
C1160 C1166 1.383 . S
C1161 C1157 1.495 . S
C1161 H1167 0.959 . S
C1161 H1168 0.961 . S
C1161 H1169 0.960 . S
C1162 C1160 1.381 . S
C1162 C1163 1.394 . S
C1162 H1170 0.930 . S
C1163 C1162 1.394 . S
C1163 C1164 1.383 . S
C1163 H1171 0.929 . S
C1164 C1163 1.383 . S
C1164 C1165 1.377 . S
C1165 H1149 0.930 . S
C1165 C1164 1.377 . S
C1165 C1166 1.379 . S
C1166 H1150 0.931 . S
C1166 C1160 1.383 . S
C1166 C1165 1.379 . S
H1167 C1161 0.959 . S
H1168 C1161 0.961 . S
H1169 C1161 0.960 . S
H1170 C1162 0.930 . S
H1171 C1163 0.929 . S
H1172 C1180 0.929 . S
H1173 C1182 0.930 . S
H1174 C1184 0.930 . S
H1175 C1187 0.929 . S
H1176 C1190 0.930 . S
H1177 C1192 0.960 . S
H1178 C1192 0.960 . S
H1179 C1192 0.960 1_545 S
C1180 H1172 0.929 . S
C1180 C1181 1.379 1_565 S
C1180 C1182 1.384 . S
C1181 C1180 1.379 1_545 S
C1181 C1187 1.389 . S
C1182 H1173 0.930 . S
C1182 C1180 1.384 . S
C1182 C1183 1.368 1_565 S
C1183 C1182 1.368 1_545 S
C1183 C1184 1.404 . S
C1183 C1188 1.493 . S
C1184 H1174 0.930 . S
C1184 C1183 1.404 . S
C1184 C1187 1.386 . S
H1185 C1201 0.930 . S
H1186 C1202 0.931 . S
C1187 H1175 0.929 . S
C1187 C1181 1.389 . S
C1187 C1184 1.386 . S
C1188 C1183 1.493 . S
C1188 C1190 1.405 . S
C1188 C1191 1.390 1_545 S
H1189 C1195 0.930 . S
C1190 H1176 0.930 . S
C1190 C1188 1.405 . S
C1190 C1193 1.403 . S
C1191 C1188 1.390 1_565 S
C1191 C1192 1.524 . S
C1191 C1195 1.400 . S
C1192 H1177 0.960 . S
C1192 H1178 0.960 . S
C1192 H1179 0.960 1_565 S
C1192 C1191 1.524 . S
C1193 C1190 1.403 . S
C1193 C1194 1.392 . S
C1193 C1197 1.495 . S
C1194 C1193 1.392 . S
C1194 C1195 1.385 1_545 S
C1194 C1196 1.478 . S
C1195 H1189 0.930 . S
C1195 C1191 1.400 . S
C1195 C1194 1.385 1_565 S
C1196 C1194 1.478 . S
C1196 C1198 1.381 1_545 S
C1196 C1202 1.383 . S
C1197 C1193 1.495 . S
C1197 H1203 0.959 . S
C1197 H1204 0.961 . S
C1197 H1205 0.981 . S
C1198 C1196 1.381 1_565 S
C1198 C1199 1.394 . S
C1198 H1206 0.930 . S
C1199 C1198 1.394 . S
C1199 C1200 1.383 1_565 S
C1199 H1207 0.929 . S
C1200 C1199 1.383 1_545 S
C1200 C1201 1.377 . S
C1201 H1185 0.930 . S
C1201 C1200 1.377 . S
C1201 C1202 1.379 . S
C1202 H1186 0.931 . S
C1202 C1196 1.383 . S
C1202 C1201 1.379 . S
H1203 C1197 0.959 . S
H1204 C1197 0.961 . S
H1205 C1197 0.981 . S
H1206 C1198 0.930 . S
H1207 C1199 0.929 . S
H1208 C1216 0.929 . S
H1209 C1218 0.930 . S
H1210 C1220 0.930 . S
H1211 C1223 0.929 . S
H1212 C1226 0.930 . S
H1213 C1228 0.960 . S
H1214 C1228 0.960 . S
H1215 C1228 0.960 . S
C1216 H1208 0.929 . S
C1216 C1217 1.377 . S
C1216 C1218 1.384 . S
C1217 C1216 1.377 . S
C1217 C1223 1.390 . S
C1218 H1209 0.930 . S
C1218 C1216 1.384 . S
C1218 C1219 1.372 . S
C1219 C1218 1.372 . S
C1219 C1220 1.400 . S
C1219 C1224 1.490 . S
C1220 H1210 0.930 . S
C1220 C1219 1.400 . S
C1220 C1223 1.386 . S
H1221 C1237 0.930 . S
H1222 C1238 0.931 . S
C1223 H1211 0.929 . S
C1223 C1217 1.390 . S
C1223 C1220 1.386 . S
C1224 C1219 1.490 . S
C1224 C1226 1.395 . S
C1224 C1227 1.403 . S
H1225 C1231 0.930 . S
C1226 H1212 0.930 . S
C1226 C1224 1.395 . S
C1226 C1229 1.403 . S
C1227 C1224 1.403 . S
C1227 C1228 1.524 . S
C1227 C1231 1.400 . S
C1228 H1213 0.960 . S
C1228 H1214 0.960 . S
C1228 H1215 0.960 . S
C1228 C1227 1.524 . S
C1229 C1226 1.403 . S
C1229 C1230 1.392 . S
C1229 C1233 1.495 . S
C1230 C1229 1.392 . S
C1230 C1231 1.385 . S
C1230 C1232 1.478 . S
C1231 H1225 0.930 . S
C1231 C1227 1.400 . S
C1231 C1230 1.385 . S
C1232 C1230 1.478 . S
C1232 C1234 1.381 . S
C1232 C1238 1.383 . S
C1233 C1229 1.495 . S
C1233 H1239 0.959 . S
C1233 H1240 0.961 . S
C1233 H1241 0.960 . S
C1234 C1232 1.381 . S
C1234 C1235 1.394 . S
C1234 H1242 0.930 . S
C1235 C1234 1.394 . S
C1235 C1236 1.383 . S
C1235 H1243 0.929 . S
C1236 C1235 1.383 . S
C1236 C1237 1.377 . S
C1237 H1221 0.930 . S
C1237 C1236 1.377 . S
C1237 C1238 1.379 . S
C1238 H1222 0.931 . S
C1238 C1232 1.383 . S
C1238 C1237 1.379 . S
H1239 C1233 0.959 . S
H1240 C1233 0.961 . S
H1241 C1233 0.960 . S
H1242 C1234 0.930 . S
H1243 C1235 0.929 . S
H1244 C1252 0.929 . S
H1245 C1254 0.930 . S
H1246 C1256 0.930 . S
H1247 C1259 0.929 . S
H1248 C1262 0.930 . S
H1249 C1264 0.960 . S
H1250 C1264 0.960 . S
H1251 C1264 0.960 . S
C1252 H1244 0.929 . S
C1252 C1253 1.377 . S
C1252 C1254 1.384 . S
C1253 C1252 1.377 . S
C1253 C1259 1.390 . S
C1254 H1245 0.930 . S
C1254 C1252 1.384 . S
C1254 C1255 1.372 . S
C1255 C1254 1.372 . S
C1255 C1256 1.400 . S
C1255 C1260 1.490 . S
C1256 H1246 0.930 . S
C1256 C1255 1.400 . S
C1256 C1259 1.386 . S
H1257 C1273 0.930 . S
H1258 C1274 0.931 . S
C1259 H1247 0.929 . S
C1259 C1253 1.390 . S
C1259 C1256 1.386 . S
C1260 C1255 1.490 . S
C1260 C1262 1.395 . S
C1260 C1263 1.403 . S
H1261 C1267 0.930 . S
C1262 H1248 0.930 . S
C1262 C1260 1.395 . S
C1262 C1265 1.403 . S
C1263 C1260 1.403 . S
C1263 C1264 1.524 . S
C1263 C1267 1.400 . S
C1264 H1249 0.960 . S
C1264 H1250 0.960 . S
C1264 H1251 0.960 . S
C1264 C1263 1.524 . S
C1265 C1262 1.403 . S
C1265 C1266 1.392 . S
C1265 C1269 1.495 . S
C1266 C1265 1.392 . S
C1266 C1267 1.385 . S
C1266 C1268 1.478 . S
C1267 H1261 0.930 . S
C1267 C1263 1.400 . S
C1267 C1266 1.385 . S
C1268 C1266 1.478 . S
C1268 C1270 1.381 . S
C1268 C1274 1.383 . S
C1269 C1265 1.495 . S
C1269 H1275 0.959 . S
C1269 H1276 0.961 . S
C1269 H1277 0.960 . S
C1270 C1268 1.381 . S
C1270 C1271 1.394 . S
C1270 H1278 0.930 . S
C1271 C1270 1.394 . S
C1271 C1272 1.383 . S
C1271 H1279 0.929 . S
C1272 C1271 1.383 . S
C1272 C1273 1.377 . S
C1273 H1257 0.930 . S
C1273 C1272 1.377 . S
C1273 C1274 1.379 . S
C1274 H1258 0.931 . S
C1274 C1268 1.383 . S
C1274 C1273 1.379 . S
H1275 C1269 0.959 . S
H1276 C1269 0.961 . S
H1277 C1269 0.960 . S
H1278 C1270 0.930 . S
H1279 C1271 0.929 . S
H1280 C1288 0.929 . S
H1281 C1290 0.930 . S
H1282 C1292 0.930 . S
H1283 C1295 0.929 . S
H1284 C1298 0.930 . S
H1285 C1300 0.960 . S
H1286 C1300 0.960 . S
H1287 C1300 0.960 . S
C1288 H1280 0.929 . S
C1288 C1289 1.377 . S
C1288 C1290 1.384 . S
C1289 C1288 1.377 . S
C1289 C1295 1.390 . S
C1290 H1281 0.930 . S
C1290 C1288 1.384 . S
C1290 C1291 1.372 . S
C1291 C1290 1.372 . S
C1291 C1292 1.400 . S
C1291 C1296 1.490 . S
C1292 H1282 0.930 . S
C1292 C1291 1.400 . S
C1292 C1295 1.386 . S
H1293 C1309 0.930 . S
H1294 C1310 0.931 . S
C1295 H1283 0.929 . S
C1295 C1289 1.390 . S
C1295 C1292 1.386 . S
C1296 C1291 1.490 . S
C1296 C1298 1.395 . S
C1296 C1299 1.403 . S
H1297 C1303 0.930 . S
C1298 H1284 0.930 . S
C1298 C1296 1.395 . S
C1298 C1301 1.403 . S
C1299 C1296 1.403 . S
C1299 C1300 1.524 . S
C1299 C1303 1.400 . S
C1300 H1285 0.960 . S
C1300 H1286 0.960 . S
C1300 H1287 0.960 . S
C1300 C1299 1.524 . S
C1301 C1298 1.403 . S
C1301 C1302 1.392 . S
C1301 C1305 1.495 . S
C1302 C1301 1.392 . S
C1302 C1303 1.385 . S
C1302 C1304 1.478 . S
C1303 H1297 0.930 . S
C1303 C1299 1.400 . S
C1303 C1302 1.385 . S
C1304 C1302 1.478 . S
C1304 C1306 1.381 . S
C1304 C1310 1.383 . S
C1305 C1301 1.495 . S
C1305 H1311 0.959 . S
C1305 H1312 0.961 . S
C1305 H1313 0.960 . S
C1306 C1304 1.381 . S
C1306 C1307 1.394 . S
C1306 H1314 0.930 . S
C1307 C1306 1.394 . S
C1307 C1308 1.383 . S
C1307 H1315 0.929 . S
C1308 C1307 1.383 . S
C1308 C1309 1.377 . S
C1309 H1293 0.930 . S
C1309 C1308 1.377 . S
C1309 C1310 1.379 . S
C1310 H1294 0.931 . S
C1310 C1304 1.383 . S
C1310 C1309 1.379 . S
H1311 C1305 0.959 . S
H1312 C1305 0.961 . S
H1313 C1305 0.960 . S
H1314 C1306 0.930 . S
H1315 C1307 0.929 . S
H1316 C1324 0.929 . S
H1317 C1326 0.930 . S
H1318 C1328 0.930 . S
H1319 C1331 0.929 . S
H1320 C1334 0.930 . S
H1321 C1336 0.960 . S
H1322 C1336 0.960 . S
H1323 C1336 0.960 1_545 S
C1324 H1316 0.929 . S
C1324 C1325 1.396 . S
C1324 C1326 1.384 . S
C1325 C1324 1.396 . S
C1325 C1331 1.370 1_565 S
C1326 H1317 0.930 . S
C1326 C1324 1.384 . S
C1326 C1327 1.372 . S
C1327 C1326 1.372 . S
C1327 C1328 1.400 1_565 S
C1327 C1332 1.490 . S
C1328 H1318 0.930 . S
C1328 C1327 1.400 1_545 S
C1328 C1331 1.386 . S
H1329 C1345 0.930 . S
H1330 C1346 0.931 . S
C1331 H1319 0.929 . S
C1331 C1325 1.370 1_545 S
C1331 C1328 1.386 . S
C1332 C1327 1.490 . S
C1332 C1334 1.395 . S
C1332 C1335 1.403 . S
H1333 C1339 0.930 . S
C1334 H1320 0.930 . S
C1334 C1332 1.395 . S
C1334 C1337 1.403 . S
C1335 C1332 1.403 . S
C1335 C1336 1.524 . S
C1335 C1339 1.400 . S
C1336 H1321 0.960 . S
C1336 H1322 0.960 . S
C1336 H1323 0.960 1_565 S
C1336 C1335 1.524 . S
C1337 C1334 1.403 . S
C1337 C1338 1.392 . S
C1337 C1341 1.495 . S
C1338 C1337 1.392 . S
C1338 C1339 1.385 . S
C1338 C1340 1.478 . S
C1339 H1333 0.930 . S
C1339 C1335 1.400 . S
C1339 C1338 1.385 . S
C1340 C1338 1.478 . S
C1340 C1342 1.381 . S
C1340 C1346 1.383 1_565 S
C1341 C1337 1.495 . S
C1341 H1347 0.959 . S
C1341 H1348 0.961 1_565 S
C1341 H1349 0.960 . S
C1342 C1340 1.381 . S
C1342 C1343 1.394 . S
C1342 H1350 0.930 . S
C1343 C1342 1.394 . S
C1343 C1344 1.383 . S
C1343 H1351 0.929 . S
C1344 C1343 1.383 . S
C1344 C1345 1.377 1_565 S
C1345 H1329 0.930 . S
C1345 C1344 1.377 1_545 S
C1345 C1346 1.379 . S
C1346 H1330 0.931 . S
C1346 C1340 1.383 1_545 S
C1346 C1345 1.379 . S
H1347 C1341 0.959 . S
H1348 C1341 0.961 1_545 S
H1349 C1341 0.960 . S
H1350 C1342 0.930 . S
H1351 C1343 0.929 . S
H1352 C1360 0.929 . S
H1353 C1362 0.930 . S
H1354 C1364 0.930 . S
H1355 C1367 0.929 . S
H1356 C1370 0.930 . S
H1357 C1372 0.960 . S
H1358 C1372 0.960 . S
H1359 C1372 0.960 . S
C1360 H1352 0.929 . S
C1360 C1361 1.377 . S
C1360 C1362 1.384 . S
C1361 C1360 1.377 . S
C1361 C1367 1.390 . S
C1362 H1353 0.930 . S
C1362 C1360 1.384 . S
C1362 C1363 1.372 . S
C1363 C1362 1.372 . S
C1363 C1364 1.400 . S
C1363 C1368 1.490 . S
C1364 H1354 0.930 . S
C1364 C1363 1.400 . S
C1364 C1367 1.386 . S
H1365 C1381 0.930 . S
H1366 C1382 0.931 . S
C1367 H1355 0.929 . S
C1367 C1361 1.390 . S
C1367 C1364 1.386 . S
C1368 C1363 1.490 . S
C1368 C1370 1.395 . S
C1368 C1371 1.403 . S
H1369 C1375 0.930 . S
C1370 H1356 0.930 . S
C1370 C1368 1.395 . S
C1370 C1373 1.403 . S
C1371 C1368 1.403 . S
C1371 C1372 1.524 . S
C1371 C1375 1.400 . S
C1372 H1357 0.960 . S
C1372 H1358 0.960 . S
C1372 H1359 0.960 . S
C1372 C1371 1.524 . S
C1373 C1370 1.403 . S
C1373 C1374 1.392 . S
C1373 C1377 1.495 . S
C1374 C1373 1.392 . S
C1374 C1375 1.385 . S
C1374 C1376 1.478 . S
C1375 H1369 0.930 . S
C1375 C1371 1.400 . S
C1375 C1374 1.385 . S
C1376 C1374 1.478 . S
C1376 C1378 1.381 . S
C1376 C1382 1.383 . S
C1377 C1373 1.495 . S
C1377 H1383 0.959 . S
C1377 H1384 0.961 . S
C1377 H1385 0.960 . S
C1378 C1376 1.381 . S
C1378 C1379 1.394 . S
C1378 H1386 0.930 . S
C1379 C1378 1.394 . S
C1379 C1380 1.383 . S
C1379 H1387 0.929 . S
C1380 C1379 1.383 . S
C1380 C1381 1.377 . S
C1381 H1365 0.930 . S
C1381 C1380 1.377 . S
C1381 C1382 1.379 . S
C1382 H1366 0.931 . S
C1382 C1376 1.383 . S
C1382 C1381 1.379 . S
H1383 C1377 0.959 . S
H1384 C1377 0.961 . S
H1385 C1377 0.960 . S
H1386 C1378 0.930 . S
H1387 C1379 0.929 . S
H1388 C1396 0.929 . S
H1389 C1398 0.930 . S
H1390 C1400 0.930 . S
H1391 C1403 0.929 . S
H1392 C1406 0.930 . S
H1393 C1408 0.960 . S
H1394 C1408 0.960 . S
H1395 C1408 0.960 . S
C1396 H1388 0.929 . S
C1396 C1397 1.377 . S
C1396 C1398 1.384 . S
C1397 C1396 1.377 . S
C1397 C1403 1.390 . S
C1398 H1389 0.930 . S
C1398 C1396 1.384 . S
C1398 C1399 1.372 . S
C1399 C1398 1.372 . S
C1399 C1400 1.400 . S
C1399 C1404 1.490 . S
C1400 H1390 0.930 . S
C1400 C1399 1.400 . S
C1400 C1403 1.386 . S
H1401 C1417 0.930 . S
H1402 C1418 0.931 . S
C1403 H1391 0.929 . S
C1403 C1397 1.390 . S
C1403 C1400 1.386 . S
C1404 C1399 1.490 . S
C1404 C1406 1.395 . S
C1404 C1407 1.403 . S
H1405 C1411 0.930 . S
C1406 H1392 0.930 . S
C1406 C1404 1.395 . S
C1406 C1409 1.403 . S
C1407 C1404 1.403 . S
C1407 C1408 1.524 . S
C1407 C1411 1.400 . S
C1408 H1393 0.960 . S
C1408 H1394 0.960 . S
C1408 H1395 0.960 . S
C1408 C1407 1.524 . S
C1409 C1406 1.403 . S
C1409 C1410 1.392 . S
C1409 C1413 1.495 . S
C1410 C1409 1.392 . S
C1410 C1411 1.385 . S
C1410 C1412 1.478 . S
C1411 H1405 0.930 . S
C1411 C1407 1.400 . S
C1411 C1410 1.385 . S
C1412 C1410 1.478 . S
C1412 C1414 1.381 . S
C1412 C1418 1.383 . S
C1413 C1409 1.495 . S
C1413 H1419 0.959 . S
C1413 H1420 0.961 . S
C1413 H1421 0.960 . S
C1414 C1412 1.381 . S
C1414 C1415 1.394 . S
C1414 H1422 0.930 . S
C1415 C1414 1.394 . S
C1415 C1416 1.383 . S
C1415 H1423 0.929 . S
C1416 C1415 1.383 . S
C1416 C1417 1.377 . S
C1417 H1401 0.930 . S
C1417 C1416 1.377 . S
C1417 C1418 1.379 . S
C1418 H1402 0.931 . S
C1418 C1412 1.383 . S
C1418 C1417 1.379 . S
H1419 C1413 0.959 . S
H1420 C1413 0.961 . S
H1421 C1413 0.960 . S
H1422 C1414 0.930 . S
H1423 C1415 0.929 . S
C569 C391 1.640 . S
C588 C488 1.642 . S
C624 C518 2.379 . S
C605 C451 2.387 . S
C660 C528 1.740 . S
C641 C241 1.603 . S
C696 C548 1.594 . S
C677 C331 1.397 . S
C732 C489 1.649 . S
C713 C121 1.517 1_545 S
C749 C211 2.299 1_556 S
C768 C519 2.374 . S
C785 C31 1.741 . S
C804 C529 1.712 . S
C821 C91 1.464 . S
C840 C549 1.593 . S
C876 C481 0.463 . S
C857 C301 0.631 . S
C912 C502 0.383 . S
C893 C380 0.347 . S
C948 C521 0.853 . S
C929 C440 0.845 . S
C965 C260 0.467 . S
C984 C541 0.368 . S
C1001 C61 0.574 . S
C1020 C482 0.466 . S
C1056 C501 0.464 . S
C1037 C140 0.717 . S
C1092 C522 0.865 . S
C1073 C200 0.813 . S
C1109 C20 0.288 . S
C1128 C542 0.314 . S
C1145 C320 2.288 . S
C1164 C499 2.386 . S
C1181 C361 1.443 . S
C1200 C509 1.729 . S
C1236 C539 2.563 . S
C1217 C421 2.246 . S
C1272 C559 2.425 . S
C1253 C271 2.397 . S
C1289 C80 2.343 . S
C1308 C498 2.402 . S
C1344 C508 1.733 . S
C1325 C151 1.669 . S
C1380 C538 2.546 . S
C1361 C181 2.160 . S
C1397 C1 2.163 . S
C1416 C558 2.421 . S
