# Generated by pormake.
# Topology tbo, (3,4)-cn, num edge types: 1
# Building blocks:
#     Node 0, Type 0, BuildingBlock: CUQRIR_clean_linker_1, # of connection points: 3
#     Node 1, Type 0, BuildingBlock: CUQRIR_clean_linker_1, # of connection points: 3
#     Node 2, Type 0, BuildingBlock: CUQRIR_clean_linker_1, # of connection points: 3
#     Node 3, Type 0, BuildingBlock: CUQRIR_clean_linker_1, # of connection points: 3
#     Node 4, Type 0, BuildingBlock: CUQRIR_clean_linker_1, # of connection points: 3
#     Node 5, Type 0, BuildingBlock: CUQRIR_clean_linker_1, # of connection points: 3
#     Node 6, Type 0, BuildingBlock: CUQRIR_clean_linker_1, # of connection points: 3
#     Node 7, Type 0, BuildingBlock: CUQRIR_clean_linker_1, # of connection points: 3
#     Node 8, Type 0, BuildingBlock: CUQRIR_clean_linker_1, # of connection points: 3
#     Node 9, Type 0, BuildingBlock: CUQRIR_clean_linker_1, # of connection points: 3
#     Node 10, Type 0, BuildingBlock: CUQRIR_clean_linker_1, # of connection points: 3
#     Node 11, Type 0, BuildingBlock: CUQRIR_clean_linker_1, # of connection points: 3
#     Node 12, Type 0, BuildingBlock: CUQRIR_clean_linker_1, # of connection points: 3
#     Node 13, Type 0, BuildingBlock: CUQRIR_clean_linker_1, # of connection points: 3
#     Node 14, Type 0, BuildingBlock: CUQRIR_clean_linker_1, # of connection points: 3
#     Node 15, Type 0, BuildingBlock: CUQRIR_clean_linker_1, # of connection points: 3
#     Node 16, Type 0, BuildingBlock: CUQRIR_clean_linker_1, # of connection points: 3
#     Node 17, Type 0, BuildingBlock: CUQRIR_clean_linker_1, # of connection points: 3
#     Node 18, Type 0, BuildingBlock: CUQRIR_clean_linker_1, # of connection points: 3
#     Node 19, Type 0, BuildingBlock: CUQRIR_clean_linker_1, # of connection points: 3
#     Node 20, Type 0, BuildingBlock: CUQRIR_clean_linker_1, # of connection points: 3
#     Node 21, Type 0, BuildingBlock: CUQRIR_clean_linker_1, # of connection points: 3
#     Node 22, Type 0, BuildingBlock: CUQRIR_clean_linker_1, # of connection points: 3
#     Node 23, Type 0, BuildingBlock: CUQRIR_clean_linker_1, # of connection points: 3
#     Node 24, Type 0, BuildingBlock: CUQRIR_clean_linker_1, # of connection points: 3
#     Node 25, Type 0, BuildingBlock: CUQRIR_clean_linker_1, # of connection points: 3
#     Node 26, Type 0, BuildingBlock: CUQRIR_clean_linker_1, # of connection points: 3
#     Node 27, Type 0, BuildingBlock: CUQRIR_clean_linker_1, # of connection points: 3
#     Node 28, Type 0, BuildingBlock: CUQRIR_clean_linker_1, # of connection points: 3
#     Node 29, Type 0, BuildingBlock: CUQRIR_clean_linker_1, # of connection points: 3
#     Node 30, Type 0, BuildingBlock: CUQRIR_clean_linker_1, # of connection points: 3
#     Node 31, Type 0, BuildingBlock: CUQRIR_clean_linker_1, # of connection points: 3
#     Node 32, Type 1, BuildingBlock: ESEHIV_clean_sbu_0, # of connection points: 4
#     Node 33, Type 1, BuildingBlock: ESEHIV_clean_sbu_0, # of connection points: 4
#     Node 34, Type 1, BuildingBlock: ESEHIV_clean_sbu_0, # of connection points: 4
#     Node 35, Type 1, BuildingBlock: ESEHIV_clean_sbu_0, # of connection points: 4
#     Node 36, Type 1, BuildingBlock: ESEHIV_clean_sbu_0, # of connection points: 4
#     Node 37, Type 1, BuildingBlock: ESEHIV_clean_sbu_0, # of connection points: 4
#     Node 38, Type 1, BuildingBlock: ESEHIV_clean_sbu_0, # of connection points: 4
#     Node 39, Type 1, BuildingBlock: ESEHIV_clean_sbu_0, # of connection points: 4
#     Node 40, Type 1, BuildingBlock: ESEHIV_clean_sbu_0, # of connection points: 4
#     Node 41, Type 1, BuildingBlock: ESEHIV_clean_sbu_0, # of connection points: 4
#     Node 42, Type 1, BuildingBlock: ESEHIV_clean_sbu_0, # of connection points: 4
#     Node 43, Type 1, BuildingBlock: ESEHIV_clean_sbu_0, # of connection points: 4
#     Node 44, Type 1, BuildingBlock: ESEHIV_clean_sbu_0, # of connection points: 4
#     Node 45, Type 1, BuildingBlock: ESEHIV_clean_sbu_0, # of connection points: 4
#     Node 46, Type 1, BuildingBlock: ESEHIV_clean_sbu_0, # of connection points: 4
#     Node 47, Type 1, BuildingBlock: ESEHIV_clean_sbu_0, # of connection points: 4
#     Node 48, Type 1, BuildingBlock: ESEHIV_clean_sbu_0, # of connection points: 4
#     Node 49, Type 1, BuildingBlock: ESEHIV_clean_sbu_0, # of connection points: 4
#     Node 50, Type 1, BuildingBlock: ESEHIV_clean_sbu_0, # of connection points: 4
#     Node 51, Type 1, BuildingBlock: ESEHIV_clean_sbu_0, # of connection points: 4
#     Node 52, Type 1, BuildingBlock: ESEHIV_clean_sbu_0, # of connection points: 4
#     Node 53, Type 1, BuildingBlock: ESEHIV_clean_sbu_0, # of connection points: 4
#     Node 54, Type 1, BuildingBlock: ESEHIV_clean_sbu_0, # of connection points: 4
#     Node 55, Type 1, BuildingBlock: ESEHIV_clean_sbu_0, # of connection points: 4
#     Edge 56, Type (0, 1), BuildingBlock: XIVTED_clean_linker_0, # of connection points: 2
#     Edge 57, Type (0, 1), BuildingBlock: XIVTED_clean_linker_0, # of connection points: 2
#     Edge 58, Type (0, 1), BuildingBlock: XIVTED_clean_linker_0, # of connection points: 2
#     Edge 59, Type (0, 1), BuildingBlock: XIVTED_clean_linker_0, # of connection points: 2
#     Edge 60, Type (0, 1), BuildingBlock: XIVTED_clean_linker_0, # of connection points: 2
#     Edge 61, Type (0, 1), BuildingBlock: XIVTED_clean_linker_0, # of connection points: 2
#     Edge 62, Type (0, 1), BuildingBlock: XIVTED_clean_linker_0, # of connection points: 2
#     Edge 63, Type (0, 1), BuildingBlock: XIVTED_clean_linker_0, # of connection points: 2
#     Edge 64, Type (0, 1), BuildingBlock: XIVTED_clean_linker_0, # of connection points: 2
#     Edge 65, Type (0, 1), BuildingBlock: XIVTED_clean_linker_0, # of connection points: 2
#     Edge 66, Type (0, 1), BuildingBlock: XIVTED_clean_linker_0, # of connection points: 2
#     Edge 67, Type (0, 1), BuildingBlock: XIVTED_clean_linker_0, # of connection points: 2
#     Edge 68, Type (0, 1), BuildingBlock: XIVTED_clean_linker_0, # of connection points: 2
#     Edge 69, Type (0, 1), BuildingBlock: XIVTED_clean_linker_0, # of connection points: 2
#     Edge 70, Type (0, 1), BuildingBlock: XIVTED_clean_linker_0, # of connection points: 2
#     Edge 71, Type (0, 1), BuildingBlock: XIVTED_clean_linker_0, # of connection points: 2
#     Edge 72, Type (0, 1), BuildingBlock: XIVTED_clean_linker_0, # of connection points: 2
#     Edge 73, Type (0, 1), BuildingBlock: XIVTED_clean_linker_0, # of connection points: 2
#     Edge 74, Type (0, 1), BuildingBlock: XIVTED_clean_linker_0, # of connection points: 2
#     Edge 75, Type (0, 1), BuildingBlock: XIVTED_clean_linker_0, # of connection points: 2
#     Edge 76, Type (0, 1), BuildingBlock: XIVTED_clean_linker_0, # of connection points: 2
#     Edge 77, Type (0, 1), BuildingBlock: XIVTED_clean_linker_0, # of connection points: 2
#     Edge 78, Type (0, 1), BuildingBlock: XIVTED_clean_linker_0, # of connection points: 2
#     Edge 79, Type (0, 1), BuildingBlock: XIVTED_clean_linker_0, # of connection points: 2
#     Edge 80, Type (0, 1), BuildingBlock: XIVTED_clean_linker_0, # of connection points: 2
#     Edge 81, Type (0, 1), BuildingBlock: XIVTED_clean_linker_0, # of connection points: 2
#     Edge 82, Type (0, 1), BuildingBlock: XIVTED_clean_linker_0, # of connection points: 2
#     Edge 83, Type (0, 1), BuildingBlock: XIVTED_clean_linker_0, # of connection points: 2
#     Edge 84, Type (0, 1), BuildingBlock: XIVTED_clean_linker_0, # of connection points: 2
#     Edge 85, Type (0, 1), BuildingBlock: XIVTED_clean_linker_0, # of connection points: 2
#     Edge 86, Type (0, 1), BuildingBlock: XIVTED_clean_linker_0, # of connection points: 2
#     Edge 87, Type (0, 1), BuildingBlock: XIVTED_clean_linker_0, # of connection points: 2
#     Edge 88, Type (0, 1), BuildingBlock: XIVTED_clean_linker_0, # of connection points: 2
#     Edge 89, Type (0, 1), BuildingBlock: XIVTED_clean_linker_0, # of connection points: 2
#     Edge 90, Type (0, 1), BuildingBlock: XIVTED_clean_linker_0, # of connection points: 2
#     Edge 91, Type (0, 1), BuildingBlock: XIVTED_clean_linker_0, # of connection points: 2
#     Edge 92, Type (0, 1), BuildingBlock: XIVTED_clean_linker_0, # of connection points: 2
#     Edge 93, Type (0, 1), BuildingBlock: XIVTED_clean_linker_0, # of connection points: 2
#     Edge 94, Type (0, 1), BuildingBlock: XIVTED_clean_linker_0, # of connection points: 2
#     Edge 95, Type (0, 1), BuildingBlock: XIVTED_clean_linker_0, # of connection points: 2
#     Edge 96, Type (0, 1), BuildingBlock: XIVTED_clean_linker_0, # of connection points: 2
#     Edge 97, Type (0, 1), BuildingBlock: XIVTED_clean_linker_0, # of connection points: 2
#     Edge 98, Type (0, 1), BuildingBlock: XIVTED_clean_linker_0, # of connection points: 2
#     Edge 99, Type (0, 1), BuildingBlock: XIVTED_clean_linker_0, # of connection points: 2
#     Edge 100, Type (0, 1), BuildingBlock: XIVTED_clean_linker_0, # of connection points: 2
#     Edge 101, Type (0, 1), BuildingBlock: XIVTED_clean_linker_0, # of connection points: 2
#     Edge 102, Type (0, 1), BuildingBlock: XIVTED_clean_linker_0, # of connection points: 2
#     Edge 103, Type (0, 1), BuildingBlock: XIVTED_clean_linker_0, # of connection points: 2
#     Edge 104, Type (0, 1), BuildingBlock: XIVTED_clean_linker_0, # of connection points: 2
#     Edge 105, Type (0, 1), BuildingBlock: XIVTED_clean_linker_0, # of connection points: 2
#     Edge 106, Type (0, 1), BuildingBlock: XIVTED_clean_linker_0, # of connection points: 2
#     Edge 107, Type (0, 1), BuildingBlock: XIVTED_clean_linker_0, # of connection points: 2
#     Edge 108, Type (0, 1), BuildingBlock: XIVTED_clean_linker_0, # of connection points: 2
#     Edge 109, Type (0, 1), BuildingBlock: XIVTED_clean_linker_0, # of connection points: 2
#     Edge 110, Type (0, 1), BuildingBlock: XIVTED_clean_linker_0, # of connection points: 2
#     Edge 111, Type (0, 1), BuildingBlock: XIVTED_clean_linker_0, # of connection points: 2
#     Edge 112, Type (0, 1), BuildingBlock: XIVTED_clean_linker_0, # of connection points: 2
#     Edge 113, Type (0, 1), BuildingBlock: XIVTED_clean_linker_0, # of connection points: 2
#     Edge 114, Type (0, 1), BuildingBlock: XIVTED_clean_linker_0, # of connection points: 2
#     Edge 115, Type (0, 1), BuildingBlock: XIVTED_clean_linker_0, # of connection points: 2
#     Edge 116, Type (0, 1), BuildingBlock: XIVTED_clean_linker_0, # of connection points: 2
#     Edge 117, Type (0, 1), BuildingBlock: XIVTED_clean_linker_0, # of connection points: 2
#     Edge 118, Type (0, 1), BuildingBlock: XIVTED_clean_linker_0, # of connection points: 2
#     Edge 119, Type (0, 1), BuildingBlock: XIVTED_clean_linker_0, # of connection points: 2
#     Edge 120, Type (0, 1), BuildingBlock: XIVTED_clean_linker_0, # of connection points: 2
#     Edge 121, Type (0, 1), BuildingBlock: XIVTED_clean_linker_0, # of connection points: 2
#     Edge 122, Type (0, 1), BuildingBlock: XIVTED_clean_linker_0, # of connection points: 2
#     Edge 123, Type (0, 1), BuildingBlock: XIVTED_clean_linker_0, # of connection points: 2
#     Edge 124, Type (0, 1), BuildingBlock: XIVTED_clean_linker_0, # of connection points: 2
#     Edge 125, Type (0, 1), BuildingBlock: XIVTED_clean_linker_0, # of connection points: 2
#     Edge 126, Type (0, 1), BuildingBlock: XIVTED_clean_linker_0, # of connection points: 2
#     Edge 127, Type (0, 1), BuildingBlock: XIVTED_clean_linker_0, # of connection points: 2
#     Edge 128, Type (0, 1), BuildingBlock: XIVTED_clean_linker_0, # of connection points: 2
#     Edge 129, Type (0, 1), BuildingBlock: XIVTED_clean_linker_0, # of connection points: 2
#     Edge 130, Type (0, 1), BuildingBlock: XIVTED_clean_linker_0, # of connection points: 2
#     Edge 131, Type (0, 1), BuildingBlock: XIVTED_clean_linker_0, # of connection points: 2
#     Edge 132, Type (0, 1), BuildingBlock: XIVTED_clean_linker_0, # of connection points: 2
#     Edge 133, Type (0, 1), BuildingBlock: XIVTED_clean_linker_0, # of connection points: 2
#     Edge 134, Type (0, 1), BuildingBlock: XIVTED_clean_linker_0, # of connection points: 2
#     Edge 135, Type (0, 1), BuildingBlock: XIVTED_clean_linker_0, # of connection points: 2
#     Edge 136, Type (0, 1), BuildingBlock: XIVTED_clean_linker_0, # of connection points: 2
#     Edge 137, Type (0, 1), BuildingBlock: XIVTED_clean_linker_0, # of connection points: 2
#     Edge 138, Type (0, 1), BuildingBlock: XIVTED_clean_linker_0, # of connection points: 2
#     Edge 139, Type (0, 1), BuildingBlock: XIVTED_clean_linker_0, # of connection points: 2
#     Edge 140, Type (0, 1), BuildingBlock: XIVTED_clean_linker_0, # of connection points: 2
#     Edge 141, Type (0, 1), BuildingBlock: XIVTED_clean_linker_0, # of connection points: 2
#     Edge 142, Type (0, 1), BuildingBlock: XIVTED_clean_linker_0, # of connection points: 2
#     Edge 143, Type (0, 1), BuildingBlock: XIVTED_clean_linker_0, # of connection points: 2
#     Edge 144, Type (0, 1), BuildingBlock: XIVTED_clean_linker_0, # of connection points: 2
#     Edge 145, Type (0, 1), BuildingBlock: XIVTED_clean_linker_0, # of connection points: 2
#     Edge 146, Type (0, 1), BuildingBlock: XIVTED_clean_linker_0, # of connection points: 2
#     Edge 147, Type (0, 1), BuildingBlock: XIVTED_clean_linker_0, # of connection points: 2
#     Edge 148, Type (0, 1), BuildingBlock: XIVTED_clean_linker_0, # of connection points: 2
#     Edge 149, Type (0, 1), BuildingBlock: XIVTED_clean_linker_0, # of connection points: 2
#     Edge 150, Type (0, 1), BuildingBlock: XIVTED_clean_linker_0, # of connection points: 2
#     Edge 151, Type (0, 1), BuildingBlock: XIVTED_clean_linker_0, # of connection points: 2
# Relax obj value: 0.020
# Max RMSD: 0.192
# Mean RMSD: 0.117
data_MOF--net-tbo--node1-ESEHIV_clean_sbu_0--node2-CUQRIR_clean_linker_1--edge1-XIVTED_clean_linker_0
_symmetry_space_group_name_H-M    P1
_symmetry_Int_Tables_number       1
_symmetry_cell_setting            triclinic
loop_
_symmetry_equiv_pos_as_xyz
'x, y, z'
_cell_length_a     67.807477
_cell_length_b     68.498189
_cell_length_c     65.901297
_cell_angle_alpha  86.997239
_cell_angle_beta   95.725865
_cell_angle_gamma 95.527126
loop_
_atom_site_label
_atom_site_type_symbol
_atom_site_fract_x
_atom_site_fract_y
_atom_site_fract_z
_atom_type_partial_charge
C0 C 0.20505 0.16307 0.22791 0.0
N1 N 0.21767 0.16348 0.21311 0.0
N2 N 0.19331 0.17811 0.22491 0.0
C3 C 0.20395 0.14778 0.24511 0.0
C4 C 0.19917 0.18762 0.20764 0.0
N5 N 0.21385 0.17862 0.20033 0.0
C6 C 0.191 0.20616 0.19849 0.0
H7 H 0.19399 0.1349 0.23972 0.0
H8 H 0.19789 0.15353 0.2584 0.0
H9 H 0.21878 0.14274 0.25008 0.0
H10 H 0.1997 0.21894 0.20573 0.0
H11 H 0.17519 0.20643 0.20139 0.0
H12 H 0.19205 0.20792 0.18186 0.0
C13 C 0.85701 0.19645 0.17852 0.0
N14 N 0.87053 0.19118 0.19385 0.0
N15 N 0.86139 0.21534 0.17207 0.0
C16 C 0.8391 0.18345 0.17051 0.0
C17 C 0.87814 0.22129 0.18392 0.0
N18 N 0.88352 0.2067 0.19737 0.0
C19 C 0.89048 0.24051 0.18071 0.0
H20 H 0.84337 0.17461 0.15828 0.0
H21 H 0.82691 0.19229 0.16403 0.0
H22 H 0.8337 0.1732 0.18278 0.0
H23 H 0.88587 0.25151 0.19063 0.0
H24 H 0.88835 0.24611 0.16461 0.0
H25 H 0.90654 0.23891 0.18471 0.0
C26 C 0.87423 0.8673 0.18467 0.0
N27 N 0.87959 0.85238 0.17426 0.0
N28 N 0.857 0.87372 0.17591 0.0
C29 C 0.88546 0.87518 0.20385 0.0
C30 C 0.85184 0.86201 0.15995 0.0
N31 N 0.86546 0.84885 0.15903 0.0
C32 C 0.83367 0.86366 0.14515 0.0
H33 H 0.8915 0.86307 0.21368 0.0
H34 H 0.87596 0.88316 0.21268 0.0
H35 H 0.89814 0.88556 0.19965 0.0
H36 H 0.83696 0.8608 0.12947 0.0
H37 H 0.82814 0.87837 0.14527 0.0
H38 H 0.82174 0.85248 0.1496 0.0
C39 C 0.18211 0.82852 0.16382 0.0
N40 N 0.19667 0.84361 0.16412 0.0
N41 N 0.16758 0.8323 0.17534 0.0
C42 C 0.18118 0.81088 0.15097 0.0
C43 C 0.17375 0.85022 0.1826 0.0
N44 N 0.19128 0.85723 0.17557 0.0
C45 C 0.1634 0.86014 0.19785 0.0
H46 H 0.16559 0.80457 0.14744 0.0
H47 H 0.18968 0.79951 0.15949 0.0
H48 H 0.1879 0.81479 0.13645 0.0
H49 H 0.17433 0.86874 0.20835 0.0
H50 H 0.15439 0.84926 0.20699 0.0
H51 H 0.15334 0.87035 0.18956 0.0
C52 C 0.18438 0.84754 0.83948 0.0
N53 N 0.20121 0.85607 0.84934 0.0
N54 N 0.17735 0.85963 0.8241 0.0
C55 C 0.17445 0.82774 0.84526 0.0
C56 C 0.19042 0.87583 0.82498 0.0
N57 N 0.205 0.87361 0.84024 0.0
C58 C 0.18877 0.89387 0.81118 0.0
H59 H 0.16622 0.82071 0.83176 0.0
H60 H 0.16362 0.82964 0.8564 0.0
H61 H 0.18555 0.81798 0.85249 0.0
H62 H 0.18096 0.90456 0.81875 0.0
H63 H 0.18013 0.89029 0.79644 0.0
H64 H 0.20377 0.90085 0.80836 0.0
C65 C 0.2152 0.16642 0.8614 0.0
N66 N 0.21444 0.18099 0.87444 0.0
N67 N 0.22968 0.15475 0.86827 0.0
C68 C 0.20089 0.16273 0.84275 0.0
C69 C 0.23774 0.16271 0.88593 0.0
N70 N 0.22844 0.17855 0.88978 0.0
C71 C 0.25484 0.15504 0.89938 0.0
H72 H 0.19975 0.1471 0.83879 0.0
H73 H 0.20634 0.17188 0.82971 0.0
H74 H 0.18589 0.16684 0.84517 0.0
H75 H 0.26392 0.16699 0.90765 0.0
H76 H 0.26455 0.14754 0.89031 0.0
H77 H 0.24879 0.14429 0.91089 0.0
C78 C 0.87035 0.19048 0.86583 0.0
N79 N 0.88118 0.18276 0.85253 0.0
N80 N 0.87986 0.20741 0.87298 0.0
C81 C 0.85026 0.18189 0.87155 0.0
C82 C 0.89682 0.20973 0.8635 0.0
N83 N 0.89752 0.19486 0.85092 0.0
C84 C 0.91276 0.22644 0.86662 0.0
H85 H 0.83857 0.18929 0.86192 0.0
H86 H 0.84865 0.18451 0.88776 0.0
H87 H 0.84766 0.16596 0.86912 0.0
H88 H 0.92421 0.22191 0.87871 0.0
H89 H 0.90651 0.23964 0.87148 0.0
H90 H 0.92013 0.23019 0.85247 0.0
C91 C 0.87714 0.88382 0.83327 0.0
N92 N 0.88541 0.867 0.83947 0.0
N93 N 0.88205 0.89003 0.81442 0.0
C94 C 0.86314 0.89349 0.84508 0.0
C95 C 0.89348 0.87622 0.80926 0.0
N96 N 0.8954 0.86207 0.8244 0.0
C97 C 0.90413 0.8775 0.7902 0.0
H98 H 0.85428 0.88242 0.85418 0.0
H99 H 0.85282 0.90193 0.83472 0.0
H100 H 0.87195 0.90373 0.85575 0.0
H101 H 0.90626 0.89287 0.78408 0.0
H102 H 0.89508 0.86861 0.77843 0.0
H103 H 0.91886 0.87158 0.79322 0.0
C104 C 0.20632 0.68119 0.68765 0.0
N105 N 0.22078 0.6798 0.67512 0.0
N106 N 0.19378 0.6946 0.67994 0.0
C107 C 0.20369 0.6688 0.70692 0.0
C108 C 0.20115 0.70127 0.66217 0.0
N109 N 0.21748 0.69214 0.65916 0.0
C110 C 0.19217 0.71626 0.64746 0.0
H111 H 0.19343 0.6556 0.70315 0.0
H112 H 0.19702 0.67705 0.71815 0.0
H113 H 0.2179 0.6638 0.71406 0.0
H114 H 0.20408 0.72621 0.64098 0.0
H115 H 0.18214 0.72504 0.65469 0.0
H116 H 0.18332 0.70857 0.6347 0.0
C117 C 0.8542 0.67683 0.64356 0.0
N118 N 0.87042 0.67749 0.65735 0.0
N119 N 0.85354 0.69405 0.63264 0.0
C120 C 0.83837 0.65991 0.64177 0.0
C121 C 0.86985 0.70524 0.64025 0.0
N122 N 0.88007 0.69523 0.65543 0.0
C123 C 0.87616 0.72555 0.63206 0.0
H124 H 0.84416 0.64785 0.63418 0.0
H125 H 0.82465 0.66417 0.63271 0.0
H126 H 0.83474 0.65424 0.65717 0.0
H127 H 0.87001 0.73646 0.64096 0.0
H128 H 0.87033 0.72761 0.61582 0.0
H129 H 0.89261 0.72836 0.63342 0.0
C130 C 0.89454 0.37319 0.7031 0.0
N131 N 0.89944 0.35708 0.69428 0.0
N132 N 0.87715 0.37904 0.69408 0.0
C133 C 0.9061 0.38254 0.72137 0.0
C134 C 0.87139 0.36575 0.67969 0.0
N135 N 0.88484 0.35225 0.67987 0.0
C136 C 0.85262 0.36607 0.66551 0.0
H137 H 0.91161 0.3711 0.73249 0.0
H138 H 0.89702 0.39198 0.72908 0.0
H139 H 0.91917 0.39182 0.71628 0.0
H140 H 0.84768 0.38109 0.66357 0.0
H141 H 0.84069 0.35625 0.6721 0.0
H142 H 0.85487 0.36073 0.65037 0.0
C143 C 0.20295 0.34617 0.69511 0.0
N144 N 0.21722 0.36126 0.69335 0.0
N145 N 0.19304 0.34801 0.71161 0.0
C146 C 0.19819 0.32998 0.68033 0.0
C147 C 0.20179 0.36477 0.71988 0.0
N148 N 0.21671 0.37273 0.70893 0.0
C149 C 0.19512 0.37389 0.73804 0.0
H150 H 0.18737 0.33482 0.66776 0.0
H151 H 0.19142 0.31646 0.68783 0.0
H152 H 0.2118 0.32659 0.67365 0.0
H153 H 0.20606 0.37166 0.75143 0.0
H154 H 0.18037 0.36726 0.74198 0.0
H155 H 0.19458 0.38994 0.73504 0.0
C156 C 0.17402 0.37222 0.3906 0.0
N157 N 0.19215 0.3811 0.39692 0.0
N158 N 0.1674 0.37949 0.37192 0.0
C159 C 0.16344 0.35526 0.40178 0.0
C160 C 0.18218 0.39312 0.3671 0.0
N161 N 0.19704 0.39433 0.38239 0.0
C162 C 0.18305 0.4037 0.34662 0.0
H163 H 0.16628 0.34135 0.39514 0.0
H164 H 0.14714 0.35637 0.39991 0.0
H165 H 0.16864 0.3548 0.41829 0.0
H166 H 0.16789 0.40453 0.33875 0.0
H167 H 0.19181 0.39557 0.33709 0.0
H168 H 0.19062 0.4187 0.34835 0.0
C169 C 0.20002 0.65166 0.3256 0.0
N170 N 0.19664 0.66704 0.33654 0.0
N171 N 0.21869 0.6463 0.33064 0.0
C172 C 0.18557 0.64272 0.3091 0.0
C173 C 0.22651 0.65905 0.34505 0.0
N174 N 0.2132 0.67179 0.3485 0.0
C175 C 0.24659 0.65804 0.35685 0.0
H176 H 0.17621 0.63043 0.31597 0.0
H177 H 0.19354 0.63683 0.29719 0.0
H178 H 0.17563 0.65363 0.30194 0.0
H179 H 0.25134 0.64296 0.3573 0.0
H180 H 0.24633 0.66264 0.37271 0.0
H181 H 0.25771 0.66812 0.3493 0.0
C182 C 0.85736 0.67987 0.35499 0.0
N183 N 0.8669 0.67255 0.3403 0.0
N184 N 0.86707 0.69701 0.36142 0.0
C185 C 0.83837 0.67057 0.36271 0.0
C186 C 0.8827 0.69998 0.35003 0.0
N187 N 0.88252 0.68525 0.33711 0.0
C188 C 0.89792 0.71749 0.35102 0.0
H189 H 0.82842 0.66381 0.35007 0.0
H190 H 0.83041 0.68137 0.36991 0.0
H191 H 0.84198 0.65884 0.37435 0.0
H192 H 0.91308 0.71262 0.35115 0.0
H193 H 0.89716 0.72616 0.3646 0.0
H194 H 0.89529 0.72711 0.33714 0.0
C195 C 0.87268 0.36756 0.35969 0.0
N196 N 0.88098 0.3513 0.36795 0.0
N197 N 0.88081 0.37402 0.34229 0.0
C198 C 0.85623 0.37681 0.36829 0.0
C199 C 0.89418 0.36099 0.3401 0.0
N200 N 0.89417 0.34707 0.35553 0.0
C201 C 0.90685 0.36147 0.32255 0.0
H202 H 0.84519 0.36531 0.37395 0.0
H203 H 0.84854 0.38666 0.35691 0.0
H204 H 0.86266 0.3857 0.38135 0.0
H205 H 0.90873 0.3763 0.31508 0.0
H206 H 0.89955 0.35121 0.31101 0.0
H207 H 0.92172 0.35659 0.32783 0.0
C208 C 0.70325 0.17728 0.69379 0.0
N209 N 0.7162 0.17796 0.67933 0.0
N210 N 0.69141 0.19221 0.69066 0.0
C211 C 0.70177 0.16173 0.71071 0.0
C212 C 0.6976 0.20198 0.67363 0.0
N213 N 0.71254 0.19319 0.66658 0.0
C214 C 0.68891 0.21993 0.66369 0.0
H215 H 0.69166 0.14908 0.70501 0.0
H216 H 0.69564 0.16735 0.72403 0.0
H217 H 0.71648 0.15641 0.71571 0.0
H218 H 0.68037 0.22723 0.67407 0.0
H219 H 0.67861 0.21551 0.65023 0.0
H220 H 0.70088 0.23056 0.65831 0.0
C221 C 0.35794 0.17329 0.67263 0.0
N222 N 0.37312 0.17302 0.68761 0.0
N223 N 0.36211 0.18742 0.65818 0.0
C224 C 0.33934 0.1594 0.67165 0.0
C225 C 0.38031 0.19585 0.66492 0.0
N226 N 0.38712 0.18697 0.68276 0.0
C227 C 0.39037 0.21402 0.65516 0.0
H228 H 0.34246 0.14481 0.67869 0.0
H229 H 0.33289 0.15768 0.65563 0.0
H230 H 0.32819 0.16543 0.68022 0.0
H231 H 0.37943 0.22268 0.64591 0.0
H232 H 0.40105 0.20959 0.64495 0.0
H233 H 0.39871 0.22348 0.66688 0.0
C234 C 0.3823 0.87566 0.71012 0.0
N235 N 0.38582 0.86344 0.69564 0.0
N236 N 0.36669 0.8861 0.70365 0.0
C237 C 0.39442 0.87776 0.73045 0.0
C238 C 0.3609 0.87985 0.68463 0.0
N239 N 0.37262 0.86618 0.67964 0.0
C240 C 0.3428 0.88595 0.67164 0.0
H241 H 0.38774 0.86721 0.74175 0.0
H242 H 0.39448 0.89281 0.73591 0.0
H243 H 0.40999 0.87443 0.72961 0.0
H244 H 0.34739 0.8983 0.66105 0.0
H245 H 0.33179 0.8909 0.68117 0.0
H246 H 0.3356 0.87365 0.66244 0.0
C247 C 0.68227 0.83824 0.65109 0.0
N248 N 0.69587 0.85387 0.6486 0.0
N249 N 0.67425 0.83888 0.66904 0.0
C250 C 0.67814 0.82145 0.63699 0.0
C251 C 0.68349 0.85535 0.67742 0.0
N252 N 0.6967 0.86436 0.66513 0.0
C253 C 0.67925 0.86293 0.69742 0.0
H254 H 0.66707 0.82546 0.62428 0.0
H255 H 0.67201 0.80793 0.64504 0.0
H256 H 0.69191 0.81842 0.63039 0.0
H257 H 0.69002 0.85746 0.7097 0.0
H258 H 0.66396 0.85774 0.70111 0.0
H259 H 0.68108 0.87921 0.69705 0.0
C260 C 0.67054 0.84466 0.33656 0.0
N261 N 0.68695 0.85573 0.34425 0.0
N262 N 0.66146 0.85409 0.32021 0.0
C263 C 0.6624 0.82541 0.34591 0.0
C264 C 0.67268 0.87135 0.3183 0.0
N265 N 0.6882 0.87241 0.33297 0.0
C266 C 0.66886 0.88669 0.30157 0.0
H267 H 0.64611 0.82274 0.34195 0.0
H268 H 0.66554 0.82506 0.36277 0.0
H269 H 0.66966 0.81336 0.33993 0.0
H270 H 0.66029 0.8979 0.3073 0.0
H271 H 0.66002 0.88011 0.28813 0.0
H272 H 0.68308 0.89407 0.29686 0.0
C273 C 0.69739 0.15669 0.32525 0.0
N274 N 0.69558 0.16908 0.34029 0.0
N275 N 0.71207 0.14484 0.33086 0.0
C276 C 0.68374 0.15501 0.30586 0.0
C277 C 0.71909 0.1504 0.34983 0.0
N278 N 0.70896 0.1649 0.35571 0.0
C279 C 0.73658 0.14228 0.36223 0.0
H280 H 0.66821 0.15686 0.30882 0.0
H281 H 0.68416 0.14066 0.29895 0.0
H282 H 0.6885 0.16687 0.29479 0.0
H283 H 0.74643 0.13602 0.3523 0.0
H284 H 0.731 0.13048 0.37297 0.0
H285 H 0.74539 0.15386 0.37131 0.0
C286 C 0.35482 0.18607 0.38836 0.0
N287 N 0.36365 0.17659 0.37467 0.0
N288 N 0.36713 0.20139 0.39572 0.0
C289 C 0.33441 0.18013 0.39493 0.0
C290 C 0.38378 0.20081 0.3861 0.0
N291 N 0.38172 0.18569 0.37338 0.0
C292 C 0.4016 0.21572 0.38823 0.0
H293 H 0.32352 0.18878 0.38558 0.0
H294 H 0.33386 0.18331 0.41119 0.0
H295 H 0.32992 0.16434 0.39271 0.0
H296 H 0.4126 0.21039 0.40035 0.0
H297 H 0.39731 0.23005 0.39257 0.0
H298 H 0.40878 0.21781 0.37376 0.0
C299 C 0.361 0.85353 0.35919 0.0
N300 N 0.37011 0.83674 0.3629 0.0
N301 N 0.36667 0.86318 0.34189 0.0
C302 C 0.34571 0.85993 0.37186 0.0
C303 C 0.37961 0.85159 0.33524 0.0
N304 N 0.38161 0.83548 0.3479 0.0
C305 C 0.39076 0.85635 0.3167 0.0
H306 H 0.33736 0.84704 0.37895 0.0
H307 H 0.33507 0.86882 0.36245 0.0
H308 H 0.35337 0.86902 0.38425 0.0
H309 H 0.40475 0.84905 0.31774 0.0
H310 H 0.39426 0.87245 0.3146 0.0
H311 H 0.38124 0.85111 0.30304 0.0
C312 C 0.69358 0.67834 0.18819 0.0
N313 N 0.70689 0.68023 0.17397 0.0
N314 N 0.67978 0.69142 0.18417 0.0
C315 C 0.69321 0.66276 0.20516 0.0
C316 C 0.68512 0.70129 0.16689 0.0
N317 N 0.70147 0.69436 0.16051 0.0
C318 C 0.67549 0.71894 0.15745 0.0
H319 H 0.67787 0.65895 0.20948 0.0
H320 H 0.70267 0.66836 0.21871 0.0
H321 H 0.69918 0.64928 0.20062 0.0
H322 H 0.66838 0.72641 0.16896 0.0
H323 H 0.66384 0.71411 0.14525 0.0
H324 H 0.68657 0.72961 0.15058 0.0
C325 C 0.35343 0.64858 0.13997 0.0
N326 N 0.37 0.64814 0.15318 0.0
N327 N 0.35578 0.66313 0.1255 0.0
C328 C 0.33436 0.63589 0.14214 0.0
C329 C 0.37431 0.67175 0.13064 0.0
N330 N 0.38296 0.6627 0.14752 0.0
C331 C 0.38296 0.69037 0.12049 0.0
H332 H 0.33749 0.6211 0.14862 0.0
H333 H 0.32537 0.63455 0.12717 0.0
H334 H 0.32558 0.64271 0.15274 0.0
H335 H 0.37612 0.70301 0.12586 0.0
H336 H 0.3795 0.69003 0.1037 0.0
H337 H 0.39934 0.69254 0.12412 0.0
C338 C 0.39784 0.3556 0.22174 0.0
N339 N 0.40205 0.34065 0.21057 0.0
N340 N 0.38108 0.36346 0.21343 0.0
C341 C 0.40983 0.36219 0.24105 0.0
C342 C 0.3751 0.35261 0.19694 0.0
N343 N 0.38769 0.33866 0.19528 0.0
C344 C 0.35666 0.35523 0.18276 0.0
H345 H 0.4146 0.34931 0.25055 0.0
H346 H 0.40147 0.37108 0.25016 0.0
H347 H 0.42336 0.37139 0.23701 0.0
H348 H 0.35942 0.35282 0.1668 0.0
H349 H 0.3515 0.37001 0.18359 0.0
H350 H 0.34461 0.34414 0.18711 0.0
C351 C 0.68367 0.34788 0.16878 0.0
N352 N 0.69698 0.36378 0.1673 0.0
N353 N 0.67456 0.34792 0.18609 0.0
C354 C 0.67983 0.33204 0.15349 0.0
C355 C 0.68283 0.36446 0.19518 0.0
N356 N 0.69671 0.37406 0.18383 0.0
C357 C 0.67747 0.37109 0.21516 0.0
H358 H 0.66453 0.32471 0.15371 0.0
H359 H 0.69056 0.32088 0.15747 0.0
H360 H 0.68195 0.33806 0.13783 0.0
H361 H 0.6623 0.36506 0.21838 0.0
H362 H 0.67846 0.38736 0.21518 0.0
H363 H 0.68812 0.36579 0.22764 0.0
C364 C 0.68419 0.3686 0.85184 0.0
N365 N 0.70046 0.38013 0.8589 0.0
N366 N 0.6747 0.37732 0.83526 0.0
C367 C 0.67705 0.34917 0.86155 0.0
C368 C 0.68576 0.39462 0.83249 0.0
N369 N 0.70144 0.39637 0.84695 0.0
C370 C 0.68221 0.4089 0.81468 0.0
H371 H 0.68405 0.33733 0.85485 0.0
H372 H 0.66065 0.34629 0.85862 0.0
H373 H 0.68129 0.34877 0.87826 0.0
H374 H 0.67407 0.42088 0.81954 0.0
H375 H 0.67315 0.40168 0.80174 0.0
H376 H 0.69655 0.41551 0.8095 0.0
C377 C 0.70933 0.66247 0.82968 0.0
N378 N 0.70721 0.67653 0.84292 0.0
N379 N 0.72499 0.6522 0.83632 0.0
C380 C 0.69528 0.65777 0.81108 0.0
C381 C 0.73234 0.66045 0.85407 0.0
N382 N 0.7214 0.67504 0.85828 0.0
C383 C 0.75136 0.65546 0.86621 0.0
H384 H 0.69531 0.64219 0.80729 0.0
H385 H 0.70014 0.66716 0.79793 0.0
H386 H 0.6799 0.66076 0.81345 0.0
H387 H 0.76132 0.64911 0.85646 0.0
H388 H 0.74773 0.6445 0.87859 0.0
H389 H 0.75944 0.66868 0.87322 0.0
C390 C 0.37298 0.6826 0.86924 0.0
N391 N 0.38267 0.67671 0.85389 0.0
N392 N 0.38182 0.69985 0.87634 0.0
C393 C 0.35452 0.67192 0.87687 0.0
C394 C 0.39705 0.70438 0.86464 0.0
N395 N 0.39748 0.69045 0.85092 0.0
C396 C 0.41114 0.72272 0.8661 0.0
H397 H 0.34475 0.66525 0.86405 0.0
H398 H 0.34605 0.68178 0.88476 0.0
H399 H 0.35891 0.65998 0.88792 0.0
H400 H 0.42642 0.71941 0.86369 0.0
H401 H 0.41137 0.7295 0.88103 0.0
H402 H 0.40631 0.73349 0.8539 0.0
C403 C 0.38531 0.36532 0.86762 0.0
N404 N 0.39513 0.35032 0.87665 0.0
N405 N 0.39406 0.37293 0.85097 0.0
C406 C 0.36768 0.37309 0.87558 0.0
C407 C 0.40958 0.36202 0.85023 0.0
N408 N 0.4104 0.34842 0.86594 0.0
C409 C 0.42312 0.36375 0.83332 0.0
H410 H 0.35385 0.36544 0.86822 0.0
H411 H 0.36747 0.38906 0.87188 0.0
H412 H 0.36777 0.3704 0.89233 0.0
H413 H 0.43652 0.37373 0.83788 0.0
H414 H 0.41558 0.36986 0.819 0.0
H415 H 0.42799 0.34923 0.8304 0.0
Cu416 Cu 0.31389 0.26331 0.04403 0.0
N417 N 0.31948 0.28607 0.02776 0.0
N418 N 0.33276 0.30431 1.0024 0.0
C419 C 0.32732 0.28601 1.00974 0.0
C420 C 0.32796 0.31641 0.01634 0.0
C421 C 0.31974 0.30511 0.03195 0.0
O422 O 0.30524 0.24275 0.02455 0.0
C423 C 0.35202 0.27157 0.06638 0.0
O424 O 0.35631 0.28383 0.05113 0.0
H425 H 0.33004 0.27269 1.00275 0.0
H426 H 0.31513 0.31036 0.04578 0.0
N427 N 0.29342 0.26449 0.06096 0.0
N428 N 0.27385 0.25407 0.08552 0.0
C429 C 0.29007 0.25107 0.07623 0.0
C430 C 0.27895 0.27667 0.06072 0.0
C431 C 0.26672 0.27014 0.07578 0.0
C432 C 0.28742 0.2431 0.01622 0.0
O433 O 0.27625 0.25601 0.02195 0.0
H434 H 0.29905 0.2389 0.07998 0.0
H435 H 0.27711 0.28905 0.05005 0.0
O436 O 0.33662 0.25933 0.06415 0.0
H437 H 0.33057 0.33225 0.01554 0.0
H438 H 0.25359 0.27666 0.07924 0.0
Cu439 Cu 0.79634 0.30956 0.01253 0.0
N440 N 0.77356 0.31733 0.02528 0.0
N441 N 0.75566 0.33065 0.04671 0.0
C442 C 0.77407 0.32721 0.04251 0.0
C443 C 0.74314 0.32268 0.03146 0.0
C444 C 0.75424 0.31445 0.01827 0.0
O445 O 0.80444 0.29336 0.03809 0.0
C446 C 0.78449 0.34226 0.98444 0.0
O447 O 0.78807 0.35315 1.00046 0.0
H448 H 0.78765 0.33205 0.0516 0.0
H449 H 0.74867 0.30696 1.00452 0.0
N450 N 0.81926 0.30207 1.00001 0.0
N451 N 0.83806 0.28796 0.9801 0.0
C452 C 0.81935 0.28967 0.98482 0.0
C453 C 0.83839 0.30849 1.00503 0.0
C454 C 0.85004 0.29978 0.99281 0.0
C455 C 0.81567 0.3002 0.05313 0.0
O456 O 0.82265 0.31877 0.05259 0.0
H457 H 0.80603 0.28195 0.97759 0.0
H458 H 0.84346 0.31882 0.01672 0.0
O459 O 0.7874 0.32417 0.98617 0.0
H460 H 0.72709 0.32249 0.03012 0.0
H461 H 0.86606 0.30224 0.99307 0.0
Cu462 Cu 0.80341 0.77475 1.00467 0.0
N463 N 0.81134 0.79747 0.9892 0.0
N464 N 0.82594 0.81591 0.96477 0.0
C465 C 0.8208 0.79753 0.97211 0.0
C466 C 0.81936 0.82788 0.97778 0.0
C467 C 0.81033 0.81647 0.9928 0.0
O468 O 0.79418 0.75449 0.98508 0.0
C469 C 0.84008 0.78116 0.02983 0.0
O470 O 0.84592 0.7934 0.01515 0.0
H471 H 0.82436 0.78428 0.96558 0.0
H472 H 0.80382 0.82164 1.00562 0.0
N473 N 0.78193 0.77712 0.01981 0.0
N474 N 0.76136 0.7682 0.04393 0.0
C475 C 0.77878 0.76564 0.03663 0.0
C476 C 0.76597 0.7875 0.01631 0.0
C477 C 0.75319 0.78196 0.03116 0.0
C478 C 0.78115 0.76003 0.97114 0.0
O479 O 0.7756 0.77785 0.97153 0.0
H480 H 0.78869 0.75487 0.0428 0.0
H481 H 0.76349 0.79786 1.00356 0.0
O482 O 0.82447 0.76941 0.02627 0.0
H483 H 0.82093 0.84376 0.97656 0.0
H484 H 0.7389 0.78742 0.03229 0.0
Cu485 Cu 0.29282 0.79344 0.01252 0.0
N486 N 0.29317 0.81354 0.03083 0.0
N487 N 0.28473 0.82946 0.05698 0.0
C488 C 0.28222 0.81266 0.04685 0.0
C489 C 0.29759 0.84157 0.04677 0.0
C490 C 0.30284 0.83165 0.03064 0.0
O491 O 0.28698 0.76825 0.0266 0.0
C492 C 0.27924 0.81237 0.97692 0.0
O493 O 0.29677 0.8221 0.98072 0.0
H494 H 0.27232 0.79998 0.05083 0.0
H495 H 0.31286 0.83729 0.01949 0.0
N496 N 0.31719 0.79168 1.00215 0.0
N497 N 0.3381 0.78073 0.9821 0.0
C498 C 0.31893 0.78194 0.98532 0.0
C499 C 0.33592 0.79686 1.01002 0.0
C500 C 0.3489 0.79009 0.99765 0.0
C501 C 0.29645 0.76572 0.04405 0.0
O502 O 0.30866 0.78016 0.05164 0.0
H503 H 0.30627 0.77507 0.97615 0.0
H504 H 0.33984 0.80441 0.02407 0.0
O505 O 0.27368 0.79862 0.98944 0.0
H506 H 0.30293 0.8564 0.05078 0.0
H507 H 0.36499 0.7917 1.00008 0.0
Cu508 Cu 0.04049 0.24928 0.30843 0.0
N509 N 0.05742 0.22896 0.30962 0.0
N510 N 0.08173 0.2119 0.30105 0.0
C511 C 0.07181 0.22806 0.29705 0.0
C512 C 0.07313 0.20215 0.31672 0.0
C513 C 0.0582 0.21276 0.32204 0.0
O514 O 0.05665 0.2742 0.30657 0.0
C515 C 1.01257 0.22847 0.28228 0.0
O516 O 0.01879 0.21369 0.29386 0.0
H517 H 0.07484 0.23907 0.2851 0.0
H518 H 0.04858 0.20893 0.33406 0.0
N519 N 0.02567 0.25026 0.3308 0.0
N520 N 1.00144 0.26026 0.34752 0.0
C521 C 1.00763 0.25725 0.32917 0.0
C522 C 0.03119 0.2487 0.35096 0.0
C523 C 0.01625 0.25483 0.36132 0.0
C524 C 0.0736 0.2755 0.31685 0.0
O525 O 0.07935 0.26028 0.32804 0.0
H526 H 0.99988 0.26142 0.31466 0.0
H527 H 0.04549 0.24449 0.35759 0.0
O528 O 0.0209 0.24569 0.2852 0.0
H529 H 0.07751 0.1885 0.32402 0.0
H530 H 0.01661 0.25585 0.37769 0.0
Cu531 Cu 0.8077 0.01543 0.26826 0.0
N532 N 0.83123 0.03188 0.26761 0.0
N533 N 0.85088 0.05899 0.2607 0.0
C534 C 0.83224 0.05142 0.26369 0.0
C535 C 0.86208 0.04363 0.26286 0.0
C536 C 0.84991 0.0269 0.26721 0.0
O537 O 0.78574 0.03224 0.26694 0.0
C538 C 0.81601 0.98153 0.25049 0.0
O539 O 0.8265 0.97984 0.26822 0.0
H540 H 0.81932 0.0597 0.26161 0.0
H541 H 0.85418 0.01206 0.26889 0.0
N542 N 0.80663 1.00071 0.29288 0.0
N543 N 0.79346 0.97903 0.31533 0.0
C544 C 0.79011 0.98993 0.29795 0.0
C545 C 0.82102 0.99672 0.3077 0.0
C546 C 0.81293 0.98309 0.32154 0.0
C547 C 0.78472 0.04106 0.28334 0.0
O548 O 0.79818 0.03858 0.29879 0.0
H549 H 0.7761 0.98934 0.28844 0.0
H550 H 0.83642 1.00261 0.30794 0.0
O551 O 0.8063 0.99658 0.24647 0.0
H552 H 0.87776 0.04435 0.26071 0.0
H553 H 0.82079 0.9764 0.33482 0.0
Cu554 Cu 0.02738 0.74392 0.26097 0.0
N555 N 1.01234 0.76541 0.26138 0.0
N556 N 0.98994 0.78641 0.2502 0.0
C557 C 0.99747 0.7694 0.24708 0.0
C558 C 1.00045 0.79336 0.26723 0.0
C559 C 0.01419 0.7803 0.27418 0.0
O560 O 1.00714 0.72173 0.25873 0.0
C561 C 0.05236 0.76593 0.23667 0.0
O562 O 0.04952 0.77873 0.24998 0.0
H563 H 0.99273 0.76029 0.23424 0.0
H564 H 0.02507 0.7818 0.2873 0.0
N565 N 0.04483 0.74107 0.28464 0.0
N566 N 0.07131 0.73182 0.30458 0.0
C567 C 0.06323 0.735 0.28525 0.0
C568 C 0.04119 0.74197 0.30426 0.0
C569 C 0.05748 0.73618 0.3166 0.0
C570 C 1.00609 0.70722 0.27161 0.0
O571 O 0.02177 0.70395 0.28424 0.0
H572 H 0.07011 0.73196 0.27176 0.0
H573 H 0.02735 0.74573 0.3092 0.0
O574 O 0.04376 0.74859 0.23816 0.0
H575 H 0.99839 0.80693 0.27412 0.0
H576 H 0.05887 0.73488 0.33311 0.0
Cu577 Cu 0.29026 0.01609 0.26912 0.0
N578 N 0.28924 0.03009 0.29257 0.0
N579 N 0.29735 0.05414 0.31438 0.0
C580 C 0.30069 0.04687 0.29654 0.0
C581 C 0.28316 0.04144 0.32198 0.0
C582 C 0.27803 0.02668 0.30837 0.0
O583 O 0.29342 0.03732 0.24815 0.0
C584 C 0.31059 0.98765 0.29106 0.0
O585 O 0.29675 0.99017 0.30298 0.0
H586 H 0.3115 0.05348 0.2866 0.0
H587 H 0.26701 0.01432 0.30993 0.0
N588 N 0.2668 1.00015 0.26257 0.0
N589 N 0.24654 0.97638 0.24741 0.0
C590 C 0.26556 0.98384 0.25177 0.0
C591 C 0.24794 1.00308 0.26535 0.0
C592 C 0.23539 0.98844 0.25597 0.0
C593 C 0.28044 0.0399 0.23307 0.0
O594 O 0.2674 0.02521 0.22769 0.0
H595 H 0.27836 0.97813 0.24641 0.0
H596 H 0.24361 0.01534 0.27304 0.0
O597 O 0.31136 0.99814 0.27449 0.0
H598 H 0.27678 0.04287 0.33618 0.0
H599 H 0.21931 0.98695 0.25531 0.0
Cu600 Cu 0.03545 0.76604 0.75651 0.0
N601 N 0.05422 0.74737 0.7587 0.0
N602 N 0.07977 0.73177 0.75054 0.0
C603 C 0.06874 0.74714 0.74615 0.0
C604 C 0.07187 0.72197 0.76659 0.0
C605 C 0.0562 0.73169 0.77167 0.0
O606 O 0.051 0.79058 0.75067 0.0
C607 C 1.00752 0.74106 0.73487 0.0
O608 O 0.01513 0.72835 0.74831 0.0
H609 H 0.07087 0.75785 0.7337 0.0
H610 H 0.04677 0.72748 0.78377 0.0
N611 N 0.02287 0.76809 0.78035 0.0
N612 N 1.00065 0.77784 0.79989 0.0
C613 C 1.00478 0.77467 0.78073 0.0
C614 C 0.03044 0.76681 0.79997 0.0
C615 C 0.01678 0.7728 0.81206 0.0
C616 C 0.04955 0.80669 0.75893 0.0
O617 O 0.03405 0.80856 0.7689 0.0
H618 H 0.99548 0.77838 0.76702 0.0
H619 H 0.04521 0.76274 0.80505 0.0
O620 O 0.01464 0.75894 0.73508 0.0
H621 H 0.07711 0.7088 0.77421 0.0
H622 H 0.01888 0.77388 0.82846 0.0
Cu623 Cu 0.32232 0.02299 0.80718 0.0
N624 N 0.34502 0.04052 0.80601 0.0
N625 N 0.36281 0.06727 0.79458 0.0
C626 C 0.34446 0.05839 0.79668 0.0
C627 C 0.37551 0.05444 0.80303 0.0
C628 C 0.36446 0.03792 0.81015 0.0
O629 O 0.29998 0.039 0.80705 0.0
C630 C 0.33348 0.99234 0.7872 0.0
O631 O 0.34641 0.99291 0.8034 0.0
H632 H 0.33079 0.06415 0.79019 0.0
H633 H 0.37022 0.02462 0.81683 0.0
N634 N 0.322 1.00694 0.831 0.0
N635 N 0.30936 0.98246 0.85082 0.0
C636 C 0.3056 0.99549 0.83526 0.0
C637 C 0.33673 1.00121 0.8446 0.0
C638 C 0.32896 0.98583 0.85674 0.0
C639 C 0.29929 0.04716 0.82388 0.0
O640 O 0.31308 0.0442 0.8389 0.0
H641 H 0.29152 0.99562 0.82595 0.0
H642 H 0.35221 1.00678 0.84474 0.0
O643 O 0.32092 1.00519 0.78467 0.0
H644 H 0.39157 0.05653 0.80337 0.0
H645 H 0.33722 0.97717 0.86824 0.0
Cu646 Cu 0.04927 0.25831 0.79236 0.0
N647 N 0.03231 0.2784 0.79181 0.0
N648 N 1.00867 0.29747 0.77899 0.0
C649 C 0.01751 0.28096 0.77695 0.0
C650 C 0.01821 0.3056 0.79592 0.0
C651 C 0.03271 0.29372 0.8039 0.0
O652 O 0.03078 0.23481 0.78899 0.0
C653 C 0.07398 0.2822 0.76922 0.0
O654 O 0.06923 0.29469 0.78195 0.0
H655 H 0.01388 0.27129 0.76436 0.0
H656 H 0.04326 0.29643 0.81709 0.0
N657 N 0.06628 0.25661 0.81656 0.0
N658 N 0.09326 0.24957 0.83719 0.0
C659 C 0.0847 0.2505 0.81777 0.0
C660 C 0.06303 0.25979 0.83587 0.0
C661 C 0.07962 0.25539 0.84864 0.0
C662 C 0.02842 0.22157 0.80308 0.0
O663 O 0.04202 0.2208 0.81868 0.0
H664 H 0.09139 0.24618 0.80466 0.0
H665 H 0.04941 0.26452 0.84039 0.0
O666 O 0.06658 0.2644 0.77049 0.0
H667 H 0.0151 0.31926 0.80194 0.0
H668 H 0.08142 0.25634 0.86507 0.0
Cu669 Cu 0.79686 0.03391 0.73429 0.0
N670 N 0.79818 0.04734 0.75836 0.0
N671 N 0.81004 0.06935 0.7814 0.0
C672 C 0.81179 0.06246 0.76294 0.0
C673 C 0.79464 0.05811 0.78875 0.0
C674 C 0.78725 0.04458 0.7744 0.0
O675 O 0.79754 0.05526 0.71331 0.0
C676 C 0.81952 1.00632 0.75386 0.0
O677 O 0.80632 1.00789 0.76682 0.0
H678 H 0.82302 0.06803 0.75301 0.0
H679 H 0.77496 0.03342 0.77567 0.0
N680 N 0.77329 0.01752 0.73015 0.0
N681 N 0.75269 0.99218 0.7187 0.0
C682 C 0.7718 0.99974 0.72204 0.0
C683 C 0.75451 0.02133 0.73221 0.0
C684 C 0.74174 1.00572 0.72507 0.0
C685 C 0.784 0.05692 0.69859 0.0
O686 O 0.77175 0.0415 0.69366 0.0
H687 H 0.78445 0.9929 0.71782 0.0
H688 H 0.7504 0.03479 0.73782 0.0
O689 O 0.81871 0.01685 0.73728 0.0
H690 H 0.78902 0.05966 0.80333 0.0
H691 H 0.72565 1.00452 0.72442 0.0
Cu692 Cu 0.29527 0.76642 0.51127 0.0
N693 N 0.29782 0.7881 0.52795 0.0
N694 N 0.31012 0.80852 0.55254 0.0
C695 C 0.31255 0.79215 0.54288 0.0
C696 C 0.29336 0.81527 0.54311 0.0
C697 C 0.28579 0.80263 0.52798 0.0
O698 O 0.29008 0.74302 0.52899 0.0
C699 C 0.32301 0.75845 0.48222 0.0
O700 O 0.31329 0.74103 0.48001 0.0
H701 H 0.32506 0.78351 0.5464 0.0
H702 H 0.2724 0.80391 0.51781 0.0
N703 N 0.27253 0.76666 0.49243 0.0
N704 N 0.25152 0.75783 0.46524 0.0
C705 C 0.27073 0.7606 0.47311 0.0
C706 C 0.25377 0.76802 0.49684 0.0
C707 C 0.24081 0.76265 0.48014 0.0
C708 C 0.29978 0.73865 0.54592 0.0
O709 O 0.31759 0.74751 0.55046 0.0
H710 H 0.28309 0.75685 0.46547 0.0
H711 H 0.24971 0.77133 0.51167 0.0
O712 O 0.31872 0.76933 0.49594 0.0
H713 H 0.28681 0.82815 0.54716 0.0
H714 H 0.22473 0.76149 0.47943 0.0
Cu715 Cu 0.794 0.80024 0.50003 0.0
N716 N 0.81709 0.79936 0.48693 0.0
N717 N 0.83592 0.78703 0.46553 0.0
C718 C 0.8173 0.79025 0.46933 0.0
C719 C 0.8479 0.79462 0.48135 0.0
C720 C 0.83626 0.80201 0.49459 0.0
O721 O 0.77268 0.80452 0.47892 0.0
C722 C 0.77906 0.76989 0.52798 0.0
O723 O 0.76594 0.78174 0.53185 0.0
H724 H 0.80388 0.78445 0.46053 0.0
H725 H 0.84138 0.80725 0.50953 0.0
N726 N 0.7956 0.82002 0.51906 0.0
N727 N 0.78575 0.83824 0.54281 0.0
C728 C 0.78008 0.82512 0.52826 0.0
C729 C 0.81163 0.83072 0.52774 0.0
C730 C 0.80563 0.84188 0.54244 0.0
C731 C 0.77198 0.8219 0.47121 0.0
O732 O 0.78494 0.83591 0.47851 0.0
H733 H 0.76498 0.81869 0.52488 0.0
H734 H 0.82671 0.83025 0.52408 0.0
O735 O 0.79073 0.77484 0.51428 0.0
H736 H 0.86383 0.79389 0.48385 0.0
H737 H 0.81523 0.85164 0.5523 0.0
Cu738 Cu 0.81142 0.25406 0.51879 0.0
N739 N 0.80463 0.23147 0.50374 0.0
N740 N 0.78767 0.21315 0.47947 0.0
C741 C 0.79094 0.23105 0.48743 0.0
C742 C 0.79984 0.20179 0.4913 0.0
C743 C 0.81037 0.21317 0.50624 0.0
O744 O 0.81628 0.27535 0.49816 0.0
C745 C 0.7903 0.24002 0.54983 0.0
O746 O 0.8035 0.22733 0.54893 0.0
H747 H 0.7832 0.24364 0.48183 0.0
H748 H 0.82122 0.20839 0.51816 0.0
N749 N 0.83458 0.25441 0.5371 0.0
N750 N 0.85426 0.2638 0.56493 0.0
C751 C 0.836 0.26376 0.55474 0.0
C752 C 0.85272 0.24829 0.53597 0.0
C753 C 0.86495 0.25418 0.55314 0.0
C754 C 0.82858 0.27114 0.48588 0.0
O755 O 0.83638 0.25428 0.48882 0.0
H756 H 0.82395 0.27107 0.55966 0.0
H757 H 0.85691 0.24052 0.52343 0.0
O758 O 0.78996 0.25446 0.5367 0.0
H759 H 0.80116 0.18641 0.48925 0.0
H760 H 0.88047 0.25165 0.55661 0.0
Cu761 Cu 0.30508 0.30752 0.53853 0.0
N762 N 0.30897 0.32672 0.55803 0.0
N763 N 0.30159 0.34423 0.5835 0.0
C764 C 0.2948 0.33067 0.56973 0.0
C765 C 0.32085 0.34904 0.58035 0.0
C766 C 0.32534 0.33827 0.56451 0.0
O767 O 0.29803 0.28307 0.55333 0.0
C768 C 0.28592 0.33239 0.51057 0.0
O769 O 0.30101 0.34451 0.51749 0.0
H770 H 0.27995 0.3232 0.56856 0.0
H771 H 0.33958 0.33871 0.55838 0.0
N772 N 0.32793 0.30446 0.52576 0.0
N773 N 0.34587 0.29176 0.5038 0.0
C774 C 0.32778 0.29685 0.50731 0.0
C775 C 0.34683 0.30453 0.53418 0.0
C776 C 0.35795 0.29684 0.52064 0.0
C777 C 0.2997 0.26624 0.54674 0.0
O778 O 0.30347 0.26479 0.52775 0.0
H779 H 0.31422 0.29337 0.49757 0.0
H780 H 0.35186 0.30844 0.54965 0.0
O781 O 0.28445 0.31479 0.51784 0.0
H782 H 0.33094 0.35953 0.58887 0.0
H783 H 0.37349 0.29424 0.52354 0.0
Cu784 Cu 0.82671 0.52659 0.77506 0.0
N785 N 0.85021 0.54244 0.77198 0.0
N786 N 0.86942 0.56735 0.75901 0.0
C787 C 0.85096 0.56081 0.76367 0.0
C788 C 0.88081 0.55253 0.76466 0.0
C789 C 0.8689 0.53716 0.77277 0.0
O790 O 0.8049 0.54357 0.77318 0.0
C791 C 0.83403 0.49094 0.76035 0.0
O792 O 0.84467 0.49044 0.77808 0.0
H793 H 0.83788 0.56856 0.75942 0.0
H794 H 0.87326 0.52272 0.77754 0.0
N795 N 0.82612 0.51428 0.80096 0.0
N796 N 0.81228 0.49588 0.82558 0.0
C797 C 0.80919 0.50546 0.80738 0.0
C798 C 0.84057 0.51043 0.81577 0.0
C799 C 0.83204 0.49876 0.83096 0.0
C800 C 0.80582 0.55456 0.78837 0.0
O801 O 0.82123 0.55425 0.80211 0.0
H802 H 0.79498 0.50517 0.79824 0.0
H803 H 0.85623 0.51497 0.81511 0.0
O804 O 0.82444 0.50587 0.75516 0.0
H805 H 0.89633 0.55244 0.76213 0.0
H806 H 0.83977 0.49245 0.84454 0.0
Cu807 Cu 0.32191 0.53008 0.74785 0.0
N808 N 0.343 0.51427 0.74926 0.0
N809 N 0.36036 0.48913 0.76087 0.0
C810 C 0.34316 0.49752 0.76086 0.0
C811 C 0.37153 0.50116 0.7487 0.0
C812 C 0.36072 0.51666 0.74148 0.0
O813 O 0.29829 0.51136 0.74785 0.0
C814 C 0.34153 0.56066 0.76827 0.0
O815 O 0.35173 0.55983 0.75245 0.0
H816 H 0.33108 0.49201 0.76977 0.0
H817 H 0.36561 0.52896 0.73168 0.0
N818 N 0.31921 0.54672 0.72439 0.0
N819 N 0.3084 0.57204 0.705 0.0
C820 C 0.30855 0.56238 0.72337 0.0
C821 C 0.32624 0.54646 0.70601 0.0
C822 C 0.31941 0.56202 0.69391 0.0
C823 C 0.29403 0.50243 0.73124 0.0
O824 O 0.30457 0.50752 0.71584 0.0
H825 H 0.30075 0.56642 0.73586 0.0
H826 H 0.33549 0.53566 0.70166 0.0
O827 O 0.32695 0.54774 0.77051 0.0
H828 H 0.38645 0.499 0.74536 0.0
H829 H 0.32246 0.56578 0.6783 0.0
Cu830 Cu 0.32054 0.5108 0.28895 0.0
N831 N 0.32101 0.50064 0.31579 0.0
N832 N 0.31038 0.48149 0.34167 0.0
C833 C 0.30947 0.48457 0.32127 0.0
C834 C 0.32298 0.4963 0.34945 0.0
C835 C 0.32966 0.50807 0.33336 0.0
O836 O 0.31992 0.48845 0.2712 0.0
C837 C 0.30095 0.54276 0.29565 0.0
O838 O 0.31785 0.54596 0.30706 0.0
H839 H 0.29968 0.47593 0.31045 0.0
H840 H 0.33942 0.5215 0.33443 0.0
N841 N 0.3433 0.52724 0.28405 0.0
N842 N 0.36144 0.55153 0.2687 0.0
C843 C 0.34302 0.54312 0.2712 0.0
C844 C 0.36266 0.52539 0.28989 0.0
C845 C 0.37395 0.54039 0.28031 0.0
C846 C 0.33213 0.47576 0.27726 0.0
O847 O 0.34357 0.47849 0.29434 0.0
H848 H 0.32951 0.54793 0.26313 0.0
H849 H 0.36818 0.5137 0.29989 0.0
O850 O 0.29806 0.52725 0.28535 0.0
H851 H 0.32664 0.49871 0.36555 0.0
H852 H 0.39003 0.54276 0.28155 0.0
Cu853 Cu 0.8052 0.52701 0.23359 0.0
N854 N 0.82647 0.51125 0.23543 0.0
N855 N 0.84449 0.48693 0.2483 0.0
C856 C 0.82703 0.49497 0.2478 0.0
C857 C 0.85539 0.49865 0.23563 0.0
C858 C 0.84419 0.51361 0.22763 0.0
O859 O 0.78145 0.50833 0.23196 0.0
C860 C 0.82473 0.55639 0.25529 0.0
O861 O 0.8356 0.55503 0.24009 0.0
H862 H 0.81508 0.48963 0.25695 0.0
H863 H 0.84885 0.52563 0.21737 0.0
N864 N 0.80313 0.54482 0.21089 0.0
N865 N 0.79319 0.57148 0.19306 0.0
C866 C 0.79287 0.56072 0.21078 0.0
C867 C 0.81038 0.54555 0.19253 0.0
C868 C 0.80409 0.56193 0.1814 0.0
C869 C 0.77767 0.50032 0.21478 0.0
O870 O 0.78889 0.50603 0.20006 0.0
H871 H 0.78509 0.56419 0.22351 0.0
H872 H 0.81948 0.53492 0.18756 0.0
O873 O 0.80958 0.544 0.25686 0.0
H874 H 0.87042 0.49667 0.2325 0.0
H875 H 0.8075 0.56659 0.16609 0.0
Cu876 Cu 0.54262 0.25533 0.78673 0.0
N877 N 0.53285 0.25759 0.8122 0.0
N878 N 0.51362 0.26727 0.83481 0.0
C879 C 0.51909 0.26968 0.81566 0.0
C880 C 0.52412 0.25291 0.84383 0.0
C881 C 0.53606 0.247 0.82984 0.0
O882 O 0.5199 0.24942 0.76694 0.0
C883 C 0.5557 0.29684 0.78165 0.0
O884 O 0.53809 0.30088 0.78595 0.0
H885 H 0.51258 0.27958 0.80413 0.0
H886 H 0.54609 0.23557 0.83226 0.0
N887 N 0.55944 0.23523 0.78627 0.0
N888 N 0.58325 0.21906 0.77519 0.0
C889 C 0.57514 0.23633 0.77507 0.0
C890 C 0.55752 0.21659 0.79384 0.0
C891 C 0.57219 0.20658 0.78704 0.0
C892 C 0.50693 0.23607 0.77258 0.0
O893 O 0.50973 0.22754 0.79082 0.0
H894 H 0.57985 0.24934 0.76612 0.0
H895 H 0.54586 0.21051 0.80302 0.0
O896 O 0.55917 0.27909 0.78013 0.0
H897 H 0.52335 0.24726 0.85941 0.0
H898 H 0.57431 0.19123 0.79029 0.0
Cu899 Cu 0.53941 0.75661 0.76848 0.0
N900 N 0.55695 0.75342 0.7922 0.0
N901 N 0.58408 0.74465 0.81157 0.0
C902 C 0.57444 0.74546 0.79263 0.0
C903 C 0.57205 0.75227 0.82363 0.0
C904 C 0.55535 0.75773 0.81163 0.0
O905 O 0.55586 0.75922 0.74564 0.0
C906 C 0.51763 0.7204 0.77981 0.0
O907 O 0.53396 0.71647 0.79109 0.0
H908 H 0.57983 0.74009 0.77925 0.0
H909 H 0.54292 0.76431 0.8167 0.0
N910 N 0.52614 0.77946 0.76755 0.0
N911 N 0.50376 0.80049 0.75616 0.0
C912 C 0.50906 0.78202 0.75577 0.0
C913 C 0.53181 0.79688 0.77586 0.0
C914 C 0.51805 0.80991 0.7688 0.0
C915 C 0.5704 0.77241 0.74815 0.0
O916 O 0.57221 0.78269 0.76461 0.0
H917 H 0.50112 0.77073 0.74641 0.0
H918 H 0.54524 0.80005 0.78589 0.0
O919 O 0.51806 0.73537 0.76749 0.0
H920 H 0.57518 0.75402 0.8399 0.0
H921 H 0.51861 0.82516 0.77257 0.0
Cu922 Cu 0.51835 0.74277 0.26791 0.0
N923 N 0.50205 0.74085 0.28947 0.0
N924 N 0.47905 0.74877 0.30897 0.0
C925 C 0.4914 0.75515 0.29469 0.0
C926 C 0.48183 0.72963 0.31275 0.0
C927 C 0.49606 0.72479 0.3007 0.0
O928 O 0.50133 0.7347 0.24384 0.0
C929 C 0.53748 0.77818 0.28107 0.0
O930 O 0.53399 0.76988 0.29893 0.0
H931 H 0.4921 0.76975 0.28752 0.0
H932 H 0.50115 0.71042 0.29967 0.0
N933 N 0.53953 0.72694 0.27169 0.0
N934 N 0.56707 0.71423 0.2643 0.0
C935 C 0.55157 0.72444 0.25714 0.0
C936 C 0.54764 0.71805 0.28876 0.0
C937 C 0.56463 0.71016 0.28424 0.0
C938 C 0.49721 0.71637 0.24156 0.0
O939 O 0.50537 0.70388 0.25489 0.0
H940 H 0.54942 0.73081 0.24179 0.0
H941 H 0.54197 0.71785 0.30354 0.0
O942 O 0.53096 0.76927 0.26494 0.0
H943 H 0.47397 0.7198 0.32325 0.0
H944 H 0.57454 0.70228 0.2949 0.0
Cu945 Cu 0.53847 0.23128 0.27471 0.0
N946 N 0.52089 0.20885 0.27852 0.0
N947 N 0.49518 0.19083 0.29093 0.0
C948 C 0.50877 0.20642 0.29361 0.0
C949 C 0.49877 0.18315 0.27338 0.0
C950 C 0.51472 0.19427 0.26577 0.0
O951 O 0.52172 0.25329 0.27064 0.0
C952 C 0.56464 0.21824 0.30841 0.0
O953 O 0.55164 0.20277 0.30886 0.0
H954 H 0.50915 0.21664 0.30567 0.0
H955 H 0.52057 0.19255 0.25136 0.0
N956 N 0.55135 0.23103 0.25112 0.0
N957 N 0.57288 0.24377 0.22934 0.0
C958 C 0.55984 0.24753 0.24249 0.0
C959 C 0.55916 0.21616 0.24314 0.0
C960 C 0.57241 0.22399 0.22959 0.0
C961 C 0.50796 0.2509 0.25601 0.0
O962 O 0.50707 0.23504 0.24544 0.0
H963 H 0.55803 0.26202 0.24742 0.0
H964 H 0.55676 0.20089 0.24811 0.0
O965 O 0.56064 0.23292 0.29645 0.0
H966 H 0.49011 0.17081 0.26625 0.0
H967 H 0.58185 0.21581 0.22156 0.0
H968 H 0.25265 0.19196 0.20017 0.0
H969 H 0.2348 0.24512 0.09077 0.0
H970 H 0.19863 0.1806 0.16091 0.0
H971 H 0.29391 0.23515 0.11716 0.0
H972 H 0.22098 0.22383 0.11798 0.0
H973 H 0.26839 0.20911 0.17123 0.0
C974 C 0.2443 0.19277 0.18531 0.0
C975 C 0.22433 0.18515 0.18283 0.0
C976 C 0.23699 0.22624 0.11778 0.0
C977 C 0.24183 0.20509 0.15 0.0
C978 C 0.24486 0.23853 0.10237 0.0
C979 C 0.26552 0.24193 0.10172 0.0
C980 C 0.24986 0.21755 0.13294 0.0
C981 C 0.27789 0.2328 0.11703 0.0
C982 C 0.25318 0.20264 0.16888 0.0
C983 C 0.21401 0.18656 0.16337 0.0
N984 N 0.26989 0.22119 0.13212 0.0
N985 N 0.22273 0.19667 0.14778 0.0
H986 H 0.84922 0.25141 0.17403 0.0
H987 H 0.81153 0.26013 0.05549 0.0
H988 H 0.85138 0.20482 0.13314 0.0
H989 H 0.83119 0.31047 0.09149 0.0
H990 H 0.82027 0.2386 0.08513 0.0
H991 H 0.83639 0.27218 0.14518 0.0
C992 C 0.84676 0.24556 0.15894 0.0
C993 C 0.85142 0.22653 0.15579 0.0
C994 C 0.82263 0.25436 0.08652 0.0
C995 C 0.83672 0.24995 0.12291 0.0
C996 C 0.81762 0.26666 0.06966 0.0
C997 C 0.82075 0.28713 0.07102 0.0
C998 C 0.83056 0.26257 0.10496 0.0
C999 C 0.82869 0.29478 0.08974 0.0
C1000 C 0.83952 0.25736 0.14254 0.0
C1001 C 0.8478 0.2194 0.13611 0.0
N1002 N 0.83328 0.28248 0.10602 0.0
N1003 N 0.84071 0.23116 0.12034 0.0
H1004 H 0.89347 0.84646 0.13306 0.0
H1005 H 0.82353 0.76845 0.06524 0.0
H1006 H 0.83702 0.81949 0.1495 0.0
H1007 H 0.87375 0.80406 0.0434 0.0
H1008 H 0.83239 0.78149 0.09913 0.0
H1009 H 0.89046 0.82577 0.10326 0.0
C1010 C 0.88065 0.83586 0.13055 0.0
C1011 C 0.86539 0.83471 0.14352 0.0
C1012 C 0.84166 0.78621 0.08701 0.0
C1013 C 0.86166 0.81115 0.10955 0.0
C1014 C 0.83671 0.77863 0.06764 0.0
C1015 C 0.8478 0.78528 0.0513 0.0
C1016 C 0.85788 0.8005 0.09016 0.0
C1017 C 0.86466 0.79861 0.05545 0.0
C1018 C 0.87884 0.82416 0.11352 0.0
C1019 C 0.84897 0.82089 0.13965 0.0
N1020 N 0.86905 0.80591 0.07436 0.0
N1021 N 0.84745 0.80976 0.12295 0.0
H1022 H 0.20687 0.8723 0.13626 0.0
H1023 H 0.2762 0.80374 0.08801 0.0
H1024 H 0.22469 0.81818 0.1652 0.0
H1025 H 0.27194 0.8639 0.06679 0.0
H1026 H 0.25811 0.8095 0.11702 0.0
H1027 H 0.23181 0.87097 0.11177 0.0
C1028 C 0.21643 0.86043 0.13772 0.0
C1029 C 0.21373 0.84523 0.15254 0.0
C1030 C 0.26125 0.82155 0.10617 0.0
C1031 C 0.24178 0.84327 0.1245 0.0
C1032 C 0.27146 0.8182 0.08952 0.0
C1033 C 0.27539 0.83331 0.07489 0.0
C1034 C 0.25457 0.8401 0.10811 0.0
C1035 C 0.26922 0.85188 0.07777 0.0
C1036 C 0.23053 0.85956 0.1237 0.0
C1037 C 0.22625 0.83002 0.15377 0.0
N1038 N 0.25886 0.8547 0.09391 0.0
N1039 N 0.23952 0.82926 0.13976 0.0
H1040 H 0.23907 0.84654 0.853 0.0
H1041 H 0.23867 0.80524 0.96842 0.0
H1042 H 0.18777 0.84759 0.88627 0.0
H1043 H 0.29175 0.83037 0.94225 0.0
H1044 H 0.21881 0.81488 0.93677 0.0
H1045 H 0.25794 0.83481 0.88418 0.0
C1046 C 0.23194 0.84455 0.86701 0.0
C1047 C 0.21215 0.84852 0.86739 0.0
C1048 C 0.23482 0.81821 0.93805 0.0
C1049 C 0.23316 0.83438 0.90277 0.0
C1050 C 0.24613 0.81265 0.956 0.0
C1051 C 0.26684 0.81714 0.95795 0.0
C1052 C 0.24441 0.82789 0.92192 0.0
C1053 C 0.27579 0.82679 0.94145 0.0
C1054 C 0.24257 0.83767 0.8847 0.0
C1055 C 0.20312 0.84479 0.88559 0.0
N1056 N 0.26455 0.83177 0.92411 0.0
N1057 N 0.2137 0.8379 0.90266 0.0
H1058 H 0.25748 0.20811 0.89225 0.0
H1059 H 0.25025 0.22493 1.00993 0.0
H1060 H 0.21361 0.17527 0.92633 0.0
H1061 H 0.30563 0.23512 0.98252 0.0
H1062 H 0.23453 0.21025 0.97855 0.0
H1063 H 0.2728 0.22304 0.92393 0.0
C1064 C 0.2507 0.20466 0.90636 0.0
C1065 C 0.23399 0.19095 0.90674 0.0
C1066 C 0.25017 0.21546 0.97946 0.0
C1067 C 0.25162 0.20733 0.94297 0.0
C1068 C 0.25919 0.22371 0.99739 0.0
C1069 C 0.27933 0.23095 0.99889 0.0
C1070 C 0.26122 0.21494 0.96263 0.0
C1071 C 0.29016 0.22934 0.9821 0.0
C1072 C 0.25961 0.21284 0.92442 0.0
C1073 C 0.22611 0.18625 0.92542 0.0
N1074 N 0.2809 0.22172 0.96453 0.0
N1075 N 0.23496 0.19445 0.94281 0.0
H1076 H 0.84552 0.22469 0.87128 0.0
H1077 H 0.87361 0.27284 0.97987 0.0
H1078 H 0.90031 0.21755 0.9087 0.0
H1079 H 0.81651 0.27598 0.94514 0.0
H1080 H 0.884 0.25354 0.95343 0.0
H1081 H 0.83486 0.24438 0.89759 0.0
C1082 C 0.85524 0.22729 0.88511 0.0
C1083 C 0.87375 0.21954 0.88797 0.0
C1084 C 0.86919 0.25842 0.95158 0.0
C1085 C 0.86187 0.24207 0.918 0.0
C1086 C 0.86327 0.26956 0.96664 0.0
C1087 C 0.84415 0.27613 0.96474 0.0
C1088 C 0.85595 0.25382 0.93436 0.0
C1089 C 0.8313 0.27109 0.94737 0.0
C1090 C 0.84923 0.23853 0.90008 0.0
C1091 C 0.886 0.22346 0.90595 0.0
N1092 N 0.83745 0.2603 0.93283 0.0
N1093 N 0.87985 0.23444 0.92031 0.0
H1094 H 0.897 0.87939 0.87716 0.0
H1095 H 0.82661 0.79522 0.93067 0.0
H1096 H 0.86615 0.83088 0.84483 0.0
H1097 H 0.85007 0.8493 0.95844 0.0
H1098 H 0.84467 0.80519 0.90083 0.0
H1099 H 0.88452 0.86531 0.90892 0.0
C1100 C 0.88804 0.86542 0.87698 0.0
C1101 C 0.88263 0.85619 0.85851 0.0
C1102 C 0.84593 0.81483 0.9135 0.0
C1103 C 0.86775 0.84019 0.89457 0.0
C1104 C 0.83566 0.80912 0.93059 0.0
C1105 C 0.8367 0.82148 0.94713 0.0
C1106 C 0.8575 0.83297 0.91294 0.0
C1107 C 0.84855 0.83942 0.946 0.0
C1108 C 0.88071 0.85749 0.895 0.0
C1109 C 0.87078 0.83826 0.85887 0.0
N1110 N 0.85844 0.84459 0.92926 0.0
N1111 N 0.86352 0.83093 0.87658 0.0
H1112 H 0.19004 0.21275 0.24171 0.0
H1113 H 0.09117 0.1751 0.29486 0.0
H1114 H 0.16147 0.15417 0.2357 0.0
H1115 H 0.11003 0.23634 0.28393 0.0
H1116 H 0.11895 0.16639 0.27696 0.0
H1117 H 0.16292 0.221 0.26081 0.0
C1118 C 0.178 0.20166 0.24442 0.0
C1119 C 0.17789 0.18282 0.23703 0.0
C1120 C 0.11699 0.18173 0.27849 0.0
C1121 C 0.14696 0.19197 0.25917 0.0
C1122 C 0.10121 0.1867 0.2888 0.0
C1123 C 0.09819 0.20648 0.29084 0.0
C1124 C 0.13007 0.19663 0.27039 0.0
C1125 C 0.1116 0.22092 0.2825 0.0
C1126 C 0.16256 0.20633 0.25535 0.0
C1127 C 0.16214 0.16882 0.24127 0.0
N1128 N 0.12696 0.21572 0.27275 0.0
N1129 N 0.14732 0.17366 0.25207 0.0
H1130 H 0.87629 0.15673 0.17869 0.0
H1131 H 0.83795 0.09244 0.27225 0.0
H1132 H 0.8647 0.18337 0.23343 0.0
H1133 H 0.87637 0.07035 0.23226 0.0
H1134 H 0.84524 0.12562 0.25728 0.0
H1135 H 0.87413 0.12437 0.19679 0.0
C1136 C 0.87342 0.15563 0.1946 0.0
C1137 C 0.87065 0.17246 0.20473 0.0
C1138 C 0.85226 0.11354 0.25197 0.0
C1139 C 0.86782 0.13584 0.22535 0.0
C1140 C 0.84805 0.09466 0.26044 0.0
C1141 C 0.85659 0.07871 0.25346 0.0
C1142 C 0.86471 0.11639 0.23608 0.0
C1143 C 0.86963 0.0823 0.23817 0.0
C1144 C 0.87226 0.1373 0.20492 0.0
C1145 C 0.86696 0.17057 0.22528 0.0
N1146 N 0.87308 0.10073 0.22977 0.0
N1147 N 0.86538 0.1525 0.23492 0.0
H1148 H 0.87915 0.81323 0.18271 0.0
H1149 H 0.98707 0.82537 0.24273 0.0
H1150 H 0.91819 0.86645 0.17976 0.0
H1151 H 0.95784 0.76841 0.22831 0.0
H1152 H 0.96099 0.8407 0.22093 0.0
H1153 H 0.90708 0.79604 0.19949 0.0
C1154 C 0.89374 0.82113 0.18519 0.0
C1155 C 0.89644 0.84126 0.18007 0.0
C1156 C 0.9603 0.82483 0.22243 0.0
C1157 C 0.92816 0.82204 0.1997 0.0
C1158 C 0.9751 0.8161 0.23504 0.0
C1159 C 0.9746 0.79559 0.2374 0.0
C1160 C 0.94464 0.81302 0.21232 0.0
C1161 C 0.95885 0.78427 0.2268 0.0
C1162 C 0.90961 0.81141 0.19489 0.0
C1163 C 0.91553 0.85097 0.18378 0.0
N1164 N 0.9444 0.79312 0.21487 0.0
N1165 N 0.93057 0.84138 0.19363 0.0
H1166 H 0.22844 0.86226 0.1948 0.0
H1167 H 0.21146 0.97082 0.22381 0.0
H1168 H 0.179 0.89342 0.16934 0.0
H1169 H 0.26592 0.94425 0.24234 0.0
H1170 H 0.19996 0.94277 0.203 0.0
H1171 H 0.2438 0.89254 0.21063 0.0
C1172 C 0.22115 0.87567 0.19213 0.0
C1173 C 0.20248 0.8755 0.1809 0.0
C1174 C 0.21449 0.94308 0.21153 0.0
C1175 C 0.21946 0.90987 0.19926 0.0
C1176 C 0.22097 0.95904 0.22359 0.0
C1177 C 0.23963 0.95987 0.23498 0.0
C1178 C 0.22662 0.92763 0.21093 0.0
C1179 C 0.25148 0.94429 0.23374 0.0
C1180 C 0.22975 0.89287 0.2013 0.0
C1181 C 0.19338 0.89307 0.17803 0.0
N1182 N 0.24472 0.92875 0.22207 0.0
N1183 N 0.20181 0.90947 0.18736 0.0
H1184 H 0.17221 0.83621 0.79228 0.0
H1185 H 0.05488 0.8395 0.78179 0.0
H1186 H 0.14261 0.87529 0.82539 0.0
H1187 H 0.08571 0.8051 0.7442 0.0
H1188 H 0.08677 0.85663 0.79405 0.0
H1189 H 0.14092 0.82792 0.77114 0.0
C1190 C 0.15903 0.84315 0.79482 0.0
C1191 C 0.15965 0.85622 0.8105 0.0
C1192 C 0.08652 0.84558 0.78283 0.0
C1193 C 0.12392 0.84687 0.78679 0.0
C1194 C 0.06828 0.83584 0.77574 0.0
C1195 C 0.06763 0.82053 0.76227 0.0
C1196 C 0.10422 0.83986 0.77652 0.0
C1197 C 0.08549 0.81658 0.75485 0.0
C1198 C 0.14123 0.83851 0.78283 0.0
C1199 C 0.14244 0.86504 0.8134 0.0
N1200 N 0.10306 0.82592 0.76235 0.0
N1201 N 0.12514 0.86002 0.80181 0.0
H1202 H 0.22987 0.11858 0.88619 0.0
H1203 H 0.28191 0.07413 0.79691 0.0
H1204 H 0.24145 0.15153 0.83058 0.0
H1205 H 0.28225 0.05009 0.85871 0.0
H1206 H 0.26082 0.0993 0.80568 0.0
H1207 H 0.24262 0.09 0.87299 0.0
C1208 C 0.235 0.11964 0.8711 0.0
C1209 C 0.23494 0.13736 0.85953 0.0
C1210 C 0.26529 0.08829 0.81718 0.0
C1211 C 0.24957 0.10486 0.84423 0.0
C1212 C 0.27715 0.07389 0.81214 0.0
C1213 C 0.28386 0.06015 0.82717 0.0
C1214 C 0.25999 0.08866 0.83727 0.0
C1215 C 0.27752 0.06055 0.84673 0.0
C1216 C 0.24225 0.10339 0.86353 0.0
C1217 C 0.24139 0.13805 0.83991 0.0
N1218 N 0.26604 0.07458 0.85122 0.0
N1219 N 0.24868 0.12206 0.83291 0.0
H1220 H 0.92742 0.17247 0.8625 0.0
H1221 H 0.99364 0.22649 0.77891 0.0
H1222 H 0.90512 0.21151 0.81429 0.0
H1223 H 0.01733 0.19308 0.83158 0.0
H1224 H 0.95998 0.21477 0.78689 0.0
H1225 H 0.95895 0.17352 0.8468 0.0
C1226 C 0.92908 0.18078 0.84824 0.0
C1227 C 0.91388 0.19185 0.83952 0.0
C1228 C 0.97255 0.20972 0.7965 0.0
C1229 C 0.94978 0.19361 0.82173 0.0
C1230 C 0.99182 0.21632 0.79188 0.0
C1231 C 1.00841 0.21102 0.80478 0.0
C1232 C 0.9698 0.19773 0.81415 0.0
C1233 C 1.00503 0.19777 0.82135 0.0
C1234 C 0.94705 0.18154 0.83936 0.0
C1235 C 0.91661 0.20271 0.82127 0.0
N1236 N 0.98613 0.19182 0.82571 0.0
N1237 N 0.93433 0.20352 0.81307 0.0
H1238 H 0.8644 0.89332 0.77573 0.0
H1239 H 0.84355 1.0042 0.78881 0.0
H1240 H 0.88798 0.92701 0.82742 0.0
H1241 H 0.82819 0.97559 0.732 0.0
H1242 H 0.86236 0.97682 0.80177 0.0
H1243 H 0.85312 0.92345 0.75806 0.0
C1244 C 0.8674 0.90714 0.7832 0.0
C1245 C 0.87691 0.90775 0.80309 0.0
C1246 C 0.85524 0.97658 0.78631 0.0
C1247 C 0.86402 0.94213 0.7832 0.0
C1248 C 0.84462 0.9923 0.77887 0.0
C1249 C 0.83454 0.99221 0.75926 0.0
C1250 C 0.8554 0.96028 0.77426 0.0
C1251 C 0.83607 0.97632 0.7471 0.0
C1252 C 0.86096 0.9243 0.77317 0.0
C1253 C 0.88041 0.92594 0.81221 0.0
N1254 N 0.84604 0.96079 0.75492 0.0
N1255 N 0.87383 0.94233 0.8023 0.0
H1256 H 0.21271 0.13498 0.18593 0.0
H1257 H 0.29682 0.07524 0.24821 0.0
H1258 H 0.25252 0.15838 0.23545 0.0
H1259 H 0.25456 0.05084 0.20076 0.0
H1260 H 0.28497 0.10758 0.23963 0.0
H1261 H 0.23186 0.10614 0.18686 0.0
C1262 C 0.22585 0.13419 0.19662 0.0
C1263 C 0.23114 0.1489 0.21063 0.0
C1264 C 0.27851 0.09522 0.23087 0.0
C1265 C 0.25288 0.11594 0.21223 0.0
C1266 C 0.28538 0.07672 0.23567 0.0
C1267 C 0.27659 0.06016 0.22532 0.0
C1268 C 0.2627 0.09725 0.21559 0.0
C1269 C 0.26171 0.06309 0.20929 0.0
C1270 C 0.23669 0.11772 0.19731 0.0
C1271 C 0.24809 0.14725 0.22441 0.0
N1272 N 0.2551 0.08116 0.2051 0.0
N1273 N 0.25823 0.13096 0.22505 0.0
H1274 H 0.20249 0.90551 0.8616 0.0
H1275 H 0.31701 0.94437 0.85482 0.0
H1276 H 0.24311 0.8749 0.83173 0.0
H1277 H 0.27094 0.98297 0.85759 0.0
H1278 H 0.29193 0.91604 0.85637 0.0
H1279 H 0.22934 0.9317 0.86947 0.0
C1280 C 0.21723 0.90423 0.85711 0.0
C1281 C 0.22092 0.88805 0.84645 0.0
C1282 C 0.2874 0.93071 0.85704 0.0
C1283 C 0.25144 0.91752 0.85527 0.0
C1284 C 0.3017 0.94679 0.85638 0.0
C1285 C 0.29591 0.96591 0.85606 0.0
C1286 C 0.2673 0.93386 0.85766 0.0
C1287 C 0.27586 0.96839 0.85775 0.0
C1288 C 0.23245 0.91906 0.86153 0.0
C1289 C 0.24002 0.88696 0.84052 0.0
N1290 N 0.26222 0.95255 0.85837 0.0
N1291 N 0.25463 0.90151 0.84504 0.0
H1292 H 0.18661 0.18562 0.90006 0.0
H1293 H 0.12578 0.25083 0.816 0.0
H1294 H 0.20887 0.20801 0.84373 0.0
H1295 H 0.10475 0.23252 0.87428 0.0
H1296 H 0.1573 0.23727 0.82707 0.0
H1297 H 0.15801 0.20521 0.89268 0.0
C1298 C 0.18575 0.19517 0.88646 0.0
C1299 C 0.20012 0.1954 0.87255 0.0
C1300 C 0.14586 0.23631 0.83753 0.0
C1301 C 0.1672 0.2173 0.86356 0.0
C1302 C 0.12776 0.24396 0.83114 0.0
C1303 C 0.11243 0.24269 0.84412 0.0
C1304 C 0.14873 0.22713 0.85705 0.0
C1305 C 0.11611 0.23394 0.86376 0.0
C1306 C 0.16932 0.20616 0.88209 0.0
C1307 C 0.19807 0.20755 0.85482 0.0
N1308 N 0.13378 0.22635 0.86954 0.0
N1309 N 0.18184 0.21784 0.85072 0.0
H1310 H 0.87787 0.14563 0.86817 0.0
H1311 H 0.82801 0.10163 0.76292 0.0
H1312 H 0.87146 0.18035 0.81205 0.0
H1313 H 0.8201 0.07342 0.82197 0.0
H1314 H 0.84882 0.12851 0.7796 0.0
H1315 H 0.86226 0.11667 0.85026 0.0
C1316 C 0.87346 0.14694 0.85194 0.0
C1317 C 0.87565 0.16522 0.84148 0.0
C1318 C 0.84258 0.11641 0.7889 0.0
C1319 C 0.85777 0.13251 0.82095 0.0
C1320 C 0.83077 0.10103 0.77939 0.0
C1321 C 0.82226 0.08528 0.79109 0.0
C1322 C 0.84611 0.11597 0.81026 0.0
C1323 C 0.82615 0.08538 0.8124 0.0
C1324 C 0.86445 0.13055 0.84177 0.0
C1325 C 0.86989 0.1664 0.82051 0.0
N1326 N 0.83782 0.10046 0.8213 0.0
N1327 N 0.86103 0.15027 0.8109 0.0
H1328 H 0.92658 0.85465 0.85177 0.0
H1329 H 0.96382 0.77791 0.77933 0.0
H1330 H 0.89283 0.83363 0.79723 0.0
H1331 H 0.99858 0.79894 0.83356 0.0
H1332 H 0.93632 0.79562 0.78768 0.0
H1333 H 0.95138 0.83141 0.84793 0.0
C1334 C 0.92419 0.84475 0.8393 0.0
C1335 C 0.90774 0.84599 0.82477 0.0
C1336 C 0.9499 0.79627 0.79786 0.0
C1337 C 0.93611 0.81974 0.81993 0.0
C1338 C 0.9657 0.78621 0.79302 0.0
C1339 C 0.98372 0.787 0.80561 0.0
C1340 C 0.95203 0.80739 0.81542 0.0
C1341 C 0.98502 0.79776 0.8234 0.0
C1342 C 0.9384 0.83164 0.83696 0.0
C1343 C 0.9054 0.8331 0.80868 0.0
N1344 N 0.9695 0.80763 0.82767 0.0
N1345 N 0.91949 0.82068 0.80657 0.0
H1346 H 0.8566 0.91131 0.16138 0.0
H1347 H 0.81083 0.94277 0.25987 0.0
H1348 H 0.83374 0.87032 0.20685 0.0
H1349 H 0.82145 0.98372 0.20941 0.0
H1350 H 0.81674 0.9159 0.23912 0.0
H1351 H 0.84193 0.93788 0.17685 0.0
C1352 C 0.84813 0.90795 0.17441 0.0
C1353 C 0.84625 0.88877 0.18295 0.0
C1354 C 0.81749 0.93067 0.23235 0.0
C1355 C 0.82977 0.91883 0.20088 0.0
C1356 C 0.81404 0.94602 0.2442 0.0
C1357 C 0.8156 0.96545 0.2363 0.0
C1358 C 0.82307 0.93472 0.21249 0.0
C1359 C 0.81992 0.96889 0.21596 0.0
C1360 C 0.83981 0.92303 0.18325 0.0
C1361 C 0.83538 0.88498 0.1999 0.0
N1362 N 0.82386 0.95368 0.20483 0.0
N1363 N 0.82773 0.89989 0.20844 0.0
H1364 H 0.13027 0.84299 0.1685 0.0
H1365 H 0.08177 0.74569 0.22408 0.0
H1366 H 0.16389 0.79465 0.19023 0.0
H1367 H 0.05512 0.8005 0.21525 0.0
H1368 H 0.10916 0.75989 0.20439 0.0
H1369 H 0.09988 0.82412 0.17827 0.0
C1370 C 0.13112 0.82828 0.1752 0.0
C1371 C 0.14948 0.82038 0.17888 0.0
C1372 C 0.09708 0.76863 0.20644 0.0
C1373 C 0.11494 0.79866 0.19011 0.0
C1374 C 0.0814 0.76048 0.21747 0.0
C1375 C 0.06629 0.77202 0.22127 0.0
C1376 C 0.09737 0.78831 0.19907 0.0
C1377 C 0.06659 0.79119 0.2127 0.0
C1378 C 0.11384 0.81749 0.18074 0.0
C1379 C 0.14991 0.80117 0.18726 0.0
N1380 N 0.08192 0.79876 0.20213 0.0
N1381 N 0.13289 0.79098 0.19284 0.0
H1382 H 0.91257 0.18196 0.20085 0.0
H1383 H 0.987 0.25551 0.26755 0.0
H1384 H 0.89441 0.23356 0.22566 0.0
H1385 H 0.99622 0.19415 0.26595 0.0
H1386 H 0.95471 0.24902 0.24782 0.0
H1387 H 0.9447 0.18671 0.22167 0.0
C1388 C 0.91526 0.19403 0.21103 0.0
C1389 C 0.90101 0.20743 0.21165 0.0
C1390 C 0.96385 0.23701 0.25175 0.0
C1391 C 0.93764 0.21338 0.23472 0.0
C1392 C 0.98235 0.24074 0.26279 0.0
C1393 C 0.99426 0.22533 0.26836 0.0
C1394 C 0.95737 0.21781 0.24601 0.0
C1395 C 0.98743 0.20642 0.26199 0.0
C1396 C 0.93358 0.19686 0.22271 0.0
C1397 C 0.90521 0.22307 0.22473 0.0
N1398 N 0.96942 0.20318 0.25109 0.0
N1399 N 0.92326 0.22579 0.23557 0.0
H1400 H 0.20604 0.68956 0.61872 0.0
H1401 H 0.31358 0.73096 0.58592 0.0
H1402 H 0.25707 0.70274 0.66167 0.0
H1403 H 0.26158 0.72073 0.5431 0.0
H1404 H 0.29419 0.71707 0.61344 0.0
H1405 H 0.22692 0.69779 0.59056 0.0
C1406 C 0.22167 0.69423 0.62215 0.0
C1407 C 0.22984 0.69576 0.64246 0.0
C1408 C 0.28707 0.71766 0.59799 0.0
C1409 C 0.25395 0.70496 0.61043 0.0
C1410 C 0.29819 0.72551 0.5822 0.0
C1411 C 0.28923 0.72717 0.56209 0.0
C1412 C 0.26678 0.71142 0.59373 0.0
C1413 C 0.26916 0.71985 0.55833 0.0
C1414 C 0.23362 0.69881 0.60613 0.0
C1415 C 0.25026 0.7014 0.64618 0.0
N1416 N 0.25861 0.71248 0.57399 0.0
N1417 N 0.26159 0.70592 0.63035 0.0
H1418 H 0.84558 0.68223 0.59412 0.0
H1419 H 0.76771 0.76251 0.56659 0.0
H1420 H 0.82723 0.71983 0.63758 0.0
H1421 H 0.80126 0.73969 0.52228 0.0
H1422 H 0.78176 0.73953 0.59249 0.0
H1423 H 0.82213 0.69625 0.56754 0.0
C1424 C 0.83626 0.69318 0.59802 0.0
C1425 C 0.83817 0.70008 0.61778 0.0
C1426 C 0.78575 0.73933 0.577 0.0
C1427 C 0.81158 0.71604 0.58794 0.0
C1428 C 0.77763 0.75234 0.56217 0.0
C1429 C 0.7836 0.75325 0.54233 0.0
C1430 C 0.79978 0.72706 0.5719 0.0
C1431 C 0.7965 0.73969 0.53748 0.0
C1432 C 0.82299 0.70119 0.58298 0.0
C1433 C 0.82603 0.71432 0.62237 0.0
N1434 N 0.80436 0.72731 0.55223 0.0
N1435 N 0.81328 0.72194 0.60751 0.0
H1436 H 0.91134 0.34468 0.65379 0.0
H1437 H 0.83229 0.26691 0.59642 0.0
H1438 H 0.85524 0.32312 0.67555 0.0
H1439 H 0.89071 0.28234 0.57674 0.0
H1440 H 0.84178 0.28573 0.62684 0.0
H1441 H 0.90589 0.32018 0.62719 0.0
C1442 C 0.89808 0.33448 0.65316 0.0
C1443 C 0.8836 0.33595 0.66663 0.0
C1444 C 0.85265 0.28493 0.61602 0.0
C1445 C 0.87704 0.30822 0.63627 0.0
C1446 C 0.84718 0.27423 0.59857 0.0
C1447 C 0.86065 0.27322 0.5839 0.0
C1448 C 0.87173 0.29499 0.61885 0.0
C1449 C 0.87989 0.28272 0.58768 0.0
C1450 C 0.89489 0.32062 0.63795 0.0
C1451 C 0.86659 0.32257 0.66522 0.0
N1452 N 0.88478 0.29342 0.60466 0.0
N1453 N 0.86369 0.30943 0.6502 0.0
H1454 H 0.20639 0.36618 0.65317 0.0
H1455 H 0.31583 0.35531 0.62166 0.0
H1456 H 0.25743 0.36316 0.69714 0.0
H1457 H 0.26218 0.34861 0.58068 0.0
H1458 H 0.29606 0.3639 0.6486 0.0
H1459 H 0.22797 0.36586 0.62555 0.0
C1460 C 0.22226 0.36569 0.65689 0.0
C1461 C 0.23023 0.36442 0.67728 0.0
C1462 C 0.28866 0.3607 0.63365 0.0
C1463 C 0.25504 0.36389 0.64596 0.0
C1464 C 0.29995 0.3559 0.61825 0.0
C1465 C 0.29059 0.35103 0.59897 0.0
C1466 C 0.26792 0.3608 0.62964 0.0
C1467 C 0.26994 0.35191 0.59542 0.0
C1468 C 0.23457 0.36546 0.6412 0.0
C1469 C 0.25086 0.36408 0.68151 0.0
N1470 N 0.25932 0.3566 0.6106 0.0
N1471 N 0.26259 0.36357 0.66595 0.0
H1472 H 0.21125 0.40259 0.42735 0.0
H1473 H 0.25803 0.31027 0.48631 0.0
H1474 H 0.20395 0.34463 0.40383 0.0
H1475 H 0.28058 0.37019 0.49772 0.0
H1476 H 0.23487 0.32227 0.45856 0.0
H1477 H 0.23412 0.3908 0.45569 0.0
C1478 C 0.21455 0.3874 0.42821 0.0
C1479 C 0.20566 0.37447 0.41352 0.0
C1480 C 0.2449 0.33277 0.46717 0.0
C1481 C 0.23136 0.3608 0.44574 0.0
C1482 C 0.25803 0.32593 0.48305 0.0
C1483 C 0.27128 0.33925 0.49428 0.0
C1484 C 0.24486 0.35305 0.46268 0.0
C1485 C 0.2707 0.3594 0.48937 0.0
C1486 C 0.22748 0.38065 0.44433 0.0
C1487 C 0.21024 0.35489 0.41519 0.0
N1488 N 0.25767 0.36569 0.47397 0.0
N1489 N 0.22268 0.34859 0.43109 0.0
H1490 H 0.19025 0.67696 0.37877 0.0
H1491 H 0.27022 0.75781 0.43062 0.0
H1492 H 0.24294 0.70103 0.35165 0.0
H1493 H 0.21618 0.73582 0.45686 0.0
H1494 H 0.2592 0.73899 0.4004 0.0
H1495 H 0.19782 0.70044 0.40605 0.0
C1496 C 0.20322 0.68746 0.37843 0.0
C1497 C 0.21608 0.68705 0.36311 0.0
C1498 C 0.24966 0.7384 0.41269 0.0
C1499 C 0.2251 0.71369 0.39432 0.0
C1500 C 0.25599 0.74911 0.43002 0.0
C1501 C 0.24422 0.74835 0.44647 0.0
C1502 C 0.23142 0.72667 0.41174 0.0
C1503 C 0.22574 0.73702 0.44459 0.0
C1504 C 0.20765 0.70075 0.39404 0.0
C1505 C 0.23284 0.70077 0.36339 0.0
N1506 N 0.22002 0.72651 0.42767 0.0
N1507 N 0.23696 0.7134 0.37883 0.0
H1508 H 0.83631 0.71952 0.35805 0.0
H1509 H 0.86805 0.76578 0.46717 0.0
H1510 H 0.88638 0.70329 0.39852 0.0
H1511 H 0.81582 0.78009 0.42841 0.0
H1512 H 0.87561 0.74383 0.44166 0.0
H1513 H 0.82868 0.74227 0.38328 0.0
C1514 C 0.84555 0.72072 0.37239 0.0
C1515 C 0.86185 0.70958 0.37646 0.0
C1516 C 0.86251 0.7518 0.43868 0.0
C1517 C 0.85357 0.73556 0.40517 0.0
C1518 C 0.85826 0.76452 0.45321 0.0
C1519 C 0.84123 0.77488 0.45 0.0
C1520 C 0.84969 0.74937 0.42071 0.0
C1521 C 0.82897 0.77227 0.43167 0.0
C1522 C 0.8413 0.7337 0.38672 0.0
C1523 C 0.87363 0.71166 0.39504 0.0
N1524 N 0.83342 0.75978 0.41775 0.0
N1525 N 0.86929 0.72443 0.40872 0.0
H1526 H 0.86928 0.31242 0.36938 0.0
H1527 H 0.83088 0.3118 0.48092 0.0
H1528 H 0.87803 0.36325 0.40609 0.0
H1529 H 0.83957 0.25952 0.45045 0.0
H1530 H 0.84425 0.33176 0.4522 0.0
H1531 H 0.85544 0.29322 0.39796 0.0
C1532 C 0.86853 0.31944 0.38359 0.0
C1533 C 0.87478 0.33941 0.3854 0.0
C1534 C 0.84311 0.3159 0.45184 0.0
C1535 C 0.85838 0.31778 0.41802 0.0
C1536 C 0.83532 0.30455 0.46811 0.0
C1537 C 0.83418 0.28399 0.46812 0.0
C1538 C 0.84948 0.30655 0.43541 0.0
C1539 C 0.84032 0.27533 0.4512 0.0
C1540 C 0.86044 0.30857 0.39984 0.0
C1541 C 0.87309 0.34794 0.40402 0.0
N1542 N 0.84765 0.2866 0.43562 0.0
N1543 N 0.86494 0.33714 0.41957 0.0
H1544 H 0.16131 0.67091 0.689 0.0
H1545 H 0.10631 0.75673 0.73136 0.0
H1546 H 0.18738 0.73062 0.69167 0.0
H1547 H 0.09086 0.69534 0.74552 0.0
H1548 H 0.13388 0.7479 0.71332 0.0
H1549 H 0.13319 0.67992 0.70626 0.0
C1550 C 0.16098 0.68595 0.69314 0.0
C1551 C 0.17654 0.70009 0.68879 0.0
C1552 C 0.12447 0.73636 0.72039 0.0
C1553 C 0.14446 0.71061 0.70844 0.0
C1554 C 0.10865 0.74139 0.7306 0.0
C1555 C 0.09622 0.72676 0.74001 0.0
C1556 C 0.12778 0.71652 0.71926 0.0
C1557 C 0.10015 0.70711 0.7387 0.0
C1558 C 0.145 0.6911 0.703 0.0
C1559 C 0.17548 0.7194 0.69446 0.0
N1560 N 0.11548 0.70257 0.72844 0.0
N1561 N 0.1597 0.72412 0.70392 0.0
H1562 H 0.8699 0.68167 0.69762 0.0
H1563 H 0.89262 0.57078 0.72761 0.0
H1564 H 0.87988 0.64065 0.65332 0.0
H1565 H 0.85694 0.60323 0.76192 0.0
H1566 H 0.89659 0.59923 0.70361 0.0
H1567 H 0.87351 0.65575 0.72472 0.0
C1568 C 0.87317 0.66722 0.69377 0.0
C1569 C 0.87453 0.66305 0.67343 0.0
C1570 C 0.88814 0.60018 0.71657 0.0
C1571 C 0.87876 0.6336 0.70396 0.0
C1572 C 0.88603 0.58406 0.73033 0.0
C1573 C 0.87438 0.58473 0.74667 0.0
C1574 C 0.87881 0.61714 0.71942 0.0
C1575 C 0.8659 0.60217 0.74939 0.0
C1576 C 0.87514 0.65249 0.7091 0.0
C1577 C 0.87865 0.64421 0.66892 0.0
N1578 N 0.86823 0.6177 0.73587 0.0
N1579 N 0.88061 0.6301 0.68409 0.0
H1580 H 0.89831 0.31886 0.70744 0.0
H1581 H 1.00489 0.33577 0.76846 0.0
H1582 H 0.93824 0.37051 0.69789 0.0
H1583 H 0.97764 0.27731 0.7576 0.0
H1584 H 0.97905 0.34902 0.74447 0.0
H1585 H 0.92597 0.30289 0.72653 0.0
C1586 C 0.91304 0.3266 0.70893 0.0
C1587 C 0.91608 0.34602 0.70127 0.0
C1588 C 0.97875 0.33327 0.74725 0.0
C1589 C 0.94744 0.3283 0.72356 0.0
C1590 C 0.99338 0.32574 0.76109 0.0
C1591 C 0.99336 0.30543 0.76507 0.0
C1592 C 0.96371 0.32046 0.73755 0.0
C1593 C 0.97823 0.29306 0.75486 0.0
C1594 C 0.92875 0.3176 0.71995 0.0
C1595 C 0.93533 0.3556 0.70383 0.0
N1596 N 0.96388 0.30076 0.74172 0.0
N1597 N 0.95019 0.3468 0.71504 0.0
H1598 H 0.21944 0.40342 0.68163 0.0
H1599 H 0.28222 0.47574 0.76145 0.0
H1600 H 0.23898 0.38484 0.74314 0.0
H1601 H 0.27359 0.48884 0.69662 0.0
H1602 H 0.26265 0.44391 0.75631 0.0
H1603 H 0.2365 0.4361 0.6877 0.0
C1604 C 0.22755 0.40623 0.69633 0.0
C1605 C 0.22793 0.39151 0.71189 0.0
C1606 C 0.2649 0.45387 0.74326 0.0
C1607 C 0.24701 0.4289 0.71924 0.0
C1608 C 0.27585 0.4721 0.74623 0.0
C1609 C 0.27952 0.4849 0.72943 0.0
C1610 C 0.25748 0.44858 0.72339 0.0
C1611 C 0.27119 0.47935 0.70999 0.0
C1612 C 0.23712 0.42489 0.6999 0.0
C1613 C 0.23825 0.39593 0.73086 0.0
N1614 N 0.26064 0.46163 0.7075 0.0
N1615 N 0.24735 0.41425 0.73405 0.0
H1616 H 0.12745 0.37845 0.37127 0.0
H1617 H 0.11339 0.27986 0.31533 0.0
H1618 H 0.17442 0.35718 0.34171 0.0
H1619 H 0.06321 0.31266 0.32088 0.0
H1620 H 0.1358 0.30911 0.32316 0.0
H1621 H 0.10307 0.35603 0.35157 0.0
C1622 C 0.13245 0.36936 0.3602 0.0
C1623 C 0.15276 0.36947 0.35795 0.0
C1624 C 0.11989 0.3101 0.32227 0.0
C1625 C 0.12542 0.34373 0.33586 0.0
C1626 C 0.10713 0.29341 0.31783 0.0
C1627 C 0.08654 0.29396 0.31755 0.0
C1628 C 0.112 0.3273 0.32713 0.0
C1629 C 0.07907 0.31178 0.32089 0.0
C1630 C 0.11865 0.35663 0.34899 0.0
C1631 C 0.15878 0.35743 0.34366 0.0
N1632 N 0.09185 0.32772 0.32603 0.0
N1633 N 0.14521 0.34479 0.33338 0.0
H1634 H 0.25362 0.65172 0.31404 0.0
H1635 H 0.25987 0.53742 0.29547 0.0
H1636 H 0.20652 0.60749 0.32696 0.0
H1637 H 0.30924 0.58203 0.29558 0.0
H1638 H 0.23784 0.56295 0.30114 0.0
H1639 H 0.27199 0.62653 0.30151 0.0
C1640 C 0.24717 0.63664 0.31416 0.0
C1641 C 0.2287 0.6316 0.32175 0.0
C1642 C 0.25345 0.56712 0.29962 0.0
C1643 C 0.24955 0.60252 0.30733 0.0
C1644 C 0.26595 0.55261 0.29619 0.0
C1645 C 0.28639 0.55765 0.29511 0.0
C1646 C 0.2615 0.58675 0.3017 0.0
C1647 C 0.29359 0.57748 0.29645 0.0
C1648 C 0.2576 0.62223 0.30697 0.0
C1649 C 0.22076 0.6119 0.32123 0.0
N1650 N 0.28124 0.59121 0.29972 0.0
N1651 N 0.23129 0.59801 0.3143 0.0
H1652 H 0.88792 0.70745 0.30296 0.0
H1653 H 0.99732 0.67727 0.29958 0.0
H1654 H 0.91066 0.65968 0.34014 0.0
H1655 H 0.96938 0.71642 0.25447 0.0
H1656 H 0.96489 0.66768 0.31212 0.0
H1657 H 0.91641 0.70841 0.28262 0.0
C1658 C 0.89883 0.69692 0.30648 0.0
C1659 C 0.89713 0.68348 0.32308 0.0
C1660 C 0.96579 0.67809 0.29923 0.0
C1661 C 0.92997 0.68466 0.3004 0.0
C1662 C 0.98433 0.68355 0.292 0.0
C1663 C 0.9862 0.69791 0.27611 0.0
C1664 C 0.94901 0.68721 0.29067 0.0
C1665 C 0.96876 0.70543 0.26687 0.0
C1666 C 0.91508 0.69743 0.29496 0.0
C1667 C 0.91156 0.67015 0.32731 0.0
N1668 N 0.951 0.70026 0.27451 0.0
N1669 N 0.92759 0.67126 0.31624 0.0
H1670 H 0.84617 0.37665 0.31877 0.0
H1671 H 0.8818 0.48005 0.26468 0.0
H1672 H 0.90348 0.40765 0.33418 0.0
H1673 H 0.82066 0.45539 0.26086 0.0
H1674 H 0.89103 0.45218 0.28739 0.0
H1675 H 0.83734 0.40402 0.295 0.0
C1676 C 0.85682 0.38932 0.31711 0.0
C1677 C 0.87548 0.39008 0.32842 0.0
C1678 C 0.8756 0.45287 0.28155 0.0
C1679 C 0.86575 0.42128 0.30116 0.0
C1680 C 0.87035 0.46871 0.26846 0.0
C1681 C 0.8504 0.47014 0.26088 0.0
C1682 C 0.86085 0.43819 0.28696 0.0
C1683 C 0.83616 0.45506 0.26652 0.0
C1684 C 0.85185 0.4049 0.30357 0.0
C1685 C 0.88894 0.40665 0.32568 0.0
N1686 N 0.84166 0.43975 0.27914 0.0
N1687 N 0.88385 0.42159 0.3123 0.0
H1688 H 0.25092 0.6789 0.70499 0.0
H1689 H 0.29056 0.58143 0.66742 0.0
H1690 H 0.22526 0.65039 0.65067 0.0
H1691 H 0.30282 0.60181 0.72856 0.0
H1692 H 0.27099 0.60957 0.65825 0.0
H1693 H 0.27464 0.65382 0.71104 0.0
C1694 C 0.25043 0.66732 0.69433 0.0
C1695 C 0.23599 0.66632 0.6776 0.0
C1696 C 0.27807 0.60791 0.67363 0.0
C1697 C 0.26305 0.63777 0.68414 0.0
C1698 C 0.28932 0.59195 0.67882 0.0
C1699 C 0.29816 0.58921 0.69882 0.0
C1700 C 0.27592 0.62135 0.68849 0.0
C1701 C 0.29598 0.6032 0.71307 0.0
C1702 C 0.2639 0.65304 0.69773 0.0
C1703 C 0.23612 0.6514 0.66386 0.0
N1704 N 0.28509 0.61862 0.70764 0.0
N1705 N 0.24935 0.63758 0.66749 0.0
H1706 H 0.22715 0.38244 0.36411 0.0
H1707 H 0.29234 0.48592 0.37587 0.0
H1708 H 0.21009 0.42966 0.39705 0.0
H1709 H 0.2999 0.44413 0.33126 0.0
H1710 H 0.26689 0.46257 0.39 0.0
H1711 H 0.2585 0.40203 0.35798 0.0
C1712 C 0.23032 0.39686 0.37031 0.0
C1713 C 0.21635 0.40461 0.38106 0.0
C1714 C 0.27434 0.45842 0.3773 0.0
C1715 C 0.2517 0.42712 0.37409 0.0
C1716 C 0.28894 0.47166 0.36937 0.0
C1717 C 0.29802 0.46696 0.35228 0.0
C1718 C 0.26898 0.44035 0.36815 0.0
C1719 C 0.29299 0.44837 0.34427 0.0
C1720 C 0.24806 0.40804 0.36681 0.0
C1721 C 0.22074 0.42334 0.38876 0.0
N1722 N 0.27872 0.43579 0.35218 0.0
N1723 N 0.23803 0.43407 0.38503 0.0
H1724 H 0.19392 0.70327 0.31917 0.0
H1725 H 0.07929 0.70656 0.33682 0.0
H1726 H 0.16005 0.65497 0.34762 0.0
H1727 H 0.10574 0.73818 0.28654 0.0
H1728 H 0.11056 0.69155 0.34619 0.0
H1729 H 0.16342 0.7204 0.31221 0.0
C1730 C 0.18003 0.69648 0.32415 0.0
C1731 C 0.17929 0.67784 0.33397 0.0
C1732 C 0.10953 0.70184 0.33316 0.0
C1733 C 0.1446 0.69713 0.32629 0.0
C1734 C 0.09175 0.7105 0.3279 0.0
C1735 C 0.08991 0.72361 0.31085 0.0
C1736 C 0.12573 0.70659 0.32153 0.0
C1737 C 0.10649 0.72802 0.29967 0.0
C1738 C 0.16269 0.70612 0.32011 0.0
C1739 C 0.16105 0.66938 0.34003 0.0
N1740 N 0.12373 0.71961 0.30525 0.0
N1741 N 0.1444 0.67912 0.33618 0.0
H1742 H 0.85738 0.6354 0.35497 0.0
H1743 H 0.84304 0.59157 0.24456 0.0
H1744 H 0.86139 0.67077 0.29932 0.0
H1745 H 0.81703 0.56036 0.29542 0.0
H1746 H 0.85266 0.61964 0.26554 0.0
H1747 H 0.84523 0.60671 0.33472 0.0
C1748 C 0.85565 0.63709 0.33849 0.0
C1749 C 0.86044 0.6554 0.32873 0.0
C1750 C 0.84478 0.60674 0.27218 0.0
C1751 C 0.84691 0.62281 0.30558 0.0
C1752 C 0.83934 0.59062 0.26022 0.0
C1753 C 0.8293 0.57353 0.26829 0.0
C1754 C 0.84047 0.60583 0.29258 0.0
C1755 C 0.82472 0.57328 0.28862 0.0
C1756 C 0.84874 0.62077 0.32698 0.0
C1757 C 0.85823 0.65683 0.30738 0.0
N1758 N 0.83054 0.58917 0.3002 0.0
N1759 N 0.85171 0.64076 0.29653 0.0
H1760 H 0.92263 0.34043 0.38627 0.0
H1761 H 0.96653 0.25998 0.32344 0.0
H1762 H 0.89439 0.31767 0.32995 0.0
H1763 H 0.99619 0.28233 0.3796 0.0
H1764 H 0.93835 0.2785 0.32771 0.0
H1765 H 0.94773 0.3166 0.38664 0.0
C1766 C 0.92154 0.33008 0.37425 0.0
C1767 C 0.9066 0.33097 0.35801 0.0
C1768 C 0.95094 0.27929 0.33921 0.0
C1769 C 0.93524 0.30399 0.35802 0.0
C1770 C 0.96712 0.26874 0.33672 0.0
C1771 C 0.98393 0.2697 0.35105 0.0
C1772 C 0.95146 0.29107 0.35613 0.0
C1773 C 0.98358 0.28105 0.36818 0.0
C1774 C 0.93589 0.31661 0.37433 0.0
C1775 C 0.90582 0.31746 0.34264 0.0
N1776 N 0.96772 0.29143 0.37014 0.0
N1777 N 0.92001 0.30468 0.34291 0.0
H1778 H 0.85388 0.37619 0.7249 0.0
H1779 H 0.83744 0.49108 0.71893 0.0
H1780 H 0.87592 0.41612 0.6781 0.0
H1781 H 0.8316 0.45263 0.7723 0.0
H1782 H 0.84438 0.46279 0.69989 0.0
H1783 H 0.83841 0.40304 0.73859 0.0
C1784 C 0.85511 0.39064 0.71738 0.0
C1785 C 0.86609 0.39414 0.70049 0.0
C1786 C 0.84122 0.46055 0.71567 0.0
C1787 C 0.84875 0.42495 0.71599 0.0
C1788 C 0.83707 0.47661 0.72644 0.0
C1789 C 0.83398 0.47412 0.74718 0.0
C1790 C 0.84198 0.44194 0.72574 0.0
C1791 C 0.83399 0.45517 0.75634 0.0
C1792 C 0.84641 0.40596 0.72517 0.0
C1793 C 0.86749 0.41303 0.69119 0.0
N1794 N 0.838 0.43988 0.74561 0.0
N1795 N 0.85903 0.42783 0.69914 0.0
H1796 H 0.18982 0.31113 0.72827 0.0
H1797 H 0.07692 0.31711 0.74838 0.0
H1798 H 0.15594 0.35925 0.70664 0.0
H1799 H 0.10554 0.26351 0.75908 0.0
H1800 H 0.10516 0.33179 0.73101 0.0
H1801 H 0.15909 0.2925 0.73829 0.0
C1802 C 0.1758 0.31763 0.72559 0.0
C1803 C 0.1752 0.33668 0.71691 0.0
C1804 C 0.10522 0.31671 0.73681 0.0
C1805 C 0.14025 0.31576 0.72815 0.0
C1806 C 0.08905 0.30831 0.74666 0.0
C1807 C 0.08895 0.28911 0.75511 0.0
C1808 C 0.12171 0.306 0.73579 0.0
C1809 C 0.10503 0.27832 0.75258 0.0
C1810 C 0.15833 0.30705 0.73118 0.0
C1811 C 0.15686 0.34463 0.71352 0.0
N1812 N 0.12099 0.28705 0.74343 0.0
N1813 N 0.14012 0.3342 0.7193 0.0
H1814 H 0.88827 0.72928 0.67495 0.0
H1815 H 0.99541 0.70394 0.72329 0.0
H1816 H 0.91352 0.67648 0.66206 0.0
H1817 H 0.9791 0.76343 0.71571 0.0
H1818 H 0.96441 0.69275 0.70341 0.0
H1819 H 0.92025 0.74126 0.69287 0.0
C1820 C 0.90063 0.72029 0.67586 0.0
C1821 C 0.89843 0.70199 0.66693 0.0
C1822 C 0.96768 0.70826 0.70594 0.0
C1823 C 0.93478 0.7153 0.68764 0.0
C1824 C 0.98535 0.71467 0.71729 0.0
C1825 C 0.98981 0.73464 0.72114 0.0
C1826 C 0.95418 0.72188 0.69868 0.0
C1827 C 0.97628 0.74791 0.71299 0.0
C1828 C 0.91881 0.72708 0.68607 0.0
C1829 C 0.91466 0.69061 0.66891 0.0
N1830 N 0.95893 0.74126 0.7023 0.0
N1831 N 0.93217 0.69742 0.67911 0.0
H1832 H 0.75229 0.20149 0.66748 0.0
H1833 H 0.7497 0.24163 0.55029 0.0
H1834 H 0.69821 0.20091 0.62727 0.0
H1835 H 0.80328 0.23207 0.58898 0.0
H1836 H 0.73006 0.23074 0.57912 0.0
H1837 H 0.77099 0.21552 0.6394 0.0
C1838 C 0.74443 0.20415 0.65263 0.0
C1839 C 0.72375 0.20006 0.64965 0.0
C1840 C 0.74614 0.23128 0.58132 0.0
C1841 C 0.74486 0.21655 0.61745 0.0
C1842 C 0.75731 0.23773 0.56497 0.0
C1843 C 0.7781 0.23777 0.56733 0.0
C1844 C 0.75593 0.22501 0.60008 0.0
C1845 C 0.78726 0.23221 0.58653 0.0
C1846 C 0.75502 0.21233 0.63663 0.0
C1847 C 0.71414 0.20411 0.6302 0.0
N1848 N 0.77616 0.22601 0.60207 0.0
N1849 N 0.72475 0.21217 0.61484 0.0
H1850 H 0.36899 0.18797 0.61867 0.0
H1851 H 0.28892 0.26215 0.58579 0.0
H1852 H 0.32657 0.20169 0.6589 0.0
H1853 H 0.3175 0.23282 0.54191 0.0
H1854 H 0.30046 0.23851 0.61234 0.0
H1855 H 0.34901 0.20278 0.58981 0.0
C1856 C 0.35524 0.19387 0.62123 0.0
C1857 C 0.34929 0.19375 0.64095 0.0
C1858 C 0.30387 0.237 0.59683 0.0
C1859 C 0.32659 0.21093 0.60842 0.0
C1860 C 0.29727 0.25049 0.58165 0.0
C1861 C 0.30249 0.24962 0.56166 0.0
C1862 C 0.31608 0.22279 0.59204 0.0
C1863 C 0.31323 0.23413 0.55714 0.0
C1864 C 0.34383 0.20225 0.60486 0.0
C1865 C 0.33147 0.20154 0.64378 0.0
N1866 N 0.32003 0.22156 0.5723 0.0
N1867 N 0.32085 0.21012 0.62772 0.0
H1868 H 0.36486 0.82713 0.67435 0.0
H1869 H 0.31846 0.84689 0.56093 0.0
H1870 H 0.37395 0.8829 0.64192 0.0
H1871 H 0.3296 0.78848 0.58378 0.0
H1872 H 0.33813 0.86022 0.59113 0.0
H1873 H 0.35242 0.812 0.64189 0.0
C1874 C 0.36486 0.83601 0.66027 0.0
C1875 C 0.37042 0.85623 0.66069 0.0
C1876 C 0.33644 0.84448 0.58948 0.0
C1877 C 0.35553 0.83937 0.62379 0.0
C1878 C 0.32509 0.83689 0.57231 0.0
C1879 C 0.32237 0.81657 0.56986 0.0
C1880 C 0.34485 0.83166 0.60458 0.0
C1881 C 0.33146 0.80425 0.58502 0.0
C1882 C 0.35755 0.82747 0.6418 0.0
C1883 C 0.36972 0.86725 0.64213 0.0
N1884 N 0.34209 0.81196 0.60185 0.0
N1885 N 0.36206 0.85879 0.62451 0.0
H1886 H 0.68549 0.85623 0.60798 0.0
H1887 H 0.79736 0.84981 0.58142 0.0
H1888 H 0.73607 0.85778 0.653 0.0
H1889 H 0.74591 0.84164 0.53757 0.0
H1890 H 0.7758 0.85787 0.60673 0.0
H1891 H 0.70794 0.85597 0.58101 0.0
C1892 C 0.7014 0.85682 0.61208 0.0
C1893 C 0.70902 0.85696 0.63263 0.0
C1894 C 0.76924 0.85446 0.59152 0.0
C1895 C 0.73479 0.85654 0.60206 0.0
C1896 C 0.78158 0.84998 0.57698 0.0
C1897 C 0.77345 0.84484 0.55732 0.0
C1898 C 0.74858 0.85388 0.58641 0.0
C1899 C 0.75281 0.84513 0.55261 0.0
C1900 C 0.7142 0.85663 0.59675 0.0
C1901 C 0.7297 0.85785 0.63728 0.0
N1902 N 0.7411 0.84944 0.56706 0.0
N1903 N 0.74188 0.85742 0.62213 0.0
H1904 H 0.69676 0.87866 0.3765 0.0
H1905 H 0.75138 0.79612 0.4445 0.0
H1906 H 0.70532 0.82265 0.35362 0.0
H1907 H 0.761 0.85771 0.45698 0.0
H1908 H 0.73038 0.80438 0.41332 0.0
H1909 H 0.71699 0.87031 0.40817 0.0
C1910 C 0.70309 0.86468 0.37815 0.0
C1911 C 0.69949 0.85131 0.36254 0.0
C1912 C 0.73707 0.81605 0.42295 0.0
C1913 C 0.72208 0.84142 0.39873 0.0
C1914 C 0.74891 0.81134 0.44079 0.0
C1915 C 0.75797 0.82627 0.45329 0.0
C1916 C 0.73408 0.83578 0.41777 0.0
C1917 C 0.75438 0.84576 0.44771 0.0
C1918 C 0.71449 0.85985 0.3962 0.0
C1919 C 0.70765 0.83321 0.36546 0.0
N1920 N 0.74269 0.84995 0.43039 0.0
N1921 N 0.71849 0.82872 0.38327 0.0
H1922 H 0.70558 0.14866 0.39333 0.0
H1923 H 0.77559 0.23625 0.44662 0.0
H1924 H 0.72375 0.20252 0.36109 0.0
H1925 H 0.76788 0.17728 0.47272 0.0
H1926 H 0.75209 0.22647 0.41745 0.0
H1927 H 0.72269 0.16165 0.42503 0.0
C1928 C 0.71264 0.16353 0.39318 0.0
C1929 C 0.71325 0.17461 0.37473 0.0
C1930 C 0.75546 0.2157 0.42961 0.0
C1931 C 0.73339 0.18942 0.41067 0.0
C1932 C 0.76885 0.22127 0.44631 0.0
C1933 C 0.77381 0.20754 0.46217 0.0
C1934 C 0.74676 0.19627 0.42877 0.0
C1935 C 0.76473 0.18828 0.46077 0.0
C1936 C 0.72264 0.17084 0.41115 0.0
C1937 C 0.72281 0.19367 0.37512 0.0
N1938 N 0.75167 0.18325 0.44441 0.0
N1939 N 0.73275 0.20042 0.39277 0.0
H1940 H 0.33685 0.22448 0.39515 0.0
H1941 H 0.37608 0.26813 0.50387 0.0
H1942 H 0.39 0.20856 0.43087 0.0
H1943 H 0.32546 0.28805 0.46622 0.0
H1944 H 0.38151 0.24657 0.47717 0.0
H1945 H 0.33199 0.2476 0.42113 0.0
C1946 C 0.3474 0.22584 0.40857 0.0
C1947 C 0.36382 0.2147 0.411 0.0
C1948 C 0.36925 0.25571 0.4747 0.0
C1949 C 0.35858 0.24109 0.44062 0.0
C1950 C 0.36621 0.26821 0.48994 0.0
C1951 C 0.3502 0.28 0.48745 0.0
C1952 C 0.3562 0.25485 0.45676 0.0
C1953 C 0.3378 0.27907 0.46903 0.0
C1954 C 0.34474 0.23908 0.42331 0.0
C1955 C 0.37725 0.21706 0.42847 0.0
N1956 N 0.341 0.26667 0.45446 0.0
N1957 N 0.37434 0.22996 0.44263 0.0
H1958 H 0.35563 0.7985 0.36265 0.0
H1959 H 0.34732 0.79284 0.48309 0.0
H1960 H 0.37918 0.84453 0.40261 0.0
H1961 H 0.32617 0.74504 0.44411 0.0
H1962 H 0.36247 0.81031 0.45445 0.0
H1963 H 0.34809 0.77712 0.39255 0.0
C1964 C 0.35968 0.80387 0.37778 0.0
C1965 C 0.36819 0.82317 0.38027 0.0
C1966 C 0.35474 0.79589 0.45218 0.0
C1967 C 0.35914 0.79914 0.41454 0.0
C1968 C 0.34612 0.78584 0.46859 0.0
C1969 C 0.33531 0.76744 0.46605 0.0
C1970 C 0.35244 0.78763 0.43291 0.0
C1971 C 0.33435 0.75917 0.44685 0.0
C1972 C 0.35521 0.79178 0.39485 0.0
C1973 C 0.37263 0.8297 0.40015 0.0
N1974 N 0.34255 0.76941 0.43098 0.0
N1975 N 0.36793 0.8178 0.41649 0.0
H1976 H 0.68969 0.22487 0.71152 0.0
H1977 H 0.5892 0.1839 0.76041 0.0
H1978 H 0.65815 0.16886 0.69786 0.0
H1979 H 0.61397 0.2442 0.76342 0.0
H1980 H 0.61578 0.17719 0.73992 0.0
H1981 H 0.66339 0.23152 0.73265 0.0
C1982 C 0.67707 0.21408 0.71287 0.0
C1983 C 0.67583 0.19646 0.70275 0.0
C1984 C 0.61541 0.19189 0.74507 0.0
C1985 C 0.64595 0.20363 0.72721 0.0
C1986 C 0.6003 0.1957 0.75692 0.0
C1987 C 0.59927 0.21467 0.76367 0.0
C1988 C 0.62978 0.20709 0.74003 0.0
C1989 C 0.614 0.22942 0.75839 0.0
C1990 C 0.66213 0.2178 0.72497 0.0
C1991 C 0.6595 0.18267 0.70536 0.0
N1992 N 0.62862 0.22532 0.74695 0.0
N1993 N 0.64521 0.18653 0.71733 0.0
H1994 H 0.4018 0.14896 0.69961 0.0
H1995 H 0.34152 0.09884 0.79018 0.0
H1996 H 0.34691 0.16757 0.716 0.0
H1997 H 0.39394 0.07645 0.77165 0.0
H1998 H 0.34609 0.12686 0.76616 0.0
H1999 H 0.40199 0.12497 0.72876 0.0
C2000 C 0.38991 0.14802 0.70952 0.0
C2001 C 0.37417 0.1599 0.7054 0.0
C2002 C 0.35673 0.11594 0.76743 0.0
C2003 C 0.37417 0.13274 0.73855 0.0
C2004 C 0.3541 0.09992 0.78114 0.0
C2005 C 0.36721 0.08516 0.78272 0.0
C2006 C 0.37255 0.11721 0.75506 0.0
C2007 C 0.3835 0.0875 0.77094 0.0
C2008 C 0.38996 0.13437 0.72607 0.0
C2009 C 0.35907 0.15833 0.71856 0.0
N2010 N 0.38558 0.1031 0.7574 0.0
N2011 N 0.35937 0.14491 0.73448 0.0
H2012 H 0.38514 0.82614 0.71069 0.0
H2013 H 0.50172 0.83778 0.74048 0.0
H2014 H 0.42331 0.87363 0.68664 0.0
H2015 H 0.46734 0.78172 0.7454 0.0
H2016 H 0.47292 0.85133 0.72134 0.0
H2017 H 0.41459 0.80904 0.7231 0.0
C2018 C 0.39975 0.83253 0.70733 0.0
C2019 C 0.40191 0.85102 0.69725 0.0
C2020 C 0.4717 0.83603 0.72647 0.0
C2021 C 0.43567 0.83225 0.7123 0.0
C2022 C 0.48809 0.82834 0.73758 0.0
C2023 C 0.48692 0.80861 0.74466 0.0
C2024 C 0.45383 0.82402 0.72267 0.0
C2025 C 0.46893 0.79698 0.74016 0.0
C2026 C 0.41656 0.82296 0.71462 0.0
C2027 C 0.42114 0.85916 0.69394 0.0
N2028 N 0.45304 0.8049 0.72966 0.0
N2029 N 0.4373 0.8499 0.70173 0.0
H2030 H 0.72915 0.87022 0.69174 0.0
H2031 H 0.71841 0.98442 0.69435 0.0
H2032 H 0.68951 0.89989 0.64828 0.0
H2033 H 0.77089 0.95847 0.72124 0.0
H2034 H 0.70671 0.95334 0.67841 0.0
H2035 H 0.74457 0.90217 0.70336 0.0
C2036 C 0.72415 0.88359 0.68433 0.0
C2037 C 0.7084 0.88266 0.66888 0.0
C2038 C 0.72085 0.95449 0.6877 0.0
C2039 C 0.72518 0.91907 0.68249 0.0
C2040 C 0.72743 0.97215 0.69696 0.0
C2041 C 0.7456 0.974 0.70921 0.0
C2042 C 0.73237 0.93843 0.69098 0.0
C2043 C 0.75684 0.95771 0.71182 0.0
C2044 C 0.73278 0.90176 0.69099 0.0
C2045 C 0.70191 0.90021 0.65999 0.0
N2046 N 0.74997 0.94056 0.70294 0.0
N2047 N 0.71014 0.91775 0.6671 0.0
H2048 H 0.65547 0.82519 0.29366 0.0
H2049 H 0.5427 0.80871 0.30627 0.0
H2050 H 0.62602 0.8682 0.32157 0.0
H2051 H 0.56672 0.78557 0.25532 0.0
H2052 H 0.57231 0.83201 0.31091 0.0
H2053 H 0.62305 0.81117 0.27816 0.0
C2054 C 0.64209 0.83184 0.2961 0.0
C2055 C 0.64311 0.84772 0.30876 0.0
C2056 C 0.5709 0.8222 0.29837 0.0
C2057 C 0.60624 0.83176 0.2917 0.0
C2058 C 0.55401 0.80894 0.29572 0.0
C2059 C 0.55239 0.79523 0.28046 0.0
C2060 C 0.5865 0.82126 0.28607 0.0
C2061 C 0.56743 0.796 0.26722 0.0
C2062 C 0.62368 0.82396 0.28728 0.0
C2063 C 0.62558 0.85593 0.31178 0.0
N2064 N 0.58415 0.80848 0.27065 0.0
N2065 N 0.60774 0.84762 0.30362 0.0
H2066 H 0.72644 0.1459 0.2938 0.0
H2067 H 0.76221 0.03865 0.31487 0.0
H2068 H 0.71102 0.10708 0.34436 0.0
H2069 H 0.77163 0.07209 0.25893 0.0
H2070 H 0.7405 0.06256 0.32378 0.0
H2071 H 0.74031 0.11862 0.27863 0.0
C2072 C 0.72571 0.13151 0.30146 0.0
C2073 C 0.71781 0.12863 0.32037 0.0
C2074 C 0.74698 0.06464 0.30938 0.0
C2075 C 0.73364 0.09758 0.30342 0.0
C2076 C 0.75933 0.05091 0.30426 0.0
C2077 C 0.7686 0.0534 0.28613 0.0
C2078 C 0.74422 0.08137 0.29652 0.0
C2079 C 0.76453 0.06959 0.27296 0.0
C2080 C 0.73363 0.116 0.29289 0.0
C2081 C 0.7172 0.10984 0.32985 0.0
N2082 N 0.75287 0.08319 0.27857 0.0
N2083 N 0.72517 0.09512 0.3214 0.0
H2084 H 0.37926 0.18474 0.33221 0.0
H2085 H 0.4961 0.19129 0.3319 0.0
H2086 H 0.41837 0.17579 0.38672 0.0
H2087 H 0.45707 0.17842 0.27764 0.0
H2088 H 0.46764 0.1854 0.35223 0.0
H2089 H 0.40691 0.18154 0.31158 0.0
C2090 C 0.39353 0.18145 0.33976 0.0
C2091 C 0.39661 0.18033 0.3611 0.0
C2092 C 0.46529 0.1836 0.33591 0.0
C2093 C 0.42843 0.17749 0.33784 0.0
C2094 C 0.48151 0.18705 0.32433 0.0
C2095 C 0.47887 0.1854 0.30311 0.0
C2096 C 0.44618 0.17884 0.32615 0.0
C2097 C 0.45971 0.17973 0.294 0.0
C2098 C 0.40936 0.17984 0.32804 0.0
C2099 C 0.41553 0.17675 0.37026 0.0
N2100 N 0.44401 0.17694 0.30553 0.0
N2101 N 0.43081 0.17573 0.35861 0.0
H2102 H 0.3524 0.87199 0.3028 0.0
H2103 H 0.32687 0.97849 0.32901 0.0
H2104 H 0.36835 0.89718 0.36132 0.0
H2105 H 0.32325 0.96028 0.26706 0.0
H2106 H 0.34296 0.94905 0.34063 0.0
H2107 H 0.34221 0.90393 0.28886 0.0
C2108 C 0.3539 0.88432 0.31264 0.0
C2109 C 0.3611 0.88196 0.33327 0.0
C2110 C 0.33897 0.95153 0.32445 0.0
C2111 C 0.34932 0.91843 0.31757 0.0
C2112 C 0.32984 0.96841 0.31779 0.0
C2113 C 0.32383 0.97189 0.29703 0.0
C2114 C 0.34178 0.93762 0.31033 0.0
C2115 C 0.3279 0.95826 0.28317 0.0
C2116 C 0.34808 0.90251 0.30471 0.0
C2117 C 0.36257 0.89831 0.34544 0.0
N2118 N 0.33636 0.94155 0.2901 0.0
N2119 N 0.35663 0.91576 0.33747 0.0
H2120 H 0.71185 0.14944 0.65215 0.0
H2121 H 0.79979 0.09298 0.71222 0.0
H2122 H 0.75091 0.17325 0.70201 0.0
H2123 H 0.75579 0.06625 0.66769 0.0
H2124 H 0.78634 0.1246 0.70387 0.0
H2125 H 0.73184 0.1212 0.65284 0.0
C2126 C 0.72497 0.14886 0.66289 0.0
C2127 C 0.72986 0.16351 0.67703 0.0
C2128 C 0.7798 0.11188 0.69571 0.0
C2129 C 0.75259 0.13131 0.67828 0.0
C2130 C 0.78758 0.09379 0.70037 0.0
C2131 C 0.77882 0.07679 0.69079 0.0
C2132 C 0.76313 0.11307 0.68133 0.0
C2133 C 0.76295 0.07887 0.67561 0.0
C2134 C 0.73629 0.13274 0.66343 0.0
C2135 C 0.7468 0.16215 0.69087 0.0
N2136 N 0.75551 0.09658 0.67152 0.0
N2137 N 0.75746 0.14625 0.6913 0.0
H2138 H 0.6842 0.91084 0.33654 0.0
H2139 H 0.80051 0.94287 0.33161 0.0
H2140 H 0.72778 0.86943 0.3347 0.0
H2141 H 0.75435 0.98182 0.31724 0.0
H2142 H 0.77512 0.91653 0.34041 0.0
H2143 H 0.71082 0.93774 0.33686 0.0
C2144 C 0.69945 0.90751 0.33628 0.0
C2145 C 0.7039 0.88808 0.33523 0.0
C2146 C 0.7706 0.93093 0.33559 0.0
C2147 C 0.7344 0.91853 0.33582 0.0
C2148 C 0.78507 0.94595 0.33074 0.0
C2149 C 0.77941 0.96442 0.32355 0.0
C2150 C 0.75043 0.93455 0.3334 0.0
C2151 C 0.75923 0.96767 0.32248 0.0
C2152 C 0.71462 0.92277 0.33654 0.0
C2153 C 0.72387 0.88431 0.33543 0.0
N2154 N 0.74546 0.95287 0.32723 0.0
N2155 N 0.73843 0.89943 0.33553 0.0
H2156 H 0.68796 0.19991 0.31446 0.0
H2157 H 0.57599 0.19429 0.34105 0.0
H2158 H 0.66681 0.16621 0.3661 0.0
H2159 H 0.60003 0.23733 0.2978 0.0
H2160 H 0.60973 0.1863 0.35272 0.0
H2161 H 0.65706 0.21632 0.31026 0.0
C2162 C 0.67694 0.19639 0.32522 0.0
C2163 C 0.67984 0.18179 0.34066 0.0
C2164 C 0.60772 0.19775 0.34093 0.0
C2165 C 0.64424 0.20002 0.33572 0.0
C2166 C 0.58842 0.20236 0.33427 0.0
C2167 C 0.58512 0.21647 0.31835 0.0
C2168 C 0.62396 0.20703 0.33137 0.0
C2169 C 0.60184 0.22642 0.31017 0.0
C2170 C 0.65928 0.20566 0.3228 0.0
C2171 C 0.66513 0.17754 0.35414 0.0
N2172 N 0.62048 0.22127 0.31651 0.0
N2173 N 0.64782 0.18636 0.35117 0.0
H2174 H 0.34478 0.17344 0.33688 0.0
H2175 H 0.30719 0.06048 0.35456 0.0
H2176 H 0.36361 0.13979 0.39104 0.0
H2177 H 0.30975 0.08797 0.29441 0.0
H2178 H 0.32453 0.09042 0.36918 0.0
H2179 H 0.32893 0.14312 0.32158 0.0
C2180 C 0.34584 0.15953 0.34532 0.0
C2181 C 0.35578 0.15882 0.36494 0.0
C2182 C 0.32133 0.08986 0.35278 0.0
C2183 C 0.33716 0.12439 0.34812 0.0
C2184 C 0.31131 0.07287 0.34447 0.0
C2185 C 0.30708 0.07176 0.32326 0.0
C2186 C 0.32682 0.10599 0.33981 0.0
C2187 C 0.31292 0.08816 0.31083 0.0
C2188 C 0.33672 0.14231 0.33672 0.0
C2189 C 0.35627 0.14068 0.37571 0.0
N2190 N 0.32237 0.10464 0.31928 0.0
N2191 N 0.34695 0.12415 0.36723 0.0
H2192 H 0.42084 0.83936 0.35952 0.0
H2193 H 0.44168 0.73612 0.31821 0.0
H2194 H 0.37392 0.7996 0.33223 0.0
H2195 H 0.48444 0.78691 0.31868 0.0
H2196 H 0.41748 0.75607 0.33068 0.0
H2197 H 0.44532 0.81696 0.35226 0.0
C2198 C 0.41576 0.82562 0.35245 0.0
C2199 C 0.39548 0.82105 0.34669 0.0
C2200 C 0.43221 0.76278 0.32816 0.0
C2201 C 0.42311 0.79554 0.33819 0.0
C2202 C 0.44602 0.7514 0.32117 0.0
C2203 C 0.46503 0.75993 0.31733 0.0
C2204 C 0.43762 0.78271 0.33175 0.0
C2205 C 0.46987 0.77986 0.32124 0.0
C2206 C 0.42964 0.81297 0.34816 0.0
C2207 C 0.38945 0.80334 0.33721 0.0
N2208 N 0.45629 0.79055 0.3283 0.0
N2209 N 0.40321 0.79117 0.33324 0.0
H2210 H 0.35407 0.88153 0.74129 0.0
H2211 H 0.32661 0.99267 0.7451 0.0
H2212 H 0.35996 0.92327 0.69063 0.0
H2213 H 0.34068 0.95507 0.79805 0.0
H2214 H 0.3317 0.96576 0.72316 0.0
H2215 H 0.34207 0.90681 0.76068 0.0
C2216 C 0.35278 0.89607 0.7343 0.0
C2217 C 0.35825 0.90049 0.71454 0.0
C2218 C 0.33342 0.96342 0.7396 0.0
C2219 C 0.34432 0.92943 0.73638 0.0
C2220 C 0.33039 0.97867 0.75205 0.0
C2221 C 0.3334 0.97607 0.77335 0.0
C2222 C 0.33912 0.94547 0.74863 0.0
C2223 C 0.33843 0.95773 0.78168 0.0
C2224 C 0.34587 0.91046 0.74527 0.0
C2225 C 0.35589 0.91939 0.70588 0.0
N2226 N 0.34115 0.9432 0.76933 0.0
N2227 N 0.3492 0.93326 0.7169 0.0
H2228 H 0.68048 0.8188 0.70483 0.0
H2229 H 0.56641 0.77549 0.70604 0.0
H2230 H 0.63669 0.82681 0.65393 0.0
H2231 H 0.60981 0.77802 0.75849 0.0
H2232 H 0.59287 0.78802 0.6843 0.0
H2233 H 0.65578 0.79755 0.72228 0.0
C2234 C 0.66561 0.81587 0.69733 0.0
C2235 C 0.6604 0.82464 0.67816 0.0
C2236 C 0.5966 0.78549 0.70052 0.0
C2237 C 0.63196 0.80052 0.69791 0.0
C2238 C 0.58157 0.77821 0.71285 0.0
C2239 C 0.58601 0.77591 0.73403 0.0
C2240 C 0.61608 0.79021 0.70955 0.0
C2241 C 0.60579 0.7798 0.74222 0.0
C2242 C 0.65151 0.80377 0.70721 0.0
C2243 C 0.6411 0.82028 0.6688 0.0
N2244 N 0.62002 0.78685 0.73002 0.0
N2245 N 0.62743 0.80868 0.67888 0.0
H2246 H 0.42476 0.19316 0.67202 0.0
H2247 H 0.47223 0.21778 0.78402 0.0
H2248 H 0.3895 0.19553 0.72253 0.0
H2249 H 0.50085 0.23962 0.73066 0.0
H2250 H 0.44308 0.20555 0.76202 0.0
H2251 H 0.45432 0.20616 0.69359 0.0
C2252 C 0.42334 0.19637 0.68769 0.0
C2253 C 0.4048 0.19326 0.69561 0.0
C2254 C 0.45569 0.21309 0.75511 0.0
C2255 C 0.43831 0.2078 0.7203 0.0
C2256 C 0.47236 0.22004 0.76764 0.0
C2257 C 0.48897 0.22974 0.75913 0.0
C2258 C 0.45571 0.21553 0.73386 0.0
C2259 C 0.48829 0.23232 0.73781 0.0
C2260 C 0.44011 0.20378 0.69993 0.0
C2261 C 0.40362 0.19742 0.71601 0.0
N2262 N 0.47195 0.22508 0.72585 0.0
N2263 N 0.42017 0.20442 0.72769 0.0
H2264 H 0.74051 0.70737 0.15974 0.0
H2265 H 0.72219 0.75808 0.04815 0.0
H2266 H 0.68528 0.69887 0.12167 0.0
H2267 H 0.78106 0.75291 0.07813 0.0
H2268 H 0.70821 0.73817 0.07613 0.0
H2269 H 0.75592 0.7248 0.13083 0.0
C2270 C 0.73178 0.70886 0.14516 0.0
C2271 C 0.71161 0.7018 0.14303 0.0
C2272 C 0.7242 0.74135 0.07659 0.0
C2273 C 0.72882 0.72213 0.11016 0.0
C2274 C 0.73217 0.75289 0.06069 0.0
C2275 C 0.75283 0.75718 0.06076 0.0
C2276 C 0.73694 0.73421 0.09288 0.0
C2277 C 0.76506 0.7498 0.07735 0.0
C2278 C 0.74048 0.71894 0.12874 0.0
C2279 C 0.70081 0.70434 0.12393 0.0
N2280 N 0.75695 0.73877 0.09276 0.0
N2281 N 0.70945 0.71447 0.10833 0.0
H2282 H 0.32629 0.68121 0.13843 0.0
H2283 H 0.29813 0.73005 0.02783 0.0
H2284 H 0.35101 0.66613 0.08434 0.0
H2285 H 0.29568 0.75783 0.0846 0.0
H2286 H 0.30688 0.69988 0.04719 0.0
H2287 H 0.30433 0.70236 0.11741 0.0
C2288 C 0.32659 0.68199 0.122 0.0
C2289 C 0.34035 0.67214 0.11294 0.0
C2290 C 0.30389 0.71244 0.05534 0.0
C2291 C 0.31571 0.69628 0.08894 0.0
C2292 C 0.29874 0.72953 0.04434 0.0
C2293 C 0.29634 0.74635 0.05474 0.0
C2294 C 0.3063 0.71225 0.07678 0.0
C2295 C 0.29757 0.74514 0.07609 0.0
C2296 C 0.31422 0.69407 0.11006 0.0
C2297 C 0.34053 0.67365 0.0917 0.0
N2298 N 0.30262 0.72842 0.08643 0.0
N2299 N 0.32853 0.68574 0.08036 0.0
H2300 H 0.41352 0.3362 0.16704 0.0
H2301 H 0.33889 0.25847 0.10332 0.0
H2302 H 0.35813 0.31006 0.18701 0.0
H2303 H 0.38597 0.29537 0.07719 0.0
H2304 H 0.35031 0.27155 0.13674 0.0
H2305 H 0.408 0.31592 0.13681 0.0
C2306 C 0.4004 0.32588 0.16517 0.0
C2307 C 0.38617 0.3248 0.1793 0.0
C2308 C 0.35833 0.27656 0.12375 0.0
C2309 C 0.37964 0.30169 0.14496 0.0
C2310 C 0.35193 0.26896 0.10464 0.0
C2311 C 0.36137 0.27593 0.08728 0.0
C2312 C 0.37439 0.29116 0.12562 0.0
C2313 C 0.37812 0.28965 0.09007 0.0
C2314 C 0.39717 0.31441 0.14794 0.0
C2315 C 0.36932 0.31135 0.17628 0.0
N2316 N 0.38397 0.29694 0.10878 0.0
N2317 N 0.36645 0.30041 0.15941 0.0
H2318 H 0.68862 0.38141 0.13059 0.0
H2319 H 0.77552 0.3318 0.08462 0.0
H2320 H 0.73389 0.35249 0.16754 0.0
H2321 H 0.72364 0.35111 0.04885 0.0
H2322 H 0.76482 0.34577 0.11471 0.0
H2323 H 0.70603 0.37776 0.10029 0.0
C2324 C 0.70273 0.37503 0.13233 0.0
C2325 C 0.71008 0.36746 0.15143 0.0
C2326 C 0.75588 0.34713 0.10023 0.0
C2327 C 0.72964 0.36241 0.11698 0.0
C2328 C 0.76202 0.33921 0.08302 0.0
C2329 C 0.75034 0.34009 0.06421 0.0
C2330 C 0.73799 0.35611 0.09861 0.0
C2331 C 0.7329 0.34976 0.0631 0.0
C2332 C 0.7125 0.37265 0.11507 0.0
C2333 C 0.72804 0.35874 0.15302 0.0
N2334 N 0.72721 0.35728 0.08006 0.0
N2335 N 0.73711 0.35619 0.13595 0.0
H2336 H 0.72127 0.34846 0.86476 0.0
H2337 H 0.76893 0.3778 0.97639 0.0
H2338 H 0.7114 0.40215 0.89167 0.0
H2339 H 0.77818 0.32441 0.94805 0.0
H2340 H 0.75007 0.3885 0.94475 0.0
H2341 H 0.74415 0.3406 0.89453 0.0
C2342 C 0.72396 0.35851 0.87708 0.0
C2343 C 0.71438 0.37577 0.87609 0.0
C2344 C 0.75638 0.37452 0.94544 0.0
C2345 C 0.74056 0.36715 0.91005 0.0
C2346 C 0.7672 0.36844 0.96347 0.0
C2347 C 0.77498 0.3501 0.96494 0.0
C2348 C 0.75336 0.36216 0.92882 0.0
C2349 C 0.77228 0.33858 0.94771 0.0
C2350 C 0.73706 0.35415 0.89399 0.0
C2351 C 0.71855 0.38865 0.89209 0.0
N2352 N 0.76161 0.34474 0.93046 0.0
N2353 N 0.73127 0.38403 0.90855 0.0
H2354 H 0.72583 0.66376 0.89819 0.0
H2355 H 0.76267 0.77176 0.93472 0.0
H2356 H 0.72774 0.71472 0.85714 0.0
H2357 H 0.77848 0.71951 0.96957 0.0
H2358 H 0.7458 0.75141 0.90784 0.0
H2359 H 0.74021 0.68435 0.92634 0.0
C2360 C 0.72898 0.6794 0.89526 0.0
C2361 C 0.72574 0.68761 0.87538 0.0
C2362 C 0.75297 0.74436 0.92132 0.0
C2363 C 0.74221 0.71121 0.90737 0.0
C2364 C 0.76263 0.75596 0.93674 0.0
C2365 C 0.77205 0.74733 0.95449 0.0
C2366 C 0.75242 0.72387 0.92366 0.0
C2367 C 0.77153 0.72678 0.95612 0.0
C2368 C 0.73731 0.69108 0.91124 0.0
C2369 C 0.7299 0.70791 0.87229 0.0
N2370 N 0.76176 0.71573 0.94094 0.0
N2371 N 0.73803 0.71902 0.8881 0.0
H2372 H 0.40064 0.70582 0.91377 0.0
H2373 H 0.31959 0.77421 0.94434 0.0
H2374 H 0.34962 0.72034 0.87373 0.0
H2375 H 0.37258 0.76309 0.98343 0.0
H2376 H 0.33038 0.75454 0.91841 0.0
H2377 H 0.39069 0.72652 0.93973 0.0
C2378 C 0.38728 0.71338 0.9106 0.0
C2379 C 0.3758 0.71142 0.89183 0.0
C2380 C 0.33971 0.75642 0.93262 0.0
C2381 C 0.36432 0.73507 0.92112 0.0
C2382 C 0.3335 0.76761 0.94749 0.0
C2383 C 0.34512 0.77023 0.96619 0.0
C2384 C 0.35767 0.74764 0.93642 0.0
C2385 C 0.36321 0.7616 0.96922 0.0
C2386 C 0.38162 0.72519 0.9253 0.0
C2387 C 0.35869 0.72148 0.88817 0.0
N2388 N 0.36888 0.7506 0.95455 0.0
N2389 N 0.35344 0.73286 0.90269 0.0
H2390 H 0.4098 0.35973 0.91466 0.0
H2391 H 0.3298 0.28453 0.96737 0.0
H2392 H 0.36887 0.31867 0.88099 0.0
H2393 H 0.35943 0.33587 0.99619 0.0
H2394 H 0.34766 0.29333 0.93716 0.0
H2395 H 0.39581 0.34722 0.94641 0.0
C2396 C 0.39831 0.34759 0.91417 0.0
C2397 C 0.39068 0.33988 0.89542 0.0
C2398 C 0.35028 0.30265 0.95011 0.0
C2399 C 0.37416 0.32589 0.93134 0.0
C2400 C 0.34012 0.29761 0.96739 0.0
C2401 C 0.34301 0.30953 0.98436 0.0
C2402 C 0.36367 0.31963 0.94979 0.0
C2403 C 0.3565 0.3264 0.98341 0.0
C2404 C 0.39012 0.34065 0.93215 0.0
C2405 C 0.37534 0.32464 0.89529 0.0
N2406 N 0.36633 0.33091 0.96648 0.0
N2407 N 0.36751 0.31817 0.91296 0.0
H2408 H 0.64111 0.69237 0.16974 0.0
H2409 H 0.60502 0.70848 0.27961 0.0
H2410 H 0.68094 0.69686 0.22473 0.0
H2411 H 0.56655 0.71013 0.22343 0.0
H2412 H 0.63258 0.70235 0.2602 0.0
H2413 H 0.61326 0.69742 0.1894 0.0
C2414 C 0.64393 0.69449 0.18598 0.0
C2415 C 0.66328 0.69424 0.19566 0.0
C2416 C 0.6181 0.70403 0.25212 0.0
C2417 C 0.63156 0.69981 0.21836 0.0
C2418 C 0.60229 0.70741 0.26323 0.0
C2419 C 0.58337 0.7099 0.25318 0.0
C2420 C 0.61501 0.70302 0.23077 0.0
C2421 C 0.58089 0.70859 0.23184 0.0
C2422 C 0.62807 0.6973 0.19722 0.0
C2423 C 0.66619 0.69679 0.21677 0.0
N2424 N 0.59647 0.70524 0.22139 0.0
N2425 N 0.65052 0.69947 0.22742 0.0
H2426 H 0.35097 0.6522 0.18637 0.0
H2427 H 0.39254 0.55695 0.24542 0.0
H2428 H 0.39256 0.61802 0.16238 0.0
H2429 H 0.34091 0.58327 0.26038 0.0
H2430 H 0.39749 0.58292 0.21875 0.0
H2431 H 0.35161 0.63061 0.21735 0.0
C2432 C 0.36041 0.64022 0.18788 0.0
C2433 C 0.37177 0.63675 0.17209 0.0
C2434 C 0.3852 0.5831 0.22803 0.0
C2435 C 0.37262 0.61203 0.20712 0.0
C2436 C 0.38248 0.56839 0.24331 0.0
C2437 C 0.36618 0.56791 0.25492 0.0
C2438 C 0.37163 0.59747 0.22454 0.0
C2439 C 0.35347 0.58298 0.25151 0.0
C2440 C 0.36079 0.62792 0.20544 0.0
C2441 C 0.3838 0.62115 0.17447 0.0
N2442 N 0.3564 0.59708 0.23659 0.0
N2443 N 0.38387 0.60925 0.19166 0.0
H2444 H 0.39778 0.30101 0.21436 0.0
H2445 H 0.50965 0.29068 0.26294 0.0
H2446 H 0.44168 0.35074 0.21905 0.0
H2447 H 0.47116 0.24282 0.23665 0.0
H2448 H 0.48399 0.31308 0.25123 0.0
H2449 H 0.42376 0.27934 0.22598 0.0
C2450 C 0.41295 0.30732 0.2176 0.0
C2451 C 0.41759 0.32767 0.21576 0.0
C2452 C 0.48124 0.29764 0.2481 0.0
C2453 C 0.44735 0.30308 0.22972 0.0
C2454 C 0.49579 0.28487 0.2549 0.0
C2455 C 0.49259 0.26487 0.2507 0.0
C2456 C 0.46327 0.29024 0.23739 0.0
C2457 C 0.47438 0.25814 0.24011 0.0
C2458 C 0.42776 0.295 0.22442 0.0
C2459 C 0.43745 0.33515 0.2206 0.0
N2460 N 0.46046 0.27073 0.23391 0.0
N2461 N 0.45159 0.3229 0.22751 0.0
H2462 H 0.7203 0.38218 0.21853 0.0
H2463 H 0.75693 0.49041 0.17898 0.0
H2464 H 0.69986 0.40722 0.15983 0.0
H2465 H 0.76504 0.47127 0.24239 0.0
H2466 H 0.73663 0.4598 0.17156 0.0
H2467 H 0.73807 0.41402 0.22732 0.0
C2468 C 0.71961 0.39444 0.20751 0.0
C2469 C 0.70861 0.39217 0.18846 0.0
C2470 C 0.74261 0.46232 0.18715 0.0
C2471 C 0.72893 0.42852 0.19826 0.0
C2472 C 0.75416 0.47984 0.19143 0.0
C2473 C 0.76263 0.48339 0.21135 0.0
C2474 C 0.73975 0.44799 0.20284 0.0
C2475 C 0.75861 0.46918 0.22686 0.0
C2476 C 0.72969 0.41258 0.21252 0.0
C2477 C 0.7084 0.40834 0.17455 0.0
N2478 N 0.74764 0.45195 0.22224 0.0
N2479 N 0.71841 0.42583 0.17972 0.0
H2480 H 0.63869 0.3913 0.82762 0.0
H2481 H 0.59336 0.29391 0.77151 0.0
H2482 H 0.67269 0.34444 0.81442 0.0
H2483 H 0.55703 0.33445 0.79476 0.0
H2484 H 0.62275 0.3164 0.78002 0.0
H2485 H 0.60895 0.37454 0.80913 0.0
C2486 C 0.63984 0.37762 0.8205 0.0
C2487 C 0.65787 0.36901 0.82256 0.0
C2488 C 0.60833 0.32052 0.78303 0.0
C2489 C 0.62436 0.34986 0.80156 0.0
C2490 C 0.5915 0.3077 0.77811 0.0
C2491 C 0.57271 0.31213 0.78276 0.0
C2492 C 0.60644 0.33789 0.79279 0.0
C2493 C 0.57123 0.33035 0.79107 0.0
C2494 C 0.62298 0.36805 0.81004 0.0
C2495 C 0.65888 0.35131 0.81322 0.0
N2496 N 0.58793 0.34245 0.79612 0.0
N2497 N 0.64232 0.34224 0.80323 0.0
H2498 H 0.7303 0.61659 0.85402 0.0
H2499 H 0.78404 0.57898 0.76198 0.0
H2500 H 0.73613 0.65087 0.79798 0.0
H2501 H 0.79077 0.55648 0.82434 0.0
H2502 H 0.76057 0.60151 0.77181 0.0
H2503 H 0.74632 0.59034 0.84019 0.0
C2504 C 0.73485 0.61843 0.83869 0.0
C2505 C 0.73217 0.63589 0.82718 0.0
C2506 C 0.76701 0.59142 0.78322 0.0
C2507 C 0.75055 0.60602 0.81115 0.0
C2508 C 0.78023 0.57851 0.77758 0.0
C2509 C 0.78935 0.56599 0.79242 0.0
C2510 C 0.76276 0.59144 0.80371 0.0
C2511 C 0.78416 0.56603 0.81248 0.0
C2512 C 0.74398 0.6035 0.83077 0.0
C2513 C 0.73802 0.63756 0.80727 0.0
N2514 N 0.7713 0.57855 0.81752 0.0
N2515 N 0.74714 0.62288 0.79991 0.0
H2516 H 0.40133 0.71557 0.81855 0.0
H2517 H 0.5105 0.68866 0.80615 0.0
H2518 H 0.42626 0.6659 0.85032 0.0
H2519 H 0.48022 0.73046 0.76611 0.0
H2520 H 0.47898 0.67763 0.82002 0.0
H2521 H 0.42891 0.7191 0.79684 0.0
C2522 C 0.41254 0.70522 0.82061 0.0
C2523 C 0.41173 0.69049 0.83611 0.0
C2524 C 0.47916 0.68897 0.80795 0.0
C2525 C 0.44352 0.69454 0.8118 0.0
C2526 C 0.49717 0.69527 0.79997 0.0
C2527 C 0.49813 0.71071 0.7851 0.0
C2528 C 0.46199 0.69833 0.80119 0.0
C2529 C 0.4803 0.71862 0.77765 0.0
C2530 C 0.42827 0.70719 0.8083 0.0
C2531 C 0.4265 0.67739 0.8384 0.0
N2532 N 0.46308 0.71257 0.786 0.0
N2533 N 0.442 0.67988 0.82658 0.0
H2534 H 0.35809 0.37853 0.83084 0.0
H2535 H 0.39747 0.48032 0.77593 0.0
H2536 H 0.41829 0.40487 0.84086 0.0
H2537 H 0.33558 0.45806 0.77284 0.0
H2538 H 0.40588 0.45157 0.79759 0.0
H2539 H 0.34979 0.40664 0.80794 0.0
C2540 C 0.3695 0.39032 0.82825 0.0
C2541 C 0.38887 0.38946 0.83769 0.0
C2542 C 0.39046 0.45296 0.79214 0.0
C2543 C 0.3797 0.42149 0.81136 0.0
C2544 C 0.38567 0.46932 0.77964 0.0
C2545 C 0.36577 0.47171 0.77263 0.0
C2546 C 0.37526 0.43878 0.79758 0.0
C2547 C 0.35108 0.45702 0.77814 0.0
C2548 C 0.36483 0.4063 0.81513 0.0
C2549 C 0.40324 0.40495 0.83367 0.0
N2550 N 0.35611 0.44124 0.79026 0.0
N2551 N 0.39839 0.4203 0.8208 0.0
H2552 H 0.73747 0.67757 0.20285 0.0
H2553 H 0.77625 0.584 0.15601 0.0
H2554 H 0.71331 0.65578 0.14468 0.0
H2555 H 0.78843 0.59982 0.21875 0.0
H2556 H 0.75789 0.61331 0.14885 0.0
H2557 H 0.76144 0.65278 0.20589 0.0
C2558 C 0.73758 0.66774 0.19053 0.0
C2559 C 0.72346 0.66857 0.17356 0.0
C2560 C 0.76472 0.61041 0.16413 0.0
C2561 C 0.75053 0.63988 0.17697 0.0
C2562 C 0.77526 0.59375 0.16819 0.0
C2563 C 0.7837 0.58935 0.18806 0.0
C2564 C 0.76286 0.62288 0.18 0.0
C2565 C 0.78188 0.60244 0.20332 0.0
C2566 C 0.75112 0.65351 0.19229 0.0
C2567 C 0.72408 0.65557 0.15794 0.0
N2568 N 0.77167 0.61852 0.19898 0.0
N2569 N 0.73726 0.64157 0.1601 0.0
H2570 H 0.69944 0.43545 0.84834 0.0
H2571 H 0.81694 0.45986 0.84342 0.0
H2572 H 0.74047 0.3914 0.84724 0.0
H2573 H 0.77406 0.5021 0.8283 0.0
H2574 H 0.78995 0.43557 0.85282 0.0
H2575 H 0.72745 0.46102 0.848 0.0
C2576 C 0.7144 0.43125 0.84811 0.0
C2577 C 0.71778 0.41145 0.84773 0.0
C2578 C 0.7865 0.45025 0.84774 0.0
C2579 C 0.74978 0.4403 0.84762 0.0
C2580 C 0.8019 0.46412 0.8426 0.0
C2581 C 0.79759 0.48287 0.83494 0.0
C2582 C 0.76675 0.4553 0.84531 0.0
C2583 C 0.77786 0.48767 0.83392 0.0
C2584 C 0.73035 0.44574 0.84803 0.0
C2585 C 0.73738 0.40656 0.84772 0.0
N2586 N 0.76314 0.47393 0.83887 0.0
N2587 N 0.75267 0.4209 0.84758 0.0
H2588 H 0.6806 0.68112 0.87004 0.0
H2589 H 0.61466 0.74417 0.78804 0.0
H2590 H 0.69844 0.70177 0.81126 0.0
H2591 H 0.59744 0.72814 0.84837 0.0
H2592 H 0.64616 0.73005 0.79725 0.0
H2593 H 0.65123 0.69998 0.86386 0.0
C2594 C 0.67848 0.68995 0.85601 0.0
C2595 C 0.69178 0.68985 0.84105 0.0
C2596 C 0.63557 0.72965 0.80856 0.0
C2597 C 0.65823 0.71111 0.83365 0.0
C2598 C 0.61747 0.73762 0.80324 0.0
C2599 C 0.60321 0.73718 0.81736 0.0
C2600 C 0.63957 0.72097 0.82816 0.0
C2601 C 0.60797 0.72887 0.837 0.0
C2602 C 0.66169 0.70058 0.8524 0.0
C2603 C 0.68836 0.70134 0.82304 0.0
N2604 N 0.62565 0.72095 0.84176 0.0
N2605 N 0.67187 0.71134 0.81976 0.0
H2606 H 0.37683 0.67632 0.81276 0.0
H2607 H 0.33367 0.56371 0.80838 0.0
H2608 H 0.37511 0.63878 0.86718 0.0
H2609 H 0.36054 0.59597 0.75861 0.0
H2610 H 0.34368 0.59207 0.82995 0.0
H2611 H 0.36615 0.6478 0.79215 0.0
C2612 C 0.3744 0.66201 0.82033 0.0
C2613 C 0.37697 0.65984 0.84164 0.0
C2614 C 0.34733 0.59282 0.81429 0.0
C2615 C 0.36412 0.62723 0.81829 0.0
C2616 C 0.34154 0.57674 0.80199 0.0
C2617 C 0.34639 0.57744 0.78174 0.0
C2618 C 0.35761 0.60977 0.80605 0.0
C2619 C 0.35665 0.59467 0.77419 0.0
C2620 C 0.36814 0.64577 0.80861 0.0
C2621 C 0.37307 0.64105 0.85077 0.0
N2622 N 0.36181 0.61012 0.78629 0.0
N2623 N 0.36673 0.62544 0.83905 0.0
H2624 H 0.40531 0.30866 0.86585 0.0
H2625 H 0.51226 0.30641 0.83194 0.0
H2626 H 0.44971 0.35759 0.87361 0.0
H2627 H 0.48337 0.25324 0.85728 0.0
H2628 H 0.48775 0.3252 0.84517 0.0
H2629 H 0.43189 0.28718 0.86219 0.0
C2630 C 0.42072 0.31467 0.86754 0.0
C2631 C 0.42545 0.33484 0.87001 0.0
C2632 C 0.48684 0.30944 0.84805 0.0
C2633 C 0.45562 0.31081 0.86505 0.0
C2634 C 0.50074 0.29875 0.84039 0.0
C2635 C 0.49979 0.27832 0.84357 0.0
C2636 C 0.47147 0.29962 0.85851 0.0
C2637 C 0.48461 0.26902 0.85467 0.0
C2638 C 0.43583 0.30251 0.86526 0.0
C2639 C 0.44556 0.34209 0.87169 0.0
N2640 N 0.4708 0.2797 0.86149 0.0
N2641 N 0.45986 0.33021 0.86873 0.0
H2642 H 0.36302 0.36163 0.24818 0.0
H2643 H 0.33147 0.47217 0.23556 0.0
H2644 H 0.37624 0.39977 0.19641 0.0
H2645 H 0.33866 0.43952 0.29311 0.0
H2646 H 0.34116 0.44384 0.21839 0.0
H2647 H 0.34752 0.38819 0.26241 0.0
C2648 C 0.36253 0.37565 0.23983 0.0
C2649 C 0.37104 0.3787 0.22129 0.0
C2650 C 0.34034 0.44285 0.23474 0.0
C2651 C 0.35318 0.40908 0.2372 0.0
C2652 C 0.33462 0.45891 0.24448 0.0
C2653 C 0.33429 0.45816 0.26577 0.0
C2654 C 0.34539 0.4259 0.24638 0.0
C2655 C 0.33881 0.44074 0.27667 0.0
C2656 C 0.3537 0.39078 0.24788 0.0
C2657 C 0.36987 0.39699 0.21082 0.0
N2658 N 0.34416 0.42538 0.2669 0.0
N2659 N 0.36116 0.41156 0.21893 0.0
H2660 H 0.6362 0.35251 0.19046 0.0
H2661 H 0.61054 0.23863 0.22106 0.0
H2662 H 0.67943 0.31005 0.19642 0.0
H2663 H 0.56791 0.28178 0.21833 0.0
H2664 H 0.63546 0.26414 0.21014 0.0
H2665 H 0.61059 0.32663 0.19975 0.0
C2666 C 0.64025 0.33772 0.19405 0.0
C2667 C 0.65983 0.3333 0.19307 0.0
C2668 C 0.62062 0.26802 0.21183 0.0
C2669 C 0.6308 0.30359 0.20315 0.0
C2670 C 0.60631 0.25339 0.21787 0.0
C2671 C 0.58709 0.25807 0.22071 0.0
C2672 C 0.6157 0.28748 0.20855 0.0
C2673 C 0.5826 0.27757 0.21661 0.0
C2674 C 0.62569 0.32294 0.19917 0.0
C2675 C 0.66443 0.31392 0.19727 0.0
N2676 N 0.5968 0.29155 0.21083 0.0
N2677 N 0.65002 0.29974 0.20214 0.0
H2678 H 0.38687 0.69737 0.1655 0.0
H2679 H 0.49054 0.67916 0.22799 0.0
H2680 H 0.41737 0.64627 0.15841 0.0
H2681 H 0.46898 0.73653 0.21888 0.0
H2682 H 0.46322 0.66616 0.20399 0.0
H2683 H 0.41597 0.71135 0.18688 0.0
C2684 C 0.39981 0.68918 0.16849 0.0
C2685 C 0.39991 0.67073 0.16031 0.0
C2686 C 0.46457 0.68162 0.2071 0.0
C2687 C 0.43301 0.68634 0.18481 0.0
C2688 C 0.48014 0.68906 0.22081 0.0
C2689 C 0.48198 0.70895 0.22549 0.0
C2690 C 0.45055 0.69409 0.19822 0.0
C2691 C 0.46813 0.72112 0.21568 0.0
C2692 C 0.41636 0.6971 0.18062 0.0
C2693 C 0.41677 0.66044 0.16471 0.0
N2694 N 0.45286 0.71344 0.20266 0.0
N2695 N 0.43269 0.66835 0.17676 0.0
loop_
_geom_bond_atom_site_label_1
_geom_bond_atom_site_label_2
_geom_bond_distance
_geom_bond_site_symmetry_2
_ccdc_geom_bond_type
C0 N1 1.317 . S
C0 N2 1.348 . S
C0 C3 1.485 . S
N1 C0 1.317 . S
N1 N5 1.370 . S
N2 C0 1.348 . S
N2 C4 1.346 . S
C3 C0 1.485 . S
C3 H7 0.960 . S
C3 H8 0.961 . S
C3 H9 0.960 . S
C4 N2 1.346 . S
C4 N5 1.307 . S
C4 C6 1.486 . S
N5 N1 1.370 . S
N5 C4 1.307 . S
C6 C4 1.486 . S
C6 H10 0.960 . S
C6 H11 0.960 . S
C6 H12 0.959 . S
H7 C3 0.960 . S
H8 C3 0.961 . S
H9 C3 0.960 . S
H10 C6 0.960 . S
H11 C6 0.960 . S
H12 C6 0.959 . S
C13 N14 1.317 . S
C13 N15 1.348 . S
C13 C16 1.485 . S
N14 C13 1.317 . S
N14 N18 1.370 . S
N15 C13 1.348 . S
N15 C17 1.346 . S
C16 C13 1.485 . S
C16 H20 0.960 . S
C16 H21 0.961 . S
C16 H22 0.960 . S
C17 N15 1.346 . S
C17 N18 1.307 . S
C17 C19 1.486 . S
N18 N14 1.370 . S
N18 C17 1.307 . S
C19 C17 1.486 . S
C19 H23 0.960 . S
C19 H24 0.960 . S
C19 H25 0.959 . S
H20 C16 0.960 . S
H21 C16 0.961 . S
H22 C16 0.960 . S
H23 C19 0.960 . S
H24 C19 0.960 . S
H25 C19 0.959 . S
C26 N27 1.317 . S
C26 N28 1.348 . S
C26 C29 1.485 . S
N27 C26 1.317 . S
N27 N31 1.370 . S
N28 C26 1.348 . S
N28 C30 1.346 . S
C29 C26 1.485 . S
C29 H33 0.960 . S
C29 H34 0.961 . S
C29 H35 0.960 . S
C30 N28 1.346 . S
C30 N31 1.307 . S
C30 C32 1.486 . S
N31 N27 1.370 . S
N31 C30 1.307 . S
C32 C30 1.486 . S
C32 H36 0.960 . S
C32 H37 0.960 . S
C32 H38 0.959 . S
H33 C29 0.960 . S
H34 C29 0.961 . S
H35 C29 0.960 . S
H36 C32 0.960 . S
H37 C32 0.960 . S
H38 C32 0.959 . S
C39 N40 1.317 . S
C39 N41 1.348 . S
C39 C42 1.485 . S
N40 C39 1.317 . S
N40 N44 1.370 . S
N41 C39 1.348 . S
N41 C43 1.346 . S
C42 C39 1.485 . S
C42 H46 0.960 . S
C42 H47 0.961 . S
C42 H48 0.960 . S
C43 N41 1.346 . S
C43 N44 1.307 . S
C43 C45 1.486 . S
N44 N40 1.370 . S
N44 C43 1.307 . S
C45 C43 1.486 . S
C45 H49 0.960 . S
C45 H50 0.960 . S
C45 H51 0.959 . S
H46 C42 0.960 . S
H47 C42 0.961 . S
H48 C42 0.960 . S
H49 C45 0.960 . S
H50 C45 0.960 . S
H51 C45 0.959 . S
C52 N53 1.317 . S
C52 N54 1.348 . S
C52 C55 1.485 . S
N53 C52 1.317 . S
N53 N57 1.370 . S
N54 C52 1.348 . S
N54 C56 1.346 . S
C55 C52 1.485 . S
C55 H59 0.960 . S
C55 H60 0.961 . S
C55 H61 0.960 . S
C56 N54 1.346 . S
C56 N57 1.307 . S
C56 C58 1.486 . S
N57 N53 1.370 . S
N57 C56 1.307 . S
C58 C56 1.486 . S
C58 H62 0.960 . S
C58 H63 0.960 . S
C58 H64 0.959 . S
H59 C55 0.960 . S
H60 C55 0.961 . S
H61 C55 0.960 . S
H62 C58 0.960 . S
H63 C58 0.960 . S
H64 C58 0.959 . S
C65 N66 1.317 . S
C65 N67 1.348 . S
C65 C68 1.485 . S
N66 C65 1.317 . S
N66 N70 1.370 . S
N67 C65 1.348 . S
N67 C69 1.346 . S
C68 C65 1.485 . S
C68 H72 0.960 . S
C68 H73 0.961 . S
C68 H74 0.960 . S
C69 N67 1.346 . S
C69 N70 1.307 . S
C69 C71 1.486 . S
N70 N66 1.370 . S
N70 C69 1.307 . S
C71 C69 1.486 . S
C71 H75 0.960 . S
C71 H76 0.960 . S
C71 H77 0.959 . S
H72 C68 0.960 . S
H73 C68 0.961 . S
H74 C68 0.960 . S
H75 C71 0.960 . S
H76 C71 0.960 . S
H77 C71 0.959 . S
C78 N79 1.317 . S
C78 N80 1.348 . S
C78 C81 1.485 . S
N79 C78 1.317 . S
N79 N83 1.370 . S
N80 C78 1.348 . S
N80 C82 1.346 . S
C81 C78 1.485 . S
C81 H85 0.960 . S
C81 H86 0.961 . S
C81 H87 0.960 . S
C82 N80 1.346 . S
C82 N83 1.307 . S
C82 C84 1.486 . S
N83 N79 1.370 . S
N83 C82 1.307 . S
C84 C82 1.486 . S
C84 H88 0.960 . S
C84 H89 0.960 . S
C84 H90 0.959 . S
H85 C81 0.960 . S
H86 C81 0.961 . S
H87 C81 0.960 . S
H88 C84 0.960 . S
H89 C84 0.960 . S
H90 C84 0.959 . S
C91 N92 1.317 . S
C91 N93 1.348 . S
C91 C94 1.485 . S
N92 C91 1.317 . S
N92 N96 1.370 . S
N93 C91 1.348 . S
N93 C95 1.346 . S
C94 C91 1.485 . S
C94 H98 0.960 . S
C94 H99 0.961 . S
C94 H100 0.960 . S
C95 N93 1.346 . S
C95 N96 1.307 . S
C95 C97 1.486 . S
N96 N92 1.370 . S
N96 C95 1.307 . S
C97 C95 1.486 . S
C97 H101 0.960 . S
C97 H102 0.960 . S
C97 H103 0.959 . S
H98 C94 0.960 . S
H99 C94 0.961 . S
H100 C94 0.960 . S
H101 C97 0.960 . S
H102 C97 0.960 . S
H103 C97 0.959 . S
C104 N105 1.317 . S
C104 N106 1.348 . S
C104 C107 1.485 . S
N105 C104 1.317 . S
N105 N109 1.370 . S
N106 C104 1.348 . S
N106 C108 1.346 . S
C107 C104 1.485 . S
C107 H111 0.960 . S
C107 H112 0.961 . S
C107 H113 0.960 . S
C108 N106 1.346 . S
C108 N109 1.307 . S
C108 C110 1.486 . S
N109 N105 1.370 . S
N109 C108 1.307 . S
C110 C108 1.486 . S
C110 H114 0.960 . S
C110 H115 0.960 . S
C110 H116 0.959 . S
H111 C107 0.960 . S
H112 C107 0.961 . S
H113 C107 0.960 . S
H114 C110 0.960 . S
H115 C110 0.960 . S
H116 C110 0.959 . S
C117 N118 1.317 . S
C117 N119 1.348 . S
C117 C120 1.485 . S
N118 C117 1.317 . S
N118 N122 1.370 . S
N119 C117 1.348 . S
N119 C121 1.346 . S
C120 C117 1.485 . S
C120 H124 0.960 . S
C120 H125 0.961 . S
C120 H126 0.960 . S
C121 N119 1.346 . S
C121 N122 1.307 . S
C121 C123 1.486 . S
N122 N118 1.370 . S
N122 C121 1.307 . S
C123 C121 1.486 . S
C123 H127 0.960 . S
C123 H128 0.960 . S
C123 H129 0.959 . S
H124 C120 0.960 . S
H125 C120 0.961 . S
H126 C120 0.960 . S
H127 C123 0.960 . S
H128 C123 0.960 . S
H129 C123 0.959 . S
C130 N131 1.317 . S
C130 N132 1.348 . S
C130 C133 1.485 . S
N131 C130 1.317 . S
N131 N135 1.370 . S
N132 C130 1.348 . S
N132 C134 1.346 . S
C133 C130 1.485 . S
C133 H137 0.960 . S
C133 H138 0.961 . S
C133 H139 0.960 . S
C134 N132 1.346 . S
C134 N135 1.307 . S
C134 C136 1.486 . S
N135 N131 1.370 . S
N135 C134 1.307 . S
C136 C134 1.486 . S
C136 H140 0.960 . S
C136 H141 0.960 . S
C136 H142 0.959 . S
H137 C133 0.960 . S
H138 C133 0.961 . S
H139 C133 0.960 . S
H140 C136 0.960 . S
H141 C136 0.960 . S
H142 C136 0.959 . S
C143 N144 1.317 . S
C143 N145 1.348 . S
C143 C146 1.485 . S
N144 C143 1.317 . S
N144 N148 1.370 . S
N145 C143 1.348 . S
N145 C147 1.346 . S
C146 C143 1.485 . S
C146 H150 0.960 . S
C146 H151 0.961 . S
C146 H152 0.960 . S
C147 N145 1.346 . S
C147 N148 1.307 . S
C147 C149 1.486 . S
N148 N144 1.370 . S
N148 C147 1.307 . S
C149 C147 1.486 . S
C149 H153 0.960 . S
C149 H154 0.960 . S
C149 H155 0.959 . S
H150 C146 0.960 . S
H151 C146 0.961 . S
H152 C146 0.960 . S
H153 C149 0.960 . S
H154 C149 0.960 . S
H155 C149 0.959 . S
C156 N157 1.317 . S
C156 N158 1.348 . S
C156 C159 1.485 . S
N157 C156 1.317 . S
N157 N161 1.370 . S
N158 C156 1.348 . S
N158 C160 1.346 . S
C159 C156 1.485 . S
C159 H163 0.960 . S
C159 H164 0.961 . S
C159 H165 0.960 . S
C160 N158 1.346 . S
C160 N161 1.307 . S
C160 C162 1.486 . S
N161 N157 1.370 . S
N161 C160 1.307 . S
C162 C160 1.486 . S
C162 H166 0.960 . S
C162 H167 0.960 . S
C162 H168 0.959 . S
H163 C159 0.960 . S
H164 C159 0.961 . S
H165 C159 0.960 . S
H166 C162 0.960 . S
H167 C162 0.960 . S
H168 C162 0.959 . S
C169 N170 1.317 . S
C169 N171 1.348 . S
C169 C172 1.485 . S
N170 C169 1.317 . S
N170 N174 1.370 . S
N171 C169 1.348 . S
N171 C173 1.346 . S
C172 C169 1.485 . S
C172 H176 0.960 . S
C172 H177 0.961 . S
C172 H178 0.960 . S
C173 N171 1.346 . S
C173 N174 1.307 . S
C173 C175 1.486 . S
N174 N170 1.370 . S
N174 C173 1.307 . S
C175 C173 1.486 . S
C175 H179 0.960 . S
C175 H180 0.960 . S
C175 H181 0.959 . S
H176 C172 0.960 . S
H177 C172 0.961 . S
H178 C172 0.960 . S
H179 C175 0.960 . S
H180 C175 0.960 . S
H181 C175 0.959 . S
C182 N183 1.317 . S
C182 N184 1.348 . S
C182 C185 1.485 . S
N183 C182 1.317 . S
N183 N187 1.370 . S
N184 C182 1.348 . S
N184 C186 1.346 . S
C185 C182 1.485 . S
C185 H189 0.960 . S
C185 H190 0.961 . S
C185 H191 0.960 . S
C186 N184 1.346 . S
C186 N187 1.307 . S
C186 C188 1.486 . S
N187 N183 1.370 . S
N187 C186 1.307 . S
C188 C186 1.486 . S
C188 H192 0.960 . S
C188 H193 0.960 . S
C188 H194 0.959 . S
H189 C185 0.960 . S
H190 C185 0.961 . S
H191 C185 0.960 . S
H192 C188 0.960 . S
H193 C188 0.960 . S
H194 C188 0.959 . S
C195 N196 1.317 . S
C195 N197 1.348 . S
C195 C198 1.485 . S
N196 C195 1.317 . S
N196 N200 1.370 . S
N197 C195 1.348 . S
N197 C199 1.346 . S
C198 C195 1.485 . S
C198 H202 0.960 . S
C198 H203 0.961 . S
C198 H204 0.960 . S
C199 N197 1.346 . S
C199 N200 1.307 . S
C199 C201 1.486 . S
N200 N196 1.370 . S
N200 C199 1.307 . S
C201 C199 1.486 . S
C201 H205 0.960 . S
C201 H206 0.960 . S
C201 H207 0.959 . S
H202 C198 0.960 . S
H203 C198 0.961 . S
H204 C198 0.960 . S
H205 C201 0.960 . S
H206 C201 0.960 . S
H207 C201 0.959 . S
C208 N209 1.317 . S
C208 N210 1.348 . S
C208 C211 1.485 . S
N209 C208 1.317 . S
N209 N213 1.370 . S
N210 C208 1.348 . S
N210 C212 1.346 . S
C211 C208 1.485 . S
C211 H215 0.960 . S
C211 H216 0.961 . S
C211 H217 0.960 . S
C212 N210 1.346 . S
C212 N213 1.307 . S
C212 C214 1.486 . S
N213 N209 1.370 . S
N213 C212 1.307 . S
C214 C212 1.486 . S
C214 H218 0.960 . S
C214 H219 0.960 . S
C214 H220 0.959 . S
H215 C211 0.960 . S
H216 C211 0.961 . S
H217 C211 0.960 . S
H218 C214 0.960 . S
H219 C214 0.960 . S
H220 C214 0.959 . S
C221 N222 1.317 . S
C221 N223 1.348 . S
C221 C224 1.485 . S
N222 C221 1.317 . S
N222 N226 1.370 . S
N223 C221 1.348 . S
N223 C225 1.346 . S
C224 C221 1.485 . S
C224 H228 0.960 . S
C224 H229 0.961 . S
C224 H230 0.960 . S
C225 N223 1.346 . S
C225 N226 1.307 . S
C225 C227 1.486 . S
N226 N222 1.370 . S
N226 C225 1.307 . S
C227 C225 1.486 . S
C227 H231 0.960 . S
C227 H232 0.960 . S
C227 H233 0.959 . S
H228 C224 0.960 . S
H229 C224 0.961 . S
H230 C224 0.960 . S
H231 C227 0.960 . S
H232 C227 0.960 . S
H233 C227 0.959 . S
C234 N235 1.317 . S
C234 N236 1.348 . S
C234 C237 1.485 . S
N235 C234 1.317 . S
N235 N239 1.370 . S
N236 C234 1.348 . S
N236 C238 1.346 . S
C237 C234 1.485 . S
C237 H241 0.960 . S
C237 H242 0.961 . S
C237 H243 0.960 . S
C238 N236 1.346 . S
C238 N239 1.307 . S
C238 C240 1.486 . S
N239 N235 1.370 . S
N239 C238 1.307 . S
C240 C238 1.486 . S
C240 H244 0.960 . S
C240 H245 0.960 . S
C240 H246 0.959 . S
H241 C237 0.960 . S
H242 C237 0.961 . S
H243 C237 0.960 . S
H244 C240 0.960 . S
H245 C240 0.960 . S
H246 C240 0.959 . S
C247 N248 1.317 . S
C247 N249 1.348 . S
C247 C250 1.485 . S
N248 C247 1.317 . S
N248 N252 1.370 . S
N249 C247 1.348 . S
N249 C251 1.346 . S
C250 C247 1.485 . S
C250 H254 0.960 . S
C250 H255 0.961 . S
C250 H256 0.960 . S
C251 N249 1.346 . S
C251 N252 1.307 . S
C251 C253 1.486 . S
N252 N248 1.370 . S
N252 C251 1.307 . S
C253 C251 1.486 . S
C253 H257 0.960 . S
C253 H258 0.960 . S
C253 H259 0.959 . S
H254 C250 0.960 . S
H255 C250 0.961 . S
H256 C250 0.960 . S
H257 C253 0.960 . S
H258 C253 0.960 . S
H259 C253 0.959 . S
C260 N261 1.317 . S
C260 N262 1.348 . S
C260 C263 1.485 . S
N261 C260 1.317 . S
N261 N265 1.370 . S
N262 C260 1.348 . S
N262 C264 1.346 . S
C263 C260 1.485 . S
C263 H267 0.960 . S
C263 H268 0.961 . S
C263 H269 0.960 . S
C264 N262 1.346 . S
C264 N265 1.307 . S
C264 C266 1.486 . S
N265 N261 1.370 . S
N265 C264 1.307 . S
C266 C264 1.486 . S
C266 H270 0.960 . S
C266 H271 0.960 . S
C266 H272 0.959 . S
H267 C263 0.960 . S
H268 C263 0.961 . S
H269 C263 0.960 . S
H270 C266 0.960 . S
H271 C266 0.960 . S
H272 C266 0.959 . S
C273 N274 1.317 . S
C273 N275 1.348 . S
C273 C276 1.485 . S
N274 C273 1.317 . S
N274 N278 1.370 . S
N275 C273 1.348 . S
N275 C277 1.346 . S
C276 C273 1.485 . S
C276 H280 0.960 . S
C276 H281 0.961 . S
C276 H282 0.960 . S
C277 N275 1.346 . S
C277 N278 1.307 . S
C277 C279 1.486 . S
N278 N274 1.370 . S
N278 C277 1.307 . S
C279 C277 1.486 . S
C279 H283 0.960 . S
C279 H284 0.960 . S
C279 H285 0.959 . S
H280 C276 0.960 . S
H281 C276 0.961 . S
H282 C276 0.960 . S
H283 C279 0.960 . S
H284 C279 0.960 . S
H285 C279 0.959 . S
C286 N287 1.317 . S
C286 N288 1.348 . S
C286 C289 1.485 . S
N287 C286 1.317 . S
N287 N291 1.370 . S
N288 C286 1.348 . S
N288 C290 1.346 . S
C289 C286 1.485 . S
C289 H293 0.960 . S
C289 H294 0.961 . S
C289 H295 0.960 . S
C290 N288 1.346 . S
C290 N291 1.307 . S
C290 C292 1.486 . S
N291 N287 1.370 . S
N291 C290 1.307 . S
C292 C290 1.486 . S
C292 H296 0.960 . S
C292 H297 0.960 . S
C292 H298 0.959 . S
H293 C289 0.960 . S
H294 C289 0.961 . S
H295 C289 0.960 . S
H296 C292 0.960 . S
H297 C292 0.960 . S
H298 C292 0.959 . S
C299 N300 1.317 . S
C299 N301 1.348 . S
C299 C302 1.485 . S
N300 C299 1.317 . S
N300 N304 1.370 . S
N301 C299 1.348 . S
N301 C303 1.346 . S
C302 C299 1.485 . S
C302 H306 0.960 . S
C302 H307 0.961 . S
C302 H308 0.960 . S
C303 N301 1.346 . S
C303 N304 1.307 . S
C303 C305 1.486 . S
N304 N300 1.370 . S
N304 C303 1.307 . S
C305 C303 1.486 . S
C305 H309 0.960 . S
C305 H310 0.960 . S
C305 H311 0.959 . S
H306 C302 0.960 . S
H307 C302 0.961 . S
H308 C302 0.960 . S
H309 C305 0.960 . S
H310 C305 0.960 . S
H311 C305 0.959 . S
C312 N313 1.317 . S
C312 N314 1.348 . S
C312 C315 1.485 . S
N313 C312 1.317 . S
N313 N317 1.370 . S
N314 C312 1.348 . S
N314 C316 1.346 . S
C315 C312 1.485 . S
C315 H319 0.960 . S
C315 H320 0.961 . S
C315 H321 0.960 . S
C316 N314 1.346 . S
C316 N317 1.307 . S
C316 C318 1.486 . S
N317 N313 1.370 . S
N317 C316 1.307 . S
C318 C316 1.486 . S
C318 H322 0.960 . S
C318 H323 0.960 . S
C318 H324 0.959 . S
H319 C315 0.960 . S
H320 C315 0.961 . S
H321 C315 0.960 . S
H322 C318 0.960 . S
H323 C318 0.960 . S
H324 C318 0.959 . S
C325 N326 1.317 . S
C325 N327 1.348 . S
C325 C328 1.485 . S
N326 C325 1.317 . S
N326 N330 1.370 . S
N327 C325 1.348 . S
N327 C329 1.346 . S
C328 C325 1.485 . S
C328 H332 0.960 . S
C328 H333 0.961 . S
C328 H334 0.960 . S
C329 N327 1.346 . S
C329 N330 1.307 . S
C329 C331 1.486 . S
N330 N326 1.370 . S
N330 C329 1.307 . S
C331 C329 1.486 . S
C331 H335 0.960 . S
C331 H336 0.960 . S
C331 H337 0.959 . S
H332 C328 0.960 . S
H333 C328 0.961 . S
H334 C328 0.960 . S
H335 C331 0.960 . S
H336 C331 0.960 . S
H337 C331 0.959 . S
C338 N339 1.317 . S
C338 N340 1.348 . S
C338 C341 1.485 . S
N339 C338 1.317 . S
N339 N343 1.370 . S
N340 C338 1.348 . S
N340 C342 1.346 . S
C341 C338 1.485 . S
C341 H345 0.960 . S
C341 H346 0.961 . S
C341 H347 0.960 . S
C342 N340 1.346 . S
C342 N343 1.307 . S
C342 C344 1.486 . S
N343 N339 1.370 . S
N343 C342 1.307 . S
C344 C342 1.486 . S
C344 H348 0.960 . S
C344 H349 0.960 . S
C344 H350 0.959 . S
H345 C341 0.960 . S
H346 C341 0.961 . S
H347 C341 0.960 . S
H348 C344 0.960 . S
H349 C344 0.960 . S
H350 C344 0.959 . S
C351 N352 1.317 . S
C351 N353 1.348 . S
C351 C354 1.485 . S
N352 C351 1.317 . S
N352 N356 1.370 . S
N353 C351 1.348 . S
N353 C355 1.346 . S
C354 C351 1.485 . S
C354 H358 0.960 . S
C354 H359 0.961 . S
C354 H360 0.960 . S
C355 N353 1.346 . S
C355 N356 1.307 . S
C355 C357 1.486 . S
N356 N352 1.370 . S
N356 C355 1.307 . S
C357 C355 1.486 . S
C357 H361 0.960 . S
C357 H362 0.960 . S
C357 H363 0.959 . S
H358 C354 0.960 . S
H359 C354 0.961 . S
H360 C354 0.960 . S
H361 C357 0.960 . S
H362 C357 0.960 . S
H363 C357 0.959 . S
C364 N365 1.317 . S
C364 N366 1.348 . S
C364 C367 1.485 . S
N365 C364 1.317 . S
N365 N369 1.370 . S
N366 C364 1.348 . S
N366 C368 1.346 . S
C367 C364 1.485 . S
C367 H371 0.960 . S
C367 H372 0.961 . S
C367 H373 0.960 . S
C368 N366 1.346 . S
C368 N369 1.307 . S
C368 C370 1.486 . S
N369 N365 1.370 . S
N369 C368 1.307 . S
C370 C368 1.486 . S
C370 H374 0.960 . S
C370 H375 0.960 . S
C370 H376 0.959 . S
H371 C367 0.960 . S
H372 C367 0.961 . S
H373 C367 0.960 . S
H374 C370 0.960 . S
H375 C370 0.960 . S
H376 C370 0.959 . S
C377 N378 1.317 . S
C377 N379 1.348 . S
C377 C380 1.485 . S
N378 C377 1.317 . S
N378 N382 1.370 . S
N379 C377 1.348 . S
N379 C381 1.346 . S
C380 C377 1.485 . S
C380 H384 0.960 . S
C380 H385 0.961 . S
C380 H386 0.960 . S
C381 N379 1.346 . S
C381 N382 1.307 . S
C381 C383 1.486 . S
N382 N378 1.370 . S
N382 C381 1.307 . S
C383 C381 1.486 . S
C383 H387 0.960 . S
C383 H388 0.960 . S
C383 H389 0.959 . S
H384 C380 0.960 . S
H385 C380 0.961 . S
H386 C380 0.960 . S
H387 C383 0.960 . S
H388 C383 0.960 . S
H389 C383 0.959 . S
C390 N391 1.317 . S
C390 N392 1.348 . S
C390 C393 1.485 . S
N391 C390 1.317 . S
N391 N395 1.370 . S
N392 C390 1.348 . S
N392 C394 1.346 . S
C393 C390 1.485 . S
C393 H397 0.960 . S
C393 H398 0.961 . S
C393 H399 0.960 . S
C394 N392 1.346 . S
C394 N395 1.307 . S
C394 C396 1.486 . S
N395 N391 1.370 . S
N395 C394 1.307 . S
C396 C394 1.486 . S
C396 H400 0.960 . S
C396 H401 0.960 . S
C396 H402 0.959 . S
H397 C393 0.960 . S
H398 C393 0.961 . S
H399 C393 0.960 . S
H400 C396 0.960 . S
H401 C396 0.960 . S
H402 C396 0.959 . S
C403 N404 1.317 . S
C403 N405 1.348 . S
C403 C406 1.485 . S
N404 C403 1.317 . S
N404 N408 1.370 . S
N405 C403 1.348 . S
N405 C407 1.346 . S
C406 C403 1.485 . S
C406 H410 0.960 . S
C406 H411 0.961 . S
C406 H412 0.960 . S
C407 N405 1.346 . S
C407 N408 1.307 . S
C407 C409 1.486 . S
N408 N404 1.370 . S
N408 C407 1.307 . S
C409 C407 1.486 . S
C409 H413 0.960 . S
C409 H414 0.960 . S
C409 H415 0.959 . S
H410 C406 0.960 . S
H411 C406 0.961 . S
H412 C406 0.960 . S
H413 C409 0.960 . S
H414 C409 0.960 . S
H415 C409 0.959 . S
Cu416 N417 1.999 . S
Cu416 O422 1.974 1_554 S
Cu416 N427 1.985 . S
Cu416 O436 1.959 . S
N417 Cu416 1.999 . S
N417 C419 1.263 1_554 S
N417 C421 1.389 . S
N418 C419 1.358 . S
N418 C420 1.400 . S
C419 N417 1.263 1_556 S
C419 N418 1.358 . S
C419 H425 0.930 . S
C420 N418 1.400 . S
C420 C421 1.351 1_556 S
C420 H437 0.930 . S
C421 N417 1.389 . S
C421 C420 1.351 1_554 S
C421 H426 0.930 . S
O422 Cu416 1.974 1_556 S
O422 C432 1.282 . S
C423 O424 1.261 . S
C423 O436 1.251 . S
O424 C423 1.261 . S
H425 C419 0.930 . S
H426 C421 0.930 . S
N427 Cu416 1.985 . S
N427 C429 1.335 . S
N427 C430 1.390 . S
N428 C429 1.345 . S
N428 C431 1.336 . S
C429 N427 1.335 . S
C429 N428 1.345 . S
C429 H434 0.930 . S
C430 N427 1.390 . S
C430 C431 1.346 . S
C430 H435 0.930 . S
C431 N428 1.336 . S
C431 C430 1.346 . S
C431 H438 0.929 . S
C432 O422 1.282 . S
C432 O433 1.216 . S
O433 C432 1.216 . S
H434 C429 0.930 . S
H435 C430 0.930 . S
O436 Cu416 1.959 . S
O436 C423 1.251 . S
H437 C420 0.930 . S
H438 C431 0.929 . S
Cu439 N440 1.999 . S
Cu439 O445 1.974 . S
Cu439 N450 1.985 1_554 S
Cu439 O459 1.959 1_554 S
N440 Cu439 1.999 . S
N440 C442 1.263 . S
N440 C444 1.389 . S
N441 C442 1.358 . S
N441 C443 1.400 . S
C442 N440 1.263 . S
C442 N441 1.358 . S
C442 H448 0.930 . S
C443 N441 1.400 . S
C443 C444 1.351 . S
C443 H460 0.930 . S
C444 N440 1.389 . S
C444 C443 1.351 . S
C444 H449 0.930 . S
O445 Cu439 1.974 . S
O445 C455 1.282 . S
C446 O447 1.261 . S
C446 O459 1.251 . S
O447 C446 1.261 . S
H448 C442 0.930 . S
H449 C444 0.930 . S
N450 Cu439 1.985 1_556 S
N450 C452 1.335 . S
N450 C453 1.390 1_556 S
N451 C452 1.345 . S
N451 C454 1.336 . S
C452 N450 1.335 . S
C452 N451 1.345 . S
C452 H457 0.930 . S
C453 N450 1.390 1_554 S
C453 C454 1.346 1_554 S
C453 H458 0.930 . S
C454 N451 1.336 . S
C454 C453 1.346 1_556 S
C454 H461 0.929 . S
C455 O445 1.282 . S
C455 O456 1.216 . S
O456 C455 1.216 . S
H457 C452 0.930 . S
H458 C453 0.930 . S
O459 Cu439 1.959 1_556 S
O459 C446 1.251 . S
H460 C443 0.930 . S
H461 C454 0.929 . S
Cu462 N463 1.999 1_554 S
Cu462 O468 1.974 1_554 S
Cu462 N473 1.985 . S
Cu462 O482 1.959 . S
N463 Cu462 1.999 1_556 S
N463 C465 1.263 . S
N463 C467 1.389 . S
N464 C465 1.358 . S
N464 C466 1.400 . S
C465 N463 1.263 . S
C465 N464 1.358 . S
C465 H471 0.930 . S
C466 N464 1.400 . S
C466 C467 1.351 . S
C466 H483 0.930 . S
C467 N463 1.389 . S
C467 C466 1.351 . S
C467 H472 0.930 1_556 S
O468 Cu462 1.974 1_556 S
O468 C478 1.282 . S
C469 O470 1.261 . S
C469 O482 1.251 . S
O470 C469 1.261 . S
H471 C465 0.930 . S
H472 C467 0.930 1_554 S
N473 Cu462 1.985 . S
N473 C475 1.335 . S
N473 C476 1.390 . S
N474 C475 1.345 . S
N474 C477 1.336 . S
C475 N473 1.335 . S
C475 N474 1.345 . S
C475 H480 0.930 . S
C476 N473 1.390 . S
C476 C477 1.346 . S
C476 H481 0.930 . S
C477 N474 1.336 . S
C477 C476 1.346 . S
C477 H484 0.929 . S
C478 O468 1.282 . S
C478 O479 1.216 . S
O479 C478 1.216 . S
H480 C475 0.930 . S
H481 C476 0.930 . S
O482 Cu462 1.959 . S
O482 C469 1.251 . S
H483 C466 0.930 . S
H484 C477 0.929 . S
Cu485 N486 1.999 . S
Cu485 O491 1.974 . S
Cu485 N496 1.985 1_554 S
Cu485 O505 1.959 1_554 S
N486 Cu485 1.999 . S
N486 C488 1.263 . S
N486 C490 1.389 . S
N487 C488 1.358 . S
N487 C489 1.400 . S
C488 N486 1.263 . S
C488 N487 1.358 . S
C488 H494 0.930 . S
C489 N487 1.400 . S
C489 C490 1.351 . S
C489 H506 0.930 . S
C490 N486 1.389 . S
C490 C489 1.351 . S
C490 H495 0.930 . S
O491 Cu485 1.974 . S
O491 C501 1.282 . S
C492 O493 1.261 . S
C492 O505 1.251 . S
O493 C492 1.261 . S
H494 C488 0.930 . S
H495 C490 0.930 . S
N496 Cu485 1.985 1_556 S
N496 C498 1.335 . S
N496 C499 1.390 . S
N497 C498 1.345 . S
N497 C500 1.336 . S
C498 N496 1.335 . S
C498 N497 1.345 . S
C498 H503 0.930 . S
C499 N496 1.390 . S
C499 C500 1.346 . S
C499 H504 0.930 1_556 S
C500 N497 1.336 . S
C500 C499 1.346 . S
C500 H507 0.929 . S
C501 O491 1.282 . S
C501 O502 1.216 . S
O502 C501 1.216 . S
H503 C498 0.930 . S
H504 C499 0.930 1_554 S
O505 Cu485 1.959 1_556 S
O505 C492 1.251 . S
H506 C489 0.930 . S
H507 C500 0.929 . S
Cu508 N509 1.999 . S
Cu508 O514 1.974 . S
Cu508 N519 1.985 1_455 S
Cu508 O528 1.959 1_455 S
N509 Cu508 1.999 . S
N509 C511 1.263 . S
N509 C513 1.389 . S
N510 C511 1.358 . S
N510 C512 1.400 . S
C511 N509 1.263 . S
C511 N510 1.358 . S
C511 H517 0.930 . S
C512 N510 1.400 . S
C512 C513 1.351 . S
C512 H529 0.930 . S
C513 N509 1.389 . S
C513 C512 1.351 . S
C513 H518 0.930 . S
O514 Cu508 1.974 . S
O514 C524 1.282 . S
C515 O516 1.261 . S
C515 O528 1.251 . S
O516 C515 1.261 . S
H517 C511 0.930 . S
H518 C513 0.930 . S
N519 Cu508 1.985 1_655 S
N519 C521 1.335 . S
N519 C522 1.390 1_655 S
N520 C521 1.345 . S
N520 C523 1.336 . S
C521 N519 1.335 . S
C521 N520 1.345 . S
C521 H526 0.930 . S
C522 N519 1.390 1_455 S
C522 C523 1.346 1_455 S
C522 H527 0.930 . S
C523 N520 1.336 . S
C523 C522 1.346 1_655 S
C523 H530 0.929 . S
C524 O514 1.282 . S
C524 O525 1.216 . S
O525 C524 1.216 . S
H526 C521 0.930 . S
H527 C522 0.930 . S
O528 Cu508 1.959 1_655 S
O528 C515 1.251 . S
H529 C512 0.930 . S
H530 C523 0.929 . S
Cu531 N532 2.039 . S
Cu531 O537 2.019 . S
Cu531 N542 1.948 1_545 S
Cu531 O551 1.915 1_545 S
N532 Cu531 2.039 . S
N532 C534 1.263 . S
N532 C536 1.389 . S
N533 C534 1.358 . S
N533 C535 1.400 . S
C534 N532 1.263 . S
C534 N533 1.358 . S
C534 H540 0.930 . S
C535 N533 1.400 . S
C535 C536 1.351 . S
C535 H552 0.930 . S
C536 N532 1.389 . S
C536 C535 1.351 . S
C536 H541 0.930 . S
O537 Cu531 2.019 . S
O537 C547 1.282 . S
C538 O539 1.261 . S
C538 O551 1.251 . S
O539 C538 1.261 . S
H540 C534 0.930 . S
H541 C536 0.930 . S
N542 Cu531 1.948 1_565 S
N542 C544 1.335 . S
N542 C545 1.390 . S
N543 C544 1.345 . S
N543 C546 1.336 . S
C544 N542 1.335 . S
C544 N543 1.345 . S
C544 H549 0.930 . S
C545 N542 1.390 . S
C545 C546 1.346 . S
C545 H550 0.930 . S
C546 N543 1.336 . S
C546 C545 1.346 . S
C546 H553 0.929 . S
C547 O537 1.282 . S
C547 O548 1.216 . S
O548 C547 1.216 . S
H549 C544 0.930 . S
H550 C545 0.930 . S
O551 Cu531 1.915 1_565 S
O551 C538 1.251 . S
H552 C535 0.930 . S
H553 C546 0.929 . S
Cu554 N555 1.999 1_455 S
Cu554 O560 1.974 1_455 S
Cu554 N565 1.985 . S
Cu554 O574 1.959 . S
N555 Cu554 1.999 1_655 S
N555 C557 1.263 . S
N555 C559 1.389 . S
N556 C557 1.358 . S
N556 C558 1.400 . S
C557 N555 1.263 . S
C557 N556 1.358 . S
C557 H563 0.930 . S
C558 N556 1.400 . S
C558 C559 1.351 . S
C558 H575 0.930 . S
C559 N555 1.389 . S
C559 C558 1.351 . S
C559 H564 0.930 1_655 S
O560 Cu554 1.974 1_655 S
O560 C570 1.282 . S
C561 O562 1.261 . S
C561 O574 1.251 . S
O562 C561 1.261 . S
H563 C557 0.930 . S
H564 C559 0.930 1_455 S
N565 Cu554 1.985 . S
N565 C567 1.335 . S
N565 C568 1.390 . S
N566 C567 1.345 . S
N566 C569 1.336 . S
C567 N565 1.335 . S
C567 N566 1.345 . S
C567 H572 0.930 . S
C568 N565 1.390 . S
C568 C569 1.346 . S
C568 H573 0.930 . S
C569 N566 1.336 . S
C569 C568 1.346 . S
C569 H576 0.929 . S
C570 O560 1.282 . S
C570 O571 1.216 . S
O571 C570 1.216 . S
H572 C567 0.930 . S
H573 C568 0.930 . S
O574 Cu554 1.959 . S
O574 C561 1.251 . S
H575 C558 0.930 . S
H576 C569 0.929 . S
Cu577 N578 1.999 . S
Cu577 O583 1.974 . S
Cu577 N588 1.985 . S
Cu577 O597 1.942 1_545 S
N578 Cu577 1.999 . S
N578 C580 1.263 . S
N578 C582 1.389 . S
N579 C580 1.358 . S
N579 C581 1.400 . S
C580 N578 1.263 . S
C580 N579 1.358 . S
C580 H586 0.930 . S
C581 N579 1.400 . S
C581 C582 1.351 . S
C581 H598 0.930 . S
C582 N578 1.389 . S
C582 C581 1.351 . S
C582 H587 0.930 . S
O583 Cu577 1.974 . S
O583 C593 1.282 . S
C584 O585 1.261 . S
C584 O597 1.260 . S
O585 C584 1.261 . S
H586 C580 0.930 . S
H587 C582 0.930 . S
N588 Cu577 1.985 . S
N588 C590 1.335 1_545 S
N588 C591 1.390 . S
N589 C590 1.345 . S
N589 C592 1.336 . S
C590 N588 1.335 1_565 S
C590 N589 1.345 . S
C590 H595 0.930 . S
C591 N588 1.390 . S
C591 C592 1.346 1_545 S
C591 H596 0.930 . S
C592 N589 1.336 . S
C592 C591 1.346 1_565 S
C592 H599 0.929 . S
C593 O583 1.282 . S
C593 O594 1.216 . S
O594 C593 1.216 . S
H595 C590 0.930 . S
H596 C591 0.930 . S
O597 Cu577 1.942 1_565 S
O597 C584 1.260 . S
H598 C581 0.930 . S
H599 C592 0.929 . S
Cu600 N601 1.999 . S
Cu600 O606 1.974 . S
Cu600 N611 1.985 1_455 S
Cu600 O620 1.959 1_455 S
N601 Cu600 1.999 . S
N601 C603 1.263 . S
N601 C605 1.389 . S
N602 C603 1.358 . S
N602 C604 1.400 . S
C603 N601 1.263 . S
C603 N602 1.358 . S
C603 H609 0.930 . S
C604 N602 1.400 . S
C604 C605 1.351 . S
C604 H621 0.930 . S
C605 N601 1.389 . S
C605 C604 1.351 . S
C605 H610 0.930 . S
O606 Cu600 1.974 . S
O606 C616 1.282 . S
C607 O608 1.261 . S
C607 O620 1.251 . S
O608 C607 1.261 . S
H609 C603 0.930 . S
H610 C605 0.930 . S
N611 Cu600 1.985 1_655 S
N611 C613 1.335 . S
N611 C614 1.384 1_655 S
N612 C613 1.345 . S
N612 C615 1.336 . S
C613 N611 1.335 . S
C613 N612 1.345 . S
C613 H618 0.930 . S
C614 N611 1.384 1_455 S
C614 C615 1.318 1_455 S
C614 H619 0.959 . S
C615 N612 1.336 . S
C615 C614 1.318 1_655 S
C615 H622 0.929 . S
C616 O606 1.282 . S
C616 O617 1.216 . S
O617 C616 1.216 . S
H618 C613 0.930 . S
H619 C614 0.959 . S
O620 Cu600 1.959 1_655 S
O620 C607 1.251 . S
H621 C604 0.930 . S
H622 C615 0.929 . S
Cu623 N624 1.999 . S
Cu623 O629 1.974 . S
Cu623 N634 1.985 1_545 S
Cu623 O643 1.959 1_545 S
N624 Cu623 1.999 . S
N624 C626 1.263 . S
N624 C628 1.389 . S
N625 C626 1.358 . S
N625 C627 1.400 . S
C626 N624 1.263 . S
C626 N625 1.358 . S
C626 H632 0.930 . S
C627 N625 1.400 . S
C627 C628 1.351 . S
C627 H644 0.930 . S
C628 N624 1.389 . S
C628 C627 1.351 . S
C628 H633 0.930 . S
O629 Cu623 1.974 . S
O629 C639 1.282 . S
C630 O631 1.261 . S
C630 O643 1.251 . S
O631 C630 1.261 . S
H632 C626 0.930 . S
H633 C628 0.930 . S
N634 Cu623 1.985 1_565 S
N634 C636 1.335 . S
N634 C637 1.390 . S
N635 C636 1.345 . S
N635 C638 1.336 . S
C636 N634 1.335 . S
C636 N635 1.345 . S
C636 H641 0.930 . S
C637 N634 1.390 . S
C637 C638 1.346 . S
C637 H642 0.929 1_565 S
C638 N635 1.336 . S
C638 C637 1.346 . S
C638 H645 0.929 . S
C639 O629 1.282 . S
C639 O640 1.216 . S
O640 C639 1.216 . S
H641 C636 0.930 . S
H642 C637 0.929 1_545 S
O643 Cu623 1.959 1_565 S
O643 C630 1.251 . S
H644 C627 0.930 . S
H645 C638 0.929 . S
Cu646 N647 1.999 . S
Cu646 O652 1.974 . S
Cu646 N657 1.985 . S
Cu646 O666 1.959 . S
N647 Cu646 1.999 . S
N647 C649 1.263 . S
N647 C651 1.389 . S
N648 C649 1.358 1_655 S
N648 C650 1.400 1_655 S
C649 N647 1.263 . S
C649 N648 1.358 1_455 S
C649 H655 0.930 . S
C650 N648 1.400 1_455 S
C650 C651 1.351 . S
C650 H667 0.930 . S
C651 N647 1.389 . S
C651 C650 1.351 . S
C651 H656 0.930 . S
O652 Cu646 1.974 . S
O652 C662 1.282 . S
C653 O654 1.261 . S
C653 O666 1.251 . S
O654 C653 1.261 . S
H655 C649 0.930 . S
H656 C651 0.930 . S
N657 Cu646 1.985 . S
N657 C659 1.335 . S
N657 C660 1.390 . S
N658 C659 1.345 . S
N658 C661 1.336 . S
C659 N657 1.335 . S
C659 N658 1.345 . S
C659 H664 0.930 . S
C660 N657 1.390 . S
C660 C661 1.346 . S
C660 H665 0.930 . S
C661 N658 1.336 . S
C661 C660 1.346 . S
C661 H668 0.929 . S
C662 O652 1.282 . S
C662 O663 1.216 . S
O663 C662 1.216 . S
H664 C659 0.930 . S
H665 C660 0.930 . S
O666 Cu646 1.959 . S
O666 C653 1.251 . S
H667 C650 0.930 . S
H668 C661 0.929 . S
Cu669 N670 1.999 . S
Cu669 O675 1.974 . S
Cu669 N680 1.985 . S
Cu669 O689 1.959 . S
N670 Cu669 1.999 . S
N670 C672 1.263 . S
N670 C674 1.389 . S
N671 C672 1.358 . S
N671 C673 1.400 . S
C672 N670 1.263 . S
C672 N671 1.358 . S
C672 H678 0.930 . S
C673 N671 1.400 . S
C673 C674 1.351 . S
C673 H690 0.930 . S
C674 N670 1.389 . S
C674 C673 1.351 . S
C674 H679 0.930 . S
O675 Cu669 1.974 . S
O675 C685 1.282 . S
C676 O677 1.261 . S
C676 O689 1.251 . S
O677 C676 1.261 . S
H678 C672 0.930 . S
H679 C674 0.930 . S
N680 Cu669 1.985 . S
N680 C682 1.386 . S
N680 C683 1.390 . S
N681 C682 1.324 1_565 S
N681 C684 1.336 1_565 S
C682 N680 1.386 . S
C682 N681 1.324 1_545 S
C682 H687 0.905 1_545 S
C683 N680 1.390 . S
C683 C684 1.346 . S
C683 H688 0.930 . S
C684 N681 1.336 1_545 S
C684 C683 1.346 . S
C684 H691 0.929 . S
C685 O675 1.282 . S
C685 O686 1.216 . S
O686 C685 1.216 . S
H687 C682 0.905 1_565 S
H688 C683 0.930 . S
O689 Cu669 1.959 . S
O689 C676 1.251 . S
H690 C673 0.930 . S
H691 C684 0.929 . S
Cu692 N693 1.999 . S
Cu692 O698 1.974 . S
Cu692 N703 1.985 . S
Cu692 O712 1.959 . S
N693 Cu692 1.999 . S
N693 C695 1.263 . S
N693 C697 1.389 . S
N694 C695 1.358 . S
N694 C696 1.400 . S
C695 N693 1.263 . S
C695 N694 1.358 . S
C695 H701 0.930 . S
C696 N694 1.400 . S
C696 C697 1.351 . S
C696 H713 0.930 . S
C697 N693 1.389 . S
C697 C696 1.351 . S
C697 H702 0.930 . S
O698 Cu692 1.974 . S
O698 C708 1.282 . S
C699 O700 1.261 . S
C699 O712 1.251 . S
O700 C699 1.261 . S
H701 C695 0.930 . S
H702 C697 0.930 . S
N703 Cu692 1.985 . S
N703 C705 1.335 . S
N703 C706 1.390 . S
N704 C705 1.345 . S
N704 C707 1.336 . S
C705 N703 1.335 . S
C705 N704 1.345 . S
C705 H710 0.930 . S
C706 N703 1.390 . S
C706 C707 1.346 . S
C706 H711 0.930 . S
C707 N704 1.336 . S
C707 C706 1.346 . S
C707 H714 0.929 . S
C708 O698 1.282 . S
C708 O709 1.216 . S
O709 C708 1.216 . S
H710 C705 0.930 . S
H711 C706 0.930 . S
O712 Cu692 1.959 . S
O712 C699 1.251 . S
H713 C696 0.930 . S
H714 C707 0.929 . S
Cu715 N716 1.999 . S
Cu715 O721 1.974 . S
Cu715 N726 1.985 . S
Cu715 O735 1.959 . S
N716 Cu715 1.999 . S
N716 C718 1.263 . S
N716 C720 1.389 . S
N717 C718 1.358 . S
N717 C719 1.400 . S
C718 N716 1.263 . S
C718 N717 1.358 . S
C718 H724 0.930 . S
C719 N717 1.400 . S
C719 C720 1.351 . S
C719 H736 0.930 . S
C720 N716 1.389 . S
C720 C719 1.351 . S
C720 H725 0.930 . S
O721 Cu715 1.974 . S
O721 C731 1.282 . S
C722 O723 1.261 . S
C722 O735 1.251 . S
O723 C722 1.261 . S
H724 C718 0.930 . S
H725 C720 0.930 . S
N726 Cu715 1.985 . S
N726 C728 1.335 . S
N726 C729 1.390 . S
N727 C728 1.345 . S
N727 C730 1.336 . S
C728 N726 1.335 . S
C728 N727 1.345 . S
C728 H733 0.930 . S
C729 N726 1.390 . S
C729 C730 1.346 . S
C729 H734 0.930 . S
C730 N727 1.336 . S
C730 C729 1.346 . S
C730 H737 0.929 . S
C731 O721 1.282 . S
C731 O732 1.216 . S
O732 C731 1.216 . S
H733 C728 0.930 . S
H734 C729 0.930 . S
O735 Cu715 1.959 . S
O735 C722 1.251 . S
H736 C719 0.930 . S
H737 C730 0.929 . S
Cu738 N739 1.999 . S
Cu738 O744 1.974 . S
Cu738 N749 1.985 . S
Cu738 O758 1.959 . S
N739 Cu738 1.999 . S
N739 C741 1.263 . S
N739 C743 1.389 . S
N740 C741 1.358 . S
N740 C742 1.400 . S
C741 N739 1.263 . S
C741 N740 1.358 . S
C741 H747 0.930 . S
C742 N740 1.400 . S
C742 C743 1.351 . S
C742 H759 0.930 . S
C743 N739 1.389 . S
C743 C742 1.351 . S
C743 H748 0.930 . S
O744 Cu738 1.974 . S
O744 C754 1.282 . S
C745 O746 1.261 . S
C745 O758 1.251 . S
O746 C745 1.261 . S
H747 C741 0.930 . S
H748 C743 0.930 . S
N749 Cu738 1.985 . S
N749 C751 1.335 . S
N749 C752 1.390 . S
N750 C751 1.345 . S
N750 C753 1.336 . S
C751 N749 1.335 . S
C751 N750 1.345 . S
C751 H756 0.930 . S
C752 N749 1.390 . S
C752 C753 1.346 . S
C752 H757 0.930 . S
C753 N750 1.336 . S
C753 C752 1.346 . S
C753 H760 0.929 . S
C754 O744 1.282 . S
C754 O755 1.216 . S
O755 C754 1.216 . S
H756 C751 0.930 . S
H757 C752 0.930 . S
O758 Cu738 1.959 . S
O758 C745 1.251 . S
H759 C742 0.930 . S
H760 C753 0.929 . S
Cu761 N762 1.999 . S
Cu761 O767 1.974 . S
Cu761 N772 1.985 . S
Cu761 O781 1.959 . S
N762 Cu761 1.999 . S
N762 C764 1.263 . S
N762 C766 1.389 . S
N763 C764 1.358 . S
N763 C765 1.400 . S
C764 N762 1.263 . S
C764 N763 1.358 . S
C764 H770 0.930 . S
C765 N763 1.400 . S
C765 C766 1.351 . S
C765 H782 0.930 . S
C766 N762 1.389 . S
C766 C765 1.351 . S
C766 H771 0.930 . S
O767 Cu761 1.974 . S
O767 C777 1.282 . S
C768 O769 1.261 . S
C768 O781 1.251 . S
O769 C768 1.261 . S
H770 C764 0.930 . S
H771 C766 0.930 . S
N772 Cu761 1.985 . S
N772 C774 1.335 . S
N772 C775 1.390 . S
N773 C774 1.345 . S
N773 C776 1.336 . S
C774 N772 1.335 . S
C774 N773 1.345 . S
C774 H779 0.930 . S
C775 N772 1.390 . S
C775 C776 1.346 . S
C775 H780 0.930 . S
C776 N773 1.336 . S
C776 C775 1.346 . S
C776 H783 0.929 . S
C777 O767 1.282 . S
C777 O778 1.216 . S
O778 C777 1.216 . S
H779 C774 0.930 . S
H780 C775 0.930 . S
O781 Cu761 1.959 . S
O781 C768 1.251 . S
H782 C765 0.930 . S
H783 C776 0.929 . S
Cu784 N785 1.999 . S
Cu784 O790 1.974 . S
Cu784 N795 1.985 . S
Cu784 O804 1.959 . S
N785 Cu784 1.999 . S
N785 C787 1.263 . S
N785 C789 1.389 . S
N786 C787 1.358 . S
N786 C788 1.400 . S
C787 N785 1.263 . S
C787 N786 1.358 . S
C787 H793 0.930 . S
C788 N786 1.400 . S
C788 C789 1.351 . S
C788 H805 0.930 . S
C789 N785 1.389 . S
C789 C788 1.351 . S
C789 H794 0.930 . S
O790 Cu784 1.974 . S
O790 C800 1.282 . S
C791 O792 1.261 . S
C791 O804 1.251 . S
O792 C791 1.261 . S
H793 C787 0.930 . S
H794 C789 0.930 . S
N795 Cu784 1.985 . S
N795 C797 1.335 . S
N795 C798 1.390 . S
N796 C797 1.345 . S
N796 C799 1.336 . S
C797 N795 1.335 . S
C797 N796 1.345 . S
C797 H802 0.930 . S
C798 N795 1.390 . S
C798 C799 1.346 . S
C798 H803 0.930 . S
C799 N796 1.336 . S
C799 C798 1.346 . S
C799 H806 0.929 . S
C800 O790 1.282 . S
C800 O801 1.216 . S
O801 C800 1.216 . S
H802 C797 0.930 . S
H803 C798 0.930 . S
O804 Cu784 1.959 . S
O804 C791 1.251 . S
H805 C788 0.930 . S
H806 C799 0.929 . S
Cu807 N808 1.999 . S
Cu807 O813 1.974 . S
Cu807 N818 1.985 . S
Cu807 O827 1.959 . S
N808 Cu807 1.999 . S
N808 C810 1.263 . S
N808 C812 1.389 . S
N809 C810 1.358 . S
N809 C811 1.400 . S
C810 N808 1.263 . S
C810 N809 1.358 . S
C810 H816 0.930 . S
C811 N809 1.400 . S
C811 C812 1.351 . S
C811 H828 0.930 . S
C812 N808 1.389 . S
C812 C811 1.351 . S
C812 H817 0.930 . S
O813 Cu807 1.974 . S
O813 C823 1.282 . S
C814 O815 1.261 . S
C814 O827 1.251 . S
O815 C814 1.261 . S
H816 C810 0.930 . S
H817 C812 0.930 . S
N818 Cu807 1.985 . S
N818 C820 1.335 . S
N818 C821 1.390 . S
N819 C820 1.345 . S
N819 C822 1.336 . S
C820 N818 1.335 . S
C820 N819 1.345 . S
C820 H825 0.930 . S
C821 N818 1.390 . S
C821 C822 1.346 . S
C821 H826 0.930 . S
C822 N819 1.336 . S
C822 C821 1.346 . S
C822 H829 0.929 . S
C823 O813 1.282 . S
C823 O824 1.216 . S
O824 C823 1.216 . S
H825 C820 0.930 . S
H826 C821 0.930 . S
O827 Cu807 1.959 . S
O827 C814 1.251 . S
H828 C811 0.930 . S
H829 C822 0.929 . S
Cu830 N831 1.999 . S
Cu830 O836 1.974 . S
Cu830 N841 1.985 . S
Cu830 O850 1.959 . S
N831 Cu830 1.999 . S
N831 C833 1.263 . S
N831 C835 1.389 . S
N832 C833 1.358 . S
N832 C834 1.400 . S
C833 N831 1.263 . S
C833 N832 1.358 . S
C833 H839 0.930 . S
C834 N832 1.400 . S
C834 C835 1.351 . S
C834 H851 0.930 . S
C835 N831 1.389 . S
C835 C834 1.351 . S
C835 H840 0.930 . S
O836 Cu830 1.974 . S
O836 C846 1.282 . S
C837 O838 1.261 . S
C837 O850 1.251 . S
O838 C837 1.261 . S
H839 C833 0.930 . S
H840 C835 0.930 . S
N841 Cu830 1.985 . S
N841 C843 1.335 . S
N841 C844 1.390 . S
N842 C843 1.345 . S
N842 C845 1.336 . S
C843 N841 1.335 . S
C843 N842 1.345 . S
C843 H848 0.930 . S
C844 N841 1.390 . S
C844 C845 1.346 . S
C844 H849 0.930 . S
C845 N842 1.336 . S
C845 C844 1.346 . S
C845 H852 0.929 . S
C846 O836 1.282 . S
C846 O847 1.216 . S
O847 C846 1.216 . S
H848 C843 0.930 . S
H849 C844 0.930 . S
O850 Cu830 1.959 . S
O850 C837 1.251 . S
H851 C834 0.930 . S
H852 C845 0.929 . S
Cu853 N854 1.999 . S
Cu853 O859 1.974 . S
Cu853 N864 1.985 . S
Cu853 O873 1.959 . S
N854 Cu853 1.999 . S
N854 C856 1.263 . S
N854 C858 1.389 . S
N855 C856 1.358 . S
N855 C857 1.400 . S
C856 N854 1.263 . S
C856 N855 1.358 . S
C856 H862 0.930 . S
C857 N855 1.400 . S
C857 C858 1.351 . S
C857 H874 0.930 . S
C858 N854 1.389 . S
C858 C857 1.351 . S
C858 H863 0.930 . S
O859 Cu853 1.974 . S
O859 C869 1.282 . S
C860 O861 1.261 . S
C860 O873 1.251 . S
O861 C860 1.261 . S
H862 C856 0.930 . S
H863 C858 0.930 . S
N864 Cu853 1.985 . S
N864 C866 1.335 . S
N864 C867 1.390 . S
N865 C866 1.345 . S
N865 C868 1.336 . S
C866 N864 1.335 . S
C866 N865 1.345 . S
C866 H871 0.930 . S
C867 N864 1.390 . S
C867 C868 1.346 . S
C867 H872 0.930 . S
C868 N865 1.336 . S
C868 C867 1.346 . S
C868 H875 0.929 . S
C869 O859 1.282 . S
C869 O870 1.216 . S
O870 C869 1.216 . S
H871 C866 0.930 . S
H872 C867 0.930 . S
O873 Cu853 1.959 . S
O873 C860 1.251 . S
H874 C857 0.930 . S
H875 C868 0.929 . S
Cu876 N877 1.999 . S
Cu876 O882 1.974 . S
Cu876 N887 1.985 . S
Cu876 O896 1.959 . S
N877 Cu876 1.999 . S
N877 C879 1.263 . S
N877 C881 1.389 . S
N878 C879 1.358 . S
N878 C880 1.400 . S
C879 N877 1.263 . S
C879 N878 1.358 . S
C879 H885 0.930 . S
C880 N878 1.400 . S
C880 C881 1.351 . S
C880 H897 0.930 . S
C881 N877 1.389 . S
C881 C880 1.351 . S
C881 H886 0.930 . S
O882 Cu876 1.974 . S
O882 C892 1.282 . S
C883 O884 1.261 . S
C883 O896 1.251 . S
O884 C883 1.261 . S
H885 C879 0.930 . S
H886 C881 0.930 . S
N887 Cu876 1.985 . S
N887 C889 1.335 . S
N887 C890 1.390 . S
N888 C889 1.345 . S
N888 C891 1.336 . S
C889 N887 1.335 . S
C889 N888 1.345 . S
C889 H894 0.930 . S
C890 N887 1.390 . S
C890 C891 1.346 . S
C890 H895 0.930 . S
C891 N888 1.336 . S
C891 C890 1.346 . S
C891 H898 0.929 . S
C892 O882 1.282 . S
C892 O893 1.216 . S
O893 C892 1.216 . S
H894 C889 0.930 . S
H895 C890 0.930 . S
O896 Cu876 1.959 . S
O896 C883 1.251 . S
H897 C880 0.930 . S
H898 C891 0.929 . S
Cu899 N900 1.999 . S
Cu899 O905 1.974 . S
Cu899 N910 1.985 . S
Cu899 O919 1.959 . S
N900 Cu899 1.999 . S
N900 C902 1.263 . S
N900 C904 1.389 . S
N901 C902 1.358 . S
N901 C903 1.400 . S
C902 N900 1.263 . S
C902 N901 1.358 . S
C902 H908 0.930 . S
C903 N901 1.400 . S
C903 C904 1.351 . S
C903 H920 0.930 . S
C904 N900 1.389 . S
C904 C903 1.351 . S
C904 H909 0.930 . S
O905 Cu899 1.974 . S
O905 C915 1.282 . S
C906 O907 1.261 . S
C906 O919 1.251 . S
O907 C906 1.261 . S
H908 C902 0.930 . S
H909 C904 0.930 . S
N910 Cu899 1.985 . S
N910 C912 1.335 . S
N910 C913 1.390 . S
N911 C912 1.345 . S
N911 C914 1.336 . S
C912 N910 1.335 . S
C912 N911 1.345 . S
C912 H917 0.930 . S
C913 N910 1.390 . S
C913 C914 1.346 . S
C913 H918 0.930 . S
C914 N911 1.336 . S
C914 C913 1.346 . S
C914 H921 0.929 . S
C915 O905 1.282 . S
C915 O916 1.216 . S
O916 C915 1.216 . S
H917 C912 0.930 . S
H918 C913 0.930 . S
O919 Cu899 1.959 . S
O919 C906 1.251 . S
H920 C903 0.930 . S
H921 C914 0.929 . S
Cu922 N923 1.999 . S
Cu922 O928 1.974 . S
Cu922 N933 1.985 . S
Cu922 O942 1.959 . S
N923 Cu922 1.999 . S
N923 C925 1.263 . S
N923 C927 1.389 . S
N924 C925 1.358 . S
N924 C926 1.400 . S
C925 N923 1.263 . S
C925 N924 1.358 . S
C925 H931 0.930 . S
C926 N924 1.400 . S
C926 C927 1.351 . S
C926 H943 0.930 . S
C927 N923 1.389 . S
C927 C926 1.351 . S
C927 H932 0.930 . S
O928 Cu922 1.974 . S
O928 C938 1.282 . S
C929 O930 1.261 . S
C929 O942 1.251 . S
O930 C929 1.261 . S
H931 C925 0.930 . S
H932 C927 0.930 . S
N933 Cu922 1.985 . S
N933 C935 1.335 . S
N933 C936 1.390 . S
N934 C935 1.345 . S
N934 C937 1.336 . S
C935 N933 1.335 . S
C935 N934 1.345 . S
C935 H940 0.930 . S
C936 N933 1.390 . S
C936 C937 1.346 . S
C936 H941 0.930 . S
C937 N934 1.336 . S
C937 C936 1.346 . S
C937 H944 0.929 . S
C938 O928 1.282 . S
C938 O939 1.216 . S
O939 C938 1.216 . S
H940 C935 0.930 . S
H941 C936 0.930 . S
O942 Cu922 1.959 . S
O942 C929 1.251 . S
H943 C926 0.930 . S
H944 C937 0.929 . S
Cu945 N946 1.999 . S
Cu945 O951 1.974 . S
Cu945 N956 1.985 . S
Cu945 O965 1.959 . S
N946 Cu945 1.999 . S
N946 C948 1.263 . S
N946 C950 1.389 . S
N947 C948 1.358 . S
N947 C949 1.400 . S
C948 N946 1.263 . S
C948 N947 1.358 . S
C948 H954 0.930 . S
C949 N947 1.400 . S
C949 C950 1.351 . S
C949 H966 0.930 . S
C950 N946 1.389 . S
C950 C949 1.351 . S
C950 H955 0.930 . S
O951 Cu945 1.974 . S
O951 C961 1.282 . S
C952 O953 1.261 . S
C952 O965 1.251 . S
O953 C952 1.261 . S
H954 C948 0.930 . S
H955 C950 0.930 . S
N956 Cu945 1.985 . S
N956 C958 1.335 . S
N956 C959 1.390 . S
N957 C958 1.345 . S
N957 C960 1.336 . S
C958 N956 1.335 . S
C958 N957 1.345 . S
C958 H963 0.930 . S
C959 N956 1.390 . S
C959 C960 1.346 . S
C959 H964 0.930 . S
C960 N957 1.336 . S
C960 C959 1.346 . S
C960 H967 0.929 . S
C961 O951 1.282 . S
C961 O962 1.216 . S
O962 C961 1.216 . S
H963 C958 0.930 . S
H964 C959 0.930 . S
O965 Cu945 1.959 . S
O965 C952 1.251 . S
H966 C949 0.930 . S
H967 C960 0.929 . S
H968 C974 0.930 . S
H969 C978 0.930 . S
H970 C983 0.929 . S
H971 C981 0.929 . S
H972 C976 0.929 . S
H973 C982 0.929 . S
C974 H968 0.930 . S
C974 C975 1.367 . S
C974 C982 1.378 . S
C975 C974 1.367 . S
C975 C983 1.433 . S
C976 H972 0.929 . S
C976 C978 1.378 . S
C976 C980 1.350 . S
C977 C980 1.463 . S
C977 C982 1.350 . S
C977 N985 1.427 . S
C978 H969 0.930 . S
C978 C976 1.378 . S
C978 C979 1.367 . S
C979 C978 1.367 . S
C979 C981 1.433 . S
C980 C976 1.350 . S
C980 C977 1.463 . S
C980 N984 1.427 . S
C981 H971 0.929 . S
C981 C979 1.433 . S
C981 N984 1.384 . S
C982 H973 0.929 . S
C982 C974 1.378 . S
C982 C977 1.350 . S
C983 H970 0.929 . S
C983 C975 1.433 . S
C983 N985 1.384 . S
N984 C980 1.427 . S
N984 C981 1.384 . S
N985 C977 1.427 . S
N985 C983 1.384 . S
H986 C992 0.930 . S
H987 C996 0.930 . S
H988 C1001 0.929 . S
H989 C999 0.929 . S
H990 C994 0.929 . S
H991 C1000 0.929 . S
C992 H986 0.930 . S
C992 C993 1.367 . S
C992 C1000 1.378 . S
C993 C992 1.367 . S
C993 C1001 1.433 . S
C994 H990 0.929 . S
C994 C996 1.378 . S
C994 C998 1.350 . S
C995 C998 1.463 . S
C995 C1000 1.350 . S
C995 N1003 1.427 . S
C996 H987 0.930 . S
C996 C994 1.378 . S
C996 C997 1.367 . S
C997 C996 1.367 . S
C997 C999 1.433 . S
C998 C994 1.350 . S
C998 C995 1.463 . S
C998 N1002 1.427 . S
C999 H989 0.929 . S
C999 C997 1.433 . S
C999 N1002 1.384 . S
C1000 H991 0.929 . S
C1000 C992 1.378 . S
C1000 C995 1.350 . S
C1001 H988 0.929 . S
C1001 C993 1.433 . S
C1001 N1003 1.384 . S
N1002 C998 1.427 . S
N1002 C999 1.384 . S
N1003 C995 1.427 . S
N1003 C1001 1.384 . S
H1004 C1010 0.930 . S
H1005 C1014 0.930 . S
H1006 C1019 0.929 . S
H1007 C1017 0.929 . S
H1008 C1012 0.929 . S
H1009 C1018 0.929 . S
C1010 H1004 0.930 . S
C1010 C1011 1.367 . S
C1010 C1018 1.378 . S
C1011 C1010 1.367 . S
C1011 C1019 1.433 . S
C1012 H1008 0.929 . S
C1012 C1014 1.378 . S
C1012 C1016 1.350 . S
C1013 C1016 1.463 . S
C1013 C1018 1.350 . S
C1013 N1021 1.427 . S
C1014 H1005 0.930 . S
C1014 C1012 1.378 . S
C1014 C1015 1.367 . S
C1015 C1014 1.367 . S
C1015 C1017 1.433 . S
C1016 C1012 1.350 . S
C1016 C1013 1.463 . S
C1016 N1020 1.427 . S
C1017 H1007 0.929 . S
C1017 C1015 1.433 . S
C1017 N1020 1.384 . S
C1018 H1009 0.929 . S
C1018 C1010 1.378 . S
C1018 C1013 1.350 . S
C1019 H1006 0.929 . S
C1019 C1011 1.433 . S
C1019 N1021 1.384 . S
N1020 C1016 1.427 . S
N1020 C1017 1.384 . S
N1021 C1013 1.427 . S
N1021 C1019 1.384 . S
H1022 C1028 0.930 . S
H1023 C1032 0.930 . S
H1024 C1037 0.929 . S
H1025 C1035 0.929 . S
H1026 C1030 0.929 . S
H1027 C1036 0.929 . S
C1028 H1022 0.930 . S
C1028 C1029 1.367 . S
C1028 C1036 1.378 . S
C1029 C1028 1.367 . S
C1029 C1037 1.433 . S
C1030 H1026 0.929 . S
C1030 C1032 1.378 . S
C1030 C1034 1.350 . S
C1031 C1034 1.463 . S
C1031 C1036 1.350 . S
C1031 N1039 1.427 . S
C1032 H1023 0.930 . S
C1032 C1030 1.378 . S
C1032 C1033 1.367 . S
C1033 C1032 1.367 . S
C1033 C1035 1.433 . S
C1034 C1030 1.350 . S
C1034 C1031 1.463 . S
C1034 N1038 1.427 . S
C1035 H1025 0.929 . S
C1035 C1033 1.433 . S
C1035 N1038 1.384 . S
C1036 H1027 0.929 . S
C1036 C1028 1.378 . S
C1036 C1031 1.350 . S
C1037 H1024 0.929 . S
C1037 C1029 1.433 . S
C1037 N1039 1.384 . S
N1038 C1034 1.427 . S
N1038 C1035 1.384 . S
N1039 C1031 1.427 . S
N1039 C1037 1.384 . S
H1040 C1046 0.930 . S
H1041 C1050 0.930 . S
H1042 C1055 0.929 . S
H1043 C1053 0.929 . S
H1044 C1048 0.929 . S
H1045 C1054 0.929 . S
C1046 H1040 0.930 . S
C1046 C1047 1.367 . S
C1046 C1054 1.378 . S
C1047 C1046 1.367 . S
C1047 C1055 1.433 . S
C1048 H1044 0.929 . S
C1048 C1050 1.378 . S
C1048 C1052 1.350 . S
C1049 C1052 1.463 . S
C1049 C1054 1.350 . S
C1049 N1057 1.427 . S
C1050 H1041 0.930 . S
C1050 C1048 1.378 . S
C1050 C1051 1.367 . S
C1051 C1050 1.367 . S
C1051 C1053 1.433 . S
C1052 C1048 1.350 . S
C1052 C1049 1.463 . S
C1052 N1056 1.427 . S
C1053 H1043 0.929 . S
C1053 C1051 1.433 . S
C1053 N1056 1.384 . S
C1054 H1045 0.929 . S
C1054 C1046 1.378 . S
C1054 C1049 1.350 . S
C1055 H1042 0.929 . S
C1055 C1047 1.433 . S
C1055 N1057 1.384 . S
N1056 C1052 1.427 . S
N1056 C1053 1.384 . S
N1057 C1049 1.427 . S
N1057 C1055 1.384 . S
H1058 C1064 0.930 . S
H1059 C1068 0.930 . S
H1060 C1073 0.929 . S
H1061 C1071 0.929 . S
H1062 C1066 0.929 . S
H1063 C1072 0.929 . S
C1064 H1058 0.930 . S
C1064 C1065 1.367 . S
C1064 C1072 1.378 . S
C1065 C1064 1.367 . S
C1065 C1073 1.433 . S
C1066 H1062 0.929 . S
C1066 C1068 1.378 . S
C1066 C1070 1.350 . S
C1067 C1070 1.463 . S
C1067 C1072 1.350 . S
C1067 N1075 1.427 . S
C1068 H1059 0.930 . S
C1068 C1066 1.378 . S
C1068 C1069 1.367 . S
C1069 C1068 1.367 . S
C1069 C1071 1.433 . S
C1070 C1066 1.350 . S
C1070 C1067 1.463 . S
C1070 N1074 1.427 . S
C1071 H1061 0.929 . S
C1071 C1069 1.433 . S
C1071 N1074 1.384 . S
C1072 H1063 0.929 . S
C1072 C1064 1.378 . S
C1072 C1067 1.350 . S
C1073 H1060 0.929 . S
C1073 C1065 1.433 . S
C1073 N1075 1.384 . S
N1074 C1070 1.427 . S
N1074 C1071 1.384 . S
N1075 C1067 1.427 . S
N1075 C1073 1.384 . S
H1076 C1082 0.930 . S
H1077 C1086 0.930 . S
H1078 C1091 0.929 . S
H1079 C1089 0.929 . S
H1080 C1084 0.929 . S
H1081 C1090 0.929 . S
C1082 H1076 0.930 . S
C1082 C1083 1.367 . S
C1082 C1090 1.378 . S
C1083 C1082 1.367 . S
C1083 C1091 1.433 . S
C1084 H1080 0.929 . S
C1084 C1086 1.378 . S
C1084 C1088 1.350 . S
C1085 C1088 1.463 . S
C1085 C1090 1.350 . S
C1085 N1093 1.427 . S
C1086 H1077 0.930 . S
C1086 C1084 1.378 . S
C1086 C1087 1.367 . S
C1087 C1086 1.367 . S
C1087 C1089 1.433 . S
C1088 C1084 1.350 . S
C1088 C1085 1.463 . S
C1088 N1092 1.427 . S
C1089 H1079 0.929 . S
C1089 C1087 1.433 . S
C1089 N1092 1.384 . S
C1090 H1081 0.929 . S
C1090 C1082 1.378 . S
C1090 C1085 1.350 . S
C1091 H1078 0.929 . S
C1091 C1083 1.433 . S
C1091 N1093 1.384 . S
N1092 C1088 1.427 . S
N1092 C1089 1.384 . S
N1093 C1085 1.427 . S
N1093 C1091 1.384 . S
H1094 C1100 0.930 . S
H1095 C1104 0.930 . S
H1096 C1109 0.929 . S
H1097 C1107 0.929 . S
H1098 C1102 0.929 . S
H1099 C1108 0.929 . S
C1100 H1094 0.930 . S
C1100 C1101 1.367 . S
C1100 C1108 1.378 . S
C1101 C1100 1.367 . S
C1101 C1109 1.433 . S
C1102 H1098 0.929 . S
C1102 C1104 1.378 . S
C1102 C1106 1.350 . S
C1103 C1106 1.463 . S
C1103 C1108 1.350 . S
C1103 N1111 1.427 . S
C1104 H1095 0.930 . S
C1104 C1102 1.378 . S
C1104 C1105 1.367 . S
C1105 C1104 1.367 . S
C1105 C1107 1.433 . S
C1106 C1102 1.350 . S
C1106 C1103 1.463 . S
C1106 N1110 1.427 . S
C1107 H1097 0.929 . S
C1107 C1105 1.433 . S
C1107 N1110 1.384 . S
C1108 H1099 0.929 . S
C1108 C1100 1.378 . S
C1108 C1103 1.350 . S
C1109 H1096 0.929 . S
C1109 C1101 1.433 . S
C1109 N1111 1.384 . S
N1110 C1106 1.427 . S
N1110 C1107 1.384 . S
N1111 C1103 1.427 . S
N1111 C1109 1.384 . S
H1112 C1118 0.930 . S
H1113 C1122 0.930 . S
H1114 C1127 0.929 . S
H1115 C1125 0.929 . S
H1116 C1120 0.929 . S
H1117 C1126 0.929 . S
C1118 H1112 0.930 . S
C1118 C1119 1.367 . S
C1118 C1126 1.378 . S
C1119 C1118 1.367 . S
C1119 C1127 1.433 . S
C1120 H1116 0.929 . S
C1120 C1122 1.378 . S
C1120 C1124 1.350 . S
C1121 C1124 1.463 . S
C1121 C1126 1.350 . S
C1121 N1129 1.427 . S
C1122 H1113 0.930 . S
C1122 C1120 1.378 . S
C1122 C1123 1.367 . S
C1123 C1122 1.367 . S
C1123 C1125 1.433 . S
C1124 C1120 1.350 . S
C1124 C1121 1.463 . S
C1124 N1128 1.427 . S
C1125 H1115 0.929 . S
C1125 C1123 1.433 . S
C1125 N1128 1.384 . S
C1126 H1117 0.929 . S
C1126 C1118 1.378 . S
C1126 C1121 1.350 . S
C1127 H1114 0.929 . S
C1127 C1119 1.433 . S
C1127 N1129 1.384 . S
N1128 C1124 1.427 . S
N1128 C1125 1.384 . S
N1129 C1121 1.427 . S
N1129 C1127 1.384 . S
H1130 C1136 0.930 . S
H1131 C1140 0.930 . S
H1132 C1145 0.929 . S
H1133 C1143 0.929 . S
H1134 C1138 0.929 . S
H1135 C1144 0.929 . S
C1136 H1130 0.930 . S
C1136 C1137 1.367 . S
C1136 C1144 1.378 . S
C1137 C1136 1.367 . S
C1137 C1145 1.433 . S
C1138 H1134 0.929 . S
C1138 C1140 1.378 . S
C1138 C1142 1.350 . S
C1139 C1142 1.463 . S
C1139 C1144 1.350 . S
C1139 N1147 1.427 . S
C1140 H1131 0.930 . S
C1140 C1138 1.378 . S
C1140 C1141 1.367 . S
C1141 C1140 1.367 . S
C1141 C1143 1.433 . S
C1142 C1138 1.350 . S
C1142 C1139 1.463 . S
C1142 N1146 1.427 . S
C1143 H1133 0.929 . S
C1143 C1141 1.433 . S
C1143 N1146 1.384 . S
C1144 H1135 0.929 . S
C1144 C1136 1.378 . S
C1144 C1139 1.350 . S
C1145 H1132 0.929 . S
C1145 C1137 1.433 . S
C1145 N1147 1.384 . S
N1146 C1142 1.427 . S
N1146 C1143 1.384 . S
N1147 C1139 1.427 . S
N1147 C1145 1.384 . S
H1148 C1154 0.930 . S
H1149 C1158 0.930 . S
H1150 C1163 0.929 . S
H1151 C1161 0.929 . S
H1152 C1156 0.929 . S
H1153 C1162 0.929 . S
C1154 H1148 0.930 . S
C1154 C1155 1.367 . S
C1154 C1162 1.378 . S
C1155 C1154 1.367 . S
C1155 C1163 1.433 . S
C1156 H1152 0.929 . S
C1156 C1158 1.378 . S
C1156 C1160 1.350 . S
C1157 C1160 1.463 . S
C1157 C1162 1.350 . S
C1157 N1165 1.427 . S
C1158 H1149 0.930 . S
C1158 C1156 1.378 . S
C1158 C1159 1.367 . S
C1159 C1158 1.367 . S
C1159 C1161 1.433 . S
C1160 C1156 1.350 . S
C1160 C1157 1.463 . S
C1160 N1164 1.427 . S
C1161 H1151 0.929 . S
C1161 C1159 1.433 . S
C1161 N1164 1.384 . S
C1162 H1153 0.929 . S
C1162 C1154 1.378 . S
C1162 C1157 1.350 . S
C1163 H1150 0.929 . S
C1163 C1155 1.433 . S
C1163 N1165 1.384 . S
N1164 C1160 1.427 . S
N1164 C1161 1.384 . S
N1165 C1157 1.427 . S
N1165 C1163 1.384 . S
H1166 C1172 0.930 . S
H1167 C1176 0.930 . S
H1168 C1181 0.929 . S
H1169 C1179 0.929 . S
H1170 C1174 0.929 . S
H1171 C1180 0.929 . S
C1172 H1166 0.930 . S
C1172 C1173 1.367 . S
C1172 C1180 1.378 . S
C1173 C1172 1.367 . S
C1173 C1181 1.433 . S
C1174 H1170 0.929 . S
C1174 C1176 1.378 . S
C1174 C1178 1.350 . S
C1175 C1178 1.463 . S
C1175 C1180 1.350 . S
C1175 N1183 1.427 . S
C1176 H1167 0.930 . S
C1176 C1174 1.378 . S
C1176 C1177 1.367 . S
C1177 C1176 1.367 . S
C1177 C1179 1.433 . S
C1178 C1174 1.350 . S
C1178 C1175 1.463 . S
C1178 N1182 1.427 . S
C1179 H1169 0.929 . S
C1179 C1177 1.433 . S
C1179 N1182 1.384 . S
C1180 H1171 0.929 . S
C1180 C1172 1.378 . S
C1180 C1175 1.350 . S
C1181 H1168 0.929 . S
C1181 C1173 1.433 . S
C1181 N1183 1.384 . S
N1182 C1178 1.427 . S
N1182 C1179 1.384 . S
N1183 C1175 1.427 . S
N1183 C1181 1.384 . S
H1184 C1190 0.930 . S
H1185 C1194 0.930 . S
H1186 C1199 0.929 . S
H1187 C1197 0.929 . S
H1188 C1192 0.929 . S
H1189 C1198 0.929 . S
C1190 H1184 0.930 . S
C1190 C1191 1.367 . S
C1190 C1198 1.378 . S
C1191 C1190 1.367 . S
C1191 C1199 1.433 . S
C1192 H1188 0.929 . S
C1192 C1194 1.378 . S
C1192 C1196 1.350 . S
C1193 C1196 1.463 . S
C1193 C1198 1.350 . S
C1193 N1201 1.427 . S
C1194 H1185 0.930 . S
C1194 C1192 1.378 . S
C1194 C1195 1.367 . S
C1195 C1194 1.367 . S
C1195 C1197 1.433 . S
C1196 C1192 1.350 . S
C1196 C1193 1.463 . S
C1196 N1200 1.427 . S
C1197 H1187 0.929 . S
C1197 C1195 1.433 . S
C1197 N1200 1.384 . S
C1198 H1189 0.929 . S
C1198 C1190 1.378 . S
C1198 C1193 1.350 . S
C1199 H1186 0.929 . S
C1199 C1191 1.433 . S
C1199 N1201 1.384 . S
N1200 C1196 1.427 . S
N1200 C1197 1.384 . S
N1201 C1193 1.427 . S
N1201 C1199 1.384 . S
H1202 C1208 0.930 . S
H1203 C1212 0.930 . S
H1204 C1217 0.929 . S
H1205 C1215 0.929 . S
H1206 C1210 0.929 . S
H1207 C1216 0.929 . S
C1208 H1202 0.930 . S
C1208 C1209 1.367 . S
C1208 C1216 1.378 . S
C1209 C1208 1.367 . S
C1209 C1217 1.433 . S
C1210 H1206 0.929 . S
C1210 C1212 1.378 . S
C1210 C1214 1.350 . S
C1211 C1214 1.463 . S
C1211 C1216 1.350 . S
C1211 N1219 1.427 . S
C1212 H1203 0.930 . S
C1212 C1210 1.378 . S
C1212 C1213 1.367 . S
C1213 C1212 1.367 . S
C1213 C1215 1.433 . S
C1214 C1210 1.350 . S
C1214 C1211 1.463 . S
C1214 N1218 1.427 . S
C1215 H1205 0.929 . S
C1215 C1213 1.433 . S
C1215 N1218 1.384 . S
C1216 H1207 0.929 . S
C1216 C1208 1.378 . S
C1216 C1211 1.350 . S
C1217 H1204 0.929 . S
C1217 C1209 1.433 . S
C1217 N1219 1.384 . S
N1218 C1214 1.427 . S
N1218 C1215 1.384 . S
N1219 C1211 1.427 . S
N1219 C1217 1.384 . S
H1220 C1226 0.930 . S
H1221 C1230 0.930 . S
H1222 C1235 0.929 . S
H1223 C1233 0.929 1_455 S
H1224 C1228 0.929 . S
H1225 C1234 0.929 . S
C1226 H1220 0.930 . S
C1226 C1227 1.367 . S
C1226 C1234 1.378 . S
C1227 C1226 1.367 . S
C1227 C1235 1.433 . S
C1228 H1224 0.929 . S
C1228 C1230 1.378 . S
C1228 C1232 1.350 . S
C1229 C1232 1.463 . S
C1229 C1234 1.350 . S
C1229 N1237 1.427 . S
C1230 H1221 0.930 . S
C1230 C1228 1.378 . S
C1230 C1231 1.367 . S
C1231 C1230 1.367 . S
C1231 C1233 1.433 . S
C1232 C1228 1.350 . S
C1232 C1229 1.463 . S
C1232 N1236 1.427 . S
C1233 H1223 0.929 1_655 S
C1233 C1231 1.433 . S
C1233 N1236 1.384 . S
C1234 H1225 0.929 . S
C1234 C1226 1.378 . S
C1234 C1229 1.350 . S
C1235 H1222 0.929 . S
C1235 C1227 1.433 . S
C1235 N1237 1.384 . S
N1236 C1232 1.427 . S
N1236 C1233 1.384 . S
N1237 C1229 1.427 . S
N1237 C1235 1.384 . S
H1238 C1244 0.930 . S
H1239 C1248 0.930 1_545 S
H1240 C1253 0.929 . S
H1241 C1251 0.929 . S
H1242 C1246 0.929 . S
H1243 C1252 0.929 . S
C1244 H1238 0.930 . S
C1244 C1245 1.367 . S
C1244 C1252 1.378 . S
C1245 C1244 1.367 . S
C1245 C1253 1.433 . S
C1246 H1242 0.929 . S
C1246 C1248 1.378 . S
C1246 C1250 1.350 . S
C1247 C1250 1.463 . S
C1247 C1252 1.350 . S
C1247 N1255 1.427 . S
C1248 H1239 0.930 1_565 S
C1248 C1246 1.378 . S
C1248 C1249 1.367 . S
C1249 C1248 1.367 . S
C1249 C1251 1.433 . S
C1250 C1246 1.350 . S
C1250 C1247 1.463 . S
C1250 N1254 1.427 . S
C1251 H1241 0.929 . S
C1251 C1249 1.433 . S
C1251 N1254 1.384 . S
C1252 H1243 0.929 . S
C1252 C1244 1.378 . S
C1252 C1247 1.350 . S
C1253 H1240 0.929 . S
C1253 C1245 1.433 . S
C1253 N1255 1.384 . S
N1254 C1250 1.427 . S
N1254 C1251 1.384 . S
N1255 C1247 1.427 . S
N1255 C1253 1.384 . S
H1256 C1262 0.930 . S
H1257 C1266 0.930 . S
H1258 C1271 0.929 . S
H1259 C1269 0.929 . S
H1260 C1264 0.929 . S
H1261 C1270 0.929 . S
C1262 H1256 0.930 . S
C1262 C1263 1.367 . S
C1262 C1270 1.378 . S
C1263 C1262 1.367 . S
C1263 C1271 1.433 . S
C1264 H1260 0.929 . S
C1264 C1266 1.378 . S
C1264 C1268 1.350 . S
C1265 C1268 1.463 . S
C1265 C1270 1.350 . S
C1265 N1273 1.427 . S
C1266 H1257 0.930 . S
C1266 C1264 1.378 . S
C1266 C1267 1.367 . S
C1267 C1266 1.367 . S
C1267 C1269 1.433 . S
C1268 C1264 1.350 . S
C1268 C1265 1.463 . S
C1268 N1272 1.427 . S
C1269 H1259 0.929 . S
C1269 C1267 1.433 . S
C1269 N1272 1.384 . S
C1270 H1261 0.929 . S
C1270 C1262 1.378 . S
C1270 C1265 1.350 . S
C1271 H1258 0.929 . S
C1271 C1263 1.433 . S
C1271 N1273 1.384 . S
N1272 C1268 1.427 . S
N1272 C1269 1.384 . S
N1273 C1265 1.427 . S
N1273 C1271 1.384 . S
H1274 C1280 0.930 . S
H1275 C1284 0.930 . S
H1276 C1289 0.929 . S
H1277 C1287 0.929 . S
H1278 C1282 0.929 . S
H1279 C1288 0.929 . S
C1280 H1274 0.930 . S
C1280 C1281 1.367 . S
C1280 C1288 1.378 . S
C1281 C1280 1.367 . S
C1281 C1289 1.433 . S
C1282 H1278 0.929 . S
C1282 C1284 1.378 . S
C1282 C1286 1.350 . S
C1283 C1286 1.463 . S
C1283 C1288 1.350 . S
C1283 N1291 1.427 . S
C1284 H1275 0.930 . S
C1284 C1282 1.378 . S
C1284 C1285 1.367 . S
C1285 C1284 1.367 . S
C1285 C1287 1.433 . S
C1286 C1282 1.350 . S
C1286 C1283 1.463 . S
C1286 N1290 1.427 . S
C1287 H1277 0.929 . S
C1287 C1285 1.433 . S
C1287 N1290 1.384 . S
C1288 H1279 0.929 . S
C1288 C1280 1.378 . S
C1288 C1283 1.350 . S
C1289 H1276 0.929 . S
C1289 C1281 1.433 . S
C1289 N1291 1.384 . S
N1290 C1286 1.427 . S
N1290 C1287 1.384 . S
N1291 C1283 1.427 . S
N1291 C1289 1.384 . S
H1292 C1298 0.930 . S
H1293 C1302 0.930 . S
H1294 C1307 0.929 . S
H1295 C1305 0.929 . S
H1296 C1300 0.929 . S
H1297 C1306 0.929 . S
C1298 H1292 0.930 . S
C1298 C1299 1.367 . S
C1298 C1306 1.378 . S
C1299 C1298 1.367 . S
C1299 C1307 1.433 . S
C1300 H1296 0.929 . S
C1300 C1302 1.378 . S
C1300 C1304 1.350 . S
C1301 C1304 1.463 . S
C1301 C1306 1.350 . S
C1301 N1309 1.427 . S
C1302 H1293 0.930 . S
C1302 C1300 1.378 . S
C1302 C1303 1.367 . S
C1303 C1302 1.367 . S
C1303 C1305 1.433 . S
C1304 C1300 1.350 . S
C1304 C1301 1.463 . S
C1304 N1308 1.427 . S
C1305 H1295 0.929 . S
C1305 C1303 1.433 . S
C1305 N1308 1.384 . S
C1306 H1297 0.929 . S
C1306 C1298 1.378 . S
C1306 C1301 1.350 . S
C1307 H1294 0.929 . S
C1307 C1299 1.433 . S
C1307 N1309 1.384 . S
N1308 C1304 1.427 . S
N1308 C1305 1.384 . S
N1309 C1301 1.427 . S
N1309 C1307 1.384 . S
H1310 C1316 0.930 . S
H1311 C1320 0.930 . S
H1312 C1325 0.929 . S
H1313 C1323 0.929 . S
H1314 C1318 0.929 . S
H1315 C1324 0.929 . S
C1316 H1310 0.930 . S
C1316 C1317 1.367 . S
C1316 C1324 1.378 . S
C1317 C1316 1.367 . S
C1317 C1325 1.433 . S
C1318 H1314 0.929 . S
C1318 C1320 1.378 . S
C1318 C1322 1.350 . S
C1319 C1322 1.463 . S
C1319 C1324 1.350 . S
C1319 N1327 1.427 . S
C1320 H1311 0.930 . S
C1320 C1318 1.378 . S
C1320 C1321 1.367 . S
C1321 C1320 1.367 . S
C1321 C1323 1.433 . S
C1322 C1318 1.350 . S
C1322 C1319 1.463 . S
C1322 N1326 1.427 . S
C1323 H1313 0.929 . S
C1323 C1321 1.433 . S
C1323 N1326 1.384 . S
C1324 H1315 0.929 . S
C1324 C1316 1.378 . S
C1324 C1319 1.350 . S
C1325 H1312 0.929 . S
C1325 C1317 1.433 . S
C1325 N1327 1.384 . S
N1326 C1322 1.427 . S
N1326 C1323 1.384 . S
N1327 C1319 1.427 . S
N1327 C1325 1.384 . S
H1328 C1334 0.930 . S
H1329 C1338 0.930 . S
H1330 C1343 0.929 . S
H1331 C1341 0.929 . S
H1332 C1336 0.929 . S
H1333 C1342 0.929 . S
C1334 H1328 0.930 . S
C1334 C1335 1.367 . S
C1334 C1342 1.378 . S
C1335 C1334 1.367 . S
C1335 C1343 1.433 . S
C1336 H1332 0.929 . S
C1336 C1338 1.378 . S
C1336 C1340 1.350 . S
C1337 C1340 1.463 . S
C1337 C1342 1.350 . S
C1337 N1345 1.427 . S
C1338 H1329 0.930 . S
C1338 C1336 1.378 . S
C1338 C1339 1.367 . S
C1339 C1338 1.367 . S
C1339 C1341 1.433 . S
C1340 C1336 1.350 . S
C1340 C1337 1.463 . S
C1340 N1344 1.427 . S
C1341 H1331 0.929 . S
C1341 C1339 1.433 . S
C1341 N1344 1.384 . S
C1342 H1333 0.929 . S
C1342 C1334 1.378 . S
C1342 C1337 1.350 . S
C1343 H1330 0.929 . S
C1343 C1335 1.433 . S
C1343 N1345 1.384 . S
N1344 C1340 1.427 . S
N1344 C1341 1.384 . S
N1345 C1337 1.427 . S
N1345 C1343 1.384 . S
H1346 C1352 0.930 . S
H1347 C1356 0.930 . S
H1348 C1361 0.929 . S
H1349 C1359 0.929 . S
H1350 C1354 0.929 . S
H1351 C1360 0.929 . S
C1352 H1346 0.930 . S
C1352 C1353 1.367 . S
C1352 C1360 1.378 . S
C1353 C1352 1.367 . S
C1353 C1361 1.433 . S
C1354 H1350 0.929 . S
C1354 C1356 1.378 . S
C1354 C1358 1.350 . S
C1355 C1358 1.463 . S
C1355 C1360 1.350 . S
C1355 N1363 1.427 . S
C1356 H1347 0.930 . S
C1356 C1354 1.378 . S
C1356 C1357 1.367 . S
C1357 C1356 1.367 . S
C1357 C1359 1.433 . S
C1358 C1354 1.350 . S
C1358 C1355 1.463 . S
C1358 N1362 1.427 . S
C1359 H1349 0.929 . S
C1359 C1357 1.433 . S
C1359 N1362 1.384 . S
C1360 H1351 0.929 . S
C1360 C1352 1.378 . S
C1360 C1355 1.350 . S
C1361 H1348 0.929 . S
C1361 C1353 1.433 . S
C1361 N1363 1.384 . S
N1362 C1358 1.427 . S
N1362 C1359 1.384 . S
N1363 C1355 1.427 . S
N1363 C1361 1.384 . S
H1364 C1370 0.930 . S
H1365 C1374 0.930 . S
H1366 C1379 0.929 . S
H1367 C1377 0.929 . S
H1368 C1372 0.929 . S
H1369 C1378 0.929 . S
C1370 H1364 0.930 . S
C1370 C1371 1.367 . S
C1370 C1378 1.378 . S
C1371 C1370 1.367 . S
C1371 C1379 1.433 . S
C1372 H1368 0.929 . S
C1372 C1374 1.378 . S
C1372 C1376 1.350 . S
C1373 C1376 1.463 . S
C1373 C1378 1.350 . S
C1373 N1381 1.427 . S
C1374 H1365 0.930 . S
C1374 C1372 1.378 . S
C1374 C1375 1.367 . S
C1375 C1374 1.367 . S
C1375 C1377 1.433 . S
C1376 C1372 1.350 . S
C1376 C1373 1.463 . S
C1376 N1380 1.427 . S
C1377 H1367 0.929 . S
C1377 C1375 1.433 . S
C1377 N1380 1.384 . S
C1378 H1369 0.929 . S
C1378 C1370 1.378 . S
C1378 C1373 1.350 . S
C1379 H1366 0.929 . S
C1379 C1371 1.433 . S
C1379 N1381 1.384 . S
N1380 C1376 1.427 . S
N1380 C1377 1.384 . S
N1381 C1373 1.427 . S
N1381 C1379 1.384 . S
H1382 C1388 0.930 . S
H1383 C1392 0.930 . S
H1384 C1397 0.929 . S
H1385 C1395 0.929 . S
H1386 C1390 0.929 . S
H1387 C1396 0.929 . S
C1388 H1382 0.930 . S
C1388 C1389 1.367 . S
C1388 C1396 1.378 . S
C1389 C1388 1.367 . S
C1389 C1397 1.433 . S
C1390 H1386 0.929 . S
C1390 C1392 1.378 . S
C1390 C1394 1.350 . S
C1391 C1394 1.463 . S
C1391 C1396 1.350 . S
C1391 N1399 1.427 . S
C1392 H1383 0.930 . S
C1392 C1390 1.378 . S
C1392 C1393 1.367 . S
C1393 C1392 1.367 . S
C1393 C1395 1.433 . S
C1394 C1390 1.350 . S
C1394 C1391 1.463 . S
C1394 N1398 1.427 . S
C1395 H1385 0.929 . S
C1395 C1393 1.433 . S
C1395 N1398 1.384 . S
C1396 H1387 0.929 . S
C1396 C1388 1.378 . S
C1396 C1391 1.350 . S
C1397 H1384 0.929 . S
C1397 C1389 1.433 . S
C1397 N1399 1.384 . S
N1398 C1394 1.427 . S
N1398 C1395 1.384 . S
N1399 C1391 1.427 . S
N1399 C1397 1.384 . S
H1400 C1406 0.930 . S
H1401 C1410 0.930 . S
H1402 C1415 0.929 . S
H1403 C1413 0.929 . S
H1404 C1408 0.929 . S
H1405 C1414 0.929 . S
C1406 H1400 0.930 . S
C1406 C1407 1.367 . S
C1406 C1414 1.378 . S
C1407 C1406 1.367 . S
C1407 C1415 1.433 . S
C1408 H1404 0.929 . S
C1408 C1410 1.378 . S
C1408 C1412 1.350 . S
C1409 C1412 1.463 . S
C1409 C1414 1.350 . S
C1409 N1417 1.427 . S
C1410 H1401 0.930 . S
C1410 C1408 1.378 . S
C1410 C1411 1.367 . S
C1411 C1410 1.367 . S
C1411 C1413 1.433 . S
C1412 C1408 1.350 . S
C1412 C1409 1.463 . S
C1412 N1416 1.427 . S
C1413 H1403 0.929 . S
C1413 C1411 1.433 . S
C1413 N1416 1.384 . S
C1414 H1405 0.929 . S
C1414 C1406 1.378 . S
C1414 C1409 1.350 . S
C1415 H1402 0.929 . S
C1415 C1407 1.433 . S
C1415 N1417 1.384 . S
N1416 C1412 1.427 . S
N1416 C1413 1.384 . S
N1417 C1409 1.427 . S
N1417 C1415 1.384 . S
H1418 C1424 0.930 . S
H1419 C1428 0.930 . S
H1420 C1433 0.929 . S
H1421 C1431 0.929 . S
H1422 C1426 0.929 . S
H1423 C1432 0.929 . S
C1424 H1418 0.930 . S
C1424 C1425 1.367 . S
C1424 C1432 1.378 . S
C1425 C1424 1.367 . S
C1425 C1433 1.433 . S
C1426 H1422 0.929 . S
C1426 C1428 1.378 . S
C1426 C1430 1.350 . S
C1427 C1430 1.463 . S
C1427 C1432 1.350 . S
C1427 N1435 1.427 . S
C1428 H1419 0.930 . S
C1428 C1426 1.378 . S
C1428 C1429 1.367 . S
C1429 C1428 1.367 . S
C1429 C1431 1.433 . S
C1430 C1426 1.350 . S
C1430 C1427 1.463 . S
C1430 N1434 1.427 . S
C1431 H1421 0.929 . S
C1431 C1429 1.433 . S
C1431 N1434 1.384 . S
C1432 H1423 0.929 . S
C1432 C1424 1.378 . S
C1432 C1427 1.350 . S
C1433 H1420 0.929 . S
C1433 C1425 1.433 . S
C1433 N1435 1.384 . S
N1434 C1430 1.427 . S
N1434 C1431 1.384 . S
N1435 C1427 1.427 . S
N1435 C1433 1.384 . S
H1436 C1442 0.930 . S
H1437 C1446 0.930 . S
H1438 C1451 0.929 . S
H1439 C1449 0.929 . S
H1440 C1444 0.929 . S
H1441 C1450 0.929 . S
C1442 H1436 0.930 . S
C1442 C1443 1.367 . S
C1442 C1450 1.378 . S
C1443 C1442 1.367 . S
C1443 C1451 1.433 . S
C1444 H1440 0.929 . S
C1444 C1446 1.378 . S
C1444 C1448 1.350 . S
C1445 C1448 1.463 . S
C1445 C1450 1.350 . S
C1445 N1453 1.427 . S
C1446 H1437 0.930 . S
C1446 C1444 1.378 . S
C1446 C1447 1.367 . S
C1447 C1446 1.367 . S
C1447 C1449 1.433 . S
C1448 C1444 1.350 . S
C1448 C1445 1.463 . S
C1448 N1452 1.427 . S
C1449 H1439 0.929 . S
C1449 C1447 1.433 . S
C1449 N1452 1.384 . S
C1450 H1441 0.929 . S
C1450 C1442 1.378 . S
C1450 C1445 1.350 . S
C1451 H1438 0.929 . S
C1451 C1443 1.433 . S
C1451 N1453 1.384 . S
N1452 C1448 1.427 . S
N1452 C1449 1.384 . S
N1453 C1445 1.427 . S
N1453 C1451 1.384 . S
H1454 C1460 0.930 . S
H1455 C1464 0.930 . S
H1456 C1469 0.929 . S
H1457 C1467 0.929 . S
H1458 C1462 0.929 . S
H1459 C1468 0.929 . S
C1460 H1454 0.930 . S
C1460 C1461 1.367 . S
C1460 C1468 1.378 . S
C1461 C1460 1.367 . S
C1461 C1469 1.433 . S
C1462 H1458 0.929 . S
C1462 C1464 1.378 . S
C1462 C1466 1.350 . S
C1463 C1466 1.463 . S
C1463 C1468 1.350 . S
C1463 N1471 1.427 . S
C1464 H1455 0.930 . S
C1464 C1462 1.378 . S
C1464 C1465 1.367 . S
C1465 C1464 1.367 . S
C1465 C1467 1.433 . S
C1466 C1462 1.350 . S
C1466 C1463 1.463 . S
C1466 N1470 1.427 . S
C1467 H1457 0.929 . S
C1467 C1465 1.433 . S
C1467 N1470 1.384 . S
C1468 H1459 0.929 . S
C1468 C1460 1.378 . S
C1468 C1463 1.350 . S
C1469 H1456 0.929 . S
C1469 C1461 1.433 . S
C1469 N1471 1.384 . S
N1470 C1466 1.427 . S
N1470 C1467 1.384 . S
N1471 C1463 1.427 . S
N1471 C1469 1.384 . S
H1472 C1478 0.930 . S
H1473 C1482 0.930 . S
H1474 C1487 0.929 . S
H1475 C1485 0.929 . S
H1476 C1480 0.929 . S
H1477 C1486 0.929 . S
C1478 H1472 0.930 . S
C1478 C1479 1.367 . S
C1478 C1486 1.378 . S
C1479 C1478 1.367 . S
C1479 C1487 1.433 . S
C1480 H1476 0.929 . S
C1480 C1482 1.378 . S
C1480 C1484 1.350 . S
C1481 C1484 1.463 . S
C1481 C1486 1.350 . S
C1481 N1489 1.427 . S
C1482 H1473 0.930 . S
C1482 C1480 1.378 . S
C1482 C1483 1.367 . S
C1483 C1482 1.367 . S
C1483 C1485 1.433 . S
C1484 C1480 1.350 . S
C1484 C1481 1.463 . S
C1484 N1488 1.427 . S
C1485 H1475 0.929 . S
C1485 C1483 1.433 . S
C1485 N1488 1.384 . S
C1486 H1477 0.929 . S
C1486 C1478 1.378 . S
C1486 C1481 1.350 . S
C1487 H1474 0.929 . S
C1487 C1479 1.433 . S
C1487 N1489 1.384 . S
N1488 C1484 1.427 . S
N1488 C1485 1.384 . S
N1489 C1481 1.427 . S
N1489 C1487 1.384 . S
H1490 C1496 0.930 . S
H1491 C1500 0.930 . S
H1492 C1505 0.929 . S
H1493 C1503 0.929 . S
H1494 C1498 0.929 . S
H1495 C1504 0.929 . S
C1496 H1490 0.930 . S
C1496 C1497 1.367 . S
C1496 C1504 1.378 . S
C1497 C1496 1.367 . S
C1497 C1505 1.433 . S
C1498 H1494 0.929 . S
C1498 C1500 1.378 . S
C1498 C1502 1.350 . S
C1499 C1502 1.463 . S
C1499 C1504 1.350 . S
C1499 N1507 1.427 . S
C1500 H1491 0.930 . S
C1500 C1498 1.378 . S
C1500 C1501 1.367 . S
C1501 C1500 1.367 . S
C1501 C1503 1.433 . S
C1502 C1498 1.350 . S
C1502 C1499 1.463 . S
C1502 N1506 1.427 . S
C1503 H1493 0.929 . S
C1503 C1501 1.433 . S
C1503 N1506 1.384 . S
C1504 H1495 0.929 . S
C1504 C1496 1.378 . S
C1504 C1499 1.350 . S
C1505 H1492 0.929 . S
C1505 C1497 1.433 . S
C1505 N1507 1.384 . S
N1506 C1502 1.427 . S
N1506 C1503 1.384 . S
N1507 C1499 1.427 . S
N1507 C1505 1.384 . S
H1508 C1514 0.930 . S
H1509 C1518 0.930 . S
H1510 C1523 0.929 . S
H1511 C1521 0.929 . S
H1512 C1516 0.929 . S
H1513 C1522 0.929 . S
C1514 H1508 0.930 . S
C1514 C1515 1.367 . S
C1514 C1522 1.378 . S
C1515 C1514 1.367 . S
C1515 C1523 1.433 . S
C1516 H1512 0.929 . S
C1516 C1518 1.378 . S
C1516 C1520 1.350 . S
C1517 C1520 1.463 . S
C1517 C1522 1.350 . S
C1517 N1525 1.427 . S
C1518 H1509 0.930 . S
C1518 C1516 1.378 . S
C1518 C1519 1.367 . S
C1519 C1518 1.367 . S
C1519 C1521 1.433 . S
C1520 C1516 1.350 . S
C1520 C1517 1.463 . S
C1520 N1524 1.427 . S
C1521 H1511 0.929 . S
C1521 C1519 1.433 . S
C1521 N1524 1.384 . S
C1522 H1513 0.929 . S
C1522 C1514 1.378 . S
C1522 C1517 1.350 . S
C1523 H1510 0.929 . S
C1523 C1515 1.433 . S
C1523 N1525 1.384 . S
N1524 C1520 1.427 . S
N1524 C1521 1.384 . S
N1525 C1517 1.427 . S
N1525 C1523 1.384 . S
H1526 C1532 0.930 . S
H1527 C1536 0.930 . S
H1528 C1541 0.929 . S
H1529 C1539 0.929 . S
H1530 C1534 0.929 . S
H1531 C1540 0.929 . S
C1532 H1526 0.930 . S
C1532 C1533 1.367 . S
C1532 C1540 1.378 . S
C1533 C1532 1.367 . S
C1533 C1541 1.433 . S
C1534 H1530 0.929 . S
C1534 C1536 1.378 . S
C1534 C1538 1.350 . S
C1535 C1538 1.463 . S
C1535 C1540 1.350 . S
C1535 N1543 1.427 . S
C1536 H1527 0.930 . S
C1536 C1534 1.378 . S
C1536 C1537 1.367 . S
C1537 C1536 1.367 . S
C1537 C1539 1.433 . S
C1538 C1534 1.350 . S
C1538 C1535 1.463 . S
C1538 N1542 1.427 . S
C1539 H1529 0.929 . S
C1539 C1537 1.433 . S
C1539 N1542 1.384 . S
C1540 H1531 0.929 . S
C1540 C1532 1.378 . S
C1540 C1535 1.350 . S
C1541 H1528 0.929 . S
C1541 C1533 1.433 . S
C1541 N1543 1.384 . S
N1542 C1538 1.427 . S
N1542 C1539 1.384 . S
N1543 C1535 1.427 . S
N1543 C1541 1.384 . S
H1544 C1550 0.930 . S
H1545 C1554 0.930 . S
H1546 C1559 0.929 . S
H1547 C1557 0.929 . S
H1548 C1552 0.929 . S
H1549 C1558 0.929 . S
C1550 H1544 0.930 . S
C1550 C1551 1.367 . S
C1550 C1558 1.378 . S
C1551 C1550 1.367 . S
C1551 C1559 1.433 . S
C1552 H1548 0.929 . S
C1552 C1554 1.378 . S
C1552 C1556 1.350 . S
C1553 C1556 1.463 . S
C1553 C1558 1.350 . S
C1553 N1561 1.427 . S
C1554 H1545 0.930 . S
C1554 C1552 1.378 . S
C1554 C1555 1.367 . S
C1555 C1554 1.367 . S
C1555 C1557 1.433 . S
C1556 C1552 1.350 . S
C1556 C1553 1.463 . S
C1556 N1560 1.427 . S
C1557 H1547 0.929 . S
C1557 C1555 1.433 . S
C1557 N1560 1.384 . S
C1558 H1549 0.929 . S
C1558 C1550 1.378 . S
C1558 C1553 1.350 . S
C1559 H1546 0.929 . S
C1559 C1551 1.433 . S
C1559 N1561 1.384 . S
N1560 C1556 1.427 . S
N1560 C1557 1.384 . S
N1561 C1553 1.427 . S
N1561 C1559 1.384 . S
H1562 C1568 0.930 . S
H1563 C1572 0.930 . S
H1564 C1577 0.929 . S
H1565 C1575 0.929 . S
H1566 C1570 0.929 . S
H1567 C1576 0.929 . S
C1568 H1562 0.930 . S
C1568 C1569 1.367 . S
C1568 C1576 1.378 . S
C1569 C1568 1.367 . S
C1569 C1577 1.433 . S
C1570 H1566 0.929 . S
C1570 C1572 1.378 . S
C1570 C1574 1.350 . S
C1571 C1574 1.463 . S
C1571 C1576 1.350 . S
C1571 N1579 1.427 . S
C1572 H1563 0.930 . S
C1572 C1570 1.378 . S
C1572 C1573 1.367 . S
C1573 C1572 1.367 . S
C1573 C1575 1.433 . S
C1574 C1570 1.350 . S
C1574 C1571 1.463 . S
C1574 N1578 1.427 . S
C1575 H1565 0.929 . S
C1575 C1573 1.433 . S
C1575 N1578 1.384 . S
C1576 H1567 0.929 . S
C1576 C1568 1.378 . S
C1576 C1571 1.350 . S
C1577 H1564 0.929 . S
C1577 C1569 1.433 . S
C1577 N1579 1.384 . S
N1578 C1574 1.427 . S
N1578 C1575 1.384 . S
N1579 C1571 1.427 . S
N1579 C1577 1.384 . S
H1580 C1586 0.930 . S
H1581 C1590 0.930 . S
H1582 C1595 0.929 . S
H1583 C1593 0.929 . S
H1584 C1588 0.929 . S
H1585 C1594 0.929 . S
C1586 H1580 0.930 . S
C1586 C1587 1.367 . S
C1586 C1594 1.378 . S
C1587 C1586 1.367 . S
C1587 C1595 1.433 . S
C1588 H1584 0.929 . S
C1588 C1590 1.378 . S
C1588 C1592 1.350 . S
C1589 C1592 1.463 . S
C1589 C1594 1.350 . S
C1589 N1597 1.427 . S
C1590 H1581 0.930 . S
C1590 C1588 1.378 . S
C1590 C1591 1.367 . S
C1591 C1590 1.367 . S
C1591 C1593 1.433 . S
C1592 C1588 1.350 . S
C1592 C1589 1.463 . S
C1592 N1596 1.427 . S
C1593 H1583 0.929 . S
C1593 C1591 1.433 . S
C1593 N1596 1.384 . S
C1594 H1585 0.929 . S
C1594 C1586 1.378 . S
C1594 C1589 1.350 . S
C1595 H1582 0.929 . S
C1595 C1587 1.433 . S
C1595 N1597 1.384 . S
N1596 C1592 1.427 . S
N1596 C1593 1.384 . S
N1597 C1589 1.427 . S
N1597 C1595 1.384 . S
H1598 C1604 0.930 . S
H1599 C1608 0.930 . S
H1600 C1613 0.929 . S
H1601 C1611 0.929 . S
H1602 C1606 0.929 . S
H1603 C1612 0.929 . S
C1604 H1598 0.930 . S
C1604 C1605 1.367 . S
C1604 C1612 1.378 . S
C1605 C1604 1.367 . S
C1605 C1613 1.433 . S
C1606 H1602 0.929 . S
C1606 C1608 1.378 . S
C1606 C1610 1.350 . S
C1607 C1610 1.463 . S
C1607 C1612 1.350 . S
C1607 N1615 1.427 . S
C1608 H1599 0.930 . S
C1608 C1606 1.378 . S
C1608 C1609 1.367 . S
C1609 C1608 1.367 . S
C1609 C1611 1.433 . S
C1610 C1606 1.350 . S
C1610 C1607 1.463 . S
C1610 N1614 1.427 . S
C1611 H1601 0.929 . S
C1611 C1609 1.433 . S
C1611 N1614 1.384 . S
C1612 H1603 0.929 . S
C1612 C1604 1.378 . S
C1612 C1607 1.350 . S
C1613 H1600 0.929 . S
C1613 C1605 1.433 . S
C1613 N1615 1.384 . S
N1614 C1610 1.427 . S
N1614 C1611 1.384 . S
N1615 C1607 1.427 . S
N1615 C1613 1.384 . S
H1616 C1622 0.930 . S
H1617 C1626 0.930 . S
H1618 C1631 0.929 . S
H1619 C1629 0.929 . S
H1620 C1624 0.929 . S
H1621 C1630 0.929 . S
C1622 H1616 0.930 . S
C1622 C1623 1.367 . S
C1622 C1630 1.378 . S
C1623 C1622 1.367 . S
C1623 C1631 1.433 . S
C1624 H1620 0.929 . S
C1624 C1626 1.378 . S
C1624 C1628 1.350 . S
C1625 C1628 1.463 . S
C1625 C1630 1.350 . S
C1625 N1633 1.427 . S
C1626 H1617 0.930 . S
C1626 C1624 1.378 . S
C1626 C1627 1.367 . S
C1627 C1626 1.367 . S
C1627 C1629 1.433 . S
C1628 C1624 1.350 . S
C1628 C1625 1.463 . S
C1628 N1632 1.427 . S
C1629 H1619 0.929 . S
C1629 C1627 1.433 . S
C1629 N1632 1.384 . S
C1630 H1621 0.929 . S
C1630 C1622 1.378 . S
C1630 C1625 1.350 . S
C1631 H1618 0.929 . S
C1631 C1623 1.433 . S
C1631 N1633 1.384 . S
N1632 C1628 1.427 . S
N1632 C1629 1.384 . S
N1633 C1625 1.427 . S
N1633 C1631 1.384 . S
H1634 C1640 0.930 . S
H1635 C1644 0.930 . S
H1636 C1649 0.929 . S
H1637 C1647 0.929 . S
H1638 C1642 0.929 . S
H1639 C1648 0.929 . S
C1640 H1634 0.930 . S
C1640 C1641 1.367 . S
C1640 C1648 1.378 . S
C1641 C1640 1.367 . S
C1641 C1649 1.433 . S
C1642 H1638 0.929 . S
C1642 C1644 1.378 . S
C1642 C1646 1.350 . S
C1643 C1646 1.463 . S
C1643 C1648 1.350 . S
C1643 N1651 1.427 . S
C1644 H1635 0.930 . S
C1644 C1642 1.378 . S
C1644 C1645 1.367 . S
C1645 C1644 1.367 . S
C1645 C1647 1.433 . S
C1646 C1642 1.350 . S
C1646 C1643 1.463 . S
C1646 N1650 1.427 . S
C1647 H1637 0.929 . S
C1647 C1645 1.433 . S
C1647 N1650 1.384 . S
C1648 H1639 0.929 . S
C1648 C1640 1.378 . S
C1648 C1643 1.350 . S
C1649 H1636 0.929 . S
C1649 C1641 1.433 . S
C1649 N1651 1.384 . S
N1650 C1646 1.427 . S
N1650 C1647 1.384 . S
N1651 C1643 1.427 . S
N1651 C1649 1.384 . S
H1652 C1658 0.930 . S
H1653 C1662 0.930 . S
H1654 C1667 0.929 . S
H1655 C1665 0.929 . S
H1656 C1660 0.929 . S
H1657 C1666 0.929 . S
C1658 H1652 0.930 . S
C1658 C1659 1.367 . S
C1658 C1666 1.378 . S
C1659 C1658 1.367 . S
C1659 C1667 1.433 . S
C1660 H1656 0.929 . S
C1660 C1662 1.378 . S
C1660 C1664 1.350 . S
C1661 C1664 1.463 . S
C1661 C1666 1.350 . S
C1661 N1669 1.427 . S
C1662 H1653 0.930 . S
C1662 C1660 1.378 . S
C1662 C1663 1.367 . S
C1663 C1662 1.367 . S
C1663 C1665 1.433 . S
C1664 C1660 1.350 . S
C1664 C1661 1.463 . S
C1664 N1668 1.427 . S
C1665 H1655 0.929 . S
C1665 C1663 1.433 . S
C1665 N1668 1.384 . S
C1666 H1657 0.929 . S
C1666 C1658 1.378 . S
C1666 C1661 1.350 . S
C1667 H1654 0.929 . S
C1667 C1659 1.433 . S
C1667 N1669 1.384 . S
N1668 C1664 1.427 . S
N1668 C1665 1.384 . S
N1669 C1661 1.427 . S
N1669 C1667 1.384 . S
H1670 C1676 0.930 . S
H1671 C1680 0.930 . S
H1672 C1685 0.929 . S
H1673 C1683 0.929 . S
H1674 C1678 0.929 . S
H1675 C1684 0.929 . S
C1676 H1670 0.930 . S
C1676 C1677 1.367 . S
C1676 C1684 1.378 . S
C1677 C1676 1.367 . S
C1677 C1685 1.433 . S
C1678 H1674 0.929 . S
C1678 C1680 1.378 . S
C1678 C1682 1.350 . S
C1679 C1682 1.463 . S
C1679 C1684 1.350 . S
C1679 N1687 1.427 . S
C1680 H1671 0.930 . S
C1680 C1678 1.378 . S
C1680 C1681 1.367 . S
C1681 C1680 1.367 . S
C1681 C1683 1.433 . S
C1682 C1678 1.350 . S
C1682 C1679 1.463 . S
C1682 N1686 1.427 . S
C1683 H1673 0.929 . S
C1683 C1681 1.433 . S
C1683 N1686 1.384 . S
C1684 H1675 0.929 . S
C1684 C1676 1.378 . S
C1684 C1679 1.350 . S
C1685 H1672 0.929 . S
C1685 C1677 1.433 . S
C1685 N1687 1.384 . S
N1686 C1682 1.427 . S
N1686 C1683 1.384 . S
N1687 C1679 1.427 . S
N1687 C1685 1.384 . S
H1688 C1694 0.930 . S
H1689 C1698 0.930 . S
H1690 C1703 0.929 . S
H1691 C1701 0.929 . S
H1692 C1696 0.929 . S
H1693 C1702 0.929 . S
C1694 H1688 0.930 . S
C1694 C1695 1.367 . S
C1694 C1702 1.378 . S
C1695 C1694 1.367 . S
C1695 C1703 1.433 . S
C1696 H1692 0.929 . S
C1696 C1698 1.378 . S
C1696 C1700 1.350 . S
C1697 C1700 1.463 . S
C1697 C1702 1.350 . S
C1697 N1705 1.427 . S
C1698 H1689 0.930 . S
C1698 C1696 1.378 . S
C1698 C1699 1.367 . S
C1699 C1698 1.367 . S
C1699 C1701 1.433 . S
C1700 C1696 1.350 . S
C1700 C1697 1.463 . S
C1700 N1704 1.427 . S
C1701 H1691 0.929 . S
C1701 C1699 1.433 . S
C1701 N1704 1.384 . S
C1702 H1693 0.929 . S
C1702 C1694 1.378 . S
C1702 C1697 1.350 . S
C1703 H1690 0.929 . S
C1703 C1695 1.433 . S
C1703 N1705 1.384 . S
N1704 C1700 1.427 . S
N1704 C1701 1.384 . S
N1705 C1697 1.427 . S
N1705 C1703 1.384 . S
H1706 C1712 0.930 . S
H1707 C1716 0.930 . S
H1708 C1721 0.929 . S
H1709 C1719 0.929 . S
H1710 C1714 0.929 . S
H1711 C1720 0.929 . S
C1712 H1706 0.930 . S
C1712 C1713 1.367 . S
C1712 C1720 1.378 . S
C1713 C1712 1.367 . S
C1713 C1721 1.433 . S
C1714 H1710 0.929 . S
C1714 C1716 1.378 . S
C1714 C1718 1.350 . S
C1715 C1718 1.463 . S
C1715 C1720 1.350 . S
C1715 N1723 1.427 . S
C1716 H1707 0.930 . S
C1716 C1714 1.378 . S
C1716 C1717 1.367 . S
C1717 C1716 1.367 . S
C1717 C1719 1.433 . S
C1718 C1714 1.350 . S
C1718 C1715 1.463 . S
C1718 N1722 1.427 . S
C1719 H1709 0.929 . S
C1719 C1717 1.433 . S
C1719 N1722 1.384 . S
C1720 H1711 0.929 . S
C1720 C1712 1.378 . S
C1720 C1715 1.350 . S
C1721 H1708 0.929 . S
C1721 C1713 1.433 . S
C1721 N1723 1.384 . S
N1722 C1718 1.427 . S
N1722 C1719 1.384 . S
N1723 C1715 1.427 . S
N1723 C1721 1.384 . S
H1724 C1730 0.930 . S
H1725 C1734 0.930 . S
H1726 C1739 0.929 . S
H1727 C1737 0.929 . S
H1728 C1732 0.929 . S
H1729 C1738 0.929 . S
C1730 H1724 0.930 . S
C1730 C1731 1.367 . S
C1730 C1738 1.378 . S
C1731 C1730 1.367 . S
C1731 C1739 1.433 . S
C1732 H1728 0.929 . S
C1732 C1734 1.378 . S
C1732 C1736 1.350 . S
C1733 C1736 1.463 . S
C1733 C1738 1.350 . S
C1733 N1741 1.427 . S
C1734 H1725 0.930 . S
C1734 C1732 1.378 . S
C1734 C1735 1.367 . S
C1735 C1734 1.367 . S
C1735 C1737 1.433 . S
C1736 C1732 1.350 . S
C1736 C1733 1.463 . S
C1736 N1740 1.427 . S
C1737 H1727 0.929 . S
C1737 C1735 1.433 . S
C1737 N1740 1.384 . S
C1738 H1729 0.929 . S
C1738 C1730 1.378 . S
C1738 C1733 1.350 . S
C1739 H1726 0.929 . S
C1739 C1731 1.433 . S
C1739 N1741 1.384 . S
N1740 C1736 1.427 . S
N1740 C1737 1.384 . S
N1741 C1733 1.427 . S
N1741 C1739 1.384 . S
H1742 C1748 0.930 . S
H1743 C1752 0.930 . S
H1744 C1757 0.929 . S
H1745 C1755 0.929 . S
H1746 C1750 0.929 . S
H1747 C1756 0.929 . S
C1748 H1742 0.930 . S
C1748 C1749 1.367 . S
C1748 C1756 1.378 . S
C1749 C1748 1.367 . S
C1749 C1757 1.433 . S
C1750 H1746 0.929 . S
C1750 C1752 1.378 . S
C1750 C1754 1.350 . S
C1751 C1754 1.463 . S
C1751 C1756 1.350 . S
C1751 N1759 1.427 . S
C1752 H1743 0.930 . S
C1752 C1750 1.378 . S
C1752 C1753 1.367 . S
C1753 C1752 1.367 . S
C1753 C1755 1.433 . S
C1754 C1750 1.350 . S
C1754 C1751 1.463 . S
C1754 N1758 1.427 . S
C1755 H1745 0.929 . S
C1755 C1753 1.433 . S
C1755 N1758 1.384 . S
C1756 H1747 0.929 . S
C1756 C1748 1.378 . S
C1756 C1751 1.350 . S
C1757 H1744 0.929 . S
C1757 C1749 1.433 . S
C1757 N1759 1.384 . S
N1758 C1754 1.427 . S
N1758 C1755 1.384 . S
N1759 C1751 1.427 . S
N1759 C1757 1.384 . S
H1760 C1766 0.930 . S
H1761 C1770 0.930 . S
H1762 C1775 0.929 . S
H1763 C1773 0.929 . S
H1764 C1768 0.929 . S
H1765 C1774 0.929 . S
C1766 H1760 0.930 . S
C1766 C1767 1.367 . S
C1766 C1774 1.378 . S
C1767 C1766 1.367 . S
C1767 C1775 1.433 . S
C1768 H1764 0.929 . S
C1768 C1770 1.378 . S
C1768 C1772 1.350 . S
C1769 C1772 1.463 . S
C1769 C1774 1.350 . S
C1769 N1777 1.427 . S
C1770 H1761 0.930 . S
C1770 C1768 1.378 . S
C1770 C1771 1.367 . S
C1771 C1770 1.367 . S
C1771 C1773 1.433 . S
C1772 C1768 1.350 . S
C1772 C1769 1.463 . S
C1772 N1776 1.427 . S
C1773 H1763 0.929 . S
C1773 C1771 1.433 . S
C1773 N1776 1.384 . S
C1774 H1765 0.929 . S
C1774 C1766 1.378 . S
C1774 C1769 1.350 . S
C1775 H1762 0.929 . S
C1775 C1767 1.433 . S
C1775 N1777 1.384 . S
N1776 C1772 1.427 . S
N1776 C1773 1.384 . S
N1777 C1769 1.427 . S
N1777 C1775 1.384 . S
H1778 C1784 0.930 . S
H1779 C1788 0.930 . S
H1780 C1793 0.929 . S
H1781 C1791 0.929 . S
H1782 C1786 0.929 . S
H1783 C1792 0.929 . S
C1784 H1778 0.930 . S
C1784 C1785 1.367 . S
C1784 C1792 1.378 . S
C1785 C1784 1.367 . S
C1785 C1793 1.433 . S
C1786 H1782 0.929 . S
C1786 C1788 1.378 . S
C1786 C1790 1.350 . S
C1787 C1790 1.463 . S
C1787 C1792 1.350 . S
C1787 N1795 1.427 . S
C1788 H1779 0.930 . S
C1788 C1786 1.378 . S
C1788 C1789 1.367 . S
C1789 C1788 1.367 . S
C1789 C1791 1.433 . S
C1790 C1786 1.350 . S
C1790 C1787 1.463 . S
C1790 N1794 1.427 . S
C1791 H1781 0.929 . S
C1791 C1789 1.433 . S
C1791 N1794 1.384 . S
C1792 H1783 0.929 . S
C1792 C1784 1.378 . S
C1792 C1787 1.350 . S
C1793 H1780 0.929 . S
C1793 C1785 1.433 . S
C1793 N1795 1.384 . S
N1794 C1790 1.427 . S
N1794 C1791 1.384 . S
N1795 C1787 1.427 . S
N1795 C1793 1.384 . S
H1796 C1802 0.930 . S
H1797 C1806 0.930 . S
H1798 C1811 0.929 . S
H1799 C1809 0.929 . S
H1800 C1804 0.929 . S
H1801 C1810 0.929 . S
C1802 H1796 0.930 . S
C1802 C1803 1.367 . S
C1802 C1810 1.378 . S
C1803 C1802 1.367 . S
C1803 C1811 1.433 . S
C1804 H1800 0.929 . S
C1804 C1806 1.378 . S
C1804 C1808 1.350 . S
C1805 C1808 1.463 . S
C1805 C1810 1.350 . S
C1805 N1813 1.427 . S
C1806 H1797 0.930 . S
C1806 C1804 1.378 . S
C1806 C1807 1.367 . S
C1807 C1806 1.367 . S
C1807 C1809 1.433 . S
C1808 C1804 1.350 . S
C1808 C1805 1.463 . S
C1808 N1812 1.427 . S
C1809 H1799 0.929 . S
C1809 C1807 1.433 . S
C1809 N1812 1.384 . S
C1810 H1801 0.929 . S
C1810 C1802 1.378 . S
C1810 C1805 1.350 . S
C1811 H1798 0.929 . S
C1811 C1803 1.433 . S
C1811 N1813 1.384 . S
N1812 C1808 1.427 . S
N1812 C1809 1.384 . S
N1813 C1805 1.427 . S
N1813 C1811 1.384 . S
H1814 C1820 0.930 . S
H1815 C1824 0.930 . S
H1816 C1829 0.929 . S
H1817 C1827 0.929 . S
H1818 C1822 0.929 . S
H1819 C1828 0.929 . S
C1820 H1814 0.930 . S
C1820 C1821 1.367 . S
C1820 C1828 1.378 . S
C1821 C1820 1.367 . S
C1821 C1829 1.433 . S
C1822 H1818 0.929 . S
C1822 C1824 1.378 . S
C1822 C1826 1.350 . S
C1823 C1826 1.463 . S
C1823 C1828 1.350 . S
C1823 N1831 1.427 . S
C1824 H1815 0.930 . S
C1824 C1822 1.378 . S
C1824 C1825 1.367 . S
C1825 C1824 1.367 . S
C1825 C1827 1.433 . S
C1826 C1822 1.350 . S
C1826 C1823 1.463 . S
C1826 N1830 1.427 . S
C1827 H1817 0.929 . S
C1827 C1825 1.433 . S
C1827 N1830 1.384 . S
C1828 H1819 0.929 . S
C1828 C1820 1.378 . S
C1828 C1823 1.350 . S
C1829 H1816 0.929 . S
C1829 C1821 1.433 . S
C1829 N1831 1.384 . S
N1830 C1826 1.427 . S
N1830 C1827 1.384 . S
N1831 C1823 1.427 . S
N1831 C1829 1.384 . S
H1832 C1838 0.930 . S
H1833 C1842 0.930 . S
H1834 C1847 0.929 . S
H1835 C1845 0.929 . S
H1836 C1840 0.929 . S
H1837 C1846 0.929 . S
C1838 H1832 0.930 . S
C1838 C1839 1.367 . S
C1838 C1846 1.378 . S
C1839 C1838 1.367 . S
C1839 C1847 1.433 . S
C1840 H1836 0.929 . S
C1840 C1842 1.378 . S
C1840 C1844 1.350 . S
C1841 C1844 1.463 . S
C1841 C1846 1.350 . S
C1841 N1849 1.427 . S
C1842 H1833 0.930 . S
C1842 C1840 1.378 . S
C1842 C1843 1.367 . S
C1843 C1842 1.367 . S
C1843 C1845 1.433 . S
C1844 C1840 1.350 . S
C1844 C1841 1.463 . S
C1844 N1848 1.427 . S
C1845 H1835 0.929 . S
C1845 C1843 1.433 . S
C1845 N1848 1.384 . S
C1846 H1837 0.929 . S
C1846 C1838 1.378 . S
C1846 C1841 1.350 . S
C1847 H1834 0.929 . S
C1847 C1839 1.433 . S
C1847 N1849 1.384 . S
N1848 C1844 1.427 . S
N1848 C1845 1.384 . S
N1849 C1841 1.427 . S
N1849 C1847 1.384 . S
H1850 C1856 0.930 . S
H1851 C1860 0.930 . S
H1852 C1865 0.929 . S
H1853 C1863 0.929 . S
H1854 C1858 0.929 . S
H1855 C1864 0.929 . S
C1856 H1850 0.930 . S
C1856 C1857 1.367 . S
C1856 C1864 1.378 . S
C1857 C1856 1.367 . S
C1857 C1865 1.433 . S
C1858 H1854 0.929 . S
C1858 C1860 1.378 . S
C1858 C1862 1.350 . S
C1859 C1862 1.463 . S
C1859 C1864 1.350 . S
C1859 N1867 1.427 . S
C1860 H1851 0.930 . S
C1860 C1858 1.378 . S
C1860 C1861 1.367 . S
C1861 C1860 1.367 . S
C1861 C1863 1.433 . S
C1862 C1858 1.350 . S
C1862 C1859 1.463 . S
C1862 N1866 1.427 . S
C1863 H1853 0.929 . S
C1863 C1861 1.433 . S
C1863 N1866 1.384 . S
C1864 H1855 0.929 . S
C1864 C1856 1.378 . S
C1864 C1859 1.350 . S
C1865 H1852 0.929 . S
C1865 C1857 1.433 . S
C1865 N1867 1.384 . S
N1866 C1862 1.427 . S
N1866 C1863 1.384 . S
N1867 C1859 1.427 . S
N1867 C1865 1.384 . S
H1868 C1874 0.930 . S
H1869 C1878 0.930 . S
H1870 C1883 0.929 . S
H1871 C1881 0.929 . S
H1872 C1876 0.929 . S
H1873 C1882 0.929 . S
C1874 H1868 0.930 . S
C1874 C1875 1.367 . S
C1874 C1882 1.378 . S
C1875 C1874 1.367 . S
C1875 C1883 1.433 . S
C1876 H1872 0.929 . S
C1876 C1878 1.378 . S
C1876 C1880 1.350 . S
C1877 C1880 1.463 . S
C1877 C1882 1.350 . S
C1877 N1885 1.427 . S
C1878 H1869 0.930 . S
C1878 C1876 1.378 . S
C1878 C1879 1.367 . S
C1879 C1878 1.367 . S
C1879 C1881 1.433 . S
C1880 C1876 1.350 . S
C1880 C1877 1.463 . S
C1880 N1884 1.427 . S
C1881 H1871 0.929 . S
C1881 C1879 1.433 . S
C1881 N1884 1.384 . S
C1882 H1873 0.929 . S
C1882 C1874 1.378 . S
C1882 C1877 1.350 . S
C1883 H1870 0.929 . S
C1883 C1875 1.433 . S
C1883 N1885 1.384 . S
N1884 C1880 1.427 . S
N1884 C1881 1.384 . S
N1885 C1877 1.427 . S
N1885 C1883 1.384 . S
H1886 C1892 0.930 . S
H1887 C1896 0.930 . S
H1888 C1901 0.929 . S
H1889 C1899 0.929 . S
H1890 C1894 0.929 . S
H1891 C1900 0.929 . S
C1892 H1886 0.930 . S
C1892 C1893 1.367 . S
C1892 C1900 1.378 . S
C1893 C1892 1.367 . S
C1893 C1901 1.433 . S
C1894 H1890 0.929 . S
C1894 C1896 1.378 . S
C1894 C1898 1.350 . S
C1895 C1898 1.463 . S
C1895 C1900 1.350 . S
C1895 N1903 1.427 . S
C1896 H1887 0.930 . S
C1896 C1894 1.378 . S
C1896 C1897 1.367 . S
C1897 C1896 1.367 . S
C1897 C1899 1.433 . S
C1898 C1894 1.350 . S
C1898 C1895 1.463 . S
C1898 N1902 1.427 . S
C1899 H1889 0.929 . S
C1899 C1897 1.433 . S
C1899 N1902 1.384 . S
C1900 H1891 0.929 . S
C1900 C1892 1.378 . S
C1900 C1895 1.350 . S
C1901 H1888 0.929 . S
C1901 C1893 1.433 . S
C1901 N1903 1.384 . S
N1902 C1898 1.427 . S
N1902 C1899 1.384 . S
N1903 C1895 1.427 . S
N1903 C1901 1.384 . S
H1904 C1910 0.930 . S
H1905 C1914 0.930 . S
H1906 C1919 0.929 . S
H1907 C1917 0.929 . S
H1908 C1912 0.929 . S
H1909 C1918 0.929 . S
C1910 H1904 0.930 . S
C1910 C1911 1.367 . S
C1910 C1918 1.378 . S
C1911 C1910 1.367 . S
C1911 C1919 1.433 . S
C1912 H1908 0.929 . S
C1912 C1914 1.378 . S
C1912 C1916 1.350 . S
C1913 C1916 1.463 . S
C1913 C1918 1.350 . S
C1913 N1921 1.427 . S
C1914 H1905 0.930 . S
C1914 C1912 1.378 . S
C1914 C1915 1.367 . S
C1915 C1914 1.367 . S
C1915 C1917 1.433 . S
C1916 C1912 1.350 . S
C1916 C1913 1.463 . S
C1916 N1920 1.427 . S
C1917 H1907 0.929 . S
C1917 C1915 1.433 . S
C1917 N1920 1.384 . S
C1918 H1909 0.929 . S
C1918 C1910 1.378 . S
C1918 C1913 1.350 . S
C1919 H1906 0.929 . S
C1919 C1911 1.433 . S
C1919 N1921 1.384 . S
N1920 C1916 1.427 . S
N1920 C1917 1.384 . S
N1921 C1913 1.427 . S
N1921 C1919 1.384 . S
H1922 C1928 0.930 . S
H1923 C1932 0.930 . S
H1924 C1937 0.929 . S
H1925 C1935 0.929 . S
H1926 C1930 0.929 . S
H1927 C1936 0.929 . S
C1928 H1922 0.930 . S
C1928 C1929 1.367 . S
C1928 C1936 1.378 . S
C1929 C1928 1.367 . S
C1929 C1937 1.433 . S
C1930 H1926 0.929 . S
C1930 C1932 1.378 . S
C1930 C1934 1.350 . S
C1931 C1934 1.463 . S
C1931 C1936 1.350 . S
C1931 N1939 1.427 . S
C1932 H1923 0.930 . S
C1932 C1930 1.378 . S
C1932 C1933 1.367 . S
C1933 C1932 1.367 . S
C1933 C1935 1.433 . S
C1934 C1930 1.350 . S
C1934 C1931 1.463 . S
C1934 N1938 1.427 . S
C1935 H1925 0.929 . S
C1935 C1933 1.433 . S
C1935 N1938 1.384 . S
C1936 H1927 0.929 . S
C1936 C1928 1.378 . S
C1936 C1931 1.350 . S
C1937 H1924 0.929 . S
C1937 C1929 1.433 . S
C1937 N1939 1.384 . S
N1938 C1934 1.427 . S
N1938 C1935 1.384 . S
N1939 C1931 1.427 . S
N1939 C1937 1.384 . S
H1940 C1946 0.930 . S
H1941 C1950 0.930 . S
H1942 C1955 0.929 . S
H1943 C1953 0.929 . S
H1944 C1948 0.929 . S
H1945 C1954 0.929 . S
C1946 H1940 0.930 . S
C1946 C1947 1.367 . S
C1946 C1954 1.378 . S
C1947 C1946 1.367 . S
C1947 C1955 1.433 . S
C1948 H1944 0.929 . S
C1948 C1950 1.378 . S
C1948 C1952 1.350 . S
C1949 C1952 1.463 . S
C1949 C1954 1.350 . S
C1949 N1957 1.427 . S
C1950 H1941 0.930 . S
C1950 C1948 1.378 . S
C1950 C1951 1.367 . S
C1951 C1950 1.367 . S
C1951 C1953 1.433 . S
C1952 C1948 1.350 . S
C1952 C1949 1.463 . S
C1952 N1956 1.427 . S
C1953 H1943 0.929 . S
C1953 C1951 1.433 . S
C1953 N1956 1.384 . S
C1954 H1945 0.929 . S
C1954 C1946 1.378 . S
C1954 C1949 1.350 . S
C1955 H1942 0.929 . S
C1955 C1947 1.433 . S
C1955 N1957 1.384 . S
N1956 C1952 1.427 . S
N1956 C1953 1.384 . S
N1957 C1949 1.427 . S
N1957 C1955 1.384 . S
H1958 C1964 0.930 . S
H1959 C1968 0.930 . S
H1960 C1973 0.929 . S
H1961 C1971 0.929 . S
H1962 C1966 0.929 . S
H1963 C1972 0.929 . S
C1964 H1958 0.930 . S
C1964 C1965 1.367 . S
C1964 C1972 1.378 . S
C1965 C1964 1.367 . S
C1965 C1973 1.433 . S
C1966 H1962 0.929 . S
C1966 C1968 1.378 . S
C1966 C1970 1.350 . S
C1967 C1970 1.463 . S
C1967 C1972 1.350 . S
C1967 N1975 1.427 . S
C1968 H1959 0.930 . S
C1968 C1966 1.378 . S
C1968 C1969 1.367 . S
C1969 C1968 1.367 . S
C1969 C1971 1.433 . S
C1970 C1966 1.350 . S
C1970 C1967 1.463 . S
C1970 N1974 1.427 . S
C1971 H1961 0.929 . S
C1971 C1969 1.433 . S
C1971 N1974 1.384 . S
C1972 H1963 0.929 . S
C1972 C1964 1.378 . S
C1972 C1967 1.350 . S
C1973 H1960 0.929 . S
C1973 C1965 1.433 . S
C1973 N1975 1.384 . S
N1974 C1970 1.427 . S
N1974 C1971 1.384 . S
N1975 C1967 1.427 . S
N1975 C1973 1.384 . S
H1976 C1982 0.930 . S
H1977 C1986 0.930 . S
H1978 C1991 0.929 . S
H1979 C1989 0.929 . S
H1980 C1984 0.929 . S
H1981 C1990 0.929 . S
C1982 H1976 0.930 . S
C1982 C1983 1.367 . S
C1982 C1990 1.378 . S
C1983 C1982 1.367 . S
C1983 C1991 1.433 . S
C1984 H1980 0.929 . S
C1984 C1986 1.378 . S
C1984 C1988 1.350 . S
C1985 C1988 1.463 . S
C1985 C1990 1.350 . S
C1985 N1993 1.427 . S
C1986 H1977 0.930 . S
C1986 C1984 1.378 . S
C1986 C1987 1.367 . S
C1987 C1986 1.367 . S
C1987 C1989 1.433 . S
C1988 C1984 1.350 . S
C1988 C1985 1.463 . S
C1988 N1992 1.427 . S
C1989 H1979 0.929 . S
C1989 C1987 1.433 . S
C1989 N1992 1.384 . S
C1990 H1981 0.929 . S
C1990 C1982 1.378 . S
C1990 C1985 1.350 . S
C1991 H1978 0.929 . S
C1991 C1983 1.433 . S
C1991 N1993 1.384 . S
N1992 C1988 1.427 . S
N1992 C1989 1.384 . S
N1993 C1985 1.427 . S
N1993 C1991 1.384 . S
H1994 C2000 0.930 . S
H1995 C2004 0.930 . S
H1996 C2009 0.929 . S
H1997 C2007 0.929 . S
H1998 C2002 0.929 . S
H1999 C2008 0.929 . S
C2000 H1994 0.930 . S
C2000 C2001 1.367 . S
C2000 C2008 1.378 . S
C2001 C2000 1.367 . S
C2001 C2009 1.433 . S
C2002 H1998 0.929 . S
C2002 C2004 1.378 . S
C2002 C2006 1.350 . S
C2003 C2006 1.463 . S
C2003 C2008 1.350 . S
C2003 N2011 1.427 . S
C2004 H1995 0.930 . S
C2004 C2002 1.378 . S
C2004 C2005 1.367 . S
C2005 C2004 1.367 . S
C2005 C2007 1.433 . S
C2006 C2002 1.350 . S
C2006 C2003 1.463 . S
C2006 N2010 1.427 . S
C2007 H1997 0.929 . S
C2007 C2005 1.433 . S
C2007 N2010 1.384 . S
C2008 H1999 0.929 . S
C2008 C2000 1.378 . S
C2008 C2003 1.350 . S
C2009 H1996 0.929 . S
C2009 C2001 1.433 . S
C2009 N2011 1.384 . S
N2010 C2006 1.427 . S
N2010 C2007 1.384 . S
N2011 C2003 1.427 . S
N2011 C2009 1.384 . S
H2012 C2018 0.930 . S
H2013 C2022 0.930 . S
H2014 C2027 0.929 . S
H2015 C2025 0.929 . S
H2016 C2020 0.929 . S
H2017 C2026 0.929 . S
C2018 H2012 0.930 . S
C2018 C2019 1.367 . S
C2018 C2026 1.378 . S
C2019 C2018 1.367 . S
C2019 C2027 1.433 . S
C2020 H2016 0.929 . S
C2020 C2022 1.378 . S
C2020 C2024 1.350 . S
C2021 C2024 1.463 . S
C2021 C2026 1.350 . S
C2021 N2029 1.427 . S
C2022 H2013 0.930 . S
C2022 C2020 1.378 . S
C2022 C2023 1.367 . S
C2023 C2022 1.367 . S
C2023 C2025 1.433 . S
C2024 C2020 1.350 . S
C2024 C2021 1.463 . S
C2024 N2028 1.427 . S
C2025 H2015 0.929 . S
C2025 C2023 1.433 . S
C2025 N2028 1.384 . S
C2026 H2017 0.929 . S
C2026 C2018 1.378 . S
C2026 C2021 1.350 . S
C2027 H2014 0.929 . S
C2027 C2019 1.433 . S
C2027 N2029 1.384 . S
N2028 C2024 1.427 . S
N2028 C2025 1.384 . S
N2029 C2021 1.427 . S
N2029 C2027 1.384 . S
H2030 C2036 0.930 . S
H2031 C2040 0.930 . S
H2032 C2045 0.929 . S
H2033 C2043 0.929 . S
H2034 C2038 0.929 . S
H2035 C2044 0.929 . S
C2036 H2030 0.930 . S
C2036 C2037 1.367 . S
C2036 C2044 1.378 . S
C2037 C2036 1.367 . S
C2037 C2045 1.433 . S
C2038 H2034 0.929 . S
C2038 C2040 1.378 . S
C2038 C2042 1.350 . S
C2039 C2042 1.463 . S
C2039 C2044 1.350 . S
C2039 N2047 1.427 . S
C2040 H2031 0.930 . S
C2040 C2038 1.378 . S
C2040 C2041 1.367 . S
C2041 C2040 1.367 . S
C2041 C2043 1.433 . S
C2042 C2038 1.350 . S
C2042 C2039 1.463 . S
C2042 N2046 1.427 . S
C2043 H2033 0.929 . S
C2043 C2041 1.433 . S
C2043 N2046 1.384 . S
C2044 H2035 0.929 . S
C2044 C2036 1.378 . S
C2044 C2039 1.350 . S
C2045 H2032 0.929 . S
C2045 C2037 1.433 . S
C2045 N2047 1.384 . S
N2046 C2042 1.427 . S
N2046 C2043 1.384 . S
N2047 C2039 1.427 . S
N2047 C2045 1.384 . S
H2048 C2054 0.930 . S
H2049 C2058 0.930 . S
H2050 C2063 0.929 . S
H2051 C2061 0.929 . S
H2052 C2056 0.929 . S
H2053 C2062 0.929 . S
C2054 H2048 0.930 . S
C2054 C2055 1.367 . S
C2054 C2062 1.378 . S
C2055 C2054 1.367 . S
C2055 C2063 1.433 . S
C2056 H2052 0.929 . S
C2056 C2058 1.378 . S
C2056 C2060 1.350 . S
C2057 C2060 1.463 . S
C2057 C2062 1.350 . S
C2057 N2065 1.427 . S
C2058 H2049 0.930 . S
C2058 C2056 1.378 . S
C2058 C2059 1.367 . S
C2059 C2058 1.367 . S
C2059 C2061 1.433 . S
C2060 C2056 1.350 . S
C2060 C2057 1.463 . S
C2060 N2064 1.427 . S
C2061 H2051 0.929 . S
C2061 C2059 1.433 . S
C2061 N2064 1.384 . S
C2062 H2053 0.929 . S
C2062 C2054 1.378 . S
C2062 C2057 1.350 . S
C2063 H2050 0.929 . S
C2063 C2055 1.433 . S
C2063 N2065 1.384 . S
N2064 C2060 1.427 . S
N2064 C2061 1.384 . S
N2065 C2057 1.427 . S
N2065 C2063 1.384 . S
H2066 C2072 0.930 . S
H2067 C2076 0.930 . S
H2068 C2081 0.929 . S
H2069 C2079 0.929 . S
H2070 C2074 0.929 . S
H2071 C2080 0.929 . S
C2072 H2066 0.930 . S
C2072 C2073 1.367 . S
C2072 C2080 1.378 . S
C2073 C2072 1.367 . S
C2073 C2081 1.433 . S
C2074 H2070 0.929 . S
C2074 C2076 1.378 . S
C2074 C2078 1.350 . S
C2075 C2078 1.463 . S
C2075 C2080 1.350 . S
C2075 N2083 1.427 . S
C2076 H2067 0.930 . S
C2076 C2074 1.378 . S
C2076 C2077 1.367 . S
C2077 C2076 1.367 . S
C2077 C2079 1.433 . S
C2078 C2074 1.350 . S
C2078 C2075 1.463 . S
C2078 N2082 1.427 . S
C2079 H2069 0.929 . S
C2079 C2077 1.433 . S
C2079 N2082 1.384 . S
C2080 H2071 0.929 . S
C2080 C2072 1.378 . S
C2080 C2075 1.350 . S
C2081 H2068 0.929 . S
C2081 C2073 1.433 . S
C2081 N2083 1.384 . S
N2082 C2078 1.427 . S
N2082 C2079 1.384 . S
N2083 C2075 1.427 . S
N2083 C2081 1.384 . S
H2084 C2090 0.930 . S
H2085 C2094 0.930 . S
H2086 C2099 0.929 . S
H2087 C2097 0.929 . S
H2088 C2092 0.929 . S
H2089 C2098 0.929 . S
C2090 H2084 0.930 . S
C2090 C2091 1.367 . S
C2090 C2098 1.378 . S
C2091 C2090 1.367 . S
C2091 C2099 1.433 . S
C2092 H2088 0.929 . S
C2092 C2094 1.378 . S
C2092 C2096 1.350 . S
C2093 C2096 1.463 . S
C2093 C2098 1.350 . S
C2093 N2101 1.427 . S
C2094 H2085 0.930 . S
C2094 C2092 1.378 . S
C2094 C2095 1.367 . S
C2095 C2094 1.367 . S
C2095 C2097 1.433 . S
C2096 C2092 1.350 . S
C2096 C2093 1.463 . S
C2096 N2100 1.427 . S
C2097 H2087 0.929 . S
C2097 C2095 1.433 . S
C2097 N2100 1.384 . S
C2098 H2089 0.929 . S
C2098 C2090 1.378 . S
C2098 C2093 1.350 . S
C2099 H2086 0.929 . S
C2099 C2091 1.433 . S
C2099 N2101 1.384 . S
N2100 C2096 1.427 . S
N2100 C2097 1.384 . S
N2101 C2093 1.427 . S
N2101 C2099 1.384 . S
H2102 C2108 0.930 . S
H2103 C2112 0.930 . S
H2104 C2117 0.929 . S
H2105 C2115 0.929 . S
H2106 C2110 0.929 . S
H2107 C2116 0.929 . S
C2108 H2102 0.930 . S
C2108 C2109 1.367 . S
C2108 C2116 1.378 . S
C2109 C2108 1.367 . S
C2109 C2117 1.433 . S
C2110 H2106 0.929 . S
C2110 C2112 1.378 . S
C2110 C2114 1.350 . S
C2111 C2114 1.463 . S
C2111 C2116 1.350 . S
C2111 N2119 1.427 . S
C2112 H2103 0.930 . S
C2112 C2110 1.378 . S
C2112 C2113 1.367 . S
C2113 C2112 1.367 . S
C2113 C2115 1.433 . S
C2114 C2110 1.350 . S
C2114 C2111 1.463 . S
C2114 N2118 1.427 . S
C2115 H2105 0.929 . S
C2115 C2113 1.433 . S
C2115 N2118 1.384 . S
C2116 H2107 0.929 . S
C2116 C2108 1.378 . S
C2116 C2111 1.350 . S
C2117 H2104 0.929 . S
C2117 C2109 1.433 . S
C2117 N2119 1.384 . S
N2118 C2114 1.427 . S
N2118 C2115 1.384 . S
N2119 C2111 1.427 . S
N2119 C2117 1.384 . S
H2120 C2126 0.930 . S
H2121 C2130 0.930 . S
H2122 C2135 0.929 . S
H2123 C2133 0.929 . S
H2124 C2128 0.929 . S
H2125 C2134 0.929 . S
C2126 H2120 0.930 . S
C2126 C2127 1.367 . S
C2126 C2134 1.378 . S
C2127 C2126 1.367 . S
C2127 C2135 1.433 . S
C2128 H2124 0.929 . S
C2128 C2130 1.378 . S
C2128 C2132 1.350 . S
C2129 C2132 1.463 . S
C2129 C2134 1.350 . S
C2129 N2137 1.427 . S
C2130 H2121 0.930 . S
C2130 C2128 1.378 . S
C2130 C2131 1.367 . S
C2131 C2130 1.367 . S
C2131 C2133 1.433 . S
C2132 C2128 1.350 . S
C2132 C2129 1.463 . S
C2132 N2136 1.427 . S
C2133 H2123 0.929 . S
C2133 C2131 1.433 . S
C2133 N2136 1.384 . S
C2134 H2125 0.929 . S
C2134 C2126 1.378 . S
C2134 C2129 1.350 . S
C2135 H2122 0.929 . S
C2135 C2127 1.433 . S
C2135 N2137 1.384 . S
N2136 C2132 1.427 . S
N2136 C2133 1.384 . S
N2137 C2129 1.427 . S
N2137 C2135 1.384 . S
H2138 C2144 0.930 . S
H2139 C2148 0.930 . S
H2140 C2153 0.929 . S
H2141 C2151 0.929 . S
H2142 C2146 0.929 . S
H2143 C2152 0.929 . S
C2144 H2138 0.930 . S
C2144 C2145 1.367 . S
C2144 C2152 1.378 . S
C2145 C2144 1.367 . S
C2145 C2153 1.433 . S
C2146 H2142 0.929 . S
C2146 C2148 1.378 . S
C2146 C2150 1.350 . S
C2147 C2150 1.463 . S
C2147 C2152 1.350 . S
C2147 N2155 1.427 . S
C2148 H2139 0.930 . S
C2148 C2146 1.378 . S
C2148 C2149 1.367 . S
C2149 C2148 1.367 . S
C2149 C2151 1.433 . S
C2150 C2146 1.350 . S
C2150 C2147 1.463 . S
C2150 N2154 1.427 . S
C2151 H2141 0.929 . S
C2151 C2149 1.433 . S
C2151 N2154 1.384 . S
C2152 H2143 0.929 . S
C2152 C2144 1.378 . S
C2152 C2147 1.350 . S
C2153 H2140 0.929 . S
C2153 C2145 1.433 . S
C2153 N2155 1.384 . S
N2154 C2150 1.427 . S
N2154 C2151 1.384 . S
N2155 C2147 1.427 . S
N2155 C2153 1.384 . S
H2156 C2162 0.930 . S
H2157 C2166 0.930 . S
H2158 C2171 0.929 . S
H2159 C2169 0.929 . S
H2160 C2164 0.929 . S
H2161 C2170 0.929 . S
C2162 H2156 0.930 . S
C2162 C2163 1.367 . S
C2162 C2170 1.378 . S
C2163 C2162 1.367 . S
C2163 C2171 1.433 . S
C2164 H2160 0.929 . S
C2164 C2166 1.378 . S
C2164 C2168 1.350 . S
C2165 C2168 1.463 . S
C2165 C2170 1.350 . S
C2165 N2173 1.427 . S
C2166 H2157 0.930 . S
C2166 C2164 1.378 . S
C2166 C2167 1.367 . S
C2167 C2166 1.367 . S
C2167 C2169 1.433 . S
C2168 C2164 1.350 . S
C2168 C2165 1.463 . S
C2168 N2172 1.427 . S
C2169 H2159 0.929 . S
C2169 C2167 1.433 . S
C2169 N2172 1.384 . S
C2170 H2161 0.929 . S
C2170 C2162 1.378 . S
C2170 C2165 1.350 . S
C2171 H2158 0.929 . S
C2171 C2163 1.433 . S
C2171 N2173 1.384 . S
N2172 C2168 1.427 . S
N2172 C2169 1.384 . S
N2173 C2165 1.427 . S
N2173 C2171 1.384 . S
H2174 C2180 0.930 . S
H2175 C2184 0.930 . S
H2176 C2189 0.929 . S
H2177 C2187 0.929 . S
H2178 C2182 0.929 . S
H2179 C2188 0.929 . S
C2180 H2174 0.930 . S
C2180 C2181 1.367 . S
C2180 C2188 1.378 . S
C2181 C2180 1.367 . S
C2181 C2189 1.433 . S
C2182 H2178 0.929 . S
C2182 C2184 1.378 . S
C2182 C2186 1.350 . S
C2183 C2186 1.463 . S
C2183 C2188 1.350 . S
C2183 N2191 1.427 . S
C2184 H2175 0.930 . S
C2184 C2182 1.378 . S
C2184 C2185 1.367 . S
C2185 C2184 1.367 . S
C2185 C2187 1.433 . S
C2186 C2182 1.350 . S
C2186 C2183 1.463 . S
C2186 N2190 1.427 . S
C2187 H2177 0.929 . S
C2187 C2185 1.433 . S
C2187 N2190 1.384 . S
C2188 H2179 0.929 . S
C2188 C2180 1.378 . S
C2188 C2183 1.350 . S
C2189 H2176 0.929 . S
C2189 C2181 1.433 . S
C2189 N2191 1.384 . S
N2190 C2186 1.427 . S
N2190 C2187 1.384 . S
N2191 C2183 1.427 . S
N2191 C2189 1.384 . S
H2192 C2198 0.930 . S
H2193 C2202 0.930 . S
H2194 C2207 0.929 . S
H2195 C2205 0.929 . S
H2196 C2200 0.929 . S
H2197 C2206 0.929 . S
C2198 H2192 0.930 . S
C2198 C2199 1.367 . S
C2198 C2206 1.378 . S
C2199 C2198 1.367 . S
C2199 C2207 1.433 . S
C2200 H2196 0.929 . S
C2200 C2202 1.378 . S
C2200 C2204 1.350 . S
C2201 C2204 1.463 . S
C2201 C2206 1.350 . S
C2201 N2209 1.427 . S
C2202 H2193 0.930 . S
C2202 C2200 1.378 . S
C2202 C2203 1.367 . S
C2203 C2202 1.367 . S
C2203 C2205 1.433 . S
C2204 C2200 1.350 . S
C2204 C2201 1.463 . S
C2204 N2208 1.427 . S
C2205 H2195 0.929 . S
C2205 C2203 1.433 . S
C2205 N2208 1.384 . S
C2206 H2197 0.929 . S
C2206 C2198 1.378 . S
C2206 C2201 1.350 . S
C2207 H2194 0.929 . S
C2207 C2199 1.433 . S
C2207 N2209 1.384 . S
N2208 C2204 1.427 . S
N2208 C2205 1.384 . S
N2209 C2201 1.427 . S
N2209 C2207 1.384 . S
H2210 C2216 0.930 . S
H2211 C2220 0.930 . S
H2212 C2225 0.929 . S
H2213 C2223 0.929 . S
H2214 C2218 0.929 . S
H2215 C2224 0.929 . S
C2216 H2210 0.930 . S
C2216 C2217 1.367 . S
C2216 C2224 1.378 . S
C2217 C2216 1.367 . S
C2217 C2225 1.433 . S
C2218 H2214 0.929 . S
C2218 C2220 1.378 . S
C2218 C2222 1.350 . S
C2219 C2222 1.463 . S
C2219 C2224 1.350 . S
C2219 N2227 1.427 . S
C2220 H2211 0.930 . S
C2220 C2218 1.378 . S
C2220 C2221 1.367 . S
C2221 C2220 1.367 . S
C2221 C2223 1.433 . S
C2222 C2218 1.350 . S
C2222 C2219 1.463 . S
C2222 N2226 1.427 . S
C2223 H2213 0.929 . S
C2223 C2221 1.433 . S
C2223 N2226 1.384 . S
C2224 H2215 0.929 . S
C2224 C2216 1.378 . S
C2224 C2219 1.350 . S
C2225 H2212 0.929 . S
C2225 C2217 1.433 . S
C2225 N2227 1.384 . S
N2226 C2222 1.427 . S
N2226 C2223 1.384 . S
N2227 C2219 1.427 . S
N2227 C2225 1.384 . S
H2228 C2234 0.930 . S
H2229 C2238 0.930 . S
H2230 C2243 0.929 . S
H2231 C2241 0.929 . S
H2232 C2236 0.929 . S
H2233 C2242 0.929 . S
C2234 H2228 0.930 . S
C2234 C2235 1.367 . S
C2234 C2242 1.378 . S
C2235 C2234 1.367 . S
C2235 C2243 1.433 . S
C2236 H2232 0.929 . S
C2236 C2238 1.378 . S
C2236 C2240 1.350 . S
C2237 C2240 1.463 . S
C2237 C2242 1.350 . S
C2237 N2245 1.427 . S
C2238 H2229 0.930 . S
C2238 C2236 1.378 . S
C2238 C2239 1.367 . S
C2239 C2238 1.367 . S
C2239 C2241 1.433 . S
C2240 C2236 1.350 . S
C2240 C2237 1.463 . S
C2240 N2244 1.427 . S
C2241 H2231 0.929 . S
C2241 C2239 1.433 . S
C2241 N2244 1.384 . S
C2242 H2233 0.929 . S
C2242 C2234 1.378 . S
C2242 C2237 1.350 . S
C2243 H2230 0.929 . S
C2243 C2235 1.433 . S
C2243 N2245 1.384 . S
N2244 C2240 1.427 . S
N2244 C2241 1.384 . S
N2245 C2237 1.427 . S
N2245 C2243 1.384 . S
H2246 C2252 0.930 . S
H2247 C2256 0.930 . S
H2248 C2261 0.929 . S
H2249 C2259 0.929 . S
H2250 C2254 0.929 . S
H2251 C2260 0.929 . S
C2252 H2246 0.930 . S
C2252 C2253 1.367 . S
C2252 C2260 1.378 . S
C2253 C2252 1.367 . S
C2253 C2261 1.433 . S
C2254 H2250 0.929 . S
C2254 C2256 1.378 . S
C2254 C2258 1.350 . S
C2255 C2258 1.463 . S
C2255 C2260 1.350 . S
C2255 N2263 1.427 . S
C2256 H2247 0.930 . S
C2256 C2254 1.378 . S
C2256 C2257 1.367 . S
C2257 C2256 1.367 . S
C2257 C2259 1.433 . S
C2258 C2254 1.350 . S
C2258 C2255 1.463 . S
C2258 N2262 1.427 . S
C2259 H2249 0.929 . S
C2259 C2257 1.433 . S
C2259 N2262 1.384 . S
C2260 H2251 0.929 . S
C2260 C2252 1.378 . S
C2260 C2255 1.350 . S
C2261 H2248 0.929 . S
C2261 C2253 1.433 . S
C2261 N2263 1.384 . S
N2262 C2258 1.427 . S
N2262 C2259 1.384 . S
N2263 C2255 1.427 . S
N2263 C2261 1.384 . S
H2264 C2270 0.930 . S
H2265 C2274 0.930 . S
H2266 C2279 0.929 . S
H2267 C2277 0.929 . S
H2268 C2272 0.929 . S
H2269 C2278 0.929 . S
C2270 H2264 0.930 . S
C2270 C2271 1.367 . S
C2270 C2278 1.378 . S
C2271 C2270 1.367 . S
C2271 C2279 1.433 . S
C2272 H2268 0.929 . S
C2272 C2274 1.378 . S
C2272 C2276 1.350 . S
C2273 C2276 1.463 . S
C2273 C2278 1.350 . S
C2273 N2281 1.427 . S
C2274 H2265 0.930 . S
C2274 C2272 1.378 . S
C2274 C2275 1.367 . S
C2275 C2274 1.367 . S
C2275 C2277 1.433 . S
C2276 C2272 1.350 . S
C2276 C2273 1.463 . S
C2276 N2280 1.427 . S
C2277 H2267 0.929 . S
C2277 C2275 1.433 . S
C2277 N2280 1.384 . S
C2278 H2269 0.929 . S
C2278 C2270 1.378 . S
C2278 C2273 1.350 . S
C2279 H2266 0.929 . S
C2279 C2271 1.433 . S
C2279 N2281 1.384 . S
N2280 C2276 1.427 . S
N2280 C2277 1.384 . S
N2281 C2273 1.427 . S
N2281 C2279 1.384 . S
H2282 C2288 0.930 . S
H2283 C2292 0.930 . S
H2284 C2297 0.929 . S
H2285 C2295 0.929 . S
H2286 C2290 0.929 . S
H2287 C2296 0.929 . S
C2288 H2282 0.930 . S
C2288 C2289 1.367 . S
C2288 C2296 1.378 . S
C2289 C2288 1.367 . S
C2289 C2297 1.433 . S
C2290 H2286 0.929 . S
C2290 C2292 1.378 . S
C2290 C2294 1.350 . S
C2291 C2294 1.463 . S
C2291 C2296 1.350 . S
C2291 N2299 1.427 . S
C2292 H2283 0.930 . S
C2292 C2290 1.378 . S
C2292 C2293 1.367 . S
C2293 C2292 1.367 . S
C2293 C2295 1.433 . S
C2294 C2290 1.350 . S
C2294 C2291 1.463 . S
C2294 N2298 1.427 . S
C2295 H2285 0.929 . S
C2295 C2293 1.433 . S
C2295 N2298 1.384 . S
C2296 H2287 0.929 . S
C2296 C2288 1.378 . S
C2296 C2291 1.350 . S
C2297 H2284 0.929 . S
C2297 C2289 1.433 . S
C2297 N2299 1.384 . S
N2298 C2294 1.427 . S
N2298 C2295 1.384 . S
N2299 C2291 1.427 . S
N2299 C2297 1.384 . S
H2300 C2306 0.930 . S
H2301 C2310 0.930 . S
H2302 C2315 0.929 . S
H2303 C2313 0.929 . S
H2304 C2308 0.929 . S
H2305 C2314 0.929 . S
C2306 H2300 0.930 . S
C2306 C2307 1.367 . S
C2306 C2314 1.378 . S
C2307 C2306 1.367 . S
C2307 C2315 1.433 . S
C2308 H2304 0.929 . S
C2308 C2310 1.378 . S
C2308 C2312 1.350 . S
C2309 C2312 1.463 . S
C2309 C2314 1.350 . S
C2309 N2317 1.427 . S
C2310 H2301 0.930 . S
C2310 C2308 1.378 . S
C2310 C2311 1.367 . S
C2311 C2310 1.367 . S
C2311 C2313 1.433 . S
C2312 C2308 1.350 . S
C2312 C2309 1.463 . S
C2312 N2316 1.427 . S
C2313 H2303 0.929 . S
C2313 C2311 1.433 . S
C2313 N2316 1.384 . S
C2314 H2305 0.929 . S
C2314 C2306 1.378 . S
C2314 C2309 1.350 . S
C2315 H2302 0.929 . S
C2315 C2307 1.433 . S
C2315 N2317 1.384 . S
N2316 C2312 1.427 . S
N2316 C2313 1.384 . S
N2317 C2309 1.427 . S
N2317 C2315 1.384 . S
H2318 C2324 0.930 . S
H2319 C2328 0.930 . S
H2320 C2333 0.929 . S
H2321 C2331 0.929 . S
H2322 C2326 0.929 . S
H2323 C2332 0.929 . S
C2324 H2318 0.930 . S
C2324 C2325 1.367 . S
C2324 C2332 1.378 . S
C2325 C2324 1.367 . S
C2325 C2333 1.433 . S
C2326 H2322 0.929 . S
C2326 C2328 1.378 . S
C2326 C2330 1.350 . S
C2327 C2330 1.463 . S
C2327 C2332 1.350 . S
C2327 N2335 1.427 . S
C2328 H2319 0.930 . S
C2328 C2326 1.378 . S
C2328 C2329 1.367 . S
C2329 C2328 1.367 . S
C2329 C2331 1.433 . S
C2330 C2326 1.350 . S
C2330 C2327 1.463 . S
C2330 N2334 1.427 . S
C2331 H2321 0.929 . S
C2331 C2329 1.433 . S
C2331 N2334 1.384 . S
C2332 H2323 0.929 . S
C2332 C2324 1.378 . S
C2332 C2327 1.350 . S
C2333 H2320 0.929 . S
C2333 C2325 1.433 . S
C2333 N2335 1.384 . S
N2334 C2330 1.427 . S
N2334 C2331 1.384 . S
N2335 C2327 1.427 . S
N2335 C2333 1.384 . S
H2336 C2342 0.930 . S
H2337 C2346 0.930 . S
H2338 C2351 0.929 . S
H2339 C2349 0.929 . S
H2340 C2344 0.929 . S
H2341 C2350 0.929 . S
C2342 H2336 0.930 . S
C2342 C2343 1.367 . S
C2342 C2350 1.378 . S
C2343 C2342 1.367 . S
C2343 C2351 1.433 . S
C2344 H2340 0.929 . S
C2344 C2346 1.378 . S
C2344 C2348 1.350 . S
C2345 C2348 1.463 . S
C2345 C2350 1.350 . S
C2345 N2353 1.427 . S
C2346 H2337 0.930 . S
C2346 C2344 1.378 . S
C2346 C2347 1.367 . S
C2347 C2346 1.367 . S
C2347 C2349 1.433 . S
C2348 C2344 1.350 . S
C2348 C2345 1.463 . S
C2348 N2352 1.427 . S
C2349 H2339 0.929 . S
C2349 C2347 1.433 . S
C2349 N2352 1.384 . S
C2350 H2341 0.929 . S
C2350 C2342 1.378 . S
C2350 C2345 1.350 . S
C2351 H2338 0.929 . S
C2351 C2343 1.433 . S
C2351 N2353 1.384 . S
N2352 C2348 1.427 . S
N2352 C2349 1.384 . S
N2353 C2345 1.427 . S
N2353 C2351 1.384 . S
H2354 C2360 0.930 . S
H2355 C2364 0.930 . S
H2356 C2369 0.929 . S
H2357 C2367 0.929 . S
H2358 C2362 0.929 . S
H2359 C2368 0.929 . S
C2360 H2354 0.930 . S
C2360 C2361 1.367 . S
C2360 C2368 1.378 . S
C2361 C2360 1.367 . S
C2361 C2369 1.433 . S
C2362 H2358 0.929 . S
C2362 C2364 1.378 . S
C2362 C2366 1.350 . S
C2363 C2366 1.463 . S
C2363 C2368 1.350 . S
C2363 N2371 1.427 . S
C2364 H2355 0.930 . S
C2364 C2362 1.378 . S
C2364 C2365 1.367 . S
C2365 C2364 1.367 . S
C2365 C2367 1.433 . S
C2366 C2362 1.350 . S
C2366 C2363 1.463 . S
C2366 N2370 1.427 . S
C2367 H2357 0.929 . S
C2367 C2365 1.433 . S
C2367 N2370 1.384 . S
C2368 H2359 0.929 . S
C2368 C2360 1.378 . S
C2368 C2363 1.350 . S
C2369 H2356 0.929 . S
C2369 C2361 1.433 . S
C2369 N2371 1.384 . S
N2370 C2366 1.427 . S
N2370 C2367 1.384 . S
N2371 C2363 1.427 . S
N2371 C2369 1.384 . S
H2372 C2378 0.930 . S
H2373 C2382 0.930 . S
H2374 C2387 0.929 . S
H2375 C2385 0.929 . S
H2376 C2380 0.929 . S
H2377 C2386 0.929 . S
C2378 H2372 0.930 . S
C2378 C2379 1.367 . S
C2378 C2386 1.378 . S
C2379 C2378 1.367 . S
C2379 C2387 1.433 . S
C2380 H2376 0.929 . S
C2380 C2382 1.378 . S
C2380 C2384 1.350 . S
C2381 C2384 1.463 . S
C2381 C2386 1.350 . S
C2381 N2389 1.427 . S
C2382 H2373 0.930 . S
C2382 C2380 1.378 . S
C2382 C2383 1.367 . S
C2383 C2382 1.367 . S
C2383 C2385 1.433 . S
C2384 C2380 1.350 . S
C2384 C2381 1.463 . S
C2384 N2388 1.427 . S
C2385 H2375 0.929 . S
C2385 C2383 1.433 . S
C2385 N2388 1.384 . S
C2386 H2377 0.929 . S
C2386 C2378 1.378 . S
C2386 C2381 1.350 . S
C2387 H2374 0.929 . S
C2387 C2379 1.433 . S
C2387 N2389 1.384 . S
N2388 C2384 1.427 . S
N2388 C2385 1.384 . S
N2389 C2381 1.427 . S
N2389 C2387 1.384 . S
H2390 C2396 0.930 . S
H2391 C2400 0.930 . S
H2392 C2405 0.929 . S
H2393 C2403 0.929 . S
H2394 C2398 0.929 . S
H2395 C2404 0.929 . S
C2396 H2390 0.930 . S
C2396 C2397 1.367 . S
C2396 C2404 1.378 . S
C2397 C2396 1.367 . S
C2397 C2405 1.433 . S
C2398 H2394 0.929 . S
C2398 C2400 1.378 . S
C2398 C2402 1.350 . S
C2399 C2402 1.463 . S
C2399 C2404 1.350 . S
C2399 N2407 1.427 . S
C2400 H2391 0.930 . S
C2400 C2398 1.378 . S
C2400 C2401 1.367 . S
C2401 C2400 1.367 . S
C2401 C2403 1.433 . S
C2402 C2398 1.350 . S
C2402 C2399 1.463 . S
C2402 N2406 1.427 . S
C2403 H2393 0.929 . S
C2403 C2401 1.433 . S
C2403 N2406 1.384 . S
C2404 H2395 0.929 . S
C2404 C2396 1.378 . S
C2404 C2399 1.350 . S
C2405 H2392 0.929 . S
C2405 C2397 1.433 . S
C2405 N2407 1.384 . S
N2406 C2402 1.427 . S
N2406 C2403 1.384 . S
N2407 C2399 1.427 . S
N2407 C2405 1.384 . S
H2408 C2414 0.930 . S
H2409 C2418 0.930 . S
H2410 C2423 0.929 . S
H2411 C2421 0.929 . S
H2412 C2416 0.929 . S
H2413 C2422 0.929 . S
C2414 H2408 0.930 . S
C2414 C2415 1.367 . S
C2414 C2422 1.378 . S
C2415 C2414 1.367 . S
C2415 C2423 1.433 . S
C2416 H2412 0.929 . S
C2416 C2418 1.378 . S
C2416 C2420 1.350 . S
C2417 C2420 1.463 . S
C2417 C2422 1.350 . S
C2417 N2425 1.427 . S
C2418 H2409 0.930 . S
C2418 C2416 1.378 . S
C2418 C2419 1.367 . S
C2419 C2418 1.367 . S
C2419 C2421 1.433 . S
C2420 C2416 1.350 . S
C2420 C2417 1.463 . S
C2420 N2424 1.427 . S
C2421 H2411 0.929 . S
C2421 C2419 1.433 . S
C2421 N2424 1.384 . S
C2422 H2413 0.929 . S
C2422 C2414 1.378 . S
C2422 C2417 1.350 . S
C2423 H2410 0.929 . S
C2423 C2415 1.433 . S
C2423 N2425 1.384 . S
N2424 C2420 1.427 . S
N2424 C2421 1.384 . S
N2425 C2417 1.427 . S
N2425 C2423 1.384 . S
H2426 C2432 0.930 . S
H2427 C2436 0.930 . S
H2428 C2441 0.929 . S
H2429 C2439 0.929 . S
H2430 C2434 0.929 . S
H2431 C2440 0.929 . S
C2432 H2426 0.930 . S
C2432 C2433 1.367 . S
C2432 C2440 1.378 . S
C2433 C2432 1.367 . S
C2433 C2441 1.433 . S
C2434 H2430 0.929 . S
C2434 C2436 1.378 . S
C2434 C2438 1.350 . S
C2435 C2438 1.463 . S
C2435 C2440 1.350 . S
C2435 N2443 1.427 . S
C2436 H2427 0.930 . S
C2436 C2434 1.378 . S
C2436 C2437 1.367 . S
C2437 C2436 1.367 . S
C2437 C2439 1.433 . S
C2438 C2434 1.350 . S
C2438 C2435 1.463 . S
C2438 N2442 1.427 . S
C2439 H2429 0.929 . S
C2439 C2437 1.433 . S
C2439 N2442 1.384 . S
C2440 H2431 0.929 . S
C2440 C2432 1.378 . S
C2440 C2435 1.350 . S
C2441 H2428 0.929 . S
C2441 C2433 1.433 . S
C2441 N2443 1.384 . S
N2442 C2438 1.427 . S
N2442 C2439 1.384 . S
N2443 C2435 1.427 . S
N2443 C2441 1.384 . S
H2444 C2450 0.930 . S
H2445 C2454 0.930 . S
H2446 C2459 0.929 . S
H2447 C2457 0.929 . S
H2448 C2452 0.929 . S
H2449 C2458 0.929 . S
C2450 H2444 0.930 . S
C2450 C2451 1.367 . S
C2450 C2458 1.378 . S
C2451 C2450 1.367 . S
C2451 C2459 1.433 . S
C2452 H2448 0.929 . S
C2452 C2454 1.378 . S
C2452 C2456 1.350 . S
C2453 C2456 1.463 . S
C2453 C2458 1.350 . S
C2453 N2461 1.427 . S
C2454 H2445 0.930 . S
C2454 C2452 1.378 . S
C2454 C2455 1.367 . S
C2455 C2454 1.367 . S
C2455 C2457 1.433 . S
C2456 C2452 1.350 . S
C2456 C2453 1.463 . S
C2456 N2460 1.427 . S
C2457 H2447 0.929 . S
C2457 C2455 1.433 . S
C2457 N2460 1.384 . S
C2458 H2449 0.929 . S
C2458 C2450 1.378 . S
C2458 C2453 1.350 . S
C2459 H2446 0.929 . S
C2459 C2451 1.433 . S
C2459 N2461 1.384 . S
N2460 C2456 1.427 . S
N2460 C2457 1.384 . S
N2461 C2453 1.427 . S
N2461 C2459 1.384 . S
H2462 C2468 0.930 . S
H2463 C2472 0.930 . S
H2464 C2477 0.929 . S
H2465 C2475 0.929 . S
H2466 C2470 0.929 . S
H2467 C2476 0.929 . S
C2468 H2462 0.930 . S
C2468 C2469 1.367 . S
C2468 C2476 1.378 . S
C2469 C2468 1.367 . S
C2469 C2477 1.433 . S
C2470 H2466 0.929 . S
C2470 C2472 1.378 . S
C2470 C2474 1.350 . S
C2471 C2474 1.463 . S
C2471 C2476 1.350 . S
C2471 N2479 1.427 . S
C2472 H2463 0.930 . S
C2472 C2470 1.378 . S
C2472 C2473 1.367 . S
C2473 C2472 1.367 . S
C2473 C2475 1.433 . S
C2474 C2470 1.350 . S
C2474 C2471 1.463 . S
C2474 N2478 1.427 . S
C2475 H2465 0.929 . S
C2475 C2473 1.433 . S
C2475 N2478 1.384 . S
C2476 H2467 0.929 . S
C2476 C2468 1.378 . S
C2476 C2471 1.350 . S
C2477 H2464 0.929 . S
C2477 C2469 1.433 . S
C2477 N2479 1.384 . S
N2478 C2474 1.427 . S
N2478 C2475 1.384 . S
N2479 C2471 1.427 . S
N2479 C2477 1.384 . S
H2480 C2486 0.930 . S
H2481 C2490 0.930 . S
H2482 C2495 0.929 . S
H2483 C2493 0.929 . S
H2484 C2488 0.929 . S
H2485 C2494 0.929 . S
C2486 H2480 0.930 . S
C2486 C2487 1.367 . S
C2486 C2494 1.378 . S
C2487 C2486 1.367 . S
C2487 C2495 1.433 . S
C2488 H2484 0.929 . S
C2488 C2490 1.378 . S
C2488 C2492 1.350 . S
C2489 C2492 1.463 . S
C2489 C2494 1.350 . S
C2489 N2497 1.427 . S
C2490 H2481 0.930 . S
C2490 C2488 1.378 . S
C2490 C2491 1.367 . S
C2491 C2490 1.367 . S
C2491 C2493 1.433 . S
C2492 C2488 1.350 . S
C2492 C2489 1.463 . S
C2492 N2496 1.427 . S
C2493 H2483 0.929 . S
C2493 C2491 1.433 . S
C2493 N2496 1.384 . S
C2494 H2485 0.929 . S
C2494 C2486 1.378 . S
C2494 C2489 1.350 . S
C2495 H2482 0.929 . S
C2495 C2487 1.433 . S
C2495 N2497 1.384 . S
N2496 C2492 1.427 . S
N2496 C2493 1.384 . S
N2497 C2489 1.427 . S
N2497 C2495 1.384 . S
H2498 C2504 0.930 . S
H2499 C2508 0.930 . S
H2500 C2513 0.929 . S
H2501 C2511 0.929 . S
H2502 C2506 0.929 . S
H2503 C2512 0.929 . S
C2504 H2498 0.930 . S
C2504 C2505 1.367 . S
C2504 C2512 1.378 . S
C2505 C2504 1.367 . S
C2505 C2513 1.433 . S
C2506 H2502 0.929 . S
C2506 C2508 1.378 . S
C2506 C2510 1.350 . S
C2507 C2510 1.463 . S
C2507 C2512 1.350 . S
C2507 N2515 1.427 . S
C2508 H2499 0.930 . S
C2508 C2506 1.378 . S
C2508 C2509 1.367 . S
C2509 C2508 1.367 . S
C2509 C2511 1.433 . S
C2510 C2506 1.350 . S
C2510 C2507 1.463 . S
C2510 N2514 1.427 . S
C2511 H2501 0.929 . S
C2511 C2509 1.433 . S
C2511 N2514 1.384 . S
C2512 H2503 0.929 . S
C2512 C2504 1.378 . S
C2512 C2507 1.350 . S
C2513 H2500 0.929 . S
C2513 C2505 1.433 . S
C2513 N2515 1.384 . S
N2514 C2510 1.427 . S
N2514 C2511 1.384 . S
N2515 C2507 1.427 . S
N2515 C2513 1.384 . S
H2516 C2522 0.930 . S
H2517 C2526 0.930 . S
H2518 C2531 0.929 . S
H2519 C2529 0.929 . S
H2520 C2524 0.929 . S
H2521 C2530 0.929 . S
C2522 H2516 0.930 . S
C2522 C2523 1.367 . S
C2522 C2530 1.378 . S
C2523 C2522 1.367 . S
C2523 C2531 1.433 . S
C2524 H2520 0.929 . S
C2524 C2526 1.378 . S
C2524 C2528 1.350 . S
C2525 C2528 1.463 . S
C2525 C2530 1.350 . S
C2525 N2533 1.427 . S
C2526 H2517 0.930 . S
C2526 C2524 1.378 . S
C2526 C2527 1.367 . S
C2527 C2526 1.367 . S
C2527 C2529 1.433 . S
C2528 C2524 1.350 . S
C2528 C2525 1.463 . S
C2528 N2532 1.427 . S
C2529 H2519 0.929 . S
C2529 C2527 1.433 . S
C2529 N2532 1.384 . S
C2530 H2521 0.929 . S
C2530 C2522 1.378 . S
C2530 C2525 1.350 . S
C2531 H2518 0.929 . S
C2531 C2523 1.433 . S
C2531 N2533 1.384 . S
N2532 C2528 1.427 . S
N2532 C2529 1.384 . S
N2533 C2525 1.427 . S
N2533 C2531 1.384 . S
H2534 C2540 0.930 . S
H2535 C2544 0.930 . S
H2536 C2549 0.929 . S
H2537 C2547 0.929 . S
H2538 C2542 0.929 . S
H2539 C2548 0.929 . S
C2540 H2534 0.930 . S
C2540 C2541 1.367 . S
C2540 C2548 1.378 . S
C2541 C2540 1.367 . S
C2541 C2549 1.433 . S
C2542 H2538 0.929 . S
C2542 C2544 1.378 . S
C2542 C2546 1.350 . S
C2543 C2546 1.463 . S
C2543 C2548 1.350 . S
C2543 N2551 1.427 . S
C2544 H2535 0.930 . S
C2544 C2542 1.378 . S
C2544 C2545 1.367 . S
C2545 C2544 1.367 . S
C2545 C2547 1.433 . S
C2546 C2542 1.350 . S
C2546 C2543 1.463 . S
C2546 N2550 1.427 . S
C2547 H2537 0.929 . S
C2547 C2545 1.433 . S
C2547 N2550 1.384 . S
C2548 H2539 0.929 . S
C2548 C2540 1.378 . S
C2548 C2543 1.350 . S
C2549 H2536 0.929 . S
C2549 C2541 1.433 . S
C2549 N2551 1.384 . S
N2550 C2546 1.427 . S
N2550 C2547 1.384 . S
N2551 C2543 1.427 . S
N2551 C2549 1.384 . S
H2552 C2558 0.930 . S
H2553 C2562 0.930 . S
H2554 C2567 0.929 . S
H2555 C2565 0.929 . S
H2556 C2560 0.929 . S
H2557 C2566 0.929 . S
C2558 H2552 0.930 . S
C2558 C2559 1.367 . S
C2558 C2566 1.378 . S
C2559 C2558 1.367 . S
C2559 C2567 1.433 . S
C2560 H2556 0.929 . S
C2560 C2562 1.378 . S
C2560 C2564 1.350 . S
C2561 C2564 1.463 . S
C2561 C2566 1.350 . S
C2561 N2569 1.427 . S
C2562 H2553 0.930 . S
C2562 C2560 1.378 . S
C2562 C2563 1.367 . S
C2563 C2562 1.367 . S
C2563 C2565 1.433 . S
C2564 C2560 1.350 . S
C2564 C2561 1.463 . S
C2564 N2568 1.427 . S
C2565 H2555 0.929 . S
C2565 C2563 1.433 . S
C2565 N2568 1.384 . S
C2566 H2557 0.929 . S
C2566 C2558 1.378 . S
C2566 C2561 1.350 . S
C2567 H2554 0.929 . S
C2567 C2559 1.433 . S
C2567 N2569 1.384 . S
N2568 C2564 1.427 . S
N2568 C2565 1.384 . S
N2569 C2561 1.427 . S
N2569 C2567 1.384 . S
H2570 C2576 0.930 . S
H2571 C2580 0.930 . S
H2572 C2585 0.929 . S
H2573 C2583 0.929 . S
H2574 C2578 0.929 . S
H2575 C2584 0.929 . S
C2576 H2570 0.930 . S
C2576 C2577 1.367 . S
C2576 C2584 1.378 . S
C2577 C2576 1.367 . S
C2577 C2585 1.433 . S
C2578 H2574 0.929 . S
C2578 C2580 1.378 . S
C2578 C2582 1.350 . S
C2579 C2582 1.463 . S
C2579 C2584 1.350 . S
C2579 N2587 1.427 . S
C2580 H2571 0.930 . S
C2580 C2578 1.378 . S
C2580 C2581 1.367 . S
C2581 C2580 1.367 . S
C2581 C2583 1.433 . S
C2582 C2578 1.350 . S
C2582 C2579 1.463 . S
C2582 N2586 1.427 . S
C2583 H2573 0.929 . S
C2583 C2581 1.433 . S
C2583 N2586 1.384 . S
C2584 H2575 0.929 . S
C2584 C2576 1.378 . S
C2584 C2579 1.350 . S
C2585 H2572 0.929 . S
C2585 C2577 1.433 . S
C2585 N2587 1.384 . S
N2586 C2582 1.427 . S
N2586 C2583 1.384 . S
N2587 C2579 1.427 . S
N2587 C2585 1.384 . S
H2588 C2594 0.930 . S
H2589 C2598 0.930 . S
H2590 C2603 0.929 . S
H2591 C2601 0.929 . S
H2592 C2596 0.929 . S
H2593 C2602 0.929 . S
C2594 H2588 0.930 . S
C2594 C2595 1.367 . S
C2594 C2602 1.378 . S
C2595 C2594 1.367 . S
C2595 C2603 1.433 . S
C2596 H2592 0.929 . S
C2596 C2598 1.378 . S
C2596 C2600 1.350 . S
C2597 C2600 1.463 . S
C2597 C2602 1.350 . S
C2597 N2605 1.427 . S
C2598 H2589 0.930 . S
C2598 C2596 1.378 . S
C2598 C2599 1.367 . S
C2599 C2598 1.367 . S
C2599 C2601 1.433 . S
C2600 C2596 1.350 . S
C2600 C2597 1.463 . S
C2600 N2604 1.427 . S
C2601 H2591 0.929 . S
C2601 C2599 1.433 . S
C2601 N2604 1.384 . S
C2602 H2593 0.929 . S
C2602 C2594 1.378 . S
C2602 C2597 1.350 . S
C2603 H2590 0.929 . S
C2603 C2595 1.433 . S
C2603 N2605 1.384 . S
N2604 C2600 1.427 . S
N2604 C2601 1.384 . S
N2605 C2597 1.427 . S
N2605 C2603 1.384 . S
H2606 C2612 0.930 . S
H2607 C2616 0.930 . S
H2608 C2621 0.929 . S
H2609 C2619 0.929 . S
H2610 C2614 0.929 . S
H2611 C2620 0.929 . S
C2612 H2606 0.930 . S
C2612 C2613 1.367 . S
C2612 C2620 1.378 . S
C2613 C2612 1.367 . S
C2613 C2621 1.433 . S
C2614 H2610 0.929 . S
C2614 C2616 1.378 . S
C2614 C2618 1.350 . S
C2615 C2618 1.463 . S
C2615 C2620 1.350 . S
C2615 N2623 1.427 . S
C2616 H2607 0.930 . S
C2616 C2614 1.378 . S
C2616 C2617 1.367 . S
C2617 C2616 1.367 . S
C2617 C2619 1.433 . S
C2618 C2614 1.350 . S
C2618 C2615 1.463 . S
C2618 N2622 1.427 . S
C2619 H2609 0.929 . S
C2619 C2617 1.433 . S
C2619 N2622 1.384 . S
C2620 H2611 0.929 . S
C2620 C2612 1.378 . S
C2620 C2615 1.350 . S
C2621 H2608 0.929 . S
C2621 C2613 1.433 . S
C2621 N2623 1.384 . S
N2622 C2618 1.427 . S
N2622 C2619 1.384 . S
N2623 C2615 1.427 . S
N2623 C2621 1.384 . S
H2624 C2630 0.930 . S
H2625 C2634 0.930 . S
H2626 C2639 0.929 . S
H2627 C2637 0.929 . S
H2628 C2632 0.929 . S
H2629 C2638 0.929 . S
C2630 H2624 0.930 . S
C2630 C2631 1.367 . S
C2630 C2638 1.378 . S
C2631 C2630 1.367 . S
C2631 C2639 1.433 . S
C2632 H2628 0.929 . S
C2632 C2634 1.378 . S
C2632 C2636 1.350 . S
C2633 C2636 1.463 . S
C2633 C2638 1.350 . S
C2633 N2641 1.427 . S
C2634 H2625 0.930 . S
C2634 C2632 1.378 . S
C2634 C2635 1.367 . S
C2635 C2634 1.367 . S
C2635 C2637 1.433 . S
C2636 C2632 1.350 . S
C2636 C2633 1.463 . S
C2636 N2640 1.427 . S
C2637 H2627 0.929 . S
C2637 C2635 1.433 . S
C2637 N2640 1.384 . S
C2638 H2629 0.929 . S
C2638 C2630 1.378 . S
C2638 C2633 1.350 . S
C2639 H2626 0.929 . S
C2639 C2631 1.433 . S
C2639 N2641 1.384 . S
N2640 C2636 1.427 . S
N2640 C2637 1.384 . S
N2641 C2633 1.427 . S
N2641 C2639 1.384 . S
H2642 C2648 0.930 . S
H2643 C2652 0.930 . S
H2644 C2657 0.929 . S
H2645 C2655 0.929 . S
H2646 C2650 0.929 . S
H2647 C2656 0.929 . S
C2648 H2642 0.930 . S
C2648 C2649 1.367 . S
C2648 C2656 1.378 . S
C2649 C2648 1.367 . S
C2649 C2657 1.433 . S
C2650 H2646 0.929 . S
C2650 C2652 1.378 . S
C2650 C2654 1.350 . S
C2651 C2654 1.463 . S
C2651 C2656 1.350 . S
C2651 N2659 1.427 . S
C2652 H2643 0.930 . S
C2652 C2650 1.378 . S
C2652 C2653 1.367 . S
C2653 C2652 1.367 . S
C2653 C2655 1.433 . S
C2654 C2650 1.350 . S
C2654 C2651 1.463 . S
C2654 N2658 1.427 . S
C2655 H2645 0.929 . S
C2655 C2653 1.433 . S
C2655 N2658 1.384 . S
C2656 H2647 0.929 . S
C2656 C2648 1.378 . S
C2656 C2651 1.350 . S
C2657 H2644 0.929 . S
C2657 C2649 1.433 . S
C2657 N2659 1.384 . S
N2658 C2654 1.427 . S
N2658 C2655 1.384 . S
N2659 C2651 1.427 . S
N2659 C2657 1.384 . S
H2660 C2666 0.930 . S
H2661 C2670 0.930 . S
H2662 C2675 0.929 . S
H2663 C2673 0.929 . S
H2664 C2668 0.929 . S
H2665 C2674 0.929 . S
C2666 H2660 0.930 . S
C2666 C2667 1.367 . S
C2666 C2674 1.378 . S
C2667 C2666 1.367 . S
C2667 C2675 1.433 . S
C2668 H2664 0.929 . S
C2668 C2670 1.378 . S
C2668 C2672 1.350 . S
C2669 C2672 1.463 . S
C2669 C2674 1.350 . S
C2669 N2677 1.427 . S
C2670 H2661 0.930 . S
C2670 C2668 1.378 . S
C2670 C2671 1.367 . S
C2671 C2670 1.367 . S
C2671 C2673 1.433 . S
C2672 C2668 1.350 . S
C2672 C2669 1.463 . S
C2672 N2676 1.427 . S
C2673 H2663 0.929 . S
C2673 C2671 1.433 . S
C2673 N2676 1.384 . S
C2674 H2665 0.929 . S
C2674 C2666 1.378 . S
C2674 C2669 1.350 . S
C2675 H2662 0.929 . S
C2675 C2667 1.433 . S
C2675 N2677 1.384 . S
N2676 C2672 1.427 . S
N2676 C2673 1.384 . S
N2677 C2669 1.427 . S
N2677 C2675 1.384 . S
H2678 C2684 0.930 . S
H2679 C2688 0.930 . S
H2680 C2693 0.929 . S
H2681 C2691 0.929 . S
H2682 C2686 0.929 . S
H2683 C2692 0.929 . S
C2684 H2678 0.930 . S
C2684 C2685 1.367 . S
C2684 C2692 1.378 . S
C2685 C2684 1.367 . S
C2685 C2693 1.433 . S
C2686 H2682 0.929 . S
C2686 C2688 1.378 . S
C2686 C2690 1.350 . S
C2687 C2690 1.463 . S
C2687 C2692 1.350 . S
C2687 N2695 1.427 . S
C2688 H2679 0.930 . S
C2688 C2686 1.378 . S
C2688 C2689 1.367 . S
C2689 C2688 1.367 . S
C2689 C2691 1.433 . S
C2690 C2686 1.350 . S
C2690 C2687 1.463 . S
C2690 N2694 1.427 . S
C2691 H2681 0.929 . S
C2691 C2689 1.433 . S
C2691 N2694 1.384 . S
C2692 H2683 0.929 . S
C2692 C2684 1.378 . S
C2692 C2687 1.350 . S
C2693 H2680 0.929 . S
C2693 C2685 1.433 . S
C2693 N2695 1.384 . S
N2694 C2690 1.427 . S
N2694 C2691 1.384 . S
N2695 C2687 1.427 . S
N2695 C2693 1.384 . S
C979 N428 1.654 . S
C975 N5 1.714 . S
C997 C455 1.612 . S
C993 N15 1.626 . S
C1011 N31 1.699 . S
C1015 C469 1.714 . S
C1033 N487 1.493 . S
C1029 N40 1.561 . S
C1047 N53 1.485 . S
C1051 C492 1.451 . S
C1065 N70 1.618 . S
C1069 C432 1.633 . S
C1083 N80 1.494 . S
C1087 N451 1.454 . S
C1105 N464 1.708 . S
C1101 N92 1.734 . S
C1123 N510 1.640 . S
C1119 N2 1.736 . S
C1137 N14 1.446 . S
C1141 N533 1.424 . S
C1155 N27 1.731 . S
C1159 N556 1.706 . S
C1177 N589 1.629 . S
C1173 N44 1.696 . S
C1191 N54 1.357 . S
C1195 C616 1.363 . S
C1213 C639 1.404 . S
C1209 N67 1.400 . S
C1227 N83 1.303 . S
C1231 C662 1.306 1_655 S
C1249 C676 1.560 1_565 S
C1245 N93 1.579 . S
C1263 N1 1.644 . S
C1267 C593 1.608 . S
C1281 N57 1.454 . S
C1285 N635 1.428 . S
C1303 N658 1.750 . S
C1299 N66 1.772 . S
C1317 N79 1.831 . S
C1321 N671 1.802 . S
C1339 N612 1.748 . S
C1335 N96 1.784 . S
C1357 C538 1.597 . S
C1353 N28 1.600 . S
C1371 N41 1.438 . S
C1375 C561 1.432 . S
C1393 C515 1.484 . S
C1389 N18 1.529 . S
C1411 C708 1.735 . S
C1407 N109 1.735 . S
C1425 N119 1.512 . S
C1429 C722 1.485 . S
C1443 N135 1.631 . S
C1447 N750 1.600 . S
C1465 N763 1.477 . S
C1461 N144 1.525 . S
C1479 N157 1.524 . S
C1483 C768 1.485 . S
C1497 N174 1.623 . S
C1501 N704 1.596 . S
C1515 N184 1.601 . S
C1519 N717 1.510 . S
C1533 N196 1.733 . S
C1537 C754 1.732 . S
C1555 N602 1.610 . S
C1551 N106 1.714 . S
C1569 N118 1.459 . S
C1573 N786 1.407 . S
C1591 N648 1.634 . S
C1587 N131 1.655 . S
C1605 N148 1.779 . S
C1609 C823 1.772 . S
C1623 N158 1.491 . S
C1627 C524 1.491 . S
C1645 C837 1.450 . S
C1641 N171 1.450 . S
C1659 N187 1.387 . S
C1663 C570 1.381 . S
C1681 N855 1.534 . S
C1677 N197 1.643 . S
C1695 N105 1.663 . S
C1699 N819 1.627 . S
C1717 N832 1.420 . S
C1713 N161 1.477 . S
C1731 N170 1.799 . S
C1735 N566 1.766 . S
C1753 C860 1.748 . S
C1749 N183 1.767 . S
C1767 N200 1.788 . S
C1771 N520 1.747 . S
C1785 N132 1.514 . S
C1789 C791 1.508 . S
C1803 N145 1.460 . S
C1807 C653 1.454 . S
C1821 N122 1.373 . S
C1825 C607 1.349 . S
C1839 N213 1.768 . S
C1843 C745 1.767 . S
C1861 C777 1.507 . S
C1857 N223 1.515 . S
C1875 N239 1.649 . S
C1879 N694 1.628 . S
C1893 N248 1.540 . S
C1897 N727 1.523 . S
C1911 N261 1.532 . S
C1915 C731 1.526 . S
C1929 N278 1.649 . S
C1933 N740 1.632 . S
C1951 N773 1.435 . S
C1947 N288 1.477 . S
C1965 N300 1.780 . S
C1969 C699 1.779 . S
C1987 N888 1.744 . S
C1983 N210 1.774 . S
C2001 N222 1.450 . S
C2005 N625 1.404 . S
C2023 N911 1.583 . S
C2019 N235 1.644 . S
C2037 N252 1.754 . S
C2041 N681 1.683 . S
C2055 N262 1.434 . S
C2059 C929 1.418 . S
C2073 N275 1.475 . S
C2077 C547 1.477 . S
C2095 N947 1.250 . S
C2091 N291 1.307 . S
C2109 N301 1.611 . S
C2113 C584 1.591 . S
C2131 C685 1.637 . S
C2127 N209 1.688 . S
C2149 N543 1.410 . S
C2145 N265 1.439 . S
C2163 N274 1.860 . S
C2167 C952 1.889 . S
C2181 N287 1.750 . S
C2185 N579 1.722 . S
C2203 N924 1.727 . S
C2199 N304 1.831 . S
C2221 C630 1.518 . S
C2217 N236 1.524 . S
C2239 C915 1.433 . S
C2235 N249 1.450 . S
C2257 C892 1.423 . S
C2253 N226 1.428 . S
C2271 N317 1.666 . S
C2275 N474 1.611 . S
C2289 N327 1.495 . S
C2293 C501 1.497 . S
C2311 C423 1.713 . S
C2307 N343 1.693 . S
C2329 N441 1.429 . S
C2325 N352 1.498 . S
C2347 C446 1.548 . S
C2343 N365 1.592 . S
C2365 C478 1.643 . S
C2361 N382 1.629 . S
C2383 N497 1.562 . S
C2379 N392 1.596 . S
C2397 N404 1.733 . S
C2401 N418 1.706 . S
C2415 N314 1.680 . S
C2419 N934 1.657 . S
C2437 N842 1.415 . S
C2433 N326 1.429 . S
C2455 C961 1.775 . S
C2451 N339 1.772 . S
C2473 C869 1.626 . S
C2469 N356 1.627 . S
C2487 N366 1.447 . S
C2491 C883 1.432 . S
C2509 C800 1.427 . S
C2505 N379 1.421 . S
C2527 C906 1.445 . S
C2523 N395 1.442 . S
C2541 N405 1.597 . S
C2545 N809 1.498 . S
C2563 N865 1.611 . S
C2559 N313 1.657 . S
C2581 N796 1.421 . S
C2577 N369 1.444 . S
C2599 N901 1.798 . S
C2595 N378 1.786 . S
C2613 N391 1.863 . S
C2617 C814 1.827 . S
C2631 N408 1.792 . S
C2635 N878 1.672 . S
C2649 N340 1.623 . S
C2653 C846 1.622 . S
C2667 N353 1.415 . S
C2671 N957 1.379 . S
C2689 C938 1.435 . S
C2685 N330 1.446 . S
