# Generated by pormake.
# Topology eea, (3,6)-cn, num edge types: 1
# Building blocks:
#     Node 0, Type 0, BuildingBlock: MIDCAF_clean_linker_0, # of connection points: 3
#     Node 1, Type 0, BuildingBlock: MIDCAF_clean_linker_0, # of connection points: 3
#     Node 2, Type 0, BuildingBlock: MIDCAF_clean_linker_0, # of connection points: 3
#     Node 3, Type 0, BuildingBlock: MIDCAF_clean_linker_0, # of connection points: 3
#     Node 4, Type 0, BuildingBlock: MIDCAF_clean_linker_0, # of connection points: 3
#     Node 5, Type 0, BuildingBlock: MIDCAF_clean_linker_0, # of connection points: 3
#     Node 6, Type 0, BuildingBlock: MIDCAF_clean_linker_0, # of connection points: 3
#     Node 7, Type 0, BuildingBlock: MIDCAF_clean_linker_0, # of connection points: 3
#     Node 8, Type 0, BuildingBlock: MIDCAF_clean_linker_0, # of connection points: 3
#     Node 9, Type 0, BuildingBlock: MIDCAF_clean_linker_0, # of connection points: 3
#     Node 10, Type 0, BuildingBlock: MIDCAF_clean_linker_0, # of connection points: 3
#     Node 11, Type 0, BuildingBlock: MIDCAF_clean_linker_0, # of connection points: 3
#     Node 12, Type 0, BuildingBlock: MIDCAF_clean_linker_0, # of connection points: 3
#     Node 13, Type 0, BuildingBlock: MIDCAF_clean_linker_0, # of connection points: 3
#     Node 14, Type 0, BuildingBlock: MIDCAF_clean_linker_0, # of connection points: 3
#     Node 15, Type 0, BuildingBlock: MIDCAF_clean_linker_0, # of connection points: 3
#     Node 16, Type 0, BuildingBlock: MIDCAF_clean_linker_0, # of connection points: 3
#     Node 17, Type 0, BuildingBlock: MIDCAF_clean_linker_0, # of connection points: 3
#     Node 18, Type 1, BuildingBlock: CUWYAW_clean_sbu_0, # of connection points: 6
#     Node 19, Type 1, BuildingBlock: CUWYAW_clean_sbu_0, # of connection points: 6
#     Node 20, Type 1, BuildingBlock: CUWYAW_clean_sbu_0, # of connection points: 6
#     Node 21, Type 1, BuildingBlock: CUWYAW_clean_sbu_0, # of connection points: 6
#     Node 22, Type 1, BuildingBlock: CUWYAW_clean_sbu_0, # of connection points: 6
#     Node 23, Type 1, BuildingBlock: CUWYAW_clean_sbu_0, # of connection points: 6
#     Node 24, Type 1, BuildingBlock: CUWYAW_clean_sbu_0, # of connection points: 6
#     Node 25, Type 1, BuildingBlock: CUWYAW_clean_sbu_0, # of connection points: 6
#     Node 26, Type 1, BuildingBlock: CUWYAW_clean_sbu_0, # of connection points: 6
#     Edge 27, Type (0, 1), BuildingBlock: MIFKUJ_clean_linker_0, # of connection points: 2
#     Edge 28, Type (0, 1), BuildingBlock: MIFKUJ_clean_linker_0, # of connection points: 2
#     Edge 29, Type (0, 1), BuildingBlock: MIFKUJ_clean_linker_0, # of connection points: 2
#     Edge 30, Type (0, 1), BuildingBlock: MIFKUJ_clean_linker_0, # of connection points: 2
#     Edge 31, Type (0, 1), BuildingBlock: MIFKUJ_clean_linker_0, # of connection points: 2
#     Edge 32, Type (0, 1), BuildingBlock: MIFKUJ_clean_linker_0, # of connection points: 2
#     Edge 33, Type (0, 1), BuildingBlock: MIFKUJ_clean_linker_0, # of connection points: 2
#     Edge 34, Type (0, 1), BuildingBlock: MIFKUJ_clean_linker_0, # of connection points: 2
#     Edge 35, Type (0, 1), BuildingBlock: MIFKUJ_clean_linker_0, # of connection points: 2
#     Edge 36, Type (0, 1), BuildingBlock: MIFKUJ_clean_linker_0, # of connection points: 2
#     Edge 37, Type (0, 1), BuildingBlock: MIFKUJ_clean_linker_0, # of connection points: 2
#     Edge 38, Type (0, 1), BuildingBlock: MIFKUJ_clean_linker_0, # of connection points: 2
#     Edge 39, Type (0, 1), BuildingBlock: MIFKUJ_clean_linker_0, # of connection points: 2
#     Edge 40, Type (0, 1), BuildingBlock: MIFKUJ_clean_linker_0, # of connection points: 2
#     Edge 41, Type (0, 1), BuildingBlock: MIFKUJ_clean_linker_0, # of connection points: 2
#     Edge 42, Type (0, 1), BuildingBlock: MIFKUJ_clean_linker_0, # of connection points: 2
#     Edge 43, Type (0, 1), BuildingBlock: MIFKUJ_clean_linker_0, # of connection points: 2
#     Edge 44, Type (0, 1), BuildingBlock: MIFKUJ_clean_linker_0, # of connection points: 2
#     Edge 45, Type (0, 1), BuildingBlock: MIFKUJ_clean_linker_0, # of connection points: 2
#     Edge 46, Type (0, 1), BuildingBlock: MIFKUJ_clean_linker_0, # of connection points: 2
#     Edge 47, Type (0, 1), BuildingBlock: MIFKUJ_clean_linker_0, # of connection points: 2
#     Edge 48, Type (0, 1), BuildingBlock: MIFKUJ_clean_linker_0, # of connection points: 2
#     Edge 49, Type (0, 1), BuildingBlock: MIFKUJ_clean_linker_0, # of connection points: 2
#     Edge 50, Type (0, 1), BuildingBlock: MIFKUJ_clean_linker_0, # of connection points: 2
#     Edge 51, Type (0, 1), BuildingBlock: MIFKUJ_clean_linker_0, # of connection points: 2
#     Edge 52, Type (0, 1), BuildingBlock: MIFKUJ_clean_linker_0, # of connection points: 2
#     Edge 53, Type (0, 1), BuildingBlock: MIFKUJ_clean_linker_0, # of connection points: 2
#     Edge 54, Type (0, 1), BuildingBlock: MIFKUJ_clean_linker_0, # of connection points: 2
#     Edge 55, Type (0, 1), BuildingBlock: MIFKUJ_clean_linker_0, # of connection points: 2
#     Edge 56, Type (0, 1), BuildingBlock: MIFKUJ_clean_linker_0, # of connection points: 2
#     Edge 57, Type (0, 1), BuildingBlock: MIFKUJ_clean_linker_0, # of connection points: 2
#     Edge 58, Type (0, 1), BuildingBlock: MIFKUJ_clean_linker_0, # of connection points: 2
#     Edge 59, Type (0, 1), BuildingBlock: MIFKUJ_clean_linker_0, # of connection points: 2
#     Edge 60, Type (0, 1), BuildingBlock: MIFKUJ_clean_linker_0, # of connection points: 2
#     Edge 61, Type (0, 1), BuildingBlock: MIFKUJ_clean_linker_0, # of connection points: 2
#     Edge 62, Type (0, 1), BuildingBlock: MIFKUJ_clean_linker_0, # of connection points: 2
#     Edge 63, Type (0, 1), BuildingBlock: MIFKUJ_clean_linker_0, # of connection points: 2
#     Edge 64, Type (0, 1), BuildingBlock: MIFKUJ_clean_linker_0, # of connection points: 2
#     Edge 65, Type (0, 1), BuildingBlock: MIFKUJ_clean_linker_0, # of connection points: 2
#     Edge 66, Type (0, 1), BuildingBlock: MIFKUJ_clean_linker_0, # of connection points: 2
#     Edge 67, Type (0, 1), BuildingBlock: MIFKUJ_clean_linker_0, # of connection points: 2
#     Edge 68, Type (0, 1), BuildingBlock: MIFKUJ_clean_linker_0, # of connection points: 2
#     Edge 69, Type (0, 1), BuildingBlock: MIFKUJ_clean_linker_0, # of connection points: 2
#     Edge 70, Type (0, 1), BuildingBlock: MIFKUJ_clean_linker_0, # of connection points: 2
#     Edge 71, Type (0, 1), BuildingBlock: MIFKUJ_clean_linker_0, # of connection points: 2
#     Edge 72, Type (0, 1), BuildingBlock: MIFKUJ_clean_linker_0, # of connection points: 2
#     Edge 73, Type (0, 1), BuildingBlock: MIFKUJ_clean_linker_0, # of connection points: 2
#     Edge 74, Type (0, 1), BuildingBlock: MIFKUJ_clean_linker_0, # of connection points: 2
#     Edge 75, Type (0, 1), BuildingBlock: MIFKUJ_clean_linker_0, # of connection points: 2
#     Edge 76, Type (0, 1), BuildingBlock: MIFKUJ_clean_linker_0, # of connection points: 2
#     Edge 77, Type (0, 1), BuildingBlock: MIFKUJ_clean_linker_0, # of connection points: 2
#     Edge 78, Type (0, 1), BuildingBlock: MIFKUJ_clean_linker_0, # of connection points: 2
#     Edge 79, Type (0, 1), BuildingBlock: MIFKUJ_clean_linker_0, # of connection points: 2
#     Edge 80, Type (0, 1), BuildingBlock: MIFKUJ_clean_linker_0, # of connection points: 2
# Relax obj value: 0.035
# Max RMSD: 0.135
# Mean RMSD: 0.067
data_MOF--net-eea--node1-CUWYAW_clean_sbu_0--node2-MIDCAF_clean_linker_0--edge1-MIFKUJ_clean_linker_0
_symmetry_space_group_name_H-M    P1
_symmetry_Int_Tables_number       1
_symmetry_cell_setting            triclinic
loop_
_symmetry_equiv_pos_as_xyz
'x, y, z'
_cell_length_a     77.790083
_cell_length_b     77.570952
_cell_length_c     108.54577
_cell_angle_alpha  93.435864
_cell_angle_beta   93.484184
_cell_angle_gamma 119.80754
loop_
_atom_site_label
_atom_site_type_symbol
_atom_site_fract_x
_atom_site_fract_y
_atom_site_fract_z
_atom_type_partial_charge
C0 C 0.251 0.06421 0.40312 0.0
C1 C 0.23747 0.05641 0.39236 0.0
C2 C 0.2311 0.06852 0.3869 0.0
C3 C 0.23809 0.08805 0.39212 0.0
H4 H 0.24125 0.14063 0.38474 0.0
H5 H 0.23184 0.16205 0.37432 0.0
H6 H 0.25803 0.20617 0.40625 0.0
H7 H 0.26784 0.18495 0.41664 0.0
H8 H 0.28646 0.17613 0.44036 0.0
H9 H 0.30069 0.18483 0.462 0.0
H10 H 0.29786 0.1278 0.46226 0.0
H11 H 0.28414 0.11925 0.44068 0.0
H12 H 0.26819 0.08916 0.41676 0.0
H13 H 0.25606 0.05516 0.40757 0.0
H14 H 0.22086 0.06296 0.37851 0.0
H15 H 0.23282 0.09694 0.38768 0.0
N16 N 0.2544 0.12895 0.40271 0.0
N17 N 0.27005 0.1534 0.41972 0.0
N18 N 0.26829 0.12242 0.42031 0.0
C19 C 0.26023 0.14755 0.40811 0.0
C20 C 0.27417 0.14092 0.42587 0.0
C21 C 0.25841 0.11631 0.40874 0.0
C22 C 0.25523 0.16098 0.40158 0.0
C23 C 0.24511 0.15492 0.38955 0.0
C24 C 0.23961 0.16716 0.38358 0.0
C25 C 0.24408 0.18575 0.38949 0.0
C26 C 0.25454 0.19201 0.4014 0.0
C27 C 0.26006 0.17977 0.40738 0.0
C28 C 0.28403 0.14692 0.43876 0.0
C29 C 0.28905 0.16551 0.44499 0.0
C30 C 0.29712 0.17049 0.45741 0.0
C31 C 0.30038 0.15701 0.46386 0.0
C32 C 0.29582 0.13866 0.45753 0.0
C33 C 0.28778 0.13369 0.44514 0.0
C34 C 0.25148 0.09583 0.40297 0.0
C35 C 0.25787 0.08368 0.40841 0.0
C36 C 0.94699 0.19308 0.41426 0.0
C37 C 0.95162 0.18823 0.40272 0.0
C38 C 0.93782 0.17005 0.39578 0.0
C39 C 0.91996 0.1569 0.40036 0.0
H40 H 0.86849 0.10175 0.39218 0.0
H41 H 0.84639 0.06863 0.38142 0.0
H42 H 0.81534 0.05032 0.41411 0.0
H43 H 0.83701 0.08355 0.42475 0.0
H44 H 0.84902 0.1144 0.44806 0.0
H45 H 0.8424 0.12302 0.46839 0.0
H46 H 0.8847 0.1853 0.46595 0.0
H47 H 0.89189 0.17656 0.44574 0.0
H48 H 0.92622 0.18416 0.42784 0.0
H49 H 0.95739 0.20684 0.41992 0.0
H50 H 0.94077 0.16599 0.38676 0.0
H51 H 0.90975 0.14299 0.39478 0.0
N52 N 0.88451 0.12895 0.41101 0.0
N53 N 0.8636 0.12089 0.42696 0.0
N54 N 0.89228 0.15246 0.42812 0.0
C55 C 0.86784 0.1156 0.41589 0.0
C56 C 0.87568 0.1393 0.43311 0.0
C57 C 0.89684 0.14741 0.41709 0.0
C58 C 0.85454 0.09538 0.40933 0.0
C59 C 0.85696 0.09067 0.39709 0.0
C60 C 0.84434 0.07162 0.39093 0.0
C61 C 0.82907 0.05676 0.39689 0.0
C62 C 0.82672 0.06146 0.40916 0.0
C63 C 0.83925 0.08054 0.41529 0.0
C64 C 0.87105 0.14477 0.44527 0.0
C65 C 0.85686 0.12996 0.45181 0.0
C66 C 0.85295 0.13494 0.46347 0.0
C67 C 0.86297 0.15489 0.46883 0.0
C68 C 0.87692 0.16975 0.46219 0.0
C69 C 0.88098 0.16474 0.45057 0.0
C70 C 0.91544 0.16165 0.41198 0.0
C71 C 0.92912 0.17998 0.41883 0.0
C72 C 0.83195 0.77124 0.41865 0.0
C73 C 0.83462 0.77846 0.40693 0.0
C74 C 0.8512 0.78092 0.40105 0.0
C75 C 0.86478 0.77628 0.40675 0.0
H76 H 0.92064 0.78427 0.40485 0.0
H77 H 0.95188 0.79365 0.39626 0.0
H78 H 0.96808 0.76694 0.42522 0.0
H79 H 0.93663 0.75721 0.43377 0.0
H80 H 0.90856 0.73992 0.45521 0.0
H81 H 0.90106 0.72431 0.47453 0.0
H82 H 0.84473 0.72289 0.47205 0.0
H83 H 0.85193 0.73807 0.45273 0.0
H84 H 0.84291 0.76104 0.43337 0.0
H85 H 0.81952 0.76945 0.42353 0.0
H86 H 0.85356 0.78616 0.39194 0.0
H87 H 0.87733 0.77828 0.40192 0.0
N88 N 0.89374 0.76876 0.41969 0.0
N89 N 0.90275 0.7551 0.43585 0.0
N90 N 0.8724 0.75475 0.43506 0.0
C91 C 0.90701 0.76439 0.4253 0.0
C92 C 0.88544 0.75021 0.44079 0.0
C93 C 0.8764 0.76399 0.42452 0.0
C94 C 0.92605 0.76997 0.42003 0.0
C95 C 0.93079 0.78034 0.40942 0.0
C96 C 0.9488 0.78586 0.40452 0.0
C97 C 0.9625 0.78113 0.4101 0.0
C98 C 0.95775 0.77065 0.42065 0.0
C99 C 0.93974 0.76516 0.42558 0.0
C100 C 0.88088 0.74031 0.45239 0.0
C101 C 0.89452 0.73619 0.45875 0.0
C102 C 0.89028 0.72732 0.46985 0.0
C103 C 0.87229 0.72232 0.47481 0.0
C104 C 0.85859 0.72626 0.46839 0.0
C105 C 0.86281 0.73513 0.45732 0.0
C106 C 0.86205 0.76897 0.41845 0.0
C107 C 0.84545 0.7665 0.42432 0.0
C108 C 0.04907 0.23611 0.58409 0.0
C109 C 0.04265 0.22247 0.59305 0.0
C110 C 0.05369 0.21328 0.59626 0.0
C111 C 0.07087 0.21764 0.59061 0.0
H112 H 0.13335 0.23303 0.59904 0.0
H113 H 0.1583 0.22638 0.6085 0.0
H114 H 0.17369 0.2168 0.57208 0.0
H115 H 0.14951 0.22466 0.56273 0.0
H116 H 0.14295 0.25263 0.54309 0.0
H117 H 0.14767 0.26649 0.52326 0.0
H118 H 0.09631 0.27356 0.52606 0.0
H119 H 0.09125 0.25929 0.54581 0.0
H120 H 0.07058 0.25071 0.57135 0.0
H121 H 0.04075 0.24332 0.58142 0.0
H122 H 0.04912 0.20283 0.60322 0.0
H123 H 0.07903 0.21025 0.59327 0.0
N124 N 0.10857 0.23076 0.58035 0.0
N125 N 0.12714 0.24165 0.56336 0.0
N126 N 0.09779 0.24301 0.56418 0.0
C127 C 0.12468 0.23399 0.57446 0.0
C128 C 0.1138 0.24628 0.55817 0.0
C129 C 0.09501 0.23516 0.57523 0.0
C130 C 0.13949 0.22939 0.58015 0.0
C131 C 0.14207 0.22949 0.59307 0.0
C132 C 0.15633 0.22553 0.59849 0.0
C133 C 0.16808 0.22094 0.59109 0.0
C134 C 0.16527 0.22065 0.57813 0.0
C135 C 0.15129 0.22502 0.57273 0.0
C136 C 0.11671 0.25482 0.54609 0.0
C137 C 0.13263 0.25713 0.53951 0.0
C138 C 0.13543 0.2652 0.52816 0.0
C139 C 0.12241 0.27121 0.5231 0.0
C140 C 0.10647 0.26888 0.52964 0.0
C141 C 0.10364 0.26077 0.54101 0.0
C142 C 0.07719 0.23106 0.5815 0.0
C143 C 0.06609 0.24025 0.5783 0.0
C144 C 0.74022 0.80234 0.60071 0.0
C145 C 0.74935 0.80749 0.61297 0.0
C146 C 0.75228 0.82504 0.61956 0.0
C147 C 0.74679 0.83753 0.61389 0.0
H148 H 0.7389 0.8876 0.6206 0.0
H149 H 0.74951 0.92039 0.63157 0.0
H150 H 0.7553 0.94536 0.59656 0.0
H151 H 0.7445 0.91272 0.58556 0.0
H152 H 0.71788 0.88055 0.56229 0.0
H153 H 0.71069 0.87651 0.5399 0.0
H154 H 0.714 0.82247 0.53771 0.0
H155 H 0.7209 0.82625 0.56026 0.0
H156 H 0.72827 0.81069 0.58544 0.0
H157 H 0.7379 0.78896 0.59538 0.0
H158 H 0.75901 0.82924 0.62908 0.0
H159 H 0.74965 0.85113 0.6192 0.0
N160 N 0.73793 0.86436 0.60142 0.0
N161 N 0.7296 0.87439 0.58316 0.0
N162 N 0.72826 0.84351 0.58274 0.0
C163 C 0.7356 0.87811 0.59551 0.0
C164 C 0.72577 0.8571 0.57671 0.0
C165 C 0.73429 0.84701 0.59511 0.0
C166 C 0.7409 0.89756 0.60221 0.0
C167 C 0.74231 0.90006 0.61524 0.0
C168 C 0.74828 0.91875 0.62152 0.0
C169 C 0.75328 0.93532 0.61488 0.0
C170 C 0.75165 0.9328 0.60187 0.0
C171 C 0.74536 0.91409 0.59559 0.0
C172 C 0.72014 0.85381 0.56312 0.0
C173 C 0.71701 0.86772 0.5571 0.0
C174 C 0.71299 0.86549 0.54423 0.0
C175 C 0.71202 0.84931 0.53702 0.0
C176 C 0.71456 0.83505 0.54303 0.0
C177 C 0.71859 0.83727 0.55595 0.0
C178 C 0.73834 0.8328 0.60146 0.0
C179 C 0.73481 0.81487 0.595 0.0
C180 C 0.17397 0.93056 0.59257 0.0
C181 C 0.17289 0.93424 0.60524 0.0
C182 C 0.15787 0.91917 0.6112 0.0
C183 C 0.14395 0.90091 0.60454 0.0
H184 H 0.08777 0.85178 0.60543 0.0
H185 H 0.05705 0.82901 0.6138 0.0
H186 H 0.03866 0.7885 0.58031 0.0
H187 H 0.06918 0.81142 0.57179 0.0
H188 H 0.09312 0.82658 0.54813 0.0
H189 H 0.09839 0.82114 0.52661 0.0
H190 H 0.15738 0.87305 0.53271 0.0
H191 H 0.15237 0.87837 0.55412 0.0
H192 H 0.16149 0.91009 0.57618 0.0
H193 H 0.18554 0.94182 0.58777 0.0
H194 H 0.15663 0.92167 0.62095 0.0
H195 H 0.13242 0.88968 0.60937 0.0
N196 N 0.11333 0.86493 0.58946 0.0
N197 N 0.10244 0.8438 0.57081 0.0
N198 N 0.13275 0.87401 0.57278 0.0
C199 C 0.09945 0.84769 0.58263 0.0
C200 C 0.11911 0.85688 0.56584 0.0
C201 C 0.13004 0.87818 0.58458 0.0
C202 C 0.081 0.83351 0.5879 0.0
C203 C 0.07724 0.83801 0.59984 0.0
C204 C 0.05964 0.82489 0.60468 0.0
C205 C 0.04539 0.80693 0.59772 0.0
C206 C 0.04921 0.80234 0.58584 0.0
C207 C 0.06679 0.81546 0.58099 0.0
C208 C 0.1223 0.85294 0.55288 0.0
C209 C 0.10727 0.83675 0.54491 0.0
C210 C 0.11022 0.83368 0.53256 0.0
C211 C 0.12831 0.84663 0.52798 0.0
C212 C 0.14339 0.86262 0.536 0.0
C213 C 0.14043 0.86575 0.54828 0.0
C214 C 0.14493 0.89729 0.59182 0.0
C215 C 0.16022 0.9123 0.58595 0.0
C216 C 0.92998 0.40786 0.72939 0.0
C217 C 0.92162 0.40399 0.717 0.0
C218 C 0.91937 0.41884 0.71156 0.0
C219 C 0.92472 0.43688 0.71848 0.0
H220 H 0.9341 0.49635 0.71682 0.0
H221 H 0.92324 0.51813 0.70799 0.0
H222 H 0.91177 0.53324 0.74429 0.0
H223 H 0.92296 0.51187 0.75322 0.0
H224 H 0.95411 0.50912 0.77534 0.0
H225 H 0.96156 0.51191 0.79775 0.0
H226 H 0.95485 0.45307 0.79463 0.0
H227 H 0.94724 0.4501 0.77223 0.0
H228 H 0.94122 0.42807 0.74595 0.0
H229 H 0.93172 0.39666 0.73391 0.0
H230 H 0.91324 0.41641 0.70197 0.0
H231 H 0.92238 0.44779 0.71405 0.0
N232 N 0.93259 0.47237 0.73376 0.0
N233 N 0.94053 0.49061 0.75332 0.0
N234 N 0.94209 0.46121 0.75109 0.0
C235 C 0.93471 0.48836 0.741 0.0
C236 C 0.94439 0.47717 0.75842 0.0
C237 C 0.93625 0.45871 0.73874 0.0
C238 C 0.92935 0.50238 0.73571 0.0
C239 C 0.92943 0.50446 0.72293 0.0
C240 C 0.92332 0.51695 0.71789 0.0
C241 C 0.91667 0.52724 0.72549 0.0
C242 C 0.9168 0.52537 0.73826 0.0
C243 C 0.92328 0.51322 0.74335 0.0
C244 C 0.94997 0.47934 0.77196 0.0
C245 C 0.95428 0.49678 0.7794 0.0
C246 C 0.95867 0.49845 0.79223 0.0
C247 C 0.9587 0.48268 0.79792 0.0
C248 C 0.9547 0.46537 0.7905 0.0
C249 C 0.95045 0.46374 0.77765 0.0
C250 C 0.9324 0.44046 0.73103 0.0
C251 C 0.93531 0.42587 0.73633 0.0
C252 C 0.61541 0.52537 0.74764 0.0
C253 C 0.6182 0.52194 0.73526 0.0
C254 C 0.60279 0.50542 0.72774 0.0
C255 C 0.58504 0.49253 0.7325 0.0
H256 H 0.53352 0.43894 0.72372 0.0
H257 H 0.50916 0.40773 0.7116 0.0
H258 H 0.47268 0.39149 0.74205 0.0
H259 H 0.49675 0.42275 0.75412 0.0
H260 H 0.51389 0.44668 0.77981 0.0
H261 H 0.50971 0.45129 0.80152 0.0
H262 H 0.56349 0.50897 0.80562 0.0
H263 H 0.56772 0.50452 0.78376 0.0
H264 H 0.59602 0.51557 0.76201 0.0
H265 H 0.62692 0.5381 0.75363 0.0
H266 H 0.60457 0.50222 0.7182 0.0
H267 H 0.57359 0.47988 0.72643 0.0
N268 N 0.54933 0.46513 0.74291 0.0
N269 N 0.52991 0.45543 0.75957 0.0
N270 N 0.56081 0.48509 0.76201 0.0
C271 C 0.53242 0.45189 0.7476 0.0
C272 C 0.54397 0.47197 0.76683 0.0
C273 C 0.56359 0.48179 0.75004 0.0
C274 C 0.5172 0.43338 0.73994 0.0
C275 C 0.52026 0.42881 0.72782 0.0
C276 C 0.50633 0.41086 0.72088 0.0
C277 C 0.48902 0.39711 0.72588 0.0
C278 C 0.48575 0.40187 0.73788 0.0
C279 C 0.49967 0.41977 0.74483 0.0
C280 C 0.5412 0.4752 0.78 0.0
C281 C 0.52484 0.4604 0.78527 0.0
C282 C 0.52249 0.46297 0.79776 0.0
C283 C 0.53635 0.48042 0.80529 0.0
C284 C 0.55252 0.4954 0.80001 0.0
C285 C 0.55496 0.49279 0.7875 0.0
C286 C 0.58225 0.49584 0.74491 0.0
C287 C 0.59762 0.51249 0.75241 0.0
C288 C 0.50376 0.11493 0.75457 0.0
C289 C 0.49904 0.11127 0.74161 0.0
C290 C 0.50952 0.10449 0.73452 0.0
C291 C 0.52448 0.10176 0.74023 0.0
H292 H 0.57673 0.09893 0.7337 0.0
H293 H 0.60496 0.10315 0.72293 0.0
H294 H 0.63983 0.11537 0.75826 0.0
H295 H 0.61143 0.11025 0.76894 0.0
H296 H 0.58498 0.08988 0.79154 0.0
H297 H 0.58289 0.08143 0.81286 0.0
H298 H 0.52942 0.08515 0.81405 0.0
H299 H 0.5316 0.09391 0.79285 0.0
H300 H 0.52173 0.11493 0.77027 0.0
H301 H 0.49642 0.12058 0.76035 0.0
H302 H 0.5061 0.10113 0.72455 0.0
H303 H 0.53228 0.09658 0.73452 0.0
N304 N 0.55997 0.10384 0.753 0.0
N305 N 0.5743 0.09844 0.77094 0.0
N306 N 0.54459 0.09912 0.77143 0.0
C307 C 0.57483 0.10193 0.75882 0.0
C308 C 0.55918 0.09689 0.7773 0.0
C309 C 0.54486 0.10256 0.7593 0.0
C310 C 0.5918 0.10422 0.75218 0.0
C311 C 0.59041 0.10243 0.73915 0.0
C312 C 0.60666 0.10497 0.73298 0.0
C313 C 0.62476 0.10964 0.7397 0.0
C314 C 0.62607 0.11139 0.75274 0.0
C315 C 0.60976 0.10857 0.75889 0.0
C316 C 0.55841 0.09252 0.79042 0.0
C317 C 0.57283 0.08902 0.79635 0.0
C318 C 0.5716 0.08408 0.80856 0.0
C319 C 0.55598 0.0826 0.81513 0.0
C320 C 0.54178 0.08643 0.80929 0.0
C321 C 0.54297 0.09132 0.79709 0.0
C322 C 0.52904 0.10536 0.75317 0.0
C323 C 0.51842 0.11183 0.76028 0.0
C324 C 0.71155 0.56662 0.91586 0.0
C325 C 0.70949 0.56049 0.92787 0.0
C326 C 0.72458 0.55807 0.93384 0.0
C327 C 0.74128 0.56155 0.9279 0.0
H328 H 0.79051 0.55538 0.93165 0.0
H329 H 0.81453 0.54735 0.94112 0.0
H330 H 0.84751 0.5642 0.90911 0.0
H331 H 0.8234 0.57194 0.89952 0.0
H332 H 0.80745 0.58433 0.87695 0.0
H333 H 0.81294 0.59778 0.85704 0.0
H334 H 0.76531 0.61073 0.86028 0.0
H335 H 0.75938 0.59671 0.88014 0.0
H336 H 0.72938 0.57489 0.90067 0.0
H337 H 0.70026 0.56881 0.91108 0.0
H338 H 0.72331 0.55313 0.94303 0.0
H339 H 0.75253 0.55939 0.93277 0.0
N340 N 0.77435 0.56649 0.91479 0.0
N341 N 0.79299 0.57666 0.89781 0.0
N342 N 0.76381 0.57841 0.89831 0.0
C343 C 0.7904 0.56927 0.909 0.0
C344 C 0.77981 0.5813 0.8924 0.0
C345 C 0.76096 0.57099 0.90951 0.0
C346 C 0.80497 0.56432 0.9148 0.0
C347 C 0.80284 0.55735 0.9266 0.0
C348 C 0.81667 0.55284 0.93207 0.0
C349 C 0.83292 0.55514 0.92587 0.0
C350 C 0.83501 0.56203 0.91406 0.0
C351 C 0.82123 0.56658 0.9086 0.0
C352 C 0.78299 0.58945 0.8802 0.0
C353 C 0.79811 0.59003 0.87346 0.0
C354 C 0.80136 0.59788 0.86204 0.0
C355 C 0.78967 0.60549 0.85708 0.0
C356 C 0.77445 0.60481 0.86377 0.0
C357 C 0.77112 0.59685 0.87519 0.0
C358 C 0.74335 0.56762 0.91586 0.0
C359 C 0.72831 0.57021 0.90994 0.0
C360 C 0.40223 0.13583 0.93223 0.0
C361 C 0.41236 0.14118 0.94423 0.0
C362 C 0.4154 0.1586 0.95106 0.0
C363 C 0.40901 0.17075 0.94588 0.0
H364 H 0.41097 0.22376 0.95296 0.0
H365 H 0.42124 0.25622 0.96396 0.0
H366 H 0.39985 0.27275 0.93166 0.0
H367 H 0.38926 0.24023 0.92068 0.0
H368 H 0.38136 0.21556 0.8952 0.0
H369 H 0.37368 0.21123 0.87278 0.0
H370 H 0.36526 0.15176 0.87146 0.0
H371 H 0.37284 0.15593 0.89396 0.0
H372 H 0.38858 0.1437 0.91763 0.0
H373 H 0.39979 0.12256 0.92671 0.0
H374 H 0.42291 0.16294 0.9604 0.0
H375 H 0.41196 0.18426 0.95135 0.0
N376 N 0.39788 0.19678 0.93436 0.0
N377 N 0.38758 0.20642 0.91663 0.0
N378 N 0.38749 0.17611 0.91559 0.0
C379 C 0.39443 0.2102 0.92886 0.0
C380 C 0.38402 0.1894 0.90993 0.0
C381 C 0.39439 0.17967 0.92781 0.0
C382 C 0.39939 0.22937 0.93588 0.0
C383 C 0.40828 0.23421 0.94821 0.0
C384 C 0.41428 0.25287 0.95451 0.0
C385 C 0.41147 0.26708 0.94865 0.0
C386 C 0.40206 0.26205 0.93647 0.0
C387 C 0.39609 0.24341 0.93015 0.0
C388 C 0.37786 0.18614 0.89641 0.0
C389 C 0.37773 0.20147 0.89019 0.0
C390 C 0.37346 0.19907 0.87733 0.0
C391 C 0.36907 0.18124 0.87038 0.0
C392 C 0.36853 0.16564 0.8766 0.0
C393 C 0.37296 0.16809 0.88948 0.0
C394 C 0.39951 0.16582 0.9337 0.0
C395 C 0.39591 0.14803 0.92701 0.0
C396 C 0.83883 0.26663 0.92866 0.0
C397 C 0.83408 0.2718 0.94006 0.0
C398 C 0.81652 0.25785 0.94474 0.0
C399 C 0.80398 0.23913 0.93815 0.0
H400 H 0.74843 0.18836 0.93702 0.0
H401 H 0.7181 0.1641 0.94503 0.0
H402 H 0.71308 0.11799 0.91815 0.0
H403 H 0.74307 0.14246 0.9098 0.0
H404 H 0.76593 0.15803 0.88527 0.0
H405 H 0.77256 0.15214 0.86421 0.0
H406 H 0.82473 0.21107 0.86803 0.0
H407 H 0.81847 0.21686 0.88906 0.0
H408 H 0.83043 0.24458 0.91327 0.0
H409 H 0.85212 0.27715 0.92473 0.0
H410 H 0.81256 0.26132 0.95357 0.0
H411 H 0.79057 0.22875 0.94203 0.0
N412 N 0.77871 0.20036 0.92423 0.0
N413 N 0.77078 0.17827 0.90631 0.0
N414 N 0.79943 0.20995 0.9082 0.0
C415 C 0.76641 0.18232 0.91767 0.0
C416 C 0.78727 0.19204 0.90149 0.0
C417 C 0.79532 0.21424 0.91957 0.0
C418 C 0.7482 0.16738 0.92275 0.0
C419 C 0.74091 0.17304 0.93282 0.0
C420 C 0.72353 0.15907 0.93747 0.0
C421 C 0.71312 0.13903 0.93227 0.0
C422 C 0.72051 0.13334 0.92226 0.0
C423 C 0.73779 0.14737 0.91751 0.0
C424 C 0.79163 0.18795 0.88889 0.0
C425 C 0.7789 0.16969 0.88166 0.0
C426 C 0.78263 0.16633 0.86956 0.0
C427 C 0.79917 0.18112 0.86445 0.0
C428 C 0.81203 0.19923 0.87175 0.0
C429 C 0.80833 0.20259 0.88381 0.0
C430 C 0.80869 0.23397 0.9267 0.0
C431 C 0.82629 0.24796 0.92205 0.0
C432 C 0.60643 0.74952 0.06248 0.0
C433 C 0.58923 0.73917 0.05396 0.0
C434 C 0.57762 0.74812 0.05156 0.0
C435 C 0.58294 0.76676 0.05759 0.0
H436 H 0.57812 0.81682 0.05334 0.0
H437 H 0.56408 0.8363 0.04536 0.0
H438 H 0.59111 0.87883 0.078 0.0
H439 H 0.60549 0.85955 0.08597 0.0
H440 H 0.62793 0.85113 0.10769 0.0
H441 H 0.64086 0.85755 0.12949 0.0
H442 H 0.64308 0.80292 0.12661 0.0
H443 H 0.63065 0.79668 0.1048 0.0
H444 H 0.62471 0.77545 0.07531 0.0
H445 H 0.616 0.74336 0.0644 0.0
H446 H 0.56405 0.74052 0.04529 0.0
H447 H 0.57345 0.77302 0.05566 0.0
N448 N 0.59756 0.80732 0.06872 0.0
N449 N 0.61135 0.82969 0.08678 0.0
N450 N 0.61483 0.80134 0.08479 0.0
C451 C 0.60105 0.82438 0.07533 0.0
C452 C 0.61829 0.81825 0.09158 0.0
C453 C 0.6045 0.7958 0.07335 0.0
C454 C 0.59293 0.83655 0.07033 0.0
C455 C 0.58116 0.83035 0.05883 0.0
C456 C 0.57298 0.84144 0.05428 0.0
C457 C 0.57638 0.85903 0.06108 0.0
C458 C 0.58835 0.86541 0.0725 0.0
C459 C 0.59651 0.85429 0.07708 0.0
C460 C 0.62805 0.82327 0.10448 0.0
C461 C 0.63139 0.84058 0.11165 0.0
C462 C 0.63871 0.84424 0.12418 0.0
C463 C 0.64286 0.83068 0.12982 0.0
C464 C 0.64026 0.81379 0.12253 0.0
C465 C 0.63299 0.81015 0.11001 0.0
C466 C 0.59977 0.77676 0.06635 0.0
C467 C 0.61153 0.768 0.06869 0.0
C468 C 0.28212 0.86071 0.08016 0.0
C469 C 0.2868 0.85545 0.06876 0.0
C470 C 0.2735 0.83673 0.06225 0.0
C471 C 0.25604 0.82341 0.06712 0.0
H472 H 0.19712 0.77233 0.05772 0.0
H473 H 0.17409 0.73947 0.04653 0.0
H474 H 0.15781 0.71474 0.08136 0.0
H475 H 0.18047 0.7475 0.09257 0.0
H476 H 0.18313 0.78086 0.11397 0.0
H477 H 0.17791 0.78752 0.13513 0.0
H478 H 0.23211 0.84483 0.13849 0.0
H479 H 0.23763 0.8381 0.11729 0.0
H480 H 0.26171 0.85181 0.09397 0.0
H481 H 0.29216 0.87499 0.08543 0.0
H482 H 0.27656 0.83238 0.05334 0.0
H483 H 0.24624 0.80905 0.06187 0.0
N484 N 0.22046 0.79597 0.07768 0.0
N485 N 0.20146 0.78658 0.09456 0.0
N486 N 0.23026 0.81807 0.09581 0.0
C487 C 0.20443 0.78223 0.08286 0.0
C488 C 0.21423 0.80449 0.10108 0.0
C489 C 0.2335 0.81392 0.08412 0.0
C490 C 0.19058 0.76249 0.07602 0.0
C491 C 0.18862 0.75988 0.06298 0.0
C492 C 0.17542 0.74116 0.05658 0.0
C493 C 0.16429 0.72467 0.06312 0.0
C494 C 0.16635 0.72723 0.07614 0.0
C495 C 0.17922 0.746 0.08252 0.0
C496 C 0.21084 0.80891 0.11389 0.0
C497 C 0.19396 0.79493 0.11916 0.0
C498 C 0.19087 0.7988 0.13129 0.0
C499 C 0.20456 0.81673 0.13846 0.0
C500 C 0.22139 0.8308 0.13321 0.0
C501 C 0.22448 0.82695 0.12104 0.0
C502 C 0.25151 0.82848 0.07865 0.0
C503 C 0.2647 0.84736 0.08507 0.0
C504 C 0.1647 0.44381 0.08864 0.0
C505 C 0.16528 0.44841 0.07629 0.0
C506 C 0.18054 0.44915 0.06961 0.0
C507 C 0.19482 0.44528 0.07515 0.0
H508 H 0.24984 0.45088 0.07108 0.0
H509 H 0.27933 0.45727 0.06111 0.0
H510 H 0.29693 0.43237 0.09057 0.0
H511 H 0.26769 0.42637 0.10073 0.0
H512 H 0.24368 0.41483 0.1243 0.0
H513 H 0.23914 0.40353 0.14499 0.0
H514 H 0.18609 0.40816 0.14529 0.0
H515 H 0.19066 0.41968 0.12482 0.0
H516 H 0.17793 0.43641 0.10369 0.0
H517 H 0.15337 0.44344 0.09412 0.0
H518 H 0.18127 0.45239 0.06003 0.0
H519 H 0.20627 0.44585 0.0697 0.0
N520 N 0.22504 0.43882 0.08757 0.0
N521 N 0.23621 0.42811 0.10446 0.0
N522 N 0.20682 0.42946 0.10477 0.0
C523 C 0.23871 0.43485 0.09305 0.0
C524 C 0.22028 0.42538 0.11037 0.0
C525 C 0.20904 0.43615 0.09338 0.0
C526 C 0.25636 0.43816 0.08675 0.0
C527 C 0.25994 0.44671 0.07544 0.0
C528 C 0.27682 0.45028 0.06968 0.0
C529 C 0.29051 0.44535 0.07505 0.0
C530 C 0.28684 0.43662 0.08628 0.0
C531 C 0.26998 0.43308 0.09207 0.0
C532 C 0.21759 0.41825 0.12287 0.0
C533 C 0.23106 0.41347 0.12878 0.0
C534 C 0.22843 0.40691 0.14061 0.0
C535 C 0.21234 0.40509 0.1468 0.0
C536 C 0.19884 0.40975 0.14087 0.0
C537 C 0.20141 0.41623 0.12906 0.0
C538 C 0.19412 0.44052 0.08747 0.0
C539 C 0.1789 0.43988 0.09415 0.0
C540 C 0.38182 0.90382 0.24973 0.0
C541 C 0.37347 0.88873 0.25768 0.0
C542 C 0.38301 0.87795 0.26055 0.0
C543 C 0.40068 0.88221 0.25557 0.0
H544 H 0.46451 0.89961 0.267 0.0
H545 H 0.48908 0.89322 0.27742 0.0
H546 H 0.50494 0.88094 0.24176 0.0
H547 H 0.48122 0.88852 0.23145 0.0
H548 H 0.47486 0.9132 0.21012 0.0
H549 H 0.48002 0.9246 0.18956 0.0
H550 H 0.4313 0.93622 0.1909 0.0
H551 H 0.42613 0.92498 0.21158 0.0
H552 H 0.40529 0.91935 0.23829 0.0
H553 H 0.37465 0.91229 0.24739 0.0
H554 H 0.37687 0.86633 0.26673 0.0
H555 H 0.40769 0.8736 0.25792 0.0
N556 N 0.44027 0.89652 0.24752 0.0
N557 N 0.45962 0.9062 0.2308 0.0
N558 N 0.43045 0.9081 0.2305 0.0
C559 C 0.4566 0.89923 0.2421 0.0
C560 C 0.44667 0.91076 0.22495 0.0
C561 C 0.4271 0.90087 0.24175 0.0
C562 C 0.471 0.89463 0.24842 0.0
C563 C 0.47327 0.89553 0.26141 0.0
C564 C 0.4873 0.89174 0.26738 0.0
C565 C 0.49911 0.88654 0.26047 0.0
C566 C 0.49652 0.88534 0.24744 0.0
C567 C 0.48279 0.88954 0.2415 0.0
C568 C 0.45003 0.9181 0.21253 0.0
C569 C 0.46524 0.91823 0.20609 0.0
C570 C 0.46814 0.92464 0.19426 0.0
C571 C 0.45599 0.93119 0.18861 0.0
C572 C 0.44097 0.93136 0.19507 0.0
C573 C 0.43796 0.92482 0.20689 0.0
C574 C 0.40889 0.89705 0.24742 0.0
C575 C 0.39927 0.90779 0.24452 0.0
C576 C 0.07396 0.46693 0.26529 0.0
C577 C 0.08464 0.47258 0.27713 0.0
C578 C 0.0889 0.49071 0.28362 0.0
C579 C 0.08294 0.5031 0.27832 0.0
H580 H 0.08925 0.55813 0.28397 0.0
H581 H 0.09979 0.59071 0.29472 0.0
H582 H 0.06686 0.60171 0.26578 0.0
H583 H 0.05678 0.56929 0.25477 0.0
H584 H 0.04252 0.54126 0.2293 0.0
H585 H 0.0321 0.53572 0.20713 0.0
H586 H 0.03862 0.48354 0.20425 0.0
H587 H 0.04927 0.48911 0.2264 0.0
H588 H 0.06012 0.47469 0.25073 0.0
H589 H 0.0706 0.45312 0.26003 0.0
H590 H 0.09687 0.49532 0.29284 0.0
H591 H 0.08667 0.51704 0.28357 0.0
N592 N 0.07119 0.52875 0.26691 0.0
N593 N 0.05872 0.53724 0.24954 0.0
N594 N 0.05906 0.50712 0.24851 0.0
C595 C 0.06694 0.54174 0.26152 0.0
C596 C 0.05473 0.51995 0.24296 0.0
C597 C 0.06722 0.51138 0.2605 0.0
C598 C 0.07224 0.56108 0.26845 0.0
C599 C 0.08412 0.5674 0.27991 0.0
C600 C 0.09009 0.58609 0.28613 0.0
C601 C 0.08421 0.59888 0.28112 0.0
C602 C 0.07194 0.59238 0.26981 0.0
C603 C 0.06607 0.57372 0.26353 0.0
C604 C 0.0469 0.51572 0.22966 0.0
C605 C 0.04162 0.52851 0.22399 0.0
C606 C 0.03552 0.52528 0.21128 0.0
C607 C 0.03463 0.50925 0.20394 0.0
C608 C 0.03941 0.49617 0.20965 0.0
C609 C 0.04542 0.49933 0.22237 0.0
C610 C 0.07263 0.4977 0.26636 0.0
C611 C 0.06806 0.47937 0.25995 0.0
C612 C 0.51256 0.59218 0.26939 0.0
C613 C 0.50537 0.60153 0.2774 0.0
C614 C 0.48484 0.59157 0.27877 0.0
C615 C 0.47189 0.57291 0.27223 0.0
H616 H 0.42065 0.51776 0.27549 0.0
H617 H 0.38902 0.49453 0.28273 0.0
H618 H 0.37379 0.45499 0.2491 0.0
H619 H 0.40528 0.47834 0.2417 0.0
H620 H 0.43625 0.4894 0.22174 0.0
H621 H 0.44233 0.48435 0.20038 0.0
H622 H 0.49349 0.54388 0.20416 0.0
H623 H 0.4875 0.54909 0.22543 0.0
H624 H 0.50554 0.56709 0.25645 0.0
H625 H 0.52828 0.59905 0.26829 0.0
H626 H 0.47861 0.59835 0.28466 0.0
H627 H 0.45615 0.5658 0.27336 0.0
N628 N 0.4477 0.53168 0.26053 0.0
N629 N 0.43941 0.51035 0.2422 0.0
N630 N 0.46969 0.54067 0.24517 0.0
C631 C 0.43475 0.5143 0.2535 0.0
C632 C 0.45683 0.52348 0.23795 0.0
C633 C 0.46524 0.54486 0.25645 0.0
C634 C 0.41558 0.49998 0.25799 0.0
C635 C 0.41061 0.50412 0.26962 0.0
C636 C 0.3925 0.49074 0.27382 0.0
C637 C 0.37891 0.4729 0.2665 0.0
C638 C 0.38385 0.46872 0.2549 0.0
C639 C 0.40198 0.48209 0.25069 0.0
C640 C 0.46129 0.51971 0.22531 0.0
C641 C 0.44888 0.50139 0.21806 0.0
C642 C 0.4524 0.49843 0.20585 0.0
C643 C 0.46828 0.51378 0.2006 0.0
C644 C 0.48097 0.53189 0.20792 0.0
C645 C 0.47757 0.5348 0.22015 0.0
C646 C 0.47907 0.56396 0.26397 0.0
C647 C 0.49954 0.57374 0.26265 0.0
C648 C 0.52426 0.02231 0.03429 0.0
Eu649 Eu 0.50946 0.01183 0.01117 0.0
C650 C 0.51686 0.01415 0.04595 0.0
C651 C 0.52412 0.02664 0.05711 0.0
C652 C 0.51679 0.01911 0.06821 0.0
C653 C 0.50202 0.99896 0.06829 0.0
C654 C 0.49474 0.9865 0.05704 0.0
C655 C 0.50211 0.99403 0.04596 0.0
C656 C 0.49737 0.03134 0.99634 0.0
C657 C 0.46168 0.97893 0.00993 0.0
C658 C 0.47128 0.97822 0.96341 0.0
Eu659 Eu 0.48568 0.98807 0.98656 0.0
C660 C 0.4794 0.98745 0.95214 0.0
C661 C 0.47523 0.97544 0.94097 0.0
C662 C 0.48393 0.98404 0.93041 0.0
C663 C 0.49691 0.00477 0.9309 0.0
C664 C 0.50102 0.01676 0.94212 0.0
C665 C 0.49238 0.00817 0.95267 0.0
C666 C 0.49727 0.96832 0.00145 0.0
C667 C 0.5336 0.02038 0.98784 0.0
O668 O 0.52811 0.01121 0.0267 0.0
O669 O 0.51475 0.03001 0.02862 0.0
O670 O 0.51428 0.04013 0.00327 0.0
O671 O 0.48735 0.01321 0.99813 0.0
O672 O 0.47925 0.98895 0.01659 0.0
O673 O 0.45977 0.97802 0.99772 0.0
O674 O 0.46677 0.98858 0.97117 0.0
O675 O 0.48072 0.97035 0.96897 0.0
O676 O 0.48051 0.95965 0.99436 0.0
O677 O 0.50755 0.98645 -0.00033 0.0
O678 O 0.51605 0.01068 0.98115 0.0
O679 O 0.53538 0.0214 6e-05 0.0
H680 H 0.53546 0.04221 0.05725 0.0
H681 H 0.52291 0.02901 0.07675 0.0
H682 H 0.48321 0.97099 0.05676 0.0
H683 H 0.49625 0.98414 0.03741 0.0
H684 H 0.46539 0.95942 0.94044 0.0
H685 H 0.4804 0.97449 0.92184 0.0
H686 H 0.51119 0.03272 0.94279 0.0
H687 H 0.49604 0.0177 0.96126 0.0
C688 C 0.98989 0.52088 0.035 0.0
Eu689 Eu 0.99089 0.50539 0.01328 0.0
C690 C 0.99275 0.51787 0.04799 0.0
C691 C 0.99837 0.50396 0.05113 0.0
C692 C 0.00101 0.50124 0.06357 0.0
C693 C 0.9981 0.51243 0.07306 0.0
C694 C 0.99244 0.52634 0.06979 0.0
C695 C 0.98966 0.5289 0.05735 0.0
C696 C 0.96509 0.46792 0.00276 0.0
C697 C 0.01993 0.48593 0.01475 0.0
C698 C 0.00442 0.47856 0.96773 0.0
Eu699 Eu 0.00282 0.49307 0.9896 0.0
C700 C -0.00013 0.48044 0.95467 0.0
C701 C 0.01484 0.48601 0.94666 0.0
C702 C 0.01104 0.48802 0.93425 0.0
C703 C 0.99213 0.48431 0.9296 0.0
C704 C 0.97711 0.4787 0.93762 0.0
C705 C 0.98097 0.47688 0.95008 0.0
C706 C 0.02871 0.53023 0.00054 0.0
C707 C 0.9737 0.51217 0.98802 0.0
O708 O 0.00578 0.52813 0.02904 0.0
O709 O 0.97417 0.50629 0.02842 0.0
O710 O 0.95953 0.47932 0.00831 0.0
O711 O 0.98377 0.47621 0.0037 0.0
O712 O 0.01392 0.4973 0.02043 0.0
O713 O 0.01474 0.47957 0.00283 0.0
O714 O 0.98936 0.46943 0.97428 0.0
O715 O 0.01951 0.49437 0.97393 0.0
O716 O 0.03423 0.51857 0.9953 0.0
O717 O 0.01005 0.52223 0.99924 0.0
O718 O 0.97931 0.50039 0.98247 0.0
O719 O 0.97929 0.519 -0.00015 0.0
H720 H 0.00056 0.49513 0.04396 0.0
H721 H 0.00507 0.4902 0.06573 0.0
H722 H 0.99039 0.53544 0.07684 0.0
H723 H 0.98519 0.5396 0.05504 0.0
H724 H 0.02949 0.48878 0.95 0.0
H725 H 0.02281 0.49213 0.92823 0.0
H726 H 0.96245 0.4759 0.93428 0.0
H727 H 0.96918 0.47271 0.95608 0.0
C728 C 0.47169 0.4855 0.96739 0.0
Eu729 Eu 0.48852 0.49829 0.99005 0.0
C730 C 0.47855 0.48616 0.95499 0.0
C731 C 0.47062 0.49231 0.9454 0.0
C732 C 0.4772 0.49344 0.93362 0.0
C733 C 0.49175 0.48833 0.93122 0.0
C734 C 0.49968 0.48218 0.94085 0.0
C735 C 0.49319 0.48117 0.95264 0.0
C736 C 0.50442 0.53598 0.00095 0.0
C737 C 0.53593 0.51242 0.99086 0.0
C738 C 0.53008 0.51933 0.03751 0.0
Eu739 Eu 0.51324 0.50693 0.01483 0.0
C740 C 0.52335 0.51695 0.05002 0.0
C741 C 0.53273 0.51147 0.05915 0.0
C742 C 0.52645 0.50892 0.07103 0.0
C743 C 0.51073 0.51192 0.074 0.0
C744 C 0.5013 0.51735 0.06483 0.0
C745 C 0.50751 0.51979 0.05293 0.0
C746 C 0.49725 0.46928 0.0038 0.0
C747 C 0.46571 0.49288 0.014 0.0
O748 O 0.47467 0.47442 0.97489 0.0
O749 O 0.47546 0.50261 0.97298 0.0
O750 O 0.48696 0.52626 0.99469 0.0
O751 O 0.51306 0.5259 0.0006 0.0
O752 O 0.51805 0.50244 0.98456 0.0
O753 O 0.53831 0.51861 0.00277 0.0
O754 O 0.52527 0.52981 0.03055 0.0
O755 O 0.52809 0.50331 0.03136 0.0
O756 O 0.51479 0.47895 0.00996 0.0
O757 O 0.48871 0.47941 0.00433 0.0
O758 O 0.4835 0.50204 0.02045 0.0
O759 O 0.46336 0.48746 0.00198 0.0
H760 H 0.45934 0.49625 0.94702 0.0
H761 H 0.47066 0.49802 0.92633 0.0
H762 H 0.51105 0.47834 0.93929 0.0
H763 H 0.49968 0.47652 0.95992 0.0
H764 H 0.54496 0.5092 0.05708 0.0
H765 H 0.53413 0.50494 0.07795 0.0
H766 H 0.489 0.51955 0.06682 0.0
H767 H 0.49991 0.52389 0.04603 0.0
C768 C 0.1955 0.34724 0.36802 0.0
Eu769 Eu 0.17764 0.33973 0.3457 0.0
C770 C 0.18876 0.34466 0.38047 0.0
C771 C 0.17163 0.34539 0.38299 0.0
C772 C 0.16473 0.34179 0.39468 0.0
C773 C 0.17471 0.33718 0.404 0.0
C774 C 0.19187 0.33646 0.40138 0.0
C775 C 0.19884 0.34022 0.38972 0.0
C776 C 0.16223 0.36018 0.3349 0.0
C777 C 0.13 0.30703 0.34589 0.0
C778 C 0.13351 0.31054 0.29893 0.0
Eu779 Eu 0.15148 0.31915 0.3213 0.0
C780 C 0.13947 0.31788 0.28686 0.0
C781 C 0.13236 0.30432 0.27613 0.0
C782 C 0.13873 0.31089 0.26468 0.0
C783 C 0.15225 0.33117 0.26378 0.0
C784 C 0.15923 0.34476 0.27454 0.0
C785 C 0.15296 0.33816 0.28599 0.0
C786 C 0.16678 0.29882 0.3324 0.0
C787 C 0.1987 0.35215 0.32122 0.0
O788 O 0.18979 0.33066 0.36096 0.0
O789 O 0.19389 0.36066 0.36209 0.0
O790 O 0.17986 0.36874 0.34094 0.0
O791 O 0.15324 0.34161 0.3355 0.0
O792 O 0.14798 0.31723 0.35206 0.0
O793 O 0.12706 0.30696 0.33378 0.0
O794 O 0.13278 0.32298 0.30729 0.0
O795 O 0.14177 0.30085 0.30349 0.0
O796 O 0.14893 0.29027 0.32666 0.0
O797 O 0.17587 0.31731 0.33152 0.0
O798 O 0.18052 0.34385 0.31537 0.0
O799 O 0.20168 0.34997 0.33298 0.0
H800 H 0.16348 0.34855 0.37589 0.0
H801 H 0.1516 0.34265 0.39639 0.0
H802 H 0.19969 0.33253 0.40823 0.0
H803 H 0.2119 0.3393 0.38786 0.0
H804 H 0.12204 0.28861 0.27665 0.0
H805 H 0.13303 0.30015 0.25651 0.0
H806 H 0.16986 0.36042 0.27413 0.0
H807 H 0.15885 0.34886 0.29419 0.0
C808 C 0.66403 0.85534 0.36786 0.0
Eu809 Eu 0.66211 0.83851 0.34593 0.0
C810 C 0.66875 0.85337 0.38078 0.0
C811 C 0.67233 0.83803 0.3838 0.0
C812 C 0.67676 0.83634 0.39619 0.0
C813 C 0.67776 0.85005 0.40569 0.0
C814 C 0.67418 0.86541 0.40257 0.0
C815 C 0.66971 0.86704 0.3902 0.0
C816 C 0.63712 0.80004 0.33675 0.0
C817 C 0.69279 0.82126 0.34559 0.0
C818 C 0.67069 0.81002 0.29906 0.0
Eu819 Eu 0.67158 0.82593 0.32106 0.0
C820 C 0.66955 0.81399 0.28598 0.0
C821 C 0.68648 0.82047 0.27954 0.0
C822 C 0.6857 0.82389 0.2671 0.0
C823 C 0.6679 0.82067 0.26074 0.0
C824 C 0.65094 0.81424 0.26721 0.0
C825 C 0.65176 0.81093 0.2797 0.0
C826 C 0.69663 0.86436 0.33029 0.0
C827 C 0.64037 0.84275 0.32146 0.0
O828 O 0.6789 0.86206 0.36104 0.0
O829 O 0.64764 0.84038 0.36208 0.0
O830 O 0.63156 0.81063 0.34325 0.0
O831 O 0.65566 0.80954 0.33633 0.0
O832 O 0.68706 0.83249 0.3517 0.0
O833 O 0.68591 0.81393 0.33391 0.0
O834 O 0.6548 0.80455 0.30491 0.0
O835 O 0.68719 0.8225 0.306 0.0
O836 O 0.70218 0.85372 0.32385 0.0
O837 O 0.67807 0.85487 0.33062 0.0
O838 O 0.64696 0.83245 0.31515 0.0
O839 O 0.64637 0.84932 0.33331 0.0
H840 H 0.67168 0.82739 0.37658 0.0
H841 H 0.67961 0.82447 0.39834 0.0
H842 H 0.67466 0.87606 0.4097 0.0
H843 H 0.667 0.87898 0.38798 0.0
H844 H 0.70036 0.82286 0.28413 0.0
H845 H 0.69912 0.82913 0.26247 0.0
H846 H 0.63691 0.81134 0.26255 0.0
H847 H 0.6384 0.80582 0.28437 0.0
C848 C 0.13353 0.8056 0.2994 0.0
Eu849 Eu 0.15229 0.82337 0.32106 0.0
C850 C 0.13956 0.80654 0.28674 0.0
C851 C 0.12971 0.81104 0.27734 0.0
C852 C 0.13612 0.81347 0.26549 0.0
C853 C 0.15245 0.8113 0.26279 0.0
C854 C 0.16208 0.80644 0.2722 0.0
C855 C 0.15576 0.80416 0.28406 0.0
C856 C 0.16696 0.86234 0.32869 0.0
C857 C 0.20029 0.84078 0.32024 0.0
C858 C 0.19903 0.85742 0.36666 0.0
Eu859 Eu 0.18055 0.83919 0.345 0.0
C860 C 0.19239 0.85623 0.37909 0.0
C861 C 0.17336 0.84105 0.38116 0.0
C862 C 0.16685 0.84007 0.39294 0.0
C863 C 0.17934 0.85419 0.40285 0.0
C864 C 0.19836 0.86948 0.40068 0.0
C865 C 0.2048 0.87051 0.38887 0.0
C866 C 0.16556 0.80002 0.3375 0.0
C867 C 0.13286 0.82293 0.34584 0.0
O868 O 0.14031 0.79761 0.30722 0.0
O869 O 0.13426 0.82175 0.30439 0.0
O870 O 0.14888 0.85071 0.32361 0.0
O871 O 0.1765 0.8532 0.32894 0.0
O872 O 0.18195 0.82846 0.31493 0.0
O873 O 0.20365 0.84958 0.33162 0.0
O874 O 0.1917 0.86488 0.35883 0.0
O875 O 0.19874 0.84145 0.36174 0.0
O876 O 0.18357 0.81155 0.34274 0.0
O877 O 0.15615 0.80929 0.33717 0.0
O878 O 0.1513 0.83489 0.35102 0.0
O879 O 0.12915 0.81377 0.33453 0.0
H880 H 0.11728 0.81308 0.27923 0.0
H881 H 0.12852 0.81748 0.25854 0.0
H882 H 0.1745 0.80435 0.27039 0.0
H883 H 0.16371 0.80075 0.29115 0.0
H884 H 0.16356 0.8299 0.37369 0.0
H885 H 0.15221 0.82803 0.39433 0.0
H886 H 0.20819 0.88073 0.40811 0.0
H887 H 0.21945 0.88244 0.38736 0.0
C888 C 0.86266 0.68303 0.70128 0.0
Eu889 Eu 0.84476 0.67458 0.67884 0.0
C890 C 0.85629 0.67779 0.71363 0.0
C891 C 0.86745 0.69096 0.72416 0.0
C892 C 0.86102 0.68647 0.7359 0.0
C893 C 0.84322 0.6688 0.73726 0.0
C894 C 0.83216 0.65559 0.72666 0.0
C895 C 0.83871 0.66002 0.71496 0.0
C896 C 0.83036 0.69526 0.66721 0.0
C897 C 0.79697 0.64211 0.67839 0.0
C898 C 0.80169 0.64459 0.63165 0.0
Eu899 Eu 0.81921 0.65384 0.65419 0.0
C900 C 0.80785 0.65002 0.61926 0.0
C901 C 0.799 0.63547 0.60905 0.0
C902 C 0.8049 0.64022 0.59724 0.0
C903 C 0.81977 0.65967 0.59543 0.0
C904 C 0.82867 0.67421 0.60573 0.0
C905 C 0.82279 0.66941 0.61755 0.0
C906 C 0.83361 0.6334 0.66613 0.0
C907 C 0.86673 0.68662 0.65453 0.0
O908 O 0.86072 0.66845 0.6935 0.0
O909 O 0.85689 0.69436 0.6961 0.0
O910 O 0.8479 0.70364 0.67337 0.0
O911 O 0.82098 0.67675 0.66802 0.0
O912 O 0.81492 0.65112 0.68466 0.0
O913 O 0.79445 0.64321 0.66639 0.0
O914 O 0.80247 0.65866 0.63936 0.0
O915 O 0.80833 0.63402 0.63693 0.0
O916 O 0.81584 0.62493 0.66029 0.0
O917 O 0.84298 0.65179 0.66498 0.0
O918 O 0.84876 0.67763 0.64831 0.0
O919 O 0.86934 0.68541 0.6665 0.0
H920 H 0.88104 0.70478 0.72328 0.0
H921 H 0.86977 0.69701 0.74388 0.0
H922 H 0.8186 0.64168 0.72743 0.0
H923 H 0.83014 0.64953 0.70695 0.0
H924 H 0.78756 0.62038 0.61023 0.0
H925 H 0.79797 0.62859 0.58955 0.0
H926 H 0.83998 0.68938 0.60465 0.0
H927 H 0.8299 0.68088 0.62532 0.0
C928 C 0.32014 0.17974 0.70049 0.0
Eu929 Eu 0.32442 0.16814 0.67848 0.0
C930 C 0.32506 0.17792 0.71347 0.0
C931 C 0.31063 0.17313 0.72179 0.0
C932 C 0.31488 0.17136 0.73417 0.0
C933 C 0.33372 0.17448 0.73846 0.0
C934 C 0.34815 0.17914 0.73009 0.0
C935 C 0.34382 0.18073 0.71766 0.0
C936 C 0.3022 0.13104 0.6665 0.0
C937 C 0.35763 0.154 0.67991 0.0
C938 C 0.34415 0.14911 0.63298 0.0
Eu939 Eu 0.33983 0.16093 0.65491 0.0
C940 C 0.34187 0.15283 0.62 0.0
C941 C 0.35776 0.15798 0.61281 0.0
C942 C 0.35597 0.16123 0.60041 0.0
C943 C 0.33812 0.1592 0.59491 0.0
C944 C 0.32228 0.15433 0.60222 0.0
C945 C 0.32416 0.15125 0.61467 0.0
C946 C 0.36198 0.19817 0.66679 0.0
C947 C 0.30666 0.17526 0.65343 0.0
O948 O 0.33501 0.19083 0.69424 0.0
O949 O 0.30653 0.16327 0.69398 0.0
O950 O 0.29469 0.14064 0.67207 0.0
O951 O 0.32094 0.14091 0.66802 0.0
O952 O 0.34954 0.16318 0.68579 0.0
O953 O 0.35358 0.14867 0.66785 0.0
O954 O 0.32789 0.13945 0.63845 0.0
O955 O 0.35869 0.16394 0.64021 0.0
O956 O 0.36951 0.18875 0.66105 0.0
O957 O 0.34326 0.18814 0.66533 0.0
O958 O 0.31542 0.16686 0.64748 0.0
O959 O 0.30983 0.17968 0.66558 0.0
H960 H 0.29607 0.17087 0.71871 0.0
H961 H 0.30356 0.16797 0.74045 0.0
H962 H 0.36272 0.18144 0.73314 0.0
H963 H 0.35515 0.18421 0.71137 0.0
H964 H 0.3716 0.15942 0.61678 0.0
H965 H 0.36859 0.16534 0.59514 0.0
H966 H 0.30826 0.15243 0.59826 0.0
H967 H 0.31169 0.14742 0.62005 0.0
C968 C 0.80599 0.1473 0.63211 0.0
Eu969 Eu 0.82246 0.16251 0.65463 0.0
C970 C 0.81204 0.15116 0.61949 0.0
C971 C 0.82271 0.17072 0.61613 0.0
C972 C 0.8278 0.17402 0.604 0.0
C973 C 0.8224 0.15783 0.59504 0.0
C974 C 0.81218 0.13832 0.59857 0.0
C975 C 0.80704 0.13504 0.61066 0.0
C976 C 0.83764 0.20119 0.66356 0.0
C977 C 0.87031 0.1786 0.65574 0.0
C978 C 0.86476 0.18978 0.70173 0.0
Eu979 Eu 0.84776 0.17468 0.67934 0.0
C980 C 0.85825 0.18774 0.71427 0.0
C981 C 0.86957 0.18538 0.72385 0.0
C982 C 0.86359 0.18319 0.7358 0.0
C983 C 0.84623 0.18347 0.73843 0.0
C984 C 0.83482 0.18567 0.72875 0.0
C985 C 0.84073 0.18771 0.71677 0.0
C986 C 0.83307 0.13637 0.66997 0.0
C987 C 0.79981 0.15806 0.67851 0.0
O988 O 0.81483 0.14006 0.63895 0.0
O989 O 0.80388 0.16099 0.63833 0.0
O990 O 0.82033 0.19062 0.65726 0.0
O991 O 0.84658 0.19147 0.66402 0.0
O992 O 0.85244 0.16706 0.64965 0.0
O993 O 0.87262 0.18663 0.6672 0.0
O994 O 0.85841 0.19863 0.69432 0.0
O995 O 0.86423 0.17408 0.69615 0.0
O996 O 0.85094 0.14738 0.67553 0.0
O997 O 0.82368 0.14567 0.66998 0.0
O998 O 0.81763 0.16871 0.68482 0.0
O999 O 0.79748 0.15125 0.66674 0.0
H1000 H 0.82697 0.18346 0.62282 0.0
H1001 H 0.8356 0.18923 0.6016 0.0
H1002 H 0.80822 0.12553 0.592 0.0
H1003 H 0.79912 0.11987 0.6131 0.0
H1004 H 0.88302 0.18516 0.72207 0.0
H1005 H 0.87252 0.18111 0.74295 0.0
H1006 H 0.82149 0.18616 0.73045 0.0
H1007 H 0.83162 0.18933 0.70951 0.0
H1008 H 0.30331 0.89575 0.06787 0.0
H1009 H 0.33395 0.91833 0.05902 0.0
H1010 H 0.34316 0.86899 0.0493 0.0
H1011 H 0.3128 0.84643 0.05834 0.0
H1012 H 0.37787 0.9027 0.05905 0.0
H1013 H 0.32319 0.88433 0.02772 0.0
H1014 H 0.29122 0.88082 0.01951 0.0
H1015 H 0.31578 0.94419 0.02661 0.0
H1016 H 0.34784 0.94804 0.03503 0.0
H1017 H 0.42471 0.94954 -8e-05 0.0
H1018 H 0.39565 0.93004 0.0109 0.0
H1019 H 0.42883 0.96435 0.04548 0.0
H1020 H 0.45817 0.98344 0.03464 0.0
H1021 H 0.37318 0.93873 0.02389 0.0
H1022 H 0.41314 0.93483 0.06902 0.0
H1023 H 0.44542 0.93822 0.07643 0.0
H1024 H 0.44992 0.9166 0.04011 0.0
H1025 H 0.4176 0.91295 0.03254 0.0
C1026 C 0.31199 0.88977 0.06397 0.0
C1027 C 0.30559 0.8693 0.06371 0.0
C1028 C 0.32941 0.90265 0.05887 0.0
C1029 C 0.3407 0.89527 0.05343 0.0
C1030 C 0.33463 0.87496 0.05345 0.0
C1031 C 0.31719 0.86207 0.0585 0.0
C1032 C 0.35842 0.9085 0.04726 0.0
C1033 C 0.37689 0.91064 0.05139 0.0
C1034 C 0.35706 0.91872 0.03722 0.0
C1035 C 0.33783 0.91644 0.03212 0.0
C1036 C 0.32172 0.89749 0.02762 0.0
C1037 C 0.3036 0.89545 0.02291 0.0
C1038 C 0.30146 0.91227 0.02257 0.0
C1039 C 0.31745 0.93118 0.0269 0.0
C1040 C 0.3356 0.9333 0.03163 0.0
C1041 C 0.42581 0.95298 0.00986 0.0
C1042 C 0.44377 0.9679 0.01643 0.0
C1043 C 0.40917 0.94186 0.01612 0.0
C1044 C 0.41014 0.94555 0.02903 0.0
C1045 C 0.42786 0.96095 0.03555 0.0
C1046 C 0.4446 0.97188 0.02933 0.0
C1047 C 0.39269 0.93292 0.03564 0.0
C1048 C 0.37424 0.93092 0.03161 0.0
C1049 C 0.39405 0.92262 0.04566 0.0
C1050 C 0.41306 0.92383 0.0502 0.0
C1051 C 0.42098 0.93071 0.06265 0.0
C1052 C 0.43929 0.9327 0.06687 0.0
C1053 C 0.44973 0.92768 0.05874 0.0
C1054 C 0.44183 0.92054 0.04639 0.0
C1055 C 0.42353 0.91852 0.04213 0.0
H1056 H 0.46394 0.92929 0.06201 0.0
H1057 H 0.28741 0.91065 0.01892 0.0
H1058 H 0.12527 0.42879 0.07862 0.0
H1059 H 0.10006 0.43518 0.06903 0.0
H1060 H 0.14498 0.48248 0.0507 0.0
H1061 H 0.17048 0.47676 0.06069 0.0
H1062 H 0.1204 0.4936 0.05945 0.0
H1063 H 0.11362 0.43649 0.03514 0.0
H1064 H 0.10916 0.40277 0.03137 0.0
H1065 H 0.05252 0.37754 0.04606 0.0
H1066 H 0.05677 0.41117 0.05007 0.0
H1067 H 0.03853 0.46678 0.00556 0.0
H1068 H 0.06233 0.46008 0.01673 0.0
H1069 H 0.05485 0.4856 0.05101 0.0
H1070 H 0.03141 0.49296 0.0398 0.0
H1071 H 0.06079 0.43822 0.03437 0.0
H1072 H 0.09893 0.50906 0.06934 0.0
H1073 H 0.10452 0.54338 0.07108 0.0
H1074 H 0.10146 0.5426 0.0314 0.0
H1075 H 0.09616 0.50841 0.02944 0.0
C1076 C 0.12986 0.44073 0.07268 0.0
C1077 C 0.14992 0.45224 0.0704 0.0
C1078 C 0.11538 0.44423 0.06711 0.0
C1079 C 0.1206 0.45916 0.05904 0.0
C1080 C 0.14062 0.47086 0.05688 0.0
C1081 C 0.15514 0.46743 0.06249 0.0
C1082 C 0.10512 0.46234 0.05269 0.0
C1083 C 0.10735 0.48148 0.05399 0.0
C1084 C 0.08822 0.4466 0.04543 0.0
C1085 C 0.08561 0.42636 0.04303 0.0
C1086 C 0.10029 0.42377 0.03766 0.0
C1087 C 0.09779 0.40467 0.03546 0.0
C1088 C 0.0806 0.38803 0.03851 0.0
C1089 C 0.06585 0.39045 0.04373 0.0
C1090 C 0.06829 0.40952 0.04596 0.0
C1091 C 0.04182 0.47089 0.01549 0.0
C1092 C 0.03314 0.48052 0.02178 0.0
C1093 C 0.05542 0.46699 0.02187 0.0
C1094 C 0.06057 0.47255 0.03468 0.0
C1095 C 0.05137 0.4815 0.04108 0.0
C1096 C 0.03789 0.48561 0.03467 0.0
C1097 C 0.07601 0.46945 0.04115 0.0
C1098 C 0.07377 0.45031 0.0399 0.0
C1099 C 0.09315 0.48531 0.04818 0.0
C1100 C 0.09695 0.5061 0.04926 0.0
C1101 C 0.09957 0.51626 0.061 0.0
C1102 C 0.10267 0.53569 0.06202 0.0
C1103 C 0.10328 0.54514 0.05135 0.0
C1104 C 0.10093 0.53524 0.03965 0.0
C1105 C 0.09787 0.51584 0.03858 0.0
H1106 H 0.10562 0.56015 0.05216 0.0
H1107 H 0.07868 0.37326 0.0368 0.0
H1108 H 0.57074 0.72257 0.03042 0.0
H1109 H 0.55762 0.68819 0.02143 0.0
H1110 H 0.58122 0.67548 0.05437 0.0
H1111 H 0.59329 0.70939 0.06385 0.0
H1112 H 0.5864 0.66288 0.02516 0.0
H1113 H 0.54176 0.65697 0.05734 0.0
H1114 H 0.52047 0.66763 0.06738 0.0
H1115 H 0.48567 0.65622 0.03247 0.0
H1116 H 0.50699 0.64579 0.0222 0.0
H1117 H 0.54007 0.55774 0.01514 0.0
H1118 H 0.55554 0.59237 0.02422 0.0
H1119 H 0.50663 0.59674 0.00679 0.0
H1120 H 0.49042 0.56163 0.99851 0.0
H1121 H 0.51506 0.6146 0.0282 0.0
H1122 H 0.55516 0.61748 0.99587 0.0
H1123 H 0.57597 0.60837 0.98393 0.0
H1124 H 0.61887 0.62718 0.01587 0.0
H1125 H 0.59818 0.63616 0.02806 0.0
C1126 C 0.57302 0.71249 0.03585 0.0
C1127 C 0.58294 0.71884 0.04795 0.0
C1128 C 0.5657 0.69291 0.03062 0.0
C1129 C 0.56848 0.67944 0.03728 0.0
C1130 C 0.57905 0.6858 0.04911 0.0
C1131 C 0.58605 0.70526 0.05446 0.0
C1132 C 0.55934 0.65838 0.03214 0.0
C1133 C 0.57089 0.65216 0.02593 0.0
C1134 C 0.53898 0.64479 0.03281 0.0
C1135 C 0.52609 0.65086 0.03899 0.0
C1136 C 0.5297 0.65695 0.05179 0.0
C1137 C 0.5176 0.66289 0.05753 0.0
C1138 C 0.50177 0.66267 0.05056 0.0
C1139 C 0.49796 0.65643 0.03785 0.0
C1140 C 0.51004 0.65049 0.03207 0.0
C1141 C 0.53253 0.56604 0.01339 0.0
C1142 C 0.51398 0.55699 0.00623 0.0
C1143 C 0.54151 0.58594 0.01843 0.0
C1144 C 0.53247 0.59738 0.01602 0.0
C1145 C 0.51393 0.58828 0.00881 0.0
C1146 C 0.5047 0.56824 0.00404 0.0
C1147 C 0.5421 0.61867 0.02118 0.0
C1148 C 0.53062 0.6251 0.02739 0.0
C1149 C 0.56246 0.63254 0.02024 0.0
C1150 C 0.57502 0.62732 0.01291 0.0
C1151 C 0.56897 0.61956 0.00037 0.0
C1152 C 0.58075 0.61443 0.99355 0.0
C1153 C 0.5987 0.61714 0.99915 0.0
C1154 C 0.60495 0.62506 0.01156 0.0
C1155 C 0.59321 0.63019 0.01842 0.0
H1156 H 0.60779 0.61315 0.99386 0.0
H1157 H 0.49241 0.66727 0.05502 0.0
H1158 H 0.82344 0.29673 0.95187 0.0
H1159 H 0.84547 0.3299 0.96289 0.0
H1160 H 0.8967 0.32532 0.95465 0.0
H1161 H 0.87476 0.29194 0.9439 0.0
H1162 H 0.90037 0.34002 0.9785 0.0
H1163 H 0.88291 0.35282 0.93826 0.0
H1164 H 0.86027 0.35042 0.92048 0.0
H1165 H 0.83518 0.37679 0.94396 0.0
H1166 H 0.85746 0.37906 0.96193 0.0
H1167 H 0.97489 0.44172 0.99211 0.0
H1168 H 0.95223 0.40828 0.98167 0.0
H1169 H 0.9019 0.41491 0.9893 0.0
H1170 H 0.92458 0.44862 -0.00053 0.0
H1171 H 0.89735 0.39904 0.96603 0.0
H1172 H 0.91494 0.38643 0.00628 0.0
H1173 H 0.93789 0.38922 0.02399 0.0
H1174 H 0.96288 0.36275 0.0005 0.0
H1175 H 0.94025 0.36005 0.98259 0.0
C1176 C 0.83939 0.30271 0.95251 0.0
C1177 C 0.84737 0.29175 0.94698 0.0
C1178 C 0.85195 0.32173 0.95872 0.0
C1179 C 0.87272 0.33016 0.95946 0.0
C1180 C 0.88071 0.31912 0.95414 0.0
C1181 C 0.86817 0.30012 0.94792 0.0
C1182 C 0.88614 0.35051 0.96577 0.0
C1183 C 0.89987 0.35297 0.97568 0.0
C1184 C 0.88516 0.36731 0.96227 0.0
C1185 C 0.8717 0.36589 0.95147 0.0
C1186 C 0.87243 0.35793 0.93966 0.0
C1187 C 0.85969 0.35662 0.92954 0.0
C1188 C 0.84625 0.36339 0.93109 0.0
C1189 C 0.84556 0.37151 0.94277 0.0
C1190 C 0.85825 0.37282 0.95293 0.0
C1191 C 0.959 0.43605 0.99153 0.0
C1192 C 0.95145 0.44769 0.9966 0.0
C1193 C 0.94606 0.4169 0.98564 0.0
C1194 C 0.92536 0.40899 0.98486 0.0
C1195 C 0.91782 0.42071 0.98983 0.0
C1196 C 0.93076 0.4399 0.99568 0.0
C1197 C 0.91158 0.38856 0.97876 0.0
C1198 C 0.89779 0.38608 0.96888 0.0
C1199 C 0.9125 0.37174 0.9823 0.0
C1200 C 0.92602 0.3732 0.99307 0.0
C1201 C 0.92542 0.38133 0.00487 0.0
C1202 C 0.93836 0.38287 0.01494 0.0
C1203 C 0.95187 0.37621 0.01336 0.0
C1204 C 0.95242 0.36793 0.0017 0.0
C1205 C 0.93953 0.36637 0.99159 0.0
H1206 H 0.96188 0.37742 0.02117 0.0
H1207 H 0.83641 0.36238 0.92325 0.0
H1208 H 0.67056 0.54001 0.91789 0.0
H1209 H 0.641 0.53237 0.92838 0.0
H1210 H 0.67832 0.56388 0.96243 0.0
H1211 H 0.70793 0.57148 0.952 0.0
H1212 H 0.64785 0.52895 0.96661 0.0
H1213 H 0.65583 0.58407 0.94463 0.0
H1214 H 0.65965 0.60251 0.92631 0.0
H1215 H 0.6032 0.55511 0.90903 0.0
H1216 H 0.59916 0.53626 0.9272 0.0
H1217 H 0.57514 0.53424 0.00026 0.0
H1218 H 0.60436 0.54259 0.9893 0.0
H1219 H 0.56627 0.51011 0.95567 0.0
H1220 H 0.53696 0.50196 0.96649 0.0
H1221 H 0.59685 0.54528 0.9511 0.0
H1222 H 0.58876 0.49014 0.97285 0.0
H1223 H 0.58469 0.47142 0.99106 0.0
H1224 H 0.64113 0.51847 0.00858 0.0
H1225 H 0.64541 0.53762 0.99054 0.0
C1226 C 0.67247 0.54551 0.92757 0.0
C1227 C 0.69157 0.55637 0.93411 0.0
C1228 C 0.65557 0.54113 0.93356 0.0
C1229 C 0.65746 0.54772 0.94616 0.0
C1230 C 0.67651 0.55862 0.9527 0.0
C1231 C 0.69341 0.56291 0.94674 0.0
C1232 C 0.63955 0.54282 0.95264 0.0
C1233 C 0.63684 0.53279 0.96332 0.0
C1234 C 0.62491 0.54732 0.94814 0.0
C1235 C 0.62729 0.55867 0.93723 0.0
C1236 C 0.6443 0.57751 0.93689 0.0
C1237 C 0.64649 0.58805 0.92654 0.0
C1238 C 0.6317 0.57997 0.9165 0.0
C1239 C 0.61465 0.56135 0.91681 0.0
C1240 C 0.6124 0.55074 0.92713 0.0
C1241 C 0.57294 0.52883 0.99054 0.0
C1242 C 0.55368 0.51734 0.98428 0.0
C1243 C 0.58968 0.53357 0.98429 0.0
C1244 C 0.58749 0.52677 0.9717 0.0
C1245 C 0.5683 0.51548 0.96539 0.0
C1246 C 0.55155 0.51078 0.97162 0.0
C1247 C 0.60523 0.53152 0.9651 0.0
C1248 C 0.60788 0.54148 0.95439 0.0
C1249 C 0.6198 0.52692 0.96955 0.0
C1250 C 0.61731 0.5154 0.98039 0.0
C1251 C 0.60023 0.49657 0.98063 0.0
C1252 C 0.5979 0.48587 0.99091 0.0
C1253 C 0.61262 0.49378 0.00099 0.0
C1254 C 0.62973 0.51238 0.00078 0.0
C1255 C 0.63213 0.52315 0.99052 0.0
H1256 H 0.61078 0.48547 0.00894 0.0
H1257 H 0.63342 0.58815 0.9085 0.0
H1258 H 0.3942 0.10044 0.9435 0.0
H1259 H 0.40845 0.08081 0.95143 0.0
H1260 H 0.46318 0.13517 0.96448 0.0
H1261 H 0.44919 0.15482 0.95639 0.0
H1262 H 0.46959 0.10763 0.95182 0.0
H1263 H 0.43134 0.10943 0.98463 0.0
H1264 H 0.401 0.10451 0.99356 0.0
H1265 H 0.37149 0.04178 0.98145 0.0
H1266 H 0.40158 0.04637 0.9723 0.0
H1267 H 0.51598 0.07088 0.99281 0.0
H1268 H 0.50142 0.08854 0.98246 0.0
H1269 H 0.44609 0.03291 0.97335 0.0
H1270 H 0.46037 0.01537 0.98402 0.0
H1271 H 0.43908 0.06002 0.98313 0.0
H1272 H 0.47749 0.0576 0.951 0.0
H1273 H 0.50675 0.06251 0.94071 0.0
H1274 H 0.53542 0.12579 0.95066 0.0
H1275 H 0.50645 0.12127 0.96117 0.0
C1276 C 0.40928 0.10818 0.94804 0.0
C1277 C 0.42056 0.12916 0.94938 0.0
C1278 C 0.41734 0.09697 0.95263 0.0
C1279 C 0.43681 0.10657 0.95861 0.0
C1280 C 0.44811 0.12749 0.95991 0.0
C1281 C 0.44003 0.13869 0.95539 0.0
C1282 C 0.44561 0.09485 0.96336 0.0
C1283 C 0.4631 0.09738 0.95878 0.0
C1284 C 0.43672 0.08107 0.97214 0.0
C1285 C 0.41864 0.07828 0.97767 0.0
C1286 C 0.41832 0.09461 0.98378 0.0
C1287 C 0.40118 0.09188 0.9889 0.0
C1288 C 0.38431 0.07286 0.98804 0.0
C1289 C 0.38456 0.05651 0.98209 0.0
C1290 C 0.40165 0.05917 0.97695 0.0
C1291 C 0.50078 0.06243 0.98849 0.0
C1292 C 0.48929 0.04178 0.98921 0.0
C1293 C 0.49251 0.0725 0.98251 0.0
C1294 C 0.47269 0.06203 0.97704 0.0
C1295 C 0.4614 0.0413 0.97749 0.0
C1296 C 0.46962 0.03127 0.98353 0.0
C1297 C 0.46326 0.07284 0.97165 0.0
C1298 C 0.44561 0.07017 0.97612 0.0
C1299 C 0.47198 0.08645 0.96272 0.0
C1300 C 0.48983 0.08907 0.95696 0.0
C1301 C 0.49013 0.07253 0.95114 0.0
C1302 C 0.50665 0.07526 0.94523 0.0
C1303 C 0.52291 0.09445 0.94501 0.0
C1304 C 0.5228 0.11094 0.95082 0.0
C1305 C 0.50633 0.10831 0.95676 0.0
H1306 H 0.53558 0.0966 0.94029 0.0
H1307 H 0.37105 0.07077 0.99201 0.0
H1308 H 0.70502 0.1362 0.95653 0.0
H1309 H 0.67409 0.11305 0.96457 0.0
H1310 H 0.64854 0.08434 0.92754 0.0
H1311 H 0.67907 0.10833 0.9193 0.0
H1312 H 0.62257 0.08916 0.93865 0.0
H1313 H 0.66363 0.06209 0.94958 0.0
H1314 H 0.69361 0.06201 0.95828 0.0
H1315 H 0.68623 0.08101 0.99457 0.0
H1316 H 0.65636 0.08148 0.98606 0.0
H1317 H 0.53727 0.01389 0.96337 0.0
H1318 H 0.56734 0.03019 0.95273 0.0
H1319 H 0.60072 0.06601 0.98689 0.0
H1320 H 0.57091 0.04917 0.9977 0.0
H1321 H 0.6218 0.05354 0.97525 0.0
H1322 H 0.58096 0.08225 0.96281 0.0
H1323 H 0.55014 0.07988 0.95343 0.0
H1324 H 0.55677 0.0554 0.91868 0.0
H1325 H 0.58733 0.05703 0.92799 0.0
C1326 C 0.69279 0.1251 0.95005 0.0
C1327 C 0.69457 0.12421 0.93724 0.0
C1328 C 0.67518 0.11164 0.9547 0.0
C1329 C 0.65907 0.0967 0.9467 0.0
C1330 C 0.66081 0.09566 0.93391 0.0
C1331 C 0.67836 0.10928 0.92923 0.0
C1332 C 0.64019 0.08275 0.95166 0.0
C1333 C 0.62236 0.08109 0.94652 0.0
C1334 C 0.63988 0.07227 0.96197 0.0
C1335 C 0.65782 0.07196 0.96715 0.0
C1336 C 0.66848 0.06639 0.9594 0.0
C1337 C 0.68544 0.06625 0.9643 0.0
C1338 C 0.69184 0.07154 0.97697 0.0
C1339 C 0.68126 0.07693 0.98476 0.0
C1340 C 0.6643 0.07711 0.9799 0.0
C1341 C 0.55103 0.02523 0.96862 0.0
C1342 C 0.55172 0.03033 0.98137 0.0
C1343 C 0.5682 0.03456 0.96251 0.0
C1344 C 0.58624 0.04955 0.96896 0.0
C1345 C 0.58697 0.05448 0.98172 0.0
C1346 C 0.56991 0.04491 0.98788 0.0
C1347 C 0.60436 0.06047 0.96248 0.0
C1348 C 0.62203 0.06149 0.96732 0.0
C1349 C 0.60446 0.07012 0.95179 0.0
C1350 C 0.58633 0.0696 0.94613 0.0
C1351 C 0.57578 0.07625 0.95319 0.0
C1352 C 0.55834 0.07502 0.94788 0.0
C1353 C 0.5515 0.06753 0.93545 0.0
C1354 C 0.56206 0.06118 0.92831 0.0
C1355 C 0.57943 0.06222 0.93361 0.0
H1356 H 0.53806 0.06668 0.93133 0.0
H1357 H 0.70498 0.07142 0.98074 0.0
H1358 H 0.84939 0.56457 0.95002 0.0
H1359 H 0.87408 0.55739 0.9596 0.0
H1360 H 0.87512 0.52875 0.92456 0.0
H1361 H 0.84998 0.5354 0.91497 0.0
H1362 H 0.87401 0.50719 0.94365 0.0
H1363 H 0.91241 0.57507 0.93465 0.0
H1364 H 0.92133 0.61036 0.9348 0.0
H1365 H 0.92996 0.61752 0.97463 0.0
H1366 H 0.92081 0.58218 0.97473 0.0
H1367 H 0.96044 0.50265 0.96324 0.0
H1368 H 0.93764 0.5105 0.95172 0.0
H1369 H 0.9344 0.54158 0.98503 0.0
H1370 H 0.95743 0.53414 0.99655 0.0
H1371 H 0.9375 0.56205 0.96557 0.0
H1372 H 0.89758 0.49389 0.97463 0.0
H1373 H 0.88882 0.45865 0.97461 0.0
H1374 H 0.88303 0.452 0.93477 0.0
H1375 H 0.89206 0.48731 0.93456 0.0
C1376 C 0.85472 0.55657 0.94437 0.0
C1377 C 0.84776 0.5506 0.93173 0.0
C1378 C 0.86897 0.55264 0.94984 0.0
C1379 C 0.87661 0.54276 0.94275 0.0
C1380 C 0.86948 0.53648 0.93018 0.0
C1381 C 0.85524 0.54043 0.9247 0.0
C1382 C 0.89204 0.53898 0.9485 0.0
C1383 C 0.88803 0.5192 0.94828 0.0
C1384 C 0.91017 0.55463 0.95473 0.0
C1385 C 0.91575 0.57592 0.9547 0.0
C1386 C 0.91606 0.58413 0.94345 0.0
C1387 C 0.92118 0.60415 0.94348 0.0
C1388 C 0.92617 0.61616 0.95472 0.0
C1389 C 0.92608 0.60819 0.96593 0.0
C1390 C 0.92094 0.58817 0.96595 0.0
C1391 C 0.95497 0.51124 0.96811 0.0
C1392 C 0.96069 0.51768 0.98084 0.0
C1393 C 0.94187 0.51565 0.96152 0.0
C1394 C 0.93411 0.52639 0.96756 0.0
C1395 C 0.94019 0.53325 0.98019 0.0
C1396 C 0.95333 0.52894 0.98677 0.0
C1397 C 0.91938 0.53024 0.96085 0.0
C1398 C 0.92353 0.55004 0.96088 0.0
C1399 C 0.90137 0.5146 0.95448 0.0
C1400 C 0.8957 0.4933 0.95458 0.0
C1401 C 0.89457 0.48495 0.96587 0.0
C1402 C 0.88954 0.46496 0.9659 0.0
C1403 C 0.88542 0.45311 0.95469 0.0
C1404 C 0.88626 0.46121 0.94344 0.0
C1405 C 0.89132 0.4812 0.94336 0.0
H1406 H 0.88154 0.43764 0.95474 0.0
H1407 H 0.93013 0.63166 0.95472 0.0
H1408 H 0.39297 0.28928 0.94919 0.0
H1409 H 0.40642 0.32343 0.95887 0.0
H1410 H 0.46065 0.32491 0.97203 0.0
H1411 H 0.44731 0.29083 0.9624 0.0
H1412 H 0.44881 0.34093 0.98969 0.0
H1413 H 0.45816 0.34753 0.94649 0.0
H1414 H 0.4478 0.34088 0.92398 0.0
H1415 H 0.40798 0.3635 0.92883 0.0
H1416 H 0.4179 0.37001 0.95141 0.0
H1417 H 0.51358 0.44539 0.0026 0.0
H1418 H 0.49764 0.41061 0.99352 0.0
H1419 H 0.44368 0.41153 0.98319 0.0
H1420 H 0.45955 0.44633 0.99229 0.0
H1421 H 0.454 0.39418 0.96435 0.0
H1422 H 0.44587 0.3887 0.00763 0.0
H1423 H 0.4569 0.39571 0.03005 0.0
H1424 H 0.49517 0.37131 0.02492 0.0
H1425 H 0.48458 0.36441 0.00242 0.0
C1426 C 0.40777 0.29692 0.95412 0.0
C1427 C 0.4191 0.28739 0.95501 0.0
C1428 C 0.41543 0.31641 0.95965 0.0
C1429 C 0.43463 0.32679 0.96604 0.0
C1430 C 0.44579 0.31716 0.96716 0.0
C1431 C 0.43812 0.29767 0.96168 0.0
C1432 C 0.44326 0.34778 0.97144 0.0
C1433 C 0.45014 0.35261 0.98412 0.0
C1434 C 0.44458 0.36293 0.96423 0.0
C1435 C 0.43861 0.35905 0.95065 0.0
C1436 C 0.44707 0.35093 0.94277 0.0
C1437 C 0.4413 0.34721 0.93 0.0
C1438 C 0.42719 0.35171 0.92499 0.0
C1439 C 0.41887 0.35998 0.93273 0.0
C1440 C 0.42457 0.3637 0.94552 0.0
C1441 C 0.49833 0.43816 0.99839 0.0
C1442 C 0.48777 0.44849 0.99814 0.0
C1443 C 0.48923 0.41831 0.99325 0.0
C1444 C 0.46943 0.40847 0.9878 0.0
C1445 C 0.45897 0.41887 0.98736 0.0
C1446 C 0.46804 0.43871 0.99256 0.0
C1447 C 0.45967 0.38731 0.98255 0.0
C1448 C 0.45258 0.38246 0.96992 0.0
C1449 C 0.45823 0.37216 0.98979 0.0
C1450 C 0.46457 0.37621 0.00332 0.0
C1451 C 0.45676 0.38498 0.01126 0.0
C1452 C 0.46291 0.3889 0.02399 0.0
C1453 C 0.47677 0.384 0.0289 0.0
C1454 C 0.48446 0.37512 0.0211 0.0
C1455 C 0.47837 0.37118 0.00836 0.0
H1456 H 0.48151 0.38705 0.03876 0.0
H1457 H 0.42275 0.34883 0.9151 0.0
H1458 H 0.1631 0.68964 0.06647 0.0
H1459 H 0.13985 0.65646 0.05562 0.0
H1460 H 0.11088 0.68169 0.03425 0.0
H1461 H 0.13445 0.71502 0.04484 0.0
H1462 H 0.08904 0.64068 0.05147 0.0
H1463 H 0.12594 0.67305 0.01583 0.0
H1464 H 0.15769 0.69288 0.00693 0.0
H1465 H 0.17609 0.65124 0.01675 0.0
H1466 H 0.14454 0.63135 0.02588 0.0
H1467 H 0.02019 0.55886 0.0085 0.0
H1468 H 0.04322 0.59178 0.01953 0.0
H1469 H 0.09082 0.57831 0.01953 0.0
H1470 H 0.06798 0.5457 0.00811 0.0
H1471 H 0.1041 0.61388 0.01355 0.0
H1472 H 0.06715 0.57855 0.04594 0.0
H1473 H 0.03828 0.55869 0.05737 0.0
H1474 H 0.02213 0.60412 0.05649 0.0
H1475 H 0.05066 0.62409 0.04485 0.0
C1476 C 0.1518 0.68807 0.05942 0.0
C1477 C 0.15053 0.70479 0.05643 0.0
C1478 C 0.13861 0.6692 0.05325 0.0
C1479 C 0.12382 0.66679 0.04414 0.0
C1480 C 0.12235 0.6834 0.04121 0.0
C1481 C 0.13579 0.70235 0.04721 0.0
C1482 C 0.1097 0.64677 0.03783 0.0
C1483 C 0.09205 0.63481 0.04306 0.0
C1484 C 0.11422 0.63905 0.02722 0.0
C1485 C 0.13306 0.6509 0.02167 0.0
C1486 C 0.13687 0.66827 0.01621 0.0
C1487 C 0.15479 0.67948 0.0111 0.0
C1488 C 0.16893 0.67337 0.01132 0.0
C1489 C 0.16515 0.65599 0.01661 0.0
C1490 C 0.14725 0.64474 0.02175 0.0
C1491 C 0.03558 0.56297 0.01088 0.0
C1492 C 0.04239 0.54986 0.00743 0.0
C1493 C 0.04869 0.58171 0.01726 0.0
C1494 C 0.06874 0.58748 0.02049 0.0
C1495 C 0.07546 0.57424 0.01711 0.0
C1496 C 0.06241 0.55562 0.0106 0.0
C1497 C 0.08287 0.60756 0.02698 0.0
C1498 C 0.10075 0.61958 0.02189 0.0
C1499 C 0.07864 0.61517 0.03788 0.0
C1500 C 0.06098 0.60276 0.04443 0.0
C1501 C 0.0573 0.5842 0.04803 0.0
C1502 C 0.04102 0.57294 0.05458 0.0
C1503 C 0.02842 0.58018 0.05767 0.0
C1504 C 0.03192 0.59856 0.0541 0.0
C1505 C 0.04814 0.60984 0.04753 0.0
H1506 H 0.01603 0.57165 0.06292 0.0
H1507 H 0.18279 0.68206 0.00735 0.0
H1508 H 0.29382 0.44033 0.05027 0.0
H1509 H 0.32388 0.4481 0.04039 0.0
H1510 H 0.35824 0.46702 0.07626 0.0
H1511 H 0.32837 0.46003 0.08619 0.0
H1512 H 0.37731 0.49292 0.06014 0.0
H1513 H 0.3452 0.42194 0.06043 0.0
H1514 H 0.31758 0.3871 0.05655 0.0
H1515 H 0.31524 0.39219 0.01738 0.0
H1516 H 0.34268 0.42717 0.02105 0.0
H1517 H 0.46374 0.49674 0.03904 0.0
H1518 H 0.43424 0.48815 0.04976 0.0
H1519 H 0.39794 0.46928 0.01456 0.0
H1520 H 0.42731 0.4775 0.00377 0.0
H1521 H 0.3803 0.44299 0.03093 0.0
H1522 H 0.41194 0.51449 0.0309 0.0
H1523 H 0.43998 0.54912 0.03495 0.0
H1524 H 0.44352 0.5427 0.07389 0.0
H1525 H 0.41564 0.50793 0.07005 0.0
C1526 C 0.30779 0.44628 0.05606 0.0
C1527 C 0.30867 0.44953 0.06903 0.0
C1528 C 0.32493 0.45051 0.0504 0.0
C1529 C 0.34327 0.45791 0.0576 0.0
C1530 C 0.34423 0.46124 0.07053 0.0
C1531 C 0.3271 0.45707 0.0762 0.0
C1532 C 0.36152 0.46253 0.0516 0.0
C1533 C 0.37806 0.48191 0.05389 0.0
C1534 C 0.36237 0.44829 0.04327 0.0
C1535 C 0.34588 0.42724 0.04103 0.0
C1536 C 0.33869 0.41569 0.051 0.0
C1537 C 0.32309 0.3959 0.04883 0.0
C1538 C 0.31462 0.38745 0.03673 0.0
C1539 C 0.32179 0.39876 0.02676 0.0
C1540 C 0.33738 0.41856 0.02887 0.0
C1541 C 0.44951 0.49084 0.03356 0.0
C1542 C 0.44791 0.48791 0.02054 0.0
C1543 C 0.43265 0.48597 0.03971 0.0
C1544 C 0.41392 0.47829 0.03295 0.0
C1545 C 0.41226 0.47519 0.01996 0.0
C1546 C 0.42908 0.47996 0.01381 0.0
C1547 C 0.39601 0.4734 0.0394 0.0
C1548 C 0.37954 0.45397 0.0372 0.0
C1549 C 0.39524 0.48758 0.04783 0.0
C1550 C 0.41182 0.50856 0.05018 0.0
C1551 C 0.41877 0.52043 0.04032 0.0
C1552 C 0.43462 0.54009 0.04257 0.0
C1553 C 0.44355 0.54809 0.05466 0.0
C1554 C 0.4366 0.53647 0.06453 0.0
C1555 C 0.42076 0.5168 0.06232 0.0
H1556 H 0.45583 0.5633 0.05639 0.0
H1557 H 0.30254 0.37213 0.03507 0.0
H1558 H 0.59396 0.89959 0.06102 0.0
H1559 H 0.57935 0.91843 0.05241 0.0
H1560 H 0.524 0.86347 0.04166 0.0
H1561 H 0.5385 0.84457 0.05024 0.0
H1562 H 0.5348 0.88614 0.02305 0.0
H1563 H 0.5287 0.89595 0.06617 0.0
H1564 H 0.54017 0.90545 0.08849 0.0
H1565 H 0.58062 0.96561 0.08124 0.0
H1566 H 0.5696 0.9564 0.05885 0.0
H1567 H 0.47676 0.92942 0.00601 0.0
H1568 H 0.48933 0.91119 0.01767 0.0
H1569 H 0.54645 0.96506 0.02586 0.0
H1570 H 0.53398 0.98335 0.01416 0.0
H1571 H 0.53413 0.94293 0.04616 0.0
H1572 H 0.54097 0.93253 0.00299 0.0
H1573 H 0.52922 0.92298 0.9807 0.0
H1574 H 0.48697 0.86358 0.98828 0.0
H1575 H 0.49829 0.87287 0.01065 0.0
C1576 C 0.57859 0.89156 0.05697 0.0
C1577 C 0.5674 0.8706 0.05627 0.0
C1578 C 0.57026 0.90233 0.05206 0.0
C1579 C 0.55053 0.89236 0.04648 0.0
C1580 C 0.53927 0.87146 0.04589 0.0
C1581 C 0.5476 0.86068 0.05076 0.0
C1582 C 0.54188 0.9036 0.04074 0.0
C1583 C 0.53437 0.89835 0.02817 0.0
C1584 C 0.54177 0.91985 0.04734 0.0
C1585 C 0.54847 0.92543 0.06081 0.0
C1586 C 0.54017 0.91116 0.06932 0.0
C1587 C 0.54657 0.91651 0.08199 0.0
C1588 C 0.56115 0.93611 0.08628 0.0
C1589 C 0.56935 0.95042 0.07791 0.0
C1590 C 0.56302 0.94515 0.06522 0.0
C1591 C 0.49196 0.93738 0.01036 0.0
C1592 C 0.50446 0.95773 0.00914 0.0
C1593 C 0.4991 0.92698 0.01701 0.0
C1594 C 0.51887 0.93676 0.0225 0.0
C1595 C 0.53115 0.95727 0.02169 0.0
C1596 C 0.52402 0.96767 0.015 0.0
C1597 C 0.52703 0.92536 0.02854 0.0
C1598 C 0.53449 0.93064 0.04111 0.0
C1599 C 0.52709 0.9091 0.02196 0.0
C1600 C 0.52033 0.90345 0.00851 0.0
C1601 C 0.52906 0.91748 -8e-05 0.0
C1602 C 0.5225 0.91211 0.98727 0.0
C1603 C 0.50732 0.8927 0.98308 0.0
C1604 C 0.49871 0.87861 0.99154 0.0
C1605 C 0.5052 0.88392 0.0042 0.0
H1606 H 0.50226 0.88857 0.97328 0.0
H1607 H 0.56608 0.94022 0.09609 0.0
H1608 H 0.97606 0.17841 0.39078 0.0
H1609 H 0.00757 0.20092 0.38294 0.0
H1610 H 0.00276 0.25159 0.39658 0.0
H1611 H 0.97079 0.2291 0.404 0.0
H1612 H 0.0141 0.25616 0.37427 0.0
H1613 H 0.03486 0.23997 0.41149 0.0
H1614 H 0.03609 0.21854 0.42698 0.0
H1615 H 0.05802 0.19229 0.40088 0.0
H1616 H 0.05647 0.21321 0.38512 0.0
H1617 H 0.12935 0.307 0.37111 0.0
H1618 H 0.10036 0.28933 0.38255 0.0
H1619 H 0.06254 0.26394 0.34799 0.0
H1620 H 0.09129 0.28181 0.3365 0.0
H1621 H 0.07464 0.25121 0.38369 0.0
H1622 H 0.01807 0.26024 0.35072 0.0
H1623 H 0.01852 0.28482 0.33714 0.0
H1624 H 0.07127 0.33141 0.35867 0.0
H1625 H 0.07091 0.30724 0.37251 0.0
C1626 C 0.98159 0.19433 0.39201 0.0
C1627 C 0.97088 0.20195 0.39802 0.0
C1628 C 0.99974 0.2072 0.38766 0.0
C1629 C 0.00768 0.22796 0.38932 0.0
C1630 C 0.99698 0.23563 0.39524 0.0
C1631 C 0.97877 0.22276 0.39957 0.0
C1632 C 0.02687 0.24159 0.38457 0.0
C1633 C 0.02734 0.2551 0.37636 0.0
C1634 C 0.04436 0.24068 0.3876 0.0
C1635 C 0.04534 0.22804 0.39706 0.0
C1636 C 0.03974 0.22948 0.40899 0.0
C1637 C 0.04048 0.21741 0.41783 0.0
C1638 C 0.04704 0.20399 0.41489 0.0
C1639 C 0.05289 0.20265 0.40313 0.0
C1640 C 0.05207 0.2146 0.39423 0.0
C1641 C 0.11486 0.29766 0.36593 0.0
C1642 C 0.11262 0.29593 0.35287 0.0
C1643 C 0.09832 0.28754 0.3725 0.0
C1644 C 0.07925 0.27554 0.36614 0.0
C1645 C 0.07706 0.27344 0.35311 0.0
C1646 C 0.09354 0.28362 0.34654 0.0
C1647 C 0.06157 0.26513 0.37304 0.0
C1648 C 0.06141 0.2523 0.38166 0.0
C1649 C 0.04456 0.26711 0.3707 0.0
C1650 C 0.04455 0.28186 0.36259 0.0
C1651 C 0.02968 0.27576 0.35261 0.0
C1652 C 0.02993 0.28963 0.34486 0.0
C1653 C 0.04493 0.30967 0.34702 0.0
C1654 C 0.05967 0.3159 0.35698 0.0
C1655 C 0.05945 0.30211 0.36477 0.0
H1656 H 0.04513 0.32037 0.34099 0.0
H1657 H 0.04768 0.19472 0.42176 0.0
H1658 H 0.79397 0.75789 0.40656 0.0
H1659 H 0.77015 0.76579 0.39654 0.0
H1660 H 0.81833 0.81726 0.38308 0.0
H1661 H 0.84236 0.81 0.39358 0.0
H1662 H 0.79206 0.82633 0.39102 0.0
H1663 H 0.78951 0.77382 0.36406 0.0
H1664 H 0.78593 0.74084 0.35841 0.0
H1665 H 0.72658 0.71196 0.36932 0.0
H1666 H 0.72991 0.74478 0.3752 0.0
H1667 H 0.71372 0.80553 0.33524 0.0
H1668 H 0.73809 0.79887 0.3458 0.0
H1669 H 0.72764 0.81874 0.38109 0.0
H1670 H 0.70379 0.82617 0.37055 0.0
H1671 H 0.73604 0.77468 0.36167 0.0
H1672 H 0.76956 0.83977 0.40101 0.0
H1673 H 0.77466 0.87376 0.40486 0.0
H1674 H 0.77562 0.87977 0.3658 0.0
H1675 H 0.77084 0.84595 0.36174 0.0
C1676 C 0.79955 0.77105 0.40162 0.0
C1677 C 0.8201 0.78328 0.40085 0.0
C1678 C 0.78589 0.77543 0.39578 0.0
C1679 C 0.79244 0.79197 0.38892 0.0
C1680 C 0.81294 0.80438 0.38829 0.0
C1681 C 0.82663 0.80008 0.39418 0.0
C1682 C 0.7779 0.79614 0.38226 0.0
C1683 C 0.7798 0.81505 0.38461 0.0
C1684 C 0.7621 0.78153 0.37372 0.0
C1685 C 0.76004 0.76176 0.37018 0.0
C1686 C 0.77575 0.76043 0.36534 0.0
C1687 C 0.77376 0.74177 0.36208 0.0
C1688 C 0.75606 0.72431 0.36353 0.0
C1689 C 0.74029 0.72549 0.36822 0.0
C1690 C 0.74222 0.74412 0.37151 0.0
C1691 C 0.71659 0.80847 0.34526 0.0
C1692 C 0.70689 0.81645 0.35205 0.0
C1693 C 0.7305 0.80462 0.35128 0.0
C1694 C 0.7349 0.80853 0.36423 0.0
C1695 C 0.72482 0.816 0.37107 0.0
C1696 C 0.71111 0.82014 0.36504 0.0
C1697 C 0.75007 0.80482 0.37049 0.0
C1698 C 0.74827 0.78598 0.36809 0.0
C1699 C 0.76625 0.81968 0.37872 0.0
C1700 C 0.76968 0.84025 0.38108 0.0
C1701 C 0.77099 0.8484 0.39326 0.0
C1702 C 0.77381 0.86762 0.39547 0.0
C1703 C 0.77545 0.8789 0.38558 0.0
C1704 C 0.77433 0.871 0.37345 0.0
C1705 C 0.77156 0.8518 0.37119 0.0
H1706 H 0.77759 0.89376 0.38731 0.0
H1707 H 0.75455 0.70988 0.361 0.0
H1708 H 0.25923 0.03823 0.38817 0.0
H1709 H 0.2473 0.00456 0.37815 0.0
H1710 H 0.18738 0.99439 0.37381 0.0
H1711 H 0.19919 0.02801 0.38394 0.0
H1712 H 0.18989 0.96139 0.38173 0.0
H1713 H 0.21277 0.00675 0.35002 0.0
H1714 H 0.23715 0.03648 0.34078 0.0
H1715 H 0.27802 0.0144 0.34142 0.0
H1716 H 0.25397 0.98466 0.35084 0.0
H1717 H 0.14564 0.88031 0.33444 0.0
H1718 H 0.15819 0.91317 0.34596 0.0
H1719 H 0.21782 0.92241 0.34853 0.0
H1720 H 0.20535 0.88959 0.33701 0.0
H1721 H 0.21611 0.95554 0.34207 0.0
H1722 H 0.19384 0.90992 0.37292 0.0
H1723 H 0.16985 0.87958 0.3818 0.0
H1724 H 0.12887 0.90138 0.38304 0.0
H1725 H 0.15249 0.93177 0.37397 0.0
C1726 C 0.24348 0.02873 0.38522 0.0
C1727 C 0.23014 0.03576 0.38676 0.0
C1728 C 0.23671 0.00956 0.37946 0.0
C1729 C 0.2165 0.99709 0.37519 0.0
C1730 C 0.20304 0.00382 0.37705 0.0
C1731 C 0.20982 0.02305 0.38273 0.0
C1732 C 0.20958 0.97742 0.36821 0.0
C1733 C 0.19544 0.96009 0.373 0.0
C1734 C 0.21723 0.97578 0.35698 0.0
C1735 C 0.23166 0.99359 0.35125 0.0
C1736 C 0.22702 0.00832 0.34829 0.0
C1737 C 0.24077 0.02515 0.343 0.0
C1738 C 0.25915 0.02735 0.34055 0.0
C1739 C 0.26379 0.01269 0.34335 0.0
C1740 C 0.2501 0.99584 0.34865 0.0
C1741 C 0.16143 0.88944 0.33739 0.0
C1742 C 0.17455 0.8825 0.3349 0.0
C1743 C 0.16855 0.90811 0.344 0.0
C1744 C 0.18888 0.92006 0.34818 0.0
C1745 C 0.20208 0.91335 0.3454 0.0
C1746 C 0.19495 0.89464 0.33886 0.0
C1747 C 0.19635 0.93952 0.35554 0.0
C1748 C 0.2106 0.95682 0.35082 0.0
C1749 C 0.18893 0.94108 0.36688 0.0
C1750 C 0.17488 0.92307 0.37266 0.0
C1751 C 0.17967 0.90822 0.37501 0.0
C1752 C 0.16615 0.89101 0.38009 0.0
C1753 C 0.14784 0.88853 0.38296 0.0
C1754 C 0.14306 0.90332 0.3808 0.0
C1755 C 0.15652 0.92055 0.37571 0.0
H1756 H 0.13738 0.87518 0.38686 0.0
H1757 H 0.26977 0.0404 0.33645 0.0
H1758 H 0.53843 0.63263 0.2693 0.0
H1759 H 0.56095 0.6656 0.28026 0.0
H1760 H 0.52555 0.65013 0.31111 0.0
H1761 H 0.50359 0.61656 0.30066 0.0
H1762 H 0.53827 0.69074 0.29728 0.0
H1763 H 0.56027 0.65081 0.31965 0.0
H1764 H 0.57174 0.62636 0.32027 0.0
H1765 H 0.62111 0.66326 0.30035 0.0
H1766 H 0.60973 0.68777 0.29945 0.0
H1767 H 0.5979 0.77612 0.33959 0.0
H1768 H 0.5756 0.74195 0.33013 0.0
H1769 H 0.62377 0.74353 0.31148 0.0
H1770 H 0.64636 0.77725 0.32155 0.0
H1771 H 0.60408 0.70919 0.31894 0.0
H1772 H 0.58546 0.74933 0.29653 0.0
H1773 H 0.57532 0.7744 0.29355 0.0
H1774 H 0.52141 0.73872 0.31009 0.0
H1775 H 0.53138 0.71356 0.31334 0.0
C1776 C 0.53557 0.63596 0.27852 0.0
C1777 C 0.51912 0.62173 0.28407 0.0
C1778 C 0.54838 0.65492 0.28471 0.0
C1779 C 0.54483 0.66017 0.29644 0.0
C1780 C 0.52842 0.64626 0.302 0.0
C1781 C 0.51581 0.62713 0.29595 0.0
C1782 C 0.55825 0.68033 0.30284 0.0
C1783 C 0.55254 0.69479 0.30221 0.0
C1784 C 0.57713 0.68564 0.30875 0.0
C1785 C 0.58401 0.67098 0.30935 0.0
C1786 C 0.57344 0.65359 0.31529 0.0
C1787 C 0.57995 0.63975 0.31571 0.0
C1788 C 0.5971 0.64322 0.31031 0.0
C1789 C 0.60781 0.66057 0.30451 0.0
C1790 C 0.60134 0.67444 0.30404 0.0
C1791 C 0.60371 0.76912 0.3335 0.0
C1792 C 0.62376 0.77936 0.33117 0.0
C1793 C 0.59093 0.74965 0.32803 0.0
C1794 C 0.59786 0.74026 0.31985 0.0
C1795 C 0.61802 0.75043 0.3177 0.0
C1796 C 0.6309 0.76975 0.32338 0.0
C1797 C 0.58411 0.71986 0.31359 0.0
C1798 C 0.58979 0.7053 0.31413 0.0
C1799 C 0.56538 0.71461 0.3073 0.0
C1800 C 0.55927 0.72965 0.30529 0.0
C1801 C 0.57151 0.74689 0.29962 0.0
C1802 C 0.56579 0.76111 0.29787 0.0
C1803 C 0.54776 0.75818 0.30166 0.0
C1804 C 0.53539 0.74099 0.30717 0.0
C1805 C 0.54106 0.72673 0.30897 0.0
H1806 H 0.54335 0.76921 0.3003 0.0
H1807 H 0.60213 0.6325 0.31066 0.0
H1808 H 0.33912 0.8529 0.25601 0.0
H1809 H 0.30859 0.84509 0.26559 0.0
H1810 H 0.33576 0.90641 0.28131 0.0
H1811 H 0.36613 0.9144 0.27145 0.0
H1812 H 0.31756 0.87303 0.29828 0.0
H1813 H 0.30428 0.89678 0.26069 0.0
H1814 H 0.30063 0.89737 0.23803 0.0
H1815 H 0.25438 0.83581 0.23395 0.0
H1816 H 0.25792 0.83473 0.25658 0.0
H1817 H 0.23767 0.87305 0.32473 0.0
H1818 H 0.26617 0.88112 0.31317 0.0
H1819 H 0.23045 0.82741 0.28822 0.0
H1820 H 0.20154 0.81965 0.29951 0.0
H1821 H 0.25297 0.85613 0.27549 0.0
H1822 H 0.26498 0.83106 0.31211 0.0
H1823 H 0.26831 0.82834 0.33454 0.0
H1824 H 0.31657 0.88902 0.34034 0.0
H1825 H 0.31335 0.8922 0.31796 0.0
C1826 C 0.33846 0.86469 0.26144 0.0
C1827 C 0.35486 0.88422 0.26303 0.0
C1828 C 0.32107 0.86026 0.26685 0.0
C1829 C 0.32001 0.87521 0.2741 0.0
C1830 C 0.33636 0.89473 0.2757 0.0
C1831 C 0.3536 0.89927 0.27006 0.0
C1832 C 0.30213 0.87023 0.28049 0.0
C1833 C 0.30348 0.8696 0.29336 0.0
C1834 C 0.28369 0.86504 0.27393 0.0
C1835 C 0.28155 0.86561 0.26032 0.0
C1836 C 0.29348 0.88329 0.25495 0.0
C1837 C 0.29138 0.88373 0.24211 0.0
C1838 C 0.2773 0.86661 0.23454 0.0
C1839 C 0.26527 0.84903 0.23981 0.0
C1840 C 0.26731 0.84851 0.25265 0.0
C1841 C 0.23586 0.86292 0.3168 0.0
C1842 C 0.21742 0.84561 0.3131 0.0
C1843 C 0.25221 0.86752 0.31022 0.0
C1844 C 0.25061 0.85465 0.29999 0.0
C1845 C 0.23208 0.83753 0.29612 0.0
C1846 C 0.21559 0.83308 0.30259 0.0
C1847 C 0.26834 0.85912 0.29341 0.0
C1848 C 0.267 0.85955 0.28048 0.0
C1849 C 0.28676 0.86379 0.29989 0.0
C1850 C 0.2888 0.86192 0.31336 0.0
C1851 C 0.27621 0.84387 0.31818 0.0
C1852 C 0.27809 0.84224 0.33088 0.0
C1853 C 0.29261 0.85851 0.33887 0.0
C1854 C 0.30531 0.87644 0.33415 0.0
C1855 C 0.30348 0.87815 0.32145 0.0
H1856 H 0.29404 0.85722 0.3487 0.0
H1857 H 0.27568 0.86697 0.2246 0.0
H1858 H 0.12127 0.4846 0.2891 0.0
H1859 H 0.13313 0.46383 0.29815 0.0
H1860 H 0.07629 0.41116 0.28634 0.0
H1861 H 0.06415 0.43195 0.27746 0.0
H1862 H 0.0898 0.41165 0.31036 0.0
H1863 H 0.11509 0.42052 0.27079 0.0
H1864 H 0.13278 0.43933 0.25375 0.0
H1865 H 0.18719 0.47074 0.27806 0.0
H1866 H 0.16976 0.45232 0.29531 0.0
H1867 H 0.12429 0.34458 0.324 0.0
H1868 H 0.11001 0.36225 0.31339 0.0
H1869 H 0.16594 0.41751 0.32163 0.0
H1870 H 0.18045 0.39975 0.3319 0.0
H1871 H 0.15127 0.41375 0.29829 0.0
H1872 H 0.12559 0.40615 0.33814 0.0
H1873 H 0.10775 0.38783 0.35529 0.0
H1874 H 0.05405 0.35421 0.33054 0.0
H1875 H 0.07164 0.37213 0.31319 0.0
C1876 C 0.11123 0.46861 0.28851 0.0
C1877 C 0.09177 0.45989 0.28258 0.0
C1878 C 0.11809 0.45675 0.29358 0.0
C1879 C 0.10565 0.43595 0.29279 0.0
C1880 C 0.08614 0.42719 0.28699 0.0
C1881 C 0.07928 0.43905 0.28186 0.0
C1882 C 0.11302 0.42346 0.2982 0.0
C1883 C 0.10305 0.41182 0.30759 0.0
C1884 C 0.13052 0.42404 0.29472 0.0
C1885 C 0.14107 0.43516 0.28437 0.0
C1886 C 0.13079 0.43156 0.27253 0.0
C1887 C 0.14078 0.44213 0.26283 0.0
C1888 C 0.16109 0.45625 0.26483 0.0
C1889 C 0.17146 0.45981 0.27653 0.0
C1890 C 0.16153 0.44929 0.28627 0.0
C1891 C 0.13355 0.36047 0.32347 0.0
C1892 C 0.15349 0.37082 0.3287 0.0
C1893 C 0.12534 0.37058 0.3175 0.0
C1894 C 0.13685 0.39124 0.31683 0.0
C1895 C 0.15679 0.40156 0.32204 0.0
C1896 C 0.16504 0.39144 0.32794 0.0
C1897 C 0.12824 0.40216 0.31062 0.0
C1898 C 0.13796 0.41347 0.30103 0.0
C1899 C 0.11052 0.40129 0.31394 0.0
C1900 C 0.09999 0.39035 0.32434 0.0
C1901 C 0.11003 0.39471 0.33632 0.0
C1902 C 0.09995 0.38443 0.34609 0.0
C1903 C 0.07979 0.36985 0.344 0.0
C1904 C 0.06967 0.36549 0.33214 0.0
C1905 C 0.07968 0.37572 0.32234 0.0
H1906 H 0.07199 0.362 0.35159 0.0
H1907 H 0.16879 0.46442 0.25731 0.0
H1908 H 0.34207 0.45246 0.25324 0.0
H1909 H 0.31025 0.42978 0.26079 0.0
H1910 H 0.34016 0.43919 0.29743 0.0
H1911 H 0.3721 0.46137 0.28987 0.0
H1912 H 0.31282 0.39999 0.29085 0.0
H1913 H 0.3143 0.46352 0.29115 0.0
H1914 H 0.31799 0.49295 0.28138 0.0
H1915 H 0.26986 0.45463 0.25359 0.0
H1916 H 0.26607 0.42499 0.26317 0.0
H1917 H 0.23787 0.37221 0.33044 0.0
H1918 H 0.26681 0.39072 0.31928 0.0
H1919 H 0.22842 0.3769 0.28539 0.0
H1920 H 0.19916 0.35848 0.29657 0.0
H1921 H 0.25814 0.41557 0.2881 0.0
H1922 H 0.25342 0.3522 0.28989 0.0
H1923 H 0.24976 0.32287 0.29971 0.0
H1924 H 0.30431 0.36017 0.32312 0.0
H1925 H 0.30815 0.3898 0.31357 0.0
C1926 C 0.34191 0.44951 0.26287 0.0
C1927 C 0.3596 0.45879 0.27097 0.0
C1928 C 0.32369 0.43669 0.26719 0.0
C1929 C 0.32282 0.43299 0.2797 0.0
C1930 C 0.3405 0.44189 0.28775 0.0
C1931 C 0.35871 0.4547 0.28344 0.0
C1932 C 0.30349 0.42012 0.28452 0.0
C1933 C 0.30092 0.40347 0.29035 0.0
C1934 C 0.28774 0.42431 0.2835 0.0
C1935 C 0.28989 0.44209 0.27785 0.0
C1936 C 0.30454 0.4614 0.28294 0.0
C1937 C 0.30665 0.4781 0.27744 0.0
C1938 C 0.29415 0.47566 0.26687 0.0
C1939 C 0.27949 0.4565 0.26179 0.0
C1940 C 0.27732 0.43976 0.26727 0.0
C1941 C 0.2355 0.37306 0.32062 0.0
C1942 C 0.21617 0.36373 0.31439 0.0
C1943 C 0.2521 0.3836 0.31423 0.0
C1944 C 0.24979 0.38489 0.30146 0.0
C1945 C 0.23053 0.37598 0.29523 0.0
C1946 C 0.21384 0.36543 0.30164 0.0
C1947 C 0.26764 0.39568 0.29474 0.0
C1948 C 0.26993 0.41192 0.28851 0.0
C1949 C 0.28313 0.39107 0.29538 0.0
C1950 C 0.281 0.37325 0.30107 0.0
C1951 C 0.26457 0.35418 0.29719 0.0
C1952 C 0.26247 0.33749 0.3027 0.0
C1953 C 0.27678 0.33966 0.31205 0.0
C1954 C 0.29324 0.35852 0.31588 0.0
C1955 C 0.2954 0.37526 0.31041 0.0
H1956 H 0.27512 0.32672 0.31631 0.0
H1957 H 0.29582 0.4886 0.26262 0.0
H1958 H 0.53561 0.8949 0.25335 0.0
H1959 H 0.55957 0.88723 0.26345 0.0
H1960 H 0.52149 0.86254 0.29244 0.0
H1961 H 0.49675 0.8689 0.28206 0.0
H1962 H 0.56637 0.89364 0.29929 0.0
H1963 H 0.51933 0.83041 0.27511 0.0
H1964 H 0.50011 0.80989 0.25564 0.0
H1965 H 0.55434 0.8288 0.23872 0.0
H1966 H 0.57387 0.84968 0.25805 0.0
H1967 H 0.61276 0.84931 0.33156 0.0
H1968 H 0.5891 0.85689 0.32098 0.0
H1969 H 0.61309 0.85546 0.28632 0.0
H1970 H 0.63599 0.84665 0.29679 0.0
H1971 H 0.57586 0.83875 0.28174 0.0
H1972 H 0.6237 0.90063 0.30443 0.0
H1973 H 0.64503 0.92366 0.32264 0.0
H1974 H 0.59318 0.9114 0.3408 0.0
H1975 H 0.57153 0.88808 0.32277 0.0
C1976 C 0.53207 0.88751 0.26175 0.0
C1977 C 0.51408 0.88244 0.26681 0.0
C1978 C 0.54591 0.88334 0.26756 0.0
C1979 C 0.54222 0.87436 0.27865 0.0
C1980 C 0.52457 0.8696 0.28389 0.0
C1981 C 0.51052 0.87338 0.27797 0.0
C1982 C 0.55676 0.86975 0.28472 0.0
C1983 C 0.56835 0.88151 0.29559 0.0
C1984 C 0.55976 0.85444 0.27954 0.0
C1985 C 0.54803 0.84178 0.26797 0.0
C1986 C 0.52714 0.83035 0.2672 0.0
C1987 C 0.51619 0.81862 0.2562 0.0
C1988 C 0.52599 0.81809 0.24594 0.0
C1989 C 0.54677 0.82925 0.24667 0.0
C1990 C 0.55778 0.84102 0.25764 0.0
C1991 C 0.613 0.85067 0.32169 0.0
C1992 C 0.62629 0.84756 0.31501 0.0
C1993 C 0.59956 0.85513 0.31565 0.0
C1994 C 0.59959 0.85727 0.30288 0.0
C1995 C 0.61278 0.85398 0.29618 0.0
C1996 C 0.6259 0.849 0.30217 0.0
C1997 C 0.5856 0.86254 0.29652 0.0
C1998 C 0.57407 0.85096 0.28553 0.0
C1999 C 0.58303 0.87839 0.30143 0.0
C2000 C 0.596 0.89247 0.31229 0.0
C2001 C 0.61685 0.90274 0.31234 0.0
C2002 C 0.629 0.91586 0.32263 0.0
C2003 C 0.62047 0.91895 0.33288 0.0
C2004 C 0.59977 0.90897 0.33286 0.0
C2005 C 0.58755 0.89582 0.3226 0.0
H2006 H 0.6299 0.92911 0.34083 0.0
H2007 H 0.51749 0.809 0.23743 0.0
H2008 H 0.09611 0.63378 0.27055 0.0
H2009 H 0.1093 0.66726 0.28103 0.0
H2010 H 0.10297 0.64375 0.31655 0.0
H2011 H 0.08876 0.61002 0.30611 0.0
H2012 H 0.09234 0.67089 0.317 0.0
H2013 H 0.14846 0.66722 0.30477 0.0
H2014 H 0.16853 0.6609 0.29038 0.0
H2015 H 0.17084 0.7063 0.26861 0.0
H2016 H 0.15053 0.7127 0.28278 0.0
H2017 H 0.1841 0.77806 0.33744 0.0
H2018 H 0.17006 0.74311 0.32913 0.0
H2019 H 0.11424 0.7399 0.31793 0.0
H2020 H 0.12794 0.77448 0.3267 0.0
H2021 H 0.15729 0.72537 0.30682 0.0
H2022 H 0.07573 0.69352 0.31849 0.0
H2023 H 0.05751 0.69922 0.33459 0.0
H2024 H 0.10959 0.72359 0.36083 0.0
H2025 H 0.12803 0.71779 0.34495 0.0
C2026 C 0.09717 0.63563 0.28058 0.0
C2027 C 0.09145 0.61917 0.28748 0.0
C2028 C 0.10496 0.65485 0.28657 0.0
C2029 C 0.10747 0.65807 0.29958 0.0
C2030 C 0.10129 0.64164 0.3065 0.0
C2031 C 0.09335 0.62238 0.30051 0.0
C2032 C 0.11679 0.67861 0.30597 0.0
C2033 C 0.10655 0.68281 0.31478 0.0
C2034 C 0.13555 0.69406 0.30329 0.0
C2035 C 0.14782 0.69031 0.29477 0.0
C2036 C 0.15312 0.67575 0.29686 0.0
C2037 C 0.16456 0.67218 0.28876 0.0
C2038 C 0.17091 0.68316 0.27857 0.0
C2039 C 0.16588 0.69779 0.2765 0.0
C2040 C 0.15442 0.70141 0.28456 0.0
C2041 C 0.16879 0.7698 0.33329 0.0
C2042 C 0.1571 0.77893 0.33268 0.0
C2043 C 0.16081 0.74989 0.32851 0.0
C2044 C 0.14103 0.73879 0.32301 0.0
C2045 C 0.12941 0.748 0.32234 0.0
C2046 C 0.1373 0.76781 0.32726 0.0
C2047 C 0.13269 0.71776 0.31771 0.0
C2048 C 0.14311 0.71347 0.30907 0.0
C2049 C 0.11436 0.70212 0.32081 0.0
C2050 C 0.1033 0.70538 0.33049 0.0
C2051 C 0.08326 0.70001 0.32772 0.0
C2052 C 0.07291 0.70327 0.3368 0.0
C2053 C 0.08241 0.71182 0.34872 0.0
C2054 C 0.10227 0.71704 0.35159 0.0
C2055 C 0.11269 0.71379 0.34254 0.0
H2056 H 0.07437 0.71435 0.35573 0.0
H2057 H 0.17977 0.68037 0.27231 0.0
H2058 H 0.83872 0.03463 0.38114 0.0
H2059 H 0.81633 0.00179 0.36989 0.0
H2060 H 0.76668 -0.00016 0.38674 0.0
H2061 H 0.78885 0.0329 0.3978 0.0
H2062 H 0.76694 0.96385 0.38664 0.0
H2063 H 0.77244 0.01108 0.35803 0.0
H2064 H 0.79041 0.03986 0.3461 0.0
H2065 H 0.81717 0.01002 0.32766 0.0
H2066 H 0.79957 0.98117 0.33963 0.0
H2067 H 0.68719 0.88826 0.34432 0.0
H2068 H 0.71037 0.92066 0.35602 0.0
H2069 H 0.75988 0.91862 0.34165 0.0
H2070 H 0.73686 0.88586 0.33034 0.0
H2071 H 0.76003 0.95617 0.34057 0.0
H2072 H 0.75458 0.90886 0.3684 0.0
H2073 H 0.73712 0.87974 0.38012 0.0
H2074 H 0.71133 0.90919 0.40007 0.0
H2075 H 0.72814 0.9383 0.38817 0.0
C2076 C 0.82302 0.02733 0.38238 0.0
C2077 C 0.81559 0.0365 0.39033 0.0
C2078 C 0.81027 0.0085 0.376 0.0
C2079 C 0.78985 0.99846 0.37743 0.0
C2080 C 0.78242 0.00732 0.38555 0.0
C2081 C 0.79514 0.0262 0.39189 0.0
C2082 C 0.77615 0.97896 0.3702 0.0
C2083 C 0.76522 0.9622 0.37657 0.0
C2084 C 0.77433 0.97676 0.35707 0.0
C2085 C 0.78485 0.99406 0.34982 0.0
C2086 C 0.78229 0.01073 0.35151 0.0
C2087 C 0.79238 0.02704 0.34473 0.0
C2088 C 0.80497 0.0268 0.33615 0.0
C2089 C 0.80744 0.01021 0.33432 0.0
C2090 C 0.7974 0.99386 0.34109 0.0
C2091 C 0.70302 0.89467 0.34374 0.0
C2092 C 0.71029 0.88446 0.33661 0.0
C2093 C 0.7162 0.91316 0.35037 0.0
C2094 C 0.73678 0.92187 0.34974 0.0
C2095 C 0.74402 0.91205 0.34225 0.0
C2096 C 0.73088 0.89339 0.33582 0.0
C2097 C 0.75077 0.94115 0.35701 0.0
C2098 C 0.76175 0.95784 0.35064 0.0
C2099 C 0.75271 0.94322 0.37013 0.0
C2100 C 0.74245 0.92571 0.37728 0.0
C2101 C 0.74497 0.90905 0.37516 0.0
C2102 C 0.73524 0.89256 0.38186 0.0
C2103 C 0.72317 0.89264 0.39084 0.0
C2104 C 0.7207 0.90916 0.3931 0.0
C2105 C 0.7303 0.92566 0.38637 0.0
H2106 H 0.71582 0.87993 0.39609 0.0
H2107 H 0.81277 0.03944 0.33091 0.0
H2108 H 0.98057 0.75886 0.4067 0.0
H2109 H 0.01131 0.76818 0.39717 0.0
H2110 H 0.01827 0.82595 0.39199 0.0
H2111 H 0.98758 0.81673 0.40152 0.0
H2112 H 0.02356 0.81043 0.37144 0.0
H2113 H 0.0483 0.82096 0.41398 0.0
H2114 H 0.05017 0.81316 0.43554 0.0
H2115 H 0.05943 0.76511 0.42306 0.0
H2116 H 0.05734 0.77244 0.40139 0.0
H2117 H 0.13496 0.84106 0.36873 0.0
H2118 H 0.10743 0.83588 0.38061 0.0
H2119 H 0.06559 0.79197 0.3515 0.0
H2120 H 0.09302 0.7972 0.33946 0.0
H2121 H 0.07972 0.80415 0.3902 0.0
H2122 H 0.02378 0.79525 0.34891 0.0
H2123 H 0.02449 0.80735 0.32834 0.0
H2124 H 0.08128 0.85944 0.34018 0.0
H2125 H 0.08078 0.84781 0.36087 0.0
C2126 C 0.98881 0.77365 0.40369 0.0
C2127 C 0.98161 0.78704 0.40483 0.0
C2128 C 0.00637 0.77896 0.39825 0.0
C2129 C 0.01716 0.79781 0.39393 0.0
C2130 C 0.01014 0.81129 0.39521 0.0
C2131 C 0.99257 0.80598 0.40061 0.0
C2132 C 0.03523 0.80314 0.38757 0.0
C2133 C 0.03584 0.80908 0.37556 0.0
C2134 C 0.05146 0.80178 0.39304 0.0
C2135 C 0.05246 0.79713 0.40604 0.0
C2136 C 0.05053 0.8086 0.41582 0.0
C2137 C 0.05168 0.80429 0.42806 0.0
C2138 C 0.05486 0.78862 0.43066 0.0
C2139 C 0.05694 0.77723 0.42103 0.0
C2140 C 0.05579 0.78146 0.40876 0.0
C2141 C 0.11991 0.83026 0.36484 0.0
C2142 C 0.11618 0.81957 0.3531 0.0
C2143 C 0.1042 0.8273 0.37167 0.0
C2144 C 0.08446 0.81369 0.36689 0.0
C2145 C 0.0807 0.80278 0.35528 0.0
C2146 C 0.0964 0.80575 0.34842 0.0
C2147 C 0.06776 0.81096 0.374 0.0
C2148 C 0.06742 0.8055 0.38612 0.0
C2149 C 0.05201 0.81328 0.36878 0.0
C2150 C 0.05231 0.82054 0.3564 0.0
C2151 C 0.03637 0.80932 0.34714 0.0
C2152 C 0.03675 0.8161 0.33546 0.0
C2153 C 0.05295 0.83412 0.33294 0.0
C2154 C 0.06878 0.84545 0.34213 0.0
C2155 C 0.06846 0.83876 0.35383 0.0
H2156 H 0.05321 0.83933 0.32389 0.0
H2157 H 0.05575 0.78532 0.44014 0.0
H2158 H 0.2648 0.2263 0.38866 0.0
H2159 H 0.2532 0.24681 0.37884 0.0
H2160 H 0.1966 0.19401 0.36672 0.0
H2161 H 0.20803 0.17347 0.37653 0.0
H2162 H 0.21026 0.21775 0.3484 0.0
H2163 H 0.20177 0.2256 0.39157 0.0
H2164 H 0.21252 0.23393 0.41402 0.0
H2165 H 0.25519 0.29402 0.40791 0.0
H2166 H 0.24488 0.28596 0.38539 0.0
H2167 H 0.14913 0.259 0.33455 0.0
H2168 H 0.16417 0.24113 0.34404 0.0
H2169 H 0.21964 0.29663 0.35297 0.0
H2170 H 0.20469 0.31459 0.34342 0.0
H2171 H 0.2088 0.27331 0.37256 0.0
H2172 H 0.21609 0.26585 0.32946 0.0
H2173 H 0.20497 0.25755 0.30706 0.0
H2174 H 0.16436 0.19677 0.31304 0.0
H2175 H 0.17503 0.20478 0.33552 0.0
C2176 C 0.24985 0.21909 0.38396 0.0
C2177 C 0.23733 0.19827 0.38337 0.0
C2178 C 0.24325 0.23081 0.37835 0.0
C2179 C 0.22398 0.22193 0.37214 0.0
C2180 C 0.21155 0.20115 0.37143 0.0
C2181 C 0.21813 0.18943 0.37701 0.0
C2182 C 0.21665 0.23423 0.36638 0.0
C2183 C 0.20975 0.22977 0.35371 0.0
C2184 C 0.2165 0.25025 0.37325 0.0
C2185 C 0.22271 0.25511 0.38678 0.0
C2186 C 0.21357 0.24054 0.395 0.0
C2187 C 0.21956 0.24522 0.40774 0.0
C2188 C 0.23457 0.26447 0.41239 0.0
C2189 C 0.24359 0.2791 0.4043 0.0
C2190 C 0.23767 0.27449 0.39155 0.0
C2191 C 0.16453 0.26737 0.33853 0.0
C2192 C 0.17577 0.28814 0.33827 0.0
C2193 C 0.17311 0.25716 0.34392 0.0
C2194 C 0.19306 0.26756 0.3491 0.0
C2195 C 0.20423 0.28836 0.34901 0.0
C2196 C 0.19568 0.29857 0.34355 0.0
C2197 C 0.20218 0.25664 0.35463 0.0
C2198 C 0.20943 0.26137 0.36724 0.0
C2199 C 0.20264 0.24086 0.34772 0.0
C2200 C 0.19624 0.23596 0.33419 0.0
C2201 C 0.20467 0.25075 0.32602 0.0
C2202 C 0.19847 0.24609 0.3133 0.0
C2203 C 0.18393 0.22666 0.30864 0.0
C2204 C 0.1756 0.21183 0.31667 0.0
C2205 C 0.18174 0.21641 0.3294 0.0
H2206 H 0.17915 0.22308 0.29879 0.0
H2207 H 0.23918 0.26807 0.42225 0.0
H2208 H 0.65621 0.53778 0.74646 0.0
H2209 H 0.68745 0.55885 0.73774 0.0
H2210 H 0.65437 0.55733 0.70392 0.0
H2211 H 0.62312 0.53632 0.71258 0.0
H2212 H 0.68361 0.54966 0.69924 0.0
H2213 H 0.67775 0.59905 0.72531 0.0
H2214 H 0.67419 0.61392 0.74503 0.0
H2215 H 0.72809 0.61852 0.76157 0.0
H2216 H 0.73183 0.60346 0.74199 0.0
H2217 H 0.75785 0.62545 0.66935 0.0
H2218 H 0.72853 0.60554 0.67996 0.0
H2219 H 0.76628 0.61209 0.7128 0.0
H2220 H 0.79571 0.63234 0.70232 0.0
H2221 H 0.73599 0.61641 0.71892 0.0
H2222 H 0.74328 0.5687 0.69361 0.0
H2223 H 0.74777 0.55334 0.67444 0.0
H2224 H 0.6923 0.54426 0.65725 0.0
H2225 H 0.68762 0.55985 0.67627 0.0
C2226 C 0.6556 0.54216 0.73723 0.0
C2227 C 0.63719 0.53537 0.7302 0.0
C2228 C 0.67346 0.55417 0.73226 0.0
C2229 C 0.67324 0.55977 0.72021 0.0
C2230 C 0.65489 0.55313 0.71322 0.0
C2231 C 0.63705 0.54109 0.71817 0.0
C2232 C 0.69206 0.57204 0.71469 0.0
C2233 C 0.69495 0.56437 0.70346 0.0
C2234 C 0.7072 0.59087 0.72045 0.0
C2235 C 0.70496 0.59996 0.73222 0.0
C2236 C 0.68876 0.6031 0.73318 0.0
C2237 C 0.68673 0.61159 0.74433 0.0
C2238 C 0.70088 0.61712 0.75456 0.0
C2239 C 0.71712 0.61422 0.75365 0.0
C2240 C 0.71922 0.60572 0.74252 0.0
C2241 C 0.75997 0.62269 0.67883 0.0
C2242 C 0.7792 0.63043 0.68496 0.0
C2243 C 0.74317 0.61123 0.68488 0.0
C2244 C 0.74521 0.60705 0.69711 0.0
C2245 C 0.76435 0.61508 0.70334 0.0
C2246 C 0.78119 0.62664 0.69732 0.0
C2247 C 0.72732 0.59422 0.70333 0.0
C2248 C 0.72466 0.6017 0.71471 0.0
C2249 C 0.71248 0.57507 0.69779 0.0
C2250 C 0.71519 0.56561 0.68634 0.0
C2251 C 0.73211 0.56357 0.68571 0.0
C2252 C 0.73468 0.5548 0.67488 0.0
C2253 C 0.72035 0.54787 0.66462 0.0
C2254 C 0.7034 0.54965 0.6652 0.0
C2255 C 0.70077 0.55844 0.67601 0.0
H2256 H 0.72237 0.54108 0.65624 0.0
H2257 H 0.69927 0.62369 0.76318 0.0
H2258 H 0.49845 0.12514 0.71895 0.0
H2259 H 0.47351 0.13164 0.70927 0.0
H2260 H 0.44037 0.11383 0.74112 0.0
H2261 H 0.46434 0.10559 0.75041 0.0
H2262 H 0.41543 0.10074 0.72187 0.0
H2263 H 0.47134 0.16452 0.73588 0.0
H2264 H 0.50651 0.19143 0.73851 0.0
H2265 H 0.50534 0.19479 0.69915 0.0
H2266 H 0.47022 0.16769 0.69626 0.0
H2267 H 0.36134 0.1513 0.70489 0.0
H2268 H 0.38466 0.14379 0.71631 0.0
H2269 H 0.40888 0.13969 0.68229 0.0
H2270 H 0.38544 0.1467 0.67078 0.0
H2271 H 0.43765 0.16513 0.70412 0.0
H2272 H 0.3805 0.09896 0.69124 0.0
H2273 H 0.34486 0.07359 0.6901 0.0
H2274 H 0.34828 0.07744 0.72989 0.0
H2275 H 0.38391 0.10307 0.73125 0.0
C2276 C 0.48569 0.12219 0.72383 0.0
C2277 C 0.48358 0.11493 0.73554 0.0
C2278 C 0.47156 0.12627 0.71835 0.0
C2279 C 0.45529 0.12375 0.72459 0.0
C2280 C 0.45288 0.1161 0.73615 0.0
C2281 C 0.46679 0.11163 0.74153 0.0
C2282 C 0.4408 0.12905 0.71903 0.0
C2283 C 0.42034 0.11496 0.71818 0.0
C2284 C 0.44708 0.14759 0.71416 0.0
C2285 C 0.46819 0.16395 0.71585 0.0
C2286 C 0.47862 0.1709 0.72778 0.0
C2287 C 0.49854 0.1862 0.72932 0.0
C2288 C 0.50816 0.19478 0.719 0.0
C2289 C 0.49787 0.18811 0.70713 0.0
C2290 C 0.47795 0.1728 0.70554 0.0
C2291 C 0.37161 0.14876 0.69985 0.0
C2292 C 0.37152 0.14949 0.68693 0.0
C2293 C 0.38487 0.14445 0.70638 0.0
C2294 C 0.39841 0.14119 0.7001 0.0
C2295 C 0.39851 0.14218 0.68726 0.0
C2296 C 0.38505 0.14609 0.68071 0.0
C2297 C 0.41257 0.13673 0.70685 0.0
C2298 C 0.4329 0.15101 0.70793 0.0
C2299 C 0.40615 0.11861 0.71218 0.0
C2300 C 0.3848 0.10309 0.71135 0.0
C2301 C 0.37361 0.09453 0.69974 0.0
C2302 C 0.35342 0.08007 0.69905 0.0
C2303 C 0.34429 0.07395 0.70991 0.0
C2304 C 0.35536 0.08222 0.72148 0.0
C2305 C 0.37555 0.0967 0.72222 0.0
H2306 H 0.32866 0.06275 0.70936 0.0
H2307 H 0.52359 0.20663 0.72021 0.0
H2308 H 0.88685 0.38171 0.7019 0.0
H2309 H 0.87341 0.34792 0.69175 0.0
H2310 H 0.92569 0.34711 0.70659 0.0
H2311 H 0.93953 0.3812 0.7165 0.0
H2312 H 0.91381 0.33018 0.68253 0.0
H2313 H 0.88392 0.32487 0.72061 0.0
H2314 H 0.86563 0.33227 0.73587 0.0
H2315 H 0.81468 0.30936 0.70884 0.0
H2316 H 0.83278 0.30208 0.69335 0.0
H2317 H 0.87462 0.22538 0.6757 0.0
H2318 H 0.88932 0.26037 0.68396 0.0
H2319 H 0.83567 0.25976 0.67043 0.0
H2320 H 0.8207 0.22455 0.66242 0.0
H2321 H 0.84833 0.27769 0.69349 0.0
H2322 H 0.87808 0.28221 0.65547 0.0
H2323 H 0.89638 0.27448 0.64039 0.0
H2324 H 0.94759 0.2986 0.66732 0.0
H2325 H 0.92949 0.30622 0.68264 0.0
C2326 C 0.89567 0.37451 0.70282 0.0
C2327 C 0.91423 0.38411 0.71006 0.0
C2328 C 0.88788 0.35513 0.69711 0.0
C2329 C 0.89843 0.34492 0.69858 0.0
C2330 C 0.91728 0.3547 0.7054 0.0
C2331 C 0.92509 0.37411 0.71113 0.0
C2332 C 0.88944 0.32379 0.69339 0.0
C2333 C 0.8996 0.31864 0.68502 0.0
C2334 C 0.87072 0.30885 0.69647 0.0
C2335 C 0.85978 0.31313 0.70578 0.0
C2336 C 0.86887 0.32156 0.71789 0.0
C2337 C 0.85853 0.32571 0.72658 0.0
C2338 C 0.83903 0.32134 0.72331 0.0
C2339 C 0.8298 0.31276 0.71135 0.0
C2340 C 0.84009 0.30861 0.70261 0.0
C2341 C 0.86596 0.23272 0.6745 0.0
C2342 C 0.84654 0.22232 0.66842 0.0
C2343 C 0.87442 0.25274 0.67915 0.0
C2344 C 0.86369 0.26276 0.67766 0.0
C2345 C 0.84422 0.25233 0.67165 0.0
C2346 C 0.83572 0.23226 0.66706 0.0
C2347 C 0.87264 0.28404 0.68257 0.0
C2348 C 0.8625 0.28922 0.69093 0.0
C2349 C 0.89137 0.29898 0.67947 0.0
C2350 C 0.90237 0.29462 0.67024 0.0
C2351 C 0.8932 0.28574 0.65821 0.0
C2352 C 0.90354 0.2814 0.64961 0.0
C2353 C 0.92312 0.286 0.6529 0.0
C2354 C 0.93242 0.29502 0.66479 0.0
C2355 C 0.92213 0.29938 0.67343 0.0
H2356 H 0.93109 0.28261 0.64624 0.0
H2357 H 0.83104 0.32456 0.73006 0.0
H2358 H 0.18445 0.9711 0.59791 0.0
H2359 H 0.20848 0.00357 0.60897 0.0
H2360 H 0.21806 0.97431 0.63903 0.0
H2361 H 0.19366 0.94171 0.62806 0.0
H2362 H 0.2155 0.00464 0.64808 0.0
H2363 H 0.25263 0.99538 0.61783 0.0
H2364 H 0.25978 0.98782 0.59701 0.0
H2365 H 0.25767 0.03828 0.5845 0.0
H2366 H 0.25021 0.04598 0.60521 0.0
H2367 H 0.3158 0.1073 0.65683 0.0
H2368 H 0.29581 0.07272 0.64726 0.0
H2369 H 0.24202 0.0742 0.65264 0.0
H2370 H 0.26189 0.10852 0.6624 0.0
H2371 H 0.2703 0.05617 0.62717 0.0
H2372 H 0.20583 0.02934 0.65888 0.0
H2373 H 0.20111 0.03587 0.68058 0.0
H2374 H 0.26247 0.0555 0.69181 0.0
H2375 H 0.2675 0.04882 0.67022 0.0
C2376 C 0.19178 0.9716 0.60684 0.0
C2377 C 0.18729 0.95389 0.6121 0.0
C2378 C 0.20554 0.99015 0.61314 0.0
C2379 C 0.21536 0.99139 0.62473 0.0
C2380 C 0.21071 0.97372 0.63008 0.0
C2381 C 0.19676 0.95513 0.62383 0.0
C2382 C 0.23014 0.01117 0.63134 0.0
C2383 C 0.22752 0.01587 0.64352 0.0
C2384 C 0.24616 0.02569 0.62552 0.0
C2385 C 0.25071 0.02116 0.61306 0.0
C2386 C 0.25355 0.00478 0.61062 0.0
C2387 C 0.25768 0.00049 0.59884 0.0
C2388 C 0.25914 0.01254 0.58943 0.0
C2389 C 0.25652 0.02895 0.5918 0.0
C2390 C 0.25236 0.0333 0.60356 0.0
C2391 C 0.29971 0.10019 0.65597 0.0
C2392 C 0.29035 0.11047 0.66042 0.0
C2393 C 0.28832 0.08048 0.6505 0.0
C2394 C 0.26742 0.07077 0.64941 0.0
C2395 C 0.25811 0.08124 0.65362 0.0
C2396 C 0.26947 0.10087 0.65914 0.0
C2397 C 0.25525 0.04979 0.64374 0.0
C2398 C 0.25836 0.04488 0.63175 0.0
C2399 C 0.24002 0.03491 0.64985 0.0
C2400 C 0.23706 0.03873 0.6629 0.0
C2401 C 0.21829 0.03496 0.66599 0.0
C2402 C 0.21557 0.03871 0.67827 0.0
C2403 C 0.23149 0.04615 0.68756 0.0
C2404 C 0.25017 0.0498 0.6846 0.0
C2405 C 0.25296 0.04606 0.67234 0.0
H2406 H 0.22936 0.04905 0.69706 0.0
H2407 H 0.26234 0.00919 0.58032 0.0
H2408 H 0.03288 0.24876 0.60369 0.0
H2409 H 0.00316 0.24097 0.61417 0.0
H2410 H 0.9817 0.178 0.60629 0.0
H2411 H 0.01147 0.1857 0.59588 0.0
H2412 H 0.95227 0.19021 0.60138 0.0
H2413 H 0.00159 0.19675 0.63357 0.0
H2414 H 0.03457 0.21407 0.64574 0.0
H2415 H 0.02585 0.26296 0.657 0.0
H2416 H 0.99292 0.24604 0.64473 0.0
H2417 H 0.87521 0.15297 0.64029 0.0
H2418 H 0.9048 0.15993 0.63004 0.0
H2419 H 0.93436 0.22125 0.64634 0.0
H2420 H 0.90526 0.2138 0.65736 0.0
H2421 H 0.95992 0.20996 0.64661 0.0
H2422 H 0.91202 0.20554 0.61457 0.0
H2423 H 0.87828 0.18878 0.60351 0.0
H2424 H 0.88395 0.13802 0.59207 0.0
H2425 H 0.91775 0.15449 0.60317 0.0
C2426 C 0.02174 0.23327 0.60413 0.0
C2427 C 0.02445 0.21781 0.59904 0.0
C2428 C 0.00485 0.22885 0.61013 0.0
C2429 C 0.99034 0.20892 0.61101 0.0
C2430 C 0.99277 0.19346 0.60568 0.0
C2431 C 0.00979 0.19787 0.59983 0.0
C2432 C 0.97291 0.20424 0.61785 0.0
C2433 C 0.95387 0.19435 0.61128 0.0
C2434 C 0.97514 0.21009 0.6307 0.0
C2435 C 0.99489 0.22022 0.63812 0.0
C2436 C 0.00678 0.21127 0.63855 0.0
C2437 C 0.02545 0.221 0.64548 0.0
C2438 C 0.03232 0.23963 0.65211 0.0
C2439 C 0.02051 0.24855 0.65184 0.0
C2440 C 0.00184 0.23889 0.64491 0.0
C2441 C 0.88807 0.1679 0.64166 0.0
C2442 C 0.88802 0.18292 0.64948 0.0
C2443 C 0.90493 0.17193 0.63576 0.0
C2444 C 0.92167 0.19128 0.63712 0.0
C2445 C 0.92164 0.20623 0.64509 0.0
C2446 C 0.90502 0.20201 0.65134 0.0
C2447 C 0.93912 0.19599 0.63017 0.0
C2448 C 0.95822 0.20589 0.63669 0.0
C2449 C 0.93698 0.19047 0.61724 0.0
C2450 C 0.91738 0.18122 0.60971 0.0
C2451 C 0.90612 0.19087 0.60961 0.0
C2452 C 0.88698 0.18141 0.60331 0.0
C2453 C 0.879 0.16239 0.59697 0.0
C2454 C 0.89019 0.15282 0.5969 0.0
C2455 C 0.90938 0.16223 0.60315 0.0
H2456 H 0.86413 0.15503 0.59216 0.0
H2457 H 0.04678 0.24714 0.65747 0.0
H2458 H 0.78514 0.82042 0.62637 0.0
H2459 H 0.79787 0.80021 0.63521 0.0
H2460 H 0.74327 0.7465 0.62107 0.0
H2461 H 0.73025 0.7667 0.61234 0.0
H2462 H 0.75626 0.7458 0.64542 0.0
H2463 H 0.78296 0.75974 0.60619 0.0
H2464 H 0.80068 0.78114 0.59008 0.0
H2465 H 0.85393 0.81261 0.61541 0.0
H2466 H 0.83644 0.79158 0.63174 0.0
H2467 H 0.79283 0.67987 0.65571 0.0
H2468 H 0.77841 0.69802 0.6459 0.0
H2469 H 0.83369 0.75344 0.65582 0.0
H2470 H 0.8484 0.73521 0.66524 0.0
H2471 H 0.81931 0.75215 0.63289 0.0
H2472 H 0.79284 0.73955 0.67233 0.0
H2473 H 0.77544 0.71877 0.68876 0.0
H2474 H 0.72223 0.68558 0.66355 0.0
H2475 H 0.7394 0.706 0.6469 0.0
C2476 C 0.77574 0.80432 0.62526 0.0
C2477 C 0.75669 0.79513 0.61866 0.0
C2478 C 0.7831 0.7928 0.63022 0.0
C2479 C 0.77159 0.77188 0.62867 0.0
C2480 C 0.7524 0.76263 0.62232 0.0
C2481 C 0.74505 0.77417 0.61728 0.0
C2482 C 0.77974 0.75973 0.6336 0.0
C2483 C 0.76988 0.74693 0.64255 0.0
C2484 C 0.79774 0.7616 0.63005 0.0
C2485 C 0.80833 0.7742 0.62022 0.0
C2486 C 0.7984 0.77133 0.60836 0.0
C2487 C 0.80842 0.78338 0.59918 0.0
C2488 C 0.82841 0.79826 0.60173 0.0
C2489 C 0.83844 0.80109 0.61346 0.0
C2490 C 0.82849 0.7891 0.62267 0.0
C2491 C 0.80195 0.6959 0.65569 0.0
C2492 C 0.82173 0.70616 0.6612 0.0
C2493 C 0.79365 0.70627 0.65018 0.0
C2494 C 0.80488 0.72713 0.65028 0.0
C2495 C 0.82474 0.73735 0.65565 0.0
C2496 C 0.8331 0.72695 0.66107 0.0
C2497 C 0.79595 0.73832 0.64482 0.0
C2498 C 0.80565 0.75094 0.63574 0.0
C2499 C 0.77787 0.73638 0.64832 0.0
C2500 C 0.76747 0.72417 0.65834 0.0
C2501 C 0.77747 0.72773 0.67026 0.0
C2502 C 0.76764 0.71603 0.67962 0.0
C2503 C 0.74776 0.70083 0.67719 0.0
C2504 C 0.73764 0.69734 0.66541 0.0
C2505 C 0.74741 0.70898 0.65601 0.0
H2506 H 0.74017 0.69178 0.68445 0.0
H2507 H 0.83614 0.80757 0.59461 0.0
H2508 H 0.00775 0.78623 0.58551 0.0
H2509 H 0.97668 0.7641 0.59401 0.0
H2510 H 0.0091 0.77489 0.62997 0.0
H2511 H 0.04031 0.79646 0.62144 0.0
H2512 H 0.98184 0.73606 0.62462 0.0
H2513 H 0.98316 0.7987 0.62323 0.0
H2514 H 0.98548 0.8274 0.61323 0.0
H2515 H 0.9335 0.78785 0.58828 0.0
H2516 H 0.93103 0.75887 0.59802 0.0
H2517 H 0.90577 0.70711 0.66419 0.0
H2518 H 0.93502 0.72584 0.65328 0.0
H2519 H 0.89739 0.71082 0.61891 0.0
H2520 H 0.86789 0.69216 0.62979 0.0
H2521 H 0.92602 0.74994 0.62196 0.0
H2522 H 0.92345 0.6874 0.62431 0.0
H2523 H 0.92097 0.65884 0.63455 0.0
H2524 H 0.97518 0.69809 0.65778 0.0
H2525 H 0.97783 0.72696 0.64781 0.0
C2526 C 0.00831 0.7837 0.59519 0.0
C2527 C 0.02652 0.79318 0.60281 0.0
C2528 C 0.99051 0.7712 0.60006 0.0
C2529 C 0.99055 0.76805 0.61266 0.0
C2530 C 0.00872 0.77718 0.62023 0.0
C2531 C 0.02652 0.78964 0.61537 0.0
C2532 C 0.97165 0.75542 0.61803 0.0
C2533 C 0.96971 0.7392 0.62415 0.0
C2534 C 0.95561 0.7592 0.61711 0.0
C2535 C 0.95704 0.77661 0.61127 0.0
C2536 C 0.97232 0.79611 0.61555 0.0
C2537 C 0.97364 0.81243 0.60994 0.0
C2538 C 0.95968 0.80945 0.6001 0.0
C2539 C 0.94432 0.79014 0.59588 0.0
C2540 C 0.94295 0.77376 0.60145 0.0
C2541 C 0.90364 0.70773 0.6543 0.0
C2542 C 0.88445 0.69806 0.64786 0.0
C2543 C 0.92042 0.71839 0.64807 0.0
C2544 C 0.9184 0.71949 0.63526 0.0
C2545 C 0.89927 0.71009 0.6288 0.0
C2546 C 0.88243 0.6994 0.63504 0.0
C2547 C 0.93633 0.73075 0.6287 0.0
C2548 C 0.93809 0.74669 0.62235 0.0
C2549 C 0.9522 0.72672 0.62941 0.0
C2550 C 0.95075 0.70937 0.63537 0.0
C2551 C 0.93477 0.68997 0.63166 0.0
C2552 C 0.93334 0.67372 0.63741 0.0
C2553 C 0.94788 0.67665 0.64683 0.0
C2554 C 0.96391 0.69584 0.65049 0.0
C2555 C 0.9654 0.71215 0.64479 0.0
H2556 H 0.94675 0.66405 0.65127 0.0
H2557 H 0.96073 0.8221 0.59577 0.0
H2558 H 0.20455 0.23004 0.58348 0.0
H2559 H 0.22899 0.22247 0.59302 0.0
H2560 H 0.19109 0.19546 0.62174 0.0
H2561 H 0.16595 0.20173 0.61192 0.0
H2562 H 0.23505 0.22725 0.62904 0.0
H2563 H 0.19029 0.1649 0.60317 0.0
H2564 H 0.17254 0.14533 0.58317 0.0
H2565 H 0.22824 0.1669 0.56762 0.0
H2566 H 0.2463 0.18685 0.58749 0.0
H2567 H 0.27714 0.1803 0.66192 0.0
H2568 H 0.25498 0.18876 0.65038 0.0
H2569 H 0.28415 0.19087 0.61744 0.0
H2570 H 0.30577 0.18135 0.62886 0.0
H2571 H 0.24685 0.1742 0.61098 0.0
H2572 H 0.29258 0.23437 0.63571 0.0
H2573 H 0.31245 0.25626 0.65463 0.0
H2574 H 0.25884 0.24295 0.67096 0.0
H2575 H 0.23863 0.22074 0.6522 0.0
C2576 C 0.20116 0.22215 0.59169 0.0
C2577 C 0.18316 0.21652 0.59689 0.0
C2578 C 0.21526 0.21802 0.59718 0.0
C2579 C 0.21178 0.20848 0.60807 0.0
C2580 C 0.19403 0.20297 0.61336 0.0
C2581 C 0.17975 0.20672 0.60776 0.0
C2582 C 0.22672 0.2043 0.61402 0.0
C2583 C 0.23756 0.21555 0.6252 0.0
C2584 C 0.23048 0.18962 0.60867 0.0
C2585 C 0.21962 0.17756 0.59676 0.0
C2586 C 0.19874 0.16564 0.59544 0.0
C2587 C 0.18862 0.15444 0.58414 0.0
C2588 C 0.19925 0.15492 0.57411 0.0
C2589 C 0.22002 0.16657 0.57538 0.0
C2590 C 0.2302 0.17781 0.58666 0.0
C2591 C 0.27887 0.18261 0.65222 0.0
C2592 C 0.2933 0.18034 0.64632 0.0
C2593 C 0.26626 0.18757 0.64564 0.0
C2594 C 0.26819 0.19099 0.6331 0.0
C2595 C 0.28243 0.18844 0.62712 0.0
C2596 C 0.2948 0.18304 0.63366 0.0
C2597 C 0.25508 0.19688 0.62627 0.0
C2598 C 0.24458 0.18604 0.61487 0.0
C2599 C 0.252 0.21232 0.63128 0.0
C2600 C 0.26408 0.22575 0.64257 0.0
C2601 C 0.28502 0.236 0.64337 0.0
C2602 C 0.29634 0.24848 0.65406 0.0
C2603 C 0.28691 0.25096 0.664 0.0
C2604 C 0.26612 0.241 0.66326 0.0
C2605 C 0.25472 0.22848 0.65259 0.0
H2606 H 0.2957 0.26063 0.67228 0.0
H2607 H 0.19139 0.14624 0.56537 0.0
H2608 H 0.78723 0.9695 0.61175 0.0
H2609 H 0.7998 0.00291 0.62245 0.0
H2610 H 0.74882 0.97986 0.64335 0.0
H2611 H 0.73631 0.94623 0.63278 0.0
H2612 H 0.75877 0.01648 0.63121 0.0
H2613 H 0.7879 0.98911 0.65853 0.0
H2614 H 0.8068 0.97221 0.66356 0.0
H2615 H 0.85839 0.01896 0.64971 0.0
H2616 H 0.8397 0.03598 0.64441 0.0
H2617 H 0.79478 0.10676 0.66995 0.0
H2618 H 0.78028 0.07162 0.66207 0.0
H2619 H 0.83704 0.08414 0.6502 0.0
H2620 H 0.85188 0.11892 0.65909 0.0
H2621 H 0.82235 0.05118 0.65869 0.0
H2622 H 0.79393 0.07825 0.63037 0.0
H2623 H 0.77539 0.0952 0.6245 0.0
H2624 H 0.72321 0.04958 0.63846 0.0
H2625 H 0.7415 0.03255 0.64468 0.0
C2626 C 0.77873 0.97159 0.61862 0.0
C2627 C 0.76082 0.95538 0.62146 0.0
C2628 C 0.78593 0.9906 0.62474 0.0
C2629 C 0.77523 0.99375 0.63368 0.0
C2630 C 0.75725 0.97764 0.63647 0.0
C2631 C 0.7502 0.95851 0.6305 0.0
C2632 C 0.78286 0.01399 0.63999 0.0
C2633 C 0.77252 0.02406 0.63737 0.0
C2634 C 0.80103 0.02387 0.64773 0.0
C2635 C 0.81234 0.01372 0.65097 0.0
C2636 C 0.80322 0.99569 0.65645 0.0
C2637 C 0.81391 0.98611 0.65938 0.0
C2638 C 0.83377 0.99448 0.65693 0.0
C2639 C 0.843 0.01248 0.65159 0.0
C2640 C 0.83237 0.02211 0.64863 0.0
C2641 C 0.8041 0.10189 0.66569 0.0
C2642 C 0.82437 0.11537 0.66507 0.0
C2643 C 0.79579 0.08187 0.66108 0.0
C2644 C 0.80739 0.07521 0.65523 0.0
C2645 C 0.82773 0.08882 0.65466 0.0
C2646 C 0.8362 0.10868 0.65969 0.0
C2647 C 0.79849 0.05411 0.64978 0.0
C2648 C 0.80858 0.04377 0.65255 0.0
C2649 C 0.78021 0.04409 0.642 0.0
C2650 C 0.76915 0.05422 0.6381 0.0
C2651 C 0.77854 0.07188 0.63225 0.0
C2652 C 0.76808 0.08151 0.62886 0.0
C2653 C 0.74817 0.07349 0.63111 0.0
C2654 C 0.73865 0.05579 0.63674 0.0
C2655 C 0.74905 0.04615 0.6402 0.0
H2656 H 0.74012 0.08098 0.62847 0.0
H2657 H 0.84202 0.98704 0.6592 0.0
H2658 H 0.44822 0.37772 0.72369 0.0
H2659 H 0.42492 0.34456 0.71304 0.0
H2660 H 0.47428 0.33909 0.70157 0.0
H2661 H 0.49762 0.37215 0.71219 0.0
H2662 H 0.44495 0.32587 0.68293 0.0
H2663 H 0.45025 0.31649 0.72622 0.0
H2664 H 0.44861 0.32262 0.74856 0.0
H2665 H 0.38665 0.30424 0.74147 0.0
H2666 H 0.388 0.29826 0.71905 0.0
H2667 H 0.40223 0.22185 0.66933 0.0
H2668 H 0.42192 0.25641 0.67873 0.0
H2669 H 0.36807 0.25583 0.68694 0.0
H2670 H 0.34823 0.22113 0.67751 0.0
H2671 H 0.39726 0.27269 0.70665 0.0
H2672 H 0.39151 0.27974 0.66342 0.0
H2673 H 0.39329 0.27322 0.64116 0.0
H2674 H 0.45614 0.29572 0.64814 0.0
H2675 H 0.4547 0.30211 0.67049 0.0
C2676 C 0.4541 0.36942 0.71891 0.0
C2677 C 0.47477 0.37753 0.71883 0.0
C2678 C 0.44077 0.3505 0.71282 0.0
C2679 C 0.44788 0.33926 0.70664 0.0
C2680 C 0.46848 0.34752 0.70627 0.0
C2681 C 0.4818 0.36645 0.71232 0.0
C2682 C 0.43395 0.31871 0.70075 0.0
C2683 C 0.43465 0.3142 0.68814 0.0
C2684 C 0.42013 0.30362 0.70747 0.0
C2685 C 0.41929 0.30715 0.72095 0.0
C2686 C 0.43632 0.31391 0.72941 0.0
C2687 C 0.43543 0.31733 0.74209 0.0
C2688 C 0.41755 0.31388 0.74643 0.0
C2689 C 0.4005 0.30694 0.7381 0.0
C2690 C 0.40131 0.30353 0.72541 0.0
C2691 C 0.39459 0.22909 0.67313 0.0
C2692 C 0.37373 0.21888 0.67267 0.0
C2693 C 0.40584 0.24884 0.67846 0.0
C2694 C 0.39643 0.25875 0.68339 0.0
C2695 C 0.3756 0.24846 0.68314 0.0
C2696 C 0.36431 0.22868 0.67776 0.0
C2697 C 0.40849 0.2798 0.68889 0.0
C2698 C 0.40743 0.28441 0.70141 0.0
C2699 C 0.422 0.29498 0.6821 0.0
C2700 C 0.42296 0.29125 0.66865 0.0
C2701 C 0.40569 0.28315 0.66022 0.0
C2702 C 0.40664 0.27951 0.64759 0.0
C2703 C 0.42481 0.28401 0.64324 0.0
C2704 C 0.44208 0.29222 0.65152 0.0
C2705 C 0.4412 0.29588 0.66418 0.0
H2706 H 0.42551 0.28118 0.63345 0.0
H2707 H 0.41689 0.31653 0.75624 0.0
H2708 H 0.63661 0.12773 0.71836 0.0
H2709 H 0.666 0.13415 0.70808 0.0
H2710 H 0.68284 0.10689 0.73625 0.0
H2711 H 0.65301 0.09951 0.74631 0.0
H2712 H 0.71396 0.1458 0.73104 0.0
H2713 H 0.66546 0.08142 0.71014 0.0
H2714 H 0.6333 0.05699 0.69842 0.0
H2715 H 0.64638 0.09456 0.6688 0.0
H2716 H 0.67851 0.11936 0.68044 0.0
H2717 H 0.79451 0.14853 0.70221 0.0
H2718 H 0.76459 0.13853 0.7128 0.0
H2719 H 0.73584 0.14698 0.68026 0.0
H2720 H 0.76519 0.15532 0.66937 0.0
H2721 H 0.71033 0.11637 0.68844 0.0
H2722 H 0.75808 0.18148 0.70897 0.0
H2723 H 0.78994 0.20692 0.72058 0.0
H2724 H 0.77816 0.17043 0.7507 0.0
H2725 H 0.74646 0.14457 0.73916 0.0
C2726 C 0.64631 0.12272 0.72227 0.0
C2727 C 0.64237 0.11309 0.7332 0.0
C2728 C 0.66318 0.12655 0.71642 0.0
C2729 C 0.67654 0.121 0.72143 0.0
C2730 C 0.67273 0.11139 0.7323 0.0
C2731 C 0.65572 0.10729 0.73806 0.0
C2732 C 0.69467 0.12553 0.71541 0.0
C2733 C 0.71328 0.13923 0.72178 0.0
C2734 C 0.69359 0.11727 0.70325 0.0
C2735 C 0.67431 0.10234 0.69622 0.0
C2736 C 0.6614 0.08456 0.70118 0.0
C2737 C 0.6432 0.07063 0.69454 0.0
C2738 C 0.63778 0.07425 0.68288 0.0
C2739 C 0.65058 0.09179 0.67783 0.0
C2740 C 0.6688 0.10578 0.68444 0.0
C2741 C 0.78175 0.14822 0.69736 0.0
C2742 C 0.78207 0.15272 0.68502 0.0
C2743 C 0.76471 0.14266 0.70344 0.0
C2744 C 0.74801 0.14242 0.69747 0.0
C2745 C 0.74845 0.14701 0.68511 0.0
C2746 C 0.76523 0.15186 0.67889 0.0
C2747 C 0.72993 0.13707 0.70393 0.0
C2748 C 0.71121 0.12309 0.69769 0.0
C2749 C 0.73094 0.14536 0.71616 0.0
C2750 C 0.74997 0.161 0.72314 0.0
C2751 C 0.76235 0.17882 0.71803 0.0
C2752 C 0.7804 0.19331 0.7246 0.0
C2753 C 0.7861 0.19026 0.73635 0.0
C2754 C 0.77376 0.17274 0.74158 0.0
C2755 C 0.75576 0.15816 0.73502 0.0
H2756 H 0.80008 0.20148 0.74143 0.0
H2757 H 0.62368 0.06344 0.67776 0.0
H2758 H 0.88032 0.52333 0.72748 0.0
H2759 H 0.86655 0.54229 0.71782 0.0
H2760 H 0.92154 0.57721 0.70184 0.0
H2761 H 0.93521 0.55787 0.71121 0.0
H2762 H 0.89961 0.5974 0.71667 0.0
H2763 H 0.89414 0.55035 0.68226 0.0
H2764 H 0.88412 0.51644 0.67303 0.0
H2765 H 0.82356 0.49621 0.67994 0.0
H2766 H 0.83331 0.52997 0.68941 0.0
H2767 H 0.87241 0.64744 0.6743 0.0
H2768 H 0.88647 0.62993 0.68524 0.0
H2769 H 0.82755 0.57868 0.68479 0.0
H2770 H 0.81353 0.59597 0.6734 0.0
H2771 H 0.85137 0.56642 0.67891 0.0
H2772 H 0.85361 0.60998 0.71269 0.0
H2773 H 0.86074 0.64169 0.72403 0.0
H2774 H 0.92308 0.6667 0.72031 0.0
H2775 H 0.91636 0.63496 0.70911 0.0
C2776 C 0.88947 0.53513 0.72196 0.0
C2777 C 0.90878 0.53921 0.72005 0.0
C2778 C 0.88162 0.54589 0.71646 0.0
C2779 C 0.89309 0.56108 0.70918 0.0
C2780 C 0.91255 0.56553 0.70748 0.0
C2781 C 0.92027 0.55447 0.71276 0.0
C2782 C 0.88442 0.57185 0.70301 0.0
C2783 C 0.88929 0.59084 0.7083 0.0
C2784 C 0.87038 0.56282 0.69244 0.0
C2785 C 0.8645 0.5426 0.68667 0.0
C2786 C 0.87873 0.53862 0.68193 0.0
C2787 C 0.87309 0.51944 0.67663 0.0
C2788 C 0.85323 0.50416 0.67593 0.0
C2789 C 0.83895 0.50805 0.68051 0.0
C2790 C 0.84452 0.5272 0.68584 0.0
C2791 C 0.86247 0.63247 0.67659 0.0
C2792 C 0.84192 0.623 0.67302 0.0
C2793 C 0.87049 0.62252 0.68292 0.0
C2794 C 0.85805 0.60307 0.68602 0.0
C2795 C 0.83745 0.59366 0.68251 0.0
C2796 C 0.82945 0.60353 0.67602 0.0
C2797 C 0.86665 0.59229 0.69244 0.0
C2798 C 0.86172 0.57317 0.68724 0.0
C2799 C 0.88029 0.60104 0.70328 0.0
C2800 C 0.88446 0.62018 0.70996 0.0
C2801 C 0.86882 0.62229 0.71423 0.0
C2802 C 0.87279 0.64025 0.72064 0.0
C2803 C 0.89231 0.65629 0.72278 0.0
C2804 C 0.90795 0.6543 0.71861 0.0
C2805 C 0.90409 0.63628 0.7123 0.0
H2806 H 0.89531 0.67021 0.72771 0.0
H2807 H 0.84889 0.48933 0.67182 0.0
H2808 H 0.4618 0.91276 0.16842 0.0
H2809 H 0.46785 0.92389 0.14774 0.0
H2810 H 0.46304 0.97534 0.15948 0.0
H2811 H 0.45676 0.96412 0.18021 0.0
H2812 H 0.44433 0.95982 0.13684 0.0
H2813 H 0.50843 0.97951 0.15711 0.0
H2814 H 0.53399 0.97536 0.16893 0.0
H2815 H 0.52886 0.9325 0.13987 0.0
H2816 H 0.50304 0.93617 0.12794 0.0
H2817 H 0.49291 0.0166 0.08743 0.0
H2818 H 0.48294 0.00425 0.10749 0.0
H2819 H 0.48397 0.95062 0.09589 0.0
H2820 H 0.49451 0.96313 0.07595 0.0
H2821 H 0.50445 0.96778 0.11852 0.0
H2822 H 0.4399 0.94971 0.09815 0.0
H2823 H 0.41546 0.95607 0.08682 0.0
H2824 H 0.42327 0.99896 0.11669 0.0
H2825 H 0.44794 0.99307 0.12814 0.0
C2826 C 0.46211 0.92649 0.16661 0.0
C2827 C 0.45899 0.93767 0.17595 0.0
C2828 C 0.46556 0.93283 0.15479 0.0
C2829 C 0.46622 0.95062 0.15212 0.0
C2830 C 0.46262 0.96158 0.16134 0.0
C2831 C 0.45903 0.95515 0.17317 0.0
C2832 C 0.47093 0.95787 0.13975 0.0
C2833 C 0.45759 0.96179 0.13289 0.0
C2834 C 0.48813 0.96023 0.13454 0.0
C2835 C 0.50365 0.95796 0.14169 0.0
C2836 C 0.51263 0.96907 0.15328 0.0
C2837 C 0.52719 0.96683 0.16 0.0
C2838 C 0.53301 0.95364 0.15517 0.0
C2839 C 0.52432 0.94269 0.1436 0.0
C2840 C 0.50973 0.94485 0.13686 0.0
C2841 C 0.49103 0.00218 0.08916 0.0
C2842 C 0.49461 0.99089 0.08013 0.0
C2843 C 0.48512 0.99506 0.10057 0.0
C2844 C 0.48259 0.97646 0.10314 0.0
C2845 C 0.48581 0.965 0.09407 0.0
C2846 C 0.4917 0.97211 0.08266 0.0
C2847 C 0.47773 0.96948 0.11555 0.0
C2848 C 0.49113 0.96571 0.12245 0.0
C2849 C 0.46076 0.96757 0.12084 0.0
C2850 C 0.44591 0.97108 0.11395 0.0
C2851 C 0.43654 0.96062 0.10225 0.0
C2852 C 0.42262 0.96411 0.09582 0.0
C2853 C 0.41787 0.97794 0.10101 0.0
C2854 C 0.42698 0.98827 0.11267 0.0
C2855 C 0.44091 0.98485 0.11914 0.0
H2856 H 0.40709 0.98061 0.09601 0.0
H2857 H 0.54429 0.95193 0.16038 0.0
H2858 H 0.00492 0.51226 0.19121 0.0
H2859 H 0.99797 0.51004 0.1687 0.0
H2860 H 0.04583 0.49825 0.16339 0.0
H2861 H 0.0531 0.50083 0.18589 0.0
H2862 H 0.04757 0.52722 0.14964 0.0
H2863 H 0.9984 0.46117 0.15725 0.0
H2864 H 0.9705 0.43601 0.16743 0.0
H2865 H 0.93358 0.45931 0.15459 0.0
H2866 H 0.96136 0.48481 0.14447 0.0
H2867 H 0.02675 0.50621 0.08444 0.0
H2868 H 0.03186 0.50257 0.10633 0.0
H2869 H 0.9818 0.50979 0.11372 0.0
H2870 H 0.9759 0.51233 0.09175 0.0
H2871 H 0.98148 0.48163 0.12631 0.0
H2872 H 0.03058 0.54874 0.11992 0.0
H2873 H 0.05828 0.57453 0.10993 0.0
H2874 H 0.09511 0.5501 0.12077 0.0
H2875 H 0.06752 0.52399 0.1307 0.0
C2876 C 0.01393 0.50917 0.18524 0.0
C2877 C 0.02954 0.5067 0.19031 0.0
C2878 C 0.00985 0.50775 0.17239 0.0
C2879 C 0.02129 0.50383 0.16438 0.0
C2880 C 0.03678 0.50122 0.16942 0.0
C2881 C 0.04081 0.50254 0.18226 0.0
C2882 C 0.01766 0.50334 0.15078 0.0
C2883 C 0.03322 0.51702 0.14449 0.0
C2884 C 0.99879 0.49037 0.14415 0.0
C2885 C 0.98203 0.47502 0.1502 0.0
C2886 C 0.98439 0.46103 0.15668 0.0
C2887 C 0.96858 0.44669 0.16242 0.0
C2888 C 0.9503 0.44609 0.16168 0.0
C2889 C 0.94776 0.4598 0.15517 0.0
C2890 C 0.96353 0.47419 0.14942 0.0
C2891 C 0.01662 0.5067 0.09067 0.0
C2892 C 0.001 0.50972 0.08633 0.0
C2893 C 0.0197 0.50484 0.10322 0.0
C2894 C 0.00743 0.50626 0.11171 0.0
C2895 C 0.99153 0.50876 0.10736 0.0
C2896 C 0.98833 0.51044 0.0948 0.0
C2897 C 0.01137 0.5056 0.12517 0.0
C2898 C 0.99587 0.49173 0.13144 0.0
C2899 C 0.03027 0.5185 0.13181 0.0
C2900 C 0.04692 0.53429 0.12594 0.0
C2901 C 0.04454 0.54879 0.1201 0.0
C2902 C 0.06023 0.56347 0.11446 0.0
C2903 C 0.07843 0.56392 0.11468 0.0
C2904 C 0.081 0.54972 0.12059 0.0
C2905 C 0.06535 0.53498 0.12623 0.0
H2906 H 0.09055 0.5753 0.11031 0.0
H2907 H 0.93808 0.43497 0.16613 0.0
H2908 H 0.4753 0.54011 0.18344 0.0
H2909 H 0.48023 0.5363 0.16165 0.0
H2910 H 0.4726 0.47807 0.16601 0.0
H2911 H 0.46778 0.48186 0.18795 0.0
H2912 H 0.50558 0.50225 0.15351 0.0
H2913 H 0.43599 0.48009 0.15115 0.0
H2914 H 0.40622 0.48205 0.15543 0.0
H2915 H 0.42786 0.53566 0.13727 0.0
H2916 H 0.45793 0.53419 0.13305 0.0
H2917 H 0.50444 0.48208 0.08851 0.0
H2918 H 0.49504 0.4792 0.10973 0.0
H2919 H 0.49377 0.53416 0.10941 0.0
H2920 H 0.50286 0.53694 0.08816 0.0
H2921 H 0.46301 0.50767 0.1198 0.0
H2922 H 0.53365 0.532 0.12391 0.0
H2923 H 0.56418 0.53125 0.11998 0.0
H2924 H 0.54136 0.47494 0.13513 0.0
H2925 H 0.51056 0.47523 0.13899 0.0
C2926 C 0.47478 0.52654 0.17978 0.0
C2927 C 0.47121 0.51129 0.18739 0.0
C2928 C 0.47744 0.52432 0.16731 0.0
C2929 C 0.4766 0.50684 0.16221 0.0
C2930 C 0.47321 0.49164 0.16979 0.0
C2931 C 0.47037 0.49377 0.18227 0.0
C2932 C 0.47962 0.50474 0.149 0.0
C2933 C 0.49607 0.50305 0.14609 0.0
C2934 C 0.46742 0.50621 0.1394 0.0
C2935 C 0.4493 0.50711 0.14187 0.0
C2936 C 0.43449 0.49238 0.14816 0.0
C2937 C 0.41754 0.49339 0.15056 0.0
C2938 C 0.41517 0.50899 0.14665 0.0
C2939 C 0.42973 0.52359 0.1403 0.0
C2940 C 0.44672 0.52266 0.13789 0.0
C2941 C 0.50219 0.49356 0.093 0.0
C2942 C 0.50446 0.50978 0.08671 0.0
C2943 C 0.49683 0.4919 0.10511 0.0
C2944 C 0.49396 0.50661 0.11122 0.0
C2945 C 0.49587 0.52262 0.10488 0.0
C2946 C 0.50105 0.52418 0.09273 0.0
C2947 C 0.48922 0.50556 0.12429 0.0
C2948 C 0.47242 0.50666 0.12718 0.0
C2949 C 0.50119 0.50369 0.13389 0.0
C2950 C 0.51972 0.50353 0.13161 0.0
C2951 C 0.53508 0.51938 0.12631 0.0
C2952 C 0.55244 0.51905 0.12411 0.0
C2953 C 0.55468 0.50303 0.12727 0.0
C2954 C 0.53959 0.48732 0.13266 0.0
C2955 C 0.52218 0.48757 0.13487 0.0
H2956 H 0.56814 0.5028 0.12556 0.0
H2957 H 0.40203 0.50975 0.14851 0.0
H2958 H 0.93793 0.4543 0.81321 0.0
H2959 H 0.94379 0.4566 0.8358 0.0
H2960 H 0.99341 0.51647 0.83613 0.0
H2961 H 0.98777 0.51417 0.81347 0.0
H2962 H 0.0019 0.49281 0.85067 0.0
H2963 H 0.95121 0.51052 0.84507 0.0
H2964 H 0.91905 0.50615 0.83648 0.0
H2965 H 0.88791 0.45126 0.85307 0.0
H2966 H 0.9199 0.45515 0.86162 0.0
H2967 H 0.01481 0.51453 0.9159 0.0
H2968 H 0.00904 0.51619 0.8937 0.0
H2969 H 0.95481 0.45907 0.89117 0.0
H2970 H 0.96032 0.45759 0.91343 0.0
H2971 H 0.94926 0.48328 0.8777 0.0
H2972 H 0.99911 0.46401 0.88224 0.0
H2973 H 0.0309 0.46724 0.89056 0.0
H2974 H 0.0632 0.52355 0.87566 0.0
H2975 H 0.03156 0.52079 0.86739 0.0
C2976 C 0.95018 0.4679 0.81809 0.0
C2977 C 0.96241 0.48406 0.81159 0.0
C2978 C 0.9534 0.46925 0.83099 0.0
C2979 C 0.96891 0.48678 0.83762 0.0
C2980 C 0.98131 0.50285 0.83116 0.0
C2981 C 0.97801 0.50156 0.81826 0.0
C2982 C 0.97229 0.48815 0.85129 0.0
C2983 C 0.99054 0.49106 0.85662 0.0
C2984 C 0.95725 0.48537 0.85897 0.0
C2985 C 0.93797 0.48304 0.85389 0.0
C2986 C 0.93751 0.49743 0.84681 0.0
C2987 C 0.91931 0.49506 0.84196 0.0
C2988 C 0.90145 0.47841 0.8442 0.0
C2989 C 0.90175 0.46413 0.85133 0.0
C2990 C 0.91992 0.46643 0.85619 0.0
C2991 C 0.00164 0.50236 0.91059 0.0
C2992 C 0.98807 0.48587 0.91634 0.0
C2993 C 0.99838 0.5033 0.89792 0.0
C2994 C 0.98168 0.48758 0.89073 0.0
C2995 C 0.96781 0.47136 0.89653 0.0
C2996 C 0.97095 0.47053 0.90924 0.0
C2997 C 0.97885 0.48778 0.87711 0.0
C2998 C 0.9607 0.48515 0.87178 0.0
C2999 C 0.99393 0.49065 0.86941 0.0
C3000 C 0.01297 0.49229 0.87431 0.0
C3001 C 0.01299 0.47715 0.88082 0.0
C3002 C 0.03098 0.47889 0.88551 0.0
C3003 C 0.04906 0.49561 0.88367 0.0
C3004 C 0.04918 0.51062 0.8771 0.0
C3005 C 0.03123 0.50897 0.8724 0.0
H3006 H 0.06297 0.49693 0.88731 0.0
H3007 H 0.88737 0.4766 0.84044 0.0
H3008 H 0.54019 0.51329 0.81886 0.0
H3009 H 0.53451 0.51628 0.84064 0.0
H3010 H 0.5215 0.45581 0.84353 0.0
H3011 H 0.52699 0.45271 0.8218 0.0
H3012 H 0.49415 0.46145 0.85303 0.0
H3013 H 0.56564 0.49673 0.85673 0.0
H3014 H 0.59913 0.52219 0.85225 0.0
H3015 H 0.58778 0.56877 0.86486 0.0
H3016 H 0.55409 0.54357 0.86925 0.0
H3017 H 0.49652 0.46019 0.91806 0.0
H3018 H 0.50589 0.46063 0.89692 0.0
H3019 H 0.51091 0.51828 0.89476 0.0
H3020 H 0.5017 0.51802 0.91598 0.0
H3021 H 0.54225 0.51526 0.885 0.0
H3022 H 0.47073 0.47953 0.88138 0.0
H3023 H 0.43758 0.45381 0.8862 0.0
H3024 H 0.44961 0.4077 0.8736 0.0
H3025 H 0.48297 0.43317 0.86886 0.0
C3026 C 0.53635 0.50074 0.8242 0.0
C3027 C 0.53394 0.48274 0.81862 0.0
C3028 C 0.53312 0.50246 0.83664 0.0
C3029 C 0.52769 0.4863 0.84374 0.0
C3030 C 0.52559 0.46844 0.83822 0.0
C3031 C 0.52868 0.46667 0.8258 0.0
C3032 C 0.52335 0.48759 0.85678 0.0
C3033 C 0.5048 0.47308 0.86004 0.0
C3034 C 0.53702 0.50307 0.86586 0.0
C3035 C 0.55725 0.51825 0.86319 0.0
C3036 C 0.57021 0.5124 0.85844 0.0
C3037 C 0.58925 0.52678 0.85594 0.0
C3038 C 0.59556 0.54708 0.85824 0.0
C3039 C 0.58286 0.55304 0.86307 0.0
C3040 C 0.56379 0.53871 0.86557 0.0
C3041 C 0.49985 0.47306 0.91313 0.0
C3042 C 0.49829 0.48903 0.91863 0.0
C3043 C 0.50509 0.47325 0.90105 0.0
C3044 C 0.50891 0.48941 0.89427 0.0
C3045 C 0.50796 0.50566 0.89985 0.0
C3046 C 0.50256 0.50542 0.91191 0.0
C3047 C 0.51322 0.48898 0.8812 0.0
C3048 C 0.53167 0.50367 0.87794 0.0
C3049 C 0.49952 0.47363 0.87211 0.0
C3050 C 0.47942 0.45827 0.87488 0.0
C3051 C 0.46637 0.46391 0.87973 0.0
C3052 C 0.44753 0.44937 0.88243 0.0
C3053 C 0.44151 0.42913 0.88024 0.0
C3054 C 0.4543 0.42338 0.87531 0.0
C3055 C 0.47317 0.43786 0.8726 0.0
H3056 H 0.42692 0.4179 0.88233 0.0
H3057 H 0.61031 0.5582 0.8563 0.0
H3058 H 0.54622 0.09799 0.83508 0.0
H3059 H 0.54027 0.08582 0.85553 0.0
H3060 H 0.55562 0.04121 0.84451 0.0
H3061 H 0.56103 0.05294 0.82391 0.0
H3062 H 0.52132 0.02515 0.85476 0.0
H3063 H 0.58669 0.081 0.86534 0.0
H3064 H 0.61362 0.11611 0.86648 0.0
H3065 H 0.57968 0.13444 0.88781 0.0
H3066 H 0.55241 0.09946 0.88666 0.0
H3067 H 0.51496 0.99221 0.91475 0.0
H3068 H 0.5289 0.00663 0.89581 0.0
H3069 H 0.5134 0.05228 0.90292 0.0
H3070 H 0.49942 0.03789 0.92185 0.0
H3071 H 0.55042 0.06745 0.89495 0.0
H3072 H 0.48406 0.01212 0.88262 0.0
H3073 H 0.457 0.97705 0.88146 0.0
H3074 H 0.49309 0.95793 0.86327 0.0
H3075 H 0.52048 0.9929 0.86448 0.0
C3076 C 0.54837 0.08562 0.83703 0.0
C3077 C 0.55403 0.07638 0.82787 0.0
C3078 C 0.54517 0.07882 0.84875 0.0
C3079 C 0.54767 0.06272 0.85157 0.0
C3080 C 0.55369 0.05371 0.84253 0.0
C3081 C 0.55691 0.06052 0.8308 0.0
C3082 C 0.54267 0.05445 0.86364 0.0
C3083 C 0.52798 0.03431 0.86355 0.0
C3084 C 0.55104 0.06653 0.8751 0.0
C3085 C 0.56742 0.08761 0.87582 0.0
C3086 C 0.58489 0.09253 0.87019 0.0
C3087 C 0.60023 0.11241 0.87085 0.0
C3088 C 0.59834 0.1275 0.87719 0.0
C3089 C 0.58112 0.12274 0.8829 0.0
C3090 C 0.56572 0.10288 0.88225 0.0
C3091 C 0.51451 0.0053 0.91224 0.0
C3092 C 0.50602 0.01388 0.9197 0.0
C3093 C 0.52252 0.01354 0.90147 0.0
C3094 C 0.52198 0.03038 0.89791 0.0
C3095 C 0.51398 0.03929 0.90552 0.0
C3096 C 0.50601 0.03107 0.91631 0.0
C3097 C 0.52898 0.03826 0.88601 0.0
C3098 C 0.54397 0.05829 0.88614 0.0
C3099 C 0.52089 0.0261 0.87457 0.0
C3100 C 0.50439 0.00509 0.87377 0.0
C3101 C 0.48628 0.00042 0.87846 0.0
C3102 C 0.47088 0.98057 0.87778 0.0
C3103 C 0.47334 0.96527 0.87233 0.0
C3104 C 0.49121 0.9698 0.86751 0.0
C3105 C 0.50668 0.98963 0.86819 0.0
H3106 H 0.4614 0.94991 0.87181 0.0
H3107 H 0.61024 0.14288 0.87769 0.0
H3108 H 0.15763 0.2979 0.51486 0.0
H3109 H 0.16292 0.3107 0.49462 0.0
H3110 H 0.09955 0.27739 0.48386 0.0
H3111 H 0.09418 0.26387 0.50398 0.0
H3112 H 0.11906 0.27266 0.46599 0.0
H3113 H 0.12401 0.32829 0.49028 0.0
H3114 H 0.13547 0.35419 0.508 0.0
H3115 H 0.19571 0.37929 0.49894 0.0
H3116 H 0.18466 0.35336 0.48127 0.0
H3117 H 0.13577 0.31642 0.40916 0.0
H3118 H 0.12346 0.3077 0.42933 0.0
H3119 H 0.1839 0.3378 0.44679 0.0
H3120 H 0.19629 0.34768 0.42681 0.0
H3121 H 0.16111 0.34465 0.46091 0.0
H3122 H 0.1558 0.28546 0.43844 0.0
H3123 H 0.14381 0.25964 0.42059 0.0
H3124 H 0.08327 0.2417 0.42624 0.0
H3125 H 0.09489 0.26748 0.44406 0.0
C3126 C 0.1448 0.29322 0.50818 0.0
C3127 C 0.12549 0.2798 0.51102 0.0
C3128 C 0.14783 0.30075 0.49666 0.0
C3129 C 0.1316 0.29521 0.48778 0.0
C3130 C 0.11227 0.28195 0.4906 0.0
C3131 C 0.10923 0.27435 0.50213 0.0
C3132 C 0.13504 0.30253 0.47535 0.0
C3133 C 0.12792 0.28844 0.46486 0.0
C3134 C 0.14677 0.32309 0.47388 0.0
C3135 C 0.1535 0.33878 0.48449 0.0
C3136 C 0.13972 0.33924 0.49211 0.0
C3137 C 0.14615 0.35394 0.50214 0.0
C3138 C 0.16631 0.36835 0.5046 0.0
C3139 C 0.1801 0.36811 0.49702 0.0
C3140 C 0.17375 0.35343 0.48699 0.0
C3141 C 0.14645 0.32156 0.41731 0.0
C3142 C 0.16706 0.33262 0.41632 0.0
C3143 C 0.13938 0.31634 0.42883 0.0
C3144 C 0.15276 0.32175 0.43954 0.0
C3145 C 0.17328 0.33335 0.43864 0.0
C3146 C 0.18036 0.33878 0.42717 0.0
C3147 C 0.14563 0.31476 0.45164 0.0
C3148 C 0.15202 0.32891 0.46205 0.0
C3149 C 0.13318 0.29426 0.45304 0.0
C3150 C 0.12621 0.27849 0.4425 0.0
C3151 C 0.13993 0.27603 0.43584 0.0
C3152 C 0.13319 0.2614 0.42574 0.0
C3153 C 0.11278 0.24905 0.42227 0.0
C3154 C 0.09906 0.25125 0.42893 0.0
C3155 C 0.10571 0.26585 0.43904 0.0
H3156 H 0.10758 0.23775 0.41443 0.0
H3157 H 0.17126 0.37972 0.51237 0.0
H3158 H 0.68792 0.81589 0.52086 0.0
H3159 H 0.68219 0.81397 0.49824 0.0
H3160 H 0.72332 0.87729 0.49962 0.0
H3161 H 0.72919 0.87929 0.52213 0.0
H3162 H 0.68903 0.86646 0.4857 0.0
H3163 H 0.73616 0.84327 0.48946 0.0
H3164 H 0.74858 0.8214 0.49645 0.0
H3165 H 0.69708 0.77025 0.47694 0.0
H3166 H 0.68422 0.79179 0.46996 0.0
H3167 H 0.70374 0.87994 0.42322 0.0
H3168 H 0.70954 0.87771 0.44531 0.0
H3169 H 0.66797 0.81427 0.44 0.0
H3170 H 0.66222 0.8164 0.41783 0.0
H3171 H 0.70019 0.82292 0.45581 0.0
H3172 H 0.65339 0.8457 0.45155 0.0
H3173 H 0.64049 0.86715 0.4445 0.0
H3174 H 0.69044 0.91843 0.46511 0.0
H3175 H 0.7038 0.89733 0.47215 0.0
C3176 C 0.6959 0.82934 0.51632 0.0
C3177 C 0.7089 0.84776 0.52329 0.0
C3178 C 0.69261 0.82822 0.5034 0.0
C3179 C 0.70238 0.84549 0.49726 0.0
C3180 C 0.71554 0.86381 0.50419 0.0
C3181 C 0.71881 0.86494 0.51706 0.0
C3182 C 0.69853 0.84476 0.48365 0.0
C3183 C 0.69169 0.85711 0.47916 0.0
C3184 C 0.70137 0.83206 0.47514 0.0
C3185 C 0.70913 0.81912 0.4793 0.0
C3186 C 0.7274 0.82734 0.48674 0.0
C3187 C 0.73454 0.81501 0.49069 0.0
C3188 C 0.72359 0.79444 0.48717 0.0
C3189 C 0.70552 0.78617 0.47967 0.0
C3190 C 0.69831 0.79844 0.47571 0.0
C3191 C 0.69585 0.86552 0.42677 0.0
C3192 C 0.68235 0.84838 0.41886 0.0
C3193 C 0.69919 0.86425 0.43937 0.0
C3194 C 0.6889 0.84588 0.44433 0.0
C3195 C 0.67601 0.8286 0.43637 0.0
C3196 C 0.67276 0.82983 0.42372 0.0
C3197 C 0.69111 0.84495 0.45789 0.0
C3198 C 0.69749 0.83223 0.46236 0.0
C3199 C 0.68775 0.85723 0.46642 0.0
C3200 C 0.67968 0.86995 0.46229 0.0
C3201 C 0.66169 0.86157 0.45451 0.0
C3202 C 0.65429 0.87367 0.45053 0.0
C3203 C 0.66466 0.89415 0.45433 0.0
C3204 C 0.68243 0.90257 0.46216 0.0
C3205 C 0.68992 0.89054 0.46616 0.0
H3206 H 0.65891 0.90349 0.45124 0.0
H3207 H 0.72914 0.78492 0.49024 0.0
H3208 H 0.10225 0.83797 0.50732 0.0
H3209 H 0.10885 0.83712 0.48558 0.0
H3210 H 0.16808 0.84893 0.49718 0.0
H3211 H 0.16156 0.84968 0.51888 0.0
H3212 H 0.16858 0.87422 0.48109 0.0
H3213 H 0.13236 0.80329 0.48362 0.0
H3214 H 0.10386 0.77133 0.48791 0.0
H3215 H 0.06574 0.77809 0.46076 0.0
H3216 H 0.09399 0.81024 0.45638 0.0
H3217 H 0.20084 0.85836 0.42473 0.0
H3218 H 0.19007 0.85566 0.44553 0.0
H3219 H 0.13214 0.8436 0.43035 0.0
H3220 H 0.14286 0.84626 0.40943 0.0
H3221 H 0.12912 0.81889 0.44777 0.0
H3222 H 0.16535 0.88918 0.44475 0.0
H3223 H 0.19376 0.92117 0.44039 0.0
H3224 H 0.23153 0.91582 0.46858 0.0
H3225 H 0.2034 0.88364 0.47298 0.0
C3226 C 0.11653 0.83999 0.50522 0.0
C3227 C 0.13144 0.84403 0.51481 0.0
C3228 C 0.12029 0.83953 0.4928 0.0
C3229 C 0.13896 0.84298 0.48978 0.0
C3230 C 0.15362 0.84637 0.49932 0.0
C3231 C 0.14989 0.84684 0.51171 0.0
C3232 C 0.14376 0.84429 0.47674 0.0
C3233 C 0.1601 0.86202 0.47384 0.0
C3234 C 0.13225 0.82864 0.46721 0.0
C3235 C 0.11525 0.8093 0.46978 0.0
C3236 C 0.11787 0.79806 0.47863 0.0
C3237 C 0.10177 0.77989 0.48106 0.0
C3238 C 0.083 0.77272 0.47463 0.0
C3239 C 0.0803 0.78369 0.46573 0.0
C3240 C 0.09635 0.80188 0.46326 0.0
C3241 C 0.18587 0.85533 0.42582 0.0
C3242 C 0.17275 0.85268 0.41546 0.0
C3243 C 0.17971 0.85373 0.43771 0.0
C3244 C 0.16038 0.84968 0.4395 0.0
C3245 C 0.14712 0.84674 0.42917 0.0
C3246 C 0.15326 0.84826 0.41724 0.0
C3247 C 0.15419 0.84866 0.4522 0.0
C3248 C 0.13754 0.83109 0.45503 0.0
C3249 C 0.16537 0.86449 0.46169 0.0
C3250 C 0.1823 0.88391 0.45912 0.0
C3251 C 0.17974 0.89475 0.44996 0.0
C3252 C 0.19579 0.91293 0.44749 0.0
C3253 C 0.21445 0.9205 0.45418 0.0
C3254 C 0.21707 0.90993 0.46339 0.0
C3255 C 0.20108 0.89173 0.46589 0.0
H3256 H 0.22685 0.93457 0.45226 0.0
H3257 H 0.07055 0.75865 0.47652 0.0
H3258 H 0.67066 0.82416 0.14207 0.0
H3259 H 0.67723 0.825 0.16449 0.0
H3260 H 0.6347 0.84407 0.17069 0.0
H3261 H 0.62782 0.843 0.14832 0.0
H3262 H 0.6685 0.86387 0.18752 0.0
H3263 H 0.62058 0.79625 0.171 0.0
H3264 H 0.60813 0.76536 0.15694 0.0
H3265 H 0.65765 0.75947 0.1708 0.0
H3266 H 0.67056 0.79051 0.18482 0.0
H3267 H 0.64816 0.83685 0.2486 0.0
H3268 H 0.646 0.8407 0.22648 0.0
H3269 H 0.68393 0.81577 0.22058 0.0
H3270 H 0.68534 0.81092 0.24253 0.0
H3271 H 0.6536 0.79976 0.20349 0.0
H3272 H 0.7011 0.8666 0.22064 0.0
H3273 H 0.71391 0.89764 0.23461 0.0
H3274 H 0.66604 0.90534 0.2197 0.0
H3275 H 0.65278 0.87419 0.20576 0.0
C3276 C 0.66275 0.82859 0.14821 0.0
C3277 C 0.64859 0.83335 0.1434 0.0
C3278 C 0.66657 0.82913 0.16101 0.0
C3279 C 0.65626 0.83437 0.16922 0.0
C3280 C 0.64283 0.84002 0.1645 0.0
C3281 C 0.63897 0.83946 0.1517 0.0
C3282 C 0.65858 0.83279 0.18267 0.0
C3283 C 0.66509 0.84984 0.19105 0.0
C3284 C 0.65447 0.81455 0.18721 0.0
C3285 C 0.64664 0.79581 0.17886 0.0
C3286 C 0.6289 0.78845 0.17098 0.0
C3287 C 0.62174 0.77091 0.16303 0.0
C3288 C 0.63212 0.76049 0.16296 0.0
C3289 C 0.64964 0.76757 0.17086 0.0
C3290 C 0.65688 0.78513 0.17881 0.0
C3291 C 0.65592 0.83204 0.24258 0.0
C3292 C 0.66696 0.82361 0.24736 0.0
C3293 C 0.65488 0.83449 0.22996 0.0
C3294 C 0.66504 0.82879 0.2219 0.0
C3295 C 0.67606 0.82037 0.22664 0.0
C3296 C 0.67699 0.81779 0.23922 0.0
C3297 C 0.66364 0.83089 0.20843 0.0
C3298 C 0.65718 0.81388 0.20002 0.0
C3299 C 0.66788 0.84919 0.20389 0.0
C3300 C 0.67584 0.86796 0.21224 0.0
C3301 C 0.69322 0.87483 0.22041 0.0
C3302 C 0.70057 0.89246 0.22831 0.0
C3303 C 0.69077 0.90343 0.22806 0.0
C3304 C 0.67361 0.89682 0.21989 0.0
C3305 C 0.66617 0.87919 0.21198 0.0
H3306 H 0.69649 0.91707 0.23419 0.0
H3307 H 0.62656 0.74691 0.15679 0.0
H3308 H 0.16974 0.80922 0.14749 0.0
H3309 H 0.1639 0.81245 0.16912 0.0
H3310 H 0.22633 0.83611 0.1805 0.0
H3311 H 0.23217 0.83228 0.15885 0.0
H3312 H 0.2037 0.80735 0.1942 0.0
H3313 H 0.20614 0.86631 0.18194 0.0
H3314 H 0.19805 0.88678 0.16889 0.0
H3315 H 0.13663 0.85276 0.17558 0.0
H3316 H 0.14428 0.83189 0.18853 0.0
H3317 H 0.19099 0.82947 0.25685 0.0
H3318 H 0.20238 0.83379 0.23616 0.0
H3319 H 0.14147 0.80484 0.21971 0.0
H3320 H 0.12988 0.79989 0.2403 0.0
H3321 H 0.16682 0.83993 0.20938 0.0
H3322 H 0.16462 0.77958 0.22043 0.0
H3323 H 0.17313 0.7595 0.23357 0.0
H3324 H 0.23508 0.79694 0.22908 0.0
H3325 H 0.22695 0.81748 0.21607 0.0
C3326 C 0.18224 0.81514 0.15459 0.0
C3327 C 0.2014 0.8204 0.15147 0.0
C3328 C 0.17892 0.81719 0.16694 0.0
C3329 C 0.19472 0.8247 0.17641 0.0
C3330 C 0.21395 0.83035 0.17332 0.0
C3331 C 0.21729 0.82829 0.16095 0.0
C3332 C 0.19082 0.82543 0.18957 0.0
C3333 C 0.19601 0.81484 0.19759 0.0
C3334 C 0.18046 0.83489 0.19392 0.0
C3335 C 0.17577 0.84743 0.18614 0.0
C3336 C 0.19087 0.86309 0.18055 0.0
C3337 C 0.18637 0.87478 0.17319 0.0
C3338 C 0.16683 0.87105 0.17139 0.0
C3339 C 0.15176 0.85563 0.17697 0.0
C3340 C 0.15617 0.84388 0.18434 0.0
C3341 C 0.17998 0.82381 0.24884 0.0
C3342 C 0.15949 0.81424 0.25025 0.0
C3343 C 0.18654 0.82643 0.23703 0.0
C3344 C 0.17274 0.81959 0.22644 0.0
C3345 C 0.15234 0.81033 0.22779 0.0
C3346 C 0.14575 0.80757 0.23958 0.0
C3347 C 0.17946 0.82163 0.21388 0.0
C3348 C 0.17476 0.83271 0.206 0.0
C3349 C 0.19035 0.81269 0.20967 0.0
C3350 C 0.19521 0.80028 0.21745 0.0
C3351 C 0.18008 0.78368 0.22236 0.0
C3352 C 0.18483 0.77219 0.22976 0.0
C3353 C 0.20465 0.77701 0.23221 0.0
C3354 C 0.21974 0.79329 0.22722 0.0
C3355 C 0.21508 0.80486 0.21983 0.0
H3356 H 0.2083 0.76809 0.23794 0.0
H3357 H 0.16338 0.88012 0.16568 0.0
H3358 H 0.21596 0.37445 0.15546 0.0
H3359 H 0.2088 0.36186 0.17579 0.0
H3360 H 0.19441 0.40724 0.18665 0.0
H3361 H 0.20209 0.42024 0.16654 0.0
H3362 H 0.21555 0.40241 0.20545 0.0
H3363 H 0.15803 0.36012 0.176 0.0
H3364 H 0.14044 0.33759 0.15686 0.0
H3365 H 0.15811 0.29638 0.1688 0.0
H3366 H 0.17604 0.31881 0.18794 0.0
H3367 H 0.15511 0.36375 0.25372 0.0
H3368 H 0.16753 0.37578 0.23401 0.0
H3369 H 0.17791 0.32653 0.22695 0.0
H3370 H 0.16517 0.31425 0.24659 0.0
H3371 H 0.1615 0.33236 0.20648 0.0
H3372 H 0.21598 0.37332 0.23724 0.0
H3373 H 0.2313 0.39505 0.25689 0.0
H3374 H 0.21911 0.43883 0.24273 0.0
H3375 H 0.2032 0.4171 0.22311 0.0
C3376 C 0.21159 0.38194 0.16226 0.0
C3377 C 0.20939 0.39821 0.15937 0.0
C3378 C 0.20736 0.37464 0.17383 0.0
C3379 C 0.20082 0.38346 0.18266 0.0
C3380 C 0.19937 0.40017 0.17996 0.0
C3381 C 0.20358 0.40746 0.16842 0.0
C3382 C 0.19457 0.37483 0.19451 0.0
C3383 C 0.20367 0.38713 0.20569 0.0
C3384 C 0.17938 0.35475 0.19481 0.0
C3385 C 0.16857 0.34125 0.18332 0.0
C3386 C 0.1583 0.34633 0.17449 0.0
C3387 C 0.14824 0.33357 0.16365 0.0
C3388 C 0.14821 0.31559 0.1616 0.0
C3389 C 0.15818 0.31032 0.17039 0.0
C3390 C 0.16829 0.32305 0.18124 0.0
C3391 C 0.1601 0.35554 0.24798 0.0
C3392 C 0.15929 0.33814 0.2517 0.0
C3393 C 0.16721 0.36242 0.23673 0.0
C3394 C 0.17397 0.35224 0.22912 0.0
C3395 C 0.17282 0.33464 0.2327 0.0
C3396 C 0.16552 0.32763 0.2439 0.0
C3397 C 0.18226 0.36002 0.21742 0.0
C3398 C 0.17357 0.34756 0.20627 0.0
C3399 C 0.19783 0.37995 0.21716 0.0
C3400 C 0.20824 0.39348 0.22873 0.0
C3401 C 0.21649 0.38754 0.23833 0.0
C3402 C 0.22525 0.39985 0.24947 0.0
C3403 C 0.22612 0.41828 0.25107 0.0
C3404 C 0.21838 0.42452 0.24149 0.0
C3405 C 0.20948 0.4122 0.23035 0.0
H3406 H 0.23279 0.42774 0.25973 0.0
H3407 H 0.14041 0.30573 0.1532 0.0
H3408 H 0.82567 0.62901 0.84852 0.0
H3409 H 0.83199 0.64142 0.82824 0.0
H3410 H 0.76879 0.6147 0.81809 0.0
H3411 H 0.76228 0.60133 0.83822 0.0
H3412 H 0.78518 0.60699 0.79983 0.0
H3413 H 0.79927 0.66591 0.8245 0.0
H3414 H 0.81405 0.6921 0.84219 0.0
H3415 H 0.87269 0.70926 0.83239 0.0
H3416 H 0.85829 0.68298 0.81474 0.0
H3417 H 0.8053 0.65391 0.74371 0.0
H3418 H 0.79375 0.64517 0.76411 0.0
H3419 H 0.85378 0.6642 0.77926 0.0
H3420 H 0.86543 0.67299 0.7589 0.0
H3421 H 0.83522 0.67709 0.79466 0.0
H3422 H 0.81945 0.61435 0.77132 0.0
H3423 H 0.8036 0.58885 0.75327 0.0
H3424 H 0.74627 0.58019 0.7604 0.0
H3425 H 0.76183 0.60576 0.77845 0.0
C3426 C 0.81308 0.62565 0.84196 0.0
C3427 C 0.79345 0.61407 0.84499 0.0
C3428 C 0.81673 0.63301 0.83042 0.0
C3429 C 0.80088 0.62925 0.82169 0.0
C3430 C 0.78126 0.61788 0.82471 0.0
C3431 C 0.77757 0.61038 0.83626 0.0
C3432 C 0.80491 0.63641 0.80923 0.0
C3433 C 0.79583 0.62242 0.79871 0.0
C3434 C 0.81891 0.6565 0.80772 0.0
C3435 C 0.82768 0.67236 0.81834 0.0
C3436 C 0.81533 0.67516 0.82617 0.0
C3437 C 0.82364 0.69005 0.83618 0.0
C3438 C 0.8443 0.70231 0.83842 0.0
C3439 C 0.85669 0.69974 0.83064 0.0
C3440 C 0.84846 0.68487 0.82062 0.0
C3441 C 0.81602 0.65615 0.75138 0.0
C3442 C 0.83626 0.66404 0.7497 0.0
C3443 C 0.8094 0.65121 0.76303 0.0
C3444 C 0.82288 0.65385 0.77316 0.0
C3445 C 0.84315 0.6621 0.77156 0.0
C3446 C 0.84979 0.66713 0.75994 0.0
C3447 C 0.8159 0.64757 0.78539 0.0
C3448 C 0.8244 0.66174 0.79584 0.0
C3449 C 0.80119 0.62773 0.78682 0.0
C3450 C 0.79181 0.61204 0.77616 0.0
C3451 C 0.80347 0.60704 0.76901 0.0
C3452 C 0.79455 0.59257 0.75879 0.0
C3453 C 0.77395 0.58292 0.75568 0.0
C3454 C 0.76222 0.58767 0.76282 0.0
C3455 C 0.77108 0.60211 0.77306 0.0
H3456 H 0.76707 0.57176 0.74775 0.0
H3457 H 0.8507 0.71383 0.84618 0.0
H3458 H 0.39116 0.20828 0.85481 0.0
H3459 H 0.38538 0.2056 0.83224 0.0
H3460 H 0.33366 0.14715 0.83237 0.0
H3461 H 0.33959 0.14966 0.85503 0.0
H3462 H 0.35465 0.14748 0.81375 0.0
H3463 H 0.32882 0.18816 0.82905 0.0
H3464 H 0.32929 0.21605 0.84152 0.0
H3465 H 0.37764 0.25819 0.82285 0.0
H3466 H 0.37765 0.23053 0.81038 0.0
H3467 H 0.31109 0.14578 0.75313 0.0
H3468 H 0.31787 0.14553 0.77544 0.0
H3469 H 0.37353 0.20078 0.77602 0.0
H3470 H 0.3668 0.20117 0.75373 0.0
H3471 H 0.34975 0.20128 0.79416 0.0
H3472 H 0.37465 0.15943 0.77859 0.0
H3473 H 0.37273 0.1309 0.76597 0.0
H3474 H 0.32402 0.09012 0.78498 0.0
H3475 H 0.32545 0.11844 0.79759 0.0
C3476 C 0.37849 0.1949 0.85003 0.0
C3477 C 0.36568 0.17927 0.85667 0.0
C3478 C 0.37522 0.19337 0.83714 0.0
C3479 C 0.35888 0.17632 0.83064 0.0
C3480 C 0.34632 0.16046 0.83721 0.0
C3481 C 0.34971 0.16191 0.85013 0.0
C3482 C 0.35484 0.17526 0.81701 0.0
C3483 C 0.3533 0.1591 0.80947 0.0
C3484 C 0.35336 0.19058 0.81142 0.0
C3485 C 0.35335 0.20726 0.81886 0.0
C3486 C 0.33965 0.20337 0.82767 0.0
C3487 C 0.33982 0.21914 0.83472 0.0
C3488 C 0.35352 0.23888 0.833 0.0
C3489 C 0.36706 0.24289 0.82418 0.0
C3490 C 0.36697 0.22717 0.81711 0.0
C3491 C 0.32481 0.15781 0.75802 0.0
C3492 C 0.33842 0.17351 0.75173 0.0
C3493 C 0.32871 0.15758 0.77072 0.0
C3494 C 0.34623 0.1731 0.77733 0.0
C3495 C 0.35995 0.18866 0.77105 0.0
C3496 C 0.35615 0.18879 0.75833 0.0
C3497 C 0.34978 0.17364 0.79093 0.0
C3498 C 0.35112 0.18968 0.79845 0.0
C3499 C 0.35085 0.15812 0.79648 0.0
C3500 C 0.35003 0.14107 0.78895 0.0
C3501 C 0.36341 0.14439 0.78 0.0
C3502 C 0.36244 0.12825 0.77287 0.0
C3503 C 0.34823 0.10871 0.77465 0.0
C3504 C 0.335 0.10527 0.7836 0.0
C3505 C 0.3359 0.12135 0.79075 0.0
H3506 H 0.3475 0.09624 0.76911 0.0
H3507 H 0.35363 0.25107 0.83847 0.0
H3508 H 0.83473 0.19145 0.85541 0.0
H3509 H 0.84101 0.18975 0.83372 0.0
H3510 H 0.77811 0.16219 0.82229 0.0
H3511 H 0.77168 0.16412 0.844 0.0
H3512 H 0.7969 0.14503 0.80911 0.0
H3513 H 0.80581 0.21004 0.82051 0.0
H3514 H 0.81953 0.24207 0.83357 0.0
H3515 H 0.87885 0.25661 0.82683 0.0
H3516 H 0.86549 0.22451 0.81387 0.0
H3517 H 0.80849 0.1635 0.74573 0.0
H3518 H 0.79895 0.16157 0.76685 0.0
H3519 H 0.8609 0.19674 0.78128 0.0
H3520 H 0.87047 0.19981 0.76023 0.0
H3521 H 0.84059 0.20956 0.79278 0.0
H3522 H 0.83246 0.14458 0.78203 0.0
H3523 H 0.81934 0.11232 0.76932 0.0
H3524 H 0.75956 0.09751 0.77495 0.0
H3525 H 0.77232 0.1298 0.78758 0.0
C3526 C 0.82222 0.18502 0.84829 0.0
C3527 C 0.80273 0.17814 0.85142 0.0
C3528 C 0.82583 0.18398 0.83592 0.0
C3529 C 0.81004 0.1761 0.82643 0.0
C3530 C 0.79048 0.16834 0.82951 0.0
C3531 C 0.78684 0.16941 0.84191 0.0
C3532 C 0.81416 0.17698 0.81328 0.0
C3533 C 0.80624 0.15912 0.80546 0.0
C3534 C 0.8266 0.19538 0.80863 0.0
C3535 C 0.83465 0.21479 0.81631 0.0
C3536 C 0.82179 0.22 0.82189 0.0
C3537 C 0.8295 0.23818 0.82926 0.0
C3538 C 0.85005 0.25134 0.83105 0.0
C3539 C 0.86293 0.24638 0.82544 0.0
C3540 C 0.8553 0.22821 0.81807 0.0
C3541 C 0.82008 0.17102 0.75339 0.0
C3542 C 0.84027 0.18177 0.75126 0.0
C3543 C 0.8146 0.16968 0.76548 0.0
C3544 C 0.82922 0.17877 0.77568 0.0
C3545 C 0.84935 0.18953 0.77357 0.0
C3546 C 0.85482 0.19108 0.76151 0.0
C3547 C 0.82368 0.17755 0.78857 0.0
C3548 C 0.83124 0.19541 0.79637 0.0
C3549 C 0.81103 0.15914 0.79319 0.0
C3550 C 0.80334 0.13968 0.78565 0.0
C3551 C 0.81651 0.1345 0.78049 0.0
C3552 C 0.80914 0.1162 0.77331 0.0
C3553 C 0.78862 0.1029 0.7713 0.0
C3554 C 0.77544 0.10784 0.7765 0.0
C3555 C 0.78273 0.12613 0.78368 0.0
H3556 H 0.78295 0.08874 0.76574 0.0
H3557 H 0.85599 0.26541 0.83677 0.0
H3558 H 0.28914 0.17415 0.48208 0.0
H3559 H 0.2981 0.17797 0.50446 0.0
H3560 H 0.33607 0.15314 0.49845 0.0
H3561 H 0.32749 0.1496 0.47605 0.0
H3562 H 0.30918 0.13414 0.51506 0.0
H3563 H 0.35623 0.20166 0.50812 0.0
H3564 H 0.36676 0.23447 0.50057 0.0
H3565 H 0.32875 0.24328 0.52408 0.0
H3566 H 0.31778 0.21038 0.53165 0.0
H3567 H 0.35203 0.14672 0.57581 0.0
H3568 H 0.34771 0.14963 0.55378 0.0
H3569 H 0.31387 0.17866 0.56138 0.0
H3570 H 0.31906 0.17678 0.58361 0.0
H3571 H 0.33823 0.1961 0.54402 0.0
H3572 H 0.29048 0.12924 0.55071 0.0
H3573 H 0.27865 0.0962 0.55823 0.0
H3574 H 0.31597 0.08567 0.53503 0.0
H3575 H 0.32825 0.11879 0.52749 0.0
C3576 C 0.29978 0.16996 0.48549 0.0
C3577 C 0.30751 0.16145 0.47729 0.0
C3578 C 0.30483 0.1721 0.49829 0.0
C3579 C 0.31774 0.16583 0.50308 0.0
C3580 C 0.32601 0.15798 0.49491 0.0
C3581 C 0.32103 0.15589 0.48213 0.0
C3582 C 0.32144 0.16601 0.51664 0.0
C3583 C 0.31583 0.14773 0.52138 0.0
C3584 C 0.32941 0.18366 0.52488 0.0
C3585 C 0.33603 0.20346 0.52036 0.0
C3586 C 0.34998 0.21051 0.5116 0.0
C3587 C 0.35606 0.22915 0.50733 0.0
C3588 C 0.34839 0.24093 0.51181 0.0
C3589 C 0.33466 0.23412 0.5206 0.0
C3590 C 0.32852 0.2155 0.52489 0.0
C3591 C 0.34398 0.15406 0.57287 0.0
C3592 C 0.33584 0.16147 0.58151 0.0
C3593 C 0.34132 0.15551 0.56023 0.0
C3594 C 0.33018 0.16405 0.55592 0.0
C3595 C 0.32243 0.17191 0.56451 0.0
C3596 C 0.32523 0.17062 0.57719 0.0
C3597 C 0.32622 0.16425 0.54242 0.0
C3598 C 0.33164 0.18253 0.53769 0.0
C3599 C 0.31786 0.14656 0.53416 0.0
C3600 C 0.31042 0.12658 0.53862 0.0
C3601 C 0.29628 0.11994 0.54728 0.0
C3602 C 0.28947 0.10119 0.55153 0.0
C3603 C 0.29659 0.08886 0.54713 0.0
C3604 C 0.31049 0.09525 0.53844 0.0
C3605 C 0.31737 0.114 0.53416 0.0
H3606 H 0.2913 0.07435 0.55044 0.0
H3607 H 0.35311 0.25535 0.5085 0.0
H3608 H 0.82751 0.13873 0.4791 0.0
H3609 H 0.8222 0.14445 0.50047 0.0
H3610 H 0.88443 0.18894 0.50851 0.0
H3611 H 0.89014 0.18236 0.48732 0.0
H3612 H 0.87424 0.16541 0.52559 0.0
H3613 H 0.8464 0.20117 0.50724 0.0
H3614 H 0.82548 0.20752 0.49235 0.0
H3615 H 0.77276 0.15905 0.50401 0.0
H3616 H 0.79336 0.15221 0.51886 0.0
H3617 H 0.85647 0.18732 0.58683 0.0
H3618 H 0.86471 0.19166 0.56545 0.0
H3619 H 0.80738 0.14057 0.55237 0.0
H3620 H 0.79896 0.13618 0.5737 0.0
H3621 H 0.81783 0.17269 0.53837 0.0
H3622 H 0.84744 0.13508 0.5546 0.0
H3623 H 0.8693 0.12911 0.56896 0.0
H3624 H 0.92002 0.18376 0.56123 0.0
H3625 H 0.89841 0.19005 0.54683 0.0
C3626 C 0.84011 0.14971 0.4854 0.0
C3627 C 0.8593 0.15995 0.48148 0.0
C3628 C 0.83698 0.15321 0.4976 0.0
C3629 C 0.85286 0.16732 0.5061 0.0
C3630 C 0.87192 0.17803 0.50211 0.0
C3631 C 0.87512 0.17437 0.48995 0.0
C3632 C 0.84985 0.16962 0.51935 0.0
C3633 C 0.86218 0.16749 0.52838 0.0
C3634 C 0.83395 0.17204 0.52303 0.0
C3635 C 0.82146 0.17609 0.51411 0.0
C3636 C 0.83035 0.19176 0.50657 0.0
C3637 C 0.81855 0.19547 0.49814 0.0
C3638 C 0.79781 0.18368 0.49722 0.0
C3639 C 0.78883 0.16817 0.50474 0.0
C3640 C 0.80056 0.16439 0.51317 0.0
C3641 C 0.84558 0.17704 0.57943 0.0
C3642 C 0.8272 0.16116 0.58203 0.0
C3643 C 0.85034 0.17953 0.56721 0.0
C3644 C 0.83673 0.16631 0.55736 0.0
C3645 C 0.81813 0.15088 0.55986 0.0
C3646 C 0.81343 0.14828 0.57207 0.0
C3647 C 0.84199 0.16811 0.54444 0.0
C3648 C 0.83009 0.171 0.53551 0.0
C3649 C 0.85843 0.16665 0.54086 0.0
C3650 C 0.8713 0.16312 0.54975 0.0
C3651 C 0.86322 0.14591 0.55606 0.0
C3652 C 0.87558 0.14243 0.56416 0.0
C3653 C 0.89604 0.15606 0.56601 0.0
C3654 C 0.90417 0.17322 0.55978 0.0
C3655 C 0.89189 0.17672 0.55163 0.0
H3656 H 0.9056 0.1533 0.57224 0.0
H3657 H 0.78869 0.18657 0.49069 0.0
H3658 H 0.83699 0.6919 0.48073 0.0
H3659 H 0.82895 0.67979 0.50105 0.0
H3660 H 0.88957 0.7207 0.51635 0.0
H3661 H 0.89771 0.73304 0.49605 0.0
H3662 H 0.87433 0.68354 0.5251 0.0
H3663 H 0.85511 0.73312 0.52037 0.0
H3664 H 0.838 0.74851 0.50976 0.0
H3665 H 0.78145 0.6958 0.51166 0.0
H3666 H 0.79826 0.67997 0.52212 0.0
H3667 H 0.85734 0.68358 0.5888 0.0
H3668 H 0.86687 0.69284 0.56812 0.0
H3669 H 0.8055 0.65614 0.5528 0.0
H3670 H 0.79573 0.64756 0.5735 0.0
H3671 H 0.82158 0.69107 0.54396 0.0
H3672 H 0.84041 0.64146 0.54894 0.0
H3673 H 0.85732 0.62574 0.55938 0.0
H3674 H 0.91415 0.67781 0.55698 0.0
H3675 H 0.89755 0.69396 0.54667 0.0
C3676 C 0.84862 0.69831 0.48841 0.0
C3677 C 0.86793 0.7136 0.48681 0.0
C3678 C 0.84403 0.69133 0.5 0.0
C3679 C 0.85861 0.69956 0.51022 0.0
C3680 C 0.87812 0.71417 0.50856 0.0
C3681 C 0.88274 0.72117 0.49695 0.0
C3682 C 0.85321 0.69366 0.52277 0.0
C3683 C 0.86296 0.68537 0.52931 0.0
C3684 C 0.83811 0.69573 0.52812 0.0
C3685 C 0.82796 0.70529 0.52192 0.0
C3686 C 0.83904 0.72475 0.51845 0.0
C3687 C 0.82939 0.73356 0.51247 0.0
C3688 C 0.80866 0.72312 0.51001 0.0
C3689 C 0.79752 0.70386 0.51355 0.0
C3690 C 0.80709 0.69497 0.51952 0.0
C3691 C 0.84585 0.67759 0.58105 0.0
C3692 C 0.82576 0.66482 0.58282 0.0
C3693 C 0.85136 0.6827 0.5692 0.0
C3694 C 0.83693 0.67498 0.55888 0.0
C3695 C 0.8169 0.66221 0.56062 0.0
C3696 C 0.81136 0.65717 0.57245 0.0
C3697 C 0.84256 0.68075 0.54633 0.0
C3698 C 0.8329 0.68913 0.53978 0.0
C3699 C 0.8577 0.67869 0.54099 0.0
C3700 C 0.86772 0.66899 0.54714 0.0
C3701 C 0.8565 0.64962 0.55073 0.0
C3702 C 0.86604 0.64062 0.5566 0.0
C3703 C 0.88679 0.65079 0.55887 0.0
C3704 C 0.89807 0.66996 0.55523 0.0
C3705 C 0.88861 0.67903 0.54936 0.0
H3706 H 0.89414 0.64379 0.56342 0.0
H3707 H 0.80122 0.72997 0.50538 0.0
loop_
_geom_bond_atom_site_label_1
_geom_bond_atom_site_label_2
_geom_bond_distance
_geom_bond_site_symmetry_2
_ccdc_geom_bond_type
C0 C1 1.384 . S
C0 H13 0.947 . S
C0 C35 1.382 . S
C1 C0 1.384 . S
C1 C2 1.378 . S
C2 C1 1.378 . S
C2 C3 1.378 . S
C2 H14 0.952 . S
C3 C2 1.378 . S
C3 H15 0.950 . S
C3 C34 1.383 . S
H4 C23 0.947 . S
H5 C24 0.946 . S
H6 C26 0.953 . S
H7 C27 0.945 . S
H8 C29 0.952 . S
H9 C30 0.949 . S
H10 C32 0.950 . S
H11 C33 0.948 . S
H12 C35 0.951 . S
H13 C0 0.947 . S
H14 C2 0.952 . S
H15 C3 0.950 . S
N16 C19 1.382 . S
N16 C21 1.363 . S
N17 C19 1.371 . S
N17 C20 1.372 . S
N18 C20 1.361 . S
N18 C21 1.377 . S
C19 N16 1.382 . S
C19 N17 1.371 . S
C19 C22 1.480 . S
C20 N17 1.372 . S
C20 N18 1.361 . S
C20 C28 1.457 . S
C21 N16 1.363 . S
C21 N18 1.377 . S
C21 C34 1.479 . S
C22 C19 1.480 . S
C22 C23 1.383 . S
C22 C27 1.385 . S
C23 H4 0.947 . S
C23 C22 1.383 . S
C23 C24 1.388 . S
C24 H5 0.946 . S
C24 C23 1.388 . S
C24 C25 1.384 . S
C25 C24 1.384 . S
C25 C26 1.377 . S
C26 H6 0.953 . S
C26 C25 1.377 . S
C26 C27 1.369 . S
C27 H7 0.945 . S
C27 C22 1.385 . S
C27 C26 1.369 . S
C28 C20 1.457 . S
C28 C29 1.372 . S
C28 C33 1.364 . S
C29 H8 0.952 . S
C29 C28 1.372 . S
C29 C30 1.389 . S
C30 H9 0.949 . S
C30 C29 1.389 . S
C30 C31 1.387 . S
C31 C30 1.387 . S
C31 C32 1.372 . S
C32 H10 0.950 . S
C32 C31 1.372 . S
C32 C33 1.379 . S
C33 H11 0.948 . S
C33 C28 1.364 . S
C33 C32 1.379 . S
C34 C3 1.383 . S
C34 C21 1.479 . S
C34 C35 1.398 . S
C35 C0 1.382 . S
C35 H12 0.951 . S
C35 C34 1.398 . S
C36 C37 1.384 . S
C36 H49 0.947 . S
C36 C71 1.382 . S
C37 C36 1.384 . S
C37 C38 1.378 . S
C38 C37 1.378 . S
C38 C39 1.378 . S
C38 H50 0.952 . S
C39 C38 1.378 . S
C39 H51 0.950 . S
C39 C70 1.383 . S
H40 C59 0.947 . S
H41 C60 0.946 . S
H42 C62 0.953 . S
H43 C63 0.945 . S
H44 C65 0.952 . S
H45 C66 0.949 . S
H46 C68 0.950 . S
H47 C69 0.948 . S
H48 C71 0.951 . S
H49 C36 0.947 . S
H50 C38 0.952 . S
H51 C39 0.950 . S
N52 C55 1.382 . S
N52 C57 1.363 . S
N53 C55 1.371 . S
N53 C56 1.372 . S
N54 C56 1.361 . S
N54 C57 1.377 . S
C55 N52 1.382 . S
C55 N53 1.371 . S
C55 C58 1.480 . S
C56 N53 1.372 . S
C56 N54 1.361 . S
C56 C64 1.457 . S
C57 N52 1.363 . S
C57 N54 1.377 . S
C57 C70 1.479 . S
C58 C55 1.480 . S
C58 C59 1.383 . S
C58 C63 1.385 . S
C59 H40 0.947 . S
C59 C58 1.383 . S
C59 C60 1.388 . S
C60 H41 0.946 . S
C60 C59 1.388 . S
C60 C61 1.384 . S
C61 C60 1.384 . S
C61 C62 1.377 . S
C62 H42 0.953 . S
C62 C61 1.377 . S
C62 C63 1.369 . S
C63 H43 0.945 . S
C63 C58 1.385 . S
C63 C62 1.369 . S
C64 C56 1.457 . S
C64 C65 1.372 . S
C64 C69 1.364 . S
C65 H44 0.952 . S
C65 C64 1.372 . S
C65 C66 1.389 . S
C66 H45 0.949 . S
C66 C65 1.389 . S
C66 C67 1.387 . S
C67 C66 1.387 . S
C67 C68 1.372 . S
C68 H46 0.950 . S
C68 C67 1.372 . S
C68 C69 1.379 . S
C69 H47 0.948 . S
C69 C64 1.364 . S
C69 C68 1.379 . S
C70 C39 1.383 . S
C70 C57 1.479 . S
C70 C71 1.398 . S
C71 C36 1.382 . S
C71 H48 0.951 . S
C71 C70 1.398 . S
C72 C73 1.384 . S
C72 H85 0.947 . S
C72 C107 1.382 . S
C73 C72 1.384 . S
C73 C74 1.378 . S
C74 C73 1.378 . S
C74 C75 1.378 . S
C74 H86 0.952 . S
C75 C74 1.378 . S
C75 H87 0.950 . S
C75 C106 1.383 . S
H76 C95 0.947 . S
H77 C96 0.946 . S
H78 C98 0.953 . S
H79 C99 0.945 . S
H80 C101 0.952 . S
H81 C102 0.949 . S
H82 C104 0.950 . S
H83 C105 0.948 . S
H84 C107 0.951 . S
H85 C72 0.947 . S
H86 C74 0.952 . S
H87 C75 0.950 . S
N88 C91 1.382 . S
N88 C93 1.363 . S
N89 C91 1.371 . S
N89 C92 1.372 . S
N90 C92 1.361 . S
N90 C93 1.377 . S
C91 N88 1.382 . S
C91 N89 1.371 . S
C91 C94 1.480 . S
C92 N89 1.372 . S
C92 N90 1.361 . S
C92 C100 1.457 . S
C93 N88 1.363 . S
C93 N90 1.377 . S
C93 C106 1.479 . S
C94 C91 1.480 . S
C94 C95 1.383 . S
C94 C99 1.385 . S
C95 H76 0.947 . S
C95 C94 1.383 . S
C95 C96 1.388 . S
C96 H77 0.946 . S
C96 C95 1.388 . S
C96 C97 1.384 . S
C97 C96 1.384 . S
C97 C98 1.377 . S
C98 H78 0.953 . S
C98 C97 1.377 . S
C98 C99 1.369 . S
C99 H79 0.945 . S
C99 C94 1.385 . S
C99 C98 1.369 . S
C100 C92 1.457 . S
C100 C101 1.372 . S
C100 C105 1.364 . S
C101 H80 0.952 . S
C101 C100 1.372 . S
C101 C102 1.389 . S
C102 H81 0.949 . S
C102 C101 1.389 . S
C102 C103 1.387 . S
C103 C102 1.387 . S
C103 C104 1.372 . S
C104 H82 0.950 . S
C104 C103 1.372 . S
C104 C105 1.379 . S
C105 H83 0.948 . S
C105 C100 1.364 . S
C105 C104 1.379 . S
C106 C75 1.383 . S
C106 C93 1.479 . S
C106 C107 1.398 . S
C107 C72 1.382 . S
C107 H84 0.951 . S
C107 C106 1.398 . S
C108 C109 1.384 . S
C108 H121 0.947 . S
C108 C143 1.382 . S
C109 C108 1.384 . S
C109 C110 1.378 . S
C110 C109 1.378 . S
C110 C111 1.378 . S
C110 H122 0.952 . S
C111 C110 1.378 . S
C111 H123 0.950 . S
C111 C142 1.383 . S
H112 C131 0.947 . S
H113 C132 0.946 . S
H114 C134 0.953 . S
H115 C135 0.945 . S
H116 C137 0.952 . S
H117 C138 0.949 . S
H118 C140 0.950 . S
H119 C141 0.948 . S
H120 C143 0.951 . S
H121 C108 0.947 . S
H122 C110 0.952 . S
H123 C111 0.950 . S
N124 C127 1.382 . S
N124 C129 1.363 . S
N125 C127 1.371 . S
N125 C128 1.372 . S
N126 C128 1.361 . S
N126 C129 1.377 . S
C127 N124 1.382 . S
C127 N125 1.371 . S
C127 C130 1.480 . S
C128 N125 1.372 . S
C128 N126 1.361 . S
C128 C136 1.457 . S
C129 N124 1.363 . S
C129 N126 1.377 . S
C129 C142 1.479 . S
C130 C127 1.480 . S
C130 C131 1.383 . S
C130 C135 1.385 . S
C131 H112 0.947 . S
C131 C130 1.383 . S
C131 C132 1.388 . S
C132 H113 0.946 . S
C132 C131 1.388 . S
C132 C133 1.384 . S
C133 C132 1.384 . S
C133 C134 1.377 . S
C134 H114 0.953 . S
C134 C133 1.377 . S
C134 C135 1.369 . S
C135 H115 0.945 . S
C135 C130 1.385 . S
C135 C134 1.369 . S
C136 C128 1.457 . S
C136 C137 1.372 . S
C136 C141 1.364 . S
C137 H116 0.952 . S
C137 C136 1.372 . S
C137 C138 1.389 . S
C138 H117 0.949 . S
C138 C137 1.389 . S
C138 C139 1.387 . S
C139 C138 1.387 . S
C139 C140 1.372 . S
C140 H118 0.950 . S
C140 C139 1.372 . S
C140 C141 1.379 . S
C141 H119 0.948 . S
C141 C136 1.364 . S
C141 C140 1.379 . S
C142 C111 1.383 . S
C142 C129 1.479 . S
C142 C143 1.398 . S
C143 C108 1.382 . S
C143 H120 0.951 . S
C143 C142 1.398 . S
C144 C145 1.384 . S
C144 H157 0.947 . S
C144 C179 1.382 . S
C145 C144 1.384 . S
C145 C146 1.378 . S
C146 C145 1.378 . S
C146 C147 1.378 . S
C146 H158 0.952 . S
C147 C146 1.378 . S
C147 H159 0.950 . S
C147 C178 1.383 . S
H148 C167 0.947 . S
H149 C168 0.946 . S
H150 C170 0.953 . S
H151 C171 0.945 . S
H152 C173 0.952 . S
H153 C174 0.949 . S
H154 C176 0.950 . S
H155 C177 0.948 . S
H156 C179 0.951 . S
H157 C144 0.947 . S
H158 C146 0.952 . S
H159 C147 0.950 . S
N160 C163 1.382 . S
N160 C165 1.363 . S
N161 C163 1.371 . S
N161 C164 1.372 . S
N162 C164 1.361 . S
N162 C165 1.377 . S
C163 N160 1.382 . S
C163 N161 1.371 . S
C163 C166 1.480 . S
C164 N161 1.372 . S
C164 N162 1.361 . S
C164 C172 1.457 . S
C165 N160 1.363 . S
C165 N162 1.377 . S
C165 C178 1.479 . S
C166 C163 1.480 . S
C166 C167 1.383 . S
C166 C171 1.385 . S
C167 H148 0.947 . S
C167 C166 1.383 . S
C167 C168 1.388 . S
C168 H149 0.946 . S
C168 C167 1.388 . S
C168 C169 1.384 . S
C169 C168 1.384 . S
C169 C170 1.377 . S
C170 H150 0.953 . S
C170 C169 1.377 . S
C170 C171 1.369 . S
C171 H151 0.945 . S
C171 C166 1.385 . S
C171 C170 1.369 . S
C172 C164 1.457 . S
C172 C173 1.372 . S
C172 C177 1.364 . S
C173 H152 0.952 . S
C173 C172 1.372 . S
C173 C174 1.389 . S
C174 H153 0.949 . S
C174 C173 1.389 . S
C174 C175 1.387 . S
C175 C174 1.387 . S
C175 C176 1.372 . S
C176 H154 0.950 . S
C176 C175 1.372 . S
C176 C177 1.379 . S
C177 H155 0.948 . S
C177 C172 1.364 . S
C177 C176 1.379 . S
C178 C147 1.383 . S
C178 C165 1.479 . S
C178 C179 1.398 . S
C179 C144 1.382 . S
C179 H156 0.951 . S
C179 C178 1.398 . S
C180 C181 1.384 . S
C180 H193 0.947 . S
C180 C215 1.382 . S
C181 C180 1.384 . S
C181 C182 1.378 . S
C182 C181 1.378 . S
C182 C183 1.378 . S
C182 H194 0.952 . S
C183 C182 1.378 . S
C183 H195 0.950 . S
C183 C214 1.383 . S
H184 C203 0.947 . S
H185 C204 0.946 . S
H186 C206 0.953 . S
H187 C207 0.945 . S
H188 C209 0.952 . S
H189 C210 0.949 . S
H190 C212 0.950 . S
H191 C213 0.948 . S
H192 C215 0.951 . S
H193 C180 0.947 . S
H194 C182 0.952 . S
H195 C183 0.950 . S
N196 C199 1.382 . S
N196 C201 1.363 . S
N197 C199 1.371 . S
N197 C200 1.372 . S
N198 C200 1.361 . S
N198 C201 1.377 . S
C199 N196 1.382 . S
C199 N197 1.371 . S
C199 C202 1.480 . S
C200 N197 1.372 . S
C200 N198 1.361 . S
C200 C208 1.457 . S
C201 N196 1.363 . S
C201 N198 1.377 . S
C201 C214 1.479 . S
C202 C199 1.480 . S
C202 C203 1.383 . S
C202 C207 1.385 . S
C203 H184 0.947 . S
C203 C202 1.383 . S
C203 C204 1.388 . S
C204 H185 0.946 . S
C204 C203 1.388 . S
C204 C205 1.384 . S
C205 C204 1.384 . S
C205 C206 1.377 . S
C206 H186 0.953 . S
C206 C205 1.377 . S
C206 C207 1.369 . S
C207 H187 0.945 . S
C207 C202 1.385 . S
C207 C206 1.369 . S
C208 C200 1.457 . S
C208 C209 1.372 . S
C208 C213 1.364 . S
C209 H188 0.952 . S
C209 C208 1.372 . S
C209 C210 1.389 . S
C210 H189 0.949 . S
C210 C209 1.389 . S
C210 C211 1.387 . S
C211 C210 1.387 . S
C211 C212 1.372 . S
C212 H190 0.950 . S
C212 C211 1.372 . S
C212 C213 1.379 . S
C213 H191 0.948 . S
C213 C208 1.364 . S
C213 C212 1.379 . S
C214 C183 1.383 . S
C214 C201 1.479 . S
C214 C215 1.398 . S
C215 C180 1.382 . S
C215 H192 0.951 . S
C215 C214 1.398 . S
C216 C217 1.384 . S
C216 H229 0.947 . S
C216 C251 1.382 . S
C217 C216 1.384 . S
C217 C218 1.378 . S
C218 C217 1.378 . S
C218 C219 1.378 . S
C218 H230 0.952 . S
C219 C218 1.378 . S
C219 H231 0.950 . S
C219 C250 1.383 . S
H220 C239 0.947 . S
H221 C240 0.946 . S
H222 C242 0.953 . S
H223 C243 0.945 . S
H224 C245 0.952 . S
H225 C246 0.949 . S
H226 C248 0.950 . S
H227 C249 0.948 . S
H228 C251 0.951 . S
H229 C216 0.947 . S
H230 C218 0.952 . S
H231 C219 0.950 . S
N232 C235 1.382 . S
N232 C237 1.363 . S
N233 C235 1.371 . S
N233 C236 1.372 . S
N234 C236 1.361 . S
N234 C237 1.377 . S
C235 N232 1.382 . S
C235 N233 1.371 . S
C235 C238 1.480 . S
C236 N233 1.372 . S
C236 N234 1.361 . S
C236 C244 1.457 . S
C237 N232 1.363 . S
C237 N234 1.377 . S
C237 C250 1.479 . S
C238 C235 1.480 . S
C238 C239 1.383 . S
C238 C243 1.385 . S
C239 H220 0.947 . S
C239 C238 1.383 . S
C239 C240 1.388 . S
C240 H221 0.946 . S
C240 C239 1.388 . S
C240 C241 1.384 . S
C241 C240 1.384 . S
C241 C242 1.377 . S
C242 H222 0.953 . S
C242 C241 1.377 . S
C242 C243 1.369 . S
C243 H223 0.945 . S
C243 C238 1.385 . S
C243 C242 1.369 . S
C244 C236 1.457 . S
C244 C245 1.372 . S
C244 C249 1.364 . S
C245 H224 0.952 . S
C245 C244 1.372 . S
C245 C246 1.389 . S
C246 H225 0.949 . S
C246 C245 1.389 . S
C246 C247 1.387 . S
C247 C246 1.387 . S
C247 C248 1.372 . S
C248 H226 0.950 . S
C248 C247 1.372 . S
C248 C249 1.379 . S
C249 H227 0.948 . S
C249 C244 1.364 . S
C249 C248 1.379 . S
C250 C219 1.383 . S
C250 C237 1.479 . S
C250 C251 1.398 . S
C251 C216 1.382 . S
C251 H228 0.951 . S
C251 C250 1.398 . S
C252 C253 1.384 . S
C252 H265 0.947 . S
C252 C287 1.382 . S
C253 C252 1.384 . S
C253 C254 1.378 . S
C254 C253 1.378 . S
C254 C255 1.378 . S
C254 H266 0.952 . S
C255 C254 1.378 . S
C255 H267 0.950 . S
C255 C286 1.383 . S
H256 C275 0.947 . S
H257 C276 0.946 . S
H258 C278 0.953 . S
H259 C279 0.945 . S
H260 C281 0.952 . S
H261 C282 0.949 . S
H262 C284 0.950 . S
H263 C285 0.948 . S
H264 C287 0.951 . S
H265 C252 0.947 . S
H266 C254 0.952 . S
H267 C255 0.950 . S
N268 C271 1.382 . S
N268 C273 1.363 . S
N269 C271 1.371 . S
N269 C272 1.372 . S
N270 C272 1.361 . S
N270 C273 1.377 . S
C271 N268 1.382 . S
C271 N269 1.371 . S
C271 C274 1.480 . S
C272 N269 1.372 . S
C272 N270 1.361 . S
C272 C280 1.457 . S
C273 N268 1.363 . S
C273 N270 1.377 . S
C273 C286 1.479 . S
C274 C271 1.480 . S
C274 C275 1.383 . S
C274 C279 1.385 . S
C275 H256 0.947 . S
C275 C274 1.383 . S
C275 C276 1.388 . S
C276 H257 0.946 . S
C276 C275 1.388 . S
C276 C277 1.384 . S
C277 C276 1.384 . S
C277 C278 1.377 . S
C278 H258 0.953 . S
C278 C277 1.377 . S
C278 C279 1.369 . S
C279 H259 0.945 . S
C279 C274 1.385 . S
C279 C278 1.369 . S
C280 C272 1.457 . S
C280 C281 1.372 . S
C280 C285 1.364 . S
C281 H260 0.952 . S
C281 C280 1.372 . S
C281 C282 1.389 . S
C282 H261 0.949 . S
C282 C281 1.389 . S
C282 C283 1.387 . S
C283 C282 1.387 . S
C283 C284 1.372 . S
C284 H262 0.950 . S
C284 C283 1.372 . S
C284 C285 1.379 . S
C285 H263 0.948 . S
C285 C280 1.364 . S
C285 C284 1.379 . S
C286 C255 1.383 . S
C286 C273 1.479 . S
C286 C287 1.398 . S
C287 C252 1.382 . S
C287 H264 0.951 . S
C287 C286 1.398 . S
C288 C289 1.384 . S
C288 H301 0.947 . S
C288 C323 1.382 . S
C289 C288 1.384 . S
C289 C290 1.378 . S
C290 C289 1.378 . S
C290 C291 1.378 . S
C290 H302 0.952 . S
C291 C290 1.378 . S
C291 H303 0.950 . S
C291 C322 1.383 . S
H292 C311 0.947 . S
H293 C312 0.946 . S
H294 C314 0.953 . S
H295 C315 0.945 . S
H296 C317 0.952 . S
H297 C318 0.949 . S
H298 C320 0.950 . S
H299 C321 0.948 . S
H300 C323 0.951 . S
H301 C288 0.947 . S
H302 C290 0.952 . S
H303 C291 0.950 . S
N304 C307 1.382 . S
N304 C309 1.363 . S
N305 C307 1.371 . S
N305 C308 1.372 . S
N306 C308 1.361 . S
N306 C309 1.377 . S
C307 N304 1.382 . S
C307 N305 1.371 . S
C307 C310 1.480 . S
C308 N305 1.372 . S
C308 N306 1.361 . S
C308 C316 1.457 . S
C309 N304 1.363 . S
C309 N306 1.377 . S
C309 C322 1.479 . S
C310 C307 1.480 . S
C310 C311 1.383 . S
C310 C315 1.385 . S
C311 H292 0.947 . S
C311 C310 1.383 . S
C311 C312 1.388 . S
C312 H293 0.946 . S
C312 C311 1.388 . S
C312 C313 1.384 . S
C313 C312 1.384 . S
C313 C314 1.377 . S
C314 H294 0.953 . S
C314 C313 1.377 . S
C314 C315 1.369 . S
C315 H295 0.945 . S
C315 C310 1.385 . S
C315 C314 1.369 . S
C316 C308 1.457 . S
C316 C317 1.372 . S
C316 C321 1.364 . S
C317 H296 0.952 . S
C317 C316 1.372 . S
C317 C318 1.389 . S
C318 H297 0.949 . S
C318 C317 1.389 . S
C318 C319 1.387 . S
C319 C318 1.387 . S
C319 C320 1.372 . S
C320 H298 0.950 . S
C320 C319 1.372 . S
C320 C321 1.379 . S
C321 H299 0.948 . S
C321 C316 1.364 . S
C321 C320 1.379 . S
C322 C291 1.383 . S
C322 C309 1.479 . S
C322 C323 1.398 . S
C323 C288 1.382 . S
C323 H300 0.951 . S
C323 C322 1.398 . S
C324 C325 1.384 . S
C324 H337 0.947 . S
C324 C359 1.382 . S
C325 C324 1.384 . S
C325 C326 1.378 . S
C326 C325 1.378 . S
C326 C327 1.378 . S
C326 H338 0.952 . S
C327 C326 1.378 . S
C327 H339 0.950 . S
C327 C358 1.383 . S
H328 C347 0.947 . S
H329 C348 0.946 . S
H330 C350 0.953 . S
H331 C351 0.945 . S
H332 C353 0.952 . S
H333 C354 0.949 . S
H334 C356 0.950 . S
H335 C357 0.948 . S
H336 C359 0.951 . S
H337 C324 0.947 . S
H338 C326 0.952 . S
H339 C327 0.950 . S
N340 C343 1.382 . S
N340 C345 1.363 . S
N341 C343 1.371 . S
N341 C344 1.372 . S
N342 C344 1.361 . S
N342 C345 1.377 . S
C343 N340 1.382 . S
C343 N341 1.371 . S
C343 C346 1.480 . S
C344 N341 1.372 . S
C344 N342 1.361 . S
C344 C352 1.457 . S
C345 N340 1.363 . S
C345 N342 1.377 . S
C345 C358 1.479 . S
C346 C343 1.480 . S
C346 C347 1.383 . S
C346 C351 1.385 . S
C347 H328 0.947 . S
C347 C346 1.383 . S
C347 C348 1.388 . S
C348 H329 0.946 . S
C348 C347 1.388 . S
C348 C349 1.384 . S
C349 C348 1.384 . S
C349 C350 1.377 . S
C350 H330 0.953 . S
C350 C349 1.377 . S
C350 C351 1.369 . S
C351 H331 0.945 . S
C351 C346 1.385 . S
C351 C350 1.369 . S
C352 C344 1.457 . S
C352 C353 1.372 . S
C352 C357 1.364 . S
C353 H332 0.952 . S
C353 C352 1.372 . S
C353 C354 1.389 . S
C354 H333 0.949 . S
C354 C353 1.389 . S
C354 C355 1.387 . S
C355 C354 1.387 . S
C355 C356 1.372 . S
C356 H334 0.950 . S
C356 C355 1.372 . S
C356 C357 1.379 . S
C357 H335 0.948 . S
C357 C352 1.364 . S
C357 C356 1.379 . S
C358 C327 1.383 . S
C358 C345 1.479 . S
C358 C359 1.398 . S
C359 C324 1.382 . S
C359 H336 0.951 . S
C359 C358 1.398 . S
C360 C361 1.384 . S
C360 H373 0.947 . S
C360 C395 1.382 . S
C361 C360 1.384 . S
C361 C362 1.378 . S
C362 C361 1.378 . S
C362 C363 1.378 . S
C362 H374 0.952 . S
C363 C362 1.378 . S
C363 H375 0.950 . S
C363 C394 1.383 . S
H364 C383 0.947 . S
H365 C384 0.946 . S
H366 C386 0.953 . S
H367 C387 0.945 . S
H368 C389 0.952 . S
H369 C390 0.949 . S
H370 C392 0.950 . S
H371 C393 0.948 . S
H372 C395 0.951 . S
H373 C360 0.947 . S
H374 C362 0.952 . S
H375 C363 0.950 . S
N376 C379 1.382 . S
N376 C381 1.363 . S
N377 C379 1.371 . S
N377 C380 1.372 . S
N378 C380 1.361 . S
N378 C381 1.377 . S
C379 N376 1.382 . S
C379 N377 1.371 . S
C379 C382 1.480 . S
C380 N377 1.372 . S
C380 N378 1.361 . S
C380 C388 1.457 . S
C381 N376 1.363 . S
C381 N378 1.377 . S
C381 C394 1.479 . S
C382 C379 1.480 . S
C382 C383 1.383 . S
C382 C387 1.385 . S
C383 H364 0.947 . S
C383 C382 1.383 . S
C383 C384 1.388 . S
C384 H365 0.946 . S
C384 C383 1.388 . S
C384 C385 1.384 . S
C385 C384 1.384 . S
C385 C386 1.377 . S
C386 H366 0.953 . S
C386 C385 1.377 . S
C386 C387 1.369 . S
C387 H367 0.945 . S
C387 C382 1.385 . S
C387 C386 1.369 . S
C388 C380 1.457 . S
C388 C389 1.372 . S
C388 C393 1.364 . S
C389 H368 0.952 . S
C389 C388 1.372 . S
C389 C390 1.389 . S
C390 H369 0.949 . S
C390 C389 1.389 . S
C390 C391 1.387 . S
C391 C390 1.387 . S
C391 C392 1.372 . S
C392 H370 0.950 . S
C392 C391 1.372 . S
C392 C393 1.379 . S
C393 H371 0.948 . S
C393 C388 1.364 . S
C393 C392 1.379 . S
C394 C363 1.383 . S
C394 C381 1.479 . S
C394 C395 1.398 . S
C395 C360 1.382 . S
C395 H372 0.951 . S
C395 C394 1.398 . S
C396 C397 1.384 . S
C396 H409 0.947 . S
C396 C431 1.382 . S
C397 C396 1.384 . S
C397 C398 1.378 . S
C398 C397 1.378 . S
C398 C399 1.378 . S
C398 H410 0.952 . S
C399 C398 1.378 . S
C399 H411 0.950 . S
C399 C430 1.383 . S
H400 C419 0.947 . S
H401 C420 0.946 . S
H402 C422 0.953 . S
H403 C423 0.945 . S
H404 C425 0.952 . S
H405 C426 0.949 . S
H406 C428 0.950 . S
H407 C429 0.948 . S
H408 C431 0.951 . S
H409 C396 0.947 . S
H410 C398 0.952 . S
H411 C399 0.950 . S
N412 C415 1.382 . S
N412 C417 1.363 . S
N413 C415 1.371 . S
N413 C416 1.372 . S
N414 C416 1.361 . S
N414 C417 1.377 . S
C415 N412 1.382 . S
C415 N413 1.371 . S
C415 C418 1.480 . S
C416 N413 1.372 . S
C416 N414 1.361 . S
C416 C424 1.457 . S
C417 N412 1.363 . S
C417 N414 1.377 . S
C417 C430 1.479 . S
C418 C415 1.480 . S
C418 C419 1.383 . S
C418 C423 1.385 . S
C419 H400 0.947 . S
C419 C418 1.383 . S
C419 C420 1.388 . S
C420 H401 0.946 . S
C420 C419 1.388 . S
C420 C421 1.384 . S
C421 C420 1.384 . S
C421 C422 1.377 . S
C422 H402 0.953 . S
C422 C421 1.377 . S
C422 C423 1.369 . S
C423 H403 0.945 . S
C423 C418 1.385 . S
C423 C422 1.369 . S
C424 C416 1.457 . S
C424 C425 1.372 . S
C424 C429 1.364 . S
C425 H404 0.952 . S
C425 C424 1.372 . S
C425 C426 1.389 . S
C426 H405 0.949 . S
C426 C425 1.389 . S
C426 C427 1.387 . S
C427 C426 1.387 . S
C427 C428 1.372 . S
C428 H406 0.950 . S
C428 C427 1.372 . S
C428 C429 1.379 . S
C429 H407 0.948 . S
C429 C424 1.364 . S
C429 C428 1.379 . S
C430 C399 1.383 . S
C430 C417 1.479 . S
C430 C431 1.398 . S
C431 C396 1.382 . S
C431 H408 0.951 . S
C431 C430 1.398 . S
C432 C433 1.384 . S
C432 H445 0.947 . S
C432 C467 1.382 . S
C433 C432 1.384 . S
C433 C434 1.378 . S
C434 C433 1.378 . S
C434 C435 1.378 . S
C434 H446 0.952 . S
C435 C434 1.378 . S
C435 H447 0.950 . S
C435 C466 1.383 . S
H436 C455 0.947 . S
H437 C456 0.946 . S
H438 C458 0.953 . S
H439 C459 0.945 . S
H440 C461 0.952 . S
H441 C462 0.949 . S
H442 C464 0.950 . S
H443 C465 0.948 . S
H444 C467 0.951 . S
H445 C432 0.947 . S
H446 C434 0.952 . S
H447 C435 0.950 . S
N448 C451 1.382 . S
N448 C453 1.363 . S
N449 C451 1.371 . S
N449 C452 1.372 . S
N450 C452 1.361 . S
N450 C453 1.377 . S
C451 N448 1.382 . S
C451 N449 1.371 . S
C451 C454 1.480 . S
C452 N449 1.372 . S
C452 N450 1.361 . S
C452 C460 1.457 . S
C453 N448 1.363 . S
C453 N450 1.377 . S
C453 C466 1.479 . S
C454 C451 1.480 . S
C454 C455 1.383 . S
C454 C459 1.385 . S
C455 H436 0.947 . S
C455 C454 1.383 . S
C455 C456 1.388 . S
C456 H437 0.946 . S
C456 C455 1.388 . S
C456 C457 1.384 . S
C457 C456 1.384 . S
C457 C458 1.377 . S
C458 H438 0.953 . S
C458 C457 1.377 . S
C458 C459 1.369 . S
C459 H439 0.945 . S
C459 C454 1.385 . S
C459 C458 1.369 . S
C460 C452 1.457 . S
C460 C461 1.372 . S
C460 C465 1.364 . S
C461 H440 0.952 . S
C461 C460 1.372 . S
C461 C462 1.389 . S
C462 H441 0.949 . S
C462 C461 1.389 . S
C462 C463 1.387 . S
C463 C462 1.387 . S
C463 C464 1.372 . S
C464 H442 0.950 . S
C464 C463 1.372 . S
C464 C465 1.379 . S
C465 H443 0.948 . S
C465 C460 1.364 . S
C465 C464 1.379 . S
C466 C435 1.383 . S
C466 C453 1.479 . S
C466 C467 1.398 . S
C467 C432 1.382 . S
C467 H444 0.951 . S
C467 C466 1.398 . S
C468 C469 1.384 . S
C468 H481 0.947 . S
C468 C503 1.382 . S
C469 C468 1.384 . S
C469 C470 1.378 . S
C470 C469 1.378 . S
C470 C471 1.378 . S
C470 H482 0.952 . S
C471 C470 1.378 . S
C471 H483 0.950 . S
C471 C502 1.383 . S
H472 C491 0.947 . S
H473 C492 0.946 . S
H474 C494 0.953 . S
H475 C495 0.945 . S
H476 C497 0.952 . S
H477 C498 0.949 . S
H478 C500 0.950 . S
H479 C501 0.948 . S
H480 C503 0.951 . S
H481 C468 0.947 . S
H482 C470 0.952 . S
H483 C471 0.950 . S
N484 C487 1.382 . S
N484 C489 1.363 . S
N485 C487 1.371 . S
N485 C488 1.372 . S
N486 C488 1.361 . S
N486 C489 1.377 . S
C487 N484 1.382 . S
C487 N485 1.371 . S
C487 C490 1.480 . S
C488 N485 1.372 . S
C488 N486 1.361 . S
C488 C496 1.457 . S
C489 N484 1.363 . S
C489 N486 1.377 . S
C489 C502 1.479 . S
C490 C487 1.480 . S
C490 C491 1.383 . S
C490 C495 1.385 . S
C491 H472 0.947 . S
C491 C490 1.383 . S
C491 C492 1.388 . S
C492 H473 0.946 . S
C492 C491 1.388 . S
C492 C493 1.384 . S
C493 C492 1.384 . S
C493 C494 1.377 . S
C494 H474 0.953 . S
C494 C493 1.377 . S
C494 C495 1.369 . S
C495 H475 0.945 . S
C495 C490 1.385 . S
C495 C494 1.369 . S
C496 C488 1.457 . S
C496 C497 1.372 . S
C496 C501 1.364 . S
C497 H476 0.952 . S
C497 C496 1.372 . S
C497 C498 1.389 . S
C498 H477 0.949 . S
C498 C497 1.389 . S
C498 C499 1.387 . S
C499 C498 1.387 . S
C499 C500 1.372 . S
C500 H478 0.950 . S
C500 C499 1.372 . S
C500 C501 1.379 . S
C501 H479 0.948 . S
C501 C496 1.364 . S
C501 C500 1.379 . S
C502 C471 1.383 . S
C502 C489 1.479 . S
C502 C503 1.398 . S
C503 C468 1.382 . S
C503 H480 0.951 . S
C503 C502 1.398 . S
C504 C505 1.384 . S
C504 H517 0.947 . S
C504 C539 1.382 . S
C505 C504 1.384 . S
C505 C506 1.378 . S
C506 C505 1.378 . S
C506 C507 1.378 . S
C506 H518 0.952 . S
C507 C506 1.378 . S
C507 H519 0.950 . S
C507 C538 1.383 . S
H508 C527 0.947 . S
H509 C528 0.946 . S
H510 C530 0.953 . S
H511 C531 0.945 . S
H512 C533 0.952 . S
H513 C534 0.949 . S
H514 C536 0.950 . S
H515 C537 0.948 . S
H516 C539 0.951 . S
H517 C504 0.947 . S
H518 C506 0.952 . S
H519 C507 0.950 . S
N520 C523 1.382 . S
N520 C525 1.363 . S
N521 C523 1.371 . S
N521 C524 1.372 . S
N522 C524 1.361 . S
N522 C525 1.377 . S
C523 N520 1.382 . S
C523 N521 1.371 . S
C523 C526 1.480 . S
C524 N521 1.372 . S
C524 N522 1.361 . S
C524 C532 1.457 . S
C525 N520 1.363 . S
C525 N522 1.377 . S
C525 C538 1.479 . S
C526 C523 1.480 . S
C526 C527 1.383 . S
C526 C531 1.385 . S
C527 H508 0.947 . S
C527 C526 1.383 . S
C527 C528 1.388 . S
C528 H509 0.946 . S
C528 C527 1.388 . S
C528 C529 1.384 . S
C529 C528 1.384 . S
C529 C530 1.377 . S
C530 H510 0.953 . S
C530 C529 1.377 . S
C530 C531 1.369 . S
C531 H511 0.945 . S
C531 C526 1.385 . S
C531 C530 1.369 . S
C532 C524 1.457 . S
C532 C533 1.372 . S
C532 C537 1.364 . S
C533 H512 0.952 . S
C533 C532 1.372 . S
C533 C534 1.389 . S
C534 H513 0.949 . S
C534 C533 1.389 . S
C534 C535 1.387 . S
C535 C534 1.387 . S
C535 C536 1.372 . S
C536 H514 0.950 . S
C536 C535 1.372 . S
C536 C537 1.379 . S
C537 H515 0.948 . S
C537 C532 1.364 . S
C537 C536 1.379 . S
C538 C507 1.383 . S
C538 C525 1.479 . S
C538 C539 1.398 . S
C539 C504 1.382 . S
C539 H516 0.951 . S
C539 C538 1.398 . S
C540 C541 1.384 . S
C540 H553 0.947 . S
C540 C575 1.382 . S
C541 C540 1.384 . S
C541 C542 1.378 . S
C542 C541 1.378 . S
C542 C543 1.378 . S
C542 H554 0.952 . S
C543 C542 1.378 . S
C543 H555 0.950 . S
C543 C574 1.383 . S
H544 C563 0.947 . S
H545 C564 0.946 . S
H546 C566 0.953 . S
H547 C567 0.945 . S
H548 C569 0.952 . S
H549 C570 0.949 . S
H550 C572 0.950 . S
H551 C573 0.948 . S
H552 C575 0.951 . S
H553 C540 0.947 . S
H554 C542 0.952 . S
H555 C543 0.950 . S
N556 C559 1.382 . S
N556 C561 1.363 . S
N557 C559 1.371 . S
N557 C560 1.372 . S
N558 C560 1.361 . S
N558 C561 1.377 . S
C559 N556 1.382 . S
C559 N557 1.371 . S
C559 C562 1.480 . S
C560 N557 1.372 . S
C560 N558 1.361 . S
C560 C568 1.457 . S
C561 N556 1.363 . S
C561 N558 1.377 . S
C561 C574 1.479 . S
C562 C559 1.480 . S
C562 C563 1.383 . S
C562 C567 1.385 . S
C563 H544 0.947 . S
C563 C562 1.383 . S
C563 C564 1.388 . S
C564 H545 0.946 . S
C564 C563 1.388 . S
C564 C565 1.384 . S
C565 C564 1.384 . S
C565 C566 1.377 . S
C566 H546 0.953 . S
C566 C565 1.377 . S
C566 C567 1.369 . S
C567 H547 0.945 . S
C567 C562 1.385 . S
C567 C566 1.369 . S
C568 C560 1.457 . S
C568 C569 1.372 . S
C568 C573 1.364 . S
C569 H548 0.952 . S
C569 C568 1.372 . S
C569 C570 1.389 . S
C570 H549 0.949 . S
C570 C569 1.389 . S
C570 C571 1.387 . S
C571 C570 1.387 . S
C571 C572 1.372 . S
C572 H550 0.950 . S
C572 C571 1.372 . S
C572 C573 1.379 . S
C573 H551 0.948 . S
C573 C568 1.364 . S
C573 C572 1.379 . S
C574 C543 1.383 . S
C574 C561 1.479 . S
C574 C575 1.398 . S
C575 C540 1.382 . S
C575 H552 0.951 . S
C575 C574 1.398 . S
C576 C577 1.384 . S
C576 H589 0.947 . S
C576 C611 1.382 . S
C577 C576 1.384 . S
C577 C578 1.378 . S
C578 C577 1.378 . S
C578 C579 1.378 . S
C578 H590 0.952 . S
C579 C578 1.378 . S
C579 H591 0.950 . S
C579 C610 1.383 . S
H580 C599 0.947 . S
H581 C600 0.946 . S
H582 C602 0.953 . S
H583 C603 0.945 . S
H584 C605 0.952 . S
H585 C606 0.949 . S
H586 C608 0.950 . S
H587 C609 0.948 . S
H588 C611 0.951 . S
H589 C576 0.947 . S
H590 C578 0.952 . S
H591 C579 0.950 . S
N592 C595 1.382 . S
N592 C597 1.363 . S
N593 C595 1.371 . S
N593 C596 1.372 . S
N594 C596 1.361 . S
N594 C597 1.377 . S
C595 N592 1.382 . S
C595 N593 1.371 . S
C595 C598 1.480 . S
C596 N593 1.372 . S
C596 N594 1.361 . S
C596 C604 1.457 . S
C597 N592 1.363 . S
C597 N594 1.377 . S
C597 C610 1.479 . S
C598 C595 1.480 . S
C598 C599 1.383 . S
C598 C603 1.385 . S
C599 H580 0.947 . S
C599 C598 1.383 . S
C599 C600 1.388 . S
C600 H581 0.946 . S
C600 C599 1.388 . S
C600 C601 1.384 . S
C601 C600 1.384 . S
C601 C602 1.377 . S
C602 H582 0.953 . S
C602 C601 1.377 . S
C602 C603 1.369 . S
C603 H583 0.945 . S
C603 C598 1.385 . S
C603 C602 1.369 . S
C604 C596 1.457 . S
C604 C605 1.372 . S
C604 C609 1.364 . S
C605 H584 0.952 . S
C605 C604 1.372 . S
C605 C606 1.389 . S
C606 H585 0.949 . S
C606 C605 1.389 . S
C606 C607 1.387 . S
C607 C606 1.387 . S
C607 C608 1.372 . S
C608 H586 0.950 . S
C608 C607 1.372 . S
C608 C609 1.379 . S
C609 H587 0.948 . S
C609 C604 1.364 . S
C609 C608 1.379 . S
C610 C579 1.383 . S
C610 C597 1.479 . S
C610 C611 1.398 . S
C611 C576 1.382 . S
C611 H588 0.951 . S
C611 C610 1.398 . S
C612 C613 1.384 . S
C612 H625 0.947 . S
C612 C647 1.382 . S
C613 C612 1.384 . S
C613 C614 1.378 . S
C614 C613 1.378 . S
C614 C615 1.378 . S
C614 H626 0.952 . S
C615 C614 1.378 . S
C615 H627 0.950 . S
C615 C646 1.383 . S
H616 C635 0.947 . S
H617 C636 0.946 . S
H618 C638 0.953 . S
H619 C639 0.945 . S
H620 C641 0.952 . S
H621 C642 0.949 . S
H622 C644 0.950 . S
H623 C645 0.948 . S
H624 C647 0.951 . S
H625 C612 0.947 . S
H626 C614 0.952 . S
H627 C615 0.950 . S
N628 C631 1.382 . S
N628 C633 1.363 . S
N629 C631 1.371 . S
N629 C632 1.372 . S
N630 C632 1.361 . S
N630 C633 1.377 . S
C631 N628 1.382 . S
C631 N629 1.371 . S
C631 C634 1.480 . S
C632 N629 1.372 . S
C632 N630 1.361 . S
C632 C640 1.457 . S
C633 N628 1.363 . S
C633 N630 1.377 . S
C633 C646 1.479 . S
C634 C631 1.480 . S
C634 C635 1.383 . S
C634 C639 1.385 . S
C635 H616 0.947 . S
C635 C634 1.383 . S
C635 C636 1.388 . S
C636 H617 0.946 . S
C636 C635 1.388 . S
C636 C637 1.384 . S
C637 C636 1.384 . S
C637 C638 1.377 . S
C638 H618 0.953 . S
C638 C637 1.377 . S
C638 C639 1.369 . S
C639 H619 0.945 . S
C639 C634 1.385 . S
C639 C638 1.369 . S
C640 C632 1.457 . S
C640 C641 1.372 . S
C640 C645 1.364 . S
C641 H620 0.952 . S
C641 C640 1.372 . S
C641 C642 1.389 . S
C642 H621 0.949 . S
C642 C641 1.389 . S
C642 C643 1.387 . S
C643 C642 1.387 . S
C643 C644 1.372 . S
C644 H622 0.950 . S
C644 C643 1.372 . S
C644 C645 1.379 . S
C645 H623 0.948 . S
C645 C640 1.364 . S
C645 C644 1.379 . S
C646 C615 1.383 . S
C646 C633 1.479 . S
C646 C647 1.398 . S
C647 C612 1.382 . S
C647 H624 0.951 . S
C647 C646 1.398 . S
C648 Eu649 2.835 . S
C648 C650 1.500 . S
C648 O668 1.257 1_545 S
C648 O669 1.260 . S
Eu649 C648 2.835 . S
Eu649 O668 2.473 1_545 S
Eu649 O669 2.480 . S
Eu649 O670 2.430 . S
Eu649 O671 2.670 1_554 S
Eu649 O672 2.394 1_545 S
Eu649 O677 2.355 1_545 S
Eu649 O679 2.374 . S
C650 C648 1.500 . S
C650 C651 1.377 . S
C650 C655 1.377 1_545 S
C651 C650 1.377 . S
C651 C652 1.395 . S
C651 H680 0.931 . S
C652 C651 1.395 . S
C652 C653 1.383 1_545 S
C652 H681 0.931 . S
C653 C652 1.383 1_565 S
C653 C654 1.394 . S
C654 C653 1.394 . S
C654 C655 1.378 . S
C654 H682 0.931 . S
C655 C650 1.377 1_565 S
C655 C654 1.378 . S
C655 H683 0.931 . S
C656 O670 1.213 1_556 S
C656 O671 1.288 . S
C657 O672 1.251 . S
C657 O673 1.251 1_554 S
C658 Eu659 2.835 . S
C658 C660 1.500 . S
C658 O674 1.257 1_565 S
C658 O675 1.260 . S
Eu659 C658 2.835 . S
Eu659 O671 2.355 1_565 S
Eu659 O673 2.374 . S
Eu659 O674 2.473 1_565 S
Eu659 O675 2.480 . S
Eu659 O676 2.430 . S
Eu659 O677 2.670 1_556 S
Eu659 O678 2.394 1_565 S
C660 C658 1.500 . S
C660 C661 1.377 . S
C660 C665 1.377 1_565 S
C661 C660 1.377 . S
C661 C662 1.395 . S
C661 H684 0.931 . S
C662 C661 1.395 . S
C662 C663 1.383 1_565 S
C662 H685 0.931 . S
C663 C662 1.383 1_545 S
C663 C664 1.394 . S
C664 C663 1.394 . S
C664 C665 1.378 . S
C664 H686 0.931 . S
C665 C660 1.377 1_545 S
C665 C664 1.378 . S
C665 H687 0.931 . S
C666 O676 1.259 1_554 S
C666 O677 1.270 . S
C667 O678 1.251 . S
C667 O679 1.251 1_556 S
O668 C648 1.257 1_565 S
O668 Eu649 2.473 1_565 S
O669 C648 1.260 . S
O669 Eu649 2.480 . S
O670 Eu649 2.430 . S
O670 C656 1.213 1_554 S
O671 Eu649 2.670 1_556 S
O671 C656 1.288 . S
O671 Eu659 2.355 1_545 S
O672 Eu649 2.394 1_565 S
O672 C657 1.251 . S
O673 C657 1.251 1_556 S
O673 Eu659 2.374 . S
O674 C658 1.257 1_545 S
O674 Eu659 2.473 1_545 S
O675 C658 1.260 . S
O675 Eu659 2.480 . S
O676 Eu659 2.430 . S
O676 C666 1.259 1_556 S
O677 Eu649 2.355 1_565 S
O677 Eu659 2.670 1_554 S
O677 C666 1.270 . S
O678 Eu659 2.394 1_545 S
O678 C667 1.251 . S
O679 Eu649 2.374 . S
O679 C667 1.251 1_554 S
H680 C651 0.931 . S
H681 C652 0.931 . S
H682 C654 0.931 . S
H683 C655 0.931 . S
H684 C661 0.931 . S
H685 C662 0.931 . S
H686 C664 0.931 . S
H687 C665 0.931 . S
C688 Eu689 2.835 . S
C688 C690 1.500 1_655 S
C688 O708 1.257 1_655 S
C688 O709 1.260 . S
Eu689 C688 2.835 . S
Eu689 O708 2.473 1_655 S
Eu689 O709 2.480 . S
Eu689 O710 2.430 . S
Eu689 O711 2.670 1_554 S
Eu689 O712 2.394 1_655 S
Eu689 O717 2.355 1_655 S
Eu689 O719 2.374 . S
C690 C688 1.500 1_455 S
C690 C691 1.377 1_455 S
C690 C695 1.377 . S
C691 C690 1.377 1_655 S
C691 C692 1.395 . S
C691 H720 0.931 . S
C692 C691 1.395 . S
C692 C693 1.383 1_655 S
C692 H721 0.931 . S
C693 C692 1.383 1_455 S
C693 C694 1.394 . S
C694 C693 1.394 . S
C694 C695 1.378 . S
C694 H722 0.931 . S
C695 C690 1.377 . S
C695 C694 1.378 . S
C695 H723 0.931 . S
C696 O710 1.259 1_556 S
C696 O711 1.270 . S
C697 O712 1.251 . S
C697 O713 1.251 . S
C698 Eu699 2.835 . S
C698 C700 1.500 1_455 S
C698 O714 1.257 1_455 S
C698 O715 1.260 . S
Eu699 C698 2.835 . S
Eu699 O711 2.355 1_455 S
Eu699 O713 2.374 1_556 S
Eu699 O714 2.473 1_455 S
Eu699 O715 2.480 . S
Eu699 O716 2.430 . S
Eu699 O717 2.670 1_556 S
Eu699 O718 2.394 1_455 S
C700 C698 1.500 1_655 S
C700 C701 1.377 1_655 S
C700 C705 1.377 . S
C701 C700 1.377 1_455 S
C701 C702 1.395 . S
C701 H724 0.931 . S
C702 C701 1.395 . S
C702 C703 1.383 1_455 S
C702 H725 0.931 . S
C703 C702 1.383 1_655 S
C703 C704 1.394 . S
C704 C703 1.394 . S
C704 C705 1.378 . S
C704 H726 0.931 . S
C705 C700 1.377 . S
C705 C704 1.378 . S
C705 H727 0.931 . S
C706 O716 1.259 1_554 S
C706 O717 1.270 . S
C707 O718 1.251 . S
C707 O719 1.251 1_556 S
O708 C688 1.257 1_455 S
O708 Eu689 2.473 1_455 S
O709 C688 1.260 . S
O709 Eu689 2.480 . S
O710 Eu689 2.430 . S
O710 C696 1.259 1_554 S
O711 Eu689 2.670 1_556 S
O711 C696 1.270 . S
O711 Eu699 2.355 1_655 S
O712 Eu689 2.394 1_455 S
O712 C697 1.251 . S
O713 C697 1.251 . S
O713 Eu699 2.374 1_554 S
O714 C698 1.257 1_655 S
O714 Eu699 2.473 1_655 S
O715 C698 1.260 . S
O715 Eu699 2.480 . S
O716 Eu699 2.430 . S
O716 C706 1.259 1_556 S
O717 Eu689 2.355 1_455 S
O717 Eu699 2.670 1_554 S
O717 C706 1.270 . S
O718 Eu699 2.394 1_655 S
O718 C707 1.251 . S
O719 Eu689 2.374 . S
O719 C707 1.251 1_554 S
H720 C691 0.931 . S
H721 C692 0.931 . S
H722 C694 0.931 . S
H723 C695 0.931 . S
H724 C701 0.931 . S
H725 C702 0.931 . S
H726 C704 0.931 . S
H727 C705 0.931 . S
C728 Eu729 2.835 . S
C728 C730 1.500 . S
C728 O748 1.257 . S
C728 O749 1.260 . S
Eu729 C728 2.835 . S
Eu729 O748 2.473 . S
Eu729 O749 2.480 . S
Eu729 O750 2.430 . S
Eu729 O751 2.670 1_556 S
Eu729 O752 2.394 . S
Eu729 O757 2.355 . S
Eu729 O759 2.383 . S
C730 C728 1.500 . S
C730 C731 1.377 . S
C730 C735 1.377 . S
C731 C730 1.377 . S
C731 C732 1.395 . S
C731 H760 0.931 . S
C732 C731 1.395 . S
C732 C733 1.383 . S
C732 H761 0.931 . S
C733 C732 1.383 . S
C733 C734 1.394 . S
C734 C733 1.394 . S
C734 C735 1.378 . S
C734 H762 0.931 . S
C735 C730 1.377 . S
C735 C734 1.378 . S
C735 H763 0.931 . S
C736 O750 1.259 1_554 S
C736 O751 1.270 . S
C737 O752 1.251 . S
C737 O753 1.251 1_556 S
C738 Eu739 2.835 . S
C738 C740 1.500 . S
C738 O754 1.257 . S
C738 O755 1.260 . S
Eu739 C738 2.835 . S
Eu739 O751 2.355 . S
Eu739 O753 2.374 . S
Eu739 O754 2.473 . S
Eu739 O755 2.480 . S
Eu739 O756 2.430 . S
Eu739 O757 2.670 1_554 S
Eu739 O758 2.394 . S
C740 C738 1.500 . S
C740 C741 1.377 . S
C740 C745 1.377 . S
C741 C740 1.377 . S
C741 C742 1.395 . S
C741 H764 0.931 . S
C742 C741 1.395 . S
C742 C743 1.383 . S
C742 H765 0.931 . S
C743 C742 1.383 . S
C743 C744 1.394 . S
C744 C743 1.394 . S
C744 C745 1.378 . S
C744 H766 0.931 . S
C745 C740 1.377 . S
C745 C744 1.378 . S
C745 H767 0.931 . S
C746 O756 1.259 1_556 S
C746 O757 1.270 . S
C747 O758 1.251 . S
C747 O759 1.239 1_554 S
O748 C728 1.257 . S
O748 Eu729 2.473 . S
O749 C728 1.260 . S
O749 Eu729 2.480 . S
O750 Eu729 2.430 . S
O750 C736 1.259 1_556 S
O751 Eu729 2.670 1_554 S
O751 C736 1.270 . S
O751 Eu739 2.355 . S
O752 Eu729 2.394 . S
O752 C737 1.251 . S
O753 C737 1.251 1_554 S
O753 Eu739 2.374 . S
O754 C738 1.257 . S
O754 Eu739 2.473 . S
O755 C738 1.260 . S
O755 Eu739 2.480 . S
O756 Eu739 2.430 . S
O756 C746 1.259 1_554 S
O757 Eu729 2.355 . S
O757 Eu739 2.670 1_556 S
O757 C746 1.270 . S
O758 Eu739 2.394 . S
O758 C747 1.251 . S
O759 Eu729 2.383 . S
O759 C747 1.239 1_556 S
H760 C731 0.931 . S
H761 C732 0.931 . S
H762 C734 0.931 . S
H763 C735 0.931 . S
H764 C741 0.931 . S
H765 C742 0.931 . S
H766 C744 0.931 . S
H767 C745 0.931 . S
C768 Eu769 2.835 . S
C768 C770 1.500 . S
C768 O788 1.257 . S
C768 O789 1.260 . S
Eu769 C768 2.835 . S
Eu769 O788 2.473 . S
Eu769 O789 2.480 . S
Eu769 O790 2.430 . S
Eu769 O791 2.670 . S
Eu769 O792 2.394 . S
Eu769 O797 2.355 . S
Eu769 O799 2.374 . S
C770 C768 1.500 . S
C770 C771 1.377 . S
C770 C775 1.377 . S
C771 C770 1.377 . S
C771 C772 1.395 . S
C771 H800 0.931 . S
C772 C771 1.395 . S
C772 C773 1.383 . S
C772 H801 0.931 . S
C773 C772 1.383 . S
C773 C774 1.394 . S
C774 C773 1.394 . S
C774 C775 1.378 . S
C774 H802 0.931 . S
C775 C770 1.377 . S
C775 C774 1.378 . S
C775 H803 0.931 . S
C776 O790 1.259 . S
C776 O791 1.270 . S
C777 O792 1.251 . S
C777 O793 1.251 . S
C778 Eu779 2.835 . S
C778 C780 1.500 . S
C778 O794 1.257 . S
C778 O795 1.260 . S
Eu779 C778 2.835 . S
Eu779 O791 2.355 . S
Eu779 O793 2.374 . S
Eu779 O794 2.473 . S
Eu779 O795 2.480 . S
Eu779 O796 2.430 . S
Eu779 O797 2.670 . S
Eu779 O798 2.394 . S
C780 C778 1.500 . S
C780 C781 1.377 . S
C780 C785 1.377 . S
C781 C780 1.377 . S
C781 C782 1.395 . S
C781 H804 0.931 . S
C782 C781 1.395 . S
C782 C783 1.383 . S
C782 H805 0.931 . S
C783 C782 1.383 . S
C783 C784 1.394 . S
C784 C783 1.394 . S
C784 C785 1.378 . S
C784 H806 0.931 . S
C785 C780 1.377 . S
C785 C784 1.378 . S
C785 H807 0.931 . S
C786 O796 1.259 . S
C786 O797 1.270 . S
C787 O798 1.251 . S
C787 O799 1.251 . S
O788 C768 1.257 . S
O788 Eu769 2.473 . S
O789 C768 1.260 . S
O789 Eu769 2.480 . S
O790 Eu769 2.430 . S
O790 C776 1.259 . S
O791 Eu769 2.670 . S
O791 C776 1.270 . S
O791 Eu779 2.355 . S
O792 Eu769 2.394 . S
O792 C777 1.251 . S
O793 C777 1.251 . S
O793 Eu779 2.374 . S
O794 C778 1.257 . S
O794 Eu779 2.473 . S
O795 C778 1.260 . S
O795 Eu779 2.480 . S
O796 Eu779 2.430 . S
O796 C786 1.259 . S
O797 Eu769 2.355 . S
O797 Eu779 2.670 . S
O797 C786 1.270 . S
O798 Eu779 2.394 . S
O798 C787 1.251 . S
O799 Eu769 2.374 . S
O799 C787 1.251 . S
H800 C771 0.931 . S
H801 C772 0.931 . S
H802 C774 0.931 . S
H803 C775 0.931 . S
H804 C781 0.931 . S
H805 C782 0.931 . S
H806 C784 0.931 . S
H807 C785 0.931 . S
C808 Eu809 2.835 . S
C808 C810 1.500 . S
C808 O828 1.257 . S
C808 O829 1.260 . S
Eu809 C808 2.835 . S
Eu809 O828 2.473 . S
Eu809 O829 2.480 . S
Eu809 O830 2.430 . S
Eu809 O831 2.670 . S
Eu809 O832 2.394 . S
Eu809 O837 2.355 . S
Eu809 O839 2.374 . S
C810 C808 1.500 . S
C810 C811 1.377 . S
C810 C815 1.377 . S
C811 C810 1.377 . S
C811 C812 1.395 . S
C811 H840 0.931 . S
C812 C811 1.395 . S
C812 C813 1.383 . S
C812 H841 0.931 . S
C813 C812 1.383 . S
C813 C814 1.394 . S
C814 C813 1.394 . S
C814 C815 1.378 . S
C814 H842 0.931 . S
C815 C810 1.377 . S
C815 C814 1.378 . S
C815 H843 0.931 . S
C816 O830 1.259 . S
C816 O831 1.270 . S
C817 O832 1.251 . S
C817 O833 1.251 . S
C818 Eu819 2.835 . S
C818 C820 1.500 . S
C818 O834 1.257 . S
C818 O835 1.260 . S
Eu819 C818 2.835 . S
Eu819 O831 2.355 . S
Eu819 O833 2.374 . S
Eu819 O834 2.473 . S
Eu819 O835 2.480 . S
Eu819 O836 2.430 . S
Eu819 O837 2.670 . S
Eu819 O838 2.394 . S
C820 C818 1.500 . S
C820 C821 1.377 . S
C820 C825 1.377 . S
C821 C820 1.377 . S
C821 C822 1.395 . S
C821 H844 0.931 . S
C822 C821 1.395 . S
C822 C823 1.383 . S
C822 H845 0.931 . S
C823 C822 1.383 . S
C823 C824 1.394 . S
C824 C823 1.394 . S
C824 C825 1.378 . S
C824 H846 0.931 . S
C825 C820 1.377 . S
C825 C824 1.378 . S
C825 H847 0.931 . S
C826 O836 1.259 . S
C826 O837 1.270 . S
C827 O838 1.251 . S
C827 O839 1.251 . S
O828 C808 1.257 . S
O828 Eu809 2.473 . S
O829 C808 1.260 . S
O829 Eu809 2.480 . S
O830 Eu809 2.430 . S
O830 C816 1.259 . S
O831 Eu809 2.670 . S
O831 C816 1.270 . S
O831 Eu819 2.355 . S
O832 Eu809 2.394 . S
O832 C817 1.251 . S
O833 C817 1.251 . S
O833 Eu819 2.374 . S
O834 C818 1.257 . S
O834 Eu819 2.473 . S
O835 C818 1.260 . S
O835 Eu819 2.480 . S
O836 Eu819 2.430 . S
O836 C826 1.259 . S
O837 Eu809 2.355 . S
O837 Eu819 2.670 . S
O837 C826 1.270 . S
O838 Eu819 2.394 . S
O838 C827 1.251 . S
O839 Eu809 2.374 . S
O839 C827 1.251 . S
H840 C811 0.931 . S
H841 C812 0.931 . S
H842 C814 0.931 . S
H843 C815 0.931 . S
H844 C821 0.931 . S
H845 C822 0.931 . S
H846 C824 0.931 . S
H847 C825 0.931 . S
C848 Eu849 2.835 . S
C848 C850 1.500 . S
C848 O868 1.257 . S
C848 O869 1.260 . S
Eu849 C848 2.835 . S
Eu849 O868 2.473 . S
Eu849 O869 2.480 . S
Eu849 O870 2.430 . S
Eu849 O871 2.670 . S
Eu849 O872 2.394 . S
Eu849 O877 2.355 . S
Eu849 O879 2.374 . S
C850 C848 1.500 . S
C850 C851 1.377 . S
C850 C855 1.377 . S
C851 C850 1.377 . S
C851 C852 1.395 . S
C851 H880 0.931 . S
C852 C851 1.395 . S
C852 C853 1.383 . S
C852 H881 0.931 . S
C853 C852 1.383 . S
C853 C854 1.394 . S
C854 C853 1.394 . S
C854 C855 1.378 . S
C854 H882 0.931 . S
C855 C850 1.377 . S
C855 C854 1.378 . S
C855 H883 0.931 . S
C856 O870 1.259 . S
C856 O871 1.270 . S
C857 O872 1.251 . S
C857 O873 1.251 . S
C858 Eu859 2.835 . S
C858 C860 1.500 . S
C858 O874 1.257 . S
C858 O875 1.260 . S
Eu859 C858 2.835 . S
Eu859 O871 2.355 . S
Eu859 O873 2.374 . S
Eu859 O874 2.473 . S
Eu859 O875 2.480 . S
Eu859 O876 2.430 . S
Eu859 O877 2.670 . S
Eu859 O878 2.394 . S
C860 C858 1.500 . S
C860 C861 1.377 . S
C860 C865 1.377 . S
C861 C860 1.377 . S
C861 C862 1.395 . S
C861 H884 0.931 . S
C862 C861 1.395 . S
C862 C863 1.383 . S
C862 H885 0.931 . S
C863 C862 1.383 . S
C863 C864 1.394 . S
C864 C863 1.394 . S
C864 C865 1.378 . S
C864 H886 0.931 . S
C865 C860 1.377 . S
C865 C864 1.378 . S
C865 H887 0.931 . S
C866 O876 1.259 . S
C866 O877 1.270 . S
C867 O878 1.251 . S
C867 O879 1.251 . S
O868 C848 1.257 . S
O868 Eu849 2.473 . S
O869 C848 1.260 . S
O869 Eu849 2.480 . S
O870 Eu849 2.430 . S
O870 C856 1.259 . S
O871 Eu849 2.670 . S
O871 C856 1.270 . S
O871 Eu859 2.355 . S
O872 Eu849 2.394 . S
O872 C857 1.251 . S
O873 C857 1.251 . S
O873 Eu859 2.374 . S
O874 C858 1.257 . S
O874 Eu859 2.473 . S
O875 C858 1.260 . S
O875 Eu859 2.480 . S
O876 Eu859 2.430 . S
O876 C866 1.259 . S
O877 Eu849 2.355 . S
O877 Eu859 2.670 . S
O877 C866 1.270 . S
O878 Eu859 2.394 . S
O878 C867 1.251 . S
O879 Eu849 2.374 . S
O879 C867 1.251 . S
H880 C851 0.931 . S
H881 C852 0.931 . S
H882 C854 0.931 . S
H883 C855 0.931 . S
H884 C861 0.931 . S
H885 C862 0.931 . S
H886 C864 0.931 . S
H887 C865 0.931 . S
C888 Eu889 2.835 . S
C888 C890 1.500 . S
C888 O908 1.257 . S
C888 O909 1.260 . S
Eu889 C888 2.835 . S
Eu889 O908 2.473 . S
Eu889 O909 2.480 . S
Eu889 O910 2.430 . S
Eu889 O911 2.670 . S
Eu889 O912 2.394 . S
Eu889 O917 2.355 . S
Eu889 O919 2.374 . S
C890 C888 1.500 . S
C890 C891 1.377 . S
C890 C895 1.377 . S
C891 C890 1.377 . S
C891 C892 1.395 . S
C891 H920 0.931 . S
C892 C891 1.395 . S
C892 C893 1.383 . S
C892 H921 0.931 . S
C893 C892 1.383 . S
C893 C894 1.394 . S
C894 C893 1.394 . S
C894 C895 1.378 . S
C894 H922 0.931 . S
C895 C890 1.377 . S
C895 C894 1.378 . S
C895 H923 0.931 . S
C896 O910 1.259 . S
C896 O911 1.270 . S
C897 O912 1.251 . S
C897 O913 1.251 . S
C898 Eu899 2.835 . S
C898 C900 1.500 . S
C898 O914 1.257 . S
C898 O915 1.260 . S
Eu899 C898 2.835 . S
Eu899 O911 2.355 . S
Eu899 O913 2.374 . S
Eu899 O914 2.473 . S
Eu899 O915 2.480 . S
Eu899 O916 2.430 . S
Eu899 O917 2.670 . S
Eu899 O918 2.394 . S
C900 C898 1.500 . S
C900 C901 1.377 . S
C900 C905 1.377 . S
C901 C900 1.377 . S
C901 C902 1.395 . S
C901 H924 0.931 . S
C902 C901 1.395 . S
C902 C903 1.383 . S
C902 H925 0.931 . S
C903 C902 1.383 . S
C903 C904 1.394 . S
C904 C903 1.394 . S
C904 C905 1.378 . S
C904 H926 0.931 . S
C905 C900 1.377 . S
C905 C904 1.378 . S
C905 H927 0.931 . S
C906 O916 1.259 . S
C906 O917 1.270 . S
C907 O918 1.251 . S
C907 O919 1.251 . S
O908 C888 1.257 . S
O908 Eu889 2.473 . S
O909 C888 1.260 . S
O909 Eu889 2.480 . S
O910 Eu889 2.430 . S
O910 C896 1.259 . S
O911 Eu889 2.670 . S
O911 C896 1.270 . S
O911 Eu899 2.355 . S
O912 Eu889 2.394 . S
O912 C897 1.251 . S
O913 C897 1.251 . S
O913 Eu899 2.374 . S
O914 C898 1.257 . S
O914 Eu899 2.473 . S
O915 C898 1.260 . S
O915 Eu899 2.480 . S
O916 Eu899 2.430 . S
O916 C906 1.259 . S
O917 Eu889 2.355 . S
O917 Eu899 2.670 . S
O917 C906 1.270 . S
O918 Eu899 2.394 . S
O918 C907 1.251 . S
O919 Eu889 2.374 . S
O919 C907 1.251 . S
H920 C891 0.931 . S
H921 C892 0.931 . S
H922 C894 0.931 . S
H923 C895 0.931 . S
H924 C901 0.931 . S
H925 C902 0.931 . S
H926 C904 0.931 . S
H927 C905 0.931 . S
C928 Eu929 2.835 . S
C928 C930 1.500 . S
C928 O948 1.257 . S
C928 O949 1.260 . S
Eu929 C928 2.835 . S
Eu929 O948 2.473 . S
Eu929 O949 2.480 . S
Eu929 O950 2.430 . S
Eu929 O951 2.670 . S
Eu929 O952 2.394 . S
Eu929 O957 2.355 . S
Eu929 O959 2.374 . S
C930 C928 1.500 . S
C930 C931 1.377 . S
C930 C935 1.377 . S
C931 C930 1.377 . S
C931 C932 1.395 . S
C931 H960 0.931 . S
C932 C931 1.395 . S
C932 C933 1.383 . S
C932 H961 0.931 . S
C933 C932 1.383 . S
C933 C934 1.394 . S
C934 C933 1.394 . S
C934 C935 1.378 . S
C934 H962 0.931 . S
C935 C930 1.377 . S
C935 C934 1.378 . S
C935 H963 0.931 . S
C936 O950 1.259 . S
C936 O951 1.270 . S
C937 O952 1.251 . S
C937 O953 1.251 . S
C938 Eu939 2.835 . S
C938 C940 1.500 . S
C938 O954 1.257 . S
C938 O955 1.260 . S
Eu939 C938 2.835 . S
Eu939 O951 2.355 . S
Eu939 O953 2.374 . S
Eu939 O954 2.473 . S
Eu939 O955 2.480 . S
Eu939 O956 2.430 . S
Eu939 O957 2.670 . S
Eu939 O958 2.394 . S
C940 C938 1.500 . S
C940 C941 1.377 . S
C940 C945 1.377 . S
C941 C940 1.377 . S
C941 C942 1.395 . S
C941 H964 0.931 . S
C942 C941 1.395 . S
C942 C943 1.383 . S
C942 H965 0.931 . S
C943 C942 1.383 . S
C943 C944 1.394 . S
C944 C943 1.394 . S
C944 C945 1.378 . S
C944 H966 0.931 . S
C945 C940 1.377 . S
C945 C944 1.378 . S
C945 H967 0.931 . S
C946 O956 1.259 . S
C946 O957 1.270 . S
C947 O958 1.251 . S
C947 O959 1.251 . S
O948 C928 1.257 . S
O948 Eu929 2.473 . S
O949 C928 1.260 . S
O949 Eu929 2.480 . S
O950 Eu929 2.430 . S
O950 C936 1.259 . S
O951 Eu929 2.670 . S
O951 C936 1.270 . S
O951 Eu939 2.355 . S
O952 Eu929 2.394 . S
O952 C937 1.251 . S
O953 C937 1.251 . S
O953 Eu939 2.374 . S
O954 C938 1.257 . S
O954 Eu939 2.473 . S
O955 C938 1.260 . S
O955 Eu939 2.480 . S
O956 Eu939 2.430 . S
O956 C946 1.259 . S
O957 Eu929 2.355 . S
O957 Eu939 2.670 . S
O957 C946 1.270 . S
O958 Eu939 2.394 . S
O958 C947 1.251 . S
O959 Eu929 2.374 . S
O959 C947 1.251 . S
H960 C931 0.931 . S
H961 C932 0.931 . S
H962 C934 0.931 . S
H963 C935 0.931 . S
H964 C941 0.931 . S
H965 C942 0.931 . S
H966 C944 0.931 . S
H967 C945 0.931 . S
C968 Eu969 2.835 . S
C968 C970 1.500 . S
C968 O988 1.257 . S
C968 O989 1.260 . S
Eu969 C968 2.835 . S
Eu969 O988 2.473 . S
Eu969 O989 2.480 . S
Eu969 O990 2.430 . S
Eu969 O991 2.670 . S
Eu969 O992 2.394 . S
Eu969 O997 2.355 . S
Eu969 O999 2.374 . S
C970 C968 1.500 . S
C970 C971 1.377 . S
C970 C975 1.377 . S
C971 C970 1.377 . S
C971 C972 1.395 . S
C971 H1000 0.931 . S
C972 C971 1.395 . S
C972 C973 1.383 . S
C972 H1001 0.931 . S
C973 C972 1.383 . S
C973 C974 1.394 . S
C974 C973 1.394 . S
C974 C975 1.378 . S
C974 H1002 0.931 . S
C975 C970 1.377 . S
C975 C974 1.378 . S
C975 H1003 0.931 . S
C976 O990 1.259 . S
C976 O991 1.270 . S
C977 O992 1.251 . S
C977 O993 1.251 . S
C978 Eu979 2.835 . S
C978 C980 1.500 . S
C978 O994 1.257 . S
C978 O995 1.260 . S
Eu979 C978 2.835 . S
Eu979 O991 2.355 . S
Eu979 O993 2.374 . S
Eu979 O994 2.473 . S
Eu979 O995 2.480 . S
Eu979 O996 2.430 . S
Eu979 O997 2.670 . S
Eu979 O998 2.394 . S
C980 C978 1.500 . S
C980 C981 1.377 . S
C980 C985 1.377 . S
C981 C980 1.377 . S
C981 C982 1.395 . S
C981 H1004 0.931 . S
C982 C981 1.395 . S
C982 C983 1.383 . S
C982 H1005 0.931 . S
C983 C982 1.383 . S
C983 C984 1.394 . S
C984 C983 1.394 . S
C984 C985 1.378 . S
C984 H1006 0.931 . S
C985 C980 1.377 . S
C985 C984 1.378 . S
C985 H1007 0.931 . S
C986 O996 1.259 . S
C986 O997 1.270 . S
C987 O998 1.251 . S
C987 O999 1.251 . S
O988 C968 1.257 . S
O988 Eu969 2.473 . S
O989 C968 1.260 . S
O989 Eu969 2.480 . S
O990 Eu969 2.430 . S
O990 C976 1.259 . S
O991 Eu969 2.670 . S
O991 C976 1.270 . S
O991 Eu979 2.355 . S
O992 Eu969 2.394 . S
O992 C977 1.251 . S
O993 C977 1.251 . S
O993 Eu979 2.374 . S
O994 C978 1.257 . S
O994 Eu979 2.473 . S
O995 C978 1.260 . S
O995 Eu979 2.480 . S
O996 Eu979 2.430 . S
O996 C986 1.259 . S
O997 Eu969 2.355 . S
O997 Eu979 2.670 . S
O997 C986 1.270 . S
O998 Eu979 2.394 . S
O998 C987 1.251 . S
O999 Eu969 2.374 . S
O999 C987 1.251 . S
H1000 C971 0.931 . S
H1001 C972 0.931 . S
H1002 C974 0.931 . S
H1003 C975 0.931 . S
H1004 C981 0.931 . S
H1005 C982 0.931 . S
H1006 C984 0.931 . S
H1007 C985 0.931 . S
H1008 C1026 0.951 . S
H1009 C1028 0.951 . S
H1010 C1030 0.950 . S
H1011 C1031 0.950 . S
H1012 C1033 0.950 . S
H1013 C1036 0.950 . S
H1014 C1037 0.950 . S
H1015 C1039 0.950 . S
H1016 C1040 0.950 . S
H1017 C1041 0.951 . S
H1018 C1043 0.951 . S
H1019 C1045 0.950 . S
H1020 C1046 0.950 . S
H1021 C1048 0.950 . S
H1022 C1051 0.950 . S
H1023 C1052 0.950 . S
H1024 C1054 0.950 . S
H1025 C1055 0.950 . S
C1026 H1008 0.951 . S
C1026 C1027 1.366 . S
C1026 C1028 1.388 . S
C1027 C1026 1.366 . S
C1027 C1031 1.385 . S
C1028 H1009 0.951 . S
C1028 C1026 1.388 . S
C1028 C1029 1.366 . S
C1029 C1028 1.366 . S
C1029 C1030 1.414 . S
C1029 C1032 1.499 . S
C1030 H1010 0.950 . S
C1030 C1029 1.414 . S
C1030 C1031 1.374 . S
C1031 H1011 0.950 . S
C1031 C1027 1.385 . S
C1031 C1030 1.374 . S
C1032 C1029 1.499 . S
C1032 C1033 1.373 . S
C1032 C1034 1.389 . S
C1033 H1012 0.950 . S
C1033 C1032 1.373 . S
C1033 C1049 1.377 . S
C1034 C1032 1.389 . S
C1034 C1035 1.524 . S
C1034 C1048 1.377 . S
C1035 C1034 1.524 . S
C1035 C1036 1.397 . S
C1035 C1040 1.363 . S
C1036 H1013 0.950 . S
C1036 C1035 1.397 . S
C1036 C1037 1.334 . S
C1037 H1014 0.950 . S
C1037 C1036 1.334 . S
C1037 C1038 1.287 . S
C1038 C1037 1.287 . S
C1038 C1039 1.524 . S
C1038 H1057 0.913 . S
C1039 H1015 0.950 . S
C1039 C1038 1.524 . S
C1039 C1040 1.415 . S
C1040 H1016 0.950 . S
C1040 C1035 1.363 . S
C1040 C1039 1.415 . S
C1041 H1017 0.951 . S
C1041 C1042 1.366 . S
C1041 C1043 1.388 . S
C1042 C1041 1.366 . S
C1042 C1046 1.385 . S
C1043 H1018 0.951 . S
C1043 C1041 1.388 . S
C1043 C1044 1.366 . S
C1044 C1043 1.366 . S
C1044 C1045 1.414 . S
C1044 C1047 1.499 . S
C1045 H1019 0.950 . S
C1045 C1044 1.414 . S
C1045 C1046 1.374 . S
C1046 H1020 0.950 . S
C1046 C1042 1.385 . S
C1046 C1045 1.374 . S
C1047 C1044 1.499 . S
C1047 C1048 1.373 . S
C1047 C1049 1.389 . S
C1048 H1021 0.950 . S
C1048 C1034 1.377 . S
C1048 C1047 1.373 . S
C1049 C1033 1.377 . S
C1049 C1047 1.389 . S
C1049 C1050 1.524 . S
C1050 C1049 1.524 . S
C1050 C1051 1.397 . S
C1050 C1055 1.363 . S
C1051 H1022 0.950 . S
C1051 C1050 1.397 . S
C1051 C1052 1.334 . S
C1052 H1023 0.950 . S
C1052 C1051 1.334 . S
C1052 C1053 1.287 . S
C1053 C1052 1.287 . S
C1053 C1054 1.524 . S
C1053 H1056 0.999 . S
C1054 H1024 0.950 . S
C1054 C1053 1.524 . S
C1054 C1055 1.415 . S
C1055 H1025 0.950 . S
C1055 C1050 1.363 . S
C1055 C1054 1.415 . S
H1056 C1053 0.999 . S
H1057 C1038 0.913 . S
H1058 C1076 0.951 . S
H1059 C1078 0.951 . S
H1060 C1080 0.950 . S
H1061 C1081 0.950 . S
H1062 C1083 0.950 . S
H1063 C1086 0.950 . S
H1064 C1087 0.950 . S
H1065 C1089 0.950 . S
H1066 C1090 0.950 . S
H1067 C1091 0.951 . S
H1068 C1093 0.951 . S
H1069 C1095 0.950 . S
H1070 C1096 0.950 . S
H1071 C1098 0.950 . S
H1072 C1101 0.950 . S
H1073 C1102 0.950 . S
H1074 C1104 0.950 . S
H1075 C1105 0.950 . S
C1076 H1058 0.951 . S
C1076 C1077 1.366 . S
C1076 C1078 1.388 . S
C1077 C1076 1.366 . S
C1077 C1081 1.385 . S
C1078 H1059 0.951 . S
C1078 C1076 1.388 . S
C1078 C1079 1.366 . S
C1079 C1078 1.366 . S
C1079 C1080 1.414 . S
C1079 C1082 1.499 . S
C1080 H1060 0.950 . S
C1080 C1079 1.414 . S
C1080 C1081 1.374 . S
C1081 H1061 0.950 . S
C1081 C1077 1.385 . S
C1081 C1080 1.374 . S
C1082 C1079 1.499 . S
C1082 C1083 1.373 . S
C1082 C1084 1.389 . S
C1083 H1062 0.950 . S
C1083 C1082 1.373 . S
C1083 C1099 1.377 . S
C1084 C1082 1.389 . S
C1084 C1085 1.524 . S
C1084 C1098 1.377 . S
C1085 C1084 1.524 . S
C1085 C1086 1.397 . S
C1085 C1090 1.363 . S
C1086 H1063 0.950 . S
C1086 C1085 1.397 . S
C1086 C1087 1.334 . S
C1087 H1064 0.950 . S
C1087 C1086 1.334 . S
C1087 C1088 1.287 . S
C1088 C1087 1.287 . S
C1088 C1089 1.524 . S
C1088 H1107 0.913 . S
C1089 H1065 0.950 . S
C1089 C1088 1.524 . S
C1089 C1090 1.415 . S
C1090 H1066 0.950 . S
C1090 C1085 1.363 . S
C1090 C1089 1.415 . S
C1091 H1067 0.951 . S
C1091 C1092 1.366 . S
C1091 C1093 1.388 . S
C1092 C1091 1.366 . S
C1092 C1096 1.385 . S
C1093 H1068 0.951 . S
C1093 C1091 1.388 . S
C1093 C1094 1.366 . S
C1094 C1093 1.366 . S
C1094 C1095 1.414 . S
C1094 C1097 1.499 . S
C1095 H1069 0.950 . S
C1095 C1094 1.414 . S
C1095 C1096 1.374 . S
C1096 H1070 0.950 . S
C1096 C1092 1.385 . S
C1096 C1095 1.374 . S
C1097 C1094 1.499 . S
C1097 C1098 1.373 . S
C1097 C1099 1.389 . S
C1098 H1071 0.950 . S
C1098 C1084 1.377 . S
C1098 C1097 1.373 . S
C1099 C1083 1.377 . S
C1099 C1097 1.389 . S
C1099 C1100 1.524 . S
C1100 C1099 1.524 . S
C1100 C1101 1.397 . S
C1100 C1105 1.363 . S
C1101 H1072 0.950 . S
C1101 C1100 1.397 . S
C1101 C1102 1.334 . S
C1102 H1073 0.950 . S
C1102 C1101 1.334 . S
C1102 C1103 1.287 . S
C1103 C1102 1.287 . S
C1103 C1104 1.524 . S
C1103 H1106 0.999 . S
C1104 H1074 0.950 . S
C1104 C1103 1.524 . S
C1104 C1105 1.415 . S
C1105 H1075 0.950 . S
C1105 C1100 1.363 . S
C1105 C1104 1.415 . S
H1106 C1103 0.999 . S
H1107 C1088 0.913 . S
H1108 C1126 0.951 . S
H1109 C1128 0.951 . S
H1110 C1130 0.950 . S
H1111 C1131 0.950 . S
H1112 C1133 0.950 . S
H1113 C1136 0.950 . S
H1114 C1137 0.950 . S
H1115 C1139 0.950 1_556 S
H1116 C1140 0.950 1_556 S
H1117 C1141 0.951 . S
H1118 C1143 0.951 . S
H1119 C1145 0.950 1_556 S
H1120 C1146 0.950 1_556 S
H1121 C1148 0.950 . S
H1122 C1151 0.950 . S
H1123 C1152 0.950 . S
H1124 C1154 0.950 . S
H1125 C1155 0.950 . S
C1126 H1108 0.951 . S
C1126 C1127 1.366 . S
C1126 C1128 1.388 . S
C1127 C1126 1.366 . S
C1127 C1131 1.385 . S
C1128 H1109 0.951 . S
C1128 C1126 1.388 . S
C1128 C1129 1.366 . S
C1129 C1128 1.366 . S
C1129 C1130 1.414 . S
C1129 C1132 1.499 . S
C1130 H1110 0.950 . S
C1130 C1129 1.414 . S
C1130 C1131 1.374 . S
C1131 H1111 0.950 . S
C1131 C1127 1.385 . S
C1131 C1130 1.374 . S
C1132 C1129 1.499 . S
C1132 C1133 1.373 . S
C1132 C1134 1.389 . S
C1133 H1112 0.950 . S
C1133 C1132 1.373 . S
C1133 C1149 1.377 . S
C1134 C1132 1.389 . S
C1134 C1135 1.524 . S
C1134 C1148 1.377 . S
C1135 C1134 1.524 . S
C1135 C1136 1.397 . S
C1135 C1140 1.363 . S
C1136 H1113 0.950 . S
C1136 C1135 1.397 . S
C1136 C1137 1.334 . S
C1137 H1114 0.950 . S
C1137 C1136 1.334 . S
C1137 C1138 1.287 . S
C1138 C1137 1.287 . S
C1138 C1139 1.524 . S
C1138 H1157 0.913 . S
C1139 H1115 0.950 1_554 S
C1139 C1138 1.524 . S
C1139 C1140 1.415 . S
C1140 H1116 0.950 1_554 S
C1140 C1135 1.363 . S
C1140 C1139 1.415 . S
C1141 H1117 0.951 . S
C1141 C1142 1.366 . S
C1141 C1143 1.388 . S
C1142 C1141 1.366 . S
C1142 C1146 1.385 . S
C1143 H1118 0.951 . S
C1143 C1141 1.388 . S
C1143 C1144 1.366 . S
C1144 C1143 1.366 . S
C1144 C1145 1.414 . S
C1144 C1147 1.499 . S
C1145 H1119 0.950 1_554 S
C1145 C1144 1.414 . S
C1145 C1146 1.374 . S
C1146 H1120 0.950 1_554 S
C1146 C1142 1.385 . S
C1146 C1145 1.374 . S
C1147 C1144 1.499 . S
C1147 C1148 1.373 . S
C1147 C1149 1.389 . S
C1148 H1121 0.950 . S
C1148 C1134 1.377 . S
C1148 C1147 1.373 . S
C1149 C1133 1.377 . S
C1149 C1147 1.389 . S
C1149 C1150 1.524 . S
C1150 C1149 1.524 . S
C1150 C1151 1.397 . S
C1150 C1155 1.363 . S
C1151 H1122 0.950 . S
C1151 C1150 1.397 . S
C1151 C1152 1.334 . S
C1152 H1123 0.950 . S
C1152 C1151 1.334 . S
C1152 C1153 1.287 . S
C1153 C1152 1.287 . S
C1153 C1154 1.524 . S
C1153 H1156 0.999 . S
C1154 H1124 0.950 . S
C1154 C1153 1.524 . S
C1154 C1155 1.415 . S
C1155 H1125 0.950 . S
C1155 C1150 1.363 . S
C1155 C1154 1.415 . S
H1156 C1153 0.999 . S
H1157 C1138 0.913 . S
H1158 C1176 0.951 . S
H1159 C1178 0.951 . S
H1160 C1180 0.950 . S
H1161 C1181 0.950 . S
H1162 C1183 0.950 . S
H1163 C1186 0.950 . S
H1164 C1187 0.950 . S
H1165 C1189 0.950 . S
H1166 C1190 0.950 . S
H1167 C1191 0.951 . S
H1168 C1193 0.951 . S
H1169 C1195 0.950 . S
H1170 C1196 0.950 1_554 S
H1171 C1198 0.950 . S
H1172 C1201 0.944 1_554 S
H1173 C1202 0.922 1_554 S
H1174 C1204 0.954 . S
H1175 C1205 0.950 . S
C1176 H1158 0.951 . S
C1176 C1177 1.366 . S
C1176 C1178 1.388 . S
C1177 C1176 1.366 . S
C1177 C1181 1.385 . S
C1178 H1159 0.951 . S
C1178 C1176 1.388 . S
C1178 C1179 1.366 . S
C1179 C1178 1.366 . S
C1179 C1180 1.414 . S
C1179 C1182 1.499 . S
C1180 H1160 0.950 . S
C1180 C1179 1.414 . S
C1180 C1181 1.374 . S
C1181 H1161 0.950 . S
C1181 C1177 1.385 . S
C1181 C1180 1.374 . S
C1182 C1179 1.499 . S
C1182 C1183 1.373 . S
C1182 C1184 1.389 . S
C1183 H1162 0.950 . S
C1183 C1182 1.373 . S
C1183 C1199 1.377 . S
C1184 C1182 1.389 . S
C1184 C1185 1.524 . S
C1184 C1198 1.377 . S
C1185 C1184 1.524 . S
C1185 C1186 1.397 . S
C1185 C1190 1.363 . S
C1186 H1163 0.950 . S
C1186 C1185 1.397 . S
C1186 C1187 1.334 . S
C1187 H1164 0.950 . S
C1187 C1186 1.334 . S
C1187 C1188 1.287 . S
C1188 C1187 1.287 . S
C1188 C1189 1.524 . S
C1188 H1207 0.913 . S
C1189 H1165 0.950 . S
C1189 C1188 1.524 . S
C1189 C1190 1.415 . S
C1190 H1166 0.950 . S
C1190 C1185 1.363 . S
C1190 C1189 1.415 . S
C1191 H1167 0.951 . S
C1191 C1192 1.366 . S
C1191 C1193 1.388 . S
C1192 C1191 1.366 . S
C1192 C1196 1.385 . S
C1193 H1168 0.951 . S
C1193 C1191 1.388 . S
C1193 C1194 1.366 . S
C1194 C1193 1.366 . S
C1194 C1195 1.414 . S
C1194 C1197 1.499 . S
C1195 H1169 0.950 . S
C1195 C1194 1.414 . S
C1195 C1196 1.374 . S
C1196 H1170 0.950 1_556 S
C1196 C1192 1.385 . S
C1196 C1195 1.374 . S
C1197 C1194 1.499 . S
C1197 C1198 1.373 . S
C1197 C1199 1.389 . S
C1198 H1171 0.950 . S
C1198 C1184 1.377 . S
C1198 C1197 1.373 . S
C1199 C1183 1.377 . S
C1199 C1197 1.389 . S
C1199 C1200 1.524 . S
C1200 C1199 1.524 . S
C1200 C1201 1.397 . S
C1200 C1205 1.363 . S
C1201 H1172 0.944 1_556 S
C1201 C1200 1.397 . S
C1201 C1202 1.344 . S
C1202 H1173 0.922 1_556 S
C1202 C1201 1.344 . S
C1202 C1203 1.307 . S
C1203 C1202 1.307 . S
C1203 C1204 1.524 . S
C1203 H1206 0.999 1_655 S
C1204 H1174 0.954 . S
C1204 C1203 1.524 . S
C1204 C1205 1.415 . S
C1205 H1175 0.950 . S
C1205 C1200 1.363 . S
C1205 C1204 1.415 . S
H1206 C1203 0.999 1_455 S
H1207 C1188 0.913 . S
H1208 C1226 0.951 . S
H1209 C1228 0.951 . S
H1210 C1230 0.950 . S
H1211 C1231 0.950 . S
H1212 C1233 0.950 . S
H1213 C1236 0.950 . S
H1214 C1237 0.950 . S
H1215 C1239 0.950 . S
H1216 C1240 0.950 . S
H1217 C1241 0.951 . S
H1218 C1243 0.951 . S
H1219 C1245 0.950 . S
H1220 C1246 0.950 . S
H1221 C1248 0.950 . S
H1222 C1251 0.950 . S
H1223 C1252 0.950 . S
H1224 C1254 0.950 . S
H1225 C1255 0.950 . S
C1226 H1208 0.951 . S
C1226 C1227 1.366 . S
C1226 C1228 1.388 . S
C1227 C1226 1.366 . S
C1227 C1231 1.385 . S
C1228 H1209 0.951 . S
C1228 C1226 1.388 . S
C1228 C1229 1.366 . S
C1229 C1228 1.366 . S
C1229 C1230 1.414 . S
C1229 C1232 1.499 . S
C1230 H1210 0.950 . S
C1230 C1229 1.414 . S
C1230 C1231 1.374 . S
C1231 H1211 0.950 . S
C1231 C1227 1.385 . S
C1231 C1230 1.374 . S
C1232 C1229 1.499 . S
C1232 C1233 1.373 . S
C1232 C1234 1.389 . S
C1233 H1212 0.950 . S
C1233 C1232 1.373 . S
C1233 C1249 1.377 . S
C1234 C1232 1.389 . S
C1234 C1235 1.524 . S
C1234 C1248 1.377 . S
C1235 C1234 1.524 . S
C1235 C1236 1.397 . S
C1235 C1240 1.363 . S
C1236 H1213 0.950 . S
C1236 C1235 1.397 . S
C1236 C1237 1.334 . S
C1237 H1214 0.950 . S
C1237 C1236 1.334 . S
C1237 C1238 1.287 . S
C1238 C1237 1.287 . S
C1238 C1239 1.524 . S
C1238 H1257 0.913 . S
C1239 H1215 0.950 . S
C1239 C1238 1.524 . S
C1239 C1240 1.415 . S
C1240 H1216 0.950 . S
C1240 C1235 1.363 . S
C1240 C1239 1.415 . S
C1241 H1217 0.951 . S
C1241 C1242 1.366 . S
C1241 C1243 1.388 . S
C1242 C1241 1.366 . S
C1242 C1246 1.385 . S
C1243 H1218 0.951 . S
C1243 C1241 1.388 . S
C1243 C1244 1.366 . S
C1244 C1243 1.366 . S
C1244 C1245 1.414 . S
C1244 C1247 1.499 . S
C1245 H1219 0.950 . S
C1245 C1244 1.414 . S
C1245 C1246 1.374 . S
C1246 H1220 0.950 . S
C1246 C1242 1.385 . S
C1246 C1245 1.374 . S
C1247 C1244 1.499 . S
C1247 C1248 1.373 . S
C1247 C1249 1.389 . S
C1248 H1221 0.950 . S
C1248 C1234 1.377 . S
C1248 C1247 1.373 . S
C1249 C1233 1.377 . S
C1249 C1247 1.389 . S
C1249 C1250 1.524 . S
C1250 C1249 1.524 . S
C1250 C1251 1.397 . S
C1250 C1255 1.363 . S
C1251 H1222 0.950 . S
C1251 C1250 1.397 . S
C1251 C1252 1.334 1_556 S
C1252 H1223 0.950 . S
C1252 C1251 1.334 1_554 S
C1252 C1253 1.287 . S
C1253 C1252 1.287 . S
C1253 C1254 1.524 . S
C1253 H1256 0.999 . S
C1254 H1224 0.950 . S
C1254 C1253 1.524 . S
C1254 C1255 1.415 1_554 S
C1255 H1225 0.950 . S
C1255 C1250 1.363 . S
C1255 C1254 1.415 1_556 S
H1256 C1253 0.999 . S
H1257 C1238 0.913 . S
H1258 C1276 0.951 . S
H1259 C1278 0.951 . S
H1260 C1280 0.950 . S
H1261 C1281 0.950 . S
H1262 C1283 0.950 . S
H1263 C1286 0.950 . S
H1264 C1287 0.950 . S
H1265 C1289 0.950 . S
H1266 C1290 0.950 . S
H1267 C1291 0.983 . S
H1268 C1293 0.951 . S
H1269 C1295 0.950 . S
H1270 C1296 0.950 . S
H1271 C1298 0.950 . S
H1272 C1301 0.950 . S
H1273 C1302 0.950 . S
H1274 C1304 0.950 . S
H1275 C1305 0.950 . S
C1276 H1258 0.951 . S
C1276 C1277 1.366 . S
C1276 C1278 1.388 . S
C1277 C1276 1.366 . S
C1277 C1281 1.385 . S
C1278 H1259 0.951 . S
C1278 C1276 1.388 . S
C1278 C1279 1.366 . S
C1279 C1278 1.366 . S
C1279 C1280 1.414 . S
C1279 C1282 1.499 . S
C1280 H1260 0.950 . S
C1280 C1279 1.414 . S
C1280 C1281 1.374 . S
C1281 H1261 0.950 . S
C1281 C1277 1.385 . S
C1281 C1280 1.374 . S
C1282 C1279 1.499 . S
C1282 C1283 1.373 . S
C1282 C1284 1.389 . S
C1283 H1262 0.950 . S
C1283 C1282 1.373 . S
C1283 C1299 1.377 . S
C1284 C1282 1.389 . S
C1284 C1285 1.524 . S
C1284 C1298 1.377 . S
C1285 C1284 1.524 . S
C1285 C1286 1.397 . S
C1285 C1290 1.363 . S
C1286 H1263 0.950 . S
C1286 C1285 1.397 . S
C1286 C1287 1.334 1_556 S
C1287 H1264 0.950 . S
C1287 C1286 1.334 1_554 S
C1287 C1288 1.287 . S
C1288 C1287 1.287 . S
C1288 C1289 1.524 1_554 S
C1288 H1307 0.913 . S
C1289 H1265 0.950 . S
C1289 C1288 1.524 1_556 S
C1289 C1290 1.415 . S
C1290 H1266 0.950 . S
C1290 C1285 1.363 . S
C1290 C1289 1.415 . S
C1291 H1267 0.983 . S
C1291 C1292 1.366 . S
C1291 C1293 1.388 . S
C1292 C1291 1.366 . S
C1292 C1296 1.385 . S
C1293 H1268 0.951 . S
C1293 C1291 1.388 . S
C1293 C1294 1.366 . S
C1294 C1293 1.366 . S
C1294 C1295 1.414 . S
C1294 C1297 1.499 . S
C1295 H1269 0.950 . S
C1295 C1294 1.414 . S
C1295 C1296 1.374 . S
C1296 H1270 0.950 . S
C1296 C1292 1.385 . S
C1296 C1295 1.374 . S
C1297 C1294 1.499 . S
C1297 C1298 1.373 . S
C1297 C1299 1.389 . S
C1298 H1271 0.950 . S
C1298 C1284 1.377 . S
C1298 C1297 1.373 . S
C1299 C1283 1.377 . S
C1299 C1297 1.389 . S
C1299 C1300 1.524 . S
C1300 C1299 1.524 . S
C1300 C1301 1.397 . S
C1300 C1305 1.363 . S
C1301 H1272 0.950 . S
C1301 C1300 1.397 . S
C1301 C1302 1.334 . S
C1302 H1273 0.950 . S
C1302 C1301 1.334 . S
C1302 C1303 1.287 . S
C1303 C1302 1.287 . S
C1303 C1304 1.524 . S
C1303 H1306 0.999 . S
C1304 H1274 0.950 . S
C1304 C1303 1.524 . S
C1304 C1305 1.415 . S
C1305 H1275 0.950 . S
C1305 C1300 1.363 . S
C1305 C1304 1.415 . S
H1306 C1303 0.999 . S
H1307 C1288 0.913 . S
H1308 C1326 0.951 . S
H1309 C1328 0.951 . S
H1310 C1330 0.950 . S
H1311 C1331 0.950 . S
H1312 C1333 0.950 . S
H1313 C1336 0.950 . S
H1314 C1337 0.950 . S
H1315 C1339 0.950 . S
H1316 C1340 0.921 1_554 S
H1317 C1341 0.951 . S
H1318 C1343 0.951 . S
H1319 C1345 0.950 . S
H1320 C1346 0.950 1_554 S
H1321 C1348 0.950 . S
H1322 C1351 0.950 . S
H1323 C1352 0.950 . S
H1324 C1354 0.950 . S
H1325 C1355 0.950 . S
C1326 H1308 0.951 . S
C1326 C1327 1.366 . S
C1326 C1328 1.388 . S
C1327 C1326 1.366 . S
C1327 C1331 1.385 . S
C1328 H1309 0.951 . S
C1328 C1326 1.388 . S
C1328 C1329 1.366 . S
C1329 C1328 1.366 . S
C1329 C1330 1.414 . S
C1329 C1332 1.499 . S
C1330 H1310 0.950 . S
C1330 C1329 1.414 . S
C1330 C1331 1.374 . S
C1331 H1311 0.950 . S
C1331 C1327 1.385 . S
C1331 C1330 1.374 . S
C1332 C1329 1.499 . S
C1332 C1333 1.373 . S
C1332 C1334 1.389 . S
C1333 H1312 0.950 . S
C1333 C1332 1.373 . S
C1333 C1349 1.377 . S
C1334 C1332 1.389 . S
C1334 C1335 1.524 . S
C1334 C1348 1.377 . S
C1335 C1334 1.524 . S
C1335 C1336 1.397 . S
C1335 C1340 1.434 . S
C1336 H1313 0.950 . S
C1336 C1335 1.397 . S
C1336 C1337 1.334 . S
C1337 H1314 0.950 . S
C1337 C1336 1.334 . S
C1337 C1338 1.287 . S
C1338 C1337 1.287 . S
C1338 C1339 1.524 1_556 S
C1338 H1357 0.913 1_556 S
C1339 H1315 0.950 . S
C1339 C1338 1.524 1_554 S
C1339 C1340 1.377 1_554 S
C1340 H1316 0.921 1_556 S
C1340 C1335 1.434 . S
C1340 C1339 1.377 1_556 S
C1341 H1317 0.951 . S
C1341 C1342 1.366 . S
C1341 C1343 1.388 . S
C1342 C1341 1.366 . S
C1342 C1346 1.385 . S
C1343 H1318 0.951 . S
C1343 C1341 1.388 . S
C1343 C1344 1.366 . S
C1344 C1343 1.366 . S
C1344 C1345 1.414 . S
C1344 C1347 1.499 . S
C1345 H1319 0.950 . S
C1345 C1344 1.414 . S
C1345 C1346 1.374 . S
C1346 H1320 0.950 1_556 S
C1346 C1342 1.385 . S
C1346 C1345 1.374 . S
C1347 C1344 1.499 . S
C1347 C1348 1.373 . S
C1347 C1349 1.389 . S
C1348 H1321 0.950 . S
C1348 C1334 1.377 . S
C1348 C1347 1.373 . S
C1349 C1333 1.377 . S
C1349 C1347 1.389 . S
C1349 C1350 1.524 . S
C1350 C1349 1.524 . S
C1350 C1351 1.397 . S
C1350 C1355 1.363 . S
C1351 H1322 0.950 . S
C1351 C1350 1.397 . S
C1351 C1352 1.334 . S
C1352 H1323 0.950 . S
C1352 C1351 1.334 . S
C1352 C1353 1.287 . S
C1353 C1352 1.287 . S
C1353 C1354 1.524 . S
C1353 H1356 0.999 . S
C1354 H1324 0.950 . S
C1354 C1353 1.524 . S
C1354 C1355 1.415 . S
C1355 H1325 0.950 . S
C1355 C1350 1.363 . S
C1355 C1354 1.415 . S
H1356 C1353 0.999 . S
H1357 C1338 0.913 1_554 S
H1358 C1376 0.951 . S
H1359 C1378 0.951 . S
H1360 C1380 0.950 . S
H1361 C1381 0.950 . S
H1362 C1383 0.950 . S
H1363 C1386 0.950 . S
H1364 C1387 0.950 . S
H1365 C1389 0.950 . S
H1366 C1390 0.950 . S
H1367 C1391 0.951 . S
H1368 C1393 0.951 . S
H1369 C1395 0.950 . S
H1370 C1396 0.950 . S
H1371 C1398 0.950 . S
H1372 C1401 0.950 . S
H1373 C1402 0.950 . S
H1374 C1404 0.950 . S
H1375 C1405 0.950 . S
C1376 H1358 0.951 . S
C1376 C1377 1.366 . S
C1376 C1378 1.388 . S
C1377 C1376 1.366 . S
C1377 C1381 1.385 . S
C1378 H1359 0.951 . S
C1378 C1376 1.388 . S
C1378 C1379 1.366 . S
C1379 C1378 1.366 . S
C1379 C1380 1.414 . S
C1379 C1382 1.499 . S
C1380 H1360 0.950 . S
C1380 C1379 1.414 . S
C1380 C1381 1.374 . S
C1381 H1361 0.950 . S
C1381 C1377 1.385 . S
C1381 C1380 1.374 . S
C1382 C1379 1.499 . S
C1382 C1383 1.373 . S
C1382 C1384 1.389 . S
C1383 H1362 0.950 . S
C1383 C1382 1.373 . S
C1383 C1399 1.377 . S
C1384 C1382 1.389 . S
C1384 C1385 1.524 . S
C1384 C1398 1.377 . S
C1385 C1384 1.524 . S
C1385 C1386 1.397 . S
C1385 C1390 1.363 . S
C1386 H1363 0.950 . S
C1386 C1385 1.397 . S
C1386 C1387 1.334 . S
C1387 H1364 0.950 . S
C1387 C1386 1.334 . S
C1387 C1388 1.287 . S
C1388 C1387 1.287 . S
C1388 C1389 1.524 . S
C1388 H1407 0.913 . S
C1389 H1365 0.950 . S
C1389 C1388 1.524 . S
C1389 C1390 1.415 . S
C1390 H1366 0.950 . S
C1390 C1385 1.363 . S
C1390 C1389 1.415 . S
C1391 H1367 0.951 . S
C1391 C1392 1.366 . S
C1391 C1393 1.388 . S
C1392 C1391 1.366 . S
C1392 C1396 1.385 . S
C1393 H1368 0.951 . S
C1393 C1391 1.388 . S
C1393 C1394 1.366 . S
C1394 C1393 1.366 . S
C1394 C1395 1.414 . S
C1394 C1397 1.499 . S
C1395 H1369 0.950 . S
C1395 C1394 1.414 . S
C1395 C1396 1.374 . S
C1396 H1370 0.950 . S
C1396 C1392 1.385 . S
C1396 C1395 1.374 . S
C1397 C1394 1.499 . S
C1397 C1398 1.373 . S
C1397 C1399 1.389 . S
C1398 H1371 0.950 . S
C1398 C1384 1.377 . S
C1398 C1397 1.373 . S
C1399 C1383 1.377 . S
C1399 C1397 1.389 . S
C1399 C1400 1.524 . S
C1400 C1399 1.524 . S
C1400 C1401 1.397 . S
C1400 C1405 1.363 . S
C1401 H1372 0.950 . S
C1401 C1400 1.397 . S
C1401 C1402 1.334 . S
C1402 H1373 0.950 . S
C1402 C1401 1.334 . S
C1402 C1403 1.287 . S
C1403 C1402 1.287 . S
C1403 C1404 1.524 . S
C1403 H1406 0.999 . S
C1404 H1374 0.950 . S
C1404 C1403 1.524 . S
C1404 C1405 1.415 . S
C1405 H1375 0.950 . S
C1405 C1400 1.363 . S
C1405 C1404 1.415 . S
H1406 C1403 0.999 . S
H1407 C1388 0.913 . S
H1408 C1426 0.951 . S
H1409 C1428 0.951 . S
H1410 C1430 0.950 . S
H1411 C1431 0.950 . S
H1412 C1433 0.950 . S
H1413 C1436 0.950 . S
H1414 C1437 0.950 . S
H1415 C1439 0.950 . S
H1416 C1440 0.950 . S
H1417 C1441 0.951 . S
H1418 C1443 0.951 . S
H1419 C1445 0.950 . S
H1420 C1446 0.950 . S
H1421 C1448 0.950 . S
H1422 C1451 0.950 . S
H1423 C1452 0.950 . S
H1424 C1454 0.950 . S
H1425 C1455 0.950 . S
C1426 H1408 0.951 . S
C1426 C1427 1.366 . S
C1426 C1428 1.388 . S
C1427 C1426 1.366 . S
C1427 C1431 1.385 . S
C1428 H1409 0.951 . S
C1428 C1426 1.388 . S
C1428 C1429 1.366 . S
C1429 C1428 1.366 . S
C1429 C1430 1.414 . S
C1429 C1432 1.499 . S
C1430 H1410 0.950 . S
C1430 C1429 1.414 . S
C1430 C1431 1.374 . S
C1431 H1411 0.950 . S
C1431 C1427 1.385 . S
C1431 C1430 1.374 . S
C1432 C1429 1.499 . S
C1432 C1433 1.373 . S
C1432 C1434 1.389 . S
C1433 H1412 0.950 . S
C1433 C1432 1.373 . S
C1433 C1449 1.377 . S
C1434 C1432 1.389 . S
C1434 C1435 1.524 . S
C1434 C1448 1.377 . S
C1435 C1434 1.524 . S
C1435 C1436 1.397 . S
C1435 C1440 1.363 . S
C1436 H1413 0.950 . S
C1436 C1435 1.397 . S
C1436 C1437 1.334 . S
C1437 H1414 0.950 . S
C1437 C1436 1.334 . S
C1437 C1438 1.287 . S
C1438 C1437 1.287 . S
C1438 C1439 1.524 . S
C1438 H1457 0.913 . S
C1439 H1415 0.950 . S
C1439 C1438 1.524 . S
C1439 C1440 1.415 . S
C1440 H1416 0.950 . S
C1440 C1435 1.363 . S
C1440 C1439 1.415 . S
C1441 H1417 0.951 . S
C1441 C1442 1.366 . S
C1441 C1443 1.388 . S
C1442 C1441 1.366 . S
C1442 C1446 1.385 . S
C1443 H1418 0.951 . S
C1443 C1441 1.388 . S
C1443 C1444 1.366 . S
C1444 C1443 1.366 . S
C1444 C1445 1.414 . S
C1444 C1447 1.499 . S
C1445 H1419 0.950 . S
C1445 C1444 1.414 . S
C1445 C1446 1.374 . S
C1446 H1420 0.950 . S
C1446 C1442 1.385 . S
C1446 C1445 1.374 . S
C1447 C1444 1.499 . S
C1447 C1448 1.373 . S
C1447 C1449 1.389 . S
C1448 H1421 0.950 . S
C1448 C1434 1.377 . S
C1448 C1447 1.373 . S
C1449 C1433 1.377 . S
C1449 C1447 1.389 . S
C1449 C1450 1.524 1_556 S
C1450 C1449 1.524 1_554 S
C1450 C1451 1.397 . S
C1450 C1455 1.363 . S
C1451 H1422 0.950 . S
C1451 C1450 1.397 . S
C1451 C1452 1.334 . S
C1452 H1423 0.950 . S
C1452 C1451 1.334 . S
C1452 C1453 1.287 . S
C1453 C1452 1.287 . S
C1453 C1454 1.524 . S
C1453 H1456 0.999 . S
C1454 H1424 0.950 . S
C1454 C1453 1.524 . S
C1454 C1455 1.415 . S
C1455 H1425 0.950 . S
C1455 C1450 1.363 . S
C1455 C1454 1.415 . S
H1456 C1453 0.999 . S
H1457 C1438 0.913 . S
H1458 C1476 0.951 . S
H1459 C1478 0.951 . S
H1460 C1480 0.950 . S
H1461 C1481 0.950 . S
H1462 C1483 0.950 . S
H1463 C1486 0.950 . S
H1464 C1487 0.950 . S
H1465 C1489 0.950 . S
H1466 C1490 0.950 . S
H1467 C1491 0.951 . S
H1468 C1493 0.951 . S
H1469 C1495 0.950 . S
H1470 C1496 0.950 . S
H1471 C1498 0.950 . S
H1472 C1501 0.950 . S
H1473 C1502 0.950 . S
H1474 C1504 0.955 . S
H1475 C1505 0.950 . S
C1476 H1458 0.951 . S
C1476 C1477 1.366 . S
C1476 C1478 1.388 . S
C1477 C1476 1.366 . S
C1477 C1481 1.385 . S
C1478 H1459 0.951 . S
C1478 C1476 1.388 . S
C1478 C1479 1.366 . S
C1479 C1478 1.366 . S
C1479 C1480 1.414 . S
C1479 C1482 1.499 . S
C1480 H1460 0.950 . S
C1480 C1479 1.414 . S
C1480 C1481 1.374 . S
C1481 H1461 0.950 . S
C1481 C1477 1.385 . S
C1481 C1480 1.374 . S
C1482 C1479 1.499 . S
C1482 C1483 1.373 . S
C1482 C1484 1.389 . S
C1483 H1462 0.950 . S
C1483 C1482 1.373 . S
C1483 C1499 1.377 . S
C1484 C1482 1.389 . S
C1484 C1485 1.524 . S
C1484 C1498 1.377 . S
C1485 C1484 1.524 . S
C1485 C1486 1.397 . S
C1485 C1490 1.363 . S
C1486 H1463 0.950 . S
C1486 C1485 1.397 . S
C1486 C1487 1.334 . S
C1487 H1464 0.950 . S
C1487 C1486 1.334 . S
C1487 C1488 1.287 . S
C1488 C1487 1.287 . S
C1488 C1489 1.524 . S
C1488 H1507 0.913 . S
C1489 H1465 0.950 . S
C1489 C1488 1.524 . S
C1489 C1490 1.415 . S
C1490 H1466 0.950 . S
C1490 C1485 1.363 . S
C1490 C1489 1.415 . S
C1491 H1467 0.951 . S
C1491 C1492 1.366 . S
C1491 C1493 1.388 . S
C1492 C1491 1.366 . S
C1492 C1496 1.385 . S
C1493 H1468 0.951 . S
C1493 C1491 1.388 . S
C1493 C1494 1.366 . S
C1494 C1493 1.366 . S
C1494 C1495 1.414 . S
C1494 C1497 1.499 . S
C1495 H1469 0.950 . S
C1495 C1494 1.414 . S
C1495 C1496 1.374 . S
C1496 H1470 0.950 . S
C1496 C1492 1.385 . S
C1496 C1495 1.374 . S
C1497 C1494 1.499 . S
C1497 C1498 1.373 . S
C1497 C1499 1.389 . S
C1498 H1471 0.950 . S
C1498 C1484 1.377 . S
C1498 C1497 1.373 . S
C1499 C1483 1.377 . S
C1499 C1497 1.389 . S
C1499 C1500 1.524 . S
C1500 C1499 1.524 . S
C1500 C1501 1.397 . S
C1500 C1505 1.363 . S
C1501 H1472 0.950 . S
C1501 C1500 1.397 . S
C1501 C1502 1.334 . S
C1502 H1473 0.950 . S
C1502 C1501 1.334 . S
C1502 C1503 1.287 . S
C1503 C1502 1.287 . S
C1503 C1504 1.524 . S
C1503 H1506 0.999 1_455 S
C1504 H1474 0.955 . S
C1504 C1503 1.524 . S
C1504 C1505 1.415 . S
C1505 H1475 0.950 . S
C1505 C1500 1.363 . S
C1505 C1504 1.415 . S
H1506 C1503 0.999 1_655 S
H1507 C1488 0.913 . S
H1508 C1526 0.951 . S
H1509 C1528 0.951 . S
H1510 C1530 0.950 . S
H1511 C1531 0.950 . S
H1512 C1533 0.950 . S
H1513 C1536 0.950 . S
H1514 C1537 0.950 . S
H1515 C1539 0.950 1_556 S
H1516 C1540 0.950 . S
H1517 C1541 0.951 . S
H1518 C1543 0.951 . S
H1519 C1545 0.950 . S
H1520 C1546 0.950 . S
H1521 C1548 0.950 . S
H1522 C1551 0.950 . S
H1523 C1552 0.950 . S
H1524 C1554 0.950 . S
H1525 C1555 0.950 . S
C1526 H1508 0.951 . S
C1526 C1527 1.366 . S
C1526 C1528 1.388 . S
C1527 C1526 1.366 . S
C1527 C1531 1.385 . S
C1528 H1509 0.951 . S
C1528 C1526 1.388 . S
C1528 C1529 1.366 . S
C1529 C1528 1.366 . S
C1529 C1530 1.414 . S
C1529 C1532 1.499 . S
C1530 H1510 0.950 . S
C1530 C1529 1.414 . S
C1530 C1531 1.374 . S
C1531 H1511 0.950 . S
C1531 C1527 1.385 . S
C1531 C1530 1.374 . S
C1532 C1529 1.499 . S
C1532 C1533 1.373 . S
C1532 C1534 1.389 . S
C1533 H1512 0.950 . S
C1533 C1532 1.373 . S
C1533 C1549 1.377 . S
C1534 C1532 1.389 . S
C1534 C1535 1.524 . S
C1534 C1548 1.377 . S
C1535 C1534 1.524 . S
C1535 C1536 1.397 . S
C1535 C1540 1.363 . S
C1536 H1513 0.950 . S
C1536 C1535 1.397 . S
C1536 C1537 1.334 . S
C1537 H1514 0.950 . S
C1537 C1536 1.334 . S
C1537 C1538 1.287 . S
C1538 C1537 1.287 . S
C1538 C1539 1.524 . S
C1538 H1557 0.913 . S
C1539 H1515 0.950 1_554 S
C1539 C1538 1.524 . S
C1539 C1540 1.415 . S
C1540 H1516 0.950 . S
C1540 C1535 1.363 . S
C1540 C1539 1.415 . S
C1541 H1517 0.951 . S
C1541 C1542 1.366 . S
C1541 C1543 1.388 . S
C1542 C1541 1.366 . S
C1542 C1546 1.385 . S
C1543 H1518 0.951 . S
C1543 C1541 1.388 . S
C1543 C1544 1.366 . S
C1544 C1543 1.366 . S
C1544 C1545 1.414 . S
C1544 C1547 1.499 . S
C1545 H1519 0.950 . S
C1545 C1544 1.414 . S
C1545 C1546 1.374 . S
C1546 H1520 0.950 . S
C1546 C1542 1.385 . S
C1546 C1545 1.374 . S
C1547 C1544 1.499 . S
C1547 C1548 1.373 . S
C1547 C1549 1.389 . S
C1548 H1521 0.950 . S
C1548 C1534 1.377 . S
C1548 C1547 1.373 . S
C1549 C1533 1.377 . S
C1549 C1547 1.389 . S
C1549 C1550 1.524 . S
C1550 C1549 1.524 . S
C1550 C1551 1.397 . S
C1550 C1555 1.363 . S
C1551 H1522 0.950 . S
C1551 C1550 1.397 . S
C1551 C1552 1.334 . S
C1552 H1523 0.950 . S
C1552 C1551 1.334 . S
C1552 C1553 1.287 . S
C1553 C1552 1.287 . S
C1553 C1554 1.524 . S
C1553 H1556 0.999 . S
C1554 H1524 0.950 . S
C1554 C1553 1.524 . S
C1554 C1555 1.415 . S
C1555 H1525 0.950 . S
C1555 C1550 1.363 . S
C1555 C1554 1.415 . S
H1556 C1553 0.999 . S
H1557 C1538 0.913 . S
H1558 C1576 0.951 . S
H1559 C1578 0.951 . S
H1560 C1580 0.950 . S
H1561 C1581 0.950 . S
H1562 C1583 0.950 . S
H1563 C1586 0.950 . S
H1564 C1587 0.950 . S
H1565 C1589 0.950 . S
H1566 C1590 0.950 . S
H1567 C1591 0.951 1_556 S
H1568 C1593 0.951 . S
H1569 C1595 0.950 . S
H1570 C1596 0.950 . S
H1571 C1598 0.950 . S
H1572 C1601 0.965 . S
H1573 C1602 0.950 . S
H1574 C1604 0.950 . S
H1575 C1605 0.950 . S
C1576 H1558 0.951 . S
C1576 C1577 1.366 . S
C1576 C1578 1.388 . S
C1577 C1576 1.366 . S
C1577 C1581 1.385 . S
C1578 H1559 0.951 . S
C1578 C1576 1.388 . S
C1578 C1579 1.366 . S
C1579 C1578 1.366 . S
C1579 C1580 1.414 . S
C1579 C1582 1.499 . S
C1580 H1560 0.950 . S
C1580 C1579 1.414 . S
C1580 C1581 1.374 . S
C1581 H1561 0.950 . S
C1581 C1577 1.385 . S
C1581 C1580 1.374 . S
C1582 C1579 1.499 . S
C1582 C1583 1.373 . S
C1582 C1584 1.389 . S
C1583 H1562 0.950 . S
C1583 C1582 1.373 . S
C1583 C1599 1.377 . S
C1584 C1582 1.389 . S
C1584 C1585 1.524 . S
C1584 C1598 1.377 . S
C1585 C1584 1.524 . S
C1585 C1586 1.397 . S
C1585 C1590 1.363 . S
C1586 H1563 0.950 . S
C1586 C1585 1.397 . S
C1586 C1587 1.334 . S
C1587 H1564 0.950 . S
C1587 C1586 1.334 . S
C1587 C1588 1.287 . S
C1588 C1587 1.287 . S
C1588 C1589 1.524 . S
C1588 H1607 0.913 . S
C1589 H1565 0.950 . S
C1589 C1588 1.524 . S
C1589 C1590 1.415 . S
C1590 H1566 0.950 . S
C1590 C1585 1.363 . S
C1590 C1589 1.415 . S
C1591 H1567 0.951 1_554 S
C1591 C1592 1.366 . S
C1591 C1593 1.388 . S
C1592 C1591 1.366 . S
C1592 C1596 1.385 . S
C1593 H1568 0.951 . S
C1593 C1591 1.388 . S
C1593 C1594 1.366 . S
C1594 C1593 1.366 . S
C1594 C1595 1.414 . S
C1594 C1597 1.499 . S
C1595 H1569 0.950 . S
C1595 C1594 1.414 . S
C1595 C1596 1.374 . S
C1596 H1570 0.950 . S
C1596 C1592 1.385 . S
C1596 C1595 1.374 . S
C1597 C1594 1.499 . S
C1597 C1598 1.373 . S
C1597 C1599 1.389 . S
C1598 H1571 0.950 . S
C1598 C1584 1.377 . S
C1598 C1597 1.373 . S
C1599 C1583 1.377 . S
C1599 C1597 1.389 . S
C1599 C1600 1.524 1_554 S
C1600 C1599 1.524 1_556 S
C1600 C1601 1.397 . S
C1600 C1605 1.363 . S
C1601 H1572 0.965 . S
C1601 C1600 1.397 . S
C1601 C1602 1.334 . S
C1602 H1573 0.950 . S
C1602 C1601 1.334 . S
C1602 C1603 1.287 . S
C1603 C1602 1.287 . S
C1603 C1604 1.524 . S
C1603 H1606 0.999 . S
C1604 H1574 0.950 . S
C1604 C1603 1.524 . S
C1604 C1605 1.415 . S
C1605 H1575 0.950 . S
C1605 C1600 1.363 . S
C1605 C1604 1.415 . S
H1606 C1603 0.999 . S
H1607 C1588 0.913 . S
H1608 C1626 0.951 . S
H1609 C1628 0.951 . S
H1610 C1630 0.950 . S
H1611 C1631 0.950 . S
H1612 C1633 0.950 . S
H1613 C1636 0.950 . S
H1614 C1637 0.950 . S
H1615 C1639 0.950 . S
H1616 C1640 0.950 . S
H1617 C1641 0.951 . S
H1618 C1643 0.951 . S
H1619 C1645 0.950 . S
H1620 C1646 0.950 . S
H1621 C1648 0.950 . S
H1622 C1651 0.950 . S
H1623 C1652 0.950 . S
H1624 C1654 0.950 . S
H1625 C1655 0.950 . S
C1626 H1608 0.951 . S
C1626 C1627 1.366 . S
C1626 C1628 1.388 . S
C1627 C1626 1.366 . S
C1627 C1631 1.385 . S
C1628 H1609 0.951 . S
C1628 C1626 1.388 . S
C1628 C1629 1.366 . S
C1629 C1628 1.366 . S
C1629 C1630 1.414 . S
C1629 C1632 1.499 1_655 S
C1630 H1610 0.950 . S
C1630 C1629 1.414 . S
C1630 C1631 1.374 . S
C1631 H1611 0.950 . S
C1631 C1627 1.385 . S
C1631 C1630 1.374 . S
C1632 C1629 1.499 1_455 S
C1632 C1633 1.373 . S
C1632 C1634 1.389 . S
C1633 H1612 0.950 . S
C1633 C1632 1.373 . S
C1633 C1649 1.377 . S
C1634 C1632 1.389 . S
C1634 C1635 1.524 . S
C1634 C1648 1.377 . S
C1635 C1634 1.524 . S
C1635 C1636 1.397 . S
C1635 C1640 1.363 . S
C1636 H1613 0.950 . S
C1636 C1635 1.397 . S
C1636 C1637 1.334 . S
C1637 H1614 0.950 . S
C1637 C1636 1.334 . S
C1637 C1638 1.287 . S
C1638 C1637 1.287 . S
C1638 C1639 1.524 . S
C1638 H1657 0.913 . S
C1639 H1615 0.950 . S
C1639 C1638 1.524 . S
C1639 C1640 1.415 . S
C1640 H1616 0.950 . S
C1640 C1635 1.363 . S
C1640 C1639 1.415 . S
C1641 H1617 0.951 . S
C1641 C1642 1.366 . S
C1641 C1643 1.388 . S
C1642 C1641 1.366 . S
C1642 C1646 1.385 . S
C1643 H1618 0.951 . S
C1643 C1641 1.388 . S
C1643 C1644 1.366 . S
C1644 C1643 1.366 . S
C1644 C1645 1.414 . S
C1644 C1647 1.499 . S
C1645 H1619 0.950 . S
C1645 C1644 1.414 . S
C1645 C1646 1.374 . S
C1646 H1620 0.950 . S
C1646 C1642 1.385 . S
C1646 C1645 1.374 . S
C1647 C1644 1.499 . S
C1647 C1648 1.373 . S
C1647 C1649 1.389 . S
C1648 H1621 0.950 . S
C1648 C1634 1.377 . S
C1648 C1647 1.373 . S
C1649 C1633 1.377 . S
C1649 C1647 1.389 . S
C1649 C1650 1.524 . S
C1650 C1649 1.524 . S
C1650 C1651 1.397 . S
C1650 C1655 1.363 . S
C1651 H1622 0.950 . S
C1651 C1650 1.397 . S
C1651 C1652 1.334 . S
C1652 H1623 0.950 . S
C1652 C1651 1.334 . S
C1652 C1653 1.287 . S
C1653 C1652 1.287 . S
C1653 C1654 1.524 . S
C1653 H1656 0.999 . S
C1654 H1624 0.950 . S
C1654 C1653 1.524 . S
C1654 C1655 1.415 . S
C1655 H1625 0.950 . S
C1655 C1650 1.363 . S
C1655 C1654 1.415 . S
H1656 C1653 0.999 . S
H1657 C1638 0.913 . S
H1658 C1676 0.951 . S
H1659 C1678 0.951 . S
H1660 C1680 0.950 . S
H1661 C1681 0.950 . S
H1662 C1683 0.950 . S
H1663 C1686 0.950 . S
H1664 C1687 0.950 . S
H1665 C1689 0.950 . S
H1666 C1690 0.950 . S
H1667 C1691 0.951 . S
H1668 C1693 0.951 . S
H1669 C1695 0.950 . S
H1670 C1696 0.950 . S
H1671 C1698 0.950 . S
H1672 C1701 0.950 . S
H1673 C1702 0.950 . S
H1674 C1704 0.950 . S
H1675 C1705 0.950 . S
C1676 H1658 0.951 . S
C1676 C1677 1.366 . S
C1676 C1678 1.388 . S
C1677 C1676 1.366 . S
C1677 C1681 1.385 . S
C1678 H1659 0.951 . S
C1678 C1676 1.388 . S
C1678 C1679 1.366 . S
C1679 C1678 1.366 . S
C1679 C1680 1.414 . S
C1679 C1682 1.499 . S
C1680 H1660 0.950 . S
C1680 C1679 1.414 . S
C1680 C1681 1.374 . S
C1681 H1661 0.950 . S
C1681 C1677 1.385 . S
C1681 C1680 1.374 . S
C1682 C1679 1.499 . S
C1682 C1683 1.373 . S
C1682 C1684 1.389 . S
C1683 H1662 0.950 . S
C1683 C1682 1.373 . S
C1683 C1699 1.377 . S
C1684 C1682 1.389 . S
C1684 C1685 1.524 . S
C1684 C1698 1.377 . S
C1685 C1684 1.524 . S
C1685 C1686 1.397 . S
C1685 C1690 1.363 . S
C1686 H1663 0.950 . S
C1686 C1685 1.397 . S
C1686 C1687 1.334 . S
C1687 H1664 0.950 . S
C1687 C1686 1.334 . S
C1687 C1688 1.287 . S
C1688 C1687 1.287 . S
C1688 C1689 1.524 . S
C1688 H1707 0.913 . S
C1689 H1665 0.950 . S
C1689 C1688 1.524 . S
C1689 C1690 1.415 . S
C1690 H1666 0.950 . S
C1690 C1685 1.363 . S
C1690 C1689 1.415 . S
C1691 H1667 0.951 . S
C1691 C1692 1.366 . S
C1691 C1693 1.388 . S
C1692 C1691 1.366 . S
C1692 C1696 1.385 . S
C1693 H1668 0.951 . S
C1693 C1691 1.388 . S
C1693 C1694 1.366 . S
C1694 C1693 1.366 . S
C1694 C1695 1.414 . S
C1694 C1697 1.499 . S
C1695 H1669 0.950 . S
C1695 C1694 1.414 . S
C1695 C1696 1.374 . S
C1696 H1670 0.950 . S
C1696 C1692 1.385 . S
C1696 C1695 1.374 . S
C1697 C1694 1.499 . S
C1697 C1698 1.373 . S
C1697 C1699 1.389 . S
C1698 H1671 0.950 . S
C1698 C1684 1.377 . S
C1698 C1697 1.373 . S
C1699 C1683 1.377 . S
C1699 C1697 1.389 . S
C1699 C1700 1.524 . S
C1700 C1699 1.524 . S
C1700 C1701 1.397 . S
C1700 C1705 1.363 . S
C1701 H1672 0.950 . S
C1701 C1700 1.397 . S
C1701 C1702 1.334 . S
C1702 H1673 0.950 . S
C1702 C1701 1.334 . S
C1702 C1703 1.287 . S
C1703 C1702 1.287 . S
C1703 C1704 1.524 . S
C1703 H1706 0.999 . S
C1704 H1674 0.950 . S
C1704 C1703 1.524 . S
C1704 C1705 1.415 . S
C1705 H1675 0.950 . S
C1705 C1700 1.363 . S
C1705 C1704 1.415 . S
H1706 C1703 0.999 . S
H1707 C1688 0.913 . S
H1708 C1726 0.951 . S
H1709 C1728 0.951 . S
H1710 C1730 0.950 . S
H1711 C1731 0.950 . S
H1712 C1733 0.950 . S
H1713 C1736 0.950 . S
H1714 C1737 0.950 . S
H1715 C1739 0.950 . S
H1716 C1740 0.997 . S
H1717 C1741 0.951 . S
H1718 C1743 0.951 . S
H1719 C1745 0.950 . S
H1720 C1746 0.950 . S
H1721 C1748 0.950 . S
H1722 C1751 0.950 . S
H1723 C1752 0.950 . S
H1724 C1754 0.950 . S
H1725 C1755 0.950 . S
C1726 H1708 0.951 . S
C1726 C1727 1.366 . S
C1726 C1728 1.388 . S
C1727 C1726 1.366 . S
C1727 C1731 1.385 . S
C1728 H1709 0.951 . S
C1728 C1726 1.388 . S
C1728 C1729 1.366 . S
C1729 C1728 1.366 . S
C1729 C1730 1.414 . S
C1729 C1732 1.500 . S
C1730 H1710 0.950 . S
C1730 C1729 1.414 . S
C1730 C1731 1.374 . S
C1731 H1711 0.950 . S
C1731 C1727 1.385 . S
C1731 C1730 1.374 . S
C1732 C1729 1.500 . S
C1732 C1733 1.373 1_545 S
C1732 C1734 1.389 1_545 S
C1733 H1712 0.950 . S
C1733 C1732 1.373 1_565 S
C1733 C1749 1.377 . S
C1734 C1732 1.389 1_565 S
C1734 C1735 1.524 1_565 S
C1734 C1748 1.377 . S
C1735 C1734 1.524 1_545 S
C1735 C1736 1.397 . S
C1735 C1740 1.336 1_545 S
C1736 H1713 0.950 . S
C1736 C1735 1.397 . S
C1736 C1737 1.334 . S
C1737 H1714 0.950 . S
C1737 C1736 1.334 . S
C1737 C1738 1.287 . S
C1738 C1737 1.287 . S
C1738 C1739 1.524 . S
C1738 H1757 0.913 . S
C1739 H1715 0.950 . S
C1739 C1738 1.524 . S
C1739 C1740 1.398 1_545 S
C1740 H1716 0.997 . S
C1740 C1735 1.336 1_565 S
C1740 C1739 1.398 1_565 S
C1741 H1717 0.951 . S
C1741 C1742 1.366 . S
C1741 C1743 1.388 . S
C1742 C1741 1.366 . S
C1742 C1746 1.385 . S
C1743 H1718 0.951 . S
C1743 C1741 1.388 . S
C1743 C1744 1.366 . S
C1744 C1743 1.366 . S
C1744 C1745 1.414 . S
C1744 C1747 1.499 . S
C1745 H1719 0.950 . S
C1745 C1744 1.414 . S
C1745 C1746 1.374 . S
C1746 H1720 0.950 . S
C1746 C1742 1.385 . S
C1746 C1745 1.374 . S
C1747 C1744 1.499 . S
C1747 C1748 1.373 . S
C1747 C1749 1.389 . S
C1748 H1721 0.950 . S
C1748 C1734 1.377 . S
C1748 C1747 1.373 . S
C1749 C1733 1.377 . S
C1749 C1747 1.389 . S
C1749 C1750 1.524 . S
C1750 C1749 1.524 . S
C1750 C1751 1.397 . S
C1750 C1755 1.363 . S
C1751 H1722 0.950 . S
C1751 C1750 1.397 . S
C1751 C1752 1.334 . S
C1752 H1723 0.950 . S
C1752 C1751 1.334 . S
C1752 C1753 1.287 . S
C1753 C1752 1.287 . S
C1753 C1754 1.524 . S
C1753 H1756 0.999 . S
C1754 H1724 0.950 . S
C1754 C1753 1.524 . S
C1754 C1755 1.415 . S
C1755 H1725 0.950 . S
C1755 C1750 1.363 . S
C1755 C1754 1.415 . S
H1756 C1753 0.999 . S
H1757 C1738 0.913 . S
H1758 C1776 0.951 . S
H1759 C1778 0.951 . S
H1760 C1780 0.950 . S
H1761 C1781 0.950 . S
H1762 C1783 0.950 . S
H1763 C1786 0.950 . S
H1764 C1787 0.950 . S
H1765 C1789 0.950 . S
H1766 C1790 0.950 . S
H1767 C1791 0.951 . S
H1768 C1793 0.951 . S
H1769 C1795 0.950 . S
H1770 C1796 0.950 . S
H1771 C1798 0.950 . S
H1772 C1801 0.950 . S
H1773 C1802 0.950 . S
H1774 C1804 0.950 . S
H1775 C1805 0.950 . S
C1776 H1758 0.951 . S
C1776 C1777 1.366 . S
C1776 C1778 1.388 . S
C1777 C1776 1.366 . S
C1777 C1781 1.385 . S
C1778 H1759 0.951 . S
C1778 C1776 1.388 . S
C1778 C1779 1.366 . S
C1779 C1778 1.366 . S
C1779 C1780 1.414 . S
C1779 C1782 1.499 . S
C1780 H1760 0.950 . S
C1780 C1779 1.414 . S
C1780 C1781 1.374 . S
C1781 H1761 0.950 . S
C1781 C1777 1.385 . S
C1781 C1780 1.374 . S
C1782 C1779 1.499 . S
C1782 C1783 1.373 . S
C1782 C1784 1.389 . S
C1783 H1762 0.950 . S
C1783 C1782 1.373 . S
C1783 C1799 1.377 . S
C1784 C1782 1.389 . S
C1784 C1785 1.524 . S
C1784 C1798 1.377 . S
C1785 C1784 1.524 . S
C1785 C1786 1.397 . S
C1785 C1790 1.363 . S
C1786 H1763 0.950 . S
C1786 C1785 1.397 . S
C1786 C1787 1.334 . S
C1787 H1764 0.950 . S
C1787 C1786 1.334 . S
C1787 C1788 1.287 . S
C1788 C1787 1.287 . S
C1788 C1789 1.524 . S
C1788 H1807 0.913 . S
C1789 H1765 0.950 . S
C1789 C1788 1.524 . S
C1789 C1790 1.415 . S
C1790 H1766 0.950 . S
C1790 C1785 1.363 . S
C1790 C1789 1.415 . S
C1791 H1767 0.951 . S
C1791 C1792 1.366 . S
C1791 C1793 1.388 . S
C1792 C1791 1.366 . S
C1792 C1796 1.385 . S
C1793 H1768 0.951 . S
C1793 C1791 1.388 . S
C1793 C1794 1.366 . S
C1794 C1793 1.366 . S
C1794 C1795 1.414 . S
C1794 C1797 1.499 . S
C1795 H1769 0.950 . S
C1795 C1794 1.414 . S
C1795 C1796 1.374 . S
C1796 H1770 0.950 . S
C1796 C1792 1.385 . S
C1796 C1795 1.374 . S
C1797 C1794 1.499 . S
C1797 C1798 1.373 . S
C1797 C1799 1.389 . S
C1798 H1771 0.950 . S
C1798 C1784 1.377 . S
C1798 C1797 1.373 . S
C1799 C1783 1.377 . S
C1799 C1797 1.389 . S
C1799 C1800 1.524 . S
C1800 C1799 1.524 . S
C1800 C1801 1.397 . S
C1800 C1805 1.363 . S
C1801 H1772 0.950 . S
C1801 C1800 1.397 . S
C1801 C1802 1.334 . S
C1802 H1773 0.950 . S
C1802 C1801 1.334 . S
C1802 C1803 1.287 . S
C1803 C1802 1.287 . S
C1803 C1804 1.524 . S
C1803 H1806 0.999 . S
C1804 H1774 0.950 . S
C1804 C1803 1.524 . S
C1804 C1805 1.415 . S
C1805 H1775 0.950 . S
C1805 C1800 1.363 . S
C1805 C1804 1.415 . S
H1806 C1803 0.999 . S
H1807 C1788 0.913 . S
H1808 C1826 0.951 . S
H1809 C1828 0.951 . S
H1810 C1830 0.950 . S
H1811 C1831 0.950 . S
H1812 C1833 0.950 . S
H1813 C1836 0.950 . S
H1814 C1837 0.950 . S
H1815 C1839 0.950 . S
H1816 C1840 0.950 . S
H1817 C1841 0.951 . S
H1818 C1843 0.951 . S
H1819 C1845 0.950 . S
H1820 C1846 0.950 . S
H1821 C1848 0.950 . S
H1822 C1851 0.950 . S
H1823 C1852 0.950 . S
H1824 C1854 0.950 . S
H1825 C1855 0.950 . S
C1826 H1808 0.951 . S
C1826 C1827 1.366 . S
C1826 C1828 1.388 . S
C1827 C1826 1.366 . S
C1827 C1831 1.385 . S
C1828 H1809 0.951 . S
C1828 C1826 1.388 . S
C1828 C1829 1.366 . S
C1829 C1828 1.366 . S
C1829 C1830 1.414 . S
C1829 C1832 1.499 . S
C1830 H1810 0.950 . S
C1830 C1829 1.414 . S
C1830 C1831 1.374 . S
C1831 H1811 0.950 . S
C1831 C1827 1.385 . S
C1831 C1830 1.374 . S
C1832 C1829 1.499 . S
C1832 C1833 1.373 . S
C1832 C1834 1.389 . S
C1833 H1812 0.950 . S
C1833 C1832 1.373 . S
C1833 C1849 1.377 . S
C1834 C1832 1.389 . S
C1834 C1835 1.524 . S
C1834 C1848 1.377 . S
C1835 C1834 1.524 . S
C1835 C1836 1.397 . S
C1835 C1840 1.363 . S
C1836 H1813 0.950 . S
C1836 C1835 1.397 . S
C1836 C1837 1.334 . S
C1837 H1814 0.950 . S
C1837 C1836 1.334 . S
C1837 C1838 1.287 . S
C1838 C1837 1.287 . S
C1838 C1839 1.524 . S
C1838 H1857 0.913 . S
C1839 H1815 0.950 . S
C1839 C1838 1.524 . S
C1839 C1840 1.415 . S
C1840 H1816 0.950 . S
C1840 C1835 1.363 . S
C1840 C1839 1.415 . S
C1841 H1817 0.951 . S
C1841 C1842 1.366 . S
C1841 C1843 1.388 . S
C1842 C1841 1.366 . S
C1842 C1846 1.385 . S
C1843 H1818 0.951 . S
C1843 C1841 1.388 . S
C1843 C1844 1.366 . S
C1844 C1843 1.366 . S
C1844 C1845 1.414 . S
C1844 C1847 1.499 . S
C1845 H1819 0.950 . S
C1845 C1844 1.414 . S
C1845 C1846 1.374 . S
C1846 H1820 0.950 . S
C1846 C1842 1.385 . S
C1846 C1845 1.374 . S
C1847 C1844 1.499 . S
C1847 C1848 1.373 . S
C1847 C1849 1.389 . S
C1848 H1821 0.950 . S
C1848 C1834 1.377 . S
C1848 C1847 1.373 . S
C1849 C1833 1.377 . S
C1849 C1847 1.389 . S
C1849 C1850 1.524 . S
C1850 C1849 1.524 . S
C1850 C1851 1.397 . S
C1850 C1855 1.363 . S
C1851 H1822 0.950 . S
C1851 C1850 1.397 . S
C1851 C1852 1.334 . S
C1852 H1823 0.950 . S
C1852 C1851 1.334 . S
C1852 C1853 1.287 . S
C1853 C1852 1.287 . S
C1853 C1854 1.524 . S
C1853 H1856 0.999 . S
C1854 H1824 0.950 . S
C1854 C1853 1.524 . S
C1854 C1855 1.415 . S
C1855 H1825 0.950 . S
C1855 C1850 1.363 . S
C1855 C1854 1.415 . S
H1856 C1853 0.999 . S
H1857 C1838 0.913 . S
H1858 C1876 0.951 . S
H1859 C1878 0.951 . S
H1860 C1880 0.950 . S
H1861 C1881 0.950 . S
H1862 C1883 0.950 . S
H1863 C1886 0.950 . S
H1864 C1887 0.950 . S
H1865 C1889 0.950 . S
H1866 C1890 0.950 . S
H1867 C1891 0.951 . S
H1868 C1893 0.951 . S
H1869 C1895 0.950 . S
H1870 C1896 0.950 . S
H1871 C1898 0.950 . S
H1872 C1901 0.950 . S
H1873 C1902 0.950 . S
H1874 C1904 0.950 . S
H1875 C1905 0.950 . S
C1876 H1858 0.951 . S
C1876 C1877 1.366 . S
C1876 C1878 1.388 . S
C1877 C1876 1.366 . S
C1877 C1881 1.385 . S
C1878 H1859 0.951 . S
C1878 C1876 1.388 . S
C1878 C1879 1.366 . S
C1879 C1878 1.366 . S
C1879 C1880 1.414 . S
C1879 C1882 1.499 . S
C1880 H1860 0.950 . S
C1880 C1879 1.414 . S
C1880 C1881 1.374 . S
C1881 H1861 0.950 . S
C1881 C1877 1.385 . S
C1881 C1880 1.374 . S
C1882 C1879 1.499 . S
C1882 C1883 1.373 . S
C1882 C1884 1.389 . S
C1883 H1862 0.950 . S
C1883 C1882 1.373 . S
C1883 C1899 1.377 . S
C1884 C1882 1.389 . S
C1884 C1885 1.524 . S
C1884 C1898 1.377 . S
C1885 C1884 1.524 . S
C1885 C1886 1.397 . S
C1885 C1890 1.363 . S
C1886 H1863 0.950 . S
C1886 C1885 1.397 . S
C1886 C1887 1.334 . S
C1887 H1864 0.950 . S
C1887 C1886 1.334 . S
C1887 C1888 1.287 . S
C1888 C1887 1.287 . S
C1888 C1889 1.524 . S
C1888 H1907 0.913 . S
C1889 H1865 0.950 . S
C1889 C1888 1.524 . S
C1889 C1890 1.415 . S
C1890 H1866 0.950 . S
C1890 C1885 1.363 . S
C1890 C1889 1.415 . S
C1891 H1867 0.951 . S
C1891 C1892 1.366 . S
C1891 C1893 1.388 . S
C1892 C1891 1.366 . S
C1892 C1896 1.385 . S
C1893 H1868 0.951 . S
C1893 C1891 1.388 . S
C1893 C1894 1.366 . S
C1894 C1893 1.366 . S
C1894 C1895 1.414 . S
C1894 C1897 1.499 . S
C1895 H1869 0.950 . S
C1895 C1894 1.414 . S
C1895 C1896 1.374 . S
C1896 H1870 0.950 . S
C1896 C1892 1.385 . S
C1896 C1895 1.374 . S
C1897 C1894 1.499 . S
C1897 C1898 1.373 . S
C1897 C1899 1.389 . S
C1898 H1871 0.950 . S
C1898 C1884 1.377 . S
C1898 C1897 1.373 . S
C1899 C1883 1.377 . S
C1899 C1897 1.389 . S
C1899 C1900 1.524 . S
C1900 C1899 1.524 . S
C1900 C1901 1.397 . S
C1900 C1905 1.363 . S
C1901 H1872 0.950 . S
C1901 C1900 1.397 . S
C1901 C1902 1.334 . S
C1902 H1873 0.950 . S
C1902 C1901 1.334 . S
C1902 C1903 1.287 . S
C1903 C1902 1.287 . S
C1903 C1904 1.524 . S
C1903 H1906 0.999 . S
C1904 H1874 0.950 . S
C1904 C1903 1.524 . S
C1904 C1905 1.415 . S
C1905 H1875 0.950 . S
C1905 C1900 1.363 . S
C1905 C1904 1.415 . S
H1906 C1903 0.999 . S
H1907 C1888 0.913 . S
H1908 C1926 0.951 . S
H1909 C1928 0.951 . S
H1910 C1930 0.950 . S
H1911 C1931 0.950 . S
H1912 C1933 0.950 . S
H1913 C1936 0.950 . S
H1914 C1937 0.950 . S
H1915 C1939 0.950 . S
H1916 C1940 0.950 . S
H1917 C1941 0.951 . S
H1918 C1943 0.951 . S
H1919 C1945 0.950 . S
H1920 C1946 0.950 . S
H1921 C1948 0.950 . S
H1922 C1951 0.950 . S
H1923 C1952 0.950 . S
H1924 C1954 0.950 . S
H1925 C1955 0.950 . S
C1926 H1908 0.951 . S
C1926 C1927 1.366 . S
C1926 C1928 1.388 . S
C1927 C1926 1.366 . S
C1927 C1931 1.385 . S
C1928 H1909 0.951 . S
C1928 C1926 1.388 . S
C1928 C1929 1.366 . S
C1929 C1928 1.366 . S
C1929 C1930 1.414 . S
C1929 C1932 1.499 . S
C1930 H1910 0.950 . S
C1930 C1929 1.414 . S
C1930 C1931 1.374 . S
C1931 H1911 0.950 . S
C1931 C1927 1.385 . S
C1931 C1930 1.374 . S
C1932 C1929 1.499 . S
C1932 C1933 1.373 . S
C1932 C1934 1.389 . S
C1933 H1912 0.950 . S
C1933 C1932 1.373 . S
C1933 C1949 1.377 . S
C1934 C1932 1.389 . S
C1934 C1935 1.524 . S
C1934 C1948 1.377 . S
C1935 C1934 1.524 . S
C1935 C1936 1.397 . S
C1935 C1940 1.363 . S
C1936 H1913 0.950 . S
C1936 C1935 1.397 . S
C1936 C1937 1.334 . S
C1937 H1914 0.950 . S
C1937 C1936 1.334 . S
C1937 C1938 1.287 . S
C1938 C1937 1.287 . S
C1938 C1939 1.524 . S
C1938 H1957 0.913 . S
C1939 H1915 0.950 . S
C1939 C1938 1.524 . S
C1939 C1940 1.415 . S
C1940 H1916 0.950 . S
C1940 C1935 1.363 . S
C1940 C1939 1.415 . S
C1941 H1917 0.951 . S
C1941 C1942 1.366 . S
C1941 C1943 1.388 . S
C1942 C1941 1.366 . S
C1942 C1946 1.385 . S
C1943 H1918 0.951 . S
C1943 C1941 1.388 . S
C1943 C1944 1.366 . S
C1944 C1943 1.366 . S
C1944 C1945 1.414 . S
C1944 C1947 1.499 . S
C1945 H1919 0.950 . S
C1945 C1944 1.414 . S
C1945 C1946 1.374 . S
C1946 H1920 0.950 . S
C1946 C1942 1.385 . S
C1946 C1945 1.374 . S
C1947 C1944 1.499 . S
C1947 C1948 1.373 . S
C1947 C1949 1.389 . S
C1948 H1921 0.950 . S
C1948 C1934 1.377 . S
C1948 C1947 1.373 . S
C1949 C1933 1.377 . S
C1949 C1947 1.389 . S
C1949 C1950 1.524 . S
C1950 C1949 1.524 . S
C1950 C1951 1.397 . S
C1950 C1955 1.363 . S
C1951 H1922 0.950 . S
C1951 C1950 1.397 . S
C1951 C1952 1.334 . S
C1952 H1923 0.950 . S
C1952 C1951 1.334 . S
C1952 C1953 1.287 . S
C1953 C1952 1.287 . S
C1953 C1954 1.524 . S
C1953 H1956 0.999 . S
C1954 H1924 0.950 . S
C1954 C1953 1.524 . S
C1954 C1955 1.415 . S
C1955 H1925 0.950 . S
C1955 C1950 1.363 . S
C1955 C1954 1.415 . S
H1956 C1953 0.999 . S
H1957 C1938 0.913 . S
H1958 C1976 0.951 . S
H1959 C1978 0.951 . S
H1960 C1980 0.950 . S
H1961 C1981 0.950 . S
H1962 C1983 0.950 . S
H1963 C1986 0.950 . S
H1964 C1987 0.950 . S
H1965 C1989 0.950 . S
H1966 C1990 0.950 . S
H1967 C1991 0.951 . S
H1968 C1993 0.951 . S
H1969 C1995 0.950 . S
H1970 C1996 0.950 . S
H1971 C1998 0.950 . S
H1972 C2001 0.950 . S
H1973 C2002 0.950 . S
H1974 C2004 0.950 . S
H1975 C2005 0.950 . S
C1976 H1958 0.951 . S
C1976 C1977 1.366 . S
C1976 C1978 1.388 . S
C1977 C1976 1.366 . S
C1977 C1981 1.385 . S
C1978 H1959 0.951 . S
C1978 C1976 1.388 . S
C1978 C1979 1.366 . S
C1979 C1978 1.366 . S
C1979 C1980 1.414 . S
C1979 C1982 1.499 . S
C1980 H1960 0.950 . S
C1980 C1979 1.414 . S
C1980 C1981 1.374 . S
C1981 H1961 0.950 . S
C1981 C1977 1.385 . S
C1981 C1980 1.374 . S
C1982 C1979 1.499 . S
C1982 C1983 1.373 . S
C1982 C1984 1.389 . S
C1983 H1962 0.950 . S
C1983 C1982 1.373 . S
C1983 C1999 1.377 . S
C1984 C1982 1.389 . S
C1984 C1985 1.524 . S
C1984 C1998 1.377 . S
C1985 C1984 1.524 . S
C1985 C1986 1.397 . S
C1985 C1990 1.363 . S
C1986 H1963 0.950 . S
C1986 C1985 1.397 . S
C1986 C1987 1.334 . S
C1987 H1964 0.950 . S
C1987 C1986 1.334 . S
C1987 C1988 1.287 . S
C1988 C1987 1.287 . S
C1988 C1989 1.524 . S
C1988 H2007 0.913 . S
C1989 H1965 0.950 . S
C1989 C1988 1.524 . S
C1989 C1990 1.415 . S
C1990 H1966 0.950 . S
C1990 C1985 1.363 . S
C1990 C1989 1.415 . S
C1991 H1967 0.951 . S
C1991 C1992 1.366 . S
C1991 C1993 1.388 . S
C1992 C1991 1.366 . S
C1992 C1996 1.385 . S
C1993 H1968 0.951 . S
C1993 C1991 1.388 . S
C1993 C1994 1.366 . S
C1994 C1993 1.366 . S
C1994 C1995 1.414 . S
C1994 C1997 1.499 . S
C1995 H1969 0.950 . S
C1995 C1994 1.414 . S
C1995 C1996 1.374 . S
C1996 H1970 0.950 . S
C1996 C1992 1.385 . S
C1996 C1995 1.374 . S
C1997 C1994 1.499 . S
C1997 C1998 1.373 . S
C1997 C1999 1.389 . S
C1998 H1971 0.950 . S
C1998 C1984 1.377 . S
C1998 C1997 1.373 . S
C1999 C1983 1.377 . S
C1999 C1997 1.389 . S
C1999 C2000 1.524 . S
C2000 C1999 1.524 . S
C2000 C2001 1.397 . S
C2000 C2005 1.363 . S
C2001 H1972 0.950 . S
C2001 C2000 1.397 . S
C2001 C2002 1.334 . S
C2002 H1973 0.950 . S
C2002 C2001 1.334 . S
C2002 C2003 1.287 . S
C2003 C2002 1.287 . S
C2003 C2004 1.524 . S
C2003 H2006 0.999 . S
C2004 H1974 0.950 . S
C2004 C2003 1.524 . S
C2004 C2005 1.415 . S
C2005 H1975 0.950 . S
C2005 C2000 1.363 . S
C2005 C2004 1.415 . S
H2006 C2003 0.999 . S
H2007 C1988 0.913 . S
H2008 C2026 0.951 . S
H2009 C2028 0.951 . S
H2010 C2030 0.950 . S
H2011 C2031 0.950 . S
H2012 C2033 0.950 . S
H2013 C2036 0.950 . S
H2014 C2037 0.950 . S
H2015 C2039 0.950 . S
H2016 C2040 0.950 . S
H2017 C2041 0.951 . S
H2018 C2043 0.951 . S
H2019 C2045 0.950 . S
H2020 C2046 0.950 . S
H2021 C2048 0.950 . S
H2022 C2051 0.950 . S
H2023 C2052 0.950 . S
H2024 C2054 0.950 . S
H2025 C2055 0.950 . S
C2026 H2008 0.951 . S
C2026 C2027 1.366 . S
C2026 C2028 1.388 . S
C2027 C2026 1.366 . S
C2027 C2031 1.385 . S
C2028 H2009 0.951 . S
C2028 C2026 1.388 . S
C2028 C2029 1.366 . S
C2029 C2028 1.366 . S
C2029 C2030 1.414 . S
C2029 C2032 1.499 . S
C2030 H2010 0.950 . S
C2030 C2029 1.414 . S
C2030 C2031 1.374 . S
C2031 H2011 0.950 . S
C2031 C2027 1.385 . S
C2031 C2030 1.374 . S
C2032 C2029 1.499 . S
C2032 C2033 1.373 . S
C2032 C2034 1.389 . S
C2033 H2012 0.950 . S
C2033 C2032 1.373 . S
C2033 C2049 1.377 . S
C2034 C2032 1.389 . S
C2034 C2035 1.524 . S
C2034 C2048 1.377 . S
C2035 C2034 1.524 . S
C2035 C2036 1.397 . S
C2035 C2040 1.363 . S
C2036 H2013 0.950 . S
C2036 C2035 1.397 . S
C2036 C2037 1.334 . S
C2037 H2014 0.950 . S
C2037 C2036 1.334 . S
C2037 C2038 1.287 . S
C2038 C2037 1.287 . S
C2038 C2039 1.524 . S
C2038 H2057 0.913 . S
C2039 H2015 0.950 . S
C2039 C2038 1.524 . S
C2039 C2040 1.415 . S
C2040 H2016 0.950 . S
C2040 C2035 1.363 . S
C2040 C2039 1.415 . S
C2041 H2017 0.951 . S
C2041 C2042 1.366 . S
C2041 C2043 1.388 . S
C2042 C2041 1.366 . S
C2042 C2046 1.385 . S
C2043 H2018 0.951 . S
C2043 C2041 1.388 . S
C2043 C2044 1.366 . S
C2044 C2043 1.366 . S
C2044 C2045 1.414 . S
C2044 C2047 1.499 . S
C2045 H2019 0.950 . S
C2045 C2044 1.414 . S
C2045 C2046 1.374 . S
C2046 H2020 0.950 . S
C2046 C2042 1.385 . S
C2046 C2045 1.374 . S
C2047 C2044 1.499 . S
C2047 C2048 1.373 . S
C2047 C2049 1.389 . S
C2048 H2021 0.950 . S
C2048 C2034 1.377 . S
C2048 C2047 1.373 . S
C2049 C2033 1.377 . S
C2049 C2047 1.389 . S
C2049 C2050 1.524 . S
C2050 C2049 1.524 . S
C2050 C2051 1.397 . S
C2050 C2055 1.363 . S
C2051 H2022 0.950 . S
C2051 C2050 1.397 . S
C2051 C2052 1.334 . S
C2052 H2023 0.950 . S
C2052 C2051 1.334 . S
C2052 C2053 1.287 . S
C2053 C2052 1.287 . S
C2053 C2054 1.524 . S
C2053 H2056 0.999 . S
C2054 H2024 0.950 . S
C2054 C2053 1.524 . S
C2054 C2055 1.415 . S
C2055 H2025 0.950 . S
C2055 C2050 1.363 . S
C2055 C2054 1.415 . S
H2056 C2053 0.999 . S
H2057 C2038 0.913 . S
H2058 C2076 0.951 . S
H2059 C2078 0.951 . S
H2060 C2080 0.950 . S
H2061 C2081 0.950 . S
H2062 C2083 0.950 . S
H2063 C2086 0.950 . S
H2064 C2087 0.950 . S
H2065 C2089 0.950 . S
H2066 C2090 0.950 . S
H2067 C2091 0.951 . S
H2068 C2093 0.951 . S
H2069 C2095 0.950 . S
H2070 C2096 0.950 . S
H2071 C2098 0.950 . S
H2072 C2101 0.950 . S
H2073 C2102 0.950 . S
H2074 C2104 0.950 . S
H2075 C2105 0.950 . S
C2076 H2058 0.951 . S
C2076 C2077 1.366 . S
C2076 C2078 1.388 . S
C2077 C2076 1.366 . S
C2077 C2081 1.385 . S
C2078 H2059 0.951 . S
C2078 C2076 1.388 . S
C2078 C2079 1.366 . S
C2079 C2078 1.366 . S
C2079 C2080 1.414 . S
C2079 C2082 1.499 1_545 S
C2080 H2060 0.950 . S
C2080 C2079 1.414 . S
C2080 C2081 1.374 . S
C2081 H2061 0.950 . S
C2081 C2077 1.385 . S
C2081 C2080 1.374 . S
C2082 C2079 1.499 1_565 S
C2082 C2083 1.373 . S
C2082 C2084 1.389 . S
C2083 H2062 0.950 . S
C2083 C2082 1.373 . S
C2083 C2099 1.377 . S
C2084 C2082 1.389 . S
C2084 C2085 1.524 . S
C2084 C2098 1.377 . S
C2085 C2084 1.524 . S
C2085 C2086 1.397 1_565 S
C2085 C2090 1.363 . S
C2086 H2063 0.950 . S
C2086 C2085 1.397 1_545 S
C2086 C2087 1.334 . S
C2087 H2064 0.950 . S
C2087 C2086 1.334 . S
C2087 C2088 1.287 . S
C2088 C2087 1.287 . S
C2088 C2089 1.524 1_545 S
C2088 H2107 0.913 . S
C2089 H2065 0.950 . S
C2089 C2088 1.524 1_565 S
C2089 C2090 1.415 . S
C2090 H2066 0.950 . S
C2090 C2085 1.363 . S
C2090 C2089 1.415 . S
C2091 H2067 0.951 . S
C2091 C2092 1.366 . S
C2091 C2093 1.388 . S
C2092 C2091 1.366 . S
C2092 C2096 1.385 . S
C2093 H2068 0.951 . S
C2093 C2091 1.388 . S
C2093 C2094 1.366 . S
C2094 C2093 1.366 . S
C2094 C2095 1.414 . S
C2094 C2097 1.499 . S
C2095 H2069 0.950 . S
C2095 C2094 1.414 . S
C2095 C2096 1.374 . S
C2096 H2070 0.950 . S
C2096 C2092 1.385 . S
C2096 C2095 1.374 . S
C2097 C2094 1.499 . S
C2097 C2098 1.373 . S
C2097 C2099 1.389 . S
C2098 H2071 0.950 . S
C2098 C2084 1.377 . S
C2098 C2097 1.373 . S
C2099 C2083 1.377 . S
C2099 C2097 1.389 . S
C2099 C2100 1.524 . S
C2100 C2099 1.524 . S
C2100 C2101 1.397 . S
C2100 C2105 1.363 . S
C2101 H2072 0.950 . S
C2101 C2100 1.397 . S
C2101 C2102 1.334 . S
C2102 H2073 0.950 . S
C2102 C2101 1.334 . S
C2102 C2103 1.287 . S
C2103 C2102 1.287 . S
C2103 C2104 1.524 . S
C2103 H2106 0.999 . S
C2104 H2074 0.950 . S
C2104 C2103 1.524 . S
C2104 C2105 1.415 . S
C2105 H2075 0.950 . S
C2105 C2100 1.363 . S
C2105 C2104 1.415 . S
H2106 C2103 0.999 . S
H2107 C2088 0.913 . S
H2108 C2126 0.951 . S
H2109 C2128 0.951 . S
H2110 C2130 0.950 1_455 S
H2111 C2131 0.950 . S
H2112 C2133 0.950 . S
H2113 C2136 0.950 . S
H2114 C2137 0.950 . S
H2115 C2139 0.950 . S
H2116 C2140 0.950 . S
H2117 C2141 0.951 . S
H2118 C2143 0.951 . S
H2119 C2145 0.950 . S
H2120 C2146 0.950 . S
H2121 C2148 0.950 . S
H2122 C2151 0.950 . S
H2123 C2152 0.950 . S
H2124 C2154 0.950 . S
H2125 C2155 0.950 . S
C2126 H2108 0.951 . S
C2126 C2127 1.366 . S
C2126 C2128 1.388 . S
C2127 C2126 1.366 . S
C2127 C2131 1.385 . S
C2128 H2109 0.951 . S
C2128 C2126 1.388 . S
C2128 C2129 1.366 1_655 S
C2129 C2128 1.366 1_455 S
C2129 C2130 1.414 1_455 S
C2129 C2132 1.499 . S
C2130 H2110 0.950 1_655 S
C2130 C2129 1.414 1_655 S
C2130 C2131 1.374 . S
C2131 H2111 0.950 . S
C2131 C2127 1.385 . S
C2131 C2130 1.374 . S
C2132 C2129 1.499 . S
C2132 C2133 1.373 . S
C2132 C2134 1.389 . S
C2133 H2112 0.950 . S
C2133 C2132 1.373 . S
C2133 C2149 1.377 . S
C2134 C2132 1.389 . S
C2134 C2135 1.524 . S
C2134 C2148 1.377 . S
C2135 C2134 1.524 . S
C2135 C2136 1.397 . S
C2135 C2140 1.363 . S
C2136 H2113 0.950 . S
C2136 C2135 1.397 . S
C2136 C2137 1.334 . S
C2137 H2114 0.950 . S
C2137 C2136 1.334 . S
C2137 C2138 1.287 . S
C2138 C2137 1.287 . S
C2138 C2139 1.524 . S
C2138 H2157 0.913 . S
C2139 H2115 0.950 . S
C2139 C2138 1.524 . S
C2139 C2140 1.415 . S
C2140 H2116 0.950 . S
C2140 C2135 1.363 . S
C2140 C2139 1.415 . S
C2141 H2117 0.951 . S
C2141 C2142 1.366 . S
C2141 C2143 1.388 . S
C2142 C2141 1.366 . S
C2142 C2146 1.385 . S
C2143 H2118 0.951 . S
C2143 C2141 1.388 . S
C2143 C2144 1.366 . S
C2144 C2143 1.366 . S
C2144 C2145 1.414 . S
C2144 C2147 1.499 . S
C2145 H2119 0.950 . S
C2145 C2144 1.414 . S
C2145 C2146 1.374 . S
C2146 H2120 0.950 . S
C2146 C2142 1.385 . S
C2146 C2145 1.374 . S
C2147 C2144 1.499 . S
C2147 C2148 1.373 . S
C2147 C2149 1.389 . S
C2148 H2121 0.950 . S
C2148 C2134 1.377 . S
C2148 C2147 1.373 . S
C2149 C2133 1.377 . S
C2149 C2147 1.389 . S
C2149 C2150 1.524 . S
C2150 C2149 1.524 . S
C2150 C2151 1.397 . S
C2150 C2155 1.363 . S
C2151 H2122 0.950 . S
C2151 C2150 1.397 . S
C2151 C2152 1.334 . S
C2152 H2123 0.950 . S
C2152 C2151 1.334 . S
C2152 C2153 1.287 . S
C2153 C2152 1.287 . S
C2153 C2154 1.524 . S
C2153 H2156 0.999 . S
C2154 H2124 0.950 . S
C2154 C2153 1.524 . S
C2154 C2155 1.415 . S
C2155 H2125 0.950 . S
C2155 C2150 1.363 . S
C2155 C2154 1.415 . S
H2156 C2153 0.999 . S
H2157 C2138 0.913 . S
H2158 C2176 0.951 . S
H2159 C2178 0.951 . S
H2160 C2180 0.950 . S
H2161 C2181 0.950 . S
H2162 C2183 0.950 . S
H2163 C2186 0.950 . S
H2164 C2187 0.950 . S
H2165 C2189 0.950 . S
H2166 C2190 0.950 . S
H2167 C2191 0.951 . S
H2168 C2193 0.951 . S
H2169 C2195 0.950 . S
H2170 C2196 0.950 . S
H2171 C2198 0.950 . S
H2172 C2201 0.950 . S
H2173 C2202 0.950 . S
H2174 C2204 0.950 . S
H2175 C2205 0.950 . S
C2176 H2158 0.951 . S
C2176 C2177 1.366 . S
C2176 C2178 1.388 . S
C2177 C2176 1.366 . S
C2177 C2181 1.385 . S
C2178 H2159 0.951 . S
C2178 C2176 1.388 . S
C2178 C2179 1.366 . S
C2179 C2178 1.366 . S
C2179 C2180 1.414 . S
C2179 C2182 1.499 . S
C2180 H2160 0.950 . S
C2180 C2179 1.414 . S
C2180 C2181 1.374 . S
C2181 H2161 0.950 . S
C2181 C2177 1.385 . S
C2181 C2180 1.374 . S
C2182 C2179 1.499 . S
C2182 C2183 1.373 . S
C2182 C2184 1.389 . S
C2183 H2162 0.950 . S
C2183 C2182 1.373 . S
C2183 C2199 1.377 . S
C2184 C2182 1.389 . S
C2184 C2185 1.524 . S
C2184 C2198 1.377 . S
C2185 C2184 1.524 . S
C2185 C2186 1.397 . S
C2185 C2190 1.363 . S
C2186 H2163 0.950 . S
C2186 C2185 1.397 . S
C2186 C2187 1.334 . S
C2187 H2164 0.950 . S
C2187 C2186 1.334 . S
C2187 C2188 1.287 . S
C2188 C2187 1.287 . S
C2188 C2189 1.524 . S
C2188 H2207 0.913 . S
C2189 H2165 0.950 . S
C2189 C2188 1.524 . S
C2189 C2190 1.415 . S
C2190 H2166 0.950 . S
C2190 C2185 1.363 . S
C2190 C2189 1.415 . S
C2191 H2167 0.951 . S
C2191 C2192 1.366 . S
C2191 C2193 1.388 . S
C2192 C2191 1.366 . S
C2192 C2196 1.385 . S
C2193 H2168 0.951 . S
C2193 C2191 1.388 . S
C2193 C2194 1.366 . S
C2194 C2193 1.366 . S
C2194 C2195 1.414 . S
C2194 C2197 1.499 . S
C2195 H2169 0.950 . S
C2195 C2194 1.414 . S
C2195 C2196 1.374 . S
C2196 H2170 0.950 . S
C2196 C2192 1.385 . S
C2196 C2195 1.374 . S
C2197 C2194 1.499 . S
C2197 C2198 1.373 . S
C2197 C2199 1.389 . S
C2198 H2171 0.950 . S
C2198 C2184 1.377 . S
C2198 C2197 1.373 . S
C2199 C2183 1.377 . S
C2199 C2197 1.389 . S
C2199 C2200 1.524 . S
C2200 C2199 1.524 . S
C2200 C2201 1.397 . S
C2200 C2205 1.363 . S
C2201 H2172 0.950 . S
C2201 C2200 1.397 . S
C2201 C2202 1.334 . S
C2202 H2173 0.950 . S
C2202 C2201 1.334 . S
C2202 C2203 1.287 . S
C2203 C2202 1.287 . S
C2203 C2204 1.524 . S
C2203 H2206 0.999 . S
C2204 H2174 0.950 . S
C2204 C2203 1.524 . S
C2204 C2205 1.415 . S
C2205 H2175 0.950 . S
C2205 C2200 1.363 . S
C2205 C2204 1.415 . S
H2206 C2203 0.999 . S
H2207 C2188 0.913 . S
H2208 C2226 0.951 . S
H2209 C2228 0.951 . S
H2210 C2230 0.950 . S
H2211 C2231 0.950 . S
H2212 C2233 0.950 . S
H2213 C2236 0.950 . S
H2214 C2237 0.950 . S
H2215 C2239 0.950 . S
H2216 C2240 0.950 . S
H2217 C2241 0.951 . S
H2218 C2243 0.951 . S
H2219 C2245 0.950 . S
H2220 C2246 0.950 . S
H2221 C2248 0.950 . S
H2222 C2251 0.950 . S
H2223 C2252 0.950 . S
H2224 C2254 0.950 . S
H2225 C2255 0.950 . S
C2226 H2208 0.951 . S
C2226 C2227 1.366 . S
C2226 C2228 1.388 . S
C2227 C2226 1.366 . S
C2227 C2231 1.385 . S
C2228 H2209 0.951 . S
C2228 C2226 1.388 . S
C2228 C2229 1.366 . S
C2229 C2228 1.366 . S
C2229 C2230 1.414 . S
C2229 C2232 1.499 . S
C2230 H2210 0.950 . S
C2230 C2229 1.414 . S
C2230 C2231 1.374 . S
C2231 H2211 0.950 . S
C2231 C2227 1.385 . S
C2231 C2230 1.374 . S
C2232 C2229 1.499 . S
C2232 C2233 1.373 . S
C2232 C2234 1.389 . S
C2233 H2212 0.950 . S
C2233 C2232 1.373 . S
C2233 C2249 1.377 . S
C2234 C2232 1.389 . S
C2234 C2235 1.524 . S
C2234 C2248 1.377 . S
C2235 C2234 1.524 . S
C2235 C2236 1.397 . S
C2235 C2240 1.363 . S
C2236 H2213 0.950 . S
C2236 C2235 1.397 . S
C2236 C2237 1.334 . S
C2237 H2214 0.950 . S
C2237 C2236 1.334 . S
C2237 C2238 1.287 . S
C2238 C2237 1.287 . S
C2238 C2239 1.524 . S
C2238 H2257 0.913 . S
C2239 H2215 0.950 . S
C2239 C2238 1.524 . S
C2239 C2240 1.415 . S
C2240 H2216 0.950 . S
C2240 C2235 1.363 . S
C2240 C2239 1.415 . S
C2241 H2217 0.951 . S
C2241 C2242 1.366 . S
C2241 C2243 1.388 . S
C2242 C2241 1.366 . S
C2242 C2246 1.385 . S
C2243 H2218 0.951 . S
C2243 C2241 1.388 . S
C2243 C2244 1.366 . S
C2244 C2243 1.366 . S
C2244 C2245 1.414 . S
C2244 C2247 1.499 . S
C2245 H2219 0.950 . S
C2245 C2244 1.414 . S
C2245 C2246 1.374 . S
C2246 H2220 0.950 . S
C2246 C2242 1.385 . S
C2246 C2245 1.374 . S
C2247 C2244 1.499 . S
C2247 C2248 1.373 . S
C2247 C2249 1.389 . S
C2248 H2221 0.950 . S
C2248 C2234 1.377 . S
C2248 C2247 1.373 . S
C2249 C2233 1.377 . S
C2249 C2247 1.389 . S
C2249 C2250 1.524 . S
C2250 C2249 1.524 . S
C2250 C2251 1.397 . S
C2250 C2255 1.363 . S
C2251 H2222 0.950 . S
C2251 C2250 1.397 . S
C2251 C2252 1.334 . S
C2252 H2223 0.950 . S
C2252 C2251 1.334 . S
C2252 C2253 1.287 . S
C2253 C2252 1.287 . S
C2253 C2254 1.524 . S
C2253 H2256 0.999 . S
C2254 H2224 0.950 . S
C2254 C2253 1.524 . S
C2254 C2255 1.415 . S
C2255 H2225 0.950 . S
C2255 C2250 1.363 . S
C2255 C2254 1.415 . S
H2256 C2253 0.999 . S
H2257 C2238 0.913 . S
H2258 C2276 0.951 . S
H2259 C2278 0.951 . S
H2260 C2280 0.950 . S
H2261 C2281 0.950 . S
H2262 C2283 0.950 . S
H2263 C2286 0.950 . S
H2264 C2287 0.950 . S
H2265 C2289 0.950 . S
H2266 C2290 0.950 . S
H2267 C2291 0.951 . S
H2268 C2293 0.951 . S
H2269 C2295 0.950 . S
H2270 C2296 0.950 . S
H2271 C2298 0.950 . S
H2272 C2301 0.950 . S
H2273 C2302 0.950 . S
H2274 C2304 0.950 . S
H2275 C2305 0.950 . S
C2276 H2258 0.951 . S
C2276 C2277 1.366 . S
C2276 C2278 1.388 . S
C2277 C2276 1.366 . S
C2277 C2281 1.385 . S
C2278 H2259 0.951 . S
C2278 C2276 1.388 . S
C2278 C2279 1.366 . S
C2279 C2278 1.366 . S
C2279 C2280 1.414 . S
C2279 C2282 1.499 . S
C2280 H2260 0.950 . S
C2280 C2279 1.414 . S
C2280 C2281 1.374 . S
C2281 H2261 0.950 . S
C2281 C2277 1.385 . S
C2281 C2280 1.374 . S
C2282 C2279 1.499 . S
C2282 C2283 1.373 . S
C2282 C2284 1.389 . S
C2283 H2262 0.950 . S
C2283 C2282 1.373 . S
C2283 C2299 1.377 . S
C2284 C2282 1.389 . S
C2284 C2285 1.524 . S
C2284 C2298 1.377 . S
C2285 C2284 1.524 . S
C2285 C2286 1.397 . S
C2285 C2290 1.363 . S
C2286 H2263 0.950 . S
C2286 C2285 1.397 . S
C2286 C2287 1.334 . S
C2287 H2264 0.950 . S
C2287 C2286 1.334 . S
C2287 C2288 1.287 . S
C2288 C2287 1.287 . S
C2288 C2289 1.524 . S
C2288 H2307 0.913 . S
C2289 H2265 0.950 . S
C2289 C2288 1.524 . S
C2289 C2290 1.415 . S
C2290 H2266 0.950 . S
C2290 C2285 1.363 . S
C2290 C2289 1.415 . S
C2291 H2267 0.951 . S
C2291 C2292 1.366 . S
C2291 C2293 1.388 . S
C2292 C2291 1.366 . S
C2292 C2296 1.385 . S
C2293 H2268 0.951 . S
C2293 C2291 1.388 . S
C2293 C2294 1.366 . S
C2294 C2293 1.366 . S
C2294 C2295 1.414 . S
C2294 C2297 1.499 . S
C2295 H2269 0.950 . S
C2295 C2294 1.414 . S
C2295 C2296 1.374 . S
C2296 H2270 0.950 . S
C2296 C2292 1.385 . S
C2296 C2295 1.374 . S
C2297 C2294 1.499 . S
C2297 C2298 1.373 . S
C2297 C2299 1.389 . S
C2298 H2271 0.950 . S
C2298 C2284 1.377 . S
C2298 C2297 1.373 . S
C2299 C2283 1.377 . S
C2299 C2297 1.389 . S
C2299 C2300 1.524 . S
C2300 C2299 1.524 . S
C2300 C2301 1.397 . S
C2300 C2305 1.363 . S
C2301 H2272 0.950 . S
C2301 C2300 1.397 . S
C2301 C2302 1.334 . S
C2302 H2273 0.950 . S
C2302 C2301 1.334 . S
C2302 C2303 1.287 . S
C2303 C2302 1.287 . S
C2303 C2304 1.524 . S
C2303 H2306 0.999 . S
C2304 H2274 0.950 . S
C2304 C2303 1.524 . S
C2304 C2305 1.415 . S
C2305 H2275 0.950 . S
C2305 C2300 1.363 . S
C2305 C2304 1.415 . S
H2306 C2303 0.999 . S
H2307 C2288 0.913 . S
H2308 C2326 0.951 . S
H2309 C2328 0.951 . S
H2310 C2330 0.950 . S
H2311 C2331 0.950 . S
H2312 C2333 0.950 . S
H2313 C2336 0.950 . S
H2314 C2337 0.950 . S
H2315 C2339 0.950 . S
H2316 C2340 0.950 . S
H2317 C2341 0.951 . S
H2318 C2343 0.951 . S
H2319 C2345 0.950 . S
H2320 C2346 0.950 . S
H2321 C2348 0.950 . S
H2322 C2351 0.950 . S
H2323 C2352 0.950 . S
H2324 C2354 0.950 . S
H2325 C2355 0.950 . S
C2326 H2308 0.951 . S
C2326 C2327 1.366 . S
C2326 C2328 1.388 . S
C2327 C2326 1.366 . S
C2327 C2331 1.385 . S
C2328 H2309 0.951 . S
C2328 C2326 1.388 . S
C2328 C2329 1.366 . S
C2329 C2328 1.366 . S
C2329 C2330 1.414 . S
C2329 C2332 1.499 . S
C2330 H2310 0.950 . S
C2330 C2329 1.414 . S
C2330 C2331 1.374 . S
C2331 H2311 0.950 . S
C2331 C2327 1.385 . S
C2331 C2330 1.374 . S
C2332 C2329 1.499 . S
C2332 C2333 1.373 . S
C2332 C2334 1.389 . S
C2333 H2312 0.950 . S
C2333 C2332 1.373 . S
C2333 C2349 1.377 . S
C2334 C2332 1.389 . S
C2334 C2335 1.524 . S
C2334 C2348 1.377 . S
C2335 C2334 1.524 . S
C2335 C2336 1.397 . S
C2335 C2340 1.363 . S
C2336 H2313 0.950 . S
C2336 C2335 1.397 . S
C2336 C2337 1.334 . S
C2337 H2314 0.950 . S
C2337 C2336 1.334 . S
C2337 C2338 1.287 . S
C2338 C2337 1.287 . S
C2338 C2339 1.524 . S
C2338 H2357 0.913 . S
C2339 H2315 0.950 . S
C2339 C2338 1.524 . S
C2339 C2340 1.415 . S
C2340 H2316 0.950 . S
C2340 C2335 1.363 . S
C2340 C2339 1.415 . S
C2341 H2317 0.951 . S
C2341 C2342 1.366 . S
C2341 C2343 1.388 . S
C2342 C2341 1.366 . S
C2342 C2346 1.385 . S
C2343 H2318 0.951 . S
C2343 C2341 1.388 . S
C2343 C2344 1.366 . S
C2344 C2343 1.366 . S
C2344 C2345 1.414 . S
C2344 C2347 1.499 . S
C2345 H2319 0.950 . S
C2345 C2344 1.414 . S
C2345 C2346 1.374 . S
C2346 H2320 0.950 . S
C2346 C2342 1.385 . S
C2346 C2345 1.374 . S
C2347 C2344 1.499 . S
C2347 C2348 1.373 . S
C2347 C2349 1.389 . S
C2348 H2321 0.950 . S
C2348 C2334 1.377 . S
C2348 C2347 1.373 . S
C2349 C2333 1.377 . S
C2349 C2347 1.389 . S
C2349 C2350 1.524 . S
C2350 C2349 1.524 . S
C2350 C2351 1.397 . S
C2350 C2355 1.363 . S
C2351 H2322 0.950 . S
C2351 C2350 1.397 . S
C2351 C2352 1.334 . S
C2352 H2323 0.950 . S
C2352 C2351 1.334 . S
C2352 C2353 1.287 . S
C2353 C2352 1.287 . S
C2353 C2354 1.524 . S
C2353 H2356 0.999 . S
C2354 H2324 0.950 . S
C2354 C2353 1.524 . S
C2354 C2355 1.415 . S
C2355 H2325 0.950 . S
C2355 C2350 1.363 . S
C2355 C2354 1.415 . S
H2356 C2353 0.999 . S
H2357 C2338 0.913 . S
H2358 C2376 0.951 . S
H2359 C2378 0.951 . S
H2360 C2380 0.950 . S
H2361 C2381 0.950 . S
H2362 C2383 0.950 . S
H2363 C2386 0.913 1_565 S
H2364 C2387 0.950 . S
H2365 C2389 0.950 . S
H2366 C2390 0.950 . S
H2367 C2391 0.951 . S
H2368 C2393 0.951 . S
H2369 C2395 0.950 . S
H2370 C2396 0.950 . S
H2371 C2398 0.950 . S
H2372 C2401 0.950 . S
H2373 C2402 0.950 . S
H2374 C2404 0.950 . S
H2375 C2405 0.950 . S
C2376 H2358 0.951 . S
C2376 C2377 1.366 . S
C2376 C2378 1.388 . S
C2377 C2376 1.366 . S
C2377 C2381 1.385 . S
C2378 H2359 0.951 . S
C2378 C2376 1.388 . S
C2378 C2379 1.366 . S
C2379 C2378 1.366 . S
C2379 C2380 1.414 . S
C2379 C2382 1.499 1_565 S
C2380 H2360 0.950 . S
C2380 C2379 1.414 . S
C2380 C2381 1.374 . S
C2381 H2361 0.950 . S
C2381 C2377 1.385 . S
C2381 C2380 1.374 . S
C2382 C2379 1.499 1_545 S
C2382 C2383 1.373 . S
C2382 C2384 1.389 . S
C2383 H2362 0.950 . S
C2383 C2382 1.373 . S
C2383 C2399 1.377 . S
C2384 C2382 1.389 . S
C2384 C2385 1.524 . S
C2384 C2398 1.377 . S
C2385 C2384 1.524 . S
C2385 C2386 1.446 . S
C2385 C2390 1.363 . S
C2386 H2363 0.913 1_545 S
C2386 C2385 1.446 . S
C2386 C2387 1.323 1_545 S
C2387 H2364 0.950 . S
C2387 C2386 1.323 1_565 S
C2387 C2388 1.287 1_565 S
C2388 C2387 1.287 1_545 S
C2388 C2389 1.524 . S
C2388 H2407 0.903 1_545 S
C2389 H2365 0.950 . S
C2389 C2388 1.524 . S
C2389 C2390 1.415 . S
C2390 H2366 0.950 . S
C2390 C2385 1.363 . S
C2390 C2389 1.415 . S
C2391 H2367 0.951 . S
C2391 C2392 1.366 . S
C2391 C2393 1.388 . S
C2392 C2391 1.366 . S
C2392 C2396 1.385 . S
C2393 H2368 0.951 . S
C2393 C2391 1.388 . S
C2393 C2394 1.366 . S
C2394 C2393 1.366 . S
C2394 C2395 1.414 . S
C2394 C2397 1.499 . S
C2395 H2369 0.950 . S
C2395 C2394 1.414 . S
C2395 C2396 1.374 . S
C2396 H2370 0.950 . S
C2396 C2392 1.385 . S
C2396 C2395 1.374 . S
C2397 C2394 1.499 . S
C2397 C2398 1.373 . S
C2397 C2399 1.389 . S
C2398 H2371 0.950 . S
C2398 C2384 1.377 . S
C2398 C2397 1.373 . S
C2399 C2383 1.377 . S
C2399 C2397 1.389 . S
C2399 C2400 1.524 . S
C2400 C2399 1.524 . S
C2400 C2401 1.397 . S
C2400 C2405 1.363 . S
C2401 H2372 0.950 . S
C2401 C2400 1.397 . S
C2401 C2402 1.334 . S
C2402 H2373 0.950 . S
C2402 C2401 1.334 . S
C2402 C2403 1.287 . S
C2403 C2402 1.287 . S
C2403 C2404 1.524 . S
C2403 H2406 0.999 . S
C2404 H2374 0.950 . S
C2404 C2403 1.524 . S
C2404 C2405 1.415 . S
C2405 H2375 0.950 . S
C2405 C2400 1.363 . S
C2405 C2404 1.415 . S
H2406 C2403 0.999 . S
H2407 C2388 0.903 1_565 S
H2408 C2426 0.951 . S
H2409 C2428 0.951 . S
H2410 C2430 0.950 1_655 S
H2411 C2431 0.950 . S
H2412 C2433 0.950 . S
H2413 C2436 0.950 . S
H2414 C2437 0.950 . S
H2415 C2439 0.950 . S
H2416 C2440 0.950 . S
H2417 C2441 0.951 . S
H2418 C2443 0.951 . S
H2419 C2445 0.950 . S
H2420 C2446 0.950 . S
H2421 C2448 0.950 . S
H2422 C2451 0.950 . S
H2423 C2452 0.950 . S
H2424 C2454 0.950 . S
H2425 C2455 0.950 . S
C2426 H2408 0.951 . S
C2426 C2427 1.366 . S
C2426 C2428 1.388 . S
C2427 C2426 1.366 . S
C2427 C2431 1.385 . S
C2428 H2409 0.951 . S
C2428 C2426 1.388 . S
C2428 C2429 1.366 1_455 S
C2429 C2428 1.366 1_655 S
C2429 C2430 1.414 1_655 S
C2429 C2432 1.499 . S
C2430 H2410 0.950 1_455 S
C2430 C2429 1.414 1_455 S
C2430 C2431 1.374 . S
C2431 H2411 0.950 . S
C2431 C2427 1.385 . S
C2431 C2430 1.374 . S
C2432 C2429 1.499 . S
C2432 C2433 1.373 . S
C2432 C2434 1.389 . S
C2433 H2412 0.950 . S
C2433 C2432 1.373 . S
C2433 C2449 1.377 . S
C2434 C2432 1.389 . S
C2434 C2435 1.524 . S
C2434 C2448 1.377 . S
C2435 C2434 1.524 . S
C2435 C2436 1.397 1_655 S
C2435 C2440 1.363 . S
C2436 H2413 0.950 . S
C2436 C2435 1.397 1_455 S
C2436 C2437 1.334 . S
C2437 H2414 0.950 . S
C2437 C2436 1.334 . S
C2437 C2438 1.287 . S
C2438 C2437 1.287 . S
C2438 C2439 1.524 . S
C2438 H2457 0.913 . S
C2439 H2415 0.950 . S
C2439 C2438 1.524 . S
C2439 C2440 1.415 1_455 S
C2440 H2416 0.950 . S
C2440 C2435 1.363 . S
C2440 C2439 1.415 1_655 S
C2441 H2417 0.951 . S
C2441 C2442 1.366 . S
C2441 C2443 1.388 . S
C2442 C2441 1.366 . S
C2442 C2446 1.385 . S
C2443 H2418 0.951 . S
C2443 C2441 1.388 . S
C2443 C2444 1.366 . S
C2444 C2443 1.366 . S
C2444 C2445 1.414 . S
C2444 C2447 1.499 . S
C2445 H2419 0.950 . S
C2445 C2444 1.414 . S
C2445 C2446 1.374 . S
C2446 H2420 0.950 . S
C2446 C2442 1.385 . S
C2446 C2445 1.374 . S
C2447 C2444 1.499 . S
C2447 C2448 1.373 . S
C2447 C2449 1.389 . S
C2448 H2421 0.950 . S
C2448 C2434 1.377 . S
C2448 C2447 1.373 . S
C2449 C2433 1.377 . S
C2449 C2447 1.389 . S
C2449 C2450 1.524 . S
C2450 C2449 1.524 . S
C2450 C2451 1.397 . S
C2450 C2455 1.363 . S
C2451 H2422 0.950 . S
C2451 C2450 1.397 . S
C2451 C2452 1.334 . S
C2452 H2423 0.950 . S
C2452 C2451 1.334 . S
C2452 C2453 1.287 . S
C2453 C2452 1.287 . S
C2453 C2454 1.524 . S
C2453 H2456 0.999 . S
C2454 H2424 0.950 . S
C2454 C2453 1.524 . S
C2454 C2455 1.415 . S
C2455 H2425 0.950 . S
C2455 C2450 1.363 . S
C2455 C2454 1.415 . S
H2456 C2453 0.999 . S
H2457 C2438 0.913 . S
H2458 C2476 0.951 . S
H2459 C2478 0.951 . S
H2460 C2480 0.950 . S
H2461 C2481 0.950 . S
H2462 C2483 0.950 . S
H2463 C2486 0.950 . S
H2464 C2487 0.950 . S
H2465 C2489 0.950 . S
H2466 C2490 0.950 . S
H2467 C2491 0.951 . S
H2468 C2493 0.951 . S
H2469 C2495 0.950 . S
H2470 C2496 0.950 . S
H2471 C2498 0.950 . S
H2472 C2501 0.950 . S
H2473 C2502 0.950 . S
H2474 C2504 0.950 . S
H2475 C2505 0.950 . S
C2476 H2458 0.951 . S
C2476 C2477 1.366 . S
C2476 C2478 1.388 . S
C2477 C2476 1.366 . S
C2477 C2481 1.385 . S
C2478 H2459 0.951 . S
C2478 C2476 1.388 . S
C2478 C2479 1.366 . S
C2479 C2478 1.366 . S
C2479 C2480 1.414 . S
C2479 C2482 1.499 . S
C2480 H2460 0.950 . S
C2480 C2479 1.414 . S
C2480 C2481 1.374 . S
C2481 H2461 0.950 . S
C2481 C2477 1.385 . S
C2481 C2480 1.374 . S
C2482 C2479 1.499 . S
C2482 C2483 1.373 . S
C2482 C2484 1.389 . S
C2483 H2462 0.950 . S
C2483 C2482 1.373 . S
C2483 C2499 1.377 . S
C2484 C2482 1.389 . S
C2484 C2485 1.524 . S
C2484 C2498 1.377 . S
C2485 C2484 1.524 . S
C2485 C2486 1.397 . S
C2485 C2490 1.363 . S
C2486 H2463 0.950 . S
C2486 C2485 1.397 . S
C2486 C2487 1.334 . S
C2487 H2464 0.950 . S
C2487 C2486 1.334 . S
C2487 C2488 1.287 . S
C2488 C2487 1.287 . S
C2488 C2489 1.524 . S
C2488 H2507 0.913 . S
C2489 H2465 0.950 . S
C2489 C2488 1.524 . S
C2489 C2490 1.415 . S
C2490 H2466 0.950 . S
C2490 C2485 1.363 . S
C2490 C2489 1.415 . S
C2491 H2467 0.951 . S
C2491 C2492 1.366 . S
C2491 C2493 1.388 . S
C2492 C2491 1.366 . S
C2492 C2496 1.385 . S
C2493 H2468 0.951 . S
C2493 C2491 1.388 . S
C2493 C2494 1.366 . S
C2494 C2493 1.366 . S
C2494 C2495 1.414 . S
C2494 C2497 1.499 . S
C2495 H2469 0.950 . S
C2495 C2494 1.414 . S
C2495 C2496 1.374 . S
C2496 H2470 0.950 . S
C2496 C2492 1.385 . S
C2496 C2495 1.374 . S
C2497 C2494 1.499 . S
C2497 C2498 1.373 . S
C2497 C2499 1.389 . S
C2498 H2471 0.950 . S
C2498 C2484 1.377 . S
C2498 C2497 1.373 . S
C2499 C2483 1.377 . S
C2499 C2497 1.389 . S
C2499 C2500 1.524 . S
C2500 C2499 1.524 . S
C2500 C2501 1.397 . S
C2500 C2505 1.363 . S
C2501 H2472 0.950 . S
C2501 C2500 1.397 . S
C2501 C2502 1.334 . S
C2502 H2473 0.950 . S
C2502 C2501 1.334 . S
C2502 C2503 1.287 . S
C2503 C2502 1.287 . S
C2503 C2504 1.524 . S
C2503 H2506 0.999 . S
C2504 H2474 0.950 . S
C2504 C2503 1.524 . S
C2504 C2505 1.415 . S
C2505 H2475 0.950 . S
C2505 C2500 1.363 . S
C2505 C2504 1.415 . S
H2506 C2503 0.999 . S
H2507 C2488 0.913 . S
H2508 C2526 0.951 . S
H2509 C2528 0.975 . S
H2510 C2530 0.950 . S
H2511 C2531 0.950 . S
H2512 C2533 0.950 . S
H2513 C2536 0.950 . S
H2514 C2537 0.950 . S
H2515 C2539 0.950 . S
H2516 C2540 0.950 . S
H2517 C2541 0.951 . S
H2518 C2543 0.951 . S
H2519 C2545 0.950 . S
H2520 C2546 0.950 . S
H2521 C2548 0.950 . S
H2522 C2551 0.950 . S
H2523 C2552 0.950 . S
H2524 C2554 0.950 . S
H2525 C2555 0.950 . S
C2526 H2508 0.951 . S
C2526 C2527 1.366 . S
C2526 C2528 1.388 . S
C2527 C2526 1.366 . S
C2527 C2531 1.385 . S
C2528 H2509 0.975 . S
C2528 C2526 1.388 . S
C2528 C2529 1.366 . S
C2529 C2528 1.366 . S
C2529 C2530 1.414 . S
C2529 C2532 1.499 1_455 S
C2530 H2510 0.950 . S
C2530 C2529 1.414 . S
C2530 C2531 1.374 . S
C2531 H2511 0.950 . S
C2531 C2527 1.385 . S
C2531 C2530 1.374 . S
C2532 C2529 1.499 1_655 S
C2532 C2533 1.373 . S
C2532 C2534 1.389 . S
C2533 H2512 0.950 . S
C2533 C2532 1.373 . S
C2533 C2549 1.377 . S
C2534 C2532 1.389 . S
C2534 C2535 1.524 . S
C2534 C2548 1.377 . S
C2535 C2534 1.524 . S
C2535 C2536 1.397 1_655 S
C2535 C2540 1.363 . S
C2536 H2513 0.950 . S
C2536 C2535 1.397 1_455 S
C2536 C2537 1.334 . S
C2537 H2514 0.950 . S
C2537 C2536 1.334 . S
C2537 C2538 1.243 1_455 S
C2538 C2537 1.243 1_655 S
C2538 C2539 1.562 . S
C2538 H2557 0.920 1_655 S
C2539 H2515 0.950 . S
C2539 C2538 1.562 . S
C2539 C2540 1.415 . S
C2540 H2516 0.950 . S
C2540 C2535 1.363 . S
C2540 C2539 1.415 . S
C2541 H2517 0.951 . S
C2541 C2542 1.366 . S
C2541 C2543 1.388 . S
C2542 C2541 1.366 . S
C2542 C2546 1.385 . S
C2543 H2518 0.951 . S
C2543 C2541 1.388 . S
C2543 C2544 1.366 . S
C2544 C2543 1.366 . S
C2544 C2545 1.414 . S
C2544 C2547 1.499 . S
C2545 H2519 0.950 . S
C2545 C2544 1.414 . S
C2545 C2546 1.374 . S
C2546 H2520 0.950 . S
C2546 C2542 1.385 . S
C2546 C2545 1.374 . S
C2547 C2544 1.499 . S
C2547 C2548 1.373 . S
C2547 C2549 1.389 . S
C2548 H2521 0.950 . S
C2548 C2534 1.377 . S
C2548 C2547 1.373 . S
C2549 C2533 1.377 . S
C2549 C2547 1.389 . S
C2549 C2550 1.524 . S
C2550 C2549 1.524 . S
C2550 C2551 1.397 . S
C2550 C2555 1.363 . S
C2551 H2522 0.950 . S
C2551 C2550 1.397 . S
C2551 C2552 1.334 . S
C2552 H2523 0.950 . S
C2552 C2551 1.334 . S
C2552 C2553 1.287 . S
C2553 C2552 1.287 . S
C2553 C2554 1.524 . S
C2553 H2556 0.999 . S
C2554 H2524 0.950 . S
C2554 C2553 1.524 . S
C2554 C2555 1.415 . S
C2555 H2525 0.950 . S
C2555 C2550 1.363 . S
C2555 C2554 1.415 . S
H2556 C2553 0.999 . S
H2557 C2538 0.920 1_455 S
H2558 C2576 0.951 . S
H2559 C2578 0.951 . S
H2560 C2580 0.950 . S
H2561 C2581 0.950 . S
H2562 C2583 0.950 . S
H2563 C2586 0.950 . S
H2564 C2587 0.950 . S
H2565 C2589 0.950 . S
H2566 C2590 0.950 . S
H2567 C2591 0.951 . S
H2568 C2593 0.951 . S
H2569 C2595 0.950 . S
H2570 C2596 0.950 . S
H2571 C2598 0.950 . S
H2572 C2601 0.950 . S
H2573 C2602 0.950 . S
H2574 C2604 0.950 . S
H2575 C2605 0.950 . S
C2576 H2558 0.951 . S
C2576 C2577 1.366 . S
C2576 C2578 1.388 . S
C2577 C2576 1.366 . S
C2577 C2581 1.385 . S
C2578 H2559 0.951 . S
C2578 C2576 1.388 . S
C2578 C2579 1.366 . S
C2579 C2578 1.366 . S
C2579 C2580 1.414 . S
C2579 C2582 1.499 . S
C2580 H2560 0.950 . S
C2580 C2579 1.414 . S
C2580 C2581 1.374 . S
C2581 H2561 0.950 . S
C2581 C2577 1.385 . S
C2581 C2580 1.374 . S
C2582 C2579 1.499 . S
C2582 C2583 1.373 . S
C2582 C2584 1.389 . S
C2583 H2562 0.950 . S
C2583 C2582 1.373 . S
C2583 C2599 1.377 . S
C2584 C2582 1.389 . S
C2584 C2585 1.524 . S
C2584 C2598 1.377 . S
C2585 C2584 1.524 . S
C2585 C2586 1.397 . S
C2585 C2590 1.363 . S
C2586 H2563 0.950 . S
C2586 C2585 1.397 . S
C2586 C2587 1.334 . S
C2587 H2564 0.950 . S
C2587 C2586 1.334 . S
C2587 C2588 1.287 . S
C2588 C2587 1.287 . S
C2588 C2589 1.524 . S
C2588 H2607 0.913 . S
C2589 H2565 0.950 . S
C2589 C2588 1.524 . S
C2589 C2590 1.415 . S
C2590 H2566 0.950 . S
C2590 C2585 1.363 . S
C2590 C2589 1.415 . S
C2591 H2567 0.951 . S
C2591 C2592 1.366 . S
C2591 C2593 1.388 . S
C2592 C2591 1.366 . S
C2592 C2596 1.385 . S
C2593 H2568 0.951 . S
C2593 C2591 1.388 . S
C2593 C2594 1.366 . S
C2594 C2593 1.366 . S
C2594 C2595 1.414 . S
C2594 C2597 1.499 . S
C2595 H2569 0.950 . S
C2595 C2594 1.414 . S
C2595 C2596 1.374 . S
C2596 H2570 0.950 . S
C2596 C2592 1.385 . S
C2596 C2595 1.374 . S
C2597 C2594 1.499 . S
C2597 C2598 1.373 . S
C2597 C2599 1.389 . S
C2598 H2571 0.950 . S
C2598 C2584 1.377 . S
C2598 C2597 1.373 . S
C2599 C2583 1.377 . S
C2599 C2597 1.389 . S
C2599 C2600 1.524 . S
C2600 C2599 1.524 . S
C2600 C2601 1.397 . S
C2600 C2605 1.363 . S
C2601 H2572 0.950 . S
C2601 C2600 1.397 . S
C2601 C2602 1.334 . S
C2602 H2573 0.950 . S
C2602 C2601 1.334 . S
C2602 C2603 1.287 . S
C2603 C2602 1.287 . S
C2603 C2604 1.524 . S
C2603 H2606 0.999 . S
C2604 H2574 0.950 . S
C2604 C2603 1.524 . S
C2604 C2605 1.415 . S
C2605 H2575 0.950 . S
C2605 C2600 1.363 . S
C2605 C2604 1.415 . S
H2606 C2603 0.999 . S
H2607 C2588 0.913 . S
H2608 C2626 0.951 . S
H2609 C2628 0.951 . S
H2610 C2630 0.950 . S
H2611 C2631 0.950 . S
H2612 C2633 0.950 . S
H2613 C2636 0.950 . S
H2614 C2637 0.950 . S
H2615 C2639 0.950 . S
H2616 C2640 0.950 . S
H2617 C2641 0.951 . S
H2618 C2643 0.951 . S
H2619 C2645 0.950 . S
H2620 C2646 0.950 . S
H2621 C2648 0.950 . S
H2622 C2651 0.950 . S
H2623 C2652 0.950 . S
H2624 C2654 0.950 . S
H2625 C2655 0.950 . S
C2626 H2608 0.951 . S
C2626 C2627 1.366 . S
C2626 C2628 1.388 . S
C2627 C2626 1.366 . S
C2627 C2631 1.385 . S
C2628 H2609 0.951 . S
C2628 C2626 1.388 . S
C2628 C2629 1.366 . S
C2629 C2628 1.366 . S
C2629 C2630 1.414 . S
C2629 C2632 1.471 1_565 S
C2630 H2610 0.950 . S
C2630 C2629 1.414 . S
C2630 C2631 1.374 . S
C2631 H2611 0.950 . S
C2631 C2627 1.385 . S
C2631 C2630 1.374 . S
C2632 C2629 1.471 1_545 S
C2632 C2633 1.401 . S
C2632 C2634 1.392 . S
C2633 H2612 0.950 . S
C2633 C2632 1.401 . S
C2633 C2649 1.377 . S
C2634 C2632 1.392 . S
C2634 C2635 1.524 . S
C2634 C2648 1.377 . S
C2635 C2634 1.524 . S
C2635 C2636 1.397 1_545 S
C2635 C2640 1.363 . S
C2636 H2613 0.950 . S
C2636 C2635 1.397 1_565 S
C2636 C2637 1.334 . S
C2637 H2614 0.950 . S
C2637 C2636 1.334 . S
C2637 C2638 1.287 . S
C2638 C2637 1.287 . S
C2638 C2639 1.524 1_565 S
C2638 H2657 0.913 . S
C2639 H2615 0.950 . S
C2639 C2638 1.524 1_545 S
C2639 C2640 1.415 . S
C2640 H2616 0.950 . S
C2640 C2635 1.363 . S
C2640 C2639 1.415 . S
C2641 H2617 0.951 . S
C2641 C2642 1.366 . S
C2641 C2643 1.388 . S
C2642 C2641 1.366 . S
C2642 C2646 1.385 . S
C2643 H2618 0.951 . S
C2643 C2641 1.388 . S
C2643 C2644 1.366 . S
C2644 C2643 1.366 . S
C2644 C2645 1.414 . S
C2644 C2647 1.499 . S
C2645 H2619 0.950 . S
C2645 C2644 1.414 . S
C2645 C2646 1.374 . S
C2646 H2620 0.950 . S
C2646 C2642 1.385 . S
C2646 C2645 1.374 . S
C2647 C2644 1.499 . S
C2647 C2648 1.373 . S
C2647 C2649 1.389 . S
C2648 H2621 0.950 . S
C2648 C2634 1.377 . S
C2648 C2647 1.373 . S
C2649 C2633 1.377 . S
C2649 C2647 1.389 . S
C2649 C2650 1.524 . S
C2650 C2649 1.524 . S
C2650 C2651 1.397 . S
C2650 C2655 1.363 . S
C2651 H2622 0.950 . S
C2651 C2650 1.397 . S
C2651 C2652 1.334 . S
C2652 H2623 0.950 . S
C2652 C2651 1.334 . S
C2652 C2653 1.287 . S
C2653 C2652 1.287 . S
C2653 C2654 1.524 . S
C2653 H2656 0.999 . S
C2654 H2624 0.950 . S
C2654 C2653 1.524 . S
C2654 C2655 1.415 . S
C2655 H2625 0.950 . S
C2655 C2650 1.363 . S
C2655 C2654 1.415 . S
H2656 C2653 0.999 . S
H2657 C2638 0.913 . S
H2658 C2676 0.951 . S
H2659 C2678 0.951 . S
H2660 C2680 0.950 . S
H2661 C2681 0.950 . S
H2662 C2683 0.950 . S
H2663 C2686 0.950 . S
H2664 C2687 0.950 . S
H2665 C2689 0.950 . S
H2666 C2690 0.950 . S
H2667 C2691 0.951 . S
H2668 C2693 0.951 . S
H2669 C2695 0.950 . S
H2670 C2696 0.950 . S
H2671 C2698 0.950 . S
H2672 C2701 0.950 . S
H2673 C2702 0.950 . S
H2674 C2704 0.950 . S
H2675 C2705 0.950 . S
C2676 H2658 0.951 . S
C2676 C2677 1.366 . S
C2676 C2678 1.388 . S
C2677 C2676 1.366 . S
C2677 C2681 1.385 . S
C2678 H2659 0.951 . S
C2678 C2676 1.388 . S
C2678 C2679 1.366 . S
C2679 C2678 1.366 . S
C2679 C2680 1.414 . S
C2679 C2682 1.499 . S
C2680 H2660 0.950 . S
C2680 C2679 1.414 . S
C2680 C2681 1.374 . S
C2681 H2661 0.950 . S
C2681 C2677 1.385 . S
C2681 C2680 1.374 . S
C2682 C2679 1.499 . S
C2682 C2683 1.373 . S
C2682 C2684 1.389 . S
C2683 H2662 0.950 . S
C2683 C2682 1.373 . S
C2683 C2699 1.377 . S
C2684 C2682 1.389 . S
C2684 C2685 1.524 . S
C2684 C2698 1.377 . S
C2685 C2684 1.524 . S
C2685 C2686 1.397 . S
C2685 C2690 1.363 . S
C2686 H2663 0.950 . S
C2686 C2685 1.397 . S
C2686 C2687 1.334 . S
C2687 H2664 0.950 . S
C2687 C2686 1.334 . S
C2687 C2688 1.287 . S
C2688 C2687 1.287 . S
C2688 C2689 1.524 . S
C2688 H2707 0.913 . S
C2689 H2665 0.950 . S
C2689 C2688 1.524 . S
C2689 C2690 1.415 . S
C2690 H2666 0.950 . S
C2690 C2685 1.363 . S
C2690 C2689 1.415 . S
C2691 H2667 0.951 . S
C2691 C2692 1.366 . S
C2691 C2693 1.388 . S
C2692 C2691 1.366 . S
C2692 C2696 1.385 . S
C2693 H2668 0.951 . S
C2693 C2691 1.388 . S
C2693 C2694 1.366 . S
C2694 C2693 1.366 . S
C2694 C2695 1.414 . S
C2694 C2697 1.499 . S
C2695 H2669 0.950 . S
C2695 C2694 1.414 . S
C2695 C2696 1.374 . S
C2696 H2670 0.950 . S
C2696 C2692 1.385 . S
C2696 C2695 1.374 . S
C2697 C2694 1.499 . S
C2697 C2698 1.373 . S
C2697 C2699 1.389 . S
C2698 H2671 0.950 . S
C2698 C2684 1.377 . S
C2698 C2697 1.373 . S
C2699 C2683 1.377 . S
C2699 C2697 1.389 . S
C2699 C2700 1.524 . S
C2700 C2699 1.524 . S
C2700 C2701 1.397 . S
C2700 C2705 1.363 . S
C2701 H2672 0.950 . S
C2701 C2700 1.397 . S
C2701 C2702 1.334 . S
C2702 H2673 0.950 . S
C2702 C2701 1.334 . S
C2702 C2703 1.287 . S
C2703 C2702 1.287 . S
C2703 C2704 1.524 . S
C2703 H2706 0.999 . S
C2704 H2674 0.950 . S
C2704 C2703 1.524 . S
C2704 C2705 1.415 . S
C2705 H2675 0.950 . S
C2705 C2700 1.363 . S
C2705 C2704 1.415 . S
H2706 C2703 0.999 . S
H2707 C2688 0.913 . S
H2708 C2726 0.951 . S
H2709 C2728 0.951 . S
H2710 C2730 0.950 . S
H2711 C2731 0.950 . S
H2712 C2733 0.950 . S
H2713 C2736 0.950 . S
H2714 C2737 0.950 . S
H2715 C2739 0.950 . S
H2716 C2740 0.950 . S
H2717 C2741 0.951 . S
H2718 C2743 0.951 . S
H2719 C2745 0.950 . S
H2720 C2746 0.950 . S
H2721 C2748 0.950 . S
H2722 C2751 0.950 . S
H2723 C2752 0.950 . S
H2724 C2754 0.950 . S
H2725 C2755 0.950 . S
C2726 H2708 0.951 . S
C2726 C2727 1.366 . S
C2726 C2728 1.388 . S
C2727 C2726 1.366 . S
C2727 C2731 1.385 . S
C2728 H2709 0.951 . S
C2728 C2726 1.388 . S
C2728 C2729 1.366 . S
C2729 C2728 1.366 . S
C2729 C2730 1.414 . S
C2729 C2732 1.499 . S
C2730 H2710 0.950 . S
C2730 C2729 1.414 . S
C2730 C2731 1.374 . S
C2731 H2711 0.950 . S
C2731 C2727 1.385 . S
C2731 C2730 1.374 . S
C2732 C2729 1.499 . S
C2732 C2733 1.373 . S
C2732 C2734 1.389 . S
C2733 H2712 0.950 . S
C2733 C2732 1.373 . S
C2733 C2749 1.377 . S
C2734 C2732 1.389 . S
C2734 C2735 1.524 . S
C2734 C2748 1.377 . S
C2735 C2734 1.524 . S
C2735 C2736 1.397 . S
C2735 C2740 1.363 . S
C2736 H2713 0.950 . S
C2736 C2735 1.397 . S
C2736 C2737 1.334 . S
C2737 H2714 0.950 . S
C2737 C2736 1.334 . S
C2737 C2738 1.287 . S
C2738 C2737 1.287 . S
C2738 C2739 1.524 . S
C2738 H2757 0.913 . S
C2739 H2715 0.950 . S
C2739 C2738 1.524 . S
C2739 C2740 1.415 . S
C2740 H2716 0.950 . S
C2740 C2735 1.363 . S
C2740 C2739 1.415 . S
C2741 H2717 0.951 . S
C2741 C2742 1.366 . S
C2741 C2743 1.388 . S
C2742 C2741 1.366 . S
C2742 C2746 1.385 . S
C2743 H2718 0.951 . S
C2743 C2741 1.388 . S
C2743 C2744 1.366 . S
C2744 C2743 1.366 . S
C2744 C2745 1.414 . S
C2744 C2747 1.499 . S
C2745 H2719 0.950 . S
C2745 C2744 1.414 . S
C2745 C2746 1.374 . S
C2746 H2720 0.950 . S
C2746 C2742 1.385 . S
C2746 C2745 1.374 . S
C2747 C2744 1.499 . S
C2747 C2748 1.373 . S
C2747 C2749 1.389 . S
C2748 H2721 0.950 . S
C2748 C2734 1.377 . S
C2748 C2747 1.373 . S
C2749 C2733 1.377 . S
C2749 C2747 1.389 . S
C2749 C2750 1.524 . S
C2750 C2749 1.524 . S
C2750 C2751 1.397 . S
C2750 C2755 1.363 . S
C2751 H2722 0.950 . S
C2751 C2750 1.397 . S
C2751 C2752 1.334 . S
C2752 H2723 0.950 . S
C2752 C2751 1.334 . S
C2752 C2753 1.287 . S
C2753 C2752 1.287 . S
C2753 C2754 1.524 . S
C2753 H2756 0.999 . S
C2754 H2724 0.950 . S
C2754 C2753 1.524 . S
C2754 C2755 1.415 . S
C2755 H2725 0.950 . S
C2755 C2750 1.363 . S
C2755 C2754 1.415 . S
H2756 C2753 0.999 . S
H2757 C2738 0.913 . S
H2758 C2776 0.951 . S
H2759 C2778 0.951 . S
H2760 C2780 0.950 . S
H2761 C2781 0.950 . S
H2762 C2783 0.950 . S
H2763 C2786 0.950 . S
H2764 C2787 0.950 . S
H2765 C2789 0.950 . S
H2766 C2790 0.950 . S
H2767 C2791 0.951 . S
H2768 C2793 0.951 . S
H2769 C2795 0.950 . S
H2770 C2796 0.950 . S
H2771 C2798 0.950 . S
H2772 C2801 0.950 . S
H2773 C2802 0.950 . S
H2774 C2804 0.950 . S
H2775 C2805 0.950 . S
C2776 H2758 0.951 . S
C2776 C2777 1.366 . S
C2776 C2778 1.388 . S
C2777 C2776 1.366 . S
C2777 C2781 1.385 . S
C2778 H2759 0.951 . S
C2778 C2776 1.388 . S
C2778 C2779 1.366 . S
C2779 C2778 1.366 . S
C2779 C2780 1.414 . S
C2779 C2782 1.499 . S
C2780 H2760 0.950 . S
C2780 C2779 1.414 . S
C2780 C2781 1.374 . S
C2781 H2761 0.950 . S
C2781 C2777 1.385 . S
C2781 C2780 1.374 . S
C2782 C2779 1.499 . S
C2782 C2783 1.373 . S
C2782 C2784 1.389 . S
C2783 H2762 0.950 . S
C2783 C2782 1.373 . S
C2783 C2799 1.377 . S
C2784 C2782 1.389 . S
C2784 C2785 1.524 . S
C2784 C2798 1.377 . S
C2785 C2784 1.524 . S
C2785 C2786 1.397 . S
C2785 C2790 1.363 . S
C2786 H2763 0.950 . S
C2786 C2785 1.397 . S
C2786 C2787 1.334 . S
C2787 H2764 0.950 . S
C2787 C2786 1.334 . S
C2787 C2788 1.287 . S
C2788 C2787 1.287 . S
C2788 C2789 1.524 . S
C2788 H2807 0.913 . S
C2789 H2765 0.950 . S
C2789 C2788 1.524 . S
C2789 C2790 1.415 . S
C2790 H2766 0.950 . S
C2790 C2785 1.363 . S
C2790 C2789 1.415 . S
C2791 H2767 0.951 . S
C2791 C2792 1.366 . S
C2791 C2793 1.388 . S
C2792 C2791 1.366 . S
C2792 C2796 1.385 . S
C2793 H2768 0.951 . S
C2793 C2791 1.388 . S
C2793 C2794 1.366 . S
C2794 C2793 1.366 . S
C2794 C2795 1.414 . S
C2794 C2797 1.499 . S
C2795 H2769 0.950 . S
C2795 C2794 1.414 . S
C2795 C2796 1.374 . S
C2796 H2770 0.950 . S
C2796 C2792 1.385 . S
C2796 C2795 1.374 . S
C2797 C2794 1.499 . S
C2797 C2798 1.373 . S
C2797 C2799 1.389 . S
C2798 H2771 0.950 . S
C2798 C2784 1.377 . S
C2798 C2797 1.373 . S
C2799 C2783 1.377 . S
C2799 C2797 1.389 . S
C2799 C2800 1.524 . S
C2800 C2799 1.524 . S
C2800 C2801 1.397 . S
C2800 C2805 1.363 . S
C2801 H2772 0.950 . S
C2801 C2800 1.397 . S
C2801 C2802 1.334 . S
C2802 H2773 0.950 . S
C2802 C2801 1.334 . S
C2802 C2803 1.287 . S
C2803 C2802 1.287 . S
C2803 C2804 1.524 . S
C2803 H2806 0.999 . S
C2804 H2774 0.950 . S
C2804 C2803 1.524 . S
C2804 C2805 1.415 . S
C2805 H2775 0.950 . S
C2805 C2800 1.363 . S
C2805 C2804 1.415 . S
H2806 C2803 0.999 . S
H2807 C2788 0.913 . S
H2808 C2826 0.951 . S
H2809 C2828 0.951 . S
H2810 C2830 0.950 . S
H2811 C2831 0.950 . S
H2812 C2833 0.950 . S
H2813 C2836 0.950 . S
H2814 C2837 0.950 . S
H2815 C2839 0.950 . S
H2816 C2840 0.950 . S
H2817 C2841 0.951 . S
H2818 C2843 0.951 . S
H2819 C2845 0.950 . S
H2820 C2846 0.950 . S
H2821 C2848 0.950 . S
H2822 C2851 0.950 . S
H2823 C2852 0.950 . S
H2824 C2854 0.950 . S
H2825 C2855 0.950 . S
C2826 H2808 0.951 . S
C2826 C2827 1.366 . S
C2826 C2828 1.388 . S
C2827 C2826 1.366 . S
C2827 C2831 1.385 . S
C2828 H2809 0.951 . S
C2828 C2826 1.388 . S
C2828 C2829 1.366 . S
C2829 C2828 1.366 . S
C2829 C2830 1.414 . S
C2829 C2832 1.499 . S
C2830 H2810 0.950 . S
C2830 C2829 1.414 . S
C2830 C2831 1.374 . S
C2831 H2811 0.950 . S
C2831 C2827 1.385 . S
C2831 C2830 1.374 . S
C2832 C2829 1.499 . S
C2832 C2833 1.373 . S
C2832 C2834 1.389 . S
C2833 H2812 0.950 . S
C2833 C2832 1.373 . S
C2833 C2849 1.377 . S
C2834 C2832 1.389 . S
C2834 C2835 1.524 . S
C2834 C2848 1.377 . S
C2835 C2834 1.524 . S
C2835 C2836 1.397 1_565 S
C2835 C2840 1.363 . S
C2836 H2813 0.950 . S
C2836 C2835 1.397 1_545 S
C2836 C2837 1.334 . S
C2837 H2814 0.950 . S
C2837 C2836 1.334 . S
C2837 C2838 1.287 . S
C2838 C2837 1.287 . S
C2838 C2839 1.524 . S
C2838 H2857 0.913 . S
C2839 H2815 0.950 . S
C2839 C2838 1.524 . S
C2839 C2840 1.415 1_545 S
C2840 H2816 0.950 . S
C2840 C2835 1.363 . S
C2840 C2839 1.415 1_565 S
C2841 H2817 0.951 . S
C2841 C2842 1.366 . S
C2841 C2843 1.388 . S
C2842 C2841 1.366 . S
C2842 C2846 1.385 . S
C2843 H2818 0.951 . S
C2843 C2841 1.388 . S
C2843 C2844 1.366 . S
C2844 C2843 1.366 . S
C2844 C2845 1.414 . S
C2844 C2847 1.499 . S
C2845 H2819 0.950 . S
C2845 C2844 1.414 . S
C2845 C2846 1.374 . S
C2846 H2820 0.950 . S
C2846 C2842 1.385 . S
C2846 C2845 1.374 . S
C2847 C2844 1.499 . S
C2847 C2848 1.373 . S
C2847 C2849 1.389 . S
C2848 H2821 0.950 . S
C2848 C2834 1.377 . S
C2848 C2847 1.373 . S
C2849 C2833 1.377 . S
C2849 C2847 1.389 . S
C2849 C2850 1.524 . S
C2850 C2849 1.524 . S
C2850 C2851 1.397 . S
C2850 C2855 1.363 . S
C2851 H2822 0.950 . S
C2851 C2850 1.397 . S
C2851 C2852 1.334 . S
C2852 H2823 0.950 . S
C2852 C2851 1.334 . S
C2852 C2853 1.287 . S
C2853 C2852 1.287 . S
C2853 C2854 1.524 . S
C2853 H2856 0.999 . S
C2854 H2824 0.950 . S
C2854 C2853 1.524 . S
C2854 C2855 1.415 . S
C2855 H2825 0.950 . S
C2855 C2850 1.363 . S
C2855 C2854 1.415 . S
H2856 C2853 0.999 . S
H2857 C2838 0.913 . S
H2858 C2876 0.951 1_655 S
H2859 C2878 0.951 1_655 S
H2860 C2880 0.950 . S
H2861 C2881 0.950 . S
H2862 C2883 0.950 . S
H2863 C2886 0.950 . S
H2864 C2887 0.950 . S
H2865 C2889 0.950 . S
H2866 C2890 0.950 . S
H2867 C2891 0.951 . S
H2868 C2893 0.951 . S
H2869 C2895 0.950 1_655 S
H2870 C2896 0.950 1_655 S
H2871 C2898 0.950 . S
H2872 C2901 0.950 . S
H2873 C2902 0.950 . S
H2874 C2904 0.950 . S
H2875 C2905 0.950 . S
C2876 H2858 0.951 1_455 S
C2876 C2877 1.366 . S
C2876 C2878 1.388 . S
C2877 C2876 1.366 . S
C2877 C2881 1.385 . S
C2878 H2859 0.951 1_455 S
C2878 C2876 1.388 . S
C2878 C2879 1.366 . S
C2879 C2878 1.366 . S
C2879 C2880 1.414 . S
C2879 C2882 1.499 . S
C2880 H2860 0.950 . S
C2880 C2879 1.414 . S
C2880 C2881 1.374 . S
C2881 H2861 0.950 . S
C2881 C2877 1.385 . S
C2881 C2880 1.374 . S
C2882 C2879 1.499 . S
C2882 C2883 1.373 . S
C2882 C2884 1.389 1_455 S
C2883 H2862 0.950 . S
C2883 C2882 1.373 . S
C2883 C2899 1.377 . S
C2884 C2882 1.389 1_655 S
C2884 C2885 1.524 . S
C2884 C2898 1.377 . S
C2885 C2884 1.524 . S
C2885 C2886 1.397 . S
C2885 C2890 1.363 . S
C2886 H2863 0.950 . S
C2886 C2885 1.397 . S
C2886 C2887 1.334 . S
C2887 H2864 0.950 . S
C2887 C2886 1.334 . S
C2887 C2888 1.287 . S
C2888 C2887 1.287 . S
C2888 C2889 1.524 . S
C2888 H2907 0.913 . S
C2889 H2865 0.950 . S
C2889 C2888 1.524 . S
C2889 C2890 1.415 . S
C2890 H2866 0.950 . S
C2890 C2885 1.363 . S
C2890 C2889 1.415 . S
C2891 H2867 0.951 . S
C2891 C2892 1.366 . S
C2891 C2893 1.388 . S
C2892 C2891 1.366 . S
C2892 C2896 1.385 . S
C2893 H2868 0.951 . S
C2893 C2891 1.388 . S
C2893 C2894 1.366 . S
C2894 C2893 1.366 . S
C2894 C2895 1.414 . S
C2894 C2897 1.499 . S
C2895 H2869 0.950 1_455 S
C2895 C2894 1.414 . S
C2895 C2896 1.374 . S
C2896 H2870 0.950 1_455 S
C2896 C2892 1.385 . S
C2896 C2895 1.374 . S
C2897 C2894 1.499 . S
C2897 C2898 1.373 1_455 S
C2897 C2899 1.389 . S
C2898 H2871 0.950 . S
C2898 C2884 1.377 . S
C2898 C2897 1.373 1_655 S
C2899 C2883 1.377 . S
C2899 C2897 1.389 . S
C2899 C2900 1.524 . S
C2900 C2899 1.524 . S
C2900 C2901 1.397 . S
C2900 C2905 1.363 . S
C2901 H2872 0.950 . S
C2901 C2900 1.397 . S
C2901 C2902 1.334 . S
C2902 H2873 0.950 . S
C2902 C2901 1.334 . S
C2902 C2903 1.287 . S
C2903 C2902 1.287 . S
C2903 C2904 1.524 . S
C2903 H2906 0.999 . S
C2904 H2874 0.950 . S
C2904 C2903 1.524 . S
C2904 C2905 1.415 . S
C2905 H2875 0.950 . S
C2905 C2900 1.363 . S
C2905 C2904 1.415 . S
H2906 C2903 0.999 . S
H2907 C2888 0.913 . S
H2908 C2926 0.951 . S
H2909 C2928 0.951 . S
H2910 C2930 0.950 . S
H2911 C2931 0.950 . S
H2912 C2933 0.950 . S
H2913 C2936 0.950 . S
H2914 C2937 0.950 . S
H2915 C2939 0.950 . S
H2916 C2940 0.950 . S
H2917 C2941 0.951 . S
H2918 C2943 0.951 . S
H2919 C2945 0.950 . S
H2920 C2946 0.950 . S
H2921 C2948 0.950 . S
H2922 C2951 0.950 . S
H2923 C2952 0.950 . S
H2924 C2954 0.950 . S
H2925 C2955 0.950 . S
C2926 H2908 0.951 . S
C2926 C2927 1.366 . S
C2926 C2928 1.388 . S
C2927 C2926 1.366 . S
C2927 C2931 1.385 . S
C2928 H2909 0.951 . S
C2928 C2926 1.388 . S
C2928 C2929 1.366 . S
C2929 C2928 1.366 . S
C2929 C2930 1.414 . S
C2929 C2932 1.499 . S
C2930 H2910 0.950 . S
C2930 C2929 1.414 . S
C2930 C2931 1.374 . S
C2931 H2911 0.950 . S
C2931 C2927 1.385 . S
C2931 C2930 1.374 . S
C2932 C2929 1.499 . S
C2932 C2933 1.373 . S
C2932 C2934 1.389 . S
C2933 H2912 0.950 . S
C2933 C2932 1.373 . S
C2933 C2949 1.377 . S
C2934 C2932 1.389 . S
C2934 C2935 1.524 . S
C2934 C2948 1.377 . S
C2935 C2934 1.524 . S
C2935 C2936 1.397 . S
C2935 C2940 1.363 . S
C2936 H2913 0.950 . S
C2936 C2935 1.397 . S
C2936 C2937 1.334 . S
C2937 H2914 0.950 . S
C2937 C2936 1.334 . S
C2937 C2938 1.287 . S
C2938 C2937 1.287 . S
C2938 C2939 1.524 . S
C2938 H2957 0.913 . S
C2939 H2915 0.950 . S
C2939 C2938 1.524 . S
C2939 C2940 1.415 . S
C2940 H2916 0.950 . S
C2940 C2935 1.363 . S
C2940 C2939 1.415 . S
C2941 H2917 0.951 . S
C2941 C2942 1.366 . S
C2941 C2943 1.388 . S
C2942 C2941 1.366 . S
C2942 C2946 1.385 . S
C2943 H2918 0.951 . S
C2943 C2941 1.388 . S
C2943 C2944 1.366 . S
C2944 C2943 1.366 . S
C2944 C2945 1.414 . S
C2944 C2947 1.499 . S
C2945 H2919 0.950 . S
C2945 C2944 1.414 . S
C2945 C2946 1.374 . S
C2946 H2920 0.950 . S
C2946 C2942 1.385 . S
C2946 C2945 1.374 . S
C2947 C2944 1.499 . S
C2947 C2948 1.373 . S
C2947 C2949 1.389 . S
C2948 H2921 0.950 . S
C2948 C2934 1.377 . S
C2948 C2947 1.373 . S
C2949 C2933 1.377 . S
C2949 C2947 1.389 . S
C2949 C2950 1.524 . S
C2950 C2949 1.524 . S
C2950 C2951 1.397 . S
C2950 C2955 1.363 . S
C2951 H2922 0.950 . S
C2951 C2950 1.397 . S
C2951 C2952 1.334 . S
C2952 H2923 0.950 . S
C2952 C2951 1.334 . S
C2952 C2953 1.287 . S
C2953 C2952 1.287 . S
C2953 C2954 1.524 . S
C2953 H2956 0.999 . S
C2954 H2924 0.950 . S
C2954 C2953 1.524 . S
C2954 C2955 1.415 . S
C2955 H2925 0.950 . S
C2955 C2950 1.363 . S
C2955 C2954 1.415 . S
H2956 C2953 0.999 . S
H2957 C2938 0.913 . S
H2958 C2976 0.951 . S
H2959 C2978 0.951 . S
H2960 C2980 0.949 1_455 S
H2961 C2981 0.947 1_455 S
H2962 C2983 0.950 . S
H2963 C2986 0.950 . S
H2964 C2987 0.950 . S
H2965 C2989 0.950 . S
H2966 C2990 0.950 . S
H2967 C2991 0.951 1_455 S
H2968 C2993 0.949 1_455 S
H2969 C2995 0.950 . S
H2970 C2996 0.950 . S
H2971 C2998 0.950 . S
H2972 C3001 0.950 . S
H2973 C3002 0.950 . S
H2974 C3004 0.950 . S
H2975 C3005 0.950 . S
C2976 H2958 0.951 . S
C2976 C2977 1.366 . S
C2976 C2978 1.388 . S
C2977 C2976 1.366 . S
C2977 C2981 1.386 . S
C2978 H2959 0.951 . S
C2978 C2976 1.388 . S
C2978 C2979 1.366 . S
C2979 C2978 1.366 . S
C2979 C2980 1.421 . S
C2979 C2982 1.499 . S
C2980 H2960 0.949 1_655 S
C2980 C2979 1.421 . S
C2980 C2981 1.373 . S
C2981 H2961 0.947 1_655 S
C2981 C2977 1.386 . S
C2981 C2980 1.373 . S
C2982 C2979 1.499 . S
C2982 C2983 1.373 1_655 S
C2982 C2984 1.389 . S
C2983 H2962 0.950 . S
C2983 C2982 1.373 1_455 S
C2983 C2999 1.377 . S
C2984 C2982 1.389 . S
C2984 C2985 1.524 . S
C2984 C2998 1.377 . S
C2985 C2984 1.524 . S
C2985 C2986 1.397 . S
C2985 C2990 1.363 . S
C2986 H2963 0.950 . S
C2986 C2985 1.397 . S
C2986 C2987 1.334 . S
C2987 H2964 0.950 . S
C2987 C2986 1.334 . S
C2987 C2988 1.287 . S
C2988 C2987 1.287 . S
C2988 C2989 1.524 . S
C2988 H3007 0.913 . S
C2989 H2965 0.950 . S
C2989 C2988 1.524 . S
C2989 C2990 1.415 . S
C2990 H2966 0.950 . S
C2990 C2985 1.363 . S
C2990 C2989 1.415 . S
C2991 H2967 0.951 1_655 S
C2991 C2992 1.372 . S
C2991 C2993 1.385 . S
C2992 C2991 1.372 . S
C2992 C2996 1.385 . S
C2993 H2968 0.949 1_655 S
C2993 C2991 1.385 . S
C2993 C2994 1.366 . S
C2994 C2993 1.366 . S
C2994 C2995 1.414 . S
C2994 C2997 1.499 . S
C2995 H2969 0.950 . S
C2995 C2994 1.414 . S
C2995 C2996 1.374 . S
C2996 H2970 0.950 . S
C2996 C2992 1.385 . S
C2996 C2995 1.374 . S
C2997 C2994 1.499 . S
C2997 C2998 1.373 . S
C2997 C2999 1.389 1_655 S
C2998 H2971 0.950 . S
C2998 C2984 1.377 . S
C2998 C2997 1.373 . S
C2999 C2983 1.377 . S
C2999 C2997 1.389 1_455 S
C2999 C3000 1.524 . S
C3000 C2999 1.524 . S
C3000 C3001 1.397 . S
C3000 C3005 1.363 . S
C3001 H2972 0.950 . S
C3001 C3000 1.397 . S
C3001 C3002 1.334 . S
C3002 H2973 0.950 . S
C3002 C3001 1.334 . S
C3002 C3003 1.287 . S
C3003 C3002 1.287 . S
C3003 C3004 1.524 . S
C3003 H3006 0.999 . S
C3004 H2974 0.950 . S
C3004 C3003 1.524 . S
C3004 C3005 1.415 . S
C3005 H2975 0.950 . S
C3005 C3000 1.363 . S
C3005 C3004 1.415 . S
H3006 C3003 0.999 . S
H3007 C2988 0.913 . S
H3008 C3026 0.951 . S
H3009 C3028 0.951 . S
H3010 C3030 0.950 . S
H3011 C3031 0.950 . S
H3012 C3033 0.950 . S
H3013 C3036 0.950 . S
H3014 C3037 0.950 . S
H3015 C3039 0.950 . S
H3016 C3040 0.950 . S
H3017 C3041 0.951 . S
H3018 C3043 0.951 . S
H3019 C3045 0.950 . S
H3020 C3046 0.950 . S
H3021 C3048 0.950 . S
H3022 C3051 0.950 . S
H3023 C3052 0.950 . S
H3024 C3054 0.950 . S
H3025 C3055 0.950 . S
C3026 H3008 0.951 . S
C3026 C3027 1.366 . S
C3026 C3028 1.388 . S
C3027 C3026 1.366 . S
C3027 C3031 1.385 . S
C3028 H3009 0.951 . S
C3028 C3026 1.388 . S
C3028 C3029 1.366 . S
C3029 C3028 1.366 . S
C3029 C3030 1.414 . S
C3029 C3032 1.499 . S
C3030 H3010 0.950 . S
C3030 C3029 1.414 . S
C3030 C3031 1.374 . S
C3031 H3011 0.950 . S
C3031 C3027 1.385 . S
C3031 C3030 1.374 . S
C3032 C3029 1.499 . S
C3032 C3033 1.373 . S
C3032 C3034 1.389 . S
C3033 H3012 0.950 . S
C3033 C3032 1.373 . S
C3033 C3049 1.377 . S
C3034 C3032 1.389 . S
C3034 C3035 1.524 . S
C3034 C3048 1.377 . S
C3035 C3034 1.524 . S
C3035 C3036 1.397 . S
C3035 C3040 1.363 . S
C3036 H3013 0.950 . S
C3036 C3035 1.397 . S
C3036 C3037 1.334 . S
C3037 H3014 0.950 . S
C3037 C3036 1.334 . S
C3037 C3038 1.287 . S
C3038 C3037 1.287 . S
C3038 C3039 1.524 . S
C3038 H3057 0.913 . S
C3039 H3015 0.950 . S
C3039 C3038 1.524 . S
C3039 C3040 1.415 . S
C3040 H3016 0.950 . S
C3040 C3035 1.363 . S
C3040 C3039 1.415 . S
C3041 H3017 0.951 . S
C3041 C3042 1.366 . S
C3041 C3043 1.388 . S
C3042 C3041 1.366 . S
C3042 C3046 1.385 . S
C3043 H3018 0.951 . S
C3043 C3041 1.388 . S
C3043 C3044 1.366 . S
C3044 C3043 1.366 . S
C3044 C3045 1.414 . S
C3044 C3047 1.499 . S
C3045 H3019 0.950 . S
C3045 C3044 1.414 . S
C3045 C3046 1.374 . S
C3046 H3020 0.950 . S
C3046 C3042 1.385 . S
C3046 C3045 1.374 . S
C3047 C3044 1.499 . S
C3047 C3048 1.373 . S
C3047 C3049 1.389 . S
C3048 H3021 0.950 . S
C3048 C3034 1.377 . S
C3048 C3047 1.373 . S
C3049 C3033 1.377 . S
C3049 C3047 1.389 . S
C3049 C3050 1.524 . S
C3050 C3049 1.524 . S
C3050 C3051 1.397 . S
C3050 C3055 1.363 . S
C3051 H3022 0.950 . S
C3051 C3050 1.397 . S
C3051 C3052 1.334 . S
C3052 H3023 0.950 . S
C3052 C3051 1.334 . S
C3052 C3053 1.287 . S
C3053 C3052 1.287 . S
C3053 C3054 1.524 . S
C3053 H3056 0.999 . S
C3054 H3024 0.950 . S
C3054 C3053 1.524 . S
C3054 C3055 1.415 . S
C3055 H3025 0.950 . S
C3055 C3050 1.363 . S
C3055 C3054 1.415 . S
H3056 C3053 0.999 . S
H3057 C3038 0.913 . S
H3058 C3076 0.951 . S
H3059 C3078 0.951 . S
H3060 C3080 0.950 . S
H3061 C3081 0.950 . S
H3062 C3083 0.937 1_565 S
H3063 C3086 0.950 . S
H3064 C3087 0.950 . S
H3065 C3089 0.950 . S
H3066 C3090 0.950 . S
H3067 C3091 0.951 . S
H3068 C3093 0.916 1_565 S
H3069 C3095 0.950 . S
H3070 C3096 0.950 . S
H3071 C3098 0.950 . S
H3072 C3101 0.950 . S
H3073 C3102 0.950 . S
H3074 C3104 0.950 . S
H3075 C3105 0.950 . S
C3076 H3058 0.951 . S
C3076 C3077 1.366 . S
C3076 C3078 1.388 . S
C3077 C3076 1.366 . S
C3077 C3081 1.385 . S
C3078 H3059 0.951 . S
C3078 C3076 1.388 . S
C3078 C3079 1.366 . S
C3079 C3078 1.366 . S
C3079 C3080 1.414 . S
C3079 C3082 1.499 . S
C3080 H3060 0.950 . S
C3080 C3079 1.414 . S
C3080 C3081 1.374 . S
C3081 H3061 0.950 . S
C3081 C3077 1.385 . S
C3081 C3080 1.374 . S
C3082 C3079 1.499 . S
C3082 C3083 1.373 . S
C3082 C3084 1.389 . S
C3083 H3062 0.937 1_545 S
C3083 C3082 1.373 . S
C3083 C3099 1.377 . S
C3084 C3082 1.389 . S
C3084 C3085 1.524 . S
C3084 C3098 1.377 . S
C3085 C3084 1.524 . S
C3085 C3086 1.397 . S
C3085 C3090 1.363 . S
C3086 H3063 0.950 . S
C3086 C3085 1.397 . S
C3086 C3087 1.334 . S
C3087 H3064 0.950 . S
C3087 C3086 1.334 . S
C3087 C3088 1.287 . S
C3088 C3087 1.287 . S
C3088 C3089 1.524 . S
C3088 H3107 0.913 . S
C3089 H3065 0.950 . S
C3089 C3088 1.524 . S
C3089 C3090 1.415 . S
C3090 H3066 0.950 . S
C3090 C3085 1.363 . S
C3090 C3089 1.415 . S
C3091 H3067 0.951 . S
C3091 C3092 1.366 1_565 S
C3091 C3093 1.377 1_565 S
C3092 C3091 1.366 1_545 S
C3092 C3096 1.385 . S
C3093 H3068 0.916 1_545 S
C3093 C3091 1.377 1_545 S
C3093 C3094 1.412 . S
C3094 C3093 1.412 . S
C3094 C3095 1.414 . S
C3094 C3097 1.499 . S
C3095 H3069 0.950 . S
C3095 C3094 1.414 . S
C3095 C3096 1.374 . S
C3096 H3070 0.950 . S
C3096 C3092 1.385 . S
C3096 C3095 1.374 . S
C3097 C3094 1.499 . S
C3097 C3098 1.373 . S
C3097 C3099 1.389 . S
C3098 H3071 0.950 . S
C3098 C3084 1.377 . S
C3098 C3097 1.373 . S
C3099 C3083 1.377 . S
C3099 C3097 1.389 . S
C3099 C3100 1.524 1_545 S
C3100 C3099 1.524 1_565 S
C3100 C3101 1.397 . S
C3100 C3105 1.363 . S
C3101 H3072 0.950 . S
C3101 C3100 1.397 . S
C3101 C3102 1.334 . S
C3102 H3073 0.950 . S
C3102 C3101 1.334 . S
C3102 C3103 1.287 . S
C3103 C3102 1.287 . S
C3103 C3104 1.524 . S
C3103 H3106 0.999 . S
C3104 H3074 0.950 . S
C3104 C3103 1.524 . S
C3104 C3105 1.415 . S
C3105 H3075 0.950 . S
C3105 C3100 1.363 . S
C3105 C3104 1.415 . S
H3106 C3103 0.999 . S
H3107 C3088 0.913 . S
H3108 C3126 0.951 . S
H3109 C3128 0.951 . S
H3110 C3130 0.950 . S
H3111 C3131 0.950 . S
H3112 C3133 0.950 . S
H3113 C3136 0.950 . S
H3114 C3137 0.950 . S
H3115 C3139 0.950 . S
H3116 C3140 0.950 . S
H3117 C3141 0.951 . S
H3118 C3143 0.951 . S
H3119 C3145 0.950 . S
H3120 C3146 0.950 . S
H3121 C3148 0.950 . S
H3122 C3151 0.950 . S
H3123 C3152 0.950 . S
H3124 C3154 0.950 . S
H3125 C3155 0.950 . S
C3126 H3108 0.951 . S
C3126 C3127 1.366 . S
C3126 C3128 1.388 . S
C3127 C3126 1.366 . S
C3127 C3131 1.385 . S
C3128 H3109 0.951 . S
C3128 C3126 1.388 . S
C3128 C3129 1.366 . S
C3129 C3128 1.366 . S
C3129 C3130 1.414 . S
C3129 C3132 1.499 . S
C3130 H3110 0.950 . S
C3130 C3129 1.414 . S
C3130 C3131 1.374 . S
C3131 H3111 0.950 . S
C3131 C3127 1.385 . S
C3131 C3130 1.374 . S
C3132 C3129 1.499 . S
C3132 C3133 1.373 . S
C3132 C3134 1.389 . S
C3133 H3112 0.950 . S
C3133 C3132 1.373 . S
C3133 C3149 1.377 . S
C3134 C3132 1.389 . S
C3134 C3135 1.524 . S
C3134 C3148 1.377 . S
C3135 C3134 1.524 . S
C3135 C3136 1.397 . S
C3135 C3140 1.363 . S
C3136 H3113 0.950 . S
C3136 C3135 1.397 . S
C3136 C3137 1.334 . S
C3137 H3114 0.950 . S
C3137 C3136 1.334 . S
C3137 C3138 1.287 . S
C3138 C3137 1.287 . S
C3138 C3139 1.524 . S
C3138 H3157 0.913 . S
C3139 H3115 0.950 . S
C3139 C3138 1.524 . S
C3139 C3140 1.415 . S
C3140 H3116 0.950 . S
C3140 C3135 1.363 . S
C3140 C3139 1.415 . S
C3141 H3117 0.951 . S
C3141 C3142 1.366 . S
C3141 C3143 1.388 . S
C3142 C3141 1.366 . S
C3142 C3146 1.385 . S
C3143 H3118 0.951 . S
C3143 C3141 1.388 . S
C3143 C3144 1.366 . S
C3144 C3143 1.366 . S
C3144 C3145 1.414 . S
C3144 C3147 1.499 . S
C3145 H3119 0.950 . S
C3145 C3144 1.414 . S
C3145 C3146 1.374 . S
C3146 H3120 0.950 . S
C3146 C3142 1.385 . S
C3146 C3145 1.374 . S
C3147 C3144 1.499 . S
C3147 C3148 1.373 . S
C3147 C3149 1.389 . S
C3148 H3121 0.950 . S
C3148 C3134 1.377 . S
C3148 C3147 1.373 . S
C3149 C3133 1.377 . S
C3149 C3147 1.389 . S
C3149 C3150 1.524 . S
C3150 C3149 1.524 . S
C3150 C3151 1.397 . S
C3150 C3155 1.363 . S
C3151 H3122 0.950 . S
C3151 C3150 1.397 . S
C3151 C3152 1.334 . S
C3152 H3123 0.950 . S
C3152 C3151 1.334 . S
C3152 C3153 1.287 . S
C3153 C3152 1.287 . S
C3153 C3154 1.524 . S
C3153 H3156 0.999 . S
C3154 H3124 0.950 . S
C3154 C3153 1.524 . S
C3154 C3155 1.415 . S
C3155 H3125 0.950 . S
C3155 C3150 1.363 . S
C3155 C3154 1.415 . S
H3156 C3153 0.999 . S
H3157 C3138 0.913 . S
H3158 C3176 0.951 . S
H3159 C3178 0.951 . S
H3160 C3180 0.950 . S
H3161 C3181 0.950 . S
H3162 C3183 0.950 . S
H3163 C3186 0.950 . S
H3164 C3187 0.950 . S
H3165 C3189 0.950 . S
H3166 C3190 0.950 . S
H3167 C3191 0.951 . S
H3168 C3193 0.951 . S
H3169 C3195 0.950 . S
H3170 C3196 0.950 . S
H3171 C3198 0.950 . S
H3172 C3201 0.950 . S
H3173 C3202 0.950 . S
H3174 C3204 0.950 . S
H3175 C3205 0.950 . S
C3176 H3158 0.951 . S
C3176 C3177 1.366 . S
C3176 C3178 1.388 . S
C3177 C3176 1.366 . S
C3177 C3181 1.385 . S
C3178 H3159 0.951 . S
C3178 C3176 1.388 . S
C3178 C3179 1.366 . S
C3179 C3178 1.366 . S
C3179 C3180 1.414 . S
C3179 C3182 1.499 . S
C3180 H3160 0.950 . S
C3180 C3179 1.414 . S
C3180 C3181 1.374 . S
C3181 H3161 0.950 . S
C3181 C3177 1.385 . S
C3181 C3180 1.374 . S
C3182 C3179 1.499 . S
C3182 C3183 1.373 . S
C3182 C3184 1.389 . S
C3183 H3162 0.950 . S
C3183 C3182 1.373 . S
C3183 C3199 1.377 . S
C3184 C3182 1.389 . S
C3184 C3185 1.524 . S
C3184 C3198 1.377 . S
C3185 C3184 1.524 . S
C3185 C3186 1.397 . S
C3185 C3190 1.363 . S
C3186 H3163 0.950 . S
C3186 C3185 1.397 . S
C3186 C3187 1.334 . S
C3187 H3164 0.950 . S
C3187 C3186 1.334 . S
C3187 C3188 1.287 . S
C3188 C3187 1.287 . S
C3188 C3189 1.524 . S
C3188 H3207 0.913 . S
C3189 H3165 0.950 . S
C3189 C3188 1.524 . S
C3189 C3190 1.415 . S
C3190 H3166 0.950 . S
C3190 C3185 1.363 . S
C3190 C3189 1.415 . S
C3191 H3167 0.951 . S
C3191 C3192 1.366 . S
C3191 C3193 1.388 . S
C3192 C3191 1.366 . S
C3192 C3196 1.385 . S
C3193 H3168 0.951 . S
C3193 C3191 1.388 . S
C3193 C3194 1.366 . S
C3194 C3193 1.366 . S
C3194 C3195 1.414 . S
C3194 C3197 1.499 . S
C3195 H3169 0.950 . S
C3195 C3194 1.414 . S
C3195 C3196 1.374 . S
C3196 H3170 0.950 . S
C3196 C3192 1.385 . S
C3196 C3195 1.374 . S
C3197 C3194 1.499 . S
C3197 C3198 1.373 . S
C3197 C3199 1.389 . S
C3198 H3171 0.950 . S
C3198 C3184 1.377 . S
C3198 C3197 1.373 . S
C3199 C3183 1.377 . S
C3199 C3197 1.389 . S
C3199 C3200 1.524 . S
C3200 C3199 1.524 . S
C3200 C3201 1.397 . S
C3200 C3205 1.363 . S
C3201 H3172 0.950 . S
C3201 C3200 1.397 . S
C3201 C3202 1.334 . S
C3202 H3173 0.950 . S
C3202 C3201 1.334 . S
C3202 C3203 1.287 . S
C3203 C3202 1.287 . S
C3203 C3204 1.524 . S
C3203 H3206 0.999 . S
C3204 H3174 0.950 . S
C3204 C3203 1.524 . S
C3204 C3205 1.415 . S
C3205 H3175 0.950 . S
C3205 C3200 1.363 . S
C3205 C3204 1.415 . S
H3206 C3203 0.999 . S
H3207 C3188 0.913 . S
H3208 C3226 0.951 . S
H3209 C3228 0.951 . S
H3210 C3230 0.950 . S
H3211 C3231 0.950 . S
H3212 C3233 0.950 . S
H3213 C3236 0.950 . S
H3214 C3237 0.950 . S
H3215 C3239 0.950 . S
H3216 C3240 0.950 . S
H3217 C3241 0.951 . S
H3218 C3243 0.951 . S
H3219 C3245 0.950 . S
H3220 C3246 0.950 . S
H3221 C3248 0.950 . S
H3222 C3251 0.950 . S
H3223 C3252 0.950 . S
H3224 C3254 0.950 . S
H3225 C3255 0.950 . S
C3226 H3208 0.951 . S
C3226 C3227 1.366 . S
C3226 C3228 1.388 . S
C3227 C3226 1.366 . S
C3227 C3231 1.385 . S
C3228 H3209 0.951 . S
C3228 C3226 1.388 . S
C3228 C3229 1.366 . S
C3229 C3228 1.366 . S
C3229 C3230 1.414 . S
C3229 C3232 1.499 . S
C3230 H3210 0.950 . S
C3230 C3229 1.414 . S
C3230 C3231 1.374 . S
C3231 H3211 0.950 . S
C3231 C3227 1.385 . S
C3231 C3230 1.374 . S
C3232 C3229 1.499 . S
C3232 C3233 1.373 . S
C3232 C3234 1.389 . S
C3233 H3212 0.950 . S
C3233 C3232 1.373 . S
C3233 C3249 1.377 . S
C3234 C3232 1.389 . S
C3234 C3235 1.524 . S
C3234 C3248 1.377 . S
C3235 C3234 1.524 . S
C3235 C3236 1.397 . S
C3235 C3240 1.363 . S
C3236 H3213 0.950 . S
C3236 C3235 1.397 . S
C3236 C3237 1.334 . S
C3237 H3214 0.950 . S
C3237 C3236 1.334 . S
C3237 C3238 1.287 . S
C3238 C3237 1.287 . S
C3238 C3239 1.524 . S
C3238 H3257 0.913 . S
C3239 H3215 0.950 . S
C3239 C3238 1.524 . S
C3239 C3240 1.415 . S
C3240 H3216 0.950 . S
C3240 C3235 1.363 . S
C3240 C3239 1.415 . S
C3241 H3217 0.951 . S
C3241 C3242 1.366 . S
C3241 C3243 1.388 . S
C3242 C3241 1.366 . S
C3242 C3246 1.385 . S
C3243 H3218 0.951 . S
C3243 C3241 1.388 . S
C3243 C3244 1.366 . S
C3244 C3243 1.366 . S
C3244 C3245 1.414 . S
C3244 C3247 1.499 . S
C3245 H3219 0.950 . S
C3245 C3244 1.414 . S
C3245 C3246 1.374 . S
C3246 H3220 0.950 . S
C3246 C3242 1.385 . S
C3246 C3245 1.374 . S
C3247 C3244 1.499 . S
C3247 C3248 1.373 . S
C3247 C3249 1.389 . S
C3248 H3221 0.950 . S
C3248 C3234 1.377 . S
C3248 C3247 1.373 . S
C3249 C3233 1.377 . S
C3249 C3247 1.389 . S
C3249 C3250 1.524 . S
C3250 C3249 1.524 . S
C3250 C3251 1.397 . S
C3250 C3255 1.363 . S
C3251 H3222 0.950 . S
C3251 C3250 1.397 . S
C3251 C3252 1.334 . S
C3252 H3223 0.950 . S
C3252 C3251 1.334 . S
C3252 C3253 1.287 . S
C3253 C3252 1.287 . S
C3253 C3254 1.524 . S
C3253 H3256 0.999 . S
C3254 H3224 0.950 . S
C3254 C3253 1.524 . S
C3254 C3255 1.415 . S
C3255 H3225 0.950 . S
C3255 C3250 1.363 . S
C3255 C3254 1.415 . S
H3256 C3253 0.999 . S
H3257 C3238 0.913 . S
H3258 C3276 0.951 . S
H3259 C3278 0.951 . S
H3260 C3280 0.950 . S
H3261 C3281 0.950 . S
H3262 C3283 0.950 . S
H3263 C3286 0.950 . S
H3264 C3287 0.950 . S
H3265 C3289 0.950 . S
H3266 C3290 0.950 . S
H3267 C3291 0.951 . S
H3268 C3293 0.951 . S
H3269 C3295 0.950 . S
H3270 C3296 0.950 . S
H3271 C3298 0.950 . S
H3272 C3301 0.950 . S
H3273 C3302 0.950 . S
H3274 C3304 0.950 . S
H3275 C3305 0.950 . S
C3276 H3258 0.951 . S
C3276 C3277 1.366 . S
C3276 C3278 1.388 . S
C3277 C3276 1.366 . S
C3277 C3281 1.385 . S
C3278 H3259 0.951 . S
C3278 C3276 1.388 . S
C3278 C3279 1.366 . S
C3279 C3278 1.366 . S
C3279 C3280 1.414 . S
C3279 C3282 1.499 . S
C3280 H3260 0.950 . S
C3280 C3279 1.414 . S
C3280 C3281 1.374 . S
C3281 H3261 0.950 . S
C3281 C3277 1.385 . S
C3281 C3280 1.374 . S
C3282 C3279 1.499 . S
C3282 C3283 1.373 . S
C3282 C3284 1.389 . S
C3283 H3262 0.950 . S
C3283 C3282 1.373 . S
C3283 C3299 1.377 . S
C3284 C3282 1.389 . S
C3284 C3285 1.524 . S
C3284 C3298 1.377 . S
C3285 C3284 1.524 . S
C3285 C3286 1.397 . S
C3285 C3290 1.363 . S
C3286 H3263 0.950 . S
C3286 C3285 1.397 . S
C3286 C3287 1.334 . S
C3287 H3264 0.950 . S
C3287 C3286 1.334 . S
C3287 C3288 1.287 . S
C3288 C3287 1.287 . S
C3288 C3289 1.524 . S
C3288 H3307 0.913 . S
C3289 H3265 0.950 . S
C3289 C3288 1.524 . S
C3289 C3290 1.415 . S
C3290 H3266 0.950 . S
C3290 C3285 1.363 . S
C3290 C3289 1.415 . S
C3291 H3267 0.951 . S
C3291 C3292 1.366 . S
C3291 C3293 1.388 . S
C3292 C3291 1.366 . S
C3292 C3296 1.385 . S
C3293 H3268 0.951 . S
C3293 C3291 1.388 . S
C3293 C3294 1.366 . S
C3294 C3293 1.366 . S
C3294 C3295 1.414 . S
C3294 C3297 1.499 . S
C3295 H3269 0.950 . S
C3295 C3294 1.414 . S
C3295 C3296 1.374 . S
C3296 H3270 0.950 . S
C3296 C3292 1.385 . S
C3296 C3295 1.374 . S
C3297 C3294 1.499 . S
C3297 C3298 1.373 . S
C3297 C3299 1.389 . S
C3298 H3271 0.950 . S
C3298 C3284 1.377 . S
C3298 C3297 1.373 . S
C3299 C3283 1.377 . S
C3299 C3297 1.389 . S
C3299 C3300 1.524 . S
C3300 C3299 1.524 . S
C3300 C3301 1.397 . S
C3300 C3305 1.363 . S
C3301 H3272 0.950 . S
C3301 C3300 1.397 . S
C3301 C3302 1.334 . S
C3302 H3273 0.950 . S
C3302 C3301 1.334 . S
C3302 C3303 1.287 . S
C3303 C3302 1.287 . S
C3303 C3304 1.524 . S
C3303 H3306 0.999 . S
C3304 H3274 0.950 . S
C3304 C3303 1.524 . S
C3304 C3305 1.415 . S
C3305 H3275 0.950 . S
C3305 C3300 1.363 . S
C3305 C3304 1.415 . S
H3306 C3303 0.999 . S
H3307 C3288 0.913 . S
H3308 C3326 0.951 . S
H3309 C3328 0.951 . S
H3310 C3330 0.950 . S
H3311 C3331 0.950 . S
H3312 C3333 0.950 . S
H3313 C3336 0.950 . S
H3314 C3337 0.950 . S
H3315 C3339 0.950 . S
H3316 C3340 0.950 . S
H3317 C3341 0.951 . S
H3318 C3343 0.951 . S
H3319 C3345 0.950 . S
H3320 C3346 0.950 . S
H3321 C3348 0.950 . S
H3322 C3351 0.950 . S
H3323 C3352 0.950 . S
H3324 C3354 0.950 . S
H3325 C3355 0.950 . S
C3326 H3308 0.951 . S
C3326 C3327 1.366 . S
C3326 C3328 1.388 . S
C3327 C3326 1.366 . S
C3327 C3331 1.385 . S
C3328 H3309 0.951 . S
C3328 C3326 1.388 . S
C3328 C3329 1.366 . S
C3329 C3328 1.366 . S
C3329 C3330 1.414 . S
C3329 C3332 1.499 . S
C3330 H3310 0.950 . S
C3330 C3329 1.414 . S
C3330 C3331 1.374 . S
C3331 H3311 0.950 . S
C3331 C3327 1.385 . S
C3331 C3330 1.374 . S
C3332 C3329 1.499 . S
C3332 C3333 1.373 . S
C3332 C3334 1.389 . S
C3333 H3312 0.950 . S
C3333 C3332 1.373 . S
C3333 C3349 1.377 . S
C3334 C3332 1.389 . S
C3334 C3335 1.524 . S
C3334 C3348 1.377 . S
C3335 C3334 1.524 . S
C3335 C3336 1.397 . S
C3335 C3340 1.363 . S
C3336 H3313 0.950 . S
C3336 C3335 1.397 . S
C3336 C3337 1.334 . S
C3337 H3314 0.950 . S
C3337 C3336 1.334 . S
C3337 C3338 1.287 . S
C3338 C3337 1.287 . S
C3338 C3339 1.524 . S
C3338 H3357 0.913 . S
C3339 H3315 0.950 . S
C3339 C3338 1.524 . S
C3339 C3340 1.415 . S
C3340 H3316 0.950 . S
C3340 C3335 1.363 . S
C3340 C3339 1.415 . S
C3341 H3317 0.951 . S
C3341 C3342 1.366 . S
C3341 C3343 1.388 . S
C3342 C3341 1.366 . S
C3342 C3346 1.385 . S
C3343 H3318 0.951 . S
C3343 C3341 1.388 . S
C3343 C3344 1.366 . S
C3344 C3343 1.366 . S
C3344 C3345 1.414 . S
C3344 C3347 1.499 . S
C3345 H3319 0.950 . S
C3345 C3344 1.414 . S
C3345 C3346 1.374 . S
C3346 H3320 0.950 . S
C3346 C3342 1.385 . S
C3346 C3345 1.374 . S
C3347 C3344 1.499 . S
C3347 C3348 1.373 . S
C3347 C3349 1.389 . S
C3348 H3321 0.950 . S
C3348 C3334 1.377 . S
C3348 C3347 1.373 . S
C3349 C3333 1.377 . S
C3349 C3347 1.389 . S
C3349 C3350 1.524 . S
C3350 C3349 1.524 . S
C3350 C3351 1.397 . S
C3350 C3355 1.363 . S
C3351 H3322 0.950 . S
C3351 C3350 1.397 . S
C3351 C3352 1.334 . S
C3352 H3323 0.950 . S
C3352 C3351 1.334 . S
C3352 C3353 1.287 . S
C3353 C3352 1.287 . S
C3353 C3354 1.524 . S
C3353 H3356 0.999 . S
C3354 H3324 0.950 . S
C3354 C3353 1.524 . S
C3354 C3355 1.415 . S
C3355 H3325 0.950 . S
C3355 C3350 1.363 . S
C3355 C3354 1.415 . S
H3356 C3353 0.999 . S
H3357 C3338 0.913 . S
H3358 C3376 0.951 . S
H3359 C3378 0.951 . S
H3360 C3380 0.950 . S
H3361 C3381 0.950 . S
H3362 C3383 0.950 . S
H3363 C3386 0.950 . S
H3364 C3387 0.950 . S
H3365 C3389 0.950 . S
H3366 C3390 0.950 . S
H3367 C3391 0.951 . S
H3368 C3393 0.951 . S
H3369 C3395 0.950 . S
H3370 C3396 0.950 . S
H3371 C3398 0.950 . S
H3372 C3401 0.950 . S
H3373 C3402 0.950 . S
H3374 C3404 0.950 . S
H3375 C3405 0.950 . S
C3376 H3358 0.951 . S
C3376 C3377 1.366 . S
C3376 C3378 1.388 . S
C3377 C3376 1.366 . S
C3377 C3381 1.385 . S
C3378 H3359 0.951 . S
C3378 C3376 1.388 . S
C3378 C3379 1.366 . S
C3379 C3378 1.366 . S
C3379 C3380 1.414 . S
C3379 C3382 1.499 . S
C3380 H3360 0.950 . S
C3380 C3379 1.414 . S
C3380 C3381 1.374 . S
C3381 H3361 0.950 . S
C3381 C3377 1.385 . S
C3381 C3380 1.374 . S
C3382 C3379 1.499 . S
C3382 C3383 1.373 . S
C3382 C3384 1.389 . S
C3383 H3362 0.950 . S
C3383 C3382 1.373 . S
C3383 C3399 1.377 . S
C3384 C3382 1.389 . S
C3384 C3385 1.524 . S
C3384 C3398 1.377 . S
C3385 C3384 1.524 . S
C3385 C3386 1.397 . S
C3385 C3390 1.363 . S
C3386 H3363 0.950 . S
C3386 C3385 1.397 . S
C3386 C3387 1.334 . S
C3387 H3364 0.950 . S
C3387 C3386 1.334 . S
C3387 C3388 1.287 . S
C3388 C3387 1.287 . S
C3388 C3389 1.524 . S
C3388 H3407 0.913 . S
C3389 H3365 0.950 . S
C3389 C3388 1.524 . S
C3389 C3390 1.415 . S
C3390 H3366 0.950 . S
C3390 C3385 1.363 . S
C3390 C3389 1.415 . S
C3391 H3367 0.951 . S
C3391 C3392 1.366 . S
C3391 C3393 1.388 . S
C3392 C3391 1.366 . S
C3392 C3396 1.385 . S
C3393 H3368 0.951 . S
C3393 C3391 1.388 . S
C3393 C3394 1.366 . S
C3394 C3393 1.366 . S
C3394 C3395 1.414 . S
C3394 C3397 1.499 . S
C3395 H3369 0.950 . S
C3395 C3394 1.414 . S
C3395 C3396 1.374 . S
C3396 H3370 0.950 . S
C3396 C3392 1.385 . S
C3396 C3395 1.374 . S
C3397 C3394 1.499 . S
C3397 C3398 1.373 . S
C3397 C3399 1.389 . S
C3398 H3371 0.950 . S
C3398 C3384 1.377 . S
C3398 C3397 1.373 . S
C3399 C3383 1.377 . S
C3399 C3397 1.389 . S
C3399 C3400 1.524 . S
C3400 C3399 1.524 . S
C3400 C3401 1.397 . S
C3400 C3405 1.363 . S
C3401 H3372 0.950 . S
C3401 C3400 1.397 . S
C3401 C3402 1.334 . S
C3402 H3373 0.950 . S
C3402 C3401 1.334 . S
C3402 C3403 1.287 . S
C3403 C3402 1.287 . S
C3403 C3404 1.524 . S
C3403 H3406 0.999 . S
C3404 H3374 0.950 . S
C3404 C3403 1.524 . S
C3404 C3405 1.415 . S
C3405 H3375 0.950 . S
C3405 C3400 1.363 . S
C3405 C3404 1.415 . S
H3406 C3403 0.999 . S
H3407 C3388 0.913 . S
H3408 C3426 0.951 . S
H3409 C3428 0.951 . S
H3410 C3430 0.950 . S
H3411 C3431 0.950 . S
H3412 C3433 0.950 . S
H3413 C3436 0.950 . S
H3414 C3437 0.950 . S
H3415 C3439 0.950 . S
H3416 C3440 0.950 . S
H3417 C3441 0.951 . S
H3418 C3443 0.951 . S
H3419 C3445 0.950 . S
H3420 C3446 0.950 . S
H3421 C3448 0.950 . S
H3422 C3451 0.950 . S
H3423 C3452 0.950 . S
H3424 C3454 0.950 . S
H3425 C3455 0.950 . S
C3426 H3408 0.951 . S
C3426 C3427 1.366 . S
C3426 C3428 1.388 . S
C3427 C3426 1.366 . S
C3427 C3431 1.385 . S
C3428 H3409 0.951 . S
C3428 C3426 1.388 . S
C3428 C3429 1.366 . S
C3429 C3428 1.366 . S
C3429 C3430 1.414 . S
C3429 C3432 1.499 . S
C3430 H3410 0.950 . S
C3430 C3429 1.414 . S
C3430 C3431 1.374 . S
C3431 H3411 0.950 . S
C3431 C3427 1.385 . S
C3431 C3430 1.374 . S
C3432 C3429 1.499 . S
C3432 C3433 1.373 . S
C3432 C3434 1.389 . S
C3433 H3412 0.950 . S
C3433 C3432 1.373 . S
C3433 C3449 1.377 . S
C3434 C3432 1.389 . S
C3434 C3435 1.524 . S
C3434 C3448 1.377 . S
C3435 C3434 1.524 . S
C3435 C3436 1.397 . S
C3435 C3440 1.363 . S
C3436 H3413 0.950 . S
C3436 C3435 1.397 . S
C3436 C3437 1.334 . S
C3437 H3414 0.950 . S
C3437 C3436 1.334 . S
C3437 C3438 1.287 . S
C3438 C3437 1.287 . S
C3438 C3439 1.524 . S
C3438 H3457 0.913 . S
C3439 H3415 0.950 . S
C3439 C3438 1.524 . S
C3439 C3440 1.415 . S
C3440 H3416 0.950 . S
C3440 C3435 1.363 . S
C3440 C3439 1.415 . S
C3441 H3417 0.951 . S
C3441 C3442 1.366 . S
C3441 C3443 1.388 . S
C3442 C3441 1.366 . S
C3442 C3446 1.385 . S
C3443 H3418 0.951 . S
C3443 C3441 1.388 . S
C3443 C3444 1.366 . S
C3444 C3443 1.366 . S
C3444 C3445 1.414 . S
C3444 C3447 1.499 . S
C3445 H3419 0.950 . S
C3445 C3444 1.414 . S
C3445 C3446 1.374 . S
C3446 H3420 0.950 . S
C3446 C3442 1.385 . S
C3446 C3445 1.374 . S
C3447 C3444 1.499 . S
C3447 C3448 1.373 . S
C3447 C3449 1.389 . S
C3448 H3421 0.950 . S
C3448 C3434 1.377 . S
C3448 C3447 1.373 . S
C3449 C3433 1.377 . S
C3449 C3447 1.389 . S
C3449 C3450 1.524 . S
C3450 C3449 1.524 . S
C3450 C3451 1.397 . S
C3450 C3455 1.363 . S
C3451 H3422 0.950 . S
C3451 C3450 1.397 . S
C3451 C3452 1.334 . S
C3452 H3423 0.950 . S
C3452 C3451 1.334 . S
C3452 C3453 1.287 . S
C3453 C3452 1.287 . S
C3453 C3454 1.524 . S
C3453 H3456 0.999 . S
C3454 H3424 0.950 . S
C3454 C3453 1.524 . S
C3454 C3455 1.415 . S
C3455 H3425 0.950 . S
C3455 C3450 1.363 . S
C3455 C3454 1.415 . S
H3456 C3453 0.999 . S
H3457 C3438 0.913 . S
H3458 C3476 0.951 . S
H3459 C3478 0.951 . S
H3460 C3480 0.950 . S
H3461 C3481 0.950 . S
H3462 C3483 0.950 . S
H3463 C3486 0.950 . S
H3464 C3487 0.950 . S
H3465 C3489 0.950 . S
H3466 C3490 0.950 . S
H3467 C3491 0.951 . S
H3468 C3493 0.951 . S
H3469 C3495 0.950 . S
H3470 C3496 0.950 . S
H3471 C3498 0.950 . S
H3472 C3501 0.950 . S
H3473 C3502 0.950 . S
H3474 C3504 0.950 . S
H3475 C3505 0.950 . S
C3476 H3458 0.951 . S
C3476 C3477 1.366 . S
C3476 C3478 1.388 . S
C3477 C3476 1.366 . S
C3477 C3481 1.385 . S
C3478 H3459 0.951 . S
C3478 C3476 1.388 . S
C3478 C3479 1.366 . S
C3479 C3478 1.366 . S
C3479 C3480 1.414 . S
C3479 C3482 1.499 . S
C3480 H3460 0.950 . S
C3480 C3479 1.414 . S
C3480 C3481 1.374 . S
C3481 H3461 0.950 . S
C3481 C3477 1.385 . S
C3481 C3480 1.374 . S
C3482 C3479 1.499 . S
C3482 C3483 1.373 . S
C3482 C3484 1.389 . S
C3483 H3462 0.950 . S
C3483 C3482 1.373 . S
C3483 C3499 1.377 . S
C3484 C3482 1.389 . S
C3484 C3485 1.524 . S
C3484 C3498 1.377 . S
C3485 C3484 1.524 . S
C3485 C3486 1.397 . S
C3485 C3490 1.363 . S
C3486 H3463 0.950 . S
C3486 C3485 1.397 . S
C3486 C3487 1.334 . S
C3487 H3464 0.950 . S
C3487 C3486 1.334 . S
C3487 C3488 1.287 . S
C3488 C3487 1.287 . S
C3488 C3489 1.524 . S
C3488 H3507 0.913 . S
C3489 H3465 0.950 . S
C3489 C3488 1.524 . S
C3489 C3490 1.415 . S
C3490 H3466 0.950 . S
C3490 C3485 1.363 . S
C3490 C3489 1.415 . S
C3491 H3467 0.951 . S
C3491 C3492 1.366 . S
C3491 C3493 1.388 . S
C3492 C3491 1.366 . S
C3492 C3496 1.385 . S
C3493 H3468 0.951 . S
C3493 C3491 1.388 . S
C3493 C3494 1.366 . S
C3494 C3493 1.366 . S
C3494 C3495 1.414 . S
C3494 C3497 1.499 . S
C3495 H3469 0.950 . S
C3495 C3494 1.414 . S
C3495 C3496 1.374 . S
C3496 H3470 0.950 . S
C3496 C3492 1.385 . S
C3496 C3495 1.374 . S
C3497 C3494 1.499 . S
C3497 C3498 1.373 . S
C3497 C3499 1.389 . S
C3498 H3471 0.950 . S
C3498 C3484 1.377 . S
C3498 C3497 1.373 . S
C3499 C3483 1.377 . S
C3499 C3497 1.389 . S
C3499 C3500 1.524 . S
C3500 C3499 1.524 . S
C3500 C3501 1.397 . S
C3500 C3505 1.363 . S
C3501 H3472 0.950 . S
C3501 C3500 1.397 . S
C3501 C3502 1.334 . S
C3502 H3473 0.950 . S
C3502 C3501 1.334 . S
C3502 C3503 1.287 . S
C3503 C3502 1.287 . S
C3503 C3504 1.524 . S
C3503 H3506 0.999 . S
C3504 H3474 0.950 . S
C3504 C3503 1.524 . S
C3504 C3505 1.415 . S
C3505 H3475 0.950 . S
C3505 C3500 1.363 . S
C3505 C3504 1.415 . S
H3506 C3503 0.999 . S
H3507 C3488 0.913 . S
H3508 C3526 0.951 . S
H3509 C3528 0.951 . S
H3510 C3530 0.950 . S
H3511 C3531 0.950 . S
H3512 C3533 0.950 . S
H3513 C3536 0.950 . S
H3514 C3537 0.950 . S
H3515 C3539 0.950 . S
H3516 C3540 0.950 . S
H3517 C3541 0.951 . S
H3518 C3543 0.951 . S
H3519 C3545 0.950 . S
H3520 C3546 0.950 . S
H3521 C3548 0.950 . S
H3522 C3551 0.950 . S
H3523 C3552 0.950 . S
H3524 C3554 0.950 . S
H3525 C3555 0.950 . S
C3526 H3508 0.951 . S
C3526 C3527 1.366 . S
C3526 C3528 1.388 . S
C3527 C3526 1.366 . S
C3527 C3531 1.385 . S
C3528 H3509 0.951 . S
C3528 C3526 1.388 . S
C3528 C3529 1.366 . S
C3529 C3528 1.366 . S
C3529 C3530 1.414 . S
C3529 C3532 1.499 . S
C3530 H3510 0.950 . S
C3530 C3529 1.414 . S
C3530 C3531 1.374 . S
C3531 H3511 0.950 . S
C3531 C3527 1.385 . S
C3531 C3530 1.374 . S
C3532 C3529 1.499 . S
C3532 C3533 1.373 . S
C3532 C3534 1.389 . S
C3533 H3512 0.950 . S
C3533 C3532 1.373 . S
C3533 C3549 1.377 . S
C3534 C3532 1.389 . S
C3534 C3535 1.524 . S
C3534 C3548 1.377 . S
C3535 C3534 1.524 . S
C3535 C3536 1.397 . S
C3535 C3540 1.363 . S
C3536 H3513 0.950 . S
C3536 C3535 1.397 . S
C3536 C3537 1.334 . S
C3537 H3514 0.950 . S
C3537 C3536 1.334 . S
C3537 C3538 1.287 . S
C3538 C3537 1.287 . S
C3538 C3539 1.524 . S
C3538 H3557 0.913 . S
C3539 H3515 0.950 . S
C3539 C3538 1.524 . S
C3539 C3540 1.415 . S
C3540 H3516 0.950 . S
C3540 C3535 1.363 . S
C3540 C3539 1.415 . S
C3541 H3517 0.951 . S
C3541 C3542 1.366 . S
C3541 C3543 1.388 . S
C3542 C3541 1.366 . S
C3542 C3546 1.385 . S
C3543 H3518 0.951 . S
C3543 C3541 1.388 . S
C3543 C3544 1.366 . S
C3544 C3543 1.366 . S
C3544 C3545 1.414 . S
C3544 C3547 1.499 . S
C3545 H3519 0.950 . S
C3545 C3544 1.414 . S
C3545 C3546 1.374 . S
C3546 H3520 0.950 . S
C3546 C3542 1.385 . S
C3546 C3545 1.374 . S
C3547 C3544 1.499 . S
C3547 C3548 1.373 . S
C3547 C3549 1.389 . S
C3548 H3521 0.950 . S
C3548 C3534 1.377 . S
C3548 C3547 1.373 . S
C3549 C3533 1.377 . S
C3549 C3547 1.389 . S
C3549 C3550 1.524 . S
C3550 C3549 1.524 . S
C3550 C3551 1.397 . S
C3550 C3555 1.363 . S
C3551 H3522 0.950 . S
C3551 C3550 1.397 . S
C3551 C3552 1.334 . S
C3552 H3523 0.950 . S
C3552 C3551 1.334 . S
C3552 C3553 1.287 . S
C3553 C3552 1.287 . S
C3553 C3554 1.524 . S
C3553 H3556 0.999 . S
C3554 H3524 0.950 . S
C3554 C3553 1.524 . S
C3554 C3555 1.415 . S
C3555 H3525 0.950 . S
C3555 C3550 1.363 . S
C3555 C3554 1.415 . S
H3556 C3553 0.999 . S
H3557 C3538 0.913 . S
H3558 C3576 0.951 . S
H3559 C3578 0.951 . S
H3560 C3580 0.950 . S
H3561 C3581 0.950 . S
H3562 C3583 0.950 . S
H3563 C3586 0.950 . S
H3564 C3587 0.950 . S
H3565 C3589 0.950 . S
H3566 C3590 0.950 . S
H3567 C3591 0.951 . S
H3568 C3593 0.951 . S
H3569 C3595 0.950 . S
H3570 C3596 0.950 . S
H3571 C3598 0.950 . S
H3572 C3601 0.950 . S
H3573 C3602 0.950 . S
H3574 C3604 0.950 . S
H3575 C3605 0.950 . S
C3576 H3558 0.951 . S
C3576 C3577 1.366 . S
C3576 C3578 1.388 . S
C3577 C3576 1.366 . S
C3577 C3581 1.385 . S
C3578 H3559 0.951 . S
C3578 C3576 1.388 . S
C3578 C3579 1.366 . S
C3579 C3578 1.366 . S
C3579 C3580 1.414 . S
C3579 C3582 1.499 . S
C3580 H3560 0.950 . S
C3580 C3579 1.414 . S
C3580 C3581 1.374 . S
C3581 H3561 0.950 . S
C3581 C3577 1.385 . S
C3581 C3580 1.374 . S
C3582 C3579 1.499 . S
C3582 C3583 1.373 . S
C3582 C3584 1.389 . S
C3583 H3562 0.950 . S
C3583 C3582 1.373 . S
C3583 C3599 1.377 . S
C3584 C3582 1.389 . S
C3584 C3585 1.524 . S
C3584 C3598 1.377 . S
C3585 C3584 1.524 . S
C3585 C3586 1.397 . S
C3585 C3590 1.363 . S
C3586 H3563 0.950 . S
C3586 C3585 1.397 . S
C3586 C3587 1.334 . S
C3587 H3564 0.950 . S
C3587 C3586 1.334 . S
C3587 C3588 1.287 . S
C3588 C3587 1.287 . S
C3588 C3589 1.524 . S
C3588 H3607 0.913 . S
C3589 H3565 0.950 . S
C3589 C3588 1.524 . S
C3589 C3590 1.415 . S
C3590 H3566 0.950 . S
C3590 C3585 1.363 . S
C3590 C3589 1.415 . S
C3591 H3567 0.951 . S
C3591 C3592 1.366 . S
C3591 C3593 1.388 . S
C3592 C3591 1.366 . S
C3592 C3596 1.385 . S
C3593 H3568 0.951 . S
C3593 C3591 1.388 . S
C3593 C3594 1.366 . S
C3594 C3593 1.366 . S
C3594 C3595 1.414 . S
C3594 C3597 1.499 . S
C3595 H3569 0.950 . S
C3595 C3594 1.414 . S
C3595 C3596 1.374 . S
C3596 H3570 0.950 . S
C3596 C3592 1.385 . S
C3596 C3595 1.374 . S
C3597 C3594 1.499 . S
C3597 C3598 1.373 . S
C3597 C3599 1.389 . S
C3598 H3571 0.950 . S
C3598 C3584 1.377 . S
C3598 C3597 1.373 . S
C3599 C3583 1.377 . S
C3599 C3597 1.389 . S
C3599 C3600 1.524 . S
C3600 C3599 1.524 . S
C3600 C3601 1.397 . S
C3600 C3605 1.363 . S
C3601 H3572 0.950 . S
C3601 C3600 1.397 . S
C3601 C3602 1.334 . S
C3602 H3573 0.950 . S
C3602 C3601 1.334 . S
C3602 C3603 1.287 . S
C3603 C3602 1.287 . S
C3603 C3604 1.524 . S
C3603 H3606 0.999 . S
C3604 H3574 0.950 . S
C3604 C3603 1.524 . S
C3604 C3605 1.415 . S
C3605 H3575 0.950 . S
C3605 C3600 1.363 . S
C3605 C3604 1.415 . S
H3606 C3603 0.999 . S
H3607 C3588 0.913 . S
H3608 C3626 0.951 . S
H3609 C3628 0.951 . S
H3610 C3630 0.950 . S
H3611 C3631 0.950 . S
H3612 C3633 0.950 . S
H3613 C3636 0.950 . S
H3614 C3637 0.950 . S
H3615 C3639 0.950 . S
H3616 C3640 0.950 . S
H3617 C3641 0.951 . S
H3618 C3643 0.951 . S
H3619 C3645 0.950 . S
H3620 C3646 0.950 . S
H3621 C3648 0.950 . S
H3622 C3651 0.950 . S
H3623 C3652 0.950 . S
H3624 C3654 0.950 . S
H3625 C3655 0.950 . S
C3626 H3608 0.951 . S
C3626 C3627 1.366 . S
C3626 C3628 1.388 . S
C3627 C3626 1.366 . S
C3627 C3631 1.385 . S
C3628 H3609 0.951 . S
C3628 C3626 1.388 . S
C3628 C3629 1.366 . S
C3629 C3628 1.366 . S
C3629 C3630 1.414 . S
C3629 C3632 1.499 . S
C3630 H3610 0.950 . S
C3630 C3629 1.414 . S
C3630 C3631 1.374 . S
C3631 H3611 0.950 . S
C3631 C3627 1.385 . S
C3631 C3630 1.374 . S
C3632 C3629 1.499 . S
C3632 C3633 1.373 . S
C3632 C3634 1.389 . S
C3633 H3612 0.950 . S
C3633 C3632 1.373 . S
C3633 C3649 1.377 . S
C3634 C3632 1.389 . S
C3634 C3635 1.524 . S
C3634 C3648 1.377 . S
C3635 C3634 1.524 . S
C3635 C3636 1.397 . S
C3635 C3640 1.363 . S
C3636 H3613 0.950 . S
C3636 C3635 1.397 . S
C3636 C3637 1.334 . S
C3637 H3614 0.950 . S
C3637 C3636 1.334 . S
C3637 C3638 1.287 . S
C3638 C3637 1.287 . S
C3638 C3639 1.524 . S
C3638 H3657 0.913 . S
C3639 H3615 0.950 . S
C3639 C3638 1.524 . S
C3639 C3640 1.415 . S
C3640 H3616 0.950 . S
C3640 C3635 1.363 . S
C3640 C3639 1.415 . S
C3641 H3617 0.951 . S
C3641 C3642 1.366 . S
C3641 C3643 1.388 . S
C3642 C3641 1.366 . S
C3642 C3646 1.385 . S
C3643 H3618 0.951 . S
C3643 C3641 1.388 . S
C3643 C3644 1.366 . S
C3644 C3643 1.366 . S
C3644 C3645 1.414 . S
C3644 C3647 1.499 . S
C3645 H3619 0.950 . S
C3645 C3644 1.414 . S
C3645 C3646 1.374 . S
C3646 H3620 0.950 . S
C3646 C3642 1.385 . S
C3646 C3645 1.374 . S
C3647 C3644 1.499 . S
C3647 C3648 1.373 . S
C3647 C3649 1.389 . S
C3648 H3621 0.950 . S
C3648 C3634 1.377 . S
C3648 C3647 1.373 . S
C3649 C3633 1.377 . S
C3649 C3647 1.389 . S
C3649 C3650 1.524 . S
C3650 C3649 1.524 . S
C3650 C3651 1.397 . S
C3650 C3655 1.363 . S
C3651 H3622 0.950 . S
C3651 C3650 1.397 . S
C3651 C3652 1.334 . S
C3652 H3623 0.950 . S
C3652 C3651 1.334 . S
C3652 C3653 1.287 . S
C3653 C3652 1.287 . S
C3653 C3654 1.524 . S
C3653 H3656 0.999 . S
C3654 H3624 0.950 . S
C3654 C3653 1.524 . S
C3654 C3655 1.415 . S
C3655 H3625 0.950 . S
C3655 C3650 1.363 . S
C3655 C3654 1.415 . S
H3656 C3653 0.999 . S
H3657 C3638 0.913 . S
H3658 C3676 0.951 . S
H3659 C3678 0.951 . S
H3660 C3680 0.950 . S
H3661 C3681 0.950 . S
H3662 C3683 0.950 . S
H3663 C3686 0.950 . S
H3664 C3687 0.950 . S
H3665 C3689 0.950 . S
H3666 C3690 0.950 . S
H3667 C3691 0.951 . S
H3668 C3693 0.951 . S
H3669 C3695 0.950 . S
H3670 C3696 0.950 . S
H3671 C3698 0.950 . S
H3672 C3701 0.950 . S
H3673 C3702 0.950 . S
H3674 C3704 0.950 . S
H3675 C3705 0.950 . S
C3676 H3658 0.951 . S
C3676 C3677 1.366 . S
C3676 C3678 1.388 . S
C3677 C3676 1.366 . S
C3677 C3681 1.385 . S
C3678 H3659 0.951 . S
C3678 C3676 1.388 . S
C3678 C3679 1.366 . S
C3679 C3678 1.366 . S
C3679 C3680 1.414 . S
C3679 C3682 1.499 . S
C3680 H3660 0.950 . S
C3680 C3679 1.414 . S
C3680 C3681 1.374 . S
C3681 H3661 0.950 . S
C3681 C3677 1.385 . S
C3681 C3680 1.374 . S
C3682 C3679 1.499 . S
C3682 C3683 1.373 . S
C3682 C3684 1.389 . S
C3683 H3662 0.950 . S
C3683 C3682 1.373 . S
C3683 C3699 1.377 . S
C3684 C3682 1.389 . S
C3684 C3685 1.524 . S
C3684 C3698 1.377 . S
C3685 C3684 1.524 . S
C3685 C3686 1.397 . S
C3685 C3690 1.363 . S
C3686 H3663 0.950 . S
C3686 C3685 1.397 . S
C3686 C3687 1.334 . S
C3687 H3664 0.950 . S
C3687 C3686 1.334 . S
C3687 C3688 1.287 . S
C3688 C3687 1.287 . S
C3688 C3689 1.524 . S
C3688 H3707 0.913 . S
C3689 H3665 0.950 . S
C3689 C3688 1.524 . S
C3689 C3690 1.415 . S
C3690 H3666 0.950 . S
C3690 C3685 1.363 . S
C3690 C3689 1.415 . S
C3691 H3667 0.951 . S
C3691 C3692 1.366 . S
C3691 C3693 1.388 . S
C3692 C3691 1.366 . S
C3692 C3696 1.385 . S
C3693 H3668 0.951 . S
C3693 C3691 1.388 . S
C3693 C3694 1.366 . S
C3694 C3693 1.366 . S
C3694 C3695 1.414 . S
C3694 C3697 1.499 . S
C3695 H3669 0.950 . S
C3695 C3694 1.414 . S
C3695 C3696 1.374 . S
C3696 H3670 0.950 . S
C3696 C3692 1.385 . S
C3696 C3695 1.374 . S
C3697 C3694 1.499 . S
C3697 C3698 1.373 . S
C3697 C3699 1.389 . S
C3698 H3671 0.950 . S
C3698 C3684 1.377 . S
C3698 C3697 1.373 . S
C3699 C3683 1.377 . S
C3699 C3697 1.389 . S
C3699 C3700 1.524 . S
C3700 C3699 1.524 . S
C3700 C3701 1.397 . S
C3700 C3705 1.363 . S
C3701 H3672 0.950 . S
C3701 C3700 1.397 . S
C3701 C3702 1.334 . S
C3702 H3673 0.950 . S
C3702 C3701 1.334 . S
C3702 C3703 1.287 . S
C3703 C3702 1.287 . S
C3703 C3704 1.524 . S
C3703 H3706 0.999 . S
C3704 H3674 0.950 . S
C3704 C3703 1.524 . S
C3704 C3705 1.415 . S
C3705 H3675 0.950 . S
C3705 C3700 1.363 . S
C3705 C3704 1.415 . S
H3706 C3703 0.999 . S
H3707 C3688 0.913 . S
C1027 C469 1.653 . S
C1042 C657 1.624 . S
C1077 C505 1.815 . S
C1092 C697 1.784 . S
C1127 C433 1.731 . S
C1142 C736 1.708 . S
C1177 C397 1.551 . S
C1192 C696 1.522 . S
C1242 C737 1.415 . S
C1227 C325 1.433 . S
C1277 C361 1.351 . S
C1292 C656 1.371 . S
C1342 C667 1.624 . S
C1327 C421 1.658 . S
C1392 C707 1.784 . S
C1377 C349 1.813 . S
C1427 C385 1.725 . S
C1442 C746 1.710 . S
C1477 C493 1.546 . S
C1492 C706 1.522 . S
C1527 C529 1.439 . S
C1542 C747 1.415 . S
C1592 C666 1.350 . S
C1577 C457 1.354 . S
C1642 C777 1.624 . S
C1627 C37 1.652 . S
C1677 C73 1.815 . S
C1692 C817 1.785 . S
C1727 C1 1.731 . S
C1742 C856 1.709 . S
C1777 C613 1.551 . S
C1792 C816 1.523 . S
C1827 C541 1.435 . S
C1842 C857 1.417 . S
C1877 C577 1.352 . S
C1892 C776 1.349 . S
C1927 C637 1.659 . S
C1942 C787 1.625 . S
C1977 C565 1.812 . S
C1992 C827 1.785 . S
C2042 C866 1.710 . S
C2027 C601 1.725 . S
C2077 C61 1.546 . S
C2092 C826 1.521 . S
C2142 C867 1.415 . S
C2127 C97 1.439 . S
C2177 C25 1.355 . S
C2192 C786 1.351 . S
C2242 C897 1.625 . S
C2227 C253 1.653 . S
C2277 C289 1.816 . S
C2292 C937 1.787 . S
C2342 C976 1.709 . S
C2327 C217 1.731 . S
C2392 C936 1.521 . S
C2377 C181 1.549 . S
C2442 C977 1.415 . S
C2427 C109 1.434 . S
C2477 C145 1.352 . S
C2492 C896 1.349 . S
C2527 C205 1.657 . S
C2542 C907 1.624 . S
C2577 C133 1.812 . S
C2592 C947 1.784 . S
C2642 C986 1.710 . S
C2627 C169 1.726 . S
C2677 C277 1.548 . S
C2692 C946 1.524 . S
C2727 C313 1.440 . S
C2742 C987 1.416 . S
C2777 C241 1.355 . S
C2792 C906 1.351 . S
C2827 C571 1.265 . S
C2842 C653 1.261 . S
C2892 C693 1.905 . S
C2877 C607 1.903 . S
C2927 C643 1.578 . S
C2942 C743 1.583 . S
C2977 C247 1.901 . S
C2992 C703 1.903 . S
C3027 C283 1.581 . S
C3042 C733 1.583 . S
C3092 C663 1.261 . S
C3077 C319 1.264 . S
C3127 C139 1.265 . S
C3142 C773 1.261 . S
C3177 C175 1.903 . S
C3192 C813 1.905 . S
C3227 C211 1.578 . S
C3242 C863 1.583 . S
C3277 C463 1.901 . S
C3292 C823 1.903 . S
C3342 C853 1.583 . S
C3327 C499 1.581 . S
C3377 C535 1.263 . S
C3392 C783 1.260 . S
C3427 C355 1.265 . S
C3442 C893 1.261 . S
C3477 C391 1.904 . S
C3492 C933 1.905 . S
C3542 C983 1.582 . S
C3527 C427 1.577 . S
C3577 C31 1.900 . S
C3592 C943 1.902 . S
C3627 C67 1.582 . S
C3642 C973 1.584 . S
C3677 C103 1.263 . S
C3692 C903 1.260 . S
