# Generated by pormake.
# Topology zzz, (3,6)-cn, num edge types: 1
# Building blocks:
#     Node 0, Type 0, BuildingBlock: QEWDON_clean_linker_0, # of connection points: 3
#     Node 1, Type 0, BuildingBlock: QEWDON_clean_linker_0, # of connection points: 3
#     Node 2, Type 0, BuildingBlock: QEWDON_clean_linker_0, # of connection points: 3
#     Node 3, Type 0, BuildingBlock: QEWDON_clean_linker_0, # of connection points: 3
#     Node 4, Type 0, BuildingBlock: QEWDON_clean_linker_0, # of connection points: 3
#     Node 5, Type 0, BuildingBlock: QEWDON_clean_linker_0, # of connection points: 3
#     Node 6, Type 0, BuildingBlock: QEWDON_clean_linker_0, # of connection points: 3
#     Node 7, Type 0, BuildingBlock: QEWDON_clean_linker_0, # of connection points: 3
#     Node 8, Type 1, BuildingBlock: INOVEN_clean_sbu_0, # of connection points: 6
#     Node 9, Type 1, BuildingBlock: INOVEN_clean_sbu_0, # of connection points: 6
#     Node 10, Type 1, BuildingBlock: INOVEN_clean_sbu_0, # of connection points: 6
#     Node 11, Type 1, BuildingBlock: INOVEN_clean_sbu_0, # of connection points: 6
#     Edge 12, Type (0, 1), BuildingBlock: KIFKEQ_clean_linker_1, # of connection points: 2
#     Edge 13, Type (0, 1), BuildingBlock: KIFKEQ_clean_linker_1, # of connection points: 2
#     Edge 14, Type (0, 1), BuildingBlock: KIFKEQ_clean_linker_1, # of connection points: 2
#     Edge 15, Type (0, 1), BuildingBlock: KIFKEQ_clean_linker_1, # of connection points: 2
#     Edge 16, Type (0, 1), BuildingBlock: KIFKEQ_clean_linker_1, # of connection points: 2
#     Edge 17, Type (0, 1), BuildingBlock: KIFKEQ_clean_linker_1, # of connection points: 2
#     Edge 18, Type (0, 1), BuildingBlock: KIFKEQ_clean_linker_1, # of connection points: 2
#     Edge 19, Type (0, 1), BuildingBlock: KIFKEQ_clean_linker_1, # of connection points: 2
#     Edge 20, Type (0, 1), BuildingBlock: KIFKEQ_clean_linker_1, # of connection points: 2
#     Edge 21, Type (0, 1), BuildingBlock: KIFKEQ_clean_linker_1, # of connection points: 2
#     Edge 22, Type (0, 1), BuildingBlock: KIFKEQ_clean_linker_1, # of connection points: 2
#     Edge 23, Type (0, 1), BuildingBlock: KIFKEQ_clean_linker_1, # of connection points: 2
#     Edge 24, Type (0, 1), BuildingBlock: KIFKEQ_clean_linker_1, # of connection points: 2
#     Edge 25, Type (0, 1), BuildingBlock: KIFKEQ_clean_linker_1, # of connection points: 2
#     Edge 26, Type (0, 1), BuildingBlock: KIFKEQ_clean_linker_1, # of connection points: 2
#     Edge 27, Type (0, 1), BuildingBlock: KIFKEQ_clean_linker_1, # of connection points: 2
#     Edge 28, Type (0, 1), BuildingBlock: KIFKEQ_clean_linker_1, # of connection points: 2
#     Edge 29, Type (0, 1), BuildingBlock: KIFKEQ_clean_linker_1, # of connection points: 2
#     Edge 30, Type (0, 1), BuildingBlock: KIFKEQ_clean_linker_1, # of connection points: 2
#     Edge 31, Type (0, 1), BuildingBlock: KIFKEQ_clean_linker_1, # of connection points: 2
#     Edge 32, Type (0, 1), BuildingBlock: KIFKEQ_clean_linker_1, # of connection points: 2
#     Edge 33, Type (0, 1), BuildingBlock: KIFKEQ_clean_linker_1, # of connection points: 2
#     Edge 34, Type (0, 1), BuildingBlock: KIFKEQ_clean_linker_1, # of connection points: 2
#     Edge 35, Type (0, 1), BuildingBlock: KIFKEQ_clean_linker_1, # of connection points: 2
# Relax obj value: 0.164
# Max RMSD: 0.168
# Mean RMSD: 0.121
data_MOF--net-zzz--node1-INOVEN_clean_sbu_0--node2-QEWDON_clean_linker_0--edge1-KIFKEQ_clean_linker_1
_symmetry_space_group_name_H-M    P1
_symmetry_Int_Tables_number       1
_symmetry_cell_setting            triclinic
loop_
_symmetry_equiv_pos_as_xyz
'x, y, z'
_cell_length_a     56.888601
_cell_length_b     56.738327
_cell_length_c     12.984794
_cell_angle_alpha  89.99268
_cell_angle_beta   90.152288
_cell_angle_gamma 89.826702
loop_
_atom_site_label
_atom_site_type_symbol
_atom_site_fract_x
_atom_site_fract_y
_atom_site_fract_z
_atom_type_partial_charge
H0 H 0.75564 0.49794 0.22424 0.0
C1 C 0.77006 0.50304 0.27385 0.0
C2 C 0.7925 0.49476 0.24964 0.0
C3 C 0.76626 0.51715 0.36176 0.0
H4 H 0.82903 0.49414 0.29308 0.0
C5 C 0.81155 0.5002 0.31369 0.0
C6 C 0.80881 0.51437 0.40067 0.0
C7 C 0.78611 0.52313 0.42435 0.0
C8 C 0.74145 0.52407 0.38974 0.0
H9 H 0.78405 0.53434 0.49115 0.0
C10 C 0.72338 0.52631 0.31394 0.0
C11 C 0.69954 0.52915 0.34243 0.0
C12 C 0.73507 0.52625 0.49398 0.0
H13 H 0.74796 0.52423 0.5548 0.0
C14 C 0.71169 0.52999 0.52209 0.0
H15 H 0.72756 0.52518 0.23285 0.0
C16 C 0.69405 0.53111 0.44739 0.0
H17 H 0.676 0.53352 0.47178 0.0
H18 H 0.70711 0.53144 0.60272 0.0
H19 H 0.05643 0.75695 0.20946 0.0
C20 C 0.04958 0.7709 0.25771 0.0
C21 C 0.06056 0.79293 0.25418 0.0
C22 C 0.03043 0.76693 0.32461 0.0
H23 H 0.06118 0.82833 0.31306 0.0
C24 C 0.05276 0.8112 0.31776 0.0
C25 C 0.03356 0.80834 0.383 0.0
C26 C 0.0221 0.78627 0.38529 0.0
C27 C 0.02023 0.74246 0.33477 0.0
H28 H 1.00697 0.78428 0.43483 0.0
C29 C 0.02131 0.72551 0.25368 0.0
C30 C 1.01327 0.70205 0.268 0.0
C31 C 1.01057 0.73532 0.42945 0.0
H32 H 1.00999 0.74712 0.49482 0.0
C33 C 1.00226 0.71247 0.44334 0.0
H34 H 0.02813 0.73047 0.17913 0.0
C35 C 1.0037 0.69598 0.36412 0.0
H36 H 0.9978 0.67821 0.37951 0.0
H37 H 0.9951 0.70732 0.51713 0.0
H38 H 0.78782 0.0565 0.21774 0.0
C39 C 0.77393 0.05002 0.26666 0.0
C40 C 0.75235 0.06199 0.26482 0.0
C41 C 0.77737 0.0303 0.33182 0.0
H42 H 0.71735 0.064 0.32609 0.0
C43 C 0.73412 0.05483 0.32943 0.0
C44 C 0.7364 0.03511 0.39262 0.0
C45 C 0.75784 0.02248 0.39201 0.0
C46 C 0.80134 1.01863 0.33992 0.0
H47 H 0.75906 1.00679 0.43897 0.0
C48 C 0.81889 1.02073 0.26183 0.0
C49 C 0.84178 1.01114 0.2756 0.0
C50 C 0.80739 1.00621 0.43029 0.0
H51 H 0.79539 1.00477 0.4943 0.0
C52 C 0.82946 0.99585 0.44196 0.0
H53 H 0.81512 0.03006 0.19115 0.0
C54 C 0.84643 0.99823 0.36583 0.0
H55 H 0.86337 0.98991 0.37812 0.0
H56 H 0.83358 0.98621 0.51168 0.0
H57 H 0.50305 0.78627 0.21051 0.0
C58 C 0.50517 0.77454 0.27555 0.0
C59 C 0.49107 0.75441 0.27938 0.0
C60 C 0.52237 0.77882 0.3519 0.0
H61 H 0.48423 0.72163 0.35599 0.0
C62 C 0.49443 0.73777 0.35745 0.0
C63 C 0.51223 0.74036 0.43078 0.0
C64 C 0.52596 0.76113 0.42907 0.0
C65 C 0.53712 0.80101 0.34665 0.0
H66 H 0.53917 0.76324 0.48825 0.0
C67 C 0.52934 0.82164 0.29328 0.0
C68 C 0.5437 0.84195 0.28586 0.0
C69 C 0.5596 0.80157 0.39245 0.0
H70 H 0.56697 0.78632 0.43057 0.0
C71 C 0.5735 0.82175 0.38758 0.0
H72 H 0.5121 0.82229 0.25822 0.0
C73 C 0.5657 0.84171 0.33499 0.0
H74 H 0.57728 0.85679 0.33014 0.0
H75 H 0.59073 0.82174 0.42323 0.0
H76 H 0.29005 0.55978 0.20686 0.0
C77 C 0.2769 0.55254 0.15557 0.0
C78 C 0.2547 0.56318 0.15254 0.0
C79 C 0.28219 0.53329 0.09043 0.0
H80 H 0.2202 0.56298 0.08463 0.0
C81 C 0.2375 0.5548 0.08496 0.0
C82 C 0.24168 0.53554 0.02105 0.0
C83 C 0.26402 0.52453 0.02443 0.0
C84 C 0.307 0.52381 0.08655 0.0
H85 H 0.26717 0.50943 0.97536 0.0
C86 C 0.3225 0.52472 0.17304 0.0
C87 C 0.34652 0.51845 0.16332 0.0
C88 C 0.31607 0.51554 0.99236 0.0
H89 H 0.30527 0.51501 0.92368 0.0
C90 C 0.33958 0.50878 0.9836 0.0
H91 H 0.3162 0.53072 0.24715 0.0
C92 C 0.35473 0.51045 0.06778 0.0
H93 H 0.37301 0.50548 0.05828 0.0
H94 H 0.34624 0.50266 0.91025 0.0
H95 H 0.0633 0.29206 0.19564 0.0
C96 C 0.05835 0.27836 0.14202 0.0
C97 C 0.06627 0.25551 0.16235 0.0
C98 C 0.044 0.28322 0.05565 0.0
H99 H 0.06655 0.21938 0.11193 0.0
C100 C 0.06095 0.23723 0.09394 0.0
C101 C 0.04647 0.24095 0.00869 0.0
C102 C 0.03771 0.26395 0.98995 0.0
C103 C 0.03589 0.30825 0.03559 0.0
H104 H 0.02583 0.26653 0.92573 0.0
C105 C 0.0346 0.32549 0.11555 0.0
C106 C 0.02866 0.34927 0.09444 0.0
C107 C 0.03046 0.31555 0.93462 0.0
H108 H 0.03178 0.30353 0.87027 0.0
C109 C 0.02393 0.33881 0.91389 0.0
H110 H 0.03789 0.32064 0.19478 0.0
C111 C 0.02311 0.35552 0.99257 0.0
H112 H 1.0187 0.37356 0.97296 0.0
H113 H 1.01994 0.34405 0.83559 0.0
H114 H 0.25197 0.98736 0.20126 0.0
C115 C 0.26645 0.99362 0.15492 0.0
C116 C 0.28818 0.98225 0.16469 0.0
C117 C 0.26339 1.01253 0.08557 0.0
H118 H 0.32417 0.98114 0.11374 0.0
C119 C 0.30712 0.98948 0.10369 0.0
C120 C 0.30509 1.00832 0.035 0.0
C121 C 0.28319 1.02011 0.02674 0.0
C122 C 0.23921 0.02305 0.07152 0.0
H123 H 0.28165 0.03489 0.97442 0.0
C124 C 0.22234 0.02334 0.15255 0.0
C125 C 0.19873 0.03 0.1338 0.0
C126 C 0.23204 0.03088 0.97347 0.0
H127 H 0.24401 0.03059 0.90885 0.0
C128 C 0.20891 0.03817 0.95573 0.0
H129 H 0.22724 1.01782 0.22949 0.0
C130 C 0.19233 0.03744 0.03459 0.0
H131 H 0.17439 0.04272 0.01809 0.0
H132 H 0.20367 0.0439 0.87951 0.0
H133 H 0.50557 0.25749 0.26498 0.0
C134 C 0.50437 0.27005 0.20261 0.0
C135 C 0.49352 0.29161 0.22353 0.0
C136 C 0.51487 0.26551 0.10628 0.0
H137 H 0.48628 0.32664 0.16862 0.0
C138 C 0.49346 0.30946 0.1492 0.0
C139 C 0.50515 0.30663 0.05564 0.0
C140 C 0.51551 0.28445 0.03317 0.0
C141 C 0.5265 0.24175 0.08787 0.0
H142 H 0.52402 0.28237 0.95947 0.0
C143 C 0.52089 0.22145 0.14832 0.0
C144 C 0.53339 0.19992 0.13783 0.0
C145 C 0.54427 0.23929 0.01324 0.0
H146 H 0.54989 0.25398 0.9666 0.0
C147 C 0.55578 0.21781 0.99879 0.0
H148 H 0.50715 0.22228 0.20531 0.0
C149 C 0.55052 0.19839 0.06029 0.0
H150 H 0.56 0.18211 0.04682 0.0
H151 H 0.56927 0.21631 0.94047 0.0
Gd152 Gd 0.03384 1.01754 0.80901 0.0
Gd153 Gd 1.01028 0.02992 0.62146 0.0
C154 C 1.01794 0.97516 0.64897 0.0
C155 C 0.04863 0.99776 0.97602 0.0
C156 C 0.06023 0.97472 0.99172 0.0
C157 C 0.08315 0.97352 0.03216 0.0
C158 C 0.04939 0.95393 0.95748 0.0
C159 C 0.08451 0.93135 0.9984 0.0
C160 C 0.06146 0.93255 0.95995 0.0
C161 C 0.09515 0.95193 0.03628 0.0
C162 C 0.06463 0.02808 0.65539 0.0
C163 C 0.02676 0.0714 0.77686 0.0
C164 C 0.99969 0.05188 0.45479 0.0
C165 C 1.01027 0.07426 0.4205 0.0
C166 C 0.99738 0.09532 0.42886 0.0
C167 C 0.0345 0.07541 0.39948 0.0
C168 C 0.03328 0.11808 0.41055 0.0
C169 C 0.04587 0.09708 0.39486 0.0
C170 C 1.0088 0.11705 0.42419 0.0
C171 C 0.97953 1.01896 0.77358 0.0
O172 O 0.02541 0.98118 0.74211 0.0
O173 O 1.01196 0.99149 0.58155 0.0
O174 O 0.06096 1.01328 0.92545 0.0
O175 O 0.02659 0.99732 0.94667 0.0
O176 O 0.06715 0.0344 0.75051 0.0
O177 O 0.0461 1.01604 0.64598 0.0
O178 O 0.0259 0.06465 0.67947 0.0
O179 O 0.02588 0.05527 0.84966 0.0
O180 O 0.98689 0.05342 0.53801 0.0
O181 O 1.01366 0.03353 0.45608 0.0
O182 O 0.97727 1.01248 0.67831 0.0
O183 O 0.99787 0.03134 0.78424 0.0
H184 H 0.09188 0.98932 0.05902 0.0
H185 H 0.03163 0.95417 0.92738 0.0
H186 H 0.05256 0.91682 0.93327 0.0
H187 H 0.11279 0.95136 0.0678 0.0
H188 H 0.97871 0.09495 0.4451 0.0
H189 H 0.04504 0.05958 0.39273 0.0
H190 H 0.06475 0.09729 0.38426 0.0
H191 H 0.99856 0.13301 0.434 0.0
Gd192 Gd 0.52731 0.03702 0.81263 0.0
Gd193 Gd 0.51659 1.00865 0.63782 0.0
C194 C 0.57039 1.02011 0.65997 0.0
C195 C 0.54642 0.05692 0.97116 0.0
C196 C 0.56978 0.06763 0.98632 0.0
C197 C 0.57177 0.09088 0.02256 0.0
C198 C 0.59018 0.05536 0.95733 0.0
C199 C 0.61408 0.08964 0.99589 0.0
C200 C 0.61204 0.06632 0.96113 0.0
C201 C 0.59382 0.10175 0.02827 0.0
C202 C 0.5159 0.06334 0.6438 0.0
C203 C 0.47374 0.02477 0.79185 0.0
C204 C 0.49697 0.99034 0.47725 0.0
C205 C 0.47204 0.98536 0.45664 0.0
C206 C 0.46505 0.96295 0.4231 0.0
C207 C 0.45484 1.00205 0.48258 0.0
C208 C 0.42389 0.97357 0.44865 0.0
C209 C 0.43114 0.99618 0.47956 0.0
C210 C 0.44117 0.95713 0.41844 0.0
C211 C 0.52937 0.982 0.80229 0.0
O212 O 0.56407 0.02768 0.75248 0.0
O213 O 0.55424 1.01367 0.59288 0.0
O214 O 0.53256 0.06809 0.90744 0.0
O215 O 0.54588 0.03406 0.95795 0.0
O216 O 0.50805 0.06719 0.73577 0.0
O217 O 0.52911 0.0454 0.64494 0.0
O218 O 0.48009 1.01867 0.69752 0.0
O219 O 0.48994 0.03028 0.86026 0.0
O220 O 0.50641 0.9777 0.55053 0.0
O221 O 0.50279 1.01259 0.48314 0.0
O222 O 0.53671 0.97882 0.70891 0.0
O223 O 0.51571 0.99974 0.80576 0.0
H224 H 0.55626 0.10067 0.0454 0.0
H225 H 0.58926 0.03731 0.9309 0.0
H226 H 0.62748 0.05634 0.93872 0.0
H227 H 0.59504 0.11964 0.05688 0.0
H228 H 0.47808 0.94978 0.40292 0.0
H229 H 0.45964 1.01945 0.50955 0.0
H230 H 0.41863 1.00929 0.50546 0.0
H231 H 0.43634 0.93976 0.39146 0.0
Gd232 Gd 0.50729 0.53065 0.86068 0.0
Gd233 Gd 0.53213 0.51963 0.67835 0.0
C234 C 0.52321 0.57408 0.7072 0.0
C235 C 0.49026 0.54959 0.0245 0.0
C236 C 0.47545 0.57068 0.03143 0.0
C237 C 0.46413 0.57924 0.94261 0.0
C238 C 0.47479 0.58386 0.12225 0.0
C239 C 0.45347 0.61516 0.03286 0.0
C240 C 0.46386 0.60593 0.12309 0.0
C241 C 0.45317 0.60127 0.94338 0.0
C242 C 0.47746 0.52039 0.70209 0.0
C243 C 0.51622 0.47729 0.82826 0.0
C244 C 0.54442 0.49787 0.51429 0.0
C245 C 0.53485 0.47478 0.48406 0.0
C246 C 0.54939 0.45478 0.48805 0.0
C247 C 0.51036 0.47179 0.47583 0.0
C248 C 0.51501 0.42945 0.49002 0.0
C249 C 0.50056 0.44937 0.47893 0.0
C250 C 0.53955 0.43228 0.49132 0.0
C251 C 0.56198 0.53087 0.83434 0.0
O252 O 0.51509 0.56753 0.7983 0.0
O253 O 0.53013 0.55812 0.63997 0.0
O254 O 0.48059 0.53149 0.97915 0.0
O255 O 0.51169 0.55355 0.99278 0.0
O256 O 0.47465 0.51349 0.79611 0.0
O257 O 0.49582 0.53278 0.69618 0.0
O258 O 0.51675 0.48445 0.73157 0.0
O259 O 0.51691 0.49324 0.90177 0.0
O260 O 0.55718 0.49745 0.5981 0.0
O261 O 0.52962 0.51557 0.51263 0.0
O262 O 0.56445 0.53753 0.7395 0.0
O263 O 0.54386 0.51808 0.84288 0.0
H264 H 0.46466 0.56932 0.87131 0.0
H265 H 0.48368 0.57761 0.19098 0.0
H266 H 0.46484 0.61633 0.1929 0.0
H267 H 0.44522 0.60777 0.87299 0.0
H268 H 0.56828 0.45661 0.49537 0.0
H269 H 0.49855 0.48679 0.47393 0.0
H270 H 0.4816 0.44773 0.47781 0.0
H271 H 0.55111 0.41713 0.49729 0.0
Gd272 Gd 0.02248 0.51111 0.78034 0.0
Gd273 Gd 0.03382 0.53781 0.58254 0.0
C274 C 0.97922 0.5268 0.62537 0.0
C275 C 1.00254 0.49629 0.94534 0.0
C276 C 0.97719 0.4955 0.96633 0.0
C277 C 0.96676 0.47418 0.99537 0.0
C278 C 0.9628 0.51461 0.93812 0.0
C279 C 0.92799 0.49025 0.95604 0.0
C280 C 0.93851 0.512 0.93281 0.0
C281 C 0.94236 0.4716 0.9908 0.0
C282 C 0.035 0.48344 0.61881 0.0
C283 C 0.07613 0.52393 0.7466 0.0
C284 C 0.04995 0.54858 0.40399 0.0
C285 C 0.06908 0.56471 0.37612 0.0
C286 C 0.07484 0.58365 0.44111 0.0
C287 C 0.08366 0.55943 0.29257 0.0
C288 C 0.11084 0.59029 0.34578 0.0
C289 C 0.10436 0.57215 0.27725 0.0
C290 C 0.09552 0.59634 0.42606 0.0
C291 C 0.03005 0.57035 0.73714 0.0
O292 O 0.98604 0.51911 0.71704 0.0
O293 O 0.99468 0.53369 0.55554 0.0
O294 O 1.00933 0.48213 0.87178 0.0
O295 O 1.01198 0.51727 0.93848 0.0
O296 O 0.04183 0.48004 0.71322 0.0
O297 O 0.02185 0.50148 0.61439 0.0
O298 O 0.07005 0.52913 0.65028 0.0
O299 O 0.06015 0.51887 0.81678 0.0
O300 O 0.03103 0.55839 0.44268 0.0
O301 O 0.05675 0.52973 0.45458 0.0
O302 O 0.03443 0.57531 0.64214 0.0
O303 O 0.02763 0.5483 0.74442 0.0
H304 H 0.97756 0.45919 0.01687 0.0
H305 H 0.97035 0.53122 0.91395 0.0
H306 H 0.92819 0.52674 0.90485 0.0
H307 H 0.93485 0.45484 0.01292 0.0
H308 H 0.06393 0.58805 0.50636 0.0
H309 H 0.07966 0.54472 0.24233 0.0
H310 H 0.11597 0.56682 0.21547 0.0
H311 H 0.09994 0.61031 0.47949 0.0
H312 H 0.19624 0.05383 0.31735 0.0
H313 H 0.15904 1.00328 0.13158 0.0
H314 H 0.16384 0.05436 0.44028 0.0
H315 H 0.12729 1.00229 0.2568 0.0
H316 H 0.06281 1.01895 0.44773 0.0
H317 H 0.09496 1.01989 0.32389 0.0
H318 H 0.14332 0.03751 0.56974 0.0
H319 H 0.11081 0.03827 0.69048 0.0
C320 C 0.18129 0.04242 0.3042 0.0
C321 C 0.18022 0.02849 0.21503 0.0
C322 C 0.16261 0.04258 0.37501 0.0
C323 C 0.14246 0.0284 0.35988 0.0
C324 C 0.14191 1.01398 0.27131 0.0
C325 C 0.16034 1.01425 0.19963 0.0
C326 C 0.08031 0.02323 0.47472 0.0
C327 C 0.08416 0.02864 0.57893 0.0
C328 C 0.09897 0.02352 0.40379 0.0
C329 C 0.12222 0.02866 0.43537 0.0
C330 C 0.12588 0.03394 0.5404 0.0
C331 C 0.10714 0.03419 0.61055 0.0
H332 H 0.49183 0.18396 0.22538 0.0
H333 H 0.56625 0.16882 0.21479 0.0
H334 H 0.48628 0.15046 0.34126 0.0
H335 H 0.56059 0.13532 0.32813 0.0
H336 H 0.54118 0.064 0.46365 0.0
H337 H 0.54414 0.09608 0.33827 0.0
H338 H 0.49478 0.13721 0.5159 0.0
H339 H 0.49168 0.10504 0.64015 0.0
C340 C 0.50705 0.17365 0.24773 0.0
C341 C 0.52949 0.17929 0.20924 0.0
C342 C 0.50384 0.15431 0.31425 0.0
C343 C 0.52295 0.13991 0.34405 0.0
C344 C 0.54533 0.14556 0.30561 0.0
C345 C 0.54856 0.16492 0.23997 0.0
C346 C 0.53079 0.0798 0.47533 0.0
C347 C 0.51626 0.08193 0.56232 0.0
C348 C 0.53261 0.09832 0.40378 0.0
C349 C 0.51984 0.11948 0.4168 0.0
C350 C 0.50475 0.12123 0.50233 0.0
C351 C 0.50304 0.10277 0.57407 0.0
H352 H 0.38392 0.54809 0.17566 0.0
H353 H 0.34866 0.49316 0.34317 0.0
H354 H 0.41484 0.54923 0.30587 0.0
H355 H 0.38022 0.49301 0.47124 0.0
H356 H 0.43145 0.50865 0.73111 0.0
H357 H 0.39928 0.50973 0.60762 0.0
H358 H 0.44782 0.53134 0.36995 0.0
H359 H 0.47965 0.53165 0.49641 0.0
C360 C 0.38278 0.53632 0.24117 0.0
C361 C 0.36371 0.52075 0.24992 0.0
C362 C 0.40075 0.53666 0.31547 0.0
C363 C 0.40055 0.52104 0.40006 0.0
C364 C 0.38112 0.50566 0.40907 0.0
C365 C 0.3629 0.50566 0.33546 0.0
C366 C 0.43524 0.51367 0.6524 0.0
C367 C 0.45817 0.52013 0.62387 0.0
C368 C 0.41671 0.51412 0.58074 0.0
C369 C 0.42053 0.52063 0.47727 0.0
C370 C 0.44372 0.52674 0.44872 0.0
C371 C 0.46218 0.5267 0.52113 0.0
H372 H 0.0618 0.35647 0.2458 0.0
H373 H 0.99668 0.38488 0.12791 0.0
H374 H 0.06438 0.389 0.36812 0.0
H375 H 0.99876 0.41703 0.25179 0.0
H376 H 1.01849 0.48466 0.41943 0.0
H377 H 1.0173 0.4524 0.29461 0.0
H378 H 0.05015 0.40624 0.51781 0.0
H379 H 0.05218 0.43871 0.6397 0.0
C380 C 0.04778 0.36943 0.2472 0.0
C381 C 0.02906 0.36796 0.1765 0.0
C382 C 0.04923 0.38821 0.31763 0.0
C383 C 0.03186 0.40604 0.32048 0.0
C384 C 1.01284 0.40417 0.25114 0.0
C385 C 1.01153 0.38553 0.1802 0.0
C386 C 0.02565 0.46766 0.44118 0.0
C387 C 0.03545 0.46435 0.53964 0.0
C388 C 0.02477 0.44899 0.36992 0.0
C389 C 0.03348 0.42635 0.39532 0.0
C390 C 0.04355 0.42329 0.49376 0.0
C391 C 0.04462 0.44199 0.56438 0.0
H392 H 0.83995 1.01069 0.06192 0.0
H393 H 0.88831 1.0198 0.31545 0.0
H394 H 0.8727 1.01387 0.94097 0.0
H395 H 0.92092 0.02152 0.19634 0.0
H396 H 0.97495 0.04269 0.95712 0.0
H397 H 0.94128 0.043 0.07341 0.0
H398 H 0.90548 0.99334 0.87572 0.0
H399 H 0.93881 0.99387 0.75807 0.0
C400 C 0.85749 1.01346 0.09208 0.0
C401 C 0.86132 1.01468 0.19909 0.0
C402 C 0.87643 1.01496 0.02261 0.0
C403 C 0.89978 1.01775 0.05801 0.0
C404 C 0.90339 1.01961 0.16496 0.0
C405 C 0.88454 1.01825 0.23394 0.0
C406 C 0.9599 0.03181 0.93877 0.0
C407 C 0.95963 1.01825 0.84823 0.0
C408 C 0.94051 0.03189 0.00578 0.0
C409 C 0.92034 1.0182 0.98481 0.0
C410 C 0.9203 1.00449 0.89429 0.0
C411 C 0.93959 1.00459 0.82702 0.0
H412 H 0.52574 0.84293 0.08944 0.0
H413 H 0.54679 0.88883 0.3377 0.0
H414 H 0.52036 0.87723 0.97727 0.0
H415 H 0.54147 0.92313 0.22556 0.0
H416 H 0.51208 0.98122 1.00163 0.0
H417 H 0.51246 0.94782 0.12291 0.0
H418 H 0.54843 0.90529 0.89696 0.0
H419 H 0.54829 0.93833 0.77771 0.0
C420 C 0.52876 0.86036 0.12079 0.0
C421 C 0.53681 0.86303 0.2226 0.0
C422 C 0.52591 0.88005 0.05615 0.0
C423 C 0.53073 0.90302 0.09181 0.0
C424 C 0.53754 0.90579 0.19533 0.0
C425 C 0.5407 0.88607 0.25953 0.0
C426 C 0.52013 0.96474 0.97833 0.0
C427 C 0.53012 0.96251 0.87974 0.0
C428 C 0.52036 0.9456 0.04773 0.0
C429 C 0.53022 0.92368 0.01942 0.0
C430 C 0.54028 0.92166 0.92101 0.0
C431 C 0.54036 0.94076 0.85272 0.0
H432 H 0.66007 0.50195 0.34204 0.0
H433 H 0.69473 0.55624 0.1677 0.0
H434 H 0.62738 0.5023 0.22094 0.0
H435 H 0.66142 0.55779 0.04883 0.0
H436 H 0.60776 0.54237 0.79814 0.0
H437 H 0.64085 0.54131 0.91648 0.0
H438 H 0.59412 0.52063 0.16258 0.0
H439 H 0.56126 0.52028 0.04107 0.0
C440 C 0.66057 0.51414 0.27786 0.0
C441 C 0.68005 0.52905 0.2646 0.0
C442 C 0.64162 0.51455 0.20847 0.0
C443 C 0.64124 0.53023 0.12416 0.0
C444 C 0.66092 0.54511 0.11098 0.0
C445 C 0.68012 0.54435 0.17954 0.0
C446 C 0.60454 0.53759 0.87762 0.0
C447 C 0.58181 0.53133 0.9099 0.0
C448 C 0.62362 0.53716 0.94634 0.0
C449 C 0.62058 0.53089 0.05057 0.0
C450 C 0.5976 0.52505 0.08303 0.0
C451 C 0.57856 0.52506 0.01352 0.0
H452 H 0.04948 0.69465 0.13027 0.0
H453 H 0.98207 0.66661 0.21968 0.0
H454 H 0.05421 0.66234 0.00757 0.0
H455 H 0.98699 0.63422 0.09842 0.0
H456 H 1.0138 0.56631 0.9382 0.0
H457 H 1.01005 0.59806 0.06636 0.0
H458 H 0.0383 0.6476 0.847 0.0
H459 H 0.04214 0.61618 0.72109 0.0
C460 C 0.03552 0.68182 0.12313 0.0
C461 C 1.01543 0.6834 0.18592 0.0
C462 C 0.03828 0.66313 0.05294 0.0
C463 C 0.02108 0.64538 0.04336 0.0
C464 C 1.00086 0.64717 0.10494 0.0
C465 C 0.99803 0.66589 0.17455 0.0
C466 C 1.01934 0.58394 0.91804 0.0
C467 C 0.02828 0.58864 0.81938 0.0
C468 C 1.01706 0.60222 0.9911 0.0
C469 C 0.0239 0.62554 0.96745 0.0
C470 C 0.03313 0.62995 0.86905 0.0
C471 C 0.03519 0.61185 0.79634 0.0
H472 H 0.10859 0.23567 0.21575 0.0
H473 H 0.04219 0.2586 0.33941 0.0
H474 H 0.10945 0.20306 0.33757 0.0
H475 H 0.04177 0.22537 0.45417 0.0
H476 H 0.02609 0.15423 0.54565 0.0
H477 H 0.04585 0.19222 0.55085 0.0
H478 H 0.08709 0.17151 0.28557 0.0
H479 H 0.0687 0.13334 0.28674 0.0
C480 C 0.09487 0.23453 0.27325 0.0
C481 C 0.07475 0.24875 0.26537 0.0
C482 C 0.09504 0.21554 0.3417 0.0
C483 C 0.0747 0.21034 0.39894 0.0
C484 C 0.05742 0.22805 0.40862 0.0
C485 C 0.05767 0.24743 0.34268 0.0
C486 C 0.03983 0.15775 0.49029 0.0
C487 C 0.04581 0.14087 0.41566 0.0
C488 C 0.05118 0.17954 0.4931 0.0
C489 C 0.06805 0.18533 0.41823 0.0
C490 C 0.07469 0.16787 0.3465 0.0
C491 C 0.06383 0.14591 0.34577 0.0
H492 H 0.3084 0.93855 0.15348 0.0
H493 H 0.28007 0.98904 0.36843 0.0
H494 H 0.33732 0.92635 0.28077 0.0
H495 H 0.30873 0.97651 0.49641 0.0
H496 H 0.38703 1.0032 0.40755 0.0
H497 H 0.34601 0.99408 0.39661 0.0
H498 H 0.3607 0.92094 0.46243 0.0
H499 H 0.40251 0.9304 0.4826 0.0
C500 C 0.30722 0.94578 0.23054 0.0
C501 C 0.29302 0.9656 0.24973 0.0
C502 C 0.32375 0.93868 0.30396 0.0
C503 C 0.32598 0.95151 0.39587 0.0
C504 C 0.30768 0.96685 0.42457 0.0
C505 C 0.29124 0.97407 0.35095 0.0
C506 C 0.38177 0.98533 0.42484 0.0
C507 C 0.39839 0.96763 0.44649 0.0
C508 C 0.35801 0.98009 0.41879 0.0
C509 C 0.35007 0.95687 0.43117 0.0
C510 C 0.36638 0.93906 0.4546 0.0
C511 C 0.39034 0.94446 0.46385 0.0
H512 H 0.45095 0.30629 0.29743 0.0
H513 H 0.52278 0.29298 0.38654 0.0
H514 H 0.4478 0.3363 0.43096 0.0
H515 H 0.5205 0.32378 0.51357 0.0
H516 H 0.5275 0.39419 0.6234 0.0
H517 H 0.51257 0.35395 0.62708 0.0
H518 H 0.4644 0.3716 0.37966 0.0
H519 H 0.47845 0.41152 0.38052 0.0
C520 C 0.46564 0.30895 0.34936 0.0
C521 C 0.48739 0.29821 0.32969 0.0
C522 C 0.46401 0.32633 0.42504 0.0
C523 C 0.48443 0.33378 0.47706 0.0
C524 C 0.50452 0.31923 0.4729 0.0
C525 C 0.50592 0.3014 0.39949 0.0
C526 C 0.51343 0.38939 0.5712 0.0
C527 C 0.50445 0.4058 0.50014 0.0
C528 C 0.50474 0.36639 0.57378 0.0
C529 C 0.48752 0.35916 0.50256 0.0
C530 C 0.47738 0.37625 0.43714 0.0
C531 C 0.4857 0.39927 0.43625 0.0
H532 H 0.24436 0.55761 0.35325 0.0
H533 H 0.2466 0.60943 0.11118 0.0
H534 H 0.21117 0.57777 0.42989 0.0
H535 H 0.21371 0.63038 0.18943 0.0
H536 H 0.13451 0.60491 0.17476 0.0
H537 H 0.17642 0.6116 0.16114 0.0
H538 H 0.1833 0.60624 0.49207 0.0
H539 H 0.14127 0.59862 0.50494 0.0
C540 C 0.23886 0.57437 0.32095 0.0
C541 C 0.24748 0.58169 0.22525 0.0
C542 C 0.21965 0.58597 0.36455 0.0
C543 C 0.20906 0.60509 0.31274 0.0
C544 C 0.221 0.61522 0.22906 0.0
C545 C 0.24007 0.60344 0.18497 0.0
C546 C 0.14488 0.60574 0.24476 0.0
C547 C 0.13471 0.60065 0.34042 0.0
C548 C 0.16895 0.60996 0.2374 0.0
C549 C 0.1834 0.60915 0.32568 0.0
C550 C 0.17274 0.6067 0.42259 0.0
C551 C 0.1486 0.60243 0.4299 0.0
H552 H 0.10697 0.80228 0.28475 0.0
H553 H 0.05319 0.79911 0.05128 0.0
H554 H 0.12751 0.83247 0.18658 0.0
H555 H 0.07258 0.82994 0.95578 0.0
H556 H 0.08954 0.89795 0.84843 0.0
H557 H 0.09804 0.85621 0.87574 0.0
H558 H 0.1127 0.8708 0.19673 0.0
H559 H 0.10518 0.91222 0.16751 0.0
C560 C 0.10032 0.80709 0.20933 0.0
C561 C 0.0783 0.79891 0.17623 0.0
C562 C 0.11183 0.82468 0.15375 0.0
C563 C 0.10103 0.83468 0.06631 0.0
C564 C 0.08138 0.82312 0.02355 0.0
C565 C 0.07016 0.80523 0.07819 0.0
C566 C 0.09544 0.89218 0.92376 0.0
C567 C 0.09616 0.90809 0.00663 0.0
C568 C 0.10028 0.86829 0.93957 0.0
C569 C 0.10535 0.85984 0.03909 0.0
C570 C 0.10892 0.87639 0.11871 0.0
C571 C 0.10444 0.90029 0.10243 0.0
H572 H 0.74642 0.05431 0.06217 0.0
H573 H 0.74297 0.10871 0.29284 0.0
H574 H 0.71581 0.07373 0.96464 0.0
H575 H 0.71304 0.12932 0.19238 0.0
H576 H 0.63314 0.10991 0.16576 0.0
H577 H 0.67456 0.11572 0.19918 0.0
H578 H 0.6902 0.09922 0.88111 0.0
H579 H 0.64845 0.09229 0.84991 0.0
C580 C 0.74029 0.07141 0.08806 0.0
C581 C 0.74649 0.07973 0.18591 0.0
C582 C 0.7225 0.08265 0.03224 0.0
C583 C 0.71095 0.10255 0.07336 0.0
C584 C 0.72079 0.11345 0.1608 0.0
C585 C 0.73827 0.10191 0.21761 0.0
C586 C 0.64536 0.10836 0.10222 0.0
C587 C 0.63775 0.10009 0.00617 0.0
C588 C 0.66926 0.11185 0.1209 0.0
C589 C 0.68604 0.10735 0.0434 0.0
C590 C 0.67794 0.10215 0.94346 0.0
C591 C 0.65403 0.09825 0.92536 0.0
H592 H 0.44339 0.75031 0.2811 0.0
H593 H 0.5043 0.74193 0.08814 0.0
H594 H 0.42195 0.72203 0.17535 0.0
H595 H 0.48388 0.71275 0.98655 0.0
H596 H 0.46022 0.64729 0.87795 0.0
H597 H 0.45779 0.6899 0.89293 0.0
H598 H 0.4289 0.6822 0.1991 0.0
H599 H 0.42974 0.63989 0.18053 0.0
C600 C 0.45174 0.74325 0.2128 0.0
C601 C 0.47553 0.7478 0.19337 0.0
C602 C 0.43964 0.72679 0.15298 0.0
C603 C 0.45153 0.71407 0.07578 0.0
C604 C 0.47405 0.72179 0.04591 0.0
C605 C 0.48592 0.73864 0.10427 0.0
C606 C 0.45232 0.65471 0.94652 0.0
C607 C 0.44589 0.64022 0.02973 0.0
C608 C 0.45114 0.67923 0.95551 0.0
C609 C 0.444 0.6897 0.04862 0.0
C610 C 0.43467 0.67507 0.1261 0.0
C611 C 0.43551 0.65062 0.11643 0.0
H612 H 0.78498 0.51239 0.05855 0.0
H613 H 0.81253 0.45175 0.21892 0.0
H614 H 0.81256 0.50549 0.91848 0.0
H615 H 0.84018 0.44493 0.0802 0.0
H616 H 0.90355 0.4506 0.89635 0.0
H617 H 0.86112 0.44433 0.9073 0.0
H618 H 0.85182 0.51717 0.99526 0.0
H619 H 0.8936 0.5231 0.99039 0.0
C620 C 0.79579 0.49664 0.06048 0.0
C621 C 0.79747 0.48312 0.15065 0.0
C622 C 0.81164 0.49271 0.98032 0.0
C623 C 0.82926 0.47545 0.99131 0.0
C624 C 0.82712 0.45869 0.07043 0.0
C625 C 0.8113 0.46261 0.15044 0.0
C626 C 0.89239 0.4653 0.91742 0.0
C627 C 0.90215 0.4872 0.94532 0.0
C628 C 0.86808 0.46178 0.92148 0.0
C629 C 0.85312 0.48023 0.95156 0.0
C630 C 0.86274 0.50265 0.9696 0.0
C631 C 0.88692 0.50604 0.96755 0.0
H632 H 0.07229 0.21801 0.86308 0.0
H633 H 1.00701 0.21414 0.02883 0.0
H634 H 0.06709 0.17748 0.80345 0.0
H635 H 1.00145 0.17357 0.96886 0.0
H636 H 1.01518 0.09326 0.95869 0.0
H637 H 1.0179 0.13509 0.00222 0.0
H638 H 0.04654 0.14948 0.70182 0.0
H639 H 0.04295 0.10777 0.65652 0.0
C640 C 0.05631 0.20877 0.8832 0.0
C641 C 0.03972 0.21958 0.94813 0.0
C642 C 0.05338 0.18537 0.84982 0.0
C643 C 0.03393 0.17186 0.88186 0.0
C644 C 1.01684 0.18311 0.94354 0.0
C645 C 1.01973 0.20659 0.97629 0.0
C646 C 0.0219 0.10536 0.90143 0.0
C647 C 0.02874 0.09702 0.80384 0.0
C648 C 0.02327 0.12949 0.92611 0.0
C649 C 0.03199 0.14603 0.85471 0.0
C650 C 0.03934 0.1375 0.75804 0.0
C651 C 0.03736 0.11349 0.73225 0.0
H652 H 0.33109 0.04917 0.04655 0.0
H653 H 0.32912 0.98129 0.89868 0.0
H654 H 0.37126 0.05518 0.98264 0.0
H655 H 0.36905 0.98678 0.83683 0.0
H656 H 0.43689 1.00633 0.68388 0.0
H657 H 0.39534 1.00593 0.72678 0.0
H658 H 0.41077 0.04136 0.01343 0.0
H659 H 0.45243 0.04265 0.96684 0.0
C660 C 0.33897 0.03587 0.99769 0.0
C661 C 0.32671 1.01494 0.97609 0.0
C662 C 0.36221 0.03907 0.96254 0.0
C663 C 0.37379 0.02143 0.90469 0.0
C664 C 0.36093 1.001 0.87957 0.0
C665 C 0.33787 0.99782 0.91484 0.0
C666 C 0.43141 1.01447 0.75487 0.0
C667 C 0.44817 0.02476 0.8206 0.0
C668 C 0.40747 1.01397 0.78063 0.0
C669 C 0.39932 0.02357 0.87416 0.0
C670 C 0.41609 0.03407 0.94003 0.0
C671 C 0.44013 0.03462 0.91374 0.0
H672 H 0.47187 0.33172 0.94912 0.0
H673 H 0.54535 0.33205 0.02908 0.0
H674 H 0.47488 0.37244 0.88755 0.0
H675 H 0.54845 0.37293 0.96901 0.0
H676 H 0.53476 0.454 0.99509 0.0
H677 H 0.53344 0.41174 0.03383 0.0
H678 H 0.49208 0.40007 0.75989 0.0
H679 H 0.49458 0.44214 0.71808 0.0
C680 C 0.48888 0.34023 0.94999 0.0
C681 C 0.5085 0.32837 0.99167 0.0
C682 C 0.4906 0.3637 0.91554 0.0
C683 C 0.51186 0.37626 0.92421 0.0
C684 C 0.53171 0.36403 0.9621 0.0
C685 C 0.53007 0.34041 0.99487 0.0
C686 C 0.52554 0.44238 0.94264 0.0
C687 C 0.51487 0.45153 0.8532 0.0
C688 C 0.52493 0.41807 0.96442 0.0
C689 C 0.51301 0.40221 0.89903 0.0
C690 C 0.50176 0.41155 0.81111 0.0
C691 C 0.50313 0.43573 0.7873 0.0
H692 H 0.22386 0.55809 0.85359 0.0
H693 H 0.21286 0.49742 0.04635 0.0
H694 H 0.18466 0.55345 0.77969 0.0
H695 H 0.1736 0.49228 0.97144 0.0
H696 H 0.09534 0.51267 0.93477 0.0
H697 H 0.13651 0.512 0.98572 0.0
H698 H 0.15652 0.53249 0.67798 0.0
H699 H 0.1151 0.5336 0.62735 0.0
C700 C 0.21339 0.54309 0.87679 0.0
C701 C 0.22171 0.52782 0.95421 0.0
C702 C 0.19075 0.54048 0.83491 0.0
C703 C 0.17557 0.52264 0.87002 0.0
C704 C 0.18449 0.5065 0.94334 0.0
C705 C 0.20723 0.5091 0.985 0.0
C706 C 0.10845 0.51699 0.87751 0.0
C707 C 0.10165 0.52326 0.7767 0.0
C708 C 0.13224 0.51637 0.90668 0.0
C709 C 0.15016 0.52203 0.83619 0.0
C710 C 0.14337 0.52819 0.73505 0.0
C711 C 0.11951 0.52876 0.70574 0.0
H712 H 0.05853 0.82977 0.53425 0.0
H713 H 0.99357 0.83538 0.36498 0.0
H714 H 0.05269 0.8692 0.60391 0.0
H715 H 0.98725 0.87501 0.43613 0.0
H716 H 0.03171 0.93656 0.76224 0.0
H717 H 0.03177 0.89525 0.71271 0.0
H718 H 1.00315 0.91406 0.41541 0.0
H719 H 1.00251 0.95547 0.46669 0.0
C720 C 0.0425 0.83918 0.51502 0.0
C721 C 0.02631 0.82924 0.44557 0.0
C722 C 0.03914 0.86193 0.5547 0.0
C723 C 1.01953 0.87565 0.52558 0.0
C724 C 1.00273 0.86523 0.45954 0.0
C725 C 1.00609 0.84231 0.42009 0.0
C726 C 0.02517 0.93197 0.68681 0.0
C727 C 1.0171 0.94961 0.619 0.0
C728 C 0.02536 0.90812 0.65778 0.0
C729 C 1.01753 0.901 0.55953 0.0
C730 C 1.00903 0.91861 0.49222 0.0
C731 C 1.00884 0.94251 0.52144 0.0
H732 H 0.7097 0.99488 0.37917 0.0
H733 H 0.71474 0.06103 0.54027 0.0
H734 H 0.67031 0.98879 0.45141 0.0
H735 H 0.67555 0.05538 0.61102 0.0
H736 H 0.60878 0.03445 0.77264 0.0
H737 H 0.64998 0.03454 0.72298 0.0
H738 H 0.63128 1.00495 0.42764 0.0
H739 H 0.59003 1.0044 0.47883 0.0
C740 C 0.70268 1.00774 0.43256 0.0
C741 C 0.71547 0.02827 0.45514 0.0
C742 C 0.67992 1.0045 0.47269 0.0
C743 C 0.66944 0.02169 0.53669 0.0
C744 C 0.68291 0.04158 0.56327 0.0
C745 C 0.70549 0.04484 0.52284 0.0
C746 C 0.61338 0.02778 0.69757 0.0
C747 C 0.59585 1.01948 0.63021 0.0
C748 C 0.63714 0.02793 0.66854 0.0
C749 C 0.64423 1.01979 0.57086 0.0
C750 C 0.62672 1.01107 0.50403 0.0
C751 C 0.60293 1.01094 0.53319 0.0
H752 H 0.48173 0.71807 0.56032 0.0
H753 H 0.55308 0.71491 0.45069 0.0
H754 H 0.48605 0.67895 0.63642 0.0
H755 H 0.55763 0.67565 0.52753 0.0
H756 H 0.54334 0.59483 0.53767 0.0
H757 H 0.54297 0.63632 0.48825 0.0
H758 H 0.50408 0.65333 0.76359 0.0
H759 H 0.50429 0.61174 0.81267 0.0
C760 C 0.49863 0.70929 0.55544 0.0
C761 C 0.51713 0.71977 0.50013 0.0
C762 C 0.50112 0.68674 0.5989 0.0
C763 C 0.52211 0.67379 0.58741 0.0
C764 C 0.54106 0.68484 0.53681 0.0
C765 C 0.53863 0.70756 0.49415 0.0
C766 C 0.53481 0.60739 0.58816 0.0
C767 C 0.52382 0.59973 0.67924 0.0
C768 C 0.53477 0.63133 0.56013 0.0
C769 C 0.52357 0.64844 0.62178 0.0
C770 C 0.51276 0.64079 0.7135 0.0
C771 C 0.51297 0.61685 0.74199 0.0
H772 H 0.83386 0.55562 0.41226 0.0
H773 H 0.83404 0.48366 0.51723 0.0
H774 H 0.87447 0.56025 0.47337 0.0
H775 H 0.87448 0.48783 0.57636 0.0
H776 H 0.94412 0.50343 0.72587 0.0
H777 H 0.90212 0.50352 0.69109 0.0
H778 H 0.9135 0.54841 0.42722 0.0
H779 H 0.9556 0.54935 0.46656 0.0
C780 C 0.84232 0.54104 0.45165 0.0
C781 C 0.8305 0.51945 0.46217 0.0
C782 C 0.86582 0.54349 0.48493 0.0
C783 C 0.87817 0.52438 0.52944 0.0
C784 C 0.86578 0.50314 0.54407 0.0
C785 C 0.84242 0.50072 0.51059 0.0
C786 C 0.93766 0.51382 0.66196 0.0
C787 C 0.9534 0.52675 0.60058 0.0
C788 C 0.91344 0.51356 0.64069 0.0
C789 C 0.90402 0.52597 0.55596 0.0
C790 C 0.9198 0.53892 0.49421 0.0
C791 C 0.9441 0.53928 0.51609 0.0
loop_
_geom_bond_atom_site_label_1
_geom_bond_atom_site_label_2
_geom_bond_distance
_geom_bond_site_symmetry_2
_ccdc_geom_bond_type
H0 C1 0.949 . S
C1 H0 0.949 . S
C1 C2 1.395 . S
C1 C3 1.391 . S
C2 C1 1.395 . S
C2 C5 1.390 . S
C3 C1 1.391 . S
C3 C7 1.387 . S
C3 C8 1.491 . S
H4 C5 0.950 . S
C5 C2 1.390 . S
C5 H4 0.950 . S
C5 C6 1.378 . S
C6 C5 1.378 . S
C6 C7 1.409 . S
C7 C3 1.387 . S
C7 C6 1.409 . S
C7 H9 0.951 . S
C8 C3 1.491 . S
C8 C10 1.382 . S
C8 C12 1.404 . S
H9 C7 0.951 . S
C10 C8 1.382 . S
C10 C11 1.390 . S
C10 H15 0.949 . S
C11 C10 1.390 . S
C11 C16 1.399 . S
C12 C8 1.404 . S
C12 H13 0.950 . S
C12 C14 1.375 . S
H13 C12 0.950 . S
C14 C12 1.375 . S
C14 C16 1.382 . S
C14 H18 0.950 . S
H15 C10 0.949 . S
C16 C11 1.399 . S
C16 C14 1.382 . S
C16 H17 0.952 . S
H17 C16 0.952 . S
H18 C14 0.950 . S
H19 C20 0.949 . S
C20 H19 0.949 . S
C20 C21 1.396 . S
C20 C22 1.391 . S
C21 C20 1.396 . S
C21 C24 1.390 1_655 S
C22 C20 1.391 . S
C22 C26 1.387 . S
C22 C27 1.491 . S
H23 C24 0.950 . S
C24 C21 1.390 1_455 S
C24 H23 0.950 . S
C24 C25 1.377 1_455 S
C25 C24 1.377 1_655 S
C25 C26 1.413 . S
C26 C22 1.387 . S
C26 C25 1.413 . S
C26 H28 0.951 . S
C27 C22 1.491 . S
C27 C29 1.382 . S
C27 C31 1.404 . S
H28 C26 0.951 . S
C29 C27 1.382 . S
C29 C30 1.390 . S
C29 H34 0.949 1_655 S
C30 C29 1.390 . S
C30 C35 1.399 . S
C31 C27 1.404 . S
C31 H32 0.950 . S
C31 C33 1.375 . S
H32 C31 0.950 . S
C33 C31 1.375 . S
C33 C35 1.382 . S
C33 H37 0.950 . S
H34 C29 0.949 1_455 S
C35 C30 1.399 . S
C35 C33 1.382 . S
C35 H36 0.952 . S
H36 C35 0.952 . S
H37 C33 0.950 . S
H38 C39 0.949 . S
C39 H38 0.949 . S
C39 C40 1.396 . S
C39 C41 1.391 . S
C40 C39 1.396 . S
C40 C43 1.390 1_565 S
C41 C39 1.391 . S
C41 C45 1.387 . S
C41 C46 1.491 . S
H42 C43 0.950 . S
C43 C40 1.390 1_545 S
C43 H42 0.950 . S
C43 C44 1.377 1_545 S
C44 C43 1.377 1_565 S
C44 C45 1.413 . S
C45 C41 1.387 . S
C45 C44 1.413 . S
C45 H47 0.951 . S
C46 C41 1.491 . S
C46 C48 1.382 . S
C46 C50 1.404 . S
H47 C45 0.951 . S
C48 C46 1.382 . S
C48 C49 1.390 . S
C48 H53 0.949 1_565 S
C49 C48 1.390 . S
C49 C54 1.399 . S
C50 C46 1.404 . S
C50 H51 0.950 . S
C50 C52 1.375 . S
H51 C50 0.950 . S
C52 C50 1.375 . S
C52 C54 1.382 . S
C52 H56 0.950 . S
H53 C48 0.949 1_545 S
C54 C49 1.399 . S
C54 C52 1.382 . S
C54 H55 0.952 . S
H55 C54 0.952 . S
H56 C52 0.950 . S
H57 C58 0.949 . S
C58 H57 0.949 . S
C58 C59 1.395 . S
C58 C60 1.391 . S
C59 C58 1.395 . S
C59 C62 1.390 . S
C60 C58 1.391 . S
C60 C64 1.387 . S
C60 C65 1.491 . S
H61 C62 0.950 . S
C62 C59 1.390 . S
C62 H61 0.950 . S
C62 C63 1.378 . S
C63 C62 1.378 . S
C63 C64 1.409 . S
C64 C60 1.387 . S
C64 C63 1.409 . S
C64 H66 0.951 . S
C65 C60 1.491 . S
C65 C67 1.382 . S
C65 C69 1.404 . S
H66 C64 0.951 . S
C67 C65 1.382 . S
C67 C68 1.390 . S
C67 H72 0.949 . S
C68 C67 1.390 . S
C68 C73 1.399 . S
C69 C65 1.404 . S
C69 H70 0.950 . S
C69 C71 1.375 . S
H70 C69 0.950 . S
C71 C69 1.375 . S
C71 C73 1.382 . S
C71 H75 0.950 . S
H72 C67 0.949 . S
C73 C68 1.399 . S
C73 C71 1.382 . S
C73 H74 0.952 . S
H74 C73 0.952 . S
H75 C71 0.950 . S
H76 C77 0.949 . S
C77 H76 0.949 . S
C77 C78 1.395 . S
C77 C79 1.391 1_554 S
C78 C77 1.395 . S
C78 C81 1.390 1_554 S
C79 C77 1.391 1_556 S
C79 C83 1.387 . S
C79 C84 1.491 . S
H80 C81 0.950 . S
C81 C78 1.390 1_556 S
C81 H80 0.950 . S
C81 C82 1.378 . S
C82 C81 1.378 . S
C82 C83 1.409 . S
C83 C79 1.387 . S
C83 C82 1.409 . S
C83 H85 0.951 . S
C84 C79 1.491 . S
C84 C86 1.382 1_556 S
C84 C88 1.404 . S
H85 C83 0.951 . S
C86 C84 1.382 1_554 S
C86 C87 1.390 . S
C86 H91 0.949 . S
C87 C86 1.390 . S
C87 C92 1.399 1_554 S
C88 C84 1.404 . S
C88 H89 0.950 . S
C88 C90 1.375 . S
H89 C88 0.950 . S
C90 C88 1.375 . S
C90 C92 1.382 . S
C90 H94 0.950 . S
H91 C86 0.949 . S
C92 C87 1.399 1_556 S
C92 C90 1.382 . S
C92 H93 0.952 . S
H93 C92 0.952 . S
H94 C90 0.950 . S
H95 C96 0.949 . S
C96 H95 0.949 . S
C96 C97 1.395 . S
C96 C98 1.391 1_554 S
C97 C96 1.395 . S
C97 C100 1.390 1_554 S
C98 C96 1.391 1_556 S
C98 C102 1.387 . S
C98 C103 1.491 1_455 S
H99 C100 0.950 . S
C100 C97 1.390 1_556 S
C100 H99 0.950 . S
C100 C101 1.378 . S
C101 C100 1.378 . S
C101 C102 1.409 . S
C102 C98 1.387 . S
C102 C101 1.409 . S
C102 H104 0.951 . S
C103 C98 1.491 1_655 S
C103 C105 1.382 1_656 S
C103 C107 1.404 . S
H104 C102 0.951 . S
C105 C103 1.382 1_454 S
C105 C106 1.390 . S
C105 H110 0.949 . S
C106 C105 1.390 . S
C106 C111 1.399 1_454 S
C107 C103 1.404 . S
C107 H108 0.950 . S
C107 C109 1.375 . S
H108 C107 0.950 . S
C109 C107 1.375 . S
C109 C111 1.382 . S
C109 H113 0.950 . S
H110 C105 0.949 . S
C111 C106 1.399 1_656 S
C111 C109 1.382 . S
C111 H112 0.952 . S
H112 C111 0.952 . S
H113 C109 0.950 . S
H114 C115 0.949 . S
C115 H114 0.949 . S
C115 C116 1.395 . S
C115 C117 1.391 1_554 S
C116 C115 1.395 . S
C116 C119 1.390 1_554 S
C117 C115 1.391 1_556 S
C117 C121 1.387 . S
C117 C122 1.491 1_545 S
H118 C119 0.950 . S
C119 C116 1.390 1_556 S
C119 H118 0.950 . S
C119 C120 1.378 . S
C120 C119 1.378 . S
C120 C121 1.409 . S
C121 C117 1.387 . S
C121 C120 1.409 . S
C121 H123 0.951 . S
C122 C117 1.491 1_565 S
C122 C124 1.382 1_566 S
C122 C126 1.404 . S
H123 C121 0.951 . S
C124 C122 1.382 1_544 S
C124 C125 1.390 . S
C124 H129 0.949 . S
C125 C124 1.390 . S
C125 C130 1.399 1_544 S
C126 C122 1.404 . S
C126 H127 0.950 . S
C126 C128 1.375 . S
H127 C126 0.950 . S
C128 C126 1.375 . S
C128 C130 1.382 . S
C128 H132 0.950 . S
H129 C124 0.949 . S
C130 C125 1.399 1_566 S
C130 C128 1.382 . S
C130 H131 0.952 . S
H131 C130 0.952 . S
H132 C128 0.950 . S
H133 C134 0.949 . S
C134 H133 0.949 . S
C134 C135 1.395 . S
C134 C136 1.391 1_554 S
C135 C134 1.395 . S
C135 C138 1.390 1_554 S
C136 C134 1.391 1_556 S
C136 C140 1.387 . S
C136 C141 1.491 . S
H137 C138 0.950 . S
C138 C135 1.390 1_556 S
C138 H137 0.950 . S
C138 C139 1.378 . S
C139 C138 1.378 . S
C139 C140 1.409 . S
C140 C136 1.387 . S
C140 C139 1.409 . S
C140 H142 0.951 . S
C141 C136 1.491 . S
C141 C143 1.382 1_556 S
C141 C145 1.404 . S
H142 C140 0.951 . S
C143 C141 1.382 1_554 S
C143 C144 1.390 . S
C143 H148 0.949 . S
C144 C143 1.390 . S
C144 C149 1.399 1_554 S
C145 C141 1.404 . S
C145 H146 0.950 . S
C145 C147 1.375 . S
H146 C145 0.950 . S
C147 C145 1.375 . S
C147 C149 1.382 . S
C147 H151 0.950 . S
H148 C143 0.949 . S
C149 C144 1.399 1_556 S
C149 C147 1.382 . S
C149 H150 0.952 . S
H150 C149 0.952 . S
H151 C147 0.950 . S
Gd152 C155 2.818 . S
Gd152 O172 2.377 . S
Gd152 O174 2.448 . S
Gd152 O175 2.506 . S
Gd152 O176 2.435 . S
Gd152 O177 2.717 1_565 S
Gd152 O179 2.395 1_565 S
Gd152 O183 2.327 1_455 S
Gd153 C164 2.818 . S
Gd153 O173 2.395 1_545 S
Gd153 O177 2.327 1_655 S
Gd153 O178 2.377 . S
Gd153 O180 2.448 . S
Gd153 O181 2.506 1_655 S
Gd153 O182 2.435 . S
Gd153 O183 2.717 1_545 S
C154 O172 1.240 1_655 S
C154 O173 1.240 . S
C155 Gd152 2.818 . S
C155 C156 1.510 . S
C155 O174 1.249 . S
C155 O175 1.252 . S
C156 C155 1.510 . S
C156 C157 1.404 1_556 S
C156 C158 1.352 1_556 S
C157 C156 1.404 1_554 S
C157 C161 1.389 . S
C157 H184 0.930 1_554 S
C158 C156 1.352 1_554 S
C158 C160 1.374 . S
C158 H185 0.931 1_455 S
C159 C160 1.359 . S
C159 C161 1.364 . S
C160 C158 1.374 . S
C160 C159 1.359 . S
C160 H186 0.931 1_455 S
C161 C157 1.389 . S
C161 C159 1.364 . S
C161 H187 0.931 . S
C162 O176 1.256 1_545 S
C162 O177 1.257 . S
C163 O178 1.240 1_455 S
C163 O179 1.240 . S
C164 Gd153 2.818 . S
C164 C165 1.510 . S
C164 O180 1.249 . S
C164 O181 1.252 1_655 S
C165 C164 1.510 . S
C165 C166 1.404 . S
C165 C167 1.352 1_655 S
C166 C165 1.404 . S
C166 C170 1.389 . S
C166 H188 0.930 . S
C167 C165 1.352 1_455 S
C167 C169 1.377 . S
C167 H189 0.931 . S
C168 C169 1.318 1_655 S
C168 C170 1.364 . S
C169 C167 1.377 . S
C169 C168 1.318 1_455 S
C169 H190 0.969 . S
C170 C166 1.389 . S
C170 C168 1.364 . S
C170 H191 0.931 . S
C171 O182 1.256 . S
C171 O183 1.257 1_545 S
O172 Gd152 2.377 . S
O172 C154 1.240 1_455 S
O173 Gd153 2.395 1_565 S
O173 C154 1.240 . S
O174 Gd152 2.448 . S
O174 C155 1.249 . S
O175 Gd152 2.506 . S
O175 C155 1.252 . S
O176 Gd152 2.435 . S
O176 C162 1.256 1_565 S
O177 Gd152 2.717 1_545 S
O177 Gd153 2.327 1_455 S
O177 C162 1.257 . S
O178 Gd153 2.377 . S
O178 C163 1.240 1_655 S
O179 Gd152 2.395 1_545 S
O179 C163 1.240 . S
O180 Gd153 2.448 . S
O180 C164 1.249 . S
O181 Gd153 2.506 1_455 S
O181 C164 1.252 1_455 S
O182 Gd153 2.435 . S
O182 C171 1.256 . S
O183 Gd152 2.327 1_655 S
O183 Gd153 2.717 1_565 S
O183 C171 1.257 1_565 S
H184 C157 0.930 1_556 S
H185 C158 0.931 1_655 S
H186 C160 0.931 1_655 S
H187 C161 0.931 . S
H188 C166 0.930 . S
H189 C167 0.931 . S
H190 C169 0.969 . S
H191 C170 0.931 . S
Gd192 C195 2.818 . S
Gd192 O212 2.377 . S
Gd192 O214 2.448 . S
Gd192 O215 2.506 . S
Gd192 O216 2.435 . S
Gd192 O217 2.717 . S
Gd192 O219 2.395 . S
Gd192 O223 2.327 1_545 S
Gd193 C204 2.818 . S
Gd193 O213 2.395 . S
Gd193 O217 2.327 1_565 S
Gd193 O218 2.377 . S
Gd193 O220 2.448 . S
Gd193 O221 2.506 1_565 S
Gd193 O222 2.435 . S
Gd193 O223 2.717 . S
C194 O212 1.240 1_565 S
C194 O213 1.240 . S
C195 Gd192 2.818 . S
C195 C196 1.510 . S
C195 O214 1.249 . S
C195 O215 1.252 . S
C196 C195 1.510 . S
C196 C197 1.404 1_556 S
C196 C198 1.352 1_556 S
C197 C196 1.404 1_554 S
C197 C201 1.389 . S
C197 H224 0.930 1_554 S
C198 C196 1.352 1_554 S
C198 C200 1.374 . S
C198 H225 0.931 1_545 S
C199 C200 1.359 . S
C199 C201 1.364 . S
C200 C198 1.374 . S
C200 C199 1.359 . S
C200 H226 0.931 1_545 S
C201 C197 1.389 . S
C201 C199 1.364 . S
C201 H227 0.931 . S
C202 O216 1.256 . S
C202 O217 1.257 . S
C203 O218 1.240 1_545 S
C203 O219 1.240 . S
C204 Gd193 2.818 . S
C204 C205 1.510 . S
C204 O220 1.249 . S
C204 O221 1.252 1_565 S
C205 C204 1.510 . S
C205 C206 1.404 . S
C205 C207 1.352 1_565 S
C206 C205 1.404 . S
C206 C210 1.389 . S
C206 H228 0.930 . S
C207 C205 1.352 1_545 S
C207 C209 1.377 . S
C207 H229 0.931 . S
C208 C209 1.316 1_565 S
C208 C210 1.364 . S
C209 C207 1.377 . S
C209 C208 1.316 1_545 S
C209 H230 0.970 . S
C210 C206 1.389 . S
C210 C208 1.364 . S
C210 H231 0.931 . S
C211 O222 1.256 . S
C211 O223 1.257 . S
O212 Gd192 2.377 . S
O212 C194 1.240 1_545 S
O213 Gd193 2.395 . S
O213 C194 1.240 . S
O214 Gd192 2.448 . S
O214 C195 1.249 . S
O215 Gd192 2.506 . S
O215 C195 1.252 . S
O216 Gd192 2.435 . S
O216 C202 1.256 . S
O217 Gd192 2.717 . S
O217 Gd193 2.327 1_545 S
O217 C202 1.257 . S
O218 Gd193 2.377 . S
O218 C203 1.240 1_565 S
O219 Gd192 2.395 . S
O219 C203 1.240 . S
O220 Gd193 2.448 . S
O220 C204 1.249 . S
O221 Gd193 2.506 1_545 S
O221 C204 1.252 1_545 S
O222 Gd193 2.435 . S
O222 C211 1.256 . S
O223 Gd192 2.327 1_565 S
O223 Gd193 2.717 . S
O223 C211 1.257 . S
H224 C197 0.930 1_556 S
H225 C198 0.931 1_565 S
H226 C200 0.931 1_565 S
H227 C201 0.931 . S
H228 C206 0.930 . S
H229 C207 0.931 . S
H230 C209 0.970 . S
H231 C210 0.931 . S
Gd232 C235 2.818 . S
Gd232 O252 2.377 . S
Gd232 O254 2.448 . S
Gd232 O255 2.506 . S
Gd232 O256 2.435 . S
Gd232 O257 2.717 . S
Gd232 O259 2.395 . S
Gd232 O263 2.327 . S
Gd233 C244 2.818 . S
Gd233 O253 2.395 . S
Gd233 O257 2.327 . S
Gd233 O258 2.377 . S
Gd233 O260 2.448 . S
Gd233 O261 2.506 . S
Gd233 O262 2.435 . S
Gd233 O263 2.717 . S
C234 O252 1.240 . S
C234 O253 1.240 . S
C235 Gd232 2.818 . S
C235 C236 1.510 . S
C235 O254 1.249 . S
C235 O255 1.252 . S
C236 C235 1.510 . S
C236 C237 1.404 1_556 S
C236 C238 1.352 1_556 S
C237 C236 1.404 1_554 S
C237 C241 1.389 . S
C237 H264 0.930 1_554 S
C238 C236 1.352 1_554 S
C238 C240 1.374 . S
C238 H265 0.932 . S
C239 C240 1.359 . S
C239 C241 1.364 . S
C240 C238 1.374 . S
C240 C239 1.359 . S
C240 H266 0.931 . S
C241 C237 1.389 . S
C241 C239 1.364 . S
C241 H267 0.931 . S
C242 O256 1.256 . S
C242 O257 1.257 . S
C243 O258 1.240 . S
C243 O259 1.240 . S
C244 Gd233 2.818 . S
C244 C245 1.510 . S
C244 O260 1.249 . S
C244 O261 1.252 . S
C245 C244 1.510 . S
C245 C246 1.404 . S
C245 C247 1.352 . S
C246 C245 1.404 . S
C246 C250 1.389 . S
C246 H268 0.930 . S
C247 C245 1.352 . S
C247 C249 1.374 . S
C247 H269 0.931 . S
C248 C249 1.359 . S
C248 C250 1.364 . S
C249 C247 1.374 . S
C249 C248 1.359 . S
C249 H270 0.931 . S
C250 C246 1.389 . S
C250 C248 1.364 . S
C250 H271 0.931 . S
C251 O262 1.256 . S
C251 O263 1.257 . S
O252 Gd232 2.377 . S
O252 C234 1.240 . S
O253 Gd233 2.395 . S
O253 C234 1.240 . S
O254 Gd232 2.448 . S
O254 C235 1.249 . S
O255 Gd232 2.506 . S
O255 C235 1.252 . S
O256 Gd232 2.435 . S
O256 C242 1.256 . S
O257 Gd232 2.717 . S
O257 Gd233 2.327 . S
O257 C242 1.257 . S
O258 Gd233 2.377 . S
O258 C243 1.240 . S
O259 Gd232 2.395 . S
O259 C243 1.240 . S
O260 Gd233 2.448 . S
O260 C244 1.249 . S
O261 Gd233 2.506 . S
O261 C244 1.252 . S
O262 Gd233 2.435 . S
O262 C251 1.256 . S
O263 Gd232 2.327 . S
O263 Gd233 2.717 . S
O263 C251 1.257 . S
H264 C237 0.930 1_556 S
H265 C238 0.932 . S
H266 C240 0.931 . S
H267 C241 0.931 . S
H268 C246 0.930 . S
H269 C247 0.931 . S
H270 C249 0.931 . S
H271 C250 0.931 . S
Gd272 C275 2.818 . S
Gd272 O292 2.377 . S
Gd272 O294 2.448 . S
Gd272 O295 2.506 . S
Gd272 O296 2.435 . S
Gd272 O297 2.717 1_655 S
Gd272 O299 2.395 1_655 S
Gd272 O303 2.327 . S
Gd273 C284 2.818 . S
Gd273 O293 2.395 1_455 S
Gd273 O297 2.327 . S
Gd273 O298 2.377 . S
Gd273 O300 2.448 . S
Gd273 O301 2.506 . S
Gd273 O302 2.435 . S
Gd273 O303 2.717 1_455 S
C274 O292 1.240 . S
C274 O293 1.240 . S
C275 Gd272 2.818 . S
C275 C276 1.510 . S
C275 O294 1.249 . S
C275 O295 1.252 . S
C276 C275 1.510 . S
C276 C277 1.404 1_556 S
C276 C278 1.352 1_556 S
C277 C276 1.404 1_554 S
C277 C281 1.389 . S
C277 H304 0.930 1_554 S
C278 C276 1.352 1_554 S
C278 C280 1.374 . S
C278 H305 0.932 . S
C279 C280 1.359 . S
C279 C281 1.364 . S
C280 C278 1.374 . S
C280 C279 1.359 . S
C280 H306 0.931 . S
C281 C277 1.389 . S
C281 C279 1.364 . S
C281 H307 0.931 . S
C282 O296 1.256 1_455 S
C282 O297 1.257 . S
C283 O298 1.240 . S
C283 O299 1.240 . S
C284 Gd273 2.818 . S
C284 C285 1.510 . S
C284 O300 1.249 . S
C284 O301 1.252 . S
C285 C284 1.510 . S
C285 C286 1.404 . S
C285 C287 1.352 . S
C286 C285 1.404 . S
C286 C290 1.389 . S
C286 H308 0.930 . S
C287 C285 1.352 . S
C287 C289 1.374 . S
C287 H309 0.931 . S
C288 C289 1.359 . S
C288 C290 1.364 . S
C289 C287 1.374 . S
C289 C288 1.359 . S
C289 H310 0.931 . S
C290 C286 1.389 . S
C290 C288 1.364 . S
C290 H311 0.931 . S
C291 O302 1.256 . S
C291 O303 1.257 1_455 S
O292 Gd272 2.377 . S
O292 C274 1.240 . S
O293 Gd273 2.395 1_655 S
O293 C274 1.240 . S
O294 Gd272 2.448 . S
O294 C275 1.249 . S
O295 Gd272 2.506 . S
O295 C275 1.252 . S
O296 Gd272 2.435 . S
O296 C282 1.256 1_655 S
O297 Gd272 2.717 1_455 S
O297 Gd273 2.327 . S
O297 C282 1.257 . S
O298 Gd273 2.377 . S
O298 C283 1.240 . S
O299 Gd272 2.395 1_455 S
O299 C283 1.240 . S
O300 Gd273 2.448 . S
O300 C284 1.249 . S
O301 Gd273 2.506 . S
O301 C284 1.252 . S
O302 Gd273 2.435 . S
O302 C291 1.256 . S
O303 Gd272 2.327 . S
O303 Gd273 2.717 1_655 S
O303 C291 1.257 1_655 S
H304 C277 0.930 1_556 S
H305 C278 0.932 . S
H306 C280 0.931 . S
H307 C281 0.931 . S
H308 C286 0.930 . S
H309 C287 0.931 . S
H310 C289 0.931 . S
H311 C290 0.931 . S
H312 C320 0.950 . S
H313 C325 0.950 . S
H314 C322 0.950 . S
H315 C324 0.950 . S
H316 C326 0.950 . S
H317 C328 0.950 . S
H318 C330 0.950 . S
H319 C331 0.950 . S
C320 H312 0.950 . S
C320 C321 1.386 . S
C320 C322 1.391 . S
C321 C320 1.386 . S
C321 C325 1.393 1_545 S
C322 H314 0.950 . S
C322 C320 1.391 . S
C322 C323 1.400 . S
C323 C322 1.400 . S
C323 C324 1.398 1_545 S
C323 C329 1.491 . S
C324 H315 0.950 . S
C324 C323 1.398 1_565 S
C324 C325 1.391 . S
C325 H313 0.950 . S
C325 C321 1.393 1_565 S
C325 C324 1.391 . S
C326 H316 0.950 . S
C326 C327 1.386 1_565 S
C326 C328 1.391 . S
C327 C326 1.386 1_545 S
C327 C331 1.393 . S
C328 H317 0.950 . S
C328 C326 1.391 . S
C328 C329 1.400 1_565 S
C329 C323 1.491 . S
C329 C328 1.400 1_545 S
C329 C330 1.398 . S
C330 H318 0.950 . S
C330 C329 1.398 . S
C330 C331 1.391 . S
C331 H319 0.950 . S
C331 C327 1.393 . S
C331 C330 1.391 . S
H332 C340 0.950 . S
H333 C345 0.950 . S
H334 C342 0.950 . S
H335 C344 0.950 . S
H336 C346 0.950 . S
H337 C348 0.950 . S
H338 C350 0.950 . S
H339 C351 0.950 . S
C340 H332 0.950 . S
C340 C341 1.386 . S
C340 C342 1.391 . S
C341 C340 1.386 . S
C341 C345 1.393 . S
C342 H334 0.950 . S
C342 C340 1.391 . S
C342 C343 1.400 . S
C343 C342 1.400 . S
C343 C344 1.398 . S
C343 C349 1.491 . S
C344 H335 0.950 . S
C344 C343 1.398 . S
C344 C345 1.391 . S
C345 H333 0.950 . S
C345 C341 1.393 . S
C345 C344 1.391 . S
C346 H336 0.950 . S
C346 C347 1.386 . S
C346 C348 1.391 . S
C347 C346 1.386 . S
C347 C351 1.393 . S
C348 H337 0.950 . S
C348 C346 1.391 . S
C348 C349 1.400 . S
C349 C343 1.491 . S
C349 C348 1.400 . S
C349 C350 1.398 . S
C350 H338 0.950 . S
C350 C349 1.398 . S
C350 C351 1.391 . S
C351 H339 0.950 . S
C351 C347 1.393 . S
C351 C350 1.391 . S
H352 C360 0.950 . S
H353 C365 0.950 . S
H354 C362 0.950 . S
H355 C364 0.950 . S
H356 C366 0.950 . S
H357 C368 0.950 . S
H358 C370 0.950 . S
H359 C371 0.950 . S
C360 H352 0.950 . S
C360 C361 1.386 . S
C360 C362 1.391 . S
C361 C360 1.386 . S
C361 C365 1.393 . S
C362 H354 0.950 . S
C362 C360 1.391 . S
C362 C363 1.400 . S
C363 C362 1.400 . S
C363 C364 1.398 . S
C363 C369 1.491 . S
C364 H355 0.950 . S
C364 C363 1.398 . S
C364 C365 1.391 . S
C365 H353 0.950 . S
C365 C361 1.393 . S
C365 C364 1.391 . S
C366 H356 0.950 . S
C366 C367 1.386 . S
C366 C368 1.391 . S
C367 C366 1.386 . S
C367 C371 1.393 . S
C368 H357 0.950 . S
C368 C366 1.391 . S
C368 C369 1.400 . S
C369 C363 1.491 . S
C369 C368 1.400 . S
C369 C370 1.398 . S
C370 H358 0.950 . S
C370 C369 1.398 . S
C370 C371 1.391 . S
C371 H359 0.950 . S
C371 C367 1.393 . S
C371 C370 1.391 . S
H372 C380 0.950 . S
H373 C385 0.950 . S
H374 C382 0.950 . S
H375 C384 0.950 . S
H376 C386 0.950 . S
H377 C388 0.950 . S
H378 C390 0.950 . S
H379 C391 0.950 . S
C380 H372 0.950 . S
C380 C381 1.386 . S
C380 C382 1.391 . S
C381 C380 1.386 . S
C381 C385 1.393 1_455 S
C382 H374 0.950 . S
C382 C380 1.391 . S
C382 C383 1.400 . S
C383 C382 1.400 . S
C383 C384 1.398 1_455 S
C383 C389 1.491 . S
C384 H375 0.950 . S
C384 C383 1.398 1_655 S
C384 C385 1.391 . S
C385 H373 0.950 . S
C385 C381 1.393 1_655 S
C385 C384 1.391 . S
C386 H376 0.950 . S
C386 C387 1.386 1_655 S
C386 C388 1.391 . S
C387 C386 1.386 1_455 S
C387 C391 1.393 . S
C388 H377 0.950 . S
C388 C386 1.391 . S
C388 C389 1.400 1_655 S
C389 C383 1.491 . S
C389 C388 1.400 1_455 S
C389 C390 1.398 . S
C390 H378 0.950 . S
C390 C389 1.398 . S
C390 C391 1.391 . S
C391 H379 0.950 . S
C391 C387 1.393 . S
C391 C390 1.391 . S
H392 C400 0.950 . S
H393 C405 0.950 . S
H394 C402 0.950 . S
H395 C404 0.950 . S
H396 C406 0.949 1_554 S
H397 C408 0.950 . S
H398 C410 0.950 . S
H399 C411 0.950 . S
C400 H392 0.950 . S
C400 C401 1.368 1_565 S
C400 C402 1.391 . S
C401 C400 1.368 1_545 S
C401 C405 1.413 . S
C402 H394 0.950 . S
C402 C400 1.391 . S
C402 C403 1.379 1_565 S
C403 C402 1.379 1_545 S
C403 C404 1.422 . S
C403 C409 1.490 . S
C404 H395 0.950 . S
C404 C403 1.422 . S
C404 C405 1.391 . S
C405 H393 0.950 . S
C405 C401 1.413 . S
C405 C404 1.391 . S
C406 H396 0.949 1_556 S
C406 C407 1.397 . S
C406 C408 1.391 1_556 S
C407 C406 1.397 . S
C407 C411 1.381 1_545 S
C408 H397 0.950 . S
C408 C406 1.391 1_554 S
C408 C409 1.409 . S
C409 C403 1.490 . S
C409 C408 1.409 . S
C409 C410 1.389 1_544 S
C410 H398 0.950 . S
C410 C409 1.389 1_566 S
C410 C411 1.391 . S
C411 H399 0.950 . S
C411 C407 1.381 1_565 S
C411 C410 1.391 . S
H412 C420 0.950 . S
H413 C425 0.950 . S
H414 C422 0.950 . S
H415 C424 0.950 . S
H416 C426 0.950 . S
H417 C428 0.950 . S
H418 C430 0.950 . S
H419 C431 0.950 . S
C420 H412 0.950 . S
C420 C421 1.386 . S
C420 C422 1.391 . S
C421 C420 1.386 . S
C421 C425 1.393 . S
C422 H414 0.950 . S
C422 C420 1.391 . S
C422 C423 1.400 . S
C423 C422 1.400 . S
C423 C424 1.398 . S
C423 C429 1.491 . S
C424 H415 0.950 . S
C424 C423 1.398 . S
C424 C425 1.391 . S
C425 H413 0.950 . S
C425 C421 1.393 . S
C425 C424 1.391 . S
C426 H416 0.950 . S
C426 C427 1.386 . S
C426 C428 1.391 1_556 S
C427 C426 1.386 . S
C427 C431 1.393 . S
C428 H417 0.950 . S
C428 C426 1.391 1_554 S
C428 C429 1.400 . S
C429 C423 1.491 . S
C429 C428 1.400 . S
C429 C430 1.398 1_554 S
C430 H418 0.950 . S
C430 C429 1.398 1_556 S
C430 C431 1.391 . S
C431 H419 0.950 . S
C431 C427 1.393 . S
C431 C430 1.391 . S
H432 C440 0.950 . S
H433 C445 0.950 . S
H434 C442 0.950 . S
H435 C444 0.950 . S
H436 C446 0.950 . S
H437 C448 0.950 . S
H438 C450 0.950 . S
H439 C451 0.950 1_554 S
C440 H432 0.950 . S
C440 C441 1.386 . S
C440 C442 1.391 . S
C441 C440 1.386 . S
C441 C445 1.393 . S
C442 H434 0.950 . S
C442 C440 1.391 . S
C442 C443 1.400 . S
C443 C442 1.400 . S
C443 C444 1.398 . S
C443 C449 1.491 . S
C444 H435 0.950 . S
C444 C443 1.398 . S
C444 C445 1.391 . S
C445 H433 0.950 . S
C445 C441 1.393 . S
C445 C444 1.391 . S
C446 H436 0.950 . S
C446 C447 1.386 . S
C446 C448 1.391 . S
C447 C446 1.386 . S
C447 C451 1.393 . S
C448 H437 0.950 . S
C448 C446 1.391 . S
C448 C449 1.400 1_556 S
C449 C443 1.491 . S
C449 C448 1.400 1_554 S
C449 C450 1.398 . S
C450 H438 0.950 . S
C450 C449 1.398 . S
C450 C451 1.391 1_554 S
C451 H439 0.950 1_556 S
C451 C447 1.393 . S
C451 C450 1.391 1_556 S
H452 C460 0.950 . S
H453 C465 0.950 . S
H454 C462 0.950 . S
H455 C464 0.950 . S
H456 C466 0.950 . S
H457 C468 0.950 . S
H458 C470 0.950 . S
H459 C471 0.950 . S
C460 H452 0.950 . S
C460 C461 1.396 . S
C460 C462 1.391 . S
C461 C460 1.396 . S
C461 C465 1.383 1_455 S
C462 H454 0.950 . S
C462 C460 1.391 . S
C462 C463 1.428 . S
C463 C462 1.428 . S
C463 C464 1.371 1_455 S
C463 C469 1.491 . S
C464 H455 0.950 . S
C464 C463 1.371 1_655 S
C464 C465 1.391 . S
C465 H453 0.950 . S
C465 C461 1.383 1_655 S
C465 C464 1.391 . S
C466 H456 0.950 . S
C466 C467 1.386 1_655 S
C466 C468 1.391 1_556 S
C467 C466 1.386 1_455 S
C467 C471 1.393 . S
C468 H457 0.950 . S
C468 C466 1.391 1_554 S
C468 C469 1.374 1_655 S
C469 C463 1.491 . S
C469 C468 1.374 1_455 S
C469 C470 1.425 1_554 S
C470 H458 0.950 . S
C470 C469 1.425 1_556 S
C470 C471 1.391 . S
C471 H459 0.950 . S
C471 C467 1.393 . S
C471 C470 1.391 . S
H472 C480 0.950 1_556 S
H473 C485 0.950 . S
H474 C482 0.950 . S
H475 C484 0.950 . S
H476 C486 0.950 . S
H477 C488 0.950 . S
H478 C490 0.950 . S
H479 C491 0.950 . S
C480 H472 0.950 1_554 S
C480 C481 1.386 . S
C480 C482 1.391 . S
C481 C480 1.386 . S
C481 C485 1.393 . S
C482 H474 0.950 . S
C482 C480 1.391 . S
C482 C483 1.400 1_455 S
C483 C482 1.400 1_655 S
C483 C484 1.398 . S
C483 C489 1.491 . S
C484 H475 0.950 . S
C484 C483 1.398 . S
C484 C485 1.391 1_655 S
C485 H473 0.950 . S
C485 C481 1.393 . S
C485 C484 1.391 1_455 S
C486 H476 0.950 . S
C486 C487 1.386 . S
C486 C488 1.391 . S
C487 C486 1.386 . S
C487 C491 1.393 . S
C488 H477 0.950 . S
C488 C486 1.391 . S
C488 C489 1.400 . S
C489 C483 1.491 . S
C489 C488 1.400 . S
C489 C490 1.398 . S
C490 H478 0.950 . S
C490 C489 1.398 . S
C490 C491 1.391 . S
C491 H479 0.950 . S
C491 C487 1.393 . S
C491 C490 1.391 . S
H492 C500 0.950 . S
H493 C505 0.950 . S
H494 C502 0.950 . S
H495 C504 0.950 . S
H496 C506 0.958 . S
H497 C508 0.950 1_545 S
H498 C510 0.950 . S
H499 C511 0.950 . S
C500 H492 0.950 . S
C500 C501 1.386 1_565 S
C500 C502 1.391 . S
C501 C500 1.386 1_545 S
C501 C505 1.393 . S
C502 H494 0.950 . S
C502 C500 1.391 . S
C502 C503 1.400 . S
C503 C502 1.400 . S
C503 C504 1.398 1_565 S
C503 C509 1.491 . S
C504 H495 0.950 . S
C504 C503 1.398 1_545 S
C504 C505 1.391 . S
C505 H493 0.950 . S
C505 C501 1.393 . S
C505 C504 1.391 . S
C506 H496 0.958 . S
C506 C507 1.386 . S
C506 C508 1.391 . S
C507 C506 1.386 . S
C507 C511 1.393 . S
C508 H497 0.950 1_565 S
C508 C506 1.391 . S
C508 C509 1.400 . S
C509 C503 1.491 . S
C509 C508 1.400 . S
C509 C510 1.398 . S
C510 H498 0.950 . S
C510 C509 1.398 . S
C510 C511 1.391 . S
C511 H499 0.950 . S
C511 C507 1.393 . S
C511 C510 1.391 . S
H512 C520 0.950 . S
H513 C525 0.950 . S
H514 C522 0.950 . S
H515 C524 0.950 . S
H516 C526 0.950 . S
H517 C528 0.950 . S
H518 C530 0.950 . S
H519 C531 0.950 . S
C520 H512 0.950 . S
C520 C521 1.386 . S
C520 C522 1.391 . S
C521 C520 1.386 . S
C521 C525 1.393 . S
C522 H514 0.950 . S
C522 C520 1.391 . S
C522 C523 1.400 . S
C523 C522 1.400 . S
C523 C524 1.398 . S
C523 C529 1.491 . S
C524 H515 0.950 . S
C524 C523 1.398 . S
C524 C525 1.391 . S
C525 H513 0.950 . S
C525 C521 1.393 . S
C525 C524 1.391 . S
C526 H516 0.950 . S
C526 C527 1.386 . S
C526 C528 1.391 . S
C527 C526 1.386 . S
C527 C531 1.393 . S
C528 H517 0.950 . S
C528 C526 1.391 . S
C528 C529 1.400 . S
C529 C523 1.491 . S
C529 C528 1.400 . S
C529 C530 1.398 . S
C530 H518 0.950 . S
C530 C529 1.398 . S
C530 C531 1.391 . S
C531 H519 0.950 . S
C531 C527 1.393 . S
C531 C530 1.391 . S
H532 C540 0.950 . S
H533 C545 0.950 1_556 S
H534 C542 0.950 . S
H535 C544 0.950 . S
H536 C546 0.950 . S
H537 C548 0.950 . S
H538 C550 0.950 . S
H539 C551 0.950 . S
C540 H532 0.950 . S
C540 C541 1.386 . S
C540 C542 1.391 . S
C541 C540 1.386 . S
C541 C545 1.393 . S
C542 H534 0.950 . S
C542 C540 1.391 . S
C542 C543 1.400 . S
C543 C542 1.400 . S
C543 C544 1.398 . S
C543 C549 1.491 . S
C544 H535 0.950 . S
C544 C543 1.398 . S
C544 C545 1.391 . S
C545 H533 0.950 1_554 S
C545 C541 1.393 . S
C545 C544 1.391 . S
C546 H536 0.950 . S
C546 C547 1.386 . S
C546 C548 1.391 . S
C547 C546 1.386 . S
C547 C551 1.393 . S
C548 H537 0.950 . S
C548 C546 1.391 . S
C548 C549 1.400 . S
C549 C543 1.491 . S
C549 C548 1.400 . S
C549 C550 1.398 . S
C550 H538 0.950 . S
C550 C549 1.398 . S
C550 C551 1.391 . S
C551 H539 0.950 . S
C551 C547 1.393 . S
C551 C550 1.391 . S
H552 C560 0.950 . S
H553 C565 0.950 . S
H554 C562 0.950 . S
H555 C564 0.947 1_655 S
H556 C566 0.950 1_556 S
H557 C568 0.950 . S
H558 C570 0.950 . S
H559 C571 0.950 . S
C560 H552 0.950 . S
C560 C561 1.373 1_455 S
C560 C562 1.391 . S
C561 C560 1.373 1_655 S
C561 C565 1.399 . S
C562 H554 0.950 . S
C562 C560 1.391 . S
C562 C563 1.400 . S
C563 C562 1.400 . S
C563 C564 1.405 . S
C563 C569 1.491 . S
C564 H555 0.947 1_455 S
C564 C563 1.405 . S
C564 C565 1.387 1_455 S
C565 H553 0.950 . S
C565 C561 1.399 . S
C565 C564 1.387 1_655 S
C566 H556 0.950 1_554 S
C566 C567 1.386 . S
C566 C568 1.391 . S
C567 C566 1.386 . S
C567 C571 1.393 . S
C568 H557 0.950 . S
C568 C566 1.391 . S
C568 C569 1.400 . S
C569 C563 1.491 . S
C569 C568 1.400 . S
C569 C570 1.398 . S
C570 H558 0.950 . S
C570 C569 1.398 . S
C570 C571 1.391 . S
C571 H559 0.950 . S
C571 C567 1.393 . S
C571 C570 1.391 . S
H572 C580 0.950 . S
H573 C585 0.950 . S
H574 C582 0.950 . S
H575 C584 0.950 . S
H576 C586 0.950 . S
H577 C588 0.950 . S
H578 C590 0.950 1_565 S
H579 C591 0.950 . S
C580 H572 0.950 . S
C580 C581 1.386 . S
C580 C582 1.391 . S
C581 C580 1.386 . S
C581 C585 1.393 1_565 S
C582 H574 0.950 . S
C582 C580 1.391 . S
C582 C583 1.400 1_565 S
C583 C582 1.400 1_545 S
C583 C584 1.398 . S
C583 C589 1.491 . S
C584 H575 0.950 . S
C584 C583 1.398 . S
C584 C585 1.391 . S
C585 H573 0.950 . S
C585 C581 1.393 1_545 S
C585 C584 1.391 . S
C586 H576 0.950 . S
C586 C587 1.386 . S
C586 C588 1.391 . S
C587 C586 1.386 . S
C587 C591 1.393 . S
C588 H577 0.950 . S
C588 C586 1.391 . S
C588 C589 1.400 . S
C589 C583 1.491 . S
C589 C588 1.400 . S
C589 C590 1.398 . S
C590 H578 0.950 1_545 S
C590 C589 1.398 . S
C590 C591 1.391 . S
C591 H579 0.950 . S
C591 C587 1.393 . S
C591 C590 1.391 . S
H592 C600 0.950 . S
H593 C605 0.950 . S
H594 C602 0.950 . S
H595 C604 0.950 . S
H596 C606 0.950 . S
H597 C608 0.950 . S
H598 C610 0.950 . S
H599 C611 0.950 . S
C600 H592 0.950 . S
C600 C601 1.386 . S
C600 C602 1.391 . S
C601 C600 1.386 . S
C601 C605 1.393 . S
C602 H594 0.950 . S
C602 C600 1.391 . S
C602 C603 1.400 . S
C603 C602 1.400 . S
C603 C604 1.398 . S
C603 C609 1.491 . S
C604 H595 0.950 . S
C604 C603 1.398 . S
C604 C605 1.391 . S
C605 H593 0.950 . S
C605 C601 1.393 . S
C605 C604 1.391 . S
C606 H596 0.950 . S
C606 C607 1.386 . S
C606 C608 1.391 . S
C607 C606 1.386 . S
C607 C611 1.393 . S
C608 H597 0.950 . S
C608 C606 1.391 . S
C608 C609 1.400 . S
C609 C603 1.491 . S
C609 C608 1.400 . S
C609 C610 1.398 . S
C610 H598 0.950 . S
C610 C609 1.398 . S
C610 C611 1.391 . S
C611 H599 0.950 . S
C611 C607 1.393 . S
C611 C610 1.391 . S
H612 C620 0.950 . S
H613 C625 0.950 . S
H614 C622 0.950 . S
H615 C624 0.950 . S
H616 C626 0.950 . S
H617 C628 0.950 . S
H618 C630 0.950 . S
H619 C631 0.950 . S
C620 H612 0.950 . S
C620 C621 1.386 . S
C620 C622 1.391 . S
C621 C620 1.386 . S
C621 C625 1.393 . S
C622 H614 0.950 . S
C622 C620 1.391 . S
C622 C623 1.400 . S
C623 C622 1.400 . S
C623 C624 1.398 . S
C623 C629 1.491 . S
C624 H615 0.950 . S
C624 C623 1.398 . S
C624 C625 1.391 . S
C625 H613 0.950 . S
C625 C621 1.393 . S
C625 C624 1.391 . S
C626 H616 0.950 . S
C626 C627 1.386 . S
C626 C628 1.391 . S
C627 C626 1.386 . S
C627 C631 1.393 . S
C628 H617 0.950 . S
C628 C626 1.391 . S
C628 C629 1.400 . S
C629 C623 1.491 . S
C629 C628 1.400 . S
C629 C630 1.398 . S
C630 H618 0.950 . S
C630 C629 1.398 . S
C630 C631 1.391 . S
C631 H619 0.950 . S
C631 C627 1.393 . S
C631 C630 1.391 . S
H632 C640 0.950 . S
H633 C645 0.950 . S
H634 C642 0.950 . S
H635 C644 0.950 . S
H636 C646 0.950 . S
H637 C648 0.950 . S
H638 C650 0.950 . S
H639 C651 0.950 . S
C640 H632 0.950 . S
C640 C641 1.386 . S
C640 C642 1.391 . S
C641 C640 1.386 . S
C641 C645 1.393 1_455 S
C642 H634 0.950 . S
C642 C640 1.391 . S
C642 C643 1.400 . S
C643 C642 1.400 . S
C643 C644 1.398 1_455 S
C643 C649 1.491 . S
C644 H635 0.950 . S
C644 C643 1.398 1_655 S
C644 C645 1.391 . S
C645 H633 0.950 . S
C645 C641 1.393 1_655 S
C645 C644 1.391 . S
C646 H636 0.950 . S
C646 C647 1.386 1_655 S
C646 C648 1.391 . S
C647 C646 1.386 1_455 S
C647 C651 1.393 . S
C648 H637 0.950 . S
C648 C646 1.391 . S
C648 C649 1.400 1_655 S
C649 C643 1.491 . S
C649 C648 1.400 1_455 S
C649 C650 1.398 . S
C650 H638 0.950 . S
C650 C649 1.398 . S
C650 C651 1.391 . S
C651 H639 0.950 . S
C651 C647 1.393 . S
C651 C650 1.391 . S
H652 C660 0.950 . S
H653 C665 0.950 . S
H654 C662 0.950 . S
H655 C664 0.950 . S
H656 C666 0.950 1_565 S
H657 C668 0.950 1_565 S
H658 C670 0.950 . S
H659 C671 0.950 . S
C660 H652 0.950 . S
C660 C661 1.386 . S
C660 C662 1.391 . S
C661 C660 1.386 . S
C661 C665 1.393 1_545 S
C662 H654 0.950 . S
C662 C660 1.391 . S
C662 C663 1.400 . S
C663 C662 1.400 . S
C663 C664 1.398 1_545 S
C663 C669 1.491 . S
C664 H655 0.950 . S
C664 C663 1.398 1_565 S
C664 C665 1.391 . S
C665 H653 0.950 . S
C665 C661 1.393 1_565 S
C665 C664 1.391 . S
C666 H656 0.950 1_545 S
C666 C667 1.386 . S
C666 C668 1.391 . S
C667 C666 1.386 . S
C667 C671 1.393 . S
C668 H657 0.950 1_545 S
C668 C666 1.391 . S
C668 C669 1.400 . S
C669 C663 1.491 . S
C669 C668 1.400 . S
C669 C670 1.398 . S
C670 H658 0.950 . S
C670 C669 1.398 . S
C670 C671 1.391 . S
C671 H659 0.950 . S
C671 C667 1.393 . S
C671 C670 1.391 . S
H672 C680 0.950 . S
H673 C685 0.950 . S
H674 C682 0.950 . S
H675 C684 0.950 . S
H676 C686 0.950 . S
H677 C688 0.950 . S
H678 C690 0.950 . S
H679 C691 0.950 . S
C680 H672 0.950 . S
C680 C681 1.386 . S
C680 C682 1.391 . S
C681 C680 1.386 . S
C681 C685 1.393 . S
C682 H674 0.950 . S
C682 C680 1.391 . S
C682 C683 1.400 . S
C683 C682 1.400 . S
C683 C684 1.398 . S
C683 C689 1.491 . S
C684 H675 0.950 . S
C684 C683 1.398 . S
C684 C685 1.391 . S
C685 H673 0.950 . S
C685 C681 1.393 . S
C685 C684 1.391 . S
C686 H676 0.950 . S
C686 C687 1.386 . S
C686 C688 1.391 . S
C687 C686 1.386 . S
C687 C691 1.393 . S
C688 H677 0.950 . S
C688 C686 1.391 . S
C688 C689 1.400 . S
C689 C683 1.491 . S
C689 C688 1.400 . S
C689 C690 1.398 . S
C690 H678 0.950 . S
C690 C689 1.398 . S
C690 C691 1.391 . S
C691 H679 0.950 . S
C691 C687 1.393 . S
C691 C690 1.391 . S
H692 C700 0.950 . S
H693 C705 0.950 . S
H694 C702 0.950 . S
H695 C704 0.950 . S
H696 C706 0.950 . S
H697 C708 0.950 . S
H698 C710 0.950 . S
H699 C711 0.950 . S
C700 H692 0.950 . S
C700 C701 1.386 . S
C700 C702 1.391 . S
C701 C700 1.386 . S
C701 C705 1.393 . S
C702 H694 0.950 . S
C702 C700 1.391 . S
C702 C703 1.400 . S
C703 C702 1.400 . S
C703 C704 1.398 . S
C703 C709 1.491 . S
C704 H695 0.950 . S
C704 C703 1.398 . S
C704 C705 1.391 . S
C705 H693 0.950 . S
C705 C701 1.393 . S
C705 C704 1.391 . S
C706 H696 0.950 . S
C706 C707 1.386 . S
C706 C708 1.391 . S
C707 C706 1.386 . S
C707 C711 1.393 . S
C708 H697 0.950 . S
C708 C706 1.391 . S
C708 C709 1.400 . S
C709 C703 1.491 . S
C709 C708 1.400 . S
C709 C710 1.398 . S
C710 H698 0.950 . S
C710 C709 1.398 . S
C710 C711 1.391 . S
C711 H699 0.950 . S
C711 C707 1.393 . S
C711 C710 1.391 . S
H712 C720 0.950 . S
H713 C725 0.950 . S
H714 C722 0.950 . S
H715 C724 0.950 . S
H716 C726 0.950 . S
H717 C728 0.950 . S
H718 C730 0.950 . S
H719 C731 0.950 . S
C720 H712 0.950 . S
C720 C721 1.386 1_455 S
C720 C722 1.391 . S
C721 C720 1.386 1_655 S
C721 C725 1.393 . S
C722 H714 0.950 . S
C722 C720 1.391 . S
C722 C723 1.400 1_455 S
C723 C722 1.400 1_655 S
C723 C724 1.398 . S
C723 C729 1.491 . S
C724 H715 0.950 . S
C724 C723 1.398 . S
C724 C725 1.391 . S
C725 H713 0.950 . S
C725 C721 1.393 . S
C725 C724 1.391 . S
C726 H716 0.950 . S
C726 C727 1.386 . S
C726 C728 1.391 . S
C727 C726 1.386 . S
C727 C731 1.393 1_655 S
C728 H717 0.950 . S
C728 C726 1.391 . S
C728 C729 1.400 . S
C729 C723 1.491 . S
C729 C728 1.400 . S
C729 C730 1.398 1_655 S
C730 H718 0.950 . S
C730 C729 1.398 1_455 S
C730 C731 1.391 . S
C731 H719 0.950 . S
C731 C727 1.393 1_455 S
C731 C730 1.391 . S
H732 C740 0.950 . S
H733 C745 0.950 . S
H734 C742 0.950 . S
H735 C744 0.950 . S
H736 C746 0.950 . S
H737 C748 0.950 . S
H738 C750 0.950 . S
H739 C751 0.950 . S
C740 H732 0.950 . S
C740 C741 1.386 . S
C740 C742 1.391 . S
C741 C740 1.386 . S
C741 C745 1.393 1_565 S
C742 H734 0.950 . S
C742 C740 1.391 . S
C742 C743 1.400 . S
C743 C742 1.400 . S
C743 C744 1.398 1_565 S
C743 C749 1.491 . S
C744 H735 0.950 . S
C744 C743 1.398 1_545 S
C744 C745 1.391 . S
C745 H733 0.950 . S
C745 C741 1.393 1_545 S
C745 C744 1.391 . S
C746 H736 0.950 . S
C746 C747 1.386 1_545 S
C746 C748 1.391 . S
C747 C746 1.386 1_565 S
C747 C751 1.393 . S
C748 H737 0.950 . S
C748 C746 1.391 . S
C748 C749 1.400 1_545 S
C749 C743 1.491 . S
C749 C748 1.400 1_565 S
C749 C750 1.398 . S
C750 H738 0.950 . S
C750 C749 1.398 . S
C750 C751 1.391 . S
C751 H739 0.950 . S
C751 C747 1.393 . S
C751 C750 1.391 . S
H752 C760 0.950 . S
H753 C765 0.950 . S
H754 C762 0.950 . S
H755 C764 0.950 . S
H756 C766 0.950 . S
H757 C768 0.950 . S
H758 C770 0.950 . S
H759 C771 0.950 . S
C760 H752 0.950 . S
C760 C761 1.386 . S
C760 C762 1.391 . S
C761 C760 1.386 . S
C761 C765 1.393 . S
C762 H754 0.950 . S
C762 C760 1.391 . S
C762 C763 1.400 . S
C763 C762 1.400 . S
C763 C764 1.398 . S
C763 C769 1.491 . S
C764 H755 0.950 . S
C764 C763 1.398 . S
C764 C765 1.391 . S
C765 H753 0.950 . S
C765 C761 1.393 . S
C765 C764 1.391 . S
C766 H756 0.950 . S
C766 C767 1.386 . S
C766 C768 1.391 . S
C767 C766 1.386 . S
C767 C771 1.393 . S
C768 H757 0.950 . S
C768 C766 1.391 . S
C768 C769 1.400 . S
C769 C763 1.491 . S
C769 C768 1.400 . S
C769 C770 1.398 . S
C770 H758 0.950 . S
C770 C769 1.398 . S
C770 C771 1.391 . S
C771 H759 0.950 . S
C771 C767 1.393 . S
C771 C770 1.391 . S
H772 C780 0.950 . S
H773 C785 0.950 . S
H774 C782 0.950 . S
H775 C784 0.950 . S
H776 C786 0.950 . S
H777 C788 0.950 . S
H778 C790 0.950 . S
H779 C791 0.950 . S
C780 H772 0.950 . S
C780 C781 1.386 . S
C780 C782 1.391 . S
C781 C780 1.386 . S
C781 C785 1.393 . S
C782 H774 0.950 . S
C782 C780 1.391 . S
C782 C783 1.400 . S
C783 C782 1.400 . S
C783 C784 1.398 . S
C783 C789 1.491 . S
C784 H775 0.950 . S
C784 C783 1.398 . S
C784 C785 1.391 . S
C785 H773 0.950 . S
C785 C781 1.393 . S
C785 C784 1.391 . S
C786 H776 0.950 . S
C786 C787 1.386 . S
C786 C788 1.391 . S
C787 C786 1.386 . S
C787 C791 1.393 . S
C788 H777 0.950 . S
C788 C786 1.391 . S
C788 C789 1.400 . S
C789 C783 1.491 . S
C789 C788 1.400 . S
C789 C790 1.398 . S
C790 H778 0.950 . S
C790 C789 1.398 . S
C790 C791 1.391 . S
C791 H779 0.950 . S
C791 C787 1.393 . S
C791 C790 1.391 . S
C321 C125 1.903 . S
C327 C162 1.943 . S
C347 C202 1.943 . S
C341 C144 1.906 . S
C367 C242 1.949 . S
C361 C87 1.899 . S
C387 C282 1.940 . S
C381 C106 1.906 . S
C407 C171 1.953 . S
C401 C49 1.907 1_545 S
C421 C68 1.914 . S
C427 C211 1.949 . S
C441 C11 1.901 . S
C447 C251 1.943 . S
C461 C30 1.908 1_455 S
C467 C291 1.946 . S
C487 C168 0.575 . S
C481 C97 0.603 . S
C507 C208 0.524 . S
C501 C116 0.542 . S
C527 C248 0.564 . S
C521 C135 0.615 . S
C541 C78 0.579 . S
C547 C288 0.523 . S
C561 C21 0.585 . S
C567 C159 0.526 . S
C587 C199 0.558 . S
C581 C40 0.555 . S
C607 C239 0.543 . S
C601 C59 0.606 . S
C621 C2 0.544 . S
C627 C279 0.521 . S
C641 C101 2.025 . S
C647 C163 2.259 . S
C661 C120 2.031 . S
C667 C203 2.268 . S
C687 C243 2.262 . S
C681 C139 2.024 . S
C707 C283 2.266 . S
C701 C82 2.053 . S
C721 C25 2.028 . S
C727 C154 2.260 . S
C747 C194 2.260 . S
C741 C44 2.044 . S
C767 C234 2.261 . S
C761 C63 2.021 . S
C781 C6 2.050 . S
C787 C274 2.269 . S
