# Generated by pormake.
# Topology anh, (6,3)-cn, num edge types: 1
# Building blocks:
#     Node 0, Type 0, BuildingBlock: VOLQOD_clean_sbu_1, # of connection points: 6
#     Node 1, Type 0, BuildingBlock: VOLQOD_clean_sbu_1, # of connection points: 6
#     Node 2, Type 0, BuildingBlock: VOLQOD_clean_sbu_1, # of connection points: 6
#     Node 3, Type 1, BuildingBlock: BETDAH_clean_linker_0, # of connection points: 3
#     Node 4, Type 1, BuildingBlock: BETDAH_clean_linker_0, # of connection points: 3
#     Node 5, Type 1, BuildingBlock: BETDAH_clean_linker_0, # of connection points: 3
#     Node 6, Type 1, BuildingBlock: BETDAH_clean_linker_0, # of connection points: 3
#     Node 7, Type 1, BuildingBlock: BETDAH_clean_linker_0, # of connection points: 3
#     Node 8, Type 1, BuildingBlock: BETDAH_clean_linker_0, # of connection points: 3
#     Edge 9, Type (0, 1), BuildingBlock: TEMPAE_clean_linker_10, # of connection points: 2
#     Edge 10, Type (0, 1), BuildingBlock: TEMPAE_clean_linker_10, # of connection points: 2
#     Edge 11, Type (0, 1), BuildingBlock: TEMPAE_clean_linker_10, # of connection points: 2
#     Edge 12, Type (0, 1), BuildingBlock: TEMPAE_clean_linker_10, # of connection points: 2
#     Edge 13, Type (0, 1), BuildingBlock: TEMPAE_clean_linker_10, # of connection points: 2
#     Edge 14, Type (0, 1), BuildingBlock: TEMPAE_clean_linker_10, # of connection points: 2
#     Edge 15, Type (0, 1), BuildingBlock: TEMPAE_clean_linker_10, # of connection points: 2
#     Edge 16, Type (0, 1), BuildingBlock: TEMPAE_clean_linker_10, # of connection points: 2
#     Edge 17, Type (0, 1), BuildingBlock: TEMPAE_clean_linker_10, # of connection points: 2
#     Edge 18, Type (0, 1), BuildingBlock: TEMPAE_clean_linker_10, # of connection points: 2
#     Edge 19, Type (0, 1), BuildingBlock: TEMPAE_clean_linker_10, # of connection points: 2
#     Edge 20, Type (0, 1), BuildingBlock: TEMPAE_clean_linker_10, # of connection points: 2
#     Edge 21, Type (0, 1), BuildingBlock: TEMPAE_clean_linker_10, # of connection points: 2
#     Edge 22, Type (0, 1), BuildingBlock: TEMPAE_clean_linker_10, # of connection points: 2
#     Edge 23, Type (0, 1), BuildingBlock: TEMPAE_clean_linker_10, # of connection points: 2
#     Edge 24, Type (0, 1), BuildingBlock: TEMPAE_clean_linker_10, # of connection points: 2
#     Edge 25, Type (0, 1), BuildingBlock: TEMPAE_clean_linker_10, # of connection points: 2
#     Edge 26, Type (0, 1), BuildingBlock: TEMPAE_clean_linker_10, # of connection points: 2
# Relax obj value: 0.158
# Max RMSD: 0.216
# Mean RMSD: 0.136
data_MOF--net-anh--node1-VOLQOD_clean_sbu_1--node2-BETDAH_clean_linker_0--edge1-TEMPAE_clean_linker_10
_symmetry_space_group_name_H-M    P1
_symmetry_Int_Tables_number       1
_symmetry_cell_setting            triclinic
loop_
_symmetry_equiv_pos_as_xyz
'x, y, z'
_cell_length_a     29.808557
_cell_length_b     29.751212
_cell_length_c     57.013162
_cell_angle_alpha  92.645764
_cell_angle_beta   92.486404
_cell_angle_gamma 120.19552
loop_
_atom_site_label
_atom_site_type_symbol
_atom_site_fract_x
_atom_site_fract_y
_atom_site_fract_z
_atom_type_partial_charge
O0 O -0.004 0.52097 0.21561 0.0
Zn1 Zn -0.00138 0.53714 0.18137 0.0
O2 O 0.01349 0.49114 0.16203 0.0
Zn3 Zn 0.95482 0.44609 0.14007 0.0
Zn4 Zn 0.02721 0.44908 0.18286 0.0
Zn5 Zn 0.07315 0.53067 0.14419 0.0
O6 O 0.97306 0.45372 0.10631 0.0
O7 O 0.05291 0.52294 0.10935 0.0
O8 O 0.93129 0.53271 0.16978 0.0
O9 O 0.90099 0.46647 0.14241 0.0
O10 O 0.91989 0.37192 0.14851 0.0
O11 O 0.964 0.37731 0.18192 0.0
O12 O 0.08798 0.44273 0.17313 0.0
O13 O 0.05767 0.61096 0.18108 0.0
O14 O 0.12178 0.50307 0.14745 0.0
O15 O 0.1109 0.60611 0.1563 0.0
C16 C 0.02011 0.50255 0.22696 0.0
C17 C 0.01257 0.48838 0.09687 0.0
C18 C 0.92561 0.35143 0.16669 0.0
C19 C 0.89616 0.50085 0.15424 0.0
C20 C 0.1225 0.46773 0.15895 0.0
C21 C 0.09987 0.63236 0.17081 0.0
O22 O 0.04064 0.47941 0.21648 0.0
O23 O 0.56657 0.09999 0.4502 0.0
Zn24 Zn 0.54749 0.09393 0.48389 0.0
O25 O 0.59333 0.07878 0.50297 0.0
Zn26 Zn 0.6391 0.13778 0.52486 0.0
Zn27 Zn 0.63386 0.06254 0.4821 0.0
Zn28 Zn 0.55261 0.01984 0.52082 0.0
O29 O 0.63014 0.11964 0.55889 0.0
O30 O 0.55835 0.04156 0.55507 0.0
O31 O 0.55047 0.16044 0.49651 0.0
O32 O 0.61966 0.19245 0.52226 0.0
O33 O 0.71346 0.17107 0.51637 0.0
O34 O 0.70727 0.12313 0.48401 0.0
O35 O 0.63659 -0.00083 0.49155 0.0
O36 O 0.474 0.03273 0.48205 0.0
O37 O 0.57962 0.9706 0.51884 0.0
O38 O 0.47805 0.98115 0.50801 0.0
C39 C 0.5842 0.07575 0.43828 0.0
C40 C 0.59331 0.08093 0.56792 0.0
C41 C 0.73383 0.16242 0.49879 0.0
C42 C 0.58392 0.19653 0.51131 0.0
C43 C 0.61263 0.96682 0.50674 0.0
C44 C 0.4526 0.99074 0.49251 0.0
O45 O 0.60538 0.05277 0.44824 0.0
O46 O 0.50659 0.59424 0.78388 0.0
Zn47 Zn 0.4813 0.56691 0.81528 0.0
O48 O 0.53346 0.60764 0.84116 0.0
Zn49 Zn 0.50773 0.64116 0.86238 0.0
Zn50 Zn 0.59739 0.65913 0.82808 0.0
Zn51 Zn 0.54691 0.56205 0.85918 0.0
O52 O 0.51397 0.62756 0.8967 0.0
O53 O 0.52755 0.56094 0.8922 0.0
O54 O 0.41315 0.56275 0.82069 0.0
O55 O 0.43153 0.61194 0.85418 0.0
O56 O 0.54388 0.71772 0.85775 0.0
O57 O 0.60578 0.73027 0.83399 0.0
O58 O 0.66115 0.65782 0.84156 0.0
O59 O 0.46759 0.49354 0.81255 0.0
O60 O 0.62251 0.58856 0.86233 0.0
O61 O 0.51245 0.48964 0.84365 0.0
C62 C 0.55255 0.6223 0.77753 0.0
C63 C 0.51893 0.59125 0.9052 0.0
C64 C 0.58139 0.74746 0.84576 0.0
C65 C 0.39923 0.58197 0.83734 0.0
C66 C 0.66336 0.62602 0.85515 0.0
C67 C 0.48245 0.46831 0.82498 0.0
O68 O 0.59153 0.64612 0.79268 0.0
H69 H 0.40645 0.95454 0.27014 0.0
H70 H 0.54878 0.08776 0.25202 0.0
H71 H 0.42648 0.99515 0.1985 0.0
C72 C 0.42998 0.98031 0.25729 0.0
C73 C 0.41008 0.97034 0.23366 0.0
C74 C 0.47992 0.02292 0.26433 0.0
C75 C 0.5105 0.05451 0.24704 0.0
C76 C 0.49095 0.04412 0.2233 0.0
C77 C 0.44073 0.00298 0.21691 0.0
N78 N 0.52059 0.0741 0.20527 0.0
C79 C 0.57451 0.10247 0.2068 0.0
H80 H 0.57423 0.50573 0.60545 0.0
H81 H 0.67832 0.67166 0.60571 0.0
H82 H 0.67562 0.5699 0.54945 0.0
C83 C 0.60393 0.539 0.59733 0.0
C84 C 0.62147 0.53128 0.57583 0.0
C85 C 0.62471 0.58938 0.60855 0.0
C86 C 0.6615 0.63254 0.59735 0.0
C87 C 0.67923 0.62513 0.57594 0.0
C88 C 0.66005 0.57481 0.56557 0.0
N89 N 0.71774 0.6679 0.56494 0.0
C90 C 0.7092 0.70719 0.55808 0.0
H91 H 0.9331 0.5463 0.9284 0.0
H92 H 0.00636 0.45836 0.90806 0.0
H93 H 0.92097 0.49137 0.85611 0.0
C94 C 0.94347 0.52679 0.91503 0.0
C95 C 0.92539 0.52345 0.89149 0.0
C96 C 0.97222 0.50288 0.92149 0.0
C97 C 0.98353 0.47633 0.90373 0.0
C98 C 0.96426 0.47169 0.88029 0.0
C99 C 0.93498 0.49471 0.87434 0.0
N100 N 0.97371 0.4437 0.86238 0.0
C101 C 0.0239 0.45532 0.85871 0.0
H102 H 0.146 0.65721 0.39629 0.0
H103 H 0.06079 0.49724 0.41455 0.0
H104 H 0.17434 0.61786 0.46443 0.0
C105 C 0.13603 0.62788 0.4088 0.0
C106 C 0.16221 0.64337 0.43124 0.0
C107 C 0.0997 0.5749 0.40219 0.0
C108 C 0.08919 0.53799 0.41899 0.0
C109 C 0.11659 0.55355 0.44138 0.0
C110 C 0.15324 0.606 0.44719 0.0
N111 N 0.10964 0.51756 0.4583 0.0
C112 C 0.06564 0.46861 0.4585 0.0
H113 H 0.49869 0.1691 0.72658 0.0
H114 H 0.51925 0.04439 0.75006 0.0
H115 H 0.46767 0.12305 0.79705 0.0
C116 C 0.49656 0.1437 0.74006 0.0
C117 C 0.48085 0.15006 0.76217 0.0
C118 C 0.50998 0.10527 0.73531 0.0
C119 C 0.50909 0.07417 0.75342 0.0
C120 C 0.49358 0.08077 0.77569 0.0
C121 C 0.47877 0.11787 0.77971 0.0
N122 N 0.49236 0.05117 0.79466 0.0
C123 C 0.5167 0.02199 0.79568 0.0
H124 H 0.58758 0.53093 0.07168 0.0
H125 H 0.42175 0.42571 0.07014 0.0
H126 H 0.52452 0.40785 0.11853 0.0
C127 C 0.5542 0.49853 0.07847 0.0
C128 C 0.56215 0.47304 0.09696 0.0
C129 C 0.50376 0.48134 0.06823 0.0
C130 C 0.46101 0.43913 0.07742 0.0
C131 C 0.46888 0.41282 0.09552 0.0
C132 C 0.51916 0.42928 0.10488 0.0
N133 N 0.42662 0.36938 0.1045 0.0
C134 C 0.38414 0.37219 0.11145 0.0
C135 C 0.15979 0.40944 0.16379 0.0
C136 C 0.16256 0.4536 0.15455 0.0
C137 C 0.19531 0.39354 0.15811 0.0
C138 C 0.23446 0.42264 0.14293 0.0
C139 C 0.2383 0.46796 0.13404 0.0
C140 C 0.20229 0.48286 0.13995 0.0
C141 C 0.19027 0.34506 0.16791 0.0
C142 C 0.27987 0.5002 0.11793 0.0
C143 C 0.35571 0.41231 0.14106 0.0
C144 C 0.34461 0.38098 0.12018 0.0
C145 C 0.31936 0.42486 0.14916 0.0
C146 C 0.27113 0.40551 0.13589 0.0
C147 C 0.25941 0.37256 0.11503 0.0
C148 C 0.29663 0.36075 0.10735 0.0
C149 C 0.33325 0.4602 0.17142 0.0
C150 C 0.20833 0.35123 0.10047 0.0
H151 H 0.12919 0.38657 0.17506 0.0
H152 H 0.20493 0.51719 0.13281 0.0
H153 H 0.18183 0.31534 0.15328 0.0
H154 H 0.22752 0.35418 0.17741 0.0
H155 H 0.15884 0.32788 0.18016 0.0
H156 H 0.27837 0.53518 0.11308 0.0
H157 H 0.319 0.51314 0.12654 0.0
H158 H 0.27522 0.47614 0.10155 0.0
H159 H 0.39329 0.42789 0.15079 0.0
H160 H 0.28867 0.33661 0.09111 0.0
H161 H 0.30229 0.44206 0.18378 0.0
H162 H 0.33608 0.49751 0.16714 0.0
H163 H 0.37086 0.46899 0.18047 0.0
H164 H 0.17533 0.33101 0.11165 0.0
H165 H 0.20397 0.3235 0.0856 0.0
H166 H 0.20558 0.38381 0.09322 0.0
C167 C 0.80913 0.19566 0.47347 0.0
C168 C 0.78759 0.20189 0.49394 0.0
C169 C 0.85675 0.23596 0.46689 0.0
C170 C 0.88343 0.28356 0.4811 0.0
C171 C 0.86324 0.2892 0.50235 0.0
C172 C 0.81562 0.24828 0.50853 0.0
C173 C 0.87732 0.22841 0.4442 0.0
C174 C 0.89077 0.33935 0.51805 0.0
C175 C 0.02512 0.38289 0.47448 0.0
C176 C 0.02021 0.41937 0.46171 0.0
C177 C 0.98079 0.33734 0.48027 0.0
C178 C 0.93079 0.32872 0.47316 0.0
C179 C 0.92599 0.36499 0.45954 0.0
C180 C 0.97102 0.41015 0.454 0.0
C181 C 0.98744 0.29953 0.49472 0.0
C182 C 0.87336 0.3571 0.45159 0.0
H183 H 0.78795 0.15992 0.4621 0.0
H184 H 0.79949 0.25349 0.52441 0.0
H185 H 0.87598 0.25465 0.43133 0.0
H186 H 0.91859 0.23897 0.44728 0.0
H187 H 0.85442 0.18761 0.43624 0.0
H188 H 0.87172 0.33626 0.5347 0.0
H189 H 0.93186 0.35048 0.52246 0.0
H190 H 0.89121 0.37134 0.50861 0.0
H191 H 0.06358 0.39072 0.48051 0.0
H192 H 0.96777 0.43895 0.44422 0.0
H193 H 0.96417 0.25935 0.48617 0.0
H194 H 0.9728 0.29926 0.5123 0.0
H195 H 0.02878 0.3098 0.49719 0.0
H196 H 0.84901 0.31819 0.44195 0.0
H197 H 0.87639 0.38738 0.44001 0.0
H198 H 0.85283 0.35828 0.46718 0.0
C199 C 0.56234 0.81898 0.85423 0.0
C200 C 0.59036 0.80024 0.84213 0.0
C201 C 0.55973 0.86198 0.84696 0.0
C202 C 0.58594 0.88691 0.82717 0.0
C203 C 0.61833 0.87144 0.81632 0.0
C204 C 0.62024 0.82823 0.82396 0.0
C205 C 0.52532 0.87782 0.85923 0.0
C206 C 0.64754 0.89765 0.79543 0.0
C207 C 0.51332 0.93815 0.79183 0.0
C208 C 0.5395 0.99049 0.80033 0.0
C209 C 0.52996 0.90449 0.79952 0.0
C210 C 0.57364 0.92404 0.81614 0.0
C211 C 0.60185 0.97779 0.82373 0.0
C212 C 0.58415 0.01051 0.81577 0.0
C213 C 0.49896 0.84743 0.79092 0.0
C214 C 0.64876 9e-05 0.84125 0.0
H215 H 0.53973 0.7981 0.8685 0.0
H216 H 0.64242 0.8144 0.8146 0.0
H217 H 0.54591 0.9207 0.86322 0.0
H218 H 0.49014 0.8668 0.84743 0.0
H219 H 0.51262 0.85871 0.8759 0.0
H220 H 0.67784 0.88754 0.79174 0.0
H221 H 0.61977 0.88501 0.7796 0.0
H222 H 0.66629 0.94067 0.79831 0.0
H223 H 0.47852 0.92308 0.77997 0.0
H224 H 0.60393 0.05122 0.82237 0.0
H225 H 0.47966 0.82387 0.80579 0.0
H226 H 0.5251 0.83415 0.78424 0.0
H227 H 0.4686 0.83939 0.7767 0.0
H228 H 0.63594 0.98696 0.8589 0.0
H229 H 0.67078 0.04342 0.84255 0.0
H230 H 0.67531 0.98581 0.83636 0.0
C231 C 0.84883 0.55042 0.15206 0.0
C232 C 0.84848 0.50319 0.14935 0.0
C233 C 0.80444 0.55302 0.14507 0.0
C234 C 0.75881 0.50712 0.13561 0.0
C235 C 0.75778 0.45901 0.13382 0.0
C236 C 0.80274 0.45776 0.14054 0.0
C237 C 0.80692 0.60499 0.14698 0.0
C238 C 0.70955 0.40896 0.12426 0.0
C239 C 0.62408 0.48958 0.13174 0.0
C240 C 0.61527 0.4901 0.1074 0.0
C241 C 0.67205 0.49848 0.14153 0.0
C242 C 0.71231 0.50878 0.12662 0.0
C243 C 0.70498 0.51322 0.10232 0.0
C244 C 0.65637 0.50345 0.09295 0.0
C245 C 0.67832 0.49321 0.16751 0.0
C246 C 0.74729 0.52474 0.08591 0.0
H247 H 0.88431 0.58561 0.15878 0.0
H248 H 0.80222 0.42104 0.1387 0.0
H249 H 0.80359 0.61668 0.12908 0.0
H250 H 0.77379 0.602 0.15635 0.0
H251 H 0.84385 0.63616 0.15636 0.0
H252 H 0.71444 0.37445 0.12529 0.0
H253 H 0.67582 0.40241 0.13418 0.0
H254 H 0.69998 0.41185 0.10557 0.0
H255 H 0.59279 0.48049 0.14308 0.0
H256 H 0.64986 0.50366 0.07412 0.0
H257 H 0.71588 0.52597 0.17553 0.0
H258 H 0.67871 0.45661 0.16994 0.0
H259 H 0.6462 0.49207 0.17714 0.0
H260 H 0.7851 0.55776 0.09358 0.0
H261 H 0.73822 0.53431 0.06837 0.0
H262 H 0.75199 0.49016 0.08339 0.0
C263 C 0.36981 0.90965 0.49875 0.0
C264 C 0.39992 0.94844 0.48396 0.0
C265 C 0.32536 0.86327 0.48964 0.0
C266 C 0.31164 0.85511 0.46509 0.0
C267 C 0.33969 0.89572 0.45034 0.0
C268 C 0.38329 0.94226 0.46004 0.0
C269 C 0.29554 0.82145 0.50604 0.0
C270 C 0.3267 0.88834 0.42405 0.0
C271 C 0.25323 0.71441 0.44137 0.0
C272 C 0.20048 0.69855 0.43799 0.0
C273 C 0.28998 0.76592 0.44937 0.0
C274 C 0.27317 0.80191 0.45461 0.0
C275 C 0.21983 0.78612 0.45084 0.0
C276 C 0.184 0.73446 0.44234 0.0
C277 C 0.34666 0.78147 0.45274 0.0
C278 C 0.20043 0.82312 0.45661 0.0
H279 H 0.38236 0.91457 0.5173 0.0
H280 H 0.40667 0.97206 0.4485 0.0
H281 H 0.253 0.80433 0.50224 0.0
H282 H 0.30428 0.78955 0.50331 0.0
H283 H 0.30598 0.83674 0.52483 0.0
H284 H 0.34697 0.92579 0.41562 0.0
H285 H 0.33868 0.86156 0.41615 0.0
H286 H 0.28416 0.87022 0.41986 0.0
H287 H 0.26556 0.68626 0.43791 0.0
H288 H 0.14291 0.72161 0.43981 0.0
H289 H 0.3601 0.79158 0.4717 0.0
H290 H 0.37084 0.81661 0.44327 0.0
H291 H 0.3536 0.74983 0.4463 0.0
H292 H 0.20647 0.83368 0.47587 0.0
H293 H 0.15841 0.80585 0.45113 0.0
H294 H 0.22287 0.85978 0.44788 0.0
C295 C 0.44005 0.39242 0.79465 0.0
C296 C 0.46918 0.41513 0.81628 0.0
C297 C 0.43391 0.3456 0.78454 0.0
C298 C 0.45762 0.3212 0.79634 0.0
C299 C 0.48444 0.34226 0.81879 0.0
C300 C 0.48975 0.3889 0.82852 0.0
C301 C 0.40449 0.32381 0.76071 0.0
C302 C 0.5101 0.31715 0.83195 0.0
C303 C 0.4271 0.1834 0.78014 0.0
C304 C 0.47024 0.19269 0.76778 0.0
C305 C 0.42075 0.22475 0.78849 0.0
C306 C 0.45872 0.27641 0.7845 0.0
C307 C 0.50085 0.28572 0.77095 0.0
C308 C 0.50603 0.24363 0.76269 0.0
C309 C 0.37496 0.21338 0.80259 0.0
C310 C 0.54219 0.34037 0.76637 0.0
H311 H 0.42366 0.41219 0.78512 0.0
H312 H 0.51198 0.40589 0.84532 0.0
H313 H 0.43225 0.32908 0.74728 0.0
H314 H 0.37665 0.28134 0.76074 0.0
H315 H 0.38275 0.34342 0.75533 0.0
H316 H 0.52617 0.3363 0.84994 0.0
H317 H 0.48184 0.27525 0.83343 0.0
H318 H 0.54236 0.31945 0.82206 0.0
H319 H 0.39907 0.14385 0.78382 0.0
H320 H 0.53964 0.2509 0.75331 0.0
H321 H 0.35581 0.23484 0.79635 0.0
H322 H 0.38877 0.22693 0.82135 0.0
H323 H 0.34562 0.17106 0.80153 0.0
H324 H 0.52404 0.36185 0.75902 0.0
H325 H 0.57003 0.34059 0.75397 0.0
H326 H 0.56434 0.36195 0.78321 0.0
C327 C 0.59654 0.8883 0.5273 0.0
C328 C 0.62534 0.92588 0.5117 0.0
C329 C 0.61044 0.8519 0.53389 0.0
C330 C 0.65425 0.85304 0.52468 0.0
C331 C 0.68272 0.88984 0.50843 0.0
C332 C 0.66786 0.92583 0.50208 0.0
C333 C 0.57889 0.81298 0.55115 0.0
C334 C 0.72959 0.892 0.49821 0.0
C335 C 0.71827 0.79407 0.56115 0.0
C336 C 0.69713 0.74472 0.54935 0.0
C337 C 0.70552 0.83034 0.55297 0.0
C338 C 0.67082 0.81639 0.5326 0.0
C339 C 0.65003 0.76652 0.5205 0.0
C340 C 0.66351 0.73113 0.52909 0.0
C341 C 0.72836 0.88313 0.56633 0.0
C342 C 0.61283 0.75022 0.4988 0.0
H343 H 0.56344 0.88777 0.53474 0.0
H344 H 0.69037 0.95473 0.49004 0.0
H345 H 0.56473 0.77269 0.54354 0.0
H346 H 0.60376 0.81923 0.56742 0.0
H347 H 0.54482 0.8161 0.55603 0.0
H348 H 0.74618 0.92146 0.48504 0.0
H349 H 0.76021 0.90173 0.51253 0.0
H350 H 0.71894 0.85328 0.48969 0.0
H351 H 0.74433 0.8041 0.57686 0.0
H352 H 0.64737 0.69261 0.5201 0.0
H353 H 0.69672 0.88783 0.57338 0.0
H354 H 0.74862 0.91447 0.55433 0.0
H355 H 0.75636 0.8886 0.58123 0.0
H356 H 0.57682 0.7498 0.50335 0.0
H357 H 0.602 0.71091 0.49089 0.0
H358 H 0.6305 0.77879 0.48537 0.0
C359 C 0.75347 0.64674 0.84697 0.0
C360 C 0.71328 0.62953 0.86217 0.0
C361 C 0.79572 0.63895 0.85155 0.0
C362 C 0.79739 0.61363 0.87175 0.0
C363 C 0.7592 0.60056 0.88813 0.0
C364 C 0.71765 0.60867 0.88312 0.0
C365 C 0.83624 0.6541 0.83389 0.0
C366 C 0.75968 0.5739 0.91 0.0
C367 C 0.84891 0.52072 0.87032 0.0
C368 C 0.89499 0.54854 0.88495 0.0
C369 C 0.81818 0.54271 0.86491 0.0
C370 C 0.83403 0.59386 0.87433 0.0
C371 C 0.88161 0.62299 0.88833 0.0
C372 C 0.91146 0.59982 0.8936 0.0
C373 C 0.76742 0.51015 0.85006 0.0
C374 C 0.89995 0.67777 0.89846 0.0
H375 H 0.7502 0.66299 0.83079 0.0
H376 H 0.68699 0.59617 0.89511 0.0
H377 H 0.87585 0.67239 0.84292 0.0
H378 H 0.82926 0.61859 0.82333 0.0
H379 H 0.83494 0.68152 0.82167 0.0
H380 H 0.73055 0.5716 0.92214 0.0
H381 H 0.75082 0.53365 0.90488 0.0
H382 H 0.79873 0.59481 0.91965 0.0
H383 H 0.83589 0.48095 0.86375 0.0
H384 H 0.94755 0.62167 0.90463 0.0
H385 H 0.76497 0.53205 0.8353 0.0
H386 H 0.73437 0.50136 0.86092 0.0
H387 H 0.76272 0.47269 0.84266 0.0
H388 H 0.89691 0.70144 0.88468 0.0
H389 H 0.94082 0.69754 0.90622 0.0
H390 H 0.87471 0.67662 0.91244 0.0
C391 C 0.13178 0.71481 0.19648 0.0
C392 C 0.13938 0.68746 0.17781 0.0
C393 C 0.17203 0.76402 0.2057 0.0
C394 C 0.22088 0.7863 0.19598 0.0
C395 C 0.22782 0.76037 0.17626 0.0
C396 C 0.18696 0.71125 0.1674 0.0
C397 C 0.16316 0.79077 0.22664 0.0
C398 C 0.27932 0.7832 0.16529 0.0
C399 C 0.32476 0.92824 0.20949 0.0
C400 C 0.3586 0.92424 0.22603 0.0
C401 C 0.27862 0.88384 0.20013 0.0
C402 C 0.26615 0.83443 0.20754 0.0
C403 C 0.29897 0.83044 0.225 0.0
C404 C 0.34489 0.87543 0.23401 0.0
C405 C 0.24434 0.88956 0.18166 0.0
C406 C 0.28678 0.77833 0.23341 0.0
H407 H 0.09507 0.69692 0.20459 0.0
H408 H 0.1931 0.69067 0.15286 0.0
H409 H 0.18583 0.79026 0.24248 0.0
H410 H 0.17704 0.83222 0.22375 0.0
H411 H 0.12145 0.77144 0.2303 0.0
H412 H 0.27703 0.76021 0.1489 0.0
H413 H 0.29276 0.82391 0.16113 0.0
H414 H 0.3092 0.78431 0.178 0.0
H415 H 0.33491 0.96608 0.20354 0.0
H416 H 0.37116 0.87205 0.24659 0.0
H417 H 0.20336 0.86936 0.18637 0.0
H418 H 0.24517 0.8709 0.16451 0.0
H419 H 0.25705 0.93108 0.1794 0.0
H420 H 0.2467 0.75742 0.23924 0.0
H421 H 0.31439 0.78237 0.2482 0.0
H422 H 0.28856 0.75371 0.21868 0.0
C423 C 0.53434 0.24312 0.51724 0.0
C424 C 0.58191 0.24442 0.51656 0.0
C425 C 0.53282 0.28768 0.52536 0.0
C426 C 0.58002 0.33443 0.53245 0.0
C427 C 0.62815 0.33644 0.53052 0.0
C428 C 0.62844 0.2913 0.52282 0.0
C429 C 0.48081 0.28402 0.52744 0.0
C430 C 0.67945 0.3858 0.53741 0.0
C431 C 0.59497 0.4684 0.54008 0.0
C432 C 0.60221 0.4779 0.5647 0.0
C433 C 0.58429 0.42041 0.52921 0.0
C434 C 0.57998 0.38075 0.54331 0.0
C435 C 0.58324 0.38865 0.56815 0.0
C436 C 0.59474 0.43727 0.57856 0.0
C437 C 0.58125 0.41357 0.50267 0.0
C438 C 0.57817 0.347 0.58381 0.0
H439 H 0.49833 0.20673 0.51253 0.0
H440 H 0.6653 0.29245 0.52204 0.0
H441 H 0.47406 0.28642 0.54633 0.0
H442 H 0.48038 0.31715 0.5195 0.0
H443 H 0.44819 0.24692 0.51882 0.0
H444 H 0.71336 0.38179 0.53317 0.0
H445 H 0.68149 0.41879 0.52824 0.0
H446 H 0.68271 0.396 0.55662 0.0
H447 H 0.59938 0.49915 0.52923 0.0
H448 H 0.60054 0.44417 0.59757 0.0
H449 H 0.54746 0.37527 0.496 0.0
H450 H 0.61685 0.41434 0.49713 0.0
H451 H 0.57807 0.4449 0.49425 0.0
H452 H 0.54394 0.30866 0.57752 0.0
H453 H 0.57417 0.3563 0.60243 0.0
H454 H 0.61323 0.34311 0.58319 0.0
C455 C 0.32818 0.58855 0.85596 0.0
C456 C 0.3437 0.5662 0.8382 0.0
C457 C 0.27543 0.57076 0.85843 0.0
C458 C 0.23725 0.52958 0.84278 0.0
C459 C 0.25255 0.50778 0.82441 0.0
C460 C 0.30566 0.52644 0.8223 0.0
C461 C 0.26051 0.59521 0.87814 0.0
C462 C 0.21279 0.46385 0.80738 0.0
C463 C 0.10308 0.45005 0.86494 0.0
C464 C 0.07674 0.47213 0.85406 0.0
C465 C 0.15535 0.46781 0.86107 0.0
C466 C 0.18128 0.50858 0.84607 0.0
C467 C 0.15421 0.53044 0.83487 0.0
C468 C 0.10199 0.51183 0.83905 0.0
C469 C 0.18304 0.4436 0.87329 0.0
C470 C 0.18061 0.574 0.81883 0.0
H471 H 0.35726 0.61943 0.86828 0.0
H472 H 0.31724 0.50888 0.80853 0.0
H473 H 0.23532 0.60965 0.87095 0.0
H474 H 0.23775 0.56548 0.89046 0.0
H475 H 0.29501 0.62822 0.88824 0.0
H476 H 0.23112 0.45263 0.79349 0.0
H477 H 0.18852 0.42913 0.81707 0.0
H478 H 0.18628 0.47527 0.7988 0.0
H479 H 0.08298 0.41934 0.87661 0.0
H480 H 0.08102 0.5287 0.83077 0.0
H481 H 0.21598 0.47363 0.88526 0.0
H482 H 0.1996 0.42853 0.86014 0.0
H483 H 0.15678 0.4111 0.88373 0.0
H484 H 0.2134 0.60871 0.82887 0.0
H485 H 0.1535 0.58546 0.81089 0.0
H486 H 0.19723 0.56199 0.80446 0.0
C487 C 0.83862 0.27258 0.15588 0.0
C488 C 0.88177 0.30054 0.17226 0.0
C489 C 0.79117 0.23289 0.16277 0.0
C490 C 0.78694 0.22079 0.18658 0.0
C491 C 0.83178 0.24478 0.20256 0.0
C492 C 0.87884 0.28446 0.1952 0.0
C493 C 0.74439 0.20763 0.14507 0.0
C494 C 0.82903 0.23211 0.22798 0.0
C495 C 0.65541 0.18616 0.20734 0.0
C496 C 0.62984 0.13182 0.20535 0.0
C497 C 0.70767 0.21568 0.20242 0.0
C498 C 0.73449 0.18983 0.19531 0.0
C499 C 0.70925 0.13474 0.19451 0.0
C500 C 0.65678 0.10621 0.19945 0.0
C501 C 0.73325 0.27439 0.20356 0.0
C502 C 0.73667 0.10591 0.18724 0.0
H503 H 0.84076 0.28409 0.138 0.0
H504 H 0.91213 0.3054 0.20795 0.0
H505 H 0.72233 0.16475 0.14608 0.0
H506 H 0.71788 0.2225 0.14913 0.0
H507 H 0.75554 0.21604 0.12675 0.0
H508 H 0.86829 0.24598 0.23676 0.0
H509 H 0.81087 0.25136 0.23761 0.0
H510 H 0.80456 0.1895 0.22942 0.0
H511 H 0.63396 0.2055 0.21184 0.0
H512 H 0.63633 0.06391 0.19785 0.0
H513 H 0.7421 0.28785 0.18561 0.0
H514 H 0.77065 0.29278 0.21457 0.0
H515 H 0.70816 0.28842 0.21092 0.0
H516 H 0.74096 0.10739 0.16802 0.0
H517 H 0.71478 0.06434 0.19123 0.0
H518 H 0.77635 0.1246 0.19624 0.0
C519 C 0.05659 0.51137 0.05921 0.0
C520 C 0.01068 0.48962 0.07095 0.0
C521 C 0.05507 0.51361 0.03464 0.0
C522 C 0.00664 0.49502 0.02164 0.0
C523 C 0.96022 0.47311 0.03344 0.0
C524 C 0.96276 0.47006 0.0579 0.0
C525 C 0.10521 0.5359 0.02259 0.0
C526 C 0.9079 0.45387 0.0203 0.0
C527 C 0.00044 0.54649 0.96261 0.0
C528 C 0.98736 0.50323 0.94685 0.0
C529 C 0.00811 0.54484 0.98694 0.0
C530 C 0.00418 0.4994 0.99576 0.0
C531 C -0.00578 0.45682 0.9799 0.0
C532 C 0.98529 0.45896 0.95569 0.0
C533 C 0.01808 0.59087 0.00329 0.0
C534 C 0.99094 0.40813 0.98857 0.0
H535 H 0.09369 0.52617 0.06923 0.0
H536 H 0.92721 0.45362 0.06691 0.0
H537 H 0.1023 0.5073 0.00853 0.0
H538 H 0.11224 0.57138 0.01404 0.0
H539 H 0.13929 0.54627 0.03507 0.0
H540 H 0.87557 0.43843 0.03213 0.0
H541 H 0.90812 0.48615 0.0112 0.0
H542 H 0.9 0.42257 0.00659 0.0
H543 H 0.00357 0.58144 0.956 0.0
H544 H 0.97471 0.42502 0.94385 0.0
H545 H 0.054 0.60446 0.01495 0.0
H546 H 0.98541 0.57889 0.01478 0.0
H547 H 0.02211 0.62409 0.99359 0.0
H548 H 0.02498 0.41842 0.00101 0.0
H549 H 0.98929 0.38131 0.9739 0.0
H550 H 0.95552 0.38703 0.99827 0.0
C551 C 0.57723 0.11241 0.40072 0.0
C552 C 0.57697 0.07181 0.41234 0.0
C553 C 0.56651 0.10761 0.37622 0.0
C554 C 0.55353 0.0604 0.36322 0.0
C555 C 0.55422 0.01965 0.37484 0.0
C556 C 0.56671 0.02617 0.39925 0.0
C557 C 0.56769 0.1525 0.36437 0.0
C558 C 0.53926 0.96821 0.3617 0.0
C559 C 0.46517 0.02506 0.30732 0.0
C560 C 0.49958 0.03406 0.28967 0.0
C561 C 0.48221 0.033 0.33124 0.0
C562 C 0.53541 0.05213 0.33784 0.0
C563 C 0.57079 0.06283 0.32024 0.0
C564 C 0.55236 0.05302 0.29638 0.0
C565 C 0.44305 0.02039 0.34947 0.0
C566 C 0.62804 0.08442 0.32663 0.0
H567 H 0.58561 0.14792 0.41082 0.0
H568 H 0.56608 0.99458 0.40826 0.0
H569 H 0.59142 0.16147 0.34894 0.0
H570 H 0.52767 0.14162 0.35778 0.0
H571 H 0.58386 0.18833 0.37653 0.0
H572 H 0.5441 0.94142 0.3731 0.0
H573 H 0.49797 0.94884 0.35462 0.0
H574 H 0.56316 0.97464 0.34648 0.0
H575 H 0.42463 0.01181 0.30247 0.0
H576 H 0.5793 0.05954 0.28302 0.0
H577 H 0.45338 0.0561 0.36078 0.0
H578 H 0.44376 0.9918 0.36109 0.0
H579 H 0.40276 0.00399 0.34139 0.0
H580 H 0.64391 0.12052 0.33853 0.0
H581 H 0.65092 0.09346 0.31089 0.0
H582 H 0.63364 0.05587 0.33629 0.0
C583 C 0.61182 0.65215 0.74464 0.0
C584 C 0.5612 0.62431 0.75204 0.0
C585 C 0.62114 0.64999 0.7208 0.0
C586 C 0.57885 0.61933 0.70392 0.0
C587 C 0.52748 0.59304 0.7111 0.0
C588 C 0.51927 0.59581 0.73506 0.0
C589 C 0.6765 0.6787 0.71384 0.0
C590 C 0.48136 0.56009 0.69361 0.0
C591 C 0.60205 0.63731 0.63898 0.0
C592 C 0.61076 0.59633 0.63265 0.0
C593 C 0.59102 0.64507 0.66205 0.0
C594 C 0.58882 0.61113 0.67917 0.0
C595 C 0.59714 0.56948 0.67281 0.0
C596 C 0.60806 0.56267 0.64969 0.0
C597 C 0.58216 0.68976 0.66817 0.0
C598 C 0.59536 0.53253 0.69055 0.0
H599 H 0.64451 0.67451 0.75755 0.0
H600 H 0.47997 0.57435 0.74053 0.0
H601 H 0.6878 0.65015 0.70761 0.0
H602 H 0.67987 0.70294 0.69906 0.0
H603 H 0.70452 0.70425 0.7287 0.0
H604 H 0.4437 0.54615 0.70162 0.0
H605 H 0.48238 0.58257 0.67845 0.0
H606 H 0.48313 0.52565 0.68661 0.0
H607 H 0.60371 0.66323 0.62586 0.0
H608 H 0.61573 0.53153 0.64508 0.0
H609 H 0.61184 0.71693 0.68215 0.0
H610 H 0.54352 0.67488 0.67528 0.0
H611 H 0.58409 0.71194 0.65273 0.0
H612 H 0.62573 0.5545 0.70518 0.0
H613 H 0.60159 0.50146 0.68264 0.0
H614 H 0.55716 0.51381 0.69831 0.0
C615 C 0.55524 0.03686 0.60423 0.0
C616 C 0.5889 0.08255 0.5937 0.0
C617 C 0.54606 0.03834 0.62809 0.0
C618 C 0.57068 0.08677 0.64172 0.0
C619 C 0.60651 0.1327 0.6315 0.0
C620 C 0.61542 0.13 0.60762 0.0
C621 C 0.5081 0.9884 0.63841 0.0
C622 C 0.63326 0.18513 0.64543 0.0
C623 C 0.49742 0.10123 0.69144 0.0
C624 C 0.52469 0.09817 0.7114 0.0
C625 C 0.51218 0.09771 0.66875 0.0
C626 C 0.55487 0.09011 0.66583 0.0
C627 C 0.58188 0.08567 0.68581 0.0
C628 C 0.56659 0.08995 0.70841 0.0
C629 C 0.48227 0.10258 0.64789 0.0
C630 C 0.62722 0.07699 0.68333 0.0
H631 H 0.53504 -0.0001 0.59367 0.0
H632 H 0.64149 0.16548 0.59963 0.0
H633 H 0.52512 0.9844 0.65532 0.0
H634 H 0.47239 0.98939 0.64219 0.0
H635 H 0.49677 0.95341 0.6263 0.0
H636 H 0.66352 0.21623 0.63562 0.0
H637 H 0.60402 0.19632 0.64967 0.0
H638 H 0.65169 0.18311 0.66236 0.0
H639 H 0.46431 0.10644 0.69354 0.0
H640 H 0.58813 0.08796 0.72374 0.0
H641 H 0.46514 0.06669 0.63579 0.0
H642 H 0.509 0.13561 0.63786 0.0
H643 H 0.45042 0.10905 0.65322 0.0
H644 H 0.61513 0.04153 0.67146 0.0
H645 H 0.64294 0.07252 0.70053 0.0
H646 H 0.65891 0.11036 0.67519 0.0
C647 C 0.4838 0.5951 0.94405 0.0
C648 C 0.51582 0.58388 0.93065 0.0
C649 C 0.47764 0.58333 0.96775 0.0
C650 C 0.50496 0.56087 0.97824 0.0
C651 C 0.53906 0.55173 0.96498 0.0
C652 C 0.54365 0.56287 0.94134 0.0
C653 C 0.44044 0.59294 0.98125 0.0
C654 C 0.56977 0.52882 0.97557 0.0
C655 C 0.52918 0.55769 0.04372 0.0
C656 C 0.49674 0.5044 0.04668 0.0
C657 C 0.52975 0.57776 0.02185 0.0
C658 C 0.49643 0.54392 0.0026 0.0
C659 C 0.4603 0.49125 0.00604 0.0
C660 C 0.4612 0.47201 0.02795 0.0
C661 C 0.56891 0.63416 0.01892 0.0
C662 C 0.42347 0.45404 0.98606 0.0
H663 H 0.4621 0.61116 0.93577 0.0
H664 H 0.56899 0.55479 0.93112 0.0
H665 H 0.40646 0.55502 0.98486 0.0
H666 H 0.45938 0.61461 0.99852 0.0
H667 H 0.42614 0.61522 0.97139 0.0
H668 H 0.59715 0.52743 0.96335 0.0
H669 H 0.59239 0.5521 0.99204 0.0
H670 H 0.54275 0.48855 0.98022 0.0
H671 H 0.55579 0.58341 0.05824 0.0
H672 H 0.43614 0.43075 0.02986 0.0
H673 H 0.55076 0.65262 0.00877 0.0
H674 H 0.60086 0.63625 0.00886 0.0
H675 H 0.58608 0.65707 0.03614 0.0
H676 H 0.40482 0.47229 0.97611 0.0
H677 H 0.39254 0.41712 0.99241 0.0
H678 H 0.44559 0.4444 0.97363 0.0
C679 C 0.07583 0.53141 0.26446 0.0
C680 C 0.02629 0.50999 0.25283 0.0
C681 C 0.08301 0.54026 0.28907 0.0
C682 C 0.03921 0.52525 0.30236 0.0
C683 C 0.98882 0.50235 0.29065 0.0
C684 C 0.98309 0.49602 0.26591 0.0
C685 C 0.13756 0.5664 0.30079 0.0
C686 C 0.94105 0.48392 0.30424 0.0
C687 C 0.06687 0.51087 0.3663 0.0
C688 C 0.07632 0.5584 0.37734 0.0
C689 C 0.05121 0.49798 0.34218 0.0
C690 C 0.04675 0.53422 0.3285 0.0
C691 C 0.05408 0.58121 0.33959 0.0
C692 C 0.06754 0.59212 0.36392 0.0
C693 C 0.04185 0.44655 0.33115 0.0
C694 C 0.05079 0.62146 0.32557 0.0
H695 H 0.10917 0.54252 0.25421 0.0
H696 H 0.94474 0.47904 0.25678 0.0
H697 H 0.1457 0.6018 0.31183 0.0
H698 H 0.14138 0.53975 0.31261 0.0
H699 H 0.16753 0.57789 0.28783 0.0
H700 H 0.90455 0.46514 0.2925 0.0
H701 H 0.93915 0.45553 0.3167 0.0
H702 H 0.94324 0.51722 0.31487 0.0
H703 H 0.07381 0.48445 0.37619 0.0
H704 H 0.07282 0.62809 0.37224 0.0
H705 H 0.07448 0.45342 0.32036 0.0
H706 H 0.00562 0.42737 0.31927 0.0
H707 H 0.03876 0.41949 0.34461 0.0
H708 H 0.08205 0.63662 0.31321 0.0
H709 H 0.05502 0.65486 0.33699 0.0
H710 H 0.01312 0.60362 0.31483 0.0
loop_
_geom_bond_atom_site_label_1
_geom_bond_atom_site_label_2
_geom_bond_distance
_geom_bond_site_symmetry_2
_ccdc_geom_bond_type
O0 Zn1 1.953 . S
O0 C16 1.225 . S
Zn1 O0 1.953 . S
Zn1 O2 1.949 . S
Zn1 O8 1.919 1_455 S
Zn1 O13 1.924 . S
O2 Zn1 1.949 . S
O2 Zn3 1.923 1_455 S
O2 Zn4 1.950 . S
O2 Zn5 1.945 . S
Zn3 O2 1.923 1_655 S
Zn3 O6 1.931 1_655 S
Zn3 O9 1.941 . S
Zn3 O10 1.965 . S
Zn4 O2 1.950 . S
Zn4 O11 1.938 1_455 S
Zn4 O12 1.906 . S
Zn4 O22 1.953 . S
Zn5 O2 1.945 . S
Zn5 O7 1.932 . S
Zn5 O14 1.977 . S
Zn5 O15 1.910 . S
O6 Zn3 1.931 1_455 S
O6 C17 1.233 . S
O7 Zn5 1.932 . S
O7 C17 1.307 . S
O8 Zn1 1.919 1_655 S
O8 C19 1.253 . S
O9 Zn3 1.941 . S
O9 C19 1.283 . S
O10 Zn3 1.965 . S
O10 C18 1.303 . S
O11 Zn4 1.938 1_655 S
O11 C18 1.247 . S
O12 Zn4 1.906 . S
O12 C20 1.304 . S
O13 Zn1 1.924 . S
O13 C21 1.311 . S
O14 Zn5 1.977 . S
O14 C20 1.272 . S
O15 Zn5 1.910 . S
O15 C21 1.231 . S
C16 O0 1.225 . S
C16 O22 1.298 . S
C17 O6 1.233 . S
C17 O7 1.307 . S
C18 O10 1.303 . S
C18 O11 1.247 . S
C19 O8 1.253 . S
C19 O9 1.283 . S
C20 O12 1.304 . S
C20 O14 1.272 . S
C21 O13 1.311 . S
C21 O15 1.231 . S
O22 Zn4 1.953 . S
O22 C16 1.298 . S
O23 Zn24 1.953 . S
O23 C39 1.225 . S
Zn24 O23 1.953 . S
Zn24 O25 1.949 . S
Zn24 O31 1.919 . S
Zn24 O36 1.924 . S
O25 Zn24 1.949 . S
O25 Zn26 1.923 . S
O25 Zn27 1.950 . S
O25 Zn28 1.945 1_545 S
Zn26 O25 1.923 . S
Zn26 O29 1.933 . S
Zn26 O32 1.941 . S
Zn26 O33 1.965 . S
Zn27 O25 1.950 . S
Zn27 O34 1.938 . S
Zn27 O35 1.906 1_545 S
Zn27 O45 1.953 . S
Zn28 O25 1.945 1_565 S
Zn28 O30 1.932 1_565 S
Zn28 O37 1.977 . S
Zn28 O38 1.910 . S
O29 Zn26 1.933 . S
O29 C40 1.226 . S
O30 Zn28 1.932 1_545 S
O30 C40 1.307 . S
O31 Zn24 1.919 . S
O31 C42 1.253 . S
O32 Zn26 1.941 . S
O32 C42 1.283 . S
O33 Zn26 1.965 . S
O33 C41 1.303 . S
O34 Zn27 1.938 . S
O34 C41 1.247 . S
O35 Zn27 1.906 1_565 S
O35 C43 1.304 . S
O36 Zn24 1.924 . S
O36 C44 1.311 1_545 S
O37 Zn28 1.977 . S
O37 C43 1.272 . S
O38 Zn28 1.910 . S
O38 C44 1.231 . S
C39 O23 1.225 . S
C39 O45 1.298 . S
C40 O29 1.226 . S
C40 O30 1.307 . S
C41 O33 1.303 . S
C41 O34 1.247 . S
C42 O31 1.253 . S
C42 O32 1.283 . S
C43 O35 1.304 . S
C43 O37 1.272 . S
C44 O36 1.311 1_565 S
C44 O38 1.231 . S
O45 Zn27 1.953 . S
O45 C39 1.298 . S
O46 Zn47 1.953 . S
O46 C62 1.225 . S
Zn47 O46 1.953 . S
Zn47 O48 1.949 . S
Zn47 O54 1.919 . S
Zn47 O59 1.924 . S
O48 Zn47 1.949 . S
O48 Zn49 1.923 . S
O48 Zn50 1.950 . S
O48 Zn51 1.945 . S
Zn49 O48 1.923 . S
Zn49 O52 1.933 . S
Zn49 O55 1.941 . S
Zn49 O56 1.965 . S
Zn50 O48 1.950 . S
Zn50 O57 1.938 . S
Zn50 O58 1.906 . S
Zn50 O68 1.953 . S
Zn51 O48 1.945 . S
Zn51 O53 1.932 . S
Zn51 O60 1.977 . S
Zn51 O61 1.910 . S
O52 Zn49 1.933 . S
O52 C63 1.226 . S
O53 Zn51 1.932 . S
O53 C63 1.307 . S
O54 Zn47 1.919 . S
O54 C65 1.253 . S
O55 Zn49 1.941 . S
O55 C65 1.283 . S
O56 Zn49 1.965 . S
O56 C64 1.303 . S
O57 Zn50 1.938 . S
O57 C64 1.247 . S
O58 Zn50 1.906 . S
O58 C66 1.304 . S
O59 Zn47 1.924 . S
O59 C67 1.311 . S
O60 Zn51 1.977 . S
O60 C66 1.272 . S
O61 Zn51 1.910 . S
O61 C67 1.231 . S
C62 O46 1.225 . S
C62 O68 1.298 . S
C63 O52 1.226 . S
C63 O53 1.307 . S
C64 O56 1.303 . S
C64 O57 1.247 . S
C65 O54 1.253 . S
C65 O55 1.283 . S
C66 O58 1.304 . S
C66 O60 1.272 . S
C67 O59 1.311 . S
C67 O61 1.231 . S
O68 Zn50 1.953 . S
O68 C62 1.298 . S
H69 C72 0.929 1_565 S
H70 C75 0.929 . S
H71 C77 0.930 . S
C72 H69 0.929 1_545 S
C72 C73 1.398 . S
C72 C74 1.396 . S
C73 C72 1.398 . S
C73 C77 1.407 . S
C74 C72 1.396 . S
C74 C75 1.394 . S
C75 H70 0.929 . S
C75 C74 1.394 . S
C75 C76 1.382 . S
C76 C75 1.382 . S
C76 C77 1.392 . S
C76 N78 1.420 . S
C77 H71 0.930 . S
C77 C73 1.407 . S
C77 C76 1.392 . S
N78 C76 1.420 . S
N78 C79 1.244 . S
C79 N78 1.244 . S
H80 C83 0.929 . S
H81 C86 0.929 . S
H82 C88 0.930 . S
C83 H80 0.929 . S
C83 C84 1.398 . S
C83 C85 1.396 . S
C84 C83 1.398 . S
C84 C88 1.407 . S
C85 C83 1.396 . S
C85 C86 1.394 . S
C86 H81 0.929 . S
C86 C85 1.394 . S
C86 C87 1.382 . S
C87 C86 1.382 . S
C87 C88 1.392 . S
C87 N89 1.420 . S
C88 H82 0.930 . S
C88 C84 1.407 . S
C88 C87 1.392 . S
N89 C87 1.420 . S
N89 C90 1.244 . S
C90 N89 1.244 . S
H91 C94 0.929 1_655 S
H92 C97 0.929 . S
H93 C99 0.930 . S
C94 H91 0.929 1_455 S
C94 C95 1.398 . S
C94 C96 1.396 . S
C95 C94 1.398 . S
C95 C99 1.407 . S
C96 C94 1.396 . S
C96 C97 1.394 . S
C97 H92 0.929 . S
C97 C96 1.394 . S
C97 C98 1.382 . S
C98 C97 1.382 . S
C98 C99 1.392 . S
C98 N100 1.420 . S
C99 H93 0.930 . S
C99 C95 1.407 . S
C99 C98 1.392 . S
N100 C98 1.420 . S
N100 C101 1.244 . S
C101 N100 1.244 . S
H102 C105 0.929 . S
H103 C108 0.929 1_655 S
H104 C110 0.930 . S
C105 H102 0.929 . S
C105 C106 1.398 . S
C105 C107 1.396 . S
C106 C105 1.398 . S
C106 C110 1.407 . S
C107 C105 1.396 . S
C107 C108 1.394 . S
C108 H103 0.929 1_455 S
C108 C107 1.394 . S
C108 C109 1.382 . S
C109 C108 1.382 . S
C109 C110 1.392 . S
C109 N111 1.420 1_455 S
C110 H104 0.930 . S
C110 C106 1.407 . S
C110 C109 1.392 . S
N111 C109 1.420 1_655 S
N111 C112 1.244 . S
C112 N111 1.244 . S
H113 C116 0.929 . S
H114 C119 0.929 1_565 S
H115 C121 0.930 . S
C116 H113 0.929 . S
C116 C117 1.398 . S
C116 C118 1.396 . S
C117 C116 1.398 . S
C117 C121 1.407 . S
C118 C116 1.396 . S
C118 C119 1.394 . S
C119 H114 0.929 1_545 S
C119 C118 1.394 . S
C119 C120 1.382 . S
C120 C119 1.382 . S
C120 C121 1.392 . S
C120 N122 1.420 1_545 S
C121 H115 0.930 . S
C121 C117 1.407 . S
C121 C120 1.392 . S
N122 C120 1.420 1_565 S
N122 C123 1.244 . S
C123 N122 1.244 . S
H124 C127 0.929 . S
H125 C130 0.929 . S
H126 C132 0.930 . S
C127 H124 0.929 . S
C127 C128 1.398 . S
C127 C129 1.396 . S
C128 C127 1.398 . S
C128 C132 1.407 . S
C129 C127 1.396 . S
C129 C130 1.394 . S
C130 H125 0.929 . S
C130 C129 1.394 . S
C130 C131 1.382 . S
C131 C130 1.382 . S
C131 C132 1.392 . S
C131 N133 1.420 . S
C132 H126 0.930 . S
C132 C128 1.407 . S
C132 C131 1.392 . S
N133 C131 1.420 . S
N133 C134 1.244 . S
C134 N133 1.244 . S
C135 C136 1.391 . S
C135 C137 1.394 . S
C135 H151 0.931 . S
C136 C135 1.391 . S
C136 C140 1.376 . S
C137 C135 1.394 . S
C137 C138 1.369 . S
C137 C141 1.531 . S
C138 C137 1.369 . S
C138 C139 1.410 . S
C138 C146 1.503 . S
C139 C138 1.410 . S
C139 C140 1.392 . S
C139 C142 1.511 . S
C140 C136 1.376 . S
C140 C139 1.392 . S
C140 H152 0.929 . S
C141 C137 1.531 . S
C141 H153 0.960 . S
C141 H154 0.962 . S
C141 H155 0.960 . S
C142 C139 1.511 . S
C142 H156 0.961 . S
C142 H157 0.961 . S
C142 H158 0.961 . S
C143 C144 1.370 . S
C143 C145 1.363 . S
C143 H159 0.931 . S
C144 C143 1.370 . S
C144 C148 1.408 . S
C145 C143 1.363 . S
C145 C146 1.370 . S
C145 C149 1.524 . S
C146 C138 1.503 . S
C146 C145 1.370 . S
C146 C147 1.403 . S
C147 C146 1.403 . S
C147 C148 1.404 . S
C147 C150 1.539 . S
C148 C144 1.408 . S
C148 C147 1.404 . S
C148 H160 0.930 . S
C149 C145 1.524 . S
C149 H161 0.956 . S
C149 H162 0.961 . S
C149 H163 0.961 . S
C150 C147 1.539 . S
C150 H164 0.958 . S
C150 H165 0.961 . S
C150 H166 0.960 . S
H151 C135 0.931 . S
H152 C140 0.929 . S
H153 C141 0.960 . S
H154 C141 0.962 . S
H155 C141 0.960 . S
H156 C142 0.961 . S
H157 C142 0.961 . S
H158 C142 0.961 . S
H159 C143 0.931 . S
H160 C148 0.930 . S
H161 C149 0.956 . S
H162 C149 0.961 . S
H163 C149 0.961 . S
H164 C150 0.958 . S
H165 C150 0.961 . S
H166 C150 0.960 . S
C167 C168 1.391 . S
C167 C169 1.394 . S
C167 H183 0.931 . S
C168 C167 1.391 . S
C168 C172 1.376 . S
C169 C167 1.394 . S
C169 C170 1.369 . S
C169 C173 1.531 . S
C170 C169 1.369 . S
C170 C171 1.410 . S
C170 C178 1.503 . S
C171 C170 1.410 . S
C171 C172 1.392 . S
C171 C174 1.511 . S
C172 C168 1.376 . S
C172 C171 1.392 . S
C172 H184 0.929 . S
C173 C169 1.531 . S
C173 H185 0.960 . S
C173 H186 0.962 . S
C173 H187 0.960 . S
C174 C171 1.511 . S
C174 H188 0.961 . S
C174 H189 0.961 . S
C174 H190 0.961 . S
C175 C176 1.370 . S
C175 C177 1.363 . S
C175 H191 0.931 . S
C176 C175 1.370 . S
C176 C180 1.408 . S
C177 C175 1.363 . S
C177 C178 1.370 . S
C177 C181 1.524 . S
C178 C170 1.503 . S
C178 C177 1.370 . S
C178 C179 1.403 . S
C179 C178 1.403 . S
C179 C180 1.404 . S
C179 C182 1.539 . S
C180 C176 1.408 . S
C180 C179 1.404 . S
C180 H192 0.930 . S
C181 C177 1.524 . S
C181 H193 0.956 . S
C181 H194 0.961 . S
C181 H195 0.961 . S
C182 C179 1.539 . S
C182 H196 0.958 . S
C182 H197 0.961 . S
C182 H198 0.960 . S
H183 C167 0.931 . S
H184 C172 0.929 . S
H185 C173 0.960 . S
H186 C173 0.962 . S
H187 C173 0.960 . S
H188 C174 0.961 . S
H189 C174 0.961 . S
H190 C174 0.961 . S
H191 C175 0.931 . S
H192 C180 0.930 . S
H193 C181 0.956 . S
H194 C181 0.961 . S
H195 C181 0.961 . S
H196 C182 0.958 . S
H197 C182 0.961 . S
H198 C182 0.960 . S
C199 C200 1.391 . S
C199 C201 1.394 . S
C199 H215 0.931 . S
C200 C199 1.391 . S
C200 C204 1.376 . S
C201 C199 1.394 . S
C201 C202 1.369 . S
C201 C205 1.531 . S
C202 C201 1.369 . S
C202 C203 1.410 . S
C202 C210 1.503 . S
C203 C202 1.410 . S
C203 C204 1.392 . S
C203 C206 1.511 . S
C204 C200 1.376 . S
C204 C203 1.392 . S
C204 H216 0.929 . S
C205 C201 1.531 . S
C205 H217 0.960 . S
C205 H218 0.962 . S
C205 H219 0.960 . S
C206 C203 1.511 . S
C206 H220 0.961 . S
C206 H221 0.961 . S
C206 H222 0.961 . S
C207 C208 1.370 . S
C207 C209 1.363 . S
C207 H223 0.931 . S
C208 C207 1.370 . S
C208 C212 1.408 . S
C209 C207 1.363 . S
C209 C210 1.370 . S
C209 C213 1.524 . S
C210 C202 1.503 . S
C210 C209 1.370 . S
C210 C211 1.403 . S
C211 C210 1.403 . S
C211 C212 1.404 . S
C211 C214 1.539 . S
C212 C208 1.408 . S
C212 C211 1.404 . S
C212 H224 0.930 . S
C213 C209 1.524 . S
C213 H225 0.956 . S
C213 H226 0.961 . S
C213 H227 0.961 . S
C214 C211 1.539 . S
C214 H228 0.958 . S
C214 H229 0.961 . S
C214 H230 0.960 . S
H215 C199 0.931 . S
H216 C204 0.929 . S
H217 C205 0.960 . S
H218 C205 0.962 . S
H219 C205 0.960 . S
H220 C206 0.961 . S
H221 C206 0.961 . S
H222 C206 0.961 . S
H223 C207 0.931 . S
H224 C212 0.930 . S
H225 C213 0.956 . S
H226 C213 0.961 . S
H227 C213 0.961 . S
H228 C214 0.958 . S
H229 C214 0.961 . S
H230 C214 0.960 . S
C231 C232 1.391 . S
C231 C233 1.394 . S
C231 H247 0.931 . S
C232 C231 1.391 . S
C232 C236 1.376 . S
C233 C231 1.394 . S
C233 C234 1.369 . S
C233 C237 1.531 . S
C234 C233 1.369 . S
C234 C235 1.410 . S
C234 C242 1.503 . S
C235 C234 1.410 . S
C235 C236 1.392 . S
C235 C238 1.511 . S
C236 C232 1.376 . S
C236 C235 1.392 . S
C236 H248 0.929 . S
C237 C233 1.531 . S
C237 H249 0.960 . S
C237 H250 0.962 . S
C237 H251 0.960 . S
C238 C235 1.511 . S
C238 H252 0.961 . S
C238 H253 0.961 . S
C238 H254 0.961 . S
C239 C240 1.370 . S
C239 C241 1.363 . S
C239 H255 0.931 . S
C240 C239 1.370 . S
C240 C244 1.408 . S
C241 C239 1.363 . S
C241 C242 1.370 . S
C241 C245 1.524 . S
C242 C234 1.503 . S
C242 C241 1.370 . S
C242 C243 1.403 . S
C243 C242 1.403 . S
C243 C244 1.404 . S
C243 C246 1.539 . S
C244 C240 1.408 . S
C244 C243 1.404 . S
C244 H256 0.930 . S
C245 C241 1.524 . S
C245 H257 0.956 . S
C245 H258 0.961 . S
C245 H259 0.961 . S
C246 C243 1.539 . S
C246 H260 0.958 . S
C246 H261 0.961 . S
C246 H262 0.960 . S
H247 C231 0.931 . S
H248 C236 0.929 . S
H249 C237 0.960 . S
H250 C237 0.962 . S
H251 C237 0.960 . S
H252 C238 0.961 . S
H253 C238 0.961 . S
H254 C238 0.961 . S
H255 C239 0.931 . S
H256 C244 0.930 . S
H257 C245 0.956 . S
H258 C245 0.961 . S
H259 C245 0.961 . S
H260 C246 0.958 . S
H261 C246 0.961 . S
H262 C246 0.960 . S
C263 C264 1.391 . S
C263 C265 1.394 . S
C263 H279 0.931 . S
C264 C263 1.391 . S
C264 C268 1.376 . S
C265 C263 1.394 . S
C265 C266 1.369 . S
C265 C269 1.531 . S
C266 C265 1.369 . S
C266 C267 1.410 . S
C266 C274 1.503 . S
C267 C266 1.410 . S
C267 C268 1.392 . S
C267 C270 1.511 . S
C268 C264 1.376 . S
C268 C267 1.392 . S
C268 H280 0.929 . S
C269 C265 1.531 . S
C269 H281 0.960 . S
C269 H282 0.962 . S
C269 H283 0.960 . S
C270 C267 1.511 . S
C270 H284 0.961 . S
C270 H285 0.961 . S
C270 H286 0.961 . S
C271 C272 1.370 . S
C271 C273 1.363 . S
C271 H287 0.931 . S
C272 C271 1.370 . S
C272 C276 1.408 . S
C273 C271 1.363 . S
C273 C274 1.370 . S
C273 C277 1.524 . S
C274 C266 1.503 . S
C274 C273 1.370 . S
C274 C275 1.403 . S
C275 C274 1.403 . S
C275 C276 1.404 . S
C275 C278 1.539 . S
C276 C272 1.408 . S
C276 C275 1.404 . S
C276 H288 0.930 . S
C277 C273 1.524 . S
C277 H289 0.956 . S
C277 H290 0.961 . S
C277 H291 0.961 . S
C278 C275 1.539 . S
C278 H292 0.958 . S
C278 H293 0.961 . S
C278 H294 0.960 . S
H279 C263 0.931 . S
H280 C268 0.929 . S
H281 C269 0.960 . S
H282 C269 0.962 . S
H283 C269 0.960 . S
H284 C270 0.961 . S
H285 C270 0.961 . S
H286 C270 0.961 . S
H287 C271 0.931 . S
H288 C276 0.930 . S
H289 C277 0.956 . S
H290 C277 0.961 . S
H291 C277 0.961 . S
H292 C278 0.958 . S
H293 C278 0.961 . S
H294 C278 0.960 . S
C295 C296 1.391 . S
C295 C297 1.394 . S
C295 H311 0.931 . S
C296 C295 1.391 . S
C296 C300 1.376 . S
C297 C295 1.394 . S
C297 C298 1.369 . S
C297 C301 1.531 . S
C298 C297 1.369 . S
C298 C299 1.410 . S
C298 C306 1.503 . S
C299 C298 1.410 . S
C299 C300 1.392 . S
C299 C302 1.511 . S
C300 C296 1.376 . S
C300 C299 1.392 . S
C300 H312 0.929 . S
C301 C297 1.531 . S
C301 H313 0.960 . S
C301 H314 0.962 . S
C301 H315 0.960 . S
C302 C299 1.511 . S
C302 H316 0.961 . S
C302 H317 0.961 . S
C302 H318 0.961 . S
C303 C304 1.370 . S
C303 C305 1.363 . S
C303 H319 0.931 . S
C304 C303 1.370 . S
C304 C308 1.408 . S
C305 C303 1.363 . S
C305 C306 1.370 . S
C305 C309 1.524 . S
C306 C298 1.503 . S
C306 C305 1.370 . S
C306 C307 1.403 . S
C307 C306 1.403 . S
C307 C308 1.404 . S
C307 C310 1.539 . S
C308 C304 1.408 . S
C308 C307 1.404 . S
C308 H320 0.930 . S
C309 C305 1.524 . S
C309 H321 0.956 . S
C309 H322 0.961 . S
C309 H323 0.961 . S
C310 C307 1.539 . S
C310 H324 0.958 . S
C310 H325 0.961 . S
C310 H326 0.960 . S
H311 C295 0.931 . S
H312 C300 0.929 . S
H313 C301 0.960 . S
H314 C301 0.962 . S
H315 C301 0.960 . S
H316 C302 0.961 . S
H317 C302 0.961 . S
H318 C302 0.961 . S
H319 C303 0.931 . S
H320 C308 0.930 . S
H321 C309 0.956 . S
H322 C309 0.961 . S
H323 C309 0.961 . S
H324 C310 0.958 . S
H325 C310 0.961 . S
H326 C310 0.960 . S
C327 C328 1.391 . S
C327 C329 1.394 . S
C327 H343 0.931 . S
C328 C327 1.391 . S
C328 C332 1.376 . S
C329 C327 1.394 . S
C329 C330 1.369 . S
C329 C333 1.531 . S
C330 C329 1.369 . S
C330 C331 1.410 . S
C330 C338 1.503 . S
C331 C330 1.410 . S
C331 C332 1.392 . S
C331 C334 1.511 . S
C332 C328 1.376 . S
C332 C331 1.392 . S
C332 H344 0.929 . S
C333 C329 1.531 . S
C333 H345 0.960 . S
C333 H346 0.962 . S
C333 H347 0.960 . S
C334 C331 1.511 . S
C334 H348 0.961 . S
C334 H349 0.961 . S
C334 H350 0.961 . S
C335 C336 1.370 . S
C335 C337 1.363 . S
C335 H351 0.931 . S
C336 C335 1.370 . S
C336 C340 1.408 . S
C337 C335 1.363 . S
C337 C338 1.370 . S
C337 C341 1.524 . S
C338 C330 1.503 . S
C338 C337 1.370 . S
C338 C339 1.403 . S
C339 C338 1.403 . S
C339 C340 1.404 . S
C339 C342 1.539 . S
C340 C336 1.408 . S
C340 C339 1.404 . S
C340 H352 0.930 . S
C341 C337 1.524 . S
C341 H353 0.956 . S
C341 H354 0.961 . S
C341 H355 0.961 . S
C342 C339 1.539 . S
C342 H356 0.958 . S
C342 H357 0.961 . S
C342 H358 0.960 . S
H343 C327 0.931 . S
H344 C332 0.929 . S
H345 C333 0.960 . S
H346 C333 0.962 . S
H347 C333 0.960 . S
H348 C334 0.961 . S
H349 C334 0.961 . S
H350 C334 0.961 . S
H351 C335 0.931 . S
H352 C340 0.930 . S
H353 C341 0.956 . S
H354 C341 0.961 . S
H355 C341 0.961 . S
H356 C342 0.958 . S
H357 C342 0.961 . S
H358 C342 0.960 . S
C359 C360 1.391 . S
C359 C361 1.394 . S
C359 H375 0.931 . S
C360 C359 1.391 . S
C360 C364 1.376 . S
C361 C359 1.394 . S
C361 C362 1.369 . S
C361 C365 1.531 . S
C362 C361 1.369 . S
C362 C363 1.410 . S
C362 C370 1.503 . S
C363 C362 1.410 . S
C363 C364 1.392 . S
C363 C366 1.511 . S
C364 C360 1.376 . S
C364 C363 1.392 . S
C364 H376 0.929 . S
C365 C361 1.531 . S
C365 H377 0.960 . S
C365 H378 0.962 . S
C365 H379 0.960 . S
C366 C363 1.511 . S
C366 H380 0.961 . S
C366 H381 0.961 . S
C366 H382 0.961 . S
C367 C368 1.370 . S
C367 C369 1.363 . S
C367 H383 0.931 . S
C368 C367 1.370 . S
C368 C372 1.408 . S
C369 C367 1.363 . S
C369 C370 1.370 . S
C369 C373 1.524 . S
C370 C362 1.503 . S
C370 C369 1.370 . S
C370 C371 1.403 . S
C371 C370 1.403 . S
C371 C372 1.404 . S
C371 C374 1.539 . S
C372 C368 1.408 . S
C372 C371 1.404 . S
C372 H384 0.930 1_655 S
C373 C369 1.524 . S
C373 H385 0.956 . S
C373 H386 0.961 . S
C373 H387 0.961 . S
C374 C371 1.539 . S
C374 H388 0.958 . S
C374 H389 0.961 . S
C374 H390 0.960 . S
H375 C359 0.931 . S
H376 C364 0.929 . S
H377 C365 0.960 . S
H378 C365 0.962 . S
H379 C365 0.960 . S
H380 C366 0.961 . S
H381 C366 0.961 . S
H382 C366 0.961 . S
H383 C367 0.931 . S
H384 C372 0.930 1_455 S
H385 C373 0.956 . S
H386 C373 0.961 . S
H387 C373 0.961 . S
H388 C374 0.958 . S
H389 C374 0.961 . S
H390 C374 0.960 . S
C391 C392 1.391 . S
C391 C393 1.394 . S
C391 H407 0.931 . S
C392 C391 1.391 . S
C392 C396 1.376 . S
C393 C391 1.394 . S
C393 C394 1.369 . S
C393 C397 1.531 . S
C394 C393 1.369 . S
C394 C395 1.410 . S
C394 C402 1.503 . S
C395 C394 1.410 . S
C395 C396 1.392 . S
C395 C398 1.511 . S
C396 C392 1.376 . S
C396 C395 1.392 . S
C396 H408 0.929 . S
C397 C393 1.531 . S
C397 H409 0.960 . S
C397 H410 0.962 . S
C397 H411 0.960 . S
C398 C395 1.511 . S
C398 H412 0.961 . S
C398 H413 0.961 . S
C398 H414 0.961 . S
C399 C400 1.370 . S
C399 C401 1.363 . S
C399 H415 0.931 . S
C400 C399 1.370 . S
C400 C404 1.408 . S
C401 C399 1.363 . S
C401 C402 1.370 . S
C401 C405 1.524 . S
C402 C394 1.503 . S
C402 C401 1.370 . S
C402 C403 1.403 . S
C403 C402 1.403 . S
C403 C404 1.404 . S
C403 C406 1.539 . S
C404 C400 1.408 . S
C404 C403 1.404 . S
C404 H416 0.930 . S
C405 C401 1.524 . S
C405 H417 0.956 . S
C405 H418 0.961 . S
C405 H419 0.961 . S
C406 C403 1.539 . S
C406 H420 0.958 . S
C406 H421 0.961 . S
C406 H422 0.960 . S
H407 C391 0.931 . S
H408 C396 0.929 . S
H409 C397 0.960 . S
H410 C397 0.962 . S
H411 C397 0.960 . S
H412 C398 0.961 . S
H413 C398 0.961 . S
H414 C398 0.961 . S
H415 C399 0.931 . S
H416 C404 0.930 . S
H417 C405 0.956 . S
H418 C405 0.961 . S
H419 C405 0.961 . S
H420 C406 0.958 . S
H421 C406 0.961 . S
H422 C406 0.960 . S
C423 C424 1.391 . S
C423 C425 1.394 . S
C423 H439 0.931 . S
C424 C423 1.391 . S
C424 C428 1.376 . S
C425 C423 1.394 . S
C425 C426 1.369 . S
C425 C429 1.531 . S
C426 C425 1.369 . S
C426 C427 1.410 . S
C426 C434 1.503 . S
C427 C426 1.410 . S
C427 C428 1.392 . S
C427 C430 1.511 . S
C428 C424 1.376 . S
C428 C427 1.392 . S
C428 H440 0.929 . S
C429 C425 1.531 . S
C429 H441 0.960 . S
C429 H442 0.962 . S
C429 H443 0.960 . S
C430 C427 1.511 . S
C430 H444 0.961 . S
C430 H445 0.961 . S
C430 H446 0.961 . S
C431 C432 1.370 . S
C431 C433 1.363 . S
C431 H447 0.931 . S
C432 C431 1.370 . S
C432 C436 1.408 . S
C433 C431 1.363 . S
C433 C434 1.370 . S
C433 C437 1.524 . S
C434 C426 1.503 . S
C434 C433 1.370 . S
C434 C435 1.403 . S
C435 C434 1.403 . S
C435 C436 1.404 . S
C435 C438 1.539 . S
C436 C432 1.408 . S
C436 C435 1.404 . S
C436 H448 0.930 . S
C437 C433 1.524 . S
C437 H449 0.956 . S
C437 H450 0.961 . S
C437 H451 0.961 . S
C438 C435 1.539 . S
C438 H452 0.958 . S
C438 H453 0.961 . S
C438 H454 0.960 . S
H439 C423 0.931 . S
H440 C428 0.929 . S
H441 C429 0.960 . S
H442 C429 0.962 . S
H443 C429 0.960 . S
H444 C430 0.961 . S
H445 C430 0.961 . S
H446 C430 0.961 . S
H447 C431 0.931 . S
H448 C436 0.930 . S
H449 C437 0.956 . S
H450 C437 0.961 . S
H451 C437 0.961 . S
H452 C438 0.958 . S
H453 C438 0.961 . S
H454 C438 0.960 . S
C455 C456 1.391 . S
C455 C457 1.394 . S
C455 H471 0.931 . S
C456 C455 1.391 . S
C456 C460 1.376 . S
C457 C455 1.394 . S
C457 C458 1.369 . S
C457 C461 1.531 . S
C458 C457 1.369 . S
C458 C459 1.410 . S
C458 C466 1.503 . S
C459 C458 1.410 . S
C459 C460 1.392 . S
C459 C462 1.511 . S
C460 C456 1.376 . S
C460 C459 1.392 . S
C460 H472 0.929 . S
C461 C457 1.531 . S
C461 H473 0.960 . S
C461 H474 0.962 . S
C461 H475 0.960 . S
C462 C459 1.511 . S
C462 H476 0.961 . S
C462 H477 0.961 . S
C462 H478 0.961 . S
C463 C464 1.370 . S
C463 C465 1.363 . S
C463 H479 0.931 . S
C464 C463 1.370 . S
C464 C468 1.408 . S
C465 C463 1.363 . S
C465 C466 1.370 . S
C465 C469 1.524 . S
C466 C458 1.503 . S
C466 C465 1.370 . S
C466 C467 1.403 . S
C467 C466 1.403 . S
C467 C468 1.404 . S
C467 C470 1.539 . S
C468 C464 1.408 . S
C468 C467 1.404 . S
C468 H480 0.930 . S
C469 C465 1.524 . S
C469 H481 0.956 . S
C469 H482 0.961 . S
C469 H483 0.961 . S
C470 C467 1.539 . S
C470 H484 0.958 . S
C470 H485 0.961 . S
C470 H486 0.960 . S
H471 C455 0.931 . S
H472 C460 0.929 . S
H473 C461 0.960 . S
H474 C461 0.962 . S
H475 C461 0.960 . S
H476 C462 0.961 . S
H477 C462 0.961 . S
H478 C462 0.961 . S
H479 C463 0.931 . S
H480 C468 0.930 . S
H481 C469 0.956 . S
H482 C469 0.961 . S
H483 C469 0.961 . S
H484 C470 0.958 . S
H485 C470 0.961 . S
H486 C470 0.960 . S
C487 C488 1.391 . S
C487 C489 1.394 . S
C487 H503 0.931 . S
C488 C487 1.391 . S
C488 C492 1.376 . S
C489 C487 1.394 . S
C489 C490 1.369 . S
C489 C493 1.531 . S
C490 C489 1.369 . S
C490 C491 1.410 . S
C490 C498 1.503 . S
C491 C490 1.410 . S
C491 C492 1.392 . S
C491 C494 1.511 . S
C492 C488 1.376 . S
C492 C491 1.392 . S
C492 H504 0.929 . S
C493 C489 1.531 . S
C493 H505 0.960 . S
C493 H506 0.962 . S
C493 H507 0.960 . S
C494 C491 1.511 . S
C494 H508 0.961 . S
C494 H509 0.961 . S
C494 H510 0.961 . S
C495 C496 1.370 . S
C495 C497 1.363 . S
C495 H511 0.931 . S
C496 C495 1.370 . S
C496 C500 1.408 . S
C497 C495 1.363 . S
C497 C498 1.370 . S
C497 C501 1.524 . S
C498 C490 1.503 . S
C498 C497 1.370 . S
C498 C499 1.403 . S
C499 C498 1.403 . S
C499 C500 1.404 . S
C499 C502 1.539 . S
C500 C496 1.408 . S
C500 C499 1.404 . S
C500 H512 0.930 . S
C501 C497 1.524 . S
C501 H513 0.956 . S
C501 H514 0.961 . S
C501 H515 0.961 . S
C502 C499 1.539 . S
C502 H516 0.958 . S
C502 H517 0.961 . S
C502 H518 0.960 . S
H503 C487 0.931 . S
H504 C492 0.929 . S
H505 C493 0.960 . S
H506 C493 0.962 . S
H507 C493 0.960 . S
H508 C494 0.961 . S
H509 C494 0.961 . S
H510 C494 0.961 . S
H511 C495 0.931 . S
H512 C500 0.930 . S
H513 C501 0.956 . S
H514 C501 0.961 . S
H515 C501 0.961 . S
H516 C502 0.958 . S
H517 C502 0.961 . S
H518 C502 0.960 . S
C519 C520 1.391 . S
C519 C521 1.394 . S
C519 H535 0.931 . S
C520 C519 1.391 . S
C520 C524 1.376 . S
C521 C519 1.394 . S
C521 C522 1.369 . S
C521 C525 1.531 . S
C522 C521 1.369 . S
C522 C523 1.410 . S
C522 C530 1.503 . S
C523 C522 1.410 . S
C523 C524 1.392 . S
C523 C526 1.511 1_455 S
C524 C520 1.376 . S
C524 C523 1.392 . S
C524 H536 0.929 1_455 S
C525 C521 1.531 . S
C525 H537 0.960 . S
C525 H538 0.962 . S
C525 H539 0.960 . S
C526 C523 1.511 1_655 S
C526 H540 0.961 . S
C526 H541 0.961 . S
C526 H542 0.961 . S
C527 C528 1.370 . S
C527 C529 1.363 . S
C527 H543 0.931 . S
C528 C527 1.370 . S
C528 C532 1.408 . S
C529 C527 1.363 . S
C529 C530 1.370 1_556 S
C529 C533 1.524 1_556 S
C530 C522 1.503 . S
C530 C529 1.370 1_554 S
C530 C531 1.403 1_554 S
C531 C530 1.403 1_556 S
C531 C532 1.404 . S
C531 C534 1.543 1_455 S
C532 C528 1.408 . S
C532 C531 1.404 . S
C532 H544 0.930 1_455 S
C533 C529 1.524 1_554 S
C533 H545 0.956 . S
C533 H546 0.961 . S
C533 H547 0.961 1_554 S
C534 C531 1.543 1_655 S
C534 H548 0.956 1_556 S
C534 H549 0.966 . S
C534 H550 0.954 1_556 S
H535 C519 0.931 . S
H536 C524 0.929 1_655 S
H537 C525 0.960 . S
H538 C525 0.962 . S
H539 C525 0.960 . S
H540 C526 0.961 . S
H541 C526 0.961 . S
H542 C526 0.961 . S
H543 C527 0.931 . S
H544 C532 0.930 1_655 S
H545 C533 0.956 . S
H546 C533 0.961 . S
H547 C533 0.961 1_556 S
H548 C534 0.956 1_554 S
H549 C534 0.966 . S
H550 C534 0.954 1_554 S
C551 C552 1.391 . S
C551 C553 1.394 . S
C551 H567 0.931 . S
C552 C551 1.391 . S
C552 C556 1.376 . S
C553 C551 1.394 . S
C553 C554 1.369 . S
C553 C557 1.531 . S
C554 C553 1.369 . S
C554 C555 1.410 . S
C554 C562 1.503 . S
C555 C554 1.410 . S
C555 C556 1.392 . S
C555 C558 1.511 1_545 S
C556 C552 1.376 . S
C556 C555 1.392 . S
C556 H568 0.929 1_545 S
C557 C553 1.531 . S
C557 H569 0.960 . S
C557 H570 0.962 . S
C557 H571 0.960 . S
C558 C555 1.511 1_565 S
C558 H572 0.961 . S
C558 H573 0.961 . S
C558 H574 0.961 . S
C559 C560 1.370 . S
C559 C561 1.363 . S
C559 H575 0.931 . S
C560 C559 1.370 . S
C560 C564 1.408 . S
C561 C559 1.363 . S
C561 C562 1.370 . S
C561 C565 1.524 . S
C562 C554 1.503 . S
C562 C561 1.370 . S
C562 C563 1.403 . S
C563 C562 1.403 . S
C563 C564 1.404 . S
C563 C566 1.539 . S
C564 C560 1.408 . S
C564 C563 1.404 . S
C564 H576 0.930 . S
C565 C561 1.524 . S
C565 H577 0.956 . S
C565 H578 0.961 1_545 S
C565 H579 0.961 . S
C566 C563 1.539 . S
C566 H580 0.958 . S
C566 H581 0.961 . S
C566 H582 0.960 . S
H567 C551 0.931 . S
H568 C556 0.929 1_565 S
H569 C557 0.960 . S
H570 C557 0.962 . S
H571 C557 0.960 . S
H572 C558 0.961 . S
H573 C558 0.961 . S
H574 C558 0.961 . S
H575 C559 0.931 . S
H576 C564 0.930 . S
H577 C565 0.956 . S
H578 C565 0.961 1_565 S
H579 C565 0.961 . S
H580 C566 0.958 . S
H581 C566 0.961 . S
H582 C566 0.960 . S
C583 C584 1.391 . S
C583 C585 1.394 . S
C583 H599 0.931 . S
C584 C583 1.391 . S
C584 C588 1.376 . S
C585 C583 1.394 . S
C585 C586 1.369 . S
C585 C589 1.531 . S
C586 C585 1.369 . S
C586 C587 1.410 . S
C586 C594 1.503 . S
C587 C586 1.410 . S
C587 C588 1.392 . S
C587 C590 1.511 . S
C588 C584 1.376 . S
C588 C587 1.392 . S
C588 H600 0.929 . S
C589 C585 1.531 . S
C589 H601 0.960 . S
C589 H602 0.962 . S
C589 H603 0.960 . S
C590 C587 1.511 . S
C590 H604 0.961 . S
C590 H605 0.961 . S
C590 H606 0.961 . S
C591 C592 1.370 . S
C591 C593 1.363 . S
C591 H607 0.931 . S
C592 C591 1.370 . S
C592 C596 1.408 . S
C593 C591 1.363 . S
C593 C594 1.370 . S
C593 C597 1.524 . S
C594 C586 1.503 . S
C594 C593 1.370 . S
C594 C595 1.403 . S
C595 C594 1.403 . S
C595 C596 1.404 . S
C595 C598 1.539 . S
C596 C592 1.408 . S
C596 C595 1.404 . S
C596 H608 0.930 . S
C597 C593 1.524 . S
C597 H609 0.956 . S
C597 H610 0.961 . S
C597 H611 0.961 . S
C598 C595 1.539 . S
C598 H612 0.958 . S
C598 H613 0.961 . S
C598 H614 0.960 . S
H599 C583 0.931 . S
H600 C588 0.929 . S
H601 C589 0.960 . S
H602 C589 0.962 . S
H603 C589 0.960 . S
H604 C590 0.961 . S
H605 C590 0.961 . S
H606 C590 0.961 . S
H607 C591 0.931 . S
H608 C596 0.930 . S
H609 C597 0.956 . S
H610 C597 0.961 . S
H611 C597 0.961 . S
H612 C598 0.958 . S
H613 C598 0.961 . S
H614 C598 0.960 . S
C615 C616 1.391 . S
C615 C617 1.394 . S
C615 H631 0.931 . S
C616 C615 1.391 . S
C616 C620 1.376 . S
C617 C615 1.394 . S
C617 C618 1.369 . S
C617 C621 1.531 1_545 S
C618 C617 1.369 . S
C618 C619 1.410 . S
C618 C626 1.503 . S
C619 C618 1.410 . S
C619 C620 1.392 . S
C619 C622 1.511 . S
C620 C616 1.376 . S
C620 C619 1.392 . S
C620 H632 0.929 . S
C621 C617 1.531 1_565 S
C621 H633 0.960 . S
C621 H634 0.962 1_565 S
C621 H635 0.960 . S
C622 C619 1.511 . S
C622 H636 0.961 . S
C622 H637 0.961 . S
C622 H638 0.961 . S
C623 C624 1.370 . S
C623 C625 1.363 . S
C623 H639 0.931 . S
C624 C623 1.370 . S
C624 C628 1.408 . S
C625 C623 1.363 . S
C625 C626 1.370 . S
C625 C629 1.524 . S
C626 C618 1.503 . S
C626 C625 1.370 . S
C626 C627 1.403 . S
C627 C626 1.403 . S
C627 C628 1.404 . S
C627 C630 1.539 1_545 S
C628 C624 1.408 . S
C628 C627 1.404 . S
C628 H640 0.930 1_545 S
C629 C625 1.524 . S
C629 H641 0.956 . S
C629 H642 0.961 . S
C629 H643 0.961 . S
C630 C627 1.539 1_565 S
C630 H644 0.958 . S
C630 H645 0.961 . S
C630 H646 0.960 . S
H631 C615 0.931 . S
H632 C620 0.929 . S
H633 C621 0.960 . S
H634 C621 0.962 1_545 S
H635 C621 0.960 . S
H636 C622 0.961 . S
H637 C622 0.961 . S
H638 C622 0.961 . S
H639 C623 0.931 . S
H640 C628 0.930 1_565 S
H641 C629 0.956 . S
H642 C629 0.961 . S
H643 C629 0.961 . S
H644 C630 0.958 . S
H645 C630 0.961 . S
H646 C630 0.960 . S
C647 C648 1.391 . S
C647 C649 1.394 . S
C647 H663 0.931 . S
C648 C647 1.391 . S
C648 C652 1.376 . S
C649 C647 1.394 . S
C649 C650 1.369 . S
C649 C653 1.531 . S
C650 C649 1.369 . S
C650 C651 1.410 . S
C650 C658 1.503 . S
C651 C650 1.410 . S
C651 C652 1.392 . S
C651 C654 1.511 . S
C652 C648 1.376 . S
C652 C651 1.392 . S
C652 H664 0.929 . S
C653 C649 1.531 . S
C653 H665 0.960 . S
C653 H666 0.962 . S
C653 H667 0.960 . S
C654 C651 1.511 . S
C654 H668 0.961 . S
C654 H669 0.961 . S
C654 H670 0.961 . S
C655 C656 1.370 . S
C655 C657 1.363 . S
C655 H671 0.931 . S
C656 C655 1.370 . S
C656 C660 1.408 . S
C657 C655 1.363 . S
C657 C658 1.370 1_554 S
C657 C661 1.524 1_554 S
C658 C650 1.503 . S
C658 C657 1.370 1_556 S
C658 C659 1.403 1_556 S
C659 C658 1.403 1_554 S
C659 C660 1.404 . S
C659 C662 1.539 . S
C660 C656 1.408 . S
C660 C659 1.404 . S
C660 H672 0.930 . S
C661 C657 1.524 1_556 S
C661 H673 0.956 . S
C661 H674 0.961 . S
C661 H675 0.958 1_556 S
C662 C659 1.539 . S
C662 H676 0.958 1_554 S
C662 H677 0.961 . S
C662 H678 0.960 1_554 S
H663 C647 0.931 . S
H664 C652 0.929 . S
H665 C653 0.960 . S
H666 C653 0.962 . S
H667 C653 0.960 . S
H668 C654 0.961 . S
H669 C654 0.961 . S
H670 C654 0.961 . S
H671 C655 0.931 . S
H672 C660 0.930 . S
H673 C661 0.956 . S
H674 C661 0.961 . S
H675 C661 0.958 1_554 S
H676 C662 0.958 1_556 S
H677 C662 0.961 . S
H678 C662 0.960 1_556 S
C679 C680 1.391 . S
C679 C681 1.394 . S
C679 H695 0.931 . S
C680 C679 1.391 . S
C680 C684 1.376 1_455 S
C681 C679 1.394 . S
C681 C682 1.369 . S
C681 C685 1.531 . S
C682 C681 1.369 . S
C682 C683 1.410 1_455 S
C682 C690 1.503 . S
C683 C682 1.410 1_655 S
C683 C684 1.392 . S
C683 C686 1.511 . S
C684 C680 1.376 1_655 S
C684 C683 1.392 . S
C684 H696 0.929 . S
C685 C681 1.531 . S
C685 H697 0.960 . S
C685 H698 0.962 . S
C685 H699 0.960 . S
C686 C683 1.511 . S
C686 H700 0.961 . S
C686 H701 0.961 . S
C686 H702 0.961 . S
C687 C688 1.370 . S
C687 C689 1.363 . S
C687 H703 0.931 . S
C688 C687 1.370 . S
C688 C692 1.408 . S
C689 C687 1.363 . S
C689 C690 1.370 . S
C689 C693 1.524 . S
C690 C682 1.503 . S
C690 C689 1.370 . S
C690 C691 1.403 . S
C691 C690 1.403 . S
C691 C692 1.404 . S
C691 C694 1.539 . S
C692 C688 1.408 . S
C692 C691 1.404 . S
C692 H704 0.930 . S
C693 C689 1.524 . S
C693 H705 0.956 . S
C693 H706 0.961 . S
C693 H707 0.961 . S
C694 C691 1.539 . S
C694 H708 0.958 . S
C694 H709 0.961 1_455 S
C694 H710 0.960 . S
H695 C679 0.931 . S
H696 C684 0.929 . S
H697 C685 0.960 . S
H698 C685 0.962 . S
H699 C685 0.960 . S
H700 C686 0.961 . S
H701 C686 0.961 . S
H702 C686 0.961 . S
H703 C687 0.931 . S
H704 C692 0.930 . S
H705 C693 0.956 . S
H706 C693 0.961 . S
H707 C693 0.961 . S
H708 C694 0.958 . S
H709 C694 0.961 1_655 S
H710 C694 0.960 . S
C136 C20 1.307 . S
C144 C134 1.289 . S
C168 C41 1.316 . S
C176 C112 1.292 . S
C200 C64 1.335 . S
C208 C123 1.319 . S
C232 C19 1.278 . S
C240 C128 1.319 . S
C272 C106 1.285 . S
C264 C44 1.285 . S
C304 C117 1.251 . S
C296 C67 1.217 . S
C328 C43 1.247 . S
C336 C90 1.287 . S
C360 C66 1.220 . S
C368 C95 1.225 1_655 S
C392 C21 1.287 . S
C400 C73 1.279 1_565 S
C432 C84 1.304 . S
C424 C42 1.247 . S
C464 C101 1.325 . S
C456 C65 1.292 . S
C488 C18 1.309 . S
C496 C79 1.295 . S
C528 C96 1.516 . S
C520 C17 1.511 . S
C552 C39 1.518 . S
C560 C74 1.529 . S
C584 C62 1.524 . S
C592 C85 1.531 . S
C624 C118 1.516 . S
C616 C40 1.495 . S
C656 C129 1.512 . S
C648 C63 1.525 . S
C680 C16 1.529 . S
C688 C107 1.518 . S
