# Generated by pormake.
# Topology ctn, (3,4)-cn, num edge types: 1
# Building blocks:
#     Node 0, Type 0, BuildingBlock: QEWDON_clean_linker_0, # of connection points: 3
#     Node 1, Type 0, BuildingBlock: QEWDON_clean_linker_0, # of connection points: 3
#     Node 2, Type 0, BuildingBlock: QEWDON_clean_linker_0, # of connection points: 3
#     Node 3, Type 0, BuildingBlock: QEWDON_clean_linker_0, # of connection points: 3
#     Node 4, Type 0, BuildingBlock: QEWDON_clean_linker_0, # of connection points: 3
#     Node 5, Type 0, BuildingBlock: QEWDON_clean_linker_0, # of connection points: 3
#     Node 6, Type 0, BuildingBlock: QEWDON_clean_linker_0, # of connection points: 3
#     Node 7, Type 0, BuildingBlock: QEWDON_clean_linker_0, # of connection points: 3
#     Node 8, Type 0, BuildingBlock: QEWDON_clean_linker_0, # of connection points: 3
#     Node 9, Type 0, BuildingBlock: QEWDON_clean_linker_0, # of connection points: 3
#     Node 10, Type 0, BuildingBlock: QEWDON_clean_linker_0, # of connection points: 3
#     Node 11, Type 0, BuildingBlock: QEWDON_clean_linker_0, # of connection points: 3
#     Node 12, Type 0, BuildingBlock: QEWDON_clean_linker_0, # of connection points: 3
#     Node 13, Type 0, BuildingBlock: QEWDON_clean_linker_0, # of connection points: 3
#     Node 14, Type 0, BuildingBlock: QEWDON_clean_linker_0, # of connection points: 3
#     Node 15, Type 0, BuildingBlock: QEWDON_clean_linker_0, # of connection points: 3
#     Node 16, Type 1, BuildingBlock: QUQFOY_clean_sbu_1, # of connection points: 4
#     Node 17, Type 1, BuildingBlock: QUQFOY_clean_sbu_1, # of connection points: 4
#     Node 18, Type 1, BuildingBlock: QUQFOY_clean_sbu_1, # of connection points: 4
#     Node 19, Type 1, BuildingBlock: QUQFOY_clean_sbu_1, # of connection points: 4
#     Node 20, Type 1, BuildingBlock: QUQFOY_clean_sbu_1, # of connection points: 4
#     Node 21, Type 1, BuildingBlock: QUQFOY_clean_sbu_1, # of connection points: 4
#     Node 22, Type 1, BuildingBlock: QUQFOY_clean_sbu_1, # of connection points: 4
#     Node 23, Type 1, BuildingBlock: QUQFOY_clean_sbu_1, # of connection points: 4
#     Node 24, Type 1, BuildingBlock: QUQFOY_clean_sbu_1, # of connection points: 4
#     Node 25, Type 1, BuildingBlock: QUQFOY_clean_sbu_1, # of connection points: 4
#     Node 26, Type 1, BuildingBlock: QUQFOY_clean_sbu_1, # of connection points: 4
#     Node 27, Type 1, BuildingBlock: QUQFOY_clean_sbu_1, # of connection points: 4
#     Edge 28, Type (0, 1), None
#     Edge 29, Type (0, 1), None
#     Edge 30, Type (0, 1), None
#     Edge 31, Type (0, 1), None
#     Edge 32, Type (0, 1), None
#     Edge 33, Type (0, 1), None
#     Edge 34, Type (0, 1), None
#     Edge 35, Type (0, 1), None
#     Edge 36, Type (0, 1), None
#     Edge 37, Type (0, 1), None
#     Edge 38, Type (0, 1), None
#     Edge 39, Type (0, 1), None
#     Edge 40, Type (0, 1), None
#     Edge 41, Type (0, 1), None
#     Edge 42, Type (0, 1), None
#     Edge 43, Type (0, 1), None
#     Edge 44, Type (0, 1), None
#     Edge 45, Type (0, 1), None
#     Edge 46, Type (0, 1), None
#     Edge 47, Type (0, 1), None
#     Edge 48, Type (0, 1), None
#     Edge 49, Type (0, 1), None
#     Edge 50, Type (0, 1), None
#     Edge 51, Type (0, 1), None
#     Edge 52, Type (0, 1), None
#     Edge 53, Type (0, 1), None
#     Edge 54, Type (0, 1), None
#     Edge 55, Type (0, 1), None
#     Edge 56, Type (0, 1), None
#     Edge 57, Type (0, 1), None
#     Edge 58, Type (0, 1), None
#     Edge 59, Type (0, 1), None
#     Edge 60, Type (0, 1), None
#     Edge 61, Type (0, 1), None
#     Edge 62, Type (0, 1), None
#     Edge 63, Type (0, 1), None
#     Edge 64, Type (0, 1), None
#     Edge 65, Type (0, 1), None
#     Edge 66, Type (0, 1), None
#     Edge 67, Type (0, 1), None
#     Edge 68, Type (0, 1), None
#     Edge 69, Type (0, 1), None
#     Edge 70, Type (0, 1), None
#     Edge 71, Type (0, 1), None
#     Edge 72, Type (0, 1), None
#     Edge 73, Type (0, 1), None
#     Edge 74, Type (0, 1), None
#     Edge 75, Type (0, 1), None
# Relax obj value: 0.144
# Max RMSD: 0.250
# Mean RMSD: 0.161
data_MOF--net-ctn--node1-QUQFOY_clean_sbu_1--node2-QEWDON_clean_linker_0--edge1-none
_symmetry_space_group_name_H-M    P1
_symmetry_Int_Tables_number       1
_symmetry_cell_setting            triclinic
loop_
_symmetry_equiv_pos_as_xyz
'x, y, z'
_cell_length_a     23.09931
_cell_length_b     24.447896
_cell_length_c     27.148847
_cell_angle_alpha  103.79055
_cell_angle_beta   92.696138
_cell_angle_gamma 100.97702
loop_
_atom_site_label
_atom_site_type_symbol
_atom_site_fract_x
_atom_site_fract_y
_atom_site_fract_z
_atom_type_partial_charge
H0 H 0.14081 0.98521 0.0305 0.0
C1 C 0.11922 0.98373 0.06495 0.0
C2 C 0.12 0.93731 0.08679 0.0
C3 C 0.09718 0.03164 0.0897 0.0
H4 H 0.09704 0.90294 0.15099 0.0
C5 C 0.09549 0.93813 0.13344 0.0
C6 C 0.06965 0.98449 0.15759 0.0
C7 C 0.07103 0.03129 0.13532 0.0
C8 C 0.11296 0.08519 0.07232 0.0
H9 H 0.05451 0.06859 0.1546 0.0
C10 C 0.07018 0.10973 0.05133 0.0
C11 C 0.08875 0.15595 0.029 0.0
C12 C 0.17348 0.10907 0.07293 0.0
H13 H 0.20699 0.091 0.08901 0.0
C14 C 0.19154 0.15533 0.05179 0.0
H15 H 0.02343 0.09135 0.05014 0.0
C16 C 0.14954 0.17814 0.02935 0.0
H17 H 0.16461 0.21362 0.0124 0.0
H18 H 0.23828 0.17295 0.05205 0.0
H19 H 0.41128 0.81081 0.33958 0.0
C20 C 0.36773 0.78346 0.33678 0.0
C21 C 0.36042 0.73401 0.35557 0.0
C22 C 0.31927 0.79739 0.31359 0.0
H23 H 0.29897 0.65906 0.36322 0.0
C24 C 0.30405 0.69818 0.35022 0.0
C25 C 0.25553 0.71098 0.32458 0.0
C26 C 0.26348 0.76148 0.3078 0.0
C27 C 0.32709 0.84428 0.28809 0.0
H28 H 0.22685 0.77166 0.28767 0.0
C29 C 0.33772 0.83189 0.23668 0.0
C30 C 0.33154 0.87104 0.20784 0.0
C31 C 0.31342 0.8973 0.31146 0.0
H32 H 0.30402 0.90674 0.35097 0.0
C33 C 0.30929 0.93736 0.28306 0.0
H34 H 0.3466 0.79017 0.21834 0.0
C35 C 0.31721 0.9239 0.23114 0.0
H36 H 0.31213 0.95463 0.20917 0.0
H37 H 0.29817 0.97809 0.30089 0.0
H38 H 0.11029 0.54096 0.08466 0.0
C39 C 0.07731 0.55974 0.06861 0.0
C40 C 0.04702 0.59582 0.1006 0.0
C41 C 0.06527 0.54665 0.01593 0.0
H42 H 0.97931 0.64638 0.10367 0.0
C43 C 1.00391 0.61942 0.07897 0.0
C44 C 0.9901 0.60508 0.02549 0.0
C45 C 0.02186 0.56906 0.99426 0.0
C46 C 0.0942 0.50421 0.98461 0.0
H47 H 0.01163 0.55675 0.95324 0.0
C48 C 0.07685 0.44627 0.9852 0.0
C49 C 0.10486 0.40479 0.95698 0.0
C50 C 0.14085 0.52139 0.95684 0.0
H51 H 0.15505 0.56626 0.9568 0.0
C52 C 0.17008 0.48056 0.9297 0.0
H53 H 0.04015 0.4335 0.00635 0.0
C54 C 0.15215 0.42256 0.92951 0.0
H55 H 0.17451 0.39151 0.90704 0.0
H56 H 0.20628 0.49377 0.90833 0.0
H57 H 0.80047 0.80053 0.30169 0.0
C58 C 0.80296 0.79151 0.26086 0.0
C59 C 0.8335 0.83418 0.23931 0.0
C60 C 0.77756 0.73626 0.2298 0.0
H61 H 0.85776 0.85472 0.1686 0.0
C62 C 0.83555 0.82197 0.18606 0.0
C63 C 0.80962 0.76739 0.15521 0.0
C64 C 0.78197 0.72441 0.17725 0.0
C65 C 0.74163 0.6922 0.25096 0.0
H66 H 0.76105 0.68242 0.15307 0.0
C67 C 0.6932 0.70539 0.27675 0.0
C68 C 0.65592 0.66381 0.29501 0.0
C69 C 0.75233 0.63618 0.24251 0.0
H70 H 0.7891 0.62478 0.22187 0.0
C71 C 0.7158 0.5947 0.26131 0.0
H72 H 0.68447 0.74842 0.28245 0.0
C73 C 0.66805 0.60856 0.28807 0.0
H74 H 0.64028 0.57615 0.30257 0.0
H75 H 0.7247 0.55181 0.2553 0.0
H76 H 0.20774 0.02326 0.53327 0.0
C77 C 0.16985 0.01638 0.50574 0.0
C78 C 0.17168 0.05234 0.47245 0.0
C79 C 0.1199 0.97219 0.50417 0.0
H80 H 0.12465 0.07295 0.41151 0.0
C81 C 0.12301 0.0451 0.43735 0.0
C82 C 0.07237 0.00218 0.43508 0.0
C83 C 0.07037 0.96623 0.46915 0.0
C84 C 0.12361 0.93036 0.53623 0.0
H85 H 0.03198 0.932 0.46642 0.0
C86 C 0.07594 0.90843 0.5622 0.0
C87 C 0.08407 0.87175 0.59441 0.0
C88 C 0.17783 0.91293 0.54154 0.0
H89 H 0.2146 0.92667 0.52093 0.0
C90 C 0.18592 0.87758 0.57331 0.0
H91 H 0.0335 0.92033 0.55797 0.0
C92 C 0.13993 0.85764 0.59983 0.0
H93 H 0.14805 0.82969 0.62377 0.0
H94 H 0.22817 0.86523 0.57717 0.0
H95 H 0.30416 0.6079 0.79992 0.0
C96 C 0.29701 0.63357 0.83675 0.0
C97 C 0.31921 0.6224 0.88156 0.0
C98 C 0.26469 0.6769 0.83879 0.0
H99 H 0.33071 0.65149 0.9641 0.0
C100 C 0.31114 0.65777 0.92935 0.0
C101 C 0.27984 0.70291 0.93178 0.0
C102 C 0.25504 0.71017 0.8861 0.0
C103 C 0.24516 0.69122 0.79163 0.0
H104 H 0.23215 0.74519 0.88695 0.0
C105 C 0.18567 0.69367 0.78121 0.0
C106 C 0.16811 0.71202 0.73863 0.0
C107 C 0.28684 0.70616 0.75854 0.0
H108 H 0.33298 0.70492 0.76609 0.0
C109 C 0.26961 0.72477 0.71638 0.0
H110 H 0.15335 0.68197 0.80662 0.0
C111 C 0.21069 0.72822 0.70664 0.0
H112 H 0.19822 0.74254 0.6736 0.0
H113 H 0.30209 0.73687 0.69135 0.0
H114 H 0.92181 0.65637 0.50464 0.0
C115 C 0.90954 0.61354 0.51067 0.0
C116 C 0.91402 0.60549 0.56007 0.0
C117 C 0.8921 0.56614 0.46857 0.0
H118 H 0.90195 0.54251 0.60482 0.0
C119 C 0.90005 0.54929 0.56679 0.0
C120 C 0.88035 0.50207 0.52458 0.0
C121 C 0.87673 0.51066 0.47556 0.0
C122 C 0.89389 0.57437 0.41702 0.0
H123 H 0.86156 0.47425 0.44289 0.0
C124 C 0.9432 0.56497 0.39064 0.0
C125 C 0.94864 0.57762 0.34315 0.0
C126 C 0.8488 0.59488 0.39551 0.0
H127 H 0.81083 0.60278 0.41596 0.0
C128 C 0.85308 0.60601 0.34764 0.0
H129 H 0.97855 0.55063 0.40845 0.0
C130 C 0.90266 0.59764 0.32154 0.0
H131 H 0.90554 0.60807 0.28501 0.0
H132 H 0.81865 0.62257 0.33136 0.0
H133 H 0.8697 0.87579 0.78512 0.0
C134 C 0.86345 0.84791 0.8109 0.0
C135 C 0.88889 0.7988 0.80296 0.0
C136 C 0.83257 0.86281 0.8538 0.0
H137 H 0.90146 0.72673 0.83328 0.0
C138 C 0.88221 0.76457 0.83872 0.0
C139 C 0.85105 0.77915 0.88173 0.0
C140 C 0.82632 0.82828 0.88837 0.0
C141 C 0.81542 0.9192 0.8689 0.0
H142 H 0.8032 0.84124 0.92168 0.0
C143 C 0.76173 0.9291 0.84916 0.0
C144 C 0.74239 0.98001 0.8716 0.0
C145 C 0.85019 0.961 0.90946 0.0
H146 H 0.8912 0.95377 0.92529 0.0
C147 C 0.83155 0.0114 0.93116 0.0
H148 H 0.73461 0.89689 0.81797 0.0
C149 C 0.7779 0.02062 0.91287 0.0
H150 H 0.765 0.06062 0.93039 0.0
H151 H 0.85853 0.04323 0.96263 0.0
H152 H 0.3697 0.37579 0.2851 0.0
C153 C 0.36345 0.34789 0.31089 0.0
C154 C 0.38889 0.2988 0.30296 0.0
C155 C 0.33257 0.3628 0.35378 0.0
H156 H 0.40146 0.22674 0.33328 0.0
C157 C 0.38221 0.26456 0.33872 0.0
C158 C 0.35104 0.27915 0.38173 0.0
C159 C 0.32632 0.32827 0.38835 0.0
C160 C 0.31541 0.4192 0.36888 0.0
H161 H 0.30318 0.34124 0.42167 0.0
C162 C 0.26172 0.42908 0.34915 0.0
C163 C 0.24238 0.48 0.37158 0.0
C164 C 0.35019 0.461 0.40943 0.0
H165 H 0.3912 0.45378 0.42525 0.0
C166 C 0.33155 0.5114 0.43113 0.0
H167 H 0.2346 0.39687 0.31796 0.0
C168 C 0.2779 0.52061 0.41284 0.0
H169 H 0.26499 0.56063 0.43037 0.0
H170 H 0.35853 0.54324 0.46258 0.0
H171 H 0.61029 0.04097 0.58467 0.0
C172 C 0.57732 0.05975 0.56862 0.0
C173 C 0.54703 0.09584 0.60061 0.0
C174 C 0.56527 0.04665 0.51594 0.0
H175 H 0.47932 0.14639 0.60367 0.0
C176 C 0.50391 0.11944 0.57897 0.0
C177 C 0.4901 0.10509 0.52549 0.0
C178 C 0.52186 0.06906 0.49427 0.0
C179 C 0.59419 0.00422 0.48462 0.0
H180 H 0.51162 0.05675 0.45324 0.0
C181 C 0.57684 0.94627 0.4852 0.0
C182 C 0.60485 0.90479 0.45699 0.0
C183 C 0.64086 0.02139 0.45686 0.0
H184 H 0.65506 0.06626 0.45682 0.0
C185 C 0.67009 0.98056 0.42972 0.0
H186 H 0.54013 0.9335 0.50635 0.0
C187 C 0.65215 0.92255 0.42953 0.0
H188 H 0.67451 0.8915 0.40706 0.0
H189 H 0.70629 0.99377 0.40836 0.0
H190 H 0.30048 0.30053 0.80169 0.0
C191 C 0.30297 0.29151 0.76086 0.0
C192 C 0.33351 0.33418 0.73931 0.0
C193 C 0.27757 0.23626 0.72979 0.0
H194 H 0.35775 0.35473 0.6686 0.0
C195 C 0.33555 0.32197 0.68605 0.0
C196 C 0.30962 0.2674 0.6552 0.0
C197 C 0.28197 0.22441 0.67725 0.0
C198 C 0.24165 0.19219 0.75096 0.0
H199 H 0.26106 0.18242 0.65307 0.0
C200 C 0.19321 0.20538 0.77675 0.0
C201 C 0.15594 0.1638 0.79501 0.0
C202 C 0.25235 0.13618 0.74251 0.0
H203 H 0.28912 0.12478 0.72186 0.0
C204 C 0.21582 0.0947 0.7613 0.0
H205 H 0.18449 0.24841 0.78245 0.0
C206 C 0.16807 0.10856 0.78807 0.0
H207 H 0.1403 0.07615 0.80257 0.0
H208 H 0.22472 0.05181 0.75529 0.0
H209 H 0.91132 0.31081 0.83959 0.0
C210 C 0.86776 0.28347 0.83678 0.0
C211 C 0.86045 0.23401 0.85557 0.0
C212 C 0.8193 0.2974 0.81359 0.0
H213 H 0.79899 0.15907 0.86321 0.0
C214 C 0.80407 0.19818 0.85021 0.0
C215 C 0.75556 0.21099 0.82457 0.0
C216 C 0.76351 0.26149 0.80779 0.0
C217 C 0.82713 0.34428 0.78809 0.0
H218 H 0.72689 0.27167 0.78766 0.0
C219 C 0.83774 0.33189 0.73667 0.0
C220 C 0.83159 0.37105 0.70784 0.0
C221 C 0.81352 0.39732 0.81147 0.0
H222 H 0.80414 0.40677 0.85099 0.0
C223 C 0.80941 0.43739 0.78308 0.0
H224 H 0.84659 0.29015 0.71833 0.0
C225 C 0.81731 0.42393 0.73115 0.0
H226 H 0.81225 0.45467 0.70919 0.0
H227 H 0.79832 0.47814 0.80092 0.0
H228 H 0.6408 0.48519 0.53049 0.0
C229 C 0.61921 0.48372 0.56494 0.0
C230 C 0.62 0.43731 0.58679 0.0
C231 C 0.59718 0.53164 0.58969 0.0
H232 H 0.59704 0.40295 0.651 0.0
C233 C 0.59549 0.43813 0.63344 0.0
C234 C 0.56965 0.48449 0.65758 0.0
C235 C 0.57102 0.53129 0.63531 0.0
C236 C 0.61295 0.58518 0.5723 0.0
H237 H 0.5545 0.56859 0.65458 0.0
C238 C 0.57017 0.60972 0.55132 0.0
C239 C 0.58873 0.65594 0.52898 0.0
C240 C 0.67348 0.60905 0.5729 0.0
H241 H 0.70698 0.59098 0.58898 0.0
C242 C 0.69152 0.65531 0.55176 0.0
H243 H 0.52342 0.59135 0.55014 0.0
C244 C 0.64953 0.67812 0.52932 0.0
H245 H 0.66459 0.71359 0.51237 0.0
H246 H 0.73827 0.67293 0.55201 0.0
H247 H 0.70774 0.52325 0.03326 0.0
C248 C 0.66985 0.51637 0.00573 0.0
C249 C 0.67168 0.55233 0.97245 0.0
C250 C 0.6199 0.47218 1.00416 0.0
H251 H 0.62465 0.57296 0.91151 0.0
C252 C 0.62301 0.5451 0.93735 0.0
C253 C 0.57236 0.50218 0.93507 0.0
C254 C 0.57037 0.46622 0.96914 0.0
C255 C 0.62361 0.43035 0.03621 0.0
H256 H 0.53198 0.43199 0.96641 0.0
C257 C 0.57594 0.40842 0.06219 0.0
C258 C 0.58407 0.37174 0.0944 0.0
C259 C 0.67782 0.41291 0.04152 0.0
H260 H 0.71459 0.42665 0.0209 0.0
C261 C 0.68592 0.37756 0.07328 0.0
H262 H 0.53351 0.42032 0.05797 0.0
C263 C 0.63993 0.35762 0.09981 0.0
H264 H 0.64806 0.32967 0.12375 0.0
H265 H 0.72817 0.3652 0.07714 0.0
H266 H 0.80417 0.1079 0.29993 0.0
C267 C 0.79702 0.13358 0.33676 0.0
C268 C 0.81922 0.1224 0.38156 0.0
C269 C 0.7647 0.17691 0.3388 0.0
H270 H 0.83072 0.1515 0.46411 0.0
C271 C 0.81115 0.15778 0.42935 0.0
C272 C 0.77985 0.20291 0.43178 0.0
C273 C 0.75505 0.21018 0.38611 0.0
C274 C 0.74517 0.19122 0.29163 0.0
H275 H 0.73217 0.24519 0.38696 0.0
C276 C 0.68569 0.19367 0.28122 0.0
C277 C 0.66813 0.21202 0.23863 0.0
C278 C 0.78685 0.20617 0.25854 0.0
H279 H 0.83299 0.20493 0.2661 0.0
C280 C 0.76962 0.22477 0.21638 0.0
H281 H 0.65337 0.18197 0.30662 0.0
C282 C 0.7107 0.22823 0.20664 0.0
H283 H 0.69823 0.24254 0.1736 0.0
H284 H 0.8021 0.23688 0.19135 0.0
H285 H 0.42183 0.15635 1.00464 0.0
C286 C 0.40956 0.11352 0.01067 0.0
C287 C 0.41404 0.10548 0.06007 0.0
C288 C 0.39211 0.06613 0.96858 0.0
H289 H 0.40196 0.0425 0.10483 0.0
C290 C 0.40006 0.04928 0.06679 0.0
C291 C 0.38036 0.00206 0.02458 0.0
C292 C 0.37674 0.01064 0.97557 0.0
C293 C 0.39391 0.07436 0.91702 0.0
H294 H 0.36158 0.97423 0.9429 0.0
C295 C 0.44322 0.06497 0.89064 0.0
C296 C 0.44866 0.07763 0.84316 0.0
C297 C 0.34881 0.09485 0.89551 0.0
H298 H 0.31083 0.10275 0.91596 0.0
C299 C 0.35309 0.10599 0.84764 0.0
H300 H 0.47858 0.05063 0.90846 0.0
C301 C 0.40267 0.09764 0.82155 0.0
H302 H 0.40555 0.10807 0.78502 0.0
H303 H 0.31865 0.12254 0.83136 0.0
O304 O 0.32656 0.76539 0.01097 0.0
Cd305 Cd 0.34757 0.84213 0.06786 0.0
Cd306 Cd 0.23847 0.85883 0.03256 0.0
O307 O 0.24003 0.77879 0.98275 0.0
O308 O 0.38268 0.83816 0.1351 0.0
O309 O 0.29523 0.86058 0.12182 0.0
C310 C 0.33657 0.85554 0.15298 0.0
C311 C 0.15595 0.89481 0.0644 0.0
C312 C 0.28037 0.74896 0.97934 0.0
C313 C 0.35448 0.94559 0.03202 0.0
O314 O 0.29873 0.92854 0.02315 0.0
O315 O 0.3863 0.9163 0.04949 0.0
O316 O 0.16408 0.88515 0.01668 0.0
O317 O 0.18974 0.87647 0.09314 0.0
O318 O 0.19027 0.62567 0.32832 0.0
Cd319 Cd 0.13043 0.55008 0.31923 0.0
Cd320 Cd 0.08328 0.62046 0.24318 0.0
O321 O 0.16175 0.67451 0.27612 0.0
O322 O 0.16473 0.5326 0.38064 0.0
O323 O 0.17182 0.48193 0.30317 0.0
C324 C 0.18858 0.49535 0.35134 0.0
C325 C 0.05983 0.60567 0.15621 0.0
C326 C 0.19869 0.66909 0.30995 0.0
C327 C 1.00453 0.57628 0.31899 0.0
O328 O 0.01499 0.60504 0.286 0.0
O329 O 0.04264 0.55076 0.33423 0.0
O330 O 0.05099 0.65129 0.18761 0.0
O331 O 0.08186 0.56895 0.17451 0.0
O332 O 0.81719 0.76243 0.9594 0.0
Cd333 Cd 0.78863 0.71856 0.01237 0.0
Cd334 Cd 0.85417 0.64458 0.96638 0.0
O335 O 0.86111 0.6972 0.91453 0.0
O336 O 0.76917 0.77223 0.07416 0.0
O337 O 0.83723 0.71933 0.0752 0.0
C338 C 0.8075 0.7549 0.09961 0.0
C339 C 0.93962 0.62302 1.00214 0.0
C340 C 0.84353 0.74459 0.92049 0.0
C341 C 0.72368 0.59892 0.9758 0.0
O342 O 0.77426 0.58719 0.96713 0.0
O343 O 0.71784 0.65069 0.99001 0.0
O344 O 0.91743 0.59786 0.95594 0.0
O345 O 0.91452 0.66205 0.02775 0.0
O346 O 0.03712 0.99186 0.3493 0.0
Cd347 Cd 0.9896 0.97608 0.27818 0.0
Cd348 Cd 0.89558 0.9928 0.36175 0.0
O349 O 0.97102 0.99287 0.40662 0.0
O350 O 0.04437 0.94368 0.2285 0.0
O351 O 0.01266 0.02237 0.22623 0.0
C352 C 0.042 0.98407 0.20607 0.0
C353 C 0.85134 0.07427 0.37658 0.0
C354 C 0.02387 0.99411 0.39481 0.0
C355 C 0.86833 0.88935 0.27152 0.0
O356 O 0.85139 0.9143 0.31354 0.0
O357 O 0.91694 0.90976 0.25624 0.0
O358 O 0.84142 0.03772 0.40415 0.0
O359 O 0.88634 0.06471 0.34108 0.0
O360 O 0.31719 0.26243 0.4594 0.0
Cd361 Cd 0.28862 0.21856 0.51236 0.0
Cd362 Cd 0.35417 0.14459 0.46639 0.0
O363 O 0.36111 0.19721 0.41453 0.0
O364 O 0.26917 0.27224 0.57416 0.0
O365 O 0.33723 0.21933 0.57519 0.0
C366 C 0.30749 0.25491 0.59961 0.0
C367 C 0.43962 0.12303 0.50215 0.0
C368 C 0.34353 0.24459 0.42048 0.0
C369 C 0.22368 0.09892 0.4758 0.0
O370 O 0.27426 0.0872 0.46713 0.0
O371 O 0.21784 0.1507 0.49 0.0
O372 O 0.41743 0.09787 0.45594 0.0
O373 O 0.41453 0.16206 0.52775 0.0
O374 O 0.53711 0.49187 0.84929 0.0
Cd375 Cd 0.4896 0.47609 0.77817 0.0
Cd376 Cd 0.39558 0.4928 0.86175 0.0
O377 O 0.47101 0.49287 0.90662 0.0
O378 O 0.54437 0.44368 0.72849 0.0
O379 O 0.51266 0.52237 0.72622 0.0
C380 C 0.542 0.48408 0.70606 0.0
C381 C 0.35134 0.57427 0.87657 0.0
C382 C 0.52387 0.49411 0.89481 0.0
C383 C 0.36833 0.38935 0.77152 0.0
O384 O 0.35139 0.41431 0.81354 0.0
O385 O 0.41694 0.40976 0.75624 0.0
O386 O 0.34141 0.53772 0.90415 0.0
O387 O 0.38634 0.56471 0.84108 0.0
O388 O 0.82657 0.2654 0.51097 0.0
Cd389 Cd 0.84758 0.34214 0.56786 0.0
Cd390 Cd 0.73848 0.35883 0.53256 0.0
O391 O 0.74004 0.27879 0.48275 0.0
O392 O 0.88271 0.33817 0.63509 0.0
O393 O 0.79525 0.36058 0.62183 0.0
C394 C 0.8366 0.35555 0.65298 0.0
C395 C 0.65596 0.3948 0.5644 0.0
C396 C 0.78038 0.24897 0.47934 0.0
C397 C 0.85447 0.4456 0.53201 0.0
O398 O 0.79872 0.42855 0.52314 0.0
O399 O 0.8863 0.41632 0.54949 0.0
O400 O 0.66407 0.38514 0.51668 0.0
O401 O 0.68974 0.37648 0.59314 0.0
O402 O 0.6903 0.12568 0.82831 0.0
Cd403 Cd 0.63045 0.05009 0.81922 0.0
Cd404 Cd 0.5833 0.12049 0.74319 0.0
O405 O 0.66177 0.17453 0.77612 0.0
O406 O 0.66475 0.03262 0.88065 0.0
O407 O 0.67183 0.98194 0.80318 0.0
C408 C 0.6886 0.99536 0.85134 0.0
C409 C 0.55984 0.10569 0.65621 0.0
C410 C 0.69871 0.16911 0.80995 0.0
C411 C 0.50455 0.0763 0.819 0.0
O412 O 0.515 0.10506 0.78601 0.0
O413 O 0.54266 0.05077 0.83423 0.0
O414 O 0.551 0.15131 0.68761 0.0
O415 O 0.58187 0.06897 0.67452 0.0
O416 O 0.04123 0.326 0.97855 0.0
Cd417 Cd 0.99925 0.2404 0.96752 0.0
Cd418 Cd 0.04592 0.22673 0.87731 0.0
O419 O 0.09158 0.3078 0.91176 0.0
O420 O 0.00903 0.20707 0.02809 0.0
O421 O 0.05477 0.18693 0.95793 0.0
C422 C 0.04702 0.18148 1.00343 0.0
C423 C 0.10669 0.18083 0.82294 0.0
C424 C 0.07979 0.34294 0.95042 0.0
C425 C 0.91349 0.22057 0.87827 0.0
O426 O 0.95909 0.22309 0.85378 0.0
O427 O 0.91746 0.2199 0.92505 0.0
O428 O 0.08345 0.22114 0.81293 0.0
O429 O 0.09097 0.16192 0.86174 0.0
O430 O 0.54121 0.826 0.47856 0.0
Cd431 Cd 0.49923 0.7404 0.46752 0.0
Cd432 Cd 0.5459 0.72674 0.37731 0.0
O433 O 0.59156 0.8078 0.41177 0.0
O434 O 0.50901 0.70705 0.52808 0.0
O435 O 0.55475 0.68693 0.45792 0.0
C436 C 0.54701 0.68147 0.50342 0.0
C437 C 0.60667 0.68083 0.32294 0.0
C438 C 0.57978 0.84294 0.45043 0.0
C439 C 0.41347 0.72057 0.37827 0.0
O440 O 0.45907 0.7231 0.35377 0.0
O441 O 0.41744 0.7199 0.42505 0.0
O442 O 0.58344 0.72114 0.31293 0.0
O443 O 0.59094 0.66192 0.36173 0.0
O444 O 0.95452 0.74553 0.75817 0.0
Cd445 Cd 1.00645 0.71179 0.70438 0.0
Cd446 Cd 0.96071 0.78516 0.65197 0.0
O447 O 0.92178 0.80683 0.72113 0.0
O448 O 0.06348 0.67821 0.73999 0.0
O449 O 0.09123 0.74835 0.70207 0.0
C450 C 0.1055 0.71329 0.72694 0.0
C451 C 0.03544 0.84411 0.62051 0.0
C452 C 0.92363 0.78344 0.75852 0.0
C453 C 0.93587 0.65551 0.60385 0.0
O454 O 0.92838 0.70522 0.60155 0.0
O455 O 0.96518 0.64879 0.64193 0.0
O456 O 0.98053 0.84613 0.61151 0.0
O457 O 0.04694 0.81262 0.65022 0.0
O458 O 0.45452 0.24552 0.25817 0.0
Cd459 Cd 0.50646 0.21178 0.20438 0.0
Cd460 Cd 0.46072 0.28515 0.15196 0.0
O461 O 0.42179 0.30683 0.22113 0.0
O462 O 0.56349 0.17821 0.23999 0.0
O463 O 0.59124 0.24835 0.20207 0.0
C464 C 0.60551 0.21329 0.22694 0.0
C465 C 0.53545 0.3441 0.1205 0.0
C466 C 0.42364 0.28343 0.25852 0.0
C467 C 0.43588 0.1555 0.10385 0.0
O468 O 0.4284 0.20521 0.10155 0.0
O469 O 0.4652 0.14878 0.14193 0.0
O470 O 0.48054 0.34612 0.1115 0.0
O471 O 0.54695 0.31262 0.15022 0.0
loop_
_geom_bond_atom_site_label_1
_geom_bond_atom_site_label_2
_geom_bond_distance
_geom_bond_site_symmetry_2
_ccdc_geom_bond_type
H0 C1 0.949 . S
C1 H0 0.949 . S
C1 C2 1.395 . S
C1 C3 1.391 . S
C2 C1 1.395 . S
C2 C5 1.390 . S
C3 C1 1.391 . S
C3 C7 1.387 . S
C3 C8 1.491 . S
H4 C5 0.950 . S
C5 C2 1.390 . S
C5 H4 0.950 . S
C5 C6 1.378 . S
C6 C5 1.378 . S
C6 C7 1.409 . S
C7 C3 1.387 . S
C7 C6 1.409 . S
C7 H9 0.951 . S
C8 C3 1.491 . S
C8 C10 1.382 . S
C8 C12 1.404 . S
H9 C7 0.951 . S
C10 C8 1.382 . S
C10 C11 1.390 . S
C10 H15 0.949 . S
C11 C10 1.390 . S
C11 C16 1.399 . S
C12 C8 1.404 . S
C12 H13 0.950 . S
C12 C14 1.375 . S
H13 C12 0.950 . S
C14 C12 1.375 . S
C14 C16 1.382 . S
C14 H18 0.950 . S
H15 C10 0.949 . S
C16 C11 1.399 . S
C16 C14 1.382 . S
C16 H17 0.952 . S
H17 C16 0.952 . S
H18 C14 0.950 . S
H19 C20 0.949 . S
C20 H19 0.949 . S
C20 C21 1.395 . S
C20 C22 1.391 . S
C21 C20 1.395 . S
C21 C24 1.390 . S
C22 C20 1.391 . S
C22 C26 1.387 . S
C22 C27 1.491 . S
H23 C24 0.950 . S
C24 C21 1.390 . S
C24 H23 0.950 . S
C24 C25 1.378 . S
C25 C24 1.378 . S
C25 C26 1.409 . S
C26 C22 1.387 . S
C26 C25 1.409 . S
C26 H28 0.951 . S
C27 C22 1.491 . S
C27 C29 1.382 . S
C27 C31 1.404 . S
H28 C26 0.951 . S
C29 C27 1.382 . S
C29 C30 1.390 . S
C29 H34 0.949 . S
C30 C29 1.390 . S
C30 C35 1.399 . S
C31 C27 1.404 . S
C31 H32 0.950 . S
C31 C33 1.375 . S
H32 C31 0.950 . S
C33 C31 1.375 . S
C33 C35 1.382 . S
C33 H37 0.950 . S
H34 C29 0.949 . S
C35 C30 1.399 . S
C35 C33 1.382 . S
C35 H36 0.952 . S
H36 C35 0.952 . S
H37 C33 0.950 . S
H38 C39 0.949 . S
C39 H38 0.949 . S
C39 C40 1.395 . S
C39 C41 1.391 . S
C40 C39 1.395 . S
C40 C43 1.390 . S
C41 C39 1.391 . S
C41 C45 1.387 . S
C41 C46 1.491 1_554 S
H42 C43 0.950 . S
C43 C40 1.390 . S
C43 H42 0.950 . S
C43 C44 1.378 . S
C44 C43 1.378 . S
C44 C45 1.409 . S
C45 C41 1.387 . S
C45 C44 1.409 . S
C45 H47 0.951 1_554 S
C46 C41 1.491 1_556 S
C46 C48 1.382 . S
C46 C50 1.404 . S
H47 C45 0.951 1_556 S
C48 C46 1.382 . S
C48 C49 1.390 . S
C48 H53 0.949 1_556 S
C49 C48 1.390 . S
C49 C54 1.399 . S
C50 C46 1.404 . S
C50 H51 0.950 . S
C50 C52 1.375 . S
H51 C50 0.950 . S
C52 C50 1.375 . S
C52 C54 1.382 . S
C52 H56 0.950 . S
H53 C48 0.949 1_554 S
C54 C49 1.399 . S
C54 C52 1.382 . S
C54 H55 0.952 . S
H55 C54 0.952 . S
H56 C52 0.950 . S
H57 C58 0.949 . S
C58 H57 0.949 . S
C58 C59 1.395 . S
C58 C60 1.391 . S
C59 C58 1.395 . S
C59 C62 1.390 . S
C60 C58 1.391 . S
C60 C64 1.387 . S
C60 C65 1.491 . S
H61 C62 0.950 . S
C62 C59 1.390 . S
C62 H61 0.950 . S
C62 C63 1.378 . S
C63 C62 1.378 . S
C63 C64 1.409 . S
C64 C60 1.387 . S
C64 C63 1.409 . S
C64 H66 0.951 . S
C65 C60 1.491 . S
C65 C67 1.382 . S
C65 C69 1.404 . S
H66 C64 0.951 . S
C67 C65 1.382 . S
C67 C68 1.390 . S
C67 H72 0.949 . S
C68 C67 1.390 . S
C68 C73 1.399 . S
C69 C65 1.404 . S
C69 H70 0.950 . S
C69 C71 1.375 . S
H70 C69 0.950 . S
C71 C69 1.375 . S
C71 C73 1.382 . S
C71 H75 0.950 . S
H72 C67 0.949 . S
C73 C68 1.399 . S
C73 C71 1.382 . S
C73 H74 0.952 . S
H74 C73 0.952 . S
H75 C71 0.950 . S
H76 C77 0.949 . S
C77 H76 0.949 . S
C77 C78 1.395 1_565 S
C77 C79 1.391 . S
C78 C77 1.395 1_545 S
C78 C81 1.390 . S
C79 C77 1.391 . S
C79 C83 1.387 . S
C79 C84 1.491 . S
H80 C81 0.950 . S
C81 C78 1.390 . S
C81 H80 0.950 . S
C81 C82 1.378 . S
C82 C81 1.378 . S
C82 C83 1.409 1_545 S
C83 C79 1.387 . S
C83 C82 1.409 1_565 S
C83 H85 0.951 . S
C84 C79 1.491 . S
C84 C86 1.382 . S
C84 C88 1.404 . S
H85 C83 0.951 . S
C86 C84 1.382 . S
C86 C87 1.390 . S
C86 H91 0.949 . S
C87 C86 1.390 . S
C87 C92 1.399 . S
C88 C84 1.404 . S
C88 H89 0.950 . S
C88 C90 1.375 . S
H89 C88 0.950 . S
C90 C88 1.375 . S
C90 C92 1.382 . S
C90 H94 0.950 . S
H91 C86 0.949 . S
C92 C87 1.399 . S
C92 C90 1.382 . S
C92 H93 0.952 . S
H93 C92 0.952 . S
H94 C90 0.950 . S
H95 C96 0.949 . S
C96 H95 0.949 . S
C96 C97 1.395 . S
C96 C98 1.391 . S
C97 C96 1.395 . S
C97 C100 1.390 . S
C98 C96 1.391 . S
C98 C102 1.387 . S
C98 C103 1.491 . S
H99 C100 0.950 . S
C100 C97 1.390 . S
C100 H99 0.950 . S
C100 C101 1.378 . S
C101 C100 1.378 . S
C101 C102 1.409 . S
C102 C98 1.387 . S
C102 C101 1.409 . S
C102 H104 0.951 . S
C103 C98 1.491 . S
C103 C105 1.382 . S
C103 C107 1.404 . S
H104 C102 0.951 . S
C105 C103 1.382 . S
C105 C106 1.390 . S
C105 H110 0.949 . S
C106 C105 1.390 . S
C106 C111 1.399 . S
C107 C103 1.404 . S
C107 H108 0.950 . S
C107 C109 1.375 . S
H108 C107 0.950 . S
C109 C107 1.375 . S
C109 C111 1.382 . S
C109 H113 0.950 . S
H110 C105 0.949 . S
C111 C106 1.399 . S
C111 C109 1.382 . S
C111 H112 0.952 . S
H112 C111 0.952 . S
H113 C109 0.950 . S
H114 C115 0.949 . S
C115 H114 0.949 . S
C115 C116 1.395 . S
C115 C117 1.391 . S
C116 C115 1.395 . S
C116 C119 1.390 . S
C117 C115 1.391 . S
C117 C121 1.387 . S
C117 C122 1.491 . S
H118 C119 0.950 . S
C119 C116 1.390 . S
C119 H118 0.950 . S
C119 C120 1.378 . S
C120 C119 1.378 . S
C120 C121 1.409 . S
C121 C117 1.387 . S
C121 C120 1.409 . S
C121 H123 0.951 . S
C122 C117 1.491 . S
C122 C124 1.382 . S
C122 C126 1.404 . S
H123 C121 0.951 . S
C124 C122 1.382 . S
C124 C125 1.390 . S
C124 H129 0.949 . S
C125 C124 1.390 . S
C125 C130 1.399 . S
C126 C122 1.404 . S
C126 H127 0.950 . S
C126 C128 1.375 . S
H127 C126 0.950 . S
C128 C126 1.375 . S
C128 C130 1.382 . S
C128 H132 0.950 . S
H129 C124 0.949 . S
C130 C125 1.399 . S
C130 C128 1.382 . S
C130 H131 0.952 . S
H131 C130 0.952 . S
H132 C128 0.950 . S
H133 C134 0.949 . S
C134 H133 0.949 . S
C134 C135 1.395 . S
C134 C136 1.391 . S
C135 C134 1.395 . S
C135 C138 1.390 . S
C136 C134 1.391 . S
C136 C140 1.387 . S
C136 C141 1.491 . S
H137 C138 0.950 . S
C138 C135 1.390 . S
C138 H137 0.950 . S
C138 C139 1.378 . S
C139 C138 1.378 . S
C139 C140 1.409 . S
C140 C136 1.387 . S
C140 C139 1.409 . S
C140 H142 0.951 . S
C141 C136 1.491 . S
C141 C143 1.382 . S
C141 C145 1.404 . S
H142 C140 0.951 . S
C143 C141 1.382 . S
C143 C144 1.390 . S
C143 H148 0.949 . S
C144 C143 1.390 . S
C144 C149 1.399 . S
C145 C141 1.404 . S
C145 H146 0.950 . S
C145 C147 1.375 . S
H146 C145 0.950 . S
C147 C145 1.375 . S
C147 C149 1.382 . S
C147 H151 0.950 . S
H148 C143 0.949 . S
C149 C144 1.399 . S
C149 C147 1.382 . S
C149 H150 0.952 . S
H150 C149 0.952 . S
H151 C147 0.950 . S
H152 C153 0.949 . S
C153 H152 0.949 . S
C153 C154 1.395 . S
C153 C155 1.391 . S
C154 C153 1.395 . S
C154 C157 1.390 . S
C155 C153 1.391 . S
C155 C159 1.387 . S
C155 C160 1.491 . S
H156 C157 0.950 . S
C157 C154 1.390 . S
C157 H156 0.950 . S
C157 C158 1.378 . S
C158 C157 1.378 . S
C158 C159 1.409 . S
C159 C155 1.387 . S
C159 C158 1.409 . S
C159 H161 0.951 . S
C160 C155 1.491 . S
C160 C162 1.382 . S
C160 C164 1.404 . S
H161 C159 0.951 . S
C162 C160 1.382 . S
C162 C163 1.390 . S
C162 H167 0.949 . S
C163 C162 1.390 . S
C163 C168 1.399 . S
C164 C160 1.404 . S
C164 H165 0.950 . S
C164 C166 1.375 . S
H165 C164 0.950 . S
C166 C164 1.375 . S
C166 C168 1.382 . S
C166 H170 0.950 . S
H167 C162 0.949 . S
C168 C163 1.399 . S
C168 C166 1.382 . S
C168 H169 0.952 . S
H169 C168 0.952 . S
H170 C166 0.950 . S
H171 C172 0.949 . S
C172 H171 0.949 . S
C172 C173 1.395 . S
C172 C174 1.391 . S
C173 C172 1.395 . S
C173 C176 1.390 . S
C174 C172 1.391 . S
C174 C178 1.387 . S
C174 C179 1.491 . S
H175 C176 0.950 1_545 S
C176 C173 1.390 . S
C176 H175 0.950 1_565 S
C176 C177 1.378 . S
C177 C176 1.378 . S
C177 C178 1.409 . S
C178 C174 1.387 . S
C178 C177 1.409 . S
C178 H180 0.951 . S
C179 C174 1.491 . S
C179 C181 1.382 . S
C179 C183 1.404 . S
H180 C178 0.951 . S
C181 C179 1.382 . S
C181 C182 1.390 . S
C181 H186 0.949 . S
C182 C181 1.390 . S
C182 C187 1.399 . S
C183 C179 1.404 . S
C183 H184 0.950 . S
C183 C185 1.375 . S
H184 C183 0.950 . S
C185 C183 1.375 . S
C185 C187 1.382 . S
C185 H189 0.950 . S
H186 C181 0.949 . S
C187 C182 1.399 . S
C187 C185 1.382 . S
C187 H188 0.952 . S
H188 C187 0.952 . S
H189 C185 0.950 . S
H190 C191 0.949 . S
C191 H190 0.949 . S
C191 C192 1.395 . S
C191 C193 1.391 . S
C192 C191 1.395 . S
C192 C195 1.390 . S
C193 C191 1.391 . S
C193 C197 1.387 . S
C193 C198 1.491 . S
H194 C195 0.950 . S
C195 C192 1.390 . S
C195 H194 0.950 . S
C195 C196 1.378 . S
C196 C195 1.378 . S
C196 C197 1.409 . S
C197 C193 1.387 . S
C197 C196 1.409 . S
C197 H199 0.951 . S
C198 C193 1.491 . S
C198 C200 1.382 . S
C198 C202 1.404 . S
H199 C197 0.951 . S
C200 C198 1.382 . S
C200 C201 1.390 . S
C200 H205 0.949 . S
C201 C200 1.390 . S
C201 C206 1.399 . S
C202 C198 1.404 . S
C202 H203 0.950 . S
C202 C204 1.375 . S
H203 C202 0.950 . S
C204 C202 1.375 . S
C204 C206 1.382 . S
C204 H208 0.950 . S
H205 C200 0.949 . S
C206 C201 1.399 . S
C206 C204 1.382 . S
C206 H207 0.952 . S
H207 C206 0.952 . S
H208 C204 0.950 . S
H209 C210 0.949 . S
C210 H209 0.949 . S
C210 C211 1.395 . S
C210 C212 1.391 . S
C211 C210 1.395 . S
C211 C214 1.390 . S
C212 C210 1.391 . S
C212 C216 1.387 . S
C212 C217 1.491 . S
H213 C214 0.950 . S
C214 C211 1.390 . S
C214 H213 0.950 . S
C214 C215 1.378 . S
C215 C214 1.378 . S
C215 C216 1.409 . S
C216 C212 1.387 . S
C216 C215 1.409 . S
C216 H218 0.951 . S
C217 C212 1.491 . S
C217 C219 1.382 . S
C217 C221 1.404 . S
H218 C216 0.951 . S
C219 C217 1.382 . S
C219 C220 1.390 . S
C219 H224 0.949 . S
C220 C219 1.390 . S
C220 C225 1.399 . S
C221 C217 1.404 . S
C221 H222 0.950 . S
C221 C223 1.375 . S
H222 C221 0.950 . S
C223 C221 1.375 . S
C223 C225 1.382 . S
C223 H227 0.950 . S
H224 C219 0.949 . S
C225 C220 1.399 . S
C225 C223 1.382 . S
C225 H226 0.952 . S
H226 C225 0.952 . S
H227 C223 0.950 . S
H228 C229 0.949 . S
C229 H228 0.949 . S
C229 C230 1.395 . S
C229 C231 1.391 . S
C230 C229 1.395 . S
C230 C233 1.390 . S
C231 C229 1.391 . S
C231 C235 1.387 . S
C231 C236 1.491 . S
H232 C233 0.950 . S
C233 C230 1.390 . S
C233 H232 0.950 . S
C233 C234 1.378 . S
C234 C233 1.378 . S
C234 C235 1.409 . S
C235 C231 1.387 . S
C235 C234 1.409 . S
C235 H237 0.951 . S
C236 C231 1.491 . S
C236 C238 1.382 . S
C236 C240 1.404 . S
H237 C235 0.951 . S
C238 C236 1.382 . S
C238 C239 1.390 . S
C238 H243 0.949 . S
C239 C238 1.390 . S
C239 C244 1.399 . S
C240 C236 1.404 . S
C240 H241 0.950 . S
C240 C242 1.375 . S
H241 C240 0.950 . S
C242 C240 1.375 . S
C242 C244 1.382 . S
C242 H246 0.950 . S
H243 C238 0.949 . S
C244 C239 1.399 . S
C244 C242 1.382 . S
C244 H245 0.952 . S
H245 C244 0.952 . S
H246 C242 0.950 . S
H247 C248 0.949 . S
C248 H247 0.949 . S
C248 C249 1.395 . S
C248 C250 1.391 . S
C249 C248 1.395 . S
C249 C252 1.390 . S
C250 C248 1.391 . S
C250 C254 1.387 . S
C250 C255 1.491 . S
H251 C252 0.950 . S
C252 C249 1.390 . S
C252 H251 0.950 . S
C252 C253 1.378 . S
C253 C252 1.378 . S
C253 C254 1.409 . S
C254 C250 1.387 . S
C254 C253 1.409 . S
C254 H256 0.951 . S
C255 C250 1.491 . S
C255 C257 1.382 . S
C255 C259 1.404 . S
H256 C254 0.951 . S
C257 C255 1.382 . S
C257 C258 1.390 1_556 S
C257 H262 0.949 1_556 S
C258 C257 1.390 1_554 S
C258 C263 1.399 1_554 S
C259 C255 1.404 . S
C259 H260 0.950 . S
C259 C261 1.375 . S
H260 C259 0.950 . S
C261 C259 1.375 . S
C261 C263 1.382 . S
C261 H265 0.950 . S
H262 C257 0.949 1_554 S
C263 C258 1.399 1_556 S
C263 C261 1.382 . S
C263 H264 0.952 . S
H264 C263 0.952 . S
H265 C261 0.950 . S
H266 C267 0.949 . S
C267 H266 0.949 . S
C267 C268 1.395 . S
C267 C269 1.391 . S
C268 C267 1.395 . S
C268 C271 1.390 . S
C269 C267 1.391 . S
C269 C273 1.387 . S
C269 C274 1.491 . S
H270 C271 0.950 . S
C271 C268 1.390 . S
C271 H270 0.950 . S
C271 C272 1.378 . S
C272 C271 1.378 . S
C272 C273 1.409 . S
C273 C269 1.387 . S
C273 C272 1.409 . S
C273 H275 0.951 . S
C274 C269 1.491 . S
C274 C276 1.382 . S
C274 C278 1.404 . S
H275 C273 0.951 . S
C276 C274 1.382 . S
C276 C277 1.390 . S
C276 H281 0.949 . S
C277 C276 1.390 . S
C277 C282 1.399 . S
C278 C274 1.404 . S
C278 H279 0.950 . S
C278 C280 1.375 . S
H279 C278 0.950 . S
C280 C278 1.375 . S
C280 C282 1.382 . S
C280 H284 0.950 . S
H281 C276 0.949 . S
C282 C277 1.399 . S
C282 C280 1.382 . S
C282 H283 0.952 . S
H283 C282 0.952 . S
H284 C280 0.950 . S
H285 C286 0.949 . S
C286 H285 0.949 . S
C286 C287 1.395 1_556 S
C286 C288 1.391 . S
C287 C286 1.395 1_554 S
C287 C290 1.390 . S
C288 C286 1.391 . S
C288 C292 1.387 . S
C288 C293 1.491 . S
H289 C290 0.950 . S
C290 C287 1.390 . S
C290 H289 0.950 . S
C290 C291 1.378 . S
C291 C290 1.378 . S
C291 C292 1.409 1_554 S
C292 C288 1.387 . S
C292 C291 1.409 1_556 S
C292 H294 0.951 1_545 S
C293 C288 1.491 . S
C293 C295 1.382 . S
C293 C297 1.404 . S
H294 C292 0.951 1_565 S
C295 C293 1.382 . S
C295 C296 1.390 . S
C295 H300 0.949 . S
C296 C295 1.390 . S
C296 C301 1.399 . S
C297 C293 1.404 . S
C297 H298 0.947 1_545 S
C297 C299 1.375 1_545 S
H298 C297 0.947 1_565 S
C299 C297 1.375 1_565 S
C299 C301 1.382 1_565 S
C299 H303 0.950 . S
H300 C295 0.949 . S
C301 C296 1.399 . S
C301 C299 1.382 1_545 S
C301 H302 0.950 1_545 S
H302 C301 0.950 1_565 S
H303 C299 0.950 . S
O304 Cd305 2.223 . S
O304 C312 1.315 . S
Cd305 O304 2.223 . S
Cd305 O308 2.297 . S
Cd305 O309 2.439 . S
Cd305 O315 2.240 1_565 S
Cd306 O307 2.240 . S
Cd306 O314 2.223 1_565 S
Cd306 O316 2.297 1_565 S
Cd306 O317 2.439 1_565 S
O307 Cd306 2.240 . S
O307 C312 1.279 . S
O308 Cd305 2.297 . S
O308 C310 1.247 . S
O309 Cd305 2.439 . S
O309 C310 1.208 . S
C310 O308 1.247 . S
C310 O309 1.208 . S
C311 O316 1.247 . S
C311 O317 1.208 . S
C312 O304 1.315 . S
C312 O307 1.279 . S
C313 O314 1.315 . S
C313 O315 1.279 . S
O314 Cd306 2.223 1_545 S
O314 C313 1.315 . S
O315 Cd305 2.240 1_545 S
O315 C313 1.279 . S
O316 Cd306 2.297 1_545 S
O316 C311 1.247 . S
O317 Cd306 2.439 1_545 S
O317 C311 1.208 . S
O318 Cd319 2.223 . S
O318 C326 1.315 . S
Cd319 O318 2.223 . S
Cd319 O322 2.297 . S
Cd319 O323 2.439 . S
Cd319 O329 2.240 . S
Cd320 O321 2.240 . S
Cd320 O328 2.223 . S
Cd320 O330 2.297 1_455 S
Cd320 O331 2.439 . S
O321 Cd320 2.240 . S
O321 C326 1.279 . S
O322 Cd319 2.297 . S
O322 C324 1.247 . S
O323 Cd319 2.439 . S
O323 C324 1.208 . S
C324 O322 1.247 . S
C324 O323 1.208 . S
C325 O330 1.247 . S
C325 O331 1.208 1_655 S
C326 O318 1.315 . S
C326 O321 1.279 . S
C327 O328 1.315 . S
C327 O329 1.279 . S
O328 Cd320 2.223 . S
O328 C327 1.315 . S
O329 Cd319 2.240 . S
O329 C327 1.279 . S
O330 Cd320 2.297 1_655 S
O330 C325 1.247 . S
O331 Cd320 2.439 . S
O331 C325 1.208 1_455 S
O332 Cd333 2.223 1_556 S
O332 C340 1.315 . S
Cd333 O332 2.223 1_554 S
Cd333 O336 2.297 . S
Cd333 O337 2.439 . S
Cd333 O343 2.240 1_554 S
Cd334 O335 2.240 . S
Cd334 O342 2.223 . S
Cd334 O344 2.297 . S
Cd334 O345 2.439 1_556 S
O335 Cd334 2.240 . S
O335 C340 1.279 . S
O336 Cd333 2.297 . S
O336 C338 1.247 . S
O337 Cd333 2.439 . S
O337 C338 1.208 . S
C338 O336 1.247 . S
C338 O337 1.208 . S
C339 O344 1.247 1_554 S
C339 O345 1.208 . S
C340 O332 1.315 . S
C340 O335 1.279 . S
C341 O342 1.315 . S
C341 O343 1.279 . S
O342 Cd334 2.223 . S
O342 C341 1.315 . S
O343 Cd333 2.240 1_556 S
O343 C341 1.279 . S
O344 Cd334 2.297 . S
O344 C339 1.247 1_556 S
O345 Cd334 2.439 1_554 S
O345 C339 1.208 . S
O346 Cd347 2.223 1_565 S
O346 C354 1.315 1_565 S
Cd347 O346 2.223 1_545 S
Cd347 O350 2.297 . S
Cd347 O351 2.439 . S
Cd347 O357 2.240 1_455 S
Cd348 O349 2.240 1_655 S
Cd348 O356 2.223 . S
Cd348 O358 2.297 . S
Cd348 O359 2.439 . S
O349 Cd348 2.240 1_455 S
O349 C354 1.279 . S
O350 Cd347 2.297 . S
O350 C352 1.247 . S
O351 Cd347 2.439 . S
O351 C352 1.208 . S
C352 O350 1.247 . S
C352 O351 1.208 . S
C353 O358 1.247 . S
C353 O359 1.208 . S
C354 O346 1.315 1_545 S
C354 O349 1.279 . S
C355 O356 1.315 1_565 S
C355 O357 1.279 1_565 S
O356 Cd348 2.223 . S
O356 C355 1.315 1_545 S
O357 Cd347 2.240 1_655 S
O357 C355 1.279 1_545 S
O358 Cd348 2.297 . S
O358 C353 1.247 . S
O359 Cd348 2.439 . S
O359 C353 1.208 . S
O360 Cd361 2.223 . S
O360 C368 1.315 . S
Cd361 O360 2.223 . S
Cd361 O364 2.297 . S
Cd361 O365 2.439 . S
Cd361 O371 2.240 . S
Cd362 O363 2.240 . S
Cd362 O370 2.223 . S
Cd362 O372 2.297 . S
Cd362 O373 2.439 . S
O363 Cd362 2.240 . S
O363 C368 1.279 . S
O364 Cd361 2.297 . S
O364 C366 1.247 . S
O365 Cd361 2.439 . S
O365 C366 1.208 . S
C366 O364 1.247 . S
C366 O365 1.208 . S
C367 O372 1.247 . S
C367 O373 1.208 . S
C368 O360 1.315 . S
C368 O363 1.279 . S
C369 O370 1.315 . S
C369 O371 1.279 . S
O370 Cd362 2.223 . S
O370 C369 1.315 . S
O371 Cd361 2.240 . S
O371 C369 1.279 . S
O372 Cd362 2.297 . S
O372 C367 1.247 . S
O373 Cd362 2.439 . S
O373 C367 1.208 . S
O374 Cd375 2.223 . S
O374 C382 1.315 . S
Cd375 O374 2.223 . S
Cd375 O378 2.297 . S
Cd375 O379 2.439 . S
Cd375 O385 2.240 . S
Cd376 O377 2.240 . S
Cd376 O384 2.223 . S
Cd376 O386 2.297 . S
Cd376 O387 2.439 . S
O377 Cd376 2.240 . S
O377 C382 1.279 . S
O378 Cd375 2.297 . S
O378 C380 1.247 . S
O379 Cd375 2.439 . S
O379 C380 1.208 . S
C380 O378 1.247 . S
C380 O379 1.208 . S
C381 O386 1.247 . S
C381 O387 1.208 . S
C382 O374 1.315 . S
C382 O377 1.279 . S
C383 O384 1.315 . S
C383 O385 1.279 . S
O384 Cd376 2.223 . S
O384 C383 1.315 . S
O385 Cd375 2.240 . S
O385 C383 1.279 . S
O386 Cd376 2.297 . S
O386 C381 1.247 . S
O387 Cd376 2.439 . S
O387 C381 1.208 . S
O388 Cd389 2.223 . S
O388 C396 1.315 . S
Cd389 O388 2.223 . S
Cd389 O392 2.297 . S
Cd389 O393 2.439 . S
Cd389 O399 2.240 . S
Cd390 O391 2.240 . S
Cd390 O398 2.223 . S
Cd390 O400 2.297 . S
Cd390 O401 2.439 . S
O391 Cd390 2.240 . S
O391 C396 1.279 . S
O392 Cd389 2.297 . S
O392 C394 1.247 . S
O393 Cd389 2.439 . S
O393 C394 1.208 . S
C394 O392 1.247 . S
C394 O393 1.208 . S
C395 O400 1.247 . S
C395 O401 1.208 . S
C396 O388 1.315 . S
C396 O391 1.279 . S
C397 O398 1.315 . S
C397 O399 1.279 . S
O398 Cd390 2.223 . S
O398 C397 1.315 . S
O399 Cd389 2.240 . S
O399 C397 1.279 . S
O400 Cd390 2.297 . S
O400 C395 1.247 . S
O401 Cd390 2.439 . S
O401 C395 1.208 . S
O402 Cd403 2.223 1_545 S
O402 C410 1.315 . S
Cd403 O402 2.223 1_565 S
Cd403 O406 2.297 . S
Cd403 O407 2.439 . S
Cd403 O413 2.240 1_565 S
Cd404 O405 2.240 . S
Cd404 O412 2.223 . S
Cd404 O414 2.297 1_545 S
Cd404 O415 2.439 1_545 S
O405 Cd404 2.240 . S
O405 C410 1.279 . S
O406 Cd403 2.297 . S
O406 C408 1.247 . S
O407 Cd403 2.439 . S
O407 C408 1.208 . S
C408 O406 1.247 . S
C408 O407 1.208 . S
C409 O414 1.247 . S
C409 O415 1.208 . S
C410 O402 1.315 . S
C410 O405 1.279 . S
C411 O412 1.315 . S
C411 O413 1.279 . S
O412 Cd404 2.223 . S
O412 C411 1.315 . S
O413 Cd403 2.240 1_545 S
O413 C411 1.279 . S
O414 Cd404 2.297 1_565 S
O414 C409 1.247 . S
O415 Cd404 2.439 1_565 S
O415 C409 1.208 . S
O416 Cd417 2.223 . S
O416 C424 1.315 . S
Cd417 O416 2.223 . S
Cd417 O420 2.297 . S
Cd417 O421 2.439 1_655 S
Cd417 O427 2.240 . S
Cd418 O419 2.240 1_455 S
Cd418 O426 2.223 1_455 S
Cd418 O428 2.297 . S
Cd418 O429 2.439 . S
O419 Cd418 2.240 1_655 S
O419 C424 1.279 . S
O420 Cd417 2.297 . S
O420 C422 1.247 1_655 S
O421 Cd417 2.439 1_455 S
O421 C422 1.208 . S
C422 O420 1.247 1_455 S
C422 O421 1.208 . S
C423 O428 1.247 . S
C423 O429 1.208 . S
C424 O416 1.315 . S
C424 O419 1.279 . S
C425 O426 1.315 . S
C425 O427 1.279 . S
O426 Cd418 2.223 1_655 S
O426 C425 1.315 . S
O427 Cd417 2.240 . S
O427 C425 1.279 . S
O428 Cd418 2.297 . S
O428 C423 1.247 . S
O429 Cd418 2.439 . S
O429 C423 1.208 . S
O430 Cd431 2.223 . S
O430 C438 1.315 . S
Cd431 O430 2.223 . S
Cd431 O434 2.297 . S
Cd431 O435 2.439 . S
Cd431 O441 2.240 . S
Cd432 O433 2.240 . S
Cd432 O440 2.223 . S
Cd432 O442 2.297 . S
Cd432 O443 2.439 . S
O433 Cd432 2.240 . S
O433 C438 1.279 . S
O434 Cd431 2.297 . S
O434 C436 1.247 . S
O435 Cd431 2.439 . S
O435 C436 1.208 . S
C436 O434 1.247 . S
C436 O435 1.208 . S
C437 O442 1.247 . S
C437 O443 1.208 . S
C438 O430 1.315 . S
C438 O433 1.279 . S
C439 O440 1.315 . S
C439 O441 1.279 . S
O440 Cd432 2.223 . S
O440 C439 1.315 . S
O441 Cd431 2.240 . S
O441 C439 1.279 . S
O442 Cd432 2.297 . S
O442 C437 1.247 . S
O443 Cd432 2.439 . S
O443 C437 1.208 . S
O444 Cd445 2.223 1_655 S
O444 C452 1.315 . S
Cd445 O444 2.223 1_455 S
Cd445 O448 2.297 . S
Cd445 O449 2.439 . S
Cd445 O455 2.242 . S
Cd446 O447 2.240 . S
Cd446 O454 2.223 . S
Cd446 O456 2.297 1_655 S
Cd446 O457 2.439 1_655 S
O447 Cd446 2.240 . S
O447 C452 1.279 . S
O448 Cd445 2.297 . S
O448 C450 1.247 . S
O449 Cd445 2.439 . S
O449 C450 1.208 . S
C450 O448 1.247 . S
C450 O449 1.208 . S
C451 O456 1.247 . S
C451 O457 1.208 . S
C452 O444 1.315 . S
C452 O447 1.279 . S
C453 O454 1.315 . S
C453 O455 1.273 1_655 S
O454 Cd446 2.223 . S
O454 C453 1.315 . S
O455 Cd445 2.242 . S
O455 C453 1.273 1_455 S
O456 Cd446 2.297 1_455 S
O456 C451 1.247 . S
O457 Cd446 2.439 1_455 S
O457 C451 1.208 . S
O458 Cd459 2.223 . S
O458 C466 1.315 . S
Cd459 O458 2.223 . S
Cd459 O462 2.297 . S
Cd459 O463 2.439 . S
Cd459 O469 2.240 . S
Cd460 O461 2.240 . S
Cd460 O468 2.223 . S
Cd460 O470 2.297 . S
Cd460 O471 2.439 . S
O461 Cd460 2.240 . S
O461 C466 1.279 . S
O462 Cd459 2.297 . S
O462 C464 1.247 . S
O463 Cd459 2.439 . S
O463 C464 1.208 . S
C464 O462 1.247 . S
C464 O463 1.208 . S
C465 O470 1.247 . S
C465 O471 1.208 . S
C466 O458 1.315 . S
C466 O461 1.279 . S
C467 O468 1.315 . S
C467 O469 1.279 . S
O468 Cd460 2.223 . S
O468 C467 1.315 . S
O469 Cd459 2.240 . S
O469 C467 1.279 . S
O470 Cd460 2.297 . S
O470 C465 1.247 . S
O471 Cd460 2.439 . S
O471 C465 1.208 . S
C312 C101 2.295 1_554 S
C327 C125 1.932 1_455 S
C139 C340 2.663 . S
C354 C82 1.799 . S
C366 C196 2.036 . S
C380 C234 1.691 . S
C220 C394 1.925 . S
C409 C173 1.866 . S
C211 C425 2.021 . S
C438 C182 1.213 . S
C201 C423 1.398 . S
C436 C239 2.860 . S
C135 C452 2.332 . S
C87 C451 2.021 . S
C106 C450 1.234 . S
C116 C453 1.432 . S
C59 C355 2.854 . S
C268 C353 2.151 . S
C313 C291 2.024 . S
C324 C163 1.560 . S
C78 C369 2.103 . S
C410 C215 1.720 . S
C367 C177 3.222 1_545 S
C395 C230 1.798 . S
C396 C272 2.291 . S
C296 C411 1.941 . S
C158 C368 2.662 . S
C382 C253 1.781 . S
C63 C338 2.035 . S
C352 C6 1.708 . S
C310 C30 1.946 . S
C325 C40 1.857 . S
C21 C439 2.010 . S
C49 C424 1.220 . S
C68 C437 1.411 . S
C11 C422 2.848 1_554 S
C466 C154 2.332 . S
C465 C258 2.033 . S
C464 C277 1.225 . S
C287 C467 1.425 . S
C192 C383 2.857 . S
C381 C97 2.163 . S
C397 C120 2.014 . S
C408 C144 1.564 . S
C249 C341 2.086 . S
C326 C25 1.708 . S
C44 C339 3.225 . S
C311 C2 1.808 . S
