# Generated by pormake.
# Topology tsx, (6,3)-cn, num edge types: 1
# Building blocks:
#     Node 0, Type 0, BuildingBlock: VOLQOD_clean_sbu_1, # of connection points: 6
#     Node 1, Type 0, BuildingBlock: VOLQOD_clean_sbu_1, # of connection points: 6
#     Node 2, Type 1, BuildingBlock: ESEHIV_clean_linker_0, # of connection points: 3
#     Node 3, Type 1, BuildingBlock: ESEHIV_clean_linker_0, # of connection points: 3
#     Node 4, Type 1, BuildingBlock: ESEHIV_clean_linker_0, # of connection points: 3
#     Node 5, Type 1, BuildingBlock: ESEHIV_clean_linker_0, # of connection points: 3
#     Edge 6, Type (0, 1), BuildingBlock: CIFDUS_clean_linker_0, # of connection points: 2
#     Edge 7, Type (0, 1), BuildingBlock: CIFDUS_clean_linker_0, # of connection points: 2
#     Edge 8, Type (0, 1), BuildingBlock: CIFDUS_clean_linker_0, # of connection points: 2
#     Edge 9, Type (0, 1), BuildingBlock: CIFDUS_clean_linker_0, # of connection points: 2
#     Edge 10, Type (0, 1), BuildingBlock: CIFDUS_clean_linker_0, # of connection points: 2
#     Edge 11, Type (0, 1), BuildingBlock: CIFDUS_clean_linker_0, # of connection points: 2
#     Edge 12, Type (0, 1), BuildingBlock: CIFDUS_clean_linker_0, # of connection points: 2
#     Edge 13, Type (0, 1), BuildingBlock: CIFDUS_clean_linker_0, # of connection points: 2
#     Edge 14, Type (0, 1), BuildingBlock: CIFDUS_clean_linker_0, # of connection points: 2
#     Edge 15, Type (0, 1), BuildingBlock: CIFDUS_clean_linker_0, # of connection points: 2
#     Edge 16, Type (0, 1), BuildingBlock: CIFDUS_clean_linker_0, # of connection points: 2
#     Edge 17, Type (0, 1), BuildingBlock: CIFDUS_clean_linker_0, # of connection points: 2
# Relax obj value: 0.075
# Max RMSD: 0.108
# Mean RMSD: 0.082
data_MOF--net-tsx--node1-VOLQOD_clean_sbu_1--node2-ESEHIV_clean_linker_0--edge1-CIFDUS_clean_linker_0
_symmetry_space_group_name_H-M    P1
_symmetry_Int_Tables_number       1
_symmetry_cell_setting            triclinic
loop_
_symmetry_equiv_pos_as_xyz
'x, y, z'
_cell_length_a     16.967303
_cell_length_b     17.478113
_cell_length_c     33.400643
_cell_angle_alpha  90.87325
_cell_angle_beta   90.262139
_cell_angle_gamma 90.344369
loop_
_atom_site_label
_atom_site_type_symbol
_atom_site_fract_x
_atom_site_fract_y
_atom_site_fract_z
_atom_type_partial_charge
O0 O 0.03418 0.91125 0.09975 0.0
Zn1 Zn 0.07444 0.93053 0.04404 0.0
O2 O 0.99092 0.96186 0.00876 0.0
Zn3 Zn 0.96544 0.88104 0.97129 0.0
Zn4 Zn 0.8992 0.98619 0.0413 0.0
Zn5 Zn 0.02786 0.04761 0.97739 0.0
O6 O 0.95421 0.92063 0.91556 0.0
O7 O 0.03145 0.02366 0.9176 0.0
O8 O 0.13129 0.83882 0.02101 0.0
O9 O 0.0525 0.80482 0.97036 0.0
O10 O 0.866 0.8279 0.98625 0.0
O11 O 0.81492 0.90358 0.03329 0.0
O12 O 0.85608 0.08946 0.02527 0.0
O13 O 0.15043 0.01813 0.05093 0.0
O14 O 0.9482 0.12988 0.98316 0.0
O15 O 0.12928 0.09356 0.99908 0.0
C16 C 0.98041 0.94684 0.11886 0.0
C17 C 0.99004 0.97467 0.89796 0.0
C18 C 0.81129 0.84379 0.01086 0.0
C19 C 0.11433 0.79488 0.99133 0.0
C20 C 0.88406 0.14011 0.00203 0.0
C21 C 0.1672 0.07727 0.03079 0.0
O22 O 0.92896 0.98665 0.10063 0.0
O23 O 0.56432 0.48454 0.6042 0.0
Zn24 Zn 0.59928 0.48898 0.54622 0.0
O25 O 0.50957 0.51301 0.51132 0.0
Zn26 Zn 0.49097 0.42754 0.4742 0.0
Zn27 Zn 0.41519 0.53009 0.54318 0.0
Zn28 Zn 0.53131 0.60583 0.4814 0.0
O29 O 0.49862 0.46146 0.41714 0.0
O30 O 0.5385 0.58261 0.42247 0.0
O31 O 0.65314 0.38942 0.5295 0.0
O32 O 0.57328 0.34758 0.481 0.0
O33 O 0.38611 0.37612 0.48331 0.0
O34 O 0.33604 0.44689 0.53252 0.0
O35 O 0.36153 0.62969 0.53042 0.0
O36 O 0.67968 0.57383 0.54421 0.0
O37 O 0.44285 0.68153 0.48663 0.0
O38 O 0.63139 0.65679 0.50087 0.0
C39 C 0.50063 0.50419 0.62163 0.0
C40 C 0.52079 0.52375 0.40129 0.0
C41 C 0.33123 0.3904 0.50813 0.0
C42 C 0.63386 0.33924 0.50305 0.0
C43 C 0.37945 0.68358 0.50683 0.0
C44 C 0.68447 0.63683 0.52565 0.0
O45 O 0.44078 0.5261 0.6018 0.0
H46 H 0.90236 0.08773 0.36953 0.0
H47 H 0.11082 0.95174 0.3537 0.0
H48 H 0.04689 0.03384 0.47113 0.0
C49 C 0.95387 0.05996 0.38173 0.0
C50 C 0.96916 0.06612 0.42311 0.0
C51 C 0.00474 0.01928 0.35609 0.0
C52 C 0.07084 0.98332 0.37288 0.0
C53 C 0.08594 0.98731 0.41435 0.0
C54 C 0.03518 0.02955 0.43923 0.0
H55 H 0.93257 0.93557 0.65392 0.0
H56 H 0.05455 0.15203 0.65773 0.0
H57 H 0.97191 0.05922 0.54534 0.0
C58 C 0.95592 0.98518 0.63888 0.0
C59 C 0.94608 0.99116 0.59715 0.0
C60 C -0.00474 0.04273 0.66126 0.0
C61 C 0.02451 0.10678 0.64109 0.0
C62 C 0.01684 0.1126 0.59937 0.0
C63 C 0.97759 0.05476 0.57757 0.0
H64 H 0.44772 0.58037 0.86317 0.0
H65 H 0.62784 0.40818 0.86863 0.0
H66 H 0.51509 0.48675 0.97646 0.0
C67 C 0.48371 0.54132 0.88017 0.0
C68 C 0.47514 0.53885 0.92193 0.0
C69 C 0.53907 0.49478 0.86045 0.0
C70 C 0.58626 0.44602 0.88333 0.0
C71 C 0.5775 0.4429 0.92506 0.0
C72 C 0.52217 0.48954 0.94426 0.0
H73 H 0.44775 0.37003 0.15871 0.0
H74 H 0.56096 0.58906 0.15771 0.0
H75 H 0.45323 0.50135 0.05007 0.0
C76 C 0.46359 0.42082 0.14254 0.0
C77 C 0.44358 0.42724 0.10162 0.0
C78 C 0.50296 0.47998 0.16342 0.0
C79 C 0.52698 0.54463 0.14244 0.0
C80 C 0.51008 0.5518 0.10161 0.0
C81 C 0.46785 0.4936 0.08132 0.0
H82 H 0.26765 0.17599 0.99292 0.0
H83 H 0.18464 0.10928 0.10937 0.0
H84 H 0.25787 0.21424 0.14068 0.0
H85 H 0.33745 0.32795 0.1349 0.0
H86 H 0.44019 0.3859 0.02099 0.0
H87 H 0.36383 0.2838 0.98855 0.0
C88 C 0.26673 0.18407 0.02517 0.0
C89 C 0.22094 0.13495 0.0488 0.0
C90 C 0.31088 0.24379 0.04333 0.0
C91 C 0.22016 0.14572 0.09056 0.0
C92 C 0.26142 0.20618 0.1085 0.0
C93 C 0.3465 0.3174 0.10325 0.0
C94 C 0.3967 0.365 0.08097 0.0
C95 C 0.3063 0.25585 0.08515 0.0
C96 C 0.40208 0.35144 0.03933 0.0
C97 C 0.35884 0.29224 0.02065 0.0
H98 H 0.26496 0.77357 0.01752 0.0
H99 H 0.08889 0.68115 0.93604 0.0
H100 H 0.18461 0.59171 0.90861 0.0
H101 H 0.32029 0.5455 0.9044 0.0
H102 H 0.49755 0.63894 0.98398 0.0
H103 H 0.39947 0.72165 0.01603 0.0
C104 C 0.24723 0.7332 0.99415 0.0
C105 C 0.17006 0.73467 0.97863 0.0
C106 C 0.3029 0.68241 0.97805 0.0
C107 C 0.1481 0.68184 0.94833 0.0
C108 C 0.20279 0.63067 0.93252 0.0
C109 C 0.33707 0.58404 0.9288 0.0
C110 C 0.41553 0.58663 0.94204 0.0
C111 C 0.28065 0.63165 0.94652 0.0
C112 C 0.437 0.63575 0.97391 0.0
C113 C 0.38111 0.68322 0.99192 0.0
H114 H 0.68219 0.85615 0.05896 0.0
H115 H 0.79459 0.7041 0.97384 0.0
H116 H 0.70188 0.60255 0.99018 0.0
H117 H 0.60249 0.55109 0.03597 0.0
H118 H 0.4909 0.702 0.12141 0.0
H119 H 0.56887 0.8099 0.09731 0.0
C120 C 0.68574 0.80123 0.04353 0.0
C121 C 0.74654 0.78747 0.01594 0.0
C122 C 0.63271 0.74251 0.05335 0.0
C123 C 0.74924 0.7162 0.99572 0.0
C124 C 0.6963 0.6578 0.00506 0.0
C125 C 0.59378 0.60811 0.04842 0.0
C126 C 0.54182 0.61887 0.08051 0.0
C127 C 0.6398 0.66943 0.03491 0.0
C128 C 0.5311 0.69272 0.09672 0.0
C129 C 0.57587 0.75419 0.08311 0.0
H130 H 0.72774 0.16583 0.0147 0.0
H131 H 0.93978 0.27137 0.96975 0.0
H132 H 0.86363 0.37827 0.94482 0.0
H133 H 0.73558 0.43485 0.92922 0.0
H134 H 0.52293 0.32825 0.97146 0.0
H135 H 0.60015 0.22934 0.00457 0.0
C136 C 0.75737 0.21295 1.00016 0.0
C137 C 0.83904 0.21007 0.99358 0.0
C138 C 0.713 0.27378 0.98514 0.0
C139 C 0.87671 0.27163 0.97469 0.0
C140 C 0.83329 0.33281 0.96035 0.0
C141 C 0.70661 0.39025 0.94609 0.0
C142 C 0.62425 0.38827 0.94819 0.0
C143 C 0.75126 0.33323 0.96427 0.0
C144 C 0.58659 0.33099 0.97017 0.0
C145 C 0.63065 0.27426 0.98872 0.0
H146 H 0.70038 0.78517 0.50298 0.0
H147 H 0.81393 0.61014 0.57222 0.0
H148 H 0.91001 0.70352 0.59735 0.0
H149 H 0.95395 0.83674 0.60472 0.0
H150 H 0.83658 0.01293 0.53816 0.0
H151 H 0.75126 0.91687 0.5062 0.0
C152 C 0.74679 0.76709 0.52311 0.0
C153 C 0.74916 0.69089 0.53608 0.0
C154 C 0.80105 0.82139 0.5381 0.0
C155 C 0.81006 0.66855 0.56204 0.0
C156 C 0.86505 0.72194 0.57651 0.0
C157 C 0.90966 0.85409 0.58323 0.0
C158 C 0.90075 0.93194 0.5744 0.0
C159 C 0.85965 0.79886 0.56566 0.0
C160 C 0.84471 0.95334 0.54555 0.0
C161 C 0.7955 0.8985 0.52744 0.0
H162 H 0.79112 0.3237 0.51975 0.0
H163 H 0.59131 0.20488 0.46715 0.0
H164 H 0.67729 0.10433 0.44192 0.0
H165 H 0.81018 0.05874 0.42722 0.0
H166 H 0.01148 0.17928 0.47626 0.0
H167 H 0.92449 0.26909 0.51133 0.0
C168 C 0.76632 0.27497 0.50351 0.0
C169 C 0.68505 0.2725 0.49482 0.0
C170 C 0.81654 0.21784 0.48817 0.0
C171 C 0.6538 0.20887 0.47374 0.0
C172 C 0.70291 0.15127 0.45923 0.0
C173 C 0.83479 0.10432 0.44592 0.0
C174 C 0.91687 0.11308 0.4489 0.0
C175 C 0.78453 0.15667 0.46496 0.0
C176 C 0.94832 0.17134 0.47375 0.0
C177 C 0.89858 0.22306 0.49347 0.0
H178 H 0.19961 0.40915 0.55281 0.0
H179 H 0.31347 0.24885 0.47255 0.0
H180 H 0.21719 0.15036 0.4898 0.0
H181 H 0.11447 0.10486 0.53562 0.0
H182 H 0.00456 0.26438 0.61744 0.0
H183 H 0.08567 0.3684 0.59159 0.0
C184 C 0.20285 0.35304 0.5386 0.0
C185 C 0.26474 0.33594 0.51214 0.0
C186 C 0.14869 0.2963 0.54936 0.0
C187 C 0.26699 0.26336 0.4934 0.0
C188 C 0.21221 0.20684 0.5034 0.0
C189 C 0.1071 0.1628 0.54705 0.0
C190 C 0.05472 0.17711 0.57871 0.0
C191 C 0.15488 0.22187 0.53255 0.0
C192 C 0.04556 0.25217 0.59343 0.0
C193 C 0.0918 0.31148 0.57868 0.0
H194 H 0.39062 0.79787 0.4527 0.0
H195 H 0.23831 0.70863 0.54435 0.0
H196 H 0.13654 0.80017 0.52617 0.0
H197 H 0.08594 0.89667 0.47982 0.0
H198 H 0.23723 0.98261 0.38706 0.0
H199 H 0.3442 0.90115 0.41014 0.0
C200 C 0.33565 0.79894 0.46913 0.0
C201 C 0.32209 0.74576 0.49963 0.0
C202 C 0.27676 0.85066 0.45802 0.0
C203 C 0.25037 0.74845 0.52058 0.0
C204 C 0.19194 0.8007 0.51014 0.0
C205 C 0.14282 0.89855 0.46515 0.0
C206 C 0.15342 0.94495 0.43151 0.0
C207 C 0.20376 0.85076 0.47825 0.0
C208 C 0.22725 0.94641 0.41261 0.0
C209 C 0.28847 0.90002 0.42585 0.0
H210 H 0.93346 0.05885 0.17081 0.0
H211 H 0.03232 0.83216 0.16634 0.0
H212 H 0.04441 0.83276 0.23931 0.0
H213 H 0.0311 0.89918 0.30409 0.0
H214 H 0.9446 0.13116 0.30788 0.0
H215 H 0.92195 0.12616 0.23585 0.0
C216 C 0.95671 0.00926 0.18589 0.0
C217 C 0.98154 0.94539 0.16321 0.0
C218 C 0.96582 0.01093 0.22782 0.0
C219 C 0.01282 0.88204 0.18312 0.0
C220 C 0.01984 0.88239 0.22484 0.0
C221 C 0.00813 0.94914 0.28928 0.0
C222 C 0.98964 0.0154 0.31188 0.0
C223 C -0.00242 0.94695 0.24747 0.0
C224 C 0.95819 0.0787 0.29178 0.0
C225 C 0.94576 0.07624 0.25035 0.0
H226 H 0.09088 0.04091 0.84514 0.0
H227 H 0.86692 0.92379 0.85244 0.0
H228 H 0.84786 0.93608 0.78042 0.0
H229 H 0.89346 0.9815 0.71562 0.0
H230 H 0.12302 0.08811 0.7069 0.0
H231 H 0.1401 0.08003 0.77913 0.0
C232 C 0.03794 0.01821 0.83091 0.0
C233 C 0.98038 0.9817 0.85413 0.0
C234 C 0.02794 0.02406 0.78923 0.0
C235 C 0.91239 0.95182 0.83523 0.0
C236 C 0.90126 0.95901 0.79404 0.0
C237 C 0.9479 0.00193 0.72923 0.0
C238 C 0.00641 0.03592 0.70547 0.0
C239 C 0.95866 0.99493 0.77073 0.0
C240 C 0.07585 0.06328 0.72423 0.0
C241 C 0.08616 0.05806 0.76564 0.0
H242 H 0.62104 0.49165 0.67566 0.0
H243 H 0.36796 0.51193 0.66717 0.0
H244 H 0.35785 0.51021 0.73987 0.0
H245 H 0.42011 0.50253 0.8058 0.0
H246 H 0.67336 0.48767 0.81513 0.0
H247 H 0.68384 0.48646 0.74219 0.0
C248 C 0.56367 0.49543 0.6897 0.0
C249 C 0.49543 0.50189 0.66588 0.0
C250 C 0.55816 0.49519 0.7317 0.0
C251 C 0.42157 0.50723 0.68467 0.0
C252 C 0.41562 0.50616 0.7263 0.0
C253 C 0.47776 0.50008 0.79198 0.0
C254 C 0.54579 0.49537 0.81604 0.0
C255 C 0.48348 0.50045 0.75009 0.0
C256 C 0.61986 0.49047 0.79741 0.0
C257 C 0.62598 0.49019 0.75567 0.0
H258 H 0.54177 0.40796 0.34739 0.0
H259 H 0.50343 0.65146 0.35667 0.0
H260 H 0.49641 0.65942 0.28384 0.0
H261 H 0.49331 0.59625 0.21818 0.0
H262 H 0.54176 0.35432 0.20808 0.0
H263 H 0.55123 0.34661 0.28079 0.0
C264 C 0.53222 0.46276 0.33339 0.0
C265 C 0.52246 0.52889 0.35728 0.0
C266 C 0.52927 0.46712 0.2915 0.0
C267 C 0.51123 0.59975 0.33887 0.0
C268 C 0.50691 0.60431 0.29726 0.0
C269 C 0.50772 0.542 0.23163 0.0
C270 C 0.51593 0.47586 0.20746 0.0
C271 C 0.51501 0.53824 0.27335 0.0
C272 C 0.53319 0.40593 0.22582 0.0
C273 C 0.53924 0.40149 0.26744 0.0
loop_
_geom_bond_atom_site_label_1
_geom_bond_atom_site_label_2
_geom_bond_distance
_geom_bond_site_symmetry_2
_ccdc_geom_bond_type
O0 Zn1 1.953 . S
O0 C16 1.225 1_565 S
Zn1 O0 1.953 . S
Zn1 O2 1.949 1_565 S
Zn1 O8 1.919 . S
Zn1 O13 1.924 1_565 S
O2 Zn1 1.949 1_545 S
O2 Zn3 1.923 1_444 S
O2 Zn4 1.950 1_455 S
O2 Zn5 1.945 1_554 S
Zn3 O2 1.923 1_666 S
Zn3 O6 1.933 . S
Zn3 O9 1.941 1_655 S
Zn3 O10 1.965 . S
Zn4 O2 1.950 1_655 S
Zn4 O11 1.938 1_545 S
Zn4 O12 1.906 . S
Zn4 O22 1.953 . S
Zn5 O2 1.945 1_556 S
Zn5 O7 1.932 . S
Zn5 O14 1.977 1_455 S
Zn5 O15 1.910 . S
O6 Zn3 1.933 . S
O6 C17 1.226 1_665 S
O7 Zn5 1.932 . S
O7 C17 1.307 . S
O8 Zn1 1.919 . S
O8 C19 1.253 1_554 S
O9 Zn3 1.941 1_455 S
O9 C19 1.283 . S
O10 Zn3 1.965 . S
O10 C18 1.303 1_556 S
O11 Zn4 1.938 1_565 S
O11 C18 1.247 . S
O12 Zn4 1.906 . S
O12 C20 1.304 1_554 S
O13 Zn1 1.924 1_545 S
O13 C21 1.311 . S
O14 Zn5 1.977 1_655 S
O14 C20 1.272 . S
O15 Zn5 1.910 . S
O15 C21 1.231 1_556 S
C16 O0 1.225 1_545 S
C16 O22 1.298 1_455 S
C17 O6 1.226 1_445 S
C17 O7 1.307 . S
C18 O10 1.303 1_554 S
C18 O11 1.247 . S
C19 O8 1.253 1_556 S
C19 O9 1.283 . S
C20 O12 1.304 1_556 S
C20 O14 1.272 . S
C21 O13 1.311 . S
C21 O15 1.231 1_554 S
O22 Zn4 1.953 . S
O22 C16 1.298 1_655 S
O23 Zn24 1.953 . S
O23 C39 1.225 . S
Zn24 O23 1.953 . S
Zn24 O25 1.949 . S
Zn24 O31 1.919 . S
Zn24 O36 1.924 . S
O25 Zn24 1.949 . S
O25 Zn26 1.923 . S
O25 Zn27 1.950 . S
O25 Zn28 1.945 . S
Zn26 O25 1.923 . S
Zn26 O29 1.933 . S
Zn26 O32 1.941 . S
Zn26 O33 1.965 . S
Zn27 O25 1.950 . S
Zn27 O34 1.938 . S
Zn27 O35 1.906 . S
Zn27 O45 1.953 . S
Zn28 O25 1.945 . S
Zn28 O30 1.932 . S
Zn28 O37 1.977 . S
Zn28 O38 1.910 . S
O29 Zn26 1.933 . S
O29 C40 1.226 . S
O30 Zn28 1.932 . S
O30 C40 1.307 . S
O31 Zn24 1.919 . S
O31 C42 1.253 . S
O32 Zn26 1.941 . S
O32 C42 1.283 . S
O33 Zn26 1.965 . S
O33 C41 1.303 . S
O34 Zn27 1.938 . S
O34 C41 1.247 . S
O35 Zn27 1.906 . S
O35 C43 1.304 . S
O36 Zn24 1.924 . S
O36 C44 1.311 . S
O37 Zn28 1.977 . S
O37 C43 1.272 . S
O38 Zn28 1.910 . S
O38 C44 1.231 . S
C39 O23 1.225 . S
C39 O45 1.298 . S
C40 O29 1.226 . S
C40 O30 1.307 . S
C41 O33 1.303 . S
C41 O34 1.247 . S
C42 O31 1.253 . S
C42 O32 1.283 . S
C43 O35 1.304 . S
C43 O37 1.272 . S
C44 O36 1.311 . S
C44 O38 1.231 . S
O45 Zn27 1.953 . S
O45 C39 1.298 . S
H46 C49 0.931 . S
H47 C52 0.928 . S
H48 C54 0.930 1_545 S
C49 H46 0.931 . S
C49 C50 1.413 . S
C49 C51 1.356 1_545 S
C50 C49 1.413 . S
C50 C54 1.422 1_645 S
C51 C49 1.356 1_565 S
C51 C52 1.376 1_655 S
C52 H47 0.928 . S
C52 C51 1.376 1_455 S
C52 C53 1.404 . S
C53 C52 1.404 . S
C53 C54 1.398 . S
C54 H48 0.930 1_565 S
C54 C50 1.422 1_465 S
C54 C53 1.398 . S
H55 C58 0.931 . S
H56 C61 0.928 . S
H57 C63 0.930 . S
C58 H55 0.931 . S
C58 C59 1.413 . S
C58 C60 1.360 1_665 S
C59 C58 1.413 . S
C59 C63 1.429 1_665 S
C60 C58 1.360 1_445 S
C60 C61 1.372 . S
C61 H56 0.928 . S
C61 C60 1.372 . S
C61 C62 1.404 . S
C62 C61 1.404 . S
C62 C63 1.391 . S
C63 H57 0.930 . S
C63 C59 1.429 1_445 S
C63 C62 1.391 . S
H64 C67 0.931 . S
H65 C70 0.928 . S
H66 C72 0.930 . S
C67 H64 0.931 . S
C67 C68 1.413 . S
C67 C69 1.360 . S
C68 C67 1.413 . S
C68 C72 1.429 . S
C69 C67 1.360 . S
C69 C70 1.372 . S
C70 H65 0.928 . S
C70 C69 1.372 . S
C70 C71 1.404 . S
C71 C70 1.404 . S
C71 C72 1.391 . S
C72 H66 0.930 . S
C72 C68 1.429 . S
C72 C71 1.391 . S
H73 C76 0.931 . S
H74 C79 0.928 . S
H75 C81 0.930 . S
C76 H73 0.931 . S
C76 C77 1.413 . S
C76 C78 1.360 . S
C77 C76 1.413 . S
C77 C81 1.429 . S
C78 C76 1.360 . S
C78 C79 1.372 . S
C79 H74 0.928 . S
C79 C78 1.372 . S
C79 C80 1.404 . S
C80 C79 1.404 . S
C80 C81 1.391 . S
C81 H75 0.930 . S
C81 C77 1.429 . S
C81 C80 1.391 . S
H82 C88 0.930 1_556 S
H83 C91 0.930 . S
H84 C92 0.930 . S
H85 C93 0.930 . S
H86 C96 0.930 . S
H87 C97 0.930 1_556 S
C88 H82 0.930 1_554 S
C88 C89 1.355 . S
C88 C90 1.415 . S
C89 C88 1.355 . S
C89 C91 1.419 . S
C90 C88 1.415 . S
C90 C95 1.425 . S
C90 C97 1.409 . S
C91 H83 0.930 . S
C91 C89 1.419 . S
C91 C92 1.362 . S
C92 H84 0.930 . S
C92 C91 1.362 . S
C92 C95 1.409 . S
C93 H85 0.930 . S
C93 C94 1.355 . S
C93 C95 1.415 . S
C94 C93 1.355 . S
C94 C96 1.419 . S
C95 C90 1.425 . S
C95 C92 1.409 . S
C95 C93 1.415 . S
C96 H86 0.930 . S
C96 C94 1.419 . S
C96 C97 1.362 . S
C97 H87 0.930 1_554 S
C97 C90 1.409 . S
C97 C96 1.362 . S
H98 C104 0.930 1_554 S
H99 C107 0.930 . S
H100 C108 0.930 . S
H101 C109 0.930 . S
H102 C112 0.930 . S
H103 C113 0.930 1_554 S
C104 H98 0.930 1_556 S
C104 C105 1.355 . S
C104 C106 1.415 . S
C105 C104 1.355 . S
C105 C107 1.419 . S
C106 C104 1.415 . S
C106 C111 1.425 . S
C106 C113 1.409 . S
C107 H99 0.930 . S
C107 C105 1.419 . S
C107 C108 1.362 . S
C108 H100 0.930 . S
C108 C107 1.362 . S
C108 C111 1.409 . S
C109 H101 0.930 . S
C109 C110 1.355 . S
C109 C111 1.415 . S
C110 C109 1.355 . S
C110 C112 1.419 . S
C111 C106 1.425 . S
C111 C108 1.409 . S
C111 C109 1.415 . S
C112 H102 0.930 . S
C112 C110 1.419 . S
C112 C113 1.362 . S
C113 H103 0.930 1_556 S
C113 C106 1.409 . S
C113 C112 1.362 . S
H114 C120 0.930 . S
H115 C123 0.930 . S
H116 C124 0.930 . S
H117 C125 0.930 . S
H118 C128 0.930 . S
H119 C129 0.930 . S
C120 H114 0.930 . S
C120 C121 1.355 . S
C120 C122 1.415 . S
C121 C120 1.355 . S
C121 C123 1.419 . S
C122 C120 1.415 . S
C122 C127 1.425 . S
C122 C129 1.409 . S
C123 H115 0.930 . S
C123 C121 1.419 . S
C123 C124 1.362 . S
C124 H116 0.930 . S
C124 C123 1.362 . S
C124 C127 1.409 . S
C125 H117 0.930 . S
C125 C126 1.355 . S
C125 C127 1.415 . S
C126 C125 1.355 . S
C126 C128 1.419 . S
C127 C122 1.425 . S
C127 C124 1.409 . S
C127 C125 1.415 . S
C128 H118 0.930 . S
C128 C126 1.419 . S
C128 C129 1.362 . S
C129 H119 0.930 . S
C129 C122 1.409 . S
C129 C128 1.362 . S
H130 C136 0.930 . S
H131 C139 0.930 . S
H132 C140 0.930 . S
H133 C141 0.930 . S
H134 C144 0.930 . S
H135 C145 0.930 . S
C136 H130 0.930 . S
C136 C137 1.355 . S
C136 C138 1.415 . S
C137 C136 1.355 . S
C137 C139 1.419 . S
C138 C136 1.415 . S
C138 C143 1.425 . S
C138 C145 1.409 . S
C139 H131 0.930 . S
C139 C137 1.419 . S
C139 C140 1.362 . S
C140 H132 0.930 . S
C140 C139 1.362 . S
C140 C143 1.409 . S
C141 H133 0.930 . S
C141 C142 1.355 . S
C141 C143 1.415 . S
C142 C141 1.355 . S
C142 C144 1.419 . S
C143 C138 1.425 . S
C143 C140 1.409 . S
C143 C141 1.415 . S
C144 H134 0.930 . S
C144 C142 1.419 . S
C144 C145 1.362 . S
C145 H135 0.930 . S
C145 C138 1.409 . S
C145 C144 1.362 . S
H146 C152 0.930 . S
H147 C155 0.930 . S
H148 C156 0.930 . S
H149 C157 0.930 . S
H150 C160 0.930 . S
H151 C161 0.930 . S
C152 H146 0.930 . S
C152 C153 1.355 . S
C152 C154 1.415 . S
C153 C152 1.355 . S
C153 C155 1.419 . S
C154 C152 1.415 . S
C154 C159 1.425 . S
C154 C161 1.409 . S
C155 H147 0.930 . S
C155 C153 1.419 . S
C155 C156 1.362 . S
C156 H148 0.930 . S
C156 C155 1.362 . S
C156 C159 1.409 . S
C157 H149 0.930 . S
C157 C158 1.355 . S
C157 C159 1.415 . S
C158 C157 1.355 . S
C158 C160 1.419 . S
C159 C154 1.425 . S
C159 C156 1.409 . S
C159 C157 1.415 . S
C160 H150 0.930 . S
C160 C158 1.419 . S
C160 C161 1.362 . S
C161 H151 0.930 . S
C161 C154 1.409 . S
C161 C160 1.362 . S
H162 C168 0.930 . S
H163 C171 0.930 . S
H164 C172 0.930 . S
H165 C173 0.930 . S
H166 C176 0.930 . S
H167 C177 0.930 . S
C168 H162 0.930 . S
C168 C169 1.355 . S
C168 C170 1.415 . S
C169 C168 1.355 . S
C169 C171 1.419 . S
C170 C168 1.415 . S
C170 C175 1.425 . S
C170 C177 1.409 . S
C171 H163 0.930 . S
C171 C169 1.419 . S
C171 C172 1.362 . S
C172 H164 0.930 . S
C172 C171 1.362 . S
C172 C175 1.409 . S
C173 H165 0.930 . S
C173 C174 1.355 . S
C173 C175 1.415 . S
C174 C173 1.355 . S
C174 C176 1.419 . S
C175 C170 1.425 . S
C175 C172 1.409 . S
C175 C173 1.415 . S
C176 H166 0.930 . S
C176 C174 1.419 . S
C176 C177 1.362 . S
C177 H167 0.930 . S
C177 C170 1.409 . S
C177 C176 1.362 . S
H178 C184 0.930 . S
H179 C187 0.930 . S
H180 C188 0.930 . S
H181 C189 0.930 . S
H182 C192 0.930 . S
H183 C193 0.930 . S
C184 H178 0.930 . S
C184 C185 1.355 . S
C184 C186 1.415 . S
C185 C184 1.355 . S
C185 C187 1.419 . S
C186 C184 1.415 . S
C186 C191 1.425 . S
C186 C193 1.409 . S
C187 H179 0.930 . S
C187 C185 1.419 . S
C187 C188 1.362 . S
C188 H180 0.930 . S
C188 C187 1.362 . S
C188 C191 1.409 . S
C189 H181 0.930 . S
C189 C190 1.355 . S
C189 C191 1.415 . S
C190 C189 1.355 . S
C190 C192 1.419 . S
C191 C186 1.425 . S
C191 C188 1.409 . S
C191 C189 1.415 . S
C192 H182 0.930 . S
C192 C190 1.419 . S
C192 C193 1.362 . S
C193 H183 0.930 . S
C193 C186 1.409 . S
C193 C192 1.362 . S
H194 C200 0.930 . S
H195 C203 0.930 . S
H196 C204 0.930 . S
H197 C205 0.930 . S
H198 C208 0.930 . S
H199 C209 0.930 . S
C200 H194 0.930 . S
C200 C201 1.355 . S
C200 C202 1.415 . S
C201 C200 1.355 . S
C201 C203 1.419 . S
C202 C200 1.415 . S
C202 C207 1.425 . S
C202 C209 1.409 . S
C203 H195 0.930 . S
C203 C201 1.419 . S
C203 C204 1.362 . S
C204 H196 0.930 . S
C204 C203 1.362 . S
C204 C207 1.409 . S
C205 H197 0.930 . S
C205 C206 1.355 . S
C205 C207 1.415 . S
C206 C205 1.355 . S
C206 C208 1.419 . S
C207 C202 1.425 . S
C207 C204 1.409 . S
C207 C205 1.415 . S
C208 H198 0.930 . S
C208 C206 1.419 . S
C208 C209 1.362 . S
C209 H199 0.930 . S
C209 C202 1.409 . S
C209 C208 1.362 . S
H210 C216 0.930 . S
H211 C219 0.930 . S
H212 C220 0.930 . S
H213 C221 0.930 . S
H214 C224 0.930 . S
H215 C225 0.930 . S
C216 H210 0.930 . S
C216 C217 1.355 1_545 S
C216 C218 1.415 . S
C217 C216 1.355 1_565 S
C217 C219 1.419 1_455 S
C218 C216 1.415 . S
C218 C223 1.425 1_445 S
C218 C225 1.409 . S
C219 H211 0.930 . S
C219 C217 1.419 1_655 S
C219 C220 1.362 . S
C220 H212 0.930 . S
C220 C219 1.362 . S
C220 C223 1.409 . S
C221 H213 0.930 . S
C221 C222 1.355 1_665 S
C221 C223 1.415 . S
C222 C221 1.355 1_445 S
C222 C224 1.419 . S
C223 C218 1.425 1_665 S
C223 C220 1.409 . S
C223 C221 1.415 . S
C224 H214 0.930 . S
C224 C222 1.419 . S
C224 C225 1.362 . S
C225 H215 0.930 . S
C225 C218 1.409 . S
C225 C224 1.362 . S
H226 C232 0.930 . S
H227 C235 0.930 . S
H228 C236 0.930 . S
H229 C237 0.930 . S
H230 C240 0.930 . S
H231 C241 0.930 . S
C232 H226 0.930 . S
C232 C233 1.355 1_565 S
C232 C234 1.415 . S
C233 C232 1.355 1_545 S
C233 C235 1.419 1_455 S
C234 C232 1.415 . S
C234 C239 1.425 1_465 S
C234 C241 1.409 . S
C235 H227 0.930 . S
C235 C233 1.419 1_655 S
C235 C236 1.362 . S
C236 H228 0.930 . S
C236 C235 1.362 . S
C236 C239 1.409 . S
C237 H229 0.930 . S
C237 C238 1.355 1_645 S
C237 C239 1.415 . S
C238 C237 1.355 1_465 S
C238 C240 1.419 . S
C239 C234 1.425 1_645 S
C239 C236 1.409 . S
C239 C237 1.415 . S
C240 H230 0.930 . S
C240 C238 1.419 . S
C240 C241 1.362 . S
C241 H231 0.930 . S
C241 C234 1.409 . S
C241 C240 1.362 . S
H242 C248 0.930 . S
H243 C251 0.930 . S
H244 C252 0.930 . S
H245 C253 0.930 . S
H246 C256 0.930 . S
H247 C257 0.930 . S
C248 H242 0.930 . S
C248 C249 1.355 . S
C248 C250 1.415 . S
C249 C248 1.355 . S
C249 C251 1.419 . S
C250 C248 1.415 . S
C250 C255 1.425 . S
C250 C257 1.409 . S
C251 H243 0.930 . S
C251 C249 1.419 . S
C251 C252 1.362 . S
C252 H244 0.930 . S
C252 C251 1.362 . S
C252 C255 1.409 . S
C253 H245 0.930 . S
C253 C254 1.355 . S
C253 C255 1.415 . S
C254 C253 1.355 . S
C254 C256 1.419 . S
C255 C250 1.425 . S
C255 C252 1.409 . S
C255 C253 1.415 . S
C256 H246 0.930 . S
C256 C254 1.419 . S
C256 C257 1.362 . S
C257 H247 0.930 . S
C257 C250 1.409 . S
C257 C256 1.362 . S
H258 C264 0.930 . S
H259 C267 0.930 . S
H260 C268 0.930 . S
H261 C269 0.930 . S
H262 C272 0.930 . S
H263 C273 0.930 . S
C264 H258 0.930 . S
C264 C265 1.355 . S
C264 C266 1.415 . S
C265 C264 1.355 . S
C265 C267 1.419 . S
C266 C264 1.415 . S
C266 C271 1.425 . S
C266 C273 1.409 . S
C267 H259 0.930 . S
C267 C265 1.419 . S
C267 C268 1.362 . S
C268 H260 0.930 . S
C268 C267 1.362 . S
C268 C271 1.409 . S
C269 H261 0.930 . S
C269 C270 1.355 . S
C269 C271 1.415 . S
C270 C269 1.355 . S
C270 C272 1.419 . S
C271 C266 1.425 . S
C271 C268 1.409 . S
C271 C269 1.415 . S
C272 H262 0.930 . S
C272 C270 1.419 . S
C272 C273 1.362 . S
C273 H263 0.930 . S
C273 C266 1.409 . S
C273 C272 1.362 . S
C94 C77 1.444 . S
C89 C21 1.438 . S
C105 C19 1.433 . S
C110 C68 1.442 . S
C121 C18 1.418 . S
C126 C80 1.418 . S
C137 C20 1.411 . S
C142 C71 1.427 . S
C153 C44 1.420 . S
C158 C59 1.418 . S
C169 C42 1.432 . S
C174 C50 1.442 . S
C190 C62 1.395 . S
C185 C41 1.413 . S
C206 C53 1.426 . S
C201 C43 1.433 . S
C217 C16 1.489 1_565 S
C222 C51 1.490 1_445 S
C233 C17 1.460 . S
C238 C60 1.466 1_565 S
C254 C69 1.490 . S
C249 C39 1.493 . S
C265 C40 1.467 . S
C270 C78 1.465 . S
