# Generated by pormake.
# Topology zzz, (3,6)-cn, num edge types: 1
# Building blocks:
#     Node 0, Type 0, BuildingBlock: BETDAH_clean_linker_0, # of connection points: 3
#     Node 1, Type 0, BuildingBlock: BETDAH_clean_linker_0, # of connection points: 3
#     Node 2, Type 0, BuildingBlock: BETDAH_clean_linker_0, # of connection points: 3
#     Node 3, Type 0, BuildingBlock: BETDAH_clean_linker_0, # of connection points: 3
#     Node 4, Type 0, BuildingBlock: BETDAH_clean_linker_0, # of connection points: 3
#     Node 5, Type 0, BuildingBlock: BETDAH_clean_linker_0, # of connection points: 3
#     Node 6, Type 0, BuildingBlock: BETDAH_clean_linker_0, # of connection points: 3
#     Node 7, Type 0, BuildingBlock: BETDAH_clean_linker_0, # of connection points: 3
#     Node 8, Type 1, BuildingBlock: FUNLAD_clean_sbu_0, # of connection points: 6
#     Node 9, Type 1, BuildingBlock: FUNLAD_clean_sbu_0, # of connection points: 6
#     Node 10, Type 1, BuildingBlock: FUNLAD_clean_sbu_0, # of connection points: 6
#     Node 11, Type 1, BuildingBlock: FUNLAD_clean_sbu_0, # of connection points: 6
#     Edge 12, Type (0, 1), BuildingBlock: MIFKUJ_clean_linker_0, # of connection points: 2
#     Edge 13, Type (0, 1), BuildingBlock: MIFKUJ_clean_linker_0, # of connection points: 2
#     Edge 14, Type (0, 1), BuildingBlock: MIFKUJ_clean_linker_0, # of connection points: 2
#     Edge 15, Type (0, 1), BuildingBlock: MIFKUJ_clean_linker_0, # of connection points: 2
#     Edge 16, Type (0, 1), BuildingBlock: MIFKUJ_clean_linker_0, # of connection points: 2
#     Edge 17, Type (0, 1), BuildingBlock: MIFKUJ_clean_linker_0, # of connection points: 2
#     Edge 18, Type (0, 1), BuildingBlock: MIFKUJ_clean_linker_0, # of connection points: 2
#     Edge 19, Type (0, 1), BuildingBlock: MIFKUJ_clean_linker_0, # of connection points: 2
#     Edge 20, Type (0, 1), BuildingBlock: MIFKUJ_clean_linker_0, # of connection points: 2
#     Edge 21, Type (0, 1), BuildingBlock: MIFKUJ_clean_linker_0, # of connection points: 2
#     Edge 22, Type (0, 1), BuildingBlock: MIFKUJ_clean_linker_0, # of connection points: 2
#     Edge 23, Type (0, 1), BuildingBlock: MIFKUJ_clean_linker_0, # of connection points: 2
#     Edge 24, Type (0, 1), BuildingBlock: MIFKUJ_clean_linker_0, # of connection points: 2
#     Edge 25, Type (0, 1), BuildingBlock: MIFKUJ_clean_linker_0, # of connection points: 2
#     Edge 26, Type (0, 1), BuildingBlock: MIFKUJ_clean_linker_0, # of connection points: 2
#     Edge 27, Type (0, 1), BuildingBlock: MIFKUJ_clean_linker_0, # of connection points: 2
#     Edge 28, Type (0, 1), BuildingBlock: MIFKUJ_clean_linker_0, # of connection points: 2
#     Edge 29, Type (0, 1), BuildingBlock: MIFKUJ_clean_linker_0, # of connection points: 2
#     Edge 30, Type (0, 1), BuildingBlock: MIFKUJ_clean_linker_0, # of connection points: 2
#     Edge 31, Type (0, 1), BuildingBlock: MIFKUJ_clean_linker_0, # of connection points: 2
#     Edge 32, Type (0, 1), BuildingBlock: MIFKUJ_clean_linker_0, # of connection points: 2
#     Edge 33, Type (0, 1), BuildingBlock: MIFKUJ_clean_linker_0, # of connection points: 2
#     Edge 34, Type (0, 1), BuildingBlock: MIFKUJ_clean_linker_0, # of connection points: 2
#     Edge 35, Type (0, 1), BuildingBlock: MIFKUJ_clean_linker_0, # of connection points: 2
# Relax obj value: 0.126
# Max RMSD: 0.176
# Mean RMSD: 0.090
data_MOF--net-zzz--node1-FUNLAD_clean_sbu_0--node2-BETDAH_clean_linker_0--edge1-MIFKUJ_clean_linker_0
_symmetry_space_group_name_H-M    P1
_symmetry_Int_Tables_number       1
_symmetry_cell_setting            triclinic
loop_
_symmetry_equiv_pos_as_xyz
'x, y, z'
_cell_length_a     66.516908
_cell_length_b     71.90573
_cell_length_c     22.369687
_cell_angle_alpha  86.347389
_cell_angle_beta   86.17036
_cell_angle_gamma 90.074427
loop_
_atom_site_label
_atom_site_type_symbol
_atom_site_fract_x
_atom_site_fract_y
_atom_site_fract_z
_atom_type_partial_charge
H0 H 0.847 0.48949 0.20794 0.0
H1 H 0.78969 0.48061 0.13716 0.0
H2 H 0.79375 0.48462 0.32775 0.0
C3 C 0.83082 0.48751 0.21512 0.0
C4 C 0.8218 0.48712 0.2735 0.0
C5 C 0.8193 0.48537 0.16588 0.0
C6 C 0.79846 0.48251 0.17536 0.0
C7 C 0.7891 0.48243 0.23396 0.0
C8 C 0.80088 0.4848 0.2827 0.0
N9 N 0.76798 0.48002 0.24537 0.0
C10 C 0.75476 0.47913 0.20015 0.0
H11 H 0.96681 0.82598 0.11232 0.0
H12 H 0.96449 0.77478 0.02395 0.0
H13 H 0.94628 0.77588 0.2127 0.0
C14 C 0.96331 0.8112 0.11394 0.0
C15 C 0.9564 0.80204 0.1684 0.0
C16 C 0.96606 0.80151 0.06176 0.0
C17 C 0.96216 0.78228 0.06431 0.0
C18 C 0.95477 0.77298 0.11895 0.0
C19 C 0.95169 0.78303 0.17055 0.0
N20 N 0.95039 0.75361 0.12385 0.0
C21 C 0.95684 0.74133 0.08117 0.0
H22 H 0.69668 0.01169 0.12536 0.0
H23 H 0.75286 0.00126 0.02734 0.0
H24 H 0.74626 0.98882 0.21897 0.0
C25 C 0.71231 0.00738 0.12523 0.0
C26 C 0.72009 0.00055 0.17891 0.0
C27 C 0.72393 0.00748 0.07063 0.0
C28 C 0.74398 0.00133 0.06973 0.0
C29 C 0.75227 0.99493 0.12366 0.0
C30 C 0.74007 0.99418 0.17774 0.0
N31 N 0.77254 0.98869 0.12525 0.0
C32 C 0.78749 0.99164 0.07885 0.0
H33 H 0.53933 0.65898 0.12284 0.0
H34 H 0.53754 0.71483 0.04323 0.0
H35 H 0.54868 0.70521 0.23057 0.0
C36 C 0.5405 0.67389 0.12711 0.0
C37 C 0.54411 0.68058 0.1828 0.0
C38 C 0.53822 0.68612 0.07684 0.0
C39 C 0.53948 0.70542 0.08216 0.0
C40 C 0.54353 0.71235 0.1378 0.0
C41 C 0.54589 0.69985 0.18766 0.0
N42 N 0.54516 0.73171 0.14572 0.0
C43 C 0.54361 0.74571 0.1005 0.0
H44 H 0.19142 0.50991 0.18024 0.0
H45 H 0.24811 0.5025 0.25867 0.0
H46 H 0.23791 0.47782 0.09254 0.0
C47 C 0.20658 0.50434 0.17811 0.0
C48 C 0.21298 0.49334 0.13099 0.0
C49 C 0.21912 0.50757 0.2242 0.0
C50 C 0.23862 0.5002 0.22229 0.0
C51 C 0.24561 0.4898 0.17372 0.0
C52 C 0.2327 0.48637 0.12859 0.0
N53 N 0.26531 0.48222 0.16966 0.0
C54 C 0.27956 0.48543 0.21041 0.0
H55 H 0.08638 0.17547 0.28126 0.0
H56 H 0.07423 0.22741 0.36182 0.0
H57 H 0.08035 0.22543 0.16916 0.0
C58 C 0.0847 0.1905 0.27696 0.0
C59 C 0.08431 0.19934 0.21962 0.0
C60 C 0.08098 0.20043 0.32857 0.0
C61 C 0.0774 0.21972 0.3222 0.0
C62 C 0.07767 0.22886 0.26436 0.0
C63 C 0.08091 0.21853 0.21355 0.0
N64 N 0.0742 0.24825 0.25487 0.0
C65 C 0.06888 0.26025 0.29944 0.0
H66 H 0.3394 0.99269 0.26769 0.0
H67 H 0.27968 0.99861 0.34871 0.0
H68 H 0.2923 0.01396 0.16017 0.0
C69 C 0.32375 0.99643 0.26313 0.0
C70 C 0.31774 0.00381 0.20773 0.0
C71 C 0.31023 0.99465 0.31384 0.0
C72 C 0.28999 0.99963 0.30905 0.0
C73 C 0.28332 0.00617 0.25293 0.0
C74 C 0.29731 0.0083 0.20267 0.0
N75 N 0.26294 0.01132 0.24546 0.0
C76 C 0.24718 0.00948 0.28983 0.0
H77 H 0.50249 0.33971 0.24606 0.0
H78 H 0.4922 0.28727 0.34682 0.0
H79 H 0.46727 0.29745 0.17458 0.0
C80 C 0.49642 0.32564 0.24976 0.0
C81 C 0.48516 0.31978 0.20375 0.0
C82 C 0.49906 0.3141 0.30154 0.0
C83 C 0.49032 0.29622 0.30681 0.0
C84 C 0.47891 0.29011 0.26067 0.0
C85 C 0.47611 0.30209 0.20985 0.0
N86 N 0.46993 0.27212 0.26409 0.0
C87 C 0.47519 0.25759 0.30392 0.0
C88 C 0.0227 0.96615 0.74471 0.0
N89 N 0.00286 0.98048 0.57618 0.0
C90 C 0.01433 0.96566 0.56088 0.0
C91 C 0.00717 0.95271 0.52378 0.0
C92 C 0.98797 0.95495 0.5018 0.0
C93 C 0.97685 0.97092 0.51565 0.0
C94 C 0.98464 0.98359 0.55321 0.0
Zn95 Zn 0.01209 0.9949 0.64523 0.0
C96 C 0.97812 0.00117 0.73595 0.0
N97 N 0.03195 0.02075 0.79687 0.0
C98 C 0.04974 0.01796 0.82276 0.0
C99 C 0.01978 0.03522 0.81114 0.0
C100 C 0.02552 0.04791 0.85115 0.0
C101 C 0.04402 0.04582 0.87737 0.0
C102 C 0.05611 0.03042 0.86348 0.0
Zn103 Zn 0.02326 0.00615 0.72733 0.0
O104 O 0.01624 0.96913 0.69287 0.0
C105 C 0.0571 1.00001 0.63642 0.0
O106 O 0.02726 0.97988 0.77443 0.0
H107 H 0.00592 0.03753 0.78925 0.0
H108 H 0.02859 0.9632 0.58041 0.0
H109 H 0.05929 0.00647 0.81033 0.0
O110 O 0.04237 0.99454 0.6085 0.0
O111 O 0.05373 0.00559 0.68904 0.0
H112 H 0.97571 0.99541 0.56628 0.0
O113 O 0.0193 0.0321 0.67882 0.0
O114 O 0.00875 0.02077 0.59747 0.0
O115 O 0.99285 0.0064 0.76421 0.0
O116 O 0.98158 0.99562 0.6834 0.0
C117 C 0.01361 0.03465 0.62591 0.0
H118 H 0.01615 0.94048 0.51545 0.0
H119 H 0.96207 0.97329 0.49916 0.0
H120 H 0.01589 0.05976 0.8591 0.0
H121 H 0.07045 0.02821 0.88296 0.0
C122 C 0.48625 0.99332 0.61773 0.0
N123 N 0.51564 0.04341 0.64393 0.0
C124 C 0.51606 0.04764 0.58369 0.0
C125 C 0.51473 0.06611 0.56124 0.0
C126 C 0.51266 0.08039 0.6011 0.0
C127 C 0.51213 0.07567 0.66307 0.0
C128 C 0.5138 0.05699 0.68364 0.0
Zn129 Zn 0.51736 0.01592 0.67348 0.0
C130 C 0.48935 0.00605 0.77921 0.0
N131 N 0.52053 0.95805 0.72862 0.0
C132 C 0.51925 0.94403 0.69085 0.0
C133 C 0.52349 0.95435 0.78778 0.0
C134 C 0.52569 0.93607 0.81088 0.0
C135 C 0.52467 0.92132 0.77298 0.0
C136 C 0.52117 0.92543 0.71233 0.0
Zn137 Zn 0.51868 0.98549 0.69865 0.0
O138 O 0.49371 0.00954 0.61974 0.0
C139 C 0.54682 0.99535 0.59328 0.0
O140 O 0.49416 0.97962 0.64622 0.0
H141 H 0.52428 0.96565 0.81722 0.0
H142 H 0.51728 0.03665 0.55286 0.0
H143 H 0.51692 0.94728 0.64395 0.0
O144 O 0.53956 0.01131 0.60301 0.0
O145 O 0.54009 0.98119 0.62555 0.0
H146 H 0.51355 0.05333 0.73133 0.0
O147 O 0.54323 0.99197 0.7498 0.0
O148 O 0.54106 0.02204 0.72784 0.0
O149 O 0.49727 0.99019 0.77179 0.0
O150 O 0.49524 0.01993 0.74438 0.0
C151 C 0.54988 0.0084 0.75373 0.0
H152 H 0.51493 0.06917 0.51315 0.0
H153 H 0.51063 0.08633 0.69518 0.0
H154 H 0.52803 0.93347 0.85814 0.0
H155 H 0.52036 0.91444 0.68165 0.0
C156 C 0.5269 0.46931 0.6272 0.0
N157 N 0.47644 0.50375 0.64298 0.0
C158 C 0.47627 0.5038 0.5822 0.0
C159 C 0.45822 0.50557 0.55439 0.0
C160 C 0.44008 0.50705 0.5894 0.0
C161 C 0.44055 0.50674 0.6521 0.0
C162 C 0.45907 0.50522 0.67816 0.0
Zn163 Zn 0.50375 0.50122 0.6789 0.0
C164 C 0.50374 0.47568 0.78563 0.0
N165 N 0.56219 0.49588 0.74415 0.0
C166 C 0.57925 0.49203 0.71027 0.0
C167 C 0.56241 0.49725 0.80445 0.0
C168 C 0.58015 0.49438 0.83323 0.0
C169 C 0.59792 0.48999 0.79982 0.0
C170 C 0.59744 0.48906 0.73737 0.0
Zn171 Zn 0.53497 0.49857 0.70785 0.0
O172 O 0.51026 0.47798 0.62711 0.0
C173 C 0.53493 0.52414 0.60128 0.0
O174 O 0.54085 0.47499 0.65771 0.0
H175 H 0.5487 0.50034 0.83058 0.0
H176 H 0.49017 0.50235 0.55506 0.0
H177 H 0.57869 0.49096 0.6624 0.0
O178 O 0.51645 0.51959 0.60921 0.0
O179 O 0.54743 0.51691 0.63645 0.0
H180 H 0.45958 0.50515 0.72639 0.0
O181 O 0.5287 0.52213 0.75746 0.0
O182 O 0.49767 0.52465 0.73049 0.0
O183 O 0.52219 0.48041 0.77851 0.0
O184 O 0.4914 0.48271 0.74965 0.0
C185 C 0.51203 0.53075 0.75869 0.0
H186 H 0.4584 0.50542 0.50596 0.0
H187 H 0.42681 0.50784 0.68044 0.0
H188 H 0.57994 0.4956 0.88128 0.0
H189 H 0.61082 0.48565 0.71005 0.0
C190 C 0.0514 0.51528 0.60523 0.0
N191 N 0.02341 0.46292 0.63886 0.0
C192 C 0.02635 0.46111 0.57877 0.0
C193 C 0.02869 0.44351 0.5564 0.0
C194 C 0.02789 0.42754 0.59614 0.0
C195 C 0.02469 0.42982 0.65798 0.0
C196 C 0.0225 0.44772 0.67846 0.0
Zn197 Zn 0.02083 0.48909 0.66926 0.0
C198 C 0.04768 0.49468 0.7666 0.0
N199 N 0.01598 0.54413 0.72983 0.0
C200 C 0.01554 0.55921 0.68999 0.0
C201 C 0.01401 0.54603 0.79004 0.0
C202 C 0.01123 0.5636 0.81231 0.0
C203 C 0.01047 0.57942 0.77229 0.0
C204 C 0.01279 0.57707 0.71034 0.0
Zn205 Zn 0.01865 0.51799 0.69937 0.0
O206 O 0.04519 0.49848 0.6089 0.0
C207 C 0.99169 0.51194 0.60192 0.0
O208 O 0.04247 0.52708 0.6374 0.0
H209 H 0.0143 0.53386 0.82093 0.0
H210 H 0.02708 0.47336 0.54805 0.0
H211 H 0.01715 0.55738 0.6423 0.0
O212 O 1.00016 0.49613 0.60515 0.0
O213 O 0.99675 0.52439 0.63602 0.0
H214 H 0.02014 0.44948 0.72607 0.0
O215 O 0.9951 0.50863 0.76102 0.0
O216 O 0.99621 0.48028 0.73009 0.0
O217 O 0.04028 0.51097 0.76223 0.0
O218 O 0.04163 0.48231 0.73382 0.0
C219 C 0.98807 0.49215 0.76372 0.0
H220 H 0.03146 0.44249 0.50847 0.0
H221 H 0.02375 0.41791 0.69022 0.0
H222 H 0.0092 0.56471 0.86039 0.0
H223 H 0.01252 0.58889 0.6779 0.0
H224 H 0.244 0.01229 0.41069 0.0
H225 H 0.21268 0.01148 0.47608 0.0
H226 H 0.17836 0.00338 0.32263 0.0
H227 H 0.20957 0.00444 0.25762 0.0
H228 H 0.16069 0.02875 0.3896 0.0
H229 H 0.18783 0.96731 0.42627 0.0
H230 H 0.2136 0.94442 0.455 0.0
H231 H 0.21369 0.96607 0.62951 0.0
H232 H 0.18809 0.98927 0.6015 0.0
H233 H 0.06793 0.99375 0.51963 0.0
H234 H 0.10136 0.99625 0.46783 0.0
H235 H 0.12663 0.01018 0.63189 0.0
H236 H 0.09299 0.0078 0.68445 0.0
H237 H 0.14981 0.98403 0.56715 0.0
H238 H 0.12009 0.04379 0.53221 0.0
H239 H 0.0932 0.06549 0.50348 0.0
H240 H 0.09741 0.0465 0.325 0.0
H241 H 0.12406 0.0244 0.35297 0.0
C242 C 0.22972 0.01024 0.39132 0.0
C243 C 0.22905 0.00831 0.3295 0.0
C244 C 0.21186 0.00975 0.42856 0.0
C245 C 0.19308 0.00725 0.40445 0.0
C246 C 0.19257 0.00537 0.3424 0.0
C247 C 0.21039 0.00586 0.30534 0.0
C248 C 0.17391 0.00664 0.44331 0.0
C249 C 0.15829 0.01886 0.42811 0.0
C250 C 0.17086 0.9941 0.49463 0.0
C251 C 0.18623 0.98017 0.51155 0.0
C252 C 0.19347 0.9673 0.47059 0.0
C253 C 0.20802 0.95424 0.48678 0.0
C254 C 0.21533 0.95383 0.54397 0.0
C255 C 0.20805 0.96643 0.58517 0.0
C256 C 0.19351 0.97953 0.56918 0.0
C257 C 0.08056 0.99726 0.54501 0.0
C258 C 0.07772 0.00064 0.60628 0.0
C259 C 0.09968 0.99874 0.51516 0.0
C260 C 0.11647 0.00358 0.54579 0.0
C261 C 0.11386 0.00647 0.60735 0.0
C262 C 0.09463 0.00515 0.63726 0.0
C263 C 0.13659 0.0059 0.51273 0.0
C264 C 0.15234 0.99404 0.52901 0.0
C265 C 0.13975 0.01874 0.46229 0.0
C266 C 0.12399 0.0323 0.44487 0.0
C267 C 0.11519 0.04413 0.48694 0.0
C268 C 0.09999 0.05652 0.47079 0.0
C269 C 0.09357 0.05735 0.41249 0.0
C270 C 0.10239 0.04583 0.37017 0.0
C271 C 0.11755 0.03338 0.38614 0.0
H272 H 0.08179 0.06694 0.40009 0.0
H273 H 0.22659 0.94371 0.55643 0.0
H274 H 0.50911 0.23762 0.29121 0.0
H275 H 0.51723 0.20869 0.34873 0.0
H276 H 0.46137 0.21252 0.457 0.0
H277 H 0.45338 0.24158 0.39959 0.0
H278 H 0.4931 0.20099 0.52452 0.0
H279 H 0.46392 0.1847 0.34314 0.0
H280 H 0.46101 0.18554 0.23366 0.0
H281 H 0.52097 0.16399 0.20944 0.0
H282 H 0.52433 0.16326 0.31876 0.0
H283 H 0.48479 0.10598 0.63706 0.0
H284 H 0.48002 0.13753 0.59264 0.0
H285 H 0.5316 0.13065 0.46849 0.0
H286 H 0.536 0.09893 0.51167 0.0
H287 H 0.50244 0.14436 0.41032 0.0
H288 H 0.53179 0.15956 0.59107 0.0
H289 H 0.53527 0.15887 0.70024 0.0
H290 H 0.47634 0.18253 0.72618 0.0
H291 H 0.47239 0.18313 0.61719 0.0
C292 C 0.49875 0.23233 0.32781 0.0
C293 C 0.48067 0.24159 0.3413 0.0
C294 C 0.50333 0.21584 0.36045 0.0
C295 C 0.48978 0.20834 0.40668 0.0
C296 C 0.47202 0.21806 0.42153 0.0
C297 C 0.46744 0.23457 0.38879 0.0
C298 C 0.49366 0.1899 0.43729 0.0
C299 C 0.49495 0.18854 0.49978 0.0
C300 C 0.49649 0.17377 0.40474 0.0
C301 C 0.49444 0.1741 0.33905 0.0
C302 C 0.47653 0.18027 0.31441 0.0
C303 C 0.47479 0.18071 0.2524 0.0
C304 C 0.49081 0.17487 0.2146 0.0
C305 C 0.50859 0.16853 0.23876 0.0
C306 C 0.51041 0.16809 0.30074 0.0
C307 C 0.49525 0.11133 0.60083 0.0
C308 C 0.51073 0.10002 0.57768 0.0
C309 C 0.49256 0.12938 0.57556 0.0
C310 C 0.50557 0.1366 0.52749 0.0
C311 C 0.52133 0.12542 0.50536 0.0
C312 C 0.52384 0.1073 0.53003 0.0
C313 C 0.50211 0.15533 0.49786 0.0
C314 C 0.50076 0.15677 0.43535 0.0
C315 C 0.49937 0.17151 0.53046 0.0
C316 C 0.50173 0.17122 0.596 0.0
C317 C 0.51951 0.16448 0.62009 0.0
C318 C 0.52158 0.16413 0.68194 0.0
C319 C 0.50602 0.17061 0.72014 0.0
C320 C 0.48837 0.1775 0.69654 0.0
C321 C 0.48622 0.17786 0.63473 0.0
H322 H 0.50765 0.17032 0.768 0.0
H323 H 0.48944 0.17522 0.16661 0.0
H324 H 0.30673 0.51326 0.20037 0.0
H325 H 0.33226 0.51932 0.27121 0.0
H326 H 0.31057 0.47191 0.38569 0.0
H327 H 0.28487 0.46604 0.31498 0.0
H328 H 0.31872 0.50193 0.45023 0.0
H329 H 0.35201 0.4679 0.29382 0.0
H330 H 0.36268 0.4617 0.1893 0.0
H331 H 0.39405 0.51417 0.16719 0.0
H332 H 0.38332 0.5208 0.27139 0.0
H333 H 0.40603 0.48616 0.61663 0.0
H334 H 0.3763 0.48512 0.55794 0.0
H335 H 0.40125 0.5297 0.43691 0.0
H336 H 0.43114 0.53044 0.49469 0.0
H337 H 0.39073 0.50193 0.37649 0.0
H338 H 0.35891 0.53553 0.53461 0.0
H339 H 0.34833 0.54176 0.63915 0.0
H340 H 0.31444 0.49062 0.6588 0.0
H341 H 0.32505 0.48395 0.5546 0.0
C342 C 0.30747 0.50423 0.24083 0.0
C343 C 0.29418 0.48914 0.25258 0.0
C344 C 0.32199 0.50766 0.28111 0.0
C345 C 0.32342 0.49593 0.33333 0.0
C346 C 0.3097 0.4811 0.34565 0.0
C347 C 0.29517 0.47769 0.30531 0.0
C348 C 0.33967 0.49876 0.37395 0.0
C349 C 0.3345 0.50176 0.43443 0.0
C350 C 0.36019 0.49891 0.35282 0.0
C351 C 0.36669 0.49492 0.2902 0.0
C352 C 0.36104 0.47818 0.26652 0.0
C353 C 0.36713 0.47458 0.20736 0.0
C354 C 0.37899 0.48755 0.17157 0.0
C355 C 0.38483 0.50414 0.19493 0.0
C356 C 0.37877 0.50783 0.25404 0.0
C357 C 0.40491 0.49599 0.57826 0.0
C358 C 0.42087 0.50829 0.55983 0.0
C359 C 0.38793 0.49542 0.54481 0.0
C360 C 0.38652 0.50737 0.49306 0.0
C361 C 0.40206 0.52029 0.47647 0.0
C362 C 0.41909 0.52071 0.50944 0.0
C363 C 0.36988 0.50529 0.45303 0.0
C364 C 0.37498 0.50229 0.39251 0.0
C365 C 0.34934 0.50518 0.47424 0.0
C366 C 0.34293 0.50916 0.53693 0.0
C367 C 0.34934 0.52553 0.56137 0.0
C368 C 0.34331 0.52916 0.62054 0.0
C369 C 0.33076 0.51657 0.65564 0.0
C370 C 0.32418 0.50035 0.63158 0.0
C371 C 0.33018 0.49665 0.57244 0.0
H372 H 0.32611 0.5194 0.70144 0.0
H373 H 0.38369 0.48474 0.12579 0.0
H374 H 0.07923 0.26464 0.41305 0.0
H375 H 0.0714 0.29174 0.47245 0.0
H376 H 0.03785 0.3161 0.3287 0.0
H377 H 0.04577 0.28919 0.26971 0.0
H378 H 0.06472 0.34039 0.36537 0.0
H379 H 0.01384 0.29803 0.45712 0.0
H380 H 1.00109 0.26876 0.50967 0.0
H381 H 0.03628 0.2786 0.65875 0.0
H382 H 0.04947 0.30783 0.60666 0.0
H383 H 0.01341 0.41445 0.49499 0.0
H384 H 0.02024 0.38448 0.4526 0.0
H385 H 0.05508 0.36773 0.60244 0.0
H386 H 0.04872 0.39792 0.64473 0.0
H387 H 0.02977 0.33915 0.56865 0.0
H388 H 0.07972 0.38197 0.47858 0.0
H389 H 0.09236 0.41133 0.4264 0.0
H390 H 0.0592 0.40042 0.27403 0.0
H391 H 0.04609 0.37111 0.32573 0.0
C392 C 0.06997 0.27573 0.39488 0.0
C393 C 0.06299 0.27501 0.33734 0.0
C394 C 0.06548 0.29113 0.42866 0.0
C395 C 0.054 0.30592 0.40498 0.0
C396 C 0.04675 0.30488 0.34776 0.0
C397 C 0.05119 0.28953 0.31427 0.0
C398 C 0.05036 0.32299 0.43791 0.0
C399 C 0.05688 0.34012 0.40955 0.0
C400 C 0.04071 0.32257 0.49634 0.0
C401 C 0.03282 0.305 0.52768 0.0
C402 C 0.01901 0.29387 0.50085 0.0
C403 C 0.01167 0.2773 0.53061 0.0
C404 C 0.01793 0.27179 0.58743 0.0
C405 C 0.03149 0.28286 0.61468 0.0
C406 C 0.03888 0.29944 0.58508 0.0
C407 C 0.02261 0.40446 0.5189 0.0
C408 C 0.03072 0.40871 0.57293 0.0
C409 C 0.02639 0.38729 0.49477 0.0
C410 C 0.03835 0.37399 0.52408 0.0
C411 C 0.04581 0.37782 0.57919 0.0
C412 C 0.04211 0.39507 0.60332 0.0
C413 C 0.04375 0.3565 0.4954 0.0
C414 C 0.03768 0.33935 0.5246 0.0
C415 C 0.05386 0.35684 0.43767 0.0
C416 C 0.06178 0.37442 0.40628 0.0
C417 C 0.07499 0.3859 0.43415 0.0
C418 C 0.08226 0.40252 0.40463 0.0
C419 C 0.07655 0.40776 0.34699 0.0
C420 C 0.06359 0.39636 0.31871 0.0
C421 C 0.05625 0.37973 0.34809 0.0
H422 H 0.08221 0.42063 0.32419 0.0
H423 H 0.01222 0.25896 0.61041 0.0
H424 H 0.82213 0.0085 0.09928 0.0
H425 H 0.85295 0.01107 0.03289 0.0
H426 H 0.82334 0.98282 0.8983 0.0
H427 H 0.79248 0.98 0.96568 0.0
H428 H 0.86017 0.96898 0.91058 0.0
H429 H 0.83333 0.03018 0.88159 0.0
H430 H 0.819 0.06006 0.9116 0.0
H431 H 0.87272 0.07186 0.99887 0.0
H432 H 0.88728 0.04192 0.9701 0.0
H433 H 0.94323 0.98797 0.69381 0.0
H434 H 0.90933 0.98723 0.74424 0.0
H435 H 0.93209 0.01346 0.89432 0.0
H436 H 0.96585 0.0144 0.84423 0.0
H437 H 0.89696 0.02879 0.86475 0.0
H438 H 0.92253 0.96663 0.90042 0.0
H439 H 0.93696 0.93672 0.87095 0.0
H440 H 0.88555 0.92688 0.77073 0.0
H441 H 0.87094 0.95687 0.79896 0.0
C442 C 0.82219 0.00305 0.0552 0.0
C443 C 0.80502 0.99422 0.03709 0.0
C444 C 0.83977 0.00455 0.01719 0.0
C445 C 0.84048 0.99737 0.96005 0.0
C446 C 0.82319 0.98854 0.94197 0.0
C447 C 0.80556 0.98701 0.98021 0.0
C448 C 0.85949 0.99859 0.92042 0.0
C449 C 0.868 0.98213 0.89961 0.0
C450 C 0.87 0.01566 0.90685 0.0
C451 C 0.86133 0.03372 0.92405 0.0
C452 C 0.84203 0.03908 0.90754 0.0
C453 C 0.83388 0.05604 0.92428 0.0
C454 C 0.84493 0.06783 0.95722 0.0
C455 C 0.86418 0.0627 0.97338 0.0
C456 C 0.8724 0.04575 0.95681 0.0
C457 C 0.941 0.99365 0.73745 0.0
C458 C 0.95732 0.00119 0.76499 0.0
C459 C 0.92161 0.99315 0.76637 0.0
C460 C 0.91813 1.00013 0.82344 0.0
C461 C 0.93434 0.00798 0.85038 0.0
C462 C 0.95369 0.00845 0.82167 0.0
C463 C 0.89775 0.99917 0.85573 0.0
C464 C 0.889 0.01569 0.87518 0.0
C465 C 0.88703 0.98216 0.868 0.0
C466 C 0.89575 0.96409 0.85123 0.0
C467 C 0.91438 0.95816 0.8717 0.0
C468 C 0.92258 0.94118 0.85529 0.0
C469 C 0.91221 0.92993 0.81884 0.0
C470 C 0.89359 0.93562 0.79887 0.0
C471 C 0.88533 0.9526 0.81508 0.0
H472 H 0.91858 0.91679 0.80619 0.0
H473 H 0.83858 0.08095 0.97014 0.0
H474 H 0.51623 0.75209 0.01742 0.0
H475 H 0.51293 0.7808 0.9528 0.0
H476 H 0.5652 0.80385 0.02636 0.0
H477 H 0.56831 0.7753 0.09101 0.0
H478 H 0.53398 0.82765 0.0292 0.0
H479 H 0.56731 0.78931 0.88384 0.0
H480 H 0.57133 0.76153 0.82503 0.0
H481 H 0.5149 0.773 0.74796 0.0
H482 H 0.5104 0.80072 0.80697 0.0
H483 H 0.55372 0.90824 0.84456 0.0
H484 H 0.55676 0.87693 0.89196 0.0
H485 H 0.50483 0.85909 0.80455 0.0
H486 H 0.50191 0.8905 0.75603 0.0
H487 H 0.53328 0.83211 0.80707 0.0
H488 H 0.49991 0.8704 0.94937 0.0
H489 H 0.49507 0.89807 0.00831 0.0
H490 H 0.55021 0.88628 0.09245 0.0
H491 H 0.55553 0.85868 0.03333 0.0
C492 C 0.5271 0.76326 0.01892 0.0
C493 C 0.54253 0.76168 0.05859 0.0
C494 C 0.52526 0.77958 0.98206 0.0
C495 C 0.53888 0.79445 0.98459 0.0
C496 C 0.55453 0.79258 0.02369 0.0
C497 C 0.55635 0.7763 0.06035 0.0
C498 C 0.5363 0.81238 0.94929 0.0
C499 C 0.53408 0.82863 0.98057 0.0
C500 C 0.53568 0.81358 0.88601 0.0
C501 C 0.53842 0.79698 0.85032 0.0
C502 C 0.55568 0.78582 0.85474 0.0
C503 C 0.55806 0.7701 0.82129 0.0
C504 C 0.54335 0.76547 0.78292 0.0
C505 C 0.52626 0.77659 0.77777 0.0
C506 C 0.5238 0.79231 0.81117 0.0
C507 C 0.54298 0.89763 0.83528 0.0
C508 C 0.52741 0.90187 0.79727 0.0
C509 C 0.54474 0.87974 0.86236 0.0
C510 C 0.53076 0.86576 0.85283 0.0
C511 C 0.51572 0.86969 0.81275 0.0
C512 C 0.51406 0.88761 0.78509 0.0
C513 C 0.53145 0.84739 0.88701 0.0
C514 C 0.53315 0.83109 0.85569 0.0
C515 C 0.53144 0.84606 0.95044 0.0
C516 C 0.52819 0.86255 0.98654 0.0
C517 C 0.51107 0.87377 0.98015 0.0
C518 C 0.50823 0.88944 0.01362 0.0
C519 C 0.52234 0.89395 0.05401 0.0
C520 C 0.5393 0.88278 0.06111 0.0
C521 C 0.54222 0.86711 0.02767 0.0
H522 H 0.52012 0.90609 0.07988 0.0
H523 H 0.54522 0.7533 0.75707 0.0
H524 H 0.71872 0.46193 0.2061 0.0
H525 H 0.69514 0.46182 0.12635 0.0
H526 H 0.73713 0.4949 0.0081 0.0
H527 H 0.76046 0.49536 0.08853 0.0
H528 H 0.70032 0.50863 0.00449 0.0
H529 H 0.72943 0.44842 0.98792 0.0
H530 H 0.74058 0.41722 0.02376 0.0
H531 H 0.67962 0.40227 0.08278 0.0
H532 H 0.66813 0.43347 0.04806 0.0
H533 H 0.63628 0.5021 0.76463 0.0
H534 H 0.66651 0.49798 0.82095 0.0
H535 H 0.63189 0.46588 0.96157 0.0
H536 H 0.60192 0.4694 0.90484 0.0
H537 H 0.66863 0.45112 0.94177 0.0
H538 H 0.64064 0.51239 0.97109 0.0
H539 H 0.6292 0.5437 0.93726 0.0
H540 H 0.68824 0.55652 0.85534 0.0
H541 H 0.69994 0.52517 0.88807 0.0
C542 C 0.72286 0.46906 0.16286 0.0
C543 C 0.74125 0.47858 0.15277 0.0
C544 C 0.70951 0.4689 0.11729 0.0
C545 C 0.71451 0.47811 0.06092 0.0
C546 C 0.73302 0.48762 0.05108 0.0
C547 C 0.74632 0.48784 0.0968 0.0
C548 C 0.69997 0.47861 0.01347 0.0
C549 C 0.69371 0.49603 0.98982 0.0
C550 C 0.69111 0.46218 0.99506 0.0
C551 C 0.69794 0.44335 0.01572 0.0
C552 C 0.71842 0.43853 0.00891 0.0
C553 C 0.7248 0.42083 0.02897 0.0
C554 C 0.71082 0.40778 0.05562 0.0
C555 C 0.69043 0.41239 0.06214 0.0
C556 C 0.68397 0.43007 0.0422 0.0
C557 C 0.63523 0.49388 0.80703 0.0
C558 C 0.61668 0.48629 0.83075 0.0
C559 C 0.65246 0.49165 0.83931 0.0
C560 C 0.65135 0.48186 0.89584 0.0
C561 C 0.63306 0.47355 0.91816 0.0
C562 C 0.6159 0.47574 0.88598 0.0
C563 C 0.66878 0.48113 0.93381 0.0
C564 C 0.67554 0.46368 0.9557 0.0
C565 C 0.67809 0.49752 0.95075 0.0
C566 C 0.67109 0.51638 0.93139 0.0
C567 C 0.65113 0.52184 0.94548 0.0
C568 C 0.64461 0.5396 0.92657 0.0
C569 C 0.65797 0.55207 0.89401 0.0
C570 C 0.6779 0.54683 0.88045 0.0
C571 C 0.68448 0.52908 0.89918 0.0
H572 H 0.65289 0.56581 0.87941 0.0
H573 H 0.71579 0.39409 0.07114 0.0
H574 H 0.98558 0.71604 0.1007 0.0
H575 H 0.99603 0.6909 0.03663 0.0
H576 H 0.95391 0.71021 0.90792 0.0
H577 H 0.94327 0.73527 0.97288 0.0
H578 H 0.95091 0.67331 0.93126 0.0
H579 H 0.00464 0.71636 0.87735 0.0
H580 H 0.03203 0.73811 0.89465 0.0
H581 H 0.06398 0.69365 0.98325 0.0
H582 H 0.03664 0.67168 0.96727 0.0
H583 H 0.98633 0.60708 0.72735 0.0
H584 H 0.97873 0.63714 0.76871 0.0
H585 H 0.01782 0.62392 0.91158 0.0
H586 H 0.02607 0.59414 0.86931 0.0
H587 H 0.02222 0.65986 0.87 0.0
H588 H 0.96695 0.61786 0.93301 0.0
H589 H 0.93954 0.59599 0.91664 0.0
H590 H 0.91053 0.63873 0.8111 0.0
H591 H 0.93793 0.66078 0.82618 0.0
C592 C 0.97877 0.71497 0.05836 0.0
C593 C 0.96377 0.72745 0.04113 0.0
C594 C 0.98477 0.7007 0.02171 0.0
C595 C 0.97593 0.6988 0.96707 0.0
C596 C 0.96098 0.71146 0.94973 0.0
C597 C 0.95496 0.72575 0.98657 0.0
C598 C 0.98162 0.683 0.92992 0.0
C599 C 0.96647 0.67059 0.91678 0.0
C600 C 0.00195 0.67924 0.91204 0.0
C601 C 0.0185 0.6924 0.92147 0.0
C602 C 0.01744 0.71125 0.90091 0.0
C603 C 0.03297 0.72361 0.91042 0.0
C604 C 0.04971 0.71728 0.94012 0.0
C605 C 0.05099 0.69855 0.96027 0.0
C606 C 0.03549 0.68612 0.95092 0.0
C607 C 0.99359 0.6107 0.76698 0.0
C608 C 0.0067 0.59814 0.79528 0.0
C609 C 0.98909 0.62782 0.79086 0.0
C610 C 0.99749 0.63266 0.84371 0.0
C611 C 0.0111 0.62044 0.87089 0.0
C612 C 0.01565 0.60335 0.847 0.0
C613 C 0.99155 0.65008 0.87222 0.0
C614 C 0.00665 0.66276 0.88379 0.0
C615 C 0.97117 0.65409 0.88873 0.0
C616 C 0.9546 0.6409 0.88016 0.0
C617 C 0.9548 0.62255 0.90596 0.0
C618 C 0.93926 0.61013 0.89697 0.0
C619 C 0.92334 0.61595 0.8627 0.0
C620 C 0.92289 0.63423 0.83754 0.0
C621 C 0.93842 0.6467 0.84632 0.0
H622 H 0.91133 0.60631 0.85576 0.0
H623 H 0.06172 0.72687 0.94745 0.0
H624 H 0.04891 0.20116 0.41108 0.0
H625 H 0.03869 0.17545 0.48396 0.0
H626 H 0.0956 0.14854 0.44706 0.0
H627 H 0.10611 0.17436 0.37557 0.0
H628 H 0.05228 0.1353 0.40396 0.0
H629 H 0.0934 0.14913 0.56515 0.0
H630 H 0.10547 0.16737 0.64532 0.0
H631 H 0.04612 0.16622 0.73357 0.0
H632 H 0.03357 0.14829 0.65318 0.0
H633 H 0.03581 0.04296 0.5226 0.0
H634 H 0.04821 0.07367 0.48484 0.0
H635 H 0.01094 0.09889 0.62295 0.0
H636 H 1.00005 0.0678 0.66402 0.0
H637 H 0.04442 0.11435 0.6195 0.0
H638 H 0.00218 0.10237 0.4581 0.0
H639 H 0.98912 0.08486 0.37743 0.0
H640 H 0.04844 0.08364 0.2893 0.0
H641 H 0.06186 0.10097 0.36974 0.0
C642 C 0.05971 0.19034 0.42123 0.0
C643 C 0.07819 0.1896 0.38718 0.0
C644 C 0.05384 0.17563 0.46282 0.0
C645 C 0.06643 0.16016 0.47084 0.0
C646 C 0.0858 0.16049 0.44207 0.0
C647 C 0.09174 0.17521 0.40105 0.0
C648 C 0.05755 0.14205 0.49374 0.0
C649 C 0.05059 0.13061 0.45106 0.0
C650 C 0.05509 0.1363 0.55525 0.0
C651 C 0.06245 0.14769 0.60237 0.0
C652 C 0.08281 0.1531 0.60091 0.0
C653 C 0.08977 0.1633 0.6466 0.0
C654 C 0.07654 0.16807 0.69429 0.0
C655 C 0.05632 0.16262 0.69642 0.0
C656 C 0.04929 0.15244 0.65078 0.0
C657 C 0.02982 0.05514 0.5436 0.0
C658 C 0.01664 0.05317 0.59519 0.0
C659 C 0.03689 0.07275 0.52201 0.0
C660 C 0.03022 0.08881 0.55006 0.0
C661 C 0.01633 0.0868 0.60033 0.0
C662 C 0.00987 0.0691 0.62331 0.0
C663 C 0.03872 0.10749 0.52948 0.0
C664 C 0.04571 0.11905 0.57235 0.0
C665 C 0.04101 0.11357 0.46791 0.0
C666 C 0.03302 0.10286 0.42008 0.0
C667 C 0.01244 0.09825 0.42172 0.0
C668 C 0.00498 0.08838 0.37599 0.0
C669 C 0.01795 0.08311 0.32833 0.0
C670 C 0.03841 0.08768 0.32631 0.0
C671 C 0.04595 0.09754 0.37191 0.0
H672 H 0.01213 0.07552 0.29291 0.0
H673 H 0.08198 0.17587 0.72979 0.0
H674 H 0.32557 0.96139 0.35274 0.0
H675 H 0.35218 0.95782 0.42329 0.0
H676 H 0.34304 0.01453 0.47037 0.0
H677 H 0.31617 0.01798 0.40086 0.0
H678 H 0.38145 0.00444 0.40298 0.0
H679 H 0.33789 0.98593 0.57782 0.0
H680 H 0.31216 0.96625 0.6358 0.0
H681 H 0.35003 0.91834 0.61794 0.0
H682 H 0.37588 0.93768 0.55901 0.0
H683 H 0.46188 0.02082 0.5762 0.0
H684 H 0.42906 0.01772 0.53651 0.0
H685 H 0.43427 0.95782 0.55192 0.0
H686 H 0.46711 0.96083 0.59459 0.0
H687 H 0.39747 0.96712 0.58771 0.0
H688 H 0.44026 0.9831 0.41364 0.0
H689 H 0.46635 0.00055 0.34945 0.0
H690 H 0.43054 0.05011 0.35591 0.0
H691 H 0.40435 0.03302 0.42086 0.0
C692 C 0.32842 0.97266 0.38101 0.0
C693 C 0.3188 0.98991 0.37194 0.0
C694 C 0.34369 0.97067 0.42093 0.0
C695 C 0.34961 0.98596 0.45159 0.0
C696 C 0.33856 0.00256 0.44728 0.0
C697 C 0.3231 0.00446 0.40803 0.0
C698 C 0.36964 0.98602 0.47658 0.0
C699 C 0.3849 0.99655 0.44398 0.0
C700 C 0.37427 0.97487 0.52805 0.0
C701 C 0.35873 0.96323 0.5634 0.0
C702 C 0.34065 0.97116 0.58566 0.0
C703 C 0.32606 0.96008 0.61886 0.0
C704 C 0.32943 0.94105 0.6304 0.0
C705 C 0.34742 0.93308 0.60889 0.0
C706 C 0.36206 0.9441 0.57564 0.0
C707 C 0.45623 0.00694 0.57062 0.0
C708 C 0.46724 0.99106 0.58803 0.0
C709 C 0.43739 0.0052 0.54777 0.0
C710 C 0.42927 0.98754 0.54018 0.0
C711 C 0.44024 0.97159 0.55721 0.0
C712 C 0.45906 0.97333 0.58112 0.0
C713 C 0.40925 0.98601 0.51494 0.0
C714 C 0.39405 0.97507 0.54683 0.0
C715 C 0.40469 0.99645 0.46174 0.0
C716 C 0.42041 0.0068 0.42257 0.0
C717 C 0.43801 0.99775 0.40175 0.0
C718 C 0.45281 0.00757 0.36516 0.0
C719 C 0.45012 0.02643 0.34872 0.0
C720 C 0.4326 0.0355 0.36872 0.0
C721 C 0.41777 0.02575 0.40538 0.0
H722 H 0.46159 0.03401 0.32038 0.0
H723 H 0.31812 0.93249 0.65613 0.0
H724 H 0.48728 0.31211 0.42162 0.0
H725 H 0.49805 0.33329 0.49482 0.0
H726 H 0.54376 0.35621 0.36468 0.0
H727 H 0.53403 0.33424 0.29334 0.0
H728 H 0.55526 0.36183 0.46897 0.0
H729 H 0.49367 0.37201 0.36962 0.0
H730 H 0.45972 0.36373 0.34144 0.0
H731 H 0.43829 0.35986 0.52725 0.0
H732 H 0.47223 0.36787 0.55653 0.0
H733 H 0.50932 0.4605 0.52656 0.0
H734 H 0.50991 0.43053 0.48103 0.0
H735 H 0.54847 0.4083 0.61584 0.0
H736 H 0.54887 0.4387 0.65913 0.0
H737 H 0.49532 0.40003 0.52093 0.0
H738 H 0.57409 0.37038 0.56811 0.0
H739 H 0.60879 0.3816 0.5769 0.0
H740 H 0.59718 0.43038 0.46382 0.0
H741 H 0.56252 0.41935 0.45378 0.0
C742 C 0.50026 0.32102 0.40972 0.0
C743 C 0.50941 0.32196 0.35114 0.0
C744 C 0.50628 0.33327 0.45138 0.0
C745 C 0.52114 0.3469 0.43435 0.0
C746 C 0.53204 0.34607 0.37872 0.0
C747 C 0.52634 0.33359 0.33768 0.0
C748 C 0.52295 0.3638 0.46863 0.0
C749 C 0.54215 0.3701 0.48106 0.0
C750 C 0.50594 0.37494 0.48271 0.0
C751 C 0.4855 0.37031 0.46528 0.0
C752 C 0.48172 0.3693 0.40444 0.0
C753 C 0.4625 0.36465 0.38828 0.0
C754 C 0.44687 0.36122 0.43255 0.0
C755 C 0.45042 0.36248 0.49304 0.0
C756 C 0.46965 0.36706 0.50946 0.0
C757 C 0.51824 0.4493 0.54566 0.0
C758 C 0.52912 0.4519 0.59608 0.0
C759 C 0.51848 0.43213 0.51992 0.0
C760 C 0.52922 0.41704 0.5449 0.0
C761 C 0.54038 0.41974 0.59488 0.0
C762 C 0.54057 0.43711 0.6197 0.0
C763 C 0.52772 0.39839 0.52016 0.0
C764 C 0.50849 0.39171 0.50987 0.0
C765 C 0.54481 0.38742 0.50539 0.0
C766 C 0.56564 0.39414 0.51088 0.0
C767 C 0.57897 0.38348 0.54506 0.0
C768 C 0.59862 0.38981 0.55025 0.0
C769 C 0.60516 0.40673 0.52114 0.0
C770 C 0.59207 0.41732 0.48657 0.0
C771 C 0.57241 0.41105 0.48119 0.0
H772 H 0.62038 0.4116 0.52523 0.0
H773 H 0.43199 0.35763 0.41996 0.0
H774 H 0.20402 0.54262 0.22644 0.0
H775 H 0.1801 0.55383 0.30381 0.0
H776 H 0.18901 0.50357 0.41488 0.0
H777 H 0.21343 0.49277 0.33849 0.0
H778 H 0.14666 0.53657 0.32358 0.0
H779 H 0.17096 0.50705 0.55782 0.0
H780 H 0.20163 0.50519 0.61386 0.0
H781 H 0.22688 0.55222 0.50658 0.0
H782 H 0.19623 0.55459 0.45049 0.0
H783 H 0.06906 0.49648 0.51396 0.0
H784 H 0.10093 0.50383 0.45666 0.0
H785 H 0.10774 0.55285 0.55516 0.0
H786 H 0.07564 0.54568 0.61257 0.0
H787 H 0.1429 0.53037 0.54614 0.0
H788 H 0.09671 0.56053 0.41928 0.0
H789 H 0.06595 0.56355 0.36381 0.0
H790 H 0.08541 0.51861 0.25675 0.0
H791 H 0.11615 0.51512 0.31219 0.0
C792 C 0.20154 0.53445 0.26871 0.0
C793 C 0.21045 0.51687 0.2768 0.0
C794 C 0.18782 0.54079 0.31273 0.0
C795 C 0.18259 0.5295 0.36507 0.0
C796 C 0.19296 0.5127 0.37546 0.0
C797 C 0.20692 0.50649 0.33175 0.0
C798 C 0.16384 0.53328 0.40208 0.0
C799 C 0.14598 0.53553 0.37226 0.0
C800 C 0.16284 0.53214 0.46566 0.0
C801 C 0.18129 0.53092 0.49963 0.0
C802 C 0.18298 0.51708 0.54637 0.0
C803 C 0.20039 0.51592 0.57812 0.0
C804 C 0.21621 0.52855 0.5637 0.0
C805 C 0.21464 0.54241 0.51758 0.0
C806 C 0.19726 0.54365 0.48572 0.0
C807 C 0.07722 0.50892 0.52305 0.0
C808 C 0.0698 0.52057 0.56743 0.0
C809 C 0.09541 0.5131 0.49033 0.0
C810 C 0.10659 0.52892 0.50162 0.0
C811 C 0.09927 0.54061 0.54583 0.0
C812 C 0.08089 0.53656 0.57815 0.0
C813 C 0.12604 0.53287 0.46721 0.0
C814 C 0.14386 0.53193 0.49747 0.0
C815 C 0.12712 0.53542 0.40399 0.0
C816 C 0.1087 0.53752 0.37013 0.0
C817 C 0.09437 0.55121 0.38418 0.0
C818 C 0.07695 0.55301 0.3527 0.0
C819 C 0.07372 0.54126 0.30683 0.0
C820 C 0.08793 0.5277 0.29228 0.0
C821 C 0.10538 0.52583 0.32366 0.0
H822 H 0.06022 0.54268 0.28251 0.0
H823 H 0.22968 0.52762 0.58831 0.0
H824 H 0.94672 0.82927 0.00281 0.0
H825 H 0.96174 0.85233 0.92817 0.0
H826 H 0.01742 0.82152 0.92321 0.0
H827 H 0.00224 0.79834 0.99862 0.0
H828 H 0.02374 0.85661 0.94711 0.0
H829 H 0.99143 0.82738 0.79701 0.0
H830 H 0.96438 0.81246 0.74667 0.0
H831 H 0.93007 0.86297 0.74889 0.0
H832 H 0.95673 0.87812 0.80016 0.0
H833 H 0.02704 0.93531 0.68168 0.0
H834 H 0.02405 0.90286 0.71984 0.0
H835 H 0.01684 0.92039 0.90104 0.0
H836 H 0.02052 0.95302 0.86288 0.0
H837 H 0.99282 0.88716 0.77091 0.0
H838 H 0.02934 0.88648 0.00141 0.0
H839 H 0.05878 0.90021 0.044 0.0
H840 H 0.08905 0.90681 0.86827 0.0
H841 H 0.05993 0.89288 0.82471 0.0
C842 C 0.96191 0.82708 0.98399 0.0
C843 C 0.97334 0.81206 0.00583 0.0
C844 C 0.9705 0.84024 0.94135 0.0
C845 C 0.99071 0.83864 0.91991 0.0
C846 C 0.00179 0.82298 0.93903 0.0
C847 C 0.9931 0.80969 0.98157 0.0
C848 C 1.00069 0.85462 0.88446 0.0
C849 C 0.01715 0.86319 0.90808 0.0
C850 C 0.99239 0.86299 0.83279 0.0
C851 C 0.97608 0.85386 0.80283 0.0
C852 C 0.97803 0.83527 0.78732 0.0
C853 C 0.96278 0.82677 0.75849 0.0
C854 C 0.94551 0.83675 0.74465 0.0
C855 C 0.94346 0.85525 0.75963 0.0
C856 C 0.95865 0.86381 0.78853 0.0
C857 C 0.02521 0.93224 0.72981 0.0
C858 C 0.02388 0.94668 0.76941 0.0
C859 C 0.02348 0.91367 0.75151 0.0
C860 C 0.02021 0.90912 0.81328 0.0
C861 C 0.0197 0.9235 0.85322 0.0
C862 C 0.02174 0.94216 0.83146 0.0
C863 C 0.01528 0.88959 0.8352 0.0
C864 C 0.99971 0.88042 0.80915 0.0
C865 C 0.02469 0.8805 0.88376 0.0
C866 C 0.04237 0.88874 0.90975 0.0
C867 C 0.04232 0.89076 0.97188 0.0
C868 C 0.05895 0.89861 0.99619 0.0
C869 C 0.07576 0.90442 0.95885 0.0
C870 C 0.076 0.90236 0.89712 0.0
C871 C 0.05942 0.89451 0.87259 0.0
H872 H 0.08861 0.9105 0.97776 0.0
H873 H 0.93373 0.83016 0.72226 0.0
H874 H 0.7142 0.98391 0.98751 0.0
H875 H 0.68817 0.98898 0.91633 0.0
H876 H 0.68385 0.04659 0.95957 0.0
H877 H 0.70926 0.04114 0.03302 0.0
H878 H 0.64912 0.03228 0.97473 0.0
H879 H 0.69875 0.03217 0.81282 0.0
H880 H 0.72826 0.02161 0.75172 0.0
H881 H 0.6977 0.9704 0.72594 0.0
H882 H 0.66811 0.9805 0.78765 0.0
H883 H 0.56731 0.04143 0.77846 0.0
H884 H 0.6004 0.0458 0.81813 0.0
H885 H 0.60902 0.98629 0.83044 0.0
H886 H 0.57606 0.98176 0.79168 0.0
H887 H 0.64281 0.007 0.77569 0.0
H888 H 0.59592 0.00631 0.9527 0.0
H889 H 0.56647 0.01765 0.01251 0.0
H890 H 0.593 0.0723 0.00548 0.0
H891 H 0.62249 0.06131 0.94491 0.0
C892 C 0.70828 0.99782 0.97978 0.0
C893 C 0.71377 0.01218 0.01508 0.0
C894 C 0.69337 0.00075 0.93906 0.0
C895 C 0.68397 0.01822 0.93224 0.0
C896 C 0.69077 0.03299 0.96405 0.0
C897 C 0.70542 0.02995 0.00553 0.0
C898 C 0.6652 0.02018 0.89969 0.0
C899 C 0.64798 0.0272 0.93044 0.0
C900 C 0.66342 0.01327 0.84234 0.0
C901 C 0.68123 0.00707 0.80529 0.0
C902 C 0.69837 0.01859 0.79456 0.0
C903 C 0.71511 0.01269 0.75972 0.0
C904 C 0.71487 0.99533 0.73505 0.0
C905 C 0.69787 0.98384 0.74509 0.0
C906 C 0.68109 0.98966 0.77993 0.0
C907 C 0.57618 0.02928 0.79017 0.0
C908 C 0.56898 0.01125 0.78235 0.0
C909 C 0.59509 0.0318 0.81251 0.0
C910 C 0.60715 0.01636 0.82687 0.0
C911 C 0.59998 0.99838 0.81921 0.0
C912 C 0.58104 0.99583 0.79762 0.0
C913 C 0.62705 0.0187 0.85147 0.0
C914 C 0.6443 0.01246 0.8193 0.0
C915 C 0.62897 0.02649 0.90719 0.0
C916 C 0.61127 0.03306 0.94367 0.0
C917 C 0.59538 0.02079 0.96345 0.0
C918 C 0.5787 0.02714 0.99758 0.0
C919 C 0.57783 0.0457 0.01261 0.0
C920 C 0.59367 0.05793 0.99369 0.0
C921 C 0.61037 0.05165 0.95949 0.0
H922 H 0.56491 0.05059 0.03905 0.0
H923 H 0.72784 0.9908 0.70809 0.0
H924 H 0.5633 0.66457 0.01203 0.0
H925 H 0.55402 0.64395 0.93597 0.0
H926 H 0.4944 0.66771 0.93978 0.0
H927 H 0.50379 0.68834 0.01716 0.0
H928 H 0.49225 0.6312 0.95928 0.0
H929 H 0.52539 0.67094 0.80868 0.0
H930 H 0.55192 0.6917 0.75958 0.0
H931 H 0.59382 0.64633 0.76028 0.0
H932 H 0.56766 0.62534 0.81024 0.0
H933 H 0.4799 0.55484 0.76359 0.0
H934 H 0.4795 0.58636 0.80018 0.0
H935 H 0.54042 0.57904 0.85207 0.0
H936 H 0.54094 0.54776 0.81647 0.0
H937 H 0.53459 0.61237 0.78259 0.0
H938 H 0.50265 0.57593 0.95572 0.0
H939 H 0.47598 0.55546 0.00575 0.0
H940 H 0.43118 0.59582 0.95913 0.0
H941 H 0.4576 0.61643 0.90814 0.0
C942 C 0.54849 0.66588 0.99481 0.0
C943 C 0.53428 0.67804 0.01981 0.0
C944 C 0.54316 0.65412 0.95125 0.0
C945 C 0.52351 0.65433 0.93173 0.0
C946 C 0.50966 0.66737 0.95395 0.0
C947 C 0.51505 0.67924 0.99763 0.0
C948 C 0.51703 0.63908 0.89543 0.0
C949 C 0.50113 0.62741 0.91946 0.0
C950 C 0.52865 0.63402 0.84372 0.0
C951 C 0.54451 0.64655 0.81339 0.0
C952 C 0.54029 0.66539 0.79871 0.0
C953 C 0.55527 0.67721 0.77067 0.0
C954 C 0.57454 0.67034 0.75683 0.0
C955 C 0.57887 0.65163 0.77095 0.0
C956 C 0.56395 0.63975 0.79903 0.0
C957 C 0.49309 0.55987 0.78357 0.0
C958 C 0.51046 0.54879 0.78701 0.0
C959 C 0.49286 0.57789 0.80416 0.0
C960 C 0.51002 0.58505 0.82818 0.0
C961 C 0.52711 0.57383 0.83303 0.0
C962 C 0.52731 0.55588 0.81301 0.0
C963 C 0.51059 0.60425 0.84839 0.0
C964 C 0.52534 0.61658 0.82114 0.0
C965 C 0.49786 0.60998 0.89681 0.0
C966 C 0.48204 0.59759 0.92744 0.0
C967 C 0.48709 0.58035 0.95566 0.0
C968 C 0.47203 0.56874 0.9843 0.0
C969 C 0.45189 0.5743 0.98542 0.0
C970 C 0.44678 0.59151 0.95809 0.0
C971 C 0.46179 0.60316 0.92933 0.0
H972 H 0.44026 0.5653 0.00764 0.0
H973 H 0.58612 0.67951 0.73514 0.0
H974 H 0.81831 0.45938 0.08185 0.0
H975 H 0.84147 0.45768 0.99196 0.0
H976 H 0.86717 0.51081 0.02614 0.0
H977 H 0.84397 0.51266 0.11456 0.0
H978 H 0.8671 0.50722 0.90839 0.0
H979 H 0.88595 0.46973 0.08517 0.0
H980 H 0.88047 0.44466 0.16517 0.0
H981 H 0.87637 0.40445 0.03247 0.0
H982 H 0.88155 0.42938 0.95166 0.0
H983 H 0.97004 0.5131 0.84861 0.0
H984 H 0.93668 0.50862 0.89915 0.0
H985 H 0.92964 0.45729 0.81275 0.0
H986 H 0.96335 0.46158 0.76188 0.0
H987 H 0.91548 0.45525 0.93349 0.0
H988 H 0.90733 0.49533 0.75749 0.0
H989 H 0.916 0.52227 0.68639 0.0
H990 H 0.90214 0.55966 0.82513 0.0
H991 H 0.89392 0.53302 0.89754 0.0
C992 C 0.82848 0.47093 0.06877 0.0
C993 C 0.82963 0.48604 0.10524 0.0
C994 C 0.84175 0.4699 0.01778 0.0
C995 C 0.85628 0.48397 0.00302 0.0
C996 C 0.85614 0.49978 0.03666 0.0
C997 C 0.84297 0.50079 0.08734 0.0
C998 C 0.87332 0.48149 0.95809 0.0
C999 C 0.8776 0.49579 0.91341 0.0
C1000 C 0.88685 0.46639 0.96407 0.0
C1001 C 0.88386 0.45141 0.01249 0.0
C1002 C 0.88374 0.45556 0.07311 0.0
C1003 C 0.8807 0.44138 0.11857 0.0
C1004 C 0.878 0.42298 0.10391 0.0
C1005 C 0.8784 0.41872 0.04374 0.0
C1006 C 0.88138 0.43286 0.99811 0.0
C1007 C 0.96154 0.50072 0.84075 0.0
C1008 C 0.96927 0.48776 0.80085 0.0
C1009 C 0.94242 0.49826 0.86938 0.0
C1010 C 0.93051 0.4829 0.85833 0.0
C1011 C 0.93855 0.46934 0.82125 0.0
C1012 C 0.95782 0.47178 0.79251 0.0
C1013 C 0.90964 0.48139 0.88554 0.0
C1014 C 0.90465 0.46633 0.92678 0.0
C1015 C 0.89566 0.49602 0.87717 0.0
C1016 C 0.90004 0.51212 0.83307 0.0
C1017 C 0.90622 0.50928 0.77295 0.0
C1018 C 0.91106 0.52449 0.7324 0.0
C1019 C 0.90957 0.54262 0.75119 0.0
C1020 C 0.90324 0.5456 0.8106 0.0
C1021 C 0.89848 0.53045 0.85142 0.0
H1022 H 0.91334 0.55436 0.71971 0.0
H1023 H 0.87566 0.41202 0.13916 0.0
H1024 H 0.0547 0.19566 0.14382 0.0
H1025 H 0.05134 0.17051 0.07599 0.0
H1026 H 0.11096 0.15132 0.11205 0.0
H1027 H 0.11414 0.17614 0.18146 0.0
H1028 H 0.091 0.15177 0.97543 0.0
H1029 H 0.08591 0.13054 0.1947 0.0
H1030 H 0.07089 0.13573 0.29612 0.0
H1031 H 0.01158 0.13209 0.23267 0.0
H1032 H 0.02628 0.12745 0.13051 0.0
H1033 H 0.08217 0.06028 0.88076 0.0
H1034 H 0.09224 0.08703 0.93428 0.0
H1035 H 0.03117 0.09217 0.00947 0.0
H1036 H 0.0214 0.06477 0.95985 0.0
H1037 H 0.05352 0.09962 0.08906 0.0
H1038 H 0.05147 0.12041 0.88435 0.0
H1039 H 0.05881 0.12141 0.77464 0.0
H1040 H 0.12151 0.13075 0.79766 0.0
H1041 H 0.11457 0.12962 0.90764 0.0
C1042 C 0.06736 0.18649 0.13544 0.0
C1043 C 0.08469 0.18776 0.16747 0.0
C1044 C 0.06541 0.17216 0.09691 0.0
C1045 C 0.0809 0.15914 0.08934 0.0
C1046 C 0.09894 0.16136 0.11719 0.0
C1047 C 0.10073 0.17547 0.1567 0.0
C1048 C 0.07697 0.14171 0.06071 0.0
C1049 C 0.08317 0.14016 0.00019 0.0
C1050 C 0.06586 0.12709 0.09268 0.0
C1051 C 0.05719 0.12892 0.15485 0.0
C1052 C 0.06968 0.13103 0.20227 0.0
C1053 C 0.06122 0.1339 0.25987 0.0
C1054 C 0.04029 0.13441 0.27065 0.0
C1055 C 0.02779 0.13182 0.22411 0.0
C1056 C 0.03617 0.12909 0.16639 0.0
C1057 C 0.07101 0.06682 0.90992 0.0
C1058 C 0.05091 0.06048 0.91543 0.0
C1059 C 0.07671 0.08232 0.93972 0.0
C1060 C 0.06236 0.09195 0.97476 0.0
C1061 C 0.04253 0.08511 0.98241 0.0
C1062 C 0.03691 0.0695 0.9535 0.0
C1063 C 0.06778 0.10927 0.00307 0.0
C1064 C 0.06174 0.11094 0.06387 0.0
C1065 C 0.07819 0.12433 0.97034 0.0
C1066 C 0.08254 0.12466 0.90431 0.0
C1067 C 0.06686 0.12247 0.86607 0.0
C1068 C 0.07094 0.12311 0.80384 0.0
C1069 C 0.09063 0.12604 0.77924 0.0
C1070 C 0.10627 0.12841 0.81682 0.0
C1071 C 0.10227 0.12778 0.87911 0.0
H1072 H 0.09375 0.12654 0.73105 0.0
H1073 H 0.03371 0.13668 0.31509 0.0
H1074 H 0.31579 0.99723 0.08784 0.0
H1075 H 0.3433 0.00029 0.00882 0.0
H1076 H 0.38261 0.02081 0.13601 0.0
H1077 H 0.35512 0.01887 0.21324 0.0
H1078 H 0.39132 0.03846 0.0367 0.0
H1079 H 0.38129 0.97339 0.09699 0.0
H1080 H 0.36204 0.94396 0.11355 0.0
H1081 H 0.35152 0.94525 0.926 0.0
H1082 H 0.37052 0.97483 0.90849 0.0
H1083 H 0.47756 0.98177 0.8743 0.0
H1084 H 0.44762 0.98361 0.94327 0.0
H1085 H 0.43133 0.03547 0.85147 0.0
H1086 H 0.46169 0.03409 0.78423 0.0
H1087 H 0.41002 0.98227 0.9285 0.0
H1088 H 0.40349 0.06223 0.94292 0.0
H1089 H 0.42557 0.08996 0.93869 0.0
H1090 H 0.47431 0.05596 0.99816 0.0
H1091 H 0.45246 0.02809 0.00344 0.0
C1092 C 0.33019 0.00274 0.09846 0.0
C1093 C 0.33335 0.00743 0.15722 0.0
C1094 C 0.34599 0.0043 0.05346 0.0
C1095 C 0.36526 0.01038 0.06661 0.0
C1096 C 0.36802 0.01597 0.12447 0.0
C1097 C 0.35228 0.01463 0.16895 0.0
C1098 C 0.38293 0.01025 0.02176 0.0
C1099 C 0.3953 0.02619 0.01276 0.0
C1100 C 0.3885 0.99418 0.99118 0.0
C1101 C 0.37711 0.97641 0.00158 0.0
C1102 C 0.37474 0.96746 0.05938 0.0
C1103 C 0.3639 0.95075 0.06892 0.0
C1104 C 0.35551 0.94277 0.02089 0.0
C1105 C 0.35799 0.95146 0.96318 0.0
C1106 C 0.3688 0.9682 0.95342 0.0
C1107 C 0.46775 0.9937 0.86941 0.0
C1108 C 0.47212 0.00787 0.82412 0.0
C1109 C 0.45053 0.99468 0.90862 0.0
C1110 C 0.43717 0.00974 0.90309 0.0
C1111 C 0.44154 0.02389 0.85775 0.0
C1112 C 0.45894 0.02308 0.81919 0.0
C1113 C 0.41855 0.0104 0.94408 0.0
C1114 C 0.40595 0.99459 0.95204 0.0
C1115 C 0.41317 0.02637 0.97542 0.0
C1116 C 0.42639 0.04306 0.97288 0.0
C1117 C 0.4189 0.0607 0.95524 0.0
C1118 C 0.43138 0.07643 0.95264 0.0
C1119 C 0.45135 0.07471 0.96793 0.0
C1120 C 0.45887 0.05726 0.98608 0.0
C1121 C 0.44645 0.04149 0.98882 0.0
H1122 H 0.46099 0.08691 0.96585 0.0
H1123 H 0.34712 0.92983 0.02836 0.0
H1124 H 0.45032 0.33232 0.1561 0.0
H1125 H 0.44732 0.35894 0.08226 0.0
H1126 H 0.51212 0.36331 0.0604 0.0
H1127 H 0.51513 0.33692 0.13337 0.0
H1128 H 0.49263 0.39587 0.09621 0.0
H1129 H 0.48674 0.34877 0.95027 0.0
H1130 H 0.47029 0.32198 0.90967 0.0
H1131 H 0.41543 0.35304 0.89841 0.0
H1132 H 0.43149 0.37994 0.93972 0.0
H1133 H 0.52772 0.45555 0.85885 0.0
H1134 H 0.51829 0.42956 0.92961 0.0
H1135 H 0.45597 0.43614 0.89025 0.0
H1136 H 0.46549 0.46209 0.81695 0.0
H1137 H 0.46583 0.40026 0.89418 0.0
H1138 H 0.47223 0.44868 0.02561 0.0
H1139 H 0.48757 0.47586 0.06722 0.0
H1140 H 0.53916 0.44312 0.11058 0.0
H1141 H 0.52428 0.41581 0.06848 0.0
C1142 C 0.46386 0.33866 0.13399 0.0
C1143 C 0.48296 0.33273 0.15052 0.0
C1144 C 0.46214 0.35387 0.09218 0.0
C1145 C 0.47951 0.36318 0.06652 0.0
C1146 C 0.49854 0.35641 0.08014 0.0
C1147 C 0.50025 0.34132 0.1216 0.0
C1148 C 0.47832 0.381 0.02999 0.0
C1149 C 0.48683 0.39685 0.05192 0.0
C1150 C 0.46981 0.38244 0.97366 0.0
C1151 C 0.46023 0.36627 0.94881 0.0
C1152 C 0.47111 0.34982 0.93971 0.0
C1153 C 0.46187 0.33463 0.91643 0.0
C1154 C 0.44181 0.33578 0.90167 0.0
C1155 C 0.43096 0.35215 0.90998 0.0
C1156 C 0.44012 0.36737 0.93329 0.0
C1157 C 0.51195 0.45168 0.86548 0.0
C1158 C 0.49734 0.461 0.83243 0.0
C1159 C 0.50655 0.4368 0.9063 0.0
C1160 C 0.48636 0.43108 0.91616 0.0
C1161 C 0.47163 0.44039 0.88359 0.0
C1162 C 0.47707 0.45526 0.84201 0.0
C1163 C 0.48114 0.41493 0.95916 0.0
C1164 C 0.47128 0.39945 0.93889 0.0
C1165 C 0.48818 0.41384 0.01762 0.0
C1166 C 0.49714 0.43019 0.04365 0.0
C1167 C 0.48689 0.44729 0.04374 0.0
C1168 C 0.4955 0.46273 0.06744 0.0
C1169 C 0.51433 0.46122 0.09148 0.0
C1170 C 0.52457 0.44426 0.09199 0.0
C1171 C 0.51603 0.42879 0.06832 0.0
H1172 H 0.52098 0.47319 0.10977 0.0
H1173 H 0.43468 0.32401 0.88364 0.0
H1174 H 0.17362 0.48327 0.15314 0.0
H1175 H 0.14875 0.47864 0.08081 0.0
H1176 H 0.19468 0.48684 0.93576 0.0
H1177 H 0.21965 0.49258 0.00853 0.0
H1178 H 0.16363 0.50616 0.9096 0.0
H1179 H 0.17222 0.44324 0.97241 0.0
H1180 H 0.17602 0.41566 0.04194 0.0
H1181 H 0.11611 0.42332 0.12006 0.0
H1182 H 0.11204 0.45111 0.05162 0.0
H1183 H 0.0702 0.46295 0.77426 0.0
H1184 H 0.1012 0.4582 0.82592 0.0
H1185 H 0.09472 0.51258 0.89583 0.0
H1186 H 0.06396 0.51761 0.8435 0.0
H1187 H 0.1109 0.45691 0.93852 0.0
H1188 H 0.13934 0.53383 0.8926 0.0
H1189 H 0.13738 0.55919 0.81363 0.0
H1190 H 0.12746 0.51922 0.68386 0.0
H1191 H 0.12965 0.4936 0.76182 0.0
C1192 C 0.17848 0.48415 0.10584 0.0
C1193 C 0.19855 0.48858 0.08648 0.0
C1194 C 0.16427 0.48118 0.06449 0.0
C1195 C 0.16986 0.48213 0.00279 0.0
C1196 C 0.19005 0.48597 0.98321 0.0
C1197 C 0.20431 0.48913 0.02477 0.0
C1198 C 0.15412 0.48064 0.95938 0.0
C1199 C 0.15225 0.49527 0.9155 0.0
C1200 C 0.13958 0.46611 0.96564 0.0
C1201 C 0.14186 0.44933 0.00692 0.0
C1202 C 0.15989 0.43912 0.00464 0.0
C1203 C 0.16209 0.42343 0.04385 0.0
C1204 C 0.14632 0.41775 0.08542 0.0
C1205 C 0.12831 0.42773 0.0878 0.0
C1206 C 0.12603 0.44343 0.04872 0.0
C1207 C 0.07525 0.47382 0.80119 0.0
C1208 C 0.06472 0.49074 0.8044 0.0
C1209 C 0.09298 0.47108 0.83057 0.0
C1210 C 0.10047 0.48519 0.86354 0.0
C1211 C 0.08944 0.50169 0.86936 0.0
C1212 C 0.07178 0.50448 0.83982 0.0
C1213 C 0.11995 0.48292 0.89142 0.0
C1214 C 0.12251 0.46758 0.93206 0.0
C1215 C 0.13548 0.49643 0.88066 0.0
C1216 C 0.13453 0.51179 0.83326 0.0
C1217 C 0.13687 0.53043 0.84716 0.0
C1218 C 0.13568 0.54486 0.80257 0.0
C1219 C 0.13225 0.54082 0.74381 0.0
C1220 C 0.13006 0.52233 0.72944 0.0
C1221 C 0.13124 0.50786 0.77384 0.0
H1222 H 0.13131 0.55201 0.70939 0.0
H1223 H 0.14806 0.40561 0.11575 0.0
H1224 H 0.92267 0.81221 0.2345 0.0
H1225 H 0.921 0.83571 0.31009 0.0
H1226 H 0.98592 0.83974 0.29641 0.0
H1227 H 0.98752 0.81641 0.22151 0.0
H1228 H 0.97056 0.84338 0.41158 0.0
H1229 H 0.95849 0.86769 0.20833 0.0
H1230 H 0.9398 0.86923 0.11657 0.0
H1231 H 0.88576 0.88336 0.2194 0.0
H1232 H 0.90411 0.88161 0.31197 0.0
H1233 H 0.00717 0.93379 0.41839 0.0
H1234 H 0.99455 0.90554 0.37851 0.0
H1235 H 0.93636 0.91362 0.46954 0.0
H1236 H 0.94909 0.94158 0.51221 0.0
H1237 H 0.94 0.9024 0.3347 0.0
H1238 H 0.95511 0.88362 0.53648 0.0
H1239 H 0.97551 0.8829 0.62474 0.0
H1240 H 0.02488 0.85918 0.52244 0.0
H1241 H 0.00484 0.85994 0.43338 0.0
C1242 C 0.93652 0.81773 0.24937 0.0
C1243 C 0.95522 0.81264 0.22267 0.0
C1244 C 0.93557 0.83117 0.29211 0.0
C1245 C 0.95334 0.83958 0.30833 0.0
C1246 C 0.97204 0.8334 0.28474 0.0
C1247 C 0.97297 0.82012 0.24196 0.0
C1248 C 0.95277 0.85633 0.34362 0.0
C1249 C 0.96368 0.85622 0.3952 0.0
C1250 C 0.94354 0.87305 0.32272 0.0
C1251 C 0.93259 0.87428 0.26708 0.0
C1252 C 0.94259 0.87099 0.21139 0.0
C1253 C 0.93207 0.87192 0.15925 0.0
C1254 C 0.91159 0.87634 0.16218 0.0
C1255 C 0.90161 0.8799 0.21723 0.0
C1256 C 0.91206 0.87893 0.26954 0.0
C1257 C 0.99167 0.92963 0.42997 0.0
C1258 C 0.97924 0.93983 0.4692 0.0
C1259 C 0.98448 0.91355 0.40691 0.0
C1260 C 0.96466 0.90747 0.42185 0.0
C1261 C 0.95174 0.91815 0.4578 0.0
C1262 C 0.95902 0.93418 0.48169 0.0
C1263 C 0.95812 0.88944 0.40164 0.0
C1264 C 0.94612 0.88938 0.35254 0.0
C1265 C 0.96641 0.87259 0.42465 0.0
C1266 C 0.97851 0.87196 0.47815 0.0
C1267 C 0.97037 0.87838 0.53268 0.0
C1268 C 0.98185 0.87793 0.58289 0.0
C1269 C 0.00149 0.87104 0.57916 0.0
C1270 C 0.00966 0.86452 0.52526 0.0
C1271 C 0.99823 0.86492 0.47494 0.0
H1272 H 0.01036 0.87071 0.61806 0.0
H1273 H 0.90346 0.87706 0.12177 0.0
H1274 H 0.71143 0.9698 0.25475 0.0
H1275 H 0.68422 0.96651 0.3347 0.0
H1276 H 0.67049 0.02489 0.30664 0.0
H1277 H 0.69752 0.02818 0.22677 0.0
H1278 H 0.66749 0.01209 0.42914 0.0
H1279 H 0.64504 0.99467 0.23781 0.0
H1280 H 0.64684 0.97635 0.14811 0.0
H1281 H 0.63897 0.92574 0.26006 0.0
H1282 H 0.63744 0.94378 0.35052 0.0
H1283 H 0.56616 0.0234 0.52396 0.0
H1284 H 0.59759 0.02165 0.46198 0.0
H1285 H 0.59945 0.96226 0.50208 0.0
H1286 H 0.56783 0.96385 0.5646 0.0
H1287 H 0.61044 0.97202 0.38287 0.0
H1288 H 0.62884 0.98868 0.57345 0.0
H1289 H 0.6272 0.00615 0.66498 0.0
H1290 H 0.64334 0.05658 0.55944 0.0
H1291 H 0.64476 0.03947 0.46709 0.0
C1292 C 0.70294 0.98201 0.26686 0.0
C1293 C 0.70653 0.99923 0.23457 0.0
C1294 C 0.68733 0.9801 0.31219 0.0
C1295 C 0.67518 0.99543 0.32621 0.0
C1296 C 0.67964 0.01289 0.29662 0.0
C1297 C 0.69505 0.01474 0.25096 0.0
C1298 C 0.65677 0.99311 0.36761 0.0
C1299 C 0.65498 0.00339 0.41896 0.0
C1300 C 0.64065 0.98136 0.35524 0.0
C1301 C 0.64136 0.97055 0.3009 0.0
C1302 C 0.64386 0.97963 0.24329 0.0
C1303 C 0.6448 0.9693 0.19232 0.0
C1304 C 0.64308 0.94989 0.19838 0.0
C1305 C 0.64034 0.94078 0.25544 0.0
C1306 C 0.63943 0.95104 0.30657 0.0
C1307 C 0.57307 0.00989 0.51921 0.0
C1308 C 0.56447 0.99376 0.54958 0.0
C1309 C 0.59115 0.00895 0.48399 0.0
C1310 C 0.60108 0.99188 0.47825 0.0
C1311 C 0.59211 0.9756 0.5062 0.0
C1312 C 0.57402 0.97653 0.54182 0.0
C1313 C 0.62098 0.99129 0.44383 0.0
C1314 C 0.62303 0.9805 0.3937 0.0
C1315 C 0.63742 0.00242 0.45775 0.0
C1316 C 0.63675 0.0128 0.51321 0.0
C1317 C 0.6319 0.00352 0.56967 0.0
C1318 C 0.63103 0.01335 0.62173 0.0
C1319 C 0.63514 0.03246 0.61802 0.0
C1320 C 0.64016 0.04177 0.56224 0.0
C1321 C 0.64102 0.03201 0.51001 0.0
H1322 H 0.63446 0.04005 0.65838 0.0
H1323 H 0.64381 0.94191 0.15887 0.0
H1324 H 0.51759 0.65296 0.21999 0.0
H1325 H 0.52062 0.62888 0.30062 0.0
H1326 H 0.57642 0.65353 0.34522 0.0
H1327 H 0.57348 0.67781 0.26345 0.0
H1328 H 0.57876 0.61483 0.33626 0.0
H1329 H 0.53713 0.65734 0.44023 0.0
H1330 H 0.50902 0.67918 0.45594 0.0
H1331 H 0.46647 0.635 0.44162 0.0
H1332 H 0.49431 0.61293 0.42492 0.0
H1333 H 0.56955 0.5454 0.59151 0.0
H1334 H 0.57585 0.57404 0.52696 0.0
H1335 H 0.51987 0.5658 0.44518 0.0
H1336 H 0.51346 0.53747 0.50909 0.0
H1337 H 0.52255 0.60024 0.48918 0.0
H1338 H 0.56457 0.55939 0.36925 0.0
H1339 H 0.5927 0.53763 0.3522 0.0
H1340 H 0.63464 0.579 0.39806 0.0
H1341 H 0.60671 0.60094 0.41614 0.0
C1342 C 0.53045 0.65333 0.24721 0.0
C1343 C 0.54533 0.66719 0.23551 0.0
C1344 C 0.53212 0.63963 0.29343 0.0
C1345 C 0.54868 0.6395 0.32914 0.0
C1346 C 0.5635 0.65345 0.31821 0.0
C1347 C 0.56174 0.66734 0.27195 0.0
C1348 C 0.55048 0.62422 0.37612 0.0
C1349 C 0.56673 0.61185 0.37073 0.0
C1350 C 0.53471 0.62029 0.4207 0.0
C1351 C 0.51785 0.63349 0.43105 0.0
C1352 C 0.52178 0.6523 0.44003 0.0
C1353 C 0.50589 0.66472 0.44917 0.0
C1354 C 0.48597 0.65849 0.44972 0.0
C1355 C 0.48191 0.63981 0.44122 0.0
C1356 C 0.49774 0.62733 0.43201 0.0
C1357 C 0.55884 0.5495 0.55877 0.0
C1358 C 0.54093 0.53927 0.5557 0.0
C1359 C 0.56243 0.56588 0.52211 0.0
C1360 C 0.5482 0.57212 0.48178 0.0
C1361 C 0.53092 0.56133 0.47649 0.0
C1362 C 0.52732 0.54509 0.51293 0.0
C1363 C 0.55033 0.59042 0.44748 0.0
C1364 C 0.53482 0.60341 0.4556 0.0
C1365 C 0.56678 0.59489 0.40567 0.0
C1366 C 0.58354 0.58171 0.39481 0.0
C1367 C 0.57977 0.56378 0.37626 0.0
C1368 C 0.59568 0.55143 0.36628 0.0
C1369 C 0.61544 0.5569 0.37425 0.0
C1370 C 0.61933 0.57477 0.39204 0.0
C1371 C 0.60347 0.58716 0.40213 0.0
H1372 H 0.62774 0.54733 0.36649 0.0
H1373 H 0.47369 0.66813 0.4568 0.0
H1374 H 0.81837 0.51269 0.35893 0.0
H1375 H 0.84367 0.51965 0.42987 0.0
H1376 H 0.87975 0.47374 0.36955 0.0
H1377 H 0.85458 0.46674 0.2996 0.0
H1378 H 0.88076 0.47641 0.48936 0.0
H1379 H 0.88763 0.51741 0.3074 0.0
H1380 H 0.87558 0.54117 0.23394 0.0
H1381 H 0.8661 0.57939 0.37288 0.0
H1382 H 0.87785 0.55573 0.44735 0.0
H1383 H 0.98192 0.49147 0.51016 0.0
H1384 H 0.94953 0.4907 0.46544 0.0
H1385 H 0.92882 0.53665 0.56769 0.0
H1386 H 0.96143 0.5376 0.61278 0.0
H1387 H 0.91585 0.53726 0.44588 0.0
H1388 H 0.91483 0.49684 0.62421 0.0
H1389 H 0.92882 0.47299 0.69348 0.0
H1390 H 0.92824 0.43321 0.55839 0.0
H1391 H 0.91456 0.457 0.48792 0.0
C1392 C 0.83147 0.50384 0.36224 0.0
C1393 C 0.8347 0.48928 0.3238 0.0
C1394 C 0.84593 0.50788 0.4023 0.0
C1395 C 0.86369 0.49736 0.40429 0.0
C1396 C 0.86618 0.48205 0.36871 0.0
C1397 C 0.85185 0.47809 0.32867 0.0
C1398 C 0.88061 0.50296 0.43905 0.0
C1399 C 0.88837 0.48974 0.48008 0.0
C1400 C 0.8903 0.52051 0.42778 0.0
C1401 C 0.88335 0.53474 0.38303 0.0
C1402 C 0.88282 0.53083 0.32234 0.0
C1403 C 0.87607 0.54428 0.28052 0.0
C1404 C 0.87001 0.56176 0.29877 0.0
C1405 C 0.87075 0.56583 0.35885 0.0
C1406 C 0.87745 0.55241 0.40088 0.0
C1407 C 0.97067 0.50171 0.52217 0.0
C1408 C 0.97413 0.51448 0.56537 0.0
C1409 C 0.95216 0.50121 0.49675 0.0
C1410 C 0.93672 0.51336 0.51433 0.0
C1411 C 0.94057 0.52711 0.5539 0.0
C1412 C 0.95921 0.52767 0.57937 0.0
C1413 C 0.91625 0.51048 0.49459 0.0
C1414 C 0.90789 0.52416 0.45646 0.0
C1415 C 0.90603 0.4933 0.50818 0.0
C1416 C 0.91378 0.47876 0.55075 0.0
C1417 C 0.9178 0.48305 0.60923 0.0
C1418 C 0.92567 0.46953 0.64871 0.0
C1419 C 0.92945 0.45159 0.63038 0.0
C1420 C 0.9253 0.44712 0.57254 0.0
C1421 C 0.91746 0.46062 0.53283 0.0
H1422 H 0.93558 0.44115 0.66101 0.0
H1423 H 0.8648 0.57216 0.26632 0.0
loop_
_geom_bond_atom_site_label_1
_geom_bond_atom_site_label_2
_geom_bond_distance
_geom_bond_site_symmetry_2
_ccdc_geom_bond_type
H0 C3 0.929 . S
H1 C6 0.929 . S
H2 C8 0.930 . S
C3 H0 0.929 . S
C3 C4 1.398 . S
C3 C5 1.396 . S
C4 C3 1.398 . S
C4 C8 1.407 . S
C5 C3 1.396 . S
C5 C6 1.394 . S
C6 H1 0.929 . S
C6 C5 1.394 . S
C6 C7 1.382 . S
C7 C6 1.382 . S
C7 C8 1.392 . S
C7 N9 1.420 . S
C8 H2 0.930 . S
C8 C4 1.407 . S
C8 C7 1.392 . S
N9 C7 1.420 . S
N9 C10 1.244 . S
C10 N9 1.244 . S
H11 C14 0.929 . S
H12 C17 0.929 . S
H13 C19 0.930 . S
C14 H11 0.929 . S
C14 C15 1.398 . S
C14 C16 1.396 1_554 S
C15 C14 1.398 . S
C15 C19 1.407 . S
C16 C14 1.396 1_556 S
C16 C17 1.394 . S
C17 H12 0.929 . S
C17 C16 1.394 . S
C17 C18 1.382 1_556 S
C18 C17 1.382 1_554 S
C18 C19 1.392 . S
C18 N20 1.420 . S
C19 H13 0.930 . S
C19 C15 1.407 . S
C19 C18 1.392 . S
N20 C18 1.420 . S
N20 C21 1.244 1_554 S
C21 N20 1.244 1_556 S
H22 C25 0.929 . S
H23 C28 0.929 1_556 S
H24 C30 0.930 . S
C25 H22 0.929 . S
C25 C26 1.394 1_565 S
C25 C27 1.395 1_565 S
C26 C25 1.394 1_545 S
C26 C30 1.412 . S
C27 C25 1.395 1_545 S
C27 C28 1.396 . S
C28 H23 0.929 1_554 S
C28 C27 1.396 . S
C28 C29 1.382 . S
C29 C28 1.382 . S
C29 C30 1.392 . S
C29 N31 1.420 . S
C30 H24 0.930 . S
C30 C26 1.412 . S
C30 C29 1.392 . S
N31 C29 1.420 . S
N31 C32 1.230 1_545 S
C32 N31 1.230 1_565 S
H33 C36 0.929 . S
H34 C39 0.929 1_556 S
H35 C41 0.930 . S
C36 H33 0.929 . S
C36 C37 1.398 . S
C36 C38 1.396 . S
C37 C36 1.398 . S
C37 C41 1.407 . S
C38 C36 1.396 . S
C38 C39 1.394 . S
C39 H34 0.929 1_554 S
C39 C38 1.394 . S
C39 C40 1.382 . S
C40 C39 1.382 . S
C40 C41 1.392 . S
C40 N42 1.420 . S
C41 H35 0.930 . S
C41 C37 1.407 . S
C41 C40 1.392 . S
N42 C40 1.420 . S
N42 C43 1.244 . S
C43 N42 1.244 . S
H44 C47 0.929 . S
H45 C50 0.929 . S
H46 C52 0.930 . S
C47 H44 0.929 . S
C47 C48 1.398 . S
C47 C49 1.396 . S
C48 C47 1.398 . S
C48 C52 1.407 . S
C49 C47 1.396 . S
C49 C50 1.394 . S
C50 H45 0.929 . S
C50 C49 1.394 . S
C50 C51 1.382 . S
C51 C50 1.382 . S
C51 C52 1.392 . S
C51 N53 1.420 . S
C52 H46 0.930 . S
C52 C48 1.407 . S
C52 C51 1.392 . S
N53 C51 1.420 . S
N53 C54 1.244 . S
C54 N53 1.244 . S
H55 C58 0.929 . S
H56 C61 0.929 . S
H57 C63 0.930 . S
C58 H55 0.929 . S
C58 C59 1.398 . S
C58 C60 1.396 . S
C59 C58 1.398 . S
C59 C63 1.407 . S
C60 C58 1.396 . S
C60 C61 1.394 . S
C61 H56 0.929 . S
C61 C60 1.394 . S
C61 C62 1.382 . S
C62 C61 1.382 . S
C62 C63 1.392 . S
C62 N64 1.420 . S
C63 H57 0.930 . S
C63 C59 1.407 . S
C63 C62 1.392 . S
N64 C62 1.420 . S
N64 C65 1.244 . S
C65 N64 1.244 . S
H66 C69 0.929 . S
H67 C72 0.929 . S
H68 C74 0.930 . S
C69 H66 0.929 . S
C69 C70 1.397 1_565 S
C69 C71 1.392 1_565 S
C70 C69 1.397 1_545 S
C70 C74 1.416 . S
C71 C69 1.392 1_545 S
C71 C72 1.399 . S
C72 H67 0.929 . S
C72 C71 1.399 . S
C72 C73 1.382 . S
C73 C72 1.382 . S
C73 C74 1.392 . S
C73 N75 1.420 . S
C74 H68 0.930 . S
C74 C70 1.416 . S
C74 C73 1.392 . S
N75 C73 1.420 . S
N75 C76 1.239 1_545 S
C76 N75 1.239 1_565 S
H77 C80 0.929 . S
H78 C83 0.929 . S
H79 C85 0.930 . S
C80 H77 0.929 . S
C80 C81 1.398 . S
C80 C82 1.396 . S
C81 C80 1.398 . S
C81 C85 1.407 . S
C82 C80 1.396 . S
C82 C83 1.394 . S
C83 H78 0.929 . S
C83 C82 1.394 . S
C83 C84 1.382 . S
C84 C83 1.382 . S
C84 C85 1.392 . S
C84 N86 1.420 . S
C85 H79 0.930 . S
C85 C81 1.407 . S
C85 C84 1.392 . S
N86 C84 1.420 . S
N86 C87 1.244 . S
C87 N86 1.244 . S
C88 O104 1.251 . S
C88 O106 1.254 . S
N89 C90 1.333 . S
N89 C94 1.307 1_455 S
N89 Zn95 2.020 . S
C90 N89 1.333 . S
C90 C91 1.379 . S
C90 H108 0.952 . S
C91 C90 1.379 . S
C91 C92 1.390 1_455 S
C91 H118 0.949 . S
C92 C91 1.390 1_655 S
C92 C93 1.357 . S
C93 C92 1.357 . S
C93 C94 1.370 . S
C93 H119 0.950 . S
C94 N89 1.307 1_655 S
C94 C93 1.370 . S
C94 H112 0.948 . S
Zn95 N89 2.020 . S
Zn95 O104 2.039 . S
Zn95 O110 2.034 . S
Zn95 O114 2.025 1_565 S
Zn95 O116 2.024 1_455 S
C96 O115 1.246 . S
C96 O116 1.249 1_545 S
N97 C98 1.307 . S
N97 C99 1.333 . S
N97 Zn103 2.020 . S
C98 N97 1.307 . S
C98 C102 1.370 . S
C98 H109 0.948 . S
C99 N97 1.333 . S
C99 C100 1.379 . S
C99 H107 0.952 . S
C100 C99 1.379 . S
C100 C101 1.390 . S
C100 H120 0.949 . S
C101 C100 1.390 . S
C101 C102 1.357 . S
C102 C98 1.370 . S
C102 C101 1.357 . S
C102 H121 0.950 . S
Zn103 N97 2.020 . S
Zn103 O106 2.025 1_545 S
Zn103 O111 2.024 . S
Zn103 O113 2.039 . S
Zn103 O115 2.034 1_455 S
O104 C88 1.251 . S
O104 Zn95 2.039 . S
C105 O110 1.246 . S
C105 O111 1.249 1_565 S
O106 C88 1.254 . S
O106 Zn103 2.025 1_565 S
H107 C99 0.952 . S
H108 C90 0.952 . S
H109 C98 0.948 . S
O110 Zn95 2.034 . S
O110 C105 1.246 . S
O111 Zn103 2.024 . S
O111 C105 1.249 1_545 S
H112 C94 0.948 . S
O113 Zn103 2.039 . S
O113 C117 1.251 . S
O114 Zn95 2.025 1_545 S
O114 C117 1.254 . S
O115 C96 1.246 . S
O115 Zn103 2.034 1_655 S
O116 Zn95 2.024 1_655 S
O116 C96 1.249 1_565 S
C117 O113 1.251 . S
C117 O114 1.254 . S
H118 C91 0.949 . S
H119 C93 0.950 . S
H120 C100 0.949 . S
H121 C102 0.950 . S
C122 O138 1.251 1_565 S
C122 O140 1.254 . S
N123 C124 1.333 . S
N123 C128 1.307 . S
N123 Zn129 2.020 . S
C124 N123 1.333 . S
C124 C125 1.379 . S
C124 H142 0.952 . S
C125 C124 1.379 . S
C125 C126 1.390 . S
C125 H152 0.949 . S
C126 C125 1.390 . S
C126 C127 1.357 . S
C127 C126 1.357 . S
C127 C128 1.370 . S
C127 H153 0.950 . S
C128 N123 1.307 . S
C128 C127 1.370 . S
C128 H146 0.948 . S
Zn129 N123 2.020 . S
Zn129 O138 2.039 . S
Zn129 O144 2.034 . S
Zn129 O148 2.025 . S
Zn129 O150 2.024 . S
C130 O149 1.246 1_545 S
C130 O150 1.249 . S
N131 C132 1.307 . S
N131 C133 1.333 . S
N131 Zn137 2.020 . S
C132 N131 1.307 . S
C132 C136 1.370 . S
C132 H143 0.948 . S
C133 N131 1.333 . S
C133 C134 1.379 . S
C133 H141 0.952 . S
C134 C133 1.379 . S
C134 C135 1.390 . S
C134 H154 0.949 . S
C135 C134 1.390 . S
C135 C136 1.357 . S
C136 C132 1.370 . S
C136 C135 1.357 . S
C136 H155 0.950 . S
Zn137 N131 2.020 . S
Zn137 O140 2.025 . S
Zn137 O145 2.024 . S
Zn137 O147 2.039 . S
Zn137 O149 2.034 . S
O138 C122 1.251 1_545 S
O138 Zn129 2.039 . S
C139 O144 1.246 1_565 S
C139 O145 1.249 . S
O140 C122 1.254 . S
O140 Zn137 2.025 . S
H141 C133 0.952 . S
H142 C124 0.952 . S
H143 C132 0.948 . S
O144 Zn129 2.034 . S
O144 C139 1.246 1_545 S
O145 Zn137 2.024 . S
O145 C139 1.249 . S
H146 C128 0.948 . S
O147 Zn137 2.039 . S
O147 C151 1.251 1_565 S
O148 Zn129 2.025 . S
O148 C151 1.254 . S
O149 C130 1.246 1_565 S
O149 Zn137 2.034 . S
O150 Zn129 2.024 . S
O150 C130 1.249 . S
C151 O147 1.251 1_545 S
C151 O148 1.254 . S
H152 C125 0.949 . S
H153 C127 0.950 . S
H154 C134 0.949 . S
H155 C136 0.950 . S
C156 O172 1.251 . S
C156 O174 1.254 . S
N157 C158 1.333 . S
N157 C162 1.307 . S
N157 Zn163 2.020 . S
C158 N157 1.333 . S
C158 C159 1.379 . S
C158 H176 0.952 . S
C159 C158 1.379 . S
C159 C160 1.390 . S
C159 H186 0.949 . S
C160 C159 1.390 . S
C160 C161 1.357 . S
C161 C160 1.357 . S
C161 C162 1.370 . S
C161 H187 0.950 . S
C162 N157 1.307 . S
C162 C161 1.370 . S
C162 H180 0.948 . S
Zn163 N157 2.020 . S
Zn163 O172 2.039 . S
Zn163 O178 2.034 . S
Zn163 O182 2.025 . S
Zn163 O184 2.024 . S
C164 O183 1.246 . S
C164 O184 1.249 . S
N165 C166 1.307 . S
N165 C167 1.333 . S
N165 Zn171 2.020 . S
C166 N165 1.307 . S
C166 C170 1.370 . S
C166 H177 0.948 . S
C167 N165 1.333 . S
C167 C168 1.379 . S
C167 H175 0.952 . S
C168 C167 1.379 . S
C168 C169 1.390 . S
C168 H188 0.949 . S
C169 C168 1.390 . S
C169 C170 1.357 . S
C170 C166 1.370 . S
C170 C169 1.357 . S
C170 H189 0.950 . S
Zn171 N165 2.020 . S
Zn171 O174 2.025 . S
Zn171 O179 2.024 . S
Zn171 O181 2.039 . S
Zn171 O183 2.034 . S
O172 C156 1.251 . S
O172 Zn163 2.039 . S
C173 O178 1.246 . S
C173 O179 1.249 . S
O174 C156 1.254 . S
O174 Zn171 2.025 . S
H175 C167 0.952 . S
H176 C158 0.952 . S
H177 C166 0.948 . S
O178 Zn163 2.034 . S
O178 C173 1.246 . S
O179 Zn171 2.024 . S
O179 C173 1.249 . S
H180 C162 0.948 . S
O181 Zn171 2.039 . S
O181 C185 1.251 . S
O182 Zn163 2.025 . S
O182 C185 1.254 . S
O183 C164 1.246 . S
O183 Zn171 2.034 . S
O184 Zn163 2.024 . S
O184 C164 1.249 . S
C185 O181 1.251 . S
C185 O182 1.254 . S
H186 C159 0.949 . S
H187 C161 0.950 . S
H188 C168 0.949 . S
H189 C170 0.950 . S
C190 O206 1.251 . S
C190 O208 1.254 . S
N191 C192 1.333 . S
N191 C196 1.307 . S
N191 Zn197 2.020 . S
C192 N191 1.333 . S
C192 C193 1.379 . S
C192 H210 0.952 . S
C193 C192 1.379 . S
C193 C194 1.390 . S
C193 H220 0.949 . S
C194 C193 1.390 . S
C194 C195 1.357 . S
C195 C194 1.357 . S
C195 C196 1.370 . S
C195 H221 0.950 . S
C196 N191 1.307 . S
C196 C195 1.370 . S
C196 H214 0.948 . S
Zn197 N191 2.020 . S
Zn197 O206 2.039 . S
Zn197 O212 2.051 . S
Zn197 O216 2.025 1_455 S
Zn197 O218 2.024 . S
C198 O217 1.246 . S
C198 O218 1.249 . S
N199 C200 1.307 . S
N199 C201 1.333 . S
N199 Zn205 2.020 . S
C200 N199 1.307 . S
C200 C204 1.370 . S
C200 H211 0.948 . S
C201 N199 1.333 . S
C201 C202 1.379 . S
C201 H209 0.942 1_455 S
C202 C201 1.379 . S
C202 C203 1.390 . S
C202 H222 0.949 1_455 S
C203 C202 1.390 . S
C203 C204 1.357 . S
C204 C200 1.370 . S
C204 C203 1.357 . S
C204 H223 0.950 . S
Zn205 N199 2.020 . S
Zn205 O208 2.025 . S
Zn205 O213 2.024 1_455 S
Zn205 O215 2.039 1_455 S
Zn205 O217 2.034 . S
O206 C190 1.251 . S
O206 Zn197 2.039 . S
C207 O212 1.234 1_655 S
C207 O213 1.249 . S
O208 C190 1.254 . S
O208 Zn205 2.025 . S
H209 C201 0.942 1_655 S
H210 C192 0.952 . S
H211 C200 0.948 . S
O212 Zn197 2.051 . S
O212 C207 1.234 1_455 S
O213 Zn205 2.024 1_655 S
O213 C207 1.249 . S
H214 C196 0.948 . S
O215 Zn205 2.039 1_655 S
O215 C219 1.251 . S
O216 Zn197 2.025 1_655 S
O216 C219 1.254 . S
O217 C198 1.246 . S
O217 Zn205 2.034 . S
O218 Zn197 2.024 . S
O218 C198 1.249 . S
C219 O215 1.251 . S
C219 O216 1.254 . S
H220 C193 0.949 . S
H221 C195 0.950 . S
H222 C202 0.949 1_655 S
H223 C204 0.950 . S
H224 C242 0.951 . S
H225 C244 0.951 . S
H226 C246 0.950 . S
H227 C247 0.950 . S
H228 C249 0.950 . S
H229 C252 0.950 . S
H230 C253 0.950 . S
H231 C255 0.950 . S
H232 C256 0.950 . S
H233 C257 0.951 . S
H234 C259 0.951 . S
H235 C261 0.950 . S
H236 C262 0.950 . S
H237 C264 0.950 . S
H238 C267 0.950 . S
H239 C268 0.950 . S
H240 C270 0.950 . S
H241 C271 0.950 . S
C242 H224 0.951 . S
C242 C243 1.366 . S
C242 C244 1.388 . S
C243 C242 1.366 . S
C243 C247 1.384 1_565 S
C244 H225 0.951 . S
C244 C242 1.388 . S
C244 C245 1.366 . S
C245 C244 1.366 . S
C245 C246 1.414 1_565 S
C245 C248 1.499 . S
C246 H226 0.950 . S
C246 C245 1.414 1_545 S
C246 C247 1.374 . S
C247 H227 0.950 . S
C247 C243 1.384 1_545 S
C247 C246 1.374 . S
C248 C245 1.499 . S
C248 C249 1.373 1_565 S
C248 C250 1.389 . S
C249 H228 0.950 . S
C249 C248 1.373 1_545 S
C249 C265 1.377 . S
C250 C248 1.389 . S
C250 C251 1.524 . S
C250 C264 1.377 . S
C251 C250 1.524 . S
C251 C252 1.397 . S
C251 C256 1.363 . S
C252 H229 0.950 . S
C252 C251 1.397 . S
C252 C253 1.334 . S
C253 H230 0.950 . S
C253 C252 1.334 . S
C253 C254 1.287 . S
C254 C253 1.287 . S
C254 C255 1.524 . S
C254 H273 0.913 . S
C255 H231 0.950 . S
C255 C254 1.524 . S
C255 C256 1.415 . S
C256 H232 0.950 . S
C256 C251 1.363 . S
C256 C255 1.415 . S
C257 H233 0.951 . S
C257 C258 1.366 1_545 S
C257 C259 1.388 . S
C258 C257 1.366 1_565 S
C258 C262 1.385 . S
C259 H234 0.951 . S
C259 C257 1.388 . S
C259 C260 1.366 1_545 S
C260 C259 1.366 1_565 S
C260 C261 1.414 . S
C260 C263 1.499 . S
C261 H235 0.950 . S
C261 C260 1.414 . S
C261 C262 1.374 . S
C262 H236 0.950 . S
C262 C258 1.385 . S
C262 C261 1.374 . S
C263 C260 1.499 . S
C263 C264 1.373 . S
C263 C265 1.389 1_565 S
C264 H237 0.950 . S
C264 C250 1.377 . S
C264 C263 1.373 . S
C265 C249 1.377 . S
C265 C263 1.389 1_545 S
C265 C266 1.524 . S
C266 C265 1.524 . S
C266 C267 1.397 . S
C266 C271 1.363 . S
C267 H238 0.950 . S
C267 C266 1.397 . S
C267 C268 1.334 . S
C268 H239 0.950 . S
C268 C267 1.334 . S
C268 C269 1.287 . S
C269 C268 1.287 . S
C269 C270 1.524 . S
C269 H272 0.999 . S
C270 H240 0.950 . S
C270 C269 1.524 . S
C270 C271 1.415 . S
C271 H241 0.950 . S
C271 C266 1.363 . S
C271 C270 1.415 . S
H272 C269 0.999 . S
H273 C254 0.913 . S
H274 C292 0.951 . S
H275 C294 0.951 . S
H276 C296 0.950 . S
H277 C297 0.950 . S
H278 C299 0.950 . S
H279 C302 0.950 . S
H280 C303 0.950 . S
H281 C305 0.950 . S
H282 C306 0.950 . S
H283 C307 0.951 . S
H284 C309 0.951 . S
H285 C311 0.950 . S
H286 C312 0.950 . S
H287 C314 0.950 . S
H288 C317 0.950 . S
H289 C318 0.950 . S
H290 C320 0.950 . S
H291 C321 0.950 . S
C292 H274 0.951 . S
C292 C293 1.366 . S
C292 C294 1.388 . S
C293 C292 1.366 . S
C293 C297 1.385 . S
C294 H275 0.951 . S
C294 C292 1.388 . S
C294 C295 1.366 . S
C295 C294 1.366 . S
C295 C296 1.414 . S
C295 C298 1.499 . S
C296 H276 0.950 . S
C296 C295 1.414 . S
C296 C297 1.374 . S
C297 H277 0.950 . S
C297 C293 1.385 . S
C297 C296 1.374 . S
C298 C295 1.499 . S
C298 C299 1.373 . S
C298 C300 1.389 . S
C299 H278 0.950 . S
C299 C298 1.373 . S
C299 C315 1.377 . S
C300 C298 1.389 . S
C300 C301 1.524 . S
C300 C314 1.377 . S
C301 C300 1.524 . S
C301 C302 1.397 . S
C301 C306 1.363 . S
C302 H279 0.950 . S
C302 C301 1.397 . S
C302 C303 1.334 . S
C303 H280 0.950 . S
C303 C302 1.334 . S
C303 C304 1.287 . S
C304 C303 1.287 . S
C304 C305 1.524 . S
C304 H323 0.913 . S
C305 H281 0.950 . S
C305 C304 1.524 . S
C305 C306 1.415 . S
C306 H282 0.950 . S
C306 C301 1.363 . S
C306 C305 1.415 . S
C307 H283 0.951 . S
C307 C308 1.366 . S
C307 C309 1.388 . S
C308 C307 1.366 . S
C308 C312 1.385 . S
C309 H284 0.951 . S
C309 C307 1.388 . S
C309 C310 1.366 . S
C310 C309 1.366 . S
C310 C311 1.414 . S
C310 C313 1.499 . S
C311 H285 0.950 . S
C311 C310 1.414 . S
C311 C312 1.374 . S
C312 H286 0.950 . S
C312 C308 1.385 . S
C312 C311 1.374 . S
C313 C310 1.499 . S
C313 C314 1.373 . S
C313 C315 1.389 . S
C314 H287 0.950 . S
C314 C300 1.377 . S
C314 C313 1.373 . S
C315 C299 1.377 . S
C315 C313 1.389 . S
C315 C316 1.524 . S
C316 C315 1.524 . S
C316 C317 1.397 . S
C316 C321 1.363 . S
C317 H288 0.950 . S
C317 C316 1.397 . S
C317 C318 1.334 . S
C318 H289 0.950 . S
C318 C317 1.334 . S
C318 C319 1.287 . S
C319 C318 1.287 . S
C319 C320 1.524 . S
C319 H322 0.999 . S
C320 H290 0.950 . S
C320 C319 1.524 . S
C320 C321 1.415 . S
C321 H291 0.950 . S
C321 C316 1.363 . S
C321 C320 1.415 . S
H322 C319 0.999 . S
H323 C304 0.913 . S
H324 C342 0.951 . S
H325 C344 0.951 . S
H326 C346 0.950 . S
H327 C347 0.950 . S
H328 C349 0.950 . S
H329 C352 0.950 . S
H330 C353 0.950 . S
H331 C355 0.950 . S
H332 C356 0.950 . S
H333 C357 0.951 . S
H334 C359 0.951 . S
H335 C361 0.950 . S
H336 C362 0.950 . S
H337 C364 0.950 . S
H338 C367 0.950 . S
H339 C368 0.950 . S
H340 C370 0.950 . S
H341 C371 0.950 . S
C342 H324 0.951 . S
C342 C343 1.366 . S
C342 C344 1.388 . S
C343 C342 1.366 . S
C343 C347 1.385 . S
C344 H325 0.951 . S
C344 C342 1.388 . S
C344 C345 1.366 . S
C345 C344 1.366 . S
C345 C346 1.414 . S
C345 C348 1.499 . S
C346 H326 0.950 . S
C346 C345 1.414 . S
C346 C347 1.374 . S
C347 H327 0.950 . S
C347 C343 1.385 . S
C347 C346 1.374 . S
C348 C345 1.499 . S
C348 C349 1.373 . S
C348 C350 1.389 . S
C349 H328 0.950 . S
C349 C348 1.373 . S
C349 C365 1.377 . S
C350 C348 1.389 . S
C350 C351 1.524 . S
C350 C364 1.377 . S
C351 C350 1.524 . S
C351 C352 1.397 . S
C351 C356 1.363 . S
C352 H329 0.950 . S
C352 C351 1.397 . S
C352 C353 1.334 . S
C353 H330 0.950 . S
C353 C352 1.334 . S
C353 C354 1.287 . S
C354 C353 1.287 . S
C354 C355 1.524 . S
C354 H373 0.913 . S
C355 H331 0.950 . S
C355 C354 1.524 . S
C355 C356 1.415 . S
C356 H332 0.950 . S
C356 C351 1.363 . S
C356 C355 1.415 . S
C357 H333 0.951 . S
C357 C358 1.366 . S
C357 C359 1.388 . S
C358 C357 1.366 . S
C358 C362 1.385 . S
C359 H334 0.951 . S
C359 C357 1.388 . S
C359 C360 1.366 . S
C360 C359 1.366 . S
C360 C361 1.414 . S
C360 C363 1.499 . S
C361 H335 0.950 . S
C361 C360 1.414 . S
C361 C362 1.374 . S
C362 H336 0.950 . S
C362 C358 1.385 . S
C362 C361 1.374 . S
C363 C360 1.499 . S
C363 C364 1.373 . S
C363 C365 1.389 . S
C364 H337 0.950 . S
C364 C350 1.377 . S
C364 C363 1.373 . S
C365 C349 1.377 . S
C365 C363 1.389 . S
C365 C366 1.524 . S
C366 C365 1.524 . S
C366 C367 1.397 . S
C366 C371 1.363 . S
C367 H338 0.950 . S
C367 C366 1.397 . S
C367 C368 1.334 . S
C368 H339 0.950 . S
C368 C367 1.334 . S
C368 C369 1.287 . S
C369 C368 1.287 . S
C369 C370 1.524 . S
C369 H372 0.999 . S
C370 H340 0.950 . S
C370 C369 1.524 . S
C370 C371 1.415 . S
C371 H341 0.950 . S
C371 C366 1.363 . S
C371 C370 1.415 . S
H372 C369 0.999 . S
H373 C354 0.913 . S
H374 C392 0.951 . S
H375 C394 0.951 . S
H376 C396 0.950 . S
H377 C397 0.950 . S
H378 C399 0.950 . S
H379 C402 0.950 . S
H380 C403 0.950 . S
H381 C405 0.950 . S
H382 C406 0.950 . S
H383 C407 0.951 . S
H384 C409 0.951 . S
H385 C411 0.950 . S
H386 C412 0.950 . S
H387 C414 0.950 . S
H388 C417 0.950 . S
H389 C418 0.950 . S
H390 C420 0.950 . S
H391 C421 0.950 . S
C392 H374 0.951 . S
C392 C393 1.366 . S
C392 C394 1.388 . S
C393 C392 1.366 . S
C393 C397 1.385 . S
C394 H375 0.951 . S
C394 C392 1.388 . S
C394 C395 1.366 . S
C395 C394 1.366 . S
C395 C396 1.414 . S
C395 C398 1.499 . S
C396 H376 0.950 . S
C396 C395 1.414 . S
C396 C397 1.374 . S
C397 H377 0.950 . S
C397 C393 1.385 . S
C397 C396 1.374 . S
C398 C395 1.499 . S
C398 C399 1.373 . S
C398 C400 1.389 . S
C399 H378 0.950 . S
C399 C398 1.373 . S
C399 C415 1.377 . S
C400 C398 1.389 . S
C400 C401 1.524 . S
C400 C414 1.377 . S
C401 C400 1.524 . S
C401 C402 1.397 . S
C401 C406 1.363 . S
C402 H379 0.950 . S
C402 C401 1.397 . S
C402 C403 1.334 1_455 S
C403 H380 0.950 . S
C403 C402 1.334 1_655 S
C403 C404 1.287 . S
C404 C403 1.287 . S
C404 C405 1.524 . S
C404 H423 0.913 . S
C405 H381 0.950 . S
C405 C404 1.524 . S
C405 C406 1.415 1_655 S
C406 H382 0.950 . S
C406 C401 1.363 . S
C406 C405 1.415 1_455 S
C407 H383 0.951 . S
C407 C408 1.366 . S
C407 C409 1.388 . S
C408 C407 1.366 . S
C408 C412 1.385 . S
C409 H384 0.951 . S
C409 C407 1.388 . S
C409 C410 1.366 . S
C410 C409 1.366 . S
C410 C411 1.414 . S
C410 C413 1.499 . S
C411 H385 0.950 . S
C411 C410 1.414 . S
C411 C412 1.374 . S
C412 H386 0.950 . S
C412 C408 1.385 . S
C412 C411 1.374 . S
C413 C410 1.499 . S
C413 C414 1.373 . S
C413 C415 1.389 . S
C414 H387 0.950 . S
C414 C400 1.377 . S
C414 C413 1.373 . S
C415 C399 1.377 . S
C415 C413 1.389 . S
C415 C416 1.524 . S
C416 C415 1.524 . S
C416 C417 1.397 . S
C416 C421 1.363 . S
C417 H388 0.950 . S
C417 C416 1.397 . S
C417 C418 1.334 . S
C418 H389 0.950 . S
C418 C417 1.334 . S
C418 C419 1.287 . S
C419 C418 1.287 . S
C419 C420 1.524 . S
C419 H422 0.999 . S
C420 H390 0.950 . S
C420 C419 1.524 . S
C420 C421 1.415 . S
C421 H391 0.950 . S
C421 C416 1.363 . S
C421 C420 1.415 . S
H422 C419 0.999 . S
H423 C404 0.913 . S
H424 C442 0.951 . S
H425 C444 0.951 1_554 S
H426 C446 0.950 . S
H427 C447 0.950 . S
H428 C449 0.950 . S
H429 C452 0.950 . S
H430 C453 0.950 . S
H431 C455 0.950 . S
H432 C456 0.950 . S
H433 C457 0.956 . S
H434 C459 0.951 . S
H435 C461 0.950 . S
H436 C462 0.950 . S
H437 C464 0.950 . S
H438 C467 0.950 . S
H439 C468 0.950 . S
H440 C470 0.950 . S
H441 C471 0.950 . S
C442 H424 0.951 . S
C442 C443 1.369 1_554 S
C442 C444 1.388 1_554 S
C443 C442 1.369 1_556 S
C443 C447 1.382 1_545 S
C444 H425 0.951 1_556 S
C444 C442 1.388 1_556 S
C444 C445 1.366 . S
C445 C444 1.366 . S
C445 C446 1.414 1_545 S
C445 C448 1.499 . S
C446 H426 0.950 . S
C446 C445 1.414 1_565 S
C446 C447 1.374 . S
C447 H427 0.950 . S
C447 C443 1.382 1_565 S
C447 C446 1.374 . S
C448 C445 1.499 . S
C448 C449 1.373 1_545 S
C448 C450 1.389 . S
C449 H428 0.950 . S
C449 C448 1.373 1_565 S
C449 C465 1.377 . S
C450 C448 1.389 . S
C450 C451 1.524 . S
C450 C464 1.377 . S
C451 C450 1.524 . S
C451 C452 1.397 . S
C451 C456 1.363 . S
C452 H429 0.950 . S
C452 C451 1.397 . S
C452 C453 1.334 . S
C453 H430 0.950 . S
C453 C452 1.334 . S
C453 C454 1.287 . S
C454 C453 1.287 . S
C454 C455 1.524 1_556 S
C454 H473 0.913 1_556 S
C455 H431 0.950 . S
C455 C454 1.524 1_554 S
C455 C456 1.415 1_554 S
C456 H432 0.950 . S
C456 C451 1.363 . S
C456 C455 1.415 1_556 S
C457 H433 0.956 . S
C457 C458 1.361 1_565 S
C457 C459 1.388 . S
C458 C457 1.361 1_545 S
C458 C462 1.385 . S
C459 H434 0.951 . S
C459 C457 1.388 . S
C459 C460 1.366 1_565 S
C460 C459 1.366 1_545 S
C460 C461 1.414 . S
C460 C463 1.499 . S
C461 H435 0.950 . S
C461 C460 1.414 . S
C461 C462 1.374 . S
C462 H436 0.950 . S
C462 C458 1.385 . S
C462 C461 1.374 . S
C463 C460 1.499 . S
C463 C464 1.420 . S
C463 C465 1.348 1_545 S
C464 H437 0.950 . S
C464 C450 1.377 . S
C464 C463 1.420 . S
C465 C449 1.377 . S
C465 C463 1.348 1_565 S
C465 C466 1.524 . S
C466 C465 1.524 . S
C466 C467 1.397 . S
C466 C471 1.363 . S
C467 H438 0.950 . S
C467 C466 1.397 . S
C467 C468 1.334 . S
C468 H439 0.950 . S
C468 C467 1.334 . S
C468 C469 1.287 . S
C469 C468 1.287 . S
C469 C470 1.524 . S
C469 H472 0.999 . S
C470 H440 0.950 . S
C470 C469 1.524 . S
C470 C471 1.415 . S
C471 H441 0.950 . S
C471 C466 1.363 . S
C471 C470 1.415 . S
H472 C469 0.999 . S
H473 C454 0.913 1_554 S
H474 C492 0.951 . S
H475 C494 0.951 . S
H476 C496 0.950 . S
H477 C497 0.950 . S
H478 C499 0.950 . S
H479 C502 0.950 . S
H480 C503 0.950 . S
H481 C505 0.950 . S
H482 C506 0.950 . S
H483 C507 0.951 . S
H484 C509 0.951 . S
H485 C511 0.950 . S
H486 C512 0.950 . S
H487 C514 0.950 . S
H488 C517 0.950 . S
H489 C518 0.950 . S
H490 C520 0.950 . S
H491 C521 0.952 . S
C492 H474 0.951 . S
C492 C493 1.366 1_556 S
C492 C494 1.388 . S
C493 C492 1.366 1_554 S
C493 C497 1.385 . S
C494 H475 0.951 . S
C494 C492 1.388 . S
C494 C495 1.366 . S
C495 C494 1.366 . S
C495 C496 1.414 . S
C495 C498 1.499 . S
C496 H476 0.950 . S
C496 C495 1.414 . S
C496 C497 1.374 1_556 S
C497 H477 0.950 . S
C497 C493 1.385 . S
C497 C496 1.374 1_554 S
C498 C495 1.499 . S
C498 C499 1.373 . S
C498 C500 1.389 . S
C499 H478 0.950 . S
C499 C498 1.373 . S
C499 C515 1.377 . S
C500 C498 1.389 . S
C500 C501 1.524 . S
C500 C514 1.377 . S
C501 C500 1.524 . S
C501 C502 1.397 . S
C501 C506 1.363 . S
C502 H479 0.950 . S
C502 C501 1.397 . S
C502 C503 1.334 . S
C503 H480 0.950 . S
C503 C502 1.334 . S
C503 C504 1.287 . S
C504 C503 1.287 . S
C504 C505 1.524 . S
C504 H523 0.913 . S
C505 H481 0.950 . S
C505 C504 1.524 . S
C505 C506 1.415 . S
C506 H482 0.950 . S
C506 C501 1.363 . S
C506 C505 1.415 . S
C507 H483 0.951 . S
C507 C508 1.366 . S
C507 C509 1.388 . S
C508 C507 1.366 . S
C508 C512 1.385 . S
C509 H484 0.951 . S
C509 C507 1.388 . S
C509 C510 1.366 . S
C510 C509 1.366 . S
C510 C511 1.414 . S
C510 C513 1.499 . S
C511 H485 0.950 . S
C511 C510 1.414 . S
C511 C512 1.374 . S
C512 H486 0.950 . S
C512 C508 1.385 . S
C512 C511 1.374 . S
C513 C510 1.499 . S
C513 C514 1.373 . S
C513 C515 1.389 . S
C514 H487 0.950 . S
C514 C500 1.377 . S
C514 C513 1.373 . S
C515 C499 1.377 . S
C515 C513 1.389 . S
C515 C516 1.524 . S
C516 C515 1.524 . S
C516 C517 1.397 . S
C516 C521 1.363 1_556 S
C517 H488 0.950 . S
C517 C516 1.397 . S
C517 C518 1.334 1_556 S
C518 H489 0.950 . S
C518 C517 1.334 1_554 S
C518 C519 1.287 . S
C519 C518 1.287 . S
C519 C520 1.524 . S
C519 H522 0.999 . S
C520 H490 0.950 . S
C520 C519 1.524 . S
C520 C521 1.415 . S
C521 H491 0.952 . S
C521 C516 1.363 1_554 S
C521 C520 1.415 . S
H522 C519 0.999 . S
H523 C504 0.913 . S
H524 C542 0.951 . S
H525 C544 0.951 . S
H526 C546 0.950 . S
H527 C547 0.957 . S
H528 C549 0.950 . S
H529 C552 0.950 1_556 S
H530 C553 0.950 . S
H531 C555 0.950 . S
H532 C556 0.950 . S
H533 C557 0.951 . S
H534 C559 0.951 . S
H535 C561 0.950 . S
H536 C562 0.950 . S
H537 C564 0.950 . S
H538 C567 0.950 . S
H539 C568 0.950 . S
H540 C570 0.950 . S
H541 C571 0.950 . S
C542 H524 0.951 . S
C542 C543 1.366 . S
C542 C544 1.388 . S
C543 C542 1.366 . S
C543 C547 1.367 1_554 S
C544 H525 0.951 . S
C544 C542 1.388 . S
C544 C545 1.366 1_554 S
C545 C544 1.366 1_556 S
C545 C546 1.414 . S
C545 C548 1.499 . S
C546 H526 0.950 . S
C546 C545 1.414 . S
C546 C547 1.384 . S
C547 H527 0.957 . S
C547 C543 1.367 1_556 S
C547 C546 1.384 . S
C548 C545 1.499 . S
C548 C549 1.373 . S
C548 C550 1.389 . S
C549 H528 0.950 . S
C549 C548 1.373 . S
C549 C565 1.377 . S
C550 C548 1.389 . S
C550 C551 1.524 1_556 S
C550 C564 1.377 . S
C551 C550 1.524 1_554 S
C551 C552 1.397 . S
C551 C556 1.363 . S
C552 H529 0.950 1_554 S
C552 C551 1.397 . S
C552 C553 1.334 . S
C553 H530 0.950 . S
C553 C552 1.334 . S
C553 C554 1.287 . S
C554 C553 1.287 . S
C554 C555 1.524 . S
C554 H573 0.913 . S
C555 H531 0.950 . S
C555 C554 1.524 . S
C555 C556 1.415 . S
C556 H532 0.950 . S
C556 C551 1.363 . S
C556 C555 1.415 . S
C557 H533 0.951 . S
C557 C558 1.366 . S
C557 C559 1.388 . S
C558 C557 1.366 . S
C558 C562 1.385 . S
C559 H534 0.951 . S
C559 C557 1.388 . S
C559 C560 1.366 . S
C560 C559 1.366 . S
C560 C561 1.414 . S
C560 C563 1.499 . S
C561 H535 0.950 . S
C561 C560 1.414 . S
C561 C562 1.374 . S
C562 H536 0.950 . S
C562 C558 1.385 . S
C562 C561 1.374 . S
C563 C560 1.499 . S
C563 C564 1.373 . S
C563 C565 1.389 . S
C564 H537 0.950 . S
C564 C550 1.377 . S
C564 C563 1.373 . S
C565 C549 1.377 . S
C565 C563 1.389 . S
C565 C566 1.524 . S
C566 C565 1.524 . S
C566 C567 1.397 . S
C566 C571 1.363 . S
C567 H538 0.950 . S
C567 C566 1.397 . S
C567 C568 1.334 . S
C568 H539 0.950 . S
C568 C567 1.334 . S
C568 C569 1.287 . S
C569 C568 1.287 . S
C569 C570 1.524 . S
C569 H572 0.999 . S
C570 H540 0.950 . S
C570 C569 1.524 . S
C570 C571 1.415 . S
C571 H541 0.950 . S
C571 C566 1.363 . S
C571 C570 1.415 . S
H572 C569 0.999 . S
H573 C554 0.913 . S
H574 C592 0.951 1_554 S
H575 C594 0.951 . S
H576 C596 0.950 . S
H577 C597 0.950 . S
H578 C599 0.950 . S
H579 C602 0.950 . S
H580 C603 0.950 . S
H581 C605 0.950 1_554 S
H582 C606 0.950 . S
H583 C607 0.958 . S
H584 C609 0.951 . S
H585 C611 0.950 . S
H586 C612 0.950 . S
H587 C614 0.950 . S
H588 C617 0.950 . S
H589 C618 0.950 . S
H590 C620 0.950 . S
H591 C621 0.950 . S
C592 H574 0.951 1_556 S
C592 C593 1.366 . S
C592 C594 1.388 . S
C593 C592 1.366 . S
C593 C597 1.385 . S
C594 H575 0.951 . S
C594 C592 1.388 . S
C594 C595 1.366 . S
C595 C594 1.366 . S
C595 C596 1.414 . S
C595 C598 1.499 . S
C596 H576 0.950 . S
C596 C595 1.414 . S
C596 C597 1.374 . S
C597 H577 0.950 . S
C597 C593 1.385 . S
C597 C596 1.374 . S
C598 C595 1.499 . S
C598 C599 1.373 . S
C598 C600 1.389 1_655 S
C599 H578 0.950 . S
C599 C598 1.373 . S
C599 C615 1.377 . S
C600 C598 1.389 1_455 S
C600 C601 1.524 . S
C600 C614 1.377 . S
C601 C600 1.524 . S
C601 C602 1.397 . S
C601 C606 1.363 . S
C602 H579 0.950 . S
C602 C601 1.397 . S
C602 C603 1.334 . S
C603 H580 0.950 . S
C603 C602 1.334 . S
C603 C604 1.287 . S
C604 C603 1.287 . S
C604 C605 1.524 . S
C604 H623 0.913 . S
C605 H581 0.950 1_556 S
C605 C604 1.524 . S
C605 C606 1.415 . S
C606 H582 0.950 . S
C606 C601 1.363 . S
C606 C605 1.415 . S
C607 H583 0.958 . S
C607 C608 1.353 1_655 S
C607 C609 1.396 . S
C608 C607 1.353 1_455 S
C608 C612 1.385 . S
C609 H584 0.951 . S
C609 C607 1.396 . S
C609 C610 1.366 . S
C610 C609 1.366 . S
C610 C611 1.414 1_655 S
C610 C613 1.499 . S
C611 H585 0.950 . S
C611 C610 1.414 1_455 S
C611 C612 1.374 . S
C612 H586 0.950 . S
C612 C608 1.385 . S
C612 C611 1.374 . S
C613 C610 1.499 . S
C613 C614 1.373 1_655 S
C613 C615 1.389 . S
C614 H587 0.950 . S
C614 C600 1.377 . S
C614 C613 1.373 1_455 S
C615 C599 1.377 . S
C615 C613 1.389 . S
C615 C616 1.524 . S
C616 C615 1.524 . S
C616 C617 1.397 . S
C616 C621 1.363 . S
C617 H588 0.950 . S
C617 C616 1.397 . S
C617 C618 1.334 . S
C618 H589 0.950 . S
C618 C617 1.334 . S
C618 C619 1.287 . S
C619 C618 1.287 . S
C619 C620 1.524 . S
C619 H622 0.999 . S
C620 H590 0.950 . S
C620 C619 1.524 . S
C620 C621 1.415 . S
C621 H591 0.950 . S
C621 C616 1.363 . S
C621 C620 1.415 . S
H622 C619 0.999 . S
H623 C604 0.913 . S
H624 C642 0.951 . S
H625 C644 0.951 . S
H626 C646 0.950 . S
H627 C647 0.950 . S
H628 C649 0.950 . S
H629 C652 0.950 . S
H630 C653 0.950 . S
H631 C655 0.950 . S
H632 C656 0.950 . S
H633 C657 0.951 . S
H634 C659 0.951 . S
H635 C661 0.950 . S
H636 C662 0.950 1_655 S
H637 C664 0.950 . S
H638 C667 0.950 . S
H639 C668 0.950 1_655 S
H640 C670 0.950 . S
H641 C671 0.950 . S
C642 H624 0.951 . S
C642 C643 1.366 . S
C642 C644 1.388 . S
C643 C642 1.366 . S
C643 C647 1.385 . S
C644 H625 0.951 . S
C644 C642 1.388 . S
C644 C645 1.366 . S
C645 C644 1.366 . S
C645 C646 1.414 . S
C645 C648 1.499 . S
C646 H626 0.950 . S
C646 C645 1.414 . S
C646 C647 1.374 . S
C647 H627 0.950 . S
C647 C643 1.385 . S
C647 C646 1.374 . S
C648 C645 1.499 . S
C648 C649 1.373 . S
C648 C650 1.389 . S
C649 H628 0.950 . S
C649 C648 1.373 . S
C649 C665 1.377 . S
C650 C648 1.389 . S
C650 C651 1.524 . S
C650 C664 1.377 . S
C651 C650 1.524 . S
C651 C652 1.397 . S
C651 C656 1.363 . S
C652 H629 0.950 . S
C652 C651 1.397 . S
C652 C653 1.334 . S
C653 H630 0.950 . S
C653 C652 1.334 . S
C653 C654 1.287 . S
C654 C653 1.287 . S
C654 C655 1.524 . S
C654 H673 0.913 . S
C655 H631 0.950 . S
C655 C654 1.524 . S
C655 C656 1.415 . S
C656 H632 0.950 . S
C656 C651 1.363 . S
C656 C655 1.415 . S
C657 H633 0.951 . S
C657 C658 1.366 . S
C657 C659 1.388 . S
C658 C657 1.366 . S
C658 C662 1.385 . S
C659 H634 0.951 . S
C659 C657 1.388 . S
C659 C660 1.366 . S
C660 C659 1.366 . S
C660 C661 1.414 . S
C660 C663 1.499 . S
C661 H635 0.950 . S
C661 C660 1.414 . S
C661 C662 1.374 . S
C662 H636 0.950 1_455 S
C662 C658 1.385 . S
C662 C661 1.374 . S
C663 C660 1.499 . S
C663 C664 1.373 . S
C663 C665 1.389 . S
C664 H637 0.950 . S
C664 C650 1.377 . S
C664 C663 1.373 . S
C665 C649 1.377 . S
C665 C663 1.389 . S
C665 C666 1.524 . S
C666 C665 1.524 . S
C666 C667 1.397 . S
C666 C671 1.363 . S
C667 H638 0.950 . S
C667 C666 1.397 . S
C667 C668 1.334 . S
C668 H639 0.950 1_455 S
C668 C667 1.334 . S
C668 C669 1.287 . S
C669 C668 1.287 . S
C669 C670 1.524 . S
C669 H672 0.999 . S
C670 H640 0.950 . S
C670 C669 1.524 . S
C670 C671 1.415 . S
C671 H641 0.950 . S
C671 C666 1.363 . S
C671 C670 1.415 . S
H672 C669 0.999 . S
H673 C654 0.913 . S
H674 C692 0.951 . S
H675 C694 0.951 . S
H676 C696 0.950 . S
H677 C697 0.950 . S
H678 C699 0.950 . S
H679 C702 0.950 . S
H680 C703 0.950 . S
H681 C705 0.950 . S
H682 C706 0.950 . S
H683 C707 0.951 . S
H684 C709 0.951 . S
H685 C711 0.950 . S
H686 C712 0.950 . S
H687 C714 0.950 . S
H688 C717 0.950 1_565 S
H689 C718 0.950 . S
H690 C720 0.950 . S
H691 C721 0.950 . S
C692 H674 0.951 . S
C692 C693 1.364 1_565 S
C692 C694 1.388 . S
C693 C692 1.364 1_545 S
C693 C697 1.387 . S
C694 H675 0.951 . S
C694 C692 1.388 . S
C694 C695 1.366 . S
C695 C694 1.366 . S
C695 C696 1.414 1_565 S
C695 C698 1.499 . S
C696 H676 0.950 . S
C696 C695 1.414 1_545 S
C696 C697 1.374 . S
C697 H677 0.950 . S
C697 C693 1.387 . S
C697 C696 1.374 . S
C698 C695 1.499 . S
C698 C699 1.373 1_565 S
C698 C700 1.389 . S
C699 H678 0.950 . S
C699 C698 1.373 1_545 S
C699 C715 1.377 . S
C700 C698 1.389 . S
C700 C701 1.524 . S
C700 C714 1.377 . S
C701 C700 1.524 . S
C701 C702 1.397 . S
C701 C706 1.363 . S
C702 H679 0.950 . S
C702 C701 1.397 . S
C702 C703 1.334 . S
C703 H680 0.950 . S
C703 C702 1.334 . S
C703 C704 1.287 . S
C704 C703 1.287 . S
C704 C705 1.524 . S
C704 H723 0.913 . S
C705 H681 0.950 . S
C705 C704 1.524 . S
C705 C706 1.415 . S
C706 H682 0.950 . S
C706 C701 1.363 . S
C706 C705 1.415 . S
C707 H683 0.951 . S
C707 C708 1.366 1_545 S
C707 C709 1.388 . S
C708 C707 1.366 1_565 S
C708 C712 1.385 . S
C709 H684 0.951 . S
C709 C707 1.388 . S
C709 C710 1.366 1_545 S
C710 C709 1.366 1_565 S
C710 C711 1.414 . S
C710 C713 1.499 . S
C711 H685 0.950 . S
C711 C710 1.414 . S
C711 C712 1.374 . S
C712 H686 0.950 . S
C712 C708 1.385 . S
C712 C711 1.374 . S
C713 C710 1.499 . S
C713 C714 1.373 . S
C713 C715 1.389 1_565 S
C714 H687 0.950 . S
C714 C700 1.377 . S
C714 C713 1.373 . S
C715 C699 1.377 . S
C715 C713 1.389 1_545 S
C715 C716 1.524 . S
C716 C715 1.524 . S
C716 C717 1.397 . S
C716 C721 1.363 . S
C717 H688 0.950 1_545 S
C717 C716 1.397 . S
C717 C718 1.334 . S
C718 H689 0.950 . S
C718 C717 1.334 . S
C718 C719 1.287 . S
C719 C718 1.287 . S
C719 C720 1.524 . S
C719 H722 0.999 . S
C720 H690 0.950 . S
C720 C719 1.524 . S
C720 C721 1.415 . S
C721 H691 0.950 . S
C721 C716 1.363 . S
C721 C720 1.415 . S
H722 C719 0.999 . S
H723 C704 0.913 . S
H724 C742 0.951 . S
H725 C744 0.951 . S
H726 C746 0.950 . S
H727 C747 0.950 . S
H728 C749 0.950 . S
H729 C752 0.950 . S
H730 C753 0.950 . S
H731 C755 0.950 . S
H732 C756 0.950 . S
H733 C757 0.951 . S
H734 C759 0.951 . S
H735 C761 0.950 . S
H736 C762 0.950 . S
H737 C764 0.950 . S
H738 C767 0.950 . S
H739 C768 0.950 . S
H740 C770 0.950 . S
H741 C771 0.950 . S
C742 H724 0.951 . S
C742 C743 1.366 . S
C742 C744 1.388 . S
C743 C742 1.366 . S
C743 C747 1.385 . S
C744 H725 0.951 . S
C744 C742 1.388 . S
C744 C745 1.366 . S
C745 C744 1.366 . S
C745 C746 1.414 . S
C745 C748 1.499 . S
C746 H726 0.950 . S
C746 C745 1.414 . S
C746 C747 1.374 . S
C747 H727 0.950 . S
C747 C743 1.385 . S
C747 C746 1.374 . S
C748 C745 1.499 . S
C748 C749 1.373 . S
C748 C750 1.389 . S
C749 H728 0.950 . S
C749 C748 1.373 . S
C749 C765 1.377 . S
C750 C748 1.389 . S
C750 C751 1.524 . S
C750 C764 1.377 . S
C751 C750 1.524 . S
C751 C752 1.397 . S
C751 C756 1.363 . S
C752 H729 0.950 . S
C752 C751 1.397 . S
C752 C753 1.334 . S
C753 H730 0.950 . S
C753 C752 1.334 . S
C753 C754 1.287 . S
C754 C753 1.287 . S
C754 C755 1.524 . S
C754 H773 0.913 . S
C755 H731 0.950 . S
C755 C754 1.524 . S
C755 C756 1.415 . S
C756 H732 0.950 . S
C756 C751 1.363 . S
C756 C755 1.415 . S
C757 H733 0.951 . S
C757 C758 1.366 . S
C757 C759 1.388 . S
C758 C757 1.366 . S
C758 C762 1.385 . S
C759 H734 0.951 . S
C759 C757 1.388 . S
C759 C760 1.366 . S
C760 C759 1.366 . S
C760 C761 1.414 . S
C760 C763 1.499 . S
C761 H735 0.950 . S
C761 C760 1.414 . S
C761 C762 1.374 . S
C762 H736 0.950 . S
C762 C758 1.385 . S
C762 C761 1.374 . S
C763 C760 1.499 . S
C763 C764 1.373 . S
C763 C765 1.389 . S
C764 H737 0.950 . S
C764 C750 1.377 . S
C764 C763 1.373 . S
C765 C749 1.377 . S
C765 C763 1.389 . S
C765 C766 1.524 . S
C766 C765 1.524 . S
C766 C767 1.397 . S
C766 C771 1.363 . S
C767 H738 0.950 . S
C767 C766 1.397 . S
C767 C768 1.334 . S
C768 H739 0.950 . S
C768 C767 1.334 . S
C768 C769 1.287 . S
C769 C768 1.287 . S
C769 C770 1.524 . S
C769 H772 0.999 . S
C770 H740 0.950 . S
C770 C769 1.524 . S
C770 C771 1.415 . S
C771 H741 0.950 . S
C771 C766 1.363 . S
C771 C770 1.415 . S
H772 C769 0.999 . S
H773 C754 0.913 . S
H774 C792 0.951 . S
H775 C794 0.951 . S
H776 C796 0.950 . S
H777 C797 0.950 . S
H778 C799 0.950 . S
H779 C802 0.950 . S
H780 C803 0.950 . S
H781 C805 0.950 . S
H782 C806 0.950 . S
H783 C807 0.951 . S
H784 C809 0.951 . S
H785 C811 0.950 . S
H786 C812 0.950 . S
H787 C814 0.950 . S
H788 C817 0.950 . S
H789 C818 0.950 . S
H790 C820 0.950 . S
H791 C821 0.950 . S
C792 H774 0.951 . S
C792 C793 1.366 . S
C792 C794 1.388 . S
C793 C792 1.366 . S
C793 C797 1.385 . S
C794 H775 0.951 . S
C794 C792 1.388 . S
C794 C795 1.366 . S
C795 C794 1.366 . S
C795 C796 1.414 . S
C795 C798 1.499 . S
C796 H776 0.950 . S
C796 C795 1.414 . S
C796 C797 1.374 . S
C797 H777 0.950 . S
C797 C793 1.385 . S
C797 C796 1.374 . S
C798 C795 1.499 . S
C798 C799 1.373 . S
C798 C800 1.389 . S
C799 H778 0.950 . S
C799 C798 1.373 . S
C799 C815 1.377 . S
C800 C798 1.389 . S
C800 C801 1.524 . S
C800 C814 1.377 . S
C801 C800 1.524 . S
C801 C802 1.397 . S
C801 C806 1.363 . S
C802 H779 0.950 . S
C802 C801 1.397 . S
C802 C803 1.334 . S
C803 H780 0.950 . S
C803 C802 1.334 . S
C803 C804 1.287 . S
C804 C803 1.287 . S
C804 C805 1.524 . S
C804 H823 0.913 . S
C805 H781 0.950 . S
C805 C804 1.524 . S
C805 C806 1.415 . S
C806 H782 0.950 . S
C806 C801 1.363 . S
C806 C805 1.415 . S
C807 H783 0.951 . S
C807 C808 1.366 . S
C807 C809 1.388 . S
C808 C807 1.366 . S
C808 C812 1.385 . S
C809 H784 0.951 . S
C809 C807 1.388 . S
C809 C810 1.366 . S
C810 C809 1.366 . S
C810 C811 1.414 . S
C810 C813 1.499 . S
C811 H785 0.950 . S
C811 C810 1.414 . S
C811 C812 1.374 . S
C812 H786 0.950 . S
C812 C808 1.385 . S
C812 C811 1.374 . S
C813 C810 1.499 . S
C813 C814 1.373 . S
C813 C815 1.389 . S
C814 H787 0.950 . S
C814 C800 1.377 . S
C814 C813 1.373 . S
C815 C799 1.377 . S
C815 C813 1.389 . S
C815 C816 1.524 . S
C816 C815 1.524 . S
C816 C817 1.397 . S
C816 C821 1.363 . S
C817 H788 0.950 . S
C817 C816 1.397 . S
C817 C818 1.334 . S
C818 H789 0.950 . S
C818 C817 1.334 . S
C818 C819 1.287 . S
C819 C818 1.287 . S
C819 C820 1.524 . S
C819 H822 0.999 . S
C820 H790 0.950 . S
C820 C819 1.524 . S
C820 C821 1.415 . S
C821 H791 0.950 . S
C821 C816 1.363 . S
C821 C820 1.415 . S
H822 C819 0.999 . S
H823 C804 0.913 . S
H824 C842 0.951 . S
H825 C844 0.951 . S
H826 C846 0.950 1_455 S
H827 C847 0.941 1_455 S
H828 C849 0.950 . S
H829 C852 0.950 . S
H830 C853 0.950 . S
H831 C855 0.950 . S
H832 C856 0.950 . S
H833 C857 0.951 . S
H834 C859 0.951 . S
H835 C861 0.950 . S
H836 C862 0.950 . S
H837 C864 0.950 . S
H838 C867 0.950 . S
H839 C868 0.950 . S
H840 C870 0.950 . S
H841 C871 0.950 . S
C842 H824 0.951 . S
C842 C843 1.366 . S
C842 C844 1.388 . S
C843 C842 1.366 . S
C843 C847 1.385 . S
C844 H825 0.951 . S
C844 C842 1.388 . S
C844 C845 1.366 . S
C845 C844 1.366 . S
C845 C846 1.414 . S
C845 C848 1.499 . S
C846 H826 0.950 1_655 S
C846 C845 1.414 . S
C846 C847 1.374 . S
C847 H827 0.941 1_655 S
C847 C843 1.385 . S
C847 C846 1.374 . S
C848 C845 1.499 . S
C848 C849 1.373 1_655 S
C848 C850 1.389 . S
C849 H828 0.950 . S
C849 C848 1.373 1_455 S
C849 C865 1.377 . S
C850 C848 1.389 . S
C850 C851 1.524 . S
C850 C864 1.377 . S
C851 C850 1.524 . S
C851 C852 1.397 . S
C851 C856 1.363 . S
C852 H829 0.950 . S
C852 C851 1.397 . S
C852 C853 1.334 . S
C853 H830 0.950 . S
C853 C852 1.334 . S
C853 C854 1.287 . S
C854 C853 1.287 . S
C854 C855 1.524 . S
C854 H873 0.913 . S
C855 H831 0.950 . S
C855 C854 1.524 . S
C855 C856 1.415 . S
C856 H832 0.950 . S
C856 C851 1.363 . S
C856 C855 1.415 . S
C857 H833 0.951 . S
C857 C858 1.366 . S
C857 C859 1.388 . S
C858 C857 1.366 . S
C858 C862 1.385 1_455 S
C859 H834 0.951 . S
C859 C857 1.388 . S
C859 C860 1.366 . S
C860 C859 1.366 . S
C860 C861 1.414 1_455 S
C860 C863 1.488 1_455 S
C861 H835 0.950 . S
C861 C860 1.414 1_655 S
C861 C862 1.374 . S
C862 H836 0.950 . S
C862 C858 1.385 1_655 S
C862 C861 1.374 . S
C863 C860 1.488 1_655 S
C863 C864 1.404 . S
C863 C865 1.369 1_655 S
C864 H837 0.950 . S
C864 C850 1.377 . S
C864 C863 1.404 . S
C865 C849 1.377 . S
C865 C863 1.369 1_455 S
C865 C866 1.524 . S
C866 C865 1.524 . S
C866 C867 1.397 . S
C866 C871 1.363 . S
C867 H838 0.950 . S
C867 C866 1.397 . S
C867 C868 1.334 . S
C868 H839 0.950 . S
C868 C867 1.334 . S
C868 C869 1.287 . S
C869 C868 1.287 . S
C869 C870 1.524 . S
C869 H872 0.999 1_556 S
C870 H840 0.950 . S
C870 C869 1.524 . S
C870 C871 1.415 . S
C871 H841 0.950 . S
C871 C866 1.363 . S
C871 C870 1.415 . S
H872 C869 0.999 1_554 S
H873 C854 0.913 . S
H874 C892 0.951 . S
H875 C894 0.951 . S
H876 C896 0.950 . S
H877 C897 0.950 . S
H878 C899 0.950 . S
H879 C902 0.950 . S
H880 C903 0.950 . S
H881 C905 0.950 . S
H882 C906 0.950 . S
H883 C907 0.951 . S
H884 C909 0.951 . S
H885 C911 0.950 . S
H886 C912 0.950 . S
H887 C914 0.950 . S
H888 C917 0.950 . S
H889 C918 0.950 . S
H890 C920 0.950 . S
H891 C921 0.950 . S
C892 H874 0.951 . S
C892 C893 1.368 1_566 S
C892 C894 1.388 . S
C893 C892 1.368 1_544 S
C893 C897 1.382 . S
C894 H875 0.951 . S
C894 C892 1.388 . S
C894 C895 1.366 1_565 S
C895 C894 1.366 1_545 S
C895 C896 1.414 . S
C895 C898 1.499 . S
C896 H876 0.950 . S
C896 C895 1.414 . S
C896 C897 1.374 1_556 S
C897 H877 0.950 . S
C897 C893 1.382 . S
C897 C896 1.374 1_554 S
C898 C895 1.499 . S
C898 C899 1.373 . S
C898 C900 1.389 1_545 S
C899 H878 0.950 . S
C899 C898 1.373 . S
C899 C915 1.377 . S
C900 C898 1.389 1_565 S
C900 C901 1.524 . S
C900 C914 1.377 . S
C901 C900 1.524 . S
C901 C902 1.397 1_565 S
C901 C906 1.363 . S
C902 H879 0.950 . S
C902 C901 1.397 1_545 S
C902 C903 1.334 . S
C903 H880 0.950 . S
C903 C902 1.334 . S
C903 C904 1.287 1_545 S
C904 C903 1.287 1_565 S
C904 C905 1.524 . S
C904 H923 0.913 . S
C905 H881 0.950 . S
C905 C904 1.524 . S
C905 C906 1.415 . S
C906 H882 0.950 . S
C906 C901 1.363 . S
C906 C905 1.415 . S
C907 H883 0.951 . S
C907 C908 1.366 . S
C907 C909 1.388 . S
C908 C907 1.366 . S
C908 C912 1.385 1_545 S
C909 H884 0.951 . S
C909 C907 1.388 . S
C909 C910 1.366 . S
C910 C909 1.366 . S
C910 C911 1.414 1_545 S
C910 C913 1.499 . S
C911 H885 0.950 . S
C911 C910 1.414 1_565 S
C911 C912 1.374 . S
C912 H886 0.950 . S
C912 C908 1.385 1_565 S
C912 C911 1.374 . S
C913 C910 1.499 . S
C913 C914 1.373 1_545 S
C913 C915 1.389 . S
C914 H887 0.950 . S
C914 C900 1.377 . S
C914 C913 1.373 1_565 S
C915 C899 1.377 . S
C915 C913 1.389 . S
C915 C916 1.524 . S
C916 C915 1.524 . S
C916 C917 1.397 1_545 S
C916 C921 1.363 . S
C917 H888 0.950 . S
C917 C916 1.397 1_565 S
C917 C918 1.334 1_556 S
C918 H889 0.950 . S
C918 C917 1.334 1_554 S
C918 C919 1.287 1_565 S
C919 C918 1.287 1_545 S
C919 C920 1.524 . S
C919 H922 0.999 . S
C920 H890 0.950 . S
C920 C919 1.524 . S
C920 C921 1.415 1_554 S
C921 H891 0.950 . S
C921 C916 1.363 . S
C921 C920 1.415 1_556 S
H922 C919 0.999 . S
H923 C904 0.913 . S
H924 C942 0.951 . S
H925 C944 0.951 . S
H926 C946 0.950 . S
H927 C947 0.950 . S
H928 C949 0.950 . S
H929 C952 0.950 . S
H930 C953 0.950 . S
H931 C955 0.950 . S
H932 C956 0.950 . S
H933 C957 0.951 . S
H934 C959 0.951 . S
H935 C961 0.950 . S
H936 C962 0.950 . S
H937 C964 0.950 . S
H938 C967 0.950 . S
H939 C968 0.950 . S
H940 C970 0.950 . S
H941 C971 0.950 . S
C942 H924 0.951 . S
C942 C943 1.366 . S
C942 C944 1.388 1_554 S
C943 C942 1.366 . S
C943 C947 1.385 1_554 S
C944 H925 0.951 . S
C944 C942 1.388 1_556 S
C944 C945 1.366 . S
C945 C944 1.366 . S
C945 C946 1.414 . S
C945 C948 1.499 . S
C946 H926 0.950 . S
C946 C945 1.414 . S
C946 C947 1.374 . S
C947 H927 0.950 . S
C947 C943 1.385 1_556 S
C947 C946 1.374 . S
C948 C945 1.499 . S
C948 C949 1.373 . S
C948 C950 1.389 . S
C949 H928 0.950 . S
C949 C948 1.373 . S
C949 C965 1.377 . S
C950 C948 1.389 . S
C950 C951 1.524 . S
C950 C964 1.377 . S
C951 C950 1.524 . S
C951 C952 1.397 . S
C951 C956 1.363 . S
C952 H929 0.950 . S
C952 C951 1.397 . S
C952 C953 1.334 . S
C953 H930 0.950 . S
C953 C952 1.334 . S
C953 C954 1.287 . S
C954 C953 1.287 . S
C954 C955 1.524 . S
C954 H973 0.913 . S
C955 H931 0.950 . S
C955 C954 1.524 . S
C955 C956 1.415 . S
C956 H932 0.950 . S
C956 C951 1.363 . S
C956 C955 1.415 . S
C957 H933 0.951 . S
C957 C958 1.366 . S
C957 C959 1.388 . S
C958 C957 1.366 . S
C958 C962 1.385 . S
C959 H934 0.951 . S
C959 C957 1.388 . S
C959 C960 1.366 . S
C960 C959 1.366 . S
C960 C961 1.414 . S
C960 C963 1.499 . S
C961 H935 0.950 . S
C961 C960 1.414 . S
C961 C962 1.374 . S
C962 H936 0.950 . S
C962 C958 1.385 . S
C962 C961 1.374 . S
C963 C960 1.499 . S
C963 C964 1.373 . S
C963 C965 1.389 . S
C964 H937 0.950 . S
C964 C950 1.377 . S
C964 C963 1.373 . S
C965 C949 1.377 . S
C965 C963 1.389 . S
C965 C966 1.524 . S
C966 C965 1.524 . S
C966 C967 1.397 . S
C966 C971 1.363 . S
C967 H938 0.950 . S
C967 C966 1.397 . S
C967 C968 1.334 . S
C968 H939 0.950 . S
C968 C967 1.334 . S
C968 C969 1.287 . S
C969 C968 1.287 . S
C969 C970 1.524 . S
C969 H972 0.999 . S
C970 H940 0.950 . S
C970 C969 1.524 . S
C970 C971 1.415 . S
C971 H941 0.950 . S
C971 C966 1.363 . S
C971 C970 1.415 . S
H972 C969 0.999 . S
H973 C954 0.913 . S
H974 C992 0.951 . S
H975 C994 0.951 . S
H976 C996 0.950 . S
H977 C997 0.950 . S
H978 C999 0.950 . S
H979 C1002 0.950 . S
H980 C1003 0.950 . S
H981 C1005 0.950 . S
H982 C1006 0.950 1_556 S
H983 C1007 0.951 . S
H984 C1009 0.951 . S
H985 C1011 0.950 . S
H986 C1012 0.950 . S
H987 C1014 0.950 . S
H988 C1017 0.950 . S
H989 C1018 0.950 . S
H990 C1020 0.950 . S
H991 C1021 0.950 . S
C992 H974 0.951 . S
C992 C993 1.366 . S
C992 C994 1.388 . S
C993 C992 1.366 . S
C993 C997 1.385 . S
C994 H975 0.951 . S
C994 C992 1.388 . S
C994 C995 1.366 1_554 S
C995 C994 1.366 1_556 S
C995 C996 1.414 1_556 S
C995 C998 1.499 . S
C996 H976 0.950 . S
C996 C995 1.414 1_554 S
C996 C997 1.374 . S
C997 H977 0.950 . S
C997 C993 1.385 . S
C997 C996 1.374 . S
C998 C995 1.499 . S
C998 C999 1.373 . S
C998 C1000 1.389 . S
C999 H978 0.950 . S
C999 C998 1.373 . S
C999 C1015 1.377 . S
C1000 C998 1.389 . S
C1000 C1001 1.524 1_556 S
C1000 C1014 1.377 . S
C1001 C1000 1.524 1_554 S
C1001 C1002 1.397 . S
C1001 C1006 1.363 . S
C1002 H979 0.950 . S
C1002 C1001 1.397 . S
C1002 C1003 1.334 . S
C1003 H980 0.950 . S
C1003 C1002 1.334 . S
C1003 C1004 1.287 . S
C1004 C1003 1.287 . S
C1004 C1005 1.524 . S
C1004 H1023 0.913 . S
C1005 H981 0.950 . S
C1005 C1004 1.524 . S
C1005 C1006 1.415 . S
C1006 H982 0.950 1_554 S
C1006 C1001 1.363 . S
C1006 C1005 1.415 . S
C1007 H983 0.951 . S
C1007 C1008 1.366 . S
C1007 C1009 1.388 . S
C1008 C1007 1.366 . S
C1008 C1012 1.385 . S
C1009 H984 0.951 . S
C1009 C1007 1.388 . S
C1009 C1010 1.366 . S
C1010 C1009 1.366 . S
C1010 C1011 1.414 . S
C1010 C1013 1.499 . S
C1011 H985 0.950 . S
C1011 C1010 1.414 . S
C1011 C1012 1.374 . S
C1012 H986 0.950 . S
C1012 C1008 1.385 . S
C1012 C1011 1.374 . S
C1013 C1010 1.499 . S
C1013 C1014 1.373 . S
C1013 C1015 1.389 . S
C1014 H987 0.950 . S
C1014 C1000 1.377 . S
C1014 C1013 1.373 . S
C1015 C999 1.377 . S
C1015 C1013 1.389 . S
C1015 C1016 1.524 . S
C1016 C1015 1.524 . S
C1016 C1017 1.397 . S
C1016 C1021 1.363 . S
C1017 H988 0.950 . S
C1017 C1016 1.397 . S
C1017 C1018 1.334 . S
C1018 H989 0.950 . S
C1018 C1017 1.334 . S
C1018 C1019 1.287 . S
C1019 C1018 1.287 . S
C1019 C1020 1.524 . S
C1019 H1022 0.999 . S
C1020 H990 0.950 . S
C1020 C1019 1.524 . S
C1020 C1021 1.415 . S
C1021 H991 0.950 . S
C1021 C1016 1.363 . S
C1021 C1020 1.415 . S
H1022 C1019 0.999 . S
H1023 C1004 0.913 . S
H1024 C1042 0.951 . S
H1025 C1044 0.951 . S
H1026 C1046 0.950 . S
H1027 C1047 0.950 . S
H1028 C1049 0.950 . S
H1029 C1052 0.950 . S
H1030 C1053 0.950 . S
H1031 C1055 0.950 . S
H1032 C1056 0.950 . S
H1033 C1057 0.951 . S
H1034 C1059 0.951 . S
H1035 C1061 0.950 . S
H1036 C1062 0.950 . S
H1037 C1064 0.950 . S
H1038 C1067 0.950 . S
H1039 C1068 0.950 . S
H1040 C1070 0.950 . S
H1041 C1071 0.950 . S
C1042 H1024 0.951 . S
C1042 C1043 1.366 . S
C1042 C1044 1.388 . S
C1043 C1042 1.366 . S
C1043 C1047 1.385 . S
C1044 H1025 0.951 . S
C1044 C1042 1.388 . S
C1044 C1045 1.366 . S
C1045 C1044 1.366 . S
C1045 C1046 1.414 . S
C1045 C1048 1.499 . S
C1046 H1026 0.950 . S
C1046 C1045 1.414 . S
C1046 C1047 1.374 . S
C1047 H1027 0.950 . S
C1047 C1043 1.385 . S
C1047 C1046 1.374 . S
C1048 C1045 1.499 . S
C1048 C1049 1.373 . S
C1048 C1050 1.389 . S
C1049 H1028 0.950 . S
C1049 C1048 1.373 . S
C1049 C1065 1.377 . S
C1050 C1048 1.389 . S
C1050 C1051 1.524 . S
C1050 C1064 1.377 . S
C1051 C1050 1.524 . S
C1051 C1052 1.397 . S
C1051 C1056 1.363 1_455 S
C1052 H1029 0.950 . S
C1052 C1051 1.397 . S
C1052 C1053 1.334 . S
C1053 H1030 0.950 . S
C1053 C1052 1.334 . S
C1053 C1054 1.287 1_455 S
C1054 C1053 1.287 1_655 S
C1054 C1055 1.524 . S
C1054 H1073 0.913 . S
C1055 H1031 0.950 . S
C1055 C1054 1.524 . S
C1055 C1056 1.415 . S
C1056 H1032 0.950 . S
C1056 C1051 1.363 1_655 S
C1056 C1055 1.415 . S
C1057 H1033 0.951 . S
C1057 C1058 1.366 . S
C1057 C1059 1.388 1_556 S
C1058 C1057 1.366 . S
C1058 C1062 1.385 . S
C1059 H1034 0.951 . S
C1059 C1057 1.388 1_554 S
C1059 C1060 1.366 . S
C1060 C1059 1.366 . S
C1060 C1061 1.414 1_554 S
C1060 C1063 1.499 . S
C1061 H1035 0.950 . S
C1061 C1060 1.414 1_556 S
C1061 C1062 1.374 . S
C1062 H1036 0.950 . S
C1062 C1058 1.385 . S
C1062 C1061 1.374 . S
C1063 C1060 1.499 . S
C1063 C1064 1.373 . S
C1063 C1065 1.389 . S
C1064 H1037 0.950 . S
C1064 C1050 1.377 . S
C1064 C1063 1.373 . S
C1065 C1049 1.377 . S
C1065 C1063 1.389 . S
C1065 C1066 1.524 . S
C1066 C1065 1.524 . S
C1066 C1067 1.397 1_554 S
C1066 C1071 1.363 . S
C1067 H1038 0.950 . S
C1067 C1066 1.397 1_556 S
C1067 C1068 1.334 . S
C1068 H1039 0.950 . S
C1068 C1067 1.334 . S
C1068 C1069 1.287 . S
C1069 C1068 1.287 . S
C1069 C1070 1.524 1_556 S
C1069 H1072 0.999 . S
C1070 H1040 0.950 . S
C1070 C1069 1.524 1_554 S
C1070 C1071 1.415 . S
C1071 H1041 0.950 . S
C1071 C1066 1.363 . S
C1071 C1070 1.415 . S
H1072 C1069 0.999 . S
H1073 C1054 0.913 . S
H1074 C1092 0.951 . S
H1075 C1094 0.951 . S
H1076 C1096 0.952 . S
H1077 C1097 0.952 . S
H1078 C1099 0.950 . S
H1079 C1102 0.950 . S
H1080 C1103 0.950 . S
H1081 C1105 0.950 . S
H1082 C1106 0.950 . S
H1083 C1107 0.951 . S
H1084 C1109 0.951 . S
H1085 C1111 0.950 . S
H1086 C1112 0.950 . S
H1087 C1114 0.950 . S
H1088 C1117 0.950 . S
H1089 C1118 0.950 . S
H1090 C1120 0.950 . S
H1091 C1121 0.950 . S
C1092 H1074 0.951 . S
C1092 C1093 1.366 . S
C1092 C1094 1.388 . S
C1093 C1092 1.366 . S
C1093 C1097 1.383 1_545 S
C1094 H1075 0.951 . S
C1094 C1092 1.388 . S
C1094 C1095 1.366 . S
C1095 C1094 1.366 . S
C1095 C1096 1.416 1_545 S
C1095 C1098 1.499 . S
C1096 H1076 0.952 . S
C1096 C1095 1.416 1_565 S
C1096 C1097 1.374 . S
C1097 H1077 0.952 . S
C1097 C1093 1.383 1_565 S
C1097 C1096 1.374 . S
C1098 C1095 1.499 . S
C1098 C1099 1.392 . S
C1098 C1100 1.372 1_545 S
C1099 H1078 0.950 . S
C1099 C1098 1.392 . S
C1099 C1115 1.377 . S
C1100 C1098 1.372 1_565 S
C1100 C1101 1.524 1_554 S
C1100 C1114 1.377 1_554 S
C1101 C1100 1.524 1_556 S
C1101 C1102 1.397 1_556 S
C1101 C1106 1.363 . S
C1102 H1079 0.950 . S
C1102 C1101 1.397 1_554 S
C1102 C1103 1.334 . S
C1103 H1080 0.950 . S
C1103 C1102 1.334 . S
C1103 C1104 1.287 1_554 S
C1104 C1103 1.287 1_556 S
C1104 C1105 1.524 . S
C1104 H1123 0.913 . S
C1105 H1081 0.950 . S
C1105 C1104 1.524 . S
C1105 C1106 1.415 . S
C1106 H1082 0.950 . S
C1106 C1101 1.363 . S
C1106 C1105 1.415 . S
C1107 H1083 0.951 . S
C1107 C1108 1.366 . S
C1107 C1109 1.388 . S
C1108 C1107 1.366 . S
C1108 C1112 1.385 . S
C1109 H1084 0.951 . S
C1109 C1107 1.388 . S
C1109 C1110 1.366 . S
C1110 C1109 1.366 . S
C1110 C1111 1.414 . S
C1110 C1113 1.499 . S
C1111 H1085 0.950 . S
C1111 C1110 1.414 . S
C1111 C1112 1.374 . S
C1112 H1086 0.950 . S
C1112 C1108 1.385 . S
C1112 C1111 1.374 . S
C1113 C1110 1.499 . S
C1113 C1114 1.373 1_545 S
C1113 C1115 1.389 1_556 S
C1114 H1087 0.950 . S
C1114 C1100 1.377 1_556 S
C1114 C1113 1.373 1_565 S
C1115 C1099 1.377 . S
C1115 C1113 1.389 1_554 S
C1115 C1116 1.524 . S
C1116 C1115 1.524 . S
C1116 C1117 1.397 1_554 S
C1116 C1121 1.363 . S
C1117 H1088 0.950 . S
C1117 C1116 1.397 1_556 S
C1117 C1118 1.334 . S
C1118 H1089 0.950 . S
C1118 C1117 1.334 . S
C1118 C1119 1.287 1_556 S
C1119 C1118 1.287 1_554 S
C1119 C1120 1.524 . S
C1119 H1122 0.999 . S
C1120 H1090 0.950 . S
C1120 C1119 1.524 . S
C1120 C1121 1.415 . S
C1121 H1091 0.950 . S
C1121 C1116 1.363 . S
C1121 C1120 1.415 . S
H1122 C1119 0.999 . S
H1123 C1104 0.913 . S
H1124 C1142 0.951 . S
H1125 C1144 0.951 . S
H1126 C1146 0.950 . S
H1127 C1147 0.950 . S
H1128 C1149 0.950 . S
H1129 C1152 0.950 . S
H1130 C1153 0.950 . S
H1131 C1155 0.950 . S
H1132 C1156 0.950 1_554 S
H1133 C1157 0.951 . S
H1134 C1159 0.951 . S
H1135 C1161 0.950 . S
H1136 C1162 0.950 . S
H1137 C1164 0.950 . S
H1138 C1167 0.950 . S
H1139 C1168 0.950 . S
H1140 C1170 0.950 . S
H1141 C1171 0.950 . S
C1142 H1124 0.951 . S
C1142 C1143 1.366 . S
C1142 C1144 1.388 . S
C1143 C1142 1.366 . S
C1143 C1147 1.385 . S
C1144 H1125 0.951 . S
C1144 C1142 1.388 . S
C1144 C1145 1.366 . S
C1145 C1144 1.366 . S
C1145 C1146 1.414 . S
C1145 C1148 1.499 . S
C1146 H1126 0.950 . S
C1146 C1145 1.414 . S
C1146 C1147 1.374 . S
C1147 H1127 0.950 . S
C1147 C1143 1.385 . S
C1147 C1146 1.374 . S
C1148 C1145 1.499 . S
C1148 C1149 1.373 . S
C1148 C1150 1.389 . S
C1149 H1128 0.950 . S
C1149 C1148 1.373 . S
C1149 C1165 1.377 . S
C1150 C1148 1.389 . S
C1150 C1151 1.524 1_554 S
C1150 C1164 1.377 1_554 S
C1151 C1150 1.524 1_556 S
C1151 C1152 1.397 . S
C1151 C1156 1.363 . S
C1152 H1129 0.950 . S
C1152 C1151 1.397 . S
C1152 C1153 1.334 . S
C1153 H1130 0.950 . S
C1153 C1152 1.334 . S
C1153 C1154 1.287 . S
C1154 C1153 1.287 . S
C1154 C1155 1.524 . S
C1154 H1173 0.913 . S
C1155 H1131 0.950 . S
C1155 C1154 1.524 . S
C1155 C1156 1.415 . S
C1156 H1132 0.950 1_556 S
C1156 C1151 1.363 . S
C1156 C1155 1.415 . S
C1157 H1133 0.951 . S
C1157 C1158 1.366 . S
C1157 C1159 1.388 . S
C1158 C1157 1.366 . S
C1158 C1162 1.385 . S
C1159 H1134 0.951 . S
C1159 C1157 1.388 . S
C1159 C1160 1.366 . S
C1160 C1159 1.366 . S
C1160 C1161 1.414 . S
C1160 C1163 1.499 . S
C1161 H1135 0.950 . S
C1161 C1160 1.414 . S
C1161 C1162 1.374 . S
C1162 H1136 0.950 . S
C1162 C1158 1.385 . S
C1162 C1161 1.374 . S
C1163 C1160 1.499 . S
C1163 C1164 1.373 . S
C1163 C1165 1.389 1_556 S
C1164 H1137 0.950 . S
C1164 C1150 1.377 1_556 S
C1164 C1163 1.373 . S
C1165 C1149 1.377 . S
C1165 C1163 1.389 1_554 S
C1165 C1166 1.524 . S
C1166 C1165 1.524 . S
C1166 C1167 1.397 . S
C1166 C1171 1.363 . S
C1167 H1138 0.950 . S
C1167 C1166 1.397 . S
C1167 C1168 1.334 . S
C1168 H1139 0.950 . S
C1168 C1167 1.334 . S
C1168 C1169 1.287 . S
C1169 C1168 1.287 . S
C1169 C1170 1.524 . S
C1169 H1172 0.999 . S
C1170 H1140 0.950 . S
C1170 C1169 1.524 . S
C1170 C1171 1.415 . S
C1171 H1141 0.950 . S
C1171 C1166 1.363 . S
C1171 C1170 1.415 . S
H1172 C1169 0.999 . S
H1173 C1154 0.913 . S
H1174 C1192 0.951 . S
H1175 C1194 0.951 . S
H1176 C1196 0.950 1_556 S
H1177 C1197 0.950 . S
H1178 C1199 0.950 . S
H1179 C1202 0.950 . S
H1180 C1203 0.950 . S
H1181 C1205 0.950 . S
H1182 C1206 0.950 . S
H1183 C1207 0.951 . S
H1184 C1209 0.951 . S
H1185 C1211 0.950 . S
H1186 C1212 0.950 . S
H1187 C1214 0.950 . S
H1188 C1217 0.950 . S
H1189 C1218 0.950 . S
H1190 C1220 0.950 . S
H1191 C1221 0.950 . S
C1192 H1174 0.951 . S
C1192 C1193 1.366 . S
C1192 C1194 1.388 . S
C1193 C1192 1.366 . S
C1193 C1197 1.385 . S
C1194 H1175 0.951 . S
C1194 C1192 1.388 . S
C1194 C1195 1.366 . S
C1195 C1194 1.366 . S
C1195 C1196 1.414 . S
C1195 C1198 1.499 . S
C1196 H1176 0.950 1_554 S
C1196 C1195 1.414 . S
C1196 C1197 1.374 . S
C1197 H1177 0.950 . S
C1197 C1193 1.385 . S
C1197 C1196 1.374 . S
C1198 C1195 1.499 . S
C1198 C1199 1.373 1_554 S
C1198 C1200 1.389 . S
C1199 H1178 0.950 . S
C1199 C1198 1.373 1_556 S
C1199 C1215 1.377 . S
C1200 C1198 1.389 . S
C1200 C1201 1.524 . S
C1200 C1214 1.377 1_554 S
C1201 C1200 1.524 . S
C1201 C1202 1.397 . S
C1201 C1206 1.363 . S
C1202 H1179 0.950 . S
C1202 C1201 1.397 . S
C1202 C1203 1.334 . S
C1203 H1180 0.950 . S
C1203 C1202 1.334 . S
C1203 C1204 1.287 . S
C1204 C1203 1.287 . S
C1204 C1205 1.524 . S
C1204 H1223 0.913 . S
C1205 H1181 0.950 . S
C1205 C1204 1.524 . S
C1205 C1206 1.415 . S
C1206 H1182 0.950 . S
C1206 C1201 1.363 . S
C1206 C1205 1.415 . S
C1207 H1183 0.951 . S
C1207 C1208 1.366 . S
C1207 C1209 1.388 . S
C1208 C1207 1.366 . S
C1208 C1212 1.385 . S
C1209 H1184 0.951 . S
C1209 C1207 1.388 . S
C1209 C1210 1.366 . S
C1210 C1209 1.366 . S
C1210 C1211 1.414 . S
C1210 C1213 1.499 . S
C1211 H1185 0.950 . S
C1211 C1210 1.414 . S
C1211 C1212 1.374 . S
C1212 H1186 0.950 . S
C1212 C1208 1.385 . S
C1212 C1211 1.374 . S
C1213 C1210 1.499 . S
C1213 C1214 1.373 . S
C1213 C1215 1.389 . S
C1214 H1187 0.950 . S
C1214 C1200 1.377 1_556 S
C1214 C1213 1.373 . S
C1215 C1199 1.377 . S
C1215 C1213 1.389 . S
C1215 C1216 1.524 . S
C1216 C1215 1.524 . S
C1216 C1217 1.397 . S
C1216 C1221 1.363 . S
C1217 H1188 0.950 . S
C1217 C1216 1.397 . S
C1217 C1218 1.334 . S
C1218 H1189 0.950 . S
C1218 C1217 1.334 . S
C1218 C1219 1.287 . S
C1219 C1218 1.287 . S
C1219 C1220 1.524 . S
C1219 H1222 0.999 . S
C1220 H1190 0.950 . S
C1220 C1219 1.524 . S
C1220 C1221 1.415 . S
C1221 H1191 0.950 . S
C1221 C1216 1.363 . S
C1221 C1220 1.415 . S
H1222 C1219 0.999 . S
H1223 C1204 0.913 . S
H1224 C1242 0.951 . S
H1225 C1244 0.951 . S
H1226 C1246 0.950 1_455 S
H1227 C1247 0.947 1_455 S
H1228 C1249 0.931 1_455 S
H1229 C1252 0.950 . S
H1230 C1253 0.950 . S
H1231 C1255 0.950 . S
H1232 C1256 0.950 . S
H1233 C1257 0.951 . S
H1234 C1259 0.951 . S
H1235 C1261 0.950 . S
H1236 C1262 0.950 . S
H1237 C1264 0.950 . S
H1238 C1267 0.950 . S
H1239 C1268 0.950 . S
H1240 C1270 0.950 . S
H1241 C1271 0.950 . S
C1242 H1224 0.951 . S
C1242 C1243 1.366 . S
C1242 C1244 1.388 . S
C1243 C1242 1.366 . S
C1243 C1247 1.385 . S
C1244 H1225 0.951 . S
C1244 C1242 1.388 . S
C1244 C1245 1.366 . S
C1245 C1244 1.366 . S
C1245 C1246 1.414 . S
C1245 C1248 1.499 . S
C1246 H1226 0.950 1_655 S
C1246 C1245 1.414 . S
C1246 C1247 1.374 . S
C1247 H1227 0.947 1_655 S
C1247 C1243 1.385 . S
C1247 C1246 1.374 . S
C1248 C1245 1.499 . S
C1248 C1249 1.397 . S
C1248 C1250 1.389 . S
C1249 H1228 0.931 1_655 S
C1249 C1248 1.397 . S
C1249 C1265 1.373 1_655 S
C1250 C1248 1.389 . S
C1250 C1251 1.524 . S
C1250 C1264 1.377 . S
C1251 C1250 1.524 . S
C1251 C1252 1.397 . S
C1251 C1256 1.363 . S
C1252 H1229 0.950 . S
C1252 C1251 1.397 . S
C1252 C1253 1.334 . S
C1253 H1230 0.950 . S
C1253 C1252 1.334 . S
C1253 C1254 1.287 . S
C1254 C1253 1.287 . S
C1254 C1255 1.524 . S
C1254 H1273 0.913 . S
C1255 H1231 0.950 . S
C1255 C1254 1.524 . S
C1255 C1256 1.415 . S
C1256 H1232 0.950 . S
C1256 C1251 1.363 . S
C1256 C1255 1.415 . S
C1257 H1233 0.951 . S
C1257 C1258 1.366 1_455 S
C1257 C1259 1.388 . S
C1258 C1257 1.366 1_655 S
C1258 C1262 1.385 . S
C1259 H1234 0.951 . S
C1259 C1257 1.388 . S
C1259 C1260 1.366 1_455 S
C1260 C1259 1.366 1_655 S
C1260 C1261 1.414 . S
C1260 C1263 1.499 . S
C1261 H1235 0.950 . S
C1261 C1260 1.414 . S
C1261 C1262 1.374 . S
C1262 H1236 0.950 . S
C1262 C1258 1.385 . S
C1262 C1261 1.374 . S
C1263 C1260 1.499 . S
C1263 C1264 1.373 . S
C1263 C1265 1.389 1_655 S
C1264 H1237 0.950 . S
C1264 C1250 1.377 . S
C1264 C1263 1.373 . S
C1265 C1249 1.373 1_455 S
C1265 C1263 1.389 1_455 S
C1265 C1266 1.524 . S
C1266 C1265 1.524 . S
C1266 C1267 1.397 . S
C1266 C1271 1.363 . S
C1267 H1238 0.950 . S
C1267 C1266 1.397 . S
C1267 C1268 1.334 . S
C1268 H1239 0.950 . S
C1268 C1267 1.334 . S
C1268 C1269 1.287 . S
C1269 C1268 1.287 . S
C1269 C1270 1.524 . S
C1269 H1272 0.999 . S
C1270 H1240 0.950 . S
C1270 C1269 1.524 . S
C1270 C1271 1.415 . S
C1271 H1241 0.950 . S
C1271 C1266 1.363 . S
C1271 C1270 1.415 . S
H1272 C1269 0.999 . S
H1273 C1254 0.913 . S
H1274 C1292 0.951 . S
H1275 C1294 0.951 . S
H1276 C1296 0.950 . S
H1277 C1297 0.950 . S
H1278 C1299 0.950 . S
H1279 C1302 0.950 . S
H1280 C1303 0.950 . S
H1281 C1305 0.950 . S
H1282 C1306 0.950 . S
H1283 C1307 0.951 . S
H1284 C1309 0.951 . S
H1285 C1311 0.950 . S
H1286 C1312 0.950 . S
H1287 C1314 0.950 . S
H1288 C1317 0.950 . S
H1289 C1318 0.950 . S
H1290 C1320 0.950 . S
H1291 C1321 0.950 . S
C1292 H1274 0.951 . S
C1292 C1293 1.367 . S
C1292 C1294 1.388 . S
C1293 C1292 1.367 . S
C1293 C1297 1.383 1_565 S
C1294 H1275 0.951 . S
C1294 C1292 1.388 . S
C1294 C1295 1.366 . S
C1295 C1294 1.366 . S
C1295 C1296 1.414 1_565 S
C1295 C1298 1.499 . S
C1296 H1276 0.950 . S
C1296 C1295 1.414 1_545 S
C1296 C1297 1.374 . S
C1297 H1277 0.950 . S
C1297 C1293 1.383 1_545 S
C1297 C1296 1.374 . S
C1298 C1295 1.499 . S
C1298 C1299 1.373 1_565 S
C1298 C1300 1.389 . S
C1299 H1278 0.950 . S
C1299 C1298 1.373 1_545 S
C1299 C1315 1.377 . S
C1300 C1298 1.389 . S
C1300 C1301 1.524 . S
C1300 C1314 1.377 . S
C1301 C1300 1.524 . S
C1301 C1302 1.397 . S
C1301 C1306 1.363 . S
C1302 H1279 0.950 . S
C1302 C1301 1.397 . S
C1302 C1303 1.334 . S
C1303 H1280 0.950 . S
C1303 C1302 1.334 . S
C1303 C1304 1.287 . S
C1304 C1303 1.287 . S
C1304 C1305 1.524 . S
C1304 H1323 0.913 . S
C1305 H1281 0.950 . S
C1305 C1304 1.524 . S
C1305 C1306 1.415 . S
C1306 H1282 0.950 . S
C1306 C1301 1.363 . S
C1306 C1305 1.415 . S
C1307 H1283 0.951 . S
C1307 C1308 1.366 1_545 S
C1307 C1309 1.388 . S
C1308 C1307 1.366 1_565 S
C1308 C1312 1.385 . S
C1309 H1284 0.951 . S
C1309 C1307 1.388 . S
C1309 C1310 1.366 1_545 S
C1310 C1309 1.366 1_565 S
C1310 C1311 1.414 . S
C1310 C1313 1.499 . S
C1311 H1285 0.950 . S
C1311 C1310 1.414 . S
C1311 C1312 1.374 . S
C1312 H1286 0.950 . S
C1312 C1308 1.385 . S
C1312 C1311 1.374 . S
C1313 C1310 1.499 . S
C1313 C1314 1.373 . S
C1313 C1315 1.389 1_565 S
C1314 H1287 0.950 . S
C1314 C1300 1.377 . S
C1314 C1313 1.373 . S
C1315 C1299 1.377 . S
C1315 C1313 1.389 1_545 S
C1315 C1316 1.524 . S
C1316 C1315 1.524 . S
C1316 C1317 1.397 . S
C1316 C1321 1.363 . S
C1317 H1288 0.950 . S
C1317 C1316 1.397 . S
C1317 C1318 1.334 . S
C1318 H1289 0.950 . S
C1318 C1317 1.334 . S
C1318 C1319 1.287 . S
C1319 C1318 1.287 . S
C1319 C1320 1.524 . S
C1319 H1322 0.999 . S
C1320 H1290 0.950 . S
C1320 C1319 1.524 . S
C1320 C1321 1.415 . S
C1321 H1291 0.950 . S
C1321 C1316 1.363 . S
C1321 C1320 1.415 . S
H1322 C1319 0.999 . S
H1323 C1304 0.913 . S
H1324 C1342 0.951 . S
H1325 C1344 0.951 . S
H1326 C1346 0.950 . S
H1327 C1347 0.950 . S
H1328 C1349 0.950 . S
H1329 C1352 0.950 . S
H1330 C1353 0.950 . S
H1331 C1355 0.950 . S
H1332 C1356 0.950 . S
H1333 C1357 0.951 . S
H1334 C1359 0.951 . S
H1335 C1361 0.950 . S
H1336 C1362 0.950 . S
H1337 C1364 0.950 . S
H1338 C1367 0.950 . S
H1339 C1368 0.950 . S
H1340 C1370 0.950 . S
H1341 C1371 0.950 . S
C1342 H1324 0.951 . S
C1342 C1343 1.366 . S
C1342 C1344 1.388 . S
C1343 C1342 1.366 . S
C1343 C1347 1.385 . S
C1344 H1325 0.951 . S
C1344 C1342 1.388 . S
C1344 C1345 1.366 . S
C1345 C1344 1.366 . S
C1345 C1346 1.414 . S
C1345 C1348 1.499 . S
C1346 H1326 0.950 . S
C1346 C1345 1.414 . S
C1346 C1347 1.374 . S
C1347 H1327 0.950 . S
C1347 C1343 1.385 . S
C1347 C1346 1.374 . S
C1348 C1345 1.499 . S
C1348 C1349 1.373 . S
C1348 C1350 1.389 . S
C1349 H1328 0.950 . S
C1349 C1348 1.373 . S
C1349 C1365 1.377 . S
C1350 C1348 1.389 . S
C1350 C1351 1.524 . S
C1350 C1364 1.377 . S
C1351 C1350 1.524 . S
C1351 C1352 1.397 . S
C1351 C1356 1.363 . S
C1352 H1329 0.950 . S
C1352 C1351 1.397 . S
C1352 C1353 1.334 . S
C1353 H1330 0.950 . S
C1353 C1352 1.334 . S
C1353 C1354 1.287 . S
C1354 C1353 1.287 . S
C1354 C1355 1.524 . S
C1354 H1373 0.913 . S
C1355 H1331 0.950 . S
C1355 C1354 1.524 . S
C1355 C1356 1.415 . S
C1356 H1332 0.950 . S
C1356 C1351 1.363 . S
C1356 C1355 1.415 . S
C1357 H1333 0.951 . S
C1357 C1358 1.366 . S
C1357 C1359 1.388 . S
C1358 C1357 1.366 . S
C1358 C1362 1.385 . S
C1359 H1334 0.951 . S
C1359 C1357 1.388 . S
C1359 C1360 1.366 . S
C1360 C1359 1.366 . S
C1360 C1361 1.414 . S
C1360 C1363 1.499 . S
C1361 H1335 0.950 . S
C1361 C1360 1.414 . S
C1361 C1362 1.374 . S
C1362 H1336 0.950 . S
C1362 C1358 1.385 . S
C1362 C1361 1.374 . S
C1363 C1360 1.499 . S
C1363 C1364 1.373 . S
C1363 C1365 1.389 . S
C1364 H1337 0.950 . S
C1364 C1350 1.377 . S
C1364 C1363 1.373 . S
C1365 C1349 1.377 . S
C1365 C1363 1.389 . S
C1365 C1366 1.524 . S
C1366 C1365 1.524 . S
C1366 C1367 1.397 . S
C1366 C1371 1.363 . S
C1367 H1338 0.950 . S
C1367 C1366 1.397 . S
C1367 C1368 1.334 . S
C1368 H1339 0.950 . S
C1368 C1367 1.334 . S
C1368 C1369 1.287 . S
C1369 C1368 1.287 . S
C1369 C1370 1.524 . S
C1369 H1372 0.999 . S
C1370 H1340 0.950 . S
C1370 C1369 1.524 . S
C1370 C1371 1.415 . S
C1371 H1341 0.950 . S
C1371 C1366 1.363 . S
C1371 C1370 1.415 . S
H1372 C1369 0.999 . S
H1373 C1354 0.913 . S
H1374 C1392 0.951 . S
H1375 C1394 0.951 . S
H1376 C1396 0.950 . S
H1377 C1397 0.950 . S
H1378 C1399 0.950 . S
H1379 C1402 0.950 . S
H1380 C1403 0.950 . S
H1381 C1405 0.950 . S
H1382 C1406 0.950 . S
H1383 C1407 0.951 . S
H1384 C1409 0.951 . S
H1385 C1411 0.950 . S
H1386 C1412 0.950 . S
H1387 C1414 0.950 . S
H1388 C1417 0.950 . S
H1389 C1418 0.950 . S
H1390 C1420 0.950 . S
H1391 C1421 0.950 . S
C1392 H1374 0.951 . S
C1392 C1393 1.366 . S
C1392 C1394 1.388 . S
C1393 C1392 1.366 . S
C1393 C1397 1.385 . S
C1394 H1375 0.951 . S
C1394 C1392 1.388 . S
C1394 C1395 1.366 . S
C1395 C1394 1.366 . S
C1395 C1396 1.414 . S
C1395 C1398 1.499 . S
C1396 H1376 0.950 . S
C1396 C1395 1.414 . S
C1396 C1397 1.374 . S
C1397 H1377 0.950 . S
C1397 C1393 1.385 . S
C1397 C1396 1.374 . S
C1398 C1395 1.499 . S
C1398 C1399 1.373 . S
C1398 C1400 1.389 . S
C1399 H1378 0.950 . S
C1399 C1398 1.373 . S
C1399 C1415 1.377 . S
C1400 C1398 1.389 . S
C1400 C1401 1.524 . S
C1400 C1414 1.377 . S
C1401 C1400 1.524 . S
C1401 C1402 1.397 . S
C1401 C1406 1.363 . S
C1402 H1379 0.950 . S
C1402 C1401 1.397 . S
C1402 C1403 1.334 . S
C1403 H1380 0.950 . S
C1403 C1402 1.334 . S
C1403 C1404 1.287 . S
C1404 C1403 1.287 . S
C1404 C1405 1.524 . S
C1404 H1423 0.913 . S
C1405 H1381 0.950 . S
C1405 C1404 1.524 . S
C1405 C1406 1.415 . S
C1406 H1382 0.950 . S
C1406 C1401 1.363 . S
C1406 C1405 1.415 . S
C1407 H1383 0.951 . S
C1407 C1408 1.366 . S
C1407 C1409 1.388 . S
C1408 C1407 1.366 . S
C1408 C1412 1.385 . S
C1409 H1384 0.951 . S
C1409 C1407 1.388 . S
C1409 C1410 1.366 . S
C1410 C1409 1.366 . S
C1410 C1411 1.414 . S
C1410 C1413 1.499 . S
C1411 H1385 0.950 . S
C1411 C1410 1.414 . S
C1411 C1412 1.374 . S
C1412 H1386 0.950 . S
C1412 C1408 1.385 . S
C1412 C1411 1.374 . S
C1413 C1410 1.499 . S
C1413 C1414 1.373 . S
C1413 C1415 1.389 . S
C1414 H1387 0.950 . S
C1414 C1400 1.377 . S
C1414 C1413 1.373 . S
C1415 C1399 1.377 . S
C1415 C1413 1.389 . S
C1415 C1416 1.524 . S
C1416 C1415 1.524 . S
C1416 C1417 1.397 . S
C1416 C1421 1.363 . S
C1417 H1388 0.950 . S
C1417 C1416 1.397 . S
C1417 C1418 1.334 . S
C1418 H1389 0.950 . S
C1418 C1417 1.334 . S
C1418 C1419 1.287 . S
C1419 C1418 1.287 . S
C1419 C1420 1.524 . S
C1419 H1422 0.999 . S
C1420 H1390 0.950 . S
C1420 C1419 1.524 . S
C1420 C1421 1.415 . S
C1421 H1391 0.950 . S
C1421 C1416 1.363 . S
C1421 C1420 1.415 . S
H1422 C1419 0.999 . S
H1423 C1404 0.913 . S
C243 C76 1.846 . S
C258 C105 1.872 . S
C308 C126 1.547 . S
C293 C87 1.518 . S
C358 C160 1.323 . S
C343 C54 1.297 . S
C408 C194 1.538 . S
C393 C65 1.518 . S
C458 C96 1.872 . S
C443 C32 1.847 1_546 S
C493 C43 1.529 . S
C508 C135 1.554 . S
C543 C10 1.297 . S
C558 C169 1.322 . S
C593 C21 1.524 . S
C608 C203 1.539 . S
C658 C117 0.237 . S
C643 C60 0.446 . S
C708 C122 0.683 . S
C693 C71 0.689 . S
C758 C156 0.615 . S
C743 C82 0.626 . S
C793 C49 0.254 . S
C808 C190 0.148 . S
C843 C16 0.462 . S
C858 C88 0.241 . S
C908 C151 0.683 . S
C893 C27 0.687 . S
C958 C185 0.615 . S
C943 C38 0.628 . S
C993 C5 0.257 . S
C1008 C219 0.151 . S
C1043 C59 1.264 . S
C1058 C101 1.290 . S
C1093 C70 1.708 . S
C1108 C130 1.756 . S
C1158 C164 1.554 . S
C1143 C81 1.518 . S
C1208 C198 1.614 . S
C1193 C48 1.565 . S
C1243 C15 1.259 . S
C1258 C92 1.299 . S
C1308 C139 1.756 . S
C1293 C26 1.712 1_565 S
C1358 C173 1.553 . S
C1343 C37 1.515 . S
C1393 C4 1.568 . S
C1408 C207 1.614 . S
