# Generated by pormake.
# Topology pyr, (3,6)-cn, num edge types: 1
# Building blocks:
#     Node 0, Type 0, BuildingBlock: VETTIZ_charged_linker_0, # of connection points: 3
#     Node 1, Type 0, BuildingBlock: VETTIZ_charged_linker_0, # of connection points: 3
#     Node 2, Type 0, BuildingBlock: VETTIZ_charged_linker_0, # of connection points: 3
#     Node 3, Type 0, BuildingBlock: VETTIZ_charged_linker_0, # of connection points: 3
#     Node 4, Type 0, BuildingBlock: VETTIZ_charged_linker_0, # of connection points: 3
#     Node 5, Type 0, BuildingBlock: VETTIZ_charged_linker_0, # of connection points: 3
#     Node 6, Type 0, BuildingBlock: VETTIZ_charged_linker_0, # of connection points: 3
#     Node 7, Type 0, BuildingBlock: VETTIZ_charged_linker_0, # of connection points: 3
#     Node 8, Type 1, BuildingBlock: JUFBIX_clean_sbu_0, # of connection points: 6
#     Node 9, Type 1, BuildingBlock: JUFBIX_clean_sbu_0, # of connection points: 6
#     Node 10, Type 1, BuildingBlock: JUFBIX_clean_sbu_0, # of connection points: 6
#     Node 11, Type 1, BuildingBlock: JUFBIX_clean_sbu_0, # of connection points: 6
#     Edge 12, Type (0, 1), BuildingBlock: XIVTED_clean_linker_0, # of connection points: 2
#     Edge 13, Type (0, 1), BuildingBlock: XIVTED_clean_linker_0, # of connection points: 2
#     Edge 14, Type (0, 1), BuildingBlock: XIVTED_clean_linker_0, # of connection points: 2
#     Edge 15, Type (0, 1), BuildingBlock: XIVTED_clean_linker_0, # of connection points: 2
#     Edge 16, Type (0, 1), BuildingBlock: XIVTED_clean_linker_0, # of connection points: 2
#     Edge 17, Type (0, 1), BuildingBlock: XIVTED_clean_linker_0, # of connection points: 2
#     Edge 18, Type (0, 1), BuildingBlock: XIVTED_clean_linker_0, # of connection points: 2
#     Edge 19, Type (0, 1), BuildingBlock: XIVTED_clean_linker_0, # of connection points: 2
#     Edge 20, Type (0, 1), BuildingBlock: XIVTED_clean_linker_0, # of connection points: 2
#     Edge 21, Type (0, 1), BuildingBlock: XIVTED_clean_linker_0, # of connection points: 2
#     Edge 22, Type (0, 1), BuildingBlock: XIVTED_clean_linker_0, # of connection points: 2
#     Edge 23, Type (0, 1), BuildingBlock: XIVTED_clean_linker_0, # of connection points: 2
#     Edge 24, Type (0, 1), BuildingBlock: XIVTED_clean_linker_0, # of connection points: 2
#     Edge 25, Type (0, 1), BuildingBlock: XIVTED_clean_linker_0, # of connection points: 2
#     Edge 26, Type (0, 1), BuildingBlock: XIVTED_clean_linker_0, # of connection points: 2
#     Edge 27, Type (0, 1), BuildingBlock: XIVTED_clean_linker_0, # of connection points: 2
#     Edge 28, Type (0, 1), BuildingBlock: XIVTED_clean_linker_0, # of connection points: 2
#     Edge 29, Type (0, 1), BuildingBlock: XIVTED_clean_linker_0, # of connection points: 2
#     Edge 30, Type (0, 1), BuildingBlock: XIVTED_clean_linker_0, # of connection points: 2
#     Edge 31, Type (0, 1), BuildingBlock: XIVTED_clean_linker_0, # of connection points: 2
#     Edge 32, Type (0, 1), BuildingBlock: XIVTED_clean_linker_0, # of connection points: 2
#     Edge 33, Type (0, 1), BuildingBlock: XIVTED_clean_linker_0, # of connection points: 2
#     Edge 34, Type (0, 1), BuildingBlock: XIVTED_clean_linker_0, # of connection points: 2
#     Edge 35, Type (0, 1), BuildingBlock: XIVTED_clean_linker_0, # of connection points: 2
# Relax obj value: 0.046
# Max RMSD: 0.093
# Mean RMSD: 0.031
data_MOF--net-pyr--node1-JUFBIX_clean_sbu_0--node2-VETTIZ_charged_linker_0--edge1-XIVTED_clean_linker_0
_symmetry_space_group_name_H-M    P1
_symmetry_Int_Tables_number       1
_symmetry_cell_setting            triclinic
loop_
_symmetry_equiv_pos_as_xyz
'x, y, z'
_cell_length_a     46.024677
_cell_length_b     43.746037
_cell_length_c     46.043974
_cell_angle_alpha  85.949859
_cell_angle_beta   90.231309
_cell_angle_gamma 91.604571
loop_
_atom_site_label
_atom_site_type_symbol
_atom_site_fract_x
_atom_site_fract_y
_atom_site_fract_z
_atom_type_partial_charge
C0 C 0.15727 0.10315 0.26086 0.0
C1 C 0.13154 0.11222 0.27425 0.0
C2 C 0.11706 0.13777 0.26127 0.0
C3 C 0.15264 0.14403 0.22226 0.0
C4 C 0.16726 0.11924 0.23484 0.0
C5 C 0.19359 0.11236 0.21701 0.0
H6 H 0.27791 0.14552 0.09616 0.0
C7 C 0.16815 0.15559 0.19519 0.0
C8 C 0.19226 0.13706 0.19185 0.0
H9 H 0.2898 0.0739 0.16442 0.0
H10 H 0.24755 0.09024 0.18947 0.0
H11 H 0.26318 0.19754 0.13904 0.0
H12 H 0.20652 0.13802 0.09217 0.0
H13 H 0.19372 0.17564 0.0878 0.0
H14 H 0.22918 0.16766 0.07429 0.0
H15 H 0.25807 0.2031 0.10038 0.0
H16 H 0.23382 0.21915 0.12561 0.0
C17 C 0.221 0.11646 0.23603 0.0
C18 C 0.18927 0.07978 0.20639 0.0
C19 C 0.12904 0.24797 0.13453 0.0
C20 C 0.13841 0.26479 0.10875 0.0
C21 C 0.16377 0.25517 0.09513 0.0
C22 C 0.1792 0.22969 0.10668 0.0
C23 C 0.16953 0.21332 0.13241 0.0
C24 C 0.14486 0.22269 0.14591 0.0
C25 C 0.13793 0.20298 0.17333 0.0
C26 C 0.16248 0.18028 0.17417 0.0
C27 C 0.18093 0.18627 0.15004 0.0
C28 C 0.13962 0.22367 0.1993 0.0
C29 C 0.10788 0.18694 0.16923 0.0
C30 C 0.2713 0.13311 0.11634 0.0
C31 C 0.28753 0.10821 0.1281 0.0
C32 C 0.27816 0.09329 0.15483 0.0
C33 C 0.2534 0.10273 0.16935 0.0
C34 C 0.23749 0.12759 0.15732 0.0
C35 C 0.24667 0.14243 0.13127 0.0
C36 C 0.22763 0.16894 0.12205 0.0
C37 C 0.20528 0.16732 0.14647 0.0
C38 C 0.21103 0.14292 0.16721 0.0
C39 C 0.2465 0.19885 0.12147 0.0
C40 C 0.21355 0.16255 0.09243 0.0
H41 H 0.11507 0.17267 0.22712 0.0
H42 H 0.16896 0.08359 0.27001 0.0
H43 H 0.16635 0.0758 0.19952 0.0
H44 H 0.2025 0.07602 0.18711 0.0
H45 H 0.19433 0.06202 0.22399 0.0
H46 H 0.21909 0.13669 0.24918 0.0
H47 H 0.22409 0.09602 0.25134 0.0
H48 H 0.24096 0.12096 0.22305 0.0
H49 H 0.10958 0.25406 0.14564 0.0
H50 H 0.17214 0.26764 0.07567 0.0
H51 H 0.19824 0.22381 0.09516 0.0
H52 H 0.15707 0.24168 0.19584 0.0
H53 H 0.11883 0.23543 0.20206 0.0
H54 H 0.14539 0.21105 0.22004 0.0
H55 H 0.10476 0.18108 0.14627 0.0
H56 H 0.10542 0.16483 0.18223 0.0
H57 H 0.08994 0.202 0.17465 0.0
H58 H 0.09761 0.14579 0.27111 0.0
C59 C 0.12737 0.15357 0.23562 0.0
C60 C 0.33174 0.92657 0.55063 0.0
C61 C 0.32354 0.95584 0.55785 0.0
C62 C 0.34333 0.97397 0.57313 0.0
C63 C 0.37551 0.93133 0.57961 0.0
C64 C 0.35784 0.91475 0.56178 0.0
C65 C 0.36862 0.88287 0.55907 0.0
H66 H 0.45243 0.76745 0.61256 0.0
C67 C 0.39742 0.91065 0.59275 0.0
C68 C 0.39382 0.88231 0.58059 0.0
H69 H 0.39792 0.7702 0.53582 0.0
H70 H 0.386 0.82257 0.54299 0.0
H71 H 0.4828 0.83421 0.59819 0.0
H72 H 0.40978 0.80433 0.65221 0.0
H73 H 0.4286 0.83294 0.6701 0.0
H74 H 0.44654 0.79788 0.66365 0.0
H75 H 0.48635 0.81066 0.63151 0.0
H76 H 0.48596 0.85183 0.63135 0.0
C77 C 0.37901 0.88038 0.52733 0.0
C78 C 0.34406 0.85947 0.56882 0.0
C79 C 0.44944 0.94205 0.6833 0.0
C80 C 0.46363 0.92514 0.70594 0.0
C81 C 0.47173 0.89493 0.7016 0.0
C82 C 0.4638 0.88113 0.676 0.0
C83 C 0.44728 0.89756 0.65472 0.0
C84 C 0.44092 0.92773 0.65836 0.0
C85 C 0.42124 0.94105 0.63495 0.0
C86 C 0.41622 0.91363 0.61696 0.0
C87 C 0.43179 0.88835 0.62838 0.0
C88 C 0.43833 0.96715 0.61747 0.0
C89 C 0.39288 0.95136 0.64938 0.0
C90 C 0.43759 0.77929 0.59762 0.0
C91 C 0.42582 0.76479 0.57378 0.0
C92 C 0.40716 0.78103 0.55433 0.0
C93 C 0.40034 0.81138 0.55846 0.0
C94 C 0.41232 0.82567 0.58226 0.0
C95 C 0.43089 0.80984 0.60118 0.0
C96 C 0.44274 0.82948 0.62429 0.0
C97 C 0.42891 0.85988 0.61548 0.0
C98 C 0.41053 0.85717 0.59132 0.0
C99 C 0.47626 0.83165 0.62149 0.0
C100 C 0.43164 0.81552 0.65423 0.0
H101 H 0.38283 0.9762 0.59666 0.0
H102 H 0.31713 0.91225 0.53866 0.0
H103 H 0.33437 0.86557 0.58967 0.0
H104 H 0.35167 0.83587 0.57276 0.0
H105 H 0.32647 0.85916 0.55226 0.0
H106 H 0.38332 0.9033 0.51588 0.0
H107 H 0.3625 0.86827 0.51435 0.0
H108 H 0.39992 0.8685 0.52644 0.0
H109 H 0.44326 0.96544 0.68574 0.0
H110 H 0.48267 0.88133 0.71866 0.0
H111 H 0.46971 0.85776 0.67434 0.0
H112 H 0.46104 0.96041 0.61356 0.0
H113 H 0.43934 0.98829 0.62951 0.0
H114 H 0.42901 0.97261 0.59561 0.0
H115 H 0.39053 0.94184 0.67232 0.0
H116 H 0.37298 0.94302 0.63855 0.0
H117 H 0.39231 0.9767 0.64962 0.0
H118 H 0.33789 0.99693 0.57818 0.0
C119 C 0.36932 0.96188 0.58396 0.0
C120 C 0.64516 0.26107 0.89638 0.0
C121 C 0.61842 0.24866 0.88696 0.0
C122 C 0.60447 0.26348 0.86272 0.0
C123 C 0.64388 0.30143 0.85732 0.0
C124 C 0.65739 0.28735 0.88133 0.0
C125 C 0.68554 0.30358 0.88852 0.0
H126 H 0.7844 0.41931 0.85807 0.0
C127 C 0.66253 0.32781 0.84626 0.0
C128 C 0.68697 0.32928 0.86446 0.0
H129 H 0.7841 0.34999 0.92989 0.0
H130 H 0.73985 0.32754 0.91199 0.0
H131 H 0.71463 0.43194 0.85922 0.0
H132 H 0.76469 0.37265 0.80884 0.0
H133 H 0.73804 0.38955 0.78602 0.0
H134 H 0.76573 0.41352 0.80154 0.0
H135 H 0.74071 0.44633 0.83235 0.0
H136 H 0.70398 0.4365 0.82239 0.0
C137 C 0.68246 0.316 0.91905 0.0
C138 C 0.71049 0.28087 0.88603 0.0
C139 C 0.63159 0.3915 0.75555 0.0
C140 C 0.64479 0.4158 0.73819 0.0
C141 C 0.67221 0.42739 0.74696 0.0
C142 C 0.68606 0.41498 0.77226 0.0
C143 C 0.67259 0.3905 0.78905 0.0
C144 C 0.64589 0.37908 0.78037 0.0
C145 C 0.63521 0.35214 0.79985 0.0
C146 C 0.65973 0.34934 0.8219 0.0
C147 C 0.68152 0.37202 0.81575 0.0
C148 C 0.60638 0.36085 0.81405 0.0
C149 C 0.63266 0.32386 0.78138 0.0
C150 C 0.7749 0.39915 0.86978 0.0
C151 C 0.78777 0.38665 0.89566 0.0
C152 C 0.77448 0.36049 0.91027 0.0
C153 C 0.74876 0.34735 0.89975 0.0
C154 C 0.73588 0.3604 0.87427 0.0
C155 C 0.74897 0.38579 0.8596 0.0
C156 C 0.73189 0.39652 0.83293 0.0
C157 C 0.7062 0.37377 0.83442 0.0
C158 C 0.7088 0.35257 0.85865 0.0
C159 C 0.72233 0.42964 0.83663 0.0
C160 C 0.75098 0.39318 0.80579 0.0
H161 H 0.60522 0.29968 0.82968 0.0
H162 H 0.65664 0.25033 0.91479 0.0
H163 H 0.70687 0.26674 0.86711 0.0
H164 H 0.73188 0.29241 0.88212 0.0
H165 H 0.71184 0.26499 0.90588 0.0
H166 H 0.65961 0.32205 0.92328 0.0
H167 H 0.6889 0.29868 0.93652 0.0
H168 H 0.69517 0.3375 0.92136 0.0
H169 H 0.61041 0.38215 0.75011 0.0
H170 H 0.68331 0.44571 0.73402 0.0
H171 H 0.70687 0.42476 0.77764 0.0
H172 H 0.60702 0.38541 0.81896 0.0
H173 H 0.5876 0.35725 0.79934 0.0
H174 H 0.60217 0.34808 0.83523 0.0
H175 H 0.64957 0.32497 0.7641 0.0
H176 H 0.63638 0.302 0.79418 0.0
H177 H 0.61113 0.32253 0.77049 0.0
H178 H 0.5836 0.25502 0.85528 0.0
C179 C 0.61701 0.28964 0.84792 0.0
C180 C 0.9834 0.712 0.43686 0.0
C181 C 0.97358 0.72758 0.46044 0.0
C182 C 0.95113 0.71408 0.47817 0.0
C183 C 0.94668 0.67179 0.44695 0.0
C184 C 0.96981 0.68423 0.43063 0.0
C185 C 0.97682 0.66557 0.40554 0.0
H186 H 0.93903 0.55088 0.32132 0.0
C187 C 0.93601 0.64399 0.43333 0.0
C188 C 0.954 0.63994 0.40937 0.0
H189 H 0.01029 0.6169 0.30863 0.0
H190 H 0.99933 0.63758 0.35453 0.0
H191 H 0.94952 0.53382 0.38913 0.0
H192 H 0.89472 0.59756 0.34153 0.0
H193 H 0.87362 0.57974 0.36978 0.0
H194 H 0.88868 0.55678 0.34303 0.0
H195 H 0.91572 0.52186 0.37343 0.0
H196 H 0.91766 0.53475 0.40986 0.0
C197 C 1.00798 0.65354 0.40998 0.0
C198 C 0.97241 0.68591 0.37696 0.0
C199 C 0.83862 0.59353 0.46323 0.0
C200 C 0.82227 0.56954 0.45168 0.0
C201 C 0.83549 0.55119 0.43186 0.0
C202 C 0.86368 0.55808 0.42184 0.0
C203 C 0.87873 0.58388 0.43135 0.0
C204 C 0.86684 0.60033 0.4527 0.0
C205 C 0.88666 0.62657 0.4605 0.0
C206 C 0.91146 0.62405 0.43908 0.0
C207 C 0.90632 0.59927 0.42181 0.0
C208 C 0.89672 0.62036 0.49247 0.0
C209 C 0.87014 0.65676 0.45466 0.0
C210 C 0.95273 0.56933 0.3287 0.0
C211 C 0.97554 0.58229 0.31131 0.0
C212 C 0.9924 0.60674 0.32149 0.0
C213 C 0.986 0.61867 0.34817 0.0
C214 C 0.96225 0.6063 0.36465 0.0
C215 C 0.94644 0.58168 0.35505 0.0
C216 C 0.92129 0.57213 0.37462 0.0
C217 C 0.92456 0.59511 0.3977 0.0
C218 C 0.9484 0.6152 0.39163 0.0
C219 C 0.92598 0.53886 0.38737 0.0
C220 C 0.89299 0.57649 0.35652 0.0
H221 H 0.92017 0.67745 0.48536 0.0
H222 H 1.00089 0.72162 0.4231 0.0
H223 H 0.95372 0.70123 0.37893 0.0
H224 H 0.96696 0.67263 0.35809 0.0
H225 H 0.99198 0.70065 0.37169 0.0
H226 H 0.01267 0.64821 0.43349 0.0
H227 H 0.02452 0.67084 0.40148 0.0
H228 H 0.0112 0.63179 0.39975 0.0
H229 H 0.82902 0.60785 0.47865 0.0
H230 H 0.82351 0.53218 0.42321 0.0
H231 H 0.87213 0.54385 0.40602 0.0
H232 H 0.89717 0.59535 0.49876 0.0
H233 H 0.88191 0.63074 0.50778 0.0
H234 H 0.91923 0.62885 0.49606 0.0
H235 H 0.85888 0.65708 0.43322 0.0
H236 H 0.88447 0.67739 0.4537 0.0
H237 H 0.85347 0.65916 0.47167 0.0
H238 H 0.94316 0.72572 0.49642 0.0
C239 C 0.93766 0.68622 0.47158 0.0
C240 C 0.86686 0.75708 0.90443 0.0
C241 C 0.89247 0.74359 0.89499 0.0
C242 C 0.90669 0.75756 0.87011 0.0
C243 C 0.8698 0.79617 0.86386 0.0
C244 C 0.85601 0.78328 0.8886 0.0
C245 C 0.82907 0.80055 0.89528 0.0
H246 H 0.74088 0.92164 0.86433 0.0
C247 C 0.85297 0.82287 0.85208 0.0
C248 C 0.82909 0.82578 0.87055 0.0
H249 H 0.73139 0.8499 0.93324 0.0
H250 H 0.77418 0.82562 0.91644 0.0
H251 H 0.75496 0.87411 0.81514 0.0
H252 H 0.81304 0.92941 0.86512 0.0
H253 H 0.82283 0.93343 0.82797 0.0
H254 H 0.7878 0.94576 0.83893 0.0
H255 H 0.75826 0.91497 0.80818 0.0
H256 H 0.78287 0.88955 0.79217 0.0
C257 C 0.80239 0.77839 0.8936 0.0
C258 C 0.83344 0.81378 0.92532 0.0
C259 C 0.88645 0.88183 0.75786 0.0
C260 C 0.87583 0.90724 0.74082 0.0
C261 C 0.85077 0.9213 0.7508 0.0
C262 C 0.83674 0.9104 0.77687 0.0
C263 C 0.84757 0.88488 0.79345 0.0
C264 C 0.87209 0.87112 0.78376 0.0
C265 C 0.88067 0.84423 0.80392 0.0
C266 C 0.85712 0.84371 0.82708 0.0
C267 C 0.8377 0.86767 0.82104 0.0
C268 C 0.87897 0.81514 0.78657 0.0
C269 C 0.91118 0.85154 0.81654 0.0
C270 C 0.74824 0.90085 0.87588 0.0
C271 C 0.73282 0.88788 0.90043 0.0
C272 C 0.74279 0.86039 0.91439 0.0
C273 C 0.76776 0.84636 0.90462 0.0
C274 C 0.78302 0.85956 0.8802 0.0
C275 C 0.77291 0.88611 0.86593 0.0
C276 C 0.79077 0.89558 0.83911 0.0
C277 C 0.8138 0.87111 0.84025 0.0
C278 C 0.80931 0.85011 0.86463 0.0
C279 C 0.77081 0.89374 0.81211 0.0
C280 C 0.80429 0.92784 0.8427 0.0
H281 H 0.90754 0.79249 0.83586 0.0
H282 H 0.85518 0.7472 0.92334 0.0
H283 H 0.85592 0.82343 0.92738 0.0
H284 H 0.81902 0.83288 0.9288 0.0
H285 H 0.83005 0.79567 0.94323 0.0
H286 H 0.80535 0.7622 0.87633 0.0
H287 H 0.79899 0.76456 0.91454 0.0
H288 H 0.7822 0.79036 0.88753 0.0
H289 H 0.90536 0.87007 0.751 0.0
H290 H 0.84216 0.94113 0.73864 0.0
H291 H 0.81799 0.92234 0.7832 0.0
H292 H 0.85973 0.81563 0.77185 0.0
H293 H 0.89863 0.81349 0.77291 0.0
H294 H 0.87615 0.79375 0.80059 0.0
H295 H 0.91464 0.87661 0.81838 0.0
H296 H 0.91415 0.8413 0.83896 0.0
H297 H 0.92867 0.84383 0.80244 0.0
H298 H 0.92679 0.74861 0.86256 0.0
C299 C 0.89556 0.78342 0.85461 0.0
C300 C 0.6943 0.09924 0.44278 0.0
C301 C 0.70334 0.07077 0.43431 0.0
C302 C 0.68427 0.05294 0.41794 0.0
C303 C 0.64961 0.09359 0.4153 0.0
C304 C 0.66739 0.11016 0.43304 0.0
C305 C 0.65529 0.14089 0.43819 0.0
H306 H 0.5508 0.24466 0.41152 0.0
C307 C 0.6248 0.1127 0.40628 0.0
C308 C 0.62772 0.14024 0.41999 0.0
H309 H 0.62875 0.25284 0.46396 0.0
H310 H 0.64159 0.20203 0.45393 0.0
H311 H 0.53387 0.1712 0.42813 0.0
H312 H 0.58267 0.22194 0.36073 0.0
H313 H 0.57054 0.1885 0.34506 0.0
H314 H 0.54437 0.21487 0.35707 0.0
H315 H 0.51885 0.19768 0.40085 0.0
H316 H 0.5236 0.15815 0.39395 0.0
C317 C 0.64863 0.14137 0.47109 0.0
C318 C 0.67735 0.16616 0.42628 0.0
C319 C 0.5605 0.08171 0.32337 0.0
C320 C 0.53967 0.09766 0.30639 0.0
C321 C 0.52864 0.12485 0.31617 0.0
C322 C 0.5396 0.13697 0.34154 0.0
C323 C 0.56224 0.12207 0.35689 0.0
C324 C 0.57174 0.09446 0.34819 0.0
C325 C 0.59722 0.08286 0.36583 0.0
C326 C 0.6021 0.10861 0.38586 0.0
C327 C 0.58155 0.13148 0.38057 0.0
C328 C 0.58774 0.05242 0.38287 0.0
C329 C 0.62314 0.08011 0.34478 0.0
C330 C 0.57077 0.23581 0.42079 0.0
C331 C 0.58841 0.25314 0.43904 0.0
C332 C 0.61409 0.24006 0.45059 0.0
C333 C 0.62178 0.21047 0.44449 0.0
C334 C 0.60406 0.19376 0.42606 0.0
C335 C 0.57921 0.20658 0.41428 0.0
C336 C 0.56442 0.18649 0.39312 0.0
C337 C 0.58383 0.15892 0.39525 0.0
C338 C 0.60691 0.16331 0.41468 0.0
C339 C 0.53343 0.17794 0.40438 0.0
C340 C 0.56529 0.2037 0.36241 0.0
H341 H 0.6442 0.04984 0.39547 0.0
H342 H 0.7085 0.11352 0.45528 0.0
H343 H 0.68935 0.15869 0.40719 0.0
H344 H 0.66684 0.18746 0.41802 0.0
H345 H 0.69367 0.17169 0.44309 0.0
H346 H 0.63982 0.11868 0.47997 0.0
H347 H 0.66862 0.14668 0.48359 0.0
H348 H 0.63179 0.1578 0.4758 0.0
H349 H 0.56973 0.06104 0.31614 0.0
H350 H 0.51239 0.13737 0.30351 0.0
H351 H 0.53092 0.15812 0.34755 0.0
H352 H 0.56407 0.05184 0.3878 0.0
H353 H 0.59211 0.03236 0.37021 0.0
H354 H 0.59842 0.04938 0.40442 0.0
H355 H 0.62392 0.09975 0.32804 0.0
H356 H 0.64452 0.08076 0.35556 0.0
H357 H 0.62114 0.0587 0.33323 0.0
H358 H 0.69055 0.03066 0.41166 0.0
C359 C 0.65739 0.06411 0.40856 0.0
C360 C 0.38723 0.62032 0.26579 0.0
C361 C 0.37509 0.5944 0.28159 0.0
C362 C 0.34862 0.58161 0.27172 0.0
C363 C 0.34767 0.61975 0.23064 0.0
C364 C 0.37337 0.6324 0.2406 0.0
C365 C 0.38405 0.65952 0.22141 0.0
H366 H 0.36669 0.758 0.10335 0.0
C367 C 0.33945 0.63765 0.20335 0.0
C368 C 0.36086 0.66088 0.19793 0.0
H369 H 0.43568 0.75702 0.16757 0.0
H370 H 0.41387 0.71226 0.19264 0.0
H371 H 0.31287 0.73927 0.14906 0.0
H372 H 0.36673 0.68781 0.09526 0.0
H373 H 0.3329 0.66828 0.09725 0.0
H374 H 0.33538 0.70701 0.08077 0.0
H375 H 0.31263 0.7429 0.10995 0.0
H376 H 0.29064 0.71406 0.12984 0.0
C377 C 0.38406 0.6881 0.23954 0.0
C378 C 0.41419 0.65199 0.20918 0.0
C379 C 0.247 0.61028 0.14787 0.0
C380 C 0.23526 0.62134 0.12081 0.0
C381 C 0.25079 0.64512 0.10461 0.0
C382 C 0.27654 0.65808 0.11526 0.0
C383 C 0.28761 0.64701 0.1423 0.0
C384 C 0.27325 0.62308 0.1579 0.0
C385 C 0.28965 0.61277 0.18516 0.0
C386 C 0.31573 0.635 0.18361 0.0
C387 C 0.31414 0.65529 0.15858 0.0
C388 C 0.27022 0.61727 0.21176 0.0
C389 C 0.29868 0.57924 0.18252 0.0
C390 C 0.37723 0.74804 0.1227 0.0
C391 C 0.40286 0.76156 0.13359 0.0
C392 C 0.41563 0.74772 0.15897 0.0
C393 C 0.403 0.72146 0.17346 0.0
C394 C 0.37726 0.70853 0.16256 0.0
C395 C 0.36489 0.72163 0.13747 0.0
C396 C 0.33781 0.70423 0.12887 0.0
C397 C 0.3357 0.67899 0.15336 0.0
C398 C 0.35887 0.68172 0.17297 0.0
C399 C 0.312 0.72613 0.12923 0.0
C400 C 0.3432 0.69125 0.09893 0.0
H401 H 0.31485 0.58333 0.24 0.0
H402 H 0.40714 0.63127 0.27294 0.0
H403 H 0.41536 0.62718 0.2055 0.0
H404 H 0.41879 0.66388 0.18765 0.0
H405 H 0.43192 0.65758 0.22452 0.0
H406 H 0.3658 0.68659 0.2554 0.0
H407 H 0.40459 0.6903 0.25208 0.0
H408 H 0.38064 0.70966 0.22615 0.0
H409 H 0.23611 0.59214 0.1612 0.0
H410 H 0.24345 0.65361 0.08328 0.0
H411 H 0.28701 0.67612 0.10184 0.0
H412 H 0.25919 0.6396 0.20901 0.0
H413 H 0.25313 0.59885 0.21441 0.0
H414 H 0.28264 0.61792 0.23225 0.0
H415 H 0.3041 0.57522 0.15959 0.0
H416 H 0.31852 0.57343 0.19502 0.0
H417 H 0.28083 0.56281 0.18959 0.0
H418 H 0.33875 0.56156 0.28329 0.0
C419 C 0.33486 0.59414 0.24641 0.0
C420 C 0.03575 0.2903 0.58112 0.0
C421 C 0.0436 0.27562 0.55624 0.0
C422 C 0.06503 0.28952 0.53747 0.0
C423 C 0.07247 0.33027 0.56998 0.0
C424 C 0.05032 0.31754 0.58748 0.0
C425 C 0.04547 0.33531 0.61373 0.0
H426 H 0.09009 0.44788 0.69802 0.0
C427 C 0.0847 0.35721 0.5839 0.0
C428 C 0.06861 0.36058 0.6093 0.0
H429 H 0.01827 0.38301 0.71344 0.0
H430 H 0.02707 0.36207 0.66717 0.0
H431 H 0.07658 0.46541 0.63097 0.0
H432 H 0.13286 0.4004 0.67496 0.0
H433 H 0.15249 0.41783 0.64543 0.0
H434 H 0.1399 0.44104 0.67331 0.0
H435 H 0.11084 0.4768 0.64612 0.0
H436 H 0.10789 0.46503 0.60935 0.0
C437 C 0.0144 0.34806 0.61182 0.0
C438 C 0.05128 0.31387 0.64129 0.0
C439 C 0.17954 0.40822 0.54711 0.0
C440 C 0.19723 0.43186 0.55755 0.0
C441 C 0.18657 0.44886 0.57992 0.0
C442 C 0.15965 0.44128 0.59288 0.0
C443 C 0.14322 0.41622 0.58365 0.0
C444 C 0.15266 0.40083 0.56043 0.0
C445 C 0.13186 0.37517 0.55335 0.0
C446 C 0.10917 0.37691 0.57706 0.0
C447 C 0.11625 0.40074 0.59493 0.0
C448 C 0.11907 0.38281 0.52259 0.0
C449 C 0.14842 0.34477 0.5565 0.0
C450 C 0.07589 0.42954 0.69124 0.0
C451 C 0.05343 0.41711 0.70939 0.0
C452 C 0.03589 0.39278 0.69996 0.0
C453 C 0.041 0.38074 0.67305 0.0
C454 C 0.06409 0.39291 0.65552 0.0
C455 C 0.08083 0.41715 0.66461 0.0
C456 C 0.10493 0.42671 0.64375 0.0
C457 C 0.09984 0.40433 0.62042 0.0
C458 C 0.07606 0.38446 0.62751 0.0
C459 C 0.10013 0.46028 0.63197 0.0
C460 C 0.13418 0.42152 0.66 0.0
H461 H 0.09608 0.32586 0.52948 0.0
H462 H 0.01908 0.28039 0.59573 0.0
H463 H 0.06975 0.29871 0.63767 0.0
H464 H 0.05774 0.32634 0.66039 0.0
H465 H 0.03194 0.29895 0.64704 0.0
H466 H 1.0082 0.3542 0.5888 0.0
H467 H 0.9981 0.33086 0.621 0.0
H468 H 0.01245 0.36952 0.62287 0.0
H469 H 0.18687 0.39512 0.52957 0.0
H470 H 0.19971 0.46706 0.58854 0.0
H471 H 0.15323 0.45452 0.61038 0.0
H472 H 0.11861 0.40801 0.51728 0.0
H473 H 0.13218 0.37288 0.50556 0.0
H474 H 0.09616 0.37482 0.52074 0.0
H475 H 0.16182 0.34365 0.5767 0.0
H476 H 0.13398 0.32423 0.55834 0.0
H477 H 0.16324 0.34286 0.53776 0.0
H478 H 0.07155 0.27857 0.51824 0.0
C479 C 0.07945 0.3168 0.54418 0.0
Co480 Co 0.98932 1.00391 0.49601 0.0
C481 C 0.01473 0.94609 0.49632 0.0
Co482 Co 0.03066 0.99926 0.51982 0.0
C483 C 0.92982 0.0171 0.47898 0.0
C484 C 0.95295 0.99303 0.44785 0.0
N485 N 0.95582 1.005 0.47393 0.0
N486 N 0.91088 0.01319 0.45693 0.0
C487 C 0.92545 0.99794 0.43741 0.0
H488 H 0.92509 0.02886 0.49824 0.0
H489 H 0.96984 0.98138 0.4371 0.0
C490 C 1.00524 0.05699 0.51978 0.0
N491 N 0.06437 0.99818 0.5415 0.0
C492 C 0.09101 0.98935 0.53404 0.0
C493 C 0.06765 0.00836 0.56829 0.0
N494 N 0.1109 0.99376 0.55512 0.0
C495 C 0.09615 0.00571 0.5767 0.0
C496 C 0.03883 0.01988 0.46143 0.0
O497 O 0.98538 0.04557 0.50429 0.0
O498 O 0.0263 0.04058 0.52849 0.0
O499 O 0.05256 0.01306 0.48499 0.0
O500 O 0.01124 0.01722 0.46171 0.0
O501 O 0.0348 0.95773 0.51137 0.0
H502 H 0.05054 0.01788 0.58061 0.0
H503 H 0.09563 0.98013 0.51341 0.0
O504 O 0.99355 0.96239 0.48774 0.0
O505 O 0.96736 0.99058 0.53078 0.0
O506 O 1.00867 0.98563 0.55413 0.0
C507 C 0.98101 0.98345 0.55435 0.0
H508 H 0.91679 0.99042 0.41714 0.0
H509 H 0.10533 0.01303 0.59681 0.0
Co510 Co 0.49806 1.00005 0.98969 0.0
C511 C 0.49335 0.95298 0.03357 0.0
Co512 Co 0.5237 0.0086 0.02881 0.0
C513 C 0.486 0.99089 0.92949 0.0
C514 C 0.44802 0.98423 0.95615 0.0
N515 N 0.47657 0.99188 0.9571 0.0
N516 N 0.46446 0.98288 0.91134 0.0
C517 C 0.44049 0.97878 0.92803 0.0
H518 H 0.50827 0.99586 0.92286 0.0
H519 H 0.43373 0.9821 0.97482 0.0
C520 C 0.52833 0.0557 0.98478 0.0
N521 N 0.54493 0.01702 0.06153 0.0
C522 C 0.53491 0.01777 0.08896 0.0
C523 C 0.57238 0.02854 0.06236 0.0
N524 N 0.55474 0.03 0.1067 0.0
C525 C 0.57842 0.03673 0.09011 0.0
C526 C 0.55535 0.97882 0.98775 0.0
O527 O 0.51138 0.03822 0.97115 0.0
O528 O 0.53595 0.0473 0.01061 0.0
O529 O 0.55713 0.99003 0.01251 0.0
O530 O 0.53117 0.9801 0.97421 0.0
O531 O 0.51119 0.96981 0.04691 0.0
H532 H 0.58646 0.03244 0.04363 0.0
H533 H 0.51278 0.01158 0.09531 0.0
O534 O 0.48493 0.96202 0.00817 0.0
O535 O 0.46498 0.01997 1.00555 0.0
O536 O 0.49027 0.02718 0.04481 0.0
C537 C 0.46641 0.02975 0.03094 0.0
H538 H 0.41924 0.9714 0.92064 0.0
H539 H 0.59819 0.04794 0.09723 0.0
Co540 Co 0.52943 0.52004 0.50267 0.0
C541 C 0.48236 0.52147 0.46357 0.0
Co542 Co 0.48953 0.49622 0.51966 0.0
C543 C 0.58994 0.5361 0.49065 0.0
C544 C 0.56067 0.56874 0.47098 0.0
N545 N 0.56144 0.54225 0.48781 0.0
N546 N 0.60689 0.5576 0.47599 0.0
C547 C 0.58854 0.57813 0.46355 0.0
H548 H 0.59804 0.51593 0.50267 0.0
H549 H 0.54104 0.58041 0.4644 0.0
C550 C 0.53661 0.49445 0.55863 0.0
N551 N 0.45739 0.47386 0.53411 0.0
C552 C 0.42893 0.4792 0.52949 0.0
C553 C 0.45789 0.44644 0.54942 0.0
N554 N 0.4117 0.45598 0.54101 0.0
C555 C 0.42989 0.43542 0.5537 0.0
C556 C 0.5274 0.45982 0.49082 0.0
O557 O 0.54934 0.51132 0.53868 0.0
O558 O 0.51054 0.48528 0.55459 0.0
O559 O 0.50273 0.46065 0.50295 0.0
O560 O 0.54373 0.48374 0.48868 0.0
O561 O 0.46898 0.50723 0.4847 0.0
H562 H 0.47743 0.43474 0.55625 0.0
H563 H 0.42108 0.4991 0.51685 0.0
O564 O 0.50915 0.52854 0.46658 0.0
O565 O 0.515 0.55605 0.51672 0.0
O566 O 0.47641 0.53218 0.53606 0.0
C567 C 0.49149 0.55677 0.53095 0.0
H568 H 0.59487 0.59855 0.45017 0.0
H569 H 0.42347 0.41377 0.56502 0.0
Co570 Co 0.02307 0.50444 0.98774 0.0
C571 C 0.96784 0.4773 0.98563 0.0
Co572 Co 0.99937 0.50492 0.02923 0.0
C573 C 0.03932 0.48773 0.93042 0.0
C574 C 0.0608 0.52912 0.94213 0.0
N575 N 0.04264 0.50623 0.95254 0.0
N576 N 0.05433 0.49844 0.90651 0.0
C577 C 0.06806 0.52437 0.91393 0.0
H578 H 0.0249 0.46774 0.93128 0.0
H579 H 0.06736 0.54879 0.95379 0.0
C580 C 0.0545 0.53207 0.03141 0.0
N581 N 0.97976 0.50307 0.06448 0.0
C582 C 0.98414 0.52055 0.08721 0.0
C583 C 0.96086 0.48065 0.07444 0.0
N584 N 0.96914 0.50962 0.11104 0.0
C585 C 0.95427 0.48464 0.10296 0.0
C586 C 0.03417 0.45309 0.02475 0.0
O587 O 0.05511 0.52563 1.00496 0.0
O588 O 0.03186 0.52507 0.04634 0.0
O589 O 0.01632 0.46605 0.04067 0.0
O590 O 0.04034 0.46586 0.99969 0.0
O591 O 0.96716 0.48463 0.01181 0.0
H592 H 0.95344 0.46165 0.06228 0.0
H593 H 0.99941 0.53983 0.08688 0.0
O594 O 0.99077 0.48341 0.97084 0.0
O595 O 1.00569 0.54268 0.97607 0.0
O596 O 0.98248 0.54411 0.01738 0.0
C597 C 0.98824 0.5562 0.99193 0.0
H598 H 0.08176 0.53933 0.89978 0.0
H599 H 0.94034 0.4697 0.11691 0.0
H600 H 0.0744 0.09678 0.28582 0.0
H601 H 0.09795 0.03024 0.45153 0.0
H602 H 0.15961 0.08907 0.32442 0.0
H603 H 0.01482 0.03603 0.40818 0.0
H604 H 0.1216 0.05052 0.40596 0.0
H605 H 0.05311 0.07338 0.33065 0.0
C606 C 0.08873 0.0902 0.30376 0.0
C607 C 0.11895 0.09535 0.30119 0.0
C608 C 0.0982 0.04724 0.40645 0.0
C609 C 0.09437 0.06804 0.35332 0.0
C610 C 0.08464 0.03565 0.4325 0.0
C611 C 0.05422 0.03139 0.43393 0.0
C612 C 0.08127 0.05472 0.38152 0.0
C613 C 0.03826 0.03888 0.4084 0.0
C614 C 0.07649 0.07666 0.32947 0.0
C615 C 0.13625 0.08557 0.32523 0.0
N616 N 0.05189 0.05014 0.38352 0.0
N617 N 0.12374 0.07264 0.35029 0.0
H618 H 0.42348 0.95754 0.73322 0.0
H619 H 0.51145 0.96372 0.88277 0.0
H620 H 0.50886 0.92014 0.74553 0.0
H621 H 0.42255 0.9906 0.87041 0.0
H622 H 0.51353 0.95263 0.83139 0.0
H623 H 0.42565 0.97507 0.78197 0.0
C624 C 0.44298 0.95345 0.74599 0.0
C625 C 0.46616 0.93752 0.73507 0.0
C626 C 0.49364 0.96109 0.83993 0.0
C627 C 0.46839 0.95692 0.79165 0.0
C628 C 0.49249 0.96761 0.86918 0.0
C629 C 0.4667 0.97793 0.88089 0.0
C630 C 0.46888 0.96514 0.82232 0.0
C631 C 0.44268 0.98224 0.8624 0.0
C632 C 0.44405 0.96322 0.77404 0.0
C633 C 0.49044 0.93217 0.75312 0.0
N634 N 0.44435 0.97578 0.83409 0.0
N635 N 0.4909 0.94178 0.78061 0.0
H636 H 0.64627 0.47543 0.71328 0.0
H637 H 0.52228 0.44608 0.59707 0.0
H638 H 0.60957 0.38533 0.70047 0.0
H639 H 0.58679 0.51884 0.58153 0.0
H640 H 0.54924 0.42753 0.64032 0.0
H641 H 0.62075 0.49535 0.66945 0.0
C642 C 0.63309 0.45971 0.70133 0.0
C643 C 0.63005 0.42854 0.71106 0.0
C644 C 0.55747 0.44759 0.62747 0.0
C645 C 0.6001 0.45162 0.66123 0.0
C646 C 0.54201 0.45832 0.60287 0.0
C647 C 0.55229 0.48407 0.58561 0.0
C648 C 0.58319 0.46298 0.63531 0.0
C649 C 0.57812 0.49886 0.59417 0.0
C650 C 0.61839 0.47123 0.67636 0.0
C651 C 0.61213 0.40963 0.6946 0.0
N652 N 0.59262 0.48822 0.61854 0.0
N653 N 0.59771 0.4215 0.67077 0.0
H654 H 0.98633 0.61712 0.26045 0.0
H655 H 0.96292 0.47516 0.16206 0.0
H656 H 0.97423 0.52331 0.2949 0.0
H657 H 0.98181 0.56738 0.1263 0.0
H658 H 0.96801 0.49261 0.21088 0.0
H659 H 0.98725 0.59946 0.21124 0.0
C660 C 0.98438 0.59276 0.25771 0.0
C661 C 0.98 0.57166 0.28182 0.0
C662 C 0.97109 0.50908 0.1924 0.0
C663 C 0.98042 0.55138 0.22557 0.0
C664 C 0.96789 0.49916 0.16445 0.0
C665 C 0.97169 0.51989 0.14 0.0
C666 C 0.97803 0.54003 0.19605 0.0
C667 C 0.97883 0.55061 0.14453 0.0
C668 C 0.98465 0.58272 0.22959 0.0
C669 C 0.97718 0.54042 0.27692 0.0
N670 N 0.98164 0.5598 0.17203 0.0
N671 N 0.97723 0.53126 0.24937 0.0
H672 H 0.29638 0.10339 0.06915 0.0
H673 H 0.46061 0.04609 0.08717 0.0
H674 H 0.33968 0.08911 0.15204 0.0
H675 H 0.41264 0.04307 1.00672 0.0
H676 H 0.41777 0.06566 0.11022 0.0
H677 H 0.33962 0.08543 0.04511 0.0
C678 C 0.31498 0.09669 0.08235 0.0
C679 C 0.31408 0.09779 0.11284 0.0
C680 C 0.41655 0.0608 0.08751 0.0
C681 C 0.36402 0.07701 0.08521 0.0
C682 C 0.44114 0.04966 0.07423 0.0
C683 C 0.44047 0.04282 0.04481 0.0
C684 C 0.39084 0.0655 0.07137 0.0
C685 C 0.41434 0.04794 0.0294 0.0
C686 C 0.33966 0.08623 0.06856 0.0
C687 C 0.33897 0.08837 0.1286 0.0
N688 N 0.39072 0.05898 0.04278 0.0
N689 N 0.36276 0.07855 0.11468 0.0
H690 H 0.28716 0.95018 0.51052 0.0
H691 H 0.14753 0.98741 0.60138 0.0
H692 H 0.28996 0.98152 0.59735 0.0
H693 H 0.14502 0.98738 0.50755 0.0
H694 H 0.1996 0.98074 0.60014 0.0
H695 H 0.23482 0.96006 0.50851 0.0
C696 C 0.27687 0.95946 0.52895 0.0
C697 C 0.29299 0.96522 0.55405 0.0
C698 C 0.18769 0.98232 0.57977 0.0
C699 C 0.23343 0.97602 0.55208 0.0
C700 C 0.15784 0.98623 0.58044 0.0
C701 C 0.14167 0.98833 0.55452 0.0
C702 C 0.20167 0.98012 0.55302 0.0
C703 C 0.15643 0.9857 0.52813 0.0
C704 C 0.24709 0.9651 0.52779 0.0
C705 C 0.2786 0.97724 0.57734 0.0
N706 N 0.18565 0.98169 0.52805 0.0
N707 N 0.24967 0.98197 0.57587 0.0
H708 H 0.83689 0.40979 0.86674 0.0
H709 H 0.91693 0.45812 0.01246 0.0
H710 H 0.79978 0.39598 0.95273 0.0
H711 H 0.95902 0.46412 0.92858 0.0
H712 H 0.87345 0.43658 0.9903 0.0
H713 H 0.88108 0.43159 0.88816 0.0
C714 C 0.83794 0.41148 0.89008 0.0
C715 C 0.81457 0.40083 0.90795 0.0
C716 C 0.89218 0.44251 0.97669 0.0
C717 C 0.86518 0.42562 0.93263 0.0
C718 C 0.91709 0.45483 0.98937 0.0
C719 C 0.94176 0.46297 0.9724 0.0
C720 C 0.89168 0.43836 0.9467 0.0
C721 C 0.94056 0.45813 0.94254 0.0
C722 C 0.86326 0.42374 0.90231 0.0
C723 C 0.81734 0.40339 0.9381 0.0
N724 N 0.91593 0.44624 0.93063 0.0
N725 N 0.84208 0.41549 0.94941 0.0
H726 H 0.79302 0.56703 0.50403 0.0
H727 H 0.63768 0.57691 0.42821 0.0
H728 H 0.77964 0.56454 0.41143 0.0
H729 H 0.64679 0.53968 0.51688 0.0
H730 H 0.6905 0.57892 0.42332 0.0
H731 H 0.73993 0.56283 0.51103 0.0
C732 C 0.77892 0.56548 0.48527 0.0
C733 C 0.79064 0.56585 0.45715 0.0
C734 C 0.68099 0.57022 0.44385 0.0
C735 C 0.73044 0.56156 0.46488 0.0
C736 C 0.65089 0.56926 0.44668 0.0
C737 C 0.63797 0.55816 0.47297 0.0
C738 C 0.69841 0.56042 0.46763 0.0
C739 C 0.65603 0.54817 0.49619 0.0
C740 C 0.74877 0.56297 0.48926 0.0
C741 C 0.77153 0.56386 0.43351 0.0
N742 N 0.68546 0.54975 0.49307 0.0
N743 N 0.74242 0.56201 0.4379 0.0
H744 H 0.10807 0.30711 0.1379 0.0
H745 H 0.06987 0.41575 0.99566 0.0
H746 H 0.13132 0.28596 0.05093 0.0
H747 H 0.03172 0.42472 0.07994 0.0
H748 H 0.09454 0.36979 0.01559 0.0
H749 H 0.082 0.35144 0.1173 0.0
C750 C 0.10761 0.31146 0.11447 0.0
C751 C 0.12214 0.29227 0.09632 0.0
C752 C 0.08069 0.38175 0.0297 0.0
C753 C 0.09244 0.34407 0.07242 0.0
C754 C 0.06656 0.40806 0.01831 0.0
C755 C 0.04855 0.42429 0.03605 0.0
C756 C 0.07712 0.3716 0.0592 0.0
C757 C 0.04525 0.41306 0.06531 0.0
C758 C 0.09277 0.33707 0.1027 0.0
C759 C 0.12102 0.30005 0.06606 0.0
N760 N 0.05944 0.38765 0.07592 0.0
N761 N 0.1066 0.32523 0.05517 0.0
H762 H 0.61761 0.23127 0.9457 0.0
H763 H 0.52157 0.07789 0.92797 0.0
H764 H 0.58862 0.20133 0.86276 0.0
H765 H 0.56223 0.09992 0.00881 0.0
H766 H 0.54308 0.12498 0.90437 0.0
H767 H 0.59523 0.18488 0.96973 0.0
C768 C 0.60671 0.21493 0.93248 0.0
C769 C 0.60504 0.22041 0.90207 0.0
C770 C 0.54725 0.11955 0.92729 0.0
C771 C 0.57889 0.16731 0.92962 0.0
C772 C 0.53488 0.09269 0.94082 0.0
C773 C 0.54009 0.08487 0.97044 0.0
C774 C 0.56489 0.13888 0.94349 0.0
C775 C 0.55762 0.10496 0.98593 0.0
C776 C 0.59376 0.18849 0.94627 0.0
C777 C 0.59012 0.19849 0.88625 0.0
N778 N 0.56937 0.13099 0.97228 0.0
N779 N 0.57764 0.17302 0.90018 0.0
H780 H 0.98137 0.77485 0.41934 0.0
H781 H 0.03848 0.89761 0.52826 0.0
H782 H 0.99104 0.75173 0.51146 0.0
H783 H 0.99046 0.92091 0.4495 0.0
H784 H 0.03263 0.84301 0.519 0.0
H785 H 0.9965 0.82767 0.42688 0.0
C786 C 0.98711 0.78081 0.44111 0.0
C787 C 0.9849 0.75895 0.46485 0.0
C788 C 0.02368 0.8602 0.50368 0.0
C789 C 1.00212 0.81933 0.47359 0.0
C790 C 0.02717 0.89124 0.50881 0.0
C791 C 0.01478 0.91365 0.48966 0.0
C792 C 1.00828 0.8518 0.47894 0.0
C793 C 1.00014 0.90429 0.4649 0.0
C794 C 0.99555 0.81097 0.44541 0.0
C795 C 0.99223 0.76802 0.49265 0.0
N796 N 0.99731 0.87409 0.46024 0.0
N797 N 1.00053 0.79762 0.49631 0.0
H798 H 0.44699 0.74588 0.52338 0.0
H799 H 0.44993 0.56817 0.57149 0.0
H800 H 0.42421 0.713 0.61107 0.0
H801 H 0.50974 0.61322 0.50919 0.0
H802 H 0.433 0.61885 0.58315 0.0
H803 H 0.4623 0.69447 0.51393 0.0
C804 C 0.44504 0.7277 0.54056 0.0
C805 C 0.43438 0.73352 0.56801 0.0
C806 C 0.44992 0.61741 0.56706 0.0
C807 C 0.45171 0.67481 0.55738 0.0
C808 C 0.4595 0.58864 0.56036 0.0
C809 C 0.4813 0.58654 0.53942 0.0
C810 C 0.46181 0.64395 0.55216 0.0
C811 C 0.49301 0.61373 0.5256 0.0
C812 C 0.45391 0.69849 0.53524 0.0
C813 C 0.43251 0.7093 0.58967 0.0
N814 N 0.48294 0.64124 0.53204 0.0
N815 N 0.44096 0.6808 0.58385 0.0
H816 H 0.85137 0.93026 0.68898 0.0
H817 H 1.00441 0.96417 0.60726 0.0
H818 H 0.93466 0.91118 0.72852 0.0
H819 H 0.92171 0.9776 0.56454 0.0
H820 H 0.97898 0.94606 0.65196 0.0
H821 H 0.87627 0.94904 0.64396 0.0
C822 C 0.87488 0.93014 0.68838 0.0
C823 C 0.89077 0.91897 0.71293 0.0
C824 C 0.96631 0.95294 0.63287 0.0
C825 C 0.91962 0.94044 0.66085 0.0
C826 C 0.98086 0.96336 0.6072 0.0
C827 C 0.9653 0.9725 0.58183 0.0
C828 C 0.93575 0.95159 0.63357 0.0
C829 C 0.93473 0.97082 0.58341 0.0
C830 C 0.88911 0.94074 0.66248 0.0
C831 C 0.92127 0.91909 0.71029 0.0
N832 N 0.92103 0.96064 0.60873 0.0
N833 N 0.93456 0.92964 0.68493 0.0
H834 H 0.54033 0.13436 0.2562 0.0
H835 H 0.52357 0.99882 0.14945 0.0
H836 H 0.5265 0.04017 0.28872 0.0
H837 H 0.57344 0.08241 0.12919 0.0
H838 H 0.51401 0.01583 0.19828 0.0
H839 H 0.54031 0.118 0.20657 0.0
C840 C 0.53649 0.11032 0.25285 0.0
C841 C 0.5335 0.08855 0.27658 0.0
C842 C 0.52701 0.03037 0.18306 0.0
C843 C 0.53399 0.06968 0.21994 0.0
C844 C 0.53246 0.02071 0.15535 0.0
C845 C 0.5496 0.03911 0.13556 0.0
C846 C 0.53827 0.0589 0.19061 0.0
C847 C 0.56059 0.06733 0.14405 0.0
C848 C 0.53686 0.10098 0.22456 0.0
C849 C 0.52909 0.05761 0.27097 0.0
N850 N 0.55463 0.07643 0.1709 0.0
N851 N 0.52964 0.04902 0.24316 0.0
H852 H 0.35117 0.56982 0.33327 0.0
H853 H 0.50518 0.54821 0.41273 0.0
H854 H 0.43375 0.58827 0.2905 0.0
H855 H 0.42402 0.51535 0.45174 0.0
H856 H 0.47902 0.56409 0.36817 0.0
H857 H 0.377 0.55027 0.37704 0.0
C858 C 0.37468 0.56955 0.33293 0.0
C859 C 0.39023 0.581 0.30809 0.0
C860 C 0.46691 0.55329 0.38641 0.0
C861 C 0.41999 0.55901 0.35839 0.0
C862 C 0.48186 0.54424 0.41192 0.0
C863 C 0.46682 0.5304 0.43608 0.0
C864 C 0.43659 0.54873 0.38499 0.0
C865 C 0.43656 0.52588 0.43367 0.0
C866 C 0.38944 0.55853 0.35802 0.0
C867 C 0.42076 0.58034 0.30922 0.0
N868 N 0.42244 0.53513 0.40866 0.0
N869 N 0.43456 0.56972 0.3339 0.0
H870 H 0.04284 0.38403 0.76132 0.0
H871 H 0.06124 0.53086 0.85448 0.0
H872 H 0.05538 0.47671 0.72389 0.0
H873 H 0.04396 0.43951 0.89332 0.0
H874 H 0.05842 0.51108 0.80647 0.0
H875 H 0.04117 0.40365 0.80976 0.0
C876 C 0.04483 0.40853 0.76325 0.0
C877 C 0.04944 0.42876 0.73855 0.0
C878 C 0.05522 0.4953 0.82546 0.0
C879 C 0.04804 0.45128 0.79386 0.0
C880 C 0.0571 0.50656 0.85295 0.0
C881 C 0.05306 0.48678 0.87804 0.0
C882 C 0.04933 0.46394 0.82288 0.0
C883 C 0.04705 0.45559 0.87458 0.0
C884 C 0.0441 0.41969 0.79092 0.0
C885 C 0.05226 0.46024 0.74237 0.0
N886 N 0.04547 0.4451 0.84749 0.0
N887 N 0.05167 0.47049 0.76949 0.0
H888 H 0.72762 0.9463 0.91812 0.0
H889 H 0.55641 0.93623 0.94654 0.0
H890 H 0.6779 0.86267 0.90885 0.0
H891 H 0.61347 0.99048 0.99819 0.0
H892 H 0.5992 0.91446 0.92469 0.0
H893 H 0.68464 0.96858 0.93944 0.0
C894 C 0.70759 0.93275 0.92028 0.0
C895 C 0.7064 0.90255 0.91167 0.0
C896 C 0.60233 0.93112 0.94082 0.0
C897 C 0.65697 0.92806 0.93572 0.0
C898 C 0.57791 0.94362 0.95328 0.0
C899 C 0.58122 0.96513 0.97446 0.0
C900 C 0.63045 0.94075 0.94886 0.0
C901 C 0.60977 0.9738 0.98219 0.0
C902 C 0.68314 0.9454 0.93263 0.0
C903 C 0.67985 0.88598 0.91525 0.0
N904 N 0.63318 0.96187 0.96924 0.0
N905 N 0.65621 0.89898 0.92671 0.0
H906 H 0.73572 0.07304 0.48459 0.0
H907 H 0.8804 0.02449 0.40708 0.0
H908 H 0.74 0.0476 0.39587 0.0
H909 H 0.87368 0.02472 0.50057 0.0
H910 H 0.82976 0.03803 0.40267 0.0
H911 H 0.78702 0.05987 0.49112 0.0
C912 C 0.74741 0.06455 0.46659 0.0
C913 C 0.73358 0.06116 0.43972 0.0
C914 C 0.83928 0.03505 0.4242 0.0
C915 C 0.79196 0.04647 0.4469 0.0
C916 C 0.86826 0.02718 0.42675 0.0
C917 C 0.88131 0.02299 0.45428 0.0
C918 C 0.82307 0.03902 0.44931 0.0
C919 C 0.86456 0.0278 0.47892 0.0
C920 C 0.77658 0.057 0.47033 0.0
C921 C 0.74963 0.05006 0.41709 0.0
N922 N 0.83621 0.0355 0.47587 0.0
N923 N 0.77796 0.04327 0.42116 0.0
H924 H 0.21095 0.56262 0.131 0.0
H925 H 0.09493 0.57211 1.0056 0.0
H926 H 0.195 0.64954 0.08362 0.0
H927 H 0.07288 0.52407 0.08792 0.0
H928 H 0.13819 0.59454 0.02843 0.0
H929 H 0.16601 0.54189 0.11071 0.0
C930 C 0.19817 0.57758 0.11662 0.0
C931 C 0.20741 0.6081 0.1091 0.0
C932 C 0.12378 0.57913 0.04143 0.0
C933 C 0.15634 0.58367 0.08484 0.0
C934 C 0.09922 0.56629 0.02845 0.0
C935 C 0.08027 0.54636 0.04496 0.0
C936 C 0.12992 0.57118 0.07084 0.0
C937 C 0.08684 0.53955 0.0745 0.0
C938 C 0.17256 0.5655 0.10489 0.0
C939 C 0.18973 0.6257 0.0896 0.0
N940 N 0.11135 0.55162 0.08644 0.0
N941 N 0.16537 0.61314 0.07792 0.0
H942 H 0.22788 0.48634 0.54647 0.0
H943 H 0.37972 0.40312 0.54008 0.0
H944 H 0.23656 0.3883 0.54716 0.0
H945 H 0.3725 0.50141 0.53655 0.0
H946 H 0.32693 0.39775 0.53864 0.0
H947 H 0.28024 0.49292 0.5382 0.0
C948 C 0.24074 0.46622 0.54456 0.0
C949 C 0.22782 0.4367 0.54776 0.0
C950 C 0.33682 0.42054 0.53804 0.0
C951 C 0.28773 0.44406 0.53839 0.0
C952 C 0.367 0.4236 0.5391 0.0
C953 C 0.38055 0.45275 0.53883 0.0
C954 C 0.3199 0.44682 0.5369 0.0
C955 C 0.36295 0.47852 0.53677 0.0
C956 C 0.27061 0.47 0.5398 0.0
C957 C 0.24547 0.41149 0.54464 0.0
N958 N 0.3335 0.47495 0.53615 0.0
N959 N 0.27452 0.41574 0.54046 0.0
H960 H 0.91884 0.69589 0.87064 0.0
H961 H 0.95135 0.59469 0.01903 0.0
H962 H 0.89368 0.72521 0.95426 0.0
H963 H 0.9918 0.58264 0.93641 0.0
H964 H 0.92684 0.63997 0.99661 0.0
H965 H 0.94169 0.65167 0.89498 0.0
C966 C 0.91823 0.69328 0.89419 0.0
C967 C 0.9046 0.71502 0.91025 0.0
C968 C 0.94117 0.62741 0.98349 0.0
C969 C 0.93066 0.6632 0.93865 0.0
C970 C 0.9552 0.60154 0.99628 0.0
C971 C 0.97383 0.58465 0.9797 0.0
C972 C 0.94547 0.6363 0.95379 0.0
C973 C 0.9778 0.59475 0.95024 0.0
C974 C 0.93126 0.66773 0.90814 0.0
C975 C 0.90382 0.70926 0.94079 0.0
N976 N 0.96374 0.61961 0.93835 0.0
N977 N 0.91672 0.68404 0.95396 0.0
H978 H 0.42951 0.81017 0.15876 0.0
H979 H 0.46037 0.90876 0.00871 0.0
H980 H 0.407 0.77806 0.07479 0.0
H981 H 0.49867 0.93085 0.09063 0.0
H982 H 0.43865 0.86207 0.03271 0.0
H983 H 0.45276 0.85572 0.13442 0.0
C984 C 0.42959 0.81251 0.13519 0.0
C985 C 0.41635 0.78995 0.11887 0.0
C986 C 0.45191 0.87704 0.04542 0.0
C987 C 0.44264 0.84264 0.0908 0.0
C988 C 0.46433 0.90375 0.03174 0.0
C989 C 0.48141 0.92381 0.04767 0.0
C990 C 0.45631 0.87038 0.07537 0.0
C991 C 0.48576 0.91604 0.07745 0.0
C992 C 0.4428 0.83868 0.12131 0.0
C993 C 0.4166 0.79486 0.08836 0.0
N994 N 0.47316 0.89004 0.09036 0.0
N995 N 0.4295 0.82064 0.07535 0.0
H996 H 0.02373 0.25333 0.50518 0.0
H997 H 0.02896 0.08092 0.56741 0.0
H998 H 0.03694 0.22711 0.59628 0.0
H999 H 0.98134 0.10613 0.48886 0.0
H1000 H 0.03318 0.13483 0.57748 0.0
H1001 H 1.00905 0.20008 0.49742 0.0
C1002 C 0.02326 0.23644 0.52356 0.0
C1003 C 0.03163 0.24458 0.55139 0.0
C1004 C 0.02149 0.12863 0.55821 0.0
C1005 C 0.01519 0.18391 0.54266 0.0
C1006 C 0.01916 0.09787 0.55241 0.0
C1007 C 1.00488 0.08917 0.52722 0.0
C1008 C 0.01003 0.15099 0.53836 0.0
C1009 C 0.99245 0.112 0.50856 0.0
C1010 C 0.01475 0.20617 0.51915 0.0
C1011 C 0.03045 0.2219 0.57451 0.0
N1012 N 0.99571 0.14203 0.51426 0.0
N1013 N 0.02277 0.19256 0.56955 0.0
H1014 H 0.60039 0.28318 0.48871 0.0
H1015 H 0.49488 0.41709 0.4642 0.0
H1016 H 0.5579 0.29586 0.40484 0.0
H1017 H 0.58182 0.43694 0.49423 0.0
H1018 H 0.51098 0.36736 0.44945 0.0
H1019 H 0.58767 0.33513 0.49868 0.0
C1020 C 0.58868 0.29672 0.4722 0.0
C1021 C 0.58039 0.28472 0.44573 0.0
C1022 C 0.52647 0.3828 0.45908 0.0
C1023 C 0.56475 0.34377 0.45791 0.0
C1024 C 0.51736 0.41095 0.46754 0.0
C1025 C 0.53717 0.43094 0.48029 0.0
C1026 C 0.55524 0.37432 0.46441 0.0
C1027 C 0.56603 0.42211 0.48424 0.0
C1028 C 0.58131 0.32633 0.47811 0.0
C1029 C 0.56429 0.30349 0.42582 0.0
N1030 N 0.57417 0.3941 0.47676 0.0
N1031 N 0.55668 0.33194 0.43248 0.0
loop_
_geom_bond_atom_site_label_1
_geom_bond_atom_site_label_2
_geom_bond_distance
_geom_bond_site_symmetry_2
_ccdc_geom_bond_type
C0 C1 1.391 . S
C0 C4 1.391 . S
C0 H42 0.948 . S
C1 C0 1.391 . S
C1 C2 1.391 . S
C2 C1 1.391 . S
C2 H58 0.947 . S
C2 C59 1.392 . S
C3 C4 1.391 . S
C3 C7 1.397 . S
C3 C59 1.419 . S
C4 C0 1.391 . S
C4 C3 1.391 . S
C4 C5 1.399 . S
C5 C4 1.399 . S
C5 C8 1.396 . S
C5 C17 1.453 . S
C5 C18 1.684 . S
H6 C30 0.948 . S
C7 C3 1.397 . S
C7 C8 1.394 . S
C7 C26 1.723 . S
C8 C5 1.396 . S
C8 C7 1.394 . S
C8 C38 1.723 . S
H9 C32 0.947 . S
H10 C33 0.948 . S
H11 C39 0.982 . S
H12 C40 0.979 . S
H13 C40 0.980 . S
H14 C40 0.983 . S
H15 C39 0.979 . S
H16 C39 0.977 . S
C17 C5 1.453 . S
C17 H46 0.982 . S
C17 H47 0.979 . S
C17 H48 0.977 . S
C18 C5 1.684 . S
C18 H43 0.979 . S
C18 H44 0.980 . S
C18 H45 0.983 . S
C19 C20 1.391 . S
C19 C24 1.391 . S
C19 H49 0.948 . S
C20 C19 1.391 . S
C20 C21 1.391 . S
C21 C20 1.391 . S
C21 C22 1.392 . S
C21 H50 0.947 . S
C22 C21 1.392 . S
C22 C23 1.419 . S
C22 H51 0.948 . S
C23 C22 1.419 . S
C23 C24 1.391 . S
C23 C27 1.397 . S
C24 C19 1.391 . S
C24 C23 1.391 . S
C24 C25 1.399 . S
C25 C24 1.399 . S
C25 C26 1.396 . S
C25 C28 1.453 . S
C25 C29 1.684 . S
C26 C7 1.723 . S
C26 C25 1.396 . S
C26 C27 1.394 . S
C27 C23 1.397 . S
C27 C26 1.394 . S
C27 C37 1.723 . S
C28 C25 1.453 . S
C28 H52 0.982 . S
C28 H53 0.979 . S
C28 H54 0.977 . S
C29 C25 1.684 . S
C29 H55 0.979 . S
C29 H56 0.980 . S
C29 H57 0.983 . S
C30 H6 0.948 . S
C30 C31 1.391 . S
C30 C35 1.391 . S
C31 C30 1.391 . S
C31 C32 1.391 . S
C32 H9 0.947 . S
C32 C31 1.391 . S
C32 C33 1.392 . S
C33 H10 0.948 . S
C33 C32 1.392 . S
C33 C34 1.419 . S
C34 C33 1.419 . S
C34 C35 1.391 . S
C34 C38 1.397 . S
C35 C30 1.391 . S
C35 C34 1.391 . S
C35 C36 1.399 . S
C36 C35 1.399 . S
C36 C37 1.396 . S
C36 C39 1.453 . S
C36 C40 1.684 . S
C37 C27 1.723 . S
C37 C36 1.396 . S
C37 C38 1.394 . S
C38 C8 1.723 . S
C38 C34 1.397 . S
C38 C37 1.394 . S
C39 H11 0.982 . S
C39 H15 0.979 . S
C39 H16 0.977 . S
C39 C36 1.453 . S
C40 H12 0.979 . S
C40 H13 0.980 . S
C40 H14 0.983 . S
C40 C36 1.684 . S
H41 C59 0.948 . S
H42 C0 0.948 . S
H43 C18 0.979 . S
H44 C18 0.980 . S
H45 C18 0.983 . S
H46 C17 0.982 . S
H47 C17 0.979 . S
H48 C17 0.977 . S
H49 C19 0.948 . S
H50 C21 0.947 . S
H51 C22 0.948 . S
H52 C28 0.982 . S
H53 C28 0.979 . S
H54 C28 0.977 . S
H55 C29 0.979 . S
H56 C29 0.980 . S
H57 C29 0.983 . S
H58 C2 0.947 . S
C59 C2 1.392 . S
C59 C3 1.419 . S
C59 H41 0.948 . S
C60 C61 1.391 . S
C60 C64 1.391 . S
C60 H102 0.948 . S
C61 C60 1.391 . S
C61 C62 1.391 . S
C62 C61 1.391 . S
C62 H118 0.947 . S
C62 C119 1.392 . S
C63 C64 1.391 . S
C63 C67 1.397 . S
C63 C119 1.419 . S
C64 C60 1.391 . S
C64 C63 1.391 . S
C64 C65 1.399 . S
C65 C64 1.399 . S
C65 C68 1.396 . S
C65 C77 1.453 . S
C65 C78 1.684 . S
H66 C90 0.948 . S
C67 C63 1.397 . S
C67 C68 1.394 . S
C67 C86 1.723 . S
C68 C65 1.396 . S
C68 C67 1.394 . S
C68 C98 1.723 . S
H69 C92 0.947 . S
H70 C93 0.948 . S
H71 C99 0.982 . S
H72 C100 0.979 . S
H73 C100 0.980 . S
H74 C100 0.983 . S
H75 C99 0.979 . S
H76 C99 0.977 . S
C77 C65 1.453 . S
C77 H106 0.982 . S
C77 H107 0.979 . S
C77 H108 0.977 . S
C78 C65 1.684 . S
C78 H103 0.979 . S
C78 H104 0.980 . S
C78 H105 0.983 . S
C79 C80 1.391 . S
C79 C84 1.391 . S
C79 H109 0.948 . S
C80 C79 1.391 . S
C80 C81 1.391 . S
C81 C80 1.391 . S
C81 C82 1.392 . S
C81 H110 0.947 . S
C82 C81 1.392 . S
C82 C83 1.419 . S
C82 H111 0.948 . S
C83 C82 1.419 . S
C83 C84 1.391 . S
C83 C87 1.397 . S
C84 C79 1.391 . S
C84 C83 1.391 . S
C84 C85 1.399 . S
C85 C84 1.399 . S
C85 C86 1.396 . S
C85 C88 1.453 . S
C85 C89 1.684 . S
C86 C67 1.723 . S
C86 C85 1.396 . S
C86 C87 1.394 . S
C87 C83 1.397 . S
C87 C86 1.394 . S
C87 C97 1.723 . S
C88 C85 1.453 . S
C88 H112 0.982 . S
C88 H113 0.979 . S
C88 H114 0.977 . S
C89 C85 1.684 . S
C89 H115 0.979 . S
C89 H116 0.980 . S
C89 H117 0.983 . S
C90 H66 0.948 . S
C90 C91 1.391 . S
C90 C95 1.391 . S
C91 C90 1.391 . S
C91 C92 1.391 . S
C92 H69 0.947 . S
C92 C91 1.391 . S
C92 C93 1.392 . S
C93 H70 0.948 . S
C93 C92 1.392 . S
C93 C94 1.419 . S
C94 C93 1.419 . S
C94 C95 1.391 . S
C94 C98 1.397 . S
C95 C90 1.391 . S
C95 C94 1.391 . S
C95 C96 1.399 . S
C96 C95 1.399 . S
C96 C97 1.396 . S
C96 C99 1.453 . S
C96 C100 1.684 . S
C97 C87 1.723 . S
C97 C96 1.396 . S
C97 C98 1.394 . S
C98 C68 1.723 . S
C98 C94 1.397 . S
C98 C97 1.394 . S
C99 H71 0.982 . S
C99 H75 0.979 . S
C99 H76 0.977 . S
C99 C96 1.453 . S
C100 H72 0.979 . S
C100 H73 0.980 . S
C100 H74 0.983 . S
C100 C96 1.684 . S
H101 C119 0.948 . S
H102 C60 0.948 . S
H103 C78 0.979 . S
H104 C78 0.980 . S
H105 C78 0.983 . S
H106 C77 0.982 . S
H107 C77 0.979 . S
H108 C77 0.977 . S
H109 C79 0.948 . S
H110 C81 0.947 . S
H111 C82 0.948 . S
H112 C88 0.982 . S
H113 C88 0.979 . S
H114 C88 0.977 . S
H115 C89 0.979 . S
H116 C89 0.980 . S
H117 C89 0.983 . S
H118 C62 0.947 . S
C119 C62 1.392 . S
C119 C63 1.419 . S
C119 H101 0.948 . S
C120 C121 1.391 . S
C120 C124 1.391 . S
C120 H162 0.948 . S
C121 C120 1.391 . S
C121 C122 1.391 . S
C122 C121 1.391 . S
C122 H178 0.947 . S
C122 C179 1.392 . S
C123 C124 1.391 . S
C123 C127 1.397 . S
C123 C179 1.419 . S
C124 C120 1.391 . S
C124 C123 1.391 . S
C124 C125 1.399 . S
C125 C124 1.399 . S
C125 C128 1.396 . S
C125 C137 1.453 . S
C125 C138 1.684 . S
H126 C150 0.948 . S
C127 C123 1.397 . S
C127 C128 1.394 . S
C127 C146 1.723 . S
C128 C125 1.396 . S
C128 C127 1.394 . S
C128 C158 1.723 . S
H129 C152 0.947 . S
H130 C153 0.948 . S
H131 C159 0.982 . S
H132 C160 0.979 . S
H133 C160 0.980 . S
H134 C160 0.983 . S
H135 C159 0.979 . S
H136 C159 0.977 . S
C137 C125 1.453 . S
C137 H166 0.982 . S
C137 H167 0.979 . S
C137 H168 0.977 . S
C138 C125 1.684 . S
C138 H163 0.979 . S
C138 H164 0.980 . S
C138 H165 0.983 . S
C139 C140 1.391 . S
C139 C144 1.391 . S
C139 H169 0.948 . S
C140 C139 1.391 . S
C140 C141 1.391 . S
C141 C140 1.391 . S
C141 C142 1.392 . S
C141 H170 0.947 . S
C142 C141 1.392 . S
C142 C143 1.419 . S
C142 H171 0.948 . S
C143 C142 1.419 . S
C143 C144 1.391 . S
C143 C147 1.397 . S
C144 C139 1.391 . S
C144 C143 1.391 . S
C144 C145 1.399 . S
C145 C144 1.399 . S
C145 C146 1.396 . S
C145 C148 1.453 . S
C145 C149 1.684 . S
C146 C127 1.723 . S
C146 C145 1.396 . S
C146 C147 1.394 . S
C147 C143 1.397 . S
C147 C146 1.394 . S
C147 C157 1.723 . S
C148 C145 1.453 . S
C148 H172 0.982 . S
C148 H173 0.979 . S
C148 H174 0.977 . S
C149 C145 1.684 . S
C149 H175 0.979 . S
C149 H176 0.980 . S
C149 H177 0.983 . S
C150 H126 0.948 . S
C150 C151 1.391 . S
C150 C155 1.391 . S
C151 C150 1.391 . S
C151 C152 1.391 . S
C152 H129 0.947 . S
C152 C151 1.391 . S
C152 C153 1.392 . S
C153 H130 0.948 . S
C153 C152 1.392 . S
C153 C154 1.419 . S
C154 C153 1.419 . S
C154 C155 1.391 . S
C154 C158 1.397 . S
C155 C150 1.391 . S
C155 C154 1.391 . S
C155 C156 1.399 . S
C156 C155 1.399 . S
C156 C157 1.396 . S
C156 C159 1.453 . S
C156 C160 1.684 . S
C157 C147 1.723 . S
C157 C156 1.396 . S
C157 C158 1.394 . S
C158 C128 1.723 . S
C158 C154 1.397 . S
C158 C157 1.394 . S
C159 H131 0.982 . S
C159 H135 0.979 . S
C159 H136 0.977 . S
C159 C156 1.453 . S
C160 H132 0.979 . S
C160 H133 0.980 . S
C160 H134 0.983 . S
C160 C156 1.684 . S
H161 C179 0.948 . S
H162 C120 0.948 . S
H163 C138 0.979 . S
H164 C138 0.980 . S
H165 C138 0.983 . S
H166 C137 0.982 . S
H167 C137 0.979 . S
H168 C137 0.977 . S
H169 C139 0.948 . S
H170 C141 0.947 . S
H171 C142 0.948 . S
H172 C148 0.982 . S
H173 C148 0.979 . S
H174 C148 0.977 . S
H175 C149 0.979 . S
H176 C149 0.980 . S
H177 C149 0.983 . S
H178 C122 0.947 . S
C179 C122 1.392 . S
C179 C123 1.419 . S
C179 H161 0.948 . S
C180 C181 1.391 . S
C180 C184 1.391 . S
C180 H222 0.948 . S
C181 C180 1.391 . S
C181 C182 1.391 . S
C182 C181 1.391 . S
C182 H238 0.947 . S
C182 C239 1.392 . S
C183 C184 1.391 . S
C183 C187 1.397 . S
C183 C239 1.419 . S
C184 C180 1.391 . S
C184 C183 1.391 . S
C184 C185 1.399 . S
C185 C184 1.399 . S
C185 C188 1.396 . S
C185 C197 1.453 . S
C185 C198 1.684 . S
H186 C210 0.948 . S
C187 C183 1.397 . S
C187 C188 1.394 . S
C187 C206 1.723 . S
C188 C185 1.396 . S
C188 C187 1.394 . S
C188 C218 1.723 . S
H189 C212 0.947 . S
H190 C213 0.948 . S
H191 C219 0.982 . S
H192 C220 0.979 . S
H193 C220 0.980 . S
H194 C220 0.983 . S
H195 C219 0.979 . S
H196 C219 0.977 . S
C197 C185 1.453 . S
C197 H226 0.982 . S
C197 H227 0.979 . S
C197 H228 0.977 . S
C198 C185 1.684 . S
C198 H223 0.979 . S
C198 H224 0.980 . S
C198 H225 0.983 . S
C199 C200 1.391 . S
C199 C204 1.391 . S
C199 H229 0.948 . S
C200 C199 1.391 . S
C200 C201 1.391 . S
C201 C200 1.391 . S
C201 C202 1.392 . S
C201 H230 0.947 . S
C202 C201 1.392 . S
C202 C203 1.419 . S
C202 H231 0.948 . S
C203 C202 1.419 . S
C203 C204 1.391 . S
C203 C207 1.397 . S
C204 C199 1.391 . S
C204 C203 1.391 . S
C204 C205 1.399 . S
C205 C204 1.399 . S
C205 C206 1.396 . S
C205 C208 1.453 . S
C205 C209 1.684 . S
C206 C187 1.723 . S
C206 C205 1.396 . S
C206 C207 1.394 . S
C207 C203 1.397 . S
C207 C206 1.394 . S
C207 C217 1.723 . S
C208 C205 1.453 . S
C208 H232 0.982 . S
C208 H233 0.979 . S
C208 H234 0.977 . S
C209 C205 1.684 . S
C209 H235 0.979 . S
C209 H236 0.980 . S
C209 H237 0.983 . S
C210 H186 0.948 . S
C210 C211 1.391 . S
C210 C215 1.391 . S
C211 C210 1.391 . S
C211 C212 1.391 . S
C212 H189 0.947 . S
C212 C211 1.391 . S
C212 C213 1.392 . S
C213 H190 0.948 . S
C213 C212 1.392 . S
C213 C214 1.419 . S
C214 C213 1.419 . S
C214 C215 1.391 . S
C214 C218 1.397 . S
C215 C210 1.391 . S
C215 C214 1.391 . S
C215 C216 1.399 . S
C216 C215 1.399 . S
C216 C217 1.396 . S
C216 C219 1.453 . S
C216 C220 1.684 . S
C217 C207 1.723 . S
C217 C216 1.396 . S
C217 C218 1.394 . S
C218 C188 1.723 . S
C218 C214 1.397 . S
C218 C217 1.394 . S
C219 H191 0.982 . S
C219 H195 0.979 . S
C219 H196 0.977 . S
C219 C216 1.453 . S
C220 H192 0.979 . S
C220 H193 0.980 . S
C220 H194 0.983 . S
C220 C216 1.684 . S
H221 C239 0.948 . S
H222 C180 0.948 . S
H223 C198 0.979 . S
H224 C198 0.980 . S
H225 C198 0.983 . S
H226 C197 0.982 . S
H227 C197 0.979 . S
H228 C197 0.977 . S
H229 C199 0.948 . S
H230 C201 0.947 . S
H231 C202 0.948 . S
H232 C208 0.982 . S
H233 C208 0.979 . S
H234 C208 0.977 . S
H235 C209 0.979 . S
H236 C209 0.980 . S
H237 C209 0.983 . S
H238 C182 0.947 . S
C239 C182 1.392 . S
C239 C183 1.419 . S
C239 H221 0.948 . S
C240 C241 1.391 . S
C240 C244 1.391 . S
C240 H282 0.948 . S
C241 C240 1.391 . S
C241 C242 1.391 . S
C242 C241 1.391 . S
C242 H298 0.947 . S
C242 C299 1.392 . S
C243 C244 1.391 . S
C243 C247 1.397 . S
C243 C299 1.419 . S
C244 C240 1.391 . S
C244 C243 1.391 . S
C244 C245 1.399 . S
C245 C244 1.399 . S
C245 C248 1.396 . S
C245 C257 1.453 . S
C245 C258 1.684 . S
H246 C270 0.948 . S
C247 C243 1.397 . S
C247 C248 1.394 . S
C247 C266 1.723 . S
C248 C245 1.396 . S
C248 C247 1.394 . S
C248 C278 1.723 . S
H249 C272 0.947 . S
H250 C273 0.948 . S
H251 C279 0.982 . S
H252 C280 0.979 . S
H253 C280 0.980 . S
H254 C280 0.983 . S
H255 C279 0.979 . S
H256 C279 0.977 . S
C257 C245 1.453 . S
C257 H286 0.982 . S
C257 H287 0.979 . S
C257 H288 0.977 . S
C258 C245 1.684 . S
C258 H283 0.979 . S
C258 H284 0.980 . S
C258 H285 0.983 . S
C259 C260 1.391 . S
C259 C264 1.391 . S
C259 H289 0.948 . S
C260 C259 1.391 . S
C260 C261 1.391 . S
C261 C260 1.391 . S
C261 C262 1.392 . S
C261 H290 0.947 . S
C262 C261 1.392 . S
C262 C263 1.419 . S
C262 H291 0.948 . S
C263 C262 1.419 . S
C263 C264 1.391 . S
C263 C267 1.397 . S
C264 C259 1.391 . S
C264 C263 1.391 . S
C264 C265 1.399 . S
C265 C264 1.399 . S
C265 C266 1.396 . S
C265 C268 1.453 . S
C265 C269 1.684 . S
C266 C247 1.723 . S
C266 C265 1.396 . S
C266 C267 1.394 . S
C267 C263 1.397 . S
C267 C266 1.394 . S
C267 C277 1.723 . S
C268 C265 1.453 . S
C268 H292 0.982 . S
C268 H293 0.979 . S
C268 H294 0.977 . S
C269 C265 1.684 . S
C269 H295 0.979 . S
C269 H296 0.980 . S
C269 H297 0.983 . S
C270 H246 0.948 . S
C270 C271 1.391 . S
C270 C275 1.391 . S
C271 C270 1.391 . S
C271 C272 1.391 . S
C272 H249 0.947 . S
C272 C271 1.391 . S
C272 C273 1.392 . S
C273 H250 0.948 . S
C273 C272 1.392 . S
C273 C274 1.419 . S
C274 C273 1.419 . S
C274 C275 1.391 . S
C274 C278 1.397 . S
C275 C270 1.391 . S
C275 C274 1.391 . S
C275 C276 1.399 . S
C276 C275 1.399 . S
C276 C277 1.396 . S
C276 C279 1.453 . S
C276 C280 1.684 . S
C277 C267 1.723 . S
C277 C276 1.396 . S
C277 C278 1.394 . S
C278 C248 1.723 . S
C278 C274 1.397 . S
C278 C277 1.394 . S
C279 H251 0.982 . S
C279 H255 0.979 . S
C279 H256 0.977 . S
C279 C276 1.453 . S
C280 H252 0.979 . S
C280 H253 0.980 . S
C280 H254 0.983 . S
C280 C276 1.684 . S
H281 C299 0.948 . S
H282 C240 0.948 . S
H283 C258 0.979 . S
H284 C258 0.980 . S
H285 C258 0.983 . S
H286 C257 0.982 . S
H287 C257 0.979 . S
H288 C257 0.977 . S
H289 C259 0.948 . S
H290 C261 0.947 . S
H291 C262 0.948 . S
H292 C268 0.982 . S
H293 C268 0.979 . S
H294 C268 0.977 . S
H295 C269 0.979 . S
H296 C269 0.980 . S
H297 C269 0.983 . S
H298 C242 0.947 . S
C299 C242 1.392 . S
C299 C243 1.419 . S
C299 H281 0.948 . S
C300 C301 1.391 . S
C300 C304 1.391 . S
C300 H342 0.948 . S
C301 C300 1.391 . S
C301 C302 1.391 . S
C302 C301 1.391 . S
C302 H358 0.947 . S
C302 C359 1.392 . S
C303 C304 1.391 . S
C303 C307 1.397 . S
C303 C359 1.419 . S
C304 C300 1.391 . S
C304 C303 1.391 . S
C304 C305 1.399 . S
C305 C304 1.399 . S
C305 C308 1.396 . S
C305 C317 1.453 . S
C305 C318 1.684 . S
H306 C330 0.948 . S
C307 C303 1.397 . S
C307 C308 1.394 . S
C307 C326 1.723 . S
C308 C305 1.396 . S
C308 C307 1.394 . S
C308 C338 1.723 . S
H309 C332 0.947 . S
H310 C333 0.948 . S
H311 C339 0.982 . S
H312 C340 0.979 . S
H313 C340 0.980 . S
H314 C340 0.983 . S
H315 C339 0.979 . S
H316 C339 0.977 . S
C317 C305 1.453 . S
C317 H346 0.982 . S
C317 H347 0.979 . S
C317 H348 0.977 . S
C318 C305 1.684 . S
C318 H343 0.979 . S
C318 H344 0.980 . S
C318 H345 0.983 . S
C319 C320 1.391 . S
C319 C324 1.391 . S
C319 H349 0.948 . S
C320 C319 1.391 . S
C320 C321 1.391 . S
C321 C320 1.391 . S
C321 C322 1.392 . S
C321 H350 0.947 . S
C322 C321 1.392 . S
C322 C323 1.419 . S
C322 H351 0.948 . S
C323 C322 1.419 . S
C323 C324 1.391 . S
C323 C327 1.397 . S
C324 C319 1.391 . S
C324 C323 1.391 . S
C324 C325 1.399 . S
C325 C324 1.399 . S
C325 C326 1.396 . S
C325 C328 1.453 . S
C325 C329 1.684 . S
C326 C307 1.723 . S
C326 C325 1.396 . S
C326 C327 1.394 . S
C327 C323 1.397 . S
C327 C326 1.394 . S
C327 C337 1.723 . S
C328 C325 1.453 . S
C328 H352 0.982 . S
C328 H353 0.979 . S
C328 H354 0.977 . S
C329 C325 1.684 . S
C329 H355 0.979 . S
C329 H356 0.980 . S
C329 H357 0.983 . S
C330 H306 0.948 . S
C330 C331 1.391 . S
C330 C335 1.391 . S
C331 C330 1.391 . S
C331 C332 1.391 . S
C332 H309 0.947 . S
C332 C331 1.391 . S
C332 C333 1.392 . S
C333 H310 0.948 . S
C333 C332 1.392 . S
C333 C334 1.419 . S
C334 C333 1.419 . S
C334 C335 1.391 . S
C334 C338 1.397 . S
C335 C330 1.391 . S
C335 C334 1.391 . S
C335 C336 1.399 . S
C336 C335 1.399 . S
C336 C337 1.396 . S
C336 C339 1.453 . S
C336 C340 1.684 . S
C337 C327 1.723 . S
C337 C336 1.396 . S
C337 C338 1.394 . S
C338 C308 1.723 . S
C338 C334 1.397 . S
C338 C337 1.394 . S
C339 H311 0.982 . S
C339 H315 0.979 . S
C339 H316 0.977 . S
C339 C336 1.453 . S
C340 H312 0.979 . S
C340 H313 0.980 . S
C340 H314 0.983 . S
C340 C336 1.684 . S
H341 C359 0.948 . S
H342 C300 0.948 . S
H343 C318 0.979 . S
H344 C318 0.980 . S
H345 C318 0.983 . S
H346 C317 0.982 . S
H347 C317 0.979 . S
H348 C317 0.977 . S
H349 C319 0.948 . S
H350 C321 0.947 . S
H351 C322 0.948 . S
H352 C328 0.982 . S
H353 C328 0.979 . S
H354 C328 0.977 . S
H355 C329 0.979 . S
H356 C329 0.980 . S
H357 C329 0.983 . S
H358 C302 0.947 . S
C359 C302 1.392 . S
C359 C303 1.419 . S
C359 H341 0.948 . S
C360 C361 1.391 . S
C360 C364 1.391 . S
C360 H402 0.948 . S
C361 C360 1.391 . S
C361 C362 1.391 . S
C362 C361 1.391 . S
C362 H418 0.947 . S
C362 C419 1.392 . S
C363 C364 1.391 . S
C363 C367 1.397 . S
C363 C419 1.419 . S
C364 C360 1.391 . S
C364 C363 1.391 . S
C364 C365 1.399 . S
C365 C364 1.399 . S
C365 C368 1.396 . S
C365 C377 1.453 . S
C365 C378 1.684 . S
H366 C390 0.948 . S
C367 C363 1.397 . S
C367 C368 1.394 . S
C367 C386 1.723 . S
C368 C365 1.396 . S
C368 C367 1.394 . S
C368 C398 1.723 . S
H369 C392 0.947 . S
H370 C393 0.948 . S
H371 C399 0.982 . S
H372 C400 0.979 . S
H373 C400 0.980 . S
H374 C400 0.983 . S
H375 C399 0.979 . S
H376 C399 0.977 . S
C377 C365 1.453 . S
C377 H406 0.982 . S
C377 H407 0.979 . S
C377 H408 0.977 . S
C378 C365 1.684 . S
C378 H403 0.979 . S
C378 H404 0.980 . S
C378 H405 0.983 . S
C379 C380 1.391 . S
C379 C384 1.391 . S
C379 H409 0.948 . S
C380 C379 1.391 . S
C380 C381 1.391 . S
C381 C380 1.391 . S
C381 C382 1.392 . S
C381 H410 0.947 . S
C382 C381 1.392 . S
C382 C383 1.419 . S
C382 H411 0.948 . S
C383 C382 1.419 . S
C383 C384 1.391 . S
C383 C387 1.397 . S
C384 C379 1.391 . S
C384 C383 1.391 . S
C384 C385 1.399 . S
C385 C384 1.399 . S
C385 C386 1.396 . S
C385 C388 1.453 . S
C385 C389 1.684 . S
C386 C367 1.723 . S
C386 C385 1.396 . S
C386 C387 1.394 . S
C387 C383 1.397 . S
C387 C386 1.394 . S
C387 C397 1.723 . S
C388 C385 1.453 . S
C388 H412 0.982 . S
C388 H413 0.979 . S
C388 H414 0.977 . S
C389 C385 1.684 . S
C389 H415 0.979 . S
C389 H416 0.980 . S
C389 H417 0.983 . S
C390 H366 0.948 . S
C390 C391 1.391 . S
C390 C395 1.391 . S
C391 C390 1.391 . S
C391 C392 1.391 . S
C392 H369 0.947 . S
C392 C391 1.391 . S
C392 C393 1.392 . S
C393 H370 0.948 . S
C393 C392 1.392 . S
C393 C394 1.419 . S
C394 C393 1.419 . S
C394 C395 1.391 . S
C394 C398 1.397 . S
C395 C390 1.391 . S
C395 C394 1.391 . S
C395 C396 1.399 . S
C396 C395 1.399 . S
C396 C397 1.396 . S
C396 C399 1.453 . S
C396 C400 1.684 . S
C397 C387 1.723 . S
C397 C396 1.396 . S
C397 C398 1.394 . S
C398 C368 1.723 . S
C398 C394 1.397 . S
C398 C397 1.394 . S
C399 H371 0.982 . S
C399 H375 0.979 . S
C399 H376 0.977 . S
C399 C396 1.453 . S
C400 H372 0.979 . S
C400 H373 0.980 . S
C400 H374 0.983 . S
C400 C396 1.684 . S
H401 C419 0.948 . S
H402 C360 0.948 . S
H403 C378 0.979 . S
H404 C378 0.980 . S
H405 C378 0.983 . S
H406 C377 0.982 . S
H407 C377 0.979 . S
H408 C377 0.977 . S
H409 C379 0.948 . S
H410 C381 0.947 . S
H411 C382 0.948 . S
H412 C388 0.982 . S
H413 C388 0.979 . S
H414 C388 0.977 . S
H415 C389 0.979 . S
H416 C389 0.980 . S
H417 C389 0.983 . S
H418 C362 0.947 . S
C419 C362 1.392 . S
C419 C363 1.419 . S
C419 H401 0.948 . S
C420 C421 1.391 . S
C420 C424 1.391 . S
C420 H462 0.948 . S
C421 C420 1.391 . S
C421 C422 1.391 . S
C422 C421 1.391 . S
C422 H478 0.947 . S
C422 C479 1.392 . S
C423 C424 1.391 . S
C423 C427 1.397 . S
C423 C479 1.419 . S
C424 C420 1.391 . S
C424 C423 1.391 . S
C424 C425 1.399 . S
C425 C424 1.399 . S
C425 C428 1.396 . S
C425 C437 1.453 . S
C425 C438 1.684 . S
H426 C450 0.948 . S
C427 C423 1.397 . S
C427 C428 1.394 . S
C427 C446 1.723 . S
C428 C425 1.396 . S
C428 C427 1.394 . S
C428 C458 1.723 . S
H429 C452 0.947 . S
H430 C453 0.948 . S
H431 C459 0.982 . S
H432 C460 0.979 . S
H433 C460 0.980 . S
H434 C460 0.983 . S
H435 C459 0.979 . S
H436 C459 0.977 . S
C437 C425 1.453 . S
C437 H466 0.982 . S
C437 H467 0.979 . S
C437 H468 0.977 . S
C438 C425 1.684 . S
C438 H463 0.979 . S
C438 H464 0.980 . S
C438 H465 0.983 . S
C439 C440 1.391 . S
C439 C444 1.391 . S
C439 H469 0.948 . S
C440 C439 1.391 . S
C440 C441 1.391 . S
C441 C440 1.391 . S
C441 C442 1.392 . S
C441 H470 0.947 . S
C442 C441 1.392 . S
C442 C443 1.419 . S
C442 H471 0.948 . S
C443 C442 1.419 . S
C443 C444 1.391 . S
C443 C447 1.397 . S
C444 C439 1.391 . S
C444 C443 1.391 . S
C444 C445 1.399 . S
C445 C444 1.399 . S
C445 C446 1.396 . S
C445 C448 1.453 . S
C445 C449 1.684 . S
C446 C427 1.723 . S
C446 C445 1.396 . S
C446 C447 1.394 . S
C447 C443 1.397 . S
C447 C446 1.394 . S
C447 C457 1.723 . S
C448 C445 1.453 . S
C448 H472 0.982 . S
C448 H473 0.979 . S
C448 H474 0.977 . S
C449 C445 1.684 . S
C449 H475 0.979 . S
C449 H476 0.980 . S
C449 H477 0.983 . S
C450 H426 0.948 . S
C450 C451 1.391 . S
C450 C455 1.391 . S
C451 C450 1.391 . S
C451 C452 1.391 . S
C452 H429 0.947 . S
C452 C451 1.391 . S
C452 C453 1.392 . S
C453 H430 0.948 . S
C453 C452 1.392 . S
C453 C454 1.419 . S
C454 C453 1.419 . S
C454 C455 1.391 . S
C454 C458 1.397 . S
C455 C450 1.391 . S
C455 C454 1.391 . S
C455 C456 1.399 . S
C456 C455 1.399 . S
C456 C457 1.396 . S
C456 C459 1.453 . S
C456 C460 1.684 . S
C457 C447 1.723 . S
C457 C456 1.396 . S
C457 C458 1.394 . S
C458 C428 1.723 . S
C458 C454 1.397 . S
C458 C457 1.394 . S
C459 H431 0.982 . S
C459 H435 0.979 . S
C459 H436 0.977 . S
C459 C456 1.453 . S
C460 H432 0.979 . S
C460 H433 0.980 . S
C460 H434 0.983 . S
C460 C456 1.684 . S
H461 C479 0.948 . S
H462 C420 0.948 . S
H463 C438 0.979 . S
H464 C438 0.980 . S
H465 C438 0.983 . S
H466 C437 0.982 . S
H467 C437 0.979 . S
H468 C437 0.977 . S
H469 C439 0.948 . S
H470 C441 0.947 . S
H471 C442 0.948 . S
H472 C448 0.982 . S
H473 C448 0.979 . S
H474 C448 0.977 . S
H475 C449 0.979 . S
H476 C449 0.980 . S
H477 C449 0.983 . S
H478 C422 0.947 . S
C479 C422 1.392 . S
C479 C423 1.419 . S
C479 H461 0.948 . S
Co480 N485 2.057 . S
Co480 O497 2.021 . S
Co480 O500 2.062 . S
Co480 O504 2.117 1_545 S
Co480 O505 2.020 1_545 S
C481 O501 1.259 1_655 S
C481 O504 1.258 . S
Co482 N491 2.057 . S
Co482 O498 2.117 1_565 S
Co482 O499 2.020 1_565 S
Co482 O501 2.021 . S
Co482 O506 2.062 . S
C483 N485 1.316 . S
C483 N486 1.347 . S
C483 H488 0.931 . S
C484 N485 1.375 1_565 S
C484 C487 1.350 1_565 S
C484 H489 0.930 . S
N485 Co480 2.057 . S
N485 C483 1.316 . S
N485 C484 1.375 1_545 S
N486 C483 1.347 . S
N486 C487 1.373 . S
C487 C484 1.350 1_545 S
C487 N486 1.373 . S
C487 H508 0.931 1_545 S
H488 C483 0.931 . S
H489 C484 0.930 . S
C490 O497 1.259 1_455 S
C490 O498 1.258 . S
N491 Co482 2.057 . S
N491 C492 1.316 . S
N491 C493 1.375 1_565 S
C492 N491 1.316 . S
C492 N494 1.347 . S
C492 H503 0.931 . S
C493 N491 1.375 1_545 S
C493 C495 1.350 1_545 S
C493 H502 0.930 . S
N494 C492 1.347 . S
N494 C495 1.373 . S
C495 C493 1.350 1_565 S
C495 N494 1.373 . S
C495 H509 0.931 1_565 S
C496 O499 1.256 . S
C496 O500 1.255 1_455 S
O497 Co480 2.021 . S
O497 C490 1.259 1_655 S
O498 Co482 2.117 1_545 S
O498 C490 1.258 . S
O499 Co482 2.020 1_545 S
O499 C496 1.256 . S
O500 Co480 2.062 . S
O500 C496 1.255 1_655 S
O501 C481 1.259 1_455 S
O501 Co482 2.021 . S
H502 C493 0.930 . S
H503 C492 0.931 . S
O504 Co480 2.117 1_565 S
O504 C481 1.258 . S
O505 Co480 2.020 1_565 S
O505 C507 1.256 . S
O506 Co482 2.062 . S
O506 C507 1.255 1_455 S
C507 O505 1.256 . S
C507 O506 1.255 1_655 S
H508 C487 0.931 1_565 S
H509 C495 0.931 1_545 S
Co510 N515 2.057 . S
Co510 O527 2.021 1_565 S
Co510 O530 2.062 . S
Co510 O534 2.117 . S
Co510 O535 2.020 1_565 S
C511 O531 1.259 . S
C511 O534 1.258 1_554 S
Co512 N521 2.057 . S
Co512 O528 2.117 . S
Co512 O529 2.020 1_545 S
Co512 O531 2.021 1_545 S
Co512 O536 2.062 . S
C513 N515 1.316 . S
C513 N516 1.347 . S
C513 H518 0.931 1_565 S
C514 N515 1.375 . S
C514 C517 1.350 . S
C514 H519 0.930 . S
N515 Co510 2.057 . S
N515 C513 1.316 . S
N515 C514 1.375 . S
N516 C513 1.347 . S
N516 C517 1.373 . S
C517 C514 1.350 . S
C517 N516 1.373 . S
C517 H538 0.931 . S
H518 C513 0.931 1_545 S
H519 C514 0.930 . S
C520 O527 1.259 . S
C520 O528 1.258 1_556 S
N521 Co512 2.057 . S
N521 C522 1.316 . S
N521 C523 1.375 . S
C522 N521 1.316 . S
C522 N524 1.347 . S
C522 H533 0.931 1_545 S
C523 N521 1.375 . S
C523 C525 1.350 . S
C523 H532 0.930 . S
N524 C522 1.347 . S
N524 C525 1.373 . S
C525 C523 1.350 . S
C525 N524 1.373 . S
C525 H539 0.931 . S
C526 O529 1.256 1_556 S
C526 O530 1.255 . S
O527 Co510 2.021 1_545 S
O527 C520 1.259 . S
O528 Co512 2.117 . S
O528 C520 1.258 1_554 S
O529 Co512 2.020 1_565 S
O529 C526 1.256 1_554 S
O530 Co510 2.062 . S
O530 C526 1.255 . S
O531 C511 1.259 . S
O531 Co512 2.021 1_565 S
H532 C523 0.930 . S
H533 C522 0.931 1_565 S
O534 Co510 2.117 . S
O534 C511 1.258 1_556 S
O535 Co510 2.020 1_545 S
O535 C537 1.256 1_556 S
O536 Co512 2.062 . S
O536 C537 1.255 . S
C537 O535 1.256 1_554 S
C537 O536 1.255 . S
H538 C517 0.931 . S
H539 C525 0.931 . S
Co540 N545 2.057 . S
Co540 O557 2.021 . S
Co540 O560 2.062 . S
Co540 O564 2.117 . S
Co540 O565 2.020 . S
C541 O561 1.259 . S
C541 O564 1.258 . S
Co542 N551 2.057 . S
Co542 O558 2.117 . S
Co542 O559 2.020 . S
Co542 O561 2.021 . S
Co542 O566 2.062 . S
C543 N545 1.316 . S
C543 N546 1.347 . S
C543 H548 0.931 . S
C544 N545 1.375 . S
C544 C547 1.350 . S
C544 H549 0.930 . S
N545 Co540 2.057 . S
N545 C543 1.316 . S
N545 C544 1.375 . S
N546 C543 1.347 . S
N546 C547 1.373 . S
C547 C544 1.350 . S
C547 N546 1.373 . S
C547 H568 0.931 . S
H548 C543 0.931 . S
H549 C544 0.930 . S
C550 O557 1.259 . S
C550 O558 1.258 . S
N551 Co542 2.057 . S
N551 C552 1.316 . S
N551 C553 1.375 . S
C552 N551 1.316 . S
C552 N554 1.347 . S
C552 H563 0.931 . S
C553 N551 1.375 . S
C553 C555 1.350 . S
C553 H562 0.930 . S
N554 C552 1.347 . S
N554 C555 1.373 . S
C555 C553 1.350 . S
C555 N554 1.373 . S
C555 H569 0.931 . S
C556 O559 1.256 . S
C556 O560 1.255 . S
O557 Co540 2.021 . S
O557 C550 1.259 . S
O558 Co542 2.117 . S
O558 C550 1.258 . S
O559 Co542 2.020 . S
O559 C556 1.256 . S
O560 Co540 2.062 . S
O560 C556 1.255 . S
O561 C541 1.259 . S
O561 Co542 2.021 . S
H562 C553 0.930 . S
H563 C552 0.931 . S
O564 Co540 2.117 . S
O564 C541 1.258 . S
O565 Co540 2.020 . S
O565 C567 1.256 . S
O566 Co542 2.062 . S
O566 C567 1.255 . S
C567 O565 1.256 . S
C567 O566 1.255 . S
H568 C547 0.931 . S
H569 C555 0.931 . S
Co570 N575 2.057 . S
Co570 O587 2.021 . S
Co570 O590 2.062 . S
Co570 O594 2.117 1_455 S
Co570 O595 2.020 1_455 S
C571 O591 1.259 1_556 S
C571 O594 1.258 . S
Co572 N581 2.057 . S
Co572 O588 2.117 1_655 S
Co572 O589 2.020 1_655 S
Co572 O591 2.021 . S
Co572 O596 2.062 . S
C573 N575 1.316 . S
C573 N576 1.347 . S
C573 H578 0.931 . S
C574 N575 1.375 1_655 S
C574 C577 1.350 1_655 S
C574 H579 0.930 . S
N575 Co570 2.057 . S
N575 C573 1.316 . S
N575 C574 1.375 1_455 S
N576 C573 1.347 . S
N576 C577 1.373 . S
C577 C574 1.350 1_455 S
C577 N576 1.373 . S
C577 H598 0.931 1_455 S
H578 C573 0.931 . S
H579 C574 0.930 . S
C580 O587 1.259 1_554 S
C580 O588 1.258 . S
N581 Co572 2.057 . S
N581 C582 1.316 . S
N581 C583 1.375 1_655 S
C582 N581 1.316 . S
C582 N584 1.347 . S
C582 H593 0.931 . S
C583 N581 1.375 1_455 S
C583 C585 1.350 1_455 S
C583 H592 0.930 . S
N584 C582 1.347 . S
N584 C585 1.373 . S
C585 C583 1.350 1_655 S
C585 N584 1.373 . S
C585 H599 0.931 1_655 S
C586 O589 1.256 . S
C586 O590 1.255 1_554 S
O587 Co570 2.021 . S
O587 C580 1.259 1_556 S
O588 Co572 2.117 1_455 S
O588 C580 1.258 . S
O589 Co572 2.020 1_455 S
O589 C586 1.256 . S
O590 Co570 2.062 . S
O590 C586 1.255 1_556 S
O591 C571 1.259 1_554 S
O591 Co572 2.021 . S
H592 C583 0.930 . S
H593 C582 0.931 . S
O594 Co570 2.117 1_655 S
O594 C571 1.258 . S
O595 Co570 2.020 1_655 S
O595 C597 1.256 . S
O596 Co572 2.062 . S
O596 C597 1.255 1_554 S
C597 O595 1.256 . S
C597 O596 1.255 1_556 S
H598 C577 0.931 1_655 S
H599 C585 0.931 1_455 S
H600 C606 0.930 . S
H601 C610 0.930 1_565 S
H602 C615 0.929 . S
H603 C613 0.929 . S
H604 C608 0.929 . S
H605 C614 0.929 . S
C606 H600 0.930 . S
C606 C607 1.367 . S
C606 C614 1.378 . S
C607 C606 1.367 . S
C607 C615 1.433 . S
C608 H604 0.929 . S
C608 C610 1.378 . S
C608 C612 1.350 . S
C609 C612 1.463 . S
C609 C614 1.350 . S
C609 N617 1.427 . S
C610 H601 0.930 1_545 S
C610 C608 1.378 . S
C610 C611 1.367 . S
C611 C610 1.367 . S
C611 C613 1.433 . S
C612 C608 1.350 . S
C612 C609 1.463 . S
C612 N616 1.427 . S
C613 H603 0.929 . S
C613 C611 1.433 . S
C613 N616 1.384 . S
C614 H605 0.929 . S
C614 C606 1.378 . S
C614 C609 1.350 . S
C615 H602 0.929 . S
C615 C607 1.433 . S
C615 N617 1.384 . S
N616 C612 1.427 . S
N616 C613 1.384 . S
N617 C609 1.427 . S
N617 C615 1.384 . S
H618 C624 0.930 . S
H619 C628 0.930 . S
H620 C633 0.929 . S
H621 C631 0.929 . S
H622 C626 0.929 . S
H623 C632 0.929 . S
C624 H618 0.930 . S
C624 C625 1.367 . S
C624 C632 1.378 . S
C625 C624 1.367 . S
C625 C633 1.433 . S
C626 H622 0.929 . S
C626 C628 1.378 . S
C626 C630 1.350 . S
C627 C630 1.463 . S
C627 C632 1.350 . S
C627 N635 1.427 . S
C628 H619 0.930 . S
C628 C626 1.378 . S
C628 C629 1.367 . S
C629 C628 1.367 . S
C629 C631 1.433 . S
C630 C626 1.350 . S
C630 C627 1.463 . S
C630 N634 1.427 . S
C631 H621 0.929 . S
C631 C629 1.433 . S
C631 N634 1.384 . S
C632 H623 0.929 . S
C632 C624 1.378 . S
C632 C627 1.350 . S
C633 H620 0.929 . S
C633 C625 1.433 . S
C633 N635 1.384 . S
N634 C630 1.427 . S
N634 C631 1.384 . S
N635 C627 1.427 . S
N635 C633 1.384 . S
H636 C642 0.930 . S
H637 C646 0.930 . S
H638 C651 0.929 . S
H639 C649 0.929 . S
H640 C644 0.929 . S
H641 C650 0.929 . S
C642 H636 0.930 . S
C642 C643 1.367 . S
C642 C650 1.378 . S
C643 C642 1.367 . S
C643 C651 1.433 . S
C644 H640 0.929 . S
C644 C646 1.378 . S
C644 C648 1.350 . S
C645 C648 1.463 . S
C645 C650 1.350 . S
C645 N653 1.427 . S
C646 H637 0.930 . S
C646 C644 1.378 . S
C646 C647 1.367 . S
C647 C646 1.367 . S
C647 C649 1.433 . S
C648 C644 1.350 . S
C648 C645 1.463 . S
C648 N652 1.427 . S
C649 H639 0.929 . S
C649 C647 1.433 . S
C649 N652 1.384 . S
C650 H641 0.929 . S
C650 C642 1.378 . S
C650 C645 1.350 . S
C651 H638 0.929 . S
C651 C643 1.433 . S
C651 N653 1.384 . S
N652 C648 1.427 . S
N652 C649 1.384 . S
N653 C645 1.427 . S
N653 C651 1.384 . S
H654 C660 0.930 . S
H655 C664 0.930 . S
H656 C669 0.929 . S
H657 C667 0.929 . S
H658 C662 0.929 . S
H659 C668 0.929 . S
C660 H654 0.930 . S
C660 C661 1.367 . S
C660 C668 1.378 . S
C661 C660 1.367 . S
C661 C669 1.433 . S
C662 H658 0.929 . S
C662 C664 1.378 . S
C662 C666 1.350 . S
C663 C666 1.463 . S
C663 C668 1.350 . S
C663 N671 1.427 . S
C664 H655 0.930 . S
C664 C662 1.378 . S
C664 C665 1.367 . S
C665 C664 1.367 . S
C665 C667 1.433 . S
C666 C662 1.350 . S
C666 C663 1.463 . S
C666 N670 1.427 . S
C667 H657 0.929 . S
C667 C665 1.433 . S
C667 N670 1.384 . S
C668 H659 0.929 . S
C668 C660 1.378 . S
C668 C663 1.350 . S
C669 H656 0.929 . S
C669 C661 1.433 . S
C669 N671 1.384 . S
N670 C666 1.427 . S
N670 C667 1.384 . S
N671 C663 1.427 . S
N671 C669 1.384 . S
H672 C678 0.930 . S
H673 C682 0.930 . S
H674 C687 0.929 . S
H675 C685 0.929 1_556 S
H676 C680 0.929 . S
H677 C686 0.929 . S
C678 H672 0.930 . S
C678 C679 1.367 . S
C678 C686 1.378 . S
C679 C678 1.367 . S
C679 C687 1.433 . S
C680 H676 0.929 . S
C680 C682 1.378 . S
C680 C684 1.350 . S
C681 C684 1.463 . S
C681 C686 1.350 . S
C681 N689 1.427 . S
C682 H673 0.930 . S
C682 C680 1.378 . S
C682 C683 1.367 . S
C683 C682 1.367 . S
C683 C685 1.433 . S
C684 C680 1.350 . S
C684 C681 1.463 . S
C684 N688 1.427 . S
C685 H675 0.929 1_554 S
C685 C683 1.433 . S
C685 N688 1.384 . S
C686 H677 0.929 . S
C686 C678 1.378 . S
C686 C681 1.350 . S
C687 H674 0.929 . S
C687 C679 1.433 . S
C687 N689 1.384 . S
N688 C684 1.427 . S
N688 C685 1.384 . S
N689 C681 1.427 . S
N689 C687 1.384 . S
H690 C696 0.930 . S
H691 C700 0.930 . S
H692 C705 0.929 . S
H693 C703 0.929 . S
H694 C698 0.929 . S
H695 C704 0.929 . S
C696 H690 0.930 . S
C696 C697 1.367 . S
C696 C704 1.378 . S
C697 C696 1.367 . S
C697 C705 1.433 . S
C698 H694 0.929 . S
C698 C700 1.378 . S
C698 C702 1.350 . S
C699 C702 1.463 . S
C699 C704 1.350 . S
C699 N707 1.427 . S
C700 H691 0.930 . S
C700 C698 1.378 . S
C700 C701 1.367 . S
C701 C700 1.367 . S
C701 C703 1.433 . S
C702 C698 1.350 . S
C702 C699 1.463 . S
C702 N706 1.427 . S
C703 H693 0.929 . S
C703 C701 1.433 . S
C703 N706 1.384 . S
C704 H695 0.929 . S
C704 C696 1.378 . S
C704 C699 1.350 . S
C705 H692 0.929 . S
C705 C697 1.433 . S
C705 N707 1.384 . S
N706 C702 1.427 . S
N706 C703 1.384 . S
N707 C699 1.427 . S
N707 C705 1.384 . S
H708 C714 0.930 . S
H709 C718 0.930 1_554 S
H710 C723 0.929 . S
H711 C721 0.929 . S
H712 C716 0.929 . S
H713 C722 0.929 . S
C714 H708 0.930 . S
C714 C715 1.367 . S
C714 C722 1.378 . S
C715 C714 1.367 . S
C715 C723 1.433 . S
C716 H712 0.929 . S
C716 C718 1.378 . S
C716 C720 1.350 . S
C717 C720 1.463 . S
C717 C722 1.350 . S
C717 N725 1.427 . S
C718 H709 0.930 1_556 S
C718 C716 1.378 . S
C718 C719 1.367 . S
C719 C718 1.367 . S
C719 C721 1.433 . S
C720 C716 1.350 . S
C720 C717 1.463 . S
C720 N724 1.427 . S
C721 H711 0.929 . S
C721 C719 1.433 . S
C721 N724 1.384 . S
C722 H713 0.929 . S
C722 C714 1.378 . S
C722 C717 1.350 . S
C723 H710 0.929 . S
C723 C715 1.433 . S
C723 N725 1.384 . S
N724 C720 1.427 . S
N724 C721 1.384 . S
N725 C717 1.427 . S
N725 C723 1.384 . S
H726 C732 0.930 . S
H727 C736 0.930 . S
H728 C741 0.929 . S
H729 C739 0.929 . S
H730 C734 0.929 . S
H731 C740 0.929 . S
C732 H726 0.930 . S
C732 C733 1.367 . S
C732 C740 1.378 . S
C733 C732 1.367 . S
C733 C741 1.433 . S
C734 H730 0.929 . S
C734 C736 1.378 . S
C734 C738 1.350 . S
C735 C738 1.463 . S
C735 C740 1.350 . S
C735 N743 1.427 . S
C736 H727 0.930 . S
C736 C734 1.378 . S
C736 C737 1.367 . S
C737 C736 1.367 . S
C737 C739 1.433 . S
C738 C734 1.350 . S
C738 C735 1.463 . S
C738 N742 1.427 . S
C739 H729 0.929 . S
C739 C737 1.433 . S
C739 N742 1.384 . S
C740 H731 0.929 . S
C740 C732 1.378 . S
C740 C735 1.350 . S
C741 H728 0.929 . S
C741 C733 1.433 . S
C741 N743 1.384 . S
N742 C738 1.427 . S
N742 C739 1.384 . S
N743 C735 1.427 . S
N743 C741 1.384 . S
H744 C750 0.930 . S
H745 C754 0.930 1_556 S
H746 C759 0.929 . S
H747 C757 0.929 . S
H748 C752 0.929 1_556 S
H749 C758 0.929 . S
C750 H744 0.930 . S
C750 C751 1.367 . S
C750 C758 1.378 . S
C751 C750 1.367 . S
C751 C759 1.433 . S
C752 H748 0.929 1_554 S
C752 C754 1.378 . S
C752 C756 1.350 . S
C753 C756 1.463 . S
C753 C758 1.350 . S
C753 N761 1.427 . S
C754 H745 0.930 1_554 S
C754 C752 1.378 . S
C754 C755 1.367 . S
C755 C754 1.367 . S
C755 C757 1.433 . S
C756 C752 1.350 . S
C756 C753 1.463 . S
C756 N760 1.427 . S
C757 H747 0.929 . S
C757 C755 1.433 . S
C757 N760 1.384 . S
C758 H749 0.929 . S
C758 C750 1.378 . S
C758 C753 1.350 . S
C759 H746 0.929 . S
C759 C751 1.433 . S
C759 N761 1.384 . S
N760 C756 1.427 . S
N760 C757 1.384 . S
N761 C753 1.427 . S
N761 C759 1.384 . S
H762 C768 0.930 . S
H763 C772 0.930 . S
H764 C777 0.929 . S
H765 C775 0.929 . S
H766 C770 0.929 . S
H767 C776 0.929 . S
C768 H762 0.930 . S
C768 C769 1.367 . S
C768 C776 1.378 . S
C769 C768 1.367 . S
C769 C777 1.433 . S
C770 H766 0.929 . S
C770 C772 1.378 . S
C770 C774 1.350 . S
C771 C774 1.463 . S
C771 C776 1.350 . S
C771 N779 1.427 . S
C772 H763 0.930 . S
C772 C770 1.378 . S
C772 C773 1.367 . S
C773 C772 1.367 . S
C773 C775 1.433 . S
C774 C770 1.350 . S
C774 C771 1.463 . S
C774 N778 1.427 . S
C775 H765 0.929 . S
C775 C773 1.433 . S
C775 N778 1.384 . S
C776 H767 0.929 . S
C776 C768 1.378 . S
C776 C771 1.350 . S
C777 H764 0.929 . S
C777 C769 1.433 . S
C777 N779 1.384 . S
N778 C774 1.427 . S
N778 C775 1.384 . S
N779 C771 1.427 . S
N779 C777 1.384 . S
H780 C786 0.930 . S
H781 C790 0.930 . S
H782 C795 0.929 . S
H783 C793 0.929 . S
H784 C788 0.929 . S
H785 C794 0.929 . S
C786 H780 0.930 . S
C786 C787 1.367 . S
C786 C794 1.378 . S
C787 C786 1.367 . S
C787 C795 1.433 . S
C788 H784 0.929 . S
C788 C790 1.378 . S
C788 C792 1.350 . S
C789 C792 1.463 . S
C789 C794 1.350 . S
C789 N797 1.427 . S
C790 H781 0.930 . S
C790 C788 1.378 . S
C790 C791 1.367 . S
C791 C790 1.367 . S
C791 C793 1.433 . S
C792 C788 1.350 . S
C792 C789 1.463 . S
C792 N796 1.427 . S
C793 H783 0.929 . S
C793 C791 1.433 . S
C793 N796 1.384 . S
C794 H785 0.929 . S
C794 C786 1.378 . S
C794 C789 1.350 . S
C795 H782 0.929 . S
C795 C787 1.433 . S
C795 N797 1.384 . S
N796 C792 1.427 . S
N796 C793 1.384 . S
N797 C789 1.427 . S
N797 C795 1.384 . S
H798 C804 0.930 . S
H799 C808 0.930 . S
H800 C813 0.929 . S
H801 C811 0.929 . S
H802 C806 0.929 . S
H803 C812 0.929 . S
C804 H798 0.930 . S
C804 C805 1.367 . S
C804 C812 1.378 . S
C805 C804 1.367 . S
C805 C813 1.433 . S
C806 H802 0.929 . S
C806 C808 1.378 . S
C806 C810 1.350 . S
C807 C810 1.463 . S
C807 C812 1.350 . S
C807 N815 1.427 . S
C808 H799 0.930 . S
C808 C806 1.378 . S
C808 C809 1.367 . S
C809 C808 1.367 . S
C809 C811 1.433 . S
C810 C806 1.350 . S
C810 C807 1.463 . S
C810 N814 1.427 . S
C811 H801 0.929 . S
C811 C809 1.433 . S
C811 N814 1.384 . S
C812 H803 0.929 . S
C812 C804 1.378 . S
C812 C807 1.350 . S
C813 H800 0.929 . S
C813 C805 1.433 . S
C813 N815 1.384 . S
N814 C810 1.427 . S
N814 C811 1.384 . S
N815 C807 1.427 . S
N815 C813 1.384 . S
H816 C822 0.930 . S
H817 C826 0.930 . S
H818 C831 0.929 . S
H819 C829 0.929 1_545 S
H820 C824 0.929 . S
H821 C830 0.929 . S
C822 H816 0.930 . S
C822 C823 1.367 . S
C822 C830 1.378 . S
C823 C822 1.367 . S
C823 C831 1.433 . S
C824 H820 0.929 . S
C824 C826 1.378 . S
C824 C828 1.350 . S
C825 C828 1.463 . S
C825 C830 1.350 . S
C825 N833 1.427 . S
C826 H817 0.930 . S
C826 C824 1.378 . S
C826 C827 1.367 . S
C827 C826 1.367 . S
C827 C829 1.433 . S
C828 C824 1.350 . S
C828 C825 1.463 . S
C828 N832 1.427 . S
C829 H819 0.929 1_565 S
C829 C827 1.433 . S
C829 N832 1.384 . S
C830 H821 0.929 . S
C830 C822 1.378 . S
C830 C825 1.350 . S
C831 H818 0.929 . S
C831 C823 1.433 . S
C831 N833 1.384 . S
N832 C828 1.427 . S
N832 C829 1.384 . S
N833 C825 1.427 . S
N833 C831 1.384 . S
H834 C840 0.930 . S
H835 C844 0.930 . S
H836 C849 0.929 . S
H837 C847 0.929 . S
H838 C842 0.929 . S
H839 C848 0.929 . S
C840 H834 0.930 . S
C840 C841 1.367 . S
C840 C848 1.378 . S
C841 C840 1.367 . S
C841 C849 1.433 . S
C842 H838 0.929 . S
C842 C844 1.378 . S
C842 C846 1.350 . S
C843 C846 1.463 . S
C843 C848 1.350 . S
C843 N851 1.427 . S
C844 H835 0.930 . S
C844 C842 1.378 . S
C844 C845 1.367 . S
C845 C844 1.367 . S
C845 C847 1.433 . S
C846 C842 1.350 . S
C846 C843 1.463 . S
C846 N850 1.427 . S
C847 H837 0.929 . S
C847 C845 1.433 . S
C847 N850 1.384 . S
C848 H839 0.929 . S
C848 C840 1.378 . S
C848 C843 1.350 . S
C849 H836 0.929 . S
C849 C841 1.433 . S
C849 N851 1.384 . S
N850 C846 1.427 . S
N850 C847 1.384 . S
N851 C843 1.427 . S
N851 C849 1.384 . S
H852 C858 0.930 . S
H853 C862 0.930 . S
H854 C867 0.929 . S
H855 C865 0.929 . S
H856 C860 0.929 . S
H857 C866 0.929 . S
C858 H852 0.930 . S
C858 C859 1.367 . S
C858 C866 1.378 . S
C859 C858 1.367 . S
C859 C867 1.433 . S
C860 H856 0.929 . S
C860 C862 1.378 . S
C860 C864 1.350 . S
C861 C864 1.463 . S
C861 C866 1.350 . S
C861 N869 1.427 . S
C862 H853 0.930 . S
C862 C860 1.378 . S
C862 C863 1.367 . S
C863 C862 1.367 . S
C863 C865 1.433 . S
C864 C860 1.350 . S
C864 C861 1.463 . S
C864 N868 1.427 . S
C865 H855 0.929 . S
C865 C863 1.433 . S
C865 N868 1.384 . S
C866 H857 0.929 . S
C866 C858 1.378 . S
C866 C861 1.350 . S
C867 H854 0.929 . S
C867 C859 1.433 . S
C867 N869 1.384 . S
N868 C864 1.427 . S
N868 C865 1.384 . S
N869 C861 1.427 . S
N869 C867 1.384 . S
H870 C876 0.930 . S
H871 C880 0.930 . S
H872 C885 0.929 . S
H873 C883 0.929 . S
H874 C878 0.929 . S
H875 C884 0.929 . S
C876 H870 0.930 . S
C876 C877 1.367 . S
C876 C884 1.378 . S
C877 C876 1.367 . S
C877 C885 1.433 . S
C878 H874 0.929 . S
C878 C880 1.378 . S
C878 C882 1.350 . S
C879 C882 1.463 . S
C879 C884 1.350 . S
C879 N887 1.427 . S
C880 H871 0.930 . S
C880 C878 1.378 . S
C880 C881 1.367 . S
C881 C880 1.367 . S
C881 C883 1.433 . S
C882 C878 1.350 . S
C882 C879 1.463 . S
C882 N886 1.427 . S
C883 H873 0.929 . S
C883 C881 1.433 . S
C883 N886 1.384 . S
C884 H875 0.929 . S
C884 C876 1.378 . S
C884 C879 1.350 . S
C885 H872 0.929 . S
C885 C877 1.433 . S
C885 N887 1.384 . S
N886 C882 1.427 . S
N886 C883 1.384 . S
N887 C879 1.427 . S
N887 C885 1.384 . S
H888 C894 0.930 . S
H889 C898 0.930 . S
H890 C903 0.929 . S
H891 C901 0.929 1_545 S
H892 C896 0.929 . S
H893 C902 0.929 . S
C894 H888 0.930 . S
C894 C895 1.367 . S
C894 C902 1.378 . S
C895 C894 1.367 . S
C895 C903 1.433 . S
C896 H892 0.929 . S
C896 C898 1.378 . S
C896 C900 1.350 . S
C897 C900 1.463 . S
C897 C902 1.350 . S
C897 N905 1.427 . S
C898 H889 0.930 . S
C898 C896 1.378 . S
C898 C899 1.367 . S
C899 C898 1.367 . S
C899 C901 1.433 . S
C900 C896 1.350 . S
C900 C897 1.463 . S
C900 N904 1.427 . S
C901 H891 0.929 1_565 S
C901 C899 1.433 . S
C901 N904 1.384 . S
C902 H893 0.929 . S
C902 C894 1.378 . S
C902 C897 1.350 . S
C903 H890 0.929 . S
C903 C895 1.433 . S
C903 N905 1.384 . S
N904 C900 1.427 . S
N904 C901 1.384 . S
N905 C897 1.427 . S
N905 C903 1.384 . S
H906 C912 0.930 . S
H907 C916 0.930 . S
H908 C921 0.929 . S
H909 C919 0.929 . S
H910 C914 0.929 . S
H911 C920 0.929 . S
C912 H906 0.930 . S
C912 C913 1.367 . S
C912 C920 1.378 . S
C913 C912 1.367 . S
C913 C921 1.433 . S
C914 H910 0.929 . S
C914 C916 1.378 . S
C914 C918 1.350 . S
C915 C918 1.463 . S
C915 C920 1.350 . S
C915 N923 1.427 . S
C916 H907 0.930 . S
C916 C914 1.378 . S
C916 C917 1.367 . S
C917 C916 1.367 . S
C917 C919 1.433 . S
C918 C914 1.350 . S
C918 C915 1.463 . S
C918 N922 1.427 . S
C919 H909 0.929 . S
C919 C917 1.433 . S
C919 N922 1.384 . S
C920 H911 0.929 . S
C920 C912 1.378 . S
C920 C915 1.350 . S
C921 H908 0.929 . S
C921 C913 1.433 . S
C921 N923 1.384 . S
N922 C918 1.427 . S
N922 C919 1.384 . S
N923 C915 1.427 . S
N923 C921 1.384 . S
H924 C930 0.930 . S
H925 C934 0.930 1_556 S
H926 C939 0.929 . S
H927 C937 0.929 . S
H928 C932 0.929 . S
H929 C938 0.929 . S
C930 H924 0.930 . S
C930 C931 1.367 . S
C930 C938 1.378 . S
C931 C930 1.367 . S
C931 C939 1.433 . S
C932 H928 0.929 . S
C932 C934 1.378 . S
C932 C936 1.350 . S
C933 C936 1.463 . S
C933 C938 1.350 . S
C933 N941 1.427 . S
C934 H925 0.930 1_554 S
C934 C932 1.378 . S
C934 C935 1.367 . S
C935 C934 1.367 . S
C935 C937 1.433 . S
C936 C932 1.350 . S
C936 C933 1.463 . S
C936 N940 1.427 . S
C937 H927 0.929 . S
C937 C935 1.433 . S
C937 N940 1.384 . S
C938 H929 0.929 . S
C938 C930 1.378 . S
C938 C933 1.350 . S
C939 H926 0.929 . S
C939 C931 1.433 . S
C939 N941 1.384 . S
N940 C936 1.427 . S
N940 C937 1.384 . S
N941 C933 1.427 . S
N941 C939 1.384 . S
H942 C948 0.930 . S
H943 C952 0.930 . S
H944 C957 0.929 . S
H945 C955 0.929 . S
H946 C950 0.929 . S
H947 C956 0.929 . S
C948 H942 0.930 . S
C948 C949 1.367 . S
C948 C956 1.378 . S
C949 C948 1.367 . S
C949 C957 1.433 . S
C950 H946 0.929 . S
C950 C952 1.378 . S
C950 C954 1.350 . S
C951 C954 1.463 . S
C951 C956 1.350 . S
C951 N959 1.427 . S
C952 H943 0.930 . S
C952 C950 1.378 . S
C952 C953 1.367 . S
C953 C952 1.367 . S
C953 C955 1.433 . S
C954 C950 1.350 . S
C954 C951 1.463 . S
C954 N958 1.427 . S
C955 H945 0.929 . S
C955 C953 1.433 . S
C955 N958 1.384 . S
C956 H947 0.929 . S
C956 C948 1.378 . S
C956 C951 1.350 . S
C957 H944 0.929 . S
C957 C949 1.433 . S
C957 N959 1.384 . S
N958 C954 1.427 . S
N958 C955 1.384 . S
N959 C951 1.427 . S
N959 C957 1.384 . S
H960 C966 0.930 . S
H961 C970 0.930 1_554 S
H962 C975 0.929 . S
H963 C973 0.929 . S
H964 C968 0.929 1_554 S
H965 C974 0.929 . S
C966 H960 0.930 . S
C966 C967 1.367 . S
C966 C974 1.378 . S
C967 C966 1.367 . S
C967 C975 1.433 . S
C968 H964 0.929 1_556 S
C968 C970 1.378 . S
C968 C972 1.350 . S
C969 C972 1.463 . S
C969 C974 1.350 . S
C969 N977 1.427 . S
C970 H961 0.930 1_556 S
C970 C968 1.378 . S
C970 C971 1.367 . S
C971 C970 1.367 . S
C971 C973 1.433 . S
C972 C968 1.350 . S
C972 C969 1.463 . S
C972 N976 1.427 . S
C973 H963 0.929 . S
C973 C971 1.433 . S
C973 N976 1.384 . S
C974 H965 0.929 . S
C974 C966 1.378 . S
C974 C969 1.350 . S
C975 H962 0.929 . S
C975 C967 1.433 . S
C975 N977 1.384 . S
N976 C972 1.427 . S
N976 C973 1.384 . S
N977 C969 1.427 . S
N977 C975 1.384 . S
H978 C984 0.930 . S
H979 C988 0.930 1_556 S
H980 C993 0.929 . S
H981 C991 0.929 . S
H982 C986 0.929 . S
H983 C992 0.929 . S
C984 H978 0.930 . S
C984 C985 1.367 . S
C984 C992 1.378 . S
C985 C984 1.367 . S
C985 C993 1.433 . S
C986 H982 0.929 . S
C986 C988 1.378 . S
C986 C990 1.350 . S
C987 C990 1.463 . S
C987 C992 1.350 . S
C987 N995 1.427 . S
C988 H979 0.930 1_554 S
C988 C986 1.378 . S
C988 C989 1.367 . S
C989 C988 1.367 . S
C989 C991 1.433 . S
C990 C986 1.350 . S
C990 C987 1.463 . S
C990 N994 1.427 . S
C991 H981 0.929 . S
C991 C989 1.433 . S
C991 N994 1.384 . S
C992 H983 0.929 . S
C992 C984 1.378 . S
C992 C987 1.350 . S
C993 H980 0.929 . S
C993 C985 1.433 . S
C993 N995 1.384 . S
N994 C990 1.427 . S
N994 C991 1.384 . S
N995 C987 1.427 . S
N995 C993 1.384 . S
H996 C1002 0.930 . S
H997 C1006 0.930 1_655 S
H998 C1011 0.929 . S
H999 C1009 0.929 . S
H1000 C1004 0.929 1_655 S
H1001 C1010 0.929 . S
C1002 H996 0.930 . S
C1002 C1003 1.367 . S
C1002 C1010 1.378 . S
C1003 C1002 1.367 . S
C1003 C1011 1.433 . S
C1004 H1000 0.929 1_455 S
C1004 C1006 1.378 . S
C1004 C1008 1.350 . S
C1005 C1008 1.463 . S
C1005 C1010 1.350 . S
C1005 N1013 1.427 . S
C1006 H997 0.930 1_455 S
C1006 C1004 1.378 . S
C1006 C1007 1.367 . S
C1007 C1006 1.367 . S
C1007 C1009 1.433 . S
C1008 C1004 1.350 . S
C1008 C1005 1.463 . S
C1008 N1012 1.427 . S
C1009 H999 0.929 . S
C1009 C1007 1.433 . S
C1009 N1012 1.384 . S
C1010 H1001 0.929 . S
C1010 C1002 1.378 . S
C1010 C1005 1.350 . S
C1011 H998 0.929 . S
C1011 C1003 1.433 . S
C1011 N1013 1.384 . S
N1012 C1008 1.427 . S
N1012 C1009 1.384 . S
N1013 C1005 1.427 . S
N1013 C1011 1.384 . S
H1014 C1020 0.930 . S
H1015 C1024 0.930 . S
H1016 C1029 0.929 . S
H1017 C1027 0.929 . S
H1018 C1022 0.929 . S
H1019 C1028 0.929 . S
C1020 H1014 0.930 . S
C1020 C1021 1.367 . S
C1020 C1028 1.378 . S
C1021 C1020 1.367 . S
C1021 C1029 1.433 . S
C1022 H1018 0.929 . S
C1022 C1024 1.378 . S
C1022 C1026 1.350 . S
C1023 C1026 1.463 . S
C1023 C1028 1.350 . S
C1023 N1031 1.427 . S
C1024 H1015 0.930 . S
C1024 C1022 1.378 . S
C1024 C1025 1.367 . S
C1025 C1024 1.367 . S
C1025 C1027 1.433 . S
C1026 C1022 1.350 . S
C1026 C1023 1.463 . S
C1026 N1030 1.427 . S
C1027 H1017 0.929 . S
C1027 C1025 1.433 . S
C1027 N1030 1.384 . S
C1028 H1019 0.929 . S
C1028 C1020 1.378 . S
C1028 C1023 1.350 . S
C1029 H1016 0.929 . S
C1029 C1021 1.433 . S
C1029 N1031 1.384 . S
N1030 C1026 1.427 . S
N1030 C1027 1.384 . S
N1031 C1023 1.427 . S
N1031 C1029 1.384 . S
C607 C1 2.134 . S
C611 C496 2.171 . S
C625 C80 1.111 . S
C629 N516 1.115 . S
C647 C550 2.007 . S
C643 C140 1.944 . S
C661 C211 1.311 . S
C665 N584 1.287 . S
C683 C537 2.343 . S
C679 C31 2.326 . S
C701 N494 1.183 . S
C697 C61 1.175 . S
C719 C571 2.006 . S
C715 C151 1.929 . S
C737 N546 1.051 . S
C733 C200 1.031 . S
C751 C20 1.835 . S
C755 C586 1.847 . S
C773 C520 1.731 . S
C769 C121 1.659 . S
C787 C181 1.415 . S
C791 C481 1.499 . S
C805 C91 1.414 . S
C809 C567 1.475 . S
C827 C507 2.174 . S
C823 C260 2.162 . S
C841 C320 1.100 . S
C845 N524 1.122 . S
C859 C361 1.995 . S
C863 C541 2.004 . S
C877 C451 1.307 . S
C881 N576 1.275 . S
C895 C271 2.325 . S
C899 C526 2.346 . S
C917 N486 1.179 . S
C913 C301 1.177 . S
C935 C580 2.008 . S
C931 C380 1.977 . S
C953 N554 1.049 . S
C949 C440 1.029 . S
C967 C241 1.811 . S
C971 C597 1.849 . S
C989 C511 1.728 . S
C985 C391 1.704 . S
C1007 C490 1.496 . S
C1003 C421 1.412 . S
C1021 C331 1.407 . S
C1025 C556 1.473 . S
