# Generated by pormake.
# Topology dag, (6,3)-cn, num edge types: 1
# Building blocks:
#     Node 0, Type 0, BuildingBlock: OJICUG_clean_sbu_0, # of connection points: 6
#     Node 1, Type 0, BuildingBlock: OJICUG_clean_sbu_0, # of connection points: 6
#     Node 2, Type 0, BuildingBlock: OJICUG_clean_sbu_0, # of connection points: 6
#     Node 3, Type 0, BuildingBlock: OJICUG_clean_sbu_0, # of connection points: 6
#     Node 4, Type 1, BuildingBlock: BELTOD_clean_linker_0, # of connection points: 3
#     Node 5, Type 1, BuildingBlock: BELTOD_clean_linker_0, # of connection points: 3
#     Node 6, Type 1, BuildingBlock: BELTOD_clean_linker_0, # of connection points: 3
#     Node 7, Type 1, BuildingBlock: BELTOD_clean_linker_0, # of connection points: 3
#     Node 8, Type 1, BuildingBlock: BELTOD_clean_linker_0, # of connection points: 3
#     Node 9, Type 1, BuildingBlock: BELTOD_clean_linker_0, # of connection points: 3
#     Node 10, Type 1, BuildingBlock: BELTOD_clean_linker_0, # of connection points: 3
#     Node 11, Type 1, BuildingBlock: BELTOD_clean_linker_0, # of connection points: 3
#     Edge 12, Type (0, 1), BuildingBlock: EZIPEK_clean_linker_0, # of connection points: 2
#     Edge 13, Type (0, 1), BuildingBlock: EZIPEK_clean_linker_0, # of connection points: 2
#     Edge 14, Type (0, 1), BuildingBlock: EZIPEK_clean_linker_0, # of connection points: 2
#     Edge 15, Type (0, 1), BuildingBlock: EZIPEK_clean_linker_0, # of connection points: 2
#     Edge 16, Type (0, 1), BuildingBlock: EZIPEK_clean_linker_0, # of connection points: 2
#     Edge 17, Type (0, 1), BuildingBlock: EZIPEK_clean_linker_0, # of connection points: 2
#     Edge 18, Type (0, 1), BuildingBlock: EZIPEK_clean_linker_0, # of connection points: 2
#     Edge 19, Type (0, 1), BuildingBlock: EZIPEK_clean_linker_0, # of connection points: 2
#     Edge 20, Type (0, 1), BuildingBlock: EZIPEK_clean_linker_0, # of connection points: 2
#     Edge 21, Type (0, 1), BuildingBlock: EZIPEK_clean_linker_0, # of connection points: 2
#     Edge 22, Type (0, 1), BuildingBlock: EZIPEK_clean_linker_0, # of connection points: 2
#     Edge 23, Type (0, 1), BuildingBlock: EZIPEK_clean_linker_0, # of connection points: 2
#     Edge 24, Type (0, 1), BuildingBlock: EZIPEK_clean_linker_0, # of connection points: 2
#     Edge 25, Type (0, 1), BuildingBlock: EZIPEK_clean_linker_0, # of connection points: 2
#     Edge 26, Type (0, 1), BuildingBlock: EZIPEK_clean_linker_0, # of connection points: 2
#     Edge 27, Type (0, 1), BuildingBlock: EZIPEK_clean_linker_0, # of connection points: 2
#     Edge 28, Type (0, 1), BuildingBlock: EZIPEK_clean_linker_0, # of connection points: 2
#     Edge 29, Type (0, 1), BuildingBlock: EZIPEK_clean_linker_0, # of connection points: 2
#     Edge 30, Type (0, 1), BuildingBlock: EZIPEK_clean_linker_0, # of connection points: 2
#     Edge 31, Type (0, 1), BuildingBlock: EZIPEK_clean_linker_0, # of connection points: 2
#     Edge 32, Type (0, 1), BuildingBlock: EZIPEK_clean_linker_0, # of connection points: 2
#     Edge 33, Type (0, 1), BuildingBlock: EZIPEK_clean_linker_0, # of connection points: 2
#     Edge 34, Type (0, 1), BuildingBlock: EZIPEK_clean_linker_0, # of connection points: 2
#     Edge 35, Type (0, 1), BuildingBlock: EZIPEK_clean_linker_0, # of connection points: 2
# Relax obj value: 0.237
# Max RMSD: 0.193
# Mean RMSD: 0.160
data_MOF--net-dag--node1-OJICUG_clean_sbu_0--node2-BELTOD_clean_linker_0--edge1-EZIPEK_clean_linker_0
_symmetry_space_group_name_H-M    P1
_symmetry_Int_Tables_number       1
_symmetry_cell_setting            triclinic
loop_
_symmetry_equiv_pos_as_xyz
'x, y, z'
_cell_length_a     30.833997
_cell_length_b     33.195087
_cell_length_c     32.190024
_cell_angle_alpha  95.258126
_cell_angle_beta   90.231841
_cell_angle_gamma 90.050184
loop_
_atom_site_label
_atom_site_type_symbol
_atom_site_fract_x
_atom_site_fract_y
_atom_site_fract_z
_atom_type_partial_charge
Sc0 Sc 0.13329 0.89002 0.04397 0.0
Sc1 Sc 0.13975 0.78577 0.04077 0.0
Sc2 Sc 0.22075 0.84566 0.09186 0.0
O3 O 0.1652 0.84067 0.05875 0.0
C4 C 0.23193 0.91752 0.03522 0.0
C5 C 0.11067 0.83606 0.96524 0.0
C6 C 0.23735 0.77417 0.01842 0.0
C7 C 0.05983 0.83347 0.07641 0.0
C8 C 0.16146 0.91547 0.13708 0.0
C9 C 0.18268 0.76885 0.12726 0.0
O10 O 0.19138 0.92217 0.03071 0.0
O11 O 0.10831 0.80518 0.98569 0.0
O12 O 0.24955 0.79752 0.0502 0.0
O13 O 0.07089 0.86413 0.05777 0.0
O14 O 0.19582 0.89399 0.13562 0.0
O15 O 0.16493 0.75684 0.09278 0.0
O16 O 0.13465 0.91566 0.10708 0.0
O17 O 0.08286 0.8017 0.07654 0.0
O18 O 0.19902 0.80384 0.13455 0.0
O19 O 0.13019 0.868 0.97935 0.0
O20 O 0.24852 0.88905 0.05376 0.0
O21 O 0.19789 0.76938 0.00679 0.0
Sc22 Sc 0.69264 0.64322 0.44273 0.0
Sc23 Sc 0.61835 0.70858 0.49712 0.0
Sc24 Sc 0.59855 0.60437 0.48509 0.0
O25 O 0.63667 0.65195 0.47506 0.0
C26 C 0.62907 0.58038 0.39221 0.0
C27 C 0.66349 0.72499 0.41099 0.0
C28 C 0.53132 0.67149 0.45959 0.0
C29 C 0.71786 0.70988 0.51763 0.0
C30 C 0.69329 0.569 0.49804 0.0
C31 C 0.5863 0.65702 0.57031 0.0
O32 O 0.66441 0.60013 0.39577 0.0
O33 O 0.64485 0.73682 0.44503 0.0
O34 O 0.54094 0.63629 0.46938 0.0
O35 O 0.72742 0.68663 0.48523 0.0
O36 O 0.65226 0.56763 0.50086 0.0
O37 O 0.59049 0.69024 0.55405 0.0
O38 O 0.71353 0.59565 0.4797 0.0
O39 O 0.67906 0.7178 0.52904 0.0
O40 O 0.59216 0.62285 0.5502 0.0
O41 O 0.67662 0.689 0.40252 0.0
O42 O 0.60119 0.58059 0.42111 0.0
O43 O 0.55669 0.70181 0.46528 0.0
Sc44 Sc 0.87859 0.26772 0.01549 0.0
Sc45 Sc 0.80359 0.19452 0.97275 0.0
Sc46 Sc 0.90259 0.16382 0.01238 0.0
O47 O 0.8618 0.20885 0.00015 0.0
C48 C 0.96907 0.22981 0.98436 0.0
C49 C 0.83748 0.26613 0.92356 0.0
C50 C 0.86315 0.12424 0.92849 0.0
C51 C 0.77809 0.27032 0.03578 0.0
C52 C 0.91307 0.22472 0.09403 0.0
C53 C 0.80946 0.1324 0.03979 0.0
O54 O 0.94308 0.25958 0.98976 0.0
O55 O 0.81817 0.23232 0.92442 0.0
O56 O 0.89612 0.13227 0.95142 0.0
O57 O 0.81656 0.2821 0.04422 0.0
O58 O 0.91403 0.18982 0.07445 0.0
O59 O 0.78668 0.15655 0.02048 0.0
O60 O 0.90205 0.25653 0.07727 0.0
O61 O 0.76906 0.24189 0.00816 0.0
O62 O 0.85056 0.12981 0.0369 0.0
O63 O 0.85765 0.28411 0.95465 0.0
O64 O 0.95876 0.19388 0.99096 0.0
O65 O 0.82736 0.14281 0.93389 0.0
Sc66 Sc 0.38811 0.3415 0.53499 0.0
Sc67 Sc 0.29793 0.31508 0.59361 0.0
Sc68 Sc 0.36453 0.23859 0.5435 0.0
O69 O 0.35024 0.29834 0.55741 0.0
C70 C 0.38344 0.27475 0.45672 0.0
C71 C 0.29281 0.37709 0.52451 0.0
C72 C 0.26097 0.23969 0.53637 0.0
C73 C 0.36825 0.38029 0.62758 0.0
C74 C 0.45879 0.27758 0.5592 0.0
C75 C 0.3372 0.24147 0.63883 0.0
O76 O 0.3903 0.31051 0.47313 0.0
O77 O 0.27565 0.35888 0.55324 0.0
O78 O 0.29766 0.22301 0.52915 0.0
O79 O 0.39067 0.37735 0.59438 0.0
O80 O 0.43298 0.24751 0.55649 0.0
O81 O 0.31378 0.27282 0.6379 0.0
O82 O 0.44721 0.31322 0.5528 0.0
O83 O 0.33409 0.35977 0.63211 0.0
O84 O 0.35769 0.22524 0.60748 0.0
O85 O 0.33258 0.37383 0.51456 0.0
O86 O 0.37299 0.24563 0.47779 0.0
O87 O 0.25613 0.27289 0.55865 0.0
P88 P 0.01018 0.10978 0.35862 0.0
H89 H 0.98988 0.0299 0.31601 0.0
H90 H 0.03139 0.98404 0.26671 0.0
H91 H 0.13961 0.06684 0.27754 0.0
H92 H 0.09767 0.1133 0.32525 0.0
H93 H 0.01611 0.19145 0.40353 0.0
H94 H 0.07293 0.22326 0.44945 0.0
H95 H 0.13834 0.10848 0.44911 0.0
H96 H 0.08158 0.07662 0.404 0.0
H97 H 0.93102 0.10832 0.30934 0.0
H98 H 0.04371 0.18496 0.32859 0.0
O99 O 0.97007 0.08598 0.38102 0.0
H100 H 0.9087 0.14595 0.25086 0.0
H101 H 0.01998 0.22407 0.27172 0.0
C102 C 0.04117 0.0744 0.3251 0.0
C103 C 0.02268 0.03793 0.30815 0.0
C104 C 0.04631 0.01183 0.28015 0.0
C105 C 0.08864 0.022 0.26893 0.0
C106 C 0.10717 0.05836 0.28621 0.0
C107 C 0.08327 0.08472 0.31346 0.0
C108 C 0.04596 0.13218 0.39866 0.0
C109 C 0.04247 0.17309 0.41356 0.0
C110 C 0.07462 0.19116 0.43986 0.0
C111 C 0.11008 0.16822 0.4517 0.0
C112 C 0.11148 0.12664 0.43968 0.0
C113 C 0.07921 0.10862 0.41383 0.0
C114 C 0.9883 0.14456 0.32426 0.0
C115 C 0.94993 0.13431 0.30225 0.0
C116 C 0.93721 0.15572 0.26885 0.0
C117 C 0.96266 0.18781 0.25706 0.0
C118 C 0.99973 0.19962 0.28062 0.0
C119 C 0.01305 0.17748 0.31333 0.0
P120 P 0.47145 0.60005 0.85437 0.0
H121 H 0.56013 0.59745 0.82311 0.0
H122 H 0.59004 0.61707 0.75756 0.0
H123 H 0.47284 0.68263 0.73563 0.0
H124 H 0.44258 0.66261 0.80029 0.0
H125 H 0.46624 0.63553 0.9408 0.0
H126 H 0.41142 0.67709 0.97939 0.0
H127 H 0.33184 0.67372 0.86877 0.0
H128 H 0.38614 0.63181 0.8301 0.0
H129 H 0.51631 0.53585 0.8046 0.0
H130 H 0.3836 0.56264 0.8394 0.0
O131 O 0.50812 0.58594 0.88844 0.0
H132 H 0.49126 0.48179 0.75347 0.0
H133 H 0.35876 0.50922 0.78727 0.0
C134 C 0.49876 0.62799 0.81667 0.0
C135 C 0.54133 0.61719 0.80503 0.0
C136 C 0.55847 0.62833 0.76763 0.0
C137 C 0.53335 0.65085 0.74171 0.0
C138 C 0.49257 0.66512 0.7553 0.0
C139 C 0.47526 0.6535 0.79239 0.0
C140 C 0.43029 0.63007 0.88254 0.0
C141 C 0.43699 0.64345 0.92473 0.0
C142 C 0.40586 0.66726 0.94678 0.0
C143 C 0.36779 0.67832 0.92679 0.0
C144 C 0.36114 0.66541 0.88459 0.0
C145 C 0.39219 0.64148 0.86261 0.0
C146 C 0.45189 0.55477 0.82468 0.0
C147 C 0.48185 0.53018 0.8015 0.0
C148 C 0.46767 0.49918 0.77242 0.0
C149 C 0.42324 0.49216 0.76627 0.0
C150 C 0.39321 0.51472 0.79136 0.0
C151 C 0.40749 0.54562 0.82077 0.0
P152 P 0.80491 0.94384 0.25502 0.0
H153 H 0.74429 0.01147 0.25943 0.0
H154 H 0.72642 0.05864 0.20737 0.0
H155 H 0.78981 0.97971 0.11246 0.0
H156 H 0.80588 0.93212 0.16346 0.0
H157 H 0.79778 0.92319 0.3401 0.0
H158 H 0.75574 0.87156 0.37156 0.0
H159 H 0.69206 0.83905 0.25366 0.0
H160 H 0.73375 0.89165 0.22208 0.0
H161 H 0.89203 0.96859 0.2352 0.0
H162 H 0.81594 0.85893 0.2206 0.0
O163 O 0.82389 0.97871 0.29123 0.0
H164 H 0.9498 0.9349 0.19306 0.0
H165 H 0.87375 0.82544 0.17826 0.0
C166 C 0.77812 0.96943 0.21559 0.0
C167 C 0.7527 0.00358 0.22707 0.0
C168 C 0.74224 0.03027 0.19743 0.0
C169 C 0.75808 0.02299 0.15661 0.0
C170 C 0.778 0.98599 0.14406 0.0
C171 C 0.78767 0.95909 0.17342 0.0
C172 C 0.76846 0.91129 0.279 0.0
C173 C 0.77391 0.90585 0.32126 0.0
C174 C 0.74997 0.87652 0.33919 0.0
C175 C 0.72082 0.85194 0.31484 0.0
C176 C 0.71408 0.85827 0.27285 0.0
C177 C 0.73782 0.88806 0.25497 0.0
C178 C 0.85009 0.91608 0.23179 0.0
C179 C 0.88819 0.93705 0.22385 0.0
C180 C 0.92091 0.91801 0.19957 0.0
C181 C 0.91568 0.8779 0.18252 0.0
C182 C 0.87812 0.85646 0.19124 0.0
C183 C 0.84536 0.87553 0.21565 0.0
P184 P 0.78497 0.31122 0.61697 0.0
H185 H 0.82832 0.34754 0.5484 0.0
H186 H 0.81666 0.41299 0.5203 0.0
H187 H 0.73671 0.45133 0.62622 0.0
H188 H 0.74893 0.38642 0.65464 0.0
H189 H 0.86763 0.31136 0.66084 0.0
H190 H 0.88673 0.30912 0.7348 0.0
H191 H 0.75085 0.31001 0.76634 0.0
H192 H 0.73196 0.31539 0.69326 0.0
H193 H 0.71957 0.33716 0.55868 0.0
H194 H 0.72975 0.24709 0.64685 0.0
O195 O 0.81931 0.28118 0.58876 0.0
H196 H 0.64284 0.32141 0.54865 0.0
H197 H 0.65201 0.23161 0.63688 0.0
C198 C 0.78958 0.36233 0.60364 0.0
C199 C 0.80987 0.37064 0.56646 0.0
C200 C 0.80323 0.40789 0.55042 0.0
C201 C 0.77557 0.43662 0.57113 0.0
C202 C 0.75825 0.42949 0.60997 0.0
C203 C 0.7653 0.39252 0.62618 0.0
C204 C 0.79837 0.31124 0.67135 0.0
C205 C 0.842 0.31125 0.68374 0.0
C206 C 0.85289 0.31025 0.72581 0.0
C207 C 0.82013 0.30835 0.75576 0.0
C208 C 0.77654 0.31071 0.74356 0.0
C209 C 0.76578 0.31303 0.70172 0.0
C210 C 0.73006 0.29471 0.60513 0.0
C211 C 0.70547 0.31409 0.57604 0.0
C212 C 0.66165 0.30498 0.57004 0.0
C213 C 0.64182 0.27597 0.59261 0.0
C214 C 0.66686 0.25449 0.61963 0.0
C215 C 0.71102 0.26343 0.62537 0.0
P216 P 0.4965 0.35872 0.19192 0.0
H217 H 0.52926 0.4351 0.16686 0.0
H218 H 0.56533 0.49296 0.20617 0.0
H219 H 0.54565 0.43721 0.32046 0.0
H220 H 0.51028 0.37963 0.28166 0.0
H221 H 0.51618 0.32728 0.1059 0.0
H222 H 0.58487 0.30759 0.07147 0.0
H223 H 0.65078 0.32174 0.19031 0.0
H224 H 0.58213 0.34101 0.22488 0.0
H225 H 0.41085 0.36712 0.22711 0.0
H226 H 0.51978 0.28793 0.23653 0.0
O227 O 0.46272 0.37224 0.15502 0.0
H228 H 0.37461 0.33631 0.28141 0.0
H229 H 0.48426 0.25599 0.29104 0.0
C230 C 0.51607 0.40362 0.22143 0.0
C231 C 0.53192 0.4358 0.20048 0.0
C232 C 0.55271 0.46851 0.2227 0.0
C233 C 0.55784 0.46911 0.26605 0.0
C234 C 0.54166 0.43715 0.28699 0.0
C235 C 0.52112 0.40449 0.26482 0.0
C236 C 0.54404 0.3355 0.16795 0.0
C237 C 0.54516 0.32536 0.12471 0.0
C238 C 0.58433 0.31447 0.10502 0.0
C239 C 0.62281 0.31374 0.12837 0.0
C240 C 0.6214 0.3224 0.17182 0.0
C241 C 0.58221 0.33305 0.19149 0.0
C242 C 0.46699 0.32842 0.22597 0.0
C243 C 0.42582 0.34114 0.23936 0.0
C244 C 0.40446 0.32233 0.27051 0.0
C245 C 0.42278 0.28885 0.28859 0.0
C246 C 0.46552 0.2778 0.27583 0.0
C247 C 0.48693 0.29686 0.24465 0.0
P248 P 0.29685 0.19521 0.94518 0.0
H249 H 0.3623 0.14514 0.98255 0.0
H250 H 0.36014 0.0752 0.00254 0.0
H251 H 0.22917 0.06251 0.95555 0.0
H252 H 0.23166 0.13133 0.93462 0.0
H253 H 0.32599 0.26209 0.90001 0.0
H254 H 0.34126 0.26716 0.82585 0.0
H255 H 0.32537 0.13808 0.80129 0.0
H256 H 0.30912 0.13299 0.87489 0.0
H257 H 0.23651 0.20131 0.01436 0.0
H258 H 0.23567 0.22879 0.88581 0.0
O259 O 0.3286 0.22332 0.97844 0.0
H260 H 0.15861 0.21575 0.01885 0.0
H261 H 0.15832 0.24469 0.89096 0.0
C262 C 0.2966 0.14378 0.95853 0.0
C263 C 0.33322 0.12721 0.97653 0.0
C264 C 0.33211 0.08742 0.98767 0.0
C265 C 0.29423 0.06415 0.98104 0.0
C266 C 0.25846 0.08024 0.9613 0.0
C267 C 0.25978 0.11963 0.94977 0.0
C268 C 0.31656 0.19725 0.89298 0.0
C269 C 0.32674 0.23479 0.87884 0.0
C270 C 0.33537 0.23769 0.83668 0.0
C271 C 0.33418 0.20298 0.80835 0.0
C272 C 0.3264 0.1651 0.82287 0.0
C273 C 0.31715 0.1623 0.8649 0.0
C274 C 0.242 0.21386 0.94984 0.0
C275 C 0.21988 0.21137 0.98747 0.0
C276 C 0.1755 0.21949 0.99 0.0
C277 C 0.15272 0.23082 0.95507 0.0
C278 C 0.17536 0.23571 0.91812 0.0
C279 C 0.21963 0.22678 0.91534 0.0
P280 P 0.28492 0.54549 0.29082 0.0
H281 H 0.19944 0.52828 0.32962 0.0
H282 H 0.18203 0.4899 0.38959 0.0
H283 H 0.31673 0.45703 0.39939 0.0
H284 H 0.33415 0.49522 0.34063 0.0
H285 H 0.27198 0.55612 0.20343 0.0
H286 H 0.23684 0.61024 0.16999 0.0
H287 H 0.1768 0.65286 0.28648 0.0
H288 H 0.21059 0.59729 0.32 0.0
H289 H 0.37943 0.54439 0.29582 0.0
H290 H 0.27598 0.62351 0.34247 0.0
O291 O 0.31054 0.51449 0.25523 0.0
H292 H 0.43137 0.58651 0.33788 0.0
H293 H 0.32828 0.66637 0.38255 0.0
C294 C 0.26829 0.51523 0.33129 0.0
C295 C 0.22518 0.51305 0.34483 0.0
C296 C 0.21518 0.49107 0.37877 0.0
C297 C 0.2483 0.47112 0.39886 0.0
C298 C 0.29091 0.4725 0.38435 0.0
C299 C 0.30077 0.49429 0.35085 0.0
C300 C 0.24455 0.57291 0.26445 0.0
C301 C 0.24967 0.5757 0.22157 0.0
C302 C 0.22969 0.6067 0.20239 0.0
C303 C 0.20486 0.63568 0.226 0.0
C304 C 0.19591 0.63063 0.26787 0.0
C305 C 0.21535 0.59896 0.28693 0.0
C306 C 0.32368 0.58101 0.31508 0.0
C307 C 0.36791 0.57132 0.31393 0.0
C308 C 0.39757 0.59527 0.33792 0.0
C309 C 0.38348 0.62936 0.36321 0.0
C310 C 0.33962 0.64015 0.36312 0.0
C311 C 0.3098 0.6157 0.33978 0.0
P312 P 0.84684 0.84055 0.78313 0.0
H313 H 0.7827 0.8976 0.82011 0.0
H314 H 0.78887 0.96891 0.84605 0.0
H315 H 0.91412 0.97518 0.78803 0.0
H316 H 0.90822 0.90369 0.762 0.0
H317 H 0.79813 0.77033 0.74991 0.0
H318 H 0.77925 0.74338 0.67916 0.0
H319 H 0.85668 0.83587 0.62941 0.0
H320 H 0.87459 0.86406 0.7009 0.0
H321 H 0.87319 0.81713 0.86393 0.0
H322 H 0.93398 0.83252 0.74585 0.0
O323 O 0.80821 0.82318 0.81309 0.0
H324 H 0.94433 0.81246 0.89632 0.0
H325 H 0.00574 0.82915 0.77901 0.0
C326 C 0.84539 0.89499 0.78986 0.0
C327 C 0.81096 0.91441 0.81179 0.0
C328 C 0.81433 0.95517 0.82645 0.0
C329 C 0.85202 0.97702 0.81907 0.0
C330 C 0.88472 0.95872 0.79378 0.0
C331 C 0.88138 0.91784 0.77917 0.0
C332 C 0.83683 0.81979 0.73061 0.0
C333 C 0.81104 0.78505 0.72396 0.0
C334 C 0.80045 0.76949 0.68363 0.0
C335 C 0.81609 0.78804 0.6493 0.0
C336 C 0.844 0.82152 0.65572 0.0
C337 C 0.85407 0.83757 0.69636 0.0
C338 C 0.89827 0.82502 0.80246 0.0
C339 C 0.90174 0.8181 0.84459 0.0
C340 C 0.94234 0.81546 0.86312 0.0
C341 C 0.98006 0.82042 0.83996 0.0
C342 C 0.97687 0.8248 0.79714 0.0
C343 C 0.93599 0.82683 0.77837 0.0
C344 C 0.14511 0.98496 0.16783 0.0
C345 C 0.15215 0.94378 0.17414 0.0
C346 C 0.12674 0.95674 0.24615 0.0
C347 C 0.11265 0.99572 0.2371 0.0
N348 N 0.10314 0.04512 0.18708 0.0
N349 N 0.14736 0.88912 0.2185 0.0
C350 C 0.12077 0.00957 0.19745 0.0
C351 C 0.14292 0.9293 0.21329 0.0
N352 N 0.16199 0.00051 0.13348 0.0
N353 N 0.12523 0.94625 0.28619 0.0
H354 H 0.15949 0.86812 0.19542 0.0
H355 H 0.1362 0.87607 0.24466 0.0
H356 H 0.11374 0.96575 0.31097 0.0
H357 H 0.13892 0.91983 0.29546 0.0
H358 H 0.16147 0.03125 0.12923 0.0
H359 H 0.18052 0.98324 0.11141 0.0
H360 H 0.10421 0.05434 0.15703 0.0
H361 H 0.08386 0.06367 0.20731 0.0
C362 C 0.53413 0.63592 0.62342 0.0
C363 C 0.57196 0.65771 0.61421 0.0
C364 C 0.58142 0.67954 0.68861 0.0
C365 C 0.54664 0.65395 0.6979 0.0
N366 N 0.49565 0.60112 0.67474 0.0
N367 N 0.63594 0.69503 0.6384 0.0
C368 C 0.52454 0.63027 0.66547 0.0
C369 C 0.59676 0.67834 0.64688 0.0
N370 N 0.50646 0.62174 0.5921 0.0
N371 N 0.59924 0.70544 0.71949 0.0
H372 H 0.6488 0.69402 0.60842 0.0
H373 H 0.65747 0.70668 0.66146 0.0
H374 H 0.58891 0.7068 0.75041 0.0
H375 H 0.62163 0.7278 0.71387 0.0
H376 H 0.47612 0.60948 0.59758 0.0
H377 H 0.51175 0.62591 0.56081 0.0
H378 H 0.48229 0.58011 0.65223 0.0
H379 H 0.48816 0.59522 0.70516 0.0
C380 C 0.75732 0.07919 0.05989 0.0
C381 C 0.78862 0.10956 0.07133 0.0
C382 C 0.79555 0.0864 0.14067 0.0
C383 C 0.76342 0.05649 0.12989 0.0
N384 N 0.70676 0.03003 0.0835 0.0
N385 N 0.82652 0.15027 0.12593 0.0
C386 C 0.74179 0.05492 0.09085 0.0
C387 C 0.80388 0.11595 0.11294 0.0
N388 N 0.74446 0.07193 0.01921 0.0
N389 N 0.82068 0.0849 0.17564 0.0
H390 H 0.83327 0.17277 0.10633 0.0
H391 H 0.83458 0.15828 0.15707 0.0
H392 H 0.81746 0.06297 0.19656 0.0
H393 H 0.84781 0.10325 0.18188 0.0
H394 H 0.7254 0.04728 0.00824 0.0
H395 H 0.75534 0.08899 0.99568 0.0
H396 H 0.68727 0.03 0.05701 0.0
H397 H 0.69497 0.01199 0.10587 0.0
C398 C 0.52085 0.29305 0.60838 0.0
C399 C 0.50458 0.2715 0.57145 0.0
C400 C 0.57715 0.24389 0.55583 0.0
C401 C 0.59422 0.27019 0.589 0.0
N402 N 0.58361 0.32105 0.64647 0.0
N403 N 0.51721 0.22825 0.50824 0.0
C404 C 0.56636 0.29481 0.61551 0.0
C405 C 0.53258 0.24684 0.54499 0.0
N406 N 0.49263 0.31115 0.63698 0.0
N407 N 0.60368 0.21618 0.53472 0.0
H408 H 0.48485 0.22965 0.49929 0.0
H409 H 0.53691 0.2139 0.48524 0.0
H410 H 0.63661 0.21378 0.54167 0.0
H411 H 0.59252 0.19336 0.51295 0.0
H412 H 0.50199 0.32379 0.66644 0.0
H413 H 0.45907 0.31042 0.63274 0.0
H414 H 0.5657 0.34342 0.66344 0.0
H415 H 0.61662 0.32203 0.65374 0.0
C416 C 0.57863 0.56777 0.33208 0.0
C417 C 0.61771 0.55762 0.35197 0.0
C418 C 0.62391 0.49631 0.30398 0.0
C419 C 0.58092 0.50263 0.29023 0.0
N420 N 0.51688 0.54418 0.28976 0.0
N421 N 0.67959 0.51367 0.35598 0.0
C422 C 0.55836 0.53869 0.3033 0.0
C423 C 0.64151 0.52271 0.33709 0.0
N424 N 0.56138 0.60549 0.34067 0.0
N425 N 0.64769 0.46506 0.28519 0.0
H426 H 0.69468 0.53329 0.37868 0.0
H427 H 0.69548 0.48606 0.35047 0.0
H428 H 0.63539 0.44526 0.26091 0.0
H429 H 0.68051 0.46075 0.29098 0.0
H430 H 0.53489 0.61623 0.32488 0.0
H431 H 0.57652 0.62753 0.36095 0.0
H432 H 0.49704 0.56781 0.30152 0.0
H433 H 0.50127 0.52382 0.26803 0.0
C434 C 0.03179 0.21109 0.93782 0.0
C435 C 0.01441 0.23666 0.97134 0.0
C436 C 0.08654 0.26628 0.98501 0.0
C437 C 0.10479 0.23544 0.95709 0.0
N438 N 0.09485 0.17477 0.91036 0.0
N439 N 0.02668 0.2859 0.03061 0.0
C440 C 0.07745 0.20706 0.93397 0.0
C441 C 0.04197 0.26406 0.99566 0.0
N442 N 0.00457 0.19085 0.90949 0.0
N443 N 0.11181 0.29776 0.00123 0.0
H444 H 0.99463 0.28492 0.0405 0.0
H445 H 0.04678 0.30244 0.05198 0.0
H446 H 0.14453 0.30036 0.99373 0.0
H447 H 0.09934 0.32313 0.01859 0.0
H448 H 0.01545 0.17467 0.88226 0.0
H449 H 0.97091 0.19386 0.91104 0.0
H450 H 0.07621 0.1509 0.89668 0.0
H451 H 0.12811 0.16978 0.90746 0.0
C452 C 0.24468 0.38268 0.46317 0.0
C453 C 0.265 0.40162 0.49934 0.0
C454 C 0.25106 0.46818 0.47552 0.0
C455 C 0.24034 0.4488 0.43576 0.0
N456 N 0.22171 0.3888 0.39175 0.0
N457 N 0.28028 0.4613 0.54489 0.0
C458 C 0.23435 0.40636 0.42994 0.0
C459 C 0.26517 0.44423 0.50738 0.0
N460 N 0.23609 0.34213 0.46064 0.0
N461 N 0.24886 0.50939 0.48185 0.0
H462 H 0.28772 0.4439 0.56936 0.0
H463 H 0.28547 0.49212 0.55198 0.0
H464 H 0.23829 0.52706 0.45859 0.0
H465 H 0.25452 0.52592 0.51038 0.0
H466 H 0.21869 0.3267 0.43638 0.0
H467 H 0.24366 0.32436 0.48477 0.0
H468 H 0.22161 0.35774 0.38358 0.0
H469 H 0.21238 0.40585 0.36755 0.0
C470 C 0.08626 0.80315 0.89587 0.0
C471 C 0.08412 0.83647 0.92682 0.0
C472 C 0.02517 0.86529 0.88805 0.0
C473 C 0.02126 0.82823 0.86299 0.0
N474 N 0.04753 0.76124 0.84208 0.0
N475 N 0.04576 0.89671 0.95546 0.0
C476 C 0.05207 0.79708 0.86613 0.0
C477 C 0.05266 0.86742 0.92342 0.0
N478 N 0.12107 0.77765 0.89486 0.0
N479 N 0.0015 0.89809 0.87867 0.0
H480 H 0.06259 0.89867 0.98362 0.0
H481 H 0.01981 0.91683 0.95594 0.0
H482 H 0.98068 0.89724 0.85295 0.0
H483 H 0.00601 0.92695 0.89373 0.0
H484 H 0.12621 0.75473 0.87107 0.0
H485 H 0.147 0.78202 0.91574 0.0
H486 H 0.06601 0.73567 0.8463 0.0
H487 H 0.02354 0.75654 0.81919 0.0
C488 C 0.87318 0.04949 0.91403 0.0
C489 C 0.86425 0.08746 0.89869 0.0
C490 C 0.84871 0.05318 0.82931 0.0
C491 C 0.86022 0.01583 0.8444 0.0
N492 N 0.89335 0.97949 0.89784 0.0
N493 N 0.85012 0.12655 0.84059 0.0
C494 C 0.8759 0.01444 0.88565 0.0
C495 C 0.85396 0.08966 0.85588 0.0
N496 N 0.87578 0.04616 0.95603 0.0
N497 N 0.83172 0.05357 0.79008 0.0
H498 H 0.85358 0.15367 0.85935 0.0
H499 H 0.84689 0.13039 0.809 0.0
H500 H 0.82894 0.02748 0.76953 0.0
H501 H 0.81817 0.07913 0.77875 0.0
H502 H 0.87718 0.01849 0.96884 0.0
H503 H 0.87186 0.07046 0.97852 0.0
H504 H 0.90972 0.97811 0.92606 0.0
H505 H 0.89518 0.9527 0.87829 0.0
C506 C 0.35589 0.28878 0.38593 0.0
C507 C 0.38512 0.26779 0.41048 0.0
C508 C 0.42091 0.24003 0.34627 0.0
C509 C 0.40071 0.27035 0.32477 0.0
N510 N 0.32722 0.29223 0.31638 0.0
N511 N 0.44219 0.21802 0.4129 0.0
C512 C 0.36136 0.28602 0.34203 0.0
C513 C 0.41613 0.24108 0.39028 0.0
N514 N 0.32316 0.31154 0.40429 0.0
N515 N 0.4393 0.20754 0.32409 0.0
H516 H 0.43833 0.21635 0.44477 0.0
H517 H 0.46874 0.20201 0.40007 0.0
H518 H 0.43723 0.2038 0.29156 0.0
H519 H 0.45114 0.18247 0.33776 0.0
H520 H 0.30418 0.33084 0.38801 0.0
H521 H 0.31638 0.31236 0.43606 0.0
H522 H 0.29633 0.30014 0.32734 0.0
H523 H 0.32896 0.28412 0.28429 0.0
C524 C 0.27191 0.98183 0.05266 0.0
C525 C 0.26021 0.94996 0.02237 0.0
C526 C 0.28666 0.98917 0.96689 0.0
C527 C 0.29019 0.02353 0.99632 0.0
N528 N 0.28392 0.05376 0.06725 0.0
N529 N 0.25664 0.92186 0.95085 0.0
C530 C 0.28315 0.02006 0.03941 0.0
C531 C 0.26824 0.95298 0.97949 0.0
N532 N 0.27132 0.97579 0.0941 0.0
N533 N 0.30084 0.99146 0.92702 0.0
H534 H 0.24468 0.89442 0.95947 0.0
H535 H 0.25694 0.9238 0.91876 0.0
H536 H 0.3147 0.0177 0.91728 0.0
H537 H 0.30249 0.96667 0.90481 0.0
H538 H 0.28352 0.99661 0.11741 0.0
H539 H 0.2622 0.94841 0.10499 0.0
H540 H 0.27349 0.05392 0.09799 0.0
H541 H 0.292 0.08246 0.05905 0.0
C542 C 0.48737 0.68239 0.39559 0.0
C543 C 0.4891 0.67536 0.43844 0.0
C544 C 0.41605 0.64676 0.43431 0.0
C545 C 0.41509 0.65212 0.39107 0.0
N546 N 0.44243 0.68648 0.334 0.0
N547 N 0.45069 0.66477 0.50127 0.0
C548 C 0.44822 0.67424 0.37302 0.0
C549 C 0.45164 0.66246 0.45871 0.0
N550 N 0.52385 0.69349 0.37559 0.0
N551 N 0.38477 0.62433 0.45147 0.0
H552 H 0.47646 0.67695 0.51949 0.0
H553 H 0.42311 0.65875 0.51823 0.0
H554 H 0.35812 0.6121 0.43474 0.0
H555 H 0.38675 0.61552 0.48165 0.0
H556 H 0.52556 0.69509 0.34348 0.0
H557 H 0.5537 0.69775 0.39048 0.0
H558 H 0.46379 0.7057 0.32043 0.0
H559 H 0.4139 0.68056 0.31693 0.0
C560 C 0.38552 0.4509 0.65797 0.0
C561 C 0.38277 0.4089 0.66296 0.0
C562 C 0.4026 0.42204 0.73692 0.0
C563 C 0.40836 0.4635 0.73107 0.0
N564 N 0.41155 0.51705 0.68528 0.0
N565 N 0.39606 0.35333 0.70472 0.0
C566 C 0.40164 0.47783 0.69134 0.0
C567 C 0.39318 0.39411 0.70185 0.0
N568 N 0.37105 0.46531 0.62194 0.0
N569 N 0.40556 0.40951 0.77613 0.0
H570 H 0.3902 0.33192 0.67956 0.0
H571 H 0.40796 0.34065 0.73089 0.0
H572 H 0.41352 0.42902 0.80232 0.0
H573 H 0.39701 0.38059 0.78324 0.0
H574 H 0.36722 0.49595 0.61831 0.0
H575 H 0.35954 0.44664 0.5965 0.0
H576 H 0.41253 0.52799 0.656 0.0
H577 H 0.4219 0.53821 0.70923 0.0
C578 C 0.02553 0.83899 0.14703 0.0
C579 C 0.02084 0.8375 0.10295 0.0
C580 C 0.94509 0.85885 0.11075 0.0
C581 C 0.94962 0.85915 0.15469 0.0
N582 N 0.98979 0.84001 0.21404 0.0
N583 N 0.97474 0.83761 0.04243 0.0
C584 C 0.98844 0.84586 0.17257 0.0
C585 C 0.98003 0.8447 0.08466 0.0
N586 N 0.06579 0.83696 0.16474 0.0
N587 N 0.90821 0.87378 0.09412 0.0
H588 H 0.99984 0.82708 0.02265 0.0
H589 H 0.94484 0.83868 0.02743 0.0
H590 H 0.88159 0.88363 0.11218 0.0
H591 H 0.90495 0.8788 0.06281 0.0
H592 H 0.07141 0.84227 0.19668 0.0
H593 H 0.09431 0.8335 0.14753 0.0
H594 H 0.01581 0.82641 0.22802 0.0
H595 H 0.96312 0.84519 0.23366 0.0
C596 C 0.7461 0.54363 0.54925 0.0
C597 C 0.71802 0.53583 0.51444 0.0
C598 C 0.7278 0.463 0.5168 0.0
C599 C 0.75863 0.47083 0.54946 0.0
N600 N 0.80313 0.51815 0.59188 0.0
N601 N 0.68856 0.48888 0.45981 0.0
C602 C 0.76979 0.5111 0.56407 0.0
C603 C 0.71099 0.49573 0.49652 0.0
N604 N 0.74804 0.58151 0.5697 0.0
N605 N 0.71253 0.42462 0.50674 0.0
H606 H 0.67475 0.51202 0.44443 0.0
H607 H 0.68684 0.46066 0.44281 0.0
H608 H 0.72322 0.39955 0.5211 0.0
H609 H 0.68632 0.41807 0.48673 0.0
H610 H 0.76461 0.58816 0.59775 0.0
H611 H 0.72969 0.60562 0.56065 0.0
H612 H 0.81548 0.54691 0.60064 0.0
H613 H 0.82097 0.49483 0.60333 0.0
C614 C 0.89991 0.23465 0.1715 0.0
C615 C 0.92894 0.22729 0.13762 0.0
C616 C 0.98171 0.19769 0.18278 0.0
C617 C 0.95313 0.20539 0.21711 0.0
N618 N 0.89009 0.23982 0.24664 0.0
N619 N 0.00176 0.21402 0.11363 0.0
C620 C 0.91384 0.22684 0.21226 0.0
C621 C 0.97144 0.21317 0.14439 0.0
N622 N 0.85844 0.24685 0.16441 0.0
N623 N 0.01688 0.17298 0.1856 0.0
H624 H 0.99491 0.22523 0.08507 0.0
H625 H 0.03445 0.20763 0.11806 0.0
H626 H 0.02488 0.15916 0.21238 0.0
H627 H 0.03584 0.1629 0.16002 0.0
H628 H 0.83417 0.24784 0.18688 0.0
H629 H 0.84759 0.25374 0.13517 0.0
H630 H 0.86316 0.25862 0.24559 0.0
H631 H 0.89972 0.23472 0.27683 0.0
C632 C 0.14944 0.71837 0.17098 0.0
C633 C 0.18681 0.73947 0.15888 0.0
C634 C 0.23185 0.70046 0.20316 0.0
C635 C 0.19618 0.67456 0.20855 0.0
N636 N 0.12101 0.65727 0.1969 0.0
N637 N 0.26511 0.74591 0.15845 0.0
C638 C 0.15474 0.68328 0.19269 0.0
C639 C 0.22845 0.72977 0.17409 0.0
N640 N 0.10902 0.73231 0.16233 0.0
N641 N 0.26914 0.69671 0.2256 0.0
H642 H 0.2648 0.76597 0.1354 0.0
H643 H 0.29624 0.73618 0.16528 0.0
H644 H 0.27268 0.67548 0.24736 0.0
H645 H 0.29467 0.71732 0.22577 0.0
H646 H 0.08061 0.72043 0.17366 0.0
H647 H 0.10409 0.75832 0.14708 0.0
H648 H 0.09128 0.65951 0.18181 0.0
H649 H 0.12371 0.63189 0.2136 0.0
C650 C 0.74824 0.77428 0.55071 0.0
C651 C 0.7528 0.7319 0.54194 0.0
C652 C 0.81328 0.73284 0.59146 0.0
C653 C 0.80105 0.77245 0.60714 0.0
N654 N 0.75582 0.83134 0.60239 0.0
N655 N 0.79175 0.67033 0.55217 0.0
C656 C 0.76889 0.79375 0.58644 0.0
C657 C 0.78663 0.71107 0.56103 0.0
N658 N 0.72421 0.79577 0.52465 0.0
N659 N 0.85014 0.71617 0.60617 0.0
H660 H 0.77412 0.65341 0.52912 0.0
H661 H 0.81211 0.65282 0.56907 0.0
H662 H 0.8701 0.73188 0.62841 0.0
H663 H 0.86306 0.68877 0.59362 0.0
H664 H 0.72271 0.82726 0.52746 0.0
H665 H 0.70978 0.78222 0.49747 0.0
H666 H 0.72882 0.84593 0.5913 0.0
H667 H 0.76999 0.84692 0.62856 0.0
C668 C 0.72175 0.32232 0.05896 0.0
C669 C 0.74226 0.28485 0.06363 0.0
C670 C 0.68469 0.26632 0.11062 0.0
C671 C 0.66479 0.30436 0.10719 0.0
N672 N 0.66836 0.37187 0.08527 0.0
N673 N 0.74958 0.22553 0.10098 0.0
C674 C 0.68457 0.33343 0.08349 0.0
C675 C 0.72566 0.25824 0.09179 0.0
N676 N 0.73692 0.34652 0.03009 0.0
N677 N 0.66358 0.23724 0.13029 0.0
H678 H 0.77994 0.21903 0.08792 0.0
H679 H 0.74143 0.20718 0.12434 0.0
H680 H 0.6334 0.24191 0.14443 0.0
H681 H 0.6742 0.20742 0.12966 0.0
H682 H 0.72054 0.37195 0.02161 0.0
H683 H 0.76488 0.33973 0.01268 0.0
H684 H 0.68372 0.39552 0.07206 0.0
H685 H 0.64126 0.38105 0.10298 0.0
C686 C 0.30235 0.20623 0.69459 0.0
C687 C 0.34016 0.22345 0.67893 0.0
C688 C 0.37728 0.21765 0.7455 0.0
C689 C 0.33718 0.20701 0.76302 0.0
N690 N 0.2599 0.19568 0.75555 0.0
N691 N 0.41378 0.24704 0.68885 0.0
C692 C 0.29927 0.20207 0.73785 0.0
C693 C 0.37798 0.22912 0.70402 0.0
N694 N 0.26969 0.19336 0.66778 0.0
N695 N 0.41459 0.21628 0.76839 0.0
H696 H 0.41589 0.25449 0.65815 0.0
H697 H 0.44038 0.25662 0.7072 0.0
H698 H 0.41502 0.20792 0.79886 0.0
H699 H 0.44538 0.22001 0.75613 0.0
H700 H 0.24274 0.17732 0.67668 0.0
H701 H 0.27215 0.19482 0.63564 0.0
H702 H 0.23067 0.19634 0.7393 0.0
H703 H 0.2558 0.19324 0.78736 0.0
C704 C 0.71971 0.75726 0.36901 0.0
C705 C 0.67593 0.75563 0.38256 0.0
C706 C 0.6597 0.81697 0.34831 0.0
C707 C 0.7025 0.8163 0.3326 0.0
N708 N 0.76899 0.77978 0.3178 0.0
N709 N 0.6022 0.77989 0.37883 0.0
C710 C 0.73091 0.78417 0.33933 0.0
C711 C 0.64518 0.78426 0.37026 0.0
N712 N 0.75153 0.73593 0.38702 0.0
N713 N 0.63359 0.84952 0.34368 0.0
H714 H 0.59039 0.75673 0.3953 0.0
H715 H 0.57788 0.79726 0.36677 0.0
H716 H 0.6429 0.87339 0.32673 0.0
H717 H 0.60393 0.85406 0.35874 0.0
H718 H 0.78439 0.73946 0.38081 0.0
H719 H 0.74614 0.71866 0.41192 0.0
H720 H 0.78895 0.75455 0.31878 0.0
H721 H 0.77828 0.79921 0.29569 0.0
C722 C 0.81935 0.31855 0.87433 0.0
C723 C 0.8406 0.28228 0.88248 0.0
C724 C 0.85101 0.26433 0.80803 0.0
C725 C 0.83092 0.30117 0.79947 0.0
N726 N 0.80637 0.36795 0.82462 0.0
N727 N 0.88942 0.22846 0.85885 0.0
C728 C 0.81845 0.32987 0.83276 0.0
C729 C 0.86075 0.25782 0.84982 0.0
N730 N 0.79839 0.34109 0.90572 0.0
N731 N 0.85804 0.23425 0.77685 0.0
H732 H 0.89765 0.22328 0.88941 0.0
H733 H 0.90816 0.21225 0.8362 0.0
H734 H 0.84941 0.23651 0.74582 0.0
H735 H 0.86842 0.20538 0.7825 0.0
H736 H 0.7782 0.36532 0.90068 0.0
H737 H 0.79897 0.33391 0.93658 0.0
H738 H 0.8006 0.39123 0.84788 0.0
H739 H 0.8062 0.3773 0.79453 0.0
C740 C 0.18789 0.20648 0.5387 0.0
C741 C 0.22212 0.22148 0.51497 0.0
C742 C 0.18044 0.20561 0.45038 0.0
C743 C 0.14773 0.188 0.47387 0.0
N744 N 0.12088 0.16797 0.53904 0.0
N745 N 0.25237 0.23515 0.44857 0.0
C746 C 0.15157 0.18749 0.5177 0.0
C747 C 0.21879 0.22094 0.47085 0.0
N748 N 0.18981 0.21099 0.58133 0.0
N749 N 0.1743 0.2083 0.40856 0.0
H750 H 0.27934 0.24987 0.46241 0.0
H751 H 0.2547 0.23121 0.41623 0.0
H752 H 0.14761 0.19581 0.39204 0.0
H753 H 0.19414 0.22479 0.39029 0.0
H754 H 0.164 0.20502 0.60057 0.0
H755 H 0.21651 0.22329 0.59788 0.0
H756 H 0.12414 0.16206 0.57008 0.0
H757 H 0.09284 0.1554 0.52497 0.0
C758 C 0.27369 0.70778 -0.00065 0.0
C759 C 0.27081 0.74984 0.99496 0.0
C760 C 0.33386 0.74562 0.9486 0.0
C761 C 0.33444 0.70305 0.95031 0.0
N762 N 0.30196 0.64247 0.97235 0.0
N763 N 0.29404 0.8085 0.96211 0.0
C764 C 0.30349 0.68378 0.9743 0.0
C765 C 0.29985 0.76875 0.96872 0.0
N766 N 0.2491 0.69109 0.02864 0.0
N767 N 0.3664 0.76394 0.92853 0.0
H768 H 0.26977 0.8264 0.97678 0.0
H769 H 0.31102 0.82305 0.93992 0.0
H770 H 0.39133 0.74785 0.91275 0.0
H771 H 0.37058 0.79516 0.92994 0.0
H772 H 0.25321 0.66166 0.0367 0.0
H773 H 0.22686 0.70768 0.04758 0.0
H774 H 0.2771 0.62649 0.98526 0.0
H775 H 0.32385 0.62387 0.95504 0.0
loop_
_geom_bond_atom_site_label_1
_geom_bond_atom_site_label_2
_geom_bond_distance
_geom_bond_site_symmetry_2
_ccdc_geom_bond_type
Sc0 O3 2.025 . S
Sc0 O10 2.105 . S
Sc0 O13 2.105 . S
Sc0 O16 2.105 . S
Sc0 O19 2.105 1_554 S
Sc1 O3 2.025 . S
Sc1 O11 2.105 1_554 S
Sc1 O15 2.105 . S
Sc1 O17 2.105 . S
Sc1 O21 2.105 . S
Sc2 O3 2.025 . S
Sc2 O12 2.105 . S
Sc2 O14 2.105 . S
Sc2 O18 2.105 . S
Sc2 O20 2.105 . S
O3 Sc0 2.025 . S
O3 Sc1 2.025 . S
O3 Sc2 2.025 . S
C4 O10 1.268 . S
C4 O20 1.268 . S
C5 O11 1.268 . S
C5 O19 1.268 . S
C6 O12 1.268 . S
C6 O21 1.268 . S
C7 O13 1.268 . S
C7 O17 1.268 . S
C8 O14 1.268 . S
C8 O16 1.268 . S
C9 O15 1.268 . S
C9 O18 1.268 . S
O10 Sc0 2.105 . S
O10 C4 1.268 . S
O11 Sc1 2.105 1_556 S
O11 C5 1.268 . S
O12 Sc2 2.105 . S
O12 C6 1.268 . S
O13 Sc0 2.105 . S
O13 C7 1.268 . S
O14 Sc2 2.105 . S
O14 C8 1.268 . S
O15 Sc1 2.105 . S
O15 C9 1.268 . S
O16 Sc0 2.105 . S
O16 C8 1.268 . S
O17 Sc1 2.105 . S
O17 C7 1.268 . S
O18 Sc2 2.105 . S
O18 C9 1.268 . S
O19 Sc0 2.105 1_556 S
O19 C5 1.268 . S
O20 Sc2 2.105 . S
O20 C4 1.268 . S
O21 Sc1 2.105 . S
O21 C6 1.268 . S
Sc22 O25 2.025 . S
Sc22 O32 2.105 . S
Sc22 O35 2.105 . S
Sc22 O38 2.105 . S
Sc22 O41 2.105 . S
Sc23 O25 2.025 . S
Sc23 O33 2.105 . S
Sc23 O37 2.105 . S
Sc23 O39 2.105 . S
Sc23 O43 2.105 . S
Sc24 O25 2.025 . S
Sc24 O34 2.105 . S
Sc24 O36 2.105 . S
Sc24 O40 2.105 . S
Sc24 O42 2.105 . S
O25 Sc22 2.025 . S
O25 Sc23 2.025 . S
O25 Sc24 2.025 . S
C26 O32 1.268 . S
C26 O42 1.268 . S
C27 O33 1.268 . S
C27 O41 1.268 . S
C28 O34 1.268 . S
C28 O43 1.268 . S
C29 O35 1.268 . S
C29 O39 1.268 . S
C30 O36 1.268 . S
C30 O38 1.268 . S
C31 O37 1.268 . S
C31 O40 1.268 . S
O32 Sc22 2.105 . S
O32 C26 1.268 . S
O33 Sc23 2.105 . S
O33 C27 1.268 . S
O34 Sc24 2.105 . S
O34 C28 1.268 . S
O35 Sc22 2.105 . S
O35 C29 1.268 . S
O36 Sc24 2.105 . S
O36 C30 1.268 . S
O37 Sc23 2.105 . S
O37 C31 1.268 . S
O38 Sc22 2.105 . S
O38 C30 1.268 . S
O39 Sc23 2.105 . S
O39 C29 1.268 . S
O40 Sc24 2.105 . S
O40 C31 1.268 . S
O41 Sc22 2.105 . S
O41 C27 1.268 . S
O42 Sc24 2.105 . S
O42 C26 1.268 . S
O43 Sc23 2.105 . S
O43 C28 1.268 . S
Sc44 O47 2.025 . S
Sc44 O54 2.105 1_554 S
Sc44 O57 2.105 . S
Sc44 O60 2.105 . S
Sc44 O63 2.105 1_554 S
Sc45 O47 2.025 1_556 S
Sc45 O55 2.105 . S
Sc45 O59 2.105 1_556 S
Sc45 O61 2.105 1_556 S
Sc45 O65 2.105 . S
Sc46 O47 2.025 . S
Sc46 O56 2.105 1_554 S
Sc46 O58 2.105 . S
Sc46 O62 2.105 . S
Sc46 O64 2.105 1_554 S
O47 Sc44 2.025 . S
O47 Sc45 2.025 1_554 S
O47 Sc46 2.025 . S
C48 O54 1.268 . S
C48 O64 1.268 . S
C49 O55 1.268 . S
C49 O63 1.268 . S
C50 O56 1.268 . S
C50 O65 1.268 . S
C51 O57 1.268 . S
C51 O61 1.268 . S
C52 O58 1.268 . S
C52 O60 1.268 . S
C53 O59 1.268 . S
C53 O62 1.268 . S
O54 Sc44 2.105 1_556 S
O54 C48 1.268 . S
O55 Sc45 2.105 . S
O55 C49 1.268 . S
O56 Sc46 2.105 1_556 S
O56 C50 1.268 . S
O57 Sc44 2.105 . S
O57 C51 1.268 . S
O58 Sc46 2.105 . S
O58 C52 1.268 . S
O59 Sc45 2.105 1_554 S
O59 C53 1.268 . S
O60 Sc44 2.105 . S
O60 C52 1.268 . S
O61 Sc45 2.105 1_554 S
O61 C51 1.268 . S
O62 Sc46 2.105 . S
O62 C53 1.268 . S
O63 Sc44 2.105 1_556 S
O63 C49 1.268 . S
O64 Sc46 2.105 1_556 S
O64 C48 1.268 . S
O65 Sc45 2.105 . S
O65 C50 1.268 . S
Sc66 O69 2.025 . S
Sc66 O76 2.105 . S
Sc66 O79 2.105 . S
Sc66 O82 2.105 . S
Sc66 O85 2.105 . S
Sc67 O69 2.025 . S
Sc67 O77 2.105 . S
Sc67 O81 2.105 . S
Sc67 O83 2.105 . S
Sc67 O87 2.105 . S
Sc68 O69 2.025 . S
Sc68 O78 2.105 . S
Sc68 O80 2.105 . S
Sc68 O84 2.105 . S
Sc68 O86 2.105 . S
O69 Sc66 2.025 . S
O69 Sc67 2.025 . S
O69 Sc68 2.025 . S
C70 O76 1.268 . S
C70 O86 1.268 . S
C71 O77 1.268 . S
C71 O85 1.268 . S
C72 O78 1.268 . S
C72 O87 1.268 . S
C73 O79 1.268 . S
C73 O83 1.268 . S
C74 O80 1.268 . S
C74 O82 1.268 . S
C75 O81 1.268 . S
C75 O84 1.268 . S
O76 Sc66 2.105 . S
O76 C70 1.268 . S
O77 Sc67 2.105 . S
O77 C71 1.268 . S
O78 Sc68 2.105 . S
O78 C72 1.268 . S
O79 Sc66 2.105 . S
O79 C73 1.268 . S
O80 Sc68 2.105 . S
O80 C74 1.268 . S
O81 Sc67 2.105 . S
O81 C75 1.268 . S
O82 Sc66 2.105 . S
O82 C74 1.268 . S
O83 Sc67 2.105 . S
O83 C73 1.268 . S
O84 Sc68 2.105 . S
O84 C75 1.268 . S
O85 Sc66 2.105 . S
O85 C71 1.268 . S
O86 Sc68 2.105 . S
O86 C70 1.268 . S
O87 Sc67 2.105 . S
O87 C72 1.268 . S
P88 O99 1.490 1_455 S
P88 C102 1.812 . S
P88 C108 1.803 . S
P88 C114 1.819 1_455 S
H89 C103 0.941 . S
H90 C104 0.939 . S
H91 C106 0.940 . S
H92 C107 0.940 . S
H93 C109 0.939 . S
H94 C110 0.942 . S
H95 C112 0.940 . S
H96 C113 0.939 . S
H97 C115 0.941 . S
H98 C119 0.939 . S
O99 P88 1.490 1_655 S
H100 C116 0.939 . S
H101 C118 0.948 . S
C102 P88 1.812 . S
C102 C103 1.389 . S
C102 C107 1.391 . S
C103 H89 0.941 . S
C103 C102 1.389 . S
C103 C104 1.397 1_545 S
C104 H90 0.939 . S
C104 C103 1.397 1_565 S
C104 C105 1.378 . S
C105 C104 1.378 . S
C105 C106 1.378 1_565 S
C106 H91 0.940 . S
C106 C105 1.378 1_545 S
C106 C107 1.396 . S
C107 H92 0.940 . S
C107 C102 1.391 . S
C107 C106 1.396 . S
C108 P88 1.803 . S
C108 C109 1.378 . S
C108 C113 1.400 . S
C109 H93 0.939 . S
C109 C108 1.378 . S
C109 C110 1.361 . S
C110 H94 0.942 . S
C110 C109 1.361 . S
C110 C111 1.369 . S
C111 C110 1.369 . S
C111 C112 1.404 . S
C112 H95 0.940 . S
C112 C111 1.404 . S
C112 C113 1.389 . S
C113 H96 0.939 . S
C113 C108 1.400 . S
C113 C112 1.389 . S
C114 P88 1.819 1_655 S
C114 C115 1.391 . S
C114 C119 1.391 1_655 S
C115 H97 0.941 . S
C115 C114 1.391 . S
C115 C116 1.396 . S
C116 H100 0.939 . S
C116 C115 1.396 . S
C116 C117 1.397 . S
C117 C116 1.397 . S
C117 C118 1.385 . S
C118 H101 0.948 . S
C118 C117 1.385 . S
C118 C119 1.388 1_655 S
C119 H98 0.939 . S
C119 C114 1.391 1_455 S
C119 C118 1.388 1_455 S
P120 O131 1.490 . S
P120 C134 1.812 . S
P120 C140 1.803 . S
P120 C146 1.819 . S
H121 C135 0.941 . S
H122 C136 0.939 . S
H123 C138 0.940 . S
H124 C139 0.940 . S
H125 C141 0.939 . S
H126 C142 0.942 . S
H127 C144 0.940 . S
H128 C145 0.939 . S
H129 C147 0.941 . S
H130 C151 0.939 . S
O131 P120 1.490 . S
H132 C148 0.939 . S
H133 C150 0.940 . S
C134 P120 1.812 . S
C134 C135 1.389 . S
C134 C139 1.391 . S
C135 H121 0.941 . S
C135 C134 1.389 . S
C135 C136 1.397 . S
C136 H122 0.939 . S
C136 C135 1.397 . S
C136 C137 1.378 . S
C137 C136 1.378 . S
C137 C138 1.378 . S
C138 H123 0.940 . S
C138 C137 1.378 . S
C138 C139 1.396 . S
C139 H124 0.940 . S
C139 C134 1.391 . S
C139 C138 1.396 . S
C140 P120 1.803 . S
C140 C141 1.378 . S
C140 C145 1.400 . S
C141 H125 0.939 . S
C141 C140 1.378 . S
C141 C142 1.361 . S
C142 H126 0.942 . S
C142 C141 1.361 . S
C142 C143 1.369 . S
C143 C142 1.369 . S
C143 C144 1.404 . S
C144 H127 0.940 . S
C144 C143 1.404 . S
C144 C145 1.389 . S
C145 H128 0.939 . S
C145 C140 1.400 . S
C145 C144 1.389 . S
C146 P120 1.819 . S
C146 C147 1.391 . S
C146 C151 1.391 . S
C147 H129 0.941 . S
C147 C146 1.391 . S
C147 C148 1.396 . S
C148 H132 0.939 . S
C148 C147 1.396 . S
C148 C149 1.397 . S
C149 C148 1.397 . S
C149 C150 1.385 . S
C150 H133 0.940 . S
C150 C149 1.385 . S
C150 C151 1.388 . S
C151 H130 0.939 . S
C151 C146 1.391 . S
C151 C150 1.388 . S
P152 O163 1.490 . S
P152 C166 1.812 . S
P152 C172 1.803 . S
P152 C178 1.819 . S
H153 C167 0.941 . S
H154 C168 0.939 . S
H155 C170 0.940 . S
H156 C171 0.940 . S
H157 C173 0.939 . S
H158 C174 0.942 . S
H159 C176 0.940 . S
H160 C177 0.939 . S
H161 C179 0.941 . S
H162 C183 0.939 . S
O163 P152 1.490 . S
H164 C180 0.939 . S
H165 C182 0.940 . S
C166 P152 1.812 . S
C166 C167 1.389 . S
C166 C171 1.391 . S
C167 H153 0.941 . S
C167 C166 1.389 . S
C167 C168 1.397 . S
C168 H154 0.939 . S
C168 C167 1.397 . S
C168 C169 1.378 . S
C169 C168 1.378 . S
C169 C170 1.378 . S
C170 H155 0.940 . S
C170 C169 1.378 . S
C170 C171 1.396 . S
C171 H156 0.940 . S
C171 C166 1.391 . S
C171 C170 1.396 . S
C172 P152 1.803 . S
C172 C173 1.378 . S
C172 C177 1.400 . S
C173 H157 0.939 . S
C173 C172 1.378 . S
C173 C174 1.361 . S
C174 H158 0.942 . S
C174 C173 1.361 . S
C174 C175 1.369 . S
C175 C174 1.369 . S
C175 C176 1.404 . S
C176 H159 0.940 . S
C176 C175 1.404 . S
C176 C177 1.389 . S
C177 H160 0.939 . S
C177 C172 1.400 . S
C177 C176 1.389 . S
C178 P152 1.819 . S
C178 C179 1.391 . S
C178 C183 1.391 . S
C179 H161 0.941 . S
C179 C178 1.391 . S
C179 C180 1.396 . S
C180 H164 0.939 . S
C180 C179 1.396 . S
C180 C181 1.397 . S
C181 C180 1.397 . S
C181 C182 1.385 . S
C182 H165 0.940 . S
C182 C181 1.385 . S
C182 C183 1.388 . S
C183 H162 0.939 . S
C183 C178 1.391 . S
C183 C182 1.388 . S
P184 O195 1.490 . S
P184 C198 1.812 . S
P184 C204 1.803 . S
P184 C210 1.819 . S
H185 C199 0.941 . S
H186 C200 0.939 . S
H187 C202 0.940 . S
H188 C203 0.940 . S
H189 C205 0.939 . S
H190 C206 0.942 . S
H191 C208 0.940 . S
H192 C209 0.939 . S
H193 C211 0.941 . S
H194 C215 0.939 . S
O195 P184 1.490 . S
H196 C212 0.939 . S
H197 C214 0.940 . S
C198 P184 1.812 . S
C198 C199 1.389 . S
C198 C203 1.391 . S
C199 H185 0.941 . S
C199 C198 1.389 . S
C199 C200 1.397 . S
C200 H186 0.939 . S
C200 C199 1.397 . S
C200 C201 1.378 . S
C201 C200 1.378 . S
C201 C202 1.378 . S
C202 H187 0.940 . S
C202 C201 1.378 . S
C202 C203 1.396 . S
C203 H188 0.940 . S
C203 C198 1.391 . S
C203 C202 1.396 . S
C204 P184 1.803 . S
C204 C205 1.378 . S
C204 C209 1.400 . S
C205 H189 0.939 . S
C205 C204 1.378 . S
C205 C206 1.361 . S
C206 H190 0.942 . S
C206 C205 1.361 . S
C206 C207 1.369 . S
C207 C206 1.369 . S
C207 C208 1.404 . S
C208 H191 0.940 . S
C208 C207 1.404 . S
C208 C209 1.389 . S
C209 H192 0.939 . S
C209 C204 1.400 . S
C209 C208 1.389 . S
C210 P184 1.819 . S
C210 C211 1.391 . S
C210 C215 1.391 . S
C211 H193 0.941 . S
C211 C210 1.391 . S
C211 C212 1.396 . S
C212 H196 0.939 . S
C212 C211 1.396 . S
C212 C213 1.397 . S
C213 C212 1.397 . S
C213 C214 1.385 . S
C214 H197 0.940 . S
C214 C213 1.385 . S
C214 C215 1.388 . S
C215 H194 0.939 . S
C215 C210 1.391 . S
C215 C214 1.388 . S
P216 O227 1.490 . S
P216 C230 1.812 . S
P216 C236 1.803 . S
P216 C242 1.819 . S
H217 C231 0.941 . S
H218 C232 0.939 . S
H219 C234 0.940 . S
H220 C235 0.940 . S
H221 C237 0.939 . S
H222 C238 0.942 . S
H223 C240 0.940 . S
H224 C241 0.939 . S
H225 C243 0.941 . S
H226 C247 0.939 . S
O227 P216 1.490 . S
H228 C244 0.939 . S
H229 C246 0.940 . S
C230 P216 1.812 . S
C230 C231 1.389 . S
C230 C235 1.391 . S
C231 H217 0.941 . S
C231 C230 1.389 . S
C231 C232 1.397 . S
C232 H218 0.939 . S
C232 C231 1.397 . S
C232 C233 1.378 . S
C233 C232 1.378 . S
C233 C234 1.378 . S
C234 H219 0.940 . S
C234 C233 1.378 . S
C234 C235 1.396 . S
C235 H220 0.940 . S
C235 C230 1.391 . S
C235 C234 1.396 . S
C236 P216 1.803 . S
C236 C237 1.378 . S
C236 C241 1.400 . S
C237 H221 0.939 . S
C237 C236 1.378 . S
C237 C238 1.361 . S
C238 H222 0.942 . S
C238 C237 1.361 . S
C238 C239 1.369 . S
C239 C238 1.369 . S
C239 C240 1.404 . S
C240 H223 0.940 . S
C240 C239 1.404 . S
C240 C241 1.389 . S
C241 H224 0.939 . S
C241 C236 1.400 . S
C241 C240 1.389 . S
C242 P216 1.819 . S
C242 C243 1.391 . S
C242 C247 1.391 . S
C243 H225 0.941 . S
C243 C242 1.391 . S
C243 C244 1.396 . S
C244 H228 0.939 . S
C244 C243 1.396 . S
C244 C245 1.397 . S
C245 C244 1.397 . S
C245 C246 1.385 . S
C246 H229 0.940 . S
C246 C245 1.385 . S
C246 C247 1.388 . S
C247 H226 0.939 . S
C247 C242 1.391 . S
C247 C246 1.388 . S
P248 O259 1.490 . S
P248 C262 1.812 . S
P248 C268 1.803 . S
P248 C274 1.819 . S
H249 C263 0.941 . S
H250 C264 0.939 . S
H251 C266 0.940 . S
H252 C267 0.940 . S
H253 C269 0.939 . S
H254 C270 0.942 . S
H255 C272 0.940 . S
H256 C273 0.939 . S
H257 C275 0.946 . S
H258 C279 0.939 . S
O259 P248 1.490 . S
H260 C276 0.939 1_554 S
H261 C278 0.940 . S
C262 P248 1.812 . S
C262 C263 1.389 . S
C262 C267 1.391 . S
C263 H249 0.941 . S
C263 C262 1.389 . S
C263 C264 1.397 . S
C264 H250 0.939 . S
C264 C263 1.397 . S
C264 C265 1.378 . S
C265 C264 1.378 . S
C265 C266 1.378 . S
C266 H251 0.940 . S
C266 C265 1.378 . S
C266 C267 1.396 . S
C267 H252 0.940 . S
C267 C262 1.391 . S
C267 C266 1.396 . S
C268 P248 1.803 . S
C268 C269 1.378 . S
C268 C273 1.400 . S
C269 H253 0.939 . S
C269 C268 1.378 . S
C269 C270 1.361 . S
C270 H254 0.942 . S
C270 C269 1.361 . S
C270 C271 1.369 . S
C271 C270 1.369 . S
C271 C272 1.404 . S
C272 H255 0.940 . S
C272 C271 1.404 . S
C272 C273 1.389 . S
C273 H256 0.939 . S
C273 C268 1.400 . S
C273 C272 1.389 . S
C274 P248 1.819 . S
C274 C275 1.391 . S
C274 C279 1.391 . S
C275 H257 0.946 . S
C275 C274 1.391 . S
C275 C276 1.396 . S
C276 H260 0.939 1_556 S
C276 C275 1.396 . S
C276 C277 1.397 . S
C277 C276 1.397 . S
C277 C278 1.385 . S
C278 H261 0.940 . S
C278 C277 1.385 . S
C278 C279 1.388 . S
C279 H258 0.939 . S
C279 C274 1.391 . S
C279 C278 1.388 . S
P280 O291 1.490 . S
P280 C294 1.812 . S
P280 C300 1.803 . S
P280 C306 1.819 . S
H281 C295 0.941 . S
H282 C296 0.939 . S
H283 C298 0.940 . S
H284 C299 0.940 . S
H285 C301 0.939 . S
H286 C302 0.942 . S
H287 C304 0.940 . S
H288 C305 0.939 . S
H289 C307 0.941 . S
H290 C311 0.939 . S
O291 P280 1.490 . S
H292 C308 0.939 . S
H293 C310 0.940 . S
C294 P280 1.812 . S
C294 C295 1.389 . S
C294 C299 1.391 . S
C295 H281 0.941 . S
C295 C294 1.389 . S
C295 C296 1.397 . S
C296 H282 0.939 . S
C296 C295 1.397 . S
C296 C297 1.378 . S
C297 C296 1.378 . S
C297 C298 1.378 . S
C298 H283 0.940 . S
C298 C297 1.378 . S
C298 C299 1.396 . S
C299 H284 0.940 . S
C299 C294 1.391 . S
C299 C298 1.396 . S
C300 P280 1.803 . S
C300 C301 1.378 . S
C300 C305 1.400 . S
C301 H285 0.939 . S
C301 C300 1.378 . S
C301 C302 1.361 . S
C302 H286 0.942 . S
C302 C301 1.361 . S
C302 C303 1.369 . S
C303 C302 1.369 . S
C303 C304 1.404 . S
C304 H287 0.940 . S
C304 C303 1.404 . S
C304 C305 1.389 . S
C305 H288 0.939 . S
C305 C300 1.400 . S
C305 C304 1.389 . S
C306 P280 1.819 . S
C306 C307 1.391 . S
C306 C311 1.391 . S
C307 H289 0.941 . S
C307 C306 1.391 . S
C307 C308 1.396 . S
C308 H292 0.939 . S
C308 C307 1.396 . S
C308 C309 1.397 . S
C309 C308 1.397 . S
C309 C310 1.385 . S
C310 H293 0.940 . S
C310 C309 1.385 . S
C310 C311 1.388 . S
C311 H290 0.939 . S
C311 C306 1.391 . S
C311 C310 1.388 . S
P312 O323 1.490 . S
P312 C326 1.812 . S
P312 C332 1.803 . S
P312 C338 1.819 . S
H313 C327 0.941 . S
H314 C328 0.939 . S
H315 C330 0.940 . S
H316 C331 0.940 . S
H317 C333 0.939 . S
H318 C334 0.942 . S
H319 C336 0.940 . S
H320 C337 0.939 . S
H321 C339 0.941 . S
H322 C343 0.939 . S
O323 P312 1.490 . S
H324 C340 0.939 . S
H325 C342 0.940 . S
C326 P312 1.812 . S
C326 C327 1.389 . S
C326 C331 1.391 . S
C327 H313 0.941 . S
C327 C326 1.389 . S
C327 C328 1.397 . S
C328 H314 0.939 . S
C328 C327 1.397 . S
C328 C329 1.379 1_565 S
C329 C328 1.379 1_545 S
C329 C330 1.378 1_545 S
C330 H315 0.940 . S
C330 C329 1.378 1_565 S
C330 C331 1.396 . S
C331 H316 0.940 . S
C331 C326 1.391 . S
C331 C330 1.396 . S
C332 P312 1.803 . S
C332 C333 1.378 . S
C332 C337 1.400 . S
C333 H317 0.939 . S
C333 C332 1.378 . S
C333 C334 1.361 . S
C334 H318 0.942 . S
C334 C333 1.361 . S
C334 C335 1.369 . S
C335 C334 1.369 . S
C335 C336 1.404 . S
C336 H319 0.940 . S
C336 C335 1.404 . S
C336 C337 1.389 . S
C337 H320 0.939 . S
C337 C332 1.400 . S
C337 C336 1.389 . S
C338 P312 1.819 . S
C338 C339 1.391 . S
C338 C343 1.391 . S
C339 H321 0.941 . S
C339 C338 1.391 . S
C339 C340 1.396 1_655 S
C340 H324 0.939 . S
C340 C339 1.396 1_455 S
C340 C341 1.397 . S
C341 C340 1.397 . S
C341 C342 1.385 . S
C342 H325 0.940 . S
C342 C341 1.385 . S
C342 C343 1.388 1_455 S
C343 H322 0.939 . S
C343 C338 1.391 . S
C343 C342 1.388 1_655 S
C344 C345 1.363 . S
C344 C350 1.379 . S
C344 N352 1.356 . S
C345 C344 1.363 . S
C345 C351 1.363 . S
C346 C347 1.363 . S
C346 C351 1.379 . S
C346 N353 1.356 . S
C347 C346 1.363 . S
C347 C350 1.363 . S
N348 C350 1.356 1_545 S
N348 H360 0.984 . S
N348 H361 0.985 . S
N349 C351 1.356 . S
N349 H354 0.984 . S
N349 H355 0.985 . S
C350 C344 1.379 . S
C350 C347 1.363 . S
C350 N348 1.356 1_565 S
C351 C345 1.363 . S
C351 C346 1.379 . S
C351 N349 1.356 . S
N352 C344 1.356 . S
N352 H358 0.984 . S
N352 H359 0.984 . S
N353 C346 1.356 . S
N353 H356 0.984 . S
N353 H357 0.985 . S
H354 N349 0.984 . S
H355 N349 0.985 . S
H356 N353 0.984 . S
H357 N353 0.985 . S
H358 N352 0.984 . S
H359 N352 0.984 . S
H360 N348 0.984 . S
H361 N348 0.985 . S
C362 C363 1.363 . S
C362 C368 1.379 . S
C362 N370 1.356 . S
C363 C362 1.363 . S
C363 C369 1.363 . S
C364 C365 1.363 . S
C364 C369 1.379 . S
C364 N371 1.356 . S
C365 C364 1.363 . S
C365 C368 1.363 . S
N366 C368 1.356 . S
N366 H378 0.984 . S
N366 H379 0.985 . S
N367 C369 1.356 . S
N367 H372 0.984 . S
N367 H373 0.985 . S
C368 C362 1.379 . S
C368 C365 1.363 . S
C368 N366 1.356 . S
C369 C363 1.363 . S
C369 C364 1.379 . S
C369 N367 1.356 . S
N370 C362 1.356 . S
N370 H376 0.984 . S
N370 H377 0.984 . S
N371 C364 1.356 . S
N371 H374 0.984 . S
N371 H375 0.985 . S
H372 N367 0.984 . S
H373 N367 0.985 . S
H374 N371 0.984 . S
H375 N371 0.985 . S
H376 N370 0.984 . S
H377 N370 0.984 . S
H378 N366 0.984 . S
H379 N366 0.985 . S
C380 C381 1.363 . S
C380 C386 1.379 . S
C380 N388 1.356 . S
C381 C380 1.363 . S
C381 C387 1.363 . S
C382 C383 1.363 1_545 S
C382 C387 1.379 . S
C382 N389 1.356 1_545 S
C383 C382 1.363 1_565 S
C383 C386 1.363 1_565 S
N384 C386 1.356 1_565 S
N384 H396 0.984 . S
N384 H397 0.985 . S
N385 C387 1.356 . S
N385 H390 0.984 . S
N385 H391 0.985 . S
C386 C380 1.379 . S
C386 C383 1.363 1_545 S
C386 N384 1.356 1_545 S
C387 C381 1.363 . S
C387 C382 1.379 . S
C387 N385 1.356 . S
N388 C380 1.356 . S
N388 H394 0.984 1_554 S
N388 H395 0.984 . S
N389 C382 1.356 1_565 S
N389 H392 0.984 . S
N389 H393 0.985 . S
H390 N385 0.984 . S
H391 N385 0.985 . S
H392 N389 0.984 . S
H393 N389 0.985 . S
H394 N388 0.984 1_556 S
H395 N388 0.984 . S
H396 N384 0.984 . S
H397 N384 0.985 . S
C398 C399 1.363 . S
C398 C404 1.379 . S
C398 N406 1.356 . S
C399 C398 1.363 . S
C399 C405 1.363 . S
C400 C401 1.363 . S
C400 C405 1.379 . S
C400 N407 1.356 . S
C401 C400 1.363 . S
C401 C404 1.363 . S
N402 C404 1.356 . S
N402 H414 0.984 . S
N402 H415 0.985 . S
N403 C405 1.356 . S
N403 H408 0.984 . S
N403 H409 0.985 . S
C404 C398 1.379 . S
C404 C401 1.363 . S
C404 N402 1.356 . S
C405 C399 1.363 . S
C405 C400 1.379 . S
C405 N403 1.356 . S
N406 C398 1.356 . S
N406 H412 0.984 . S
N406 H413 0.984 . S
N407 C400 1.356 . S
N407 H410 0.984 . S
N407 H411 0.985 . S
H408 N403 0.984 . S
H409 N403 0.985 . S
H410 N407 0.984 . S
H411 N407 0.985 . S
H412 N406 0.984 . S
H413 N406 0.984 . S
H414 N402 0.984 . S
H415 N402 0.985 . S
C416 C417 1.363 . S
C416 C422 1.379 . S
C416 N424 1.356 . S
C417 C416 1.363 . S
C417 C423 1.363 . S
C418 C419 1.363 . S
C418 C423 1.379 . S
C418 N425 1.356 . S
C419 C418 1.363 . S
C419 C422 1.363 . S
N420 C422 1.356 . S
N420 H432 0.984 . S
N420 H433 0.985 . S
N421 C423 1.356 . S
N421 H426 0.984 . S
N421 H427 0.985 . S
C422 C416 1.379 . S
C422 C419 1.363 . S
C422 N420 1.356 . S
C423 C417 1.363 . S
C423 C418 1.379 . S
C423 N421 1.356 . S
N424 C416 1.356 . S
N424 H430 0.984 . S
N424 H431 0.984 . S
N425 C418 1.356 . S
N425 H428 0.984 . S
N425 H429 0.985 . S
H426 N421 0.984 . S
H427 N421 0.985 . S
H428 N425 0.984 . S
H429 N425 0.985 . S
H430 N424 0.984 . S
H431 N424 0.984 . S
H432 N420 0.984 . S
H433 N420 0.985 . S
C434 C435 1.363 1_455 S
C434 C440 1.379 . S
C434 N442 1.356 1_455 S
C435 C434 1.363 1_655 S
C435 C441 1.363 1_655 S
C436 C437 1.363 . S
C436 C441 1.379 . S
C436 N443 1.356 . S
C437 C436 1.363 . S
C437 C440 1.363 . S
N438 C440 1.356 . S
N438 H450 0.984 . S
N438 H451 0.985 . S
N439 C441 1.356 1_655 S
N439 H444 0.984 . S
N439 H445 0.985 . S
C440 C434 1.379 . S
C440 C437 1.363 . S
C440 N438 1.356 . S
C441 C435 1.363 1_455 S
C441 C436 1.379 . S
C441 N439 1.356 1_455 S
N442 C434 1.356 1_655 S
N442 H448 0.984 1_655 S
N442 H449 0.984 . S
N443 C436 1.356 . S
N443 H446 0.984 . S
N443 H447 0.985 . S
H444 N439 0.984 . S
H445 N439 0.985 . S
H446 N443 0.984 . S
H447 N443 0.985 . S
H448 N442 0.984 1_455 S
H449 N442 0.984 . S
H450 N438 0.984 . S
H451 N438 0.985 . S
C452 C453 1.363 . S
C452 C458 1.379 . S
C452 N460 1.356 . S
C453 C452 1.363 . S
C453 C459 1.363 . S
C454 C455 1.363 . S
C454 C459 1.379 . S
C454 N461 1.356 . S
C455 C454 1.363 . S
C455 C458 1.363 . S
N456 C458 1.356 . S
N456 H468 0.984 . S
N456 H469 0.985 . S
N457 C459 1.356 . S
N457 H462 0.984 . S
N457 H463 0.985 . S
C458 C452 1.379 . S
C458 C455 1.363 . S
C458 N456 1.356 . S
C459 C453 1.363 . S
C459 C454 1.379 . S
C459 N457 1.356 . S
N460 C452 1.356 . S
N460 H466 0.984 . S
N460 H467 0.984 . S
N461 C454 1.356 . S
N461 H464 0.984 . S
N461 H465 0.985 . S
H462 N457 0.984 . S
H463 N457 0.985 . S
H464 N461 0.984 . S
H465 N461 0.985 . S
H466 N460 0.984 . S
H467 N460 0.984 . S
H468 N456 0.984 . S
H469 N456 0.985 . S
C470 C471 1.363 . S
C470 C476 1.379 . S
C470 N478 1.356 . S
C471 C470 1.363 . S
C471 C477 1.363 . S
C472 C473 1.363 . S
C472 C477 1.379 . S
C472 N479 1.356 . S
C473 C472 1.363 . S
C473 C476 1.363 . S
N474 C476 1.356 . S
N474 H486 0.984 . S
N474 H487 0.985 . S
N475 C477 1.356 . S
N475 H480 0.984 . S
N475 H481 0.985 . S
C476 C470 1.379 . S
C476 C473 1.363 . S
C476 N474 1.356 . S
C477 C471 1.363 . S
C477 C472 1.379 . S
C477 N475 1.356 . S
N478 C470 1.356 . S
N478 H484 0.984 . S
N478 H485 0.984 . S
N479 C472 1.356 . S
N479 H482 0.984 . S
N479 H483 0.985 . S
H480 N475 0.984 . S
H481 N475 0.985 . S
H482 N479 0.984 . S
H483 N479 0.985 . S
H484 N478 0.984 . S
H485 N478 0.984 . S
H486 N474 0.984 . S
H487 N474 0.985 . S
C488 C489 1.363 . S
C488 C494 1.379 . S
C488 N496 1.356 . S
C489 C488 1.363 . S
C489 C495 1.363 . S
C490 C491 1.363 . S
C490 C495 1.379 . S
C490 N497 1.356 . S
C491 C490 1.363 . S
C491 C494 1.363 . S
N492 C494 1.356 . S
N492 H504 0.984 1_545 S
N492 H505 0.985 1_545 S
N493 C495 1.356 . S
N493 H498 0.984 . S
N493 H499 0.985 . S
C494 C488 1.379 . S
C494 C491 1.363 . S
C494 N492 1.356 . S
C495 C489 1.363 . S
C495 C490 1.379 . S
C495 N493 1.356 . S
N496 C488 1.356 . S
N496 H502 0.984 . S
N496 H503 0.984 . S
N497 C490 1.356 . S
N497 H500 0.984 . S
N497 H501 0.985 . S
H498 N493 0.984 . S
H499 N493 0.985 . S
H500 N497 0.984 . S
H501 N497 0.985 . S
H502 N496 0.984 . S
H503 N496 0.984 . S
H504 N492 0.984 1_565 S
H505 N492 0.985 1_565 S
C506 C507 1.363 . S
C506 C512 1.379 . S
C506 N514 1.356 . S
C507 C506 1.363 . S
C507 C513 1.363 . S
C508 C509 1.363 . S
C508 C513 1.379 . S
C508 N515 1.356 . S
C509 C508 1.363 . S
C509 C512 1.363 . S
N510 C512 1.356 . S
N510 H522 0.984 . S
N510 H523 0.985 . S
N511 C513 1.356 . S
N511 H516 0.984 . S
N511 H517 0.985 . S
C512 C506 1.379 . S
C512 C509 1.363 . S
C512 N510 1.356 . S
C513 C507 1.363 . S
C513 C508 1.379 . S
C513 N511 1.356 . S
N514 C506 1.356 . S
N514 H520 0.984 . S
N514 H521 0.984 . S
N515 C508 1.356 . S
N515 H518 0.984 . S
N515 H519 0.985 . S
H516 N511 0.984 . S
H517 N511 0.985 . S
H518 N515 0.984 . S
H519 N515 0.985 . S
H520 N514 0.984 . S
H521 N514 0.984 . S
H522 N510 0.984 . S
H523 N510 0.985 . S
C524 C525 1.363 1_554 S
C524 C530 1.379 1_564 S
C524 N532 1.356 . S
C525 C524 1.363 1_556 S
C525 C531 1.363 . S
C526 C527 1.363 1_565 S
C526 C531 1.379 . S
C526 N533 1.356 . S
C527 C526 1.363 1_545 S
C527 C530 1.363 . S
N528 C530 1.356 1_554 S
N528 H540 0.984 . S
N528 H541 0.985 1_554 S
N529 C531 1.356 . S
N529 H534 0.984 . S
N529 H535 0.985 . S
C530 C524 1.379 1_546 S
C530 C527 1.363 . S
C530 N528 1.356 1_556 S
C531 C525 1.363 . S
C531 C526 1.379 . S
C531 N529 1.356 . S
N532 C524 1.356 . S
N532 H538 0.984 . S
N532 H539 0.984 . S
N533 C526 1.356 . S
N533 H536 0.984 . S
N533 H537 0.985 . S
H534 N529 0.984 . S
H535 N529 0.985 . S
H536 N533 0.984 . S
H537 N533 0.985 . S
H538 N532 0.984 . S
H539 N532 0.984 . S
H540 N528 0.984 . S
H541 N528 0.985 1_556 S
C542 C543 1.363 . S
C542 C548 1.379 . S
C542 N550 1.356 . S
C543 C542 1.363 . S
C543 C549 1.363 . S
C544 C545 1.363 . S
C544 C549 1.379 . S
C544 N551 1.356 . S
C545 C544 1.363 . S
C545 C548 1.363 . S
N546 C548 1.356 . S
N546 H558 0.984 . S
N546 H559 0.985 . S
N547 C549 1.356 . S
N547 H552 0.984 . S
N547 H553 0.985 . S
C548 C542 1.379 . S
C548 C545 1.363 . S
C548 N546 1.356 . S
C549 C543 1.363 . S
C549 C544 1.379 . S
C549 N547 1.356 . S
N550 C542 1.356 . S
N550 H556 0.984 . S
N550 H557 0.984 . S
N551 C544 1.356 . S
N551 H554 0.984 . S
N551 H555 0.985 . S
H552 N547 0.984 . S
H553 N547 0.985 . S
H554 N551 0.984 . S
H555 N551 0.985 . S
H556 N550 0.984 . S
H557 N550 0.984 . S
H558 N546 0.984 . S
H559 N546 0.985 . S
C560 C561 1.363 . S
C560 C566 1.379 . S
C560 N568 1.356 . S
C561 C560 1.363 . S
C561 C567 1.363 . S
C562 C563 1.363 . S
C562 C567 1.379 . S
C562 N569 1.356 . S
C563 C562 1.363 . S
C563 C566 1.363 . S
N564 C566 1.356 . S
N564 H576 0.984 . S
N564 H577 0.985 . S
N565 C567 1.356 . S
N565 H570 0.984 . S
N565 H571 0.985 . S
C566 C560 1.379 . S
C566 C563 1.363 . S
C566 N564 1.356 . S
C567 C561 1.363 . S
C567 C562 1.379 . S
C567 N565 1.356 . S
N568 C560 1.356 . S
N568 H574 0.984 . S
N568 H575 0.984 . S
N569 C562 1.356 . S
N569 H572 0.984 . S
N569 H573 0.985 . S
H570 N565 0.984 . S
H571 N565 0.985 . S
H572 N569 0.984 . S
H573 N569 0.985 . S
H574 N568 0.984 . S
H575 N568 0.984 . S
H576 N564 0.984 . S
H577 N564 0.985 . S
C578 C579 1.363 1_655 S
C578 C584 1.379 . S
C578 N586 1.356 1_655 S
C579 C578 1.363 1_455 S
C579 C585 1.363 1_455 S
C580 C581 1.363 . S
C580 C585 1.379 . S
C580 N587 1.356 . S
C581 C580 1.363 . S
C581 C584 1.363 . S
N582 C584 1.356 . S
N582 H594 0.984 . S
N582 H595 0.985 . S
N583 C585 1.356 1_455 S
N583 H588 0.984 . S
N583 H589 0.985 1_455 S
C584 C578 1.379 . S
C584 C581 1.363 . S
C584 N582 1.356 . S
C585 C579 1.363 1_655 S
C585 C580 1.379 . S
C585 N583 1.356 1_655 S
N586 C578 1.356 1_455 S
N586 H592 0.984 . S
N586 H593 0.984 . S
N587 C580 1.356 . S
N587 H590 0.984 . S
N587 H591 0.985 . S
H588 N583 0.984 . S
H589 N583 0.985 1_655 S
H590 N587 0.984 . S
H591 N587 0.985 . S
H592 N586 0.984 . S
H593 N586 0.984 . S
H594 N582 0.984 . S
H595 N582 0.985 . S
C596 C597 1.363 . S
C596 C602 1.379 . S
C596 N604 1.356 . S
C597 C596 1.363 . S
C597 C603 1.363 . S
C598 C599 1.363 . S
C598 C603 1.379 . S
C598 N605 1.356 . S
C599 C598 1.363 . S
C599 C602 1.363 . S
N600 C602 1.356 . S
N600 H612 0.984 . S
N600 H613 0.985 . S
N601 C603 1.356 . S
N601 H606 0.984 . S
N601 H607 0.985 . S
C602 C596 1.379 . S
C602 C599 1.363 . S
C602 N600 1.356 . S
C603 C597 1.363 . S
C603 C598 1.379 . S
C603 N601 1.356 . S
N604 C596 1.356 . S
N604 H610 0.984 . S
N604 H611 0.984 . S
N605 C598 1.356 . S
N605 H608 0.984 . S
N605 H609 0.985 . S
H606 N601 0.984 . S
H607 N601 0.985 . S
H608 N605 0.984 . S
H609 N605 0.985 . S
H610 N604 0.984 . S
H611 N604 0.984 . S
H612 N600 0.984 . S
H613 N600 0.985 . S
C614 C615 1.363 . S
C614 C620 1.379 . S
C614 N622 1.356 . S
C615 C614 1.363 . S
C615 C621 1.363 . S
C616 C617 1.363 . S
C616 C621 1.379 . S
C616 N623 1.356 . S
C617 C616 1.363 . S
C617 C620 1.363 . S
N618 C620 1.356 . S
N618 H630 0.984 . S
N618 H631 0.985 . S
N619 C621 1.356 . S
N619 H624 0.984 . S
N619 H625 0.985 . S
C620 C614 1.379 . S
C620 C617 1.363 . S
C620 N618 1.356 . S
C621 C615 1.363 . S
C621 C616 1.379 . S
C621 N619 1.356 . S
N622 C614 1.356 . S
N622 H628 0.984 . S
N622 H629 0.984 . S
N623 C616 1.356 . S
N623 H626 0.984 . S
N623 H627 0.985 1_655 S
H624 N619 0.984 . S
H625 N619 0.985 . S
H626 N623 0.984 . S
H627 N623 0.985 1_455 S
H628 N622 0.984 . S
H629 N622 0.984 . S
H630 N618 0.984 . S
H631 N618 0.985 . S
C632 C633 1.363 . S
C632 C638 1.379 . S
C632 N640 1.356 . S
C633 C632 1.363 . S
C633 C639 1.363 . S
C634 C635 1.363 . S
C634 C639 1.379 . S
C634 N641 1.356 . S
C635 C634 1.363 . S
C635 C638 1.363 . S
N636 C638 1.356 . S
N636 H648 0.984 . S
N636 H649 0.985 . S
N637 C639 1.356 . S
N637 H642 0.984 . S
N637 H643 0.985 . S
C638 C632 1.379 . S
C638 C635 1.363 . S
C638 N636 1.356 . S
C639 C633 1.363 . S
C639 C634 1.379 . S
C639 N637 1.356 . S
N640 C632 1.356 . S
N640 H646 0.984 . S
N640 H647 0.984 . S
N641 C634 1.356 . S
N641 H644 0.984 . S
N641 H645 0.985 . S
H642 N637 0.984 . S
H643 N637 0.985 . S
H644 N641 0.984 . S
H645 N641 0.985 . S
H646 N640 0.984 . S
H647 N640 0.984 . S
H648 N636 0.984 . S
H649 N636 0.985 . S
C650 C651 1.363 . S
C650 C656 1.379 . S
C650 N658 1.356 . S
C651 C650 1.363 . S
C651 C657 1.363 . S
C652 C653 1.363 . S
C652 C657 1.379 . S
C652 N659 1.356 . S
C653 C652 1.363 . S
C653 C656 1.363 . S
N654 C656 1.356 . S
N654 H666 0.984 . S
N654 H667 0.985 . S
N655 C657 1.356 . S
N655 H660 0.984 . S
N655 H661 0.985 . S
C656 C650 1.379 . S
C656 C653 1.363 . S
C656 N654 1.356 . S
C657 C651 1.363 . S
C657 C652 1.379 . S
C657 N655 1.356 . S
N658 C650 1.356 . S
N658 H664 0.984 . S
N658 H665 0.984 . S
N659 C652 1.356 . S
N659 H662 0.984 . S
N659 H663 0.985 . S
H660 N655 0.984 . S
H661 N655 0.985 . S
H662 N659 0.984 . S
H663 N659 0.985 . S
H664 N658 0.984 . S
H665 N658 0.984 . S
H666 N654 0.984 . S
H667 N654 0.985 . S
C668 C669 1.363 . S
C668 C674 1.379 . S
C668 N676 1.356 . S
C669 C668 1.363 . S
C669 C675 1.363 . S
C670 C671 1.363 . S
C670 C675 1.379 . S
C670 N677 1.356 . S
C671 C670 1.363 . S
C671 C674 1.363 . S
N672 C674 1.356 . S
N672 H684 0.984 . S
N672 H685 0.985 . S
N673 C675 1.356 . S
N673 H678 0.984 . S
N673 H679 0.985 . S
C674 C668 1.379 . S
C674 C671 1.363 . S
C674 N672 1.356 . S
C675 C669 1.363 . S
C675 C670 1.379 . S
C675 N673 1.356 . S
N676 C668 1.356 . S
N676 H682 0.984 . S
N676 H683 0.984 . S
N677 C670 1.356 . S
N677 H680 0.984 . S
N677 H681 0.985 . S
H678 N673 0.984 . S
H679 N673 0.985 . S
H680 N677 0.984 . S
H681 N677 0.985 . S
H682 N676 0.984 . S
H683 N676 0.984 . S
H684 N672 0.984 . S
H685 N672 0.985 . S
C686 C687 1.363 . S
C686 C692 1.379 . S
C686 N694 1.356 . S
C687 C686 1.363 . S
C687 C693 1.363 . S
C688 C689 1.363 . S
C688 C693 1.379 . S
C688 N695 1.356 . S
C689 C688 1.363 . S
C689 C692 1.363 . S
N690 C692 1.356 . S
N690 H702 0.984 . S
N690 H703 0.985 . S
N691 C693 1.356 . S
N691 H696 0.984 . S
N691 H697 0.985 . S
C692 C686 1.379 . S
C692 C689 1.363 . S
C692 N690 1.356 . S
C693 C687 1.363 . S
C693 C688 1.379 . S
C693 N691 1.356 . S
N694 C686 1.356 . S
N694 H700 0.984 . S
N694 H701 0.984 . S
N695 C688 1.356 . S
N695 H698 0.984 . S
N695 H699 0.985 . S
H696 N691 0.984 . S
H697 N691 0.985 . S
H698 N695 0.984 . S
H699 N695 0.985 . S
H700 N694 0.984 . S
H701 N694 0.984 . S
H702 N690 0.984 . S
H703 N690 0.985 . S
C704 C705 1.363 . S
C704 C710 1.379 . S
C704 N712 1.356 . S
C705 C704 1.363 . S
C705 C711 1.363 . S
C706 C707 1.363 . S
C706 C711 1.379 . S
C706 N713 1.356 . S
C707 C706 1.363 . S
C707 C710 1.363 . S
N708 C710 1.356 . S
N708 H720 0.984 . S
N708 H721 0.985 . S
N709 C711 1.356 . S
N709 H714 0.984 . S
N709 H715 0.985 . S
C710 C704 1.379 . S
C710 C707 1.363 . S
C710 N708 1.356 . S
C711 C705 1.363 . S
C711 C706 1.379 . S
C711 N709 1.356 . S
N712 C704 1.356 . S
N712 H718 0.984 . S
N712 H719 0.984 . S
N713 C706 1.356 . S
N713 H716 0.984 . S
N713 H717 0.985 . S
H714 N709 0.984 . S
H715 N709 0.985 . S
H716 N713 0.984 . S
H717 N713 0.985 . S
H718 N712 0.984 . S
H719 N712 0.984 . S
H720 N708 0.984 . S
H721 N708 0.985 . S
C722 C723 1.363 . S
C722 C728 1.379 . S
C722 N730 1.356 . S
C723 C722 1.363 . S
C723 C729 1.363 . S
C724 C725 1.363 . S
C724 C729 1.379 . S
C724 N731 1.356 . S
C725 C724 1.363 . S
C725 C728 1.363 . S
N726 C728 1.356 . S
N726 H738 0.984 . S
N726 H739 0.985 . S
N727 C729 1.356 . S
N727 H732 0.984 . S
N727 H733 0.985 . S
C728 C722 1.379 . S
C728 C725 1.363 . S
C728 N726 1.356 . S
C729 C723 1.363 . S
C729 C724 1.379 . S
C729 N727 1.356 . S
N730 C722 1.356 . S
N730 H736 0.984 . S
N730 H737 0.984 . S
N731 C724 1.356 . S
N731 H734 0.984 . S
N731 H735 0.985 . S
H732 N727 0.984 . S
H733 N727 0.985 . S
H734 N731 0.984 . S
H735 N731 0.985 . S
H736 N730 0.984 . S
H737 N730 0.984 . S
H738 N726 0.984 . S
H739 N726 0.985 . S
C740 C741 1.363 . S
C740 C746 1.379 . S
C740 N748 1.356 . S
C741 C740 1.363 . S
C741 C747 1.363 . S
C742 C743 1.363 . S
C742 C747 1.379 . S
C742 N749 1.356 . S
C743 C742 1.363 . S
C743 C746 1.363 . S
N744 C746 1.356 . S
N744 H756 0.984 . S
N744 H757 0.985 . S
N745 C747 1.356 . S
N745 H750 0.984 . S
N745 H751 0.985 . S
C746 C740 1.379 . S
C746 C743 1.363 . S
C746 N744 1.356 . S
C747 C741 1.363 . S
C747 C742 1.379 . S
C747 N745 1.356 . S
N748 C740 1.356 . S
N748 H754 0.984 . S
N748 H755 0.984 . S
N749 C742 1.356 . S
N749 H752 0.984 . S
N749 H753 0.985 . S
H750 N745 0.984 . S
H751 N745 0.985 . S
H752 N749 0.984 . S
H753 N749 0.985 . S
H754 N748 0.984 . S
H755 N748 0.984 . S
H756 N744 0.984 . S
H757 N744 0.985 . S
C758 C759 1.363 . S
C758 C764 1.379 . S
C758 N766 1.356 1_556 S
C759 C758 1.363 . S
C759 C765 1.363 . S
C760 C761 1.363 . S
C760 C765 1.379 . S
C760 N767 1.356 . S
C761 C760 1.363 . S
C761 C764 1.363 . S
N762 C764 1.356 . S
N762 H774 0.984 1_556 S
N762 H775 0.985 . S
N763 C765 1.356 . S
N763 H768 0.984 . S
N763 H769 0.985 . S
C764 C758 1.379 . S
C764 C761 1.363 . S
C764 N762 1.356 . S
C765 C759 1.363 . S
C765 C760 1.379 . S
C765 N763 1.356 . S
N766 C758 1.356 1_554 S
N766 H772 0.984 . S
N766 H773 0.984 . S
N767 C760 1.356 . S
N767 H770 0.984 . S
N767 H771 0.985 . S
H768 N763 0.984 . S
H769 N763 0.985 . S
H770 N767 0.984 . S
H771 N767 0.985 . S
H772 N766 0.984 . S
H773 N766 0.984 . S
H774 N762 0.984 1_554 S
H775 N762 0.985 . S
C345 C8 1.647 . S
C347 C105 1.620 . S
C363 C31 1.568 . S
C365 C137 1.515 . S
C381 C53 1.776 . S
C383 C169 1.580 . S
C401 C213 1.520 . S
C399 C74 1.474 . S
C419 C233 1.577 . S
C417 C26 1.599 . S
C435 C48 1.490 . S
C437 C277 1.535 . S
C453 C71 1.761 . S
C455 C297 1.567 . S
C471 C5 1.595 . S
C473 C341 1.356 . S
C489 C50 1.639 . S
C491 C329 1.448 . S
C509 C245 1.572 . S
C507 C70 1.625 . S
C527 C265 1.735 . S
C525 C4 1.784 1_556 S
C543 C28 1.478 . S
C545 C309 1.388 . S
C563 C149 1.637 . S
C561 C73 1.658 . S
C579 C7 1.485 . S
C581 C181 1.385 . S
C599 C201 1.710 . S
C597 C30 1.767 . S
C617 C117 1.553 . S
C615 C52 1.599 . S
C635 C303 1.433 . S
C633 C9 1.638 . S
C653 C335 1.324 . S
C651 C29 1.445 . S
C669 C51 1.452 . S
C671 C239 1.473 . S
C689 C271 1.645 . S
C687 C75 1.664 . S
C707 C175 1.442 . S
C705 C27 1.658 . S
C723 C49 1.643 . S
C725 C207 1.625 . S
C743 C111 1.486 . S
C741 C72 1.459 . S
C761 C143 1.471 . S
C759 C6 1.435 1_556 S
