# Generated by pormake.
# Topology csq, (4,8)-cn, num edge types: 1
# Building blocks:
#     Node 0, Type 0, BuildingBlock: KUFVIS_clean_linker_0, # of connection points: 4
#     Node 1, Type 0, BuildingBlock: KUFVIS_clean_linker_0, # of connection points: 4
#     Node 2, Type 0, BuildingBlock: KUFVIS_clean_linker_0, # of connection points: 4
#     Node 3, Type 0, BuildingBlock: KUFVIS_clean_linker_0, # of connection points: 4
#     Node 4, Type 0, BuildingBlock: KUFVIS_clean_linker_0, # of connection points: 4
#     Node 5, Type 0, BuildingBlock: KUFVIS_clean_linker_0, # of connection points: 4
#     Node 6, Type 1, BuildingBlock: TAGTUT_clean_sbu_3, # of connection points: 8
#     Node 7, Type 1, BuildingBlock: TAGTUT_clean_sbu_3, # of connection points: 8
#     Node 8, Type 1, BuildingBlock: TAGTUT_clean_sbu_3, # of connection points: 8
#     Edge 9, Type (0, 1), BuildingBlock: KIFKEQ_clean_linker_1, # of connection points: 2
#     Edge 10, Type (0, 1), BuildingBlock: KIFKEQ_clean_linker_1, # of connection points: 2
#     Edge 11, Type (0, 1), BuildingBlock: KIFKEQ_clean_linker_1, # of connection points: 2
#     Edge 12, Type (0, 1), BuildingBlock: KIFKEQ_clean_linker_1, # of connection points: 2
#     Edge 13, Type (0, 1), BuildingBlock: KIFKEQ_clean_linker_1, # of connection points: 2
#     Edge 14, Type (0, 1), BuildingBlock: KIFKEQ_clean_linker_1, # of connection points: 2
#     Edge 15, Type (0, 1), BuildingBlock: KIFKEQ_clean_linker_1, # of connection points: 2
#     Edge 16, Type (0, 1), BuildingBlock: KIFKEQ_clean_linker_1, # of connection points: 2
#     Edge 17, Type (0, 1), BuildingBlock: KIFKEQ_clean_linker_1, # of connection points: 2
#     Edge 18, Type (0, 1), BuildingBlock: KIFKEQ_clean_linker_1, # of connection points: 2
#     Edge 19, Type (0, 1), BuildingBlock: KIFKEQ_clean_linker_1, # of connection points: 2
#     Edge 20, Type (0, 1), BuildingBlock: KIFKEQ_clean_linker_1, # of connection points: 2
#     Edge 21, Type (0, 1), BuildingBlock: KIFKEQ_clean_linker_1, # of connection points: 2
#     Edge 22, Type (0, 1), BuildingBlock: KIFKEQ_clean_linker_1, # of connection points: 2
#     Edge 23, Type (0, 1), BuildingBlock: KIFKEQ_clean_linker_1, # of connection points: 2
#     Edge 24, Type (0, 1), BuildingBlock: KIFKEQ_clean_linker_1, # of connection points: 2
#     Edge 25, Type (0, 1), BuildingBlock: KIFKEQ_clean_linker_1, # of connection points: 2
#     Edge 26, Type (0, 1), BuildingBlock: KIFKEQ_clean_linker_1, # of connection points: 2
#     Edge 27, Type (0, 1), BuildingBlock: KIFKEQ_clean_linker_1, # of connection points: 2
#     Edge 28, Type (0, 1), BuildingBlock: KIFKEQ_clean_linker_1, # of connection points: 2
#     Edge 29, Type (0, 1), BuildingBlock: KIFKEQ_clean_linker_1, # of connection points: 2
#     Edge 30, Type (0, 1), BuildingBlock: KIFKEQ_clean_linker_1, # of connection points: 2
#     Edge 31, Type (0, 1), BuildingBlock: KIFKEQ_clean_linker_1, # of connection points: 2
#     Edge 32, Type (0, 1), BuildingBlock: KIFKEQ_clean_linker_1, # of connection points: 2
# Relax obj value: 0.036
# Max RMSD: 0.113
# Mean RMSD: 0.086
data_MOF--net-csq--node1-TAGTUT_clean_sbu_3--node2-KUFVIS_clean_linker_0--edge1-KIFKEQ_clean_linker_1
_symmetry_space_group_name_H-M    P1
_symmetry_Int_Tables_number       1
_symmetry_cell_setting            triclinic
loop_
_symmetry_equiv_pos_as_xyz
'x, y, z'
_cell_length_a     54.801023
_cell_length_b     54.150693
_cell_length_c     18.365982
_cell_angle_alpha  92.078586
_cell_angle_beta   92.548406
_cell_angle_gamma 119.71557
loop_
_atom_site_label
_atom_site_type_symbol
_atom_site_fract_x
_atom_site_fract_y
_atom_site_fract_z
_atom_type_partial_charge
H0 H 0.35588 0.53629 0.16647 0.0
H1 H 0.2783 0.51248 0.2628 0.0
H2 H 0.28315 0.51835 0.0288 0.0
H3 H 0.23732 0.48507 0.03192 0.0
H4 H 0.16625 0.48326 0.12565 0.0
H5 H 0.24726 0.52927 0.24246 0.0
C6 C 0.33432 0.53213 0.1608 0.0
C7 C 0.32131 0.5282 0.0911 0.0
C8 C 0.31888 0.52614 0.2224 0.0
C9 C 0.29032 0.51837 0.21491 0.0
C10 C 0.27711 0.5167 0.14545 0.0
C11 C 0.29287 0.52106 0.08329 0.0
C12 C 0.24654 0.50836 0.13811 0.0
C13 C 0.22897 0.49177 0.07595 0.0
C14 C 0.20006 0.48272 0.07149 0.0
C15 C 0.18859 0.49022 0.12895 0.0
C16 C 0.20547 0.5069 0.19026 0.0
C17 C 0.23442 0.51623 0.19463 0.0
H18 H 0.68378 0.18842 0.11297 0.0
H19 H 0.7657 0.24448 0.21429 0.0
H20 H 0.74125 0.25876 -0.00201 0.0
H21 H 0.78518 0.2832 0.98508 0.0
H22 H 0.86121 0.34898 0.09449 0.0
H23 H 0.79696 0.28969 0.22239 0.0
C24 C 0.70394 0.20787 0.11183 0.0
C25 C 0.71068 0.22264 0.04864 0.0
C26 C 0.72356 0.21598 0.17132 0.0
C27 C 0.75052 0.23973 0.16874 0.0
C28 C 0.75766 0.25641 0.10706 0.0
C29 C 0.73714 0.24728 0.04692 0.0
C30 C 0.78651 0.28235 0.10426 0.0
C31 C 0.79702 0.29328 0.03643 0.0
C32 C 0.82345 0.31759 0.0336 0.0
C33 C 0.84056 0.33035 0.09751 0.0
C34 C 0.83138 0.31984 0.16524 0.0
C35 C 0.80406 0.29652 0.16899 0.0
H36 H 0.56683 0.87085 0.09103 0.0
H37 H 0.55695 0.79417 0.17611 0.0
H38 H 0.54223 0.79793 0.94407 0.0
H39 H 0.55594 0.76556 0.93494 0.0
H40 H 0.52334 0.68208 0.01136 0.0
H41 H 0.52767 0.7486 0.15396 0.0
C42 C 0.56279 0.84921 0.08163 0.0
C43 C 0.55598 0.83654 0.01036 0.0
C44 C 0.56217 0.83362 0.14141 0.0
C45 C 0.55614 0.80536 0.1293 0.0
C46 C 0.54925 0.7919 0.05806 0.0
C47 C 0.54868 0.80779 -0.00098 0.0
C48 C 0.54207 0.76134 0.0455 0.0
C49 C 0.54638 0.75128 0.9778 0.0
C50 C 0.53878 0.7226 0.96505 0.0
C51 C 0.52792 0.70392 0.02064 0.0
C52 C 0.52482 0.7135 0.08944 0.0
C53 C 0.5313 0.74197 0.10123 0.0
H54 H 0.87511 0.55217 0.01424 0.0
H55 H 0.82206 0.57345 0.1333 0.0
H56 H 0.78811 0.51376 0.94182 0.0
H57 H 0.75674 0.52844 0.9365 0.0
H58 H 0.69845 0.53107 0.07991 0.0
H59 H 0.77918 0.549 0.16944 0.0
C60 C 0.85456 0.54999 0.02092 0.0
C61 C 0.83223 0.53204 0.97113 0.0
C62 C 0.85096 0.56471 0.07939 0.0
C63 C 0.82421 0.56132 0.08849 0.0
C64 C 0.8008 0.54286 0.03968 0.0
C65 C 0.80528 0.52831 0.98022 0.0
C66 C 0.77208 0.53902 0.05116 0.0
C67 C 0.75179 0.53124 0.99146 0.0
C68 C 0.72489 0.52738 0.00206 0.0
C69 C 0.71869 0.53267 0.07183 0.0
C70 C 0.73836 0.54107 0.13133 0.0
C71 C 0.76475 0.5436 0.12173 0.0
H72 H 0.33509 0.87543 0.08532 0.0
H73 H 0.28254 0.80434 0.20762 0.0
H74 H 0.24962 0.81882 0.0047 0.0
H75 H 0.22542 0.76909 0.00023 0.0
H76 H 0.16137 0.71527 0.13779 0.0
H77 H 0.23684 0.7876 0.23442 0.0
C78 C 0.31504 0.85633 0.09085 0.0
C79 C 0.29296 0.84847 0.03776 0.0
C80 C 0.3113 0.84072 0.15236 0.0
C81 C 0.28506 0.81649 0.1602 0.0
C82 C 0.26246 0.8079 0.10689 0.0
C83 C 0.26672 0.82429 0.04547 0.0
C84 C 0.23445 0.78222 0.11586 0.0
C85 C 0.21773 0.76464 0.05424 0.0
C86 C 0.19118 0.74085 0.06188 0.0
C87 C 0.18141 0.73429 0.13164 0.0
C88 C 0.19808 0.75066 0.19396 0.0
C89 C 0.22444 0.77473 0.18593 0.0
H90 H 0.46141 0.31539 0.14277 0.0
H91 H 0.48655 0.26697 0.27335 0.0
H92 H 0.4898 0.26352 0.03775 0.0
H93 H 0.52071 0.25106 0.05995 0.0
H94 H 0.52872 0.18792 0.17456 0.0
H95 H 0.4826 0.22458 0.26585 0.0
C96 C 0.46827 0.29976 0.14598 0.0
C97 C 0.47579 0.29079 0.08275 0.0
C98 C 0.47169 0.29077 0.21428 0.0
C99 C 0.48268 0.27234 0.21954 0.0
C100 C 0.48916 0.26162 0.1565 0.0
C101 C 0.48543 0.27115 0.0879 0.0
C102 C 0.50056 0.24144 0.16284 0.0
C103 C 0.51614 0.23856 0.10716 0.0
C104 C 0.52564 0.21887 0.11021 0.0
C105 C 0.52179 0.20352 0.17237 0.0
C106 C 0.5068 0.20601 0.229 0.0
C107 C 0.49554 0.22431 0.22342 0.0
C108 C 0.06415 0.50781 0.51222 0.0
C109 C 0.0473 0.45482 0.75378 0.0
C110 C 0.96601 0.45151 0.73386 0.0
Mg111 Mg 0.03658 0.54593 0.45064 0.0
Mg112 Mg 0.02267 0.58259 0.57269 0.0
O113 O 0.01515 0.54655 0.53556 0.0
Mg114 Mg 0.02403 0.52418 0.60392 0.0
O115 O 0.0334 0.50029 0.667 0.0
Mg116 Mg 1.0132 0.4629 0.60731 0.0
Mg117 Mg 0.02669 0.49912 0.76602 0.0
C118 C 0.98346 0.54317 0.69035 0.0
O119 O 0.05526 0.56332 0.68047 0.0
O120 O 1.01248 0.5661 0.3894 0.0
O121 O 0.05096 0.54503 0.79105 0.0
O122 O 0.0737 0.59136 0.47983 0.0
O123 O 1.00428 0.59026 0.47851 0.0
O124 O 0.06701 0.61358 0.5747 0.0
O125 O 0.99309 0.48353 0.53566 0.0
O126 O 0.99987 0.4999 0.42436 0.0
C127 C 0.98733 0.4795 0.46647 0.0
C128 C 1.0023 0.58187 0.41137 0.0
O129 O 0.98916 0.52336 0.67337 0.0
O130 O 0.0372 0.44785 0.68688 0.0
O131 O 0.99664 0.56804 0.66537 0.0
O132 O 0.97469 0.44433 0.67776 0.0
O133 O 0.04512 0.47347 0.79354 0.0
O134 O 0.982 0.47435 0.77344 0.0
O135 O 0.05757 0.52703 0.52744 0.0
O136 O 0.0511 0.48323 0.53809 0.0
C137 C 0.08244 0.61292 0.52545 0.0
C138 C 0.06111 0.56614 0.75 0.0
C139 C 0.51006 0.05289 0.49246 0.0
C140 C 0.59757 0.04576 0.42176 0.0
C141 C 0.55367 0.96168 0.50611 0.0
Mg142 Mg 0.47092 0.02633 0.62658 0.0
Mg143 Mg 0.49299 0.00909 0.77526 0.0
O144 O 0.48739 1.00444 0.67366 0.0
Mg145 Mg 0.52029 0.0154 0.61307 0.0
O146 O 0.55104 0.02628 0.54675 0.0
Mg147 Mg 0.52865 1.00544 0.45374 0.0
Mg148 Mg 0.58219 0.02216 0.57485 0.0
C149 C 0.5241 0.97423 0.73949 0.0
O150 O 0.55406 0.0501 0.69561 0.0
O151 O 0.4326 1.00213 0.69863 0.0
O152 O 0.5931 0.04701 0.67919 0.0
O153 O 0.49339 0.06466 0.7138 0.0
O154 O 0.44984 0.99181 0.79934 0.0
O155 O 0.51503 0.05376 0.80233 0.0
O156 O 0.4897 0.98248 0.52395 0.0
O157 O 0.45255 0.9885 0.54063 0.0
C158 C 0.46412 0.97607 0.50763 0.0
C159 C 0.42943 0.99112 0.76085 0.0
O160 O 0.52829 0.98237 0.67383 0.0
O161 O 0.57124 0.03312 0.39957 0.0
O162 O 0.51298 0.9834 0.78563 0.0
O163 O 0.53911 0.96932 0.46642 0.0
O164 O 0.60611 0.04383 0.4862 0.0
O165 O 0.57091 0.97808 0.5584 0.0
O166 O 0.51005 0.04721 0.55959 0.0
O167 O 0.51738 0.04076 0.4439 0.0
C168 C 0.50984 0.07163 0.77193 0.0
C169 C 0.58007 0.05788 0.71226 0.0
C170 C 0.5362 0.56867 0.69777 0.0
C171 C 0.45094 0.48521 0.81572 0.0
C172 C 0.4871 0.43347 0.7401 0.0
Mg173 Mg 0.56594 0.56587 0.55144 0.0
Mg174 Mg 0.52998 0.51623 0.41941 0.0
O175 O 0.54229 0.52444 0.51848 0.0
Mg176 Mg 0.51481 0.51061 0.59546 0.0
O177 O 0.48953 0.49868 0.67635 0.0
Mg178 Mg 0.51643 0.50615 0.76229 0.0
Mg179 Mg 0.45805 0.4619 0.66547 0.0
C180 C 0.49399 0.45486 0.48163 0.0
O181 O 0.47706 0.50718 0.52437 0.0
O182 O 0.59765 0.56699 0.4667 0.0
O183 O 0.44108 0.46672 0.56157 0.0
O184 O 0.5439 0.58043 0.46633 0.0
O185 O 0.57138 0.53055 0.38352 0.0
O186 O 0.51542 0.54473 0.38574 0.0
O187 O 0.54911 0.51199 0.67585 0.0
O188 O 0.58586 0.55084 0.63784 0.0
C189 C 0.57553 0.53028 0.68016 0.0
C190 C 0.59532 0.55094 0.4101 0.0
O191 O 0.49944 0.46486 0.54861 0.0
O192 O 0.47793 0.49977 0.83022 0.0
O193 O 0.50132 0.4708 0.42728 0.0
O194 O 0.50361 0.4584 0.77029 0.0
O195 O 0.43978 0.46886 0.75752 0.0
O196 O 0.46859 0.42946 0.68935 0.0
O197 O 0.53162 0.55742 0.63262 0.0
O198 O 0.53073 0.55349 0.75307 0.0
C199 C 0.52572 0.57043 0.41151 0.0
C200 C 0.45085 0.48771 0.52017 0.0
H201 H 0.20468 0.55597 0.2268 0.0
H202 H 0.17321 0.46947 0.2846 0.0
H203 H 0.17391 0.56135 0.31197 0.0
H204 H 0.14227 0.47425 0.36768 0.0
H205 H 0.10173 0.49117 0.54694 0.0
H206 H 0.14085 0.49633 0.47956 0.0
H207 H 0.12336 0.54393 0.32198 0.0
H208 H 0.08448 0.53974 0.39255 0.0
C209 C 0.19169 0.53843 0.25927 0.0
C210 C 0.19158 0.5125 0.25066 0.0
C211 C 0.17381 0.54131 0.30711 0.0
C212 C 0.15562 0.51828 0.34702 0.0
C213 C 0.15634 0.49268 0.33932 0.0
C214 C 0.17406 0.48985 0.29175 0.0
C215 C 0.10638 0.50302 0.49828 0.0
C216 C 0.08972 0.51457 0.47406 0.0
C217 C 0.12879 0.5059 0.45944 0.0
C218 C 0.1349 0.5199 0.39421 0.0
C219 C 0.11927 0.533 0.37204 0.0
C220 C 0.09694 0.53052 0.41207 0.0
H221 H 0.68691 0.21068 0.27084 0.0
H222 H 0.73882 0.17652 0.2 0.0
H223 H 0.65779 0.1671 0.33131 0.0
H224 H 0.70968 0.1327 0.26074 0.0
H225 H 0.65445 0.06685 0.43226 0.0
H226 H 0.69011 0.11057 0.38282 0.0
H227 H 0.6245 0.1182 0.26495 0.0
H228 H 0.58881 0.07457 0.31415 0.0
C229 C 0.69289 0.19437 0.27155 0.0
C230 C 0.71519 0.19693 0.23172 0.0
C231 C 0.67593 0.16924 0.30469 0.0
C232 C 0.68107 0.14631 0.29874 0.0
C233 C 0.7052 0.15003 0.26566 0.0
C234 C 0.72212 0.17521 0.23196 0.0
C235 C 0.64766 0.0775 0.39441 0.0
C236 C 0.61878 0.06737 0.3775 0.0
C237 C 0.66809 0.10256 0.36646 0.0
C238 C 0.65997 0.11808 0.32183 0.0
C239 C 0.63124 0.10693 0.30082 0.0
C240 C 0.61083 0.08171 0.32803 0.0
H241 H 0.55451 0.7232 0.21999 0.0
H242 H 0.48004 0.65963 0.09309 0.0
H243 H 0.54976 0.68795 0.30524 0.0
H244 H 0.4742 0.62442 0.18018 0.0
H245 H 0.50083 0.56278 0.27384 0.0
H246 H 0.49566 0.59759 0.2053 0.0
H247 H 0.52778 0.65691 0.39596 0.0
H248 H 0.53421 0.62238 0.46339 0.0
C249 C 0.53649 0.70188 0.21202 0.0
C250 C 0.51773 0.6941 0.14987 0.0
C251 C 0.53368 0.68155 0.26096 0.0
C252 C 0.51179 0.653 0.24939 0.0
C253 C 0.49177 0.6459 0.19004 0.0
C254 C 0.49487 0.66613 0.14051 0.0
C255 C 0.50643 0.58309 0.30149 0.0
C256 C 0.51835 0.58991 0.37377 0.0
C257 C 0.50329 0.60313 0.26221 0.0
C258 C 0.51157 0.63041 0.29451 0.0
C259 C 0.52183 0.63648 0.36843 0.0
C260 C 0.52535 0.61658 0.40737 0.0
H261 H 0.85152 0.56217 0.22726 0.0
H262 H 0.90522 0.60282 0.05316 0.0
H263 H 0.89308 0.57505 0.30888 0.0
H264 H 0.94669 0.61466 0.13413 0.0
H265 H 0.99024 0.56807 0.26325 0.0
H266 H 0.95655 0.57429 0.18507 0.0
H267 H 0.94203 0.61727 0.36607 0.0
H268 H 0.97576 0.61176 0.44377 0.0
C269 C 0.8722 0.57488 0.20735 0.0
C270 C 0.87517 0.58103 0.13366 0.0
C271 C 0.89597 0.58203 0.2538 0.0
C272 C 0.92289 0.59522 0.22688 0.0
C273 C 0.92607 0.60407 0.15553 0.0
C274 C 0.90238 0.59741 0.10956 0.0
C275 C 0.98035 0.57939 0.28592 0.0
C276 C 0.98545 0.589 0.36001 0.0
C277 C 0.9612 0.58308 0.24117 0.0
C278 C 0.94671 0.59615 0.27007 0.0
C279 C 0.95287 0.60704 0.34284 0.0
C280 C 0.97221 0.60376 0.38715 0.0
H281 H 0.30852 0.85286 0.29526 0.0
H282 H 0.3661 0.85499 0.13976 0.0
H283 H 0.34785 0.88152 0.38406 0.0
H284 H 0.40575 0.88267 0.22968 0.0
H285 H 0.46655 0.96859 0.3611 0.0
H286 H 0.43044 0.93007 0.2784 0.0
H287 H 0.38479 0.88801 0.46402 0.0
H288 H 0.42003 0.92749 0.54514 0.0
C289 C 0.3296 0.85859 0.28123 0.0
C290 C 0.33434 0.85187 0.2108 0.0
C291 C 0.35227 0.87505 0.33214 0.0
C292 C 0.38021 0.88481 0.31402 0.0
C293 C 0.38467 0.87617 0.24507 0.0
C294 C 0.36198 0.86006 0.19381 0.0
C295 C 0.44897 0.95078 0.38369 0.0
C296 C 0.44575 0.95087 0.45883 0.0
C297 C 0.42831 0.92859 0.33662 0.0
C298 C 0.40434 0.90596 0.36428 0.0
C299 C 0.40244 0.90535 0.44039 0.0
C300 C 0.42272 0.92778 0.487 0.0
H301 H 0.50813 0.31889 0.33289 0.0
H302 H 0.42417 0.29243 0.24214 0.0
H303 H 0.50511 0.35199 0.42063 0.0
H304 H 0.42078 0.3251 0.33092 0.0
H305 H 0.49789 0.41535 0.56301 0.0
H306 H 0.48445 0.36651 0.52036 0.0
H307 H 0.447 0.37648 0.31947 0.0
H308 H 0.46028 0.42469 0.3618 0.0
C309 C 0.48856 0.31925 0.33399 0.0
C310 C 0.46659 0.30362 0.28011 0.0
C311 C 0.48675 0.33814 0.38442 0.0
C312 C 0.4629 0.34156 0.38165 0.0
C313 C 0.43962 0.3233 0.33339 0.0
C314 C 0.44152 0.30461 0.28272 0.0
C315 C 0.48602 0.40667 0.51074 0.0
C316 C 0.48056 0.42387 0.46495 0.0
C317 C 0.47844 0.37881 0.48629 0.0
C318 C 0.46486 0.3677 0.41637 0.0
C319 C 0.45717 0.38418 0.37388 0.0
C320 C 0.46505 0.41197 0.39777 0.0
H321 H 0.51199 0.82099 0.90906 0.0
H322 H 0.59548 0.88984 0.97655 0.0
H323 H 0.50524 0.85192 0.8264 0.0
H324 H 0.58877 0.92075 0.89371 0.0
H325 H 0.56808 0.96523 0.70819 0.0
H326 H 0.57758 0.92879 0.75736 0.0
H327 H 0.50125 0.8954 0.87055 0.0
H328 H 0.49219 0.93163 0.82332 0.0
C329 C 0.5292 0.84243 0.90449 0.0
C330 C 0.55416 0.8531 0.9496 0.0
C331 C 0.52531 0.86017 0.85749 0.0
C332 C 0.54643 0.88879 0.85401 0.0
C333 C 0.57222 0.89876 0.89485 0.0
C334 C 0.57597 0.88114 0.94257 0.0
C335 C 0.55328 0.94984 0.74288 0.0
C336 C 0.52956 0.95141 0.76256 0.0
C337 C 0.55871 0.92909 0.77104 0.0
C338 C 0.54003 0.90916 0.81738 0.0
C339 C 0.51583 0.91018 0.83428 0.0
C340 C 0.5108 0.93114 0.80777 0.0
H341 H 0.73172 0.55095 0.87 0.0
H342 H 0.66913 0.48775 -0.00239 0.0
H343 H 0.69438 0.54761 0.78554 0.0
H344 H 0.63181 0.48556 0.91615 0.0
H345 H 0.56915 0.48112 0.73565 0.0
H346 H 0.60557 0.47516 0.80144 0.0
H347 H 0.66325 0.56576 0.80012 0.0
H348 H 0.62748 0.5714 0.73296 0.0
C349 C 0.71002 0.53583 0.8789 0.0
C350 C 0.7033 0.52001 0.941 0.0
C351 C 0.68857 0.53423 0.83132 0.0
C352 C 0.66004 0.51699 0.84541 0.0
C353 C 0.65345 0.49915 0.90364 0.0
C354 C 0.67487 0.50053 0.95062 0.0
C355 C 0.58956 0.49971 0.75021 0.0
C356 C 0.59553 0.52669 0.72892 0.0
C357 C 0.61048 0.49631 0.78749 0.0
C358 C 0.63762 0.51989 0.80462 0.0
C359 C 0.64301 0.54695 0.78561 0.0
C360 C 0.62232 0.55027 0.74798 0.0
H361 H 0.13644 0.72252 0.01711 0.0
H362 H 0.2079 0.71349 0.96671 0.0
H363 H 0.10632 0.68281 0.92799 0.0
H364 H 0.17768 0.67345 0.87861 0.0
H365 H 0.1016 0.57776 0.85664 0.0
H366 H 0.13532 0.62397 0.91746 0.0
H367 H 0.10055 0.66464 0.78401 0.0
H368 H 0.06688 0.61808 0.72162 0.0
C369 C 0.14577 0.71245 0.98557 0.0
C370 C 0.17441 0.72094 -0.00141 0.0
C371 C 0.12861 0.68987 0.93456 0.0
C372 C 0.13973 0.67511 0.89687 0.0
C373 C 0.16868 0.68456 0.90712 0.0
C374 C 0.18594 0.70748 0.95712 0.0
C375 C 0.10128 0.59658 0.83989 0.0
C376 C 0.08171 0.59444 0.78446 0.0
C377 C 0.12071 0.62301 0.8742 0.0
C378 C 0.12062 0.6478 0.85489 0.0
C379 C 0.10109 0.64578 0.79939 0.0
C380 C 0.08197 0.61928 0.76368 0.0
H381 H 0.49919 0.20484 0.97482 0.0
H382 H 0.57176 0.21219 0.09746 0.0
H383 H 0.5043 0.17636 0.87873 0.0
H384 H 0.57799 0.18466 -0.00096 0.0
H385 H 0.53844 0.09098 0.90558 0.0
H386 H 0.55195 0.13557 0.97244 0.0
H387 H 0.52429 0.16382 0.78489 0.0
H388 H 0.50951 0.1182 0.71858 0.0
C389 C 0.5171 0.20149 0.97953 0.0
C390 C 0.53477 0.21024 0.04406 0.0
C391 C 0.52014 0.18513 0.92411 0.0
C392 C 0.54114 0.17746 0.93176 0.0
C393 C 0.561 0.18935 0.99241 0.0
C394 C 0.55763 0.20532 0.04852 0.0
C395 C 0.53549 0.10678 0.87807 0.0
C396 C 0.52206 0.10066 0.80752 0.0
C397 C 0.54367 0.1327 0.91627 0.0
C398 C 0.53886 0.15333 0.88468 0.0
C399 C 0.52766 0.14816 0.81165 0.0
C400 C 0.51918 0.12201 0.77358 0.0
H401 H 0.30604 0.48005 0.00873 0.0
H402 H 0.37164 0.56784 0.04337 0.0
H403 H 0.33759 0.46886 0.94556 0.0
H404 H 0.40319 0.55733 0.97567 0.0
H405 H 0.46334 0.52376 0.93426 0.0
H406 H 0.43057 0.53541 0.99197 0.0
H407 H 0.36214 0.47117 0.84755 0.0
H408 H 0.39387 0.45824 0.79507 0.0
C409 C 0.32681 0.49729 -0.00094 0.0
C410 C 0.33627 0.52486 0.02988 0.0
C411 C 0.34516 0.49089 0.96334 0.0
C412 C 0.37332 0.51208 0.95616 0.0
C413 C 0.38199 0.54025 0.9818 0.0
C414 C 0.36372 0.54651 0.01885 0.0
C415 C 0.44117 0.51171 0.91637 0.0
C416 C 0.43142 0.49003 0.86004 0.0
C417 C 0.42239 0.51873 0.94841 0.0
C418 C 0.39355 0.50449 0.92406 0.0
C419 C 0.38393 0.48242 0.869 0.0
C420 C 0.4024 0.47506 0.83839 0.0
H421 H 0.85501 0.30726 0.94108 0.0
H422 H 0.81699 0.35941 0.97652 0.0
H423 H 0.88357 0.33881 0.84968 0.0
H424 H 0.84532 0.39106 0.88464 0.0
H425 H 0.92958 0.39698 0.67833 0.0
H426 H 0.88742 0.3613 0.73187 0.0
H427 H 0.89656 0.42469 0.89717 0.0
H428 H 0.93854 0.46032 0.84394 0.0
C429 C 0.85195 0.32482 0.92671 0.0
C430 C 0.83378 0.33092 0.96478 0.0
C431 C 0.86827 0.34292 0.87456 0.0
C432 C 0.86686 0.36759 0.86045 0.0
C433 C 0.84702 0.37238 0.89485 0.0
C434 C 0.83064 0.35419 0.94675 0.0
C435 C 0.92228 0.40347 0.7252 0.0
C436 C 0.93776 0.43142 0.75766 0.0
C437 C 0.89816 0.38298 0.75591 0.0
C438 C 0.88883 0.39008 0.81911 0.0
C439 C 0.90306 0.41854 0.84815 0.0
C440 C 0.9273 0.43895 0.81791 0.0
H441 H 0.83909 0.5488 0.83308 0.0
H442 H 0.845 0.48961 0.97322 0.0
H443 H 0.87345 0.54678 0.75649 0.0
H444 H 0.87966 0.48775 0.89749 0.0
H445 H 0.94132 0.49062 0.72584 0.0
H446 H 0.89709 0.47974 0.77894 0.0
H447 H 0.92414 0.56952 0.79782 0.0
H448 H 0.96806 0.58039 0.74621 0.0
C449 C 0.84646 0.53404 0.84493 0.0
C450 C 0.83934 0.5193 0.90882 0.0
C451 C 0.86663 0.53334 0.80209 0.0
C452 C 0.87996 0.51784 0.82241 0.0
C453 C 0.86993 0.50002 0.88054 0.0
C454 C 0.84978 0.50077 0.92344 0.0
C455 C 0.93804 0.50805 0.74266 0.0
C456 C 0.9584 0.5364 0.73186 0.0
C457 C 0.91254 0.50177 0.77227 0.0
C458 C 0.90674 0.5237 0.79069 0.0
C459 C 0.92749 0.55202 0.78202 0.0
C460 C 0.95293 0.55829 0.75324 0.0
H461 H 0.30548 0.84014 0.90088 0.0
H462 H 0.29497 0.89936 0.04056 0.0
H463 H 0.33131 0.87786 0.81888 0.0
H464 H 0.3205 0.93711 0.95856 0.0
H465 H 0.38039 0.95226 0.68407 0.0
H466 H 0.33701 0.91715 0.73638 0.0
H467 H 0.37234 0.95791 0.95137 0.0
H468 H 0.41536 0.9923 0.89947 0.0
C469 C 0.30742 0.86087 0.91174 0.0
C470 C 0.29824 0.86696 0.97651 0.0
C471 C 0.32224 0.8825 0.86499 0.0
C472 C 0.32828 0.91056 0.8829 0.0
C473 C 0.3164 0.91577 0.94376 0.0
C474 C 0.3016 0.89416 0.99032 0.0
C475 C 0.37834 0.95419 0.7421 0.0
C476 C 0.40113 0.97489 0.78793 0.0
C477 C 0.35366 0.93402 0.77204 0.0
C478 C 0.35125 0.93474 0.84796 0.0
C479 C 0.3733 0.95694 0.89261 0.0
C480 C 0.39803 0.9766 0.86301 0.0
H481 H 0.43357 0.29729 0.01824 0.0
H482 H 0.51899 0.31646 -0.0065 0.0
H483 H 0.4373 0.32834 0.92109 0.0
H484 H 0.52279 0.34757 0.89579 0.0
H485 H 0.52815 0.43379 0.83136 0.0
H486 H 0.52513 0.39473 0.89964 0.0
H487 H 0.44365 0.33773 0.78956 0.0
H488 H 0.4466 0.3769 0.72103 0.0
C489 C 0.45292 0.30761 0.99067 0.0
C490 C 0.476 0.30448 0.01363 0.0
C491 C 0.45505 0.32534 0.93476 0.0
C492 C 0.48043 0.34065 0.90093 0.0
C493 C 0.50303 0.33629 0.92117 0.0
C494 C 0.50077 0.31825 0.97659 0.0
C495 C 0.5098 0.41282 0.82057 0.0
C496 C 0.48748 0.40863 0.77116 0.0
C497 C 0.50814 0.39034 0.85952 0.0
C498 C 0.48402 0.36311 0.85062 0.0
C499 C 0.46237 0.35852 0.79832 0.0
C500 C 0.46417 0.38096 0.75868 0.0
H501 H 0.20326 0.49941 0.93267 0.0
H502 H 0.15332 0.43035 0.06593 0.0
H503 H 0.16381 0.48114 0.84016 0.0
H504 H 0.11398 0.4116 0.97307 0.0
H505 H 0.08764 0.44826 0.68789 0.0
H506 H 0.12615 0.44475 0.75089 0.0
H507 H 0.08642 0.43548 0.95395 0.0
H508 H 0.04851 0.43917 0.89137 0.0
C509 C 0.18432 0.47951 0.94031 0.0
C510 C 0.18111 0.46643 0.00647 0.0
C511 C 0.16166 0.46899 0.88738 0.0
C512 C 0.13554 0.44522 0.90001 0.0
C513 C 0.13365 0.43022 0.96236 0.0
C514 C 0.1562 0.44082 0.01528 0.0
C515 C 0.08667 0.44428 0.74538 0.0
C516 C 0.06522 0.44406 0.78502 0.0
C517 C 0.10881 0.44254 0.78152 0.0
C518 C 0.10948 0.44003 0.8575 0.0
C519 C 0.08651 0.43708 0.89533 0.0
C520 C 0.06476 0.43929 0.85959 0.0
H521 H 0.65421 0.20361 0.03153 0.0
H522 H 0.72357 0.20791 0.91921 0.0
H523 H 0.6209 0.16478 0.94521 0.0
H524 H 0.69035 0.16946 0.83194 0.0
H525 H 0.6305 0.07365 0.78627 0.0
H526 H 0.66166 0.11869 0.85546 0.0
H527 H 0.60006 0.1455 0.81963 0.0
H528 H 0.56908 0.1005 0.74929 0.0
C529 C 0.66225 0.19708 0.9863 0.0
C530 C 0.69145 0.20856 0.98235 0.0
C531 C 0.64319 0.17473 0.93712 0.0
C532 C 0.65306 0.16348 0.88321 0.0
C533 C 0.68217 0.17719 0.87424 0.0
C534 C 0.70121 0.1996 0.92329 0.0
C535 C 0.62346 0.089 0.7938 0.0
C536 C 0.59704 0.08324 0.76339 0.0
C537 C 0.64146 0.11499 0.83262 0.0
C538 C 0.63355 0.13591 0.84192 0.0
C539 C 0.60677 0.12983 0.81352 0.0
C540 C 0.58881 0.10385 0.77424 0.0
H541 H 0.49962 0.6864 0.8606 0.0
H542 H 0.58897 0.73253 0.91863 0.0
H543 H 0.50605 0.6563 0.77024 0.0
H544 H 0.5956 0.70227 0.82839 0.0
H545 H 0.57117 0.60394 0.81 0.0
H546 H 0.57791 0.65034 0.85002 0.0
H547 H 0.52836 0.64844 0.65808 0.0
H548 H 0.52204 0.60181 0.61712 0.0
C549 C 0.52078 0.69088 0.85135 0.0
C550 C 0.54382 0.71166 0.89605 0.0
C551 C 0.52452 0.67373 0.79958 0.0
C552 C 0.55132 0.67678 0.79274 0.0
C553 C 0.57473 0.69942 0.83274 0.0
C554 C 0.57099 0.71681 0.88398 0.0
C555 C 0.56251 0.61387 0.77514 0.0
C556 C 0.54581 0.59923 0.71108 0.0
C557 C 0.56655 0.64056 0.79772 0.0
C558 C 0.55352 0.65296 0.75737 0.0
C559 C 0.53858 0.63931 0.69024 0.0
C560 C 0.53504 0.61273 0.66677 0.0
H561 H 0.54356 0.21117 0.34062 0.0
H562 H 0.45842 0.15709 0.24934 0.0
H563 H 0.53886 0.17368 0.41925 0.0
H564 H 0.45364 0.11931 0.32731 0.0
H565 H 0.4852 0.05303 0.36162 0.0
H566 H 0.47922 0.09121 0.31394 0.0
H567 H 0.51275 0.14012 0.5207 0.0
H568 H 0.51829 0.1013 0.5693 0.0
C569 C 0.52348 0.19163 0.33966 0.0
C570 C 0.50123 0.18706 0.28977 0.0
C571 C 0.52076 0.17015 0.38453 0.0
C572 C 0.49593 0.14346 0.37921 0.0
C573 C 0.47306 0.13961 0.33247 0.0
C574 C 0.47566 0.16126 0.28835 0.0
C575 C 0.49075 0.07165 0.39752 0.0
C576 C 0.50236 0.07422 0.46906 0.0
C577 C 0.48715 0.09348 0.37031 0.0
C578 C 0.49554 0.11873 0.41346 0.0
C579 C 0.50614 0.12092 0.48614 0.0
C580 C 0.50918 0.09868 0.51403 0.0
H581 H 0.30422 0.47632 0.28153 0.0
H582 H 0.36462 0.56613 0.30669 0.0
H583 H 0.33582 0.46623 0.35504 0.0
H584 H 0.39599 0.55649 0.38394 0.0
H585 H 0.46072 0.52823 0.42162 0.0
H586 H 0.42621 0.53815 0.36178 0.0
H587 H 0.35958 0.4678 0.46398 0.0
H588 H 0.39361 0.45695 0.51978 0.0
C589 C 0.32365 0.49402 0.30645 0.0
C590 C 0.33194 0.52198 0.28924 0.0
C591 C 0.34199 0.48829 0.34808 0.0
C592 C 0.36887 0.51051 0.37419 0.0
C593 C 0.37587 0.53878 0.36288 0.0
C594 C 0.35766 0.54443 0.32027 0.0
C595 C 0.43865 0.51457 0.43008 0.0
C596 C 0.43005 0.49171 0.47523 0.0
C597 C 0.41884 0.52054 0.39684 0.0
C598 C 0.39001 0.50405 0.40885 0.0
C599 C 0.38145 0.48083 0.4527 0.0
C600 C 0.40112 0.4746 0.48482 0.0
H601 H 0.82525 0.34808 0.28378 0.0
H602 H 0.88285 0.32538 0.19036 0.0
H603 H 0.86358 0.38312 0.3698 0.0
H604 H 0.92096 0.36016 0.27562 0.0
H605 H 0.98124 0.45787 0.32676 0.0
H606 H 0.94241 0.41386 0.269 0.0
H607 H 0.90316 0.39354 0.47362 0.0
H608 H 0.94255 0.43778 0.53236 0.0
C609 C 0.8458 0.34978 0.28372 0.0
C610 C 0.85121 0.33421 0.23041 0.0
C611 C 0.86775 0.36987 0.33265 0.0
C612 C 0.89535 0.37467 0.32847 0.0
C613 C 0.90001 0.3572 0.2794 0.0
C614 C 0.87819 0.33718 0.23098 0.0
C615 C 0.96455 0.4439 0.35982 0.0
C616 C 0.96497 0.45134 0.43407 0.0
C617 C 0.94236 0.41858 0.3268 0.0
C618 C 0.91978 0.4002 0.36686 0.0
C619 C 0.92029 0.40733 0.44149 0.0
C620 C 0.94288 0.43254 0.47506 0.0
H621 H 0.526 0.81088 0.24848 0.0
H622 H 0.60343 0.88533 0.20158 0.0
H623 H 0.52418 0.83605 0.35977 0.0
H624 H 0.60171 0.91045 0.31264 0.0
H625 H 0.51086 0.91432 0.43268 0.0
H626 H 0.51493 0.87755 0.36308 0.0
H627 H 0.60095 0.91334 0.45136 0.0
H628 H 0.59678 0.95013 0.52191 0.0
C629 C 0.54313 0.83227 0.26336 0.0
C630 C 0.56477 0.84627 0.21632 0.0
C631 C 0.54199 0.8467 0.32675 0.0
C632 C 0.5627 0.87525 0.34468 0.0
C633 C 0.58558 0.88839 0.30071 0.0
C634 C 0.5865 0.8741 0.2369 0.0
C635 C 0.53032 0.91375 0.43925 0.0
C636 C 0.55359 0.93528 0.48206 0.0
C637 C 0.53263 0.8926 0.39958 0.0
C638 C 0.55839 0.89278 0.40112 0.0
C639 C 0.58093 0.91285 0.44878 0.0
C640 C 0.57846 0.93378 0.48952 0.0
H641 H 0.70961 0.50373 0.23127 0.0
H642 H 0.74531 0.59181 0.18344 0.0
H643 H 0.67844 0.50897 0.31379 0.0
H644 H 0.71401 0.59718 0.26578 0.0
H645 H 0.65137 0.5918 0.44319 0.0
H646 H 0.69297 0.59241 0.39565 0.0
H647 H 0.63849 0.51589 0.26002 0.0
H648 H 0.59752 0.51534 0.3055 0.0
C649 C 0.71187 0.52462 0.24171 0.0
C650 C 0.73003 0.54745 0.20186 0.0
C651 C 0.69378 0.52756 0.28804 0.0
C652 C 0.69345 0.55336 0.29507 0.0
C653 C 0.71386 0.5771 0.26165 0.0
C654 C 0.73194 0.57411 0.21501 0.0
C655 C 0.64834 0.57526 0.40283 0.0
C656 C 0.62098 0.55355 0.37833 0.0
C657 C 0.67214 0.57555 0.37599 0.0
C658 C 0.66895 0.55381 0.32547 0.0
C659 C 0.64167 0.53252 0.30034 0.0
C660 C 0.6181 0.53246 0.32598 0.0
H661 H 0.22454 0.73647 0.29964 0.0
H662 H 0.1491 0.74068 0.24985 0.0
H663 H 0.20334 0.70886 0.40507 0.0
H664 H 0.12802 0.71348 0.35513 0.0
H665 H 0.09512 0.66813 0.55311 0.0
H666 H 0.12972 0.70934 0.49252 0.0
H667 H 0.16232 0.65814 0.3995 0.0
H668 H 0.12769 0.61703 0.45924 0.0
C669 C 0.20385 0.73238 0.31294 0.0
C670 C 0.18838 0.7406 0.26678 0.0
C671 C 0.19166 0.71646 0.37289 0.0
C672 C 0.16399 0.70891 0.38829 0.0
C673 C 0.14949 0.7192 0.34535 0.0
C674 C 0.16147 0.73467 0.28488 0.0
C675 C 0.1104 0.66598 0.52213 0.0
C676 C 0.10847 0.63925 0.51022 0.0
C677 C 0.13007 0.68953 0.48696 0.0
C678 C 0.14847 0.68688 0.44045 0.0
C679 C 0.14853 0.66094 0.43515 0.0
C680 C 0.12862 0.63733 0.46928 0.0
loop_
_geom_bond_atom_site_label_1
_geom_bond_atom_site_label_2
_geom_bond_distance
_geom_bond_site_symmetry_2
_ccdc_geom_bond_type
H0 C6 0.930 . S
H1 C9 0.931 . S
H2 C11 0.931 . S
H3 C13 0.930 . S
H4 C15 0.930 . S
H5 C17 0.931 . S
C6 H0 0.930 . S
C6 C7 1.380 . S
C6 C8 1.394 . S
C7 C6 1.380 . S
C7 C11 1.382 . S
C8 C6 1.394 . S
C8 C9 1.400 . S
C9 H1 0.931 . S
C9 C8 1.400 . S
C9 C10 1.375 . S
C10 C9 1.375 . S
C10 C11 1.415 . S
C10 C12 1.501 . S
C11 H2 0.931 . S
C11 C7 1.382 . S
C11 C10 1.415 . S
C12 C10 1.501 . S
C12 C13 1.384 . S
C12 C17 1.408 . S
C13 H3 0.930 . S
C13 C12 1.384 . S
C13 C14 1.389 . S
C14 C13 1.389 . S
C14 C15 1.405 . S
C15 H4 0.930 . S
C15 C14 1.405 . S
C15 C16 1.364 . S
C16 C15 1.364 . S
C16 C17 1.400 . S
C17 H5 0.931 . S
C17 C12 1.408 . S
C17 C16 1.400 . S
H18 C24 0.930 . S
H19 C27 0.931 . S
H20 C29 0.931 1_556 S
H21 C31 0.930 1_556 S
H22 C33 0.930 . S
H23 C35 0.931 . S
C24 H18 0.930 . S
C24 C25 1.380 . S
C24 C26 1.394 . S
C25 C24 1.380 . S
C25 C29 1.382 . S
C26 C24 1.394 . S
C26 C27 1.400 . S
C27 H19 0.931 . S
C27 C26 1.400 . S
C27 C28 1.375 . S
C28 C27 1.375 . S
C28 C29 1.415 . S
C28 C30 1.501 . S
C29 H20 0.931 1_554 S
C29 C25 1.382 . S
C29 C28 1.415 . S
C30 C28 1.501 . S
C30 C31 1.384 . S
C30 C35 1.408 . S
C31 H21 0.930 1_554 S
C31 C30 1.384 . S
C31 C32 1.389 . S
C32 C31 1.389 . S
C32 C33 1.405 . S
C33 H22 0.930 . S
C33 C32 1.405 . S
C33 C34 1.364 . S
C34 C33 1.364 . S
C34 C35 1.400 . S
C35 H23 0.931 . S
C35 C30 1.408 . S
C35 C34 1.400 . S
H36 C42 0.930 . S
H37 C45 0.931 . S
H38 C47 0.931 . S
H39 C49 0.930 . S
H40 C51 0.930 . S
H41 C53 0.931 . S
C42 H36 0.930 . S
C42 C43 1.380 1_554 S
C42 C44 1.394 . S
C43 C42 1.380 1_556 S
C43 C47 1.382 . S
C44 C42 1.394 . S
C44 C45 1.400 . S
C45 H37 0.931 . S
C45 C44 1.400 . S
C45 C46 1.375 . S
C46 C45 1.375 . S
C46 C47 1.415 1_554 S
C46 C48 1.501 . S
C47 H38 0.931 . S
C47 C43 1.382 . S
C47 C46 1.415 1_556 S
C48 C46 1.501 . S
C48 C49 1.384 1_554 S
C48 C53 1.408 . S
C49 H39 0.930 . S
C49 C48 1.384 1_556 S
C49 C50 1.389 . S
C50 C49 1.389 . S
C50 C51 1.405 1_556 S
C51 H40 0.930 . S
C51 C50 1.405 1_554 S
C51 C52 1.364 . S
C52 C51 1.364 . S
C52 C53 1.400 . S
C53 H41 0.931 . S
C53 C48 1.408 . S
C53 C52 1.400 . S
H54 C60 0.930 . S
H55 C63 0.931 . S
H56 C65 0.931 . S
H57 C67 0.930 . S
H58 C69 0.930 . S
H59 C71 0.931 . S
C60 H54 0.930 . S
C60 C61 1.380 1_554 S
C60 C62 1.394 . S
C61 C60 1.380 1_556 S
C61 C65 1.382 . S
C62 C60 1.394 . S
C62 C63 1.400 . S
C63 H55 0.931 . S
C63 C62 1.400 . S
C63 C64 1.375 . S
C64 C63 1.375 . S
C64 C65 1.415 1_554 S
C64 C66 1.501 . S
C65 H56 0.931 . S
C65 C61 1.382 . S
C65 C64 1.415 1_556 S
C66 C64 1.501 . S
C66 C67 1.384 1_554 S
C66 C71 1.408 . S
C67 H57 0.930 . S
C67 C66 1.384 1_556 S
C67 C68 1.389 . S
C68 C67 1.389 . S
C68 C69 1.405 1_556 S
C69 H58 0.930 . S
C69 C68 1.405 1_554 S
C69 C70 1.364 . S
C70 C69 1.364 . S
C70 C71 1.400 . S
C71 H59 0.931 . S
C71 C66 1.408 . S
C71 C70 1.400 . S
H72 C78 0.930 . S
H73 C81 0.931 . S
H74 C83 0.931 . S
H75 C85 0.930 . S
H76 C87 0.930 . S
H77 C89 0.931 . S
C78 H72 0.930 . S
C78 C79 1.380 . S
C78 C80 1.394 . S
C79 C78 1.380 . S
C79 C83 1.382 . S
C80 C78 1.394 . S
C80 C81 1.400 . S
C81 H73 0.931 . S
C81 C80 1.400 . S
C81 C82 1.375 . S
C82 C81 1.375 . S
C82 C83 1.415 . S
C82 C84 1.501 . S
C83 H74 0.931 . S
C83 C79 1.382 . S
C83 C82 1.415 . S
C84 C82 1.501 . S
C84 C85 1.384 . S
C84 C89 1.408 . S
C85 H75 0.930 . S
C85 C84 1.384 . S
C85 C86 1.389 . S
C86 C85 1.389 . S
C86 C87 1.405 . S
C87 H76 0.930 . S
C87 C86 1.405 . S
C87 C88 1.364 . S
C88 C87 1.364 . S
C88 C89 1.400 . S
C89 H77 0.931 . S
C89 C84 1.408 . S
C89 C88 1.400 . S
H90 C96 0.930 . S
H91 C99 0.931 . S
H92 C101 0.931 . S
H93 C103 0.930 . S
H94 C105 0.930 . S
H95 C107 0.931 . S
C96 H90 0.930 . S
C96 C97 1.380 . S
C96 C98 1.394 . S
C97 C96 1.380 . S
C97 C101 1.382 . S
C98 C96 1.394 . S
C98 C99 1.400 . S
C99 H91 0.931 . S
C99 C98 1.400 . S
C99 C100 1.375 . S
C100 C99 1.375 . S
C100 C101 1.415 . S
C100 C102 1.501 . S
C101 H92 0.931 . S
C101 C97 1.382 . S
C101 C100 1.415 . S
C102 C100 1.501 . S
C102 C103 1.384 . S
C102 C107 1.408 . S
C103 H93 0.930 . S
C103 C102 1.384 . S
C103 C104 1.389 . S
C104 C103 1.389 . S
C104 C105 1.405 . S
C105 H94 0.930 . S
C105 C104 1.405 . S
C105 C106 1.364 . S
C106 C105 1.364 . S
C106 C107 1.400 . S
C107 H95 0.931 . S
C107 C102 1.408 . S
C107 C106 1.400 . S
C108 O135 1.312 . S
C108 O136 1.208 . S
C109 O130 1.331 . S
C109 O133 1.244 . S
C110 O132 1.264 . S
C110 O134 1.273 . S
Mg111 O113 1.936 1_455 S
Mg111 O120 2.081 1_455 S
Mg111 O122 2.023 . S
Mg111 O126 2.031 1_455 S
Mg111 O135 2.291 . S
Mg112 O113 1.963 . S
Mg112 O123 1.942 . S
Mg112 O124 1.955 1_655 S
Mg112 O131 1.986 . S
O113 Mg111 1.936 1_655 S
O113 Mg112 1.963 . S
O113 Mg114 1.915 1_655 S
Mg114 O113 1.915 1_455 S
Mg114 O115 1.915 . S
Mg114 O119 2.013 . S
Mg114 O125 2.114 1_455 S
Mg114 O129 2.013 1_455 S
Mg114 O135 2.114 . S
O115 Mg114 1.915 . S
O115 Mg116 1.936 . S
O115 Mg117 1.963 . S
Mg116 O115 1.936 . S
Mg116 O125 2.291 1_455 S
Mg116 O130 2.081 . S
Mg116 O132 2.023 1_455 S
Mg116 O136 2.031 . S
Mg117 O115 1.963 . S
Mg117 O121 1.986 . S
Mg117 O133 1.942 . S
Mg117 O134 1.955 1_455 S
C118 O129 1.191 . S
C118 O131 1.307 . S
O119 Mg114 2.013 . S
O119 C138 1.191 . S
O120 Mg111 2.081 1_655 S
O120 C128 1.331 . S
O121 Mg117 1.986 . S
O121 C138 1.307 . S
O122 Mg111 2.023 . S
O122 C137 1.264 . S
O123 Mg112 1.942 . S
O123 C128 1.244 . S
O124 Mg112 1.955 1_455 S
O124 C137 1.273 . S
O125 Mg114 2.114 1_655 S
O125 Mg116 2.291 1_655 S
O125 C127 1.312 . S
O126 Mg111 2.031 1_655 S
O126 C127 1.208 . S
C127 O125 1.312 . S
C127 O126 1.208 . S
C128 O120 1.331 . S
C128 O123 1.244 . S
O129 Mg114 2.013 1_655 S
O129 C118 1.191 . S
O130 C109 1.331 . S
O130 Mg116 2.081 . S
O131 Mg112 1.986 . S
O131 C118 1.307 . S
O132 C110 1.264 . S
O132 Mg116 2.023 1_655 S
O133 C109 1.244 . S
O133 Mg117 1.942 . S
O134 C110 1.273 . S
O134 Mg117 1.955 1_655 S
O135 C108 1.312 . S
O135 Mg111 2.291 . S
O135 Mg114 2.114 . S
O136 C108 1.208 . S
O136 Mg116 2.031 . S
C137 O122 1.264 . S
C137 O124 1.273 . S
C138 O119 1.191 . S
C138 O121 1.307 . S
C139 O166 1.312 . S
C139 O167 1.208 . S
C140 O161 1.331 . S
C140 O164 1.244 . S
C141 O163 1.264 . S
C141 O165 1.273 . S
Mg142 O144 1.936 . S
Mg142 O151 2.081 1_545 S
Mg142 O153 2.023 . S
Mg142 O157 2.031 1_545 S
Mg142 O166 2.291 . S
Mg143 O144 1.963 . S
Mg143 O154 1.942 1_545 S
Mg143 O155 1.955 . S
Mg143 O162 1.986 1_545 S
O144 Mg142 1.936 . S
O144 Mg143 1.963 . S
O144 Mg145 1.915 . S
Mg145 O144 1.915 . S
Mg145 O146 1.915 . S
Mg145 O150 2.013 . S
Mg145 O156 2.114 1_545 S
Mg145 O160 2.013 1_545 S
Mg145 O166 2.114 . S
O146 Mg145 1.915 . S
O146 Mg147 1.936 . S
O146 Mg148 1.963 . S
Mg147 O146 1.936 . S
Mg147 O156 2.291 1_545 S
Mg147 O161 2.081 . S
Mg147 O163 2.023 1_545 S
Mg147 O167 2.031 . S
Mg148 O146 1.963 . S
Mg148 O152 1.986 . S
Mg148 O164 1.942 . S
Mg148 O165 1.955 1_545 S
C149 O160 1.191 . S
C149 O162 1.307 . S
O150 Mg145 2.013 . S
O150 C169 1.191 . S
O151 Mg142 2.081 1_565 S
O151 C159 1.331 . S
O152 Mg148 1.986 . S
O152 C169 1.307 . S
O153 Mg142 2.023 . S
O153 C168 1.264 . S
O154 Mg143 1.942 1_565 S
O154 C159 1.244 . S
O155 Mg143 1.955 . S
O155 C168 1.273 . S
O156 Mg145 2.114 1_565 S
O156 Mg147 2.291 1_565 S
O156 C158 1.312 . S
O157 Mg142 2.031 1_565 S
O157 C158 1.208 . S
C158 O156 1.312 . S
C158 O157 1.208 . S
C159 O151 1.331 . S
C159 O154 1.244 . S
O160 Mg145 2.013 1_565 S
O160 C149 1.191 . S
O161 C140 1.331 . S
O161 Mg147 2.081 . S
O162 Mg143 1.986 1_565 S
O162 C149 1.307 . S
O163 C141 1.264 . S
O163 Mg147 2.023 1_565 S
O164 C140 1.244 . S
O164 Mg148 1.942 . S
O165 C141 1.273 . S
O165 Mg148 1.955 1_565 S
O166 C139 1.312 . S
O166 Mg142 2.291 . S
O166 Mg145 2.114 . S
O167 C139 1.208 . S
O167 Mg147 2.031 . S
C168 O153 1.264 . S
C168 O155 1.273 . S
C169 O150 1.191 . S
C169 O152 1.307 . S
C170 O197 1.312 . S
C170 O198 1.208 . S
C171 O192 1.331 . S
C171 O195 1.244 . S
C172 O194 1.264 . S
C172 O196 1.273 . S
Mg173 O175 1.936 . S
Mg173 O182 2.081 . S
Mg173 O184 2.023 . S
Mg173 O188 2.031 . S
Mg173 O197 2.291 . S
Mg174 O175 1.963 . S
Mg174 O185 1.942 . S
Mg174 O186 1.955 . S
Mg174 O193 1.986 . S
O175 Mg173 1.936 . S
O175 Mg174 1.963 . S
O175 Mg176 1.915 . S
Mg176 O175 1.915 . S
Mg176 O177 1.915 . S
Mg176 O181 2.013 . S
Mg176 O187 2.114 . S
Mg176 O191 2.013 . S
Mg176 O197 2.114 . S
O177 Mg176 1.915 . S
O177 Mg178 1.936 . S
O177 Mg179 1.963 . S
Mg178 O177 1.936 . S
Mg178 O187 2.291 . S
Mg178 O192 2.081 . S
Mg178 O194 2.023 . S
Mg178 O198 2.031 . S
Mg179 O177 1.963 . S
Mg179 O183 1.986 . S
Mg179 O195 1.942 . S
Mg179 O196 1.955 . S
C180 O191 1.191 . S
C180 O193 1.307 . S
O181 Mg176 2.013 . S
O181 C200 1.191 . S
O182 Mg173 2.081 . S
O182 C190 1.331 . S
O183 Mg179 1.986 . S
O183 C200 1.307 . S
O184 Mg173 2.023 . S
O184 C199 1.264 . S
O185 Mg174 1.942 . S
O185 C190 1.244 . S
O186 Mg174 1.955 . S
O186 C199 1.273 . S
O187 Mg176 2.114 . S
O187 Mg178 2.291 . S
O187 C189 1.312 . S
O188 Mg173 2.031 . S
O188 C189 1.208 . S
C189 O187 1.312 . S
C189 O188 1.208 . S
C190 O182 1.331 . S
C190 O185 1.244 . S
O191 Mg176 2.013 . S
O191 C180 1.191 . S
O192 C171 1.331 . S
O192 Mg178 2.081 . S
O193 Mg174 1.986 . S
O193 C180 1.307 . S
O194 C172 1.264 . S
O194 Mg178 2.023 . S
O195 C171 1.244 . S
O195 Mg179 1.942 . S
O196 C172 1.273 . S
O196 Mg179 1.955 . S
O197 C170 1.312 . S
O197 Mg173 2.291 . S
O197 Mg176 2.114 . S
O198 C170 1.208 . S
O198 Mg178 2.031 . S
C199 O184 1.264 . S
C199 O186 1.273 . S
C200 O181 1.191 . S
C200 O183 1.307 . S
H201 C209 0.950 . S
H202 C214 0.950 . S
H203 C211 0.950 . S
H204 C213 0.950 . S
H205 C215 0.950 . S
H206 C217 0.950 . S
H207 C219 0.950 . S
H208 C220 0.950 . S
C209 H201 0.950 . S
C209 C210 1.386 . S
C209 C211 1.391 . S
C210 C209 1.386 . S
C210 C214 1.393 . S
C211 H203 0.950 . S
C211 C209 1.391 . S
C211 C212 1.400 . S
C212 C211 1.400 . S
C212 C213 1.398 . S
C212 C218 1.491 . S
C213 H204 0.950 . S
C213 C212 1.398 . S
C213 C214 1.391 . S
C214 H202 0.950 . S
C214 C210 1.393 . S
C214 C213 1.391 . S
C215 H205 0.950 . S
C215 C216 1.386 . S
C215 C217 1.391 . S
C216 C215 1.386 . S
C216 C220 1.393 . S
C217 H206 0.950 . S
C217 C215 1.391 . S
C217 C218 1.400 . S
C218 C212 1.491 . S
C218 C217 1.400 . S
C218 C219 1.398 . S
C219 H207 0.950 . S
C219 C218 1.398 . S
C219 C220 1.391 . S
C220 H208 0.950 . S
C220 C216 1.393 . S
C220 C219 1.391 . S
H221 C229 0.950 . S
H222 C234 0.950 . S
H223 C231 0.950 . S
H224 C233 0.950 . S
H225 C235 0.950 . S
H226 C237 0.950 . S
H227 C239 0.950 . S
H228 C240 0.950 . S
C229 H221 0.950 . S
C229 C230 1.386 . S
C229 C231 1.391 . S
C230 C229 1.386 . S
C230 C234 1.393 . S
C231 H223 0.950 . S
C231 C229 1.391 . S
C231 C232 1.400 . S
C232 C231 1.400 . S
C232 C233 1.398 . S
C232 C238 1.491 . S
C233 H224 0.950 . S
C233 C232 1.398 . S
C233 C234 1.391 . S
C234 H222 0.950 . S
C234 C230 1.393 . S
C234 C233 1.391 . S
C235 H225 0.950 . S
C235 C236 1.386 . S
C235 C237 1.391 . S
C236 C235 1.386 . S
C236 C240 1.393 . S
C237 H226 0.950 . S
C237 C235 1.391 . S
C237 C238 1.400 . S
C238 C232 1.491 . S
C238 C237 1.400 . S
C238 C239 1.398 . S
C239 H227 0.950 . S
C239 C238 1.398 . S
C239 C240 1.391 . S
C240 H228 0.950 . S
C240 C236 1.393 . S
C240 C239 1.391 . S
H241 C249 0.950 . S
H242 C254 0.950 . S
H243 C251 0.950 . S
H244 C253 0.950 . S
H245 C255 0.950 . S
H246 C257 0.950 . S
H247 C259 0.950 . S
H248 C260 0.950 . S
C249 H241 0.950 . S
C249 C250 1.386 . S
C249 C251 1.391 . S
C250 C249 1.386 . S
C250 C254 1.393 . S
C251 H243 0.950 . S
C251 C249 1.391 . S
C251 C252 1.400 . S
C252 C251 1.400 . S
C252 C253 1.398 . S
C252 C258 1.491 . S
C253 H244 0.950 . S
C253 C252 1.398 . S
C253 C254 1.391 . S
C254 H242 0.950 . S
C254 C250 1.393 . S
C254 C253 1.391 . S
C255 H245 0.950 . S
C255 C256 1.386 . S
C255 C257 1.391 . S
C256 C255 1.386 . S
C256 C260 1.393 . S
C257 H246 0.950 . S
C257 C255 1.391 . S
C257 C258 1.400 . S
C258 C252 1.491 . S
C258 C257 1.400 . S
C258 C259 1.398 . S
C259 H247 0.950 . S
C259 C258 1.398 . S
C259 C260 1.391 . S
C260 H248 0.950 . S
C260 C256 1.393 . S
C260 C259 1.391 . S
H261 C269 0.950 . S
H262 C274 0.950 . S
H263 C271 0.950 . S
H264 C273 0.950 . S
H265 C275 0.950 . S
H266 C277 0.950 . S
H267 C279 0.950 . S
H268 C280 0.950 . S
C269 H261 0.950 . S
C269 C270 1.386 . S
C269 C271 1.391 . S
C270 C269 1.386 . S
C270 C274 1.393 . S
C271 H263 0.950 . S
C271 C269 1.391 . S
C271 C272 1.400 . S
C272 C271 1.400 . S
C272 C273 1.398 . S
C272 C278 1.491 . S
C273 H264 0.950 . S
C273 C272 1.398 . S
C273 C274 1.391 . S
C274 H262 0.950 . S
C274 C270 1.393 . S
C274 C273 1.391 . S
C275 H265 0.950 . S
C275 C276 1.386 . S
C275 C277 1.391 . S
C276 C275 1.386 . S
C276 C280 1.393 . S
C277 H266 0.950 . S
C277 C275 1.391 . S
C277 C278 1.400 . S
C278 C272 1.491 . S
C278 C277 1.400 . S
C278 C279 1.398 . S
C279 H267 0.950 . S
C279 C278 1.398 . S
C279 C280 1.391 . S
C280 H268 0.950 . S
C280 C276 1.393 . S
C280 C279 1.391 . S
H281 C289 0.950 . S
H282 C294 0.950 . S
H283 C291 0.950 . S
H284 C293 0.950 . S
H285 C295 0.950 . S
H286 C297 0.950 . S
H287 C299 0.950 . S
H288 C300 0.950 . S
C289 H281 0.950 . S
C289 C290 1.386 . S
C289 C291 1.391 . S
C290 C289 1.386 . S
C290 C294 1.393 . S
C291 H283 0.950 . S
C291 C289 1.391 . S
C291 C292 1.400 . S
C292 C291 1.400 . S
C292 C293 1.398 . S
C292 C298 1.491 . S
C293 H284 0.950 . S
C293 C292 1.398 . S
C293 C294 1.391 . S
C294 H282 0.950 . S
C294 C290 1.393 . S
C294 C293 1.391 . S
C295 H285 0.950 . S
C295 C296 1.386 . S
C295 C297 1.391 . S
C296 C295 1.386 . S
C296 C300 1.393 . S
C297 H286 0.950 . S
C297 C295 1.391 . S
C297 C298 1.400 . S
C298 C292 1.491 . S
C298 C297 1.400 . S
C298 C299 1.398 . S
C299 H287 0.950 . S
C299 C298 1.398 . S
C299 C300 1.391 . S
C300 H288 0.950 . S
C300 C296 1.393 . S
C300 C299 1.391 . S
H301 C309 0.950 . S
H302 C314 0.950 . S
H303 C311 0.950 . S
H304 C313 0.950 . S
H305 C315 0.950 . S
H306 C317 0.950 . S
H307 C319 0.950 . S
H308 C320 0.950 . S
C309 H301 0.950 . S
C309 C310 1.386 . S
C309 C311 1.391 . S
C310 C309 1.386 . S
C310 C314 1.393 . S
C311 H303 0.950 . S
C311 C309 1.391 . S
C311 C312 1.400 . S
C312 C311 1.400 . S
C312 C313 1.398 . S
C312 C318 1.491 . S
C313 H304 0.950 . S
C313 C312 1.398 . S
C313 C314 1.391 . S
C314 H302 0.950 . S
C314 C310 1.393 . S
C314 C313 1.391 . S
C315 H305 0.950 . S
C315 C316 1.386 . S
C315 C317 1.391 . S
C316 C315 1.386 . S
C316 C320 1.393 . S
C317 H306 0.950 . S
C317 C315 1.391 . S
C317 C318 1.400 . S
C318 C312 1.491 . S
C318 C317 1.400 . S
C318 C319 1.398 . S
C319 H307 0.950 . S
C319 C318 1.398 . S
C319 C320 1.391 . S
C320 H308 0.950 . S
C320 C316 1.393 . S
C320 C319 1.391 . S
H321 C329 0.950 . S
H322 C334 0.950 . S
H323 C331 0.950 . S
H324 C333 0.950 . S
H325 C335 0.950 . S
H326 C337 0.950 . S
H327 C339 0.950 . S
H328 C340 0.950 . S
C329 H321 0.950 . S
C329 C330 1.386 . S
C329 C331 1.391 . S
C330 C329 1.386 . S
C330 C334 1.393 . S
C331 H323 0.950 . S
C331 C329 1.391 . S
C331 C332 1.400 . S
C332 C331 1.400 . S
C332 C333 1.398 . S
C332 C338 1.491 . S
C333 H324 0.950 . S
C333 C332 1.398 . S
C333 C334 1.391 . S
C334 H322 0.950 . S
C334 C330 1.393 . S
C334 C333 1.391 . S
C335 H325 0.950 . S
C335 C336 1.386 . S
C335 C337 1.391 . S
C336 C335 1.386 . S
C336 C340 1.393 . S
C337 H326 0.950 . S
C337 C335 1.391 . S
C337 C338 1.400 . S
C338 C332 1.491 . S
C338 C337 1.400 . S
C338 C339 1.398 . S
C339 H327 0.950 . S
C339 C338 1.398 . S
C339 C340 1.391 . S
C340 H328 0.950 . S
C340 C336 1.393 . S
C340 C339 1.391 . S
H341 C349 0.950 . S
H342 C354 0.950 . S
H343 C351 0.950 . S
H344 C353 0.950 . S
H345 C355 0.950 . S
H346 C357 0.950 . S
H347 C359 0.950 . S
H348 C360 0.950 . S
C349 H341 0.950 . S
C349 C350 1.386 . S
C349 C351 1.391 . S
C350 C349 1.386 . S
C350 C354 1.393 . S
C351 H343 0.950 . S
C351 C349 1.391 . S
C351 C352 1.400 . S
C352 C351 1.400 . S
C352 C353 1.398 . S
C352 C358 1.491 . S
C353 H344 0.950 . S
C353 C352 1.398 . S
C353 C354 1.391 . S
C354 H342 0.950 . S
C354 C350 1.393 . S
C354 C353 1.391 . S
C355 H345 0.950 . S
C355 C356 1.386 . S
C355 C357 1.391 . S
C356 C355 1.386 . S
C356 C360 1.393 . S
C357 H346 0.950 . S
C357 C355 1.391 . S
C357 C358 1.400 . S
C358 C352 1.491 . S
C358 C357 1.400 . S
C358 C359 1.398 . S
C359 H347 0.950 . S
C359 C358 1.398 . S
C359 C360 1.391 . S
C360 H348 0.950 . S
C360 C356 1.393 . S
C360 C359 1.391 . S
H361 C369 0.950 . S
H362 C374 0.950 . S
H363 C371 0.950 . S
H364 C373 0.950 . S
H365 C375 0.950 . S
H366 C377 0.950 . S
H367 C379 0.950 . S
H368 C380 0.950 . S
C369 H361 0.950 . S
C369 C370 1.386 . S
C369 C371 1.391 . S
C370 C369 1.386 . S
C370 C374 1.393 . S
C371 H363 0.950 . S
C371 C369 1.391 . S
C371 C372 1.400 . S
C372 C371 1.400 . S
C372 C373 1.398 . S
C372 C378 1.491 . S
C373 H364 0.950 . S
C373 C372 1.398 . S
C373 C374 1.391 . S
C374 H362 0.950 . S
C374 C370 1.393 . S
C374 C373 1.391 . S
C375 H365 0.950 . S
C375 C376 1.386 . S
C375 C377 1.391 . S
C376 C375 1.386 . S
C376 C380 1.393 . S
C377 H366 0.950 . S
C377 C375 1.391 . S
C377 C378 1.400 . S
C378 C372 1.491 . S
C378 C377 1.400 . S
C378 C379 1.398 . S
C379 H367 0.950 . S
C379 C378 1.398 . S
C379 C380 1.391 . S
C380 H368 0.950 . S
C380 C376 1.393 . S
C380 C379 1.391 . S
H381 C389 0.950 . S
H382 C394 0.950 . S
H383 C391 0.950 . S
H384 C393 0.950 . S
H385 C395 0.950 . S
H386 C397 0.950 . S
H387 C399 0.950 . S
H388 C400 0.950 . S
C389 H381 0.950 . S
C389 C390 1.386 . S
C389 C391 1.391 1_554 S
C390 C389 1.386 . S
C390 C394 1.393 . S
C391 H383 0.950 . S
C391 C389 1.391 1_556 S
C391 C392 1.400 . S
C392 C391 1.400 . S
C392 C393 1.398 . S
C392 C398 1.491 . S
C393 H384 0.950 . S
C393 C392 1.398 . S
C393 C394 1.391 1_556 S
C394 H382 0.950 . S
C394 C390 1.393 . S
C394 C393 1.391 1_554 S
C395 H385 0.950 . S
C395 C396 1.386 . S
C395 C397 1.391 . S
C396 C395 1.386 . S
C396 C400 1.393 . S
C397 H386 0.950 . S
C397 C395 1.391 . S
C397 C398 1.400 . S
C398 C392 1.491 . S
C398 C397 1.400 . S
C398 C399 1.398 . S
C399 H387 0.950 . S
C399 C398 1.398 . S
C399 C400 1.391 . S
C400 H388 0.950 . S
C400 C396 1.393 . S
C400 C399 1.391 . S
H401 C409 0.950 . S
H402 C414 0.950 . S
H403 C411 0.950 . S
H404 C413 0.950 . S
H405 C415 0.950 . S
H406 C417 0.950 . S
H407 C419 0.950 . S
H408 C420 0.950 . S
C409 H401 0.950 . S
C409 C410 1.386 . S
C409 C411 1.391 1_554 S
C410 C409 1.386 . S
C410 C414 1.393 . S
C411 H403 0.950 . S
C411 C409 1.391 1_556 S
C411 C412 1.400 . S
C412 C411 1.400 . S
C412 C413 1.398 1_556 S
C412 C418 1.491 . S
C413 H404 0.950 . S
C413 C412 1.398 1_554 S
C413 C414 1.391 . S
C414 H402 0.950 . S
C414 C410 1.393 . S
C414 C413 1.391 . S
C415 H405 0.950 . S
C415 C416 1.386 . S
C415 C417 1.391 . S
C416 C415 1.386 . S
C416 C420 1.393 . S
C417 H406 0.950 . S
C417 C415 1.391 . S
C417 C418 1.400 . S
C418 C412 1.491 . S
C418 C417 1.400 . S
C418 C419 1.398 . S
C419 H407 0.950 . S
C419 C418 1.398 . S
C419 C420 1.391 . S
C420 H408 0.950 . S
C420 C416 1.393 . S
C420 C419 1.391 . S
H421 C429 0.950 . S
H422 C434 0.950 . S
H423 C431 0.950 . S
H424 C433 0.950 . S
H425 C435 0.950 . S
H426 C437 0.950 . S
H427 C439 0.950 . S
H428 C440 0.950 . S
C429 H421 0.950 . S
C429 C430 1.386 1_554 S
C429 C431 1.391 1_554 S
C430 C429 1.386 1_556 S
C430 C434 1.393 . S
C431 H423 0.950 . S
C431 C429 1.391 1_556 S
C431 C432 1.400 . S
C432 C431 1.400 . S
C432 C433 1.398 . S
C432 C438 1.491 . S
C433 H424 0.950 . S
C433 C432 1.398 . S
C433 C434 1.391 . S
C434 H422 0.950 . S
C434 C430 1.393 . S
C434 C433 1.391 . S
C435 H425 0.950 . S
C435 C436 1.386 . S
C435 C437 1.391 . S
C436 C435 1.386 . S
C436 C440 1.393 . S
C437 H426 0.950 . S
C437 C435 1.391 . S
C437 C438 1.400 . S
C438 C432 1.491 . S
C438 C437 1.400 . S
C438 C439 1.398 . S
C439 H427 0.950 . S
C439 C438 1.398 . S
C439 C440 1.391 . S
C440 H428 0.950 . S
C440 C436 1.393 . S
C440 C439 1.391 . S
H441 C449 0.950 . S
H442 C454 0.950 . S
H443 C451 0.950 . S
H444 C453 0.950 . S
H445 C455 0.950 . S
H446 C457 0.950 . S
H447 C459 0.950 . S
H448 C460 0.950 . S
C449 H441 0.950 . S
C449 C450 1.386 . S
C449 C451 1.391 . S
C450 C449 1.386 . S
C450 C454 1.393 . S
C451 H443 0.950 . S
C451 C449 1.391 . S
C451 C452 1.400 . S
C452 C451 1.400 . S
C452 C453 1.398 . S
C452 C458 1.491 . S
C453 H444 0.950 . S
C453 C452 1.398 . S
C453 C454 1.391 . S
C454 H442 0.950 . S
C454 C450 1.393 . S
C454 C453 1.391 . S
C455 H445 0.950 . S
C455 C456 1.386 . S
C455 C457 1.391 . S
C456 C455 1.386 . S
C456 C460 1.393 . S
C457 H446 0.950 . S
C457 C455 1.391 . S
C457 C458 1.400 . S
C458 C452 1.491 . S
C458 C457 1.400 . S
C458 C459 1.398 . S
C459 H447 0.950 . S
C459 C458 1.398 . S
C459 C460 1.391 . S
C460 H448 0.950 . S
C460 C456 1.393 . S
C460 C459 1.391 . S
H461 C469 0.950 . S
H462 C474 0.950 . S
H463 C471 0.950 1_554 S
H464 C473 0.950 . S
H465 C475 0.950 . S
H466 C477 0.950 . S
H467 C479 0.950 . S
H468 C480 0.950 . S
C469 H461 0.950 . S
C469 C470 1.386 1_554 S
C469 C471 1.391 1_554 S
C470 C469 1.386 1_556 S
C470 C474 1.393 . S
C471 H463 0.950 1_556 S
C471 C469 1.391 1_556 S
C471 C472 1.400 . S
C472 C471 1.400 . S
C472 C473 1.398 . S
C472 C478 1.491 . S
C473 H464 0.950 . S
C473 C472 1.398 . S
C473 C474 1.391 . S
C474 H462 0.950 . S
C474 C470 1.393 . S
C474 C473 1.391 . S
C475 H465 0.950 . S
C475 C476 1.386 . S
C475 C477 1.391 . S
C476 C475 1.386 . S
C476 C480 1.393 . S
C477 H466 0.950 . S
C477 C475 1.391 . S
C477 C478 1.400 . S
C478 C472 1.491 . S
C478 C477 1.400 . S
C478 C479 1.398 . S
C479 H467 0.950 . S
C479 C478 1.398 . S
C479 C480 1.391 . S
C480 H468 0.950 . S
C480 C476 1.393 . S
C480 C479 1.391 . S
H481 C489 0.950 . S
H482 C494 0.950 . S
H483 C491 0.950 . S
H484 C493 0.950 . S
H485 C495 0.950 . S
H486 C497 0.950 . S
H487 C499 0.950 . S
H488 C500 0.950 . S
C489 H481 0.950 . S
C489 C490 1.386 1_556 S
C489 C491 1.391 . S
C490 C489 1.386 1_554 S
C490 C494 1.393 . S
C491 H483 0.950 . S
C491 C489 1.391 . S
C491 C492 1.400 . S
C492 C491 1.400 . S
C492 C493 1.398 1_556 S
C492 C498 1.491 . S
C493 H484 0.950 . S
C493 C492 1.398 1_554 S
C493 C494 1.391 . S
C494 H482 0.950 . S
C494 C490 1.393 . S
C494 C493 1.391 . S
C495 H485 0.950 . S
C495 C496 1.386 . S
C495 C497 1.391 . S
C496 C495 1.386 . S
C496 C500 1.393 . S
C497 H486 0.950 . S
C497 C495 1.391 . S
C497 C498 1.400 . S
C498 C492 1.491 . S
C498 C497 1.400 . S
C498 C499 1.398 . S
C499 H487 0.950 . S
C499 C498 1.398 . S
C499 C500 1.391 . S
C500 H488 0.950 . S
C500 C496 1.393 . S
C500 C499 1.391 . S
H501 C509 0.950 . S
H502 C514 0.950 . S
H503 C511 0.950 . S
H504 C513 0.950 . S
H505 C515 0.950 . S
H506 C517 0.950 . S
H507 C519 0.950 . S
H508 C520 0.950 . S
C509 H501 0.950 . S
C509 C510 1.386 . S
C509 C511 1.391 . S
C510 C509 1.386 . S
C510 C514 1.393 1_554 S
C511 H503 0.950 . S
C511 C509 1.391 . S
C511 C512 1.400 1_554 S
C512 C511 1.400 1_556 S
C512 C513 1.398 . S
C512 C518 1.491 . S
C513 H504 0.950 . S
C513 C512 1.398 . S
C513 C514 1.391 . S
C514 H502 0.950 . S
C514 C510 1.393 1_556 S
C514 C513 1.391 . S
C515 H505 0.950 . S
C515 C516 1.386 . S
C515 C517 1.391 . S
C516 C515 1.386 . S
C516 C520 1.393 . S
C517 H506 0.950 . S
C517 C515 1.391 . S
C517 C518 1.400 . S
C518 C512 1.491 . S
C518 C517 1.400 . S
C518 C519 1.398 . S
C519 H507 0.950 . S
C519 C518 1.398 . S
C519 C520 1.391 . S
C520 H508 0.950 . S
C520 C516 1.393 . S
C520 C519 1.391 . S
H521 C529 0.950 . S
H522 C534 0.950 1_554 S
H523 C531 0.950 . S
H524 C533 0.950 . S
H525 C535 0.950 . S
H526 C537 0.950 . S
H527 C539 0.950 . S
H528 C540 0.950 . S
C529 H521 0.950 . S
C529 C530 1.386 . S
C529 C531 1.391 . S
C530 C529 1.386 . S
C530 C534 1.393 . S
C531 H523 0.950 . S
C531 C529 1.391 . S
C531 C532 1.400 . S
C532 C531 1.400 . S
C532 C533 1.398 . S
C532 C538 1.491 . S
C533 H524 0.950 . S
C533 C532 1.398 . S
C533 C534 1.391 . S
C534 H522 0.950 1_556 S
C534 C530 1.393 . S
C534 C533 1.391 . S
C535 H525 0.950 . S
C535 C536 1.386 . S
C535 C537 1.391 . S
C536 C535 1.386 . S
C536 C540 1.393 . S
C537 H526 0.950 . S
C537 C535 1.391 . S
C537 C538 1.400 . S
C538 C532 1.491 . S
C538 C537 1.400 . S
C538 C539 1.398 . S
C539 H527 0.950 . S
C539 C538 1.398 . S
C539 C540 1.391 . S
C540 H528 0.950 . S
C540 C536 1.393 . S
C540 C539 1.391 . S
H541 C549 0.950 . S
H542 C554 0.950 . S
H543 C551 0.950 . S
H544 C553 0.950 . S
H545 C555 0.950 . S
H546 C557 0.950 . S
H547 C559 0.950 . S
H548 C560 0.950 . S
C549 H541 0.950 . S
C549 C550 1.386 . S
C549 C551 1.391 . S
C550 C549 1.386 . S
C550 C554 1.393 . S
C551 H543 0.950 . S
C551 C549 1.391 . S
C551 C552 1.400 . S
C552 C551 1.400 . S
C552 C553 1.398 . S
C552 C558 1.491 . S
C553 H544 0.950 . S
C553 C552 1.398 . S
C553 C554 1.391 . S
C554 H542 0.950 . S
C554 C550 1.393 . S
C554 C553 1.391 . S
C555 H545 0.950 . S
C555 C556 1.386 . S
C555 C557 1.391 . S
C556 C555 1.386 . S
C556 C560 1.393 . S
C557 H546 0.950 . S
C557 C555 1.391 . S
C557 C558 1.400 . S
C558 C552 1.491 . S
C558 C557 1.400 . S
C558 C559 1.398 . S
C559 H547 0.950 . S
C559 C558 1.398 . S
C559 C560 1.391 . S
C560 H548 0.950 . S
C560 C556 1.393 . S
C560 C559 1.391 . S
H561 C569 0.950 . S
H562 C574 0.950 . S
H563 C571 0.950 . S
H564 C573 0.950 . S
H565 C575 0.950 . S
H566 C577 0.950 . S
H567 C579 0.950 . S
H568 C580 0.950 . S
C569 H561 0.950 . S
C569 C570 1.386 . S
C569 C571 1.391 . S
C570 C569 1.386 . S
C570 C574 1.393 . S
C571 H563 0.950 . S
C571 C569 1.391 . S
C571 C572 1.400 . S
C572 C571 1.400 . S
C572 C573 1.398 . S
C572 C578 1.491 . S
C573 H564 0.950 . S
C573 C572 1.398 . S
C573 C574 1.391 . S
C574 H562 0.950 . S
C574 C570 1.393 . S
C574 C573 1.391 . S
C575 H565 0.950 . S
C575 C576 1.386 . S
C575 C577 1.391 . S
C576 C575 1.386 . S
C576 C580 1.393 . S
C577 H566 0.950 . S
C577 C575 1.391 . S
C577 C578 1.400 . S
C578 C572 1.491 . S
C578 C577 1.400 . S
C578 C579 1.398 . S
C579 H567 0.950 . S
C579 C578 1.398 . S
C579 C580 1.391 . S
C580 H568 0.950 . S
C580 C576 1.393 . S
C580 C579 1.391 . S
H581 C589 0.950 . S
H582 C594 0.950 . S
H583 C591 0.950 . S
H584 C593 0.950 . S
H585 C595 0.950 . S
H586 C597 0.950 . S
H587 C599 0.950 . S
H588 C600 0.950 . S
C589 H581 0.950 . S
C589 C590 1.386 . S
C589 C591 1.391 . S
C590 C589 1.386 . S
C590 C594 1.393 . S
C591 H583 0.950 . S
C591 C589 1.391 . S
C591 C592 1.400 . S
C592 C591 1.400 . S
C592 C593 1.398 . S
C592 C598 1.491 . S
C593 H584 0.950 . S
C593 C592 1.398 . S
C593 C594 1.391 . S
C594 H582 0.950 . S
C594 C590 1.393 . S
C594 C593 1.391 . S
C595 H585 0.950 . S
C595 C596 1.386 . S
C595 C597 1.391 . S
C596 C595 1.386 . S
C596 C600 1.393 . S
C597 H586 0.950 . S
C597 C595 1.391 . S
C597 C598 1.400 . S
C598 C592 1.491 . S
C598 C597 1.400 . S
C598 C599 1.398 . S
C599 H587 0.950 . S
C599 C598 1.398 . S
C599 C600 1.391 . S
C600 H588 0.950 . S
C600 C596 1.393 . S
C600 C599 1.391 . S
H601 C609 0.950 . S
H602 C614 0.950 . S
H603 C611 0.950 . S
H604 C613 0.950 . S
H605 C615 0.950 . S
H606 C617 0.950 . S
H607 C619 0.950 . S
H608 C620 0.950 . S
C609 H601 0.950 . S
C609 C610 1.386 . S
C609 C611 1.391 . S
C610 C609 1.386 . S
C610 C614 1.393 . S
C611 H603 0.950 . S
C611 C609 1.391 . S
C611 C612 1.400 . S
C612 C611 1.400 . S
C612 C613 1.398 . S
C612 C618 1.491 . S
C613 H604 0.950 . S
C613 C612 1.398 . S
C613 C614 1.391 . S
C614 H602 0.950 . S
C614 C610 1.393 . S
C614 C613 1.391 . S
C615 H605 0.950 . S
C615 C616 1.386 . S
C615 C617 1.391 . S
C616 C615 1.386 . S
C616 C620 1.393 . S
C617 H606 0.950 . S
C617 C615 1.391 . S
C617 C618 1.400 . S
C618 C612 1.491 . S
C618 C617 1.400 . S
C618 C619 1.398 . S
C619 H607 0.950 . S
C619 C618 1.398 . S
C619 C620 1.391 . S
C620 H608 0.950 . S
C620 C616 1.393 . S
C620 C619 1.391 . S
H621 C629 0.950 . S
H622 C634 0.950 . S
H623 C631 0.950 . S
H624 C633 0.950 . S
H625 C635 0.950 . S
H626 C637 0.950 . S
H627 C639 0.950 . S
H628 C640 0.950 . S
C629 H621 0.950 . S
C629 C630 1.386 . S
C629 C631 1.391 . S
C630 C629 1.386 . S
C630 C634 1.393 . S
C631 H623 0.950 . S
C631 C629 1.391 . S
C631 C632 1.400 . S
C632 C631 1.400 . S
C632 C633 1.398 . S
C632 C638 1.491 . S
C633 H624 0.950 . S
C633 C632 1.398 . S
C633 C634 1.391 . S
C634 H622 0.950 . S
C634 C630 1.393 . S
C634 C633 1.391 . S
C635 H625 0.950 . S
C635 C636 1.386 . S
C635 C637 1.391 . S
C636 C635 1.386 . S
C636 C640 1.393 . S
C637 H626 0.950 . S
C637 C635 1.391 . S
C637 C638 1.400 . S
C638 C632 1.491 . S
C638 C637 1.400 . S
C638 C639 1.398 . S
C639 H627 0.950 . S
C639 C638 1.398 . S
C639 C640 1.391 . S
C640 H628 0.950 . S
C640 C636 1.393 . S
C640 C639 1.391 . S
H641 C649 0.950 . S
H642 C654 0.950 . S
H643 C651 0.950 . S
H644 C653 0.950 . S
H645 C655 0.950 . S
H646 C657 0.950 . S
H647 C659 0.950 . S
H648 C660 0.950 . S
C649 H641 0.950 . S
C649 C650 1.386 . S
C649 C651 1.391 . S
C650 C649 1.386 . S
C650 C654 1.393 . S
C651 H643 0.950 . S
C651 C649 1.391 . S
C651 C652 1.400 . S
C652 C651 1.400 . S
C652 C653 1.398 . S
C652 C658 1.491 . S
C653 H644 0.950 . S
C653 C652 1.398 . S
C653 C654 1.391 . S
C654 H642 0.950 . S
C654 C650 1.393 . S
C654 C653 1.391 . S
C655 H645 0.950 . S
C655 C656 1.386 . S
C655 C657 1.391 . S
C656 C655 1.386 . S
C656 C660 1.393 . S
C657 H646 0.950 . S
C657 C655 1.391 . S
C657 C658 1.400 . S
C658 C652 1.491 . S
C658 C657 1.400 . S
C658 C659 1.398 . S
C659 H647 0.950 . S
C659 C658 1.398 . S
C659 C660 1.391 . S
C660 H648 0.950 . S
C660 C656 1.393 . S
C660 C659 1.391 . S
H661 C669 0.950 . S
H662 C674 0.950 . S
H663 C671 0.950 . S
H664 C673 0.950 . S
H665 C675 0.950 . S
H666 C677 0.950 . S
H667 C679 0.950 . S
H668 C680 0.950 . S
C669 H661 0.950 . S
C669 C670 1.386 . S
C669 C671 1.391 . S
C670 C669 1.386 . S
C670 C674 1.393 . S
C671 H663 0.950 . S
C671 C669 1.391 . S
C671 C672 1.400 . S
C672 C671 1.400 . S
C672 C673 1.398 . S
C672 C678 1.491 . S
C673 H664 0.950 . S
C673 C672 1.398 . S
C673 C674 1.391 . S
C674 H662 0.950 . S
C674 C670 1.393 . S
C674 C673 1.391 . S
C675 H665 0.950 . S
C675 C676 1.386 . S
C675 C677 1.391 . S
C676 C675 1.386 . S
C676 C680 1.393 . S
C677 H666 0.950 . S
C677 C675 1.391 . S
C677 C678 1.400 . S
C678 C672 1.491 . S
C678 C677 1.400 . S
C678 C679 1.398 . S
C679 H667 0.950 . S
C679 C678 1.398 . S
C679 C680 1.391 . S
C680 H668 0.950 . S
C680 C676 1.393 . S
C680 C679 1.391 . S
C210 C16 1.734 . S
C216 C108 1.756 . S
C230 C26 1.520 . S
C236 C140 1.566 . S
C256 C199 1.887 . S
C250 C52 1.885 . S
C276 C128 1.442 . S
C270 C62 1.429 . S
C290 C80 1.666 . S
C296 C158 1.611 . S
C316 C180 1.313 . S
C310 C98 1.262 . S
C336 C149 1.753 . S
C330 C43 1.677 . S
C350 C68 1.350 . S
C356 C189 1.355 . S
C376 C138 1.611 . S
C370 C86 1.620 1_556 S
C390 C104 1.531 . S
C396 C168 1.516 . S
C410 C7 1.819 . S
C416 C171 1.818 . S
C436 C110 1.641 . S
C430 C32 1.619 1_556 S
C456 C118 1.650 . S
C450 C61 1.639 . S
C476 C159 1.511 . S
C470 C79 1.509 1_556 S
C496 C172 1.893 . S
C490 C97 1.896 . S
C516 C109 1.437 . S
C510 C14 1.444 . S
C536 C169 1.564 . S
C530 C25 1.572 1_556 S
C550 C50 1.269 . S
C556 C170 1.255 . S
C576 C139 1.647 . S
C570 C106 1.668 . S
C596 C200 1.266 . S
C590 C8 1.233 . S
C616 C127 1.539 . S
C610 C34 1.596 . S
C636 C141 1.526 . S
C630 C44 1.533 . S
C650 C70 1.812 . S
C656 C190 1.780 . S
C670 C88 1.598 . S
C676 C137 1.604 . S
