# Generated by pormake.
# Topology anh, (6,3)-cn, num edge types: 1
# Building blocks:
#     Node 0, Type 0, BuildingBlock: HISSIN_clean_sbu_0, # of connection points: 6
#     Node 1, Type 0, BuildingBlock: HISSIN_clean_sbu_0, # of connection points: 6
#     Node 2, Type 0, BuildingBlock: HISSIN_clean_sbu_0, # of connection points: 6
#     Node 3, Type 1, BuildingBlock: BELTOD_clean_linker_0, # of connection points: 3
#     Node 4, Type 1, BuildingBlock: BELTOD_clean_linker_0, # of connection points: 3
#     Node 5, Type 1, BuildingBlock: BELTOD_clean_linker_0, # of connection points: 3
#     Node 6, Type 1, BuildingBlock: BELTOD_clean_linker_0, # of connection points: 3
#     Node 7, Type 1, BuildingBlock: BELTOD_clean_linker_0, # of connection points: 3
#     Node 8, Type 1, BuildingBlock: BELTOD_clean_linker_0, # of connection points: 3
#     Edge 9, Type (0, 1), BuildingBlock: ZUJKAS_clean_linker_0, # of connection points: 2
#     Edge 10, Type (0, 1), BuildingBlock: ZUJKAS_clean_linker_0, # of connection points: 2
#     Edge 11, Type (0, 1), BuildingBlock: ZUJKAS_clean_linker_0, # of connection points: 2
#     Edge 12, Type (0, 1), BuildingBlock: ZUJKAS_clean_linker_0, # of connection points: 2
#     Edge 13, Type (0, 1), BuildingBlock: ZUJKAS_clean_linker_0, # of connection points: 2
#     Edge 14, Type (0, 1), BuildingBlock: ZUJKAS_clean_linker_0, # of connection points: 2
#     Edge 15, Type (0, 1), BuildingBlock: ZUJKAS_clean_linker_0, # of connection points: 2
#     Edge 16, Type (0, 1), BuildingBlock: ZUJKAS_clean_linker_0, # of connection points: 2
#     Edge 17, Type (0, 1), BuildingBlock: ZUJKAS_clean_linker_0, # of connection points: 2
#     Edge 18, Type (0, 1), BuildingBlock: ZUJKAS_clean_linker_0, # of connection points: 2
#     Edge 19, Type (0, 1), BuildingBlock: ZUJKAS_clean_linker_0, # of connection points: 2
#     Edge 20, Type (0, 1), BuildingBlock: ZUJKAS_clean_linker_0, # of connection points: 2
#     Edge 21, Type (0, 1), BuildingBlock: ZUJKAS_clean_linker_0, # of connection points: 2
#     Edge 22, Type (0, 1), BuildingBlock: ZUJKAS_clean_linker_0, # of connection points: 2
#     Edge 23, Type (0, 1), BuildingBlock: ZUJKAS_clean_linker_0, # of connection points: 2
#     Edge 24, Type (0, 1), BuildingBlock: ZUJKAS_clean_linker_0, # of connection points: 2
#     Edge 25, Type (0, 1), BuildingBlock: ZUJKAS_clean_linker_0, # of connection points: 2
#     Edge 26, Type (0, 1), BuildingBlock: ZUJKAS_clean_linker_0, # of connection points: 2
# Relax obj value: 0.199
# Max RMSD: 0.177
# Mean RMSD: 0.141
data_MOF--net-anh--node1-HISSIN_clean_sbu_0--node2-BELTOD_clean_linker_0--edge1-ZUJKAS_clean_linker_0
_symmetry_space_group_name_H-M    P1
_symmetry_Int_Tables_number       1
_symmetry_cell_setting            triclinic
loop_
_symmetry_equiv_pos_as_xyz
'x, y, z'
_cell_length_a     43.333033
_cell_length_b     43.244661
_cell_length_c     76.354936
_cell_angle_alpha  93.549264
_cell_angle_beta   89.519248
_cell_angle_gamma 120.03359
loop_
_atom_site_label
_atom_site_type_symbol
_atom_site_fract_x
_atom_site_fract_y
_atom_site_fract_z
_atom_type_partial_charge
Eu0 Eu 1.03429 0.53791 0.16119 0.0
Eu1 Eu 0.07379 0.62366 0.17089 0.0
C2 C 1.042 0.56879 0.20194 0.0
C3 C 0.96015 0.44284 0.15097 0.0
C4 C 0.93717 0.44521 0.16334 0.0
C5 C 0.90993 0.39047 0.13657 0.0
C6 C 0.90084 0.41992 0.16252 0.0
C7 C 0.9463 0.4156 0.1375 0.0
C8 C 0.88682 0.39209 0.14919 0.0
C9 C 0.99808 0.46998 0.15124 0.0
O10 O 0.11877 0.61165 0.16465 0.0
O11 O 0.09059 0.55135 0.16826 0.0
C12 C 0.12 0.58207 0.16638 0.0
O13 O 0.06822 0.56443 0.13815 0.0
O14 O 0.1141 0.67258 0.18511 0.0
O15 O 0.08122 0.67566 0.16494 0.0
O16 O 1.06349 0.61422 0.14176 0.0
C17 C 0.07096 0.59317 0.13192 0.0
O18 O 0.99274 0.55435 0.15653 0.0
O19 O 1.01518 0.60595 0.17426 0.0
O20 O 1.06468 0.6012 0.19742 0.0
O21 O 1.00647 0.49542 0.14069 0.0
O22 O 1.01394 0.48211 0.16663 0.0
O23 O 1.02428 0.54186 0.19021 0.0
C24 C 0.14215 0.7178 0.16577 0.0
C25 C 0.15583 0.70366 0.15293 0.0
C26 C 0.19388 0.77657 0.16331 0.0
C27 C 0.18892 0.72549 0.1458 0.0
C28 C 0.16082 0.75449 0.17062 0.0
C29 C 0.20889 0.76206 0.15125 0.0
C30 C 0.10995 0.69331 0.17485 0.0
C31 C 0.98861 0.57956 0.16491 0.0
H32 H 0.94734 0.46653 0.17366 0.0
H33 H 0.89993 0.36976 0.12597 0.0
H34 H 0.88393 0.4217 0.17258 0.0
H35 H 0.96361 0.41388 0.12764 0.0
H36 H 0.14161 0.67531 0.14898 0.0
H37 H 0.20823 0.80474 0.16757 0.0
H38 H 0.19962 0.7131 0.13679 0.0
H39 H 0.15043 0.76581 0.18044 0.0
Eu40 Eu 0.55908 1.01208 0.49924 0.0
Eu41 Eu 0.51219 0.05197 0.50136 0.0
C42 C 0.53297 1.02648 0.53651 0.0
C43 C 0.59862 0.94878 0.49965 0.0
C44 C 0.58692 0.93269 0.51563 0.0
C45 C 0.62039 0.90813 0.49169 0.0
C46 C 0.59275 0.90492 0.51977 0.0
C47 C 0.61458 0.93577 0.48757 0.0
C48 C 0.61041 0.89306 0.50801 0.0
C49 C 0.59707 0.98071 0.49567 0.0
O50 O 0.56808 0.09553 0.49488 0.0
O51 O 0.59992 0.07114 0.50526 0.0
C52 C 0.59871 0.09881 0.49974 0.0
O53 O 0.56488 1.0369 0.47368 0.0
O54 O 0.49904 0.08939 0.51518 0.0
O55 O 0.47388 0.0644 0.48995 0.0
O56 O 0.51065 1.0329 0.47299 0.0
C57 C 0.53841 1.03533 0.46485 0.0
O58 O 0.50135 0.96753 0.49344 0.0
O59 O 0.47024 0.9942 0.50461 0.0
O60 O 0.52756 0.05049 0.52952 0.0
O61 O 0.57306 0.97649 0.48411 0.0
O62 O 0.60105 1.00334 0.5088 0.0
O63 O 0.5392 1.00429 0.52674 0.0
C64 C 0.49505 0.12621 0.4954 0.0
C65 C 0.51756 0.13638 0.48095 0.0
C66 C 0.51249 0.18841 0.50229 0.0
C67 C 0.53818 0.1724 0.47753 0.0
C68 C 0.49168 0.1523 0.50565 0.0
C69 C 0.53704 0.19895 0.48862 0.0
C70 C 0.48117 0.09034 0.50179 0.0
C71 C 0.47107 0.96555 0.49831 0.0
H72 H 0.57439 0.94232 0.5251 0.0
H73 H 0.63351 0.89911 0.48226 0.0
H74 H 0.58492 0.89389 0.53248 0.0
H75 H 0.62359 0.9478 0.47515 0.0
H76 H 0.52098 0.11677 0.47295 0.0
H77 H 0.5112 0.20816 0.51123 0.0
H78 H 0.55645 0.17958 0.46676 0.0
H79 H 0.47487 0.14503 0.517 0.0
Eu80 Eu 0.51403 0.50503 0.83159 0.0
Eu81 Eu 0.59757 0.54984 0.84374 0.0
C82 C 0.53726 0.52387 0.87182 0.0
C83 C 0.43102 0.4919 0.81134 0.0
C84 C 0.45223 0.52693 0.80623 0.0
C85 C 0.37804 0.49412 0.80367 0.0
C86 C 0.43654 0.546 0.8006 0.0
C87 C 0.39388 0.47516 0.80957 0.0
C88 C 0.3992 0.53028 0.79979 0.0
C89 C 0.44804 0.47521 0.8204 0.0
O90 O 0.58404 0.49146 0.84419 0.0
O91 O 0.52877 0.46163 0.83024 0.0
C92 C 0.55684 0.46185 0.83689 0.0
O93 O 0.54664 0.5289 0.80762 0.0
O94 O 0.63799 0.56257 0.86405 0.0
O95 O 0.65258 0.59121 0.8402 0.0
O96 O 0.59676 0.52887 0.81623 0.0
C97 C 0.57642 0.52925 0.80381 0.0
O98 O 0.52579 0.56235 0.83637 0.0
O99 O 0.58634 0.59191 0.83359 0.0
O100 O 0.56497 0.55217 0.86622 0.0
O101 O 0.47265 0.47242 0.81168 0.0
O102 O 0.45831 0.48791 0.83656 0.0
O103 O 0.51661 0.49723 0.86058 0.0
C104 C 0.6962 0.58329 0.85411 0.0
C105 C 0.69876 0.55845 0.84235 0.0
C106 C 0.7564 0.60471 0.86478 0.0
C107 C 0.73028 0.55693 0.84175 0.0
C108 C 0.72507 0.60627 0.86531 0.0
C109 C 0.7594 0.58005 0.85301 0.0
C110 C 0.66384 0.58593 0.85491 0.0
C111 C 0.55593 0.59193 0.83389 0.0
H112 H 0.48102 0.54028 0.80753 0.0
H113 H 0.34923 0.48097 0.80291 0.0
H114 H 0.45383 0.57384 0.79805 0.0
H115 H 0.37716 0.44808 0.81343 0.0
H116 H 0.6765 0.54041 0.83364 0.0
H117 H 0.77857 0.62335 0.87337 0.0
H118 H 0.7318 0.53759 0.83262 0.0
H119 H 0.72346 0.62564 0.87442 0.0
P120 P 0.63594 0.98149 0.22845 0.0
H121 H 0.63901 0.94425 0.19608 0.0
H122 H 0.59224 0.90212 0.17499 0.0
H123 H 0.51215 0.89516 0.21116 0.0
H124 H 0.55857 0.93738 0.23185 0.0
H125 H 0.69877 1.03902 0.21254 0.0
H126 H 0.70716 0.08973 0.1965 0.0
H127 H 0.59555 0.0562 0.202 0.0
H128 H 0.58757 1.0059 0.21834 0.0
H129 H 0.60199 0.93046 0.25554 0.0
H130 H 0.6417 1.04282 0.25004 0.0
O131 O 0.67329 0.97938 0.22943 0.0
H132 H 0.58111 0.93594 0.28488 0.0
H133 H 0.62136 0.04851 0.2792 0.0
C134 C 0.6023 0.94315 0.21574 0.0
C135 C 0.61136 0.93257 0.1997 0.0
C136 C 0.58469 0.90878 0.18762 0.0
C137 C 0.54861 0.89519 0.1915 0.0
C138 C 0.53972 0.90454 0.20796 0.0
C139 C 0.56633 0.92864 0.21988 0.0
C140 C 0.64259 1.01882 0.21658 0.0
C141 C 0.67614 1.04256 0.21026 0.0
C142 C 0.68078 0.07135 0.20098 0.0
C143 C 0.6519 0.07678 0.19787 0.0
C144 C 0.6183 0.05282 0.20426 0.0
C145 C 0.6137 1.02403 0.21351 0.0
C146 C 0.62236 0.9859 0.25038 0.0
C147 C 0.60616 0.95625 0.26063 0.0
C148 C 0.5944 0.95946 0.2774 0.0
C149 C 0.59906 0.99255 0.28423 0.0
C150 C 0.61648 1.02245 0.27412 0.0
C151 C 0.62823 1.0192 0.25741 0.0
P152 P 0.82138 0.63814 0.59064 0.0
H153 H 0.83291 0.6326 0.55319 0.0
H154 H 0.81559 0.58094 0.53237 0.0
H155 H 0.78221 0.51177 0.5755 0.0
H156 H 0.8006 0.56348 0.59615 0.0
H157 H 0.84008 0.71338 0.59061 0.0
H158 H 0.80923 0.74213 0.5785 0.0
H159 H 0.72712 0.63937 0.5561 0.0
H160 H 0.75783 0.61095 0.56822 0.0
H161 H 0.83995 0.65997 0.62804 0.0
H162 H 0.74788 0.58368 0.59651 0.0
O163 O 0.86449 0.66651 0.59529 0.0
H164 H 0.80413 0.64288 0.65443 0.0
H165 H 0.71209 0.56636 0.62274 0.0
C166 C 0.81677 0.60161 0.57612 0.0
C167 C 0.82256 0.60635 0.55815 0.0
C168 C 0.81252 0.57682 0.54627 0.0
C169 C 0.79683 0.54214 0.55223 0.0
C170 C 0.79423 0.53806 0.57043 0.0
C171 C 0.80437 0.56763 0.58228 0.0
C172 C 0.80159 0.6602 0.58003 0.0
C173 C 0.81578 0.69721 0.58284 0.0
C174 C 0.79813 0.71356 0.57593 0.0
C175 C 0.76575 0.69293 0.56639 0.0
C176 C 0.75183 0.65587 0.56354 0.0
C177 C 0.76955 0.63967 0.57034 0.0
C178 C 0.79668 0.62278 0.61036 0.0
C179 C 0.81221 0.63916 0.62683 0.0
C180 C 0.79171 0.62937 0.64189 0.0
C181 C 0.75525 0.60336 0.64065 0.0
C182 C 0.73997 0.5868 0.62411 0.0
C183 C 0.76049 0.5965 0.60912 0.0
P184 P 0.23048 0.78227 0.91269 0.0
H185 H 0.25603 0.80396 0.87784 0.0
H186 H 0.28798 0.78574 0.85698 0.0
H187 H 0.3068 0.73119 0.89753 0.0
H188 H 0.27406 0.74863 0.91808 0.0
H189 H 0.16605 0.78724 0.91599 0.0
H190 H 0.10589 0.75087 0.90295 0.0
H191 H 0.14002 0.68598 0.87281 0.0
H192 H 0.19972 0.72197 0.88595 0.0
H193 H 0.25524 0.81519 0.94833 0.0
H194 H 0.19487 0.70887 0.92331 0.0
O195 O 0.24274 0.82554 0.91526 0.0
H196 H 0.24437 0.79 0.97707 0.0
H197 H 0.18301 0.68354 0.9519 0.0
C198 C 0.26237 0.77734 0.89941 0.0
C199 C 0.26789 0.78888 0.88232 0.0
C200 C 0.28621 0.77849 0.87043 0.0
C201 C 0.2994 0.7565 0.87553 0.0
C202 C 0.29624 0.74746 0.8931 0.0
C203 C 0.27768 0.75762 0.90493 0.0
C204 C 0.1876 0.75799 0.9016 0.0
C205 C 0.16068 0.76554 0.90637 0.0
C206 C 0.12632 0.74459 0.89903 0.0
C207 C 0.1184 0.71571 0.88682 0.0
C208 C 0.14554 0.70841 0.88197 0.0
C209 C 0.17975 0.72913 0.88944 0.0
C210 C 0.22537 0.76392 0.93375 0.0
C211 C 0.2397 0.78643 0.94902 0.0
C212 C 0.23331 0.77198 0.96544 0.0
C213 C 0.21252 0.73474 0.96682 0.0
C214 C 0.19936 0.71227 0.95135 0.0
C215 C 0.20584 0.72675 0.93498 0.0
P216 P 1.04161 0.51343 0.4482 0.0
H217 H 0.10239 0.53506 0.47262 0.0
H218 H 0.15449 0.59265 0.48135 0.0
H219 H 0.10842 0.64654 0.45544 0.0
H220 H 1.05593 0.5887 0.44699 0.0
H221 H 1.01695 0.48468 0.48283 0.0
H222 H 0.95976 0.4364 0.4925 0.0
H223 H 0.91122 0.43124 0.44249 0.0
H224 H 0.96779 0.47885 0.433 0.0
H225 H 1.01002 0.54735 0.42775 0.0
H226 H 1.06712 0.49061 0.41698 0.0
O227 O 1.05932 0.48709 0.44958 0.0
H228 H 1.00679 0.55384 0.39624 0.0
H229 H 1.0634 0.49646 0.38569 0.0
C230 C 0.07484 0.55685 0.45884 0.0
C231 C 0.10293 0.55914 0.46902 0.0
C232 C 0.13323 0.59239 0.47387 0.0
C233 C 0.13651 0.62471 0.46881 0.0
C234 C 0.10726 0.62251 0.45961 0.0
C235 C 0.07692 0.58911 0.4547 0.0
C236 C 0.99717 0.48666 0.45728 0.0
C237 C 0.99373 0.47406 0.47415 0.0
C238 C 0.96094 0.44585 0.47958 0.0
C239 C 0.93044 0.42936 0.4683 0.0
C240 C 0.93364 0.44324 0.45173 0.0
C241 C 0.96643 0.47107 0.44628 0.0
C242 C 1.03891 0.51859 0.42489 0.0
C243 C 1.02218 0.53661 0.41869 0.0
C244 C 1.02023 0.5402 0.40064 0.0
C245 C 1.03468 0.52551 0.38841 0.0
C246 C 1.05152 0.50764 0.3947 0.0
C247 C 1.05376 0.5044 0.4127 0.0
P248 P 0.58392 1.03664 0.7853 0.0
H249 H 0.61943 0.09341 0.81352 0.0
H250 H 0.61242 0.1441 0.82359 0.0
H251 H 0.5162 0.10074 0.79151 0.0
H252 H 0.52264 0.04919 0.78223 0.0
H253 H 0.62207 1.01691 0.80976 0.0
H254 H 0.61366 0.95989 0.81813 0.0
H255 H 0.51188 0.90492 0.79028 0.0
H256 H 0.51998 0.96276 0.78261 0.0
H257 H 0.5814 0.08509 0.761 0.0
H258 H 0.5638 0.97753 0.75771 0.0
O259 O 0.62841 0.05912 0.7851 0.0
H260 H 0.57023 0.08072 0.72958 0.0
H261 H 0.55125 0.97245 0.72633 0.0
C262 C 0.57191 0.06743 0.79685 0.0
C263 C 0.59626 0.09424 0.80899 0.0
C264 C 0.5925 0.1238 0.81453 0.0
C265 C 0.56429 0.1277 0.80804 0.0
C266 C 0.53839 0.09925 0.7969 0.0
C267 C 0.542 0.06943 0.79154 0.0
C268 C 0.57213 0.99449 0.79512 0.0
C269 C 0.59757 0.99273 0.80566 0.0
C270 C 0.5929 0.95971 0.81027 0.0
C271 C 0.56258 0.92706 0.80445 0.0
C272 C 0.53577 0.9291 0.795 0.0
C273 C 0.54036 0.96238 0.79055 0.0
C274 C 0.57119 1.03085 0.76217 0.0
C275 C 0.57368 0.05991 0.75371 0.0
C276 C 0.56742 0.05744 0.73559 0.0
C277 C 0.55915 1.02598 0.72531 0.0
C278 C 0.5574 0.9971 0.73375 0.0
C279 C 0.56385 0.99971 0.75191 0.0
P280 P 0.52751 0.53033 0.12172 0.0
H281 H 0.55663 0.48544 0.13116 0.0
H282 H 0.61565 0.49633 0.13827 0.0
H283 H 0.65775 0.61003 0.13624 0.0
H284 H 0.59721 0.59873 0.1295 0.0
H285 H 0.49098 0.52532 0.15493 0.0
H286 H 0.44416 0.53889 0.16322 0.0
H287 H 0.46109 0.59459 0.11594 0.0
H288 H 0.50827 0.58154 0.10796 0.0
H289 H 0.58268 0.57111 0.0959 0.0
H290 H 0.47117 0.49096 0.09521 0.0
O291 O 0.50064 0.48748 0.12575 0.0
H292 H 0.58093 0.56993 0.06384 0.0
H293 H 0.46933 0.48901 0.06324 0.0
C294 C 0.57176 0.54122 0.13001 0.0
C295 C 0.57814 0.51294 0.13255 0.0
C296 C 0.61246 0.5192 0.1364 0.0
C297 C 0.64217 0.55409 0.13761 0.0
C298 C 0.63576 0.58273 0.13553 0.0
C299 C 0.601 0.57635 0.1317 0.0
C300 C 0.50359 0.55235 0.1308 0.0
C301 C 0.48555 0.54155 0.14662 0.0
C302 C 0.45813 0.54881 0.1512 0.0
C303 C 0.44789 0.56726 0.14012 0.0
C304 C 0.46791 0.58038 0.12491 0.0
C305 C 0.49526 0.57298 0.12032 0.0
C306 C 0.5272 0.53063 0.098 0.0
C307 C 0.55788 0.55306 0.08889 0.0
C308 C 0.55685 0.55225 0.07049 0.0
C309 C 0.52501 0.52921 0.06085 0.0
C310 C 0.49423 0.50734 0.07014 0.0
C311 C 0.49533 0.50819 0.08847 0.0
H312 H 0.1341 0.52765 0.17128 0.0
H313 H 0.19025 0.52768 0.16761 0.0
H314 H 0.24158 0.63708 0.15339 0.0
H315 H 0.18567 0.63752 0.15747 0.0
H316 H 0.2295 0.53475 0.13985 0.0
H317 H 0.3143 0.64615 0.18817 0.0
H318 H 0.26652 0.62666 0.18696 0.0
H319 H 0.29432 0.65919 0.17184 0.0
C320 C 0.15737 0.55194 0.16756 0.0
C321 C 0.15504 0.58269 0.16484 0.0
C322 C 0.18966 0.55188 0.1654 0.0
C323 C 0.22085 0.58254 0.16048 0.0
C324 C 0.21854 0.61326 0.15767 0.0
H325 H 0.43689 0.6239 0.13444 0.0
H326 H 0.38273 0.62766 0.13908 0.0
C327 C 0.18626 0.61342 0.15992 0.0
C328 C 0.25507 0.58169 0.15769 0.0
H329 H 0.34411 0.62431 0.16932 0.0
C330 C 0.25444 0.5543 0.14642 0.0
C331 C 0.28808 0.60713 0.16609 0.0
C332 C 0.2909 0.63623 0.17907 0.0
C333 C 0.2854 0.5519 0.14319 0.0
C334 C 0.31833 0.57724 0.15163 0.0
C335 C 0.31912 0.60481 0.16278 0.0
C336 C 0.35196 0.57527 0.14916 0.0
C337 C 0.28263 0.52253 0.13041 0.0
C338 C 0.35349 0.54491 0.15354 0.0
C339 C 0.38452 0.54265 0.15088 0.0
C340 C 0.41528 0.57075 0.14378 0.0
C341 C 0.41388 0.60145 0.13971 0.0
C342 C 0.38282 0.60374 0.14246 0.0
H343 H 0.25883 0.51179 0.12152 0.0
H344 H 0.30676 0.53222 0.12232 0.0
H345 H 0.28016 0.50015 0.13783 0.0
H346 H 0.33054 0.52273 0.15902 0.0
H347 H 0.38402 0.51835 0.15404 0.0
H348 H 0.66801 0.11631 0.50753 0.0
H349 H 0.72328 0.17276 0.50364 0.0
H350 H 0.66255 0.21737 0.4834 0.0
H351 H 0.60721 0.16138 0.48758 0.0
H352 H 0.75356 0.20729 0.47476 0.0
H353 H 0.72616 0.29776 0.51812 0.0
H354 H 0.70055 0.24966 0.51866 0.0
H355 H 0.69145 0.27175 0.50198 0.0
C356 C 0.66625 0.1382 0.50243 0.0
C357 C 0.63273 0.13395 0.49801 0.0
C358 C 0.69809 0.17064 0.50015 0.0
C359 C 0.69756 0.20005 0.49349 0.0
C360 C 0.6641 0.19581 0.48902 0.0
H361 H 0.86062 0.41162 0.4613 0.0
H362 H 0.80542 0.35685 0.46759 0.0
C363 C 0.63225 0.16342 0.49131 0.0
C364 C 0.73189 0.23443 0.4906 0.0
H365 H 0.77579 0.32559 0.49957 0.0
C366 C 0.75839 0.23306 0.48032 0.0
C367 C 0.73876 0.26847 0.49779 0.0
C368 C 0.71295 0.27214 0.5099 0.0
C369 C 0.79068 0.26431 0.47676 0.0
C370 C 0.79736 0.29834 0.48378 0.0
C371 C 0.77094 0.29977 0.49408 0.0
C372 C 0.83142 0.33257 0.4805 0.0
C373 C 0.81706 0.26065 0.46507 0.0
C374 C 0.8649 0.33807 0.48592 0.0
C375 C 0.89669 0.36957 0.48237 0.0
C376 C 0.89615 0.3967 0.47322 0.0
C377 C 0.86248 0.3914 0.46815 0.0
C378 C 0.83069 0.36 0.47183 0.0
H379 H 0.80452 0.23454 0.45725 0.0
H380 H 0.82898 0.2825 0.45593 0.0
H381 H 0.83891 0.26239 0.47331 0.0
H382 H 0.86651 0.31785 0.49289 0.0
H383 H 0.92182 0.37219 0.48641 0.0
H384 H 0.61256 0.65981 0.82958 0.0
H385 H 0.6111 0.7146 0.82478 0.0
H386 H 0.49638 0.65596 0.82638 0.0
H387 H 0.49765 0.60131 0.83148 0.0
H388 H 0.58172 0.73163 0.79836 0.0
H389 H 0.51765 0.73987 0.86021 0.0
H390 H 0.53476 0.70964 0.85666 0.0
H391 H 0.49217 0.69849 0.84728 0.0
C392 C 0.58697 0.6585 0.82906 0.0
C393 C 0.55527 0.62584 0.83112 0.0
C394 C 0.58615 0.69002 0.82626 0.0
C395 C 0.55367 0.69003 0.82552 0.0
C396 C 0.52195 0.65733 0.82736 0.0
H397 H 0.50259 0.86123 0.81014 0.0
H398 H 0.4994 0.80396 0.81441 0.0
C399 C 0.52273 0.62582 0.83018 0.0
C400 C 0.55309 0.72392 0.82234 0.0
H401 H 0.52537 0.7812 0.83924 0.0
C402 C 0.5695 0.74245 0.80738 0.0
C403 C 0.53682 0.73827 0.83389 0.0
C404 C 0.51962 0.72076 0.85049 0.0
C405 C 0.56993 0.77429 0.80362 0.0
C406 C 0.55438 0.78911 0.81536 0.0
C407 C 0.53747 0.7703 0.83019 0.0
C408 C 0.55617 0.82437 0.81271 0.0
C409 C 0.58634 0.79116 0.78676 0.0
C410 C 0.58908 0.8556 0.81056 0.0
C411 C 0.59097 0.8884 0.80791 0.0
C412 C 0.56004 0.89152 0.80758 0.0
C413 C 0.52707 0.86027 0.81004 0.0
C414 C 0.52521 0.82732 0.81263 0.0
H415 H 0.58589 0.77111 0.77677 0.0
H416 H 0.57222 0.80389 0.78115 0.0
H417 H 0.61463 0.81198 0.78941 0.0
H418 H 0.61361 0.85475 0.81099 0.0
H419 H 0.61693 0.91128 0.80585 0.0
H420 H 0.9274 0.52843 0.14712 0.0
H421 H 0.87081 0.52724 0.14341 0.0
H422 H 0.91231 0.62639 0.17516 0.0
H423 H 0.96936 0.6281 0.17869 0.0
H424 H 0.82186 0.52386 0.16642 0.0
H425 H 0.87414 0.6506 0.13341 0.0
H426 H 0.90057 0.62972 0.13667 0.0
H427 H 0.89503 0.65575 0.15442 0.0
C428 C 0.92472 0.55016 0.1533 0.0
C429 C 0.95345 0.57852 0.16314 0.0
C430 C 0.89209 0.5494 0.15116 0.0
C431 C 0.88701 0.57704 0.15868 0.0
C432 C 0.91544 0.6051 0.16878 0.0
H433 H 0.69972 0.60877 0.15715 0.0
H434 H 0.75853 0.6152 0.16272 0.0
C435 C 0.94816 0.6059 0.17093 0.0
C436 C 0.85181 0.57585 0.15619 0.0
H437 H 0.81327 0.62212 0.14096 0.0
C438 C 0.82014 0.5454 0.16082 0.0
C439 C 0.84901 0.60387 0.14895 0.0
C440 C 0.88142 0.6367 0.14291 0.0
C441 C 0.78631 0.54228 0.15855 0.0
C442 C 0.78343 0.57004 0.15109 0.0
C443 C 0.8151 0.60074 0.14669 0.0
C444 C 0.74782 0.56705 0.14725 0.0
C445 C 0.7539 0.50934 0.16453 0.0
C446 C 0.72211 0.5385 0.13629 0.0
C447 C 0.68852 0.53485 0.13301 0.0
C448 C 0.67926 0.55969 0.14054 0.0
C449 C 0.70551 0.58903 0.15106 0.0
C450 C 0.73928 0.59267 0.15433 0.0
H451 H 0.76109 0.49633 0.17457 0.0
H452 H 0.73395 0.51591 0.17008 0.0
H453 H 0.74131 0.48967 0.15312 0.0
H454 H 0.72804 0.51889 0.13013 0.0
H455 H 0.6698 0.51245 0.12441 0.0
H456 H 0.46085 0.89871 0.48754 0.0
H457 H 0.40445 0.84194 0.483 0.0
H458 H 0.34637 0.89506 0.49934 0.0
H459 H 0.40246 0.95183 0.50385 0.0
H460 H 0.34979 0.80262 0.50625 0.0
H461 H 0.29633 0.84437 0.4525 0.0
H462 H 0.34254 0.8694 0.45971 0.0
H463 H 0.30921 0.87356 0.47213 0.0
C464 C 0.43613 0.89845 0.49018 0.0
C465 C 0.4366 0.93029 0.49603 0.0
C466 C 0.40373 0.86578 0.48757 0.0
C467 C 0.37073 0.86393 0.49051 0.0
C468 C 0.37116 0.89556 0.49659 0.0
H469 H 0.14568 0.69208 0.47786 0.0
H470 H 0.20152 0.74894 0.48348 0.0
C471 C 0.40351 0.92816 0.4993 0.0
C472 C 0.33604 0.82902 0.48743 0.0
H473 H 0.25696 0.78835 0.46373 0.0
C474 C 0.3296 0.79953 0.49689 0.0
C475 C 0.30925 0.82462 0.4753 0.0
C476 C 0.31465 0.85451 0.46419 0.0
C477 C 0.2973 0.7664 0.49484 0.0
C478 C 0.27059 0.76182 0.48257 0.0
C479 C 0.27705 0.7914 0.47315 0.0
C480 C 0.23613 0.72666 0.47918 0.0
C481 C 0.29181 0.73697 0.50632 0.0
C482 C 0.23627 0.6947 0.47455 0.0
C483 C 0.20424 0.662 0.47138 0.0
C484 C 0.17076 0.66002 0.47249 0.0
C485 C 0.17066 0.69219 0.47679 0.0
C486 C 0.20278 0.72492 0.48007 0.0
H487 H 0.30862 0.74789 0.51852 0.0
H488 H 0.26349 0.72087 0.51 0.0
H489 H 0.29957 0.71896 0.49907 0.0
H490 H 0.2613 0.69501 0.47312 0.0
H491 H 0.20585 0.63828 0.46767 0.0
H492 H 0.50209 0.39369 0.82793 0.0
H493 H 0.50382 0.33807 0.82445 0.0
H494 H 0.61605 0.39598 0.8381 0.0
H495 H 0.6142 0.4517 0.84218 0.0
H496 H 0.53631 0.31615 0.80257 0.0
H497 H 0.58632 0.31562 0.86891 0.0
H498 H 0.57189 0.3466 0.86373 0.0
H499 H 0.6159 0.35531 0.85819 0.0
C500 C 0.52716 0.39471 0.83041 0.0
C501 C 0.55795 0.42751 0.83551 0.0
C502 C 0.52813 0.36265 0.82834 0.0
C503 C 0.55991 0.36214 0.83126 0.0
C504 C 0.59081 0.39496 0.83625 0.0
H505 H 0.6205 0.19719 0.81386 0.0
H506 H 0.61871 0.25237 0.81978 0.0
C507 C 0.58979 0.42707 0.83849 0.0
C508 C 0.56068 0.32759 0.8284 0.0
H509 H 0.58525 0.27284 0.84733 0.0
C510 C 0.54682 0.30671 0.81247 0.0
C511 C 0.57432 0.31469 0.84119 0.0
C512 C 0.58761 0.33402 0.85902 0.0
C513 C 0.54673 0.27417 0.80892 0.0
C514 C 0.56064 0.26152 0.82163 0.0
C515 C 0.57461 0.28233 0.83752 0.0
C516 C 0.56126 0.22705 0.81857 0.0
C517 C 0.5324 0.2539 0.79136 0.0
C518 C 0.52955 0.19381 0.81618 0.0
C519 C 0.53038 0.16176 0.81304 0.0
C520 C 0.56301 0.16184 0.81215 0.0
C521 C 0.59469 0.19533 0.81475 0.0
C522 C 0.5938 0.22726 0.81802 0.0
H523 H 0.53015 0.2708 0.78163 0.0
H524 H 0.54975 0.24367 0.78602 0.0
H525 H 0.50544 0.2306 0.79301 0.0
H526 H 0.50399 0.19258 0.81684 0.0
H527 H 0.50528 0.13686 0.81147 0.0
H528 H 0.57034 0.83059 0.52428 0.0
H529 H 0.58964 0.7894 0.53357 0.0
H530 H 0.69382 0.85671 0.513 0.0
H531 H 0.67477 0.89756 0.50364 0.0
H532 H 0.66731 0.78486 0.50394 0.0
H533 H 0.65615 0.8092 0.57556 0.0
H534 H 0.61625 0.79398 0.56249 0.0
H535 H 0.65431 0.83722 0.55953 0.0
C536 C 0.59734 0.83652 0.52179 0.0
C537 C 0.62103 0.8672 0.51321 0.0
C538 C 0.60833 0.81307 0.52712 0.0
C539 C 0.64328 0.82029 0.52414 0.0
C540 C 0.66672 0.85063 0.51538 0.0
H541 H 0.79232 0.75468 0.54941 0.0
H542 H 0.75928 0.78227 0.53861 0.0
C543 C 0.65575 0.87387 0.50998 0.0
C544 C 0.65609 0.79679 0.53024 0.0
H545 H 0.6767 0.76946 0.56716 0.0
C546 C 0.66913 0.78125 0.51775 0.0
C547 C 0.65835 0.79214 0.54827 0.0
C548 C 0.64581 0.80919 0.56229 0.0
C549 C 0.68513 0.76185 0.52285 0.0
C550 C 0.68838 0.75821 0.54088 0.0
C551 C 0.67417 0.77252 0.55334 0.0
C552 C 0.70803 0.74114 0.54713 0.0
C553 C 0.69874 0.74566 0.50894 0.0
C554 C 0.69013 0.70932 0.55573 0.0
C555 C 0.70891 0.69358 0.56193 0.0
C556 C 0.74595 0.70969 0.55978 0.0
C557 C 0.76384 0.74181 0.55131 0.0
C558 C 0.74499 0.75739 0.54502 0.0
H559 H 0.68676 0.74347 0.49579 0.0
H560 H 0.72809 0.7629 0.50819 0.0
H561 H 0.69295 0.71865 0.51226 0.0
H562 H 0.66165 0.69664 0.55761 0.0
H563 H 0.69453 0.66907 0.56861 0.0
H564 H 0.80063 0.58352 0.88061 0.0
H565 H 0.86109 0.59328 0.87978 0.0
H566 H 0.8553 0.58413 0.82317 0.0
H567 H 0.79497 0.57573 0.82391 0.0
H568 H 0.89357 0.55653 0.86524 0.0
H569 H 0.93847 0.68525 0.83413 0.0
H570 H 0.8946 0.66024 0.84298 0.0
H571 H 0.90482 0.64511 0.82248 0.0
C572 C 0.81214 0.58341 0.86798 0.0
C573 C 0.79339 0.57966 0.85233 0.0
C574 C 0.84656 0.58865 0.86752 0.0
C575 C 0.8629 0.59013 0.85142 0.0
C576 C 0.84336 0.58375 0.83573 0.0
H577 H 0.09723 0.69206 0.85259 0.0
H578 H 1.03592 0.655 0.8408 0.0
C579 C 0.80882 0.57864 0.83618 0.0
C580 C 0.90136 0.60181 0.85148 0.0
H581 H 0.98251 0.67495 0.84492 0.0
C582 C 0.91307 0.58207 0.86047 0.0
C583 C 0.92674 0.6351 0.84517 0.0
C584 C 0.91574 0.65788 0.83573 0.0
C585 C 0.94939 0.59577 0.86429 0.0
C586 C 0.97444 0.63014 0.8591 0.0
C587 C 0.96307 0.64863 0.84892 0.0
C588 C 1.01152 0.64949 0.86611 0.0
C589 C 0.96057 0.57403 0.87446 0.0
C590 C 1.01788 0.65884 0.88417 0.0
C591 C 1.05262 0.68017 0.89088 0.0
C592 C 0.08166 0.69253 0.87963 0.0
C593 C 0.07529 0.68269 0.86155 0.0
C594 C 1.04041 0.66157 0.85481 0.0
H595 H 0.94084 0.54497 0.87266 0.0
H596 H 0.98711 0.57856 0.87039 0.0
H597 H 0.96235 0.58219 0.88865 0.0
H598 H 0.99587 0.65037 0.89305 0.0
H599 H 1.05679 0.68704 0.90487 0.0
H600 H 0.26529 0.81215 0.1717 0.0
H601 H 0.32815 0.83825 0.16566 0.0
H602 H 0.30234 0.78489 0.11385 0.0
H603 H 0.23871 0.75939 0.11952 0.0
H604 H 0.34498 0.76872 0.13436 0.0
H605 H 0.40194 0.91491 0.1355 0.0
H606 H 0.37217 0.89673 0.15329 0.0
H607 H 0.3551 0.8837 0.13099 0.0
C608 C 0.27269 0.80706 0.15872 0.0
C609 C 0.24674 0.78343 0.14615 0.0
C610 C 0.30883 0.82203 0.15529 0.0
C611 C 0.3199 0.81374 0.13925 0.0
C612 C 0.29428 0.79174 0.12627 0.0
H613 H 0.54822 0.91191 0.15767 0.0
H614 H 0.49629 0.88781 0.13767 0.0
C615 C 0.25796 0.777 0.12962 0.0
C616 C 0.35773 0.82381 0.1375 0.0
H617 H 0.4405 0.8945 0.1475 0.0
C618 C 0.36612 0.79633 0.13662 0.0
C619 C 0.38535 0.85977 0.14006 0.0
C620 C 0.37818 0.89046 0.13982 0.0
C621 C 0.40088 0.80368 0.14034 0.0
C622 C 0.42751 0.83925 0.14526 0.0
C623 C 0.41997 0.86708 0.14401 0.0
C624 C 0.46066 0.84757 0.1548 0.0
C625 C 0.40821 0.77305 0.14 0.0
C626 C 0.45812 0.83214 0.17079 0.0
C627 C 0.48766 0.84578 0.18219 0.0
C628 C 0.52023 0.87524 0.17785 0.0
C629 C 0.52351 0.88892 0.16127 0.0
C630 C 0.49386 0.8753 0.14986 0.0
H631 H 0.39145 0.75196 0.1297 0.0
H632 H 0.4367 0.78215 0.13755 0.0
H633 H 0.40127 0.76074 0.15282 0.0
H634 H 0.43265 0.8113 0.17509 0.0
H635 H 0.48448 0.83469 0.19486 0.0
H636 H 0.52893 0.25798 0.49305 0.0
H637 H 0.57654 0.32051 0.49725 0.0
H638 H 0.65498 0.28883 0.48644 0.0
H639 H 0.60793 0.22652 0.48257 0.0
H640 H 0.62501 0.34019 0.52387 0.0
H641 H 0.69581 0.38048 0.46132 0.0
H642 H 0.65178 0.34183 0.46247 0.0
H643 H 0.6906 0.33913 0.46804 0.0
C644 C 0.55628 0.26443 0.49126 0.0
C645 C 0.5646 0.23721 0.48761 0.0
C646 C 0.58343 0.30016 0.49355 0.0
C647 C 0.6193 0.3093 0.49211 0.0
C648 C 0.62751 0.28248 0.48734 0.0
H649 H 0.79561 0.47819 0.5534 0.0
H650 H 0.75545 0.42205 0.53654 0.0
C651 C 0.60045 0.24678 0.4851 0.0
C652 C 0.64803 0.34547 0.49834 0.0
H653 H 0.7272 0.41694 0.48734 0.0
C654 C 0.64711 0.35711 0.51579 0.0
C655 C 0.67697 0.36738 0.48782 0.0
C656 C 0.67875 0.35674 0.46882 0.0
C657 C 0.67459 0.38976 0.52314 0.0
C658 C 0.704 0.41115 0.51282 0.0
C659 C 0.70475 0.40007 0.49524 0.0
C660 C 0.73336 0.44571 0.52021 0.0
C661 C 0.672 0.40122 0.54192 0.0
C662 C 0.73511 0.4776 0.51603 0.0
C663 C 0.75772 0.50959 0.52571 0.0
C664 C 0.77899 0.51014 0.5397 0.0
C665 C 0.77914 0.47853 0.5429 0.0
C666 C 0.75643 0.44653 0.53323 0.0
H667 H 0.64492 0.38459 0.54712 0.0
H668 H 0.69133 0.39867 0.55029 0.0
H669 H 0.67885 0.4297 0.54307 0.0
H670 H 0.71729 0.47733 0.50607 0.0
H671 H 0.75661 0.53331 0.52301 0.0
H672 H 0.34178 0.52692 0.81653 0.0
H673 H 0.32389 0.57184 0.81817 0.0
H674 H 0.40342 0.63245 0.78084 0.0
H675 H 0.42087 0.58657 0.77854 0.0
H676 H 0.41104 0.66954 0.81329 0.0
H677 H 0.27236 0.60816 0.78827 0.0
H678 H 0.27753 0.57879 0.802 0.0
H679 H 0.3013 0.59076 0.7818 0.0
C680 C 0.35449 0.5488 0.808 0.0
C681 C 0.38306 0.55315 0.79751 0.0
C682 C 0.34419 0.57463 0.80899 0.0
C683 C 0.36218 0.60537 0.79955 0.0
C684 C 0.38913 0.60881 0.78817 0.0
H685 H 0.34291 0.78701 0.84768 0.0
H686 H 0.36073 0.75682 0.82483 0.0
C687 C 0.39921 0.58268 0.787 0.0
C688 C 0.3566 0.6359 0.80409 0.0
H689 H 0.28933 0.6532 0.81292 0.0
C690 C 0.38474 0.66673 0.81269 0.0
C691 C 0.32238 0.63221 0.80315 0.0
C692 C 0.29179 0.60081 0.79313 0.0
C693 C 0.37858 0.69194 0.82211 0.0
C694 C 0.34347 0.68613 0.8227 0.0
C695 C 0.31616 0.65731 0.81258 0.0
C696 C 0.33325 0.70531 0.83607 0.0
C697 C 0.40885 0.72274 0.83264 0.0
C698 C 0.31189 0.68626 0.8498 0.0
C699 C 0.30165 0.7032 0.86272 0.0
C700 C 0.31259 0.73969 0.86222 0.0
C701 C 0.33409 0.75887 0.84842 0.0
C702 C 0.3444 0.74177 0.83542 0.0
H703 H 0.43412 0.72209 0.8316 0.0
H704 H 0.41344 0.74843 0.82791 0.0
H705 H 0.40186 0.72221 0.84669 0.0
H706 H 0.30302 0.65807 0.85051 0.0
H707 H 0.28439 0.68739 0.87288 0.0
H708 H 0.82807 0.39873 0.15677 0.0
H709 H 0.76685 0.35007 0.16058 0.0
H710 H 0.7987 0.27265 0.1453 0.0
H711 H 0.85958 0.32052 0.14188 0.0
H712 H 0.72758 0.2569 0.13174 0.0
H713 H 0.75077 0.28946 0.20406 0.0
H714 H 0.75682 0.32356 0.18977 0.0
H715 H 0.78765 0.3073 0.18935 0.0
C716 C 0.82191 0.37132 0.1541 0.0
C717 C 0.84882 0.3635 0.14919 0.0
C718 C 0.78692 0.34365 0.15615 0.0
C719 C 0.77845 0.3079 0.15328 0.0
C720 C 0.80472 0.30015 0.14742 0.0
H721 H 0.69035 0.1023 0.16851 0.0
H722 H 0.7073 0.15872 0.15585 0.0
C723 C 0.83956 0.32762 0.14545 0.0
C724 C 0.74402 0.27801 0.15844 0.0
H725 H 0.70756 0.23143 0.19454 0.0
C726 C 0.7223 0.25166 0.14548 0.0
C727 C 0.73684 0.27157 0.17635 0.0
C728 C 0.75913 0.29931 0.19078 0.0
C729 C 0.69595 0.21758 0.14999 0.0
C730 C 0.69212 0.20966 0.16784 0.0
C731 C 0.71081 0.23738 0.18083 0.0
C732 C 0.67544 0.17242 0.17318 0.0
C733 C 0.67401 0.18984 0.13554 0.0
C734 C 0.65192 0.16121 0.1872 0.0
C735 C 0.64283 0.12917 0.19475 0.0
C736 C 0.65733 0.10801 0.18845 0.0
C737 C 0.67919 0.11831 0.1738 0.0
C738 C 0.68833 0.15027 0.16631 0.0
H739 H 0.6682 0.20243 0.12476 0.0
H740 H 0.68942 0.17759 0.12992 0.0
H741 H 0.64844 0.16839 0.14042 0.0
H742 H 0.64204 0.1781 0.19285 0.0
H743 H 0.62606 0.12202 0.2061 0.0
H744 H 0.08333 0.65314 0.11624 0.0
H745 H 0.11037 0.67301 0.088 0.0
H746 H 0.11948 0.57842 0.07954 0.0
H747 H 0.09199 0.55796 0.10786 0.0
H748 H 0.17894 0.68634 0.07795 0.0
H749 H 0.07097 0.58136 0.03372 0.0
H750 H 1.06368 0.58967 0.05642 0.0
H751 H 0.08693 0.56593 0.05092 0.0
C752 C 0.09065 0.63625 0.10833 0.0
C753 C 0.08527 0.6038 0.11427 0.0
C754 C 0.10625 0.64777 0.09221 0.0
C755 C 0.11664 0.62706 0.08164 0.0
C756 C 0.11113 0.59452 0.08741 0.0
H757 H 0.20868 0.67319 0.97718 0.0
H758 H 0.18865 0.64618 0.00533 0.0
C759 C 0.0955 0.58293 0.1036 0.0
C760 C 0.13416 0.64043 0.06485 0.0
H761 H 0.12212 0.62523 0.02036 0.0
C762 C 0.16665 0.67289 0.06534 0.0
C763 C 0.11816 0.62264 0.04846 0.0
C764 C 0.08289 0.58808 0.04722 0.0
C765 C 0.18327 0.68845 0.04987 0.0
C766 C 0.16661 0.67137 0.03348 0.0
C767 C 0.13476 0.63826 0.03296 0.0
C768 C 0.18055 0.6885 0.01679 0.0
C769 C 0.21844 0.7231 0.05119 0.0
C770 C 0.18245 0.72113 0.01391 0.0
C771 C 0.19363 0.7365 0.99785 0.0
C772 C 0.20299 0.71945 0.98428 0.0
C773 C 0.20136 0.68687 0.98729 0.0
C774 C 0.19009 0.67147 0.00337 0.0
H775 H 0.23251 0.72696 0.06394 0.0
H776 H 0.23612 0.724 0.04038 0.0
H777 H 0.21354 0.74579 0.05025 0.0
H778 H 0.17439 0.73429 0.02395 0.0
H779 H 0.19382 0.76118 0.99588 0.0
H780 H 0.48496 1.02119 0.44103 0.0
H781 H 0.48739 1.01624 0.40887 0.0
H782 H 0.59746 1.04345 0.41304 0.0
H783 H 0.59548 0.04874 0.44488 0.0
H784 H 0.58265 0.07908 0.38696 0.0
H785 H 0.49147 0.93126 0.38228 0.0
H786 H 0.47573 0.95829 0.39358 0.0
H787 H 0.51239 0.95592 0.40278 0.0
C788 C 0.50973 1.02643 0.43506 0.0
C789 C 0.53992 1.03501 0.4455 0.0
C790 C 0.51101 1.02343 0.41673 0.0
C791 C 0.54249 1.02906 0.40866 0.0
C792 C 0.5729 1.0389 0.41904 0.0
H793 H 0.60435 0.96412 0.31432 0.0
H794 H 0.58606 0.97296 0.34373 0.0
C795 C 0.57164 1.04178 0.43726 0.0
C796 C 0.54404 1.02357 0.38944 0.0
H797 H 0.51816 0.95808 0.35633 0.0
C798 C 0.56815 0.05277 0.38015 0.0
C799 C 0.52535 0.98907 0.38074 0.0
C800 C 0.4999 0.95668 0.3903 0.0
C801 C 0.57499 0.04822 0.36247 0.0
C802 C 0.55684 1.01359 0.35386 0.0
C803 C 0.53188 0.98457 0.363 0.0
C804 C 0.5655 1.00656 0.33581 0.0
C805 C 0.60287 0.08014 0.35341 0.0
C806 C 0.55932 1.02195 0.32161 0.0
C807 C 0.5697 1.01692 0.3048 0.0
C808 C 0.58628 0.99623 0.3019 0.0
C809 C 0.59141 0.97995 0.31609 0.0
C810 C 0.58107 0.98506 0.3329 0.0
H811 H 0.61913 0.10338 0.36284 0.0
H812 H 0.62099 0.07324 0.34598 0.0
H813 H 0.58954 0.08841 0.34393 0.0
H814 H 0.54674 1.0381 0.32355 0.0
H815 H 0.56478 1.02925 0.29406 0.0
H816 H 0.54614 0.53811 0.77442 0.0
H817 H 0.56915 0.5459 0.74454 0.0
H818 H 0.65776 0.53588 0.76231 0.0
H819 H 0.63501 0.52767 0.79189 0.0
H820 H 0.63541 0.59982 0.73408 0.0
H821 H 0.62162 0.46664 0.71889 0.0
H822 H 0.59869 0.47527 0.7367 0.0
H823 H 0.6446 0.48704 0.73949 0.0
C824 C 0.57029 0.53714 0.77189 0.0
C825 C 0.58869 0.53219 0.78553 0.0
C826 C 0.58339 0.54163 0.75484 0.0
C827 C 0.61482 0.54085 0.75117 0.0
C828 C 0.63302 0.53572 0.76475 0.0
H829 H 0.77186 0.59142 0.67309 0.0
H830 H 0.73486 0.57586 0.69911 0.0
C831 C 0.62005 0.53129 0.78171 0.0
C832 C 0.63018 0.54756 0.73348 0.0
H833 H 0.66278 0.51395 0.70143 0.0
C834 C 0.64085 0.58084 0.72676 0.0
C835 C 0.6372 0.5227 0.72399 0.0
C836 C 0.6246 0.48577 0.73005 0.0
C837 C 0.66003 0.59064 0.71122 0.0
C838 C 0.66837 0.56636 0.70216 0.0
C839 C 0.65658 0.5326 0.70853 0.0
C840 C 0.6905 0.57598 0.6864 0.0
C841 C 0.67256 0.62743 0.70498 0.0
C842 C 0.67762 0.58096 0.67067 0.0
C843 C 0.69867 0.58988 0.65581 0.0
C844 C 0.73298 0.59395 0.65645 0.0
C845 C 0.74573 0.58886 0.67225 0.0
C846 C 0.72458 0.57978 0.68707 0.0
H847 H 0.66916 0.64511 0.71504 0.0
H848 H 0.7011 0.64034 0.7015 0.0
H849 H 0.65693 0.62499 0.69302 0.0
H850 H 0.65123 0.57779 0.66987 0.0
H851 H 0.68824 0.59395 0.64387 0.0
H852 H 0.516 0.06383 0.56148 0.0
H853 H 0.5189 0.06281 0.59349 0.0
H854 H 0.55387 0.98545 0.58764 0.0
H855 H 0.55107 0.98617 0.55572 0.0
H856 H 0.48304 1.00104 0.61524 0.0
H857 H 0.63084 0.06884 0.62061 0.0
H858 H 0.60765 0.07063 0.60149 0.0
H859 H 0.60996 1.03109 0.60482 0.0
C860 C 0.52427 0.04654 0.56698 0.0
C861 C 0.53343 1.02519 0.55596 0.0
C862 C 0.52586 1.04598 0.58529 0.0
C863 C 0.53702 1.0244 0.59296 0.0
C864 C 0.54566 1.00269 0.58202 0.0
H865 H 0.58037 0.99361 0.69958 0.0
H866 H 0.57277 0.99173 0.66779 0.0
C867 C 0.54387 1.00304 0.56374 0.0
C868 C 0.53968 1.0245 0.61239 0.0
H869 H 0.59917 1.04598 0.64643 0.0
C870 C 0.50841 1.011 0.6221 0.0
C871 C 0.57279 1.03733 0.6213 0.0
C872 C 0.60733 0.05308 0.6116 0.0
C873 C 0.50928 1.00928 0.64043 0.0
C874 C 0.54246 1.02231 0.64939 0.0
C875 C 0.57372 1.03593 0.63963 0.0
C876 C 0.5455 1.02219 0.66885 0.0
C877 C 0.4745 0.99257 0.64993 0.0
C878 C 0.53283 1.04002 0.68015 0.0
C879 C 0.53667 1.0407 0.69839 0.0
C880 C 0.55374 1.02397 0.70583 0.0
C881 C 0.5665 1.00623 0.69444 0.0
C882 C 0.56247 1.00541 0.6762 0.0
H883 H 0.45165 0.97456 0.64091 0.0
H884 H 0.47512 0.977 0.66082 0.0
H885 H 0.46969 1.01403 0.65555 0.0
H886 H 0.52037 0.0539 0.67486 0.0
H887 H 0.52621 0.05438 0.70667 0.0
H888 H 0.48551 0.46835 0.88976 0.0
H889 H 0.47765 0.46646 0.9217 0.0
H890 H 0.56723 0.57369 0.92908 0.0
H891 H 0.57491 0.57605 0.89752 0.0
H892 H 0.52523 0.47348 0.94794 0.0
H893 H 0.49193 0.58112 0.95798 0.0
H894 H 0.49088 0.56045 0.93654 0.0
H895 H 0.53247 0.59528 0.94633 0.0
C896 C 0.50324 0.49165 0.89819 0.0
C897 C 0.53069 0.52241 0.891 0.0
C898 C 0.49879 0.4905 0.91644 0.0
C899 C 0.52149 0.52017 0.92781 0.0
C900 C 0.54883 0.55077 0.92062 0.0
H901 H 0.57571 0.53224 0.03798 0.0
H902 H 0.57304 0.52864 0.00589 0.0
C903 C 0.55329 0.55195 0.90249 0.0
C904 C 0.51786 0.51906 0.94722 0.0
H905 H 0.51039 0.56478 0.98364 0.0
C906 C 0.52159 0.4932 0.95574 0.0
C907 C 0.5127 0.54451 0.95744 0.0
C908 C 0.5064 0.57168 0.9491 0.0
C909 C 0.52159 0.49291 0.97417 0.0
C910 C 0.51841 0.5196 0.98441 0.0
C911 C 0.51336 0.54463 0.97585 0.0
C912 C 0.52026 0.52211 0.00398 0.0
C913 C 0.52477 0.46383 0.98248 0.0
C914 C 0.49207 0.52093 0.01369 0.0
C915 C 0.49375 0.52356 0.03207 0.0
C916 C 0.52378 0.52759 0.04122 0.0
C917 C 0.55226 0.52939 0.03144 0.0
C918 C 0.55056 0.5268 0.01304 0.0
H919 H 0.51644 0.44008 0.97315 0.0
H920 H 0.55302 0.4742 0.98645 0.0
H921 H 0.50832 0.45519 0.99434 0.0
H922 H 0.46857 0.51773 0.00703 0.0
H923 H 0.47157 0.52271 0.0391 0.0
H924 H 1.00969 0.50464 0.2176 0.0
H925 H 1.00488 0.49539 0.24914 0.0
H926 H 1.05844 0.60948 0.26094 0.0
H927 H 1.06361 0.61907 0.2296 0.0
H928 H 1.06679 0.52725 0.27477 0.0
H929 H 0.96534 0.56671 0.29078 0.0
H930 H 0.97067 0.55236 0.26879 0.0
H931 H 1.00188 0.59654 0.27782 0.0
C932 C 1.02016 0.52777 0.2269 0.0
C933 C 1.03703 0.56262 0.221 0.0
C934 C 1.01746 0.52242 0.24492 0.0
C935 C 1.03103 0.55174 0.25739 0.0
C936 C 1.04742 0.58646 0.25156 0.0
H937 H 1.04684 0.5845 0.37131 0.0
H938 H 1.0455 0.58989 0.33959 0.0
C939 C 1.05046 0.59186 0.2336 0.0
C940 C 1.02952 0.54632 0.27652 0.0
H941 H 0.9936 0.55766 0.31473 0.0
C942 C 1.05058 0.5336 0.28351 0.0
C943 C 1.00869 0.55503 0.28791 0.0
C944 C 0.98511 0.5682 0.28101 0.0
C945 C 1.05203 0.53012 0.30165 0.0
C946 C 1.03096 0.53858 0.3131 0.0
C947 C 1.00971 0.55111 0.30603 0.0
C948 C 1.03084 0.53491 0.33244 0.0
C949 C 0.07716 0.51865 0.30839 0.0
C950 C 1.0223 0.50206 0.33911 0.0
C951 C 1.02332 0.49901 0.35722 0.0
C952 C 1.0323 0.52859 0.36915 0.0
C953 C 1.03968 0.56116 0.3625 0.0
C954 C 1.03901 0.56429 0.34435 0.0
H955 H 0.0987 0.52376 0.29902 0.0
H956 H 0.08959 0.53284 0.32124 0.0
H957 H 1.06207 0.48946 0.31012 0.0
H958 H 1.01477 0.47866 0.33029 0.0
H959 H 1.01678 0.47334 0.3619 0.0
loop_
_geom_bond_atom_site_label_1
_geom_bond_atom_site_label_2
_geom_bond_distance
_geom_bond_site_symmetry_2
_ccdc_geom_bond_type
Eu0 C9 2.828 . S
Eu0 O11 2.392 1_655 S
Eu0 O13 2.418 . S
Eu0 O18 2.373 . S
Eu0 O21 2.488 . S
Eu0 O22 2.471 . S
Eu0 O23 2.349 . S
Eu1 O10 2.373 . S
Eu1 O14 2.488 . S
Eu1 O15 2.471 . S
Eu1 O16 2.349 . S
Eu1 O19 2.392 1_455 S
Eu1 O20 2.418 . S
Eu1 C30 2.828 . S
C2 O20 1.244 . S
C2 O23 1.265 1_455 S
C3 C4 1.379 . S
C3 C7 1.373 . S
C3 C9 1.505 . S
C4 C3 1.379 . S
C4 C6 1.369 . S
C4 H32 0.930 . S
C5 C7 1.383 . S
C5 C8 1.382 . S
C5 H33 0.930 . S
C6 C4 1.369 . S
C6 C8 1.392 . S
C6 H34 0.930 . S
C7 C3 1.373 . S
C7 C5 1.383 . S
C7 H35 0.931 . S
C8 C5 1.382 . S
C8 C6 1.392 . S
C9 Eu0 2.828 . S
C9 C3 1.505 . S
C9 O21 1.249 . S
C9 O22 1.244 . S
O10 Eu1 2.373 . S
O10 C12 1.258 . S
O11 Eu0 2.392 1_455 S
O11 C12 1.242 . S
C12 O10 1.258 . S
C12 O11 1.242 . S
O13 Eu0 2.418 . S
O13 C17 1.244 . S
O14 Eu1 2.488 . S
O14 C30 1.249 . S
O15 Eu1 2.471 . S
O15 C30 1.244 . S
O16 Eu1 2.349 . S
O16 C17 1.265 1_455 S
C17 O13 1.244 . S
C17 O16 1.265 1_655 S
O18 Eu0 2.373 . S
O18 C31 1.258 . S
O19 Eu1 2.392 1_655 S
O19 C31 1.242 . S
O20 Eu1 2.418 . S
O20 C2 1.244 . S
O21 Eu0 2.488 . S
O21 C9 1.249 . S
O22 Eu0 2.471 . S
O22 C9 1.244 . S
O23 Eu0 2.349 . S
O23 C2 1.265 1_655 S
C24 C25 1.379 . S
C24 C28 1.373 . S
C24 C30 1.505 . S
C25 C24 1.379 . S
C25 C27 1.369 . S
C25 H36 0.930 . S
C26 C28 1.383 . S
C26 C29 1.382 . S
C26 H37 0.930 . S
C27 C25 1.369 . S
C27 C29 1.392 . S
C27 H38 0.930 . S
C28 C24 1.373 . S
C28 C26 1.383 . S
C28 H39 0.931 . S
C29 C26 1.382 . S
C29 C27 1.392 . S
C30 Eu1 2.828 . S
C30 O14 1.249 . S
C30 O15 1.244 . S
C30 C24 1.505 . S
C31 O18 1.258 . S
C31 O19 1.242 . S
H32 C4 0.930 . S
H33 C5 0.930 . S
H34 C6 0.930 . S
H35 C7 0.931 . S
H36 C25 0.930 . S
H37 C26 0.930 . S
H38 C27 0.930 . S
H39 C28 0.931 . S
Eu40 C49 2.828 . S
Eu40 O51 2.392 1_565 S
Eu40 O53 2.418 . S
Eu40 O58 2.373 . S
Eu40 O61 2.488 . S
Eu40 O62 2.471 . S
Eu40 O63 2.342 1_565 S
Eu41 O50 2.373 . S
Eu41 O54 2.488 . S
Eu41 O55 2.471 . S
Eu41 O56 2.349 . S
Eu41 O59 2.392 1_545 S
Eu41 O60 2.418 . S
Eu41 C70 2.828 . S
C42 O60 1.244 . S
C42 O63 1.272 . S
C43 C44 1.379 . S
C43 C47 1.373 . S
C43 C49 1.505 . S
C44 C43 1.379 . S
C44 C46 1.369 . S
C44 H72 0.930 . S
C45 C47 1.383 . S
C45 C48 1.382 . S
C45 H73 0.930 . S
C46 C44 1.369 . S
C46 C48 1.392 . S
C46 H74 0.930 . S
C47 C43 1.373 . S
C47 C45 1.383 . S
C47 H75 0.931 . S
C48 C45 1.382 . S
C48 C46 1.392 . S
C49 Eu40 2.828 . S
C49 C43 1.505 . S
C49 O61 1.249 . S
C49 O62 1.244 . S
O50 Eu41 2.373 . S
O50 C52 1.258 . S
O51 Eu40 2.392 1_545 S
O51 C52 1.242 . S
C52 O50 1.258 . S
C52 O51 1.242 . S
O53 Eu40 2.418 . S
O53 C57 1.244 1_565 S
O54 Eu41 2.488 . S
O54 C70 1.249 . S
O55 Eu41 2.471 . S
O55 C70 1.244 . S
O56 Eu41 2.349 . S
O56 C57 1.265 . S
C57 O53 1.244 1_545 S
C57 O56 1.265 . S
O58 Eu40 2.373 . S
O58 C71 1.258 . S
O59 Eu41 2.392 1_565 S
O59 C71 1.242 . S
O60 Eu41 2.418 . S
O60 C42 1.244 . S
O61 Eu40 2.488 . S
O61 C49 1.249 . S
O62 Eu40 2.471 . S
O62 C49 1.244 . S
O63 Eu40 2.342 1_545 S
O63 C42 1.272 . S
C64 C65 1.379 . S
C64 C68 1.373 . S
C64 C70 1.505 . S
C65 C64 1.379 . S
C65 C67 1.369 . S
C65 H76 0.930 . S
C66 C68 1.383 . S
C66 C69 1.382 . S
C66 H77 0.930 . S
C67 C65 1.369 . S
C67 C69 1.392 . S
C67 H78 0.930 . S
C68 C64 1.373 . S
C68 C66 1.383 . S
C68 H79 0.931 . S
C69 C66 1.382 . S
C69 C67 1.392 . S
C70 Eu41 2.828 . S
C70 O54 1.249 . S
C70 O55 1.244 . S
C70 C64 1.505 . S
C71 O58 1.258 . S
C71 O59 1.242 . S
H72 C44 0.930 . S
H73 C45 0.930 . S
H74 C46 0.930 . S
H75 C47 0.931 . S
H76 C65 0.930 . S
H77 C66 0.930 . S
H78 C67 0.930 . S
H79 C68 0.931 . S
Eu80 C89 2.828 . S
Eu80 O91 2.392 . S
Eu80 O93 2.418 . S
Eu80 O98 2.373 . S
Eu80 O101 2.488 . S
Eu80 O102 2.471 . S
Eu80 O103 2.349 . S
Eu81 O90 2.373 . S
Eu81 O94 2.488 . S
Eu81 O95 2.471 . S
Eu81 O96 2.349 . S
Eu81 O99 2.392 . S
Eu81 O100 2.418 . S
Eu81 C110 2.828 . S
C82 O100 1.244 . S
C82 O103 1.265 . S
C83 C84 1.379 . S
C83 C87 1.373 . S
C83 C89 1.505 . S
C84 C83 1.379 . S
C84 C86 1.369 . S
C84 H112 0.930 . S
C85 C87 1.383 . S
C85 C88 1.382 . S
C85 H113 0.930 . S
C86 C84 1.369 . S
C86 C88 1.392 . S
C86 H114 0.930 . S
C87 C83 1.373 . S
C87 C85 1.383 . S
C87 H115 0.931 . S
C88 C85 1.382 . S
C88 C86 1.392 . S
C89 Eu80 2.828 . S
C89 C83 1.505 . S
C89 O101 1.249 . S
C89 O102 1.244 . S
O90 Eu81 2.373 . S
O90 C92 1.258 . S
O91 Eu80 2.392 . S
O91 C92 1.242 . S
C92 O90 1.258 . S
C92 O91 1.242 . S
O93 Eu80 2.418 . S
O93 C97 1.244 . S
O94 Eu81 2.488 . S
O94 C110 1.249 . S
O95 Eu81 2.471 . S
O95 C110 1.244 . S
O96 Eu81 2.349 . S
O96 C97 1.265 . S
C97 O93 1.244 . S
C97 O96 1.265 . S
O98 Eu80 2.373 . S
O98 C111 1.258 . S
O99 Eu81 2.392 . S
O99 C111 1.242 . S
O100 Eu81 2.418 . S
O100 C82 1.244 . S
O101 Eu80 2.488 . S
O101 C89 1.249 . S
O102 Eu80 2.471 . S
O102 C89 1.244 . S
O103 Eu80 2.349 . S
O103 C82 1.265 . S
C104 C105 1.379 . S
C104 C108 1.373 . S
C104 C110 1.505 . S
C105 C104 1.379 . S
C105 C107 1.369 . S
C105 H116 0.930 . S
C106 C108 1.383 . S
C106 C109 1.382 . S
C106 H117 0.930 . S
C107 C105 1.369 . S
C107 C109 1.392 . S
C107 H118 0.930 . S
C108 C104 1.373 . S
C108 C106 1.383 . S
C108 H119 0.931 . S
C109 C106 1.382 . S
C109 C107 1.392 . S
C110 Eu81 2.828 . S
C110 O94 1.249 . S
C110 O95 1.244 . S
C110 C104 1.505 . S
C111 O98 1.258 . S
C111 O99 1.242 . S
H112 C84 0.930 . S
H113 C85 0.930 . S
H114 C86 0.930 . S
H115 C87 0.931 . S
H116 C105 0.930 . S
H117 C106 0.930 . S
H118 C107 0.930 . S
H119 C108 0.931 . S
P120 O131 1.490 1_545 S
P120 C134 1.812 1_545 S
P120 C140 1.803 . S
P120 C146 1.819 . S
H121 C135 0.941 . S
H122 C136 0.939 . S
H123 C138 0.940 . S
H124 C139 0.935 1_545 S
H125 C141 0.939 . S
H126 C142 0.942 . S
H127 C144 0.940 . S
H128 C145 0.939 . S
H129 C147 0.941 . S
H130 C151 0.939 . S
O131 P120 1.490 1_565 S
H132 C148 0.939 . S
H133 C150 0.940 . S
C134 P120 1.812 1_565 S
C134 C135 1.389 . S
C134 C139 1.391 . S
C135 H121 0.941 . S
C135 C134 1.389 . S
C135 C136 1.397 . S
C136 H122 0.939 . S
C136 C135 1.397 . S
C136 C137 1.378 . S
C137 C136 1.378 . S
C137 C138 1.378 . S
C138 H123 0.940 . S
C138 C137 1.378 . S
C138 C139 1.396 . S
C139 H124 0.935 1_565 S
C139 C134 1.391 . S
C139 C138 1.396 . S
C140 P120 1.803 . S
C140 C141 1.378 . S
C140 C145 1.400 . S
C141 H125 0.939 . S
C141 C140 1.378 . S
C141 C142 1.361 . S
C142 H126 0.942 . S
C142 C141 1.361 . S
C142 C143 1.369 . S
C143 C142 1.369 . S
C143 C144 1.404 . S
C144 H127 0.940 . S
C144 C143 1.404 . S
C144 C145 1.389 . S
C145 H128 0.939 . S
C145 C140 1.400 . S
C145 C144 1.389 . S
C146 P120 1.819 . S
C146 C147 1.391 1_545 S
C146 C151 1.391 . S
C147 H129 0.941 . S
C147 C146 1.391 1_565 S
C147 C148 1.396 . S
C148 H132 0.939 . S
C148 C147 1.396 . S
C148 C149 1.397 1_565 S
C149 C148 1.397 1_545 S
C149 C150 1.385 . S
C150 H133 0.940 . S
C150 C149 1.385 . S
C150 C151 1.388 . S
C151 H130 0.939 . S
C151 C146 1.391 . S
C151 C150 1.388 . S
P152 O163 1.490 . S
P152 C166 1.812 . S
P152 C172 1.803 . S
P152 C178 1.819 . S
H153 C167 0.941 . S
H154 C168 0.939 . S
H155 C170 0.940 . S
H156 C171 0.940 . S
H157 C173 0.939 . S
H158 C174 0.942 . S
H159 C176 0.940 . S
H160 C177 0.939 . S
H161 C179 0.941 . S
H162 C183 0.939 . S
O163 P152 1.490 . S
H164 C180 0.939 . S
H165 C182 0.940 . S
C166 P152 1.812 . S
C166 C167 1.389 . S
C166 C171 1.391 . S
C167 H153 0.941 . S
C167 C166 1.389 . S
C167 C168 1.397 . S
C168 H154 0.939 . S
C168 C167 1.397 . S
C168 C169 1.378 . S
C169 C168 1.378 . S
C169 C170 1.378 . S
C170 H155 0.940 . S
C170 C169 1.378 . S
C170 C171 1.396 . S
C171 H156 0.940 . S
C171 C166 1.391 . S
C171 C170 1.396 . S
C172 P152 1.803 . S
C172 C173 1.378 . S
C172 C177 1.400 . S
C173 H157 0.939 . S
C173 C172 1.378 . S
C173 C174 1.361 . S
C174 H158 0.942 . S
C174 C173 1.361 . S
C174 C175 1.369 . S
C175 C174 1.369 . S
C175 C176 1.404 . S
C176 H159 0.940 . S
C176 C175 1.404 . S
C176 C177 1.389 . S
C177 H160 0.939 . S
C177 C172 1.400 . S
C177 C176 1.389 . S
C178 P152 1.819 . S
C178 C179 1.391 . S
C178 C183 1.391 . S
C179 H161 0.941 . S
C179 C178 1.391 . S
C179 C180 1.396 . S
C180 H164 0.939 . S
C180 C179 1.396 . S
C180 C181 1.397 . S
C181 C180 1.397 . S
C181 C182 1.385 . S
C182 H165 0.940 . S
C182 C181 1.385 . S
C182 C183 1.388 . S
C183 H162 0.939 . S
C183 C178 1.391 . S
C183 C182 1.388 . S
P184 O195 1.490 . S
P184 C198 1.812 . S
P184 C204 1.803 . S
P184 C210 1.819 . S
H185 C199 0.941 . S
H186 C200 0.939 . S
H187 C202 0.940 . S
H188 C203 0.940 . S
H189 C205 0.939 1_455 S
H190 C206 0.942 . S
H191 C208 0.940 . S
H192 C209 0.939 1_455 S
H193 C211 0.941 . S
H194 C215 0.939 1_655 S
O195 P184 1.490 . S
H196 C212 0.939 . S
H197 C214 0.940 1_655 S
C198 P184 1.812 . S
C198 C199 1.389 . S
C198 C203 1.391 . S
C199 H185 0.941 . S
C199 C198 1.389 . S
C199 C200 1.397 . S
C200 H186 0.939 . S
C200 C199 1.397 . S
C200 C201 1.378 . S
C201 C200 1.378 . S
C201 C202 1.378 . S
C202 H187 0.940 . S
C202 C201 1.378 . S
C202 C203 1.396 . S
C203 H188 0.940 . S
C203 C198 1.391 . S
C203 C202 1.396 . S
C204 P184 1.803 . S
C204 C205 1.378 1_455 S
C204 C209 1.400 1_455 S
C205 H189 0.939 1_655 S
C205 C204 1.378 1_655 S
C205 C206 1.361 . S
C206 H190 0.942 . S
C206 C205 1.361 . S
C206 C207 1.369 . S
C207 C206 1.369 . S
C207 C208 1.404 . S
C208 H191 0.940 . S
C208 C207 1.404 . S
C208 C209 1.389 . S
C209 H192 0.939 1_655 S
C209 C204 1.400 1_655 S
C209 C208 1.389 . S
C210 P184 1.819 . S
C210 C211 1.391 . S
C210 C215 1.391 . S
C211 H193 0.941 . S
C211 C210 1.391 . S
C211 C212 1.396 . S
C212 H196 0.939 . S
C212 C211 1.396 . S
C212 C213 1.397 . S
C213 C212 1.397 . S
C213 C214 1.385 . S
C214 H197 0.940 1_455 S
C214 C213 1.385 . S
C214 C215 1.388 . S
C215 H194 0.939 1_455 S
C215 C210 1.391 . S
C215 C214 1.388 . S
P216 O227 1.490 . S
P216 C230 1.812 . S
P216 C236 1.803 . S
P216 C242 1.819 . S
H217 C231 0.941 . S
H218 C232 0.939 . S
H219 C234 0.940 . S
H220 C235 0.940 . S
H221 C237 0.939 . S
H222 C238 0.942 . S
H223 C240 0.940 . S
H224 C241 0.939 . S
H225 C243 0.941 . S
H226 C247 0.939 . S
O227 P216 1.490 . S
H228 C244 0.939 . S
H229 C246 0.940 . S
C230 P216 1.812 . S
C230 C231 1.389 . S
C230 C235 1.391 . S
C231 H217 0.941 . S
C231 C230 1.389 . S
C231 C232 1.397 . S
C232 H218 0.939 . S
C232 C231 1.397 . S
C232 C233 1.378 . S
C233 C232 1.378 . S
C233 C234 1.378 . S
C234 H219 0.940 . S
C234 C233 1.378 . S
C234 C235 1.396 . S
C235 H220 0.940 . S
C235 C230 1.391 . S
C235 C234 1.396 . S
C236 P216 1.803 . S
C236 C237 1.378 1_455 S
C236 C241 1.400 1_455 S
C237 H221 0.939 . S
C237 C236 1.378 1_655 S
C237 C238 1.361 . S
C238 H222 0.942 . S
C238 C237 1.361 . S
C238 C239 1.369 . S
C239 C238 1.369 . S
C239 C240 1.404 . S
C240 H223 0.940 . S
C240 C239 1.404 . S
C240 C241 1.389 . S
C241 H224 0.939 . S
C241 C236 1.400 1_655 S
C241 C240 1.389 . S
C242 P216 1.819 . S
C242 C243 1.391 . S
C242 C247 1.391 1_455 S
C243 H225 0.941 . S
C243 C242 1.391 . S
C243 C244 1.396 . S
C244 H228 0.939 . S
C244 C243 1.396 . S
C244 C245 1.397 . S
C245 C244 1.397 . S
C245 C246 1.385 1_455 S
C246 H229 0.940 . S
C246 C245 1.385 1_655 S
C246 C247 1.388 . S
C247 H226 0.939 . S
C247 C242 1.391 1_655 S
C247 C246 1.388 . S
P248 O259 1.490 . S
P248 C262 1.812 . S
P248 C268 1.803 1_545 S
P248 C274 1.819 . S
H249 C263 0.941 . S
H250 C264 0.939 . S
H251 C266 0.940 . S
H252 C267 0.940 . S
H253 C269 0.939 . S
H254 C270 0.942 . S
H255 C272 0.940 . S
H256 C273 0.939 . S
H257 C275 0.941 . S
H258 C279 0.939 . S
O259 P248 1.490 . S
H260 C276 0.939 . S
H261 C278 0.940 . S
C262 P248 1.812 . S
C262 C263 1.389 . S
C262 C267 1.391 . S
C263 H249 0.941 . S
C263 C262 1.389 . S
C263 C264 1.397 . S
C264 H250 0.939 . S
C264 C263 1.397 . S
C264 C265 1.378 . S
C265 C264 1.378 . S
C265 C266 1.378 . S
C266 H251 0.940 . S
C266 C265 1.378 . S
C266 C267 1.396 . S
C267 H252 0.940 . S
C267 C262 1.391 . S
C267 C266 1.396 . S
C268 P248 1.803 1_565 S
C268 C269 1.378 . S
C268 C273 1.400 . S
C269 H253 0.939 . S
C269 C268 1.378 . S
C269 C270 1.361 . S
C270 H254 0.942 . S
C270 C269 1.361 . S
C270 C271 1.369 . S
C271 C270 1.369 . S
C271 C272 1.404 . S
C272 H255 0.940 . S
C272 C271 1.404 . S
C272 C273 1.389 . S
C273 H256 0.939 . S
C273 C268 1.400 . S
C273 C272 1.389 . S
C274 P248 1.819 . S
C274 C275 1.391 . S
C274 C279 1.391 1_545 S
C275 H257 0.941 . S
C275 C274 1.391 . S
C275 C276 1.396 . S
C276 H260 0.939 . S
C276 C275 1.396 . S
C276 C277 1.397 . S
C277 C276 1.397 . S
C277 C278 1.385 1_545 S
C278 H261 0.940 . S
C278 C277 1.385 1_565 S
C278 C279 1.388 . S
C279 H258 0.939 . S
C279 C274 1.391 1_565 S
C279 C278 1.388 . S
P280 O291 1.490 . S
P280 C294 1.812 . S
P280 C300 1.803 . S
P280 C306 1.819 . S
H281 C295 0.941 . S
H282 C296 0.939 . S
H283 C298 0.940 . S
H284 C299 0.940 . S
H285 C301 0.939 . S
H286 C302 0.942 . S
H287 C304 0.940 . S
H288 C305 0.939 . S
H289 C307 0.941 . S
H290 C311 0.939 . S
O291 P280 1.490 . S
H292 C308 0.939 . S
H293 C310 0.940 . S
C294 P280 1.812 . S
C294 C295 1.389 . S
C294 C299 1.391 . S
C295 H281 0.941 . S
C295 C294 1.389 . S
C295 C296 1.397 . S
C296 H282 0.939 . S
C296 C295 1.397 . S
C296 C297 1.378 . S
C297 C296 1.378 . S
C297 C298 1.378 . S
C298 H283 0.940 . S
C298 C297 1.378 . S
C298 C299 1.396 . S
C299 H284 0.940 . S
C299 C294 1.391 . S
C299 C298 1.396 . S
C300 P280 1.803 . S
C300 C301 1.378 . S
C300 C305 1.400 . S
C301 H285 0.939 . S
C301 C300 1.378 . S
C301 C302 1.361 . S
C302 H286 0.942 . S
C302 C301 1.361 . S
C302 C303 1.369 . S
C303 C302 1.369 . S
C303 C304 1.404 . S
C304 H287 0.940 . S
C304 C303 1.404 . S
C304 C305 1.389 . S
C305 H288 0.939 . S
C305 C300 1.400 . S
C305 C304 1.389 . S
C306 P280 1.819 . S
C306 C307 1.391 . S
C306 C311 1.391 . S
C307 H289 0.941 . S
C307 C306 1.391 . S
C307 C308 1.396 . S
C308 H292 0.939 . S
C308 C307 1.396 . S
C308 C309 1.397 . S
C309 C308 1.397 . S
C309 C310 1.385 . S
C310 H293 0.940 . S
C310 C309 1.385 . S
C310 C311 1.388 . S
C311 H290 0.939 . S
C311 C306 1.391 . S
C311 C310 1.388 . S
H312 C320 0.929 . S
H313 C322 0.930 . S
H314 C324 0.930 . S
H315 C327 0.929 . S
H316 C330 0.930 . S
H317 C332 0.960 . S
H318 C332 0.960 . S
H319 C332 0.960 . S
C320 H312 0.929 . S
C320 C321 1.377 . S
C320 C322 1.384 . S
C321 C320 1.377 . S
C321 C327 1.390 . S
C322 H313 0.930 . S
C322 C320 1.384 . S
C322 C323 1.372 . S
C323 C322 1.372 . S
C323 C324 1.400 . S
C323 C328 1.490 . S
C324 H314 0.930 . S
C324 C323 1.400 . S
C324 C327 1.386 . S
H325 C341 0.930 . S
H326 C342 0.931 . S
C327 H315 0.929 . S
C327 C321 1.390 . S
C327 C324 1.386 . S
C328 C323 1.490 . S
C328 C330 1.395 . S
C328 C331 1.403 . S
H329 C335 0.930 . S
C330 H316 0.930 . S
C330 C328 1.395 . S
C330 C333 1.403 . S
C331 C328 1.403 . S
C331 C332 1.524 . S
C331 C335 1.400 . S
C332 H317 0.960 . S
C332 H318 0.960 . S
C332 H319 0.960 . S
C332 C331 1.524 . S
C333 C330 1.403 . S
C333 C334 1.392 . S
C333 C337 1.495 . S
C334 C333 1.392 . S
C334 C335 1.385 . S
C334 C336 1.478 . S
C335 H329 0.930 . S
C335 C331 1.400 . S
C335 C334 1.385 . S
C336 C334 1.478 . S
C336 C338 1.381 . S
C336 C342 1.383 . S
C337 C333 1.495 . S
C337 H343 0.959 . S
C337 H344 0.961 . S
C337 H345 0.960 . S
C338 C336 1.381 . S
C338 C339 1.394 . S
C338 H346 0.930 . S
C339 C338 1.394 . S
C339 C340 1.383 . S
C339 H347 0.929 . S
C340 C339 1.383 . S
C340 C341 1.377 . S
C341 H325 0.930 . S
C341 C340 1.377 . S
C341 C342 1.379 . S
C342 H326 0.931 . S
C342 C336 1.383 . S
C342 C341 1.379 . S
H343 C337 0.959 . S
H344 C337 0.961 . S
H345 C337 0.960 . S
H346 C338 0.930 . S
H347 C339 0.929 . S
H348 C356 0.929 . S
H349 C358 0.930 . S
H350 C360 0.930 . S
H351 C363 0.929 . S
H352 C366 0.930 . S
H353 C368 0.960 . S
H354 C368 0.960 . S
H355 C368 0.960 . S
C356 H348 0.929 . S
C356 C357 1.377 . S
C356 C358 1.384 . S
C357 C356 1.377 . S
C357 C363 1.390 . S
C358 H349 0.930 . S
C358 C356 1.384 . S
C358 C359 1.372 . S
C359 C358 1.372 . S
C359 C360 1.400 . S
C359 C364 1.490 . S
C360 H350 0.930 . S
C360 C359 1.400 . S
C360 C363 1.386 . S
H361 C377 0.930 . S
H362 C378 0.931 . S
C363 H351 0.929 . S
C363 C357 1.390 . S
C363 C360 1.386 . S
C364 C359 1.490 . S
C364 C366 1.395 . S
C364 C367 1.403 . S
H365 C371 0.930 . S
C366 H352 0.930 . S
C366 C364 1.395 . S
C366 C369 1.403 . S
C367 C364 1.403 . S
C367 C368 1.524 . S
C367 C371 1.400 . S
C368 H353 0.960 . S
C368 H354 0.960 . S
C368 H355 0.960 . S
C368 C367 1.524 . S
C369 C366 1.403 . S
C369 C370 1.392 . S
C369 C373 1.495 . S
C370 C369 1.392 . S
C370 C371 1.385 . S
C370 C372 1.478 . S
C371 H365 0.930 . S
C371 C367 1.400 . S
C371 C370 1.385 . S
C372 C370 1.478 . S
C372 C374 1.381 . S
C372 C378 1.383 . S
C373 C369 1.495 . S
C373 H379 0.959 . S
C373 H380 0.961 . S
C373 H381 0.960 . S
C374 C372 1.381 . S
C374 C375 1.394 . S
C374 H382 0.930 . S
C375 C374 1.394 . S
C375 C376 1.383 . S
C375 H383 0.929 . S
C376 C375 1.383 . S
C376 C377 1.377 . S
C377 H361 0.930 . S
C377 C376 1.377 . S
C377 C378 1.379 . S
C378 H362 0.931 . S
C378 C372 1.383 . S
C378 C377 1.379 . S
H379 C373 0.959 . S
H380 C373 0.961 . S
H381 C373 0.960 . S
H382 C374 0.930 . S
H383 C375 0.929 . S
H384 C392 0.929 . S
H385 C394 0.930 . S
H386 C396 0.930 . S
H387 C399 0.929 . S
H388 C402 0.930 . S
H389 C404 0.960 . S
H390 C404 0.960 . S
H391 C404 0.960 . S
C392 H384 0.929 . S
C392 C393 1.377 . S
C392 C394 1.384 . S
C393 C392 1.377 . S
C393 C399 1.390 . S
C394 H385 0.930 . S
C394 C392 1.384 . S
C394 C395 1.372 . S
C395 C394 1.372 . S
C395 C396 1.400 . S
C395 C400 1.490 . S
C396 H386 0.930 . S
C396 C395 1.400 . S
C396 C399 1.386 . S
H397 C413 0.930 . S
H398 C414 0.931 . S
C399 H387 0.929 . S
C399 C393 1.390 . S
C399 C396 1.386 . S
C400 C395 1.490 . S
C400 C402 1.395 . S
C400 C403 1.403 . S
H401 C407 0.930 . S
C402 H388 0.930 . S
C402 C400 1.395 . S
C402 C405 1.403 . S
C403 C400 1.403 . S
C403 C404 1.524 . S
C403 C407 1.400 . S
C404 H389 0.960 . S
C404 H390 0.960 . S
C404 H391 0.960 . S
C404 C403 1.524 . S
C405 C402 1.403 . S
C405 C406 1.392 . S
C405 C409 1.495 . S
C406 C405 1.392 . S
C406 C407 1.385 . S
C406 C408 1.478 . S
C407 H401 0.930 . S
C407 C403 1.400 . S
C407 C406 1.385 . S
C408 C406 1.478 . S
C408 C410 1.381 . S
C408 C414 1.383 . S
C409 C405 1.495 . S
C409 H415 0.959 . S
C409 H416 0.961 . S
C409 H417 0.960 . S
C410 C408 1.381 . S
C410 C411 1.394 . S
C410 H418 0.930 . S
C411 C410 1.394 . S
C411 C412 1.383 . S
C411 H419 0.929 . S
C412 C411 1.383 . S
C412 C413 1.377 . S
C413 H397 0.930 . S
C413 C412 1.377 . S
C413 C414 1.379 . S
C414 H398 0.931 . S
C414 C408 1.383 . S
C414 C413 1.379 . S
H415 C409 0.959 . S
H416 C409 0.961 . S
H417 C409 0.960 . S
H418 C410 0.930 . S
H419 C411 0.929 . S
H420 C428 0.929 . S
H421 C430 0.930 . S
H422 C432 0.930 . S
H423 C435 0.929 . S
H424 C438 0.930 . S
H425 C440 0.960 . S
H426 C440 0.960 . S
H427 C440 0.960 . S
C428 H420 0.929 . S
C428 C429 1.377 . S
C428 C430 1.384 . S
C429 C428 1.377 . S
C429 C435 1.390 . S
C430 H421 0.930 . S
C430 C428 1.384 . S
C430 C431 1.372 . S
C431 C430 1.372 . S
C431 C432 1.400 . S
C431 C436 1.490 . S
C432 H422 0.930 . S
C432 C431 1.400 . S
C432 C435 1.386 . S
H433 C449 0.930 . S
H434 C450 0.931 . S
C435 H423 0.929 . S
C435 C429 1.390 . S
C435 C432 1.386 . S
C436 C431 1.490 . S
C436 C438 1.395 . S
C436 C439 1.403 . S
H437 C443 0.930 . S
C438 H424 0.930 . S
C438 C436 1.395 . S
C438 C441 1.403 . S
C439 C436 1.403 . S
C439 C440 1.524 . S
C439 C443 1.400 . S
C440 H425 0.960 . S
C440 H426 0.960 . S
C440 H427 0.960 . S
C440 C439 1.524 . S
C441 C438 1.403 . S
C441 C442 1.392 . S
C441 C445 1.495 . S
C442 C441 1.392 . S
C442 C443 1.385 . S
C442 C444 1.478 . S
C443 H437 0.930 . S
C443 C439 1.400 . S
C443 C442 1.385 . S
C444 C442 1.478 . S
C444 C446 1.381 . S
C444 C450 1.383 . S
C445 C441 1.495 . S
C445 H451 0.959 . S
C445 H452 0.961 . S
C445 H453 0.960 . S
C446 C444 1.381 . S
C446 C447 1.394 . S
C446 H454 0.930 . S
C447 C446 1.394 . S
C447 C448 1.383 . S
C447 H455 0.929 . S
C448 C447 1.383 . S
C448 C449 1.377 . S
C449 H433 0.930 . S
C449 C448 1.377 . S
C449 C450 1.379 . S
C450 H434 0.931 . S
C450 C444 1.383 . S
C450 C449 1.379 . S
H451 C445 0.959 . S
H452 C445 0.961 . S
H453 C445 0.960 . S
H454 C446 0.930 . S
H455 C447 0.929 . S
H456 C464 0.929 . S
H457 C466 0.930 . S
H458 C468 0.930 . S
H459 C471 0.929 . S
H460 C474 0.930 . S
H461 C476 0.960 . S
H462 C476 0.960 . S
H463 C476 0.960 . S
C464 H456 0.929 . S
C464 C465 1.377 . S
C464 C466 1.384 . S
C465 C464 1.377 . S
C465 C471 1.390 . S
C466 H457 0.930 . S
C466 C464 1.384 . S
C466 C467 1.372 . S
C467 C466 1.372 . S
C467 C468 1.400 . S
C467 C472 1.490 . S
C468 H458 0.930 . S
C468 C467 1.400 . S
C468 C471 1.386 . S
H469 C485 0.930 . S
H470 C486 0.931 . S
C471 H459 0.929 . S
C471 C465 1.390 . S
C471 C468 1.386 . S
C472 C467 1.490 . S
C472 C474 1.395 . S
C472 C475 1.403 . S
H473 C479 0.930 . S
C474 H460 0.930 . S
C474 C472 1.395 . S
C474 C477 1.403 . S
C475 C472 1.403 . S
C475 C476 1.524 . S
C475 C479 1.400 . S
C476 H461 0.960 . S
C476 H462 0.960 . S
C476 H463 0.960 . S
C476 C475 1.524 . S
C477 C474 1.403 . S
C477 C478 1.392 . S
C477 C481 1.495 . S
C478 C477 1.392 . S
C478 C479 1.385 . S
C478 C480 1.478 . S
C479 H473 0.930 . S
C479 C475 1.400 . S
C479 C478 1.385 . S
C480 C478 1.478 . S
C480 C482 1.381 . S
C480 C486 1.383 . S
C481 C477 1.495 . S
C481 H487 0.959 . S
C481 H488 0.961 . S
C481 H489 0.960 . S
C482 C480 1.381 . S
C482 C483 1.394 . S
C482 H490 0.930 . S
C483 C482 1.394 . S
C483 C484 1.383 . S
C483 H491 0.929 . S
C484 C483 1.383 . S
C484 C485 1.377 . S
C485 H469 0.930 . S
C485 C484 1.377 . S
C485 C486 1.379 . S
C486 H470 0.931 . S
C486 C480 1.383 . S
C486 C485 1.379 . S
H487 C481 0.959 . S
H488 C481 0.961 . S
H489 C481 0.960 . S
H490 C482 0.930 . S
H491 C483 0.929 . S
H492 C500 0.929 . S
H493 C502 0.930 . S
H494 C504 0.930 . S
H495 C507 0.929 . S
H496 C510 0.930 . S
H497 C512 0.960 . S
H498 C512 0.960 . S
H499 C512 0.960 . S
C500 H492 0.929 . S
C500 C501 1.377 . S
C500 C502 1.384 . S
C501 C500 1.377 . S
C501 C507 1.390 . S
C502 H493 0.930 . S
C502 C500 1.384 . S
C502 C503 1.372 . S
C503 C502 1.372 . S
C503 C504 1.400 . S
C503 C508 1.490 . S
C504 H494 0.930 . S
C504 C503 1.400 . S
C504 C507 1.386 . S
H505 C521 0.930 . S
H506 C522 0.931 . S
C507 H495 0.929 . S
C507 C501 1.390 . S
C507 C504 1.386 . S
C508 C503 1.490 . S
C508 C510 1.395 . S
C508 C511 1.403 . S
H509 C515 0.930 . S
C510 H496 0.930 . S
C510 C508 1.395 . S
C510 C513 1.403 . S
C511 C508 1.403 . S
C511 C512 1.524 . S
C511 C515 1.400 . S
C512 H497 0.960 . S
C512 H498 0.960 . S
C512 H499 0.960 . S
C512 C511 1.524 . S
C513 C510 1.403 . S
C513 C514 1.392 . S
C513 C517 1.495 . S
C514 C513 1.392 . S
C514 C515 1.385 . S
C514 C516 1.478 . S
C515 H509 0.930 . S
C515 C511 1.400 . S
C515 C514 1.385 . S
C516 C514 1.478 . S
C516 C518 1.381 . S
C516 C522 1.383 . S
C517 C513 1.495 . S
C517 H523 0.959 . S
C517 H524 0.961 . S
C517 H525 0.960 . S
C518 C516 1.381 . S
C518 C519 1.394 . S
C518 H526 0.930 . S
C519 C518 1.394 . S
C519 C520 1.383 . S
C519 H527 0.929 . S
C520 C519 1.383 . S
C520 C521 1.377 . S
C521 H505 0.930 . S
C521 C520 1.377 . S
C521 C522 1.379 . S
C522 H506 0.931 . S
C522 C516 1.383 . S
C522 C521 1.379 . S
H523 C517 0.959 . S
H524 C517 0.961 . S
H525 C517 0.960 . S
H526 C518 0.930 . S
H527 C519 0.929 . S
H528 C536 0.929 . S
H529 C538 0.930 . S
H530 C540 0.930 . S
H531 C543 0.929 . S
H532 C546 0.930 . S
H533 C548 0.960 . S
H534 C548 0.960 . S
H535 C548 0.960 . S
C536 H528 0.929 . S
C536 C537 1.377 . S
C536 C538 1.384 . S
C537 C536 1.377 . S
C537 C543 1.390 . S
C538 H529 0.930 . S
C538 C536 1.384 . S
C538 C539 1.372 . S
C539 C538 1.372 . S
C539 C540 1.400 . S
C539 C544 1.490 . S
C540 H530 0.930 . S
C540 C539 1.400 . S
C540 C543 1.386 . S
H541 C557 0.930 . S
H542 C558 0.931 . S
C543 H531 0.929 . S
C543 C537 1.390 . S
C543 C540 1.386 . S
C544 C539 1.490 . S
C544 C546 1.395 . S
C544 C547 1.403 . S
H545 C551 0.930 . S
C546 H532 0.930 . S
C546 C544 1.395 . S
C546 C549 1.403 . S
C547 C544 1.403 . S
C547 C548 1.524 . S
C547 C551 1.400 . S
C548 H533 0.960 . S
C548 H534 0.960 . S
C548 H535 0.960 . S
C548 C547 1.524 . S
C549 C546 1.403 . S
C549 C550 1.392 . S
C549 C553 1.495 . S
C550 C549 1.392 . S
C550 C551 1.385 . S
C550 C552 1.478 . S
C551 H545 0.930 . S
C551 C547 1.400 . S
C551 C550 1.385 . S
C552 C550 1.478 . S
C552 C554 1.381 . S
C552 C558 1.383 . S
C553 C549 1.495 . S
C553 H559 0.959 . S
C553 H560 0.961 . S
C553 H561 0.960 . S
C554 C552 1.381 . S
C554 C555 1.394 . S
C554 H562 0.930 . S
C555 C554 1.394 . S
C555 C556 1.383 . S
C555 H563 0.929 . S
C556 C555 1.383 . S
C556 C557 1.377 . S
C557 H541 0.930 . S
C557 C556 1.377 . S
C557 C558 1.379 . S
C558 H542 0.931 . S
C558 C552 1.383 . S
C558 C557 1.379 . S
H559 C553 0.959 . S
H560 C553 0.961 . S
H561 C553 0.960 . S
H562 C554 0.930 . S
H563 C555 0.929 . S
H564 C572 0.929 . S
H565 C574 0.930 . S
H566 C576 0.930 . S
H567 C579 0.929 . S
H568 C582 0.930 . S
H569 C584 0.960 . S
H570 C584 0.960 . S
H571 C584 0.960 . S
C572 H564 0.929 . S
C572 C573 1.377 . S
C572 C574 1.384 . S
C573 C572 1.377 . S
C573 C579 1.390 . S
C574 H565 0.930 . S
C574 C572 1.384 . S
C574 C575 1.372 . S
C575 C574 1.372 . S
C575 C576 1.400 . S
C575 C580 1.490 . S
C576 H566 0.930 . S
C576 C575 1.400 . S
C576 C579 1.386 . S
H577 C593 0.930 . S
H578 C594 0.931 . S
C579 H567 0.929 . S
C579 C573 1.390 . S
C579 C576 1.386 . S
C580 C575 1.490 . S
C580 C582 1.395 . S
C580 C583 1.403 . S
H581 C587 0.930 . S
C582 H568 0.930 . S
C582 C580 1.395 . S
C582 C585 1.403 . S
C583 C580 1.403 . S
C583 C584 1.524 . S
C583 C587 1.400 . S
C584 H569 0.960 . S
C584 H570 0.960 . S
C584 H571 0.960 . S
C584 C583 1.524 . S
C585 C582 1.403 . S
C585 C586 1.392 . S
C585 C589 1.495 . S
C586 C585 1.392 . S
C586 C587 1.385 . S
C586 C588 1.478 . S
C587 H581 0.930 . S
C587 C583 1.400 . S
C587 C586 1.385 . S
C588 C586 1.478 . S
C588 C590 1.381 . S
C588 C594 1.383 . S
C589 C585 1.495 . S
C589 H595 0.959 . S
C589 H596 0.961 . S
C589 H597 0.960 . S
C590 C588 1.381 . S
C590 C591 1.394 . S
C590 H598 0.930 . S
C591 C590 1.394 . S
C591 C592 1.383 . S
C591 H599 0.929 . S
C592 C591 1.383 . S
C592 C593 1.377 . S
C593 H577 0.930 . S
C593 C592 1.377 . S
C593 C594 1.379 . S
C594 H578 0.931 . S
C594 C588 1.383 . S
C594 C593 1.379 . S
H595 C589 0.959 . S
H596 C589 0.961 . S
H597 C589 0.960 . S
H598 C590 0.930 . S
H599 C591 0.929 . S
H600 C608 0.929 . S
H601 C610 0.930 . S
H602 C612 0.930 . S
H603 C615 0.929 . S
H604 C618 0.930 . S
H605 C620 0.960 . S
H606 C620 0.960 . S
H607 C620 0.960 . S
C608 H600 0.929 . S
C608 C609 1.377 . S
C608 C610 1.384 . S
C609 C608 1.377 . S
C609 C615 1.390 . S
C610 H601 0.930 . S
C610 C608 1.384 . S
C610 C611 1.372 . S
C611 C610 1.372 . S
C611 C612 1.400 . S
C611 C616 1.490 . S
C612 H602 0.930 . S
C612 C611 1.400 . S
C612 C615 1.386 . S
H613 C629 0.930 . S
H614 C630 0.931 . S
C615 H603 0.929 . S
C615 C609 1.390 . S
C615 C612 1.386 . S
C616 C611 1.490 . S
C616 C618 1.395 . S
C616 C619 1.403 . S
H617 C623 0.930 . S
C618 H604 0.930 . S
C618 C616 1.395 . S
C618 C621 1.403 . S
C619 C616 1.403 . S
C619 C620 1.524 . S
C619 C623 1.400 . S
C620 H605 0.960 . S
C620 H606 0.960 . S
C620 H607 0.960 . S
C620 C619 1.524 . S
C621 C618 1.403 . S
C621 C622 1.392 . S
C621 C625 1.495 . S
C622 C621 1.392 . S
C622 C623 1.385 . S
C622 C624 1.478 . S
C623 H617 0.930 . S
C623 C619 1.400 . S
C623 C622 1.385 . S
C624 C622 1.478 . S
C624 C626 1.381 . S
C624 C630 1.383 . S
C625 C621 1.495 . S
C625 H631 0.959 . S
C625 H632 0.961 . S
C625 H633 0.960 . S
C626 C624 1.381 . S
C626 C627 1.394 . S
C626 H634 0.930 . S
C627 C626 1.394 . S
C627 C628 1.383 . S
C627 H635 0.929 . S
C628 C627 1.383 . S
C628 C629 1.377 . S
C629 H613 0.930 . S
C629 C628 1.377 . S
C629 C630 1.379 . S
C630 H614 0.931 . S
C630 C624 1.383 . S
C630 C629 1.379 . S
H631 C625 0.959 . S
H632 C625 0.961 . S
H633 C625 0.960 . S
H634 C626 0.930 . S
H635 C627 0.929 . S
H636 C644 0.929 . S
H637 C646 0.930 . S
H638 C648 0.930 . S
H639 C651 0.929 . S
H640 C654 0.930 . S
H641 C656 0.960 . S
H642 C656 0.960 . S
H643 C656 0.960 . S
C644 H636 0.929 . S
C644 C645 1.377 . S
C644 C646 1.384 . S
C645 C644 1.377 . S
C645 C651 1.390 . S
C646 H637 0.930 . S
C646 C644 1.384 . S
C646 C647 1.372 . S
C647 C646 1.372 . S
C647 C648 1.400 . S
C647 C652 1.490 . S
C648 H638 0.930 . S
C648 C647 1.400 . S
C648 C651 1.386 . S
H649 C665 0.930 . S
H650 C666 0.931 . S
C651 H639 0.929 . S
C651 C645 1.390 . S
C651 C648 1.386 . S
C652 C647 1.490 . S
C652 C654 1.395 . S
C652 C655 1.403 . S
H653 C659 0.930 . S
C654 H640 0.930 . S
C654 C652 1.395 . S
C654 C657 1.403 . S
C655 C652 1.403 . S
C655 C656 1.524 . S
C655 C659 1.400 . S
C656 H641 0.960 . S
C656 H642 0.960 . S
C656 H643 0.960 . S
C656 C655 1.524 . S
C657 C654 1.403 . S
C657 C658 1.392 . S
C657 C661 1.495 . S
C658 C657 1.392 . S
C658 C659 1.385 . S
C658 C660 1.478 . S
C659 H653 0.930 . S
C659 C655 1.400 . S
C659 C658 1.385 . S
C660 C658 1.478 . S
C660 C662 1.381 . S
C660 C666 1.383 . S
C661 C657 1.495 . S
C661 H667 0.959 . S
C661 H668 0.961 . S
C661 H669 0.960 . S
C662 C660 1.381 . S
C662 C663 1.394 . S
C662 H670 0.930 . S
C663 C662 1.394 . S
C663 C664 1.383 . S
C663 H671 0.929 . S
C664 C663 1.383 . S
C664 C665 1.377 . S
C665 H649 0.930 . S
C665 C664 1.377 . S
C665 C666 1.379 . S
C666 H650 0.931 . S
C666 C660 1.383 . S
C666 C665 1.379 . S
H667 C661 0.959 . S
H668 C661 0.961 . S
H669 C661 0.960 . S
H670 C662 0.930 . S
H671 C663 0.929 . S
H672 C680 0.929 . S
H673 C682 0.930 . S
H674 C684 0.930 . S
H675 C687 0.929 . S
H676 C690 0.930 . S
H677 C692 0.960 . S
H678 C692 0.960 . S
H679 C692 0.960 . S
C680 H672 0.929 . S
C680 C681 1.377 . S
C680 C682 1.384 . S
C681 C680 1.377 . S
C681 C687 1.390 . S
C682 H673 0.930 . S
C682 C680 1.384 . S
C682 C683 1.372 . S
C683 C682 1.372 . S
C683 C684 1.400 . S
C683 C688 1.490 . S
C684 H674 0.930 . S
C684 C683 1.400 . S
C684 C687 1.386 . S
H685 C701 0.930 . S
H686 C702 0.931 . S
C687 H675 0.929 . S
C687 C681 1.390 . S
C687 C684 1.386 . S
C688 C683 1.490 . S
C688 C690 1.395 . S
C688 C691 1.403 . S
H689 C695 0.930 . S
C690 H676 0.930 . S
C690 C688 1.395 . S
C690 C693 1.403 . S
C691 C688 1.403 . S
C691 C692 1.524 . S
C691 C695 1.400 . S
C692 H677 0.960 . S
C692 H678 0.960 . S
C692 H679 0.960 . S
C692 C691 1.524 . S
C693 C690 1.403 . S
C693 C694 1.392 . S
C693 C697 1.495 . S
C694 C693 1.392 . S
C694 C695 1.385 . S
C694 C696 1.478 . S
C695 H689 0.930 . S
C695 C691 1.400 . S
C695 C694 1.385 . S
C696 C694 1.478 . S
C696 C698 1.381 . S
C696 C702 1.383 . S
C697 C693 1.495 . S
C697 H703 0.959 . S
C697 H704 0.961 . S
C697 H705 0.960 . S
C698 C696 1.381 . S
C698 C699 1.394 . S
C698 H706 0.930 . S
C699 C698 1.394 . S
C699 C700 1.383 . S
C699 H707 0.929 . S
C700 C699 1.383 . S
C700 C701 1.377 . S
C701 H685 0.930 . S
C701 C700 1.377 . S
C701 C702 1.379 . S
C702 H686 0.931 . S
C702 C696 1.383 . S
C702 C701 1.379 . S
H703 C697 0.959 . S
H704 C697 0.961 . S
H705 C697 0.960 . S
H706 C698 0.930 . S
H707 C699 0.929 . S
H708 C716 0.929 . S
H709 C718 0.930 . S
H710 C720 0.930 . S
H711 C723 0.929 . S
H712 C726 0.930 . S
H713 C728 0.960 . S
H714 C728 0.960 . S
H715 C728 0.960 . S
C716 H708 0.929 . S
C716 C717 1.377 . S
C716 C718 1.384 . S
C717 C716 1.377 . S
C717 C723 1.390 . S
C718 H709 0.930 . S
C718 C716 1.384 . S
C718 C719 1.372 . S
C719 C718 1.372 . S
C719 C720 1.400 . S
C719 C724 1.490 . S
C720 H710 0.930 . S
C720 C719 1.400 . S
C720 C723 1.386 . S
H721 C737 0.930 . S
H722 C738 0.931 . S
C723 H711 0.929 . S
C723 C717 1.390 . S
C723 C720 1.386 . S
C724 C719 1.490 . S
C724 C726 1.395 . S
C724 C727 1.403 . S
H725 C731 0.930 . S
C726 H712 0.930 . S
C726 C724 1.395 . S
C726 C729 1.403 . S
C727 C724 1.403 . S
C727 C728 1.524 . S
C727 C731 1.400 . S
C728 H713 0.960 . S
C728 H714 0.960 . S
C728 H715 0.960 . S
C728 C727 1.524 . S
C729 C726 1.403 . S
C729 C730 1.392 . S
C729 C733 1.495 . S
C730 C729 1.392 . S
C730 C731 1.385 . S
C730 C732 1.478 . S
C731 H725 0.930 . S
C731 C727 1.400 . S
C731 C730 1.385 . S
C732 C730 1.478 . S
C732 C734 1.381 . S
C732 C738 1.383 . S
C733 C729 1.495 . S
C733 H739 0.959 . S
C733 H740 0.961 . S
C733 H741 0.960 . S
C734 C732 1.381 . S
C734 C735 1.394 . S
C734 H742 0.930 . S
C735 C734 1.394 . S
C735 C736 1.383 . S
C735 H743 0.929 . S
C736 C735 1.383 . S
C736 C737 1.377 . S
C737 H721 0.930 . S
C737 C736 1.377 . S
C737 C738 1.379 . S
C738 H722 0.931 . S
C738 C732 1.383 . S
C738 C737 1.379 . S
H739 C733 0.959 . S
H740 C733 0.961 . S
H741 C733 0.960 . S
H742 C734 0.930 . S
H743 C735 0.929 . S
H744 C752 0.929 . S
H745 C754 0.930 . S
H746 C756 0.930 . S
H747 C759 0.929 . S
H748 C762 0.930 . S
H749 C764 0.960 . S
H750 C764 0.960 . S
H751 C764 0.960 . S
C752 H744 0.929 . S
C752 C753 1.377 . S
C752 C754 1.384 . S
C753 C752 1.377 . S
C753 C759 1.390 1_455 S
C754 H745 0.930 . S
C754 C752 1.384 . S
C754 C755 1.372 . S
C755 C754 1.372 . S
C755 C756 1.400 1_455 S
C755 C760 1.490 . S
C756 H746 0.930 . S
C756 C755 1.400 1_655 S
C756 C759 1.386 . S
H757 C773 0.930 . S
H758 C774 0.931 . S
C759 H747 0.929 . S
C759 C753 1.390 1_655 S
C759 C756 1.386 . S
C760 C755 1.490 . S
C760 C762 1.395 . S
C760 C763 1.403 1_455 S
H761 C767 0.930 . S
C762 H748 0.930 . S
C762 C760 1.395 . S
C762 C765 1.403 . S
C763 C760 1.403 1_655 S
C763 C764 1.524 . S
C763 C767 1.400 . S
C764 H749 0.960 . S
C764 H750 0.960 . S
C764 H751 0.960 . S
C764 C763 1.524 . S
C765 C762 1.403 . S
C765 C766 1.392 . S
C765 C769 1.495 . S
C766 C765 1.392 . S
C766 C767 1.385 1_455 S
C766 C768 1.478 . S
C767 H761 0.930 . S
C767 C763 1.400 . S
C767 C766 1.385 1_655 S
C768 C766 1.478 . S
C768 C770 1.381 1_554 S
C768 C774 1.383 1_554 S
C769 C765 1.495 . S
C769 H775 0.959 . S
C769 H776 0.961 . S
C769 H777 0.960 . S
C770 C768 1.381 1_556 S
C770 C771 1.394 . S
C770 H778 0.930 1_556 S
C771 C770 1.394 . S
C771 C772 1.383 . S
C771 H779 0.929 . S
C772 C771 1.383 . S
C772 C773 1.377 . S
C773 H757 0.930 . S
C773 C772 1.377 . S
C773 C774 1.379 . S
C774 H758 0.931 . S
C774 C768 1.383 1_556 S
C774 C773 1.379 . S
H775 C769 0.959 . S
H776 C769 0.961 . S
H777 C769 0.960 . S
H778 C770 0.930 1_554 S
H779 C771 0.929 . S
H780 C788 0.929 . S
H781 C790 0.930 . S
H782 C792 0.930 . S
H783 C795 0.929 . S
H784 C798 0.930 . S
H785 C800 0.960 . S
H786 C800 0.960 . S
H787 C800 0.960 . S
C788 H780 0.929 . S
C788 C789 1.377 . S
C788 C790 1.384 . S
C789 C788 1.377 . S
C789 C795 1.390 1_545 S
C790 H781 0.930 . S
C790 C788 1.384 . S
C790 C791 1.372 . S
C791 C790 1.372 . S
C791 C792 1.400 1_545 S
C791 C796 1.490 . S
C792 H782 0.930 . S
C792 C791 1.400 1_565 S
C792 C795 1.386 . S
H793 C809 0.919 1_565 S
H794 C810 0.925 1_565 S
C795 H783 0.929 . S
C795 C789 1.390 1_565 S
C795 C792 1.386 . S
C796 C791 1.490 . S
C796 C798 1.395 . S
C796 C799 1.403 1_545 S
H797 C803 0.934 . S
C798 H784 0.930 . S
C798 C796 1.395 . S
C798 C801 1.403 . S
C799 C796 1.403 1_565 S
C799 C800 1.524 . S
C799 C803 1.402 . S
C800 H785 0.960 . S
C800 H786 0.960 . S
C800 H787 0.960 . S
C800 C799 1.524 . S
C801 C798 1.403 . S
C801 C802 1.392 . S
C801 C805 1.495 . S
C802 C801 1.392 . S
C802 C803 1.380 1_545 S
C802 C804 1.478 . S
C803 H797 0.934 . S
C803 C799 1.402 . S
C803 C802 1.380 1_565 S
C804 C802 1.478 . S
C804 C806 1.381 . S
C804 C810 1.387 . S
C805 C801 1.495 . S
C805 H811 0.959 . S
C805 H812 0.961 . S
C805 H813 0.960 . S
C806 C804 1.381 . S
C806 C807 1.394 . S
C806 H814 0.930 . S
C807 C806 1.394 . S
C807 C808 1.383 . S
C807 H815 0.929 . S
C808 C807 1.383 . S
C808 C809 1.389 . S
C809 H793 0.919 1_545 S
C809 C808 1.389 . S
C809 C810 1.378 . S
C810 H794 0.925 1_545 S
C810 C804 1.387 . S
C810 C809 1.378 . S
H811 C805 0.959 . S
H812 C805 0.961 . S
H813 C805 0.960 . S
H814 C806 0.930 . S
H815 C807 0.929 . S
H816 C824 0.929 . S
H817 C826 0.930 . S
H818 C828 0.930 . S
H819 C831 0.929 . S
H820 C834 0.930 . S
H821 C836 0.960 . S
H822 C836 0.960 . S
H823 C836 0.960 . S
C824 H816 0.929 . S
C824 C825 1.377 . S
C824 C826 1.384 . S
C825 C824 1.377 . S
C825 C831 1.390 . S
C826 H817 0.930 . S
C826 C824 1.384 . S
C826 C827 1.372 . S
C827 C826 1.372 . S
C827 C828 1.400 . S
C827 C832 1.490 . S
C828 H818 0.930 . S
C828 C827 1.400 . S
C828 C831 1.386 . S
H829 C845 0.930 . S
H830 C846 0.931 . S
C831 H819 0.929 . S
C831 C825 1.390 . S
C831 C828 1.386 . S
C832 C827 1.490 . S
C832 C834 1.395 . S
C832 C835 1.403 . S
H833 C839 0.930 . S
C834 H820 0.930 . S
C834 C832 1.395 . S
C834 C837 1.403 . S
C835 C832 1.403 . S
C835 C836 1.524 . S
C835 C839 1.400 . S
C836 H821 0.960 . S
C836 H822 0.960 . S
C836 H823 0.960 . S
C836 C835 1.524 . S
C837 C834 1.403 . S
C837 C838 1.392 . S
C837 C841 1.495 . S
C838 C837 1.392 . S
C838 C839 1.385 . S
C838 C840 1.478 . S
C839 H833 0.930 . S
C839 C835 1.400 . S
C839 C838 1.385 . S
C840 C838 1.478 . S
C840 C842 1.381 . S
C840 C846 1.383 . S
C841 C837 1.495 . S
C841 H847 0.959 . S
C841 H848 0.961 . S
C841 H849 0.960 . S
C842 C840 1.381 . S
C842 C843 1.394 . S
C842 H850 0.930 . S
C843 C842 1.394 . S
C843 C844 1.383 . S
C843 H851 0.929 . S
C844 C843 1.383 . S
C844 C845 1.377 . S
C845 H829 0.930 . S
C845 C844 1.377 . S
C845 C846 1.379 . S
C846 H830 0.931 . S
C846 C840 1.383 . S
C846 C845 1.379 . S
H847 C841 0.959 . S
H848 C841 0.961 . S
H849 C841 0.960 . S
H850 C842 0.930 . S
H851 C843 0.929 . S
H852 C860 0.929 . S
H853 C862 0.930 . S
H854 C864 0.930 . S
H855 C867 0.929 . S
H856 C870 0.923 . S
H857 C872 0.960 . S
H858 C872 0.960 . S
H859 C872 0.960 . S
C860 H852 0.929 . S
C860 C861 1.377 . S
C860 C862 1.384 . S
C861 C860 1.377 . S
C861 C867 1.390 1_545 S
C862 H853 0.930 . S
C862 C860 1.384 . S
C862 C863 1.372 . S
C863 C862 1.372 . S
C863 C864 1.400 1_545 S
C863 C868 1.490 . S
C864 H854 0.930 . S
C864 C863 1.400 1_565 S
C864 C867 1.386 . S
H865 C881 0.930 . S
H866 C882 0.931 . S
C867 H855 0.929 . S
C867 C861 1.390 1_565 S
C867 C864 1.386 . S
C868 C863 1.490 . S
C868 C870 1.395 . S
C868 C871 1.403 . S
H869 C875 0.930 . S
C870 H856 0.923 . S
C870 C868 1.395 . S
C870 C873 1.403 . S
C871 C868 1.403 . S
C871 C872 1.524 . S
C871 C875 1.400 . S
C872 H857 0.960 . S
C872 H858 0.960 . S
C872 H859 0.960 . S
C872 C871 1.524 . S
C873 C870 1.403 . S
C873 C874 1.392 . S
C873 C877 1.495 1_545 S
C874 C873 1.392 . S
C874 C875 1.385 . S
C874 C876 1.478 . S
C875 H869 0.930 . S
C875 C871 1.400 . S
C875 C874 1.385 . S
C876 C874 1.478 . S
C876 C878 1.381 . S
C876 C882 1.383 1_545 S
C877 C873 1.495 1_565 S
C877 H883 0.959 . S
C877 H884 0.961 . S
C877 H885 0.960 1_565 S
C878 C876 1.381 . S
C878 C879 1.394 . S
C878 H886 0.930 . S
C879 C878 1.394 . S
C879 C880 1.383 . S
C879 H887 0.929 . S
C880 C879 1.383 . S
C880 C881 1.377 1_545 S
C881 H865 0.930 . S
C881 C880 1.377 1_565 S
C881 C882 1.379 . S
C882 H866 0.931 . S
C882 C876 1.383 1_565 S
C882 C881 1.379 . S
H883 C877 0.959 . S
H884 C877 0.961 . S
H885 C877 0.960 1_545 S
H886 C878 0.930 . S
H887 C879 0.929 . S
H888 C896 0.929 . S
H889 C898 0.930 . S
H890 C900 0.930 . S
H891 C903 0.929 . S
H892 C906 0.930 . S
H893 C908 0.960 . S
H894 C908 0.960 . S
H895 C908 0.960 . S
C896 H888 0.929 . S
C896 C897 1.377 . S
C896 C898 1.384 . S
C897 C896 1.377 . S
C897 C903 1.390 . S
C898 H889 0.930 . S
C898 C896 1.384 . S
C898 C899 1.372 . S
C899 C898 1.372 . S
C899 C900 1.400 . S
C899 C904 1.490 . S
C900 H890 0.930 . S
C900 C899 1.400 . S
C900 C903 1.386 . S
H901 C917 0.930 . S
H902 C918 0.931 1_556 S
C903 H891 0.929 . S
C903 C897 1.390 . S
C903 C900 1.386 . S
C904 C899 1.490 . S
C904 C906 1.395 . S
C904 C907 1.403 . S
H905 C911 0.930 . S
C906 H892 0.930 . S
C906 C904 1.395 . S
C906 C909 1.403 . S
C907 C904 1.403 . S
C907 C908 1.524 . S
C907 C911 1.400 . S
C908 H893 0.960 . S
C908 H894 0.960 . S
C908 H895 0.960 . S
C908 C907 1.524 . S
C909 C906 1.403 . S
C909 C910 1.392 . S
C909 C913 1.495 . S
C910 C909 1.392 . S
C910 C911 1.385 . S
C910 C912 1.478 . S
C911 H905 0.930 . S
C911 C907 1.400 . S
C911 C910 1.385 . S
C912 C910 1.478 . S
C912 C914 1.381 1_556 S
C912 C918 1.383 1_556 S
C913 C909 1.495 . S
C913 H919 0.959 . S
C913 H920 0.961 . S
C913 H921 0.960 . S
C914 C912 1.381 1_554 S
C914 C915 1.394 . S
C914 H922 0.937 . S
C915 C914 1.394 . S
C915 C916 1.383 . S
C915 H923 0.929 . S
C916 C915 1.383 . S
C916 C917 1.377 . S
C917 H901 0.930 . S
C917 C916 1.377 . S
C917 C918 1.379 . S
C918 H902 0.931 1_554 S
C918 C912 1.383 1_554 S
C918 C917 1.379 . S
H919 C913 0.959 . S
H920 C913 0.961 . S
H921 C913 0.960 . S
H922 C914 0.937 . S
H923 C915 0.929 . S
H924 C932 0.929 . S
H925 C934 0.930 . S
H926 C936 0.930 . S
H927 C939 0.929 . S
H928 C942 0.930 . S
H929 C944 0.960 . S
H930 C944 0.960 . S
H931 C944 0.960 . S
C932 H924 0.929 . S
C932 C933 1.382 . S
C932 C934 1.384 . S
C933 C932 1.382 . S
C933 C939 1.385 1_655 S
C934 H925 0.930 . S
C934 C932 1.384 . S
C934 C935 1.350 1_655 S
C935 C934 1.350 1_455 S
C935 C936 1.421 . S
C935 C940 1.491 . S
C936 H926 0.930 . S
C936 C935 1.421 . S
C936 C939 1.386 . S
H937 C953 0.930 . S
H938 C954 0.931 . S
C939 H927 0.929 . S
C939 C933 1.385 1_455 S
C939 C936 1.386 . S
C940 C935 1.491 . S
C940 C942 1.395 1_455 S
C940 C943 1.403 . S
H941 C947 0.930 . S
C942 H928 0.930 . S
C942 C940 1.395 1_655 S
C942 C945 1.403 . S
C943 C940 1.403 . S
C943 C944 1.524 . S
C943 C947 1.400 . S
C944 H929 0.960 . S
C944 H930 0.960 . S
C944 H931 0.960 . S
C944 C943 1.524 . S
C945 C942 1.403 . S
C945 C946 1.386 1_655 S
C945 C949 1.495 . S
C946 C945 1.386 1_455 S
C946 C947 1.391 . S
C946 C948 1.481 . S
C947 H941 0.930 . S
C947 C943 1.400 . S
C947 C946 1.391 . S
C948 C946 1.481 . S
C948 C950 1.381 1_455 S
C948 C954 1.383 . S
C949 C945 1.495 . S
C949 H955 0.959 . S
C949 H956 0.961 . S
C949 H957 0.960 . S
C950 C948 1.381 1_655 S
C950 C951 1.394 . S
C950 H958 0.930 . S
C951 C950 1.394 . S
C951 C952 1.383 1_655 S
C951 H959 0.929 . S
C952 C951 1.383 1_455 S
C952 C953 1.377 . S
C953 H937 0.930 . S
C953 C952 1.377 . S
C953 C954 1.379 . S
C954 H938 0.931 . S
C954 C948 1.383 . S
C954 C953 1.379 . S
H955 C949 0.959 . S
H956 C949 0.961 . S
H957 C949 0.960 . S
H958 C950 0.930 . S
H959 C951 0.929 . S
C321 C12 2.818 . S
C340 C303 2.745 . S
C357 C52 2.847 . S
C376 C239 2.778 . S
C393 C111 2.901 . S
C412 C271 2.836 . S
C429 C31 3.063 . S
C448 C297 3.006 . S
C484 C233 2.963 . S
C465 C71 3.036 . S
C520 C265 2.906 . S
C501 C92 2.974 . S
C537 C48 0.412 . S
C556 C175 0.411 . S
C573 C109 0.404 . S
C592 C207 0.341 . S
C609 C29 0.384 . S
C628 C137 0.290 . S
C664 C169 0.283 . S
C645 C69 0.364 . S
C700 C201 0.253 . S
C681 C88 0.261 . S
C717 C8 0.261 . S
C736 C143 0.429 . S
C772 C213 1.099 . S
C753 C17 1.098 1_455 S
C789 C57 1.095 . S
C808 C149 1.067 . S
C825 C97 1.094 . S
C844 C181 1.089 . S
C880 C277 1.746 . S
C861 C42 1.708 . S
C916 C309 1.717 . S
C897 C82 1.713 . S
C933 C2 1.722 1_655 S
C952 C245 1.723 . S
