# Generated by pormake.
# Topology pto, (3,4)-cn, num edge types: 1
# Building blocks:
#     Node 0, Type 0, BuildingBlock: BELTOD_clean_linker_0, # of connection points: 3
#     Node 1, Type 0, BuildingBlock: BELTOD_clean_linker_0, # of connection points: 3
#     Node 2, Type 0, BuildingBlock: BELTOD_clean_linker_0, # of connection points: 3
#     Node 3, Type 0, BuildingBlock: BELTOD_clean_linker_0, # of connection points: 3
#     Node 4, Type 0, BuildingBlock: BELTOD_clean_linker_0, # of connection points: 3
#     Node 5, Type 0, BuildingBlock: BELTOD_clean_linker_0, # of connection points: 3
#     Node 6, Type 0, BuildingBlock: BELTOD_clean_linker_0, # of connection points: 3
#     Node 7, Type 0, BuildingBlock: BELTOD_clean_linker_0, # of connection points: 3
#     Node 8, Type 1, BuildingBlock: NAWXER_clean_sbu_0, # of connection points: 4
#     Node 9, Type 1, BuildingBlock: NAWXER_clean_sbu_0, # of connection points: 4
#     Node 10, Type 1, BuildingBlock: NAWXER_clean_sbu_0, # of connection points: 4
#     Node 11, Type 1, BuildingBlock: NAWXER_clean_sbu_0, # of connection points: 4
#     Node 12, Type 1, BuildingBlock: NAWXER_clean_sbu_0, # of connection points: 4
#     Node 13, Type 1, BuildingBlock: NAWXER_clean_sbu_0, # of connection points: 4
#     Edge 14, Type (0, 1), BuildingBlock: UVAHIK_clean_linker_0, # of connection points: 2
#     Edge 15, Type (0, 1), BuildingBlock: UVAHIK_clean_linker_0, # of connection points: 2
#     Edge 16, Type (0, 1), BuildingBlock: UVAHIK_clean_linker_0, # of connection points: 2
#     Edge 17, Type (0, 1), BuildingBlock: UVAHIK_clean_linker_0, # of connection points: 2
#     Edge 18, Type (0, 1), BuildingBlock: UVAHIK_clean_linker_0, # of connection points: 2
#     Edge 19, Type (0, 1), BuildingBlock: UVAHIK_clean_linker_0, # of connection points: 2
#     Edge 20, Type (0, 1), BuildingBlock: UVAHIK_clean_linker_0, # of connection points: 2
#     Edge 21, Type (0, 1), BuildingBlock: UVAHIK_clean_linker_0, # of connection points: 2
#     Edge 22, Type (0, 1), BuildingBlock: UVAHIK_clean_linker_0, # of connection points: 2
#     Edge 23, Type (0, 1), BuildingBlock: UVAHIK_clean_linker_0, # of connection points: 2
#     Edge 24, Type (0, 1), BuildingBlock: UVAHIK_clean_linker_0, # of connection points: 2
#     Edge 25, Type (0, 1), BuildingBlock: UVAHIK_clean_linker_0, # of connection points: 2
#     Edge 26, Type (0, 1), BuildingBlock: UVAHIK_clean_linker_0, # of connection points: 2
#     Edge 27, Type (0, 1), BuildingBlock: UVAHIK_clean_linker_0, # of connection points: 2
#     Edge 28, Type (0, 1), BuildingBlock: UVAHIK_clean_linker_0, # of connection points: 2
#     Edge 29, Type (0, 1), BuildingBlock: UVAHIK_clean_linker_0, # of connection points: 2
#     Edge 30, Type (0, 1), BuildingBlock: UVAHIK_clean_linker_0, # of connection points: 2
#     Edge 31, Type (0, 1), BuildingBlock: UVAHIK_clean_linker_0, # of connection points: 2
#     Edge 32, Type (0, 1), BuildingBlock: UVAHIK_clean_linker_0, # of connection points: 2
#     Edge 33, Type (0, 1), BuildingBlock: UVAHIK_clean_linker_0, # of connection points: 2
#     Edge 34, Type (0, 1), BuildingBlock: UVAHIK_clean_linker_0, # of connection points: 2
#     Edge 35, Type (0, 1), BuildingBlock: UVAHIK_clean_linker_0, # of connection points: 2
#     Edge 36, Type (0, 1), BuildingBlock: UVAHIK_clean_linker_0, # of connection points: 2
#     Edge 37, Type (0, 1), BuildingBlock: UVAHIK_clean_linker_0, # of connection points: 2
# Relax obj value: 0.000
# Max RMSD: 0.009
# Mean RMSD: 0.006
data_MOF--net-pto--node1-NAWXER_clean_sbu_0--node2-BELTOD_clean_linker_0--edge1-UVAHIK_clean_linker_0
_symmetry_space_group_name_H-M    P1
_symmetry_Int_Tables_number       1
_symmetry_cell_setting            triclinic
loop_
_symmetry_equiv_pos_as_xyz
'x, y, z'
_cell_length_a     63.171885
_cell_length_b     59.40148
_cell_length_c     55.294255
_cell_angle_alpha  89.155279
_cell_angle_beta   91.506718
_cell_angle_gamma 91.978342
loop_
_atom_site_label
_atom_site_type_symbol
_atom_site_fract_x
_atom_site_fract_y
_atom_site_fract_z
_atom_type_partial_charge
P0 P 0.27767 0.31252 0.28568 0.0
H1 H 0.28757 0.3423 0.24455 0.0
H2 H 0.30688 0.33678 0.20748 0.0
H3 H 0.31545 0.26713 0.22823 0.0
H4 H 0.2954 0.27253 0.2644 0.0
H5 H 0.25657 0.33699 0.32234 0.0
H6 H 0.22459 0.35879 0.32193 0.0
H7 H 0.21658 0.34803 0.24496 0.0
H8 H 0.24795 0.32512 0.24596 0.0
H9 H 0.29907 0.2831 0.32044 0.0
H10 H 0.23931 0.28355 0.28092 0.0
O11 O 0.29607 0.32535 0.30333 0.0
H12 H 0.28904 0.24675 0.33874 0.0
H13 H 0.22915 0.24701 0.29913 0.0
C14 C 0.28951 0.30773 0.25697 0.0
C15 C 0.29316 0.32571 0.24076 0.0
C16 C 0.30446 0.32257 0.21971 0.0
C17 C 0.31278 0.30147 0.21476 0.0
C18 C 0.30893 0.28348 0.23107 0.0
C19 C 0.29747 0.2866 0.25194 0.0
C20 C 0.25495 0.32999 0.28408 0.0
C21 C 0.24801 0.33953 0.30534 0.0
C22 C 0.22973 0.3521 0.30504 0.0
C23 C 0.21801 0.35545 0.28336 0.0
C24 C 0.22504 0.3457 0.26204 0.0
C25 C 0.24321 0.33285 0.26247 0.0
C26 C 0.26976 0.28617 0.29972 0.0
C27 C 0.28371 0.27544 0.31584 0.0
C28 C 0.27803 0.25457 0.32611 0.0
C29 C 0.2583 0.24403 0.32036 0.0
C30 C 0.24435 0.25485 0.30411 0.0
C31 C 0.25013 0.2757 0.29371 0.0
P32 P 0.26586 0.72896 0.70828 0.0
H33 H 0.24832 0.69587 0.67424 0.0
H34 H 0.21722 0.67036 0.67481 0.0
H35 H 0.20198 0.69486 0.74529 0.0
H36 H 0.2335 0.71996 0.74477 0.0
H37 H 0.28478 0.76189 0.67489 0.0
H38 H 0.27298 0.79783 0.65832 0.0
H39 H 0.21584 0.79071 0.69939 0.0
H40 H 0.22777 0.75477 0.71596 0.0
H41 H 0.27175 0.69954 0.75088 0.0
H42 H 0.2917 0.76647 0.72797 0.0
O43 O 0.28323 0.71874 0.68941 0.0
H44 H 0.29333 0.70362 0.7879 0.0
H45 H 0.3141 0.77031 0.76425 0.0
C46 C 0.24349 0.70938 0.70972 0.0
C47 C 0.23844 0.69554 0.68996 0.0
C48 C 0.22049 0.68114 0.69019 0.0
C49 C 0.20709 0.6805 0.71012 0.0
C50 C 0.21214 0.69462 0.72983 0.0
C51 C 0.23015 0.70899 0.72958 0.0
C52 C 0.25697 0.75542 0.69626 0.0
C53 C 0.26968 0.76799 0.68025 0.0
C54 C 0.26299 0.78861 0.67094 0.0
C55 C 0.24344 0.79702 0.6775 0.0
C56 C 0.23084 0.78449 0.69377 0.0
C57 C 0.23765 0.76394 0.70325 0.0
C58 C 0.27956 0.73295 0.73697 0.0
C59 C 0.28048 0.71528 0.754 0.0
C60 C 0.29311 0.71753 0.77503 0.0
C61 C 0.30555 0.73732 0.77917 0.0
C62 C 0.30446 0.75503 0.76203 0.0
C63 C 0.29164 0.75282 0.74115 0.0
P64 P 0.78351 0.77162 0.21214 0.0
H65 H 0.81155 0.809 0.2282 0.0
H66 H 0.81139 0.83349 0.26324 0.0
H67 H 0.75519 0.79778 0.28844 0.0
H68 H 0.7552 0.77371 0.25288 0.0
H69 H 0.78778 0.72983 0.18584 0.0
H70 H 0.80514 0.6947 0.19591 0.0
H71 H 0.82229 0.72047 0.26677 0.0
H72 H 0.80398 0.75481 0.25704 0.0
H73 H 0.75737 0.80569 0.19016 0.0
H74 H 0.75148 0.73434 0.205 0.0
O75 O 0.79957 0.78325 0.19161 0.0
H76 H 0.72247 0.80464 0.17028 0.0
H77 H 0.7172 0.73275 0.18372 0.0
C78 C 0.78314 0.78987 0.23777 0.0
C79 C 0.7991 0.80656 0.24117 0.0
C80 C 0.79912 0.8204 0.26137 0.0
C81 C 0.78325 0.81764 0.27866 0.0
C82 C 0.76744 0.80061 0.27529 0.0
C83 C 0.76743 0.78681 0.25503 0.0
C84 C 0.79409 0.74478 0.22081 0.0
C85 C 0.79481 0.72764 0.20376 0.0
C86 C 0.80502 0.70766 0.20947 0.0
C87 C 0.81525 0.70467 0.23218 0.0
C88 C 0.81427 0.72188 0.2493 0.0
C89 C 0.80381 0.7417 0.24367 0.0
C90 C 0.75725 0.77005 0.19858 0.0
C91 C 0.74861 0.78973 0.18892 0.0
C92 C 0.72868 0.78904 0.17735 0.0
C93 C 0.71702 0.76854 0.17494 0.0
C94 C 0.72557 0.74889 0.18529 0.0
C95 C 0.74541 0.7497 0.19721 0.0
P96 P 0.77422 0.23378 0.79984 0.0
H97 H 0.74303 0.19941 0.81382 0.0
H98 H 0.70782 0.20084 0.83078 0.0
H99 H 0.71198 0.27363 0.82697 0.0
H100 H 0.74657 0.27195 0.80889 0.0
H101 H 0.8041 0.19989 0.78658 0.0
H102 H 0.80528 0.17446 0.75237 0.0
H103 H 0.74704 0.20136 0.72326 0.0
H104 H 0.74574 0.22633 0.75795 0.0
H105 H 0.78532 0.27405 0.82743 0.0
H106 H 0.79027 0.25247 0.7537 0.0
O107 O 0.78869 0.22331 0.82275 0.0
H108 H 0.80383 0.30953 0.81727 0.0
H109 H 0.8098 0.28715 0.74374 0.0
C110 C 0.7475 0.23553 0.81017 0.0
C111 C 0.7362 0.21566 0.81636 0.0
C112 C 0.71613 0.21652 0.82629 0.0
C113 C 0.70704 0.23736 0.83052 0.0
C114 C 0.7183 0.25726 0.82376 0.0
C115 C 0.73829 0.25634 0.8136 0.0
C116 C 0.77457 0.21456 0.77503 0.0
C117 C 0.79147 0.20012 0.77296 0.0
C118 C 0.79224 0.18577 0.75324 0.0
C119 C 0.77622 0.1858 0.73508 0.0
C120 C 0.75943 0.2006 0.73713 0.0
C121 C 0.75866 0.21489 0.75691 0.0
C122 C 0.78627 0.26062 0.79138 0.0
C123 C 0.79032 0.27699 0.80903 0.0
C124 C 0.80113 0.29719 0.80321 0.0
C125 C 0.80855 0.30124 0.77968 0.0
C126 C 0.8041 0.28487 0.76194 0.0
C127 C 0.793 0.26482 0.76771 0.0
P128 P 0.76157 0.76007 0.79643 0.0
H129 H 0.75127 0.72544 0.83222 0.0
H130 H 0.71774 0.70927 0.84649 0.0
H131 H 0.68417 0.74665 0.79075 0.0
H132 H 0.7176 0.76351 0.77745 0.0
H133 H 0.80661 0.76217 0.80921 0.0
H134 H 0.83453 0.73499 0.80686 0.0
H135 H 0.79024 0.68785 0.77212 0.0
H136 H 0.7622 0.71509 0.77512 0.0
H137 H 0.76742 0.8087 0.78943 0.0
H138 H 0.75015 0.75123 0.74547 0.0
O139 O 0.76818 0.77599 0.82027 0.0
H140 H 0.76279 0.83362 0.75449 0.0
H141 H 0.74542 0.77632 0.7101 0.0
C142 C 0.73701 0.74548 0.80363 0.0
C143 C 0.73669 0.72985 0.82284 0.0
C144 C 0.71747 0.72052 0.8309 0.0
C145 C 0.69816 0.72669 0.81985 0.0
C146 C 0.69867 0.74176 0.79996 0.0
C147 C 0.71789 0.75125 0.7921 0.0
C148 C 0.78228 0.74045 0.79275 0.0
C149 C 0.80291 0.74599 0.80107 0.0
C150 C 0.81891 0.73046 0.79956 0.0
C151 C 0.81463 0.70913 0.78945 0.0
C152 C 0.794 0.70394 0.78043 0.0
C153 C 0.77798 0.71953 0.78198 0.0
C154 C 0.75911 0.7781 0.77006 0.0
C155 C 0.76275 0.80139 0.77221 0.0
C156 C 0.76016 0.81566 0.75216 0.0
C157 C 0.75377 0.80694 0.72952 0.0
C158 C 0.75021 0.78353 0.72735 0.0
C159 C 0.75303 0.76919 0.74747 0.0
P160 P 0.76564 0.2416 0.21569 0.0
H161 H 0.80801 0.24263 0.23782 0.0
H162 H 0.83533 0.27275 0.24209 0.0
H163 H 0.79099 0.3209 0.21387 0.0
H164 H 0.76389 0.29098 0.20974 0.0
H165 H 0.76019 0.19286 0.21948 0.0
H166 H 0.75338 0.16705 0.25332 0.0
H167 H 0.7519 0.22343 0.30159 0.0
H168 H 0.75896 0.24938 0.2674 0.0
H169 H 0.75524 0.25843 0.1675 0.0
H170 H 0.7233 0.24889 0.23506 0.0
O171 O 0.77716 0.2268 0.19456 0.0
H172 H 0.72336 0.27428 0.14916 0.0
H173 H 0.69126 0.26475 0.21677 0.0
C174 C 0.78393 0.26447 0.22343 0.0
C175 C 0.80407 0.25977 0.23304 0.0
C176 C 0.81965 0.27697 0.23545 0.0
C177 C 0.81536 0.29914 0.22802 0.0
C178 C 0.79487 0.30392 0.21935 0.0
C179 C 0.77929 0.28676 0.21711 0.0
C180 C 0.76051 0.22299 0.24104 0.0
C181 C 0.75858 0.19972 0.23735 0.0
C182 C 0.75469 0.18496 0.25671 0.0
C183 C 0.75231 0.1932 0.28014 0.0
C184 C 0.75365 0.21662 0.28372 0.0
C185 C 0.7578 0.23142 0.26428 0.0
C186 C 0.7415 0.25208 0.20247 0.0
C187 C 0.74129 0.25958 0.17833 0.0
C188 C 0.72314 0.26886 0.16795 0.0
C189 C 0.70482 0.27078 0.18155 0.0
C190 C 0.70509 0.26328 0.20581 0.0
C191 C 0.72338 0.25418 0.21626 0.0
P192 P 0.26419 0.31794 0.71004 0.0
H193 H 0.26791 0.30641 0.65911 0.0
H194 H 0.2676 0.27051 0.63809 0.0
H195 H 0.25447 0.23526 0.70517 0.0
H196 H 0.2552 0.27136 0.72631 0.0
H197 H 0.25033 0.3633 0.71752 0.0
H198 H 0.2173 0.37845 0.73111 0.0
H199 H 0.18979 0.31101 0.73596 0.0
H200 H 0.223 0.29589 0.72239 0.0
H201 H 0.30269 0.29289 0.71843 0.0
H202 H 0.26511 0.33803 0.7585 0.0
O203 O 0.27557 0.33704 0.69164 0.0
H204 H 0.32847 0.29168 0.75214 0.0
H205 H 0.29076 0.33685 0.79215 0.0
C206 C 0.26163 0.29155 0.6943 0.0
C207 C 0.26487 0.29101 0.66934 0.0
C208 C 0.26478 0.27048 0.65733 0.0
C209 C 0.26116 0.2501 0.67003 0.0
C210 C 0.25721 0.25072 0.69492 0.0
C211 C 0.2576 0.2713 0.70699 0.0
C212 C 0.23906 0.3285 0.71856 0.0
C213 C 0.23715 0.35176 0.7213 0.0
C214 C 0.21834 0.36038 0.72933 0.0
C215 C 0.20098 0.34591 0.73469 0.0
C216 C 0.20287 0.32257 0.73181 0.0
C217 C 0.22185 0.31392 0.72402 0.0
C218 C 0.28171 0.31517 0.73606 0.0
C219 C 0.29976 0.30221 0.73462 0.0
C220 C 0.31451 0.30155 0.75389 0.0
C221 C 0.31163 0.31417 0.7748 0.0
C222 C 0.2935 0.3271 0.7762 0.0
C223 C 0.2787 0.32762 0.75698 0.0
P224 P 0.2715 0.72145 0.28453 0.0
H225 H 0.31406 0.74086 0.2795 0.0
H226 H 0.33909 0.74111 0.24644 0.0
H227 H 0.29124 0.70894 0.20022 0.0
H228 H 0.26637 0.70873 0.23316 0.0
H229 H 0.27555 0.73308 0.33562 0.0
H230 H 0.2752 0.76878 0.35688 0.0
H231 H 0.26305 0.80366 0.28913 0.0
H232 H 0.26374 0.76769 0.26776 0.0
H233 H 0.25771 0.67566 0.27365 0.0
H234 H 0.22931 0.74059 0.27509 0.0
O235 O 0.28307 0.7031 0.30334 0.0
H236 H 0.22387 0.65839 0.2603 0.0
H237 H 0.19528 0.72337 0.26163 0.0
C238 C 0.28836 0.72481 0.25887 0.0
C239 C 0.30886 0.73422 0.26211 0.0
C240 C 0.32314 0.73437 0.2432 0.0
C241 C 0.31717 0.72487 0.22078 0.0
C242 C 0.29638 0.71608 0.2174 0.0
C243 C 0.2821 0.71606 0.23626 0.0
C244 C 0.26985 0.74777 0.30008 0.0
C245 C 0.27283 0.74836 0.32527 0.0
C246 C 0.2727 0.7688 0.33742 0.0
C247 C 0.26927 0.78902 0.32464 0.0
C248 C 0.26569 0.78832 0.29943 0.0
C249 C 0.26611 0.76784 0.28723 0.0
C250 C 0.24596 0.70932 0.27575 0.0
C251 C 0.24413 0.68618 0.27123 0.0
C252 C 0.22483 0.67637 0.26333 0.0
C253 C 0.20691 0.68953 0.25982 0.0
C254 C 0.20878 0.71278 0.26434 0.0
C255 C 0.22822 0.72264 0.27206 0.0
C256 C 0.9767 0.4767 0.23102 0.0
C257 C 0.02616 0.54199 0.22941 0.0
O258 O 0.98153 0.4845 0.25203 0.0
Zn259 Zn 0.00041 0.5114 0.26784 0.0
O260 O 0.98454 0.48616 0.21233 0.0
Zn261 Zn 0.00151 0.50919 0.22916 0.0
O262 O 0.02405 0.48968 0.24885 0.0
O263 O 0.02097 0.4955 0.28794 0.0
O264 O 0.01973 0.53037 0.21134 0.0
O265 O 0.01995 0.53653 0.25063 0.0
O266 O 0.97913 0.52938 0.28242 0.0
O267 O 0.97761 0.53007 0.24248 0.0
C268 C 0.03005 0.48591 0.27081 0.0
C269 C 0.97056 0.53638 0.26275 0.0
C270 C 0.96293 0.48005 0.7437 0.0
C271 C 0.02258 0.53388 0.73305 0.0
O272 O 0.97182 0.48663 0.76361 0.0
Zn273 Zn 0.99698 0.50904 0.77584 0.0
O274 O 0.96966 0.48795 0.72369 0.0
Zn275 Zn 0.99221 0.50733 0.7373 0.0
O276 O 0.01324 0.48324 0.75301 0.0
O277 O 0.01627 0.48878 0.79241 0.0
O278 O 0.01093 0.52512 0.71633 0.0
O279 O 0.01863 0.52915 0.75519 0.0
O280 O 0.98208 0.53128 0.79378 0.0
O281 O 0.97482 0.53248 0.75456 0.0
C282 C 0.02119 0.47793 0.77381 0.0
C283 C 0.97215 0.53999 0.77585 0.0
C284 C 0.22207 0.99013 0.53076 0.0
C285 C 0.22703 0.04447 0.46389 0.0
O286 O 0.20678 0.99817 0.51839 0.0
Zn287 Zn 0.22388 0.01717 0.49712 0.0
O288 O 0.24118 0.99602 0.52571 0.0
Zn289 Zn 0.2576 0.01718 0.50031 0.0
O290 O 0.27279 0.03871 0.52086 0.0
O291 O 0.23808 0.04164 0.52154 0.0
O292 O 0.24509 0.03848 0.47237 0.0
O293 O 0.21014 0.03636 0.47312 0.0
O294 O 0.23879 0.9928 0.4753 0.0
O295 O 0.27329 0.99579 0.48251 0.0
C296 C 0.2567 0.04823 0.52881 0.0
C297 C 0.25756 0.98629 0.47147 0.0
C298 C 0.52662 0.74809 0.02631 0.0
C299 C 0.46759 0.74318 0.96732 0.0
O300 O 0.51953 0.72785 0.02299 0.0
Zn301 Zn 0.49576 0.7105 0.00113 0.0
O302 O 0.51837 0.76422 0.01445 0.0
Zn303 Zn 0.49712 0.74626 0.99676 0.0
O304 O 0.47699 0.73352 0.02483 0.0
O305 O 0.47772 0.69639 0.02518 0.0
O306 O 0.4773 0.76094 0.97486 0.0
O307 O 0.47307 0.72391 0.97566 0.0
O308 O 0.51268 0.69192 0.98103 0.0
O309 O 0.51606 0.72827 0.97256 0.0
C310 C 0.47089 0.71442 0.03379 0.0
C311 C 0.52075 0.70789 0.96836 0.0
C312 C 0.73998 0.97144 0.53708 0.0
C313 C 0.73908 0.02927 0.47282 0.0
O314 O 0.72366 0.97914 0.52631 0.0
Zn315 Zn 0.73862 0.00039 0.50502 0.0
O316 O 0.75845 0.97873 0.53097 0.0
Zn317 Zn 0.77256 0.00214 0.50587 0.0
O318 O 0.78769 0.0231 0.5272 0.0
O319 O 0.75295 0.02381 0.53011 0.0
O320 O 0.75776 0.02387 0.47982 0.0
O321 O 0.72305 0.0201 0.48294 0.0
O322 O 0.7535 0.97831 0.48082 0.0
O323 O 0.7882 0.98275 0.48549 0.0
C324 C 0.77152 0.03095 0.5369 0.0
C325 C 0.77223 0.9731 0.47505 0.0
C326 C 0.52527 0.30722 0.03021 0.0
C327 C 0.47194 0.30628 0.9646 0.0
O328 O 0.51722 0.28752 0.026 0.0
Zn329 Zn 0.4947 0.27174 0.00152 0.0
O330 O 0.51936 0.32392 0.01739 0.0
Zn331 Zn 0.49881 0.30741 0.99717 0.0
O332 O 0.47529 0.29638 0.02245 0.0
O333 O 0.47361 0.2592 0.02326 0.0
O334 O 0.48211 0.32339 0.97306 0.0
O335 O 0.47538 0.28667 0.97358 0.0
O336 O 0.5123 0.25185 0.98376 0.0
O337 O 0.51867 0.28786 0.97547 0.0
C338 C 0.46713 0.27785 0.03072 0.0
C339 C 0.52245 0.2671 0.97204 0.0
C340 C 0.18087 0.36262 0.26816 0.0
C341 C 0.1984 0.36875 0.28317 0.0
C342 C 0.16248 0.37505 0.26804 0.0
C343 C 0.13193 0.41269 0.30424 0.0
H344 H 0.10808 0.43201 0.24238 0.0
C345 C 0.0618 0.47363 0.29533 0.0
C346 C 0.04775 0.4707 0.27544 0.0
C347 C 0.07994 0.46072 0.29763 0.0
C348 C 0.11425 0.42644 0.25983 0.0
H349 H 0.2102 0.39307 0.30968 0.0
H350 H 0.17782 0.41428 0.30991 0.0
H351 H 0.14001 0.41027 0.24364 0.0
H352 H 0.0408 0.45105 0.2433 0.0
H353 H 0.07164 0.42798 0.24783 0.0
H354 H 0.10589 0.4284 0.32047 0.0
C355 C 0.17842 0.39978 0.29831 0.0
C356 C 0.13264 0.41408 0.2605 0.0
C357 C 0.19694 0.38755 0.2982 0.0
C358 C 0.05155 0.45392 0.25863 0.0
C359 C 0.06937 0.44082 0.26113 0.0
C360 C 0.1133 0.42483 0.30357 0.0
C361 C 0.16106 0.39372 0.28314 0.0
C362 C 0.14163 0.40702 0.28268 0.0
C363 C 0.08416 0.44444 0.28025 0.0
C364 C 0.10414 0.43176 0.28132 0.0
H365 H 0.18117 0.34801 0.25672 0.0
H366 H 0.14922 0.36988 0.25634 0.0
H367 H 0.13851 0.40732 0.32158 0.0
H368 H 0.05928 0.48653 0.30849 0.0
H369 H 0.09101 0.46409 0.31252 0.0
C370 C 0.18234 0.65342 0.73158 0.0
C371 C 0.18798 0.66515 0.71032 0.0
C372 C 0.1646 0.63873 0.73173 0.0
C373 C 0.11423 0.62473 0.69876 0.0
H374 H 0.11755 0.56925 0.73629 0.0
C375 C 0.04551 0.55635 0.704 0.0
C376 C 0.04119 0.54881 0.72766 0.0
C377 C 0.06355 0.57011 0.69954 0.0
C378 C 0.11636 0.58471 0.72577 0.0
H379 H 0.17907 0.67087 0.67261 0.0
H380 H 0.14836 0.64482 0.67276 0.0
H381 H 0.14884 0.59409 0.73305 0.0
H382 H 0.05242 0.54996 0.76513 0.0
H383 H 0.08354 0.57361 0.75732 0.0
H384 H 0.08159 0.6152 0.69166 0.0
C385 C 0.15759 0.64715 0.68938 0.0
C386 C 0.13427 0.599 0.72399 0.0
C387 C 0.17534 0.66189 0.68923 0.0
C388 C 0.0552 0.55538 0.74666 0.0
C389 C 0.07318 0.56884 0.7422 0.0
C390 C 0.09629 0.61032 0.70046 0.0
C391 C 0.15206 0.6353 0.71061 0.0
C392 C 0.13333 0.61941 0.7109 0.0
C393 C 0.07766 0.57626 0.71862 0.0
C394 C 0.09708 0.5904 0.71442 0.0
H395 H 0.1918 0.65535 0.74808 0.0
H396 H 0.16062 0.63015 0.74851 0.0
H397 H 0.11292 0.64039 0.68865 0.0
H398 H 0.03502 0.55161 0.68899 0.0
H399 H 0.06666 0.57559 0.68117 0.0
C400 C 0.82926 0.67495 0.26097 0.0
C401 C 0.82797 0.6844 0.23747 0.0
C402 C 0.84235 0.65686 0.26611 0.0
C403 C 0.86936 0.61071 0.2375 0.0
H404 H 0.91042 0.61619 0.29068 0.0
C405 C 0.94452 0.5601 0.24042 0.0
C406 C 0.95254 0.55172 0.26261 0.0
C407 C 0.92753 0.57444 0.23965 0.0
C408 C 0.89881 0.61416 0.27605 0.0
H409 H 0.83964 0.68199 0.20102 0.0
H410 H 0.86183 0.65016 0.20987 0.0
H411 H 0.88333 0.64439 0.2851 0.0
H412 H 0.94892 0.55194 0.30149 0.0
H413 H 0.91888 0.57704 0.30012 0.0
H414 H 0.88478 0.5807 0.22823 0.0
C415 C 0.85261 0.65671 0.22426 0.0
C416 C 0.88332 0.63033 0.27284 0.0
C417 C 0.83977 0.67493 0.21919 0.0
C418 C 0.94312 0.55812 0.28411 0.0
C419 C 0.92597 0.57254 0.28333 0.0
C420 C 0.88467 0.59449 0.24081 0.0
C421 C 0.8542 0.64762 0.2478 0.0
C422 C 0.86883 0.62907 0.25313 0.0
C423 C 0.91793 0.58077 0.26103 0.0
C424 C 0.89999 0.59637 0.25968 0.0
H425 H 0.82017 0.68153 0.27545 0.0
H426 H 0.84316 0.65004 0.28438 0.0
H427 H 0.85814 0.60911 0.22242 0.0
H428 H 0.95144 0.5557 0.22348 0.0
H429 H 0.92214 0.58085 0.22221 0.0
C430 C 0.82044 0.33246 0.75106 0.0
C431 C 0.82171 0.32189 0.77401 0.0
C432 C 0.83356 0.35124 0.74559 0.0
C433 C 0.86483 0.39733 0.77394 0.0
H434 H 0.8995 0.39682 0.7171 0.0
C435 C 0.93955 0.45345 0.76696 0.0
C436 C 0.94504 0.46328 0.74462 0.0
C437 C 0.92273 0.43777 0.76849 0.0
C438 C 0.88965 0.39746 0.7328 0.0
H439 H 0.83811 0.32287 0.80904 0.0
H440 H 0.8603 0.3559 0.79972 0.0
H441 H 0.87277 0.36666 0.72357 0.0
H442 H 0.93711 0.4642 0.70623 0.0
H443 H 0.90733 0.43677 0.70895 0.0
H444 H 0.88157 0.42793 0.78336 0.0
C445 C 0.84908 0.34969 0.78603 0.0
C446 C 0.87439 0.38016 0.73651 0.0
C447 C 0.83623 0.33079 0.79139 0.0
C448 C 0.93329 0.45692 0.72372 0.0
C449 C 0.91628 0.44117 0.72527 0.0
C450 C 0.87988 0.41467 0.77014 0.0
C451 C 0.84796 0.36004 0.76306 0.0
C452 C 0.86225 0.37964 0.75746 0.0
C453 C 0.91075 0.43151 0.74774 0.0
C454 C 0.89293 0.41461 0.7499 0.0
H455 H 0.80926 0.32633 0.73731 0.0
H456 H 0.8323 0.35901 0.72778 0.0
H457 H 0.85541 0.39755 0.79003 0.0
H458 H 0.94834 0.45775 0.78343 0.0
H459 H 0.91931 0.43029 0.786 0.0
C460 C 0.2323 0.21758 0.34089 0.0
C461 C 0.25248 0.22181 0.33132 0.0
C462 C 0.22753 0.19717 0.35285 0.0
C463 C 0.25464 0.15195 0.3859 0.0
H464 H 0.20079 0.11879 0.38031 0.0
C465 C 0.24456 0.06565 0.43044 0.0
C466 C 0.2265 0.0617 0.44436 0.0
C467 C 0.24578 0.08389 0.41439 0.0
C468 C 0.21583 0.12799 0.38215 0.0
H469 H 0.28297 0.20748 0.32538 0.0
H470 H 0.27466 0.17192 0.34604 0.0
H471 H 0.20667 0.15339 0.35629 0.0
H472 H 0.195 0.07297 0.45135 0.0
H473 H 0.19726 0.10533 0.42333 0.0
H474 H 0.26386 0.12693 0.41176 0.0
C475 C 0.26268 0.18454 0.34489 0.0
C476 C 0.2192 0.14777 0.36843 0.0
C477 C 0.26746 0.2049 0.33305 0.0
C478 C 0.20912 0.07564 0.44084 0.0
C479 C 0.21041 0.09412 0.4248 0.0
C480 C 0.2513 0.13231 0.39951 0.0
C481 C 0.24284 0.18061 0.35539 0.0
C482 C 0.23875 0.15981 0.37 0.0
C483 C 0.22906 0.09881 0.41201 0.0
C484 C 0.23198 0.11994 0.39763 0.0
H485 H 0.22048 0.23036 0.33992 0.0
H486 H 0.21215 0.1947 0.36088 0.0
H487 H 0.26967 0.16114 0.38805 0.0
H488 H 0.25808 0.05498 0.43244 0.0
H489 H 0.26013 0.0867 0.40431 0.0
C490 C 0.33146 0.72017 0.80884 0.0
C491 C 0.32039 0.73906 0.80055 0.0
C492 C 0.34601 0.7219 0.82824 0.0
C493 C 0.38141 0.7621 0.86027 0.0
H494 H 0.38238 0.71558 0.91017 0.0
C495 C 0.44151 0.76495 0.94177 0.0
C496 C 0.45006 0.74431 0.94902 0.0
C497 C 0.42471 0.76556 0.92471 0.0
C498 C 0.3825 0.72861 0.89626 0.0
H499 H 0.31579 0.77456 0.80674 0.0
H500 H 0.34161 0.77761 0.84031 0.0
H501 H 0.35482 0.71418 0.87854 0.0
H502 H 0.4479 0.70816 0.94366 0.0
H503 H 0.4192 0.70927 0.91376 0.0
H504 H 0.40946 0.7762 0.87756 0.0
C505 C 0.33898 0.76149 0.83162 0.0
C506 C 0.36664 0.72782 0.87819 0.0
C507 C 0.32423 0.75972 0.81234 0.0
C508 C 0.4416 0.72436 0.93869 0.0
C509 C 0.42498 0.72498 0.92161 0.0
C510 C 0.39742 0.7628 0.87827 0.0
C511 C 0.35004 0.74259 0.83974 0.0
C512 C 0.36607 0.74438 0.85982 0.0
C513 C 0.41618 0.74554 0.91449 0.0
C514 C 0.39836 0.74586 0.89629 0.0
H515 H 0.32934 0.7041 0.79995 0.0
H516 H 0.35453 0.70711 0.83386 0.0
H517 H 0.38146 0.77501 0.84623 0.0
H518 H 0.44764 0.78061 0.94943 0.0
H519 H 0.41822 0.78168 0.9198 0.0
C520 C 0.76385 0.84097 0.30778 0.0
C521 C 0.78303 0.83274 0.29985 0.0
C522 C 0.76366 0.85579 0.32712 0.0
C523 C 0.79549 0.87686 0.37979 0.0
H524 H 0.75744 0.92664 0.37453 0.0
C525 C 0.79497 0.9499 0.44897 0.0
C526 C 0.77481 0.95637 0.45585 0.0
C527 C 0.79701 0.93459 0.43019 0.0
C528 C 0.76804 0.91273 0.37636 0.0
H529 H 0.81704 0.83321 0.30656 0.0
H530 H 0.81675 0.85952 0.34 0.0
H531 H 0.75893 0.90026 0.34143 0.0
H532 H 0.741 0.9515 0.44865 0.0
H533 H 0.7446 0.92497 0.41619 0.0
H534 H 0.80459 0.88954 0.4148 0.0
C535 C 0.80182 0.85434 0.33135 0.0
C536 C 0.76886 0.89757 0.35741 0.0
C537 C 0.80201 0.83946 0.312 0.0
C538 C 0.7568 0.94701 0.44379 0.0
C539 C 0.75883 0.93188 0.42504 0.0
C540 C 0.79471 0.89212 0.39876 0.0
C541 C 0.78265 0.86284 0.339 0.0
C542 C 0.7824 0.87929 0.35899 0.0
C543 C 0.77893 0.92564 0.41787 0.0
C544 C 0.78078 0.91006 0.39735 0.0
H545 H 0.74896 0.83631 0.29872 0.0
H546 H 0.74857 0.86174 0.33279 0.0
H547 H 0.80597 0.86285 0.38166 0.0
H548 H 0.80916 0.95678 0.45792 0.0
H549 H 0.81271 0.93014 0.42497 0.0
C550 C 0.6811 0.22308 0.86152 0.0
C551 C 0.68632 0.23838 0.84273 0.0
C552 C 0.66216 0.2247 0.87381 0.0
C553 C 0.62373 0.26594 0.89017 0.0
H554 H 0.58719 0.21412 0.90535 0.0
C555 C 0.54506 0.27727 0.937 0.0
C556 C 0.53901 0.26149 0.9549 0.0
C557 C 0.56182 0.27319 0.92192 0.0
C558 C 0.59734 0.22873 0.90153 0.0
H559 H 0.6751 0.2669 0.82163 0.0
H560 H 0.64233 0.27004 0.84352 0.0
H561 H 0.61882 0.20929 0.88164 0.0
H562 H 0.54542 0.22874 0.97063 0.0
H563 H 0.57527 0.22183 0.94476 0.0
H564 H 0.60292 0.28535 0.91055 0.0
C565 C 0.65304 0.25686 0.84876 0.0
C566 C 0.61541 0.22595 0.88786 0.0
C567 C 0.67187 0.2551 0.8363 0.0
C568 C 0.5497 0.24118 0.95693 0.0
C569 C 0.56676 0.23721 0.94202 0.0
C570 C 0.60587 0.26868 0.90402 0.0
C571 C 0.64808 0.24181 0.86778 0.0
C572 C 0.62872 0.24457 0.88197 0.0
C573 C 0.57327 0.25337 0.92458 0.0
C574 C 0.59233 0.25016 0.9098 0.0
H575 H 0.69194 0.21022 0.8673 0.0
H576 H 0.65886 0.21303 0.88857 0.0
H577 H 0.63391 0.28053 0.8863 0.0
H578 H 0.53693 0.29295 0.93474 0.0
H579 H 0.5659 0.28574 0.90827 0.0
C580 C 0.21547 0.82081 0.65799 0.0
C581 C 0.23628 0.81875 0.66721 0.0
C582 C 0.20921 0.84092 0.64689 0.0
C583 C 0.22431 0.90148 0.64042 0.0
H584 H 0.19796 0.89651 0.57649 0.0
C585 C 0.23498 0.96907 0.56717 0.0
C586 C 0.21841 0.97354 0.55054 0.0
C587 C 0.23268 0.95208 0.58462 0.0
C588 C 0.20485 0.89826 0.59453 0.0
H589 H 0.26656 0.83638 0.67297 0.0
H590 H 0.25575 0.87136 0.65351 0.0
H591 H 0.20227 0.86273 0.60153 0.0
H592 H 0.1861 0.9642 0.53971 0.0
H593 H 0.18211 0.93413 0.57033 0.0
H594 H 0.2276 0.93688 0.63309 0.0
C595 C 0.24421 0.85751 0.6549 0.0
C596 C 0.20736 0.87889 0.60887 0.0
C597 C 0.25049 0.8374 0.6658 0.0
C598 C 0.19914 0.96112 0.55229 0.0
C599 C 0.1969 0.94387 0.56972 0.0
C600 C 0.22176 0.92082 0.62613 0.0
C601 C 0.22359 0.85942 0.64505 0.0
C602 C 0.21777 0.88022 0.63162 0.0
C603 C 0.21378 0.939 0.58585 0.0
C604 C 0.21269 0.91932 0.60269 0.0
H605 H 0.20421 0.80666 0.65873 0.0
H606 H 0.1932 0.84194 0.63956 0.0
H607 H 0.232 0.90309 0.65808 0.0
H608 H 0.24999 0.9784 0.56641 0.0
H609 H 0.24611 0.94858 0.59651 0.0
C610 C 0.6931 0.78156 0.14069 0.0
C611 C 0.69634 0.76762 0.16121 0.0
C612 C 0.67392 0.78051 0.12752 0.0
C613 C 0.62958 0.74227 0.11215 0.0
H614 H 0.60004 0.79621 0.09337 0.0
C615 C 0.54893 0.73609 0.06178 0.0
C616 C 0.54456 0.75216 0.04361 0.0
C617 C 0.56655 0.73892 0.07733 0.0
C618 C 0.6082 0.78099 0.09814 0.0
H619 H 0.68146 0.7419 0.18404 0.0
H620 H 0.64828 0.73956 0.16045 0.0
H621 H 0.63263 0.79931 0.11803 0.0
H622 H 0.55506 0.78401 0.02769 0.0
H623 H 0.58636 0.78864 0.05426 0.0
H624 H 0.60586 0.72391 0.09167 0.0
C625 C 0.6607 0.75133 0.15472 0.0
C626 C 0.62682 0.78279 0.11239 0.0
C627 C 0.67979 0.75261 0.16814 0.0
C628 C 0.55798 0.7714 0.04162 0.0
C629 C 0.57588 0.77407 0.05696 0.0
C630 C 0.61118 0.74048 0.09763 0.0
C631 C 0.6576 0.76526 0.13427 0.0
C632 C 0.63765 0.76343 0.11957 0.0
C633 C 0.58055 0.75772 0.07487 0.0
C634 C 0.60016 0.7598 0.09047 0.0
H635 H 0.70556 0.793 0.13441 0.0
H636 H 0.67205 0.79123 0.11164 0.0
H637 H 0.63779 0.7271 0.11712 0.0
H638 H 0.53872 0.72121 0.06398 0.0
H639 H 0.5692 0.72627 0.09128 0.0
C640 C 0.75829 0.15932 0.70542 0.0
C641 C 0.77691 0.17032 0.71425 0.0
C642 C 0.75895 0.1444 0.6862 0.0
C643 C 0.79163 0.12807 0.63514 0.0
H644 H 0.75627 0.07348 0.63786 0.0
C645 C 0.79363 0.05627 0.5645 0.0
C646 C 0.77368 0.04763 0.55653 0.0
C647 C 0.79528 0.0714 0.58373 0.0
C648 C 0.76614 0.08872 0.63676 0.0
H649 H 0.81079 0.17459 0.70937 0.0
H650 H 0.812 0.14811 0.67617 0.0
H651 H 0.75673 0.09952 0.67144 0.0
H652 H 0.73983 0.04847 0.56227 0.0
H653 H 0.74275 0.07467 0.59552 0.0
H654 H 0.80101 0.11708 0.60035 0.0
C655 C 0.79685 0.1512 0.684 0.0
C656 C 0.76636 0.10368 0.65598 0.0
C657 C 0.79619 0.16618 0.70322 0.0
C658 C 0.75547 0.05467 0.56797 0.0
C659 C 0.75713 0.06961 0.58716 0.0
C660 C 0.79147 0.11301 0.6159 0.0
C661 C 0.77825 0.14003 0.67536 0.0
C662 C 0.77887 0.1237 0.65528 0.0
C663 C 0.77703 0.07799 0.59543 0.0
C664 C 0.77847 0.09334 0.61638 0.0
H665 H 0.74321 0.16195 0.71362 0.0
H666 H 0.74426 0.13635 0.67977 0.0
H667 H 0.80132 0.14343 0.63394 0.0
H668 H 0.80796 0.05119 0.55606 0.0
H669 H 0.81084 0.07755 0.58979 0.0
C670 C 0.34071 0.31573 0.18616 0.0
C671 C 0.32636 0.29846 0.19345 0.0
C672 C 0.35427 0.31253 0.16704 0.0
C673 C 0.38082 0.26869 0.13482 0.0
H674 H 0.38987 0.31567 0.08642 0.0
C675 C 0.43811 0.25931 0.05521 0.0
C676 C 0.45025 0.27865 0.04877 0.0
C677 C 0.4218 0.26066 0.07179 0.0
C678 C 0.38773 0.30246 0.09993 0.0
H679 H 0.31472 0.26443 0.18568 0.0
H680 H 0.33881 0.25875 0.15265 0.0
H681 H 0.36349 0.32026 0.11715 0.0
H682 H 0.45511 0.31444 0.0552 0.0
H683 H 0.42729 0.31665 0.08432 0.0
H684 H 0.4055 0.25117 0.11808 0.0
C685 C 0.33954 0.27471 0.16191 0.0
C686 C 0.37254 0.30508 0.11748 0.0
C687 C 0.32579 0.27798 0.18088 0.0
C688 C 0.44594 0.29923 0.05952 0.0
C689 C 0.42983 0.30054 0.07614 0.0
C690 C 0.39619 0.26614 0.11737 0.0
C691 C 0.35398 0.29193 0.15487 0.0
C692 C 0.3691 0.28837 0.13529 0.0
C693 C 0.41739 0.28136 0.08235 0.0
C694 C 0.40005 0.28316 0.09992 0.0
H695 H 0.34196 0.33154 0.19566 0.0
H696 H 0.36543 0.32601 0.16223 0.0
H697 H 0.37862 0.25561 0.14847 0.0
H698 H 0.441 0.24321 0.04719 0.0
H699 H 0.41244 0.24556 0.07601 0.0
C700 C 0.85249 0.69908 0.78349 0.0
C701 C 0.83155 0.69231 0.7888 0.0
C702 C 0.86849 0.6834 0.78351 0.0
C703 C 0.88185 0.62616 0.80561 0.0
H704 H 0.92328 0.63044 0.75511 0.0
C705 C 0.95296 0.5667 0.80199 0.0
C706 C 0.95727 0.55844 0.779 0.0
C707 C 0.93846 0.58383 0.80447 0.0
C708 C 0.91179 0.62894 0.7693 0.0
H709 H 0.81111 0.66367 0.79848 0.0
H710 H 0.8389 0.63622 0.79784 0.0
H711 H 0.89597 0.65823 0.75657 0.0
H712 H 0.94969 0.5618 0.74059 0.0
H713 H 0.92451 0.59123 0.74494 0.0
H714 H 0.89735 0.59638 0.81782 0.0
C715 C 0.84301 0.65374 0.79401 0.0
C716 C 0.89626 0.64505 0.7703 0.0
C717 C 0.827 0.66943 0.79403 0.0
C718 C 0.94687 0.56776 0.7586 0.0
C719 C 0.93248 0.58481 0.76106 0.0
C720 C 0.89742 0.61001 0.80459 0.0
C721 C 0.86397 0.66052 0.78877 0.0
C722 C 0.88096 0.64376 0.78832 0.0
C723 C 0.92807 0.59309 0.78398 0.0
C724 C 0.91242 0.61106 0.78624 0.0
H725 H 0.85653 0.71651 0.77915 0.0
H726 H 0.88447 0.68927 0.7796 0.0
H727 H 0.87049 0.62484 0.81993 0.0
H728 H 0.9607 0.55988 0.81807 0.0
H729 H 0.93553 0.58996 0.82238 0.0
C730 C 0.84649 0.31958 0.24798 0.0
C731 C 0.83241 0.31698 0.22805 0.0
C732 C 0.86258 0.33637 0.24776 0.0
C733 C 0.89453 0.37241 0.20692 0.0
H734 H 0.9032 0.41013 0.26315 0.0
C735 C 0.95066 0.45205 0.20738 0.0
C736 C 0.96176 0.45702 0.2291 0.0
C737 C 0.93536 0.43438 0.20655 0.0
C738 C 0.90126 0.39955 0.24741 0.0
H739 H 0.82445 0.32957 0.19205 0.0
H740 H 0.85251 0.35888 0.1917 0.0
H741 H 0.87587 0.38026 0.26336 0.0
H742 H 0.96633 0.44669 0.26662 0.0
H743 H 0.94035 0.41567 0.26499 0.0
H744 H 0.92012 0.39149 0.19105 0.0
C745 C 0.85109 0.34797 0.20749 0.0
C746 C 0.88553 0.38246 0.24755 0.0
C747 C 0.8349 0.33135 0.20781 0.0
C748 C 0.95783 0.44351 0.24967 0.0
C749 C 0.94279 0.42578 0.24878 0.0
C750 C 0.91044 0.3894 0.20686 0.0
C751 C 0.86506 0.35072 0.22749 0.0
C752 C 0.88198 0.3687 0.22732 0.0
C753 C 0.93104 0.42123 0.22737 0.0
C754 C 0.91404 0.40318 0.22714 0.0
H755 H 0.84492 0.30879 0.26384 0.0
H756 H 0.87322 0.33799 0.26337 0.0
H757 H 0.89227 0.36192 0.19114 0.0
H758 H 0.95331 0.46221 0.19125 0.0
H759 H 0.92652 0.43148 0.18978 0.0
C760 C 0.18139 0.37231 0.76038 0.0
C761 C 0.18096 0.35535 0.74287 0.0
C762 C 0.16274 0.38249 0.76672 0.0
C763 C 0.11103 0.39593 0.74082 0.0
H764 H 0.09703 0.41077 0.80644 0.0
C765 C 0.03544 0.44259 0.75826 0.0
C766 C 0.03672 0.45991 0.77528 0.0
C767 C 0.05153 0.42719 0.75698 0.0
C768 C 0.1008 0.40694 0.788 0.0
H769 H 0.16058 0.33534 0.71879 0.0
H770 H 0.12795 0.35324 0.72977 0.0
H771 H 0.12818 0.38867 0.79926 0.0
H772 H 0.05538 0.4742 0.80501 0.0
H773 H 0.08405 0.44776 0.80229 0.0
H774 H 0.08444 0.41481 0.72927 0.0
C775 C 0.14276 0.35865 0.73856 0.0
C776 C 0.11859 0.39421 0.78391 0.0
C777 C 0.16139 0.3483 0.7324 0.0
C778 C 0.05397 0.46092 0.7918 0.0
C779 C 0.07036 0.44571 0.79023 0.0
C780 C 0.09345 0.40882 0.74485 0.0
C781 C 0.14328 0.37609 0.75552 0.0
C782 C 0.12389 0.3886 0.76026 0.0
C783 C 0.0696 0.42901 0.77234 0.0
C784 C 0.08804 0.41454 0.76848 0.0
H785 H 0.19623 0.37791 0.76894 0.0
H786 H 0.16366 0.39597 0.77974 0.0
H787 H 0.11494 0.39227 0.72236 0.0
H788 H 0.02215 0.44123 0.7455 0.0
H789 H 0.05 0.41416 0.7435 0.0
C790 C 0.16763 0.68367 0.26391 0.0
C791 C 0.18631 0.67872 0.25214 0.0
C792 C 0.14866 0.67179 0.25841 0.0
C793 C 0.12119 0.63442 0.2137 0.0
H794 H 0.09225 0.61046 0.26991 0.0
C795 C 0.05717 0.56155 0.2095 0.0
C796 C 0.0413 0.56132 0.22682 0.0
C797 C 0.07343 0.57824 0.21003 0.0
C798 C 0.0998 0.61733 0.25393 0.0
H799 H 0.19949 0.65838 0.22437 0.0
H800 H 0.16636 0.63757 0.21485 0.0
H801 H 0.12289 0.63576 0.27535 0.0
H802 H 0.0289 0.57927 0.25689 0.0
H803 H 0.05651 0.60876 0.25718 0.0
H804 H 0.09803 0.61582 0.19228 0.0
C805 C 0.16639 0.65061 0.22834 0.0
C806 C 0.11745 0.63184 0.2571 0.0
C807 C 0.1854 0.66237 0.23396 0.0
C808 C 0.04115 0.57884 0.24356 0.0
C809 C 0.05709 0.59565 0.24383 0.0
C810 C 0.10334 0.61999 0.2105 0.0
C811 C 0.14792 0.65483 0.24089 0.0
C812 C 0.12843 0.64047 0.23707 0.0
C813 C 0.0739 0.59514 0.2277 0.0
C814 C 0.09245 0.6112 0.23061 0.0
H815 H 0.16784 0.6961 0.27806 0.0
H816 H 0.13462 0.67558 0.26822 0.0
H817 H 0.1293 0.64091 0.19791 0.0
H818 H 0.05768 0.54816 0.19645 0.0
H819 H 0.08614 0.57723 0.19737 0.0
C820 C 0.76564 0.84009 0.70419 0.0
C821 C 0.75074 0.82248 0.70848 0.0
C822 C 0.76226 0.85574 0.68554 0.0
C823 C 0.73128 0.86615 0.6288 0.0
H824 H 0.74869 0.92813 0.64182 0.0
C825 C 0.71961 0.94138 0.56049 0.0
C826 C 0.73825 0.95454 0.55697 0.0
C827 C 0.71874 0.92509 0.57915 0.0
C828 C 0.74374 0.91089 0.63792 0.0
H829 H 0.72079 0.80721 0.69621 0.0
H830 H 0.71474 0.83478 0.66363 0.0
H831 H 0.75183 0.89973 0.67375 0.0
H832 H 0.77041 0.96115 0.57051 0.0
H833 H 0.76873 0.93323 0.60295 0.0
H834 H 0.72322 0.87761 0.5928 0.0
C835 C 0.72916 0.83632 0.67458 0.0
C836 C 0.74566 0.89456 0.65616 0.0
C837 C 0.73262 0.82052 0.69323 0.0
C838 C 0.75581 0.95129 0.57263 0.0
C839 C 0.75483 0.93537 0.59135 0.0
C840 C 0.72921 0.88261 0.61053 0.0
C841 C 0.74381 0.85434 0.67075 0.0
C842 C 0.73996 0.87187 0.65171 0.0
C843 C 0.73634 0.92206 0.59484 0.0
C844 C 0.7359 0.90504 0.61477 0.0
H845 H 0.77995 0.8418 0.71534 0.0
H846 H 0.77418 0.86899 0.68273 0.0
H847 H 0.7268 0.84883 0.6247 0.0
H848 H 0.70585 0.94345 0.54867 0.0
H849 H 0.70427 0.91507 0.58149 0.0
C850 C 0.68678 0.2995 0.15525 0.0
C851 C 0.68544 0.28015 0.17016 0.0
C852 C 0.66877 0.30736 0.14307 0.0
C853 C 0.60978 0.30115 0.14004 0.0
H854 H 0.61686 0.31822 0.07269 0.0
C855 C 0.54344 0.29313 0.06768 0.0
C856 C 0.54171 0.30986 0.04957 0.0
C857 C 0.55999 0.29412 0.08484 0.0
C858 C 0.61466 0.31394 0.09159 0.0
H859 H 0.66414 0.25413 0.18434 0.0
H860 H 0.63279 0.26751 0.16279 0.0
H861 H 0.64793 0.31111 0.0983 0.0
H862 H 0.55561 0.34116 0.03568 0.0
H863 H 0.58497 0.34269 0.06565 0.0
H864 H 0.57638 0.30295 0.13286 0.0
C865 C 0.64763 0.27696 0.16086 0.0
C866 C 0.63247 0.30985 0.10632 0.0
C867 C 0.66561 0.26921 0.17318 0.0
C868 C 0.55654 0.32805 0.04946 0.0
C869 C 0.57336 0.32887 0.0665 0.0
C870 C 0.59197 0.30507 0.12526 0.0
C871 C 0.64902 0.29596 0.14537 0.0
C872 C 0.63024 0.30289 0.13059 0.0
C873 C 0.57537 0.31174 0.08417 0.0
C874 C 0.5942 0.31099 0.10074 0.0
H875 H 0.70181 0.30848 0.15289 0.0
H876 H 0.67037 0.32226 0.13166 0.0
H877 H 0.60748 0.2963 0.15877 0.0
H878 H 0.53219 0.27896 0.06834 0.0
H879 H 0.56124 0.28054 0.09805 0.0
C880 C 0.27898 0.22421 0.64223 0.0
C881 C 0.26205 0.22831 0.65734 0.0
C882 C 0.27978 0.2039 0.6299 0.0
C883 C 0.25599 0.14544 0.62791 0.0
H884 H 0.27804 0.14688 0.56309 0.0
C885 C 0.24172 0.07373 0.55912 0.0
C886 C 0.25912 0.06723 0.54583 0.0
C887 C 0.24343 0.09239 0.57423 0.0
C888 C 0.27207 0.14617 0.58128 0.0
H889 H 0.23266 0.21441 0.67141 0.0
H890 H 0.23358 0.17922 0.64928 0.0
H891 H 0.27794 0.18146 0.58619 0.0
H892 H 0.29206 0.0751 0.5382 0.0
H893 H 0.29493 0.10807 0.56435 0.0
H894 H 0.24939 0.1102 0.62241 0.0
C895 C 0.24661 0.19139 0.6474 0.0
C896 C 0.27205 0.16599 0.59461 0.0
C897 C 0.24598 0.21161 0.66001 0.0
C898 C 0.27839 0.07965 0.54825 0.0
C899 C 0.28 0.09857 0.56309 0.0
C900 C 0.25575 0.12568 0.61443 0.0
C901 C 0.26349 0.18727 0.63208 0.0
C902 C 0.26394 0.16595 0.61811 0.0
C903 C 0.26249 0.10519 0.57613 0.0
C904 C 0.26372 0.12586 0.59095 0.0
H905 H 0.29176 0.23667 0.64014 0.0
H906 H 0.29329 0.20123 0.61877 0.0
H907 H 0.25 0.14457 0.64608 0.0
H908 H 0.22666 0.06448 0.55772 0.0
H909 H 0.22963 0.09719 0.5839 0.0
C910 C 0.33437 0.70304 0.18864 0.0
C911 C 0.33285 0.72319 0.20141 0.0
C912 C 0.34959 0.70107 0.17098 0.0
C913 C 0.4003 0.72714 0.15032 0.0
H914 H 0.38657 0.69464 0.09131 0.0
C915 C 0.45198 0.73372 0.06625 0.0
C916 C 0.45593 0.7138 0.05397 0.0
C917 C 0.43757 0.73363 0.08493 0.0
C918 C 0.3907 0.70352 0.10784 0.0
H919 H 0.34581 0.75722 0.20532 0.0
H920 H 0.37214 0.75399 0.17418 0.0
H921 H 0.35985 0.69742 0.12213 0.0
H922 H 0.44785 0.6781 0.05175 0.0
H923 H 0.42236 0.67801 0.08442 0.0
H924 H 0.431 0.73367 0.13571 0.0
C925 C 0.3619 0.7395 0.17818 0.0
C926 C 0.37541 0.70512 0.12552 0.0
C927 C 0.34676 0.74141 0.19597 0.0
C928 C 0.44518 0.69371 0.06089 0.0
C929 C 0.43052 0.69367 0.07948 0.0
C930 C 0.41551 0.72568 0.13258 0.0
C931 C 0.3636 0.71925 0.16556 0.0
C932 C 0.37997 0.7171 0.14692 0.0
C933 C 0.42659 0.71366 0.09167 0.0
C934 C 0.41083 0.714 0.11108 0.0
H935 H 0.32409 0.68858 0.1927 0.0
H936 H 0.35064 0.68513 0.16192 0.0
H937 H 0.40455 0.73607 0.16678 0.0
H938 H 0.46002 0.74949 0.06143 0.0
H939 H 0.4347 0.74934 0.0938 0.0
C940 C 0.73283 0.18032 0.31733 0.0
C941 C 0.74884 0.17718 0.30065 0.0
C942 C 0.72902 0.16437 0.3358 0.0
C943 C 0.73978 0.10471 0.35252 0.0
H944 H 0.72596 0.12256 0.41725 0.0
C945 C 0.75333 0.04879 0.43626 0.0
C946 C 0.73676 0.04568 0.45259 0.0
C947 C 0.75189 0.06447 0.41733 0.0
C948 C 0.72951 0.11735 0.39915 0.0
H949 H 0.77403 0.15548 0.29089 0.0
H950 H 0.76788 0.12812 0.32327 0.0
H951 H 0.7296 0.1512 0.38519 0.0
H952 H 0.70569 0.05664 0.46191 0.0
H953 H 0.70342 0.08476 0.42885 0.0
H954 H 0.74063 0.07103 0.36678 0.0
C955 C 0.75768 0.14238 0.32172 0.0
C956 C 0.73158 0.13372 0.38076 0.0
C957 C 0.76132 0.15814 0.3032 0.0
C958 C 0.71865 0.05864 0.44954 0.0
C959 C 0.71739 0.07475 0.43075 0.0
C960 C 0.73797 0.08847 0.37091 0.0
C961 C 0.74128 0.14505 0.33808 0.0
C962 C 0.73721 0.12765 0.3573 0.0
C963 C 0.73401 0.0777 0.41444 0.0
C964 C 0.73322 0.09466 0.3945 0.0
H965 H 0.72289 0.19479 0.3157 0.0
H966 H 0.71618 0.16695 0.34794 0.0
H967 H 0.74349 0.09926 0.33456 0.0
H968 H 0.76746 0.03902 0.43803 0.0
H969 H 0.765 0.06653 0.40516 0.0
C970 C 0.33441 0.33456 0.80588 0.0
C971 C 0.32773 0.31425 0.79484 0.0
C972 C 0.34981 0.33469 0.8245 0.0
C973 C 0.37407 0.29813 0.87094 0.0
H974 H 0.42066 0.3424 0.87049 0.0
C975 C 0.4469 0.28915 0.93385 0.0
C976 C 0.45593 0.30856 0.94475 0.0
C977 C 0.43123 0.29083 0.91575 0.0
C978 C 0.4076 0.33013 0.87107 0.0
H979 H 0.3318 0.27817 0.79484 0.0
H980 H 0.35875 0.27841 0.82732 0.0
H981 H 0.3931 0.34346 0.83868 0.0
H982 H 0.45573 0.34505 0.94495 0.0
H983 H 0.428 0.34801 0.91343 0.0
H984 H 0.38837 0.28483 0.90329 0.0
C985 C 0.35201 0.29421 0.82162 0.0
C986 C 0.39184 0.33071 0.85283 0.0
C987 C 0.33672 0.29409 0.80289 0.0
C988 C 0.44911 0.32978 0.93687 0.0
C989 C 0.43328 0.33147 0.91876 0.0
C990 C 0.38973 0.29762 0.8892 0.0
C991 C 0.35874 0.31451 0.8326 0.0
C992 C 0.37504 0.31455 0.85243 0.0
C993 C 0.42403 0.31197 0.90815 0.0
C994 C 0.40684 0.31342 0.88934 0.0
H995 H 0.32793 0.3504 0.79989 0.0
H996 H 0.35458 0.35057 0.83272 0.0
H997 H 0.36111 0.28572 0.87137 0.0
H998 H 0.45191 0.27253 0.93929 0.0
H999 H 0.42483 0.27549 0.90762 0.0
C1000 C 0.286 0.81582 0.35467 0.0
C1001 C 0.26966 0.8107 0.33772 0.0
C1002 C 0.28607 0.83578 0.36775 0.0
C1003 C 0.26145 0.89198 0.36948 0.0
H1004 H 0.28043 0.88971 0.43673 0.0
C1005 C 0.24393 0.9605 0.43877 0.0
C1006 C 0.26057 0.96759 0.45458 0.0
C1007 C 0.2463 0.94236 0.42337 0.0
C1008 C 0.27532 0.89068 0.4179 0.0
H1009 H 0.24064 0.82251 0.32103 0.0
H1010 H 0.24034 0.8571 0.3443 0.0
H1011 H 0.28183 0.85614 0.41216 0.0
H1012 H 0.29285 0.96128 0.46642 0.0
H1013 H 0.29686 0.92929 0.43969 0.0
H1014 H 0.25429 0.92642 0.37567 0.0
C1015 C 0.25344 0.84599 0.34715 0.0
C1016 C 0.27616 0.87144 0.40373 0.0
C1017 C 0.25353 0.82612 0.33385 0.0
C1018 C 0.27974 0.95625 0.45445 0.0
C1019 C 0.282 0.93787 0.43925 0.0
C1020 C 0.26038 0.91115 0.38376 0.0
C1021 C 0.26965 0.85103 0.36443 0.0
C1022 C 0.26918 0.87178 0.37933 0.0
C1023 C 0.26527 0.9307 0.42362 0.0
C1024 C 0.26724 0.91068 0.40814 0.0
H1025 H 0.29883 0.80439 0.35776 0.0
H1026 H 0.29909 0.83925 0.38042 0.0
H1027 H 0.2563 0.89308 0.35068 0.0
H1028 H 0.22897 0.96891 0.43835 0.0
H1029 H 0.23306 0.9371 0.41169 0.0
C1030 C 0.66084 0.7338 0.83138 0.0
C1031 C 0.67759 0.7189 0.83024 0.0
C1032 C 0.64209 0.72734 0.84275 0.0
C1033 C 0.62205 0.69005 0.89057 0.0
H1034 H 0.56764 0.71032 0.86647 0.0
C1035 C 0.54639 0.68316 0.94803 0.0
C1036 C 0.53587 0.70358 0.94908 0.0
C1037 C 0.56196 0.6803 0.93082 0.0
C1038 C 0.58271 0.70447 0.87342 0.0
H1039 H 0.68733 0.6851 0.83955 0.0
H1040 H 0.65459 0.67397 0.85987 0.0
H1041 H 0.59842 0.71392 0.84079 0.0
H1042 H 0.53279 0.73661 0.93231 0.0
H1043 H 0.55969 0.73164 0.90256 0.0
H1044 H 0.60648 0.68146 0.92358 0.0
C1045 C 0.65612 0.69071 0.85196 0.0
C1046 C 0.60033 0.70655 0.85872 0.0
C1047 C 0.67488 0.69713 0.84038 0.0
C1048 C 0.54065 0.7207 0.93208 0.0
C1049 C 0.55597 0.71777 0.91484 0.0
C1050 C 0.60439 0.68799 0.90531 0.0
C1051 C 0.6396 0.70584 0.85346 0.0
C1052 C 0.62034 0.70007 0.86743 0.0
C1053 C 0.56703 0.69769 0.91418 0.0
C1054 C 0.5847 0.69591 0.89717 0.0
H1055 H 0.66245 0.75085 0.82431 0.0
H1056 H 0.62985 0.73956 0.844 0.0
H1057 H 0.63728 0.68501 0.89785 0.0
H1058 H 0.54304 0.66967 0.96091 0.0
H1059 H 0.57018 0.6646 0.93067 0.0
loop_
_geom_bond_atom_site_label_1
_geom_bond_atom_site_label_2
_geom_bond_distance
_geom_bond_site_symmetry_2
_ccdc_geom_bond_type
P0 O11 1.490 . S
P0 C14 1.812 . S
P0 C20 1.803 . S
P0 C26 1.819 . S
H1 C15 0.941 . S
H2 C16 0.939 . S
H3 C18 0.940 . S
H4 C19 0.940 . S
H5 C21 0.939 . S
H6 C22 0.942 . S
H7 C24 0.940 . S
H8 C25 0.939 . S
H9 C27 0.941 . S
H10 C31 0.939 . S
O11 P0 1.490 . S
H12 C28 0.939 . S
H13 C30 0.940 . S
C14 P0 1.812 . S
C14 C15 1.389 . S
C14 C19 1.391 . S
C15 H1 0.941 . S
C15 C14 1.389 . S
C15 C16 1.397 . S
C16 H2 0.939 . S
C16 C15 1.397 . S
C16 C17 1.378 . S
C17 C16 1.378 . S
C17 C18 1.378 . S
C18 H3 0.940 . S
C18 C17 1.378 . S
C18 C19 1.396 . S
C19 H4 0.940 . S
C19 C14 1.391 . S
C19 C18 1.396 . S
C20 P0 1.803 . S
C20 C21 1.378 . S
C20 C25 1.400 . S
C21 H5 0.939 . S
C21 C20 1.378 . S
C21 C22 1.361 . S
C22 H6 0.942 . S
C22 C21 1.361 . S
C22 C23 1.369 . S
C23 C22 1.369 . S
C23 C24 1.404 . S
C24 H7 0.940 . S
C24 C23 1.404 . S
C24 C25 1.389 . S
C25 H8 0.939 . S
C25 C20 1.400 . S
C25 C24 1.389 . S
C26 P0 1.819 . S
C26 C27 1.391 . S
C26 C31 1.391 . S
C27 H9 0.941 . S
C27 C26 1.391 . S
C27 C28 1.396 . S
C28 H12 0.939 . S
C28 C27 1.396 . S
C28 C29 1.397 . S
C29 C28 1.397 . S
C29 C30 1.385 . S
C30 H13 0.940 . S
C30 C29 1.385 . S
C30 C31 1.388 . S
C31 H10 0.939 . S
C31 C26 1.391 . S
C31 C30 1.388 . S
P32 O43 1.490 . S
P32 C46 1.812 . S
P32 C52 1.803 . S
P32 C58 1.819 . S
H33 C47 0.941 . S
H34 C48 0.939 . S
H35 C50 0.940 . S
H36 C51 0.940 . S
H37 C53 0.939 . S
H38 C54 0.942 . S
H39 C56 0.940 . S
H40 C57 0.939 . S
H41 C59 0.941 . S
H42 C63 0.939 . S
O43 P32 1.490 . S
H44 C60 0.939 . S
H45 C62 0.940 . S
C46 P32 1.812 . S
C46 C47 1.389 . S
C46 C51 1.391 . S
C47 H33 0.941 . S
C47 C46 1.389 . S
C47 C48 1.397 . S
C48 H34 0.939 . S
C48 C47 1.397 . S
C48 C49 1.378 . S
C49 C48 1.378 . S
C49 C50 1.378 . S
C50 H35 0.940 . S
C50 C49 1.378 . S
C50 C51 1.396 . S
C51 H36 0.940 . S
C51 C46 1.391 . S
C51 C50 1.396 . S
C52 P32 1.803 . S
C52 C53 1.378 . S
C52 C57 1.400 . S
C53 H37 0.939 . S
C53 C52 1.378 . S
C53 C54 1.361 . S
C54 H38 0.942 . S
C54 C53 1.361 . S
C54 C55 1.369 . S
C55 C54 1.369 . S
C55 C56 1.404 . S
C56 H39 0.940 . S
C56 C55 1.404 . S
C56 C57 1.389 . S
C57 H40 0.939 . S
C57 C52 1.400 . S
C57 C56 1.389 . S
C58 P32 1.819 . S
C58 C59 1.391 . S
C58 C63 1.391 . S
C59 H41 0.941 . S
C59 C58 1.391 . S
C59 C60 1.396 . S
C60 H44 0.939 . S
C60 C59 1.396 . S
C60 C61 1.397 . S
C61 C60 1.397 . S
C61 C62 1.385 . S
C62 H45 0.940 . S
C62 C61 1.385 . S
C62 C63 1.388 . S
C63 H42 0.939 . S
C63 C58 1.391 . S
C63 C62 1.388 . S
P64 O75 1.490 . S
P64 C78 1.812 . S
P64 C84 1.803 . S
P64 C90 1.819 . S
H65 C79 0.941 . S
H66 C80 0.939 . S
H67 C82 0.940 . S
H68 C83 0.940 . S
H69 C85 0.939 . S
H70 C86 0.942 . S
H71 C88 0.940 . S
H72 C89 0.939 . S
H73 C91 0.941 . S
H74 C95 0.939 . S
O75 P64 1.490 . S
H76 C92 0.939 . S
H77 C94 0.940 . S
C78 P64 1.812 . S
C78 C79 1.389 . S
C78 C83 1.391 . S
C79 H65 0.941 . S
C79 C78 1.389 . S
C79 C80 1.397 . S
C80 H66 0.939 . S
C80 C79 1.397 . S
C80 C81 1.378 . S
C81 C80 1.378 . S
C81 C82 1.378 . S
C82 H67 0.940 . S
C82 C81 1.378 . S
C82 C83 1.396 . S
C83 H68 0.940 . S
C83 C78 1.391 . S
C83 C82 1.396 . S
C84 P64 1.803 . S
C84 C85 1.378 . S
C84 C89 1.400 . S
C85 H69 0.939 . S
C85 C84 1.378 . S
C85 C86 1.361 . S
C86 H70 0.942 . S
C86 C85 1.361 . S
C86 C87 1.369 . S
C87 C86 1.369 . S
C87 C88 1.404 . S
C88 H71 0.940 . S
C88 C87 1.404 . S
C88 C89 1.389 . S
C89 H72 0.939 . S
C89 C84 1.400 . S
C89 C88 1.389 . S
C90 P64 1.819 . S
C90 C91 1.391 . S
C90 C95 1.391 . S
C91 H73 0.941 . S
C91 C90 1.391 . S
C91 C92 1.396 . S
C92 H76 0.939 . S
C92 C91 1.396 . S
C92 C93 1.397 . S
C93 C92 1.397 . S
C93 C94 1.385 . S
C94 H77 0.940 . S
C94 C93 1.385 . S
C94 C95 1.388 . S
C95 H74 0.939 . S
C95 C90 1.391 . S
C95 C94 1.388 . S
P96 O107 1.490 . S
P96 C110 1.812 . S
P96 C116 1.803 . S
P96 C122 1.819 . S
H97 C111 0.941 . S
H98 C112 0.939 . S
H99 C114 0.940 . S
H100 C115 0.940 . S
H101 C117 0.939 . S
H102 C118 0.942 . S
H103 C120 0.940 . S
H104 C121 0.939 . S
H105 C123 0.941 . S
H106 C127 0.939 . S
O107 P96 1.490 . S
H108 C124 0.939 . S
H109 C126 0.940 . S
C110 P96 1.812 . S
C110 C111 1.389 . S
C110 C115 1.391 . S
C111 H97 0.941 . S
C111 C110 1.389 . S
C111 C112 1.397 . S
C112 H98 0.939 . S
C112 C111 1.397 . S
C112 C113 1.378 . S
C113 C112 1.378 . S
C113 C114 1.378 . S
C114 H99 0.940 . S
C114 C113 1.378 . S
C114 C115 1.396 . S
C115 H100 0.940 . S
C115 C110 1.391 . S
C115 C114 1.396 . S
C116 P96 1.803 . S
C116 C117 1.378 . S
C116 C121 1.400 . S
C117 H101 0.939 . S
C117 C116 1.378 . S
C117 C118 1.361 . S
C118 H102 0.942 . S
C118 C117 1.361 . S
C118 C119 1.369 . S
C119 C118 1.369 . S
C119 C120 1.404 . S
C120 H103 0.940 . S
C120 C119 1.404 . S
C120 C121 1.389 . S
C121 H104 0.939 . S
C121 C116 1.400 . S
C121 C120 1.389 . S
C122 P96 1.819 . S
C122 C123 1.391 . S
C122 C127 1.391 . S
C123 H105 0.941 . S
C123 C122 1.391 . S
C123 C124 1.396 . S
C124 H108 0.939 . S
C124 C123 1.396 . S
C124 C125 1.397 . S
C125 C124 1.397 . S
C125 C126 1.385 . S
C126 H109 0.940 . S
C126 C125 1.385 . S
C126 C127 1.388 . S
C127 H106 0.939 . S
C127 C122 1.391 . S
C127 C126 1.388 . S
P128 O139 1.490 . S
P128 C142 1.812 . S
P128 C148 1.803 . S
P128 C154 1.819 . S
H129 C143 0.941 . S
H130 C144 0.939 . S
H131 C146 0.940 . S
H132 C147 0.940 . S
H133 C149 0.939 . S
H134 C150 0.942 . S
H135 C152 0.940 . S
H136 C153 0.939 . S
H137 C155 0.941 . S
H138 C159 0.939 . S
O139 P128 1.490 . S
H140 C156 0.939 . S
H141 C158 0.940 . S
C142 P128 1.812 . S
C142 C143 1.389 . S
C142 C147 1.391 . S
C143 H129 0.941 . S
C143 C142 1.389 . S
C143 C144 1.397 . S
C144 H130 0.939 . S
C144 C143 1.397 . S
C144 C145 1.378 . S
C145 C144 1.378 . S
C145 C146 1.378 . S
C146 H131 0.940 . S
C146 C145 1.378 . S
C146 C147 1.396 . S
C147 H132 0.940 . S
C147 C142 1.391 . S
C147 C146 1.396 . S
C148 P128 1.803 . S
C148 C149 1.378 . S
C148 C153 1.400 . S
C149 H133 0.939 . S
C149 C148 1.378 . S
C149 C150 1.361 . S
C150 H134 0.942 . S
C150 C149 1.361 . S
C150 C151 1.369 . S
C151 C150 1.369 . S
C151 C152 1.404 . S
C152 H135 0.940 . S
C152 C151 1.404 . S
C152 C153 1.389 . S
C153 H136 0.939 . S
C153 C148 1.400 . S
C153 C152 1.389 . S
C154 P128 1.819 . S
C154 C155 1.391 . S
C154 C159 1.391 . S
C155 H137 0.941 . S
C155 C154 1.391 . S
C155 C156 1.396 . S
C156 H140 0.939 . S
C156 C155 1.396 . S
C156 C157 1.397 . S
C157 C156 1.397 . S
C157 C158 1.385 . S
C158 H141 0.940 . S
C158 C157 1.385 . S
C158 C159 1.388 . S
C159 H138 0.939 . S
C159 C154 1.391 . S
C159 C158 1.388 . S
P160 O171 1.490 . S
P160 C174 1.812 . S
P160 C180 1.803 . S
P160 C186 1.819 . S
H161 C175 0.941 . S
H162 C176 0.939 . S
H163 C178 0.940 . S
H164 C179 0.940 . S
H165 C181 0.939 . S
H166 C182 0.942 . S
H167 C184 0.940 . S
H168 C185 0.939 . S
H169 C187 0.941 . S
H170 C191 0.939 . S
O171 P160 1.490 . S
H172 C188 0.939 . S
H173 C190 0.940 . S
C174 P160 1.812 . S
C174 C175 1.389 . S
C174 C179 1.391 . S
C175 H161 0.941 . S
C175 C174 1.389 . S
C175 C176 1.397 . S
C176 H162 0.939 . S
C176 C175 1.397 . S
C176 C177 1.378 . S
C177 C176 1.378 . S
C177 C178 1.378 . S
C178 H163 0.940 . S
C178 C177 1.378 . S
C178 C179 1.396 . S
C179 H164 0.940 . S
C179 C174 1.391 . S
C179 C178 1.396 . S
C180 P160 1.803 . S
C180 C181 1.378 . S
C180 C185 1.400 . S
C181 H165 0.939 . S
C181 C180 1.378 . S
C181 C182 1.361 . S
C182 H166 0.942 . S
C182 C181 1.361 . S
C182 C183 1.369 . S
C183 C182 1.369 . S
C183 C184 1.404 . S
C184 H167 0.940 . S
C184 C183 1.404 . S
C184 C185 1.389 . S
C185 H168 0.939 . S
C185 C180 1.400 . S
C185 C184 1.389 . S
C186 P160 1.819 . S
C186 C187 1.391 . S
C186 C191 1.391 . S
C187 H169 0.941 . S
C187 C186 1.391 . S
C187 C188 1.396 . S
C188 H172 0.939 . S
C188 C187 1.396 . S
C188 C189 1.397 . S
C189 C188 1.397 . S
C189 C190 1.385 . S
C190 H173 0.940 . S
C190 C189 1.385 . S
C190 C191 1.388 . S
C191 H170 0.939 . S
C191 C186 1.391 . S
C191 C190 1.388 . S
P192 O203 1.490 . S
P192 C206 1.812 . S
P192 C212 1.803 . S
P192 C218 1.819 . S
H193 C207 0.941 . S
H194 C208 0.939 . S
H195 C210 0.940 . S
H196 C211 0.940 . S
H197 C213 0.939 . S
H198 C214 0.942 . S
H199 C216 0.940 . S
H200 C217 0.939 . S
H201 C219 0.941 . S
H202 C223 0.939 . S
O203 P192 1.490 . S
H204 C220 0.939 . S
H205 C222 0.940 . S
C206 P192 1.812 . S
C206 C207 1.389 . S
C206 C211 1.391 . S
C207 H193 0.941 . S
C207 C206 1.389 . S
C207 C208 1.397 . S
C208 H194 0.939 . S
C208 C207 1.397 . S
C208 C209 1.378 . S
C209 C208 1.378 . S
C209 C210 1.378 . S
C210 H195 0.940 . S
C210 C209 1.378 . S
C210 C211 1.396 . S
C211 H196 0.940 . S
C211 C206 1.391 . S
C211 C210 1.396 . S
C212 P192 1.803 . S
C212 C213 1.378 . S
C212 C217 1.400 . S
C213 H197 0.939 . S
C213 C212 1.378 . S
C213 C214 1.361 . S
C214 H198 0.942 . S
C214 C213 1.361 . S
C214 C215 1.369 . S
C215 C214 1.369 . S
C215 C216 1.404 . S
C216 H199 0.940 . S
C216 C215 1.404 . S
C216 C217 1.389 . S
C217 H200 0.939 . S
C217 C212 1.400 . S
C217 C216 1.389 . S
C218 P192 1.819 . S
C218 C219 1.391 . S
C218 C223 1.391 . S
C219 H201 0.941 . S
C219 C218 1.391 . S
C219 C220 1.396 . S
C220 H204 0.939 . S
C220 C219 1.396 . S
C220 C221 1.397 . S
C221 C220 1.397 . S
C221 C222 1.385 . S
C222 H205 0.940 . S
C222 C221 1.385 . S
C222 C223 1.388 . S
C223 H202 0.939 . S
C223 C218 1.391 . S
C223 C222 1.388 . S
P224 O235 1.490 . S
P224 C238 1.812 . S
P224 C244 1.803 . S
P224 C250 1.819 . S
H225 C239 0.941 . S
H226 C240 0.939 . S
H227 C242 0.940 . S
H228 C243 0.940 . S
H229 C245 0.939 . S
H230 C246 0.942 . S
H231 C248 0.940 . S
H232 C249 0.939 . S
H233 C251 0.941 . S
H234 C255 0.939 . S
O235 P224 1.490 . S
H236 C252 0.939 . S
H237 C254 0.940 . S
C238 P224 1.812 . S
C238 C239 1.389 . S
C238 C243 1.391 . S
C239 H225 0.941 . S
C239 C238 1.389 . S
C239 C240 1.397 . S
C240 H226 0.939 . S
C240 C239 1.397 . S
C240 C241 1.378 . S
C241 C240 1.378 . S
C241 C242 1.378 . S
C242 H227 0.940 . S
C242 C241 1.378 . S
C242 C243 1.396 . S
C243 H228 0.940 . S
C243 C238 1.391 . S
C243 C242 1.396 . S
C244 P224 1.803 . S
C244 C245 1.378 . S
C244 C249 1.400 . S
C245 H229 0.939 . S
C245 C244 1.378 . S
C245 C246 1.361 . S
C246 H230 0.942 . S
C246 C245 1.361 . S
C246 C247 1.369 . S
C247 C246 1.369 . S
C247 C248 1.404 . S
C248 H231 0.940 . S
C248 C247 1.404 . S
C248 C249 1.389 . S
C249 H232 0.939 . S
C249 C244 1.400 . S
C249 C248 1.389 . S
C250 P224 1.819 . S
C250 C251 1.391 . S
C250 C255 1.391 . S
C251 H233 0.941 . S
C251 C250 1.391 . S
C251 C252 1.396 . S
C252 H236 0.939 . S
C252 C251 1.396 . S
C252 C253 1.397 . S
C253 C252 1.397 . S
C253 C254 1.385 . S
C254 H237 0.940 . S
C254 C253 1.385 . S
C254 C255 1.388 . S
C255 H234 0.939 . S
C255 C250 1.391 . S
C255 C254 1.388 . S
C256 O258 1.247 . S
C256 O260 1.258 . S
C257 O264 1.247 . S
C257 O265 1.258 . S
O258 C256 1.247 . S
O258 Zn259 2.028 1_655 S
Zn259 O258 2.028 1_455 S
Zn259 O263 2.035 . S
Zn259 O265 2.035 . S
Zn259 O266 2.028 1_455 S
O260 C256 1.258 . S
O260 Zn261 2.035 1_655 S
Zn261 O260 2.035 1_455 S
Zn261 O262 2.028 . S
Zn261 O264 2.028 . S
Zn261 O267 2.035 1_455 S
O262 Zn261 2.028 . S
O262 C268 1.247 . S
O263 Zn259 2.035 . S
O263 C268 1.258 . S
O264 C257 1.247 . S
O264 Zn261 2.028 . S
O265 C257 1.258 . S
O265 Zn259 2.035 . S
O266 Zn259 2.028 1_655 S
O266 C269 1.247 . S
O267 Zn261 2.035 1_655 S
O267 C269 1.258 . S
C268 O262 1.247 . S
C268 O263 1.258 . S
C269 O266 1.247 . S
C269 O267 1.258 . S
C270 O272 1.247 . S
C270 O274 1.258 . S
C271 O278 1.247 . S
C271 O279 1.258 . S
O272 C270 1.247 . S
O272 Zn273 2.028 1_655 S
Zn273 O272 2.028 1_455 S
Zn273 O277 2.035 . S
Zn273 O279 2.035 . S
Zn273 O280 2.028 1_455 S
O274 C270 1.258 . S
O274 Zn275 2.040 . S
Zn275 O274 2.040 . S
Zn275 O276 2.023 1_655 S
Zn275 O278 2.023 1_655 S
Zn275 O281 2.041 . S
O276 Zn275 2.023 1_455 S
O276 C282 1.247 . S
O277 Zn273 2.035 . S
O277 C282 1.258 . S
O278 C271 1.247 . S
O278 Zn275 2.023 1_455 S
O279 C271 1.258 . S
O279 Zn273 2.035 . S
O280 Zn273 2.028 1_655 S
O280 C283 1.247 . S
O281 Zn275 2.041 . S
O281 C283 1.258 . S
C282 O276 1.247 . S
C282 O277 1.258 . S
C283 O280 1.247 . S
C283 O281 1.258 . S
C284 O286 1.247 . S
C284 O288 1.258 . S
C285 O292 1.247 . S
C285 O293 1.258 . S
O286 C284 1.247 . S
O286 Zn287 2.028 1_565 S
Zn287 O286 2.028 1_545 S
Zn287 O291 2.035 . S
Zn287 O293 2.035 . S
Zn287 O294 2.028 1_545 S
O288 C284 1.258 . S
O288 Zn289 2.035 1_565 S
Zn289 O288 2.035 1_545 S
Zn289 O290 2.028 . S
Zn289 O292 2.028 . S
Zn289 O295 2.035 1_545 S
O290 Zn289 2.028 . S
O290 C296 1.247 . S
O291 Zn287 2.035 . S
O291 C296 1.258 . S
O292 C285 1.247 . S
O292 Zn289 2.028 . S
O293 C285 1.258 . S
O293 Zn287 2.035 . S
O294 Zn287 2.028 1_565 S
O294 C297 1.247 . S
O295 Zn289 2.035 1_565 S
O295 C297 1.258 . S
C296 O290 1.247 . S
C296 O291 1.258 . S
C297 O294 1.247 . S
C297 O295 1.258 . S
C298 O300 1.247 . S
C298 O302 1.258 . S
C299 O306 1.247 . S
C299 O307 1.258 . S
O300 C298 1.247 . S
O300 Zn301 2.028 . S
Zn301 O300 2.028 . S
Zn301 O305 2.035 . S
Zn301 O307 2.035 1_554 S
Zn301 O308 2.028 1_554 S
O302 C298 1.258 . S
O302 Zn303 2.035 . S
Zn303 O302 2.035 . S
Zn303 O304 2.028 . S
Zn303 O306 2.028 1_554 S
Zn303 O309 2.035 1_554 S
O304 Zn303 2.028 . S
O304 C310 1.247 . S
O305 Zn301 2.035 . S
O305 C310 1.258 . S
O306 C299 1.247 . S
O306 Zn303 2.028 1_556 S
O307 C299 1.258 . S
O307 Zn301 2.035 1_556 S
O308 Zn301 2.028 1_556 S
O308 C311 1.247 . S
O309 Zn303 2.035 1_556 S
O309 C311 1.258 . S
C310 O304 1.247 . S
C310 O305 1.258 . S
C311 O308 1.247 . S
C311 O309 1.258 . S
C312 O314 1.247 . S
C312 O316 1.258 . S
C313 O320 1.247 . S
C313 O321 1.258 . S
O314 C312 1.247 . S
O314 Zn315 2.044 . S
Zn315 O314 2.044 . S
Zn315 O319 2.019 1_565 S
Zn315 O321 2.019 1_565 S
Zn315 O322 2.044 . S
O316 C312 1.258 . S
O316 Zn317 2.035 1_565 S
Zn317 O316 2.035 1_545 S
Zn317 O318 2.028 . S
Zn317 O320 2.028 . S
Zn317 O323 2.035 1_545 S
O318 Zn317 2.028 . S
O318 C324 1.247 . S
O319 Zn315 2.019 1_545 S
O319 C324 1.258 . S
O320 C313 1.247 . S
O320 Zn317 2.028 . S
O321 C313 1.258 . S
O321 Zn315 2.019 1_545 S
O322 Zn315 2.044 . S
O322 C325 1.247 . S
O323 Zn317 2.035 1_565 S
O323 C325 1.258 . S
C324 O318 1.247 . S
C324 O319 1.258 . S
C325 O322 1.247 . S
C325 O323 1.258 . S
C326 O328 1.247 . S
C326 O330 1.258 . S
C327 O334 1.247 . S
C327 O335 1.258 . S
O328 C326 1.247 . S
O328 Zn329 2.028 . S
Zn329 O328 2.028 . S
Zn329 O333 2.035 . S
Zn329 O335 2.035 1_554 S
Zn329 O336 2.028 1_554 S
O330 C326 1.258 . S
O330 Zn331 2.036 1_554 S
Zn331 O330 2.036 1_556 S
Zn331 O332 2.029 1_556 S
Zn331 O334 2.027 . S
Zn331 O337 2.034 . S
O332 Zn331 2.029 1_554 S
O332 C338 1.247 . S
O333 Zn329 2.035 . S
O333 C338 1.258 . S
O334 C327 1.247 . S
O334 Zn331 2.027 . S
O335 C327 1.258 . S
O335 Zn329 2.035 1_556 S
O336 Zn329 2.028 1_556 S
O336 C339 1.247 . S
O337 Zn331 2.034 . S
O337 C339 1.258 . S
C338 O332 1.247 . S
C338 O333 1.258 . S
C339 O336 1.247 . S
C339 O337 1.258 . S
C340 C341 1.349 . S
C340 C342 1.327 . S
C340 H365 0.950 . S
C341 C340 1.349 . S
C341 C357 1.349 . S
C342 C340 1.327 . S
C342 C361 1.429 . S
C342 H366 0.950 . S
C343 C360 1.574 . S
C343 C362 1.368 . S
C343 H367 0.949 . S
H344 C348 0.949 . S
C345 C346 1.349 . S
C345 C347 1.327 . S
C345 H368 0.950 . S
C346 C345 1.349 . S
C346 C358 1.349 . S
C347 C345 1.327 . S
C347 C363 1.429 . S
C347 H369 0.950 . S
C348 H344 0.949 . S
C348 C356 1.574 . S
C348 C364 1.368 . S
H349 C357 0.950 . S
H350 C355 0.950 . S
H351 C356 0.949 . S
H352 C358 0.950 . S
H353 C359 0.950 . S
H354 C360 0.949 . S
C355 H350 0.950 . S
C355 C357 1.327 . S
C355 C361 1.429 . S
C356 C348 1.574 . S
C356 H351 0.949 . S
C356 C362 1.368 . S
C357 C341 1.349 . S
C357 H349 0.950 . S
C357 C355 1.327 . S
C358 C346 1.349 . S
C358 H352 0.950 . S
C358 C359 1.327 . S
C359 H353 0.950 . S
C359 C358 1.327 . S
C359 C363 1.429 . S
C360 C343 1.574 . S
C360 H354 0.949 . S
C360 C364 1.368 . S
C361 C342 1.429 . S
C361 C355 1.429 . S
C361 C362 1.523 . S
C362 C343 1.368 . S
C362 C356 1.368 . S
C362 C361 1.523 . S
C363 C347 1.429 . S
C363 C359 1.429 . S
C363 C364 1.523 . S
C364 C348 1.368 . S
C364 C360 1.368 . S
C364 C363 1.523 . S
H365 C340 0.950 . S
H366 C342 0.950 . S
H367 C343 0.949 . S
H368 C345 0.950 . S
H369 C347 0.950 . S
C370 C371 1.349 . S
C370 C372 1.327 . S
C370 H395 0.950 . S
C371 C370 1.349 . S
C371 C387 1.349 . S
C372 C370 1.327 . S
C372 C391 1.429 . S
C372 H396 0.950 . S
C373 C390 1.574 . S
C373 C392 1.368 . S
C373 H397 0.949 . S
H374 C378 0.949 . S
C375 C376 1.349 . S
C375 C377 1.327 . S
C375 H398 0.950 . S
C376 C375 1.349 . S
C376 C388 1.349 . S
C377 C375 1.327 . S
C377 C393 1.429 . S
C377 H399 0.950 . S
C378 H374 0.949 . S
C378 C386 1.574 . S
C378 C394 1.368 . S
H379 C387 0.950 . S
H380 C385 0.950 . S
H381 C386 0.949 . S
H382 C388 0.950 . S
H383 C389 0.950 . S
H384 C390 0.949 . S
C385 H380 0.950 . S
C385 C387 1.327 . S
C385 C391 1.429 . S
C386 C378 1.574 . S
C386 H381 0.949 . S
C386 C392 1.368 . S
C387 C371 1.349 . S
C387 H379 0.950 . S
C387 C385 1.327 . S
C388 C376 1.349 . S
C388 H382 0.950 . S
C388 C389 1.327 . S
C389 H383 0.950 . S
C389 C388 1.327 . S
C389 C393 1.429 . S
C390 C373 1.574 . S
C390 H384 0.949 . S
C390 C394 1.368 . S
C391 C372 1.429 . S
C391 C385 1.429 . S
C391 C392 1.523 . S
C392 C373 1.368 . S
C392 C386 1.368 . S
C392 C391 1.523 . S
C393 C377 1.429 . S
C393 C389 1.429 . S
C393 C394 1.523 . S
C394 C378 1.368 . S
C394 C390 1.368 . S
C394 C393 1.523 . S
H395 C370 0.950 . S
H396 C372 0.950 . S
H397 C373 0.949 . S
H398 C375 0.950 . S
H399 C377 0.950 . S
C400 C401 1.349 . S
C400 C402 1.327 . S
C400 H425 0.950 . S
C401 C400 1.349 . S
C401 C417 1.349 . S
C402 C400 1.327 . S
C402 C421 1.429 . S
C402 H426 0.950 . S
C403 C420 1.574 . S
C403 C422 1.368 . S
C403 H427 0.949 . S
H404 C408 0.949 . S
C405 C406 1.349 . S
C405 C407 1.327 . S
C405 H428 0.950 . S
C406 C405 1.349 . S
C406 C418 1.349 . S
C407 C405 1.327 . S
C407 C423 1.429 . S
C407 H429 0.950 . S
C408 H404 0.949 . S
C408 C416 1.574 . S
C408 C424 1.368 . S
H409 C417 0.950 . S
H410 C415 0.950 . S
H411 C416 0.949 . S
H412 C418 0.950 . S
H413 C419 0.950 . S
H414 C420 0.949 . S
C415 H410 0.950 . S
C415 C417 1.327 . S
C415 C421 1.429 . S
C416 C408 1.574 . S
C416 H411 0.949 . S
C416 C422 1.368 . S
C417 C401 1.349 . S
C417 H409 0.950 . S
C417 C415 1.327 . S
C418 C406 1.349 . S
C418 H412 0.950 . S
C418 C419 1.327 . S
C419 H413 0.950 . S
C419 C418 1.327 . S
C419 C423 1.429 . S
C420 C403 1.574 . S
C420 H414 0.949 . S
C420 C424 1.368 . S
C421 C402 1.429 . S
C421 C415 1.429 . S
C421 C422 1.523 . S
C422 C403 1.368 . S
C422 C416 1.368 . S
C422 C421 1.523 . S
C423 C407 1.429 . S
C423 C419 1.429 . S
C423 C424 1.523 . S
C424 C408 1.368 . S
C424 C420 1.368 . S
C424 C423 1.523 . S
H425 C400 0.950 . S
H426 C402 0.950 . S
H427 C403 0.949 . S
H428 C405 0.950 . S
H429 C407 0.950 . S
C430 C431 1.349 . S
C430 C432 1.327 . S
C430 H455 0.950 . S
C431 C430 1.349 . S
C431 C447 1.349 . S
C432 C430 1.327 . S
C432 C451 1.429 . S
C432 H456 0.950 . S
C433 C450 1.574 . S
C433 C452 1.368 . S
C433 H457 0.949 . S
H434 C438 0.949 . S
C435 C436 1.349 . S
C435 C437 1.327 . S
C435 H458 0.950 . S
C436 C435 1.349 . S
C436 C448 1.349 . S
C437 C435 1.327 . S
C437 C453 1.429 . S
C437 H459 0.950 . S
C438 H434 0.949 . S
C438 C446 1.574 . S
C438 C454 1.368 . S
H439 C447 0.950 . S
H440 C445 0.950 . S
H441 C446 0.949 . S
H442 C448 0.950 . S
H443 C449 0.950 . S
H444 C450 0.949 . S
C445 H440 0.950 . S
C445 C447 1.327 . S
C445 C451 1.429 . S
C446 C438 1.574 . S
C446 H441 0.949 . S
C446 C452 1.368 . S
C447 C431 1.349 . S
C447 H439 0.950 . S
C447 C445 1.327 . S
C448 C436 1.349 . S
C448 H442 0.950 . S
C448 C449 1.327 . S
C449 H443 0.950 . S
C449 C448 1.327 . S
C449 C453 1.429 . S
C450 C433 1.574 . S
C450 H444 0.949 . S
C450 C454 1.368 . S
C451 C432 1.429 . S
C451 C445 1.429 . S
C451 C452 1.523 . S
C452 C433 1.368 . S
C452 C446 1.368 . S
C452 C451 1.523 . S
C453 C437 1.429 . S
C453 C449 1.429 . S
C453 C454 1.523 . S
C454 C438 1.368 . S
C454 C450 1.368 . S
C454 C453 1.523 . S
H455 C430 0.950 . S
H456 C432 0.950 . S
H457 C433 0.949 . S
H458 C435 0.950 . S
H459 C437 0.950 . S
C460 C461 1.349 . S
C460 C462 1.327 . S
C460 H485 0.950 . S
C461 C460 1.349 . S
C461 C477 1.349 . S
C462 C460 1.327 . S
C462 C481 1.429 . S
C462 H486 0.950 . S
C463 C480 1.574 . S
C463 C482 1.368 . S
C463 H487 0.949 . S
H464 C468 0.949 . S
C465 C466 1.349 . S
C465 C467 1.327 . S
C465 H488 0.950 . S
C466 C465 1.349 . S
C466 C478 1.349 . S
C467 C465 1.327 . S
C467 C483 1.429 . S
C467 H489 0.950 . S
C468 H464 0.949 . S
C468 C476 1.574 . S
C468 C484 1.368 . S
H469 C477 0.950 . S
H470 C475 0.950 . S
H471 C476 0.949 . S
H472 C478 0.950 . S
H473 C479 0.950 . S
H474 C480 0.949 . S
C475 H470 0.950 . S
C475 C477 1.327 . S
C475 C481 1.429 . S
C476 C468 1.574 . S
C476 H471 0.949 . S
C476 C482 1.368 . S
C477 C461 1.349 . S
C477 H469 0.950 . S
C477 C475 1.327 . S
C478 C466 1.349 . S
C478 H472 0.950 . S
C478 C479 1.327 . S
C479 H473 0.950 . S
C479 C478 1.327 . S
C479 C483 1.429 . S
C480 C463 1.574 . S
C480 H474 0.949 . S
C480 C484 1.368 . S
C481 C462 1.429 . S
C481 C475 1.429 . S
C481 C482 1.523 . S
C482 C463 1.368 . S
C482 C476 1.368 . S
C482 C481 1.523 . S
C483 C467 1.429 . S
C483 C479 1.429 . S
C483 C484 1.523 . S
C484 C468 1.368 . S
C484 C480 1.368 . S
C484 C483 1.523 . S
H485 C460 0.950 . S
H486 C462 0.950 . S
H487 C463 0.949 . S
H488 C465 0.950 . S
H489 C467 0.950 . S
C490 C491 1.349 . S
C490 C492 1.327 . S
C490 H515 0.950 . S
C491 C490 1.349 . S
C491 C507 1.349 . S
C492 C490 1.327 . S
C492 C511 1.429 . S
C492 H516 0.950 . S
C493 C510 1.574 . S
C493 C512 1.368 . S
C493 H517 0.949 . S
H494 C498 0.949 . S
C495 C496 1.349 . S
C495 C497 1.327 . S
C495 H518 0.950 . S
C496 C495 1.349 . S
C496 C508 1.349 . S
C497 C495 1.327 . S
C497 C513 1.429 . S
C497 H519 0.950 . S
C498 H494 0.949 . S
C498 C506 1.574 . S
C498 C514 1.368 . S
H499 C507 0.950 . S
H500 C505 0.950 . S
H501 C506 0.949 . S
H502 C508 0.950 . S
H503 C509 0.950 . S
H504 C510 0.949 . S
C505 H500 0.950 . S
C505 C507 1.327 . S
C505 C511 1.429 . S
C506 C498 1.574 . S
C506 H501 0.949 . S
C506 C512 1.368 . S
C507 C491 1.349 . S
C507 H499 0.950 . S
C507 C505 1.327 . S
C508 C496 1.349 . S
C508 H502 0.950 . S
C508 C509 1.327 . S
C509 H503 0.950 . S
C509 C508 1.327 . S
C509 C513 1.429 . S
C510 C493 1.574 . S
C510 H504 0.949 . S
C510 C514 1.368 . S
C511 C492 1.429 . S
C511 C505 1.429 . S
C511 C512 1.523 . S
C512 C493 1.368 . S
C512 C506 1.368 . S
C512 C511 1.523 . S
C513 C497 1.429 . S
C513 C509 1.429 . S
C513 C514 1.523 . S
C514 C498 1.368 . S
C514 C510 1.368 . S
C514 C513 1.523 . S
H515 C490 0.950 . S
H516 C492 0.950 . S
H517 C493 0.949 . S
H518 C495 0.950 . S
H519 C497 0.950 . S
C520 C521 1.349 . S
C520 C522 1.327 . S
C520 H545 0.950 . S
C521 C520 1.349 . S
C521 C537 1.349 . S
C522 C520 1.327 . S
C522 C541 1.429 . S
C522 H546 0.950 . S
C523 C540 1.574 . S
C523 C542 1.368 . S
C523 H547 0.949 . S
H524 C528 0.949 . S
C525 C526 1.349 . S
C525 C527 1.327 . S
C525 H548 0.950 . S
C526 C525 1.349 . S
C526 C538 1.349 . S
C527 C525 1.327 . S
C527 C543 1.429 . S
C527 H549 0.950 . S
C528 H524 0.949 . S
C528 C536 1.574 . S
C528 C544 1.368 . S
H529 C537 0.950 . S
H530 C535 0.950 . S
H531 C536 0.949 . S
H532 C538 0.950 . S
H533 C539 0.950 . S
H534 C540 0.949 . S
C535 H530 0.950 . S
C535 C537 1.327 . S
C535 C541 1.429 . S
C536 C528 1.574 . S
C536 H531 0.949 . S
C536 C542 1.368 . S
C537 C521 1.349 . S
C537 H529 0.950 . S
C537 C535 1.327 . S
C538 C526 1.349 . S
C538 H532 0.950 . S
C538 C539 1.327 . S
C539 H533 0.950 . S
C539 C538 1.327 . S
C539 C543 1.429 . S
C540 C523 1.574 . S
C540 H534 0.949 . S
C540 C544 1.368 . S
C541 C522 1.429 . S
C541 C535 1.429 . S
C541 C542 1.523 . S
C542 C523 1.368 . S
C542 C536 1.368 . S
C542 C541 1.523 . S
C543 C527 1.429 . S
C543 C539 1.429 . S
C543 C544 1.523 . S
C544 C528 1.368 . S
C544 C540 1.368 . S
C544 C543 1.523 . S
H545 C520 0.950 . S
H546 C522 0.950 . S
H547 C523 0.949 . S
H548 C525 0.950 . S
H549 C527 0.950 . S
C550 C551 1.349 . S
C550 C552 1.327 . S
C550 H575 0.950 . S
C551 C550 1.349 . S
C551 C567 1.349 . S
C552 C550 1.327 . S
C552 C571 1.429 . S
C552 H576 0.950 . S
C553 C570 1.574 . S
C553 C572 1.368 . S
C553 H577 0.949 . S
H554 C558 0.949 . S
C555 C556 1.349 . S
C555 C557 1.327 . S
C555 H578 0.950 . S
C556 C555 1.349 . S
C556 C568 1.349 . S
C557 C555 1.327 . S
C557 C573 1.429 . S
C557 H579 0.950 . S
C558 H554 0.949 . S
C558 C566 1.574 . S
C558 C574 1.368 . S
H559 C567 0.950 . S
H560 C565 0.950 . S
H561 C566 0.949 . S
H562 C568 0.950 . S
H563 C569 0.950 . S
H564 C570 0.949 . S
C565 H560 0.950 . S
C565 C567 1.327 . S
C565 C571 1.429 . S
C566 C558 1.574 . S
C566 H561 0.949 . S
C566 C572 1.368 . S
C567 C551 1.349 . S
C567 H559 0.950 . S
C567 C565 1.327 . S
C568 C556 1.349 . S
C568 H562 0.950 . S
C568 C569 1.327 . S
C569 H563 0.950 . S
C569 C568 1.327 . S
C569 C573 1.429 . S
C570 C553 1.574 . S
C570 H564 0.949 . S
C570 C574 1.368 . S
C571 C552 1.429 . S
C571 C565 1.429 . S
C571 C572 1.523 . S
C572 C553 1.368 . S
C572 C566 1.368 . S
C572 C571 1.523 . S
C573 C557 1.429 . S
C573 C569 1.429 . S
C573 C574 1.523 . S
C574 C558 1.368 . S
C574 C570 1.368 . S
C574 C573 1.523 . S
H575 C550 0.950 . S
H576 C552 0.950 . S
H577 C553 0.949 . S
H578 C555 0.950 . S
H579 C557 0.950 . S
C580 C581 1.349 . S
C580 C582 1.327 . S
C580 H605 0.950 . S
C581 C580 1.349 . S
C581 C597 1.349 . S
C582 C580 1.327 . S
C582 C601 1.429 . S
C582 H606 0.950 . S
C583 C600 1.574 . S
C583 C602 1.368 . S
C583 H607 0.949 . S
H584 C588 0.949 . S
C585 C586 1.349 . S
C585 C587 1.327 . S
C585 H608 0.950 . S
C586 C585 1.349 . S
C586 C598 1.349 . S
C587 C585 1.327 . S
C587 C603 1.429 . S
C587 H609 0.950 . S
C588 H584 0.949 . S
C588 C596 1.574 . S
C588 C604 1.368 . S
H589 C597 0.950 . S
H590 C595 0.950 . S
H591 C596 0.949 . S
H592 C598 0.950 . S
H593 C599 0.950 . S
H594 C600 0.949 . S
C595 H590 0.950 . S
C595 C597 1.327 . S
C595 C601 1.429 . S
C596 C588 1.574 . S
C596 H591 0.949 . S
C596 C602 1.368 . S
C597 C581 1.349 . S
C597 H589 0.950 . S
C597 C595 1.327 . S
C598 C586 1.349 . S
C598 H592 0.950 . S
C598 C599 1.327 . S
C599 H593 0.950 . S
C599 C598 1.327 . S
C599 C603 1.429 . S
C600 C583 1.574 . S
C600 H594 0.949 . S
C600 C604 1.368 . S
C601 C582 1.429 . S
C601 C595 1.429 . S
C601 C602 1.523 . S
C602 C583 1.368 . S
C602 C596 1.368 . S
C602 C601 1.523 . S
C603 C587 1.429 . S
C603 C599 1.429 . S
C603 C604 1.523 . S
C604 C588 1.368 . S
C604 C600 1.368 . S
C604 C603 1.523 . S
H605 C580 0.950 . S
H606 C582 0.950 . S
H607 C583 0.949 . S
H608 C585 0.950 . S
H609 C587 0.950 . S
C610 C611 1.349 . S
C610 C612 1.327 . S
C610 H635 0.950 . S
C611 C610 1.349 . S
C611 C627 1.349 . S
C612 C610 1.327 . S
C612 C631 1.429 . S
C612 H636 0.950 . S
C613 C630 1.574 . S
C613 C632 1.368 . S
C613 H637 0.949 . S
H614 C618 0.949 . S
C615 C616 1.349 . S
C615 C617 1.327 . S
C615 H638 0.950 . S
C616 C615 1.349 . S
C616 C628 1.349 . S
C617 C615 1.327 . S
C617 C633 1.429 . S
C617 H639 0.950 . S
C618 H614 0.949 . S
C618 C626 1.574 . S
C618 C634 1.368 . S
H619 C627 0.950 . S
H620 C625 0.950 . S
H621 C626 0.949 . S
H622 C628 0.950 . S
H623 C629 0.950 . S
H624 C630 0.949 . S
C625 H620 0.950 . S
C625 C627 1.327 . S
C625 C631 1.429 . S
C626 C618 1.574 . S
C626 H621 0.949 . S
C626 C632 1.368 . S
C627 C611 1.349 . S
C627 H619 0.950 . S
C627 C625 1.327 . S
C628 C616 1.349 . S
C628 H622 0.950 . S
C628 C629 1.327 . S
C629 H623 0.950 . S
C629 C628 1.327 . S
C629 C633 1.429 . S
C630 C613 1.574 . S
C630 H624 0.949 . S
C630 C634 1.368 . S
C631 C612 1.429 . S
C631 C625 1.429 . S
C631 C632 1.523 . S
C632 C613 1.368 . S
C632 C626 1.368 . S
C632 C631 1.523 . S
C633 C617 1.429 . S
C633 C629 1.429 . S
C633 C634 1.523 . S
C634 C618 1.368 . S
C634 C630 1.368 . S
C634 C633 1.523 . S
H635 C610 0.950 . S
H636 C612 0.950 . S
H637 C613 0.949 . S
H638 C615 0.950 . S
H639 C617 0.950 . S
C640 C641 1.349 . S
C640 C642 1.327 . S
C640 H665 0.950 . S
C641 C640 1.349 . S
C641 C657 1.349 . S
C642 C640 1.327 . S
C642 C661 1.429 . S
C642 H666 0.950 . S
C643 C660 1.574 . S
C643 C662 1.368 . S
C643 H667 0.949 . S
H644 C648 0.949 . S
C645 C646 1.349 . S
C645 C647 1.327 . S
C645 H668 0.950 . S
C646 C645 1.349 . S
C646 C658 1.349 . S
C647 C645 1.327 . S
C647 C663 1.429 . S
C647 H669 0.950 . S
C648 H644 0.949 . S
C648 C656 1.574 . S
C648 C664 1.368 . S
H649 C657 0.950 . S
H650 C655 0.950 . S
H651 C656 0.949 . S
H652 C658 0.950 . S
H653 C659 0.950 . S
H654 C660 0.949 . S
C655 H650 0.950 . S
C655 C657 1.327 . S
C655 C661 1.429 . S
C656 C648 1.574 . S
C656 H651 0.949 . S
C656 C662 1.368 . S
C657 C641 1.349 . S
C657 H649 0.950 . S
C657 C655 1.327 . S
C658 C646 1.349 . S
C658 H652 0.950 . S
C658 C659 1.327 . S
C659 H653 0.950 . S
C659 C658 1.327 . S
C659 C663 1.429 . S
C660 C643 1.574 . S
C660 H654 0.949 . S
C660 C664 1.368 . S
C661 C642 1.429 . S
C661 C655 1.429 . S
C661 C662 1.523 . S
C662 C643 1.368 . S
C662 C656 1.368 . S
C662 C661 1.523 . S
C663 C647 1.429 . S
C663 C659 1.429 . S
C663 C664 1.523 . S
C664 C648 1.368 . S
C664 C660 1.368 . S
C664 C663 1.523 . S
H665 C640 0.950 . S
H666 C642 0.950 . S
H667 C643 0.949 . S
H668 C645 0.950 . S
H669 C647 0.950 . S
C670 C671 1.349 . S
C670 C672 1.327 . S
C670 H695 0.950 . S
C671 C670 1.349 . S
C671 C687 1.349 . S
C672 C670 1.327 . S
C672 C691 1.429 . S
C672 H696 0.950 . S
C673 C690 1.574 . S
C673 C692 1.368 . S
C673 H697 0.949 . S
H674 C678 0.949 . S
C675 C676 1.349 . S
C675 C677 1.327 . S
C675 H698 0.950 . S
C676 C675 1.349 . S
C676 C688 1.349 . S
C677 C675 1.327 . S
C677 C693 1.429 . S
C677 H699 0.950 . S
C678 H674 0.949 . S
C678 C686 1.574 . S
C678 C694 1.368 . S
H679 C687 0.950 . S
H680 C685 0.950 . S
H681 C686 0.949 . S
H682 C688 0.950 . S
H683 C689 0.950 . S
H684 C690 0.949 . S
C685 H680 0.950 . S
C685 C687 1.327 . S
C685 C691 1.429 . S
C686 C678 1.574 . S
C686 H681 0.949 . S
C686 C692 1.368 . S
C687 C671 1.349 . S
C687 H679 0.950 . S
C687 C685 1.327 . S
C688 C676 1.349 . S
C688 H682 0.950 . S
C688 C689 1.327 . S
C689 H683 0.950 . S
C689 C688 1.327 . S
C689 C693 1.429 . S
C690 C673 1.574 . S
C690 H684 0.949 . S
C690 C694 1.368 . S
C691 C672 1.429 . S
C691 C685 1.429 . S
C691 C692 1.523 . S
C692 C673 1.368 . S
C692 C686 1.368 . S
C692 C691 1.523 . S
C693 C677 1.429 . S
C693 C689 1.429 . S
C693 C694 1.523 . S
C694 C678 1.368 . S
C694 C690 1.368 . S
C694 C693 1.523 . S
H695 C670 0.950 . S
H696 C672 0.950 . S
H697 C673 0.949 . S
H698 C675 0.950 . S
H699 C677 0.950 . S
C700 C701 1.349 . S
C700 C702 1.327 . S
C700 H725 0.950 . S
C701 C700 1.349 . S
C701 C717 1.349 . S
C702 C700 1.327 . S
C702 C721 1.429 . S
C702 H726 0.950 . S
C703 C720 1.574 . S
C703 C722 1.368 . S
C703 H727 0.949 . S
H704 C708 0.949 . S
C705 C706 1.349 . S
C705 C707 1.327 . S
C705 H728 0.950 . S
C706 C705 1.349 . S
C706 C718 1.349 . S
C707 C705 1.327 . S
C707 C723 1.429 . S
C707 H729 0.950 . S
C708 H704 0.949 . S
C708 C716 1.574 . S
C708 C724 1.368 . S
H709 C717 0.950 . S
H710 C715 0.950 . S
H711 C716 0.949 . S
H712 C718 0.950 . S
H713 C719 0.950 . S
H714 C720 0.949 . S
C715 H710 0.950 . S
C715 C717 1.327 . S
C715 C721 1.429 . S
C716 C708 1.574 . S
C716 H711 0.949 . S
C716 C722 1.368 . S
C717 C701 1.349 . S
C717 H709 0.950 . S
C717 C715 1.327 . S
C718 C706 1.349 . S
C718 H712 0.950 . S
C718 C719 1.327 . S
C719 H713 0.950 . S
C719 C718 1.327 . S
C719 C723 1.429 . S
C720 C703 1.574 . S
C720 H714 0.949 . S
C720 C724 1.368 . S
C721 C702 1.429 . S
C721 C715 1.429 . S
C721 C722 1.523 . S
C722 C703 1.368 . S
C722 C716 1.368 . S
C722 C721 1.523 . S
C723 C707 1.429 . S
C723 C719 1.429 . S
C723 C724 1.523 . S
C724 C708 1.368 . S
C724 C720 1.368 . S
C724 C723 1.523 . S
H725 C700 0.950 . S
H726 C702 0.950 . S
H727 C703 0.949 . S
H728 C705 0.950 . S
H729 C707 0.950 . S
C730 C731 1.349 . S
C730 C732 1.327 . S
C730 H755 0.950 . S
C731 C730 1.349 . S
C731 C747 1.349 . S
C732 C730 1.327 . S
C732 C751 1.429 . S
C732 H756 0.950 . S
C733 C750 1.574 . S
C733 C752 1.368 . S
C733 H757 0.949 . S
H734 C738 0.949 . S
C735 C736 1.349 . S
C735 C737 1.327 . S
C735 H758 0.950 . S
C736 C735 1.349 . S
C736 C748 1.349 . S
C737 C735 1.327 . S
C737 C753 1.429 . S
C737 H759 0.950 . S
C738 H734 0.949 . S
C738 C746 1.574 . S
C738 C754 1.368 . S
H739 C747 0.950 . S
H740 C745 0.950 . S
H741 C746 0.949 . S
H742 C748 0.950 . S
H743 C749 0.950 . S
H744 C750 0.949 . S
C745 H740 0.950 . S
C745 C747 1.327 . S
C745 C751 1.429 . S
C746 C738 1.574 . S
C746 H741 0.949 . S
C746 C752 1.368 . S
C747 C731 1.349 . S
C747 H739 0.950 . S
C747 C745 1.327 . S
C748 C736 1.349 . S
C748 H742 0.950 . S
C748 C749 1.327 . S
C749 H743 0.950 . S
C749 C748 1.327 . S
C749 C753 1.429 . S
C750 C733 1.574 . S
C750 H744 0.949 . S
C750 C754 1.368 . S
C751 C732 1.429 . S
C751 C745 1.429 . S
C751 C752 1.523 . S
C752 C733 1.368 . S
C752 C746 1.368 . S
C752 C751 1.523 . S
C753 C737 1.429 . S
C753 C749 1.429 . S
C753 C754 1.523 . S
C754 C738 1.368 . S
C754 C750 1.368 . S
C754 C753 1.523 . S
H755 C730 0.950 . S
H756 C732 0.950 . S
H757 C733 0.949 . S
H758 C735 0.950 . S
H759 C737 0.950 . S
C760 C761 1.349 . S
C760 C762 1.327 . S
C760 H785 0.950 . S
C761 C760 1.349 . S
C761 C777 1.349 . S
C762 C760 1.327 . S
C762 C781 1.429 . S
C762 H786 0.950 . S
C763 C780 1.574 . S
C763 C782 1.368 . S
C763 H787 0.949 . S
H764 C768 0.949 . S
C765 C766 1.349 . S
C765 C767 1.327 . S
C765 H788 0.950 . S
C766 C765 1.349 . S
C766 C778 1.349 . S
C767 C765 1.327 . S
C767 C783 1.429 . S
C767 H789 0.950 . S
C768 H764 0.949 . S
C768 C776 1.574 . S
C768 C784 1.368 . S
H769 C777 0.950 . S
H770 C775 0.950 . S
H771 C776 0.949 . S
H772 C778 0.950 . S
H773 C779 0.950 . S
H774 C780 0.949 . S
C775 H770 0.950 . S
C775 C777 1.327 . S
C775 C781 1.429 . S
C776 C768 1.574 . S
C776 H771 0.949 . S
C776 C782 1.368 . S
C777 C761 1.349 . S
C777 H769 0.950 . S
C777 C775 1.327 . S
C778 C766 1.349 . S
C778 H772 0.950 . S
C778 C779 1.327 . S
C779 H773 0.950 . S
C779 C778 1.327 . S
C779 C783 1.429 . S
C780 C763 1.574 . S
C780 H774 0.949 . S
C780 C784 1.368 . S
C781 C762 1.429 . S
C781 C775 1.429 . S
C781 C782 1.523 . S
C782 C763 1.368 . S
C782 C776 1.368 . S
C782 C781 1.523 . S
C783 C767 1.429 . S
C783 C779 1.429 . S
C783 C784 1.523 . S
C784 C768 1.368 . S
C784 C780 1.368 . S
C784 C783 1.523 . S
H785 C760 0.950 . S
H786 C762 0.950 . S
H787 C763 0.949 . S
H788 C765 0.950 . S
H789 C767 0.950 . S
C790 C791 1.349 . S
C790 C792 1.327 . S
C790 H815 0.950 . S
C791 C790 1.349 . S
C791 C807 1.349 . S
C792 C790 1.327 . S
C792 C811 1.429 . S
C792 H816 0.950 . S
C793 C810 1.574 . S
C793 C812 1.368 . S
C793 H817 0.949 . S
H794 C798 0.949 . S
C795 C796 1.349 . S
C795 C797 1.327 . S
C795 H818 0.950 . S
C796 C795 1.349 . S
C796 C808 1.349 . S
C797 C795 1.327 . S
C797 C813 1.429 . S
C797 H819 0.950 . S
C798 H794 0.949 . S
C798 C806 1.574 . S
C798 C814 1.368 . S
H799 C807 0.950 . S
H800 C805 0.950 . S
H801 C806 0.949 . S
H802 C808 0.950 . S
H803 C809 0.950 . S
H804 C810 0.949 . S
C805 H800 0.950 . S
C805 C807 1.327 . S
C805 C811 1.429 . S
C806 C798 1.574 . S
C806 H801 0.949 . S
C806 C812 1.368 . S
C807 C791 1.349 . S
C807 H799 0.950 . S
C807 C805 1.327 . S
C808 C796 1.349 . S
C808 H802 0.950 . S
C808 C809 1.327 . S
C809 H803 0.950 . S
C809 C808 1.327 . S
C809 C813 1.429 . S
C810 C793 1.574 . S
C810 H804 0.949 . S
C810 C814 1.368 . S
C811 C792 1.429 . S
C811 C805 1.429 . S
C811 C812 1.523 . S
C812 C793 1.368 . S
C812 C806 1.368 . S
C812 C811 1.523 . S
C813 C797 1.429 . S
C813 C809 1.429 . S
C813 C814 1.523 . S
C814 C798 1.368 . S
C814 C810 1.368 . S
C814 C813 1.523 . S
H815 C790 0.950 . S
H816 C792 0.950 . S
H817 C793 0.949 . S
H818 C795 0.950 . S
H819 C797 0.950 . S
C820 C821 1.349 . S
C820 C822 1.327 . S
C820 H845 0.950 . S
C821 C820 1.349 . S
C821 C837 1.349 . S
C822 C820 1.327 . S
C822 C841 1.429 . S
C822 H846 0.950 . S
C823 C840 1.574 . S
C823 C842 1.368 . S
C823 H847 0.949 . S
H824 C828 0.949 . S
C825 C826 1.349 . S
C825 C827 1.327 . S
C825 H848 0.950 . S
C826 C825 1.349 . S
C826 C838 1.349 . S
C827 C825 1.327 . S
C827 C843 1.429 . S
C827 H849 0.950 . S
C828 H824 0.949 . S
C828 C836 1.574 . S
C828 C844 1.368 . S
H829 C837 0.950 . S
H830 C835 0.950 . S
H831 C836 0.949 . S
H832 C838 0.950 . S
H833 C839 0.950 . S
H834 C840 0.949 . S
C835 H830 0.950 . S
C835 C837 1.327 . S
C835 C841 1.429 . S
C836 C828 1.574 . S
C836 H831 0.949 . S
C836 C842 1.368 . S
C837 C821 1.349 . S
C837 H829 0.950 . S
C837 C835 1.327 . S
C838 C826 1.349 . S
C838 H832 0.950 . S
C838 C839 1.327 . S
C839 H833 0.950 . S
C839 C838 1.327 . S
C839 C843 1.429 . S
C840 C823 1.574 . S
C840 H834 0.949 . S
C840 C844 1.368 . S
C841 C822 1.429 . S
C841 C835 1.429 . S
C841 C842 1.523 . S
C842 C823 1.368 . S
C842 C836 1.368 . S
C842 C841 1.523 . S
C843 C827 1.429 . S
C843 C839 1.429 . S
C843 C844 1.523 . S
C844 C828 1.368 . S
C844 C840 1.368 . S
C844 C843 1.523 . S
H845 C820 0.950 . S
H846 C822 0.950 . S
H847 C823 0.949 . S
H848 C825 0.950 . S
H849 C827 0.950 . S
C850 C851 1.349 . S
C850 C852 1.327 . S
C850 H875 0.950 . S
C851 C850 1.349 . S
C851 C867 1.349 . S
C852 C850 1.327 . S
C852 C871 1.429 . S
C852 H876 0.950 . S
C853 C870 1.574 . S
C853 C872 1.368 . S
C853 H877 0.949 . S
H854 C858 0.949 . S
C855 C856 1.349 . S
C855 C857 1.327 . S
C855 H878 0.950 . S
C856 C855 1.349 . S
C856 C868 1.349 . S
C857 C855 1.327 . S
C857 C873 1.429 . S
C857 H879 0.950 . S
C858 H854 0.949 . S
C858 C866 1.574 . S
C858 C874 1.368 . S
H859 C867 0.950 . S
H860 C865 0.950 . S
H861 C866 0.949 . S
H862 C868 0.950 . S
H863 C869 0.950 . S
H864 C870 0.949 . S
C865 H860 0.950 . S
C865 C867 1.327 . S
C865 C871 1.429 . S
C866 C858 1.574 . S
C866 H861 0.949 . S
C866 C872 1.368 . S
C867 C851 1.349 . S
C867 H859 0.950 . S
C867 C865 1.327 . S
C868 C856 1.349 . S
C868 H862 0.950 . S
C868 C869 1.327 . S
C869 H863 0.950 . S
C869 C868 1.327 . S
C869 C873 1.429 . S
C870 C853 1.574 . S
C870 H864 0.949 . S
C870 C874 1.368 . S
C871 C852 1.429 . S
C871 C865 1.429 . S
C871 C872 1.523 . S
C872 C853 1.368 . S
C872 C866 1.368 . S
C872 C871 1.523 . S
C873 C857 1.429 . S
C873 C869 1.429 . S
C873 C874 1.523 . S
C874 C858 1.368 . S
C874 C870 1.368 . S
C874 C873 1.523 . S
H875 C850 0.950 . S
H876 C852 0.950 . S
H877 C853 0.949 . S
H878 C855 0.950 . S
H879 C857 0.950 . S
C880 C881 1.349 . S
C880 C882 1.327 . S
C880 H905 0.950 . S
C881 C880 1.349 . S
C881 C897 1.349 . S
C882 C880 1.327 . S
C882 C901 1.429 . S
C882 H906 0.950 . S
C883 C900 1.574 . S
C883 C902 1.368 . S
C883 H907 0.949 . S
H884 C888 0.949 . S
C885 C886 1.349 . S
C885 C887 1.327 . S
C885 H908 0.950 . S
C886 C885 1.349 . S
C886 C898 1.349 . S
C887 C885 1.327 . S
C887 C903 1.429 . S
C887 H909 0.950 . S
C888 H884 0.949 . S
C888 C896 1.574 . S
C888 C904 1.368 . S
H889 C897 0.950 . S
H890 C895 0.950 . S
H891 C896 0.949 . S
H892 C898 0.950 . S
H893 C899 0.950 . S
H894 C900 0.949 . S
C895 H890 0.950 . S
C895 C897 1.327 . S
C895 C901 1.429 . S
C896 C888 1.574 . S
C896 H891 0.949 . S
C896 C902 1.368 . S
C897 C881 1.349 . S
C897 H889 0.950 . S
C897 C895 1.327 . S
C898 C886 1.349 . S
C898 H892 0.950 . S
C898 C899 1.327 . S
C899 H893 0.950 . S
C899 C898 1.327 . S
C899 C903 1.429 . S
C900 C883 1.574 . S
C900 H894 0.949 . S
C900 C904 1.368 . S
C901 C882 1.429 . S
C901 C895 1.429 . S
C901 C902 1.523 . S
C902 C883 1.368 . S
C902 C896 1.368 . S
C902 C901 1.523 . S
C903 C887 1.429 . S
C903 C899 1.429 . S
C903 C904 1.523 . S
C904 C888 1.368 . S
C904 C900 1.368 . S
C904 C903 1.523 . S
H905 C880 0.950 . S
H906 C882 0.950 . S
H907 C883 0.949 . S
H908 C885 0.950 . S
H909 C887 0.950 . S
C910 C911 1.349 . S
C910 C912 1.327 . S
C910 H935 0.950 . S
C911 C910 1.349 . S
C911 C927 1.349 . S
C912 C910 1.327 . S
C912 C931 1.429 . S
C912 H936 0.950 . S
C913 C930 1.574 . S
C913 C932 1.368 . S
C913 H937 0.949 . S
H914 C918 0.949 . S
C915 C916 1.349 . S
C915 C917 1.327 . S
C915 H938 0.950 . S
C916 C915 1.349 . S
C916 C928 1.349 . S
C917 C915 1.327 . S
C917 C933 1.429 . S
C917 H939 0.950 . S
C918 H914 0.949 . S
C918 C926 1.574 . S
C918 C934 1.368 . S
H919 C927 0.950 . S
H920 C925 0.950 . S
H921 C926 0.949 . S
H922 C928 0.950 . S
H923 C929 0.950 . S
H924 C930 0.949 . S
C925 H920 0.950 . S
C925 C927 1.327 . S
C925 C931 1.429 . S
C926 C918 1.574 . S
C926 H921 0.949 . S
C926 C932 1.368 . S
C927 C911 1.349 . S
C927 H919 0.950 . S
C927 C925 1.327 . S
C928 C916 1.349 . S
C928 H922 0.950 . S
C928 C929 1.327 . S
C929 H923 0.950 . S
C929 C928 1.327 . S
C929 C933 1.429 . S
C930 C913 1.574 . S
C930 H924 0.949 . S
C930 C934 1.368 . S
C931 C912 1.429 . S
C931 C925 1.429 . S
C931 C932 1.523 . S
C932 C913 1.368 . S
C932 C926 1.368 . S
C932 C931 1.523 . S
C933 C917 1.429 . S
C933 C929 1.429 . S
C933 C934 1.523 . S
C934 C918 1.368 . S
C934 C930 1.368 . S
C934 C933 1.523 . S
H935 C910 0.950 . S
H936 C912 0.950 . S
H937 C913 0.949 . S
H938 C915 0.950 . S
H939 C917 0.950 . S
C940 C941 1.349 . S
C940 C942 1.327 . S
C940 H965 0.950 . S
C941 C940 1.349 . S
C941 C957 1.349 . S
C942 C940 1.327 . S
C942 C961 1.429 . S
C942 H966 0.950 . S
C943 C960 1.574 . S
C943 C962 1.368 . S
C943 H967 0.949 . S
H944 C948 0.949 . S
C945 C946 1.349 . S
C945 C947 1.327 . S
C945 H968 0.950 . S
C946 C945 1.349 . S
C946 C958 1.349 . S
C947 C945 1.327 . S
C947 C963 1.429 . S
C947 H969 0.950 . S
C948 H944 0.949 . S
C948 C956 1.574 . S
C948 C964 1.368 . S
H949 C957 0.950 . S
H950 C955 0.950 . S
H951 C956 0.949 . S
H952 C958 0.950 . S
H953 C959 0.950 . S
H954 C960 0.949 . S
C955 H950 0.950 . S
C955 C957 1.327 . S
C955 C961 1.429 . S
C956 C948 1.574 . S
C956 H951 0.949 . S
C956 C962 1.368 . S
C957 C941 1.349 . S
C957 H949 0.950 . S
C957 C955 1.327 . S
C958 C946 1.349 . S
C958 H952 0.950 . S
C958 C959 1.327 . S
C959 H953 0.950 . S
C959 C958 1.327 . S
C959 C963 1.429 . S
C960 C943 1.574 . S
C960 H954 0.949 . S
C960 C964 1.368 . S
C961 C942 1.429 . S
C961 C955 1.429 . S
C961 C962 1.523 . S
C962 C943 1.368 . S
C962 C956 1.368 . S
C962 C961 1.523 . S
C963 C947 1.429 . S
C963 C959 1.429 . S
C963 C964 1.523 . S
C964 C948 1.368 . S
C964 C960 1.368 . S
C964 C963 1.523 . S
H965 C940 0.950 . S
H966 C942 0.950 . S
H967 C943 0.949 . S
H968 C945 0.950 . S
H969 C947 0.950 . S
C970 C971 1.349 . S
C970 C972 1.327 . S
C970 H995 0.950 . S
C971 C970 1.349 . S
C971 C987 1.349 . S
C972 C970 1.327 . S
C972 C991 1.429 . S
C972 H996 0.950 . S
C973 C990 1.574 . S
C973 C992 1.368 . S
C973 H997 0.949 . S
H974 C978 0.949 . S
C975 C976 1.349 . S
C975 C977 1.327 . S
C975 H998 0.950 . S
C976 C975 1.349 . S
C976 C988 1.349 . S
C977 C975 1.327 . S
C977 C993 1.429 . S
C977 H999 0.950 . S
C978 H974 0.949 . S
C978 C986 1.574 . S
C978 C994 1.368 . S
H979 C987 0.950 . S
H980 C985 0.950 . S
H981 C986 0.949 . S
H982 C988 0.950 . S
H983 C989 0.950 . S
H984 C990 0.949 . S
C985 H980 0.950 . S
C985 C987 1.327 . S
C985 C991 1.429 . S
C986 C978 1.574 . S
C986 H981 0.949 . S
C986 C992 1.368 . S
C987 C971 1.349 . S
C987 H979 0.950 . S
C987 C985 1.327 . S
C988 C976 1.349 . S
C988 H982 0.950 . S
C988 C989 1.327 . S
C989 H983 0.950 . S
C989 C988 1.327 . S
C989 C993 1.429 . S
C990 C973 1.574 . S
C990 H984 0.949 . S
C990 C994 1.368 . S
C991 C972 1.429 . S
C991 C985 1.429 . S
C991 C992 1.523 . S
C992 C973 1.368 . S
C992 C986 1.368 . S
C992 C991 1.523 . S
C993 C977 1.429 . S
C993 C989 1.429 . S
C993 C994 1.523 . S
C994 C978 1.368 . S
C994 C990 1.368 . S
C994 C993 1.523 . S
H995 C970 0.950 . S
H996 C972 0.950 . S
H997 C973 0.949 . S
H998 C975 0.950 . S
H999 C977 0.950 . S
C1000 C1001 1.349 . S
C1000 C1002 1.327 . S
C1000 H1025 0.950 . S
C1001 C1000 1.349 . S
C1001 C1017 1.349 . S
C1002 C1000 1.327 . S
C1002 C1021 1.429 . S
C1002 H1026 0.950 . S
C1003 C1020 1.574 . S
C1003 C1022 1.368 . S
C1003 H1027 0.949 . S
H1004 C1008 0.949 . S
C1005 C1006 1.349 . S
C1005 C1007 1.327 . S
C1005 H1028 0.950 . S
C1006 C1005 1.349 . S
C1006 C1018 1.349 . S
C1007 C1005 1.327 . S
C1007 C1023 1.429 . S
C1007 H1029 0.950 . S
C1008 H1004 0.949 . S
C1008 C1016 1.574 . S
C1008 C1024 1.368 . S
H1009 C1017 0.950 . S
H1010 C1015 0.950 . S
H1011 C1016 0.949 . S
H1012 C1018 0.950 . S
H1013 C1019 0.950 . S
H1014 C1020 0.949 . S
C1015 H1010 0.950 . S
C1015 C1017 1.327 . S
C1015 C1021 1.429 . S
C1016 C1008 1.574 . S
C1016 H1011 0.949 . S
C1016 C1022 1.368 . S
C1017 C1001 1.349 . S
C1017 H1009 0.950 . S
C1017 C1015 1.327 . S
C1018 C1006 1.349 . S
C1018 H1012 0.950 . S
C1018 C1019 1.327 . S
C1019 H1013 0.950 . S
C1019 C1018 1.327 . S
C1019 C1023 1.429 . S
C1020 C1003 1.574 . S
C1020 H1014 0.949 . S
C1020 C1024 1.368 . S
C1021 C1002 1.429 . S
C1021 C1015 1.429 . S
C1021 C1022 1.523 . S
C1022 C1003 1.368 . S
C1022 C1016 1.368 . S
C1022 C1021 1.523 . S
C1023 C1007 1.429 . S
C1023 C1019 1.429 . S
C1023 C1024 1.523 . S
C1024 C1008 1.368 . S
C1024 C1020 1.368 . S
C1024 C1023 1.523 . S
H1025 C1000 0.950 . S
H1026 C1002 0.950 . S
H1027 C1003 0.949 . S
H1028 C1005 0.950 . S
H1029 C1007 0.950 . S
C1030 C1031 1.349 . S
C1030 C1032 1.327 . S
C1030 H1055 0.950 . S
C1031 C1030 1.349 . S
C1031 C1047 1.349 . S
C1032 C1030 1.327 . S
C1032 C1051 1.429 . S
C1032 H1056 0.950 . S
C1033 C1050 1.574 . S
C1033 C1052 1.368 . S
C1033 H1057 0.949 . S
H1034 C1038 0.949 . S
C1035 C1036 1.349 . S
C1035 C1037 1.327 . S
C1035 H1058 0.950 . S
C1036 C1035 1.349 . S
C1036 C1048 1.349 . S
C1037 C1035 1.327 . S
C1037 C1053 1.429 . S
C1037 H1059 0.950 . S
C1038 H1034 0.949 . S
C1038 C1046 1.574 . S
C1038 C1054 1.368 . S
H1039 C1047 0.950 . S
H1040 C1045 0.950 . S
H1041 C1046 0.949 . S
H1042 C1048 0.950 . S
H1043 C1049 0.950 . S
H1044 C1050 0.949 . S
C1045 H1040 0.950 . S
C1045 C1047 1.327 . S
C1045 C1051 1.429 . S
C1046 C1038 1.574 . S
C1046 H1041 0.949 . S
C1046 C1052 1.368 . S
C1047 C1031 1.349 . S
C1047 H1039 0.950 . S
C1047 C1045 1.327 . S
C1048 C1036 1.349 . S
C1048 H1042 0.950 . S
C1048 C1049 1.327 . S
C1049 H1043 0.950 . S
C1049 C1048 1.327 . S
C1049 C1053 1.429 . S
C1050 C1033 1.574 . S
C1050 H1044 0.949 . S
C1050 C1054 1.368 . S
C1051 C1032 1.429 . S
C1051 C1045 1.429 . S
C1051 C1052 1.523 . S
C1052 C1033 1.368 . S
C1052 C1046 1.368 . S
C1052 C1051 1.523 . S
C1053 C1037 1.429 . S
C1053 C1049 1.429 . S
C1053 C1054 1.523 . S
C1054 C1038 1.368 . S
C1054 C1050 1.368 . S
C1054 C1053 1.523 . S
H1055 C1030 0.950 . S
H1056 C1032 0.950 . S
H1057 C1033 0.949 . S
H1058 C1035 0.950 . S
H1059 C1037 0.950 . S
C346 C268 1.513 . S
C341 C23 1.495 . S
C376 C271 1.502 . S
C371 C49 1.485 . S
C406 C269 1.508 . S
C401 C87 1.477 . S
C436 C270 1.513 . S
C431 C125 1.479 . S
C466 C285 1.511 . S
C461 C29 1.487 . S
C496 C299 1.501 . S
C491 C61 1.475 . S
C521 C81 1.474 . S
C526 C325 1.503 . S
C556 C339 1.505 . S
C551 C113 1.483 . S
C586 C284 1.493 . S
C581 C55 1.472 . S
C611 C93 1.481 . S
C616 C298 1.516 . S
C646 C324 1.499 . S
C641 C119 1.472 . S
C676 C338 1.512 . S
C671 C17 1.495 . S
C701 C151 1.479 . S
C706 C283 1.512 . S
C736 C256 1.502 . S
C731 C177 1.476 . S
C761 C215 1.491 . S
C766 C282 1.509 . S
C791 C253 1.486 . S
C796 C257 1.513 . S
C826 C312 1.511 . S
C821 C157 1.472 . S
C856 C326 1.501 . S
C851 C189 1.470 . S
C886 C296 1.503 . S
C881 C209 1.485 . S
C911 C241 1.484 . S
C916 C310 1.505 . S
C946 C313 1.494 . S
C941 C183 1.465 . S
C976 C327 1.516 . S
C971 C221 1.489 . S
C1006 C297 1.498 . S
C1001 C247 1.475 . S
C1031 C145 1.485 . S
C1036 C311 1.512 . S
