# Generated by pormake.
# Topology zzz, (3,6)-cn, num edge types: 1
# Building blocks:
#     Node 0, Type 0, BuildingBlock: CUQRIR_clean_linker_1, # of connection points: 3
#     Node 1, Type 0, BuildingBlock: CUQRIR_clean_linker_1, # of connection points: 3
#     Node 2, Type 0, BuildingBlock: CUQRIR_clean_linker_1, # of connection points: 3
#     Node 3, Type 0, BuildingBlock: CUQRIR_clean_linker_1, # of connection points: 3
#     Node 4, Type 0, BuildingBlock: CUQRIR_clean_linker_1, # of connection points: 3
#     Node 5, Type 0, BuildingBlock: CUQRIR_clean_linker_1, # of connection points: 3
#     Node 6, Type 0, BuildingBlock: CUQRIR_clean_linker_1, # of connection points: 3
#     Node 7, Type 0, BuildingBlock: CUQRIR_clean_linker_1, # of connection points: 3
#     Node 8, Type 1, BuildingBlock: KUMBOL_clean_sbu_0, # of connection points: 6
#     Node 9, Type 1, BuildingBlock: KUMBOL_clean_sbu_0, # of connection points: 6
#     Node 10, Type 1, BuildingBlock: KUMBOL_clean_sbu_0, # of connection points: 6
#     Node 11, Type 1, BuildingBlock: KUMBOL_clean_sbu_0, # of connection points: 6
#     Edge 12, Type (0, 1), BuildingBlock: TEMPAE_clean_linker_10, # of connection points: 2
#     Edge 13, Type (0, 1), BuildingBlock: TEMPAE_clean_linker_10, # of connection points: 2
#     Edge 14, Type (0, 1), BuildingBlock: TEMPAE_clean_linker_10, # of connection points: 2
#     Edge 15, Type (0, 1), BuildingBlock: TEMPAE_clean_linker_10, # of connection points: 2
#     Edge 16, Type (0, 1), BuildingBlock: TEMPAE_clean_linker_10, # of connection points: 2
#     Edge 17, Type (0, 1), BuildingBlock: TEMPAE_clean_linker_10, # of connection points: 2
#     Edge 18, Type (0, 1), BuildingBlock: TEMPAE_clean_linker_10, # of connection points: 2
#     Edge 19, Type (0, 1), BuildingBlock: TEMPAE_clean_linker_10, # of connection points: 2
#     Edge 20, Type (0, 1), BuildingBlock: TEMPAE_clean_linker_10, # of connection points: 2
#     Edge 21, Type (0, 1), BuildingBlock: TEMPAE_clean_linker_10, # of connection points: 2
#     Edge 22, Type (0, 1), BuildingBlock: TEMPAE_clean_linker_10, # of connection points: 2
#     Edge 23, Type (0, 1), BuildingBlock: TEMPAE_clean_linker_10, # of connection points: 2
#     Edge 24, Type (0, 1), BuildingBlock: TEMPAE_clean_linker_10, # of connection points: 2
#     Edge 25, Type (0, 1), BuildingBlock: TEMPAE_clean_linker_10, # of connection points: 2
#     Edge 26, Type (0, 1), BuildingBlock: TEMPAE_clean_linker_10, # of connection points: 2
#     Edge 27, Type (0, 1), BuildingBlock: TEMPAE_clean_linker_10, # of connection points: 2
#     Edge 28, Type (0, 1), BuildingBlock: TEMPAE_clean_linker_10, # of connection points: 2
#     Edge 29, Type (0, 1), BuildingBlock: TEMPAE_clean_linker_10, # of connection points: 2
#     Edge 30, Type (0, 1), BuildingBlock: TEMPAE_clean_linker_10, # of connection points: 2
#     Edge 31, Type (0, 1), BuildingBlock: TEMPAE_clean_linker_10, # of connection points: 2
#     Edge 32, Type (0, 1), BuildingBlock: TEMPAE_clean_linker_10, # of connection points: 2
#     Edge 33, Type (0, 1), BuildingBlock: TEMPAE_clean_linker_10, # of connection points: 2
#     Edge 34, Type (0, 1), BuildingBlock: TEMPAE_clean_linker_10, # of connection points: 2
#     Edge 35, Type (0, 1), BuildingBlock: TEMPAE_clean_linker_10, # of connection points: 2
# Relax obj value: 0.205
# Max RMSD: 0.169
# Mean RMSD: 0.119
data_MOF--net-zzz--node1-KUMBOL_clean_sbu_0--node2-CUQRIR_clean_linker_1--edge1-TEMPAE_clean_linker_10
_symmetry_space_group_name_H-M    P1
_symmetry_Int_Tables_number       1
_symmetry_cell_setting            triclinic
loop_
_symmetry_equiv_pos_as_xyz
'x, y, z'
_cell_length_a     46.91935
_cell_length_b     47.167224
_cell_length_c     13.345795
_cell_angle_alpha  91.767962
_cell_angle_beta   89.649932
_cell_angle_gamma 90.059182
loop_
_atom_site_label
_atom_site_type_symbol
_atom_site_fract_x
_atom_site_fract_y
_atom_site_fract_z
_atom_type_partial_charge
C0 C 0.75721 0.56008 0.33901 0.0
N1 N 0.78366 0.57227 0.34071 0.0
N2 N 0.7391 0.57419 0.27804 0.0
C3 C 0.74908 0.53429 0.39552 0.0
C4 C 0.75562 0.5953 0.24315 0.0
N5 N 0.78273 0.59368 0.27757 0.0
C6 C 0.74599 0.61588 0.16582 0.0
H7 H 0.75592 0.5151 0.35166 0.0
H8 H 0.72565 0.53334 0.40689 0.0
H9 H 0.76001 0.53434 0.46904 0.0
H10 H 0.72737 0.62806 0.19495 0.0
H11 H 0.73922 0.60402 0.09684 0.0
H12 H 0.76294 0.63127 0.14703 0.0
C13 C 1.01981 0.75355 0.31293 0.0
N14 N 1.00728 0.77982 0.31512 0.0
N15 N 1.00654 0.73535 0.2463 0.0
C16 C 0.04482 0.74544 0.37505 0.0
C17 C 0.98549 0.75142 0.2094 0.0
N18 N 0.98671 0.77854 0.24606 0.0
C19 C 0.96607 0.7416 0.12549 0.0
H20 H 0.0647 0.75209 0.33693 0.0
H21 H 0.0455 0.72211 0.38354 0.0
H22 H 0.04378 0.75626 0.44999 0.0
H23 H 0.9546 0.72214 0.1472 0.0
H24 H 0.97893 0.7362 0.05748 0.0
H25 H 0.95009 0.758 0.10777 0.0
C26 C 0.79716 1.01617 0.36948 0.0
N27 N 0.7728 0.03141 0.38747 0.0
N28 N 0.81386 0.02869 0.29894 0.0
C29 C 0.80399 0.98863 0.41669 0.0
C30 C 0.79867 0.0519 0.2752 0.0
N31 N 0.77405 0.05353 0.32839 0.0
C32 C 0.80654 0.07155 0.19246 0.0
H33 H 0.79476 0.98807 0.49338 0.0
H34 H 0.82739 0.98534 0.41928 0.0
H35 H 0.79447 0.97107 0.37086 0.0
H36 H 0.82952 0.07016 0.17302 0.0
H37 H 0.80146 0.09381 0.21467 0.0
H38 H 0.79385 0.06579 0.12492 0.0
C39 C 0.56523 0.80813 0.38389 0.0
N40 N 0.56875 0.77948 0.37062 0.0
N41 N 0.56949 0.82176 0.29593 0.0
C42 C 0.55637 0.82255 0.48061 0.0
C43 C 0.57549 0.8004 0.22939 0.0
N44 N 0.57508 0.77511 0.27412 0.0
C45 C 0.58081 0.80425 0.1193 0.0
H46 H 0.53283 0.82144 0.48762 0.0
H47 H 0.56289 0.8452 0.48239 0.0
H48 H 0.56577 0.81157 0.54493 0.0
H49 H 0.5921 0.82452 0.10672 0.0
H50 H 0.56002 0.80499 0.08029 0.0
H51 H 0.59349 0.78641 0.08624 0.0
C52 C 0.3164 0.51807 0.08053 0.0
N53 N 0.28995 0.50621 0.07081 0.0
N54 N 0.33187 0.50494 0.15215 0.0
C55 C 0.32701 0.5425 0.02166 0.0
C56 C 0.31372 0.48499 0.18597 0.0
N57 N 0.28858 0.48567 0.13685 0.0
C58 C 0.31936 0.46726 0.27545 0.0
H59 H 0.31725 0.54221 0.94609 0.0
H60 H 0.35059 0.54189 1.01483 0.0
H61 H 0.32087 0.56258 0.06156 0.0
H62 H 0.30639 0.44758 0.27288 0.0
H63 H 0.31362 0.47974 0.34447 0.0
H64 H 0.34226 0.46163 0.27967 0.0
C65 C 0.04151 0.3018 1.00197 0.0
N66 N 0.04418 0.27306 1.0104 0.0
N67 N 0.04741 0.31578 0.09116 0.0
C68 C 0.03114 0.3159 0.91017 0.0
C69 C 0.05402 0.29434 0.152 0.0
N70 N 0.05106 0.26874 0.10494 0.0
C71 C 0.06014 0.2981 0.26243 0.0
H72 H 0.03921 0.338 0.90789 0.0
H73 H 1.0075 0.31652 0.9122 0.0
H74 H 0.03789 0.30369 0.84168 0.0
H75 H 0.04005 0.29563 0.30566 0.0
H76 H 0.06927 0.31938 0.28012 0.0
H77 H 0.07527 0.28162 0.28644 0.0
C78 C 0.25115 0.04149 1.0048 0.0
N79 N 0.27831 0.05026 0.02749 0.0
N80 N 0.23259 0.04818 0.08139 0.0
C81 C 0.24247 0.02647 0.90926 0.0
C82 C 0.24929 0.06114 0.15096 0.0
N83 N 0.27667 0.06227 0.11923 0.0
C84 C 0.23957 0.06945 0.256 0.0
H85 H 0.25575 0.03353 0.84561 0.0
H86 H 0.21963 0.03044 0.89365 0.0
H87 H 0.24538 1.00331 0.91716 0.0
H88 H 0.25146 0.05695 0.31108 0.0
H89 H 0.21643 0.06622 0.26786 0.0
H90 H 0.24432 0.09219 0.27145 0.0
C91 C 0.51417 0.251 0.05356 0.0
N92 N 0.5048 0.27845 0.05607 0.0
N93 N 0.50245 0.23606 0.12994 0.0
C94 C 0.53594 0.2393 0.98074 0.0
C95 C 0.4858 0.25558 0.17883 0.0
N96 N 0.48698 0.2809 0.13399 0.0
C97 C 0.47053 0.25061 0.27651 0.0
H98 H 0.53468 0.21581 0.97482 0.0
H99 H 0.55749 0.24544 1.00748 0.0
H100 H 0.53296 0.24827 0.90573 0.0
H101 H 0.48396 0.23775 0.32603 0.0
H102 H 0.45061 0.23863 0.2609 0.0
H103 H 0.46473 0.27072 0.31668 0.0
Gd104 Gd 0.99735 0.02785 0.60487 0.0
Gd105 Gd 0.05462 0.02234 0.78019 0.0
C106 C 0.06656 0.10118 0.98743 0.0
C107 C 0.10841 0.1229 0.91624 0.0
C108 C 0.08829 0.08003 0.83748 0.0
C109 C 0.06692 0.07979 0.91025 0.0
C110 C 0.10979 0.10117 0.84269 0.0
C111 C 0.08663 0.12315 0.98757 0.0
C112 C 0.04715 0.09911 0.06625 0.0
C113 C 0.02958 0.07557 0.07036 0.0
N114 N 0.04839 0.05745 0.91195 0.0
C115 C 0.03119 0.05448 0.9949 0.0
H116 H 1.01953 0.03547 1.00912 0.0
C117 C 0.11593 0.05321 0.72149 0.0
N118 N 0.09045 0.05775 0.77071 0.0
C119 C 0.13706 0.07402 0.72109 0.0
C120 C 0.13356 0.09859 0.77972 0.0
H121 H 0.12034 0.0334 0.68167 0.0
H122 H 0.0864 0.13966 0.04591 0.0
H123 H 1.01013 0.04727 0.36548 0.0
H124 H 0.04651 0.11493 0.12677 0.0
H125 H 1.01545 0.07314 0.13392 0.0
H126 H 0.1249 0.13898 0.9213 0.0
H127 H 0.96738 0.97766 0.75457 0.0
H128 H 0.98778 0.97788 0.16805 0.0
H129 H 1.00786 0.02581 0.19487 0.0
H130 H 0.93921 0.91456 0.38273 0.0
H131 H 0.15645 0.07063 0.67801 0.0
H132 H 0.15037 0.11438 0.78164 0.0
H133 H 0.96146 0.93721 0.23857 0.0
H134 H 0.93995 0.9344 0.73557 0.0
N135 N 0.99404 1.01052 0.4366 0.0
C136 C 0.9891 0.987 0.24334 0.0
C137 C 1.00047 1.01404 0.25817 0.0
C138 C 0.97825 0.97264 0.32532 0.0
C139 C 0.98125 0.98493 0.42249 0.0
C140 C 1.00195 0.02592 0.35516 0.0
N141 N 0.97498 0.9827 0.59824 0.0
C142 C 0.97051 0.97119 0.50498 0.0
C143 C 0.94837 0.94452 0.66993 0.0
C144 C 0.94346 0.93273 0.57498 0.0
C145 C 0.96407 0.96956 0.6802 0.0
C146 C 0.95496 0.94571 0.49121 0.0
H147 H 0.93097 0.91346 0.5673 0.0
O148 O 0.95609 0.04224 0.66247 0.0
O149 O 1.02226 0.05265 0.72292 0.0
O150 O 1.01437 1.01019 0.86601 0.0
O151 O 0.97919 0.02732 0.76256 0.0
O152 O 1.01695 0.07145 0.58653 0.0
O153 O 0.96814 0.04955 0.50916 0.0
O154 O 0.09214 0.9954 0.77305 0.0
O155 O 0.03161 0.99874 0.65528 0.0
O156 O 0.03695 0.02827 0.50687 0.0
O157 O 0.07346 0.02955 0.62311 0.0
O158 O 0.04072 0.97585 0.77893 0.0
O159 O 0.07808 1.01438 0.91491 0.0
C160 C 0.02691 0.07539 0.67608 0.0
C161 C 0.95133 0.93392 0.3945 0.0
C162 C 0.96373 0.94689 0.31234 0.0
C163 C 0.9505 0.05596 0.58194 0.0
C164 C 0.94368 0.08623 0.59671 0.0
C165 C 0.92259 0.09558 0.66495 0.0
C166 C 0.95906 0.10618 0.54329 0.0
C167 C 0.95286 0.13508 0.55246 0.0
C168 C 0.91698 0.12464 0.67796 0.0
C169 C 0.93196 0.14441 0.62163 0.0
C170 C 0.98783 1.01847 0.85009 0.0
C171 C 0.0302 0.97391 0.6898 0.0
C172 C 0.09582 0.99694 0.86981 0.0
C173 C 0.09962 0.96996 0.91783 0.0
C174 C 0.12624 0.95661 0.91539 0.0
C175 C 0.07616 0.95676 0.96157 0.0
C176 C 0.07858 0.92945 0.99782 0.0
C177 C 0.12915 0.92969 0.95439 0.0
C178 C 0.10543 0.91595 0.99404 0.0
C179 C 0.06421 0.03004 0.5294 0.0
H180 H 0.91064 0.08051 0.70823 0.0
H181 H 0.97606 0.09923 0.49307 0.0
H182 H 0.90075 0.13183 0.73081 0.0
H183 H 0.9268 0.16672 0.6305 0.0
H184 H 0.14454 0.96678 0.88199 0.0
H185 H 0.05585 0.96766 0.96584 0.0
H186 H 0.14963 0.91915 0.95156 0.0
H187 H 0.10806 0.89452 0.01918 0.0
Gd188 Gd 0.52629 0.99911 0.63812 0.0
Gd189 Gd 0.5303 0.05796 0.81461 0.0
C190 C 0.46443 0.07257 0.06292 0.0
C191 C 0.4415 0.11522 1.00605 0.0
C192 C 0.47445 0.08896 0.89703 0.0
C193 C 0.48006 0.07057 0.97228 0.0
C194 C 0.45402 0.11066 0.91122 0.0
C195 C 0.44643 0.09592 0.08157 0.0
C196 C 0.46615 0.05036 0.12929 0.0
C197 C 0.48137 0.02608 0.10055 0.0
N198 N 0.49792 0.04856 0.95085 0.0
C199 C 0.49654 0.02526 1.00981 0.0
H200 H 0.50562 1.00528 0.9866 0.0
C201 C 0.47786 0.09785 0.72493 0.0
N202 N 0.48699 0.08369 0.80674 0.0
C203 C 0.45729 0.11921 0.73463 0.0
C204 C 0.44592 0.12626 0.82883 0.0
H205 H 0.48601 0.09293 0.65162 0.0
H206 H 0.43498 0.09837 0.15172 0.0
H207 H 0.56004 0.02925 0.4436 0.0
H208 H 0.45431 0.05094 0.19932 0.0
H209 H 0.48108 1.00775 0.14741 0.0
H210 H 0.42639 0.13231 0.01949 0.0
H211 H 0.51446 0.93727 0.7502 0.0
H212 H 0.62835 0.97605 0.34648 0.0
H213 H 0.59946 1.01913 0.32867 0.0
H214 H 0.61936 0.89517 0.55049 0.0
H215 H 0.45045 0.13041 0.66941 0.0
H216 H 0.43007 0.14289 0.83633 0.0
H217 H 0.63653 0.93048 0.43303 0.0
H218 H 0.5365 0.88992 0.75997 0.0
N219 N 0.56642 0.99283 0.5318 0.0
C220 C 0.61125 0.98057 0.3993 0.0
C221 C 0.59486 1.00482 0.38857 0.0
C222 C 0.60429 0.96165 0.47418 0.0
C223 C 0.58123 0.96824 0.53941 0.0
C224 C 0.57232 1.0105 0.45497 0.0
N225 N 0.54765 0.95416 0.65981 0.0
C226 C 0.57157 0.94831 0.6055 0.0
C227 C 0.54673 0.90618 0.71691 0.0
C228 C 0.57232 0.9005 0.66669 0.0
C229 C 0.53438 0.93302 0.71133 0.0
C230 C 0.58473 0.9214 0.60839 0.0
H231 H 0.58174 0.87959 0.6704 0.0
O232 O 0.50069 0.96384 0.58462 0.0
O233 O 0.49994 0.0308 0.72871 0.0
O234 O 0.54551 1.02052 0.90443 0.0
O235 O 0.54706 0.98382 0.7825 0.0
O236 O 0.48838 0.98912 0.73945 0.0
O237 O 0.50591 1.00002 0.49196 0.0
O238 O 0.53597 0.10306 0.80256 0.0
O239 O 0.55412 0.03411 0.69267 0.0
O240 O 0.52172 0.0401 0.54785 0.0
O241 O 0.53479 0.07642 0.66035 0.0
O242 O 0.57768 0.04658 0.81602 0.0
O243 O 0.55073 0.0827 0.93519 0.0
C244 C 0.48162 1.01459 0.76693 0.0
C245 C 0.60884 0.91559 0.5486 0.0
C246 C 0.61858 0.93568 0.48154 0.0
C247 C 0.49243 0.97625 0.50505 0.0
C248 C 0.46159 0.97611 0.49314 0.0
C249 C 0.44759 0.95038 0.47199 0.0
C250 C 0.4458 1.00078 0.51336 0.0
C251 C 0.41603 1.00015 0.50833 0.0
C252 C 0.41792 0.94936 0.4705 0.0
C253 C 0.40216 0.97409 0.48809 0.0
C254 C 0.55071 0.99369 0.8761 0.0
C255 C 0.57901 0.03347 0.72959 0.0
C256 C 0.54953 0.10625 0.88651 0.0
C257 C 0.5749 0.12477 0.8843 0.0
C258 C 0.57728 0.14588 0.81227 0.0
C259 C 0.59629 0.1225 0.95638 0.0
C260 C 0.62024 0.14037 0.95489 0.0
C261 C 0.60099 0.16377 0.811 0.0
C262 C 0.62255 0.16093 0.88149 0.0
C263 C 0.52788 0.06726 0.56877 0.0
H264 H 0.45963 0.93102 0.45844 0.0
H265 H 0.45666 1.02056 0.53151 0.0
H266 H 0.40712 0.92948 0.45408 0.0
H267 H 0.37919 0.97296 0.48132 0.0
H268 H 0.5608 0.14862 0.75687 0.0
H269 H 0.59466 0.10643 1.01253 0.0
H270 H 0.6027 0.17981 0.75501 0.0
H271 H 0.64094 0.1748 0.87908 0.0
Gd272 Gd 0.51223 0.53238 0.77036 0.0
Gd273 Gd 0.57185 0.5156 0.61094 0.0
C274 C 0.66418 0.52104 0.72154 0.0
C275 C 0.6847 0.55583 0.6118 0.0
C276 C 0.63444 0.54332 0.59951 0.0
C277 C 0.63728 0.52478 0.67678 0.0
C278 C 0.6582 0.5588 0.56521 0.0
C279 C 0.68772 0.53685 0.68946 0.0
C280 C 0.66682 0.50111 0.79593 0.0
C281 C 0.64294 0.48603 0.82626 0.0
N282 N 0.61404 0.50985 0.70639 0.0
C283 C 0.61667 0.4907 0.78104 0.0
H284 H 0.59877 0.47907 0.80888 0.0
C285 C 0.60621 0.56004 0.46836 0.0
N286 N 0.60885 0.54501 0.55381 0.0
C287 C 0.62877 0.57642 0.43348 0.0
C288 C 0.65487 0.57604 0.4827 0.0
H289 H 0.58631 0.55973 0.42833 0.0
H290 H 0.70843 0.53433 0.7236 0.0
H291 H 0.50131 0.58328 0.58221 0.0
H292 H 0.68727 0.49703 0.82956 0.0
H293 H 0.64471 0.47068 0.8845 0.0
H294 H 0.70315 0.56756 0.58661 0.0
H295 H 0.47997 0.47535 0.86371 0.0
H296 H 0.41336 0.60235 0.57747 0.0
H297 H 0.46277 0.61221 0.52536 0.0
H298 H 0.37075 0.52693 0.75474 0.0
H299 H 0.62599 0.58917 0.36849 0.0
H300 H 0.6725 0.58843 0.4548 0.0
H301 H 0.37932 0.57043 0.6628 0.0
H302 H 0.43189 0.45729 0.89266 0.0
N303 N 0.47617 0.55883 0.6835 0.0
C304 C 0.43067 0.58994 0.60683 0.0
C305 C 0.45848 0.5957 0.57801 0.0
C306 C 0.42536 0.56689 0.66714 0.0
C307 C 0.44871 0.55126 0.70318 0.0
C308 C 0.48081 0.57957 0.61485 0.0
N309 N 0.4665 0.51134 0.78288 0.0
C310 C 0.44378 0.5266 0.75335 0.0
C311 C 0.43484 0.47667 0.85242 0.0
C312 C 0.41135 0.49198 0.82123 0.0
C313 C 0.46225 0.48688 0.83391 0.0
C314 C 0.41558 0.5173 0.77158 0.0
H315 H 0.39007 0.48421 0.83664 0.0
O316 O 0.51779 0.50977 0.90776 0.0
O317 O 0.55953 0.52322 0.76979 0.0
O318 O 0.56098 0.47715 0.70324 0.0
O319 O 0.5131 0.48497 0.7255 0.0
O320 O 0.54611 0.55952 0.84679 0.0
O321 O 0.49002 0.54657 0.90576 0.0
O322 O 0.59592 0.50167 0.47805 0.0
O323 O 0.52424 0.51571 0.62026 0.0
O324 O 0.52815 0.57629 0.72481 0.0
O325 O 0.56621 0.5645 0.61588 0.0
O326 O 0.54158 0.53187 0.4925 0.0
O327 O 0.56817 0.47255 0.55048 0.0
C328 C 0.5681 0.54407 0.82466 0.0
C329 C 0.39248 0.53357 0.74041 0.0
C330 C 0.39736 0.55841 0.68873 0.0
C331 C 0.50235 0.5277 0.96071 0.0
C332 C 0.51561 0.53805 0.05372 0.0
C333 C 0.51905 0.51983 0.13379 0.0
C334 C 0.52692 0.56545 0.06025 0.0
C335 C 0.54255 0.57433 0.1439 0.0
C336 C 0.53395 0.52906 0.21906 0.0
C337 C 0.54575 0.55624 0.22422 0.0
C338 C 0.53537 0.46777 0.72763 0.0
C339 C 0.51796 0.52602 0.53705 0.0
C340 C 0.58386 0.47706 0.47262 0.0
C341 C 0.57214 0.46838 0.37498 0.0
C342 C 0.59079 0.46388 0.29403 0.0
C343 C 0.54274 0.46379 0.36258 0.0
C344 C 0.53189 0.45338 0.27049 0.0
C345 C 0.58032 0.45476 0.20135 0.0
C346 C 0.55132 0.44935 0.18953 0.0
C347 C 0.54907 0.58357 0.66184 0.0
H348 H 0.51039 0.49854 0.12991 0.0
H349 H 0.52351 0.58012 1.00062 0.0
H350 H 0.53636 0.5153 0.28142 0.0
H351 H 0.55709 0.56326 0.29071 0.0
H352 H 0.61349 0.46738 0.30265 0.0
H353 H 0.52863 0.46805 0.42549 0.0
H354 H 0.59483 0.45124 0.13881 0.0
H355 H 0.5448 0.44078 0.11734 0.0
Gd356 Gd 0.03131 0.50027 0.75266 0.0
Gd357 Gd 0.0506 0.55317 0.57626 0.0
C358 C 0.04913 0.64858 0.65832 0.0
C359 C 1.01375 0.6658 0.54311 0.0
C360 C 0.02661 0.61577 0.54057 0.0
C361 C 0.04531 0.62064 0.61899 0.0
C362 C 1.01101 0.63838 0.50066 0.0
C363 C 0.03287 0.67091 0.62152 0.0
C364 C 0.06974 0.65352 0.73168 0.0
C365 C 0.08617 0.63108 0.76365 0.0
N366 N 0.06075 0.59851 0.65336 0.0
C367 C 0.08165 0.60378 0.7232 0.0
H368 H 0.09458 0.58732 0.75282 0.0
C369 C 1.01002 0.58447 0.41218 0.0
N370 N 0.02496 0.58928 0.49886 0.0
C371 C 0.99353 0.60588 0.37213 0.0
C372 C 0.99373 0.63293 0.41724 0.0
H373 H 1.01005 0.56372 0.37573 0.0
H374 H 0.03535 0.69234 0.65186 0.0
H375 H 0.97398 0.48034 0.61008 0.0
H376 H 0.07353 0.67467 0.76246 0.0
H377 H 0.10233 0.63473 0.82015 0.0
H378 H 1.00182 0.68336 0.51384 0.0
H379 H 0.08597 0.47473 0.89242 0.0
H380 H 0.979 0.39204 0.54543 0.0
H381 H 0.95381 0.43758 0.5348 0.0
H382 H 0.06698 0.36424 0.68944 0.0
H383 H 0.98061 0.60135 0.30692 0.0
H384 H 0.98106 0.64959 0.38572 0.0
H385 H 1.02212 0.36528 0.59671 0.0
H386 H 0.1142 0.43149 0.90437 0.0
N387 N 1.01215 0.46067 0.66135 0.0
C388 C 0.98881 0.41117 0.57598 0.0
C389 C 0.97436 0.43676 0.57103 0.0
C390 C 1.01528 0.41037 0.62286 0.0
C391 C 0.0264 0.43568 0.6669 0.0
C392 C 0.9862 0.46127 0.61469 0.0
N393 N 0.05994 0.45891 0.77147 0.0
C394 C 0.05137 0.43496 0.72125 0.0
C395 C 0.09701 0.43229 0.85083 0.0
C396 C 0.08977 0.40822 0.79387 0.0
C397 C 0.08122 0.45711 0.84153 0.0
C398 C 0.06612 0.409 0.731 0.0
H399 H 0.10157 0.38875 0.80318 0.0
O400 O 0.02968 0.48458 0.90341 0.0
O401 O 0.03281 0.54745 0.73087 0.0
O402 O 0.09056 0.54563 0.66734 0.0
O403 O 0.07923 0.50789 0.76797 0.0
O404 O 0.04685 0.53302 0.86641 0.0
O405 O 0.99064 0.49423 0.8267 0.0
O406 O 0.06827 0.57105 0.44079 0.0
O407 O 0.0465 0.50585 0.59522 0.0
O408 O 0.98947 0.52002 0.69567 0.0
O409 O 1.00209 0.5516 0.57202 0.0
O410 O 0.02816 0.52265 0.46955 0.0
O411 O 0.08955 0.53628 0.50974 0.0
C412 C 0.04208 0.55555 0.81689 0.0
C413 C 0.05591 0.38424 0.68273 0.0
C414 C 0.03036 0.38485 0.62987 0.0
C415 C 1.00243 0.4887 0.9121 0.0
C416 C 0.99349 0.50611 0.99982 0.0
C417 C 1.00723 0.50321 0.09213 0.0
C418 C 0.97176 0.52625 0.99174 0.0
C419 C 0.9638 0.54306 0.07492 0.0
C420 C 0.99978 0.52066 0.17452 0.0
C421 C 0.97797 0.54044 0.16631 0.0
C422 C 0.09762 0.52657 0.73348 0.0
C423 C 0.03359 0.49935 0.51358 0.0
C424 C 0.08707 0.55098 0.4294 0.0
C425 C 0.087 0.53447 0.33337 0.0
C426 C 0.07076 0.54303 0.25177 0.0
C427 C 0.10281 0.50927 0.32428 0.0
C428 C 0.10174 0.49184 0.23655 0.0
C429 C 0.06996 0.52634 0.16384 0.0
C430 C 0.08452 0.50056 0.15703 0.0
C431 C 0.9826 0.53774 0.62372 0.0
H432 H 0.02396 0.48765 0.10015 0.0
H433 H 0.96014 0.52816 0.92226 0.0
H434 H 1.01061 0.51857 0.24516 0.0
H435 H 0.97132 0.55279 0.23205 0.0
H436 H 0.05847 0.56244 0.25597 0.0
H437 H 0.11665 0.5039 0.38541 0.0
H438 H 0.05777 0.53331 0.10073 0.0
H439 H 0.08263 0.48796 0.08833 0.0
C440 C 0.18092 0.05786 0.09048 0.0
C441 C 0.20363 0.03884 0.10094 0.0
C442 C 0.15506 0.05472 0.14433 0.0
C443 C 0.1519 0.03232 0.21237 0.0
C444 C 0.17386 1.0117 0.21614 0.0
C445 C 0.19928 1.01516 0.16036 0.0
C446 C 0.13195 0.07661 0.13406 0.0
C447 C 0.1717 0.98734 0.28639 0.0
C448 C 0.11087 0.0474 0.4579 0.0
C449 C 0.08563 0.03177 0.44525 0.0
C450 C 0.13215 0.0479 0.3828 0.0
C451 C 0.12816 0.03288 0.29006 0.0
C452 C 0.10208 1.01806 0.27456 0.0
C453 C 0.08131 1.01754 0.35224 0.0
C454 C 0.15925 0.06428 0.40373 0.0
C455 C 0.09629 1.00212 0.17705 0.0
H456 H 0.18431 0.07648 0.04637 0.0
H457 H 0.21697 1.00081 0.1708 0.0
H458 H 0.11125 0.06606 0.118 0.0
H459 H 0.12945 0.08902 0.20556 0.0
H460 H 0.13679 0.0915 0.07343 0.0
H461 H 0.18875 0.97136 0.27229 0.0
H462 H 0.17348 0.99557 0.36494 0.0
H463 H 0.15068 0.97673 0.27885 0.0
H464 H 0.11391 0.0597 0.52638 0.0
H465 H 0.06193 1.00539 0.3408 0.0
H466 H 0.16276 0.08019 0.34537 0.0
H467 H 0.17772 0.04959 0.40098 0.0
H468 H 0.15885 0.07545 0.47824 0.0
H469 H 0.07334 0.99678 0.16853 0.0
H470 H 0.10864 0.98206 0.17448 0.0
H471 H 0.10319 1.01465 0.11222 0.0
C472 C 0.53595 0.19918 0.18931 0.0
C473 C 0.50828 0.20749 0.16362 0.0
C474 C 0.54087 0.17402 0.24206 0.0
C475 C 0.51757 0.15686 0.27211 0.0
C476 C 0.48978 0.16444 0.24118 0.0
C477 C 0.48559 0.18928 0.18669 0.0
C478 C 0.57095 0.16684 0.27097 0.0
C479 C 0.464 0.1477 0.27285 0.0
C480 C 0.52587 0.08281 0.38604 0.0
C481 C 0.52616 0.08948 0.4896 0.0
C482 C 0.52426 0.1044 0.31418 0.0
C483 C 0.52159 0.13338 0.34597 0.0
C484 C 0.52163 0.14005 0.45019 0.0
C485 C 0.5246 0.11836 0.51963 0.0
C486 C 0.52592 0.09629 0.20412 0.0
C487 C 0.51791 0.17025 0.48917 0.0
H488 H 0.55362 0.21314 0.17302 0.0
H489 H 0.46417 0.1954 0.16665 0.0
H490 H 0.57467 0.17388 0.34986 0.0
H491 H 0.57456 0.14359 0.26555 0.0
H492 H 0.5868 0.17762 0.22306 0.0
H493 H 0.44506 0.15237 0.22661 0.0
H494 H 0.46824 0.12458 0.26801 0.0
H495 H 0.45883 0.15332 0.35226 0.0
H496 H 0.52728 0.0608 0.36087 0.0
H497 H 0.52494 0.12422 0.59873 0.0
H498 H 0.5461 0.10457 0.17237 0.0
H499 H 0.50822 0.10614 0.16296 0.0
H500 H 0.5253 0.07295 0.19048 0.0
H501 H 0.53572 0.18358 0.46259 0.0
H502 H 0.51718 0.17186 0.57238 0.0
H503 H 0.49788 0.17921 0.45974 0.0
C504 C 0.38342 0.49497 0.17145 0.0
C505 C 0.35958 0.51195 0.1947 0.0
C506 C 0.40921 0.49794 0.22543 0.0
C507 C 0.41133 0.5181 0.30652 0.0
C508 C 0.3874 0.53579 0.32816 0.0
C509 C 0.36194 0.53245 0.27252 0.0
C510 C 0.43384 0.47867 0.19797 0.0
C511 C 0.38828 0.55754 0.41303 0.0
C512 C 0.46792 0.50607 0.51057 0.0
C513 C 0.48977 0.52478 0.48371 0.0
C514 C 0.44228 0.50394 0.45492 0.0
C515 C 0.43833 0.52056 0.36877 0.0
C516 C 0.4604 0.53953 0.34196 0.0
C517 C 0.4855 0.54151 0.3998 0.0
C518 C 0.41949 0.48366 0.48799 0.0
C519 C 0.45774 0.55754 0.25098 0.0
H520 H 0.38149 0.47867 0.11288 0.0
H521 H 0.34338 0.54511 0.29234 0.0
H522 H 0.45391 0.49099 0.19207 0.0
H523 H 0.43673 0.4632 0.25798 0.0
H524 H 0.43031 0.46673 0.12602 0.0
H525 H 0.36868 0.57072 0.41752 0.0
H526 H 0.39071 0.54651 0.48451 0.0
H527 H 0.407 0.57167 0.40459 0.0
H528 H 0.47102 0.49274 0.57426 0.0
H529 H 0.50199 0.55636 0.3792 0.0
H530 H 0.4153 0.46763 0.42727 0.0
H531 H 0.39931 0.49533 0.50281 0.0
H532 H 0.42553 0.4725 0.55685 0.0
H533 H 0.45535 0.5437 0.18278 0.0
H534 H 0.47655 0.57151 0.24067 0.0
H535 H 0.43838 0.57096 0.25753 0.0
C536 C 1.01998 0.3481 0.20422 0.0
C537 C 0.04053 0.34447 0.12797 0.0
C538 C 1.01855 0.37301 0.2656 0.0
C539 C 0.03733 0.39607 0.24886 0.0
C540 C 0.05646 0.39344 0.16553 0.0
C541 C 0.05834 0.36757 0.10811 0.0
C542 C 0.99852 0.37324 0.35401 0.0
C543 C 0.0761 0.41726 0.13872 0.0
C544 C 1.01478 0.46768 0.37361 0.0
C545 C 0.03437 0.47174 0.45231 0.0
C546 C 1.01596 0.44386 0.30647 0.0
C547 C 0.03682 0.42248 0.31849 0.0
C548 C 0.05659 0.42627 0.3986 0.0
C549 C 0.05557 0.45099 0.46264 0.0
C550 C 0.99497 0.44179 0.22127 0.0
C551 C 0.07883 0.40406 0.41723 0.0
H552 H 1.00639 0.33025 0.2211 0.0
H553 H 0.0746 0.36504 0.05052 0.0
H554 H 1.01118 0.36943 0.42204 0.0
H555 H 0.98771 0.39397 0.36438 0.0
H556 H 0.98203 0.35639 0.347 0.0
H557 H 0.08014 0.41719 0.05667 0.0
H558 H 0.06745 0.43828 0.1627 0.0
H559 H 0.09684 0.41401 0.17595 0.0
H560 H 0.99837 0.48349 0.364 0.0
H561 H 0.0714 0.45408 0.52073 0.0
H562 H 0.98143 0.42268 0.22802 0.0
H563 H 1.00665 0.43953 0.14886 0.0
H564 H 0.98078 0.46059 0.21919 0.0
H565 H 0.0686 0.38291 0.42235 0.0
H566 H 0.09091 0.40866 0.48722 0.0
H567 H 0.09409 0.40293 0.35346 0.0
C568 C 0.86653 0.02408 0.29217 0.0
C569 C 0.83983 1.01905 0.24837 0.0
C570 C 0.89206 0.02179 0.2351 0.0
C571 C 0.89109 1.01441 0.13094 0.0
C572 C 0.86412 1.00814 0.08773 0.0
C573 C 0.83902 1.01052 0.14666 0.0
C574 C 0.92005 0.02826 0.28562 0.0
C575 C 0.86148 1.00067 0.97742 0.0
C576 C 0.94868 0.04172 0.95142 0.0
C577 C 0.96558 1.01763 0.93127 0.0
C578 C 0.92526 0.04115 0.01844 0.0
C579 C 0.91768 1.01559 0.06544 0.0
C580 C 0.93477 0.99113 0.04528 0.0
C581 C 0.95872 0.99255 0.98002 0.0
C582 C 0.90801 0.06784 0.03631 0.0
C583 C 0.92689 0.96304 0.08849 0.0
H584 H 0.86728 0.03128 0.37001 0.0
H585 H 0.81841 1.00732 0.11186 0.0
H586 H 0.93414 1.00957 0.27677 0.0
H587 H 0.93084 0.0462 0.24913 0.0
H588 H 0.91747 0.03355 0.36686 0.0
H589 H 0.83962 0.99354 0.95729 0.0
H590 H 0.8668 1.01952 0.93321 0.0
H591 H 0.87677 0.98369 0.95498 0.0
H592 H 0.95365 0.06113 0.91343 0.0
H593 H 0.97128 0.97371 0.96347 0.0
H594 H 0.90679 0.07319 0.11777 0.0
H595 H 0.88589 0.06439 1.00964 0.0
H596 H 0.91719 0.08624 0.99727 0.0
H597 H 0.92197 0.96567 0.16963 0.0
H598 H 0.94406 0.94706 0.07708 0.0
H599 H 0.90739 0.95472 0.05139 0.0
C600 C 0.54118 0.85954 0.22013 0.0
C601 C 0.5659 0.85125 0.27003 0.0
C602 C 0.54007 0.88506 0.16736 0.0
C603 C 0.56442 0.90292 0.1629 0.0
C604 C 0.58902 0.89528 0.21754 0.0
C605 C 0.58947 0.86962 0.27005 0.0
C606 C 0.51335 0.89198 0.11081 0.0
C607 C 0.61557 0.91327 0.21489 0.0
C608 C 0.57075 0.94615 0.92429 0.0
C609 C 0.55918 0.97259 0.95392 0.0
C610 C 0.57344 0.92381 0.99179 0.0
C611 C 0.56489 0.92782 0.09349 0.0
C612 C 0.55562 0.95525 0.1263 0.0
C613 C 0.55324 0.97728 0.0568 0.0
C614 C 0.58416 0.8954 0.9524 0.0
C615 C 0.54678 0.96104 0.23389 0.0
H616 H 0.52324 0.84505 0.21734 0.0
H617 H 0.6089 0.86295 0.30587 0.0
H618 H 0.50656 0.91408 0.12899 0.0
H619 H 0.51774 0.89043 0.029 0.0
H620 H 0.4955 0.87741 0.12825 0.0
H621 H 0.63213 0.90583 0.267 0.0
H622 H 0.62462 0.91272 0.13786 0.0
H623 H 0.6103 0.93569 0.23432 0.0
H624 H 0.57737 0.94268 0.84719 0.0
H625 H 0.54564 0.99786 0.08303 0.0
H626 H 0.56596 0.88042 0.94575 0.0
H627 H 0.59971 0.88626 1.00463 0.0
H628 H 0.59444 0.89689 0.87758 0.0
H629 H 0.54466 0.98411 0.2517 0.0
H630 H 0.56232 0.95182 0.286 0.0
H631 H 0.52588 0.95081 0.24781 0.0
C632 C 0.6889 0.5844 0.23272 0.0
C633 C 0.71194 0.56541 0.23437 0.0
C634 C 0.66512 0.57949 0.16971 0.0
C635 C 0.66392 0.5548 0.10619 0.0
C636 C 0.68624 0.53452 0.11367 0.0
C637 C 0.70993 0.54022 0.17638 0.0
C638 C 0.64155 0.60119 0.16951 0.0
C639 C 0.68652 0.50722 0.05246 0.0
C640 C 0.59286 0.53153 0.98449 0.0
C641 C 0.59371 0.54478 0.89167 0.0
C642 C 0.61518 0.53491 0.05491 0.0
C643 C 0.63982 0.55089 0.03113 0.0
C644 C 0.64089 0.56396 0.93653 0.0
C645 C 0.61749 0.56163 0.87004 0.0
C646 C 0.6122 0.52172 0.15575 0.0
C647 C 0.66691 0.58032 0.90506 0.0
H648 H 0.69007 0.60379 0.27811 0.0
H649 H 0.72769 0.52553 0.17592 0.0
H650 H 0.64078 0.61137 0.09584 0.0
H651 H 0.62066 0.59071 0.18134 0.0
H652 H 0.64453 0.61797 0.22861 0.0
H653 H 0.69371 0.4895 0.09907 0.0
H654 H 0.66545 0.50167 0.02071 0.0
H655 H 0.70228 0.50919 0.99081 0.0
H656 H 0.57427 0.51908 1.0033 0.0
H657 H 0.61793 0.5728 0.80029 0.0
H658 H 0.6159 0.53786 0.21661 0.0
H659 H 0.62848 0.50488 0.16303 0.0
H660 H 0.59078 0.51236 0.16645 0.0
H661 H 0.66993 0.59915 0.95568 0.0
H662 H 0.66534 0.58755 0.82685 0.0
H663 H 0.68615 0.56681 0.91124 0.0
C664 C 0.99779 0.68475 0.20095 0.0
C665 C 1.01586 0.70847 0.19992 0.0
C666 C 1.00214 0.66086 0.13582 0.0
C667 C 0.0253 0.66016 0.06654 0.0
C668 C 0.04414 0.68388 0.06732 0.0
C669 C 0.03911 0.70761 0.13315 0.0
C670 C 0.98068 0.63717 0.13694 0.0
C671 C 0.06861 0.68543 0.99408 0.0
C672 C 0.05301 0.58797 0.9643 0.0
C673 C 0.03844 0.58371 0.8731 0.0
C674 C 0.04894 0.61242 0.02658 0.0
C675 C 0.03027 0.63424 0.99717 0.0
C676 C 1.01602 0.63055 0.90352 0.0
C677 C 1.01962 0.60512 0.84424 0.0
C678 C 0.0643 0.6146 0.12553 0.0
C679 C 0.99728 0.65368 0.86494 0.0
H680 H 0.97921 0.68562 0.24956 0.0
H681 H 0.05252 0.72625 0.12853 0.0
H682 H 0.96752 0.63827 0.06881 0.0
H683 H 0.99143 0.6162 0.13573 0.0
H684 H 0.96606 0.63894 0.20253 0.0
H685 H 0.08575 0.69963 0.02328 0.0
H686 H 0.0779 0.66427 0.97586 0.0
H687 H 0.0606 0.69437 0.92373 0.0
H688 H 0.06759 0.57174 0.9881 0.0
H689 H 1.00774 0.60205 0.7754 0.0
H690 H 0.07619 0.6349 0.13218 0.0
H691 H 0.07958 0.59692 0.13484 0.0
H692 H 0.04848 0.61441 0.18775 0.0
H693 H 0.97854 0.65686 0.9149 0.0
H694 H 0.9896 0.64874 0.78775 0.0
H695 H 1.00926 0.67399 0.86491 0.0
C696 C 0.05657 0.22735 0.21061 0.0
C697 C 0.03927 0.24552 0.15741 0.0
C698 C 0.04429 0.20792 0.27561 0.0
C699 C 1.01426 0.20759 0.28829 0.0
C700 C 0.99684 0.22545 0.23172 0.0
C701 C 1.00965 0.24406 0.16632 0.0
C702 C 0.06355 0.18877 0.33311 0.0
C703 C 0.96475 0.2257 0.24286 0.0
C704 C 0.97338 0.14579 0.38586 0.0
C705 C 0.96806 0.15452 0.48579 0.0
C706 C 0.99008 0.16206 0.32301 0.0
C707 C 1.00049 0.18846 0.35913 0.0
C708 C 0.99481 0.19784 0.45908 0.0
C709 C 0.97877 0.18055 0.52185 0.0
C710 C 0.99593 0.15128 0.21715 0.0
C711 C 1.00523 0.22629 0.4988 0.0
H712 H 0.07953 0.22901 0.2035 0.0
H713 H 0.99665 0.25872 0.12545 0.0
H714 H 0.06785 0.19882 0.40773 0.0
H715 H 0.05361 0.16776 0.34465 0.0
H716 H 0.08433 0.18554 0.29403 0.0
H717 H 0.95449 0.24124 0.19367 0.0
H718 H 0.95596 0.20436 0.22427 0.0
H719 H 0.95878 0.23105 0.32178 0.0
H720 H 0.96451 0.12601 0.35648 0.0
H721 H 0.97483 0.18726 0.59892 0.0
H722 H 1.01857 0.15484 0.1966 0.0
H723 H 0.98262 0.16313 0.16434 0.0
H724 H 0.99105 0.12832 0.20694 0.0
H725 H 0.02855 0.22819 0.4864 0.0
H726 H 1.0006 0.22963 0.58005 0.0
H727 H 0.99486 0.24346 0.45728 0.0
C728 C 0.31746 0.04122 0.1999 0.0
C729 C 0.30021 0.06479 0.18701 0.0
C730 C 0.3386 0.04155 0.27239 0.0
C731 C 0.34143 0.0657 0.33795 0.0
C732 C 0.32446 0.09001 0.32373 0.0
C733 C 0.30436 0.08946 0.24625 0.0
C734 C 0.35699 1.01538 0.28045 0.0
C735 C 0.32706 0.11642 0.38969 0.0
C736 C 0.37181 0.02799 0.54332 0.0
C737 C 0.39978 0.02688 0.50623 0.0
C738 C 0.35229 0.04697 0.50382 0.0
C739 C 0.3611 0.06377 0.4234 0.0
C740 C 0.39042 0.06764 0.40472 0.0
C741 C 0.40973 0.04882 0.44628 0.0
C742 C 0.32138 0.04488 0.53382 0.0
C743 C 0.40069 0.08725 0.32526 0.0
H744 H 0.3138 0.02214 0.15446 0.0
H745 H 0.29121 0.10788 0.23404 0.0
H746 H 0.37988 1.02121 0.28033 0.0
H747 H 0.35209 1.00469 0.35134 0.0
H748 H 0.35346 0.99982 0.21753 0.0
H749 H 0.30625 0.12753 0.39706 0.0
H750 H 0.33494 0.11185 0.46571 0.0
H751 H 0.34229 0.13117 0.35442 0.0
H752 H 0.36444 1.01216 0.59468 0.0
H753 H 0.4316 0.04888 0.41977 0.0
H754 H 0.31073 0.02869 0.48484 0.0
H755 H 0.31035 0.06546 0.52504 0.0
H756 H 0.31918 0.0383 0.61275 0.0
H757 H 0.39761 0.07679 0.25042 0.0
H758 H 0.42367 0.09234 0.33436 0.0
H759 H 0.38825 0.10724 0.32772 0.0
C760 C 0.45219 0.3201 0.14963 0.0
C761 C 0.47761 0.3074 0.17845 0.0
C762 C 0.44563 0.34799 0.18268 0.0
C763 C 0.46627 0.36401 0.23772 0.0
C764 C 0.49091 0.34985 0.27349 0.0
C765 C 0.4952 0.32128 0.2475 0.0
C766 C 0.41712 0.36007 0.15502 0.0
C767 C 0.51437 0.36485 0.3318 0.0
C768 C 0.4911 0.43454 0.16794 0.0
C769 C 0.50199 0.44224 0.26243 0.0
C770 C 0.47383 0.41048 0.15639 0.0
C771 C 0.46553 0.3957 0.24271 0.0
C772 C 0.46768 0.41004 0.33691 0.0
C773 C 0.48694 0.43276 0.34704 0.0
C774 C 0.4676 0.39952 0.05177 0.0
C775 C 0.45299 0.39919 0.42886 0.0
H776 H 0.43782 0.30849 0.10009 0.0
H777 H 0.51416 0.31044 0.27221 0.0
H778 H 0.41358 0.38184 0.18648 0.0
H779 H 0.41509 0.36002 0.07217 0.0
H780 H 0.39995 0.34612 0.18308 0.0
H781 H 0.53375 0.35152 0.33821 0.0
H782 H 0.52082 0.38466 0.29547 0.0
H783 H 0.50686 0.37018 0.40888 0.0
H784 H 0.49883 0.44491 0.10181 0.0
H785 H 0.49204 0.4404 0.42195 0.0
H786 H 0.44435 0.4005 0.03831 0.0
H787 H 0.47469 0.37722 0.0411 0.0
H788 H 0.47831 0.41243 0.99451 0.0
H789 H 0.4389 0.41611 0.46082 0.0
H790 H 0.46884 0.39451 0.48749 0.0
H791 H 0.43987 0.38003 0.41207 0.0
C792 C 0.24199 0.49127 0.21557 0.0
C793 C 0.26233 0.4735 0.17068 0.0
C794 C 0.2146 0.48141 0.23642 0.0
C795 C 0.2075 0.45264 0.2125 0.0
C796 C 0.22896 0.43395 0.17481 0.0
C797 C 0.25619 0.44476 0.15309 0.0
C798 C 0.19313 0.50244 0.27963 0.0
C799 C 0.22321 0.40297 0.1525 0.0
C800 C 0.13414 0.45491 0.30763 0.0
C801 C 0.12219 0.46769 0.22367 0.0
C802 C 0.16164 0.44329 0.30176 0.0
C803 C 0.17685 0.44459 0.21049 0.0
C804 C 0.1616 0.44941 0.12164 0.0
C805 C 0.13432 0.46129 0.12914 0.0
C806 C 0.17574 0.43354 0.39566 0.0
C807 C 0.17543 0.44577 0.01986 0.0
H808 H 0.24738 0.51337 0.23019 0.0
H809 H 0.27233 0.43107 0.11912 0.0
H810 H 0.17337 0.50231 0.23475 0.0
H811 H 0.18731 0.49663 0.35695 0.0
H812 H 0.20152 0.52449 0.2828 0.0
H813 H 0.2413 0.38998 0.17853 0.0
H814 H 0.2033 0.39547 0.18838 0.0
H815 H 0.22169 0.39931 0.07017 0.0
H816 H 0.12355 0.45662 0.37993 0.0
H817 H 0.12444 0.46844 0.0615 0.0
H818 H 0.18422 0.45215 0.43875 0.0
H819 H 0.19366 0.41882 0.37776 0.0
H820 H 0.16003 0.4228 0.44427 0.0
H821 H 0.16167 0.45343 0.95893 0.0
H822 H 0.17997 0.42297 1.00477 0.0
H823 H 0.19597 0.45732 0.01785 0.0
C824 C 0.99593 0.80185 0.08795 0.0
C825 C 0.98161 0.80165 0.18051 0.0
C826 C 0.99824 0.82679 0.03518 0.0
C827 C 0.98852 0.85229 0.08154 0.0
C828 C 0.96895 0.85094 0.16234 0.0
C829 C 0.96519 0.82514 0.21032 0.0
C830 C 1.01574 0.82678 0.94024 0.0
C831 C 0.95557 0.87714 0.20812 0.0
C832 C 0.05556 0.89521 0.10986 0.0
C833 C 0.05291 0.91434 0.03326 0.0
C834 C 0.03365 0.87636 0.13065 0.0
C835 C 1.00791 0.877 0.07528 0.0
C836 C 1.00394 0.89823 1.00437 0.0
C837 C 0.02644 0.91701 0.98538 0.0
C838 C 0.0394 0.85405 0.20591 0.0
C839 C 0.97742 0.8997 0.94143 0.0
H840 H 1.00753 0.78321 0.06137 0.0
H841 H 0.95138 0.82416 0.27516 0.0
H842 H 1.00567 0.84094 0.8861 0.0
H843 H 0.03748 0.83493 0.9566 0.0
H844 H 1.01765 0.80516 0.90543 0.0
H845 H 0.96937 0.88506 0.26985 0.0
H846 H 0.95333 0.89392 0.15246 0.0
H847 H 0.93432 0.87236 0.24061 0.0
H848 H 0.0754 0.89401 0.15073 0.0
H849 H 1.02367 0.93269 0.929 0.0
H850 H 0.04317 0.83329 0.16696 0.0
H851 H 1.02072 0.85214 0.25608 0.0
H852 H 0.05857 0.859 0.25146 0.0
H853 H 0.98132 0.8883 0.86874 0.0
H854 H 0.97228 0.92202 0.92462 0.0
H855 H 0.9587 0.88987 0.97768 0.0
C856 C 0.72663 0.05613 0.25552 0.0
C857 C 0.74975 0.06991 0.30097 0.0
C858 C 0.70429 0.07162 0.21562 0.0
C859 C 0.7056 0.10161 0.21976 0.0
C860 C 0.72791 0.11561 0.27228 0.0
C861 C 0.7499 0.09946 0.31263 0.0
C862 C 0.68017 0.05591 0.164 0.0
C863 C 0.72911 0.14752 0.28191 0.0
C864 C 0.67122 0.13135 0.99162 0.0
C865 C 0.64344 0.13609 0.02671 0.0
C866 C 0.69239 0.122 0.05622 0.0
C867 C 0.68554 0.11776 0.15828 0.0
C868 C 0.65814 0.12497 0.19564 0.0
C869 C 0.63727 0.13367 0.1288 0.0
C870 C 0.72135 0.11439 1.01327 0.0
C871 C 0.64974 0.12158 0.30386 0.0
H872 H 0.72678 0.03321 0.24726 0.0
H873 H 0.7677 0.1098 0.34998 0.0
H874 H 0.68058 0.06016 0.08265 0.0
H875 H 0.68148 0.03262 0.17342 0.0
H876 H 0.6594 0.0635 0.19453 0.0
H877 H 0.74602 0.15497 0.33436 0.0
H878 H 0.73336 0.15644 0.20732 0.0
H879 H 0.70825 0.15598 0.30869 0.0
H880 H 0.67589 0.1331 0.91237 0.0
H881 H 0.61577 0.13747 0.15565 0.0
H882 H 0.72413 0.09102 1.01291 0.0
H883 H 0.73847 0.12391 0.0604 0.0
H884 H 0.7241 0.12161 0.93533 0.0
H885 H 0.63641 0.10227 0.30956 0.0
H886 H 0.63645 0.13982 0.33039 0.0
H887 H 0.66832 0.11979 0.35425 0.0
C888 C 0.59878 0.72938 0.2443 0.0
C889 C 0.57652 0.74787 0.22408 0.0
C890 C 0.5982 0.70131 0.20708 0.0
C891 C 0.57446 0.69181 0.14992 0.0
C892 C 0.55397 0.71163 0.11865 0.0
C893 C 0.55503 0.73949 0.15752 0.0
C894 C 0.62265 0.68202 0.23196 0.0
C895 C 0.52954 0.70301 0.05136 0.0
C896 C 0.57141 0.61357 0.07495 0.0
C897 C 0.55311 0.60351 0.14927 0.0
C898 C 0.57864 0.64241 0.07308 0.0
C899 C 0.56698 0.6613 0.14678 0.0
C900 C 0.54781 0.65102 0.21995 0.0
C901 C 0.54153 0.62216 0.22118 0.0
C902 C 0.59793 0.65271 0.99103 0.0
C903 C 0.53252 0.67023 0.29481 0.0
H904 H 0.61605 0.73669 0.29211 0.0
H905 H 0.53828 0.75434 0.14016 0.0
H906 H 0.61601 0.65958 0.23617 0.0
H907 H 0.63912 0.68337 0.17229 0.0
H908 H 0.6328 0.68869 0.30392 0.0
H909 H 0.52318 0.72082 1.0037 0.0
H910 H 0.53505 0.68437 1.00232 0.0
H911 H 0.51084 0.69746 0.09808 0.0
H912 H 0.57972 0.5989 0.01788 0.0
H913 H 0.52648 0.61431 0.27588 0.0
H914 H 0.61862 0.65949 0.02353 0.0
H915 H 0.58836 0.67138 0.95539 0.0
H916 H 0.60209 0.63597 0.93234 0.0
H917 H 0.52807 0.65895 0.36496 0.0
H918 H 0.51171 0.67643 0.26321 0.0
H919 H 0.54463 0.6898 0.31327 0.0
C920 C 0.80857 0.59279 0.11701 0.0
C921 C 0.80692 0.60193 0.21807 0.0
C922 C 0.83405 0.59488 0.0632 0.0
C923 C 0.85884 0.60344 0.11505 0.0
C924 C 0.85622 0.61731 0.21046 0.0
C925 C 0.82982 0.61688 0.26042 0.0
C926 C 0.83541 0.58355 0.95632 0.0
C927 C 0.88145 0.63088 0.26279 0.0
C928 C 0.91298 0.54478 0.11054 0.0
C929 C 0.93685 0.5583 0.0727 0.0
C930 C 0.88724 0.55911 0.12127 0.0
C931 C 0.88533 0.58765 0.09094 0.0
C932 C 0.90889 0.60051 0.04347 0.0
C933 C 0.93468 0.58547 0.03472 0.0
C934 C 0.86269 0.54386 0.17004 0.0
C935 C 0.90723 0.63018 1.00527 0.0
H936 H 0.79056 0.58214 0.08203 0.0
H937 H 0.82766 0.62664 0.33438 0.0
H938 H 0.85291 0.59377 0.91415 0.0
H939 H 0.83943 0.56037 0.95536 0.0
H940 H 0.8149 0.58709 0.91749 0.0
H941 H 0.90159 0.61928 0.24689 0.0
H942 H 0.88414 0.65269 0.23532 0.0
H943 H 0.87815 0.63246 0.34529 0.0
H944 H 0.91487 0.52322 0.13597 0.0
H945 H 0.95317 0.59492 1.00001 0.0
H946 H 0.84581 0.5392 0.11421 0.0
H947 H 0.85337 0.55737 0.23098 0.0
H948 H 0.86924 0.52342 0.20187 0.0
H949 H 0.88588 0.63454 0.9739 0.0
H950 H 0.92368 0.63382 0.9468 0.0
H951 H 0.91098 0.64557 0.0684 0.0
C952 C 0.06448 0.2314 0.91955 0.0
C953 C 0.04117 0.24947 0.93714 0.0
C954 C 0.06177 0.20453 0.87043 0.0
C955 C 0.03459 0.19424 0.83863 0.0
C956 C 1.01098 0.21326 0.85172 0.0
C957 C 1.01451 0.24029 0.9012 0.0
C958 C 0.08872 0.18755 0.85658 0.0
C959 C 0.98155 0.2057 0.81474 0.0
C960 C 0.04044 0.1272 0.66223 0.0
C961 C 0.02944 0.10535 0.72074 0.0
C962 C 0.04105 0.15599 0.69704 0.0
C963 C 0.03112 0.1638 0.79514 0.0
C964 C 1.01901 0.14188 0.85319 0.0
C965 C 1.01773 0.11337 0.81472 0.0
C966 C 0.05286 0.17779 0.62781 0.0
C967 C 1.00758 0.14845 0.95708 0.0
H968 H 0.08509 0.238 0.94827 0.0
H969 H 0.9961 0.2537 0.9156 0.0
H970 H 0.08551 0.16654 0.81964 0.0
H971 H 0.10408 0.19964 0.81077 0.0
H972 H 0.09879 0.18481 0.93073 0.0
H973 H 0.9747 0.22153 0.75995 0.0
H974 H 0.98015 0.18427 0.77867 0.0
H975 H 0.9662 0.20704 0.87836 0.0
H976 H 0.04849 0.12182 0.58772 0.0
H977 H 1.00747 0.0973 0.85861 0.0
H978 H 0.07635 0.17884 0.6362 0.0
H979 H 0.04396 0.19921 0.64437 0.0
H980 H 0.0483 0.17172 0.5485 0.0
H981 H 0.02448 0.15864 1.0037 0.0
H982 H 0.99973 0.12921 0.99434 0.0
H983 H 0.9896 0.16358 0.95374 0.0
C984 C 0.31285 0.02215 0.91703 0.0
C985 C 0.30525 0.0472 0.97076 0.0
C986 C 0.34074 1.01808 0.87646 0.0
C987 C 0.36267 0.03853 0.8958 0.0
C988 C 0.35482 0.06382 0.94977 0.0
C989 C 0.32633 0.06832 0.98099 0.0
C990 C 0.34632 0.99128 0.81491 0.0
C991 C 0.37635 0.08602 0.9809 0.0
C992 C 0.43913 1.00766 0.88172 0.0
C993 C 0.45187 0.02226 0.80286 0.0
C994 C 0.41087 1.01346 0.91463 0.0
C995 C 0.39362 0.03311 0.86352 0.0
C996 C 0.40645 0.04789 0.78322 0.0
C997 C 0.43504 0.04208 0.75364 0.0
C998 C 0.39985 0.99885 1.0061 0.0
C999 C 0.39043 0.07055 0.72963 0.0
H1000 H 0.29741 1.00521 0.90876 0.0
H1001 H 0.32095 0.08811 0.01999 0.0
H1002 H 0.36637 0.99208 0.77064 0.0
H1003 H 0.3473 0.97306 0.86541 0.0
H1004 H 0.32837 0.98714 0.76252 0.0
H1005 H 0.37305 0.09252 0.06089 0.0
H1006 H 0.39849 0.07846 0.97146 0.0
H1007 H 0.37326 0.1052 0.93612 0.0
H1008 H 0.45152 0.99181 0.91922 0.0
H1009 H 0.44396 0.05257 0.68968 0.0
H1010 H 0.38678 1.01353 0.05401 0.0
H1011 H 0.41752 0.9906 0.05197 0.0
H1012 H 0.38625 0.98066 0.98233 0.0
H1013 H 0.39981 0.0745 0.65478 0.0
H1014 H 0.39185 0.09075 0.77393 0.0
H1015 H 0.36755 0.06506 0.72116 0.0
C1016 C 0.50585 0.30293 0.89213 0.0
C1017 C 0.51349 0.30201 0.99357 0.0
C1018 C 0.51084 0.32744 0.83509 0.0
C1019 C 0.52181 0.35275 0.88209 0.0
C1020 C 0.5299 0.35149 0.98457 0.0
C1021 C 0.52703 0.32596 0.0363 0.0
C1022 C 0.50383 0.32575 0.72498 0.0
C1023 C 0.54104 0.37713 0.04269 0.0
C1024 C 0.55552 0.42016 0.7754 0.0
C1025 C 0.53173 0.43715 0.75562 0.0
C1026 C 0.55261 0.39207 0.80841 0.0
C1027 C 0.52509 0.38041 0.82653 0.0
C1028 C 0.50096 0.3968 0.79903 0.0
C1029 C 0.50465 0.42463 0.76377 0.0
C1030 C 0.57954 0.37529 0.8234 0.0
C1031 C 0.4709 0.38547 0.80455 0.0
H1032 H 0.49564 0.28454 0.85735 0.0
H1033 H 0.53481 0.32509 0.11212 0.0
H1034 H 0.48037 0.32686 0.71588 0.0
H1035 H 0.51394 0.34293 0.68226 0.0
H1036 H 0.51082 0.30501 0.69166 0.0
H1037 H 0.56466 0.37663 0.04246 0.0
H1038 H 0.53384 0.3974 1.01153 0.0
H1039 H 0.53402 0.37675 0.12211 0.0
H1040 H 0.57674 0.42886 0.76625 0.0
H1041 H 0.48606 0.43661 0.74289 0.0
H1042 H 0.57562 0.35228 0.83133 0.0
H1043 H 0.59072 0.38376 0.89095 0.0
H1044 H 0.59425 0.37806 0.75886 0.0
H1045 H 0.46476 0.37708 0.72916 0.0
H1046 H 0.45563 0.40271 0.82505 0.0
H1047 H 0.46842 0.36828 0.85859 0.0
C1048 C 0.25335 0.54021 1.0098 0.0
C1049 C 0.26639 0.51341 1.00478 0.0
C1050 C 0.22748 0.54551 0.95879 0.0
C1051 C 0.21371 0.52337 0.90202 0.0
C1052 C 0.2279 0.49675 0.89238 0.0
C1053 C 0.25368 0.49217 0.94399 0.0
C1054 C 0.2151 0.57496 0.96823 0.0
C1055 C 0.21622 0.4727 0.82745 0.0
C1056 C 0.13171 0.52356 0.8792 0.0
C1057 C 0.12733 0.52716 0.77627 0.0
C1058 C 0.15938 0.52408 0.92126 0.0
C1059 C 0.18387 0.527 0.85908 0.0
C1060 C 0.17944 0.53175 0.7555 0.0
C1061 C 0.15141 0.53193 0.71578 0.0
C1062 C 0.1623 0.52234 0.03322 0.0
C1063 C 0.20423 0.53666 0.68577 0.0
H1064 H 0.26278 0.55679 0.05684 0.0
H1065 H 0.26371 0.47149 0.93889 0.0
H1066 H 0.19799 0.57875 0.91327 0.0
H1067 H 0.20642 0.57851 0.04513 0.0
H1068 H 0.23217 0.59096 0.95794 0.0
H1069 H 0.22317 0.45178 0.85449 0.0
H1070 H 0.19262 0.47293 0.82376 0.0
H1071 H 0.22468 0.47464 0.7502 0.0
H1072 H 0.11333 0.52095 0.92769 0.0
H1073 H 0.14842 0.53523 0.6365 0.0
H1074 H 0.16993 0.54299 0.06452 0.0
H1075 H 0.17836 0.50618 0.05205 0.0
H1076 H 0.14175 0.51758 0.07055 0.0
H1077 H 0.21276 0.51591 0.65841 0.0
H1078 H 0.22166 0.54847 0.7245 0.0
H1079 H 0.1976 0.54862 0.61939 0.0
C1080 C 0.04087 0.81608 0.39695 0.0
C1081 C 1.01323 0.80513 0.38 0.0
C1082 C 0.04537 0.84276 0.44897 0.0
C1083 C 1.02182 0.85989 0.48193 0.0
C1084 C 0.99421 0.84776 0.47029 0.0
C1085 C 0.99055 0.82053 0.42406 0.0
C1086 C 0.07543 0.85279 0.46732 0.0
C1087 C 0.96806 0.86361 0.50539 0.0
C1088 C 0.02526 0.92022 0.68659 0.0
C1089 C 0.0278 0.94533 0.6328 0.0
C1090 C 0.0248 0.89281 0.63944 0.0
C1091 C 0.02569 0.88948 0.5333 0.0
C1092 C 0.0286 0.91486 0.47794 0.0
C1093 C 0.03036 0.94207 0.52795 0.0
C1094 C 1.02353 0.86739 0.70497 0.0
C1095 C 0.03007 0.91353 0.36536 0.0
H1096 H 0.05897 0.8045 0.36619 0.0
H1097 H 0.96942 0.81136 0.4202 0.0
H1098 H 0.07823 0.85858 0.54792 0.0
H1099 H 0.09143 0.8364 0.44503 0.0
H1100 H 0.07969 0.8721 0.42442 0.0
H1101 H 0.94846 0.85545 0.46812 0.0
H1102 H 0.96543 0.86158 0.58745 0.0
H1103 H 0.97041 0.8863 0.48964 0.0
H1104 H 0.02388 0.92188 0.76712 0.0
H1105 H 0.03366 0.96084 0.48459 0.0
H1106 H 0.03587 0.84929 0.67212 0.0
H1107 H 1.00105 0.86056 0.7131 0.0
H1108 H 0.032 0.87257 0.78093 0.0
H1109 H 0.02796 0.93477 0.33258 0.0
H1110 H 1.01306 0.89954 0.33489 0.0
H1111 H 0.05091 0.90461 0.34125 0.0
C1112 C 0.73927 0.04702 0.52219 0.0
C1113 C 0.7485 0.02587 0.45303 0.0
C1114 C 0.71251 0.04551 0.5712 0.0
C1115 C 0.69361 0.02264 0.54893 0.0
C1116 C 0.70354 1.00045 0.48257 0.0
C1117 C 0.73071 1.00235 0.43583 0.0
C1118 C 0.7042 0.06896 0.64516 0.0
C1119 C 0.68542 0.97508 0.45538 0.0
C1120 C 0.6281 1.01149 0.72125 0.0
C1121 C 0.60694 0.02785 0.67644 0.0
C1122 C 0.656 1.00906 0.68002 0.0
C1123 C 0.66327 0.02319 0.5908 0.0
C1124 C 0.64175 0.0394 0.54467 0.0
C1125 C 0.61438 0.04227 0.58956 0.0
C1126 C 0.67796 0.99191 0.73345 0.0
C1127 C 0.64764 0.05383 0.4474 0.0
H1128 H 0.75276 0.06541 0.53519 0.0
H1129 H 0.73727 0.98618 0.38104 0.0
H1130 H 0.6874 0.08228 0.61246 0.0
H1131 H 0.69533 0.05993 0.7146 0.0
H1132 H 0.72257 0.08282 0.66547 0.0
H1133 H 0.67809 0.97692 0.37699 0.0
H1134 H 0.69833 0.9554 0.4581 0.0
H1135 H 0.66669 0.97289 0.5053 0.0
H1136 H 0.62297 1.00099 0.79022 0.0
H1137 H 0.59877 0.0561 0.55686 0.0
H1138 H 0.69655 1.0055 0.75317 0.0
H1139 H 0.68577 0.97442 0.68299 0.0
H1140 H 0.66935 0.98266 0.80296 0.0
H1141 H 0.6629 0.07152 0.46002 0.0
H1142 H 0.62788 0.06241 0.41448 0.0
H1143 H 0.65753 0.03864 0.3923 0.0
C1144 C 0.58737 0.74528 0.49293 0.0
C1145 C 0.56432 0.75672 0.44126 0.0
C1146 C 0.58488 0.7196 0.54512 0.0
C1147 C 0.55884 0.70391 0.54352 0.0
C1148 C 0.53485 0.71679 0.49761 0.0
C1149 C 0.53803 0.74264 0.4467 0.0
C1150 C 0.61081 0.7092 0.59903 0.0
C1151 C 0.50558 0.70348 0.49896 0.0
C1152 C 0.56864 0.62252 0.55345 0.0
C1153 C 0.55256 0.6147 0.6371 0.0
C1154 C 0.57154 0.65095 0.52466 0.0
C1155 C 0.55759 0.67333 0.57977 0.0
C1156 C 0.54209 0.66577 0.66746 0.0
C1157 C 0.53942 0.63681 0.69381 0.0
C1158 C 0.59023 0.65613 0.43491 0.0
C1159 C 0.5282 0.68797 0.73508 0.0
H1160 H 0.6078 0.75594 0.48938 0.0
H1161 H 0.52007 0.75134 0.40728 0.0
H1162 H 0.60555 0.69318 0.65546 0.0
H1163 H 0.62603 0.6998 0.54344 0.0
H1164 H 0.6219 0.72726 0.63741 0.0
H1165 H 0.50599 0.68036 0.5112 0.0
H1166 H 0.49291 0.7138 0.56031 0.0
H1167 H 0.49417 0.70724 0.42789 0.0
H1168 H 0.57871 0.60626 0.50766 0.0
H1169 H 0.52704 0.6316 0.75957 0.0
H1170 H 0.58621 0.67681 0.40108 0.0
H1171 H 0.58738 0.63903 0.37674 0.0
H1172 H 0.61287 0.65537 0.45821 0.0
H1173 H 0.52976 0.68199 0.81467 0.0
H1174 H 0.50521 0.68919 0.71691 0.0
H1175 H 0.53788 0.70927 0.7272 0.0
C1176 C 0.82194 0.58423 0.46401 0.0
C1177 C 0.80886 0.56432 0.39854 0.0
C1178 C 0.8486 0.57896 0.50946 0.0
C1179 C 0.8626 0.55248 0.49324 0.0
C1180 C 0.8484 0.53146 0.43283 0.0
C1181 C 0.82187 0.53755 0.38658 0.0
C1182 C 0.86262 0.6025 0.5703 0.0
C1183 C 0.86188 0.50281 0.41366 0.0
C1184 C 0.94493 0.55151 0.49906 0.0
C1185 C 0.95156 0.54141 0.59413 0.0
C1186 C 0.91661 0.55528 0.46682 0.0
C1187 C 0.89323 0.54822 0.5293 0.0
C1188 C 0.89958 0.5376 0.62556 0.0
C1189 C 0.92844 0.53428 0.65657 0.0
C1190 C 0.91218 0.56543 0.36242 0.0
C1191 C 0.87583 0.52968 0.69593 0.0
H1192 H 0.81161 0.60455 0.47692 0.0
H1193 H 0.812 0.52183 0.33712 0.0
H1194 H 0.86897 0.59483 0.64466 0.0
H1195 H 0.88231 0.60933 0.5313 0.0
H1196 H 0.84846 0.6212 0.58155 0.0
H1197 H 0.88248 0.5053 0.37361 0.0
H1198 H 0.86656 0.49285 0.48597 0.0
H1199 H 0.84802 0.48834 0.36829 0.0
H1200 H 0.96202 0.55586 0.44733 0.0
H1201 H 0.93286 0.52618 0.72998 0.0
H1202 H 0.89212 0.57751 0.35526 0.0
H1203 H 0.91113 0.54643 0.31203 0.0
H1204 H 0.93022 0.57878 0.33727 0.0
H1205 H 0.8618 0.51361 0.65893 0.0
H1206 H 0.86251 0.54856 0.71442 0.0
H1207 H 0.88396 0.52105 0.76681 0.0
loop_
_geom_bond_atom_site_label_1
_geom_bond_atom_site_label_2
_geom_bond_distance
_geom_bond_site_symmetry_2
_ccdc_geom_bond_type
C0 N1 1.317 . S
C0 N2 1.348 . S
C0 C3 1.485 . S
N1 C0 1.317 . S
N1 N5 1.370 . S
N2 C0 1.348 . S
N2 C4 1.346 . S
C3 C0 1.485 . S
C3 H7 0.960 . S
C3 H8 0.961 . S
C3 H9 0.960 . S
C4 N2 1.346 . S
C4 N5 1.307 . S
C4 C6 1.486 . S
N5 N1 1.370 . S
N5 C4 1.307 . S
C6 C4 1.486 . S
C6 H10 0.960 . S
C6 H11 0.960 . S
C6 H12 0.959 . S
H7 C3 0.960 . S
H8 C3 0.961 . S
H9 C3 0.960 . S
H10 C6 0.960 . S
H11 C6 0.960 . S
H12 C6 0.959 . S
C13 N14 1.317 . S
C13 N15 1.348 . S
C13 C16 1.485 . S
N14 C13 1.317 . S
N14 N18 1.370 . S
N15 C13 1.348 . S
N15 C17 1.346 . S
C16 C13 1.485 . S
C16 H20 0.960 . S
C16 H21 0.961 . S
C16 H22 0.960 . S
C17 N15 1.346 . S
C17 N18 1.307 . S
C17 C19 1.486 . S
N18 N14 1.370 . S
N18 C17 1.307 . S
C19 C17 1.486 . S
C19 H23 0.960 . S
C19 H24 0.960 . S
C19 H25 0.959 . S
H20 C16 0.960 . S
H21 C16 0.961 . S
H22 C16 0.960 . S
H23 C19 0.960 . S
H24 C19 0.960 . S
H25 C19 0.959 . S
C26 N27 1.317 . S
C26 N28 1.348 . S
C26 C29 1.485 . S
N27 C26 1.317 . S
N27 N31 1.370 . S
N28 C26 1.348 . S
N28 C30 1.346 . S
C29 C26 1.485 . S
C29 H33 0.960 . S
C29 H34 0.961 . S
C29 H35 0.960 . S
C30 N28 1.346 . S
C30 N31 1.307 . S
C30 C32 1.486 . S
N31 N27 1.370 . S
N31 C30 1.307 . S
C32 C30 1.486 . S
C32 H36 0.960 . S
C32 H37 0.960 . S
C32 H38 0.959 . S
H33 C29 0.960 . S
H34 C29 0.961 . S
H35 C29 0.960 . S
H36 C32 0.960 . S
H37 C32 0.960 . S
H38 C32 0.959 . S
C39 N40 1.317 . S
C39 N41 1.348 . S
C39 C42 1.485 . S
N40 C39 1.317 . S
N40 N44 1.370 . S
N41 C39 1.348 . S
N41 C43 1.346 . S
C42 C39 1.485 . S
C42 H46 0.960 . S
C42 H47 0.961 . S
C42 H48 0.960 . S
C43 N41 1.346 . S
C43 N44 1.307 . S
C43 C45 1.486 . S
N44 N40 1.370 . S
N44 C43 1.307 . S
C45 C43 1.486 . S
C45 H49 0.960 . S
C45 H50 0.960 . S
C45 H51 0.959 . S
H46 C42 0.960 . S
H47 C42 0.961 . S
H48 C42 0.960 . S
H49 C45 0.960 . S
H50 C45 0.960 . S
H51 C45 0.959 . S
C52 N53 1.317 . S
C52 N54 1.348 1_556 S
C52 C55 1.485 . S
N53 C52 1.317 . S
N53 N57 1.370 1_556 S
N54 C52 1.348 1_554 S
N54 C56 1.346 . S
C55 C52 1.485 . S
C55 H59 0.960 . S
C55 H60 0.961 . S
C55 H61 0.960 . S
C56 N54 1.346 . S
C56 N57 1.307 . S
C56 C58 1.486 . S
N57 N53 1.370 1_554 S
N57 C56 1.307 . S
C58 C56 1.486 . S
C58 H62 0.960 . S
C58 H63 0.960 . S
C58 H64 0.959 . S
H59 C55 0.960 . S
H60 C55 0.961 . S
H61 C55 0.960 . S
H62 C58 0.960 . S
H63 C58 0.960 . S
H64 C58 0.959 . S
C65 N66 1.317 . S
C65 N67 1.348 1_556 S
C65 C68 1.485 . S
N66 C65 1.317 . S
N66 N70 1.370 1_556 S
N67 C65 1.348 1_554 S
N67 C69 1.346 . S
C68 C65 1.485 . S
C68 H72 0.960 . S
C68 H73 0.961 . S
C68 H74 0.960 . S
C69 N67 1.346 . S
C69 N70 1.307 . S
C69 C71 1.486 . S
N70 N66 1.370 1_554 S
N70 C69 1.307 . S
C71 C69 1.486 . S
C71 H75 0.960 . S
C71 H76 0.960 . S
C71 H77 0.959 . S
H72 C68 0.960 . S
H73 C68 0.961 . S
H74 C68 0.960 . S
H75 C71 0.960 . S
H76 C71 0.960 . S
H77 C71 0.959 . S
C78 N79 1.317 . S
C78 N80 1.348 1_556 S
C78 C81 1.485 . S
N79 C78 1.317 . S
N79 N83 1.370 1_556 S
N80 C78 1.348 1_554 S
N80 C82 1.346 . S
C81 C78 1.485 . S
C81 H85 0.960 . S
C81 H86 0.961 . S
C81 H87 0.960 . S
C82 N80 1.346 . S
C82 N83 1.307 . S
C82 C84 1.486 . S
N83 N79 1.370 1_554 S
N83 C82 1.307 . S
C84 C82 1.486 . S
C84 H88 0.960 . S
C84 H89 0.960 . S
C84 H90 0.959 . S
H85 C81 0.960 . S
H86 C81 0.961 . S
H87 C81 0.960 . S
H88 C84 0.960 . S
H89 C84 0.960 . S
H90 C84 0.959 . S
C91 N92 1.317 . S
C91 N93 1.348 1_556 S
C91 C94 1.485 . S
N92 C91 1.317 . S
N92 N96 1.370 1_556 S
N93 C91 1.348 1_554 S
N93 C95 1.346 . S
C94 C91 1.485 . S
C94 H98 0.960 . S
C94 H99 0.961 . S
C94 H100 0.960 . S
C95 N93 1.346 . S
C95 N96 1.307 . S
C95 C97 1.486 . S
N96 N92 1.370 1_554 S
N96 C95 1.307 . S
C97 C95 1.486 . S
C97 H101 0.960 . S
C97 H102 0.960 . S
C97 H103 0.959 . S
H98 C94 0.960 . S
H99 C94 0.961 . S
H100 C94 0.960 . S
H101 C97 0.960 . S
H102 C97 0.960 . S
H103 C97 0.959 . S
Gd104 N135 2.661 1_545 S
Gd104 N141 2.601 . S
Gd104 O148 2.545 . S
Gd104 O149 2.606 1_655 S
Gd104 O151 2.429 . S
Gd104 O152 2.545 1_655 S
Gd104 O153 2.412 . S
Gd104 O155 2.362 1_545 S
Gd104 O156 2.324 1_655 S
Gd104 C163 2.828 . S
Gd105 N114 2.661 1_565 S
Gd105 N118 2.601 1_565 S
Gd105 O149 2.362 1_565 S
Gd105 O150 2.324 1_455 S
Gd105 O154 2.545 . S
Gd105 O155 2.606 1_455 S
Gd105 O157 2.429 . S
Gd105 O158 2.545 . S
Gd105 O159 2.412 . S
Gd105 C172 2.828 . S
C106 C109 1.417 1_554 S
C106 C111 1.431 . S
C106 C112 1.412 . S
C107 C110 1.437 1_554 S
C107 C111 1.317 . S
C107 H126 0.929 . S
C108 C109 1.426 . S
C108 C110 1.413 . S
C108 N118 1.359 . S
C109 C106 1.417 1_556 S
C109 C108 1.426 . S
C109 N114 1.350 . S
C110 C107 1.437 1_556 S
C110 C108 1.413 . S
C110 C120 1.391 . S
C111 C106 1.431 . S
C111 C107 1.317 . S
C111 H122 0.930 . S
C112 C106 1.412 . S
C112 C113 1.355 . S
C112 H124 0.930 . S
C113 C112 1.355 . S
C113 C115 1.402 1_554 S
C113 H125 0.930 1_455 S
N114 Gd105 2.661 1_545 S
N114 C109 1.350 . S
N114 C115 1.307 . S
C115 C113 1.402 1_556 S
C115 N114 1.307 . S
C115 H116 0.930 1_455 S
H116 C115 0.930 1_655 S
C117 N118 1.334 1_565 S
C117 C119 1.394 . S
C117 H121 0.930 . S
N118 Gd105 2.601 1_545 S
N118 C108 1.359 . S
N118 C117 1.334 1_545 S
C119 C117 1.394 . S
C119 C120 1.359 1_565 S
C119 H131 0.930 . S
C120 C110 1.391 . S
C120 C119 1.359 1_545 S
C120 H132 0.929 . S
H121 C117 0.930 . S
H122 C111 0.930 . S
H123 C140 0.930 . S
H124 C112 0.930 . S
H125 C113 0.930 1_655 S
H126 C107 0.929 . S
H127 C145 0.930 . S
H128 C136 0.930 . S
H129 C137 0.930 . S
H130 C161 0.929 . S
H131 C119 0.930 . S
H132 C120 0.929 . S
H133 C162 0.930 . S
H134 C143 0.930 . S
N135 Gd104 2.661 1_565 S
N135 C139 1.350 . S
N135 C140 1.307 1_655 S
C136 H128 0.930 . S
C136 C137 1.355 1_655 S
C136 C138 1.412 . S
C137 H129 0.930 . S
C137 C136 1.355 1_455 S
C137 C140 1.402 . S
C138 C136 1.412 . S
C138 C139 1.417 . S
C138 C162 1.431 . S
C139 N135 1.350 . S
C139 C138 1.417 . S
C139 C142 1.426 1_565 S
C140 H123 0.930 . S
C140 N135 1.307 1_455 S
C140 C137 1.402 . S
N141 Gd104 2.601 . S
N141 C142 1.359 . S
N141 C145 1.334 . S
C142 C139 1.426 1_545 S
C142 N141 1.359 . S
C142 C146 1.413 1_545 S
C143 H134 0.930 . S
C143 C144 1.359 . S
C143 C145 1.394 . S
C144 C143 1.359 . S
C144 C146 1.391 1_545 S
C144 H147 0.929 . S
C145 H127 0.930 . S
C145 N141 1.334 . S
C145 C143 1.394 . S
C146 C142 1.413 1_565 S
C146 C144 1.391 1_565 S
C146 C161 1.437 . S
H147 C144 0.929 . S
O148 Gd104 2.545 . S
O148 C163 1.258 . S
O149 Gd104 2.606 1_455 S
O149 Gd105 2.362 1_545 S
O149 C160 1.284 . S
O150 Gd105 2.324 1_655 S
O150 C170 1.254 1_565 S
O151 Gd104 2.429 . S
O151 C170 1.268 . S
O152 Gd104 2.545 1_455 S
O152 C160 1.250 . S
O153 Gd104 2.412 . S
O153 C163 1.252 . S
O154 Gd105 2.545 . S
O154 C172 1.258 . S
O155 Gd104 2.362 1_565 S
O155 Gd105 2.606 1_655 S
O155 C171 1.284 . S
O156 Gd104 2.324 1_455 S
O156 C179 1.254 . S
O157 Gd105 2.429 . S
O157 C179 1.268 1_565 S
O158 Gd105 2.545 . S
O158 C171 1.250 1_455 S
O159 Gd105 2.412 . S
O159 C172 1.252 . S
C160 O149 1.284 . S
C160 O152 1.250 . S
C161 H130 0.929 . S
C161 C146 1.437 . S
C161 C162 1.317 . S
C162 H133 0.930 . S
C162 C138 1.431 . S
C162 C161 1.317 . S
C163 Gd104 2.828 . S
C163 O148 1.258 . S
C163 O153 1.252 . S
C163 C164 1.497 . S
C164 C163 1.497 . S
C164 C165 1.395 . S
C164 C166 1.380 . S
C165 C164 1.395 . S
C165 C168 1.398 . S
C165 H180 0.930 . S
C166 C164 1.380 . S
C166 C167 1.391 . S
C166 H181 0.930 1_655 S
C167 C166 1.391 . S
C167 C169 1.387 . S
C168 C165 1.398 . S
C168 C169 1.380 . S
C168 H182 0.930 . S
C169 C167 1.387 . S
C169 C168 1.380 . S
C169 H183 0.930 . S
C170 O150 1.254 1_545 S
C170 O151 1.268 . S
C171 O155 1.284 . S
C171 O158 1.250 1_655 S
C172 Gd105 2.828 . S
C172 O154 1.258 . S
C172 O159 1.252 . S
C172 C173 1.497 . S
C173 C172 1.497 . S
C173 C174 1.395 . S
C173 C175 1.380 . S
C174 C173 1.395 . S
C174 C177 1.398 1_556 S
C174 H184 0.930 . S
C175 C173 1.380 . S
C175 C176 1.391 1_556 S
C175 H185 0.930 . S
C176 C175 1.391 1_554 S
C176 C178 1.387 . S
C177 C174 1.398 1_554 S
C177 C178 1.380 . S
C177 H186 0.930 . S
C178 C176 1.387 . S
C178 C177 1.380 . S
C178 H187 0.930 . S
C179 O156 1.254 . S
C179 O157 1.268 1_545 S
H180 C165 0.930 . S
H181 C166 0.930 1_455 S
H182 C168 0.930 . S
H183 C169 0.930 . S
H184 C174 0.930 . S
H185 C175 0.930 . S
H186 C177 0.930 . S
H187 C178 0.930 . S
Gd188 N219 2.661 . S
Gd188 N225 2.601 . S
Gd188 O232 2.545 . S
Gd188 O233 2.606 1_565 S
Gd188 O235 2.429 . S
Gd188 O236 2.545 1_565 S
Gd188 O237 2.412 . S
Gd188 O239 2.362 . S
Gd188 O240 2.324 1_565 S
Gd188 C247 2.828 . S
Gd189 N198 2.661 . S
Gd189 N202 2.601 . S
Gd189 O233 2.362 . S
Gd189 O234 2.324 1_545 S
Gd189 O238 2.545 . S
Gd189 O239 2.606 1_545 S
Gd189 O241 2.429 . S
Gd189 O242 2.545 . S
Gd189 O243 2.412 . S
Gd189 C256 2.828 . S
C190 C193 1.417 1_554 S
C190 C195 1.431 . S
C190 C196 1.412 . S
C191 C194 1.437 1_554 S
C191 C195 1.317 . S
C191 H210 0.929 . S
C192 C193 1.426 . S
C192 C194 1.413 . S
C192 N202 1.359 . S
C193 C190 1.417 1_556 S
C193 C192 1.426 . S
C193 N198 1.350 . S
C194 C191 1.437 1_556 S
C194 C192 1.413 . S
C194 C204 1.391 . S
C195 C190 1.431 . S
C195 C191 1.317 . S
C195 H206 0.930 . S
C196 C190 1.412 . S
C196 C197 1.355 . S
C196 H208 0.930 . S
C197 C196 1.355 . S
C197 C199 1.402 1_554 S
C197 H209 0.930 1_545 S
N198 Gd189 2.661 . S
N198 C193 1.350 . S
N198 C199 1.307 . S
C199 C197 1.402 1_556 S
C199 N198 1.307 . S
C199 H200 0.930 1_545 S
H200 C199 0.930 1_565 S
C201 N202 1.334 . S
C201 C203 1.394 . S
C201 H205 0.930 . S
N202 Gd189 2.601 . S
N202 C192 1.359 . S
N202 C201 1.334 . S
C203 C201 1.394 . S
C203 C204 1.359 . S
C203 H215 0.930 . S
C204 C194 1.391 . S
C204 C203 1.359 . S
C204 H216 0.929 . S
H205 C201 0.930 . S
H206 C195 0.930 . S
H207 C224 0.930 . S
H208 C196 0.930 . S
H209 C197 0.930 1_565 S
H210 C191 0.929 . S
H211 C229 0.930 . S
H212 C220 0.930 . S
H213 C221 0.930 . S
H214 C245 0.929 . S
H215 C203 0.930 . S
H216 C204 0.929 . S
H217 C246 0.930 . S
H218 C227 0.930 . S
N219 Gd188 2.661 . S
N219 C223 1.350 . S
N219 C224 1.307 1_565 S
C220 H212 0.930 . S
C220 C221 1.355 1_565 S
C220 C222 1.412 . S
C221 H213 0.930 . S
C221 C220 1.355 1_545 S
C221 C224 1.402 . S
C222 C220 1.412 . S
C222 C223 1.417 . S
C222 C246 1.431 . S
C223 N219 1.350 . S
C223 C222 1.417 . S
C223 C226 1.426 . S
C224 H207 0.930 . S
C224 N219 1.307 1_545 S
C224 C221 1.402 . S
N225 Gd188 2.601 . S
N225 C226 1.359 . S
N225 C229 1.334 . S
C226 C223 1.426 . S
C226 N225 1.359 . S
C226 C230 1.413 . S
C227 H218 0.930 . S
C227 C228 1.359 . S
C227 C229 1.394 . S
C228 C227 1.359 . S
C228 C230 1.391 . S
C228 H231 0.929 . S
C229 H211 0.930 . S
C229 N225 1.334 . S
C229 C227 1.394 . S
C230 C226 1.413 . S
C230 C228 1.391 . S
C230 C245 1.437 . S
H231 C228 0.929 . S
O232 Gd188 2.545 . S
O232 C247 1.258 . S
O233 Gd188 2.606 1_545 S
O233 Gd189 2.362 . S
O233 C244 1.284 . S
O234 Gd189 2.324 1_565 S
O234 C254 1.254 . S
O235 Gd188 2.429 . S
O235 C254 1.268 . S
O236 Gd188 2.545 1_545 S
O236 C244 1.250 . S
O237 Gd188 2.412 . S
O237 C247 1.252 . S
O238 Gd189 2.545 . S
O238 C256 1.258 . S
O239 Gd188 2.362 . S
O239 Gd189 2.606 1_565 S
O239 C255 1.286 . S
O240 Gd188 2.324 1_545 S
O240 C263 1.254 . S
O241 Gd189 2.429 . S
O241 C263 1.268 . S
O242 Gd189 2.545 . S
O242 C255 1.234 1_545 S
O243 Gd189 2.412 . S
O243 C256 1.252 . S
C244 O233 1.284 . S
C244 O236 1.250 . S
C245 H214 0.929 . S
C245 C230 1.437 . S
C245 C246 1.317 . S
C246 H217 0.930 . S
C246 C222 1.431 . S
C246 C245 1.317 . S
C247 Gd188 2.828 . S
C247 O232 1.258 . S
C247 O237 1.252 . S
C247 C248 1.497 . S
C248 C247 1.497 . S
C248 C249 1.395 . S
C248 C250 1.380 . S
C249 C248 1.395 . S
C249 C252 1.398 . S
C249 H264 0.930 . S
C250 C248 1.380 . S
C250 C251 1.391 . S
C250 H265 0.930 1_565 S
C251 C250 1.391 . S
C251 C253 1.387 . S
C252 C249 1.398 . S
C252 C253 1.380 . S
C252 H266 0.930 . S
C253 C251 1.387 . S
C253 C252 1.380 . S
C253 H267 0.930 . S
C254 O234 1.254 . S
C254 O235 1.268 . S
C255 O239 1.286 . S
C255 O242 1.234 1_565 S
C256 Gd189 2.828 . S
C256 O238 1.258 . S
C256 O243 1.252 . S
C256 C257 1.497 . S
C257 C256 1.497 . S
C257 C258 1.395 . S
C257 C259 1.380 . S
C258 C257 1.395 . S
C258 C261 1.398 1_556 S
C258 H268 0.930 . S
C259 C257 1.380 . S
C259 C260 1.391 1_556 S
C259 H269 0.930 . S
C260 C259 1.391 1_554 S
C260 C262 1.387 . S
C261 C258 1.398 1_554 S
C261 C262 1.380 . S
C261 H270 0.930 . S
C262 C260 1.387 . S
C262 C261 1.380 . S
C262 H271 0.930 . S
C263 O240 1.254 . S
C263 O241 1.268 . S
H264 C249 0.930 . S
H265 C250 0.930 1_545 S
H266 C252 0.930 . S
H267 C253 0.930 . S
H268 C258 0.930 . S
H269 C259 0.930 . S
H270 C261 0.930 . S
H271 C262 0.930 . S
Gd272 N303 2.661 . S
Gd272 N309 2.601 . S
Gd272 O316 2.545 . S
Gd272 O317 2.606 . S
Gd272 O319 2.429 . S
Gd272 O320 2.545 . S
Gd272 O321 2.412 . S
Gd272 O323 2.362 . S
Gd272 O324 2.324 . S
Gd272 C331 2.828 . S
Gd273 N282 2.661 . S
Gd273 N286 2.601 . S
Gd273 O317 2.362 . S
Gd273 O318 2.324 . S
Gd273 O322 2.545 . S
Gd273 O323 2.606 . S
Gd273 O325 2.429 . S
Gd273 O326 2.545 . S
Gd273 O327 2.412 . S
Gd273 C340 2.828 . S
C274 C277 1.417 . S
C274 C279 1.431 . S
C274 C280 1.412 . S
C275 C278 1.437 . S
C275 C279 1.317 . S
C275 H294 0.929 . S
C276 C277 1.426 . S
C276 C278 1.413 . S
C276 N286 1.359 . S
C277 C274 1.417 . S
C277 C276 1.426 . S
C277 N282 1.350 . S
C278 C275 1.437 . S
C278 C276 1.413 . S
C278 C288 1.391 . S
C279 C274 1.431 . S
C279 C275 1.317 . S
C279 H290 0.930 . S
C280 C274 1.412 . S
C280 C281 1.355 . S
C280 H292 0.930 . S
C281 C280 1.355 . S
C281 C283 1.402 . S
C281 H293 0.930 . S
N282 Gd273 2.661 . S
N282 C277 1.350 . S
N282 C283 1.307 . S
C283 C281 1.402 . S
C283 N282 1.307 . S
C283 H284 0.930 . S
H284 C283 0.930 . S
C285 N286 1.334 . S
C285 C287 1.394 . S
C285 H289 0.930 . S
N286 Gd273 2.601 . S
N286 C276 1.359 . S
N286 C285 1.334 . S
C287 C285 1.394 . S
C287 C288 1.359 . S
C287 H299 0.930 . S
C288 C278 1.391 . S
C288 C287 1.359 . S
C288 H300 0.929 . S
H289 C285 0.930 . S
H290 C279 0.930 . S
H291 C308 0.930 . S
H292 C280 0.930 . S
H293 C281 0.930 . S
H294 C275 0.929 . S
H295 C313 0.930 . S
H296 C304 0.930 . S
H297 C305 0.930 . S
H298 C329 0.929 . S
H299 C287 0.930 . S
H300 C288 0.929 . S
H301 C330 0.930 . S
H302 C311 0.930 1_554 S
N303 Gd272 2.661 . S
N303 C307 1.350 . S
N303 C308 1.307 . S
C304 H296 0.930 . S
C304 C305 1.355 . S
C304 C306 1.412 . S
C305 H297 0.930 . S
C305 C304 1.355 . S
C305 C308 1.402 . S
C306 C304 1.412 . S
C306 C307 1.417 . S
C306 C330 1.431 . S
C307 N303 1.350 . S
C307 C306 1.417 . S
C307 C310 1.426 . S
C308 H291 0.930 . S
C308 N303 1.307 . S
C308 C305 1.402 . S
N309 Gd272 2.601 . S
N309 C310 1.359 . S
N309 C313 1.334 . S
C310 C307 1.426 . S
C310 N309 1.359 . S
C310 C314 1.413 . S
C311 H302 0.930 1_556 S
C311 C312 1.359 . S
C311 C313 1.394 . S
C312 C311 1.359 . S
C312 C314 1.391 . S
C312 H315 0.929 . S
C313 H295 0.930 . S
C313 N309 1.334 . S
C313 C311 1.394 . S
C314 C310 1.413 . S
C314 C312 1.391 . S
C314 C329 1.437 . S
H315 C312 0.929 . S
O316 Gd272 2.545 . S
O316 C331 1.258 . S
O317 Gd272 2.606 . S
O317 Gd273 2.362 . S
O317 C328 1.284 . S
O318 Gd273 2.324 . S
O318 C338 1.254 . S
O319 Gd272 2.429 . S
O319 C338 1.268 . S
O320 Gd272 2.545 . S
O320 C328 1.250 . S
O321 Gd272 2.412 . S
O321 C331 1.252 . S
O322 Gd273 2.545 . S
O322 C340 1.258 . S
O323 Gd272 2.362 . S
O323 Gd273 2.606 . S
O323 C339 1.284 . S
O324 Gd272 2.324 . S
O324 C347 1.254 . S
O325 Gd273 2.429 . S
O325 C347 1.268 . S
O326 Gd273 2.545 . S
O326 C339 1.250 . S
O327 Gd273 2.412 . S
O327 C340 1.252 . S
C328 O317 1.284 . S
C328 O320 1.250 . S
C329 H298 0.929 . S
C329 C314 1.437 . S
C329 C330 1.317 . S
C330 H301 0.930 . S
C330 C306 1.431 . S
C330 C329 1.317 . S
C331 Gd272 2.828 . S
C331 O316 1.258 . S
C331 O321 1.252 . S
C331 C332 1.497 1_556 S
C332 C331 1.497 1_554 S
C332 C333 1.395 . S
C332 C334 1.380 . S
C333 C332 1.395 . S
C333 C336 1.398 . S
C333 H348 0.930 . S
C334 C332 1.380 . S
C334 C335 1.391 . S
C334 H349 0.930 1_554 S
C335 C334 1.391 . S
C335 C337 1.387 . S
C336 C333 1.398 . S
C336 C337 1.380 . S
C336 H350 0.930 . S
C337 C335 1.387 . S
C337 C336 1.380 . S
C337 H351 0.930 . S
C338 O318 1.254 . S
C338 O319 1.268 . S
C339 O323 1.284 . S
C339 O326 1.250 . S
C340 Gd273 2.828 . S
C340 O322 1.258 . S
C340 O327 1.252 . S
C340 C341 1.497 . S
C341 C340 1.497 . S
C341 C342 1.395 . S
C341 C343 1.380 . S
C342 C341 1.395 . S
C342 C345 1.398 . S
C342 H352 0.930 . S
C343 C341 1.380 . S
C343 C344 1.391 . S
C343 H353 0.930 . S
C344 C343 1.391 . S
C344 C346 1.387 . S
C345 C342 1.398 . S
C345 C346 1.380 . S
C345 H354 0.930 . S
C346 C344 1.387 . S
C346 C345 1.380 . S
C346 H355 0.930 . S
C347 O324 1.254 . S
C347 O325 1.268 . S
H348 C333 0.930 . S
H349 C334 0.930 1_556 S
H350 C336 0.930 . S
H351 C337 0.930 . S
H352 C342 0.930 . S
H353 C343 0.930 . S
H354 C345 0.930 . S
H355 C346 0.930 . S
Gd356 N387 2.661 . S
Gd356 N393 2.601 . S
Gd356 O400 2.545 . S
Gd356 O401 2.606 1_655 S
Gd356 O403 2.429 1_655 S
Gd356 O404 2.545 . S
Gd356 O405 2.412 . S
Gd356 O407 2.362 1_655 S
Gd356 O408 2.324 . S
Gd356 C415 2.828 . S
Gd357 N366 2.661 . S
Gd357 N370 2.601 . S
Gd357 O401 2.362 . S
Gd357 O402 2.324 . S
Gd357 O406 2.545 . S
Gd357 O407 2.606 . S
Gd357 O409 2.429 1_455 S
Gd357 O410 2.545 . S
Gd357 O411 2.412 . S
Gd357 C424 2.828 . S
C358 C361 1.417 . S
C358 C363 1.431 . S
C358 C364 1.412 . S
C359 C362 1.437 . S
C359 C363 1.317 . S
C359 H378 0.929 . S
C360 C361 1.426 . S
C360 C362 1.413 . S
C360 N370 1.359 . S
C361 C358 1.417 . S
C361 C360 1.426 . S
C361 N366 1.350 . S
C362 C359 1.437 . S
C362 C360 1.413 . S
C362 C372 1.391 . S
C363 C358 1.431 . S
C363 C359 1.317 . S
C363 H374 0.930 . S
C364 C358 1.412 . S
C364 C365 1.355 . S
C364 H376 0.930 . S
C365 C364 1.355 . S
C365 C367 1.402 . S
C365 H377 0.930 . S
N366 Gd357 2.661 . S
N366 C361 1.350 . S
N366 C367 1.307 . S
C367 C365 1.402 . S
C367 N366 1.307 . S
C367 H368 0.930 . S
H368 C367 0.930 . S
C369 N370 1.334 1_655 S
C369 C371 1.394 . S
C369 H373 0.930 . S
N370 Gd357 2.601 . S
N370 C360 1.359 . S
N370 C369 1.334 1_455 S
C371 C369 1.394 . S
C371 C372 1.359 1_655 S
C371 H383 0.930 . S
C372 C362 1.391 . S
C372 C371 1.359 1_455 S
C372 H384 0.929 . S
H373 C369 0.930 . S
H374 C363 0.930 . S
H375 C392 0.930 . S
H376 C364 0.930 . S
H377 C365 0.930 . S
H378 C359 0.929 . S
H379 C397 0.930 . S
H380 C388 0.930 . S
H381 C389 0.930 . S
H382 C413 0.929 . S
H383 C371 0.930 . S
H384 C372 0.929 . S
H385 C414 0.930 . S
H386 C395 0.930 1_554 S
N387 Gd356 2.661 . S
N387 C391 1.350 . S
N387 C392 1.307 . S
C388 H380 0.930 . S
C388 C389 1.355 . S
C388 C390 1.412 . S
C389 H381 0.930 . S
C389 C388 1.355 . S
C389 C392 1.402 . S
C390 C388 1.412 . S
C390 C391 1.417 . S
C390 C414 1.431 . S
C391 N387 1.350 . S
C391 C390 1.417 . S
C391 C394 1.426 . S
C392 H375 0.930 . S
C392 N387 1.307 . S
C392 C389 1.402 . S
N393 Gd356 2.601 . S
N393 C394 1.359 . S
N393 C397 1.334 1_655 S
C394 C391 1.426 . S
C394 N393 1.359 . S
C394 C398 1.413 . S
C395 H386 0.930 1_556 S
C395 C396 1.359 . S
C395 C397 1.394 . S
C396 C395 1.359 . S
C396 C398 1.391 1_455 S
C396 H399 0.929 . S
C397 H379 0.930 . S
C397 N393 1.334 1_455 S
C397 C395 1.394 . S
C398 C394 1.413 . S
C398 C396 1.391 1_655 S
C398 C413 1.437 . S
H399 C396 0.929 . S
O400 Gd356 2.545 . S
O400 C415 1.258 . S
O401 Gd356 2.606 1_455 S
O401 Gd357 2.362 . S
O401 C412 1.284 1_455 S
O402 Gd357 2.324 . S
O402 C422 1.254 . S
O403 Gd356 2.429 1_455 S
O403 C422 1.268 . S
O404 Gd356 2.545 . S
O404 C412 1.250 . S
O405 Gd356 2.412 . S
O405 C415 1.252 . S
O406 Gd357 2.545 . S
O406 C424 1.258 . S
O407 Gd356 2.362 1_455 S
O407 Gd357 2.606 . S
O407 C423 1.284 . S
O408 Gd356 2.324 . S
O408 C431 1.254 . S
O409 Gd357 2.429 1_655 S
O409 C431 1.268 . S
O410 Gd357 2.545 . S
O410 C423 1.250 . S
O411 Gd357 2.412 . S
O411 C424 1.252 . S
C412 O401 1.284 1_655 S
C412 O404 1.250 . S
C413 H382 0.929 . S
C413 C398 1.437 . S
C413 C414 1.317 . S
C414 H385 0.930 . S
C414 C390 1.431 . S
C414 C413 1.317 . S
C415 Gd356 2.828 . S
C415 O400 1.258 . S
C415 O405 1.252 . S
C415 C416 1.497 1_556 S
C416 C415 1.497 1_554 S
C416 C417 1.395 . S
C416 C418 1.380 . S
C417 C416 1.395 . S
C417 C420 1.398 . S
C417 H432 0.930 . S
C418 C416 1.380 . S
C418 C419 1.391 . S
C418 H433 0.930 1_554 S
C419 C418 1.391 . S
C419 C421 1.387 . S
C420 C417 1.398 . S
C420 C421 1.380 . S
C420 H434 0.930 . S
C421 C419 1.387 . S
C421 C420 1.380 . S
C421 H435 0.930 . S
C422 O402 1.254 . S
C422 O403 1.268 . S
C423 O407 1.284 . S
C423 O410 1.250 . S
C424 Gd357 2.828 . S
C424 O406 1.258 . S
C424 O411 1.252 . S
C424 C425 1.497 . S
C425 C424 1.497 . S
C425 C426 1.395 . S
C425 C427 1.380 . S
C426 C425 1.395 . S
C426 C429 1.398 . S
C426 H436 0.930 . S
C427 C425 1.380 . S
C427 C428 1.391 . S
C427 H437 0.930 . S
C428 C427 1.391 . S
C428 C430 1.387 . S
C429 C426 1.398 . S
C429 C430 1.380 . S
C429 H438 0.930 . S
C430 C428 1.387 . S
C430 C429 1.380 . S
C430 H439 0.930 . S
C431 O408 1.254 . S
C431 O409 1.268 . S
H432 C417 0.930 . S
H433 C418 0.930 1_556 S
H434 C420 0.930 . S
H435 C421 0.930 . S
H436 C426 0.930 . S
H437 C427 0.930 . S
H438 C429 0.930 . S
H439 C430 0.930 . S
C440 C441 1.391 . S
C440 C442 1.394 . S
C440 H456 0.931 . S
C441 C440 1.391 . S
C441 C445 1.376 . S
C442 C440 1.394 . S
C442 C443 1.369 . S
C442 C446 1.531 . S
C443 C442 1.369 . S
C443 C444 1.410 . S
C443 C451 1.503 . S
C444 C443 1.410 . S
C444 C445 1.392 . S
C444 C447 1.511 . S
C445 C441 1.376 . S
C445 C444 1.392 . S
C445 H457 0.929 . S
C446 C442 1.531 . S
C446 H458 0.960 . S
C446 H459 0.962 . S
C446 H460 0.960 . S
C447 C444 1.511 . S
C447 H461 0.961 . S
C447 H462 0.961 . S
C447 H463 0.961 . S
C448 C449 1.370 . S
C448 C450 1.363 . S
C448 H464 0.931 . S
C449 C448 1.370 . S
C449 C453 1.408 . S
C450 C448 1.363 . S
C450 C451 1.370 . S
C450 C454 1.524 . S
C451 C443 1.503 . S
C451 C450 1.370 . S
C451 C452 1.403 . S
C452 C451 1.403 . S
C452 C453 1.404 . S
C452 C455 1.539 1_545 S
C453 C449 1.408 . S
C453 C452 1.404 . S
C453 H465 0.930 1_545 S
C454 C450 1.524 . S
C454 H466 0.956 . S
C454 H467 0.961 . S
C454 H468 0.961 . S
C455 C452 1.539 1_565 S
C455 H469 0.958 . S
C455 H470 0.961 . S
C455 H471 0.960 . S
H456 C440 0.931 . S
H457 C445 0.929 . S
H458 C446 0.960 . S
H459 C446 0.962 . S
H460 C446 0.960 . S
H461 C447 0.961 . S
H462 C447 0.961 . S
H463 C447 0.961 . S
H464 C448 0.931 . S
H465 C453 0.930 1_565 S
H466 C454 0.956 . S
H467 C454 0.961 . S
H468 C454 0.961 . S
H469 C455 0.958 . S
H470 C455 0.961 . S
H471 C455 0.960 . S
C472 C473 1.391 . S
C472 C474 1.394 . S
C472 H488 0.931 . S
C473 C472 1.391 . S
C473 C477 1.376 . S
C474 C472 1.394 . S
C474 C475 1.369 . S
C474 C478 1.531 . S
C475 C474 1.369 . S
C475 C476 1.410 . S
C475 C483 1.503 . S
C476 C475 1.410 . S
C476 C477 1.392 . S
C476 C479 1.511 . S
C477 C473 1.376 . S
C477 C476 1.392 . S
C477 H489 0.929 . S
C478 C474 1.531 . S
C478 H490 0.960 . S
C478 H491 0.962 . S
C478 H492 0.960 . S
C479 C476 1.511 . S
C479 H493 0.961 . S
C479 H494 0.961 . S
C479 H495 0.961 . S
C480 C481 1.370 . S
C480 C482 1.363 . S
C480 H496 0.931 . S
C481 C480 1.370 . S
C481 C485 1.408 . S
C482 C480 1.363 . S
C482 C483 1.370 . S
C482 C486 1.524 . S
C483 C475 1.503 . S
C483 C482 1.370 . S
C483 C484 1.403 . S
C484 C483 1.403 . S
C484 C485 1.404 . S
C484 C487 1.539 . S
C485 C481 1.408 . S
C485 C484 1.404 . S
C485 H497 0.930 . S
C486 C482 1.524 . S
C486 H498 0.956 . S
C486 H499 0.961 . S
C486 H500 0.961 . S
C487 C484 1.539 . S
C487 H501 0.958 . S
C487 H502 0.961 . S
C487 H503 0.960 . S
H488 C472 0.931 . S
H489 C477 0.929 . S
H490 C478 0.960 . S
H491 C478 0.962 . S
H492 C478 0.960 . S
H493 C479 0.961 . S
H494 C479 0.961 . S
H495 C479 0.961 . S
H496 C480 0.931 . S
H497 C485 0.930 . S
H498 C486 0.956 . S
H499 C486 0.961 . S
H500 C486 0.961 . S
H501 C487 0.958 . S
H502 C487 0.961 . S
H503 C487 0.960 . S
C504 C505 1.391 . S
C504 C506 1.394 . S
C504 H520 0.931 . S
C505 C504 1.391 . S
C505 C509 1.376 . S
C506 C504 1.394 . S
C506 C507 1.369 . S
C506 C510 1.531 . S
C507 C506 1.369 . S
C507 C508 1.410 . S
C507 C515 1.503 . S
C508 C507 1.410 . S
C508 C509 1.392 . S
C508 C511 1.511 . S
C509 C505 1.376 . S
C509 C508 1.392 . S
C509 H521 0.929 . S
C510 C506 1.531 . S
C510 H522 0.960 . S
C510 H523 0.962 . S
C510 H524 0.960 . S
C511 C508 1.511 . S
C511 H525 0.961 . S
C511 H526 0.961 . S
C511 H527 0.961 . S
C512 C513 1.370 . S
C512 C514 1.363 . S
C512 H528 0.931 . S
C513 C512 1.370 . S
C513 C517 1.408 . S
C514 C512 1.363 . S
C514 C515 1.370 . S
C514 C518 1.524 . S
C515 C507 1.503 . S
C515 C514 1.370 . S
C515 C516 1.403 . S
C516 C515 1.403 . S
C516 C517 1.404 . S
C516 C519 1.539 . S
C517 C513 1.408 . S
C517 C516 1.404 . S
C517 H529 0.930 . S
C518 C514 1.524 . S
C518 H530 0.956 . S
C518 H531 0.961 . S
C518 H532 0.961 . S
C519 C516 1.539 . S
C519 H533 0.958 . S
C519 H534 0.961 . S
C519 H535 0.960 . S
H520 C504 0.931 . S
H521 C509 0.929 . S
H522 C510 0.960 . S
H523 C510 0.962 . S
H524 C510 0.960 . S
H525 C511 0.961 . S
H526 C511 0.961 . S
H527 C511 0.961 . S
H528 C512 0.931 . S
H529 C517 0.930 . S
H530 C518 0.956 . S
H531 C518 0.961 . S
H532 C518 0.961 . S
H533 C519 0.958 . S
H534 C519 0.961 . S
H535 C519 0.960 . S
C536 C537 1.391 . S
C536 C538 1.394 . S
C536 H552 0.931 . S
C537 C536 1.391 . S
C537 C541 1.376 . S
C538 C536 1.394 . S
C538 C539 1.369 . S
C538 C542 1.531 . S
C539 C538 1.369 . S
C539 C540 1.410 . S
C539 C547 1.503 . S
C540 C539 1.410 . S
C540 C541 1.392 . S
C540 C543 1.511 . S
C541 C537 1.376 . S
C541 C540 1.392 . S
C541 H553 0.929 . S
C542 C538 1.531 . S
C542 H554 0.960 . S
C542 H555 0.962 1_455 S
C542 H556 0.960 . S
C543 C540 1.511 . S
C543 H557 0.961 . S
C543 H558 0.961 . S
C543 H559 0.961 . S
C544 C545 1.370 . S
C544 C546 1.363 . S
C544 H560 0.931 1_455 S
C545 C544 1.370 . S
C545 C549 1.408 . S
C546 C544 1.363 . S
C546 C547 1.370 . S
C546 C550 1.524 . S
C547 C539 1.503 . S
C547 C546 1.370 . S
C547 C548 1.403 . S
C548 C547 1.403 . S
C548 C549 1.404 . S
C548 C551 1.539 . S
C549 C545 1.408 . S
C549 C548 1.404 . S
C549 H561 0.930 . S
C550 C546 1.524 . S
C550 H562 0.956 1_455 S
C550 H563 0.961 . S
C550 H564 0.961 1_455 S
C551 C548 1.539 . S
C551 H565 0.958 . S
C551 H566 0.961 . S
C551 H567 0.960 . S
H552 C536 0.931 . S
H553 C541 0.929 . S
H554 C542 0.960 . S
H555 C542 0.962 1_655 S
H556 C542 0.960 . S
H557 C543 0.961 . S
H558 C543 0.961 . S
H559 C543 0.961 . S
H560 C544 0.931 1_655 S
H561 C549 0.930 . S
H562 C550 0.956 1_655 S
H563 C550 0.961 . S
H564 C550 0.961 1_655 S
H565 C551 0.958 . S
H566 C551 0.961 . S
H567 C551 0.960 . S
C568 C569 1.391 . S
C568 C570 1.394 . S
C568 H584 0.931 1_565 S
C569 C568 1.391 . S
C569 C573 1.376 . S
C570 C568 1.394 . S
C570 C571 1.369 . S
C570 C574 1.531 1_565 S
C571 C570 1.369 . S
C571 C572 1.410 . S
C571 C579 1.503 . S
C572 C571 1.410 . S
C572 C573 1.392 . S
C572 C575 1.511 . S
C573 C569 1.376 . S
C573 C572 1.392 . S
C573 H585 0.929 . S
C574 C570 1.531 1_545 S
C574 H586 0.960 . S
C574 H587 0.962 . S
C574 H588 0.960 . S
C575 C572 1.511 . S
C575 H589 0.961 . S
C575 H590 0.961 1_554 S
C575 H591 0.961 . S
C576 C577 1.370 . S
C576 C578 1.363 . S
C576 H592 0.931 1_565 S
C577 C576 1.370 . S
C577 C581 1.408 . S
C578 C576 1.363 . S
C578 C579 1.370 1_556 S
C578 C582 1.524 . S
C579 C571 1.503 . S
C579 C578 1.370 1_554 S
C579 C580 1.403 . S
C580 C579 1.403 . S
C580 C581 1.404 1_554 S
C580 C583 1.539 . S
C581 C577 1.408 . S
C581 C580 1.404 1_556 S
C581 H593 0.930 . S
C582 C578 1.524 . S
C582 H594 0.956 1_565 S
C582 H595 0.961 . S
C582 H596 0.964 . S
C583 C580 1.539 . S
C583 H597 0.958 . S
C583 H598 0.961 . S
C583 H599 0.960 . S
H584 C568 0.931 1_545 S
H585 C573 0.929 . S
H586 C574 0.960 . S
H587 C574 0.962 . S
H588 C574 0.960 . S
H589 C575 0.961 . S
H590 C575 0.961 1_556 S
H591 C575 0.961 . S
H592 C576 0.931 1_545 S
H593 C581 0.930 . S
H594 C582 0.956 1_545 S
H595 C582 0.961 . S
H596 C582 0.964 . S
H597 C583 0.958 . S
H598 C583 0.961 . S
H599 C583 0.960 . S
C600 C601 1.391 . S
C600 C602 1.394 . S
C600 H616 0.931 . S
C601 C600 1.391 . S
C601 C605 1.376 . S
C602 C600 1.394 . S
C602 C603 1.369 . S
C602 C606 1.531 . S
C603 C602 1.369 . S
C603 C604 1.410 . S
C603 C611 1.503 . S
C604 C603 1.410 . S
C604 C605 1.392 . S
C604 C607 1.511 1_554 S
C605 C601 1.376 . S
C605 C604 1.392 . S
C605 H617 0.929 . S
C606 C602 1.531 . S
C606 H618 0.960 . S
C606 H619 0.962 . S
C606 H620 0.960 . S
C607 C604 1.511 1_556 S
C607 H621 0.961 . S
C607 H622 0.961 . S
C607 H623 0.961 . S
C608 C609 1.370 . S
C608 C610 1.363 . S
C608 H624 0.931 . S
C609 C608 1.370 . S
C609 C613 1.408 . S
C610 C608 1.363 . S
C610 C611 1.370 1_556 S
C610 C614 1.524 1_556 S
C611 C603 1.503 . S
C611 C610 1.370 1_554 S
C611 C612 1.403 1_554 S
C612 C611 1.403 1_556 S
C612 C613 1.404 . S
C612 C615 1.539 1_556 S
C613 C609 1.408 . S
C613 C612 1.404 . S
C613 H625 0.930 . S
C614 C610 1.524 1_554 S
C614 H626 0.956 . S
C614 H627 0.961 . S
C614 H628 0.961 1_554 S
C615 C612 1.539 1_554 S
C615 H629 0.958 . S
C615 H630 0.961 1_554 S
C615 H631 0.960 . S
H616 C600 0.931 . S
H617 C605 0.929 . S
H618 C606 0.960 . S
H619 C606 0.962 . S
H620 C606 0.960 . S
H621 C607 0.961 . S
H622 C607 0.961 . S
H623 C607 0.961 . S
H624 C608 0.931 . S
H625 C613 0.930 . S
H626 C614 0.956 . S
H627 C614 0.961 . S
H628 C614 0.961 1_556 S
H629 C615 0.958 . S
H630 C615 0.961 1_556 S
H631 C615 0.960 . S
C632 C633 1.391 . S
C632 C634 1.394 . S
C632 H648 0.931 . S
C633 C632 1.391 . S
C633 C637 1.376 . S
C634 C632 1.394 . S
C634 C635 1.369 . S
C634 C638 1.531 . S
C635 C634 1.369 . S
C635 C636 1.410 . S
C635 C643 1.503 . S
C636 C635 1.410 . S
C636 C637 1.392 . S
C636 C639 1.511 . S
C637 C633 1.376 . S
C637 C636 1.392 . S
C637 H649 0.929 . S
C638 C634 1.531 . S
C638 H650 0.960 . S
C638 H651 0.962 . S
C638 H652 0.960 . S
C639 C636 1.511 . S
C639 H653 0.961 . S
C639 H654 0.961 1_554 S
C639 H655 0.961 1_554 S
C640 C641 1.370 . S
C640 C642 1.363 1_556 S
C640 H656 0.931 . S
C641 C640 1.370 . S
C641 C645 1.408 . S
C642 C640 1.363 1_554 S
C642 C643 1.370 . S
C642 C646 1.524 . S
C643 C635 1.503 . S
C643 C642 1.370 . S
C643 C644 1.403 1_554 S
C644 C643 1.403 1_556 S
C644 C645 1.404 . S
C644 C647 1.539 . S
C645 C641 1.408 . S
C645 C644 1.404 . S
C645 H657 0.930 . S
C646 C642 1.524 . S
C646 H658 0.956 . S
C646 H659 0.961 . S
C646 H660 0.961 . S
C647 C644 1.539 . S
C647 H661 0.958 . S
C647 H662 0.961 . S
C647 H663 0.960 . S
H648 C632 0.931 . S
H649 C637 0.929 . S
H650 C638 0.960 . S
H651 C638 0.962 . S
H652 C638 0.960 . S
H653 C639 0.961 . S
H654 C639 0.961 1_556 S
H655 C639 0.961 1_556 S
H656 C640 0.931 . S
H657 C645 0.930 . S
H658 C646 0.956 . S
H659 C646 0.961 . S
H660 C646 0.961 . S
H661 C647 0.958 . S
H662 C647 0.961 . S
H663 C647 0.960 . S
C664 C665 1.391 . S
C664 C666 1.394 . S
C664 H680 0.931 . S
C665 C664 1.391 . S
C665 C669 1.376 . S
C666 C664 1.394 . S
C666 C667 1.369 . S
C666 C670 1.531 . S
C667 C666 1.369 . S
C667 C668 1.410 . S
C667 C675 1.503 . S
C668 C667 1.410 . S
C668 C669 1.392 . S
C668 C671 1.511 1_655 S
C669 C665 1.376 . S
C669 C668 1.392 . S
C669 H681 0.925 1_655 S
C670 C666 1.531 . S
C670 H682 0.960 1_554 S
C670 H683 0.962 . S
C670 H684 0.960 1_554 S
C671 C668 1.511 1_455 S
C671 H685 0.961 . S
C671 H686 0.961 . S
C671 H687 0.961 . S
C672 C673 1.370 . S
C672 C674 1.363 1_556 S
C672 H688 0.931 . S
C673 C672 1.370 . S
C673 C677 1.408 . S
C674 C672 1.363 1_554 S
C674 C675 1.370 . S
C674 C678 1.524 . S
C675 C667 1.503 . S
C675 C674 1.370 . S
C675 C676 1.403 1_554 S
C676 C675 1.403 1_556 S
C676 C677 1.404 . S
C676 C679 1.539 1_655 S
C677 C673 1.408 . S
C677 C676 1.404 . S
C677 H689 0.930 1_655 S
C678 C674 1.524 . S
C678 H690 0.956 . S
C678 H691 0.961 . S
C678 H692 0.961 . S
C679 C676 1.539 1_455 S
C679 H693 0.958 1_455 S
C679 H694 0.961 . S
C679 H695 0.960 . S
H680 C664 0.931 . S
H681 C669 0.925 1_455 S
H682 C670 0.960 1_556 S
H683 C670 0.962 . S
H684 C670 0.960 1_556 S
H685 C671 0.961 . S
H686 C671 0.961 . S
H687 C671 0.961 . S
H688 C672 0.931 . S
H689 C677 0.930 1_455 S
H690 C678 0.956 . S
H691 C678 0.961 . S
H692 C678 0.961 . S
H693 C679 0.958 1_655 S
H694 C679 0.961 . S
H695 C679 0.960 . S
C696 C697 1.391 . S
C696 C698 1.394 . S
C696 H712 0.931 . S
C697 C696 1.391 . S
C697 C701 1.376 . S
C698 C696 1.394 . S
C698 C699 1.369 . S
C698 C702 1.531 . S
C699 C698 1.369 . S
C699 C700 1.410 . S
C699 C707 1.503 . S
C700 C699 1.410 . S
C700 C701 1.392 . S
C700 C703 1.511 . S
C701 C697 1.376 . S
C701 C700 1.392 . S
C701 H713 0.929 1_554 S
C702 C698 1.531 . S
C702 H714 0.960 . S
C702 H715 0.962 . S
C702 H716 0.960 . S
C703 C700 1.511 . S
C703 H717 0.961 1_554 S
C703 H718 0.961 . S
C703 H719 0.961 1_455 S
C704 C705 1.375 . S
C704 C706 1.363 . S
C704 H720 0.931 . S
C705 C704 1.375 . S
C705 C709 1.405 1_455 S
C706 C704 1.363 . S
C706 C707 1.370 . S
C706 C710 1.524 . S
C707 C699 1.503 . S
C707 C706 1.370 . S
C707 C708 1.403 1_455 S
C708 C707 1.403 1_655 S
C708 C709 1.404 . S
C708 C711 1.539 . S
C709 C705 1.405 1_655 S
C709 C708 1.404 . S
C709 H721 0.930 . S
C710 C706 1.524 . S
C710 H722 0.956 . S
C710 H723 0.961 . S
C710 H724 0.961 . S
C711 C708 1.539 . S
C711 H725 0.958 . S
C711 H726 0.961 . S
C711 H727 0.960 . S
H712 C696 0.931 . S
H713 C701 0.929 1_556 S
H714 C702 0.960 . S
H715 C702 0.962 . S
H716 C702 0.960 . S
H717 C703 0.961 1_556 S
H718 C703 0.961 . S
H719 C703 0.961 1_655 S
H720 C704 0.931 . S
H721 C709 0.930 . S
H722 C710 0.956 . S
H723 C710 0.961 . S
H724 C710 0.961 . S
H725 C711 0.958 . S
H726 C711 0.961 . S
H727 C711 0.960 . S
C728 C729 1.391 . S
C728 C730 1.394 . S
C728 H744 0.931 1_554 S
C729 C728 1.391 . S
C729 C733 1.376 . S
C730 C728 1.394 . S
C730 C731 1.369 . S
C730 C734 1.531 1_554 S
C731 C730 1.369 . S
C731 C732 1.410 . S
C731 C739 1.503 . S
C732 C731 1.410 . S
C732 C733 1.392 . S
C732 C735 1.511 . S
C733 C729 1.376 . S
C733 C732 1.392 . S
C733 H745 0.929 . S
C734 C730 1.531 1_556 S
C734 H746 0.960 1_556 S
C734 H747 0.962 . S
C734 H748 0.960 . S
C735 C732 1.511 . S
C735 H749 0.961 . S
C735 H750 0.961 . S
C735 H751 0.961 . S
C736 C737 1.370 1_565 S
C736 C738 1.363 1_565 S
C736 H752 0.931 . S
C737 C736 1.370 1_545 S
C737 C741 1.408 . S
C738 C736 1.363 1_545 S
C738 C739 1.370 . S
C738 C742 1.524 1_545 S
C739 C731 1.503 . S
C739 C738 1.370 . S
C739 C740 1.403 . S
C740 C739 1.403 . S
C740 C741 1.404 . S
C740 C743 1.539 . S
C741 C737 1.408 . S
C741 C740 1.404 . S
C741 H753 0.930 . S
C742 C738 1.524 1_565 S
C742 H754 0.956 . S
C742 H755 0.961 . S
C742 H756 0.961 . S
C743 C740 1.539 . S
C743 H757 0.958 . S
C743 H758 0.961 . S
C743 H759 0.960 . S
H744 C728 0.931 1_556 S
H745 C733 0.929 . S
H746 C734 0.960 1_554 S
H747 C734 0.962 . S
H748 C734 0.960 . S
H749 C735 0.961 . S
H750 C735 0.961 . S
H751 C735 0.961 . S
H752 C736 0.931 . S
H753 C741 0.930 . S
H754 C742 0.956 . S
H755 C742 0.961 . S
H756 C742 0.961 . S
H757 C743 0.958 . S
H758 C743 0.961 . S
H759 C743 0.960 . S
C760 C761 1.391 . S
C760 C762 1.394 . S
C760 H776 0.931 . S
C761 C760 1.391 . S
C761 C765 1.376 . S
C762 C760 1.394 . S
C762 C763 1.369 . S
C762 C766 1.531 . S
C763 C762 1.369 . S
C763 C764 1.410 . S
C763 C771 1.503 . S
C764 C763 1.410 . S
C764 C765 1.392 . S
C764 C767 1.511 . S
C765 C761 1.376 . S
C765 C764 1.392 . S
C765 H777 0.929 . S
C766 C762 1.531 . S
C766 H778 0.960 . S
C766 H779 0.962 . S
C766 H780 0.960 . S
C767 C764 1.511 . S
C767 H781 0.961 . S
C767 H782 0.961 . S
C767 H783 0.961 . S
C768 C769 1.370 . S
C768 C770 1.363 . S
C768 H784 0.931 . S
C769 C768 1.370 . S
C769 C773 1.408 . S
C770 C768 1.363 . S
C770 C771 1.370 . S
C770 C774 1.524 . S
C771 C763 1.503 . S
C771 C770 1.370 . S
C771 C772 1.403 . S
C772 C771 1.403 . S
C772 C773 1.404 . S
C772 C775 1.539 . S
C773 C769 1.408 . S
C773 C772 1.404 . S
C773 H785 0.930 . S
C774 C770 1.524 . S
C774 H786 0.956 . S
C774 H787 0.961 . S
C774 H788 0.961 . S
C775 C772 1.539 . S
C775 H789 0.958 . S
C775 H790 0.961 . S
C775 H791 0.960 . S
H776 C760 0.931 . S
H777 C765 0.929 . S
H778 C766 0.960 . S
H779 C766 0.962 . S
H780 C766 0.960 . S
H781 C767 0.961 . S
H782 C767 0.961 . S
H783 C767 0.961 . S
H784 C768 0.931 . S
H785 C773 0.930 . S
H786 C774 0.956 . S
H787 C774 0.961 . S
H788 C774 0.961 . S
H789 C775 0.958 . S
H790 C775 0.961 . S
H791 C775 0.960 . S
C792 C793 1.391 . S
C792 C794 1.394 . S
C792 H808 0.931 1_554 S
C793 C792 1.391 . S
C793 C797 1.376 . S
C794 C792 1.394 . S
C794 C795 1.369 . S
C794 C798 1.531 1_554 S
C795 C794 1.369 . S
C795 C796 1.410 . S
C795 C803 1.503 . S
C796 C795 1.410 . S
C796 C797 1.392 . S
C796 C799 1.511 . S
C797 C793 1.376 . S
C797 C796 1.392 . S
C797 H809 0.929 . S
C798 C794 1.531 1_556 S
C798 H810 0.960 1_556 S
C798 H811 0.962 . S
C798 H812 0.960 . S
C799 C796 1.511 . S
C799 H813 0.961 . S
C799 H814 0.961 . S
C799 H815 0.961 . S
C800 C801 1.370 . S
C800 C802 1.363 . S
C800 H816 0.931 . S
C801 C800 1.370 . S
C801 C805 1.408 . S
C802 C800 1.363 . S
C802 C803 1.370 . S
C802 C806 1.524 . S
C803 C795 1.503 . S
C803 C802 1.370 . S
C803 C804 1.403 . S
C804 C803 1.403 . S
C804 C805 1.404 . S
C804 C807 1.539 . S
C805 C801 1.408 . S
C805 C804 1.404 . S
C805 H817 0.930 . S
C806 C802 1.524 . S
C806 H818 0.956 . S
C806 H819 0.961 . S
C806 H820 0.961 . S
C807 C804 1.539 . S
C807 H821 0.958 . S
C807 H822 0.961 . S
C807 H823 0.960 . S
H808 C792 0.931 1_556 S
H809 C797 0.929 . S
H810 C798 0.960 1_554 S
H811 C798 0.962 . S
H812 C798 0.960 . S
H813 C799 0.961 . S
H814 C799 0.961 . S
H815 C799 0.961 . S
H816 C800 0.931 . S
H817 C805 0.930 . S
H818 C806 0.956 . S
H819 C806 0.961 . S
H820 C806 0.961 . S
H821 C807 0.958 . S
H822 C807 0.961 . S
H823 C807 0.960 . S
C824 C825 1.391 . S
C824 C826 1.394 . S
C824 H840 0.931 . S
C825 C824 1.391 . S
C825 C829 1.376 . S
C826 C824 1.394 . S
C826 C827 1.369 . S
C826 C830 1.531 1_655 S
C827 C826 1.369 . S
C827 C828 1.410 . S
C827 C835 1.503 . S
C828 C827 1.410 . S
C828 C829 1.392 . S
C828 C831 1.511 . S
C829 C825 1.376 . S
C829 C828 1.392 . S
C829 H841 0.929 . S
C830 C826 1.531 1_455 S
C830 H842 0.960 . S
C830 H843 0.962 . S
C830 H844 0.960 . S
C831 C828 1.511 . S
C831 H845 0.961 . S
C831 H846 0.961 . S
C831 H847 0.961 . S
C832 C833 1.370 . S
C832 C834 1.363 . S
C832 H848 0.931 . S
C833 C832 1.370 . S
C833 C837 1.408 1_454 S
C834 C832 1.363 . S
C834 C835 1.370 1_455 S
C834 C838 1.524 . S
C835 C827 1.503 . S
C835 C834 1.370 1_655 S
C835 C836 1.403 . S
C836 C835 1.403 . S
C836 C837 1.404 1_554 S
C836 C839 1.539 1_554 S
C837 C833 1.408 1_656 S
C837 C836 1.404 1_556 S
C837 H849 0.930 . S
C838 C834 1.524 . S
C838 H850 0.956 . S
C838 H851 0.961 1_455 S
C838 H852 0.961 . S
C839 C836 1.539 1_556 S
C839 H853 0.958 . S
C839 H854 0.961 . S
C839 H855 0.960 1_556 S
H840 C824 0.931 . S
H841 C829 0.929 . S
H842 C830 0.960 . S
H843 C830 0.962 . S
H844 C830 0.960 . S
H845 C831 0.961 . S
H846 C831 0.961 . S
H847 C831 0.961 . S
H848 C832 0.931 . S
H849 C837 0.930 . S
H850 C838 0.956 . S
H851 C838 0.961 1_655 S
H852 C838 0.961 . S
H853 C839 0.958 . S
H854 C839 0.961 . S
H855 C839 0.960 1_554 S
C856 C857 1.391 . S
C856 C858 1.394 . S
C856 H872 0.931 . S
C857 C856 1.391 . S
C857 C861 1.376 . S
C858 C856 1.394 . S
C858 C859 1.369 . S
C858 C862 1.531 . S
C859 C858 1.369 . S
C859 C860 1.410 . S
C859 C867 1.502 1_565 S
C860 C859 1.410 . S
C860 C861 1.392 . S
C860 C863 1.511 1_565 S
C861 C857 1.376 . S
C861 C860 1.392 . S
C861 H873 0.929 . S
C862 C858 1.531 . S
C862 H874 0.960 . S
C862 H875 0.962 . S
C862 H876 0.960 . S
C863 C860 1.511 1_545 S
C863 H877 0.972 . S
C863 H878 0.961 . S
C863 H879 0.961 . S
C864 C865 1.370 1_565 S
C864 C866 1.363 . S
C864 H880 0.931 . S
C865 C864 1.370 1_545 S
C865 C869 1.408 . S
C866 C864 1.363 . S
C866 C867 1.368 1_565 S
C866 C870 1.524 . S
C867 C859 1.502 1_545 S
C867 C866 1.368 1_545 S
C867 C868 1.406 . S
C868 C867 1.406 . S
C868 C869 1.404 . S
C868 C871 1.539 . S
C869 C865 1.408 . S
C869 C868 1.404 . S
C869 H881 0.930 . S
C870 C866 1.524 . S
C870 H882 0.956 . S
C870 H883 0.961 . S
C870 H884 0.961 . S
C871 C868 1.539 . S
C871 H885 0.958 . S
C871 H886 0.961 . S
C871 H887 0.960 . S
H872 C856 0.931 . S
H873 C861 0.929 . S
H874 C862 0.960 . S
H875 C862 0.962 . S
H876 C862 0.960 . S
H877 C863 0.972 . S
H878 C863 0.961 . S
H879 C863 0.961 . S
H880 C864 0.931 . S
H881 C869 0.930 . S
H882 C870 0.956 . S
H883 C870 0.961 . S
H884 C870 0.961 . S
H885 C871 0.958 . S
H886 C871 0.961 . S
H887 C871 0.960 . S
C888 C889 1.391 . S
C888 C890 1.394 . S
C888 H904 0.931 . S
C889 C888 1.391 . S
C889 C893 1.376 . S
C890 C888 1.394 . S
C890 C891 1.369 . S
C890 C894 1.531 . S
C891 C890 1.369 . S
C891 C892 1.410 . S
C891 C899 1.503 . S
C892 C891 1.410 . S
C892 C893 1.392 . S
C892 C895 1.511 . S
C893 C889 1.376 . S
C893 C892 1.392 . S
C893 H905 0.929 . S
C894 C890 1.531 . S
C894 H906 0.960 . S
C894 H907 0.962 . S
C894 H908 0.960 . S
C895 C892 1.511 . S
C895 H909 0.961 . S
C895 H910 0.961 . S
C895 H911 0.961 . S
C896 C897 1.370 . S
C896 C898 1.363 . S
C896 H912 0.931 1_554 S
C897 C896 1.370 . S
C897 C901 1.408 . S
C898 C896 1.363 . S
C898 C899 1.370 . S
C898 C902 1.524 . S
C899 C891 1.503 . S
C899 C898 1.370 . S
C899 C900 1.403 . S
C900 C899 1.403 . S
C900 C901 1.404 . S
C900 C903 1.539 . S
C901 C897 1.408 . S
C901 C900 1.404 . S
C901 H913 0.930 . S
C902 C898 1.524 . S
C902 H914 0.956 . S
C902 H915 0.961 . S
C902 H916 0.961 1_554 S
C903 C900 1.539 . S
C903 H917 0.958 . S
C903 H918 0.961 . S
C903 H919 0.960 . S
H904 C888 0.931 . S
H905 C893 0.929 . S
H906 C894 0.960 . S
H907 C894 0.962 . S
H908 C894 0.960 . S
H909 C895 0.961 . S
H910 C895 0.961 . S
H911 C895 0.961 . S
H912 C896 0.931 1_556 S
H913 C901 0.930 . S
H914 C902 0.956 . S
H915 C902 0.961 . S
H916 C902 0.961 1_556 S
H917 C903 0.958 . S
H918 C903 0.961 . S
H919 C903 0.960 . S
C920 C921 1.391 . S
C920 C922 1.394 . S
C920 H936 0.931 . S
C921 C920 1.391 . S
C921 C925 1.376 . S
C922 C920 1.394 . S
C922 C923 1.369 . S
C922 C926 1.531 . S
C923 C922 1.369 . S
C923 C924 1.410 . S
C923 C931 1.503 . S
C924 C923 1.410 . S
C924 C925 1.392 . S
C924 C927 1.511 . S
C925 C921 1.376 . S
C925 C924 1.392 . S
C925 H937 0.929 . S
C926 C922 1.531 . S
C926 H938 0.960 . S
C926 H939 0.962 . S
C926 H940 0.960 . S
C927 C924 1.511 . S
C927 H941 0.961 . S
C927 H942 0.961 . S
C927 H943 0.961 . S
C928 C929 1.370 . S
C928 C930 1.363 . S
C928 H944 0.931 . S
C929 C928 1.370 . S
C929 C933 1.408 . S
C930 C928 1.363 . S
C930 C931 1.370 . S
C930 C934 1.524 . S
C931 C923 1.503 . S
C931 C930 1.370 . S
C931 C932 1.403 . S
C932 C931 1.403 . S
C932 C933 1.404 . S
C932 C935 1.539 . S
C933 C929 1.408 . S
C933 C932 1.404 . S
C933 H945 0.930 . S
C934 C930 1.524 . S
C934 H946 0.956 . S
C934 H947 0.961 . S
C934 H948 0.961 . S
C935 C932 1.539 . S
C935 H949 0.958 . S
C935 H950 0.961 . S
C935 H951 0.960 . S
H936 C920 0.931 . S
H937 C925 0.929 . S
H938 C926 0.960 . S
H939 C926 0.962 . S
H940 C926 0.960 . S
H941 C927 0.961 . S
H942 C927 0.961 . S
H943 C927 0.961 . S
H944 C928 0.931 . S
H945 C933 0.930 . S
H946 C934 0.956 . S
H947 C934 0.961 . S
H948 C934 0.961 . S
H949 C935 0.958 . S
H950 C935 0.961 . S
H951 C935 0.960 . S
C952 C953 1.391 . S
C952 C954 1.394 . S
C952 H968 0.931 . S
C953 C952 1.391 . S
C953 C957 1.376 . S
C954 C952 1.394 . S
C954 C955 1.369 . S
C954 C958 1.531 . S
C955 C954 1.369 . S
C955 C956 1.410 . S
C955 C963 1.503 . S
C956 C955 1.410 . S
C956 C957 1.392 . S
C956 C959 1.511 1_455 S
C957 C953 1.376 . S
C957 C956 1.392 . S
C957 H969 0.929 . S
C958 C954 1.531 . S
C958 H970 0.960 . S
C958 H971 0.962 . S
C958 H972 0.960 1_556 S
C959 C956 1.511 1_655 S
C959 H973 0.961 . S
C959 H974 0.961 1_655 S
C959 H975 0.961 . S
C960 C961 1.370 . S
C960 C962 1.363 . S
C960 H976 0.931 . S
C961 C960 1.370 . S
C961 C965 1.408 . S
C962 C960 1.363 . S
C962 C963 1.370 . S
C962 C966 1.524 . S
C963 C955 1.503 . S
C963 C962 1.370 . S
C963 C964 1.403 . S
C964 C963 1.403 . S
C964 C965 1.404 . S
C964 C967 1.539 . S
C965 C961 1.408 . S
C965 C964 1.404 . S
C965 H977 0.930 . S
C966 C962 1.524 . S
C966 H978 0.956 . S
C966 H979 0.961 . S
C966 H980 0.961 . S
C967 C964 1.539 . S
C967 H981 0.958 1_556 S
C967 H982 0.961 1_455 S
C967 H983 0.968 . S
H968 C952 0.931 . S
H969 C957 0.929 . S
H970 C958 0.960 . S
H971 C958 0.962 . S
H972 C958 0.960 1_554 S
H973 C959 0.961 . S
H974 C959 0.961 1_455 S
H975 C959 0.961 . S
H976 C960 0.931 . S
H977 C965 0.930 . S
H978 C966 0.956 . S
H979 C966 0.961 . S
H980 C966 0.961 . S
H981 C967 0.958 1_554 S
H982 C967 0.961 1_655 S
H983 C967 0.968 . S
C984 C985 1.391 . S
C984 C986 1.394 . S
C984 H1000 0.931 . S
C985 C984 1.391 . S
C985 C989 1.376 . S
C986 C984 1.394 . S
C986 C987 1.369 . S
C986 C990 1.531 . S
C987 C986 1.369 . S
C987 C988 1.410 . S
C987 C995 1.503 . S
C988 C987 1.410 . S
C988 C989 1.392 . S
C988 C991 1.511 1_556 S
C989 C985 1.376 . S
C989 C988 1.392 . S
C989 H1001 0.929 1_556 S
C990 C986 1.531 . S
C990 H1002 0.960 . S
C990 H1003 0.962 . S
C990 H1004 0.960 . S
C991 C988 1.511 1_554 S
C991 H1005 0.961 . S
C991 H1006 0.961 . S
C991 H1007 0.961 . S
C992 C993 1.370 . S
C992 C994 1.363 . S
C992 H1008 0.931 1_545 S
C993 C992 1.370 . S
C993 C997 1.408 . S
C994 C992 1.363 . S
C994 C995 1.370 . S
C994 C998 1.524 1_545 S
C995 C987 1.503 . S
C995 C994 1.370 . S
C995 C996 1.403 . S
C996 C995 1.403 . S
C996 C997 1.404 . S
C996 C999 1.539 . S
C997 C993 1.408 . S
C997 C996 1.404 . S
C997 H1009 0.930 . S
C998 C994 1.524 1_565 S
C998 H1010 0.956 . S
C998 H1011 0.961 . S
C998 H1012 0.961 . S
C999 C996 1.539 . S
C999 H1013 0.958 . S
C999 H1014 0.961 . S
C999 H1015 0.960 . S
H1000 C984 0.931 . S
H1001 C989 0.929 1_554 S
H1002 C990 0.960 . S
H1003 C990 0.962 . S
H1004 C990 0.960 . S
H1005 C991 0.961 . S
H1006 C991 0.961 . S
H1007 C991 0.961 . S
H1008 C992 0.931 1_565 S
H1009 C997 0.930 . S
H1010 C998 0.956 . S
H1011 C998 0.961 . S
H1012 C998 0.961 . S
H1013 C999 0.958 . S
H1014 C999 0.961 . S
H1015 C999 0.960 . S
C1016 C1017 1.391 . S
C1016 C1018 1.394 . S
C1016 H1032 0.931 . S
C1017 C1016 1.391 . S
C1017 C1021 1.376 . S
C1018 C1016 1.394 . S
C1018 C1019 1.369 . S
C1018 C1022 1.531 . S
C1019 C1018 1.369 . S
C1019 C1020 1.410 . S
C1019 C1027 1.503 . S
C1020 C1019 1.410 . S
C1020 C1021 1.392 . S
C1020 C1023 1.511 . S
C1021 C1017 1.376 . S
C1021 C1020 1.392 . S
C1021 H1033 0.929 . S
C1022 C1018 1.531 . S
C1022 H1034 0.960 . S
C1022 H1035 0.962 . S
C1022 H1036 0.960 . S
C1023 C1020 1.511 . S
C1023 H1037 0.961 . S
C1023 H1038 0.961 . S
C1023 H1039 0.961 1_556 S
C1024 C1025 1.370 . S
C1024 C1026 1.363 . S
C1024 H1040 0.931 . S
C1025 C1024 1.370 . S
C1025 C1029 1.408 . S
C1026 C1024 1.363 . S
C1026 C1027 1.370 . S
C1026 C1030 1.524 . S
C1027 C1019 1.503 . S
C1027 C1026 1.370 . S
C1027 C1028 1.403 . S
C1028 C1027 1.403 . S
C1028 C1029 1.404 . S
C1028 C1031 1.539 . S
C1029 C1025 1.408 . S
C1029 C1028 1.404 . S
C1029 H1041 0.930 . S
C1030 C1026 1.524 . S
C1030 H1042 0.956 . S
C1030 H1043 0.961 . S
C1030 H1044 0.961 . S
C1031 C1028 1.539 . S
C1031 H1045 0.958 . S
C1031 H1046 0.961 1_556 S
C1031 H1047 0.960 1_556 S
H1032 C1016 0.931 . S
H1033 C1021 0.929 . S
H1034 C1022 0.960 . S
H1035 C1022 0.962 . S
H1036 C1022 0.960 . S
H1037 C1023 0.961 . S
H1038 C1023 0.961 . S
H1039 C1023 0.961 1_554 S
H1040 C1024 0.931 . S
H1041 C1029 0.930 . S
H1042 C1030 0.956 . S
H1043 C1030 0.961 . S
H1044 C1030 0.961 . S
H1045 C1031 0.958 . S
H1046 C1031 0.961 1_554 S
H1047 C1031 0.960 1_554 S
C1048 C1049 1.391 . S
C1048 C1050 1.394 . S
C1048 H1064 0.931 . S
C1049 C1048 1.391 . S
C1049 C1053 1.376 . S
C1050 C1048 1.394 . S
C1050 C1051 1.369 . S
C1050 C1054 1.531 . S
C1051 C1050 1.369 . S
C1051 C1052 1.410 . S
C1051 C1059 1.503 . S
C1052 C1051 1.410 . S
C1052 C1053 1.392 . S
C1052 C1055 1.511 1_556 S
C1053 C1049 1.376 . S
C1053 C1052 1.392 . S
C1053 H1065 0.929 1_556 S
C1054 C1050 1.531 . S
C1054 H1066 0.960 . S
C1054 H1067 0.962 . S
C1054 H1068 0.960 . S
C1055 C1052 1.511 1_554 S
C1055 H1069 0.961 . S
C1055 H1070 0.961 1_554 S
C1055 H1071 0.961 1_554 S
C1056 C1057 1.370 . S
C1056 C1058 1.363 . S
C1056 H1072 0.931 . S
C1057 C1056 1.370 . S
C1057 C1061 1.408 . S
C1058 C1056 1.363 . S
C1058 C1059 1.370 . S
C1058 C1062 1.524 . S
C1059 C1051 1.503 . S
C1059 C1058 1.370 . S
C1059 C1060 1.403 . S
C1060 C1059 1.403 . S
C1060 C1061 1.404 . S
C1060 C1063 1.539 . S
C1061 C1057 1.408 . S
C1061 C1060 1.404 . S
C1061 H1073 0.930 . S
C1062 C1058 1.524 . S
C1062 H1074 0.956 . S
C1062 H1075 0.961 . S
C1062 H1076 0.961 . S
C1063 C1060 1.539 . S
C1063 H1077 0.958 . S
C1063 H1078 0.961 . S
C1063 H1079 0.960 . S
H1064 C1048 0.931 . S
H1065 C1053 0.929 1_554 S
H1066 C1054 0.960 . S
H1067 C1054 0.962 . S
H1068 C1054 0.960 . S
H1069 C1055 0.961 . S
H1070 C1055 0.961 1_556 S
H1071 C1055 0.961 1_556 S
H1072 C1056 0.931 . S
H1073 C1061 0.930 . S
H1074 C1062 0.956 . S
H1075 C1062 0.961 . S
H1076 C1062 0.961 . S
H1077 C1063 0.958 . S
H1078 C1063 0.961 . S
H1079 C1063 0.960 . S
C1080 C1081 1.391 . S
C1080 C1082 1.394 . S
C1080 H1096 0.917 1_655 S
C1081 C1080 1.391 . S
C1081 C1085 1.376 . S
C1082 C1080 1.394 . S
C1082 C1083 1.369 . S
C1082 C1086 1.531 1_655 S
C1083 C1082 1.369 . S
C1083 C1084 1.410 . S
C1083 C1091 1.503 . S
C1084 C1083 1.410 . S
C1084 C1085 1.392 . S
C1084 C1087 1.511 . S
C1085 C1081 1.376 . S
C1085 C1084 1.392 . S
C1085 H1097 0.929 . S
C1086 C1082 1.531 1_455 S
C1086 H1098 0.960 . S
C1086 H1099 0.962 . S
C1086 H1100 0.960 . S
C1087 C1084 1.511 . S
C1087 H1101 0.961 . S
C1087 H1102 0.961 . S
C1087 H1103 0.961 . S
C1088 C1089 1.370 . S
C1088 C1090 1.363 . S
C1088 H1104 0.931 . S
C1089 C1088 1.370 . S
C1089 C1093 1.408 . S
C1090 C1088 1.363 . S
C1090 C1091 1.370 . S
C1090 C1094 1.524 . S
C1091 C1083 1.503 . S
C1091 C1090 1.370 . S
C1091 C1092 1.403 . S
C1092 C1091 1.403 . S
C1092 C1093 1.404 . S
C1092 C1095 1.539 . S
C1093 C1089 1.408 . S
C1093 C1092 1.404 . S
C1093 H1105 0.930 . S
C1094 C1090 1.524 . S
C1094 H1106 0.956 . S
C1094 H1107 0.961 . S
C1094 H1108 0.961 . S
C1095 C1092 1.539 . S
C1095 H1109 0.958 . S
C1095 H1110 0.961 . S
C1095 H1111 0.960 . S
H1096 C1080 0.917 1_455 S
H1097 C1085 0.929 . S
H1098 C1086 0.960 . S
H1099 C1086 0.962 . S
H1100 C1086 0.960 . S
H1101 C1087 0.961 . S
H1102 C1087 0.961 . S
H1103 C1087 0.961 . S
H1104 C1088 0.931 . S
H1105 C1093 0.930 . S
H1106 C1094 0.956 . S
H1107 C1094 0.961 . S
H1108 C1094 0.961 . S
H1109 C1095 0.958 . S
H1110 C1095 0.961 . S
H1111 C1095 0.960 . S
C1112 C1113 1.391 . S
C1112 C1114 1.394 . S
C1112 H1128 0.931 . S
C1113 C1112 1.391 . S
C1113 C1117 1.376 . S
C1114 C1112 1.394 . S
C1114 C1115 1.369 . S
C1114 C1118 1.531 1_565 S
C1115 C1114 1.369 . S
C1115 C1116 1.410 . S
C1115 C1123 1.503 . S
C1116 C1115 1.410 . S
C1116 C1117 1.392 . S
C1116 C1119 1.511 . S
C1117 C1113 1.376 . S
C1117 C1116 1.392 . S
C1117 H1129 0.929 . S
C1118 C1114 1.531 1_545 S
C1118 H1130 0.960 . S
C1118 H1131 0.962 1_545 S
C1118 H1132 0.960 . S
C1119 C1116 1.511 . S
C1119 H1133 0.961 . S
C1119 H1134 0.961 . S
C1119 H1135 0.961 . S
C1120 C1121 1.370 . S
C1120 C1122 1.363 . S
C1120 H1136 0.931 . S
C1121 C1120 1.370 . S
C1121 C1125 1.408 1_565 S
C1122 C1120 1.363 . S
C1122 C1123 1.370 . S
C1122 C1126 1.524 . S
C1123 C1115 1.503 . S
C1123 C1122 1.370 . S
C1123 C1124 1.403 1_565 S
C1124 C1123 1.403 1_545 S
C1124 C1125 1.404 . S
C1124 C1127 1.539 . S
C1125 C1121 1.408 1_545 S
C1125 C1124 1.404 . S
C1125 H1137 0.930 . S
C1126 C1122 1.524 . S
C1126 H1138 0.956 . S
C1126 H1139 0.961 . S
C1126 H1140 0.961 . S
C1127 C1124 1.539 . S
C1127 H1141 0.958 . S
C1127 H1142 0.961 . S
C1127 H1143 0.960 . S
H1128 C1112 0.931 . S
H1129 C1117 0.929 . S
H1130 C1118 0.960 . S
H1131 C1118 0.962 1_565 S
H1132 C1118 0.960 . S
H1133 C1119 0.961 . S
H1134 C1119 0.961 . S
H1135 C1119 0.961 . S
H1136 C1120 0.931 . S
H1137 C1125 0.930 . S
H1138 C1126 0.956 . S
H1139 C1126 0.961 . S
H1140 C1126 0.961 . S
H1141 C1127 0.958 . S
H1142 C1127 0.961 . S
H1143 C1127 0.960 . S
C1144 C1145 1.391 . S
C1144 C1146 1.394 . S
C1144 H1160 0.931 . S
C1145 C1144 1.391 . S
C1145 C1149 1.376 . S
C1146 C1144 1.394 . S
C1146 C1147 1.369 . S
C1146 C1150 1.531 . S
C1147 C1146 1.369 . S
C1147 C1148 1.410 . S
C1147 C1155 1.503 . S
C1148 C1147 1.410 . S
C1148 C1149 1.392 . S
C1148 C1151 1.511 . S
C1149 C1145 1.376 . S
C1149 C1148 1.392 . S
C1149 H1161 0.929 . S
C1150 C1146 1.531 . S
C1150 H1162 0.960 . S
C1150 H1163 0.962 . S
C1150 H1164 0.960 . S
C1151 C1148 1.511 . S
C1151 H1165 0.961 . S
C1151 H1166 0.961 . S
C1151 H1167 0.961 . S
C1152 C1153 1.370 . S
C1152 C1154 1.363 . S
C1152 H1168 0.931 . S
C1153 C1152 1.370 . S
C1153 C1157 1.408 . S
C1154 C1152 1.363 . S
C1154 C1155 1.370 . S
C1154 C1158 1.524 . S
C1155 C1147 1.503 . S
C1155 C1154 1.370 . S
C1155 C1156 1.403 . S
C1156 C1155 1.403 . S
C1156 C1157 1.404 . S
C1156 C1159 1.539 . S
C1157 C1153 1.408 . S
C1157 C1156 1.404 . S
C1157 H1169 0.930 . S
C1158 C1154 1.524 . S
C1158 H1170 0.956 . S
C1158 H1171 0.961 . S
C1158 H1172 0.961 . S
C1159 C1156 1.539 . S
C1159 H1173 0.958 . S
C1159 H1174 0.961 . S
C1159 H1175 0.960 . S
H1160 C1144 0.931 . S
H1161 C1149 0.929 . S
H1162 C1150 0.960 . S
H1163 C1150 0.962 . S
H1164 C1150 0.960 . S
H1165 C1151 0.961 . S
H1166 C1151 0.961 . S
H1167 C1151 0.961 . S
H1168 C1152 0.931 . S
H1169 C1157 0.930 . S
H1170 C1158 0.956 . S
H1171 C1158 0.961 . S
H1172 C1158 0.961 . S
H1173 C1159 0.958 . S
H1174 C1159 0.961 . S
H1175 C1159 0.960 . S
C1176 C1177 1.391 . S
C1176 C1178 1.394 . S
C1176 H1192 0.931 . S
C1177 C1176 1.391 . S
C1177 C1181 1.376 . S
C1178 C1176 1.394 . S
C1178 C1179 1.369 . S
C1178 C1182 1.531 . S
C1179 C1178 1.369 . S
C1179 C1180 1.410 . S
C1179 C1187 1.503 . S
C1180 C1179 1.410 . S
C1180 C1181 1.392 . S
C1180 C1183 1.511 . S
C1181 C1177 1.376 . S
C1181 C1180 1.392 . S
C1181 H1193 0.929 . S
C1182 C1178 1.531 . S
C1182 H1194 0.960 . S
C1182 H1195 0.962 . S
C1182 H1196 0.960 . S
C1183 C1180 1.511 . S
C1183 H1197 0.961 . S
C1183 H1198 0.961 . S
C1183 H1199 0.961 . S
C1184 C1185 1.370 . S
C1184 C1186 1.363 . S
C1184 H1200 0.931 . S
C1185 C1184 1.370 . S
C1185 C1189 1.408 . S
C1186 C1184 1.363 . S
C1186 C1187 1.370 . S
C1186 C1190 1.524 . S
C1187 C1179 1.503 . S
C1187 C1186 1.370 . S
C1187 C1188 1.403 . S
C1188 C1187 1.403 . S
C1188 C1189 1.404 . S
C1188 C1191 1.539 . S
C1189 C1185 1.408 . S
C1189 C1188 1.404 . S
C1189 H1201 0.930 . S
C1190 C1186 1.524 . S
C1190 H1202 0.956 . S
C1190 H1203 0.961 . S
C1190 H1204 0.961 . S
C1191 C1188 1.539 . S
C1191 H1205 0.958 . S
C1191 H1206 0.961 . S
C1191 H1207 0.960 . S
H1192 C1176 0.931 . S
H1193 C1181 0.929 . S
H1194 C1182 0.960 . S
H1195 C1182 0.962 . S
H1196 C1182 0.960 . S
H1197 C1183 0.961 . S
H1198 C1183 0.961 . S
H1199 C1183 0.961 . S
H1200 C1184 0.931 . S
H1201 C1189 0.930 . S
H1202 C1190 0.956 . S
H1203 C1190 0.961 . S
H1204 C1190 0.961 . S
H1205 C1191 0.958 . S
H1206 C1191 0.961 . S
H1207 C1191 0.960 . S
C441 N80 1.891 . S
C449 C179 1.919 . S
C481 C263 1.950 . S
C473 N93 1.889 . S
C513 C339 1.930 . S
C505 N54 1.996 . S
C545 C423 1.920 . S
C537 N67 1.979 . S
C577 C170 1.923 1_565 S
C569 N28 1.935 . S
C601 N41 1.934 . S
C609 C254 1.947 . S
C633 N2 1.995 . S
C641 C328 1.940 . S
C665 N15 1.973 . S
C673 C412 1.928 . S
C705 C167 0.562 1_455 S
C697 N70 0.525 . S
C737 C251 0.608 1_545 S
C729 N83 0.621 . S
C769 C344 0.577 . S
C761 N96 0.519 . S
C793 N57 0.623 . S
C801 C428 0.593 . S
C825 N18 0.597 . S
C833 C176 0.616 . S
C865 C260 0.542 . S
C857 N31 0.508 . S
C897 C335 0.521 . S
C889 N44 0.492 . S
C921 N5 0.611 . S
C929 C419 0.597 . S
C953 N66 2.056 . S
C961 C160 2.029 . S
C985 N79 2.066 . S
C993 C244 2.018 . S
C1025 C338 2.025 . S
C1017 N92 1.949 . S
C1057 C422 2.055 . S
C1049 N53 2.008 . S
C1081 N14 2.071 . S
C1089 C171 2.042 . S
C1121 C255 2.012 . S
C1113 N27 2.058 . S
C1153 C347 2.018 . S
C1145 N40 1.995 . S
C1177 N1 2.012 . S
C1185 C431 2.055 . S
