# Generated by pormake.
# Topology nom, (4,4)-cn, num edge types: 1
# Building blocks:
#     Node 0, Type 0, BuildingBlock: NAWXER_clean_linker_0, # of connection points: 4
#     Node 1, Type 0, BuildingBlock: NAWXER_clean_linker_0, # of connection points: 4
#     Node 2, Type 0, BuildingBlock: NAWXER_clean_linker_0, # of connection points: 4
#     Node 3, Type 0, BuildingBlock: NAWXER_clean_linker_0, # of connection points: 4
#     Node 4, Type 0, BuildingBlock: NAWXER_clean_linker_0, # of connection points: 4
#     Node 5, Type 0, BuildingBlock: NAWXER_clean_linker_0, # of connection points: 4
#     Node 6, Type 1, BuildingBlock: CEKHIL_clean_sbu_0, # of connection points: 4
#     Node 7, Type 1, BuildingBlock: CEKHIL_clean_sbu_0, # of connection points: 4
#     Node 8, Type 1, BuildingBlock: CEKHIL_clean_sbu_0, # of connection points: 4
#     Node 9, Type 1, BuildingBlock: CEKHIL_clean_sbu_0, # of connection points: 4
#     Node 10, Type 1, BuildingBlock: CEKHIL_clean_sbu_0, # of connection points: 4
#     Node 11, Type 1, BuildingBlock: CEKHIL_clean_sbu_0, # of connection points: 4
#     Edge 12, Type (0, 1), BuildingBlock: UVAHIK_clean_linker_0, # of connection points: 2
#     Edge 13, Type (0, 1), BuildingBlock: UVAHIK_clean_linker_0, # of connection points: 2
#     Edge 14, Type (0, 1), BuildingBlock: UVAHIK_clean_linker_0, # of connection points: 2
#     Edge 15, Type (0, 1), BuildingBlock: UVAHIK_clean_linker_0, # of connection points: 2
#     Edge 16, Type (0, 1), BuildingBlock: UVAHIK_clean_linker_0, # of connection points: 2
#     Edge 17, Type (0, 1), BuildingBlock: UVAHIK_clean_linker_0, # of connection points: 2
#     Edge 18, Type (0, 1), BuildingBlock: UVAHIK_clean_linker_0, # of connection points: 2
#     Edge 19, Type (0, 1), BuildingBlock: UVAHIK_clean_linker_0, # of connection points: 2
#     Edge 20, Type (0, 1), BuildingBlock: UVAHIK_clean_linker_0, # of connection points: 2
#     Edge 21, Type (0, 1), BuildingBlock: UVAHIK_clean_linker_0, # of connection points: 2
#     Edge 22, Type (0, 1), BuildingBlock: UVAHIK_clean_linker_0, # of connection points: 2
#     Edge 23, Type (0, 1), BuildingBlock: UVAHIK_clean_linker_0, # of connection points: 2
#     Edge 24, Type (0, 1), BuildingBlock: UVAHIK_clean_linker_0, # of connection points: 2
#     Edge 25, Type (0, 1), BuildingBlock: UVAHIK_clean_linker_0, # of connection points: 2
#     Edge 26, Type (0, 1), BuildingBlock: UVAHIK_clean_linker_0, # of connection points: 2
#     Edge 27, Type (0, 1), BuildingBlock: UVAHIK_clean_linker_0, # of connection points: 2
#     Edge 28, Type (0, 1), BuildingBlock: UVAHIK_clean_linker_0, # of connection points: 2
#     Edge 29, Type (0, 1), BuildingBlock: UVAHIK_clean_linker_0, # of connection points: 2
#     Edge 30, Type (0, 1), BuildingBlock: UVAHIK_clean_linker_0, # of connection points: 2
#     Edge 31, Type (0, 1), BuildingBlock: UVAHIK_clean_linker_0, # of connection points: 2
#     Edge 32, Type (0, 1), BuildingBlock: UVAHIK_clean_linker_0, # of connection points: 2
#     Edge 33, Type (0, 1), BuildingBlock: UVAHIK_clean_linker_0, # of connection points: 2
#     Edge 34, Type (0, 1), BuildingBlock: UVAHIK_clean_linker_0, # of connection points: 2
#     Edge 35, Type (0, 1), BuildingBlock: UVAHIK_clean_linker_0, # of connection points: 2
# Relax obj value: 0.006
# Max RMSD: 0.109
# Mean RMSD: 0.075
data_MOF--net-nom--node1-CEKHIL_clean_sbu_0--node2-NAWXER_clean_linker_0--edge1-UVAHIK_clean_linker_0
_symmetry_space_group_name_H-M    P1
_symmetry_Int_Tables_number       1
_symmetry_cell_setting            triclinic
loop_
_symmetry_equiv_pos_as_xyz
'x, y, z'
_cell_length_a     65.626975
_cell_length_b     64.909427
_cell_length_c     71.91948
_cell_angle_alpha  89.983548
_cell_angle_beta   90.015344
_cell_angle_gamma 121.08956
loop_
_atom_site_label
_atom_site_type_symbol
_atom_site_fract_x
_atom_site_fract_y
_atom_site_fract_z
_atom_type_partial_charge
C0 C 0.92092 0.51435 0.34462 0.0
C1 C 0.90959 0.49824 0.35936 0.0
C2 C 0.9444 0.52195 0.34004 0.0
C3 C 0.95686 0.51303 0.34972 0.0
C4 C 0.92227 0.49005 0.3696 0.0
C5 C 0.94575 0.49737 0.36479 0.0
C6 C 0.98179 0.52105 0.34466 0.0
C7 C 0.93979 0.47897 0.29483 0.0
C8 C 0.94138 0.49362 0.27988 0.0
C9 C 0.95523 0.4888 0.30996 0.0
C10 C 0.97273 0.51337 0.31021 0.0
C11 C 0.95875 0.51823 0.28018 0.0
C12 C 0.97459 0.52797 0.29514 0.0
C13 C 0.98946 0.52356 0.32601 0.0
C14 C 0.09365 0.55792 0.33062 0.0
C15 C 0.1026 0.57772 0.31845 0.0
C16 C 0.06997 0.5463 0.33662 0.0
C17 C 0.05493 0.5544 0.33063 0.0
C18 C 0.0874 0.58574 0.31261 0.0
C19 C 0.0638 0.57408 0.31851 0.0
C20 C 0.02967 0.54211 0.33619 0.0
C21 C 0.07321 0.57509 0.38793 0.0
C22 C 0.06927 0.55804 0.40172 0.0
C23 C 0.05787 0.56875 0.3727 0.0
C24 C 0.03843 0.54516 0.37086 0.0
C25 C 0.04961 0.53451 0.39993 0.0
C26 C 0.03428 0.5282 0.3847 0.0
C27 C 0.02194 0.53811 0.35489 0.0
H28 H 0.91171 0.52137 0.3368 0.0
H29 H 0.95285 0.53504 0.32901 0.0
H30 H 0.9139 0.47767 0.38108 0.0
H31 H 0.95511 0.49059 0.37269 0.0
H32 H 0.9265 0.45993 0.29483 0.0
H33 H 0.95372 0.47717 0.32136 0.0
H34 H 0.96033 0.52977 0.2687 0.0
H35 H 0.98807 0.54694 0.29506 0.0
H36 H 0.10479 0.5511 0.33519 0.0
H37 H 0.06333 0.53083 0.3457 0.0
H38 H 0.09377 0.60119 0.30354 0.0
H39 H 0.05246 0.58058 0.31372 0.0
H40 H 0.08824 0.59333 0.38885 0.0
H41 H 0.06113 0.58232 0.36243 0.0
H42 H 0.04583 0.52107 0.41046 0.0
H43 H 0.01923 0.50997 0.38367 0.0
N44 N 0.99828 0.52792 0.35843 0.0
N45 N 0.0131 0.53446 0.32246 0.0
C46 C 0.42622 0.91466 0.49891 0.0
C47 C 0.43586 0.90362 0.50958 0.0
C48 C 0.44058 0.93836 0.49291 0.0
C49 C 0.46486 0.9515 0.4975 0.0
C50 C 0.46021 0.91667 0.51403 0.0
C51 C 0.47456 0.94057 0.50821 0.0
C52 C 0.47952 0.97705 0.49205 0.0
C53 C 0.46691 0.93481 0.43988 0.0
C54 C 0.45333 0.93782 0.42622 0.0
C55 C 0.47542 0.95001 0.45533 0.0
C56 C 0.47029 0.96837 0.45759 0.0
C57 C 0.44845 0.95639 0.4284 0.0
C58 C 0.45694 0.97158 0.44389 0.0
C59 C 0.47978 0.98497 0.47371 0.0
C60 C 0.54141 0.09297 0.47883 0.0
C61 C 0.52649 0.09931 0.46965 0.0
C62 C 0.53299 0.06904 0.48374 0.0
C63 C 0.50947 0.05107 0.47964 0.0
C64 C 0.50295 0.0812 0.46558 0.0
C65 C 0.49461 0.05732 0.47041 0.0
C66 C 0.50021 0.02558 0.48433 0.0
C67 C 0.51292 0.06363 0.53968 0.0
C68 C 0.53271 0.06548 0.54896 0.0
C69 C 0.50283 0.04831 0.5244 0.0
C70 C 0.51218 0.03437 0.51821 0.0
C71 C 0.54204 0.05149 0.54254 0.0
C72 C 0.53167 0.03589 0.52747 0.0
C73 C 0.50134 0.01773 0.50239 0.0
H74 H 0.40752 0.90495 0.49524 0.0
H75 H 0.43259 0.94659 0.48499 0.0
H76 H 0.46799 0.90858 0.52238 0.0
H77 H 0.4932 0.95052 0.51206 0.0
H78 H 0.4709 0.92062 0.43869 0.0
H79 H 0.48628 0.94756 0.46538 0.0
H80 H 0.43837 0.95945 0.41799 0.0
H81 H 0.453 0.98579 0.44519 0.0
H82 H 0.55975 0.1064 0.48189 0.0
H83 H 0.54496 0.06453 0.49045 0.0
H84 H 0.49086 0.08547 0.45879 0.0
H85 H 0.4764 0.04372 0.4671 0.0
H86 H 0.5049 0.07368 0.54437 0.0
H87 H 0.48754 0.04709 0.51755 0.0
H88 H 0.55752 0.05271 0.549 0.0
H89 H 0.53911 0.02525 0.52285 0.0
N90 N 0.49073 0.99372 0.50565 0.0
N91 N 0.48968 0.00892 0.47062 0.0
C92 C 0.50931 0.4377 0.60432 0.0
C93 C 0.4939 0.42576 0.58933 0.0
C94 C 0.50098 0.44304 0.62037 0.0
C95 C 0.47695 0.43623 0.62194 0.0
C96 C 0.46991 0.41923 0.59083 0.0
C97 C 0.46156 0.42453 0.60694 0.0
C98 C 0.46823 0.4426 0.63871 0.0
C99 C 0.48714 0.38911 0.6588 0.0
C100 C 0.50733 0.39908 0.67031 0.0
C101 C 0.47651 0.40236 0.65426 0.0
C102 C 0.48583 0.42576 0.66122 0.0
C103 C 0.5166 0.42249 0.67728 0.0
C104 C 0.50578 0.43562 0.67293 0.0
C105 C 0.4742 0.43956 0.65695 0.0
C106 C 0.42324 0.47496 0.70543 0.0
C107 C 0.44224 0.49077 0.71702 0.0
C108 C 0.42728 0.46444 0.68997 0.0
C109 C 0.45042 0.4698 0.68573 0.0
C110 C 0.46517 0.49524 0.71312 0.0
C111 C 0.46918 0.48481 0.69768 0.0
C112 C 0.45555 0.45999 0.66901 0.0
C113 C 0.42701 0.50628 0.65003 0.0
C114 C 0.40692 0.49436 0.63839 0.0
C115 C 0.44093 0.49619 0.65379 0.0
C116 C 0.43462 0.47356 0.64652 0.0
C117 C 0.40133 0.47221 0.63048 0.0
C118 C 0.41499 0.46194 0.63453 0.0
C119 C 0.44855 0.46203 0.65081 0.0
H120 H 0.52784 0.44286 0.60371 0.0
H121 H 0.51346 0.45282 0.63146 0.0
H122 H 0.45765 0.41038 0.57942 0.0
H123 H 0.44305 0.41944 0.6077 0.0
H124 H 0.47969 0.37114 0.6532 0.0
H125 H 0.46085 0.39422 0.64548 0.0
H126 H 0.53199 0.43049 0.68635 0.0
H127 H 0.51309 0.45355 0.67858 0.0
H128 H 0.40537 0.47115 0.70805 0.0
H129 H 0.41241 0.45241 0.68119 0.0
H130 H 0.48009 0.50686 0.722 0.0
H131 H 0.48711 0.4889 0.69484 0.0
H132 H 0.4319 0.52328 0.65648 0.0
H133 H 0.45652 0.50603 0.66249 0.0
H134 H 0.38645 0.46278 0.62103 0.0
H135 H 0.41005 0.44471 0.62843 0.0
N136 N 0.45526 0.45331 0.63637 0.0
N137 N 0.46802 0.44875 0.67135 0.0
C138 C 0.91985 0.42743 0.83798 0.0
C139 C 0.91339 0.43869 0.82454 0.0
C140 C 0.94352 0.43783 0.84356 0.0
C141 C 0.96115 0.46015 0.83627 0.0
C142 C 0.93089 0.46099 0.81725 0.0
C143 C 0.95454 0.47166 0.82312 0.0
C144 C 0.98669 0.47006 0.84056 0.0
C145 C 0.95396 0.468 0.89564 0.0
C146 C 0.9515 0.44949 0.90731 0.0
C147 C 0.96813 0.47429 0.87971 0.0
C148 C 0.98024 0.46232 0.87529 0.0
C149 C 0.96381 0.4377 0.90297 0.0
C150 C 0.97831 0.44429 0.88721 0.0
C151 C 0.99511 0.46879 0.85839 0.0
C152 C 0.10103 0.51737 0.84783 0.0
C153 C 0.10541 0.50013 0.85563 0.0
C154 C 0.07776 0.51192 0.84466 0.0
C155 C 0.05841 0.4891 0.84915 0.0
C156 C 0.08592 0.4774 0.86036 0.0
C157 C 0.06265 0.47201 0.85726 0.0
C158 C 0.0337 0.48299 0.84575 0.0
C159 C 0.06676 0.49135 0.78895 0.0
C160 C 0.07011 0.51197 0.77961 0.0
C161 C 0.0525 0.48283 0.80486 0.0
C162 C 0.0412 0.49466 0.81167 0.0
C163 C 0.05877 0.52376 0.78663 0.0
C164 C 0.04425 0.51502 0.80236 0.0
C165 C 0.02568 0.48564 0.82821 0.0
H166 H 0.90678 0.40994 0.84346 0.0
H167 H 0.94808 0.4278 0.85294 0.0
H168 H 0.92632 0.46996 0.80679 0.0
H169 H 0.96778 0.48868 0.81706 0.0
H170 H 0.94461 0.47732 0.89869 0.0
H171 H 0.96967 0.48852 0.87084 0.0
H172 H 0.96234 0.42352 0.91186 0.0
H173 H 0.98765 0.43497 0.8841 0.0
H174 H 0.11557 0.53523 0.84441 0.0
H175 H 0.07488 0.52561 0.83884 0.0
H176 H 0.08862 0.46362 0.86621 0.0
H177 H 0.04794 0.45432 0.8609 0.0
H178 H 0.0748 0.4815 0.78381 0.0
H179 H 0.05003 0.46683 0.8117 0.0
H180 H 0.06124 0.53993 0.78012 0.0
H181 H 0.03567 0.52439 0.80743 0.0
N182 N 0.00247 0.4789 0.82624 0.0
N183 N 0.01816 0.47483 0.86023 0.0
C184 C 0.49359 0.91375 0.97933 0.0
C185 C 0.47681 0.90479 0.9649 0.0
C186 C 0.50456 0.93784 0.9846 0.0
C187 C 0.49839 0.95331 0.97596 0.0
C188 C 0.471 0.92031 0.95591 0.0
C189 C 0.48168 0.94437 0.96143 0.0
C190 C 0.51064 0.97913 0.98108 0.0
C191 C 0.4723 0.9387 0.03233 0.0
C192 C 0.48705 0.94088 0.04733 0.0
C193 C 0.48166 0.95385 0.01691 0.0
C194 C 0.50603 0.97127 0.01603 0.0
C195 C 0.51134 0.9587 0.0466 0.0
C196 C 0.52071 0.9738 0.03113 0.0
C197 C 0.51616 0.98736 -0.00032 0.0
C198 C 0.56755 0.09515 0.99323 0.0
C199 C 0.58808 0.10144 0.0037 0.0
C200 C 0.55179 0.07121 0.98821 0.0
C201 C 0.5563 0.05315 0.99357 0.0
C202 C 0.59251 0.08321 0.00893 0.0
C203 C 0.57667 0.0593 0.00405 0.0
C204 C 0.5397 0.02769 0.98878 0.0
C205 C 0.57419 0.06508 0.93493 0.0
C206 C 0.55832 0.06842 0.92395 0.0
C207 C 0.56593 0.04926 0.95002 0.0
C208 C 0.54162 0.03622 0.95433 0.0
C209 C 0.5339 0.05516 0.92838 0.0
C210 C 0.52563 0.03902 0.9433 0.0
C211 C 0.53285 0.01967 0.97036 0.0
H212 H 0.49878 0.90227 0.98617 0.0
H213 H 0.51823 0.94442 0.9952 0.0
H214 H 0.45818 0.91381 0.94467 0.0
H215 H 0.47691 0.95602 0.95434 0.0
H216 H 0.45342 0.92551 0.03265 0.0
H217 H 0.46979 0.95204 0.00573 0.0
H218 H 0.52319 0.96075 0.05788 0.0
H219 H 0.53953 0.98724 0.03083 0.0
H220 H 0.56335 0.10864 0.98924 0.0
H221 H 0.53589 0.06676 0.98043 0.0
H222 H 0.60832 0.0874 0.01672 0.0
H223 H 0.58046 0.0456 0.0083 0.0
H224 H 0.59301 0.07445 0.93176 0.0
H225 H 0.5785 0.04707 0.95827 0.0
H226 H 0.52114 0.05746 0.92052 0.0
H227 H 0.50678 0.0291 0.94648 0.0
N228 N 0.51878 0.99568 0.96715 0.0
N229 N 0.53093 0.01128 0.00277 0.0
C230 C 0.52889 0.61874 0.15683 0.0
C231 C 0.51297 0.61223 0.17177 0.0
C232 C 0.53866 0.60471 0.15225 0.0
C233 C 0.53206 0.58345 0.16213 0.0
C234 C 0.50689 0.59141 0.18201 0.0
C235 C 0.51631 0.57712 0.17721 0.0
C236 C 0.54263 0.56861 0.15769 0.0
C237 C 0.50365 0.56758 0.10621 0.0
C238 C 0.51824 0.57865 0.09062 0.0
C239 C 0.51271 0.56254 0.12202 0.0
C240 C 0.53662 0.56874 0.12267 0.0
C241 C 0.54202 0.58432 0.09118 0.0
C242 C 0.55107 0.5793 0.107 0.0
C243 C 0.54642 0.56345 0.13934 0.0
C244 C 0.58768 0.4998 0.15079 0.0
C245 C 0.60674 0.51071 0.1381 0.0
C246 C 0.57427 0.51037 0.15487 0.0
C247 C 0.58005 0.53243 0.14675 0.0
C248 C 0.61177 0.53228 0.12943 0.0
C249 C 0.59859 0.543 0.13373 0.0
C250 C 0.5667 0.54449 0.15125 0.0
C251 C 0.59709 0.53621 0.20512 0.0
C252 C 0.57936 0.52225 0.21826 0.0
C253 C 0.59167 0.54523 0.18941 0.0
C254 C 0.56832 0.54002 0.1864 0.0
C255 C 0.55621 0.51777 0.21546 0.0
C256 C 0.5508 0.52664 0.19974 0.0
C257 C 0.56173 0.54846 0.1696 0.0
H258 H 0.53417 0.63496 0.14895 0.0
H259 H 0.55161 0.61072 0.14113 0.0
H260 H 0.49462 0.58603 0.19359 0.0
H261 H 0.5112 0.56104 0.18524 0.0
H262 H 0.48529 0.56306 0.10628 0.0
H263 H 0.50099 0.55376 0.13373 0.0
H264 H 0.55361 0.59243 0.07929 0.0
H265 H 0.56946 0.5839 0.10707 0.0
H266 H 0.58329 0.48325 0.15781 0.0
H267 H 0.5595 0.50136 0.16447 0.0
H268 H 0.62584 0.54089 0.11921 0.0
H269 H 0.60309 0.55977 0.127 0.0
H270 H 0.61517 0.54027 0.20704 0.0
H271 H 0.60566 0.5561 0.17956 0.0
H272 H 0.54208 0.50688 0.22519 0.0
H273 H 0.53271 0.52256 0.19778 0.0
N274 N 0.55002 0.56045 0.17206 0.0
N275 N 0.55873 0.55206 0.13686 0.0
Co276 Co 0.62364 0.37981 0.40035 0.0
O277 O 0.64958 0.38392 0.38519 0.0
O278 O 0.65175 0.4107 0.40547 0.0
C279 C 0.61174 0.34225 0.40995 0.0
O280 O 0.60112 0.38147 0.41898 0.0
Co281 Co 0.57164 0.34092 0.39098 0.0
O282 O 0.56487 0.34828 0.41619 0.0
C283 C 0.59617 0.38522 0.36845 0.0
C284 C 0.66237 0.40458 0.39333 0.0
C285 C 0.57963 0.36752 0.42471 0.0
O286 O 0.61364 0.3942 0.38003 0.0
O287 O 0.57852 0.36359 0.36963 0.0
O288 O 0.62933 0.36072 0.41812 0.0
O289 O 0.60341 0.34692 0.39529 0.0
Co290 Co 0.25418 0.62736 0.59017 0.0
O291 O 0.27705 0.62664 0.60642 0.0
O292 O 0.25198 0.59653 0.58829 0.0
C293 C 0.27949 0.66385 0.57802 0.0
O294 O 0.22915 0.62198 0.57075 0.0
Co295 Co 0.23984 0.66566 0.59478 0.0
O296 O 0.226 0.65482 0.56969 0.0
C297 C 0.21991 0.62415 0.62033 0.0
C298 C 0.26942 0.6051 0.60018 0.0
C299 C 0.22145 0.63465 0.56311 0.0
O300 O 0.22985 0.61491 0.61083 0.0
O301 O 0.22275 0.64482 0.6168 0.0
O302 O 0.27896 0.64484 0.57168 0.0
O303 O 0.26629 0.66052 0.59238 0.0
Co304 Co 0.6454 0.25645 0.73522 0.0
O305 O 0.64525 0.27907 0.71804 0.0
O306 O 0.61465 0.25374 0.73551 0.0
C307 C 0.68075 0.28274 0.74814 0.0
O308 O 0.63906 0.23154 0.75523 0.0
Co309 Co 0.68366 0.2423 0.73409 0.0
O310 O 0.67244 0.23064 0.75971 0.0
C311 C 0.64445 0.22126 0.70669 0.0
C312 C 0.62351 0.27104 0.72333 0.0
C313 C 0.65167 0.22533 0.76472 0.0
O314 O 0.63463 0.23157 0.71489 0.0
O315 O 0.66452 0.22416 0.71167 0.0
O316 O 0.66147 0.28183 0.75371 0.0
O317 O 0.67835 0.26905 0.73423 0.0
Co318 Co 0.39033 0.62545 0.90035 0.0
O319 O 0.36489 0.62034 0.88412 0.0
O320 O 0.36264 0.59403 0.90489 0.0
C321 C 0.40039 0.66278 0.90926 0.0
O322 O 0.41229 0.62468 0.92003 0.0
Co323 Co 0.44231 0.66559 0.89258 0.0
O324 O 0.44831 0.65831 0.91808 0.0
C325 C 0.42011 0.6215 0.86976 0.0
C326 C 0.35225 0.59952 0.89206 0.0
C327 C 0.43342 0.6389 0.92635 0.0
O328 O 0.40217 0.61179 0.88087 0.0
O329 O 0.4371 0.64342 0.87124 0.0
O330 O 0.3829 0.64407 0.91731 0.0
O331 O 0.40989 0.65839 0.89524 0.0
Co332 Co 0.7586 0.37633 0.08956 0.0
O333 O 0.7335 0.37594 0.10357 0.0
O334 O 0.7605 0.40697 0.08713 0.0
C335 C 0.7358 0.34024 0.07593 0.0
O336 O 0.78608 0.38275 0.07256 0.0
Co337 Co 0.77284 0.33837 0.0973 0.0
O338 O 0.793 0.35229 0.07484 0.0
C339 C 0.78601 0.37752 0.12397 0.0
C340 C 0.74168 0.39772 0.09766 0.0
C341 C 0.79681 0.37179 0.06737 0.0
O342 O 0.78015 0.38833 0.11203 0.0
O343 O 0.78212 0.35625 0.12155 0.0
O344 O 0.73663 0.35922 0.06918 0.0
O345 O 0.74682 0.34328 0.09151 0.0
Co346 Co 0.37503 0.75425 0.23595 0.0
O347 O 0.37742 0.7331 0.21857 0.0
O348 O 0.40625 0.75818 0.23756 0.0
C349 C 0.33931 0.72666 0.2476 0.0
O350 O 0.37891 0.77794 0.25624 0.0
Co351 Co 0.3352 0.76617 0.23269 0.0
O352 O 0.34596 0.78023 0.25781 0.0
C353 C 0.37553 0.7881 0.20643 0.0
C354 C 0.3989 0.7417 0.22476 0.0
C355 C 0.36607 0.78509 0.26422 0.0
O356 O 0.38625 0.77985 0.21613 0.0
O357 O 0.35434 0.78316 0.20997 0.0
O358 O 0.35859 0.72802 0.25373 0.0
O359 O 0.34203 0.7405 0.23371 0.0
C360 C 0.14634 0.59422 0.32353 0.0
C361 C 0.12755 0.58996 0.31163 0.0
C362 C 0.16988 0.60683 0.31719 0.0
C363 C 0.20603 0.62793 0.27378 0.0
H364 H 0.25454 0.67589 0.30624 0.0
C365 C 0.29503 0.70592 0.24662 0.0
C366 C 0.31575 0.71026 0.25584 0.0
C367 C 0.27265 0.68977 0.25399 0.0
C368 C 0.24121 0.66238 0.29711 0.0
H369 H 0.11876 0.59479 0.2835 0.0
H370 H 0.15959 0.61746 0.27272 0.0
H371 H 0.21423 0.64971 0.31805 0.0
H372 H 0.32938 0.70154 0.28016 0.0
H373 H 0.29007 0.67356 0.29326 0.0
H374 H 0.23287 0.64129 0.25266 0.0
C375 C 0.15626 0.61081 0.28687 0.0
C376 C 0.21814 0.6473 0.30387 0.0
C377 C 0.1328 0.59811 0.29315 0.0
C378 C 0.31368 0.69847 0.27274 0.0
C379 C 0.29125 0.68255 0.28026 0.0
C380 C 0.22897 0.64317 0.26698 0.0
C381 C 0.17514 0.6155 0.29882 0.0
C382 C 0.20016 0.63012 0.2922 0.0
C383 C 0.27053 0.6779 0.27085 0.0
C384 C 0.24669 0.66075 0.2785 0.0
H385 H 0.14293 0.58831 0.33788 0.0
H386 H 0.18395 0.60986 0.32671 0.0
H387 H 0.19281 0.61454 0.26451 0.0
H388 H 0.29608 0.71476 0.23357 0.0
H389 H 0.25695 0.68672 0.24658 0.0
C390 C 0.52866 0.12977 0.44696 0.0
C391 C 0.53539 0.12463 0.4641 0.0
C392 C 0.53657 0.15348 0.44183 0.0
C393 C 0.58379 0.21591 0.45041 0.0
H394 H 0.53912 0.23124 0.42865 0.0
C395 C 0.61028 0.31357 0.43383 0.0
C396 C 0.60194 0.31755 0.41703 0.0
C397 C 0.60162 0.29019 0.44028 0.0
C398 C 0.55188 0.22722 0.43451 0.0
H399 H 0.55575 0.14049 0.4893 0.0
H400 H 0.56987 0.18198 0.48016 0.0
H401 H 0.52533 0.19012 0.43848 0.0
H402 H 0.57785 0.30027 0.39388 0.0
H403 H 0.56304 0.25942 0.40493 0.0
H404 H 0.61045 0.25286 0.44617 0.0
C405 C 0.55852 0.16758 0.4707 0.0
C406 C 0.54396 0.20368 0.44017 0.0
C407 C 0.55048 0.14383 0.4759 0.0
C408 C 0.58456 0.29774 0.40691 0.0
C409 C 0.57599 0.27433 0.41331 0.0
C410 C 0.59175 0.23943 0.44465 0.0
C411 C 0.55153 0.17262 0.45365 0.0
C412 C 0.55986 0.19776 0.44811 0.0
C413 C 0.58451 0.27027 0.43002 0.0
C414 C 0.57591 0.24536 0.43656 0.0
H415 H 0.51746 0.11548 0.43736 0.0
H416 H 0.53123 0.15684 0.42846 0.0
H417 H 0.5965 0.21181 0.45628 0.0
H418 H 0.62357 0.32851 0.442 0.0
H419 H 0.60828 0.28774 0.45336 0.0
C420 C 0.4021 0.53 0.63306 0.0
C421 C 0.39187 0.50495 0.63449 0.0
C422 C 0.38797 0.5399 0.62954 0.0
C423 C 0.32489 0.52506 0.62998 0.0
H424 H 0.35118 0.5835 0.6007 0.0
C425 C 0.27126 0.5674 0.60119 0.0
C426 C 0.2814 0.59193 0.60538 0.0
C427 C 0.28364 0.55565 0.60513 0.0
C428 C 0.34367 0.5672 0.60894 0.0
H429 H 0.35844 0.47074 0.6335 0.0
H430 H 0.3341 0.48787 0.6263 0.0
H431 H 0.37492 0.56511 0.60617 0.0
H432 H 0.31229 0.62331 0.61717 0.0
H433 H 0.334 0.60291 0.62361 0.0
H434 H 0.29329 0.52702 0.63212 0.0
C435 C 0.35301 0.49997 0.62837 0.0
C436 C 0.35731 0.55672 0.61221 0.0
C437 C 0.36709 0.49008 0.6322 0.0
C438 C 0.30396 0.60438 0.61381 0.0
C439 C 0.31646 0.59278 0.61741 0.0
C440 C 0.31109 0.53535 0.62639 0.0
C441 C 0.36323 0.52503 0.62702 0.0
C442 C 0.34826 0.53566 0.62299 0.0
C443 C 0.30653 0.56839 0.61296 0.0
C444 C 0.32049 0.55667 0.61604 0.0
H445 H 0.42111 0.54208 0.63448 0.0
H446 H 0.39652 0.55929 0.62895 0.0
H447 H 0.31738 0.50909 0.63857 0.0
H448 H 0.25389 0.55737 0.5947 0.0
H449 H 0.27566 0.53681 0.60156 0.0
C450 C 0.86916 0.41584 0.82898 0.0
C451 C 0.88891 0.42599 0.817 0.0
C452 C 0.84614 0.40169 0.82186 0.0
C453 C 0.81488 0.36054 0.78441 0.0
H454 H 0.76252 0.37043 0.79453 0.0
C455 C 0.72503 0.30445 0.74727 0.0
C456 C 0.70412 0.29879 0.75679 0.0
C457 C 0.74726 0.32032 0.755 0.0
C458 C 0.77681 0.36711 0.79182 0.0
H459 H 0.90018 0.42968 0.78826 0.0
H460 H 0.85992 0.4045 0.77584 0.0
H461 H 0.80187 0.39818 0.80747 0.0
H462 H 0.68994 0.30483 0.78202 0.0
H463 H 0.72877 0.33174 0.79599 0.0
H464 H 0.79006 0.32909 0.76943 0.0
C465 C 0.86228 0.40773 0.79068 0.0
C466 C 0.79935 0.38314 0.79913 0.0
C467 C 0.88523 0.42224 0.79776 0.0
C468 C 0.70582 0.30902 0.77434 0.0
C469 C 0.7281 0.32459 0.78226 0.0
C470 C 0.79232 0.34428 0.7774 0.0
C471 C 0.84259 0.39709 0.80269 0.0
C472 C 0.8186 0.38011 0.79529 0.0
C473 C 0.74915 0.33057 0.77264 0.0
C474 C 0.773 0.34747 0.78081 0.0
H475 H 0.8716 0.41852 0.84387 0.0
H476 H 0.83119 0.39357 0.83137 0.0
H477 H 0.82942 0.35763 0.78153 0.0
H478 H 0.72424 0.297 0.73362 0.0
H479 H 0.76295 0.32484 0.74693 0.0
C480 C 0.45652 0.86079 0.97189 0.0
C481 C 0.46628 0.87955 0.9588 0.0
C482 C 0.44814 0.83711 0.96632 0.0
C483 C 0.4581 0.80286 0.9316 0.0
H484 H 0.39617 0.74956 0.94592 0.0
C485 C 0.42277 0.70707 0.90365 0.0
C486 C 0.40841 0.68752 0.91532 0.0
C487 C 0.42948 0.73044 0.90894 0.0
C488 C 0.41368 0.76415 0.94205 0.0
H489 H 0.47479 0.8884 0.92969 0.0
H490 H 0.46047 0.84693 0.91998 0.0
H491 H 0.40794 0.79041 0.95516 0.0
H492 H 0.39028 0.67702 0.94189 0.0
H493 H 0.40278 0.71788 0.95154 0.0
H494 H 0.46439 0.77683 0.91908 0.0
C495 C 0.45918 0.85058 0.9345 0.0
C496 C 0.42032 0.78755 0.94724 0.0
C497 C 0.46718 0.8742 0.94001 0.0
C498 C 0.40124 0.69178 0.93256 0.0
C499 C 0.40826 0.7152 0.93801 0.0
C500 C 0.45166 0.77946 0.92666 0.0
C501 C 0.44977 0.83187 0.94763 0.0
C502 C 0.44253 0.8071 0.94199 0.0
C503 C 0.42231 0.73484 0.92619 0.0
C504 C 0.42931 0.75977 0.93174 0.0
H505 H 0.45558 0.86449 0.98645 0.0
H506 H 0.44106 0.823 0.97671 0.0
H507 H 0.4755 0.81764 0.92762 0.0
H508 H 0.42841 0.70429 0.89021 0.0
H509 H 0.43992 0.74498 0.89931 0.0
C510 C 0.61079 0.47459 0.13302 0.0
C511 C 0.62131 0.49971 0.13387 0.0
C512 C 0.62449 0.46433 0.12901 0.0
C513 C 0.68716 0.47837 0.12737 0.0
H514 H 0.65913 0.41968 0.0983 0.0
C515 C 0.73982 0.43542 0.09849 0.0
C516 C 0.72928 0.4107 0.10212 0.0
C517 C 0.72744 0.44721 0.10231 0.0
C518 C 0.66714 0.43604 0.10648 0.0
H519 H 0.65477 0.5337 0.13142 0.0
H520 H 0.67834 0.51589 0.12355 0.0
H521 H 0.63598 0.43849 0.10475 0.0
H522 H 0.6976 0.37898 0.11263 0.0
H523 H 0.67599 0.39946 0.11896 0.0
H524 H 0.71855 0.47599 0.12865 0.0
C525 C 0.65956 0.50404 0.12636 0.0
C526 C 0.65385 0.44676 0.1103 0.0
C527 C 0.64592 0.51429 0.1306 0.0
C528 C 0.70624 0.39805 0.1097 0.0
C529 C 0.69379 0.40971 0.11323 0.0
C530 C 0.70057 0.46779 0.12331 0.0
C531 C 0.64904 0.47891 0.12551 0.0
C532 C 0.66356 0.46794 0.12098 0.0
C533 C 0.70421 0.43436 0.10951 0.0
C534 C 0.69058 0.44638 0.11301 0.0
H535 H 0.59187 0.46275 0.13523 0.0
H536 H 0.61578 0.44491 0.1288 0.0
H537 H 0.69515 0.49445 0.13586 0.0
H538 H 0.75756 0.44561 0.09267 0.0
H539 H 0.73582 0.46623 0.09928 0.0
C540 C 0.39864 0.8723 0.52519 0.0
C541 C 0.42024 0.87876 0.51643 0.0
C542 C 0.38351 0.84878 0.53133 0.0
C543 C 0.38187 0.792 0.54237 0.0
H544 H 0.31367 0.76485 0.53896 0.0
C545 C 0.31287 0.69186 0.55717 0.0
C546 C 0.2947 0.68782 0.56966 0.0
C547 C 0.32808 0.71484 0.54996 0.0
C548 C 0.33267 0.77227 0.54006 0.0
H549 H 0.44305 0.86584 0.50715 0.0
H550 H 0.41631 0.82444 0.51739 0.0
H551 H 0.34067 0.80547 0.52755 0.0
H552 H 0.27781 0.70442 0.58407 0.0
H553 H 0.30414 0.74452 0.57117 0.0
H554 H 0.37364 0.75841 0.55455 0.0
C555 C 0.41124 0.83764 0.51994 0.0
C556 C 0.34819 0.79558 0.53362 0.0
C557 C 0.42654 0.86131 0.51401 0.0
C558 C 0.29168 0.70703 0.57449 0.0
C559 C 0.30667 0.72993 0.56707 0.0
C560 C 0.36632 0.76855 0.54858 0.0
C561 C 0.38948 0.83105 0.52863 0.0
C562 C 0.373 0.80587 0.53487 0.0
C563 C 0.32515 0.73409 0.55489 0.0
C564 C 0.3416 0.75857 0.54763 0.0
H565 H 0.39354 0.88553 0.52746 0.0
H566 H 0.36722 0.84458 0.53837 0.0
H567 H 0.40082 0.7994 0.54383 0.0
H568 H 0.31562 0.67737 0.55322 0.0
H569 H 0.34209 0.71756 0.54049 0.0
C570 C 0.54332 0.39549 0.67385 0.0
C571 C 0.51857 0.38503 0.67519 0.0
C572 C 0.55397 0.38232 0.6786 0.0
C573 C 0.54051 0.31987 0.68691 0.0
H574 H 0.60214 0.35313 0.71115 0.0
C575 C 0.58598 0.27225 0.72088 0.0
C576 C 0.61016 0.28219 0.71654 0.0
C577 C 0.57396 0.28385 0.71531 0.0
C578 C 0.58499 0.34365 0.70428 0.0
H579 H 0.48554 0.35273 0.6827 0.0
H580 H 0.50413 0.32989 0.69149 0.0
H581 H 0.5828 0.3753 0.70285 0.0
H582 H 0.64059 0.31179 0.70268 0.0
H583 H 0.61971 0.33206 0.69319 0.0
H584 H 0.54267 0.28805 0.68886 0.0
C585 C 0.51532 0.34804 0.68632 0.0
C586 C 0.57393 0.35635 0.69943 0.0
C587 C 0.50465 0.36113 0.68135 0.0
C588 C 0.62196 0.30367 0.70626 0.0
C589 C 0.61007 0.31537 0.70091 0.0
C590 C 0.55149 0.30708 0.692 0.0
C591 C 0.54014 0.35848 0.68503 0.0
C592 C 0.55163 0.3447 0.69053 0.0
C593 C 0.58603 0.30572 0.70553 0.0
C594 C 0.57393 0.31892 0.70057 0.0
H595 H 0.55442 0.41378 0.66891 0.0
H596 H 0.57305 0.39082 0.67703 0.0
H597 H 0.52352 0.31034 0.67985 0.0
H598 H 0.57642 0.25571 0.72877 0.0
H599 H 0.55544 0.27608 0.7191 0.0
C600 C 0.14826 0.51977 0.846 0.0
C601 C 0.1302 0.50593 0.85893 0.0
C602 C 0.17169 0.52586 0.84932 0.0
C603 C 0.21219 0.53249 0.88759 0.0
H604 H 0.25361 0.53808 0.84697 0.0
C605 C 0.31146 0.56458 0.899 0.0
C606 C 0.32691 0.58357 0.88723 0.0
C607 C 0.28701 0.55125 0.89527 0.0
C608 C 0.24223 0.53656 0.85844 0.0
H609 H 0.12269 0.48744 0.88545 0.0
H610 H 0.16343 0.49747 0.89098 0.0
H611 H 0.21138 0.52183 0.84106 0.0
H612 H 0.32916 0.60278 0.86189 0.0
H613 H 0.28669 0.57944 0.85532 0.0
H614 H 0.24316 0.54748 0.9049 0.0
C615 C 0.15952 0.50394 0.87839 0.0
C616 C 0.21807 0.52737 0.85507 0.0
C617 C 0.13609 0.49795 0.87511 0.0
C618 C 0.31767 0.5883 0.87126 0.0
C619 C 0.29336 0.57483 0.86742 0.0
C620 C 0.23632 0.54151 0.89098 0.0
C621 C 0.17765 0.51814 0.86561 0.0
C622 C 0.20285 0.52571 0.86952 0.0
C623 C 0.27771 0.55648 0.87956 0.0
C624 C 0.25167 0.54411 0.87637 0.0
H625 H 0.14431 0.52593 0.83326 0.0
H626 H 0.18521 0.53708 0.83928 0.0
H627 H 0.20109 0.53177 0.89901 0.0
H628 H 0.3181 0.56056 0.91141 0.0
H629 H 0.27535 0.53708 0.90478 0.0
C630 C 0.60986 0.14602 0.9975 0.0
C631 C 0.60462 0.12676 0.0095 0.0
C632 C 0.62536 0.16979 0.0031 0.0
C633 C 0.67385 0.20623 0.03585 0.0
H634 H 0.65494 0.25344 0.03003 0.0
C635 C 0.72032 0.29612 0.07537 0.0
C636 C 0.72294 0.31665 0.06656 0.0
C637 C 0.70727 0.27358 0.06693 0.0
C638 C 0.66072 0.24063 0.03147 0.0
H639 H 0.61126 0.11756 0.03696 0.0
H640 H 0.6386 0.1589 0.0465 0.0
H641 H 0.62955 0.2129 0.01778 0.0
H642 H 0.71454 0.32987 0.04179 0.0
H643 H 0.69214 0.29055 0.02683 0.0
H644 H 0.705 0.23382 0.0495 0.0
C645 C 0.6309 0.15556 0.0327 0.0
C646 C 0.64613 0.21739 0.02449 0.0
C647 C 0.61527 0.13187 0.02719 0.0
C648 C 0.71268 0.3143 0.04896 0.0
C649 C 0.69973 0.29176 0.04045 0.0
C650 C 0.68853 0.2295 0.04269 0.0
C651 C 0.6361 0.17476 0.02073 0.0
C652 C 0.65237 0.19987 0.02688 0.0
C653 C 0.6967 0.27108 0.04941 0.0
C654 C 0.68197 0.24688 0.04087 0.0
H655 H 0.60224 0.14275 0.98369 0.0
H656 H 0.62921 0.18427 0.99355 0.0
H657 H 0.67927 0.19316 0.03762 0.0
H658 H 0.72797 0.29736 0.08897 0.0
H659 H 0.70499 0.25803 0.07438 0.0
C660 C 0.50387 0.635 0.1951 0.0
C661 C 0.50281 0.62722 0.17671 0.0
C662 C 0.49425 0.64916 0.19973 0.0
C663 C 0.44826 0.66119 0.1862 0.0
H664 H 0.48475 0.72126 0.21309 0.0
C665 C 0.4086 0.72029 0.20087 0.0
C666 C 0.41365 0.73215 0.21806 0.0
C667 C 0.42109 0.70936 0.19508 0.0
C668 C 0.47416 0.70437 0.20582 0.0
H669 H 0.49081 0.62791 0.14878 0.0
H670 H 0.47341 0.65222 0.15699 0.0
H671 H 0.50316 0.69802 0.20489 0.0
H672 H 0.43596 0.74232 0.24257 0.0
H673 H 0.45713 0.72237 0.23291 0.0
H674 H 0.41895 0.66668 0.18771 0.0
C675 C 0.48191 0.64756 0.16774 0.0
C676 C 0.48479 0.69116 0.20105 0.0
C677 C 0.49192 0.63378 0.16304 0.0
C678 C 0.43183 0.73341 0.22918 0.0
C679 C 0.44402 0.72203 0.22357 0.0
C680 C 0.4375 0.67413 0.19124 0.0
C681 C 0.48302 0.65539 0.18612 0.0
C682 C 0.47193 0.66951 0.19115 0.0
C683 C 0.43857 0.70954 0.20654 0.0
C684 C 0.45031 0.69598 0.20105 0.0
H685 H 0.51231 0.63028 0.20585 0.0
H686 H 0.49517 0.65487 0.21402 0.0
H687 H 0.43789 0.64436 0.17877 0.0
H688 H 0.39484 0.71929 0.19191 0.0
H689 H 0.41682 0.70058 0.18165 0.0
C690 C 0.87776 0.49171 0.38204 0.0
C691 C 0.88454 0.49013 0.36384 0.0
C692 C 0.8543 0.48529 0.3859 0.0
C693 C 0.79884 0.47411 0.36223 0.0
H694 H 0.76864 0.44157 0.40828 0.0
C695 C 0.6975 0.4162 0.37313 0.0
C696 C 0.68812 0.41948 0.38965 0.0
C697 C 0.72205 0.42827 0.37033 0.0
C698 C 0.77698 0.45095 0.39548 0.0
H699 H 0.87215 0.47982 0.33555 0.0
H700 H 0.83112 0.46771 0.3423 0.0
H701 H 0.81037 0.45489 0.40288 0.0
H702 H 0.69692 0.43827 0.41604 0.0
H703 H 0.74012 0.45902 0.4113 0.0
H704 H 0.76497 0.46898 0.35453 0.0
C705 C 0.84393 0.47475 0.35354 0.0
C706 C 0.80091 0.45864 0.39237 0.0
C707 C 0.8674 0.48149 0.34966 0.0
C708 C 0.70372 0.43554 0.40314 0.0
C709 C 0.72836 0.44727 0.40049 0.0
C710 C 0.77485 0.46609 0.36523 0.0
C711 C 0.83709 0.47684 0.37166 0.0
C712 C 0.81207 0.47001 0.37557 0.0
C713 C 0.73771 0.44351 0.38414 0.0
C714 C 0.76365 0.45419 0.38178 0.0
H715 H 0.89075 0.49853 0.39317 0.0
H716 H 0.8498 0.48741 0.39996 0.0
H717 H 0.80694 0.48336 0.34934 0.0
H718 H 0.68587 0.40394 0.3625 0.0
H719 H 0.72882 0.42495 0.35766 0.0
C720 C 0.0923 0.54927 0.42515 0.0
C721 C 0.08526 0.56489 0.41814 0.0
C722 C 0.10693 0.55557 0.44085 0.0
C723 C 0.12555 0.59524 0.48197 0.0
H724 H 0.17831 0.58433 0.48406 0.0
C725 C 0.19782 0.63924 0.53785 0.0
C726 C 0.20612 0.6254 0.54632 0.0
C727 C 0.18293 0.63062 0.52237 0.0
C728 C 0.16345 0.5872 0.48378 0.0
H729 H 0.08805 0.59937 0.42219 0.0
H730 H 0.11383 0.61053 0.44933 0.0
H731 H 0.15261 0.57167 0.45662 0.0
H732 H 0.20544 0.59166 0.54483 0.0
H733 H 0.17919 0.57652 0.51771 0.0
H734 H 0.13636 0.61085 0.509 0.0
C735 C 0.10787 0.59328 0.44281 0.0
C736 C 0.14875 0.57997 0.46806 0.0
C737 C 0.09332 0.58702 0.42711 0.0
C738 C 0.19937 0.60279 0.53869 0.0
C739 C 0.18442 0.59415 0.5231 0.0
C740 C 0.1402 0.60243 0.49763 0.0
C741 C 0.11474 0.57759 0.44994 0.0
C742 C 0.12981 0.58421 0.46689 0.0
C743 C 0.17586 0.60791 0.51489 0.0
C744 C 0.15952 0.59881 0.49863 0.0
H745 H 0.08659 0.53219 0.41844 0.0
H746 H 0.11179 0.54303 0.44605 0.0
H747 H 0.1108 0.59827 0.4817 0.0
H748 H 0.20275 0.65682 0.5432 0.0
H749 H 0.17706 0.64189 0.51617 0.0
C750 C 0.55328 0.07537 0.58009 0.0
C751 C 0.5435 0.08173 0.56532 0.0
C752 C 0.56387 0.09078 0.59522 0.0
C753 C 0.56387 0.13779 0.62235 0.0
H754 H 0.62833 0.15628 0.63582 0.0
C755 C 0.61586 0.20811 0.67994 0.0
C756 C 0.63204 0.2052 0.69074 0.0
C757 C 0.60482 0.19336 0.6645 0.0
C758 C 0.61018 0.15101 0.63252 0.0
H759 H 0.5373 0.10957 0.55515 0.0
H760 H 0.55494 0.13594 0.58202 0.0
H761 H 0.60914 0.12955 0.60949 0.0
H762 H 0.64871 0.18403 0.69424 0.0
H763 H 0.62875 0.15769 0.66797 0.0
H764 H 0.56439 0.15841 0.64571 0.0
C765 C 0.55445 0.119 0.58167 0.0
C766 C 0.59928 0.13582 0.61733 0.0
C767 C 0.54423 0.10379 0.56634 0.0
C768 C 0.63656 0.18693 0.68604 0.0
C769 C 0.62521 0.17192 0.67085 0.0
C770 C 0.5746 0.15265 0.63779 0.0
C771 C 0.56454 0.11271 0.59615 0.0
C772 C 0.57605 0.12907 0.61212 0.0
C773 C 0.60939 0.17508 0.6597 0.0
C774 C 0.59791 0.15945 0.64312 0.0
H775 H 0.55258 0.05834 0.58011 0.0
H776 H 0.57131 0.08543 0.60635 0.0
H777 H 0.54585 0.13266 0.61865 0.0
H778 H 0.61214 0.22215 0.68316 0.0
H779 H 0.59307 0.19666 0.65614 0.0
C780 C 0.41844 0.49064 0.74455 0.0
C781 C 0.43845 0.50302 0.73293 0.0
C782 C 0.41544 0.50222 0.7598 0.0
C783 C 0.44968 0.55384 0.7912 0.0
H784 H 0.38857 0.54674 0.80237 0.0
C785 C 0.4408 0.61669 0.84228 0.0
C786 C 0.42135 0.6067 0.85458 0.0
C787 C 0.44212 0.60291 0.82798 0.0
C788 C 0.40568 0.54865 0.79958 0.0
H789 H 0.47045 0.53754 0.7278 0.0
H790 H 0.46529 0.55761 0.75435 0.0
H791 H 0.39209 0.52462 0.7763 0.0
H792 H 0.38791 0.57422 0.86133 0.0
H793 H 0.39039 0.5501 0.83639 0.0
H794 H 0.46335 0.57788 0.81436 0.0
C795 C 0.45217 0.53883 0.75193 0.0
C796 C 0.40769 0.53599 0.78465 0.0
C797 C 0.45513 0.52731 0.73671 0.0
C798 C 0.40317 0.58253 0.85213 0.0
C799 C 0.40451 0.56872 0.83778 0.0
C800 C 0.44767 0.56643 0.80611 0.0
C801 C 0.43242 0.52639 0.76374 0.0
C802 C 0.4298 0.53871 0.78015 0.0
C803 C 0.42405 0.57875 0.82558 0.0
C804 C 0.42573 0.56424 0.81034 0.0
H805 H 0.40537 0.47186 0.7421 0.0
H806 H 0.40012 0.49212 0.76873 0.0
H807 H 0.46686 0.55594 0.78834 0.0
H808 H 0.45509 0.63525 0.84363 0.0
H809 H 0.45722 0.61132 0.81863 0.0
C810 C 0.93826 0.45966 0.93677 0.0
C811 C 0.93594 0.44233 0.92389 0.0
C812 C 0.92372 0.4528 0.95253 0.0
C813 C 0.88345 0.3989 0.98114 0.0
H814 H 0.86353 0.4411 0.00132 0.0
C815 C 0.83195 0.37632 0.05008 0.0
C816 C 0.81402 0.3819 0.05184 0.0
C817 C 0.84756 0.38485 0.03498 0.0
C818 C 0.86867 0.42893 0.99578 0.0
H819 H 0.91628 0.40444 0.91699 0.0
H820 H 0.89024 0.39247 0.94403 0.0
H821 H 0.88812 0.45303 0.97355 0.0
H822 H 0.79846 0.40093 0.03921 0.0
H823 H 0.82504 0.41504 0.01244 0.0
H824 H 0.863 0.37423 0.0027 0.0
C825 C 0.9038 0.41127 0.94245 0.0
C826 C 0.88315 0.43598 0.97997 0.0
C827 C 0.91861 0.41809 0.92688 0.0
C828 C 0.81222 0.39647 0.03829 0.0
C829 C 0.82757 0.40466 0.02298 0.0
C830 C 0.86869 0.39171 0.99675 0.0
C831 C 0.90625 0.42849 0.95559 0.0
C832 C 0.89078 0.42107 0.97244 0.0
C833 C 0.84536 0.3988 0.02103 0.0
C834 C 0.86115 0.40664 0.00436 0.0
H835 H 0.95165 0.47846 0.93482 0.0
H836 H 0.92648 0.46655 0.96245 0.0
H837 H 0.88922 0.38706 0.97601 0.0
H838 H 0.83398 0.36536 0.06042 0.0
H839 H 0.86137 0.38046 0.03429 0.0
C840 C 0.46043 0.90007 0.06129 0.0
C841 C 0.47702 0.92471 0.0637 0.0
C842 C 0.45048 0.88494 0.07667 0.0
C843 C 0.42096 0.86097 0.11104 0.0
H844 H 0.45853 0.86799 0.15483 0.0
C845 C 0.37745 0.81439 0.18011 0.0
C846 C 0.38813 0.80399 0.19035 0.0
C847 C 0.38895 0.82895 0.16474 0.0
C848 C 0.44784 0.86567 0.14265 0.0
H849 H 0.49619 0.95278 0.08416 0.0
H850 H 0.47871 0.92641 0.11102 0.0
H851 H 0.47772 0.89323 0.12764 0.0
H852 H 0.4195 0.80097 0.19242 0.0
H853 H 0.43946 0.82626 0.16544 0.0
H854 H 0.39117 0.83321 0.12588 0.0
C855 C 0.47368 0.9187 0.09723 0.0
C856 C 0.45878 0.88031 0.12715 0.0
C857 C 0.48367 0.93382 0.08184 0.0
C858 C 0.41075 0.80872 0.1849 0.0
C859 C 0.42226 0.82331 0.16948 0.0
C860 C 0.41004 0.84636 0.12652 0.0
C861 C 0.45683 0.89411 0.09483 0.0
C862 C 0.44544 0.87819 0.11119 0.0
C863 C 0.41141 0.83347 0.15916 0.0
C864 C 0.4233 0.84863 0.14255 0.0
H865 H 0.45525 0.89241 0.04749 0.0
H866 H 0.43787 0.86601 0.07432 0.0
H867 H 0.4101 0.85903 0.09907 0.0
H868 H 0.36013 0.81131 0.18393 0.0
H869 H 0.38027 0.83684 0.1573 0.0
C870 C 0.59824 0.50084 0.23266 0.0
C871 C 0.58461 0.51175 0.23461 0.0
C872 C 0.6014 0.48913 0.24773 0.0
C873 C 0.61393 0.47449 0.28442 0.0
H874 H 0.55779 0.43431 0.3142 0.0
C875 C 0.61539 0.42436 0.35085 0.0
C876 C 0.59619 0.40066 0.3532 0.0
C877 C 0.61508 0.43892 0.33662 0.0
C878 C 0.57361 0.44535 0.30597 0.0
H879 H 0.56473 0.52009 0.25417 0.0
H880 H 0.57031 0.49977 0.28044 0.0
H881 H 0.55577 0.45828 0.28906 0.0
H882 H 0.56175 0.37367 0.34217 0.0
H883 H 0.56135 0.39894 0.31741 0.0
H884 H 0.63156 0.46102 0.30115 0.0
C885 C 0.57813 0.49979 0.26717 0.0
C886 C 0.57254 0.45933 0.29169 0.0
C887 C 0.57494 0.51145 0.25212 0.0
C888 C 0.57681 0.39184 0.34088 0.0
C889 C 0.5765 0.40639 0.32672 0.0
C890 C 0.61501 0.46052 0.29877 0.0
C891 C 0.59103 0.48812 0.26508 0.0
C892 C 0.59263 0.47399 0.28068 0.0
C893 C 0.59555 0.43014 0.32448 0.0
C894 C 0.59479 0.44564 0.30961 0.0
H895 H 0.60571 0.50054 0.21931 0.0
H896 H 0.61124 0.48012 0.2456 0.0
H897 H 0.62977 0.48574 0.27628 0.0
H898 H 0.63064 0.43177 0.36005 0.0
H899 H 0.62996 0.4572 0.33535 0.0
C900 C 0.42149 0.91336 0.40273 0.0
C901 C 0.44451 0.92181 0.40967 0.0
C902 C 0.41325 0.89842 0.38712 0.0
C903 C 0.42366 0.85705 0.35908 0.0
H904 H 0.388 0.86814 0.3215 0.0
C905 C 0.39801 0.80751 0.28818 0.0
C906 C 0.37519 0.80009 0.28124 0.0
C907 C 0.40669 0.82216 0.30397 0.0
C908 C 0.39769 0.86461 0.33196 0.0
H909 H 0.47702 0.92137 0.40546 0.0
H910 H 0.46259 0.89522 0.37825 0.0
H911 H 0.40263 0.89402 0.34879 0.0
H912 H 0.34346 0.80197 0.28577 0.0
H913 H 0.35849 0.82717 0.3133 0.0
H914 H 0.41865 0.82757 0.34225 0.0
C915 C 0.4508 0.8999 0.38505 0.0
C916 C 0.40608 0.87946 0.34761 0.0
C917 C 0.45906 0.91488 0.40065 0.0
C918 C 0.36118 0.80744 0.2906 0.0
C919 C 0.36985 0.82204 0.30636 0.0
C920 C 0.41523 0.84215 0.34343 0.0
C921 C 0.42782 0.89154 0.37808 0.0
C922 C 0.4191 0.87582 0.36138 0.0
C923 C 0.39276 0.82972 0.31317 0.0
C924 C 0.40207 0.84571 0.32971 0.0
H925 H 0.40969 0.91803 0.40952 0.0
H926 H 0.39532 0.89198 0.38227 0.0
H927 H 0.43338 0.85358 0.36956 0.0
H928 H 0.40931 0.80224 0.28133 0.0
H929 H 0.42451 0.82794 0.30875 0.0
C930 C 0.48916 0.39832 0.56287 0.0
C931 C 0.50292 0.42038 0.57216 0.0
C932 C 0.49774 0.39322 0.54681 0.0
C933 C 0.5532 0.41023 0.52167 0.0
H934 H 0.51087 0.37951 0.47982 0.0
C935 C 0.5862 0.39617 0.45077 0.0
C936 C 0.57145 0.37416 0.44167 0.0
C937 C 0.57819 0.40239 0.46662 0.0
C938 C 0.52287 0.38785 0.49145 0.0
H939 H 0.53635 0.45456 0.57159 0.0
H940 H 0.55135 0.44556 0.54366 0.0
H941 H 0.49613 0.38912 0.50758 0.0
H942 H 0.53678 0.34129 0.44236 0.0
H943 H 0.52306 0.35198 0.47002 0.0
H944 H 0.57989 0.40878 0.5056 0.0
C945 C 0.53405 0.43209 0.54895 0.0
C946 C 0.51441 0.39337 0.50736 0.0
C947 C 0.52545 0.43723 0.56497 0.0
C948 C 0.5486 0.35847 0.44889 0.0
C949 C 0.54064 0.36466 0.46473 0.0
C950 C 0.56166 0.40465 0.50577 0.0
C951 C 0.5203 0.41003 0.53969 0.0
C952 C 0.52944 0.40453 0.52268 0.0
C953 C 0.55527 0.38673 0.47374 0.0
C954 C 0.54655 0.39327 0.4905 0.0
H955 H 0.47189 0.3848 0.56818 0.0
H956 H 0.48685 0.37592 0.54015 0.0
H957 H 0.56515 0.41858 0.53333 0.0
H958 H 0.60389 0.40872 0.44559 0.0
H959 H 0.58983 0.41964 0.47313 0.0
C960 C 0.07914 0.53146 0.74803 0.0
C961 C 0.08517 0.52107 0.76257 0.0
C962 C 0.0935 0.54059 0.73226 0.0
C963 C 0.15453 0.5608 0.71507 0.0
H964 H 0.12605 0.55919 0.66743 0.0
C965 C 0.20705 0.59285 0.64535 0.0
C966 C 0.20418 0.61022 0.63599 0.0
C967 C 0.19246 0.58024 0.66048 0.0
C968 C 0.1342 0.55972 0.68066 0.0
H969 H 0.11119 0.51206 0.77164 0.0
H970 H 0.13549 0.5268 0.74375 0.0
H971 H 0.10055 0.53963 0.69425 0.0
H972 H 0.18343 0.62755 0.63485 0.0
H973 H 0.15763 0.60508 0.66092 0.0
H974 H 0.1882 0.58053 0.70113 0.0
C975 C 0.11996 0.52849 0.74476 0.0
C976 C 0.11964 0.54869 0.69609 0.0
C977 C 0.10577 0.51967 0.76069 0.0
C978 C 0.18617 0.61439 0.64184 0.0
C979 C 0.17132 0.60145 0.65667 0.0
C980 C 0.16906 0.57146 0.69953 0.0
C981 C 0.11412 0.53924 0.73036 0.0
C982 C 0.12961 0.54946 0.71362 0.0
C983 C 0.17442 0.58439 0.6662 0.0
C984 C 0.15903 0.57137 0.68228 0.0
H985 H 0.06323 0.53251 0.74874 0.0
H986 H 0.08853 0.54906 0.72168 0.0
H987 H 0.16295 0.56212 0.72833 0.0
H988 H 0.22082 0.58931 0.6412 0.0
H989 H 0.19512 0.56711 0.66761 0.0
C990 C 0.55343 0.08073 0.89174 0.0
C991 C 0.56722 0.08555 0.90796 0.0
C992 C 0.56197 0.09666 0.87668 0.0
C993 C 0.61648 0.14021 0.85378 0.0
H994 H 0.57997 0.16559 0.8318 0.0
C995 C 0.65655 0.21136 0.79587 0.0
C996 C 0.64149 0.21067 0.78171 0.0
C997 C 0.64715 0.19697 0.81168 0.0
C998 C 0.59027 0.1584 0.83753 0.0
H999 H 0.60068 0.11152 0.92105 0.0
H1000 H 0.61588 0.13859 0.89442 0.0
H1001 H 0.56387 0.1383 0.85834 0.0
H1002 H 0.60475 0.19445 0.77299 0.0
H1003 H 0.58832 0.16847 0.80014 0.0
H1004 H 0.64244 0.15923 0.83273 0.0
C1005 C 0.59842 0.12246 0.89351 0.0
C1006 C 0.58107 0.14289 0.85281 0.0
C1007 C 0.58974 0.10681 0.9087 0.0
C1008 C 0.61678 0.19546 0.78375 0.0
C1009 C 0.60738 0.18066 0.79941 0.0
C1010 C 0.62549 0.15531 0.83831 0.0
C1011 C 0.58463 0.11751 0.87737 0.0
C1012 C 0.59417 0.13379 0.86113 0.0
C1013 C 0.62245 0.18109 0.81356 0.0
C1014 C 0.61261 0.16479 0.83002 0.0
H1015 H 0.53622 0.06441 0.89045 0.0
H1016 H 0.55111 0.09235 0.8643 0.0
H1017 H 0.62678 0.13315 0.85982 0.0
H1018 H 0.67566 0.22318 0.79481 0.0
H1019 H 0.65935 0.1984 0.82244 0.0
C1020 C 0.52268 0.60613 0.06432 0.0
C1021 C 0.50873 0.5843 0.07386 0.0
C1022 C 0.5139 0.61143 0.04849 0.0
C1023 C 0.45825 0.59556 0.0239 0.0
H1024 H 0.50043 0.6253 0.98181 0.0
C1025 C 0.42598 0.61034 0.95273 0.0
C1026 C 0.4411 0.63225 0.94361 0.0
C1027 C 0.43361 0.60396 0.96873 0.0
C1028 C 0.48848 0.61724 0.99351 0.0
H1029 H 0.47461 0.55086 0.07412 0.0
H1030 H 0.45927 0.56017 0.04648 0.0
H1031 H 0.51489 0.61518 0.00946 0.0
H1032 H 0.476 0.66482 0.94447 0.0
H1033 H 0.4891 0.65381 0.97235 0.0
H1034 H 0.43186 0.59772 0.00792 0.0
C1035 C 0.47691 0.5733 0.0514 0.0
C1036 C 0.49678 0.61143 0.00936 0.0
C1037 C 0.48571 0.56797 0.06725 0.0
C1038 C 0.4639 0.64772 0.95101 0.0
C1039 C 0.4715 0.64135 0.96697 0.0
C1040 C 0.44994 0.6014 0.00802 0.0
C1041 C 0.49095 0.59505 0.0418 0.0
C1042 C 0.48183 0.60067 0.0248 0.0
C1043 C 0.45654 0.61933 0.97595 0.0
C1044 C 0.46502 0.61247 0.99269 0.0
H1045 H 0.54032 0.6193 0.06923 0.0
H1046 H 0.52502 0.62853 0.04161 0.0
H1047 H 0.44635 0.58752 0.03563 0.0
H1048 H 0.40831 0.59797 0.94743 0.0
H1049 H 0.42172 0.58678 0.97523 0.0
C1050 C 0.92506 0.46468 0.25349 0.0
C1051 C 0.92519 0.48302 0.26385 0.0
C1052 C 0.90947 0.4542 0.23852 0.0
C1053 C 0.86858 0.46224 0.20716 0.0
H1054 H 0.84496 0.39503 0.19687 0.0
C1055 C 0.81529 0.41543 0.14042 0.0
C1056 C 0.799 0.39055 0.1409 0.0
C1057 C 0.82948 0.42721 0.15591 0.0
C1058 C 0.85095 0.4137 0.19966 0.0
H1059 H 0.90929 0.50485 0.26698 0.0
H1060 H 0.88109 0.48577 0.24142 0.0
H1061 H 0.87127 0.41415 0.22294 0.0
H1062 H 0.7836 0.35871 0.15824 0.0
H1063 H 0.80715 0.37933 0.18557 0.0
H1064 H 0.8471 0.46133 0.18446 0.0
C1065 C 0.89351 0.47994 0.24432 0.0
C1066 C 0.86657 0.42489 0.21448 0.0
C1067 C 0.90953 0.49079 0.25904 0.0
C1068 C 0.79628 0.37788 0.15742 0.0
C1069 C 0.81 0.38972 0.17304 0.0
C1070 C 0.85252 0.45089 0.19253 0.0
C1071 C 0.8932 0.46141 0.23386 0.0
C1072 C 0.87589 0.44941 0.21834 0.0
C1073 C 0.82729 0.41444 0.17238 0.0
C1074 C 0.84361 0.42648 0.18846 0.0
H1075 H 0.93721 0.45862 0.25688 0.0
H1076 H 0.91033 0.44051 0.23057 0.0
H1077 H 0.8755 0.4812 0.20949 0.0
H1078 H 0.81784 0.4256 0.12779 0.0
H1079 H 0.84274 0.44615 0.15468 0.0
loop_
_geom_bond_atom_site_label_1
_geom_bond_atom_site_label_2
_geom_bond_distance
_geom_bond_site_symmetry_2
_ccdc_geom_bond_type
C0 C1 1.384 . S
C0 C2 1.384 . S
C0 H28 0.931 . S
C1 C0 1.384 . S
C1 C4 1.382 . S
C2 C0 1.384 . S
C2 C3 1.381 . S
C2 H29 0.930 . S
C3 C2 1.381 . S
C3 C5 1.381 . S
C3 C6 1.487 . S
C4 C1 1.382 . S
C4 C5 1.387 . S
C4 H30 0.930 . S
C5 C3 1.381 . S
C5 C4 1.387 . S
C5 H31 0.931 . S
C6 C3 1.487 . S
C6 C13 1.399 . S
C6 N44 1.343 1_655 S
C7 C8 1.384 . S
C7 C9 1.384 . S
C7 H32 0.931 . S
C8 C7 1.384 . S
C8 C11 1.382 . S
C9 C7 1.384 . S
C9 C10 1.381 . S
C9 H33 0.930 . S
C10 C9 1.381 . S
C10 C12 1.381 . S
C10 C13 1.487 . S
C11 C8 1.382 . S
C11 C12 1.387 . S
C11 H34 0.930 . S
C12 C10 1.381 . S
C12 C11 1.387 . S
C12 H35 0.931 . S
C13 C6 1.399 . S
C13 C10 1.487 . S
C13 N45 1.343 1_655 S
C14 C15 1.384 . S
C14 C16 1.384 . S
C14 H36 0.931 . S
C15 C14 1.384 . S
C15 C18 1.382 . S
C16 C14 1.384 . S
C16 C17 1.381 . S
C16 H37 0.930 . S
C17 C16 1.381 . S
C17 C19 1.381 . S
C17 C20 1.487 . S
C18 C15 1.382 . S
C18 C19 1.387 . S
C18 H38 0.930 . S
C19 C17 1.381 . S
C19 C18 1.387 . S
C19 H39 0.931 . S
C20 C17 1.487 . S
C20 C27 1.399 . S
C20 N45 1.343 . S
C21 C22 1.384 . S
C21 C23 1.384 . S
C21 H40 0.931 . S
C22 C21 1.384 . S
C22 C25 1.382 . S
C23 C21 1.384 . S
C23 C24 1.381 . S
C23 H41 0.930 . S
C24 C23 1.381 . S
C24 C26 1.381 . S
C24 C27 1.487 . S
C25 C22 1.382 . S
C25 C26 1.387 . S
C25 H42 0.930 . S
C26 C24 1.381 . S
C26 C25 1.387 . S
C26 H43 0.931 . S
C27 C20 1.399 . S
C27 C24 1.487 . S
C27 N44 1.343 . S
H28 C0 0.931 . S
H29 C2 0.930 . S
H30 C4 0.930 . S
H31 C5 0.931 . S
H32 C7 0.931 . S
H33 C9 0.930 . S
H34 C11 0.930 . S
H35 C12 0.931 . S
H36 C14 0.931 . S
H37 C16 0.930 . S
H38 C18 0.930 . S
H39 C19 0.931 . S
H40 C21 0.931 . S
H41 C23 0.930 . S
H42 C25 0.930 . S
H43 C26 0.931 . S
N44 C6 1.343 1_455 S
N44 C27 1.343 . S
N45 C13 1.343 1_455 S
N45 C20 1.343 . S
C46 C47 1.384 . S
C46 C48 1.384 . S
C46 H74 0.931 . S
C47 C46 1.384 . S
C47 C50 1.382 . S
C48 C46 1.384 . S
C48 C49 1.381 . S
C48 H75 0.930 . S
C49 C48 1.381 . S
C49 C51 1.381 . S
C49 C52 1.487 . S
C50 C47 1.382 . S
C50 C51 1.387 . S
C50 H76 0.930 . S
C51 C49 1.381 . S
C51 C50 1.387 . S
C51 H77 0.931 . S
C52 C49 1.487 . S
C52 C59 1.399 . S
C52 N90 1.343 . S
C53 C54 1.384 . S
C53 C55 1.384 . S
C53 H78 0.931 . S
C54 C53 1.384 . S
C54 C57 1.382 . S
C55 C53 1.384 . S
C55 C56 1.381 . S
C55 H79 0.930 . S
C56 C55 1.381 . S
C56 C58 1.381 . S
C56 C59 1.487 . S
C57 C54 1.382 . S
C57 C58 1.387 . S
C57 H80 0.930 . S
C58 C56 1.381 . S
C58 C57 1.387 . S
C58 H81 0.931 . S
C59 C52 1.399 . S
C59 C56 1.487 . S
C59 N91 1.343 1_565 S
C60 C61 1.384 . S
C60 C62 1.384 . S
C60 H82 0.931 . S
C61 C60 1.384 . S
C61 C64 1.382 . S
C62 C60 1.384 . S
C62 C63 1.381 . S
C62 H83 0.930 . S
C63 C62 1.381 . S
C63 C65 1.381 . S
C63 C66 1.487 . S
C64 C61 1.382 . S
C64 C65 1.387 . S
C64 H84 0.930 . S
C65 C63 1.381 . S
C65 C64 1.387 . S
C65 H85 0.931 . S
C66 C63 1.487 . S
C66 C73 1.399 . S
C66 N91 1.343 . S
C67 C68 1.384 . S
C67 C69 1.384 . S
C67 H86 0.931 . S
C68 C67 1.384 . S
C68 C71 1.382 . S
C69 C67 1.384 . S
C69 C70 1.381 . S
C69 H87 0.930 . S
C70 C69 1.381 . S
C70 C72 1.381 . S
C70 C73 1.487 . S
C71 C68 1.382 . S
C71 C72 1.387 . S
C71 H88 0.930 . S
C72 C70 1.381 . S
C72 C71 1.387 . S
C72 H89 0.931 . S
C73 C66 1.399 . S
C73 C70 1.487 . S
C73 N90 1.343 1_545 S
H74 C46 0.931 . S
H75 C48 0.930 . S
H76 C50 0.930 . S
H77 C51 0.931 . S
H78 C53 0.931 . S
H79 C55 0.930 . S
H80 C57 0.930 . S
H81 C58 0.931 . S
H82 C60 0.931 . S
H83 C62 0.930 . S
H84 C64 0.930 . S
H85 C65 0.931 . S
H86 C67 0.931 . S
H87 C69 0.930 . S
H88 C71 0.930 . S
H89 C72 0.931 . S
N90 C52 1.343 . S
N90 C73 1.343 1_565 S
N91 C59 1.343 1_545 S
N91 C66 1.343 . S
C92 C93 1.384 . S
C92 C94 1.384 . S
C92 H120 0.931 . S
C93 C92 1.384 . S
C93 C96 1.382 . S
C94 C92 1.384 . S
C94 C95 1.381 . S
C94 H121 0.930 . S
C95 C94 1.381 . S
C95 C97 1.381 . S
C95 C98 1.487 . S
C96 C93 1.382 . S
C96 C97 1.387 . S
C96 H122 0.930 . S
C97 C95 1.381 . S
C97 C96 1.387 . S
C97 H123 0.931 . S
C98 C95 1.487 . S
C98 C105 1.399 . S
C98 N136 1.343 . S
C99 C100 1.384 . S
C99 C101 1.384 . S
C99 H124 0.931 . S
C100 C99 1.384 . S
C100 C103 1.382 . S
C101 C99 1.384 . S
C101 C102 1.381 . S
C101 H125 0.930 . S
C102 C101 1.381 . S
C102 C104 1.381 . S
C102 C105 1.487 . S
C103 C100 1.382 . S
C103 C104 1.387 . S
C103 H126 0.930 . S
C104 C102 1.381 . S
C104 C103 1.387 . S
C104 H127 0.931 . S
C105 C98 1.399 . S
C105 C102 1.487 . S
C105 N137 1.343 . S
C106 C107 1.384 . S
C106 C108 1.384 . S
C106 H128 0.931 . S
C107 C106 1.384 . S
C107 C110 1.382 . S
C108 C106 1.384 . S
C108 C109 1.381 . S
C108 H129 0.930 . S
C109 C108 1.381 . S
C109 C111 1.381 . S
C109 C112 1.487 . S
C110 C107 1.382 . S
C110 C111 1.387 . S
C110 H130 0.930 . S
C111 C109 1.381 . S
C111 C110 1.387 . S
C111 H131 0.931 . S
C112 C109 1.487 . S
C112 C119 1.399 . S
C112 N137 1.343 . S
C113 C114 1.384 . S
C113 C115 1.384 . S
C113 H132 0.931 . S
C114 C113 1.384 . S
C114 C117 1.382 . S
C115 C113 1.384 . S
C115 C116 1.381 . S
C115 H133 0.930 . S
C116 C115 1.381 . S
C116 C118 1.381 . S
C116 C119 1.487 . S
C117 C114 1.382 . S
C117 C118 1.387 . S
C117 H134 0.930 . S
C118 C116 1.381 . S
C118 C117 1.387 . S
C118 H135 0.931 . S
C119 C112 1.399 . S
C119 C116 1.487 . S
C119 N136 1.343 . S
H120 C92 0.931 . S
H121 C94 0.930 . S
H122 C96 0.930 . S
H123 C97 0.931 . S
H124 C99 0.931 . S
H125 C101 0.930 . S
H126 C103 0.930 . S
H127 C104 0.931 . S
H128 C106 0.931 . S
H129 C108 0.930 . S
H130 C110 0.930 . S
H131 C111 0.931 . S
H132 C113 0.931 . S
H133 C115 0.930 . S
H134 C117 0.930 . S
H135 C118 0.931 . S
N136 C98 1.343 . S
N136 C119 1.343 . S
N137 C105 1.343 . S
N137 C112 1.343 . S
C138 C139 1.384 . S
C138 C140 1.384 . S
C138 H166 0.931 . S
C139 C138 1.384 . S
C139 C142 1.382 . S
C140 C138 1.384 . S
C140 C141 1.381 . S
C140 H167 0.930 . S
C141 C140 1.381 . S
C141 C143 1.381 . S
C141 C144 1.487 . S
C142 C139 1.382 . S
C142 C143 1.387 . S
C142 H168 0.930 . S
C143 C141 1.381 . S
C143 C142 1.387 . S
C143 H169 0.931 . S
C144 C141 1.487 . S
C144 C151 1.399 . S
C144 N182 1.344 . S
C145 C146 1.384 . S
C145 C147 1.384 . S
C145 H170 0.931 . S
C146 C145 1.384 . S
C146 C149 1.382 . S
C147 C145 1.384 . S
C147 C148 1.381 . S
C147 H171 0.930 . S
C148 C147 1.381 . S
C148 C150 1.381 . S
C148 C151 1.487 . S
C149 C146 1.382 . S
C149 C150 1.387 . S
C149 H172 0.930 . S
C150 C148 1.381 . S
C150 C149 1.387 . S
C150 H173 0.931 . S
C151 C144 1.399 . S
C151 C148 1.487 . S
C151 N183 1.343 1_655 S
C152 C153 1.384 . S
C152 C154 1.384 . S
C152 H174 0.931 . S
C153 C152 1.384 . S
C153 C156 1.382 . S
C154 C152 1.384 . S
C154 C155 1.381 . S
C154 H175 0.930 . S
C155 C154 1.381 . S
C155 C157 1.381 . S
C155 C158 1.487 . S
C156 C153 1.382 . S
C156 C157 1.387 . S
C156 H176 0.930 . S
C157 C155 1.381 . S
C157 C156 1.387 . S
C157 H177 0.931 . S
C158 C155 1.487 . S
C158 C165 1.399 . S
C158 N183 1.343 . S
C159 C160 1.384 . S
C159 C161 1.384 . S
C159 H178 0.931 . S
C160 C159 1.384 . S
C160 C163 1.382 . S
C161 C159 1.384 . S
C161 C162 1.381 . S
C161 H179 0.930 . S
C162 C161 1.381 . S
C162 C164 1.381 . S
C162 C165 1.487 . S
C163 C160 1.382 . S
C163 C164 1.387 . S
C163 H180 0.930 . S
C164 C162 1.381 . S
C164 C163 1.387 . S
C164 H181 0.931 . S
C165 C158 1.399 . S
C165 C162 1.487 . S
C165 N182 1.342 1_455 S
H166 C138 0.931 . S
H167 C140 0.930 . S
H168 C142 0.930 . S
H169 C143 0.931 . S
H170 C145 0.931 . S
H171 C147 0.930 . S
H172 C149 0.930 . S
H173 C150 0.931 . S
H174 C152 0.931 . S
H175 C154 0.930 . S
H176 C156 0.930 . S
H177 C157 0.931 . S
H178 C159 0.931 . S
H179 C161 0.930 . S
H180 C163 0.930 . S
H181 C164 0.931 . S
N182 C144 1.344 . S
N182 C165 1.342 1_655 S
N183 C151 1.343 1_455 S
N183 C158 1.343 . S
C184 C185 1.384 . S
C184 C186 1.384 . S
C184 H212 0.931 . S
C185 C184 1.384 . S
C185 C188 1.382 . S
C186 C184 1.384 . S
C186 C187 1.381 . S
C186 H213 0.930 1_556 S
C187 C186 1.381 . S
C187 C189 1.381 . S
C187 C190 1.487 . S
C188 C185 1.382 . S
C188 C189 1.387 . S
C188 H214 0.930 . S
C189 C187 1.381 . S
C189 C188 1.387 . S
C189 H215 0.931 . S
C190 C187 1.487 . S
C190 C197 1.399 1_556 S
C190 N228 1.343 . S
C191 C192 1.384 . S
C191 C193 1.384 . S
C191 H216 0.931 . S
C192 C191 1.384 . S
C192 C195 1.382 . S
C193 C191 1.384 . S
C193 C194 1.381 . S
C193 H217 0.930 . S
C194 C193 1.381 . S
C194 C196 1.381 . S
C194 C197 1.487 . S
C195 C192 1.382 . S
C195 C196 1.387 . S
C195 H218 0.930 . S
C196 C194 1.381 . S
C196 C195 1.387 . S
C196 H219 0.931 . S
C197 C190 1.399 1_554 S
C197 C194 1.487 . S
C197 N229 1.343 1_565 S
C198 C199 1.384 . S
C198 C200 1.384 1_554 S
C198 H220 0.930 1_554 S
C199 C198 1.384 . S
C199 C202 1.382 . S
C200 C198 1.384 1_556 S
C200 C201 1.381 1_556 S
C200 H221 0.930 . S
C201 C200 1.381 1_554 S
C201 C203 1.381 . S
C201 C204 1.471 1_554 S
C202 C199 1.382 . S
C202 C203 1.387 . S
C202 H222 0.930 . S
C203 C201 1.381 . S
C203 C202 1.387 . S
C203 H223 0.931 . S
C204 C201 1.471 1_556 S
C204 C211 1.459 . S
C204 N229 1.296 1_556 S
C205 C206 1.384 . S
C205 C207 1.384 . S
C205 H224 0.931 . S
C206 C205 1.384 . S
C206 C209 1.382 . S
C207 C205 1.384 . S
C207 C208 1.381 . S
C207 H225 0.930 . S
C208 C207 1.381 . S
C208 C210 1.381 . S
C208 C211 1.487 . S
C209 C206 1.382 . S
C209 C210 1.387 . S
C209 H226 0.930 . S
C210 C208 1.381 . S
C210 C209 1.387 . S
C210 H227 0.931 . S
C211 C204 1.459 . S
C211 C208 1.487 . S
C211 N228 1.343 1_545 S
H212 C184 0.931 . S
H213 C186 0.930 1_554 S
H214 C188 0.930 . S
H215 C189 0.931 . S
H216 C191 0.931 . S
H217 C193 0.930 . S
H218 C195 0.930 . S
H219 C196 0.931 . S
H220 C198 0.930 1_556 S
H221 C200 0.930 . S
H222 C202 0.930 . S
H223 C203 0.931 . S
H224 C205 0.931 . S
H225 C207 0.930 . S
H226 C209 0.930 . S
H227 C210 0.931 . S
N228 C190 1.343 . S
N228 C211 1.343 1_565 S
N229 C197 1.343 1_545 S
N229 C204 1.296 1_554 S
C230 C231 1.384 . S
C230 C232 1.384 . S
C230 H258 0.931 . S
C231 C230 1.384 . S
C231 C234 1.382 . S
C232 C230 1.384 . S
C232 C233 1.381 . S
C232 H259 0.930 . S
C233 C232 1.381 . S
C233 C235 1.381 . S
C233 C236 1.487 . S
C234 C231 1.382 . S
C234 C235 1.387 . S
C234 H260 0.930 . S
C235 C233 1.381 . S
C235 C234 1.387 . S
C235 H261 0.931 . S
C236 C233 1.487 . S
C236 C243 1.399 . S
C236 N274 1.343 . S
C237 C238 1.384 . S
C237 C239 1.384 . S
C237 H262 0.931 . S
C238 C237 1.384 . S
C238 C241 1.382 . S
C239 C237 1.384 . S
C239 C240 1.381 . S
C239 H263 0.930 . S
C240 C239 1.381 . S
C240 C242 1.381 . S
C240 C243 1.487 . S
C241 C238 1.382 . S
C241 C242 1.387 . S
C241 H264 0.930 . S
C242 C240 1.381 . S
C242 C241 1.387 . S
C242 H265 0.931 . S
C243 C236 1.399 . S
C243 C240 1.487 . S
C243 N275 1.343 . S
C244 C245 1.384 . S
C244 C246 1.384 . S
C244 H266 0.931 . S
C245 C244 1.384 . S
C245 C248 1.382 . S
C246 C244 1.384 . S
C246 C247 1.381 . S
C246 H267 0.930 . S
C247 C246 1.381 . S
C247 C249 1.381 . S
C247 C250 1.487 . S
C248 C245 1.382 . S
C248 C249 1.387 . S
C248 H268 0.930 . S
C249 C247 1.381 . S
C249 C248 1.387 . S
C249 H269 0.931 . S
C250 C247 1.487 . S
C250 C257 1.399 . S
C250 N275 1.343 . S
C251 C252 1.384 . S
C251 C253 1.384 . S
C251 H270 0.931 . S
C252 C251 1.384 . S
C252 C255 1.382 . S
C253 C251 1.384 . S
C253 C254 1.381 . S
C253 H271 0.930 . S
C254 C253 1.381 . S
C254 C256 1.381 . S
C254 C257 1.487 . S
C255 C252 1.382 . S
C255 C256 1.387 . S
C255 H272 0.930 . S
C256 C254 1.381 . S
C256 C255 1.387 . S
C256 H273 0.931 . S
C257 C250 1.399 . S
C257 C254 1.487 . S
C257 N274 1.343 . S
H258 C230 0.931 . S
H259 C232 0.930 . S
H260 C234 0.930 . S
H261 C235 0.931 . S
H262 C237 0.931 . S
H263 C239 0.930 . S
H264 C241 0.930 . S
H265 C242 0.931 . S
H266 C244 0.931 . S
H267 C246 0.930 . S
H268 C248 0.930 . S
H269 C249 0.931 . S
H270 C251 0.931 . S
H271 C253 0.930 . S
H272 C255 0.930 . S
H273 C256 0.931 . S
N274 C236 1.343 . S
N274 C257 1.343 . S
N275 C243 1.343 . S
N275 C250 1.343 . S
Co276 O277 2.216 . S
Co276 O278 2.091 . S
Co276 O280 2.004 . S
Co276 O286 2.021 . S
Co276 O288 2.137 . S
Co276 O289 2.244 . S
O277 Co276 2.216 . S
O277 C284 1.247 . S
O278 Co276 2.091 . S
O278 C284 1.261 . S
C279 O288 1.247 . S
C279 O289 1.272 . S
O280 Co276 2.004 . S
O280 C285 1.259 . S
Co281 O282 2.061 . S
Co281 O287 2.052 . S
Co281 O289 2.135 . S
O282 Co281 2.061 . S
O282 C285 1.235 . S
C283 O286 1.238 . S
C283 O287 1.241 . S
C284 O277 1.247 . S
C284 O278 1.261 . S
C285 O280 1.259 . S
C285 O282 1.235 . S
O286 Co276 2.021 . S
O286 C283 1.238 . S
O287 Co281 2.052 . S
O287 C283 1.241 . S
O288 Co276 2.137 . S
O288 C279 1.247 . S
O289 Co276 2.244 . S
O289 C279 1.272 . S
O289 Co281 2.135 . S
Co290 O291 2.216 . S
Co290 O292 2.091 . S
Co290 O294 2.004 . S
Co290 O300 2.021 . S
Co290 O302 2.137 . S
Co290 O303 2.244 . S
O291 Co290 2.216 . S
O291 C298 1.247 . S
O292 Co290 2.091 . S
O292 C298 1.261 . S
C293 O302 1.247 . S
C293 O303 1.272 . S
O294 Co290 2.004 . S
O294 C299 1.259 . S
Co295 O296 2.061 . S
Co295 O301 2.052 . S
Co295 O303 2.135 . S
O296 Co295 2.061 . S
O296 C299 1.235 . S
C297 O300 1.238 . S
C297 O301 1.241 . S
C298 O291 1.247 . S
C298 O292 1.261 . S
C299 O294 1.259 . S
C299 O296 1.235 . S
O300 Co290 2.021 . S
O300 C297 1.238 . S
O301 Co295 2.052 . S
O301 C297 1.241 . S
O302 Co290 2.137 . S
O302 C293 1.247 . S
O303 Co290 2.244 . S
O303 C293 1.272 . S
O303 Co295 2.135 . S
Co304 O305 2.216 . S
Co304 O306 2.091 . S
Co304 O308 2.004 . S
Co304 O314 2.021 . S
Co304 O316 2.137 . S
Co304 O317 2.244 . S
O305 Co304 2.216 . S
O305 C312 1.247 . S
O306 Co304 2.091 . S
O306 C312 1.261 . S
C307 O316 1.247 . S
C307 O317 1.272 . S
O308 Co304 2.004 . S
O308 C313 1.259 . S
Co309 O310 2.061 . S
Co309 O315 2.052 . S
Co309 O317 2.135 . S
O310 Co309 2.061 . S
O310 C313 1.235 . S
C311 O314 1.238 . S
C311 O315 1.241 . S
C312 O305 1.247 . S
C312 O306 1.261 . S
C313 O308 1.259 . S
C313 O310 1.235 . S
O314 Co304 2.021 . S
O314 C311 1.238 . S
O315 Co309 2.052 . S
O315 C311 1.241 . S
O316 Co304 2.137 . S
O316 C307 1.247 . S
O317 Co304 2.244 . S
O317 C307 1.272 . S
O317 Co309 2.135 . S
Co318 O319 2.216 . S
Co318 O320 2.091 . S
Co318 O322 2.004 . S
Co318 O328 2.021 . S
Co318 O330 2.137 . S
Co318 O331 2.244 . S
O319 Co318 2.216 . S
O319 C326 1.247 . S
O320 Co318 2.091 . S
O320 C326 1.261 . S
C321 O330 1.247 . S
C321 O331 1.272 . S
O322 Co318 2.004 . S
O322 C327 1.259 . S
Co323 O324 2.061 . S
Co323 O329 2.052 . S
Co323 O331 2.135 . S
O324 Co323 2.061 . S
O324 C327 1.235 . S
C325 O328 1.238 . S
C325 O329 1.241 . S
C326 O319 1.247 . S
C326 O320 1.261 . S
C327 O322 1.259 . S
C327 O324 1.235 . S
O328 Co318 2.021 . S
O328 C325 1.238 . S
O329 Co323 2.052 . S
O329 C325 1.241 . S
O330 Co318 2.137 . S
O330 C321 1.247 . S
O331 Co318 2.244 . S
O331 C321 1.272 . S
O331 Co323 2.135 . S
Co332 O333 2.216 . S
Co332 O334 2.091 . S
Co332 O336 2.004 . S
Co332 O342 2.021 . S
Co332 O344 2.137 . S
Co332 O345 2.244 . S
O333 Co332 2.216 . S
O333 C340 1.247 . S
O334 Co332 2.091 . S
O334 C340 1.261 . S
C335 O344 1.247 . S
C335 O345 1.272 . S
O336 Co332 2.004 . S
O336 C341 1.259 . S
Co337 O338 2.061 . S
Co337 O343 2.052 . S
Co337 O345 2.135 . S
O338 Co337 2.061 . S
O338 C341 1.235 . S
C339 O342 1.238 . S
C339 O343 1.241 . S
C340 O333 1.247 . S
C340 O334 1.261 . S
C341 O336 1.259 . S
C341 O338 1.235 . S
O342 Co332 2.021 . S
O342 C339 1.238 . S
O343 Co337 2.052 . S
O343 C339 1.241 . S
O344 Co332 2.137 . S
O344 C335 1.247 . S
O345 Co332 2.244 . S
O345 C335 1.272 . S
O345 Co337 2.135 . S
Co346 O347 2.216 . S
Co346 O348 2.091 . S
Co346 O350 2.004 . S
Co346 O356 2.021 . S
Co346 O358 2.137 . S
Co346 O359 2.244 . S
O347 Co346 2.216 . S
O347 C354 1.247 . S
O348 Co346 2.091 . S
O348 C354 1.261 . S
C349 O358 1.247 . S
C349 O359 1.272 . S
O350 Co346 2.004 . S
O350 C355 1.259 . S
Co351 O352 2.061 . S
Co351 O357 2.052 . S
Co351 O359 2.135 . S
O352 Co351 2.061 . S
O352 C355 1.235 . S
C353 O356 1.238 . S
C353 O357 1.241 . S
C354 O347 1.247 . S
C354 O348 1.261 . S
C355 O350 1.259 . S
C355 O352 1.235 . S
O356 Co346 2.021 . S
O356 C353 1.238 . S
O357 Co351 2.052 . S
O357 C353 1.241 . S
O358 Co346 2.137 . S
O358 C349 1.247 . S
O359 Co346 2.244 . S
O359 C349 1.272 . S
O359 Co351 2.135 . S
C360 C361 1.349 . S
C360 C362 1.327 . S
C360 H385 0.950 . S
C361 C360 1.349 . S
C361 C377 1.349 . S
C362 C360 1.327 . S
C362 C381 1.429 . S
C362 H386 0.950 . S
C363 C380 1.574 . S
C363 C382 1.368 . S
C363 H387 0.949 . S
H364 C368 0.949 . S
C365 C366 1.349 . S
C365 C367 1.327 . S
C365 H388 0.950 . S
C366 C365 1.349 . S
C366 C378 1.349 . S
C367 C365 1.327 . S
C367 C383 1.429 . S
C367 H389 0.950 . S
C368 H364 0.949 . S
C368 C376 1.574 . S
C368 C384 1.368 . S
H369 C377 0.950 . S
H370 C375 0.950 . S
H371 C376 0.949 . S
H372 C378 0.950 . S
H373 C379 0.950 . S
H374 C380 0.949 . S
C375 H370 0.950 . S
C375 C377 1.327 . S
C375 C381 1.429 . S
C376 C368 1.574 . S
C376 H371 0.949 . S
C376 C382 1.368 . S
C377 C361 1.349 . S
C377 H369 0.950 . S
C377 C375 1.327 . S
C378 C366 1.349 . S
C378 H372 0.950 . S
C378 C379 1.327 . S
C379 H373 0.950 . S
C379 C378 1.327 . S
C379 C383 1.429 . S
C380 C363 1.574 . S
C380 H374 0.949 . S
C380 C384 1.368 . S
C381 C362 1.429 . S
C381 C375 1.429 . S
C381 C382 1.523 . S
C382 C363 1.368 . S
C382 C376 1.368 . S
C382 C381 1.523 . S
C383 C367 1.429 . S
C383 C379 1.429 . S
C383 C384 1.523 . S
C384 C368 1.368 . S
C384 C380 1.368 . S
C384 C383 1.523 . S
H385 C360 0.950 . S
H386 C362 0.950 . S
H387 C363 0.949 . S
H388 C365 0.950 . S
H389 C367 0.950 . S
C390 C391 1.349 . S
C390 C392 1.327 . S
C390 H415 0.950 . S
C391 C390 1.349 . S
C391 C407 1.349 . S
C392 C390 1.327 . S
C392 C411 1.429 . S
C392 H416 0.950 . S
C393 C410 1.574 . S
C393 C412 1.368 . S
C393 H417 0.949 . S
H394 C398 0.949 . S
C395 C396 1.349 . S
C395 C397 1.327 . S
C395 H418 0.950 . S
C396 C395 1.349 . S
C396 C408 1.349 . S
C397 C395 1.327 . S
C397 C413 1.429 . S
C397 H419 0.950 . S
C398 H394 0.949 . S
C398 C406 1.574 . S
C398 C414 1.368 . S
H399 C407 0.950 . S
H400 C405 0.950 . S
H401 C406 0.949 . S
H402 C408 0.950 . S
H403 C409 0.950 . S
H404 C410 0.949 . S
C405 H400 0.950 . S
C405 C407 1.327 . S
C405 C411 1.429 . S
C406 C398 1.574 . S
C406 H401 0.949 . S
C406 C412 1.368 . S
C407 C391 1.349 . S
C407 H399 0.950 . S
C407 C405 1.327 . S
C408 C396 1.349 . S
C408 H402 0.950 . S
C408 C409 1.327 . S
C409 H403 0.950 . S
C409 C408 1.327 . S
C409 C413 1.429 . S
C410 C393 1.574 . S
C410 H404 0.949 . S
C410 C414 1.368 . S
C411 C392 1.429 . S
C411 C405 1.429 . S
C411 C412 1.523 . S
C412 C393 1.368 . S
C412 C406 1.368 . S
C412 C411 1.523 . S
C413 C397 1.429 . S
C413 C409 1.429 . S
C413 C414 1.523 . S
C414 C398 1.368 . S
C414 C410 1.368 . S
C414 C413 1.523 . S
H415 C390 0.950 . S
H416 C392 0.950 . S
H417 C393 0.949 . S
H418 C395 0.950 . S
H419 C397 0.950 . S
C420 C421 1.349 . S
C420 C422 1.327 . S
C420 H445 0.950 . S
C421 C420 1.349 . S
C421 C437 1.349 . S
C422 C420 1.327 . S
C422 C441 1.429 . S
C422 H446 0.950 . S
C423 C440 1.574 . S
C423 C442 1.368 . S
C423 H447 0.949 . S
H424 C428 0.949 . S
C425 C426 1.349 . S
C425 C427 1.327 . S
C425 H448 0.950 . S
C426 C425 1.349 . S
C426 C438 1.349 . S
C427 C425 1.327 . S
C427 C443 1.429 . S
C427 H449 0.950 . S
C428 H424 0.949 . S
C428 C436 1.574 . S
C428 C444 1.368 . S
H429 C437 0.950 . S
H430 C435 0.950 . S
H431 C436 0.949 . S
H432 C438 0.950 . S
H433 C439 0.950 . S
H434 C440 0.949 . S
C435 H430 0.950 . S
C435 C437 1.327 . S
C435 C441 1.429 . S
C436 C428 1.574 . S
C436 H431 0.949 . S
C436 C442 1.368 . S
C437 C421 1.349 . S
C437 H429 0.950 . S
C437 C435 1.327 . S
C438 C426 1.349 . S
C438 H432 0.950 . S
C438 C439 1.327 . S
C439 H433 0.950 . S
C439 C438 1.327 . S
C439 C443 1.429 . S
C440 C423 1.574 . S
C440 H434 0.949 . S
C440 C444 1.368 . S
C441 C422 1.429 . S
C441 C435 1.429 . S
C441 C442 1.523 . S
C442 C423 1.368 . S
C442 C436 1.368 . S
C442 C441 1.523 . S
C443 C427 1.429 . S
C443 C439 1.429 . S
C443 C444 1.523 . S
C444 C428 1.368 . S
C444 C440 1.368 . S
C444 C443 1.523 . S
H445 C420 0.950 . S
H446 C422 0.950 . S
H447 C423 0.949 . S
H448 C425 0.950 . S
H449 C427 0.950 . S
C450 C451 1.349 . S
C450 C452 1.327 . S
C450 H475 0.950 . S
C451 C450 1.349 . S
C451 C467 1.349 . S
C452 C450 1.327 . S
C452 C471 1.429 . S
C452 H476 0.950 . S
C453 C470 1.574 . S
C453 C472 1.368 . S
C453 H477 0.949 . S
H454 C458 0.949 . S
C455 C456 1.349 . S
C455 C457 1.327 . S
C455 H478 0.950 . S
C456 C455 1.349 . S
C456 C468 1.349 . S
C457 C455 1.327 . S
C457 C473 1.429 . S
C457 H479 0.950 . S
C458 H454 0.949 . S
C458 C466 1.574 . S
C458 C474 1.368 . S
H459 C467 0.950 . S
H460 C465 0.950 . S
H461 C466 0.949 . S
H462 C468 0.950 . S
H463 C469 0.950 . S
H464 C470 0.949 . S
C465 H460 0.950 . S
C465 C467 1.327 . S
C465 C471 1.429 . S
C466 C458 1.574 . S
C466 H461 0.949 . S
C466 C472 1.368 . S
C467 C451 1.349 . S
C467 H459 0.950 . S
C467 C465 1.327 . S
C468 C456 1.349 . S
C468 H462 0.950 . S
C468 C469 1.327 . S
C469 H463 0.950 . S
C469 C468 1.327 . S
C469 C473 1.429 . S
C470 C453 1.574 . S
C470 H464 0.949 . S
C470 C474 1.368 . S
C471 C452 1.429 . S
C471 C465 1.429 . S
C471 C472 1.523 . S
C472 C453 1.368 . S
C472 C466 1.368 . S
C472 C471 1.523 . S
C473 C457 1.429 . S
C473 C469 1.429 . S
C473 C474 1.523 . S
C474 C458 1.368 . S
C474 C470 1.368 . S
C474 C473 1.523 . S
H475 C450 0.950 . S
H476 C452 0.950 . S
H477 C453 0.949 . S
H478 C455 0.950 . S
H479 C457 0.950 . S
C480 C481 1.349 . S
C480 C482 1.327 . S
C480 H505 0.950 . S
C481 C480 1.349 . S
C481 C497 1.349 . S
C482 C480 1.327 . S
C482 C501 1.429 . S
C482 H506 0.950 . S
C483 C500 1.574 . S
C483 C502 1.368 . S
C483 H507 0.949 . S
H484 C488 0.949 . S
C485 C486 1.349 . S
C485 C487 1.327 . S
C485 H508 0.950 . S
C486 C485 1.349 . S
C486 C498 1.349 . S
C487 C485 1.327 . S
C487 C503 1.429 . S
C487 H509 0.950 . S
C488 H484 0.949 . S
C488 C496 1.574 . S
C488 C504 1.368 . S
H489 C497 0.950 . S
H490 C495 0.950 . S
H491 C496 0.949 . S
H492 C498 0.950 . S
H493 C499 0.950 . S
H494 C500 0.949 . S
C495 H490 0.950 . S
C495 C497 1.327 . S
C495 C501 1.429 . S
C496 C488 1.574 . S
C496 H491 0.949 . S
C496 C502 1.368 . S
C497 C481 1.349 . S
C497 H489 0.950 . S
C497 C495 1.327 . S
C498 C486 1.349 . S
C498 H492 0.950 . S
C498 C499 1.327 . S
C499 H493 0.950 . S
C499 C498 1.327 . S
C499 C503 1.429 . S
C500 C483 1.574 . S
C500 H494 0.949 . S
C500 C504 1.368 . S
C501 C482 1.429 . S
C501 C495 1.429 . S
C501 C502 1.523 . S
C502 C483 1.368 . S
C502 C496 1.368 . S
C502 C501 1.523 . S
C503 C487 1.429 . S
C503 C499 1.429 . S
C503 C504 1.523 . S
C504 C488 1.368 . S
C504 C500 1.368 . S
C504 C503 1.523 . S
H505 C480 0.950 . S
H506 C482 0.950 . S
H507 C483 0.949 . S
H508 C485 0.950 . S
H509 C487 0.950 . S
C510 C511 1.349 . S
C510 C512 1.327 . S
C510 H535 0.950 . S
C511 C510 1.349 . S
C511 C527 1.349 . S
C512 C510 1.327 . S
C512 C531 1.429 . S
C512 H536 0.950 . S
C513 C530 1.574 . S
C513 C532 1.368 . S
C513 H537 0.949 . S
H514 C518 0.949 . S
C515 C516 1.349 . S
C515 C517 1.327 . S
C515 H538 0.950 . S
C516 C515 1.349 . S
C516 C528 1.349 . S
C517 C515 1.327 . S
C517 C533 1.429 . S
C517 H539 0.950 . S
C518 H514 0.949 . S
C518 C526 1.574 . S
C518 C534 1.368 . S
H519 C527 0.950 . S
H520 C525 0.950 . S
H521 C526 0.949 . S
H522 C528 0.950 . S
H523 C529 0.950 . S
H524 C530 0.949 . S
C525 H520 0.950 . S
C525 C527 1.327 . S
C525 C531 1.429 . S
C526 C518 1.574 . S
C526 H521 0.949 . S
C526 C532 1.368 . S
C527 C511 1.349 . S
C527 H519 0.950 . S
C527 C525 1.327 . S
C528 C516 1.349 . S
C528 H522 0.950 . S
C528 C529 1.327 . S
C529 H523 0.950 . S
C529 C528 1.327 . S
C529 C533 1.429 . S
C530 C513 1.574 . S
C530 H524 0.949 . S
C530 C534 1.368 . S
C531 C512 1.429 . S
C531 C525 1.429 . S
C531 C532 1.523 . S
C532 C513 1.368 . S
C532 C526 1.368 . S
C532 C531 1.523 . S
C533 C517 1.429 . S
C533 C529 1.429 . S
C533 C534 1.523 . S
C534 C518 1.368 . S
C534 C530 1.368 . S
C534 C533 1.523 . S
H535 C510 0.950 . S
H536 C512 0.950 . S
H537 C513 0.949 . S
H538 C515 0.950 . S
H539 C517 0.950 . S
C540 C541 1.349 . S
C540 C542 1.327 . S
C540 H565 0.950 . S
C541 C540 1.349 . S
C541 C557 1.349 . S
C542 C540 1.327 . S
C542 C561 1.429 . S
C542 H566 0.950 . S
C543 C560 1.574 . S
C543 C562 1.368 . S
C543 H567 0.949 . S
H544 C548 0.949 . S
C545 C546 1.349 . S
C545 C547 1.327 . S
C545 H568 0.950 . S
C546 C545 1.349 . S
C546 C558 1.349 . S
C547 C545 1.327 . S
C547 C563 1.429 . S
C547 H569 0.950 . S
C548 H544 0.949 . S
C548 C556 1.574 . S
C548 C564 1.368 . S
H549 C557 0.950 . S
H550 C555 0.950 . S
H551 C556 0.949 . S
H552 C558 0.950 . S
H553 C559 0.950 . S
H554 C560 0.949 . S
C555 H550 0.950 . S
C555 C557 1.327 . S
C555 C561 1.429 . S
C556 C548 1.574 . S
C556 H551 0.949 . S
C556 C562 1.368 . S
C557 C541 1.349 . S
C557 H549 0.950 . S
C557 C555 1.327 . S
C558 C546 1.349 . S
C558 H552 0.950 . S
C558 C559 1.327 . S
C559 H553 0.950 . S
C559 C558 1.327 . S
C559 C563 1.429 . S
C560 C543 1.574 . S
C560 H554 0.949 . S
C560 C564 1.368 . S
C561 C542 1.429 . S
C561 C555 1.429 . S
C561 C562 1.523 . S
C562 C543 1.368 . S
C562 C556 1.368 . S
C562 C561 1.523 . S
C563 C547 1.429 . S
C563 C559 1.429 . S
C563 C564 1.523 . S
C564 C548 1.368 . S
C564 C560 1.368 . S
C564 C563 1.523 . S
H565 C540 0.950 . S
H566 C542 0.950 . S
H567 C543 0.949 . S
H568 C545 0.950 . S
H569 C547 0.950 . S
C570 C571 1.349 . S
C570 C572 1.327 . S
C570 H595 0.950 . S
C571 C570 1.349 . S
C571 C587 1.349 . S
C572 C570 1.327 . S
C572 C591 1.429 . S
C572 H596 0.950 . S
C573 C590 1.574 . S
C573 C592 1.368 . S
C573 H597 0.949 . S
H574 C578 0.949 . S
C575 C576 1.349 . S
C575 C577 1.327 . S
C575 H598 0.950 . S
C576 C575 1.349 . S
C576 C588 1.349 . S
C577 C575 1.327 . S
C577 C593 1.429 . S
C577 H599 0.950 . S
C578 H574 0.949 . S
C578 C586 1.574 . S
C578 C594 1.368 . S
H579 C587 0.950 . S
H580 C585 0.950 . S
H581 C586 0.949 . S
H582 C588 0.950 . S
H583 C589 0.950 . S
H584 C590 0.949 . S
C585 H580 0.950 . S
C585 C587 1.327 . S
C585 C591 1.429 . S
C586 C578 1.574 . S
C586 H581 0.949 . S
C586 C592 1.368 . S
C587 C571 1.349 . S
C587 H579 0.950 . S
C587 C585 1.327 . S
C588 C576 1.349 . S
C588 H582 0.950 . S
C588 C589 1.327 . S
C589 H583 0.950 . S
C589 C588 1.327 . S
C589 C593 1.429 . S
C590 C573 1.574 . S
C590 H584 0.949 . S
C590 C594 1.368 . S
C591 C572 1.429 . S
C591 C585 1.429 . S
C591 C592 1.523 . S
C592 C573 1.368 . S
C592 C586 1.368 . S
C592 C591 1.523 . S
C593 C577 1.429 . S
C593 C589 1.429 . S
C593 C594 1.523 . S
C594 C578 1.368 . S
C594 C590 1.368 . S
C594 C593 1.523 . S
H595 C570 0.950 . S
H596 C572 0.950 . S
H597 C573 0.949 . S
H598 C575 0.950 . S
H599 C577 0.950 . S
C600 C601 1.349 . S
C600 C602 1.327 . S
C600 H625 0.950 . S
C601 C600 1.349 . S
C601 C617 1.349 . S
C602 C600 1.327 . S
C602 C621 1.429 . S
C602 H626 0.950 . S
C603 C620 1.574 . S
C603 C622 1.368 . S
C603 H627 0.949 . S
H604 C608 0.949 . S
C605 C606 1.349 . S
C605 C607 1.327 . S
C605 H628 0.950 . S
C606 C605 1.349 . S
C606 C618 1.349 . S
C607 C605 1.327 . S
C607 C623 1.429 . S
C607 H629 0.950 . S
C608 H604 0.949 . S
C608 C616 1.574 . S
C608 C624 1.368 . S
H609 C617 0.950 . S
H610 C615 0.950 . S
H611 C616 0.949 . S
H612 C618 0.950 . S
H613 C619 0.950 . S
H614 C620 0.949 . S
C615 H610 0.950 . S
C615 C617 1.327 . S
C615 C621 1.429 . S
C616 C608 1.574 . S
C616 H611 0.949 . S
C616 C622 1.368 . S
C617 C601 1.349 . S
C617 H609 0.950 . S
C617 C615 1.327 . S
C618 C606 1.349 . S
C618 H612 0.950 . S
C618 C619 1.327 . S
C619 H613 0.950 . S
C619 C618 1.327 . S
C619 C623 1.429 . S
C620 C603 1.574 . S
C620 H614 0.949 . S
C620 C624 1.368 . S
C621 C602 1.429 . S
C621 C615 1.429 . S
C621 C622 1.523 . S
C622 C603 1.368 . S
C622 C616 1.368 . S
C622 C621 1.523 . S
C623 C607 1.429 . S
C623 C619 1.429 . S
C623 C624 1.523 . S
C624 C608 1.368 . S
C624 C620 1.368 . S
C624 C623 1.523 . S
H625 C600 0.950 . S
H626 C602 0.950 . S
H627 C603 0.949 . S
H628 C605 0.950 . S
H629 C607 0.950 . S
C630 C631 1.349 . S
C630 C632 1.327 . S
C630 H655 0.950 . S
C631 C630 1.349 . S
C631 C647 1.349 . S
C632 C630 1.327 . S
C632 C651 1.429 . S
C632 H656 0.950 . S
C633 C650 1.574 . S
C633 C652 1.368 . S
C633 H657 0.949 . S
H634 C638 0.949 . S
C635 C636 1.349 . S
C635 C637 1.327 . S
C635 H658 0.950 . S
C636 C635 1.349 . S
C636 C648 1.349 . S
C637 C635 1.327 . S
C637 C653 1.429 . S
C637 H659 0.950 . S
C638 H634 0.949 . S
C638 C646 1.574 . S
C638 C654 1.368 . S
H639 C647 0.950 . S
H640 C645 0.950 . S
H641 C646 0.949 . S
H642 C648 0.950 . S
H643 C649 0.950 . S
H644 C650 0.949 . S
C645 H640 0.950 . S
C645 C647 1.327 . S
C645 C651 1.429 . S
C646 C638 1.574 . S
C646 H641 0.949 . S
C646 C652 1.368 . S
C647 C631 1.349 . S
C647 H639 0.950 . S
C647 C645 1.327 . S
C648 C636 1.349 . S
C648 H642 0.950 . S
C648 C649 1.327 . S
C649 H643 0.950 . S
C649 C648 1.327 . S
C649 C653 1.429 . S
C650 C633 1.574 . S
C650 H644 0.949 . S
C650 C654 1.368 . S
C651 C632 1.429 . S
C651 C645 1.429 . S
C651 C652 1.523 . S
C652 C633 1.368 . S
C652 C646 1.368 . S
C652 C651 1.523 . S
C653 C637 1.429 . S
C653 C649 1.429 . S
C653 C654 1.523 . S
C654 C638 1.368 . S
C654 C650 1.368 . S
C654 C653 1.523 . S
H655 C630 0.950 . S
H656 C632 0.950 . S
H657 C633 0.949 . S
H658 C635 0.950 . S
H659 C637 0.950 . S
C660 C661 1.349 . S
C660 C662 1.327 . S
C660 H685 0.950 . S
C661 C660 1.349 . S
C661 C677 1.349 . S
C662 C660 1.327 . S
C662 C681 1.429 . S
C662 H686 0.950 . S
C663 C680 1.574 . S
C663 C682 1.368 . S
C663 H687 0.949 . S
H664 C668 0.949 . S
C665 C666 1.349 . S
C665 C667 1.327 . S
C665 H688 0.950 . S
C666 C665 1.349 . S
C666 C678 1.349 . S
C667 C665 1.327 . S
C667 C683 1.429 . S
C667 H689 0.950 . S
C668 H664 0.949 . S
C668 C676 1.574 . S
C668 C684 1.368 . S
H669 C677 0.950 . S
H670 C675 0.950 . S
H671 C676 0.949 . S
H672 C678 0.950 . S
H673 C679 0.950 . S
H674 C680 0.949 . S
C675 H670 0.950 . S
C675 C677 1.327 . S
C675 C681 1.429 . S
C676 C668 1.574 . S
C676 H671 0.949 . S
C676 C682 1.368 . S
C677 C661 1.349 . S
C677 H669 0.950 . S
C677 C675 1.327 . S
C678 C666 1.349 . S
C678 H672 0.950 . S
C678 C679 1.327 . S
C679 H673 0.950 . S
C679 C678 1.327 . S
C679 C683 1.429 . S
C680 C663 1.574 . S
C680 H674 0.949 . S
C680 C684 1.368 . S
C681 C662 1.429 . S
C681 C675 1.429 . S
C681 C682 1.523 . S
C682 C663 1.368 . S
C682 C676 1.368 . S
C682 C681 1.523 . S
C683 C667 1.429 . S
C683 C679 1.429 . S
C683 C684 1.523 . S
C684 C668 1.368 . S
C684 C680 1.368 . S
C684 C683 1.523 . S
H685 C660 0.950 . S
H686 C662 0.950 . S
H687 C663 0.949 . S
H688 C665 0.950 . S
H689 C667 0.950 . S
C690 C691 1.349 . S
C690 C692 1.327 . S
C690 H715 0.950 . S
C691 C690 1.349 . S
C691 C707 1.349 . S
C692 C690 1.327 . S
C692 C711 1.429 . S
C692 H716 0.950 . S
C693 C710 1.574 . S
C693 C712 1.368 . S
C693 H717 0.949 . S
H694 C698 0.949 . S
C695 C696 1.349 . S
C695 C697 1.327 . S
C695 H718 0.950 . S
C696 C695 1.349 . S
C696 C708 1.349 . S
C697 C695 1.327 . S
C697 C713 1.429 . S
C697 H719 0.950 . S
C698 H694 0.949 . S
C698 C706 1.574 . S
C698 C714 1.368 . S
H699 C707 0.950 . S
H700 C705 0.950 . S
H701 C706 0.949 . S
H702 C708 0.950 . S
H703 C709 0.950 . S
H704 C710 0.949 . S
C705 H700 0.950 . S
C705 C707 1.327 . S
C705 C711 1.429 . S
C706 C698 1.574 . S
C706 H701 0.949 . S
C706 C712 1.368 . S
C707 C691 1.349 . S
C707 H699 0.950 . S
C707 C705 1.327 . S
C708 C696 1.349 . S
C708 H702 0.950 . S
C708 C709 1.327 . S
C709 H703 0.950 . S
C709 C708 1.327 . S
C709 C713 1.429 . S
C710 C693 1.574 . S
C710 H704 0.949 . S
C710 C714 1.368 . S
C711 C692 1.429 . S
C711 C705 1.429 . S
C711 C712 1.523 . S
C712 C693 1.368 . S
C712 C706 1.368 . S
C712 C711 1.523 . S
C713 C697 1.429 . S
C713 C709 1.429 . S
C713 C714 1.523 . S
C714 C698 1.368 . S
C714 C710 1.368 . S
C714 C713 1.523 . S
H715 C690 0.950 . S
H716 C692 0.950 . S
H717 C693 0.949 . S
H718 C695 0.950 . S
H719 C697 0.950 . S
C720 C721 1.349 . S
C720 C722 1.327 . S
C720 H745 0.950 . S
C721 C720 1.349 . S
C721 C737 1.349 . S
C722 C720 1.327 . S
C722 C741 1.429 . S
C722 H746 0.950 . S
C723 C740 1.574 . S
C723 C742 1.368 . S
C723 H747 0.949 . S
H724 C728 0.949 . S
C725 C726 1.349 . S
C725 C727 1.327 . S
C725 H748 0.950 . S
C726 C725 1.349 . S
C726 C738 1.349 . S
C727 C725 1.327 . S
C727 C743 1.429 . S
C727 H749 0.950 . S
C728 H724 0.949 . S
C728 C736 1.574 . S
C728 C744 1.368 . S
H729 C737 0.950 . S
H730 C735 0.950 . S
H731 C736 0.949 . S
H732 C738 0.950 . S
H733 C739 0.950 . S
H734 C740 0.949 . S
C735 H730 0.950 . S
C735 C737 1.327 . S
C735 C741 1.429 . S
C736 C728 1.574 . S
C736 H731 0.949 . S
C736 C742 1.368 . S
C737 C721 1.349 . S
C737 H729 0.950 . S
C737 C735 1.327 . S
C738 C726 1.349 . S
C738 H732 0.950 . S
C738 C739 1.327 . S
C739 H733 0.950 . S
C739 C738 1.327 . S
C739 C743 1.429 . S
C740 C723 1.574 . S
C740 H734 0.949 . S
C740 C744 1.368 . S
C741 C722 1.429 . S
C741 C735 1.429 . S
C741 C742 1.523 . S
C742 C723 1.368 . S
C742 C736 1.368 . S
C742 C741 1.523 . S
C743 C727 1.429 . S
C743 C739 1.429 . S
C743 C744 1.523 . S
C744 C728 1.368 . S
C744 C740 1.368 . S
C744 C743 1.523 . S
H745 C720 0.950 . S
H746 C722 0.950 . S
H747 C723 0.949 . S
H748 C725 0.950 . S
H749 C727 0.950 . S
C750 C751 1.349 . S
C750 C752 1.327 . S
C750 H775 0.950 . S
C751 C750 1.349 . S
C751 C767 1.349 . S
C752 C750 1.327 . S
C752 C771 1.429 . S
C752 H776 0.950 . S
C753 C770 1.574 . S
C753 C772 1.368 . S
C753 H777 0.949 . S
H754 C758 0.949 . S
C755 C756 1.349 . S
C755 C757 1.327 . S
C755 H778 0.950 . S
C756 C755 1.349 . S
C756 C768 1.349 . S
C757 C755 1.327 . S
C757 C773 1.429 . S
C757 H779 0.950 . S
C758 H754 0.949 . S
C758 C766 1.574 . S
C758 C774 1.368 . S
H759 C767 0.950 . S
H760 C765 0.950 . S
H761 C766 0.949 . S
H762 C768 0.950 . S
H763 C769 0.950 . S
H764 C770 0.949 . S
C765 H760 0.950 . S
C765 C767 1.327 . S
C765 C771 1.429 . S
C766 C758 1.574 . S
C766 H761 0.949 . S
C766 C772 1.368 . S
C767 C751 1.349 . S
C767 H759 0.950 . S
C767 C765 1.327 . S
C768 C756 1.349 . S
C768 H762 0.950 . S
C768 C769 1.327 . S
C769 H763 0.950 . S
C769 C768 1.327 . S
C769 C773 1.429 . S
C770 C753 1.574 . S
C770 H764 0.949 . S
C770 C774 1.368 . S
C771 C752 1.429 . S
C771 C765 1.429 . S
C771 C772 1.523 . S
C772 C753 1.368 . S
C772 C766 1.368 . S
C772 C771 1.523 . S
C773 C757 1.429 . S
C773 C769 1.429 . S
C773 C774 1.523 . S
C774 C758 1.368 . S
C774 C770 1.368 . S
C774 C773 1.523 . S
H775 C750 0.950 . S
H776 C752 0.950 . S
H777 C753 0.949 . S
H778 C755 0.950 . S
H779 C757 0.950 . S
C780 C781 1.349 . S
C780 C782 1.327 . S
C780 H805 0.950 . S
C781 C780 1.349 . S
C781 C797 1.349 . S
C782 C780 1.327 . S
C782 C801 1.429 . S
C782 H806 0.950 . S
C783 C800 1.574 . S
C783 C802 1.368 . S
C783 H807 0.949 . S
H784 C788 0.949 . S
C785 C786 1.349 . S
C785 C787 1.327 . S
C785 H808 0.950 . S
C786 C785 1.349 . S
C786 C798 1.349 . S
C787 C785 1.327 . S
C787 C803 1.429 . S
C787 H809 0.950 . S
C788 H784 0.949 . S
C788 C796 1.574 . S
C788 C804 1.368 . S
H789 C797 0.950 . S
H790 C795 0.950 . S
H791 C796 0.949 . S
H792 C798 0.950 . S
H793 C799 0.950 . S
H794 C800 0.949 . S
C795 H790 0.950 . S
C795 C797 1.327 . S
C795 C801 1.429 . S
C796 C788 1.574 . S
C796 H791 0.949 . S
C796 C802 1.368 . S
C797 C781 1.349 . S
C797 H789 0.950 . S
C797 C795 1.327 . S
C798 C786 1.349 . S
C798 H792 0.950 . S
C798 C799 1.327 . S
C799 H793 0.950 . S
C799 C798 1.327 . S
C799 C803 1.429 . S
C800 C783 1.574 . S
C800 H794 0.949 . S
C800 C804 1.368 . S
C801 C782 1.429 . S
C801 C795 1.429 . S
C801 C802 1.523 . S
C802 C783 1.368 . S
C802 C796 1.368 . S
C802 C801 1.523 . S
C803 C787 1.429 . S
C803 C799 1.429 . S
C803 C804 1.523 . S
C804 C788 1.368 . S
C804 C800 1.368 . S
C804 C803 1.523 . S
H805 C780 0.950 . S
H806 C782 0.950 . S
H807 C783 0.949 . S
H808 C785 0.950 . S
H809 C787 0.950 . S
C810 C811 1.349 . S
C810 C812 1.327 . S
C810 H835 0.950 . S
C811 C810 1.349 . S
C811 C827 1.349 . S
C812 C810 1.327 . S
C812 C831 1.429 . S
C812 H836 0.950 . S
C813 C830 1.574 . S
C813 C832 1.368 . S
C813 H837 0.949 . S
H814 C818 0.949 . S
C815 C816 1.349 . S
C815 C817 1.327 . S
C815 H838 0.950 . S
C816 C815 1.349 . S
C816 C828 1.349 . S
C817 C815 1.327 . S
C817 C833 1.386 1_554 S
C817 H839 0.950 . S
C818 H814 0.949 . S
C818 C826 1.574 . S
C818 C834 1.368 . S
H819 C827 0.950 . S
H820 C825 0.950 . S
H821 C826 0.949 . S
H822 C828 0.950 . S
H823 C829 0.950 1_556 S
H824 C830 0.949 . S
C825 H820 0.950 . S
C825 C827 1.327 . S
C825 C831 1.429 . S
C826 C818 1.574 . S
C826 H821 0.949 . S
C826 C832 1.368 . S
C827 C811 1.349 . S
C827 H819 0.950 . S
C827 C825 1.327 . S
C828 C816 1.349 . S
C828 H822 0.950 . S
C828 C829 1.327 . S
C829 H823 0.950 1_554 S
C829 C828 1.327 . S
C829 C833 1.417 1_554 S
C830 C813 1.574 . S
C830 H824 0.949 . S
C830 C834 1.368 . S
C831 C812 1.429 . S
C831 C825 1.429 . S
C831 C832 1.523 . S
C832 C813 1.368 . S
C832 C826 1.368 . S
C832 C831 1.523 . S
C833 C817 1.386 1_556 S
C833 C829 1.417 1_556 S
C833 C834 1.575 . S
C834 C818 1.368 . S
C834 C830 1.368 . S
C834 C833 1.575 . S
H835 C810 0.950 . S
H836 C812 0.950 . S
H837 C813 0.949 . S
H838 C815 0.950 . S
H839 C817 0.950 . S
C840 C841 1.349 . S
C840 C842 1.327 . S
C840 H865 0.950 . S
C841 C840 1.349 . S
C841 C857 1.349 . S
C842 C840 1.327 . S
C842 C861 1.429 . S
C842 H866 0.950 . S
C843 C860 1.574 . S
C843 C862 1.368 . S
C843 H867 0.949 . S
H844 C848 0.949 . S
C845 C846 1.349 . S
C845 C847 1.327 . S
C845 H868 0.950 . S
C846 C845 1.349 . S
C846 C858 1.349 . S
C847 C845 1.327 . S
C847 C863 1.429 . S
C847 H869 0.950 . S
C848 H844 0.949 . S
C848 C856 1.574 . S
C848 C864 1.368 . S
H849 C857 0.950 . S
H850 C855 0.950 . S
H851 C856 0.949 . S
H852 C858 0.950 . S
H853 C859 0.950 . S
H854 C860 0.949 . S
C855 H850 0.950 . S
C855 C857 1.327 . S
C855 C861 1.429 . S
C856 C848 1.574 . S
C856 H851 0.949 . S
C856 C862 1.368 . S
C857 C841 1.349 . S
C857 H849 0.950 . S
C857 C855 1.327 . S
C858 C846 1.349 . S
C858 H852 0.950 . S
C858 C859 1.327 . S
C859 H853 0.950 . S
C859 C858 1.327 . S
C859 C863 1.429 . S
C860 C843 1.574 . S
C860 H854 0.949 . S
C860 C864 1.368 . S
C861 C842 1.429 . S
C861 C855 1.429 . S
C861 C862 1.523 . S
C862 C843 1.368 . S
C862 C856 1.368 . S
C862 C861 1.523 . S
C863 C847 1.429 . S
C863 C859 1.429 . S
C863 C864 1.523 . S
C864 C848 1.368 . S
C864 C860 1.368 . S
C864 C863 1.523 . S
H865 C840 0.950 . S
H866 C842 0.950 . S
H867 C843 0.949 . S
H868 C845 0.950 . S
H869 C847 0.950 . S
C870 C871 1.349 . S
C870 C872 1.327 . S
C870 H895 0.950 . S
C871 C870 1.349 . S
C871 C887 1.349 . S
C872 C870 1.327 . S
C872 C891 1.429 . S
C872 H896 0.950 . S
C873 C890 1.574 . S
C873 C892 1.368 . S
C873 H897 0.949 . S
H874 C878 0.949 . S
C875 C876 1.349 . S
C875 C877 1.327 . S
C875 H898 0.950 . S
C876 C875 1.349 . S
C876 C888 1.349 . S
C877 C875 1.327 . S
C877 C893 1.429 . S
C877 H899 0.950 . S
C878 H874 0.949 . S
C878 C886 1.574 . S
C878 C894 1.368 . S
H879 C887 0.950 . S
H880 C885 0.950 . S
H881 C886 0.949 . S
H882 C888 0.950 . S
H883 C889 0.950 . S
H884 C890 0.949 . S
C885 H880 0.950 . S
C885 C887 1.327 . S
C885 C891 1.429 . S
C886 C878 1.574 . S
C886 H881 0.949 . S
C886 C892 1.368 . S
C887 C871 1.349 . S
C887 H879 0.950 . S
C887 C885 1.327 . S
C888 C876 1.349 . S
C888 H882 0.950 . S
C888 C889 1.327 . S
C889 H883 0.950 . S
C889 C888 1.327 . S
C889 C893 1.429 . S
C890 C873 1.574 . S
C890 H884 0.949 . S
C890 C894 1.368 . S
C891 C872 1.429 . S
C891 C885 1.429 . S
C891 C892 1.523 . S
C892 C873 1.368 . S
C892 C886 1.368 . S
C892 C891 1.523 . S
C893 C877 1.429 . S
C893 C889 1.429 . S
C893 C894 1.523 . S
C894 C878 1.368 . S
C894 C890 1.368 . S
C894 C893 1.523 . S
H895 C870 0.950 . S
H896 C872 0.950 . S
H897 C873 0.949 . S
H898 C875 0.950 . S
H899 C877 0.950 . S
C900 C901 1.349 . S
C900 C902 1.327 . S
C900 H925 0.950 . S
C901 C900 1.349 . S
C901 C917 1.349 . S
C902 C900 1.327 . S
C902 C921 1.429 . S
C902 H926 0.950 . S
C903 C920 1.574 . S
C903 C922 1.368 . S
C903 H927 0.949 . S
H904 C908 0.949 . S
C905 C906 1.349 . S
C905 C907 1.327 . S
C905 H928 0.950 . S
C906 C905 1.349 . S
C906 C918 1.349 . S
C907 C905 1.327 . S
C907 C923 1.429 . S
C907 H929 0.950 . S
C908 H904 0.949 . S
C908 C916 1.574 . S
C908 C924 1.368 . S
H909 C917 0.950 . S
H910 C915 0.950 . S
H911 C916 0.949 . S
H912 C918 0.950 . S
H913 C919 0.950 . S
H914 C920 0.949 . S
C915 H910 0.950 . S
C915 C917 1.327 . S
C915 C921 1.429 . S
C916 C908 1.574 . S
C916 H911 0.949 . S
C916 C922 1.368 . S
C917 C901 1.349 . S
C917 H909 0.950 . S
C917 C915 1.327 . S
C918 C906 1.349 . S
C918 H912 0.950 . S
C918 C919 1.327 . S
C919 H913 0.950 . S
C919 C918 1.327 . S
C919 C923 1.429 . S
C920 C903 1.574 . S
C920 H914 0.949 . S
C920 C924 1.368 . S
C921 C902 1.429 . S
C921 C915 1.429 . S
C921 C922 1.523 . S
C922 C903 1.368 . S
C922 C916 1.368 . S
C922 C921 1.523 . S
C923 C907 1.429 . S
C923 C919 1.429 . S
C923 C924 1.523 . S
C924 C908 1.368 . S
C924 C920 1.368 . S
C924 C923 1.523 . S
H925 C900 0.950 . S
H926 C902 0.950 . S
H927 C903 0.949 . S
H928 C905 0.950 . S
H929 C907 0.950 . S
C930 C931 1.349 . S
C930 C932 1.327 . S
C930 H955 0.950 . S
C931 C930 1.349 . S
C931 C947 1.349 . S
C932 C930 1.327 . S
C932 C951 1.429 . S
C932 H956 0.950 . S
C933 C950 1.574 . S
C933 C952 1.368 . S
C933 H957 0.949 . S
H934 C938 0.949 . S
C935 C936 1.349 . S
C935 C937 1.327 . S
C935 H958 0.950 . S
C936 C935 1.349 . S
C936 C948 1.349 . S
C937 C935 1.327 . S
C937 C953 1.429 . S
C937 H959 0.950 . S
C938 H934 0.949 . S
C938 C946 1.574 . S
C938 C954 1.368 . S
H939 C947 0.950 . S
H940 C945 0.950 . S
H941 C946 0.949 . S
H942 C948 0.950 . S
H943 C949 0.950 . S
H944 C950 0.949 . S
C945 H940 0.950 . S
C945 C947 1.327 . S
C945 C951 1.429 . S
C946 C938 1.574 . S
C946 H941 0.949 . S
C946 C952 1.368 . S
C947 C931 1.349 . S
C947 H939 0.950 . S
C947 C945 1.327 . S
C948 C936 1.349 . S
C948 H942 0.950 . S
C948 C949 1.327 . S
C949 H943 0.950 . S
C949 C948 1.327 . S
C949 C953 1.429 . S
C950 C933 1.574 . S
C950 H944 0.949 . S
C950 C954 1.368 . S
C951 C932 1.429 . S
C951 C945 1.429 . S
C951 C952 1.523 . S
C952 C933 1.368 . S
C952 C946 1.368 . S
C952 C951 1.523 . S
C953 C937 1.429 . S
C953 C949 1.429 . S
C953 C954 1.523 . S
C954 C938 1.368 . S
C954 C950 1.368 . S
C954 C953 1.523 . S
H955 C930 0.950 . S
H956 C932 0.950 . S
H957 C933 0.949 . S
H958 C935 0.950 . S
H959 C937 0.950 . S
C960 C961 1.349 . S
C960 C962 1.327 . S
C960 H985 0.950 . S
C961 C960 1.349 . S
C961 C977 1.349 . S
C962 C960 1.327 . S
C962 C981 1.429 . S
C962 H986 0.950 . S
C963 C980 1.574 . S
C963 C982 1.368 . S
C963 H987 0.949 . S
H964 C968 0.949 . S
C965 C966 1.349 . S
C965 C967 1.327 . S
C965 H988 0.950 . S
C966 C965 1.349 . S
C966 C978 1.349 . S
C967 C965 1.327 . S
C967 C983 1.429 . S
C967 H989 0.950 . S
C968 H964 0.949 . S
C968 C976 1.574 . S
C968 C984 1.368 . S
H969 C977 0.950 . S
H970 C975 0.950 . S
H971 C976 0.949 . S
H972 C978 0.950 . S
H973 C979 0.950 . S
H974 C980 0.949 . S
C975 H970 0.950 . S
C975 C977 1.327 . S
C975 C981 1.429 . S
C976 C968 1.574 . S
C976 H971 0.949 . S
C976 C982 1.368 . S
C977 C961 1.349 . S
C977 H969 0.950 . S
C977 C975 1.327 . S
C978 C966 1.349 . S
C978 H972 0.950 . S
C978 C979 1.327 . S
C979 H973 0.950 . S
C979 C978 1.327 . S
C979 C983 1.429 . S
C980 C963 1.574 . S
C980 H974 0.949 . S
C980 C984 1.368 . S
C981 C962 1.429 . S
C981 C975 1.429 . S
C981 C982 1.523 . S
C982 C963 1.368 . S
C982 C976 1.368 . S
C982 C981 1.523 . S
C983 C967 1.429 . S
C983 C979 1.429 . S
C983 C984 1.523 . S
C984 C968 1.368 . S
C984 C980 1.368 . S
C984 C983 1.523 . S
H985 C960 0.950 . S
H986 C962 0.950 . S
H987 C963 0.949 . S
H988 C965 0.950 . S
H989 C967 0.950 . S
C990 C991 1.349 . S
C990 C992 1.327 . S
C990 H1015 0.950 . S
C991 C990 1.349 . S
C991 C1007 1.349 . S
C992 C990 1.327 . S
C992 C1011 1.429 . S
C992 H1016 0.950 . S
C993 C1010 1.574 . S
C993 C1012 1.368 . S
C993 H1017 0.949 . S
H994 C998 0.949 . S
C995 C996 1.349 . S
C995 C997 1.327 . S
C995 H1018 0.950 . S
C996 C995 1.349 . S
C996 C1008 1.349 . S
C997 C995 1.327 . S
C997 C1013 1.429 . S
C997 H1019 0.950 . S
C998 H994 0.949 . S
C998 C1006 1.574 . S
C998 C1014 1.368 . S
H999 C1007 0.950 . S
H1000 C1005 0.950 . S
H1001 C1006 0.949 . S
H1002 C1008 0.950 . S
H1003 C1009 0.950 . S
H1004 C1010 0.949 . S
C1005 H1000 0.950 . S
C1005 C1007 1.327 . S
C1005 C1011 1.429 . S
C1006 C998 1.574 . S
C1006 H1001 0.949 . S
C1006 C1012 1.368 . S
C1007 C991 1.349 . S
C1007 H999 0.950 . S
C1007 C1005 1.327 . S
C1008 C996 1.349 . S
C1008 H1002 0.950 . S
C1008 C1009 1.327 . S
C1009 H1003 0.950 . S
C1009 C1008 1.327 . S
C1009 C1013 1.429 . S
C1010 C993 1.574 . S
C1010 H1004 0.949 . S
C1010 C1014 1.368 . S
C1011 C992 1.429 . S
C1011 C1005 1.429 . S
C1011 C1012 1.523 . S
C1012 C993 1.368 . S
C1012 C1006 1.368 . S
C1012 C1011 1.523 . S
C1013 C997 1.429 . S
C1013 C1009 1.429 . S
C1013 C1014 1.523 . S
C1014 C998 1.368 . S
C1014 C1010 1.368 . S
C1014 C1013 1.523 . S
H1015 C990 0.950 . S
H1016 C992 0.950 . S
H1017 C993 0.949 . S
H1018 C995 0.950 . S
H1019 C997 0.950 . S
C1020 C1021 1.349 . S
C1020 C1022 1.327 . S
C1020 H1045 0.950 . S
C1021 C1020 1.349 . S
C1021 C1037 1.349 . S
C1022 C1020 1.327 . S
C1022 C1041 1.429 . S
C1022 H1046 0.950 . S
C1023 C1040 1.574 . S
C1023 C1042 1.368 . S
C1023 H1047 0.949 . S
H1024 C1028 0.979 . S
C1025 C1026 1.349 . S
C1025 C1027 1.327 . S
C1025 H1048 0.950 . S
C1026 C1025 1.349 . S
C1026 C1038 1.349 . S
C1027 C1025 1.327 . S
C1027 C1043 1.429 . S
C1027 H1049 0.950 . S
C1028 H1024 0.979 . S
C1028 C1036 1.574 . S
C1028 C1044 1.368 . S
H1029 C1037 0.950 . S
H1030 C1035 0.950 . S
H1031 C1036 0.949 . S
H1032 C1038 0.950 . S
H1033 C1039 0.950 . S
H1034 C1040 0.949 . S
C1035 H1030 0.950 . S
C1035 C1037 1.327 . S
C1035 C1041 1.429 . S
C1036 C1028 1.574 . S
C1036 H1031 0.949 . S
C1036 C1042 1.368 . S
C1037 C1021 1.349 . S
C1037 H1029 0.950 . S
C1037 C1035 1.327 . S
C1038 C1026 1.349 . S
C1038 H1032 0.950 . S
C1038 C1039 1.327 . S
C1039 H1033 0.950 . S
C1039 C1038 1.327 . S
C1039 C1043 1.429 . S
C1040 C1023 1.574 . S
C1040 H1034 0.949 . S
C1040 C1044 1.368 . S
C1041 C1022 1.429 . S
C1041 C1035 1.429 . S
C1041 C1042 1.523 . S
C1042 C1023 1.368 . S
C1042 C1036 1.368 . S
C1042 C1041 1.523 . S
C1043 C1027 1.429 . S
C1043 C1039 1.429 . S
C1043 C1044 1.523 1_556 S
C1044 C1028 1.368 . S
C1044 C1040 1.368 . S
C1044 C1043 1.523 1_554 S
H1045 C1020 0.950 . S
H1046 C1022 0.950 . S
H1047 C1023 0.949 . S
H1048 C1025 0.950 . S
H1049 C1027 0.950 . S
C1050 C1051 1.349 . S
C1050 C1052 1.327 . S
C1050 H1075 0.950 . S
C1051 C1050 1.349 . S
C1051 C1067 1.349 . S
C1052 C1050 1.327 . S
C1052 C1071 1.429 . S
C1052 H1076 0.950 . S
C1053 C1070 1.574 . S
C1053 C1072 1.368 . S
C1053 H1077 0.949 . S
H1054 C1058 0.949 . S
C1055 C1056 1.349 . S
C1055 C1057 1.327 . S
C1055 H1078 0.950 . S
C1056 C1055 1.349 . S
C1056 C1068 1.349 . S
C1057 C1055 1.327 . S
C1057 C1073 1.429 . S
C1057 H1079 0.950 . S
C1058 H1054 0.949 . S
C1058 C1066 1.574 . S
C1058 C1074 1.368 . S
H1059 C1067 0.950 . S
H1060 C1065 0.950 . S
H1061 C1066 0.949 . S
H1062 C1068 0.950 . S
H1063 C1069 0.950 . S
H1064 C1070 0.949 . S
C1065 H1060 0.950 . S
C1065 C1067 1.327 . S
C1065 C1071 1.429 . S
C1066 C1058 1.574 . S
C1066 H1061 0.949 . S
C1066 C1072 1.368 . S
C1067 C1051 1.349 . S
C1067 H1059 0.950 . S
C1067 C1065 1.327 . S
C1068 C1056 1.349 . S
C1068 H1062 0.950 . S
C1068 C1069 1.327 . S
C1069 H1063 0.950 . S
C1069 C1068 1.327 . S
C1069 C1073 1.429 . S
C1070 C1053 1.574 . S
C1070 H1064 0.949 . S
C1070 C1074 1.368 . S
C1071 C1052 1.429 . S
C1071 C1065 1.429 . S
C1071 C1072 1.523 . S
C1072 C1053 1.368 . S
C1072 C1066 1.368 . S
C1072 C1071 1.523 . S
C1073 C1057 1.429 . S
C1073 C1069 1.429 . S
C1073 C1074 1.523 . S
C1074 C1058 1.368 . S
C1074 C1070 1.368 . S
C1074 C1073 1.523 . S
H1075 C1050 0.950 . S
H1076 C1052 0.950 . S
H1077 C1053 0.949 . S
H1078 C1055 0.950 . S
H1079 C1057 0.950 . S
C366 C349 1.603 . S
C361 C15 1.587 . S
C391 C61 1.590 . S
C396 C279 1.603 . S
C421 C114 1.608 . S
C426 C298 1.626 . S
C451 C139 1.597 . S
C456 C307 1.604 . S
C486 C321 1.603 . S
C481 C185 1.599 . S
C511 C245 1.608 . S
C516 C340 1.626 . S
C541 C47 1.572 . S
C546 C293 1.577 . S
C571 C100 1.592 . S
C576 C312 1.600 . S
C601 C153 1.584 . S
C606 C326 1.600 . S
C636 C335 1.576 . S
C631 C199 1.563 . S
C666 C354 1.601 . S
C661 C231 1.592 . S
C696 C284 1.600 . S
C691 C1 1.594 . S
C721 C22 1.485 . S
C726 C299 1.475 . S
C751 C68 1.475 . S
C756 C311 1.457 . S
C786 C325 1.466 . S
C781 C107 1.489 . S
C811 C146 1.486 . S
C816 C341 1.475 . S
C846 C353 1.457 . S
C841 C192 1.478 . S
C876 C283 1.466 . S
C871 C252 1.489 . S
C906 C355 1.483 . S
C901 C54 1.494 . S
C931 C93 1.507 . S
C936 C285 1.498 . S
C966 C297 1.472 . S
C961 C160 1.493 . S
C991 C206 1.492 . S
C996 C313 1.483 . S
C1021 C238 1.507 . S
C1026 C327 1.498 . S
C1051 C8 1.495 . S
C1056 C339 1.472 . S
