# Generated by pormake.
# Topology pyr, (3,6)-cn, num edge types: 1
# Building blocks:
#     Node 0, Type 0, BuildingBlock: KAKCAD_clean_linker_0, # of connection points: 3
#     Node 1, Type 0, BuildingBlock: KAKCAD_clean_linker_0, # of connection points: 3
#     Node 2, Type 0, BuildingBlock: KAKCAD_clean_linker_0, # of connection points: 3
#     Node 3, Type 0, BuildingBlock: KAKCAD_clean_linker_0, # of connection points: 3
#     Node 4, Type 0, BuildingBlock: KAKCAD_clean_linker_0, # of connection points: 3
#     Node 5, Type 0, BuildingBlock: KAKCAD_clean_linker_0, # of connection points: 3
#     Node 6, Type 0, BuildingBlock: KAKCAD_clean_linker_0, # of connection points: 3
#     Node 7, Type 0, BuildingBlock: KAKCAD_clean_linker_0, # of connection points: 3
#     Node 8, Type 1, BuildingBlock: BETDAH_clean_sbu_0, # of connection points: 6
#     Node 9, Type 1, BuildingBlock: BETDAH_clean_sbu_0, # of connection points: 6
#     Node 10, Type 1, BuildingBlock: BETDAH_clean_sbu_0, # of connection points: 6
#     Node 11, Type 1, BuildingBlock: BETDAH_clean_sbu_0, # of connection points: 6
#     Edge 12, Type (0, 1), BuildingBlock: UVAHIK_clean_linker_0, # of connection points: 2
#     Edge 13, Type (0, 1), BuildingBlock: UVAHIK_clean_linker_0, # of connection points: 2
#     Edge 14, Type (0, 1), BuildingBlock: UVAHIK_clean_linker_0, # of connection points: 2
#     Edge 15, Type (0, 1), BuildingBlock: UVAHIK_clean_linker_0, # of connection points: 2
#     Edge 16, Type (0, 1), BuildingBlock: UVAHIK_clean_linker_0, # of connection points: 2
#     Edge 17, Type (0, 1), BuildingBlock: UVAHIK_clean_linker_0, # of connection points: 2
#     Edge 18, Type (0, 1), BuildingBlock: UVAHIK_clean_linker_0, # of connection points: 2
#     Edge 19, Type (0, 1), BuildingBlock: UVAHIK_clean_linker_0, # of connection points: 2
#     Edge 20, Type (0, 1), BuildingBlock: UVAHIK_clean_linker_0, # of connection points: 2
#     Edge 21, Type (0, 1), BuildingBlock: UVAHIK_clean_linker_0, # of connection points: 2
#     Edge 22, Type (0, 1), BuildingBlock: UVAHIK_clean_linker_0, # of connection points: 2
#     Edge 23, Type (0, 1), BuildingBlock: UVAHIK_clean_linker_0, # of connection points: 2
#     Edge 24, Type (0, 1), BuildingBlock: UVAHIK_clean_linker_0, # of connection points: 2
#     Edge 25, Type (0, 1), BuildingBlock: UVAHIK_clean_linker_0, # of connection points: 2
#     Edge 26, Type (0, 1), BuildingBlock: UVAHIK_clean_linker_0, # of connection points: 2
#     Edge 27, Type (0, 1), BuildingBlock: UVAHIK_clean_linker_0, # of connection points: 2
#     Edge 28, Type (0, 1), BuildingBlock: UVAHIK_clean_linker_0, # of connection points: 2
#     Edge 29, Type (0, 1), BuildingBlock: UVAHIK_clean_linker_0, # of connection points: 2
#     Edge 30, Type (0, 1), BuildingBlock: UVAHIK_clean_linker_0, # of connection points: 2
#     Edge 31, Type (0, 1), BuildingBlock: UVAHIK_clean_linker_0, # of connection points: 2
#     Edge 32, Type (0, 1), BuildingBlock: UVAHIK_clean_linker_0, # of connection points: 2
#     Edge 33, Type (0, 1), BuildingBlock: UVAHIK_clean_linker_0, # of connection points: 2
#     Edge 34, Type (0, 1), BuildingBlock: UVAHIK_clean_linker_0, # of connection points: 2
#     Edge 35, Type (0, 1), BuildingBlock: UVAHIK_clean_linker_0, # of connection points: 2
# Relax obj value: 0.072
# Max RMSD: 0.118
# Mean RMSD: 0.054
data_MOF--net-pyr--node1-BETDAH_clean_sbu_0--node2-KAKCAD_clean_linker_0--edge1-UVAHIK_clean_linker_0
_symmetry_space_group_name_H-M    P1
_symmetry_Int_Tables_number       1
_symmetry_cell_setting            triclinic
loop_
_symmetry_equiv_pos_as_xyz
'x, y, z'
_cell_length_a     57.408394
_cell_length_b     60.564219
_cell_length_c     54.859311
_cell_angle_alpha  91.027178
_cell_angle_beta   89.233022
_cell_angle_gamma 99.638065
loop_
_atom_site_label
_atom_site_type_symbol
_atom_site_fract_x
_atom_site_fract_y
_atom_site_fract_z
_atom_type_partial_charge
C0 C 0.24619 0.23664 0.24891 0.0
C1 C 0.2543 0.23051 0.27144 0.0
C2 C 0.26188 0.24795 0.23194 0.0
C3 C 0.28608 0.25348 0.23709 0.0
C4 C 0.29421 0.24771 0.2598 0.0
C5 C 0.27842 0.23641 0.27689 0.0
C6 C 0.30271 0.26433 0.21821 0.0
C7 C 0.29634 0.2812 0.20377 0.0
C8 C 0.31038 0.28958 0.18384 0.0
C9 C 0.33137 0.28141 0.17857 0.0
C10 C 0.33801 0.26437 0.19276 0.0
C11 C 0.32372 0.25621 0.21277 0.0
C12 C 0.35792 0.25292 0.185 0.0
C13 C 0.36062 0.24699 0.16037 0.0
C14 C 0.37276 0.24578 0.20234 0.0
C15 C 0.38914 0.23211 0.19535 0.0
C16 C 0.39103 0.22531 0.17086 0.0
C17 C 0.3013 0.30479 0.16702 0.0
C18 C 0.27978 0.29746 0.15527 0.0
C19 C 0.31311 0.32675 0.16353 0.0
C20 C 0.30298 0.34146 0.14913 0.0
C21 C 0.28119 0.33418 0.13768 0.0
C22 C 0.2699 0.31195 0.14063 0.0
C23 C 0.37698 0.23335 0.15338 0.0
H24 H 0.22766 0.23258 0.24431 0.0
H25 H 0.25508 0.25186 0.21449 0.0
H26 H 0.31276 0.25184 0.26429 0.0
H27 H 0.28516 0.23181 0.29409 0.0
H28 H 0.28001 0.28744 0.20758 0.0
H29 H 0.32802 0.24234 0.22306 0.0
H30 H 0.34187 0.28756 0.16279 0.0
H31 H 0.34921 0.25186 0.14659 0.0
H32 H 0.3713 0.25031 0.22142 0.0
H33 H 0.39998 0.2265 0.20919 0.0
H34 H 0.27042 0.28055 0.15774 0.0
H35 H 0.32972 0.33269 0.17253 0.0
H36 H 0.37773 0.22819 0.13442 0.0
H37 H 0.25296 0.30597 0.1323 0.0
H38 H 0.31203 0.35853 0.14711 0.0
C39 C 0.33708 0.85456 0.696 0.0
C40 C 0.36111 0.86327 0.6996 0.0
C41 C 0.32756 0.85302 0.67263 0.0
C42 C 0.34191 0.85983 0.65232 0.0
C43 C 0.3661 0.86759 0.65567 0.0
C44 C 0.37559 0.86942 0.67909 0.0
C45 C 0.3314 0.85987 0.62785 0.0
C46 C 0.31134 0.86984 0.62463 0.0
C47 C 0.30138 0.87045 0.60148 0.0
C48 C 0.31153 0.86064 0.58147 0.0
C49 C 0.33157 0.85051 0.58442 0.0
C50 C 0.34152 0.85036 0.60769 0.0
C51 C 0.34165 0.83931 0.56351 0.0
C52 C 0.32681 0.8251 0.54759 0.0
C53 C 0.36623 0.84162 0.56023 0.0
C54 C 0.37581 0.829 0.54237 0.0
C55 C 0.361 0.81377 0.5274 0.0
C56 C 0.28072 0.8818 0.59821 0.0
C57 C 0.26194 0.87895 0.61518 0.0
C58 C 0.27993 0.89604 0.57841 0.0
C59 C 0.26089 0.90738 0.57579 0.0
C60 C 0.24223 0.90473 0.5929 0.0
C61 C 0.24288 0.89029 0.61255 0.0
C62 C 0.3364 0.81244 0.52972 0.0
H63 H 0.3255 0.84918 0.71128 0.0
H64 H 0.30889 0.84667 0.67044 0.0
H65 H 0.37749 0.87308 0.64028 0.0
H66 H 0.39408 0.87649 0.68115 0.0
H67 H 0.30393 0.87778 0.64009 0.0
H68 H 0.35674 0.84225 0.61031 0.0
H69 H 0.30381 0.86086 0.56357 0.0
H70 H 0.30778 0.82292 0.5497 0.0
H71 H 0.37809 0.85271 0.57199 0.0
H72 H 0.39484 0.83027 0.54128 0.0
H73 H 0.26196 0.86792 0.6305 0.0
H74 H 0.29424 0.89874 0.56516 0.0
H75 H 0.32455 0.80098 0.51832 0.0
H76 H 0.22883 0.88801 0.62611 0.0
H77 H 0.26073 0.91816 0.56027 0.0
C78 C 0.73433 0.41037 0.88389 0.0
C79 C 0.75288 0.39859 0.88898 0.0
C80 C 0.71356 0.3996 0.87267 0.0
C81 C 0.71059 0.37667 0.86644 0.0
C82 C 0.72911 0.36491 0.87136 0.0
C83 C 0.74996 0.37571 0.88232 0.0
C84 C 0.68817 0.36491 0.85521 0.0
C85 C 0.67745 0.37468 0.83616 0.0
C86 C 0.65647 0.36356 0.82528 0.0
C87 C 0.64622 0.34224 0.83399 0.0
C88 C 0.65656 0.33212 0.85318 0.0
C89 C 0.67751 0.34374 0.86358 0.0
C90 C 0.64559 0.30958 0.86272 0.0
C91 C 0.62089 0.30334 0.86487 0.0
C92 C 0.65983 0.29428 0.87049 0.0
C93 C 0.6498 0.27371 0.88058 0.0
C94 C 0.62513 0.26756 0.88307 0.0
C95 C 0.6455 0.37421 0.80474 0.0
C96 C 0.64534 0.39745 0.80484 0.0
C97 C 0.63544 0.36139 0.78467 0.0
C98 C 0.62571 0.37151 0.76526 0.0
C99 C 0.62568 0.39479 0.7653 0.0
C100 C 0.63561 0.40756 0.78546 0.0
C101 C 0.61083 0.28266 0.87484 0.0
H102 H 0.7356 0.42787 0.889 0.0
H103 H 0.69956 0.40912 0.86939 0.0
H104 H 0.72759 0.34733 0.86646 0.0
H105 H 0.7639 0.36608 0.88533 0.0
H106 H 0.68591 0.39075 0.82932 0.0
H107 H 0.68533 0.33656 0.87878 0.0
H108 H 0.63013 0.33352 0.82581 0.0
H109 H 0.60926 0.31463 0.85933 0.0
H110 H 0.67889 0.29818 0.86882 0.0
H111 H 0.66154 0.26282 0.88687 0.0
H112 H 0.65262 0.40792 0.82002 0.0
H113 H 0.6354 0.34351 0.78371 0.0
H114 H 0.59176 0.27853 0.87603 0.0
H115 H 0.63623 0.42552 0.78617 0.0
H116 H 0.61802 0.361 0.75029 0.0
C117 C 0.86937 0.65361 0.26342 0.0
C118 C 0.8918 0.64707 0.26466 0.0
C119 C 0.85976 0.66372 0.28349 0.0
C120 C 0.87251 0.66816 0.30517 0.0
C121 C 0.89505 0.6622 0.30645 0.0
C122 C 0.90446 0.65156 0.28659 0.0
C123 C 0.86203 0.6785 0.32656 0.0
C124 C 0.84101 0.66745 0.33733 0.0
C125 C 0.83078 0.67687 0.35766 0.0
C126 C 0.8418 0.69792 0.3667 0.0
C127 C 0.86276 0.70944 0.3561 0.0
C128 C 0.8729 0.69935 0.33613 0.0
C129 C 0.87378 0.73201 0.36592 0.0
C130 C 0.85955 0.74736 0.37455 0.0
C131 C 0.89848 0.73831 0.36725 0.0
C132 C 0.9086 0.75919 0.37719 0.0
C133 C 0.89432 0.77436 0.38624 0.0
C134 C 0.80869 0.66483 0.36957 0.0
C135 C 0.79059 0.65205 0.35571 0.0
C136 C 0.80538 0.66625 0.39502 0.0
C137 C 0.78447 0.65571 0.40616 0.0
C138 C 0.76638 0.64315 0.39227 0.0
C139 C 0.76978 0.64124 0.36694 0.0
C140 C 0.86963 0.7681 0.38468 0.0
H141 H 0.85915 0.65114 0.24687 0.0
H142 H 0.84239 0.66832 0.282 0.0
H143 H 0.90515 0.66528 0.32306 0.0
H144 H 0.9215 0.6465 0.28876 0.0
H145 H 0.83304 0.65118 0.33019 0.0
H146 H 0.88886 0.70796 0.32748 0.0
H147 H 0.83397 0.70543 0.38215 0.0
H148 H 0.84048 0.74343 0.37349 0.0
H149 H 0.91008 0.72696 0.36099 0.0
H150 H 0.92767 0.76343 0.37767 0.0
H151 H 0.79224 0.65075 0.33608 0.0
H152 H 0.81904 0.67537 0.40649 0.0
H153 H 0.85792 0.77904 0.39166 0.0
H154 H 0.75609 0.63181 0.35572 0.0
H155 H 0.78256 0.65721 0.42576 0.0
C156 C 0.75258 0.78103 0.73882 0.0
C157 C 0.75969 0.80403 0.73481 0.0
C158 C 0.73768 0.77371 0.75847 0.0
C159 C 0.72979 0.78925 0.77465 0.0
C160 C 0.736 0.81223 0.76982 0.0
C161 C 0.75069 0.81952 0.7501 0.0
C162 C 0.71743 0.7819 0.79787 0.0
C163 C 0.7249 0.76505 0.81151 0.0
C164 C 0.71614 0.76029 0.83517 0.0
C165 C 0.69959 0.7726 0.84532 0.0
C166 C 0.6916 0.78935 0.8318 0.0
C167 C 0.70023 0.79345 0.80791 0.0
C168 C 0.67572 0.80382 0.84306 0.0
C169 C 0.65672 0.79488 0.85833 0.0
C170 C 0.67979 0.82699 0.83877 0.0
C171 C 0.66513 0.84082 0.84919 0.0
C172 C 0.64609 0.83193 0.86435 0.0
C173 C 0.72646 0.74407 0.8498 0.0
C174 C 0.72914 0.72318 0.83965 0.0
C175 C 0.73623 0.75039 0.87271 0.0
C176 C 0.74969 0.73667 0.88455 0.0
C177 C 0.7535 0.71628 0.87376 0.0
C178 C 0.74239 0.70939 0.85155 0.0
C179 C 0.64207 0.80881 0.86891 0.0
H180 H 0.75906 0.76872 0.72714 0.0
H181 H 0.73291 0.75588 0.76142 0.0
H182 H 0.73066 0.82473 0.78207 0.0
H183 H 0.75612 0.83736 0.74772 0.0
H184 H 0.73882 0.75659 0.80439 0.0
H185 H 0.69397 0.80613 0.79725 0.0
H186 H 0.69355 0.76957 0.86395 0.0
H187 H 0.65302 0.7771 0.86189 0.0
H188 H 0.69462 0.83457 0.82765 0.0
H189 H 0.66904 0.85863 0.84577 0.0
H190 H 0.72158 0.71785 0.82209 0.0
H191 H 0.73465 0.76652 0.88081 0.0
H192 H 0.62746 0.80147 0.88044 0.0
H193 H 0.74448 0.69357 0.843 0.0
H194 H 0.75814 0.74263 0.90151 0.0
C195 C 0.66075 0.15745 0.37014 0.0
C196 C 0.65399 0.17461 0.35634 0.0
C197 C 0.67453 0.16253 0.39086 0.0
C198 C 0.68193 0.18489 0.39826 0.0
C199 C 0.67482 0.20208 0.38477 0.0
C200 C 0.66103 0.19699 0.36396 0.0
C201 C 0.69734 0.19011 0.41979 0.0
C202 C 0.71628 0.17859 0.42324 0.0
C203 C 0.73052 0.18272 0.44397 0.0
C204 C 0.72572 0.19872 0.46135 0.0
C205 C 0.7071 0.21064 0.45795 0.0
C206 C 0.693 0.20627 0.43712 0.0
C207 C 0.70202 0.22746 0.47625 0.0
C208 C 0.7001 0.22233 0.50116 0.0
C209 C 0.69804 0.24849 0.46867 0.0
C210 C 0.69146 0.26385 0.48553 0.0
C211 C 0.68861 0.25847 0.51034 0.0
C212 C 0.75033 0.17024 0.4474 0.0
C213 C 0.74753 0.14722 0.4418 0.0
C214 C 0.7722 0.18125 0.45612 0.0
C215 C 0.79084 0.16948 0.45923 0.0
C216 C 0.78803 0.14645 0.45363 0.0
C217 C 0.76619 0.13547 0.44483 0.0
C218 C 0.69329 0.23767 0.51807 0.0
H219 H 0.65591 0.14005 0.36459 0.0
H220 H 0.67947 0.14891 0.40106 0.0
H221 H 0.68036 0.21949 0.39 0.0
H222 H 0.65597 0.21056 0.35377 0.0
H223 H 0.72019 0.16662 0.40949 0.0
H224 H 0.67818 0.21499 0.4348 0.0
H225 H 0.73646 0.20193 0.47754 0.0
H226 H 0.70301 0.20616 0.50742 0.0
H227 H 0.69961 0.25292 0.4496 0.0
H228 H 0.68763 0.27959 0.47893 0.0
H229 H 0.73082 0.1382 0.43528 0.0
H230 H 0.77499 0.19903 0.46035 0.0
H231 H 0.69124 0.23312 0.53707 0.0
H232 H 0.76353 0.11779 0.44012 0.0
H233 H 0.80737 0.17837 0.46634 0.0
C234 C 0.28 0.65227 0.18058 0.0
C235 C 0.27685 0.65375 0.15531 0.0
C236 C 0.30075 0.66312 0.19175 0.0
C237 C 0.31912 0.67556 0.17792 0.0
C238 C 0.31603 0.67668 0.15254 0.0
C239 C 0.29517 0.66607 0.14145 0.0
C240 C 0.3412 0.68756 0.18986 0.0
C241 C 0.35092 0.67839 0.21006 0.0
C242 C 0.37151 0.68965 0.22155 0.0
C243 C 0.38264 0.71041 0.21219 0.0
C244 C 0.37346 0.71984 0.19181 0.0
C245 C 0.35266 0.70834 0.18106 0.0
C246 C 0.38532 0.74169 0.18149 0.0
C247 C 0.39372 0.76019 0.19669 0.0
C248 C 0.38766 0.74436 0.15609 0.0
C249 C 0.39774 0.76498 0.14615 0.0
C250 C 0.4057 0.7837 0.16126 0.0
C251 C 0.38131 0.67947 0.24315 0.0
C252 C 0.36611 0.66824 0.26099 0.0
C253 C 0.40582 0.68043 0.24595 0.0
C254 C 0.41479 0.67017 0.26575 0.0
C255 C 0.39953 0.65865 0.28339 0.0
C256 C 0.37505 0.65801 0.28075 0.0
C257 C 0.40368 0.78092 0.18673 0.0
H258 H 0.26615 0.64312 0.19185 0.0
H259 H 0.30215 0.66209 0.21134 0.0
H260 H 0.32985 0.6856 0.14108 0.0
H261 H 0.29351 0.66727 0.12189 0.0
H262 H 0.34275 0.6621 0.21652 0.0
H263 H 0.34506 0.71597 0.16604 0.0
H264 H 0.3985 0.71925 0.22072 0.0
H265 H 0.39201 0.75884 0.21631 0.0
H266 H 0.38179 0.7304 0.1438 0.0
H267 H 0.39944 0.76612 0.12652 0.0
H268 H 0.34717 0.66747 0.25982 0.0
H269 H 0.41812 0.68865 0.23249 0.0
H270 H 0.4093 0.7949 0.19905 0.0
H271 H 0.3627 0.64976 0.29413 0.0
H272 H 0.43371 0.67084 0.26688 0.0
C273 C 0.15489 0.28398 0.67382 0.0
C274 C 0.13066 0.27881 0.66842 0.0
C275 C 0.16455 0.30475 0.68413 0.0
C276 C 0.15028 0.32097 0.68957 0.0
C277 C 0.12595 0.31569 0.68482 0.0
C278 C 0.11627 0.29492 0.67429 0.0
C279 C 0.16107 0.34345 0.69951 0.0
C280 C 0.18236 0.35467 0.68944 0.0
C281 C 0.19359 0.37547 0.69891 0.0
C282 C 0.18294 0.38507 0.71887 0.0
C283 C 0.16134 0.3744 0.72901 0.0
C284 C 0.15049 0.35362 0.71908 0.0
C285 C 0.15022 0.38495 0.75004 0.0
C286 C 0.1639 0.39444 0.76989 0.0
C287 C 0.1259 0.38589 0.75032 0.0
C288 C 0.1156 0.39634 0.76974 0.0
C289 C 0.1293 0.40589 0.78955 0.0
C290 C 0.21627 0.38704 0.68768 0.0
C291 C 0.23299 0.37455 0.67807 0.0
C292 C 0.22119 0.41056 0.68582 0.0
C293 C 0.24198 0.42116 0.67434 0.0
C294 C 0.25821 0.40853 0.66413 0.0
C295 C 0.25353 0.38512 0.66629 0.0
C296 C 0.15356 0.40465 0.78944 0.0
H297 H 0.1665 0.27191 0.67021 0.0
H298 H 0.18328 0.30808 0.68796 0.0
H299 H 0.11448 0.32787 0.68861 0.0
H300 H 0.0976 0.29175 0.6702 0.0
H301 H 0.18991 0.3473 0.67371 0.0
H302 H 0.13419 0.34503 0.72709 0.0
H303 H 0.1914 0.40095 0.72654 0.0
H304 H 0.18264 0.39385 0.77039 0.0
H305 H 0.11486 0.37888 0.73529 0.0
H306 H 0.09684 0.39682 0.76931 0.0
H307 H 0.23029 0.35651 0.67964 0.0
H308 H 0.20872 0.42081 0.69264 0.0
H309 H 0.16468 0.41197 0.80428 0.0
H310 H 0.26587 0.37494 0.65897 0.0
H311 H 0.24502 0.43923 0.67282 0.0
Ho312 Ho 0.02177 0.03635 0.50263 0.0
Ho313 Ho 1.00661 1.01565 0.55228 0.0
C314 C 0.03539 0.06697 0.54962 0.0
C315 C 0.02661 0.05214 0.45908 0.0
C316 C 0.04378 0.0691 0.44681 0.0
C317 C 0.03872 0.07644 0.42375 0.0
C318 C 0.05549 0.09163 0.41126 0.0
C319 C 0.07767 0.09964 0.42163 0.0
C320 C 0.08239 0.09262 0.4451 0.0
C321 C 0.06555 0.0775 0.45762 0.0
C322 C 0.05541 1.01992 0.52676 0.0
C323 C 0.99217 0.9854 0.5053 0.0
C324 C 1.00135 0.99812 0.59492 0.0
C325 C 0.98486 0.97876 0.6039 0.0
C326 C 0.98811 0.96982 0.62671 0.0
C327 C 0.97207 0.95156 0.63528 0.0
C328 C 0.9525 0.94204 0.62115 0.0
C329 C 0.94961 0.95097 0.5981 0.0
C330 C 0.9657 0.96908 0.58953 0.0
C331 C 0.97291 0.03194 0.52798 0.0
O332 O 0.0312 0.06709 0.52598 0.0
O333 O 0.03025 0.04841 0.56255 0.0
O334 O 0.03469 0.03424 0.46572 0.0
O335 O 0.01338 0.05958 0.47587 0.0
O336 O 0.05975 0.03753 0.51325 0.0
O337 O 0.03398 1.01129 0.52545 0.0
O338 O 0.99664 0.98504 0.52884 0.0
O339 O 0.99738 1.00403 0.49255 0.0
O340 O 0.99162 1.01519 0.5886 0.0
O341 O 0.01706 0.99345 0.579 0.0
O342 O 0.96859 1.01441 0.54158 0.0
O343 O 0.99432 0.04058 0.52936 0.0
H344 H 0.02192 0.0702 0.41525 0.0
H345 H 0.05111 0.09701 0.39342 0.0
H346 H 0.09934 0.09829 0.45353 0.0
H347 H 0.06968 0.07201 0.4755 0.0
H348 H 1.00296 0.977 0.63791 0.0
H349 H 0.97504 0.94489 0.65294 0.0
H350 H 0.93461 0.94433 0.58687 0.0
H351 H 0.96301 0.97573 0.57177 0.0
Ho352 Ho 0.53965 0.03113 0.0326 0.0
Ho353 Ho 0.49213 1.01997 1.01138 0.0
C354 C 0.49571 0.0514 0.05761 0.0
C355 C 0.57808 0.05121 0.05258 0.0
C356 C 0.58273 0.06405 0.07568 0.0
C357 C 0.57699 0.08566 0.07862 0.0
C358 C 0.57959 0.09672 0.10125 0.0
C359 C 0.58778 0.08632 0.12133 0.0
C360 C 0.59413 0.06504 0.11823 0.0
C361 C 0.59179 0.05408 0.09559 0.0
C362 C 0.51471 0.99175 0.04804 0.0
C363 C 0.53611 0.99952 0.98693 0.0
C364 C 0.45321 1.0006 0.99164 0.0
C365 C 0.44736 0.98519 0.97072 0.0
C366 C 0.45776 0.96588 0.96754 0.0
C367 C 0.45315 0.9524 0.94662 0.0
C368 C 0.4383 0.95816 0.92848 0.0
C369 C 0.42765 0.97727 0.93192 0.0
C370 C 0.43209 0.99061 0.95289 0.0
C371 C 0.51718 0.05952 0.9965 0.0
O372 O 0.5188 0.05337 0.05427 0.0
O373 O 0.48089 0.0367 0.04498 0.0
O374 O 0.57022 0.02981 0.05476 0.0
O375 O 0.56704 0.06025 0.03568 0.0
O376 O 0.53713 0.99509 0.04309 0.0
O377 O 0.5066 1.00973 0.04546 0.0
O378 O 0.51306 0.99679 0.99103 0.0
O379 O 0.55066 1.01525 0.99849 0.0
O380 O 0.46367 1.02075 0.98617 0.0
O381 O 0.46248 0.99274 1.01061 0.0
O382 O 0.49484 0.0563 1.00187 0.0
O383 O 0.52514 0.04141 0.99858 0.0
H384 H 0.57 0.09385 0.06365 0.0
H385 H 0.57454 0.11312 0.10323 0.0
H386 H 0.60085 0.05683 0.13337 0.0
H387 H 0.59656 0.03755 0.09381 0.0
H388 H 0.46975 0.9614 0.98095 0.0
H389 H 0.46169 0.93784 0.94432 0.0
H390 H 0.4159 0.98192 0.91834 0.0
H391 H 0.42391 1.00543 0.95499 0.0
Ho392 Ho 0.51245 0.50626 0.50841 0.0
Ho393 Ho 0.50822 0.54437 0.54112 0.0
C394 C 0.52971 0.50556 0.56515 0.0
C395 C 0.52757 0.47361 0.48596 0.0
C396 C 0.53843 0.45505 0.49524 0.0
C397 C 0.55913 0.45926 0.50917 0.0
C398 C 0.56815 0.44164 0.51953 0.0
C399 C 0.55663 0.41943 0.51632 0.0
C400 C 0.53602 0.41523 0.50222 0.0
C401 C 0.52706 0.43288 0.49173 0.0
C402 C 0.46979 0.50302 0.53088 0.0
C403 C 0.49094 0.54511 0.48424 0.0
C404 C 0.4938 0.57736 0.56363 0.0
C405 C 0.4853 0.59728 0.55438 0.0
C406 C 0.46549 0.59513 0.53917 0.0
C407 C 0.45886 0.614 0.52884 0.0
C408 C 0.47191 0.63542 0.53341 0.0
C409 C 0.49156 0.63755 0.54886 0.0
C410 C 0.49813 0.61867 0.55929 0.0
C411 C 0.5508 0.54727 0.51851 0.0
O412 O 0.53199 0.49855 0.54235 0.0
O413 O 0.51803 0.52213 0.57012 0.0
O414 O 0.50539 0.47311 0.49195 0.0
O415 O 0.54002 0.49372 0.48796 0.0
O416 O 0.47287 0.49722 0.50835 0.0
O417 O 0.48958 0.50969 0.54062 0.0
O418 O 0.48936 0.55267 0.50694 0.0
O419 O 0.50182 0.52797 0.47936 0.0
O420 O 0.51612 0.57662 0.55949 0.0
O421 O 0.48028 0.558 0.55974 0.0
O422 O 0.54795 0.55274 0.54118 0.0
O423 O 0.53092 0.54104 0.50887 0.0
H424 H 0.56826 0.47619 0.51239 0.0
H425 H 0.58429 0.44544 0.52991 0.0
H426 H 0.52659 0.39834 0.49957 0.0
H427 H 0.51097 0.42924 0.48124 0.0
H428 H 0.45525 0.57886 0.53491 0.0
H429 H 0.4434 0.61179 0.51738 0.0
H430 H 0.50212 0.65379 0.55259 0.0
H431 H 0.51355 0.62074 0.57082 0.0
Ho432 Ho 0.01629 0.50406 0.03707 0.0
Ho433 Ho 1.00767 0.55158 1.01746 0.0
C434 C 0.05726 0.54854 0.04325 0.0
C435 C 0.03299 0.46839 0.04739 0.0
C436 C 0.05654 0.46198 0.05043 0.0
C437 C 0.07153 0.45977 0.03036 0.0
C438 C 0.09343 0.45308 0.03371 0.0
C439 C 0.10077 0.44846 0.05715 0.0
C440 C 0.0858 0.4508 0.07718 0.0
C441 C 0.06392 0.4574 0.07384 0.0
C442 C 0.99046 0.52773 0.06596 0.0
C443 C 0.9692 0.50611 1.00651 0.0
C444 C 0.99167 0.58883 1.0157 0.0
C445 C 0.97535 0.59877 1.00066 0.0
C446 C 0.97033 0.61996 1.00701 0.0
C447 C 0.95308 0.62884 0.99451 0.0
C448 C 0.94051 0.61663 0.97539 0.0
C449 C 0.94604 0.59552 0.96872 0.0
C450 C 0.96331 0.58664 0.98129 0.0
C451 C 0.02678 0.52751 0.9821 0.0
O452 O 0.05169 0.52633 0.04272 0.0
O453 O 0.04248 0.56182 0.03628 0.0
O454 O 0.02667 0.48212 0.06398 0.0
O455 O 0.02689 0.47292 0.02531 0.0
O456 O 0.98688 0.50599 0.06432 0.0
O457 O 1.00823 0.53558 0.05313 0.0
O458 O 0.97364 0.52834 1.0083 0.0
O459 O 0.984 0.49318 1.01434 0.0
O460 O 0.01174 0.58588 1.00545 0.0
O461 O 0.98177 0.5717 0.0286 0.0
O462 O 0.021 0.54705 0.97846 0.0
O463 O 0.02166 0.52274 1.00389 0.0
H464 H 0.06636 0.46303 1.01205 0.0
H465 H 0.10463 0.45154 1.01793 0.0
H466 H 0.09073 0.44698 0.09542 0.0
H467 H 0.05262 0.4587 0.0896 0.0
H468 H 0.97931 0.62941 0.02211 0.0
H469 H 0.94905 0.64495 1.00041 0.0
H470 H 0.93689 0.5858 0.95392 0.0
H471 H 0.96692 0.57015 0.97627 0.0
C472 C 0.22077 0.19957 0.28002 0.0
C473 C 0.23752 0.21747 0.28872 0.0
C474 C 0.20402 0.18791 0.29576 0.0
C475 C 0.19018 0.17551 0.36036 0.0
H476 H 0.12633 0.15986 0.33595 0.0
C477 C 0.11092 0.13245 0.41907 0.0
C478 C 0.09607 0.11454 0.40759 0.0
C479 C 0.12838 0.14619 0.40571 0.0
C480 C 0.1441 0.16398 0.34298 0.0
H481 H 0.25026 0.23683 0.32089 0.0
H482 H 0.22077 0.21639 0.34857 0.0
H483 H 0.15673 0.18157 0.31075 0.0
H484 H 0.08839 0.09673 0.37319 0.0
H485 H 0.11855 0.12079 0.34994 0.0
H486 H 0.17738 0.15774 0.39262 0.0
C487 C 0.22075 0.21135 0.32952 0.0
C488 C 0.16153 0.17639 0.32853 0.0
C489 C 0.23761 0.22304 0.31371 0.0
C490 C 0.09914 0.11067 0.38251 0.0
C491 C 0.11647 0.12443 0.36918 0.0
C492 C 0.17265 0.16309 0.37489 0.0
C493 C 0.20355 0.19387 0.32061 0.0
C494 C 0.18486 0.18196 0.33686 0.0
C495 C 0.13124 0.14237 0.3806 0.0
C496 C 0.14953 0.15689 0.36614 0.0
H497 H 0.2206 0.19455 0.26096 0.0
H498 H 0.19142 0.17415 0.28843 0.0
H499 H 0.20802 0.17944 0.36722 0.0
H500 H 0.10887 0.13602 0.43832 0.0
H501 H 0.1394 0.16002 0.41494 0.0
C502 C 0.39391 0.86459 0.72997 0.0
C503 C 0.37064 0.8673 0.72467 0.0
C504 C 0.40334 0.87023 0.75307 0.0
C505 C 0.38721 0.8813 0.81697 0.0
H506 H 0.44674 0.92245 0.81816 0.0
C507 C 0.4281 0.92118 0.90651 0.0
C508 C 0.43417 0.94461 0.90575 0.0
C509 C 0.42294 0.90864 0.88502 0.0
C510 C 0.43019 0.91084 0.81811 0.0
H511 H 0.33902 0.87784 0.73979 0.0
H512 H 0.35528 0.88713 0.78002 0.0
H513 H 0.432 0.90518 0.77955 0.0
H514 H 0.44064 0.97324 0.88198 0.0
H515 H 0.43165 0.9514 0.84449 0.0
H516 H 0.38497 0.88762 0.85538 0.0
C517 C 0.36615 0.88047 0.76637 0.0
C518 C 0.42186 0.90082 0.79608 0.0
C519 C 0.35682 0.87508 0.74327 0.0
C520 C 0.43575 0.95521 0.88309 0.0
C521 C 0.43086 0.94269 0.86163 0.0
C522 C 0.39564 0.89117 0.83904 0.0
C523 C 0.3896 0.87844 0.77141 0.0
C524 C 0.39999 0.88641 0.7952 0.0
C525 C 0.4241 0.91932 0.86239 0.0
C526 C 0.4169 0.9065 0.83971 0.0
H527 H 0.40494 0.85831 0.71622 0.0
H528 H 0.42142 0.86834 0.75655 0.0
H529 H 0.37038 0.87011 0.81682 0.0
H530 H 0.42671 0.91262 0.92378 0.0
H531 H 0.41786 0.89063 0.88609 0.0
C532 C 0.61819 0.39849 0.72018 0.0
C533 C 0.61548 0.40572 0.74446 0.0
C534 C 0.6089 0.40891 0.70072 0.0
C535 C 0.56492 0.44586 0.68643 0.0
H536 H 0.60014 0.45486 0.62564 0.0
C537 C 0.53755 0.50111 0.60986 0.0
C538 C 0.53986 0.49413 0.58546 0.0
C539 C 0.54672 0.49016 0.62896 0.0
C540 C 0.58989 0.45228 0.64236 0.0
H541 H 0.60031 0.42962 0.76697 0.0
H542 H 0.58469 0.448 0.73321 0.0
H543 H 0.61597 0.4362 0.65914 0.0
H544 H 0.5538 0.46996 0.56226 0.0
H545 H 0.5696 0.45084 0.59543 0.0
H546 H 0.53888 0.462 0.66969 0.0
C547 C 0.5938 0.43408 0.72916 0.0
C548 C 0.599 0.44151 0.66167 0.0
C549 C 0.60308 0.42367 0.7486 0.0
C550 C 0.55172 0.47592 0.58074 0.0
C551 C 0.56093 0.46498 0.59985 0.0
C552 C 0.55583 0.45665 0.66715 0.0
C553 C 0.59657 0.42691 0.70487 0.0
C554 C 0.5867 0.43818 0.68406 0.0
C555 C 0.55853 0.47188 0.62429 0.0
C556 C 0.56819 0.46011 0.64481 0.0
H557 H 0.62781 0.38492 0.7161 0.0
H558 H 0.61123 0.40267 0.68238 0.0
H559 H 0.55463 0.44328 0.70313 0.0
H560 H 0.5286 0.51507 0.61428 0.0
H561 H 0.54478 0.49625 0.64743 0.0
C562 C 0.88677 0.62194 0.22687 0.0
C563 C 0.90175 0.63545 0.24337 0.0
C564 C 0.89597 0.61115 0.20703 0.0
C565 C 0.95239 0.60938 0.17142 0.0
H566 H 0.91653 0.55384 0.14668 0.0
C567 C 0.98508 0.56407 0.08658 0.0
C568 C 0.97933 0.54063 0.08483 0.0
C569 C 0.97506 0.57602 0.10497 0.0
C570 C 0.9271 0.56913 0.15346 0.0
H571 H 0.93866 0.64804 0.25115 0.0
H572 H 0.95455 0.62804 0.21804 0.0
H573 H 0.90123 0.57288 0.18082 0.0
H574 H 0.95893 0.5113 0.1014 0.0
H575 H 0.94258 0.5317 0.13411 0.0
H576 H 0.97905 0.60477 0.14517 0.0
C577 C 0.93554 0.62635 0.21982 0.0
C578 C 0.91798 0.58045 0.17294 0.0
C579 C 0.92633 0.63757 0.23934 0.0
C580 C 0.96353 0.52939 0.10204 0.0
C581 C 0.95394 0.54124 0.12077 0.0
C582 C 0.96177 0.59779 0.15229 0.0
C583 C 0.92054 0.61296 0.20322 0.0
C584 C 0.9304 0.60083 0.18228 0.0
C585 C 0.95946 0.5648 0.12259 0.0
C586 C 0.9493 0.57744 0.14291 0.0
H587 H 0.86778 0.61936 0.2293 0.0
H588 H 0.8836 0.60148 0.19462 0.0
H589 H 0.96248 0.62517 0.17752 0.0
H590 H 0.99746 0.57323 0.07381 0.0
H591 H 0.97957 0.59409 0.10521 0.0
C592 C 0.41886 0.21036 0.14157 0.0
C593 C 0.40616 0.20855 0.16373 0.0
C594 C 0.43096 0.19332 0.13363 0.0
C595 C 0.42976 0.13287 0.14048 0.0
H596 H 0.48887 0.14473 0.10429 0.0
C597 C 0.50206 0.08302 0.08817 0.0
C598 C 0.48645 0.06713 0.07469 0.0
C599 C 0.49356 0.09942 0.10231 0.0
C600 C 0.47252 0.14108 0.11464 0.0
H601 H 0.39682 0.18764 0.19526 0.0
H602 H 0.41835 0.15816 0.18164 0.0
H603 H 0.4729 0.17573 0.12335 0.0
H604 H 0.44957 0.05554 0.06627 0.0
H605 H 0.43478 0.08426 0.09072 0.0
H606 H 0.42936 0.09822 0.13176 0.0
C607 C 0.41868 0.17264 0.17025 0.0
C608 C 0.46324 0.15889 0.12532 0.0
C609 C 0.40659 0.18969 0.1782 0.0
C610 C 0.46208 0.06749 0.07643 0.0
C611 C 0.45358 0.08392 0.09057 0.0
C612 C 0.43904 0.11506 0.1298 0.0
C613 C 0.43064 0.17406 0.14766 0.0
C614 C 0.44157 0.15503 0.13807 0.0
C615 C 0.46925 0.10032 0.10331 0.0
C616 C 0.46035 0.11898 0.11644 0.0
H617 H 0.41909 0.22478 0.13012 0.0
H618 H 0.43983 0.19489 0.11604 0.0
H619 H 0.41291 0.12931 0.14997 0.0
H620 H 0.52095 0.08315 0.08739 0.0
H621 H 0.50606 0.11159 0.11223 0.0
C622 C 0.19886 0.90628 0.59421 0.0
C623 C 0.22221 0.91704 0.59021 0.0
C624 C 0.17998 0.9177 0.59081 0.0
C625 C 0.16483 0.97441 0.58521 0.0
H626 H 0.11176 0.94337 0.54825 0.0
C627 C 0.09724 1.01971 0.53825 0.0
C628 C 0.07355 1.00918 0.53819 0.0
C629 C 0.11464 1.00882 0.54774 0.0
C630 C 0.12625 0.95217 0.55894 0.0
H631 H 0.24413 0.94842 0.58036 0.0
H632 H 0.21116 0.9682 0.57392 0.0
H633 H 0.1435 0.92354 0.55928 0.0
H634 H 0.04925 0.97932 0.54838 0.0
H635 H 0.07954 0.96044 0.56533 0.0
H636 H 0.1477 1.0032 0.58443 0.0
C637 C 0.20744 0.95101 0.57988 0.0
C638 C 0.14444 0.9408 0.56526 0.0
C639 C 0.22631 0.93959 0.58326 0.0
C640 C 0.0674 0.98785 0.54831 0.0
C641 C 0.08476 0.97697 0.55781 0.0
C642 C 0.14661 0.98581 0.57887 0.0
C643 C 0.18407 0.94013 0.58339 0.0
C644 C 0.16405 0.95186 0.57822 0.0
C645 C 0.10861 0.98719 0.5573 0.0
C646 C 0.12725 0.97486 0.56545 0.0
H647 H 0.19514 0.88887 0.59944 0.0
H648 H 0.16216 0.90894 0.59389 0.0
H649 H 0.17956 0.98328 0.59551 0.0
H650 H 0.10239 0.03618 0.53054 0.0
H651 H 0.1329 1.01703 0.54685 0.0
C652 C 0.78712 0.39828 0.91758 0.0
C653 C 0.77504 0.40997 0.90126 0.0
C654 C 0.80795 0.40876 0.92886 0.0
C655 C 0.84143 0.46427 0.94636 0.0
H656 H 0.8946 0.43262 0.95002 0.0
C657 C 0.9328 0.50798 0.98188 0.0
C658 C 0.94669 0.49525 0.9949 0.0
C659 C 0.91192 0.49774 0.97051 0.0
C660 C 0.87986 0.44165 0.94957 0.0
H661 H 0.77599 0.44215 0.88412 0.0
H662 H 0.81191 0.46047 0.90422 0.0
H663 H 0.85829 0.41461 0.93053 0.0
H664 H 0.94907 0.46164 1.00639 0.0
H665 H 0.91248 0.44393 0.98728 0.0
H666 H 0.8627 0.49114 0.9658 0.0
C667 C 0.80513 0.44314 0.90831 0.0
C668 C 0.859 0.43129 0.93826 0.0
C669 C 0.78441 0.4326 0.89682 0.0
C670 C 0.93897 0.47201 0.9964 0.0
C671 C 0.91797 0.46179 0.98524 0.0
C672 C 0.86221 0.47456 0.95791 0.0
C673 C 0.81724 0.43134 0.9244 0.0
C674 C 0.8395 0.44246 0.93646 0.0
C675 C 0.90413 0.47445 0.97198 0.0
C676 C 0.88181 0.46344 0.9597 0.0
H677 H 0.78035 0.38103 0.922 0.0
H678 H 0.81659 0.39924 0.94143 0.0
H679 H 0.82667 0.47327 0.9456 0.0
H680 H 0.93821 0.5259 0.98013 0.0
H681 H 0.90212 0.50811 0.96018 0.0
C682 C 0.7324 0.64442 0.42133 0.0
C683 C 0.74398 0.63236 0.40426 0.0
C684 C 0.71155 0.63434 0.43295 0.0
C685 C 0.66321 0.58442 0.42965 0.0
H686 H 0.65175 0.60283 0.49611 0.0
C687 C 0.5733 0.5562 0.47932 0.0
C688 C 0.5732 0.55398 0.50477 0.0
C689 C 0.59428 0.56454 0.46675 0.0
C690 C 0.6547 0.59715 0.47769 0.0
H691 H 0.74276 0.60017 0.38607 0.0
H692 H 0.70684 0.58227 0.40686 0.0
H693 H 0.68782 0.61916 0.47533 0.0
H694 H 0.59511 0.55769 0.53686 0.0
H695 H 0.63179 0.57123 0.51501 0.0
H696 H 0.63048 0.56168 0.43246 0.0
C697 C 0.71344 0.59975 0.41088 0.0
C698 C 0.67535 0.60691 0.46551 0.0
C699 C 0.73414 0.60997 0.39899 0.0
C700 C 0.59462 0.55944 0.51726 0.0
C701 C 0.61564 0.56743 0.50469 0.0
C702 C 0.64265 0.57444 0.44196 0.0
C703 C 0.70184 0.61176 0.42813 0.0
C704 C 0.67989 0.60086 0.44122 0.0
C705 C 0.61576 0.57056 0.47928 0.0
C706 C 0.638 0.58072 0.46616 0.0
H707 H 0.73932 0.66181 0.4255 0.0
H708 H 0.70297 0.64442 0.44557 0.0
H709 H 0.6658 0.57941 0.4109 0.0
H710 H 0.55701 0.55219 0.46921 0.0
H711 H 0.59343 0.56689 0.44729 0.0
C712 C 0.26597 0.37043 0.1345 0.0
C713 C 0.26918 0.34983 0.12398 0.0
C714 C 0.25123 0.38345 0.12348 0.0
C715 C 0.2001 0.37606 0.08256 0.0
H716 H 0.20846 0.44089 0.08631 0.0
C717 C 0.13023 0.42386 0.04502 0.0
C718 C 0.12347 0.44029 0.06076 0.0
C719 C 0.15049 0.41472 0.04964 0.0
C720 C 0.20588 0.42278 0.08519 0.0
H721 H 0.2611 0.32751 0.09284 0.0
H722 H 0.23587 0.35044 0.07327 0.0
H723 H 0.24022 0.42167 0.09948 0.0
H724 H 0.13334 0.46083 0.09297 0.0
H725 H 0.16854 0.44464 0.10124 0.0
H726 H 0.16569 0.37707 0.06872 0.0
C727 C 0.2441 0.35627 0.09038 0.0
C728 C 0.22405 0.41176 0.09275 0.0
C729 C 0.25864 0.34319 0.10149 0.0
C730 C 0.13792 0.44798 0.08068 0.0
C731 C 0.15823 0.43889 0.08526 0.0
C732 C 0.18203 0.38705 0.07494 0.0
C733 C 0.23957 0.37619 0.10164 0.0
C734 C 0.22126 0.38824 0.09178 0.0
C735 C 0.16449 0.42185 0.07006 0.0
C736 C 0.18458 0.41051 0.07642 0.0
H737 H 0.27373 0.37584 0.15195 0.0
H738 H 0.24801 0.39859 0.13279 0.0
H739 H 0.19708 0.35792 0.08204 0.0
H740 H 0.1194 0.41747 0.02961 0.0
H741 H 0.155 0.40179 0.03744 0.0
C742 C 0.59401 0.24411 0.90932 0.0
C743 C 0.61448 0.24575 0.89457 0.0
C744 C 0.58439 0.22391 0.92051 0.0
C745 C 0.58566 0.16214 0.91855 0.0
H746 H 0.55616 0.16418 0.98233 0.0
C747 C 0.55254 0.08183 0.97512 0.0
C748 C 0.5301 0.08067 0.98607 0.0
C749 C 0.56387 0.10178 0.9644 0.0
C750 C 0.5642 0.16328 0.96444 0.0
H751 H 0.64048 0.22674 0.87987 0.0
H752 H 0.62432 0.19197 0.89998 0.0
H753 H 0.5736 0.19893 0.96279 0.0
H754 H 0.5022 0.09966 0.99481 0.0
H755 H 0.52191 0.1343 0.97647 0.0
H756 H 0.5764 0.12635 0.9205 0.0
C757 C 0.6154 0.20624 0.90264 0.0
C758 C 0.57416 0.18329 0.95312 0.0
C759 C 0.62493 0.22641 0.89132 0.0
C760 C 0.51948 0.09997 0.9865 0.0
C761 C 0.53086 0.11991 0.97608 0.0
C762 C 0.57586 0.14209 0.93 0.0
C763 C 0.59499 0.20464 0.9175 0.0
C764 C 0.58487 0.18311 0.92986 0.0
C765 C 0.55314 0.12111 0.96472 0.0
C766 C 0.56478 0.14238 0.95302 0.0
H767 H 0.58551 0.25856 0.91261 0.0
H768 H 0.56847 0.22343 0.93143 0.0
H769 H 0.59339 0.16114 0.90054 0.0
H770 H 0.5612 0.06725 0.97453 0.0
H771 H 0.58111 0.10213 0.95601 0.0
C772 C 0.92571 0.7986 0.41144 0.0
C773 C 0.90497 0.79645 0.39754 0.0
C774 C 0.93527 0.81911 0.42253 0.0
C775 C 0.9326 0.88054 0.42183 0.0
H776 H 0.96282 0.88024 0.48452 0.0
C777 C 0.98164 0.96227 0.46719 0.0
C778 C 0.98132 0.96422 0.49277 0.0
C779 C 0.97232 0.94201 0.45546 0.0
C780 C 0.9542 0.88075 0.46715 0.0
H781 H 0.87849 0.81482 0.38414 0.0
H782 H 0.89443 0.85003 0.40423 0.0
H783 H 0.94643 0.84499 0.46472 0.0
H784 H 0.97031 0.9464 0.52602 0.0
H785 H 0.95342 0.91145 0.50567 0.0
H786 H 0.93948 0.91631 0.42475 0.0
C787 C 0.90365 0.83598 0.40625 0.0
C788 C 0.9451 0.86039 0.45553 0.0
C789 C 0.89423 0.81555 0.39497 0.0
C790 C 0.97106 0.94549 0.50629 0.0
C791 C 0.9615 0.92531 0.49456 0.0
C792 C 0.94149 0.90091 0.43357 0.0
C793 C 0.9243 0.83811 0.42028 0.0
C794 C 0.93417 0.85993 0.43265 0.0
C795 C 0.96216 0.92316 0.46895 0.0
C796 C 0.95248 0.90137 0.45642 0.0
H797 H 0.93443 0.78433 0.41417 0.0
H798 H 0.95138 0.82002 0.4328 0.0
H799 H 0.92465 0.88104 0.40411 0.0
H800 H 0.98954 0.97628 0.45618 0.0
H801 H 0.97358 0.94106 0.43577 0.0
C802 C 0.36124 0.7745 0.51293 0.0
C803 C 0.37125 0.79729 0.51209 0.0
C804 C 0.37352 0.75822 0.50347 0.0
C805 C 0.40198 0.72527 0.48145 0.0
H806 H 0.4651 0.73766 0.50816 0.0
C807 C 0.4561 0.65488 0.49865 0.0
C808 C 0.46464 0.65548 0.52264 0.0
C809 C 0.44786 0.67341 0.48921 0.0
C810 C 0.44761 0.73399 0.50037 0.0
H811 H 0.4007 0.82103 0.49819 0.0
H812 H 0.4222 0.7925 0.48152 0.0
H813 H 0.44279 0.76805 0.5039 0.0
H814 H 0.47152 0.67614 0.55531 0.0
H815 H 0.45736 0.70832 0.53888 0.0
H816 H 0.40622 0.69083 0.47987 0.0
C817 C 0.40506 0.78723 0.48998 0.0
C818 C 0.43489 0.75147 0.4976 0.0
C819 C 0.39277 0.80355 0.49952 0.0
C820 C 0.46544 0.67521 0.53665 0.0
C821 C 0.45735 0.69371 0.52719 0.0
C822 C 0.41471 0.70775 0.4843 0.0
C823 C 0.39608 0.76435 0.49293 0.0
C824 C 0.41148 0.74714 0.48925 0.0
C825 C 0.44819 0.69293 0.5035 0.0
C826 C 0.43719 0.71182 0.49494 0.0
H827 H 0.3448 0.76906 0.52266 0.0
H828 H 0.36612 0.7408 0.50634 0.0
H829 H 0.38414 0.72146 0.47455 0.0
H830 H 0.45563 0.64004 0.48723 0.0
H831 H 0.44102 0.67239 0.47084 0.0
C832 C 0.79913 0.80277 0.71537 0.0
C833 C 0.77831 0.81211 0.71656 0.0
C834 C 0.81841 0.81277 0.70138 0.0
C835 C 0.83763 0.85449 0.65354 0.0
H836 H 0.89579 0.86625 0.6903 0.0
C837 C 0.92373 0.90622 0.61502 0.0
C838 C 0.93465 0.92344 0.63068 0.0
C839 C 0.90573 0.88968 0.62366 0.0
C840 C 0.87971 0.86301 0.67978 0.0
H841 H 0.76074 0.83823 0.70269 0.0
H842 H 0.79446 0.85576 0.67831 0.0
H843 H 0.8614 0.84199 0.70721 0.0
H844 H 0.9353 0.93651 0.66781 0.0
H845 H 0.90426 0.90744 0.68291 0.0
H846 H 0.85579 0.87619 0.62647 0.0
C847 C 0.79589 0.84071 0.68817 0.0
C848 C 0.86009 0.84894 0.68933 0.0
C849 C 0.77664 0.8308 0.70227 0.0
C850 C 0.9276 0.92333 0.65532 0.0
C851 C 0.90976 0.90669 0.66398 0.0
C852 C 0.85734 0.86844 0.64389 0.0
C853 C 0.81722 0.83221 0.6882 0.0
C854 C 0.8387 0.84488 0.67653 0.0
C855 C 0.89844 0.88986 0.64818 0.0
C856 C 0.87841 0.87321 0.65716 0.0
H857 H 0.80101 0.78848 0.72632 0.0
H858 H 0.83455 0.80571 0.70152 0.0
H859 H 0.82141 0.85154 0.64322 0.0
H860 H 0.92901 0.90555 0.59604 0.0
H861 H 0.89749 0.87674 0.61115 0.0
C862 C 0.64729 0.18124 0.31216 0.0
C863 C 0.64073 0.16898 0.33341 0.0
C864 C 0.63698 0.17409 0.28983 0.0
C865 C 0.61141 0.1221 0.2593 0.0
H866 H 0.59501 0.16052 0.20873 0.0
C867 C 0.58004 0.08539 0.1662 0.0
C868 C 0.58939 0.09736 0.14565 0.0
C869 C 0.58261 0.09524 0.18939 0.0
C870 C 0.59968 0.14961 0.22262 0.0
H871 H 0.61693 0.14068 0.34825 0.0
H872 H 0.59911 0.1281 0.30922 0.0
H873 H 0.60578 0.17632 0.24919 0.0
H874 H 0.60819 0.12917 0.13299 0.0
H875 H 0.61338 0.14628 0.17365 0.0
H876 H 0.60634 0.09559 0.23281 0.0
C877 C 0.61248 0.14302 0.30979 0.0
C878 C 0.60575 0.15864 0.24577 0.0
C879 C 0.62271 0.15019 0.3321 0.0
C880 C 0.60077 0.11962 0.14859 0.0
C881 C 0.6036 0.12943 0.17186 0.0
C882 C 0.60556 0.11312 0.23619 0.0
C883 C 0.61999 0.15452 0.28833 0.0
C884 C 0.61181 0.14497 0.26428 0.0
C885 C 0.59488 0.11721 0.19258 0.0
C886 C 0.59977 0.12677 0.21749 0.0
H887 H 0.66125 0.19568 0.31252 0.0
H888 H 0.64324 0.18318 0.27355 0.0
H889 H 0.61647 0.11123 0.27305 0.0
H890 H 0.57079 0.06833 0.16433 0.0
H891 H 0.57518 0.08553 0.20486 0.0
C892 C 0.39693 0.62644 0.3127 0.0
C893 C 0.40898 0.64714 0.30426 0.0
C894 C 0.40566 0.61563 0.33217 0.0
C895 C 0.44691 0.62553 0.38484 0.0
H896 H 0.44088 0.56082 0.38317 0.0
C897 C 0.47012 0.5755 0.46833 0.0
C898 C 0.48111 0.55668 0.46384 0.0
C899 C 0.46129 0.58659 0.44911 0.0
C900 C 0.44292 0.57892 0.38394 0.0
H901 H 0.4398 0.67262 0.31024 0.0
H902 H 0.45521 0.65362 0.34379 0.0
H903 H 0.42633 0.57993 0.34932 0.0
H904 H 0.49139 0.53495 0.43524 0.0
H905 H 0.47628 0.55429 0.40187 0.0
H906 H 0.46396 0.62454 0.41926 0.0
C907 C 0.4388 0.64583 0.33549 0.0
C908 C 0.43426 0.58991 0.36456 0.0
C909 C 0.43008 0.65664 0.31597 0.0
C910 C 0.48296 0.54928 0.43952 0.0
C911 C 0.47413 0.56035 0.42031 0.0
C912 C 0.45556 0.61453 0.40425 0.0
C913 C 0.42675 0.62511 0.3439 0.0
C914 C 0.4361 0.61341 0.36467 0.0
C915 C 0.46315 0.5792 0.42476 0.0
C916 C 0.45374 0.59103 0.40411 0.0
H917 H 0.3808 0.61838 0.30407 0.0
H918 H 0.39566 0.59987 0.33819 0.0
H919 H 0.44848 0.64359 0.38582 0.0
H920 H 0.46834 0.58174 0.48675 0.0
H921 H 0.45273 0.60083 0.45343 0.0
C922 C 0.12404 0.41411 0.83445 0.0
C923 C 0.11843 0.41744 0.81003 0.0
C924 C 0.11404 0.42521 0.85359 0.0
C925 C 0.08721 0.47547 0.86693 0.0
H926 H 0.06222 0.44422 0.92516 0.0
C927 C 0.03448 0.51823 0.93856 0.0
C928 C 0.03661 0.5136 0.96333 0.0
C929 C 0.0443 0.50592 0.92047 0.0
C930 C 0.06941 0.45335 0.90922 0.0
H931 H 0.09795 0.43525 0.7867 0.0
H932 H 0.08066 0.45466 0.81999 0.0
H933 H 0.07978 0.42401 0.89271 0.0
H934 H 0.05113 0.49273 0.98862 0.0
H935 H 0.06876 0.47131 0.95714 0.0
H936 H 0.07745 0.50488 0.88339 0.0
C937 C 0.09278 0.44343 0.82436 0.0
C938 C 0.07943 0.44169 0.89054 0.0
C939 C 0.10254 0.43214 0.80527 0.0
C940 C 0.0488 0.49632 0.96966 0.0
C941 C 0.05891 0.48408 0.95153 0.0
C942 C 0.07745 0.48716 0.88565 0.0
C943 C 0.09842 0.44016 0.84878 0.0
C944 C 0.08826 0.45256 0.86904 0.0
C945 C 0.05694 0.4888 0.9266 0.0
C946 C 0.06813 0.47627 0.90702 0.0
H947 H 0.13606 0.40278 0.8388 0.0
H948 H 0.11889 0.42239 0.87215 0.0
H949 H 0.09424 0.48449 0.85085 0.0
H950 H 0.02508 0.5314 0.9331 0.0
H951 H 0.04181 0.50981 0.9016 0.0
C952 C 0.62383 0.8641 0.86216 0.0
C953 C 0.63102 0.84701 0.87576 0.0
C954 C 0.61139 0.87955 0.8733 0.0
C955 C 0.60309 0.90514 0.93311 0.0
H956 H 0.55201 0.92789 0.90163 0.0
C957 C 0.5705 0.98445 0.96856 0.0
C958 C 0.54592 0.98337 0.97085 0.0
C959 C 0.57985 0.96776 0.95577 0.0
C960 C 0.56617 0.92161 0.91069 0.0
H961 H 0.6302 0.83235 0.91158 0.0
H962 H 0.60825 0.85924 0.93105 0.0
H963 H 0.569 0.89745 0.88225 0.0
H964 H 0.51191 0.96437 0.96052 0.0
H965 H 0.5283 0.93522 0.93818 0.0
H966 H 0.60026 0.92916 0.96158 0.0
C967 C 0.61245 0.86078 0.91178 0.0
C968 C 0.576 0.9043 0.89953 0.0
C969 C 0.6248 0.84526 0.90059 0.0
C970 C 0.53092 0.9657 0.95917 0.0
C971 C 0.54031 0.94902 0.94629 0.0
C972 C 0.59337 0.92248 0.94419 0.0
C973 C 0.60593 0.87831 0.89834 0.0
C974 C 0.59463 0.89594 0.91059 0.0
C975 C 0.56487 0.94962 0.94491 0.0
C976 C 0.57491 0.93102 0.93305 0.0
H977 H 0.62812 0.86572 0.84291 0.0
H978 H 0.60676 0.89292 0.86248 0.0
H979 H 0.61759 0.89926 0.94198 0.0
H980 H 0.58259 0.99787 0.97721 0.0
H981 H 0.59887 0.96891 0.95463 0.0
C982 C 0.80324 0.11229 0.46733 0.0
C983 C 0.80769 0.13384 0.45739 0.0
C984 C 0.82179 0.1007 0.47165 0.0
C985 C 0.88499 0.11037 0.48407 0.0
H986 H 0.87992 0.04667 0.47053 0.0
C987 C 0.96111 0.06326 0.50493 0.0
C988 C 0.95482 0.04244 0.51612 0.0
C989 C 0.94383 0.07386 0.49479 0.0
C990 C 0.88152 0.06442 0.47457 0.0
H991 H 0.83504 0.1598 0.44343 0.0
H992 H 0.8675 0.13962 0.4513 0.0
H993 H 0.8483 0.06635 0.45814 0.0
H994 H 0.92579 1.01607 0.5252 0.0
H995 H 0.89542 0.03479 0.50799 0.0
H996 H 0.91782 0.10845 0.50108 0.0
C997 C 0.84964 0.13183 0.45594 0.0
C998 C 0.86345 0.07568 0.46744 0.0
C999 C 0.83108 0.1434 0.45151 0.0
C1000 C 0.93105 0.03214 0.51663 0.0
C1001 C 0.91372 0.04279 0.50661 0.0
C1002 C 0.90298 0.09911 0.4913 0.0
C1003 C 0.84519 0.11045 0.46622 0.0
C1004 C 0.86493 0.09872 0.47233 0.0
C1005 C 0.9199 0.0639 0.49583 0.0
C1006 C 0.90136 0.07598 0.48683 0.0
H1007 H 0.78547 0.1046 0.4724 0.0
H1008 H 0.81787 0.08437 0.47993 0.0
H1009 H 0.88644 0.12806 0.4884 0.0
H1010 H 0.97931 0.07162 0.50443 0.0
H1011 H 0.94921 0.08995 0.48632 0.0
C1012 C 0.24333 0.65401 0.12611 0.0
C1013 C 0.25452 0.64265 0.14344 0.0
C1014 C 0.22233 0.6437 0.11502 0.0
C1015 C 0.1728 0.59506 0.1214 0.0
H1016 H 0.16029 0.6092 0.05468 0.0
C1017 C 0.09443 0.54605 0.06627 0.0
C1018 C 0.08068 0.55893 0.05325 0.0
C1019 C 0.11583 0.55601 0.07684 0.0
C1020 C 0.16344 0.60518 0.07338 0.0
H1021 H 0.25251 0.61128 0.16233 0.0
H1022 H 0.21639 0.59303 0.14258 0.0
H1023 H 0.19707 0.62664 0.07375 0.0
H1024 H 0.07915 0.59243 0.04077 0.0
H1025 H 0.11663 0.60968 0.05885 0.0
H1026 H 0.13928 0.5732 0.12068 0.0
C1027 C 0.22337 0.61019 0.13797 0.0
C1028 C 0.18455 0.61527 0.08444 0.0
C1029 C 0.24421 0.62063 0.14929 0.0
C1030 C 0.08919 0.58196 0.05067 0.0
C1031 C 0.11076 0.59186 0.06096 0.0
C1032 C 0.15183 0.58477 0.11022 0.0
C1033 C 0.21201 0.62157 0.12068 0.0
C1034 C 0.18956 0.61048 0.10869 0.0
C1035 C 0.12425 0.57906 0.07439 0.0
C1036 C 0.14682 0.58976 0.08611 0.0
H1037 H 0.25059 0.6711 0.12142 0.0
H1038 H 0.21403 0.65329 0.10226 0.0
H1039 H 0.1756 0.59117 0.1402 0.0
H1040 H 0.08849 0.52828 0.06872 0.0
H1041 H 0.12588 0.54561 0.08685 0.0
C1042 C 0.28565 0.4112 0.62787 0.0
C1043 C 0.27971 0.41954 0.65077 0.0
C1044 C 0.30594 0.42123 0.61528 0.0
C1045 C 0.35206 0.47309 0.61378 0.0
H1046 H 0.3852 0.43516 0.57315 0.0
C1047 C 0.44535 0.50173 0.56942 0.0
C1048 C 0.44752 0.49575 0.54471 0.0
C1049 C 0.42471 0.49359 0.58271 0.0
C1050 C 0.37606 0.44601 0.58431 0.0
H1051 H 0.2905 0.44497 0.67846 0.0
H1052 H 0.3264 0.46205 0.65699 0.0
H1053 H 0.35019 0.41858 0.59595 0.0
H1054 H 0.42962 0.47689 0.51447 0.0
H1055 H 0.39392 0.46239 0.53771 0.0
H1056 H 0.37868 0.5004 0.6025 0.0
C1057 C 0.31508 0.44811 0.64832 0.0
C1058 C 0.35583 0.43653 0.59733 0.0
C1059 C 0.29453 0.43826 0.66075 0.0
C1060 C 0.42852 0.48178 0.53349 0.0
C1061 C 0.40811 0.47338 0.54682 0.0
C1062 C 0.37257 0.48251 0.60101 0.0
C1063 C 0.32117 0.4397 0.62539 0.0
C1064 C 0.34329 0.44992 0.61208 0.0
C1065 C 0.40602 0.47901 0.57164 0.0
C1066 C 0.38465 0.4691 0.58592 0.0
H1067 H 0.27439 0.39702 0.6195 0.0
H1068 H 0.30949 0.41454 0.59744 0.0
H1069 H 0.34285 0.4841 0.6246 0.0
H1070 H 0.45971 0.51246 0.57856 0.0
H1071 H 0.42364 0.49817 0.60182 0.0
C1072 C 0.77217 0.70141 0.91 0.0
C1073 C 0.77045 0.70321 0.88458 0.0
C1074 C 0.7894 0.69055 0.92001 0.0
C1075 C 0.83015 0.6508 0.90542 0.0
H1076 H 0.86677 0.6809 0.95889 0.0
C1077 C 0.89981 0.61135 0.95752 0.0
C1078 C 0.92107 0.62555 0.9633 0.0
C1079 C 0.88097 0.62 0.94761 0.0
C1080 C 0.85677 0.67235 0.94389 0.0
H1081 H 0.78559 0.69486 0.84982 0.0
H1082 H 0.81527 0.67572 0.86726 0.0
H1083 H 0.83409 0.69697 0.94264 0.0
H1084 H 0.93945 0.65988 0.96227 0.0
H1085 H 0.90652 0.67496 0.94517 0.0
H1086 H 0.85311 0.62636 0.90644 0.0
C1087 C 0.80313 0.68248 0.87944 0.0
C1088 C 0.83787 0.68141 0.93478 0.0
C1089 C 0.78603 0.69342 0.86944 0.0
C1090 C 0.92319 0.64853 0.95845 0.0
C1091 C 0.90432 0.65718 0.94867 0.0
C1092 C 0.84897 0.64166 0.91464 0.0
C1093 C 0.80521 0.68116 0.90482 0.0
C1094 C 0.82446 0.67083 0.91532 0.0
C1095 C 0.88292 0.64305 0.94337 0.0
C1096 C 0.86261 0.65244 0.93384 0.0
H1097 H 0.76027 0.70847 0.92219 0.0
H1098 H 0.79038 0.68954 0.93965 0.0
H1099 H 0.82003 0.64219 0.89052 0.0
H1100 H 0.89743 0.59363 0.96133 0.0
H1101 H 0.86462 0.60872 0.94393 0.0
C1102 C 0.40709 0.81291 0.12849 0.0
C1103 C 0.4159 0.80593 0.15041 0.0
C1104 C 0.4169 0.8334 0.11801 0.0
C1105 C 0.47119 0.87717 0.11896 0.0
H1106 H 0.43212 0.91147 0.08316 0.0
C1107 C 0.51307 0.95188 0.06008 0.0
C1108 C 0.50193 0.9708 0.05904 0.0
C1109 C 0.50191 0.93222 0.07121 0.0
C1110 C 0.44333 0.90227 0.09328 0.0
H1111 H 0.44213 0.8156 0.17843 0.0
H1112 H 0.45863 0.85146 0.16069 0.0
H1113 H 0.41399 0.87721 0.10333 0.0
H1114 H 0.47004 0.98377 0.06858 0.0
H1115 H 0.45058 0.94955 0.08851 0.0
H1116 H 0.50041 0.90248 0.10955 0.0
C1117 C 0.44437 0.84088 0.15126 0.0
C1118 C 0.43293 0.88235 0.10463 0.0
C1119 C 0.43464 0.82033 0.16169 0.0
C1120 C 0.47909 0.96947 0.06909 0.0
C1121 C 0.46791 0.94976 0.08041 0.0
C1122 C 0.48155 0.89709 0.10773 0.0
C1123 C 0.43578 0.84771 0.12915 0.0
C1124 C 0.44671 0.86938 0.11755 0.0
C1125 C 0.47926 0.93087 0.08186 0.0
C1126 C 0.46785 0.90991 0.09451 0.0
H1127 H 0.39245 0.8026 0.11936 0.0
H1128 H 0.40987 0.83779 0.10088 0.0
H1129 H 0.48256 0.86767 0.12842 0.0
H1130 H 0.53058 0.95225 0.05229 0.0
H1131 H 0.51109 0.918 0.0713 0.0
C1132 C 0.13395 0.247 0.63881 0.0
C1133 C 0.12066 0.25688 0.6564 0.0
C1134 C 0.12484 0.22645 0.62763 0.0
C1135 C 0.07789 0.1761 0.6342 0.0
H1136 H 0.0934 0.16615 0.56635 0.0
C1137 C 0.05257 0.08898 0.58659 0.0
C1138 C 0.04571 0.08843 0.56203 0.0
C1139 C 0.06184 0.10932 0.59824 0.0
C1140 C 0.08865 0.16863 0.58525 0.0
H1141 H 0.08713 0.25246 0.67592 0.0
H1142 H 0.07096 0.21707 0.65587 0.0
H1143 H 0.10826 0.20193 0.58593 0.0
H1144 H 0.04319 0.10909 0.53057 0.0
H1145 H 0.05878 0.14435 0.55088 0.0
H1146 H 0.0576 0.14302 0.63323 0.0
C1147 C 0.08868 0.22505 0.65102 0.0
C1148 C 0.09751 0.18915 0.59664 0.0
C1149 C 0.09786 0.24558 0.66232 0.0
C1150 C 0.0484 0.10876 0.54945 0.0
C1151 C 0.05752 0.12907 0.56111 0.0
C1152 C 0.06891 0.15559 0.62275 0.0
C1153 C 0.10205 0.21514 0.6335 0.0
C1154 C 0.09232 0.19322 0.62132 0.0
C1155 C 0.06441 0.12971 0.58569 0.0
C1156 C 0.07415 0.15153 0.59808 0.0
H1157 H 0.15142 0.25524 0.6334 0.0
H1158 H 0.13587 0.21934 0.61452 0.0
H1159 H 0.07368 0.17839 0.65327 0.0
H1160 H 0.05085 0.07368 0.59686 0.0
H1161 H 0.06725 0.10899 0.61704 0.0
C1162 C 0.68566 0.29703 0.52569 0.0
C1163 C 0.67849 0.27377 0.52727 0.0
C1164 C 0.67239 0.31166 0.53698 0.0
C1165 C 0.61033 0.31116 0.55 0.0
H1166 H 0.63313 0.37386 0.56458 0.0
C1167 C 0.56675 0.38085 0.5134 0.0
C1168 C 0.56658 0.4007 0.52696 0.0
C1169 C 0.5777 0.36387 0.52245 0.0
C1170 C 0.62632 0.35632 0.56111 0.0
H1171 H 0.65333 0.24759 0.5441 0.0
H1172 H 0.63034 0.27321 0.56423 0.0
H1173 H 0.65997 0.34679 0.56746 0.0
H1174 H 0.57674 0.41781 0.56128 0.0
H1175 H 0.59638 0.38818 0.57687 0.0
H1176 H 0.57698 0.32082 0.5427 0.0
C1177 C 0.64597 0.28012 0.55386 0.0
C1178 C 0.64175 0.34084 0.56256 0.0
C1179 C 0.65925 0.26545 0.54249 0.0
C1180 C 0.57695 0.40287 0.55018 0.0
C1181 C 0.58807 0.38589 0.55919 0.0
C1182 C 0.59493 0.3266 0.54863 0.0
C1183 C 0.65168 0.30332 0.55014 0.0
C1184 C 0.63425 0.3183 0.55575 0.0
C1185 C 0.58883 0.36635 0.54523 0.0
C1186 C 0.6031 0.34949 0.55289 0.0
H1187 H 0.70068 0.30389 0.51442 0.0
H1188 H 0.67732 0.3294 0.5336 0.0
H1189 H 0.6039 0.29397 0.54454 0.0
H1190 H 0.55928 0.37875 0.49532 0.0
H1191 H 0.57841 0.34923 0.511 0.0
loop_
_geom_bond_atom_site_label_1
_geom_bond_atom_site_label_2
_geom_bond_distance
_geom_bond_site_symmetry_2
_ccdc_geom_bond_type
C0 C1 1.386 . S
C0 C2 1.397 . S
C0 H24 0.931 . S
C1 C0 1.386 . S
C1 C5 1.397 . S
C2 C0 1.397 . S
C2 C3 1.384 . S
C2 H25 0.930 . S
C3 C2 1.384 . S
C3 C4 1.377 . S
C3 C6 1.481 . S
C4 C3 1.377 . S
C4 C5 1.389 . S
C4 H26 0.929 . S
C5 C1 1.397 . S
C5 C4 1.389 . S
C5 H27 0.931 . S
C6 C3 1.481 . S
C6 C7 1.387 . S
C6 C11 1.390 . S
C7 C6 1.387 . S
C7 C8 1.401 . S
C7 H28 0.930 . S
C8 C7 1.401 . S
C8 C9 1.376 . S
C8 C17 1.511 . S
C9 C8 1.376 . S
C9 C10 1.392 . S
C9 H30 0.931 . S
C10 C9 1.392 . S
C10 C11 1.361 . S
C10 C12 1.500 . S
C11 C6 1.390 . S
C11 C10 1.361 . S
C11 H29 0.931 . S
C12 C10 1.500 . S
C12 C13 1.371 . S
C12 C14 1.365 . S
C13 C12 1.371 . S
C13 C23 1.386 . S
C13 H31 0.931 . S
C14 C12 1.365 . S
C14 C15 1.409 . S
C14 H32 0.929 . S
C15 C14 1.409 . S
C15 C16 1.380 . S
C15 H33 0.930 . S
C16 C15 1.380 . S
C16 C23 1.357 . S
C17 C8 1.511 . S
C17 C18 1.341 . S
C17 C19 1.371 . S
C18 C17 1.341 . S
C18 C22 1.394 . S
C18 H34 0.930 . S
C19 C17 1.371 . S
C19 C20 1.392 . S
C19 H35 0.931 . S
C20 C19 1.392 . S
C20 C21 1.331 . S
C20 H38 0.932 . S
C21 C20 1.331 . S
C21 C22 1.336 . S
C22 C18 1.394 . S
C22 C21 1.336 . S
C22 H37 0.929 . S
C23 C13 1.386 . S
C23 C16 1.357 . S
C23 H36 0.928 . S
H24 C0 0.931 . S
H25 C2 0.930 . S
H26 C4 0.929 . S
H27 C5 0.931 . S
H28 C7 0.930 . S
H29 C11 0.931 . S
H30 C9 0.931 . S
H31 C13 0.931 . S
H32 C14 0.929 . S
H33 C15 0.930 . S
H34 C18 0.930 . S
H35 C19 0.931 . S
H36 C23 0.928 . S
H37 C22 0.929 . S
H38 C20 0.932 . S
C39 C40 1.386 . S
C39 C41 1.397 . S
C39 H63 0.931 . S
C40 C39 1.386 . S
C40 C44 1.397 . S
C41 C39 1.397 . S
C41 C42 1.384 . S
C41 H64 0.930 . S
C42 C41 1.384 . S
C42 C43 1.377 . S
C42 C45 1.481 . S
C43 C42 1.377 . S
C43 C44 1.389 . S
C43 H65 0.929 . S
C44 C40 1.397 . S
C44 C43 1.389 . S
C44 H66 0.931 . S
C45 C42 1.481 . S
C45 C46 1.387 . S
C45 C50 1.390 . S
C46 C45 1.387 . S
C46 C47 1.401 . S
C46 H67 0.930 . S
C47 C46 1.401 . S
C47 C48 1.376 . S
C47 C56 1.511 . S
C48 C47 1.376 . S
C48 C49 1.392 . S
C48 H69 0.931 . S
C49 C48 1.392 . S
C49 C50 1.361 . S
C49 C51 1.500 . S
C50 C45 1.390 . S
C50 C49 1.361 . S
C50 H68 0.931 . S
C51 C49 1.500 . S
C51 C52 1.371 . S
C51 C53 1.365 . S
C52 C51 1.371 . S
C52 C62 1.386 . S
C52 H70 0.931 . S
C53 C51 1.365 . S
C53 C54 1.409 . S
C53 H71 0.929 . S
C54 C53 1.409 . S
C54 C55 1.380 . S
C54 H72 0.930 . S
C55 C54 1.380 . S
C55 C62 1.357 . S
C56 C47 1.511 . S
C56 C57 1.341 . S
C56 C58 1.371 . S
C57 C56 1.341 . S
C57 C61 1.394 . S
C57 H73 0.930 . S
C58 C56 1.371 . S
C58 C59 1.392 . S
C58 H74 0.931 . S
C59 C58 1.392 . S
C59 C60 1.331 . S
C59 H77 0.932 . S
C60 C59 1.331 . S
C60 C61 1.336 . S
C61 C57 1.394 . S
C61 C60 1.336 . S
C61 H76 0.929 . S
C62 C52 1.386 . S
C62 C55 1.357 . S
C62 H75 0.928 . S
H63 C39 0.931 . S
H64 C41 0.930 . S
H65 C43 0.929 . S
H66 C44 0.931 . S
H67 C46 0.930 . S
H68 C50 0.931 . S
H69 C48 0.931 . S
H70 C52 0.931 . S
H71 C53 0.929 . S
H72 C54 0.930 . S
H73 C57 0.930 . S
H74 C58 0.931 . S
H75 C62 0.928 . S
H76 C61 0.929 . S
H77 C59 0.932 . S
C78 C79 1.386 . S
C78 C80 1.397 . S
C78 H102 0.931 . S
C79 C78 1.386 . S
C79 C83 1.397 . S
C80 C78 1.397 . S
C80 C81 1.384 . S
C80 H103 0.930 . S
C81 C80 1.384 . S
C81 C82 1.377 . S
C81 C84 1.481 . S
C82 C81 1.377 . S
C82 C83 1.389 . S
C82 H104 0.929 . S
C83 C79 1.397 . S
C83 C82 1.389 . S
C83 H105 0.931 . S
C84 C81 1.481 . S
C84 C85 1.387 . S
C84 C89 1.390 . S
C85 C84 1.387 . S
C85 C86 1.401 . S
C85 H106 0.930 . S
C86 C85 1.401 . S
C86 C87 1.376 . S
C86 C95 1.511 . S
C87 C86 1.376 . S
C87 C88 1.392 . S
C87 H108 0.931 . S
C88 C87 1.392 . S
C88 C89 1.361 . S
C88 C90 1.500 . S
C89 C84 1.390 . S
C89 C88 1.361 . S
C89 H107 0.931 . S
C90 C88 1.500 . S
C90 C91 1.371 . S
C90 C92 1.365 . S
C91 C90 1.371 . S
C91 C101 1.386 . S
C91 H109 0.931 . S
C92 C90 1.365 . S
C92 C93 1.409 . S
C92 H110 0.929 . S
C93 C92 1.409 . S
C93 C94 1.380 . S
C93 H111 0.930 . S
C94 C93 1.380 . S
C94 C101 1.357 . S
C95 C86 1.511 . S
C95 C96 1.341 . S
C95 C97 1.371 . S
C96 C95 1.341 . S
C96 C100 1.394 . S
C96 H112 0.930 . S
C97 C95 1.371 . S
C97 C98 1.392 . S
C97 H113 0.931 . S
C98 C97 1.392 . S
C98 C99 1.331 . S
C98 H116 0.932 . S
C99 C98 1.331 . S
C99 C100 1.336 . S
C100 C96 1.394 . S
C100 C99 1.336 . S
C100 H115 0.929 . S
C101 C91 1.386 . S
C101 C94 1.357 . S
C101 H114 0.928 . S
H102 C78 0.931 . S
H103 C80 0.930 . S
H104 C82 0.929 . S
H105 C83 0.931 . S
H106 C85 0.930 . S
H107 C89 0.931 . S
H108 C87 0.931 . S
H109 C91 0.931 . S
H110 C92 0.929 . S
H111 C93 0.930 . S
H112 C96 0.930 . S
H113 C97 0.931 . S
H114 C101 0.928 . S
H115 C100 0.929 . S
H116 C98 0.932 . S
C117 C118 1.386 . S
C117 C119 1.397 . S
C117 H141 0.931 . S
C118 C117 1.386 . S
C118 C122 1.397 . S
C119 C117 1.397 . S
C119 C120 1.384 . S
C119 H142 0.930 . S
C120 C119 1.384 . S
C120 C121 1.377 . S
C120 C123 1.481 . S
C121 C120 1.377 . S
C121 C122 1.389 . S
C121 H143 0.929 . S
C122 C118 1.397 . S
C122 C121 1.389 . S
C122 H144 0.931 . S
C123 C120 1.481 . S
C123 C124 1.387 . S
C123 C128 1.390 . S
C124 C123 1.387 . S
C124 C125 1.401 . S
C124 H145 0.930 . S
C125 C124 1.401 . S
C125 C126 1.376 . S
C125 C134 1.511 . S
C126 C125 1.376 . S
C126 C127 1.392 . S
C126 H147 0.931 . S
C127 C126 1.392 . S
C127 C128 1.361 . S
C127 C129 1.500 . S
C128 C123 1.390 . S
C128 C127 1.361 . S
C128 H146 0.931 . S
C129 C127 1.500 . S
C129 C130 1.371 . S
C129 C131 1.365 . S
C130 C129 1.371 . S
C130 C140 1.386 . S
C130 H148 0.931 . S
C131 C129 1.365 . S
C131 C132 1.409 . S
C131 H149 0.929 . S
C132 C131 1.409 . S
C132 C133 1.380 . S
C132 H150 0.930 . S
C133 C132 1.380 . S
C133 C140 1.357 . S
C134 C125 1.511 . S
C134 C135 1.341 . S
C134 C136 1.371 . S
C135 C134 1.341 . S
C135 C139 1.394 . S
C135 H151 0.930 . S
C136 C134 1.371 . S
C136 C137 1.392 . S
C136 H152 0.931 . S
C137 C136 1.392 . S
C137 C138 1.331 . S
C137 H155 0.932 . S
C138 C137 1.331 . S
C138 C139 1.336 . S
C139 C135 1.394 . S
C139 C138 1.336 . S
C139 H154 0.929 . S
C140 C130 1.386 . S
C140 C133 1.357 . S
C140 H153 0.928 . S
H141 C117 0.931 . S
H142 C119 0.930 . S
H143 C121 0.929 . S
H144 C122 0.931 . S
H145 C124 0.930 . S
H146 C128 0.931 . S
H147 C126 0.931 . S
H148 C130 0.931 . S
H149 C131 0.929 . S
H150 C132 0.930 . S
H151 C135 0.930 . S
H152 C136 0.931 . S
H153 C140 0.928 . S
H154 C139 0.929 . S
H155 C137 0.932 . S
C156 C157 1.386 . S
C156 C158 1.397 . S
C156 H180 0.931 . S
C157 C156 1.386 . S
C157 C161 1.397 . S
C158 C156 1.397 . S
C158 C159 1.384 . S
C158 H181 0.930 . S
C159 C158 1.384 . S
C159 C160 1.377 . S
C159 C162 1.481 . S
C160 C159 1.377 . S
C160 C161 1.389 . S
C160 H182 0.929 . S
C161 C157 1.397 . S
C161 C160 1.389 . S
C161 H183 0.931 . S
C162 C159 1.481 . S
C162 C163 1.387 . S
C162 C167 1.390 . S
C163 C162 1.387 . S
C163 C164 1.401 . S
C163 H184 0.930 . S
C164 C163 1.401 . S
C164 C165 1.376 . S
C164 C173 1.511 . S
C165 C164 1.376 . S
C165 C166 1.392 . S
C165 H186 0.931 . S
C166 C165 1.392 . S
C166 C167 1.361 . S
C166 C168 1.500 . S
C167 C162 1.390 . S
C167 C166 1.361 . S
C167 H185 0.931 . S
C168 C166 1.500 . S
C168 C169 1.371 . S
C168 C170 1.365 . S
C169 C168 1.371 . S
C169 C179 1.386 . S
C169 H187 0.931 . S
C170 C168 1.365 . S
C170 C171 1.409 . S
C170 H188 0.929 . S
C171 C170 1.409 . S
C171 C172 1.380 . S
C171 H189 0.930 . S
C172 C171 1.380 . S
C172 C179 1.357 . S
C173 C164 1.511 . S
C173 C174 1.341 . S
C173 C175 1.371 . S
C174 C173 1.341 . S
C174 C178 1.394 . S
C174 H190 0.930 . S
C175 C173 1.371 . S
C175 C176 1.392 . S
C175 H191 0.931 . S
C176 C175 1.392 . S
C176 C177 1.331 . S
C176 H194 0.932 . S
C177 C176 1.331 . S
C177 C178 1.336 . S
C178 C174 1.394 . S
C178 C177 1.336 . S
C178 H193 0.929 . S
C179 C169 1.386 . S
C179 C172 1.357 . S
C179 H192 0.928 . S
H180 C156 0.931 . S
H181 C158 0.930 . S
H182 C160 0.929 . S
H183 C161 0.931 . S
H184 C163 0.930 . S
H185 C167 0.931 . S
H186 C165 0.931 . S
H187 C169 0.931 . S
H188 C170 0.929 . S
H189 C171 0.930 . S
H190 C174 0.930 . S
H191 C175 0.931 . S
H192 C179 0.928 . S
H193 C178 0.929 . S
H194 C176 0.932 . S
C195 C196 1.386 . S
C195 C197 1.397 . S
C195 H219 0.931 . S
C196 C195 1.386 . S
C196 C200 1.397 . S
C197 C195 1.397 . S
C197 C198 1.384 . S
C197 H220 0.930 . S
C198 C197 1.384 . S
C198 C199 1.377 . S
C198 C201 1.481 . S
C199 C198 1.377 . S
C199 C200 1.389 . S
C199 H221 0.929 . S
C200 C196 1.397 . S
C200 C199 1.389 . S
C200 H222 0.931 . S
C201 C198 1.481 . S
C201 C202 1.387 . S
C201 C206 1.390 . S
C202 C201 1.387 . S
C202 C203 1.401 . S
C202 H223 0.930 . S
C203 C202 1.401 . S
C203 C204 1.376 . S
C203 C212 1.511 . S
C204 C203 1.376 . S
C204 C205 1.392 . S
C204 H225 0.931 . S
C205 C204 1.392 . S
C205 C206 1.361 . S
C205 C207 1.500 . S
C206 C201 1.390 . S
C206 C205 1.361 . S
C206 H224 0.931 . S
C207 C205 1.500 . S
C207 C208 1.371 . S
C207 C209 1.365 . S
C208 C207 1.371 . S
C208 C218 1.386 . S
C208 H226 0.931 . S
C209 C207 1.365 . S
C209 C210 1.409 . S
C209 H227 0.929 . S
C210 C209 1.409 . S
C210 C211 1.380 . S
C210 H228 0.930 . S
C211 C210 1.380 . S
C211 C218 1.357 . S
C212 C203 1.511 . S
C212 C213 1.341 . S
C212 C214 1.371 . S
C213 C212 1.341 . S
C213 C217 1.394 . S
C213 H229 0.930 . S
C214 C212 1.371 . S
C214 C215 1.392 . S
C214 H230 0.931 . S
C215 C214 1.392 . S
C215 C216 1.331 . S
C215 H233 0.932 . S
C216 C215 1.331 . S
C216 C217 1.336 . S
C217 C213 1.394 . S
C217 C216 1.336 . S
C217 H232 0.929 . S
C218 C208 1.386 . S
C218 C211 1.357 . S
C218 H231 0.928 . S
H219 C195 0.931 . S
H220 C197 0.930 . S
H221 C199 0.929 . S
H222 C200 0.931 . S
H223 C202 0.930 . S
H224 C206 0.931 . S
H225 C204 0.931 . S
H226 C208 0.931 . S
H227 C209 0.929 . S
H228 C210 0.930 . S
H229 C213 0.930 . S
H230 C214 0.931 . S
H231 C218 0.928 . S
H232 C217 0.929 . S
H233 C215 0.932 . S
C234 C235 1.386 . S
C234 C236 1.397 . S
C234 H258 0.931 . S
C235 C234 1.386 . S
C235 C239 1.397 . S
C236 C234 1.397 . S
C236 C237 1.384 . S
C236 H259 0.930 . S
C237 C236 1.384 . S
C237 C238 1.377 . S
C237 C240 1.481 . S
C238 C237 1.377 . S
C238 C239 1.389 . S
C238 H260 0.929 . S
C239 C235 1.397 . S
C239 C238 1.389 . S
C239 H261 0.931 . S
C240 C237 1.481 . S
C240 C241 1.387 . S
C240 C245 1.390 . S
C241 C240 1.387 . S
C241 C242 1.401 . S
C241 H262 0.930 . S
C242 C241 1.401 . S
C242 C243 1.376 . S
C242 C251 1.511 . S
C243 C242 1.376 . S
C243 C244 1.392 . S
C243 H264 0.931 . S
C244 C243 1.392 . S
C244 C245 1.361 . S
C244 C246 1.500 . S
C245 C240 1.390 . S
C245 C244 1.361 . S
C245 H263 0.931 . S
C246 C244 1.500 . S
C246 C247 1.371 . S
C246 C248 1.365 . S
C247 C246 1.371 . S
C247 C257 1.386 . S
C247 H265 0.931 . S
C248 C246 1.365 . S
C248 C249 1.409 . S
C248 H266 0.929 . S
C249 C248 1.409 . S
C249 C250 1.380 . S
C249 H267 0.930 . S
C250 C249 1.380 . S
C250 C257 1.357 . S
C251 C242 1.511 . S
C251 C252 1.341 . S
C251 C253 1.371 . S
C252 C251 1.341 . S
C252 C256 1.394 . S
C252 H268 0.930 . S
C253 C251 1.371 . S
C253 C254 1.392 . S
C253 H269 0.931 . S
C254 C253 1.392 . S
C254 C255 1.331 . S
C254 H272 0.932 . S
C255 C254 1.331 . S
C255 C256 1.336 . S
C256 C252 1.394 . S
C256 C255 1.336 . S
C256 H271 0.929 . S
C257 C247 1.386 . S
C257 C250 1.357 . S
C257 H270 0.928 . S
H258 C234 0.931 . S
H259 C236 0.930 . S
H260 C238 0.929 . S
H261 C239 0.931 . S
H262 C241 0.930 . S
H263 C245 0.931 . S
H264 C243 0.931 . S
H265 C247 0.931 . S
H266 C248 0.929 . S
H267 C249 0.930 . S
H268 C252 0.930 . S
H269 C253 0.931 . S
H270 C257 0.928 . S
H271 C256 0.929 . S
H272 C254 0.932 . S
C273 C274 1.386 . S
C273 C275 1.397 . S
C273 H297 0.931 . S
C274 C273 1.386 . S
C274 C278 1.397 . S
C275 C273 1.397 . S
C275 C276 1.384 . S
C275 H298 0.930 . S
C276 C275 1.384 . S
C276 C277 1.377 . S
C276 C279 1.481 . S
C277 C276 1.377 . S
C277 C278 1.389 . S
C277 H299 0.929 . S
C278 C274 1.397 . S
C278 C277 1.389 . S
C278 H300 0.931 . S
C279 C276 1.481 . S
C279 C280 1.387 . S
C279 C284 1.390 . S
C280 C279 1.387 . S
C280 C281 1.401 . S
C280 H301 0.930 . S
C281 C280 1.401 . S
C281 C282 1.376 . S
C281 C290 1.511 . S
C282 C281 1.376 . S
C282 C283 1.392 . S
C282 H303 0.931 . S
C283 C282 1.392 . S
C283 C284 1.361 . S
C283 C285 1.500 . S
C284 C279 1.390 . S
C284 C283 1.361 . S
C284 H302 0.931 . S
C285 C283 1.500 . S
C285 C286 1.371 . S
C285 C287 1.365 . S
C286 C285 1.371 . S
C286 C296 1.386 . S
C286 H304 0.931 . S
C287 C285 1.365 . S
C287 C288 1.409 . S
C287 H305 0.929 . S
C288 C287 1.409 . S
C288 C289 1.380 . S
C288 H306 0.930 . S
C289 C288 1.380 . S
C289 C296 1.357 . S
C290 C281 1.511 . S
C290 C291 1.341 . S
C290 C292 1.371 . S
C291 C290 1.341 . S
C291 C295 1.394 . S
C291 H307 0.930 . S
C292 C290 1.371 . S
C292 C293 1.392 . S
C292 H308 0.931 . S
C293 C292 1.392 . S
C293 C294 1.331 . S
C293 H311 0.932 . S
C294 C293 1.331 . S
C294 C295 1.336 . S
C295 C291 1.394 . S
C295 C294 1.336 . S
C295 H310 0.929 . S
C296 C286 1.386 . S
C296 C289 1.357 . S
C296 H309 0.928 . S
H297 C273 0.931 . S
H298 C275 0.930 . S
H299 C277 0.929 . S
H300 C278 0.931 . S
H301 C280 0.930 . S
H302 C284 0.931 . S
H303 C282 0.931 . S
H304 C286 0.931 . S
H305 C287 0.929 . S
H306 C288 0.930 . S
H307 C291 0.930 . S
H308 C292 0.931 . S
H309 C296 0.928 . S
H310 C295 0.929 . S
H311 C293 0.932 . S
Ho312 C315 2.811 . S
Ho312 O332 2.322 . S
Ho312 O334 2.378 . S
Ho312 O335 2.524 . S
Ho312 O336 2.381 1_545 S
Ho312 O337 2.669 1_545 S
Ho312 O339 2.322 1_445 S
Ho312 O343 2.305 1_455 S
Ho313 C324 2.811 1_545 S
Ho313 O333 2.346 1_655 S
Ho313 O337 2.305 1_645 S
Ho313 O338 2.322 1_545 S
Ho313 O340 2.378 1_545 S
Ho313 O341 2.524 1_545 S
Ho313 O342 2.381 . S
Ho313 O343 2.669 . S
C314 O332 1.259 . S
C314 O333 1.268 . S
C315 Ho312 2.811 . S
C315 C316 1.488 . S
C315 O334 1.215 . S
C315 O335 1.289 . S
C316 C315 1.488 . S
C316 C317 1.348 . S
C316 C321 1.413 . S
C317 C316 1.348 . S
C317 C318 1.442 . S
C317 H344 0.930 . S
C318 C317 1.442 . S
C318 C319 1.381 . S
C318 H345 0.931 . S
C319 C318 1.381 . S
C319 C320 1.321 . S
C320 C319 1.321 . S
C320 C321 1.403 . S
C320 H346 0.934 . S
C321 C316 1.413 . S
C321 C320 1.403 . S
C321 H347 0.930 . S
C322 O336 1.275 . S
C322 O337 1.256 . S
C323 O338 1.259 . S
C323 O339 1.301 . S
C324 Ho313 2.811 1_565 S
C324 C325 1.488 . S
C324 O340 1.215 . S
C324 O341 1.289 . S
C325 C324 1.488 . S
C325 C326 1.348 . S
C325 C330 1.413 . S
C326 C325 1.348 . S
C326 C327 1.442 . S
C326 H348 0.930 . S
C327 C326 1.442 . S
C327 C328 1.381 . S
C327 H349 0.931 . S
C328 C327 1.381 . S
C328 C329 1.321 . S
C329 C328 1.321 . S
C329 C330 1.403 . S
C329 H350 0.934 . S
C330 C325 1.413 . S
C330 C329 1.403 . S
C330 H351 0.930 . S
C331 O342 1.275 . S
C331 O343 1.256 . S
O332 Ho312 2.322 . S
O332 C314 1.259 . S
O333 Ho313 2.346 1_455 S
O333 C314 1.268 . S
O334 Ho312 2.378 . S
O334 C315 1.215 . S
O335 Ho312 2.524 . S
O335 C315 1.289 . S
O336 Ho312 2.381 1_565 S
O336 C322 1.275 . S
O337 Ho312 2.669 1_565 S
O337 Ho313 2.305 1_465 S
O337 C322 1.256 . S
O338 Ho313 2.322 1_565 S
O338 C323 1.259 . S
O339 Ho312 2.322 1_665 S
O339 C323 1.301 . S
O340 Ho313 2.378 1_565 S
O340 C324 1.215 . S
O341 Ho313 2.524 1_565 S
O341 C324 1.289 . S
O342 Ho313 2.381 . S
O342 C331 1.275 . S
O343 Ho312 2.305 1_655 S
O343 Ho313 2.669 . S
O343 C331 1.256 . S
H344 C317 0.930 . S
H345 C318 0.931 . S
H346 C320 0.934 . S
H347 C321 0.930 . S
H348 C326 0.930 . S
H349 C327 0.931 . S
H350 C329 0.934 . S
H351 C330 0.930 . S
Ho352 C355 2.811 . S
Ho352 O372 2.322 . S
Ho352 O374 2.378 . S
Ho352 O375 2.524 . S
Ho352 O376 2.381 1_545 S
Ho352 O377 2.669 1_545 S
Ho352 O379 2.346 1_544 S
Ho352 O383 2.305 1_554 S
Ho353 C364 2.811 1_545 S
Ho353 O373 2.346 1_556 S
Ho353 O377 2.305 1_546 S
Ho353 O378 2.322 1_545 S
Ho353 O380 2.374 1_545 S
Ho353 O381 2.524 1_545 S
Ho353 O382 2.381 . S
Ho353 O383 2.669 . S
C354 O372 1.259 . S
C354 O373 1.268 . S
C355 Ho352 2.811 . S
C355 C356 1.488 . S
C355 O374 1.215 . S
C355 O375 1.289 . S
C356 C355 1.488 . S
C356 C357 1.348 . S
C356 C361 1.413 . S
C357 C356 1.348 . S
C357 C358 1.442 . S
C357 H384 0.930 . S
C358 C357 1.442 . S
C358 C359 1.381 . S
C358 H385 0.931 . S
C359 C358 1.381 . S
C359 C360 1.321 . S
C360 C359 1.321 . S
C360 C361 1.403 . S
C360 H386 0.934 . S
C361 C356 1.413 . S
C361 C360 1.403 . S
C361 H387 0.930 . S
C362 O376 1.275 . S
C362 O377 1.256 . S
C363 O378 1.259 . S
C363 O379 1.268 . S
C364 Ho353 2.811 1_565 S
C364 C365 1.488 . S
C364 O380 1.266 . S
C364 O381 1.289 . S
C365 C364 1.488 . S
C365 C366 1.348 . S
C365 C370 1.413 . S
C366 C365 1.348 . S
C366 C367 1.442 . S
C366 H388 0.930 . S
C367 C366 1.442 . S
C367 C368 1.381 . S
C367 H389 0.931 . S
C368 C367 1.381 . S
C368 C369 1.321 . S
C369 C368 1.321 . S
C369 C370 1.403 . S
C369 H390 0.934 . S
C370 C365 1.413 . S
C370 C369 1.403 . S
C370 H391 0.930 . S
C371 O382 1.275 . S
C371 O383 1.256 . S
O372 Ho352 2.322 . S
O372 C354 1.259 . S
O373 Ho353 2.346 1_554 S
O373 C354 1.268 . S
O374 Ho352 2.378 . S
O374 C355 1.215 . S
O375 Ho352 2.524 . S
O375 C355 1.289 . S
O376 Ho352 2.381 1_565 S
O376 C362 1.275 . S
O377 Ho352 2.669 1_565 S
O377 Ho353 2.305 1_564 S
O377 C362 1.256 . S
O378 Ho353 2.322 1_565 S
O378 C363 1.259 . S
O379 Ho352 2.346 1_566 S
O379 C363 1.268 . S
O380 Ho353 2.374 1_565 S
O380 C364 1.266 . S
O381 Ho353 2.524 1_565 S
O381 C364 1.289 . S
O382 Ho353 2.381 . S
O382 C371 1.275 . S
O383 Ho352 2.305 1_556 S
O383 Ho353 2.669 . S
O383 C371 1.256 . S
H384 C357 0.930 . S
H385 C358 0.931 . S
H386 C360 0.934 . S
H387 C361 0.930 . S
H388 C366 0.930 . S
H389 C367 0.931 . S
H390 C369 0.934 . S
H391 C370 0.930 . S
Ho392 C395 2.811 . S
Ho392 O412 2.322 . S
Ho392 O414 2.378 . S
Ho392 O415 2.524 . S
Ho392 O416 2.381 . S
Ho392 O417 2.669 . S
Ho392 O419 2.346 . S
Ho392 O423 2.305 . S
Ho393 C404 2.811 . S
Ho393 O413 2.346 . S
Ho393 O417 2.305 . S
Ho393 O418 2.322 . S
Ho393 O420 2.378 . S
Ho393 O421 2.524 . S
Ho393 O422 2.381 . S
Ho393 O423 2.669 . S
C394 O412 1.259 . S
C394 O413 1.268 . S
C395 Ho392 2.811 . S
C395 C396 1.488 . S
C395 O414 1.215 . S
C395 O415 1.289 . S
C396 C395 1.488 . S
C396 C397 1.348 . S
C396 C401 1.413 . S
C397 C396 1.348 . S
C397 C398 1.442 . S
C397 H424 0.930 . S
C398 C397 1.442 . S
C398 C399 1.381 . S
C398 H425 0.931 . S
C399 C398 1.381 . S
C399 C400 1.321 . S
C400 C399 1.321 . S
C400 C401 1.403 . S
C400 H426 0.934 . S
C401 C396 1.413 . S
C401 C400 1.403 . S
C401 H427 0.930 . S
C402 O416 1.275 . S
C402 O417 1.256 . S
C403 O418 1.259 . S
C403 O419 1.268 . S
C404 Ho393 2.811 . S
C404 C405 1.488 . S
C404 O420 1.215 . S
C404 O421 1.289 . S
C405 C404 1.488 . S
C405 C406 1.348 . S
C405 C410 1.413 . S
C406 C405 1.348 . S
C406 C407 1.442 . S
C406 H428 0.930 . S
C407 C406 1.442 . S
C407 C408 1.381 . S
C407 H429 0.931 . S
C408 C407 1.381 . S
C408 C409 1.321 . S
C409 C408 1.321 . S
C409 C410 1.403 . S
C409 H430 0.934 . S
C410 C405 1.413 . S
C410 C409 1.403 . S
C410 H431 0.930 . S
C411 O422 1.275 . S
C411 O423 1.256 . S
O412 Ho392 2.322 . S
O412 C394 1.259 . S
O413 Ho393 2.346 . S
O413 C394 1.268 . S
O414 Ho392 2.378 . S
O414 C395 1.215 . S
O415 Ho392 2.524 . S
O415 C395 1.289 . S
O416 Ho392 2.381 . S
O416 C402 1.275 . S
O417 Ho392 2.669 . S
O417 Ho393 2.305 . S
O417 C402 1.256 . S
O418 Ho393 2.322 . S
O418 C403 1.259 . S
O419 Ho392 2.346 . S
O419 C403 1.268 . S
O420 Ho393 2.378 . S
O420 C404 1.215 . S
O421 Ho393 2.524 . S
O421 C404 1.289 . S
O422 Ho393 2.381 . S
O422 C411 1.275 . S
O423 Ho392 2.305 . S
O423 Ho393 2.669 . S
O423 C411 1.256 . S
H424 C397 0.930 . S
H425 C398 0.931 . S
H426 C400 0.934 . S
H427 C401 0.930 . S
H428 C406 0.930 . S
H429 C407 0.931 . S
H430 C409 0.934 . S
H431 C410 0.930 . S
Ho432 C435 2.811 . S
Ho432 O452 2.322 . S
Ho432 O454 2.378 . S
Ho432 O455 2.524 . S
Ho432 O456 2.381 1_455 S
Ho432 O457 2.669 1_455 S
Ho432 O459 2.324 1_454 S
Ho432 O463 2.305 1_554 S
Ho433 C444 2.811 1_455 S
Ho433 O453 2.346 1_556 S
Ho433 O457 2.305 1_456 S
Ho433 O458 2.322 1_455 S
Ho433 O460 2.378 1_455 S
Ho433 O461 2.524 1_455 S
Ho433 O462 2.381 . S
Ho433 O463 2.669 . S
C434 O452 1.259 . S
C434 O453 1.268 . S
C435 Ho432 2.811 . S
C435 C436 1.488 . S
C435 O454 1.215 . S
C435 O455 1.289 . S
C436 C435 1.488 . S
C436 C437 1.348 . S
C436 C441 1.413 . S
C437 C436 1.348 . S
C437 C438 1.442 . S
C437 H464 0.930 . S
C438 C437 1.442 . S
C438 C439 1.381 . S
C438 H465 0.931 . S
C439 C438 1.381 . S
C439 C440 1.321 . S
C440 C439 1.321 . S
C440 C441 1.403 . S
C440 H466 0.934 . S
C441 C436 1.413 . S
C441 C440 1.403 . S
C441 H467 0.930 . S
C442 O456 1.275 . S
C442 O457 1.256 . S
C443 O458 1.259 . S
C443 O459 1.298 . S
C444 Ho433 2.811 1_655 S
C444 C445 1.488 . S
C444 O460 1.215 . S
C444 O461 1.289 . S
C445 C444 1.488 . S
C445 C446 1.348 . S
C445 C450 1.413 . S
C446 C445 1.348 . S
C446 C447 1.442 . S
C446 H468 0.930 . S
C447 C446 1.442 . S
C447 C448 1.381 . S
C447 H469 0.931 . S
C448 C447 1.381 . S
C448 C449 1.321 . S
C449 C448 1.321 . S
C449 C450 1.403 . S
C449 H470 0.934 . S
C450 C445 1.413 . S
C450 C449 1.403 . S
C450 H471 0.930 . S
C451 O462 1.275 . S
C451 O463 1.256 . S
O452 Ho432 2.322 . S
O452 C434 1.259 . S
O453 Ho433 2.346 1_554 S
O453 C434 1.268 . S
O454 Ho432 2.378 . S
O454 C435 1.215 . S
O455 Ho432 2.524 . S
O455 C435 1.289 . S
O456 Ho432 2.381 1_655 S
O456 C442 1.275 . S
O457 Ho432 2.669 1_655 S
O457 Ho433 2.305 1_654 S
O457 C442 1.256 . S
O458 Ho433 2.322 1_655 S
O458 C443 1.259 . S
O459 Ho432 2.324 1_656 S
O459 C443 1.298 . S
O460 Ho433 2.378 1_655 S
O460 C444 1.215 . S
O461 Ho433 2.524 1_655 S
O461 C444 1.289 . S
O462 Ho433 2.381 . S
O462 C451 1.275 . S
O463 Ho432 2.305 1_556 S
O463 Ho433 2.669 . S
O463 C451 1.256 . S
H464 C437 0.930 . S
H465 C438 0.931 . S
H466 C440 0.934 . S
H467 C441 0.930 . S
H468 C446 0.930 . S
H469 C447 0.931 . S
H470 C449 0.934 . S
H471 C450 0.930 . S
C472 C473 1.349 . S
C472 C474 1.327 . S
C472 H497 0.950 . S
C473 C472 1.349 . S
C473 C489 1.349 . S
C474 C472 1.327 . S
C474 C493 1.429 . S
C474 H498 0.950 . S
C475 C492 1.574 . S
C475 C494 1.368 . S
C475 H499 0.949 . S
H476 C480 0.949 . S
C477 C478 1.349 . S
C477 C479 1.327 . S
C477 H500 0.950 . S
C478 C477 1.349 . S
C478 C490 1.349 . S
C479 C477 1.327 . S
C479 C495 1.429 . S
C479 H501 0.950 . S
C480 H476 0.949 . S
C480 C488 1.574 . S
C480 C496 1.368 . S
H481 C489 0.950 . S
H482 C487 0.950 . S
H483 C488 0.949 . S
H484 C490 0.950 . S
H485 C491 0.950 . S
H486 C492 0.949 . S
C487 H482 0.950 . S
C487 C489 1.327 . S
C487 C493 1.429 . S
C488 C480 1.574 . S
C488 H483 0.949 . S
C488 C494 1.368 . S
C489 C473 1.349 . S
C489 H481 0.950 . S
C489 C487 1.327 . S
C490 C478 1.349 . S
C490 H484 0.950 . S
C490 C491 1.327 . S
C491 H485 0.950 . S
C491 C490 1.327 . S
C491 C495 1.429 . S
C492 C475 1.574 . S
C492 H486 0.949 . S
C492 C496 1.368 . S
C493 C474 1.429 . S
C493 C487 1.429 . S
C493 C494 1.523 . S
C494 C475 1.368 . S
C494 C488 1.368 . S
C494 C493 1.523 . S
C495 C479 1.429 . S
C495 C491 1.429 . S
C495 C496 1.523 . S
C496 C480 1.368 . S
C496 C492 1.368 . S
C496 C495 1.523 . S
H497 C472 0.950 . S
H498 C474 0.950 . S
H499 C475 0.949 . S
H500 C477 0.950 . S
H501 C479 0.950 . S
C502 C503 1.349 . S
C502 C504 1.327 . S
C502 H527 0.950 . S
C503 C502 1.349 . S
C503 C519 1.349 . S
C504 C502 1.327 . S
C504 C523 1.429 . S
C504 H528 0.950 . S
C505 C522 1.574 . S
C505 C524 1.368 . S
C505 H529 0.949 . S
H506 C510 0.949 . S
C507 C508 1.349 . S
C507 C509 1.327 . S
C507 H530 0.950 . S
C508 C507 1.349 . S
C508 C520 1.349 . S
C509 C507 1.327 . S
C509 C525 1.429 . S
C509 H531 0.950 . S
C510 H506 0.949 . S
C510 C518 1.574 . S
C510 C526 1.368 . S
H511 C519 0.950 . S
H512 C517 0.950 . S
H513 C518 0.949 . S
H514 C520 0.950 . S
H515 C521 0.950 . S
H516 C522 0.949 . S
C517 H512 0.950 . S
C517 C519 1.327 . S
C517 C523 1.429 . S
C518 C510 1.574 . S
C518 H513 0.949 . S
C518 C524 1.368 . S
C519 C503 1.349 . S
C519 H511 0.950 . S
C519 C517 1.327 . S
C520 C508 1.349 . S
C520 H514 0.950 . S
C520 C521 1.327 . S
C521 H515 0.950 . S
C521 C520 1.327 . S
C521 C525 1.429 . S
C522 C505 1.574 . S
C522 H516 0.949 . S
C522 C526 1.368 . S
C523 C504 1.429 . S
C523 C517 1.429 . S
C523 C524 1.523 . S
C524 C505 1.368 . S
C524 C518 1.368 . S
C524 C523 1.523 . S
C525 C509 1.429 . S
C525 C521 1.429 . S
C525 C526 1.523 . S
C526 C510 1.368 . S
C526 C522 1.368 . S
C526 C525 1.523 . S
H527 C502 0.950 . S
H528 C504 0.950 . S
H529 C505 0.949 . S
H530 C507 0.950 . S
H531 C509 0.950 . S
C532 C533 1.349 . S
C532 C534 1.327 . S
C532 H557 0.950 . S
C533 C532 1.349 . S
C533 C549 1.349 . S
C534 C532 1.327 . S
C534 C553 1.429 . S
C534 H558 0.950 . S
C535 C552 1.574 . S
C535 C554 1.368 . S
C535 H559 0.949 . S
H536 C540 0.949 . S
C537 C538 1.349 . S
C537 C539 1.327 . S
C537 H560 0.950 . S
C538 C537 1.349 . S
C538 C550 1.349 . S
C539 C537 1.327 . S
C539 C555 1.429 . S
C539 H561 0.950 . S
C540 H536 0.949 . S
C540 C548 1.574 . S
C540 C556 1.368 . S
H541 C549 0.950 . S
H542 C547 0.950 . S
H543 C548 0.949 . S
H544 C550 0.950 . S
H545 C551 0.950 . S
H546 C552 0.949 . S
C547 H542 0.950 . S
C547 C549 1.327 . S
C547 C553 1.429 . S
C548 C540 1.574 . S
C548 H543 0.949 . S
C548 C554 1.368 . S
C549 C533 1.349 . S
C549 H541 0.950 . S
C549 C547 1.327 . S
C550 C538 1.349 . S
C550 H544 0.950 . S
C550 C551 1.327 . S
C551 H545 0.950 . S
C551 C550 1.327 . S
C551 C555 1.429 . S
C552 C535 1.574 . S
C552 H546 0.949 . S
C552 C556 1.368 . S
C553 C534 1.429 . S
C553 C547 1.429 . S
C553 C554 1.523 . S
C554 C535 1.368 . S
C554 C548 1.368 . S
C554 C553 1.523 . S
C555 C539 1.429 . S
C555 C551 1.429 . S
C555 C556 1.523 . S
C556 C540 1.368 . S
C556 C552 1.368 . S
C556 C555 1.523 . S
H557 C532 0.950 . S
H558 C534 0.950 . S
H559 C535 0.949 . S
H560 C537 0.950 . S
H561 C539 0.950 . S
C562 C563 1.349 . S
C562 C564 1.327 . S
C562 H587 0.950 . S
C563 C562 1.349 . S
C563 C579 1.349 . S
C564 C562 1.327 . S
C564 C583 1.429 . S
C564 H588 0.950 . S
C565 C582 1.574 . S
C565 C584 1.368 . S
C565 H589 0.949 . S
H566 C570 0.949 . S
C567 C568 1.349 . S
C567 C569 1.327 . S
C567 H590 0.950 . S
C568 C567 1.349 . S
C568 C580 1.349 . S
C569 C567 1.327 . S
C569 C585 1.429 . S
C569 H591 0.950 . S
C570 H566 0.949 . S
C570 C578 1.574 . S
C570 C586 1.368 . S
H571 C579 0.950 . S
H572 C577 0.950 . S
H573 C578 0.949 . S
H574 C580 0.950 . S
H575 C581 0.950 . S
H576 C582 0.949 . S
C577 H572 0.950 . S
C577 C579 1.327 . S
C577 C583 1.429 . S
C578 C570 1.574 . S
C578 H573 0.949 . S
C578 C584 1.368 . S
C579 C563 1.349 . S
C579 H571 0.950 . S
C579 C577 1.327 . S
C580 C568 1.349 . S
C580 H574 0.950 . S
C580 C581 1.327 . S
C581 H575 0.950 . S
C581 C580 1.327 . S
C581 C585 1.429 . S
C582 C565 1.574 . S
C582 H576 0.949 . S
C582 C586 1.368 . S
C583 C564 1.429 . S
C583 C577 1.429 . S
C583 C584 1.523 . S
C584 C565 1.368 . S
C584 C578 1.368 . S
C584 C583 1.523 . S
C585 C569 1.429 . S
C585 C581 1.429 . S
C585 C586 1.523 . S
C586 C570 1.368 . S
C586 C582 1.368 . S
C586 C585 1.523 . S
H587 C562 0.950 . S
H588 C564 0.950 . S
H589 C565 0.949 . S
H590 C567 0.950 . S
H591 C569 0.950 . S
C592 C593 1.349 . S
C592 C594 1.327 . S
C592 H617 0.950 . S
C593 C592 1.349 . S
C593 C609 1.349 . S
C594 C592 1.327 . S
C594 C613 1.429 . S
C594 H618 0.950 . S
C595 C612 1.574 . S
C595 C614 1.368 . S
C595 H619 0.949 . S
H596 C600 0.949 . S
C597 C598 1.349 . S
C597 C599 1.327 . S
C597 H620 0.950 . S
C598 C597 1.349 . S
C598 C610 1.349 . S
C599 C597 1.327 . S
C599 C615 1.429 . S
C599 H621 0.950 . S
C600 H596 0.949 . S
C600 C608 1.574 . S
C600 C616 1.368 . S
H601 C609 0.950 . S
H602 C607 0.950 . S
H603 C608 0.949 . S
H604 C610 0.950 . S
H605 C611 0.950 . S
H606 C612 0.949 . S
C607 H602 0.950 . S
C607 C609 1.327 . S
C607 C613 1.429 . S
C608 C600 1.574 . S
C608 H603 0.949 . S
C608 C614 1.368 . S
C609 C593 1.349 . S
C609 H601 0.950 . S
C609 C607 1.327 . S
C610 C598 1.349 . S
C610 H604 0.950 . S
C610 C611 1.327 . S
C611 H605 0.950 . S
C611 C610 1.327 . S
C611 C615 1.429 . S
C612 C595 1.574 . S
C612 H606 0.949 . S
C612 C616 1.368 . S
C613 C594 1.429 . S
C613 C607 1.429 . S
C613 C614 1.523 . S
C614 C595 1.368 . S
C614 C608 1.368 . S
C614 C613 1.523 . S
C615 C599 1.429 . S
C615 C611 1.429 . S
C615 C616 1.523 . S
C616 C600 1.368 . S
C616 C612 1.368 . S
C616 C615 1.523 . S
H617 C592 0.950 . S
H618 C594 0.950 . S
H619 C595 0.949 . S
H620 C597 0.950 . S
H621 C599 0.950 . S
C622 C623 1.349 . S
C622 C624 1.327 . S
C622 H647 0.950 . S
C623 C622 1.349 . S
C623 C639 1.349 . S
C624 C622 1.327 . S
C624 C643 1.429 . S
C624 H648 0.950 . S
C625 C642 1.574 . S
C625 C644 1.368 . S
C625 H649 0.949 . S
H626 C630 0.949 . S
C627 C628 1.349 . S
C627 C629 1.327 . S
C627 H650 0.950 . S
C628 C627 1.349 . S
C628 C640 1.349 . S
C629 C627 1.327 . S
C629 C645 1.429 . S
C629 H651 0.950 . S
C630 H626 0.949 . S
C630 C638 1.574 . S
C630 C646 1.368 . S
H631 C639 0.950 . S
H632 C637 0.950 . S
H633 C638 0.949 . S
H634 C640 0.950 . S
H635 C641 0.950 . S
H636 C642 0.949 . S
C637 H632 0.950 . S
C637 C639 1.327 . S
C637 C643 1.429 . S
C638 C630 1.574 . S
C638 H633 0.949 . S
C638 C644 1.368 . S
C639 C623 1.349 . S
C639 H631 0.950 . S
C639 C637 1.327 . S
C640 C628 1.349 . S
C640 H634 0.950 . S
C640 C641 1.327 . S
C641 H635 0.950 . S
C641 C640 1.327 . S
C641 C645 1.429 . S
C642 C625 1.574 . S
C642 H636 0.949 . S
C642 C646 1.368 . S
C643 C624 1.429 . S
C643 C637 1.429 . S
C643 C644 1.523 . S
C644 C625 1.368 . S
C644 C638 1.368 . S
C644 C643 1.523 . S
C645 C629 1.429 . S
C645 C641 1.429 . S
C645 C646 1.523 . S
C646 C630 1.368 . S
C646 C642 1.368 . S
C646 C645 1.523 . S
H647 C622 0.950 . S
H648 C624 0.950 . S
H649 C625 0.949 . S
H650 C627 0.950 . S
H651 C629 0.950 . S
C652 C653 1.349 . S
C652 C654 1.327 . S
C652 H677 0.950 . S
C653 C652 1.349 . S
C653 C669 1.349 . S
C654 C652 1.327 . S
C654 C673 1.429 . S
C654 H678 0.950 . S
C655 C672 1.574 . S
C655 C674 1.368 . S
C655 H679 0.949 . S
H656 C660 0.949 . S
C657 C658 1.349 . S
C657 C659 1.327 . S
C657 H680 0.950 . S
C658 C657 1.349 . S
C658 C670 1.349 . S
C659 C657 1.327 . S
C659 C675 1.429 . S
C659 H681 0.950 . S
C660 H656 0.949 . S
C660 C668 1.574 . S
C660 C676 1.368 . S
H661 C669 0.950 . S
H662 C667 0.950 . S
H663 C668 0.949 . S
H664 C670 0.950 . S
H665 C671 0.950 . S
H666 C672 0.949 . S
C667 H662 0.950 . S
C667 C669 1.327 . S
C667 C673 1.429 . S
C668 C660 1.574 . S
C668 H663 0.949 . S
C668 C674 1.368 . S
C669 C653 1.349 . S
C669 H661 0.950 . S
C669 C667 1.327 . S
C670 C658 1.349 . S
C670 H664 0.950 . S
C670 C671 1.327 . S
C671 H665 0.950 . S
C671 C670 1.327 . S
C671 C675 1.429 . S
C672 C655 1.574 . S
C672 H666 0.949 . S
C672 C676 1.368 . S
C673 C654 1.429 . S
C673 C667 1.429 . S
C673 C674 1.523 . S
C674 C655 1.368 . S
C674 C668 1.368 . S
C674 C673 1.523 . S
C675 C659 1.429 . S
C675 C671 1.429 . S
C675 C676 1.523 . S
C676 C660 1.368 . S
C676 C672 1.368 . S
C676 C675 1.523 . S
H677 C652 0.950 . S
H678 C654 0.950 . S
H679 C655 0.949 . S
H680 C657 0.950 . S
H681 C659 0.950 . S
C682 C683 1.349 . S
C682 C684 1.327 . S
C682 H707 0.950 . S
C683 C682 1.349 . S
C683 C699 1.349 . S
C684 C682 1.327 . S
C684 C703 1.429 . S
C684 H708 0.950 . S
C685 C702 1.574 . S
C685 C704 1.368 . S
C685 H709 0.949 . S
H686 C690 0.949 . S
C687 C688 1.349 . S
C687 C689 1.327 . S
C687 H710 0.950 . S
C688 C687 1.349 . S
C688 C700 1.349 . S
C689 C687 1.327 . S
C689 C705 1.429 . S
C689 H711 0.950 . S
C690 H686 0.949 . S
C690 C698 1.574 . S
C690 C706 1.368 . S
H691 C699 0.950 . S
H692 C697 0.950 . S
H693 C698 0.949 . S
H694 C700 0.950 . S
H695 C701 0.950 . S
H696 C702 0.949 . S
C697 H692 0.950 . S
C697 C699 1.327 . S
C697 C703 1.429 . S
C698 C690 1.574 . S
C698 H693 0.949 . S
C698 C704 1.368 . S
C699 C683 1.349 . S
C699 H691 0.950 . S
C699 C697 1.327 . S
C700 C688 1.349 . S
C700 H694 0.950 . S
C700 C701 1.327 . S
C701 H695 0.950 . S
C701 C700 1.327 . S
C701 C705 1.429 . S
C702 C685 1.574 . S
C702 H696 0.949 . S
C702 C706 1.368 . S
C703 C684 1.429 . S
C703 C697 1.429 . S
C703 C704 1.523 . S
C704 C685 1.368 . S
C704 C698 1.368 . S
C704 C703 1.523 . S
C705 C689 1.429 . S
C705 C701 1.429 . S
C705 C706 1.523 . S
C706 C690 1.368 . S
C706 C702 1.368 . S
C706 C705 1.523 . S
H707 C682 0.950 . S
H708 C684 0.950 . S
H709 C685 0.949 . S
H710 C687 0.950 . S
H711 C689 0.950 . S
C712 C713 1.349 . S
C712 C714 1.327 . S
C712 H737 0.950 . S
C713 C712 1.349 . S
C713 C729 1.349 . S
C714 C712 1.327 . S
C714 C733 1.429 . S
C714 H738 0.950 . S
C715 C732 1.574 . S
C715 C734 1.368 . S
C715 H739 0.949 . S
H716 C720 0.949 . S
C717 C718 1.349 . S
C717 C719 1.327 . S
C717 H740 0.950 . S
C718 C717 1.349 . S
C718 C730 1.349 . S
C719 C717 1.327 . S
C719 C735 1.429 . S
C719 H741 0.950 . S
C720 H716 0.949 . S
C720 C728 1.574 . S
C720 C736 1.368 . S
H721 C729 0.950 . S
H722 C727 0.950 . S
H723 C728 0.949 . S
H724 C730 0.950 . S
H725 C731 0.950 . S
H726 C732 0.949 . S
C727 H722 0.950 . S
C727 C729 1.327 . S
C727 C733 1.429 . S
C728 C720 1.574 . S
C728 H723 0.949 . S
C728 C734 1.368 . S
C729 C713 1.349 . S
C729 H721 0.950 . S
C729 C727 1.327 . S
C730 C718 1.349 . S
C730 H724 0.950 . S
C730 C731 1.327 . S
C731 H725 0.950 . S
C731 C730 1.327 . S
C731 C735 1.429 . S
C732 C715 1.574 . S
C732 H726 0.949 . S
C732 C736 1.368 . S
C733 C714 1.429 . S
C733 C727 1.429 . S
C733 C734 1.523 . S
C734 C715 1.368 . S
C734 C728 1.368 . S
C734 C733 1.523 . S
C735 C719 1.429 . S
C735 C731 1.429 . S
C735 C736 1.523 . S
C736 C720 1.368 . S
C736 C732 1.368 . S
C736 C735 1.523 . S
H737 C712 0.950 . S
H738 C714 0.950 . S
H739 C715 0.949 . S
H740 C717 0.950 . S
H741 C719 0.950 . S
C742 C743 1.349 . S
C742 C744 1.327 . S
C742 H767 0.950 . S
C743 C742 1.349 . S
C743 C759 1.349 . S
C744 C742 1.327 . S
C744 C763 1.429 . S
C744 H768 0.950 . S
C745 C762 1.574 . S
C745 C764 1.368 . S
C745 H769 0.949 . S
H746 C750 0.949 . S
C747 C748 1.349 . S
C747 C749 1.327 . S
C747 H770 0.950 . S
C748 C747 1.349 . S
C748 C760 1.349 . S
C749 C747 1.327 . S
C749 C765 1.429 . S
C749 H771 0.950 . S
C750 H746 0.949 . S
C750 C758 1.574 . S
C750 C766 1.368 . S
H751 C759 0.950 . S
H752 C757 0.950 . S
H753 C758 0.949 . S
H754 C760 0.950 . S
H755 C761 0.950 . S
H756 C762 0.949 . S
C757 H752 0.950 . S
C757 C759 1.327 . S
C757 C763 1.429 . S
C758 C750 1.574 . S
C758 H753 0.949 . S
C758 C764 1.368 . S
C759 C743 1.349 . S
C759 H751 0.950 . S
C759 C757 1.327 . S
C760 C748 1.349 . S
C760 H754 0.950 . S
C760 C761 1.327 . S
C761 H755 0.950 . S
C761 C760 1.327 . S
C761 C765 1.429 . S
C762 C745 1.574 . S
C762 H756 0.949 . S
C762 C766 1.368 . S
C763 C744 1.429 . S
C763 C757 1.429 . S
C763 C764 1.523 . S
C764 C745 1.368 . S
C764 C758 1.368 . S
C764 C763 1.523 . S
C765 C749 1.429 . S
C765 C761 1.429 . S
C765 C766 1.523 . S
C766 C750 1.368 . S
C766 C762 1.368 . S
C766 C765 1.523 . S
H767 C742 0.950 . S
H768 C744 0.950 . S
H769 C745 0.949 . S
H770 C747 0.950 . S
H771 C749 0.950 . S
C772 C773 1.349 . S
C772 C774 1.327 . S
C772 H797 0.950 . S
C773 C772 1.349 . S
C773 C789 1.349 . S
C774 C772 1.327 . S
C774 C793 1.429 . S
C774 H798 0.950 . S
C775 C792 1.574 . S
C775 C794 1.368 . S
C775 H799 0.949 . S
H776 C780 0.949 . S
C777 C778 1.349 . S
C777 C779 1.327 . S
C777 H800 0.950 . S
C778 C777 1.349 . S
C778 C790 1.349 . S
C779 C777 1.327 . S
C779 C795 1.429 . S
C779 H801 0.950 . S
C780 H776 0.949 . S
C780 C788 1.574 . S
C780 C796 1.368 . S
H781 C789 0.950 . S
H782 C787 0.950 . S
H783 C788 0.949 . S
H784 C790 0.950 . S
H785 C791 0.950 . S
H786 C792 0.949 . S
C787 H782 0.950 . S
C787 C789 1.327 . S
C787 C793 1.429 . S
C788 C780 1.574 . S
C788 H783 0.949 . S
C788 C794 1.368 . S
C789 C773 1.349 . S
C789 H781 0.950 . S
C789 C787 1.327 . S
C790 C778 1.349 . S
C790 H784 0.950 . S
C790 C791 1.327 . S
C791 H785 0.950 . S
C791 C790 1.327 . S
C791 C795 1.429 . S
C792 C775 1.574 . S
C792 H786 0.949 . S
C792 C796 1.368 . S
C793 C774 1.429 . S
C793 C787 1.429 . S
C793 C794 1.523 . S
C794 C775 1.368 . S
C794 C788 1.368 . S
C794 C793 1.523 . S
C795 C779 1.429 . S
C795 C791 1.429 . S
C795 C796 1.523 . S
C796 C780 1.368 . S
C796 C792 1.368 . S
C796 C795 1.523 . S
H797 C772 0.950 . S
H798 C774 0.950 . S
H799 C775 0.949 . S
H800 C777 0.950 . S
H801 C779 0.950 . S
C802 C803 1.349 . S
C802 C804 1.327 . S
C802 H827 0.950 . S
C803 C802 1.349 . S
C803 C819 1.349 . S
C804 C802 1.327 . S
C804 C823 1.429 . S
C804 H828 0.950 . S
C805 C822 1.574 . S
C805 C824 1.368 . S
C805 H829 0.949 . S
H806 C810 0.949 . S
C807 C808 1.349 . S
C807 C809 1.327 . S
C807 H830 0.950 . S
C808 C807 1.349 . S
C808 C820 1.349 . S
C809 C807 1.327 . S
C809 C825 1.429 . S
C809 H831 0.950 . S
C810 H806 0.949 . S
C810 C818 1.574 . S
C810 C826 1.368 . S
H811 C819 0.950 . S
H812 C817 0.950 . S
H813 C818 0.949 . S
H814 C820 0.950 . S
H815 C821 0.950 . S
H816 C822 0.949 . S
C817 H812 0.950 . S
C817 C819 1.327 . S
C817 C823 1.429 . S
C818 C810 1.574 . S
C818 H813 0.949 . S
C818 C824 1.368 . S
C819 C803 1.349 . S
C819 H811 0.950 . S
C819 C817 1.327 . S
C820 C808 1.349 . S
C820 H814 0.950 . S
C820 C821 1.327 . S
C821 H815 0.950 . S
C821 C820 1.327 . S
C821 C825 1.429 . S
C822 C805 1.574 . S
C822 H816 0.949 . S
C822 C826 1.368 . S
C823 C804 1.429 . S
C823 C817 1.429 . S
C823 C824 1.523 . S
C824 C805 1.368 . S
C824 C818 1.368 . S
C824 C823 1.523 . S
C825 C809 1.429 . S
C825 C821 1.429 . S
C825 C826 1.523 . S
C826 C810 1.368 . S
C826 C822 1.368 . S
C826 C825 1.523 . S
H827 C802 0.950 . S
H828 C804 0.950 . S
H829 C805 0.949 . S
H830 C807 0.950 . S
H831 C809 0.950 . S
C832 C833 1.349 . S
C832 C834 1.327 . S
C832 H857 0.950 . S
C833 C832 1.349 . S
C833 C849 1.349 . S
C834 C832 1.327 . S
C834 C853 1.429 . S
C834 H858 0.950 . S
C835 C852 1.574 . S
C835 C854 1.368 . S
C835 H859 0.949 . S
H836 C840 0.949 . S
C837 C838 1.349 . S
C837 C839 1.327 . S
C837 H860 0.950 . S
C838 C837 1.349 . S
C838 C850 1.349 . S
C839 C837 1.327 . S
C839 C855 1.429 . S
C839 H861 0.950 . S
C840 H836 0.949 . S
C840 C848 1.574 . S
C840 C856 1.368 . S
H841 C849 0.950 . S
H842 C847 0.950 . S
H843 C848 0.949 . S
H844 C850 0.950 . S
H845 C851 0.950 . S
H846 C852 0.949 . S
C847 H842 0.950 . S
C847 C849 1.327 . S
C847 C853 1.429 . S
C848 C840 1.574 . S
C848 H843 0.949 . S
C848 C854 1.368 . S
C849 C833 1.349 . S
C849 H841 0.950 . S
C849 C847 1.327 . S
C850 C838 1.349 . S
C850 H844 0.950 . S
C850 C851 1.327 . S
C851 H845 0.950 . S
C851 C850 1.327 . S
C851 C855 1.429 . S
C852 C835 1.574 . S
C852 H846 0.949 . S
C852 C856 1.368 . S
C853 C834 1.429 . S
C853 C847 1.429 . S
C853 C854 1.523 . S
C854 C835 1.368 . S
C854 C848 1.368 . S
C854 C853 1.523 . S
C855 C839 1.429 . S
C855 C851 1.429 . S
C855 C856 1.523 . S
C856 C840 1.368 . S
C856 C852 1.368 . S
C856 C855 1.523 . S
H857 C832 0.950 . S
H858 C834 0.950 . S
H859 C835 0.949 . S
H860 C837 0.950 . S
H861 C839 0.950 . S
C862 C863 1.349 . S
C862 C864 1.327 . S
C862 H887 0.950 . S
C863 C862 1.349 . S
C863 C879 1.349 . S
C864 C862 1.327 . S
C864 C883 1.429 . S
C864 H888 0.950 . S
C865 C882 1.574 . S
C865 C884 1.368 . S
C865 H889 0.949 . S
H866 C870 0.949 . S
C867 C868 1.349 . S
C867 C869 1.327 . S
C867 H890 0.950 . S
C868 C867 1.349 . S
C868 C880 1.349 . S
C869 C867 1.327 . S
C869 C885 1.429 . S
C869 H891 0.950 . S
C870 H866 0.949 . S
C870 C878 1.574 . S
C870 C886 1.368 . S
H871 C879 0.950 . S
H872 C877 0.950 . S
H873 C878 0.949 . S
H874 C880 0.950 . S
H875 C881 0.950 . S
H876 C882 0.949 . S
C877 H872 0.950 . S
C877 C879 1.327 . S
C877 C883 1.429 . S
C878 C870 1.574 . S
C878 H873 0.949 . S
C878 C884 1.368 . S
C879 C863 1.349 . S
C879 H871 0.950 . S
C879 C877 1.327 . S
C880 C868 1.349 . S
C880 H874 0.950 . S
C880 C881 1.327 . S
C881 H875 0.950 . S
C881 C880 1.327 . S
C881 C885 1.429 . S
C882 C865 1.574 . S
C882 H876 0.949 . S
C882 C886 1.368 . S
C883 C864 1.429 . S
C883 C877 1.429 . S
C883 C884 1.523 . S
C884 C865 1.368 . S
C884 C878 1.368 . S
C884 C883 1.523 . S
C885 C869 1.429 . S
C885 C881 1.429 . S
C885 C886 1.523 . S
C886 C870 1.368 . S
C886 C882 1.368 . S
C886 C885 1.523 . S
H887 C862 0.950 . S
H888 C864 0.950 . S
H889 C865 0.949 . S
H890 C867 0.950 . S
H891 C869 0.950 . S
C892 C893 1.349 . S
C892 C894 1.327 . S
C892 H917 0.950 . S
C893 C892 1.349 . S
C893 C909 1.349 . S
C894 C892 1.327 . S
C894 C913 1.429 . S
C894 H918 0.950 . S
C895 C912 1.574 . S
C895 C914 1.368 . S
C895 H919 0.949 . S
H896 C900 0.949 . S
C897 C898 1.349 . S
C897 C899 1.327 . S
C897 H920 0.950 . S
C898 C897 1.349 . S
C898 C910 1.349 . S
C899 C897 1.327 . S
C899 C915 1.429 . S
C899 H921 0.950 . S
C900 H896 0.949 . S
C900 C908 1.574 . S
C900 C916 1.368 . S
H901 C909 0.950 . S
H902 C907 0.950 . S
H903 C908 0.949 . S
H904 C910 0.950 . S
H905 C911 0.950 . S
H906 C912 0.949 . S
C907 H902 0.950 . S
C907 C909 1.327 . S
C907 C913 1.429 . S
C908 C900 1.574 . S
C908 H903 0.949 . S
C908 C914 1.368 . S
C909 C893 1.349 . S
C909 H901 0.950 . S
C909 C907 1.327 . S
C910 C898 1.349 . S
C910 H904 0.950 . S
C910 C911 1.327 . S
C911 H905 0.950 . S
C911 C910 1.327 . S
C911 C915 1.429 . S
C912 C895 1.574 . S
C912 H906 0.949 . S
C912 C916 1.368 . S
C913 C894 1.429 . S
C913 C907 1.429 . S
C913 C914 1.523 . S
C914 C895 1.368 . S
C914 C908 1.368 . S
C914 C913 1.523 . S
C915 C899 1.429 . S
C915 C911 1.429 . S
C915 C916 1.523 . S
C916 C900 1.368 . S
C916 C912 1.368 . S
C916 C915 1.523 . S
H917 C892 0.950 . S
H918 C894 0.950 . S
H919 C895 0.949 . S
H920 C897 0.950 . S
H921 C899 0.950 . S
C922 C923 1.349 . S
C922 C924 1.327 . S
C922 H947 0.950 . S
C923 C922 1.349 . S
C923 C939 1.349 . S
C924 C922 1.327 . S
C924 C943 1.429 . S
C924 H948 0.950 . S
C925 C942 1.574 . S
C925 C944 1.368 . S
C925 H949 0.949 . S
H926 C930 0.949 . S
C927 C928 1.349 . S
C927 C929 1.327 . S
C927 H950 0.950 . S
C928 C927 1.349 . S
C928 C940 1.349 . S
C929 C927 1.327 . S
C929 C945 1.429 . S
C929 H951 0.950 . S
C930 H926 0.949 . S
C930 C938 1.574 . S
C930 C946 1.368 . S
H931 C939 0.950 . S
H932 C937 0.950 . S
H933 C938 0.949 . S
H934 C940 0.950 . S
H935 C941 0.950 . S
H936 C942 0.949 . S
C937 H932 0.950 . S
C937 C939 1.327 . S
C937 C943 1.429 . S
C938 C930 1.574 . S
C938 H933 0.949 . S
C938 C944 1.368 . S
C939 C923 1.349 . S
C939 H931 0.950 . S
C939 C937 1.327 . S
C940 C928 1.349 . S
C940 H934 0.950 . S
C940 C941 1.327 . S
C941 H935 0.950 . S
C941 C940 1.327 . S
C941 C945 1.429 . S
C942 C925 1.574 . S
C942 H936 0.949 . S
C942 C946 1.368 . S
C943 C924 1.429 . S
C943 C937 1.429 . S
C943 C944 1.523 . S
C944 C925 1.368 . S
C944 C938 1.368 . S
C944 C943 1.523 . S
C945 C929 1.429 . S
C945 C941 1.429 . S
C945 C946 1.523 . S
C946 C930 1.368 . S
C946 C942 1.368 . S
C946 C945 1.523 . S
H947 C922 0.950 . S
H948 C924 0.950 . S
H949 C925 0.949 . S
H950 C927 0.950 . S
H951 C929 0.950 . S
C952 C953 1.349 . S
C952 C954 1.327 . S
C952 H977 0.950 . S
C953 C952 1.349 . S
C953 C969 1.349 . S
C954 C952 1.327 . S
C954 C973 1.429 . S
C954 H978 0.950 . S
C955 C972 1.574 . S
C955 C974 1.368 . S
C955 H979 0.949 . S
H956 C960 0.949 . S
C957 C958 1.349 . S
C957 C959 1.327 . S
C957 H980 0.950 . S
C958 C957 1.349 . S
C958 C970 1.349 . S
C959 C957 1.327 . S
C959 C975 1.429 . S
C959 H981 0.950 . S
C960 H956 0.949 . S
C960 C968 1.574 . S
C960 C976 1.368 . S
H961 C969 0.950 . S
H962 C967 0.950 . S
H963 C968 0.949 . S
H964 C970 0.950 . S
H965 C971 0.950 . S
H966 C972 0.949 . S
C967 H962 0.950 . S
C967 C969 1.327 . S
C967 C973 1.429 . S
C968 C960 1.574 . S
C968 H963 0.949 . S
C968 C974 1.368 . S
C969 C953 1.349 . S
C969 H961 0.950 . S
C969 C967 1.327 . S
C970 C958 1.349 . S
C970 H964 0.950 . S
C970 C971 1.327 . S
C971 H965 0.950 . S
C971 C970 1.327 . S
C971 C975 1.429 . S
C972 C955 1.574 . S
C972 H966 0.949 . S
C972 C976 1.368 . S
C973 C954 1.429 . S
C973 C967 1.429 . S
C973 C974 1.523 . S
C974 C955 1.368 . S
C974 C968 1.368 . S
C974 C973 1.523 . S
C975 C959 1.429 . S
C975 C971 1.429 . S
C975 C976 1.523 . S
C976 C960 1.368 . S
C976 C972 1.368 . S
C976 C975 1.523 . S
H977 C952 0.950 . S
H978 C954 0.950 . S
H979 C955 0.949 . S
H980 C957 0.950 . S
H981 C959 0.950 . S
C982 C983 1.349 . S
C982 C984 1.327 . S
C982 H1007 0.950 . S
C983 C982 1.349 . S
C983 C999 1.349 . S
C984 C982 1.327 . S
C984 C1003 1.429 . S
C984 H1008 0.950 . S
C985 C1002 1.574 . S
C985 C1004 1.368 . S
C985 H1009 0.949 . S
H986 C990 0.949 . S
C987 C988 1.349 . S
C987 C989 1.327 . S
C987 H1010 0.950 . S
C988 C987 1.349 . S
C988 C1000 1.349 . S
C989 C987 1.327 . S
C989 C1005 1.429 . S
C989 H1011 0.950 . S
C990 H986 0.949 . S
C990 C998 1.574 . S
C990 C1006 1.368 . S
H991 C999 0.950 . S
H992 C997 0.950 . S
H993 C998 0.949 . S
H994 C1000 0.950 . S
H995 C1001 0.950 . S
H996 C1002 0.949 . S
C997 H992 0.950 . S
C997 C999 1.327 . S
C997 C1003 1.429 . S
C998 C990 1.574 . S
C998 H993 0.949 . S
C998 C1004 1.368 . S
C999 C983 1.349 . S
C999 H991 0.950 . S
C999 C997 1.327 . S
C1000 C988 1.349 . S
C1000 H994 0.950 . S
C1000 C1001 1.327 . S
C1001 H995 0.950 . S
C1001 C1000 1.327 . S
C1001 C1005 1.429 . S
C1002 C985 1.574 . S
C1002 H996 0.949 . S
C1002 C1006 1.368 . S
C1003 C984 1.429 . S
C1003 C997 1.429 . S
C1003 C1004 1.523 . S
C1004 C985 1.368 . S
C1004 C998 1.368 . S
C1004 C1003 1.523 . S
C1005 C989 1.429 . S
C1005 C1001 1.429 . S
C1005 C1006 1.523 . S
C1006 C990 1.368 . S
C1006 C1002 1.368 . S
C1006 C1005 1.523 . S
H1007 C982 0.950 . S
H1008 C984 0.950 . S
H1009 C985 0.949 . S
H1010 C987 0.950 . S
H1011 C989 0.950 . S
C1012 C1013 1.349 . S
C1012 C1014 1.327 . S
C1012 H1037 0.950 . S
C1013 C1012 1.349 . S
C1013 C1029 1.349 . S
C1014 C1012 1.327 . S
C1014 C1033 1.429 . S
C1014 H1038 0.950 . S
C1015 C1032 1.574 . S
C1015 C1034 1.368 . S
C1015 H1039 0.949 . S
H1016 C1020 0.949 . S
C1017 C1018 1.349 . S
C1017 C1019 1.327 . S
C1017 H1040 0.950 . S
C1018 C1017 1.349 . S
C1018 C1030 1.349 . S
C1019 C1017 1.327 . S
C1019 C1035 1.429 . S
C1019 H1041 0.950 . S
C1020 H1016 0.949 . S
C1020 C1028 1.574 . S
C1020 C1036 1.368 . S
H1021 C1029 0.950 . S
H1022 C1027 0.950 . S
H1023 C1028 0.949 . S
H1024 C1030 0.950 . S
H1025 C1031 0.950 . S
H1026 C1032 0.949 . S
C1027 H1022 0.950 . S
C1027 C1029 1.327 . S
C1027 C1033 1.429 . S
C1028 C1020 1.574 . S
C1028 H1023 0.949 . S
C1028 C1034 1.368 . S
C1029 C1013 1.349 . S
C1029 H1021 0.950 . S
C1029 C1027 1.327 . S
C1030 C1018 1.349 . S
C1030 H1024 0.950 . S
C1030 C1031 1.327 . S
C1031 H1025 0.950 . S
C1031 C1030 1.327 . S
C1031 C1035 1.429 . S
C1032 C1015 1.574 . S
C1032 H1026 0.949 . S
C1032 C1036 1.368 . S
C1033 C1014 1.429 . S
C1033 C1027 1.429 . S
C1033 C1034 1.523 . S
C1034 C1015 1.368 . S
C1034 C1028 1.368 . S
C1034 C1033 1.523 . S
C1035 C1019 1.429 . S
C1035 C1031 1.429 . S
C1035 C1036 1.523 . S
C1036 C1020 1.368 . S
C1036 C1032 1.368 . S
C1036 C1035 1.523 . S
H1037 C1012 0.950 . S
H1038 C1014 0.950 . S
H1039 C1015 0.949 . S
H1040 C1017 0.950 . S
H1041 C1019 0.950 . S
C1042 C1043 1.349 . S
C1042 C1044 1.327 . S
C1042 H1067 0.950 . S
C1043 C1042 1.349 . S
C1043 C1059 1.349 . S
C1044 C1042 1.327 . S
C1044 C1063 1.429 . S
C1044 H1068 0.950 . S
C1045 C1062 1.574 . S
C1045 C1064 1.368 . S
C1045 H1069 0.949 . S
H1046 C1050 0.949 . S
C1047 C1048 1.349 . S
C1047 C1049 1.327 . S
C1047 H1070 0.950 . S
C1048 C1047 1.349 . S
C1048 C1060 1.349 . S
C1049 C1047 1.327 . S
C1049 C1065 1.429 . S
C1049 H1071 0.950 . S
C1050 H1046 0.949 . S
C1050 C1058 1.574 . S
C1050 C1066 1.368 . S
H1051 C1059 0.950 . S
H1052 C1057 0.950 . S
H1053 C1058 0.949 . S
H1054 C1060 0.950 . S
H1055 C1061 0.950 . S
H1056 C1062 0.949 . S
C1057 H1052 0.950 . S
C1057 C1059 1.327 . S
C1057 C1063 1.429 . S
C1058 C1050 1.574 . S
C1058 H1053 0.949 . S
C1058 C1064 1.368 . S
C1059 C1043 1.349 . S
C1059 H1051 0.950 . S
C1059 C1057 1.327 . S
C1060 C1048 1.349 . S
C1060 H1054 0.950 . S
C1060 C1061 1.327 . S
C1061 H1055 0.950 . S
C1061 C1060 1.327 . S
C1061 C1065 1.429 . S
C1062 C1045 1.574 . S
C1062 H1056 0.949 . S
C1062 C1066 1.368 . S
C1063 C1044 1.429 . S
C1063 C1057 1.429 . S
C1063 C1064 1.523 . S
C1064 C1045 1.368 . S
C1064 C1058 1.368 . S
C1064 C1063 1.523 . S
C1065 C1049 1.429 . S
C1065 C1061 1.429 . S
C1065 C1066 1.523 . S
C1066 C1050 1.368 . S
C1066 C1062 1.368 . S
C1066 C1065 1.523 . S
H1067 C1042 0.950 . S
H1068 C1044 0.950 . S
H1069 C1045 0.949 . S
H1070 C1047 0.950 . S
H1071 C1049 0.950 . S
C1072 C1073 1.349 . S
C1072 C1074 1.327 . S
C1072 H1097 0.950 . S
C1073 C1072 1.349 . S
C1073 C1089 1.349 . S
C1074 C1072 1.327 . S
C1074 C1093 1.429 . S
C1074 H1098 0.950 . S
C1075 C1092 1.574 . S
C1075 C1094 1.368 . S
C1075 H1099 0.949 . S
H1076 C1080 0.949 . S
C1077 C1078 1.349 . S
C1077 C1079 1.327 . S
C1077 H1100 0.950 . S
C1078 C1077 1.349 . S
C1078 C1090 1.349 . S
C1079 C1077 1.327 . S
C1079 C1095 1.429 . S
C1079 H1101 0.950 . S
C1080 H1076 0.949 . S
C1080 C1088 1.574 . S
C1080 C1096 1.368 . S
H1081 C1089 0.950 . S
H1082 C1087 0.950 . S
H1083 C1088 0.949 . S
H1084 C1090 0.950 . S
H1085 C1091 0.950 . S
H1086 C1092 0.949 . S
C1087 H1082 0.950 . S
C1087 C1089 1.327 . S
C1087 C1093 1.429 . S
C1088 C1080 1.574 . S
C1088 H1083 0.949 . S
C1088 C1094 1.368 . S
C1089 C1073 1.349 . S
C1089 H1081 0.950 . S
C1089 C1087 1.327 . S
C1090 C1078 1.349 . S
C1090 H1084 0.950 . S
C1090 C1091 1.327 . S
C1091 H1085 0.950 . S
C1091 C1090 1.327 . S
C1091 C1095 1.429 . S
C1092 C1075 1.574 . S
C1092 H1086 0.949 . S
C1092 C1096 1.368 . S
C1093 C1074 1.429 . S
C1093 C1087 1.429 . S
C1093 C1094 1.523 . S
C1094 C1075 1.368 . S
C1094 C1088 1.368 . S
C1094 C1093 1.523 . S
C1095 C1079 1.429 . S
C1095 C1091 1.429 . S
C1095 C1096 1.523 . S
C1096 C1080 1.368 . S
C1096 C1092 1.368 . S
C1096 C1095 1.523 . S
H1097 C1072 0.950 . S
H1098 C1074 0.950 . S
H1099 C1075 0.949 . S
H1100 C1077 0.950 . S
H1101 C1079 0.950 . S
C1102 C1103 1.349 . S
C1102 C1104 1.327 . S
C1102 H1127 0.950 . S
C1103 C1102 1.349 . S
C1103 C1119 1.349 . S
C1104 C1102 1.327 . S
C1104 C1123 1.429 . S
C1104 H1128 0.950 . S
C1105 C1122 1.574 . S
C1105 C1124 1.368 . S
C1105 H1129 0.949 . S
H1106 C1110 0.949 . S
C1107 C1108 1.349 . S
C1107 C1109 1.327 . S
C1107 H1130 0.950 . S
C1108 C1107 1.349 . S
C1108 C1120 1.349 . S
C1109 C1107 1.327 . S
C1109 C1125 1.429 . S
C1109 H1131 0.950 . S
C1110 H1106 0.949 . S
C1110 C1118 1.574 . S
C1110 C1126 1.368 . S
H1111 C1119 0.950 . S
H1112 C1117 0.950 . S
H1113 C1118 0.949 . S
H1114 C1120 0.950 . S
H1115 C1121 0.950 . S
H1116 C1122 0.949 . S
C1117 H1112 0.950 . S
C1117 C1119 1.327 . S
C1117 C1123 1.429 . S
C1118 C1110 1.574 . S
C1118 H1113 0.949 . S
C1118 C1124 1.368 . S
C1119 C1103 1.349 . S
C1119 H1111 0.950 . S
C1119 C1117 1.327 . S
C1120 C1108 1.349 . S
C1120 H1114 0.950 . S
C1120 C1121 1.327 . S
C1121 H1115 0.950 . S
C1121 C1120 1.327 . S
C1121 C1125 1.429 . S
C1122 C1105 1.574 . S
C1122 H1116 0.949 . S
C1122 C1126 1.368 . S
C1123 C1104 1.429 . S
C1123 C1117 1.429 . S
C1123 C1124 1.523 . S
C1124 C1105 1.368 . S
C1124 C1118 1.368 . S
C1124 C1123 1.523 . S
C1125 C1109 1.429 . S
C1125 C1121 1.429 . S
C1125 C1126 1.523 . S
C1126 C1110 1.368 . S
C1126 C1122 1.368 . S
C1126 C1125 1.523 . S
H1127 C1102 0.950 . S
H1128 C1104 0.950 . S
H1129 C1105 0.949 . S
H1130 C1107 0.950 . S
H1131 C1109 0.950 . S
C1132 C1133 1.349 . S
C1132 C1134 1.327 . S
C1132 H1157 0.950 . S
C1133 C1132 1.349 . S
C1133 C1149 1.349 . S
C1134 C1132 1.327 . S
C1134 C1153 1.429 . S
C1134 H1158 0.950 . S
C1135 C1152 1.574 . S
C1135 C1154 1.368 . S
C1135 H1159 0.949 . S
H1136 C1140 0.949 . S
C1137 C1138 1.349 . S
C1137 C1139 1.327 . S
C1137 H1160 0.950 . S
C1138 C1137 1.349 . S
C1138 C1150 1.349 . S
C1139 C1137 1.327 . S
C1139 C1155 1.429 . S
C1139 H1161 0.950 . S
C1140 H1136 0.949 . S
C1140 C1148 1.574 . S
C1140 C1156 1.368 . S
H1141 C1149 0.950 . S
H1142 C1147 0.950 . S
H1143 C1148 0.949 . S
H1144 C1150 0.950 . S
H1145 C1151 0.950 . S
H1146 C1152 0.949 . S
C1147 H1142 0.950 . S
C1147 C1149 1.327 . S
C1147 C1153 1.429 . S
C1148 C1140 1.574 . S
C1148 H1143 0.949 . S
C1148 C1154 1.368 . S
C1149 C1133 1.349 . S
C1149 H1141 0.950 . S
C1149 C1147 1.327 . S
C1150 C1138 1.349 . S
C1150 H1144 0.950 . S
C1150 C1151 1.327 . S
C1151 H1145 0.950 . S
C1151 C1150 1.327 . S
C1151 C1155 1.429 . S
C1152 C1135 1.574 . S
C1152 H1146 0.949 . S
C1152 C1156 1.368 . S
C1153 C1134 1.429 . S
C1153 C1147 1.429 . S
C1153 C1154 1.523 . S
C1154 C1135 1.368 . S
C1154 C1148 1.368 . S
C1154 C1153 1.523 . S
C1155 C1139 1.429 . S
C1155 C1151 1.429 . S
C1155 C1156 1.523 . S
C1156 C1140 1.368 . S
C1156 C1152 1.368 . S
C1156 C1155 1.523 . S
H1157 C1132 0.950 . S
H1158 C1134 0.950 . S
H1159 C1135 0.949 . S
H1160 C1137 0.950 . S
H1161 C1139 0.950 . S
C1162 C1163 1.349 . S
C1162 C1164 1.327 . S
C1162 H1187 0.950 . S
C1163 C1162 1.349 . S
C1163 C1179 1.349 . S
C1164 C1162 1.327 . S
C1164 C1183 1.429 . S
C1164 H1188 0.950 . S
C1165 C1182 1.574 . S
C1165 C1184 1.368 . S
C1165 H1189 0.949 . S
H1166 C1170 0.949 . S
C1167 C1168 1.349 . S
C1167 C1169 1.327 . S
C1167 H1190 0.950 . S
C1168 C1167 1.349 . S
C1168 C1180 1.349 . S
C1169 C1167 1.327 . S
C1169 C1185 1.429 . S
C1169 H1191 0.950 . S
C1170 H1166 0.949 . S
C1170 C1178 1.574 . S
C1170 C1186 1.368 . S
H1171 C1179 0.950 . S
H1172 C1177 0.950 . S
H1173 C1178 0.949 . S
H1174 C1180 0.950 . S
H1175 C1181 0.950 . S
H1176 C1182 0.949 . S
C1177 H1172 0.950 . S
C1177 C1179 1.327 . S
C1177 C1183 1.429 . S
C1178 C1170 1.574 . S
C1178 H1173 0.949 . S
C1178 C1184 1.368 . S
C1179 C1163 1.349 . S
C1179 H1171 0.950 . S
C1179 C1177 1.327 . S
C1180 C1168 1.349 . S
C1180 H1174 0.950 . S
C1180 C1181 1.327 . S
C1181 H1175 0.950 . S
C1181 C1180 1.327 . S
C1181 C1185 1.429 . S
C1182 C1165 1.574 . S
C1182 H1176 0.949 . S
C1182 C1186 1.368 . S
C1183 C1164 1.429 . S
C1183 C1177 1.429 . S
C1183 C1184 1.523 . S
C1184 C1165 1.368 . S
C1184 C1178 1.368 . S
C1184 C1183 1.523 . S
C1185 C1169 1.429 . S
C1185 C1181 1.429 . S
C1185 C1186 1.523 . S
C1186 C1170 1.368 . S
C1186 C1182 1.368 . S
C1186 C1185 1.523 . S
H1187 C1162 0.950 . S
H1188 C1164 0.950 . S
H1189 C1165 0.949 . S
H1190 C1167 0.950 . S
H1191 C1169 0.950 . S
C473 C1 1.233 . S
C478 C319 1.270 . S
C503 C40 0.954 . S
C508 C368 0.950 . S
C538 C394 2.438 . S
C533 C99 2.475 . S
C563 C118 2.312 . S
C568 C442 2.260 . S
C598 C354 2.527 . S
C593 C16 2.443 . S
C628 C322 0.902 . S
C623 C60 0.923 . S
C658 C443 1.875 . S
C653 C79 1.913 . S
C688 C411 1.479 . S
C683 C138 1.501 . S
C713 C21 1.724 . S
C718 C439 1.782 . S
C748 C371 2.333 . S
C743 C94 2.400 . S
C773 C133 2.317 . S
C778 C323 2.307 . S
C803 C55 0.723 . S
C808 C408 0.722 . S
C838 C328 1.274 . S
C833 C157 1.243 . S
C863 C196 0.955 . S
C868 C359 0.951 . S
C893 C255 2.473 . S
C898 C403 2.435 . S
C923 C289 2.308 . S
C928 C451 2.255 . S
C953 C172 2.434 . S
C958 C363 2.524 . S
C988 C331 0.902 . S
C983 C216 0.924 . S
C1018 C434 1.876 . S
C1013 C235 1.914 . S
C1048 C402 1.478 . S
C1043 C294 1.501 . S
C1073 C177 1.739 . S
C1078 C448 1.781 . S
C1108 C362 2.335 . S
C1103 C250 2.401 . S
C1138 C314 2.312 . S
C1133 C274 2.320 . S
C1163 C211 0.720 . S
C1168 C399 0.719 . S
