# Generated by pormake.
# Topology zzz, (3,6)-cn, num edge types: 1
# Building blocks:
#     Node 0, Type 0, BuildingBlock: BETDIP_clean_linker_0, # of connection points: 3
#     Node 1, Type 0, BuildingBlock: BETDIP_clean_linker_0, # of connection points: 3
#     Node 2, Type 0, BuildingBlock: BETDIP_clean_linker_0, # of connection points: 3
#     Node 3, Type 0, BuildingBlock: BETDIP_clean_linker_0, # of connection points: 3
#     Node 4, Type 0, BuildingBlock: BETDIP_clean_linker_0, # of connection points: 3
#     Node 5, Type 0, BuildingBlock: BETDIP_clean_linker_0, # of connection points: 3
#     Node 6, Type 0, BuildingBlock: BETDIP_clean_linker_0, # of connection points: 3
#     Node 7, Type 0, BuildingBlock: BETDIP_clean_linker_0, # of connection points: 3
#     Node 8, Type 1, BuildingBlock: NUHQIS_clean_sbu_0, # of connection points: 6
#     Node 9, Type 1, BuildingBlock: NUHQIS_clean_sbu_0, # of connection points: 6
#     Node 10, Type 1, BuildingBlock: NUHQIS_clean_sbu_0, # of connection points: 6
#     Node 11, Type 1, BuildingBlock: NUHQIS_clean_sbu_0, # of connection points: 6
#     Edge 12, Type (0, 1), BuildingBlock: EZIPEK_clean_linker_0, # of connection points: 2
#     Edge 13, Type (0, 1), BuildingBlock: EZIPEK_clean_linker_0, # of connection points: 2
#     Edge 14, Type (0, 1), BuildingBlock: EZIPEK_clean_linker_0, # of connection points: 2
#     Edge 15, Type (0, 1), BuildingBlock: EZIPEK_clean_linker_0, # of connection points: 2
#     Edge 16, Type (0, 1), BuildingBlock: EZIPEK_clean_linker_0, # of connection points: 2
#     Edge 17, Type (0, 1), BuildingBlock: EZIPEK_clean_linker_0, # of connection points: 2
#     Edge 18, Type (0, 1), BuildingBlock: EZIPEK_clean_linker_0, # of connection points: 2
#     Edge 19, Type (0, 1), BuildingBlock: EZIPEK_clean_linker_0, # of connection points: 2
#     Edge 20, Type (0, 1), BuildingBlock: EZIPEK_clean_linker_0, # of connection points: 2
#     Edge 21, Type (0, 1), BuildingBlock: EZIPEK_clean_linker_0, # of connection points: 2
#     Edge 22, Type (0, 1), BuildingBlock: EZIPEK_clean_linker_0, # of connection points: 2
#     Edge 23, Type (0, 1), BuildingBlock: EZIPEK_clean_linker_0, # of connection points: 2
#     Edge 24, Type (0, 1), BuildingBlock: EZIPEK_clean_linker_0, # of connection points: 2
#     Edge 25, Type (0, 1), BuildingBlock: EZIPEK_clean_linker_0, # of connection points: 2
#     Edge 26, Type (0, 1), BuildingBlock: EZIPEK_clean_linker_0, # of connection points: 2
#     Edge 27, Type (0, 1), BuildingBlock: EZIPEK_clean_linker_0, # of connection points: 2
#     Edge 28, Type (0, 1), BuildingBlock: EZIPEK_clean_linker_0, # of connection points: 2
#     Edge 29, Type (0, 1), BuildingBlock: EZIPEK_clean_linker_0, # of connection points: 2
#     Edge 30, Type (0, 1), BuildingBlock: EZIPEK_clean_linker_0, # of connection points: 2
#     Edge 31, Type (0, 1), BuildingBlock: EZIPEK_clean_linker_0, # of connection points: 2
#     Edge 32, Type (0, 1), BuildingBlock: EZIPEK_clean_linker_0, # of connection points: 2
#     Edge 33, Type (0, 1), BuildingBlock: EZIPEK_clean_linker_0, # of connection points: 2
#     Edge 34, Type (0, 1), BuildingBlock: EZIPEK_clean_linker_0, # of connection points: 2
#     Edge 35, Type (0, 1), BuildingBlock: EZIPEK_clean_linker_0, # of connection points: 2
# Relax obj value: 0.345
# Max RMSD: 0.178
# Mean RMSD: 0.137
data_MOF--net-zzz--node1-NUHQIS_clean_sbu_0--node2-BETDIP_clean_linker_0--edge1-EZIPEK_clean_linker_0
_symmetry_space_group_name_H-M    P1
_symmetry_Int_Tables_number       1
_symmetry_cell_setting            triclinic
loop_
_symmetry_equiv_pos_as_xyz
'x, y, z'
_cell_length_a     38.541505
_cell_length_b     38.548092
_cell_length_c     10.589704
_cell_angle_alpha  89.98558
_cell_angle_beta   90.149627
_cell_angle_gamma 90.256421
loop_
_atom_site_label
_atom_site_type_symbol
_atom_site_fract_x
_atom_site_fract_y
_atom_site_fract_z
_atom_type_partial_charge
H0 H 0.78741 0.50122 0.55207 0.0
H1 H 0.76468 0.56364 0.22421 0.0
H2 H 0.86889 0.55738 0.36589 0.0
H3 H 0.70911 0.56697 0.339 0.0
C4 C 0.70829 0.53902 0.32555 0.0
C5 C 0.79563 0.51946 0.4803 0.0
C6 C 0.83115 0.53039 0.47538 0.0
C7 C 0.77098 0.53211 0.39003 0.0
C8 C 0.78267 0.55493 0.29593 0.0
C9 C 0.818 0.56213 0.2798 0.0
C10 C 0.84145 0.55173 0.37502 0.0
N11 N 0.7359 0.51896 0.38152 0.0
H12 H 0.02833 0.75055 0.49372 0.0
H13 H 0.9605 0.74592 0.16683 0.0
H14 H 0.9687 0.83888 0.38684 0.0
H15 H 1.01529 0.71694 0.09586 0.0
C16 C 1.0121 0.697 0.1675 0.0
C17 C 1.00973 0.76264 0.43109 0.0
C18 C 0.99918 0.79762 0.45337 0.0
C19 C 0.99639 0.74381 0.32422 0.0
C20 C 0.97154 0.75998 0.24576 0.0
C21 C 0.96086 0.7941 0.2687 0.0
C22 C 0.97536 0.81212 0.37076 0.0
N23 N 1.00722 0.70889 0.29548 0.0
H24 H 0.75899 0.98178 0.47985 0.0
H25 H 0.79101 0.07017 0.25682 0.0
H26 H 0.69075 0.06885 0.42528 0.0
H27 H 0.80716 0.02414 0.12016 0.0
C28 C 0.82343 1.01109 0.18917 0.0
C29 C 0.75371 1.00701 0.43942 0.0
C30 C 0.72172 0.02417 0.46768 0.0
C31 C 0.77848 0.02276 0.35614 0.0
C32 C 0.77195 0.05655 0.31268 0.0
C33 C 0.74008 0.07247 0.33295 0.0
C34 C 0.71532 0.05612 0.40904 0.0
N35 N 0.80941 1.00523 0.31387 0.0
H36 H 0.54302 0.7379 0.4754 0.0
H37 H 0.46378 0.75833 0.19419 0.0
H38 H 0.46528 0.66093 0.38398 0.0
H39 H 0.47324 0.81224 0.24458 0.0
C40 C 0.50136 0.81394 0.2433 0.0
C41 C 0.52046 0.72986 0.42159 0.0
C42 C 0.50568 0.69625 0.4424 0.0
C43 C 0.50555 0.75311 0.33143 0.0
C44 C 0.47574 0.74206 0.26496 0.0
C45 C 0.46148 0.70915 0.28393 0.0
C46 C 0.47666 0.68648 0.37064 0.0
N47 N 0.52055 0.78681 0.30561 0.0
H48 H 0.26869 0.46615 0.15679 0.0
H49 H 0.32099 0.5559 0.30938 0.0
H50 H 0.22089 0.56647 0.13635 0.0
H51 H 0.37019 0.52029 0.23071 0.0
C52 C 0.36164 0.50137 0.30017 0.0
C53 C 0.26937 0.49376 0.17521 0.0
C54 C 0.24115 0.51505 0.1343 0.0
C55 C 0.29874 0.50868 0.23867 0.0
C56 C 0.29895 0.54456 0.262 0.0
C57 C 0.27055 0.56543 0.23124 0.0
C58 C 0.24266 0.55051 0.16369 0.0
N59 N 0.32677 0.48796 0.28833 0.0
H60 H 0.0472 0.23797 0.11506 0.0
H61 H 0.9605 0.27097 0.3453 0.0
H62 H 0.9598 0.1704 0.17797 0.0
H63 H 0.98017 0.32427 0.29455 0.0
C64 C 1.00755 0.3213 0.31596 0.0
C65 C 0.02215 0.233 0.15747 0.0
C66 C 1.00458 0.20084 0.13243 0.0
C67 C 1.00664 0.25891 0.23666 0.0
C68 C 0.97334 0.25215 0.28619 0.0
C69 C 0.95713 0.21999 0.26836 0.0
C70 C 0.97288 0.19496 0.19266 0.0
N71 N 0.0249 0.29033 0.2728 0.0
H72 H 0.27832 1.00723 0.1047 0.0
H73 H 0.25421 0.07505 0.41544 0.0
H74 H 0.35693 0.0735 0.26406 0.0
H75 H 0.23112 0.02301 0.48923 0.0
C76 C 0.21381 0.01958 0.40895 0.0
C77 C 0.28595 0.02723 0.17105 0.0
C78 C 0.32059 0.04088 0.16852 0.0
C79 C 0.26182 0.03885 0.26429 0.0
C80 C 0.27231 0.06524 0.34711 0.0
C81 C 0.30691 0.07571 0.35656 0.0
C82 C 0.33011 0.06506 0.26151 0.0
N83 N 0.22823 0.02294 0.28353 0.0
H84 H 0.52115 0.26501 0.15541 0.0
H85 H 0.59458 0.2388 0.44945 0.0
H86 H 0.59698 0.33973 0.28567 0.0
H87 H 0.54063 0.21876 0.54074 0.0
C88 C 0.53553 0.20171 0.46108 0.0
C89 C 0.54245 0.27223 0.21698 0.0
C90 C 0.55818 0.30578 0.20546 0.0
C91 C 0.55421 0.24839 0.31126 0.0
C92 C 0.58367 0.25713 0.38311 0.0
C93 C 0.59883 0.28979 0.3734 0.0
C94 C 0.58524 0.31413 0.28926 0.0
N95 N 0.53699 0.21588 0.33543 0.0
Tb96 Tb 0.03734 0.98819 0.90811 0.0
Eu97 Eu 0.99399 1.01047 0.65973 0.0
C98 C 0.07797 1.00456 0.64901 0.0
C99 C 0.02025 0.06919 0.86011 0.0
C100 C 0.03764 0.95446 0.21439 0.0
C101 C 1.01592 0.89697 0.26114 0.0
C102 C 0.04384 0.91979 0.24681 0.0
C103 C 1.00358 0.96729 0.22625 0.0
C104 C 0.97566 0.94421 0.23433 0.0
C105 C 0.9818 0.9085 0.2384 0.0
C106 C 0.06067 0.97099 0.12049 0.0
O107 O 0.98234 0.97686 0.95112 0.0
O108 O 0.95799 1.01778 0.82603 0.0
O109 O 0.99609 0.95128 0.64829 0.0
O110 O 0.03506 0.93838 0.80565 0.0
C111 C 0.95599 0.99714 0.92398 0.0
O112 O 0.94482 1.00551 0.55844 0.0
O113 O 0.98664 0.03632 0.47896 0.0
O114 O 0.04853 1.00384 0.58595 0.0
O115 O 0.07883 1.00329 0.77424 0.0
O116 O 0.02686 0.04367 0.93916 0.0
O117 O 1.01193 0.06256 0.74148 0.0
C118 C 1.01582 0.92878 0.7085 0.0
O119 O 0.06542 0.95258 0.019 0.0
O120 O 0.05344 1.00291 0.09121 0.0
C121 C 0.92998 0.05682 0.44679 0.0
C122 C 0.89339 0.11944 0.41655 0.0
C123 C 0.88392 0.09604 0.51232 0.0
C124 C 0.90223 0.06494 0.52784 0.0
C125 C 0.93742 0.07884 0.34575 0.0
C126 C 0.91933 0.10964 0.33059 0.0
C127 C 0.95384 0.02787 0.47185 0.0
H128 H 0.02133 0.8695 0.26885 0.0
H129 H 0.06972 0.90913 0.24014 0.0
H130 H 0.99788 0.99428 0.20701 0.0
H131 H 0.94976 0.95412 0.22247 0.0
H132 H 0.86347 0.10229 0.57812 0.0
H133 H 0.89573 0.04818 0.60649 0.0
H134 H 0.9587 0.07316 0.28243 0.0
H135 H 0.9272 0.1268 0.25535 0.0
Tb136 Tb 0.53779 0.02748 0.95992 0.0
Eu137 Eu 0.51014 0.98414 0.71945 0.0
C138 C 0.52217 0.06633 0.70209 0.0
C139 C 0.45505 1.0141 0.92843 0.0
C140 C 0.58576 0.09209 0.15356 0.0
C141 C 0.63462 0.11219 0.27626 0.0
C142 C 0.606 0.09053 0.26239 0.0
C143 C 0.59335 0.11705 0.0606 0.0
C144 C 0.62233 0.13882 0.07413 0.0
C145 C 0.64421 0.13566 0.18005 0.0
C146 C 0.55849 0.06586 0.13701 0.0
O147 O 0.52758 0.97602 0.04085 0.0
O148 O 0.52794 0.94324 0.86051 0.0
O149 O 0.56693 0.99304 0.67252 0.0
O150 O 0.58647 1.00986 0.8687 0.0
C151 C 0.52777 0.94555 0.98457 0.0
O152 O 0.4872 0.93658 0.64214 0.0
O153 O 0.49839 0.97956 0.51789 0.0
O154 O 0.5011 0.04088 0.67068 0.0
O155 O 0.54321 0.06288 0.79887 0.0
O156 O 0.48096 0.02957 0.98772 0.0
O157 O 0.46063 0.99517 0.8278 0.0
C158 C 0.59257 1.00158 0.74924 0.0
O159 O 0.53306 0.07383 0.06124 0.0
O160 O 0.5692 0.0341 0.12036 0.0
C161 C 0.44126 0.95923 0.52076 0.0
C162 C 0.38601 1.00597 0.54066 0.0
C163 C 0.40201 1.00025 0.42315 0.0
C164 C 0.4303 0.97794 0.41441 0.0
C165 C 0.42023 0.95954 0.62945 0.0
C166 C 0.39431 0.98433 0.64225 0.0
C167 C 0.47864 0.95253 0.53798 0.0
H168 H 0.65047 0.10873 0.35945 0.0
H169 H 0.60068 0.07116 0.33387 0.0
H170 H 0.57784 0.11876 0.97538 0.0
H171 H 0.62833 0.15688 0.99921 0.0
H172 H 0.39566 1.0164 0.34266 0.0
H173 H 0.44618 0.97912 0.33056 0.0
H174 H 0.42721 0.94465 0.71233 0.0
H175 H 0.38274 0.98824 0.73418 0.0
Tb176 Tb 0.50945 0.5119 0.92755 0.0
Eu177 Eu 0.56028 0.49241 0.70107 0.0
C178 C 0.47789 0.49187 0.65952 0.0
C179 C 0.53914 0.43364 0.90917 0.0
C180 C 0.43704 0.55239 0.10386 0.0
C181 C 0.39622 0.59169 1.00449 0.0
C182 C 0.41774 0.56266 0.99784 0.0
C183 C 0.43181 0.56894 0.21936 0.0
C184 C 0.41066 0.59805 0.22597 0.0
C185 C 0.39446 0.61139 0.11628 0.0
C186 C 0.46544 0.52744 0.09342 0.0
O187 O 0.55925 0.50429 0.0263 0.0
O188 O 0.5951 0.51352 0.85875 0.0
O189 O 0.53807 0.54473 0.6492 0.0
O190 O 0.52623 0.56261 0.84946 0.0
C191 C 0.59053 0.51049 0.98141 0.0
O192 O 0.60856 0.50448 0.60265 0.0
O193 O 0.57336 0.46623 0.52536 0.0
O194 O 0.50642 0.47416 0.63948 0.0
O195 O 0.47697 0.51354 0.75543 0.0
O196 O 0.51527 0.45531 0.95065 0.0
O197 O 0.56103 0.44312 0.81961 0.0
C198 C 0.53091 0.56975 0.72861 0.0
O199 O 0.46128 0.50237 0.01215 0.0
O200 O 0.49653 0.5409 0.08832 0.0
C201 C 0.63257 0.45625 0.49631 0.0
C202 C 0.66765 0.39314 0.50103 0.0
C203 C 0.67587 0.41867 0.59076 0.0
C204 C 0.65767 0.44998 0.59024 0.0
C205 C 0.63039 0.43401 0.39228 0.0
C206 C 0.6478 0.40252 0.39467 0.0
C207 C 0.60397 0.48058 0.51728 0.0
H208 H 0.38318 0.59997 0.91943 0.0
H209 H 0.42096 0.54969 0.90793 0.0
H210 H 0.44609 0.56093 0.30267 0.0
H211 H 0.41009 0.61185 0.31492 0.0
H212 H 0.6927 0.41273 0.66982 0.0
H213 H 0.66079 0.46751 0.66932 0.0
H214 H 0.61197 0.43894 0.31685 0.0
H215 H 0.64197 0.38378 0.32134 0.0
Tb216 Tb 0.0233 0.4773 0.90863 0.0
Eu217 Eu 0.04914 0.52179 0.67643 0.0
C218 C 0.03626 0.4404 0.64679 0.0
C219 C 0.10385 0.49538 0.89016 0.0
C220 C 0.95866 0.44715 0.10613 0.0
C221 C 0.91947 0.48814 0.20261 0.0
C222 C 0.94788 0.46596 0.21223 0.0
C223 C 0.93662 0.44579 0.99969 0.0
C224 C 0.90948 0.46925 0.98759 0.0
C225 C 0.90165 0.49165 0.0872 0.0
C226 C 0.99621 0.44359 0.0843 0.0
O227 O 1.00639 0.53091 0.94987 0.0
O228 O 0.04933 0.55871 0.84341 0.0
O229 O 0.99032 0.52656 0.65842 0.0
O230 O 0.97488 0.48374 0.79792 0.0
C231 C 0.02507 0.5591 0.93005 0.0
O232 O 0.0532 0.57099 0.57579 0.0
O233 O 0.07787 0.52486 0.50048 0.0
O234 O 0.0312 0.47055 0.59256 0.0
O235 O 0.04296 0.43937 0.7691 0.0
O236 O 0.07697 0.49052 0.96486 0.0
O237 O 0.09854 0.50039 0.76841 0.0
C238 C 0.96652 0.50643 0.70974 0.0
O239 O 1.00496 0.42931 0.9777 0.0
O240 O 1.01373 0.47213 0.1033 0.0
C241 C 0.106 0.57816 0.46262 0.0
C242 C 0.16944 0.61127 0.41141 0.0
C243 C 0.15838 0.58277 0.33913 0.0
C244 C 0.12692 0.56656 0.36373 0.0
C245 C 0.11599 0.60785 0.5315 0.0
C246 C 0.14749 0.62459 0.5049 0.0
C247 C 0.07429 0.55841 0.49139 0.0
H248 H 0.91358 0.50508 0.28121 0.0
H249 H 0.96412 0.46734 0.29579 0.0
H250 H 0.94346 0.43068 0.91732 0.0
H251 H 0.89631 0.47152 0.89747 0.0
H252 H 0.17465 0.57216 0.26601 0.0
H253 H 0.11942 0.54418 0.30773 0.0
H254 H 0.09995 0.61768 0.60716 0.0
H255 H 0.15531 0.64693 0.56024 0.0
C256 C 0.15634 0.9869 0.42946 0.0
C257 C 0.17566 1.01813 0.44226 0.0
C258 C 0.13085 0.04061 0.58805 0.0
C259 C 0.11126 1.00944 0.57498 0.0
N260 N 0.10173 0.95624 0.45949 0.0
N261 N 0.17667 0.07784 0.50643 0.0
C262 C 0.12281 0.98372 0.48766 0.0
C263 C 0.16147 0.04584 0.51389 0.0
N264 N 0.17073 0.95964 0.36636 0.0
N265 N 0.12013 0.06548 0.67113 0.0
H266 H 0.19757 0.08281 0.44691 0.0
H267 H 0.16641 0.10016 0.54675 0.0
H268 H 0.09648 0.06424 0.71846 0.0
H269 H 0.13539 0.08656 0.69816 0.0
H270 H 0.16044 0.93463 0.36684 0.0
H271 H 0.19433 0.96168 0.3188 0.0
H272 H 0.10728 0.93819 0.38955 0.0
H273 H 0.07729 0.95281 0.49936 0.0
C274 C 0.49797 0.15159 0.53014 0.0
C275 C 0.53109 0.16388 0.49267 0.0
C276 C 0.55713 0.10969 0.57302 0.0
C277 C 0.52444 0.09887 0.62218 0.0
N278 N 0.46462 0.11254 0.66293 0.0
N279 N 0.5929 0.15619 0.48747 0.0
C280 C 0.49497 0.12046 0.60339 0.0
C281 C 0.56085 0.14324 0.51644 0.0
N282 N 0.46923 0.16997 0.49587 0.0
N283 N 0.5845 0.08733 0.57734 0.0
H284 H 0.5963 0.17873 0.43454 0.0
H285 H 0.61602 0.14555 0.51998 0.0
H286 H 0.58182 0.06168 0.60651 0.0
H287 H 0.60911 0.09289 0.54272 0.0
H288 H 0.44397 0.16141 0.5113 0.0
H289 H 0.47072 0.19264 0.44217 0.0
H290 H 0.44371 0.12946 0.66903 0.0
H291 H 0.46091 0.08951 0.71225 0.0
C292 C 0.4218 0.48058 0.35577 0.0
C293 C 0.38842 0.49065 0.39806 0.0
C294 C 0.41212 0.49196 0.61545 0.0
C295 C 0.44687 0.48916 0.56937 0.0
N296 N 0.48377 0.48683 0.38431 0.0
N297 N 0.35287 0.50967 0.57138 0.0
C298 C 0.45145 0.48462 0.43648 0.0
C299 C 0.3838 0.49716 0.52904 0.0
N300 N 0.42521 0.46696 0.23755 0.0
N301 N 0.40572 0.48805 0.74138 0.0
H302 H 0.33148 0.51324 0.51246 0.0
H303 H 0.34937 0.5188 0.66308 0.0
H304 H 0.42497 0.48127 0.80595 0.0
H305 H 0.38076 0.48714 0.77886 0.0
H306 H 0.44803 0.4554 0.20627 0.0
H307 H 0.4041 0.46387 0.1765 0.0
H308 H 0.48825 0.48518 0.28764 0.0
H309 H 0.50574 0.49452 0.43439 0.0
C310 C 0.04428 0.37499 0.36965 0.0
C311 C 0.02216 0.34748 0.40951 0.0
C312 C 1.00961 0.38041 0.60487 0.0
C313 C 0.03311 0.40728 0.56881 0.0
N314 N 0.07825 0.42609 0.42683 0.0
N315 N 0.9906 0.32061 0.57886 0.0
C316 C 0.05206 0.40331 0.45397 0.0
C317 C 1.0072 0.34918 0.53183 0.0
N318 N 0.05676 0.37485 0.24911 0.0
N319 N 0.98748 0.3856 0.70355 0.0
H320 H 0.98888 0.29737 0.52873 0.0
H321 H 0.98198 0.31876 0.67179 0.0
H322 H 0.98679 0.40862 0.75473 0.0
H323 H 0.96724 0.36871 0.72585 0.0
H324 H 0.06931 0.396 0.2081 0.0
H325 H 0.05266 0.35409 0.18753 0.0
H326 H 0.09516 0.42297 0.3512 0.0
H327 H 0.08521 0.44639 0.48703 0.0
C328 C 0.87393 0.97302 0.12049 0.0
C329 C 0.86094 1.00649 0.14992 0.0
C330 C 0.9134 0.03251 0.05282 0.0
C331 C 0.92446 0.99937 0.00988 0.0
N332 N 0.91322 0.93795 0.99457 0.0
N333 N 0.8674 0.06849 0.13653 0.0
C334 C 0.90427 0.96953 0.04245 0.0
C335 C 0.88053 0.03626 0.11372 0.0
N336 N 0.8569 0.94451 0.16593 0.0
N337 N 0.93508 0.06044 0.03949 0.0
H338 H 0.84588 0.07247 0.19363 0.0
H339 H 0.87696 0.09112 0.0955 0.0
H340 H 0.96049 0.05814 0.00771 0.0
H341 H 0.92954 0.08535 0.07078 0.0
H342 H 0.866 0.91927 0.15719 0.0
H343 H 0.83469 0.94641 0.22154 0.0
H344 H 0.89785 0.91579 1.00163 0.0
H345 H 0.93546 0.93421 0.94113 0.0
C346 C 0.54121 0.85124 0.1023 0.0
C347 C 0.51539 0.84848 0.19767 0.0
C348 C 0.4983 0.90898 0.15479 0.0
C349 C 0.52514 0.91271 0.06348 0.0
N350 N 0.57708 0.88905 0.97175 0.0
N351 N 0.47601 0.87783 0.33643 0.0
C352 C 0.54813 0.88429 0.04388 0.0
C353 C 0.49628 0.87846 0.2307 0.0
N354 N 0.55782 0.82208 0.06213 0.0
N355 N 0.4729 0.93337 0.1639 0.0
H356 H 0.47506 0.85655 0.39731 0.0
H357 H 0.46291 0.89942 0.37031 0.0
H358 H 0.47311 0.95665 0.1144 0.0
H359 H 0.44962 0.92864 0.21073 0.0
H360 H 0.57376 0.82152 0.98289 0.0
H361 H 0.55384 0.79784 0.10327 0.0
H362 H 0.59655 0.87055 0.96326 0.0
H363 H 0.58328 0.91282 0.93019 0.0
C364 C 0.68294 0.50661 0.13326 0.0
C365 C 0.67794 0.52526 0.24778 0.0
C366 C 0.61722 0.53659 0.182 0.0
C367 C 0.62106 0.51552 0.07227 0.0
N368 N 0.65759 0.47617 0.95461 0.0
N369 N 0.63788 0.55175 0.39165 0.0
C370 C 0.65392 0.49926 0.05139 0.0
C371 C 0.64425 0.53807 0.27508 0.0
N372 N 0.71575 0.49764 0.09781 0.0
N373 N 0.58886 0.55754 0.19346 0.0
H374 H 0.65673 0.55298 0.46248 0.0
H375 H 0.61308 0.55808 0.42247 0.0
H376 H 0.5698 0.55961 0.12398 0.0
H377 H 0.58628 0.57606 0.26436 0.0
H378 H 0.72187 0.48841 0.00821 0.0
H379 H 0.73747 0.5018 0.15447 0.0
H380 H 0.6791 0.46015 0.94472 0.0
H381 H 0.63814 0.47084 0.88919 0.0
C382 C 0.02487 0.63084 0.18585 0.0
C383 C 1.01038 0.65956 0.11965 0.0
C384 C 1.00364 0.62165 0.93122 0.0
C385 C 1.01727 0.59282 0.99841 0.0
N386 N 0.03169 0.56826 0.20046 0.0
N387 N 0.97562 0.6778 0.94189 0.0
C388 C 0.02467 0.59686 0.12928 0.0
C389 C 0.99674 0.65354 0.99598 0.0
N390 N 0.04127 0.63602 0.29857 0.0
N391 N 0.99722 0.6188 0.80468 0.0
H392 H 0.96818 0.70045 0.98818 0.0
H393 H 0.96212 0.67365 0.85785 0.0
H394 H 0.99956 0.59554 0.7553 0.0
H395 H 0.99158 0.63999 0.74725 0.0
H396 H 0.05535 0.61675 0.34386 0.0
H397 H 0.04376 0.66016 0.34139 0.0
H398 H 0.03147 0.56891 0.29859 0.0
H399 H 0.03392 0.54344 0.16235 0.0
C400 C 0.89587 0.19911 0.25449 0.0
C401 C 0.924 0.21036 0.33153 0.0
C402 C 0.89949 0.1774 0.50622 0.0
C403 C 0.88236 0.15644 0.4169 0.0
N404 N 0.85051 0.15529 0.22411 0.0
N405 N 0.94902 0.21473 0.54095 0.0
C406 C 0.87477 0.17115 0.29814 0.0
C407 C 0.924 0.20203 0.46212 0.0
N408 N 0.89157 0.21345 0.13779 0.0
N409 N 0.8933 0.17259 0.63141 0.0
H410 H 0.96746 0.23297 0.51363 0.0
H411 H 0.95228 0.20591 0.63287 0.0
H412 H 0.87499 0.15459 0.66278 0.0
H413 H 0.90289 0.18931 0.70054 0.0
H414 H 0.87178 0.2066 0.07555 0.0
H415 H 0.90738 0.23381 0.10676 0.0
H416 H 0.84472 0.16258 0.1319 0.0
H417 H 0.83594 0.13446 0.25904 0.0
C418 C 0.30972 0.06642 0.58175 0.0
C419 C 0.32003 0.08834 0.48251 0.0
C420 C 0.37904 0.0705 0.51836 0.0
C421 C 0.36511 0.03783 0.55911 0.0
N422 N 0.3152 1.00692 0.64712 0.0
N423 N 0.36514 0.12899 0.44251 0.0
C424 C 0.33006 0.03654 0.60181 0.0
C425 C 0.35526 0.09733 0.48634 0.0
N426 N 0.27969 0.07243 0.64471 0.0
N427 N 0.41386 0.07452 0.50136 0.0
H428 H 0.34652 0.14685 0.41247 0.0
H429 H 0.39071 0.13767 0.44073 0.0
H430 H 0.43159 0.0559 0.53189 0.0
H431 H 0.42494 0.09599 0.45737 0.0
H432 H 0.27168 0.05721 0.72082 0.0
H433 H 0.26483 0.09438 0.62473 0.0
H434 H 0.28884 1.0054 0.66862 0.0
H435 H 0.32817 0.98339 0.65341 0.0
C436 C 0.62275 0.31396 0.57235 0.0
C437 C 0.62905 0.30002 0.45153 0.0
C438 C 0.68245 0.3339 0.43576 0.0
C439 C 0.66938 0.35554 0.53164 0.0
N440 N 0.63437 0.36076 0.71862 0.0
N441 N 0.66912 0.2881 0.28441 0.0
C442 C 0.64293 0.34275 0.61256 0.0
C443 C 0.66108 0.30643 0.39047 0.0
N444 N 0.59686 0.30046 0.64541 0.0
N445 N 0.7133 0.34244 0.38118 0.0
H446 H 0.6535 0.2676 0.2531 0.0
H447 H 0.6908 0.29289 0.2287 0.0
H448 H 0.72779 0.3636 0.41396 0.0
H449 H 0.72514 0.32794 0.31067 0.0
H450 H 0.59242 0.30777 0.73856 0.0
H451 H 0.58162 0.27958 0.61592 0.0
H452 H 0.61091 0.35768 0.76559 0.0
H453 H 0.65093 0.37905 0.75905 0.0
C454 C 0.2643 0.60289 0.41921 0.0
C455 C 0.26646 0.60103 0.28646 0.0
C456 C 0.21441 0.6361 0.27031 0.0
C457 C 0.20541 0.62392 0.39231 0.0
N458 N 0.22507 0.60441 0.59698 0.0
N459 N 0.25566 0.63197 0.09575 0.0
C460 C 0.23179 0.61109 0.47302 0.0
C461 C 0.24625 0.62473 0.21678 0.0
N462 N 0.293 0.59739 0.49156 0.0
N463 N 0.19099 0.65528 0.20397 0.0
H464 H 0.27859 0.62186 0.0585 0.0
H465 H 0.24184 0.64818 0.03553 0.0
H466 H 0.16764 0.66305 0.24487 0.0
H467 H 0.19495 0.66412 0.11229 0.0
H468 H 0.29319 0.60008 0.58944 0.0
H469 H 0.31749 0.59483 0.45135 0.0
H470 H 0.24238 0.59147 0.65593 0.0
H471 H 0.20188 0.61146 0.63991 0.0
C472 C 0.95773 0.82726 0.07643 0.0
C473 C 0.93875 0.81411 0.17881 0.0
C474 C 0.92645 0.8724 0.25213 0.0
C475 C 0.95644 0.88314 0.18463 0.0
N476 N 0.99107 0.8764 0.99739 0.0
N477 N 0.88672 0.82416 0.29426 0.0
C478 C 0.96799 0.86266 0.0812 0.0
C479 C 0.91544 0.83727 0.23702 0.0
N480 N 0.9685 0.80505 0.98485 0.0
N481 N 0.91218 0.8933 0.34163 0.0
H482 H 0.88116 0.79762 0.28949 0.0
H483 H 0.86798 0.83957 0.33697 0.0
H484 H 0.92074 0.91861 0.35697 0.0
H485 H 0.89258 0.88517 0.40246 0.0
H486 H 0.98367 0.81237 0.90824 0.0
H487 H 0.96039 0.77917 0.98457 0.0
H488 H 1.00402 0.86196 0.92955 0.0
H489 H 0.99734 0.90279 0.99829 0.0
C490 C 0.72453 0.10706 0.13868 0.0
C491 C 0.73096 0.10583 0.271 0.0
C492 C 0.69469 0.15711 0.2994 0.0
C493 C 0.68039 0.14969 0.17975 0.0
N494 N 0.69984 0.14124 0.9678 0.0
N495 N 0.73335 0.13726 0.4673 0.0
C496 C 0.70219 0.13322 0.0926 0.0
C497 C 0.72047 0.1342 0.34773 0.0
N498 N 0.73683 0.08212 0.05947 0.0
N499 N 0.67958 0.18226 0.37047 0.0
H500 H 0.75232 0.12039 0.50144 0.0
H501 H 0.72651 0.15691 0.52961 0.0
H502 H 0.65951 0.19729 0.33303 0.0
H503 H 0.68687 0.18836 0.4625 0.0
H504 H 0.72992 0.08077 0.96478 0.0
H505 H 0.75267 0.06186 0.08819 0.0
H506 H 0.71651 0.13111 0.89997 0.0
H507 H 0.68367 0.16113 0.9365 0.0
C508 C 0.43196 0.68956 0.08305 0.0
C509 C 0.43016 0.69754 0.21391 0.0
C510 C 0.37616 0.66434 0.22865 0.0
C511 C 0.38473 0.64897 0.11239 0.0
N512 N 0.39854 0.66874 0.90387 0.0
N513 N 0.39331 0.70115 0.39974 0.0
C514 C 0.40501 0.66922 0.03009 0.0
C515 C 0.39953 0.68866 0.28194 0.0
N516 N 0.46 0.6987 0.012 0.0
N517 N 0.34857 0.65203 0.29478 0.0
H518 H 0.40942 0.7192 0.44465 0.0
H519 H 0.40942 0.7192 0.44465 0.0
H520 H 0.3325 0.63283 0.25636 0.0
H521 H 0.34213 0.66132 0.38428 0.0
H522 H 0.46321 0.69002 0.91964 0.0
H523 H 0.48094 0.71286 0.04727 0.0
H524 H 0.41157 0.68489 0.84063 0.0
H525 H 0.3773 0.6552 0.86702 0.0
C526 C 0.82016 0.54524 0.06029 0.0
C527 C 0.83104 0.56991 0.14943 0.0
C528 C 0.89042 0.55556 0.09791 0.0
C529 C 0.87804 0.52147 0.069 0.0
N530 N 0.82888 0.48514 0.00746 0.0
N531 N 0.87517 0.61195 0.18813 0.0
C532 C 0.84229 0.51671 0.03978 0.0
C533 C 0.86588 0.58057 0.13961 0.0
N534 N 0.78817 0.54813 0.00759 0.0
N535 N 0.92502 0.56291 0.09095 0.0
H536 H 0.85628 0.62873 0.22329 0.0
H537 H 0.90061 0.62096 0.19391 0.0
H538 H 0.94284 0.54465 0.05872 0.0
H539 H 0.93563 0.58728 0.10901 0.0
H540 H 0.77875 0.53118 0.93861 0.0
H541 H 0.77875 0.53118 0.93861 0.0
H542 H 0.80226 0.48076 0.99888 0.0
H543 H 0.84377 0.46281 0.99955 0.0
C544 C 0.04318 0.14923 0.06735 0.0
C545 C 1.01568 0.17252 0.03984 0.0
C546 C 0.99178 0.12914 0.88871 0.0
C547 C 0.02015 0.1063 0.91171 0.0
N548 N 0.07753 0.09978 1.00018 0.0
N549 N 0.96902 0.18784 0.90073 0.0
C550 C 0.04728 0.11802 0.99403 0.0
C551 C 0.99208 0.16348 0.94133 0.0
N552 N 0.06444 0.15584 0.16782 0.0
N553 N 0.96315 0.11747 0.82472 0.0
H554 H 0.96932 0.21332 0.93418 0.0
H555 H 0.95169 0.1837 0.82723 0.0
H556 H 0.96064 0.09241 0.78944 0.0
H557 H 0.9401 0.13134 0.81819 0.0
H558 H 0.08217 0.13791 0.20291 0.0
H559 H 0.06272 0.17849 0.2212 0.0
H560 H 0.0994 0.10853 0.04887 0.0
H561 H 0.08202 0.07774 0.94566 0.0
C562 C 0.36667 0.05655 0.00842 0.0
C563 C 0.34949 0.03009 0.07842 0.0
C564 C 0.39754 0.99067 0.01994 0.0
C565 C 0.41789 0.01913 0.97452 0.0
N566 N 0.42143 0.08093 0.93902 0.0
N567 N 0.35178 0.97199 0.16231 0.0
C568 C 0.40223 0.05255 0.97221 0.0
C569 C 0.36559 0.99697 0.08592 0.0
N570 N 0.3488 0.08582 0.97704 0.0
N571 N 0.4084 0.95747 1.00047 0.0
H572 H 0.32872 0.97533 0.21183 0.0
H573 H 0.36471 0.94905 0.18409 0.0
H574 H 0.43133 0.95149 0.95371 0.0
H575 H 0.39303 0.93588 0.02067 0.0
H576 H 0.35855 0.10474 0.91623 0.0
H577 H 0.32276 0.08913 1.00101 0.0
H578 H 0.41241 0.10626 0.94756 0.0
H579 H 0.44746 0.07947 0.91411 0.0
C580 C 0.51681 0.34945 0.09549 0.0
C581 C 0.54975 0.33303 0.10538 0.0
C582 C 0.57555 0.38279 0.99283 0.0
C583 C 0.54239 0.39789 0.97091 0.0
N584 N 0.4803 0.38829 0.97334 0.0
N585 N 0.60782 0.32961 0.02258 0.0
C586 C 0.51261 0.37896 0.01355 0.0
C587 C 0.57798 0.34807 0.03824 0.0
N588 N 0.48985 0.33831 0.16839 0.0
N589 N 0.60495 0.40237 0.98275 0.0
H590 H 0.60991 0.30373 0.05063 0.0
H591 H 0.62897 0.33885 0.97132 0.0
H592 H 0.6042 0.42898 0.96837 0.0
H593 H 0.62944 0.39321 0.00768 0.0
H594 H 0.4665 0.35172 0.17476 0.0
H595 H 0.49183 0.3174 0.23026 0.0
H596 H 0.45813 0.37377 0.99374 0.0
H597 H 0.47621 0.40791 0.90729 0.0
C598 C 0.20126 0.51899 0.94334 0.0
C599 C 0.20904 0.50276 0.06073 0.0
C600 C 0.15075 0.47509 0.04957 0.0
C601 C 0.14076 0.49666 0.94557 0.0
N602 N 0.15687 0.54605 0.81601 0.0
N603 N 0.18772 0.4685 0.2346 0.0
C604 C 0.16624 0.52024 0.8976 0.0
C605 C 0.18285 0.48151 0.1161 0.0
N606 N 0.22747 0.53376 0.87537 0.0
N607 N 0.13045 0.44743 0.08248 0.0
H608 H 0.21058 0.4723 0.28563 0.0
H609 H 0.16803 0.45628 0.28546 0.0
H610 H 0.10837 0.44019 0.03177 0.0
H611 H 0.13789 0.42926 0.15012 0.0
H612 H 0.22396 0.54287 0.78361 0.0
H613 H 0.2533 0.53313 0.90531 0.0
H614 H 0.17395 0.56558 0.78769 0.0
H615 H 0.13131 0.55096 0.7899 0.0
C616 C 0.98339 0.83534 0.63678 0.0
C617 C 1.01033 0.82216 0.55902 0.0
C618 C 0.04492 0.8745 0.61426 0.0
C619 C 1.0151 0.89078 0.66743 0.0
N620 N 0.95464 0.88591 0.72326 0.0
N621 N 0.06694 0.83065 0.46985 0.0
C622 C 0.98401 0.87082 0.67746 0.0
C623 C 0.04144 0.84191 0.54878 0.0
N624 N 0.95629 0.81394 0.66639 0.0
N625 N 0.07663 0.8901 0.62523 0.0
H626 H 0.0657 0.80658 0.42502 0.0
H627 H 0.08818 0.84586 0.44408 0.0
H628 H 0.0803 0.91365 0.67167 0.0
H629 H 0.09966 0.87819 0.59826 0.0
H630 H 0.93673 0.82057 0.72947 0.0
H631 H 0.95556 0.78809 0.63686 0.0
H632 H 0.93029 0.87414 0.72035 0.0
H633 H 0.95419 0.91125 0.75692 0.0
C634 C 0.68504 0.03461 0.66157 0.0
C635 C 0.69409 1.01188 0.56101 0.0
C636 C 0.64154 0.97727 0.61158 0.0
C637 C 0.62934 1.00354 0.69552 0.0
N638 N 0.63913 0.06067 0.78494 0.0
N639 N 0.67818 0.96282 0.43246 0.0
C640 C 0.65123 0.03295 0.7178 0.0
C641 C 0.67175 0.9833 0.53478 0.0
N642 N 0.70885 0.0586 0.70126 0.0
N643 N 0.62483 0.94598 0.60754 0.0
H644 H 0.69999 0.96605 0.37559 0.0
H645 H 0.66067 0.94428 0.39914 0.0
H646 H 0.60387 0.94003 0.66592 0.0
H647 H 0.63412 0.92477 0.55712 0.0
H648 H 0.70473 0.07534 0.77641 0.0
H649 H 0.73403 0.0597 0.66528 0.0
H650 H 0.65213 0.08435 0.791 0.0
H651 H 0.61442 0.0619 0.82364 0.0
C652 C 0.49434 0.65958 0.63678 0.0
C653 C 0.51792 0.6702 0.54044 0.0
C654 C 0.55457 0.61988 0.59692 0.0
C655 C 0.52809 0.60643 0.67735 0.0
N656 N 0.472 0.6151 0.77446 0.0
N657 N 0.5698 0.658 0.42251 0.0
C658 C 0.49809 0.62695 0.69861 0.0
C659 C 0.54816 0.64994 0.52021 0.0
N660 N 0.46673 0.67968 0.66818 0.0
N661 N 0.58646 0.60457 0.59699 0.0
H662 H 0.5665 0.67996 0.36634 0.0
H663 H 0.58963 0.64176 0.39218 0.0
H664 H 0.59239 0.58338 0.65434 0.0
H665 H 0.60792 0.61506 0.55089 0.0
H666 H 0.46223 0.70432 0.6307 0.0
H667 H 0.46223 0.70432 0.6307 0.0
H668 H 0.44943 0.62926 0.79034 0.0
H669 H 0.47214 0.59085 0.81762 0.0
C670 C 0.87289 0.54076 0.658 0.0
C671 C 0.86015 0.51801 0.56276 0.0
C672 C 0.91416 0.48339 0.58462 0.0
C673 C 0.92891 0.50913 0.66567 0.0
N674 N 0.92187 0.56222 0.78199 0.0
N675 N 0.86775 0.46649 0.43892 0.0
C676 C 0.90793 0.5376 0.7039 0.0
C677 C 0.88039 0.48862 0.52895 0.0
N678 N 0.85101 0.56527 0.70548 0.0
N679 N 0.9327 0.45405 0.5597 0.0
H680 H 0.8429 0.46895 0.40081 0.0
H681 H 0.8819 0.44647 0.39855 0.0
H682 H 0.9578 0.45019 0.59353 0.0
H683 H 0.92286 0.43264 0.51158 0.0
H684 H 0.85682 0.58084 0.78301 0.0
H685 H 0.82545 0.56769 0.67389 0.0
H686 H 0.90987 0.58561 0.80337 0.0
H687 H 0.94654 0.55994 0.82165 0.0
loop_
_geom_bond_atom_site_label_1
_geom_bond_atom_site_label_2
_geom_bond_distance
_geom_bond_site_symmetry_2
_ccdc_geom_bond_type
H0 C5 0.930 . S
H1 C8 0.930 . S
H2 C10 0.930 . S
H3 C4 1.016 . S
C4 H3 1.016 . S
C4 N11 1.286 . S
C5 H0 0.930 . S
C5 C6 1.397 . S
C5 C7 1.361 . S
C6 C5 1.397 . S
C6 C10 1.390 . S
C7 C5 1.361 . S
C7 C8 1.393 . S
C7 N11 1.413 . S
C8 H1 0.930 . S
C8 C7 1.393 . S
C8 C9 1.399 . S
C9 C8 1.399 . S
C9 C10 1.381 . S
C10 H2 0.930 . S
C10 C6 1.390 . S
C10 C9 1.381 . S
N11 C4 1.286 . S
N11 C7 1.413 . S
H12 C17 0.930 . S
H13 C20 0.930 . S
H14 C22 0.930 . S
H15 C16 1.016 . S
C16 H15 1.016 . S
C16 N23 1.286 1_655 S
C17 H12 0.930 . S
C17 C18 1.397 . S
C17 C19 1.361 . S
C18 C17 1.397 . S
C18 C22 1.390 1_455 S
C19 C17 1.361 . S
C19 C20 1.393 . S
C19 N23 1.413 . S
C20 H13 0.930 . S
C20 C19 1.393 . S
C20 C21 1.403 . S
C21 C20 1.403 . S
C21 C22 1.379 1_455 S
C22 H14 0.930 . S
C22 C18 1.390 1_655 S
C22 C21 1.379 1_655 S
N23 C16 1.286 1_455 S
N23 C19 1.413 . S
H24 C29 0.930 . S
H25 C32 0.930 . S
H26 C34 0.930 . S
H27 C28 1.016 . S
C28 H27 1.016 . S
C28 N35 1.286 1_565 S
C29 H24 0.930 . S
C29 C30 1.397 . S
C29 C31 1.361 . S
C30 C29 1.397 . S
C30 C34 1.390 1_545 S
C31 C29 1.361 . S
C31 C32 1.393 . S
C31 N35 1.413 . S
C32 H25 0.930 . S
C32 C31 1.393 . S
C32 C33 1.403 . S
C33 C32 1.403 . S
C33 C34 1.379 1_545 S
C34 H26 0.930 . S
C34 C30 1.390 1_565 S
C34 C33 1.379 1_565 S
N35 C28 1.286 1_545 S
N35 C31 1.413 . S
H36 C41 0.930 . S
H37 C44 0.930 . S
H38 C46 0.930 . S
H39 C40 1.016 . S
C40 H39 1.016 . S
C40 N47 1.286 . S
C41 H36 0.930 . S
C41 C42 1.397 . S
C41 C43 1.361 . S
C42 C41 1.397 . S
C42 C46 1.390 . S
C43 C41 1.361 . S
C43 C44 1.393 . S
C43 N47 1.413 . S
C44 H37 0.930 . S
C44 C43 1.393 . S
C44 C45 1.399 . S
C45 C44 1.399 . S
C45 C46 1.381 . S
C46 H38 0.930 . S
C46 C42 1.390 . S
C46 C45 1.381 . S
N47 C40 1.286 . S
N47 C43 1.413 . S
H48 C53 0.930 . S
H49 C56 0.930 . S
H50 C58 0.930 . S
H51 C52 1.016 . S
C52 H51 1.016 . S
C52 N59 1.286 . S
C53 H48 0.930 . S
C53 C54 1.397 . S
C53 C55 1.361 1_556 S
C54 C53 1.397 . S
C54 C58 1.390 1_556 S
C55 C53 1.361 1_554 S
C55 C56 1.393 . S
C55 N59 1.413 . S
C56 H49 0.930 . S
C56 C55 1.393 . S
C56 C57 1.399 . S
C57 C56 1.399 . S
C57 C58 1.381 . S
C58 H50 0.930 . S
C58 C54 1.390 1_554 S
C58 C57 1.381 . S
N59 C52 1.286 . S
N59 C55 1.413 . S
H60 C65 0.930 . S
H61 C68 0.930 . S
H62 C70 0.930 . S
H63 C64 1.027 . S
C64 H63 1.027 . S
C64 N71 1.272 1_655 S
C65 H60 0.930 . S
C65 C66 1.397 . S
C65 C67 1.361 1_556 S
C66 C65 1.397 . S
C66 C70 1.390 1_456 S
C67 C65 1.361 1_554 S
C67 C68 1.393 . S
C67 N71 1.413 . S
C68 H61 0.930 . S
C68 C67 1.393 . S
C68 C69 1.404 . S
C69 C68 1.404 . S
C69 C70 1.378 1_455 S
C70 H62 0.930 . S
C70 C66 1.390 1_654 S
C70 C69 1.378 1_655 S
N71 C64 1.272 1_455 S
N71 C67 1.413 . S
H72 C77 0.930 . S
H73 C80 0.930 . S
H74 C82 0.930 . S
H75 C76 1.026 . S
C76 H75 1.026 . S
C76 N83 1.272 1_565 S
C77 H72 0.930 . S
C77 C78 1.397 . S
C77 C79 1.361 1_556 S
C78 C77 1.397 . S
C78 C82 1.390 1_546 S
C79 C77 1.361 1_554 S
C79 C80 1.393 . S
C79 N83 1.413 . S
C80 H73 0.930 . S
C80 C79 1.393 . S
C80 C81 1.404 . S
C81 C80 1.404 . S
C81 C82 1.378 1_545 S
C82 H74 0.930 . S
C82 C78 1.390 1_564 S
C82 C81 1.378 1_565 S
N83 C76 1.272 1_545 S
N83 C79 1.413 . S
H84 C89 0.930 . S
H85 C92 0.930 . S
H86 C94 0.930 . S
H87 C88 1.016 . S
C88 H87 1.016 . S
C88 N95 1.286 . S
C89 H84 0.930 . S
C89 C90 1.397 . S
C89 C91 1.361 1_556 S
C90 C89 1.397 . S
C90 C94 1.390 1_556 S
C91 C89 1.361 1_554 S
C91 C92 1.393 . S
C91 N95 1.413 . S
C92 H85 0.930 . S
C92 C91 1.393 . S
C92 C93 1.399 . S
C93 C92 1.399 . S
C93 C94 1.381 . S
C94 H86 0.930 . S
C94 C90 1.390 1_554 S
C94 C93 1.381 . S
N95 C88 1.286 . S
N95 C91 1.413 . S
Tb96 C106 2.825 1_556 S
Tb96 O107 2.347 1_455 S
Tb96 O110 2.366 . S
Tb96 O115 2.418 . S
Tb96 O116 2.384 1_565 S
Tb96 O119 2.479 1_556 S
Tb96 O120 2.471 1_556 S
Eu97 O108 2.418 . S
Eu97 O109 2.384 1_545 S
Eu97 O112 2.479 . S
Eu97 O113 2.471 . S
Eu97 O114 2.347 1_655 S
Eu97 O117 2.366 . S
Eu97 C127 2.825 . S
C98 O114 1.259 1_565 S
C98 O115 1.265 . S
C99 O116 1.255 . S
C99 O117 1.265 1_455 S
C100 C102 1.380 . S
C100 C103 1.374 . S
C100 C106 1.507 . S
C101 C102 1.384 . S
C101 C105 1.387 . S
C101 H128 0.930 . S
C102 C100 1.380 . S
C102 C101 1.384 . S
C102 H129 0.931 . S
C103 C100 1.374 . S
C103 C104 1.390 . S
C103 H130 0.930 1_455 S
C104 C103 1.390 . S
C104 C105 1.391 . S
C104 H131 0.930 1_455 S
C105 C101 1.387 . S
C105 C104 1.391 . S
C106 Tb96 2.825 1_554 S
C106 C100 1.507 . S
C106 O119 1.238 . S
C106 O120 1.247 . S
O107 Tb96 2.347 1_655 S
O107 C111 1.259 1_565 S
O108 Eu97 2.418 . S
O108 C111 1.265 . S
O109 Eu97 2.384 1_565 S
O109 C118 1.255 . S
O110 Tb96 2.366 . S
O110 C118 1.265 1_455 S
C111 O107 1.259 1_545 S
C111 O108 1.265 . S
O112 Eu97 2.479 . S
O112 C127 1.238 . S
O113 Eu97 2.471 . S
O113 C127 1.247 . S
O114 Eu97 2.347 1_455 S
O114 C98 1.259 1_545 S
O115 Tb96 2.418 . S
O115 C98 1.265 . S
O116 Tb96 2.384 1_545 S
O116 C99 1.255 . S
O117 Eu97 2.366 . S
O117 C99 1.265 1_655 S
C118 O109 1.255 . S
C118 O110 1.265 1_655 S
O119 Tb96 2.479 1_554 S
O119 C106 1.238 . S
O120 Tb96 2.471 1_554 S
O120 C106 1.247 . S
C121 C124 1.380 . S
C121 C125 1.374 . S
C121 C127 1.507 . S
C122 C123 1.387 . S
C122 C126 1.391 . S
C123 C122 1.387 . S
C123 C124 1.384 . S
C123 H132 0.930 . S
C124 C121 1.380 . S
C124 C123 1.384 . S
C124 H133 0.931 . S
C125 C121 1.374 . S
C125 C126 1.390 . S
C125 H134 0.930 1_655 S
C126 C122 1.391 . S
C126 C125 1.390 . S
C126 H135 0.930 1_655 S
C127 Eu97 2.825 . S
C127 O112 1.238 . S
C127 O113 1.247 . S
C127 C121 1.507 . S
H128 C101 0.930 . S
H129 C102 0.931 . S
H130 C103 0.930 1_655 S
H131 C104 0.930 1_655 S
H132 C123 0.930 . S
H133 C124 0.931 . S
H134 C125 0.930 1_455 S
H135 C126 0.930 1_455 S
Tb136 C146 2.825 1_556 S
Tb136 O147 2.347 1_545 S
Tb136 O150 2.366 . S
Tb136 O155 2.418 . S
Tb136 O156 2.384 . S
Tb136 O159 2.479 1_556 S
Tb136 O160 2.471 1_556 S
Eu137 O148 2.418 . S
Eu137 O149 2.384 . S
Eu137 O152 2.479 . S
Eu137 O153 2.471 . S
Eu137 O154 2.347 1_565 S
Eu137 O157 2.366 . S
Eu137 C167 2.825 . S
C138 O154 1.259 . S
C138 O155 1.265 . S
C139 O156 1.255 . S
C139 O157 1.265 1_545 S
C140 C142 1.380 . S
C140 C143 1.374 . S
C140 C146 1.507 . S
C141 C142 1.384 . S
C141 C145 1.387 . S
C141 H168 0.930 . S
C142 C140 1.380 . S
C142 C141 1.384 . S
C142 H169 0.931 . S
C143 C140 1.374 . S
C143 C144 1.390 . S
C143 H170 0.930 1_545 S
C144 C143 1.390 . S
C144 C145 1.391 . S
C144 H171 0.930 1_545 S
C145 C141 1.387 . S
C145 C144 1.391 . S
C146 Tb136 2.825 1_554 S
C146 C140 1.507 . S
C146 O159 1.238 . S
C146 O160 1.247 . S
O147 Tb136 2.347 1_565 S
O147 C151 1.259 . S
O148 Eu137 2.418 . S
O148 C151 1.265 . S
O149 Eu137 2.384 . S
O149 C158 1.255 . S
O150 Tb136 2.366 . S
O150 C158 1.265 1_545 S
C151 O147 1.259 . S
C151 O148 1.265 . S
O152 Eu137 2.479 . S
O152 C167 1.238 . S
O153 Eu137 2.471 . S
O153 C167 1.247 . S
O154 Eu137 2.347 1_545 S
O154 C138 1.259 . S
O155 Tb136 2.418 . S
O155 C138 1.265 . S
O156 Tb136 2.384 . S
O156 C139 1.255 . S
O157 Eu137 2.366 . S
O157 C139 1.265 1_565 S
C158 O149 1.255 . S
C158 O150 1.265 1_565 S
O159 Tb136 2.479 1_554 S
O159 C146 1.238 . S
O160 Tb136 2.471 1_554 S
O160 C146 1.247 . S
C161 C164 1.380 . S
C161 C165 1.374 . S
C161 C167 1.507 . S
C162 C163 1.387 . S
C162 C166 1.391 . S
C163 C162 1.387 . S
C163 C164 1.384 . S
C163 H172 0.930 . S
C164 C161 1.380 . S
C164 C163 1.384 . S
C164 H173 0.931 . S
C165 C161 1.374 . S
C165 C166 1.390 . S
C165 H174 0.930 1_565 S
C166 C162 1.391 . S
C166 C165 1.390 . S
C166 H175 0.930 1_565 S
C167 Eu137 2.825 . S
C167 O152 1.238 . S
C167 O153 1.247 . S
C167 C161 1.507 . S
H168 C141 0.930 . S
H169 C142 0.931 . S
H170 C143 0.930 1_565 S
H171 C144 0.930 1_565 S
H172 C163 0.930 . S
H173 C164 0.931 . S
H174 C165 0.930 1_545 S
H175 C166 0.930 1_545 S
Tb176 C186 2.825 1_556 S
Tb176 O187 2.347 . S
Tb176 O190 2.366 . S
Tb176 O195 2.418 . S
Tb176 O196 2.384 . S
Tb176 O199 2.479 1_556 S
Tb176 O200 2.471 1_556 S
Eu177 O188 2.418 . S
Eu177 O189 2.384 . S
Eu177 O192 2.479 . S
Eu177 O193 2.471 . S
Eu177 O194 2.347 . S
Eu177 O197 2.366 . S
Eu177 C207 2.825 . S
C178 O194 1.259 . S
C178 O195 1.265 . S
C179 O196 1.255 . S
C179 O197 1.265 . S
C180 C182 1.380 . S
C180 C183 1.374 . S
C180 C186 1.507 . S
C181 C182 1.384 . S
C181 C185 1.387 . S
C181 H208 0.930 . S
C182 C180 1.380 . S
C182 C181 1.384 . S
C182 H209 0.931 . S
C183 C180 1.374 . S
C183 C184 1.390 . S
C183 H210 0.930 . S
C184 C183 1.390 . S
C184 C185 1.391 . S
C184 H211 0.930 . S
C185 C181 1.387 . S
C185 C184 1.391 . S
C186 Tb176 2.825 1_554 S
C186 C180 1.507 . S
C186 O199 1.238 . S
C186 O200 1.247 . S
O187 Tb176 2.347 . S
O187 C191 1.259 . S
O188 Eu177 2.418 . S
O188 C191 1.265 . S
O189 Eu177 2.384 . S
O189 C198 1.255 . S
O190 Tb176 2.366 . S
O190 C198 1.265 . S
C191 O187 1.259 . S
C191 O188 1.265 . S
O192 Eu177 2.479 . S
O192 C207 1.238 . S
O193 Eu177 2.471 . S
O193 C207 1.247 . S
O194 Eu177 2.347 . S
O194 C178 1.259 . S
O195 Tb176 2.418 . S
O195 C178 1.265 . S
O196 Tb176 2.384 . S
O196 C179 1.255 . S
O197 Eu177 2.366 . S
O197 C179 1.265 . S
C198 O189 1.255 . S
C198 O190 1.265 . S
O199 Tb176 2.479 1_554 S
O199 C186 1.238 . S
O200 Tb176 2.471 1_554 S
O200 C186 1.247 . S
C201 C204 1.380 . S
C201 C205 1.374 . S
C201 C207 1.507 . S
C202 C203 1.387 . S
C202 C206 1.391 . S
C203 C202 1.387 . S
C203 C204 1.384 . S
C203 H212 0.930 . S
C204 C201 1.380 . S
C204 C203 1.384 . S
C204 H213 0.931 . S
C205 C201 1.374 . S
C205 C206 1.390 . S
C205 H214 0.930 . S
C206 C202 1.391 . S
C206 C205 1.390 . S
C206 H215 0.930 . S
C207 Eu177 2.825 . S
C207 O192 1.238 . S
C207 O193 1.247 . S
C207 C201 1.507 . S
H208 C181 0.930 . S
H209 C182 0.931 . S
H210 C183 0.930 . S
H211 C184 0.930 . S
H212 C203 0.930 . S
H213 C204 0.931 . S
H214 C205 0.930 . S
H215 C206 0.930 . S
Tb216 C226 2.825 1_556 S
Tb216 O227 2.347 . S
Tb216 O230 2.366 . S
Tb216 O235 2.418 . S
Tb216 O236 2.384 1_655 S
Tb216 O239 2.479 1_556 S
Tb216 O240 2.471 1_556 S
Eu217 O228 2.418 . S
Eu217 O229 2.384 1_455 S
Eu217 O232 2.479 . S
Eu217 O233 2.471 . S
Eu217 O234 2.347 . S
Eu217 O237 2.366 . S
Eu217 C247 2.825 . S
C218 O234 1.259 1_655 S
C218 O235 1.265 . S
C219 O236 1.255 . S
C219 O237 1.265 . S
C220 C222 1.380 . S
C220 C223 1.374 . S
C220 C226 1.507 . S
C221 C222 1.384 . S
C221 C225 1.387 . S
C221 H248 0.930 . S
C222 C220 1.380 . S
C222 C221 1.384 . S
C222 H249 0.931 . S
C223 C220 1.374 . S
C223 C224 1.390 . S
C223 H250 0.930 . S
C224 C223 1.390 . S
C224 C225 1.391 . S
C224 H251 0.930 . S
C225 C221 1.387 . S
C225 C224 1.391 . S
C226 Tb216 2.825 1_554 S
C226 C220 1.507 . S
C226 O239 1.238 . S
C226 O240 1.247 . S
O227 Tb216 2.347 . S
O227 C231 1.259 1_655 S
O228 Eu217 2.418 . S
O228 C231 1.265 . S
O229 Eu217 2.384 1_655 S
O229 C238 1.255 . S
O230 Tb216 2.366 . S
O230 C238 1.265 . S
C231 O227 1.259 1_455 S
C231 O228 1.265 . S
O232 Eu217 2.479 . S
O232 C247 1.238 . S
O233 Eu217 2.471 . S
O233 C247 1.247 . S
O234 Eu217 2.347 . S
O234 C218 1.259 1_455 S
O235 Tb216 2.418 . S
O235 C218 1.265 . S
O236 Tb216 2.384 1_455 S
O236 C219 1.255 . S
O237 Eu217 2.366 . S
O237 C219 1.265 . S
C238 O229 1.255 . S
C238 O230 1.265 . S
O239 Tb216 2.479 1_554 S
O239 C226 1.238 . S
O240 Tb216 2.471 1_554 S
O240 C226 1.247 . S
C241 C244 1.380 . S
C241 C245 1.374 . S
C241 C247 1.507 . S
C242 C243 1.387 . S
C242 C246 1.391 . S
C243 C242 1.387 . S
C243 C244 1.384 . S
C243 H252 0.930 . S
C244 C241 1.380 . S
C244 C243 1.384 . S
C244 H253 0.931 . S
C245 C241 1.374 . S
C245 C246 1.390 . S
C245 H254 0.930 . S
C246 C242 1.391 . S
C246 C245 1.390 . S
C246 H255 0.930 . S
C247 Eu217 2.825 . S
C247 O232 1.238 . S
C247 O233 1.247 . S
C247 C241 1.507 . S
H248 C221 0.930 . S
H249 C222 0.931 . S
H250 C223 0.930 . S
H251 C224 0.930 . S
H252 C243 0.930 . S
H253 C244 0.931 . S
H254 C245 0.930 . S
H255 C246 0.930 . S
C256 C257 1.362 . S
C256 C262 1.379 . S
C256 N264 1.356 . S
C257 C256 1.362 . S
C257 C263 1.364 1_565 S
C258 C259 1.356 1_545 S
C258 C263 1.379 . S
C258 N265 1.356 . S
C259 C258 1.356 1_565 S
C259 C262 1.370 . S
N260 C262 1.356 . S
N260 H272 0.984 . S
N260 H273 0.985 . S
N261 C263 1.356 . S
N261 H266 0.984 . S
N261 H267 0.985 . S
C262 C256 1.379 . S
C262 C259 1.370 . S
C262 N260 1.356 . S
C263 C257 1.364 1_545 S
C263 C258 1.379 . S
C263 N261 1.356 . S
N264 C256 1.356 . S
N264 H270 0.984 . S
N264 H271 0.984 . S
N265 C258 1.356 . S
N265 H268 0.984 . S
N265 H269 0.985 . S
H266 N261 0.984 . S
H267 N261 0.985 . S
H268 N265 0.984 . S
H269 N265 0.985 . S
H270 N264 0.984 . S
H271 N264 0.984 . S
H272 N260 0.984 . S
H273 N260 0.985 . S
C274 C275 1.363 . S
C274 C280 1.379 . S
C274 N282 1.356 . S
C275 C274 1.363 . S
C275 C281 1.363 . S
C276 C277 1.363 . S
C276 C281 1.379 . S
C276 N283 1.356 . S
C277 C276 1.363 . S
C277 C280 1.363 . S
N278 C280 1.356 . S
N278 H290 0.984 . S
N278 H291 0.985 . S
N279 C281 1.356 . S
N279 H284 0.984 . S
N279 H285 0.985 . S
C280 C274 1.379 . S
C280 C277 1.363 . S
C280 N278 1.356 . S
C281 C275 1.363 . S
C281 C276 1.379 . S
C281 N279 1.356 . S
N282 C274 1.356 . S
N282 H288 0.984 . S
N282 H289 0.984 . S
N283 C276 1.356 . S
N283 H286 0.984 . S
N283 H287 0.985 . S
H284 N279 0.984 . S
H285 N279 0.985 . S
H286 N283 0.984 . S
H287 N283 0.985 . S
H288 N282 0.984 . S
H289 N282 0.984 . S
H290 N278 0.984 . S
H291 N278 0.985 . S
C292 C293 1.363 . S
C292 C298 1.379 . S
C292 N300 1.356 . S
C293 C292 1.363 . S
C293 C299 1.363 . S
C294 C295 1.363 . S
C294 C299 1.379 . S
C294 N301 1.356 . S
C295 C294 1.363 . S
C295 C298 1.363 . S
N296 C298 1.356 . S
N296 H308 0.984 . S
N296 H309 0.985 . S
N297 C299 1.356 . S
N297 H302 0.984 . S
N297 H303 0.985 . S
C298 C292 1.379 . S
C298 C295 1.363 . S
C298 N296 1.356 . S
C299 C293 1.363 . S
C299 C294 1.379 . S
C299 N297 1.356 . S
N300 C292 1.356 . S
N300 H306 0.984 . S
N300 H307 0.984 . S
N301 C294 1.356 . S
N301 H304 0.984 . S
N301 H305 0.985 . S
H302 N297 0.984 . S
H303 N297 0.985 . S
H304 N301 0.984 . S
H305 N301 0.985 . S
H306 N300 0.984 . S
H307 N300 0.984 . S
H308 N296 0.984 . S
H309 N296 0.985 . S
C310 C311 1.374 . S
C310 C316 1.379 . S
C310 N318 1.356 . S
C311 C310 1.374 . S
C311 C317 1.352 1_455 S
C312 C313 1.363 1_655 S
C312 C317 1.379 . S
C312 N319 1.356 . S
C313 C312 1.363 1_455 S
C313 C316 1.363 . S
N314 C316 1.356 . S
N314 H326 0.984 . S
N314 H327 0.985 . S
N315 C317 1.356 . S
N315 H320 0.984 . S
N315 H321 0.985 . S
C316 C310 1.379 . S
C316 C313 1.363 . S
C316 N314 1.356 . S
C317 C311 1.352 1_655 S
C317 C312 1.379 . S
C317 N315 1.356 . S
N318 C310 1.356 . S
N318 H324 0.984 . S
N318 H325 0.984 . S
N319 C312 1.356 . S
N319 H322 0.984 . S
N319 H323 0.985 . S
H320 N315 0.984 . S
H321 N315 0.985 . S
H322 N319 0.984 . S
H323 N319 0.985 . S
H324 N318 0.984 . S
H325 N318 0.984 . S
H326 N314 0.984 . S
H327 N314 0.985 . S
C328 C329 1.359 1_565 S
C328 C334 1.379 . S
C328 N336 1.356 . S
C329 C328 1.359 1_545 S
C329 C335 1.367 . S
C330 C331 1.376 . S
C330 C335 1.379 . S
C330 N337 1.356 . S
C331 C330 1.376 . S
C331 C334 1.350 1_545 S
N332 C334 1.356 . S
N332 H344 0.984 . S
N332 H345 0.985 . S
N333 C335 1.356 . S
N333 H338 0.984 . S
N333 H339 0.985 . S
C334 C328 1.379 . S
C334 C331 1.350 1_565 S
C334 N332 1.356 . S
C335 C329 1.367 . S
C335 C330 1.379 . S
C335 N333 1.356 . S
N336 C328 1.356 . S
N336 H342 0.984 . S
N336 H343 0.984 . S
N337 C330 1.356 . S
N337 H340 0.984 1_554 S
N337 H341 0.985 . S
H338 N333 0.984 . S
H339 N333 0.985 . S
H340 N337 0.984 1_556 S
H341 N337 0.985 . S
H342 N336 0.984 . S
H343 N336 0.984 . S
H344 N332 0.984 . S
H345 N332 0.985 . S
C346 C347 1.363 . S
C346 C352 1.379 . S
C346 N354 1.356 . S
C347 C346 1.363 . S
C347 C353 1.363 . S
C348 C349 1.363 . S
C348 C353 1.379 . S
C348 N355 1.356 . S
C349 C348 1.363 . S
C349 C352 1.363 . S
N350 C352 1.356 . S
N350 H362 0.984 . S
N350 H363 0.985 1_554 S
N351 C353 1.356 . S
N351 H356 0.984 . S
N351 H357 0.985 . S
C352 C346 1.379 . S
C352 C349 1.363 . S
C352 N350 1.356 . S
C353 C347 1.363 . S
C353 C348 1.379 . S
C353 N351 1.356 . S
N354 C346 1.356 . S
N354 H360 0.984 . S
N354 H361 0.984 . S
N355 C348 1.356 . S
N355 H358 0.984 . S
N355 H359 0.985 . S
H356 N351 0.984 . S
H357 N351 0.985 . S
H358 N355 0.984 . S
H359 N355 0.985 . S
H360 N354 0.984 . S
H361 N354 0.984 . S
H362 N350 0.984 . S
H363 N350 0.985 1_556 S
C364 C365 1.363 . S
C364 C370 1.379 . S
C364 N372 1.356 . S
C365 C364 1.363 . S
C365 C371 1.363 . S
C366 C367 1.363 . S
C366 C371 1.379 . S
C366 N373 1.356 . S
C367 C366 1.363 . S
C367 C370 1.363 . S
N368 C370 1.356 . S
N368 H380 0.984 . S
N368 H381 0.985 1_554 S
N369 C371 1.356 . S
N369 H374 0.984 . S
N369 H375 0.985 . S
C370 C364 1.379 . S
C370 C367 1.363 . S
C370 N368 1.356 . S
C371 C365 1.363 . S
C371 C366 1.379 . S
C371 N369 1.356 . S
N372 C364 1.356 . S
N372 H378 0.984 . S
N372 H379 0.984 . S
N373 C366 1.356 . S
N373 H376 0.984 . S
N373 H377 0.985 . S
H374 N369 0.984 . S
H375 N369 0.985 . S
H376 N373 0.984 . S
H377 N373 0.985 . S
H378 N372 0.984 . S
H379 N372 0.984 . S
H380 N368 0.984 . S
H381 N368 0.985 1_556 S
C382 C383 1.357 1_455 S
C382 C388 1.379 . S
C382 N390 1.356 . S
C383 C382 1.357 1_655 S
C383 C389 1.369 . S
C384 C385 1.363 . S
C384 C389 1.379 . S
C384 N391 1.356 . S
C385 C384 1.363 . S
C385 C388 1.363 1_655 S
N386 C388 1.356 . S
N386 H398 0.984 . S
N386 H399 0.985 . S
N387 C389 1.356 . S
N387 H392 0.984 . S
N387 H393 0.985 . S
C388 C382 1.379 . S
C388 C385 1.363 1_455 S
C388 N386 1.356 . S
C389 C383 1.369 . S
C389 C384 1.379 . S
C389 N387 1.356 . S
N390 C382 1.356 . S
N390 H396 0.984 . S
N390 H397 0.984 . S
N391 C384 1.356 . S
N391 H394 0.984 1_554 S
N391 H395 0.985 1_554 S
H392 N387 0.984 . S
H393 N387 0.985 . S
H394 N391 0.984 1_556 S
H395 N391 0.985 1_556 S
H396 N390 0.984 . S
H397 N390 0.984 . S
H398 N386 0.984 . S
H399 N386 0.985 . S
C400 C401 1.367 . S
C400 C406 1.379 . S
C400 N408 1.356 . S
C401 C400 1.367 . S
C401 C407 1.362 1_655 S
C402 C403 1.363 . S
C402 C407 1.379 1_655 S
C402 N409 1.356 . S
C403 C402 1.363 . S
C403 C406 1.363 . S
N404 C406 1.356 . S
N404 H416 0.984 . S
N404 H417 0.985 . S
N405 C407 1.356 . S
N405 H410 0.984 . S
N405 H411 0.985 . S
C406 C400 1.379 . S
C406 C403 1.363 . S
C406 N404 1.356 . S
C407 C401 1.362 1_455 S
C407 C402 1.379 1_455 S
C407 N405 1.356 . S
N408 C400 1.356 . S
N408 H414 0.984 . S
N408 H415 0.984 . S
N409 C402 1.356 . S
N409 H412 0.984 . S
N409 H413 0.985 1_655 S
H410 N405 0.984 . S
H411 N405 0.985 . S
H412 N409 0.984 . S
H413 N409 0.985 1_455 S
H414 N408 0.984 . S
H415 N408 0.984 . S
H416 N404 0.984 . S
H417 N404 0.985 . S
C418 C419 1.365 . S
C418 C424 1.379 . S
C418 N426 1.356 . S
C419 C418 1.365 . S
C419 C425 1.362 1_565 S
C420 C421 1.363 . S
C420 C425 1.379 1_565 S
C420 N427 1.356 . S
C421 C420 1.363 . S
C421 C424 1.363 . S
N422 C424 1.356 . S
N422 H434 0.984 . S
N422 H435 0.985 . S
N423 C425 1.356 . S
N423 H428 0.984 . S
N423 H429 0.985 . S
C424 C418 1.379 . S
C424 C421 1.363 . S
C424 N422 1.356 . S
C425 C419 1.362 1_545 S
C425 C420 1.379 1_545 S
C425 N423 1.356 . S
N426 C418 1.356 . S
N426 H432 0.984 . S
N426 H433 0.984 . S
N427 C420 1.356 . S
N427 H430 0.984 . S
N427 H431 0.985 1_565 S
H428 N423 0.984 . S
H429 N423 0.985 . S
H430 N427 0.984 . S
H431 N427 0.985 1_545 S
H432 N426 0.984 . S
H433 N426 0.984 . S
H434 N422 0.984 . S
H435 N422 0.985 . S
C436 C437 1.363 . S
C436 C442 1.379 . S
C436 N444 1.356 . S
C437 C436 1.363 . S
C437 C443 1.363 . S
C438 C439 1.363 . S
C438 C443 1.379 . S
C438 N445 1.356 . S
C439 C438 1.363 . S
C439 C442 1.363 . S
N440 C442 1.356 . S
N440 H452 0.984 . S
N440 H453 0.985 . S
N441 C443 1.356 . S
N441 H446 0.984 1_554 S
N441 H447 0.985 1_554 S
C442 C436 1.379 . S
C442 C439 1.363 . S
C442 N440 1.356 . S
C443 C437 1.363 . S
C443 C438 1.379 . S
C443 N441 1.356 . S
N444 C436 1.356 . S
N444 H450 0.984 . S
N444 H451 0.984 . S
N445 C438 1.356 . S
N445 H448 0.984 . S
N445 H449 0.985 . S
H446 N441 0.984 1_556 S
H447 N441 0.985 1_556 S
H448 N445 0.984 . S
H449 N445 0.985 . S
H450 N444 0.984 . S
H451 N444 0.984 . S
H452 N440 0.984 . S
H453 N440 0.985 . S
C454 C455 1.363 . S
C454 C460 1.379 . S
C454 N462 1.356 . S
C455 C454 1.363 . S
C455 C461 1.363 . S
C456 C457 1.363 . S
C456 C461 1.379 . S
C456 N463 1.356 . S
C457 C456 1.363 . S
C457 C460 1.363 . S
N458 C460 1.356 . S
N458 H470 0.984 . S
N458 H471 0.985 . S
N459 C461 1.356 . S
N459 H464 0.984 . S
N459 H465 0.985 . S
C460 C454 1.379 . S
C460 C457 1.363 . S
C460 N458 1.356 . S
C461 C455 1.363 . S
C461 C456 1.379 . S
C461 N459 1.356 . S
N462 C454 1.356 . S
N462 H468 0.984 . S
N462 H469 0.984 . S
N463 C456 1.356 . S
N463 H466 0.984 . S
N463 H467 0.985 . S
H464 N459 0.984 . S
H465 N459 0.985 . S
H466 N463 0.984 . S
H467 N463 0.985 . S
H468 N462 0.984 . S
H469 N462 0.984 . S
H470 N458 0.984 . S
H471 N458 0.985 . S
C472 C473 1.365 . S
C472 C478 1.379 . S
C472 N480 1.356 . S
C473 C472 1.365 . S
C473 C479 1.364 . S
C474 C475 1.363 . S
C474 C479 1.379 . S
C474 N481 1.356 . S
C475 C474 1.363 . S
C475 C478 1.363 . S
N476 C478 1.356 . S
N476 H488 0.984 . S
N476 H489 0.985 . S
N477 C479 1.356 1_655 S
N477 H482 0.984 . S
N477 H483 0.985 . S
C478 C472 1.379 . S
C478 C475 1.363 . S
C478 N476 1.356 . S
C479 C473 1.364 . S
C479 C474 1.379 . S
C479 N477 1.356 1_455 S
N480 C472 1.356 . S
N480 H486 0.984 . S
N480 H487 0.984 1_455 S
N481 C474 1.356 . S
N481 H484 0.984 . S
N481 H485 0.985 . S
H482 N477 0.984 . S
H483 N477 0.985 . S
H484 N481 0.984 . S
H485 N481 0.985 . S
H486 N480 0.984 . S
H487 N480 0.984 1_655 S
H488 N476 0.984 . S
H489 N476 0.985 . S
C490 C491 1.364 . S
C490 C496 1.379 . S
C490 N498 1.356 1_545 S
C491 C490 1.364 . S
C491 C497 1.369 . S
C492 C493 1.363 . S
C492 C497 1.379 . S
C492 N499 1.356 . S
C493 C492 1.363 . S
C493 C496 1.363 . S
N494 C496 1.356 . S
N494 H506 0.984 . S
N494 H507 0.985 . S
N495 C497 1.356 . S
N495 H500 0.984 1_545 S
N495 H501 0.985 . S
C496 C490 1.379 . S
C496 C493 1.363 . S
C496 N494 1.356 . S
C497 C491 1.369 . S
C497 C492 1.379 . S
C497 N495 1.356 . S
N498 C490 1.356 1_565 S
N498 H504 0.984 . S
N498 H505 0.984 . S
N499 C492 1.356 . S
N499 H502 0.984 . S
N499 H503 0.985 . S
H500 N495 0.984 1_565 S
H501 N495 0.985 . S
H502 N499 0.984 . S
H503 N499 0.985 . S
H504 N498 0.984 . S
H505 N498 0.984 . S
H506 N494 0.984 . S
H507 N494 0.985 . S
C508 C509 1.363 . S
C508 C514 1.379 . S
C508 N516 1.356 . S
C509 C508 1.363 . S
C509 C515 1.363 . S
C510 C511 1.363 . S
C510 C515 1.379 . S
C510 N517 1.356 . S
C511 C510 1.363 . S
C511 C514 1.363 . S
N512 C514 1.356 . S
N512 H524 0.984 . S
N512 H525 0.985 . S
N513 C515 1.356 . S
N513 H518 0.984 . S
N513 H519 0.985 . S
C514 C508 1.379 . S
C514 C511 1.363 . S
C514 N512 1.356 . S
C515 C509 1.363 . S
C515 C510 1.379 . S
C515 N513 1.356 . S
N516 C508 1.356 . S
N516 H522 0.984 . S
N516 H523 0.984 . S
N517 C510 1.356 . S
N517 H520 0.984 . S
N517 H521 0.985 . S
H518 N513 0.984 . S
H519 N513 0.985 . S
H520 N517 0.984 . S
H521 N517 0.985 . S
H522 N516 0.984 . S
H523 N516 0.984 . S
H524 N512 0.984 . S
H525 N512 0.985 . S
C526 C527 1.363 . S
C526 C532 1.379 . S
C526 N534 1.356 . S
C527 C526 1.363 . S
C527 C533 1.363 . S
C528 C529 1.363 . S
C528 C533 1.379 . S
C528 N535 1.356 . S
C529 C528 1.363 . S
C529 C532 1.363 . S
N530 C532 1.356 . S
N530 H542 0.984 . S
N530 H543 0.985 . S
N531 C533 1.356 . S
N531 H536 0.984 . S
N531 H537 0.985 . S
C532 C526 1.379 . S
C532 C529 1.363 . S
C532 N530 1.356 . S
C533 C527 1.363 . S
C533 C528 1.379 . S
C533 N531 1.356 . S
N534 C526 1.356 . S
N534 H540 0.984 . S
N534 H541 0.984 . S
N535 C528 1.356 . S
N535 H538 0.984 . S
N535 H539 0.985 . S
H536 N531 0.984 . S
H537 N531 0.985 . S
H538 N535 0.984 . S
H539 N535 0.985 . S
H540 N534 0.984 . S
H541 N534 0.984 . S
H542 N530 0.984 . S
H543 N530 0.985 . S
C544 C545 1.363 . S
C544 C550 1.379 . S
C544 N552 1.356 1_556 S
C545 C544 1.363 . S
C545 C551 1.363 1_455 S
C546 C547 1.363 1_655 S
C546 C551 1.379 . S
C546 N553 1.356 . S
C547 C546 1.363 1_455 S
C547 C550 1.363 . S
N548 C550 1.356 1_554 S
N548 H560 0.984 . S
N548 H561 0.985 . S
N549 C551 1.356 . S
N549 H554 0.984 . S
N549 H555 0.985 . S
C550 C544 1.379 . S
C550 C547 1.363 . S
C550 N548 1.356 1_556 S
C551 C545 1.363 1_655 S
C551 C546 1.379 . S
C551 N549 1.356 . S
N552 C544 1.356 1_554 S
N552 H558 0.984 . S
N552 H559 0.984 1_554 S
N553 C546 1.356 . S
N553 H556 0.984 . S
N553 H557 0.985 . S
H554 N549 0.984 . S
H555 N549 0.985 . S
H556 N553 0.984 . S
H557 N553 0.985 . S
H558 N552 0.984 . S
H559 N552 0.984 1_556 S
H560 N548 0.984 . S
H561 N548 0.985 . S
C562 C563 1.363 . S
C562 C568 1.379 . S
C562 N570 1.356 . S
C563 C562 1.363 . S
C563 C569 1.363 1_545 S
C564 C565 1.363 1_565 S
C564 C569 1.379 . S
C564 N571 1.356 1_556 S
C565 C564 1.363 1_545 S
C565 C568 1.363 . S
N566 C568 1.356 . S
N566 H578 0.984 . S
N566 H579 0.985 . S
N567 C569 1.356 1_554 S
N567 H572 0.984 . S
N567 H573 0.985 . S
C568 C562 1.379 . S
C568 C565 1.363 . S
C568 N566 1.356 . S
C569 C563 1.363 1_565 S
C569 C564 1.379 . S
C569 N567 1.356 1_556 S
N570 C562 1.356 . S
N570 H576 0.984 . S
N570 H577 0.984 . S
N571 C564 1.356 1_554 S
N571 H574 0.984 . S
N571 H575 0.985 . S
H572 N567 0.984 . S
H573 N567 0.985 . S
H574 N571 0.984 . S
H575 N571 0.985 . S
H576 N570 0.984 . S
H577 N570 0.984 . S
H578 N566 0.984 . S
H579 N566 0.985 . S
C580 C581 1.363 . S
C580 C586 1.379 . S
C580 N588 1.356 1_556 S
C581 C580 1.363 . S
C581 C587 1.363 . S
C582 C583 1.363 . S
C582 C587 1.379 . S
C582 N589 1.356 . S
C583 C582 1.363 . S
C583 C586 1.363 . S
N584 C586 1.356 1_554 S
N584 H596 0.984 . S
N584 H597 0.985 . S
N585 C587 1.356 . S
N585 H590 0.984 . S
N585 H591 0.985 . S
C586 C580 1.379 . S
C586 C583 1.363 . S
C586 N584 1.356 1_556 S
C587 C581 1.363 . S
C587 C582 1.379 . S
C587 N585 1.356 . S
N588 C580 1.356 1_554 S
N588 H594 0.984 . S
N588 H595 0.984 1_554 S
N589 C582 1.356 . S
N589 H592 0.984 . S
N589 H593 0.985 . S
H590 N585 0.984 . S
H591 N585 0.985 . S
H592 N589 0.984 . S
H593 N589 0.985 . S
H594 N588 0.984 . S
H595 N588 0.984 1_556 S
H596 N584 0.984 . S
H597 N584 0.985 . S
C598 C599 1.363 . S
C598 C604 1.379 . S
C598 N606 1.356 . S
C599 C598 1.363 . S
C599 C605 1.363 . S
C600 C601 1.363 . S
C600 C605 1.379 . S
C600 N607 1.356 . S
C601 C600 1.363 . S
C601 C604 1.363 . S
N602 C604 1.356 . S
N602 H614 0.984 . S
N602 H615 0.985 . S
N603 C605 1.356 . S
N603 H608 0.984 . S
N603 H609 0.985 1_556 S
C604 C598 1.379 . S
C604 C601 1.363 . S
C604 N602 1.356 . S
C605 C599 1.363 . S
C605 C600 1.379 . S
C605 N603 1.356 . S
N606 C598 1.356 . S
N606 H612 0.984 . S
N606 H613 0.984 . S
N607 C600 1.356 . S
N607 H610 0.984 . S
N607 H611 0.985 1_556 S
H608 N603 0.984 . S
H609 N603 0.985 1_554 S
H610 N607 0.984 . S
H611 N607 0.985 1_554 S
H612 N606 0.984 . S
H613 N606 0.984 . S
H614 N602 0.984 . S
H615 N602 0.985 . S
C616 C617 1.363 . S
C616 C622 1.379 . S
C616 N624 1.356 . S
C617 C616 1.363 . S
C617 C623 1.363 1_655 S
C618 C619 1.363 1_455 S
C618 C623 1.379 . S
C618 N625 1.356 . S
C619 C618 1.363 1_655 S
C619 C622 1.363 . S
N620 C622 1.356 . S
N620 H632 0.984 . S
N620 H633 0.985 . S
N621 C623 1.356 . S
N621 H626 0.984 . S
N621 H627 0.985 . S
C622 C616 1.379 . S
C622 C619 1.363 . S
C622 N620 1.356 . S
C623 C617 1.363 1_455 S
C623 C618 1.379 . S
C623 N621 1.356 . S
N624 C616 1.356 . S
N624 H630 0.984 . S
N624 H631 0.984 . S
N625 C618 1.356 . S
N625 H628 0.984 . S
N625 H629 0.985 . S
H626 N621 0.984 . S
H627 N621 0.985 . S
H628 N625 0.984 . S
H629 N625 0.985 . S
H630 N624 0.984 . S
H631 N624 0.984 . S
H632 N620 0.984 . S
H633 N620 0.985 . S
C634 C635 1.363 1_545 S
C634 C640 1.379 . S
C634 N642 1.356 . S
C635 C634 1.363 1_565 S
C635 C641 1.363 . S
C636 C637 1.363 . S
C636 C641 1.379 . S
C636 N643 1.356 . S
C637 C636 1.363 . S
C637 C640 1.363 1_565 S
N638 C640 1.356 . S
N638 H650 0.984 . S
N638 H651 0.985 . S
N639 C641 1.356 . S
N639 H644 0.984 . S
N639 H645 0.985 . S
C640 C634 1.379 . S
C640 C637 1.363 1_545 S
C640 N638 1.356 . S
C641 C635 1.363 . S
C641 C636 1.379 . S
C641 N639 1.356 . S
N642 C634 1.356 . S
N642 H648 0.984 . S
N642 H649 0.984 . S
N643 C636 1.356 . S
N643 H646 0.984 . S
N643 H647 0.985 . S
H644 N639 0.984 . S
H645 N639 0.985 . S
H646 N643 0.984 . S
H647 N643 0.985 . S
H648 N642 0.984 . S
H649 N642 0.984 . S
H650 N638 0.984 . S
H651 N638 0.985 . S
C652 C653 1.363 . S
C652 C658 1.379 . S
C652 N660 1.356 . S
C653 C652 1.363 . S
C653 C659 1.363 . S
C654 C655 1.363 . S
C654 C659 1.379 . S
C654 N661 1.356 . S
C655 C654 1.363 . S
C655 C658 1.363 . S
N656 C658 1.356 . S
N656 H668 0.984 . S
N656 H669 0.985 . S
N657 C659 1.356 . S
N657 H662 0.984 . S
N657 H663 0.985 . S
C658 C652 1.379 . S
C658 C655 1.363 . S
C658 N656 1.356 . S
C659 C653 1.363 . S
C659 C654 1.379 . S
C659 N657 1.356 . S
N660 C652 1.356 . S
N660 H666 0.984 . S
N660 H667 0.984 . S
N661 C654 1.356 . S
N661 H664 0.984 . S
N661 H665 0.985 . S
H662 N657 0.984 . S
H663 N657 0.985 . S
H664 N661 0.984 . S
H665 N661 0.985 . S
H666 N660 0.984 . S
H667 N660 0.984 . S
H668 N656 0.984 . S
H669 N656 0.985 . S
C670 C671 1.363 . S
C670 C676 1.379 . S
C670 N678 1.356 . S
C671 C670 1.363 . S
C671 C677 1.363 . S
C672 C673 1.363 . S
C672 C677 1.379 . S
C672 N679 1.356 . S
C673 C672 1.363 . S
C673 C676 1.363 . S
N674 C676 1.356 . S
N674 H686 0.984 . S
N674 H687 0.985 . S
N675 C677 1.356 . S
N675 H680 0.984 . S
N675 H681 0.985 . S
C676 C670 1.379 . S
C676 C673 1.363 . S
C676 N674 1.356 . S
C677 C671 1.363 . S
C677 C672 1.379 . S
C677 N675 1.356 . S
N678 C670 1.356 . S
N678 H684 0.984 . S
N678 H685 0.984 . S
N679 C672 1.356 . S
N679 H682 0.984 . S
N679 H683 0.985 . S
H680 N675 0.984 . S
H681 N675 0.985 . S
H682 N679 0.984 . S
H683 N679 0.985 . S
H684 N678 0.984 . S
H685 N678 0.984 . S
H686 N674 0.984 . S
H687 N674 0.985 . S
C257 C76 1.930 . S
C259 C98 2.211 . S
C277 C138 2.229 . S
C275 C88 1.950 . S
C295 C178 2.240 . S
C293 C52 1.966 . S
C313 C218 2.223 1_455 S
C311 C64 1.944 1_455 S
C331 C111 2.214 1_554 S
C329 C28 1.934 1_545 S
C347 C40 1.948 . S
C349 C151 2.231 1_554 S
C365 C4 1.960 . S
C367 C191 2.239 1_554 S
C383 C16 1.945 . S
C385 C231 2.223 1_654 S
C403 C122 0.763 . S
C401 C69 0.760 1_655 S
C421 C162 0.762 . S
C419 C81 0.761 1_565 S
C439 C202 0.751 . S
C437 C93 0.751 . S
C455 C57 0.750 . S
C457 C242 0.746 . S
C473 C21 0.762 . S
C475 C105 0.766 . S
C493 C145 0.762 . S
C491 C33 0.760 . S
C511 C185 0.751 . S
C509 C45 0.751 . S
C527 C9 0.750 . S
C529 C225 0.753 . S
C545 C66 2.249 . S
C547 C99 2.581 . S
C563 C78 2.207 . S
C565 C139 2.543 . S
C583 C179 2.529 . S
C581 C90 2.189 . S
C601 C219 2.571 . S
C599 C54 2.227 . S
C617 C18 2.259 1_655 S
C619 C118 2.588 . S
C637 C158 2.543 . S
C635 C30 2.216 1_565 S
C655 C198 2.529 . S
C653 C42 2.205 . S
C671 C6 2.247 . S
C673 C238 2.575 . S
