# Generated by pormake.
# Topology pyr, (3,6)-cn, num edge types: 1
# Building blocks:
#     Node 0, Type 0, BuildingBlock: INOVEN_clean_linker_0, # of connection points: 3
#     Node 1, Type 0, BuildingBlock: INOVEN_clean_linker_0, # of connection points: 3
#     Node 2, Type 0, BuildingBlock: INOVEN_clean_linker_0, # of connection points: 3
#     Node 3, Type 0, BuildingBlock: INOVEN_clean_linker_0, # of connection points: 3
#     Node 4, Type 0, BuildingBlock: INOVEN_clean_linker_0, # of connection points: 3
#     Node 5, Type 0, BuildingBlock: INOVEN_clean_linker_0, # of connection points: 3
#     Node 6, Type 0, BuildingBlock: INOVEN_clean_linker_0, # of connection points: 3
#     Node 7, Type 0, BuildingBlock: INOVEN_clean_linker_0, # of connection points: 3
#     Node 8, Type 1, BuildingBlock: CIFDUS_clean_sbu_1, # of connection points: 6
#     Node 9, Type 1, BuildingBlock: CIFDUS_clean_sbu_1, # of connection points: 6
#     Node 10, Type 1, BuildingBlock: CIFDUS_clean_sbu_1, # of connection points: 6
#     Node 11, Type 1, BuildingBlock: CIFDUS_clean_sbu_1, # of connection points: 6
#     Edge 12, Type (0, 1), BuildingBlock: AJUNOK_clean_linker_0, # of connection points: 2
#     Edge 13, Type (0, 1), BuildingBlock: AJUNOK_clean_linker_0, # of connection points: 2
#     Edge 14, Type (0, 1), BuildingBlock: AJUNOK_clean_linker_0, # of connection points: 2
#     Edge 15, Type (0, 1), BuildingBlock: AJUNOK_clean_linker_0, # of connection points: 2
#     Edge 16, Type (0, 1), BuildingBlock: AJUNOK_clean_linker_0, # of connection points: 2
#     Edge 17, Type (0, 1), BuildingBlock: AJUNOK_clean_linker_0, # of connection points: 2
#     Edge 18, Type (0, 1), BuildingBlock: AJUNOK_clean_linker_0, # of connection points: 2
#     Edge 19, Type (0, 1), BuildingBlock: AJUNOK_clean_linker_0, # of connection points: 2
#     Edge 20, Type (0, 1), BuildingBlock: AJUNOK_clean_linker_0, # of connection points: 2
#     Edge 21, Type (0, 1), BuildingBlock: AJUNOK_clean_linker_0, # of connection points: 2
#     Edge 22, Type (0, 1), BuildingBlock: AJUNOK_clean_linker_0, # of connection points: 2
#     Edge 23, Type (0, 1), BuildingBlock: AJUNOK_clean_linker_0, # of connection points: 2
#     Edge 24, Type (0, 1), BuildingBlock: AJUNOK_clean_linker_0, # of connection points: 2
#     Edge 25, Type (0, 1), BuildingBlock: AJUNOK_clean_linker_0, # of connection points: 2
#     Edge 26, Type (0, 1), BuildingBlock: AJUNOK_clean_linker_0, # of connection points: 2
#     Edge 27, Type (0, 1), BuildingBlock: AJUNOK_clean_linker_0, # of connection points: 2
#     Edge 28, Type (0, 1), BuildingBlock: AJUNOK_clean_linker_0, # of connection points: 2
#     Edge 29, Type (0, 1), BuildingBlock: AJUNOK_clean_linker_0, # of connection points: 2
#     Edge 30, Type (0, 1), BuildingBlock: AJUNOK_clean_linker_0, # of connection points: 2
#     Edge 31, Type (0, 1), BuildingBlock: AJUNOK_clean_linker_0, # of connection points: 2
#     Edge 32, Type (0, 1), BuildingBlock: AJUNOK_clean_linker_0, # of connection points: 2
#     Edge 33, Type (0, 1), BuildingBlock: AJUNOK_clean_linker_0, # of connection points: 2
#     Edge 34, Type (0, 1), BuildingBlock: AJUNOK_clean_linker_0, # of connection points: 2
#     Edge 35, Type (0, 1), BuildingBlock: AJUNOK_clean_linker_0, # of connection points: 2
# Relax obj value: 0.083
# Max RMSD: 0.167
# Mean RMSD: 0.131
data_MOF--net-pry--node1-CIFDUS_clean_sbu_1--node2-INOVEN_clean_linker_0--edge1-AJUNOK_clean_linker_0
_symmetry_space_group_name_H-M    P1
_symmetry_Int_Tables_number       1
_symmetry_cell_setting            triclinic
loop_
_symmetry_equiv_pos_as_xyz
'x, y, z'
_cell_length_a     26.169772
_cell_length_b     25.656615
_cell_length_c     26.042813
_cell_angle_alpha  92.594946
_cell_angle_beta   91.802162
_cell_angle_gamma 98.223531
loop_
_atom_site_label
_atom_site_type_symbol
_atom_site_fract_x
_atom_site_fract_y
_atom_site_fract_z
_atom_type_partial_charge
H0 H 0.10804 0.21976 0.23108 0.0
H1 H 0.20103 0.09417 0.22408 0.0
H2 H 0.19886 0.20105 0.10036 0.0
N3 N 0.13245 0.26034 0.14424 0.0
N4 N 0.1317 0.2715 0.09791 0.0
C5 C 0.13297 0.19664 0.21043 0.0
C6 C 0.14772 0.15109 0.23169 0.0
C7 C 0.14971 0.21378 0.16271 0.0
C8 C 0.1854 0.18704 0.13685 0.0
C9 C 0.20682 0.1453 0.15969 0.0
C10 C 0.18617 0.12657 0.20648 0.0
H11 H 0.39375 0.88438 0.58976 0.0
H12 H 0.46975 0.87202 0.73755 0.0
H13 H 0.37348 0.9924 0.7143 0.0
N14 N 0.33858 0.95599 0.62099 0.0
N15 N 0.29363 0.93441 0.6275 0.0
C16 C 0.40263 0.89765 0.62951 0.0
C17 C 0.43336 0.87083 0.66124 0.0
C18 C 0.37973 0.93964 0.64925 0.0
C19 C 0.39214 0.96009 0.69939 0.0
C20 C 0.42644 0.93752 0.73103 0.0
C21 C 0.44592 0.89172 0.71224 0.0
H22 H 0.60217 0.33997 0.8652 0.0
H23 H 0.70049 0.35266 1.00363 0.0
H24 H 0.69806 0.48473 0.91062 0.0
N25 N 0.63419 0.43505 0.83681 0.0
N26 N 0.65933 0.47604 0.82153 0.0
C27 C 0.62859 0.36266 0.89349 0.0
C28 C 0.64601 0.33921 0.93732 0.0
C29 C 0.64691 0.41491 0.88423 0.0
C30 C 0.68218 0.44473 0.91898 0.0
C31 C 0.70472 0.42063 0.95896 0.0
C32 C 0.68448 0.36914 0.97035 0.0
H33 H 0.81348 0.59136 0.42612 0.0
H34 H 0.86611 0.71485 0.54128 0.0
H35 H 0.96285 0.68274 0.41759 0.0
N36 N 0.89159 0.61673 0.36405 0.0
N37 N 0.91891 0.64527 0.33497 0.0
C38 C 0.84378 0.62091 0.44314 0.0
C39 C 0.83683 0.64766 0.49045 0.0
C40 C 0.88825 0.63516 0.41588 0.0
C41 C 0.92747 0.67317 0.43793 0.0
C42 C 0.91744 0.7064 0.47932 0.0
C43 C 0.8736 0.69103 0.50785 0.0
H44 H 0.8657 0.9794 0.84031 0.0
H45 H 0.96494 0.85874 0.84173 0.0
H46 H 0.87353 0.88885 0.97247 0.0
N47 N 0.81868 0.95369 0.92346 0.0
N48 N 0.81074 0.96691 0.96895 0.0
C49 C 0.88154 0.94786 0.85841 0.0
C50 C 0.91783 0.92107 0.83345 0.0
C51 C 0.86462 0.93527 0.90728 0.0
C52 C 0.88646 0.89707 0.93426 0.0
C53 C 0.92278 0.86834 0.91128 0.0
C54 C 0.93816 0.88105 0.86061 0.0
H55 H 0.58022 0.16481 0.37445 0.0
H56 H 0.7166 0.0904 0.36553 0.0
H57 H 0.7021 0.20304 0.49051 0.0
N58 N 0.60889 0.22674 0.45444 0.0
N59 N 0.62446 0.25939 0.49048 0.0
C60 C 0.6169 0.15757 0.39117 0.0
C61 C 0.64524 0.12284 0.36544 0.0
C62 C 0.63701 0.18689 0.43572 0.0
C63 C 0.68579 0.17972 0.45665 0.0
C64 C 0.71466 0.14425 0.43186 0.0
C65 C 0.69411 0.11644 0.38594 0.0
H66 H 0.43588 0.76038 0.23841 0.0
H67 H 0.32749 0.74154 0.10896 0.0
H68 H 0.31551 0.62699 0.22451 0.0
N69 N 0.39327 0.67809 0.28615 0.0
N70 N 0.36703 0.64293 0.30943 0.0
C71 C 0.40353 0.73739 0.21688 0.0
C72 C 0.38514 0.75519 0.17098 0.0
C73 C 0.37821 0.69152 0.2366 0.0
C74 C 0.3362 0.66199 0.20878 0.0
C75 C 0.31777 0.67999 0.16273 0.0
C76 C 0.34275 0.72633 0.14356 0.0
H77 H 0.04551 0.40043 0.64507 0.0
H78 H 0.17216 0.36638 0.55278 0.0
H79 H 0.19376 0.49264 0.6683 0.0
N80 N 0.10359 0.46192 0.71191 0.0
N81 N 0.13553 0.48374 0.74553 0.0
C82 C 0.08519 0.40866 0.6338 0.0
C83 C 0.10548 0.37439 0.59892 0.0
C84 C 0.11816 0.44752 0.66208 0.0
C85 C 0.16816 0.4625 0.64587 0.0
C86 C 0.18624 0.43702 0.60271 0.0
C87 C 0.1558 0.3906 0.58116 0.0
O88 O 0.94221 0.07781 0.51595 0.0
Mn89 Mn 0.00975 0.04099 0.52705 0.0
O90 O 0.91208 0.04675 0.43793 0.0
Mn91 Mn 0.95908 1.00122 0.43092 0.0
O92 O 0.07554 1.00232 0.53726 0.0
O93 O 0.04078 0.11019 0.56713 0.0
Mn94 Mn 0.08034 0.08348 0.61272 0.0
O95 O 0.97915 0.00846 0.59615 0.0
O96 O 0.13371 0.06009 0.5804 0.0
O97 O 0.04524 0.0756 0.46015 0.0
O98 O 0.01462 0.02316 0.39301 0.0
O99 O 0.09149 0.15142 0.63207 0.0
O100 O 0.04262 0.03734 0.65483 0.0
C101 C 0.95463 0.92919 0.46004 0.0
C102 C 0.9097 0.0764 0.47749 0.0
C103 C 0.12235 0.01831 0.55293 0.0
C104 C 0.06054 0.15414 0.59265 0.0
C105 C 0.9995 0.00943 0.64234 0.0
C106 C 0.04677 0.06069 0.41217 0.0
O107 O 0.9771 0.97095 0.48789 0.0
O108 O 0.93116 0.93575 0.41663 0.0
O109 O 0.47334 0.03916 0.97647 0.0
Mn110 Mn 0.50541 0.04735 0.05313 0.0
O111 O 0.52193 0.98229 0.94847 0.0
Mn112 Mn 0.51704 0.9468 1.0083 0.0
O113 O 0.53683 0.05274 0.13011 0.0
O114 O 0.52686 0.12595 0.04417 0.0
Mn115 Mn 0.51058 0.15553 0.10313 0.0
O116 O 0.42939 0.06048 0.07753 0.0
O117 O 0.55189 0.13811 0.15541 0.0
O118 O 0.58218 0.03398 0.02963 0.0
O119 O 0.58021 0.94803 0.0385 0.0
O120 O 0.53566 0.21137 0.06809 0.0
O121 O 0.44091 0.14348 0.11106 0.0
C122 C 0.45115 0.92869 0.05182 0.0
C123 C 0.48984 0.01271 0.93913 0.0
C124 C 0.55637 0.09055 0.16228 0.0
C125 C 0.54245 0.17485 0.03396 0.0
C126 C 0.41144 0.10104 0.09791 0.0
C127 C 0.60603 0.99285 0.03281 0.0
O128 O 0.48585 0.96928 0.06363 0.0
O129 O 0.45631 0.90388 1.00852 0.0
O130 O 0.59466 0.58478 0.56696 0.0
Mn131 Mn 0.51458 0.55797 0.56555 0.0
O132 O 0.6191 0.5748 0.48483 0.0
Mn133 Mn 0.55875 0.53671 0.45778 0.0
O134 O 0.43457 0.52919 0.56292 0.0
O135 O 0.51813 0.55509 0.64155 0.0
Mn136 Mn 0.46363 0.57348 0.67067 0.0
O137 O 0.49948 0.63669 0.57545 0.0
O138 O 0.40955 0.52451 0.6447 0.0
O139 O 0.53096 0.47937 0.55631 0.0
O140 O 0.54926 0.46694 0.47273 0.0
O141 O 0.50786 0.56127 0.72374 0.0
O142 O 0.46315 0.64209 0.653 0.0
C143 C 0.49144 0.57262 0.44602 0.0
C144 C 0.6288 0.58874 0.53212 0.0
C145 C 0.40126 0.51422 0.59666 0.0
C146 C 0.53794 0.55259 0.68677 0.0
C147 C 0.48054 0.66261 0.61227 0.0
C148 C 0.54135 0.45002 0.51737 0.0
O149 O 0.51016 0.56292 0.48995 0.0
O150 O 0.51804 0.56038 0.40738 0.0
O151 O 0.94524 0.52432 1.00971 0.0
Mn152 Mn 0.01578 0.5682 0.02708 0.0
O153 O 0.91503 0.56954 0.94949 0.0
Mn154 Mn 0.98077 0.5914 0.92653 0.0
O155 O 0.08721 0.60536 0.05361 0.0
O156 O 0.98716 0.57319 0.10174 0.0
Mn157 Mn 0.02227 0.51978 0.11248 0.0
O158 O 0.05102 0.49635 0.02794 0.0
O159 O 0.09186 0.55185 0.1194 0.0
O160 O 0.98983 0.646 1.0174 0.0
O161 O 1.0 0.66135 0.93408 0.0
O162 O 0.98335 0.51607 0.16581 0.0
O163 O 1.00337 0.45444 0.08067 0.0
C164 C 0.03074 0.53652 0.91156 0.0
C165 C 0.90773 0.53612 0.98342 0.0
C166 C 0.11176 0.58963 0.09217 0.0
C167 C 0.96993 0.55781 0.14651 0.0
C168 C 0.03527 0.45219 0.04702 0.0
C169 C 0.99453 0.67845 0.97954 0.0
O170 O 0.03736 0.5678 0.95278 0.0
O171 O 0.99614 0.54572 0.87782 0.0
C172 C 0.15138 0.10824 0.31887 0.0
C173 C 0.12315 0.1309 0.28051 0.0
C174 C 0.12818 0.08918 0.36422 0.0
C175 C 0.07615 0.09317 0.37379 0.0
H176 H 0.1916 0.10458 0.31373 0.0
H177 H 0.15052 0.06939 0.3909 0.0
S178 S 0.98352 0.14519 0.28612 0.0
N179 N 0.03797 0.15164 0.25526 0.0
N180 N 0.99693 0.12016 0.3413 0.0
C181 C 0.04791 0.11629 0.33657 0.0
C182 C 0.0706 0.134 0.28995 0.0
C183 C 0.42866 0.92761 0.82644 0.0
C184 C 0.43809 0.95995 0.78476 0.0
C185 C 0.43988 0.94762 0.87721 0.0
C186 C 0.46173 1.00066 0.88868 0.0
H187 H 0.41321 0.88628 0.81975 0.0
H188 H 0.43441 0.92033 0.90777 0.0
S189 S 0.49181 0.10227 0.79354 0.0
N190 N 0.4678 0.0486 0.75834 0.0
N191 N 0.49074 0.08536 0.85403 0.0
C192 C 0.46951 0.03392 0.8476 0.0
C193 C 0.45729 0.01376 0.79566 0.0
C194 C 0.64946 0.55084 0.77139 0.0
C195 C 0.64598 0.49617 0.77437 0.0
C196 C 0.62057 0.57186 0.73358 0.0
C197 C 0.58838 0.53825 0.69818 0.0
H198 H 0.66911 0.57685 0.80202 0.0
H199 H 0.61763 0.61361 0.7367 0.0
S200 S 0.57811 0.39352 0.68211 0.0
N201 N 0.61771 0.40971 0.7327 0.0
N202 N 0.56347 0.44963 0.66136 0.0
C203 C 0.59216 0.48454 0.69538 0.0
C204 C 0.62075 0.46306 0.73418 0.0
C205 C 0.89304 0.62041 0.24427 0.0
C206 C 0.93026 0.62842 0.28508 0.0
C207 C 0.90665 0.60337 0.19496 0.0
C208 C 0.95788 0.59566 0.18606 0.0
H209 H 0.85344 0.62566 0.25101 0.0
H210 H 0.87676 0.593 0.16505 0.0
S211 S 0.06588 0.60562 0.28283 0.0
N212 N 0.01762 0.62425 0.3147 0.0
N213 N 0.04407 0.59487 0.2227 0.0
C214 C 0.99513 0.60634 0.22656 0.0
C215 C 0.98097 0.6217 0.27615 0.0
C216 C 0.29225 0.16634 0.11827 0.0
C217 C 0.25524 0.12783 0.13797 0.0
C218 C 0.33981 0.15485 0.1016 0.0
C219 C 0.35494 0.10441 0.10486 0.0
H220 H 0.28581 0.20705 0.1176 0.0
H221 H 0.36632 0.1873 0.0881 0.0
S222 S 0.27066 0.98635 0.1468 0.0
N223 N 0.23499 0.03428 0.15386 0.0
N224 N 0.32637 0.01355 0.12486 0.0
C225 C 0.31771 0.06422 0.12182 0.0
C226 C 0.2679 0.07581 0.13822 0.0
C227 C 0.20082 0.9308 0.61827 0.0
C228 C 0.25001 0.94796 0.60025 0.0
C229 C 0.15673 0.94774 0.59665 0.0
C230 C 0.16068 0.98235 0.55617 0.0
H231 H 0.19691 0.90669 0.65141 0.0
H232 H 0.12021 0.93794 0.61501 0.0
S233 S 0.27953 0.03289 0.49024 0.0
N234 N 0.29945 0.99655 0.53547 0.0
N235 N 0.21641 0.02919 0.49567 0.0
C236 C 0.20908 0.99655 0.53527 0.0
C237 C 0.25399 0.97931 0.55717 0.0
C238 C 0.79331 0.44312 0.93206 0.0
C239 C 0.75879 0.44196 0.97243 0.0
C240 C 0.84179 0.47322 0.93685 0.0
C241 C 0.8582 0.50189 0.98273 0.0
H242 H 0.78139 0.42299 0.89519 0.0
H243 H 0.86628 0.475 0.90397 0.0
S244 S 0.78583 0.50601 0.10253 0.0
N245 N 0.74555 0.46848 0.06124 0.0
N246 N 0.83937 0.52328 0.07151 0.0
C247 C 0.82606 0.49797 0.02507 0.0
C248 C 0.77552 0.46823 1.01965 0.0
C249 C 0.7674 0.58105 0.52192 0.0
C250 C 0.78763 0.63432 0.51706 0.0
C251 C 0.71638 0.56652 0.53593 0.0
C252 C 0.68377 0.60468 0.5454 0.0
H253 H 0.78997 0.55022 0.51134 0.0
H254 H 0.7007 0.52497 0.53393 0.0
S255 S 0.71992 0.74932 0.54632 0.0
N256 N 0.77256 0.72559 0.52903 0.0
N257 N 0.67673 0.69752 0.55612 0.0
C258 C 0.70494 0.65795 0.54626 0.0
C259 C 0.75692 0.673 0.5317 0.0
C260 C 0.11736 0.36411 0.11574 0.0
C261 C 0.11407 0.31904 0.08215 0.0
C262 C 0.09583 0.40897 0.10161 0.0
C263 C 0.06955 0.41075 0.05355 0.0
H264 H 0.13562 0.36429 0.15366 0.0
H265 H 0.09737 0.44163 0.12976 0.0
S266 S 0.05172 0.30369 0.95164 0.0
N267 N 0.08494 0.28003 0.99799 0.0
N268 N 0.04274 0.36341 0.97246 0.0
C269 C 0.06769 0.36673 1.01916 0.0
C270 C 0.09045 0.32128 0.0332 0.0
C271 C 0.57031 0.26715 0.93611 0.0
C272 C 0.62325 0.28423 0.94803 0.0
C273 C 0.5447 0.22106 0.95547 0.0
C274 C 0.57053 0.19161 0.98897 0.0
H275 H 0.54691 0.29179 0.91594 0.0
H276 H 0.50296 0.21314 0.95065 0.0
S277 S 0.7108 0.21031 0.02145 0.0
N278 N 0.70284 0.25951 0.98469 0.0
N279 N 0.65282 0.17598 0.02565 0.0
C280 C 0.62431 0.20372 0.99543 0.0
C281 C 0.65103 0.24978 0.97442 0.0
C282 C 0.94914 0.78546 0.43181 0.0
C283 C 0.9414 0.76285 0.47978 0.0
C284 C 0.95895 0.83942 0.42772 0.0
C285 C 0.95966 0.87425 0.47092 0.0
H286 H 0.94358 0.76206 0.3959 0.0
H287 H 0.96216 0.8539 0.38929 0.0
S288 S 0.95523 0.83686 0.60649 0.0
N289 N 0.94633 0.7799 0.57274 0.0
N290 N 0.96174 0.88335 0.56423 0.0
C291 C 0.95751 0.8532 0.51973 0.0
C292 C 0.94863 0.79708 0.52423 0.0
C293 C 0.49753 0.8058 0.65419 0.0
C294 C 0.4485 0.8194 0.64159 0.0
C295 C 0.51067 0.75623 0.6388 0.0
C296 C 0.47581 0.71884 0.60928 0.0
H297 H 0.52541 0.83293 0.67744 0.0
H298 H 0.54711 0.7458 0.65282 0.0
S299 S 0.34305 0.73332 0.5658 0.0
N300 N 0.36457 0.78931 0.59821 0.0
N301 N 0.39131 0.69844 0.56716 0.0
C302 C 0.42795 0.73257 0.59435 0.0
C303 C 0.41376 0.78216 0.61104 0.0
C304 C 0.98684 0.93635 0.76691 0.0
C305 C 0.935 0.93641 0.78005 0.0
C306 C 1.00586 0.95676 0.72072 0.0
C307 C 0.9743 0.97843 0.68476 0.0
H308 H 0.014 0.92281 0.79364 0.0
H309 H 0.04659 0.9574 0.71401 0.0
S310 S 0.83459 0.98453 0.69657 0.0
N311 N 0.85087 0.95593 0.74901 0.0
N312 N 0.88791 0.99647 0.66422 0.0
C313 C 0.92195 0.97667 0.69572 0.0
C314 C 0.90213 0.95536 0.7427 0.0
C315 C 0.65558 0.1167 0.27055 0.0
C316 C 0.62681 0.10061 0.3132 0.0
C317 C 0.63415 0.10758 0.22031 0.0
C318 C 0.58359 0.08109 0.21071 0.0
H319 H 0.69331 0.14025 0.27626 0.0
H320 H 0.65587 0.12492 0.18901 0.0
S321 S 0.49445 0.02554 0.30837 0.0
N322 N 0.54666 0.05305 0.34222 0.0
N323 N 0.50699 0.03504 0.24742 0.0
C324 C 0.55598 0.0611 0.25254 0.0
C325 C 0.57741 0.07117 0.30391 0.0
C326 C 0.4189 0.6653 0.38937 0.0
C327 C 0.38382 0.6295 0.35841 0.0
C328 C 0.44813 0.64735 0.42886 0.0
C329 C 0.44345 0.59337 0.43725 0.0
H330 H 0.42733 0.70622 0.37986 0.0
H331 H 0.47962 0.67445 0.44736 0.0
S332 S 0.34878 0.4869 0.37463 0.0
N333 N 0.33887 0.54048 0.34514 0.0
N334 N 0.39462 0.50639 0.4193 0.0
C335 C 0.40288 0.55905 0.41223 0.0
C336 C 0.37294 0.5773 0.37225 0.0
C337 C 0.13695 0.53798 0.82481 0.0
C338 C 0.12015 0.49053 0.79661 0.0
C339 C 0.11373 0.54967 0.87089 0.0
C340 C 0.0733 0.51399 0.8893 0.0
H341 H 0.16448 0.56792 0.80878 0.0
H342 H 0.12249 0.58933 0.88815 0.0
S343 S 0.02467 0.37974 0.83528 0.0
N344 N 0.06862 0.40367 0.79511 0.0
N345 N 0.02392 0.42652 0.88085 0.0
C346 C 0.06147 0.46384 0.86494 0.0
C347 C 0.08489 0.45196 0.81833 0.0
C348 C 0.75229 0.02043 1.01367 0.0
C349 C 0.76025 0.97626 0.98228 0.0
C350 C 0.702 0.02816 0.02812 0.0
C351 C 0.65858 0.9911 1.01255 0.0
H352 H 0.78508 0.04894 0.02711 0.0
H353 H 0.69736 0.062 0.05302 0.0
S354 S 0.65999 0.8685 0.9304 0.0
N355 N 0.72111 0.89536 0.93664 0.0
N356 N 0.62775 0.90925 0.96241 0.0
C357 C 0.66668 0.94733 0.98029 0.0
C358 C 0.71717 0.93994 0.96568 0.0
C359 C 0.80803 0.14401 0.41546 0.0
C360 C 0.76809 0.13865 0.45046 0.0
C361 C 0.85636 0.12967 0.42773 0.0
C362 C 0.86705 0.10881 0.47542 0.0
H363 H 0.80103 0.15692 0.37715 0.0
H364 H 0.88448 0.13117 0.39793 0.0
S365 S 0.77826 0.09388 0.58346 0.0
N366 N 0.74435 0.11723 0.5374 0.0
N367 N 0.83543 0.0889 0.55997 0.0
C368 C 0.82913 0.10745 0.51253 0.0
C369 C 0.77957 0.12265 0.50013 0.0
C370 C 0.25637 0.63439 0.09304 0.0
C371 C 0.26565 0.65836 0.14271 0.0
C372 C 0.20581 0.61344 0.07566 0.0
C373 C 0.16376 0.61661 0.10749 0.0
H374 H 0.28827 0.63095 0.06817 0.0
H375 H 0.1997 0.59357 0.03791 0.0
S376 S 0.1683 0.68556 0.23604 0.0
N377 N 0.22917 0.69014 0.22032 0.0
N378 N 0.13454 0.65228 0.18741 0.0
C379 C 0.17282 0.64337 0.15574 0.0
C380 C 0.22378 0.66401 0.17341 0.0
C381 C 0.27599 0.42125 0.57944 0.0
C382 C 0.23958 0.45627 0.58634 0.0
C383 C 0.32913 0.44015 0.57709 0.0
C384 C 0.34722 0.49455 0.58088 0.0
H385 H 0.26404 0.37911 0.58009 0.0
H386 H 0.35639 0.41212 0.57619 0.0
S387 S 0.26817 0.60263 0.59414 0.0
N388 N 0.22573 0.5483 0.59154 0.0
N389 N 0.32516 0.58294 0.58868 0.0
C390 C 0.31111 0.52977 0.58396 0.0
C391 C 0.25737 0.51087 0.58612 0.0
C392 C 0.99491 0.81546 0.93396 0.0
C393 C 0.94324 0.82408 0.93914 0.0
C394 C 0.01363 0.77152 0.95448 0.0
C395 C 0.98202 0.73368 0.98173 0.0
H396 H 0.02092 0.84187 0.91214 0.0
H397 H 0.05234 0.76479 0.94531 0.0
S398 S 0.84521 0.73861 1.01075 0.0
N399 N 0.86148 0.79119 0.97725 0.0
N400 N 0.89758 0.70994 1.01602 0.0
C401 C 0.93161 0.74361 0.99065 0.0
C402 C 0.91204 0.78819 0.96932 0.0
C403 C 0.3814 0.84827 0.15189 0.0
C404 C 0.4088 0.80489 0.1516 0.0
C405 C 0.39717 0.89151 0.12231 0.0
C406 C 0.44057 0.89174 0.09232 0.0
H407 H 0.34595 0.84713 0.17247 0.0
H408 H 0.37372 0.92289 0.12031 0.0
S409 S 0.52752 0.78944 0.0829 0.0
N410 N 0.48254 0.76605 0.12226 0.0
N411 N 0.51365 0.8478 0.06804 0.0
C412 C 0.47064 0.85043 0.09557 0.0
C413 C 0.45426 0.80658 0.1249 0.0
C414 C 0.08491 0.28876 0.5444 0.0
C415 C 0.07864 0.31857 0.59015 0.0
C416 C 0.07066 0.23354 0.54077 0.0
C417 C 0.04814 0.20672 0.58215 0.0
H418 H 0.10429 0.30751 0.51251 0.0
H419 H 0.08214 0.21143 0.50772 0.0
S420 S 0.01691 0.26416 0.70786 0.0
N421 N 0.04524 0.3145 0.67717 0.0
N422 N 0.01338 0.21316 0.66655 0.0
C423 C 0.0353 0.23634 0.62495 0.0
C424 C 0.05219 0.29161 0.63022 0.0
C425 C 0.61742 0.33977 0.54198 0.0
C426 C 0.59605 0.3012 0.5043 0.0
C427 C 0.59577 0.38637 0.55076 0.0
C428 C 0.55126 0.39541 0.52293 0.0
H429 H 0.65317 0.33541 0.56232 0.0
H430 H 0.61666 0.41741 0.57607 0.0
S431 S 0.47844 0.30625 0.42149 0.0
N432 N 0.52594 0.27465 0.44011 0.0
N433 N 0.48546 0.36159 0.45751 0.0
C434 C 0.52779 0.35587 0.48721 0.0
C435 C 0.55 0.30885 0.47768 0.0
loop_
_geom_bond_atom_site_label_1
_geom_bond_atom_site_label_2
_geom_bond_distance
_geom_bond_site_symmetry_2
_ccdc_geom_bond_type
H0 C5 0.929 . S
H1 C10 0.931 . S
H2 C8 0.930 . S
N3 N4 1.234 . S
N3 C7 1.453 . S
N4 N3 1.234 . S
C5 H0 0.929 . S
C5 C6 1.373 . S
C5 C7 1.368 . S
C6 C5 1.373 . S
C6 C10 1.397 . S
C7 N3 1.453 . S
C7 C5 1.368 . S
C7 C8 1.373 . S
C8 H2 0.930 . S
C8 C7 1.373 . S
C8 C9 1.371 . S
C9 C8 1.371 . S
C9 C10 1.383 . S
C10 H1 0.931 . S
C10 C6 1.397 . S
C10 C9 1.383 . S
H11 C16 0.929 . S
H12 C21 0.931 . S
H13 C19 0.930 . S
N14 N15 1.234 . S
N14 C18 1.453 . S
N15 N14 1.234 . S
C16 H11 0.929 . S
C16 C17 1.373 . S
C16 C18 1.368 . S
C17 C16 1.373 . S
C17 C21 1.397 . S
C18 N14 1.453 . S
C18 C16 1.368 . S
C18 C19 1.373 . S
C19 H13 0.930 . S
C19 C18 1.373 . S
C19 C20 1.371 . S
C20 C19 1.371 . S
C20 C21 1.383 . S
C21 H12 0.931 . S
C21 C17 1.397 . S
C21 C20 1.383 . S
H22 C27 0.929 . S
H23 C32 0.931 . S
H24 C30 0.930 . S
N25 N26 1.234 . S
N25 C29 1.453 . S
N26 N25 1.234 . S
C27 H22 0.929 . S
C27 C28 1.373 . S
C27 C29 1.368 . S
C28 C27 1.373 . S
C28 C32 1.397 . S
C29 N25 1.453 . S
C29 C27 1.368 . S
C29 C30 1.373 . S
C30 H24 0.930 . S
C30 C29 1.373 . S
C30 C31 1.371 . S
C31 C30 1.371 . S
C31 C32 1.383 . S
C32 H23 0.931 . S
C32 C28 1.397 . S
C32 C31 1.383 . S
H33 C38 0.929 . S
H34 C43 0.931 . S
H35 C41 0.930 . S
N36 N37 1.234 . S
N36 C40 1.453 . S
N37 N36 1.234 . S
C38 H33 0.929 . S
C38 C39 1.373 . S
C38 C40 1.368 . S
C39 C38 1.373 . S
C39 C43 1.397 . S
C40 N36 1.453 . S
C40 C38 1.368 . S
C40 C41 1.373 . S
C41 H35 0.930 . S
C41 C40 1.373 . S
C41 C42 1.371 . S
C42 C41 1.371 . S
C42 C43 1.383 . S
C43 H34 0.931 . S
C43 C39 1.397 . S
C43 C42 1.383 . S
H44 C49 0.929 . S
H45 C54 0.931 . S
H46 C52 0.930 . S
N47 N48 1.234 . S
N47 C51 1.453 . S
N48 N47 1.234 . S
C49 H44 0.929 . S
C49 C50 1.373 . S
C49 C51 1.368 . S
C50 C49 1.373 . S
C50 C54 1.397 . S
C51 N47 1.453 . S
C51 C49 1.368 . S
C51 C52 1.373 . S
C52 H46 0.930 . S
C52 C51 1.373 . S
C52 C53 1.371 . S
C53 C52 1.371 . S
C53 C54 1.383 . S
C54 H45 0.931 . S
C54 C50 1.397 . S
C54 C53 1.383 . S
H55 C60 0.929 . S
H56 C65 0.931 . S
H57 C63 0.930 . S
N58 N59 1.234 . S
N58 C62 1.453 . S
N59 N58 1.234 . S
C60 H55 0.929 . S
C60 C61 1.373 . S
C60 C62 1.368 . S
C61 C60 1.373 . S
C61 C65 1.397 . S
C62 N58 1.453 . S
C62 C60 1.368 . S
C62 C63 1.373 . S
C63 H57 0.930 . S
C63 C62 1.373 . S
C63 C64 1.371 . S
C64 C63 1.371 . S
C64 C65 1.383 . S
C65 H56 0.931 . S
C65 C61 1.397 . S
C65 C64 1.383 . S
H66 C71 0.929 . S
H67 C76 0.931 . S
H68 C74 0.930 . S
N69 N70 1.234 . S
N69 C73 1.453 . S
N70 N69 1.234 . S
C71 H66 0.929 . S
C71 C72 1.373 . S
C71 C73 1.368 . S
C72 C71 1.373 . S
C72 C76 1.397 . S
C73 N69 1.453 . S
C73 C71 1.368 . S
C73 C74 1.373 . S
C74 H68 0.930 . S
C74 C73 1.373 . S
C74 C75 1.371 . S
C75 C74 1.371 . S
C75 C76 1.383 . S
C76 H67 0.931 . S
C76 C72 1.397 . S
C76 C75 1.383 . S
H77 C82 0.929 . S
H78 C87 0.931 . S
H79 C85 0.930 . S
N80 N81 1.234 . S
N80 C84 1.453 . S
N81 N80 1.234 . S
C82 H77 0.929 . S
C82 C83 1.373 . S
C82 C84 1.368 . S
C83 C82 1.373 . S
C83 C87 1.397 . S
C84 N80 1.453 . S
C84 C82 1.368 . S
C84 C85 1.373 . S
C85 H79 0.930 . S
C85 C84 1.373 . S
C85 C86 1.371 . S
C86 C85 1.371 . S
C86 C87 1.383 . S
C87 H78 0.931 . S
C87 C83 1.397 . S
C87 C86 1.383 . S
O88 Mn89 2.163 1_655 S
O88 C102 1.244 . S
Mn89 O88 2.163 1_455 S
Mn89 O92 2.168 . S
Mn89 O93 2.221 . S
Mn89 O95 2.163 1_445 S
Mn89 O97 2.160 . S
Mn89 O107 2.221 1_445 S
O90 Mn91 2.087 1_545 S
O90 C102 1.256 . S
Mn91 O90 2.087 1_565 S
Mn91 O98 2.089 1_565 S
Mn91 O107 2.290 . S
Mn91 O108 2.251 . S
O92 Mn89 2.168 . S
O92 C103 1.235 1_545 S
O93 Mn89 2.221 . S
O93 Mn94 2.290 . S
O93 C104 1.278 . S
Mn94 O93 2.290 . S
Mn94 O96 2.089 . S
Mn94 O99 2.251 . S
Mn94 O100 2.087 . S
O95 Mn89 2.163 1_665 S
O95 C105 1.244 . S
O96 Mn94 2.089 . S
O96 C103 1.256 1_545 S
O97 Mn89 2.160 . S
O97 C106 1.239 . S
O98 Mn91 2.089 1_545 S
O98 C106 1.256 1_655 S
O99 Mn94 2.251 . S
O99 C104 1.241 . S
O100 Mn94 2.087 . S
O100 C105 1.256 1_445 S
C101 O107 1.278 . S
C101 O108 1.241 . S
C102 O88 1.244 . S
C102 O90 1.256 . S
C103 O92 1.235 1_565 S
C103 O96 1.256 1_565 S
C104 O93 1.278 . S
C104 O99 1.241 . S
C105 O95 1.244 . S
C105 O100 1.256 1_665 S
C106 O97 1.239 . S
C106 O98 1.256 1_455 S
O107 Mn89 2.221 1_665 S
O107 Mn91 2.290 . S
O107 C101 1.278 . S
O108 Mn91 2.251 . S
O108 C101 1.241 . S
O109 Mn110 2.163 1_556 S
O109 C123 1.244 1_545 S
Mn110 O109 2.163 1_554 S
Mn110 O113 2.160 . S
Mn110 O114 2.221 . S
Mn110 O116 2.163 . S
Mn110 O118 2.160 . S
Mn110 O128 2.221 1_545 S
O111 Mn112 2.087 . S
O111 C123 1.256 . S
Mn112 O111 2.087 . S
Mn112 O119 2.089 . S
Mn112 O128 2.290 1_556 S
Mn112 O129 2.251 1_556 S
O113 Mn110 2.160 . S
O113 C124 1.239 . S
O114 Mn110 2.221 . S
O114 Mn115 2.290 . S
O114 C125 1.278 1_554 S
Mn115 O114 2.290 . S
Mn115 O117 2.089 . S
Mn115 O120 2.251 . S
Mn115 O121 2.087 . S
O116 Mn110 2.163 . S
O116 C126 1.244 . S
O117 Mn115 2.089 . S
O117 C124 1.256 . S
O118 Mn110 2.160 . S
O118 C127 1.239 1_544 S
O119 Mn112 2.089 . S
O119 C127 1.256 . S
O120 Mn115 2.251 . S
O120 C125 1.241 1_554 S
O121 Mn115 2.087 . S
O121 C126 1.256 . S
C122 O128 1.278 . S
C122 O129 1.241 . S
C123 O109 1.244 1_565 S
C123 O111 1.256 . S
C124 O113 1.239 . S
C124 O117 1.256 . S
C125 O114 1.278 1_556 S
C125 O120 1.241 1_556 S
C126 O116 1.244 . S
C126 O121 1.256 . S
C127 O118 1.239 1_566 S
C127 O119 1.256 . S
O128 Mn110 2.221 1_565 S
O128 Mn112 2.290 1_554 S
O128 C122 1.278 . S
O129 Mn112 2.251 1_554 S
O129 C122 1.241 . S
O130 Mn131 2.163 . S
O130 C144 1.244 . S
Mn131 O130 2.163 . S
Mn131 O134 2.160 . S
Mn131 O135 2.221 . S
Mn131 O137 2.163 . S
Mn131 O139 2.160 . S
Mn131 O149 2.221 . S
O132 Mn133 2.087 . S
O132 C144 1.256 . S
Mn133 O132 2.087 . S
Mn133 O140 2.089 . S
Mn133 O149 2.290 . S
Mn133 O150 2.251 . S
O134 Mn131 2.160 . S
O134 C145 1.239 . S
O135 Mn131 2.221 . S
O135 Mn136 2.290 . S
O135 C146 1.278 . S
Mn136 O135 2.290 . S
Mn136 O138 2.089 . S
Mn136 O141 2.251 . S
Mn136 O142 2.087 . S
O137 Mn131 2.163 . S
O137 C147 1.244 . S
O138 Mn136 2.089 . S
O138 C145 1.256 . S
O139 Mn131 2.160 . S
O139 C148 1.239 . S
O140 Mn133 2.089 . S
O140 C148 1.256 . S
O141 Mn136 2.251 . S
O141 C146 1.241 . S
O142 Mn136 2.087 . S
O142 C147 1.256 . S
C143 O149 1.278 . S
C143 O150 1.241 . S
C144 O130 1.244 . S
C144 O132 1.256 . S
C145 O134 1.239 . S
C145 O138 1.256 . S
C146 O135 1.278 . S
C146 O141 1.241 . S
C147 O137 1.244 . S
C147 O142 1.256 . S
C148 O139 1.239 . S
C148 O140 1.256 . S
O149 Mn131 2.221 . S
O149 Mn133 2.290 . S
O149 C143 1.278 . S
O150 Mn133 2.251 . S
O150 C143 1.241 . S
O151 Mn152 2.163 1_656 S
O151 C165 1.244 . S
Mn152 O151 2.163 1_454 S
Mn152 O155 2.160 . S
Mn152 O156 2.221 . S
Mn152 O158 2.163 . S
Mn152 O160 2.160 1_554 S
Mn152 O170 2.221 1_554 S
O153 Mn154 2.087 . S
O153 C165 1.256 . S
Mn154 O153 2.087 . S
Mn154 O161 2.089 . S
Mn154 O170 2.290 1_655 S
Mn154 O171 2.251 1_655 S
O155 Mn152 2.160 . S
O155 C166 1.239 . S
O156 Mn152 2.221 . S
O156 Mn157 2.290 . S
O156 C167 1.278 1_455 S
Mn157 O156 2.290 . S
Mn157 O159 2.089 . S
Mn157 O162 2.251 1_455 S
Mn157 O163 2.087 . S
O158 Mn152 2.163 . S
O158 C168 1.244 . S
O159 Mn157 2.089 . S
O159 C166 1.256 . S
O160 Mn152 2.160 1_556 S
O160 C169 1.239 1_455 S
O161 Mn154 2.089 . S
O161 C169 1.256 . S
O162 Mn157 2.251 1_655 S
O162 C167 1.241 . S
O163 Mn157 2.087 . S
O163 C168 1.256 . S
C164 O170 1.278 . S
C164 O171 1.241 . S
C165 O151 1.244 . S
C165 O153 1.256 . S
C166 O155 1.239 . S
C166 O159 1.256 . S
C167 O156 1.278 1_655 S
C167 O162 1.241 . S
C168 O158 1.244 . S
C168 O163 1.256 . S
C169 O160 1.239 1_655 S
C169 O161 1.256 . S
O170 Mn152 2.221 1_556 S
O170 Mn154 2.290 1_455 S
O170 C164 1.278 . S
O171 Mn154 2.251 1_455 S
O171 C164 1.241 . S
C172 C173 1.369 . S
C172 C174 1.419 . S
C172 H176 0.930 . S
C173 C172 1.369 . S
C173 C182 1.429 . S
C174 C172 1.419 . S
C174 C175 1.363 . S
C174 H177 0.929 . S
C175 C174 1.363 . S
C175 C181 1.428 . S
H176 C172 0.930 . S
H177 C174 0.929 . S
S178 N179 1.613 1_655 S
S178 N180 1.610 . S
N179 S178 1.613 1_455 S
N179 C182 1.350 . S
N180 S178 1.610 . S
N180 C181 1.351 1_655 S
C181 C175 1.428 . S
C181 N180 1.351 1_455 S
C181 C182 1.434 . S
C182 C173 1.429 . S
C182 N179 1.350 . S
C182 C181 1.434 . S
C183 C184 1.369 . S
C183 C185 1.419 . S
C183 H187 0.930 . S
C184 C183 1.369 . S
C184 C193 1.429 1_565 S
C185 C183 1.419 . S
C185 C186 1.363 . S
C185 H188 0.929 . S
C186 C185 1.363 . S
C186 C192 1.428 1_565 S
H187 C183 0.930 . S
H188 C185 0.929 . S
S189 N190 1.613 . S
S189 N191 1.610 . S
N190 S189 1.613 . S
N190 C193 1.350 . S
N191 S189 1.610 . S
N191 C192 1.351 . S
C192 C186 1.428 1_545 S
C192 N191 1.351 . S
C192 C193 1.434 . S
C193 C184 1.429 1_545 S
C193 N190 1.350 . S
C193 C192 1.434 . S
C194 C195 1.369 . S
C194 C196 1.419 . S
C194 H198 0.930 . S
C195 C194 1.369 . S
C195 C204 1.429 . S
C196 C194 1.419 . S
C196 C197 1.363 . S
C196 H199 0.929 . S
C197 C196 1.363 . S
C197 C203 1.428 . S
H198 C194 0.930 . S
H199 C196 0.929 . S
S200 N201 1.613 . S
S200 N202 1.610 . S
N201 S200 1.613 . S
N201 C204 1.350 . S
N202 S200 1.610 . S
N202 C203 1.351 . S
C203 C197 1.428 . S
C203 N202 1.351 . S
C203 C204 1.434 . S
C204 C195 1.429 . S
C204 N201 1.350 . S
C204 C203 1.434 . S
C205 C206 1.369 . S
C205 C207 1.419 . S
C205 H209 0.930 . S
C206 C205 1.369 . S
C206 C215 1.429 . S
C207 C205 1.419 . S
C207 C208 1.363 . S
C207 H210 0.929 . S
C208 C207 1.363 . S
C208 C214 1.428 . S
H209 C205 0.930 . S
H210 C207 0.929 . S
S211 N212 1.613 . S
S211 N213 1.610 . S
N212 S211 1.613 . S
N212 C215 1.350 1_455 S
N213 S211 1.610 . S
N213 C214 1.351 1_455 S
C214 C208 1.428 . S
C214 N213 1.351 1_655 S
C214 C215 1.434 . S
C215 C206 1.429 . S
C215 N212 1.350 1_655 S
C215 C214 1.434 . S
C216 C217 1.369 . S
C216 C218 1.419 . S
C216 H220 0.930 . S
C217 C216 1.369 . S
C217 C226 1.429 . S
C218 C216 1.419 . S
C218 C219 1.363 . S
C218 H221 0.929 . S
C219 C218 1.363 . S
C219 C225 1.428 . S
H220 C216 0.930 . S
H221 C218 0.929 . S
S222 N223 1.613 1_565 S
S222 N224 1.610 . S
N223 S222 1.613 1_545 S
N223 C226 1.350 . S
N224 S222 1.610 . S
N224 C225 1.351 1_565 S
C225 C219 1.428 . S
C225 N224 1.351 1_545 S
C225 C226 1.434 . S
C226 C217 1.429 . S
C226 N223 1.350 . S
C226 C225 1.434 . S
C227 C228 1.369 . S
C227 C229 1.419 . S
C227 H231 0.930 . S
C228 C227 1.369 . S
C228 C237 1.429 . S
C229 C227 1.419 . S
C229 C230 1.363 . S
C229 H232 0.929 . S
C230 C229 1.363 . S
C230 C236 1.428 . S
H231 C227 0.930 . S
H232 C229 0.929 . S
S233 N234 1.613 . S
S233 N235 1.610 . S
N234 S233 1.613 . S
N234 C237 1.350 1_545 S
N235 S233 1.610 . S
N235 C236 1.351 1_545 S
C236 C230 1.428 . S
C236 N235 1.351 1_565 S
C236 C237 1.434 . S
C237 C228 1.429 . S
C237 N234 1.350 1_565 S
C237 C236 1.434 . S
C238 C239 1.369 . S
C238 C240 1.419 . S
C238 H242 0.930 . S
C239 C238 1.369 . S
C239 C248 1.429 . S
C240 C238 1.419 . S
C240 C241 1.363 . S
C240 H243 0.929 . S
C241 C240 1.363 . S
C241 C247 1.428 1_556 S
H242 C238 0.930 . S
H243 C240 0.929 . S
S244 N245 1.613 . S
S244 N246 1.610 . S
N245 S244 1.613 . S
N245 C248 1.350 1_554 S
N246 S244 1.610 . S
N246 C247 1.351 . S
C247 C241 1.428 1_554 S
C247 N246 1.351 . S
C247 C248 1.434 1_554 S
C248 C239 1.429 . S
C248 N245 1.350 1_556 S
C248 C247 1.434 1_556 S
C249 C250 1.369 . S
C249 C251 1.419 . S
C249 H253 0.930 . S
C250 C249 1.369 . S
C250 C259 1.429 . S
C251 C249 1.419 . S
C251 C252 1.363 . S
C251 H254 0.929 . S
C252 C251 1.363 . S
C252 C258 1.428 . S
H253 C249 0.930 . S
H254 C251 0.929 . S
S255 N256 1.613 . S
S255 N257 1.610 . S
N256 S255 1.613 . S
N256 C259 1.350 . S
N257 S255 1.610 . S
N257 C258 1.351 . S
C258 C252 1.428 . S
C258 N257 1.351 . S
C258 C259 1.434 . S
C259 C250 1.429 . S
C259 N256 1.350 . S
C259 C258 1.434 . S
C260 C261 1.369 . S
C260 C262 1.419 . S
C260 H264 0.930 . S
C261 C260 1.369 . S
C261 C270 1.429 . S
C262 C260 1.419 . S
C262 C263 1.363 . S
C262 H265 0.929 . S
C263 C262 1.363 . S
C263 C269 1.428 . S
H264 C260 0.930 . S
H265 C262 0.929 . S
S266 N267 1.613 . S
S266 N268 1.610 . S
N267 S266 1.613 . S
N267 C270 1.350 1_556 S
N268 S266 1.610 . S
N268 C269 1.351 1_556 S
C269 C263 1.428 . S
C269 N268 1.351 1_554 S
C269 C270 1.434 . S
C270 C261 1.429 . S
C270 N267 1.350 1_554 S
C270 C269 1.434 . S
C271 C272 1.369 . S
C271 C273 1.419 . S
C271 H275 0.930 . S
C272 C271 1.369 . S
C272 C281 1.429 . S
C273 C271 1.419 . S
C273 C274 1.363 . S
C273 H276 0.929 . S
C274 C273 1.363 . S
C274 C280 1.428 . S
H275 C271 0.930 . S
H276 C273 0.929 . S
S277 N278 1.613 . S
S277 N279 1.610 . S
N278 S277 1.613 . S
N278 C281 1.350 1_554 S
N279 S277 1.610 . S
N279 C280 1.351 1_554 S
C280 C274 1.428 . S
C280 N279 1.351 1_556 S
C280 C281 1.434 . S
C281 C272 1.429 . S
C281 N278 1.350 1_556 S
C281 C280 1.434 . S
C282 C283 1.369 . S
C282 C284 1.419 . S
C282 H286 0.930 . S
C283 C282 1.369 . S
C283 C292 1.429 . S
C284 C282 1.419 . S
C284 C285 1.363 . S
C284 H287 0.929 . S
C285 C284 1.363 . S
C285 C291 1.428 . S
H286 C282 0.930 . S
H287 C284 0.929 . S
S288 N289 1.613 . S
S288 N290 1.610 . S
N289 S288 1.613 . S
N289 C292 1.350 . S
N290 S288 1.610 . S
N290 C291 1.351 . S
C291 C285 1.428 . S
C291 N290 1.351 . S
C291 C292 1.434 . S
C292 C283 1.429 . S
C292 N289 1.350 . S
C292 C291 1.434 . S
C293 C294 1.369 . S
C293 C295 1.419 . S
C293 H297 0.930 . S
C294 C293 1.369 . S
C294 C303 1.429 . S
C295 C293 1.419 . S
C295 C296 1.363 . S
C295 H298 0.929 . S
C296 C295 1.363 . S
C296 C302 1.428 . S
H297 C293 0.930 . S
H298 C295 0.929 . S
S299 N300 1.613 . S
S299 N301 1.610 . S
N300 S299 1.613 . S
N300 C303 1.350 . S
N301 S299 1.610 . S
N301 C302 1.351 . S
C302 C296 1.428 . S
C302 N301 1.351 . S
C302 C303 1.434 . S
C303 C294 1.429 . S
C303 N300 1.350 . S
C303 C302 1.434 . S
C304 C305 1.369 . S
C304 C306 1.419 . S
C304 H308 0.930 1_655 S
C305 C304 1.369 . S
C305 C314 1.429 . S
C306 C304 1.419 . S
C306 C307 1.363 . S
C306 H309 0.929 1_655 S
C307 C306 1.363 . S
C307 C313 1.428 . S
H308 C304 0.930 1_455 S
H309 C306 0.929 1_455 S
S310 N311 1.613 1_545 S
S310 N312 1.610 . S
N311 S310 1.613 1_565 S
N311 C314 1.350 . S
N312 S310 1.610 . S
N312 C313 1.351 1_545 S
C313 C307 1.428 . S
C313 N312 1.351 1_565 S
C313 C314 1.434 . S
C314 C305 1.429 . S
C314 N311 1.350 . S
C314 C313 1.434 . S
C315 C316 1.369 . S
C315 C317 1.419 . S
C315 H319 0.930 . S
C316 C315 1.369 . S
C316 C325 1.429 . S
C317 C315 1.419 . S
C317 C318 1.363 . S
C317 H320 0.929 . S
C318 C317 1.363 . S
C318 C324 1.428 . S
H319 C315 0.930 . S
H320 C317 0.929 . S
S321 N322 1.613 . S
S321 N323 1.610 . S
N322 S321 1.613 . S
N322 C325 1.350 . S
N323 S321 1.610 . S
N323 C324 1.351 . S
C324 C318 1.428 . S
C324 N323 1.351 . S
C324 C325 1.434 . S
C325 C316 1.429 . S
C325 N322 1.350 . S
C325 C324 1.434 . S
C326 C327 1.369 . S
C326 C328 1.419 . S
C326 H330 0.930 . S
C327 C326 1.369 . S
C327 C336 1.429 . S
C328 C326 1.419 . S
C328 C329 1.363 . S
C328 H331 0.929 . S
C329 C328 1.363 . S
C329 C335 1.428 . S
H330 C326 0.930 . S
H331 C328 0.929 . S
S332 N333 1.613 . S
S332 N334 1.610 . S
N333 S332 1.613 . S
N333 C336 1.350 . S
N334 S332 1.610 . S
N334 C335 1.351 . S
C335 C329 1.428 . S
C335 N334 1.351 . S
C335 C336 1.434 . S
C336 C327 1.429 . S
C336 N333 1.350 . S
C336 C335 1.434 . S
C337 C338 1.369 . S
C337 C339 1.419 . S
C337 H341 0.930 . S
C338 C337 1.369 . S
C338 C347 1.429 . S
C339 C337 1.419 . S
C339 C340 1.363 . S
C339 H342 0.929 . S
C340 C339 1.363 . S
C340 C346 1.428 . S
H341 C337 0.930 . S
H342 C339 0.929 . S
S343 N344 1.613 . S
S343 N345 1.610 . S
N344 S343 1.613 . S
N344 C347 1.350 . S
N345 S343 1.610 . S
N345 C346 1.351 . S
C346 C340 1.428 . S
C346 N345 1.351 . S
C346 C347 1.434 . S
C347 C338 1.429 . S
C347 N344 1.350 . S
C347 C346 1.434 . S
C348 C349 1.369 1_545 S
C348 C350 1.419 . S
C348 H352 0.930 . S
C349 C348 1.369 1_565 S
C349 C358 1.429 . S
C350 C348 1.419 . S
C350 C351 1.363 1_545 S
C350 H353 0.929 . S
C351 C350 1.363 1_565 S
C351 C357 1.428 . S
H352 C348 0.930 . S
H353 C350 0.929 . S
S354 N355 1.613 . S
S354 N356 1.610 . S
N355 S354 1.613 . S
N355 C358 1.350 . S
N356 S354 1.610 . S
N356 C357 1.351 . S
C357 C351 1.428 . S
C357 N356 1.351 . S
C357 C358 1.434 . S
C358 C349 1.429 . S
C358 N355 1.350 . S
C358 C357 1.434 . S
C359 C360 1.369 . S
C359 C361 1.419 . S
C359 H363 0.930 . S
C360 C359 1.369 . S
C360 C369 1.429 . S
C361 C359 1.419 . S
C361 C362 1.363 . S
C361 H364 0.929 . S
C362 C361 1.363 . S
C362 C368 1.428 . S
H363 C359 0.930 . S
H364 C361 0.929 . S
S365 N366 1.613 . S
S365 N367 1.610 . S
N366 S365 1.613 . S
N366 C369 1.350 . S
N367 S365 1.610 . S
N367 C368 1.351 . S
C368 C362 1.428 . S
C368 N367 1.351 . S
C368 C369 1.434 . S
C369 C360 1.429 . S
C369 N366 1.350 . S
C369 C368 1.434 . S
C370 C371 1.369 . S
C370 C372 1.419 . S
C370 H374 0.930 . S
C371 C370 1.369 . S
C371 C380 1.429 . S
C372 C370 1.419 . S
C372 C373 1.363 . S
C372 H375 0.929 . S
C373 C372 1.363 . S
C373 C379 1.428 . S
H374 C370 0.930 . S
H375 C372 0.929 . S
S376 N377 1.613 . S
S376 N378 1.610 . S
N377 S376 1.613 . S
N377 C380 1.350 . S
N378 S376 1.610 . S
N378 C379 1.351 . S
C379 C373 1.428 . S
C379 N378 1.351 . S
C379 C380 1.434 . S
C380 C371 1.429 . S
C380 N377 1.350 . S
C380 C379 1.434 . S
C381 C382 1.369 . S
C381 C383 1.419 . S
C381 H385 0.930 . S
C382 C381 1.369 . S
C382 C391 1.429 . S
C383 C381 1.419 . S
C383 C384 1.363 . S
C383 H386 0.929 . S
C384 C383 1.363 . S
C384 C390 1.428 . S
H385 C381 0.930 . S
H386 C383 0.929 . S
S387 N388 1.613 . S
S387 N389 1.610 . S
N388 S387 1.613 . S
N388 C391 1.350 . S
N389 S387 1.610 . S
N389 C390 1.351 . S
C390 C384 1.428 . S
C390 N389 1.351 . S
C390 C391 1.434 . S
C391 C382 1.429 . S
C391 N388 1.350 . S
C391 C390 1.434 . S
C392 C393 1.369 . S
C392 C394 1.419 . S
C392 H396 0.941 . S
C393 C392 1.369 . S
C393 C402 1.429 . S
C394 C392 1.419 . S
C394 C395 1.363 . S
C394 H397 0.929 1_655 S
C395 C394 1.363 . S
C395 C401 1.428 . S
H396 C392 0.941 . S
H397 C394 0.929 1_455 S
S398 N399 1.613 1_554 S
S398 N400 1.610 . S
N399 S398 1.613 1_556 S
N399 C402 1.350 . S
N400 S398 1.610 . S
N400 C401 1.351 1_554 S
C401 C395 1.428 . S
C401 N400 1.351 1_556 S
C401 C402 1.434 . S
C402 C393 1.429 . S
C402 N399 1.350 . S
C402 C401 1.434 . S
C403 C404 1.369 . S
C403 C405 1.419 . S
C403 H407 0.930 . S
C404 C403 1.369 . S
C404 C413 1.429 . S
C405 C403 1.419 . S
C405 C406 1.363 . S
C405 H408 0.929 . S
C406 C405 1.363 . S
C406 C412 1.428 . S
H407 C403 0.930 . S
H408 C405 0.929 . S
S409 N410 1.613 . S
S409 N411 1.610 . S
N410 S409 1.613 . S
N410 C413 1.350 . S
N411 S409 1.610 . S
N411 C412 1.351 . S
C412 C406 1.428 . S
C412 N411 1.351 . S
C412 C413 1.434 . S
C413 C404 1.429 . S
C413 N410 1.350 . S
C413 C412 1.434 . S
C414 C415 1.369 . S
C414 C416 1.419 . S
C414 H418 0.930 . S
C415 C414 1.369 . S
C415 C424 1.429 . S
C416 C414 1.419 . S
C416 C417 1.363 . S
C416 H419 0.929 . S
C417 C416 1.363 . S
C417 C423 1.428 . S
H418 C414 0.930 . S
H419 C416 0.929 . S
S420 N421 1.613 . S
S420 N422 1.610 . S
N421 S420 1.613 . S
N421 C424 1.350 . S
N422 S420 1.610 . S
N422 C423 1.351 . S
C423 C417 1.428 . S
C423 N422 1.351 . S
C423 C424 1.434 . S
C424 C415 1.429 . S
C424 N421 1.350 . S
C424 C423 1.434 . S
C425 C426 1.369 . S
C425 C427 1.419 . S
C425 H429 0.930 . S
C426 C425 1.369 . S
C426 C435 1.429 . S
C427 C425 1.419 . S
C427 C428 1.363 . S
C427 H430 0.929 . S
C428 C427 1.363 . S
C428 C434 1.428 . S
H429 C425 0.930 . S
H430 C427 0.929 . S
S431 N432 1.613 . S
S431 N433 1.610 . S
N432 S431 1.613 . S
N432 C435 1.350 . S
N433 S431 1.610 . S
N433 C434 1.351 . S
C434 C428 1.428 . S
C434 N433 1.351 . S
C434 C435 1.434 . S
C435 C426 1.429 . S
C435 N432 1.350 . S
C435 C434 1.434 . S
C173 C6 1.715 . S
C175 C106 1.672 . S
C184 C20 1.723 . S
C186 C123 1.675 . S
C197 C146 1.020 . S
C195 N26 1.203 . S
C206 N37 1.605 . S
C208 C167 1.277 . S
C219 C126 1.971 . S
C217 C9 2.033 . S
C230 C103 1.385 . S
C228 N15 1.446 . S
C241 C165 1.292 . S
C239 C31 1.319 . S
C252 C144 1.336 . S
C250 C39 1.415 . S
C261 N4 1.668 . S
C263 C168 1.640 . S
C274 C125 1.357 . S
C272 C28 1.666 . S
C283 C42 1.477 . S
C285 C101 1.333 . S
C294 C17 1.604 . S
C296 C147 1.574 . S
C307 C105 1.728 . S
C305 C50 1.823 . S
C316 C61 1.447 . S
C318 C124 1.442 . S
C327 N70 1.434 . S
C329 C143 1.197 . S
C338 N81 1.422 . S
C340 C164 1.138 . S
C349 N48 1.517 . S
C351 C127 1.491 . S
C362 C102 1.947 . S
C360 C64 1.967 . S
C373 C166 1.166 . S
C371 C75 1.260 . S
C384 C145 1.433 . S
C382 C86 1.454 . S
C393 C53 1.750 . S
C395 C169 1.688 . S
C406 C122 1.069 . S
C404 C72 1.295 . S
C417 C104 1.363 . S
C415 C83 1.537 . S
C426 N59 1.522 . S
C428 C148 1.493 . S
