# Generated by pormake.
# Topology pyr, (3,6)-cn, num edge types: 1
# Building blocks:
#     Node 0, Type 0, BuildingBlock: VETTIZ_charged_linker_0, # of connection points: 3
#     Node 1, Type 0, BuildingBlock: VETTIZ_charged_linker_0, # of connection points: 3
#     Node 2, Type 0, BuildingBlock: VETTIZ_charged_linker_0, # of connection points: 3
#     Node 3, Type 0, BuildingBlock: VETTIZ_charged_linker_0, # of connection points: 3
#     Node 4, Type 0, BuildingBlock: VETTIZ_charged_linker_0, # of connection points: 3
#     Node 5, Type 0, BuildingBlock: VETTIZ_charged_linker_0, # of connection points: 3
#     Node 6, Type 0, BuildingBlock: VETTIZ_charged_linker_0, # of connection points: 3
#     Node 7, Type 0, BuildingBlock: VETTIZ_charged_linker_0, # of connection points: 3
#     Node 8, Type 1, BuildingBlock: GEDQOX_clean_sbu_0, # of connection points: 6
#     Node 9, Type 1, BuildingBlock: GEDQOX_clean_sbu_0, # of connection points: 6
#     Node 10, Type 1, BuildingBlock: GEDQOX_clean_sbu_0, # of connection points: 6
#     Node 11, Type 1, BuildingBlock: GEDQOX_clean_sbu_0, # of connection points: 6
#     Edge 12, Type (0, 1), BuildingBlock: EZIPEK_clean_linker_0, # of connection points: 2
#     Edge 13, Type (0, 1), BuildingBlock: EZIPEK_clean_linker_0, # of connection points: 2
#     Edge 14, Type (0, 1), BuildingBlock: EZIPEK_clean_linker_0, # of connection points: 2
#     Edge 15, Type (0, 1), BuildingBlock: EZIPEK_clean_linker_0, # of connection points: 2
#     Edge 16, Type (0, 1), BuildingBlock: EZIPEK_clean_linker_0, # of connection points: 2
#     Edge 17, Type (0, 1), BuildingBlock: EZIPEK_clean_linker_0, # of connection points: 2
#     Edge 18, Type (0, 1), BuildingBlock: EZIPEK_clean_linker_0, # of connection points: 2
#     Edge 19, Type (0, 1), BuildingBlock: EZIPEK_clean_linker_0, # of connection points: 2
#     Edge 20, Type (0, 1), BuildingBlock: EZIPEK_clean_linker_0, # of connection points: 2
#     Edge 21, Type (0, 1), BuildingBlock: EZIPEK_clean_linker_0, # of connection points: 2
#     Edge 22, Type (0, 1), BuildingBlock: EZIPEK_clean_linker_0, # of connection points: 2
#     Edge 23, Type (0, 1), BuildingBlock: EZIPEK_clean_linker_0, # of connection points: 2
#     Edge 24, Type (0, 1), BuildingBlock: EZIPEK_clean_linker_0, # of connection points: 2
#     Edge 25, Type (0, 1), BuildingBlock: EZIPEK_clean_linker_0, # of connection points: 2
#     Edge 26, Type (0, 1), BuildingBlock: EZIPEK_clean_linker_0, # of connection points: 2
#     Edge 27, Type (0, 1), BuildingBlock: EZIPEK_clean_linker_0, # of connection points: 2
#     Edge 28, Type (0, 1), BuildingBlock: EZIPEK_clean_linker_0, # of connection points: 2
#     Edge 29, Type (0, 1), BuildingBlock: EZIPEK_clean_linker_0, # of connection points: 2
#     Edge 30, Type (0, 1), BuildingBlock: EZIPEK_clean_linker_0, # of connection points: 2
#     Edge 31, Type (0, 1), BuildingBlock: EZIPEK_clean_linker_0, # of connection points: 2
#     Edge 32, Type (0, 1), BuildingBlock: EZIPEK_clean_linker_0, # of connection points: 2
#     Edge 33, Type (0, 1), BuildingBlock: EZIPEK_clean_linker_0, # of connection points: 2
#     Edge 34, Type (0, 1), BuildingBlock: EZIPEK_clean_linker_0, # of connection points: 2
#     Edge 35, Type (0, 1), BuildingBlock: EZIPEK_clean_linker_0, # of connection points: 2
# Relax obj value: 0.136
# Max RMSD: 0.167
# Mean RMSD: 0.068
data_MOF--net-pyr--node1-GEDQOX_clean_sbu_0--node2-VETTIZ_charged_linker_0--edge1-EZIPEK_clean_linker_0
_symmetry_space_group_name_H-M    P1
_symmetry_Int_Tables_number       1
_symmetry_cell_setting            triclinic
loop_
_symmetry_equiv_pos_as_xyz
'x, y, z'
_cell_length_a     38.560055
_cell_length_b     38.270281
_cell_length_c     33.708502
_cell_angle_alpha  89.254207
_cell_angle_beta   92.491042
_cell_angle_gamma 87.043818
loop_
_atom_site_label
_atom_site_type_symbol
_atom_site_fract_x
_atom_site_fract_y
_atom_site_fract_z
_atom_type_partial_charge
C0 C 0.16304 0.10738 0.2918 0.0
C1 C 0.13232 0.11843 0.31215 0.0
C2 C 0.11579 0.15044 0.29798 0.0
C3 C 0.15859 0.15904 0.24612 0.0
C4 C 0.17556 0.12791 0.25931 0.0
C5 C 0.20756 0.12024 0.23453 0.0
H6 H 0.31807 0.16495 0.08469 0.0
C7 C 0.17791 0.17443 0.21154 0.0
C8 C 0.20716 0.15143 0.20464 0.0
H9 H 0.3277 0.07298 0.16041 0.0
H10 H 0.27522 0.09216 0.19304 0.0
H11 H 0.28864 0.2233 0.15574 0.0
H12 H 0.22768 0.16456 0.07098 0.0
H13 H 0.21652 0.21015 0.07012 0.0
H14 H 0.25859 0.19474 0.05468 0.0
H15 H 0.29386 0.22784 0.10316 0.0
H16 H 0.25775 0.24954 0.12632 0.0
C17 C 0.24018 0.11935 0.26271 0.0
C18 C 0.20279 0.08543 0.21295 0.0
C19 C 0.12882 0.29177 0.14426 0.0
C20 C 0.13831 0.31395 0.11232 0.0
C21 C 0.169 0.30207 0.09333 0.0
C22 C 0.18892 0.27053 0.10509 0.0
C23 C 0.17899 0.24889 0.13679 0.0
C24 C 0.14908 0.26002 0.15568 0.0
C25 C 0.1418 0.23422 0.18874 0.0
C26 C 0.17156 0.20584 0.18697 0.0
C27 C 0.19413 0.21414 0.15622 0.0
C28 C 0.14351 0.25389 0.2285 0.0
C29 C 0.10611 0.21903 0.17883 0.0
C30 C 0.30907 0.14875 0.10829 0.0
C31 C 0.32872 0.11665 0.11924 0.0
C32 C 0.31446 0.09737 0.15045 0.0
C33 C 0.28347 0.10877 0.16973 0.0
C34 C 0.26451 0.14047 0.15862 0.0
C35 C 0.27744 0.15987 0.1279 0.0
C36 C 0.25332 0.19265 0.11931 0.0
C37 C 0.2244 0.19028 0.14969 0.0
C38 C 0.23102 0.15916 0.17335 0.0
C39 C 0.27445 0.22525 0.1263 0.0
C40 C 0.23822 0.19068 0.07636 0.0
H41 H 0.11371 0.19407 0.25763 0.0
H42 H 0.17706 0.0832 0.30096 0.0
H43 H 0.17617 0.08505 0.1989 0.0
H44 H 0.22087 0.08149 0.18874 0.0
H45 H 0.2064 0.06286 0.23406 0.0
H46 H 0.23942 0.14249 0.28235 0.0
H47 H 0.24174 0.09543 0.28187 0.0
H48 H 0.2644 0.12038 0.2466 0.0
H49 H 0.1058 0.29896 0.16018 0.0
H50 H 0.17782 0.3175 0.06894 0.0
H51 H 0.21169 0.26401 0.0889 0.0
H52 H 0.16533 0.27182 0.22926 0.0
H53 H 0.11911 0.26989 0.23267 0.0
H54 H 0.14869 0.23618 0.25441 0.0
H55 H 0.10324 0.21337 0.1466 0.0
H56 H 0.10283 0.19386 0.19418 0.0
H57 H 0.08449 0.2378 0.18622 0.0
H58 H 0.09256 0.16033 0.31192 0.0
C59 C 0.12835 0.17028 0.26593 0.0
C60 C 0.25895 0.78154 0.7062 0.0
C61 C 0.23997 0.81333 0.71075 0.0
C62 C 0.24958 0.83575 0.74162 0.0
C63 C 0.30016 0.79731 0.75858 0.0
C64 C 0.28928 0.77439 0.7298 0.0
C65 C 0.31556 0.74477 0.72405 0.0
H66 H 0.4819 0.68517 0.73583 0.0
C67 C 0.3356 0.78525 0.773 0.0
C68 C 0.34482 0.75462 0.75277 0.0
H69 H 0.39365 0.63938 0.67733 0.0
H70 H 0.35469 0.68045 0.70881 0.0
H71 H 0.45775 0.76489 0.7246 0.0
H72 H 0.43896 0.69732 0.82447 0.0
H73 H 0.45304 0.73779 0.84149 0.0
H74 H 0.48182 0.70993 0.81362 0.0
H75 H 0.49231 0.74867 0.75849 0.0
H76 H 0.46563 0.78707 0.76933 0.0
C77 C 0.32616 0.74614 0.68016 0.0
C78 C 0.2995 0.71014 0.73657 0.0
C79 C 0.40149 0.85926 0.87132 0.0
C80 C 0.43671 0.86025 0.88349 0.0
C81 C 0.4606 0.83477 0.86905 0.0
C82 C 0.44949 0.8087 0.84307 0.0
C83 C 0.41422 0.80854 0.83055 0.0
C84 C 0.39106 0.83399 0.84423 0.0
C85 C 0.35564 0.83287 0.82411 0.0
C86 C 0.36045 0.80079 0.79857 0.0
C87 C 0.3948 0.78639 0.80238 0.0
C88 C 0.34866 0.86703 0.79884 0.0
C89 C 0.32879 0.82738 0.8561 0.0
C90 C 0.4541 0.68389 0.73056 0.0
C91 C 0.44054 0.65957 0.70368 0.0
C92 C 0.4044 0.65814 0.69765 0.0
C93 C 0.3819 0.68217 0.71566 0.0
C94 C 0.39566 0.70838 0.73942 0.0
C95 C 0.43096 0.70796 0.7485 0.0
C96 C 0.4399 0.73692 0.77673 0.0
C97 C 0.40435 0.75557 0.78115 0.0
C98 C 0.37893 0.73907 0.7581 0.0
C99 C 0.46543 0.76068 0.75657 0.0
C100 C 0.45443 0.71985 0.81622 0.0
H101 H 0.28594 0.84599 0.7885 0.0
H102 H 0.25183 0.76406 0.68252 0.0
H103 H 0.27717 0.71484 0.75599 0.0
H104 H 0.31825 0.6928 0.75447 0.0
H105 H 0.28984 0.69569 0.7103 0.0
H106 H 0.3306 0.77351 0.6709 0.0
H107 H 0.30543 0.73632 0.65998 0.0
H108 H 0.35051 0.73109 0.67465 0.0
H109 H 0.38266 0.87881 0.88138 0.0
H110 H 0.48794 0.83521 0.8778 0.0
H111 H 0.46888 0.79015 0.83301 0.0
H112 H 0.37297 0.88047 0.79346 0.0
H113 H 0.33098 0.88603 0.81376 0.0
H114 H 0.3376 0.86195 0.76872 0.0
H115 H 0.33849 0.80641 0.87757 0.0
H116 H 0.30371 0.81898 0.84345 0.0
H117 H 0.3239 0.85172 0.87303 0.0
H118 H 0.23492 0.86028 0.7456 0.0
C119 C 0.27942 0.82766 0.76596 0.0
C120 C 0.70197 0.29839 0.88012 0.0
C121 C 0.67279 0.285 0.86051 0.0
C122 C 0.659 0.301 0.82513 0.0
C123 C 0.70263 0.3442 0.82968 0.0
C124 C 0.7164 0.32808 0.86421 0.0
C125 C 0.7471 0.34639 0.88136 0.0
H126 H 0.84849 0.48421 0.87799 0.0
C127 C 0.72296 0.37495 0.82166 0.0
C128 C 0.74905 0.37647 0.8517 0.0
H129 H 0.85571 0.39471 0.95831 0.0
H130 H 0.80982 0.36959 0.92164 0.0
H131 H 0.76223 0.49352 0.86776 0.0
H132 H 0.83963 0.43743 0.80036 0.0
H133 H 0.80875 0.45937 0.76757 0.0
H134 H 0.83569 0.48441 0.8004 0.0
H135 H 0.79459 0.51546 0.84151 0.0
H136 H 0.75513 0.50285 0.81655 0.0
C137 C 0.73788 0.35942 0.9231 0.0
C138 C 0.77963 0.32077 0.88112 0.0
C139 C 0.68566 0.45332 0.70413 0.0
C140 C 0.69716 0.48472 0.68913 0.0
C141 C 0.72638 0.49947 0.70757 0.0
C142 C 0.74339 0.48319 0.74137 0.0
C143 C 0.73092 0.45197 0.75668 0.0
C144 C 0.7027 0.43753 0.73759 0.0
C145 C 0.69249 0.40458 0.75734 0.0
C146 C 0.71924 0.40119 0.79152 0.0
C147 C 0.74169 0.42901 0.79146 0.0
C148 C 0.65503 0.41098 0.77185 0.0
C149 C 0.69691 0.3743 0.7275 0.0
C150 C 0.83881 0.46076 0.8904 0.0
C151 C 0.85267 0.44521 0.92668 0.0
C152 C 0.84278 0.41075 0.93501 0.0
C153 C 0.81642 0.39529 0.91266 0.0
C154 C 0.80018 0.41343 0.88005 0.0
C155 C 0.81224 0.44501 0.86839 0.0
C156 C 0.79386 0.45891 0.83045 0.0
C157 C 0.76799 0.43088 0.82231 0.0
C158 C 0.77184 0.40444 0.85182 0.0
C159 C 0.77554 0.4947 0.83917 0.0
C160 C 0.82075 0.46042 0.79783 0.0
H161 H 0.66194 0.3416 0.78258 0.0
H162 H 0.71299 0.28617 0.9073 0.0
H163 H 0.77654 0.30008 0.85853 0.0
H164 H 0.80322 0.33397 0.87281 0.0
H165 H 0.78469 0.30745 0.91042 0.0
H166 H 0.71119 0.37202 0.92229 0.0
H167 H 0.7387 0.33729 0.94484 0.0
H168 H 0.75512 0.37935 0.93469 0.0
H169 H 0.66322 0.44157 0.6904 0.0
H170 H 0.73555 0.52376 0.6962 0.0
H171 H 0.76529 0.49565 0.75456 0.0
H172 H 0.65004 0.43876 0.78026 0.0
H173 H 0.63528 0.40497 0.74829 0.0
H174 H 0.65024 0.39585 0.79901 0.0
H175 H 0.71911 0.37834 0.70821 0.0
H176 H 0.70323 0.34865 0.74221 0.0
H177 H 0.67324 0.37247 0.70781 0.0
H178 H 0.63655 0.29072 0.80975 0.0
C179 C 0.67379 0.33049 0.80954 0.0
C180 C 0.88128 0.9426 0.32807 0.0
C181 C 0.87464 0.95633 0.36552 0.0
C182 C 0.84201 0.95227 0.38168 0.0
C183 C 0.82444 0.91801 0.32505 0.0
C184 C 0.85605 0.92318 0.30863 0.0
C185 C 0.86041 0.90351 0.27071 0.0
H186 H 0.81631 0.76247 0.17115 0.0
C187 C 0.80504 0.89452 0.29885 0.0
C188 C 0.82587 0.88607 0.26678 0.0
H189 H 0.91023 0.8183 0.16616 0.0
H190 H 0.8827 0.86748 0.19986 0.0
H191 H 0.80208 0.7756 0.26102 0.0
H192 H 0.76229 0.82457 0.15303 0.0
H193 H 0.73329 0.84124 0.18824 0.0
H194 H 0.73679 0.79485 0.1789 0.0
H195 H 0.77773 0.7565 0.22079 0.0
H196 H 0.75599 0.77878 0.2588 0.0
C197 C 0.89215 0.87675 0.27658 0.0
C198 C 0.86391 0.93038 0.23665 0.0
C199 C 0.69893 0.83602 0.34712 0.0
C200 C 0.67885 0.81022 0.32949 0.0
C201 C 0.68055 0.80418 0.28856 0.0
C202 C 0.70499 0.8206 0.26638 0.0
C203 C 0.72863 0.84188 0.28584 0.0
C204 C 0.72372 0.85174 0.32448 0.0
C205 C 0.75008 0.87713 0.33855 0.0
C206 C 0.7729 0.87851 0.3028 0.0
C207 C 0.76088 0.85637 0.27295 0.0
C208 C 0.77015 0.86094 0.37575 0.0
C209 C 0.73082 0.91286 0.34578 0.0
C210 C 0.83046 0.78576 0.1767 0.0
C211 C 0.86547 0.78647 0.16762 0.0
C212 C 0.88332 0.81723 0.17383 0.0
C213 C 0.8676 0.84526 0.19399 0.0
C214 C 0.83419 0.84192 0.20829 0.0
C215 C 0.81536 0.81356 0.19744 0.0
C216 C 0.78057 0.8139 0.21588 0.0
C217 C 0.78286 0.84588 0.24215 0.0
C218 C 0.81472 0.86155 0.23828 0.0
C219 C 0.7788 0.77949 0.24046 0.0
C220 C 0.75168 0.81878 0.18244 0.0
H221 H 0.79254 0.9307 0.37543 0.0
H222 H 0.90627 0.94542 0.3152 0.0
H223 H 0.84434 0.9526 0.23878 0.0
H224 H 0.85917 0.91905 0.20703 0.0
H225 H 0.89011 0.94121 0.23801 0.0
H226 H 0.90302 0.87552 0.30771 0.0
H227 H 0.91378 0.88351 0.25767 0.0
H228 H 0.88516 0.84959 0.27024 0.0
H229 H 0.69727 0.84157 0.37842 0.0
H230 H 0.66459 0.785 0.27443 0.0
H231 H 0.70632 0.81431 0.23563 0.0
H232 H 0.77767 0.83292 0.37084 0.0
H233 H 0.75387 0.86235 0.40212 0.0
H234 H 0.79459 0.87355 0.38318 0.0
H235 H 0.70631 0.91621 0.32713 0.0
H236 H 0.7462 0.93521 0.33732 0.0
H237 H 0.72389 0.91541 0.37729 0.0
H238 H 0.83651 0.96293 0.41049 0.0
C239 C 0.81669 0.93351 0.36139 0.0
C240 C 0.89354 0.74956 0.93737 0.0
C241 C 0.92726 0.73338 0.92897 0.0
C242 C 0.94662 0.75355 0.90286 0.0
C243 C 0.89997 0.80022 0.89198 0.0
C244 C 0.8811 0.78315 0.91966 0.0
C245 C 0.84805 0.806 0.92792 0.0
H246 H 0.7411 0.95899 0.89055 0.0
C247 C 0.87997 0.83398 0.87745 0.0
C248 C 0.84934 0.83821 0.89941 0.0
H249 H 0.72517 0.87809 0.977 0.0
H250 H 0.77733 0.84559 0.95658 0.0
H251 H 0.76694 0.90138 0.81854 0.0
H252 H 0.83013 0.95919 0.90177 0.0
H253 H 0.84183 0.9647 0.85183 0.0
H254 H 0.79986 0.98117 0.86648 0.0
H255 H 0.76496 0.94844 0.81827 0.0
H256 H 0.79946 0.924 0.79504 0.0
C257 C 0.81593 0.78492 0.91818 0.0
C258 C 0.85051 0.81698 0.97172 0.0
C259 C 0.92723 0.90273 0.7581 0.0
C260 C 0.91667 0.93386 0.73585 0.0
C261 C 0.886 0.9518 0.74867 0.0
C262 C 0.86679 0.93961 0.78118 0.0
C263 C 0.87754 0.9085 0.80275 0.0
C264 C 0.90767 0.89082 0.79085 0.0
C265 C 0.91645 0.85897 0.81767 0.0
C266 C 0.88636 0.85918 0.84636 0.0
C267 C 0.86308 0.88867 0.83813 0.0
C268 C 0.91689 0.82617 0.79143 0.0
C269 C 0.95163 0.86451 0.8401 0.0
C270 C 0.74882 0.93453 0.90568 0.0
C271 C 0.72764 0.9222 0.93661 0.0
C272 C 0.73987 0.88937 0.95384 0.0
C273 C 0.77073 0.87025 0.94188 0.0
C274 C 0.79143 0.88302 0.91156 0.0
C275 C 0.77991 0.91482 0.89375 0.0
C276 C 0.80417 0.92398 0.8607 0.0
C277 C 0.83253 0.89378 0.8622 0.0
C278 C 0.82524 0.86902 0.89251 0.0
C279 C 0.78287 0.92474 0.82087 0.0
C280 C 0.81983 0.95928 0.87043 0.0
H281 H 0.94996 0.79755 0.86404 0.0
H282 H 0.87706 0.73648 0.95735 0.0
H283 H 0.87613 0.828 0.97886 0.0
H284 H 0.83056 0.83745 0.9785 0.0
H285 H 0.84778 0.79414 0.99185 0.0
H286 H 0.81714 0.77422 0.88773 0.0
H287 H 0.81459 0.76263 0.93942 0.0
H288 H 0.79154 0.80126 0.91908 0.0
H289 H 0.95056 0.88792 0.75033 0.0
H290 H 0.87665 0.97567 0.73324 0.0
H291 H 0.84404 0.95512 0.78859 0.0
H292 H 0.89308 0.82651 0.77155 0.0
H293 H 0.93978 0.82524 0.77248 0.0
H294 H 0.91726 0.80155 0.80881 0.0
H295 H 0.95571 0.89281 0.84437 0.0
H296 H 0.95285 0.8532 0.87053 0.0
H297 H 0.97382 0.85338 0.82357 0.0
H298 H 0.97268 0.74431 0.89613 0.0
C299 C 0.9333 0.78536 0.88416 0.0
C300 C 0.79107 0.2425 0.35966 0.0
C301 C 0.81482 0.21896 0.34265 0.0
C302 C 0.80747 0.20599 0.30448 0.0
C303 C 0.75098 0.23713 0.30293 0.0
C304 C 0.75961 0.25144 0.33921 0.0
C305 C 0.7317 0.27635 0.35327 0.0
H306 H 0.58495 0.37443 0.31347 0.0
C307 C 0.71518 0.25017 0.29123 0.0
C308 C 0.70407 0.27358 0.32022 0.0
H309 H 0.65426 0.37316 0.41801 0.0
H310 H 0.68619 0.32315 0.39411 0.0
H311 H 0.57789 0.29078 0.32469 0.0
H312 H 0.63655 0.34632 0.24058 0.0
H313 H 0.60903 0.31518 0.21814 0.0
H314 H 0.5902 0.3509 0.24521 0.0
H315 H 0.55954 0.30367 0.27669 0.0
H316 H 0.58464 0.2628 0.28447 0.0
C317 C 0.71953 0.26245 0.39362 0.0
C318 C 0.74686 0.31312 0.35478 0.0
C319 C 0.6516 0.19398 0.17651 0.0
C320 C 0.61623 0.19373 0.16487 0.0
C321 C 0.59291 0.2191 0.18068 0.0
C322 C 0.60461 0.24335 0.2088 0.0
C323 C 0.63971 0.2414 0.22221 0.0
C324 C 0.66247 0.21689 0.20602 0.0
C325 C 0.6976 0.21505 0.22715 0.0
C326 C 0.69201 0.24173 0.25938 0.0
C327 C 0.65839 0.25801 0.25587 0.0
C328 C 0.7046 0.17744 0.24444 0.0
C329 C 0.72468 0.22653 0.19763 0.0
C330 C 0.60712 0.36324 0.33089 0.0
C331 C 0.61807 0.37872 0.36702 0.0
C332 C 0.64604 0.36251 0.38969 0.0
C333 C 0.66462 0.33343 0.37571 0.0
C334 C 0.65494 0.31956 0.33885 0.0
C335 C 0.62542 0.3328 0.31802 0.0
C336 C 0.6163 0.30959 0.28322 0.0
C337 C 0.64818 0.28407 0.28364 0.0
C338 C 0.67066 0.29075 0.31619 0.0
C339 C 0.5828 0.2908 0.29241 0.0
C340 C 0.61274 0.33167 0.24454 0.0
H341 H 0.77074 0.2036 0.25593 0.0
H342 H 0.79659 0.25309 0.38879 0.0
H343 H 0.76318 0.31747 0.32891 0.0
H344 H 0.72694 0.33483 0.35304 0.0
H345 H 0.76352 0.31592 0.38215 0.0
H346 H 0.72427 0.23359 0.39673 0.0
H347 H 0.73346 0.27456 0.41903 0.0
H348 H 0.69115 0.26677 0.39666 0.0
H349 H 0.67003 0.17476 0.165 0.0
H350 H 0.56551 0.21954 0.17198 0.0
H351 H 0.58592 0.26207 0.22001 0.0
H352 H 0.68062 0.16757 0.25685 0.0
H353 H 0.7131 0.15906 0.22112 0.0
H354 H 0.72413 0.17572 0.2693 0.0
H355 H 0.71295 0.24623 0.17575 0.0
H356 H 0.7465 0.23964 0.21245 0.0
H357 H 0.73512 0.20391 0.18069 0.0
H358 H 0.82588 0.18794 0.29101 0.0
C359 C 0.77549 0.21494 0.28447 0.0
C360 C 0.39982 0.58183 0.32781 0.0
C361 C 0.38263 0.55911 0.35216 0.0
C362 C 0.34971 0.54802 0.3393 0.0
C363 C 0.35176 0.58323 0.27871 0.0
C364 C 0.38384 0.59402 0.29206 0.0
C365 C 0.39726 0.62194 0.26625 0.0
H366 H 0.37128 0.7384 0.11542 0.0
C367 C 0.34199 0.60279 0.24111 0.0
C368 C 0.36849 0.62577 0.23433 0.0
H369 H 0.45629 0.72894 0.20311 0.0
H370 H 0.43355 0.67656 0.23003 0.0
H371 H 0.31088 0.72057 0.17331 0.0
H372 H 0.37163 0.65695 0.09542 0.0
H373 H 0.33145 0.63749 0.09674 0.0
H374 H 0.33325 0.68164 0.07752 0.0
H375 H 0.30751 0.72405 0.12008 0.0
H376 H 0.28261 0.69374 0.14666 0.0
C377 C 0.40028 0.6556 0.29132 0.0
C378 C 0.43185 0.60761 0.24934 0.0
C379 C 0.23173 0.57849 0.15865 0.0
C380 C 0.21746 0.59293 0.12256 0.0
C381 C 0.23439 0.61958 0.10339 0.0
C382 C 0.26529 0.63188 0.11986 0.0
C383 C 0.27933 0.61749 0.15602 0.0
C384 C 0.26276 0.59113 0.17484 0.0
C385 C 0.28173 0.57938 0.21326 0.0
C386 C 0.313 0.60207 0.21344 0.0
C387 C 0.31099 0.62466 0.18003 0.0
C388 C 0.25788 0.58818 0.2479 0.0
C389 C 0.29246 0.54007 0.21043 0.0
C390 C 0.38492 0.72459 0.14016 0.0
C391 C 0.4153 0.73747 0.15763 0.0
C392 C 0.43274 0.7192 0.1896 0.0
C393 C 0.41934 0.689 0.20525 0.0
C394 C 0.38795 0.67721 0.18898 0.0
C395 C 0.37168 0.69436 0.15638 0.0
C396 C 0.33875 0.67764 0.14306 0.0
C397 C 0.33715 0.64879 0.17432 0.0
C398 C 0.36593 0.64889 0.20106 0.0
C399 C 0.30817 0.70531 0.14557 0.0
C400 C 0.34369 0.66279 0.10094 0.0
H401 H 0.30927 0.55048 0.29395 0.0
H402 H 0.42477 0.59138 0.33744 0.0
H403 H 0.43038 0.5795 0.2417 0.0
H404 H 0.43804 0.62084 0.22139 0.0
H405 H 0.45389 0.60977 0.27135 0.0
H406 H 0.38262 0.65587 0.31658 0.0
H407 H 0.42713 0.65783 0.30401 0.0
H408 H 0.3923 0.67977 0.27425 0.0
H409 H 0.21887 0.55805 0.17388 0.0
H410 H 0.22356 0.63089 0.07563 0.0
H411 H 0.27691 0.65231 0.10389 0.0
H412 H 0.24237 0.61316 0.24185 0.0
H413 H 0.23938 0.56731 0.25234 0.0
H414 H 0.27261 0.59233 0.27611 0.0
H415 H 0.30453 0.53458 0.18163 0.0
H416 H 0.3119 0.53109 0.23379 0.0
H417 H 0.26948 0.52387 0.21234 0.0
H418 H 0.3358 0.53089 0.35806 0.0
C419 C 0.33435 0.55965 0.30235 0.0
C420 C 0.17746 0.0993 0.70877 0.0
C421 C 0.18597 0.08325 0.67303 0.0
C422 C 0.21903 0.08689 0.65802 0.0
C423 C 0.23112 0.12951 0.70827 0.0
C424 C 0.20043 0.12261 0.72586 0.0
C425 C 0.19325 0.14667 0.75984 0.0
H426 H 0.21715 0.30312 0.83994 0.0
C427 C 0.2454 0.16035 0.72735 0.0
C428 C 0.22404 0.1699 0.75862 0.0
H429 H 0.14027 0.23001 0.86837 0.0
H430 H 0.17062 0.18485 0.831 0.0
H431 H 0.21732 0.28694 0.75069 0.0
H432 H 0.31066 0.24745 0.80761 0.0
H433 H 0.29229 0.28945 0.82248 0.0
H434 H 0.28427 0.24993 0.84883 0.0
H435 H 0.24616 0.3135 0.77896 0.0
H436 H 0.26042 0.28993 0.7368 0.0
C437 C 0.15816 0.16728 0.74996 0.0
C438 C 0.194 0.12448 0.79863 0.0
C439 C 0.32973 0.23135 0.65226 0.0
C440 C 0.34344 0.26391 0.66012 0.0
C441 C 0.3395 0.27917 0.69743 0.0
C442 C 0.31997 0.26333 0.72587 0.0
C443 C 0.30346 0.23252 0.71635 0.0
C444 C 0.30987 0.21601 0.68102 0.0
C445 C 0.29119 0.18258 0.67715 0.0
C446 C 0.2713 0.18281 0.71531 0.0
C447 C 0.27779 0.21284 0.73724 0.0
C448 C 0.26662 0.18625 0.63953 0.0
C449 C 0.31859 0.1515 0.67618 0.0
C450 C 0.20754 0.27702 0.83882 0.0
C451 C 0.1763 0.26989 0.85605 0.0
C452 C 0.16431 0.23581 0.8548 0.0
C453 C 0.18171 0.20996 0.83279 0.0
C454 C 0.21075 0.21879 0.81152 0.0
C455 C 0.2242 0.25128 0.81649 0.0
C456 C 0.25452 0.25672 0.79113 0.0
C457 C 0.25664 0.22234 0.76917 0.0
C458 C 0.23043 0.20056 0.78051 0.0
C459 C 0.24447 0.28843 0.76293 0.0
C460 C 0.28717 0.26136 0.81871 0.0
H461 H 0.26621 0.1128 0.66231 0.0
H462 H 0.15205 0.0966 0.7206 0.0
H463 H 0.21211 0.101 0.79697 0.0
H464 H 0.20383 0.13888 0.82469 0.0
H465 H 0.16785 0.11522 0.8045 0.0
H466 H 0.15647 0.17606 0.71829 0.0
H467 H 0.13588 0.15072 0.75492 0.0
H468 H 0.15442 0.19131 0.76711 0.0
H469 H 0.33325 0.21901 0.62389 0.0
H470 H 0.35059 0.30401 0.70396 0.0
H471 H 0.31697 0.27663 0.75337 0.0
H472 H 0.25091 0.21146 0.63968 0.0
H473 H 0.28171 0.18578 0.61219 0.0
H474 H 0.24788 0.16562 0.6369 0.0
H475 H 0.34467 0.15881 0.68771 0.0
H476 H 0.31191 0.12938 0.6955 0.0
H477 H 0.32162 0.14197 0.64547 0.0
H478 H 0.22593 0.07428 0.63066 0.0
C479 C 0.242 0.1096 0.67599 0.0
Nd480 Nd 0.04366 0.98811 0.51655 0.0
Nd481 Nd 1.01045 0.05421 0.52751 0.0
C482 C 0.06598 0.92185 0.51055 0.0
C483 C 0.09274 0.90189 0.53509 0.0
C484 C 0.08862 0.86664 0.54491 0.0
C485 C 0.11182 0.84914 0.57248 0.0
C486 C 0.13903 0.86696 0.59073 0.0
C487 C 0.14345 0.90195 0.58034 0.0
C488 C 0.12056 0.91924 0.55271 0.0
C489 C 0.08547 0.03092 0.56062 0.0
C490 C 0.9916 0.99228 0.59415 0.0
C491 C 0.98305 0.1167 0.54303 0.0
C492 C 0.96835 0.14316 0.51443 0.0
C493 C 0.9409 0.16615 0.52488 0.0
C494 C 0.92015 0.18384 0.49521 0.0
C495 C 0.92646 0.17804 0.45502 0.0
C496 C 0.95567 0.15742 0.44481 0.0
C497 C 0.97664 0.14023 0.47439 0.0
C498 C 0.97959 1.01967 0.46495 0.0
C499 C 0.06323 0.0497 0.45212 0.0
O500 O 0.03826 0.93155 0.52905 0.0
O501 O 0.07676 0.94697 0.48849 0.0
O502 O 0.0965 1.01015 0.53364 0.0
O503 O 0.05367 0.02774 0.56504 0.0
O504 O 1.0146 0.97268 0.57465 0.0
O505 O 0.98511 0.02524 0.58144 0.0
O506 O 1.01664 0.10995 0.54232 0.0
O507 O 0.96554 0.08838 0.54402 0.0
O508 O 0.98711 0.05209 0.46358 0.0
O509 O 0.98897 1.00617 0.49809 0.0
O510 O 0.05209 0.07008 0.48117 0.0
O511 O 0.05716 1.01577 0.45545 0.0
H512 H 0.06704 0.85298 0.53201 0.0
H513 H 0.10825 0.82202 0.58012 0.0
H514 H 0.1644 0.916 0.59407 0.0
H515 H 0.12414 0.94649 0.54592 0.0
H516 H 0.93391 0.16834 0.55556 0.0
H517 H 0.89745 0.19953 0.50339 0.0
H518 H 0.9607 0.15258 0.41393 0.0
H519 H 0.99761 0.12243 0.46572 0.0
Nd520 Nd 0.52935 1.00957 0.05579 0.0
Nd521 Nd 0.52892 0.0404 0.9929 0.0
C522 C 0.53562 0.95847 0.10991 0.0
C523 C 0.51578 0.92744 0.11654 0.0
C524 C 0.53186 0.898 0.1361 0.0
C525 C 0.51371 0.86762 0.14046 0.0
C526 C 0.47938 0.86646 0.12513 0.0
C527 C 0.46329 0.89586 0.10545 0.0
C528 C 0.4814 0.92623 0.10118 0.0
C529 C 0.46832 0.05502 0.05947 0.0
C530 C 0.48947 0.97192 0.98178 0.0
C531 C 0.52485 0.09018 0.93721 0.0
C532 C 0.54854 0.11715 0.92665 0.0
C533 C 0.53618 0.14621 0.90356 0.0
C534 C 0.55847 0.17261 0.89475 0.0
C535 C 0.59325 0.1701 0.90902 0.0
C536 C 0.60563 0.14104 0.93218 0.0
C537 C 0.58335 0.11469 0.94101 0.0
C538 C 0.58954 0.99412 0.98952 0.0
C539 C 0.56616 0.07966 0.0677 0.0
O540 O 0.55278 0.95831 0.0775 0.0
O541 O 0.51953 0.98859 0.11572 0.0
O542 O 0.49321 0.05083 0.08652 0.0
O543 O 0.47776 0.03711 0.02887 0.0
O544 O 0.49996 0.96887 1.01912 0.0
O545 O 0.49491 1.00098 0.96307 0.0
O546 O 0.5112 0.09377 0.97167 0.0
O547 O 0.53569 0.05804 0.93093 0.0
O548 O 0.56451 0.99821 0.96271 0.0
O549 O 0.58044 1.01278 1.01964 0.0
O550 O 0.55726 0.08184 0.02981 0.0
O551 O 0.56035 0.05085 0.08676 0.0
H552 H 0.55848 0.89843 0.14771 0.0
H553 H 0.52637 0.84503 0.15573 0.0
H554 H 0.4368 0.89524 0.09351 0.0
H555 H 0.46865 0.94866 0.08571 0.0
H556 H 0.50932 0.14856 0.89259 0.0
H557 H 0.54864 0.195 0.8769 0.0
H558 H 0.63241 0.13889 0.94343 0.0
H559 H 0.5932 0.09248 0.95917 0.0
Nd560 Nd 0.52154 0.49809 0.5452 0.0
Nd561 Nd 0.5485 0.56387 0.50581 0.0
C562 C 0.48875 0.44188 0.56382 0.0
C563 C 0.45813 0.42067 0.56663 0.0
C564 C 0.44728 0.39987 0.53472 0.0
C565 C 0.42448 0.37323 0.54081 0.0
C566 C 0.41264 0.36708 0.57887 0.0
C567 C 0.42144 0.38934 0.60994 0.0
C568 C 0.44404 0.41594 0.6039 0.0
C569 C 0.58752 0.50749 0.57789 0.0
C570 C 0.50556 0.57114 0.58759 0.0
C571 C 0.5742 0.62507 0.49132 0.0
C572 C 0.58383 0.65203 0.46308 0.0
C573 C 0.60234 0.64372 0.42922 0.0
C574 C 0.61484 0.67046 0.40596 0.0
C575 C 0.60901 0.70563 0.41645 0.0
C576 C 0.58936 0.71388 0.44935 0.0
C577 C 0.5768 0.68722 0.47245 0.0
C578 C 0.48762 0.54131 0.47081 0.0
C579 C 0.56555 0.49103 0.46292 0.0
O580 O 0.50214 0.44655 0.52923 0.0
O581 O 0.49294 0.46779 0.58832 0.0
O582 O 0.56852 0.4824 0.58786 0.0
O583 O 0.57145 0.52636 0.55166 0.0
O584 O 0.49319 0.5401 0.58133 0.0
O585 O 0.53036 0.58299 0.56622 0.0
O586 O 0.59338 0.59576 0.49455 0.0
O587 O 0.5411 0.62117 0.49586 0.0
O588 O 0.51237 0.55478 0.45176 0.0
O589 O 0.49457 0.54203 0.50784 0.0
O590 O 0.57598 0.52318 0.4672 0.0
O591 O 0.54223 0.47821 0.48599 0.0
H592 H 0.45795 0.40273 0.50573 0.0
H593 H 0.41775 0.35618 0.51657 0.0
H594 H 0.41232 0.38489 0.63945 0.0
H595 H 0.45221 0.43126 0.6291 0.0
H596 H 0.60806 0.6167 0.42151 0.0
H597 H 0.63015 0.66376 0.38069 0.0
H598 H 0.58484 0.74086 0.45792 0.0
H599 H 0.56268 0.69406 0.4986 0.0
Nd600 Nd 1.01856 0.52953 0.06289 0.0
Nd601 Nd 0.04497 0.51694 0.98782 0.0
C602 C 0.98304 0.55088 0.12405 0.0
C603 C 0.96421 0.58466 0.13036 0.0
C604 C 0.93277 0.58628 0.14984 0.0
C605 C 0.91513 0.61866 0.15536 0.0
C606 C 0.92864 0.64951 0.14093 0.0
C607 C 0.95987 0.64785 0.1213 0.0
C608 C 0.97759 0.61576 0.1162 0.0
C609 C 0.08823 0.54071 0.06201 0.0
C610 C 0.99947 0.59376 0.99324 0.0
C611 C 0.07879 0.50692 0.92272 0.0
C612 C 0.08947 0.47269 0.90656 0.0
C613 C 0.12425 0.46543 0.8975 0.0
C614 C 0.13607 0.43112 0.88982 0.0
C615 C 0.11323 0.4038 0.8913 0.0
C616 C 0.07831 0.41109 0.89922 0.0
C617 C 0.06649 0.44526 0.90679 0.0
C618 C 0.983 0.48541 0.99638 0.0
C619 C 0.0613 0.4522 0.0554 0.0
O620 O 0.96995 0.53099 0.09655 0.0
O621 O 1.01664 0.55239 0.12254 0.0
O622 O 0.07411 0.5225 0.08886 0.0
O623 O 0.06584 0.5518 0.03563 0.0
O624 O 1.00012 0.5845 0.03164 0.0
O625 O 1.01525 0.57121 0.96922 0.0
O626 O 0.09445 0.51404 0.95662 0.0
O627 O 0.04534 0.51475 0.92213 0.0
O628 O 1.01029 0.46979 0.9824 0.0
O629 O 0.98968 0.51586 1.0067 0.0
O630 O 0.07268 0.46819 0.0235 0.0
O631 O 0.03491 0.46868 0.07329 0.0
H632 H 0.92205 0.56262 0.16094 0.0
H633 H 0.89114 0.61974 0.17097 0.0
H634 H 0.97073 0.67151 0.11035 0.0
H635 H 1.00184 0.61536 0.10117 0.0
H636 H 0.14251 0.48603 0.89791 0.0
H637 H 0.16312 0.42575 0.88352 0.0
H638 H 0.06042 0.39021 0.90029 0.0
H639 H 0.03965 0.4499 0.91428 0.0
C640 C 0.08463 0.08015 0.34234 0.0
C641 C 0.1165 0.09777 0.34761 0.0
C642 C 0.11376 0.08363 0.42103 0.0
C643 C 0.08224 0.06539 0.41566 0.0
N644 N 0.04003 0.04385 0.36873 0.0
N645 N 0.16275 0.11279 0.3931 0.0
C646 C 0.06863 0.06294 0.37549 0.0
C647 C 0.13128 0.09837 0.38739 0.0
N648 N 0.06894 0.0805 0.3052 0.0
N649 N 0.12723 0.087 0.45886 0.0
H650 H 0.17539 0.12466 0.37018 0.0
H651 H 0.17752 0.11138 0.41966 0.0
H652 H 0.11763 0.07411 0.48315 0.0
H653 H 0.14703 0.10335 0.46674 0.0
H654 H 0.04385 0.07274 0.29901 0.0
H655 H 0.08057 0.09027 0.2803 0.0
H656 H 0.03077 0.03681 0.34068 0.0
H657 H 1.02631 0.03323 0.39152 0.0
C658 C 0.46716 0.87995 0.94675 0.0
C659 C 0.44862 0.88855 0.91038 0.0
C660 C 0.44853 0.95042 0.92826 0.0
C661 C 0.47314 0.94248 0.96012 0.0
N662 N 0.51117 0.89762 0.99408 0.0
N663 N 0.42844 0.93379 0.86275 0.0
C664 C 0.48384 0.90666 0.96816 0.0
C665 C 0.44116 0.92433 0.90002 0.0
N666 N 0.46832 0.84647 0.96148 0.0
N667 N 0.43105 0.98238 0.9256 0.0
H668 H 0.42465 0.9158 0.84021 0.0
H669 H 0.42547 0.95982 0.85313 0.0
H670 H 0.4333 1.00116 0.94759 0.0
H671 H 0.41102 0.98825 0.90441 0.0
H672 H 0.47879 0.83968 0.98973 0.0
H673 H 0.45543 0.82642 0.94746 0.0
H674 H 0.52146 0.87198 0.99753 0.0
H675 H 0.52639 0.91547 1.00867 0.0
C676 C 0.64909 0.52641 0.66276 0.0
C677 C 0.67673 0.50186 0.65513 0.0
C678 C 0.65078 0.49125 0.58896 0.0
C679 C 0.62166 0.51334 0.59804 0.0
N680 N 0.5973 0.55959 0.63732 0.0
N681 N 0.70942 0.46878 0.60816 0.0
C682 C 0.62248 0.53377 0.63279 0.0
C683 C 0.67952 0.4872 0.61695 0.0
N684 N 0.64707 0.5407 0.69959 0.0
N685 N 0.64989 0.47276 0.55456 0.0
H686 H 0.73059 0.46568 0.62852 0.0
H687 H 0.71444 0.45918 0.58014 0.0
H688 H 0.62962 0.47639 0.53312 0.0
H689 H 0.66836 0.45323 0.54774 0.0
H690 H 0.62548 0.55527 0.70895 0.0
H691 H 0.66672 0.53675 0.72168 0.0
H692 H 0.59746 0.57735 0.66043 0.0
H693 H 0.57779 0.56517 0.61558 0.0
C694 C 0.87575 0.73502 0.12379 0.0
C695 C 0.88426 0.75286 0.15917 0.0
C696 C 0.92306 0.70326 0.18191 0.0
C697 C 0.91171 0.68417 0.14848 0.0
N698 N 0.87169 0.67882 0.09225 0.0
N699 N 0.90999 0.75081 0.2261 0.0
C700 C 0.88643 0.69916 0.12067 0.0
C701 C 0.90644 0.73625 0.18938 0.0
N702 N 0.85786 0.75251 0.0931 0.0
N703 N 0.94976 0.68993 0.20654 0.0
H704 H 0.89762 0.77448 0.23368 0.0
H705 H 0.92264 0.7378 0.25038 0.0
H706 H 0.96145 0.66498 0.2034 0.0
H707 H 0.9619 0.70459 0.22843 0.0
H708 H 0.85386 0.74179 0.06512 0.0
H709 H 0.84991 0.77893 0.09455 0.0
H710 H 0.85102 0.68765 0.07317 0.0
H711 H 0.87776 0.65204 0.09054 0.0
C712 C 0.36573 0.07138 0.07649 0.0
C713 C 0.36385 0.10268 0.09977 0.0
C714 C 0.42852 0.10544 0.08957 0.0
C715 C 0.43116 0.07234 0.06966 0.0
N716 N 0.40015 1.02215 0.04949 0.0
N717 N 0.39686 0.14648 0.13203 0.0
C718 C 0.39899 0.05517 0.06434 0.0
C719 C 0.39627 0.11881 0.10689 0.0
N720 N 0.33521 0.05728 0.0648 0.0
N721 N 0.45699 0.12526 0.09087 0.0
H722 H 0.37454 0.15724 0.14452 0.0
H723 H 0.41966 0.15697 0.14306 0.0
H724 H 0.48038 0.1171 0.07871 0.0
H725 H 0.45654 0.15105 0.10035 0.0
H726 H 0.33348 0.03719 0.0444 0.0
H727 H 0.3111 0.06793 0.07281 0.0
H728 H 0.37918 1.00607 0.04917 0.0
H729 H 0.423 1.00963 0.04034 0.0
C730 C 0.22395 0.83379 0.6412 0.0
C731 C 0.21329 0.82522 0.6798 0.0
C732 C 0.15313 0.84344 0.65999 0.0
C733 C 0.16353 0.84942 0.62068 0.0
N734 N 0.207 0.84284 0.5717 0.0
N735 N 0.16727 0.81571 0.72422 0.0
C736 C 0.19841 0.84216 0.61062 0.0
C737 C 0.17768 0.82816 0.6887 0.0
N738 N 0.25849 0.83566 0.63417 0.0
N739 N 0.12031 0.85372 0.67033 0.0
H740 H 0.18465 0.80445 0.74591 0.0
H741 H 0.14129 0.81384 0.73081 0.0
H742 H 0.10152 0.86484 0.65011 0.0
H743 H 0.11248 0.85368 0.69951 0.0
H744 H 0.26749 0.8454 0.60774 0.0
H745 H 0.27823 0.83076 0.65597 0.0
H746 H 0.23133 0.8343 0.56224 0.0
H747 H 0.1888 0.84867 0.54843 0.0
C748 C 0.89419 0.44617 0.98883 0.0
C749 C 0.88016 0.46225 0.95295 0.0
C750 C 0.93024 0.49852 0.95135 0.0
C751 C 0.94757 0.47726 0.98176 0.0
N752 N 0.94565 0.43088 0.0306 0.0
N753 N 0.8738 0.52143 0.92772 0.0
C754 C 0.92938 0.45115 1.00104 0.0
C755 C 0.89478 0.49379 0.94155 0.0
N756 N 0.87251 0.4311 1.01416 0.0
N757 N 0.94762 0.52248 0.93067 0.0
H758 H 0.84675 0.52076 0.92783 0.0
H759 H 0.883 0.54611 0.92225 0.0
H760 H 0.97416 0.52567 0.93512 0.0
H761 H 0.93617 0.53644 0.90629 0.0
H762 H 0.88048 0.42176 0.04245 0.0
H763 H 0.84559 0.43251 1.00869 0.0
H764 H 0.93457 0.40913 0.04277 0.0
H765 H 0.97115 0.43435 0.04086 0.0
C766 C 0.68018 0.75986 0.37773 0.0
C767 C 0.66044 0.78553 0.35429 0.0
C768 C 0.60674 0.7576 0.36969 0.0
C769 C 0.62635 0.73366 0.39541 0.0
N770 N 0.68044 0.71708 0.43116 0.0
N771 N 0.60495 0.81268 0.33286 0.0
C772 C 0.6627 0.73636 0.40165 0.0
C773 C 0.62365 0.78558 0.35177 0.0
N774 N 0.71556 0.75666 0.37564 0.0
N775 N 0.57231 0.75287 0.36135 0.0
H776 H 0.6167 0.83354 0.31956 0.0
H777 H 0.57801 0.81606 0.33326 0.0
H778 H 0.55914 0.73267 0.37402 0.0
H779 H 0.55747 0.76719 0.33965 0.0
H780 H 0.73068 0.73585 0.38857 0.0
H781 H 0.72969 0.77282 0.35799 0.0
H782 H 0.70622 0.72089 0.43984 0.0
H783 H 0.66859 0.69959 0.44958 0.0
C784 C 0.11434 0.37913 0.12334 0.0
C785 C 0.11694 0.34901 0.09849 0.0
C786 C 0.08333 0.38626 0.04546 0.0
C787 C 0.07923 0.41591 0.07102 0.0
N788 N 0.08847 0.43719 0.13739 0.0
N789 N 0.09836 0.32375 0.03681 0.0
C790 C 0.09388 0.41105 0.11085 0.0
C791 C 0.10001 0.35286 0.05974 0.0
N792 N 0.13328 0.37815 0.15858 0.0
N793 N 0.0708 0.38974 1.007 0.0
H794 H 0.10942 0.2994 0.04606 0.0
H795 H 0.08375 0.32268 1.01024 0.0
H796 H 0.05588 0.41161 0.99639 0.0
H797 H 0.07618 0.3717 0.985 0.0
H798 H 0.13666 0.39988 0.1763 0.0
H799 H 0.1483 0.35611 0.16863 0.0
H800 H 0.09385 0.43423 0.1678 0.0
H801 H 0.07639 0.46137 0.1295 0.0
C802 C 0.63289 0.25869 0.90812 0.0
C803 C 0.65603 0.25431 0.87675 0.0
C804 C 0.63919 0.19406 0.86762 0.0
C805 C 0.61668 0.19816 0.89959 0.0
N806 N 0.59734 0.23095 0.95581 0.0
N807 N 0.68711 0.21646 0.83241 0.0
C808 C 0.61522 0.22945 0.92165 0.0
C809 C 0.66105 0.22147 0.85832 0.0
N810 N 0.62667 0.29109 0.92375 0.0
N811 N 0.63867 0.16453 0.84523 0.0
H812 H 0.70357 0.23611 0.82501 0.0
H813 H 0.69442 0.19219 0.82095 0.0
H814 H 0.62346 0.14357 0.85159 0.0
H815 H 0.65143 0.16169 0.81879 0.0
H816 H 0.6071 0.2968 0.94335 0.0
H817 H 0.63953 0.31307 0.9151 0.0
H818 H 0.59826 0.25168 0.97545 0.0
H819 H 0.58384 0.21004 0.96635 0.0
C820 C 0.89845 1.00905 0.39831 0.0
C821 C 0.90248 0.97313 0.38905 0.0
C822 C 0.9595 0.96958 0.42436 0.0
C823 C 0.95342 1.00424 0.43782 0.0
N824 N 0.91226 0.05347 0.44562 0.0
N825 N 0.93388 0.91725 0.39971 0.0
C826 C 0.92168 0.02322 0.42685 0.0
C827 C 0.93225 0.9528 0.40376 0.0
N828 N 0.87272 0.0298 0.3795 0.0
N829 N 0.99154 0.9529 0.43037 0.0
H830 H 0.91415 0.90371 0.38567 0.0
H831 H 0.95327 0.90086 0.41361 0.0
H832 H 1.01231 0.9644 0.44499 0.0
H833 H 0.99843 0.92904 0.41759 0.0
H834 H 0.87088 0.05692 0.38231 0.0
H835 H 0.85535 1.02035 0.35812 0.0
H836 H 0.88767 0.06588 0.44145 0.0
H837 H 0.92691 0.06383 0.46888 0.0
C838 C 0.46824 0.65208 0.63877 0.0
C839 C 0.46304 0.63853 0.67723 0.0
C840 C 0.49064 0.58212 0.65883 0.0
C841 C 0.49109 0.59418 0.61878 0.0
N842 N 0.47528 0.63937 0.56954 0.0
N843 N 0.46687 0.59022 0.72387 0.0
C844 C 0.47888 0.62896 0.60851 0.0
C845 C 0.4737 0.60342 0.68735 0.0
N846 N 0.46276 0.68716 0.63109 0.0
N847 N 0.50755 0.55104 0.66996 0.0
H848 H 0.45601 0.60562 0.74593 0.0
H849 H 0.47017 0.56375 0.73147 0.0
H850 H 0.52094 0.53517 0.65018 0.0
H851 H 0.51107 0.54252 0.69939 0.0
H852 H 0.4697 0.69918 0.6049 0.0
H853 H 0.45435 0.70486 0.65235 0.0
H854 H 0.46284 0.66298 0.56 0.0
H855 H 0.48155 0.62303 0.54622 0.0
C856 C 0.93477 0.93249 0.66132 0.0
C857 C 0.93705 0.94803 0.69975 0.0
C858 C 0.97376 0.9933 0.66901 0.0
C859 C 0.97277 0.9769 0.63087 0.0
N860 N 0.9535 0.92805 0.59298 0.0
N861 N 0.96326 0.99136 0.74032 0.0
C862 C 0.95376 0.94558 0.62802 0.0
C863 C 0.95767 0.97806 0.7033 0.0
N864 N 0.91283 0.90587 0.65595 0.0
N865 N 0.99044 0.02379 0.67282 0.0
H866 H 0.95219 0.98129 0.76545 0.0
H867 H 0.9808 1.01041 0.74697 0.0
H868 H 1.00516 0.03389 0.65058 0.0
H869 H 0.98855 0.04005 0.69721 0.0
H870 H 0.90602 0.89567 0.62841 0.0
H871 H 0.89924 0.89543 0.67903 0.0
H872 H 0.94488 0.90289 0.58971 0.0
H873 H 0.96347 0.938 0.56717 0.0
C874 C 0.58509 0.17281 0.10223 0.0
C875 C 0.60372 0.16506 0.13876 0.0
C876 C 0.60519 0.1028 0.12212 0.0
C877 C 0.58112 0.10979 0.08954 0.0
N878 N 0.54238 0.15317 0.05435 0.0
N879 N 0.62372 0.1208 0.18764 0.0
C880 C 0.56954 0.14529 0.08089 0.0
C881 C 0.61154 0.12948 0.14995 0.0
N882 N 0.58284 0.20621 0.08722 0.0
N883 N 0.62319 0.07115 0.12587 0.0
H884 H 0.62666 0.13921 0.20991 0.0
H885 H 0.62697 0.09495 0.19785 0.0
H886 H 0.62164 0.0519 0.10433 0.0
H887 H 0.64294 0.06599 0.14759 0.0
H888 H 0.57251 0.21248 0.05876 0.0
H889 H 0.5946 0.22688 0.1014 0.0
H890 H 0.53129 0.17846 0.05033 0.0
H891 H 0.52811 0.13454 0.03978 0.0
C892 C 0.41495 0.51696 0.40113 0.0
C893 C 0.3989 0.55052 0.39227 0.0
C894 C 0.43397 0.57601 0.44566 0.0
C895 C 0.45176 0.543 0.45259 0.0
N896 N 0.44986 0.48061 0.44886 0.0
N897 N 0.38365 0.60829 0.41517 0.0
C898 C 0.43893 0.5129 0.43439 0.0
C899 C 0.40503 0.57871 0.41808 0.0
N900 N 0.40932 0.48968 0.3764 0.0
N901 N 0.44602 0.60507 0.46355 0.0
H902 H 0.36223 0.61054 0.39508 0.0
H903 H 0.38507 0.62885 0.43502 0.0
H904 H 0.46678 0.60376 0.48442 0.0
H905 H 0.43675 0.63047 0.45616 0.0
H906 H 0.42351 0.46578 0.3789 0.0
H907 H 0.39175 0.49162 0.35199 0.0
H908 H 0.43948 0.45751 0.43898 0.0
H909 H 0.46717 0.47765 0.47343 0.0
C910 C 0.1601 0.31449 0.90672 0.0
C911 C 0.15408 0.29998 0.86875 0.0
C912 C 0.11967 0.35269 0.84637 0.0
C913 C 0.12582 0.36735 0.88425 0.0
N914 N 0.14575 0.36069 0.95288 0.0
N915 N 0.12249 0.30121 0.80531 0.0
C916 C 0.14407 0.34768 0.91529 0.0
C917 C 0.13179 0.31775 0.83961 0.0
N918 N 0.18216 0.297 0.9339 0.0
N919 N 0.10382 0.37282 0.81627 0.0
H920 H 0.13165 0.27595 0.79871 0.0
H921 H 0.10346 0.31123 0.78481 0.0
H922 H 0.09422 0.39847 0.82012 0.0
H923 H 0.10231 0.36518 0.78676 0.0
H924 H 0.19103 0.30772 0.96044 0.0
H925 H 0.19286 0.27189 0.92901 0.0
H926 H 0.15549 0.3463 0.97769 0.0
H927 H 0.13509 0.38534 0.95986 0.0
C928 C 0.65926 0.92716 0.94313 0.0
C929 C 0.69249 0.94171 0.95035 0.0
C930 C 0.65907 0.99144 0.98422 0.0
C931 C 0.62618 0.97542 0.97951 0.0
N932 N 0.59835 0.92326 0.95944 0.0
N933 N 0.72291 0.98671 0.98394 0.0
C934 C 0.62754 0.94204 0.96019 0.0
C935 C 0.69182 0.97362 0.97259 0.0
N936 N 0.65748 0.89942 0.91819 0.0
N937 N 0.65913 0.02473 0.99818 0.0
H938 H 0.74662 0.97523 0.97577 0.0
H939 H 0.72538 1.0071 1.00383 0.0
H940 H 0.63667 0.03825 1.00696 0.0
H941 H 0.68075 0.03994 0.99813 0.0
H942 H 0.63419 0.88984 0.90733 0.0
H943 H 0.67927 0.88804 0.90517 0.0
H944 H 0.59791 0.89734 0.95051 0.0
H945 H 0.57528 0.93235 0.97165 0.0
C946 C 0.87435 0.22821 0.37217 0.0
C947 C 0.84598 0.20628 0.3668 0.0
C948 C 0.87077 0.16591 0.41863 0.0
C949 C 0.89925 0.18776 0.424 0.0
N950 N 0.93148 0.23643 0.40299 0.0
N951 N 0.81912 0.15194 0.37973 0.0
C952 C 0.90211 0.21792 0.39975 0.0
C953 C 0.8449 0.17431 0.38835 0.0
N954 N 0.87412 0.25927 0.35161 0.0
N955 N 0.86796 0.13766 0.44341 0.0
H956 H 0.79856 0.15786 0.35927 0.0
H957 H 0.81916 0.1264 0.39069 0.0
H958 H 0.88727 0.12918 0.46447 0.0
H959 H 0.84574 0.12348 0.44484 0.0
H960 H 0.89171 0.27851 0.35724 0.0
H961 H 0.85516 0.26657 0.3296 0.0
H962 H 0.93699 0.25659 0.38363 0.0
H963 H 0.95164 0.23027 0.42396 0.0
C964 C 0.18517 0.55157 0.07909 0.0
C965 C 0.18442 0.5807 0.1047 0.0
C966 C 0.12114 0.5885 0.09345 0.0
C967 C 0.12149 0.55715 0.07137 0.0
N968 N 0.15291 0.50753 0.04451 0.0
N969 N 0.15223 0.62567 0.13911 0.0
C970 C 0.15331 0.53844 0.06434 0.0
C971 C 0.15254 0.59902 0.11244 0.0
N972 N 0.21642 0.5369 0.06834 0.0
N973 N 0.09075 0.60823 0.09616 0.0
H974 H 0.17477 0.63448 0.15304 0.0
H975 H 0.12964 0.63756 0.14965 0.0
H976 H 0.06714 0.601 0.08337 0.0
H977 H 0.0892 0.63309 0.10829 0.0
H978 H 0.21895 0.51813 0.04645 0.0
H979 H 0.24024 0.54523 0.07943 0.0
H980 H 0.17447 0.49019 0.04275 0.0
H981 H 0.13035 0.49838 0.03112 0.0
C982 C 0.34 0.31044 0.60761 0.0
C983 C 0.36012 0.28384 0.62904 0.0
C984 C 0.41337 0.30529 0.60308 0.0
C985 C 0.39388 0.33547 0.58818 0.0
N986 N 0.33907 0.36678 0.57339 0.0
N987 N 0.41519 0.25387 0.64626 0.0
C988 C 0.35716 0.33772 0.58888 0.0
C989 C 0.39659 0.2802 0.6258 0.0
N990 N 0.30456 0.30962 0.60574 0.0
N991 N 0.44794 0.3011 0.59588 0.0
H992 H 0.40336 0.23433 0.66185 0.0
H993 H 0.44219 0.25203 0.64925 0.0
H994 H 0.46098 0.31939 0.57976 0.0
H995 H 0.46311 0.27842 0.60293 0.0
H996 H 0.28829 0.32656 0.58812 0.0
H997 H 0.29143 0.28994 0.61949 0.0
H998 H 0.31268 0.37222 0.57693 0.0
H999 H 0.35099 0.38637 0.55798 0.0
C1000 C 0.96402 0.67334 0.92156 0.0
C1001 C 0.94356 0.69649 0.94577 0.0
C1002 C 0.95392 0.64873 0.99814 0.0
C1003 C 0.98023 0.62952 0.97688 0.0
N1004 N 1.01518 0.63387 0.91907 0.0
N1005 N 0.92801 0.7061 1.01362 0.0
C1006 C 0.98661 0.64488 0.93884 0.0
C1007 C 0.94116 0.68408 0.98592 0.0
N1008 N 0.96084 0.67695 0.88124 0.0
N1009 N 0.93865 0.6328 0.02869 0.0
H1010 H 0.92094 0.73229 1.0074 0.0
H1011 H 0.92841 0.69931 0.04371 0.0
H1012 H 0.94317 0.60641 0.03597 0.0
H1013 H 0.91761 0.64459 0.04256 0.0
H1014 H 0.97295 0.65932 0.86224 0.0
H1015 H 0.94253 0.69442 0.86707 0.0
H1016 H 1.02204 0.6459 0.8928 0.0
H1017 H 0.03454 0.61662 0.93145 0.0
C1018 C 0.41844 0.80174 0.16688 0.0
C1019 C 0.42787 0.77156 0.14504 0.0
C1020 C 0.46608 0.8056 0.10521 0.0
C1021 C 0.46007 0.83445 0.13048 0.0
N1022 N 0.43304 0.85984 0.18732 0.0
N1023 N 0.46146 0.74332 0.09484 0.0
C1024 C 0.43667 0.83262 0.16166 0.0
C1025 C 0.45171 0.77313 0.1143 0.0
N1026 N 0.39182 0.80084 0.19235 0.0
N1027 N 0.48509 0.80953 0.07228 0.0
H1028 H 0.45047 0.7194 0.09985 0.0
H1029 H 0.48169 0.74173 0.0754 0.0
H1030 H 0.4963 0.83291 0.06509 0.0
H1031 H 0.48757 0.79069 0.05045 0.0
H1032 H 0.38125 0.8229 0.20605 0.0
H1033 H 0.37817 0.77846 0.19725 0.0
H1034 H 0.41961 0.85851 0.21338 0.0
H1035 H 0.44557 0.88316 0.18416 0.0
C1036 C 0.15219 0.03354 0.64657 0.0
C1037 C 0.15822 0.06972 0.6468 0.0
C1038 C 0.11587 0.08057 0.5912 0.0
C1039 C 0.10896 0.04459 0.59171 0.0
N1040 N 0.11503 0.98782 0.62391 0.0
N1041 N 0.14239 0.12888 0.62427 0.0
C1042 C 0.12551 1.0213 0.62064 0.0
C1043 C 0.1389 0.09362 0.62067 0.0
N1044 N 0.1725 1.01092 0.67047 0.0
N1045 N 0.10148 0.10204 0.56152 0.0
H1046 H 0.16022 0.13972 0.64405 0.0
H1047 H 0.12593 0.14773 0.60962 0.0
H1048 H 0.0835 0.0937 0.5403 0.0
H1049 H 0.10897 0.12735 0.55619 0.0
H1050 H 0.17217 0.98381 0.66861 0.0
H1051 H 0.1914 1.01934 0.69075 0.0
H1052 H 0.12378 0.97041 0.64659 0.0
H1053 H 0.09528 0.97818 0.60568 0.0
C1054 C 0.62454 0.43938 0.39289 0.0
C1055 C 0.6022 0.41226 0.38219 0.0
C1056 C 0.5544 0.44678 0.41022 0.0
C1057 C 0.57837 0.46819 0.43027 0.0
N1058 N 0.63855 0.48217 0.44226 0.0
N1059 N 0.54513 0.38902 0.38537 0.0
C1060 C 0.61409 0.46427 0.42162 0.0
C1061 C 0.56673 0.41575 0.39164 0.0
N1062 N 0.65586 0.44116 0.37577 0.0
N1063 N 0.5199 0.45668 0.40794 0.0
H1064 H 0.55321 0.36511 0.37355 0.0
H1065 H 0.51994 0.38959 0.3955 0.0
H1066 H 0.51086 0.48098 0.41802 0.0
H1067 H 0.50156 0.44319 0.39143 0.0
H1068 H 0.67195 0.46196 0.38014 0.0
H1069 H 0.66374 0.42383 0.35383 0.0
H1070 H 0.66515 0.47699 0.4397 0.0
H1071 H 0.63276 0.49985 0.46448 0.0
loop_
_geom_bond_atom_site_label_1
_geom_bond_atom_site_label_2
_geom_bond_distance
_geom_bond_site_symmetry_2
_ccdc_geom_bond_type
C0 C1 1.391 . S
C0 C4 1.391 . S
C0 H42 0.948 . S
C1 C0 1.391 . S
C1 C2 1.391 . S
C2 C1 1.391 . S
C2 H58 0.947 . S
C2 C59 1.392 . S
C3 C4 1.391 . S
C3 C7 1.397 . S
C3 C59 1.419 . S
C4 C0 1.391 . S
C4 C3 1.391 . S
C4 C5 1.399 . S
C5 C4 1.399 . S
C5 C8 1.396 . S
C5 C17 1.453 . S
C5 C18 1.684 . S
H6 C30 0.948 . S
C7 C3 1.397 . S
C7 C8 1.394 . S
C7 C26 1.723 . S
C8 C5 1.396 . S
C8 C7 1.394 . S
C8 C38 1.723 . S
H9 C32 0.947 . S
H10 C33 0.948 . S
H11 C39 0.982 . S
H12 C40 0.979 . S
H13 C40 0.980 . S
H14 C40 0.983 . S
H15 C39 0.979 . S
H16 C39 0.977 . S
C17 C5 1.453 . S
C17 H46 0.982 . S
C17 H47 0.979 . S
C17 H48 0.977 . S
C18 C5 1.684 . S
C18 H43 0.979 . S
C18 H44 0.980 . S
C18 H45 0.983 . S
C19 C20 1.391 . S
C19 C24 1.391 . S
C19 H49 0.948 . S
C20 C19 1.391 . S
C20 C21 1.391 . S
C21 C20 1.391 . S
C21 C22 1.392 . S
C21 H50 0.947 . S
C22 C21 1.392 . S
C22 C23 1.419 . S
C22 H51 0.948 . S
C23 C22 1.419 . S
C23 C24 1.391 . S
C23 C27 1.397 . S
C24 C19 1.391 . S
C24 C23 1.391 . S
C24 C25 1.399 . S
C25 C24 1.399 . S
C25 C26 1.396 . S
C25 C28 1.453 . S
C25 C29 1.684 . S
C26 C7 1.723 . S
C26 C25 1.396 . S
C26 C27 1.394 . S
C27 C23 1.397 . S
C27 C26 1.394 . S
C27 C37 1.723 . S
C28 C25 1.453 . S
C28 H52 0.982 . S
C28 H53 0.979 . S
C28 H54 0.977 . S
C29 C25 1.684 . S
C29 H55 0.979 . S
C29 H56 0.980 . S
C29 H57 0.983 . S
C30 H6 0.948 . S
C30 C31 1.391 . S
C30 C35 1.391 . S
C31 C30 1.391 . S
C31 C32 1.391 . S
C32 H9 0.947 . S
C32 C31 1.391 . S
C32 C33 1.392 . S
C33 H10 0.948 . S
C33 C32 1.392 . S
C33 C34 1.419 . S
C34 C33 1.419 . S
C34 C35 1.391 . S
C34 C38 1.397 . S
C35 C30 1.391 . S
C35 C34 1.391 . S
C35 C36 1.399 . S
C36 C35 1.399 . S
C36 C37 1.396 . S
C36 C39 1.453 . S
C36 C40 1.684 . S
C37 C27 1.723 . S
C37 C36 1.396 . S
C37 C38 1.394 . S
C38 C8 1.723 . S
C38 C34 1.397 . S
C38 C37 1.394 . S
C39 H11 0.982 . S
C39 H15 0.979 . S
C39 H16 0.977 . S
C39 C36 1.453 . S
C40 H12 0.979 . S
C40 H13 0.980 . S
C40 H14 0.983 . S
C40 C36 1.684 . S
H41 C59 0.948 . S
H42 C0 0.948 . S
H43 C18 0.979 . S
H44 C18 0.980 . S
H45 C18 0.983 . S
H46 C17 0.982 . S
H47 C17 0.979 . S
H48 C17 0.977 . S
H49 C19 0.948 . S
H50 C21 0.947 . S
H51 C22 0.948 . S
H52 C28 0.982 . S
H53 C28 0.979 . S
H54 C28 0.977 . S
H55 C29 0.979 . S
H56 C29 0.980 . S
H57 C29 0.983 . S
H58 C2 0.947 . S
C59 C2 1.392 . S
C59 C3 1.419 . S
C59 H41 0.948 . S
C60 C61 1.391 . S
C60 C64 1.391 . S
C60 H102 0.948 . S
C61 C60 1.391 . S
C61 C62 1.391 . S
C62 C61 1.391 . S
C62 H118 0.947 . S
C62 C119 1.392 . S
C63 C64 1.391 . S
C63 C67 1.397 . S
C63 C119 1.419 . S
C64 C60 1.391 . S
C64 C63 1.391 . S
C64 C65 1.399 . S
C65 C64 1.399 . S
C65 C68 1.396 . S
C65 C77 1.453 . S
C65 C78 1.684 . S
H66 C90 0.948 . S
C67 C63 1.397 . S
C67 C68 1.394 . S
C67 C86 1.723 . S
C68 C65 1.396 . S
C68 C67 1.394 . S
C68 C98 1.723 . S
H69 C92 0.947 . S
H70 C93 0.948 . S
H71 C99 0.982 . S
H72 C100 0.979 . S
H73 C100 0.980 . S
H74 C100 0.983 . S
H75 C99 0.979 . S
H76 C99 0.977 . S
C77 C65 1.453 . S
C77 H106 0.982 . S
C77 H107 0.979 . S
C77 H108 0.977 . S
C78 C65 1.684 . S
C78 H103 0.979 . S
C78 H104 0.980 . S
C78 H105 0.983 . S
C79 C80 1.391 . S
C79 C84 1.391 . S
C79 H109 0.948 . S
C80 C79 1.391 . S
C80 C81 1.391 . S
C81 C80 1.391 . S
C81 C82 1.392 . S
C81 H110 0.947 . S
C82 C81 1.392 . S
C82 C83 1.419 . S
C82 H111 0.948 . S
C83 C82 1.419 . S
C83 C84 1.391 . S
C83 C87 1.397 . S
C84 C79 1.391 . S
C84 C83 1.391 . S
C84 C85 1.399 . S
C85 C84 1.399 . S
C85 C86 1.396 . S
C85 C88 1.453 . S
C85 C89 1.684 . S
C86 C67 1.723 . S
C86 C85 1.396 . S
C86 C87 1.394 . S
C87 C83 1.397 . S
C87 C86 1.394 . S
C87 C97 1.723 . S
C88 C85 1.453 . S
C88 H112 0.982 . S
C88 H113 0.979 . S
C88 H114 0.977 . S
C89 C85 1.684 . S
C89 H115 0.979 . S
C89 H116 0.980 . S
C89 H117 0.983 . S
C90 H66 0.948 . S
C90 C91 1.391 . S
C90 C95 1.391 . S
C91 C90 1.391 . S
C91 C92 1.391 . S
C92 H69 0.947 . S
C92 C91 1.391 . S
C92 C93 1.392 . S
C93 H70 0.948 . S
C93 C92 1.392 . S
C93 C94 1.419 . S
C94 C93 1.419 . S
C94 C95 1.391 . S
C94 C98 1.397 . S
C95 C90 1.391 . S
C95 C94 1.391 . S
C95 C96 1.399 . S
C96 C95 1.399 . S
C96 C97 1.396 . S
C96 C99 1.453 . S
C96 C100 1.684 . S
C97 C87 1.723 . S
C97 C96 1.396 . S
C97 C98 1.394 . S
C98 C68 1.723 . S
C98 C94 1.397 . S
C98 C97 1.394 . S
C99 H71 0.982 . S
C99 H75 0.979 . S
C99 H76 0.977 . S
C99 C96 1.453 . S
C100 H72 0.979 . S
C100 H73 0.980 . S
C100 H74 0.983 . S
C100 C96 1.684 . S
H101 C119 0.948 . S
H102 C60 0.948 . S
H103 C78 0.979 . S
H104 C78 0.980 . S
H105 C78 0.983 . S
H106 C77 0.982 . S
H107 C77 0.979 . S
H108 C77 0.977 . S
H109 C79 0.948 . S
H110 C81 0.947 . S
H111 C82 0.948 . S
H112 C88 0.982 . S
H113 C88 0.979 . S
H114 C88 0.977 . S
H115 C89 0.979 . S
H116 C89 0.980 . S
H117 C89 0.983 . S
H118 C62 0.947 . S
C119 C62 1.392 . S
C119 C63 1.419 . S
C119 H101 0.948 . S
C120 C121 1.391 . S
C120 C124 1.391 . S
C120 H162 0.948 . S
C121 C120 1.391 . S
C121 C122 1.391 . S
C122 C121 1.391 . S
C122 H178 0.947 . S
C122 C179 1.392 . S
C123 C124 1.391 . S
C123 C127 1.397 . S
C123 C179 1.419 . S
C124 C120 1.391 . S
C124 C123 1.391 . S
C124 C125 1.399 . S
C125 C124 1.399 . S
C125 C128 1.396 . S
C125 C137 1.453 . S
C125 C138 1.684 . S
H126 C150 0.948 . S
C127 C123 1.397 . S
C127 C128 1.394 . S
C127 C146 1.723 . S
C128 C125 1.396 . S
C128 C127 1.394 . S
C128 C158 1.723 . S
H129 C152 0.947 . S
H130 C153 0.948 . S
H131 C159 0.982 . S
H132 C160 0.979 . S
H133 C160 0.980 . S
H134 C160 0.983 . S
H135 C159 0.979 . S
H136 C159 0.977 . S
C137 C125 1.453 . S
C137 H166 0.982 . S
C137 H167 0.979 . S
C137 H168 0.977 . S
C138 C125 1.684 . S
C138 H163 0.979 . S
C138 H164 0.980 . S
C138 H165 0.983 . S
C139 C140 1.391 . S
C139 C144 1.391 . S
C139 H169 0.948 . S
C140 C139 1.391 . S
C140 C141 1.391 . S
C141 C140 1.391 . S
C141 C142 1.392 . S
C141 H170 0.947 . S
C142 C141 1.392 . S
C142 C143 1.419 . S
C142 H171 0.948 . S
C143 C142 1.419 . S
C143 C144 1.391 . S
C143 C147 1.397 . S
C144 C139 1.391 . S
C144 C143 1.391 . S
C144 C145 1.399 . S
C145 C144 1.399 . S
C145 C146 1.396 . S
C145 C148 1.453 . S
C145 C149 1.684 . S
C146 C127 1.723 . S
C146 C145 1.396 . S
C146 C147 1.394 . S
C147 C143 1.397 . S
C147 C146 1.394 . S
C147 C157 1.723 . S
C148 C145 1.453 . S
C148 H172 0.982 . S
C148 H173 0.979 . S
C148 H174 0.977 . S
C149 C145 1.684 . S
C149 H175 0.979 . S
C149 H176 0.980 . S
C149 H177 0.983 . S
C150 H126 0.948 . S
C150 C151 1.391 . S
C150 C155 1.391 . S
C151 C150 1.391 . S
C151 C152 1.391 . S
C152 H129 0.947 . S
C152 C151 1.391 . S
C152 C153 1.392 . S
C153 H130 0.948 . S
C153 C152 1.392 . S
C153 C154 1.419 . S
C154 C153 1.419 . S
C154 C155 1.391 . S
C154 C158 1.397 . S
C155 C150 1.391 . S
C155 C154 1.391 . S
C155 C156 1.399 . S
C156 C155 1.399 . S
C156 C157 1.396 . S
C156 C159 1.453 . S
C156 C160 1.684 . S
C157 C147 1.723 . S
C157 C156 1.396 . S
C157 C158 1.394 . S
C158 C128 1.723 . S
C158 C154 1.397 . S
C158 C157 1.394 . S
C159 H131 0.982 . S
C159 H135 0.979 . S
C159 H136 0.977 . S
C159 C156 1.453 . S
C160 H132 0.979 . S
C160 H133 0.980 . S
C160 H134 0.983 . S
C160 C156 1.684 . S
H161 C179 0.948 . S
H162 C120 0.948 . S
H163 C138 0.979 . S
H164 C138 0.980 . S
H165 C138 0.983 . S
H166 C137 0.982 . S
H167 C137 0.979 . S
H168 C137 0.977 . S
H169 C139 0.948 . S
H170 C141 0.947 . S
H171 C142 0.948 . S
H172 C148 0.982 . S
H173 C148 0.979 . S
H174 C148 0.977 . S
H175 C149 0.979 . S
H176 C149 0.980 . S
H177 C149 0.983 . S
H178 C122 0.947 . S
C179 C122 1.392 . S
C179 C123 1.419 . S
C179 H161 0.948 . S
C180 C181 1.391 . S
C180 C184 1.391 . S
C180 H222 0.948 . S
C181 C180 1.391 . S
C181 C182 1.391 . S
C182 C181 1.391 . S
C182 H238 0.947 . S
C182 C239 1.392 . S
C183 C184 1.391 . S
C183 C187 1.397 . S
C183 C239 1.419 . S
C184 C180 1.391 . S
C184 C183 1.391 . S
C184 C185 1.399 . S
C185 C184 1.399 . S
C185 C188 1.396 . S
C185 C197 1.453 . S
C185 C198 1.684 . S
H186 C210 0.948 . S
C187 C183 1.397 . S
C187 C188 1.394 . S
C187 C206 1.723 . S
C188 C185 1.396 . S
C188 C187 1.394 . S
C188 C218 1.723 . S
H189 C212 0.947 . S
H190 C213 0.948 . S
H191 C219 0.982 . S
H192 C220 0.979 . S
H193 C220 0.980 . S
H194 C220 0.983 . S
H195 C219 0.979 . S
H196 C219 0.977 . S
C197 C185 1.453 . S
C197 H226 0.982 . S
C197 H227 0.979 . S
C197 H228 0.977 . S
C198 C185 1.684 . S
C198 H223 0.979 . S
C198 H224 0.980 . S
C198 H225 0.983 . S
C199 C200 1.391 . S
C199 C204 1.391 . S
C199 H229 0.948 . S
C200 C199 1.391 . S
C200 C201 1.391 . S
C201 C200 1.391 . S
C201 C202 1.392 . S
C201 H230 0.947 . S
C202 C201 1.392 . S
C202 C203 1.419 . S
C202 H231 0.948 . S
C203 C202 1.419 . S
C203 C204 1.391 . S
C203 C207 1.397 . S
C204 C199 1.391 . S
C204 C203 1.391 . S
C204 C205 1.399 . S
C205 C204 1.399 . S
C205 C206 1.396 . S
C205 C208 1.453 . S
C205 C209 1.684 . S
C206 C187 1.723 . S
C206 C205 1.396 . S
C206 C207 1.394 . S
C207 C203 1.397 . S
C207 C206 1.394 . S
C207 C217 1.723 . S
C208 C205 1.453 . S
C208 H232 0.982 . S
C208 H233 0.979 . S
C208 H234 0.977 . S
C209 C205 1.684 . S
C209 H235 0.979 . S
C209 H236 0.980 . S
C209 H237 0.983 . S
C210 H186 0.948 . S
C210 C211 1.391 . S
C210 C215 1.391 . S
C211 C210 1.391 . S
C211 C212 1.391 . S
C212 H189 0.947 . S
C212 C211 1.391 . S
C212 C213 1.392 . S
C213 H190 0.948 . S
C213 C212 1.392 . S
C213 C214 1.419 . S
C214 C213 1.419 . S
C214 C215 1.391 . S
C214 C218 1.397 . S
C215 C210 1.391 . S
C215 C214 1.391 . S
C215 C216 1.399 . S
C216 C215 1.399 . S
C216 C217 1.396 . S
C216 C219 1.453 . S
C216 C220 1.684 . S
C217 C207 1.723 . S
C217 C216 1.396 . S
C217 C218 1.394 . S
C218 C188 1.723 . S
C218 C214 1.397 . S
C218 C217 1.394 . S
C219 H191 0.982 . S
C219 H195 0.979 . S
C219 H196 0.977 . S
C219 C216 1.453 . S
C220 H192 0.979 . S
C220 H193 0.980 . S
C220 H194 0.983 . S
C220 C216 1.684 . S
H221 C239 0.948 . S
H222 C180 0.948 . S
H223 C198 0.979 . S
H224 C198 0.980 . S
H225 C198 0.983 . S
H226 C197 0.982 . S
H227 C197 0.979 . S
H228 C197 0.977 . S
H229 C199 0.948 . S
H230 C201 0.947 . S
H231 C202 0.948 . S
H232 C208 0.982 . S
H233 C208 0.979 . S
H234 C208 0.977 . S
H235 C209 0.979 . S
H236 C209 0.980 . S
H237 C209 0.983 . S
H238 C182 0.947 . S
C239 C182 1.392 . S
C239 C183 1.419 . S
C239 H221 0.948 . S
C240 C241 1.391 . S
C240 C244 1.391 . S
C240 H282 0.948 . S
C241 C240 1.391 . S
C241 C242 1.391 . S
C242 C241 1.391 . S
C242 H298 0.947 . S
C242 C299 1.392 . S
C243 C244 1.391 . S
C243 C247 1.397 . S
C243 C299 1.419 . S
C244 C240 1.391 . S
C244 C243 1.391 . S
C244 C245 1.399 . S
C245 C244 1.399 . S
C245 C248 1.396 . S
C245 C257 1.453 . S
C245 C258 1.684 . S
H246 C270 0.948 . S
C247 C243 1.397 . S
C247 C248 1.394 . S
C247 C266 1.723 . S
C248 C245 1.396 . S
C248 C247 1.394 . S
C248 C278 1.723 . S
H249 C272 0.947 . S
H250 C273 0.948 . S
H251 C279 0.982 . S
H252 C280 0.979 . S
H253 C280 0.980 . S
H254 C280 0.983 . S
H255 C279 0.979 . S
H256 C279 0.977 . S
C257 C245 1.453 . S
C257 H286 0.982 . S
C257 H287 0.979 . S
C257 H288 0.977 . S
C258 C245 1.684 . S
C258 H283 0.979 . S
C258 H284 0.980 . S
C258 H285 0.983 . S
C259 C260 1.391 . S
C259 C264 1.391 . S
C259 H289 0.948 . S
C260 C259 1.391 . S
C260 C261 1.391 . S
C261 C260 1.391 . S
C261 C262 1.392 . S
C261 H290 0.947 . S
C262 C261 1.392 . S
C262 C263 1.419 . S
C262 H291 0.948 . S
C263 C262 1.419 . S
C263 C264 1.391 . S
C263 C267 1.397 . S
C264 C259 1.391 . S
C264 C263 1.391 . S
C264 C265 1.399 . S
C265 C264 1.399 . S
C265 C266 1.396 . S
C265 C268 1.453 . S
C265 C269 1.684 . S
C266 C247 1.723 . S
C266 C265 1.396 . S
C266 C267 1.394 . S
C267 C263 1.397 . S
C267 C266 1.394 . S
C267 C277 1.723 . S
C268 C265 1.453 . S
C268 H292 0.982 . S
C268 H293 0.979 . S
C268 H294 0.977 . S
C269 C265 1.684 . S
C269 H295 0.979 . S
C269 H296 0.980 . S
C269 H297 0.983 . S
C270 H246 0.948 . S
C270 C271 1.391 . S
C270 C275 1.391 . S
C271 C270 1.391 . S
C271 C272 1.391 . S
C272 H249 0.947 . S
C272 C271 1.391 . S
C272 C273 1.392 . S
C273 H250 0.948 . S
C273 C272 1.392 . S
C273 C274 1.419 . S
C274 C273 1.419 . S
C274 C275 1.391 . S
C274 C278 1.397 . S
C275 C270 1.391 . S
C275 C274 1.391 . S
C275 C276 1.399 . S
C276 C275 1.399 . S
C276 C277 1.396 . S
C276 C279 1.453 . S
C276 C280 1.684 . S
C277 C267 1.723 . S
C277 C276 1.396 . S
C277 C278 1.394 . S
C278 C248 1.723 . S
C278 C274 1.397 . S
C278 C277 1.394 . S
C279 H251 0.982 . S
C279 H255 0.979 . S
C279 H256 0.977 . S
C279 C276 1.453 . S
C280 H252 0.979 . S
C280 H253 0.980 . S
C280 H254 0.983 . S
C280 C276 1.684 . S
H281 C299 0.948 . S
H282 C240 0.948 . S
H283 C258 0.979 . S
H284 C258 0.980 . S
H285 C258 0.983 . S
H286 C257 0.982 . S
H287 C257 0.979 . S
H288 C257 0.977 . S
H289 C259 0.948 . S
H290 C261 0.947 . S
H291 C262 0.948 . S
H292 C268 0.982 . S
H293 C268 0.979 . S
H294 C268 0.977 . S
H295 C269 0.979 . S
H296 C269 0.980 . S
H297 C269 0.983 . S
H298 C242 0.947 . S
C299 C242 1.392 . S
C299 C243 1.419 . S
C299 H281 0.948 . S
C300 C301 1.391 . S
C300 C304 1.391 . S
C300 H342 0.948 . S
C301 C300 1.391 . S
C301 C302 1.391 . S
C302 C301 1.391 . S
C302 H358 0.947 . S
C302 C359 1.392 . S
C303 C304 1.391 . S
C303 C307 1.397 . S
C303 C359 1.419 . S
C304 C300 1.391 . S
C304 C303 1.391 . S
C304 C305 1.399 . S
C305 C304 1.399 . S
C305 C308 1.396 . S
C305 C317 1.453 . S
C305 C318 1.684 . S
H306 C330 0.948 . S
C307 C303 1.397 . S
C307 C308 1.394 . S
C307 C326 1.723 . S
C308 C305 1.396 . S
C308 C307 1.394 . S
C308 C338 1.723 . S
H309 C332 0.947 . S
H310 C333 0.948 . S
H311 C339 0.982 . S
H312 C340 0.979 . S
H313 C340 0.980 . S
H314 C340 0.983 . S
H315 C339 0.979 . S
H316 C339 0.977 . S
C317 C305 1.453 . S
C317 H346 0.982 . S
C317 H347 0.979 . S
C317 H348 0.977 . S
C318 C305 1.684 . S
C318 H343 0.979 . S
C318 H344 0.980 . S
C318 H345 0.983 . S
C319 C320 1.391 . S
C319 C324 1.391 . S
C319 H349 0.948 . S
C320 C319 1.391 . S
C320 C321 1.391 . S
C321 C320 1.391 . S
C321 C322 1.392 . S
C321 H350 0.947 . S
C322 C321 1.392 . S
C322 C323 1.419 . S
C322 H351 0.948 . S
C323 C322 1.419 . S
C323 C324 1.391 . S
C323 C327 1.397 . S
C324 C319 1.391 . S
C324 C323 1.391 . S
C324 C325 1.399 . S
C325 C324 1.399 . S
C325 C326 1.396 . S
C325 C328 1.453 . S
C325 C329 1.684 . S
C326 C307 1.723 . S
C326 C325 1.396 . S
C326 C327 1.394 . S
C327 C323 1.397 . S
C327 C326 1.394 . S
C327 C337 1.723 . S
C328 C325 1.453 . S
C328 H352 0.982 . S
C328 H353 0.979 . S
C328 H354 0.977 . S
C329 C325 1.684 . S
C329 H355 0.979 . S
C329 H356 0.980 . S
C329 H357 0.983 . S
C330 H306 0.948 . S
C330 C331 1.391 . S
C330 C335 1.391 . S
C331 C330 1.391 . S
C331 C332 1.391 . S
C332 H309 0.947 . S
C332 C331 1.391 . S
C332 C333 1.392 . S
C333 H310 0.948 . S
C333 C332 1.392 . S
C333 C334 1.419 . S
C334 C333 1.419 . S
C334 C335 1.391 . S
C334 C338 1.397 . S
C335 C330 1.391 . S
C335 C334 1.391 . S
C335 C336 1.399 . S
C336 C335 1.399 . S
C336 C337 1.396 . S
C336 C339 1.453 . S
C336 C340 1.684 . S
C337 C327 1.723 . S
C337 C336 1.396 . S
C337 C338 1.394 . S
C338 C308 1.723 . S
C338 C334 1.397 . S
C338 C337 1.394 . S
C339 H311 0.982 . S
C339 H315 0.979 . S
C339 H316 0.977 . S
C339 C336 1.453 . S
C340 H312 0.979 . S
C340 H313 0.980 . S
C340 H314 0.983 . S
C340 C336 1.684 . S
H341 C359 0.948 . S
H342 C300 0.948 . S
H343 C318 0.979 . S
H344 C318 0.980 . S
H345 C318 0.983 . S
H346 C317 0.982 . S
H347 C317 0.979 . S
H348 C317 0.977 . S
H349 C319 0.948 . S
H350 C321 0.947 . S
H351 C322 0.948 . S
H352 C328 0.982 . S
H353 C328 0.979 . S
H354 C328 0.977 . S
H355 C329 0.979 . S
H356 C329 0.980 . S
H357 C329 0.983 . S
H358 C302 0.947 . S
C359 C302 1.392 . S
C359 C303 1.419 . S
C359 H341 0.948 . S
C360 C361 1.391 . S
C360 C364 1.391 . S
C360 H402 0.948 . S
C361 C360 1.391 . S
C361 C362 1.391 . S
C362 C361 1.391 . S
C362 H418 0.947 . S
C362 C419 1.392 . S
C363 C364 1.391 . S
C363 C367 1.397 . S
C363 C419 1.419 . S
C364 C360 1.391 . S
C364 C363 1.391 . S
C364 C365 1.399 . S
C365 C364 1.399 . S
C365 C368 1.396 . S
C365 C377 1.453 . S
C365 C378 1.684 . S
H366 C390 0.948 . S
C367 C363 1.397 . S
C367 C368 1.394 . S
C367 C386 1.723 . S
C368 C365 1.396 . S
C368 C367 1.394 . S
C368 C398 1.723 . S
H369 C392 0.947 . S
H370 C393 0.948 . S
H371 C399 0.982 . S
H372 C400 0.979 . S
H373 C400 0.980 . S
H374 C400 0.983 . S
H375 C399 0.979 . S
H376 C399 0.977 . S
C377 C365 1.453 . S
C377 H406 0.982 . S
C377 H407 0.979 . S
C377 H408 0.977 . S
C378 C365 1.684 . S
C378 H403 0.979 . S
C378 H404 0.980 . S
C378 H405 0.983 . S
C379 C380 1.391 . S
C379 C384 1.391 . S
C379 H409 0.948 . S
C380 C379 1.391 . S
C380 C381 1.391 . S
C381 C380 1.391 . S
C381 C382 1.392 . S
C381 H410 0.947 . S
C382 C381 1.392 . S
C382 C383 1.419 . S
C382 H411 0.948 . S
C383 C382 1.419 . S
C383 C384 1.391 . S
C383 C387 1.397 . S
C384 C379 1.391 . S
C384 C383 1.391 . S
C384 C385 1.399 . S
C385 C384 1.399 . S
C385 C386 1.396 . S
C385 C388 1.453 . S
C385 C389 1.684 . S
C386 C367 1.723 . S
C386 C385 1.396 . S
C386 C387 1.394 . S
C387 C383 1.397 . S
C387 C386 1.394 . S
C387 C397 1.723 . S
C388 C385 1.453 . S
C388 H412 0.982 . S
C388 H413 0.979 . S
C388 H414 0.977 . S
C389 C385 1.684 . S
C389 H415 0.979 . S
C389 H416 0.980 . S
C389 H417 0.983 . S
C390 H366 0.948 . S
C390 C391 1.391 . S
C390 C395 1.391 . S
C391 C390 1.391 . S
C391 C392 1.391 . S
C392 H369 0.947 . S
C392 C391 1.391 . S
C392 C393 1.392 . S
C393 H370 0.948 . S
C393 C392 1.392 . S
C393 C394 1.419 . S
C394 C393 1.419 . S
C394 C395 1.391 . S
C394 C398 1.397 . S
C395 C390 1.391 . S
C395 C394 1.391 . S
C395 C396 1.399 . S
C396 C395 1.399 . S
C396 C397 1.396 . S
C396 C399 1.453 . S
C396 C400 1.684 . S
C397 C387 1.723 . S
C397 C396 1.396 . S
C397 C398 1.394 . S
C398 C368 1.723 . S
C398 C394 1.397 . S
C398 C397 1.394 . S
C399 H371 0.982 . S
C399 H375 0.979 . S
C399 H376 0.977 . S
C399 C396 1.453 . S
C400 H372 0.979 . S
C400 H373 0.980 . S
C400 H374 0.983 . S
C400 C396 1.684 . S
H401 C419 0.948 . S
H402 C360 0.948 . S
H403 C378 0.979 . S
H404 C378 0.980 . S
H405 C378 0.983 . S
H406 C377 0.982 . S
H407 C377 0.979 . S
H408 C377 0.977 . S
H409 C379 0.948 . S
H410 C381 0.947 . S
H411 C382 0.948 . S
H412 C388 0.982 . S
H413 C388 0.979 . S
H414 C388 0.977 . S
H415 C389 0.979 . S
H416 C389 0.980 . S
H417 C389 0.983 . S
H418 C362 0.947 . S
C419 C362 1.392 . S
C419 C363 1.419 . S
C419 H401 0.948 . S
C420 C421 1.391 . S
C420 C424 1.391 . S
C420 H462 0.948 . S
C421 C420 1.391 . S
C421 C422 1.391 . S
C422 C421 1.391 . S
C422 H478 0.947 . S
C422 C479 1.392 . S
C423 C424 1.391 . S
C423 C427 1.397 . S
C423 C479 1.419 . S
C424 C420 1.391 . S
C424 C423 1.391 . S
C424 C425 1.399 . S
C425 C424 1.399 . S
C425 C428 1.396 . S
C425 C437 1.453 . S
C425 C438 1.684 . S
H426 C450 0.948 . S
C427 C423 1.397 . S
C427 C428 1.394 . S
C427 C446 1.723 . S
C428 C425 1.396 . S
C428 C427 1.394 . S
C428 C458 1.723 . S
H429 C452 0.947 . S
H430 C453 0.948 . S
H431 C459 0.982 . S
H432 C460 0.979 . S
H433 C460 0.980 . S
H434 C460 0.983 . S
H435 C459 0.979 . S
H436 C459 0.977 . S
C437 C425 1.453 . S
C437 H466 0.982 . S
C437 H467 0.979 . S
C437 H468 0.977 . S
C438 C425 1.684 . S
C438 H463 0.979 . S
C438 H464 0.980 . S
C438 H465 0.983 . S
C439 C440 1.391 . S
C439 C444 1.391 . S
C439 H469 0.948 . S
C440 C439 1.391 . S
C440 C441 1.391 . S
C441 C440 1.391 . S
C441 C442 1.392 . S
C441 H470 0.947 . S
C442 C441 1.392 . S
C442 C443 1.419 . S
C442 H471 0.948 . S
C443 C442 1.419 . S
C443 C444 1.391 . S
C443 C447 1.397 . S
C444 C439 1.391 . S
C444 C443 1.391 . S
C444 C445 1.399 . S
C445 C444 1.399 . S
C445 C446 1.396 . S
C445 C448 1.453 . S
C445 C449 1.684 . S
C446 C427 1.723 . S
C446 C445 1.396 . S
C446 C447 1.394 . S
C447 C443 1.397 . S
C447 C446 1.394 . S
C447 C457 1.723 . S
C448 C445 1.453 . S
C448 H472 0.982 . S
C448 H473 0.979 . S
C448 H474 0.977 . S
C449 C445 1.684 . S
C449 H475 0.979 . S
C449 H476 0.980 . S
C449 H477 0.983 . S
C450 H426 0.948 . S
C450 C451 1.391 . S
C450 C455 1.391 . S
C451 C450 1.391 . S
C451 C452 1.391 . S
C452 H429 0.947 . S
C452 C451 1.391 . S
C452 C453 1.392 . S
C453 H430 0.948 . S
C453 C452 1.392 . S
C453 C454 1.419 . S
C454 C453 1.419 . S
C454 C455 1.391 . S
C454 C458 1.397 . S
C455 C450 1.391 . S
C455 C454 1.391 . S
C455 C456 1.399 . S
C456 C455 1.399 . S
C456 C457 1.396 . S
C456 C459 1.453 . S
C456 C460 1.684 . S
C457 C447 1.723 . S
C457 C456 1.396 . S
C457 C458 1.394 . S
C458 C428 1.723 . S
C458 C454 1.397 . S
C458 C457 1.394 . S
C459 H431 0.982 . S
C459 H435 0.979 . S
C459 H436 0.977 . S
C459 C456 1.453 . S
C460 H432 0.979 . S
C460 H433 0.980 . S
C460 H434 0.983 . S
C460 C456 1.684 . S
H461 C479 0.948 . S
H462 C420 0.948 . S
H463 C438 0.979 . S
H464 C438 0.980 . S
H465 C438 0.983 . S
H466 C437 0.982 . S
H467 C437 0.979 . S
H468 C437 0.977 . S
H469 C439 0.948 . S
H470 C441 0.947 . S
H471 C442 0.948 . S
H472 C448 0.982 . S
H473 C448 0.979 . S
H474 C448 0.977 . S
H475 C449 0.979 . S
H476 C449 0.980 . S
H477 C449 0.983 . S
H478 C422 0.947 . S
C479 C422 1.392 . S
C479 C423 1.419 . S
C479 H461 0.948 . S
Nd480 C482 2.836 . S
Nd480 O500 2.500 . S
Nd480 O501 2.492 . S
Nd480 O502 2.487 1_565 S
Nd480 O503 2.682 1_565 S
Nd480 O504 2.410 . S
Nd480 O509 2.414 1_455 S
Nd480 O511 2.424 1_565 S
Nd481 C491 2.836 . S
Nd481 O503 2.414 1_655 S
Nd481 O505 2.424 1_545 S
Nd481 O506 2.500 . S
Nd481 O507 2.492 . S
Nd481 O508 2.487 1_545 S
Nd481 O509 2.682 1_545 S
Nd481 O510 2.410 . S
C482 Nd480 2.836 . S
C482 C483 1.498 . S
C482 O500 1.258 . S
C482 O501 1.239 . S
C483 C482 1.498 . S
C483 C484 1.366 . S
C483 C488 1.407 . S
C484 C483 1.366 . S
C484 C485 1.392 . S
C484 H512 0.930 . S
C485 C484 1.392 . S
C485 C486 1.398 . S
C485 H513 0.929 . S
C486 C485 1.398 . S
C486 C487 1.352 . S
C487 C486 1.352 . S
C487 C488 1.384 . S
C487 H514 0.930 . S
C488 C483 1.407 . S
C488 C487 1.384 . S
C488 H515 0.929 . S
C489 O502 1.241 . S
C489 O503 1.273 . S
C490 O504 1.251 1_655 S
C490 O505 1.268 . S
C491 Nd481 2.836 . S
C491 C492 1.498 . S
C491 O506 1.258 . S
C491 O507 1.239 . S
C492 C491 1.498 . S
C492 C493 1.366 . S
C492 C497 1.407 . S
C493 C492 1.366 . S
C493 C494 1.392 . S
C493 H516 0.930 . S
C494 C493 1.392 . S
C494 C495 1.398 . S
C494 H517 0.929 . S
C495 C494 1.398 . S
C495 C496 1.352 . S
C496 C495 1.352 . S
C496 C497 1.384 . S
C496 H518 0.930 . S
C497 C492 1.407 . S
C497 C496 1.384 . S
C497 H519 0.929 . S
C498 O508 1.241 . S
C498 O509 1.273 . S
C499 O510 1.251 1_455 S
C499 O511 1.268 . S
O500 Nd480 2.500 . S
O500 C482 1.258 . S
O501 Nd480 2.492 . S
O501 C482 1.239 . S
O502 Nd480 2.487 1_545 S
O502 C489 1.241 . S
O503 Nd480 2.682 1_545 S
O503 Nd481 2.414 1_455 S
O503 C489 1.273 . S
O504 Nd480 2.410 . S
O504 C490 1.251 1_455 S
O505 Nd481 2.424 1_565 S
O505 C490 1.268 . S
O506 Nd481 2.500 . S
O506 C491 1.258 . S
O507 Nd481 2.492 . S
O507 C491 1.239 . S
O508 Nd481 2.487 1_565 S
O508 C498 1.241 . S
O509 Nd480 2.414 1_655 S
O509 Nd481 2.682 1_565 S
O509 C498 1.273 . S
O510 Nd481 2.410 . S
O510 C499 1.251 1_655 S
O511 Nd480 2.424 1_545 S
O511 C499 1.268 . S
H512 C484 0.930 . S
H513 C485 0.929 . S
H514 C487 0.930 . S
H515 C488 0.929 . S
H516 C493 0.930 . S
H517 C494 0.929 . S
H518 C496 0.930 . S
H519 C497 0.929 . S
Nd520 C522 2.836 . S
Nd520 O540 2.500 . S
Nd520 O541 2.492 . S
Nd520 O542 2.487 1_565 S
Nd520 O543 2.682 1_565 S
Nd520 O544 2.410 1_554 S
Nd520 O549 2.414 1_554 S
Nd520 O551 2.424 1_565 S
Nd521 C531 2.836 . S
Nd521 O543 2.414 1_556 S
Nd521 O545 2.424 1_545 S
Nd521 O546 2.500 . S
Nd521 O547 2.492 . S
Nd521 O548 2.487 1_545 S
Nd521 O549 2.682 1_545 S
Nd521 O550 2.410 1_556 S
C522 Nd520 2.836 . S
C522 C523 1.498 . S
C522 O540 1.258 . S
C522 O541 1.239 . S
C523 C522 1.498 . S
C523 C524 1.366 . S
C523 C528 1.407 . S
C524 C523 1.366 . S
C524 C525 1.392 . S
C524 H552 0.930 . S
C525 C524 1.392 . S
C525 C526 1.398 . S
C525 H553 0.929 . S
C526 C525 1.398 . S
C526 C527 1.352 . S
C527 C526 1.352 . S
C527 C528 1.384 . S
C527 H554 0.930 . S
C528 C523 1.407 . S
C528 C527 1.384 . S
C528 H555 0.929 . S
C529 O542 1.241 . S
C529 O543 1.273 . S
C530 O544 1.251 . S
C530 O545 1.268 . S
C531 Nd521 2.836 . S
C531 C532 1.498 . S
C531 O546 1.258 . S
C531 O547 1.239 . S
C532 C531 1.498 . S
C532 C533 1.366 . S
C532 C537 1.407 . S
C533 C532 1.366 . S
C533 C534 1.392 . S
C533 H556 0.930 . S
C534 C533 1.392 . S
C534 C535 1.398 . S
C534 H557 0.929 . S
C535 C534 1.398 . S
C535 C536 1.352 . S
C536 C535 1.352 . S
C536 C537 1.384 . S
C536 H558 0.930 . S
C537 C532 1.407 . S
C537 C536 1.384 . S
C537 H559 0.929 . S
C538 O548 1.241 . S
C538 O549 1.273 . S
C539 O550 1.251 . S
C539 O551 1.268 . S
O540 Nd520 2.500 . S
O540 C522 1.258 . S
O541 Nd520 2.492 . S
O541 C522 1.239 . S
O542 Nd520 2.487 1_545 S
O542 C529 1.241 . S
O543 Nd520 2.682 1_545 S
O543 Nd521 2.414 1_554 S
O543 C529 1.273 . S
O544 Nd520 2.410 1_556 S
O544 C530 1.251 . S
O545 Nd521 2.424 1_565 S
O545 C530 1.268 . S
O546 Nd521 2.500 . S
O546 C531 1.258 . S
O547 Nd521 2.492 . S
O547 C531 1.239 . S
O548 Nd521 2.487 1_565 S
O548 C538 1.241 . S
O549 Nd520 2.414 1_556 S
O549 Nd521 2.682 1_565 S
O549 C538 1.273 . S
O550 Nd521 2.410 1_554 S
O550 C539 1.251 . S
O551 Nd520 2.424 1_545 S
O551 C539 1.268 . S
H552 C524 0.930 . S
H553 C525 0.929 . S
H554 C527 0.930 . S
H555 C528 0.929 . S
H556 C533 0.930 . S
H557 C534 0.929 . S
H558 C536 0.930 . S
H559 C537 0.929 . S
Nd560 C562 2.836 . S
Nd560 O580 2.500 . S
Nd560 O581 2.492 . S
Nd560 O582 2.487 . S
Nd560 O583 2.682 . S
Nd560 O584 2.410 . S
Nd560 O589 2.414 . S
Nd560 O591 2.424 . S
Nd561 C571 2.836 . S
Nd561 O583 2.414 . S
Nd561 O585 2.424 . S
Nd561 O586 2.500 . S
Nd561 O587 2.492 . S
Nd561 O588 2.487 . S
Nd561 O589 2.682 . S
Nd561 O590 2.410 . S
C562 Nd560 2.836 . S
C562 C563 1.498 . S
C562 O580 1.258 . S
C562 O581 1.239 . S
C563 C562 1.498 . S
C563 C564 1.366 . S
C563 C568 1.407 . S
C564 C563 1.366 . S
C564 C565 1.392 . S
C564 H592 0.930 . S
C565 C564 1.392 . S
C565 C566 1.398 . S
C565 H593 0.929 . S
C566 C565 1.398 . S
C566 C567 1.352 . S
C567 C566 1.352 . S
C567 C568 1.384 . S
C567 H594 0.930 . S
C568 C563 1.407 . S
C568 C567 1.384 . S
C568 H595 0.929 . S
C569 O582 1.241 . S
C569 O583 1.273 . S
C570 O584 1.251 . S
C570 O585 1.268 . S
C571 Nd561 2.836 . S
C571 C572 1.498 . S
C571 O586 1.258 . S
C571 O587 1.239 . S
C572 C571 1.498 . S
C572 C573 1.366 . S
C572 C577 1.407 . S
C573 C572 1.366 . S
C573 C574 1.392 . S
C573 H596 0.930 . S
C574 C573 1.392 . S
C574 C575 1.398 . S
C574 H597 0.929 . S
C575 C574 1.398 . S
C575 C576 1.352 . S
C576 C575 1.352 . S
C576 C577 1.384 . S
C576 H598 0.930 . S
C577 C572 1.407 . S
C577 C576 1.384 . S
C577 H599 0.929 . S
C578 O588 1.241 . S
C578 O589 1.273 . S
C579 O590 1.251 . S
C579 O591 1.268 . S
O580 Nd560 2.500 . S
O580 C562 1.258 . S
O581 Nd560 2.492 . S
O581 C562 1.239 . S
O582 Nd560 2.487 . S
O582 C569 1.241 . S
O583 Nd560 2.682 . S
O583 Nd561 2.414 . S
O583 C569 1.273 . S
O584 Nd560 2.410 . S
O584 C570 1.251 . S
O585 Nd561 2.424 . S
O585 C570 1.268 . S
O586 Nd561 2.500 . S
O586 C571 1.258 . S
O587 Nd561 2.492 . S
O587 C571 1.239 . S
O588 Nd561 2.487 . S
O588 C578 1.241 . S
O589 Nd560 2.414 . S
O589 Nd561 2.682 . S
O589 C578 1.273 . S
O590 Nd561 2.410 . S
O590 C579 1.251 . S
O591 Nd560 2.424 . S
O591 C579 1.268 . S
H592 C564 0.930 . S
H593 C565 0.929 . S
H594 C567 0.930 . S
H595 C568 0.929 . S
H596 C573 0.930 . S
H597 C574 0.929 . S
H598 C576 0.930 . S
H599 C577 0.929 . S
Nd600 C602 2.836 . S
Nd600 O620 2.500 . S
Nd600 O621 2.492 . S
Nd600 O622 2.487 1_655 S
Nd600 O623 2.682 1_655 S
Nd600 O624 2.410 . S
Nd600 O629 2.414 1_554 S
Nd600 O631 2.424 1_655 S
Nd601 C611 2.836 . S
Nd601 O623 2.414 1_556 S
Nd601 O625 2.424 1_455 S
Nd601 O626 2.500 . S
Nd601 O627 2.492 . S
Nd601 O628 2.487 1_455 S
Nd601 O629 2.682 1_455 S
Nd601 O630 2.410 . S
C602 Nd600 2.836 . S
C602 C603 1.498 . S
C602 O620 1.258 . S
C602 O621 1.239 . S
C603 C602 1.498 . S
C603 C604 1.366 . S
C603 C608 1.407 . S
C604 C603 1.366 . S
C604 C605 1.392 . S
C604 H632 0.930 . S
C605 C604 1.392 . S
C605 C606 1.398 . S
C605 H633 0.929 . S
C606 C605 1.398 . S
C606 C607 1.352 . S
C607 C606 1.352 . S
C607 C608 1.384 . S
C607 H634 0.930 . S
C608 C603 1.407 . S
C608 C607 1.384 . S
C608 H635 0.929 . S
C609 O622 1.241 . S
C609 O623 1.273 . S
C610 O624 1.251 1_556 S
C610 O625 1.268 . S
C611 Nd601 2.836 . S
C611 C612 1.498 . S
C611 O626 1.258 . S
C611 O627 1.239 . S
C612 C611 1.498 . S
C612 C613 1.366 . S
C612 C617 1.407 . S
C613 C612 1.366 . S
C613 C614 1.392 . S
C613 H636 0.930 . S
C614 C613 1.392 . S
C614 C615 1.398 . S
C614 H637 0.929 . S
C615 C614 1.398 . S
C615 C616 1.352 . S
C616 C615 1.352 . S
C616 C617 1.384 . S
C616 H638 0.930 . S
C617 C612 1.407 . S
C617 C616 1.384 . S
C617 H639 0.929 . S
C618 O628 1.241 . S
C618 O629 1.273 . S
C619 O630 1.251 1_554 S
C619 O631 1.268 . S
O620 Nd600 2.500 . S
O620 C602 1.258 . S
O621 Nd600 2.492 . S
O621 C602 1.239 . S
O622 Nd600 2.487 1_455 S
O622 C609 1.241 . S
O623 Nd600 2.682 1_455 S
O623 Nd601 2.414 1_554 S
O623 C609 1.273 . S
O624 Nd600 2.410 . S
O624 C610 1.251 1_554 S
O625 Nd601 2.424 1_655 S
O625 C610 1.268 . S
O626 Nd601 2.500 . S
O626 C611 1.258 . S
O627 Nd601 2.492 . S
O627 C611 1.239 . S
O628 Nd601 2.487 1_655 S
O628 C618 1.241 . S
O629 Nd600 2.414 1_556 S
O629 Nd601 2.682 1_655 S
O629 C618 1.273 . S
O630 Nd601 2.410 . S
O630 C619 1.251 1_556 S
O631 Nd600 2.424 1_455 S
O631 C619 1.268 . S
H632 C604 0.930 . S
H633 C605 0.929 . S
H634 C607 0.930 . S
H635 C608 0.929 . S
H636 C613 0.930 . S
H637 C614 0.929 . S
H638 C616 0.930 . S
H639 C617 0.929 . S
C640 C641 1.363 . S
C640 C646 1.379 . S
C640 N648 1.356 . S
C641 C640 1.363 . S
C641 C647 1.363 . S
C642 C643 1.363 . S
C642 C647 1.379 . S
C642 N649 1.356 . S
C643 C642 1.363 . S
C643 C646 1.363 . S
N644 C646 1.356 . S
N644 H656 0.984 1_545 S
N644 H657 0.985 . S
N645 C647 1.356 . S
N645 H650 0.984 . S
N645 H651 0.985 . S
C646 C640 1.379 . S
C646 C643 1.363 . S
C646 N644 1.356 . S
C647 C641 1.363 . S
C647 C642 1.379 . S
C647 N645 1.356 . S
N648 C640 1.356 . S
N648 H654 0.984 . S
N648 H655 0.984 . S
N649 C642 1.356 . S
N649 H652 0.984 . S
N649 H653 0.985 . S
H650 N645 0.984 . S
H651 N645 0.985 . S
H652 N649 0.984 . S
H653 N649 0.985 . S
H654 N648 0.984 . S
H655 N648 0.984 . S
H656 N644 0.984 1_565 S
H657 N644 0.985 . S
C658 C659 1.363 . S
C658 C664 1.379 . S
C658 N666 1.356 . S
C659 C658 1.363 . S
C659 C665 1.363 . S
C660 C661 1.363 . S
C660 C665 1.379 . S
C660 N667 1.356 . S
C661 C660 1.363 . S
C661 C664 1.363 . S
N662 C664 1.356 . S
N662 H674 0.984 . S
N662 H675 0.985 . S
N663 C665 1.356 . S
N663 H668 0.984 . S
N663 H669 0.985 . S
C664 C658 1.379 . S
C664 C661 1.363 . S
C664 N662 1.356 . S
C665 C659 1.363 . S
C665 C660 1.379 . S
C665 N663 1.356 . S
N666 C658 1.356 . S
N666 H672 0.984 . S
N666 H673 0.984 . S
N667 C660 1.356 . S
N667 H670 0.984 . S
N667 H671 0.985 . S
H668 N663 0.984 . S
H669 N663 0.985 . S
H670 N667 0.984 . S
H671 N667 0.985 . S
H672 N666 0.984 . S
H673 N666 0.984 . S
H674 N662 0.984 . S
H675 N662 0.985 . S
C676 C677 1.363 . S
C676 C682 1.379 . S
C676 N684 1.356 . S
C677 C676 1.363 . S
C677 C683 1.363 . S
C678 C679 1.363 . S
C678 C683 1.379 . S
C678 N685 1.356 . S
C679 C678 1.363 . S
C679 C682 1.363 . S
N680 C682 1.356 . S
N680 H692 0.984 . S
N680 H693 0.985 . S
N681 C683 1.356 . S
N681 H686 0.984 . S
N681 H687 0.985 . S
C682 C676 1.379 . S
C682 C679 1.363 . S
C682 N680 1.356 . S
C683 C677 1.363 . S
C683 C678 1.379 . S
C683 N681 1.356 . S
N684 C676 1.356 . S
N684 H690 0.984 . S
N684 H691 0.984 . S
N685 C678 1.356 . S
N685 H688 0.984 . S
N685 H689 0.985 . S
H686 N681 0.984 . S
H687 N681 0.985 . S
H688 N685 0.984 . S
H689 N685 0.985 . S
H690 N684 0.984 . S
H691 N684 0.984 . S
H692 N680 0.984 . S
H693 N680 0.985 . S
C694 C695 1.363 . S
C694 C700 1.379 . S
C694 N702 1.356 . S
C695 C694 1.363 . S
C695 C701 1.363 . S
C696 C697 1.363 . S
C696 C701 1.379 . S
C696 N703 1.356 . S
C697 C696 1.363 . S
C697 C700 1.363 . S
N698 C700 1.356 . S
N698 H710 0.984 . S
N698 H711 0.985 . S
N699 C701 1.356 . S
N699 H704 0.984 . S
N699 H705 0.985 . S
C700 C694 1.379 . S
C700 C697 1.363 . S
C700 N698 1.356 . S
C701 C695 1.363 . S
C701 C696 1.379 . S
C701 N699 1.356 . S
N702 C694 1.356 . S
N702 H708 0.984 . S
N702 H709 0.984 . S
N703 C696 1.356 . S
N703 H706 0.984 . S
N703 H707 0.985 . S
H704 N699 0.984 . S
H705 N699 0.985 . S
H706 N703 0.984 . S
H707 N703 0.985 . S
H708 N702 0.984 . S
H709 N702 0.984 . S
H710 N698 0.984 . S
H711 N698 0.985 . S
C712 C713 1.363 . S
C712 C718 1.379 . S
C712 N720 1.355 1_554 S
C713 C712 1.363 . S
C713 C719 1.363 . S
C714 C715 1.363 . S
C714 C719 1.379 . S
C714 N721 1.356 . S
C715 C714 1.363 . S
C715 C718 1.363 . S
N716 C718 1.356 1_556 S
N716 H728 0.984 . S
N716 H729 0.985 . S
N717 C719 1.356 . S
N717 H722 0.984 . S
N717 H723 0.985 . S
C718 C712 1.379 . S
C718 C715 1.363 . S
C718 N716 1.356 1_554 S
C719 C713 1.363 . S
C719 C714 1.379 . S
C719 N717 1.356 . S
N720 C712 1.355 1_556 S
N720 H726 0.987 . S
N720 H727 0.983 1_556 S
N721 C714 1.356 . S
N721 H724 0.984 . S
N721 H725 0.985 . S
H722 N717 0.984 . S
H723 N717 0.985 . S
H724 N721 0.984 . S
H725 N721 0.985 . S
H726 N720 0.987 . S
H727 N720 0.983 1_554 S
H728 N716 0.984 . S
H729 N716 0.985 . S
C730 C731 1.363 . S
C730 C736 1.379 . S
C730 N738 1.356 . S
C731 C730 1.363 . S
C731 C737 1.363 . S
C732 C733 1.363 . S
C732 C737 1.379 . S
C732 N739 1.356 . S
C733 C732 1.363 . S
C733 C736 1.363 . S
N734 C736 1.356 . S
N734 H746 0.984 . S
N734 H747 0.985 . S
N735 C737 1.356 . S
N735 H740 0.984 . S
N735 H741 0.985 . S
C736 C730 1.379 . S
C736 C733 1.363 . S
C736 N734 1.356 . S
C737 C731 1.363 . S
C737 C732 1.379 . S
C737 N735 1.356 . S
N738 C730 1.356 . S
N738 H744 0.984 . S
N738 H745 0.984 . S
N739 C732 1.356 . S
N739 H742 0.984 . S
N739 H743 0.985 . S
H740 N735 0.984 . S
H741 N735 0.985 . S
H742 N739 0.984 . S
H743 N739 0.985 . S
H744 N738 0.984 . S
H745 N738 0.984 . S
H746 N734 0.984 . S
H747 N734 0.985 . S
C748 C749 1.363 . S
C748 C754 1.379 . S
C748 N756 1.356 . S
C749 C748 1.363 . S
C749 C755 1.363 . S
C750 C751 1.363 . S
C750 C755 1.379 . S
C750 N757 1.356 . S
C751 C750 1.363 . S
C751 C754 1.363 . S
N752 C754 1.356 . S
N752 H764 0.984 . S
N752 H765 0.985 . S
N753 C755 1.356 . S
N753 H758 0.984 . S
N753 H759 0.985 . S
C754 C748 1.379 . S
C754 C751 1.363 . S
C754 N752 1.356 . S
C755 C749 1.363 . S
C755 C750 1.379 . S
C755 N753 1.356 . S
N756 C748 1.356 . S
N756 H762 0.984 . S
N756 H763 0.984 . S
N757 C750 1.356 . S
N757 H760 0.984 . S
N757 H761 0.985 . S
H758 N753 0.984 . S
H759 N753 0.985 . S
H760 N757 0.984 . S
H761 N757 0.985 . S
H762 N756 0.984 . S
H763 N756 0.984 . S
H764 N752 0.984 . S
H765 N752 0.985 . S
C766 C767 1.363 . S
C766 C772 1.379 . S
C766 N774 1.356 . S
C767 C766 1.363 . S
C767 C773 1.363 . S
C768 C769 1.363 . S
C768 C773 1.379 . S
C768 N775 1.356 . S
C769 C768 1.363 . S
C769 C772 1.363 . S
N770 C772 1.356 . S
N770 H782 0.984 . S
N770 H783 0.985 . S
N771 C773 1.356 . S
N771 H776 0.984 . S
N771 H777 0.985 . S
C772 C766 1.379 . S
C772 C769 1.363 . S
C772 N770 1.356 . S
C773 C767 1.363 . S
C773 C768 1.379 . S
C773 N771 1.356 . S
N774 C766 1.356 . S
N774 H780 0.984 . S
N774 H781 0.984 . S
N775 C768 1.356 . S
N775 H778 0.984 . S
N775 H779 0.985 . S
H776 N771 0.984 . S
H777 N771 0.985 . S
H778 N775 0.984 . S
H779 N775 0.985 . S
H780 N774 0.984 . S
H781 N774 0.984 . S
H782 N770 0.984 . S
H783 N770 0.985 . S
C784 C785 1.363 . S
C784 C790 1.379 . S
C784 N792 1.356 . S
C785 C784 1.363 . S
C785 C791 1.363 . S
C786 C787 1.386 . S
C786 C791 1.385 . S
C786 N793 1.332 1_554 S
C787 C786 1.386 . S
C787 C790 1.363 . S
N788 C790 1.356 . S
N788 H800 0.984 . S
N788 H801 0.985 . S
N789 C791 1.356 1_556 S
N789 H794 0.984 1_556 S
N789 H795 0.985 . S
C790 C784 1.379 . S
C790 C787 1.363 . S
C790 N788 1.356 . S
C791 C785 1.363 . S
C791 C786 1.385 . S
C791 N789 1.356 1_554 S
N792 C784 1.356 . S
N792 H798 0.984 . S
N792 H799 0.984 . S
N793 C786 1.332 1_556 S
N793 H796 0.984 . S
N793 H797 0.985 . S
H794 N789 0.984 1_554 S
H795 N789 0.985 . S
H796 N793 0.984 . S
H797 N793 0.985 . S
H798 N792 0.984 . S
H799 N792 0.984 . S
H800 N788 0.984 . S
H801 N788 0.985 . S
C802 C803 1.363 . S
C802 C808 1.379 . S
C802 N810 1.356 . S
C803 C802 1.363 . S
C803 C809 1.363 . S
C804 C805 1.363 . S
C804 C809 1.379 . S
C804 N811 1.356 . S
C805 C804 1.363 . S
C805 C808 1.363 . S
N806 C808 1.356 . S
N806 H818 0.984 . S
N806 H819 0.985 . S
N807 C809 1.356 . S
N807 H812 0.984 . S
N807 H813 0.985 . S
C808 C802 1.379 . S
C808 C805 1.363 . S
C808 N806 1.356 . S
C809 C803 1.363 . S
C809 C804 1.379 . S
C809 N807 1.356 . S
N810 C802 1.356 . S
N810 H816 0.984 . S
N810 H817 0.984 . S
N811 C804 1.356 . S
N811 H814 0.984 . S
N811 H815 0.985 . S
H812 N807 0.984 . S
H813 N807 0.985 . S
H814 N811 0.984 . S
H815 N811 0.985 . S
H816 N810 0.984 . S
H817 N810 0.984 . S
H818 N806 0.984 . S
H819 N806 0.985 . S
C820 C821 1.363 . S
C820 C826 1.379 . S
C820 N828 1.356 . S
C821 C820 1.363 . S
C821 C827 1.363 . S
C822 C823 1.363 . S
C822 C827 1.379 . S
C822 N829 1.356 . S
C823 C822 1.363 . S
C823 C826 1.363 . S
N824 C826 1.356 . S
N824 H836 0.984 . S
N824 H837 0.985 . S
N825 C827 1.356 . S
N825 H830 0.984 . S
N825 H831 0.985 . S
C826 C820 1.379 . S
C826 C823 1.363 . S
C826 N824 1.356 . S
C827 C821 1.363 . S
C827 C822 1.379 . S
C827 N825 1.356 . S
N828 C820 1.356 . S
N828 H834 0.984 . S
N828 H835 0.984 . S
N829 C822 1.356 . S
N829 H832 0.984 1_655 S
N829 H833 0.985 1_655 S
H830 N825 0.984 . S
H831 N825 0.985 . S
H832 N829 0.984 1_455 S
H833 N829 0.985 1_455 S
H834 N828 0.984 . S
H835 N828 0.984 . S
H836 N824 0.984 . S
H837 N824 0.985 . S
C838 C839 1.363 . S
C838 C844 1.379 . S
C838 N846 1.356 . S
C839 C838 1.363 . S
C839 C845 1.363 . S
C840 C841 1.363 . S
C840 C845 1.379 . S
C840 N847 1.356 . S
C841 C840 1.363 . S
C841 C844 1.363 . S
N842 C844 1.356 . S
N842 H854 0.984 . S
N842 H855 0.985 . S
N843 C845 1.356 . S
N843 H848 0.984 . S
N843 H849 0.985 . S
C844 C838 1.379 . S
C844 C841 1.363 . S
C844 N842 1.356 . S
C845 C839 1.363 . S
C845 C840 1.379 . S
C845 N843 1.356 . S
N846 C838 1.356 . S
N846 H852 0.984 . S
N846 H853 0.984 . S
N847 C840 1.356 . S
N847 H850 0.984 . S
N847 H851 0.985 . S
H848 N843 0.984 . S
H849 N843 0.985 . S
H850 N847 0.984 . S
H851 N847 0.985 . S
H852 N846 0.984 . S
H853 N846 0.984 . S
H854 N842 0.984 . S
H855 N842 0.985 . S
C856 C857 1.363 . S
C856 C862 1.379 . S
C856 N864 1.356 . S
C857 C856 1.363 . S
C857 C863 1.363 . S
C858 C859 1.363 . S
C858 C863 1.379 . S
C858 N865 1.356 . S
C859 C858 1.363 . S
C859 C862 1.363 . S
N860 C862 1.356 . S
N860 H872 1.000 . S
N860 H873 0.985 . S
N861 C863 1.356 . S
N861 H866 0.984 . S
N861 H867 0.985 . S
C862 C856 1.379 . S
C862 C859 1.363 . S
C862 N860 1.356 . S
C863 C857 1.363 . S
C863 C858 1.379 . S
C863 N861 1.356 . S
N864 C856 1.356 . S
N864 H870 0.984 . S
N864 H871 0.984 . S
N865 C858 1.356 . S
N865 H868 0.984 . S
N865 H869 0.985 1_565 S
H866 N861 0.984 . S
H867 N861 0.985 . S
H868 N865 0.984 . S
H869 N865 0.985 1_545 S
H870 N864 0.984 . S
H871 N864 0.984 . S
H872 N860 1.000 . S
H873 N860 0.985 . S
C874 C875 1.363 . S
C874 C880 1.379 . S
C874 N882 1.356 . S
C875 C874 1.363 . S
C875 C881 1.363 . S
C876 C877 1.363 . S
C876 C881 1.379 . S
C876 N883 1.356 . S
C877 C876 1.363 . S
C877 C880 1.363 . S
N878 C880 1.356 . S
N878 H890 0.984 1_554 S
N878 H891 0.985 . S
N879 C881 1.356 . S
N879 H884 0.984 . S
N879 H885 0.985 . S
C880 C874 1.379 . S
C880 C877 1.363 . S
C880 N878 1.356 . S
C881 C875 1.363 . S
C881 C876 1.379 . S
C881 N879 1.356 . S
N882 C874 1.356 . S
N882 H888 0.984 1_554 S
N882 H889 0.984 . S
N883 C876 1.356 . S
N883 H886 0.984 . S
N883 H887 0.985 . S
H884 N879 0.984 . S
H885 N879 0.985 . S
H886 N883 0.984 . S
H887 N883 0.985 . S
H888 N882 0.984 1_556 S
H889 N882 0.984 . S
H890 N878 0.984 1_556 S
H891 N878 0.985 . S
C892 C893 1.363 . S
C892 C898 1.379 . S
C892 N900 1.356 . S
C893 C892 1.363 . S
C893 C899 1.363 . S
C894 C895 1.363 . S
C894 C899 1.379 . S
C894 N901 1.356 . S
C895 C894 1.363 . S
C895 C898 1.363 . S
N896 C898 1.356 . S
N896 H908 0.984 . S
N896 H909 0.985 . S
N897 C899 1.356 . S
N897 H902 0.984 . S
N897 H903 0.985 . S
C898 C892 1.379 . S
C898 C895 1.363 . S
C898 N896 1.356 . S
C899 C893 1.363 . S
C899 C894 1.379 . S
C899 N897 1.356 . S
N900 C892 1.356 . S
N900 H906 0.984 . S
N900 H907 0.984 . S
N901 C894 1.356 . S
N901 H904 0.984 . S
N901 H905 0.985 . S
H902 N897 0.984 . S
H903 N897 0.985 . S
H904 N901 0.984 . S
H905 N901 0.985 . S
H906 N900 0.984 . S
H907 N900 0.984 . S
H908 N896 0.984 . S
H909 N896 0.985 . S
C910 C911 1.363 . S
C910 C916 1.379 . S
C910 N918 1.356 . S
C911 C910 1.363 . S
C911 C917 1.363 . S
C912 C913 1.363 . S
C912 C917 1.379 . S
C912 N919 1.356 . S
C913 C912 1.363 . S
C913 C916 1.363 . S
N914 C916 1.356 . S
N914 H926 0.984 . S
N914 H927 0.985 . S
N915 C917 1.356 . S
N915 H920 0.984 . S
N915 H921 0.985 . S
C916 C910 1.379 . S
C916 C913 1.363 . S
C916 N914 1.356 . S
C917 C911 1.363 . S
C917 C912 1.379 . S
C917 N915 1.356 . S
N918 C910 1.356 . S
N918 H924 0.984 . S
N918 H925 0.984 . S
N919 C912 1.356 . S
N919 H922 0.984 . S
N919 H923 0.985 . S
H920 N915 0.984 . S
H921 N915 0.985 . S
H922 N919 0.984 . S
H923 N919 0.985 . S
H924 N918 0.984 . S
H925 N918 0.984 . S
H926 N914 0.984 . S
H927 N914 0.985 . S
C928 C929 1.363 . S
C928 C934 1.379 . S
C928 N936 1.356 . S
C929 C928 1.363 . S
C929 C935 1.363 . S
C930 C931 1.363 . S
C930 C935 1.379 . S
C930 N937 1.356 . S
C931 C930 1.363 . S
C931 C934 1.363 . S
N932 C934 1.356 . S
N932 H944 0.984 . S
N932 H945 0.985 . S
N933 C935 1.356 . S
N933 H938 0.984 . S
N933 H939 0.985 . S
C934 C928 1.379 . S
C934 C931 1.363 . S
C934 N932 1.356 . S
C935 C929 1.363 . S
C935 C930 1.379 . S
C935 N933 1.356 . S
N936 C928 1.356 . S
N936 H942 0.984 . S
N936 H943 0.984 . S
N937 C930 1.356 . S
N937 H940 0.984 . S
N937 H941 0.985 1_565 S
H938 N933 0.984 . S
H939 N933 0.985 . S
H940 N937 0.984 . S
H941 N937 0.985 1_545 S
H942 N936 0.984 . S
H943 N936 0.984 . S
H944 N932 0.984 . S
H945 N932 0.985 . S
C946 C947 1.363 . S
C946 C952 1.379 . S
C946 N954 1.356 . S
C947 C946 1.363 . S
C947 C953 1.363 . S
C948 C949 1.363 . S
C948 C953 1.379 . S
C948 N955 1.356 . S
C949 C948 1.363 . S
C949 C952 1.363 . S
N950 C952 1.356 . S
N950 H962 0.984 . S
N950 H963 0.985 . S
N951 C953 1.356 . S
N951 H956 0.984 . S
N951 H957 0.985 . S
C952 C946 1.379 . S
C952 C949 1.363 . S
C952 N950 1.356 . S
C953 C947 1.363 . S
C953 C948 1.379 . S
C953 N951 1.356 . S
N954 C946 1.356 . S
N954 H960 0.984 . S
N954 H961 0.984 . S
N955 C948 1.356 . S
N955 H958 0.984 . S
N955 H959 0.985 . S
H956 N951 0.984 . S
H957 N951 0.985 . S
H958 N955 0.984 . S
H959 N955 0.985 . S
H960 N954 0.984 . S
H961 N954 0.984 . S
H962 N950 0.984 . S
H963 N950 0.985 . S
C964 C965 1.363 . S
C964 C970 1.379 . S
C964 N972 1.356 . S
C965 C964 1.363 . S
C965 C971 1.363 . S
C966 C967 1.363 . S
C966 C971 1.379 . S
C966 N973 1.356 . S
C967 C966 1.363 . S
C967 C970 1.363 . S
N968 C970 1.356 . S
N968 H980 0.984 1_554 S
N968 H981 0.985 . S
N969 C971 1.356 . S
N969 H974 0.984 . S
N969 H975 0.985 . S
C970 C964 1.379 . S
C970 C967 1.363 . S
C970 N968 1.356 . S
C971 C965 1.363 . S
C971 C966 1.379 . S
C971 N969 1.356 . S
N972 C964 1.356 . S
N972 H978 0.984 . S
N972 H979 0.984 . S
N973 C966 1.356 . S
N973 H976 0.984 . S
N973 H977 0.985 . S
H974 N969 0.984 . S
H975 N969 0.985 . S
H976 N973 0.984 . S
H977 N973 0.985 . S
H978 N972 0.984 . S
H979 N972 0.984 . S
H980 N968 0.984 1_556 S
H981 N968 0.985 . S
C982 C983 1.363 . S
C982 C988 1.379 . S
C982 N990 1.356 . S
C983 C982 1.363 . S
C983 C989 1.363 . S
C984 C985 1.363 . S
C984 C989 1.379 . S
C984 N991 1.356 . S
C985 C984 1.363 . S
C985 C988 1.363 . S
N986 C988 1.356 . S
N986 H998 0.984 . S
N986 H999 0.985 . S
N987 C989 1.356 . S
N987 H992 0.984 . S
N987 H993 0.985 . S
C988 C982 1.379 . S
C988 C985 1.363 . S
C988 N986 1.356 . S
C989 C983 1.363 . S
C989 C984 1.379 . S
C989 N987 1.356 . S
N990 C982 1.356 . S
N990 H996 0.984 . S
N990 H997 0.984 . S
N991 C984 1.356 . S
N991 H994 0.984 . S
N991 H995 0.985 . S
H992 N987 0.984 . S
H993 N987 0.985 . S
H994 N991 0.984 . S
H995 N991 0.985 . S
H996 N990 0.984 . S
H997 N990 0.984 . S
H998 N986 0.984 . S
H999 N986 0.985 . S
C1000 C1001 1.363 . S
C1000 C1006 1.379 . S
C1000 N1008 1.356 . S
C1001 C1000 1.363 . S
C1001 C1007 1.363 . S
C1002 C1003 1.363 . S
C1002 C1007 1.379 . S
C1002 N1009 1.356 1_556 S
C1003 C1002 1.363 . S
C1003 C1006 1.363 . S
N1004 C1006 1.356 . S
N1004 H1016 0.984 . S
N1004 H1017 0.985 . S
N1005 C1007 1.356 1_554 S
N1005 H1010 0.984 1_554 S
N1005 H1011 0.985 . S
C1006 C1000 1.379 . S
C1006 C1003 1.363 . S
C1006 N1004 1.356 . S
C1007 C1001 1.363 . S
C1007 C1002 1.379 . S
C1007 N1005 1.356 1_556 S
N1008 C1000 1.356 . S
N1008 H1014 0.984 . S
N1008 H1015 0.984 . S
N1009 C1002 1.356 1_554 S
N1009 H1012 0.984 . S
N1009 H1013 0.985 . S
H1010 N1005 0.984 1_556 S
H1011 N1005 0.985 . S
H1012 N1009 0.984 . S
H1013 N1009 0.985 . S
H1014 N1008 0.984 . S
H1015 N1008 0.984 . S
H1016 N1004 0.984 . S
H1017 N1004 0.985 . S
C1018 C1019 1.363 . S
C1018 C1024 1.379 . S
C1018 N1026 1.356 . S
C1019 C1018 1.363 . S
C1019 C1025 1.363 . S
C1020 C1021 1.363 . S
C1020 C1025 1.379 . S
C1020 N1027 1.356 . S
C1021 C1020 1.363 . S
C1021 C1024 1.363 . S
N1022 C1024 1.356 . S
N1022 H1034 0.984 . S
N1022 H1035 0.985 . S
N1023 C1025 1.356 . S
N1023 H1028 0.984 . S
N1023 H1029 0.985 . S
C1024 C1018 1.379 . S
C1024 C1021 1.363 . S
C1024 N1022 1.356 . S
C1025 C1019 1.363 . S
C1025 C1020 1.379 . S
C1025 N1023 1.356 . S
N1026 C1018 1.356 . S
N1026 H1032 0.984 . S
N1026 H1033 0.984 . S
N1027 C1020 1.356 . S
N1027 H1030 0.984 . S
N1027 H1031 0.985 . S
H1028 N1023 0.984 . S
H1029 N1023 0.985 . S
H1030 N1027 0.984 . S
H1031 N1027 0.985 . S
H1032 N1026 0.984 . S
H1033 N1026 0.984 . S
H1034 N1022 0.984 . S
H1035 N1022 0.985 . S
C1036 C1037 1.363 . S
C1036 C1042 1.379 . S
C1036 N1044 1.356 . S
C1037 C1036 1.363 . S
C1037 C1043 1.363 . S
C1038 C1039 1.363 . S
C1038 C1043 1.379 . S
C1038 N1045 1.356 . S
C1039 C1038 1.363 . S
C1039 C1042 1.363 . S
N1040 C1042 1.356 . S
N1040 H1052 0.974 1_545 S
N1040 H1053 0.985 . S
N1041 C1043 1.356 . S
N1041 H1046 0.984 . S
N1041 H1047 0.985 . S
C1042 C1036 1.379 . S
C1042 C1039 1.363 . S
C1042 N1040 1.356 . S
C1043 C1037 1.363 . S
C1043 C1038 1.379 . S
C1043 N1041 1.356 . S
N1044 C1036 1.356 . S
N1044 H1050 0.984 . S
N1044 H1051 0.984 . S
N1045 C1038 1.356 . S
N1045 H1048 0.984 1_455 S
N1045 H1049 0.985 . S
H1046 N1041 0.984 . S
H1047 N1041 0.985 . S
H1048 N1045 0.984 1_655 S
H1049 N1045 0.985 . S
H1050 N1044 0.984 . S
H1051 N1044 0.984 . S
H1052 N1040 0.974 1_565 S
H1053 N1040 0.985 . S
C1054 C1055 1.363 . S
C1054 C1060 1.379 . S
C1054 N1062 1.356 . S
C1055 C1054 1.363 . S
C1055 C1061 1.363 . S
C1056 C1057 1.363 . S
C1056 C1061 1.379 . S
C1056 N1063 1.356 . S
C1057 C1056 1.363 . S
C1057 C1060 1.363 . S
N1058 C1060 1.356 . S
N1058 H1070 0.984 . S
N1058 H1071 0.985 . S
N1059 C1061 1.356 . S
N1059 H1064 0.984 . S
N1059 H1065 0.985 . S
C1060 C1054 1.379 . S
C1060 C1057 1.363 . S
C1060 N1058 1.356 . S
C1061 C1055 1.363 . S
C1061 C1056 1.379 . S
C1061 N1059 1.356 . S
N1062 C1054 1.356 . S
N1062 H1068 0.984 . S
N1062 H1069 0.984 . S
N1063 C1056 1.356 . S
N1063 H1066 0.984 . S
N1063 H1067 0.985 . S
H1064 N1059 0.984 . S
H1065 N1059 0.985 . S
H1066 N1063 0.984 . S
H1067 N1063 0.985 . S
H1068 N1062 0.984 . S
H1069 N1062 0.984 . S
H1070 N1058 0.984 . S
H1071 N1058 0.985 . S
C641 C1 2.824 . S
C643 C499 2.838 . S
C659 C80 2.579 . S
C661 C530 2.632 . S
C679 C569 1.510 . S
C677 C140 1.497 . S
C695 C211 0.707 . S
C697 C606 0.713 . S
C715 C529 2.782 . S
C713 C31 2.837 . S
C733 C486 1.458 . S
C731 C61 1.399 . S
C751 C618 1.547 . S
C749 C151 1.505 . S
C769 C575 1.322 . S
C767 C200 1.269 . S
C785 C20 2.314 . S
C787 C619 2.318 . S
C805 C535 1.330 . S
C803 C121 1.282 . S
C821 C181 0.606 . S
C823 C498 0.679 . S
C839 C91 2.488 . S
C841 C570 2.543 . S
C859 C490 2.838 . S
C857 C260 2.857 . S
C875 C320 2.579 . S
C877 C539 2.632 . S
C893 C361 1.549 . S
C895 C578 1.510 . S
C911 C451 0.707 . S
C913 C615 0.712 . S
C929 C271 2.861 . S
C931 C538 2.782 . S
C949 C495 1.457 . S
C947 C301 1.398 . S
C967 C609 1.547 . S
C965 C380 1.543 . S
C985 C566 1.322 . S
C983 C440 1.269 . S
C1001 C241 2.259 . S
C1003 C610 2.318 . S
C1021 C526 1.329 . S
C1019 C391 1.288 . S
C1039 C489 0.679 . S
C1037 C421 0.606 . S
C1055 C331 2.488 . S
C1057 C579 2.543 . S
