# Generated by pormake.
# Topology nom, (4,4)-cn, num edge types: 1
# Building blocks:
#     Node 0, Type 0, BuildingBlock: GIZVER_clean_linker_0, # of connection points: 4
#     Node 1, Type 0, BuildingBlock: GIZVER_clean_linker_0, # of connection points: 4
#     Node 2, Type 0, BuildingBlock: GIZVER_clean_linker_0, # of connection points: 4
#     Node 3, Type 0, BuildingBlock: GIZVER_clean_linker_0, # of connection points: 4
#     Node 4, Type 0, BuildingBlock: GIZVER_clean_linker_0, # of connection points: 4
#     Node 5, Type 0, BuildingBlock: GIZVER_clean_linker_0, # of connection points: 4
#     Node 6, Type 1, BuildingBlock: KUFVIS_clean_sbu_0, # of connection points: 4
#     Node 7, Type 1, BuildingBlock: KUFVIS_clean_sbu_0, # of connection points: 4
#     Node 8, Type 1, BuildingBlock: KUFVIS_clean_sbu_0, # of connection points: 4
#     Node 9, Type 1, BuildingBlock: KUFVIS_clean_sbu_0, # of connection points: 4
#     Node 10, Type 1, BuildingBlock: KUFVIS_clean_sbu_0, # of connection points: 4
#     Node 11, Type 1, BuildingBlock: KUFVIS_clean_sbu_0, # of connection points: 4
#     Edge 12, Type (0, 1), BuildingBlock: XUDNAN_clean_linker_2, # of connection points: 2
#     Edge 13, Type (0, 1), BuildingBlock: XUDNAN_clean_linker_2, # of connection points: 2
#     Edge 14, Type (0, 1), BuildingBlock: XUDNAN_clean_linker_2, # of connection points: 2
#     Edge 15, Type (0, 1), BuildingBlock: XUDNAN_clean_linker_2, # of connection points: 2
#     Edge 16, Type (0, 1), BuildingBlock: XUDNAN_clean_linker_2, # of connection points: 2
#     Edge 17, Type (0, 1), BuildingBlock: XUDNAN_clean_linker_2, # of connection points: 2
#     Edge 18, Type (0, 1), BuildingBlock: XUDNAN_clean_linker_2, # of connection points: 2
#     Edge 19, Type (0, 1), BuildingBlock: XUDNAN_clean_linker_2, # of connection points: 2
#     Edge 20, Type (0, 1), BuildingBlock: XUDNAN_clean_linker_2, # of connection points: 2
#     Edge 21, Type (0, 1), BuildingBlock: XUDNAN_clean_linker_2, # of connection points: 2
#     Edge 22, Type (0, 1), BuildingBlock: XUDNAN_clean_linker_2, # of connection points: 2
#     Edge 23, Type (0, 1), BuildingBlock: XUDNAN_clean_linker_2, # of connection points: 2
#     Edge 24, Type (0, 1), BuildingBlock: XUDNAN_clean_linker_2, # of connection points: 2
#     Edge 25, Type (0, 1), BuildingBlock: XUDNAN_clean_linker_2, # of connection points: 2
#     Edge 26, Type (0, 1), BuildingBlock: XUDNAN_clean_linker_2, # of connection points: 2
#     Edge 27, Type (0, 1), BuildingBlock: XUDNAN_clean_linker_2, # of connection points: 2
#     Edge 28, Type (0, 1), BuildingBlock: XUDNAN_clean_linker_2, # of connection points: 2
#     Edge 29, Type (0, 1), BuildingBlock: XUDNAN_clean_linker_2, # of connection points: 2
#     Edge 30, Type (0, 1), BuildingBlock: XUDNAN_clean_linker_2, # of connection points: 2
#     Edge 31, Type (0, 1), BuildingBlock: XUDNAN_clean_linker_2, # of connection points: 2
#     Edge 32, Type (0, 1), BuildingBlock: XUDNAN_clean_linker_2, # of connection points: 2
#     Edge 33, Type (0, 1), BuildingBlock: XUDNAN_clean_linker_2, # of connection points: 2
#     Edge 34, Type (0, 1), BuildingBlock: XUDNAN_clean_linker_2, # of connection points: 2
#     Edge 35, Type (0, 1), BuildingBlock: XUDNAN_clean_linker_2, # of connection points: 2
# Relax obj value: 0.005
# Max RMSD: 0.073
# Mean RMSD: 0.051
data_MOF--net-nom--node1-KUFVIS_clean_sbu_0--node2-GIZVER_clean_linker_0--edge1-XUDNAN_clean_linker_2
_symmetry_space_group_name_H-M    P1
_symmetry_Int_Tables_number       1
_symmetry_cell_setting            triclinic
loop_
_symmetry_equiv_pos_as_xyz
'x, y, z'
_cell_length_a     45.730384
_cell_length_b     46.217444
_cell_length_c     46.573934
_cell_angle_alpha  90.758401
_cell_angle_beta   90.811036
_cell_angle_gamma 119.97579
loop_
_atom_site_label
_atom_site_type_symbol
_atom_site_fract_x
_atom_site_fract_y
_atom_site_fract_z
_atom_type_partial_charge
H0 H 0.99921 0.58402 0.34076 0.0
H1 H 0.02012 0.57918 0.25173 0.0
H2 H 0.91879 0.52179 0.28141 0.0
H3 H 0.046 0.63197 0.31899 0.0
H4 H 0.05197 0.63251 0.28145 0.0
H5 H 0.08087 0.62226 0.35094 0.0
H6 H 0.15676 0.604 0.31702 0.0
H7 H 0.08459 0.60817 0.25998 0.0
C8 C 0.99048 0.5732 0.31943 0.0
C9 C 0.95617 0.5492 0.3143 0.0
C10 C 1.01342 0.58495 0.2967 0.0
C11 C 1.00233 0.5705 0.26901 0.0
C12 C 0.96821 0.54639 0.26343 0.0
C13 C 0.94553 0.53719 0.28609 0.0
C14 C 0.04721 0.61689 0.3007 0.0
C15 C 0.07705 0.61153 0.30532 0.0
C16 C 0.09184 0.61613 0.33308 0.0
C17 C 0.12205 0.61548 0.33717 0.0
C18 C 0.13527 0.60722 0.31344 0.0
C19 C 0.12457 0.60797 0.28524 0.0
C20 C 0.09407 0.6083 0.28145 0.0
H21 H 0.43909 0.99375 0.50626 0.0
H22 H 0.47812 1.00658 0.42052 0.0
H23 H 0.43837 0.91204 0.46092 0.0
H24 H 0.44156 0.038 0.47617 0.0
H25 H 0.453 0.04023 0.43945 0.0
H26 H 0.49904 0.04946 0.51091 0.0
H27 H 0.57444 0.15072 0.49463 0.0
H28 H 0.49474 0.09644 0.43251 0.0
C29 C 0.44563 0.98398 0.48769 0.0
C30 C 0.43916 0.95074 0.48745 0.0
C31 C 0.4595 1.00436 0.46346 0.0
C32 C 0.46774 0.99134 0.43922 0.0
C33 C 0.46137 0.95825 0.43881 0.0
C34 C 0.44617 0.93833 0.46251 0.0
C35 C 0.46057 0.03776 0.46169 0.0
C36 C 0.49454 0.06819 0.46959 0.0
C37 C 0.51008 0.07037 0.49658 0.0
C38 C 0.53923 0.10003 0.5055 0.0
C39 C 0.55232 0.1276 0.48753 0.0
C40 C 0.53629 0.12717 0.46166 0.0
C41 C 0.50772 0.097 0.45233 0.0
H42 H 0.4335 0.51287 0.60911 0.0
H43 H 0.45351 0.47759 0.68807 0.0
H44 H 0.43773 0.56179 0.68905 0.0
H45 H 0.43314 0.46111 0.60841 0.0
H46 H 0.42156 0.43985 0.6414 0.0
H47 H 0.49121 0.48493 0.59098 0.0
H48 H 0.54675 0.44048 0.6243 0.0
H49 H 0.46283 0.4323 0.67104 0.0
C50 C 0.43873 0.5158 0.63206 0.0
C51 C 0.43688 0.54133 0.64737 0.0
C52 C 0.44565 0.49308 0.64658 0.0
C53 C 0.45001 0.49593 0.67665 0.0
C54 C 0.44731 0.52072 0.69221 0.0
C55 C 0.44168 0.54371 0.67723 0.0
C56 C 0.44193 0.4623 0.63102 0.0
C57 C 0.47374 0.45966 0.63137 0.0
C58 C 0.49572 0.47176 0.608 0.0
C59 C 0.52271 0.46562 0.6061 0.0
C60 C 0.52749 0.4473 0.62739 0.0
C61 C 0.50715 0.436 0.65144 0.0
C62 C 0.47984 0.44204 0.65325 0.0
H63 H 0.94468 0.43014 0.76924 0.0
H64 H 0.9982 0.46743 0.85049 0.0
H65 H 0.89956 0.45553 0.83805 0.0
H66 H 0.99579 0.42817 0.7785 0.0
H67 H 1.01192 0.43421 0.81458 0.0
H68 H 1.01038 0.48183 0.74971 0.0
H69 H 0.11118 0.56192 0.7656 0.0
H70 H 0.06792 0.47867 0.82247 0.0
C71 C 0.94653 0.44056 0.79062 0.0
C72 C 0.9191 0.44286 0.80133 0.0
C73 C 0.97581 0.45051 0.80795 0.0
C74 C 0.97677 0.46165 0.83644 0.0
C75 C 0.94943 0.4639 0.84715 0.0
C76 C 0.92134 0.45541 0.82923 0.0
C77 C 1.00435 0.44576 0.79734 0.0
C78 C 0.03458 0.47846 0.78887 0.0
C79 C 0.03293 0.4937 0.76336 0.0
C80 C 0.06092 0.52356 0.75494 0.0
C81 C 0.09016 0.53839 0.77225 0.0
C82 C 0.09424 0.52155 0.79544 0.0
C83 C 0.06568 0.49203 0.80444 0.0
H84 H 0.60828 0.0564 0.00411 0.0
H85 H 0.55589 0.02445 0.92233 0.0
H86 H 0.59355 0.12502 0.95249 0.0
H87 H 0.60465 1.00856 0.97841 0.0
H88 H 0.58628 0.99765 0.94318 0.0
H89 H 0.56028 0.99826 0.01987 0.0
H90 H 0.48123 0.89567 0.01342 0.0
H91 H 0.53919 0.94404 0.93946 0.0
C92 C 0.59755 0.06164 0.98539 0.0
C93 C 0.6026 0.09412 0.98158 0.0
C94 C 0.58067 0.03628 0.96415 0.0
C95 C 0.56756 0.04322 0.93939 0.0
C96 C 0.57142 0.07499 0.93574 0.0
C97 C 0.5886 0.10002 0.95685 0.0
C98 C 0.58231 1.00435 0.96525 0.0
C99 C 0.5513 0.97522 0.9777 0.0
C100 C 0.54471 0.97582 0.00704 0.0
C101 C 0.51979 0.94698 0.02026 0.0
C102 C 0.50044 0.9179 0.00336 0.0
C103 C 0.50741 0.91606 0.97433 0.0
C104 C 0.53259 0.94518 0.96152 0.0
H105 H 0.60804 0.53115 0.10905 0.0
H106 H 0.59301 0.55814 0.19365 0.0
H107 H 0.58678 0.46321 0.17785 0.0
H108 H 0.61549 0.58537 0.11831 0.0
H109 H 0.62001 0.59946 0.15467 0.0
H110 H 0.55856 0.55823 0.09375 0.0
H111 H 0.49816 0.60044 0.12223 0.0
H112 H 0.5747 0.60417 0.17803 0.0
C113 C 0.60109 0.52425 0.13109 0.0
C114 C 0.59956 0.49512 0.14169 0.0
C115 C 0.5965 0.54605 0.14963 0.0
C116 C 0.59245 0.53937 0.17915 0.0
C117 C 0.59081 0.51029 0.18997 0.0
C118 C 0.59063 0.4869 0.17032 0.0
C119 C 0.60251 0.57946 0.13924 0.0
C120 C 0.57034 0.58112 0.13603 0.0
C121 C 0.55147 0.57042 0.10996 0.0
C122 C 0.52476 0.57674 0.1045 0.0
C123 C 0.51687 0.59305 0.1261 0.0
C124 C 0.53354 0.60164 0.15281 0.0
C125 C 0.5607 0.59614 0.15778 0.0
Mn126 Mn 0.6662 0.4208 0.41199 0.0
Mn127 Mn 0.69981 0.5005 0.43785 0.0
C128 C 0.63853 0.43486 0.44646 0.0
C129 C 0.65425 0.36504 0.41243 0.0
C130 C 0.66424 0.47775 0.38015 0.0
O131 O 0.71641 0.44094 0.40165 0.0
O132 O 0.73376 0.49309 0.41854 0.0
C133 C 0.74553 0.49777 0.48217 0.0
N134 N 0.72099 0.50491 0.47459 0.0
C135 C 0.72189 0.52664 0.52205 0.0
C136 C 0.74745 0.51987 0.53027 0.0
C137 C 0.75916 0.50518 0.51028 0.0
C138 C 0.70924 0.51865 0.49376 0.0
H139 H 0.75461 0.4865 0.46689 0.0
C140 C 0.73948 0.47143 0.40647 0.0
O141 O 0.652 0.3788 0.38908 0.0
O142 O 0.66598 0.38437 0.43519 0.0
N143 N 0.67045 0.51185 0.45771 0.0
C144 C 0.64365 0.51391 0.44715 0.0
C145 C 0.62839 0.52737 0.46457 0.0
C146 C 0.64068 0.53839 0.49275 0.0
C147 C 0.66824 0.53594 0.5032 0.0
C148 C 0.68276 0.52278 0.48467 0.0
H149 H 0.63391 0.50518 0.42566 0.0
O150 O 0.62158 0.40922 0.4293 0.0
O151 O 0.67083 0.45204 0.44268 0.0
O152 O 0.65973 0.44826 0.38095 0.0
O153 O 0.67823 0.49924 0.40055 0.0
C154 C 0.68132 0.54519 0.53151 0.0
C155 C 0.70801 0.54039 0.54097 0.0
H156 H 0.758 0.52549 0.55195 0.0
H157 H 0.77871 0.49965 0.51652 0.0
H158 H 0.60721 0.52925 0.45626 0.0
H159 H 0.6285 0.5483 0.50627 0.0
H160 H 0.67054 0.55534 0.54636 0.0
H161 H 0.71736 0.54693 0.56296 0.0
Mn162 Mn 0.26533 0.67715 0.56996 0.0
Mn163 Mn 0.23151 0.59717 0.54592 0.0
C164 C 0.22903 0.65758 0.52982 0.0
C165 C 0.30643 0.73402 0.57064 0.0
C166 C 0.20462 0.61721 0.59683 0.0
O167 O 0.29651 0.66235 0.58937 0.0
O168 O 0.2711 0.60965 0.57143 0.0
C169 C 0.28914 0.60724 0.5106 0.0
N170 N 0.25569 0.597 0.5128 0.0
C171 C 0.24546 0.58097 0.46269 0.0
C172 C 0.27976 0.59126 0.45992 0.0
C173 C 0.30171 0.60454 0.48396 0.0
C174 C 0.23447 0.58462 0.48971 0.0
H175 H 0.30615 0.61744 0.52899 0.0
C176 C 0.2944 0.63371 0.58646 0.0
O177 O 0.28607 0.72066 0.59174 0.0
O178 O 0.30439 0.71402 0.54987 0.0
N179 N 0.19325 0.58155 0.52033 0.0
C180 C 0.16074 0.57204 0.52677 0.0
C181 C 0.13526 0.55638 0.50549 0.0
C182 C 0.14347 0.55064 0.47785 0.0
C183 C 0.17713 0.56117 0.47156 0.0
C184 C 0.2013 0.57587 0.49383 0.0
H185 H 0.15416 0.57575 0.54814 0.0
O186 O 0.23331 0.68359 0.54434 0.0
O187 O 0.24623 0.64409 0.53908 0.0
O188 O 0.22646 0.64824 0.59626 0.0
O189 O 0.20445 0.59546 0.57946 0.0
C190 C 0.18751 0.55702 0.44423 0.0
C191 C 0.22174 0.56724 0.43972 0.0
H192 H 0.28952 0.58907 0.43944 0.0
H193 H 0.32823 0.61259 0.48199 0.0
H194 H 0.1093 0.54838 0.51045 0.0
H195 H 0.12367 0.53784 0.46166 0.0
H196 H 0.16939 0.546 0.42653 0.0
H197 H 0.22947 0.5641 0.41858 0.0
Mn198 Mn 0.61178 0.25515 0.72517 0.0
Mn199 Mn 0.66033 0.21946 0.71432 0.0
C200 C 0.59931 0.21667 0.6876 0.0
C201 C 0.59376 0.29426 0.71977 0.0
C202 C 0.61037 0.19993 0.76204 0.0
O203 O 0.65654 0.28824 0.74608 0.0
O204 O 0.68593 0.26207 0.73621 0.0
C205 C 0.7128 0.2695 0.67717 0.0
N206 N 0.68847 0.23738 0.68187 0.0
C207 C 0.70193 0.21795 0.63856 0.0
C208 C 0.72716 0.25082 0.63327 0.0
C209 C 0.73254 0.27671 0.65262 0.0
C210 C 0.68315 0.21225 0.66344 0.0
H211 H 0.71719 0.28944 0.69208 0.0
C212 C 0.68373 0.28654 0.747 0.0
O213 O 0.58674 0.27572 0.74201 0.0
O214 O 0.61319 0.29175 0.70092 0.0
N215 N 0.63873 0.17819 0.69279 0.0
C216 C 0.61124 0.14857 0.69955 0.0
C217 C 0.60117 0.12043 0.6815 0.0
C218 C 0.61969 0.12294 0.65692 0.0
C219 C 0.64801 0.15365 0.65051 0.0
C220 C 0.65681 0.18085 0.66927 0.0
H221 H 0.59703 0.14649 0.7185 0.0
O222 O 0.57571 0.22098 0.69845 0.0
O223 O 0.62921 0.23417 0.69935 0.0
O224 O 0.60033 0.22021 0.75576 0.0
O225 O 0.63304 0.19791 0.74814 0.0
C226 C 0.66718 0.15862 0.62574 0.0
C227 C 0.69412 0.19074 0.61978 0.0
H228 H 0.74234 0.25652 0.61429 0.0
H229 H 0.75193 0.30215 0.64865 0.0
H230 H 0.57918 0.09686 0.68651 0.0
H231 H 0.61166 0.10124 0.64292 0.0
H232 H 0.66093 0.13807 0.6108 0.0
H233 H 0.70823 0.19437 0.60038 0.0
Mn234 Mn 0.38479 0.62249 0.90925 0.0
Mn235 Mn 0.33417 0.54213 0.92835 0.0
C236 C 0.40433 0.59926 0.94241 0.0
C237 C 0.40225 0.6794 0.91316 0.0
C238 C 0.37639 0.56118 0.87518 0.0
O239 O 0.33908 0.61156 0.89276 0.0
O240 O 0.30765 0.5585 0.9066 0.0
C241 C 0.29305 0.55549 0.96915 0.0
N242 N 0.31307 0.54217 0.96341 0.0
C243 C 0.30246 0.5164 0.00948 0.0
C244 C 0.28164 0.52976 0.01591 0.0
C245 C 0.27718 0.54966 -0.00426 0.0
C246 C 0.31843 0.52394 0.98299 0.0
H247 H 0.28903 0.57024 0.95347 0.0
C248 C 0.3111 0.58434 0.89392 0.0
O249 O 0.40616 0.66632 0.88974 0.0
O250 O 0.38758 0.65933 0.93415 0.0
N251 N 0.3543 0.52111 0.94953 0.0
C252 C 0.37475 0.50965 0.93984 0.0
C253 C 0.38246 0.49003 0.95772 0.0
C254 C 0.36774 0.48098 0.98477 0.0
C255 C 0.34568 0.4919 0.9938 0.0
C256 C 0.33993 0.51243 0.97551 0.0
H257 H 0.38522 0.51557 0.91866 0.0
O258 O 0.42491 0.62633 0.92934 0.0
O259 O 0.37206 0.58749 0.93748 0.0
O260 O 0.3886 0.59272 0.87812 0.0
O261 O 0.35558 0.53996 0.89258 0.0
C262 C 0.32875 0.48282 0.02007 0.0
C263 C 0.30752 0.49542 0.02808 0.0
H264 H 0.26888 0.5248 0.03619 0.0
H265 H 0.26115 0.56005 0.00053 0.0
H266 H 0.39919 0.48136 0.95043 0.0
H267 H 0.37329 0.46536 -0.0017 0.0
H268 H 0.33238 0.46664 0.03452 0.0
H269 H 0.29516 0.48877 0.04856 0.0
Mn270 Mn 0.77926 0.39008 0.06627 0.0
Mn271 Mn 0.83649 0.366 0.082 0.0
C272 C 0.82622 0.42355 0.09551 0.0
C273 C 0.73033 0.39333 0.07341 0.0
C274 C 0.83602 0.39864 0.02658 0.0
O275 O 0.75288 0.34 0.05537 0.0
O276 O 0.79376 0.32825 0.06632 0.0
C277 C 0.79989 0.32023 0.12908 0.0
N278 N 0.82828 0.34703 0.11924 0.0
C279 C 0.8599 0.35004 0.16198 0.0
C280 C 0.83101 0.32249 0.17261 0.0
C281 C 0.80077 0.30775 0.15622 0.0
C282 C 0.85715 0.36212 0.13528 0.0
H283 H 0.77686 0.30826 0.11621 0.0
C284 C 0.76386 0.31948 0.05729 0.0
O285 O 0.74377 0.39739 0.04844 0.0
O286 O 0.74424 0.3855 0.09418 0.0
N287 N 0.87936 0.3992 0.09773 0.0
C288 C 0.90505 0.42547 0.08434 0.0
C289 C 0.93667 0.4438 0.09838 0.0
C290 C 0.94202 0.43402 0.12547 0.0
C291 C 0.91559 0.40616 0.13835 0.0
C292 C 0.88425 0.38966 0.12383 0.0
H293 H 0.90141 0.43247 0.06312 0.0
O294 O 0.8102 0.43603 0.08204 0.0
O295 O 0.81395 0.39147 0.09239 0.0
O296 O 0.8097 0.40045 0.03168 0.0
O297 O 0.84807 0.38573 0.04367 0.0
C298 C 0.91933 0.39361 0.16471 0.0
C299 C 0.89145 0.36569 0.17661 0.0
H300 H 0.83179 0.31238 0.19328 0.0
H301 H 0.77838 0.28644 0.16424 0.0
H302 H 0.95706 0.46502 0.08812 0.0
H303 H 0.96664 0.44781 0.136 0.0
H304 H 0.94339 0.40557 0.17625 0.0
H305 H 0.89449 0.35665 0.19714 0.0
Mn306 Mn 0.41004 0.779 0.2309 0.0
Mn307 Mn 0.49048 0.81533 0.25769 0.0
C308 C 0.42695 0.81688 0.26938 0.0
C309 C 0.35299 0.73703 0.22742 0.0
C310 C 0.47151 0.83671 0.20275 0.0
O311 O 0.4267 0.74802 0.21575 0.0
O312 O 0.47922 0.77383 0.23571 0.0
C313 C 0.4824 0.76359 0.29876 0.0
N314 N 0.49214 0.79599 0.29323 0.0
C315 C 0.51293 0.81328 0.3418 0.0
C316 C 0.50328 0.78011 0.34799 0.0
C317 C 0.48784 0.75515 0.3264 0.0
C318 C 0.50693 0.82019 0.31386 0.0
H319 H 0.47065 0.74438 0.28219 0.0
C320 C 0.45532 0.75013 0.22079 0.0
O321 O 0.36825 0.75671 0.20648 0.0
O322 O 0.37118 0.74067 0.25037 0.0
N323 N 0.50527 0.85568 0.27974 0.0
C324 C 0.51053 0.88586 0.27086 0.0
C325 C 0.52469 0.91331 0.29018 0.0
C326 C 0.53355 0.90955 0.31831 0.0
C327 C 0.5282 0.87833 0.32687 0.0
C328 C 0.51417 0.85191 0.30663 0.0
H329 H 0.50392 0.88896 0.24922 0.0
O330 O 0.40135 0.81133 0.25303 0.0
O331 O 0.44204 0.80017 0.26289 0.0
O332 O 0.44003 0.81578 0.20336 0.0
O333 O 0.49255 0.83807 0.22168 0.0
C334 C 0.53533 0.87214 0.35493 0.0
C335 C 0.52763 0.83962 0.3624 0.0
H336 H 0.50732 0.77347 0.36931 0.0
H337 H 0.4802 0.72948 0.33105 0.0
H338 H 0.52878 0.93733 0.28337 0.0
H339 H 0.54411 0.9307 0.33325 0.0
H340 H 0.54605 0.89204 0.37108 0.0
H341 H 0.53262 0.83504 0.38418 0.0
H342 H 0.17584 0.59216 0.27962 0.0
H343 H 0.13303 0.64669 0.23788 0.0
H344 H 0.18517 0.67807 0.21128 0.0
H345 H 0.24735 0.66329 0.29844 0.0
H346 H 0.27578 0.647 0.29608 0.0
H347 H 0.23201 0.61943 0.30337 0.0
H348 H 0.22624 0.58191 0.2594 0.0
H349 H 0.27031 0.60903 0.25217 0.0
H350 H 0.23872 0.60018 0.22457 0.0
H351 H 0.24532 0.71156 0.1963 0.0
H352 H 0.30744 0.74521 0.19589 0.0
H353 H 0.31461 0.67793 0.25587 0.0
C354 C 0.17689 0.61035 0.2647 0.0
C355 C 0.14987 0.61709 0.26173 0.0
C356 C 0.15261 0.64027 0.24073 0.0
C357 C 0.18256 0.6587 0.22558 0.0
C358 C 0.20991 0.65413 0.23178 0.0
C359 C 0.20732 0.63046 0.25091 0.0
C360 C 0.24185 0.63502 0.25851 0.0
C361 C 0.24969 0.64158 0.29101 0.0
C362 C 0.24443 0.60473 0.24803 0.0
C363 C 0.26442 0.66577 0.24152 0.0
C364 C 0.24535 0.67555 0.22538 0.0
C365 C 0.26043 0.70387 0.20861 0.0
C366 C 0.29579 0.72288 0.20857 0.0
C367 C 0.31588 0.71422 0.22589 0.0
C368 C 0.2999 0.68509 0.2424 0.0
H369 H 0.55442 0.18809 0.486 0.0
H370 H 0.54794 0.14017 0.40363 0.0
H371 H 0.57779 0.19604 0.3814 0.0
H372 H 0.54613 0.25755 0.46074 0.0
H373 H 0.57633 0.28629 0.48705 0.0
H374 H 0.55134 0.2426 0.49491 0.0
H375 H 0.60611 0.24084 0.506 0.0
H376 H 0.63131 0.28437 0.49772 0.0
H377 H 0.63799 0.25378 0.47913 0.0
H378 H 0.61108 0.25886 0.36918 0.0
H379 H 0.64218 0.32072 0.36783 0.0
H380 H 0.63076 0.32585 0.45967 0.0
C381 C 0.55905 0.18916 0.46319 0.0
C382 C 0.54902 0.1596 0.44659 0.0
C383 C 0.55512 0.16233 0.41675 0.0
C384 C 0.57234 0.19401 0.40405 0.0
C385 C 0.58334 0.22267 0.42151 0.0
C386 C 0.57668 0.22032 0.45046 0.0
C387 C 0.59231 0.25444 0.46513 0.0
C388 C 0.56489 0.26058 0.47769 0.0
C389 C 0.61848 0.25858 0.48836 0.0
C390 C 0.60909 0.27672 0.43999 0.0
C391 C 0.60345 0.25807 0.4149 0.0
C392 C 0.61571 0.27352 0.38877 0.0
C393 C 0.63351 0.3087 0.38823 0.0
C394 C 0.63943 0.32818 0.41371 0.0
C395 C 0.62737 0.31176 0.43992 0.0
H396 H 0.37836 0.52119 0.61636 0.0
H397 H 0.46703 0.60945 0.65067 0.0
H398 H 0.44106 0.6438 0.63861 0.0
H399 H 0.35843 0.56266 0.55745 0.0
H400 H 0.31364 0.53687 0.56232 0.0
H401 H 0.34143 0.52076 0.57026 0.0
H402 H 0.31776 0.50712 0.62161 0.0
H403 H 0.29052 0.52391 0.61408 0.0
H404 H 0.31978 0.54002 0.64429 0.0
H405 H 0.40233 0.66766 0.62641 0.0
H406 H 0.35654 0.67888 0.6118 0.0
H407 H 0.29337 0.57409 0.58752 0.0
C408 C 0.39283 0.54795 0.62025 0.0
C409 C 0.42499 0.56279 0.6339 0.0
C410 C 0.44258 0.59772 0.63976 0.0
C411 C 0.42793 0.61737 0.63316 0.0
C412 C 0.39554 0.60175 0.62076 0.0
C413 C 0.37842 0.56786 0.61404 0.0
C414 C 0.34319 0.55664 0.60243 0.0
C415 C 0.33894 0.54347 0.57126 0.0
C416 C 0.31624 0.53038 0.62176 0.0
C417 C 0.34298 0.5893 0.60399 0.0
C418 C 0.37333 0.61516 0.61449 0.0
C419 C 0.37851 0.64754 0.61799 0.0
C420 C 0.35227 0.65368 0.60987 0.0
C421 C 0.32117 0.62751 0.5985 0.0
C422 C 0.31668 0.59489 0.59605 0.0
H423 H 0.88106 0.37838 0.78221 0.0
H424 H 0.88076 0.47172 0.78955 0.0
H425 H 0.81967 0.44222 0.77686 0.0
H426 H 0.817 0.34038 0.72256 0.0
H427 H 0.7991 0.29946 0.73768 0.0
H428 H 0.84335 0.32915 0.74321 0.0
H429 H 0.83565 0.32206 0.7982 0.0
H430 H 0.79122 0.29318 0.79291 0.0
H431 H 0.80519 0.33005 0.81533 0.0
H432 H 0.75667 0.40067 0.76764 0.0
H433 H 0.6995 0.352 0.75784 0.0
H434 H 0.74223 0.28663 0.75931 0.0
C435 C 0.86843 0.39279 0.7799 0.0
C436 C 0.88569 0.4274 0.78625 0.0
C437 C 0.868 0.44525 0.78422 0.0
C438 C 0.83329 0.42866 0.77728 0.0
C439 C 0.81658 0.39416 0.77251 0.0
C440 C 0.83375 0.37656 0.77329 0.0
C441 C 0.80982 0.33946 0.7691 0.0
C442 C 0.81779 0.32635 0.74149 0.0
C443 C 0.81052 0.32007 0.79546 0.0
C444 C 0.77651 0.33885 0.76621 0.0
C445 C 0.78071 0.37053 0.76811 0.0
C446 C 0.75316 0.37574 0.76598 0.0
C447 C 0.7207 0.34793 0.76075 0.0
C448 C 0.71615 0.31537 0.75783 0.0
C449 C 0.74456 0.31106 0.76136 0.0
H450 H 0.48853 0.85437 -0.00329 0.0
H451 H 0.48897 0.9017 0.91659 0.0
H452 H 0.46197 0.84633 0.89181 0.0
H453 H 0.50379 0.79203 0.96925 0.0
H454 H 0.47541 0.76039 0.99315 0.0
H455 H 0.4957 0.80378 0.00403 0.0
H456 H 0.43738 0.79816 0.01342 0.0
H457 H 0.41685 0.75469 0.00268 0.0
H458 H 0.4055 0.78234 0.98514 0.0
H459 H 0.43653 0.78486 0.87575 0.0
H460 H 0.41226 0.72356 0.87058 0.0
H461 H 0.42317 0.71745 0.96255 0.0
C462 C 0.48234 0.85343 0.97409 0.0
C463 C 0.49072 0.88281 0.95881 0.0
C464 C 0.48319 0.87984 0.92889 0.0
C465 C 0.46761 0.8484 0.91464 0.0
C466 C 0.45932 0.82007 0.93063 0.0
C467 C 0.46616 0.8224 0.95979 0.0
C468 C 0.45425 0.78841 0.97245 0.0
C469 C 0.48407 0.78603 0.98548 0.0
C470 C 0.42687 0.78044 -0.00526 0.0
C471 C 0.43979 0.76636 0.94582 0.0
C472 C 0.44324 0.78501 0.92179 0.0
C473 C 0.43332 0.77006 0.8945 0.0
C474 C 0.41963 0.73528 0.89175 0.0
C475 C 0.41543 0.71578 0.91622 0.0
C476 C 0.42545 0.73163 0.94355 0.0
H477 H 0.63854 0.47038 0.16285 0.0
H478 H 0.59253 0.47834 0.08339 0.0
H479 H 0.61747 0.44886 0.05743 0.0
H480 H 0.71462 0.48465 0.13488 0.0
H481 H 0.71851 0.45543 0.15763 0.0
H482 H 0.69551 0.47533 0.16963 0.0
H483 H 0.64291 0.41749 0.17767 0.0
H484 H 0.66569 0.39725 0.16568 0.0
H485 H 0.62602 0.38708 0.14851 0.0
H486 H 0.6508 0.42115 0.04019 0.0
H487 H 0.68983 0.39937 0.03297 0.0
H488 H 0.71102 0.40768 0.12469 0.0
C489 C 0.63268 0.46518 0.14011 0.0
C490 C 0.61282 0.47619 0.12532 0.0
C491 C 0.60744 0.47009 0.09528 0.0
C492 C 0.62136 0.45318 0.08042 0.0
C493 C 0.64049 0.44245 0.09592 0.0
C494 C 0.646 0.44822 0.12516 0.0
C495 C 0.66857 0.43565 0.13694 0.0
C496 C 0.70123 0.46449 0.15056 0.0
C497 C 0.64966 0.4077 0.15847 0.0
C498 C 0.67555 0.42226 0.10966 0.0
C499 C 0.65906 0.42626 0.0862 0.0
C500 C 0.66341 0.41755 0.05848 0.0
C501 C 0.68562 0.40515 0.0546 0.0
C502 C 0.70319 0.40143 0.07831 0.0
C503 C 0.69744 0.40952 0.10622 0.0
H504 H 0.45102 0.90102 0.50516 0.0
H505 H 0.38862 0.94509 0.52327 0.0
H506 H 0.3532 0.89741 0.5541 0.0
H507 H 0.3835 0.82355 0.49065 0.0
H508 H 0.40273 0.80039 0.50404 0.0
H509 H 0.42876 0.84179 0.4909 0.0
H510 H 0.46214 0.86037 0.53941 0.0
H511 H 0.43633 0.81882 0.5527 0.0
H512 H 0.43976 0.85429 0.57236 0.0
H513 H 0.32022 0.84085 0.57799 0.0
H514 H 0.29034 0.78053 0.58843 0.0
H515 H 0.36877 0.77022 0.54661 0.0
C516 C 0.43024 0.90112 0.51592 0.0
C517 C 0.42262 0.92698 0.51145 0.0
C518 C 0.39546 0.92606 0.5265 0.0
C519 C 0.37502 0.89884 0.54396 0.0
C520 C 0.38186 0.87261 0.54598 0.0
C521 C 0.40883 0.87359 0.53217 0.0
C522 C 0.40776 0.84028 0.53334 0.0
C523 C 0.40554 0.82566 0.50294 0.0
C524 C 0.43831 0.84365 0.55048 0.0
C525 C 0.37537 0.81989 0.54929 0.0
C526 C 0.36142 0.83926 0.55734 0.0
C527 C 0.3311 0.82563 0.57191 0.0
C528 C 0.31435 0.79135 0.57782 0.0
C529 C 0.32731 0.77079 0.56835 0.0
C530 C 0.3584 0.78541 0.55419 0.0
H531 H 0.56878 0.44503 0.66927 0.0
H532 H 0.46116 0.37933 0.67962 0.0
H533 H 0.47298 0.33859 0.7034 0.0
H534 H 0.58187 0.38222 0.64419 0.0
H535 H 0.62364 0.39876 0.6598 0.0
H536 H 0.60813 0.42653 0.65096 0.0
H537 H 0.61922 0.44961 0.70336 0.0
H538 H 0.63536 0.42229 0.71234 0.0
H539 H 0.60142 0.42108 0.73251 0.0
H540 H 0.49641 0.30241 0.72116 0.0
H541 H 0.52819 0.27295 0.72959 0.0
H542 H 0.61922 0.35829 0.69927 0.0
C543 C 0.54755 0.42233 0.67692 0.0
C544 C 0.51387 0.41543 0.67227 0.0
C545 C 0.48713 0.38559 0.68316 0.0
C546 C 0.49366 0.36212 0.69648 0.0
C547 C 0.52699 0.36871 0.6985 0.0
C548 C 0.55349 0.39815 0.68895 0.0
C549 C 0.58634 0.39743 0.68962 0.0
C550 C 0.60083 0.40146 0.65935 0.0
C551 C 0.6121 0.42419 0.71072 0.0
C552 C 0.57418 0.36261 0.70053 0.0
C553 C 0.54005 0.34685 0.7063 0.0
C554 C 0.52308 0.31459 0.71675 0.0
C555 C 0.54136 0.29806 0.72142 0.0
C556 C 0.57606 0.3133 0.71488 0.0
C557 C 0.59266 0.34599 0.70421 0.0
H558 H 0.11605 0.51631 0.85095 0.0
H559 H 0.15289 0.55086 0.76534 0.0
H560 H 0.21078 0.57484 0.78315 0.0
H561 H 0.18434 0.58289 0.89261 0.0
H562 H 0.18718 0.55593 0.91875 0.0
H563 H 0.14744 0.54371 0.90068 0.0
H564 H 0.14337 0.48831 0.88336 0.0
H565 H 0.18291 0.50022 0.90164 0.0
H566 H 0.17774 0.48959 0.86381 0.0
H567 H 0.2649 0.59799 0.80943 0.0
H568 H 0.31303 0.6086 0.84112 0.0
H569 H 0.24375 0.55191 0.90813 0.0
C570 C 0.1362 0.52892 0.83594 0.0
C571 C 0.12932 0.53329 0.80699 0.0
C572 C 0.15687 0.54906 0.78805 0.0
C573 C 0.19018 0.56254 0.79783 0.0
C574 C 0.19607 0.55899 0.82648 0.0
C575 C 0.17004 0.54165 0.84514 0.0
C576 C 0.18399 0.53882 0.87417 0.0
C577 C 0.17521 0.55639 0.89796 0.0
C578 C 0.17125 0.50205 0.88115 0.0
C579 C 0.22171 0.55741 0.86864 0.0
C580 C 0.22791 0.56949 0.84114 0.0
C581 C 0.2605 0.58841 0.83097 0.0
C582 C 0.28766 0.59452 0.84917 0.0
C583 C 0.28206 0.58104 0.87694 0.0
C584 C 0.24864 0.56239 0.8869 0.0
H585 H 0.60131 0.15235 -0.00472 0.0
H586 H 0.66001 0.1031 0.00971 0.0
H587 H 0.70417 0.15377 0.03411 0.0
H588 H 0.67012 0.22828 0.97535 0.0
H589 H 0.65607 0.25462 0.99173 0.0
H590 H 0.62567 0.21279 0.97986 0.0
H591 H 0.60109 0.19926 0.03083 0.0
H592 H 0.63121 0.24122 0.04283 0.0
H593 H 0.62877 0.20605 0.06126 0.0
H594 H 0.74482 0.21059 0.05177 0.0
H595 H 0.77954 0.27021 0.06326 0.0
H596 H 0.6976 0.28602 0.035 0.0
C597 C 0.62321 0.15192 0.00381 0.0
C598 C 0.62663 0.12311 0.00054 0.0
C599 C 0.65585 0.12404 0.0124 0.0
C600 C 0.68145 0.15302 0.02613 0.0
C601 C 0.67781 0.18115 0.0278 0.0
C602 C 0.64942 0.18093 0.01713 0.0
C603 C 0.65333 0.21558 0.01962 0.0
C604 C 0.65117 0.22857 0.98987 0.0
C605 C 0.62704 0.21551 0.03985 0.0
C606 C 0.68875 0.23543 0.0327 0.0
C607 C 0.70204 0.21477 0.03747 0.0
C608 C 0.7346 0.22698 0.04839 0.0
C609 C 0.75423 0.26115 0.0547 0.0
C610 C 0.74155 0.28326 0.05002 0.0
C611 C 0.70813 0.26999 0.03893 0.0
H612 H 0.56365 0.66771 0.16892 0.0
H613 H 0.47471 0.57125 0.18076 0.0
H614 H 0.44477 0.59887 0.20049 0.0
H615 H 0.55176 0.71022 0.23479 0.0
H616 H 0.56733 0.74895 0.21618 0.0
H617 H 0.58321 0.72122 0.20776 0.0
H618 H 0.56672 0.72096 0.1543 0.0
H619 H 0.54967 0.74765 0.16262 0.0
H620 H 0.52349 0.70789 0.14457 0.0
H621 H 0.42125 0.63696 0.20992 0.0
H622 H 0.40946 0.68315 0.21848 0.0
H623 H 0.51435 0.75506 0.20299 0.0
C624 C 0.5386 0.6525 0.17727 0.0
C625 C 0.52172 0.61735 0.17409 0.0
C626 C 0.4883 0.59816 0.18386 0.0
C627 C 0.47097 0.61366 0.19471 0.0
C628 C 0.48758 0.64843 0.19601 0.0
C629 C 0.52102 0.66766 0.18847 0.0
C630 C 0.53232 0.70459 0.19053 0.0
C631 C 0.56031 0.72229 0.2137 0.0
C632 C 0.54371 0.72123 0.16126 0.0
C633 C 0.4998 0.70302 0.19945 0.0
C634 C 0.4742 0.6704 0.20226 0.0
C635 C 0.44129 0.66264 0.2084 0.0
C636 C 0.43469 0.68898 0.21283 0.0
C637 C 0.46096 0.7226 0.21142 0.0
C638 C 0.49381 0.72955 0.20437 0.0
H639 H 0.89699 0.48843 0.31928 0.0
H640 H 0.95486 0.58672 0.36043 0.0
H641 H 0.90776 0.57289 0.39256 0.0
H642 H 0.82259 0.49082 0.31474 0.0
H643 H 0.7946 0.44697 0.32049 0.0
H644 H 0.83518 0.4608 0.30499 0.0
H645 H 0.85026 0.43181 0.34502 0.0
H646 H 0.80956 0.41763 0.3606 0.0
H647 H 0.84754 0.44156 0.38215 0.0
H648 H 0.85307 0.55236 0.41569 0.0
H649 H 0.7939 0.52756 0.42827 0.0
H650 H 0.76742 0.44388 0.36927 0.0
C651 C 0.90011 0.5071 0.33519 0.0
C652 C 0.93011 0.53888 0.33706 0.0
C653 C 0.93284 0.56202 0.35867 0.0
C654 C 0.90596 0.55446 0.37699 0.0
C655 C 0.87633 0.52372 0.37342 0.0
C656 C 0.87315 0.50034 0.35308 0.0
C657 C 0.83716 0.47096 0.35134 0.0
C658 C 0.82147 0.46719 0.3211 0.0
C659 C 0.83608 0.43857 0.36032 0.0
C660 C 0.82029 0.48203 0.3733 0.0
C661 C 0.84373 0.51223 0.38608 0.0
C662 C 0.83456 0.52862 0.40601 0.0
C663 C 0.80057 0.51422 0.41284 0.0
C664 C 0.77553 0.48365 0.39964 0.0
C665 C 0.78577 0.46705 0.3799 0.0
H666 H 0.10207 0.61588 0.39427 0.0
H667 H 0.1914 0.64668 0.34286 0.0
H668 H 0.22548 0.65726 0.38613 0.0
H669 H 0.15651 0.68845 0.44808 0.0
H670 H 0.13019 0.66547 0.47741 0.0
H671 H 0.11207 0.66015 0.44175 0.0
H672 H 0.08787 0.59844 0.44723 0.0
H673 H 0.10963 0.60033 0.48034 0.0
H674 H 0.1149 0.58088 0.44837 0.0
H675 H 0.24918 0.65797 0.43307 0.0
H676 H 0.26553 0.66245 0.48415 0.0
H677 H 0.16596 0.64273 0.5081 0.0
C678 C 0.12879 0.62522 0.39196 0.0
C679 C 0.14293 0.62723 0.36456 0.0
C680 C 0.17859 0.64127 0.36309 0.0
C681 C 0.19872 0.64832 0.38774 0.0
C682 C 0.18367 0.64392 0.41408 0.0
C683 C 0.15013 0.63479 0.4166 0.0
C684 C 0.14184 0.6354 0.44807 0.0
C685 C 0.13474 0.66407 0.45418 0.0
C686 C 0.11186 0.60176 0.45662 0.0
C687 C 0.17506 0.64268 0.46254 0.0
C688 C 0.19877 0.64792 0.44216 0.0
C689 C 0.2312 0.65462 0.44938 0.0
C690 C 0.24017 0.65689 0.47837 0.0
C691 C 0.21691 0.65259 0.4998 0.0
C692 C 0.184 0.64579 0.49193 0.0
H693 H 0.50688 0.08585 0.55742 0.0
H694 H 0.60589 0.12873 0.51992 0.0
H695 H 0.63144 0.16306 0.56373 0.0
H696 H 0.51258 0.15082 0.59202 0.0
H697 H 0.49434 0.13298 0.62589 0.0
H698 H 0.48303 0.10667 0.59413 0.0
H699 H 0.50166 0.06851 0.61852 0.0
H700 H 0.51225 0.09384 0.65096 0.0
H701 H 0.54341 0.08643 0.63448 0.0
H702 H 0.63992 0.20684 0.59979 0.0
H703 H 0.64221 0.23819 0.64374 0.0
H704 H 0.54304 0.15882 0.66638 0.0
C705 C 0.53413 0.10079 0.55916 0.0
C706 C 0.55433 0.10566 0.53491 0.0
C707 C 0.58993 0.12538 0.53801 0.0
C708 C 0.60465 0.1452 0.56267 0.0
C709 C 0.58362 0.14296 0.5848 0.0
C710 C 0.54967 0.11939 0.58451 0.0
C711 C 0.53351 0.12217 0.61201 0.0
C712 C 0.50413 0.12854 0.6056 0.0
C713 C 0.52203 0.09088 0.63008 0.0
C714 C 0.56317 0.15255 0.62642 0.0
C715 C 0.5913 0.16474 0.60953 0.0
C716 C 0.61937 0.19612 0.61466 0.0
C717 C 0.62043 0.2137 0.63961 0.0
C718 C 0.59437 0.19925 0.65969 0.0
C719 C 0.56441 0.16916 0.65231 0.0
H720 H 0.47163 0.57357 0.73075 0.0
H721 H 0.41345 0.46528 0.7251 0.0
H722 H 0.39504 0.46397 0.77466 0.0
H723 H 0.49196 0.58237 0.81064 0.0
H724 H 0.48601 0.61802 0.81355 0.0
H725 H 0.50196 0.61017 0.78095 0.0
H726 H 0.45366 0.61107 0.75197 0.0
H727 H 0.43707 0.61811 0.78439 0.0
H728 H 0.41045 0.58283 0.76111 0.0
H729 H 0.37406 0.47445 0.82051 0.0
H730 H 0.35508 0.49578 0.86059 0.0
H731 H 0.42386 0.59752 0.83512 0.0
C732 C 0.45591 0.54952 0.74027 0.0
C733 C 0.44412 0.51955 0.72397 0.0
C734 C 0.42346 0.48859 0.73721 0.0
C735 C 0.4126 0.48759 0.76536 0.0
C736 C 0.42272 0.51772 0.78002 0.0
C737 C 0.44434 0.54815 0.76809 0.0
C738 C 0.44781 0.57693 0.78662 0.0
C739 C 0.48409 0.59812 0.79866 0.0
C740 C 0.43657 0.59848 0.77003 0.0
C741 C 0.42352 0.55791 0.81012 0.0
C742 C 0.40981 0.52383 0.80621 0.0
C743 C 0.3851 0.5011 0.82411 0.0
C744 C 0.3743 0.51352 0.84671 0.0
C745 C 0.38788 0.5484 0.85106 0.0
C746 C 0.41298 0.57075 0.8325 0.0
H747 H 0.9503 0.42636 0.89115 0.0
H748 H 0.9374 0.51065 0.87141 0.0
H749 H 0.91152 0.50623 0.91847 0.0
H750 H 0.87504 0.37893 0.91904 0.0
H751 H 0.88689 0.36087 0.94782 0.0
H752 H 0.91239 0.37528 0.9165 0.0
H753 H 0.96528 0.41441 0.94774 0.0
H754 H 0.94028 0.39928 0.97944 0.0
H755 H 0.9636 0.44347 0.97293 0.0
H756 H 0.87541 0.48451 0.9609 0.0
H757 H 0.8398 0.45303 0.00117 0.0
H758 H 0.87714 0.3834 -0.00497 0.0
C759 C 0.94393 0.4451 0.89759 0.0
C760 C 0.9463 0.46922 0.87803 0.0
C761 C 0.9363 0.49245 0.88644 0.0
C762 C 0.92138 0.48995 0.91302 0.0
C763 C 0.91711 0.46435 0.93102 0.0
C764 C 0.92899 0.44291 0.92413 0.0
C765 C 0.91794 0.41539 0.94585 0.0
C766 C 0.89681 0.38058 0.93142 0.0
C767 C 0.9486 0.41833 0.96249 0.0
C768 C 0.89653 0.42367 0.96504 0.0
C769 C 0.89652 0.45208 0.95614 0.0
C770 C 0.87596 0.46279 0.96859 0.0
C771 C 0.85545 0.44446 0.99117 0.0
C772 C 0.85576 0.41582 0.0012 0.0
C773 C 0.8767 0.40543 0.98798 0.0
H774 H 0.46301 0.91248 0.05269 0.0
H775 H 0.57215 0.97403 0.05987 0.0
H776 H 0.57037 0.95787 0.11016 0.0
H777 H 0.44334 0.92065 0.1298 0.0
H778 H 0.4107 0.87735 0.12999 0.0
H779 H 0.41947 0.90046 0.09731 0.0
H780 H 0.42842 0.85562 0.07143 0.0
H781 H 0.42041 0.83274 0.10403 0.0
H782 H 0.45938 0.84602 0.08565 0.0
H783 H 0.55836 0.92721 0.1561 0.0
H784 H 0.53664 0.88701 0.19527 0.0
H785 H 0.43565 0.84221 0.15716 0.0
C786 C 0.48648 0.92335 0.06505 0.0
C787 C 0.51771 0.94463 0.05214 0.0
C788 C 0.54779 0.95828 0.06922 0.0
C789 C 0.54708 0.94898 0.09785 0.0
C790 C 0.51612 0.92609 0.10918 0.0
C791 C 0.48627 0.91377 0.09344 0.0
C792 C 0.457 0.88625 0.10917 0.0
C793 C 0.4311 0.89682 0.11704 0.0
C794 C 0.44035 0.85322 0.09152 0.0
C795 C 0.4753 0.88406 0.13567 0.0
C796 C 0.50926 0.90763 0.13549 0.0
C797 C 0.5317 0.90905 0.15674 0.0
C798 C 0.5191 0.88587 0.17881 0.0
C799 C 0.48437 0.8613 0.17938 0.0
C800 C 0.46227 0.86071 0.15753 0.0
H801 H 0.62117 0.47794 0.21518 0.0
H802 H 0.57251 0.5355 0.23689 0.0
H803 H 0.58727 0.53475 0.28798 0.0
H804 H 0.58936 0.4234 0.27673 0.0
H805 H 0.62717 0.42054 0.27971 0.0
H806 H 0.61287 0.42622 0.24512 0.0
H807 H 0.67123 0.4788 0.23803 0.0
H808 H 0.68561 0.47384 0.2728 0.0
H809 H 0.68724 0.51255 0.26432 0.0
H810 H 0.61278 0.53191 0.33632 0.0
H811 H 0.63816 0.5198 0.37828 0.0
H812 H 0.6617 0.45717 0.3245 0.0
C813 C 0.61216 0.48945 0.23033 0.0
C814 C 0.59533 0.50671 0.22141 0.0
C815 C 0.58583 0.52252 0.24271 0.0
C816 C 0.59395 0.52207 0.2719 0.0
C817 C 0.61084 0.50507 0.27955 0.0
C818 C 0.61898 0.48834 0.25936 0.0
C819 C 0.63642 0.47121 0.27284 0.0
C820 C 0.61518 0.43308 0.26834 0.0
C821 C 0.67224 0.48494 0.26131 0.0
C822 C 0.63739 0.48133 0.30393 0.0
C823 C 0.62306 0.50133 0.30737 0.0
C824 C 0.62331 0.51563 0.33394 0.0
C825 C 0.6379 0.50869 0.35765 0.0
C826 C 0.65125 0.48696 0.35474 0.0
C827 C 0.65107 0.47331 0.32746 0.0
H828 H 0.44808 0.96105 0.38056 0.0
H829 H 0.48911 0.91829 0.4403 0.0
H830 H 0.4823 0.87668 0.40352 0.0
H831 H 0.38864 0.88936 0.34475 0.0
H832 H 0.39651 0.90495 0.30875 0.0
H833 H 0.40598 0.93337 0.33884 0.0
H834 H 0.46723 0.96856 0.32257 0.0
H835 H 0.459 0.94052 0.29234 0.0
H836 H 0.49274 0.94933 0.31772 0.0
H837 H 0.4558 0.83126 0.36642 0.0
H838 H 0.43789 0.79808 0.32109 0.0
H839 H 0.4265 0.87567 0.28028 0.0
C840 C 0.45684 0.94379 0.38552 0.0
C841 C 0.4679 0.94211 0.41371 0.0
C842 C 0.47947 0.91931 0.41917 0.0
C843 C 0.47557 0.89544 0.39851 0.0
C844 C 0.46177 0.89578 0.37188 0.0
C845 C 0.4546 0.92048 0.36454 0.0
C846 C 0.44206 0.91569 0.33345 0.0
C847 C 0.40617 0.91054 0.33134 0.0
C848 C 0.46672 0.94527 0.31543 0.0
C849 C 0.44224 0.88384 0.32512 0.0
C850 C 0.45241 0.87226 0.34817 0.0
C851 C 0.44994 0.84102 0.34757 0.0
C852 C 0.4399 0.82245 0.32178 0.0
C853 C 0.43376 0.83571 0.29679 0.0
C854 C 0.43316 0.866 0.29877 0.0
H855 H 0.50631 0.45035 0.54837 0.0
H856 H 0.59071 0.50063 0.60901 0.0
H857 H 0.62777 0.49457 0.57468 0.0
H858 H 0.52463 0.39273 0.51955 0.0
H859 H 0.51518 0.39568 0.48236 0.0
H860 H 0.49469 0.40584 0.51024 0.0
H861 H 0.51521 0.46316 0.48872 0.0
H862 H 0.5374 0.45524 0.46079 0.0
H863 H 0.55955 0.49133 0.48446 0.0
H864 H 0.6487 0.46658 0.54211 0.0
H865 H 0.66668 0.4481 0.49942 0.0
H866 H 0.5751 0.42809 0.45353 0.0
C867 C 0.53297 0.46169 0.55371 0.0
C868 C 0.54562 0.47536 0.58152 0.0
C869 C 0.58061 0.48981 0.58788 0.0
C870 C 0.60169 0.48603 0.56876 0.0
C871 C 0.58776 0.4694 0.54275 0.0
C872 C 0.55501 0.45957 0.53417 0.0
C873 C 0.54756 0.44396 0.50407 0.0
C874 C 0.5188 0.40739 0.50408 0.0
C875 C 0.53949 0.46465 0.48323 0.0
C876 C 0.58109 0.44608 0.49764 0.0
C877 C 0.60294 0.45911 0.5211 0.0
C878 C 0.633 0.45854 0.52278 0.0
C879 C 0.64297 0.44806 0.49848 0.0
C880 C 0.62364 0.43959 0.47266 0.0
C881 C 0.59126 0.43651 0.47261 0.0
H882 H 0.0701 0.49602 0.70726 0.0
H883 H 0.06498 0.58179 0.73862 0.0
H884 H 0.09537 0.61328 0.69611 0.0
H885 H 0.14977 0.53741 0.69008 0.0
H886 H 0.14818 0.5144 0.65797 0.0
H887 H 0.11686 0.4945 0.68481 0.0
H888 H 0.06872 0.48003 0.64758 0.0
H889 H 0.09976 0.49877 0.62012 0.0
H890 H 0.0697 0.51255 0.62595 0.0
H891 H 0.13792 0.63927 0.65827 0.0
H892 H 0.18379 0.65634 0.6239 0.0
H893 H 0.16277 0.55391 0.61681 0.0
C894 C 0.07323 0.52056 0.70395 0.0
C895 C 0.06423 0.5362 0.72555 0.0
C896 C 0.07061 0.56912 0.72172 0.0
C897 C 0.08821 0.58724 0.69778 0.0
C898 C 0.09911 0.57198 0.67793 0.0
C899 C 0.09119 0.53906 0.68035 0.0
C900 C 0.1102 0.53017 0.65877 0.0
C901 C 0.13257 0.51845 0.67382 0.0
C902 C 0.08563 0.50382 0.63679 0.0
C903 C 0.13139 0.56364 0.64492 0.0
C904 C 0.1243 0.58729 0.65605 0.0
C905 C 0.14302 0.62077 0.64883 0.0
C906 C 0.16935 0.63028 0.62951 0.0
C907 C 0.17691 0.60646 0.61756 0.0
C908 C 0.15735 0.57263 0.62525 0.0
H909 H 0.59903 0.07655 0.88428 0.0
H910 H 0.52818 0.09843 0.9262 0.0
H911 H 0.52501 0.12729 0.88288 0.0
H912 H 0.64597 0.15309 0.85609 0.0
H913 H 0.6554 0.13986 0.82261 0.0
H914 H 0.64631 0.11429 0.85365 0.0
H915 H 0.59797 0.06391 0.82559 0.0
H916 H 0.60729 0.08916 0.79416 0.0
H917 H 0.56519 0.06851 0.80801 0.0
H918 H 0.53647 0.16094 0.83876 0.0
H919 H 0.56036 0.19595 0.79649 0.0
H920 H 0.62557 0.15376 0.78371 0.0
C921 C 0.58162 0.08601 0.88365 0.0
C922 C 0.56308 0.08459 0.90806 0.0
C923 C 0.54186 0.09868 0.90732 0.0
C924 C 0.54002 0.11514 0.88288 0.0
C925 C 0.5597 0.11735 0.8595 0.0
C926 C 0.57988 0.1029 0.85956 0.0
C927 C 0.60181 0.11252 0.83335 0.0
C928 C 0.63959 0.13104 0.84196 0.0
C929 C 0.5925 0.08168 0.81414 0.0
C930 C 0.59175 0.13562 0.81912 0.0
C931 C 0.56706 0.13764 0.83429 0.0
C932 C 0.55537 0.15911 0.82641 0.0
C933 C 0.56928 0.17906 0.80242 0.0
C934 C 0.59491 0.17769 0.78667 0.0
C935 C 0.6059 0.15532 0.79509 0.0
H936 H 0.46001 0.56488 0.09305 0.0
H937 H 0.54724 0.57175 0.05031 0.0
H938 H 0.51941 0.56743 0.0036 0.0
H939 H 0.39399 0.51735 0.0437 0.0
H940 H 0.37553 0.54408 0.04624 0.0
H941 H 0.39849 0.54055 0.07635 0.0
H942 H 0.4382 0.60406 0.0785 0.0
H943 H 0.41492 0.60834 0.04902 0.0
H944 H 0.45987 0.62535 0.04672 0.0
H945 H 0.48608 0.57069 0.96171 0.0
H946 H 0.4525 0.58467 0.92861 0.0
H947 H 0.39149 0.58389 -0.00082 0.0
C948 C 0.4739 0.56587 0.07416 0.0
C949 C 0.50638 0.56906 0.076 0.0
C950 C 0.52221 0.5687 0.05008 0.0
C951 C 0.50666 0.56656 0.02325 0.0
C952 C 0.47567 0.5656 0.02257 0.0
C953 C 0.45994 0.56598 0.04745 0.0
C954 C 0.43003 0.57073 0.04147 0.0
C955 C 0.3975 0.54134 0.05254 0.0
C956 C 0.43614 0.60409 0.0547 0.0
C957 C 0.43039 0.5717 0.009 0.0
C958 C 0.45697 0.56865 -0.00146 0.0
C959 C 0.46484 0.57243 0.96958 0.0
C960 C 0.44569 0.58037 0.95098 0.0
C961 C 0.41883 0.58419 0.96131 0.0
C962 C 0.41088 0.5795 0.99062 0.0
H963 H 0.91444 0.48421 0.24915 0.0
H964 H 0.99081 0.57551 0.21034 0.0
H965 H 0.96501 0.5522 0.16259 0.0
H966 H 0.9034 0.42747 0.201 0.0
H967 H 0.8578 0.40241 0.19756 0.0
H968 H 0.87773 0.42416 0.23077 0.0
H969 H 0.84981 0.45916 0.23338 0.0
H970 H 0.82366 0.43502 0.20307 0.0
H971 H 0.84684 0.47999 0.20199 0.0
H972 H 0.92684 0.52091 0.11946 0.0
H973 H 0.88202 0.48291 0.08463 0.0
H974 H 0.831 0.41315 0.15234 0.0
C975 C 0.92576 0.49989 0.23088 0.0
C976 C 0.95484 0.53199 0.23397 0.0
C977 C 0.96901 0.55065 0.2089 0.0
C978 C 0.95423 0.53779 0.18161 0.0
C979 C 0.92491 0.50657 0.17975 0.0
C980 C 0.91061 0.48822 0.20386 0.0
C981 C 0.87793 0.45639 0.19666 0.0
C982 C 0.87923 0.42568 0.207 0.0
C983 C 0.84779 0.45774 0.20953 0.0
C984 C 0.87728 0.45825 0.16426 0.0
C985 C 0.90393 0.488 0.15499 0.0
C986 C 0.90634 0.49727 0.12637 0.0
C987 C 0.88084 0.47566 0.1068 0.0
C988 C 0.85404 0.44472 0.11576 0.0
C989 C 0.85219 0.43599 0.14482 0.0
loop_
_geom_bond_atom_site_label_1
_geom_bond_atom_site_label_2
_geom_bond_distance
_geom_bond_site_symmetry_2
_ccdc_geom_bond_type
H0 C8 0.930 . S
H1 C11 0.930 . S
H2 C13 0.930 . S
H3 C14 0.970 1_655 S
H4 C14 0.970 . S
H5 C16 0.930 . S
H6 C18 0.930 . S
H7 C20 0.930 . S
C8 H0 0.930 . S
C8 C9 1.382 . S
C8 C10 1.426 . S
C9 C8 1.382 . S
C9 C13 1.389 . S
C10 C8 1.426 . S
C10 C11 1.375 . S
C10 C14 1.532 1_655 S
C11 H1 0.930 . S
C11 C10 1.375 . S
C11 C12 1.416 . S
C12 C11 1.416 . S
C12 C13 1.371 . S
C13 H2 0.930 . S
C13 C9 1.389 . S
C13 C12 1.371 . S
C14 H3 0.970 1_455 S
C14 H4 0.970 . S
C14 C10 1.532 1_455 S
C14 C15 1.499 . S
C15 C14 1.499 . S
C15 C16 1.370 . S
C15 C20 1.415 . S
C16 H5 0.930 . S
C16 C15 1.370 . S
C16 C17 1.407 . S
C17 C16 1.407 . S
C17 C18 1.365 . S
C18 H6 0.930 . S
C18 C17 1.365 . S
C18 C19 1.393 . S
C19 C18 1.393 . S
C19 C20 1.387 . S
C20 H7 0.930 . S
C20 C15 1.415 . S
C20 C19 1.387 . S
H21 C29 0.930 . S
H22 C32 0.930 . S
H23 C34 0.930 . S
H24 C35 0.970 . S
H25 C35 0.970 . S
H26 C37 0.930 . S
H27 C39 0.930 . S
H28 C41 0.930 . S
C29 H21 0.930 . S
C29 C30 1.382 . S
C29 C31 1.426 . S
C30 C29 1.382 . S
C30 C34 1.389 . S
C31 C29 1.426 . S
C31 C32 1.375 . S
C31 C35 1.532 1_565 S
C32 H22 0.930 . S
C32 C31 1.375 . S
C32 C33 1.416 . S
C33 C32 1.416 . S
C33 C34 1.371 . S
C34 H23 0.930 . S
C34 C30 1.389 . S
C34 C33 1.371 . S
C35 H24 0.970 . S
C35 H25 0.970 . S
C35 C31 1.532 1_545 S
C35 C36 1.499 . S
C36 C35 1.499 . S
C36 C37 1.370 . S
C36 C41 1.415 . S
C37 H26 0.930 . S
C37 C36 1.370 . S
C37 C38 1.407 . S
C38 C37 1.407 . S
C38 C39 1.365 . S
C39 H27 0.930 . S
C39 C38 1.365 . S
C39 C40 1.393 . S
C40 C39 1.393 . S
C40 C41 1.387 . S
C41 H28 0.930 . S
C41 C36 1.415 . S
C41 C40 1.387 . S
H42 C50 0.930 . S
H43 C53 0.930 . S
H44 C55 0.930 . S
H45 C56 0.970 . S
H46 C56 0.970 . S
H47 C58 0.930 . S
H48 C60 0.930 . S
H49 C62 0.930 . S
C50 H42 0.930 . S
C50 C51 1.382 . S
C50 C52 1.426 . S
C51 C50 1.382 . S
C51 C55 1.389 . S
C52 C50 1.426 . S
C52 C53 1.375 . S
C52 C56 1.532 . S
C53 H43 0.930 . S
C53 C52 1.375 . S
C53 C54 1.416 . S
C54 C53 1.416 . S
C54 C55 1.371 . S
C55 H44 0.930 . S
C55 C51 1.389 . S
C55 C54 1.371 . S
C56 H45 0.970 . S
C56 H46 0.970 . S
C56 C52 1.532 . S
C56 C57 1.499 . S
C57 C56 1.499 . S
C57 C58 1.370 . S
C57 C62 1.415 . S
C58 H47 0.930 . S
C58 C57 1.370 . S
C58 C59 1.407 . S
C59 C58 1.407 . S
C59 C60 1.365 . S
C60 H48 0.930 . S
C60 C59 1.365 . S
C60 C61 1.393 . S
C61 C60 1.393 . S
C61 C62 1.387 . S
C62 H49 0.930 . S
C62 C57 1.415 . S
C62 C61 1.387 . S
H63 C71 0.930 . S
H64 C74 0.930 . S
H65 C76 0.930 . S
H66 C77 0.970 . S
H67 C77 0.970 . S
H68 C79 0.930 . S
H69 C81 0.930 . S
H70 C83 0.930 . S
C71 H63 0.930 . S
C71 C72 1.382 . S
C71 C73 1.426 . S
C72 C71 1.382 . S
C72 C76 1.389 . S
C73 C71 1.426 . S
C73 C74 1.375 . S
C73 C77 1.532 1_655 S
C74 H64 0.930 . S
C74 C73 1.375 . S
C74 C75 1.416 . S
C75 C74 1.416 . S
C75 C76 1.371 . S
C76 H65 0.930 . S
C76 C72 1.389 . S
C76 C75 1.371 . S
C77 H66 0.970 . S
C77 H67 0.970 . S
C77 C73 1.532 1_455 S
C77 C78 1.499 . S
C78 C77 1.499 . S
C78 C79 1.370 . S
C78 C83 1.415 . S
C79 H68 0.930 . S
C79 C78 1.370 . S
C79 C80 1.407 . S
C80 C79 1.407 . S
C80 C81 1.365 . S
C81 H69 0.930 . S
C81 C80 1.365 . S
C81 C82 1.393 . S
C82 C81 1.393 . S
C82 C83 1.387 . S
C83 H70 0.930 . S
C83 C78 1.415 . S
C83 C82 1.387 . S
H84 C92 0.930 . S
H85 C95 0.930 . S
H86 C97 0.930 . S
H87 C98 0.970 1_554 S
H88 C98 0.970 . S
H89 C100 0.930 . S
H90 C102 0.930 . S
H91 C104 0.930 . S
C92 H84 0.930 . S
C92 C93 1.382 1_554 S
C92 C94 1.426 1_554 S
C93 C92 1.382 1_556 S
C93 C97 1.389 . S
C94 C92 1.426 1_556 S
C94 C95 1.375 . S
C94 C98 1.532 . S
C95 H85 0.930 . S
C95 C94 1.375 . S
C95 C96 1.416 . S
C96 C95 1.416 . S
C96 C97 1.371 . S
C97 H86 0.930 . S
C97 C93 1.389 . S
C97 C96 1.371 . S
C98 H87 0.970 1_556 S
C98 H88 0.970 . S
C98 C94 1.532 . S
C98 C99 1.499 1_545 S
C99 C98 1.499 1_565 S
C99 C100 1.370 1_556 S
C99 C104 1.415 . S
C100 H89 0.930 . S
C100 C99 1.370 1_554 S
C100 C101 1.407 . S
C101 C100 1.407 . S
C101 C102 1.365 . S
C102 H90 0.930 . S
C102 C101 1.365 . S
C102 C103 1.393 1_554 S
C103 C102 1.393 1_556 S
C103 C104 1.387 . S
C104 H91 0.930 . S
C104 C99 1.415 . S
C104 C103 1.387 . S
H105 C113 0.930 . S
H106 C116 0.930 . S
H107 C118 0.930 . S
H108 C119 0.970 . S
H109 C119 0.970 . S
H110 C121 0.930 . S
H111 C123 0.930 . S
H112 C125 0.930 . S
C113 H105 0.930 . S
C113 C114 1.382 . S
C113 C115 1.426 . S
C114 C113 1.382 . S
C114 C118 1.389 . S
C115 C113 1.426 . S
C115 C116 1.375 . S
C115 C119 1.532 . S
C116 H106 0.930 . S
C116 C115 1.375 . S
C116 C117 1.416 . S
C117 C116 1.416 . S
C117 C118 1.371 . S
C118 H107 0.930 . S
C118 C114 1.389 . S
C118 C117 1.371 . S
C119 H108 0.970 . S
C119 H109 0.970 . S
C119 C115 1.532 . S
C119 C120 1.499 . S
C120 C119 1.499 . S
C120 C121 1.370 . S
C120 C125 1.415 . S
C121 H110 0.930 . S
C121 C120 1.370 . S
C121 C122 1.407 . S
C122 C121 1.407 . S
C122 C123 1.365 . S
C123 H111 0.930 . S
C123 C122 1.365 . S
C123 C124 1.393 . S
C124 C123 1.393 . S
C124 C125 1.387 . S
C125 H112 0.930 . S
C125 C120 1.415 . S
C125 C124 1.387 . S
Mn126 O131 2.095 . S
Mn126 O141 2.162 . S
Mn126 O142 2.297 . S
Mn126 O150 2.385 . S
Mn126 O151 2.209 . S
Mn126 O152 2.094 . S
Mn127 O132 2.121 . S
Mn127 N134 2.257 . S
Mn127 N143 2.282 . S
Mn127 O151 2.215 . S
Mn127 O153 2.117 . S
C128 O150 1.234 . S
C128 O151 1.283 . S
C129 O141 1.281 . S
C129 O142 1.236 . S
C130 O152 1.240 . S
C130 O153 1.264 . S
O131 Mn126 2.095 . S
O131 C140 1.250 . S
O132 Mn127 2.121 . S
O132 C140 1.258 . S
C133 N134 1.326 . S
C133 C137 1.460 . S
C133 H139 0.929 . S
N134 Mn127 2.257 . S
N134 C133 1.326 . S
N134 C138 1.362 . S
C135 C136 1.258 . S
C135 C138 1.431 . S
C135 C155 1.449 . S
C136 C135 1.258 . S
C136 C137 1.477 . S
C136 H156 0.931 . S
C137 C133 1.460 . S
C137 C136 1.477 . S
C137 H157 0.930 . S
C138 N134 1.362 . S
C138 C135 1.431 . S
C138 C148 1.476 . S
H139 C133 0.929 . S
C140 O131 1.250 . S
C140 O132 1.258 . S
O141 Mn126 2.162 . S
O141 C129 1.281 . S
O142 Mn126 2.297 . S
O142 C129 1.236 . S
N143 Mn127 2.282 . S
N143 C144 1.328 . S
N143 C148 1.318 . S
C144 N143 1.328 . S
C144 C145 1.457 . S
C144 H149 0.929 . S
C145 C144 1.457 . S
C145 C146 1.291 . S
C145 H158 0.931 . S
C146 C145 1.291 . S
C146 C147 1.373 . S
C146 H159 0.929 . S
C147 C146 1.373 . S
C147 C148 1.396 . S
C147 C154 1.403 . S
C148 C138 1.476 . S
C148 N143 1.318 . S
C148 C147 1.396 . S
H149 C144 0.929 . S
O150 Mn126 2.385 . S
O150 C128 1.234 . S
O151 Mn126 2.209 . S
O151 Mn127 2.215 . S
O151 C128 1.283 . S
O152 Mn126 2.094 . S
O152 C130 1.240 . S
O153 Mn127 2.117 . S
O153 C130 1.264 . S
C154 C147 1.403 . S
C154 C155 1.399 . S
C154 H160 0.929 . S
C155 C135 1.449 . S
C155 C154 1.399 . S
C155 H161 0.930 . S
H156 C136 0.931 . S
H157 C137 0.930 . S
H158 C145 0.931 . S
H159 C146 0.929 . S
H160 C154 0.929 . S
H161 C155 0.930 . S
Mn162 O167 2.095 . S
Mn162 O177 2.162 . S
Mn162 O178 2.297 . S
Mn162 O186 2.385 . S
Mn162 O187 2.209 . S
Mn162 O188 2.094 . S
Mn163 O168 2.121 . S
Mn163 N170 2.257 . S
Mn163 N179 2.282 . S
Mn163 O187 2.215 . S
Mn163 O189 2.117 . S
C164 O186 1.234 . S
C164 O187 1.283 . S
C165 O177 1.281 . S
C165 O178 1.236 . S
C166 O188 1.240 . S
C166 O189 1.264 . S
O167 Mn162 2.095 . S
O167 C176 1.250 . S
O168 Mn163 2.121 . S
O168 C176 1.258 . S
C169 N170 1.326 . S
C169 C173 1.460 . S
C169 H175 0.929 . S
N170 Mn163 2.257 . S
N170 C169 1.326 . S
N170 C174 1.362 . S
C171 C172 1.258 . S
C171 C174 1.431 . S
C171 C191 1.449 . S
C172 C171 1.258 . S
C172 C173 1.477 . S
C172 H192 0.931 . S
C173 C169 1.460 . S
C173 C172 1.477 . S
C173 H193 0.930 . S
C174 N170 1.362 . S
C174 C171 1.431 . S
C174 C184 1.476 . S
H175 C169 0.929 . S
C176 O167 1.250 . S
C176 O168 1.258 . S
O177 Mn162 2.162 . S
O177 C165 1.281 . S
O178 Mn162 2.297 . S
O178 C165 1.236 . S
N179 Mn163 2.282 . S
N179 C180 1.328 . S
N179 C184 1.318 . S
C180 N179 1.328 . S
C180 C181 1.457 . S
C180 H185 0.929 . S
C181 C180 1.457 . S
C181 C182 1.291 . S
C181 H194 0.931 . S
C182 C181 1.291 . S
C182 C183 1.373 . S
C182 H195 0.929 . S
C183 C182 1.373 . S
C183 C184 1.396 . S
C183 C190 1.403 . S
C184 C174 1.476 . S
C184 N179 1.318 . S
C184 C183 1.396 . S
H185 C180 0.929 . S
O186 Mn162 2.385 . S
O186 C164 1.234 . S
O187 Mn162 2.209 . S
O187 Mn163 2.215 . S
O187 C164 1.283 . S
O188 Mn162 2.094 . S
O188 C166 1.240 . S
O189 Mn163 2.117 . S
O189 C166 1.264 . S
C190 C183 1.403 . S
C190 C191 1.399 . S
C190 H196 0.929 . S
C191 C171 1.449 . S
C191 C190 1.399 . S
C191 H197 0.930 . S
H192 C172 0.931 . S
H193 C173 0.930 . S
H194 C181 0.931 . S
H195 C182 0.929 . S
H196 C190 0.929 . S
H197 C191 0.930 . S
Mn198 O203 2.095 . S
Mn198 O213 2.162 . S
Mn198 O214 2.297 . S
Mn198 O222 2.385 . S
Mn198 O223 2.209 . S
Mn198 O224 2.094 . S
Mn199 O204 2.121 . S
Mn199 N206 2.257 . S
Mn199 N215 2.282 . S
Mn199 O223 2.215 . S
Mn199 O225 2.117 . S
C200 O222 1.234 . S
C200 O223 1.283 . S
C201 O213 1.281 . S
C201 O214 1.236 . S
C202 O224 1.240 . S
C202 O225 1.264 . S
O203 Mn198 2.095 . S
O203 C212 1.250 . S
O204 Mn199 2.121 . S
O204 C212 1.258 . S
C205 N206 1.326 . S
C205 C209 1.460 . S
C205 H211 0.929 . S
N206 Mn199 2.257 . S
N206 C205 1.326 . S
N206 C210 1.362 . S
C207 C208 1.258 . S
C207 C210 1.431 . S
C207 C227 1.449 . S
C208 C207 1.258 . S
C208 C209 1.477 . S
C208 H228 0.931 . S
C209 C205 1.460 . S
C209 C208 1.477 . S
C209 H229 0.930 . S
C210 N206 1.362 . S
C210 C207 1.431 . S
C210 C220 1.476 . S
H211 C205 0.929 . S
C212 O203 1.250 . S
C212 O204 1.258 . S
O213 Mn198 2.162 . S
O213 C201 1.281 . S
O214 Mn198 2.297 . S
O214 C201 1.236 . S
N215 Mn199 2.282 . S
N215 C216 1.328 . S
N215 C220 1.318 . S
C216 N215 1.328 . S
C216 C217 1.457 . S
C216 H221 0.929 . S
C217 C216 1.457 . S
C217 C218 1.291 . S
C217 H230 0.931 . S
C218 C217 1.291 . S
C218 C219 1.373 . S
C218 H231 0.929 . S
C219 C218 1.373 . S
C219 C220 1.396 . S
C219 C226 1.403 . S
C220 C210 1.476 . S
C220 N215 1.318 . S
C220 C219 1.396 . S
H221 C216 0.929 . S
O222 Mn198 2.385 . S
O222 C200 1.234 . S
O223 Mn198 2.209 . S
O223 Mn199 2.215 . S
O223 C200 1.283 . S
O224 Mn198 2.094 . S
O224 C202 1.240 . S
O225 Mn199 2.117 . S
O225 C202 1.264 . S
C226 C219 1.403 . S
C226 C227 1.399 . S
C226 H232 0.929 . S
C227 C207 1.449 . S
C227 C226 1.399 . S
C227 H233 0.930 . S
H228 C208 0.931 . S
H229 C209 0.930 . S
H230 C217 0.931 . S
H231 C218 0.929 . S
H232 C226 0.929 . S
H233 C227 0.930 . S
Mn234 O239 2.095 . S
Mn234 O249 2.162 . S
Mn234 O250 2.297 . S
Mn234 O258 2.385 . S
Mn234 O259 2.209 . S
Mn234 O260 2.094 . S
Mn235 O240 2.121 . S
Mn235 N242 2.257 . S
Mn235 N251 2.282 . S
Mn235 O259 2.215 . S
Mn235 O261 2.117 . S
C236 O258 1.234 . S
C236 O259 1.283 . S
C237 O249 1.281 . S
C237 O250 1.236 . S
C238 O260 1.240 . S
C238 O261 1.264 . S
O239 Mn234 2.095 . S
O239 C248 1.250 . S
O240 Mn235 2.121 . S
O240 C248 1.258 . S
C241 N242 1.326 . S
C241 C245 1.460 . S
C241 H247 0.929 . S
N242 Mn235 2.257 . S
N242 C241 1.326 . S
N242 C246 1.362 . S
C243 C244 1.258 . S
C243 C246 1.431 . S
C243 C263 1.449 . S
C244 C243 1.258 . S
C244 C245 1.477 . S
C244 H264 0.931 1_556 S
C245 C241 1.460 . S
C245 C244 1.477 . S
C245 H265 0.930 . S
C246 N242 1.362 . S
C246 C243 1.431 . S
C246 C256 1.476 . S
H247 C241 0.929 . S
C248 O239 1.250 . S
C248 O240 1.258 . S
O249 Mn234 2.162 . S
O249 C237 1.281 . S
O250 Mn234 2.297 . S
O250 C237 1.236 . S
N251 Mn235 2.282 . S
N251 C252 1.328 . S
N251 C256 1.318 . S
C252 N251 1.328 . S
C252 C253 1.457 . S
C252 H257 0.929 . S
C253 C252 1.457 . S
C253 C254 1.291 . S
C253 H266 0.931 . S
C254 C253 1.291 . S
C254 C255 1.373 . S
C254 H267 0.929 . S
C255 C254 1.373 . S
C255 C256 1.396 . S
C255 C262 1.403 . S
C256 C246 1.476 . S
C256 N251 1.318 . S
C256 C255 1.396 . S
H257 C252 0.929 . S
O258 Mn234 2.385 . S
O258 C236 1.234 . S
O259 Mn234 2.209 . S
O259 Mn235 2.215 . S
O259 C236 1.283 . S
O260 Mn234 2.094 . S
O260 C238 1.240 . S
O261 Mn235 2.117 . S
O261 C238 1.264 . S
C262 C255 1.403 . S
C262 C263 1.399 . S
C262 H268 0.929 . S
C263 C243 1.449 . S
C263 C262 1.399 . S
C263 H269 0.930 1_556 S
H264 C244 0.931 1_554 S
H265 C245 0.930 . S
H266 C253 0.931 . S
H267 C254 0.929 . S
H268 C262 0.929 . S
H269 C263 0.930 1_554 S
Mn270 O275 2.095 . S
Mn270 O285 2.162 . S
Mn270 O286 2.297 . S
Mn270 O294 2.385 . S
Mn270 O295 2.209 . S
Mn270 O296 2.094 . S
Mn271 O276 2.121 . S
Mn271 N278 2.257 . S
Mn271 N287 2.282 . S
Mn271 O295 2.215 . S
Mn271 O297 2.117 . S
C272 O294 1.234 . S
C272 O295 1.283 . S
C273 O285 1.281 . S
C273 O286 1.236 . S
C274 O296 1.240 . S
C274 O297 1.264 . S
O275 Mn270 2.095 . S
O275 C284 1.250 . S
O276 Mn271 2.121 . S
O276 C284 1.258 . S
C277 N278 1.326 . S
C277 C281 1.460 . S
C277 H283 0.929 . S
N278 Mn271 2.257 . S
N278 C277 1.326 . S
N278 C282 1.362 . S
C279 C280 1.258 . S
C279 C282 1.431 . S
C279 C299 1.449 . S
C280 C279 1.258 . S
C280 C281 1.477 . S
C280 H300 0.931 . S
C281 C277 1.460 . S
C281 C280 1.477 . S
C281 H301 0.930 . S
C282 N278 1.362 . S
C282 C279 1.431 . S
C282 C292 1.476 . S
H283 C277 0.929 . S
C284 O275 1.250 . S
C284 O276 1.258 . S
O285 Mn270 2.162 . S
O285 C273 1.281 . S
O286 Mn270 2.297 . S
O286 C273 1.236 . S
N287 Mn271 2.282 . S
N287 C288 1.328 . S
N287 C292 1.318 . S
C288 N287 1.328 . S
C288 C289 1.457 . S
C288 H293 0.929 . S
C289 C288 1.457 . S
C289 C290 1.291 . S
C289 H302 0.931 . S
C290 C289 1.291 . S
C290 C291 1.373 . S
C290 H303 0.929 . S
C291 C290 1.373 . S
C291 C292 1.396 . S
C291 C298 1.403 . S
C292 C282 1.476 . S
C292 N287 1.318 . S
C292 C291 1.396 . S
H293 C288 0.929 . S
O294 Mn270 2.385 . S
O294 C272 1.234 . S
O295 Mn270 2.209 . S
O295 Mn271 2.215 . S
O295 C272 1.283 . S
O296 Mn270 2.094 . S
O296 C274 1.240 . S
O297 Mn271 2.117 . S
O297 C274 1.264 . S
C298 C291 1.403 . S
C298 C299 1.399 . S
C298 H304 0.929 . S
C299 C279 1.449 . S
C299 C298 1.399 . S
C299 H305 0.930 . S
H300 C280 0.931 . S
H301 C281 0.930 . S
H302 C289 0.931 . S
H303 C290 0.929 . S
H304 C298 0.929 . S
H305 C299 0.930 . S
Mn306 O311 2.095 . S
Mn306 O321 2.162 . S
Mn306 O322 2.297 . S
Mn306 O330 2.385 . S
Mn306 O331 2.209 . S
Mn306 O332 2.094 . S
Mn307 O312 2.121 . S
Mn307 N314 2.257 . S
Mn307 N323 2.282 . S
Mn307 O331 2.215 . S
Mn307 O333 2.117 . S
C308 O330 1.234 . S
C308 O331 1.283 . S
C309 O321 1.281 . S
C309 O322 1.236 . S
C310 O332 1.240 . S
C310 O333 1.264 . S
O311 Mn306 2.095 . S
O311 C320 1.250 . S
O312 Mn307 2.121 . S
O312 C320 1.258 . S
C313 N314 1.326 . S
C313 C317 1.460 . S
C313 H319 0.929 . S
N314 Mn307 2.257 . S
N314 C313 1.326 . S
N314 C318 1.362 . S
C315 C316 1.258 . S
C315 C318 1.431 . S
C315 C335 1.449 . S
C316 C315 1.258 . S
C316 C317 1.477 . S
C316 H336 0.931 . S
C317 C313 1.460 . S
C317 C316 1.477 . S
C317 H337 0.930 . S
C318 N314 1.362 . S
C318 C315 1.431 . S
C318 C328 1.476 . S
H319 C313 0.929 . S
C320 O311 1.250 . S
C320 O312 1.258 . S
O321 Mn306 2.162 . S
O321 C309 1.281 . S
O322 Mn306 2.297 . S
O322 C309 1.236 . S
N323 Mn307 2.282 . S
N323 C324 1.328 . S
N323 C328 1.318 . S
C324 N323 1.328 . S
C324 C325 1.457 . S
C324 H329 0.929 . S
C325 C324 1.457 . S
C325 C326 1.291 . S
C325 H338 0.931 . S
C326 C325 1.291 . S
C326 C327 1.373 . S
C326 H339 0.929 . S
C327 C326 1.373 . S
C327 C328 1.396 . S
C327 C334 1.403 . S
C328 C318 1.476 . S
C328 N323 1.318 . S
C328 C327 1.396 . S
H329 C324 0.929 . S
O330 Mn306 2.385 . S
O330 C308 1.234 . S
O331 Mn306 2.209 . S
O331 Mn307 2.215 . S
O331 C308 1.283 . S
O332 Mn306 2.094 . S
O332 C310 1.240 . S
O333 Mn307 2.117 . S
O333 C310 1.264 . S
C334 C327 1.403 . S
C334 C335 1.399 . S
C334 H340 0.929 . S
C335 C315 1.449 . S
C335 C334 1.399 . S
C335 H341 0.930 . S
H336 C316 0.931 . S
H337 C317 0.930 . S
H338 C325 0.931 . S
H339 C326 0.929 . S
H340 C334 0.929 . S
H341 C335 0.930 . S
H342 C354 0.930 . S
H343 C356 0.930 . S
H344 C357 0.930 . S
H345 C361 0.959 . S
H346 C361 0.959 . S
H347 C361 0.961 . S
H348 C362 0.960 . S
H349 C362 0.961 . S
H350 C362 0.959 . S
H351 C365 0.929 . S
H352 C366 0.931 . S
H353 C368 0.930 . S
C354 H342 0.930 . S
C354 C355 1.399 . S
C354 C359 1.399 . S
C355 C354 1.399 . S
C355 C356 1.376 . S
C356 H343 0.930 . S
C356 C355 1.376 . S
C356 C357 1.388 . S
C357 H344 0.930 . S
C357 C356 1.388 . S
C357 C358 1.390 . S
C358 C357 1.390 . S
C358 C359 1.394 . S
C358 C364 1.465 . S
C359 C354 1.399 . S
C359 C358 1.394 . S
C359 C360 1.516 . S
C360 C359 1.516 . S
C360 C361 1.502 . S
C360 C362 1.561 . S
C360 C363 1.526 . S
C361 H345 0.959 . S
C361 H346 0.959 . S
C361 H347 0.961 . S
C361 C360 1.502 . S
C362 H348 0.960 . S
C362 H349 0.961 . S
C362 H350 0.959 . S
C362 C360 1.561 . S
C363 C360 1.526 . S
C363 C364 1.396 . S
C363 C368 1.390 . S
C364 C358 1.465 . S
C364 C363 1.396 . S
C364 C365 1.399 . S
C365 H351 0.929 . S
C365 C364 1.399 . S
C365 C366 1.385 . S
C366 H352 0.931 . S
C366 C365 1.385 . S
C366 C367 1.389 . S
C367 C366 1.389 . S
C367 C368 1.387 . S
C368 H353 0.930 . S
C368 C363 1.390 . S
C368 C367 1.387 . S
H369 C381 0.930 . S
H370 C383 0.930 . S
H371 C384 0.930 . S
H372 C388 0.959 . S
H373 C388 0.959 . S
H374 C388 0.961 . S
H375 C389 0.960 . S
H376 C389 0.961 . S
H377 C389 0.959 . S
H378 C392 0.929 . S
H379 C393 0.931 . S
H380 C395 0.930 . S
C381 H369 0.930 . S
C381 C382 1.399 . S
C381 C386 1.399 . S
C382 C381 1.399 . S
C382 C383 1.376 . S
C383 H370 0.930 . S
C383 C382 1.376 . S
C383 C384 1.388 . S
C384 H371 0.930 . S
C384 C383 1.388 . S
C384 C385 1.390 . S
C385 C384 1.390 . S
C385 C386 1.394 . S
C385 C391 1.465 . S
C386 C381 1.399 . S
C386 C385 1.394 . S
C386 C387 1.516 . S
C387 C386 1.516 . S
C387 C388 1.502 . S
C387 C389 1.561 . S
C387 C390 1.526 . S
C388 H372 0.959 . S
C388 H373 0.959 . S
C388 H374 0.961 . S
C388 C387 1.502 . S
C389 H375 0.960 . S
C389 H376 0.961 . S
C389 H377 0.959 . S
C389 C387 1.561 . S
C390 C387 1.526 . S
C390 C391 1.396 . S
C390 C395 1.390 . S
C391 C385 1.465 . S
C391 C390 1.396 . S
C391 C392 1.399 . S
C392 H378 0.929 . S
C392 C391 1.399 . S
C392 C393 1.385 . S
C393 H379 0.931 . S
C393 C392 1.385 . S
C393 C394 1.389 . S
C394 C393 1.389 . S
C394 C395 1.387 . S
C395 H380 0.930 . S
C395 C390 1.390 . S
C395 C394 1.387 . S
H396 C408 0.930 . S
H397 C410 0.930 . S
H398 C411 0.930 . S
H399 C415 0.959 . S
H400 C415 0.959 . S
H401 C415 0.961 . S
H402 C416 0.960 . S
H403 C416 0.961 . S
H404 C416 0.959 . S
H405 C419 0.929 . S
H406 C420 0.931 . S
H407 C422 0.930 . S
C408 H396 0.930 . S
C408 C409 1.399 . S
C408 C413 1.399 . S
C409 C408 1.399 . S
C409 C410 1.376 . S
C410 H397 0.930 . S
C410 C409 1.376 . S
C410 C411 1.388 . S
C411 H398 0.930 . S
C411 C410 1.388 . S
C411 C412 1.390 . S
C412 C411 1.390 . S
C412 C413 1.394 . S
C412 C418 1.465 . S
C413 C408 1.399 . S
C413 C412 1.394 . S
C413 C414 1.516 . S
C414 C413 1.516 . S
C414 C415 1.502 . S
C414 C416 1.561 . S
C414 C417 1.526 . S
C415 H399 0.959 . S
C415 H400 0.959 . S
C415 H401 0.961 . S
C415 C414 1.502 . S
C416 H402 0.960 . S
C416 H403 0.961 . S
C416 H404 0.959 . S
C416 C414 1.561 . S
C417 C414 1.526 . S
C417 C418 1.396 . S
C417 C422 1.390 . S
C418 C412 1.465 . S
C418 C417 1.396 . S
C418 C419 1.399 . S
C419 H405 0.929 . S
C419 C418 1.399 . S
C419 C420 1.385 . S
C420 H406 0.931 . S
C420 C419 1.385 . S
C420 C421 1.389 . S
C421 C420 1.389 . S
C421 C422 1.387 . S
C422 H407 0.930 . S
C422 C417 1.390 . S
C422 C421 1.387 . S
H423 C435 0.930 . S
H424 C437 0.930 . S
H425 C438 0.930 . S
H426 C442 0.959 . S
H427 C442 0.959 . S
H428 C442 0.961 . S
H429 C443 0.960 . S
H430 C443 0.961 . S
H431 C443 0.959 . S
H432 C446 0.929 . S
H433 C447 0.931 . S
H434 C449 0.930 . S
C435 H423 0.930 . S
C435 C436 1.399 . S
C435 C440 1.399 . S
C436 C435 1.399 . S
C436 C437 1.376 . S
C437 H424 0.930 . S
C437 C436 1.376 . S
C437 C438 1.388 . S
C438 H425 0.930 . S
C438 C437 1.388 . S
C438 C439 1.390 . S
C439 C438 1.390 . S
C439 C440 1.394 . S
C439 C445 1.465 . S
C440 C435 1.399 . S
C440 C439 1.394 . S
C440 C441 1.516 . S
C441 C440 1.516 . S
C441 C442 1.502 . S
C441 C443 1.561 . S
C441 C444 1.526 . S
C442 H426 0.959 . S
C442 H427 0.959 . S
C442 H428 0.961 . S
C442 C441 1.502 . S
C443 H429 0.960 . S
C443 H430 0.961 . S
C443 H431 0.959 . S
C443 C441 1.561 . S
C444 C441 1.526 . S
C444 C445 1.396 . S
C444 C449 1.390 . S
C445 C439 1.465 . S
C445 C444 1.396 . S
C445 C446 1.399 . S
C446 H432 0.929 . S
C446 C445 1.399 . S
C446 C447 1.385 . S
C447 H433 0.931 . S
C447 C446 1.385 . S
C447 C448 1.389 . S
C448 C447 1.389 . S
C448 C449 1.387 . S
C449 H434 0.930 . S
C449 C444 1.390 . S
C449 C448 1.387 . S
H450 C462 0.930 . S
H451 C464 0.930 . S
H452 C465 0.930 . S
H453 C469 0.959 . S
H454 C469 0.959 . S
H455 C469 0.961 . S
H456 C470 0.960 . S
H457 C470 0.961 . S
H458 C470 0.959 . S
H459 C473 0.929 . S
H460 C474 0.931 . S
H461 C476 0.930 . S
C462 H450 0.930 . S
C462 C463 1.399 . S
C462 C467 1.399 . S
C463 C462 1.399 . S
C463 C464 1.376 . S
C464 H451 0.930 . S
C464 C463 1.376 . S
C464 C465 1.388 . S
C465 H452 0.930 . S
C465 C464 1.388 . S
C465 C466 1.390 . S
C466 C465 1.390 . S
C466 C467 1.394 . S
C466 C472 1.465 . S
C467 C462 1.399 . S
C467 C466 1.394 . S
C467 C468 1.516 . S
C468 C467 1.516 . S
C468 C469 1.502 . S
C468 C470 1.561 1_556 S
C468 C471 1.526 . S
C469 H453 0.959 . S
C469 H454 0.959 . S
C469 H455 0.961 . S
C469 C468 1.502 . S
C470 H456 0.960 . S
C470 H457 0.961 . S
C470 H458 0.959 . S
C470 C468 1.561 1_554 S
C471 C468 1.526 . S
C471 C472 1.396 . S
C471 C476 1.390 . S
C472 C466 1.465 . S
C472 C471 1.396 . S
C472 C473 1.399 . S
C473 H459 0.929 . S
C473 C472 1.399 . S
C473 C474 1.385 . S
C474 H460 0.931 . S
C474 C473 1.385 . S
C474 C475 1.389 . S
C475 C474 1.389 . S
C475 C476 1.387 . S
C476 H461 0.930 . S
C476 C471 1.390 . S
C476 C475 1.387 . S
H477 C489 0.930 . S
H478 C491 0.930 . S
H479 C492 0.930 . S
H480 C496 0.959 . S
H481 C496 0.959 . S
H482 C496 0.961 . S
H483 C497 0.960 . S
H484 C497 0.961 . S
H485 C497 0.959 . S
H486 C500 0.929 . S
H487 C501 0.931 . S
H488 C503 0.930 . S
C489 H477 0.930 . S
C489 C490 1.399 . S
C489 C494 1.399 . S
C490 C489 1.399 . S
C490 C491 1.376 . S
C491 H478 0.930 . S
C491 C490 1.376 . S
C491 C492 1.388 . S
C492 H479 0.930 . S
C492 C491 1.388 . S
C492 C493 1.390 . S
C493 C492 1.390 . S
C493 C494 1.394 . S
C493 C499 1.465 . S
C494 C489 1.399 . S
C494 C493 1.394 . S
C494 C495 1.516 . S
C495 C494 1.516 . S
C495 C496 1.502 . S
C495 C497 1.561 . S
C495 C498 1.526 . S
C496 H480 0.959 . S
C496 H481 0.959 . S
C496 H482 0.961 . S
C496 C495 1.502 . S
C497 H483 0.960 . S
C497 H484 0.961 . S
C497 H485 0.959 . S
C497 C495 1.561 . S
C498 C495 1.526 . S
C498 C499 1.396 . S
C498 C503 1.390 . S
C499 C493 1.465 . S
C499 C498 1.396 . S
C499 C500 1.399 . S
C500 H486 0.929 . S
C500 C499 1.399 . S
C500 C501 1.385 . S
C501 H487 0.931 . S
C501 C500 1.385 . S
C501 C502 1.389 . S
C502 C501 1.389 . S
C502 C503 1.387 . S
C503 H488 0.930 . S
C503 C498 1.390 . S
C503 C502 1.387 . S
H504 C516 0.930 . S
H505 C518 0.930 . S
H506 C519 0.930 . S
H507 C523 0.959 . S
H508 C523 0.959 . S
H509 C523 0.961 . S
H510 C524 0.960 . S
H511 C524 0.961 . S
H512 C524 0.959 . S
H513 C527 0.929 . S
H514 C528 0.931 . S
H515 C530 0.930 . S
C516 H504 0.930 . S
C516 C517 1.399 . S
C516 C521 1.399 . S
C517 C516 1.399 . S
C517 C518 1.376 . S
C518 H505 0.930 . S
C518 C517 1.376 . S
C518 C519 1.388 . S
C519 H506 0.930 . S
C519 C518 1.388 . S
C519 C520 1.390 . S
C520 C519 1.390 . S
C520 C521 1.394 . S
C520 C526 1.465 . S
C521 C516 1.399 . S
C521 C520 1.394 . S
C521 C522 1.516 . S
C522 C521 1.516 . S
C522 C523 1.502 . S
C522 C524 1.561 . S
C522 C525 1.526 . S
C523 H507 0.959 . S
C523 H508 0.959 . S
C523 H509 0.961 . S
C523 C522 1.502 . S
C524 H510 0.960 . S
C524 H511 0.961 . S
C524 H512 0.959 . S
C524 C522 1.561 . S
C525 C522 1.526 . S
C525 C526 1.396 . S
C525 C530 1.390 . S
C526 C520 1.465 . S
C526 C525 1.396 . S
C526 C527 1.399 . S
C527 H513 0.929 . S
C527 C526 1.399 . S
C527 C528 1.385 . S
C528 H514 0.931 . S
C528 C527 1.385 . S
C528 C529 1.389 . S
C529 C528 1.389 . S
C529 C530 1.387 . S
C530 H515 0.930 . S
C530 C525 1.390 . S
C530 C529 1.387 . S
H531 C543 0.930 . S
H532 C545 0.930 . S
H533 C546 0.930 . S
H534 C550 0.959 . S
H535 C550 0.959 . S
H536 C550 0.961 . S
H537 C551 0.960 . S
H538 C551 0.961 . S
H539 C551 0.959 . S
H540 C554 0.929 . S
H541 C555 0.931 . S
H542 C557 0.930 . S
C543 H531 0.930 . S
C543 C544 1.399 . S
C543 C548 1.399 . S
C544 C543 1.399 . S
C544 C545 1.376 . S
C545 H532 0.930 . S
C545 C544 1.376 . S
C545 C546 1.388 . S
C546 H533 0.930 . S
C546 C545 1.388 . S
C546 C547 1.390 . S
C547 C546 1.390 . S
C547 C548 1.394 . S
C547 C553 1.465 . S
C548 C543 1.399 . S
C548 C547 1.394 . S
C548 C549 1.516 . S
C549 C548 1.516 . S
C549 C550 1.502 . S
C549 C551 1.561 . S
C549 C552 1.526 . S
C550 H534 0.959 . S
C550 H535 0.959 . S
C550 H536 0.961 . S
C550 C549 1.502 . S
C551 H537 0.960 . S
C551 H538 0.961 . S
C551 H539 0.959 . S
C551 C549 1.561 . S
C552 C549 1.526 . S
C552 C553 1.396 . S
C552 C557 1.390 . S
C553 C547 1.465 . S
C553 C552 1.396 . S
C553 C554 1.399 . S
C554 H540 0.929 . S
C554 C553 1.399 . S
C554 C555 1.385 . S
C555 H541 0.931 . S
C555 C554 1.385 . S
C555 C556 1.389 . S
C556 C555 1.389 . S
C556 C557 1.387 . S
C557 H542 0.930 . S
C557 C552 1.390 . S
C557 C556 1.387 . S
H558 C570 0.930 . S
H559 C572 0.930 . S
H560 C573 0.930 . S
H561 C577 0.959 . S
H562 C577 0.959 . S
H563 C577 0.961 . S
H564 C578 0.960 . S
H565 C578 0.961 . S
H566 C578 0.959 . S
H567 C581 0.929 . S
H568 C582 0.931 . S
H569 C584 0.930 . S
C570 H558 0.930 . S
C570 C571 1.399 . S
C570 C575 1.399 . S
C571 C570 1.399 . S
C571 C572 1.376 . S
C572 H559 0.930 . S
C572 C571 1.376 . S
C572 C573 1.388 . S
C573 H560 0.930 . S
C573 C572 1.388 . S
C573 C574 1.390 . S
C574 C573 1.390 . S
C574 C575 1.394 . S
C574 C580 1.465 . S
C575 C570 1.399 . S
C575 C574 1.394 . S
C575 C576 1.516 . S
C576 C575 1.516 . S
C576 C577 1.502 . S
C576 C578 1.561 . S
C576 C579 1.526 . S
C577 H561 0.959 . S
C577 H562 0.959 . S
C577 H563 0.961 . S
C577 C576 1.502 . S
C578 H564 0.960 . S
C578 H565 0.961 . S
C578 H566 0.959 . S
C578 C576 1.561 . S
C579 C576 1.526 . S
C579 C580 1.396 . S
C579 C584 1.390 . S
C580 C574 1.465 . S
C580 C579 1.396 . S
C580 C581 1.399 . S
C581 H567 0.929 . S
C581 C580 1.399 . S
C581 C582 1.385 . S
C582 H568 0.931 . S
C582 C581 1.385 . S
C582 C583 1.389 . S
C583 C582 1.389 . S
C583 C584 1.387 . S
C584 H569 0.930 . S
C584 C579 1.390 . S
C584 C583 1.387 . S
H585 C597 0.930 . S
H586 C599 0.930 . S
H587 C600 0.930 . S
H588 C604 0.959 . S
H589 C604 0.959 . S
H590 C604 0.961 . S
H591 C605 0.960 . S
H592 C605 0.961 . S
H593 C605 0.959 . S
H594 C608 0.929 1_556 S
H595 C609 0.931 . S
H596 C611 0.930 . S
C597 H585 0.930 . S
C597 C598 1.399 . S
C597 C602 1.399 . S
C598 C597 1.399 . S
C598 C599 1.376 1_554 S
C599 H586 0.930 . S
C599 C598 1.376 1_556 S
C599 C600 1.388 . S
C600 H587 0.930 . S
C600 C599 1.388 . S
C600 C601 1.390 1_556 S
C601 C600 1.390 1_554 S
C601 C602 1.394 . S
C601 C607 1.465 . S
C602 C597 1.399 . S
C602 C601 1.394 . S
C602 C603 1.516 . S
C603 C602 1.516 . S
C603 C604 1.502 . S
C603 C605 1.561 . S
C603 C606 1.526 . S
C604 H588 0.959 . S
C604 H589 0.959 . S
C604 H590 0.961 . S
C604 C603 1.502 . S
C605 H591 0.960 . S
C605 H592 0.961 . S
C605 H593 0.959 . S
C605 C603 1.561 . S
C606 C603 1.526 . S
C606 C607 1.396 . S
C606 C611 1.390 . S
C607 C601 1.465 . S
C607 C606 1.396 . S
C607 C608 1.399 . S
C608 H594 0.929 1_554 S
C608 C607 1.399 . S
C608 C609 1.385 . S
C609 H595 0.931 . S
C609 C608 1.385 . S
C609 C610 1.389 . S
C610 C609 1.389 . S
C610 C611 1.387 . S
C611 H596 0.930 . S
C611 C606 1.390 . S
C611 C610 1.387 . S
H612 C624 0.930 . S
H613 C626 0.930 . S
H614 C627 0.930 . S
H615 C631 0.959 . S
H616 C631 0.959 . S
H617 C631 0.961 . S
H618 C632 0.960 . S
H619 C632 0.961 . S
H620 C632 0.959 . S
H621 C635 0.929 . S
H622 C636 0.931 . S
H623 C638 0.930 . S
C624 H612 0.930 . S
C624 C625 1.399 . S
C624 C629 1.399 . S
C625 C624 1.399 . S
C625 C626 1.376 . S
C626 H613 0.930 . S
C626 C625 1.376 . S
C626 C627 1.388 . S
C627 H614 0.930 . S
C627 C626 1.388 . S
C627 C628 1.390 . S
C628 C627 1.390 . S
C628 C629 1.394 . S
C628 C634 1.465 . S
C629 C624 1.399 . S
C629 C628 1.394 . S
C629 C630 1.516 . S
C630 C629 1.516 . S
C630 C631 1.502 . S
C630 C632 1.561 . S
C630 C633 1.526 . S
C631 H615 0.959 . S
C631 H616 0.959 . S
C631 H617 0.961 . S
C631 C630 1.502 . S
C632 H618 0.960 . S
C632 H619 0.961 . S
C632 H620 0.959 . S
C632 C630 1.561 . S
C633 C630 1.526 . S
C633 C634 1.396 . S
C633 C638 1.390 . S
C634 C628 1.465 . S
C634 C633 1.396 . S
C634 C635 1.399 . S
C635 H621 0.929 . S
C635 C634 1.399 . S
C635 C636 1.385 . S
C636 H622 0.931 . S
C636 C635 1.385 . S
C636 C637 1.389 . S
C637 C636 1.389 . S
C637 C638 1.387 . S
C638 H623 0.930 . S
C638 C633 1.390 . S
C638 C637 1.387 . S
H639 C651 0.930 . S
H640 C653 0.930 . S
H641 C654 0.930 . S
H642 C658 0.959 . S
H643 C658 0.959 . S
H644 C658 0.961 . S
H645 C659 0.960 . S
H646 C659 0.961 . S
H647 C659 0.959 . S
H648 C662 0.929 . S
H649 C663 0.931 . S
H650 C665 0.930 . S
C651 H639 0.930 . S
C651 C652 1.399 . S
C651 C656 1.399 . S
C652 C651 1.399 . S
C652 C653 1.376 . S
C653 H640 0.930 . S
C653 C652 1.376 . S
C653 C654 1.388 . S
C654 H641 0.930 . S
C654 C653 1.388 . S
C654 C655 1.390 . S
C655 C654 1.390 . S
C655 C656 1.394 . S
C655 C661 1.465 . S
C656 C651 1.399 . S
C656 C655 1.394 . S
C656 C657 1.516 . S
C657 C656 1.516 . S
C657 C658 1.502 . S
C657 C659 1.561 . S
C657 C660 1.526 . S
C658 H642 0.959 . S
C658 H643 0.959 . S
C658 H644 0.961 . S
C658 C657 1.502 . S
C659 H645 0.960 . S
C659 H646 0.961 . S
C659 H647 0.959 . S
C659 C657 1.561 . S
C660 C657 1.526 . S
C660 C661 1.396 . S
C660 C665 1.390 . S
C661 C655 1.465 . S
C661 C660 1.396 . S
C661 C662 1.399 . S
C662 H648 0.929 . S
C662 C661 1.399 . S
C662 C663 1.385 . S
C663 H649 0.931 . S
C663 C662 1.385 . S
C663 C664 1.389 . S
C664 C663 1.389 . S
C664 C665 1.387 . S
C665 H650 0.930 . S
C665 C660 1.390 . S
C665 C664 1.387 . S
H666 C678 0.930 . S
H667 C680 0.930 . S
H668 C681 0.930 . S
H669 C685 0.959 . S
H670 C685 0.959 . S
H671 C685 0.961 . S
H672 C686 0.960 . S
H673 C686 0.961 . S
H674 C686 0.959 . S
H675 C689 0.929 . S
H676 C690 0.931 . S
H677 C692 0.930 . S
C678 H666 0.930 . S
C678 C679 1.399 . S
C678 C683 1.399 . S
C679 C678 1.399 . S
C679 C680 1.376 . S
C680 H667 0.930 . S
C680 C679 1.376 . S
C680 C681 1.388 . S
C681 H668 0.930 . S
C681 C680 1.388 . S
C681 C682 1.390 . S
C682 C681 1.390 . S
C682 C683 1.394 . S
C682 C688 1.465 . S
C683 C678 1.399 . S
C683 C682 1.394 . S
C683 C684 1.516 . S
C684 C683 1.516 . S
C684 C685 1.502 . S
C684 C686 1.561 . S
C684 C687 1.526 . S
C685 H669 0.959 . S
C685 H670 0.959 . S
C685 H671 0.961 . S
C685 C684 1.502 . S
C686 H672 0.960 . S
C686 H673 0.961 . S
C686 H674 0.959 . S
C686 C684 1.561 . S
C687 C684 1.526 . S
C687 C688 1.396 . S
C687 C692 1.390 . S
C688 C682 1.465 . S
C688 C687 1.396 . S
C688 C689 1.399 . S
C689 H675 0.929 . S
C689 C688 1.399 . S
C689 C690 1.385 . S
C690 H676 0.931 . S
C690 C689 1.385 . S
C690 C691 1.389 . S
C691 C690 1.389 . S
C691 C692 1.387 . S
C692 H677 0.930 . S
C692 C687 1.390 . S
C692 C691 1.387 . S
H693 C705 0.930 . S
H694 C707 0.930 . S
H695 C708 0.930 . S
H696 C712 0.959 . S
H697 C712 0.959 . S
H698 C712 0.961 . S
H699 C713 0.960 . S
H700 C713 0.961 . S
H701 C713 0.959 . S
H702 C716 0.929 . S
H703 C717 0.931 . S
H704 C719 0.930 . S
C705 H693 0.930 . S
C705 C706 1.399 . S
C705 C710 1.399 . S
C706 C705 1.399 . S
C706 C707 1.376 . S
C707 H694 0.930 . S
C707 C706 1.376 . S
C707 C708 1.388 . S
C708 H695 0.930 . S
C708 C707 1.388 . S
C708 C709 1.390 . S
C709 C708 1.390 . S
C709 C710 1.394 . S
C709 C715 1.465 . S
C710 C705 1.399 . S
C710 C709 1.394 . S
C710 C711 1.516 . S
C711 C710 1.516 . S
C711 C712 1.502 . S
C711 C713 1.561 . S
C711 C714 1.526 . S
C712 H696 0.959 . S
C712 H697 0.959 . S
C712 H698 0.961 . S
C712 C711 1.502 . S
C713 H699 0.960 . S
C713 H700 0.961 . S
C713 H701 0.959 . S
C713 C711 1.561 . S
C714 C711 1.526 . S
C714 C715 1.396 . S
C714 C719 1.390 . S
C715 C709 1.465 . S
C715 C714 1.396 . S
C715 C716 1.399 . S
C716 H702 0.929 . S
C716 C715 1.399 . S
C716 C717 1.385 . S
C717 H703 0.931 . S
C717 C716 1.385 . S
C717 C718 1.389 . S
C718 C717 1.389 . S
C718 C719 1.387 . S
C719 H704 0.930 . S
C719 C714 1.390 . S
C719 C718 1.387 . S
H720 C732 0.930 . S
H721 C734 0.930 . S
H722 C735 0.930 . S
H723 C739 0.959 . S
H724 C739 0.959 . S
H725 C739 0.961 . S
H726 C740 0.960 . S
H727 C740 0.961 . S
H728 C740 0.959 . S
H729 C743 0.929 . S
H730 C744 0.931 . S
H731 C746 0.930 . S
C732 H720 0.930 . S
C732 C733 1.399 . S
C732 C737 1.399 . S
C733 C732 1.399 . S
C733 C734 1.376 . S
C734 H721 0.930 . S
C734 C733 1.376 . S
C734 C735 1.388 . S
C735 H722 0.930 . S
C735 C734 1.388 . S
C735 C736 1.390 . S
C736 C735 1.390 . S
C736 C737 1.394 . S
C736 C742 1.465 . S
C737 C732 1.399 . S
C737 C736 1.394 . S
C737 C738 1.516 . S
C738 C737 1.516 . S
C738 C739 1.502 . S
C738 C740 1.561 . S
C738 C741 1.526 . S
C739 H723 0.959 . S
C739 H724 0.959 . S
C739 H725 0.961 . S
C739 C738 1.502 . S
C740 H726 0.960 . S
C740 H727 0.961 . S
C740 H728 0.959 . S
C740 C738 1.561 . S
C741 C738 1.526 . S
C741 C742 1.396 . S
C741 C746 1.390 . S
C742 C736 1.465 . S
C742 C741 1.396 . S
C742 C743 1.399 . S
C743 H729 0.929 . S
C743 C742 1.399 . S
C743 C744 1.385 . S
C744 H730 0.931 . S
C744 C743 1.385 . S
C744 C745 1.389 . S
C745 C744 1.389 . S
C745 C746 1.387 . S
C746 H731 0.930 . S
C746 C741 1.390 . S
C746 C745 1.387 . S
H747 C759 0.930 . S
H748 C761 0.930 . S
H749 C762 0.930 . S
H750 C766 0.959 . S
H751 C766 0.959 . S
H752 C766 0.961 . S
H753 C767 0.960 . S
H754 C767 0.961 . S
H755 C767 0.959 . S
H756 C770 0.929 . S
H757 C771 0.931 . S
H758 C773 0.930 . S
C759 H747 0.930 . S
C759 C760 1.399 . S
C759 C764 1.399 . S
C760 C759 1.399 . S
C760 C761 1.376 . S
C761 H748 0.930 . S
C761 C760 1.376 . S
C761 C762 1.388 . S
C762 H749 0.930 . S
C762 C761 1.388 . S
C762 C763 1.390 . S
C763 C762 1.390 . S
C763 C764 1.394 . S
C763 C769 1.465 . S
C764 C759 1.399 . S
C764 C763 1.394 . S
C764 C765 1.516 . S
C765 C764 1.516 . S
C765 C766 1.502 . S
C765 C767 1.561 . S
C765 C768 1.526 . S
C766 H750 0.959 . S
C766 H751 0.959 . S
C766 H752 0.961 . S
C766 C765 1.502 . S
C767 H753 0.960 . S
C767 H754 0.961 . S
C767 H755 0.959 . S
C767 C765 1.561 . S
C768 C765 1.526 . S
C768 C769 1.396 . S
C768 C773 1.390 . S
C769 C763 1.465 . S
C769 C768 1.396 . S
C769 C770 1.399 . S
C770 H756 0.929 . S
C770 C769 1.399 . S
C770 C771 1.385 . S
C771 H757 0.931 . S
C771 C770 1.385 . S
C771 C772 1.404 . S
C772 C771 1.404 . S
C772 C773 1.397 . S
C773 H758 0.930 . S
C773 C768 1.390 . S
C773 C772 1.397 . S
H774 C786 0.930 . S
H775 C788 0.930 . S
H776 C789 0.930 . S
H777 C793 0.959 . S
H778 C793 0.959 . S
H779 C793 0.961 . S
H780 C794 0.960 . S
H781 C794 0.961 . S
H782 C794 0.959 . S
H783 C797 0.929 . S
H784 C798 0.931 . S
H785 C800 0.930 . S
C786 H774 0.930 . S
C786 C787 1.399 . S
C786 C791 1.399 . S
C787 C786 1.399 . S
C787 C788 1.376 . S
C788 H775 0.930 . S
C788 C787 1.376 . S
C788 C789 1.388 . S
C789 H776 0.930 . S
C789 C788 1.388 . S
C789 C790 1.390 . S
C790 C789 1.390 . S
C790 C791 1.394 . S
C790 C796 1.465 . S
C791 C786 1.399 . S
C791 C790 1.394 . S
C791 C792 1.516 . S
C792 C791 1.516 . S
C792 C793 1.502 . S
C792 C794 1.561 . S
C792 C795 1.526 . S
C793 H777 0.959 . S
C793 H778 0.959 . S
C793 H779 0.961 . S
C793 C792 1.502 . S
C794 H780 0.960 . S
C794 H781 0.961 . S
C794 H782 0.959 . S
C794 C792 1.561 . S
C795 C792 1.526 . S
C795 C796 1.396 . S
C795 C800 1.390 . S
C796 C790 1.465 . S
C796 C795 1.396 . S
C796 C797 1.399 . S
C797 H783 0.929 . S
C797 C796 1.399 . S
C797 C798 1.385 . S
C798 H784 0.931 . S
C798 C797 1.385 . S
C798 C799 1.389 . S
C799 C798 1.389 . S
C799 C800 1.387 . S
C800 H785 0.930 . S
C800 C795 1.390 . S
C800 C799 1.387 . S
H801 C813 0.930 . S
H802 C815 0.930 . S
H803 C816 0.930 . S
H804 C820 0.959 . S
H805 C820 0.959 . S
H806 C820 0.961 . S
H807 C821 0.960 . S
H808 C821 0.961 . S
H809 C821 0.959 . S
H810 C824 0.929 . S
H811 C825 0.931 . S
H812 C827 0.930 . S
C813 H801 0.930 . S
C813 C814 1.399 . S
C813 C818 1.399 . S
C814 C813 1.399 . S
C814 C815 1.376 . S
C815 H802 0.930 . S
C815 C814 1.376 . S
C815 C816 1.388 . S
C816 H803 0.930 . S
C816 C815 1.388 . S
C816 C817 1.390 . S
C817 C816 1.390 . S
C817 C818 1.394 . S
C817 C823 1.465 . S
C818 C813 1.399 . S
C818 C817 1.394 . S
C818 C819 1.516 . S
C819 C818 1.516 . S
C819 C820 1.502 . S
C819 C821 1.561 . S
C819 C822 1.526 . S
C820 H804 0.959 . S
C820 H805 0.959 . S
C820 H806 0.961 . S
C820 C819 1.502 . S
C821 H807 0.960 . S
C821 H808 0.961 . S
C821 H809 0.959 . S
C821 C819 1.561 . S
C822 C819 1.526 . S
C822 C823 1.396 . S
C822 C827 1.390 . S
C823 C817 1.465 . S
C823 C822 1.396 . S
C823 C824 1.399 . S
C824 H810 0.929 . S
C824 C823 1.399 . S
C824 C825 1.385 . S
C825 H811 0.931 . S
C825 C824 1.385 . S
C825 C826 1.389 . S
C826 C825 1.389 . S
C826 C827 1.387 . S
C827 H812 0.930 . S
C827 C822 1.390 . S
C827 C826 1.387 . S
H828 C840 0.930 . S
H829 C842 0.930 . S
H830 C843 0.930 . S
H831 C847 0.959 . S
H832 C847 0.959 . S
H833 C847 0.961 . S
H834 C848 0.960 . S
H835 C848 0.961 . S
H836 C848 0.959 . S
H837 C851 0.929 . S
H838 C852 0.931 . S
H839 C854 0.930 . S
C840 H828 0.930 . S
C840 C841 1.399 . S
C840 C845 1.399 . S
C841 C840 1.399 . S
C841 C842 1.376 . S
C842 H829 0.930 . S
C842 C841 1.376 . S
C842 C843 1.388 . S
C843 H830 0.930 . S
C843 C842 1.388 . S
C843 C844 1.390 . S
C844 C843 1.390 . S
C844 C845 1.394 . S
C844 C850 1.465 . S
C845 C840 1.399 . S
C845 C844 1.394 . S
C845 C846 1.516 . S
C846 C845 1.516 . S
C846 C847 1.502 . S
C846 C848 1.561 . S
C846 C849 1.526 . S
C847 H831 0.959 . S
C847 H832 0.959 . S
C847 H833 0.961 . S
C847 C846 1.502 . S
C848 H834 0.960 . S
C848 H835 0.961 . S
C848 H836 0.959 . S
C848 C846 1.561 . S
C849 C846 1.526 . S
C849 C850 1.396 . S
C849 C854 1.390 . S
C850 C844 1.465 . S
C850 C849 1.396 . S
C850 C851 1.399 . S
C851 H837 0.929 . S
C851 C850 1.399 . S
C851 C852 1.385 . S
C852 H838 0.931 . S
C852 C851 1.385 . S
C852 C853 1.389 . S
C853 C852 1.389 . S
C853 C854 1.387 . S
C854 H839 0.930 . S
C854 C849 1.390 . S
C854 C853 1.387 . S
H855 C867 0.930 . S
H856 C869 0.930 . S
H857 C870 0.930 . S
H858 C874 0.959 . S
H859 C874 0.959 . S
H860 C874 0.961 . S
H861 C875 0.960 . S
H862 C875 0.961 . S
H863 C875 0.959 . S
H864 C878 0.929 . S
H865 C879 0.931 . S
H866 C881 0.930 . S
C867 H855 0.930 . S
C867 C868 1.399 . S
C867 C872 1.399 . S
C868 C867 1.399 . S
C868 C869 1.376 . S
C869 H856 0.930 . S
C869 C868 1.376 . S
C869 C870 1.388 . S
C870 H857 0.930 . S
C870 C869 1.388 . S
C870 C871 1.390 . S
C871 C870 1.390 . S
C871 C872 1.394 . S
C871 C877 1.465 . S
C872 C867 1.399 . S
C872 C871 1.394 . S
C872 C873 1.516 . S
C873 C872 1.516 . S
C873 C874 1.502 . S
C873 C875 1.561 . S
C873 C876 1.526 . S
C874 H858 0.959 . S
C874 H859 0.959 . S
C874 H860 0.961 . S
C874 C873 1.502 . S
C875 H861 0.960 . S
C875 H862 0.961 . S
C875 H863 0.959 . S
C875 C873 1.561 . S
C876 C873 1.526 . S
C876 C877 1.396 . S
C876 C881 1.390 . S
C877 C871 1.465 . S
C877 C876 1.396 . S
C877 C878 1.399 . S
C878 H864 0.929 . S
C878 C877 1.399 . S
C878 C879 1.385 . S
C879 H865 0.931 . S
C879 C878 1.385 . S
C879 C880 1.389 . S
C880 C879 1.389 . S
C880 C881 1.387 . S
C881 H866 0.930 . S
C881 C876 1.390 . S
C881 C880 1.387 . S
H882 C894 0.930 . S
H883 C896 0.930 . S
H884 C897 0.930 . S
H885 C901 0.959 . S
H886 C901 0.959 . S
H887 C901 0.961 . S
H888 C902 0.960 . S
H889 C902 0.961 . S
H890 C902 0.959 . S
H891 C905 0.929 . S
H892 C906 0.931 . S
H893 C908 0.930 . S
C894 H882 0.930 . S
C894 C895 1.399 . S
C894 C899 1.399 . S
C895 C894 1.399 . S
C895 C896 1.376 . S
C896 H883 0.930 . S
C896 C895 1.376 . S
C896 C897 1.388 . S
C897 H884 0.930 . S
C897 C896 1.388 . S
C897 C898 1.390 . S
C898 C897 1.390 . S
C898 C899 1.394 . S
C898 C904 1.465 . S
C899 C894 1.399 . S
C899 C898 1.394 . S
C899 C900 1.516 . S
C900 C899 1.516 . S
C900 C901 1.502 . S
C900 C902 1.561 . S
C900 C903 1.526 . S
C901 H885 0.959 . S
C901 H886 0.959 . S
C901 H887 0.961 . S
C901 C900 1.502 . S
C902 H888 0.960 . S
C902 H889 0.961 . S
C902 H890 0.959 . S
C902 C900 1.561 . S
C903 C900 1.526 . S
C903 C904 1.396 . S
C903 C908 1.390 . S
C904 C898 1.465 . S
C904 C903 1.396 . S
C904 C905 1.399 . S
C905 H891 0.929 . S
C905 C904 1.399 . S
C905 C906 1.385 . S
C906 H892 0.931 . S
C906 C905 1.385 . S
C906 C907 1.389 . S
C907 C906 1.389 . S
C907 C908 1.387 . S
C908 H893 0.930 . S
C908 C903 1.390 . S
C908 C907 1.387 . S
H909 C921 0.930 . S
H910 C923 0.930 . S
H911 C924 0.930 . S
H912 C928 0.959 . S
H913 C928 0.959 . S
H914 C928 0.961 . S
H915 C929 0.960 . S
H916 C929 0.961 . S
H917 C929 0.959 . S
H918 C932 0.929 . S
H919 C933 0.931 . S
H920 C935 0.930 . S
C921 H909 0.930 . S
C921 C922 1.399 . S
C921 C926 1.399 . S
C922 C921 1.399 . S
C922 C923 1.376 . S
C923 H910 0.930 . S
C923 C922 1.376 . S
C923 C924 1.388 . S
C924 H911 0.930 . S
C924 C923 1.388 . S
C924 C925 1.390 . S
C925 C924 1.390 . S
C925 C926 1.394 . S
C925 C931 1.465 . S
C926 C921 1.399 . S
C926 C925 1.394 . S
C926 C927 1.516 . S
C927 C926 1.516 . S
C927 C928 1.502 . S
C927 C929 1.561 . S
C927 C930 1.526 . S
C928 H912 0.959 . S
C928 H913 0.959 . S
C928 H914 0.961 . S
C928 C927 1.502 . S
C929 H915 0.960 . S
C929 H916 0.961 . S
C929 H917 0.959 . S
C929 C927 1.561 . S
C930 C927 1.526 . S
C930 C931 1.396 . S
C930 C935 1.390 . S
C931 C925 1.465 . S
C931 C930 1.396 . S
C931 C932 1.399 . S
C932 H918 0.929 . S
C932 C931 1.399 . S
C932 C933 1.385 . S
C933 H919 0.931 . S
C933 C932 1.385 . S
C933 C934 1.389 . S
C934 C933 1.389 . S
C934 C935 1.387 . S
C935 H920 0.930 . S
C935 C930 1.390 . S
C935 C934 1.387 . S
H936 C948 0.930 . S
H937 C950 0.930 . S
H938 C951 0.930 . S
H939 C955 0.959 . S
H940 C955 0.959 . S
H941 C955 0.961 1_554 S
H942 C956 0.960 . S
H943 C956 0.961 . S
H944 C956 0.959 . S
H945 C959 0.929 . S
H946 C960 0.931 . S
H947 C962 0.930 . S
C948 H936 0.930 . S
C948 C949 1.399 . S
C948 C953 1.399 . S
C949 C948 1.399 . S
C949 C950 1.376 . S
C950 H937 0.930 . S
C950 C949 1.376 . S
C950 C951 1.388 . S
C951 H938 0.930 . S
C951 C950 1.388 . S
C951 C952 1.390 . S
C952 C951 1.390 . S
C952 C953 1.394 . S
C952 C958 1.465 . S
C953 C948 1.399 . S
C953 C952 1.394 . S
C953 C954 1.516 . S
C954 C953 1.516 . S
C954 C955 1.502 1_554 S
C954 C956 1.561 . S
C954 C957 1.526 . S
C955 H939 0.959 . S
C955 H940 0.959 . S
C955 H941 0.961 1_556 S
C955 C954 1.502 1_556 S
C956 H942 0.960 . S
C956 H943 0.961 . S
C956 H944 0.959 . S
C956 C954 1.561 . S
C957 C954 1.526 . S
C957 C958 1.396 . S
C957 C962 1.390 1_554 S
C958 C952 1.465 . S
C958 C957 1.396 . S
C958 C959 1.399 . S
C959 H945 0.929 . S
C959 C958 1.399 . S
C959 C960 1.385 1_554 S
C960 H946 0.931 . S
C960 C959 1.385 1_556 S
C960 C961 1.389 . S
C961 C960 1.389 . S
C961 C962 1.387 . S
C962 H947 0.930 . S
C962 C957 1.390 1_556 S
C962 C961 1.387 . S
H963 C975 0.930 . S
H964 C977 0.930 . S
H965 C978 0.930 . S
H966 C982 0.959 . S
H967 C982 0.959 . S
H968 C982 0.961 . S
H969 C983 0.960 . S
H970 C983 0.961 . S
H971 C983 0.959 . S
H972 C986 0.929 . S
H973 C987 0.931 . S
H974 C989 0.930 . S
C975 H963 0.930 . S
C975 C976 1.399 . S
C975 C980 1.399 . S
C976 C975 1.399 . S
C976 C977 1.376 . S
C977 H964 0.930 . S
C977 C976 1.376 . S
C977 C978 1.388 . S
C978 H965 0.930 . S
C978 C977 1.388 . S
C978 C979 1.390 . S
C979 C978 1.390 . S
C979 C980 1.394 . S
C979 C985 1.465 . S
C980 C975 1.399 . S
C980 C979 1.394 . S
C980 C981 1.516 . S
C981 C980 1.516 . S
C981 C982 1.502 . S
C981 C983 1.561 . S
C981 C984 1.526 . S
C982 H966 0.959 . S
C982 H967 0.959 . S
C982 H968 0.961 . S
C982 C981 1.502 . S
C983 H969 0.960 . S
C983 H970 0.961 . S
C983 H971 0.959 . S
C983 C981 1.561 . S
C984 C981 1.526 . S
C984 C985 1.396 . S
C984 C989 1.390 . S
C985 C979 1.465 . S
C985 C984 1.396 . S
C985 C986 1.399 . S
C986 H972 0.929 . S
C986 C985 1.399 . S
C986 C987 1.385 . S
C987 H973 0.931 . S
C987 C986 1.385 . S
C987 C988 1.389 . S
C988 C987 1.389 . S
C988 C989 1.387 . S
C989 H974 0.930 . S
C989 C984 1.390 . S
C989 C988 1.387 . S
C367 C309 1.582 . S
C355 C19 1.477 . S
C382 C40 1.563 . S
C394 C129 1.606 . S
C409 C51 1.530 . S
C421 C176 1.558 . S
C436 C72 1.474 . S
C448 C212 1.536 . S
C475 C237 1.555 . S
C463 C103 1.515 . S
C490 C114 1.520 . S
C502 C273 1.572 . S
C517 C30 1.451 . S
C529 C165 1.619 . S
C544 C61 1.429 . S
C556 C201 1.566 . S
C571 C82 1.399 . S
C583 C248 1.479 . S
C610 C284 1.507 . S
C598 C93 1.407 1_554 S
C637 C320 1.551 . S
C625 C124 1.530 . S
C664 C140 1.522 . S
C652 C9 1.431 . S
C679 C17 1.379 . S
C691 C164 1.507 . S
C706 C38 1.481 . S
C718 C200 1.510 . S
C745 C238 1.494 . S
C733 C54 1.385 . S
C760 C75 1.461 . S
C772 C274 1.497 1_556 S
C799 C310 1.465 . S
C787 C101 1.411 . S
C826 C130 1.450 . S
C814 C117 1.395 . S
C853 C308 1.508 . S
C841 C33 1.409 . S
C868 C59 1.468 . S
C880 C128 1.492 . S
C907 C166 1.508 . S
C895 C80 1.448 . S
C922 C96 1.414 . S
C934 C202 1.517 . S
C949 C122 1.413 . S
C961 C236 1.529 . S
C976 C12 1.400 . S
C988 C272 1.508 . S
