# Generated by pormake.
# Topology sqc, (4,8)-cn, num edge types: 1
# Building blocks:
#     Node 0, Type 0, BuildingBlock: NAHDIM_clean_linker_0, # of connection points: 4
#     Node 1, Type 0, BuildingBlock: NAHDIM_clean_linker_0, # of connection points: 4
#     Node 2, Type 0, BuildingBlock: NAHDIM_clean_linker_0, # of connection points: 4
#     Node 3, Type 0, BuildingBlock: NAHDIM_clean_linker_0, # of connection points: 4
#     Node 4, Type 0, BuildingBlock: NAHDIM_clean_linker_0, # of connection points: 4
#     Node 5, Type 0, BuildingBlock: NAHDIM_clean_linker_0, # of connection points: 4
#     Node 6, Type 0, BuildingBlock: NAHDIM_clean_linker_0, # of connection points: 4
#     Node 7, Type 0, BuildingBlock: NAHDIM_clean_linker_0, # of connection points: 4
#     Node 8, Type 1, BuildingBlock: VETTIZ_charged_sbu_0, # of connection points: 8
#     Node 9, Type 1, BuildingBlock: VETTIZ_charged_sbu_0, # of connection points: 8
#     Node 10, Type 1, BuildingBlock: VETTIZ_charged_sbu_0, # of connection points: 8
#     Node 11, Type 1, BuildingBlock: VETTIZ_charged_sbu_0, # of connection points: 8
#     Edge 12, Type (0, 1), BuildingBlock: EZIPEK_clean_linker_0, # of connection points: 2
#     Edge 13, Type (0, 1), BuildingBlock: EZIPEK_clean_linker_0, # of connection points: 2
#     Edge 14, Type (0, 1), BuildingBlock: EZIPEK_clean_linker_0, # of connection points: 2
#     Edge 15, Type (0, 1), BuildingBlock: EZIPEK_clean_linker_0, # of connection points: 2
#     Edge 16, Type (0, 1), BuildingBlock: EZIPEK_clean_linker_0, # of connection points: 2
#     Edge 17, Type (0, 1), BuildingBlock: EZIPEK_clean_linker_0, # of connection points: 2
#     Edge 18, Type (0, 1), BuildingBlock: EZIPEK_clean_linker_0, # of connection points: 2
#     Edge 19, Type (0, 1), BuildingBlock: EZIPEK_clean_linker_0, # of connection points: 2
#     Edge 20, Type (0, 1), BuildingBlock: EZIPEK_clean_linker_0, # of connection points: 2
#     Edge 21, Type (0, 1), BuildingBlock: EZIPEK_clean_linker_0, # of connection points: 2
#     Edge 22, Type (0, 1), BuildingBlock: EZIPEK_clean_linker_0, # of connection points: 2
#     Edge 23, Type (0, 1), BuildingBlock: EZIPEK_clean_linker_0, # of connection points: 2
#     Edge 24, Type (0, 1), BuildingBlock: EZIPEK_clean_linker_0, # of connection points: 2
#     Edge 25, Type (0, 1), BuildingBlock: EZIPEK_clean_linker_0, # of connection points: 2
#     Edge 26, Type (0, 1), BuildingBlock: EZIPEK_clean_linker_0, # of connection points: 2
#     Edge 27, Type (0, 1), BuildingBlock: EZIPEK_clean_linker_0, # of connection points: 2
#     Edge 28, Type (0, 1), BuildingBlock: EZIPEK_clean_linker_0, # of connection points: 2
#     Edge 29, Type (0, 1), BuildingBlock: EZIPEK_clean_linker_0, # of connection points: 2
#     Edge 30, Type (0, 1), BuildingBlock: EZIPEK_clean_linker_0, # of connection points: 2
#     Edge 31, Type (0, 1), BuildingBlock: EZIPEK_clean_linker_0, # of connection points: 2
#     Edge 32, Type (0, 1), BuildingBlock: EZIPEK_clean_linker_0, # of connection points: 2
#     Edge 33, Type (0, 1), BuildingBlock: EZIPEK_clean_linker_0, # of connection points: 2
#     Edge 34, Type (0, 1), BuildingBlock: EZIPEK_clean_linker_0, # of connection points: 2
#     Edge 35, Type (0, 1), BuildingBlock: EZIPEK_clean_linker_0, # of connection points: 2
#     Edge 36, Type (0, 1), BuildingBlock: EZIPEK_clean_linker_0, # of connection points: 2
#     Edge 37, Type (0, 1), BuildingBlock: EZIPEK_clean_linker_0, # of connection points: 2
#     Edge 38, Type (0, 1), BuildingBlock: EZIPEK_clean_linker_0, # of connection points: 2
#     Edge 39, Type (0, 1), BuildingBlock: EZIPEK_clean_linker_0, # of connection points: 2
#     Edge 40, Type (0, 1), BuildingBlock: EZIPEK_clean_linker_0, # of connection points: 2
#     Edge 41, Type (0, 1), BuildingBlock: EZIPEK_clean_linker_0, # of connection points: 2
#     Edge 42, Type (0, 1), BuildingBlock: EZIPEK_clean_linker_0, # of connection points: 2
#     Edge 43, Type (0, 1), BuildingBlock: EZIPEK_clean_linker_0, # of connection points: 2
# Relax obj value: 0.111
# Max RMSD: 0.262
# Mean RMSD: 0.120
data_MOF--net-sqc--node1-VETTIZ_charged_sbu_0--node2-NAHDIM_clean_linker_0--edge1-EZIPEK_clean_linker_0
_symmetry_space_group_name_H-M    P1
_symmetry_Int_Tables_number       1
_symmetry_cell_setting            triclinic
loop_
_symmetry_equiv_pos_as_xyz
'x, y, z'
_cell_length_a     25.721867
_cell_length_b     25.735936
_cell_length_c     83.549256
_cell_angle_alpha  89.420944
_cell_angle_beta   89.473509
_cell_angle_gamma 89.884517
loop_
_atom_site_label
_atom_site_type_symbol
_atom_site_fract_x
_atom_site_fract_y
_atom_site_fract_z
_atom_type_partial_charge
C0 C 0.75212 0.98165 0.44545 0.0
C1 C 0.77261 0.92573 0.44337 0.0
C2 C 0.84279 0.9115 0.4627 0.0
C3 C 0.85897 0.87911 0.4752 0.0
C4 C 0.90918 0.88291 0.48148 0.0
C5 C 0.94346 0.92157 0.47545 0.0
C6 C 0.9276 0.95422 0.46267 0.0
C7 C 0.87771 0.94839 0.45628 0.0
C8 C 0.92511 0.84613 0.49475 0.0
C9 C 0.96293 0.99592 0.4559 0.0
C10 C 0.24462 0.85225 0.41967 0.0
C11 C 0.27488 0.89404 0.42872 0.0
C12 C 0.22487 0.89537 0.45355 0.0
C13 C 0.19881 0.94306 0.453 0.0
C14 C 0.15416 0.95124 0.46237 0.0
C15 C 0.1351 0.91048 0.47232 0.0
C16 C 0.16113 0.86206 0.47274 0.0
C17 C 0.20645 0.85545 0.46352 0.0
C18 C 0.12776 0.00366 0.4618 0.0
C19 C 0.14132 0.81766 0.48301 0.0
C20 C 0.23328 0.9859 0.57564 0.0
C21 C 0.22242 0.03359 0.56816 0.0
C22 C 0.18029 0.03882 0.55772 0.0
C23 C 0.14736 0.99574 0.55518 0.0
C24 C 0.15709 0.9481 0.56327 0.0
C25 C 0.20011 0.94384 0.5734 0.0
C26 C 0.17072 0.09048 0.54955 0.0
C27 C 0.12178 0.90184 0.56134 0.0
C28 C 0.74102 0.15006 0.55021 0.0
C29 C 0.78151 0.12069 0.56016 0.0
C30 C 0.87516 0.11546 0.55536 0.0
C31 C 0.91605 0.13957 0.54715 0.0
C32 C 0.96245 0.11286 0.54408 0.0
C33 C 0.96775 0.06088 0.54949 0.0
C34 C 0.92823 0.03775 0.55899 0.0
C35 C 0.8822 0.06543 0.5619 0.0
C36 C 0.0046 0.13916 0.53429 0.0
C37 C 0.93353 0.98284 0.56526 0.0
C38 C 0.99442 0.9299 0.48323 0.0
C39 C 0.03963 0.91325 0.47541 0.0
C40 C 0.08841 0.91951 0.4824 0.0
C41 C 0.09218 0.93918 0.49809 0.0
C42 C 0.14006 0.94164 0.50608 0.0
C43 C 0.14296 0.96094 0.52158 0.0
C44 C 0.09852 0.98074 0.52934 0.0
C45 C 0.10075 0.00121 0.54498 0.0
C46 C 0.05718 0.02599 0.55153 0.0
C47 C 0.01069 0.02883 0.5431 0.0
C48 C 0.00614 0.00387 0.52822 0.0
C49 C 0.95846 0.00234 0.52011 0.0
C50 C 0.95435 0.97759 0.50549 0.0
C51 C 0.9981 0.95486 0.49817 0.0
C52 C 0.04687 0.95785 0.50585 0.0
C53 C 0.05049 0.98062 0.52118 0.0
C54 C 0.36297 0.95064 0.58674 0.0
C55 C 0.32537 0.99355 0.58125 0.0
O56 O 0.79317 0.90632 0.45747 0.0
O57 O 0.82969 0.14185 0.55671 0.0
O58 O 0.2749 0.9797 0.5853 0.0
O59 O 0.26928 0.88775 0.44512 0.0
H60 H 0.80341 0.92903 0.43399 0.0
H61 H 0.7849 0.00945 0.44601 0.0
H62 H 0.7292 0.98639 0.45662 0.0
H63 H 0.72783 0.99324 0.43507 0.0
H64 H 0.832 0.85054 0.48002 0.0
H65 H 0.86624 0.97364 0.44654 0.0
H66 H 0.96521 0.83146 0.49264 0.0
H67 H 0.89834 0.81244 0.49588 0.0
H68 H 0.92479 0.86713 0.50629 0.0
H69 H 0.94229 0.0227 0.4476 0.0
H70 H 0.9954 0.97735 0.44924 0.0
H71 H 0.97998 0.01907 0.46569 0.0
H72 H 0.2564 0.93098 0.42511 0.0
H73 H 0.24917 0.85855 0.40655 0.0
H74 H 0.20254 0.85486 0.42267 0.0
H75 H 0.25809 0.81241 0.42261 0.0
H76 H 0.21415 0.9743 0.44558 0.0
H77 H 0.22737 0.81887 0.46388 0.0
H78 H 0.12527 0.02004 0.47403 0.0
H79 H 0.08747 0.99922 0.4574 0.0
H80 H 0.14857 0.03176 0.45387 0.0
H81 H 0.16443 0.78159 0.48131 0.0
H82 H 0.10007 0.80957 0.48013 0.0
H83 H 0.14277 0.82861 0.49581 0.0
H84 H 0.32994 0.99205 0.56811 0.0
H85 H 0.24611 0.06702 0.57072 0.0
H86 H 0.20836 0.90746 0.57952 0.0
H87 H 0.16312 0.08488 0.53662 0.0
H88 H 0.20413 0.11738 0.55082 0.0
H89 H 0.13575 0.10898 0.55492 0.0
H90 H 0.13203 0.86929 0.56957 0.0
H91 H 0.12448 0.88774 0.54885 0.0
H92 H 0.08074 0.91327 0.56363 0.0
H93 H 0.78039 0.08017 0.5558 0.0
H94 H 0.7017 0.13326 0.55222 0.0
H95 H 0.75076 0.14694 0.53727 0.0
H96 H 0.74011 0.19189 0.5534 0.0
H97 H 0.91063 0.17875 0.54257 0.0
H98 H 0.85162 0.04748 0.569 0.0
H99 H 0.00736 0.12067 0.52236 0.0
H100 H 0.0428 0.1342 0.54021 0.0
H101 H 0.99695 0.18133 0.53254 0.0
H102 H 0.90179 0.9723 0.57379 0.0
H103 H 0.97148 0.97786 0.57132 0.0
H104 H 0.93275 0.95546 0.55508 0.0
H105 H 0.03699 0.8966 0.46357 0.0
H106 H 0.17563 0.92779 0.50055 0.0
H107 H 0.18057 0.9612 0.5273 0.0
H108 H 0.05954 0.04353 0.56325 0.0
H109 H 0.92351 0.0196 0.52506 0.0
H110 H 0.91658 0.97732 0.49989 0.0
H111 H 0.40371 0.96189 0.58386 0.0
H112 H 0.35429 0.91404 0.58036 0.0
H113 H 0.35976 0.94229 0.59975 0.0
C114 C 0.09961 0.97325 0.82782 0.0
C115 C 0.15267 0.00108 0.82749 0.0
C116 C 0.18903 0.95149 0.80561 0.0
C117 C 0.23572 0.92618 0.80911 0.0
C118 C 0.24907 0.87934 0.80155 0.0
C119 C 0.21445 0.8572 0.79041 0.0
C120 C 0.16689 0.88275 0.787 0.0
C121 C 0.15524 0.93016 0.79443 0.0
C122 C 0.30022 0.85359 0.80543 0.0
C123 C 0.12826 0.8599 0.77556 0.0
C124 C 0.15971 0.44283 0.82639 0.0
C125 C 0.1769 0.47711 0.81287 0.0
C126 C 0.20317 0.56882 0.80968 0.0
C127 C 0.17437 0.58155 0.79599 0.0
C128 C 0.18029 0.62999 0.78838 0.0
C129 C 0.21931 0.66457 0.79366 0.0
C130 C 0.24887 0.65149 0.80734 0.0
C131 C 0.23921 0.60441 0.81542 0.0
C132 C 0.14479 0.64344 0.77463 0.0
C133 C 0.29097 0.68676 0.81344 0.0
C134 C 0.31612 0.55762 0.69506 0.0
C135 C 0.26689 0.57795 0.69895 0.0
C136 C 0.26204 0.62553 0.70693 0.0
C137 C 0.30732 0.65275 0.71149 0.0
C138 C 0.3569 0.63233 0.70759 0.0
C139 C 0.36053 0.58532 0.69927 0.0
C140 C 0.20838 0.64665 0.71047 0.0
C141 C 0.40608 0.65986 0.71232 0.0
C142 C 0.31326 0.0575 0.70146 0.0
C143 C 0.36026 0.03015 0.69374 0.0
C144 C 0.33699 0.9389 0.69318 0.0
C145 C 0.2906 0.91263 0.69037 0.0
C146 C 0.27929 0.86577 0.69838 0.0
C147 C 0.31611 0.84444 0.70908 0.0
C148 C 0.36446 0.86939 0.71121 0.0
C149 C 0.37428 0.91658 0.70327 0.0
C150 C 0.2276 0.83978 0.69575 0.0
C151 C 0.4054 0.84664 0.72207 0.0
C152 C 0.22785 0.80725 0.78245 0.0
C153 C 0.21885 0.76088 0.79093 0.0
C154 C 0.2312 0.71258 0.78428 0.0
C155 C 0.2528 0.7102 0.76867 0.0
C156 C 0.26742 0.66252 0.7618 0.0
C157 C 0.28398 0.65998 0.74594 0.0
C158 C 0.2882 0.70519 0.73649 0.0
C159 C 0.30259 0.70285 0.72013 0.0
C160 C 0.31064 0.74888 0.71146 0.0
C161 C 0.30351 0.79727 0.7186 0.0
C162 C 0.2858 0.80033 0.73464 0.0
C163 C 0.27563 0.84844 0.74192 0.0
C164 C 0.25734 0.8509 0.75763 0.0
C165 C 0.24829 0.80536 0.76666 0.0
C166 C 0.25983 0.75657 0.75968 0.0
C167 C 0.27811 0.75405 0.74361 0.0
C168 C 0.27521 0.4445 0.70027 0.0
C169 C 0.28605 0.47357 0.6843 0.0
O170 O 0.17699 0.99727 0.81266 0.0
O171 O 0.34492 0.98557 0.68594 0.0
O172 O 0.3229 0.51152 0.68745 0.0
O173 O 0.19553 0.52435 0.81827 0.0
H174 H 0.17632 0.97955 0.83643 0.0
H175 H 0.10526 0.93062 0.82675 0.0
H176 H 0.07424 0.98638 0.81791 0.0
H177 H 0.07922 0.98039 0.83938 0.0
H178 H 0.26176 0.9434 0.81768 0.0
H179 H 0.11935 0.95042 0.79174 0.0
H180 H 0.29281 0.81605 0.81168 0.0
H181 H 0.32483 0.87804 0.81319 0.0
H182 H 0.32201 0.84504 0.79422 0.0
H183 H 0.09092 0.88168 0.77549 0.0
H184 H 0.12029 0.81873 0.77882 0.0
H185 H 0.14486 0.86054 0.76325 0.0
H186 H 0.20373 0.45888 0.80399 0.0
H187 H 0.08105 0.43375 0.82252 0.0
H188 H 0.17538 0.45991 0.83773 0.0
H189 H 0.18776 0.4092 0.82626 0.0
H190 H 0.14589 0.55496 0.7914 0.0
H191 H 0.2608 0.59452 0.82611 0.0
H192 H 0.138 0.68596 0.7736 0.0
H193 H 0.10656 0.6238 0.77604 0.0
H194 H 0.16256 0.62976 0.76328 0.0
H195 H 0.31647 0.66668 0.82221 0.0
H196 H 0.27273 0.72055 0.81944 0.0
H197 H 0.31544 0.70173 0.80339 0.0
H198 H 0.2497 0.49139 0.67971 0.0
H199 H 0.23203 0.55715 0.69581 0.0
H200 H 0.39835 0.56941 0.69621 0.0
H201 H 0.20011 0.6431 0.7235 0.0
H202 H 0.17768 0.62538 0.70396 0.0
H203 H 0.20608 0.68849 0.70716 0.0
H204 H 0.44132 0.63579 0.71017 0.0
H205 H 0.40431 0.67028 0.72519 0.0
H206 H 0.40992 0.6965 0.70529 0.0
H207 H 0.38468 0.02007 0.70419 0.0
H208 H 0.32587 0.094 0.70725 0.0
H209 H 0.2959 0.03188 0.71085 0.0
H210 H 0.28236 0.06699 0.69277 0.0
H211 H 0.26251 0.92993 0.68232 0.0
H212 H 0.41114 0.93575 0.70494 0.0
H213 H 0.20678 0.83487 0.70737 0.0
H214 H 0.23401 0.80045 0.69075 0.0
H215 H 0.2025 0.8623 0.68743 0.0
H216 H 0.44301 0.86761 0.72101 0.0
H217 H 0.41195 0.80504 0.71925 0.0
H218 H 0.39172 0.84869 0.73469 0.0
H219 H 0.20179 0.76241 0.80284 0.0
H220 H 0.26542 0.62637 0.76849 0.0
H221 H 0.29343 0.62211 0.74118 0.0
H222 H 0.32267 0.74705 0.69899 0.0
H223 H 0.28115 0.88478 0.73549 0.0
H224 H 0.24992 0.88897 0.76256 0.0
H225 H 0.30773 0.41764 0.70319 0.0
H226 H 0.23822 0.42268 0.70013 0.0
H227 H 0.27125 0.47234 0.71027 0.0
C228 C 0.78492 0.01339 0.08833 0.0
C229 C 0.77647 0.96021 0.08043 0.0
C230 C 0.72172 0.96397 0.05662 0.0
C231 C 0.71849 0.9384 0.042 0.0
C232 C 0.6712 0.93522 0.03378 0.0
C233 C 0.6265 0.96076 0.03994 0.0
C234 C 0.62961 0.98677 0.05478 0.0
C235 C 0.67698 0.98744 0.06306 0.0
C236 C 0.66946 0.9052 0.01837 0.0
C237 C 0.58321 0.01471 0.06179 0.0
C238 C 0.29428 0.79097 0.06923 0.0
C239 C 0.27634 0.84196 0.06129 0.0
C240 C 0.3446 0.8664 0.04235 0.0
C241 C 0.36019 0.91476 0.04821 0.0
C242 C 0.40823 0.93638 0.04374 0.0
C243 C 0.44154 0.90901 0.03319 0.0
C244 C 0.42657 0.85955 0.02759 0.0
C245 C 0.3778 0.83923 0.03206 0.0
C246 C 0.42245 0.98955 0.04977 0.0
C247 C 0.46127 0.82917 0.01643 0.0
C248 C 0.33317 0.06621 0.94335 0.0
C249 C 0.33717 0.09524 0.95743 0.0
C250 C 0.38349 0.09564 0.96622 0.0
C251 C 0.4264 0.06544 0.96102 0.0
C252 C 0.42283 0.03702 0.94665 0.0
C253 C 0.37648 0.0385 0.93788 0.0
C254 C 0.38662 0.12844 0.98106 0.0
C255 C 0.46775 0.00456 0.94068 0.0
C256 C 0.81993 0.24311 0.97809 0.0
C257 C 0.78886 0.20258 0.96889 0.0
C258 C 0.69501 0.19071 0.96695 0.0
C259 C 0.65006 0.21145 0.97384 0.0
C260 C 0.6054 0.18098 0.97601 0.0
C261 C 0.60539 0.12911 0.97057 0.0
C262 C 0.64948 0.10932 0.96238 0.0
C263 C 0.69412 0.14027 0.96077 0.0
C264 C 0.55926 0.20333 0.98484 0.0
C265 C 0.65026 0.05469 0.95601 0.0
C266 C 0.57792 0.96356 0.03029 0.0
C267 C 0.53483 0.93372 0.03508 0.0
C268 C 0.48832 0.93545 0.02647 0.0
C269 C 0.48509 0.96597 0.01233 0.0
C270 C 0.43962 0.96705 0.00307 0.0
C271 C 0.43638 0.99782 0.98933 0.0
C272 C 0.47799 0.02979 0.98449 0.0
C273 C 0.47444 0.06256 0.97081 0.0
C274 C 0.51669 0.09395 0.9664 0.0
C275 C 0.56237 0.09376 0.97536 0.0
C276 C 0.56637 0.06157 0.98912 0.0
C277 C 0.61129 0.06156 0.99862 0.0
C278 C 0.61507 0.02973 0.01208 0.0
C279 C 0.57413 0.99648 0.01665 0.0
C280 C 0.52795 0.9969 0.00749 0.0
C281 C 0.52418 0.02926 0.99365 0.0
C282 C 0.225 0.00263 0.94267 0.0
C283 C 0.23866 0.06033 0.94027 0.0
O284 O 0.76853 0.9657 0.06409 0.0
O285 O 0.73854 0.22028 0.96663 0.0
O286 O 0.28912 0.06565 0.93445 0.0
O287 O 0.29714 0.84607 0.04597 0.0
H288 H 0.74068 0.94533 0.08649 0.0
H289 H 0.74687 0.0317 0.09116 0.0
H290 H 0.80576 0.04103 0.08031 0.0
H291 H 0.80606 0.00904 0.0998 0.0
H292 H 0.75311 0.92006 0.03717 0.0
H293 H 0.67923 0.00756 0.07433 0.0
H294 H 0.63288 0.88254 0.01761 0.0
H295 H 0.70298 0.87815 0.01721 0.0
H296 H 0.67072 0.93276 0.00808 0.0
H297 H 0.59379 0.03893 0.0722 0.0
H298 H 0.55395 0.98568 0.06583 0.0
H299 H 0.56476 0.03999 0.0526 0.0
H300 H 0.29253 0.87251 0.06909 0.0
H301 H 0.27568 0.78622 0.08122 0.0
H302 H 0.3371 0.7918 0.07086 0.0
H303 H 0.28504 0.75664 0.06188 0.0
H304 H 0.33423 0.93668 0.05582 0.0
H305 H 0.36537 0.80197 0.02754 0.0
H306 H 0.42619 0.01712 0.03952 0.0
H307 H 0.46067 0.9878 0.05581 0.0
H308 H 0.3931 0.00506 0.05832 0.0
H309 H 0.44702 0.78891 0.01469 0.0
H310 H 0.50143 0.8275 0.02118 0.0
H311 H 0.46307 0.84917 0.00461 0.0
H312 H 0.23542 0.0757 0.95258 0.0
H313 H 0.30474 0.11846 0.9615 0.0
H314 H 0.37339 0.01692 0.92685 0.0
H315 H 0.39028 0.10286 0.99176 0.0
H316 H 0.35176 0.15348 0.98266 0.0
H317 H 0.4217 0.15351 0.98046 0.0
H318 H 0.45782 0.98241 0.92979 0.0
H319 H 0.48007 0.97677 0.95018 0.0
H320 H 0.5014 0.03012 0.93787 0.0
H321 H 0.78708 0.16945 0.97737 0.0
H322 H 0.85939 0.22784 0.98077 0.0
H323 H 0.80001 0.25174 0.98962 0.0
H324 H 0.82419 0.27999 0.97128 0.0
H325 H 0.65099 0.25082 0.97827 0.0
H326 H 0.72818 0.12495 0.95478 0.0
H327 H 0.5498 0.17885 0.99549 0.0
H328 H 0.52482 0.20319 0.97692 0.0
H329 H 0.56646 0.24364 0.98886 0.0
H330 H 0.68372 0.04805 0.94777 0.0
H331 H 0.61361 0.0464 0.94959 0.0
H332 H 0.65311 0.02673 0.96616 0.0
H333 H 0.53711 0.9098 0.04582 0.0
H334 H 0.40594 0.94391 0.00626 0.0
H335 H 0.40054 0.9966 0.98266 0.0
H336 H 0.51379 0.11922 0.95597 0.0
H337 H 0.64419 0.08627 0.99581 0.0
H338 H 0.65053 0.03186 0.01891 0.0
H339 H 0.1838 0.9986 0.9466 0.0
H340 H 0.24995 0.98554 0.95216 0.0
H341 H 0.2311 0.97946 0.93172 0.0
C342 C 0.10139 0.98334 0.20915 0.0
C343 C 0.13416 0.99731 0.19416 0.0
C344 C 0.19663 0.06613 0.20093 0.0
C345 C 0.2494 0.07847 0.19999 0.0
C346 C 0.26736 0.12809 0.20391 0.0
C347 C 0.23172 0.1657 0.20963 0.0
C348 C 0.17786 0.15427 0.20997 0.0
C349 C 0.16077 0.10481 0.20537 0.0
C350 C 0.32484 0.13931 0.20272 0.0
C351 C 0.13857 0.19348 0.21586 0.0
C352 C 0.17775 0.5839 0.18083 0.0
C353 C 0.1835 0.53634 0.19124 0.0
C354 C 0.23749 0.45999 0.1961 0.0
C355 C 0.19999 0.43485 0.20585 0.0
C356 C 0.20828 0.38445 0.21187 0.0
C357 C 0.25502 0.358 0.20813 0.0
C358 C 0.29252 0.38253 0.1981 0.0
C359 C 0.28335 0.43332 0.19228 0.0
C360 C 0.16743 0.35991 0.22261 0.0
C361 C 0.34279 0.35551 0.1939 0.0
C362 C 0.38249 0.44542 0.30152 0.0
C363 C 0.33141 0.43512 0.29699 0.0
C364 C 0.31795 0.38681 0.29076 0.0
C365 C 0.35751 0.34962 0.28772 0.0
C366 C 0.4094 0.36013 0.29225 0.0
C367 C 0.42087 0.40752 0.29957 0.0
C368 C 0.26139 0.37638 0.28726 0.0
C369 C 0.45291 0.32195 0.28918 0.0
C370 C 0.31821 0.03579 0.34641 0.0
C371 C 0.32662 0.00458 0.33092 0.0
C372 C 0.34994 0.07296 0.31092 0.0
C373 C 0.30087 0.09682 0.30979 0.0
C374 C 0.29338 0.14009 0.29962 0.0
C375 C 0.33549 0.15917 0.29024 0.0
C376 C 0.38436 0.13403 0.291 0.0
C377 C 0.39091 0.09149 0.30141 0.0
C378 C 0.24092 0.16634 0.2992 0.0
C379 C 0.4301 0.15291 0.28112 0.0
C380 C 0.2515 0.21348 0.21737 0.0
C381 C 0.24837 0.26124 0.20917 0.0
C382 C 0.26626 0.30714 0.21613 0.0
C383 C 0.28926 0.30509 0.23144 0.0
C384 C 0.30969 0.34991 0.23849 0.0
C385 C 0.32982 0.34822 0.25385 0.0
C386 C 0.32877 0.30205 0.263 0.0
C387 C 0.34467 0.30114 0.27916 0.0
C388 C 0.34532 0.2542 0.2877 0.0
C389 C 0.33007 0.20777 0.28061 0.0
C390 C 0.31159 0.2084 0.2647 0.0
C391 C 0.29352 0.16307 0.25741 0.0
C392 C 0.27368 0.16462 0.24197 0.0
C393 C 0.27216 0.21141 0.23304 0.0
C394 C 0.29115 0.25734 0.24005 0.0
C395 C 0.31073 0.25586 0.2559 0.0
C396 C 0.45436 0.54045 0.29302 0.0
C397 C 0.39824 0.5377 0.29972 0.0
O398 O 0.18272 0.01611 0.19813 0.0
O399 O 0.36045 0.03318 0.32125 0.0
O400 O 0.39488 0.49132 0.30822 0.0
O401 O 0.23014 0.50916 0.19009 0.0
H402 H 0.11112 0.02804 0.18801 0.0
H403 H 0.08723 0.01908 0.21508 0.0
H404 H 0.12351 0.96109 0.21822 0.0
H405 H 0.06662 0.96057 0.20571 0.0
H406 H 0.27676 0.04865 0.19635 0.0
H407 H 0.11969 0.09626 0.2059 0.0
H408 H 0.33171 0.17931 0.19807 0.0
H409 H 0.34526 0.11125 0.19482 0.0
H410 H 0.34217 0.13642 0.21481 0.0
H411 H 0.09841 0.17765 0.2162 0.0
H412 H 0.13922 0.22816 0.20786 0.0
H413 H 0.14888 0.20647 0.22806 0.0
H414 H 0.17149 0.54228 0.20396 0.0
H415 H 0.11913 0.56299 0.1654 0.0
H416 H 0.2182 0.59437 0.17667 0.0
H417 H 0.17375 0.61734 0.18932 0.0
H418 H 0.16416 0.45442 0.209 0.0
H419 H 0.31206 0.45245 0.18471 0.0
H420 H 0.18377 0.35296 0.2347 0.0
H421 H 0.15581 0.32168 0.21778 0.0
H422 H 0.13214 0.38457 0.22383 0.0
H423 H 0.36626 0.37794 0.18501 0.0
H424 H 0.33459 0.31644 0.18901 0.0
H425 H 0.36612 0.34988 0.2049 0.0
H426 H 0.37023 0.53808 0.28964 0.0
H427 H 0.30174 0.46455 0.29843 0.0
H428 H 0.46019 0.41594 0.30331 0.0
H429 H 0.25301 0.38787 0.27471 0.0
H430 H 0.23543 0.39956 0.29515 0.0
H431 H 0.25161 0.33464 0.28887 0.0
H432 H 0.49181 0.33977 0.2908 0.0
H433 H 0.45063 0.3065 0.27684 0.0
H434 H 0.44918 0.28868 0.29766 0.0
H435 H 0.28907 0.99854 0.32473 0.0
H436 H 0.35396 0.03502 0.35378 0.0
H437 H 0.28518 0.02097 0.35368 0.0
H438 H 0.3092 0.07702 0.34354 0.0
H439 H 0.26873 0.08284 0.31706 0.0
H440 H 0.42854 0.07269 0.30231 0.0
H441 H 0.2258 0.1663 0.2868 0.0
H442 H 0.24485 0.20752 0.30283 0.0
H443 H 0.2121 0.14696 0.30723 0.0
H444 H 0.46393 0.12612 0.28188 0.0
H445 H 0.44225 0.19173 0.28537 0.0
H446 H 0.4188 0.15726 0.26838 0.0
H447 H 0.23077 0.26288 0.19743 0.0
H448 H 0.31035 0.38693 0.23223 0.0
H449 H 0.3454 0.38394 0.25855 0.0
H450 H 0.35768 0.25378 0.30009 0.0
H451 H 0.29365 0.12605 0.26368 0.0
H452 H 0.25918 0.12856 0.2372 0.0
H453 H 0.48255 0.54389 0.30296 0.0
H454 H 0.46058 0.57305 0.28451 0.0
H455 H 0.4637 0.50454 0.28631 0.0
C456 C 0.59095 0.45452 0.3228 0.0
C457 C 0.64685 0.47559 0.32377 0.0
C458 C 0.68845 0.42153 0.30403 0.0
C459 C 0.73399 0.39823 0.30963 0.0
C460 C 0.75103 0.35042 0.30349 0.0
C461 C 0.72139 0.32543 0.29162 0.0
C462 C 0.67462 0.3486 0.28622 0.0
C463 C 0.65913 0.39689 0.29235 0.0
C464 C 0.80131 0.32719 0.30939 0.0
C465 C 0.6416 0.32282 0.27378 0.0
C466 C 0.66158 0.91282 0.3126 0.0
C467 C 0.69085 0.93867 0.29933 0.0
C468 C 0.72598 0.02723 0.30192 0.0
C469 C 0.68457 0.05352 0.29448 0.0
C470 C 0.68944 0.10602 0.28997 0.0
C471 C 0.73603 0.13278 0.29329 0.0
C472 C 0.77525 0.10792 0.30234 0.0
C473 C 0.76983 0.05525 0.30642 0.0
C474 C 0.64616 0.13204 0.2808 0.0
C475 C 0.82452 0.13593 0.3067 0.0
C476 C 0.91504 0.04182 0.20634 0.0
C477 C 0.86517 0.06155 0.2032 0.0
C478 C 0.84894 0.10929 0.20954 0.0
C479 C 0.8833 0.13789 0.21921 0.0
C480 C 0.93442 0.11924 0.22177 0.0
C481 C 0.94978 0.07158 0.21514 0.0
C482 C 0.79486 0.12892 0.20604 0.0
C483 C 0.97244 0.14918 0.23174 0.0
C484 C 0.8357 0.54523 0.21506 0.0
C485 C 0.88954 0.52583 0.20946 0.0
C486 C 0.879 0.43212 0.20589 0.0
C487 C 0.84129 0.39901 0.19981 0.0
C488 C 0.83572 0.34818 0.20575 0.0
C489 C 0.86976 0.32999 0.21777 0.0
C490 C 0.91079 0.36194 0.22301 0.0
C491 C 0.91482 0.41294 0.21708 0.0
C492 C 0.79206 0.31477 0.19972 0.0
C493 C 0.94905 0.34285 0.23534 0.0
C494 C 0.74103 0.27696 0.28408 0.0
C495 C 0.7302 0.22922 0.29157 0.0
C496 C 0.74775 0.18256 0.28493 0.0
C497 C 0.77683 0.18316 0.27046 0.0
C498 C 0.79476 0.13684 0.26343 0.0
C499 C 0.82396 0.13776 0.24935 0.0
C500 C 0.83584 0.18496 0.24157 0.0
C501 C 0.86501 0.18625 0.2271 0.0
C502 C 0.87602 0.23397 0.21968 0.0
C503 C 0.85835 0.28055 0.2263 0.0
C504 C 0.82907 0.27999 0.24071 0.0
C505 C 0.81052 0.32626 0.24759 0.0
C506 C 0.78203 0.32541 0.26181 0.0
C507 C 0.77032 0.27822 0.26964 0.0
C508 C 0.78832 0.23114 0.26284 0.0
C509 C 0.81785 0.23203 0.24838 0.0
C510 C 0.92521 0.90776 0.20926 0.0
C511 C 0.90038 0.95106 0.19918 0.0
O512 O 0.67344 0.46868 0.30947 0.0
O513 O 0.88032 0.48189 0.20041 0.0
O514 O 0.93117 0.99494 0.20072 0.0
O515 O 0.72636 0.9751 0.3046 0.0
H516 H 0.66535 0.45139 0.33324 0.0
H517 H 0.59175 0.4115 0.32185 0.0
H518 H 0.56999 0.47008 0.31224 0.0
H519 H 0.56866 0.46447 0.33381 0.0
H520 H 0.75654 0.41804 0.3186 0.0
H521 H 0.62401 0.41557 0.28809 0.0
H522 H 0.79392 0.28794 0.31454 0.0
H523 H 0.81994 0.35153 0.31862 0.0
H524 H 0.82884 0.32257 0.29918 0.0
H525 H 0.60388 0.34316 0.27205 0.0
H526 H 0.63385 0.28181 0.27729 0.0
H527 H 0.66291 0.32246 0.26217 0.0
H528 H 0.66836 0.9512 0.28865 0.0
H529 H 0.61983 0.92411 0.31061 0.0
H530 H 0.6665 0.93752 0.32353 0.0
H531 H 0.68668 0.8372 0.31164 0.0
H532 H 0.64904 0.03327 0.29173 0.0
H533 H 0.80095 0.03505 0.31257 0.0
H534 H 0.65983 0.14137 0.26845 0.0
H535 H 0.6353 0.16921 0.28658 0.0
H536 H 0.61102 0.10718 0.28007 0.0
H537 H 0.84635 0.1149 0.31619 0.0
H538 H 0.81554 0.17583 0.31087 0.0
H539 H 0.84996 0.13941 0.29594 0.0
H540 H 0.86169 0.95892 0.20455 0.0
H541 H 0.83898 0.03989 0.19571 0.0
H542 H 0.9886 0.05662 0.21717 0.0
H543 H 0.77136 0.12874 0.21725 0.0
H544 H 0.77473 0.10476 0.19707 0.0
H545 H 0.79655 0.16966 0.20155 0.0
H546 H 0.01041 0.12887 0.23288 0.0
H547 H 0.95585 0.15535 0.24389 0.0
H548 H 0.97923 0.18806 0.22624 0.0
H549 H 0.91339 0.51685 0.22013 0.0
H550 H 0.83799 0.57524 0.2244 0.0
H551 H 0.81327 0.51244 0.22041 0.0
H552 H 0.81339 0.56095 0.20475 0.0
H553 H 0.81477 0.4139 0.19086 0.0
H554 H 0.94603 0.43743 0.22118 0.0
H555 H 0.765 0.30516 0.20975 0.0
H556 H 0.808 0.27762 0.19513 0.0
H557 H 0.76976 0.33424 0.19004 0.0
H558 H 0.98302 0.36918 0.23636 0.0
H559 H 0.96313 0.30333 0.23226 0.0
H560 H 0.92936 0.34021 0.2472 0.0
H561 H 0.70798 0.22837 0.30266 0.0
H562 H 0.78657 0.09915 0.26871 0.0
H563 H 0.83693 0.10089 0.24462 0.0
H564 H 0.89811 0.23484 0.20856 0.0
H565 H 0.81784 0.36385 0.24211 0.0
H566 H 0.7692 0.36232 0.26655 0.0
H567 H 0.90091 0.87216 0.20938 0.0
H568 H 0.92932 0.92077 0.22183 0.0
H569 H 0.96445 0.89797 0.20447 0.0
C570 C 0.70859 0.46192 0.70622 0.0
C571 C 0.70941 0.49605 0.691 0.0
C572 C 0.75732 0.57527 0.6976 0.0
C573 C 0.80392 0.60207 0.69523 0.0
C574 C 0.8122 0.65051 0.70228 0.0
C575 C 0.77243 0.67282 0.71178 0.0
C576 C 0.72466 0.64664 0.71397 0.0
C577 C 0.71783 0.59778 0.70708 0.0
C578 C 0.86374 0.67747 0.69982 0.0
C579 C 0.68125 0.66977 0.72392 0.0
C580 C 0.77802 0.07154 0.69133 0.0
C581 C 0.72313 0.04828 0.69336 0.0
C582 C 0.7371 0.9555 0.69367 0.0
C583 C 0.70744 0.93766 0.70673 0.0
C584 C 0.72135 0.89211 0.71504 0.0
C585 C 0.76683 0.86461 0.71041 0.0
C586 C 0.79634 0.88227 0.69702 0.0
C587 C 0.78051 0.92715 0.68865 0.0
C588 C 0.68715 0.87341 0.7287 0.0
C589 C 0.84479 0.85407 0.69162 0.0
C590 C 0.87957 0.96843 0.80466 0.0
C591 C 0.82913 0.95012 0.80237 0.0
C592 C 0.82049 0.9008 0.79598 0.0
C593 C 0.86356 0.8697 0.79146 0.0
C594 C 0.91468 0.88709 0.79446 0.0
C595 C 0.92199 0.93588 0.80142 0.0
C596 C 0.76527 0.88242 0.79387 0.0
C597 C 0.9615 0.85451 0.79014 0.0
C598 C 0.79068 0.47478 0.81743 0.0
C599 C 0.84625 0.49535 0.81986 0.0
C600 C 0.84261 0.58877 0.81487 0.0
C601 C 0.80277 0.62551 0.81573 0.0
C602 C 0.80328 0.66998 0.80587 0.0
C603 C 0.84592 0.67883 0.79533 0.0
C604 C 0.88757 0.6427 0.79493 0.0
C605 C 0.88507 0.59759 0.80454 0.0
C606 C 0.75811 0.70744 0.80672 0.0
C607 C 0.93481 0.6519 0.78445 0.0
C608 C 0.782 0.72205 0.72022 0.0
C609 C 0.77265 0.76874 0.71207 0.0
C610 C 0.78226 0.81654 0.71925 0.0
C611 C 0.8033 0.81768 0.73485 0.0
C612 C 0.81727 0.86467 0.74204 0.0
C613 C 0.83569 0.86545 0.75764 0.0
C614 C 0.83976 0.81936 0.76679 0.0
C615 C 0.85488 0.82013 0.78302 0.0
C616 C 0.85828 0.7737 0.79179 0.0
C617 C 0.84658 0.72597 0.78483 0.0
C618 C 0.83185 0.7244 0.76855 0.0
C619 C 0.8202 0.67722 0.76107 0.0
C620 C 0.80533 0.6762 0.74512 0.0
C621 C 0.79934 0.7225 0.73621 0.0
C622 C 0.8104 0.77051 0.74351 0.0
C623 C 0.8278 0.77137 0.75959 0.0
C624 C 0.96106 0.05655 0.7995 0.0
C625 C 0.90174 0.06005 0.80249 0.0
O626 O 0.75255 0.52801 0.69063 0.0
O627 O 0.84035 0.54645 0.8247 0.0
O628 O 0.88679 0.01595 0.81111 0.0
O629 O 0.72463 0.0004 0.68591 0.0
H630 H 0.67309 0.51931 0.69166 0.0
H631 H 0.70119 0.48641 0.71687 0.0
H632 H 0.74603 0.44156 0.70815 0.0
H633 H 0.67689 0.43275 0.7056 0.0
H634 H 0.83417 0.58448 0.68796 0.0
H635 H 0.68172 0.57769 0.70942 0.0
H636 H 0.85741 0.71616 0.69416 0.0
H637 H 0.89083 0.65476 0.69216 0.0
H638 H 0.88229 0.68393 0.71158 0.0
H639 H 0.64458 0.64728 0.72304 0.0
H640 H 0.67368 0.71047 0.72004 0.0
H641 H 0.69297 0.6706 0.73667 0.0
H642 H 0.7149 0.04273 0.70636 0.0
H643 H 0.78601 0.08057 0.67851 0.0
H644 H 0.80764 0.04315 0.69553 0.0
H645 H 0.78357 0.10726 0.69838 0.0
H646 H 0.67312 0.95925 0.71032 0.0
H647 H 0.80286 0.94117 0.67844 0.0
H648 H 0.68059 0.83087 0.72794 0.0
H649 H 0.64883 0.89341 0.72885 0.0
H650 H 0.70665 0.88111 0.74023 0.0
H651 H 0.86767 0.87714 0.68273 0.0
H652 H 0.83369 0.81682 0.68602 0.0
H653 H 0.86987 0.84481 0.70202 0.0
H654 H 0.88113 0.06147 0.79084 0.0
H655 H 0.79633 0.97434 0.80553 0.0
H656 H 0.96086 0.94857 0.80429 0.0
H657 H 0.75466 0.8857 0.78105 0.0
H658 H 0.73714 0.90592 0.80092 0.0
H659 H 0.76134 0.84101 0.79753 0.0
H660 H 0.99866 0.8752 0.79224 0.0
H661 H 0.95984 0.84339 0.77734 0.0
H662 H 0.96123 0.81815 0.79739 0.0
H663 H 0.86774 0.49372 0.80827 0.0
H664 H 0.78964 0.43598 0.81188 0.0
H665 H 0.76908 0.50152 0.80934 0.0
H666 H 0.76951 0.47283 0.82908 0.0
H667 H 0.77062 0.61865 0.82395 0.0
H668 H 0.91682 0.5699 0.8043 0.0
H669 H 0.7439 0.71676 0.79451 0.0
H670 H 0.77116 0.74428 0.81218 0.0
H671 H 0.72526 0.69174 0.814 0.0
H672 H 0.9667 0.62406 0.78714 0.0
H673 H 0.94943 0.69209 0.78601 0.0
H674 H 0.92404 0.64765 0.7717 0.0
H675 H 0.75707 0.76782 0.70005 0.0
H676 H 0.81404 0.90136 0.73566 0.0
H677 H 0.84587 0.90283 0.76252 0.0
H678 H 0.86866 0.77489 0.80434 0.0
H679 H 0.82267 0.64046 0.76743 0.0
H680 H 0.79747 0.63861 0.73999 0.0
H681 H 0.98144 0.04736 0.81086 0.0
H682 H 0.97838 0.09237 0.79442 0.0
H683 H 0.96973 0.02585 0.79065 0.0
C684 C 0.78924 0.72839 0.04092 0.0
C685 C 0.76877 0.68161 0.05068 0.0
C686 C 0.70156 0.62482 0.04118 0.0
C687 C 0.69371 0.57301 0.04557 0.0
C688 C 0.6439 0.55113 0.04525 0.0
C689 C 0.60159 0.5814 0.03964 0.0
C690 C 0.60915 0.63465 0.03585 0.0
C691 C 0.65926 0.65595 0.03681 0.0
C692 C 0.63723 0.49475 0.04994 0.0
C693 C 0.565 0.66811 0.02992 0.0
C694 C 0.19528 0.59353 0.07843 0.0
C695 C 0.22578 0.56145 0.06698 0.0
C696 C 0.31857 0.54069 0.06707 0.0
C697 C 0.33498 0.58213 0.05715 0.0
C698 C 0.38321 0.58043 0.04914 0.0
C699 C 0.41646 0.53716 0.05146 0.0
C700 C 0.40217 0.49786 0.06264 0.0
C701 C 0.35323 0.50006 0.07024 0.0
C702 C 0.39782 0.62407 0.03776 0.0
C703 C 0.43757 0.45234 0.066 0.0
C704 C 0.32079 0.3216 0.97493 0.0
C705 C 0.32499 0.3746 0.97101 0.0
C706 C 0.37122 0.40173 0.97375 0.0
C707 C 0.41358 0.37556 0.98096 0.0
C708 C 0.40985 0.32178 0.98449 0.0
C709 C 0.36364 0.29527 0.98116 0.0
C710 C 0.37447 0.45852 0.96915 0.0
C711 C 0.45427 0.29265 0.99209 0.0
C712 C 0.78788 0.50617 0.94257 0.0
C713 C 0.77813 0.44762 0.94458 0.0
C714 C 0.68545 0.43154 0.94887 0.0
C715 C 0.64062 0.45791 0.94412 0.0
C716 C 0.59551 0.45722 0.9537 0.0
C717 C 0.59495 0.42795 0.96814 0.0
C718 C 0.63941 0.39853 0.97249 0.0
C719 C 0.68442 0.40097 0.96285 0.0
C720 C 0.54901 0.48898 0.94861 0.0
C721 C 0.63966 0.3653 0.98747 0.0
C722 C 0.55295 0.55491 0.03489 0.0
C723 C 0.50896 0.55742 0.04486 0.0
C724 C 0.46334 0.53072 0.04105 0.0
C725 C 0.46213 0.49939 0.02718 0.0
C726 C 0.41769 0.47067 0.02319 0.0
C727 C 0.4173 0.43925 0.00974 0.0
C728 C 0.46084 0.4363 0.99946 0.0
C729 C 0.46051 0.40513 0.9856 0.0
C730 C 0.50477 0.40256 0.97575 0.0
C731 C 0.54938 0.43121 0.97921 0.0
C732 C 0.54986 0.46348 0.99282 0.0
C733 C 0.59322 0.49432 0.99632 0.0
C734 C 0.59403 0.52471 0.00994 0.0
C735 C 0.55143 0.5257 0.02065 0.0
C736 C 0.50642 0.49683 0.017 0.0
C737 C 0.50572 0.46546 0.00309 0.0
C738 C 0.19457 0.27273 0.98304 0.0
C739 C 0.2265 0.31398 0.97401 0.0
O740 O 0.75054 0.64368 0.04061 0.0
O741 O 0.72859 0.43499 0.93947 0.0
O742 O 0.27642 0.29455 0.97222 0.0
O743 O 0.26971 0.53813 0.07347 0.0
H744 H 0.7364 0.69888 0.05779 0.0
H745 H 0.75592 0.75015 0.03575 0.0
H746 H 0.81455 0.71689 0.03077 0.0
H747 H 0.81101 0.75535 0.04868 0.0
H748 H 0.72685 0.54963 0.04911 0.0
H749 H 0.666 0.6962 0.03348 0.0
H750 H 0.60005 0.48878 0.05657 0.0
H751 H 0.6698 0.48064 0.05748 0.0
H752 H 0.63619 0.47079 0.03897 0.0
H753 H 0.57712 0.70897 0.02768 0.0
H754 H 0.53283 0.6678 0.03886 0.0
H755 H 0.54961 0.65195 0.01864 0.0
H756 H 0.23247 0.57857 0.05482 0.0
H757 H 0.19909 0.6345 0.07373 0.0
H758 H 0.22061 0.59962 0.08918 0.0
H759 H 0.12448 0.55544 0.07995 0.0
H760 H 0.31001 0.61557 0.0554 0.0
H761 H 0.34102 0.46894 0.07826 0.0
H762 H 0.40496 0.6084 0.0256 0.0
H763 H 0.43443 0.64241 0.04176 0.0
H764 H 0.36719 0.65447 0.03701 0.0
H765 H 0.42515 0.43017 0.07685 0.0
H766 H 0.47818 0.46581 0.06759 0.0
H767 H 0.43729 0.42567 0.05564 0.0
H768 H 0.22896 0.34817 0.98192 0.0
H769 H 0.29238 0.39459 0.96559 0.0
H770 H 0.36024 0.25413 0.98384 0.0
H771 H 0.37305 0.48243 0.98013 0.0
H772 H 0.34193 0.4707 0.9613 0.0
H773 H 0.41185 0.46685 0.96289 0.0
H774 H 0.44515 0.25095 0.9942 0.0
H775 H 0.46422 0.31073 0.00367 0.0
H776 H 0.48904 0.29554 0.98419 0.0
H777 H 0.78008 0.44172 0.95763 0.0
H778 H 0.82617 0.51631 0.94773 0.0
H779 H 0.75736 0.52827 0.94911 0.0
H780 H 0.78778 0.51912 0.92989 0.0
H781 H 0.64169 0.4805 0.9331 0.0
H782 H 0.71861 0.37879 0.96613 0.0
H783 H 0.53733 0.51583 0.95833 0.0
H784 H 0.51567 0.46279 0.94639 0.0
H785 H 0.55686 0.51213 0.93755 0.0
H786 H 0.67452 0.33982 0.98808 0.0
H787 H 0.60418 0.34081 0.98806 0.0
H788 H 0.63932 0.3906 0.99815 0.0
H789 H 0.5102 0.5804 0.05566 0.0
H790 H 0.38274 0.47168 0.03049 0.0
H791 H 0.38223 0.41744 0.00749 0.0
H792 H 0.50427 0.37844 0.96518 0.0
H793 H 0.62725 0.49524 0.9886 0.0
H794 H 0.62867 0.54745 0.01192 0.0
H795 H 0.19274 0.2364 0.97602 0.0
H796 H 0.15434 0.28641 0.98547 0.0
H797 H 0.21304 0.26368 0.99471 0.0
C798 C 0.82148 0.62525 0.41666 0.0
C799 C 0.7843 0.59462 0.42776 0.0
C800 C 0.83729 0.59303 0.45204 0.0
C801 C 0.86396 0.54588 0.45006 0.0
C802 C 0.90823 0.53438 0.45915 0.0
C803 C 0.92658 0.5711 0.47026 0.0
C804 C 0.89997 0.61884 0.47218 0.0
C805 C 0.85499 0.62867 0.46325 0.0
C806 C 0.93519 0.48274 0.45697 0.0
C807 C 0.91899 0.65942 0.48364 0.0
C808 C 0.33349 0.55367 0.46426 0.0
C809 C 0.30966 0.6073 0.46033 0.0
C810 C 0.21674 0.58844 0.45905 0.0
C811 C 0.19654 0.6205 0.47108 0.0
C812 C 0.14752 0.61049 0.47796 0.0
C813 C 0.11863 0.56687 0.47291 0.0
C814 C 0.13853 0.5352 0.46051 0.0
C815 C 0.18706 0.54701 0.45356 0.0
C816 C 0.12663 0.64665 0.49062 0.0
C817 C 0.10885 0.48866 0.4547 0.0
C818 C 0.20155 0.41916 0.5632 0.0
C819 C 0.18708 0.47169 0.56386 0.0
C820 C 0.13807 0.48808 0.55848 0.0
C821 C 0.10334 0.45124 0.55205 0.0
C822 C 0.11681 0.39789 0.55224 0.0
C823 C 0.16558 0.3825 0.55804 0.0
C824 C 0.12419 0.54502 0.55909 0.0
C825 C 0.08062 0.35744 0.54567 0.0
C826 C 0.68715 0.53316 0.55756 0.0
C827 C 0.71773 0.48426 0.56231 0.0
C828 C 0.81131 0.49004 0.56625 0.0
C829 C 0.84706 0.53009 0.56837 0.0
C830 C 0.89734 0.52718 0.5617 0.0
C831 C 0.91233 0.48257 0.55299 0.0
C832 C 0.87761 0.44017 0.55192 0.0
C833 C 0.82739 0.44436 0.55856 0.0
C834 C 0.93363 0.57276 0.56333 0.0
C835 C 0.89286 0.39138 0.54319 0.0
C836 C 0.97348 0.55919 0.47988 0.0
C837 C 0.02224 0.5675 0.47277 0.0
C838 C 0.06799 0.55425 0.48076 0.0
C839 C 0.06511 0.53096 0.49615 0.0
C840 C 0.11001 0.51363 0.50405 0.0
C841 C 0.10699 0.49225 0.51938 0.0
C842 C 0.05906 0.48843 0.52759 0.0
C843 C 0.05599 0.46904 0.54349 0.0
C844 C 0.00778 0.46681 0.55141 0.0
C845 C 0.96211 0.48261 0.54373 0.0
C846 C 0.9644 0.50047 0.52764 0.0
C847 C 0.91917 0.5148 0.51931 0.0
C848 C 0.92188 0.53284 0.50356 0.0
C849 C 0.97006 0.53906 0.49569 0.0
C850 C 0.01609 0.52475 0.50382 0.0
C851 C 0.01316 0.50438 0.51968 0.0
C852 C 0.30914 0.40961 0.5461 0.0
C853 C 0.29655 0.42599 0.56343 0.0
O854 O 0.79366 0.60495 0.44373 0.0
O855 O 0.76122 0.49722 0.57118 0.0
O856 O 0.24961 0.4024 0.56751 0.0
O857 O 0.26396 0.59745 0.45217 0.0
H858 H 0.79358 0.55361 0.42537 0.0
H859 H 0.8623 0.61344 0.41898 0.0
H860 H 0.81855 0.6678 0.41833 0.0
H861 H 0.81286 0.61656 0.40396 0.0
H862 H 0.84979 0.51736 0.44176 0.0
H863 H 0.83389 0.66482 0.46475 0.0
H864 H 0.97481 0.48927 0.452 0.0
H865 H 0.91381 0.45681 0.44878 0.0
H866 H 0.93944 0.46274 0.46873 0.0
H867 H 0.89706 0.6965 0.48253 0.0
H868 H 0.96091 0.66729 0.48146 0.0
H869 H 0.91478 0.64471 0.49611 0.0
H870 H 0.30175 0.6281 0.47168 0.0
H871 H 0.34741 0.53463 0.45312 0.0
H872 H 0.30363 0.52818 0.46994 0.0
H873 H 0.36595 0.5557 0.47281 0.0
H874 H 0.21843 0.654 0.47488 0.0
H875 H 0.2027 0.52309 0.44406 0.0
H876 H 0.08577 0.65754 0.48799 0.0
H877 H 0.15013 0.68266 0.49151 0.0
H878 H 0.12693 0.62654 0.50243 0.0
H879 H 0.13242 0.46442 0.44643 0.0
H880 H 0.07361 0.50209 0.4483 0.0
H881 H 0.09588 0.46417 0.465 0.0
H882 H 0.29329 0.46893 0.56395 0.0
H883 H 0.21376 0.49999 0.56859 0.0
H884 H 0.1768 0.34189 0.55792 0.0
H885 H 0.12666 0.56201 0.54685 0.0
H886 H 0.1508 0.56698 0.56693 0.0
H887 H 0.08365 0.55015 0.56349 0.0
H888 H 0.0968 0.3175 0.54673 0.0
H889 H 0.07286 0.36599 0.53286 0.0
H890 H 0.04282 0.35884 0.55217 0.0
H891 H 0.73167 0.46883 0.55075 0.0
H892 H 0.65455 0.5225 0.54961 0.0
H893 H 0.71305 0.5604 0.55088 0.0
H894 H 0.67082 0.55388 0.56802 0.0
H895 H 0.83459 0.5648 0.57457 0.0
H896 H 0.80029 0.41243 0.55747 0.0
H897 H 0.94226 0.5896 0.55131 0.0
H898 H 0.97105 0.55951 0.56851 0.0
H899 H 0.91699 0.60369 0.57103 0.0
H900 H 0.8637 0.35994 0.54483 0.0
H901 H 0.93118 0.37721 0.54745 0.0
H902 H 0.89687 0.40019 0.5302 0.0
H903 H 0.0246 0.58448 0.46084 0.0
H904 H 0.14805 0.51625 0.49844 0.0
H905 H 0.14297 0.47944 0.52476 0.0
H906 H 0.00583 0.45299 0.56371 0.0
H907 H 0.88103 0.51194 0.52483 0.0
H908 H 0.88572 0.54277 0.49774 0.0
H909 H 0.3426 0.43075 0.5408 0.0
H910 H 0.27545 0.41809 0.53826 0.0
H911 H 0.31718 0.3672 0.54565 0.0
Fe912 Fe 0.02343 0.74685 0.14418 0.0
O913 O 0.06311 0.76768 0.12456 0.0
Fe914 Fe 0.90079 0.71818 0.13089 0.0
Fe915 Fe 0.13877 0.75739 0.12225 0.0
O916 O 0.97666 0.71117 0.12888 0.0
O917 O 0.97593 0.71106 0.12718 0.0
O918 O 0.06253 0.76734 0.12303 0.0
Fe919 Fe 0.01242 0.73674 0.10739 0.0
C920 C 0.11469 0.82003 0.1525 0.0
O921 O 0.0665 0.68035 0.14685 0.0
O922 O 0.14707 0.70679 0.14175 0.0
O923 O 0.95465 0.69945 0.09402 0.0
O924 O 0.89915 0.66379 0.1129 0.0
O925 O 0.91363 0.66981 0.15007 0.0
O926 O 0.97691 0.7169 0.16291 0.0
O927 O 0.1357 0.69464 0.10674 0.0
O928 O 0.05317 0.66793 0.10624 0.0
C929 C 0.94259 0.67977 0.1623 0.0
O930 O 0.96862 0.80458 0.10659 0.0
O931 O 0.89076 0.77227 0.11302 0.0
O932 O 0.07702 0.78978 0.15741 0.0
O933 O 0.13971 0.81588 0.13898 0.0
C934 C 0.11518 0.67679 0.14894 0.0
C935 C 0.10111 0.66135 0.10316 0.0
C936 C 0.10023 0.79954 0.08977 0.0
O937 O 0.12985 0.80351 0.10221 0.0
O938 O 0.05915 0.76982 0.08888 0.0
C939 C 0.91722 0.6678 0.09836 0.0
O940 O 0.90373 0.77776 0.14724 0.0
O941 O 0.97986 0.81413 0.14285 0.0
C942 C 0.91899 0.80658 0.10617 0.0
C943 C 0.93245 0.81794 0.14711 0.0
Fe944 Fe 0.53035 0.75568 0.39524 0.0
O945 O 0.49283 0.71427 0.37908 0.0
Fe946 Fe 0.56301 0.86976 0.37526 0.0
Fe947 Fe 0.48969 0.6383 0.38004 0.0
O948 O 0.56167 0.79333 0.37659 0.0
O949 O 0.5615 0.79318 0.37519 0.0
O950 O 0.49211 0.71444 0.37772 0.0
Fe951 Fe 0.52389 0.75148 0.35891 0.0
C952 C 0.58892 0.65752 0.39933 0.0
O953 O 0.49057 0.71271 0.41306 0.0
O954 O 0.44143 0.65325 0.39926 0.0
O955 O 0.46204 0.8028 0.35854 0.0
O956 O 0.5033 0.87888 0.35925 0.0
O957 O 0.51041 0.88112 0.39411 0.0
O958 O 0.46918 0.80555 0.39567 0.0
O959 O 0.43656 0.64765 0.36179 0.0
O960 O 0.4789 0.70374 0.34447 0.0
C961 C 0.47144 0.85367 0.39843 0.0
O962 O 0.56394 0.79471 0.34136 0.0
O963 O 0.60929 0.85682 0.35531 0.0
O964 O 0.59151 0.70489 0.39507 0.0
O965 O 0.54822 0.63051 0.39702 0.0
C966 C 0.45229 0.67986 0.41192 0.0
C967 C 0.44148 0.67155 0.34804 0.0
C968 C 0.58066 0.65069 0.35601 0.0
O969 O 0.54276 0.62498 0.36191 0.0
O970 O 0.58514 0.69955 0.3577 0.0
C971 C 0.46365 0.85162 0.35604 0.0
O972 O 0.61804 0.85961 0.39273 0.0
O973 O 0.57523 0.80326 0.41004 0.0
C974 C 0.60079 0.82897 0.3427 0.0
C975 C 0.61208 0.8361 0.40644 0.0
Fe976 Fe 0.52537 0.29831 0.66406 0.0
O977 O 0.53016 0.29605 0.6405 0.0
Fe978 Fe 0.4711 0.25578 0.62884 0.0
Fe979 Fe 0.59073 0.2655 0.62862 0.0
O980 O 0.52503 0.29534 0.64057 0.0
O981 O 0.53124 0.22655 0.61661 0.0
O982 O 0.53617 0.22703 0.61658 0.0
Fe983 Fe 0.53222 0.22435 0.59307 0.0
C984 C 0.62836 0.34696 0.65292 0.0
O985 O 0.58338 0.24446 0.66776 0.0
O986 O 0.59666 0.20423 0.64459 0.0
O987 O 0.47861 0.16676 0.59725 0.0
O988 O 0.42263 0.20751 0.61503 0.0
O989 O 0.47543 0.19522 0.64487 0.0
O990 O 0.47086 0.23999 0.66743 0.0
O991 O 0.64638 0.22784 0.61481 0.0
O992 O 0.60038 0.18196 0.59595 0.0
C993 C 0.46422 0.19839 0.65965 0.0
O994 O 0.46838 0.27311 0.5902 0.0
O995 O 0.46397 0.31652 0.613 0.0
O996 O 0.58416 0.35154 0.66047 0.0
O997 O 0.63985 0.31115 0.64257 0.0
C998 C 0.60112 0.20647 0.65972 0.0
C999 C 0.64291 0.19422 0.60339 0.0
C1000 C 0.59705 0.32454 0.59727 0.0
O1001 O 0.59157 0.32668 0.61244 0.0
O1002 O 0.57991 0.28672 0.58925 0.0
C1003 C 0.43454 0.17114 0.60482 0.0
O1004 O 0.41463 0.29447 0.64291 0.0
O1005 O 0.46249 0.3457 0.65994 0.0
C1006 C 0.45232 0.31145 0.59841 0.0
C1007 C 0.41983 0.3333 0.65272 0.0
Fe1008 Fe 0.01109 0.25433 0.90327 0.0
O1009 O 0.97666 0.2211 0.88481 0.0
Fe1010 Fe 0.04656 0.37579 0.88893 0.0
Fe1011 Fe 0.97278 0.14561 0.88253 0.0
O1012 O 0.04528 0.29977 0.88685 0.0
O1013 O 0.04573 0.30008 0.88533 0.0
O1014 O 0.97691 0.22144 0.88348 0.0
Fe1015 Fe 0.00914 0.26786 0.86689 0.0
C1016 C 0.06901 0.15473 0.90385 0.0
O1017 O 0.96893 0.2042 0.9183 0.0
O1018 O 0.92037 0.15385 0.9013 0.0
O1019 O 0.94732 0.31833 0.86904 0.0
O1020 O 0.98957 0.3921 0.8725 0.0
O1021 O 0.99038 0.3788 0.90709 0.0
O1022 O 0.94903 0.30345 0.90541 0.0
O1023 O 0.92307 0.16331 0.86378 0.0
O1024 O 0.96553 0.22859 0.84992 0.0
C1025 C 0.95022 0.35067 0.90942 0.0
O1026 O 0.04681 0.32245 0.85202 0.0
O1027 O 0.09532 0.37276 0.86911 0.0
O1028 O 0.07228 0.20356 0.90179 0.0
O1029 O 0.02832 0.12955 0.90002 0.0
C1030 C 0.92866 0.17602 0.91495 0.0
C1031 C 0.92969 0.19319 0.85123 0.0
C1032 C 0.06732 0.16839 0.86014 0.0
O1033 O 0.02966 0.14007 0.86505 0.0
O1034 O 0.07051 0.21694 0.86303 0.0
C1035 C 0.95002 0.36748 0.86765 0.0
O1036 O 0.09894 0.35743 0.90668 0.0
O1037 O 0.05327 0.29413 0.92069 0.0
C1038 C 0.08116 0.35822 0.85494 0.0
C1039 C 0.09091 0.32759 0.91908 0.0
C1040 C 0.36517 0.84992 0.42908 0.0
C1041 C 0.33273 0.89221 0.42408 0.0
C1042 C 0.39857 0.91744 0.40397 0.0
C1043 C 0.4298 0.87495 0.40884 0.0
N1044 N 0.45286 0.81607 0.43019 0.0
N1045 N 0.33292 0.97887 0.41221 0.0
C1046 C 0.4164 0.84651 0.42286 0.0
C1047 C 0.35378 0.93011 0.41323 0.0
N1048 N 0.34734 0.81152 0.43916 0.0
N1049 N 0.41005 0.9445 0.39026 0.0
H1050 H 0.30497 0.99265 0.4202 0.0
H1051 H 0.34921 0.00826 0.40511 0.0
H1052 H 0.44278 0.93698 0.38322 0.0
H1053 H 0.38467 0.97164 0.38523 0.0
H1054 H 0.36862 0.77809 0.44173 0.0
H1055 H 0.31035 0.80984 0.44419 0.0
H1056 H 0.44705 0.79836 0.44133 0.0
H1057 H 0.49102 0.81362 0.426 0.0
C1058 C 0.36525 0.0929 0.66941 0.0
C1059 C 0.39024 0.06624 0.68226 0.0
C1060 C 0.46434 0.12551 0.67986 0.0
C1061 C 0.43842 0.15362 0.66761 0.0
N1062 N 0.36308 0.16444 0.65073 0.0
N1063 N 0.47381 0.04247 0.6931 0.0
C1064 C 0.38894 0.13708 0.66231 0.0
C1065 C 0.44292 0.07813 0.68555 0.0
N1066 N 0.31949 0.07644 0.66318 0.0
N1067 N 0.50872 0.14446 0.68644 0.0
H1068 H 0.4614 0.00478 0.69566 0.0
H1069 H 0.51371 0.04743 0.69451 0.0
H1070 H 0.52544 0.17946 0.68288 0.0
H1071 H 0.52606 0.12788 0.6965 0.0
H1072 H 0.30032 0.04243 0.66662 0.0
H1073 H 0.30032 0.04243 0.66662 0.0
H1074 H 0.32648 0.15362 0.64664 0.0
H1075 H 0.37763 0.19821 0.6454 0.0
C1076 C 0.18641 0.06904 0.91395 0.0
C1077 C 0.1997 0.08867 0.92929 0.0
C1078 C 0.12643 0.14965 0.92786 0.0
C1079 C 0.11153 0.12868 0.91294 0.0
N1080 N 0.12248 0.06271 0.89287 0.0
N1081 N 0.19619 0.16378 0.94634 0.0
C1082 C 0.1401 0.08669 0.90629 0.0
C1083 C 0.1737 0.13366 0.93496 0.0
N1084 N 0.22029 0.03712 0.90605 0.0
N1085 N 0.09393 0.18298 0.93576 0.0
H1086 H 0.2341 0.15793 0.95021 0.0
H1087 H 0.18069 0.19906 0.95005 0.0
H1088 H 0.05756 0.19356 0.93144 0.0
H1089 H 0.10024 0.19527 0.94742 0.0
H1090 H 0.21567 0.02589 0.89422 0.0
H1091 H 0.2565 0.02684 0.91056 0.0
H1092 H 0.13744 0.02773 0.88867 0.0
H1093 H 0.09067 0.07592 0.88637 0.0
C1094 C 0.13541 0.95941 0.16604 0.0
C1095 C 0.1411 0.95139 0.18275 0.0
C1096 C 0.14392 0.85703 0.17868 0.0
C1097 C 0.12801 0.86504 0.16262 0.0
N1098 N 0.10758 0.92433 0.1408 0.0
N1099 N 0.18104 0.89512 0.20236 0.0
C1100 C 0.12452 0.91634 0.15612 0.0
C1101 C 0.15421 0.9008 0.18842 0.0
N1102 N 0.1435 0.00776 0.15956 0.0
N1103 N 0.149 0.80765 0.18466 0.0
H1104 H 0.19532 0.92676 0.20862 0.0
H1105 H 0.1954 0.85974 0.20657 0.0
H1106 H 0.14667 0.77464 0.17756 0.0
H1107 H 0.15326 0.79928 0.1968 0.0
H1108 H 0.14485 0.01535 0.1473 0.0
H1109 H 0.15598 0.03916 0.16631 0.0
H1110 H 0.09947 0.96091 0.136 0.0
H1111 H 0.09605 0.89462 0.13325 0.0
C1112 C 0.34759 0.05205 0.60498 0.0
C1113 C 0.34014 0.04677 0.58814 0.0
C1114 C 0.37476 0.13528 0.58458 0.0
C1115 C 0.39435 0.13325 0.6003 0.0
N1116 N 0.40383 0.08675 0.62525 0.0
N1117 N 0.34519 0.08812 0.5617 0.0
C1118 C 0.3814 0.09124 0.61056 0.0
C1119 C 0.35268 0.08997 0.57787 0.0
N1120 N 0.32262 0.02013 0.61568 0.0
N1121 N 0.37661 0.18101 0.57613 0.0
H1122 H 0.32303 0.0604 0.55593 0.0
H1123 H 0.36209 0.11468 0.55373 0.0
H1124 H 0.39139 0.21504 0.58098 0.0
H1125 H 0.35831 0.18662 0.56517 0.0
H1126 H 0.32392 0.02582 0.62801 0.0
H1127 H 0.29616 0.99182 0.61234 0.0
H1128 H 0.39993 0.05375 0.6325 0.0
H1129 H 0.42974 0.11422 0.62959 0.0
C1130 C 0.17245 0.07737 0.84607 0.0
C1131 C 0.14633 0.05836 0.83236 0.0
C1132 C 0.08802 0.13383 0.8331 0.0
C1133 C 0.10466 0.14359 0.84889 0.0
N1134 N 0.1701 0.13564 0.86896 0.0
N1135 N 0.09692 0.08264 0.80897 0.0
C1136 C 0.14995 0.11929 0.85482 0.0
C1137 C 0.10982 0.09137 0.82454 0.0
N1138 N 0.2192 0.05629 0.85028 0.0
N1139 N 0.04979 0.16422 0.82669 0.0
H1140 H 0.11303 0.05281 0.80223 0.0
H1141 H 0.07361 0.10723 0.80217 0.0
H1142 H 0.038 0.19858 0.83214 0.0
H1143 H 0.03026 0.15612 0.81617 0.0
H1144 H 0.24124 0.06862 0.85989 0.0
H1145 H 0.23875 0.02978 0.84301 0.0
H1146 H 0.20087 0.11765 0.87481 0.0
H1147 H 0.15484 0.1676 0.87502 0.0
C1148 C 0.18461 0.80607 0.05528 0.0
C1149 C 0.21677 0.8464 0.06124 0.0
C1150 C 0.14522 0.87633 0.0782 0.0
C1151 C 0.11999 0.82854 0.07548 0.0
N1152 N 0.09684 0.77103 0.05451 0.0
N1153 N 0.2151 0.93488 0.07044 0.0
C1154 C 0.13346 0.80059 0.06168 0.0
C1155 C 0.19267 0.88698 0.07002 0.0
N1156 N 0.20316 0.77236 0.04411 0.0
N1157 N 0.1255 0.90896 0.08951 0.0
H1158 H 0.24776 0.94388 0.06347 0.0
H1159 H 0.19816 0.96674 0.07604 0.0
H1160 H 0.08975 0.90145 0.09511 0.0
H1161 H 0.14481 0.94177 0.09355 0.0
H1162 H 0.18343 0.73877 0.04088 0.0
H1163 H 0.23887 0.77758 0.03834 0.0
H1164 H 0.10289 0.75291 0.04356 0.0
H1165 H 0.05856 0.77028 0.05879 0.0
C1166 C 0.33481 0.91967 0.34767 0.0
C1167 C 0.35101 0.95085 0.33444 0.0
C1168 C 0.4305 0.89979 0.33199 0.0
C1169 C 0.42056 0.87769 0.34738 0.0
N1170 N 0.36004 0.86027 0.36903 0.0
N1171 N 0.39337 0.9424 0.30881 0.0
C1172 C 0.37111 0.88464 0.35481 0.0
C1173 C 0.39249 0.93214 0.32487 0.0
N1174 N 0.2841 0.92123 0.35255 0.0
N1175 N 0.47695 0.89154 0.32441 0.0
H1176 H 0.36242 0.96106 0.30313 0.0
H1177 H 0.42063 0.92643 0.30097 0.0
H1178 H 0.50504 0.86645 0.32893 0.0
H1179 H 0.48859 0.91184 0.31414 0.0
H1180 H 0.26847 0.89709 0.36142 0.0
H1181 H 0.25639 0.94269 0.34624 0.0
H1182 H 0.32732 0.86853 0.37599 0.0
H1183 H 0.38513 0.83344 0.37433 0.0
C1184 C 0.72704 0.09262 0.58415 0.0
C1185 C 0.76733 0.12475 0.57796 0.0
C1186 C 0.73662 0.19749 0.59379 0.0
C1187 C 0.69124 0.16842 0.59787 0.0
N1188 N 0.65469 0.08365 0.60291 0.0
N1189 N 0.82714 0.191 0.58619 0.0
C1190 C 0.69031 0.11412 0.59506 0.0
C1191 C 0.77783 0.17183 0.58585 0.0
N1192 N 0.72295 0.04258 0.57909 0.0
N1193 N 0.7399 0.24974 0.59636 0.0
H1194 H 0.8589 0.16944 0.58219 0.0
H1195 H 0.83714 0.22383 0.59269 0.0
H1196 H 0.71111 0.27187 0.60182 0.0
H1197 H 0.77021 0.2723 0.59171 0.0
H1198 H 0.69057 0.01928 0.58128 0.0
H1199 H 0.75282 0.02425 0.57277 0.0
H1200 H 0.65401 0.0433 0.60224 0.0
H1201 H 0.6288 0.09873 0.61138 0.0
C1202 C 0.74492 0.88074 0.31713 0.0
C1203 C 0.71367 0.88923 0.2973 0.0
C1204 C 0.6122 0.83341 0.30837 0.0
C1205 C 0.63583 0.8383 0.32895 0.0
N1206 N 0.72106 0.85583 0.34828 0.0
N1207 N 0.63793 0.85223 0.27631 0.0
C1208 C 0.70226 0.85917 0.33324 0.0
C1209 C 0.65316 0.85456 0.2917 0.0
N1210 N 0.79458 0.89536 0.31951 0.0
N1211 N 0.56479 0.81343 0.30528 0.0
H1212 H 0.66174 0.86763 0.26728 0.0
H1213 H 0.6029 0.83501 0.27317 0.0
H1214 H 0.54057 0.79863 0.31423 0.0
H1215 H 0.55137 0.81115 0.29359 0.0
H1216 H 0.81161 0.89255 0.33075 0.0
H1217 H 0.81675 0.90966 0.30992 0.0
H1218 H 0.75875 0.86777 0.3508 0.0
H1219 H 0.6998 0.83889 0.35762 0.0
C1220 C 0.87209 0.93375 0.08623 0.0
C1221 C 0.81953 0.91959 0.08337 0.0
C1222 C 0.84553 0.82909 0.0879 0.0
C1223 C 0.89081 0.84582 0.09603 0.0
N1224 N 0.94712 0.91782 0.10272 0.0
N1225 N 0.75862 0.84923 0.07919 0.0
C1226 C 0.90456 0.8992 0.09505 0.0
C1227 C 0.80698 0.86579 0.08345 0.0
N1228 N 0.89224 0.9779 0.07956 0.0
N1229 N 0.84079 0.7783 0.08363 0.0
H1230 H 0.73068 0.87321 0.07402 0.0
H1231 H 0.74553 0.81148 0.08134 0.0
H1232 H 0.87139 0.7522 0.08487 0.0
H1233 H 0.80999 0.76395 0.07702 0.0
H1234 H 0.93125 0.98815 0.08063 0.0
H1235 H 0.87219 0.99891 0.07085 0.0
H1236 H 0.95491 0.95748 0.10344 0.0
H1237 H 0.97238 0.8945 0.10926 0.0
C1238 C 0.91025 0.15795 0.80845 0.0
C1239 C 0.88717 0.10914 0.81193 0.0
C1240 C 0.85916 0.14205 0.83791 0.0
C1241 C 0.89958 0.17938 0.83662 0.0
N1242 N 0.94094 0.23999 0.81803 0.0
N1243 N 0.80963 0.07537 0.82438 0.0
C1244 C 0.91765 0.19331 0.82103 0.0
C1245 C 0.85176 0.10723 0.82503 0.0
N1246 N 0.92344 0.1722 0.79325 0.0
N1247 N 0.82845 0.14056 0.8513 0.0
H1248 H 0.80033 0.05658 0.8138 0.0
H1249 H 0.78124 0.07246 0.83329 0.0
H1250 H 0.82966 0.17008 0.85978 0.0
H1251 H 0.80178 0.11124 0.85387 0.0
H1252 H 0.91548 0.1493 0.78332 0.0
H1253 H 0.91548 0.1493 0.78332 0.0
H1254 H 0.9564 0.24973 0.8068 0.0
H1255 H 0.94116 0.26991 0.82633 0.0
C1256 C 0.74432 0.85185 0.42521 0.0
C1257 C 0.73125 0.88828 0.43725 0.0
C1258 C 0.63878 0.87482 0.43255 0.0
C1259 C 0.65183 0.84653 0.4186 0.0
N1260 N 0.71492 0.79897 0.40306 0.0
N1261 N 0.66861 0.90532 0.45816 0.0
C1262 C 0.70411 0.83155 0.4155 0.0
C1263 C 0.67913 0.89063 0.44283 0.0
N1264 N 0.79463 0.83526 0.4237 0.0
N1265 N 0.58856 0.88959 0.43545 0.0
H1266 H 0.69813 0.91174 0.46638 0.0
H1267 H 0.63146 0.90409 0.46323 0.0
H1268 H 0.55783 0.8794 0.42808 0.0
H1269 H 0.57812 0.91526 0.4445 0.0
H1270 H 0.80712 0.80697 0.41574 0.0
H1271 H 0.82355 0.8464 0.43163 0.0
H1272 H 0.75219 0.79016 0.39899 0.0
H1273 H 0.68584 0.78074 0.39655 0.0
C1274 C 0.93104 0.94737 0.16959 0.0
C1275 C 0.89474 0.93252 0.18175 0.0
C1276 C 0.8647 0.86461 0.16365 0.0
C1277 C 0.91338 0.86594 0.15559 0.0
N1278 N 0.98537 0.92067 0.14739 0.0
N1279 N 0.8195 0.87911 0.18854 0.0
C1280 C 0.9446 0.91098 0.15749 0.0
C1281 C 0.85863 0.89236 0.17813 0.0
N1282 N 0.94772 0.99759 0.16845 0.0
N1283 N 0.82357 0.83936 0.15709 0.0
H1284 H 0.81037 0.89967 0.19884 0.0
H1285 H 0.79719 0.84568 0.18716 0.0
H1286 H 0.82521 0.82451 0.14552 0.0
H1287 H 0.78621 0.84034 0.16203 0.0
H1288 H 0.97198 0.01145 0.15933 0.0
H1289 H 0.92978 0.02734 0.1748 0.0
H1290 H 0.01288 0.94921 0.14963 0.0
H1291 H 0.99091 0.90107 0.13668 0.0
C1292 C 0.84687 0.14325 0.95174 0.0
C1293 C 0.81632 0.18966 0.95296 0.0
C1294 C 0.84817 0.21542 0.92615 0.0
C1295 C 0.88628 0.17585 0.92695 0.0
N1296 N 0.9254 0.10408 0.94101 0.0
N1297 N 0.79206 0.27304 0.94083 0.0
C1298 C 0.88667 0.14033 0.93989 0.0
C1299 C 0.81755 0.22641 0.93994 0.0
N1300 N 0.83679 0.10085 0.96126 0.0
N1301 N 0.84152 0.24299 0.91223 0.0
H1302 H 0.76879 0.28486 0.95033 0.0
H1303 H 0.79733 0.30279 0.93244 0.0
H1304 H 0.86401 0.23677 0.90198 0.0
H1305 H 0.81039 0.2682 0.91034 0.0
H1306 H 0.85583 0.0654 0.95984 0.0
H1307 H 0.80476 0.09762 0.96888 0.0
H1308 H 0.93124 0.08131 0.95122 0.0
H1309 H 0.95387 0.09943 0.93215 0.0
C1310 C 0.64379 0.07115 0.67489 0.0
C1311 C 0.68129 0.08569 0.68653 0.0
C1312 C 0.66346 0.17736 0.68101 0.0
C1313 C 0.62864 0.16399 0.66862 0.0
N1314 N 0.57512 0.09796 0.6567 0.0
N1315 N 0.69924 0.15096 0.70631 0.0
C1316 C 0.61607 0.11066 0.66624 0.0
C1317 C 0.68218 0.13825 0.69142 0.0
N1318 N 0.63165 0.02006 0.67294 0.0
N1319 N 0.68109 0.22709 0.6825 0.0
H1320 H 0.71048 0.12315 0.71476 0.0
H1321 H 0.69625 0.18846 0.71085 0.0
H1322 H 0.67102 0.25708 0.67469 0.0
H1323 H 0.71039 0.23709 0.69044 0.0
H1324 H 0.61339 0.00557 0.66286 0.0
H1325 H 0.6371 0.99257 0.68201 0.0
H1326 H 0.5606 0.06055 0.6555 0.0
H1327 H 0.55221 0.12544 0.65086 0.0
C1328 C 0.81947 0.41371 0.91829 0.0
C1329 C 0.81951 0.416 0.93542 0.0
C1330 C 0.90686 0.37643 0.93526 0.0
C1331 C 0.90488 0.37165 0.91842 0.0
N1332 N 0.85063 0.36751 0.89511 0.0
N1333 N 0.85669 0.3789 0.95972 0.0
C1334 C 0.85853 0.38456 0.9103 0.0
C1335 C 0.86134 0.39159 0.94383 0.0
N1336 N 0.78328 0.43975 0.90937 0.0
N1337 N 0.9517 0.36505 0.9432 0.0
H1338 H 0.82202 0.38098 0.96617 0.0
H1339 H 0.88496 0.35806 0.96592 0.0
H1340 H 0.98446 0.34967 0.93755 0.0
H1341 H 0.95731 0.37412 0.9552 0.0
H1342 H 0.78677 0.44414 0.89699 0.0
H1343 H 0.75212 0.46061 0.91401 0.0
H1344 H 0.81535 0.37173 0.88919 0.0
H1345 H 0.87672 0.34318 0.88928 0.0
C1346 C 0.94662 0.55225 0.18525 0.0
C1347 C 0.91865 0.56666 0.19924 0.0
C1348 C 0.92331 0.65806 0.19114 0.0
C1349 C 0.94012 0.6423 0.17573 0.0
N1350 N 0.97574 0.57595 0.15851 0.0
N1351 N 0.91598 0.63362 0.21912 0.0
C1352 C 0.95463 0.58981 0.17294 0.0
C1353 C 0.91785 0.61991 0.2034 0.0
N1354 N 0.96976 0.5045 0.18453 0.0
N1355 N 0.90999 0.70863 0.19387 0.0
H1356 H 0.91807 0.60584 0.22828 0.0
H1357 H 0.91943 0.67184 0.22296 0.0
H1358 H 0.91334 0.73778 0.18516 0.0
H1359 H 0.89215 0.72079 0.20444 0.0
H1360 H 0.99367 0.49248 0.17516 0.0
H1361 H 0.9714 0.47986 0.19449 0.0
H1362 H 0.98071 0.53759 0.15497 0.0
H1363 H 0.98685 0.60299 0.14975 0.0
C1364 C 0.70554 0.6573 0.42645 0.0
C1365 C 0.72732 0.60696 0.42376 0.0
C1366 C 0.65365 0.58608 0.40646 0.0
C1367 C 0.63251 0.63627 0.40906 0.0
N1368 N 0.62628 0.7077 0.42744 0.0
N1369 N 0.70571 0.51737 0.41791 0.0
C1370 C 0.65475 0.66826 0.42089 0.0
C1371 C 0.69641 0.56927 0.41585 0.0
N1372 N 0.73272 0.69528 0.43404 0.0
N1373 N 0.63463 0.55481 0.39478 0.0
H1374 H 0.73152 0.50275 0.42638 0.0
H1375 H 0.68184 0.48882 0.41316 0.0
H1376 H 0.60431 0.56551 0.38727 0.0
H1377 H 0.65276 0.52021 0.39148 0.0
H1378 H 0.72032 0.73384 0.4343 0.0
H1379 H 0.76878 0.69002 0.43931 0.0
H1380 H 0.63896 0.72958 0.43708 0.0
H1381 H 0.5873 0.71376 0.42468 0.0
C1382 C 0.73501 0.41788 0.67362 0.0
C1383 C 0.70674 0.46471 0.67562 0.0
C1384 C 0.64842 0.44082 0.65417 0.0
C1385 C 0.66616 0.38889 0.6559 0.0
N1386 N 0.7352 0.33006 0.6632 0.0
N1387 N 0.65951 0.53125 0.6615 0.0
C1388 C 0.71323 0.37824 0.66402 0.0
C1389 C 0.67104 0.47986 0.66366 0.0
N1390 N 0.78274 0.41257 0.68043 0.0
N1391 N 0.60778 0.45152 0.64425 0.0
H1392 H 0.67829 0.56023 0.66791 0.0
H1393 H 0.63589 0.54549 0.65241 0.0
H1394 H 0.59216 0.42333 0.63681 0.0
H1395 H 0.58886 0.48725 0.64366 0.0
H1396 H 0.80689 0.38053 0.67884 0.0
H1397 H 0.80032 0.44317 0.68642 0.0
H1398 H 0.7657 0.31764 0.6704 0.0
H1399 H 0.72242 0.30209 0.65523 0.0
C1400 C 0.8615 0.64994 0.05722 0.0
C1401 C 0.80883 0.65754 0.06206 0.0
C1402 C 0.83333 0.62887 0.08898 0.0
C1403 C 0.88508 0.64389 0.08546 0.0
N1404 N 0.95201 0.64722 0.06528 0.0
N1405 N 0.74276 0.63731 0.08212 0.0
C1406 C 0.90049 0.64743 0.06918 0.0
C1407 C 0.79393 0.64112 0.07778 0.0
N1408 N 0.87349 0.64178 0.0415 0.0
N1409 N 0.8227 0.60023 0.10244 0.0
H1410 H 0.71241 0.63921 0.07398 0.0
H1411 H 0.73052 0.6328 0.09398 0.0
H1412 H 0.85232 0.58568 0.10969 0.0
H1413 H 0.78612 0.58493 0.1051 0.0
H1414 H 0.91081 0.6333 0.03737 0.0
H1415 H 0.84485 0.63687 0.03291 0.0
H1416 H 0.9664 0.65638 0.05391 0.0
H1417 H 0.98004 0.63714 0.07372 0.0
C1418 C 0.61574 0.57038 0.3205 0.0
C1419 C 0.64719 0.53311 0.32859 0.0
C1420 C 0.65741 0.59329 0.35095 0.0
C1421 C 0.61555 0.62266 0.34482 0.0
N1422 N 0.56463 0.6498 0.32234 0.0
N1423 N 0.71825 0.52187 0.3469 0.0
C1424 C 0.59863 0.61509 0.32894 0.0
C1425 C 0.67489 0.5488 0.34239 0.0
N1426 N 0.60347 0.5635 0.30479 0.0
N1427 N 0.67912 0.60769 0.36507 0.0
H1428 H 0.7345 0.49287 0.33978 0.0
H1429 H 0.74103 0.53116 0.35667 0.0
H1430 H 0.66774 0.64162 0.37091 0.0
H1431 H 0.70774 0.58667 0.37102 0.0
H1432 H 0.58313 0.59042 0.2979 0.0
H1433 H 0.61753 0.53249 0.29811 0.0
H1434 H 0.5445 0.64382 0.31177 0.0
H1435 H 0.55705 0.68553 0.32765 0.0
C1436 C 0.6619 0.45453 0.58682 0.0
C1437 C 0.68326 0.44458 0.57128 0.0
C1438 C 0.65426 0.35461 0.57403 0.0
C1439 C 0.62611 0.36635 0.58833 0.0
N1440 N 0.58932 0.4352 0.6044 0.0
N1441 N 0.67627 0.38864 0.54803 0.0
C1442 C 0.62583 0.41857 0.59365 0.0
C1443 C 0.67222 0.39586 0.56418 0.0
N1444 N 0.67557 0.49745 0.59527 0.0
N1445 N 0.66608 0.30471 0.56988 0.0
H1446 H 0.68168 0.4188 0.53979 0.0
H1447 H 0.66563 0.35381 0.54269 0.0
H1448 H 0.65861 0.27253 0.57715 0.0
H1449 H 0.68992 0.2962 0.56007 0.0
H1450 H 0.66391 0.50269 0.60714 0.0
H1451 H 0.70193 0.52524 0.59118 0.0
H1452 H 0.58558 0.47412 0.60759 0.0
H1453 H 0.55868 0.41188 0.60841 0.0
C1454 C 0.89958 0.48402 0.84599 0.0
C1455 C 0.8759 0.46187 0.83231 0.0
C1456 C 0.88791 0.37497 0.84435 0.0
C1457 C 0.91129 0.39746 0.8579 0.0
N1458 N 0.91845 0.47369 0.87412 0.0
N1459 N 0.87237 0.38467 0.81609 0.0
C1460 C 0.91017 0.45216 0.8595 0.0
C1461 C 0.87708 0.40676 0.83079 0.0
N1462 N 0.91924 0.53322 0.84534 0.0
N1463 N 0.87237 0.32431 0.84472 0.0
H1464 H 0.86991 0.40668 0.80557 0.0
H1465 H 0.87779 0.34506 0.81417 0.0
H1466 H 0.87263 0.30178 0.85514 0.0
H1467 H 0.85156 0.30749 0.83547 0.0
H1468 H 0.94004 0.54949 0.85468 0.0
H1469 H 0.92354 0.5537 0.8346 0.0
H1470 H 0.91384 0.51329 0.87625 0.0
H1471 H 0.92348 0.45092 0.88441 0.0
C1472 C 0.1371 0.57681 0.05801 0.0
C1473 C 0.18173 0.52903 0.06764 0.0
C1474 C 0.1477 0.56101 0.10189 0.0
C1475 C 0.11661 0.61744 0.09294 0.0
N1476 N 0.07937 0.66294 0.06547 0.0
N1477 N 0.20076 0.46904 0.09534 0.0
C1478 C 0.10868 0.62411 0.07141 0.0
C1479 C 0.17784 0.51213 0.08936 0.0
N1480 N 0.13259 0.58002 0.04196 0.0
N1481 N 0.14092 0.55174 0.11764 0.0
H1482 H 0.21943 0.44322 0.08763 0.0
H1483 H 0.20051 0.46105 0.10759 0.0
H1484 H 0.11821 0.57702 0.12445 0.0
H1485 H 0.155 0.51785 0.12299 0.0
H1486 H 0.10975 0.60859 0.03656 0.0
H1487 H 0.15217 0.55341 0.03473 0.0
H1488 H 0.07271 0.66639 0.05323 0.0
H1489 H 0.06048 0.68837 0.07318 0.0
C1490 C 0.11951 0.40544 0.80462 0.0
C1491 C 0.12372 0.47627 0.80884 0.0
C1492 C 0.08617 0.4623 0.84392 0.0
C1493 C 0.09568 0.39236 0.84152 0.0
N1494 N 0.11291 0.31175 0.82064 0.0
N1495 N 0.08435 0.55727 0.82773 0.0
C1496 C 0.10994 0.36391 0.82208 0.0
C1497 C 0.09495 0.50596 0.82703 0.0
N1498 N 0.13079 0.38661 0.78998 0.0
N1499 N 0.06958 0.48198 0.85802 0.0
H1500 H 0.09001 0.58087 0.81765 0.0
H1501 H 0.06909 0.57402 0.83806 0.0
H1502 H 0.0624 0.45874 0.86803 0.0
H1503 H 0.0634 0.52172 0.85932 0.0
H1504 H 0.13113 0.3468 0.78784 0.0
H1505 H 0.1391 0.41223 0.78054 0.0
H1506 H 0.12058 0.29473 0.80961 0.0
H1507 H 0.1086 0.28733 0.8306 0.0
C1508 C 0.327 0.38577 0.59012 0.0
C1509 C 0.33953 0.40877 0.57511 0.0
C1510 C 0.43041 0.382 0.57847 0.0
C1511 C 0.41468 0.3485 0.59122 0.0
N1512 N 0.34665 0.31798 0.60922 0.0
N1513 N 0.40797 0.45623 0.56175 0.0
C1514 C 0.36284 0.35091 0.59727 0.0
C1515 C 0.39295 0.41527 0.5712 0.0
N1516 N 0.28316 0.40081 0.59817 0.0
N1517 N 0.48073 0.38138 0.5731 0.0
H1518 H 0.3815 0.48438 0.5579 0.0
H1519 H 0.44662 0.46592 0.55946 0.0
H1520 H 0.50973 0.35974 0.5787 0.0
H1521 H 0.4931 0.40021 0.56266 0.0
H1522 H 0.27432 0.38852 0.6098 0.0
H1523 H 0.26004 0.43156 0.59415 0.0
H1524 H 0.30781 0.31433 0.61271 0.0
H1525 H 0.37104 0.29117 0.61474 0.0
C1526 C 0.36049 0.57749 0.3258 0.0
C1527 C 0.38572 0.58399 0.31066 0.0
C1528 C 0.41561 0.66963 0.31873 0.0
C1529 C 0.40691 0.65408 0.33486 0.0
N1530 N 0.34148 0.6153 0.35181 0.0
N1531 N 0.40422 0.65159 0.29099 0.0
C1532 C 0.36976 0.61463 0.3379 0.0
C1533 C 0.40255 0.63486 0.30646 0.0
N1534 N 0.32686 0.5374 0.32833 0.0
N1535 N 0.43393 0.71798 0.315 0.0
H1536 H 0.39064 0.62944 0.2815 0.0
H1537 H 0.39064 0.62944 0.2815 0.0
H1538 H 0.43651 0.74731 0.32348 0.0
H1539 H 0.4425 0.72938 0.30324 0.0
H1540 H 0.31281 0.52605 0.33955 0.0
H1541 H 0.31145 0.5169 0.31885 0.0
H1542 H 0.3121 0.58902 0.35469 0.0
H1543 H 0.3439 0.64627 0.35975 0.0
C1544 C 0.15236 0.35941 0.95881 0.0
C1545 C 0.19915 0.32885 0.95815 0.0
C1546 C 0.17435 0.29916 0.93138 0.0
C1547 C 0.12906 0.33013 0.9321 0.0
N1548 N 0.08335 0.40181 0.94394 0.0
N1549 N 0.26298 0.29179 0.9397 0.0
C1550 C 0.12087 0.36426 0.94497 0.0
C1551 C 0.21278 0.30479 0.9433 0.0
N1552 N 0.13608 0.38211 0.97273 0.0
N1553 N 0.18134 0.2649 0.91914 0.0
H1554 H 0.2945 0.30649 0.94579 0.0
H1555 H 0.27439 0.27595 0.92879 0.0
H1556 H 0.1554 0.26157 0.90969 0.0
H1557 H 0.21083 0.23706 0.91905 0.0
H1558 H 0.0989 0.39758 0.97422 0.0
H1559 H 0.15737 0.38319 0.98322 0.0
H1560 H 0.07925 0.43155 0.95223 0.0
H1561 H 0.05971 0.40637 0.93394 0.0
C1562 C 0.29365 0.38457 0.67038 0.0
C1563 C 0.30756 0.43767 0.67112 0.0
C1564 C 0.37892 0.4213 0.65223 0.0
C1565 C 0.37465 0.36743 0.65591 0.0
N1566 N 0.32546 0.29671 0.66784 0.0
N1567 N 0.34148 0.50778 0.65493 0.0
C1568 C 0.33056 0.34844 0.66444 0.0
C1569 C 0.3435 0.45672 0.6595 0.0
N1570 N 0.24428 0.36956 0.67418 0.0
N1571 N 0.41792 0.43831 0.64227 0.0
H1572 H 0.31235 0.53265 0.65909 0.0
H1573 H 0.36449 0.52411 0.6459 0.0
H1574 H 0.44185 0.41277 0.63594 0.0
H1575 H 0.42732 0.47725 0.64049 0.0
H1576 H 0.23104 0.33162 0.67283 0.0
H1577 H 0.2151 0.39692 0.67636 0.0
H1578 H 0.29675 0.28213 0.67553 0.0
H1579 H 0.35189 0.26886 0.66387 0.0
C1580 C 0.32824 0.6713 0.43692 0.0
C1581 C 0.34667 0.64112 0.45 0.0
C1582 C 0.4362 0.65336 0.44063 0.0
C1583 C 0.41705 0.67304 0.42589 0.0
N1584 N 0.34589 0.70871 0.41063 0.0
N1585 N 0.41719 0.63871 0.46872 0.0
C1586 C 0.36328 0.68476 0.42426 0.0
C1587 C 0.40057 0.64303 0.45332 0.0
N1588 N 0.2791 0.69142 0.43748 0.0
N1589 N 0.48765 0.64129 0.44227 0.0
H1590 H 0.39105 0.63681 0.47834 0.0
H1591 H 0.45579 0.64402 0.47201 0.0
H1592 H 0.51516 0.64715 0.43321 0.0
H1593 H 0.50215 0.62152 0.45223 0.0
H1594 H 0.26389 0.71637 0.42883 0.0
H1595 H 0.25602 0.68881 0.44778 0.0
H1596 H 0.30674 0.71251 0.4078 0.0
H1597 H 0.37095 0.72366 0.40185 0.0
C1598 C 0.18006 0.52118 0.16115 0.0
C1599 C 0.14606 0.51551 0.18098 0.0
C1600 C 0.092 0.62235 0.17708 0.0
C1601 C 0.13353 0.63481 0.15976 0.0
N1602 N 0.20871 0.59697 0.13932 0.0
N1603 N 0.06483 0.55038 0.20062 0.0
C1604 C 0.17697 0.58529 0.1518 0.0
C1605 C 0.09293 0.55997 0.1872 0.0
N1606 N 0.21027 0.48259 0.15542 0.0
N1607 N 0.06174 0.66092 0.18283 0.0
H1608 H 0.06965 0.51527 0.20679 0.0
H1609 H 0.03809 0.57727 0.20502 0.0
H1610 H 0.06357 0.69812 0.17781 0.0
H1611 H 0.03854 0.65537 0.19298 0.0
H1612 H 0.23084 0.48697 0.14469 0.0
H1613 H 0.21245 0.44723 0.1616 0.0
H1614 H 0.23514 0.56977 0.13492 0.0
H1615 H 0.20811 0.63373 0.13398 0.0
loop_
_geom_bond_atom_site_label_1
_geom_bond_atom_site_label_2
_geom_bond_distance
_geom_bond_site_symmetry_2
_ccdc_geom_bond_type
C0 C1 1.560 . S
C0 H61 0.959 . S
C0 H62 0.959 . S
C0 H63 0.960 . S
C1 C0 1.560 . S
C1 O56 1.426 . S
C1 H60 0.980 . S
C2 C3 1.407 . S
C2 C7 1.418 . S
C2 O56 1.334 . S
C3 C2 1.407 . S
C3 C4 1.360 . S
C3 H64 0.929 . S
C4 C3 1.360 . S
C4 C5 1.401 . S
C4 C8 1.527 . S
C5 C4 1.401 . S
C5 C6 1.405 . S
C5 C38 1.587 . S
C6 C5 1.405 . S
C6 C7 1.332 . S
C6 C9 1.496 1_565 S
C7 C2 1.418 . S
C7 C6 1.332 . S
C7 H65 0.929 1_565 S
C8 C4 1.527 . S
C8 H66 0.959 . S
C8 H67 0.961 . S
C8 H68 0.961 . S
C9 C6 1.496 1_545 S
C9 H69 0.960 . S
C9 H70 0.960 . S
C9 H71 0.961 . S
C10 C11 1.517 . S
C10 H73 0.961 . S
C10 H74 0.960 . S
C10 H75 0.959 . S
C11 C10 1.517 . S
C11 O59 1.468 . S
C11 H72 0.980 . S
C12 C13 1.349 . S
C12 C17 1.367 . S
C12 O59 1.408 . S
C13 C12 1.349 . S
C13 C14 1.407 . S
C13 H76 0.930 . S
C14 C13 1.407 . S
C14 C15 1.449 . S
C14 C18 1.535 . S
C15 C14 1.449 . S
C15 C16 1.384 . S
C15 C40 1.553 . S
C16 C15 1.384 . S
C16 C17 1.364 . S
C16 C19 1.450 . S
C17 C12 1.367 . S
C17 C16 1.364 . S
C17 H77 0.931 . S
C18 C14 1.535 . S
C18 H78 0.959 . S
C18 H79 0.961 . S
C18 H80 0.962 . S
C19 C16 1.450 . S
C19 H81 0.960 . S
C19 H82 0.960 . S
C19 H83 0.960 . S
C20 C21 1.309 . S
C20 C25 1.304 . S
C20 O58 1.435 . S
C21 C20 1.309 . S
C21 C22 1.476 . S
C21 H85 0.930 . S
C22 C21 1.476 . S
C22 C23 1.400 . S
C22 C26 1.567 . S
C23 C22 1.400 . S
C23 C24 1.373 . S
C23 C45 1.432 . S
C24 C23 1.373 . S
C24 C25 1.339 . S
C24 C27 1.530 1_545 S
C25 C20 1.304 . S
C25 C24 1.339 . S
C25 H86 0.930 . S
C26 C22 1.567 . S
C26 H87 0.961 . S
C26 H88 0.960 . S
C26 H89 0.958 . S
C27 C24 1.530 1_565 S
C27 H90 0.961 . S
C27 H91 0.960 . S
C27 H92 0.960 . S
C28 C29 1.530 . S
C28 H94 0.961 . S
C28 H95 0.961 . S
C28 H96 0.959 . S
C29 C28 1.530 . S
C29 O57 1.412 . S
C29 H93 0.980 . S
C30 C31 1.288 . S
C30 C35 1.377 . S
C30 O57 1.393 . S
C31 C30 1.288 . S
C31 C32 1.369 . S
C31 H97 0.932 . S
C32 C31 1.369 . S
C32 C33 1.398 . S
C32 C36 1.527 . S
C33 C32 1.398 . S
C33 C34 1.380 . S
C33 C47 1.497 . S
C34 C33 1.380 . S
C34 C35 1.383 . S
C34 C37 1.603 . S
C35 C30 1.377 . S
C35 C34 1.383 . S
C35 H98 0.929 . S
C36 C32 1.527 . S
C36 H99 0.961 . S
C36 H100 0.959 . S
C36 H101 0.959 . S
C37 C34 1.603 . S
C37 H102 0.960 1_545 S
C37 H103 0.962 1_545 S
C37 H104 0.961 1_545 S
C38 C5 1.587 . S
C38 C39 1.360 1_655 S
C38 C51 1.412 . S
C39 C38 1.360 1_455 S
C39 C40 1.365 . S
C39 H105 0.929 . S
C40 C15 1.553 . S
C40 C39 1.365 . S
C40 C41 1.404 . S
C41 C40 1.404 . S
C41 C42 1.395 . S
C41 C52 1.451 . S
C42 C41 1.395 . S
C42 C43 1.322 . S
C42 H106 0.930 . S
C43 C42 1.322 . S
C43 C44 1.459 1_565 S
C43 H107 0.929 . S
C44 C43 1.459 1_545 S
C44 C45 1.445 . S
C44 C53 1.395 . S
C45 C23 1.432 . S
C45 C44 1.445 . S
C45 C46 1.370 . S
C46 C45 1.370 . S
C46 C47 1.438 1_455 S
C46 H108 0.930 . S
C47 C33 1.497 . S
C47 C46 1.438 1_655 S
C47 C48 1.360 . S
C48 C47 1.360 . S
C48 C49 1.401 . S
C48 C53 1.446 1_655 S
C49 C48 1.401 . S
C49 C50 1.347 1_545 S
C49 H109 0.929 . S
C50 C49 1.347 1_565 S
C50 C51 1.455 . S
C50 H110 0.930 . S
C51 C38 1.412 . S
C51 C50 1.455 . S
C51 C52 1.331 1_655 S
C52 C41 1.451 . S
C52 C51 1.331 1_455 S
C52 C53 1.497 1_565 S
C53 C44 1.395 . S
C53 C48 1.446 1_455 S
C53 C52 1.497 1_545 S
C54 C55 1.582 . S
C54 H111 0.962 . S
C54 H112 0.959 . S
C54 H113 0.958 . S
C55 C54 1.582 . S
C55 O58 1.458 . S
C55 H84 0.980 . S
O56 C1 1.426 . S
O56 C2 1.334 . S
O57 C29 1.412 . S
O57 C30 1.393 . S
O58 C20 1.435 . S
O58 C55 1.458 . S
O59 C11 1.468 . S
O59 C12 1.408 . S
H60 C1 0.980 . S
H61 C0 0.959 . S
H62 C0 0.959 . S
H63 C0 0.960 . S
H64 C3 0.929 . S
H65 C7 0.929 1_545 S
H66 C8 0.959 . S
H67 C8 0.961 . S
H68 C8 0.961 . S
H69 C9 0.960 . S
H70 C9 0.960 . S
H71 C9 0.961 . S
H72 C11 0.980 . S
H73 C10 0.961 . S
H74 C10 0.960 . S
H75 C10 0.959 . S
H76 C13 0.930 . S
H77 C17 0.931 . S
H78 C18 0.959 . S
H79 C18 0.961 . S
H80 C18 0.962 . S
H81 C19 0.960 . S
H82 C19 0.960 . S
H83 C19 0.960 . S
H84 C55 0.980 . S
H85 C21 0.930 . S
H86 C25 0.930 . S
H87 C26 0.961 . S
H88 C26 0.960 . S
H89 C26 0.958 . S
H90 C27 0.961 . S
H91 C27 0.960 . S
H92 C27 0.960 . S
H93 C29 0.980 . S
H94 C28 0.961 . S
H95 C28 0.961 . S
H96 C28 0.959 . S
H97 C31 0.932 . S
H98 C35 0.929 . S
H99 C36 0.961 . S
H100 C36 0.959 . S
H101 C36 0.959 . S
H102 C37 0.960 1_565 S
H103 C37 0.962 1_565 S
H104 C37 0.961 1_565 S
H105 C39 0.929 . S
H106 C42 0.930 . S
H107 C43 0.929 . S
H108 C46 0.930 . S
H109 C49 0.929 . S
H110 C50 0.930 . S
H111 C54 0.962 . S
H112 C54 0.959 . S
H113 C54 0.958 . S
C114 C115 1.560 . S
C114 H175 0.954 1_545 S
C114 H176 0.959 . S
C114 H177 0.960 . S
C115 C114 1.560 . S
C115 O170 1.426 1_545 S
C115 H174 0.980 1_545 S
C116 C117 1.407 . S
C116 C121 1.418 . S
C116 O170 1.334 . S
C117 C116 1.407 . S
C117 C118 1.360 . S
C117 H178 0.929 . S
C118 C117 1.360 . S
C118 C119 1.401 . S
C118 C122 1.527 . S
C119 C118 1.401 . S
C119 C120 1.405 . S
C119 C152 1.587 . S
C120 C119 1.405 . S
C120 C121 1.332 . S
C120 C123 1.496 . S
C121 C116 1.418 . S
C121 C120 1.332 . S
C121 H179 0.929 . S
C122 C118 1.527 . S
C122 H180 0.959 . S
C122 H181 0.961 . S
C122 H182 0.961 . S
C123 C120 1.496 . S
C123 H183 0.960 . S
C123 H184 0.960 . S
C123 H185 0.961 . S
C124 C125 1.517 . S
C124 H187 0.961 . S
C124 H188 0.960 . S
C124 H189 0.959 . S
C125 C124 1.517 . S
C125 O173 1.468 . S
C125 H186 0.980 . S
C126 C127 1.349 . S
C126 C131 1.367 . S
C126 O173 1.408 . S
C127 C126 1.349 . S
C127 C128 1.407 . S
C127 H190 0.930 . S
C128 C127 1.407 . S
C128 C129 1.449 . S
C128 C132 1.535 . S
C129 C128 1.449 . S
C129 C130 1.384 . S
C129 C154 1.553 . S
C130 C129 1.384 . S
C130 C131 1.364 . S
C130 C133 1.450 . S
C131 C126 1.367 . S
C131 C130 1.364 . S
C131 H191 0.931 . S
C132 C128 1.535 . S
C132 H192 0.959 . S
C132 H193 0.961 . S
C132 H194 0.959 . S
C133 C130 1.450 . S
C133 H195 0.960 . S
C133 H196 0.960 . S
C133 H197 0.960 . S
C134 C135 1.309 . S
C134 C139 1.304 . S
C134 O172 1.435 . S
C135 C134 1.309 . S
C135 C136 1.476 . S
C135 H199 0.930 . S
C136 C135 1.476 . S
C136 C137 1.400 . S
C136 C140 1.567 . S
C137 C136 1.400 . S
C137 C138 1.373 . S
C137 C159 1.432 . S
C138 C137 1.373 . S
C138 C139 1.339 . S
C138 C141 1.530 . S
C139 C134 1.304 . S
C139 C138 1.339 . S
C139 H200 0.930 . S
C140 C136 1.567 . S
C140 H201 0.961 . S
C140 H202 0.960 . S
C140 H203 0.958 . S
C141 C138 1.530 . S
C141 H204 0.961 . S
C141 H205 0.960 . S
C141 H206 0.960 . S
C142 C143 1.530 . S
C142 H208 0.961 . S
C142 H209 0.961 . S
C142 H210 0.959 . S
C143 C142 1.530 . S
C143 O171 1.412 1_545 S
C143 H207 0.980 . S
C144 C145 1.288 . S
C144 C149 1.377 . S
C144 O171 1.393 . S
C145 C144 1.288 . S
C145 C146 1.369 . S
C145 H211 0.932 . S
C146 C145 1.369 . S
C146 C147 1.398 . S
C146 C150 1.527 . S
C147 C146 1.398 . S
C147 C148 1.380 . S
C147 C161 1.497 . S
C148 C147 1.380 . S
C148 C149 1.383 . S
C148 C151 1.603 . S
C149 C144 1.377 . S
C149 C148 1.383 . S
C149 H212 0.929 . S
C150 C146 1.527 . S
C150 H213 0.961 . S
C150 H214 0.959 . S
C150 H215 0.959 . S
C151 C148 1.603 . S
C151 H216 0.960 . S
C151 H217 0.962 . S
C151 H218 0.961 . S
C152 C119 1.587 . S
C152 C153 1.360 . S
C152 C165 1.412 . S
C153 C152 1.360 . S
C153 C154 1.365 . S
C153 H219 0.929 . S
C154 C129 1.553 . S
C154 C153 1.365 . S
C154 C155 1.404 . S
C155 C154 1.404 . S
C155 C156 1.395 . S
C155 C166 1.451 . S
C156 C155 1.395 . S
C156 C157 1.322 . S
C156 H220 0.930 . S
C157 C156 1.322 . S
C157 C158 1.459 . S
C157 H221 0.929 . S
C158 C157 1.459 . S
C158 C159 1.445 . S
C158 C167 1.395 . S
C159 C137 1.432 . S
C159 C158 1.445 . S
C159 C160 1.370 . S
C160 C159 1.370 . S
C160 C161 1.438 . S
C160 H222 0.930 . S
C161 C147 1.497 . S
C161 C160 1.438 . S
C161 C162 1.360 . S
C162 C161 1.360 . S
C162 C163 1.401 . S
C162 C167 1.446 . S
C163 C162 1.401 . S
C163 C164 1.347 . S
C163 H223 0.929 . S
C164 C163 1.347 . S
C164 C165 1.455 . S
C164 H224 0.930 . S
C165 C152 1.412 . S
C165 C164 1.455 . S
C165 C166 1.331 . S
C166 C155 1.451 . S
C166 C165 1.331 . S
C166 C167 1.497 . S
C167 C158 1.395 . S
C167 C162 1.446 . S
C167 C166 1.497 . S
C168 C169 1.582 . S
C168 H225 0.962 . S
C168 H226 0.959 . S
C168 H227 0.958 . S
C169 C168 1.582 . S
C169 O172 1.458 . S
C169 H198 0.980 . S
O170 C115 1.426 1_565 S
O170 C116 1.334 . S
O171 C143 1.412 1_565 S
O171 C144 1.393 . S
O172 C134 1.435 . S
O172 C169 1.458 . S
O173 C125 1.468 . S
O173 C126 1.408 . S
H174 C115 0.980 1_565 S
H175 C114 0.954 1_565 S
H176 C114 0.959 . S
H177 C114 0.960 . S
H178 C117 0.929 . S
H179 C121 0.929 . S
H180 C122 0.959 . S
H181 C122 0.961 . S
H182 C122 0.961 . S
H183 C123 0.960 . S
H184 C123 0.960 . S
H185 C123 0.961 . S
H186 C125 0.980 . S
H187 C124 0.961 . S
H188 C124 0.960 . S
H189 C124 0.959 . S
H190 C127 0.930 . S
H191 C131 0.931 . S
H192 C132 0.959 . S
H193 C132 0.961 . S
H194 C132 0.959 . S
H195 C133 0.960 . S
H196 C133 0.960 . S
H197 C133 0.960 . S
H198 C169 0.980 . S
H199 C135 0.930 . S
H200 C139 0.930 . S
H201 C140 0.961 . S
H202 C140 0.960 . S
H203 C140 0.958 . S
H204 C141 0.961 . S
H205 C141 0.960 . S
H206 C141 0.960 . S
H207 C143 0.980 . S
H208 C142 0.961 . S
H209 C142 0.961 . S
H210 C142 0.959 . S
H211 C145 0.932 . S
H212 C149 0.929 . S
H213 C150 0.961 . S
H214 C150 0.959 . S
H215 C150 0.959 . S
H216 C151 0.960 . S
H217 C151 0.962 . S
H218 C151 0.961 . S
H219 C153 0.929 . S
H220 C156 0.930 . S
H221 C157 0.929 . S
H222 C160 0.930 . S
H223 C163 0.929 . S
H224 C164 0.930 . S
H225 C168 0.962 . S
H226 C168 0.959 . S
H227 C168 0.958 . S
C228 C229 1.560 . S
C228 H289 0.959 . S
C228 H290 0.959 . S
C228 H291 0.960 . S
C229 C228 1.560 . S
C229 O284 1.426 . S
C229 H288 0.980 . S
C230 C231 1.407 . S
C230 C235 1.418 . S
C230 O284 1.334 . S
C231 C230 1.407 . S
C231 C232 1.360 . S
C231 H292 0.929 . S
C232 C231 1.360 . S
C232 C233 1.401 . S
C232 C236 1.527 . S
C233 C232 1.401 . S
C233 C234 1.405 . S
C233 C266 1.587 . S
C234 C233 1.405 . S
C234 C235 1.332 . S
C234 C237 1.496 1_565 S
C235 C230 1.418 . S
C235 C234 1.332 . S
C235 H293 0.929 . S
C236 C232 1.527 . S
C236 H294 0.959 . S
C236 H295 0.961 . S
C236 H296 0.961 . S
C237 C234 1.496 1_545 S
C237 H297 0.960 . S
C237 H298 0.960 1_545 S
C237 H299 0.961 . S
C238 C239 1.517 . S
C238 H301 0.961 . S
C238 H302 0.960 . S
C238 H303 0.959 . S
C239 C238 1.517 . S
C239 O287 1.468 . S
C239 H300 0.980 . S
C240 C241 1.349 . S
C240 C245 1.367 . S
C240 O287 1.408 . S
C241 C240 1.349 . S
C241 C242 1.407 . S
C241 H304 0.930 . S
C242 C241 1.407 . S
C242 C243 1.449 . S
C242 C246 1.535 . S
C243 C242 1.449 . S
C243 C244 1.384 . S
C243 C268 1.553 . S
C244 C243 1.384 . S
C244 C245 1.364 . S
C244 C247 1.450 . S
C245 C240 1.367 . S
C245 C244 1.364 . S
C245 H305 0.931 . S
C246 C242 1.535 . S
C246 H306 0.959 . S
C246 H307 0.961 . S
C246 H308 0.959 . S
C247 C244 1.450 . S
C247 H309 0.960 . S
C247 H310 0.960 . S
C247 H311 0.960 . S
C248 C249 1.309 . S
C248 C253 1.304 . S
C248 O286 1.435 . S
C249 C248 1.309 . S
C249 C250 1.476 . S
C249 H313 0.930 . S
C250 C249 1.476 . S
C250 C251 1.400 . S
C250 C254 1.567 . S
C251 C250 1.400 . S
C251 C252 1.373 . S
C251 C273 1.432 . S
C252 C251 1.373 . S
C252 C253 1.339 . S
C252 C255 1.530 1_545 S
C253 C248 1.304 . S
C253 C252 1.339 . S
C253 H314 0.930 1_545 S
C254 C250 1.567 . S
C254 H315 0.961 . S
C254 H316 0.960 . S
C254 H317 0.958 . S
C255 C252 1.530 1_565 S
C255 H318 0.961 . S
C255 H319 0.960 . S
C255 H320 0.960 . S
C256 C257 1.530 . S
C256 H322 0.961 . S
C256 H323 0.961 . S
C256 H324 0.959 . S
C257 C256 1.530 . S
C257 O285 1.412 . S
C257 H321 0.980 . S
C258 C259 1.288 . S
C258 C263 1.377 . S
C258 O285 1.393 . S
C259 C258 1.288 . S
C259 C260 1.369 . S
C259 H325 0.932 . S
C260 C259 1.369 . S
C260 C261 1.398 . S
C260 C264 1.527 . S
C261 C260 1.398 . S
C261 C262 1.380 . S
C261 C275 1.497 . S
C262 C261 1.380 . S
C262 C263 1.383 . S
C262 C265 1.603 1_545 S
C263 C258 1.377 . S
C263 C262 1.383 . S
C263 H326 0.929 . S
C264 C260 1.527 . S
C264 H327 0.961 . S
C264 H328 0.959 . S
C264 H329 0.959 . S
C265 C262 1.603 1_565 S
C265 H330 0.960 . S
C265 H331 0.962 . S
C265 H332 0.961 . S
C266 C233 1.587 . S
C266 C267 1.360 . S
C266 C279 1.412 . S
C267 C266 1.360 . S
C267 C268 1.365 . S
C267 H333 0.929 . S
C268 C243 1.553 . S
C268 C267 1.365 . S
C268 C269 1.404 . S
C269 C268 1.404 . S
C269 C270 1.395 . S
C269 C280 1.451 . S
C270 C269 1.395 . S
C270 C271 1.322 1_554 S
C270 H334 0.930 . S
C271 C270 1.322 1_556 S
C271 C272 1.459 . S
C271 H335 0.929 . S
C272 C271 1.459 . S
C272 C273 1.445 1_565 S
C272 C281 1.395 . S
C273 C251 1.432 . S
C273 C272 1.445 1_545 S
C273 C274 1.370 . S
C274 C273 1.370 . S
C274 C275 1.438 . S
C274 H336 0.930 . S
C275 C261 1.497 . S
C275 C274 1.438 . S
C275 C276 1.360 . S
C276 C275 1.360 . S
C276 C277 1.401 . S
C276 C281 1.446 1_545 S
C277 C276 1.401 . S
C277 C278 1.347 1_546 S
C277 H337 0.929 . S
C278 C277 1.347 1_564 S
C278 C279 1.455 . S
C278 H338 0.930 . S
C279 C266 1.412 . S
C279 C278 1.455 . S
C279 C280 1.331 . S
C280 C269 1.451 . S
C280 C279 1.331 . S
C280 C281 1.497 1_554 S
C281 C272 1.395 . S
C281 C276 1.446 1_565 S
C281 C280 1.497 1_556 S
C282 C283 1.582 . S
C282 H339 0.962 . S
C282 H340 0.959 . S
C282 H341 0.958 . S
C283 C282 1.582 . S
C283 O286 1.458 . S
C283 H312 0.980 . S
O284 C229 1.426 . S
O284 C230 1.334 . S
O285 C257 1.412 . S
O285 C258 1.393 . S
O286 C248 1.435 . S
O286 C283 1.458 . S
O287 C239 1.468 . S
O287 C240 1.408 . S
H288 C229 0.980 . S
H289 C228 0.959 . S
H290 C228 0.959 . S
H291 C228 0.960 . S
H292 C231 0.929 . S
H293 C235 0.929 . S
H294 C236 0.959 . S
H295 C236 0.961 . S
H296 C236 0.961 . S
H297 C237 0.960 . S
H298 C237 0.960 1_565 S
H299 C237 0.961 . S
H300 C239 0.980 . S
H301 C238 0.961 . S
H302 C238 0.960 . S
H303 C238 0.959 . S
H304 C241 0.930 . S
H305 C245 0.931 . S
H306 C246 0.959 . S
H307 C246 0.961 . S
H308 C246 0.959 . S
H309 C247 0.960 . S
H310 C247 0.960 . S
H311 C247 0.960 . S
H312 C283 0.980 . S
H313 C249 0.930 . S
H314 C253 0.930 1_565 S
H315 C254 0.961 . S
H316 C254 0.960 . S
H317 C254 0.958 . S
H318 C255 0.961 . S
H319 C255 0.960 . S
H320 C255 0.960 . S
H321 C257 0.980 . S
H322 C256 0.961 . S
H323 C256 0.961 . S
H324 C256 0.959 . S
H325 C259 0.932 . S
H326 C263 0.929 . S
H327 C264 0.961 . S
H328 C264 0.959 . S
H329 C264 0.959 . S
H330 C265 0.960 . S
H331 C265 0.962 . S
H332 C265 0.961 . S
H333 C267 0.929 . S
H334 C270 0.930 . S
H335 C271 0.929 . S
H336 C274 0.930 . S
H337 C277 0.929 . S
H338 C278 0.930 . S
H339 C282 0.962 . S
H340 C282 0.959 . S
H341 C282 0.958 . S
C342 C343 1.560 1_565 S
C342 H403 0.959 1_565 S
C342 H404 0.959 . S
C342 H405 0.960 . S
C343 C342 1.560 1_545 S
C343 O398 1.426 . S
C343 H402 0.980 . S
C344 C345 1.407 . S
C344 C349 1.418 . S
C344 O398 1.334 . S
C345 C344 1.407 . S
C345 C346 1.360 . S
C345 H406 0.929 . S
C346 C345 1.360 . S
C346 C347 1.401 . S
C346 C350 1.527 . S
C347 C346 1.401 . S
C347 C348 1.405 . S
C347 C380 1.587 . S
C348 C347 1.405 . S
C348 C349 1.332 . S
C348 C351 1.496 . S
C349 C344 1.418 . S
C349 C348 1.332 . S
C349 H407 0.929 . S
C350 C346 1.527 . S
C350 H408 0.959 . S
C350 H409 0.961 . S
C350 H410 0.961 . S
C351 C348 1.496 . S
C351 H411 0.960 . S
C351 H412 0.960 . S
C351 H413 0.961 . S
C352 C353 1.517 . S
C352 H415 0.961 . S
C352 H416 0.960 . S
C352 H417 0.959 . S
C353 C352 1.517 . S
C353 O401 1.468 . S
C353 H414 0.980 . S
C354 C355 1.349 . S
C354 C359 1.367 . S
C354 O401 1.408 . S
C355 C354 1.349 . S
C355 C356 1.407 . S
C355 H418 0.930 . S
C356 C355 1.407 . S
C356 C357 1.449 . S
C356 C360 1.535 . S
C357 C356 1.449 . S
C357 C358 1.384 . S
C357 C382 1.553 . S
C358 C357 1.384 . S
C358 C359 1.364 . S
C358 C361 1.450 . S
C359 C354 1.367 . S
C359 C358 1.364 . S
C359 H419 0.931 . S
C360 C356 1.535 . S
C360 H420 0.959 . S
C360 H421 0.961 . S
C360 H422 0.959 . S
C361 C358 1.450 . S
C361 H423 0.960 . S
C361 H424 0.960 . S
C361 H425 0.960 . S
C362 C363 1.309 . S
C362 C367 1.304 . S
C362 O400 1.435 . S
C363 C362 1.309 . S
C363 C364 1.476 . S
C363 H427 0.930 . S
C364 C363 1.476 . S
C364 C365 1.400 . S
C364 C368 1.567 . S
C365 C364 1.400 . S
C365 C366 1.373 . S
C365 C387 1.432 . S
C366 C365 1.373 . S
C366 C367 1.339 . S
C366 C369 1.530 . S
C367 C362 1.304 . S
C367 C366 1.339 . S
C367 H428 0.930 . S
C368 C364 1.567 . S
C368 H429 0.961 . S
C368 H430 0.960 . S
C368 H431 0.958 . S
C369 C366 1.530 . S
C369 H432 0.961 . S
C369 H433 0.960 . S
C369 H434 0.960 . S
C370 C371 1.530 1_565 S
C370 H436 0.961 . S
C370 H437 0.961 . S
C370 H438 0.959 . S
C371 C370 1.530 1_545 S
C371 O399 1.412 . S
C371 H435 0.980 1_545 S
C372 C373 1.288 . S
C372 C377 1.377 . S
C372 O399 1.393 . S
C373 C372 1.288 . S
C373 C374 1.369 . S
C373 H439 0.932 . S
C374 C373 1.369 . S
C374 C375 1.398 . S
C374 C378 1.527 . S
C375 C374 1.398 . S
C375 C376 1.380 . S
C375 C389 1.497 . S
C376 C375 1.380 . S
C376 C377 1.383 . S
C376 C379 1.603 . S
C377 C372 1.377 . S
C377 C376 1.383 . S
C377 H440 0.929 . S
C378 C374 1.527 . S
C378 H441 0.961 . S
C378 H442 0.959 . S
C378 H443 0.959 . S
C379 C376 1.603 . S
C379 H444 0.960 . S
C379 H445 0.962 . S
C379 H446 0.961 . S
C380 C347 1.587 . S
C380 C381 1.360 . S
C380 C393 1.412 . S
C381 C380 1.360 . S
C381 C382 1.365 . S
C381 H447 0.929 . S
C382 C357 1.553 . S
C382 C381 1.365 . S
C382 C383 1.404 . S
C383 C382 1.404 . S
C383 C384 1.395 . S
C383 C394 1.451 . S
C384 C383 1.395 . S
C384 C385 1.322 . S
C384 H448 0.930 . S
C385 C384 1.322 . S
C385 C386 1.459 . S
C385 H449 0.929 . S
C386 C385 1.459 . S
C386 C387 1.445 . S
C386 C395 1.395 . S
C387 C365 1.432 . S
C387 C386 1.445 . S
C387 C388 1.370 . S
C388 C387 1.370 . S
C388 C389 1.438 . S
C388 H450 0.930 . S
C389 C375 1.497 . S
C389 C388 1.438 . S
C389 C390 1.360 . S
C390 C389 1.360 . S
C390 C391 1.401 . S
C390 C395 1.446 . S
C391 C390 1.401 . S
C391 C392 1.347 . S
C391 H451 0.929 . S
C392 C391 1.347 . S
C392 C393 1.455 . S
C392 H452 0.930 . S
C393 C380 1.412 . S
C393 C392 1.455 . S
C393 C394 1.331 . S
C394 C383 1.451 . S
C394 C393 1.331 . S
C394 C395 1.497 . S
C395 C386 1.395 . S
C395 C390 1.446 . S
C395 C394 1.497 . S
C396 C397 1.582 . S
C396 H453 0.962 . S
C396 H454 0.959 . S
C396 H455 0.958 . S
C397 C396 1.582 . S
C397 O400 1.458 . S
C397 H426 0.980 . S
O398 C343 1.426 . S
O398 C344 1.334 . S
O399 C371 1.412 . S
O399 C372 1.393 . S
O400 C362 1.435 . S
O400 C397 1.458 . S
O401 C353 1.468 . S
O401 C354 1.408 . S
H402 C343 0.980 . S
H403 C342 0.959 1_545 S
H404 C342 0.959 . S
H405 C342 0.960 . S
H406 C345 0.929 . S
H407 C349 0.929 . S
H408 C350 0.959 . S
H409 C350 0.961 . S
H410 C350 0.961 . S
H411 C351 0.960 . S
H412 C351 0.960 . S
H413 C351 0.961 . S
H414 C353 0.980 . S
H415 C352 0.961 . S
H416 C352 0.960 . S
H417 C352 0.959 . S
H418 C355 0.930 . S
H419 C359 0.931 . S
H420 C360 0.959 . S
H421 C360 0.961 . S
H422 C360 0.959 . S
H423 C361 0.960 . S
H424 C361 0.960 . S
H425 C361 0.960 . S
H426 C397 0.980 . S
H427 C363 0.930 . S
H428 C367 0.930 . S
H429 C368 0.961 . S
H430 C368 0.960 . S
H431 C368 0.958 . S
H432 C369 0.961 . S
H433 C369 0.960 . S
H434 C369 0.960 . S
H435 C371 0.980 1_565 S
H436 C370 0.961 . S
H437 C370 0.961 . S
H438 C370 0.959 . S
H439 C373 0.932 . S
H440 C377 0.929 . S
H441 C378 0.961 . S
H442 C378 0.959 . S
H443 C378 0.959 . S
H444 C379 0.960 . S
H445 C379 0.962 . S
H446 C379 0.961 . S
H447 C381 0.929 . S
H448 C384 0.930 . S
H449 C385 0.929 . S
H450 C388 0.930 . S
H451 C391 0.929 . S
H452 C392 0.930 . S
H453 C396 0.962 . S
H454 C396 0.959 . S
H455 C396 0.958 . S
C456 C457 1.560 . S
C456 H517 0.959 . S
C456 H518 0.959 . S
C456 H519 0.960 . S
C457 C456 1.560 . S
C457 O512 1.426 . S
C457 H516 0.980 . S
C458 C459 1.407 . S
C458 C463 1.418 . S
C458 O512 1.334 . S
C459 C458 1.407 . S
C459 C460 1.360 . S
C459 H520 0.929 . S
C460 C459 1.360 . S
C460 C461 1.401 . S
C460 C464 1.527 . S
C461 C460 1.401 . S
C461 C462 1.405 . S
C461 C494 1.587 . S
C462 C461 1.405 . S
C462 C463 1.332 . S
C462 C465 1.496 . S
C463 C458 1.418 . S
C463 C462 1.332 . S
C463 H521 0.929 . S
C464 C460 1.527 . S
C464 H522 0.959 . S
C464 H523 0.961 . S
C464 H524 0.961 . S
C465 C462 1.496 . S
C465 H525 0.960 . S
C465 H526 0.960 . S
C465 H527 0.961 . S
C466 C467 1.517 . S
C466 H529 0.961 . S
C466 H530 0.960 . S
C466 H531 0.959 . S
C467 C466 1.517 . S
C467 O515 1.468 1_565 S
C467 H528 0.980 1_565 S
C468 C469 1.349 . S
C468 C473 1.367 . S
C468 O515 1.408 . S
C469 C468 1.349 . S
C469 C470 1.407 . S
C469 H532 0.930 . S
C470 C469 1.407 . S
C470 C471 1.449 . S
C470 C474 1.535 . S
C471 C470 1.449 . S
C471 C472 1.384 . S
C471 C496 1.553 . S
C472 C471 1.384 . S
C472 C473 1.364 . S
C472 C475 1.450 . S
C473 C468 1.367 . S
C473 C472 1.364 . S
C473 H533 0.931 . S
C474 C470 1.535 . S
C474 H534 0.959 . S
C474 H535 0.961 . S
C474 H536 0.959 . S
C475 C472 1.450 . S
C475 H537 0.960 . S
C475 H538 0.960 . S
C475 H539 0.960 . S
C476 C477 1.309 . S
C476 C481 1.304 . S
C476 O514 1.435 . S
C477 C476 1.309 . S
C477 C478 1.476 . S
C477 H541 0.930 . S
C478 C477 1.476 . S
C478 C479 1.400 . S
C478 C482 1.567 . S
C479 C478 1.400 . S
C479 C480 1.373 . S
C479 C501 1.432 . S
C480 C479 1.373 . S
C480 C481 1.339 . S
C480 C483 1.530 . S
C481 C476 1.304 . S
C481 C480 1.339 . S
C481 H542 0.930 . S
C482 C478 1.567 . S
C482 H543 0.961 . S
C482 H544 0.960 . S
C482 H545 0.958 . S
C483 C480 1.530 . S
C483 H546 0.961 . S
C483 H547 0.960 . S
C483 H548 0.960 . S
C484 C485 1.530 . S
C484 H550 0.961 . S
C484 H551 0.961 . S
C484 H552 0.959 . S
C485 C484 1.530 . S
C485 O513 1.412 . S
C485 H549 0.980 . S
C486 C487 1.288 . S
C486 C491 1.377 . S
C486 O513 1.393 . S
C487 C486 1.288 . S
C487 C488 1.369 . S
C487 H553 0.932 . S
C488 C487 1.369 . S
C488 C489 1.398 . S
C488 C492 1.527 . S
C489 C488 1.398 . S
C489 C490 1.380 . S
C489 C503 1.497 . S
C490 C489 1.380 . S
C490 C491 1.383 . S
C490 C493 1.603 . S
C491 C486 1.377 . S
C491 C490 1.383 . S
C491 H554 0.929 . S
C492 C488 1.527 . S
C492 H555 0.961 . S
C492 H556 0.959 . S
C492 H557 0.959 . S
C493 C490 1.603 . S
C493 H558 0.960 . S
C493 H559 0.962 . S
C493 H560 0.961 . S
C494 C461 1.587 . S
C494 C495 1.360 . S
C494 C507 1.412 . S
C495 C494 1.360 . S
C495 C496 1.365 . S
C495 H561 0.929 . S
C496 C471 1.553 . S
C496 C495 1.365 . S
C496 C497 1.404 . S
C497 C496 1.404 . S
C497 C498 1.395 . S
C497 C508 1.451 . S
C498 C497 1.395 . S
C498 C499 1.322 . S
C498 H562 0.930 . S
C499 C498 1.322 . S
C499 C500 1.459 . S
C499 H563 0.929 . S
C500 C499 1.459 . S
C500 C501 1.445 . S
C500 C509 1.395 . S
C501 C479 1.432 . S
C501 C500 1.445 . S
C501 C502 1.370 . S
C502 C501 1.370 . S
C502 C503 1.438 . S
C502 H564 0.930 . S
C503 C489 1.497 . S
C503 C502 1.438 . S
C503 C504 1.360 . S
C504 C503 1.360 . S
C504 C505 1.401 . S
C504 C509 1.446 . S
C505 C504 1.401 . S
C505 C506 1.347 . S
C505 H565 0.929 . S
C506 C505 1.347 . S
C506 C507 1.455 . S
C506 H566 0.930 . S
C507 C494 1.412 . S
C507 C506 1.455 . S
C507 C508 1.331 . S
C508 C497 1.451 . S
C508 C507 1.331 . S
C508 C509 1.497 . S
C509 C500 1.395 . S
C509 C504 1.446 . S
C509 C508 1.497 . S
C510 C511 1.582 . S
C510 H567 0.962 . S
C510 H568 0.959 . S
C510 H569 0.958 . S
C511 C510 1.582 . S
C511 O514 1.458 1_565 S
C511 H540 0.980 . S
O512 C457 1.426 . S
O512 C458 1.334 . S
O513 C485 1.412 . S
O513 C486 1.393 . S
O514 C476 1.435 . S
O514 C511 1.458 1_545 S
O515 C467 1.468 1_545 S
O515 C468 1.408 . S
H516 C457 0.980 . S
H517 C456 0.959 . S
H518 C456 0.959 . S
H519 C456 0.960 . S
H520 C459 0.929 . S
H521 C463 0.929 . S
H522 C464 0.959 . S
H523 C464 0.961 . S
H524 C464 0.961 . S
H525 C465 0.960 . S
H526 C465 0.960 . S
H527 C465 0.961 . S
H528 C467 0.980 1_545 S
H529 C466 0.961 . S
H530 C466 0.960 . S
H531 C466 0.959 . S
H532 C469 0.930 . S
H533 C473 0.931 . S
H534 C474 0.959 . S
H535 C474 0.961 . S
H536 C474 0.959 . S
H537 C475 0.960 . S
H538 C475 0.960 . S
H539 C475 0.960 . S
H540 C511 0.980 . S
H541 C477 0.930 . S
H542 C481 0.930 . S
H543 C482 0.961 . S
H544 C482 0.960 . S
H545 C482 0.958 . S
H546 C483 0.961 . S
H547 C483 0.960 . S
H548 C483 0.960 . S
H549 C485 0.980 . S
H550 C484 0.961 . S
H551 C484 0.961 . S
H552 C484 0.959 . S
H553 C487 0.932 . S
H554 C491 0.929 . S
H555 C492 0.961 . S
H556 C492 0.959 . S
H557 C492 0.959 . S
H558 C493 0.960 . S
H559 C493 0.962 . S
H560 C493 0.961 . S
H561 C495 0.929 . S
H562 C498 0.930 . S
H563 C499 0.929 . S
H564 C502 0.930 . S
H565 C505 0.929 . S
H566 C506 0.930 . S
H567 C510 0.962 . S
H568 C510 0.959 . S
H569 C510 0.958 . S
C570 C571 1.560 . S
C570 H631 0.959 . S
C570 H632 0.959 . S
C570 H633 0.960 . S
C571 C570 1.560 . S
C571 O626 1.426 . S
C571 H630 0.980 . S
C572 C573 1.407 . S
C572 C577 1.418 . S
C572 O626 1.334 . S
C573 C572 1.407 . S
C573 C574 1.360 . S
C573 H634 0.929 . S
C574 C573 1.360 . S
C574 C575 1.401 . S
C574 C578 1.527 . S
C575 C574 1.401 . S
C575 C576 1.405 . S
C575 C608 1.587 . S
C576 C575 1.405 . S
C576 C577 1.332 . S
C576 C579 1.496 . S
C577 C572 1.418 . S
C577 C576 1.332 . S
C577 H635 0.929 . S
C578 C574 1.527 . S
C578 H636 0.959 . S
C578 H637 0.961 . S
C578 H638 0.961 . S
C579 C576 1.496 . S
C579 H639 0.960 . S
C579 H640 0.960 . S
C579 H641 0.961 . S
C580 C581 1.517 . S
C580 H643 0.961 . S
C580 H644 0.960 . S
C580 H645 0.959 . S
C581 C580 1.517 . S
C581 O629 1.468 1_545 S
C581 H642 0.980 1_545 S
C582 C583 1.349 . S
C582 C587 1.367 . S
C582 O629 1.408 . S
C583 C582 1.349 . S
C583 C584 1.407 . S
C583 H646 0.930 . S
C584 C583 1.407 . S
C584 C585 1.449 . S
C584 C588 1.535 . S
C585 C584 1.449 . S
C585 C586 1.384 . S
C585 C610 1.553 . S
C586 C585 1.384 . S
C586 C587 1.364 . S
C586 C589 1.450 . S
C587 C582 1.367 . S
C587 C586 1.364 . S
C587 H647 0.931 . S
C588 C584 1.535 . S
C588 H648 0.959 . S
C588 H649 0.961 . S
C588 H650 0.959 . S
C589 C586 1.450 . S
C589 H651 0.960 . S
C589 H652 0.960 . S
C589 H653 0.960 . S
C590 C591 1.309 . S
C590 C595 1.304 . S
C590 O628 1.435 . S
C591 C590 1.309 . S
C591 C592 1.476 . S
C591 H655 0.930 . S
C592 C591 1.476 . S
C592 C593 1.400 . S
C592 C596 1.567 . S
C593 C592 1.400 . S
C593 C594 1.373 . S
C593 C615 1.432 . S
C594 C593 1.373 . S
C594 C595 1.339 . S
C594 C597 1.530 . S
C595 C590 1.304 . S
C595 C594 1.339 . S
C595 H656 0.930 . S
C596 C592 1.567 . S
C596 H657 0.961 . S
C596 H658 0.960 . S
C596 H659 0.958 . S
C597 C594 1.530 . S
C597 H660 0.961 . S
C597 H661 0.960 . S
C597 H662 0.960 . S
C598 C599 1.530 . S
C598 H664 0.961 . S
C598 H665 0.961 . S
C598 H666 0.959 . S
C599 C598 1.530 . S
C599 O627 1.412 . S
C599 H663 0.980 . S
C600 C601 1.288 . S
C600 C605 1.377 . S
C600 O627 1.393 . S
C601 C600 1.288 . S
C601 C602 1.369 . S
C601 H667 0.932 . S
C602 C601 1.369 . S
C602 C603 1.398 . S
C602 C606 1.527 . S
C603 C602 1.398 . S
C603 C604 1.380 . S
C603 C617 1.497 . S
C604 C603 1.380 . S
C604 C605 1.383 . S
C604 C607 1.603 . S
C605 C600 1.377 . S
C605 C604 1.383 . S
C605 H668 0.929 . S
C606 C602 1.527 . S
C606 H669 0.961 . S
C606 H670 0.959 . S
C606 H671 0.959 . S
C607 C604 1.603 . S
C607 H672 0.960 . S
C607 H673 0.962 . S
C607 H674 0.961 . S
C608 C575 1.587 . S
C608 C609 1.360 . S
C608 C621 1.412 . S
C609 C608 1.360 . S
C609 C610 1.365 . S
C609 H675 0.929 . S
C610 C585 1.553 . S
C610 C609 1.365 . S
C610 C611 1.404 . S
C611 C610 1.404 . S
C611 C612 1.395 . S
C611 C622 1.451 . S
C612 C611 1.395 . S
C612 C613 1.322 . S
C612 H676 0.930 . S
C613 C612 1.322 . S
C613 C614 1.459 . S
C613 H677 0.929 . S
C614 C613 1.459 . S
C614 C615 1.445 . S
C614 C623 1.395 . S
C615 C593 1.432 . S
C615 C614 1.445 . S
C615 C616 1.370 . S
C616 C615 1.370 . S
C616 C617 1.438 . S
C616 H678 0.930 . S
C617 C603 1.497 . S
C617 C616 1.438 . S
C617 C618 1.360 . S
C618 C617 1.360 . S
C618 C619 1.401 . S
C618 C623 1.446 . S
C619 C618 1.401 . S
C619 C620 1.347 . S
C619 H679 0.929 . S
C620 C619 1.347 . S
C620 C621 1.455 . S
C620 H680 0.930 . S
C621 C608 1.412 . S
C621 C620 1.455 . S
C621 C622 1.331 . S
C622 C611 1.451 . S
C622 C621 1.331 . S
C622 C623 1.497 . S
C623 C614 1.395 . S
C623 C618 1.446 . S
C623 C622 1.497 . S
C624 C625 1.582 . S
C624 H681 0.962 . S
C624 H682 0.959 . S
C624 H683 0.958 . S
C625 C624 1.582 . S
C625 O628 1.458 1_545 S
C625 H654 0.980 . S
O626 C571 1.426 . S
O626 C572 1.334 . S
O627 C599 1.412 . S
O627 C600 1.393 . S
O628 C590 1.435 . S
O628 C625 1.458 1_565 S
O629 C581 1.468 1_565 S
O629 C582 1.408 . S
H630 C571 0.980 . S
H631 C570 0.959 . S
H632 C570 0.959 . S
H633 C570 0.960 . S
H634 C573 0.929 . S
H635 C577 0.929 . S
H636 C578 0.959 . S
H637 C578 0.961 . S
H638 C578 0.961 . S
H639 C579 0.960 . S
H640 C579 0.960 . S
H641 C579 0.961 . S
H642 C581 0.980 1_565 S
H643 C580 0.961 . S
H644 C580 0.960 . S
H645 C580 0.959 . S
H646 C583 0.930 . S
H647 C587 0.931 . S
H648 C588 0.959 . S
H649 C588 0.961 . S
H650 C588 0.959 . S
H651 C589 0.960 . S
H652 C589 0.960 . S
H653 C589 0.960 . S
H654 C625 0.980 . S
H655 C591 0.930 . S
H656 C595 0.930 . S
H657 C596 0.961 . S
H658 C596 0.960 . S
H659 C596 0.958 . S
H660 C597 0.961 . S
H661 C597 0.960 . S
H662 C597 0.960 . S
H663 C599 0.980 . S
H664 C598 0.961 . S
H665 C598 0.961 . S
H666 C598 0.959 . S
H667 C601 0.932 . S
H668 C605 0.929 . S
H669 C606 0.961 . S
H670 C606 0.959 . S
H671 C606 0.959 . S
H672 C607 0.960 . S
H673 C607 0.962 . S
H674 C607 0.961 . S
H675 C609 0.929 . S
H676 C612 0.930 . S
H677 C613 0.929 . S
H678 C616 0.930 . S
H679 C619 0.929 . S
H680 C620 0.930 . S
H681 C624 0.962 . S
H682 C624 0.959 . S
H683 C624 0.958 . S
C684 C685 1.560 . S
C684 H745 0.959 . S
C684 H746 0.959 . S
C684 H747 0.960 . S
C685 C684 1.560 . S
C685 O740 1.426 . S
C685 H744 0.980 . S
C686 C687 1.407 . S
C686 C691 1.418 . S
C686 O740 1.334 . S
C687 C686 1.407 . S
C687 C688 1.360 . S
C687 H748 0.929 . S
C688 C687 1.360 . S
C688 C689 1.401 . S
C688 C692 1.527 . S
C689 C688 1.401 . S
C689 C690 1.405 . S
C689 C722 1.587 . S
C690 C689 1.405 . S
C690 C691 1.332 . S
C690 C693 1.496 . S
C691 C686 1.418 . S
C691 C690 1.332 . S
C691 H749 0.929 . S
C692 C688 1.527 . S
C692 H750 0.959 . S
C692 H751 0.961 . S
C692 H752 0.961 . S
C693 C690 1.496 . S
C693 H753 0.960 . S
C693 H754 0.960 . S
C693 H755 0.961 . S
C694 C695 1.517 . S
C694 H757 0.961 . S
C694 H758 0.960 . S
C694 H759 0.959 . S
C695 C694 1.517 . S
C695 O743 1.468 . S
C695 H756 0.980 . S
C696 C697 1.349 . S
C696 C701 1.367 . S
C696 O743 1.408 . S
C697 C696 1.349 . S
C697 C698 1.407 . S
C697 H760 0.930 . S
C698 C697 1.407 . S
C698 C699 1.449 . S
C698 C702 1.535 . S
C699 C698 1.449 . S
C699 C700 1.384 . S
C699 C724 1.553 . S
C700 C699 1.384 . S
C700 C701 1.364 . S
C700 C703 1.450 . S
C701 C696 1.367 . S
C701 C700 1.364 . S
C701 H761 0.931 . S
C702 C698 1.535 . S
C702 H762 0.959 . S
C702 H763 0.961 . S
C702 H764 0.959 . S
C703 C700 1.450 . S
C703 H765 0.960 . S
C703 H766 0.960 . S
C703 H767 0.960 . S
C704 C705 1.309 . S
C704 C709 1.304 . S
C704 O742 1.435 . S
C705 C704 1.309 . S
C705 C706 1.476 . S
C705 H769 0.930 . S
C706 C705 1.476 . S
C706 C707 1.400 . S
C706 C710 1.567 . S
C707 C706 1.400 . S
C707 C708 1.373 . S
C707 C729 1.432 . S
C708 C707 1.373 . S
C708 C709 1.339 . S
C708 C711 1.530 . S
C709 C704 1.304 . S
C709 C708 1.339 . S
C709 H770 0.930 . S
C710 C706 1.567 . S
C710 H771 0.961 . S
C710 H772 0.960 . S
C710 H773 0.958 . S
C711 C708 1.530 . S
C711 H774 0.961 . S
C711 H775 0.960 1_556 S
C711 H776 0.960 . S
C712 C713 1.530 . S
C712 H778 0.961 . S
C712 H779 0.961 . S
C712 H780 0.959 . S
C713 C712 1.530 . S
C713 O741 1.412 . S
C713 H777 0.980 . S
C714 C715 1.288 . S
C714 C719 1.377 . S
C714 O741 1.393 . S
C715 C714 1.288 . S
C715 C716 1.369 . S
C715 H781 0.932 . S
C716 C715 1.369 . S
C716 C717 1.398 . S
C716 C720 1.527 . S
C717 C716 1.398 . S
C717 C718 1.380 . S
C717 C731 1.497 . S
C718 C717 1.380 . S
C718 C719 1.383 . S
C718 C721 1.603 . S
C719 C714 1.377 . S
C719 C718 1.383 . S
C719 H782 0.929 . S
C720 C716 1.527 . S
C720 H783 0.961 . S
C720 H784 0.959 . S
C720 H785 0.959 . S
C721 C718 1.603 . S
C721 H786 0.960 . S
C721 H787 0.962 . S
C721 H788 0.961 . S
C722 C689 1.587 . S
C722 C723 1.360 . S
C722 C735 1.412 . S
C723 C722 1.360 . S
C723 C724 1.365 . S
C723 H789 0.929 . S
C724 C699 1.553 . S
C724 C723 1.365 . S
C724 C725 1.404 . S
C725 C724 1.404 . S
C725 C726 1.395 . S
C725 C736 1.451 . S
C726 C725 1.395 . S
C726 C727 1.322 . S
C726 H790 0.930 . S
C727 C726 1.322 . S
C727 C728 1.429 1_554 S
C727 H791 0.929 . S
C728 C727 1.429 1_556 S
C728 C729 1.496 . S
C728 C737 1.376 1_556 S
C729 C707 1.432 . S
C729 C728 1.496 . S
C729 C730 1.370 . S
C730 C729 1.370 . S
C730 C731 1.438 . S
C730 H792 0.930 . S
C731 C717 1.497 . S
C731 C730 1.438 . S
C731 C732 1.360 . S
C732 C731 1.360 . S
C732 C733 1.401 1_556 S
C732 C737 1.446 1_556 S
C733 C732 1.401 1_554 S
C733 C734 1.347 . S
C733 H793 0.929 1_554 S
C734 C733 1.347 . S
C734 C735 1.455 . S
C734 H794 0.930 . S
C735 C722 1.412 . S
C735 C734 1.455 . S
C735 C736 1.331 . S
C736 C725 1.451 . S
C736 C735 1.331 . S
C736 C737 1.497 . S
C737 C728 1.376 1_554 S
C737 C732 1.446 1_554 S
C737 C736 1.497 . S
C738 C739 1.582 . S
C738 H795 0.962 . S
C738 H796 0.959 . S
C738 H797 0.958 . S
C739 C738 1.582 . S
C739 O742 1.458 . S
C739 H768 0.980 . S
O740 C685 1.426 . S
O740 C686 1.334 . S
O741 C713 1.412 . S
O741 C714 1.393 . S
O742 C704 1.435 . S
O742 C739 1.458 . S
O743 C695 1.468 . S
O743 C696 1.408 . S
H744 C685 0.980 . S
H745 C684 0.959 . S
H746 C684 0.959 . S
H747 C684 0.960 . S
H748 C687 0.929 . S
H749 C691 0.929 . S
H750 C692 0.959 . S
H751 C692 0.961 . S
H752 C692 0.961 . S
H753 C693 0.960 . S
H754 C693 0.960 . S
H755 C693 0.961 . S
H756 C695 0.980 . S
H757 C694 0.961 . S
H758 C694 0.960 . S
H759 C694 0.959 . S
H760 C697 0.930 . S
H761 C701 0.931 . S
H762 C702 0.959 . S
H763 C702 0.961 . S
H764 C702 0.959 . S
H765 C703 0.960 . S
H766 C703 0.960 . S
H767 C703 0.960 . S
H768 C739 0.980 . S
H769 C705 0.930 . S
H770 C709 0.930 . S
H771 C710 0.961 . S
H772 C710 0.960 . S
H773 C710 0.958 . S
H774 C711 0.961 . S
H775 C711 0.960 1_554 S
H776 C711 0.960 . S
H777 C713 0.980 . S
H778 C712 0.961 . S
H779 C712 0.961 . S
H780 C712 0.959 . S
H781 C715 0.932 . S
H782 C719 0.929 . S
H783 C720 0.961 . S
H784 C720 0.959 . S
H785 C720 0.959 . S
H786 C721 0.960 . S
H787 C721 0.962 . S
H788 C721 0.961 . S
H789 C723 0.929 . S
H790 C726 0.930 . S
H791 C727 0.929 . S
H792 C730 0.930 . S
H793 C733 0.929 1_556 S
H794 C734 0.930 . S
H795 C738 0.962 . S
H796 C738 0.959 . S
H797 C738 0.958 . S
C798 C799 1.560 . S
C798 H859 0.959 . S
C798 H860 0.959 . S
C798 H861 0.960 . S
C799 C798 1.560 . S
C799 O854 1.426 . S
C799 H858 0.980 . S
C800 C801 1.407 . S
C800 C805 1.418 . S
C800 O854 1.334 . S
C801 C800 1.407 . S
C801 C802 1.360 . S
C801 H862 0.929 . S
C802 C801 1.360 . S
C802 C803 1.401 . S
C802 C806 1.527 . S
C803 C802 1.401 . S
C803 C804 1.405 . S
C803 C836 1.587 . S
C804 C803 1.405 . S
C804 C805 1.332 . S
C804 C807 1.496 . S
C805 C800 1.418 . S
C805 C804 1.332 . S
C805 H863 0.929 . S
C806 C802 1.527 . S
C806 H864 0.959 . S
C806 H865 0.961 . S
C806 H866 0.961 . S
C807 C804 1.496 . S
C807 H867 0.960 . S
C807 H868 0.960 . S
C807 H869 0.961 . S
C808 C809 1.517 . S
C808 H871 0.961 . S
C808 H872 0.960 . S
C808 H873 0.959 . S
C809 C808 1.517 . S
C809 O857 1.468 . S
C809 H870 0.980 . S
C810 C811 1.349 . S
C810 C815 1.367 . S
C810 O857 1.408 . S
C811 C810 1.349 . S
C811 C812 1.407 . S
C811 H874 0.930 . S
C812 C811 1.407 . S
C812 C813 1.449 . S
C812 C816 1.535 . S
C813 C812 1.449 . S
C813 C814 1.384 . S
C813 C838 1.553 . S
C814 C813 1.384 . S
C814 C815 1.364 . S
C814 C817 1.450 . S
C815 C810 1.367 . S
C815 C814 1.364 . S
C815 H875 0.931 . S
C816 C812 1.535 . S
C816 H876 0.959 . S
C816 H877 0.961 . S
C816 H878 0.959 . S
C817 C814 1.450 . S
C817 H879 0.960 . S
C817 H880 0.960 . S
C817 H881 0.960 . S
C818 C819 1.309 . S
C818 C823 1.304 . S
C818 O856 1.435 . S
C819 C818 1.309 . S
C819 C820 1.476 . S
C819 H883 0.930 . S
C820 C819 1.476 . S
C820 C821 1.400 . S
C820 C824 1.567 . S
C821 C820 1.400 . S
C821 C822 1.373 . S
C821 C843 1.432 . S
C822 C821 1.373 . S
C822 C823 1.339 . S
C822 C825 1.530 . S
C823 C818 1.304 . S
C823 C822 1.339 . S
C823 H884 0.930 . S
C824 C820 1.567 . S
C824 H885 0.961 . S
C824 H886 0.960 . S
C824 H887 0.958 . S
C825 C822 1.530 . S
C825 H888 0.961 . S
C825 H889 0.960 . S
C825 H890 0.960 . S
C826 C827 1.530 . S
C826 H892 0.961 . S
C826 H893 0.961 . S
C826 H894 0.959 . S
C827 C826 1.530 . S
C827 O855 1.412 . S
C827 H891 0.980 . S
C828 C829 1.288 . S
C828 C833 1.377 . S
C828 O855 1.393 . S
C829 C828 1.288 . S
C829 C830 1.369 . S
C829 H895 0.932 . S
C830 C829 1.369 . S
C830 C831 1.398 . S
C830 C834 1.527 . S
C831 C830 1.398 . S
C831 C832 1.380 . S
C831 C845 1.497 . S
C832 C831 1.380 . S
C832 C833 1.383 . S
C832 C835 1.603 . S
C833 C828 1.377 . S
C833 C832 1.383 . S
C833 H896 0.929 . S
C834 C830 1.527 . S
C834 H897 0.961 . S
C834 H898 0.959 . S
C834 H899 0.959 . S
C835 C832 1.603 . S
C835 H900 0.960 . S
C835 H901 0.962 . S
C835 H902 0.961 . S
C836 C803 1.587 . S
C836 C837 1.360 1_655 S
C836 C849 1.412 . S
C837 C836 1.360 1_455 S
C837 C838 1.365 . S
C837 H903 0.929 . S
C838 C813 1.553 . S
C838 C837 1.365 . S
C838 C839 1.404 . S
C839 C838 1.404 . S
C839 C840 1.395 . S
C839 C850 1.451 . S
C840 C839 1.395 . S
C840 C841 1.322 . S
C840 H904 0.930 . S
C841 C840 1.322 . S
C841 C842 1.459 . S
C841 H905 0.929 . S
C842 C841 1.459 . S
C842 C843 1.445 . S
C842 C851 1.395 . S
C843 C821 1.432 . S
C843 C842 1.445 . S
C843 C844 1.370 . S
C844 C843 1.370 . S
C844 C845 1.438 1_455 S
C844 H906 0.930 . S
C845 C831 1.497 . S
C845 C844 1.438 1_655 S
C845 C846 1.360 . S
C846 C845 1.360 . S
C846 C847 1.401 . S
C846 C851 1.446 1_655 S
C847 C846 1.401 . S
C847 C848 1.347 . S
C847 H907 0.929 . S
C848 C847 1.347 . S
C848 C849 1.455 . S
C848 H908 0.930 . S
C849 C836 1.412 . S
C849 C848 1.455 . S
C849 C850 1.331 1_655 S
C850 C839 1.451 . S
C850 C849 1.331 1_455 S
C850 C851 1.497 . S
C851 C842 1.395 . S
C851 C846 1.446 1_455 S
C851 C850 1.497 . S
C852 C853 1.582 . S
C852 H909 0.962 . S
C852 H910 0.959 . S
C852 H911 0.958 . S
C853 C852 1.582 . S
C853 O856 1.458 . S
C853 H882 0.980 . S
O854 C799 1.426 . S
O854 C800 1.334 . S
O855 C827 1.412 . S
O855 C828 1.393 . S
O856 C818 1.435 . S
O856 C853 1.458 . S
O857 C809 1.468 . S
O857 C810 1.408 . S
H858 C799 0.980 . S
H859 C798 0.959 . S
H860 C798 0.959 . S
H861 C798 0.960 . S
H862 C801 0.929 . S
H863 C805 0.929 . S
H864 C806 0.959 . S
H865 C806 0.961 . S
H866 C806 0.961 . S
H867 C807 0.960 . S
H868 C807 0.960 . S
H869 C807 0.961 . S
H870 C809 0.980 . S
H871 C808 0.961 . S
H872 C808 0.960 . S
H873 C808 0.959 . S
H874 C811 0.930 . S
H875 C815 0.931 . S
H876 C816 0.959 . S
H877 C816 0.961 . S
H878 C816 0.959 . S
H879 C817 0.960 . S
H880 C817 0.960 . S
H881 C817 0.960 . S
H882 C853 0.980 . S
H883 C819 0.930 . S
H884 C823 0.930 . S
H885 C824 0.961 . S
H886 C824 0.960 . S
H887 C824 0.958 . S
H888 C825 0.961 . S
H889 C825 0.960 . S
H890 C825 0.960 . S
H891 C827 0.980 . S
H892 C826 0.961 . S
H893 C826 0.961 . S
H894 C826 0.959 . S
H895 C829 0.932 . S
H896 C833 0.929 . S
H897 C834 0.961 . S
H898 C834 0.959 . S
H899 C834 0.959 . S
H900 C835 0.960 . S
H901 C835 0.962 . S
H902 C835 0.961 . S
H903 C837 0.929 . S
H904 C840 0.930 . S
H905 C841 0.929 . S
H906 C844 0.930 . S
H907 C847 0.929 . S
H908 C848 0.930 . S
H909 C852 0.962 . S
H910 C852 0.959 . S
H911 C852 0.958 . S
Fe912 O913 1.886 . S
Fe912 O916 1.715 1_455 S
Fe912 O921 2.077 . S
Fe912 O926 1.935 1_455 S
Fe912 O932 2.077 . S
Fe912 O941 1.935 1_455 S
O913 Fe912 1.886 . S
O913 Fe915 1.715 . S
Fe914 O916 1.886 . S
Fe914 O917 1.715 . S
Fe914 O924 1.935 . S
Fe914 O925 2.077 . S
Fe914 O931 1.935 . S
Fe914 O940 2.077 . S
Fe915 O913 1.715 . S
Fe915 O918 1.886 . S
Fe915 O922 1.935 . S
Fe915 O927 2.077 . S
Fe915 O933 1.935 . S
Fe915 O937 2.077 . S
O916 Fe912 1.715 1_655 S
O916 Fe914 1.886 . S
O917 Fe914 1.715 . S
O917 Fe919 1.886 1_655 S
O918 Fe915 1.886 . S
O918 Fe919 1.715 . S
Fe919 O917 1.886 1_455 S
Fe919 O918 1.715 . S
Fe919 O923 2.077 1_455 S
Fe919 O928 1.935 . S
Fe919 O930 2.077 1_455 S
Fe919 O938 1.935 . S
C920 O932 1.381 . S
C920 O933 1.421 . S
O921 Fe912 2.077 . S
O921 C934 1.381 . S
O922 Fe915 1.935 . S
O922 C934 1.421 . S
O923 Fe919 2.077 1_655 S
O923 C939 1.381 . S
O924 Fe914 1.935 . S
O924 C939 1.421 . S
O925 Fe914 2.077 . S
O925 C929 1.381 . S
O926 Fe912 1.935 1_655 S
O926 C929 1.421 . S
O927 Fe915 2.077 . S
O927 C935 1.381 . S
O928 Fe919 1.935 . S
O928 C935 1.421 . S
C929 O925 1.381 . S
C929 O926 1.421 . S
O930 Fe919 2.077 1_655 S
O930 C942 1.381 . S
O931 Fe914 1.935 . S
O931 C942 1.421 . S
O932 Fe912 2.077 . S
O932 C920 1.381 . S
O933 Fe915 1.935 . S
O933 C920 1.421 . S
C934 O921 1.381 . S
C934 O922 1.421 . S
C935 O927 1.381 . S
C935 O928 1.421 . S
C936 O937 1.381 . S
C936 O938 1.421 . S
O937 Fe915 2.077 . S
O937 C936 1.381 . S
O938 Fe919 1.935 . S
O938 C936 1.421 . S
C939 O923 1.381 . S
C939 O924 1.421 . S
O940 Fe914 2.077 . S
O940 C943 1.381 . S
O941 Fe912 1.935 1_655 S
O941 C943 1.421 . S
C942 O930 1.381 . S
C942 O931 1.421 . S
C943 O940 1.381 . S
C943 O941 1.421 . S
Fe944 O945 1.886 . S
Fe944 O948 1.715 . S
Fe944 O953 2.077 . S
Fe944 O958 1.935 . S
Fe944 O964 2.077 . S
Fe944 O973 1.935 . S
O945 Fe944 1.886 . S
O945 Fe947 1.715 . S
Fe946 O948 1.886 . S
Fe946 O949 1.715 . S
Fe946 O956 1.935 . S
Fe946 O957 2.077 . S
Fe946 O963 1.935 . S
Fe946 O972 2.077 . S
Fe947 O945 1.715 . S
Fe947 O950 1.886 . S
Fe947 O954 1.935 . S
Fe947 O959 2.077 . S
Fe947 O965 1.935 . S
Fe947 O969 2.077 . S
O948 Fe944 1.715 . S
O948 Fe946 1.886 . S
O949 Fe946 1.715 . S
O949 Fe951 1.886 . S
O950 Fe947 1.886 . S
O950 Fe951 1.715 . S
Fe951 O949 1.886 . S
Fe951 O950 1.715 . S
Fe951 O955 2.077 . S
Fe951 O960 1.935 . S
Fe951 O962 2.077 . S
Fe951 O970 1.935 . S
C952 O964 1.381 . S
C952 O965 1.421 . S
O953 Fe944 2.077 . S
O953 C966 1.381 . S
O954 Fe947 1.935 . S
O954 C966 1.421 . S
O955 Fe951 2.077 . S
O955 C971 1.381 . S
O956 Fe946 1.935 . S
O956 C971 1.421 . S
O957 Fe946 2.077 . S
O957 C961 1.381 . S
O958 Fe944 1.935 . S
O958 C961 1.421 . S
O959 Fe947 2.077 . S
O959 C967 1.381 . S
O960 Fe951 1.935 . S
O960 C967 1.421 . S
C961 O957 1.381 . S
C961 O958 1.421 . S
O962 Fe951 2.077 . S
O962 C974 1.381 . S
O963 Fe946 1.935 . S
O963 C974 1.421 . S
O964 Fe944 2.077 . S
O964 C952 1.381 . S
O965 Fe947 1.935 . S
O965 C952 1.421 . S
C966 O953 1.381 . S
C966 O954 1.421 . S
C967 O959 1.381 . S
C967 O960 1.421 . S
C968 O969 1.381 . S
C968 O970 1.421 . S
O969 Fe947 2.077 . S
O969 C968 1.381 . S
O970 Fe951 1.935 . S
O970 C968 1.421 . S
C971 O955 1.381 . S
C971 O956 1.421 . S
O972 Fe946 2.077 . S
O972 C975 1.381 . S
O973 Fe944 1.935 . S
O973 C975 1.421 . S
C974 O962 1.381 . S
C974 O963 1.421 . S
C975 O972 1.381 . S
C975 O973 1.421 . S
Fe976 O977 1.886 . S
Fe976 O980 1.715 . S
Fe976 O985 2.077 . S
Fe976 O990 1.935 . S
Fe976 O996 2.077 . S
Fe976 O1005 1.935 . S
O977 Fe976 1.886 . S
O977 Fe979 1.715 . S
Fe978 O980 1.886 . S
Fe978 O981 1.715 . S
Fe978 O988 1.935 . S
Fe978 O989 2.077 . S
Fe978 O995 1.935 . S
Fe978 O1004 2.077 . S
Fe979 O977 1.715 . S
Fe979 O982 1.886 . S
Fe979 O986 1.935 . S
Fe979 O991 2.077 . S
Fe979 O997 1.935 . S
Fe979 O1001 2.077 . S
O980 Fe976 1.715 . S
O980 Fe978 1.886 . S
O981 Fe978 1.715 . S
O981 Fe983 1.886 . S
O982 Fe979 1.886 . S
O982 Fe983 1.715 . S
Fe983 O981 1.886 . S
Fe983 O982 1.715 . S
Fe983 O987 2.077 . S
Fe983 O992 1.935 . S
Fe983 O994 2.077 . S
Fe983 O1002 1.935 . S
C984 O996 1.381 . S
C984 O997 1.421 . S
O985 Fe976 2.077 . S
O985 C998 1.381 . S
O986 Fe979 1.935 . S
O986 C998 1.421 . S
O987 Fe983 2.077 . S
O987 C1003 1.381 . S
O988 Fe978 1.935 . S
O988 C1003 1.421 . S
O989 Fe978 2.077 . S
O989 C993 1.381 . S
O990 Fe976 1.935 . S
O990 C993 1.421 . S
O991 Fe979 2.077 . S
O991 C999 1.381 . S
O992 Fe983 1.935 . S
O992 C999 1.421 . S
C993 O989 1.381 . S
C993 O990 1.421 . S
O994 Fe983 2.077 . S
O994 C1006 1.381 . S
O995 Fe978 1.935 . S
O995 C1006 1.421 . S
O996 Fe976 2.077 . S
O996 C984 1.381 . S
O997 Fe979 1.935 . S
O997 C984 1.421 . S
C998 O985 1.381 . S
C998 O986 1.421 . S
C999 O991 1.381 . S
C999 O992 1.421 . S
C1000 O1001 1.381 . S
C1000 O1002 1.421 . S
O1001 Fe979 2.077 . S
O1001 C1000 1.381 . S
O1002 Fe983 1.935 . S
O1002 C1000 1.421 . S
C1003 O987 1.381 . S
C1003 O988 1.421 . S
O1004 Fe978 2.077 . S
O1004 C1007 1.381 . S
O1005 Fe976 1.935 . S
O1005 C1007 1.421 . S
C1006 O994 1.381 . S
C1006 O995 1.421 . S
C1007 O1004 1.381 . S
C1007 O1005 1.421 . S
Fe1008 O1009 1.886 . S
Fe1008 O1012 1.715 . S
Fe1008 O1017 2.077 1_455 S
Fe1008 O1022 1.935 1_455 S
Fe1008 O1028 2.077 . S
Fe1008 O1037 1.935 . S
O1009 Fe1008 1.886 . S
O1009 Fe1011 1.715 . S
Fe1010 O1012 1.886 . S
Fe1010 O1013 1.715 . S
Fe1010 O1020 1.935 1_455 S
Fe1010 O1021 2.077 1_455 S
Fe1010 O1027 1.935 . S
Fe1010 O1036 2.077 . S
Fe1011 O1009 1.715 . S
Fe1011 O1014 1.886 . S
Fe1011 O1018 1.935 1_455 S
Fe1011 O1023 2.077 1_455 S
Fe1011 O1029 1.935 . S
Fe1011 O1033 2.077 . S
O1012 Fe1008 1.715 . S
O1012 Fe1010 1.886 . S
O1013 Fe1010 1.715 . S
O1013 Fe1015 1.886 . S
O1014 Fe1011 1.886 . S
O1014 Fe1015 1.715 . S
Fe1015 O1013 1.886 . S
Fe1015 O1014 1.715 . S
Fe1015 O1019 2.077 1_455 S
Fe1015 O1024 1.935 1_455 S
Fe1015 O1026 2.077 . S
Fe1015 O1034 1.935 . S
C1016 O1028 1.381 . S
C1016 O1029 1.421 . S
O1017 Fe1008 2.077 1_655 S
O1017 C1030 1.381 . S
O1018 Fe1011 1.935 1_655 S
O1018 C1030 1.421 . S
O1019 Fe1015 2.077 1_655 S
O1019 C1035 1.381 . S
O1020 Fe1010 1.935 1_655 S
O1020 C1035 1.421 . S
O1021 Fe1010 2.077 1_655 S
O1021 C1025 1.381 . S
O1022 Fe1008 1.935 1_655 S
O1022 C1025 1.421 . S
O1023 Fe1011 2.077 1_655 S
O1023 C1031 1.381 . S
O1024 Fe1015 1.935 1_655 S
O1024 C1031 1.421 . S
C1025 O1021 1.381 . S
C1025 O1022 1.421 . S
O1026 Fe1015 2.077 . S
O1026 C1038 1.381 . S
O1027 Fe1010 1.935 . S
O1027 C1038 1.421 . S
O1028 Fe1008 2.077 . S
O1028 C1016 1.381 . S
O1029 Fe1011 1.935 . S
O1029 C1016 1.421 . S
C1030 O1017 1.381 . S
C1030 O1018 1.421 . S
C1031 O1023 1.381 . S
C1031 O1024 1.421 . S
C1032 O1033 1.381 . S
C1032 O1034 1.421 . S
O1033 Fe1011 2.077 . S
O1033 C1032 1.381 . S
O1034 Fe1015 1.935 . S
O1034 C1032 1.421 . S
C1035 O1019 1.381 . S
C1035 O1020 1.421 . S
O1036 Fe1010 2.077 . S
O1036 C1039 1.381 . S
O1037 Fe1008 1.935 . S
O1037 C1039 1.421 . S
C1038 O1026 1.381 . S
C1038 O1027 1.421 . S
C1039 O1036 1.381 . S
C1039 O1037 1.421 . S
C1040 C1041 1.363 . S
C1040 C1046 1.379 . S
C1040 N1048 1.356 . S
C1041 C1040 1.363 . S
C1041 C1047 1.363 . S
C1042 C1043 1.363 . S
C1042 C1047 1.379 . S
C1042 N1049 1.356 . S
C1043 C1042 1.363 . S
C1043 C1046 1.363 . S
N1044 C1046 1.356 . S
N1044 H1056 0.984 . S
N1044 H1057 0.985 . S
N1045 C1047 1.356 . S
N1045 H1050 0.984 . S
N1045 H1051 0.985 . S
C1046 C1040 1.379 . S
C1046 C1043 1.363 . S
C1046 N1044 1.356 . S
C1047 C1041 1.363 . S
C1047 C1042 1.379 . S
C1047 N1045 1.356 . S
N1048 C1040 1.356 . S
N1048 H1054 0.984 . S
N1048 H1055 0.984 . S
N1049 C1042 1.356 . S
N1049 H1052 0.984 . S
N1049 H1053 0.985 . S
H1050 N1045 0.984 . S
H1051 N1045 0.985 . S
H1052 N1049 0.984 . S
H1053 N1049 0.985 . S
H1054 N1048 0.984 . S
H1055 N1048 0.984 . S
H1056 N1044 0.984 . S
H1057 N1044 0.985 . S
C1058 C1059 1.363 . S
C1058 C1064 1.379 . S
C1058 N1066 1.356 . S
C1059 C1058 1.363 . S
C1059 C1065 1.363 . S
C1060 C1061 1.363 . S
C1060 C1065 1.379 . S
C1060 N1067 1.356 . S
C1061 C1060 1.363 . S
C1061 C1064 1.363 . S
N1062 C1064 1.356 . S
N1062 H1074 0.984 . S
N1062 H1075 0.985 . S
N1063 C1065 1.356 . S
N1063 H1068 0.984 1_545 S
N1063 H1069 0.985 . S
C1064 C1058 1.379 . S
C1064 C1061 1.363 . S
C1064 N1062 1.356 . S
C1065 C1059 1.363 . S
C1065 C1060 1.379 . S
C1065 N1063 1.356 . S
N1066 C1058 1.356 . S
N1066 H1072 0.984 . S
N1066 H1073 0.984 1_545 S
N1067 C1060 1.356 . S
N1067 H1070 0.984 . S
N1067 H1071 0.985 . S
H1068 N1063 0.984 1_565 S
H1069 N1063 0.985 . S
H1070 N1067 0.984 . S
H1071 N1067 0.985 . S
H1072 N1066 0.984 . S
H1073 N1066 0.984 1_565 S
H1074 N1062 0.984 . S
H1075 N1062 0.985 . S
C1076 C1077 1.363 . S
C1076 C1082 1.379 . S
C1076 N1084 1.356 . S
C1077 C1076 1.363 . S
C1077 C1083 1.363 . S
C1078 C1079 1.363 . S
C1078 C1083 1.379 . S
C1078 N1085 1.356 . S
C1079 C1078 1.363 . S
C1079 C1082 1.363 . S
N1080 C1082 1.356 . S
N1080 H1092 0.984 . S
N1080 H1093 0.985 . S
N1081 C1083 1.356 . S
N1081 H1086 0.984 . S
N1081 H1087 0.985 . S
C1082 C1076 1.379 . S
C1082 C1079 1.363 . S
C1082 N1080 1.356 . S
C1083 C1077 1.363 . S
C1083 C1078 1.379 . S
C1083 N1081 1.356 . S
N1084 C1076 1.356 . S
N1084 H1090 0.984 . S
N1084 H1091 0.984 . S
N1085 C1078 1.356 . S
N1085 H1088 0.984 . S
N1085 H1089 0.985 . S
H1086 N1081 0.984 . S
H1087 N1081 0.985 . S
H1088 N1085 0.984 . S
H1089 N1085 0.985 . S
H1090 N1084 0.984 . S
H1091 N1084 0.984 . S
H1092 N1080 0.984 . S
H1093 N1080 0.985 . S
C1094 C1095 1.363 . S
C1094 C1100 1.379 . S
C1094 N1102 1.356 1_565 S
C1095 C1094 1.363 . S
C1095 C1101 1.363 . S
C1096 C1097 1.363 . S
C1096 C1101 1.379 . S
C1096 N1103 1.356 . S
C1097 C1096 1.363 . S
C1097 C1100 1.363 . S
N1098 C1100 1.356 . S
N1098 H1110 0.984 . S
N1098 H1111 0.985 . S
N1099 C1101 1.356 . S
N1099 H1104 0.984 . S
N1099 H1105 0.985 . S
C1100 C1094 1.379 . S
C1100 C1097 1.363 . S
C1100 N1098 1.356 . S
C1101 C1095 1.363 . S
C1101 C1096 1.379 . S
C1101 N1099 1.356 . S
N1102 C1094 1.356 1_545 S
N1102 H1108 0.984 . S
N1102 H1109 0.984 . S
N1103 C1096 1.356 . S
N1103 H1106 0.984 . S
N1103 H1107 0.985 . S
H1104 N1099 0.984 . S
H1105 N1099 0.985 . S
H1106 N1103 0.984 . S
H1107 N1103 0.985 . S
H1108 N1102 0.984 . S
H1109 N1102 0.984 . S
H1110 N1098 0.984 . S
H1111 N1098 0.985 . S
C1112 C1113 1.363 . S
C1112 C1118 1.379 . S
C1112 N1120 1.356 . S
C1113 C1112 1.363 . S
C1113 C1119 1.363 . S
C1114 C1115 1.363 . S
C1114 C1119 1.379 . S
C1114 N1121 1.356 . S
C1115 C1114 1.363 . S
C1115 C1118 1.363 . S
N1116 C1118 1.356 . S
N1116 H1128 0.984 . S
N1116 H1129 0.985 . S
N1117 C1119 1.356 . S
N1117 H1122 0.984 . S
N1117 H1123 0.985 . S
C1118 C1112 1.379 . S
C1118 C1115 1.363 . S
C1118 N1116 1.356 . S
C1119 C1113 1.363 . S
C1119 C1114 1.379 . S
C1119 N1117 1.356 . S
N1120 C1112 1.356 . S
N1120 H1126 0.984 . S
N1120 H1127 0.984 . S
N1121 C1114 1.356 . S
N1121 H1124 0.984 . S
N1121 H1125 0.985 . S
H1122 N1117 0.984 . S
H1123 N1117 0.985 . S
H1124 N1121 0.984 . S
H1125 N1121 0.985 . S
H1126 N1120 0.984 . S
H1127 N1120 0.984 . S
H1128 N1116 0.984 . S
H1129 N1116 0.985 . S
C1130 C1131 1.363 . S
C1130 C1136 1.379 . S
C1130 N1138 1.356 1_545 S
C1131 C1130 1.363 . S
C1131 C1137 1.363 . S
C1132 C1133 1.363 . S
C1132 C1137 1.379 . S
C1132 N1139 1.356 . S
C1133 C1132 1.363 . S
C1133 C1136 1.363 . S
N1134 C1136 1.356 . S
N1134 H1146 0.984 . S
N1134 H1147 0.985 . S
N1135 C1137 1.356 . S
N1135 H1140 0.984 . S
N1135 H1141 0.985 . S
C1136 C1130 1.379 . S
C1136 C1133 1.363 . S
C1136 N1134 1.356 . S
C1137 C1131 1.363 . S
C1137 C1132 1.379 . S
C1137 N1135 1.356 . S
N1138 C1130 1.356 1_565 S
N1138 H1144 0.984 . S
N1138 H1145 0.984 . S
N1139 C1132 1.356 . S
N1139 H1142 0.984 . S
N1139 H1143 0.985 . S
H1140 N1135 0.984 . S
H1141 N1135 0.985 . S
H1142 N1139 0.984 . S
H1143 N1139 0.985 . S
H1144 N1138 0.984 . S
H1145 N1138 0.984 . S
H1146 N1134 0.984 . S
H1147 N1134 0.985 . S
C1148 C1149 1.363 . S
C1148 C1154 1.379 . S
C1148 N1156 1.356 . S
C1149 C1148 1.363 . S
C1149 C1155 1.363 . S
C1150 C1151 1.363 . S
C1150 C1155 1.379 . S
C1150 N1157 1.356 . S
C1151 C1150 1.363 . S
C1151 C1154 1.363 . S
N1152 C1154 1.356 . S
N1152 H1164 0.984 . S
N1152 H1165 0.985 . S
N1153 C1155 1.356 . S
N1153 H1158 0.984 . S
N1153 H1159 0.985 . S
C1154 C1148 1.379 . S
C1154 C1151 1.363 . S
C1154 N1152 1.356 . S
C1155 C1149 1.363 . S
C1155 C1150 1.379 . S
C1155 N1153 1.356 . S
N1156 C1148 1.356 . S
N1156 H1162 0.984 . S
N1156 H1163 0.984 . S
N1157 C1150 1.356 . S
N1157 H1160 0.984 . S
N1157 H1161 0.985 . S
H1158 N1153 0.984 . S
H1159 N1153 0.985 . S
H1160 N1157 0.984 . S
H1161 N1157 0.985 . S
H1162 N1156 0.984 . S
H1163 N1156 0.984 . S
H1164 N1152 0.984 . S
H1165 N1152 0.985 . S
C1166 C1167 1.363 . S
C1166 C1172 1.379 . S
C1166 N1174 1.356 . S
C1167 C1166 1.363 . S
C1167 C1173 1.363 . S
C1168 C1169 1.363 . S
C1168 C1173 1.379 . S
C1168 N1175 1.356 . S
C1169 C1168 1.363 . S
C1169 C1172 1.363 . S
N1170 C1172 1.356 . S
N1170 H1182 0.984 . S
N1170 H1183 0.985 . S
N1171 C1173 1.356 1_545 S
N1171 H1176 0.984 . S
N1171 H1177 0.985 . S
C1172 C1166 1.379 . S
C1172 C1169 1.363 . S
C1172 N1170 1.356 . S
C1173 C1167 1.363 . S
C1173 C1168 1.379 . S
C1173 N1171 1.356 1_565 S
N1174 C1166 1.356 . S
N1174 H1180 0.984 . S
N1174 H1181 0.984 . S
N1175 C1168 1.356 . S
N1175 H1178 0.984 . S
N1175 H1179 0.985 . S
H1176 N1171 0.984 . S
H1177 N1171 0.985 . S
H1178 N1175 0.984 . S
H1179 N1175 0.985 . S
H1180 N1174 0.984 . S
H1181 N1174 0.984 . S
H1182 N1170 0.984 . S
H1183 N1170 0.985 . S
C1184 C1185 1.363 . S
C1184 C1190 1.379 . S
C1184 N1192 1.356 . S
C1185 C1184 1.363 . S
C1185 C1191 1.363 . S
C1186 C1187 1.363 . S
C1186 C1191 1.379 . S
C1186 N1193 1.356 . S
C1187 C1186 1.363 . S
C1187 C1190 1.363 . S
N1188 C1190 1.356 . S
N1188 H1200 0.984 . S
N1188 H1201 0.985 . S
N1189 C1191 1.356 . S
N1189 H1194 0.984 . S
N1189 H1195 0.985 . S
C1190 C1184 1.379 . S
C1190 C1187 1.363 . S
C1190 N1188 1.356 . S
C1191 C1185 1.363 . S
C1191 C1186 1.379 . S
C1191 N1189 1.356 . S
N1192 C1184 1.356 . S
N1192 H1198 0.984 . S
N1192 H1199 0.984 . S
N1193 C1186 1.356 . S
N1193 H1196 0.984 . S
N1193 H1197 0.985 . S
H1194 N1189 0.984 . S
H1195 N1189 0.985 . S
H1196 N1193 0.984 . S
H1197 N1193 0.985 . S
H1198 N1192 0.984 . S
H1199 N1192 0.984 . S
H1200 N1188 0.984 . S
H1201 N1188 0.985 . S
C1202 C1203 1.363 . S
C1202 C1208 1.379 . S
C1202 N1210 1.356 . S
C1203 C1202 1.363 . S
C1203 C1209 1.363 . S
C1204 C1205 1.363 . S
C1204 C1209 1.379 . S
C1204 N1211 1.356 . S
C1205 C1204 1.363 . S
C1205 C1208 1.363 . S
N1206 C1208 1.356 . S
N1206 H1218 0.984 . S
N1206 H1219 0.985 . S
N1207 C1209 1.356 . S
N1207 H1212 0.984 . S
N1207 H1213 0.985 . S
C1208 C1202 1.379 . S
C1208 C1205 1.363 . S
C1208 N1206 1.356 . S
C1209 C1203 1.363 . S
C1209 C1204 1.379 . S
C1209 N1207 1.356 . S
N1210 C1202 1.356 . S
N1210 H1216 0.984 1_565 S
N1210 H1217 0.984 1_565 S
N1211 C1204 1.356 . S
N1211 H1214 0.984 . S
N1211 H1215 0.985 . S
H1212 N1207 0.984 . S
H1213 N1207 0.985 . S
H1214 N1211 0.984 . S
H1215 N1211 0.985 . S
H1216 N1210 0.984 1_545 S
H1217 N1210 0.984 1_545 S
H1218 N1206 0.984 . S
H1219 N1206 0.985 . S
C1220 C1221 1.363 . S
C1220 C1226 1.379 . S
C1220 N1228 1.356 . S
C1221 C1220 1.363 . S
C1221 C1227 1.363 . S
C1222 C1223 1.363 . S
C1222 C1227 1.379 . S
C1222 N1229 1.356 . S
C1223 C1222 1.363 . S
C1223 C1226 1.363 . S
N1224 C1226 1.356 . S
N1224 H1236 0.984 . S
N1224 H1237 0.985 . S
N1225 C1227 1.356 . S
N1225 H1230 0.984 . S
N1225 H1231 0.985 . S
C1226 C1220 1.379 . S
C1226 C1223 1.363 . S
C1226 N1224 1.356 . S
C1227 C1221 1.363 . S
C1227 C1222 1.379 . S
C1227 N1225 1.356 . S
N1228 C1220 1.356 . S
N1228 H1234 0.984 . S
N1228 H1235 0.984 . S
N1229 C1222 1.356 . S
N1229 H1232 0.984 . S
N1229 H1233 0.985 . S
H1230 N1225 0.984 . S
H1231 N1225 0.985 . S
H1232 N1229 0.984 . S
H1233 N1229 0.985 . S
H1234 N1228 0.984 . S
H1235 N1228 0.984 . S
H1236 N1224 0.984 . S
H1237 N1224 0.985 . S
C1238 C1239 1.363 . S
C1238 C1244 1.379 . S
C1238 N1246 1.356 . S
C1239 C1238 1.363 . S
C1239 C1245 1.363 . S
C1240 C1241 1.363 . S
C1240 C1245 1.379 . S
C1240 N1247 1.356 . S
C1241 C1240 1.363 . S
C1241 C1244 1.363 . S
N1242 C1244 1.356 . S
N1242 H1254 0.984 . S
N1242 H1255 0.985 . S
N1243 C1245 1.356 1_565 S
N1243 H1248 0.984 . S
N1243 H1249 0.985 . S
C1244 C1238 1.379 . S
C1244 C1241 1.363 . S
C1244 N1242 1.356 . S
C1245 C1239 1.363 . S
C1245 C1240 1.379 . S
C1245 N1243 1.356 1_545 S
N1246 C1238 1.356 . S
N1246 H1252 0.984 . S
N1246 H1253 0.984 . S
N1247 C1240 1.356 . S
N1247 H1250 0.984 . S
N1247 H1251 0.985 . S
H1248 N1243 0.984 . S
H1249 N1243 0.985 . S
H1250 N1247 0.984 . S
H1251 N1247 0.985 . S
H1252 N1246 0.984 . S
H1253 N1246 0.984 . S
H1254 N1242 0.984 . S
H1255 N1242 0.985 . S
C1256 C1257 1.363 . S
C1256 C1262 1.379 . S
C1256 N1264 1.356 . S
C1257 C1256 1.363 . S
C1257 C1263 1.363 . S
C1258 C1259 1.363 . S
C1258 C1263 1.379 . S
C1258 N1265 1.356 . S
C1259 C1258 1.363 . S
C1259 C1262 1.363 . S
N1260 C1262 1.356 . S
N1260 H1272 0.984 . S
N1260 H1273 0.985 . S
N1261 C1263 1.356 . S
N1261 H1266 0.984 . S
N1261 H1267 0.985 . S
C1262 C1256 1.379 . S
C1262 C1259 1.363 . S
C1262 N1260 1.356 . S
C1263 C1257 1.363 . S
C1263 C1258 1.379 . S
C1263 N1261 1.356 . S
N1264 C1256 1.356 . S
N1264 H1270 0.984 . S
N1264 H1271 0.984 . S
N1265 C1258 1.356 . S
N1265 H1268 0.984 . S
N1265 H1269 0.985 . S
H1266 N1261 0.984 . S
H1267 N1261 0.985 . S
H1268 N1265 0.984 . S
H1269 N1265 0.985 . S
H1270 N1264 0.984 . S
H1271 N1264 0.984 . S
H1272 N1260 0.984 . S
H1273 N1260 0.985 . S
C1274 C1275 1.363 . S
C1274 C1280 1.379 . S
C1274 N1282 1.356 1_565 S
C1275 C1274 1.363 . S
C1275 C1281 1.363 . S
C1276 C1277 1.363 . S
C1276 C1281 1.379 . S
C1276 N1283 1.356 . S
C1277 C1276 1.363 . S
C1277 C1280 1.363 . S
N1278 C1280 1.356 . S
N1278 H1290 0.984 1_655 S
N1278 H1291 0.985 . S
N1279 C1281 1.356 . S
N1279 H1284 0.984 . S
N1279 H1285 0.985 . S
C1280 C1274 1.379 . S
C1280 C1277 1.363 . S
C1280 N1278 1.356 . S
C1281 C1275 1.363 . S
C1281 C1276 1.379 . S
C1281 N1279 1.356 . S
N1282 C1274 1.356 1_545 S
N1282 H1288 0.984 . S
N1282 H1289 0.984 . S
N1283 C1276 1.356 . S
N1283 H1286 0.984 . S
N1283 H1287 0.985 . S
H1284 N1279 0.984 . S
H1285 N1279 0.985 . S
H1286 N1283 0.984 . S
H1287 N1283 0.985 . S
H1288 N1282 0.984 . S
H1289 N1282 0.984 . S
H1290 N1278 0.984 1_455 S
H1291 N1278 0.985 . S
C1292 C1293 1.363 . S
C1292 C1298 1.379 . S
C1292 N1300 1.356 . S
C1293 C1292 1.363 . S
C1293 C1299 1.363 . S
C1294 C1295 1.363 . S
C1294 C1299 1.379 . S
C1294 N1301 1.356 . S
C1295 C1294 1.363 . S
C1295 C1298 1.363 . S
N1296 C1298 1.356 . S
N1296 H1308 0.984 . S
N1296 H1309 0.985 . S
N1297 C1299 1.356 . S
N1297 H1302 0.984 . S
N1297 H1303 0.985 . S
C1298 C1292 1.379 . S
C1298 C1295 1.363 . S
C1298 N1296 1.356 . S
C1299 C1293 1.363 . S
C1299 C1294 1.379 . S
C1299 N1297 1.356 . S
N1300 C1292 1.356 . S
N1300 H1306 0.984 . S
N1300 H1307 0.984 . S
N1301 C1294 1.356 . S
N1301 H1304 0.984 . S
N1301 H1305 0.985 . S
H1302 N1297 0.984 . S
H1303 N1297 0.985 . S
H1304 N1301 0.984 . S
H1305 N1301 0.985 . S
H1306 N1300 0.984 . S
H1307 N1300 0.984 . S
H1308 N1296 0.984 . S
H1309 N1296 0.985 . S
C1310 C1311 1.363 . S
C1310 C1316 1.379 . S
C1310 N1318 1.356 1_545 S
C1311 C1310 1.363 . S
C1311 C1317 1.363 . S
C1312 C1313 1.363 . S
C1312 C1317 1.379 . S
C1312 N1319 1.356 . S
C1313 C1312 1.363 . S
C1313 C1316 1.363 . S
N1314 C1316 1.356 . S
N1314 H1326 0.984 . S
N1314 H1327 0.985 . S
N1315 C1317 1.356 . S
N1315 H1320 0.984 . S
N1315 H1321 0.985 . S
C1316 C1310 1.379 . S
C1316 C1313 1.363 . S
C1316 N1314 1.356 . S
C1317 C1311 1.363 . S
C1317 C1312 1.379 . S
C1317 N1315 1.356 . S
N1318 C1310 1.356 1_565 S
N1318 H1324 0.984 . S
N1318 H1325 0.984 . S
N1319 C1312 1.356 . S
N1319 H1322 0.984 . S
N1319 H1323 0.985 . S
H1320 N1315 0.984 . S
H1321 N1315 0.985 . S
H1322 N1319 0.984 . S
H1323 N1319 0.985 . S
H1324 N1318 0.984 . S
H1325 N1318 0.984 . S
H1326 N1314 0.984 . S
H1327 N1314 0.985 . S
C1328 C1329 1.363 . S
C1328 C1334 1.379 . S
C1328 N1336 1.356 . S
C1329 C1328 1.363 . S
C1329 C1335 1.363 . S
C1330 C1331 1.363 . S
C1330 C1335 1.379 . S
C1330 N1337 1.356 . S
C1331 C1330 1.363 . S
C1331 C1334 1.363 . S
N1332 C1334 1.356 . S
N1332 H1344 0.984 . S
N1332 H1345 0.985 . S
N1333 C1335 1.356 . S
N1333 H1338 0.984 . S
N1333 H1339 0.985 . S
C1334 C1328 1.379 . S
C1334 C1331 1.363 . S
C1334 N1332 1.356 . S
C1335 C1329 1.363 . S
C1335 C1330 1.379 . S
C1335 N1333 1.356 . S
N1336 C1328 1.356 . S
N1336 H1342 0.984 . S
N1336 H1343 0.984 . S
N1337 C1330 1.356 . S
N1337 H1340 0.984 . S
N1337 H1341 0.985 . S
H1338 N1333 0.984 . S
H1339 N1333 0.985 . S
H1340 N1337 0.984 . S
H1341 N1337 0.985 . S
H1342 N1336 0.984 . S
H1343 N1336 0.984 . S
H1344 N1332 0.984 . S
H1345 N1332 0.985 . S
C1346 C1347 1.363 . S
C1346 C1352 1.379 . S
C1346 N1354 1.356 . S
C1347 C1346 1.363 . S
C1347 C1353 1.363 . S
C1348 C1349 1.363 . S
C1348 C1353 1.379 . S
C1348 N1355 1.356 . S
C1349 C1348 1.363 . S
C1349 C1352 1.363 . S
N1350 C1352 1.356 . S
N1350 H1362 0.984 . S
N1350 H1363 0.985 . S
N1351 C1353 1.356 . S
N1351 H1356 0.984 . S
N1351 H1357 0.985 . S
C1352 C1346 1.379 . S
C1352 C1349 1.363 . S
C1352 N1350 1.356 . S
C1353 C1347 1.363 . S
C1353 C1348 1.379 . S
C1353 N1351 1.356 . S
N1354 C1346 1.356 . S
N1354 H1360 0.984 . S
N1354 H1361 0.984 . S
N1355 C1348 1.356 . S
N1355 H1358 0.984 . S
N1355 H1359 0.985 . S
H1356 N1351 0.984 . S
H1357 N1351 0.985 . S
H1358 N1355 0.984 . S
H1359 N1355 0.985 . S
H1360 N1354 0.984 . S
H1361 N1354 0.984 . S
H1362 N1350 0.984 . S
H1363 N1350 0.985 . S
C1364 C1365 1.363 . S
C1364 C1370 1.379 . S
C1364 N1372 1.356 . S
C1365 C1364 1.363 . S
C1365 C1371 1.363 . S
C1366 C1367 1.363 . S
C1366 C1371 1.379 . S
C1366 N1373 1.356 . S
C1367 C1366 1.363 . S
C1367 C1370 1.363 . S
N1368 C1370 1.356 . S
N1368 H1380 0.984 . S
N1368 H1381 0.985 . S
N1369 C1371 1.356 . S
N1369 H1374 0.984 . S
N1369 H1375 0.985 . S
C1370 C1364 1.379 . S
C1370 C1367 1.363 . S
C1370 N1368 1.356 . S
C1371 C1365 1.363 . S
C1371 C1366 1.379 . S
C1371 N1369 1.356 . S
N1372 C1364 1.356 . S
N1372 H1378 0.984 . S
N1372 H1379 0.984 . S
N1373 C1366 1.356 . S
N1373 H1376 0.984 . S
N1373 H1377 0.985 . S
H1374 N1369 0.984 . S
H1375 N1369 0.985 . S
H1376 N1373 0.984 . S
H1377 N1373 0.985 . S
H1378 N1372 0.984 . S
H1379 N1372 0.984 . S
H1380 N1368 0.984 . S
H1381 N1368 0.985 . S
C1382 C1383 1.363 . S
C1382 C1388 1.379 . S
C1382 N1390 1.356 . S
C1383 C1382 1.363 . S
C1383 C1389 1.363 . S
C1384 C1385 1.363 . S
C1384 C1389 1.379 . S
C1384 N1391 1.356 . S
C1385 C1384 1.363 . S
C1385 C1388 1.363 . S
N1386 C1388 1.356 . S
N1386 H1398 0.984 . S
N1386 H1399 0.985 . S
N1387 C1389 1.356 . S
N1387 H1392 0.984 . S
N1387 H1393 0.985 . S
C1388 C1382 1.379 . S
C1388 C1385 1.363 . S
C1388 N1386 1.356 . S
C1389 C1383 1.363 . S
C1389 C1384 1.379 . S
C1389 N1387 1.356 . S
N1390 C1382 1.356 . S
N1390 H1396 0.984 . S
N1390 H1397 0.984 . S
N1391 C1384 1.356 . S
N1391 H1394 0.984 . S
N1391 H1395 0.985 . S
H1392 N1387 0.984 . S
H1393 N1387 0.985 . S
H1394 N1391 0.984 . S
H1395 N1391 0.985 . S
H1396 N1390 0.984 . S
H1397 N1390 0.984 . S
H1398 N1386 0.984 . S
H1399 N1386 0.985 . S
C1400 C1401 1.363 . S
C1400 C1406 1.379 . S
C1400 N1408 1.356 . S
C1401 C1400 1.363 . S
C1401 C1407 1.363 . S
C1402 C1403 1.363 . S
C1402 C1407 1.379 . S
C1402 N1409 1.356 . S
C1403 C1402 1.363 . S
C1403 C1406 1.363 . S
N1404 C1406 1.356 . S
N1404 H1416 0.984 . S
N1404 H1417 0.985 . S
N1405 C1407 1.356 . S
N1405 H1410 0.984 . S
N1405 H1411 0.985 . S
C1406 C1400 1.379 . S
C1406 C1403 1.363 . S
C1406 N1404 1.356 . S
C1407 C1401 1.363 . S
C1407 C1402 1.379 . S
C1407 N1405 1.356 . S
N1408 C1400 1.356 . S
N1408 H1414 0.984 . S
N1408 H1415 0.984 . S
N1409 C1402 1.356 . S
N1409 H1412 0.984 . S
N1409 H1413 0.985 . S
H1410 N1405 0.984 . S
H1411 N1405 0.985 . S
H1412 N1409 0.984 . S
H1413 N1409 0.985 . S
H1414 N1408 0.984 . S
H1415 N1408 0.984 . S
H1416 N1404 0.984 . S
H1417 N1404 0.985 . S
C1418 C1419 1.363 . S
C1418 C1424 1.379 . S
C1418 N1426 1.356 . S
C1419 C1418 1.363 . S
C1419 C1425 1.363 . S
C1420 C1421 1.363 . S
C1420 C1425 1.379 . S
C1420 N1427 1.356 . S
C1421 C1420 1.363 . S
C1421 C1424 1.363 . S
N1422 C1424 1.356 . S
N1422 H1434 0.984 . S
N1422 H1435 0.985 . S
N1423 C1425 1.356 . S
N1423 H1428 0.984 . S
N1423 H1429 0.985 . S
C1424 C1418 1.379 . S
C1424 C1421 1.363 . S
C1424 N1422 1.356 . S
C1425 C1419 1.363 . S
C1425 C1420 1.379 . S
C1425 N1423 1.356 . S
N1426 C1418 1.356 . S
N1426 H1432 0.984 . S
N1426 H1433 0.984 . S
N1427 C1420 1.356 . S
N1427 H1430 0.984 . S
N1427 H1431 0.985 . S
H1428 N1423 0.984 . S
H1429 N1423 0.985 . S
H1430 N1427 0.984 . S
H1431 N1427 0.985 . S
H1432 N1426 0.984 . S
H1433 N1426 0.984 . S
H1434 N1422 0.984 . S
H1435 N1422 0.985 . S
C1436 C1437 1.363 . S
C1436 C1442 1.379 . S
C1436 N1444 1.356 . S
C1437 C1436 1.363 . S
C1437 C1443 1.363 . S
C1438 C1439 1.363 . S
C1438 C1443 1.379 . S
C1438 N1445 1.356 . S
C1439 C1438 1.363 . S
C1439 C1442 1.363 . S
N1440 C1442 1.356 . S
N1440 H1452 0.984 . S
N1440 H1453 0.985 . S
N1441 C1443 1.356 . S
N1441 H1446 0.984 . S
N1441 H1447 0.985 . S
C1442 C1436 1.379 . S
C1442 C1439 1.363 . S
C1442 N1440 1.356 . S
C1443 C1437 1.363 . S
C1443 C1438 1.379 . S
C1443 N1441 1.356 . S
N1444 C1436 1.356 . S
N1444 H1450 0.984 . S
N1444 H1451 0.984 . S
N1445 C1438 1.356 . S
N1445 H1448 0.984 . S
N1445 H1449 0.985 . S
H1446 N1441 0.984 . S
H1447 N1441 0.985 . S
H1448 N1445 0.984 . S
H1449 N1445 0.985 . S
H1450 N1444 0.984 . S
H1451 N1444 0.984 . S
H1452 N1440 0.984 . S
H1453 N1440 0.985 . S
C1454 C1455 1.363 . S
C1454 C1460 1.379 . S
C1454 N1462 1.356 . S
C1455 C1454 1.363 . S
C1455 C1461 1.363 . S
C1456 C1457 1.363 . S
C1456 C1461 1.379 . S
C1456 N1463 1.356 . S
C1457 C1456 1.363 . S
C1457 C1460 1.363 . S
N1458 C1460 1.356 . S
N1458 H1470 0.984 . S
N1458 H1471 0.985 . S
N1459 C1461 1.356 . S
N1459 H1464 0.984 . S
N1459 H1465 0.985 . S
C1460 C1454 1.379 . S
C1460 C1457 1.363 . S
C1460 N1458 1.356 . S
C1461 C1455 1.363 . S
C1461 C1456 1.379 . S
C1461 N1459 1.356 . S
N1462 C1454 1.356 . S
N1462 H1468 0.984 . S
N1462 H1469 0.984 . S
N1463 C1456 1.356 . S
N1463 H1466 0.984 . S
N1463 H1467 0.985 . S
H1464 N1459 0.984 . S
H1465 N1459 0.985 . S
H1466 N1463 0.984 . S
H1467 N1463 0.985 . S
H1468 N1462 0.984 . S
H1469 N1462 0.984 . S
H1470 N1458 0.984 . S
H1471 N1458 0.985 . S
C1472 C1473 1.363 . S
C1472 C1478 1.379 . S
C1472 N1480 1.356 . S
C1473 C1472 1.363 . S
C1473 C1479 1.363 . S
C1474 C1475 1.363 . S
C1474 C1479 1.379 . S
C1474 N1481 1.356 . S
C1475 C1474 1.363 . S
C1475 C1478 1.363 . S
N1476 C1478 1.356 . S
N1476 H1488 0.984 . S
N1476 H1489 0.985 . S
N1477 C1479 1.356 . S
N1477 H1482 0.984 . S
N1477 H1483 0.985 . S
C1478 C1472 1.379 . S
C1478 C1475 1.363 . S
C1478 N1476 1.356 . S
C1479 C1473 1.363 . S
C1479 C1474 1.379 . S
C1479 N1477 1.356 . S
N1480 C1472 1.356 . S
N1480 H1486 0.984 . S
N1480 H1487 0.984 . S
N1481 C1474 1.356 . S
N1481 H1484 0.984 . S
N1481 H1485 0.985 . S
H1482 N1477 0.984 . S
H1483 N1477 0.985 . S
H1484 N1481 0.984 . S
H1485 N1481 0.985 . S
H1486 N1480 0.984 . S
H1487 N1480 0.984 . S
H1488 N1476 0.984 . S
H1489 N1476 0.985 . S
C1490 C1491 1.363 . S
C1490 C1496 1.379 . S
C1490 N1498 1.356 . S
C1491 C1490 1.363 . S
C1491 C1497 1.363 . S
C1492 C1493 1.363 . S
C1492 C1497 1.379 . S
C1492 N1499 1.356 . S
C1493 C1492 1.363 . S
C1493 C1496 1.363 . S
N1494 C1496 1.356 . S
N1494 H1506 0.984 . S
N1494 H1507 0.985 . S
N1495 C1497 1.356 . S
N1495 H1500 0.984 . S
N1495 H1501 0.985 . S
C1496 C1490 1.379 . S
C1496 C1493 1.363 . S
C1496 N1494 1.356 . S
C1497 C1491 1.363 . S
C1497 C1492 1.379 . S
C1497 N1495 1.356 . S
N1498 C1490 1.356 . S
N1498 H1504 0.984 . S
N1498 H1505 0.984 . S
N1499 C1492 1.356 . S
N1499 H1502 0.984 . S
N1499 H1503 0.985 . S
H1500 N1495 0.984 . S
H1501 N1495 0.985 . S
H1502 N1499 0.984 . S
H1503 N1499 0.985 . S
H1504 N1498 0.984 . S
H1505 N1498 0.984 . S
H1506 N1494 0.984 . S
H1507 N1494 0.985 . S
C1508 C1509 1.363 . S
C1508 C1514 1.379 . S
C1508 N1516 1.356 . S
C1509 C1508 1.363 . S
C1509 C1515 1.363 . S
C1510 C1511 1.363 . S
C1510 C1515 1.379 . S
C1510 N1517 1.356 . S
C1511 C1510 1.363 . S
C1511 C1514 1.363 . S
N1512 C1514 1.356 . S
N1512 H1524 0.984 . S
N1512 H1525 0.985 . S
N1513 C1515 1.356 . S
N1513 H1518 0.984 . S
N1513 H1519 0.985 . S
C1514 C1508 1.379 . S
C1514 C1511 1.363 . S
C1514 N1512 1.356 . S
C1515 C1509 1.363 . S
C1515 C1510 1.379 . S
C1515 N1513 1.356 . S
N1516 C1508 1.356 . S
N1516 H1522 0.984 . S
N1516 H1523 0.984 . S
N1517 C1510 1.356 . S
N1517 H1520 0.984 . S
N1517 H1521 0.985 . S
H1518 N1513 0.984 . S
H1519 N1513 0.985 . S
H1520 N1517 0.984 . S
H1521 N1517 0.985 . S
H1522 N1516 0.984 . S
H1523 N1516 0.984 . S
H1524 N1512 0.984 . S
H1525 N1512 0.985 . S
C1526 C1527 1.363 . S
C1526 C1532 1.379 . S
C1526 N1534 1.356 . S
C1527 C1526 1.363 . S
C1527 C1533 1.363 . S
C1528 C1529 1.363 . S
C1528 C1533 1.379 . S
C1528 N1535 1.356 . S
C1529 C1528 1.363 . S
C1529 C1532 1.363 . S
N1530 C1532 1.356 . S
N1530 H1542 0.984 . S
N1530 H1543 0.985 . S
N1531 C1533 1.356 . S
N1531 H1536 0.984 . S
N1531 H1537 0.985 . S
C1532 C1526 1.379 . S
C1532 C1529 1.363 . S
C1532 N1530 1.356 . S
C1533 C1527 1.363 . S
C1533 C1528 1.379 . S
C1533 N1531 1.356 . S
N1534 C1526 1.356 . S
N1534 H1540 0.984 . S
N1534 H1541 0.984 . S
N1535 C1528 1.356 . S
N1535 H1538 0.984 . S
N1535 H1539 0.985 . S
H1536 N1531 0.984 . S
H1537 N1531 0.985 . S
H1538 N1535 0.984 . S
H1539 N1535 0.985 . S
H1540 N1534 0.984 . S
H1541 N1534 0.984 . S
H1542 N1530 0.984 . S
H1543 N1530 0.985 . S
C1544 C1545 1.363 . S
C1544 C1550 1.379 . S
C1544 N1552 1.356 . S
C1545 C1544 1.363 . S
C1545 C1551 1.363 . S
C1546 C1547 1.363 . S
C1546 C1551 1.379 . S
C1546 N1553 1.356 . S
C1547 C1546 1.363 . S
C1547 C1550 1.363 . S
N1548 C1550 1.356 . S
N1548 H1560 0.984 . S
N1548 H1561 0.985 . S
N1549 C1551 1.356 . S
N1549 H1554 0.984 . S
N1549 H1555 0.985 . S
C1550 C1544 1.379 . S
C1550 C1547 1.363 . S
C1550 N1548 1.356 . S
C1551 C1545 1.363 . S
C1551 C1546 1.379 . S
C1551 N1549 1.356 . S
N1552 C1544 1.356 . S
N1552 H1558 0.984 . S
N1552 H1559 0.984 . S
N1553 C1546 1.356 . S
N1553 H1556 0.984 . S
N1553 H1557 0.985 . S
H1554 N1549 0.984 . S
H1555 N1549 0.985 . S
H1556 N1553 0.984 . S
H1557 N1553 0.985 . S
H1558 N1552 0.984 . S
H1559 N1552 0.984 . S
H1560 N1548 0.984 . S
H1561 N1548 0.985 . S
C1562 C1563 1.363 . S
C1562 C1568 1.379 . S
C1562 N1570 1.356 . S
C1563 C1562 1.363 . S
C1563 C1569 1.363 . S
C1564 C1565 1.363 . S
C1564 C1569 1.379 . S
C1564 N1571 1.356 . S
C1565 C1564 1.363 . S
C1565 C1568 1.363 . S
N1566 C1568 1.356 . S
N1566 H1578 0.984 . S
N1566 H1579 0.985 . S
N1567 C1569 1.356 . S
N1567 H1572 0.984 . S
N1567 H1573 0.985 . S
C1568 C1562 1.379 . S
C1568 C1565 1.363 . S
C1568 N1566 1.356 . S
C1569 C1563 1.363 . S
C1569 C1564 1.379 . S
C1569 N1567 1.356 . S
N1570 C1562 1.356 . S
N1570 H1576 0.984 . S
N1570 H1577 0.984 . S
N1571 C1564 1.356 . S
N1571 H1574 0.984 . S
N1571 H1575 0.985 . S
H1572 N1567 0.984 . S
H1573 N1567 0.985 . S
H1574 N1571 0.984 . S
H1575 N1571 0.985 . S
H1576 N1570 0.984 . S
H1577 N1570 0.984 . S
H1578 N1566 0.984 . S
H1579 N1566 0.985 . S
C1580 C1581 1.363 . S
C1580 C1586 1.379 . S
C1580 N1588 1.356 . S
C1581 C1580 1.363 . S
C1581 C1587 1.363 . S
C1582 C1583 1.363 . S
C1582 C1587 1.379 . S
C1582 N1589 1.356 . S
C1583 C1582 1.363 . S
C1583 C1586 1.363 . S
N1584 C1586 1.356 . S
N1584 H1596 0.984 . S
N1584 H1597 0.985 . S
N1585 C1587 1.356 . S
N1585 H1590 0.984 . S
N1585 H1591 0.985 . S
C1586 C1580 1.379 . S
C1586 C1583 1.363 . S
C1586 N1584 1.356 . S
C1587 C1581 1.363 . S
C1587 C1582 1.379 . S
C1587 N1585 1.356 . S
N1588 C1580 1.356 . S
N1588 H1594 0.984 . S
N1588 H1595 0.984 . S
N1589 C1582 1.356 . S
N1589 H1592 0.984 . S
N1589 H1593 0.985 . S
H1590 N1585 0.984 . S
H1591 N1585 0.985 . S
H1592 N1589 0.984 . S
H1593 N1589 0.985 . S
H1594 N1588 0.984 . S
H1595 N1588 0.984 . S
H1596 N1584 0.984 . S
H1597 N1584 0.985 . S
C1598 C1599 1.363 . S
C1598 C1604 1.379 . S
C1598 N1606 1.356 . S
C1599 C1598 1.363 . S
C1599 C1605 1.363 . S
C1600 C1601 1.363 . S
C1600 C1605 1.379 . S
C1600 N1607 1.356 . S
C1601 C1600 1.363 . S
C1601 C1604 1.363 . S
N1602 C1604 1.356 . S
N1602 H1614 0.984 . S
N1602 H1615 0.985 . S
N1603 C1605 1.356 . S
N1603 H1608 0.984 . S
N1603 H1609 0.985 . S
C1604 C1598 1.379 . S
C1604 C1601 1.363 . S
C1604 N1602 1.356 . S
C1605 C1599 1.363 . S
C1605 C1600 1.379 . S
C1605 N1603 1.356 . S
N1606 C1598 1.356 . S
N1606 H1612 0.984 . S
N1606 H1613 0.984 . S
N1607 C1600 1.356 . S
N1607 H1610 0.984 . S
N1607 H1611 0.985 . S
H1608 N1603 0.984 . S
H1609 N1603 0.985 . S
H1610 N1607 0.984 . S
H1611 N1607 0.985 . S
H1612 N1606 0.984 . S
H1613 N1606 0.984 . S
H1614 N1602 0.984 . S
H1615 N1602 0.985 . S
C1043 C961 1.542 . S
C1041 C11 1.040 . S
C1059 C143 1.137 . S
C1061 C993 1.534 . S
C1077 C283 1.101 . S
C1079 C1016 1.621 . S
C1097 C920 1.473 . S
C1095 C343 1.251 1_565 S
C1115 C1003 1.426 . S
C1113 C55 1.071 . S
C1133 C1032 1.264 . S
C1131 C115 1.264 . S
C1151 C936 1.379 . S
C1149 C239 1.062 . S
C1169 C971 1.334 . S
C1167 C371 1.115 1_565 S
C1185 C29 1.220 . S
C1187 C999 1.322 . S
C1203 C467 0.849 . S
C1205 C974 1.350 . S
C1221 C229 1.091 . S
C1223 C942 1.218 . S
C1241 C1031 1.400 . S
C1239 C625 1.216 . S
C1259 C975 1.402 . S
C1257 C1 1.129 . S
C1275 C511 1.188 . S
C1277 C943 1.552 . S
C1293 C257 1.199 . S
C1295 C1030 1.511 . S
C1313 C998 1.523 . S
C1311 C581 0.894 . S
C1329 C713 1.139 . S
C1331 C1025 1.539 . S
C1347 C485 1.123 . S
C1349 C929 1.522 . S
C1365 C799 1.231 . S
C1367 C952 1.447 . S
C1383 C571 1.240 . S
C1385 C984 1.456 . S
C1403 C939 1.251 . S
C1401 C685 1.262 . S
C1419 C457 1.256 . S
C1421 C968 1.250 . S
C1437 C827 1.097 . S
C1439 C1000 1.333 . S
C1457 C1035 1.317 . S
C1455 C599 1.098 . S
C1473 C695 0.859 . S
C1475 C935 1.375 . S
C1491 C125 0.855 . S
C1493 C1038 1.367 . S
C1509 C853 1.217 . S
C1511 C1006 1.393 . S
C1529 C967 1.419 . S
C1527 C397 1.236 . S
C1547 C1039 1.577 . S
C1545 C739 1.216 . S
C1565 C1007 1.567 . S
C1563 C169 1.204 . S
C1583 C966 1.521 . S
C1581 C809 0.900 . S
C1601 C934 1.544 . S
C1599 C353 0.903 . S
