# Generated by pormake.
# Topology pyr, (3,6)-cn, num edge types: 1
# Building blocks:
#     Node 0, Type 0, BuildingBlock: QEWDON_clean_linker_0, # of connection points: 3
#     Node 1, Type 0, BuildingBlock: QEWDON_clean_linker_0, # of connection points: 3
#     Node 2, Type 0, BuildingBlock: QEWDON_clean_linker_0, # of connection points: 3
#     Node 3, Type 0, BuildingBlock: QEWDON_clean_linker_0, # of connection points: 3
#     Node 4, Type 0, BuildingBlock: QEWDON_clean_linker_0, # of connection points: 3
#     Node 5, Type 0, BuildingBlock: QEWDON_clean_linker_0, # of connection points: 3
#     Node 6, Type 0, BuildingBlock: QEWDON_clean_linker_0, # of connection points: 3
#     Node 7, Type 0, BuildingBlock: QEWDON_clean_linker_0, # of connection points: 3
#     Node 8, Type 1, BuildingBlock: INOVEN_clean_sbu_0, # of connection points: 6
#     Node 9, Type 1, BuildingBlock: INOVEN_clean_sbu_0, # of connection points: 6
#     Node 10, Type 1, BuildingBlock: INOVEN_clean_sbu_0, # of connection points: 6
#     Node 11, Type 1, BuildingBlock: INOVEN_clean_sbu_0, # of connection points: 6
#     Edge 12, Type (0, 1), BuildingBlock: OJICUG_clean_linker_0, # of connection points: 2
#     Edge 13, Type (0, 1), BuildingBlock: OJICUG_clean_linker_0, # of connection points: 2
#     Edge 14, Type (0, 1), BuildingBlock: OJICUG_clean_linker_0, # of connection points: 2
#     Edge 15, Type (0, 1), BuildingBlock: OJICUG_clean_linker_0, # of connection points: 2
#     Edge 16, Type (0, 1), BuildingBlock: OJICUG_clean_linker_0, # of connection points: 2
#     Edge 17, Type (0, 1), BuildingBlock: OJICUG_clean_linker_0, # of connection points: 2
#     Edge 18, Type (0, 1), BuildingBlock: OJICUG_clean_linker_0, # of connection points: 2
#     Edge 19, Type (0, 1), BuildingBlock: OJICUG_clean_linker_0, # of connection points: 2
#     Edge 20, Type (0, 1), BuildingBlock: OJICUG_clean_linker_0, # of connection points: 2
#     Edge 21, Type (0, 1), BuildingBlock: OJICUG_clean_linker_0, # of connection points: 2
#     Edge 22, Type (0, 1), BuildingBlock: OJICUG_clean_linker_0, # of connection points: 2
#     Edge 23, Type (0, 1), BuildingBlock: OJICUG_clean_linker_0, # of connection points: 2
#     Edge 24, Type (0, 1), BuildingBlock: OJICUG_clean_linker_0, # of connection points: 2
#     Edge 25, Type (0, 1), BuildingBlock: OJICUG_clean_linker_0, # of connection points: 2
#     Edge 26, Type (0, 1), BuildingBlock: OJICUG_clean_linker_0, # of connection points: 2
#     Edge 27, Type (0, 1), BuildingBlock: OJICUG_clean_linker_0, # of connection points: 2
#     Edge 28, Type (0, 1), BuildingBlock: OJICUG_clean_linker_0, # of connection points: 2
#     Edge 29, Type (0, 1), BuildingBlock: OJICUG_clean_linker_0, # of connection points: 2
#     Edge 30, Type (0, 1), BuildingBlock: OJICUG_clean_linker_0, # of connection points: 2
#     Edge 31, Type (0, 1), BuildingBlock: OJICUG_clean_linker_0, # of connection points: 2
#     Edge 32, Type (0, 1), BuildingBlock: OJICUG_clean_linker_0, # of connection points: 2
#     Edge 33, Type (0, 1), BuildingBlock: OJICUG_clean_linker_0, # of connection points: 2
#     Edge 34, Type (0, 1), BuildingBlock: OJICUG_clean_linker_0, # of connection points: 2
#     Edge 35, Type (0, 1), BuildingBlock: OJICUG_clean_linker_0, # of connection points: 2
# Relax obj value: 0.219
# Max RMSD: 0.263
# Mean RMSD: 0.197
data_MOF--net-pyr--node1-INOVEN_clean_sbu_0--node2-QEWDON_clean_linker_0--edge1-OJICUG_clean_linker_0
_symmetry_space_group_name_H-M    P1
_symmetry_Int_Tables_number       1
_symmetry_cell_setting            triclinic
loop_
_symmetry_equiv_pos_as_xyz
'x, y, z'
_cell_length_a     28.693835
_cell_length_b     30.802013
_cell_length_c     28.631489
_cell_angle_alpha  91.761003
_cell_angle_beta   89.091273
_cell_angle_gamma 112.90425
loop_
_atom_site_label
_atom_site_type_symbol
_atom_site_fract_x
_atom_site_fract_y
_atom_site_fract_z
_atom_type_partial_charge
H0 H 0.49011 0.37626 0.21307 0.0
C1 C 0.46573 0.37104 0.24347 0.0
C2 C 0.45532 0.33095 0.27058 0.0
C3 C 0.44054 0.40158 0.25244 0.0
H4 H 0.41137 0.29109 0.32799 0.0
C5 C 0.42061 0.3225 0.30763 0.0
C6 C 0.39462 0.35211 0.31643 0.0
C7 C 0.40614 0.39247 0.28999 0.0
C8 C 0.44426 0.4387 0.2189 0.0
H9 H 0.38538 0.4149 0.29648 0.0
C10 C 0.40013 0.44437 0.20519 0.0
C11 C 0.40212 0.47888 0.17338 0.0
C12 C 0.4909 0.46768 0.19953 0.0
H13 H 0.52551 0.4641 0.20934 0.0
C14 C 0.49326 0.50207 0.16773 0.0
H15 H 0.3639 0.42187 0.21955 0.0
C16 C 0.44925 0.50788 0.15484 0.0
H17 H 0.45203 0.5347 0.13012 0.0
H18 H 0.52938 0.52441 0.15312 0.0
H19 H 0.15322 0.90718 0.77965 0.0
C20 C 0.1803 0.89184 0.77 0.0
C21 C 0.21455 0.88912 0.80323 0.0
C22 C 0.18174 0.87601 0.7237 0.0
H23 H 0.27756 0.86893 0.81399 0.0
C24 C 0.24987 0.86995 0.78925 0.0
C25 C 0.25236 0.85489 0.74288 0.0
C26 C 0.21733 0.85706 0.71041 0.0
C27 C 0.14995 0.88405 0.68784 0.0
H28 H 0.21971 0.84683 0.67415 0.0
C29 C 0.15704 0.93034 0.67692 0.0
C30 C 0.12963 0.9388 0.64052 0.0
C31 C 0.11481 0.84596 0.66265 0.0
H32 H 0.10929 0.81008 0.67046 0.0
C33 C 0.08645 0.85403 0.62729 0.0
H34 H 0.18536 0.95969 0.6956 0.0
C35 C 0.09377 0.90008 0.61617 0.0
H36 H 0.07122 0.90538 0.58862 0.0
H37 H 0.05898 0.82453 0.60819 0.0
H38 H 0.74739 0.52743 0.95968 0.0
C39 C 0.73019 0.49002 0.96592 0.0
C40 C 0.75545 0.46842 0.9936 0.0
C41 C 0.68047 0.46463 0.94971 0.0
H42 H 0.74774 0.40235 1.02435 0.0
C43 C 0.72964 0.42008 1.0037 0.0
C44 C 0.67916 0.39467 0.99 0.0
C45 C 0.6555 0.41716 0.96223 0.0
C46 C 0.64965 0.48992 0.93114 0.0
H47 H 0.6163 0.39837 0.95221 0.0
C48 C 0.65541 0.50887 0.88555 0.0
C49 C 0.624 0.53224 0.87111 0.0
C50 C 0.61248 0.49443 0.96108 0.0
H51 H 0.60724 0.48036 0.9959 0.0
C52 C 0.58178 0.51708 0.94694 0.0
H53 H 0.6838 0.50564 0.86192 0.0
C54 C 0.58743 0.53576 0.90261 0.0
H55 H 0.56259 0.55288 0.89267 0.0
H56 H 0.55331 0.52015 0.97055 0.0
H57 H 0.94054 0.85928 0.41448 0.0
C58 C 0.90975 0.83699 0.43618 0.0
C59 C 0.90306 0.85303 0.48163 0.0
C60 C 0.87551 0.79318 0.41782 0.0
H61 H 0.85697 0.83666 0.54342 0.0
C62 C 0.86147 0.82443 0.50847 0.0
C63 C 0.82447 0.78212 0.49013 0.0
C64 C 0.8327 0.7666 0.44484 0.0
C65 C 0.87646 0.78119 0.36674 0.0
H66 H 0.80424 0.73532 0.42903 0.0
C67 C 0.9049 0.75611 0.34669 0.0
C68 C 0.90248 0.74519 0.2976 0.0
C69 C 0.84599 0.79471 0.33758 0.0
H70 H 0.8239 0.81365 0.35191 0.0
C71 C 0.84299 0.7837 0.28997 0.0
H72 H 0.92864 0.74557 0.36889 0.0
C73 C 0.87049 0.75913 0.27028 0.0
H74 H 0.86584 0.7504 0.23326 0.0
H75 H 0.81879 0.79401 0.26813 0.0
H76 H 0.67919 0.81608 0.05241 0.0
C77 C 0.70192 0.83333 1.02265 0.0
C78 C 0.75122 0.83475 1.01695 0.0
C79 C 0.68273 0.8554 0.98988 0.0
H80 H 0.81789 0.85716 0.97382 0.0
C81 C 0.77986 0.85629 0.97799 0.0
C82 C 0.76073 0.87717 0.94478 0.0
C83 C 0.71246 0.87753 0.95131 0.0
C84 C 0.63119 0.85476 0.99402 0.0
H85 H 0.69742 0.89385 0.92574 0.0
C86 C 0.62423 0.89732 0.99991 0.0
C87 C 0.57562 0.8984 0.99691 0.0
C88 C 0.58927 0.81257 0.98635 0.0
H89 H 0.59412 0.77958 0.98115 0.0
C90 C 0.54106 0.81307 0.98299 0.0
H91 H 0.65707 0.9293 1.00703 0.0
C92 C 0.53424 0.85552 0.98753 0.0
H93 H 0.49644 0.85445 0.98317 0.0
H94 H 0.50888 0.78051 0.97594 0.0
H95 H 0.78724 0.19741 0.64053 0.0
C96 C 0.77722 0.19136 0.60392 0.0
C97 C 0.80682 0.17675 0.5725 0.0
C98 C 0.73533 0.19966 0.58828 0.0
H99 H 0.81542 0.15882 0.50013 0.0
C100 C 0.79385 0.17085 0.52489 0.0
C101 C 0.7535 0.18089 0.50845 0.0
C102 C 0.72418 0.19498 0.54032 0.0
C103 C 0.70307 0.21301 0.62205 0.0
H104 H 0.69191 0.20121 0.52782 0.0
C105 C 0.68571 0.24835 0.61137 0.0
C106 C 0.65382 0.26031 0.6424 0.0
C107 C 0.6888 0.19003 0.66476 0.0
H108 H 0.70115 0.16231 0.67375 0.0
C109 C 0.65749 0.20195 0.69591 0.0
H110 H 0.69792 0.26722 0.57918 0.0
C111 C 0.63993 0.23675 0.68486 0.0
H112 H 0.61496 0.24473 0.70927 0.0
H113 H 0.64639 0.18383 0.72857 0.0
H114 H 0.47198 0.88645 0.29266 0.0
C115 C 0.43375 0.86447 0.282 0.0
C116 C 0.40705 0.88349 0.25359 0.0
C117 C 0.41341 0.81629 0.29383 0.0
H118 H 0.33679 0.86885 0.2187 0.0
C119 C 0.3583 0.85379 0.2386 0.0
C120 C 0.33738 0.80514 0.24787 0.0
C121 C 0.36518 0.78693 0.27643 0.0
C122 C 0.44784 0.79559 0.31442 0.0
H123 H 0.35115 0.74947 0.2825 0.0
C124 C 0.43833 0.77072 0.35716 0.0
C125 C 0.47355 0.75239 0.37373 0.0
C126 C 0.4923 0.80145 0.28934 0.0
H127 H 0.50049 0.8198 0.25661 0.0
C128 C 0.52656 0.78364 0.30553 0.0
H129 H 0.40429 0.76573 0.37704 0.0
C130 C 0.51739 0.75947 0.34711 0.0
H131 H 0.54513 0.74636 0.35878 0.0
H132 H 0.56057 0.7886 0.28563 0.0
H133 H 0.27942 0.52944 0.80985 0.0
C134 C 0.25728 0.49613 0.79253 0.0
C135 C 0.27129 0.48581 0.74699 0.0
C136 C 0.21609 0.46246 0.81659 0.0
H137 H 0.25507 0.43209 0.69239 0.0
C138 C 0.24329 0.44121 0.72615 0.0
C139 C 0.20263 0.40682 0.74924 0.0
C140 C 0.18931 0.41804 0.79433 0.0
C141 C 0.20706 0.46829 0.86801 0.0
H142 H 0.15873 0.39153 0.81295 0.0
C143 C 0.18944 0.50232 0.88805 0.0
C144 C 0.17898 0.50301 0.93721 0.0
C145 C 0.21458 0.43615 0.89765 0.0
H146 H 0.22812 0.41004 0.88372 0.0
C147 C 0.20424 0.43645 0.94518 0.0
H148 H 0.18356 0.52741 0.86567 0.0
C149 C 0.18624 0.4689 0.96461 0.0
H150 H 0.17705 0.46635 1.00151 0.0
H151 H 0.20959 0.4108 0.96717 0.0
Gd152 Gd 0.06691 0.15317 0.56426 0.0
Gd153 Gd 0.05021 0.10816 0.65889 0.0
C154 C 0.10918 0.21952 0.65821 0.0
C155 C 0.0738 0.20452 0.4929 0.0
C156 C 0.11763 0.239 0.46921 0.0
C157 C 0.16231 0.26446 0.49402 0.0
C158 C 0.11755 0.24089 0.42045 0.0
C159 C 0.20786 0.28836 0.42098 0.0
C160 C 0.16239 0.26537 0.39645 0.0
C161 C 0.20714 0.28933 0.47 0.0
C162 C 0.13832 0.12039 0.58847 0.0
C163 C 1.01013 1.04154 0.56505 0.0
C164 C 0.04147 0.05689 0.73072 0.0
C165 C 0.99707 1.02783 0.75737 0.0
C166 C 0.95004 1.03018 0.74907 0.0
C167 C 1.00129 0.99779 0.79117 0.0
C168 C 0.91181 0.97366 0.80954 0.0
C169 C 0.95885 0.97075 0.81709 0.0
C170 C 0.90771 1.00346 0.77518 0.0
C171 C 0.97677 0.13706 0.6334 0.0
O172 O 0.09188 0.21637 0.61508 0.0
O173 O 0.10543 0.18113 0.68023 0.0
O174 O 0.07115 0.16124 0.48941 0.0
O175 O 0.06388 0.21617 0.5351 0.0
O176 O 0.12725 0.12544 0.54588 0.0
O177 O 0.11702 0.14037 0.61501 0.0
O178 O 0.02871 1.04527 0.60776 0.0
O179 O 1.01187 0.07965 0.54352 0.0
O180 O 0.0523 0.10216 0.73377 0.0
O181 O 0.04375 1.04193 0.68794 0.0
O182 O 0.98864 0.13483 0.6763 0.0
O183 O 0.99935 0.11845 0.60698 0.0
H184 H 0.16326 0.2629 0.53174 0.0
H185 H 0.0835 0.22117 0.40081 0.0
H186 H 0.16208 0.26448 0.35859 0.0
H187 H 0.24181 0.30651 0.48959 0.0
H188 H 0.94617 0.05291 0.7226 0.0
H189 H 0.03738 0.9956 0.79776 0.0
H190 H 0.96307 0.94839 0.84379 0.0
H191 H 0.87182 1.006 0.76848 0.0
Gd192 Gd 0.5846 0.14372 0.13554 0.0
Gd193 Gd 0.48844 0.12762 0.09563 0.0
C194 C 0.51559 0.1889 0.18691 0.0
C195 C 0.67494 0.16444 0.16593 0.0
C196 C 0.6927 0.16486 0.21408 0.0
C197 C 0.67012 0.12536 0.24222 0.0
C198 C 0.72871 0.20639 0.23381 0.0
C199 C 0.71723 0.16971 0.30956 0.0
C200 C 0.74078 0.20887 0.28123 0.0
C201 C 0.68243 0.12773 0.28938 0.0
C202 C 0.50779 0.07278 0.17946 0.0
C203 C 0.55172 0.07136 1.04965 0.0
C204 C 0.40181 0.10501 0.05544 0.0
C205 C 0.36342 0.06955 1.02571 0.0
C206 C 0.3555 0.08277 0.98111 0.0
C207 C 0.33389 1.02395 1.04071 0.0
C208 C 0.291 1.00471 0.96534 0.0
C209 C 0.29789 0.99176 1.01071 0.0
C210 C 0.32017 0.05078 0.9512 0.0
C211 C 0.56013 0.21435 0.0752 0.0
O212 O 0.56252 0.19792 0.17367 0.0
O213 O 0.47826 0.1533 0.16738 0.0
O214 O 0.64721 0.1231 0.14775 0.0
O215 O 0.65713 0.19658 0.15744 0.0
O216 O 0.54539 0.10524 0.20045 0.0
O217 O 0.51226 0.07973 0.13618 0.0
O218 O 0.50641 0.07194 0.05603 0.0
O219 O 0.59123 0.10233 0.07154 0.0
O220 O 0.44523 0.12841 1.03524 0.0
O221 O 0.40625 0.09554 0.09909 0.0
O222 O 0.51476 0.20612 0.08949 0.0
O223 O 0.56707 0.17614 0.07358 0.0
H224 H 0.64167 0.09295 0.22829 0.0
H225 H 0.74636 0.23732 0.21286 0.0
H226 H 0.76813 0.24153 0.29584 0.0
H227 H 0.66325 0.09718 0.31046 0.0
H228 H 0.37742 0.11792 0.96894 0.0
H229 H 0.33884 1.01304 0.07524 0.0
H230 H 0.27585 0.95671 1.0229 0.0
H231 H 0.3172 0.06194 0.91627 0.0
Gd232 Gd 0.54053 0.59509 0.59265 0.0
Gd233 Gd 0.55193 0.67875 0.64506 0.0
C234 C 0.58811 0.60792 0.69811 0.0
C235 C 0.55307 0.52487 0.55064 0.0
C236 C 0.56591 0.48559 0.56546 0.0
C237 C 0.53998 0.44031 0.54616 0.0
C238 C 0.60356 0.4927 0.599 0.0
C239 C 0.59003 0.40971 0.5929 0.0
C240 C 0.61561 0.45518 0.61245 0.0
C241 C 0.55183 0.40265 0.5598 0.0
C242 C 0.45382 0.58693 0.63922 0.0
C243 C 0.50366 0.66507 0.54118 0.0
C244 C 0.53739 0.74769 0.68744 0.0
C245 C 0.49542 0.76374 0.68889 0.0
C246 C 0.50571 0.81201 0.688 0.0
C247 C 0.44501 0.73125 0.69147 0.0
C248 C 0.4158 0.79554 0.69588 0.0
C249 C 0.40561 0.74702 0.69525 0.0
C250 C 0.46626 0.82781 0.69121 0.0
C251 C 0.63914 0.68791 0.59918 0.0
O252 O 0.57877 0.58361 0.65802 0.0
O253 O 0.57869 0.64643 0.70283 0.0
O254 O 0.50876 0.52357 0.56374 0.0
O255 O 0.58878 0.56703 0.55477 0.0
O256 O 0.45564 0.57267 0.59637 0.0
O257 O 0.49824 0.60532 0.65537 0.0
O258 O 0.50251 0.68182 0.58413 0.0
O259 O 0.5235 0.63337 0.53391 0.0
O260 O 0.56178 0.75239 0.64782 0.0
O261 O 0.52857 0.70731 0.70663 0.0
O262 O 0.6366 0.70398 0.64106 0.0
O263 O 0.59481 0.66857 0.58276 0.0
H264 H 0.51055 0.43408 0.52051 0.0
H265 H 0.62404 0.52732 0.61459 0.0
H266 H 0.64569 0.46207 0.63752 0.0
H267 H 0.53084 0.36796 0.54459 0.0
H268 H 0.54433 0.83752 0.68535 0.0
H269 H 0.43605 0.69368 0.69156 0.0
H270 H 0.36737 0.72118 0.69927 0.0
H271 H 0.47538 0.86537 0.69056 0.0
Gd272 Gd 0.04875 0.58814 0.14328 0.0
Gd273 Gd 0.05073 0.67627 0.08881 0.0
C274 C 0.14522 0.68794 0.15817 0.0
C275 C 0.06969 0.516 0.15806 0.0
C276 C 0.11854 0.51034 0.15711 0.0
C277 C 0.15941 0.54016 0.18442 0.0
C278 C 0.12562 0.47679 0.12669 0.0
C279 C 0.21329 0.50223 0.15174 0.0
C280 C 0.17254 0.47278 0.12396 0.0
C281 C 0.2061 0.53599 0.1819 0.0
C282 C 0.99684 0.63339 0.19258 0.0
C283 C 0.95251 0.57883 0.07895 0.0
C284 C 0.04019 0.753 0.06988 0.0
C285 C 0.99372 0.76324 0.07001 0.0
C286 C 0.95732 0.74455 1.03467 0.0
C287 C 0.98351 0.78889 0.10748 0.0
C288 C 0.9012 0.77629 0.07456 0.0
C289 C 0.93768 0.79509 0.1099 0.0
C290 C 0.91183 0.75111 1.03685 0.0
C291 C 0.08761 0.61877 1.04041 0.0
O292 O 0.1231 0.64287 0.16877 0.0
O293 O 0.12559 0.70782 0.12765 0.0
O294 O 0.06319 0.54275 0.19204 0.0
O295 O 0.05358 0.52312 0.11748 0.0
O296 O 1.00241 0.59608 0.20721 0.0
O297 O 1.01789 0.64187 0.15303 0.0
O298 O 0.97019 0.62538 0.07717 0.0
O299 O 0.9779 0.55646 0.099 0.0
O300 O 0.04374 0.7235 1.03735 0.0
O301 O 0.05526 0.74578 0.11077 0.0
O302 O 0.06545 0.64326 1.02106 0.0
O303 O 0.09285 0.62946 0.08372 0.0
H304 H 0.15552 0.56689 0.20778 0.0
H305 H 0.09494 0.45394 0.10472 0.0
H306 H 0.17697 0.44682 0.09989 0.0
H307 H 0.23631 0.55876 0.20434 0.0
H308 H 0.96372 0.72459 1.00524 0.0
H309 H 1.01064 0.8035 0.13542 0.0
H310 H 0.93084 0.81451 0.13956 0.0
H311 H 0.88549 0.73725 1.00822 0.0
C312 C 0.312 0.29029 0.33847 0.0
C313 C 0.3488 0.33589 0.34621 0.0
H314 H 0.23865 0.23999 0.35593 0.0
C315 C 0.33928 0.36622 0.37919 0.0
H316 H 0.31796 0.26647 0.31265 0.0
C317 C 0.29353 0.35094 0.40409 0.0
C318 C 0.25646 0.3056 0.3954 0.0
H319 H 0.36705 0.40164 0.38548 0.0
H320 H 0.28672 0.37469 0.4294 0.0
C321 C 0.26632 0.27538 0.36269 0.0
C322 C 0.21557 0.9564 0.8554 0.0
C323 C 0.21945 0.9124 0.85028 0.0
H324 H 0.23274 1.01924 0.89718 0.0
C325 C 0.23647 0.89498 0.88853 0.0
H326 H 0.20234 0.97105 0.82706 0.0
C327 C 0.25608 0.92362 0.92808 0.0
C328 C 0.25781 0.96985 0.93068 0.0
H329 H 0.23822 0.86047 0.88651 0.0
H330 H 0.27352 0.91075 0.95466 0.0
C331 C 0.23393 0.98452 0.89546 0.0
C332 C 0.61563 0.52607 0.78255 0.0
C333 C 0.62703 0.55374 0.82413 0.0
H334 H 0.59446 0.52116 0.71007 0.0
C335 C 0.63099 0.60069 0.82207 0.0
H336 H 0.61144 0.48959 0.78297 0.0
C337 C 0.62066 0.61858 0.78077 0.0
C338 C 0.60606 0.59023 0.73982 0.0
H339 H 0.63945 0.62297 0.85341 0.0
H340 H 0.62226 0.65431 0.78158 0.0
C341 C 0.60539 0.54414 0.74083 0.0
C342 C 0.93703 0.67994 0.29313 0.0
C343 C 0.93139 0.7189 0.27325 0.0
H344 H 0.96155 0.62241 0.2834 0.0
C345 C 0.94952 0.7301 0.22709 0.0
H346 H 0.92335 0.66967 0.32819 0.0
C347 C 0.97016 0.70235 0.20114 0.0
C348 C 0.97484 0.66303 0.22052 0.0
H349 H 0.94703 0.76017 0.21041 0.0
H350 H 0.98162 0.71126 0.16546 0.0
C351 C 0.95846 0.65245 0.26713 0.0
C352 C 0.43958 0.24645 0.25297 0.0
C353 C 0.47373 0.29386 0.25549 0.0
H354 H 0.42642 0.176 0.23012 0.0
C355 C 0.52375 0.30543 0.24006 0.0
H356 H 0.40054 0.23636 0.2639 0.0
C357 C 0.53863 0.27055 0.22062 0.0
C358 C 0.50352 0.22366 0.21581 0.0
H359 H 0.55089 0.34162 0.24183 0.0
H360 H 0.5768 0.2808 0.20713 0.0
C361 C 0.45432 0.21179 0.23337 0.0
C362 C 0.14497 1.02322 0.66168 0.0
C363 C 0.13883 0.98774 0.62735 0.0
H364 H 0.15083 0.09397 0.67608 0.0
C365 C 0.14015 0.99899 0.58004 0.0
H366 H 0.1442 1.01571 0.69846 0.0
C367 C 0.14415 1.04366 0.56737 0.0
C368 C 0.1465 0.07799 0.60174 0.0
H369 H 0.13691 0.97287 0.55272 0.0
H370 H 0.14259 0.05036 0.53062 0.0
C371 C 0.14887 0.06803 0.64894 0.0
C372 C 0.84101 0.53832 0.99471 0.0
C373 C 0.80668 0.49681 1.01519 0.0
H374 H 0.91292 0.5969 0.99905 0.0
C375 C 0.82158 0.4833 0.05746 0.0
H376 H 0.8323 0.55012 0.96202 0.0
C377 C 0.86898 0.50931 0.07756 0.0
C378 C 0.90246 0.5508 0.05726 0.0
H379 H 0.79649 0.453 0.07605 0.0
H380 H 0.87891 0.49755 0.1098 0.0
C381 C 0.88773 0.56522 1.01581 0.0
C382 C 0.75671 0.78225 0.54841 0.0
C383 C 0.77589 0.75683 0.5171 0.0
H384 H 0.69997 0.78056 0.59869 0.0
C385 C 0.7476 0.70772 0.51182 0.0
H386 H 0.77509 0.82014 0.55258 0.0
C387 C 0.70247 0.68514 0.53739 0.0
C388 C 0.68508 0.71082 0.56968 0.0
H389 H 0.76057 0.6864 0.48851 0.0
H390 H 0.68194 0.64745 0.53281 0.0
C391 C 0.71278 0.75957 0.57471 0.0
C392 C 0.30939 0.44578 0.15464 0.0
C393 C 0.35494 0.48521 0.16144 0.0
H394 H 0.22912 0.42013 0.14674 0.0
C395 C 0.35416 0.53049 0.16047 0.0
H396 H 0.30882 0.41041 0.15437 0.0
C397 C 0.30845 0.53611 0.15535 0.0
C398 C 0.2625 0.49657 0.15119 0.0
H399 H 0.38853 0.56158 0.16571 0.0
H400 H 0.30899 0.57147 0.15574 0.0
C401 C 0.26371 0.45138 0.14969 0.0
C402 C 0.6006 0.3379 1.02861 0.0
C403 C 0.64907 0.34717 1.00999 0.0
H404 H 0.53576 0.28988 0.0639 0.0
C405 C 0.66885 0.31192 1.01337 0.0
H406 H 0.58442 0.36431 1.02784 0.0
C407 C 0.64049 0.2685 1.03432 0.0
C408 C 0.59204 0.25968 0.0529 0.0
H409 H 0.70612 0.31782 0.99959 0.0
H410 H 0.6565 0.24205 1.03615 0.0
C411 C 0.57277 0.29511 1.0498 0.0
C412 C 0.95444 0.9074 0.54662 0.0
C413 C 0.93593 0.90131 0.50058 0.0
H414 H 0.99239 0.95546 0.60255 0.0
C415 C 0.9443 0.94206 0.47499 0.0
H416 H 0.9489 0.87695 0.56739 0.0
C417 C 0.96869 0.98747 0.49549 0.0
C418 C 0.98589 0.99347 0.54205 0.0
H419 H 0.93013 0.93883 0.43967 0.0
H420 H 0.97334 1.01788 0.47502 0.0
C421 C 0.9793 0.95264 0.56688 0.0
C422 C 0.28604 0.80182 0.69782 0.0
C423 C 0.2944 0.84083 0.72811 0.0
H424 H 0.31808 0.75734 0.66297 0.0
C425 C 0.34349 0.86643 0.74509 0.0
H426 H 0.24865 0.78151 0.68407 0.0
C427 C 0.38286 0.85222 0.73379 0.0
C428 C 0.37442 0.81242 0.70461 0.0
H429 H 0.35153 0.8974 0.76757 0.0
H430 H 0.41962 0.87179 0.74915 0.0
C431 C 0.3257 0.78776 0.68613 0.0
C432 C 0.81978 0.87595 0.88054 0.0
C433 C 0.79269 0.89934 0.90429 0.0
H434 H 0.87866 0.88125 0.83156 0.0
C435 C 0.80093 0.94568 0.89264 0.0
H436 H 0.8134 0.83987 0.88834 0.0
C437 C 0.83825 0.96932 0.86005 0.0
C438 C 0.86776 0.94689 0.83881 0.0
H439 H 0.78068 0.96448 0.91066 0.0
H440 H 0.84587 1.00589 0.85338 0.0
C441 C 0.85712 0.89957 0.84822 0.0
C442 C 0.74235 0.13831 0.43084 0.0
C443 C 0.74291 0.17746 0.45771 0.0
H444 H 0.73437 0.10546 0.36283 0.0
C445 C 0.73534 0.21421 0.43551 0.0
H446 H 0.74781 0.10936 0.44712 0.0
C447 C 0.72776 0.21203 0.38728 0.0
C448 C 0.72721 0.17288 0.36041 0.0
H449 H 0.73608 0.24499 0.45535 0.0
H450 H 0.72162 0.24069 0.37109 0.0
C451 C 0.73444 0.13599 0.3827 0.0
C452 C 0.47126 0.6813 0.41585 0.0
C453 C 0.46746 0.72557 0.41801 0.0
H454 H 0.48525 0.62782 0.45216 0.0
C455 C 0.46962 0.74734 0.46238 0.0
H456 H 0.47022 0.66365 0.38232 0.0
C457 C 0.47851 0.72665 0.50299 0.0
C458 C 0.48589 0.68387 0.50011 0.0
H459 H 0.46785 0.78181 0.46534 0.0
H460 H 0.48244 0.7455 0.5362 0.0
C461 C 0.48039 0.66089 0.45605 0.0
C462 C 0.17172 0.55151 1.00874 0.0
C463 C 0.15897 0.53689 0.96155 0.0
H464 H 0.15885 0.58697 0.07048 0.0
C465 C 0.12369 0.55148 0.94034 0.0
H466 H 0.19965 0.54258 1.02656 0.0
C467 C 0.10094 0.57819 0.96581 0.0
C468 C 0.11234 0.59082 1.01338 0.0
H469 H 0.11232 0.54101 0.90449 0.0
H470 H 0.07354 0.5882 0.94838 0.0
C471 C 0.1484 0.57736 1.03427 0.0
C472 C 0.60693 0.98781 0.99607 0.0
C473 C 0.56791 0.94357 1.00476 0.0
H474 H 0.63274 0.06319 1.00372 0.0
C475 C 0.5219 0.94299 1.02332 0.0
H476 H 0.64242 0.99031 0.98044 0.0
C477 C 0.51568 0.98487 1.03418 0.0
C478 C 0.55574 1.02868 1.02829 0.0
H479 H 0.49108 0.91029 1.03174 0.0
H480 H 0.48041 0.98272 1.05021 0.0
C481 C 0.60124 1.02984 1.00858 0.0
C482 C 0.85191 0.15092 0.63409 0.0
C483 C 0.85127 0.16783 0.58902 0.0
H484 H 0.89286 0.12891 0.68381 0.0
C485 C 0.89336 0.17549 0.55946 0.0
H486 H 0.82007 0.14356 0.65768 0.0
C487 C 0.93379 0.16486 0.57384 0.0
C488 C 0.9342 0.14837 0.61874 0.0
H489 H 0.89547 0.18987 0.52513 0.0
H490 H 0.96505 0.17008 0.55 0.0
C491 C 0.8934 0.14207 0.64906 0.0
C492 C 0.25415 0.73273 0.2458 0.0
C493 C 0.28831 0.77377 0.22469 0.0
H494 H 0.1828 0.67349 0.24148 0.0
C495 C 0.27501 0.78499 0.18063 0.0
H496 H 0.26233 0.72265 0.27962 0.0
C497 C 0.22872 0.75755 0.15948 0.0
C498 C 0.1946 0.71699 0.1808 0.0
H499 H 0.30055 0.81494 0.16179 0.0
H500 H 0.22005 0.76781 0.1259 0.0
C501 C 0.20821 0.70456 0.22397 0.0
C502 C 0.31532 0.52288 0.67241 0.0
C503 C 0.31701 0.519 0.72126 0.0
H504 H 0.3565 0.54708 0.60878 0.0
C505 C 0.36398 0.54259 0.74362 0.0
H506 H 0.27991 0.50611 0.65385 0.0
C507 C 0.40826 0.56673 0.71746 0.0
C508 C 0.40669 0.56771 0.66832 0.0
H509 H 0.36707 0.54033 0.78103 0.0
H510 H 0.44406 0.58276 0.73555 0.0
C511 C 0.35936 0.54657 0.64642 0.0
C512 C 0.77025 0.76741 1.04218 0.0
C513 C 0.77555 0.81426 1.0498 0.0
H514 H 0.80564 0.71791 1.04537 0.0
C515 C 0.81734 0.84526 0.07516 0.0
H516 H 0.73868 0.74311 1.02207 0.0
C517 C 0.85651 0.83152 0.08716 0.0
C518 C 0.85438 0.78636 0.07419 0.0
H519 H 0.82259 0.88184 0.0806 0.0
H520 H 0.89046 0.85791 0.10227 0.0
C521 C 0.80924 0.75344 0.05456 0.0
C522 C 0.42335 0.94259 0.18934 0.0
C523 C 0.43128 0.93297 0.23579 0.0
H524 H 0.44049 0.99367 0.13557 0.0
C525 C 0.46338 0.9707 0.26406 0.0
H526 H 0.39984 0.91461 0.16595 0.0
C527 C 0.48699 1.01633 0.24631 0.0
C528 C 0.47941 1.0255 0.19973 0.0
H529 H 0.47026 0.96503 0.29999 0.0
H530 H 0.51192 1.0443 0.26891 0.0
C531 C 0.44693 0.98807 0.17166 0.0
C532 C 0.16528 0.31716 0.7522 0.0
C533 C 0.17653 0.35853 0.72674 0.0
H534 H 0.13621 0.24135 0.75089 0.0
C535 C 0.16506 0.35339 0.67869 0.0
H536 H 0.17404 0.3195 0.78907 0.0
C537 C 0.14339 0.30859 0.65676 0.0
C538 C 0.1328 0.26723 0.68199 0.0
H539 H 0.17274 0.38421 0.65785 0.0
H540 H 0.13525 0.30649 0.61976 0.0
C541 C 0.14399 0.27222 0.73012 0.0
C542 C 0.62141 0.30098 0.58417 0.0
C543 C 0.63539 0.29742 0.6303 0.0
H544 H 0.59701 0.33941 0.53608 0.0
C545 C 0.63263 0.33014 0.66442 0.0
H546 H 0.62234 0.27593 0.55715 0.0
C547 C 0.61705 0.36603 0.65251 0.0
C548 C 0.60413 0.37019 0.60615 0.0
H549 H 0.64349 0.32865 0.7002 0.0
H550 H 0.61524 0.3906 0.67966 0.0
C551 C 0.60616 0.33701 0.57221 0.0
loop_
_geom_bond_atom_site_label_1
_geom_bond_atom_site_label_2
_geom_bond_distance
_geom_bond_site_symmetry_2
_ccdc_geom_bond_type
H0 C1 0.949 . S
C1 H0 0.949 . S
C1 C2 1.395 . S
C1 C3 1.391 . S
C2 C1 1.395 . S
C2 C5 1.390 . S
C3 C1 1.391 . S
C3 C7 1.387 . S
C3 C8 1.491 . S
H4 C5 0.950 . S
C5 C2 1.390 . S
C5 H4 0.950 . S
C5 C6 1.378 . S
C6 C5 1.378 . S
C6 C7 1.409 . S
C7 C3 1.387 . S
C7 C6 1.409 . S
C7 H9 0.951 . S
C8 C3 1.491 . S
C8 C10 1.382 . S
C8 C12 1.404 . S
H9 C7 0.951 . S
C10 C8 1.382 . S
C10 C11 1.390 . S
C10 H15 0.949 . S
C11 C10 1.390 . S
C11 C16 1.399 . S
C12 C8 1.404 . S
C12 H13 0.950 . S
C12 C14 1.375 . S
H13 C12 0.950 . S
C14 C12 1.375 . S
C14 C16 1.382 . S
C14 H18 0.950 . S
H15 C10 0.949 . S
C16 C11 1.399 . S
C16 C14 1.382 . S
C16 H17 0.952 . S
H17 C16 0.952 . S
H18 C14 0.950 . S
H19 C20 0.949 . S
C20 H19 0.949 . S
C20 C21 1.395 . S
C20 C22 1.391 . S
C21 C20 1.395 . S
C21 C24 1.390 . S
C22 C20 1.391 . S
C22 C26 1.387 . S
C22 C27 1.491 . S
H23 C24 0.950 . S
C24 C21 1.390 . S
C24 H23 0.950 . S
C24 C25 1.378 . S
C25 C24 1.378 . S
C25 C26 1.409 . S
C26 C22 1.387 . S
C26 C25 1.409 . S
C26 H28 0.951 . S
C27 C22 1.491 . S
C27 C29 1.382 . S
C27 C31 1.404 . S
H28 C26 0.951 . S
C29 C27 1.382 . S
C29 C30 1.390 . S
C29 H34 0.949 . S
C30 C29 1.390 . S
C30 C35 1.399 . S
C31 C27 1.404 . S
C31 H32 0.950 . S
C31 C33 1.375 . S
H32 C31 0.950 . S
C33 C31 1.375 . S
C33 C35 1.382 . S
C33 H37 0.950 . S
H34 C29 0.949 . S
C35 C30 1.399 . S
C35 C33 1.382 . S
C35 H36 0.952 . S
H36 C35 0.952 . S
H37 C33 0.950 . S
H38 C39 0.949 . S
C39 H38 0.949 . S
C39 C40 1.395 . S
C39 C41 1.391 . S
C40 C39 1.395 . S
C40 C43 1.390 . S
C41 C39 1.391 . S
C41 C45 1.387 . S
C41 C46 1.491 . S
H42 C43 0.950 . S
C43 C40 1.390 . S
C43 H42 0.950 . S
C43 C44 1.378 . S
C44 C43 1.378 . S
C44 C45 1.409 . S
C45 C41 1.387 . S
C45 C44 1.409 . S
C45 H47 0.951 . S
C46 C41 1.491 . S
C46 C48 1.382 . S
C46 C50 1.404 . S
H47 C45 0.951 . S
C48 C46 1.382 . S
C48 C49 1.390 . S
C48 H53 0.949 . S
C49 C48 1.390 . S
C49 C54 1.399 . S
C50 C46 1.404 . S
C50 H51 0.950 . S
C50 C52 1.375 . S
H51 C50 0.950 . S
C52 C50 1.375 . S
C52 C54 1.382 . S
C52 H56 0.950 . S
H53 C48 0.949 . S
C54 C49 1.399 . S
C54 C52 1.382 . S
C54 H55 0.952 . S
H55 C54 0.952 . S
H56 C52 0.950 . S
H57 C58 0.949 . S
C58 H57 0.949 . S
C58 C59 1.395 . S
C58 C60 1.391 . S
C59 C58 1.395 . S
C59 C62 1.390 . S
C60 C58 1.391 . S
C60 C64 1.387 . S
C60 C65 1.491 . S
H61 C62 0.950 . S
C62 C59 1.390 . S
C62 H61 0.950 . S
C62 C63 1.378 . S
C63 C62 1.378 . S
C63 C64 1.409 . S
C64 C60 1.387 . S
C64 C63 1.409 . S
C64 H66 0.951 . S
C65 C60 1.491 . S
C65 C67 1.382 . S
C65 C69 1.404 . S
H66 C64 0.951 . S
C67 C65 1.382 . S
C67 C68 1.390 . S
C67 H72 0.949 . S
C68 C67 1.390 . S
C68 C73 1.399 . S
C69 C65 1.404 . S
C69 H70 0.950 . S
C69 C71 1.375 . S
H70 C69 0.950 . S
C71 C69 1.375 . S
C71 C73 1.382 . S
C71 H75 0.950 . S
H72 C67 0.949 . S
C73 C68 1.399 . S
C73 C71 1.382 . S
C73 H74 0.952 . S
H74 C73 0.952 . S
H75 C71 0.950 . S
H76 C77 0.949 . S
C77 H76 0.949 . S
C77 C78 1.395 . S
C77 C79 1.391 . S
C78 C77 1.395 . S
C78 C81 1.390 . S
C79 C77 1.391 . S
C79 C83 1.387 . S
C79 C84 1.491 . S
H80 C81 0.950 . S
C81 C78 1.390 . S
C81 H80 0.950 . S
C81 C82 1.378 . S
C82 C81 1.378 . S
C82 C83 1.409 . S
C83 C79 1.387 . S
C83 C82 1.409 . S
C83 H85 0.951 . S
C84 C79 1.491 . S
C84 C86 1.382 . S
C84 C88 1.404 . S
H85 C83 0.951 . S
C86 C84 1.382 . S
C86 C87 1.390 . S
C86 H91 0.949 . S
C87 C86 1.390 . S
C87 C92 1.399 . S
C88 C84 1.404 . S
C88 H89 0.950 . S
C88 C90 1.375 . S
H89 C88 0.950 . S
C90 C88 1.375 . S
C90 C92 1.382 . S
C90 H94 0.950 . S
H91 C86 0.949 . S
C92 C87 1.399 . S
C92 C90 1.382 . S
C92 H93 0.952 . S
H93 C92 0.952 . S
H94 C90 0.950 . S
H95 C96 0.949 . S
C96 H95 0.949 . S
C96 C97 1.395 . S
C96 C98 1.391 . S
C97 C96 1.395 . S
C97 C100 1.390 . S
C98 C96 1.391 . S
C98 C102 1.387 . S
C98 C103 1.491 . S
H99 C100 0.950 . S
C100 C97 1.390 . S
C100 H99 0.950 . S
C100 C101 1.378 . S
C101 C100 1.378 . S
C101 C102 1.409 . S
C102 C98 1.387 . S
C102 C101 1.409 . S
C102 H104 0.951 . S
C103 C98 1.491 . S
C103 C105 1.382 . S
C103 C107 1.404 . S
H104 C102 0.951 . S
C105 C103 1.382 . S
C105 C106 1.390 . S
C105 H110 0.949 . S
C106 C105 1.390 . S
C106 C111 1.399 . S
C107 C103 1.404 . S
C107 H108 0.950 . S
C107 C109 1.375 . S
H108 C107 0.950 . S
C109 C107 1.375 . S
C109 C111 1.382 . S
C109 H113 0.950 . S
H110 C105 0.949 . S
C111 C106 1.399 . S
C111 C109 1.382 . S
C111 H112 0.952 . S
H112 C111 0.952 . S
H113 C109 0.950 . S
H114 C115 0.949 . S
C115 H114 0.949 . S
C115 C116 1.395 . S
C115 C117 1.391 . S
C116 C115 1.395 . S
C116 C119 1.390 . S
C117 C115 1.391 . S
C117 C121 1.387 . S
C117 C122 1.491 . S
H118 C119 0.950 . S
C119 C116 1.390 . S
C119 H118 0.950 . S
C119 C120 1.378 . S
C120 C119 1.378 . S
C120 C121 1.409 . S
C121 C117 1.387 . S
C121 C120 1.409 . S
C121 H123 0.951 . S
C122 C117 1.491 . S
C122 C124 1.382 . S
C122 C126 1.404 . S
H123 C121 0.951 . S
C124 C122 1.382 . S
C124 C125 1.390 . S
C124 H129 0.949 . S
C125 C124 1.390 . S
C125 C130 1.399 . S
C126 C122 1.404 . S
C126 H127 0.950 . S
C126 C128 1.375 . S
H127 C126 0.950 . S
C128 C126 1.375 . S
C128 C130 1.382 . S
C128 H132 0.950 . S
H129 C124 0.949 . S
C130 C125 1.399 . S
C130 C128 1.382 . S
C130 H131 0.952 . S
H131 C130 0.952 . S
H132 C128 0.950 . S
H133 C134 0.949 . S
C134 H133 0.949 . S
C134 C135 1.395 . S
C134 C136 1.391 . S
C135 C134 1.395 . S
C135 C138 1.390 . S
C136 C134 1.391 . S
C136 C140 1.387 . S
C136 C141 1.491 . S
H137 C138 0.950 . S
C138 C135 1.390 . S
C138 H137 0.950 . S
C138 C139 1.378 . S
C139 C138 1.378 . S
C139 C140 1.409 . S
C140 C136 1.387 . S
C140 C139 1.409 . S
C140 H142 0.951 . S
C141 C136 1.491 . S
C141 C143 1.382 . S
C141 C145 1.404 . S
H142 C140 0.951 . S
C143 C141 1.382 . S
C143 C144 1.390 . S
C143 H148 0.949 . S
C144 C143 1.390 . S
C144 C149 1.399 . S
C145 C141 1.404 . S
C145 H146 0.950 . S
C145 C147 1.375 . S
H146 C145 0.950 . S
C147 C145 1.375 . S
C147 C149 1.382 . S
C147 H151 0.950 . S
H148 C143 0.949 . S
C149 C144 1.399 . S
C149 C147 1.382 . S
C149 H150 0.952 . S
H150 C149 0.952 . S
H151 C147 0.950 . S
Gd152 C155 2.818 . S
Gd152 O172 2.377 . S
Gd152 O174 2.448 . S
Gd152 O175 2.506 . S
Gd152 O176 2.435 . S
Gd152 O177 2.717 . S
Gd152 O179 2.395 1_445 S
Gd152 O183 2.327 1_455 S
Gd153 C164 2.818 1_545 S
Gd153 O173 2.395 1_655 S
Gd153 O177 2.327 1_655 S
Gd153 O178 2.377 1_545 S
Gd153 O180 2.448 1_545 S
Gd153 O181 2.506 1_545 S
Gd153 O182 2.435 . S
Gd153 O183 2.717 . S
C154 O172 1.240 . S
C154 O173 1.240 . S
C155 Gd152 2.818 . S
C155 C156 1.510 . S
C155 O174 1.249 . S
C155 O175 1.252 . S
C156 C155 1.510 . S
C156 C157 1.404 . S
C156 C158 1.352 . S
C157 C156 1.404 . S
C157 C161 1.389 . S
C157 H184 0.930 . S
C158 C156 1.352 . S
C158 C160 1.374 . S
C158 H185 0.931 . S
C159 C160 1.359 . S
C159 C161 1.364 . S
C160 C158 1.374 . S
C160 C159 1.359 . S
C160 H186 0.931 . S
C161 C157 1.389 . S
C161 C159 1.364 . S
C161 H187 0.931 . S
C162 O176 1.256 . S
C162 O177 1.257 . S
C163 O178 1.240 . S
C163 O179 1.240 . S
C164 Gd153 2.818 1_565 S
C164 C165 1.510 . S
C164 O180 1.249 . S
C164 O181 1.252 . S
C165 C164 1.510 . S
C165 C166 1.404 . S
C165 C167 1.352 . S
C166 C165 1.404 . S
C166 C170 1.389 . S
C166 H188 0.930 . S
C167 C165 1.352 . S
C167 C169 1.374 . S
C167 H189 0.931 . S
C168 C169 1.359 . S
C168 C170 1.364 . S
C169 C167 1.374 . S
C169 C168 1.359 . S
C169 H190 0.931 . S
C170 C166 1.389 . S
C170 C168 1.364 . S
C170 H191 0.931 . S
C171 O182 1.256 . S
C171 O183 1.257 . S
O172 Gd152 2.377 . S
O172 C154 1.240 . S
O173 Gd153 2.395 1_455 S
O173 C154 1.240 . S
O174 Gd152 2.448 . S
O174 C155 1.249 . S
O175 Gd152 2.506 . S
O175 C155 1.252 . S
O176 Gd152 2.435 . S
O176 C162 1.256 . S
O177 Gd152 2.717 . S
O177 Gd153 2.327 1_455 S
O177 C162 1.257 . S
O178 Gd153 2.377 1_565 S
O178 C163 1.240 . S
O179 Gd152 2.395 1_665 S
O179 C163 1.240 . S
O180 Gd153 2.448 1_565 S
O180 C164 1.249 . S
O181 Gd153 2.506 1_565 S
O181 C164 1.252 . S
O182 Gd153 2.435 . S
O182 C171 1.256 . S
O183 Gd152 2.327 1_655 S
O183 Gd153 2.717 . S
O183 C171 1.257 . S
H184 C157 0.930 . S
H185 C158 0.931 . S
H186 C160 0.931 . S
H187 C161 0.931 . S
H188 C166 0.930 . S
H189 C167 0.931 . S
H190 C169 0.931 . S
H191 C170 0.931 . S
Gd192 C195 2.818 . S
Gd192 O212 2.377 . S
Gd192 O214 2.448 . S
Gd192 O215 2.506 . S
Gd192 O216 2.435 1_545 S
Gd192 O217 2.717 1_545 S
Gd192 O219 2.395 1_545 S
Gd192 O223 2.327 . S
Gd193 C204 2.818 1_544 S
Gd193 O213 2.395 . S
Gd193 O217 2.327 1_545 S
Gd193 O218 2.377 . S
Gd193 O220 2.448 1_554 S
Gd193 O221 2.506 1_545 S
Gd193 O222 2.435 . S
Gd193 O223 2.717 . S
C194 O212 1.240 . S
C194 O213 1.240 . S
C195 Gd192 2.818 . S
C195 C196 1.510 . S
C195 O214 1.249 . S
C195 O215 1.252 . S
C196 C195 1.510 . S
C196 C197 1.404 . S
C196 C198 1.352 . S
C197 C196 1.404 . S
C197 C201 1.389 . S
C197 H224 0.930 . S
C198 C196 1.352 . S
C198 C200 1.374 . S
C198 H225 0.931 . S
C199 C200 1.359 . S
C199 C201 1.364 . S
C200 C198 1.374 . S
C200 C199 1.359 . S
C200 H226 0.931 . S
C201 C197 1.389 . S
C201 C199 1.364 . S
C201 H227 0.931 . S
C202 O216 1.256 . S
C202 O217 1.257 . S
C203 O218 1.240 1_565 S
C203 O219 1.240 . S
C204 Gd193 2.818 1_566 S
C204 C205 1.510 . S
C204 O220 1.249 1_565 S
C204 O221 1.252 1_556 S
C205 C204 1.510 . S
C205 C206 1.404 . S
C205 C207 1.352 . S
C206 C205 1.404 . S
C206 C210 1.389 . S
C206 H228 0.930 . S
C207 C205 1.352 . S
C207 C209 1.374 . S
C207 H229 0.931 . S
C208 C209 1.359 . S
C208 C210 1.364 . S
C209 C207 1.374 . S
C209 C208 1.359 . S
C209 H230 0.931 . S
C210 C206 1.389 . S
C210 C208 1.364 . S
C210 H231 0.931 . S
C211 O222 1.256 . S
C211 O223 1.257 . S
O212 Gd192 2.377 . S
O212 C194 1.240 . S
O213 Gd193 2.395 . S
O213 C194 1.240 . S
O214 Gd192 2.448 . S
O214 C195 1.249 . S
O215 Gd192 2.506 . S
O215 C195 1.252 . S
O216 Gd192 2.435 1_565 S
O216 C202 1.256 . S
O217 Gd192 2.717 1_565 S
O217 Gd193 2.327 1_565 S
O217 C202 1.257 . S
O218 Gd193 2.377 . S
O218 C203 1.240 1_545 S
O219 Gd192 2.395 1_565 S
O219 C203 1.240 . S
O220 Gd193 2.448 1_556 S
O220 C204 1.249 1_545 S
O221 Gd193 2.506 1_565 S
O221 C204 1.252 1_554 S
O222 Gd193 2.435 . S
O222 C211 1.256 . S
O223 Gd192 2.327 . S
O223 Gd193 2.717 . S
O223 C211 1.257 . S
H224 C197 0.930 . S
H225 C198 0.931 . S
H226 C200 0.931 . S
H227 C201 0.931 . S
H228 C206 0.930 . S
H229 C207 0.931 . S
H230 C209 0.931 . S
H231 C210 0.931 . S
Gd232 C235 2.818 . S
Gd232 O252 2.377 . S
Gd232 O254 2.448 . S
Gd232 O255 2.506 . S
Gd232 O256 2.435 . S
Gd232 O257 2.717 . S
Gd232 O259 2.395 . S
Gd232 O263 2.327 . S
Gd233 C244 2.818 . S
Gd233 O253 2.395 . S
Gd233 O257 2.327 . S
Gd233 O258 2.377 . S
Gd233 O260 2.448 . S
Gd233 O261 2.506 . S
Gd233 O262 2.435 . S
Gd233 O263 2.717 . S
C234 O252 1.240 . S
C234 O253 1.240 . S
C235 Gd232 2.818 . S
C235 C236 1.510 . S
C235 O254 1.249 . S
C235 O255 1.252 . S
C236 C235 1.510 . S
C236 C237 1.404 . S
C236 C238 1.352 . S
C237 C236 1.404 . S
C237 C241 1.389 . S
C237 H264 0.930 . S
C238 C236 1.352 . S
C238 C240 1.374 . S
C238 H265 0.931 . S
C239 C240 1.359 . S
C239 C241 1.364 . S
C240 C238 1.374 . S
C240 C239 1.359 . S
C240 H266 0.931 . S
C241 C237 1.389 . S
C241 C239 1.364 . S
C241 H267 0.931 . S
C242 O256 1.256 . S
C242 O257 1.257 . S
C243 O258 1.240 . S
C243 O259 1.240 . S
C244 Gd233 2.818 . S
C244 C245 1.510 . S
C244 O260 1.249 . S
C244 O261 1.252 . S
C245 C244 1.510 . S
C245 C246 1.404 . S
C245 C247 1.352 . S
C246 C245 1.404 . S
C246 C250 1.389 . S
C246 H268 0.930 . S
C247 C245 1.352 . S
C247 C249 1.374 . S
C247 H269 0.931 . S
C248 C249 1.359 . S
C248 C250 1.364 . S
C249 C247 1.374 . S
C249 C248 1.359 . S
C249 H270 0.931 . S
C250 C246 1.389 . S
C250 C248 1.364 . S
C250 H271 0.931 . S
C251 O262 1.256 . S
C251 O263 1.257 . S
O252 Gd232 2.377 . S
O252 C234 1.240 . S
O253 Gd233 2.395 . S
O253 C234 1.240 . S
O254 Gd232 2.448 . S
O254 C235 1.249 . S
O255 Gd232 2.506 . S
O255 C235 1.252 . S
O256 Gd232 2.435 . S
O256 C242 1.256 . S
O257 Gd232 2.717 . S
O257 Gd233 2.327 . S
O257 C242 1.257 . S
O258 Gd233 2.377 . S
O258 C243 1.240 . S
O259 Gd232 2.395 . S
O259 C243 1.240 . S
O260 Gd233 2.448 . S
O260 C244 1.249 . S
O261 Gd233 2.506 . S
O261 C244 1.252 . S
O262 Gd233 2.435 . S
O262 C251 1.256 . S
O263 Gd232 2.327 . S
O263 Gd233 2.717 . S
O263 C251 1.257 . S
H264 C237 0.930 . S
H265 C238 0.931 . S
H266 C240 0.931 . S
H267 C241 0.931 . S
H268 C246 0.930 . S
H269 C247 0.931 . S
H270 C249 0.931 . S
H271 C250 0.931 . S
Gd272 C275 2.818 . S
Gd272 O292 2.377 . S
Gd272 O294 2.448 . S
Gd272 O295 2.506 . S
Gd272 O296 2.435 . S
Gd272 O297 2.717 . S
Gd272 O299 2.395 1_455 S
Gd272 O303 2.327 1_554 S
Gd273 C284 2.819 1_454 S
Gd273 O293 2.395 . S
Gd273 O297 2.326 . S
Gd273 O298 2.377 1_454 S
Gd273 O300 2.449 1_554 S
Gd273 O301 2.506 1_454 S
Gd273 O302 2.436 1_554 S
Gd273 O303 2.717 1_554 S
C274 O292 1.240 . S
C274 O293 1.240 . S
C275 Gd272 2.818 . S
C275 C276 1.510 . S
C275 O294 1.249 . S
C275 O295 1.252 . S
C276 C275 1.510 . S
C276 C277 1.404 . S
C276 C278 1.352 . S
C277 C276 1.404 . S
C277 C281 1.389 . S
C277 H304 0.930 . S
C278 C276 1.352 . S
C278 C280 1.374 . S
C278 H305 0.931 . S
C279 C280 1.359 . S
C279 C281 1.364 . S
C280 C278 1.374 . S
C280 C279 1.359 . S
C280 H306 0.931 . S
C281 C277 1.389 . S
C281 C279 1.364 . S
C281 H307 0.931 . S
C282 O296 1.256 1_655 S
C282 O297 1.257 1_655 S
C283 O298 1.240 . S
C283 O299 1.240 1_556 S
C284 Gd273 2.819 1_656 S
C284 C285 1.510 . S
C284 O300 1.249 1_655 S
C284 O301 1.261 . S
C285 C284 1.510 . S
C285 C286 1.404 . S
C285 C287 1.352 . S
C286 C285 1.404 . S
C286 C290 1.389 . S
C286 H308 0.930 . S
C287 C285 1.352 . S
C287 C289 1.374 . S
C287 H309 0.931 . S
C288 C289 1.359 . S
C288 C290 1.364 . S
C289 C287 1.374 . S
C289 C288 1.359 . S
C289 H310 0.931 . S
C290 C286 1.389 . S
C290 C288 1.364 . S
C290 H311 0.931 . S
C291 O302 1.256 . S
C291 O303 1.257 . S
O292 Gd272 2.377 . S
O292 C274 1.240 . S
O293 Gd273 2.395 . S
O293 C274 1.240 . S
O294 Gd272 2.448 . S
O294 C275 1.249 . S
O295 Gd272 2.506 . S
O295 C275 1.252 . S
O296 Gd272 2.435 . S
O296 C282 1.256 1_455 S
O297 Gd272 2.717 . S
O297 Gd273 2.326 . S
O297 C282 1.257 1_455 S
O298 Gd273 2.377 1_656 S
O298 C283 1.240 . S
O299 Gd272 2.395 1_655 S
O299 C283 1.240 1_554 S
O300 Gd273 2.449 1_556 S
O300 C284 1.249 1_455 S
O301 Gd273 2.506 1_656 S
O301 C284 1.261 . S
O302 Gd273 2.436 1_556 S
O302 C291 1.256 . S
O303 Gd272 2.327 1_556 S
O303 Gd273 2.717 1_556 S
O303 C291 1.257 . S
H304 C277 0.930 . S
H305 C278 0.931 . S
H306 C280 0.931 . S
H307 C281 0.931 . S
H308 C286 0.930 . S
H309 C287 0.931 . S
H310 C289 0.931 . S
H311 C290 0.931 . S
C312 C313 1.387 . S
C312 H316 0.950 . S
C312 C321 1.390 . S
C313 C312 1.387 . S
C313 C315 1.387 . S
H314 C321 0.950 . S
C315 C313 1.387 . S
C315 C317 1.390 . S
C315 H319 0.950 . S
H316 C312 0.950 . S
C317 C315 1.390 . S
C317 C318 1.387 . S
C317 H320 0.950 . S
C318 C317 1.387 . S
C318 C321 1.387 . S
H319 C315 0.950 . S
H320 C317 0.950 . S
C321 C312 1.390 . S
C321 H314 0.950 . S
C321 C318 1.387 . S
C322 C323 1.387 . S
C322 H326 0.950 . S
C322 C331 1.390 . S
C323 C322 1.387 . S
C323 C325 1.387 . S
H324 C331 0.950 . S
C325 C323 1.387 . S
C325 C327 1.390 . S
C325 H329 0.950 . S
H326 C322 0.950 . S
C327 C325 1.390 . S
C327 C328 1.387 . S
C327 H330 0.950 . S
C328 C327 1.387 . S
C328 C331 1.387 . S
H329 C325 0.950 . S
H330 C327 0.950 . S
C331 C322 1.390 . S
C331 H324 0.950 . S
C331 C328 1.387 . S
C332 C333 1.387 . S
C332 H336 0.950 . S
C332 C341 1.390 . S
C333 C332 1.387 . S
C333 C335 1.387 . S
H334 C341 0.950 . S
C335 C333 1.387 . S
C335 C337 1.390 . S
C335 H339 0.950 . S
H336 C332 0.950 . S
C337 C335 1.390 . S
C337 C338 1.387 . S
C337 H340 0.950 . S
C338 C337 1.387 . S
C338 C341 1.387 . S
H339 C335 0.950 . S
H340 C337 0.950 . S
C341 C332 1.390 . S
C341 H334 0.950 . S
C341 C338 1.387 . S
C342 C343 1.387 . S
C342 H346 0.950 . S
C342 C351 1.390 . S
C343 C342 1.387 . S
C343 C345 1.387 . S
H344 C351 0.950 . S
C345 C343 1.387 . S
C345 C347 1.390 . S
C345 H349 0.950 . S
H346 C342 0.950 . S
C347 C345 1.390 . S
C347 C348 1.387 . S
C347 H350 0.950 . S
C348 C347 1.387 . S
C348 C351 1.387 . S
H349 C345 0.950 . S
H350 C347 0.950 . S
C351 C342 1.390 . S
C351 H344 0.950 . S
C351 C348 1.387 . S
C352 C353 1.387 . S
C352 H356 0.950 . S
C352 C361 1.390 . S
C353 C352 1.387 . S
C353 C355 1.387 . S
H354 C361 0.950 . S
C355 C353 1.387 . S
C355 C357 1.390 . S
C355 H359 0.950 . S
H356 C352 0.950 . S
C357 C355 1.390 . S
C357 C358 1.387 . S
C357 H360 0.950 . S
C358 C357 1.387 . S
C358 C361 1.387 . S
H359 C355 0.950 . S
H360 C357 0.950 . S
C361 C352 1.390 . S
C361 H354 0.950 . S
C361 C358 1.387 . S
C362 C363 1.387 . S
C362 H366 0.950 . S
C362 C371 1.390 . S
C363 C362 1.387 . S
C363 C365 1.387 . S
H364 C371 0.950 1_545 S
C365 C363 1.387 . S
C365 C367 1.390 . S
C365 H369 0.950 . S
H366 C362 0.950 . S
C367 C365 1.390 . S
C367 C368 1.387 . S
C367 H370 0.950 . S
C368 C367 1.387 . S
C368 C371 1.387 . S
H369 C365 0.950 . S
H370 C367 0.950 . S
C371 C362 1.390 . S
C371 H364 0.950 1_565 S
C371 C368 1.387 . S
C372 C373 1.387 . S
C372 H376 0.950 . S
C372 C381 1.390 . S
C373 C372 1.387 . S
C373 C375 1.387 . S
H374 C381 0.950 . S
C375 C373 1.387 . S
C375 C377 1.390 1_556 S
C375 H379 0.950 1_556 S
H376 C372 0.950 . S
C377 C375 1.390 1_554 S
C377 C378 1.387 1_554 S
C377 H380 0.950 . S
C378 C377 1.387 1_556 S
C378 C381 1.387 . S
H379 C375 0.950 1_554 S
H380 C377 0.950 . S
C381 C372 1.390 . S
C381 H374 0.950 . S
C381 C378 1.387 . S
C382 C383 1.387 . S
C382 H386 0.950 . S
C382 C391 1.390 . S
C383 C382 1.387 . S
C383 C385 1.387 . S
H384 C391 0.950 . S
C385 C383 1.387 . S
C385 C387 1.390 . S
C385 H389 0.950 . S
H386 C382 0.950 . S
C387 C385 1.390 . S
C387 C388 1.387 . S
C387 H390 0.950 . S
C388 C387 1.387 . S
C388 C391 1.387 . S
H389 C385 0.950 . S
H390 C387 0.950 . S
C391 C382 1.390 . S
C391 H384 0.950 . S
C391 C388 1.387 . S
C392 C393 1.387 . S
C392 H396 0.950 . S
C392 C401 1.390 . S
C393 C392 1.387 . S
C393 C395 1.387 . S
H394 C401 0.950 . S
C395 C393 1.387 . S
C395 C397 1.390 . S
C395 H399 0.950 . S
H396 C392 0.950 . S
C397 C395 1.390 . S
C397 C398 1.387 . S
C397 H400 0.950 . S
C398 C397 1.387 . S
C398 C401 1.387 . S
H399 C395 0.950 . S
H400 C397 0.950 . S
C401 C392 1.390 . S
C401 H394 0.950 . S
C401 C398 1.387 . S
C402 C403 1.387 1_554 S
C402 H406 0.950 . S
C402 C411 1.390 . S
C403 C402 1.387 1_556 S
C403 C405 1.387 . S
H404 C411 0.950 . S
C405 C403 1.387 . S
C405 C407 1.390 . S
C405 H409 0.950 . S
H406 C402 0.950 . S
C407 C405 1.390 . S
C407 C408 1.387 1_556 S
C407 H410 0.950 . S
C408 C407 1.387 1_554 S
C408 C411 1.387 . S
H409 C405 0.950 . S
H410 C407 0.950 . S
C411 C402 1.390 . S
C411 H404 0.950 . S
C411 C408 1.387 . S
C412 C413 1.387 . S
C412 H416 0.950 . S
C412 C421 1.390 . S
C413 C412 1.387 . S
C413 C415 1.387 . S
H414 C421 0.950 . S
C415 C413 1.387 . S
C415 C417 1.390 . S
C415 H419 0.950 . S
H416 C412 0.950 . S
C417 C415 1.390 . S
C417 C418 1.387 . S
C417 H420 0.950 . S
C418 C417 1.387 . S
C418 C421 1.387 . S
H419 C415 0.950 . S
H420 C417 0.950 . S
C421 C412 1.390 . S
C421 H414 0.950 . S
C421 C418 1.387 . S
C422 C423 1.387 . S
C422 H426 0.950 . S
C422 C431 1.390 . S
C423 C422 1.387 . S
C423 C425 1.387 . S
H424 C431 0.950 . S
C425 C423 1.387 . S
C425 C427 1.390 . S
C425 H429 0.950 . S
H426 C422 0.950 . S
C427 C425 1.390 . S
C427 C428 1.387 . S
C427 H430 0.950 . S
C428 C427 1.387 . S
C428 C431 1.387 . S
H429 C425 0.950 . S
H430 C427 0.950 . S
C431 C422 1.390 . S
C431 H424 0.950 . S
C431 C428 1.387 . S
C432 C433 1.387 . S
C432 H436 0.950 . S
C432 C441 1.390 . S
C433 C432 1.387 . S
C433 C435 1.387 . S
H434 C441 0.950 . S
C435 C433 1.387 . S
C435 C437 1.390 . S
C435 H439 0.950 . S
H436 C432 0.950 . S
C437 C435 1.390 . S
C437 C438 1.387 . S
C437 H440 0.950 . S
C438 C437 1.387 . S
C438 C441 1.387 . S
H439 C435 0.950 . S
H440 C437 0.950 . S
C441 C432 1.390 . S
C441 H434 0.950 . S
C441 C438 1.387 . S
C442 C443 1.387 . S
C442 H446 0.950 . S
C442 C451 1.390 . S
C443 C442 1.387 . S
C443 C445 1.387 . S
H444 C451 0.950 . S
C445 C443 1.387 . S
C445 C447 1.390 . S
C445 H449 0.950 . S
H446 C442 0.950 . S
C447 C445 1.390 . S
C447 C448 1.387 . S
C447 H450 0.950 . S
C448 C447 1.387 . S
C448 C451 1.387 . S
H449 C445 0.950 . S
H450 C447 0.950 . S
C451 C442 1.390 . S
C451 H444 0.950 . S
C451 C448 1.387 . S
C452 C453 1.387 . S
C452 H456 0.950 . S
C452 C461 1.390 . S
C453 C452 1.387 . S
C453 C455 1.387 . S
H454 C461 0.950 . S
C455 C453 1.387 . S
C455 C457 1.390 . S
C455 H459 0.950 . S
H456 C452 0.950 . S
C457 C455 1.390 . S
C457 C458 1.387 . S
C457 H460 0.950 . S
C458 C457 1.387 . S
C458 C461 1.387 . S
H459 C455 0.950 . S
H460 C457 0.950 . S
C461 C452 1.390 . S
C461 H454 0.950 . S
C461 C458 1.387 . S
C462 C463 1.387 . S
C462 H466 0.950 . S
C462 C471 1.390 . S
C463 C462 1.387 . S
C463 C465 1.387 . S
H464 C471 0.950 . S
C465 C463 1.387 . S
C465 C467 1.390 . S
C465 H469 0.950 . S
H466 C462 0.950 . S
C467 C465 1.390 . S
C467 C468 1.387 . S
C467 H470 0.950 . S
C468 C467 1.387 . S
C468 C471 1.387 . S
H469 C465 0.950 . S
H470 C467 0.950 . S
C471 C462 1.390 . S
C471 H464 0.950 . S
C471 C468 1.387 . S
C472 C473 1.387 . S
C472 H476 0.950 . S
C472 C481 1.390 . S
C473 C472 1.387 . S
C473 C475 1.387 . S
H474 C481 0.950 . S
C475 C473 1.387 . S
C475 C477 1.385 1_556 S
C475 H479 0.950 . S
H476 C472 0.950 . S
C477 C475 1.385 1_554 S
C477 C478 1.387 1_554 S
C477 H480 0.955 . S
C478 C477 1.387 1_556 S
C478 C481 1.387 . S
H479 C475 0.950 . S
H480 C477 0.955 . S
C481 C472 1.390 . S
C481 H474 0.950 . S
C481 C478 1.387 . S
C482 C483 1.387 . S
C482 H486 0.950 . S
C482 C491 1.390 . S
C483 C482 1.387 . S
C483 C485 1.387 . S
H484 C491 0.950 . S
C485 C483 1.387 . S
C485 C487 1.390 . S
C485 H489 0.950 . S
H486 C482 0.950 . S
C487 C485 1.390 . S
C487 C488 1.387 . S
C487 H490 0.950 . S
C488 C487 1.387 . S
C488 C491 1.387 . S
H489 C485 0.950 . S
H490 C487 0.950 . S
C491 C482 1.390 . S
C491 H484 0.950 . S
C491 C488 1.387 . S
C492 C493 1.387 . S
C492 H496 0.950 . S
C492 C501 1.390 . S
C493 C492 1.387 . S
C493 C495 1.387 . S
H494 C501 0.950 . S
C495 C493 1.387 . S
C495 C497 1.390 . S
C495 H499 0.950 . S
H496 C492 0.950 . S
C497 C495 1.390 . S
C497 C498 1.387 . S
C497 H500 0.950 . S
C498 C497 1.387 . S
C498 C501 1.387 . S
H499 C495 0.950 . S
H500 C497 0.950 . S
C501 C492 1.390 . S
C501 H494 0.950 . S
C501 C498 1.387 . S
C502 C503 1.387 . S
C502 H506 0.950 . S
C502 C511 1.390 . S
C503 C502 1.387 . S
C503 C505 1.387 . S
H504 C511 0.950 . S
C505 C503 1.387 . S
C505 C507 1.390 . S
C505 H509 0.950 . S
H506 C502 0.950 . S
C507 C505 1.390 . S
C507 C508 1.387 . S
C507 H510 0.950 . S
C508 C507 1.387 . S
C508 C511 1.387 . S
H509 C505 0.950 . S
H510 C507 0.950 . S
C511 C502 1.390 . S
C511 H504 0.950 . S
C511 C508 1.387 . S
C512 C513 1.387 . S
C512 H516 0.950 . S
C512 C521 1.390 . S
C513 C512 1.387 . S
C513 C515 1.387 . S
H514 C521 0.950 . S
C515 C513 1.387 . S
C515 C517 1.390 . S
C515 H519 0.950 . S
H516 C512 0.950 . S
C517 C515 1.390 . S
C517 C518 1.387 . S
C517 H520 0.950 . S
C518 C517 1.387 . S
C518 C521 1.387 . S
H519 C515 0.950 . S
H520 C517 0.950 . S
C521 C512 1.390 . S
C521 H514 0.950 . S
C521 C518 1.387 . S
C522 C523 1.387 . S
C522 H526 0.950 . S
C522 C531 1.390 . S
C523 C522 1.387 . S
C523 C525 1.387 . S
H524 C531 0.950 . S
C525 C523 1.387 . S
C525 C527 1.390 . S
C525 H529 0.950 . S
H526 C522 0.950 . S
C527 C525 1.390 . S
C527 C528 1.387 . S
C527 H530 0.950 . S
C528 C527 1.387 . S
C528 C531 1.387 . S
H529 C525 0.950 . S
H530 C527 0.950 . S
C531 C522 1.390 . S
C531 H524 0.950 . S
C531 C528 1.387 . S
C532 C533 1.387 . S
C532 H536 0.950 . S
C532 C541 1.390 . S
C533 C532 1.387 . S
C533 C535 1.387 . S
H534 C541 0.950 . S
C535 C533 1.387 . S
C535 C537 1.390 . S
C535 H539 0.950 . S
H536 C532 0.950 . S
C537 C535 1.390 . S
C537 C538 1.387 . S
C537 H540 0.950 . S
C538 C537 1.387 . S
C538 C541 1.387 . S
H539 C535 0.950 . S
H540 C537 0.950 . S
C541 C532 1.390 . S
C541 H534 0.950 . S
C541 C538 1.387 . S
C542 C543 1.387 . S
C542 H546 0.950 . S
C542 C551 1.390 . S
C543 C542 1.387 . S
C543 C545 1.387 . S
H544 C551 0.950 . S
C545 C543 1.387 . S
C545 C547 1.390 . S
C545 H549 0.950 . S
H546 C542 0.950 . S
C547 C545 1.390 . S
C547 C548 1.387 . S
C547 H550 0.950 . S
C548 C547 1.387 . S
C548 C551 1.387 . S
H549 C545 0.950 . S
H550 C547 0.950 . S
C551 C542 1.390 . S
C551 H544 0.950 . S
C551 C548 1.387 . S
C313 C6 1.237 . S
C318 C159 1.274 . S
C323 C21 1.445 . S
C328 C208 1.486 . S
C338 C234 2.022 . S
C333 C49 2.042 . S
C343 C68 2.186 . S
C348 C282 2.235 . S
C358 C194 2.821 . S
C353 C2 2.662 . S
C368 C162 0.656 1_565 S
C363 C30 0.651 . S
C378 C283 2.012 . S
C373 C40 2.066 . S
C388 C251 1.724 . S
C383 C63 1.721 . S
C393 C11 1.369 . S
C398 C279 1.582 . S
C408 C211 2.610 . S
C403 C44 2.679 . S
C413 C59 2.033 . S
C418 C163 2.042 . S
C423 C25 1.684 . S
C428 C248 1.633 . S
C438 C168 1.370 . S
C433 C82 1.366 . S
C443 C101 1.379 . S
C448 C199 1.401 . S
C453 C125 2.276 . S
C458 C243 2.392 . S
C463 C144 1.998 . S
C468 C291 2.062 . S
C473 C87 1.971 . S
C478 C203 2.140 1_556 S
C488 C171 1.677 . S
C483 C97 1.686 . S
C498 C274 1.783 . S
C493 C120 1.857 . S
C508 C242 1.745 . S
C503 C135 1.853 . S
C513 C78 1.896 . S
C518 C288 2.052 . S
C528 C202 1.967 . S
C523 C116 2.016 . S
C538 C154 2.627 . S
C533 C139 2.624 . S
C543 C106 0.898 . S
C548 C239 1.185 . S
