# Generated by pormake.
# Topology eea, (3,6)-cn, num edge types: 1
# Building blocks:
#     Node 0, Type 0, BuildingBlock: QEWDON_clean_linker_0, # of connection points: 3
#     Node 1, Type 0, BuildingBlock: QEWDON_clean_linker_0, # of connection points: 3
#     Node 2, Type 0, BuildingBlock: QEWDON_clean_linker_0, # of connection points: 3
#     Node 3, Type 0, BuildingBlock: QEWDON_clean_linker_0, # of connection points: 3
#     Node 4, Type 0, BuildingBlock: QEWDON_clean_linker_0, # of connection points: 3
#     Node 5, Type 0, BuildingBlock: QEWDON_clean_linker_0, # of connection points: 3
#     Node 6, Type 0, BuildingBlock: QEWDON_clean_linker_0, # of connection points: 3
#     Node 7, Type 0, BuildingBlock: QEWDON_clean_linker_0, # of connection points: 3
#     Node 8, Type 0, BuildingBlock: QEWDON_clean_linker_0, # of connection points: 3
#     Node 9, Type 0, BuildingBlock: QEWDON_clean_linker_0, # of connection points: 3
#     Node 10, Type 0, BuildingBlock: QEWDON_clean_linker_0, # of connection points: 3
#     Node 11, Type 0, BuildingBlock: QEWDON_clean_linker_0, # of connection points: 3
#     Node 12, Type 0, BuildingBlock: QEWDON_clean_linker_0, # of connection points: 3
#     Node 13, Type 0, BuildingBlock: QEWDON_clean_linker_0, # of connection points: 3
#     Node 14, Type 0, BuildingBlock: QEWDON_clean_linker_0, # of connection points: 3
#     Node 15, Type 0, BuildingBlock: QEWDON_clean_linker_0, # of connection points: 3
#     Node 16, Type 0, BuildingBlock: QEWDON_clean_linker_0, # of connection points: 3
#     Node 17, Type 0, BuildingBlock: QEWDON_clean_linker_0, # of connection points: 3
#     Node 18, Type 1, BuildingBlock: KUMBUR_clean_sbu_0, # of connection points: 6
#     Node 19, Type 1, BuildingBlock: KUMBUR_clean_sbu_0, # of connection points: 6
#     Node 20, Type 1, BuildingBlock: KUMBUR_clean_sbu_0, # of connection points: 6
#     Node 21, Type 1, BuildingBlock: KUMBUR_clean_sbu_0, # of connection points: 6
#     Node 22, Type 1, BuildingBlock: KUMBUR_clean_sbu_0, # of connection points: 6
#     Node 23, Type 1, BuildingBlock: KUMBUR_clean_sbu_0, # of connection points: 6
#     Node 24, Type 1, BuildingBlock: KUMBUR_clean_sbu_0, # of connection points: 6
#     Node 25, Type 1, BuildingBlock: KUMBUR_clean_sbu_0, # of connection points: 6
#     Node 26, Type 1, BuildingBlock: KUMBUR_clean_sbu_0, # of connection points: 6
#     Edge 27, Type (0, 1), BuildingBlock: UVAHIK_clean_linker_0, # of connection points: 2
#     Edge 28, Type (0, 1), BuildingBlock: UVAHIK_clean_linker_0, # of connection points: 2
#     Edge 29, Type (0, 1), BuildingBlock: UVAHIK_clean_linker_0, # of connection points: 2
#     Edge 30, Type (0, 1), BuildingBlock: UVAHIK_clean_linker_0, # of connection points: 2
#     Edge 31, Type (0, 1), BuildingBlock: UVAHIK_clean_linker_0, # of connection points: 2
#     Edge 32, Type (0, 1), BuildingBlock: UVAHIK_clean_linker_0, # of connection points: 2
#     Edge 33, Type (0, 1), BuildingBlock: UVAHIK_clean_linker_0, # of connection points: 2
#     Edge 34, Type (0, 1), BuildingBlock: UVAHIK_clean_linker_0, # of connection points: 2
#     Edge 35, Type (0, 1), BuildingBlock: UVAHIK_clean_linker_0, # of connection points: 2
#     Edge 36, Type (0, 1), BuildingBlock: UVAHIK_clean_linker_0, # of connection points: 2
#     Edge 37, Type (0, 1), BuildingBlock: UVAHIK_clean_linker_0, # of connection points: 2
#     Edge 38, Type (0, 1), BuildingBlock: UVAHIK_clean_linker_0, # of connection points: 2
#     Edge 39, Type (0, 1), BuildingBlock: UVAHIK_clean_linker_0, # of connection points: 2
#     Edge 40, Type (0, 1), BuildingBlock: UVAHIK_clean_linker_0, # of connection points: 2
#     Edge 41, Type (0, 1), BuildingBlock: UVAHIK_clean_linker_0, # of connection points: 2
#     Edge 42, Type (0, 1), BuildingBlock: UVAHIK_clean_linker_0, # of connection points: 2
#     Edge 43, Type (0, 1), BuildingBlock: UVAHIK_clean_linker_0, # of connection points: 2
#     Edge 44, Type (0, 1), BuildingBlock: UVAHIK_clean_linker_0, # of connection points: 2
#     Edge 45, Type (0, 1), BuildingBlock: UVAHIK_clean_linker_0, # of connection points: 2
#     Edge 46, Type (0, 1), BuildingBlock: UVAHIK_clean_linker_0, # of connection points: 2
#     Edge 47, Type (0, 1), BuildingBlock: UVAHIK_clean_linker_0, # of connection points: 2
#     Edge 48, Type (0, 1), BuildingBlock: UVAHIK_clean_linker_0, # of connection points: 2
#     Edge 49, Type (0, 1), BuildingBlock: UVAHIK_clean_linker_0, # of connection points: 2
#     Edge 50, Type (0, 1), BuildingBlock: UVAHIK_clean_linker_0, # of connection points: 2
#     Edge 51, Type (0, 1), BuildingBlock: UVAHIK_clean_linker_0, # of connection points: 2
#     Edge 52, Type (0, 1), BuildingBlock: UVAHIK_clean_linker_0, # of connection points: 2
#     Edge 53, Type (0, 1), BuildingBlock: UVAHIK_clean_linker_0, # of connection points: 2
#     Edge 54, Type (0, 1), BuildingBlock: UVAHIK_clean_linker_0, # of connection points: 2
#     Edge 55, Type (0, 1), BuildingBlock: UVAHIK_clean_linker_0, # of connection points: 2
#     Edge 56, Type (0, 1), BuildingBlock: UVAHIK_clean_linker_0, # of connection points: 2
#     Edge 57, Type (0, 1), BuildingBlock: UVAHIK_clean_linker_0, # of connection points: 2
#     Edge 58, Type (0, 1), BuildingBlock: UVAHIK_clean_linker_0, # of connection points: 2
#     Edge 59, Type (0, 1), BuildingBlock: UVAHIK_clean_linker_0, # of connection points: 2
#     Edge 60, Type (0, 1), BuildingBlock: UVAHIK_clean_linker_0, # of connection points: 2
#     Edge 61, Type (0, 1), BuildingBlock: UVAHIK_clean_linker_0, # of connection points: 2
#     Edge 62, Type (0, 1), BuildingBlock: UVAHIK_clean_linker_0, # of connection points: 2
#     Edge 63, Type (0, 1), BuildingBlock: UVAHIK_clean_linker_0, # of connection points: 2
#     Edge 64, Type (0, 1), BuildingBlock: UVAHIK_clean_linker_0, # of connection points: 2
#     Edge 65, Type (0, 1), BuildingBlock: UVAHIK_clean_linker_0, # of connection points: 2
#     Edge 66, Type (0, 1), BuildingBlock: UVAHIK_clean_linker_0, # of connection points: 2
#     Edge 67, Type (0, 1), BuildingBlock: UVAHIK_clean_linker_0, # of connection points: 2
#     Edge 68, Type (0, 1), BuildingBlock: UVAHIK_clean_linker_0, # of connection points: 2
#     Edge 69, Type (0, 1), BuildingBlock: UVAHIK_clean_linker_0, # of connection points: 2
#     Edge 70, Type (0, 1), BuildingBlock: UVAHIK_clean_linker_0, # of connection points: 2
#     Edge 71, Type (0, 1), BuildingBlock: UVAHIK_clean_linker_0, # of connection points: 2
#     Edge 72, Type (0, 1), BuildingBlock: UVAHIK_clean_linker_0, # of connection points: 2
#     Edge 73, Type (0, 1), BuildingBlock: UVAHIK_clean_linker_0, # of connection points: 2
#     Edge 74, Type (0, 1), BuildingBlock: UVAHIK_clean_linker_0, # of connection points: 2
#     Edge 75, Type (0, 1), BuildingBlock: UVAHIK_clean_linker_0, # of connection points: 2
#     Edge 76, Type (0, 1), BuildingBlock: UVAHIK_clean_linker_0, # of connection points: 2
#     Edge 77, Type (0, 1), BuildingBlock: UVAHIK_clean_linker_0, # of connection points: 2
#     Edge 78, Type (0, 1), BuildingBlock: UVAHIK_clean_linker_0, # of connection points: 2
#     Edge 79, Type (0, 1), BuildingBlock: UVAHIK_clean_linker_0, # of connection points: 2
#     Edge 80, Type (0, 1), BuildingBlock: UVAHIK_clean_linker_0, # of connection points: 2
# Relax obj value: 0.043
# Max RMSD: 0.201
# Mean RMSD: 0.145
data_MOF--net-eea--node1-KUMBUR_clean_sbu_0--node2-QEWDON_clean_linker_0--edge1-UVAHIK_clean_linker_0
_symmetry_space_group_name_H-M    P1
_symmetry_Int_Tables_number       1
_symmetry_cell_setting            triclinic
loop_
_symmetry_equiv_pos_as_xyz
'x, y, z'
_cell_length_a     74.591491
_cell_length_b     76.06373
_cell_length_c     78.154111
_cell_angle_alpha  90.176598
_cell_angle_beta   90.193531
_cell_angle_gamma 119.95011
loop_
_atom_site_label
_atom_site_type_symbol
_atom_site_fract_x
_atom_site_fract_y
_atom_site_fract_z
_atom_type_partial_charge
H0 H 0.20627 0.11721 0.43167 0.0
C1 C 0.20745 0.10548 0.4247 0.0
C2 C 0.22367 0.10176 0.4284 0.0
C3 C 0.1923 0.09362 0.4125 0.0
H4 H 0.23761 0.08369 0.42232 0.0
C5 C 0.22499 0.08641 0.41945 0.0
C6 C 0.20969 0.07402 0.40746 0.0
C7 C 0.1934 0.07784 0.40408 0.0
C8 C 0.17465 0.09693 0.40921 0.0
H9 H 0.18123 0.06827 0.39516 0.0
C10 C 0.17798 0.11635 0.40514 0.0
C11 C 0.16115 0.11929 0.40152 0.0
C12 C 0.15432 0.08051 0.40993 0.0
H13 H 0.15138 0.06547 0.41318 0.0
C14 C 0.13759 0.08341 0.40669 0.0
H15 H 0.19367 0.12896 0.40423 0.0
C16 C 0.14092 0.10262 0.40249 0.0
H17 H 0.12763 0.10444 0.40011 0.0
H18 H 0.12196 0.0707 0.40741 0.0
H19 H 0.89986 0.0953 0.42505 0.0
C20 C 0.91248 0.10865 0.41925 0.0
C21 C 0.91896 0.12797 0.42631 0.0
C22 C 0.92272 0.10638 0.40511 0.0
H23 H 0.94125 0.15991 0.42458 0.0
C24 C 0.93563 0.14511 0.41877 0.0
C25 C 0.94591 0.14316 0.40447 0.0
C26 C 0.93919 0.1237 0.39768 0.0
C27 C 0.9175 0.08588 0.39893 0.0
H28 H 0.94688 0.12193 0.38662 0.0
C29 C 0.89689 0.07079 0.3954 0.0
C30 C 0.89237 0.05148 0.38936 0.0
C31 C 0.93345 0.08136 0.39668 0.0
H32 H 0.94938 0.09259 0.39952 0.0
C33 C 0.92902 0.06221 0.39105 0.0
H34 H 0.88456 0.07429 0.39686 0.0
C35 C 0.90868 0.04737 0.38742 0.0
H36 H 0.90572 0.03258 0.38321 0.0
H37 H 0.94141 0.05883 0.38952 0.0
H38 H 0.92121 0.80447 0.4206 0.0
C39 C 0.90745 0.80411 0.41564 0.0
C40 C 0.88908 0.7946 0.42522 0.0
C41 C 0.90836 0.81418 0.40027 0.0
H42 H 0.8573 0.78736 0.42653 0.0
C43 C 0.87148 0.79491 0.41921 0.0
C44 C 0.87185 0.80457 0.40383 0.0
C45 C 0.89026 0.81385 0.39433 0.0
C46 C 0.92838 0.82639 0.391 0.0
H47 H 0.89063 0.82136 0.38248 0.0
C48 C 0.94318 0.81997 0.38945 0.0
C49 C 0.96157 0.83167 0.38011 0.0
C50 C 0.93282 0.84501 0.38361 0.0
H51 H 0.92234 0.85089 0.38503 0.0
C52 C 0.95098 0.85655 0.37447 0.0
H53 H 0.94022 0.80576 0.39505 0.0
C54 C 0.96518 0.8499 0.37262 0.0
H55 H 0.97924 0.85921 0.36552 0.0
H56 H 0.9541 0.87079 0.36885 0.0
H57 H 0.12441 0.20893 0.60406 0.0
C58 C 0.11151 0.20967 0.60963 0.0
C59 C 0.10397 0.22125 0.60158 0.0
C60 C 0.10223 0.19874 0.62464 0.0
H61 H 0.08051 0.2299 0.60207 0.0
C62 C 0.08687 0.22171 0.60865 0.0
C63 C 0.07731 0.21092 0.62361 0.0
C64 C 0.08535 0.19977 0.63161 0.0
C65 C 0.10924 0.18536 0.63267 0.0
H66 H 0.07843 0.19187 0.6434 0.0
C67 C 0.13044 0.19121 0.63412 0.0
C68 C 0.13646 0.17854 0.64252 0.0
C69 C 0.09435 0.16637 0.63917 0.0
H70 H 0.07797 0.16108 0.63786 0.0
C71 C 0.10031 0.15382 0.64732 0.0
H72 H 0.14221 0.20575 0.62925 0.0
C73 C 0.12118 0.15989 0.64912 0.0
H74 H 0.12542 0.14985 0.6555 0.0
H75 H 0.08866 0.1393 0.65229 0.0
H76 H 0.81564 0.923 0.59518 0.0
C77 C 0.8144 0.90951 0.601 0.0
C78 C 0.79903 0.89022 0.59536 0.0
C79 C 0.82868 0.91153 0.61367 0.0
H80 H 0.78574 0.85799 0.59873 0.0
C81 C 0.79764 0.87287 0.60301 0.0
C82 C 0.81186 0.87455 0.6157 0.0
C83 C 0.82737 0.89403 0.62088 0.0
C84 C 0.8458 0.93189 0.61868 0.0
H85 H 0.83879 0.89569 0.63031 0.0
C86 C 0.84191 0.94765 0.6231 0.0
C87 C 0.85826 0.96685 0.62809 0.0
C88 C 0.86623 0.93559 0.61906 0.0
H89 H 0.86965 0.92379 0.61553 0.0
C90 C 0.88248 0.95463 0.62373 0.0
H91 H 0.82613 0.94475 0.62313 0.0
C92 C 0.87859 0.97016 0.62821 0.0
H93 H 0.89157 0.98485 0.63162 0.0
H94 H 0.89819 0.95738 0.62384 0.0
H95 H 0.09112 0.88601 0.60142 0.0
C96 C 0.10478 0.8986 0.60714 0.0
C97 C 0.12431 0.90475 0.60006 0.0
C98 C 0.10281 0.90899 0.62127 0.0
H99 H 0.15694 0.92586 0.60174 0.0
C100 C 0.14196 0.9213 0.60728 0.0
C101 C 0.14035 0.93243 0.62101 0.0
C102 C 0.12066 0.92592 0.62802 0.0
C103 C 0.08213 0.90289 0.62865 0.0
H104 H 0.11907 0.93429 0.63856 0.0
C105 C 0.06744 0.88231 0.63161 0.0
C106 C 0.04855 0.87701 0.63969 0.0
C107 C 0.07721 0.91789 0.63326 0.0
H108 H 0.0879 0.93378 0.6308 0.0
C109 C 0.05843 0.91261 0.64108 0.0
H110 H 0.07094 0.87053 0.62822 0.0
C111 C 0.04425 0.89234 0.64442 0.0
H112 H 0.02977 0.88858 0.65056 0.0
H113 H 0.05488 0.92431 0.64462 0.0
H114 H 0.87321 0.45149 0.76358 0.0
C115 C 0.87426 0.43943 0.75707 0.0
C116 C 0.8904 0.43573 0.76119 0.0
C117 C 0.85901 0.4271 0.7451 0.0
H118 H 0.90406 0.41718 0.75616 0.0
C119 C 0.89151 0.41989 0.75292 0.0
C120 C 0.87606 0.40697 0.74127 0.0
C121 C 0.85992 0.41084 0.73738 0.0
C122 C 0.8414 0.43038 0.74141 0.0
H123 H 0.84767 0.4009 0.72866 0.0
C124 C 0.84477 0.44976 0.73712 0.0
C125 C 0.82797 0.45268 0.73323 0.0
C126 C 0.82105 0.41397 0.74207 0.0
H127 H 0.81804 0.39896 0.74553 0.0
C128 C 0.80436 0.41683 0.73852 0.0
H129 H 0.86046 0.46238 0.73628 0.0
C130 C 0.80774 0.436 0.73412 0.0
H131 H 0.79447 0.4378 0.73153 0.0
H132 H 0.78872 0.40414 0.73919 0.0
H133 H 0.5674 0.42982 0.75737 0.0
C134 C 0.57981 0.44352 0.75181 0.0
C135 C 0.58542 0.46254 0.75911 0.0
C136 C 0.5907 0.44202 0.73776 0.0
H137 H 0.60651 0.49481 0.75764 0.0
C138 C 0.60187 0.48013 0.75194 0.0
C139 C 0.61282 0.47895 0.7378 0.0
C140 C 0.607 0.45983 0.73072 0.0
C141 C 0.58644 0.42184 0.73144 0.0
H142 H 0.61563 0.45873 0.72004 0.0
C143 C 0.56609 0.40598 0.7281 0.0
C144 C 0.56249 0.38692 0.72215 0.0
C145 C 0.60306 0.41832 0.72904 0.0
H146 H 0.6188 0.43009 0.73178 0.0
C147 C 0.59956 0.39947 0.72345 0.0
H148 H 0.55323 0.40866 0.7297 0.0
C149 C 0.5795 0.38388 0.72006 0.0
H150 H 0.57731 0.36932 0.71597 0.0
H151 H 0.61247 0.39688 0.72182 0.0
H152 H 0.58978 0.13938 0.75498 0.0
C153 C 0.57603 0.1388 0.74972 0.0
C154 C 0.55767 0.12985 0.75932 0.0
C155 C 0.57696 0.14815 0.73393 0.0
H156 H 0.52592 0.12273 0.76024 0.0
C157 C 0.54009 0.12987 0.75288 0.0
C158 C 0.5405 0.13887 0.73714 0.0
C159 C 0.55889 0.14763 0.72762 0.0
C160 C 0.59698 0.15998 0.7246 0.0
H161 H 0.55931 0.15466 0.71549 0.0
C162 C 0.61165 0.15336 0.72341 0.0
C163 C 0.63004 0.16469 0.71396 0.0
C164 C 0.60154 0.17841 0.71679 0.0
H165 H 0.59113 0.18441 0.71792 0.0
C166 C 0.6197 0.1896 0.70757 0.0
H167 H 0.60859 0.13928 0.72934 0.0
C168 C 0.63378 0.18275 0.70605 0.0
H169 H 0.64784 0.19179 0.69887 0.0
H170 H 0.62292 0.2037 0.70162 0.0
H171 H 0.78855 0.53781 0.93656 0.0
C172 C 0.77579 0.53893 0.94196 0.0
C173 C 0.7673 0.54897 0.93275 0.0
C174 C 0.76707 0.52931 0.95759 0.0
H175 H 0.74382 0.5576 0.9326 0.0
C176 C 0.75015 0.54957 0.93948 0.0
C177 C 0.74116 0.54011 0.95502 0.0
C178 C 0.74997 0.53035 0.96411 0.0
C179 C 0.77459 0.51684 0.96658 0.0
H180 H 0.74308 0.52301 0.97609 0.0
C181 C 0.79589 0.52296 0.96775 0.0
C182 C 0.80238 0.5111 0.97691 0.0
C183 C 0.76009 0.49836 0.97413 0.0
H184 H 0.74364 0.49277 0.97302 0.0
C185 C 0.76651 0.48664 0.98306 0.0
H186 H 0.80737 0.53708 0.96204 0.0
C187 C 0.78747 0.493 0.98456 0.0
H188 H 0.79205 0.48356 0.99152 0.0
H189 H 0.75515 0.47251 0.98882 0.0
H190 H 0.48363 0.2561 0.92827 0.0
C191 C 0.48303 0.24283 0.93395 0.0
C192 C 0.46803 0.2233 0.92836 0.0
C193 C 0.49782 0.24538 0.94635 0.0
H194 H 0.45639 0.19113 0.93145 0.0
C195 C 0.46749 0.20626 0.9359 0.0
C196 C 0.48214 0.20862 0.94833 0.0
C197 C 0.4973 0.22818 0.95343 0.0
C198 C 0.51462 0.26596 0.9512 0.0
H199 H 0.50869 0.23001 0.96299 0.0
C200 C 0.51028 0.28141 0.95567 0.0
C201 C 0.52637 0.30081 0.96053 0.0
C202 C 0.53524 0.27019 0.95138 0.0
H203 H 0.53901 0.25864 0.94781 0.0
C204 C 0.55123 0.28943 0.9559 0.0
H205 H 0.49437 0.27812 0.95585 0.0
C206 C 0.54689 0.30464 0.96044 0.0
H207 H 0.55966 0.3195 0.96375 0.0
H208 H 0.56708 0.29259 0.95586 0.0
H209 H 0.75617 0.22018 0.93379 0.0
C210 C 0.76991 0.23223 0.9399 0.0
C211 C 0.7895 0.23752 0.9334 0.0
C212 C 0.76803 0.2429 0.95387 0.0
H213 H 0.82231 0.25746 0.93587 0.0
C214 C 0.80729 0.2535 0.94101 0.0
C215 C 0.80582 0.26493 0.95454 0.0
C216 C 0.78608 0.25921 0.96104 0.0
C217 C 0.7473 0.23797 0.96045 0.0
H218 H 0.78462 0.26783 0.97144 0.0
C219 C 0.73131 0.21769 0.9627 0.0
C220 C 0.71202 0.21334 0.9696 0.0
C221 C 0.74354 0.2538 0.96477 0.0
H222 H 0.75523 0.2695 0.9628 0.0
C223 C 0.72466 0.24964 0.97167 0.0
H224 H 0.73397 0.2054 0.95919 0.0
C225 C 0.70911 0.22966 0.97423 0.0
H226 H 0.69486 0.22707 0.98006 0.0
H227 H 0.72208 0.26199 0.97515 0.0
H228 H 0.53936 0.78377 0.09643 0.0
C229 C 0.54083 0.77194 0.08993 0.0
C230 C 0.55655 0.76794 0.09484 0.0
C231 C 0.52642 0.76013 0.07723 0.0
H232 H 0.57035 0.74939 0.09041 0.0
C233 C 0.55816 0.75237 0.08656 0.0
C234 C 0.54355 0.73998 0.07413 0.0
C235 C 0.5278 0.74413 0.0695 0.0
C236 C 0.50905 0.76355 0.07287 0.0
H237 H 0.51614 0.73457 0.06021 0.0
C238 C 0.51264 0.78313 0.06905 0.0
C239 C 0.49608 0.78621 0.06465 0.0
C240 C 0.48869 0.74711 0.07253 0.0
H241 H 0.4855 0.73194 0.07563 0.0
C242 C 0.47222 0.75011 0.06846 0.0
H243 H 0.52836 0.79579 0.06899 0.0
C244 C 0.47583 0.76948 0.06454 0.0
H245 H 0.46271 0.77137 0.06156 0.0
H246 H 0.45657 0.73737 0.06836 0.0
H247 H 0.23421 0.76274 0.09119 0.0
C248 C 0.24664 0.7761 0.08523 0.0
C249 C 0.25286 0.7955 0.09202 0.0
C250 C 0.257 0.77378 0.07121 0.0
H251 H 0.27481 0.8275 0.08995 0.0
C252 C 0.26936 0.81263 0.08432 0.0
C253 C 0.27974 0.81061 0.07012 0.0
C254 C 0.27325 0.79109 0.06358 0.0
C255 C 0.25244 0.7533 0.06554 0.0
H256 H 0.28102 0.78926 0.05261 0.0
C257 C 0.23206 0.73764 0.06205 0.0
C258 C 0.22828 0.71838 0.05651 0.0
C259 C 0.26888 0.74939 0.06379 0.0
H260 H 0.28464 0.76107 0.06663 0.0
C261 C 0.26517 0.73032 0.05868 0.0
H262 H 0.21934 0.74062 0.06317 0.0
C263 C 0.24509 0.71493 0.05507 0.0
H264 H 0.24271 0.7002 0.0513 0.0
H265 H 0.27794 0.72743 0.05753 0.0
H266 H 0.25222 0.46583 0.0878 0.0
C267 C 0.23891 0.4659 0.08228 0.0
C268 C 0.21934 0.45441 0.08993 0.0
C269 C 0.24142 0.4778 0.06772 0.0
H270 H 0.18745 0.44711 0.08921 0.0
C271 C 0.2023 0.45508 0.08288 0.0
C272 C 0.20431 0.46658 0.06825 0.0
C273 C 0.2239 0.47771 0.06069 0.0
C274 C 0.26232 0.49123 0.06023 0.0
H275 H 0.22551 0.48631 0.04921 0.0
C276 C 0.27714 0.4849 0.05837 0.0
C277 C 0.29631 0.49771 0.05043 0.0
C278 C 0.26743 0.51078 0.05465 0.0
H279 H 0.25677 0.5164 0.05631 0.0
C280 C 0.28641 0.52344 0.04697 0.0
H281 H 0.2736 0.46994 0.06254 0.0
C282 C 0.30068 0.51692 0.04473 0.0
H283 H 0.31533 0.52703 0.0387 0.0
H284 H 0.29006 0.53839 0.0427 0.0
H285 H 0.4521 0.86943 0.26879 0.0
C286 C 0.44038 0.87156 0.27507 0.0
C287 C 0.43237 0.88259 0.26671 0.0
C288 C 0.43236 0.86219 0.29093 0.0
H289 H 0.40991 0.89254 0.26802 0.0
C290 C 0.41634 0.88435 0.27451 0.0
C291 C 0.40813 0.87523 0.29032 0.0
C292 C 0.41657 0.8646 0.29857 0.0
C293 C 0.43889 0.84839 0.29896 0.0
H294 H 0.41061 0.85798 0.31097 0.0
C295 C 0.4596 0.85235 0.29848 0.0
C296 C 0.46501 0.83873 0.30609 0.0
C297 C 0.42385 0.83056 0.30703 0.0
H298 H 0.40773 0.82654 0.30718 0.0
C299 C 0.42921 0.81743 0.31485 0.0
H300 H 0.47137 0.86582 0.29216 0.0
C301 C 0.44956 0.82149 0.3145 0.0
H302 H 0.45318 0.81105 0.32093 0.0
H303 H 0.41747 0.80394 0.32116 0.0
H304 H 0.15076 0.589 0.26221 0.0
C305 C 0.14902 0.57557 0.26852 0.0
C306 C 0.13552 0.55625 0.26163 0.0
C307 C 0.16137 0.5777 0.28283 0.0
H308 H 0.12404 0.52416 0.26401 0.0
C309 C 0.13417 0.53901 0.26949 0.0
C310 C 0.14616 0.54083 0.28403 0.0
C311 C 0.15958 0.5603 0.29066 0.0
C312 C 0.17759 0.59805 0.28874 0.0
H313 H 0.16887 0.56206 0.30192 0.0
C314 C 0.17297 0.61348 0.29248 0.0
C315 C 0.18861 0.6326 0.29841 0.0
C316 C 0.19802 0.60201 0.29065 0.0
H317 H 0.20198 0.59045 0.28768 0.0
C318 C 0.21359 0.621 0.29615 0.0
H319 H 0.15716 0.61036 0.29129 0.0
C320 C 0.20898 0.6362 0.3 0.0
H321 H 0.22146 0.65086 0.30411 0.0
H322 H 0.22932 0.62397 0.29743 0.0
H323 H 0.42401 0.55124 0.26852 0.0
C324 C 0.43765 0.56385 0.27425 0.0
C325 C 0.45721 0.56991 0.26729 0.0
C326 C 0.43563 0.57436 0.28826 0.0
H327 H 0.48985 0.59096 0.26906 0.0
C328 C 0.47484 0.58648 0.2745 0.0
C329 C 0.47318 0.59773 0.2881 0.0
C330 C 0.45346 0.59132 0.295 0.0
C331 C 0.41491 0.56834 0.29552 0.0
H332 H 0.45183 0.59978 0.30544 0.0
C333 C 0.40018 0.54779 0.29851 0.0
C334 C 0.38125 0.54254 0.30648 0.0
C335 C 0.41001 0.58339 0.30001 0.0
H336 H 0.42073 0.59925 0.29751 0.0
C337 C 0.39118 0.57817 0.30771 0.0
H338 H 0.40368 0.53597 0.29523 0.0
C339 C 0.37695 0.55791 0.31108 0.0
H340 H 0.36244 0.5542 0.31713 0.0
H341 H 0.38763 0.58989 0.31115 0.0
Tb342 Tb 0.49248 0.99533 0.99041 0.0
C343 C 0.53391 0.05941 0.0468 0.0
C344 C 0.57002 0.06916 0.04488 0.0
C345 C 0.56035 0.09364 0.05467 0.0
C346 C 0.54891 0.05469 0.04265 0.0
C347 C 0.53936 0.07873 0.05335 0.0
C348 C 0.57568 0.08887 0.05041 0.0
C349 C 0.50305 0.06636 0.05838 0.0
N350 N 0.51389 0.04449 0.04549 0.0
C351 C 0.49847 0.04743 0.0518 0.0
C352 C 0.52357 0.08219 0.05892 0.0
Tb353 Tb 0.50774 0.01415 0.03406 0.0
N354 N 0.54271 0.0354 0.03764 0.0
C355 C 0.55691 0.02912 0.03606 0.0
C356 C 0.58469 0.06314 0.04215 0.0
C357 C 0.57807 0.04292 0.03806 0.0
H358 H 0.48256 0.03534 0.0513 0.0
H359 H 0.58926 0.03797 0.03631 0.0
H360 H 0.59183 0.10029 0.05198 0.0
H361 H 0.49076 0.06875 0.06298 0.0
H362 H 0.55216 0.01362 0.03275 0.0
H363 H 0.4111 0.97218 0.98748 0.0
H364 H 0.60108 0.07379 0.04368 0.0
H365 H 0.51764 0.97337 0.97463 0.0
H366 H 0.44816 0.99627 0.99138 0.0
H367 H 0.50927 0.93972 0.9634 0.0
H368 H 0.56489 0.10868 0.05947 0.0
H369 H 0.39913 0.93641 0.97983 0.0
H370 H 0.40818 0.90976 0.97163 0.0
H371 H 0.52708 0.09682 0.06407 0.0
H372 H 0.43497 0.9009 0.96493 0.0
N373 N 0.45751 0.9744 0.98645 0.0
C374 C 0.44338 0.98079 0.98798 0.0
C375 C 0.41551 0.94695 0.98153 0.0
C376 C 0.4301 0.94079 0.97894 0.0
C377 C 0.42222 0.96713 0.98579 0.0
C378 C 0.45122 0.95509 0.98142 0.0
H379 H 0.47278 0.91212 0.96149 0.0
N380 N 0.48623 0.96478 0.97944 0.0
C381 C 0.49698 0.94241 0.96747 0.0
C382 C 0.46614 0.9501 0.97772 0.0
C383 C 0.50166 0.96147 0.97379 0.0
C384 C 0.47637 0.92685 0.96645 0.0
C385 C 0.46061 0.93068 0.97135 0.0
O386 O 0.5095 0.00497 0.96754 0.0
O387 O 0.51585 0.017 0.00743 0.0
O388 O 0.50527 0.03762 0.01988 0.0
O389 O 0.48415 0.01863 0.99694 0.0
O390 O 0.52587 0.00673 0.9878 0.0
O391 O 0.48271 0.00816 0.97129 0.0
O392 O 0.49124 0.00432 0.05719 0.0
O393 O 0.48426 0.99272 0.01701 0.0
O394 O 0.49383 0.9717 0.00498 0.0
O395 O 0.51587 0.9906 0.02744 0.0
O396 O 0.4744 0.0027 0.03696 0.0
O397 O 0.51783 1.00102 0.05266 0.0
C398 C 0.53202 0.01913 1.00053 0.0
C399 C 0.49027 0.00314 0.94296 0.0
C400 C 0.49287 0.01003 0.91222 0.0
C401 C 0.49919 0.01663 0.92921 0.0
C402 C 0.47771 0.98963 0.90928 0.0
C403 C 0.47504 0.98298 0.93967 0.0
C404 C 0.46888 0.97627 0.92292 0.0
C405 C 0.49313 0.03528 0.0066 0.0
C406 C 0.49702 0.01026 0.96062 0.0
C407 C 0.43958 0.916 0.96962 0.0
C408 C 0.42434 0.92104 0.97344 0.0
C409 C 0.46814 0.99059 0.02403 0.0
C410 C 0.51116 0.00593 0.08127 0.0
C411 C 0.50224 0.99254 0.0951 0.0
C412 C 0.50883 0.9992 0.11203 0.0
C413 C 0.52456 0.01939 0.11484 0.0
C414 C 0.52688 0.02593 0.08443 0.0
C415 C 0.53352 0.0326 0.10111 0.0
C416 C 0.50608 0.97376 0.01805 0.0
C417 C 0.50384 0.99892 0.06368 0.0
H418 H 0.51075 0.03229 0.93178 0.0
H419 H 0.47275 0.98394 0.8964 0.0
H420 H 0.46787 0.97244 0.95 0.0
H421 H 0.45719 0.96064 0.9205 0.0
H422 H 0.49001 0.9771 0.0927 0.0
H423 H 0.53014 0.0249 0.12766 0.0
H424 H 0.53408 0.03638 0.07403 0.0
H425 H 0.54568 0.04807 0.10342 0.0
Tb426 Tb 0.01955 0.49634 0.99078 0.0
C427 C 0.95186 0.47733 0.04395 0.0
C428 C 0.94215 0.50292 0.03964 0.0
C429 C 0.91691 0.46978 0.05051 0.0
C430 C 0.95683 0.49644 0.03863 0.0
C431 C 0.93202 0.4639 0.0504 0.0
C432 C 0.92196 0.48928 0.04512 0.0
C433 C 0.94429 0.44087 0.05772 0.0
N434 N 0.967 0.47243 0.04383 0.0
C435 C 0.96374 0.45477 0.05121 0.0
C436 C 0.92825 0.44532 0.05708 0.0
Tb437 Tb 0.9983 0.49594 0.0327 0.0
N438 N 0.97658 0.50919 0.03369 0.0
C439 C 0.98307 0.52923 0.0309 0.0
C440 C 0.94841 0.5231 0.03573 0.0
C441 C 0.96906 0.53639 0.03164 0.0
H442 H 0.97597 0.4511 0.05166 0.0
H443 H 0.9742 0.55215 0.02895 0.0
H444 H 0.91037 0.49387 0.04576 0.0
H445 H 0.94166 0.42673 0.06318 0.0
H446 H 0.99891 0.53975 0.02761 0.0
H447 H 0.0428 0.43946 0.99437 0.0
H448 H 0.9376 0.52867 0.03628 0.0
H449 H 0.04281 0.54188 0.97308 0.0
H450 H 0.01835 0.45214 0.99565 0.0
H451 H 0.07747 0.56629 0.96215 0.0
H452 H 0.90148 0.4596 0.05523 0.0
H453 H 0.07953 0.46275 0.9873 0.0
H454 H 0.10709 0.49754 0.97814 0.0
H455 H 0.91322 0.43458 0.06218 0.0
H456 H 0.11653 0.5321 0.96914 0.0
N457 N 0.04095 0.48272 0.98981 0.0
C458 C 0.03425 0.46261 0.99249 0.0
C459 C 0.06883 0.46846 0.98783 0.0
C460 C 0.07532 0.48871 0.98403 0.0
C461 C 0.04811 0.45527 0.99178 0.0
C462 C 0.06077 0.49537 0.98499 0.0
H463 H 0.10544 0.55776 0.96278 0.0
N464 N 0.05115 0.51988 0.98018 0.0
C465 C 0.07449 0.55184 0.96718 0.0
C466 C 0.06604 0.51464 0.97989 0.0
C467 C 0.05485 0.53794 0.97334 0.0
C468 C 0.09026 0.54699 0.9676 0.0
C469 C 0.08606 0.52807 0.97378 0.0
O470 O 0.01202 0.50171 0.96605 0.0
O471 O 0.99663 0.49898 0.00546 0.0
O472 O 0.97484 0.46921 0.01881 0.0
O473 O 0.99541 0.46547 0.99825 0.0
O474 O 0.00793 0.51716 0.98472 0.0
O475 O 0.00645 0.47207 0.9733 0.0
O476 O 0.00705 0.49139 0.05723 0.0
O477 O 0.02104 0.4931 0.01796 0.0
O478 O 0.04306 0.52226 0.00519 0.0
O479 O 0.02247 0.52689 0.02505 0.0
O480 O 0.0099 0.47514 0.03884 0.0
O481 O 0.01125 0.5205 0.04996 0.0
C482 C 0.99483 0.51201 0.99694 0.0
C483 C 0.01477 0.48154 0.94438 0.0
C484 C 0.01202 0.47878 0.91324 0.0
C485 C 1.00474 0.48141 0.9291 0.0
C486 C 0.0297 0.47669 0.91285 0.0
C487 C 0.03238 0.47938 0.94369 0.0
C488 C 0.03985 0.4771 0.928 0.0
C489 C 0.97787 0.45848 0.00692 0.0
C490 C 0.0063 0.48337 0.96085 0.0
C491 C 0.10098 0.52195 0.97362 0.0
C492 C 0.09562 0.50228 0.97875 0.0
C493 C 0.02285 0.48007 0.02652 0.0
C494 C 1.00495 0.51166 0.07911 0.0
C495 C 0.01795 0.51659 0.09349 0.0
C496 C 0.01114 0.51878 0.10973 0.0
C497 C 0.99103 0.51582 0.11135 0.0
C498 C 0.985 0.50885 0.081 0.0
C499 C 0.97809 0.51088 0.09705 0.0
C500 C 0.04021 0.53337 0.01678 0.0
C501 C 0.0126 0.50973 0.06229 0.0
H502 H 0.99097 0.48279 0.92959 0.0
H503 H 0.03569 0.47479 0.9008 0.0
H504 H 0.04024 0.4792 0.95523 0.0
H505 H 0.05344 0.47544 0.92759 0.0
H506 H 0.03347 0.51904 0.09195 0.0
H507 H 0.98522 0.5171 0.12369 0.0
H508 H 0.97482 0.50518 0.07013 0.0
H509 H 0.96264 0.50861 0.09842 0.0
Tb510 Tb 0.52753 0.51305 0.03501 0.0
C511 C 0.48004 0.53101 0.98033 0.0
C512 C 0.44444 0.50469 0.98391 0.0
C513 C 0.4523 0.53776 0.97326 0.0
C514 C 0.46581 0.51168 0.98534 0.0
C515 C 0.47352 0.54416 0.97378 0.0
C516 C 0.43777 0.51804 0.97834 0.0
C517 C 0.50922 0.568 0.96719 0.0
N518 N 0.50031 0.53644 0.98086 0.0
C519 C 0.51488 0.55437 0.97378 0.0
C520 C 0.48848 0.56301 0.96742 0.0
Tb521 Tb 0.50825 0.51339 0.99226 0.0
N522 N 0.47296 0.49924 0.99037 0.0
C523 C 0.45941 0.47904 0.99282 0.0
C524 C 0.4305 0.48433 0.9875 0.0
C525 C 0.43804 0.47137 0.99166 0.0
H526 H 0.53097 0.55844 0.97368 0.0
H527 H 0.4274 0.45548 0.99408 0.0
H528 H 0.42142 0.51305 0.97739 0.0
H529 H 0.52086 0.58237 0.96198 0.0
H530 H 0.46488 0.46878 0.99617 0.0
H531 H 0.60841 0.57115 0.0336 0.0
H532 H 0.41395 0.47836 0.98663 0.0
H533 H 0.5045 0.46733 0.05239 0.0
H534 H 0.57103 0.55778 0.03103 0.0
H535 H 0.51453 0.44342 0.06423 0.0
H536 H 0.44696 0.54771 0.96847 0.0
H537 H 0.62182 0.5485 0.04196 0.0
H538 H 0.61432 0.514 0.05173 0.0
H539 H 0.48412 0.57356 0.96225 0.0
H540 H 0.58872 0.47921 0.0603 0.0
N541 N 0.56282 0.5274 0.03739 0.0
C542 C 0.57641 0.54757 0.03475 0.0
C543 C 0.60528 0.54247 0.04086 0.0
C544 C 0.59131 0.52217 0.0446 0.0
C545 C 0.59776 0.5553 0.03618 0.0
C546 C 0.56995 0.5151 0.04287 0.0
H547 H 0.55144 0.45286 0.0653 0.0
N548 N 0.53539 0.48999 0.0465 0.0
C549 C 0.52628 0.45806 0.05955 0.0
C550 C 0.55569 0.49569 0.04769 0.0
C551 C 0.52066 0.47168 0.05288 0.0
C552 C 0.54712 0.46342 0.06011 0.0
C553 C 0.56217 0.48255 0.05434 0.0
O554 O 0.5133 0.50727 0.05921 0.0
O555 O 0.5023 0.5099 0.01931 0.0
O556 O 0.51081 0.53967 0.00601 0.0
O557 O 0.53476 0.54376 0.02722 0.0
O558 O 0.49464 0.49138 0.03985 0.0
O559 O 0.53748 0.53727 0.05239 0.0
O560 O 0.52252 0.51883 0.96811 0.0
O561 O 0.53349 0.51663 0.00797 0.0
O562 O 0.52605 0.48762 0.02091 0.0
O563 O 0.50163 0.48264 0.99987 0.0
O564 O 0.54113 0.53485 0.98721 0.0
O565 O 0.49748 0.48923 0.97465 0.0
C566 C 0.48702 0.49644 0.02733 0.0
C567 C 0.53467 0.52833 0.08157 0.0
C568 C 0.53304 0.53271 0.11237 0.0
C569 C 0.52385 0.52896 0.09603 0.0
C570 C 0.55303 0.53545 0.11414 0.0
C571 C 0.55457 0.53094 0.08361 0.0
C572 C 0.56363 0.53439 0.09984 0.0
C573 C 0.52433 0.5505 0.01817 0.0
C574 C 0.52531 0.52581 0.06449 0.0
C575 C 0.58341 0.48914 0.05538 0.0
C576 C 0.59797 0.50893 0.05049 0.0
C577 C 0.54877 0.52997 0.99986 0.0
C578 C 0.5007 0.4987 0.9456 0.0
C579 C 0.50944 0.49476 0.93122 0.0
C580 C 0.50055 0.4926 0.91485 0.0
C581 C 0.48293 0.4947 0.91311 0.0
C582 C 0.48308 0.50063 0.94354 0.0
C583 C 0.47431 0.49871 0.92737 0.0
C584 C 0.51272 0.47649 0.00877 0.0
C585 C 0.50997 0.5005 0.96264 0.0
H586 H 0.50855 0.52714 0.0945 0.0
H587 H 0.56039 0.53832 0.1266 0.0
H588 H 0.56323 0.53061 0.0727 0.0
H589 H 0.57901 0.53648 0.1013 0.0
H590 H 0.52291 0.49302 0.93285 0.0
H591 H 0.47591 0.49346 0.90068 0.0
H592 H 0.47602 0.5035 0.95438 0.0
H593 H 0.46075 0.50029 0.9259 0.0
Tb594 Tb 0.15685 0.32723 0.32399 0.0
C595 C 0.20198 0.39287 0.37817 0.0
C596 C 0.23776 0.40149 0.37605 0.0
C597 C 0.22928 0.42723 0.38461 0.0
C598 C 0.21648 0.38735 0.37433 0.0
C599 C 0.20812 0.41271 0.38377 0.0
C600 C 0.2441 0.42162 0.38076 0.0
C601 C 0.1721 0.40174 0.38882 0.0
N602 N 0.18177 0.37831 0.37737 0.0
C603 C 0.16683 0.38222 0.3833 0.0
C604 C 0.19282 0.41714 0.38883 0.0
Tb605 Tb 0.17449 0.34712 0.36712 0.0
N606 N 0.20965 0.36774 0.36995 0.0
C607 C 0.22341 0.3609 0.36842 0.0
C608 C 0.25195 0.39481 0.37353 0.0
C609 C 0.2447 0.37434 0.37001 0.0
H610 H 0.15077 0.37044 0.38319 0.0
H611 H 0.25552 0.36891 0.36836 0.0
H612 H 0.26039 0.43279 0.38191 0.0
H613 H 0.16019 0.4049 0.39304 0.0
H614 H 0.21819 0.34521 0.36551 0.0
H615 H 0.07531 0.30359 0.32385 0.0
H616 H 0.26844 0.40519 0.37468 0.0
H617 H 0.18139 0.30512 0.30716 0.0
H618 H 0.11249 0.32787 0.32653 0.0
H619 H 0.17267 0.27132 0.29614 0.0
H620 H 0.23435 0.44264 0.38869 0.0
H621 H 0.06315 0.2677 0.31651 0.0
H622 H 0.07199 0.24101 0.30792 0.0
H623 H 0.19687 0.43222 0.39319 0.0
H624 H 0.09856 0.2322 0.30022 0.0
N625 N 0.12174 0.30604 0.3212 0.0
C626 C 0.10762 0.31236 0.32324 0.0
C627 C 0.07958 0.27833 0.31767 0.0
C628 C 0.09411 0.27221 0.31455 0.0
C629 C 0.08639 0.29858 0.32175 0.0
C630 C 0.1153 0.28665 0.31633 0.0
H631 H 0.1362 0.24355 0.29545 0.0
N632 N 0.15022 0.29649 0.31309 0.0
C633 C 0.16054 0.274 0.30066 0.0
C634 C 0.13011 0.28169 0.31206 0.0
C635 C 0.16542 0.29317 0.30688 0.0
C636 C 0.13995 0.25835 0.30033 0.0
C637 C 0.12437 0.26217 0.30582 0.0
O638 O 0.17294 0.33697 0.3007 0.0
O639 O 0.18122 0.34894 0.34027 0.0
O640 O 0.1724 0.37034 0.35236 0.0
O641 O 0.14872 0.35056 0.3311 0.0
O642 O 0.19005 0.33839 0.32004 0.0
O643 O 0.14587 0.33945 0.30525 0.0
O644 O 0.15925 0.33915 0.39087 0.0
O645 O 0.15009 0.32541 0.35089 0.0
O646 O 0.1589 0.30386 0.33842 0.0
O647 O 0.1818 0.32304 0.36039 0.0
O648 O 0.14134 0.33597 0.37117 0.0
O649 O 0.18452 0.3339 0.38569 0.0
C650 C 0.19695 0.35075 0.33278 0.0
C651 C 0.15246 0.33396 0.27671 0.0
C652 C 0.15477 0.33936 0.2457 0.0
C653 C 0.16123 0.34678 0.26251 0.0
C654 C 0.13956 0.3188 0.24346 0.0
C655 C 0.13706 0.31372 0.27406 0.0
C656 C 0.13073 0.30619 0.25754 0.0
C657 C 0.1589 0.36761 0.34013 0.0
C658 C 0.15984 0.34168 0.29414 0.0
C659 C 0.10331 0.24737 0.3048 0.0
C660 C 0.08819 0.25239 0.30919 0.0
C661 C 0.13438 0.3235 0.3585 0.0
C662 C 0.17989 0.34059 0.41437 0.0
C663 C 0.17267 0.32734 0.42843 0.0
C664 C 0.18067 0.33435 0.44502 0.0
C665 C 0.19585 0.35489 0.44723 0.0
C666 C 0.19512 0.36091 0.41695 0.0
C667 C 0.203 0.368 0.43329 0.0
C668 C 0.17159 0.30607 0.35119 0.0
C669 C 0.17144 0.33308 0.39712 0.0
H670 H 0.17288 0.36251 0.26463 0.0
H671 H 0.13457 0.31232 0.2308 0.0
H672 H 0.12997 0.30371 0.28472 0.0
H673 H 0.11899 0.29047 0.25563 0.0
H674 H 0.16106 0.31157 0.42639 0.0
H675 H 0.20205 0.36094 0.45981 0.0
H676 H 0.20092 0.3713 0.40638 0.0
H677 H 0.21467 0.38376 0.43517 0.0
Tb678 Tb 0.68522 0.83057 0.32507 0.0
C679 C 0.61635 0.80987 0.37708 0.0
C680 C 0.60602 0.83494 0.37231 0.0
C681 C 0.58098 0.80152 0.38284 0.0
C682 C 0.62107 0.8289 0.37172 0.0
C683 C 0.59643 0.7961 0.38317 0.0
C684 C 0.58577 0.82093 0.37739 0.0
C685 C 0.60923 0.77366 0.39108 0.0
N686 N 0.6318 0.8054 0.3774 0.0
C687 C 0.62875 0.78787 0.3849 0.0
C688 C 0.5929 0.77765 0.38998 0.0
Tb689 Tb 0.66318 0.82941 0.36676 0.0
N690 N 0.64091 0.84203 0.36727 0.0
C691 C 0.64711 0.86204 0.36463 0.0
C692 C 0.61201 0.85507 0.36848 0.0
C693 C 0.63274 0.86877 0.36497 0.0
H694 H 0.64122 0.78457 0.3857 0.0
H695 H 0.63765 0.88451 0.3624 0.0
H696 H 0.57391 0.82519 0.37772 0.0
H697 H 0.60678 0.75962 0.39663 0.0
H698 H 0.66301 0.87285 0.36176 0.0
H699 H 0.70965 0.77457 0.32894 0.0
H700 H 0.60092 0.86032 0.36874 0.0
H701 H 0.70792 0.87606 0.3073 0.0
H702 H 0.68478 0.78674 0.33011 0.0
H703 H 0.74243 0.90077 0.29631 0.0
H704 H 0.56549 0.79108 0.38727 0.0
H705 H 0.74626 0.79822 0.3218 0.0
H706 H 0.77344 0.83311 0.31251 0.0
H707 H 0.57782 0.76665 0.39482 0.0
H708 H 0.78237 0.86751 0.30341 0.0
N709 N 0.70702 0.81741 0.32417 0.0
C710 C 0.70062 0.79737 0.32692 0.0
C711 C 0.73538 0.80371 0.32229 0.0
C712 C 0.74157 0.82388 0.3184 0.0
C713 C 0.71472 0.79032 0.32628 0.0
C714 C 0.72679 0.83025 0.31933 0.0
H715 H 0.77077 0.89276 0.29698 0.0
N716 N 0.71669 0.85439 0.31448 0.0
C717 C 0.73968 0.88641 0.30138 0.0
C718 C 0.73179 0.84944 0.3142 0.0
C719 C 0.72011 0.87234 0.30758 0.0
C720 C 0.75565 0.88186 0.30182 0.0
C721 C 0.75173 0.86305 0.30806 0.0
O722 O 0.67762 0.83584 0.30032 0.0
O723 O 0.66185 0.83267 0.33954 0.0
O724 O 0.64023 0.80266 0.35261 0.0
O725 O 0.66139 0.79947 0.33232 0.0
O726 O 0.67333 0.85118 0.31903 0.0
O727 O 0.67239 0.80631 0.30758 0.0
O728 O 0.67178 0.82483 0.39133 0.0
O729 O 0.68654 0.82729 0.35227 0.0
O730 O 0.70827 0.85674 0.33955 0.0
O731 O 0.68717 0.86057 0.35946 0.0
O732 O 0.67517 0.80894 0.37293 0.0
O733 O 0.67495 0.85362 0.38437 0.0
C734 C 0.66 0.84574 0.33109 0.0
C735 C 0.68037 0.81567 0.27863 0.0
C736 C 0.67679 0.81203 0.2476 0.0
C737 C 0.6699 0.81504 0.26348 0.0
C738 C 0.69454 0.81008 0.24699 0.0
C739 C 0.69813 0.81378 0.27777 0.0
C740 C 0.70522 0.81111 0.26201 0.0
C741 C 0.64366 0.79217 0.34076 0.0
C742 C 0.67203 0.81752 0.29515 0.0
C743 C 0.76687 0.85721 0.30791 0.0
C744 C 0.7618 0.83763 0.3131 0.0
C745 C 0.68843 0.8143 0.36081 0.0
C746 C 0.66802 0.84395 0.41334 0.0
C747 C 0.68047 0.8486 0.42805 0.0
C748 C 0.67279 0.84976 0.44421 0.0
C749 C 0.65236 0.84605 0.44539 0.0
C750 C 0.64777 0.84044 0.41481 0.0
C751 C 0.63999 0.84144 0.43076 0.0
C752 C 0.70497 0.86754 0.35116 0.0
C753 C 0.67646 0.84287 0.39664 0.0
H754 H 0.65602 0.81623 0.2641 0.0
H755 H 0.70013 0.80777 0.23489 0.0
H756 H 0.70636 0.81405 0.28923 0.0
H757 H 0.71888 0.80959 0.26145 0.0
H758 H 0.69622 0.8516 0.42683 0.0
H759 H 0.64586 0.84649 0.45764 0.0
H760 H 0.638 0.83702 0.40368 0.0
H761 H 0.6243 0.83862 0.4318 0.0
Tb762 Tb 0.19376 0.84854 0.36696 0.0
C763 C 0.14634 0.86583 0.31167 0.0
C764 C 0.11073 0.83959 0.31531 0.0
C765 C 0.11865 0.87252 0.30425 0.0
C766 C 0.13209 0.84657 0.31683 0.0
C767 C 0.13986 0.8789 0.30488 0.0
C768 C 0.10408 0.85287 0.30948 0.0
C769 C 0.17559 0.90265 0.2983 0.0
N770 N 0.16661 0.87126 0.31232 0.0
C771 C 0.18122 0.88909 0.30514 0.0
C772 C 0.15485 0.89767 0.29839 0.0
Tb773 Tb 0.17448 0.84833 0.32409 0.0
N774 N 0.1392 0.83419 0.32211 0.0
C775 C 0.12561 0.81403 0.32475 0.0
C776 C 0.09675 0.8193 0.31909 0.0
C777 C 0.10425 0.80638 0.32352 0.0
H778 H 0.1973 0.89315 0.30513 0.0
H779 H 0.09359 0.79053 0.3261 0.0
H780 H 0.08774 0.84789 0.30846 0.0
H781 H 0.18726 0.91694 0.29301 0.0
H782 H 0.13105 0.80381 0.3283 0.0
H783 H 0.2746 0.90673 0.36542 0.0
H784 H 0.08021 0.81333 0.31816 0.0
H785 H 0.17081 0.80311 0.38487 0.0
H786 H 0.23721 0.89326 0.36276 0.0
H787 H 0.1809 0.77942 0.3971 0.0
H788 H 0.11333 0.88241 0.29926 0.0
H789 H 0.28806 0.88423 0.37408 0.0
H790 H 0.28063 0.84986 0.38417 0.0
H791 H 0.15053 0.90816 0.29304 0.0
H792 H 0.25507 0.81518 0.39302 0.0
N793 N 0.22906 0.86296 0.36938 0.0
C794 C 0.24261 0.88311 0.36661 0.0
C795 C 0.27152 0.87816 0.37294 0.0
C796 C 0.25758 0.85789 0.37682 0.0
C797 C 0.26397 0.8909 0.3681 0.0
C798 C 0.23622 0.85075 0.37503 0.0
H799 H 0.21781 0.78888 0.39821 0.0
N800 N 0.20167 0.82568 0.37879 0.0
C801 C 0.19262 0.79397 0.39227 0.0
C802 C 0.22198 0.83141 0.38001 0.0
C803 C 0.18697 0.80748 0.38537 0.0
C804 C 0.21346 0.79935 0.39284 0.0
C805 C 0.22849 0.81839 0.38688 0.0
O806 O 0.17955 0.84303 0.39116 0.0
O807 O 0.16852 0.84519 0.35116 0.0
O808 O 0.17698 0.87474 0.33753 0.0
O809 O 0.20093 0.87914 0.35885 0.0
O810 O 0.16088 0.82693 0.37189 0.0
O811 O 0.20365 0.87297 0.38412 0.0
O812 O 0.1889 0.85346 0.30002 0.0
O813 O 0.19971 0.85173 0.33992 0.0
O814 O 0.19215 0.82284 0.35319 0.0
O815 O 0.16776 0.81768 0.33205 0.0
O816 O 0.20738 0.86972 0.319 0.0
O817 O 0.16366 0.824 0.30665 0.0
C818 C 0.15326 0.83182 0.35926 0.0
C819 C 0.201 0.86436 0.41338 0.0
C820 C 0.19938 0.86879 0.44418 0.0
C821 C 0.19012 0.86487 0.42785 0.0
C822 C 0.21948 0.87181 0.44591 0.0
C823 C 0.22101 0.86726 0.4154 0.0
C824 C 0.23013 0.87088 0.4316 0.0
C825 C 0.19051 0.88575 0.34963 0.0
C826 C 0.19155 0.86164 0.3963 0.0
C827 C 0.24973 0.82501 0.38795 0.0
C828 C 0.26428 0.84474 0.3829 0.0
C829 C 0.21499 0.86497 0.33175 0.0
C830 C 0.16713 0.83329 0.27752 0.0
C831 C 0.17615 0.82957 0.2632 0.0
C832 C 0.16743 0.82745 0.24676 0.0
C833 C 0.14972 0.82938 0.24488 0.0
C834 C 0.14942 0.83502 0.27532 0.0
C835 C 0.14083 0.83315 0.25909 0.0
C836 C 0.17875 0.81157 0.34112 0.0
C837 C 0.17626 0.83511 0.29463 0.0
H838 H 0.17473 0.86282 0.42635 0.0
H839 H 0.22689 0.87481 0.45836 0.0
H840 H 0.22971 0.86704 0.40448 0.0
H841 H 0.2456 0.87319 0.43305 0.0
H842 H 0.18969 0.82798 0.26493 0.0
H843 H 0.14283 0.82816 0.2324 0.0
H844 H 0.14214 0.8377 0.28611 0.0
H845 H 0.12719 0.83459 0.2575 0.0
Tb846 Tb 0.82486 0.66183 0.6566 0.0
C847 C 0.86841 0.72583 0.7128 0.0
C848 C 0.90423 0.7346 0.71067 0.0
C849 C 0.8956 0.75978 0.72059 0.0
C850 C 0.88298 0.72056 0.70854 0.0
C851 C 0.87445 0.74529 0.71937 0.0
C852 C 0.91049 0.75444 0.71621 0.0
C853 C 0.83839 0.73384 0.72469 0.0
N854 N 0.84823 0.71129 0.71162 0.0
C855 C 0.83322 0.71475 0.71808 0.0
C856 C 0.85908 0.74929 0.7251 0.0
Tb857 Tb 0.84108 0.68066 0.70014 0.0
N858 N 0.8762 0.70117 0.70351 0.0
C859 C 0.88996 0.69435 0.70178 0.0
C860 C 0.91844 0.72803 0.7078 0.0
C861 C 0.91124 0.70771 0.70367 0.0
H862 H 0.81717 0.70298 0.71768 0.0
H863 H 0.92207 0.70233 0.70181 0.0
H864 H 0.92675 0.76554 0.71769 0.0
H865 H 0.82641 0.73665 0.7294 0.0
H866 H 0.88477 0.67877 0.69844 0.0
H867 H 0.74389 0.64025 0.65399 0.0
H868 H 0.93492 0.73833 0.70924 0.0
H869 H 0.84916 0.63902 0.64072 0.0
H870 H 0.78111 0.66378 0.65777 0.0
H871 H 0.84003 0.60517 0.6295 0.0
H872 H 0.90059 0.77491 0.7254 0.0
H873 H 0.73118 0.60433 0.64636 0.0
H874 H 0.73946 0.57716 0.63811 0.0
H875 H 0.86306 0.76404 0.73026 0.0
H876 H 0.7657 0.56761 0.63126 0.0
N877 N 0.7898 0.64146 0.65277 0.0
C878 C 0.77599 0.64824 0.65437 0.0
C879 C 0.74763 0.61463 0.64799 0.0
C880 C 0.76189 0.60807 0.64533 0.0
C881 C 0.75475 0.63489 0.65225 0.0
C882 C 0.78311 0.62208 0.64772 0.0
H883 H 0.80331 0.57809 0.62768 0.0
N884 N 0.81794 0.63108 0.64561 0.0
C885 C 0.82797 0.60818 0.6336 0.0
C886 C 0.79773 0.61669 0.64392 0.0
C887 C 0.83308 0.62736 0.63992 0.0
C888 C 0.80723 0.59291 0.63263 0.0
C889 C 0.79177 0.59717 0.63758 0.0
O890 O 0.84206 0.67165 0.63385 0.0
O891 O 0.84873 0.68328 0.67342 0.0
O892 O 0.83903 0.70441 0.68604 0.0
O893 O 0.81731 0.68564 0.66328 0.0
O894 O 0.85806 0.67245 0.6537 0.0
O895 O 0.81502 0.67448 0.63735 0.0
O896 O 0.82518 0.67154 0.72359 0.0
O897 O 0.81703 0.65959 0.68328 0.0
O898 O 0.82547 0.63779 0.67117 0.0
O899 O 0.84836 0.65661 0.69319 0.0
O900 O 0.80796 0.67001 0.70346 0.0
O901 O 0.85055 0.66654 0.71828 0.0
C902 C 0.86463 0.68494 0.66636 0.0
C903 C 0.82313 0.66967 0.60908 0.0
C904 C 0.82811 0.67603 0.57833 0.0
C905 C 0.8333 0.68286 0.59538 0.0
C906 C 0.81254 0.65587 0.57522 0.0
C907 C 0.80748 0.64971 0.60565 0.0
C908 C 0.80225 0.64287 0.58881 0.0
C909 C 0.82672 0.70228 0.67294 0.0
C910 C 0.82951 0.67676 0.6268 0.0
C911 C 0.77064 0.58278 0.63594 0.0
C912 C 0.75571 0.58822 0.63984 0.0
C913 C 0.80123 0.65796 0.69051 0.0
C914 C 0.84529 0.67188 0.74712 0.0
C915 C 0.83747 0.65804 0.76076 0.0
C916 C 0.84529 0.66416 0.77752 0.0
C917 C 0.86092 0.6844 0.78036 0.0
C918 C 0.86093 0.6919 0.75031 0.0
C919 C 0.86864 0.69811 0.76684 0.0
C920 C 0.83794 0.63968 0.68401 0.0
C921 C 0.83721 0.66519 0.72965 0.0
H922 H 0.84546 0.69828 0.59799 0.0
H923 H 0.80809 0.65025 0.56225 0.0
H924 H 0.79934 0.63941 0.61595 0.0
H925 H 0.79018 0.62742 0.58627 0.0
H926 H 0.82555 0.6425 0.75824 0.0
H927 H 0.86701 0.68974 0.7931 0.0
H928 H 0.86724 0.70271 0.74006 0.0
H929 H 0.88066 0.71363 0.76919 0.0
Tb930 Tb 0.35376 0.1641 0.65793 0.0
C931 C 0.28557 0.14482 0.71046 0.0
C932 C 0.27596 0.17046 0.70605 0.0
C933 C 0.25053 0.13724 0.71665 0.0
C934 C 0.29064 0.16397 0.70517 0.0
C935 C 0.26564 0.13136 0.71671 0.0
C936 C 0.25568 0.15678 0.71131 0.0
C937 C 0.27779 0.10829 0.72424 0.0
N938 N 0.30071 0.13991 0.71053 0.0
C939 C 0.29734 0.12222 0.71793 0.0
C940 C 0.26176 0.11274 0.7234 0.0
Tb941 Tb 0.33219 0.1635 0.69976 0.0
N942 N 0.31048 0.17676 0.70049 0.0
C943 C 0.31705 0.19685 0.69784 0.0
C944 C 0.28232 0.19069 0.70227 0.0
C945 C 0.30305 0.20402 0.69846 0.0
H946 H 0.30958 0.11856 0.71853 0.0
H947 H 0.30826 0.21982 0.69589 0.0
H948 H 0.24409 0.16139 0.71184 0.0
H949 H 0.27508 0.09412 0.7297 0.0
H950 H 0.33296 0.20739 0.69477 0.0
H951 H 0.37714 0.10733 0.66189 0.0
H952 H 0.27152 0.19628 0.70273 0.0
H953 H 0.37701 0.2096 0.64018 0.0
H954 H 0.35264 0.11996 0.66303 0.0
H955 H 0.41167 0.23401 0.62925 0.0
H956 H 0.23503 0.12704 0.72121 0.0
H957 H 0.41385 0.13062 0.65478 0.0
H958 H 0.44138 0.16537 0.64552 0.0
H959 H 0.24665 0.10197 0.72835 0.0
H960 H 0.45078 0.1999 0.63642 0.0
N961 N 0.37519 0.15052 0.65708 0.0
C962 C 0.36853 0.13043 0.65985 0.0
C963 C 0.40313 0.13631 0.65525 0.0
C964 C 0.40959 0.15653 0.65136 0.0
C965 C 0.38242 0.12312 0.65922 0.0
C966 C 0.39502 0.16317 0.65226 0.0
H967 H 0.43967 0.22552 0.62997 0.0
N968 N 0.38537 0.18764 0.64736 0.0
C969 C 0.4087 0.21957 0.63432 0.0
C970 C 0.40027 0.18242 0.64711 0.0
C971 C 0.38906 0.20567 0.64047 0.0
C972 C 0.42448 0.21475 0.63478 0.0
C973 C 0.42029 0.19585 0.64101 0.0
O974 O 0.34625 0.16944 0.63318 0.0
O975 O 0.33075 0.16669 0.67252 0.0
O976 O 0.30885 0.13686 0.68568 0.0
O977 O 0.32962 0.13319 0.66529 0.0
O978 O 0.34217 0.18494 0.65183 0.0
O979 O 0.34075 0.13983 0.64044 0.0
O980 O 0.34045 0.15862 0.72437 0.0
O981 O 0.35512 0.16083 0.68513 0.0
O982 O 0.37715 0.19008 0.67235 0.0
O983 O 0.35658 0.19451 0.69241 0.0
O984 O 0.34383 0.14274 0.70592 0.0
O985 O 0.34476 0.18782 0.71727 0.0
C986 C 0.32901 0.17977 0.664 0.0
C987 C 0.34908 0.14928 0.61153 0.0
C988 C 0.34622 0.14621 0.58041 0.0
C989 C 0.33891 0.14886 0.59625 0.0
C990 C 0.36408 0.14442 0.58004 0.0
C991 C 0.36686 0.14741 0.61087 0.0
C992 C 0.37436 0.14512 0.59519 0.0
C993 C 0.31198 0.12618 0.67382 0.0
C994 C 0.34058 0.1511 0.62799 0.0
C995 C 0.43523 0.18974 0.6409 0.0
C996 C 0.42989 0.1701 0.64608 0.0
C997 C 0.35692 0.14781 0.6937 0.0
C998 C 0.33749 0.1784 0.74626 0.0
C999 C 0.34966 0.18233 0.76107 0.0
C1000 C 0.34221 0.18421 0.77713 0.0
C1001 C 0.3223 0.18186 0.77813 0.0
C1002 C 0.31774 0.17622 0.74757 0.0
C1003 C 0.31018 0.17786 0.76343 0.0
C1004 C 0.3743 0.20109 0.68404 0.0
C1005 C 0.34576 0.17685 0.7296 0.0
H1006 H 0.325 0.15001 0.59672 0.0
H1007 H 0.37009 0.14251 0.56801 0.0
H1008 H 0.37482 0.14745 0.62241 0.0
H1009 H 0.38808 0.14369 0.5948 0.0
H1010 H 0.36504 0.1843 0.76003 0.0
H1011 H 0.31602 0.18293 0.79031 0.0
H1012 H 0.30821 0.17338 0.73638 0.0
H1013 H 0.29488 0.17609 0.76432 0.0
Tb1014 Tb 0.86182 0.18078 0.7018 0.0
C1015 C 0.81415 0.1985 0.6471 0.0
C1016 C 0.77861 0.172 0.65059 0.0
C1017 C 0.78628 0.20504 0.63998 0.0
C1018 C 0.8 0.17912 0.65206 0.0
C1019 C 0.80753 0.21157 0.64056 0.0
C1020 C 0.77182 0.18526 0.64501 0.0
C1021 C 0.8432 0.23564 0.6341 0.0
N1022 N 0.83445 0.20406 0.64769 0.0
C1023 C 0.84897 0.22207 0.64068 0.0
C1024 C 0.82241 0.23049 0.63427 0.0
Tb1025 Tb 0.84256 0.18111 0.65904 0.0
N1026 N 0.80725 0.16677 0.6571 0.0
C1027 C 0.79379 0.14654 0.65955 0.0
C1028 C 0.76475 0.15162 0.65416 0.0
C1029 C 0.7724 0.13875 0.65836 0.0
H1030 H 0.86509 0.22625 0.64061 0.0
H1031 H 0.76183 0.12285 0.66078 0.0
H1032 H 0.75545 0.18017 0.64402 0.0
H1033 H 0.8548 0.25006 0.62895 0.0
H1034 H 0.79934 0.13636 0.66293 0.0
H1035 H 0.94255 0.23928 0.7006 0.0
H1036 H 0.74819 0.14555 0.65325 0.0
H1037 H 0.83902 0.13504 0.71914 0.0
H1038 H 0.90514 0.2257 0.698 0.0
H1039 H 0.84925 0.11125 0.73092 0.0
H1040 H 0.78085 0.21492 0.63519 0.0
H1041 H 0.95617 0.21677 0.70884 0.0
H1042 H 0.94889 0.18229 0.71849 0.0
H1043 H 0.81798 0.24099 0.62912 0.0
H1044 H 0.92345 0.14742 0.72697 0.0
N1045 N 0.89713 0.19534 0.70424 0.0
C1046 C 0.91061 0.21554 0.70167 0.0
C1047 C 0.93962 0.21065 0.70773 0.0
C1048 C 0.92575 0.1903 0.71141 0.0
C1049 C 0.93198 0.2234 0.70313 0.0
C1050 C 0.90437 0.18311 0.70966 0.0
H1051 H 0.88622 0.12089 0.73196 0.0
N1052 N 0.86986 0.15784 0.71326 0.0
C1053 C 0.86094 0.12593 0.72626 0.0
C1054 C 0.8902 0.16366 0.71444 0.0
C1055 C 0.8552 0.13949 0.71962 0.0
C1056 C 0.88181 0.1314 0.72679 0.0
C1057 C 0.89678 0.15059 0.72105 0.0
O1058 O 0.84742 0.17484 0.72593 0.0
O1059 O 0.83656 0.17751 0.68608 0.0
O1060 O 0.84487 0.20724 0.67284 0.0
O1061 O 0.86884 0.21146 0.69408 0.0
O1062 O 0.82896 0.15895 0.70659 0.0
O1063 O 0.87161 0.2049 0.71928 0.0
O1064 O 0.85693 0.1867 0.63493 0.0
O1065 O 0.86783 0.18448 0.67478 0.0
O1066 O 0.86053 0.15545 0.68767 0.0
O1067 O 0.83611 0.15041 0.6666 0.0
O1068 O 0.87541 0.20275 0.65406 0.0
O1069 O 0.83192 0.15703 0.64137 0.0
C1070 C 0.82131 0.16399 0.69407 0.0
C1071 C 0.86854 0.19581 0.74844 0.0
C1072 C 0.86665 0.20018 0.77921 0.0
C1073 C 0.85764 0.19655 0.76281 0.0
C1074 C 0.88654 0.20271 0.78113 0.0
C1075 C 0.88832 0.19821 0.75063 0.0
C1076 C 0.89721 0.20156 0.76692 0.0
C1077 C 0.85831 0.21811 0.68504 0.0
C1078 C 0.85934 0.19336 0.73129 0.0
C1079 C 0.91805 0.15728 0.72209 0.0
C1080 C 0.93252 0.17713 0.71725 0.0
C1081 C 0.88308 0.19791 0.6667 0.0
C1082 C 0.83522 0.16665 0.61235 0.0
C1083 C 0.84398 0.16271 0.59798 0.0
C1084 C 0.83518 0.16068 0.58159 0.0
C1085 C 0.81763 0.16289 0.57981 0.0
C1086 C 0.81767 0.16867 0.61026 0.0
C1087 C 0.80899 0.16687 0.59407 0.0
C1088 C 0.84723 0.1443 0.67551 0.0
C1089 C 0.84444 0.16838 0.6294 0.0
H1090 H 0.84242 0.19488 0.76116 0.0
H1091 H 0.89377 0.20548 0.79365 0.0
H1092 H 0.89702 0.19778 0.73979 0.0
H1093 H 0.91251 0.20347 0.76851 0.0
H1094 H 0.8574 0.16089 0.59963 0.0
H1095 H 0.81069 0.16175 0.56737 0.0
H1096 H 0.81059 0.17153 0.62109 0.0
H1097 H 0.79548 0.16854 0.59257 0.0
C1098 C 0.31558 0.82737 0.0577 0.0
C1099 C 0.29822 0.82868 0.06285 0.0
C1100 C 0.33323 0.84439 0.05148 0.0
C1101 C 0.35275 0.89644 0.03439 0.0
H1102 H 0.40581 0.90393 0.04915 0.0
C1103 C 0.43017 0.97258 0.02914 0.0
C1104 C 0.44789 0.97169 0.02458 0.0
C1105 C 0.41129 0.95476 0.0317 0.0
C1106 C 0.39114 0.90194 0.04469 0.0
H1107 H 0.28581 0.849 0.06511 0.0
H1108 H 0.31688 0.87886 0.05476 0.0
H1109 H 0.37417 0.8738 0.05787 0.0
H1110 H 0.45985 0.95142 0.01971 0.0
H1111 H 0.42697 0.92039 0.02384 0.0
H1112 H 0.36993 0.92497 0.02153 0.0
C1113 C 0.31669 0.86455 0.05528 0.0
C1114 C 0.37295 0.88462 0.04969 0.0
C1115 C 0.29895 0.84746 0.06143 0.0
C1116 C 0.4464 0.95265 0.02268 0.0
C1117 C 0.42757 0.93484 0.02529 0.0
C1118 C 0.371 0.91386 0.02945 0.0
C1119 C 0.33415 0.86327 0.05037 0.0
C1120 C 0.35349 0.88163 0.04465 0.0
C1121 C 0.40986 0.93568 0.0301 0.0
C1122 C 0.3904 0.91682 0.03459 0.0
H1123 H 0.31576 0.81328 0.05881 0.0
H1124 H 0.34623 0.84272 0.04759 0.0
H1125 H 0.33807 0.89452 0.03007 0.0
H1126 H 0.43103 0.98711 0.03099 0.0
H1127 H 0.39802 0.95595 0.03561 0.0
C1128 C 0.18796 0.48581 0.0556 0.0
C1129 C 0.18602 0.46743 0.06137 0.0
C1130 C 0.17051 0.48682 0.05031 0.0
C1131 C 0.11395 0.46069 0.05628 0.0
H1132 H 0.11437 0.49224 0.01724 0.0
C1133 C 0.0398 0.46001 0.03396 0.0
C1134 C 0.04166 0.47836 0.02838 0.0
C1135 C 0.0574 0.45832 0.03682 0.0
C1136 C 0.11406 0.48354 0.0283 0.0
H1137 H 0.1642 0.43547 0.06524 0.0
H1138 H 0.13387 0.43729 0.05617 0.0
H1139 H 0.1452 0.49003 0.02412 0.0
H1140 H 0.06349 0.50975 0.02254 0.0
H1141 H 0.09424 0.50692 0.02755 0.0
H1142 H 0.08307 0.45447 0.06073 0.0
C1143 C 0.14884 0.45101 0.05601 0.0
C1144 C 0.13173 0.48224 0.03221 0.0
C1145 C 0.16626 0.44998 0.06123 0.0
C1146 C 0.06152 0.4952 0.0262 0.0
C1147 C 0.07917 0.49356 0.02912 0.0
C1148 C 0.09637 0.46207 0.05244 0.0
C1149 C 0.15068 0.46949 0.0507 0.0
C1150 C 0.13189 0.47078 0.04625 0.0
C1151 C 0.07736 0.4751 0.03455 0.0
C1152 C 0.09614 0.4735 0.03839 0.0
H1153 H 0.20286 0.49961 0.05572 0.0
H1154 H 0.17248 0.50134 0.04645 0.0
H1155 H 0.11363 0.45204 0.06737 0.0
H1156 H 0.02465 0.44689 0.03599 0.0
H1157 H 0.05533 0.4438 0.04079 0.0
C1158 C 0.54965 0.71044 0.07739 0.0
C1159 C 0.54373 0.7218 0.06703 0.0
C1160 C 0.54873 0.69278 0.07118 0.0
C1161 C 0.54213 0.66294 0.03113 0.0
H1162 H 0.52775 0.61952 0.06364 0.0
C1163 C 0.51635 0.57869 0.014 0.0
C1164 C 0.52775 0.57101 0.0223 0.0
C1165 C 0.51912 0.59773 0.01845 0.0
C1166 C 0.53186 0.63157 0.05446 0.0
H1167 H 0.53271 0.7235 0.04168 0.0
H1168 H 0.52984 0.69207 0.03125 0.0
H1169 H 0.53063 0.65126 0.07329 0.0
H1170 H 0.55104 0.5775 0.04189 0.0
H1171 H 0.55522 0.61029 0.04999 0.0
H1172 H 0.54238 0.64252 0.01219 0.0
C1173 C 0.53575 0.69711 0.04407 0.0
C1174 C 0.5337 0.64987 0.05997 0.0
C1175 C 0.53708 0.71504 0.05018 0.0
C1176 C 0.54196 0.58284 0.03518 0.0
C1177 C 0.5444 0.60164 0.03986 0.0
C1178 C 0.53986 0.64441 0.02555 0.0
C1179 C 0.54137 0.68559 0.05456 0.0
C1180 C 0.53909 0.66594 0.04845 0.0
C1181 C 0.53296 0.60922 0.03158 0.0
C1182 C 0.5349 0.62867 0.03722 0.0
H1183 H 0.55453 0.71481 0.09052 0.0
H1184 H 0.55369 0.6847 0.07956 0.0
H1185 H 0.54658 0.67497 0.02189 0.0
H1186 H 0.50495 0.56987 0.00432 0.0
H1187 H 0.50997 0.6032 0.01202 0.0
C1188 C 0.84072 0.29597 0.94971 0.0
C1189 C 0.82461 0.28368 0.96097 0.0
C1190 C 0.85777 0.31408 0.95535 0.0
C1191 C 0.88426 0.34414 0.99495 0.0
H1192 H 0.90983 0.38808 0.96228 0.0
C1193 C 0.94155 0.42954 0.01113 0.0
C1194 C 0.96071 0.43775 1.00273 0.0
C1195 C 0.9253 0.41021 0.00683 0.0
C1196 C 0.90286 0.37589 0.9715 0.0
H1197 H 0.81445 0.28095 0.98733 0.0
H1198 H 0.8433 0.31309 0.99681 0.0
H1199 H 0.88065 0.35569 0.95336 0.0
H1200 H 0.97755 0.43193 0.98295 0.0
H1201 H 0.94886 0.39861 0.97504 0.0
H1202 H 0.90611 0.3651 0.01325 0.0
C1203 C 0.84311 0.30846 0.98368 0.0
C1204 C 0.88621 0.3572 0.96639 0.0
C1205 C 0.82626 0.29006 0.97813 0.0
C1206 C 0.9631 0.42618 0.98977 0.0
C1207 C 0.94669 0.40707 0.98521 0.0
C1208 C 0.90063 0.36305 1.00014 0.0
C1209 C 0.85908 0.32086 0.97233 0.0
C1210 C 0.87674 0.34093 0.97797 0.0
C1211 C 0.92768 0.39892 0.99371 0.0
C1212 C 0.91015 0.379 0.98841 0.0
H1213 H 0.84005 0.29196 0.93633 0.0
H1214 H 0.86988 0.3228 0.94624 0.0
H1215 H 0.87773 0.33202 0.00422 0.0
H1216 H 0.93891 0.43814 0.02082 0.0
H1217 H 0.91067 0.4043 0.01342 0.0
C1218 C 0.70618 0.53645 0.94958 0.0
C1219 C 0.72197 0.53963 0.96122 0.0
C1220 C 0.68819 0.53605 0.95514 0.0
C1221 C 0.65601 0.52882 0.99338 0.0
H1222 H 0.63303 0.55441 0.96484 0.0
C1223 C 0.58619 0.55045 0.99288 0.0
C1224 C 0.56958 0.53212 0.99869 0.0
C1225 C 0.60557 0.55231 0.99001 0.0
C1226 C 0.63931 0.54738 0.9731 0.0
H1227 H 0.73098 0.54476 0.98798 0.0
H1228 H 0.69946 0.54402 0.99772 0.0
H1229 H 0.66526 0.55607 0.95668 0.0
H1230 H 0.56005 0.50106 0.00535 0.0
H1231 H 0.59382 0.50425 1.00046 0.0
H1232 H 0.63 0.52027 0.00987 0.0
C1233 C 0.70101 0.54169 0.98426 0.0
C1234 C 0.6577 0.5481 0.96828 0.0
C1235 C 0.7191 0.54212 0.97867 0.0
C1236 C 0.57269 0.51559 1.00145 0.0
C1237 C 0.59209 0.51743 0.99859 0.0
C1238 C 0.63752 0.52805 0.99819 0.0
C1239 C 0.68538 0.53878 0.97253 0.0
C1240 C 0.66622 0.53867 0.97824 0.0
C1241 C 0.60872 0.53574 0.99259 0.0
C1242 C 0.62886 0.53722 0.98804 0.0
H1243 H 0.70758 0.53398 0.93611 0.0
H1244 H 0.67632 0.53332 0.94579 0.0
H1245 H 0.66204 0.5213 1.00132 0.0
H1246 H 0.58413 0.56335 0.99045 0.0
H1247 H 0.61805 0.56672 0.98559 0.0
C1248 C 0.50052 0.18935 0.95425 0.0
C1249 C 0.48242 0.19065 0.95523 0.0
C1250 C 0.5007 0.17215 0.96021 0.0
C1251 C 0.47751 0.13099 0.99048 0.0
H1252 H 0.49469 0.10224 0.95952 0.0
C1253 C 0.49993 0.07089 0.01085 0.0
C1254 C 0.48997 0.0524 1.00178 0.0
C1255 C 0.49765 0.08728 0.00578 0.0
C1256 C 0.48981 0.11011 0.96826 0.0
H1257 H 0.45047 0.1753 0.96342 0.0
H1258 H 0.45098 0.1453 0.97438 0.0
H1259 H 0.49366 0.13221 0.9495 0.0
H1260 H 0.4698 0.03681 0.98011 0.0
H1261 H 0.46647 0.06569 0.971 0.0
H1262 H 0.47425 0.10917 0.00939 0.0
C1263 C 0.4649 0.15754 0.96882 0.0
C1264 C 0.48933 0.12726 0.96257 0.0
C1265 C 0.46458 0.17459 0.96252 0.0
C1266 C 0.47769 0.05075 0.98747 0.0
C1267 C 0.47577 0.06728 0.9822 0.0
C1268 C 0.47843 0.11407 0.99629 0.0
C1269 C 0.48291 0.15611 0.96756 0.0
C1270 C 0.48315 0.13782 0.97362 0.0
C1271 C 0.48577 0.08569 0.99128 0.0
C1272 C 0.48453 0.10346 0.9852 0.0
H1273 H 0.51441 0.2015 0.94859 0.0
H1274 H 0.51479 0.1714 0.95917 0.0
H1275 H 0.47278 0.13897 0.99923 0.0
H1276 H 0.50988 0.07292 0.02165 0.0
H1277 H 0.50572 0.10143 0.01287 0.0
C1278 C 0.67413 0.18716 0.97049 0.0
C1279 C 0.69492 0.19203 0.97232 0.0
C1280 C 0.65795 0.16786 0.97454 0.0
C1281 C 0.64135 0.11491 0.97662 0.0
H1282 H 0.60287 0.11206 0.01125 0.0
C1283 C 0.57017 0.03823 0.99573 0.0
C1284 C 0.55191 0.0384 0.99962 0.0
C1285 C 0.58888 0.05646 0.99385 0.0
C1286 C 0.61326 0.11254 1.00138 0.0
H1287 H 0.71471 0.17975 0.97925 0.0
H1288 H 0.68619 0.14561 0.98553 0.0
H1289 H 0.633 0.14468 0.00435 0.0
H1290 H 0.53862 0.05774 0.00337 0.0
H1291 H 0.57079 0.08932 0.99971 0.0
H1292 H 0.62116 0.08306 0.97285 0.0
C1293 C 0.68268 0.1571 0.98125 0.0
C1294 C 0.63061 0.13122 0.99756 0.0
C1295 C 0.69898 0.17662 0.97753 0.0
C1296 C 0.55254 0.05709 1.00106 0.0
C1297 C 0.57113 0.07528 0.99896 0.0
C1298 C 0.62374 0.09622 0.98018 0.0
C1299 C 0.66206 0.15273 0.98013 0.0
C1300 C 0.64467 0.13261 0.98502 0.0
C1301 C 0.58961 0.07527 0.99533 0.0
C1302 C 0.60926 0.09482 0.99245 0.0
H1303 H 0.67025 0.19831 0.96601 0.0
H1304 H 0.64215 0.16473 0.97329 0.0
H1305 H 0.65195 0.11565 0.96682 0.0
H1306 H 0.56998 0.02397 0.99431 0.0
H1307 H 0.60275 0.05575 0.99126 0.0
C1308 C 0.83651 0.51889 0.96426 0.0
C1309 C 0.82453 0.51699 0.97869 0.0
C1310 C 0.85603 0.52056 0.96615 0.0
C1311 C 0.88567 0.50838 0.99781 0.0
H1312 H 0.93101 0.53743 0.96631 0.0
C1313 C 0.95616 0.49633 0.99741 0.0
C1314 C 0.97581 0.51337 0.99499 0.0
C1315 C 0.93828 0.49771 0.99519 0.0
C1316 C 0.9186 0.52938 0.97534 0.0
H1317 H 0.824 0.51666 0.00637 0.0
H1318 H 0.85823 0.52041 0.00975 0.0
H1319 H 0.8997 0.53975 0.96333 0.0
H1320 H 0.99217 0.54482 0.98725 0.0
H1321 H 0.961 0.54748 0.98372 0.0
H1322 H 0.90469 0.49843 0.0101 0.0
C1323 C 0.85243 0.5199 0.99693 0.0
C1324 C 0.90049 0.53052 0.9735 0.0
C1325 C 0.8329 0.51799 0.99503 0.0
C1326 C 0.97719 0.53157 0.98951 0.0
C1327 C 0.95931 0.53301 0.98737 0.0
C1328 C 0.90378 0.50734 0.9997 0.0
C1329 C 0.86403 0.52052 0.98253 0.0
C1330 C 0.88371 0.51997 0.98468 0.0
C1331 C 0.93958 0.51614 0.99032 0.0
C1332 C 0.92046 0.51769 0.98843 0.0
H1333 H 0.83031 0.51794 0.95152 0.0
H1334 H 0.86437 0.52087 0.95474 0.0
H1335 H 0.87305 0.49973 0.00653 0.0
H1336 H 0.95455 0.48189 1.00096 0.0
H1337 H 0.9234 0.48424 0.99716 0.0
C1338 C 0.53296 0.32994 0.97969 0.0
C1339 C 0.52201 0.3171 0.96588 0.0
C1340 C 0.53015 0.34618 0.98409 0.0
C1341 C 0.49525 0.3671 0.98015 0.0
H1342 H 0.54559 0.41815 0.98875 0.0
C1343 C 0.49711 0.44386 0.99182 0.0
C1344 C 0.51122 0.45684 0.00428 0.0
C1345 C 0.497 0.42607 0.98684 0.0
C1346 C 0.53135 0.40398 0.9866 0.0
H1347 H 0.49895 0.31089 0.94624 0.0
H1348 H 0.4939 0.33933 0.95409 0.0
H1349 H 0.54775 0.38836 0.9808 0.0
H1350 H 0.5361 0.46103 0.02136 0.0
H1351 H 0.5354 0.43002 0.0132 0.0
H1352 H 0.47886 0.38283 0.98617 0.0
C1353 C 0.50467 0.33672 0.96147 0.0
C1354 C 0.5326 0.3869 0.98201 0.0
C1355 C 0.50755 0.32044 0.957 0.0
C1356 C 0.52485 0.45139 0.01187 0.0
C1357 C 0.52466 0.43366 0.007 0.0
C1358 C 0.49398 0.38425 0.98485 0.0
C1359 C 0.51626 0.34999 0.97487 0.0
C1360 C 0.51459 0.3682 0.97896 0.0
C1361 C 0.51101 0.42095 0.99421 0.0
C1362 C 0.51204 0.40283 0.98837 0.0
H1363 H 0.54383 0.32751 0.98708 0.0
H1364 H 0.53896 0.35586 0.99472 0.0
H1365 H 0.4811 0.35287 0.97792 0.0
H1366 H 0.48641 0.44759 0.98567 0.0
H1367 H 0.48636 0.41667 0.97689 0.0
C1368 C 0.18987 0.69755 0.06225 0.0
C1369 C 0.20707 0.70172 0.05207 0.0
C1370 C 0.17049 0.6804 0.05893 0.0
C1371 C 0.14899 0.62961 0.04079 0.0
H1372 H 0.09672 0.62869 0.0367 0.0
C1373 C 0.0776 0.55965 0.01407 0.0
C1374 C 0.05807 0.55362 0.0211 0.0
C1375 C 0.09475 0.57824 0.01845 0.0
C1376 C 0.11114 0.62863 0.03806 0.0
H1377 H 0.21691 0.692 0.0296 0.0
H1378 H 0.18343 0.66207 0.0241 0.0
H1379 H 0.12842 0.66069 0.04334 0.0
H1380 H 0.04137 0.56263 0.03841 0.0
H1381 H 0.0716 0.59502 0.04647 0.0
H1382 H 0.13207 0.59776 0.03585 0.0
C1383 C 0.18498 0.67183 0.03481 0.0
C1384 C 0.12926 0.64696 0.04181 0.0
C1385 C 0.20417 0.68896 0.03801 0.0
C1386 C 0.05616 0.5668 0.03268 0.0
C1387 C 0.07347 0.58544 0.03722 0.0
C1388 C 0.13096 0.61135 0.03725 0.0
C1389 C 0.16805 0.66708 0.04545 0.0
C1390 C 0.14842 0.64766 0.04284 0.0
C1391 C 0.09305 0.59129 0.03028 0.0
C1392 C 0.11184 0.61065 0.03543 0.0
H1393 H 0.19157 0.70705 0.0732 0.0
H1394 H 0.15766 0.67707 0.06732 0.0
H1395 H 0.16349 0.62962 0.04187 0.0
H1396 H 0.07985 0.54987 0.00533 0.0
H1397 H 0.10943 0.58235 0.01253 0.0
C1398 C 0.32228 0.48879 0.06179 0.0
C1399 C 0.31214 0.4916 0.0478 0.0
C1400 C 0.33992 0.48698 0.05926 0.0
C1401 C 0.38132 0.49999 0.02689 0.0
H1402 H 0.39722 0.46973 0.05705 0.0
C1403 C 0.46405 0.51181 0.02645 0.0
C1404 C 0.46647 0.49483 0.0288 0.0
C1405 C 0.44469 0.51028 0.02855 0.0
C1406 C 0.39296 0.4781 0.04836 0.0
H1407 H 0.31165 0.49357 0.02022 0.0
H1408 H 0.34166 0.48944 0.01567 0.0
H1409 H 0.36374 0.46752 0.06065 0.0
H1410 H 0.4509 0.46324 0.03612 0.0
H1411 H 0.4169 0.4603 0.0394 0.0
H1412 H 0.41021 0.51008 0.01425 0.0
C1413 C 0.33663 0.48935 0.02866 0.0
C1414 C 0.37379 0.47704 0.05058 0.0
C1415 C 0.31924 0.49144 0.03122 0.0
C1416 C 0.44933 0.47647 0.03394 0.0
C1417 C 0.4299 0.47486 0.03594 0.0
C1418 C 0.40036 0.5009 0.02457 0.0
C1419 C 0.34767 0.48776 0.04266 0.0
C1420 C 0.36772 0.48808 0.03995 0.0
C1421 C 0.42727 0.49174 0.03322 0.0
C1422 C 0.40658 0.49014 0.03537 0.0
H1423 H 0.31726 0.48914 0.07471 0.0
H1424 H 0.34801 0.48596 0.0704 0.0
H1425 H 0.37749 0.50901 0.01857 0.0
H1426 H 0.47712 0.52636 0.02315 0.0
H1427 H 0.44348 0.52376 0.02676 0.0
C1428 C 0.4885 0.80877 0.04639 0.0
C1429 C 0.4997 0.80667 0.05995 0.0
C1430 C 0.49082 0.82767 0.04248 0.0
C1431 C 0.52497 0.88282 0.04737 0.0
H1432 H 0.47421 0.88369 0.03861 0.0
C1433 C 0.52152 0.95697 0.03584 0.0
C1434 C 0.50779 0.95583 0.02292 0.0
C1435 C 0.52188 0.9395 0.041 0.0
C1436 C 0.48856 0.88371 0.04085 0.0
H1437 H 0.52265 0.82299 0.07971 0.0
H1438 H 0.52682 0.8562 0.07274 0.0
H1439 H 0.47256 0.85197 0.04626 0.0
H1440 H 0.48376 0.93532 0.00531 0.0
H1441 H 0.48485 0.90538 0.01386 0.0
H1442 H 0.54094 0.91466 0.04173 0.0
C1443 C 0.51624 0.84311 0.06516 0.0
C1444 C 0.4876 0.86552 0.04525 0.0
C1445 C 0.51386 0.82411 0.06913 0.0
C1446 C 0.49473 0.93694 0.01513 0.0
C1447 C 0.49514 0.91962 0.02022 0.0
C1448 C 0.52593 0.90111 0.04289 0.0
C1449 C 0.50446 0.84501 0.05197 0.0
C1450 C 0.50578 0.86477 0.04829 0.0
C1451 C 0.50846 0.92058 0.03339 0.0
C1452 C 0.50773 0.90166 0.03929 0.0
H1453 H 0.47785 0.79575 0.03877 0.0
H1454 H 0.48187 0.82871 0.03198 0.0
H1455 H 0.53924 0.88269 0.04959 0.0
H1456 H 0.53176 0.97126 0.04215 0.0
H1457 H 0.53226 0.94072 0.05125 0.0
C1458 C 0.96516 0.18009 0.39614 0.0
C1459 C 0.96439 0.16126 0.39728 0.0
C1460 C 0.98294 0.19726 0.39016 0.0
C1461 C 0.03918 0.21737 0.38468 0.0
H1462 H 0.03636 0.25828 0.35717 0.0
C1463 C 0.11259 0.28557 0.35777 0.0
C1464 C 0.11417 0.30465 0.35969 0.0
C1465 C 0.0938 0.26781 0.36059 0.0
C1466 C 0.03737 0.24702 0.36492 0.0
H1467 H 0.98183 0.14584 0.39286 0.0
H1468 H 0.0124 0.17548 0.38194 0.0
H1469 H 1.00444 0.22767 0.36531 0.0
H1470 H 0.09757 0.32019 0.36654 0.0
H1471 H 0.06458 0.28908 0.37155 0.0
H1472 H 0.07204 0.23669 0.38435 0.0
C1473 C 0.99941 0.1771 0.38593 0.0
C1474 C 0.01909 0.2295 0.36963 0.0
C1475 C 0.98171 0.15999 0.39198 0.0
C1476 C 0.09662 0.30563 0.36466 0.0
C1477 C 0.07776 0.28785 0.36743 0.0
C1478 C 0.0574 0.2348 0.37992 0.0
C1479 C 1.00038 0.19603 0.38513 0.0
C1480 C 0.01976 0.21448 0.37964 0.0
C1481 C 0.07622 0.26873 0.36565 0.0
C1482 C 0.05673 0.24988 0.37005 0.0
H1483 H 0.95204 0.1816 0.39992 0.0
H1484 H 0.98317 0.2116 0.38987 0.0
H1485 H 0.04034 0.20638 0.39268 0.0
H1486 H 0.12593 0.28427 0.35452 0.0
H1487 H 0.09311 0.25333 0.35901 0.0
C1488 C 0.84137 0.80915 0.4102 0.0
C1489 C 0.85324 0.80562 0.39817 0.0
C1490 C 0.82376 0.80987 0.40514 0.0
C1491 C 0.79766 0.81728 0.3677 0.0
H1492 H 0.74958 0.79183 0.39709 0.0
C1493 C 0.72716 0.82973 0.36044 0.0
C1494 C 0.70738 0.81284 0.36285 0.0
C1495 C 0.74493 0.82834 0.36355 0.0
C1496 C 0.76277 0.79886 0.38863 0.0
H1497 H 0.85581 0.80027 0.37126 0.0
H1498 H 0.82501 0.80159 0.3624 0.0
H1499 H 0.78039 0.79019 0.40458 0.0
H1500 H 0.69064 0.78157 0.37104 0.0
H1501 H 0.72157 0.77901 0.37639 0.0
H1502 H 0.77981 0.82577 0.35166 0.0
C1503 C 0.82949 0.80394 0.37578 0.0
C1504 C 0.78057 0.79814 0.39304 0.0
C1505 C 0.84716 0.80317 0.38086 0.0
C1506 C 0.70572 0.79472 0.36883 0.0
C1507 C 0.72344 0.79331 0.37198 0.0
C1508 C 0.77982 0.81807 0.3633 0.0
C1509 C 0.81747 0.80714 0.38789 0.0
C1510 C 0.79832 0.80745 0.38273 0.0
C1511 C 0.7433 0.81014 0.36947 0.0
C1512 C 0.76217 0.80893 0.37376 0.0
H1513 H 0.84583 0.81159 0.42358 0.0
H1514 H 0.81517 0.8128 0.41478 0.0
H1515 H 0.81107 0.82472 0.3595 0.0
H1516 H 0.72898 0.84412 0.35644 0.0
H1517 H 0.75995 0.8417 0.36177 0.0
C1518 C 0.21688 0.045 0.40862 0.0
C1519 C 0.20995 0.05635 0.39934 0.0
C1520 C 0.21629 0.02792 0.40137 0.0
C1521 C 0.18747 0.98707 0.37156 0.0
H1522 H 0.23528 0.9797 0.372 0.0
C1523 C 0.18257 0.91385 0.34489 0.0
C1524 C 0.19403 0.90638 0.35336 0.0
C1525 C 0.18559 0.93311 0.34878 0.0
C1526 C 0.22167 0.98133 0.37198 0.0
H1527 H 0.1974 0.05862 0.37485 0.0
H1528 H 0.19551 0.02816 0.36255 0.0
H1529 H 0.23864 0.01154 0.38223 0.0
H1530 H 0.2175 0.91336 0.37284 0.0
H1531 H 0.22199 0.94626 0.38021 0.0
H1532 H 0.17012 0.95662 0.36224 0.0
C1533 C 0.20154 0.03276 0.37542 0.0
C1534 C 0.22369 0.99966 0.37772 0.0
C1535 C 0.20252 0.05012 0.38254 0.0
C1536 C 0.20847 0.9186 0.36592 0.0
C1537 C 0.21123 0.93768 0.37004 0.0
C1538 C 0.18532 0.96858 0.36613 0.0
C1539 C 0.20838 0.0215 0.3848 0.0
C1540 C 0.20658 0.00263 0.37767 0.0
C1541 C 0.19984 0.94524 0.36154 0.0
C1542 C 0.20236 0.96536 0.3664 0.0
H1543 H 0.22224 0.04891 0.42171 0.0
H1544 H 0.22141 0.01932 0.40893 0.0
H1545 H 0.17399 0.98894 0.37158 0.0
H1546 H 0.17103 0.90476 0.33539 0.0
H1547 H 0.1767 0.93843 0.34176 0.0
C1548 C 0.50749 0.62939 0.28291 0.0
C1549 C 0.49174 0.61681 0.29434 0.0
C1550 C 0.52443 0.64763 0.28846 0.0
C1551 C 0.55138 0.67745 0.32804 0.0
H1552 H 0.57606 0.72179 0.29568 0.0
C1553 C 0.60744 0.76296 0.34454 0.0
C1554 C 0.62675 0.7714 0.33636 0.0
C1555 C 0.59141 0.74358 0.3401 0.0
C1556 C 0.56934 0.70948 0.3048 0.0
H1557 H 0.48206 0.61376 0.32086 0.0
H1558 H 0.51067 0.64611 0.3302 0.0
H1559 H 0.547 0.68932 0.28672 0.0
H1560 H 0.64407 0.76598 0.31676 0.0
H1561 H 0.61572 0.73254 0.30856 0.0
H1562 H 0.57332 0.69837 0.34631 0.0
C1563 C 0.51032 0.6416 0.31701 0.0
C1564 C 0.55277 0.69075 0.29967 0.0
C1565 C 0.49358 0.62308 0.31154 0.0
C1566 C 0.6295 0.76002 0.32343 0.0
C1567 C 0.61329 0.74086 0.3187 0.0
C1568 C 0.56766 0.69638 0.33326 0.0
C1569 C 0.52598 0.65424 0.30553 0.0
C1570 C 0.5436 0.67434 0.31116 0.0
C1571 C 0.59415 0.73248 0.32703 0.0
C1572 C 0.57684 0.71248 0.32164 0.0
H1573 H 0.50662 0.62546 0.2695 0.0
H1574 H 0.5363 0.65655 0.27924 0.0
H1575 H 0.54513 0.66523 0.33723 0.0
H1576 H 0.60451 0.7714 0.35419 0.0
H1577 H 0.57667 0.73748 0.34654 0.0
C1578 C 0.38813 0.89327 0.29649 0.0
C1579 C 0.38985 0.8757 0.2976 0.0
C1580 C 0.37023 0.89314 0.30202 0.0
C1581 C 0.32264 0.86443 0.3282 0.0
H1582 H 0.30101 0.89028 0.29852 0.0
C1583 C 0.23894 0.85066 0.3337 0.0
C1584 C 0.23582 0.86715 0.33072 0.0
C1585 C 0.25844 0.85259 0.33121 0.0
C1586 C 0.30695 0.88325 0.30713 0.0
H1587 H 0.37398 0.84427 0.30572 0.0
H1588 H 0.34288 0.8441 0.31543 0.0
H1589 H 0.33372 0.89222 0.29166 0.0
H1590 H 0.25041 0.89834 0.32236 0.0
H1591 H 0.28452 0.90188 0.31822 0.0
H1592 H 0.29568 0.85532 0.3436 0.0
C1593 C 0.35549 0.85807 0.31044 0.0
C1594 C 0.32577 0.88436 0.30318 0.0
C1595 C 0.37338 0.85818 0.30488 0.0
C1596 C 0.25249 0.88548 0.32497 0.0
C1597 C 0.27198 0.88744 0.3225 0.0
C1598 C 0.3038 0.86335 0.33219 0.0
C1599 C 0.35353 0.87545 0.30885 0.0
C1600 C 0.33384 0.87489 0.31359 0.0
C1601 C 0.27519 0.87096 0.32541 0.0
C1602 C 0.29563 0.87266 0.32164 0.0
H1603 H 0.40061 0.90713 0.29123 0.0
H1604 H 0.36944 0.90693 0.30089 0.0
H1605 H 0.3285 0.85716 0.33664 0.0
H1606 H 0.22627 0.83613 0.33755 0.0
H1607 H 0.26019 0.83946 0.33331 0.0
C1608 C 0.12692 0.50379 0.29212 0.0
C1609 C 0.14549 0.52257 0.2917 0.0
C1610 C 0.12662 0.4865 0.29854 0.0
C1611 C 0.15375 0.46953 0.32709 0.0
H1612 H 0.13224 0.42197 0.2978 0.0
C1613 C 0.17022 0.40457 0.3408 0.0
C1614 C 0.15542 0.38466 0.3361 0.0
C1615 C 0.16748 0.42086 0.3364 0.0
C1616 C 0.13793 0.43491 0.30635 0.0
H1617 H 0.17833 0.53762 0.29779 0.0
H1618 H 0.1775 0.50766 0.3096 0.0
H1619 H 0.12975 0.45129 0.28866 0.0
H1620 H 0.12583 0.36613 0.3235 0.0
H1621 H 0.12063 0.39442 0.31634 0.0
H1622 H 0.16164 0.45322 0.34495 0.0
C1623 C 0.16322 0.50643 0.30492 0.0
C1624 C 0.13657 0.45174 0.30103 0.0
C1625 C 0.16362 0.52362 0.29823 0.0
C1626 C 0.13761 0.38132 0.32719 0.0
C1627 C 0.1347 0.3976 0.32299 0.0
C1628 C 0.15481 0.45259 0.33255 0.0
C1629 C 0.14478 0.48767 0.30498 0.0
C1630 C 0.14476 0.46931 0.31124 0.0
C1631 C 0.14971 0.41763 0.32738 0.0
C1632 C 0.14723 0.43515 0.32213 0.0
H1633 H 0.11256 0.50241 0.28751 0.0
H1634 H 0.11216 0.47221 0.29858 0.0
H1635 H 0.15998 0.48284 0.33527 0.0
H1636 H 0.18425 0.4077 0.34752 0.0
H1637 H 0.17961 0.43603 0.33972 0.0
C1638 C 0.35854 0.51547 0.32698 0.0
C1639 C 0.36575 0.52117 0.31022 0.0
C1640 C 0.34215 0.49602 0.33038 0.0
C1641 C 0.30881 0.44446 0.31095 0.0
H1642 H 0.27012 0.44159 0.34534 0.0
C1643 C 0.23506 0.36867 0.32791 0.0
C1644 C 0.21719 0.36959 0.33178 0.0
C1645 C 0.25418 0.3865 0.3262 0.0
C1646 C 0.28063 0.4421 0.33557 0.0
H1647 H 0.36196 0.511 0.28391 0.0
H1648 H 0.33279 0.47719 0.28963 0.0
H1649 H 0.30148 0.47353 0.34028 0.0
H1650 H 0.20495 0.38985 0.33528 0.0
H1651 H 0.23793 0.4208 0.33214 0.0
H1652 H 0.28725 0.41323 0.30559 0.0
C1653 C 0.34007 0.48746 0.30031 0.0
C1654 C 0.29891 0.46043 0.33286 0.0
C1655 C 0.35675 0.50686 0.29697 0.0
C1656 C 0.21858 0.38863 0.33312 0.0
C1657 C 0.23758 0.40643 0.33126 0.0
C1658 C 0.29036 0.42616 0.31352 0.0
C1659 C 0.33225 0.48189 0.31703 0.0
C1660 C 0.31324 0.46195 0.32043 0.0
C1661 C 0.2557 0.40565 0.32788 0.0
C1662 C 0.27591 0.42478 0.32574 0.0
H1663 H 0.36537 0.52624 0.33743 0.0
H1664 H 0.33706 0.49221 0.34349 0.0
H1665 H 0.31954 0.44486 0.30146 0.0
H1666 H 0.23426 0.35413 0.32647 0.0
H1667 H 0.26776 0.38524 0.32371 0.0
C1668 C 0.48938 0.82514 0.30327 0.0
C1669 C 0.48647 0.84191 0.3055 0.0
C1670 C 0.50897 0.82717 0.30482 0.0
C1671 C 0.56154 0.86146 0.32301 0.0
H1672 H 0.57418 0.82439 0.29881 0.0
C1673 C 0.6417 0.86468 0.32369 0.0
C1674 C 0.6407 0.84648 0.32867 0.0
C1675 C 0.62355 0.8654 0.32064 0.0
C1676 C 0.57082 0.8348 0.30569 0.0
H1677 H 0.50237 0.87433 0.31019 0.0
H1678 H 0.5369 0.87813 0.31213 0.0
H1679 H 0.54219 0.82434 0.29241 0.0
H1680 H 0.62 0.81447 0.3332 0.0
H1681 H 0.58833 0.81562 0.32754 0.0
H1682 H 0.59076 0.87223 0.33586 0.0
C1683 C 0.52379 0.86318 0.30976 0.0
C1684 C 0.5524 0.83473 0.30211 0.0
C1685 C 0.504 0.86108 0.30839 0.0
C1686 C 0.62125 0.82883 0.32991 0.0
C1687 C 0.60313 0.82946 0.32651 0.0
C1688 C 0.58021 0.86178 0.32633 0.0
C1689 C 0.52651 0.84615 0.30829 0.0
C1690 C 0.54722 0.84776 0.31096 0.0
C1691 C 0.6041 0.84775 0.3219 0.0
C1692 C 0.58484 0.84821 0.3179 0.0
H1693 H 0.47634 0.81018 0.30069 0.0
H1694 H 0.51013 0.81358 0.30382 0.0
H1695 H 0.55812 0.87155 0.33029 0.0
H1696 H 0.65654 0.8784 0.32235 0.0
H1697 H 0.62471 0.87965 0.31694 0.0
C1698 C 0.19367 0.6612 0.31758 0.0
C1699 C 0.184 0.64889 0.30318 0.0
C1700 C 0.19108 0.67771 0.32134 0.0
C1701 C 0.15856 0.70061 0.31464 0.0
H1702 H 0.20967 0.75076 0.32379 0.0
C1703 C 0.16274 0.77864 0.32461 0.0
C1704 C 0.1769 0.79168 0.33701 0.0
C1705 C 0.16218 0.76052 0.32006 0.0
C1706 C 0.1952 0.73686 0.32151 0.0
H1707 H 0.16317 0.64378 0.2819 0.0
H1708 H 0.1584 0.67267 0.2887 0.0
H1709 H 0.21078 0.72015 0.31693 0.0
H1710 H 0.20143 0.79567 0.35441 0.0
H1711 H 0.19984 0.76403 0.3471 0.0
H1712 H 0.14296 0.71735 0.31957 0.0
C1713 C 0.16808 0.66946 0.29697 0.0
C1714 C 0.19586 0.71932 0.3175 0.0
C1715 C 0.1708 0.65292 0.29311 0.0
C1716 C 0.19014 0.78598 0.34497 0.0
C1717 C 0.18945 0.76789 0.34057 0.0
C1718 C 0.15787 0.71821 0.31881 0.0
C1719 C 0.17861 0.68228 0.3109 0.0
C1720 C 0.17757 0.70096 0.31426 0.0
C1721 C 0.17574 0.75508 0.32785 0.0
C1722 C 0.17619 0.73648 0.32254 0.0
H1723 H 0.20348 0.65821 0.32588 0.0
H1724 H 0.19903 0.68708 0.33238 0.0
H1725 H 0.14422 0.68663 0.31221 0.0
H1726 H 0.15234 0.78256 0.31817 0.0
H1727 H 0.15152 0.75108 0.31013 0.0
C1728 C 0.86728 0.02323 0.37031 0.0
C1729 C 0.87087 0.03554 0.38482 0.0
C1730 C 0.84753 0.00718 0.36659 0.0
C1731 C 0.79742 0.9727 0.38699 0.0
H1732 H 0.78071 0.95626 0.33991 0.0
C1733 C 0.71958 0.90109 0.36665 0.0
C1734 C 0.72219 0.88827 0.35514 0.0
C1735 C 0.73611 0.92052 0.37045 0.0
C1736 C 0.78515 0.9607 0.35312 0.0
H1737 H 0.8562 0.04099 0.4065 0.0
H1738 H 0.82142 0.01315 0.39974 0.0
H1739 H 0.81213 0.98828 0.34597 0.0
H1740 H 0.74456 0.88573 0.33916 0.0
H1741 H 0.77287 0.91963 0.34525 0.0
H1742 H 0.77026 0.94492 0.39402 0.0
C1743 C 0.83408 0.01574 0.39142 0.0
C1744 C 0.80321 0.979 0.35662 0.0
C1745 C 0.85397 0.03184 0.39519 0.0
C1746 C 0.7417 0.8953 0.34765 0.0
C1747 C 0.75803 0.91476 0.3512 0.0
C1748 C 0.77916 0.95446 0.38347 0.0
C1749 C 0.83066 0.00304 0.37716 0.0
C1750 C 0.80995 0.98498 0.37359 0.0
C1751 C 0.75544 0.92758 0.36262 0.0
C1752 C 0.77318 0.94804 0.36649 0.0
H1753 H 0.87986 0.02584 0.36187 0.0
H1754 H 0.84566 0.99764 0.35564 0.0
H1755 H 0.80216 0.97668 0.40021 0.0
H1756 H 0.70482 0.89615 0.37276 0.0
H1757 H 0.73373 0.93011 0.37934 0.0
C1758 C 0.98799 0.8238 0.3923 0.0
C1759 C 0.97751 0.82557 0.37804 0.0
C1760 C 1.00575 0.82212 0.39011 0.0
C1761 C 0.04687 0.83403 0.35779 0.0
H1762 H 0.06369 0.80555 0.38917 0.0
C1763 C 0.13003 0.84691 0.3579 0.0
C1764 C 0.13264 0.83008 0.3606 0.0
C1765 C 0.1106 0.84525 0.3599 0.0
C1766 C 0.05916 0.81342 0.38016 0.0
H1767 H 0.9765 0.82567 0.35038 0.0
H1768 H 0.00678 0.82184 0.34648 0.0
H1769 H 0.03002 0.80306 0.39255 0.0
H1770 H 0.11732 0.79868 0.36845 0.0
H1771 H 0.08322 0.79554 0.37161 0.0
H1772 H 0.07573 0.84397 0.34513 0.0
C1773 C 1.0019 0.82247 0.35938 0.0
C1774 C 0.0399 0.8122 0.38224 0.0
C1775 C 0.98436 0.82441 0.36159 0.0
C1776 C 0.11561 0.81178 0.36599 0.0
C1777 C 0.09613 0.81006 0.36792 0.0
C1778 C 0.06603 0.83515 0.35566 0.0
C1779 C 0.01329 0.82199 0.37359 0.0
C1780 C 0.03349 0.82256 0.37113 0.0
C1781 C 0.09332 0.82676 0.36485 0.0
C1782 C 0.07256 0.82501 0.36689 0.0
H1783 H 0.98316 0.82491 0.40512 0.0
H1784 H 0.01412 0.82192 0.40139 0.0
H1785 H 0.04275 0.84253 0.34911 0.0
H1786 H 0.14302 0.86143 0.3544 0.0
H1787 H 0.10923 0.85859 0.35781 0.0
C1788 C 0.17933 0.15737 0.40468 0.0
C1789 C 0.16449 0.13952 0.39637 0.0
C1790 C 0.18167 0.17622 0.40019 0.0
C1791 C 0.15258 0.19824 0.3802 0.0
H1792 H 0.20616 0.24665 0.37472 0.0
C1793 C 0.15986 0.26912 0.34866 0.0
C1794 C 0.1733 0.28814 0.35607 0.0
C1795 C 0.16017 0.2518 0.35393 0.0
C1796 C 0.19109 0.23331 0.3764 0.0
H1797 H 0.14125 0.12765 0.37624 0.0
H1798 H 0.14525 0.16035 0.3685 0.0
H1799 H 0.2042 0.2148 0.38335 0.0
H1800 H 0.19791 0.30382 0.37476 0.0
H1801 H 0.19827 0.27332 0.38414 0.0
H1802 H 0.1394 0.21653 0.37328 0.0
C1803 C 0.15477 0.15978 0.37874 0.0
C1804 C 0.18997 0.21508 0.38134 0.0
C1805 C 0.15247 0.14102 0.38319 0.0
C1806 C 0.18736 0.28942 0.36874 0.0
C1807 C 0.18764 0.27198 0.37407 0.0
C1808 C 0.15369 0.21637 0.37532 0.0
C1809 C 0.16919 0.17757 0.38733 0.0
C1810 C 0.17068 0.19728 0.38302 0.0
C1811 C 0.1738 0.25292 0.36688 0.0
C1812 C 0.17294 0.23405 0.37308 0.0
H1813 H 0.18875 0.15672 0.41496 0.0
H1814 H 0.19283 0.18965 0.40711 0.0
H1815 H 0.13747 0.18492 0.38179 0.0
H1816 H 0.14864 0.2674 0.33903 0.0
H1817 H 0.14954 0.23743 0.34791 0.0
C1818 C 0.63441 0.50087 0.71342 0.0
C1819 C 0.63113 0.49756 0.73112 0.0
C1820 C 0.65181 0.51831 0.70727 0.0
C1821 C 0.69224 0.57008 0.72087 0.0
H1822 H 0.7222 0.56693 0.68163 0.0
C1823 C 0.778 0.62016 0.68921 0.0
C1824 C 0.78053 0.63965 0.69098 0.0
C1825 C 0.75868 0.60291 0.69194 0.0
C1826 C 0.71405 0.56805 0.69264 0.0
H1827 H 0.6439 0.50971 0.75619 0.0
H1828 H 0.67418 0.53991 0.74555 0.0
H1829 H 0.69092 0.53658 0.69112 0.0
H1830 H 0.76503 0.65647 0.69704 0.0
H1831 H 0.73116 0.62643 0.70145 0.0
H1832 H 0.71569 0.60124 0.7229 0.0
C1833 C 0.6631 0.52935 0.73637 0.0
C1834 C 0.69597 0.5507 0.69798 0.0
C1835 C 0.64571 0.512 0.74249 0.0
C1836 C 0.76339 0.64158 0.69541 0.0
C1837 C 0.74406 0.62437 0.69805 0.0
C1838 C 0.71029 0.58736 0.71559 0.0
C1839 C 0.66637 0.53281 0.71868 0.0
C1840 C 0.68497 0.55144 0.71231 0.0
C1841 C 0.74153 0.6048 0.69671 0.0
C1842 C 0.72156 0.58657 0.70151 0.0
H1843 H 0.62339 0.4901 0.70433 0.0
H1844 H 0.6537 0.52057 0.69358 0.0
H1845 H 0.68402 0.57134 0.73178 0.0
H1846 H 0.79104 0.61817 0.68637 0.0
H1847 H 0.75745 0.58814 0.69106 0.0
C1848 C 0.51026 0.14397 0.74299 0.0
C1849 C 0.52197 0.13989 0.73121 0.0
C1850 C 0.49258 0.14445 0.73777 0.0
C1851 C 0.46597 0.15045 0.70014 0.0
H1852 H 0.41816 0.12543 0.72986 0.0
C1853 C 0.37411 0.1281 0.70168 0.0
C1854 C 0.37582 0.14625 0.69571 0.0
C1855 C 0.3918 0.12663 0.70474 0.0
C1856 C 0.43128 0.13233 0.72131 0.0
H1857 H 0.52426 0.13347 0.7045 0.0
H1858 H 0.49335 0.13446 0.69534 0.0
H1859 H 0.44913 0.12407 0.73739 0.0
H1860 H 0.3975 0.17751 0.6893 0.0
H1861 H 0.42839 0.17495 0.69442 0.0
H1862 H 0.44793 0.15863 0.68403 0.0
C1863 C 0.49799 0.13733 0.70866 0.0
C1864 C 0.44915 0.13176 0.72574 0.0
C1865 C 0.51571 0.13677 0.71392 0.0
C1866 C 0.39562 0.1631 0.69325 0.0
C1867 C 0.41335 0.16163 0.69625 0.0
C1868 C 0.44806 0.15112 0.69574 0.0
C1869 C 0.48608 0.14097 0.72058 0.0
C1870 C 0.46681 0.14095 0.71531 0.0
C1871 C 0.41167 0.1434 0.70214 0.0
C1872 C 0.43053 0.14215 0.70634 0.0
H1873 H 0.51486 0.14698 0.75632 0.0
H1874 H 0.48408 0.14776 0.74723 0.0
H1875 H 0.47931 0.15777 0.69186 0.0
H1876 H 0.35901 0.115 0.70394 0.0
H1877 H 0.38992 0.11232 0.70916 0.0
C1878 C 0.88269 0.37774 0.74427 0.0
C1879 C 0.87595 0.38864 0.73418 0.0
C1880 C 0.88174 0.36007 0.73806 0.0
C1881 C 0.87388 0.32969 0.69816 0.0
H1882 H 0.86191 0.28705 0.73092 0.0
C1883 C 0.84981 0.24596 0.68102 0.0
C1884 C 0.86147 0.23851 0.68923 0.0
C1885 C 0.8523 0.26487 0.68554 0.0
C1886 C 0.86536 0.29889 0.72166 0.0
H1887 H 0.8633 0.38946 0.70933 0.0
H1888 H 0.86047 0.35802 0.69891 0.0
H1889 H 0.86439 0.31861 0.74061 0.0
H1890 H 0.88493 0.24527 0.70872 0.0
H1891 H 0.88867 0.27785 0.71692 0.0
H1892 H 0.87393 0.30927 0.67914 0.0
C1893 C 0.86704 0.36344 0.7115 0.0
C1894 C 0.86695 0.31708 0.7272 0.0
C1895 C 0.86836 0.38138 0.71761 0.0
C1896 C 0.87566 0.25044 0.70208 0.0
C1897 C 0.87783 0.26912 0.70682 0.0
C1898 C 0.87188 0.31128 0.69258 0.0
C1899 C 0.87356 0.35243 0.72171 0.0
C1900 C 0.87147 0.33286 0.71558 0.0
C1901 C 0.86613 0.27647 0.69864 0.0
C1902 C 0.8678 0.29582 0.70432 0.0
H1903 H 0.8883 0.38253 0.7572 0.0
H1904 H 0.88737 0.35236 0.7462 0.0
H1905 H 0.87765 0.34152 0.68884 0.0
H1906 H 0.83844 0.23706 0.67135 0.0
H1907 H 0.84294 0.27014 0.67917 0.0
C1908 C 0.17461 0.96417 0.61586 0.0
C1909 C 0.15892 0.95148 0.62728 0.0
C1910 C 0.19157 0.98238 0.62145 0.0
C1911 C 0.21873 0.01187 0.66111 0.0
H1912 H 0.24338 0.05642 0.62895 0.0
C1913 C 0.27556 0.09732 0.67771 0.0
C1914 C 0.29482 0.1055 0.66947 0.0
C1915 C 0.2593 0.07804 0.67328 0.0
C1916 C 0.23665 0.04406 0.63802 0.0
H1917 H 0.14937 0.94821 0.65385 0.0
H1918 H 0.17801 0.98049 0.66329 0.0
H1919 H 0.21416 0.02408 0.61994 0.0
H1920 H 0.31181 0.09972 0.64981 0.0
H1921 H 0.28309 0.06648 0.64166 0.0
H1922 H 0.24085 0.03261 0.67938 0.0
C1923 C 0.1776 0.9761 0.65005 0.0
C1924 C 0.21999 0.02539 0.63285 0.0
C1925 C 0.16085 0.95762 0.64453 0.0
C1926 C 0.29729 0.09397 0.65652 0.0
C1927 C 0.28087 0.07492 0.65182 0.0
C1928 C 0.2351 0.03074 0.66636 0.0
C1929 C 0.19319 0.98885 0.63857 0.0
C1930 C 0.21085 0.0089 0.64426 0.0
C1931 C 0.26178 0.06679 0.66019 0.0
C1932 C 0.24427 0.04691 0.65481 0.0
H1933 H 0.17369 0.96035 0.60241 0.0
H1934 H 0.20338 0.99138 0.61222 0.0
H1935 H 0.21249 0.99959 0.67023 0.0
H1936 H 0.27284 0.10589 0.68737 0.0
H1937 H 0.2446 0.07214 0.67976 0.0
C1938 C 0.04178 0.19262 0.63688 0.0
C1939 C 0.05844 0.21064 0.63043 0.0
C1940 C 0.02368 0.19207 0.64248 0.0
C1941 C 0.99383 0.21848 0.63688 0.0
H1942 H 0.96391 0.18792 0.67682 0.0
C1943 C 0.92057 0.2187 0.65998 0.0
C1944 C 0.90397 0.20022 0.66555 0.0
C1945 C 0.94007 0.22078 0.65724 0.0
C1946 C 0.97197 0.19637 0.66553 0.0
H1947 H 0.06918 0.24239 0.62542 0.0
H1948 H 0.03761 0.24138 0.63504 0.0
H1949 H 0.99668 0.19001 0.66921 0.0
H1950 H 0.89456 0.1691 0.67186 0.0
H1951 H 0.92847 0.17261 0.66712 0.0
H1952 H 0.96906 0.22455 0.63295 0.0
C1953 C 0.03846 0.22759 0.63556 0.0
C1954 C 0.99078 0.19758 0.66118 0.0
C1955 C 0.05658 0.22816 0.63002 0.0
C1956 C 0.90718 0.18373 0.66814 0.0
C1957 C 0.92668 0.18576 0.66537 0.0
C1958 C 0.97502 0.2172 0.64117 0.0
C1959 C 0.02168 0.20949 0.64172 0.0
C1960 C 1.00194 0.20861 0.64676 0.0
C1961 C 0.94335 0.20426 0.65969 0.0
C1962 C 0.96377 0.20608 0.65553 0.0
H1963 H 0.04246 0.17873 0.63716 0.0
H1964 H 0.011 0.1778 0.64693 0.0
H1965 H 1.00178 0.2268 0.62552 0.0
H1966 H 0.91843 0.23158 0.65768 0.0
H1967 H 0.95255 0.23533 0.6531 0.0
C1968 C 0.80572 0.83894 0.61252 0.0
C1969 C 0.81124 0.85609 0.6229 0.0
C1970 C 0.80591 0.82196 0.61907 0.0
C1971 C 0.83174 0.80722 0.65017 0.0
H1972 H 0.78465 0.75293 0.64539 0.0
C1973 C 0.83395 0.73796 0.67757 0.0
C1974 C 0.82359 0.71953 0.66849 0.0
C1975 C 0.83135 0.75433 0.6731 0.0
C1976 C 0.79809 0.76792 0.64662 0.0
H1977 H 0.82077 0.86835 0.6486 0.0
H1978 H 0.82198 0.83899 0.65972 0.0
H1979 H 0.78212 0.78193 0.63527 0.0
H1980 H 0.80263 0.7041 0.64725 0.0
H1981 H 0.79894 0.73281 0.63894 0.0
H1982 H 0.84816 0.79345 0.6607 0.0
C1983 C 0.8174 0.83882 0.64652 0.0
C1984 C 0.79653 0.78453 0.64092 0.0
C1985 C 0.81682 0.85566 0.64008 0.0
C1986 C 0.81074 0.71797 0.65468 0.0
C1987 C 0.80845 0.73447 0.64999 0.0
C1988 C 0.83346 0.79062 0.65557 0.0
C1989 C 0.812 0.82185 0.63605 0.0
C1990 C 0.81335 0.80431 0.64263 0.0
C1991 C 0.81871 0.75291 0.65913 0.0
C1992 C 0.81667 0.77069 0.65383 0.0
H1993 H 0.80177 0.83876 0.59915 0.0
H1994 H 0.8019 0.80912 0.6107 0.0
H1995 H 0.845 0.82234 0.65145 0.0
H1996 H 0.84431 0.73992 0.68802 0.0
H1997 H 0.83931 0.76811 0.68066 0.0
C1998 C 0.02385 0.84139 0.63015 0.0
C1999 C 0.03311 0.85562 0.64343 0.0
C2000 C 0.00719 0.822 0.63354 0.0
C2001 C 0.9666 0.79476 0.66651 0.0
H2002 H 0.95442 0.74776 0.63875 0.0
C2003 C 0.88626 0.72285 0.66723 0.0
C2004 C 0.88486 0.70384 0.66541 0.0
C2005 C 0.90524 0.74069 0.66539 0.0
C2006 C 0.95769 0.76063 0.64682 0.0
H2007 H 0.03319 0.86055 0.67071 0.0
H2008 H 1.00493 0.82651 0.67683 0.0
H2009 H 0.98662 0.77941 0.63444 0.0
H2010 H 0.90191 0.6885 0.65951 0.0
H2011 H 0.93534 0.71967 0.65678 0.0
H2012 H 0.93806 0.77583 0.6793 0.0
C2013 C 0.00981 0.83039 0.66368 0.0
C2014 C 0.97608 0.77895 0.64415 0.0
C2015 C 0.02616 0.84984 0.66024 0.0
C2016 C 0.9027 0.70301 0.66125 0.0
C2017 C 0.92179 0.72088 0.65956 0.0
C2018 C 0.94838 0.77641 0.66932 0.0
C2019 C 0.99966 0.81633 0.65033 0.0
C2020 C 0.9807 0.79638 0.65381 0.0
C2021 C 0.92332 0.73999 0.66159 0.0
C2022 C 0.94347 0.75916 0.65933 0.0
H2023 H 0.02885 0.8456 0.61706 0.0
H2024 H 0.99972 0.81179 0.62285 0.0
H2025 H 0.96931 0.80781 0.67408 0.0
H2026 H 0.87267 0.72402 0.66976 0.0
H2027 H 0.9056 0.75504 0.66659 0.0
C2028 C 0.16628 0.18431 0.66107 0.0
C2029 C 0.1585 0.18421 0.64466 0.0
C2030 C 0.18579 0.18621 0.66318 0.0
C2031 C 0.2347 0.19827 0.64035 0.0
H2032 H 0.23828 0.16504 0.67622 0.0
C2033 C 0.31131 0.19927 0.65662 0.0
C2034 C 0.30995 0.18103 0.66191 0.0
C2035 C 0.29339 0.20065 0.6544 0.0
C2036 C 0.23754 0.17426 0.66602 0.0
H2037 H 0.16523 0.18665 0.61761 0.0
H2038 H 0.19921 0.18949 0.62116 0.0
H2039 H 0.20658 0.16616 0.67247 0.0
H2040 H 0.28874 0.1494 0.6674 0.0
H2041 H 0.25754 0.15159 0.6634 0.0
H2042 H 0.26544 0.20564 0.63348 0.0
C2043 C 0.19047 0.18853 0.63249 0.0
C2044 C 0.2194 0.1752 0.66403 0.0
C2045 C 0.17099 0.18691 0.63041 0.0
C2046 C 0.29032 0.16388 0.66402 0.0
C2047 C 0.2724 0.16517 0.66169 0.0
C2048 C 0.25283 0.1972 0.64226 0.0
C2049 C 0.19793 0.18768 0.64891 0.0
C2050 C 0.21765 0.18721 0.65117 0.0
C2051 C 0.27366 0.18364 0.65705 0.0
C2052 C 0.25449 0.18511 0.65509 0.0
H2053 H 0.15696 0.18233 0.67228 0.0
H2054 H 0.19114 0.18609 0.67605 0.0
H2055 H 0.2341 0.20785 0.63041 0.0
H2056 H 0.32629 0.21262 0.65459 0.0
H2057 H 0.29507 0.21516 0.65093 0.0
C2058 C 0.84018 0.98717 0.6244 0.0
C2059 C 0.85436 0.98347 0.63336 0.0
C2060 C 0.83766 0.00367 0.62883 0.0
C2061 C 0.86614 0.05379 0.64941 0.0
H2062 H 0.81275 0.05053 0.65332 0.0
C2063 C 0.85932 0.11917 0.67868 0.0
C2064 C 0.8457 0.12462 0.67107 0.0
C2065 C 0.85899 0.10133 0.67392 0.0
C2066 C 0.82777 0.05174 0.65207 0.0
H2067 H 0.87606 0.99354 0.65464 0.0
H2068 H 0.87184 0.02231 0.66218 0.0
H2069 H 0.81451 0.0203 0.6452 0.0
H2070 H 0.82082 0.11532 0.65253 0.0
H2071 H 0.82053 0.08424 0.64394 0.0
H2072 H 0.87951 0.0851 0.65606 0.0
C2073 C 0.86297 0.01271 0.65153 0.0
C2074 C 0.82877 0.03442 0.64745 0.0
C2075 C 0.86541 0.99623 0.64718 0.0
C2076 C 0.83151 0.11158 0.6587 0.0
C2077 C 0.83126 0.0937 0.65383 0.0
C2078 C 0.86516 0.07104 0.65392 0.0
C2079 C 0.84933 0.01683 0.64225 0.0
C2080 C 0.84798 0.03522 0.64633 0.0
C2081 C 0.84521 0.08852 0.66124 0.0
C2082 C 0.84597 0.0702 0.65558 0.0
H2083 H 0.83152 0.9777 0.61363 0.0
H2084 H 0.8271 0.00652 0.6214 0.0
H2085 H 0.88119 0.05501 0.64828 0.0
H2086 H 0.87065 0.12886 0.6881 0.0
H2087 H 0.86969 0.09766 0.68015 0.0
C2088 C 0.5381 0.35727 0.70394 0.0
C2089 C 0.54125 0.37002 0.71806 0.0
C2090 C 0.51892 0.34 0.70102 0.0
C2091 C 0.46338 0.31478 0.7089 0.0
H2092 H 0.46641 0.26575 0.70253 0.0
C2093 C 0.39033 0.23446 0.70007 0.0
C2094 C 0.39217 0.22134 0.68839 0.0
C2095 C 0.40766 0.25312 0.70458 0.0
C2096 C 0.46523 0.27929 0.70404 0.0
H2097 H 0.52616 0.37513 0.73964 0.0
H2098 H 0.49227 0.34495 0.73423 0.0
H2099 H 0.49783 0.29772 0.70824 0.0
H2100 H 0.41386 0.21769 0.67242 0.0
H2101 H 0.44344 0.25017 0.67953 0.0
H2102 H 0.43076 0.29636 0.70418 0.0
C2103 C 0.5049 0.34839 0.72557 0.0
C2104 C 0.48327 0.29761 0.70741 0.0
C2105 C 0.52428 0.36567 0.72863 0.0
C2106 C 0.41165 0.22742 0.68123 0.0
C2107 C 0.42882 0.24603 0.68557 0.0
C2108 C 0.44525 0.29639 0.70531 0.0
C2109 C 0.50224 0.33511 0.712 0.0
C2110 C 0.48262 0.31561 0.7096 0.0
C2111 C 0.42719 0.25904 0.69749 0.0
C2112 C 0.44602 0.27846 0.70253 0.0
H2113 H 0.55062 0.36043 0.69523 0.0
H2114 H 0.51718 0.33026 0.69024 0.0
H2115 H 0.46247 0.32846 0.71054 0.0
H2116 H 0.37558 0.23025 0.70591 0.0
H2117 H 0.40584 0.26267 0.7139 0.0
C2118 C 0.65623 0.15672 0.72652 0.0
C2119 C 0.64582 0.15834 0.71215 0.0
C2120 C 0.67392 0.15485 0.72451 0.0
C2121 C 0.71508 0.16633 0.69244 0.0
H2122 H 0.73162 0.13782 0.72404 0.0
C2123 C 0.79817 0.17918 0.69307 0.0
C2124 C 0.80071 0.16228 0.69556 0.0
C2125 C 0.77875 0.17754 0.69507 0.0
C2126 C 0.72717 0.14571 0.71498 0.0
H2127 H 0.64481 0.15793 0.68447 0.0
H2128 H 0.67498 0.15385 0.6809 0.0
H2129 H 0.69796 0.13546 0.72725 0.0
H2130 H 0.7853 0.13078 0.70313 0.0
H2131 H 0.75121 0.12769 0.70634 0.0
H2132 H 0.74402 0.17623 0.67994 0.0
C2133 C 0.67009 0.15471 0.69375 0.0
C2134 C 0.70792 0.14455 0.71695 0.0
C2135 C 0.65263 0.1568 0.69577 0.0
C2136 C 0.78363 0.14393 0.70081 0.0
C2137 C 0.76416 0.14224 0.70277 0.0
C2138 C 0.73424 0.16742 0.69044 0.0
C2139 C 0.68144 0.15441 0.70806 0.0
C2140 C 0.70162 0.15491 0.70575 0.0
C2141 C 0.76142 0.159 0.69983 0.0
C2142 C 0.74065 0.15727 0.70175 0.0
H2143 H 0.65143 0.1581 0.73928 0.0
H2144 H 0.68225 0.15479 0.73585 0.0
H2145 H 0.71103 0.17483 0.68369 0.0
H2146 H 0.81118 0.19374 0.68969 0.0
H2147 H 0.77741 0.19092 0.69309 0.0
C2148 C 0.81941 0.47435 0.71469 0.0
C2149 C 0.83134 0.47289 0.72798 0.0
C2150 C 0.82162 0.49307 0.71024 0.0
C2151 C 0.85637 0.54844 0.71317 0.0
H2152 H 0.80559 0.54947 0.70507 0.0
C2153 C 0.85346 0.62269 0.70139 0.0
C2154 C 0.8394 0.62158 0.6888 0.0
C2155 C 0.85372 0.60516 0.7065 0.0
C2156 C 0.81994 0.54944 0.7071 0.0
H2157 H 0.85536 0.49013 0.74674 0.0
H2158 H 0.85927 0.523 0.73888 0.0
H2159 H 0.80392 0.51789 0.71326 0.0
H2160 H 0.81465 0.60109 0.67173 0.0
H2161 H 0.81551 0.57096 0.68022 0.0
H2162 H 0.87236 0.58009 0.70686 0.0
C2163 C 0.84826 0.50957 0.73188 0.0
C2164 C 0.81897 0.53132 0.71181 0.0
C2165 C 0.84602 0.49075 0.73638 0.0
C2166 C 0.82587 0.60265 0.68129 0.0
C2167 C 0.82616 0.58524 0.68634 0.0
C2168 C 0.85735 0.56665 0.70839 0.0
C2169 C 0.83584 0.51087 0.71893 0.0
C2170 C 0.83716 0.53052 0.71468 0.0
C2171 C 0.83986 0.58619 0.69918 0.0
C2172 C 0.83912 0.56726 0.70508 0.0
H2173 H 0.80832 0.46097 0.70768 0.0
H2174 H 0.81215 0.49361 0.69994 0.0
H2175 H 0.87066 0.54828 0.71522 0.0
H2176 H 0.86408 0.63701 0.70747 0.0
H2177 H 0.86438 0.60639 0.71649 0.0
C2178 C 0.46126 0.90249 0.24584 0.0
C2179 C 0.43999 0.89173 0.24953 0.0
C2180 C 0.4683 0.91241 0.23012 0.0
C2181 C 0.45221 0.93459 0.1956 0.0
H2182 H 0.49773 0.9363 0.17039 0.0
C2183 C 0.49421 0.99219 0.1417 0.0
C2184 C 0.49946 0.98534 0.12684 0.0
C2185 C 0.48635 0.97967 0.156 0.0
C2186 C 0.48488 0.93583 0.17722 0.0
H2187 H 0.4094 0.88185 0.23909 0.0
H2188 H 0.42163 0.89918 0.21188 0.0
H2189 H 0.48537 0.916 0.19647 0.0
H2190 H 0.50044 0.95988 0.11533 0.0
H2191 H 0.48662 0.93791 0.1404 0.0
H2192 H 0.45168 0.9544 0.17646 0.0
C2193 C 0.43292 0.90037 0.22124 0.0
C2194 C 0.47795 0.92437 0.19224 0.0
C2195 C 0.42592 0.89045 0.23687 0.0
C2196 C 0.49641 0.96554 0.12655 0.0
C2197 C 0.4887 0.95305 0.14096 0.0
C2198 C 0.45922 0.94613 0.18069 0.0
C2199 C 0.4542 0.91178 0.21777 0.0
C2200 C 0.46153 0.92364 0.20163 0.0
C2201 C 0.48363 0.96 0.15587 0.0
C2202 C 0.4757 0.94699 0.17135 0.0
H2203 H 0.47251 0.90384 0.25533 0.0
H2204 H 0.4848 0.92117 0.22789 0.0
H2205 H 0.43968 0.93456 0.2026 0.0
H2206 H 0.4962 0.00729 0.14229 0.0
H2207 H 0.48277 0.98557 0.16731 0.0
C2208 C 0.12257 0.54076 0.23264 0.0
C2209 C 0.12365 0.55403 0.24568 0.0
C2210 C 0.11123 0.53837 0.21771 0.0
C2211 C 0.06852 0.54428 0.20065 0.0
H2212 H 0.08981 0.53958 0.1567 0.0
C2213 C 0.02578 0.53816 0.13715 0.0
C2214 C 0.02491 0.5241 0.12497 0.0
C2215 C 0.03845 0.54292 0.15163 0.0
C2216 C 0.08355 0.54067 0.16888 0.0
H2217 H 0.11381 0.57534 0.25321 0.0
H2218 H 0.09407 0.57128 0.22698 0.0
H2219 H 0.11089 0.54614 0.18239 0.0
H2220 H 0.0366 0.50393 0.11854 0.0
H2221 H 0.05867 0.51219 0.14382 0.0
H2222 H 0.04109 0.53858 0.18717 0.0
C2223 C 0.10187 0.56259 0.22842 0.0
C2224 C 0.09565 0.54445 0.18361 0.0
C2225 C 0.11331 0.56505 0.24336 0.0
C2226 C 0.03714 0.51504 0.12755 0.0
C2227 C 0.04979 0.51978 0.14204 0.0
C2228 C 0.05641 0.54047 0.18591 0.0
C2229 C 0.10067 0.54918 0.21544 0.0
C2230 C 0.08821 0.54614 0.19968 0.0
C2231 C 0.05056 0.53374 0.15429 0.0
C2232 C 0.06372 0.53846 0.16987 0.0
H2233 H 0.13062 0.53228 0.23392 0.0
H2234 H 0.11046 0.52777 0.20805 0.0
H2235 H 0.06222 0.54522 0.21286 0.0
H2236 H 0.01681 0.54566 0.1354 0.0
H2237 H 0.03892 0.55397 0.16066 0.0
C2238 C 0.4738 0.55355 0.25081 0.0
C2239 C 0.45941 0.56032 0.25151 0.0
C2240 C 0.47814 0.54734 0.23526 0.0
C2241 C 0.48147 0.55905 0.19036 0.0
H2242 H 0.48644 0.51113 0.18344 0.0
C2243 C 0.5318 0.55183 0.13797 0.0
C2244 C 0.52215 0.53445 0.12753 0.0
C2245 C 0.52175 0.55353 0.15239 0.0
C2246 C 0.48496 0.52448 0.18518 0.0
H2247 H 0.43785 0.56541 0.23669 0.0
H2248 H 0.44575 0.55492 0.20937 0.0
H2249 H 0.47229 0.51559 0.21039 0.0
H2250 H 0.49457 0.50516 0.12395 0.0
H2251 H 0.47715 0.50789 0.14964 0.0
H2252 H 0.49496 0.56839 0.1655 0.0
C2253 C 0.45348 0.55422 0.22089 0.0
C2254 C 0.47697 0.52706 0.20057 0.0
C2255 C 0.44887 0.56007 0.2365 0.0
C2256 C 0.50227 0.51874 0.13179 0.0
C2257 C 0.49238 0.52025 0.14647 0.0
C2258 C 0.48983 0.55667 0.17514 0.0
C2259 C 0.46844 0.54816 0.22008 0.0
C2260 C 0.47528 0.54444 0.20334 0.0
C2261 C 0.50202 0.53771 0.15685 0.0
C2262 C 0.49181 0.53946 0.17247 0.0
H2263 H 0.48216 0.55367 0.26222 0.0
H2264 H 0.48984 0.54287 0.23496 0.0
H2265 H 0.48052 0.57268 0.19223 0.0
H2266 H 0.54709 0.56417 0.13489 0.0
H2267 H 0.52955 0.56708 0.16026 0.0
C2268 C 0.89698 0.44694 0.79173 0.0
C2269 C 0.90482 0.44673 0.77548 0.0
C2270 C 0.91018 0.45428 0.80593 0.0
C2271 C 0.94143 0.47549 0.83431 0.0
H2272 H 0.98518 0.46207 0.83485 0.0
C2273 C 0.99499 0.49198 0.89334 0.0
C2274 C 1.00084 0.4775 0.89716 0.0
C2275 C 0.98469 0.49077 0.87799 0.0
C2276 C 0.97292 0.46578 0.83501 0.0
H2277 H 0.93264 0.45518 0.76104 0.0
H2278 H 0.95592 0.46889 0.78567 0.0
H2279 H 0.9646 0.45592 0.80917 0.0
H2280 H 1.00001 0.45013 0.88824 0.0
H2281 H 0.9815 0.44756 0.86184 0.0
H2282 H 0.94895 0.48409 0.86058 0.0
C2283 C 0.9395 0.46273 0.78764 0.0
C2284 C 0.96132 0.46261 0.8201 0.0
C2285 C 0.92623 0.45506 0.77349 0.0
C2286 C 0.99597 0.46167 0.88548 0.0
C2287 C 0.98546 0.4603 0.87029 0.0
C2288 C 0.95287 0.4784 0.84933 0.0
C2289 C 0.93158 0.46184 0.80416 0.0
C2290 C 0.9452 0.46714 0.81959 0.0
C2291 C 0.97979 0.4749 0.86625 0.0
C2292 C 0.96856 0.47326 0.84996 0.0
H2293 H 0.88048 0.44036 0.79363 0.0
H2294 H 0.90338 0.45302 0.8184 0.0
H2295 H 0.92941 0.47951 0.83436 0.0
H2296 H 0.99871 0.50442 0.90209 0.0
H2297 H 0.98082 0.50244 0.87526 0.0
C2298 C 0.57061 0.45042 0.78842 0.0
C2299 C 0.57509 0.46409 0.77485 0.0
C2300 C 0.56225 0.45275 0.80369 0.0
C2301 C 0.55808 0.49141 0.82926 0.0
H2302 H 0.5149 0.44502 0.85312 0.0
C2303 C 0.49646 0.47402 0.88721 0.0
C2304 C 0.50948 0.48817 0.89956 0.0
C2305 C 0.50468 0.47043 0.87244 0.0
C2306 C 0.52691 0.45814 0.84658 0.0
H2307 H 0.57356 0.49048 0.76652 0.0
H2308 H 0.55903 0.49455 0.79315 0.0
H2309 H 0.52805 0.43997 0.82608 0.0
H2310 H 0.54142 0.50948 0.90614 0.0
H2311 H 0.55583 0.50307 0.88039 0.0
H2312 H 0.55671 0.50962 0.84959 0.0
C2313 C 0.56231 0.48223 0.79208 0.0
C2314 C 0.53457 0.45523 0.83116 0.0
C2315 C 0.5706 0.47988 0.77681 0.0
C2316 C 0.53098 0.4984 0.89693 0.0
C2317 C 0.53921 0.49488 0.88209 0.0
C2318 C 0.55048 0.49432 0.8447 0.0
C2319 C 0.55823 0.46883 0.80578 0.0
C2320 C 0.55017 0.47184 0.82226 0.0
C2321 C 0.52613 0.48094 0.86962 0.0
C2322 C 0.53473 0.47773 0.85351 0.0
H2323 H 0.57417 0.43829 0.78747 0.0
H2324 H 0.5595 0.44229 0.81405 0.0
H2325 H 0.57028 0.50451 0.82284 0.0
H2326 H 0.47984 0.4657 0.88894 0.0
H2327 H 0.49415 0.45973 0.86303 0.0
C2328 C 0.54905 0.12731 0.79035 0.0
C2329 C 0.55659 0.12115 0.77651 0.0
C2330 C 0.54505 0.11734 0.80603 0.0
C2331 C 0.55265 0.0803 0.83166 0.0
H2332 H 0.50093 0.06977 0.85209 0.0
C2333 C 0.52296 0.0385 0.89668 0.0
C2334 C 0.50169 0.02426 0.89753 0.0
C2335 C 0.53112 0.05138 0.88254 0.0
C2336 C 0.51536 0.07246 0.84654 0.0
H2337 H 0.56684 0.10041 0.76839 0.0
H2338 H 0.55948 0.08256 0.79581 0.0
H2339 H 0.51312 0.09018 0.82643 0.0
H2340 H 0.4723 0.01278 0.88431 0.0
H2341 H 0.48647 0.03481 0.85967 0.0
H2342 H 0.55438 0.06186 0.8516 0.0
C2343 C 0.55689 0.0953 0.79462 0.0
C2344 C 0.52254 0.08444 0.83191 0.0
C2345 C 0.56109 0.10547 0.77891 0.0
C2346 C 0.48878 0.02337 0.88401 0.0
C2347 C 0.4969 0.0362 0.86993 0.0
C2348 C 0.54542 0.06824 0.84636 0.0
C2349 C 0.54826 0.10077 0.80823 0.0
C2350 C 0.54124 0.08849 0.82421 0.0
C2351 C 0.51816 0.05038 0.86898 0.0
C2352 C 0.52657 0.06402 0.85388 0.0
H2353 H 0.54572 0.13956 0.7889 0.0
H2354 H 0.53897 0.12235 0.81633 0.0
H2355 H 0.56718 0.08322 0.82616 0.0
H2356 H 0.53337 0.03948 0.90681 0.0
H2357 H 0.54754 0.06224 0.88229 0.0
C2358 C 0.11707 0.25232 0.58328 0.0
C2359 C 0.11337 0.23244 0.58547 0.0
C2360 C 0.12498 0.26259 0.5679 0.0
C2361 C 0.12935 0.25417 0.522 0.0
H2362 H 0.17141 0.31111 0.5227 0.0
C2363 C 0.15216 0.30627 0.46218 0.0
C2364 C 0.17327 0.32057 0.46011 0.0
C2365 C 0.14519 0.29448 0.47702 0.0
C2366 C 0.15977 0.29517 0.52225 0.0
H2367 H 0.11515 0.20779 0.57316 0.0
H2368 H 0.12911 0.22581 0.54625 0.0
H2369 H 0.1592 0.2928 0.54956 0.0
H2370 H 0.20369 0.33276 0.47169 0.0
H2371 H 0.19154 0.31238 0.49752 0.0
H2372 H 0.12998 0.25661 0.49464 0.0
C2373 C 0.12577 0.23339 0.55646 0.0
C2374 C 0.15263 0.28472 0.53767 0.0
C2375 C 0.11799 0.22315 0.57193 0.0
C2376 C 0.18727 0.32226 0.473 0.0
C2377 C 0.18031 0.31056 0.48783 0.0
C2378 C 0.13641 0.26468 0.50655 0.0
C2379 C 0.1293 0.25322 0.55425 0.0
C2380 C 0.13729 0.26411 0.53775 0.0
C2381 C 0.15916 0.29674 0.49015 0.0
C2382 C 0.15171 0.28532 0.50649 0.0
H2383 H 0.1138 0.25995 0.5935 0.0
H2384 H 0.12735 0.27778 0.56658 0.0
H2385 H 0.1174 0.23834 0.52162 0.0
H2386 H 0.14092 0.30468 0.45259 0.0
H2387 H 0.12877 0.28407 0.47846 0.0
C2388 C 0.76432 0.87329 0.58061 0.0
C2389 C 0.78543 0.88807 0.5806 0.0
C2390 C 0.75201 0.87019 0.56613 0.0
C2391 C 0.75605 0.87727 0.51942 0.0
H2392 H 0.69948 0.86614 0.5227 0.0
C2393 C 0.69902 0.84663 0.46229 0.0
C2394 C 0.68599 0.85484 0.45981 0.0
C2395 C 0.71122 0.85124 0.47706 0.0
C2396 C 0.7153 0.86937 0.52155 0.0
H2397 H 0.81009 0.91138 0.56541 0.0
H2398 H 0.78854 0.90623 0.54029 0.0
H2399 H 0.72058 0.87392 0.54858 0.0
H2400 H 0.67593 0.87469 0.4708 0.0
H2401 H 0.69714 0.88264 0.49658 0.0
H2402 H 0.75087 0.87292 0.4924 0.0
C2403 C 0.78154 0.89688 0.55143 0.0
C2404 C 0.72732 0.87363 0.5364 0.0
C2405 C 0.79383 0.90001 0.56592 0.0
C2406 C 0.68552 0.86783 0.47243 0.0
C2407 C 0.69768 0.8724 0.48721 0.0
C2408 C 0.74402 0.87295 0.50459 0.0
C2409 C 0.76056 0.88175 0.55128 0.0
C2410 C 0.74784 0.87762 0.53551 0.0
C2411 C 0.71065 0.86414 0.48971 0.0
C2412 C 0.72349 0.86891 0.50548 0.0
H2413 H 0.75736 0.86395 0.59177 0.0
H2414 H 0.73593 0.85833 0.56639 0.0
H2415 H 0.77172 0.88004 0.5183 0.0
H2416 H 0.69952 0.83634 0.45296 0.0
H2417 H 0.72082 0.8444 0.47871 0.0
C2418 C 0.11568 0.89501 0.56928 0.0
C2419 C 0.12643 0.89529 0.58416 0.0
C2420 C 0.12018 0.88927 0.55356 0.0
C2421 C 0.14381 0.86248 0.53277 0.0
H2422 H 0.16091 0.90376 0.49774 0.0
C2423 C 0.16872 0.85452 0.46373 0.0
C2424 C 0.18845 0.87041 0.45936 0.0
C2425 C 0.15885 0.8559 0.47848 0.0
C2426 C 0.15603 0.89205 0.50736 0.0
H2427 H 0.14944 0.8888 0.59454 0.0
H2428 H 0.15693 0.8782 0.56711 0.0
H2429 H 0.14669 0.90785 0.52467 0.0
H2430 H 0.21314 0.90032 0.46659 0.0
H2431 H 0.19564 0.90299 0.49209 0.0
H2432 H 0.15333 0.84677 0.51543 0.0
C2433 C 0.14515 0.88256 0.56758 0.0
C2434 C 0.14779 0.89431 0.5227 0.0
C2435 C 0.14093 0.88867 0.58323 0.0
C2436 C 0.19796 0.88784 0.46975 0.0
C2437 C 0.18793 0.8894 0.48425 0.0
C2438 C 0.15168 0.86001 0.51726 0.0
C2439 C 0.13524 0.88335 0.55252 0.0
C2440 C 0.14193 0.87973 0.53566 0.0
C2441 C 0.16837 0.87339 0.48883 0.0
C2442 C 0.15822 0.87498 0.50456 0.0
H2443 H 0.10458 0.90024 0.56964 0.0
H2444 H 0.11228 0.88994 0.54214 0.0
H2445 H 0.13938 0.85102 0.54256 0.0
H2446 H 0.16113 0.8409 0.45593 0.0
H2447 H 0.14374 0.84338 0.48175 0.0
C2448 C 0.5605 0.77821 0.1256 0.0
C2449 C 0.56973 0.77816 0.10998 0.0
C2450 C 0.57231 0.78478 0.1406 0.0
C2451 C 0.62454 0.81406 0.15858 0.0
H2452 H 0.60424 0.7731 0.19407 0.0
C2453 C 0.6599 0.82488 0.22728 0.0
C2454 C 0.66497 0.81001 0.23177 0.0
C2455 C 0.64855 0.82273 0.21235 0.0
C2456 C 0.61002 0.78469 0.18429 0.0
H2457 H 0.59868 0.78598 0.09757 0.0
H2458 H 0.6195 0.79793 0.12385 0.0
H2459 H 0.58381 0.76738 0.16799 0.0
H2460 H 0.66206 0.78122 0.22441 0.0
H2461 H 0.64173 0.77719 0.19855 0.0
H2462 H 0.65079 0.83136 0.17502 0.0
C2463 C 0.6031 0.79275 0.12445 0.0
C2464 C 0.5983 0.78149 0.16945 0.0
C2465 C 0.59121 0.78586 0.10947 0.0
C2466 C 0.65844 0.79294 0.22116 0.0
C2467 C 0.64676 0.79059 0.20645 0.0
C2468 C 0.6361 0.81744 0.17362 0.0
C2469 C 0.59363 0.79171 0.14022 0.0
C2470 C 0.60555 0.79602 0.15638 0.0
C2471 C 0.64172 0.80546 0.20192 0.0
C2472 C 0.62904 0.80263 0.18647 0.0
H2473 H 0.54394 0.77216 0.12639 0.0
H2474 H 0.56469 0.78392 0.1526 0.0
H2475 H 0.63043 0.82547 0.14866 0.0
H2476 H 0.66484 0.8382 0.23527 0.0
H2477 H 0.64477 0.83435 0.20912 0.0
C2478 C 0.23916 0.81398 0.10959 0.0
C2479 C 0.24315 0.79785 0.10785 0.0
C2480 C 0.23103 0.81677 0.12479 0.0
C2481 C 0.20259 0.79014 0.16377 0.0
H2482 H 0.22465 0.84464 0.18192 0.0
C2483 C 0.19814 0.8335 0.22908 0.0
C2484 C 0.17661 0.82318 0.23154 0.0
C2485 C 0.20658 0.83004 0.21434 0.0
C2486 C 0.21844 0.82931 0.1771 0.0
H2487 H 0.24179 0.77205 0.12087 0.0
H2488 H 0.22745 0.77682 0.14729 0.0
H2489 H 0.23859 0.83933 0.15544 0.0
H2490 H 0.14713 0.80067 0.22069 0.0
H2491 H 0.1618 0.79483 0.19496 0.0
H2492 H 0.18259 0.7801 0.18552 0.0
C2493 C 0.23038 0.78718 0.13681 0.0
C2494 C 0.22625 0.82629 0.16181 0.0
C2495 C 0.23855 0.78442 0.12163 0.0
C2496 C 0.16376 0.80905 0.21909 0.0
C2497 C 0.17219 0.80554 0.20442 0.0
C2498 C 0.19473 0.79317 0.17902 0.0
C2499 C 0.22664 0.80347 0.13863 0.0
C2500 C 0.21838 0.80667 0.15493 0.0
C2501 C 0.19369 0.81609 0.20179 0.0
C2502 C 0.20251 0.8128 0.18585 0.0
H2503 H 0.24227 0.82445 0.09916 0.0
H2504 H 0.22802 0.82928 0.12566 0.0
H2505 H 0.19607 0.77485 0.15877 0.0
H2506 H 0.20844 0.84457 0.23836 0.0
H2507 H 0.22322 0.83826 0.21279 0.0
C2508 C 0.2307 0.44965 0.11924 0.0
C2509 C 0.2164 0.44212 0.1056 0.0
C2510 C 0.22673 0.43872 0.13452 0.0
C2511 C 0.19212 0.38745 0.15331 0.0
H2512 H 0.20486 0.41709 0.19625 0.0
C2513 C 0.15123 0.34998 0.21598 0.0
C2514 C 0.16371 0.3527 0.23043 0.0
C2515 C 0.15966 0.36133 0.20117 0.0
C2516 C 0.20141 0.40864 0.18436 0.0
H2517 H 0.18719 0.41667 0.09713 0.0
H2518 H 0.17993 0.39812 0.12372 0.0
H2519 H 0.21631 0.43569 0.16933 0.0
H2520 H 0.19495 0.37021 0.24059 0.0
H2521 H 0.2095 0.39057 0.21479 0.0
H2522 H 0.17646 0.36046 0.16834 0.0
C2523 C 0.19439 0.41229 0.12268 0.0
C2524 C 0.20804 0.41927 0.16891 0.0
C2525 C 0.19842 0.42311 0.10744 0.0
C2526 C 0.18478 0.36775 0.22983 0.0
C2527 C 0.19317 0.37937 0.21502 0.0
C2528 C 0.18527 0.37689 0.16869 0.0
C2529 C 0.20835 0.42 0.13654 0.0
C2530 C 0.20316 0.40881 0.15313 0.0
C2531 C 0.18075 0.37598 0.20045 0.0
C2532 C 0.18955 0.38736 0.18435 0.0
H2533 H 0.24466 0.4643 0.11832 0.0
H2534 H 0.23799 0.44504 0.1448 0.0
H2535 H 0.18852 0.37881 0.14152 0.0
H2536 H 0.13484 0.33902 0.21606 0.0
H2537 H 0.14963 0.35868 0.19025 0.0
C2538 C 0.79707 0.57029 0.91306 0.0
C2539 C 0.77565 0.55829 0.91578 0.0
C2540 C 0.80463 0.58015 0.8974 0.0
C2541 C 0.78828 0.5986 0.85999 0.0
H2542 H 0.8378 0.60406 0.83899 0.0
C2543 C 0.81588 0.63609 0.79385 0.0
C2544 C 0.8372 0.64972 0.79213 0.0
C2545 C 0.80826 0.62354 0.80821 0.0
C2546 C 0.82403 0.60281 0.84475 0.0
H2547 H 0.74548 0.54629 0.90379 0.0
H2548 H 0.75861 0.56332 0.87659 0.0
H2549 H 0.825 0.58489 0.86548 0.0
H2550 H 0.86727 0.66014 0.80386 0.0
H2551 H 0.85399 0.63863 0.82898 0.0
H2552 H 0.78739 0.61667 0.83945 0.0
C2553 C 0.76958 0.56559 0.88667 0.0
C2554 C 0.81671 0.59183 0.85996 0.0
C2555 C 0.76205 0.5558 0.90227 0.0
C2556 C 0.85073 0.65004 0.80488 0.0
C2557 C 0.84313 0.63751 0.81921 0.0
C2558 C 0.7956 0.60957 0.84483 0.0
C2559 C 0.79094 0.57817 0.88409 0.0
C2560 C 0.79874 0.58961 0.86779 0.0
C2561 C 0.82177 0.62428 0.82119 0.0
C2562 C 0.81361 0.61189 0.83702 0.0
H2563 H 0.80794 0.57259 0.92323 0.0
H2564 H 0.82117 0.58983 0.89591 0.0
H2565 H 0.77462 0.59754 0.86581 0.0
H2566 H 0.805 0.6355 0.78434 0.0
H2567 H 0.79174 0.61334 0.80919 0.0
C2568 C 0.43332 0.20477 0.91364 0.0
C2569 C 0.45401 0.22063 0.91376 0.0
C2570 C 0.4207 0.20131 0.89929 0.0
C2571 C 0.41566 0.2253 0.85988 0.0
H2572 H 0.38198 0.16979 0.84396 0.0
C2573 C 0.3665 0.17887 0.79591 0.0
C2574 C 0.35516 0.18877 0.7928 0.0
C2575 C 0.37833 0.18292 0.81085 0.0
C2576 C 0.39139 0.18538 0.84819 0.0
H2577 H 0.47756 0.24538 0.89886 0.0
H2578 H 0.4555 0.23948 0.87398 0.0
H2579 H 0.4028 0.17681 0.86992 0.0
H2580 H 0.3477 0.21097 0.80278 0.0
H2581 H 0.36816 0.21788 0.8289 0.0
H2582 H 0.40451 0.2339 0.838 0.0
C2583 C 0.44897 0.22984 0.88505 0.0
C2584 C 0.40312 0.18938 0.86317 0.0
C2585 C 0.4616 0.23325 0.89935 0.0
C2586 C 0.35608 0.20293 0.80489 0.0
C2587 C 0.36797 0.20705 0.81977 0.0
C2588 C 0.40385 0.22129 0.84495 0.0
C2589 C 0.42846 0.21367 0.88476 0.0
C2590 C 0.41545 0.20939 0.86916 0.0
C2591 C 0.37917 0.19704 0.82296 0.0
C2592 C 0.39164 0.20129 0.83889 0.0
H2593 H 0.42689 0.19494 0.92461 0.0
H2594 H 0.40486 0.18892 0.89957 0.0
H2595 H 0.42488 0.24087 0.86422 0.0
H2596 H 0.36598 0.16777 0.78691 0.0
H2597 H 0.38695 0.17511 0.81286 0.0
C2598 C 0.7818 0.22843 0.90242 0.0
C2599 C 0.79166 0.22792 0.9176 0.0
C2600 C 0.78655 0.22263 0.88685 0.0
C2601 C 0.80919 0.19454 0.86671 0.0
H2602 H 0.82919 0.23663 0.8322 0.0
C2603 C 0.83557 0.1865 0.79829 0.0
C2604 C 0.85567 0.20198 0.79429 0.0
C2605 C 0.82556 0.18808 0.81286 0.0
C2606 C 0.82352 0.2247 0.84168 0.0
H2607 H 0.81329 0.21994 0.92863 0.0
H2608 H 0.8212 0.20924 0.90143 0.0
H2609 H 0.81446 0.24094 0.85874 0.0
H2610 H 0.88088 0.23139 0.80203 0.0
H2611 H 0.86316 0.23441 0.82723 0.0
H2612 H 0.81842 0.17837 0.84961 0.0
C2613 C 0.80993 0.21427 0.90157 0.0
C2614 C 0.81497 0.22709 0.85679 0.0
C2615 C 0.80547 0.22042 0.91709 0.0
C2616 C 0.86542 0.21921 0.8049 0.0
C2617 C 0.85527 0.22098 0.81923 0.0
C2618 C 0.81737 0.19196 0.85142 0.0
C2619 C 0.80097 0.21586 0.88623 0.0
C2620 C 0.80804 0.2122 0.86957 0.0
C2621 C 0.83531 0.20538 0.82341 0.0
C2622 C 0.82495 0.2072 0.83892 0.0
H2623 H 0.77126 0.23434 0.90246 0.0
H2624 H 0.77938 0.22392 0.87521 0.0
H2625 H 0.80394 0.18283 0.87636 0.0
H2626 H 0.82778 0.17304 0.79031 0.0
H2627 H 0.81015 0.17588 0.81581 0.0
C2628 C 0.23019 0.11222 0.45913 0.0
C2629 C 0.23806 0.11232 0.44283 0.0
C2630 C 0.24338 0.11948 0.47334 0.0
C2631 C 0.27462 0.14105 0.50163 0.0
H2632 H 0.31896 0.12846 0.50211 0.0
C2633 C 0.32873 0.15884 0.56043 0.0
C2634 C 0.3349 0.14462 0.56433 0.0
C2635 C 0.31828 0.15732 0.5451 0.0
C2636 C 0.30654 0.13194 0.50229 0.0
H2637 H 0.26593 0.12116 0.42833 0.0
H2638 H 0.28918 0.13467 0.45298 0.0
H2639 H 0.29816 0.12187 0.47649 0.0
H2640 H 0.33451 0.11739 0.55558 0.0
H2641 H 0.31573 0.11428 0.52921 0.0
H2642 H 0.28222 0.14989 0.52784 0.0
C2643 C 0.27275 0.12835 0.45498 0.0
C2644 C 0.2948 0.1285 0.48742 0.0
C2645 C 0.25949 0.12077 0.44082 0.0
C2646 C 0.33021 0.12874 0.55276 0.0
C2647 C 0.31955 0.12706 0.53758 0.0
C2648 C 0.2862 0.14423 0.51661 0.0
C2649 C 0.26481 0.12726 0.47152 0.0
C2650 C 0.27848 0.13274 0.48692 0.0
C2651 C 0.31354 0.14139 0.53346 0.0
C2652 C 0.30211 0.13941 0.51722 0.0
H2653 H 0.21368 0.10554 0.46105 0.0
H2654 H 0.23657 0.11805 0.48583 0.0
H2655 H 0.26244 0.14485 0.50168 0.0
H2656 H 0.33231 0.17131 0.5691 0.0
H2657 H 0.31415 0.16879 0.5423 0.0
C2658 C 0.90553 0.14653 0.44405 0.0
C2659 C 0.90929 0.13026 0.44217 0.0
C2660 C 0.8975 0.14931 0.45931 0.0
C2661 C 0.86904 0.12267 0.49826 0.0
H2662 H 0.89189 0.17718 0.51661 0.0
C2663 C 0.86564 0.16627 0.56379 0.0
C2664 C 0.84412 0.15622 0.56632 0.0
C2665 C 0.87388 0.16265 0.54902 0.0
C2666 C 0.88546 0.16184 0.51174 0.0
H2667 H 0.90754 0.10417 0.45493 0.0
H2668 H 0.89338 0.10893 0.48148 0.0
H2669 H 0.90552 0.17172 0.49004 0.0
H2670 H 0.81446 0.13401 0.55555 0.0
H2671 H 0.8288 0.12791 0.52973 0.0
H2672 H 0.84913 0.11277 0.52007 0.0
C2673 C 0.89644 0.11942 0.47107 0.0
C2674 C 0.8931 0.15874 0.4964 0.0
C2675 C 0.90451 0.11666 0.45583 0.0
C2676 C 0.83109 0.14219 0.5539 0.0
C2677 C 0.83932 0.13852 0.53918 0.0
C2678 C 0.86136 0.12578 0.51358 0.0
C2679 C 0.89299 0.13587 0.47305 0.0
C2680 C 0.88493 0.13913 0.48944 0.0
C2681 C 0.86081 0.14881 0.53649 0.0
C2682 C 0.86943 0.14541 0.52048 0.0
H2683 H 0.90877 0.15713 0.4337 0.0
H2684 H 0.89469 0.16194 0.4603 0.0
H2685 H 0.8623 0.10739 0.4932 0.0
H2686 H 0.87609 0.17726 0.57306 0.0
H2687 H 0.89052 0.17067 0.54741 0.0
C2688 C 0.89362 0.7697 0.44318 0.0
C2689 C 0.88809 0.7848 0.44186 0.0
C2690 C 0.89042 0.75898 0.45849 0.0
C2691 C 0.88164 0.76039 0.5049 0.0
H2692 H 0.85063 0.70175 0.50118 0.0
C2693 C 0.84082 0.70919 0.56311 0.0
C2694 C 0.83868 0.68979 0.56372 0.0
C2695 C 0.84931 0.72148 0.54871 0.0
C2696 C 0.85966 0.71808 0.50254 0.0
H2697 H 0.8759 0.80125 0.45568 0.0
H2698 H 0.87063 0.78281 0.48242 0.0
H2699 H 0.86198 0.72218 0.47536 0.0
H2700 H 0.84467 0.66842 0.55011 0.0
H2701 H 0.86009 0.69001 0.52527 0.0
H2702 H 0.87945 0.7564 0.53205 0.0
C2703 C 0.87729 0.77913 0.47166 0.0
C2704 C 0.86613 0.7298 0.48767 0.0
C2705 C 0.88019 0.78959 0.45633 0.0
C2706 C 0.84586 0.68321 0.54989 0.0
C2707 C 0.8546 0.69558 0.5356 0.0
C2708 C 0.8754 0.74867 0.51979 0.0
C2709 C 0.88199 0.76344 0.47284 0.0
C2710 C 0.87691 0.75108 0.48867 0.0
C2711 C 0.85613 0.71477 0.53465 0.0
C2712 C 0.86403 0.72733 0.51883 0.0
H2713 H 0.89967 0.76568 0.4322 0.0
H2714 H 0.89431 0.74705 0.45906 0.0
H2715 H 0.89012 0.77677 0.50607 0.0
H2716 H 0.83524 0.71459 0.57352 0.0
H2717 H 0.8499 0.73599 0.54842 0.0
loop_
_geom_bond_atom_site_label_1
_geom_bond_atom_site_label_2
_geom_bond_distance
_geom_bond_site_symmetry_2
_ccdc_geom_bond_type
H0 C1 0.949 . S
C1 H0 0.949 . S
C1 C2 1.395 . S
C1 C3 1.391 . S
C2 C1 1.395 . S
C2 C5 1.390 . S
C3 C1 1.391 . S
C3 C7 1.387 . S
C3 C8 1.491 . S
H4 C5 0.950 . S
C5 C2 1.390 . S
C5 H4 0.950 . S
C5 C6 1.378 . S
C6 C5 1.378 . S
C6 C7 1.409 . S
C7 C3 1.387 . S
C7 C6 1.409 . S
C7 H9 0.951 . S
C8 C3 1.491 . S
C8 C10 1.382 . S
C8 C12 1.404 . S
H9 C7 0.951 . S
C10 C8 1.382 . S
C10 C11 1.390 . S
C10 H15 0.949 . S
C11 C10 1.390 . S
C11 C16 1.399 . S
C12 C8 1.404 . S
C12 H13 0.950 . S
C12 C14 1.375 . S
H13 C12 0.950 . S
C14 C12 1.375 . S
C14 C16 1.382 . S
C14 H18 0.950 . S
H15 C10 0.949 . S
C16 C11 1.399 . S
C16 C14 1.382 . S
C16 H17 0.952 . S
H17 C16 0.952 . S
H18 C14 0.950 . S
H19 C20 0.949 . S
C20 H19 0.949 . S
C20 C21 1.395 . S
C20 C22 1.391 . S
C21 C20 1.395 . S
C21 C24 1.390 . S
C22 C20 1.391 . S
C22 C26 1.387 . S
C22 C27 1.491 . S
H23 C24 0.950 . S
C24 C21 1.390 . S
C24 H23 0.950 . S
C24 C25 1.378 . S
C25 C24 1.378 . S
C25 C26 1.409 . S
C26 C22 1.387 . S
C26 C25 1.409 . S
C26 H28 0.951 . S
C27 C22 1.491 . S
C27 C29 1.382 . S
C27 C31 1.404 . S
H28 C26 0.951 . S
C29 C27 1.382 . S
C29 C30 1.390 . S
C29 H34 0.949 . S
C30 C29 1.390 . S
C30 C35 1.399 . S
C31 C27 1.404 . S
C31 H32 0.950 . S
C31 C33 1.375 . S
H32 C31 0.950 . S
C33 C31 1.375 . S
C33 C35 1.382 . S
C33 H37 0.950 . S
H34 C29 0.949 . S
C35 C30 1.399 . S
C35 C33 1.382 . S
C35 H36 0.952 . S
H36 C35 0.952 . S
H37 C33 0.950 . S
H38 C39 0.949 . S
C39 H38 0.949 . S
C39 C40 1.395 . S
C39 C41 1.391 . S
C40 C39 1.395 . S
C40 C43 1.390 . S
C41 C39 1.391 . S
C41 C45 1.387 . S
C41 C46 1.491 . S
H42 C43 0.950 . S
C43 C40 1.390 . S
C43 H42 0.950 . S
C43 C44 1.378 . S
C44 C43 1.378 . S
C44 C45 1.409 . S
C45 C41 1.387 . S
C45 C44 1.409 . S
C45 H47 0.951 . S
C46 C41 1.491 . S
C46 C48 1.382 . S
C46 C50 1.404 . S
H47 C45 0.951 . S
C48 C46 1.382 . S
C48 C49 1.390 . S
C48 H53 0.949 . S
C49 C48 1.390 . S
C49 C54 1.399 . S
C50 C46 1.404 . S
C50 H51 0.950 . S
C50 C52 1.375 . S
H51 C50 0.950 . S
C52 C50 1.375 . S
C52 C54 1.382 . S
C52 H56 0.950 . S
H53 C48 0.949 . S
C54 C49 1.399 . S
C54 C52 1.382 . S
C54 H55 0.952 . S
H55 C54 0.952 . S
H56 C52 0.950 . S
H57 C58 0.949 . S
C58 H57 0.949 . S
C58 C59 1.395 . S
C58 C60 1.391 . S
C59 C58 1.395 . S
C59 C62 1.390 . S
C60 C58 1.391 . S
C60 C64 1.387 . S
C60 C65 1.491 . S
H61 C62 0.950 . S
C62 C59 1.390 . S
C62 H61 0.950 . S
C62 C63 1.378 . S
C63 C62 1.378 . S
C63 C64 1.409 . S
C64 C60 1.387 . S
C64 C63 1.409 . S
C64 H66 0.951 . S
C65 C60 1.491 . S
C65 C67 1.382 . S
C65 C69 1.404 . S
H66 C64 0.951 . S
C67 C65 1.382 . S
C67 C68 1.390 . S
C67 H72 0.949 . S
C68 C67 1.390 . S
C68 C73 1.399 . S
C69 C65 1.404 . S
C69 H70 0.950 . S
C69 C71 1.375 . S
H70 C69 0.950 . S
C71 C69 1.375 . S
C71 C73 1.382 . S
C71 H75 0.950 . S
H72 C67 0.949 . S
C73 C68 1.399 . S
C73 C71 1.382 . S
C73 H74 0.952 . S
H74 C73 0.952 . S
H75 C71 0.950 . S
H76 C77 0.949 . S
C77 H76 0.949 . S
C77 C78 1.395 . S
C77 C79 1.391 . S
C78 C77 1.395 . S
C78 C81 1.390 . S
C79 C77 1.391 . S
C79 C83 1.387 . S
C79 C84 1.491 . S
H80 C81 0.950 . S
C81 C78 1.390 . S
C81 H80 0.950 . S
C81 C82 1.378 . S
C82 C81 1.378 . S
C82 C83 1.409 . S
C83 C79 1.387 . S
C83 C82 1.409 . S
C83 H85 0.951 . S
C84 C79 1.491 . S
C84 C86 1.382 . S
C84 C88 1.404 . S
H85 C83 0.951 . S
C86 C84 1.382 . S
C86 C87 1.390 . S
C86 H91 0.949 . S
C87 C86 1.390 . S
C87 C92 1.399 . S
C88 C84 1.404 . S
C88 H89 0.950 . S
C88 C90 1.375 . S
H89 C88 0.950 . S
C90 C88 1.375 . S
C90 C92 1.382 . S
C90 H94 0.950 . S
H91 C86 0.949 . S
C92 C87 1.399 . S
C92 C90 1.382 . S
C92 H93 0.952 . S
H93 C92 0.952 . S
H94 C90 0.950 . S
H95 C96 0.949 . S
C96 H95 0.949 . S
C96 C97 1.395 . S
C96 C98 1.391 . S
C97 C96 1.395 . S
C97 C100 1.390 . S
C98 C96 1.391 . S
C98 C102 1.387 . S
C98 C103 1.491 . S
H99 C100 0.950 . S
C100 C97 1.390 . S
C100 H99 0.950 . S
C100 C101 1.378 . S
C101 C100 1.378 . S
C101 C102 1.409 . S
C102 C98 1.387 . S
C102 C101 1.409 . S
C102 H104 0.951 . S
C103 C98 1.491 . S
C103 C105 1.382 . S
C103 C107 1.404 . S
H104 C102 0.951 . S
C105 C103 1.382 . S
C105 C106 1.390 . S
C105 H110 0.949 . S
C106 C105 1.390 . S
C106 C111 1.399 . S
C107 C103 1.404 . S
C107 H108 0.950 . S
C107 C109 1.375 . S
H108 C107 0.950 . S
C109 C107 1.375 . S
C109 C111 1.382 . S
C109 H113 0.950 . S
H110 C105 0.949 . S
C111 C106 1.399 . S
C111 C109 1.382 . S
C111 H112 0.952 . S
H112 C111 0.952 . S
H113 C109 0.950 . S
H114 C115 0.949 . S
C115 H114 0.949 . S
C115 C116 1.395 . S
C115 C117 1.391 . S
C116 C115 1.395 . S
C116 C119 1.390 . S
C117 C115 1.391 . S
C117 C121 1.387 . S
C117 C122 1.491 . S
H118 C119 0.950 . S
C119 C116 1.390 . S
C119 H118 0.950 . S
C119 C120 1.378 . S
C120 C119 1.378 . S
C120 C121 1.409 . S
C121 C117 1.387 . S
C121 C120 1.409 . S
C121 H123 0.951 . S
C122 C117 1.491 . S
C122 C124 1.382 . S
C122 C126 1.404 . S
H123 C121 0.951 . S
C124 C122 1.382 . S
C124 C125 1.390 . S
C124 H129 0.949 . S
C125 C124 1.390 . S
C125 C130 1.399 . S
C126 C122 1.404 . S
C126 H127 0.950 . S
C126 C128 1.375 . S
H127 C126 0.950 . S
C128 C126 1.375 . S
C128 C130 1.382 . S
C128 H132 0.950 . S
H129 C124 0.949 . S
C130 C125 1.399 . S
C130 C128 1.382 . S
C130 H131 0.952 . S
H131 C130 0.952 . S
H132 C128 0.950 . S
H133 C134 0.949 . S
C134 H133 0.949 . S
C134 C135 1.395 . S
C134 C136 1.391 . S
C135 C134 1.395 . S
C135 C138 1.390 . S
C136 C134 1.391 . S
C136 C140 1.387 . S
C136 C141 1.491 . S
H137 C138 0.950 . S
C138 C135 1.390 . S
C138 H137 0.950 . S
C138 C139 1.378 . S
C139 C138 1.378 . S
C139 C140 1.409 . S
C140 C136 1.387 . S
C140 C139 1.409 . S
C140 H142 0.951 . S
C141 C136 1.491 . S
C141 C143 1.382 . S
C141 C145 1.404 . S
H142 C140 0.951 . S
C143 C141 1.382 . S
C143 C144 1.390 . S
C143 H148 0.949 . S
C144 C143 1.390 . S
C144 C149 1.399 . S
C145 C141 1.404 . S
C145 H146 0.950 . S
C145 C147 1.375 . S
H146 C145 0.950 . S
C147 C145 1.375 . S
C147 C149 1.382 . S
C147 H151 0.950 . S
H148 C143 0.949 . S
C149 C144 1.399 . S
C149 C147 1.382 . S
C149 H150 0.952 . S
H150 C149 0.952 . S
H151 C147 0.950 . S
H152 C153 0.949 . S
C153 H152 0.949 . S
C153 C154 1.395 . S
C153 C155 1.391 . S
C154 C153 1.395 . S
C154 C157 1.390 . S
C155 C153 1.391 . S
C155 C159 1.387 . S
C155 C160 1.491 . S
H156 C157 0.950 . S
C157 C154 1.390 . S
C157 H156 0.950 . S
C157 C158 1.378 . S
C158 C157 1.378 . S
C158 C159 1.409 . S
C159 C155 1.387 . S
C159 C158 1.409 . S
C159 H161 0.951 . S
C160 C155 1.491 . S
C160 C162 1.382 . S
C160 C164 1.404 . S
H161 C159 0.951 . S
C162 C160 1.382 . S
C162 C163 1.390 . S
C162 H167 0.949 . S
C163 C162 1.390 . S
C163 C168 1.399 . S
C164 C160 1.404 . S
C164 H165 0.950 . S
C164 C166 1.375 . S
H165 C164 0.950 . S
C166 C164 1.375 . S
C166 C168 1.382 . S
C166 H170 0.950 . S
H167 C162 0.949 . S
C168 C163 1.399 . S
C168 C166 1.382 . S
C168 H169 0.952 . S
H169 C168 0.952 . S
H170 C166 0.950 . S
H171 C172 0.949 . S
C172 H171 0.949 . S
C172 C173 1.395 . S
C172 C174 1.391 . S
C173 C172 1.395 . S
C173 C176 1.390 . S
C174 C172 1.391 . S
C174 C178 1.387 . S
C174 C179 1.491 . S
H175 C176 0.950 . S
C176 C173 1.390 . S
C176 H175 0.950 . S
C176 C177 1.378 . S
C177 C176 1.378 . S
C177 C178 1.409 . S
C178 C174 1.387 . S
C178 C177 1.409 . S
C178 H180 0.951 . S
C179 C174 1.491 . S
C179 C181 1.382 . S
C179 C183 1.404 . S
H180 C178 0.951 . S
C181 C179 1.382 . S
C181 C182 1.390 . S
C181 H186 0.949 . S
C182 C181 1.390 . S
C182 C187 1.399 . S
C183 C179 1.404 . S
C183 H184 0.950 . S
C183 C185 1.375 . S
H184 C183 0.950 . S
C185 C183 1.375 . S
C185 C187 1.382 . S
C185 H189 0.950 . S
H186 C181 0.949 . S
C187 C182 1.399 . S
C187 C185 1.382 . S
C187 H188 0.952 . S
H188 C187 0.952 . S
H189 C185 0.950 . S
H190 C191 0.949 . S
C191 H190 0.949 . S
C191 C192 1.395 . S
C191 C193 1.391 . S
C192 C191 1.395 . S
C192 C195 1.390 . S
C193 C191 1.391 . S
C193 C197 1.387 . S
C193 C198 1.491 . S
H194 C195 0.950 . S
C195 C192 1.390 . S
C195 H194 0.950 . S
C195 C196 1.378 . S
C196 C195 1.378 . S
C196 C197 1.409 . S
C197 C193 1.387 . S
C197 C196 1.409 . S
C197 H199 0.951 . S
C198 C193 1.491 . S
C198 C200 1.382 . S
C198 C202 1.404 . S
H199 C197 0.951 . S
C200 C198 1.382 . S
C200 C201 1.390 . S
C200 H205 0.949 . S
C201 C200 1.390 . S
C201 C206 1.399 . S
C202 C198 1.404 . S
C202 H203 0.950 . S
C202 C204 1.375 . S
H203 C202 0.950 . S
C204 C202 1.375 . S
C204 C206 1.382 . S
C204 H208 0.950 . S
H205 C200 0.949 . S
C206 C201 1.399 . S
C206 C204 1.382 . S
C206 H207 0.952 . S
H207 C206 0.952 . S
H208 C204 0.950 . S
H209 C210 0.949 . S
C210 H209 0.949 . S
C210 C211 1.395 . S
C210 C212 1.391 . S
C211 C210 1.395 . S
C211 C214 1.390 . S
C212 C210 1.391 . S
C212 C216 1.387 . S
C212 C217 1.491 . S
H213 C214 0.950 . S
C214 C211 1.390 . S
C214 H213 0.950 . S
C214 C215 1.378 . S
C215 C214 1.378 . S
C215 C216 1.409 . S
C216 C212 1.387 . S
C216 C215 1.409 . S
C216 H218 0.951 . S
C217 C212 1.491 . S
C217 C219 1.382 . S
C217 C221 1.404 . S
H218 C216 0.951 . S
C219 C217 1.382 . S
C219 C220 1.390 . S
C219 H224 0.949 . S
C220 C219 1.390 . S
C220 C225 1.399 . S
C221 C217 1.404 . S
C221 H222 0.950 . S
C221 C223 1.375 . S
H222 C221 0.950 . S
C223 C221 1.375 . S
C223 C225 1.382 . S
C223 H227 0.950 . S
H224 C219 0.949 . S
C225 C220 1.399 . S
C225 C223 1.382 . S
C225 H226 0.952 . S
H226 C225 0.952 . S
H227 C223 0.950 . S
H228 C229 0.949 . S
C229 H228 0.949 . S
C229 C230 1.395 . S
C229 C231 1.391 . S
C230 C229 1.395 . S
C230 C233 1.390 . S
C231 C229 1.391 . S
C231 C235 1.387 . S
C231 C236 1.491 . S
H232 C233 0.950 . S
C233 C230 1.390 . S
C233 H232 0.950 . S
C233 C234 1.378 . S
C234 C233 1.378 . S
C234 C235 1.409 . S
C235 C231 1.387 . S
C235 C234 1.409 . S
C235 H237 0.951 . S
C236 C231 1.491 . S
C236 C238 1.382 . S
C236 C240 1.404 . S
H237 C235 0.951 . S
C238 C236 1.382 . S
C238 C239 1.390 . S
C238 H243 0.949 . S
C239 C238 1.390 . S
C239 C244 1.399 . S
C240 C236 1.404 . S
C240 H241 0.950 . S
C240 C242 1.375 . S
H241 C240 0.950 . S
C242 C240 1.375 . S
C242 C244 1.382 . S
C242 H246 0.950 . S
H243 C238 0.949 . S
C244 C239 1.399 . S
C244 C242 1.382 . S
C244 H245 0.952 . S
H245 C244 0.952 . S
H246 C242 0.950 . S
H247 C248 0.949 . S
C248 H247 0.949 . S
C248 C249 1.395 . S
C248 C250 1.391 . S
C249 C248 1.395 . S
C249 C252 1.390 . S
C250 C248 1.391 . S
C250 C254 1.387 . S
C250 C255 1.491 . S
H251 C252 0.950 . S
C252 C249 1.390 . S
C252 H251 0.950 . S
C252 C253 1.378 . S
C253 C252 1.378 . S
C253 C254 1.409 . S
C254 C250 1.387 . S
C254 C253 1.409 . S
C254 H256 0.951 . S
C255 C250 1.491 . S
C255 C257 1.382 . S
C255 C259 1.404 . S
H256 C254 0.951 . S
C257 C255 1.382 . S
C257 C258 1.390 . S
C257 H262 0.949 . S
C258 C257 1.390 . S
C258 C263 1.399 . S
C259 C255 1.404 . S
C259 H260 0.950 . S
C259 C261 1.375 . S
H260 C259 0.950 . S
C261 C259 1.375 . S
C261 C263 1.382 . S
C261 H265 0.950 . S
H262 C257 0.949 . S
C263 C258 1.399 . S
C263 C261 1.382 . S
C263 H264 0.952 . S
H264 C263 0.952 . S
H265 C261 0.950 . S
H266 C267 0.949 . S
C267 H266 0.949 . S
C267 C268 1.395 . S
C267 C269 1.391 . S
C268 C267 1.395 . S
C268 C271 1.390 . S
C269 C267 1.391 . S
C269 C273 1.387 . S
C269 C274 1.491 . S
H270 C271 0.950 . S
C271 C268 1.390 . S
C271 H270 0.950 . S
C271 C272 1.378 . S
C272 C271 1.378 . S
C272 C273 1.409 . S
C273 C269 1.387 . S
C273 C272 1.409 . S
C273 H275 0.951 . S
C274 C269 1.491 . S
C274 C276 1.382 . S
C274 C278 1.404 . S
H275 C273 0.951 . S
C276 C274 1.382 . S
C276 C277 1.390 . S
C276 H281 0.949 . S
C277 C276 1.390 . S
C277 C282 1.399 . S
C278 C274 1.404 . S
C278 H279 0.950 . S
C278 C280 1.375 . S
H279 C278 0.950 . S
C280 C278 1.375 . S
C280 C282 1.382 . S
C280 H284 0.950 . S
H281 C276 0.949 . S
C282 C277 1.399 . S
C282 C280 1.382 . S
C282 H283 0.952 . S
H283 C282 0.952 . S
H284 C280 0.950 . S
H285 C286 0.949 . S
C286 H285 0.949 . S
C286 C287 1.395 . S
C286 C288 1.391 . S
C287 C286 1.395 . S
C287 C290 1.390 . S
C288 C286 1.391 . S
C288 C292 1.387 . S
C288 C293 1.491 . S
H289 C290 0.950 . S
C290 C287 1.390 . S
C290 H289 0.950 . S
C290 C291 1.378 . S
C291 C290 1.378 . S
C291 C292 1.409 . S
C292 C288 1.387 . S
C292 C291 1.409 . S
C292 H294 0.951 . S
C293 C288 1.491 . S
C293 C295 1.382 . S
C293 C297 1.404 . S
H294 C292 0.951 . S
C295 C293 1.382 . S
C295 C296 1.390 . S
C295 H300 0.949 . S
C296 C295 1.390 . S
C296 C301 1.399 . S
C297 C293 1.404 . S
C297 H298 0.950 . S
C297 C299 1.375 . S
H298 C297 0.950 . S
C299 C297 1.375 . S
C299 C301 1.382 . S
C299 H303 0.950 . S
H300 C295 0.949 . S
C301 C296 1.399 . S
C301 C299 1.382 . S
C301 H302 0.952 . S
H302 C301 0.952 . S
H303 C299 0.950 . S
H304 C305 0.949 . S
C305 H304 0.949 . S
C305 C306 1.395 . S
C305 C307 1.391 . S
C306 C305 1.395 . S
C306 C309 1.390 . S
C307 C305 1.391 . S
C307 C311 1.387 . S
C307 C312 1.491 . S
H308 C309 0.950 . S
C309 C306 1.390 . S
C309 H308 0.950 . S
C309 C310 1.378 . S
C310 C309 1.378 . S
C310 C311 1.409 . S
C311 C307 1.387 . S
C311 C310 1.409 . S
C311 H313 0.951 . S
C312 C307 1.491 . S
C312 C314 1.382 . S
C312 C316 1.404 . S
H313 C311 0.951 . S
C314 C312 1.382 . S
C314 C315 1.390 . S
C314 H319 0.949 . S
C315 C314 1.390 . S
C315 C320 1.399 . S
C316 C312 1.404 . S
C316 H317 0.950 . S
C316 C318 1.375 . S
H317 C316 0.950 . S
C318 C316 1.375 . S
C318 C320 1.382 . S
C318 H322 0.950 . S
H319 C314 0.949 . S
C320 C315 1.399 . S
C320 C318 1.382 . S
C320 H321 0.952 . S
H321 C320 0.952 . S
H322 C318 0.950 . S
H323 C324 0.949 . S
C324 H323 0.949 . S
C324 C325 1.395 . S
C324 C326 1.391 . S
C325 C324 1.395 . S
C325 C328 1.390 . S
C326 C324 1.391 . S
C326 C330 1.387 . S
C326 C331 1.491 . S
H327 C328 0.950 . S
C328 C325 1.390 . S
C328 H327 0.950 . S
C328 C329 1.378 . S
C329 C328 1.378 . S
C329 C330 1.409 . S
C330 C326 1.387 . S
C330 C329 1.409 . S
C330 H332 0.951 . S
C331 C326 1.491 . S
C331 C333 1.382 . S
C331 C335 1.404 . S
H332 C330 0.951 . S
C333 C331 1.382 . S
C333 C334 1.390 . S
C333 H338 0.949 . S
C334 C333 1.390 . S
C334 C339 1.399 . S
C335 C331 1.404 . S
C335 H336 0.950 . S
C335 C337 1.375 . S
H336 C335 0.950 . S
C337 C335 1.375 . S
C337 C339 1.382 . S
C337 H341 0.950 . S
H338 C333 0.949 . S
C339 C334 1.399 . S
C339 C337 1.382 . S
C339 H340 0.952 . S
H340 C339 0.952 . S
H341 C337 0.950 . S
Tb342 N373 2.660 . S
Tb342 N380 2.600 . S
Tb342 O386 2.546 . S
Tb342 O387 2.610 1_566 S
Tb342 O389 2.320 1_565 S
Tb342 O390 2.552 1_565 S
Tb342 O391 2.413 1_565 S
Tb342 O393 2.362 1_556 S
Tb342 O394 2.421 . S
Tb342 C406 2.833 1_565 S
C343 C346 1.432 . S
C343 C347 1.414 . S
C343 N350 1.359 . S
C344 C346 1.417 . S
C344 C348 1.432 . S
C344 C356 1.410 . S
C345 C347 1.444 . S
C345 C348 1.317 . S
C345 H368 0.929 . S
C346 C343 1.432 . S
C346 C344 1.417 . S
C346 N354 1.360 . S
C347 C343 1.414 . S
C347 C345 1.444 . S
C347 C352 1.385 . S
C348 C344 1.432 . S
C348 C345 1.317 . S
C348 H360 0.930 . S
C349 C351 1.392 . S
C349 C352 1.370 . S
C349 H361 0.931 . S
N350 C343 1.359 . S
N350 C351 1.327 . S
N350 Tb353 2.600 . S
C351 C349 1.392 . S
C351 N350 1.327 . S
C351 H358 0.930 . S
C352 C347 1.385 . S
C352 C349 1.370 . S
C352 H371 0.930 . S
Tb353 N350 2.600 . S
Tb353 N354 2.660 . S
Tb353 O387 2.362 . S
Tb353 O388 2.421 . S
Tb353 O392 2.546 . S
Tb353 O393 2.610 1_545 S
Tb353 O395 2.320 1_545 S
Tb353 O396 2.552 1_545 S
Tb353 O397 2.413 1_545 S
Tb353 C417 2.834 . S
N354 C346 1.360 . S
N354 Tb353 2.660 . S
N354 C355 1.305 . S
C355 N354 1.305 . S
C355 C357 1.407 . S
C355 H362 0.930 . S
C356 C344 1.410 . S
C356 C357 1.345 . S
C356 H364 0.930 . S
C357 C355 1.407 . S
C357 C356 1.345 . S
C357 H359 0.930 . S
H358 C351 0.930 . S
H359 C357 0.930 . S
H360 C348 0.930 . S
H361 C349 0.931 . S
H362 C355 0.930 . S
H363 C377 0.930 . S
H364 C356 0.930 . S
H365 C383 0.930 . S
H366 C374 0.930 1_545 S
H367 C381 0.931 . S
H368 C345 0.929 . S
H369 C375 0.930 . S
H370 C408 0.930 . S
H371 C352 0.930 . S
H372 C407 0.929 . S
N373 Tb342 2.660 . S
N373 C374 1.305 . S
N373 C378 1.360 . S
C374 H366 0.930 1_565 S
C374 N373 1.305 . S
C374 C377 1.407 . S
C375 H369 0.930 . S
C375 C376 1.410 . S
C375 C377 1.345 . S
C376 C375 1.410 . S
C376 C378 1.417 . S
C376 C408 1.432 . S
C377 H363 0.930 . S
C377 C374 1.407 . S
C377 C375 1.345 . S
C378 N373 1.360 . S
C378 C376 1.417 . S
C378 C382 1.432 . S
H379 C384 0.930 . S
N380 Tb342 2.600 . S
N380 C382 1.359 . S
N380 C383 1.327 . S
C381 H367 0.931 . S
C381 C383 1.392 . S
C381 C384 1.370 . S
C382 C378 1.432 . S
C382 N380 1.359 . S
C382 C385 1.414 . S
C383 H365 0.930 . S
C383 N380 1.327 . S
C383 C381 1.392 . S
C384 H379 0.930 . S
C384 C381 1.370 . S
C384 C385 1.385 . S
C385 C382 1.414 . S
C385 C384 1.385 . S
C385 C407 1.444 . S
O386 Tb342 2.546 . S
O386 C406 1.251 1_565 S
O387 Tb342 2.610 1_544 S
O387 Tb353 2.362 . S
O387 C398 1.283 1_554 S
O388 Tb353 2.421 . S
O388 C405 1.262 . S
O389 Tb342 2.320 1_545 S
O389 C405 1.260 1_556 S
O390 Tb342 2.552 1_545 S
O390 C398 1.243 . S
O391 Tb342 2.413 1_545 S
O391 C406 1.256 . S
O392 Tb353 2.546 . S
O392 C417 1.262 . S
O393 Tb342 2.362 1_554 S
O393 Tb353 2.610 1_565 S
O393 C409 1.283 . S
O394 Tb342 2.421 . S
O394 C416 1.262 1_556 S
O395 Tb353 2.320 1_565 S
O395 C416 1.260 . S
O396 Tb353 2.552 1_565 S
O396 C409 1.243 . S
O397 Tb353 2.413 1_565 S
O397 C417 1.247 1_565 S
C398 O387 1.283 1_556 S
C398 O390 1.243 . S
C399 C401 1.382 . S
C399 C403 1.431 . S
C399 C406 1.500 . S
C400 C401 1.400 . S
C400 C402 1.384 . S
C401 C399 1.382 . S
C401 C400 1.400 . S
C401 H418 0.930 . S
C402 C400 1.384 . S
C402 C404 1.392 . S
C402 H419 0.931 . S
C403 C399 1.431 . S
C403 C404 1.414 . S
C403 H420 0.881 1_545 S
C404 C402 1.392 . S
C404 C403 1.414 . S
C404 H421 0.912 1_545 S
C405 O388 1.262 . S
C405 O389 1.260 1_554 S
C406 Tb342 2.833 1_545 S
C406 O386 1.251 1_545 S
C406 O391 1.256 . S
C406 C399 1.500 . S
C407 H372 0.929 . S
C407 C385 1.444 . S
C407 C408 1.317 . S
C408 H370 0.930 . S
C408 C376 1.432 . S
C408 C407 1.317 . S
C409 O393 1.283 . S
C409 O396 1.243 . S
C410 C411 1.382 . S
C410 C414 1.393 1_565 S
C410 C417 1.497 1_565 S
C411 C410 1.382 . S
C411 C412 1.400 . S
C411 H422 0.930 . S
C412 C411 1.400 . S
C412 C413 1.384 . S
C413 C412 1.384 . S
C413 C415 1.392 . S
C413 H423 0.931 . S
C414 C410 1.393 1_545 S
C414 C415 1.401 1_545 S
C414 H424 0.930 . S
C415 C413 1.392 . S
C415 C414 1.401 1_565 S
C415 H425 0.930 1_565 S
C416 O394 1.262 1_554 S
C416 O395 1.260 . S
C417 Tb353 2.834 . S
C417 O392 1.262 . S
C417 O397 1.247 1_545 S
C417 C410 1.497 1_545 S
H418 C401 0.930 . S
H419 C402 0.931 . S
H420 C403 0.881 1_565 S
H421 C404 0.912 1_565 S
H422 C411 0.930 . S
H423 C413 0.931 . S
H424 C414 0.930 . S
H425 C415 0.930 1_545 S
Tb426 N457 2.660 . S
Tb426 N464 2.600 . S
Tb426 O470 2.546 . S
Tb426 O471 2.610 1_456 S
Tb426 O473 2.320 1_455 S
Tb426 O474 2.552 1_455 S
Tb426 O475 2.413 1_455 S
Tb426 O477 2.362 1_556 S
Tb426 O478 2.421 . S
Tb426 C490 2.833 . S
C427 C430 1.432 . S
C427 C431 1.414 . S
C427 N434 1.359 . S
C428 C430 1.417 . S
C428 C432 1.432 . S
C428 C440 1.410 . S
C429 C431 1.444 . S
C429 C432 1.317 . S
C429 H452 0.929 . S
C430 C427 1.432 . S
C430 C428 1.417 . S
C430 N438 1.360 . S
C431 C427 1.414 . S
C431 C429 1.444 . S
C431 C436 1.385 . S
C432 C428 1.432 . S
C432 C429 1.317 . S
C432 H444 0.930 . S
C433 C435 1.392 . S
C433 C436 1.370 . S
C433 H445 0.931 . S
N434 C427 1.359 . S
N434 C435 1.327 . S
N434 Tb437 2.600 . S
C435 C433 1.392 . S
C435 N434 1.327 . S
C435 H442 0.930 . S
C436 C431 1.385 . S
C436 C433 1.370 . S
C436 H455 0.930 . S
Tb437 N434 2.600 . S
Tb437 N438 2.660 . S
Tb437 O471 2.362 . S
Tb437 O472 2.421 . S
Tb437 O476 2.546 . S
Tb437 O477 2.610 1_655 S
Tb437 O479 2.320 1_655 S
Tb437 O480 2.552 1_655 S
Tb437 O481 2.413 1_655 S
Tb437 C501 2.833 1_655 S
N438 C430 1.360 . S
N438 Tb437 2.660 . S
N438 C439 1.305 . S
C439 N438 1.305 . S
C439 C441 1.407 . S
C439 H446 0.930 1_655 S
C440 C428 1.410 . S
C440 C441 1.345 . S
C440 H448 0.930 . S
C441 C439 1.407 . S
C441 C440 1.345 . S
C441 H443 0.930 . S
H442 C435 0.930 . S
H443 C441 0.930 . S
H444 C432 0.930 . S
H445 C433 0.931 . S
H446 C439 0.930 1_455 S
H447 C461 0.930 . S
H448 C440 0.930 . S
H449 C467 0.930 . S
H450 C458 0.930 . S
H451 C465 0.931 . S
H452 C429 0.929 . S
H453 C459 0.930 . S
H454 C492 0.930 . S
H455 C436 0.930 . S
H456 C491 0.929 . S
N457 Tb426 2.660 . S
N457 C458 1.305 . S
N457 C462 1.360 . S
C458 H450 0.930 . S
C458 N457 1.305 . S
C458 C461 1.407 . S
C459 H453 0.930 . S
C459 C460 1.410 . S
C459 C461 1.345 . S
C460 C459 1.410 . S
C460 C462 1.417 . S
C460 C492 1.432 . S
C461 H447 0.930 . S
C461 C458 1.407 . S
C461 C459 1.345 . S
C462 N457 1.360 . S
C462 C460 1.417 . S
C462 C466 1.432 . S
H463 C468 0.930 . S
N464 Tb426 2.600 . S
N464 C466 1.359 . S
N464 C467 1.327 . S
C465 H451 0.931 . S
C465 C467 1.392 . S
C465 C468 1.370 . S
C466 C462 1.432 . S
C466 N464 1.359 . S
C466 C469 1.414 . S
C467 H449 0.930 . S
C467 N464 1.327 . S
C467 C465 1.392 . S
C468 H463 0.930 . S
C468 C465 1.370 . S
C468 C469 1.385 . S
C469 C466 1.414 . S
C469 C468 1.385 . S
C469 C491 1.444 . S
O470 Tb426 2.546 . S
O470 C490 1.251 . S
O471 Tb426 2.610 1_654 S
O471 Tb437 2.362 . S
O471 C482 1.283 1_554 S
O472 Tb437 2.421 . S
O472 C489 1.262 . S
O473 Tb426 2.320 1_655 S
O473 C489 1.260 1_556 S
O474 Tb426 2.552 1_655 S
O474 C482 1.243 . S
O475 Tb426 2.413 1_655 S
O475 C490 1.256 1_655 S
O476 Tb437 2.546 . S
O476 C501 1.251 1_655 S
O477 Tb426 2.362 1_554 S
O477 Tb437 2.610 1_455 S
O477 C493 1.283 . S
O478 Tb426 2.421 . S
O478 C500 1.262 1_556 S
O479 Tb437 2.320 1_455 S
O479 C500 1.260 . S
O480 Tb437 2.552 1_455 S
O480 C493 1.243 . S
O481 Tb437 2.413 1_455 S
O481 C501 1.256 . S
C482 O471 1.283 1_556 S
C482 O474 1.243 . S
C483 C485 1.382 . S
C483 C487 1.393 1_655 S
C483 C490 1.500 1_655 S
C484 C485 1.400 . S
C484 C486 1.384 . S
C485 C483 1.382 . S
C485 C484 1.400 . S
C485 H502 0.930 . S
C486 C484 1.384 . S
C486 C488 1.392 1_655 S
C486 H503 0.931 . S
C487 C483 1.393 1_455 S
C487 C488 1.401 . S
C487 H504 0.930 . S
C488 C486 1.392 1_455 S
C488 C487 1.401 . S
C488 H505 0.930 . S
C489 O472 1.262 . S
C489 O473 1.260 1_554 S
C490 Tb426 2.833 . S
C490 O470 1.251 . S
C490 O475 1.256 1_455 S
C490 C483 1.500 1_455 S
C491 H456 0.929 . S
C491 C469 1.444 . S
C491 C492 1.317 . S
C492 H454 0.930 . S
C492 C460 1.432 . S
C492 C491 1.317 . S
C493 O477 1.283 . S
C493 O480 1.243 . S
C494 C495 1.382 . S
C494 C498 1.385 1_455 S
C494 C501 1.500 . S
C495 C494 1.382 . S
C495 C496 1.400 . S
C495 H506 0.930 . S
C496 C495 1.400 . S
C496 C497 1.384 . S
C497 C496 1.384 . S
C497 C499 1.392 . S
C497 H507 0.931 . S
C498 C494 1.385 1_655 S
C498 C499 1.391 1_655 S
C498 H508 0.950 . S
C499 C497 1.392 . S
C499 C498 1.391 1_455 S
C499 H509 0.930 1_455 S
C500 O478 1.262 1_554 S
C500 O479 1.260 . S
C501 Tb437 2.833 1_455 S
C501 O476 1.251 1_455 S
C501 O481 1.256 . S
C501 C494 1.500 . S
H502 C485 0.930 . S
H503 C486 0.931 . S
H504 C487 0.930 . S
H505 C488 0.930 . S
H506 C495 0.930 . S
H507 C497 0.931 . S
H508 C498 0.950 . S
H509 C499 0.930 1_655 S
Tb510 N541 2.660 . S
Tb510 N548 2.600 . S
Tb510 O554 2.546 . S
Tb510 O555 2.610 . S
Tb510 O557 2.320 . S
Tb510 O558 2.552 . S
Tb510 O559 2.413 . S
Tb510 O561 2.362 . S
Tb510 O562 2.421 . S
Tb510 C574 2.833 . S
C511 C514 1.432 . S
C511 C515 1.414 . S
C511 N518 1.359 . S
C512 C514 1.417 . S
C512 C516 1.432 . S
C512 C524 1.410 . S
C513 C515 1.444 . S
C513 C516 1.317 . S
C513 H536 0.929 . S
C514 C511 1.432 . S
C514 C512 1.417 . S
C514 N522 1.360 . S
C515 C511 1.414 . S
C515 C513 1.444 . S
C515 C520 1.385 . S
C516 C512 1.432 . S
C516 C513 1.317 . S
C516 H528 0.930 . S
C517 C519 1.392 . S
C517 C520 1.370 . S
C517 H529 0.931 . S
N518 C511 1.359 . S
N518 C519 1.327 . S
N518 Tb521 2.600 . S
C519 C517 1.392 . S
C519 N518 1.327 . S
C519 H526 0.930 . S
C520 C515 1.385 . S
C520 C517 1.370 . S
C520 H539 0.930 . S
Tb521 N518 2.600 . S
Tb521 N522 2.660 . S
Tb521 O555 2.362 1_556 S
Tb521 O556 2.418 1_556 S
Tb521 O560 2.546 . S
Tb521 O561 2.610 1_556 S
Tb521 O563 2.320 . S
Tb521 O564 2.552 . S
Tb521 O565 2.413 . S
Tb521 C585 2.833 . S
N522 C514 1.360 . S
N522 Tb521 2.660 . S
N522 C523 1.305 . S
C523 N522 1.305 . S
C523 C525 1.407 . S
C523 H530 0.930 . S
C524 C512 1.410 . S
C524 C525 1.345 . S
C524 H532 0.930 . S
C525 C523 1.407 . S
C525 C524 1.345 . S
C525 H527 0.930 . S
H526 C519 0.930 . S
H527 C525 0.930 . S
H528 C516 0.930 . S
H529 C517 0.931 . S
H530 C523 0.930 . S
H531 C545 0.930 . S
H532 C524 0.930 . S
H533 C551 0.930 . S
H534 C542 0.930 . S
H535 C549 0.931 . S
H536 C513 0.929 . S
H537 C543 0.930 . S
H538 C576 0.930 . S
H539 C520 0.930 . S
H540 C575 0.929 . S
N541 Tb510 2.660 . S
N541 C542 1.305 . S
N541 C546 1.360 . S
C542 H534 0.930 . S
C542 N541 1.305 . S
C542 C545 1.407 . S
C543 H537 0.930 . S
C543 C544 1.410 . S
C543 C545 1.345 . S
C544 C543 1.410 . S
C544 C546 1.417 . S
C544 C576 1.432 . S
C545 H531 0.930 . S
C545 C542 1.407 . S
C545 C543 1.345 . S
C546 N541 1.360 . S
C546 C544 1.417 . S
C546 C550 1.432 . S
H547 C552 0.930 . S
N548 Tb510 2.600 . S
N548 C550 1.359 . S
N548 C551 1.327 . S
C549 H535 0.931 . S
C549 C551 1.392 . S
C549 C552 1.370 . S
C550 C546 1.432 . S
C550 N548 1.359 . S
C550 C553 1.414 . S
C551 H533 0.930 . S
C551 N548 1.327 . S
C551 C549 1.392 . S
C552 H547 0.930 . S
C552 C549 1.370 . S
C552 C553 1.385 . S
C553 C550 1.414 . S
C553 C552 1.385 . S
C553 C575 1.444 . S
O554 Tb510 2.546 . S
O554 C574 1.251 . S
O555 Tb510 2.610 . S
O555 Tb521 2.362 1_554 S
O555 C566 1.283 . S
O556 Tb521 2.418 1_554 S
O556 C573 1.267 . S
O557 Tb510 2.320 . S
O557 C573 1.260 . S
O558 Tb510 2.552 . S
O558 C566 1.243 . S
O559 Tb510 2.413 . S
O559 C574 1.256 . S
O560 Tb521 2.546 . S
O560 C585 1.251 . S
O561 Tb510 2.362 . S
O561 Tb521 2.610 1_554 S
O561 C577 1.283 1_554 S
O562 Tb510 2.421 . S
O562 C584 1.262 . S
O563 Tb521 2.320 . S
O563 C584 1.260 1_556 S
O564 Tb521 2.552 . S
O564 C577 1.243 . S
O565 Tb521 2.413 . S
O565 C585 1.256 . S
C566 O555 1.283 . S
C566 O558 1.243 . S
C567 C569 1.382 . S
C567 C571 1.393 . S
C567 C574 1.500 . S
C568 C569 1.400 . S
C568 C570 1.384 . S
C569 C567 1.382 . S
C569 C568 1.400 . S
C569 H586 0.930 . S
C570 C568 1.384 . S
C570 C572 1.392 . S
C570 H587 0.931 . S
C571 C567 1.393 . S
C571 C572 1.401 . S
C571 H588 0.930 . S
C572 C570 1.392 . S
C572 C571 1.401 . S
C572 H589 0.930 . S
C573 O556 1.267 . S
C573 O557 1.260 . S
C574 Tb510 2.833 . S
C574 O554 1.251 . S
C574 O559 1.256 . S
C574 C567 1.500 . S
C575 H540 0.929 . S
C575 C553 1.444 . S
C575 C576 1.317 . S
C576 H538 0.930 . S
C576 C544 1.432 . S
C576 C575 1.317 . S
C577 O561 1.283 1_556 S
C577 O564 1.243 . S
C578 C579 1.382 . S
C578 C582 1.393 . S
C578 C585 1.500 . S
C579 C578 1.382 . S
C579 C580 1.400 . S
C579 H590 0.930 . S
C580 C579 1.400 . S
C580 C581 1.384 . S
C581 C580 1.384 . S
C581 C583 1.392 . S
C581 H591 0.931 . S
C582 C578 1.393 . S
C582 C583 1.401 . S
C582 H592 0.930 . S
C583 C581 1.392 . S
C583 C582 1.401 . S
C583 H593 0.930 . S
C584 O562 1.262 . S
C584 O563 1.260 1_554 S
C585 Tb521 2.833 . S
C585 O560 1.251 . S
C585 O565 1.256 . S
C585 C578 1.500 . S
H586 C569 0.930 . S
H587 C570 0.931 . S
H588 C571 0.930 . S
H589 C572 0.930 . S
H590 C579 0.930 . S
H591 C581 0.931 . S
H592 C582 0.930 . S
H593 C583 0.930 . S
Tb594 N625 2.660 . S
Tb594 N632 2.600 . S
Tb594 O638 2.546 . S
Tb594 O639 2.610 . S
Tb594 O641 2.320 . S
Tb594 O642 2.552 . S
Tb594 O643 2.413 . S
Tb594 O645 2.362 . S
Tb594 O646 2.421 . S
Tb594 C658 2.833 . S
C595 C598 1.432 . S
C595 C599 1.414 . S
C595 N602 1.359 . S
C596 C598 1.417 . S
C596 C600 1.432 . S
C596 C608 1.410 . S
C597 C599 1.444 . S
C597 C600 1.317 . S
C597 H620 0.929 . S
C598 C595 1.432 . S
C598 C596 1.417 . S
C598 N606 1.360 . S
C599 C595 1.414 . S
C599 C597 1.444 . S
C599 C604 1.385 . S
C600 C596 1.432 . S
C600 C597 1.317 . S
C600 H612 0.930 . S
C601 C603 1.392 . S
C601 C604 1.370 . S
C601 H613 0.931 . S
N602 C595 1.359 . S
N602 C603 1.327 . S
N602 Tb605 2.600 . S
C603 C601 1.392 . S
C603 N602 1.327 . S
C603 H610 0.930 . S
C604 C599 1.385 . S
C604 C601 1.370 . S
C604 H623 0.930 . S
Tb605 N602 2.600 . S
Tb605 N606 2.660 . S
Tb605 O639 2.362 . S
Tb605 O640 2.421 . S
Tb605 O644 2.546 . S
Tb605 O645 2.610 . S
Tb605 O647 2.320 . S
Tb605 O648 2.552 . S
Tb605 O649 2.413 . S
Tb605 C669 2.833 . S
N606 C598 1.360 . S
N606 Tb605 2.660 . S
N606 C607 1.305 . S
C607 N606 1.305 . S
C607 C609 1.407 . S
C607 H614 0.930 . S
C608 C596 1.410 . S
C608 C609 1.345 . S
C608 H616 0.930 . S
C609 C607 1.407 . S
C609 C608 1.345 . S
C609 H611 0.930 . S
H610 C603 0.930 . S
H611 C609 0.930 . S
H612 C600 0.930 . S
H613 C601 0.931 . S
H614 C607 0.930 . S
H615 C629 0.930 . S
H616 C608 0.930 . S
H617 C635 0.930 . S
H618 C626 0.930 . S
H619 C633 0.931 . S
H620 C597 0.929 . S
H621 C627 0.930 . S
H622 C660 0.930 . S
H623 C604 0.930 . S
H624 C659 0.929 . S
N625 Tb594 2.660 . S
N625 C626 1.305 . S
N625 C630 1.360 . S
C626 H618 0.930 . S
C626 N625 1.305 . S
C626 C629 1.407 . S
C627 H621 0.930 . S
C627 C628 1.410 . S
C627 C629 1.345 . S
C628 C627 1.410 . S
C628 C630 1.417 . S
C628 C660 1.432 . S
C629 H615 0.930 . S
C629 C626 1.407 . S
C629 C627 1.345 . S
C630 N625 1.360 . S
C630 C628 1.417 . S
C630 C634 1.432 . S
H631 C636 0.930 . S
N632 Tb594 2.600 . S
N632 C634 1.359 . S
N632 C635 1.327 . S
C633 H619 0.931 . S
C633 C635 1.392 . S
C633 C636 1.370 . S
C634 C630 1.432 . S
C634 N632 1.359 . S
C634 C637 1.414 . S
C635 H617 0.930 . S
C635 N632 1.327 . S
C635 C633 1.392 . S
C636 H631 0.930 . S
C636 C633 1.370 . S
C636 C637 1.385 . S
C637 C634 1.414 . S
C637 C636 1.385 . S
C637 C659 1.444 . S
O638 Tb594 2.546 . S
O638 C658 1.251 . S
O639 Tb594 2.610 . S
O639 Tb605 2.362 . S
O639 C650 1.283 . S
O640 Tb605 2.421 . S
O640 C657 1.262 . S
O641 Tb594 2.320 . S
O641 C657 1.260 . S
O642 Tb594 2.552 . S
O642 C650 1.243 . S
O643 Tb594 2.413 . S
O643 C658 1.256 . S
O644 Tb605 2.546 . S
O644 C669 1.251 . S
O645 Tb594 2.362 . S
O645 Tb605 2.610 . S
O645 C661 1.283 . S
O646 Tb594 2.421 . S
O646 C668 1.262 . S
O647 Tb605 2.320 . S
O647 C668 1.260 . S
O648 Tb605 2.552 . S
O648 C661 1.243 . S
O649 Tb605 2.413 . S
O649 C669 1.256 . S
C650 O639 1.283 . S
C650 O642 1.243 . S
C651 C653 1.382 . S
C651 C655 1.393 . S
C651 C658 1.500 . S
C652 C653 1.400 . S
C652 C654 1.384 . S
C653 C651 1.382 . S
C653 C652 1.400 . S
C653 H670 0.930 . S
C654 C652 1.384 . S
C654 C656 1.392 . S
C654 H671 0.931 . S
C655 C651 1.393 . S
C655 C656 1.401 . S
C655 H672 0.930 . S
C656 C654 1.392 . S
C656 C655 1.401 . S
C656 H673 0.930 . S
C657 O640 1.262 . S
C657 O641 1.260 . S
C658 Tb594 2.833 . S
C658 O638 1.251 . S
C658 O643 1.256 . S
C658 C651 1.500 . S
C659 H624 0.929 . S
C659 C637 1.444 . S
C659 C660 1.317 . S
C660 H622 0.930 . S
C660 C628 1.432 . S
C660 C659 1.317 . S
C661 O645 1.283 . S
C661 O648 1.243 . S
C662 C663 1.382 . S
C662 C666 1.393 . S
C662 C669 1.500 . S
C663 C662 1.382 . S
C663 C664 1.400 . S
C663 H674 0.930 . S
C664 C663 1.400 . S
C664 C665 1.384 . S
C665 C664 1.384 . S
C665 C667 1.392 . S
C665 H675 0.931 . S
C666 C662 1.393 . S
C666 C667 1.401 . S
C666 H676 0.930 . S
C667 C665 1.392 . S
C667 C666 1.401 . S
C667 H677 0.930 . S
C668 O646 1.262 . S
C668 O647 1.260 . S
C669 Tb605 2.833 . S
C669 O644 1.251 . S
C669 O649 1.256 . S
C669 C662 1.500 . S
H670 C653 0.930 . S
H671 C654 0.931 . S
H672 C655 0.930 . S
H673 C656 0.930 . S
H674 C663 0.930 . S
H675 C665 0.931 . S
H676 C666 0.930 . S
H677 C667 0.930 . S
Tb678 N709 2.660 . S
Tb678 N716 2.600 . S
Tb678 O722 2.546 . S
Tb678 O723 2.610 . S
Tb678 O725 2.320 . S
Tb678 O726 2.552 . S
Tb678 O727 2.413 . S
Tb678 O729 2.362 . S
Tb678 O730 2.421 . S
Tb678 C742 2.833 . S
C679 C682 1.432 . S
C679 C683 1.414 . S
C679 N686 1.359 . S
C680 C682 1.417 . S
C680 C684 1.432 . S
C680 C692 1.410 . S
C681 C683 1.444 . S
C681 C684 1.317 . S
C681 H704 0.929 . S
C682 C679 1.432 . S
C682 C680 1.417 . S
C682 N690 1.360 . S
C683 C679 1.414 . S
C683 C681 1.444 . S
C683 C688 1.385 . S
C684 C680 1.432 . S
C684 C681 1.317 . S
C684 H696 0.930 . S
C685 C687 1.392 . S
C685 C688 1.370 . S
C685 H697 0.931 . S
N686 C679 1.359 . S
N686 C687 1.327 . S
N686 Tb689 2.600 . S
C687 C685 1.392 . S
C687 N686 1.327 . S
C687 H694 0.930 . S
C688 C683 1.385 . S
C688 C685 1.370 . S
C688 H707 0.930 . S
Tb689 N686 2.600 . S
Tb689 N690 2.660 . S
Tb689 O723 2.362 . S
Tb689 O724 2.421 . S
Tb689 O728 2.546 . S
Tb689 O729 2.610 . S
Tb689 O731 2.320 . S
Tb689 O732 2.552 . S
Tb689 O733 2.413 . S
Tb689 C753 2.833 . S
N690 C682 1.360 . S
N690 Tb689 2.660 . S
N690 C691 1.305 . S
C691 N690 1.305 . S
C691 C693 1.407 . S
C691 H698 0.930 . S
C692 C680 1.410 . S
C692 C693 1.345 . S
C692 H700 0.930 . S
C693 C691 1.407 . S
C693 C692 1.345 . S
C693 H695 0.930 . S
H694 C687 0.930 . S
H695 C693 0.930 . S
H696 C684 0.930 . S
H697 C685 0.931 . S
H698 C691 0.930 . S
H699 C713 0.930 . S
H700 C692 0.930 . S
H701 C719 0.930 . S
H702 C710 0.930 . S
H703 C717 0.931 . S
H704 C681 0.929 . S
H705 C711 0.930 . S
H706 C744 0.930 . S
H707 C688 0.930 . S
H708 C743 0.929 . S
N709 Tb678 2.660 . S
N709 C710 1.305 . S
N709 C714 1.360 . S
C710 H702 0.930 . S
C710 N709 1.305 . S
C710 C713 1.407 . S
C711 H705 0.930 . S
C711 C712 1.410 . S
C711 C713 1.345 . S
C712 C711 1.410 . S
C712 C714 1.417 . S
C712 C744 1.432 . S
C713 H699 0.930 . S
C713 C710 1.407 . S
C713 C711 1.345 . S
C714 N709 1.360 . S
C714 C712 1.417 . S
C714 C718 1.432 . S
H715 C720 0.930 . S
N716 Tb678 2.600 . S
N716 C718 1.359 . S
N716 C719 1.327 . S
C717 H703 0.931 . S
C717 C719 1.392 . S
C717 C720 1.370 . S
C718 C714 1.432 . S
C718 N716 1.359 . S
C718 C721 1.414 . S
C719 H701 0.930 . S
C719 N716 1.327 . S
C719 C717 1.392 . S
C720 H715 0.930 . S
C720 C717 1.370 . S
C720 C721 1.385 . S
C721 C718 1.414 . S
C721 C720 1.385 . S
C721 C743 1.444 . S
O722 Tb678 2.546 . S
O722 C742 1.251 . S
O723 Tb678 2.610 . S
O723 Tb689 2.362 . S
O723 C734 1.283 . S
O724 Tb689 2.421 . S
O724 C741 1.262 . S
O725 Tb678 2.320 . S
O725 C741 1.260 . S
O726 Tb678 2.552 . S
O726 C734 1.243 . S
O727 Tb678 2.413 . S
O727 C742 1.256 . S
O728 Tb689 2.546 . S
O728 C753 1.251 . S
O729 Tb678 2.362 . S
O729 Tb689 2.610 . S
O729 C745 1.283 . S
O730 Tb678 2.421 . S
O730 C752 1.262 . S
O731 Tb689 2.320 . S
O731 C752 1.260 . S
O732 Tb689 2.552 . S
O732 C745 1.243 . S
O733 Tb689 2.413 . S
O733 C753 1.256 . S
C734 O723 1.283 . S
C734 O726 1.243 . S
C735 C737 1.382 . S
C735 C739 1.393 . S
C735 C742 1.500 . S
C736 C737 1.400 . S
C736 C738 1.384 . S
C737 C735 1.382 . S
C737 C736 1.400 . S
C737 H754 0.930 . S
C738 C736 1.384 . S
C738 C740 1.392 . S
C738 H755 0.931 . S
C739 C735 1.393 . S
C739 C740 1.401 . S
C739 H756 0.930 . S
C740 C738 1.392 . S
C740 C739 1.401 . S
C740 H757 0.930 . S
C741 O724 1.262 . S
C741 O725 1.260 . S
C742 Tb678 2.833 . S
C742 O722 1.251 . S
C742 O727 1.256 . S
C742 C735 1.500 . S
C743 H708 0.929 . S
C743 C721 1.444 . S
C743 C744 1.317 . S
C744 H706 0.930 . S
C744 C712 1.432 . S
C744 C743 1.317 . S
C745 O729 1.283 . S
C745 O732 1.243 . S
C746 C747 1.382 . S
C746 C750 1.393 . S
C746 C753 1.500 . S
C747 C746 1.382 . S
C747 C748 1.400 . S
C747 H758 0.930 . S
C748 C747 1.400 . S
C748 C749 1.384 . S
C749 C748 1.384 . S
C749 C751 1.392 . S
C749 H759 0.931 . S
C750 C746 1.393 . S
C750 C751 1.401 . S
C750 H760 0.930 . S
C751 C749 1.392 . S
C751 C750 1.401 . S
C751 H761 0.930 . S
C752 O730 1.262 . S
C752 O731 1.260 . S
C753 Tb689 2.833 . S
C753 O728 1.251 . S
C753 O733 1.256 . S
C753 C746 1.500 . S
H754 C737 0.930 . S
H755 C738 0.931 . S
H756 C739 0.930 . S
H757 C740 0.930 . S
H758 C747 0.930 . S
H759 C749 0.931 . S
H760 C750 0.930 . S
H761 C751 0.930 . S
Tb762 N793 2.660 . S
Tb762 N800 2.600 . S
Tb762 O806 2.546 . S
Tb762 O807 2.610 . S
Tb762 O809 2.320 . S
Tb762 O810 2.552 . S
Tb762 O811 2.413 . S
Tb762 O813 2.362 . S
Tb762 O814 2.421 . S
Tb762 C826 2.833 . S
C763 C766 1.432 . S
C763 C767 1.414 . S
C763 N770 1.359 . S
C764 C766 1.417 . S
C764 C768 1.432 . S
C764 C776 1.410 . S
C765 C767 1.444 . S
C765 C768 1.317 . S
C765 H788 0.929 . S
C766 C763 1.432 . S
C766 C764 1.417 . S
C766 N774 1.360 . S
C767 C763 1.414 . S
C767 C765 1.444 . S
C767 C772 1.385 . S
C768 C764 1.432 . S
C768 C765 1.317 . S
C768 H780 0.930 . S
C769 C771 1.392 . S
C769 C772 1.370 . S
C769 H781 0.931 . S
N770 C763 1.359 . S
N770 C771 1.327 . S
N770 Tb773 2.600 . S
C771 C769 1.392 . S
C771 N770 1.327 . S
C771 H778 0.930 . S
C772 C767 1.385 . S
C772 C769 1.370 . S
C772 H791 0.930 . S
Tb773 N770 2.600 . S
Tb773 N774 2.660 . S
Tb773 O807 2.362 . S
Tb773 O808 2.421 . S
Tb773 O812 2.546 . S
Tb773 O813 2.610 . S
Tb773 O815 2.320 . S
Tb773 O816 2.552 . S
Tb773 O817 2.413 . S
Tb773 C837 2.833 . S
N774 C766 1.360 . S
N774 Tb773 2.660 . S
N774 C775 1.305 . S
C775 N774 1.305 . S
C775 C777 1.407 . S
C775 H782 0.930 . S
C776 C764 1.410 . S
C776 C777 1.345 . S
C776 H784 0.930 . S
C777 C775 1.407 . S
C777 C776 1.345 . S
C777 H779 0.930 . S
H778 C771 0.930 . S
H779 C777 0.930 . S
H780 C768 0.930 . S
H781 C769 0.931 . S
H782 C775 0.930 . S
H783 C797 0.930 . S
H784 C776 0.930 . S
H785 C803 0.930 . S
H786 C794 0.930 . S
H787 C801 0.931 . S
H788 C765 0.929 . S
H789 C795 0.930 . S
H790 C828 0.930 . S
H791 C772 0.930 . S
H792 C827 0.929 . S
N793 Tb762 2.660 . S
N793 C794 1.305 . S
N793 C798 1.360 . S
C794 H786 0.930 . S
C794 N793 1.305 . S
C794 C797 1.407 . S
C795 H789 0.930 . S
C795 C796 1.410 . S
C795 C797 1.345 . S
C796 C795 1.410 . S
C796 C798 1.417 . S
C796 C828 1.432 . S
C797 H783 0.930 . S
C797 C794 1.407 . S
C797 C795 1.345 . S
C798 N793 1.360 . S
C798 C796 1.417 . S
C798 C802 1.432 . S
H799 C804 0.930 . S
N800 Tb762 2.600 . S
N800 C802 1.359 . S
N800 C803 1.327 . S
C801 H787 0.931 . S
C801 C803 1.392 . S
C801 C804 1.370 . S
C802 C798 1.432 . S
C802 N800 1.359 . S
C802 C805 1.414 . S
C803 H785 0.930 . S
C803 N800 1.327 . S
C803 C801 1.392 . S
C804 H799 0.930 . S
C804 C801 1.370 . S
C804 C805 1.385 . S
C805 C802 1.414 . S
C805 C804 1.385 . S
C805 C827 1.444 . S
O806 Tb762 2.546 . S
O806 C826 1.251 . S
O807 Tb762 2.610 . S
O807 Tb773 2.362 . S
O807 C818 1.283 . S
O808 Tb773 2.421 . S
O808 C825 1.262 . S
O809 Tb762 2.320 . S
O809 C825 1.260 . S
O810 Tb762 2.552 . S
O810 C818 1.243 . S
O811 Tb762 2.413 . S
O811 C826 1.256 . S
O812 Tb773 2.546 . S
O812 C837 1.251 . S
O813 Tb762 2.362 . S
O813 Tb773 2.610 . S
O813 C829 1.283 . S
O814 Tb762 2.421 . S
O814 C836 1.262 . S
O815 Tb773 2.320 . S
O815 C836 1.260 . S
O816 Tb773 2.552 . S
O816 C829 1.243 . S
O817 Tb773 2.413 . S
O817 C837 1.256 . S
C818 O807 1.283 . S
C818 O810 1.243 . S
C819 C821 1.382 . S
C819 C823 1.393 . S
C819 C826 1.500 . S
C820 C821 1.400 . S
C820 C822 1.384 . S
C821 C819 1.382 . S
C821 C820 1.400 . S
C821 H838 0.930 . S
C822 C820 1.384 . S
C822 C824 1.392 . S
C822 H839 0.931 . S
C823 C819 1.393 . S
C823 C824 1.401 . S
C823 H840 0.930 . S
C824 C822 1.392 . S
C824 C823 1.401 . S
C824 H841 0.930 . S
C825 O808 1.262 . S
C825 O809 1.260 . S
C826 Tb762 2.833 . S
C826 O806 1.251 . S
C826 O811 1.256 . S
C826 C819 1.500 . S
C827 H792 0.929 . S
C827 C805 1.444 . S
C827 C828 1.317 . S
C828 H790 0.930 . S
C828 C796 1.432 . S
C828 C827 1.317 . S
C829 O813 1.283 . S
C829 O816 1.243 . S
C830 C831 1.382 . S
C830 C834 1.393 . S
C830 C837 1.500 . S
C831 C830 1.382 . S
C831 C832 1.400 . S
C831 H842 0.930 . S
C832 C831 1.400 . S
C832 C833 1.384 . S
C833 C832 1.384 . S
C833 C835 1.392 . S
C833 H843 0.931 . S
C834 C830 1.393 . S
C834 C835 1.401 . S
C834 H844 0.930 . S
C835 C833 1.392 . S
C835 C834 1.401 . S
C835 H845 0.930 . S
C836 O814 1.262 . S
C836 O815 1.260 . S
C837 Tb773 2.833 . S
C837 O812 1.251 . S
C837 O817 1.256 . S
C837 C830 1.500 . S
H838 C821 0.930 . S
H839 C822 0.931 . S
H840 C823 0.930 . S
H841 C824 0.930 . S
H842 C831 0.930 . S
H843 C833 0.931 . S
H844 C834 0.930 . S
H845 C835 0.930 . S
Tb846 N877 2.660 . S
Tb846 N884 2.600 . S
Tb846 O890 2.546 . S
Tb846 O891 2.610 . S
Tb846 O893 2.320 . S
Tb846 O894 2.552 . S
Tb846 O895 2.413 . S
Tb846 O897 2.362 . S
Tb846 O898 2.421 . S
Tb846 C910 2.833 . S
C847 C850 1.432 . S
C847 C851 1.414 . S
C847 N854 1.359 . S
C848 C850 1.417 . S
C848 C852 1.432 . S
C848 C860 1.410 . S
C849 C851 1.444 . S
C849 C852 1.317 . S
C849 H872 0.929 . S
C850 C847 1.432 . S
C850 C848 1.417 . S
C850 N858 1.360 . S
C851 C847 1.414 . S
C851 C849 1.444 . S
C851 C856 1.385 . S
C852 C848 1.432 . S
C852 C849 1.317 . S
C852 H864 0.930 . S
C853 C855 1.392 . S
C853 C856 1.370 . S
C853 H865 0.931 . S
N854 C847 1.359 . S
N854 C855 1.327 . S
N854 Tb857 2.600 . S
C855 C853 1.392 . S
C855 N854 1.327 . S
C855 H862 0.930 . S
C856 C851 1.385 . S
C856 C853 1.370 . S
C856 H875 0.930 . S
Tb857 N854 2.600 . S
Tb857 N858 2.660 . S
Tb857 O891 2.362 . S
Tb857 O892 2.421 . S
Tb857 O896 2.546 . S
Tb857 O897 2.610 . S
Tb857 O899 2.320 . S
Tb857 O900 2.552 . S
Tb857 O901 2.413 . S
Tb857 C921 2.833 . S
N858 C850 1.360 . S
N858 Tb857 2.660 . S
N858 C859 1.305 . S
C859 N858 1.305 . S
C859 C861 1.407 . S
C859 H866 0.930 . S
C860 C848 1.410 . S
C860 C861 1.345 . S
C860 H868 0.930 . S
C861 C859 1.407 . S
C861 C860 1.345 . S
C861 H863 0.930 . S
H862 C855 0.930 . S
H863 C861 0.930 . S
H864 C852 0.930 . S
H865 C853 0.931 . S
H866 C859 0.930 . S
H867 C881 0.930 . S
H868 C860 0.930 . S
H869 C887 0.930 . S
H870 C878 0.930 . S
H871 C885 0.931 . S
H872 C849 0.929 . S
H873 C879 0.930 . S
H874 C912 0.930 . S
H875 C856 0.930 . S
H876 C911 0.929 . S
N877 Tb846 2.660 . S
N877 C878 1.305 . S
N877 C882 1.360 . S
C878 H870 0.930 . S
C878 N877 1.305 . S
C878 C881 1.407 . S
C879 H873 0.930 . S
C879 C880 1.410 . S
C879 C881 1.345 . S
C880 C879 1.410 . S
C880 C882 1.417 . S
C880 C912 1.432 . S
C881 H867 0.930 . S
C881 C878 1.407 . S
C881 C879 1.345 . S
C882 N877 1.360 . S
C882 C880 1.417 . S
C882 C886 1.432 . S
H883 C888 0.930 . S
N884 Tb846 2.600 . S
N884 C886 1.359 . S
N884 C887 1.327 . S
C885 H871 0.931 . S
C885 C887 1.392 . S
C885 C888 1.370 . S
C886 C882 1.432 . S
C886 N884 1.359 . S
C886 C889 1.414 . S
C887 H869 0.930 . S
C887 N884 1.327 . S
C887 C885 1.392 . S
C888 H883 0.930 . S
C888 C885 1.370 . S
C888 C889 1.385 . S
C889 C886 1.414 . S
C889 C888 1.385 . S
C889 C911 1.444 . S
O890 Tb846 2.546 . S
O890 C910 1.251 . S
O891 Tb846 2.610 . S
O891 Tb857 2.362 . S
O891 C902 1.283 . S
O892 Tb857 2.421 . S
O892 C909 1.262 . S
O893 Tb846 2.320 . S
O893 C909 1.260 . S
O894 Tb846 2.552 . S
O894 C902 1.243 . S
O895 Tb846 2.413 . S
O895 C910 1.256 . S
O896 Tb857 2.546 . S
O896 C921 1.251 . S
O897 Tb846 2.362 . S
O897 Tb857 2.610 . S
O897 C913 1.283 . S
O898 Tb846 2.421 . S
O898 C920 1.262 . S
O899 Tb857 2.320 . S
O899 C920 1.260 . S
O900 Tb857 2.552 . S
O900 C913 1.243 . S
O901 Tb857 2.413 . S
O901 C921 1.256 . S
C902 O891 1.283 . S
C902 O894 1.243 . S
C903 C905 1.382 . S
C903 C907 1.393 . S
C903 C910 1.500 . S
C904 C905 1.400 . S
C904 C906 1.384 . S
C905 C903 1.382 . S
C905 C904 1.400 . S
C905 H922 0.930 . S
C906 C904 1.384 . S
C906 C908 1.392 . S
C906 H923 0.931 . S
C907 C903 1.393 . S
C907 C908 1.401 . S
C907 H924 0.930 . S
C908 C906 1.392 . S
C908 C907 1.401 . S
C908 H925 0.930 . S
C909 O892 1.262 . S
C909 O893 1.260 . S
C910 Tb846 2.833 . S
C910 O890 1.251 . S
C910 O895 1.256 . S
C910 C903 1.500 . S
C911 H876 0.929 . S
C911 C889 1.444 . S
C911 C912 1.317 . S
C912 H874 0.930 . S
C912 C880 1.432 . S
C912 C911 1.317 . S
C913 O897 1.283 . S
C913 O900 1.243 . S
C914 C915 1.382 . S
C914 C918 1.393 . S
C914 C921 1.500 . S
C915 C914 1.382 . S
C915 C916 1.400 . S
C915 H926 0.930 . S
C916 C915 1.400 . S
C916 C917 1.384 . S
C917 C916 1.384 . S
C917 C919 1.392 . S
C917 H927 0.931 . S
C918 C914 1.393 . S
C918 C919 1.401 . S
C918 H928 0.930 . S
C919 C917 1.392 . S
C919 C918 1.401 . S
C919 H929 0.930 . S
C920 O898 1.262 . S
C920 O899 1.260 . S
C921 Tb857 2.833 . S
C921 O896 1.251 . S
C921 O901 1.256 . S
C921 C914 1.500 . S
H922 C905 0.930 . S
H923 C906 0.931 . S
H924 C907 0.930 . S
H925 C908 0.930 . S
H926 C915 0.930 . S
H927 C917 0.931 . S
H928 C918 0.930 . S
H929 C919 0.930 . S
Tb930 N961 2.660 . S
Tb930 N968 2.600 . S
Tb930 O974 2.546 . S
Tb930 O975 2.610 . S
Tb930 O977 2.320 . S
Tb930 O978 2.552 . S
Tb930 O979 2.413 . S
Tb930 O981 2.362 . S
Tb930 O982 2.421 . S
Tb930 C994 2.833 . S
C931 C934 1.432 . S
C931 C935 1.414 . S
C931 N938 1.359 . S
C932 C934 1.417 . S
C932 C936 1.432 . S
C932 C944 1.410 . S
C933 C935 1.444 . S
C933 C936 1.317 . S
C933 H956 0.929 . S
C934 C931 1.432 . S
C934 C932 1.417 . S
C934 N942 1.360 . S
C935 C931 1.414 . S
C935 C933 1.444 . S
C935 C940 1.385 . S
C936 C932 1.432 . S
C936 C933 1.317 . S
C936 H948 0.930 . S
C937 C939 1.392 . S
C937 C940 1.370 . S
C937 H949 0.931 . S
N938 C931 1.359 . S
N938 C939 1.327 . S
N938 Tb941 2.600 . S
C939 C937 1.392 . S
C939 N938 1.327 . S
C939 H946 0.930 . S
C940 C935 1.385 . S
C940 C937 1.370 . S
C940 H959 0.930 . S
Tb941 N938 2.600 . S
Tb941 N942 2.660 . S
Tb941 O975 2.362 . S
Tb941 O976 2.421 . S
Tb941 O980 2.546 . S
Tb941 O981 2.610 . S
Tb941 O983 2.320 . S
Tb941 O984 2.552 . S
Tb941 O985 2.413 . S
Tb941 C1005 2.833 . S
N942 C934 1.360 . S
N942 Tb941 2.660 . S
N942 C943 1.305 . S
C943 N942 1.305 . S
C943 C945 1.407 . S
C943 H950 0.930 . S
C944 C932 1.410 . S
C944 C945 1.345 . S
C944 H952 0.930 . S
C945 C943 1.407 . S
C945 C944 1.345 . S
C945 H947 0.930 . S
H946 C939 0.930 . S
H947 C945 0.930 . S
H948 C936 0.930 . S
H949 C937 0.931 . S
H950 C943 0.930 . S
H951 C965 0.930 . S
H952 C944 0.930 . S
H953 C971 0.930 . S
H954 C962 0.930 . S
H955 C969 0.931 . S
H956 C933 0.929 . S
H957 C963 0.930 . S
H958 C996 0.930 . S
H959 C940 0.930 . S
H960 C995 0.929 . S
N961 Tb930 2.660 . S
N961 C962 1.305 . S
N961 C966 1.360 . S
C962 H954 0.930 . S
C962 N961 1.305 . S
C962 C965 1.407 . S
C963 H957 0.930 . S
C963 C964 1.410 . S
C963 C965 1.345 . S
C964 C963 1.410 . S
C964 C966 1.417 . S
C964 C996 1.432 . S
C965 H951 0.930 . S
C965 C962 1.407 . S
C965 C963 1.345 . S
C966 N961 1.360 . S
C966 C964 1.417 . S
C966 C970 1.432 . S
H967 C972 0.930 . S
N968 Tb930 2.600 . S
N968 C970 1.359 . S
N968 C971 1.327 . S
C969 H955 0.931 . S
C969 C971 1.392 . S
C969 C972 1.370 . S
C970 C966 1.432 . S
C970 N968 1.359 . S
C970 C973 1.414 . S
C971 H953 0.930 . S
C971 N968 1.327 . S
C971 C969 1.392 . S
C972 H967 0.930 . S
C972 C969 1.370 . S
C972 C973 1.385 . S
C973 C970 1.414 . S
C973 C972 1.385 . S
C973 C995 1.444 . S
O974 Tb930 2.546 . S
O974 C994 1.251 . S
O975 Tb930 2.610 . S
O975 Tb941 2.362 . S
O975 C986 1.283 . S
O976 Tb941 2.421 . S
O976 C993 1.262 . S
O977 Tb930 2.320 . S
O977 C993 1.260 . S
O978 Tb930 2.552 . S
O978 C986 1.243 . S
O979 Tb930 2.413 . S
O979 C994 1.256 . S
O980 Tb941 2.546 . S
O980 C1005 1.251 . S
O981 Tb930 2.362 . S
O981 Tb941 2.610 . S
O981 C997 1.283 . S
O982 Tb930 2.421 . S
O982 C1004 1.262 . S
O983 Tb941 2.320 . S
O983 C1004 1.260 . S
O984 Tb941 2.552 . S
O984 C997 1.243 . S
O985 Tb941 2.413 . S
O985 C1005 1.256 . S
C986 O975 1.283 . S
C986 O978 1.243 . S
C987 C989 1.382 . S
C987 C991 1.393 . S
C987 C994 1.500 . S
C988 C989 1.400 . S
C988 C990 1.384 . S
C989 C987 1.382 . S
C989 C988 1.400 . S
C989 H1006 0.930 . S
C990 C988 1.384 . S
C990 C992 1.392 . S
C990 H1007 0.931 . S
C991 C987 1.393 . S
C991 C992 1.401 . S
C991 H1008 0.930 . S
C992 C990 1.392 . S
C992 C991 1.401 . S
C992 H1009 0.930 . S
C993 O976 1.262 . S
C993 O977 1.260 . S
C994 Tb930 2.833 . S
C994 O974 1.251 . S
C994 O979 1.256 . S
C994 C987 1.500 . S
C995 H960 0.929 . S
C995 C973 1.444 . S
C995 C996 1.317 . S
C996 H958 0.930 . S
C996 C964 1.432 . S
C996 C995 1.317 . S
C997 O981 1.283 . S
C997 O984 1.243 . S
C998 C999 1.382 . S
C998 C1002 1.393 . S
C998 C1005 1.500 . S
C999 C998 1.382 . S
C999 C1000 1.400 . S
C999 H1010 0.930 . S
C1000 C999 1.400 . S
C1000 C1001 1.384 . S
C1001 C1000 1.384 . S
C1001 C1003 1.392 . S
C1001 H1011 0.931 . S
C1002 C998 1.393 . S
C1002 C1003 1.401 . S
C1002 H1012 0.930 . S
C1003 C1001 1.392 . S
C1003 C1002 1.401 . S
C1003 H1013 0.930 . S
C1004 O982 1.262 . S
C1004 O983 1.260 . S
C1005 Tb941 2.833 . S
C1005 O980 1.251 . S
C1005 O985 1.256 . S
C1005 C998 1.500 . S
H1006 C989 0.930 . S
H1007 C990 0.931 . S
H1008 C991 0.930 . S
H1009 C992 0.930 . S
H1010 C999 0.930 . S
H1011 C1001 0.931 . S
H1012 C1002 0.930 . S
H1013 C1003 0.930 . S
Tb1014 N1045 2.660 . S
Tb1014 N1052 2.600 . S
Tb1014 O1058 2.546 . S
Tb1014 O1059 2.610 . S
Tb1014 O1061 2.320 . S
Tb1014 O1062 2.552 . S
Tb1014 O1063 2.413 . S
Tb1014 O1065 2.362 . S
Tb1014 O1066 2.421 . S
Tb1014 C1078 2.833 . S
C1015 C1018 1.432 . S
C1015 C1019 1.414 . S
C1015 N1022 1.359 . S
C1016 C1018 1.417 . S
C1016 C1020 1.432 . S
C1016 C1028 1.410 . S
C1017 C1019 1.444 . S
C1017 C1020 1.317 . S
C1017 H1040 0.929 . S
C1018 C1015 1.432 . S
C1018 C1016 1.417 . S
C1018 N1026 1.360 . S
C1019 C1015 1.414 . S
C1019 C1017 1.444 . S
C1019 C1024 1.385 . S
C1020 C1016 1.432 . S
C1020 C1017 1.317 . S
C1020 H1032 0.930 . S
C1021 C1023 1.392 . S
C1021 C1024 1.370 . S
C1021 H1033 0.931 . S
N1022 C1015 1.359 . S
N1022 C1023 1.327 . S
N1022 Tb1025 2.600 . S
C1023 C1021 1.392 . S
C1023 N1022 1.327 . S
C1023 H1030 0.930 . S
C1024 C1019 1.385 . S
C1024 C1021 1.370 . S
C1024 H1043 0.930 . S
Tb1025 N1022 2.600 . S
Tb1025 N1026 2.660 . S
Tb1025 O1059 2.362 . S
Tb1025 O1060 2.421 . S
Tb1025 O1064 2.546 . S
Tb1025 O1065 2.610 . S
Tb1025 O1067 2.320 . S
Tb1025 O1068 2.552 . S
Tb1025 O1069 2.413 . S
Tb1025 C1089 2.833 . S
N1026 C1018 1.360 . S
N1026 Tb1025 2.660 . S
N1026 C1027 1.305 . S
C1027 N1026 1.305 . S
C1027 C1029 1.407 . S
C1027 H1034 0.930 . S
C1028 C1016 1.410 . S
C1028 C1029 1.345 . S
C1028 H1036 0.930 . S
C1029 C1027 1.407 . S
C1029 C1028 1.345 . S
C1029 H1031 0.930 . S
H1030 C1023 0.930 . S
H1031 C1029 0.930 . S
H1032 C1020 0.930 . S
H1033 C1021 0.931 . S
H1034 C1027 0.930 . S
H1035 C1049 0.930 . S
H1036 C1028 0.930 . S
H1037 C1055 0.930 . S
H1038 C1046 0.930 . S
H1039 C1053 0.931 . S
H1040 C1017 0.929 . S
H1041 C1047 0.930 . S
H1042 C1080 0.930 . S
H1043 C1024 0.930 . S
H1044 C1079 0.929 . S
N1045 Tb1014 2.660 . S
N1045 C1046 1.305 . S
N1045 C1050 1.360 . S
C1046 H1038 0.930 . S
C1046 N1045 1.305 . S
C1046 C1049 1.407 . S
C1047 H1041 0.930 . S
C1047 C1048 1.410 . S
C1047 C1049 1.345 . S
C1048 C1047 1.410 . S
C1048 C1050 1.417 . S
C1048 C1080 1.432 . S
C1049 H1035 0.930 . S
C1049 C1046 1.407 . S
C1049 C1047 1.345 . S
C1050 N1045 1.360 . S
C1050 C1048 1.417 . S
C1050 C1054 1.432 . S
H1051 C1056 0.930 . S
N1052 Tb1014 2.600 . S
N1052 C1054 1.359 . S
N1052 C1055 1.327 . S
C1053 H1039 0.931 . S
C1053 C1055 1.392 . S
C1053 C1056 1.370 . S
C1054 C1050 1.432 . S
C1054 N1052 1.359 . S
C1054 C1057 1.414 . S
C1055 H1037 0.930 . S
C1055 N1052 1.327 . S
C1055 C1053 1.392 . S
C1056 H1051 0.930 . S
C1056 C1053 1.370 . S
C1056 C1057 1.385 . S
C1057 C1054 1.414 . S
C1057 C1056 1.385 . S
C1057 C1079 1.444 . S
O1058 Tb1014 2.546 . S
O1058 C1078 1.251 . S
O1059 Tb1014 2.610 . S
O1059 Tb1025 2.362 . S
O1059 C1070 1.283 . S
O1060 Tb1025 2.421 . S
O1060 C1077 1.262 . S
O1061 Tb1014 2.320 . S
O1061 C1077 1.260 . S
O1062 Tb1014 2.552 . S
O1062 C1070 1.243 . S
O1063 Tb1014 2.413 . S
O1063 C1078 1.256 . S
O1064 Tb1025 2.546 . S
O1064 C1089 1.251 . S
O1065 Tb1014 2.362 . S
O1065 Tb1025 2.610 . S
O1065 C1081 1.283 . S
O1066 Tb1014 2.421 . S
O1066 C1088 1.262 . S
O1067 Tb1025 2.320 . S
O1067 C1088 1.260 . S
O1068 Tb1025 2.552 . S
O1068 C1081 1.243 . S
O1069 Tb1025 2.413 . S
O1069 C1089 1.256 . S
C1070 O1059 1.283 . S
C1070 O1062 1.243 . S
C1071 C1073 1.382 . S
C1071 C1075 1.393 . S
C1071 C1078 1.500 . S
C1072 C1073 1.400 . S
C1072 C1074 1.384 . S
C1073 C1071 1.382 . S
C1073 C1072 1.400 . S
C1073 H1090 0.930 . S
C1074 C1072 1.384 . S
C1074 C1076 1.392 . S
C1074 H1091 0.931 . S
C1075 C1071 1.393 . S
C1075 C1076 1.401 . S
C1075 H1092 0.930 . S
C1076 C1074 1.392 . S
C1076 C1075 1.401 . S
C1076 H1093 0.930 . S
C1077 O1060 1.262 . S
C1077 O1061 1.260 . S
C1078 Tb1014 2.833 . S
C1078 O1058 1.251 . S
C1078 O1063 1.256 . S
C1078 C1071 1.500 . S
C1079 H1044 0.929 . S
C1079 C1057 1.444 . S
C1079 C1080 1.317 . S
C1080 H1042 0.930 . S
C1080 C1048 1.432 . S
C1080 C1079 1.317 . S
C1081 O1065 1.283 . S
C1081 O1068 1.243 . S
C1082 C1083 1.382 . S
C1082 C1086 1.393 . S
C1082 C1089 1.500 . S
C1083 C1082 1.382 . S
C1083 C1084 1.400 . S
C1083 H1094 0.930 . S
C1084 C1083 1.400 . S
C1084 C1085 1.384 . S
C1085 C1084 1.384 . S
C1085 C1087 1.392 . S
C1085 H1095 0.931 . S
C1086 C1082 1.393 . S
C1086 C1087 1.401 . S
C1086 H1096 0.930 . S
C1087 C1085 1.392 . S
C1087 C1086 1.401 . S
C1087 H1097 0.930 . S
C1088 O1066 1.262 . S
C1088 O1067 1.260 . S
C1089 Tb1025 2.833 . S
C1089 O1064 1.251 . S
C1089 O1069 1.256 . S
C1089 C1082 1.500 . S
H1090 C1073 0.930 . S
H1091 C1074 0.931 . S
H1092 C1075 0.930 . S
H1093 C1076 0.930 . S
H1094 C1083 0.930 . S
H1095 C1085 0.931 . S
H1096 C1086 0.930 . S
H1097 C1087 0.930 . S
C1098 C1099 1.349 . S
C1098 C1100 1.327 . S
C1098 H1123 0.950 . S
C1099 C1098 1.349 . S
C1099 C1115 1.349 . S
C1100 C1098 1.327 . S
C1100 C1119 1.429 . S
C1100 H1124 0.950 . S
C1101 C1118 1.574 . S
C1101 C1120 1.368 . S
C1101 H1125 0.949 . S
H1102 C1106 0.949 . S
C1103 C1104 1.349 . S
C1103 C1105 1.327 . S
C1103 H1126 0.968 . S
C1104 C1103 1.349 . S
C1104 C1116 1.349 . S
C1105 C1103 1.327 . S
C1105 C1121 1.429 . S
C1105 H1127 0.950 . S
C1106 H1102 0.949 . S
C1106 C1114 1.574 . S
C1106 C1122 1.368 . S
H1107 C1115 0.950 . S
H1108 C1113 0.950 . S
H1109 C1114 0.949 . S
H1110 C1116 0.950 . S
H1111 C1117 0.950 . S
H1112 C1118 0.949 . S
C1113 H1108 0.950 . S
C1113 C1115 1.327 . S
C1113 C1119 1.429 . S
C1114 C1106 1.574 . S
C1114 H1109 0.949 . S
C1114 C1120 1.368 . S
C1115 C1099 1.349 . S
C1115 H1107 0.950 . S
C1115 C1113 1.327 . S
C1116 C1104 1.349 . S
C1116 H1110 0.950 . S
C1116 C1117 1.327 . S
C1117 H1111 0.950 . S
C1117 C1116 1.327 . S
C1117 C1121 1.429 . S
C1118 C1101 1.574 . S
C1118 H1112 0.949 . S
C1118 C1122 1.368 . S
C1119 C1100 1.429 . S
C1119 C1113 1.429 . S
C1119 C1120 1.523 . S
C1120 C1101 1.368 . S
C1120 C1114 1.368 . S
C1120 C1119 1.523 . S
C1121 C1105 1.429 . S
C1121 C1117 1.429 . S
C1121 C1122 1.523 . S
C1122 C1106 1.368 . S
C1122 C1118 1.368 . S
C1122 C1121 1.523 . S
H1123 C1098 0.950 . S
H1124 C1100 0.950 . S
H1125 C1101 0.949 . S
H1126 C1103 0.968 . S
H1127 C1105 0.950 . S
C1128 C1129 1.349 . S
C1128 C1130 1.327 . S
C1128 H1153 0.950 . S
C1129 C1128 1.349 . S
C1129 C1145 1.349 . S
C1130 C1128 1.327 . S
C1130 C1149 1.429 . S
C1130 H1154 0.950 . S
C1131 C1148 1.574 . S
C1131 C1150 1.368 . S
C1131 H1155 0.949 . S
H1132 C1136 0.949 . S
C1133 C1134 1.349 . S
C1133 C1135 1.327 . S
C1133 H1156 0.950 . S
C1134 C1133 1.349 . S
C1134 C1146 1.349 . S
C1135 C1133 1.327 . S
C1135 C1151 1.429 . S
C1135 H1157 0.950 . S
C1136 H1132 0.949 . S
C1136 C1144 1.574 . S
C1136 C1152 1.368 . S
H1137 C1145 0.950 . S
H1138 C1143 0.950 . S
H1139 C1144 0.949 . S
H1140 C1146 0.950 . S
H1141 C1147 0.950 . S
H1142 C1148 0.949 . S
C1143 H1138 0.950 . S
C1143 C1145 1.327 . S
C1143 C1149 1.429 . S
C1144 C1136 1.574 . S
C1144 H1139 0.949 . S
C1144 C1150 1.368 . S
C1145 C1129 1.349 . S
C1145 H1137 0.950 . S
C1145 C1143 1.327 . S
C1146 C1134 1.349 . S
C1146 H1140 0.950 . S
C1146 C1147 1.327 . S
C1147 H1141 0.950 . S
C1147 C1146 1.327 . S
C1147 C1151 1.429 . S
C1148 C1131 1.574 . S
C1148 H1142 0.949 . S
C1148 C1152 1.368 . S
C1149 C1130 1.429 . S
C1149 C1143 1.429 . S
C1149 C1150 1.523 . S
C1150 C1131 1.368 . S
C1150 C1144 1.368 . S
C1150 C1149 1.523 . S
C1151 C1135 1.429 . S
C1151 C1147 1.429 . S
C1151 C1152 1.523 . S
C1152 C1136 1.368 . S
C1152 C1148 1.368 . S
C1152 C1151 1.523 . S
H1153 C1128 0.950 . S
H1154 C1130 0.950 . S
H1155 C1131 0.949 . S
H1156 C1133 0.950 . S
H1157 C1135 0.950 . S
C1158 C1159 1.349 . S
C1158 C1160 1.327 . S
C1158 H1183 0.950 . S
C1159 C1158 1.349 . S
C1159 C1175 1.349 . S
C1160 C1158 1.327 . S
C1160 C1179 1.429 . S
C1160 H1184 0.950 . S
C1161 C1178 1.574 . S
C1161 C1180 1.368 . S
C1161 H1185 0.949 . S
H1162 C1166 0.949 . S
C1163 C1164 1.349 . S
C1163 C1165 1.327 . S
C1163 H1186 0.950 . S
C1164 C1163 1.349 . S
C1164 C1176 1.349 . S
C1165 C1163 1.327 . S
C1165 C1181 1.429 . S
C1165 H1187 0.950 . S
C1166 H1162 0.949 . S
C1166 C1174 1.574 . S
C1166 C1182 1.368 . S
H1167 C1175 0.950 . S
H1168 C1173 0.950 . S
H1169 C1174 0.949 . S
H1170 C1176 0.950 . S
H1171 C1177 0.950 . S
H1172 C1178 0.949 . S
C1173 H1168 0.950 . S
C1173 C1175 1.327 . S
C1173 C1179 1.429 . S
C1174 C1166 1.574 . S
C1174 H1169 0.949 . S
C1174 C1180 1.368 . S
C1175 C1159 1.349 . S
C1175 H1167 0.950 . S
C1175 C1173 1.327 . S
C1176 C1164 1.349 . S
C1176 H1170 0.950 . S
C1176 C1177 1.327 . S
C1177 H1171 0.950 . S
C1177 C1176 1.327 . S
C1177 C1181 1.429 . S
C1178 C1161 1.574 . S
C1178 H1172 0.949 . S
C1178 C1182 1.368 . S
C1179 C1160 1.429 . S
C1179 C1173 1.429 . S
C1179 C1180 1.523 . S
C1180 C1161 1.368 . S
C1180 C1174 1.368 . S
C1180 C1179 1.523 . S
C1181 C1165 1.429 . S
C1181 C1177 1.429 . S
C1181 C1182 1.523 . S
C1182 C1166 1.368 . S
C1182 C1178 1.368 . S
C1182 C1181 1.523 . S
H1183 C1158 0.950 . S
H1184 C1160 0.950 . S
H1185 C1161 0.949 . S
H1186 C1163 0.950 . S
H1187 C1165 0.950 . S
C1188 C1189 1.349 . S
C1188 C1190 1.327 . S
C1188 H1213 0.950 . S
C1189 C1188 1.349 . S
C1189 C1205 1.349 . S
C1190 C1188 1.327 . S
C1190 C1209 1.429 . S
C1190 H1214 0.950 . S
C1191 C1208 1.574 . S
C1191 C1210 1.368 . S
C1191 H1215 0.949 . S
H1192 C1196 0.949 . S
C1193 C1194 1.349 1_554 S
C1193 C1195 1.327 . S
C1193 H1216 0.950 . S
C1194 C1193 1.349 1_556 S
C1194 C1206 1.349 . S
C1195 C1193 1.327 . S
C1195 C1211 1.429 1_554 S
C1195 H1217 0.950 . S
C1196 H1192 0.949 . S
C1196 C1204 1.574 . S
C1196 C1212 1.368 . S
H1197 C1205 0.950 . S
H1198 C1203 0.950 . S
H1199 C1204 0.949 . S
H1200 C1206 0.950 . S
H1201 C1207 0.950 . S
H1202 C1208 0.949 1_554 S
C1203 H1198 0.950 . S
C1203 C1205 1.327 . S
C1203 C1209 1.429 . S
C1204 C1196 1.574 . S
C1204 H1199 0.949 . S
C1204 C1210 1.368 . S
C1205 C1189 1.349 . S
C1205 H1197 0.950 . S
C1205 C1203 1.327 . S
C1206 C1194 1.349 . S
C1206 H1200 0.950 . S
C1206 C1207 1.327 . S
C1207 H1201 0.950 . S
C1207 C1206 1.327 . S
C1207 C1211 1.429 . S
C1208 C1191 1.574 . S
C1208 H1202 0.949 1_556 S
C1208 C1212 1.368 . S
C1209 C1190 1.429 . S
C1209 C1203 1.429 . S
C1209 C1210 1.523 . S
C1210 C1191 1.368 . S
C1210 C1204 1.368 . S
C1210 C1209 1.523 . S
C1211 C1195 1.429 1_556 S
C1211 C1207 1.429 . S
C1211 C1212 1.523 . S
C1212 C1196 1.368 . S
C1212 C1208 1.368 . S
C1212 C1211 1.523 . S
H1213 C1188 0.950 . S
H1214 C1190 0.950 . S
H1215 C1191 0.949 . S
H1216 C1193 0.950 . S
H1217 C1195 0.950 . S
C1218 C1219 1.349 . S
C1218 C1220 1.327 . S
C1218 H1243 0.950 . S
C1219 C1218 1.349 . S
C1219 C1235 1.349 . S
C1220 C1218 1.327 . S
C1220 C1239 1.429 . S
C1220 H1244 0.950 . S
C1221 C1238 1.574 . S
C1221 C1240 1.368 . S
C1221 H1245 0.949 1_556 S
H1222 C1226 0.949 . S
C1223 C1224 1.308 1_554 S
C1223 C1225 1.327 . S
C1223 H1246 0.950 . S
C1224 C1223 1.308 1_556 S
C1224 C1236 1.407 . S
C1225 C1223 1.327 . S
C1225 C1241 1.429 1_554 S
C1225 H1247 0.950 . S
C1226 H1222 0.949 . S
C1226 C1234 1.574 . S
C1226 C1242 1.368 . S
H1227 C1235 0.950 . S
H1228 C1233 0.950 . S
H1229 C1234 0.949 . S
H1230 C1236 0.950 . S
H1231 C1237 0.950 . S
H1232 C1238 0.949 1_554 S
C1233 H1228 0.950 . S
C1233 C1235 1.327 . S
C1233 C1239 1.429 . S
C1234 C1226 1.574 . S
C1234 H1229 0.949 . S
C1234 C1240 1.368 . S
C1235 C1219 1.349 . S
C1235 H1227 0.950 . S
C1235 C1233 1.327 . S
C1236 C1224 1.407 . S
C1236 H1230 0.950 . S
C1236 C1237 1.327 . S
C1237 H1231 0.950 . S
C1237 C1236 1.327 . S
C1237 C1241 1.429 . S
C1238 C1221 1.574 . S
C1238 H1232 0.949 1_556 S
C1238 C1242 1.368 . S
C1239 C1220 1.429 . S
C1239 C1233 1.429 . S
C1239 C1240 1.523 . S
C1240 C1221 1.368 . S
C1240 C1234 1.368 . S
C1240 C1239 1.523 . S
C1241 C1225 1.429 1_556 S
C1241 C1237 1.429 . S
C1241 C1242 1.523 . S
C1242 C1226 1.368 . S
C1242 C1238 1.368 . S
C1242 C1241 1.523 . S
H1243 C1218 0.950 . S
H1244 C1220 0.950 . S
H1245 C1221 0.949 1_554 S
H1246 C1223 0.950 . S
H1247 C1225 0.950 . S
C1248 C1249 1.349 . S
C1248 C1250 1.327 . S
C1248 H1273 0.950 . S
C1249 C1248 1.349 . S
C1249 C1265 1.349 . S
C1250 C1248 1.327 . S
C1250 C1269 1.429 . S
C1250 H1274 0.950 . S
C1251 C1268 1.574 . S
C1251 C1270 1.368 . S
C1251 H1275 0.949 1_556 S
H1252 C1256 0.949 . S
C1253 C1254 1.343 1_554 S
C1253 C1255 1.327 . S
C1253 H1276 0.950 . S
C1254 C1253 1.343 1_556 S
C1254 C1266 1.356 . S
C1255 C1253 1.327 . S
C1255 C1271 1.429 1_554 S
C1255 H1277 0.950 . S
C1256 H1252 0.949 . S
C1256 C1264 1.574 . S
C1256 C1272 1.368 . S
H1257 C1265 0.950 . S
H1258 C1263 0.950 . S
H1259 C1264 0.949 . S
H1260 C1266 0.950 . S
H1261 C1267 0.950 . S
H1262 C1268 0.947 1_554 S
C1263 H1258 0.950 . S
C1263 C1265 1.327 . S
C1263 C1269 1.429 . S
C1264 C1256 1.574 . S
C1264 H1259 0.949 . S
C1264 C1270 1.368 . S
C1265 C1249 1.349 . S
C1265 H1257 0.950 . S
C1265 C1263 1.327 . S
C1266 C1254 1.356 . S
C1266 H1260 0.950 . S
C1266 C1267 1.327 . S
C1267 H1261 0.950 . S
C1267 C1266 1.327 . S
C1267 C1271 1.429 . S
C1268 C1251 1.574 . S
C1268 H1262 0.947 1_556 S
C1268 C1272 1.370 . S
C1269 C1250 1.429 . S
C1269 C1263 1.429 . S
C1269 C1270 1.523 . S
C1270 C1251 1.368 . S
C1270 C1264 1.368 . S
C1270 C1269 1.523 . S
C1271 C1255 1.429 1_556 S
C1271 C1267 1.429 . S
C1271 C1272 1.523 . S
C1272 C1256 1.368 . S
C1272 C1268 1.370 . S
C1272 C1271 1.523 . S
H1273 C1248 0.950 . S
H1274 C1250 0.950 . S
H1275 C1251 0.949 1_554 S
H1276 C1253 0.950 . S
H1277 C1255 0.950 . S
C1278 C1279 1.349 . S
C1278 C1280 1.327 . S
C1278 H1303 0.950 . S
C1279 C1278 1.349 . S
C1279 C1295 1.349 . S
C1280 C1278 1.327 . S
C1280 C1299 1.429 . S
C1280 H1304 0.950 . S
C1281 C1298 1.574 . S
C1281 C1300 1.368 . S
C1281 H1305 0.949 . S
H1282 C1286 0.926 1_554 S
C1283 C1284 1.349 . S
C1283 C1285 1.327 . S
C1283 H1306 0.950 . S
C1284 C1283 1.349 . S
C1284 C1296 1.349 1_556 S
C1285 C1283 1.327 . S
C1285 C1301 1.429 . S
C1285 H1307 0.950 . S
C1286 H1282 0.926 1_556 S
C1286 C1294 1.574 . S
C1286 C1302 1.368 . S
H1287 C1295 0.950 . S
H1288 C1293 0.950 . S
H1289 C1294 0.949 . S
H1290 C1296 0.950 . S
H1291 C1297 0.973 . S
H1292 C1298 0.949 . S
C1293 H1288 0.950 . S
C1293 C1295 1.327 . S
C1293 C1299 1.429 . S
C1294 C1286 1.574 . S
C1294 H1289 0.949 . S
C1294 C1300 1.368 . S
C1295 C1279 1.349 . S
C1295 H1287 0.950 . S
C1295 C1293 1.327 . S
C1296 C1284 1.349 1_554 S
C1296 H1290 0.950 . S
C1296 C1297 1.341 . S
C1297 H1291 0.973 . S
C1297 C1296 1.341 . S
C1297 C1301 1.398 1_554 S
C1298 C1281 1.574 . S
C1298 H1292 0.949 . S
C1298 C1302 1.368 . S
C1299 C1280 1.429 . S
C1299 C1293 1.429 . S
C1299 C1300 1.523 . S
C1300 C1281 1.368 . S
C1300 C1294 1.368 . S
C1300 C1299 1.523 . S
C1301 C1285 1.429 . S
C1301 C1297 1.398 1_556 S
C1301 C1302 1.523 . S
C1302 C1286 1.368 . S
C1302 C1298 1.368 . S
C1302 C1301 1.523 . S
H1303 C1278 0.950 . S
H1304 C1280 0.950 . S
H1305 C1281 0.949 . S
H1306 C1283 0.950 . S
H1307 C1285 0.950 . S
C1308 C1309 1.349 . S
C1308 C1310 1.327 . S
C1308 H1333 0.950 . S
C1309 C1308 1.349 . S
C1309 C1325 1.349 . S
C1310 C1308 1.327 . S
C1310 C1329 1.429 . S
C1310 H1334 0.950 . S
C1311 C1328 1.574 . S
C1311 C1330 1.368 . S
C1311 H1335 0.949 . S
H1312 C1316 0.949 . S
C1313 C1314 1.349 1_554 S
C1313 C1315 1.336 . S
C1313 H1336 0.950 . S
C1314 C1313 1.349 1_556 S
C1314 C1326 1.349 . S
C1315 C1313 1.336 . S
C1315 C1331 1.402 1_554 S
C1315 H1337 0.970 . S
C1316 H1312 0.949 . S
C1316 C1324 1.574 . S
C1316 C1332 1.368 . S
H1317 C1325 0.950 . S
H1318 C1323 0.950 . S
H1319 C1324 0.949 . S
H1320 C1326 0.950 . S
H1321 C1327 0.950 . S
H1322 C1328 0.949 1_554 S
C1323 H1318 0.950 . S
C1323 C1325 1.327 . S
C1323 C1329 1.429 . S
C1324 C1316 1.574 . S
C1324 H1319 0.949 . S
C1324 C1330 1.368 . S
C1325 C1309 1.349 . S
C1325 H1317 0.950 . S
C1325 C1323 1.327 . S
C1326 C1314 1.349 . S
C1326 H1320 0.950 . S
C1326 C1327 1.327 . S
C1327 H1321 0.950 . S
C1327 C1326 1.327 . S
C1327 C1331 1.429 . S
C1328 C1311 1.574 . S
C1328 H1322 0.949 1_556 S
C1328 C1332 1.368 . S
C1329 C1310 1.429 . S
C1329 C1323 1.429 . S
C1329 C1330 1.523 . S
C1330 C1311 1.368 . S
C1330 C1324 1.368 . S
C1330 C1329 1.523 . S
C1331 C1315 1.402 1_556 S
C1331 C1327 1.429 . S
C1331 C1332 1.523 . S
C1332 C1316 1.368 . S
C1332 C1328 1.368 . S
C1332 C1331 1.523 . S
H1333 C1308 0.950 . S
H1334 C1310 0.950 . S
H1335 C1311 0.949 . S
H1336 C1313 0.950 . S
H1337 C1315 0.970 . S
C1338 C1339 1.349 . S
C1338 C1340 1.327 . S
C1338 H1363 0.950 1_556 S
C1339 C1338 1.349 . S
C1339 C1355 1.349 . S
C1340 C1338 1.327 . S
C1340 C1359 1.429 . S
C1340 H1364 0.950 1_556 S
C1341 C1358 1.574 . S
C1341 C1360 1.368 . S
C1341 H1365 0.949 . S
H1342 C1346 0.949 . S
C1343 C1344 1.349 1_556 S
C1343 C1345 1.327 . S
C1343 H1366 0.950 . S
C1344 C1343 1.349 1_554 S
C1344 C1356 1.349 . S
C1345 C1343 1.327 . S
C1345 C1361 1.429 . S
C1345 H1367 0.950 . S
C1346 H1342 0.949 . S
C1346 C1354 1.574 . S
C1346 C1362 1.368 1_554 S
H1347 C1355 0.950 . S
H1348 C1353 0.950 . S
H1349 C1354 0.949 . S
H1350 C1356 0.950 . S
H1351 C1357 0.950 . S
H1352 C1358 0.949 . S
C1353 H1348 0.950 . S
C1353 C1355 1.327 . S
C1353 C1359 1.429 . S
C1354 C1346 1.574 . S
C1354 H1349 0.949 . S
C1354 C1360 1.368 1_554 S
C1355 C1339 1.349 . S
C1355 H1347 0.950 . S
C1355 C1353 1.327 . S
C1356 C1344 1.349 . S
C1356 H1350 0.950 . S
C1356 C1357 1.327 . S
C1357 H1351 0.950 . S
C1357 C1356 1.327 . S
C1357 C1361 1.429 1_554 S
C1358 C1341 1.574 . S
C1358 H1352 0.949 . S
C1358 C1362 1.368 . S
C1359 C1340 1.429 . S
C1359 C1353 1.429 . S
C1359 C1360 1.523 . S
C1360 C1341 1.368 . S
C1360 C1354 1.368 1_556 S
C1360 C1359 1.523 . S
C1361 C1345 1.429 . S
C1361 C1357 1.429 1_556 S
C1361 C1362 1.523 . S
C1362 C1346 1.368 1_556 S
C1362 C1358 1.368 . S
C1362 C1361 1.523 . S
H1363 C1338 0.950 1_554 S
H1364 C1340 0.950 1_554 S
H1365 C1341 0.949 . S
H1366 C1343 0.950 . S
H1367 C1345 0.950 . S
C1368 C1369 1.349 . S
C1368 C1370 1.327 . S
C1368 H1393 0.950 . S
C1369 C1368 1.349 . S
C1369 C1385 1.349 . S
C1370 C1368 1.327 . S
C1370 C1389 1.429 . S
C1370 H1394 0.950 . S
C1371 C1388 1.574 . S
C1371 C1390 1.368 . S
C1371 H1395 0.949 . S
H1372 C1376 0.949 . S
C1373 C1374 1.349 . S
C1373 C1375 1.327 . S
C1373 H1396 0.958 . S
C1374 C1373 1.349 . S
C1374 C1386 1.349 . S
C1375 C1373 1.327 . S
C1375 C1391 1.429 . S
C1375 H1397 0.950 . S
C1376 H1372 0.949 . S
C1376 C1384 1.574 . S
C1376 C1392 1.368 . S
H1377 C1385 0.950 . S
H1378 C1383 0.950 . S
H1379 C1384 0.949 . S
H1380 C1386 0.950 . S
H1381 C1387 0.950 . S
H1382 C1388 0.949 . S
C1383 H1378 0.950 . S
C1383 C1385 1.327 . S
C1383 C1389 1.429 . S
C1384 C1376 1.574 . S
C1384 H1379 0.949 . S
C1384 C1390 1.368 . S
C1385 C1369 1.349 . S
C1385 H1377 0.950 . S
C1385 C1383 1.327 . S
C1386 C1374 1.349 . S
C1386 H1380 0.950 . S
C1386 C1387 1.327 . S
C1387 H1381 0.950 . S
C1387 C1386 1.327 . S
C1387 C1391 1.429 . S
C1388 C1371 1.574 . S
C1388 H1382 0.949 . S
C1388 C1392 1.368 . S
C1389 C1370 1.429 . S
C1389 C1383 1.429 . S
C1389 C1390 1.523 . S
C1390 C1371 1.368 . S
C1390 C1384 1.368 . S
C1390 C1389 1.523 . S
C1391 C1375 1.429 . S
C1391 C1387 1.429 . S
C1391 C1392 1.523 . S
C1392 C1376 1.368 . S
C1392 C1388 1.368 . S
C1392 C1391 1.523 . S
H1393 C1368 0.950 . S
H1394 C1370 0.950 . S
H1395 C1371 0.949 . S
H1396 C1373 0.958 . S
H1397 C1375 0.950 . S
C1398 C1399 1.349 . S
C1398 C1400 1.327 . S
C1398 H1423 0.950 . S
C1399 C1398 1.349 . S
C1399 C1415 1.349 . S
C1400 C1398 1.327 . S
C1400 C1419 1.429 . S
C1400 H1424 0.950 . S
C1401 C1418 1.574 . S
C1401 C1420 1.368 . S
C1401 H1425 0.949 . S
H1402 C1406 0.949 . S
C1403 C1404 1.349 . S
C1403 C1405 1.327 . S
C1403 H1426 0.950 . S
C1404 C1403 1.349 . S
C1404 C1416 1.349 . S
C1405 C1403 1.327 . S
C1405 C1421 1.429 . S
C1405 H1427 0.950 . S
C1406 H1402 0.949 . S
C1406 C1414 1.574 . S
C1406 C1422 1.368 . S
H1407 C1415 0.950 . S
H1408 C1413 0.950 . S
H1409 C1414 0.949 . S
H1410 C1416 0.950 . S
H1411 C1417 0.950 . S
H1412 C1418 0.949 . S
C1413 H1408 0.950 . S
C1413 C1415 1.327 . S
C1413 C1419 1.429 . S
C1414 C1406 1.574 . S
C1414 H1409 0.949 . S
C1414 C1420 1.368 . S
C1415 C1399 1.349 . S
C1415 H1407 0.950 . S
C1415 C1413 1.327 . S
C1416 C1404 1.349 . S
C1416 H1410 0.950 . S
C1416 C1417 1.327 . S
C1417 H1411 0.950 . S
C1417 C1416 1.327 . S
C1417 C1421 1.429 . S
C1418 C1401 1.574 . S
C1418 H1412 0.949 . S
C1418 C1422 1.368 . S
C1419 C1400 1.429 . S
C1419 C1413 1.429 . S
C1419 C1420 1.523 . S
C1420 C1401 1.368 . S
C1420 C1414 1.368 . S
C1420 C1419 1.523 . S
C1421 C1405 1.429 . S
C1421 C1417 1.429 . S
C1421 C1422 1.523 . S
C1422 C1406 1.368 . S
C1422 C1418 1.368 . S
C1422 C1421 1.523 . S
H1423 C1398 0.950 . S
H1424 C1400 0.950 . S
H1425 C1401 0.949 . S
H1426 C1403 0.950 . S
H1427 C1405 0.950 . S
C1428 C1429 1.349 . S
C1428 C1430 1.327 . S
C1428 H1453 0.950 . S
C1429 C1428 1.349 . S
C1429 C1445 1.349 . S
C1430 C1428 1.327 . S
C1430 C1449 1.429 . S
C1430 H1454 0.950 . S
C1431 C1448 1.574 . S
C1431 C1450 1.368 . S
C1431 H1455 0.949 . S
H1432 C1436 0.949 . S
C1433 C1434 1.349 . S
C1433 C1435 1.327 . S
C1433 H1456 0.950 . S
C1434 C1433 1.349 . S
C1434 C1446 1.349 . S
C1435 C1433 1.327 . S
C1435 C1451 1.429 . S
C1435 H1457 0.950 . S
C1436 H1432 0.949 . S
C1436 C1444 1.574 . S
C1436 C1452 1.368 . S
H1437 C1445 0.950 . S
H1438 C1443 0.950 . S
H1439 C1444 0.949 . S
H1440 C1446 0.950 1_556 S
H1441 C1447 0.919 1_556 S
H1442 C1448 0.949 . S
C1443 H1438 0.950 . S
C1443 C1445 1.327 . S
C1443 C1449 1.429 . S
C1444 C1436 1.574 . S
C1444 H1439 0.949 . S
C1444 C1450 1.368 . S
C1445 C1429 1.349 . S
C1445 H1437 0.950 . S
C1445 C1443 1.327 . S
C1446 C1434 1.349 . S
C1446 H1440 0.950 1_554 S
C1446 C1447 1.327 . S
C1447 H1441 0.919 1_554 S
C1447 C1446 1.327 . S
C1447 C1451 1.429 . S
C1448 C1431 1.574 . S
C1448 H1442 0.949 . S
C1448 C1452 1.368 . S
C1449 C1430 1.429 . S
C1449 C1443 1.429 . S
C1449 C1450 1.523 . S
C1450 C1431 1.368 . S
C1450 C1444 1.368 . S
C1450 C1449 1.523 . S
C1451 C1435 1.429 . S
C1451 C1447 1.429 . S
C1451 C1452 1.523 . S
C1452 C1436 1.368 . S
C1452 C1448 1.368 . S
C1452 C1451 1.523 . S
H1453 C1428 0.950 . S
H1454 C1430 0.950 . S
H1455 C1431 0.949 . S
H1456 C1433 0.950 . S
H1457 C1435 0.950 . S
C1458 C1459 1.349 . S
C1458 C1460 1.327 . S
C1458 H1483 0.950 . S
C1459 C1458 1.349 . S
C1459 C1475 1.349 . S
C1460 C1458 1.327 . S
C1460 C1479 1.429 . S
C1460 H1484 0.950 . S
C1461 C1478 1.574 . S
C1461 C1480 1.368 1_455 S
C1461 H1485 0.949 . S
H1462 C1466 0.949 . S
C1463 C1464 1.349 . S
C1463 C1465 1.327 . S
C1463 H1486 0.950 . S
C1464 C1463 1.349 . S
C1464 C1476 1.349 . S
C1465 C1463 1.327 . S
C1465 C1481 1.429 . S
C1465 H1487 0.950 . S
C1466 H1462 0.949 . S
C1466 C1474 1.574 1_455 S
C1466 C1482 1.368 . S
H1467 C1475 0.950 . S
H1468 C1473 0.950 . S
H1469 C1474 0.949 . S
H1470 C1476 0.950 . S
H1471 C1477 0.950 . S
H1472 C1478 0.949 . S
C1473 H1468 0.950 . S
C1473 C1475 1.327 . S
C1473 C1479 1.429 . S
C1474 C1466 1.574 1_655 S
C1474 H1469 0.949 . S
C1474 C1480 1.368 . S
C1475 C1459 1.349 . S
C1475 H1467 0.950 . S
C1475 C1473 1.327 . S
C1476 C1464 1.349 . S
C1476 H1470 0.950 . S
C1476 C1477 1.327 . S
C1477 H1471 0.950 . S
C1477 C1476 1.327 . S
C1477 C1481 1.429 . S
C1478 C1461 1.574 . S
C1478 H1472 0.949 . S
C1478 C1482 1.368 . S
C1479 C1460 1.429 . S
C1479 C1473 1.429 . S
C1479 C1480 1.523 . S
C1480 C1461 1.368 1_655 S
C1480 C1474 1.368 . S
C1480 C1479 1.523 . S
C1481 C1465 1.429 . S
C1481 C1477 1.429 . S
C1481 C1482 1.523 . S
C1482 C1466 1.368 . S
C1482 C1478 1.368 . S
C1482 C1481 1.523 . S
H1483 C1458 0.950 . S
H1484 C1460 0.950 . S
H1485 C1461 0.949 . S
H1486 C1463 0.950 . S
H1487 C1465 0.950 . S
C1488 C1489 1.349 . S
C1488 C1490 1.327 . S
C1488 H1513 0.950 . S
C1489 C1488 1.349 . S
C1489 C1505 1.349 . S
C1490 C1488 1.327 . S
C1490 C1509 1.429 . S
C1490 H1514 0.950 . S
C1491 C1508 1.574 . S
C1491 C1510 1.368 . S
C1491 H1515 0.949 . S
H1492 C1496 0.949 . S
C1493 C1494 1.349 . S
C1493 C1495 1.327 . S
C1493 H1516 0.950 . S
C1494 C1493 1.349 . S
C1494 C1506 1.349 . S
C1495 C1493 1.327 . S
C1495 C1511 1.429 . S
C1495 H1517 0.950 . S
C1496 H1492 0.949 . S
C1496 C1504 1.574 . S
C1496 C1512 1.368 . S
H1497 C1505 0.950 . S
H1498 C1503 0.950 . S
H1499 C1504 0.949 . S
H1500 C1506 0.950 . S
H1501 C1507 0.950 . S
H1502 C1508 0.949 . S
C1503 H1498 0.950 . S
C1503 C1505 1.327 . S
C1503 C1509 1.429 . S
C1504 C1496 1.574 . S
C1504 H1499 0.949 . S
C1504 C1510 1.368 . S
C1505 C1489 1.349 . S
C1505 H1497 0.950 . S
C1505 C1503 1.327 . S
C1506 C1494 1.349 . S
C1506 H1500 0.950 . S
C1506 C1507 1.327 . S
C1507 H1501 0.950 . S
C1507 C1506 1.327 . S
C1507 C1511 1.429 . S
C1508 C1491 1.574 . S
C1508 H1502 0.949 . S
C1508 C1512 1.368 . S
C1509 C1490 1.429 . S
C1509 C1503 1.429 . S
C1509 C1510 1.523 . S
C1510 C1491 1.368 . S
C1510 C1504 1.368 . S
C1510 C1509 1.523 . S
C1511 C1495 1.429 . S
C1511 C1507 1.429 . S
C1511 C1512 1.523 . S
C1512 C1496 1.368 . S
C1512 C1508 1.368 . S
C1512 C1511 1.523 . S
H1513 C1488 0.950 . S
H1514 C1490 0.950 . S
H1515 C1491 0.949 . S
H1516 C1493 0.950 . S
H1517 C1495 0.950 . S
C1518 C1519 1.349 . S
C1518 C1520 1.327 . S
C1518 H1543 0.950 . S
C1519 C1518 1.349 . S
C1519 C1535 1.349 . S
C1520 C1518 1.327 . S
C1520 C1539 1.429 . S
C1520 H1544 0.950 . S
C1521 C1538 1.574 . S
C1521 C1540 1.368 . S
C1521 H1545 0.949 . S
H1522 C1526 0.949 . S
C1523 C1524 1.349 . S
C1523 C1525 1.327 . S
C1523 H1546 0.950 . S
C1524 C1523 1.349 . S
C1524 C1536 1.349 . S
C1525 C1523 1.327 . S
C1525 C1541 1.429 . S
C1525 H1547 0.950 . S
C1526 H1522 0.949 . S
C1526 C1534 1.574 1_565 S
C1526 C1542 1.368 . S
H1527 C1535 0.950 . S
H1528 C1533 0.950 . S
H1529 C1534 0.949 . S
H1530 C1536 0.950 . S
H1531 C1537 0.950 . S
H1532 C1538 0.954 . S
C1533 H1528 0.950 . S
C1533 C1535 1.327 . S
C1533 C1539 1.429 . S
C1534 C1526 1.574 1_545 S
C1534 H1529 0.949 . S
C1534 C1540 1.368 . S
C1535 C1519 1.349 . S
C1535 H1527 0.950 . S
C1535 C1533 1.327 . S
C1536 C1524 1.349 . S
C1536 H1530 0.950 . S
C1536 C1537 1.327 . S
C1537 H1531 0.950 . S
C1537 C1536 1.327 . S
C1537 C1541 1.429 . S
C1538 C1521 1.574 . S
C1538 H1532 0.954 . S
C1538 C1542 1.368 1_545 S
C1539 C1520 1.429 . S
C1539 C1533 1.429 . S
C1539 C1540 1.523 . S
C1540 C1521 1.368 . S
C1540 C1534 1.368 . S
C1540 C1539 1.523 . S
C1541 C1525 1.429 . S
C1541 C1537 1.429 . S
C1541 C1542 1.523 . S
C1542 C1526 1.368 . S
C1542 C1538 1.368 1_565 S
C1542 C1541 1.523 . S
H1543 C1518 0.950 . S
H1544 C1520 0.950 . S
H1545 C1521 0.949 . S
H1546 C1523 0.950 . S
H1547 C1525 0.950 . S
C1548 C1549 1.349 . S
C1548 C1550 1.327 . S
C1548 H1573 0.950 . S
C1549 C1548 1.349 . S
C1549 C1565 1.349 . S
C1550 C1548 1.327 . S
C1550 C1569 1.429 . S
C1550 H1574 0.950 . S
C1551 C1568 1.574 . S
C1551 C1570 1.368 . S
C1551 H1575 0.949 . S
H1552 C1556 0.949 . S
C1553 C1554 1.349 . S
C1553 C1555 1.327 . S
C1553 H1576 0.950 . S
C1554 C1553 1.349 . S
C1554 C1566 1.349 . S
C1555 C1553 1.327 . S
C1555 C1571 1.429 . S
C1555 H1577 0.950 . S
C1556 H1552 0.949 . S
C1556 C1564 1.574 . S
C1556 C1572 1.368 . S
H1557 C1565 0.950 . S
H1558 C1563 0.950 . S
H1559 C1564 0.949 . S
H1560 C1566 0.950 . S
H1561 C1567 0.950 . S
H1562 C1568 0.949 . S
C1563 H1558 0.950 . S
C1563 C1565 1.327 . S
C1563 C1569 1.429 . S
C1564 C1556 1.574 . S
C1564 H1559 0.949 . S
C1564 C1570 1.368 . S
C1565 C1549 1.349 . S
C1565 H1557 0.950 . S
C1565 C1563 1.327 . S
C1566 C1554 1.349 . S
C1566 H1560 0.950 . S
C1566 C1567 1.327 . S
C1567 H1561 0.950 . S
C1567 C1566 1.327 . S
C1567 C1571 1.429 . S
C1568 C1551 1.574 . S
C1568 H1562 0.949 . S
C1568 C1572 1.368 . S
C1569 C1550 1.429 . S
C1569 C1563 1.429 . S
C1569 C1570 1.523 . S
C1570 C1551 1.368 . S
C1570 C1564 1.368 . S
C1570 C1569 1.523 . S
C1571 C1555 1.429 . S
C1571 C1567 1.429 . S
C1571 C1572 1.523 . S
C1572 C1556 1.368 . S
C1572 C1568 1.368 . S
C1572 C1571 1.523 . S
H1573 C1548 0.950 . S
H1574 C1550 0.950 . S
H1575 C1551 0.949 . S
H1576 C1553 0.950 . S
H1577 C1555 0.950 . S
C1578 C1579 1.349 . S
C1578 C1580 1.327 . S
C1578 H1603 0.950 . S
C1579 C1578 1.349 . S
C1579 C1595 1.349 . S
C1580 C1578 1.327 . S
C1580 C1599 1.429 . S
C1580 H1604 0.950 . S
C1581 C1598 1.574 . S
C1581 C1600 1.368 . S
C1581 H1605 0.949 . S
H1582 C1586 0.949 . S
C1583 C1584 1.349 . S
C1583 C1585 1.327 . S
C1583 H1606 0.950 . S
C1584 C1583 1.349 . S
C1584 C1596 1.349 . S
C1585 C1583 1.327 . S
C1585 C1601 1.429 . S
C1585 H1607 0.950 . S
C1586 H1582 0.949 . S
C1586 C1594 1.574 . S
C1586 C1602 1.368 . S
H1587 C1595 0.950 . S
H1588 C1593 0.950 . S
H1589 C1594 0.949 . S
H1590 C1596 0.950 . S
H1591 C1597 0.950 . S
H1592 C1598 0.949 . S
C1593 H1588 0.950 . S
C1593 C1595 1.327 . S
C1593 C1599 1.429 . S
C1594 C1586 1.574 . S
C1594 H1589 0.949 . S
C1594 C1600 1.368 . S
C1595 C1579 1.349 . S
C1595 H1587 0.950 . S
C1595 C1593 1.327 . S
C1596 C1584 1.349 . S
C1596 H1590 0.950 . S
C1596 C1597 1.327 . S
C1597 H1591 0.950 . S
C1597 C1596 1.327 . S
C1597 C1601 1.429 . S
C1598 C1581 1.574 . S
C1598 H1592 0.949 . S
C1598 C1602 1.368 . S
C1599 C1580 1.429 . S
C1599 C1593 1.429 . S
C1599 C1600 1.523 . S
C1600 C1581 1.368 . S
C1600 C1594 1.368 . S
C1600 C1599 1.523 . S
C1601 C1585 1.429 . S
C1601 C1597 1.429 . S
C1601 C1602 1.523 . S
C1602 C1586 1.368 . S
C1602 C1598 1.368 . S
C1602 C1601 1.523 . S
H1603 C1578 0.950 . S
H1604 C1580 0.950 . S
H1605 C1581 0.949 . S
H1606 C1583 0.950 . S
H1607 C1585 0.950 . S
C1608 C1609 1.349 . S
C1608 C1610 1.327 . S
C1608 H1633 0.950 . S
C1609 C1608 1.349 . S
C1609 C1625 1.349 . S
C1610 C1608 1.327 . S
C1610 C1629 1.429 . S
C1610 H1634 0.950 . S
C1611 C1628 1.574 . S
C1611 C1630 1.368 . S
C1611 H1635 0.949 . S
H1612 C1616 0.949 . S
C1613 C1614 1.349 . S
C1613 C1615 1.327 . S
C1613 H1636 0.950 . S
C1614 C1613 1.349 . S
C1614 C1626 1.349 . S
C1615 C1613 1.327 . S
C1615 C1631 1.429 . S
C1615 H1637 0.950 . S
C1616 H1612 0.949 . S
C1616 C1624 1.574 . S
C1616 C1632 1.368 . S
H1617 C1625 0.950 . S
H1618 C1623 0.950 . S
H1619 C1624 0.949 . S
H1620 C1626 0.950 . S
H1621 C1627 0.950 . S
H1622 C1628 0.949 . S
C1623 H1618 0.950 . S
C1623 C1625 1.327 . S
C1623 C1629 1.429 . S
C1624 C1616 1.574 . S
C1624 H1619 0.949 . S
C1624 C1630 1.368 . S
C1625 C1609 1.349 . S
C1625 H1617 0.950 . S
C1625 C1623 1.327 . S
C1626 C1614 1.349 . S
C1626 H1620 0.950 . S
C1626 C1627 1.327 . S
C1627 H1621 0.950 . S
C1627 C1626 1.327 . S
C1627 C1631 1.429 . S
C1628 C1611 1.574 . S
C1628 H1622 0.949 . S
C1628 C1632 1.368 . S
C1629 C1610 1.429 . S
C1629 C1623 1.429 . S
C1629 C1630 1.523 . S
C1630 C1611 1.368 . S
C1630 C1624 1.368 . S
C1630 C1629 1.523 . S
C1631 C1615 1.429 . S
C1631 C1627 1.429 . S
C1631 C1632 1.523 . S
C1632 C1616 1.368 . S
C1632 C1628 1.368 . S
C1632 C1631 1.523 . S
H1633 C1608 0.950 . S
H1634 C1610 0.950 . S
H1635 C1611 0.949 . S
H1636 C1613 0.950 . S
H1637 C1615 0.950 . S
C1638 C1639 1.349 . S
C1638 C1640 1.327 . S
C1638 H1663 0.950 . S
C1639 C1638 1.349 . S
C1639 C1655 1.349 . S
C1640 C1638 1.327 . S
C1640 C1659 1.429 . S
C1640 H1664 0.950 . S
C1641 C1658 1.574 . S
C1641 C1660 1.368 . S
C1641 H1665 0.949 . S
H1642 C1646 0.949 . S
C1643 C1644 1.349 . S
C1643 C1645 1.327 . S
C1643 H1666 0.950 . S
C1644 C1643 1.349 . S
C1644 C1656 1.349 . S
C1645 C1643 1.327 . S
C1645 C1661 1.429 . S
C1645 H1667 0.950 . S
C1646 H1642 0.949 . S
C1646 C1654 1.574 . S
C1646 C1662 1.368 . S
H1647 C1655 0.950 . S
H1648 C1653 0.950 . S
H1649 C1654 0.949 . S
H1650 C1656 0.950 . S
H1651 C1657 0.950 . S
H1652 C1658 0.949 . S
C1653 H1648 0.950 . S
C1653 C1655 1.327 . S
C1653 C1659 1.429 . S
C1654 C1646 1.574 . S
C1654 H1649 0.949 . S
C1654 C1660 1.368 . S
C1655 C1639 1.349 . S
C1655 H1647 0.950 . S
C1655 C1653 1.327 . S
C1656 C1644 1.349 . S
C1656 H1650 0.950 . S
C1656 C1657 1.327 . S
C1657 H1651 0.950 . S
C1657 C1656 1.327 . S
C1657 C1661 1.429 . S
C1658 C1641 1.574 . S
C1658 H1652 0.949 . S
C1658 C1662 1.368 . S
C1659 C1640 1.429 . S
C1659 C1653 1.429 . S
C1659 C1660 1.523 . S
C1660 C1641 1.368 . S
C1660 C1654 1.368 . S
C1660 C1659 1.523 . S
C1661 C1645 1.429 . S
C1661 C1657 1.429 . S
C1661 C1662 1.523 . S
C1662 C1646 1.368 . S
C1662 C1658 1.368 . S
C1662 C1661 1.523 . S
H1663 C1638 0.950 . S
H1664 C1640 0.950 . S
H1665 C1641 0.949 . S
H1666 C1643 0.950 . S
H1667 C1645 0.950 . S
C1668 C1669 1.349 . S
C1668 C1670 1.327 . S
C1668 H1693 0.950 . S
C1669 C1668 1.349 . S
C1669 C1685 1.349 . S
C1670 C1668 1.327 . S
C1670 C1689 1.429 . S
C1670 H1694 0.950 . S
C1671 C1688 1.574 . S
C1671 C1690 1.368 . S
C1671 H1695 0.949 . S
H1672 C1676 0.949 . S
C1673 C1674 1.349 . S
C1673 C1675 1.327 . S
C1673 H1696 0.950 . S
C1674 C1673 1.349 . S
C1674 C1686 1.349 . S
C1675 C1673 1.327 . S
C1675 C1691 1.429 . S
C1675 H1697 0.950 . S
C1676 H1672 0.949 . S
C1676 C1684 1.574 . S
C1676 C1692 1.368 . S
H1677 C1685 0.950 . S
H1678 C1683 0.950 . S
H1679 C1684 0.949 . S
H1680 C1686 0.950 . S
H1681 C1687 0.950 . S
H1682 C1688 0.949 . S
C1683 H1678 0.950 . S
C1683 C1685 1.327 . S
C1683 C1689 1.429 . S
C1684 C1676 1.574 . S
C1684 H1679 0.949 . S
C1684 C1690 1.368 . S
C1685 C1669 1.349 . S
C1685 H1677 0.950 . S
C1685 C1683 1.327 . S
C1686 C1674 1.349 . S
C1686 H1680 0.950 . S
C1686 C1687 1.327 . S
C1687 H1681 0.950 . S
C1687 C1686 1.327 . S
C1687 C1691 1.429 . S
C1688 C1671 1.574 . S
C1688 H1682 0.949 . S
C1688 C1692 1.368 . S
C1689 C1670 1.429 . S
C1689 C1683 1.429 . S
C1689 C1690 1.523 . S
C1690 C1671 1.368 . S
C1690 C1684 1.368 . S
C1690 C1689 1.523 . S
C1691 C1675 1.429 . S
C1691 C1687 1.429 . S
C1691 C1692 1.523 . S
C1692 C1676 1.368 . S
C1692 C1688 1.368 . S
C1692 C1691 1.523 . S
H1693 C1668 0.950 . S
H1694 C1670 0.950 . S
H1695 C1671 0.949 . S
H1696 C1673 0.950 . S
H1697 C1675 0.950 . S
C1698 C1699 1.349 . S
C1698 C1700 1.327 . S
C1698 H1723 0.950 . S
C1699 C1698 1.349 . S
C1699 C1715 1.349 . S
C1700 C1698 1.327 . S
C1700 C1719 1.429 . S
C1700 H1724 0.950 . S
C1701 C1718 1.574 . S
C1701 C1720 1.368 . S
C1701 H1725 0.949 . S
H1702 C1706 0.949 . S
C1703 C1704 1.349 . S
C1703 C1705 1.327 . S
C1703 H1726 0.950 . S
C1704 C1703 1.349 . S
C1704 C1716 1.349 . S
C1705 C1703 1.327 . S
C1705 C1721 1.429 . S
C1705 H1727 0.950 . S
C1706 H1702 0.949 . S
C1706 C1714 1.574 . S
C1706 C1722 1.368 . S
H1707 C1715 0.950 . S
H1708 C1713 0.950 . S
H1709 C1714 0.949 . S
H1710 C1716 0.950 . S
H1711 C1717 0.950 . S
H1712 C1718 0.949 . S
C1713 H1708 0.950 . S
C1713 C1715 1.327 . S
C1713 C1719 1.429 . S
C1714 C1706 1.574 . S
C1714 H1709 0.949 . S
C1714 C1720 1.368 . S
C1715 C1699 1.349 . S
C1715 H1707 0.950 . S
C1715 C1713 1.327 . S
C1716 C1704 1.349 . S
C1716 H1710 0.950 . S
C1716 C1717 1.327 . S
C1717 H1711 0.950 . S
C1717 C1716 1.327 . S
C1717 C1721 1.429 . S
C1718 C1701 1.574 . S
C1718 H1712 0.949 . S
C1718 C1722 1.368 . S
C1719 C1700 1.429 . S
C1719 C1713 1.429 . S
C1719 C1720 1.523 . S
C1720 C1701 1.368 . S
C1720 C1714 1.368 . S
C1720 C1719 1.523 . S
C1721 C1705 1.429 . S
C1721 C1717 1.429 . S
C1721 C1722 1.523 . S
C1722 C1706 1.368 . S
C1722 C1718 1.368 . S
C1722 C1721 1.523 . S
H1723 C1698 0.950 . S
H1724 C1700 0.950 . S
H1725 C1701 0.949 . S
H1726 C1703 0.950 . S
H1727 C1705 0.950 . S
C1728 C1729 1.349 . S
C1728 C1730 1.327 1_545 S
C1728 H1753 0.950 . S
C1729 C1728 1.349 . S
C1729 C1745 1.349 . S
C1730 C1728 1.327 1_565 S
C1730 C1749 1.429 . S
C1730 H1754 0.950 . S
C1731 C1748 1.574 . S
C1731 C1750 1.368 . S
C1731 H1755 0.949 . S
H1732 C1736 0.949 . S
C1733 C1734 1.349 . S
C1733 C1735 1.327 . S
C1733 H1756 0.950 . S
C1734 C1733 1.349 . S
C1734 C1746 1.349 . S
C1735 C1733 1.327 . S
C1735 C1751 1.429 . S
C1735 H1757 0.950 . S
C1736 H1732 0.949 . S
C1736 C1744 1.574 . S
C1736 C1752 1.368 . S
H1737 C1745 0.950 . S
H1738 C1743 0.950 . S
H1739 C1744 0.949 . S
H1740 C1746 0.950 . S
H1741 C1747 0.950 . S
H1742 C1748 0.949 . S
C1743 H1738 0.950 . S
C1743 C1745 1.327 1_565 S
C1743 C1749 1.429 . S
C1744 C1736 1.574 . S
C1744 H1739 0.949 . S
C1744 C1750 1.368 . S
C1745 C1729 1.349 . S
C1745 H1737 0.950 . S
C1745 C1743 1.327 1_545 S
C1746 C1734 1.349 . S
C1746 H1740 0.950 . S
C1746 C1747 1.327 . S
C1747 H1741 0.950 . S
C1747 C1746 1.327 . S
C1747 C1751 1.429 . S
C1748 C1731 1.574 . S
C1748 H1742 0.949 . S
C1748 C1752 1.368 . S
C1749 C1730 1.429 . S
C1749 C1743 1.429 . S
C1749 C1750 1.523 . S
C1750 C1731 1.368 . S
C1750 C1744 1.368 . S
C1750 C1749 1.523 . S
C1751 C1735 1.429 . S
C1751 C1747 1.429 . S
C1751 C1752 1.523 . S
C1752 C1736 1.368 . S
C1752 C1748 1.368 . S
C1752 C1751 1.523 . S
H1753 C1728 0.950 . S
H1754 C1730 0.950 . S
H1755 C1731 0.949 . S
H1756 C1733 0.950 . S
H1757 C1735 0.950 . S
C1758 C1759 1.349 1_455 S
C1758 C1760 1.327 . S
C1758 H1783 0.950 1_455 S
C1759 C1758 1.349 1_655 S
C1759 C1775 1.349 1_655 S
C1760 C1758 1.327 . S
C1760 C1779 1.429 . S
C1760 H1784 0.950 . S
C1761 C1778 1.574 . S
C1761 C1780 1.368 . S
C1761 H1785 0.949 . S
H1762 C1766 0.949 . S
C1763 C1764 1.349 . S
C1763 C1765 1.327 . S
C1763 H1786 0.950 . S
C1764 C1763 1.349 . S
C1764 C1776 1.349 . S
C1765 C1763 1.327 . S
C1765 C1781 1.429 . S
C1765 H1787 0.950 . S
C1766 H1762 0.949 . S
C1766 C1774 1.574 . S
C1766 C1782 1.368 . S
H1767 C1775 0.950 . S
H1768 C1773 0.950 . S
H1769 C1774 0.949 . S
H1770 C1776 0.950 . S
H1771 C1777 0.950 . S
H1772 C1778 0.949 . S
C1773 H1768 0.950 . S
C1773 C1775 1.327 . S
C1773 C1779 1.429 . S
C1774 C1766 1.574 . S
C1774 H1769 0.949 . S
C1774 C1780 1.368 . S
C1775 C1759 1.349 1_455 S
C1775 H1767 0.950 . S
C1775 C1773 1.327 . S
C1776 C1764 1.349 . S
C1776 H1770 0.950 . S
C1776 C1777 1.327 . S
C1777 H1771 0.950 . S
C1777 C1776 1.327 . S
C1777 C1781 1.429 . S
C1778 C1761 1.574 . S
C1778 H1772 0.949 . S
C1778 C1782 1.368 . S
C1779 C1760 1.429 . S
C1779 C1773 1.429 . S
C1779 C1780 1.523 . S
C1780 C1761 1.368 . S
C1780 C1774 1.368 . S
C1780 C1779 1.523 . S
C1781 C1765 1.429 . S
C1781 C1777 1.429 . S
C1781 C1782 1.523 . S
C1782 C1766 1.368 . S
C1782 C1778 1.368 . S
C1782 C1781 1.523 . S
H1783 C1758 0.950 1_655 S
H1784 C1760 0.950 . S
H1785 C1761 0.949 . S
H1786 C1763 0.950 . S
H1787 C1765 0.950 . S
C1788 C1789 1.349 . S
C1788 C1790 1.327 . S
C1788 H1813 0.950 . S
C1789 C1788 1.349 . S
C1789 C1805 1.349 . S
C1790 C1788 1.327 . S
C1790 C1809 1.429 . S
C1790 H1814 0.950 . S
C1791 C1808 1.574 . S
C1791 C1810 1.368 . S
C1791 H1815 0.949 . S
H1792 C1796 0.949 . S
C1793 C1794 1.349 . S
C1793 C1795 1.327 . S
C1793 H1816 0.950 . S
C1794 C1793 1.349 . S
C1794 C1806 1.349 . S
C1795 C1793 1.327 . S
C1795 C1811 1.429 . S
C1795 H1817 0.950 . S
C1796 H1792 0.949 . S
C1796 C1804 1.574 . S
C1796 C1812 1.368 . S
H1797 C1805 0.950 . S
H1798 C1803 0.950 . S
H1799 C1804 0.949 . S
H1800 C1806 0.950 . S
H1801 C1807 0.950 . S
H1802 C1808 0.949 . S
C1803 H1798 0.950 . S
C1803 C1805 1.327 . S
C1803 C1809 1.429 . S
C1804 C1796 1.574 . S
C1804 H1799 0.949 . S
C1804 C1810 1.368 . S
C1805 C1789 1.349 . S
C1805 H1797 0.950 . S
C1805 C1803 1.327 . S
C1806 C1794 1.349 . S
C1806 H1800 0.950 . S
C1806 C1807 1.327 . S
C1807 H1801 0.950 . S
C1807 C1806 1.327 . S
C1807 C1811 1.429 . S
C1808 C1791 1.574 . S
C1808 H1802 0.949 . S
C1808 C1812 1.368 . S
C1809 C1790 1.429 . S
C1809 C1803 1.429 . S
C1809 C1810 1.523 . S
C1810 C1791 1.368 . S
C1810 C1804 1.368 . S
C1810 C1809 1.523 . S
C1811 C1795 1.429 . S
C1811 C1807 1.429 . S
C1811 C1812 1.523 . S
C1812 C1796 1.368 . S
C1812 C1808 1.368 . S
C1812 C1811 1.523 . S
H1813 C1788 0.950 . S
H1814 C1790 0.950 . S
H1815 C1791 0.949 . S
H1816 C1793 0.950 . S
H1817 C1795 0.950 . S
C1818 C1819 1.349 . S
C1818 C1820 1.327 . S
C1818 H1843 0.950 . S
C1819 C1818 1.349 . S
C1819 C1835 1.349 . S
C1820 C1818 1.327 . S
C1820 C1839 1.429 . S
C1820 H1844 0.950 . S
C1821 C1838 1.574 . S
C1821 C1840 1.368 . S
C1821 H1845 0.949 . S
H1822 C1826 0.949 . S
C1823 C1824 1.349 . S
C1823 C1825 1.327 . S
C1823 H1846 0.950 . S
C1824 C1823 1.349 . S
C1824 C1836 1.349 . S
C1825 C1823 1.327 . S
C1825 C1841 1.429 . S
C1825 H1847 0.950 . S
C1826 H1822 0.949 . S
C1826 C1834 1.574 . S
C1826 C1842 1.368 . S
H1827 C1835 0.950 . S
H1828 C1833 0.950 . S
H1829 C1834 0.949 . S
H1830 C1836 0.950 . S
H1831 C1837 0.950 . S
H1832 C1838 0.949 . S
C1833 H1828 0.950 . S
C1833 C1835 1.327 . S
C1833 C1839 1.429 . S
C1834 C1826 1.574 . S
C1834 H1829 0.949 . S
C1834 C1840 1.368 . S
C1835 C1819 1.349 . S
C1835 H1827 0.950 . S
C1835 C1833 1.327 . S
C1836 C1824 1.349 . S
C1836 H1830 0.950 . S
C1836 C1837 1.327 . S
C1837 H1831 0.950 . S
C1837 C1836 1.327 . S
C1837 C1841 1.429 . S
C1838 C1821 1.574 . S
C1838 H1832 0.949 . S
C1838 C1842 1.368 . S
C1839 C1820 1.429 . S
C1839 C1833 1.429 . S
C1839 C1840 1.523 . S
C1840 C1821 1.368 . S
C1840 C1834 1.368 . S
C1840 C1839 1.523 . S
C1841 C1825 1.429 . S
C1841 C1837 1.429 . S
C1841 C1842 1.523 . S
C1842 C1826 1.368 . S
C1842 C1838 1.368 . S
C1842 C1841 1.523 . S
H1843 C1818 0.950 . S
H1844 C1820 0.950 . S
H1845 C1821 0.949 . S
H1846 C1823 0.950 . S
H1847 C1825 0.950 . S
C1848 C1849 1.349 . S
C1848 C1850 1.327 . S
C1848 H1873 0.950 . S
C1849 C1848 1.349 . S
C1849 C1865 1.349 . S
C1850 C1848 1.327 . S
C1850 C1869 1.429 . S
C1850 H1874 0.950 . S
C1851 C1868 1.574 . S
C1851 C1870 1.368 . S
C1851 H1875 0.949 . S
H1852 C1856 0.949 . S
C1853 C1854 1.349 . S
C1853 C1855 1.327 . S
C1853 H1876 0.950 . S
C1854 C1853 1.349 . S
C1854 C1866 1.349 . S
C1855 C1853 1.327 . S
C1855 C1871 1.429 . S
C1855 H1877 0.950 . S
C1856 H1852 0.949 . S
C1856 C1864 1.574 . S
C1856 C1872 1.368 . S
H1857 C1865 0.950 . S
H1858 C1863 0.950 . S
H1859 C1864 0.949 . S
H1860 C1866 0.950 . S
H1861 C1867 0.950 . S
H1862 C1868 0.949 . S
C1863 H1858 0.950 . S
C1863 C1865 1.327 . S
C1863 C1869 1.429 . S
C1864 C1856 1.574 . S
C1864 H1859 0.949 . S
C1864 C1870 1.368 . S
C1865 C1849 1.349 . S
C1865 H1857 0.950 . S
C1865 C1863 1.327 . S
C1866 C1854 1.349 . S
C1866 H1860 0.950 . S
C1866 C1867 1.327 . S
C1867 H1861 0.950 . S
C1867 C1866 1.327 . S
C1867 C1871 1.429 . S
C1868 C1851 1.574 . S
C1868 H1862 0.949 . S
C1868 C1872 1.368 . S
C1869 C1850 1.429 . S
C1869 C1863 1.429 . S
C1869 C1870 1.523 . S
C1870 C1851 1.368 . S
C1870 C1864 1.368 . S
C1870 C1869 1.523 . S
C1871 C1855 1.429 . S
C1871 C1867 1.429 . S
C1871 C1872 1.523 . S
C1872 C1856 1.368 . S
C1872 C1868 1.368 . S
C1872 C1871 1.523 . S
H1873 C1848 0.950 . S
H1874 C1850 0.950 . S
H1875 C1851 0.949 . S
H1876 C1853 0.950 . S
H1877 C1855 0.950 . S
C1878 C1879 1.349 . S
C1878 C1880 1.327 . S
C1878 H1903 0.950 . S
C1879 C1878 1.349 . S
C1879 C1895 1.349 . S
C1880 C1878 1.327 . S
C1880 C1899 1.429 . S
C1880 H1904 0.950 . S
C1881 C1898 1.574 . S
C1881 C1900 1.368 . S
C1881 H1905 0.949 . S
H1882 C1886 0.949 . S
C1883 C1884 1.349 . S
C1883 C1885 1.327 . S
C1883 H1906 0.950 . S
C1884 C1883 1.349 . S
C1884 C1896 1.349 . S
C1885 C1883 1.327 . S
C1885 C1901 1.429 . S
C1885 H1907 0.950 . S
C1886 H1882 0.949 . S
C1886 C1894 1.574 . S
C1886 C1902 1.368 . S
H1887 C1895 0.950 . S
H1888 C1893 0.950 . S
H1889 C1894 0.949 . S
H1890 C1896 0.950 . S
H1891 C1897 0.950 . S
H1892 C1898 0.949 . S
C1893 H1888 0.950 . S
C1893 C1895 1.327 . S
C1893 C1899 1.429 . S
C1894 C1886 1.574 . S
C1894 H1889 0.949 . S
C1894 C1900 1.368 . S
C1895 C1879 1.349 . S
C1895 H1887 0.950 . S
C1895 C1893 1.327 . S
C1896 C1884 1.349 . S
C1896 H1890 0.950 . S
C1896 C1897 1.327 . S
C1897 H1891 0.950 . S
C1897 C1896 1.327 . S
C1897 C1901 1.429 . S
C1898 C1881 1.574 . S
C1898 H1892 0.949 . S
C1898 C1902 1.368 . S
C1899 C1880 1.429 . S
C1899 C1893 1.429 . S
C1899 C1900 1.523 . S
C1900 C1881 1.368 . S
C1900 C1894 1.368 . S
C1900 C1899 1.523 . S
C1901 C1885 1.429 . S
C1901 C1897 1.429 . S
C1901 C1902 1.523 . S
C1902 C1886 1.368 . S
C1902 C1898 1.368 . S
C1902 C1901 1.523 . S
H1903 C1878 0.950 . S
H1904 C1880 0.950 . S
H1905 C1881 0.949 . S
H1906 C1883 0.950 . S
H1907 C1885 0.950 . S
C1908 C1909 1.349 . S
C1908 C1910 1.327 . S
C1908 H1933 0.950 . S
C1909 C1908 1.349 . S
C1909 C1925 1.349 . S
C1910 C1908 1.327 . S
C1910 C1929 1.429 . S
C1910 H1934 0.950 . S
C1911 C1928 1.574 1_565 S
C1911 C1930 1.368 . S
C1911 H1935 0.949 . S
H1912 C1916 0.949 . S
C1913 C1914 1.349 . S
C1913 C1915 1.327 . S
C1913 H1936 0.950 . S
C1914 C1913 1.349 . S
C1914 C1926 1.349 . S
C1915 C1913 1.327 . S
C1915 C1931 1.429 . S
C1915 H1937 0.950 . S
C1916 H1912 0.949 . S
C1916 C1924 1.574 . S
C1916 C1932 1.368 . S
H1917 C1925 0.950 . S
H1918 C1923 0.950 . S
H1919 C1924 0.949 . S
H1920 C1926 0.950 . S
H1921 C1927 0.950 . S
H1922 C1928 0.949 . S
C1923 H1918 0.950 . S
C1923 C1925 1.327 . S
C1923 C1929 1.429 . S
C1924 C1916 1.574 . S
C1924 H1919 0.949 . S
C1924 C1930 1.368 1_545 S
C1925 C1909 1.349 . S
C1925 H1917 0.950 . S
C1925 C1923 1.327 . S
C1926 C1914 1.349 . S
C1926 H1920 0.950 . S
C1926 C1927 1.327 . S
C1927 H1921 0.950 . S
C1927 C1926 1.327 . S
C1927 C1931 1.429 . S
C1928 C1911 1.574 1_545 S
C1928 H1922 0.949 . S
C1928 C1932 1.368 . S
C1929 C1910 1.429 . S
C1929 C1923 1.429 . S
C1929 C1930 1.523 . S
C1930 C1911 1.368 . S
C1930 C1924 1.368 1_565 S
C1930 C1929 1.523 . S
C1931 C1915 1.429 . S
C1931 C1927 1.429 . S
C1931 C1932 1.523 . S
C1932 C1916 1.368 . S
C1932 C1928 1.368 . S
C1932 C1931 1.523 . S
H1933 C1908 0.950 . S
H1934 C1910 0.950 . S
H1935 C1911 0.949 . S
H1936 C1913 0.950 . S
H1937 C1915 0.950 . S
C1938 C1939 1.349 . S
C1938 C1940 1.327 . S
C1938 H1963 0.950 . S
C1939 C1938 1.349 . S
C1939 C1955 1.349 . S
C1940 C1938 1.327 . S
C1940 C1959 1.429 . S
C1940 H1964 0.950 . S
C1941 C1958 1.574 1_455 S
C1941 C1960 1.368 . S
C1941 H1965 0.949 . S
H1942 C1946 0.949 . S
C1943 C1944 1.349 . S
C1943 C1945 1.327 . S
C1943 H1966 0.950 . S
C1944 C1943 1.349 . S
C1944 C1956 1.349 . S
C1945 C1943 1.327 . S
C1945 C1961 1.429 . S
C1945 H1967 0.950 . S
C1946 H1942 0.949 . S
C1946 C1954 1.574 1_655 S
C1946 C1962 1.368 . S
H1947 C1955 0.950 . S
H1948 C1953 0.950 . S
H1949 C1954 0.949 . S
H1950 C1956 0.950 . S
H1951 C1957 0.950 . S
H1952 C1958 0.949 . S
C1953 H1948 0.950 . S
C1953 C1955 1.327 . S
C1953 C1959 1.429 . S
C1954 C1946 1.574 1_455 S
C1954 H1949 0.949 . S
C1954 C1960 1.368 . S
C1955 C1939 1.349 . S
C1955 H1947 0.950 . S
C1955 C1953 1.327 . S
C1956 C1944 1.349 . S
C1956 H1950 0.950 . S
C1956 C1957 1.327 . S
C1957 H1951 0.950 . S
C1957 C1956 1.327 . S
C1957 C1961 1.429 . S
C1958 C1941 1.574 1_655 S
C1958 H1952 0.949 . S
C1958 C1962 1.368 . S
C1959 C1940 1.429 . S
C1959 C1953 1.429 . S
C1959 C1960 1.523 . S
C1960 C1941 1.368 . S
C1960 C1954 1.368 . S
C1960 C1959 1.523 . S
C1961 C1945 1.429 . S
C1961 C1957 1.429 . S
C1961 C1962 1.523 . S
C1962 C1946 1.368 . S
C1962 C1958 1.368 . S
C1962 C1961 1.523 . S
H1963 C1938 0.950 . S
H1964 C1940 0.950 . S
H1965 C1941 0.949 . S
H1966 C1943 0.950 . S
H1967 C1945 0.950 . S
C1968 C1969 1.349 . S
C1968 C1970 1.327 . S
C1968 H1993 0.950 . S
C1969 C1968 1.349 . S
C1969 C1985 1.349 . S
C1970 C1968 1.327 . S
C1970 C1989 1.429 . S
C1970 H1994 0.950 . S
C1971 C1988 1.574 . S
C1971 C1990 1.368 . S
C1971 H1995 0.949 . S
H1972 C1976 0.949 . S
C1973 C1974 1.349 . S
C1973 C1975 1.327 . S
C1973 H1996 0.950 . S
C1974 C1973 1.349 . S
C1974 C1986 1.349 . S
C1975 C1973 1.327 . S
C1975 C1991 1.429 . S
C1975 H1997 0.950 . S
C1976 H1972 0.949 . S
C1976 C1984 1.574 . S
C1976 C1992 1.368 . S
H1977 C1985 0.950 . S
H1978 C1983 0.950 . S
H1979 C1984 0.949 . S
H1980 C1986 0.950 . S
H1981 C1987 0.950 . S
H1982 C1988 0.949 . S
C1983 H1978 0.950 . S
C1983 C1985 1.327 . S
C1983 C1989 1.429 . S
C1984 C1976 1.574 . S
C1984 H1979 0.949 . S
C1984 C1990 1.368 . S
C1985 C1969 1.349 . S
C1985 H1977 0.950 . S
C1985 C1983 1.327 . S
C1986 C1974 1.349 . S
C1986 H1980 0.950 . S
C1986 C1987 1.327 . S
C1987 H1981 0.950 . S
C1987 C1986 1.327 . S
C1987 C1991 1.429 . S
C1988 C1971 1.574 . S
C1988 H1982 0.949 . S
C1988 C1992 1.368 . S
C1989 C1970 1.429 . S
C1989 C1983 1.429 . S
C1989 C1990 1.523 . S
C1990 C1971 1.368 . S
C1990 C1984 1.368 . S
C1990 C1989 1.523 . S
C1991 C1975 1.429 . S
C1991 C1987 1.429 . S
C1991 C1992 1.523 . S
C1992 C1976 1.368 . S
C1992 C1988 1.368 . S
C1992 C1991 1.523 . S
H1993 C1968 0.950 . S
H1994 C1970 0.950 . S
H1995 C1971 0.949 . S
H1996 C1973 0.950 . S
H1997 C1975 0.950 . S
C1998 C1999 1.349 . S
C1998 C2000 1.327 1_455 S
C1998 H2023 0.950 . S
C1999 C1998 1.349 . S
C1999 C2015 1.352 1_455 S
C2000 C1998 1.327 1_655 S
C2000 C2019 1.429 . S
C2000 H2024 0.950 . S
C2001 C2018 1.574 . S
C2001 C2020 1.368 . S
C2001 H2025 0.949 . S
H2002 C2006 0.949 . S
C2003 C2004 1.349 . S
C2003 C2005 1.327 . S
C2003 H2026 0.950 . S
C2004 C2003 1.349 . S
C2004 C2016 1.349 . S
C2005 C2003 1.327 . S
C2005 C2021 1.429 . S
C2005 H2027 0.950 . S
C2006 H2002 0.949 . S
C2006 C2014 1.574 . S
C2006 C2022 1.368 . S
H2007 C2015 0.950 1_455 S
H2008 C2013 0.950 . S
H2009 C2014 0.949 . S
H2010 C2016 0.950 . S
H2011 C2017 0.950 . S
H2012 C2018 0.949 . S
C2013 H2008 0.950 . S
C2013 C2015 1.324 . S
C2013 C2019 1.429 . S
C2014 C2006 1.574 . S
C2014 H2009 0.949 . S
C2014 C2020 1.368 . S
C2015 C1999 1.352 1_655 S
C2015 H2007 0.950 1_655 S
C2015 C2013 1.324 . S
C2016 C2004 1.349 . S
C2016 H2010 0.950 . S
C2016 C2017 1.327 . S
C2017 H2011 0.950 . S
C2017 C2016 1.327 . S
C2017 C2021 1.429 . S
C2018 C2001 1.574 . S
C2018 H2012 0.949 . S
C2018 C2022 1.368 . S
C2019 C2000 1.429 . S
C2019 C2013 1.429 . S
C2019 C2020 1.523 . S
C2020 C2001 1.368 . S
C2020 C2014 1.368 . S
C2020 C2019 1.523 . S
C2021 C2005 1.429 . S
C2021 C2017 1.429 . S
C2021 C2022 1.523 . S
C2022 C2006 1.368 . S
C2022 C2018 1.368 . S
C2022 C2021 1.523 . S
H2023 C1998 0.950 . S
H2024 C2000 0.950 . S
H2025 C2001 0.949 . S
H2026 C2003 0.950 . S
H2027 C2005 0.950 . S
C2028 C2029 1.349 . S
C2028 C2030 1.327 . S
C2028 H2053 0.950 . S
C2029 C2028 1.349 . S
C2029 C2045 1.349 . S
C2030 C2028 1.327 . S
C2030 C2049 1.429 . S
C2030 H2054 0.950 . S
C2031 C2048 1.574 . S
C2031 C2050 1.368 . S
C2031 H2055 0.949 . S
H2032 C2036 0.949 . S
C2033 C2034 1.349 . S
C2033 C2035 1.327 . S
C2033 H2056 0.950 . S
C2034 C2033 1.349 . S
C2034 C2046 1.349 . S
C2035 C2033 1.327 . S
C2035 C2051 1.429 . S
C2035 H2057 0.950 . S
C2036 H2032 0.949 . S
C2036 C2044 1.574 . S
C2036 C2052 1.368 . S
H2037 C2045 0.950 . S
H2038 C2043 0.950 . S
H2039 C2044 0.949 . S
H2040 C2046 0.950 . S
H2041 C2047 0.950 . S
H2042 C2048 0.949 . S
C2043 H2038 0.950 . S
C2043 C2045 1.327 . S
C2043 C2049 1.429 . S
C2044 C2036 1.574 . S
C2044 H2039 0.949 . S
C2044 C2050 1.368 . S
C2045 C2029 1.349 . S
C2045 H2037 0.950 . S
C2045 C2043 1.327 . S
C2046 C2034 1.349 . S
C2046 H2040 0.950 . S
C2046 C2047 1.327 . S
C2047 H2041 0.950 . S
C2047 C2046 1.327 . S
C2047 C2051 1.429 . S
C2048 C2031 1.574 . S
C2048 H2042 0.949 . S
C2048 C2052 1.368 . S
C2049 C2030 1.429 . S
C2049 C2043 1.429 . S
C2049 C2050 1.523 . S
C2050 C2031 1.368 . S
C2050 C2044 1.368 . S
C2050 C2049 1.523 . S
C2051 C2035 1.429 . S
C2051 C2047 1.429 . S
C2051 C2052 1.523 . S
C2052 C2036 1.368 . S
C2052 C2048 1.368 . S
C2052 C2051 1.523 . S
H2053 C2028 0.950 . S
H2054 C2030 0.950 . S
H2055 C2031 0.949 . S
H2056 C2033 0.950 . S
H2057 C2035 0.950 . S
C2058 C2059 1.349 1_545 S
C2058 C2060 1.327 . S
C2058 H2083 0.950 1_545 S
C2059 C2058 1.349 1_565 S
C2059 C2075 1.349 1_565 S
C2060 C2058 1.327 . S
C2060 C2079 1.429 . S
C2060 H2084 0.950 . S
C2061 C2078 1.574 . S
C2061 C2080 1.368 . S
C2061 H2085 0.949 . S
H2062 C2066 0.949 . S
C2063 C2064 1.349 . S
C2063 C2065 1.327 . S
C2063 H2086 0.950 . S
C2064 C2063 1.349 . S
C2064 C2076 1.349 . S
C2065 C2063 1.327 . S
C2065 C2081 1.429 . S
C2065 H2087 0.950 . S
C2066 H2062 0.949 . S
C2066 C2074 1.574 . S
C2066 C2082 1.368 . S
H2067 C2075 0.951 1_565 S
H2068 C2073 0.950 . S
H2069 C2074 0.949 . S
H2070 C2076 0.950 . S
H2071 C2077 0.950 . S
H2072 C2078 0.949 . S
C2073 H2068 0.950 . S
C2073 C2075 1.326 . S
C2073 C2079 1.429 . S
C2074 C2066 1.574 . S
C2074 H2069 0.949 . S
C2074 C2080 1.368 . S
C2075 C2059 1.349 1_545 S
C2075 H2067 0.951 1_545 S
C2075 C2073 1.326 . S
C2076 C2064 1.349 . S
C2076 H2070 0.950 . S
C2076 C2077 1.327 . S
C2077 H2071 0.950 . S
C2077 C2076 1.327 . S
C2077 C2081 1.429 . S
C2078 C2061 1.574 . S
C2078 H2072 0.949 . S
C2078 C2082 1.368 . S
C2079 C2060 1.429 . S
C2079 C2073 1.429 . S
C2079 C2080 1.523 . S
C2080 C2061 1.368 . S
C2080 C2074 1.368 . S
C2080 C2079 1.523 . S
C2081 C2065 1.429 . S
C2081 C2077 1.429 . S
C2081 C2082 1.523 . S
C2082 C2066 1.368 . S
C2082 C2078 1.368 . S
C2082 C2081 1.523 . S
H2083 C2058 0.950 1_565 S
H2084 C2060 0.950 . S
H2085 C2061 0.949 . S
H2086 C2063 0.950 . S
H2087 C2065 0.950 . S
C2088 C2089 1.349 . S
C2088 C2090 1.327 . S
C2088 H2113 0.950 . S
C2089 C2088 1.349 . S
C2089 C2105 1.349 . S
C2090 C2088 1.327 . S
C2090 C2109 1.429 . S
C2090 H2114 0.950 . S
C2091 C2108 1.574 . S
C2091 C2110 1.368 . S
C2091 H2115 0.949 . S
H2092 C2096 0.949 . S
C2093 C2094 1.349 . S
C2093 C2095 1.327 . S
C2093 H2116 0.950 . S
C2094 C2093 1.349 . S
C2094 C2106 1.349 . S
C2095 C2093 1.327 . S
C2095 C2111 1.429 . S
C2095 H2117 0.950 . S
C2096 H2092 0.949 . S
C2096 C2104 1.574 . S
C2096 C2112 1.368 . S
H2097 C2105 0.950 . S
H2098 C2103 0.950 . S
H2099 C2104 0.949 . S
H2100 C2106 0.950 . S
H2101 C2107 0.950 . S
H2102 C2108 0.949 . S
C2103 H2098 0.950 . S
C2103 C2105 1.327 . S
C2103 C2109 1.429 . S
C2104 C2096 1.574 . S
C2104 H2099 0.949 . S
C2104 C2110 1.368 . S
C2105 C2089 1.349 . S
C2105 H2097 0.950 . S
C2105 C2103 1.327 . S
C2106 C2094 1.349 . S
C2106 H2100 0.950 . S
C2106 C2107 1.327 . S
C2107 H2101 0.950 . S
C2107 C2106 1.327 . S
C2107 C2111 1.429 . S
C2108 C2091 1.574 . S
C2108 H2102 0.949 . S
C2108 C2112 1.368 . S
C2109 C2090 1.429 . S
C2109 C2103 1.429 . S
C2109 C2110 1.523 . S
C2110 C2091 1.368 . S
C2110 C2104 1.368 . S
C2110 C2109 1.523 . S
C2111 C2095 1.429 . S
C2111 C2107 1.429 . S
C2111 C2112 1.523 . S
C2112 C2096 1.368 . S
C2112 C2108 1.368 . S
C2112 C2111 1.523 . S
H2113 C2088 0.950 . S
H2114 C2090 0.950 . S
H2115 C2091 0.949 . S
H2116 C2093 0.950 . S
H2117 C2095 0.950 . S
C2118 C2119 1.349 . S
C2118 C2120 1.327 . S
C2118 H2143 0.950 . S
C2119 C2118 1.349 . S
C2119 C2135 1.349 . S
C2120 C2118 1.327 . S
C2120 C2139 1.429 . S
C2120 H2144 0.950 . S
C2121 C2138 1.574 . S
C2121 C2140 1.368 . S
C2121 H2145 0.949 . S
H2122 C2126 0.949 . S
C2123 C2124 1.349 . S
C2123 C2125 1.327 . S
C2123 H2146 0.950 . S
C2124 C2123 1.349 . S
C2124 C2136 1.349 . S
C2125 C2123 1.327 . S
C2125 C2141 1.429 . S
C2125 H2147 0.950 . S
C2126 H2122 0.949 . S
C2126 C2134 1.574 . S
C2126 C2142 1.368 . S
H2127 C2135 0.950 . S
H2128 C2133 0.950 . S
H2129 C2134 0.949 . S
H2130 C2136 0.950 . S
H2131 C2137 0.950 . S
H2132 C2138 0.949 . S
C2133 H2128 0.950 . S
C2133 C2135 1.327 . S
C2133 C2139 1.429 . S
C2134 C2126 1.574 . S
C2134 H2129 0.949 . S
C2134 C2140 1.368 . S
C2135 C2119 1.349 . S
C2135 H2127 0.950 . S
C2135 C2133 1.327 . S
C2136 C2124 1.349 . S
C2136 H2130 0.950 . S
C2136 C2137 1.327 . S
C2137 H2131 0.950 . S
C2137 C2136 1.327 . S
C2137 C2141 1.429 . S
C2138 C2121 1.574 . S
C2138 H2132 0.949 . S
C2138 C2142 1.368 . S
C2139 C2120 1.429 . S
C2139 C2133 1.429 . S
C2139 C2140 1.523 . S
C2140 C2121 1.368 . S
C2140 C2134 1.368 . S
C2140 C2139 1.523 . S
C2141 C2125 1.429 . S
C2141 C2137 1.429 . S
C2141 C2142 1.523 . S
C2142 C2126 1.368 . S
C2142 C2138 1.368 . S
C2142 C2141 1.523 . S
H2143 C2118 0.950 . S
H2144 C2120 0.950 . S
H2145 C2121 0.949 . S
H2146 C2123 0.950 . S
H2147 C2125 0.950 . S
C2148 C2149 1.349 . S
C2148 C2150 1.327 . S
C2148 H2173 0.950 . S
C2149 C2148 1.349 . S
C2149 C2165 1.349 . S
C2150 C2148 1.327 . S
C2150 C2169 1.429 . S
C2150 H2174 0.950 . S
C2151 C2168 1.574 . S
C2151 C2170 1.368 . S
C2151 H2175 0.949 . S
H2152 C2156 0.949 . S
C2153 C2154 1.349 . S
C2153 C2155 1.327 . S
C2153 H2176 0.950 . S
C2154 C2153 1.349 . S
C2154 C2166 1.349 . S
C2155 C2153 1.327 . S
C2155 C2171 1.429 . S
C2155 H2177 0.950 . S
C2156 H2152 0.949 . S
C2156 C2164 1.574 . S
C2156 C2172 1.368 . S
H2157 C2165 0.950 . S
H2158 C2163 0.950 . S
H2159 C2164 0.949 . S
H2160 C2166 0.950 . S
H2161 C2167 0.950 . S
H2162 C2168 0.949 . S
C2163 H2158 0.950 . S
C2163 C2165 1.327 . S
C2163 C2169 1.429 . S
C2164 C2156 1.574 . S
C2164 H2159 0.949 . S
C2164 C2170 1.368 . S
C2165 C2149 1.349 . S
C2165 H2157 0.950 . S
C2165 C2163 1.327 . S
C2166 C2154 1.349 . S
C2166 H2160 0.950 . S
C2166 C2167 1.327 . S
C2167 H2161 0.950 . S
C2167 C2166 1.327 . S
C2167 C2171 1.429 . S
C2168 C2151 1.574 . S
C2168 H2162 0.949 . S
C2168 C2172 1.368 . S
C2169 C2150 1.429 . S
C2169 C2163 1.429 . S
C2169 C2170 1.523 . S
C2170 C2151 1.368 . S
C2170 C2164 1.368 . S
C2170 C2169 1.523 . S
C2171 C2155 1.429 . S
C2171 C2167 1.429 . S
C2171 C2172 1.523 . S
C2172 C2156 1.368 . S
C2172 C2168 1.368 . S
C2172 C2171 1.523 . S
H2173 C2148 0.950 . S
H2174 C2150 0.950 . S
H2175 C2151 0.949 . S
H2176 C2153 0.950 . S
H2177 C2155 0.950 . S
C2178 C2179 1.349 . S
C2178 C2180 1.327 . S
C2178 H2203 0.950 . S
C2179 C2178 1.349 . S
C2179 C2195 1.349 . S
C2180 C2178 1.327 . S
C2180 C2199 1.429 . S
C2180 H2204 0.950 . S
C2181 C2198 1.574 . S
C2181 C2200 1.368 . S
C2181 H2205 0.949 . S
H2182 C2186 0.949 . S
C2183 C2184 1.349 . S
C2183 C2185 1.327 . S
C2183 H2206 0.950 . S
C2184 C2183 1.349 . S
C2184 C2196 1.349 . S
C2185 C2183 1.327 . S
C2185 C2201 1.429 . S
C2185 H2207 0.950 . S
C2186 H2182 0.949 . S
C2186 C2194 1.574 . S
C2186 C2202 1.368 . S
H2187 C2195 0.950 . S
H2188 C2193 0.950 . S
H2189 C2194 0.949 . S
H2190 C2196 0.950 . S
H2191 C2197 0.950 . S
H2192 C2198 0.949 . S
C2193 H2188 0.950 . S
C2193 C2195 1.327 . S
C2193 C2199 1.429 . S
C2194 C2186 1.574 . S
C2194 H2189 0.949 . S
C2194 C2200 1.368 . S
C2195 C2179 1.349 . S
C2195 H2187 0.950 . S
C2195 C2193 1.327 . S
C2196 C2184 1.349 . S
C2196 H2190 0.950 . S
C2196 C2197 1.327 . S
C2197 H2191 0.950 . S
C2197 C2196 1.327 . S
C2197 C2201 1.429 . S
C2198 C2181 1.574 . S
C2198 H2192 0.949 . S
C2198 C2202 1.368 . S
C2199 C2180 1.429 . S
C2199 C2193 1.429 . S
C2199 C2200 1.523 . S
C2200 C2181 1.368 . S
C2200 C2194 1.368 . S
C2200 C2199 1.523 . S
C2201 C2185 1.429 . S
C2201 C2197 1.429 . S
C2201 C2202 1.523 . S
C2202 C2186 1.368 . S
C2202 C2198 1.368 . S
C2202 C2201 1.523 . S
H2203 C2178 0.950 . S
H2204 C2180 0.950 . S
H2205 C2181 0.949 . S
H2206 C2183 0.950 . S
H2207 C2185 0.950 . S
C2208 C2209 1.349 . S
C2208 C2210 1.327 . S
C2208 H2233 0.950 . S
C2209 C2208 1.349 . S
C2209 C2225 1.349 . S
C2210 C2208 1.327 . S
C2210 C2229 1.429 . S
C2210 H2234 0.950 . S
C2211 C2228 1.574 . S
C2211 C2230 1.368 . S
C2211 H2235 0.949 . S
H2212 C2216 0.949 . S
C2213 C2214 1.349 . S
C2213 C2215 1.327 . S
C2213 H2236 0.950 . S
C2214 C2213 1.349 . S
C2214 C2226 1.349 . S
C2215 C2213 1.327 . S
C2215 C2231 1.429 . S
C2215 H2237 0.950 . S
C2216 H2212 0.949 . S
C2216 C2224 1.574 . S
C2216 C2232 1.368 . S
H2217 C2225 0.950 . S
H2218 C2223 0.950 . S
H2219 C2224 0.949 . S
H2220 C2226 0.950 . S
H2221 C2227 0.950 . S
H2222 C2228 0.949 . S
C2223 H2218 0.950 . S
C2223 C2225 1.327 . S
C2223 C2229 1.429 . S
C2224 C2216 1.574 . S
C2224 H2219 0.949 . S
C2224 C2230 1.368 . S
C2225 C2209 1.349 . S
C2225 H2217 0.950 . S
C2225 C2223 1.327 . S
C2226 C2214 1.349 . S
C2226 H2220 0.950 . S
C2226 C2227 1.327 . S
C2227 H2221 0.950 . S
C2227 C2226 1.327 . S
C2227 C2231 1.429 . S
C2228 C2211 1.574 . S
C2228 H2222 0.949 . S
C2228 C2232 1.368 . S
C2229 C2210 1.429 . S
C2229 C2223 1.429 . S
C2229 C2230 1.523 . S
C2230 C2211 1.368 . S
C2230 C2224 1.368 . S
C2230 C2229 1.523 . S
C2231 C2215 1.429 . S
C2231 C2227 1.429 . S
C2231 C2232 1.523 . S
C2232 C2216 1.368 . S
C2232 C2228 1.368 . S
C2232 C2231 1.523 . S
H2233 C2208 0.950 . S
H2234 C2210 0.950 . S
H2235 C2211 0.949 . S
H2236 C2213 0.950 . S
H2237 C2215 0.950 . S
C2238 C2239 1.349 . S
C2238 C2240 1.327 . S
C2238 H2263 0.950 . S
C2239 C2238 1.349 . S
C2239 C2255 1.349 . S
C2240 C2238 1.327 . S
C2240 C2259 1.429 . S
C2240 H2264 0.950 . S
C2241 C2258 1.574 . S
C2241 C2260 1.368 . S
C2241 H2265 0.949 . S
H2242 C2246 0.949 . S
C2243 C2244 1.349 . S
C2243 C2245 1.327 . S
C2243 H2266 0.950 . S
C2244 C2243 1.349 . S
C2244 C2256 1.349 . S
C2245 C2243 1.327 . S
C2245 C2261 1.429 . S
C2245 H2267 0.950 . S
C2246 H2242 0.949 . S
C2246 C2254 1.574 . S
C2246 C2262 1.368 . S
H2247 C2255 0.950 . S
H2248 C2253 0.950 . S
H2249 C2254 0.949 . S
H2250 C2256 0.950 . S
H2251 C2257 0.950 . S
H2252 C2258 0.949 . S
C2253 H2248 0.950 . S
C2253 C2255 1.327 . S
C2253 C2259 1.429 . S
C2254 C2246 1.574 . S
C2254 H2249 0.949 . S
C2254 C2260 1.368 . S
C2255 C2239 1.349 . S
C2255 H2247 0.950 . S
C2255 C2253 1.327 . S
C2256 C2244 1.349 . S
C2256 H2250 0.950 . S
C2256 C2257 1.327 . S
C2257 H2251 0.950 . S
C2257 C2256 1.327 . S
C2257 C2261 1.429 . S
C2258 C2241 1.574 . S
C2258 H2252 0.949 . S
C2258 C2262 1.368 . S
C2259 C2240 1.429 . S
C2259 C2253 1.429 . S
C2259 C2260 1.523 . S
C2260 C2241 1.368 . S
C2260 C2254 1.368 . S
C2260 C2259 1.523 . S
C2261 C2245 1.429 . S
C2261 C2257 1.429 . S
C2261 C2262 1.523 . S
C2262 C2246 1.368 . S
C2262 C2258 1.368 . S
C2262 C2261 1.523 . S
H2263 C2238 0.950 . S
H2264 C2240 0.950 . S
H2265 C2241 0.949 . S
H2266 C2243 0.950 . S
H2267 C2245 0.950 . S
C2268 C2269 1.349 . S
C2268 C2270 1.327 . S
C2268 H2293 0.950 . S
C2269 C2268 1.349 . S
C2269 C2285 1.349 . S
C2270 C2268 1.327 . S
C2270 C2289 1.429 . S
C2270 H2294 0.950 . S
C2271 C2288 1.574 . S
C2271 C2290 1.368 . S
C2271 H2295 0.949 . S
H2272 C2276 0.949 . S
C2273 C2274 1.349 . S
C2273 C2275 1.327 . S
C2273 H2296 0.950 . S
C2274 C2273 1.349 . S
C2274 C2286 1.349 . S
C2275 C2273 1.327 . S
C2275 C2291 1.429 . S
C2275 H2297 0.950 . S
C2276 H2272 0.949 . S
C2276 C2284 1.574 . S
C2276 C2292 1.368 . S
H2277 C2285 0.950 . S
H2278 C2283 0.950 . S
H2279 C2284 0.949 . S
H2280 C2286 0.950 . S
H2281 C2287 0.950 . S
H2282 C2288 0.949 . S
C2283 H2278 0.950 . S
C2283 C2285 1.327 . S
C2283 C2289 1.429 . S
C2284 C2276 1.574 . S
C2284 H2279 0.949 . S
C2284 C2290 1.368 . S
C2285 C2269 1.349 . S
C2285 H2277 0.950 . S
C2285 C2283 1.327 . S
C2286 C2274 1.349 . S
C2286 H2280 0.950 . S
C2286 C2287 1.327 . S
C2287 H2281 0.950 . S
C2287 C2286 1.327 . S
C2287 C2291 1.429 . S
C2288 C2271 1.574 . S
C2288 H2282 0.949 . S
C2288 C2292 1.368 . S
C2289 C2270 1.429 . S
C2289 C2283 1.429 . S
C2289 C2290 1.523 . S
C2290 C2271 1.368 . S
C2290 C2284 1.368 . S
C2290 C2289 1.523 . S
C2291 C2275 1.429 . S
C2291 C2287 1.429 . S
C2291 C2292 1.523 . S
C2292 C2276 1.368 . S
C2292 C2288 1.368 . S
C2292 C2291 1.523 . S
H2293 C2268 0.950 . S
H2294 C2270 0.950 . S
H2295 C2271 0.949 . S
H2296 C2273 0.950 . S
H2297 C2275 0.950 . S
C2298 C2299 1.349 . S
C2298 C2300 1.327 . S
C2298 H2323 0.950 . S
C2299 C2298 1.349 . S
C2299 C2315 1.349 . S
C2300 C2298 1.327 . S
C2300 C2319 1.429 . S
C2300 H2324 0.950 . S
C2301 C2318 1.574 . S
C2301 C2320 1.368 . S
C2301 H2325 0.949 . S
H2302 C2306 0.949 . S
C2303 C2304 1.349 . S
C2303 C2305 1.327 . S
C2303 H2326 0.950 . S
C2304 C2303 1.349 . S
C2304 C2316 1.349 . S
C2305 C2303 1.327 . S
C2305 C2321 1.429 . S
C2305 H2327 0.950 . S
C2306 H2302 0.949 . S
C2306 C2314 1.574 . S
C2306 C2322 1.368 . S
H2307 C2315 0.950 . S
H2308 C2313 0.950 . S
H2309 C2314 0.949 . S
H2310 C2316 0.950 . S
H2311 C2317 0.950 . S
H2312 C2318 0.949 . S
C2313 H2308 0.950 . S
C2313 C2315 1.327 . S
C2313 C2319 1.429 . S
C2314 C2306 1.574 . S
C2314 H2309 0.949 . S
C2314 C2320 1.368 . S
C2315 C2299 1.349 . S
C2315 H2307 0.950 . S
C2315 C2313 1.327 . S
C2316 C2304 1.349 . S
C2316 H2310 0.950 . S
C2316 C2317 1.327 . S
C2317 H2311 0.950 . S
C2317 C2316 1.327 . S
C2317 C2321 1.429 . S
C2318 C2301 1.574 . S
C2318 H2312 0.949 . S
C2318 C2322 1.368 . S
C2319 C2300 1.429 . S
C2319 C2313 1.429 . S
C2319 C2320 1.523 . S
C2320 C2301 1.368 . S
C2320 C2314 1.368 . S
C2320 C2319 1.523 . S
C2321 C2305 1.429 . S
C2321 C2317 1.429 . S
C2321 C2322 1.523 . S
C2322 C2306 1.368 . S
C2322 C2318 1.368 . S
C2322 C2321 1.523 . S
H2323 C2298 0.950 . S
H2324 C2300 0.950 . S
H2325 C2301 0.949 . S
H2326 C2303 0.950 . S
H2327 C2305 0.950 . S
C2328 C2329 1.349 . S
C2328 C2330 1.327 . S
C2328 H2353 0.950 . S
C2329 C2328 1.349 . S
C2329 C2345 1.349 . S
C2330 C2328 1.327 . S
C2330 C2349 1.429 . S
C2330 H2354 0.950 . S
C2331 C2348 1.574 . S
C2331 C2350 1.368 . S
C2331 H2355 0.949 . S
H2332 C2336 0.949 . S
C2333 C2334 1.349 . S
C2333 C2335 1.327 . S
C2333 H2356 0.950 . S
C2334 C2333 1.349 . S
C2334 C2346 1.349 . S
C2335 C2333 1.327 . S
C2335 C2351 1.429 . S
C2335 H2357 0.950 . S
C2336 H2332 0.949 . S
C2336 C2344 1.574 . S
C2336 C2352 1.368 . S
H2337 C2345 0.950 . S
H2338 C2343 0.950 . S
H2339 C2344 0.949 . S
H2340 C2346 0.950 . S
H2341 C2347 0.950 . S
H2342 C2348 0.949 . S
C2343 H2338 0.950 . S
C2343 C2345 1.327 . S
C2343 C2349 1.429 . S
C2344 C2336 1.574 . S
C2344 H2339 0.949 . S
C2344 C2350 1.368 . S
C2345 C2329 1.349 . S
C2345 H2337 0.950 . S
C2345 C2343 1.327 . S
C2346 C2334 1.349 . S
C2346 H2340 0.950 . S
C2346 C2347 1.327 . S
C2347 H2341 0.950 . S
C2347 C2346 1.327 . S
C2347 C2351 1.429 . S
C2348 C2331 1.574 . S
C2348 H2342 0.949 . S
C2348 C2352 1.368 . S
C2349 C2330 1.429 . S
C2349 C2343 1.429 . S
C2349 C2350 1.523 . S
C2350 C2331 1.368 . S
C2350 C2344 1.368 . S
C2350 C2349 1.523 . S
C2351 C2335 1.429 . S
C2351 C2347 1.429 . S
C2351 C2352 1.523 . S
C2352 C2336 1.368 . S
C2352 C2348 1.368 . S
C2352 C2351 1.523 . S
H2353 C2328 0.950 . S
H2354 C2330 0.950 . S
H2355 C2331 0.949 . S
H2356 C2333 0.950 . S
H2357 C2335 0.950 . S
C2358 C2359 1.349 . S
C2358 C2360 1.327 . S
C2358 H2383 0.950 . S
C2359 C2358 1.349 . S
C2359 C2375 1.349 . S
C2360 C2358 1.327 . S
C2360 C2379 1.429 . S
C2360 H2384 0.950 . S
C2361 C2378 1.574 . S
C2361 C2380 1.368 . S
C2361 H2385 0.949 . S
H2362 C2366 0.949 . S
C2363 C2364 1.349 . S
C2363 C2365 1.327 . S
C2363 H2386 0.950 . S
C2364 C2363 1.349 . S
C2364 C2376 1.349 . S
C2365 C2363 1.327 . S
C2365 C2381 1.429 . S
C2365 H2387 0.950 . S
C2366 H2362 0.949 . S
C2366 C2374 1.574 . S
C2366 C2382 1.368 . S
H2367 C2375 0.950 . S
H2368 C2373 0.950 . S
H2369 C2374 0.949 . S
H2370 C2376 0.950 . S
H2371 C2377 0.950 . S
H2372 C2378 0.949 . S
C2373 H2368 0.950 . S
C2373 C2375 1.327 . S
C2373 C2379 1.429 . S
C2374 C2366 1.574 . S
C2374 H2369 0.949 . S
C2374 C2380 1.368 . S
C2375 C2359 1.349 . S
C2375 H2367 0.950 . S
C2375 C2373 1.327 . S
C2376 C2364 1.349 . S
C2376 H2370 0.950 . S
C2376 C2377 1.327 . S
C2377 H2371 0.950 . S
C2377 C2376 1.327 . S
C2377 C2381 1.429 . S
C2378 C2361 1.574 . S
C2378 H2372 0.949 . S
C2378 C2382 1.368 . S
C2379 C2360 1.429 . S
C2379 C2373 1.429 . S
C2379 C2380 1.523 . S
C2380 C2361 1.368 . S
C2380 C2374 1.368 . S
C2380 C2379 1.523 . S
C2381 C2365 1.429 . S
C2381 C2377 1.429 . S
C2381 C2382 1.523 . S
C2382 C2366 1.368 . S
C2382 C2378 1.368 . S
C2382 C2381 1.523 . S
H2383 C2358 0.950 . S
H2384 C2360 0.950 . S
H2385 C2361 0.949 . S
H2386 C2363 0.950 . S
H2387 C2365 0.950 . S
C2388 C2389 1.349 . S
C2388 C2390 1.327 . S
C2388 H2413 0.950 . S
C2389 C2388 1.349 . S
C2389 C2405 1.349 . S
C2390 C2388 1.327 . S
C2390 C2409 1.429 . S
C2390 H2414 0.950 . S
C2391 C2408 1.574 . S
C2391 C2410 1.368 . S
C2391 H2415 0.949 . S
H2392 C2396 0.949 . S
C2393 C2394 1.349 . S
C2393 C2395 1.327 . S
C2393 H2416 0.950 . S
C2394 C2393 1.349 . S
C2394 C2406 1.349 . S
C2395 C2393 1.327 . S
C2395 C2411 1.429 . S
C2395 H2417 0.950 . S
C2396 H2392 0.949 . S
C2396 C2404 1.574 . S
C2396 C2412 1.368 . S
H2397 C2405 0.950 . S
H2398 C2403 0.950 . S
H2399 C2404 0.949 . S
H2400 C2406 0.950 . S
H2401 C2407 0.950 . S
H2402 C2408 0.949 . S
C2403 H2398 0.950 . S
C2403 C2405 1.327 . S
C2403 C2409 1.429 . S
C2404 C2396 1.574 . S
C2404 H2399 0.949 . S
C2404 C2410 1.368 . S
C2405 C2389 1.349 . S
C2405 H2397 0.950 . S
C2405 C2403 1.327 . S
C2406 C2394 1.349 . S
C2406 H2400 0.950 . S
C2406 C2407 1.327 . S
C2407 H2401 0.950 . S
C2407 C2406 1.327 . S
C2407 C2411 1.429 . S
C2408 C2391 1.574 . S
C2408 H2402 0.949 . S
C2408 C2412 1.368 . S
C2409 C2390 1.429 . S
C2409 C2403 1.429 . S
C2409 C2410 1.523 . S
C2410 C2391 1.368 . S
C2410 C2404 1.368 . S
C2410 C2409 1.523 . S
C2411 C2395 1.429 . S
C2411 C2407 1.429 . S
C2411 C2412 1.523 . S
C2412 C2396 1.368 . S
C2412 C2408 1.368 . S
C2412 C2411 1.523 . S
H2413 C2388 0.950 . S
H2414 C2390 0.950 . S
H2415 C2391 0.949 . S
H2416 C2393 0.950 . S
H2417 C2395 0.950 . S
C2418 C2419 1.349 . S
C2418 C2420 1.327 . S
C2418 H2443 0.950 . S
C2419 C2418 1.349 . S
C2419 C2435 1.349 . S
C2420 C2418 1.327 . S
C2420 C2439 1.429 . S
C2420 H2444 0.950 . S
C2421 C2438 1.574 . S
C2421 C2440 1.368 . S
C2421 H2445 0.949 . S
H2422 C2426 0.949 . S
C2423 C2424 1.349 . S
C2423 C2425 1.327 . S
C2423 H2446 0.950 . S
C2424 C2423 1.349 . S
C2424 C2436 1.349 . S
C2425 C2423 1.327 . S
C2425 C2441 1.429 . S
C2425 H2447 0.950 . S
C2426 H2422 0.949 . S
C2426 C2434 1.574 . S
C2426 C2442 1.368 . S
H2427 C2435 0.950 . S
H2428 C2433 0.950 . S
H2429 C2434 0.949 . S
H2430 C2436 0.950 . S
H2431 C2437 0.950 . S
H2432 C2438 0.949 . S
C2433 H2428 0.950 . S
C2433 C2435 1.327 . S
C2433 C2439 1.429 . S
C2434 C2426 1.574 . S
C2434 H2429 0.949 . S
C2434 C2440 1.368 . S
C2435 C2419 1.349 . S
C2435 H2427 0.950 . S
C2435 C2433 1.327 . S
C2436 C2424 1.349 . S
C2436 H2430 0.950 . S
C2436 C2437 1.327 . S
C2437 H2431 0.950 . S
C2437 C2436 1.327 . S
C2437 C2441 1.429 . S
C2438 C2421 1.574 . S
C2438 H2432 0.949 . S
C2438 C2442 1.368 . S
C2439 C2420 1.429 . S
C2439 C2433 1.429 . S
C2439 C2440 1.523 . S
C2440 C2421 1.368 . S
C2440 C2434 1.368 . S
C2440 C2439 1.523 . S
C2441 C2425 1.429 . S
C2441 C2437 1.429 . S
C2441 C2442 1.523 . S
C2442 C2426 1.368 . S
C2442 C2438 1.368 . S
C2442 C2441 1.523 . S
H2443 C2418 0.950 . S
H2444 C2420 0.950 . S
H2445 C2421 0.949 . S
H2446 C2423 0.950 . S
H2447 C2425 0.950 . S
C2448 C2449 1.349 . S
C2448 C2450 1.327 . S
C2448 H2473 0.950 . S
C2449 C2448 1.349 . S
C2449 C2465 1.349 . S
C2450 C2448 1.327 . S
C2450 C2469 1.429 . S
C2450 H2474 0.950 . S
C2451 C2468 1.574 . S
C2451 C2470 1.368 . S
C2451 H2475 0.949 . S
H2452 C2456 0.949 . S
C2453 C2454 1.349 . S
C2453 C2455 1.327 . S
C2453 H2476 0.950 . S
C2454 C2453 1.349 . S
C2454 C2466 1.349 . S
C2455 C2453 1.327 . S
C2455 C2471 1.429 . S
C2455 H2477 0.950 . S
C2456 H2452 0.949 . S
C2456 C2464 1.574 . S
C2456 C2472 1.368 . S
H2457 C2465 0.950 . S
H2458 C2463 0.950 . S
H2459 C2464 0.949 . S
H2460 C2466 0.950 . S
H2461 C2467 0.950 . S
H2462 C2468 0.949 . S
C2463 H2458 0.950 . S
C2463 C2465 1.327 . S
C2463 C2469 1.429 . S
C2464 C2456 1.574 . S
C2464 H2459 0.949 . S
C2464 C2470 1.368 . S
C2465 C2449 1.349 . S
C2465 H2457 0.950 . S
C2465 C2463 1.327 . S
C2466 C2454 1.349 . S
C2466 H2460 0.950 . S
C2466 C2467 1.327 . S
C2467 H2461 0.950 . S
C2467 C2466 1.327 . S
C2467 C2471 1.429 . S
C2468 C2451 1.574 . S
C2468 H2462 0.949 . S
C2468 C2472 1.368 . S
C2469 C2450 1.429 . S
C2469 C2463 1.429 . S
C2469 C2470 1.523 . S
C2470 C2451 1.368 . S
C2470 C2464 1.368 . S
C2470 C2469 1.523 . S
C2471 C2455 1.429 . S
C2471 C2467 1.429 . S
C2471 C2472 1.523 . S
C2472 C2456 1.368 . S
C2472 C2468 1.368 . S
C2472 C2471 1.523 . S
H2473 C2448 0.950 . S
H2474 C2450 0.950 . S
H2475 C2451 0.949 . S
H2476 C2453 0.950 . S
H2477 C2455 0.950 . S
C2478 C2479 1.349 . S
C2478 C2480 1.327 . S
C2478 H2503 0.950 . S
C2479 C2478 1.349 . S
C2479 C2495 1.349 . S
C2480 C2478 1.327 . S
C2480 C2499 1.429 . S
C2480 H2504 0.950 . S
C2481 C2498 1.574 . S
C2481 C2500 1.368 . S
C2481 H2505 0.949 . S
H2482 C2486 0.949 . S
C2483 C2484 1.349 . S
C2483 C2485 1.327 . S
C2483 H2506 0.950 . S
C2484 C2483 1.349 . S
C2484 C2496 1.349 . S
C2485 C2483 1.327 . S
C2485 C2501 1.429 . S
C2485 H2507 0.950 . S
C2486 H2482 0.949 . S
C2486 C2494 1.574 . S
C2486 C2502 1.368 . S
H2487 C2495 0.950 . S
H2488 C2493 0.950 . S
H2489 C2494 0.949 . S
H2490 C2496 0.950 . S
H2491 C2497 0.950 . S
H2492 C2498 0.949 . S
C2493 H2488 0.950 . S
C2493 C2495 1.327 . S
C2493 C2499 1.429 . S
C2494 C2486 1.574 . S
C2494 H2489 0.949 . S
C2494 C2500 1.368 . S
C2495 C2479 1.349 . S
C2495 H2487 0.950 . S
C2495 C2493 1.327 . S
C2496 C2484 1.349 . S
C2496 H2490 0.950 . S
C2496 C2497 1.327 . S
C2497 H2491 0.950 . S
C2497 C2496 1.327 . S
C2497 C2501 1.429 . S
C2498 C2481 1.574 . S
C2498 H2492 0.949 . S
C2498 C2502 1.368 . S
C2499 C2480 1.429 . S
C2499 C2493 1.429 . S
C2499 C2500 1.523 . S
C2500 C2481 1.368 . S
C2500 C2494 1.368 . S
C2500 C2499 1.523 . S
C2501 C2485 1.429 . S
C2501 C2497 1.429 . S
C2501 C2502 1.523 . S
C2502 C2486 1.368 . S
C2502 C2498 1.368 . S
C2502 C2501 1.523 . S
H2503 C2478 0.950 . S
H2504 C2480 0.950 . S
H2505 C2481 0.949 . S
H2506 C2483 0.950 . S
H2507 C2485 0.950 . S
C2508 C2509 1.349 . S
C2508 C2510 1.327 . S
C2508 H2533 0.950 . S
C2509 C2508 1.349 . S
C2509 C2525 1.349 . S
C2510 C2508 1.327 . S
C2510 C2529 1.429 . S
C2510 H2534 0.950 . S
C2511 C2528 1.574 . S
C2511 C2530 1.368 . S
C2511 H2535 0.949 . S
H2512 C2516 0.949 . S
C2513 C2514 1.349 . S
C2513 C2515 1.327 . S
C2513 H2536 0.950 . S
C2514 C2513 1.349 . S
C2514 C2526 1.349 . S
C2515 C2513 1.327 . S
C2515 C2531 1.429 . S
C2515 H2537 0.950 . S
C2516 H2512 0.949 . S
C2516 C2524 1.574 . S
C2516 C2532 1.368 . S
H2517 C2525 0.950 . S
H2518 C2523 0.950 . S
H2519 C2524 0.949 . S
H2520 C2526 0.950 . S
H2521 C2527 0.950 . S
H2522 C2528 0.949 . S
C2523 H2518 0.950 . S
C2523 C2525 1.327 . S
C2523 C2529 1.429 . S
C2524 C2516 1.574 . S
C2524 H2519 0.949 . S
C2524 C2530 1.368 . S
C2525 C2509 1.349 . S
C2525 H2517 0.950 . S
C2525 C2523 1.327 . S
C2526 C2514 1.349 . S
C2526 H2520 0.950 . S
C2526 C2527 1.327 . S
C2527 H2521 0.950 . S
C2527 C2526 1.327 . S
C2527 C2531 1.429 . S
C2528 C2511 1.574 . S
C2528 H2522 0.949 . S
C2528 C2532 1.368 . S
C2529 C2510 1.429 . S
C2529 C2523 1.429 . S
C2529 C2530 1.523 . S
C2530 C2511 1.368 . S
C2530 C2524 1.368 . S
C2530 C2529 1.523 . S
C2531 C2515 1.429 . S
C2531 C2527 1.429 . S
C2531 C2532 1.523 . S
C2532 C2516 1.368 . S
C2532 C2528 1.368 . S
C2532 C2531 1.523 . S
H2533 C2508 0.950 . S
H2534 C2510 0.950 . S
H2535 C2511 0.949 . S
H2536 C2513 0.950 . S
H2537 C2515 0.950 . S
C2538 C2539 1.349 . S
C2538 C2540 1.327 . S
C2538 H2563 0.950 . S
C2539 C2538 1.349 . S
C2539 C2555 1.349 . S
C2540 C2538 1.327 . S
C2540 C2559 1.429 . S
C2540 H2564 0.950 . S
C2541 C2558 1.574 . S
C2541 C2560 1.368 . S
C2541 H2565 0.949 . S
H2542 C2546 0.949 . S
C2543 C2544 1.349 . S
C2543 C2545 1.327 . S
C2543 H2566 0.950 . S
C2544 C2543 1.349 . S
C2544 C2556 1.349 . S
C2545 C2543 1.327 . S
C2545 C2561 1.429 . S
C2545 H2567 0.950 . S
C2546 H2542 0.949 . S
C2546 C2554 1.574 . S
C2546 C2562 1.368 . S
H2547 C2555 0.950 . S
H2548 C2553 0.950 . S
H2549 C2554 0.949 . S
H2550 C2556 0.950 . S
H2551 C2557 0.950 . S
H2552 C2558 0.949 . S
C2553 H2548 0.950 . S
C2553 C2555 1.327 . S
C2553 C2559 1.429 . S
C2554 C2546 1.574 . S
C2554 H2549 0.949 . S
C2554 C2560 1.368 . S
C2555 C2539 1.349 . S
C2555 H2547 0.950 . S
C2555 C2553 1.327 . S
C2556 C2544 1.349 . S
C2556 H2550 0.950 . S
C2556 C2557 1.327 . S
C2557 H2551 0.950 . S
C2557 C2556 1.327 . S
C2557 C2561 1.429 . S
C2558 C2541 1.574 . S
C2558 H2552 0.949 . S
C2558 C2562 1.368 . S
C2559 C2540 1.429 . S
C2559 C2553 1.429 . S
C2559 C2560 1.523 . S
C2560 C2541 1.368 . S
C2560 C2554 1.368 . S
C2560 C2559 1.523 . S
C2561 C2545 1.429 . S
C2561 C2557 1.429 . S
C2561 C2562 1.523 . S
C2562 C2546 1.368 . S
C2562 C2558 1.368 . S
C2562 C2561 1.523 . S
H2563 C2538 0.950 . S
H2564 C2540 0.950 . S
H2565 C2541 0.949 . S
H2566 C2543 0.950 . S
H2567 C2545 0.950 . S
C2568 C2569 1.349 . S
C2568 C2570 1.327 . S
C2568 H2593 0.950 . S
C2569 C2568 1.349 . S
C2569 C2585 1.349 . S
C2570 C2568 1.327 . S
C2570 C2589 1.429 . S
C2570 H2594 0.950 . S
C2571 C2588 1.574 . S
C2571 C2590 1.368 . S
C2571 H2595 0.949 . S
H2572 C2576 0.949 . S
C2573 C2574 1.349 . S
C2573 C2575 1.327 . S
C2573 H2596 0.950 . S
C2574 C2573 1.349 . S
C2574 C2586 1.349 . S
C2575 C2573 1.327 . S
C2575 C2591 1.429 . S
C2575 H2597 0.950 . S
C2576 H2572 0.949 . S
C2576 C2584 1.574 . S
C2576 C2592 1.368 . S
H2577 C2585 0.950 . S
H2578 C2583 0.950 . S
H2579 C2584 0.949 . S
H2580 C2586 0.950 . S
H2581 C2587 0.950 . S
H2582 C2588 0.949 . S
C2583 H2578 0.950 . S
C2583 C2585 1.327 . S
C2583 C2589 1.429 . S
C2584 C2576 1.574 . S
C2584 H2579 0.949 . S
C2584 C2590 1.368 . S
C2585 C2569 1.349 . S
C2585 H2577 0.950 . S
C2585 C2583 1.327 . S
C2586 C2574 1.349 . S
C2586 H2580 0.950 . S
C2586 C2587 1.327 . S
C2587 H2581 0.950 . S
C2587 C2586 1.327 . S
C2587 C2591 1.429 . S
C2588 C2571 1.574 . S
C2588 H2582 0.949 . S
C2588 C2592 1.368 . S
C2589 C2570 1.429 . S
C2589 C2583 1.429 . S
C2589 C2590 1.523 . S
C2590 C2571 1.368 . S
C2590 C2584 1.368 . S
C2590 C2589 1.523 . S
C2591 C2575 1.429 . S
C2591 C2587 1.429 . S
C2591 C2592 1.523 . S
C2592 C2576 1.368 . S
C2592 C2588 1.368 . S
C2592 C2591 1.523 . S
H2593 C2568 0.950 . S
H2594 C2570 0.950 . S
H2595 C2571 0.949 . S
H2596 C2573 0.950 . S
H2597 C2575 0.950 . S
C2598 C2599 1.349 . S
C2598 C2600 1.327 . S
C2598 H2623 0.950 . S
C2599 C2598 1.349 . S
C2599 C2615 1.349 . S
C2600 C2598 1.327 . S
C2600 C2619 1.429 . S
C2600 H2624 0.950 . S
C2601 C2618 1.574 . S
C2601 C2620 1.368 . S
C2601 H2625 0.949 . S
H2602 C2606 0.949 . S
C2603 C2604 1.349 . S
C2603 C2605 1.327 . S
C2603 H2626 0.950 . S
C2604 C2603 1.349 . S
C2604 C2616 1.349 . S
C2605 C2603 1.327 . S
C2605 C2621 1.429 . S
C2605 H2627 0.950 . S
C2606 H2602 0.949 . S
C2606 C2614 1.574 . S
C2606 C2622 1.368 . S
H2607 C2615 0.950 . S
H2608 C2613 0.950 . S
H2609 C2614 0.949 . S
H2610 C2616 0.950 . S
H2611 C2617 0.950 . S
H2612 C2618 0.949 . S
C2613 H2608 0.950 . S
C2613 C2615 1.327 . S
C2613 C2619 1.429 . S
C2614 C2606 1.574 . S
C2614 H2609 0.949 . S
C2614 C2620 1.368 . S
C2615 C2599 1.349 . S
C2615 H2607 0.950 . S
C2615 C2613 1.327 . S
C2616 C2604 1.349 . S
C2616 H2610 0.950 . S
C2616 C2617 1.327 . S
C2617 H2611 0.950 . S
C2617 C2616 1.327 . S
C2617 C2621 1.429 . S
C2618 C2601 1.574 . S
C2618 H2612 0.949 . S
C2618 C2622 1.368 . S
C2619 C2600 1.429 . S
C2619 C2613 1.429 . S
C2619 C2620 1.523 . S
C2620 C2601 1.368 . S
C2620 C2614 1.368 . S
C2620 C2619 1.523 . S
C2621 C2605 1.429 . S
C2621 C2617 1.429 . S
C2621 C2622 1.523 . S
C2622 C2606 1.368 . S
C2622 C2618 1.368 . S
C2622 C2621 1.523 . S
H2623 C2598 0.950 . S
H2624 C2600 0.950 . S
H2625 C2601 0.949 . S
H2626 C2603 0.950 . S
H2627 C2605 0.950 . S
C2628 C2629 1.349 . S
C2628 C2630 1.327 . S
C2628 H2653 0.950 . S
C2629 C2628 1.349 . S
C2629 C2645 1.349 . S
C2630 C2628 1.327 . S
C2630 C2649 1.429 . S
C2630 H2654 0.950 . S
C2631 C2648 1.574 . S
C2631 C2650 1.368 . S
C2631 H2655 0.949 . S
H2632 C2636 0.949 . S
C2633 C2634 1.349 . S
C2633 C2635 1.327 . S
C2633 H2656 0.950 . S
C2634 C2633 1.349 . S
C2634 C2646 1.349 . S
C2635 C2633 1.327 . S
C2635 C2651 1.429 . S
C2635 H2657 0.950 . S
C2636 H2632 0.949 . S
C2636 C2644 1.574 . S
C2636 C2652 1.368 . S
H2637 C2645 0.950 . S
H2638 C2643 0.950 . S
H2639 C2644 0.949 . S
H2640 C2646 0.950 . S
H2641 C2647 0.950 . S
H2642 C2648 0.949 . S
C2643 H2638 0.950 . S
C2643 C2645 1.327 . S
C2643 C2649 1.429 . S
C2644 C2636 1.574 . S
C2644 H2639 0.949 . S
C2644 C2650 1.368 . S
C2645 C2629 1.349 . S
C2645 H2637 0.950 . S
C2645 C2643 1.327 . S
C2646 C2634 1.349 . S
C2646 H2640 0.950 . S
C2646 C2647 1.327 . S
C2647 H2641 0.950 . S
C2647 C2646 1.327 . S
C2647 C2651 1.429 . S
C2648 C2631 1.574 . S
C2648 H2642 0.949 . S
C2648 C2652 1.368 . S
C2649 C2630 1.429 . S
C2649 C2643 1.429 . S
C2649 C2650 1.523 . S
C2650 C2631 1.368 . S
C2650 C2644 1.368 . S
C2650 C2649 1.523 . S
C2651 C2635 1.429 . S
C2651 C2647 1.429 . S
C2651 C2652 1.523 . S
C2652 C2636 1.368 . S
C2652 C2648 1.368 . S
C2652 C2651 1.523 . S
H2653 C2628 0.950 . S
H2654 C2630 0.950 . S
H2655 C2631 0.949 . S
H2656 C2633 0.950 . S
H2657 C2635 0.950 . S
C2658 C2659 1.349 . S
C2658 C2660 1.327 . S
C2658 H2683 0.950 . S
C2659 C2658 1.349 . S
C2659 C2675 1.349 . S
C2660 C2658 1.327 . S
C2660 C2679 1.429 . S
C2660 H2684 0.950 . S
C2661 C2678 1.574 . S
C2661 C2680 1.368 . S
C2661 H2685 0.949 . S
H2662 C2666 0.949 . S
C2663 C2664 1.349 . S
C2663 C2665 1.327 . S
C2663 H2686 0.950 . S
C2664 C2663 1.349 . S
C2664 C2676 1.349 . S
C2665 C2663 1.327 . S
C2665 C2681 1.429 . S
C2665 H2687 0.950 . S
C2666 H2662 0.949 . S
C2666 C2674 1.574 . S
C2666 C2682 1.368 . S
H2667 C2675 0.950 . S
H2668 C2673 0.950 . S
H2669 C2674 0.949 . S
H2670 C2676 0.950 . S
H2671 C2677 0.950 . S
H2672 C2678 0.949 . S
C2673 H2668 0.950 . S
C2673 C2675 1.327 . S
C2673 C2679 1.429 . S
C2674 C2666 1.574 . S
C2674 H2669 0.949 . S
C2674 C2680 1.368 . S
C2675 C2659 1.349 . S
C2675 H2667 0.950 . S
C2675 C2673 1.327 . S
C2676 C2664 1.349 . S
C2676 H2670 0.950 . S
C2676 C2677 1.327 . S
C2677 H2671 0.950 . S
C2677 C2676 1.327 . S
C2677 C2681 1.429 . S
C2678 C2661 1.574 . S
C2678 H2672 0.949 . S
C2678 C2682 1.368 . S
C2679 C2660 1.429 . S
C2679 C2673 1.429 . S
C2679 C2680 1.523 . S
C2680 C2661 1.368 . S
C2680 C2674 1.368 . S
C2680 C2679 1.523 . S
C2681 C2665 1.429 . S
C2681 C2677 1.429 . S
C2681 C2682 1.523 . S
C2682 C2666 1.368 . S
C2682 C2678 1.368 . S
C2682 C2681 1.523 . S
H2683 C2658 0.950 . S
H2684 C2660 0.950 . S
H2685 C2661 0.949 . S
H2686 C2663 0.950 . S
H2687 C2665 0.950 . S
C2688 C2689 1.349 . S
C2688 C2690 1.327 . S
C2688 H2713 0.950 . S
C2689 C2688 1.349 . S
C2689 C2705 1.349 . S
C2690 C2688 1.327 . S
C2690 C2709 1.429 . S
C2690 H2714 0.950 . S
C2691 C2708 1.574 . S
C2691 C2710 1.368 . S
C2691 H2715 0.949 . S
H2692 C2696 0.949 . S
C2693 C2694 1.349 . S
C2693 C2695 1.327 . S
C2693 H2716 0.950 . S
C2694 C2693 1.349 . S
C2694 C2706 1.349 . S
C2695 C2693 1.327 . S
C2695 C2711 1.429 . S
C2695 H2717 0.950 . S
C2696 H2692 0.949 . S
C2696 C2704 1.574 . S
C2696 C2712 1.368 . S
H2697 C2705 0.950 . S
H2698 C2703 0.950 . S
H2699 C2704 0.949 . S
H2700 C2706 0.950 . S
H2701 C2707 0.950 . S
H2702 C2708 0.949 . S
C2703 H2698 0.950 . S
C2703 C2705 1.327 . S
C2703 C2709 1.429 . S
C2704 C2696 1.574 . S
C2704 H2699 0.949 . S
C2704 C2710 1.368 . S
C2705 C2689 1.349 . S
C2705 H2697 0.950 . S
C2705 C2703 1.327 . S
C2706 C2694 1.349 . S
C2706 H2700 0.950 . S
C2706 C2707 1.327 . S
C2707 H2701 0.950 . S
C2707 C2706 1.327 . S
C2707 C2711 1.429 . S
C2708 C2691 1.574 . S
C2708 H2702 0.949 . S
C2708 C2712 1.368 . S
C2709 C2690 1.429 . S
C2709 C2703 1.429 . S
C2709 C2710 1.523 . S
C2710 C2691 1.368 . S
C2710 C2704 1.368 . S
C2710 C2709 1.523 . S
C2711 C2695 1.429 . S
C2711 C2707 1.429 . S
C2711 C2712 1.523 . S
C2712 C2696 1.368 . S
C2712 C2708 1.368 . S
C2712 C2711 1.523 . S
H2713 C2688 0.950 . S
H2714 C2690 0.950 . S
H2715 C2691 0.949 . S
H2716 C2693 0.950 . S
H2717 C2695 0.950 . S
C1099 C253 1.441 . S
C1104 C409 1.387 . S
C1129 C272 1.473 . S
C1134 C493 1.421 . S
C1159 C234 1.426 . S
C1164 C573 1.431 . S
C1189 C215 1.408 . S
C1194 C489 1.412 1_556 S
C1224 C577 1.373 . S
C1219 C177 1.426 . S
C1249 C196 1.380 . S
C1254 C405 1.382 1_556 S
C1284 C398 1.484 . S
C1279 C220 1.463 . S
C1314 C482 1.507 . S
C1309 C182 1.487 . S
C1339 C201 1.479 . S
C1344 C584 1.522 . S
C1369 C258 1.444 . S
C1374 C500 1.485 . S
C1399 C277 1.432 . S
C1404 C566 1.449 . S
C1434 C416 1.466 . S
C1429 C239 1.423 . S
C1464 C661 1.386 . S
C1459 C25 1.441 . S
C1489 C44 1.473 . S
C1494 C745 1.420 . S
C1519 C6 1.426 . S
C1524 C825 1.430 . S
C1549 C329 1.408 . S
C1554 C741 1.412 . S
C1579 C291 1.427 . S
C1584 C829 1.370 . S
C1609 C310 1.380 . S
C1614 C657 1.384 . S
C1639 C334 1.463 . S
C1644 C650 1.484 . S
C1669 C296 1.487 . S
C1674 C734 1.507 . S
C1704 C836 1.522 . S
C1699 C315 1.479 . S
C1729 C30 1.444 . S
C1734 C752 1.485 . S
C1764 C818 1.449 . S
C1759 C49 1.432 . S
C1789 C11 1.423 . S
C1794 C668 1.466 . S
C1824 C913 1.386 . S
C1819 C139 1.441 . S
C1849 C158 1.473 . S
C1854 C997 1.420 . S
C1884 C1077 1.430 . S
C1879 C120 1.426 . S
C1914 C993 1.412 . S
C1909 C101 1.408 . S
C1944 C1081 1.370 . S
C1939 C63 1.426 . S
C1969 C82 1.380 . S
C1974 C909 1.384 . S
C1999 C106 1.463 . S
C2004 C902 1.484 . S
C2029 C68 1.487 . S
C2034 C986 1.507 . S
C2064 C1088 1.522 . S
C2059 C87 1.479 . S
C2089 C144 1.444 . S
C2094 C1004 1.485 . S
C2119 C163 1.432 . S
C2124 C1070 1.449 . S
C2149 C125 1.423 . S
C2154 C920 1.466 . S
C2179 C287 1.652 . S
C2184 C412 1.527 . S
C2214 C496 1.595 . S
C2209 C306 1.742 . S
C2239 C325 1.665 . S
C2244 C568 1.466 . S
C2269 C116 1.701 . S
C2274 C484 1.489 . S
C2299 C135 1.687 . S
C2304 C580 1.547 . S
C2334 C400 1.426 . S
C2329 C154 1.610 . S
C2359 C59 1.652 . S
C2364 C664 1.527 . S
C2389 C78 1.742 . S
C2394 C748 1.595 . S
C2419 C97 1.664 . S
C2424 C820 1.465 . S
C2449 C230 1.701 . S
C2454 C736 1.490 . S
C2484 C832 1.548 . S
C2479 C249 1.687 . S
C2509 C268 1.610 . S
C2514 C652 1.426 . S
C2539 C173 1.652 . S
C2544 C916 1.527 . S
C2569 C192 1.742 . S
C2574 C1000 1.595 . S
C2604 C1072 1.465 . S
C2599 C211 1.664 . S
C2629 C2 1.701 . S
C2634 C988 1.490 . S
C2659 C21 1.687 . S
C2664 C1084 1.548 . S
C2689 C40 1.610 . S
C2694 C904 1.425 . S
