# Generated by pormake.
# Topology pyr, (3,6)-cn, num edge types: 1
# Building blocks:
#     Node 0, Type 0, BuildingBlock: VETTIZ_charged_linker_0, # of connection points: 3
#     Node 1, Type 0, BuildingBlock: VETTIZ_charged_linker_0, # of connection points: 3
#     Node 2, Type 0, BuildingBlock: VETTIZ_charged_linker_0, # of connection points: 3
#     Node 3, Type 0, BuildingBlock: VETTIZ_charged_linker_0, # of connection points: 3
#     Node 4, Type 0, BuildingBlock: VETTIZ_charged_linker_0, # of connection points: 3
#     Node 5, Type 0, BuildingBlock: VETTIZ_charged_linker_0, # of connection points: 3
#     Node 6, Type 0, BuildingBlock: VETTIZ_charged_linker_0, # of connection points: 3
#     Node 7, Type 0, BuildingBlock: VETTIZ_charged_linker_0, # of connection points: 3
#     Node 8, Type 1, BuildingBlock: INOVEN_clean_sbu_0, # of connection points: 6
#     Node 9, Type 1, BuildingBlock: INOVEN_clean_sbu_0, # of connection points: 6
#     Node 10, Type 1, BuildingBlock: INOVEN_clean_sbu_0, # of connection points: 6
#     Node 11, Type 1, BuildingBlock: INOVEN_clean_sbu_0, # of connection points: 6
#     Edge 12, Type (0, 1), None
#     Edge 13, Type (0, 1), None
#     Edge 14, Type (0, 1), None
#     Edge 15, Type (0, 1), None
#     Edge 16, Type (0, 1), None
#     Edge 17, Type (0, 1), None
#     Edge 18, Type (0, 1), None
#     Edge 19, Type (0, 1), None
#     Edge 20, Type (0, 1), None
#     Edge 21, Type (0, 1), None
#     Edge 22, Type (0, 1), None
#     Edge 23, Type (0, 1), None
#     Edge 24, Type (0, 1), None
#     Edge 25, Type (0, 1), None
#     Edge 26, Type (0, 1), None
#     Edge 27, Type (0, 1), None
#     Edge 28, Type (0, 1), None
#     Edge 29, Type (0, 1), None
#     Edge 30, Type (0, 1), None
#     Edge 31, Type (0, 1), None
#     Edge 32, Type (0, 1), None
#     Edge 33, Type (0, 1), None
#     Edge 34, Type (0, 1), None
#     Edge 35, Type (0, 1), None
# Relax obj value: 0.223
# Max RMSD: 0.167
# Mean RMSD: 0.078
data_MOF--net-pyr--node1-INOVEN_clean_sbu_0--node2-VETTIZ_charged_linker_0--edge1-none
_symmetry_space_group_name_H-M    P1
_symmetry_Int_Tables_number       1
_symmetry_cell_setting            triclinic
loop_
_symmetry_equiv_pos_as_xyz
'x, y, z'
_cell_length_a     25.699514
_cell_length_b     26.473213
_cell_length_c     23.348825
_cell_angle_alpha  90.51623
_cell_angle_beta   88.623947
_cell_angle_gamma 104.3435
loop_
_atom_site_label
_atom_site_type_symbol
_atom_site_fract_x
_atom_site_fract_y
_atom_site_fract_z
_atom_type_partial_charge
C0 C 0.39372 0.2706 0.49605 0.0
C1 C 0.3555 0.29023 0.52758 0.0
C2 C 0.36021 0.34449 0.52662 0.0
C3 C 0.4167 0.35032 0.44215 0.0
C4 C 0.42382 0.30137 0.45243 0.0
C5 C 0.45409 0.28285 0.40382 0.0
H6 H 0.45624 0.22479 0.14322 0.0
C7 C 0.42878 0.36237 0.38126 0.0
C8 C 0.45693 0.32653 0.36014 0.0
H9 H 0.57685 0.20799 0.26269 0.0
H10 H 0.55716 0.27973 0.3212 0.0
H11 H 0.49562 0.35243 0.15065 0.0
H12 H 0.36098 0.24419 0.23167 0.0
H13 H 0.34026 0.29405 0.19521 0.0
H14 H 0.37154 0.25136 0.15543 0.0
H15 H 0.43374 0.32847 0.11406 0.0
H16 H 0.44408 0.38488 0.16065 0.0
C17 C 0.50954 0.27929 0.42513 0.0
C18 C 0.42119 0.22938 0.38146 0.0
C19 C 0.2854 0.43309 0.28651 0.0
C20 C 0.2647 0.42761 0.23107 0.0
C21 C 0.29323 0.40817 0.18724 0.0
C22 C 0.33942 0.39116 0.19952 0.0
C23 C 0.35663 0.39248 0.25637 0.0
C24 C 0.33065 0.41462 0.29844 0.0
C25 C 0.35407 0.41274 0.35657 0.0
C26 C 0.39826 0.38458 0.34266 0.0
C27 C 0.39897 0.3725 0.28369 0.0
C28 C 0.3781 0.46933 0.37657 0.0
C29 C 0.30893 0.38181 0.39776 0.0
C30 C 0.47754 0.23549 0.18273 0.0
C31 C 0.51563 0.20897 0.20059 0.0
C32 C 0.54561 0.22622 0.24989 0.0
C33 C 0.53328 0.26562 0.28445 0.0
C34 C 0.49028 0.28623 0.26961 0.0
C35 C 0.46659 0.27523 0.21742 0.0
C36 C 0.42863 0.3093 0.20624 0.0
C37 C 0.43129 0.33945 0.26275 0.0
C38 C 0.46481 0.3222 0.30043 0.0
C39 C 0.45121 0.34555 0.15504 0.0
C40 C 0.37224 0.27313 0.19642 0.0
H41 H 0.39172 0.41557 0.48081 0.0
H42 H 0.39351 0.22982 0.49838 0.0
H43 H 0.38046 0.23183 0.36873 0.0
H44 H 0.44106 0.2156 0.34403 0.0
H45 H 0.41691 0.19865 0.41448 0.0
H46 H 0.50813 0.27056 0.47173 0.0
H47 H 0.52311 0.24702 0.40389 0.0
H48 H 0.5404 0.31625 0.41774 0.0
H49 H 0.26533 0.4495 0.32062 0.0
H50 H 0.27852 0.40397 0.14394 0.0
H51 H 0.35875 0.37559 0.1648 0.0
H52 H 0.40222 0.49284 0.34144 0.0
H53 H 0.34572 0.48837 0.38984 0.0
H54 H 0.40561 0.47127 0.41261 0.0
H55 H 0.26782 0.37902 0.38225 0.0
H56 H 0.31164 0.34089 0.40309 0.0
H57 H 0.30954 0.40096 0.4402 0.0
H58 H 0.33406 0.36158 0.5533 0.0
C59 C 0.39194 0.37516 0.48394 0.0
C60 C 0.10048 0.94062 0.66849 0.0
C61 C 0.07054 0.97618 0.68529 0.0
C62 C 0.05152 0.97596 0.74235 0.0
C63 C 0.09649 0.90817 0.76544 0.0
C64 C 0.11339 0.90764 0.70898 0.0
C65 C 0.14988 0.87204 0.69851 0.0
H66 H 0.30655 0.73073 0.80932 0.0
C67 C 0.1195 0.87083 0.79692 0.0
C68 C 0.1498 0.84874 0.75757 0.0
H69 H 0.31054 0.79336 0.63827 0.0
H70 H 0.22755 0.8171 0.65842 0.0
H71 H 0.30123 0.7999 0.87519 0.0
H72 H 0.17246 0.68749 0.82193 0.0
H73 H 0.15414 0.70602 0.89076 0.0
H74 H 0.21791 0.68983 0.87986 0.0
H75 H 0.25684 0.77035 0.93055 0.0
H76 H 0.25485 0.83347 0.90297 0.0
C77 C 0.20619 0.90599 0.67963 0.0
C78 C 0.12373 0.83007 0.6543 0.0
C79 C 0.15382 0.89068 1.00603 0.0
C80 C 0.18864 0.86819 1.03728 0.0
C81 C 0.1899 0.81633 1.02505 0.0
C82 C 0.16714 0.79224 0.97497 0.0
C83 C 0.14584 0.82161 0.93658 0.0
C84 C 0.13305 0.86682 0.95473 0.0
C85 C 0.10874 0.89121 0.90723 0.0
C86 C 0.11984 0.85902 0.85606 0.0
C87 C 0.14367 0.81948 0.8738 0.0
C88 C 0.13864 0.94963 0.90189 0.0
C89 C 0.04776 0.88185 0.92015 0.0
C90 C 0.29018 0.75044 0.77637 0.0
C91 C 0.31647 0.76152 0.72275 0.0
C92 C 0.29183 0.78458 0.68024 0.0
C93 C 0.24398 0.79933 0.69231 0.0
C94 C 0.22156 0.79303 0.74804 0.0
C95 C 0.2441 0.76807 0.78873 0.0
C96 C 0.21669 0.76698 0.84651 0.0
C97 C 0.17547 0.79812 0.83426 0.0
C98 C 0.17863 0.81296 0.77647 0.0
C99 C 0.25911 0.79393 0.89116 0.0
C100 C 0.18896 0.70957 0.86097 0.0
H101 H 0.04869 0.94289 0.82552 0.0
H102 H 0.11589 0.93987 0.62497 0.0
H103 H 0.08011 0.81495 0.66427 0.0
H104 H 0.14095 0.79572 0.65455 0.0
H105 H 0.12792 0.84648 0.61033 0.0
H106 H 0.21045 0.94828 0.68784 0.0
H107 H 0.21408 0.90165 0.63309 0.0
H108 H 0.23913 0.89674 0.70389 0.0
H109 H 0.15039 0.92974 1.0158 0.0
H110 H 0.21488 0.79746 1.04946 0.0
H111 H 0.1719 0.75406 0.96484 0.0
H112 H 0.18286 0.95432 0.90228 0.0
H113 H 0.12734 0.97271 0.93794 0.0
H114 H 0.13064 0.96794 0.86213 0.0
H115 H 1.02407 0.87744 0.88071 0.0
H116 H 0.03897 0.91391 0.94668 0.0
H117 H 0.03183 0.84478 0.94393 0.0
H118 H 0.0279 1.00276 0.75597 0.0
C119 C 0.06355 0.94128 0.78239 0.0
C120 C 0.60883 0.23078 1.01015 0.0
C121 C 0.55805 0.2004 0.99436 0.0
C122 C 0.53101 0.22045 0.95113 0.0
C123 C 0.60386 0.29991 0.94194 0.0
C124 C 0.63021 0.28021 0.98441 0.0
C125 C 0.68104 0.31892 1.00109 0.0
H126 H 0.85298 0.55835 0.98939 0.0
C127 C 0.63604 0.35434 0.92679 0.0
C128 C 0.68109 0.36514 0.96242 0.0
H129 H 0.86622 0.42312 1.08432 0.0
H130 H 0.78383 0.37312 1.04535 0.0
H131 H 0.71417 0.53653 1.00265 0.0
H132 H 0.81836 0.49496 0.8715 0.0
H133 H 0.76726 0.51772 0.83951 0.0
H134 H 0.81565 0.56149 0.88302 0.0
H135 H 0.76424 0.58444 0.96439 0.0
H136 H 0.69969 0.55648 0.93401 0.0
C137 C 0.67496 0.33268 1.0652 0.0
C138 C 0.72898 0.29459 0.98697 0.0
C139 C 0.58072 0.46378 0.76566 0.0
C140 C 0.59988 0.51644 0.74732 0.0
C141 C 0.64328 0.54786 0.77748 0.0
C142 C 0.66798 0.52778 0.82263 0.0
C143 C 0.64902 0.47532 0.83991 0.0
C144 C 0.60505 0.44447 0.81246 0.0
C145 C 0.58673 0.39139 0.84135 0.0
C146 C 0.62925 0.39381 0.88709 0.0
C147 C 0.66611 0.44356 0.88599 0.0
C148 C 0.53053 0.38733 0.86877 0.0
C149 C 0.58757 0.34843 0.79657 0.0
C150 C 0.83764 0.51807 1.00227 0.0
C151 C 0.86607 0.49518 1.04193 0.0
C152 C 0.84495 0.44227 1.05569 0.0
C153 C 0.79695 0.41304 1.03225 0.0
C154 C 0.76883 0.43616 0.99335 0.0
C155 C 0.78951 0.48771 0.97818 0.0
C156 C 0.75528 0.50425 0.93321 0.0
C157 C 0.71104 0.45414 0.92384 0.0
C158 C 0.71883 0.41483 0.96061 0.0
C159 C 0.73211 0.54802 0.95943 0.0
C160 C 0.79074 0.52088 0.87885 0.0
H161 H 0.53114 0.28144 0.89154 0.0
H162 H 0.63015 0.21778 1.04429 0.0
H163 H 0.71918 0.26461 0.95255 0.0
H164 H 0.76462 0.32363 0.96999 0.0
H165 H 0.7405 0.2754 1.02505 0.0
H166 H 0.63415 0.33845 1.07456 0.0
H167 H 0.68046 0.30089 1.09324 0.0
H168 H 0.70297 0.36938 1.07832 0.0
H169 H 0.54643 0.43864 0.74517 0.0
H170 H 0.65882 0.58835 0.76553 0.0
H171 H 0.70095 0.55423 0.84283 0.0
H172 H 0.52837 0.42503 0.88889 0.0
H173 H 0.49884 0.37737 0.8361 0.0
H174 H 0.52079 0.35844 0.9036 0.0
H175 H 0.62691 0.35691 0.77307 0.0
H176 H 0.58206 0.30968 0.81629 0.0
H177 H 0.55556 0.34608 0.76479 0.0
H178 H 0.49146 0.19863 0.93856 0.0
C179 C 0.55381 0.26908 0.92431 0.0
C180 C 0.97233 0.919 0.45376 0.0
C181 C 0.94809 0.94952 0.49203 0.0
C182 C 0.89308 0.93077 0.50531 0.0
C183 C 0.88959 0.84946 0.4553 0.0
C184 C 0.94145 0.86903 0.43488 0.0
C185 C 0.95622 0.83044 0.39183 0.0
H186 H 0.88493 0.58307 0.26849 0.0
C187 C 0.86918 0.79515 0.4347 0.0
C188 C 0.90695 0.78312 0.39563 0.0
H189 H 1.02308 0.70711 0.22288 0.0
H190 H 0.99676 0.7632 0.29558 0.0
H191 H 0.89233 0.60429 0.40886 0.0
H192 H 0.79798 0.65644 0.28124 0.0
H193 H 0.75742 0.63058 0.34141 0.0
H194 H 0.7885 0.58872 0.29875 0.0
H195 H 0.83881 0.55988 0.3726 0.0
H196 H 0.82561 0.59629 0.43429 0.0
C197 C 1.0078 0.81634 0.41087 0.0
C198 C 0.96214 0.85599 0.33215 0.0
C199 C 0.70341 0.68831 0.53844 0.0
C200 C 0.6721 0.63699 0.53471 0.0
C201 C 0.68635 0.6039 0.49247 0.0
C202 C 0.73208 0.62183 0.45581 0.0
C203 C 0.76337 0.6738 0.46059 0.0
C204 C 0.7477 0.7058 0.50117 0.0
C205 C 0.78158 0.76052 0.49899 0.0
C206 C 0.82321 0.75617 0.45297 0.0
C207 C 0.81282 0.70548 0.42987 0.0
C208 C 0.80647 0.77357 0.55891 0.0
C209 C 0.7451 0.79609 0.48008 0.0
C210 C 0.90935 0.62248 0.2735 0.0
C211 C 0.9562 0.64026 0.23879 0.0
C212 C 0.98661 0.69205 0.24795 0.0
C213 C 0.9711 0.72488 0.29015 0.0
C214 C 0.92388 0.7067 0.3238 0.0
C215 C 0.89393 0.65596 0.31498 0.0
C216 C 0.84487 0.6426 0.35437 0.0
C217 C 0.84896 0.69361 0.38691 0.0
C218 C 0.89591 0.73179 0.36953 0.0
C219 C 0.85021 0.59822 0.39464 0.0
C220 C 0.79426 0.62848 0.31729 0.0
H221 H 0.82346 0.87011 0.50232 0.0
H222 H 1.014 0.93284 0.44034 0.0
H223 H 0.92817 0.87406 0.32459 0.0
H224 H 0.96133 0.82771 0.2971 0.0
H225 H 1.00008 0.88708 0.32849 0.0
H226 H 1.00342 0.80318 0.45622 0.0
H227 H 0.04283 0.85065 0.40743 0.0
H228 H 1.0168 0.78434 0.38493 0.0
H229 H 0.69277 0.71523 0.56915 0.0
H230 H 0.66261 0.56411 0.48833 0.0
H231 H 0.74126 0.59475 0.42495 0.0
H232 H 0.82261 0.74097 0.57444 0.0
H233 H 0.77583 0.77976 0.59076 0.0
H234 H 0.8405 0.80822 0.5596 0.0
H235 H 0.70706 0.77359 0.46088 0.0
H236 H 0.76451 0.82372 0.4459 0.0
H237 H 0.7337 0.81826 0.51694 0.0
H238 H 0.87198 0.95383 0.53109 0.0
C239 C 0.86431 0.88161 0.48785 0.0
C240 C 0.74647 0.73891 0.98675 0.0
C241 C 0.77446 0.70639 0.9572 0.0
C242 C 0.75161 0.67984 0.90748 0.0
C243 C 0.68585 0.73055 0.90799 0.0
C244 C 0.70133 0.74986 0.96134 0.0
C245 C 0.6663 0.78462 0.98317 0.0
H246 H 0.5294 0.96089 0.9164 0.0
C247 C 0.64866 0.75862 0.88519 0.0
C248 C 0.63317 0.7877 0.93002 0.0
H249 H 0.5607 0.91162 1.08497 0.0
H250 H 0.59103 0.83888 1.0435 0.0
H251 H 0.4809 0.83414 0.86414 0.0
H252 H 0.60947 0.96383 0.85411 0.0
H253 H 0.64145 0.92181 0.81553 0.0
H254 H 0.5824 0.93829 0.78833 0.0
H255 H 0.48983 0.89789 0.83322 0.0
H256 H 0.50566 0.84564 0.79274 0.0
C257 C 0.63077 0.7572 1.03405 0.0
C258 C 0.70281 0.83834 0.99923 0.0
C259 C 0.70073 0.83328 0.69133 0.0
C260 C 0.691 0.87954 0.67012 0.0
C261 C 0.63939 0.88801 0.67962 0.0
C262 C 0.60504 0.85948 0.72189 0.0
C263 C 0.62382 0.82423 0.75521 0.0
C264 C 0.66786 0.80734 0.73615 0.0
C265 C 0.68305 0.77056 0.77767 0.0
C266 C 0.64379 0.77299 0.82761 0.0
C267 C 0.61167 0.80744 0.81512 0.0
C268 C 0.67349 0.71598 0.74939 0.0
C269 C 0.74267 0.79275 0.79415 0.0
C270 C 0.54202 0.93384 0.94425 0.0
C271 C 0.54292 0.94167 1.00364 0.0
C272 C 0.55969 0.90605 1.03894 0.0
C273 C 0.57784 0.86447 1.01502 0.0
C274 C 0.5805 0.85936 0.95523 0.0
C275 C 0.56098 0.89242 0.92094 0.0
C276 C 0.56501 0.87963 0.85836 0.0
C277 C 0.59049 0.83311 0.86083 0.0
C278 C 0.60087 0.82279 0.91799 0.0
C279 C 0.50731 0.86357 0.83556 0.0
C280 C 0.60134 0.92799 0.82727 0.0
H281 H 0.68842 0.66959 0.84661 0.0
H282 H 0.76126 0.75777 1.02652 0.0
H283 H 0.67972 0.86674 1.0121 0.0
H284 H 0.72864 0.83476 1.03567 0.0
H285 H 0.7293 0.85516 0.96221 0.0
H286 H 0.63265 0.71591 1.03879 0.0
H287 H 0.64344 0.77713 1.07534 0.0
H288 H 0.58768 0.75564 1.02804 0.0
H289 H 0.73819 0.82327 0.68139 0.0
H290 H 0.62866 0.92094 0.66025 0.0
H291 H 0.56757 0.86901 0.73075 0.0
H292 H 0.67376 0.71835 0.70184 0.0
H293 H 0.70594 0.69672 0.7591 0.0
H294 H 0.63417 0.69026 0.76317 0.0
H295 H 0.74913 0.8334 0.81042 0.0
H296 H 0.75621 0.76985 0.82714 0.0
H297 H 0.77028 0.79253 0.75695 0.0
H298 H 0.77005 0.65205 0.88595 0.0
C299 C 0.70602 0.69067 0.88378 0.0
C300 C 0.94969 0.22775 0.53369 0.0
C301 C 0.9777 0.19056 0.51705 0.0
C302 C 0.99664 0.18996 0.46004 0.0
C303 C 0.9542 0.25944 0.43638 0.0
C304 C 0.93787 0.2611 0.49291 0.0
C305 C 0.90271 0.298 0.50307 0.0
H306 H 0.74307 0.43511 0.39114 0.0
C307 C 0.93146 0.29666 0.40432 0.0
C308 C 0.90216 0.32006 0.44345 0.0
H309 H 0.74596 0.3805 0.56482 0.0
H310 H 0.82856 0.35649 0.54334 0.0
H311 H 0.74783 0.36395 0.32798 0.0
H312 H 0.8796 0.4785 0.37421 0.0
H313 H 0.89337 0.45853 0.30442 0.0
H314 H 0.83075 0.47581 0.31965 0.0
H315 H 0.7899 0.39382 0.27089 0.0
H316 H 0.79423 0.33139 0.29851 0.0
C317 C 0.84626 0.26568 0.52386 0.0
C318 C 0.93081 0.3406 0.54569 0.0
C319 C 0.89691 0.27182 0.19523 0.0
C320 C 0.86115 0.29233 0.16321 0.0
C321 C 0.85725 0.34354 0.17486 0.0
C322 C 0.87941 0.36912 0.22447 0.0
C323 C 0.90231 0.34162 0.26349 0.0
C324 C 0.91651 0.29677 0.24639 0.0
C325 C 0.94093 0.27351 0.29463 0.0
C326 C 0.92989 0.30672 0.34488 0.0
C327 C 0.90534 0.34544 0.32619 0.0
C328 C 0.91077 0.21522 0.30129 0.0
C329 C 1.00189 0.28253 0.28179 0.0
C330 C 0.76104 0.41722 0.42441 0.0
C331 C 0.73671 0.40824 0.47919 0.0
C332 C 0.76318 0.38751 0.522 0.0
C333 C 0.8108 0.37265 0.50921 0.0
C334 C 0.83118 0.37655 0.45264 0.0
C335 C 0.80714 0.39972 0.4116 0.0
C336 C 0.83306 0.39896 0.35324 0.0
C337 C 0.8746 0.36819 0.3656 0.0
C338 C 0.87317 0.35549 0.42395 0.0
C339 C 0.78948 0.37074 0.31037 0.0
C340 C 0.8605 0.45592 0.33653 0.0
H341 H 1.0005 0.22272 0.37663 0.0
H342 H 0.93461 0.22932 0.57724 0.0
H343 H 0.97443 0.35414 0.53485 0.0
H344 H 0.91501 0.3758 0.54449 0.0
H345 H 0.92679 0.32539 0.59019 0.0
H346 H 0.8409 0.22302 0.51737 0.0
H347 H 0.83932 0.27178 0.57026 0.0
H348 H 0.81324 0.27479 0.49959 0.0
H349 H 0.90202 0.23318 0.18615 0.0
H350 H 0.83108 0.36073 0.15011 0.0
H351 H 0.87314 0.40689 0.2337 0.0
H352 H 0.8666 0.21054 0.29954 0.0
H353 H 0.92274 0.19119 0.26654 0.0
H354 H 0.91756 0.19789 0.3421 0.0
H355 H 0.02567 0.28842 0.32125 0.0
H356 H 1.0107 0.24959 0.25683 0.0
H357 H 1.01773 0.3187 0.25644 0.0
H358 H 1.01897 0.16201 0.44658 0.0
C359 C 0.98591 0.2251 0.41975 0.0
C360 C 0.46985 0.69832 0.44048 0.0
C361 C 0.44925 0.64667 0.46124 0.0
C362 C 0.40438 0.61547 0.4331 0.0
C363 C 0.40036 0.68629 0.36743 0.0
C364 C 0.44555 0.71687 0.39315 0.0
C365 C 0.4652 0.76859 0.36185 0.0
H366 H 0.4259 0.93829 0.15293 0.0
C367 C 0.38411 0.71695 0.31975 0.0
C368 C 0.42249 0.7657 0.31624 0.0
H369 H 0.56492 0.95641 0.25803 0.0
H370 H 0.52359 0.8752 0.30728 0.0
H371 H 0.33614 0.89405 0.24741 0.0
H372 H 0.41899 0.81774 0.12567 0.0
H373 H 0.35053 0.78538 0.12415 0.0
H374 H 0.37128 0.85348 0.10621 0.0
H375 H 0.31646 0.88539 0.17418 0.0
H376 H 0.28914 0.83671 0.22789 0.0
C377 C 0.46613 0.81346 0.4047 0.0
C378 C 0.52082 0.76998 0.33431 0.0
C379 C 0.21032 0.64302 0.20658 0.0
C380 C 0.18306 0.66524 0.16506 0.0
C381 C 0.20628 0.71698 0.14814 0.0
C382 C 0.25508 0.74575 0.17038 0.0
C383 C 0.28189 0.72338 0.21135 0.0
C384 C 0.25923 0.673 0.22956 0.0
C385 C 0.2925 0.65731 0.27617 0.0
C386 C 0.33894 0.70624 0.28218 0.0
C387 C 0.3325 0.74453 0.24322 0.0
C388 C 0.25722 0.64629 0.33136 0.0
C389 C 0.31248 0.60994 0.25435 0.0
C390 C 0.44698 0.92541 0.18736 0.0
C391 C 0.49836 0.95503 0.20235 0.0
C392 C 0.52499 0.93514 0.24602 0.0
C393 C 0.50115 0.88747 0.27421 0.0
C394 C 0.45039 0.85745 0.25761 0.0
C395 C 0.4245 0.87685 0.21452 0.0
C396 C 0.37282 0.83875 0.19902 0.0
C397 C 0.37163 0.79332 0.2393 0.0
C398 C 0.41685 0.8041 0.27468 0.0
C399 C 0.32602 0.86484 0.21226 0.0
C400 C 0.37805 0.823 0.1354 0.0
H401 H 0.34573 0.60861 0.36864 0.0
H402 H 0.50524 0.72315 0.4594 0.0
H403 H 0.52182 0.73103 0.31667 0.0
H404 H 0.53072 0.79685 0.2976 0.0
H405 H 0.55302 0.78102 0.36632 0.0
H406 H 0.42712 0.80681 0.42868 0.0
H407 H 0.49839 0.81615 0.43627 0.0
H408 H 0.47239 0.85156 0.38333 0.0
H409 H 0.19347 0.6037 0.22175 0.0
H410 H 0.1862 0.73557 0.11761 0.0
H411 H 0.26985 0.78475 0.15479 0.0
H412 H 0.23472 0.67683 0.33811 0.0
H413 H 0.22743 0.60799 0.3286 0.0
H414 H 0.2808 0.64691 0.37027 0.0
H415 H 0.32522 0.61494 0.20844 0.0
H416 H 0.34812 0.60518 0.27705 0.0
H417 H 0.28023 0.57331 0.25818 0.0
H418 H 0.38772 0.57571 0.44704 0.0
C419 C 0.3798 0.63484 0.38734 0.0
C420 C 0.07517 0.24616 0.74972 0.0
C421 C 0.09762 0.21797 0.70711 0.0
C422 C 0.15058 0.23992 0.68773 0.0
C423 C 0.15597 0.31795 0.74458 0.0
C424 C 0.10581 0.29636 0.7684 0.0
C425 C 0.09187 0.33384 0.81346 0.0
H426 H 0.16359 0.57961 0.94127 0.0
C427 C 0.17674 0.37147 0.76732 0.0
C428 C 0.14036 0.38197 0.80896 0.0
H429 H 0.0257 0.45485 0.98564 0.0
H430 H 0.05239 0.3995 0.91235 0.0
H431 H 0.15826 0.56043 0.79924 0.0
H432 H 0.25008 0.50459 0.92703 0.0
H433 H 0.29112 0.53141 0.86753 0.0
H434 H 0.26068 0.57286 0.91158 0.0
H435 H 0.20899 0.60402 0.83994 0.0
H436 H 0.22655 0.57103 0.77767 0.0
C437 C 0.03915 0.34722 0.79715 0.0
C438 C 0.08835 0.30744 0.87248 0.0
C439 C 0.34402 0.4776 0.66704 0.0
C440 C 0.37748 0.52771 0.67304 0.0
C441 C 0.36471 0.5601 0.71703 0.0
C442 C 0.31843 0.54261 0.7532 0.0
C443 C 0.28511 0.4917 0.7462 0.0
C444 C 0.29945 0.46051 0.70388 0.0
C445 C 0.26375 0.40677 0.70338 0.0
C446 C 0.22292 0.41055 0.75017 0.0
C447 C 0.23483 0.46014 0.77593 0.0
C448 C 0.23815 0.39736 0.64322 0.0
C449 C 0.29858 0.36886 0.72007 0.0
C450 C 0.13918 0.54028 0.93568 0.0
C451 C 0.09225 0.5221 0.97021 0.0
C452 C 0.06208 0.4703 0.96056 0.0
C453 C 0.07771 0.43797 0.91785 0.0
C454 C 0.1247 0.45673 0.884 0.0
C455 C 0.15467 0.50732 0.89362 0.0
C456 C 0.20395 0.52109 0.85452 0.0
C457 C 0.19932 0.47094 0.82025 0.0
C458 C 0.15224 0.43249 0.83709 0.0
C459 C 0.19963 0.56675 0.81576 0.0
C460 C 0.25438 0.53351 0.89186 0.0
H461 H 0.2179 0.30252 0.68602 0.0
H462 H 0.03488 0.23041 0.76662 0.0
H463 H 0.12379 0.29116 0.87853 0.0
H464 H 0.0882 0.33488 0.9082 0.0
H465 H 0.05162 0.27491 0.87626 0.0
H466 H 0.04163 0.36063 0.75195 0.0
H467 H 1.00468 0.31248 0.80152 0.0
H468 H 0.03053 0.37883 0.82397 0.0
H469 H 0.35308 0.45107 0.63485 0.0
H470 H 0.39004 0.59903 0.7229 0.0
H471 H 0.31038 0.56913 0.7854 0.0
H472 H 0.23276 0.43426 0.62464 0.0
H473 H 0.26374 0.38135 0.61271 0.0
H474 H 0.19733 0.37127 0.64398 0.0
H475 H 0.33427 0.38882 0.74502 0.0
H476 H 0.27665 0.33719 0.74882 0.0
H477 H 0.31369 0.35155 0.68153 0.0
H478 H 0.17024 0.21981 0.6566 0.0
C479 C 0.1791 0.28886 0.70556 0.0
Gd480 Gd 0.07048 0.08972 0.56509 0.0
Gd481 Gd 0.97543 1.07612 0.6373 0.0
C482 C 0.0685 0.16883 0.67659 0.0
C483 C 0.16102 0.13047 0.51393 0.0
C484 C 0.20793 0.17363 0.52806 0.0
C485 C 0.25357 0.16284 0.55234 0.0
C486 C 0.20868 0.22556 0.51545 0.0
C487 C 0.30282 0.25356 0.54167 0.0
C488 C 0.25549 0.26509 0.52239 0.0
C489 C 0.30034 0.20244 0.55955 0.0
C490 C 0.06174 1.0136 0.64253 0.0
C491 C 0.97715 0.99788 0.52393 0.0
C492 C 0.88609 1.03777 0.69218 0.0
C493 C 0.83576 0.99947 0.67871 0.0
C494 C 0.7869 1.00958 0.69615 0.0
C495 C 0.83558 0.95348 0.64823 0.0
C496 C 0.73827 0.92458 0.66029 0.0
C497 C 0.7872 0.91677 0.63819 0.0
C498 C 0.73868 0.9726 0.68723 0.0
C499 C 0.98439 0.15227 0.55983 0.0
O500 O 0.08852 0.15944 0.62584 0.0
O501 O 0.02458 0.13647 0.69706 0.0
O502 O 0.15305 0.08917 0.5462 0.0
O503 O 0.11627 0.14257 0.50106 0.0
O504 O 0.07653 1.01066 0.58953 0.0
O505 O 0.05252 1.05759 0.65349 0.0
O506 O 0.95528 1.00815 0.57353 0.0
O507 O 1.02282 1.02873 0.50529 0.0
O508 O 0.89542 0.08103 0.66318 0.0
O509 O 0.92906 1.02028 0.69809 0.0
O510 O 0.96885 0.15503 0.61256 0.0
O511 O 0.99345 0.10822 0.549 0.0
H512 H 0.25406 0.1233 0.56334 0.0
H513 H 0.17404 0.23542 0.49742 0.0
H514 H 0.25565 0.30378 0.50759 0.0
H515 H 0.33576 0.19227 0.57517 0.0
H516 H 0.78617 1.04524 0.71899 0.0
H517 H 0.8729 0.94504 0.63391 0.0
H518 H 0.78858 0.88081 0.61645 0.0
H519 H 0.70238 0.98026 0.70578 0.0
Gd520 Gd 0.58654 0.08664 0.10759 0.0
Gd521 Gd 0.47048 1.06747 1.08757 0.0
C522 C 0.52109 0.16202 0.16923 0.0
C523 C 0.68991 0.11975 0.10949 0.0
C524 C 0.73181 0.16846 0.11198 0.0
C525 C 0.78405 0.16907 1.09281 0.0
C526 C 0.72126 0.21316 0.13706 0.0
C527 C 0.81689 0.25546 0.13369 0.0
C528 C 0.76346 0.25637 0.14784 0.0
C529 C 0.8264 0.2124 0.10341 0.0
C530 C 0.52777 1.00161 0.16744 0.0
C531 C 0.53613 0.99098 1.02839 0.0
C532 C 0.36717 1.0353 1.08437 0.0
C533 C 0.32369 0.98764 1.08429 0.0
C534 C 0.27255 0.98967 0.10483 0.0
C535 C 0.33133 0.94153 1.05982 0.0
C536 C 0.23482 0.90336 1.06587 0.0
C537 C 0.28725 0.89965 1.05072 0.0
C538 C 0.22833 0.9477 1.09589 0.0
C539 C 0.52912 0.15331 1.02882 0.0
O540 O 0.56879 0.15715 0.15177 0.0
O541 O 0.47677 0.12726 0.1564 0.0
O542 O 0.65964 0.10693 0.15566 0.0
O543 O 0.66297 0.11115 1.06219 0.0
O544 O 0.57646 1.0072 0.14826 0.0
O545 O 0.51396 1.04393 0.15944 0.0
O546 O 0.48879 0.99488 1.04825 0.0
O547 O 0.58004 1.02731 1.03816 0.0
O548 O 0.39824 1.04479 1.03832 0.0
O549 O 0.39335 1.04616 0.132 0.0
O550 O 0.48036 0.14719 1.04774 0.0
O551 O 0.54291 0.11084 1.03598 0.0
H552 H 0.79256 0.13492 1.07254 0.0
H553 H 0.68094 0.21354 0.15136 0.0
H554 H 0.75445 0.28849 0.17182 0.0
H555 H 0.86696 0.21071 1.09164 0.0
H556 H 0.26628 1.02491 0.12469 0.0
H557 H 0.37078 0.93906 1.04456 0.0
H558 H 0.29402 0.86642 1.02702 0.0
H559 H 0.18866 0.95153 0.10855 0.0
Gd560 Gd 0.51497 0.53397 0.57357 0.0
Gd561 Gd 0.53533 0.63019 0.63471 0.0
C562 C 0.57454 0.53985 0.69894 0.0
C563 C 0.53111 0.45421 0.51812 0.0
C564 C 0.58028 0.43576 0.51121 0.0
C565 C 0.59309 0.41706 0.45785 0.0
C566 C 0.61851 0.4444 0.55452 0.0
C567 C 0.68262 0.41745 0.49051 0.0
C568 C 0.6692 0.43556 0.54423 0.0
C569 C 0.64353 0.40735 0.44773 0.0
C570 C 0.42524 0.54366 0.63338 0.0
C571 C 0.47492 0.62368 0.50963 0.0
C572 C 0.52053 0.71092 0.68925 0.0
C573 C 0.47235 0.73115 0.69494 0.0
C574 C 0.45741 0.74689 0.7489 0.0
C575 C 0.43678 0.7271 0.64943 0.0
C576 C 0.3706 0.75182 0.71265 0.0
C577 C 0.38631 0.73699 0.65824 0.0
C578 C 0.40738 0.75784 0.75756 0.0
C579 C 0.62477 0.62025 0.57468 0.0
O580 O 0.55993 0.51324 0.65112 0.0
O581 O 0.56835 0.58778 0.70397 0.0
O582 O 0.50854 0.45058 0.56921 0.0
O583 O 0.53436 0.49925 0.49432 0.0
O584 O 0.42544 0.52174 0.58341 0.0
O585 O 0.47303 0.55711 0.65058 0.0
O586 O 0.48946 0.65037 0.55746 0.0
O587 O 0.48143 0.57591 0.50452 0.0
O588 O 0.54416 0.71396 0.63874 0.0
O589 O 0.51531 0.66561 0.71324 0.0
O590 O 0.62479 0.6417 0.62488 0.0
O591 O 0.57692 0.60719 0.55762 0.0
H592 H 0.56454 0.4113 0.42351 0.0
H593 H 0.6101 0.45963 0.59578 0.0
H594 H 0.69828 0.44434 0.57799 0.0
H595 H 0.65189 0.39221 0.40621 0.0
H596 H 0.48392 0.74932 0.78478 0.0
H597 H 0.44698 0.71454 0.60744 0.0
H598 H 0.35914 0.73144 0.62272 0.0
H599 H 0.39752 0.77062 0.79971 0.0
Gd600 Gd 0.02449 0.53702 0.13997 0.0
Gd601 Gd 1.02328 0.62457 1.06933 0.0
C602 C 0.12965 0.63683 0.14097 0.0
C603 C 0.05495 0.46132 0.1872 0.0
C604 C 0.10877 0.45359 0.19848 0.0
C605 C 0.11707 0.42719 0.24784 0.0
C606 C 0.15237 0.4729 0.16045 0.0
C607 C 0.21149 0.43815 0.22032 0.0
C608 C 0.20315 0.46499 0.1711 0.0
C609 C 0.16792 0.41962 0.25874 0.0
C610 C 0.97405 0.60444 0.19525 0.0
C611 C 0.91872 0.52412 1.06706 0.0
C612 C 0.98911 0.6984 1.02317 0.0
C613 C 0.93424 0.70123 1.00707 0.0
C614 C 0.92229 0.70555 0.94927 0.0
C615 C 0.89284 0.69789 1.04872 0.0
C616 C 0.82893 0.70316 0.9749 0.0
C617 C 0.8409 0.69913 1.03281 0.0
C618 C 0.8703 0.70628 0.93336 0.0
C619 C 0.0741 0.55759 1.01402 0.0
O620 O 0.1105 0.58639 0.15025 0.0
O621 O 0.10122 0.66286 0.11191 0.0
O622 O 0.04066 0.49794 0.21681 0.0
O623 O 0.04243 0.4615 0.13334 0.0
O624 O 0.95742 0.55385 0.19675 0.0
O625 O 1.01667 0.61664 0.16425 0.0
O626 O 0.93818 0.57424 1.0565 0.0
O627 O 0.94651 0.49871 1.09773 0.0
O628 O 1.01088 0.66672 0.99317 0.0
O629 O 0.99779 0.6964 1.0779 0.0
O630 O 0.09033 0.60825 1.01238 0.0
O631 O 0.03139 0.545 1.04499 0.0
H632 H 0.08412 0.41216 0.2778 0.0
H633 H 0.14716 0.49395 0.12228 0.0
H634 H 0.23594 0.48009 0.14101 0.0
H635 H 0.17287 0.39823 0.29672 0.0
H636 H 0.95322 0.70825 0.91628 0.0
H637 H 0.90034 0.69407 1.09372 0.0
H638 H 0.80999 0.69639 1.06581 0.0
H639 H 0.86273 0.71032 0.88841 0.0
loop_
_geom_bond_atom_site_label_1
_geom_bond_atom_site_label_2
_geom_bond_distance
_geom_bond_site_symmetry_2
_ccdc_geom_bond_type
C0 C1 1.391 . S
C0 C4 1.391 . S
C0 H42 0.948 . S
C1 C0 1.391 . S
C1 C2 1.391 . S
C2 C1 1.391 . S
C2 H58 0.947 . S
C2 C59 1.392 . S
C3 C4 1.391 . S
C3 C7 1.397 . S
C3 C59 1.419 . S
C4 C0 1.391 . S
C4 C3 1.391 . S
C4 C5 1.399 . S
C5 C4 1.399 . S
C5 C8 1.396 . S
C5 C17 1.453 . S
C5 C18 1.684 . S
H6 C30 0.948 . S
C7 C3 1.397 . S
C7 C8 1.394 . S
C7 C26 1.723 . S
C8 C5 1.396 . S
C8 C7 1.394 . S
C8 C38 1.723 . S
H9 C32 0.947 . S
H10 C33 0.948 . S
H11 C39 0.982 . S
H12 C40 0.979 . S
H13 C40 0.980 . S
H14 C40 0.983 . S
H15 C39 0.979 . S
H16 C39 0.977 . S
C17 C5 1.453 . S
C17 H46 0.982 . S
C17 H47 0.979 . S
C17 H48 0.977 . S
C18 C5 1.684 . S
C18 H43 0.979 . S
C18 H44 0.980 . S
C18 H45 0.983 . S
C19 C20 1.391 . S
C19 C24 1.391 . S
C19 H49 0.948 . S
C20 C19 1.391 . S
C20 C21 1.391 . S
C21 C20 1.391 . S
C21 C22 1.392 . S
C21 H50 0.947 . S
C22 C21 1.392 . S
C22 C23 1.419 . S
C22 H51 0.948 . S
C23 C22 1.419 . S
C23 C24 1.391 . S
C23 C27 1.397 . S
C24 C19 1.391 . S
C24 C23 1.391 . S
C24 C25 1.399 . S
C25 C24 1.399 . S
C25 C26 1.396 . S
C25 C28 1.453 . S
C25 C29 1.684 . S
C26 C7 1.723 . S
C26 C25 1.396 . S
C26 C27 1.394 . S
C27 C23 1.397 . S
C27 C26 1.394 . S
C27 C37 1.723 . S
C28 C25 1.453 . S
C28 H52 0.982 . S
C28 H53 0.979 . S
C28 H54 0.977 . S
C29 C25 1.684 . S
C29 H55 0.979 . S
C29 H56 0.980 . S
C29 H57 0.983 . S
C30 H6 0.948 . S
C30 C31 1.391 . S
C30 C35 1.391 . S
C31 C30 1.391 . S
C31 C32 1.391 . S
C32 H9 0.947 . S
C32 C31 1.391 . S
C32 C33 1.392 . S
C33 H10 0.948 . S
C33 C32 1.392 . S
C33 C34 1.419 . S
C34 C33 1.419 . S
C34 C35 1.391 . S
C34 C38 1.397 . S
C35 C30 1.391 . S
C35 C34 1.391 . S
C35 C36 1.399 . S
C36 C35 1.399 . S
C36 C37 1.396 . S
C36 C39 1.453 . S
C36 C40 1.684 . S
C37 C27 1.723 . S
C37 C36 1.396 . S
C37 C38 1.394 . S
C38 C8 1.723 . S
C38 C34 1.397 . S
C38 C37 1.394 . S
C39 H11 0.982 . S
C39 H15 0.979 . S
C39 H16 0.977 . S
C39 C36 1.453 . S
C40 H12 0.979 . S
C40 H13 0.980 . S
C40 H14 0.983 . S
C40 C36 1.684 . S
H41 C59 0.948 . S
H42 C0 0.948 . S
H43 C18 0.979 . S
H44 C18 0.980 . S
H45 C18 0.983 . S
H46 C17 0.982 . S
H47 C17 0.979 . S
H48 C17 0.977 . S
H49 C19 0.948 . S
H50 C21 0.947 . S
H51 C22 0.948 . S
H52 C28 0.982 . S
H53 C28 0.979 . S
H54 C28 0.977 . S
H55 C29 0.979 . S
H56 C29 0.980 . S
H57 C29 0.983 . S
H58 C2 0.947 . S
C59 C2 1.392 . S
C59 C3 1.419 . S
C59 H41 0.948 . S
C60 C61 1.391 . S
C60 C64 1.391 . S
C60 H102 0.948 . S
C61 C60 1.391 . S
C61 C62 1.391 . S
C62 C61 1.391 . S
C62 H118 0.947 . S
C62 C119 1.392 . S
C63 C64 1.391 . S
C63 C67 1.397 . S
C63 C119 1.419 . S
C64 C60 1.391 . S
C64 C63 1.391 . S
C64 C65 1.399 . S
C65 C64 1.399 . S
C65 C68 1.396 . S
C65 C77 1.453 . S
C65 C78 1.684 . S
H66 C90 0.948 . S
C67 C63 1.397 . S
C67 C68 1.394 . S
C67 C86 1.723 . S
C68 C65 1.396 . S
C68 C67 1.394 . S
C68 C98 1.723 . S
H69 C92 0.947 . S
H70 C93 0.948 . S
H71 C99 0.982 . S
H72 C100 0.979 . S
H73 C100 0.980 . S
H74 C100 0.983 . S
H75 C99 0.979 . S
H76 C99 0.977 . S
C77 C65 1.453 . S
C77 H106 0.982 . S
C77 H107 0.979 . S
C77 H108 0.977 . S
C78 C65 1.684 . S
C78 H103 0.979 . S
C78 H104 0.980 . S
C78 H105 0.983 . S
C79 C80 1.391 . S
C79 C84 1.391 . S
C79 H109 0.948 . S
C80 C79 1.391 . S
C80 C81 1.391 . S
C81 C80 1.391 . S
C81 C82 1.392 . S
C81 H110 0.947 . S
C82 C81 1.392 . S
C82 C83 1.419 . S
C82 H111 0.948 . S
C83 C82 1.419 . S
C83 C84 1.391 . S
C83 C87 1.397 . S
C84 C79 1.391 . S
C84 C83 1.391 . S
C84 C85 1.399 . S
C85 C84 1.399 . S
C85 C86 1.396 . S
C85 C88 1.453 . S
C85 C89 1.684 . S
C86 C67 1.723 . S
C86 C85 1.396 . S
C86 C87 1.394 . S
C87 C83 1.397 . S
C87 C86 1.394 . S
C87 C97 1.723 . S
C88 C85 1.453 . S
C88 H112 0.982 . S
C88 H113 0.979 . S
C88 H114 0.977 . S
C89 C85 1.684 . S
C89 H115 0.979 . S
C89 H116 0.980 . S
C89 H117 0.983 . S
C90 H66 0.948 . S
C90 C91 1.391 . S
C90 C95 1.391 . S
C91 C90 1.391 . S
C91 C92 1.391 . S
C92 H69 0.947 . S
C92 C91 1.391 . S
C92 C93 1.392 . S
C93 H70 0.948 . S
C93 C92 1.392 . S
C93 C94 1.419 . S
C94 C93 1.419 . S
C94 C95 1.391 . S
C94 C98 1.397 . S
C95 C90 1.391 . S
C95 C94 1.391 . S
C95 C96 1.399 . S
C96 C95 1.399 . S
C96 C97 1.396 . S
C96 C99 1.453 . S
C96 C100 1.684 . S
C97 C87 1.723 . S
C97 C96 1.396 . S
C97 C98 1.394 . S
C98 C68 1.723 . S
C98 C94 1.397 . S
C98 C97 1.394 . S
C99 H71 0.982 . S
C99 H75 0.979 . S
C99 H76 0.977 . S
C99 C96 1.453 . S
C100 H72 0.979 . S
C100 H73 0.980 . S
C100 H74 0.983 . S
C100 C96 1.684 . S
H101 C119 0.948 . S
H102 C60 0.948 . S
H103 C78 0.979 . S
H104 C78 0.980 . S
H105 C78 0.983 . S
H106 C77 0.982 . S
H107 C77 0.979 . S
H108 C77 0.977 . S
H109 C79 0.948 . S
H110 C81 0.947 . S
H111 C82 0.948 . S
H112 C88 0.982 . S
H113 C88 0.979 . S
H114 C88 0.977 . S
H115 C89 0.979 . S
H116 C89 0.980 . S
H117 C89 0.983 . S
H118 C62 0.947 . S
C119 C62 1.392 . S
C119 C63 1.419 . S
C119 H101 0.948 . S
C120 C121 1.391 . S
C120 C124 1.391 . S
C120 H162 0.948 . S
C121 C120 1.391 . S
C121 C122 1.391 . S
C122 C121 1.391 . S
C122 H178 0.947 . S
C122 C179 1.392 . S
C123 C124 1.391 . S
C123 C127 1.397 . S
C123 C179 1.419 . S
C124 C120 1.391 . S
C124 C123 1.391 . S
C124 C125 1.399 . S
C125 C124 1.399 . S
C125 C128 1.396 . S
C125 C137 1.453 . S
C125 C138 1.684 . S
H126 C150 0.948 . S
C127 C123 1.397 . S
C127 C128 1.394 . S
C127 C146 1.723 . S
C128 C125 1.396 . S
C128 C127 1.394 . S
C128 C158 1.723 . S
H129 C152 0.947 . S
H130 C153 0.948 . S
H131 C159 0.982 . S
H132 C160 0.979 . S
H133 C160 0.980 . S
H134 C160 0.983 . S
H135 C159 0.979 . S
H136 C159 0.977 . S
C137 C125 1.453 . S
C137 H166 0.982 . S
C137 H167 0.979 . S
C137 H168 0.977 . S
C138 C125 1.684 . S
C138 H163 0.979 . S
C138 H164 0.980 . S
C138 H165 0.983 . S
C139 C140 1.391 . S
C139 C144 1.391 . S
C139 H169 0.948 . S
C140 C139 1.391 . S
C140 C141 1.391 . S
C141 C140 1.391 . S
C141 C142 1.392 . S
C141 H170 0.947 . S
C142 C141 1.392 . S
C142 C143 1.419 . S
C142 H171 0.948 . S
C143 C142 1.419 . S
C143 C144 1.391 . S
C143 C147 1.397 . S
C144 C139 1.391 . S
C144 C143 1.391 . S
C144 C145 1.399 . S
C145 C144 1.399 . S
C145 C146 1.396 . S
C145 C148 1.453 . S
C145 C149 1.684 . S
C146 C127 1.723 . S
C146 C145 1.396 . S
C146 C147 1.394 . S
C147 C143 1.397 . S
C147 C146 1.394 . S
C147 C157 1.723 . S
C148 C145 1.453 . S
C148 H172 0.982 . S
C148 H173 0.979 . S
C148 H174 0.977 . S
C149 C145 1.684 . S
C149 H175 0.979 . S
C149 H176 0.980 . S
C149 H177 0.983 . S
C150 H126 0.948 . S
C150 C151 1.391 . S
C150 C155 1.391 . S
C151 C150 1.391 . S
C151 C152 1.391 . S
C152 H129 0.947 . S
C152 C151 1.391 . S
C152 C153 1.392 . S
C153 H130 0.948 . S
C153 C152 1.392 . S
C153 C154 1.419 . S
C154 C153 1.419 . S
C154 C155 1.391 . S
C154 C158 1.397 . S
C155 C150 1.391 . S
C155 C154 1.391 . S
C155 C156 1.399 . S
C156 C155 1.399 . S
C156 C157 1.396 . S
C156 C159 1.453 . S
C156 C160 1.684 . S
C157 C147 1.723 . S
C157 C156 1.396 . S
C157 C158 1.394 . S
C158 C128 1.723 . S
C158 C154 1.397 . S
C158 C157 1.394 . S
C159 H131 0.982 . S
C159 H135 0.979 . S
C159 H136 0.977 . S
C159 C156 1.453 . S
C160 H132 0.979 . S
C160 H133 0.980 . S
C160 H134 0.983 . S
C160 C156 1.684 . S
H161 C179 0.948 . S
H162 C120 0.948 . S
H163 C138 0.979 . S
H164 C138 0.980 . S
H165 C138 0.983 . S
H166 C137 0.982 . S
H167 C137 0.979 . S
H168 C137 0.977 . S
H169 C139 0.948 . S
H170 C141 0.947 . S
H171 C142 0.948 . S
H172 C148 0.982 . S
H173 C148 0.979 . S
H174 C148 0.977 . S
H175 C149 0.979 . S
H176 C149 0.980 . S
H177 C149 0.983 . S
H178 C122 0.947 . S
C179 C122 1.392 . S
C179 C123 1.419 . S
C179 H161 0.948 . S
C180 C181 1.391 . S
C180 C184 1.391 . S
C180 H222 0.948 . S
C181 C180 1.391 . S
C181 C182 1.391 . S
C182 C181 1.391 . S
C182 H238 0.947 . S
C182 C239 1.392 . S
C183 C184 1.391 . S
C183 C187 1.397 . S
C183 C239 1.419 . S
C184 C180 1.391 . S
C184 C183 1.391 . S
C184 C185 1.399 . S
C185 C184 1.399 . S
C185 C188 1.396 . S
C185 C197 1.453 . S
C185 C198 1.684 . S
H186 C210 0.948 . S
C187 C183 1.397 . S
C187 C188 1.394 . S
C187 C206 1.723 . S
C188 C185 1.396 . S
C188 C187 1.394 . S
C188 C218 1.723 . S
H189 C212 0.947 . S
H190 C213 0.948 . S
H191 C219 0.982 . S
H192 C220 0.979 . S
H193 C220 0.980 . S
H194 C220 0.983 . S
H195 C219 0.979 . S
H196 C219 0.977 . S
C197 C185 1.453 . S
C197 H226 0.982 . S
C197 H227 0.979 . S
C197 H228 0.977 . S
C198 C185 1.684 . S
C198 H223 0.979 . S
C198 H224 0.980 . S
C198 H225 0.983 . S
C199 C200 1.391 . S
C199 C204 1.391 . S
C199 H229 0.948 . S
C200 C199 1.391 . S
C200 C201 1.391 . S
C201 C200 1.391 . S
C201 C202 1.392 . S
C201 H230 0.947 . S
C202 C201 1.392 . S
C202 C203 1.419 . S
C202 H231 0.948 . S
C203 C202 1.419 . S
C203 C204 1.391 . S
C203 C207 1.397 . S
C204 C199 1.391 . S
C204 C203 1.391 . S
C204 C205 1.399 . S
C205 C204 1.399 . S
C205 C206 1.396 . S
C205 C208 1.453 . S
C205 C209 1.684 . S
C206 C187 1.723 . S
C206 C205 1.396 . S
C206 C207 1.394 . S
C207 C203 1.397 . S
C207 C206 1.394 . S
C207 C217 1.723 . S
C208 C205 1.453 . S
C208 H232 0.982 . S
C208 H233 0.979 . S
C208 H234 0.977 . S
C209 C205 1.684 . S
C209 H235 0.979 . S
C209 H236 0.980 . S
C209 H237 0.983 . S
C210 H186 0.948 . S
C210 C211 1.391 . S
C210 C215 1.391 . S
C211 C210 1.391 . S
C211 C212 1.391 . S
C212 H189 0.947 . S
C212 C211 1.391 . S
C212 C213 1.392 . S
C213 H190 0.948 . S
C213 C212 1.392 . S
C213 C214 1.419 . S
C214 C213 1.419 . S
C214 C215 1.391 . S
C214 C218 1.397 . S
C215 C210 1.391 . S
C215 C214 1.391 . S
C215 C216 1.399 . S
C216 C215 1.399 . S
C216 C217 1.396 . S
C216 C219 1.453 . S
C216 C220 1.684 . S
C217 C207 1.723 . S
C217 C216 1.396 . S
C217 C218 1.394 . S
C218 C188 1.723 . S
C218 C214 1.397 . S
C218 C217 1.394 . S
C219 H191 0.982 . S
C219 H195 0.979 . S
C219 H196 0.977 . S
C219 C216 1.453 . S
C220 H192 0.979 . S
C220 H193 0.980 . S
C220 H194 0.983 . S
C220 C216 1.684 . S
H221 C239 0.948 . S
H222 C180 0.948 . S
H223 C198 0.979 . S
H224 C198 0.980 . S
H225 C198 0.983 . S
H226 C197 0.982 . S
H227 C197 0.979 . S
H228 C197 0.977 . S
H229 C199 0.948 . S
H230 C201 0.947 . S
H231 C202 0.948 . S
H232 C208 0.982 . S
H233 C208 0.979 . S
H234 C208 0.977 . S
H235 C209 0.979 . S
H236 C209 0.980 . S
H237 C209 0.983 . S
H238 C182 0.947 . S
C239 C182 1.392 . S
C239 C183 1.419 . S
C239 H221 0.948 . S
C240 C241 1.391 . S
C240 C244 1.391 . S
C240 H282 0.948 . S
C241 C240 1.391 . S
C241 C242 1.391 . S
C242 C241 1.391 . S
C242 H298 0.947 . S
C242 C299 1.392 . S
C243 C244 1.391 . S
C243 C247 1.397 . S
C243 C299 1.419 . S
C244 C240 1.391 . S
C244 C243 1.391 . S
C244 C245 1.399 . S
C245 C244 1.399 . S
C245 C248 1.396 . S
C245 C257 1.453 . S
C245 C258 1.684 . S
H246 C270 0.948 . S
C247 C243 1.397 . S
C247 C248 1.394 . S
C247 C266 1.723 . S
C248 C245 1.396 . S
C248 C247 1.394 . S
C248 C278 1.723 . S
H249 C272 0.947 . S
H250 C273 0.948 . S
H251 C279 0.982 . S
H252 C280 0.979 . S
H253 C280 0.980 . S
H254 C280 0.983 . S
H255 C279 0.979 . S
H256 C279 0.977 . S
C257 C245 1.453 . S
C257 H286 0.982 . S
C257 H287 0.979 . S
C257 H288 0.977 . S
C258 C245 1.684 . S
C258 H283 0.979 . S
C258 H284 0.980 . S
C258 H285 0.983 . S
C259 C260 1.391 . S
C259 C264 1.391 . S
C259 H289 0.948 . S
C260 C259 1.391 . S
C260 C261 1.391 . S
C261 C260 1.391 . S
C261 C262 1.392 . S
C261 H290 0.947 . S
C262 C261 1.392 . S
C262 C263 1.419 . S
C262 H291 0.948 . S
C263 C262 1.419 . S
C263 C264 1.391 . S
C263 C267 1.397 . S
C264 C259 1.391 . S
C264 C263 1.391 . S
C264 C265 1.399 . S
C265 C264 1.399 . S
C265 C266 1.396 . S
C265 C268 1.453 . S
C265 C269 1.684 . S
C266 C247 1.723 . S
C266 C265 1.396 . S
C266 C267 1.394 . S
C267 C263 1.397 . S
C267 C266 1.394 . S
C267 C277 1.723 . S
C268 C265 1.453 . S
C268 H292 0.982 . S
C268 H293 0.979 . S
C268 H294 0.977 . S
C269 C265 1.684 . S
C269 H295 0.979 . S
C269 H296 0.980 . S
C269 H297 0.983 . S
C270 H246 0.948 . S
C270 C271 1.391 . S
C270 C275 1.391 . S
C271 C270 1.391 . S
C271 C272 1.391 . S
C272 H249 0.947 . S
C272 C271 1.391 . S
C272 C273 1.392 . S
C273 H250 0.948 . S
C273 C272 1.392 . S
C273 C274 1.419 . S
C274 C273 1.419 . S
C274 C275 1.391 . S
C274 C278 1.397 . S
C275 C270 1.391 . S
C275 C274 1.391 . S
C275 C276 1.399 . S
C276 C275 1.399 . S
C276 C277 1.396 . S
C276 C279 1.453 . S
C276 C280 1.684 . S
C277 C267 1.723 . S
C277 C276 1.396 . S
C277 C278 1.394 . S
C278 C248 1.723 . S
C278 C274 1.397 . S
C278 C277 1.394 . S
C279 H251 0.982 . S
C279 H255 0.979 . S
C279 H256 0.977 . S
C279 C276 1.453 . S
C280 H252 0.979 . S
C280 H253 0.980 . S
C280 H254 0.983 . S
C280 C276 1.684 . S
H281 C299 0.948 . S
H282 C240 0.948 . S
H283 C258 0.979 . S
H284 C258 0.980 . S
H285 C258 0.983 . S
H286 C257 0.982 . S
H287 C257 0.979 . S
H288 C257 0.977 . S
H289 C259 0.948 . S
H290 C261 0.947 . S
H291 C262 0.948 . S
H292 C268 0.982 . S
H293 C268 0.979 . S
H294 C268 0.977 . S
H295 C269 0.979 . S
H296 C269 0.980 . S
H297 C269 0.983 . S
H298 C242 0.947 . S
C299 C242 1.392 . S
C299 C243 1.419 . S
C299 H281 0.948 . S
C300 C301 1.391 . S
C300 C304 1.391 . S
C300 H342 0.948 . S
C301 C300 1.391 . S
C301 C302 1.391 . S
C302 C301 1.391 . S
C302 H358 0.947 . S
C302 C359 1.392 . S
C303 C304 1.391 . S
C303 C307 1.397 . S
C303 C359 1.419 . S
C304 C300 1.391 . S
C304 C303 1.391 . S
C304 C305 1.399 . S
C305 C304 1.399 . S
C305 C308 1.396 . S
C305 C317 1.453 . S
C305 C318 1.684 . S
H306 C330 0.948 . S
C307 C303 1.397 . S
C307 C308 1.394 . S
C307 C326 1.723 . S
C308 C305 1.396 . S
C308 C307 1.394 . S
C308 C338 1.723 . S
H309 C332 0.947 . S
H310 C333 0.948 . S
H311 C339 0.982 . S
H312 C340 0.979 . S
H313 C340 0.980 . S
H314 C340 0.983 . S
H315 C339 0.979 . S
H316 C339 0.977 . S
C317 C305 1.453 . S
C317 H346 0.982 . S
C317 H347 0.979 . S
C317 H348 0.977 . S
C318 C305 1.684 . S
C318 H343 0.979 . S
C318 H344 0.980 . S
C318 H345 0.983 . S
C319 C320 1.391 . S
C319 C324 1.391 . S
C319 H349 0.948 . S
C320 C319 1.391 . S
C320 C321 1.391 . S
C321 C320 1.391 . S
C321 C322 1.392 . S
C321 H350 0.947 . S
C322 C321 1.392 . S
C322 C323 1.419 . S
C322 H351 0.948 . S
C323 C322 1.419 . S
C323 C324 1.391 . S
C323 C327 1.397 . S
C324 C319 1.391 . S
C324 C323 1.391 . S
C324 C325 1.399 . S
C325 C324 1.399 . S
C325 C326 1.396 . S
C325 C328 1.453 . S
C325 C329 1.684 . S
C326 C307 1.723 . S
C326 C325 1.396 . S
C326 C327 1.394 . S
C327 C323 1.397 . S
C327 C326 1.394 . S
C327 C337 1.723 . S
C328 C325 1.453 . S
C328 H352 0.982 . S
C328 H353 0.979 . S
C328 H354 0.977 . S
C329 C325 1.684 . S
C329 H355 0.979 . S
C329 H356 0.980 . S
C329 H357 0.983 . S
C330 H306 0.948 . S
C330 C331 1.391 . S
C330 C335 1.391 . S
C331 C330 1.391 . S
C331 C332 1.391 . S
C332 H309 0.947 . S
C332 C331 1.391 . S
C332 C333 1.392 . S
C333 H310 0.948 . S
C333 C332 1.392 . S
C333 C334 1.419 . S
C334 C333 1.419 . S
C334 C335 1.391 . S
C334 C338 1.397 . S
C335 C330 1.391 . S
C335 C334 1.391 . S
C335 C336 1.399 . S
C336 C335 1.399 . S
C336 C337 1.396 . S
C336 C339 1.453 . S
C336 C340 1.684 . S
C337 C327 1.723 . S
C337 C336 1.396 . S
C337 C338 1.394 . S
C338 C308 1.723 . S
C338 C334 1.397 . S
C338 C337 1.394 . S
C339 H311 0.982 . S
C339 H315 0.979 . S
C339 H316 0.977 . S
C339 C336 1.453 . S
C340 H312 0.979 . S
C340 H313 0.980 . S
C340 H314 0.983 . S
C340 C336 1.684 . S
H341 C359 0.948 . S
H342 C300 0.948 . S
H343 C318 0.979 . S
H344 C318 0.980 . S
H345 C318 0.983 . S
H346 C317 0.982 . S
H347 C317 0.979 . S
H348 C317 0.977 . S
H349 C319 0.948 . S
H350 C321 0.947 . S
H351 C322 0.948 . S
H352 C328 0.982 . S
H353 C328 0.979 . S
H354 C328 0.977 . S
H355 C329 0.979 . S
H356 C329 0.980 . S
H357 C329 0.983 . S
H358 C302 0.947 . S
C359 C302 1.392 . S
C359 C303 1.419 . S
C359 H341 0.948 . S
C360 C361 1.391 . S
C360 C364 1.391 . S
C360 H402 0.948 . S
C361 C360 1.391 . S
C361 C362 1.391 . S
C362 C361 1.391 . S
C362 H418 0.947 . S
C362 C419 1.392 . S
C363 C364 1.391 . S
C363 C367 1.397 . S
C363 C419 1.419 . S
C364 C360 1.391 . S
C364 C363 1.391 . S
C364 C365 1.399 . S
C365 C364 1.399 . S
C365 C368 1.396 . S
C365 C377 1.453 . S
C365 C378 1.684 . S
H366 C390 0.948 . S
C367 C363 1.397 . S
C367 C368 1.394 . S
C367 C386 1.723 . S
C368 C365 1.396 . S
C368 C367 1.394 . S
C368 C398 1.723 . S
H369 C392 0.947 . S
H370 C393 0.948 . S
H371 C399 0.982 . S
H372 C400 0.979 . S
H373 C400 0.980 . S
H374 C400 0.983 . S
H375 C399 0.979 . S
H376 C399 0.977 . S
C377 C365 1.453 . S
C377 H406 0.982 . S
C377 H407 0.979 . S
C377 H408 0.977 . S
C378 C365 1.684 . S
C378 H403 0.979 . S
C378 H404 0.980 . S
C378 H405 0.983 . S
C379 C380 1.391 . S
C379 C384 1.391 . S
C379 H409 0.948 . S
C380 C379 1.391 . S
C380 C381 1.391 . S
C381 C380 1.391 . S
C381 C382 1.392 . S
C381 H410 0.947 . S
C382 C381 1.392 . S
C382 C383 1.419 . S
C382 H411 0.948 . S
C383 C382 1.419 . S
C383 C384 1.391 . S
C383 C387 1.397 . S
C384 C379 1.391 . S
C384 C383 1.391 . S
C384 C385 1.399 . S
C385 C384 1.399 . S
C385 C386 1.396 . S
C385 C388 1.453 . S
C385 C389 1.684 . S
C386 C367 1.723 . S
C386 C385 1.396 . S
C386 C387 1.394 . S
C387 C383 1.397 . S
C387 C386 1.394 . S
C387 C397 1.723 . S
C388 C385 1.453 . S
C388 H412 0.982 . S
C388 H413 0.979 . S
C388 H414 0.977 . S
C389 C385 1.684 . S
C389 H415 0.979 . S
C389 H416 0.980 . S
C389 H417 0.983 . S
C390 H366 0.948 . S
C390 C391 1.391 . S
C390 C395 1.391 . S
C391 C390 1.391 . S
C391 C392 1.391 . S
C392 H369 0.947 . S
C392 C391 1.391 . S
C392 C393 1.392 . S
C393 H370 0.948 . S
C393 C392 1.392 . S
C393 C394 1.419 . S
C394 C393 1.419 . S
C394 C395 1.391 . S
C394 C398 1.397 . S
C395 C390 1.391 . S
C395 C394 1.391 . S
C395 C396 1.399 . S
C396 C395 1.399 . S
C396 C397 1.396 . S
C396 C399 1.453 . S
C396 C400 1.684 . S
C397 C387 1.723 . S
C397 C396 1.396 . S
C397 C398 1.394 . S
C398 C368 1.723 . S
C398 C394 1.397 . S
C398 C397 1.394 . S
C399 H371 0.982 . S
C399 H375 0.979 . S
C399 H376 0.977 . S
C399 C396 1.453 . S
C400 H372 0.979 . S
C400 H373 0.980 . S
C400 H374 0.983 . S
C400 C396 1.684 . S
H401 C419 0.948 . S
H402 C360 0.948 . S
H403 C378 0.979 . S
H404 C378 0.980 . S
H405 C378 0.983 . S
H406 C377 0.982 . S
H407 C377 0.979 . S
H408 C377 0.977 . S
H409 C379 0.948 . S
H410 C381 0.947 . S
H411 C382 0.948 . S
H412 C388 0.982 . S
H413 C388 0.979 . S
H414 C388 0.977 . S
H415 C389 0.979 . S
H416 C389 0.980 . S
H417 C389 0.983 . S
H418 C362 0.947 . S
C419 C362 1.392 . S
C419 C363 1.419 . S
C419 H401 0.948 . S
C420 C421 1.391 . S
C420 C424 1.391 . S
C420 H462 0.948 . S
C421 C420 1.391 . S
C421 C422 1.391 . S
C422 C421 1.391 . S
C422 H478 0.947 . S
C422 C479 1.392 . S
C423 C424 1.391 . S
C423 C427 1.397 . S
C423 C479 1.419 . S
C424 C420 1.391 . S
C424 C423 1.391 . S
C424 C425 1.399 . S
C425 C424 1.399 . S
C425 C428 1.396 . S
C425 C437 1.453 . S
C425 C438 1.684 . S
H426 C450 0.948 . S
C427 C423 1.397 . S
C427 C428 1.394 . S
C427 C446 1.723 . S
C428 C425 1.396 . S
C428 C427 1.394 . S
C428 C458 1.723 . S
H429 C452 0.947 . S
H430 C453 0.948 . S
H431 C459 0.982 . S
H432 C460 0.979 . S
H433 C460 0.980 . S
H434 C460 0.983 . S
H435 C459 0.979 . S
H436 C459 0.977 . S
C437 C425 1.453 . S
C437 H466 0.982 . S
C437 H467 0.979 . S
C437 H468 0.977 . S
C438 C425 1.684 . S
C438 H463 0.979 . S
C438 H464 0.980 . S
C438 H465 0.983 . S
C439 C440 1.391 . S
C439 C444 1.391 . S
C439 H469 0.948 . S
C440 C439 1.391 . S
C440 C441 1.391 . S
C441 C440 1.391 . S
C441 C442 1.392 . S
C441 H470 0.947 . S
C442 C441 1.392 . S
C442 C443 1.419 . S
C442 H471 0.948 . S
C443 C442 1.419 . S
C443 C444 1.391 . S
C443 C447 1.397 . S
C444 C439 1.391 . S
C444 C443 1.391 . S
C444 C445 1.399 . S
C445 C444 1.399 . S
C445 C446 1.396 . S
C445 C448 1.453 . S
C445 C449 1.684 . S
C446 C427 1.723 . S
C446 C445 1.396 . S
C446 C447 1.394 . S
C447 C443 1.397 . S
C447 C446 1.394 . S
C447 C457 1.723 . S
C448 C445 1.453 . S
C448 H472 0.982 . S
C448 H473 0.979 . S
C448 H474 0.977 . S
C449 C445 1.684 . S
C449 H475 0.979 . S
C449 H476 0.980 . S
C449 H477 0.983 . S
C450 H426 0.948 . S
C450 C451 1.391 . S
C450 C455 1.391 . S
C451 C450 1.391 . S
C451 C452 1.391 . S
C452 H429 0.947 . S
C452 C451 1.391 . S
C452 C453 1.392 . S
C453 H430 0.948 . S
C453 C452 1.392 . S
C453 C454 1.419 . S
C454 C453 1.419 . S
C454 C455 1.391 . S
C454 C458 1.397 . S
C455 C450 1.391 . S
C455 C454 1.391 . S
C455 C456 1.399 . S
C456 C455 1.399 . S
C456 C457 1.396 . S
C456 C459 1.453 . S
C456 C460 1.684 . S
C457 C447 1.723 . S
C457 C456 1.396 . S
C457 C458 1.394 . S
C458 C428 1.723 . S
C458 C454 1.397 . S
C458 C457 1.394 . S
C459 H431 0.982 . S
C459 H435 0.979 . S
C459 H436 0.977 . S
C459 C456 1.453 . S
C460 H432 0.979 . S
C460 H433 0.980 . S
C460 H434 0.983 . S
C460 C456 1.684 . S
H461 C479 0.948 . S
H462 C420 0.948 . S
H463 C438 0.979 . S
H464 C438 0.980 . S
H465 C438 0.983 . S
H466 C437 0.982 . S
H467 C437 0.979 . S
H468 C437 0.977 . S
H469 C439 0.948 . S
H470 C441 0.947 . S
H471 C442 0.948 . S
H472 C448 0.982 . S
H473 C448 0.979 . S
H474 C448 0.977 . S
H475 C449 0.979 . S
H476 C449 0.980 . S
H477 C449 0.983 . S
H478 C422 0.947 . S
C479 C422 1.392 . S
C479 C423 1.419 . S
C479 H461 0.948 . S
Gd480 C483 2.818 . S
Gd480 O500 2.377 . S
Gd480 O502 2.448 . S
Gd480 O503 2.506 . S
Gd480 O504 2.435 1_545 S
Gd480 O505 2.717 1_545 S
Gd480 O507 2.395 1_445 S
Gd480 O511 2.327 1_455 S
Gd481 C492 2.818 . S
Gd481 O501 2.395 1_665 S
Gd481 O505 2.327 1_655 S
Gd481 O506 2.377 . S
Gd481 O508 2.448 . S
Gd481 O509 2.506 . S
Gd481 O510 2.435 1_565 S
Gd481 O511 2.717 1_565 S
C482 O500 1.240 . S
C482 O501 1.240 . S
C483 Gd480 2.818 . S
C483 C484 1.510 . S
C483 O502 1.249 . S
C483 O503 1.252 . S
C484 C483 1.510 . S
C484 C485 1.404 . S
C484 C486 1.352 . S
C485 C484 1.404 . S
C485 C489 1.389 . S
C485 H512 0.930 . S
C486 C484 1.352 . S
C486 C488 1.374 . S
C486 H513 0.931 . S
C487 C488 1.359 . S
C487 C489 1.364 . S
C488 C486 1.374 . S
C488 C487 1.359 . S
C488 H514 0.931 . S
C489 C485 1.389 . S
C489 C487 1.364 . S
C489 H515 0.931 . S
C490 O504 1.256 . S
C490 O505 1.257 . S
C491 O506 1.240 . S
C491 O507 1.240 . S
C492 Gd481 2.818 . S
C492 C493 1.510 . S
C492 O508 1.249 . S
C492 O509 1.252 . S
C493 C492 1.510 . S
C493 C494 1.404 . S
C493 C495 1.352 . S
C494 C493 1.404 . S
C494 C498 1.389 . S
C494 H516 0.930 . S
C495 C493 1.352 . S
C495 C497 1.374 . S
C495 H517 0.931 . S
C496 C497 1.359 . S
C496 C498 1.364 . S
C497 C495 1.374 . S
C497 C496 1.359 . S
C497 H518 0.931 . S
C498 C494 1.389 . S
C498 C496 1.364 . S
C498 H519 0.931 . S
C499 O510 1.256 . S
C499 O511 1.257 . S
O500 Gd480 2.377 . S
O500 C482 1.240 . S
O501 Gd481 2.395 1_445 S
O501 C482 1.240 . S
O502 Gd480 2.448 . S
O502 C483 1.249 . S
O503 Gd480 2.506 . S
O503 C483 1.252 . S
O504 Gd480 2.435 1_565 S
O504 C490 1.256 . S
O505 Gd480 2.717 1_565 S
O505 Gd481 2.327 1_455 S
O505 C490 1.257 . S
O506 Gd481 2.377 . S
O506 C491 1.240 . S
O507 Gd480 2.395 1_665 S
O507 C491 1.240 . S
O508 Gd481 2.448 . S
O508 C492 1.249 . S
O509 Gd481 2.506 . S
O509 C492 1.252 . S
O510 Gd481 2.435 1_545 S
O510 C499 1.256 . S
O511 Gd480 2.327 1_655 S
O511 Gd481 2.717 1_545 S
O511 C499 1.257 . S
H512 C485 0.930 . S
H513 C486 0.931 . S
H514 C488 0.931 . S
H515 C489 0.931 . S
H516 C494 0.930 . S
H517 C495 0.931 . S
H518 C497 0.931 . S
H519 C498 0.931 . S
Gd520 C523 2.818 1_565 S
Gd520 O540 2.377 1_565 S
Gd520 O542 2.448 1_565 S
Gd520 O543 2.506 1_565 S
Gd520 O544 2.435 . S
Gd520 O545 2.717 . S
Gd520 O547 2.395 1_554 S
Gd520 O551 2.327 1_564 S
Gd521 C532 2.818 1_545 S
Gd521 O541 2.395 1_556 S
Gd521 O545 2.327 1_546 S
Gd521 O546 2.377 1_545 S
Gd521 O548 2.448 1_545 S
Gd521 O549 2.506 1_545 S
Gd521 O550 2.435 . S
Gd521 O551 2.717 . S
C522 O540 1.240 . S
C522 O541 1.240 . S
C523 Gd520 2.818 1_545 S
C523 C524 1.510 . S
C523 O542 1.249 . S
C523 O543 1.252 . S
C524 C523 1.510 . S
C524 C525 1.404 . S
C524 C526 1.352 . S
C525 C524 1.404 . S
C525 C529 1.389 . S
C525 H552 0.930 . S
C526 C524 1.352 . S
C526 C528 1.374 . S
C526 H553 0.931 . S
C527 C528 1.359 . S
C527 C529 1.364 . S
C528 C526 1.374 . S
C528 C527 1.359 . S
C528 H554 0.931 . S
C529 C525 1.389 . S
C529 C527 1.364 . S
C529 H555 0.931 . S
C530 O544 1.256 . S
C530 O545 1.257 . S
C531 O546 1.240 . S
C531 O547 1.240 . S
C532 Gd521 2.818 1_565 S
C532 C533 1.510 . S
C532 O548 1.249 . S
C532 O549 1.252 . S
C533 C532 1.510 . S
C533 C534 1.404 . S
C533 C535 1.352 . S
C534 C533 1.404 . S
C534 C538 1.389 . S
C534 H556 0.930 . S
C535 C533 1.352 . S
C535 C537 1.374 . S
C535 H557 0.931 . S
C536 C537 1.359 . S
C536 C538 1.364 . S
C537 C535 1.374 . S
C537 C536 1.359 . S
C537 H558 0.931 . S
C538 C534 1.389 . S
C538 C536 1.364 . S
C538 H559 0.931 . S
C539 O550 1.256 . S
C539 O551 1.257 . S
O540 Gd520 2.377 1_545 S
O540 C522 1.240 . S
O541 Gd521 2.395 1_554 S
O541 C522 1.240 . S
O542 Gd520 2.448 1_545 S
O542 C523 1.249 . S
O543 Gd520 2.506 1_545 S
O543 C523 1.252 . S
O544 Gd520 2.435 . S
O544 C530 1.256 . S
O545 Gd520 2.717 . S
O545 Gd521 2.327 1_564 S
O545 C530 1.257 . S
O546 Gd521 2.377 1_565 S
O546 C531 1.240 . S
O547 Gd520 2.395 1_556 S
O547 C531 1.240 . S
O548 Gd521 2.448 1_565 S
O548 C532 1.249 . S
O549 Gd521 2.506 1_565 S
O549 C532 1.252 . S
O550 Gd521 2.435 . S
O550 C539 1.256 . S
O551 Gd520 2.327 1_546 S
O551 Gd521 2.717 . S
O551 C539 1.257 . S
H552 C525 0.930 . S
H553 C526 0.931 . S
H554 C528 0.931 . S
H555 C529 0.931 . S
H556 C534 0.930 . S
H557 C535 0.931 . S
H558 C537 0.931 . S
H559 C538 0.931 . S
Gd560 C563 2.818 . S
Gd560 O580 2.377 . S
Gd560 O582 2.448 . S
Gd560 O583 2.506 . S
Gd560 O584 2.435 . S
Gd560 O585 2.717 . S
Gd560 O587 2.395 . S
Gd560 O591 2.327 . S
Gd561 C572 2.818 . S
Gd561 O581 2.395 . S
Gd561 O585 2.327 . S
Gd561 O586 2.377 . S
Gd561 O588 2.448 . S
Gd561 O589 2.506 . S
Gd561 O590 2.435 . S
Gd561 O591 2.717 . S
C562 O580 1.240 . S
C562 O581 1.240 . S
C563 Gd560 2.818 . S
C563 C564 1.510 . S
C563 O582 1.249 . S
C563 O583 1.252 . S
C564 C563 1.510 . S
C564 C565 1.404 . S
C564 C566 1.352 . S
C565 C564 1.404 . S
C565 C569 1.389 . S
C565 H592 0.930 . S
C566 C564 1.352 . S
C566 C568 1.374 . S
C566 H593 0.931 . S
C567 C568 1.359 . S
C567 C569 1.364 . S
C568 C566 1.374 . S
C568 C567 1.359 . S
C568 H594 0.931 . S
C569 C565 1.389 . S
C569 C567 1.364 . S
C569 H595 0.931 . S
C570 O584 1.256 . S
C570 O585 1.257 . S
C571 O586 1.240 . S
C571 O587 1.240 . S
C572 Gd561 2.818 . S
C572 C573 1.510 . S
C572 O588 1.249 . S
C572 O589 1.252 . S
C573 C572 1.510 . S
C573 C574 1.404 . S
C573 C575 1.352 . S
C574 C573 1.404 . S
C574 C578 1.389 . S
C574 H596 0.930 . S
C575 C573 1.352 . S
C575 C577 1.374 . S
C575 H597 0.931 . S
C576 C577 1.359 . S
C576 C578 1.364 . S
C577 C575 1.374 . S
C577 C576 1.359 . S
C577 H598 0.931 . S
C578 C574 1.389 . S
C578 C576 1.364 . S
C578 H599 0.931 . S
C579 O590 1.256 . S
C579 O591 1.257 . S
O580 Gd560 2.377 . S
O580 C562 1.240 . S
O581 Gd561 2.395 . S
O581 C562 1.240 . S
O582 Gd560 2.448 . S
O582 C563 1.249 . S
O583 Gd560 2.506 . S
O583 C563 1.252 . S
O584 Gd560 2.435 . S
O584 C570 1.256 . S
O585 Gd560 2.717 . S
O585 Gd561 2.327 . S
O585 C570 1.257 . S
O586 Gd561 2.377 . S
O586 C571 1.240 . S
O587 Gd560 2.395 . S
O587 C571 1.240 . S
O588 Gd561 2.448 . S
O588 C572 1.249 . S
O589 Gd561 2.506 . S
O589 C572 1.252 . S
O590 Gd561 2.435 . S
O590 C579 1.256 . S
O591 Gd560 2.327 . S
O591 Gd561 2.717 . S
O591 C579 1.257 . S
H592 C565 0.930 . S
H593 C566 0.931 . S
H594 C568 0.931 . S
H595 C569 0.931 . S
H596 C574 0.930 . S
H597 C575 0.931 . S
H598 C577 0.931 . S
H599 C578 0.931 . S
Gd600 C603 2.818 . S
Gd600 O620 2.377 . S
Gd600 O622 2.448 . S
Gd600 O623 2.506 . S
Gd600 O624 2.435 1_455 S
Gd600 O625 2.717 1_455 S
Gd600 O627 2.395 1_454 S
Gd600 O631 2.327 1_554 S
Gd601 C612 2.818 . S
Gd601 O621 2.395 1_656 S
Gd601 O625 2.327 1_556 S
Gd601 O626 2.377 . S
Gd601 O628 2.448 . S
Gd601 O629 2.506 . S
Gd601 O630 2.435 1_655 S
Gd601 O631 2.717 1_655 S
C602 O620 1.240 . S
C602 O621 1.240 . S
C603 Gd600 2.818 . S
C603 C604 1.510 . S
C603 O622 1.249 . S
C603 O623 1.252 . S
C604 C603 1.510 . S
C604 C605 1.404 . S
C604 C606 1.352 . S
C605 C604 1.404 . S
C605 C609 1.389 . S
C605 H632 0.930 . S
C606 C604 1.352 . S
C606 C608 1.374 . S
C606 H633 0.931 . S
C607 C608 1.359 . S
C607 C609 1.364 . S
C608 C606 1.374 . S
C608 C607 1.359 . S
C608 H634 0.931 . S
C609 C605 1.389 . S
C609 C607 1.364 . S
C609 H635 0.931 . S
C610 O624 1.256 . S
C610 O625 1.257 . S
C611 O626 1.240 . S
C611 O627 1.240 . S
C612 Gd601 2.818 . S
C612 C613 1.510 . S
C612 O628 1.249 . S
C612 O629 1.252 . S
C613 C612 1.510 . S
C613 C614 1.404 . S
C613 C615 1.352 . S
C614 C613 1.404 . S
C614 C618 1.389 . S
C614 H636 0.930 . S
C615 C613 1.352 . S
C615 C617 1.374 . S
C615 H637 0.931 . S
C616 C617 1.359 . S
C616 C618 1.364 . S
C617 C615 1.374 . S
C617 C616 1.359 . S
C617 H638 0.931 . S
C618 C614 1.389 . S
C618 C616 1.364 . S
C618 H639 0.931 . S
C619 O630 1.256 . S
C619 O631 1.257 . S
O620 Gd600 2.377 . S
O620 C602 1.240 . S
O621 Gd601 2.395 1_454 S
O621 C602 1.240 . S
O622 Gd600 2.448 . S
O622 C603 1.249 . S
O623 Gd600 2.506 . S
O623 C603 1.252 . S
O624 Gd600 2.435 1_655 S
O624 C610 1.256 . S
O625 Gd600 2.717 1_655 S
O625 Gd601 2.327 1_554 S
O625 C610 1.257 . S
O626 Gd601 2.377 . S
O626 C611 1.240 . S
O627 Gd600 2.395 1_656 S
O627 C611 1.240 . S
O628 Gd601 2.448 . S
O628 C612 1.249 . S
O629 Gd601 2.506 . S
O629 C612 1.252 . S
O630 Gd601 2.435 1_455 S
O630 C619 1.256 . S
O631 Gd600 2.327 1_556 S
O631 Gd601 2.717 1_455 S
O631 C619 1.257 . S
H632 C605 0.930 . S
H633 C606 0.931 . S
H634 C608 0.931 . S
H635 C609 0.931 . S
H636 C614 0.930 . S
H637 C615 0.931 . S
H638 C617 0.931 . S
H639 C618 0.931 . S
C1 C487 1.859 . S
C80 C536 1.660 . S
C562 C140 3.529 . S
C211 C610 3.535 . S
C522 C31 4.249 . S
C490 C61 1.815 . S
C611 C151 2.480 . S
C579 C200 2.297 . S
C20 C607 3.020 . S
C539 C121 3.331 . S
C181 C491 3.179 . S
C91 C576 2.916 . S
C496 C260 2.147 . S
C320 C527 1.660 . S
C361 C571 3.531 . S
C451 C619 3.535 . S
C271 C531 4.398 . S
C499 C301 1.816 . S
C602 C380 2.415 . S
C570 C440 2.297 . S
C241 C616 2.709 . S
C530 C391 3.330 . S
C482 C421 3.180 . S
C331 C567 2.916 . S
