# Generated by pormake.
# Topology zzz, (3,6)-cn, num edge types: 1
# Building blocks:
#     Node 0, Type 0, BuildingBlock: VETTIZ_charged_linker_0, # of connection points: 3
#     Node 1, Type 0, BuildingBlock: VETTIZ_charged_linker_0, # of connection points: 3
#     Node 2, Type 0, BuildingBlock: VETTIZ_charged_linker_0, # of connection points: 3
#     Node 3, Type 0, BuildingBlock: VETTIZ_charged_linker_0, # of connection points: 3
#     Node 4, Type 0, BuildingBlock: VETTIZ_charged_linker_0, # of connection points: 3
#     Node 5, Type 0, BuildingBlock: VETTIZ_charged_linker_0, # of connection points: 3
#     Node 6, Type 0, BuildingBlock: VETTIZ_charged_linker_0, # of connection points: 3
#     Node 7, Type 0, BuildingBlock: VETTIZ_charged_linker_0, # of connection points: 3
#     Node 8, Type 1, BuildingBlock: VOLQOD_clean_sbu_1, # of connection points: 6
#     Node 9, Type 1, BuildingBlock: VOLQOD_clean_sbu_1, # of connection points: 6
#     Node 10, Type 1, BuildingBlock: VOLQOD_clean_sbu_1, # of connection points: 6
#     Node 11, Type 1, BuildingBlock: VOLQOD_clean_sbu_1, # of connection points: 6
#     Edge 12, Type (0, 1), BuildingBlock: MIFKUJ_clean_linker_0, # of connection points: 2
#     Edge 13, Type (0, 1), BuildingBlock: MIFKUJ_clean_linker_0, # of connection points: 2
#     Edge 14, Type (0, 1), BuildingBlock: MIFKUJ_clean_linker_0, # of connection points: 2
#     Edge 15, Type (0, 1), BuildingBlock: MIFKUJ_clean_linker_0, # of connection points: 2
#     Edge 16, Type (0, 1), BuildingBlock: MIFKUJ_clean_linker_0, # of connection points: 2
#     Edge 17, Type (0, 1), BuildingBlock: MIFKUJ_clean_linker_0, # of connection points: 2
#     Edge 18, Type (0, 1), BuildingBlock: MIFKUJ_clean_linker_0, # of connection points: 2
#     Edge 19, Type (0, 1), BuildingBlock: MIFKUJ_clean_linker_0, # of connection points: 2
#     Edge 20, Type (0, 1), BuildingBlock: MIFKUJ_clean_linker_0, # of connection points: 2
#     Edge 21, Type (0, 1), BuildingBlock: MIFKUJ_clean_linker_0, # of connection points: 2
#     Edge 22, Type (0, 1), BuildingBlock: MIFKUJ_clean_linker_0, # of connection points: 2
#     Edge 23, Type (0, 1), BuildingBlock: MIFKUJ_clean_linker_0, # of connection points: 2
#     Edge 24, Type (0, 1), BuildingBlock: MIFKUJ_clean_linker_0, # of connection points: 2
#     Edge 25, Type (0, 1), BuildingBlock: MIFKUJ_clean_linker_0, # of connection points: 2
#     Edge 26, Type (0, 1), BuildingBlock: MIFKUJ_clean_linker_0, # of connection points: 2
#     Edge 27, Type (0, 1), BuildingBlock: MIFKUJ_clean_linker_0, # of connection points: 2
#     Edge 28, Type (0, 1), BuildingBlock: MIFKUJ_clean_linker_0, # of connection points: 2
#     Edge 29, Type (0, 1), BuildingBlock: MIFKUJ_clean_linker_0, # of connection points: 2
#     Edge 30, Type (0, 1), BuildingBlock: MIFKUJ_clean_linker_0, # of connection points: 2
#     Edge 31, Type (0, 1), BuildingBlock: MIFKUJ_clean_linker_0, # of connection points: 2
#     Edge 32, Type (0, 1), BuildingBlock: MIFKUJ_clean_linker_0, # of connection points: 2
#     Edge 33, Type (0, 1), BuildingBlock: MIFKUJ_clean_linker_0, # of connection points: 2
#     Edge 34, Type (0, 1), BuildingBlock: MIFKUJ_clean_linker_0, # of connection points: 2
#     Edge 35, Type (0, 1), BuildingBlock: MIFKUJ_clean_linker_0, # of connection points: 2
# Relax obj value: 0.368
# Max RMSD: 0.260
# Mean RMSD: 0.211
data_MOF--net-zzz--node1-VOLQOD_clean_sbu_1--node2-VETTIZ_charged_linker_0--edge1-MIFKUJ_clean_linker_0
_symmetry_space_group_name_H-M    P1
_symmetry_Int_Tables_number       1
_symmetry_cell_setting            triclinic
loop_
_symmetry_equiv_pos_as_xyz
'x, y, z'
_cell_length_a     71.019016
_cell_length_b     69.906976
_cell_length_c     28.067208
_cell_angle_alpha  90.17748
_cell_angle_beta   90.238875
_cell_angle_gamma 92.30005
loop_
_atom_site_label
_atom_site_type_symbol
_atom_site_fract_x
_atom_site_fract_y
_atom_site_fract_z
_atom_type_partial_charge
C0 C 0.80886 0.48506 0.27652 0.0
C1 C 0.82558 0.47871 0.29759 0.0
C2 C 0.83571 0.46457 0.27432 0.0
C3 C 0.81316 0.46347 0.20964 0.0
C4 C 0.80274 0.47697 0.23266 0.0
C5 C 0.78496 0.48102 0.20504 0.0
H6 H 0.73328 0.4654 0.00153 0.0
C7 C 0.80363 0.4581 0.1646 0.0
C8 C 0.78682 0.468 0.16161 0.0
H9 H 0.7194 0.50233 0.11871 0.0
H10 H 0.74738 0.49277 0.16175 0.0
H11 H 0.77617 0.47747 0.99921 0.0
H12 H 0.74525 0.43023 0.06324 0.0
H13 H 0.76623 0.42092 0.0419 0.0
H14 H 0.74995 0.43123 1.00053 0.0
H15 H 0.76617 0.45779 0.9652 0.0
H16 H 0.78957 0.45732 0.99002 0.0
C17 C 0.78567 0.5024 0.19124 0.0
C18 C 0.7678 0.47496 0.23591 0.0
C19 C 0.83856 0.41906 0.04351 0.0
C20 C 0.83428 0.4133 0.99648 0.0
C21 C 0.81574 0.41515 0.97938 0.0
C22 C 0.80223 0.42405 0.00708 0.0
C23 C 0.80729 0.43126 0.05238 0.0
C24 C 0.82492 0.42795 0.07065 0.0
C25 C 0.82771 0.43626 0.11975 0.0
C26 C 0.80922 0.44612 0.1267 0.0
C27 C 0.79745 0.44331 0.08699 0.0
C28 C 0.84479 0.4508 0.11816 0.0
C29 C 0.82995 0.41945 0.15513 0.0
C30 C 0.73626 0.47155 0.03638 0.0
C31 C 0.72432 0.48486 0.05638 0.0
C32 C 0.72847 0.49211 0.10243 0.0
C33 C 0.74473 0.48659 0.12721 0.0
C34 C 0.75682 0.47359 0.10582 0.0
C35 C 0.75223 0.4662 0.0613 0.0
C36 C 0.76642 0.45278 0.04296 0.0
C37 C 0.78038 0.45306 0.08376 0.0
C38 C 0.77493 0.46534 0.12073 0.0
C39 C 0.77504 0.46157 0.9968 0.0
C40 C 0.75656 0.43273 0.03636 0.0
H41 H 0.83817 0.44642 0.21495 0.0
H42 H 0.80073 0.49581 0.29394 0.0
H43 H 0.77023 0.4612 0.25429 0.0
H44 H 0.75483 0.47241 0.21471 0.0
H45 H 0.7652 0.48591 0.26363 0.0
H46 H 0.79981 0.50673 0.17703 0.0
H47 H 0.78295 0.51155 0.22272 0.0
H48 H 0.77549 0.5057 0.16298 0.0
H49 H 0.85263 0.41792 0.05794 0.0
H50 H 0.81188 0.41041 0.94376 0.0
H51 H 0.78861 0.42567 0.9913 0.0
H52 H 0.84433 0.45961 0.08525 0.0
H53 H 0.85829 0.44332 0.11826 0.0
H54 H 0.8451 0.46117 0.14783 0.0
H55 H 0.82415 0.40563 0.14036 0.0
H56 H 0.822 0.42148 0.18854 0.0
H57 H 0.845 0.41744 0.16396 0.0
H58 H 0.84868 0.45962 0.28957 0.0
C59 C 0.8296 0.45694 0.23078 0.0
C60 C 0.01973 0.79294 0.97949 0.0
C61 C 0.02113 0.81299 0.98151 0.0
C62 C 0.01408 0.82258 0.0214 0.0
C63 C 0.00621 0.79216 0.05877 0.0
C64 C 0.01199 0.78286 0.01824 0.0
C65 C 0.00935 0.76151 0.02218 0.0
H66 H 0.98947 0.68253 0.15345 0.0
C67 C 0.00077 0.77747 0.0944 0.0
C68 C 0.0023 0.75952 0.07312 0.0
H69 H 0.00255 0.68747 0.00355 0.0
H70 H 0.00437 0.72154 0.01 0.0
H71 H 0.02078 0.71769 0.18704 0.0
H72 H 0.96077 0.72082 0.15982 0.0
H73 H 0.9675 0.73095 0.21566 0.0
H74 H 0.9698 0.70575 0.20572 0.0
H75 H 0.00368 0.70533 0.22406 0.0
H76 H 0.00953 0.73042 0.23243 0.0
C77 C 0.02888 0.75269 0.01561 0.0
C78 C 0.99417 0.75475 0.98509 0.0
C79 C 0.99071 0.79928 0.26305 0.0
C80 C 0.98957 0.79004 0.30721 0.0
C81 C 0.98764 0.76983 0.30788 0.0
C82 C 0.98797 0.75913 0.26499 0.0
C83 C 0.99037 0.76876 0.22119 0.0
C84 C 0.99145 0.78857 0.22121 0.0
C85 C 0.99525 0.79685 0.17301 0.0
C86 C 0.99646 0.77887 0.14347 0.0
C87 C 0.99338 0.76225 0.17122 0.0
C88 C 0.01435 0.80853 0.17544 0.0
C89 C 0.9781 0.8086 0.15829 0.0
C90 C 0.99259 0.69115 0.12227 0.0
C91 C 0.99601 0.68241 0.07785 0.0
C92 C 1.00005 0.69393 0.03801 0.0
C93 C 0.00103 0.71377 0.04181 0.0
C94 C 0.99806 0.72244 0.08607 0.0
C95 C 0.99377 0.71135 0.12558 0.0
C96 C 0.99141 0.72372 0.16954 0.0
C97 C 0.99425 0.74386 0.149 0.0
C98 C 0.99845 0.74272 0.10015 0.0
C99 C 0.00707 0.71906 0.20554 0.0
C100 C 0.97132 0.72013 0.1891 0.0
H101 H 0.00201 0.82038 0.09004 0.0
H102 H 0.02475 0.78532 0.94869 0.0
H103 H 0.98522 0.76663 0.97363 0.0
H104 H 0.98405 0.74385 0.99984 0.0
H105 H 0.0007 0.74892 0.95253 0.0
H106 H 0.04003 0.76143 0.03455 0.0
H107 H 0.03276 0.75214 0.97735 0.0
H108 H 0.02968 0.73819 0.03067 0.0
H109 H 0.99182 0.81476 0.26101 0.0
H110 H 0.98658 0.76233 0.34151 0.0
H111 H 0.98679 0.74381 0.26754 0.0
H112 H 0.02405 0.80237 0.20201 0.0
H113 H 0.01227 0.82363 0.18597 0.0
H114 H 0.02232 0.80836 0.14183 0.0
H115 H 0.96474 0.80199 0.17238 0.0
H116 H 0.97598 0.80903 0.11925 0.0
H117 H 0.97945 0.82346 0.17232 0.0
H118 H 0.01502 0.83807 0.02341 0.0
C119 C 0.00662 0.81227 0.06007 0.0
C120 C 0.81884 0.99879 0.12081 0.0
C121 C 0.82491 0.00463 0.07503 0.0
C122 C 0.81233 0.01397 0.04503 0.0
C123 C 0.78839 0.01246 0.10594 0.0
C124 C 0.8005 0.00307 0.13577 0.0
C125 C 0.79146 0.99889 0.1837 0.0
H126 H 0.71605 0.01268 0.32962 0.0
C127 C 0.77078 0.01568 0.13175 0.0
C128 C 0.77243 0.00809 0.17794 0.0
H129 H 0.76389 0.97896 0.36264 0.0
H130 H 0.77741 0.98641 0.2844 0.0
H131 H 0.73765 0.04742 0.27537 0.0
H132 H 0.70919 0.99467 0.23508 0.0
H133 H 0.7049 0.01 0.18747 0.0
H134 H 0.69661 0.01592 0.24619 0.0
H135 H 0.71253 0.04361 0.27653 0.0
H136 H 0.72455 0.05253 0.22407 0.0
C137 C 0.80363 0.00874 0.22305 0.0
C138 C 0.78922 0.97696 0.18947 0.0
C139 C 0.71626 0.04591 0.04543 0.0
C140 C 0.69811 0.05043 0.06054 0.0
C141 C 0.69365 0.0492 0.10929 0.0
C142 C 0.70661 0.04245 0.1421 0.0
C143 C 0.72425 0.03675 0.12613 0.0
C144 C 0.72908 0.03906 0.07885 0.0
C145 C 0.74866 0.03259 0.06896 0.0
C146 C 0.75424 0.02498 0.11761 0.0
C147 C 0.73985 0.02741 0.15055 0.0
C148 C 0.76103 0.05038 0.05403 0.0
C149 C 0.7472 0.01642 0.03104 0.0
C150 C 0.72968 0.00723 0.32056 0.0
C151 C 0.73918 0.99571 0.35251 0.0
C152 C 0.75647 0.98814 0.3386 0.0
C153 C 0.7642 0.99242 0.29326 0.0
C154 C 0.75428 0.00399 0.26143 0.0
C155 C 0.7372 0.01091 0.27567 0.0
C156 C 0.72736 0.02133 0.23718 0.0
C157 C 0.74141 0.02007 0.19723 0.0
C158 C 0.75741 0.01015 0.21115 0.0
C159 C 0.72522 0.04231 0.25394 0.0
C160 C 0.70849 0.0101 0.22583 0.0
H161 H 0.78545 0.02501 0.03529 0.0
H162 H 0.82826 0.99155 0.14454 0.0
H163 H 0.78423 0.97013 0.1556 0.0
H164 H 0.77861 0.9727 0.21641 0.0
H165 H 0.80287 0.97077 0.19917 0.0
H166 H 0.80706 0.02391 0.21348 0.0
H167 H 0.81709 0.0014 0.22785 0.0
H168 H 0.79639 0.00904 0.25769 0.0
H169 H 0.72009 0.04678 0.00816 0.0
H170 H 0.67989 0.05299 0.12186 0.0
H171 H 0.70213 0.04147 0.17844 0.0
H172 H 0.75491 0.06399 0.06596 0.0
H173 H 0.76258 0.05118 0.01472 0.0
H174 H 0.77521 0.05057 0.0707 0.0
H175 H 0.73503 0.00639 0.03871 0.0
H176 H 0.75963 0.00746 0.03038 0.0
H177 H 0.74509 0.02239 0.99485 0.0
H178 H 0.81658 0.01834 0.00951 0.0
C179 C 0.79421 0.01786 0.0601 0.0
C180 C 0.55738 0.70922 0.25886 0.0
C181 C 0.55526 0.68908 0.26234 0.0
C182 C 0.55171 0.67822 0.22076 0.0
C183 C 0.54913 0.70708 0.1748 0.0
C184 C 0.55427 0.71796 0.21432 0.0
C185 C 0.5552 0.73914 0.2024 0.0
H186 H 0.53148 0.80831 0.04366 0.0
C187 C 0.54417 0.71999 0.13589 0.0
C188 C 0.54765 0.73894 0.1513 0.0
H189 H 0.56413 0.81702 0.17239 0.0
H190 H 0.56171 0.78265 0.18859 0.0
H191 H 0.55385 0.77449 0.00735 0.0
H192 H 0.50172 0.77621 0.0842 0.0
H193 H 0.49887 0.75763 0.04225 0.0
H194 H 0.50348 0.78187 0.02203 0.0
H195 H 0.53218 0.78094 0.97976 0.0
H196 H 0.53885 0.75641 0.98298 0.0
C197 C 0.57608 0.74626 0.2048 0.0
C198 C 0.54231 0.74982 0.23672 0.0
C199 C 0.51286 0.69102 0.98866 0.0
C200 C 0.50363 0.69887 0.94958 0.0
C201 C 0.50232 0.71883 0.94609 0.0
C202 C 0.51056 0.73089 0.98118 0.0
C203 C 0.51991 0.7228 0.02022 0.0
C204 C 0.52071 0.70316 0.02355 0.0
C205 C 0.53007 0.69687 0.06851 0.0
C206 C 0.53511 0.71606 0.0916 0.0
C207 C 0.52941 0.73113 0.06296 0.0
C208 C 0.54796 0.68617 0.0545 0.0
C209 C 0.51534 0.68475 0.09768 0.0
C210 C 0.53792 0.80285 0.07569 0.0
C211 C 0.54771 0.81524 0.10722 0.0
C212 C 0.55639 0.80763 0.14786 0.0
C213 C 0.55506 0.78776 0.15695 0.0
C214 C 0.54535 0.77548 0.12441 0.0
C215 C 0.53716 0.78323 0.0844 0.0
C216 C 0.52861 0.76838 0.05148 0.0
C217 C 0.53331 0.75029 0.07745 0.0
C218 C 0.54272 0.75433 0.12089 0.0
C219 C 0.53872 0.7701 0.00265 0.0
C220 C 0.50706 0.77112 0.04935 0.0
H221 H 0.54545 0.67788 0.14748 0.0
H222 H 0.56054 0.71786 0.29017 0.0
H223 H 0.52806 0.74264 0.23771 0.0
H224 H 0.54037 0.76476 0.22587 0.0
H225 H 0.54817 0.75 0.27349 0.0
H226 H 0.58551 0.73506 0.19178 0.0
H227 H 0.58033 0.74993 0.24196 0.0
H228 H 0.57909 0.75874 0.18166 0.0
H229 H 0.51368 0.67564 0.99241 0.0
H230 H 0.49515 0.72502 0.91607 0.0
H231 H 0.50936 0.74603 0.97652 0.0
H232 H 0.55492 0.69296 0.02299 0.0
H233 H 0.54441 0.67099 0.04516 0.0
H234 H 0.55889 0.68668 0.08268 0.0
H235 H 0.50062 0.68775 0.08714 0.0
H236 H 0.51589 0.68805 0.13623 0.0
H237 H 0.5171 0.66917 0.09246 0.0
H238 H 0.55062 0.66272 0.22228 0.0
C239 C 0.54867 0.68706 0.17725 0.0
C240 C 0.304 0.525 0.28214 0.0
C241 C 0.31149 0.53138 0.32641 0.0
C242 C 0.30077 0.54347 0.35492 0.0
C243 C 0.27606 0.54329 0.29543 0.0
C244 C 0.28628 0.53124 0.26724 0.0
C245 C 0.27605 0.52639 0.22107 0.0
H246 H 0.19844 0.53862 0.08173 0.0
C247 C 0.2585 0.54757 0.27013 0.0
C248 C 0.25835 0.53789 0.2261 0.0
H249 H 0.24479 0.5025 0.05052 0.0
H250 H 0.26009 0.51236 0.125 0.0
H251 H 0.19411 0.5265 0.1856 0.0
H252 H 0.22309 0.57461 0.12048 0.0
H253 H 0.21272 0.58348 0.1723 0.0
H254 H 0.19793 0.57277 0.12614 0.0
H255 H 0.18198 0.54674 0.16391 0.0
H256 H 0.19083 0.5458 0.22412 0.0
C257 C 0.27141 0.5046 0.22017 0.0
C258 C 0.28844 0.53352 0.17914 0.0
C259 C 0.2096 0.58685 0.35337 0.0
C260 C 0.19142 0.59215 0.33988 0.0
C261 C 0.18549 0.58912 0.29235 0.0
C262 C 0.1969 0.57985 0.25979 0.0
C263 C 0.21442 0.57335 0.27481 0.0
C264 C 0.22078 0.57745 0.32039 0.0
C265 C 0.23976 0.56939 0.32994 0.0
C266 C 0.24331 0.55908 0.28321 0.0
C267 C 0.22836 0.56135 0.2514 0.0
C268 C 0.2377 0.55522 0.3722 0.0
C269 C 0.25411 0.5864 0.33848 0.0
C270 C 0.21207 0.53306 0.09018 0.0
C271 C 0.22053 0.52002 0.0597 0.0
C272 C 0.23797 0.51262 0.07334 0.0
C273 C 0.24682 0.51837 0.11653 0.0
C274 C 0.23801 0.53148 0.1466 0.0
C275 C 0.22091 0.5385 0.13283 0.0
C276 C 0.21291 0.55163 0.16902 0.0
C277 C 0.22803 0.5516 0.20705 0.0
C278 C 0.24284 0.53984 0.19417 0.0
C279 C 0.19392 0.54241 0.18659 0.0
C280 C 0.2114 0.57167 0.14604 0.0
H281 H 0.27597 0.55868 0.36327 0.0
H282 H 0.31187 0.5157 0.25939 0.0
H283 H 0.29446 0.54817 0.18657 0.0
H284 H 0.28046 0.53459 0.14553 0.0
H285 H 0.30035 0.52395 0.17334 0.0
H286 H 0.26662 0.49954 0.25583 0.0
H287 H 0.28403 0.49657 0.2104 0.0
H288 H 0.25981 0.50055 0.19546 0.0
H289 H 0.21465 0.58916 0.38948 0.0
H290 H 0.1715 0.59279 0.28099 0.0
H291 H 0.19124 0.57738 0.22473 0.0
H292 H 0.22408 0.54681 0.36981 0.0
H293 H 0.23798 0.56296 0.40684 0.0
H294 H 0.24859 0.54441 0.37274 0.0
H295 H 0.24967 0.59961 0.32027 0.0
H296 H 0.26817 0.58377 0.32348 0.0
H297 H 0.25562 0.5898 0.37703 0.0
H298 H 0.3059 0.54823 0.38955 0.0
C299 C 0.28326 0.54947 0.33968 0.0
C300 C 0.08509 0.19181 0.35803 0.0
C301 C 0.08249 0.17194 0.35091 0.0
C302 C 0.0879 0.16403 0.30697 0.0
C303 C 0.09394 0.19577 0.27526 0.0
C304 C 0.09058 0.20347 0.31958 0.0
C305 C 0.0916 0.22502 0.31895 0.0
H306 H 0.07834 0.30561 0.1966 0.0
C307 C 0.09515 0.21157 0.24058 0.0
C308 C 0.09384 0.22877 0.26568 0.0
H309 H 0.09338 0.29928 0.34501 0.0
H310 H 0.09874 0.2659 0.33223 0.0
H311 H 0.11431 0.27724 0.15981 0.0
H312 H 0.05469 0.26419 0.18056 0.0
H313 H 0.06244 0.2553 0.12531 0.0
H314 H 0.06297 0.28074 0.13564 0.0
H315 H 0.09663 0.28835 0.12457 0.0
H316 H 0.10429 0.26479 0.11038 0.0
C317 C 0.10922 0.23204 0.34805 0.0
C318 C 0.0728 0.23232 0.33844 0.0
C319 C 0.09242 0.1942 0.0661 0.0
C320 C 0.08777 0.20402 0.0246 0.0
C321 C 0.08431 0.22373 0.02767 0.0
C322 C 0.08569 0.23346 0.07184 0.0
C323 C 0.09009 0.22322 0.11337 0.0
C324 C 0.09314 0.20385 0.10967 0.0
C325 C 0.09519 0.19438 0.15701 0.0
C326 C 0.09413 0.21141 0.19014 0.0
C327 C 0.09126 0.22843 0.16482 0.0
C328 C 0.11483 0.18556 0.15925 0.0
C329 C 0.07829 0.17968 0.16328 0.0
C330 C 0.08269 0.29688 0.22616 0.0
C331 C 0.08508 0.30486 0.27216 0.0
C332 C 0.0913 0.29334 0.30957 0.0
C333 C 0.09426 0.27397 0.30228 0.0
C334 C 0.0908 0.26588 0.25727 0.0
C335 C 0.08611 0.27731 0.21932 0.0
C336 C 0.08548 0.26604 0.17309 0.0
C337 C 0.09002 0.24603 0.1904 0.0
C338 C 0.0923 0.24614 0.24021 0.0
C339 C 0.1009 0.27453 0.13982 0.0
C340 C 0.06538 0.26661 0.15212 0.0
H341 H 0.09724 0.16899 0.23655 0.0
H342 H 0.0818 0.19823 0.39197 0.0
H343 H 0.06062 0.22509 0.31975 0.0
H344 H 0.07134 0.24781 0.33372 0.0
H345 H 0.07142 0.22935 0.37714 0.0
H346 H 0.1185 0.22017 0.35756 0.0
H347 H 0.10517 0.23893 0.38203 0.0
H348 H 0.11831 0.24231 0.32749 0.0
H349 H 0.09438 0.17891 0.06518 0.0
H350 H 0.08042 0.23151 0.99605 0.0
H351 H 0.08283 0.24842 0.07225 0.0
H352 H 0.12577 0.19552 0.14376 0.0
H353 H 0.11492 0.17193 0.1388 0.0
H354 H 0.11954 0.18288 0.19613 0.0
H355 H 0.06691 0.18164 0.13657 0.0
H356 H 0.07116 0.18123 0.19801 0.0
H357 H 0.08279 0.16472 0.15941 0.0
H358 H 0.08625 0.1488 0.30015 0.0
C359 C 0.09387 0.17584 0.26944 0.0
C360 C 0.30563 0.03231 0.04892 0.0
C361 C 0.32463 0.03631 0.0359 0.0
C362 C 0.33799 0.0409 0.07163 0.0
C363 C 0.31462 0.03487 0.13233 0.0
C364 C 0.30084 0.03223 0.09785 0.0
C365 C 0.28148 0.02975 0.12046 0.0
H366 H 0.23203 0.01891 0.32912 0.0
C367 C 0.3061 0.03207 0.17942 0.0
C368 C 0.28645 0.02979 0.17365 0.0
H369 H 0.20793 0.02131 0.18782 0.0
H370 H 0.23947 0.02582 0.15423 0.0
H371 H 0.26032 0.99114 0.30436 0.0
H372 H 0.26461 0.05204 0.31839 0.0
H373 H 0.28444 0.04282 0.34704 0.0
H374 H 0.26112 0.03551 0.36671 0.0
H375 H 0.26616 0.0022 0.36032 0.0
H376 H 0.2841 0.99563 0.31862 0.0
C377 C 0.27231 0.01044 0.10422 0.0
C378 C 0.26993 0.04714 0.10668 0.0
C379 C 0.34867 0.01418 0.31588 0.0
C380 C 0.34499 0.00813 0.36278 0.0
C381 C 0.32675 0.01007 0.38139 0.0
C382 C 0.31219 0.01666 0.35272 0.0
C383 C 0.31583 0.02125 0.30481 0.0
C384 C 0.33396 0.02066 0.28771 0.0
C385 C 0.33539 0.02671 0.23648 0.0
C386 C 0.31468 0.02921 0.22442 0.0
C387 C 0.30341 0.02595 0.2645 0.0
C388 C 0.34391 0.01019 0.2078 0.0
C389 C 0.34721 0.04589 0.23441 0.0
C390 C 0.23335 0.02033 0.29084 0.0
C391 C 0.21739 0.01952 0.26126 0.0
C392 C 0.21998 0.02191 0.21163 0.0
C393 C 0.23828 0.02452 0.1922 0.0
C394 C 0.25412 0.02482 0.22273 0.0
C395 C 0.25127 0.02269 0.27119 0.0
C396 C 0.26921 0.02201 0.29899 0.0
C397 C 0.28353 0.02507 0.2599 0.0
C398 C 0.27488 0.02677 0.21484 0.0
C399 C 0.27007 0.00183 0.32207 0.0
C400 C 0.26996 0.03887 0.33502 0.0
H401 H 0.34396 0.04361 0.14485 0.0
H402 H 0.29497 0.0293 0.02195 0.0
H403 H 0.27863 0.06065 0.11049 0.0
H404 H 0.25759 0.04882 0.12978 0.0
H405 H 0.26507 0.046 0.06906 0.0
H406 H 0.28232 0.99876 0.10904 0.0
H407 H 0.26831 0.01091 0.06594 0.0
H408 H 0.25962 0.0064 0.12498 0.0
H409 H 0.36251 0.01304 0.30043 0.0
H410 H 0.32363 0.00613 0.41787 0.0
H411 H 0.29856 0.01746 0.36869 0.0
H412 H 0.33611 0.99641 0.21524 0.0
H413 H 0.35893 0.00854 0.21751 0.0
H414 H 0.34337 0.01225 0.16898 0.0
H415 H 0.35005 0.05217 0.27033 0.0
H416 H 0.33973 0.05706 0.21464 0.0
H417 H 0.36114 0.04393 0.2176 0.0
H418 H 0.35258 0.04421 0.06251 0.0
C419 C 0.33306 0.04033 0.1195 0.0
C420 C 0.46807 0.28077 0.06453 0.0
C421 C 0.461 0.29851 0.05023 0.0
C422 C 0.44532 0.30568 0.07392 0.0
C423 C 0.44715 0.2808 0.13234 0.0
C424 C 0.46052 0.2719 0.10577 0.0
C425 C 0.46505 0.25278 0.12767 0.0
H426 H 0.45858 0.196 0.32545 0.0
C427 C 0.444 0.27028 0.17652 0.0
C428 C 0.45348 0.25309 0.17366 0.0
H429 H 0.48707 0.18304 0.19435 0.0
H430 H 0.47593 0.21236 0.15899 0.0
H431 H 0.47186 0.23149 0.34057 0.0
H432 H 0.42012 0.2138 0.27876 0.0
H433 H 0.41613 0.23349 0.31666 0.0
H434 H 0.42752 0.21289 0.34002 0.0
H435 H 0.45089 0.23567 0.37236 0.0
H436 H 0.46193 0.25401 0.33545 0.0
C437 C 0.48642 0.25265 0.13773 0.0
C438 C 0.4579 0.23674 0.09338 0.0
C439 C 0.43412 0.3093 0.32439 0.0
C440 C 0.43431 0.30431 0.37294 0.0
C441 C 0.43076 0.28499 0.38549 0.0
C442 C 0.42949 0.27073 0.35027 0.0
C443 C 0.43226 0.27583 0.3024 0.0
C444 C 0.43312 0.29487 0.28977 0.0
C445 C 0.43489 0.2976 0.23681 0.0
C446 C 0.43715 0.27687 0.22067 0.0
C447 C 0.43637 0.26443 0.25969 0.0
C448 C 0.4527 0.3104 0.22638 0.0
C449 C 0.41656 0.30642 0.21818 0.0
C450 C 0.46244 0.19936 0.28902 0.0
C451 C 0.47391 0.18731 0.26295 0.0
C452 C 0.47825 0.19212 0.21529 0.0
C453 C 0.47184 0.20915 0.19493 0.0
C454 C 0.46105 0.22148 0.22261 0.0
C455 C 0.4565 0.2163 0.26878 0.0
C456 C 0.44593 0.23121 0.2947 0.0
C457 C 0.44414 0.24609 0.25596 0.0
C458 C 0.45301 0.24045 0.21355 0.0
C459 C 0.45812 0.23851 0.33796 0.0
C460 C 0.42638 0.22244 0.30865 0.0
H461 H 0.42578 0.30195 0.13065 0.0
H462 H 0.47952 0.27451 0.04543 0.0
H463 H 0.44407 0.24024 0.07753 0.0
H464 H 0.4554 0.22291 0.11154 0.0
H465 H 0.46798 0.23486 0.06372 0.0
H466 H 0.49116 0.26585 0.15728 0.0
H467 H 0.49447 0.25207 0.10393 0.0
H468 H 0.49035 0.24046 0.15999 0.0
H469 H 0.43641 0.32401 0.31337 0.0
H470 H 0.43005 0.28079 0.42257 0.0
H471 H 0.42725 0.25621 0.3616 0.0
H472 H 0.46543 0.30416 0.24236 0.0
H473 H 0.45134 0.32503 0.24109 0.0
H474 H 0.45521 0.31216 0.18784 0.0
H475 H 0.40787 0.3122 0.24736 0.0
H476 H 0.40746 0.29561 0.19893 0.0
H477 H 0.41967 0.31878 0.19433 0.0
H478 H 0.43908 0.31873 0.06191 0.0
C479 C 0.43807 0.29656 0.11433 0.0
O480 O 0.06472 0.0054 0.62589 0.0
Zn481 Zn 0.0489 0.00364 0.6864 0.0
O482 O 0.022 0.99718 0.67207 0.0
Zn483 Zn 0.00653 0.01798 0.69308 0.0
Zn484 Zn 0.01915 0.99324 0.60331 0.0
Zn485 Zn 0.01278 0.974 0.70502 0.0
O486 O 0.9862 0.00942 0.73935 0.0
O487 O 0.99074 0.97852 0.74951 0.0
O488 O 0.05198 0.02925 0.7221 0.0
O489 O 0.02246 0.0384 0.72583 0.0
O490 O 0.99512 0.0308 0.63691 0.0
O491 O 0.00224 0.01263 0.57511 0.0
O492 O 0.01016 0.96615 0.58754 0.0
O493 O 0.0596 0.98263 0.7265 0.0
O494 O 0.0054 0.95261 0.65817 0.0
O495 O 0.03405 0.96438 0.74384 0.0
C496 C 0.06059 0.0027 0.58205 0.0
C497 C 0.98179 0.99349 0.75914 0.0
C498 C 0.99451 0.02723 0.59242 0.0
C499 C 0.03993 0.04135 0.73467 0.0
C500 C 0.00542 0.95161 0.61277 0.0
C501 C 0.05162 0.96849 0.74796 0.0
O502 O 0.04385 0.99792 0.56911 0.0
O503 O 0.51325 0.04039 0.62816 0.0
Zn504 Zn 0.51642 0.02576 0.69008 0.0
O505 O 0.52609 1.00004 0.67707 0.0
Zn506 Zn 0.50795 0.98065 0.70087 0.0
Zn507 Zn 0.53015 0.99684 0.60853 0.0
Zn508 Zn 0.55017 0.99634 0.70878 0.0
O509 O 0.5191 0.96432 0.75221 0.0
O510 O 0.54837 0.97619 0.76045 0.0
O511 O 0.49087 0.02418 0.72386 0.0
O512 O 0.48532 0.99282 0.72956 0.0
O513 O 0.49788 0.96419 0.64706 0.0
O514 O 0.51289 0.97571 0.58342 0.0
O515 O 0.55732 0.99148 0.59235 0.0
O516 O 0.53527 0.04137 0.73031 0.0
O517 O 0.5708 0.98931 0.6634 0.0
O518 O 0.55864 0.02117 0.73789 0.0
C519 C 0.51662 0.0365 0.58465 0.0
C520 C 0.53512 0.96446 0.77288 0.0
C521 C 0.50082 0.96412 0.60232 0.0
C522 C 0.4803 0.00989 0.7365 0.0
C523 C 0.57173 0.98856 0.61815 0.0
C524 C 0.55173 0.03746 0.74456 0.0
O525 O 0.52322 0.02052 0.57265 0.0
O526 O 0.47901 0.48924 0.63333 0.0
Zn527 Zn 0.49943 0.49071 0.685 0.0
O528 O 0.52487 0.49381 0.65618 0.0
Zn529 Zn 0.54022 0.47239 0.67324 0.0
Zn530 Zn 0.52258 0.49532 0.58716 0.0
Zn531 Zn 0.53817 0.51695 0.67837 0.0
O532 O 0.56415 0.48045 0.70911 0.0
O533 O 0.55998 0.51133 0.722 0.0
O534 O 0.49729 0.46664 0.72685 0.0
O535 O 0.52569 0.45504 0.71721 0.0
O536 O 0.54468 0.45562 0.61639 0.0
O537 O 0.5317 0.47142 0.55707 0.0
O538 O 0.53537 0.51926 0.56012 0.0
O539 O 0.49372 0.51451 0.72333 0.0
O540 O 0.54745 0.53385 0.62425 0.0
O541 O 0.51994 0.53253 0.7133 0.0
C542 C 0.47974 0.49227 0.58853 0.0
C543 C 0.5692 0.4963 0.72889 0.0
C544 C 0.53967 0.45671 0.57288 0.0
C545 C 0.50929 0.45391 0.73529 0.0
C546 C 0.54465 0.53325 0.5794 0.0
C547 C 0.50322 0.53023 0.72897 0.0
O548 O 0.49541 0.49556 0.56769 0.0
O549 O 0.98666 0.51425 0.62696 0.0
Zn550 Zn 0.01172 0.51666 0.66319 0.0
O551 O 0.02186 0.4911 0.67521 0.0
Zn552 Zn 0.02398 0.48707 0.74397 0.0
Zn553 Zn 0.00518 0.4712 0.64688 0.0
Zn554 Zn 0.0468 0.48885 0.64693 0.0
O555 O 0.05108 0.48449 0.76455 0.0
O556 O 0.06724 0.48626 0.69712 0.0
O557 O 0.00728 0.5309 0.72556 0.0
O558 O 0.0145 0.50956 0.78042 0.0
O559 O 0.00819 0.464 0.76453 0.0
O560 O 0.99498 0.45333 0.6972 0.0
O561 O 0.01817 0.45555 0.59686 0.0
O562 O 0.03009 0.53275 0.62317 0.0
O563 O 0.04778 0.46677 0.60019 0.0
O564 O 0.05299 0.51259 0.60987 0.0
C565 C 0.97704 0.49976 0.61111 0.0
C566 C 0.06671 0.48472 0.74235 0.0
C567 C 0.99728 0.45215 0.74209 0.0
C568 C 0.0087 0.52595 0.76913 0.0
C569 C 0.0352 0.45522 0.58286 0.0
C570 C 0.04566 0.52873 0.6038 0.0
O571 O 0.98272 0.48284 0.61638 0.0
H572 H 0.18349 0.03599 0.24063 0.0
H573 H 0.15401 0.03255 0.2858 0.0
H574 H 0.17979 0.99217 0.37936 0.0
H575 H 0.20838 0.99439 0.33254 0.0
H576 H 0.14655 0.98101 0.37126 0.0
H577 H 0.17538 0.04343 0.40352 0.0
H578 H 0.18802 0.07582 0.3839 0.0
H579 H 0.13418 0.09027 0.32715 0.0
H580 H 0.12129 0.05786 0.34592 0.0
H581 H 0.09867 0.99881 0.59206 0.0
H582 H 0.12278 0.00136 0.52967 0.0
H583 H 0.08029 0.015 0.42657 0.0
H584 H 0.05602 0.0119 0.48828 0.0
H585 H 0.11861 0.03996 0.43344 0.0
H586 H 0.09039 0.97594 0.41077 0.0
H587 H 0.07961 0.94406 0.43955 0.0
H588 H 0.13556 0.93353 0.48883 0.0
H589 H 0.1466 0.9655 0.461 0.0
C590 C 0.18267 0.02606 0.27014 0.0
C591 C 0.1985 0.01582 0.28352 0.0
C592 C 0.16588 0.0243 0.29648 0.0
C593 C 0.16471 0.01252 0.33717 0.0
C594 C 0.18019 0.00151 0.34861 0.0
C595 C 0.19671 0.00297 0.32195 0.0
C596 C 0.14788 0.01191 0.36922 0.0
C597 C 0.14059 0.99399 0.38482 0.0
C598 C 0.13972 0.02872 0.38698 0.0
C599 C 0.14745 0.04816 0.37554 0.0
C600 C 0.16628 0.05347 0.38652 0.0
C601 C 0.17348 0.07183 0.3756 0.0
C602 C 0.16193 0.08507 0.35413 0.0
C603 C 0.14313 0.07998 0.34366 0.0
C604 C 0.13587 0.06162 0.35442 0.0
C605 C 0.09447 0.00243 0.55616 0.0
C606 C 0.07542 0.00507 0.5451 0.0
C607 C 0.10825 0.00386 0.52058 0.0
C608 C 0.10329 0.00836 0.47356 0.0
C609 C 0.08439 0.01153 0.46265 0.0
C610 C 0.07055 0.00967 0.49792 0.0
C611 C 0.11782 0.00921 0.43561 0.0
C612 C 0.12457 0.02711 0.41916 0.0
C613 C 0.12584 0.99245 0.41797 0.0
C614 C 0.11926 0.97318 0.43426 0.0
C615 C 0.10035 0.9669 0.42816 0.0
C616 C 0.0942 0.9488 0.44421 0.0
C617 C 0.10688 0.9368 0.46613 0.0
C618 C 0.12575 0.94285 0.47191 0.0
C619 C 0.13196 0.96095 0.45597 0.0
H620 H 0.1021 0.92279 0.47852 0.0
H621 H 0.16753 0.09928 0.34574 0.0
H622 H 0.48946 0.18655 0.35144 0.0
H623 H 0.49861 0.15893 0.39693 0.0
H624 H 0.48617 0.12227 0.27592 0.0
H625 H 0.47606 0.15015 0.23038 0.0
H626 H 0.47183 0.10645 0.35375 0.0
H627 H 0.53232 0.13218 0.31403 0.0
H628 H 0.55775 0.15682 0.30333 0.0
H629 H 0.55816 0.16834 0.45368 0.0
H630 H 0.53254 0.14397 0.46525 0.0
H631 H 0.51324 0.03048 0.48847 0.0
H632 H 0.50762 0.05417 0.42644 0.0
H633 H 0.50633 0.09854 0.53326 0.0
H634 H 0.51169 0.07493 0.59565 0.0
H635 H 0.52992 0.10735 0.45274 0.0
H636 H 0.46663 0.08282 0.48807 0.0
H637 H 0.4419 0.05727 0.49621 0.0
H638 H 0.44845 0.04198 0.34909 0.0
H639 H 0.47343 0.06728 0.34027 0.0
C640 C 0.48869 0.17263 0.33429 0.0
C641 C 0.48182 0.17052 0.2874 0.0
C642 C 0.49415 0.15682 0.36027 0.0
C643 C 0.49332 0.13846 0.33985 0.0
C644 C 0.48699 0.1363 0.29246 0.0
C645 C 0.48137 0.15223 0.26633 0.0
C646 C 0.49815 0.12165 0.36948 0.0
C647 C 0.48475 0.10646 0.37454 0.0
C648 C 0.51491 0.12165 0.39711 0.0
C649 C 0.53041 0.1363 0.39045 0.0
C650 C 0.53774 0.14005 0.34479 0.0
C651 C 0.55221 0.15397 0.33857 0.0
C652 C 0.55955 0.16416 0.37779 0.0
C653 C 0.55246 0.16043 0.42333 0.0
C654 C 0.53798 0.14655 0.42975 0.0
C655 C 0.51173 0.04528 0.49884 0.0
C656 C 0.51292 0.05081 0.5471 0.0
C657 C 0.50846 0.05877 0.46331 0.0
C658 C 0.50652 0.07809 0.47527 0.0
C659 C 0.5078 0.08369 0.5233 0.0
C660 C 0.51079 0.07016 0.55892 0.0
C661 C 0.5034 0.09259 0.43778 0.0
C662 C 0.51717 0.10728 0.43131 0.0
C663 C 0.48714 0.09194 0.4084 0.0
C664 C 0.47207 0.07679 0.41367 0.0
C665 C 0.46293 0.07389 0.45758 0.0
C666 C 0.44883 0.05948 0.46229 0.0
C667 C 0.44365 0.04797 0.42324 0.0
C668 C 0.4525 0.05089 0.37934 0.0
C669 C 0.46662 0.06527 0.37446 0.0
H670 H 0.43273 0.03682 0.42695 0.0
H671 H 0.57075 0.17493 0.3729 0.0
H672 H 0.32699 0.49585 0.32431 0.0
H673 H 0.35639 0.48654 0.36272 0.0
H674 H 0.36725 0.54496 0.40843 0.0
H675 H 0.3386 0.55438 0.36858 0.0
H676 H 0.3986 0.53119 0.38455 0.0
H677 H 0.34661 0.50929 0.48254 0.0
H678 H 0.31693 0.4912 0.50011 0.0
H679 H 0.34311 0.4385 0.46693 0.0
H680 H 0.3729 0.45633 0.44858 0.0
H681 H 0.44336 0.49593 0.61959 0.0
H682 H 0.41517 0.49997 0.57047 0.0
H683 H 0.44816 0.49307 0.44334 0.0
H684 H 0.47635 0.48955 0.49188 0.0
H685 H 0.39513 0.47984 0.5062 0.0
H686 H 0.434 0.52276 0.35762 0.0
H687 H 0.46245 0.54383 0.3479 0.0
H688 H 0.46024 0.55972 0.49562 0.0
H689 H 0.43166 0.53896 0.50604 0.0
C690 C 0.33588 0.50674 0.34172 0.0
C691 C 0.33031 0.5258 0.34399 0.0
C692 C 0.35257 0.50138 0.36414 0.0
C693 C 0.3639 0.51497 0.38944 0.0
C694 C 0.35877 0.53415 0.3895 0.0
C695 C 0.34226 0.5395 0.36697 0.0
C696 C 0.38072 0.50942 0.41741 0.0
C697 C 0.39783 0.51984 0.41083 0.0
C698 C 0.37975 0.49488 0.45254 0.0
C699 C 0.3619 0.48415 0.46368 0.0
C700 C 0.34599 0.49386 0.47867 0.0
C701 C 0.32916 0.48365 0.48881 0.0
C702 C 0.32812 0.46372 0.4845 0.0
C703 C 0.34393 0.45394 0.47016 0.0
C704 C 0.36079 0.46409 0.4599 0.0
C705 C 0.44456 0.4951 0.58119 0.0
C706 C 0.46217 0.49269 0.5597 0.0
C707 C 0.42842 0.49737 0.55313 0.0
C708 C 0.42958 0.49719 0.50312 0.0
C709 C 0.44696 0.49371 0.48177 0.0
C710 C 0.46308 0.49167 0.50967 0.0
C711 C 0.41293 0.50162 0.47321 0.0
C712 C 0.39591 0.49101 0.47945 0.0
C713 C 0.41379 0.5164 0.43873 0.0
C714 C 0.43082 0.52914 0.43268 0.0
C715 C 0.43956 0.53081 0.38796 0.0
C716 C 0.45571 0.54269 0.38235 0.0
C717 C 0.46318 0.55305 0.42116 0.0
C718 C 0.45448 0.55163 0.46563 0.0
C719 C 0.43832 0.53979 0.47142 0.0
H720 H 0.4757 0.56222 0.41675 0.0
H721 H 0.31508 0.45584 0.49237 0.0
H722 H 0.05036 0.31969 0.27574 0.0
H723 H 0.04203 0.3486 0.31915 0.0
H724 H 0.10106 0.36313 0.34135 0.0
H725 H 0.10927 0.3339 0.29933 0.0
H726 H 0.08401 0.36256 0.4224 0.0
H727 H 0.07102 0.39118 0.27187 0.0
H728 H 0.05677 0.39344 0.19193 0.0
H729 H 0.00146 0.39016 0.25329 0.0
H730 H 0.01536 0.38762 0.33359 0.0
H731 H 0.07028 0.44921 0.54663 0.0
H732 H 0.0788 0.42644 0.48495 0.0
H733 H 0.0206 0.40709 0.47168 0.0
H734 H 0.01187 0.42994 0.53318 0.0
H735 H 0.03754 0.41137 0.38405 0.0
H736 H 0.05067 0.38093 0.5333 0.0
H737 H 0.06483 0.37854 0.61332 0.0
H738 H 0.12018 0.38521 0.5531 0.0
H739 H 0.10632 0.3879 0.47274 0.0
C740 C 0.06151 0.32951 0.2882 0.0
C741 C 0.08044 0.32476 0.28379 0.0
C742 C 0.05677 0.34601 0.31321 0.0
C743 C 0.07091 0.35813 0.33371 0.0
C744 C 0.08988 0.35403 0.32612 0.0
C745 C 0.09459 0.33745 0.30165 0.0
C746 C 0.06602 0.37359 0.36773 0.0
C747 C 0.07414 0.37346 0.41349 0.0
C748 C 0.05266 0.38748 0.35697 0.0
C749 C 0.04424 0.38904 0.30874 0.0
C750 C 0.05581 0.39079 0.2683 0.0
C751 C 0.0478 0.39215 0.22292 0.0
C752 C 0.02822 0.3919 0.21752 0.0
C753 C 0.01662 0.39034 0.25752 0.0
C754 C 0.02456 0.38896 0.30298 0.0
C755 C 0.05926 0.44015 0.53067 0.0
C756 C 0.0404 0.44137 0.54524 0.0
C757 C 0.06416 0.4271 0.49535 0.0
C758 C 0.05036 0.41493 0.4739 0.0
C759 C 0.03148 0.41634 0.48767 0.0
C760 C 0.02656 0.42935 0.52309 0.0
C761 C 0.0557 0.40035 0.43818 0.0
C762 C 0.04757 0.40057 0.39246 0.0
C763 C 0.06908 0.38652 0.44882 0.0
C764 C 0.07745 0.38482 0.49708 0.0
C765 C 0.06585 0.38204 0.53717 0.0
C766 C 0.07383 0.3806 0.58257 0.0
C767 C 0.09339 0.38177 0.58831 0.0
C768 C 0.10503 0.38433 0.54861 0.0
C769 C 0.09712 0.3858 0.50313 0.0
H770 H 0.09954 0.38066 0.62349 0.0
H771 H 0.02205 0.39296 0.18236 0.0
H772 H 0.84298 0.97086 0.06365 0.0
H773 H 0.87153 0.96619 0.01604 0.0
H774 H 0.87819 0.02725 0.99646 0.0
H775 H 0.84988 0.03188 0.04352 0.0
H776 H 0.87664 0.00798 0.91222 0.0
H777 H 0.90918 0.00325 0.06302 0.0
H778 H 0.91504 0.9897 0.14247 0.0
H779 H 0.92345 0.93466 0.0795 0.0
H780 H 0.91738 0.94783 0.99967 0.0
H781 H 0.96236 0.02331 0.79473 0.0
H782 H 0.93723 0.02233 0.85351 0.0
H783 H 0.94065 0.96103 0.86379 0.0
H784 H 0.96628 0.96191 0.80536 0.0
H785 H 0.93611 0.97647 0.95098 0.0
H786 H 0.90496 0.98064 0.80098 0.0
H787 H 0.89866 0.99325 0.72078 0.0
H788 H 0.88646 0.04786 0.78115 0.0
H789 H 0.89294 0.03566 0.86169 0.0
C790 C 0.85094 0.98326 0.05042 0.0
C791 C 0.84424 0.00172 0.05709 0.0
C792 C 0.86718 0.9806 0.02306 0.0
C793 C 0.87692 0.99638 0.00225 0.0
C794 C 0.87085 0.01486 0.01174 0.0
C795 C 0.85474 0.0175 0.03885 0.0
C796 C 0.89223 0.99385 0.96687 0.0
C797 C 0.88973 0.00127 0.92094 0.0
C798 C 0.90898 0.98439 0.97747 0.0
C799 C 0.9126 0.97647 0.02543 0.0
C800 C 0.9121 0.98821 0.06615 0.0
C801 C 0.9155 0.98061 0.11125 0.0
C802 C 0.91956 0.96132 0.11605 0.0
C803 C 0.92027 0.9496 0.07574 0.0
C804 C 0.91687 0.95712 0.03056 0.0
C805 C 0.9578 0.00956 0.80927 0.0
C806 C 0.96629 0.99266 0.79481 0.0
C807 C 0.94335 0.00903 0.84295 0.0
C808 C 0.93678 0.99157 0.86266 0.0
C809 C 0.94542 0.97468 0.84904 0.0
C810 C 0.96001 0.9752 0.81541 0.0
C811 C 0.92072 0.99116 0.89683 0.0
C812 C 0.92298 0.98309 0.94225 0.0
C813 C 0.90359 0.99988 0.88574 0.0
C814 C 0.89958 0.00726 0.83736 0.0
C815 C 0.90106 0.99537 0.79713 0.0
C816 C 0.89743 0.00245 0.75161 0.0
C817 C 0.8922 0.02136 0.74587 0.0
C818 C 0.89053 0.03322 0.78565 0.0
C819 C 0.89416 0.02623 0.83125 0.0
H820 H 0.8894 0.0268 0.71059 0.0
H821 H 0.92219 0.95547 0.15099 0.0
H822 H 0.51932 0.8396 0.09757 0.0
H823 H 0.5203 0.86905 0.05074 0.0
H824 H 0.58053 0.86584 0.03691 0.0
H825 H 0.57957 0.83627 0.08429 0.0
H826 H 0.56511 0.90571 0.03927 0.0
H827 H 0.55947 0.84522 0.95541 0.0
H828 H 0.54595 0.81248 0.94423 0.0
H829 H 0.49084 0.83469 0.92672 0.0
H830 H 0.50405 0.86759 0.93842 0.0
H831 H 0.56849 0.95627 0.81685 0.0
H832 H 0.57329 0.93354 0.88152 0.0
H833 H 0.51353 0.91979 0.88437 0.0
H834 H 0.50872 0.94192 0.81893 0.0
H835 H 0.53165 0.88842 0.88854 0.0
H836 H 0.53741 0.9493 0.97028 0.0
H837 H 0.55086 0.98197 0.98363 0.0
H838 H 0.60558 0.9595 0.00594 0.0
H839 H 0.59249 0.92671 0.99208 0.0
C840 C 0.53286 0.84568 0.08643 0.0
C841 C 0.54937 0.83575 0.09447 0.0
C842 C 0.53342 0.86245 0.05956 0.0
C843 C 0.55045 0.86946 0.03986 0.0
C844 C 0.56726 0.86069 0.05197 0.0
C845 C 0.56672 0.84386 0.07913 0.0
C846 C 0.54999 0.88343 1.0002 0.0
C847 C 0.55802 0.90195 0.00604 0.0
C848 C 0.54062 0.8785 0.95704 0.0
C849 C 0.53272 0.85883 0.94813 0.0
C850 C 0.54446 0.84311 0.94935 0.0
C851 C 0.53685 0.82452 0.94291 0.0
C852 C 0.51753 0.82149 0.93492 0.0
C853 C 0.5058 0.83706 0.93298 0.0
C854 C 0.51335 0.85568 0.93942 0.0
C855 C 0.55637 0.94841 0.83128 0.0
C856 C 0.53821 0.9509 0.81254 0.0
C857 C 0.55913 0.93549 0.86851 0.0
C858 C 0.54375 0.92506 0.88835 0.0
C859 C 0.52564 0.92761 0.86972 0.0
C860 C 0.5229 0.94031 0.83223 0.0
C861 C 0.54639 0.91108 0.92758 0.0
C862 C 0.53881 0.89236 0.92157 0.0
C863 C 0.55621 0.91592 0.9704 0.0
C864 C 0.56401 0.93558 0.9797 0.0
C865 C 0.55233 0.95134 0.97779 0.0
C866 C 0.55989 0.96988 0.98546 0.0
C867 C 0.57908 0.97281 0.99548 0.0
C868 C 0.59073 0.95721 0.99809 0.0
C869 C 0.58325 0.93864 0.99038 0.0
H870 H 0.58491 0.98717 0.00133 0.0
H871 H 0.51165 0.80708 0.93014 0.0
H872 H 0.68742 0.48736 0.08461 0.0
H873 H 0.66 0.49263 0.03319 0.0
H874 H 0.69688 0.50052 0.91246 0.0
H875 H 0.72411 0.49585 0.96362 0.0
H876 H 0.66952 0.52411 0.90526 0.0
H877 H 0.6745 0.45687 0.93756 0.0
H878 H 0.67592 0.42825 0.98842 0.0
H879 H 0.62123 0.43913 0.04466 0.0
H880 H 0.61961 0.46799 0.99458 0.0
H881 H 0.5946 0.46856 0.74623 0.0
H882 H 0.6203 0.46938 0.8045 0.0
H883 H 0.60556 0.52604 0.84835 0.0
H884 H 0.58023 0.52557 0.78928 0.0
H885 H 0.62096 0.47118 0.89697 0.0
H886 H 0.64423 0.55135 0.88805 0.0
H887 H 0.64519 0.57787 0.83016 0.0
H888 H 0.64735 0.53756 0.71475 0.0
H889 H 0.64664 0.51083 0.77196 0.0
C890 C 0.68964 0.49067 0.04733 0.0
C891 C 0.70788 0.49095 0.02801 0.0
C892 C 0.67398 0.49351 0.01788 0.0
C893 C 0.67632 0.49663 0.96867 0.0
C894 C 0.69464 0.49806 0.95014 0.0
C895 C 0.71021 0.49526 0.97941 0.0
C896 C 0.6599 0.4972 0.93553 0.0
C897 C 0.6588 0.51262 0.90379 0.0
C898 C 0.6461 0.48203 0.9327 0.0
C899 C 0.64704 0.4647 0.96279 0.0
C900 C 0.66285 0.45324 0.96106 0.0
C901 C 0.66368 0.43696 0.9897 0.0
C902 C 0.6487 0.43191 0.01987 0.0
C903 C 0.63284 0.44309 0.02136 0.0
C904 C 0.63195 0.45941 0.99287 0.0
C905 C 0.59692 0.48128 0.76796 0.0
C906 C 0.58539 0.49705 0.76273 0.0
C907 C 0.61157 0.48168 0.80151 0.0
C908 C 0.61502 0.49782 0.83073 0.0
C909 C 0.60346 0.51354 0.82574 0.0
C910 C 0.58893 0.51323 0.79189 0.0
C911 C 0.63059 0.49808 0.86658 0.0
C912 C 0.63151 0.48282 0.89885 0.0
C913 C 0.64453 0.51314 0.869 0.0
C914 C 0.64516 0.5291 0.83429 0.0
C915 C 0.64496 0.54816 0.85033 0.0
C916 C 0.64546 0.56322 0.81763 0.0
C917 C 0.64626 0.5594 0.7688 0.0
C918 C 0.64665 0.5405 0.75257 0.0
C919 C 0.64617 0.52539 0.78511 0.0
H920 H 0.64663 0.57107 0.74355 0.0
H921 H 0.64936 0.4193 0.042 0.0
H922 H 0.96578 0.65697 0.07985 0.0
H923 H 0.96432 0.62509 0.04236 0.0
H924 H 0.02415 0.63011 0.0159 0.0
H925 H 0.02559 0.66137 0.05446 0.0
H926 H 0.96985 0.61856 0.95395 0.0
H927 H 0.04396 0.58913 0.99762 0.0
H928 H 0.0652 0.58688 0.06691 0.0
H929 H 0.01824 0.59129 0.1616 0.0
H930 H 0.99666 0.5933 0.09292 0.0
H931 H 0.00384 0.56463 0.76259 0.0
H932 H 0.9982 0.58707 0.82745 0.0
H933 H 0.99699 0.54047 0.928 0.0
H934 H 0.00321 0.51808 0.86359 0.0
H935 H 0.01675 0.56806 0.96433 0.0
H936 H 0.95616 0.5637 0.89397 0.0
H937 H 0.93235 0.56369 0.8298 0.0
H938 H 0.94739 0.62243 0.79887 0.0
H939 H 0.9715 0.62272 0.86242 0.0
C940 C 0.9787 0.65075 0.06811 0.0
C941 C 0.99584 0.66143 0.07058 0.0
C942 C 0.97785 0.63268 0.04608 0.0
C943 C 0.99413 0.62506 0.02621 0.0
C944 C 0.01144 0.63531 0.03167 0.0
C945 C 0.01228 0.65322 0.05383 0.0
C946 C 0.99291 0.60779 0.9947 0.0
C947 C 0.97998 0.60741 0.95661 0.0
C948 C 0.0058 0.5929 0.99847 0.0
C949 C 0.01869 0.59147 0.04002 0.0
C950 C 0.03813 0.5895 0.0332 0.0
C951 C 0.05024 0.5883 0.07239 0.0
C952 C 0.04308 0.58898 0.11862 0.0
C953 C 0.02378 0.59082 0.12577 0.0
C954 C 0.0116 0.59202 0.08671 0.0
C955 C 0.00222 0.55913 0.79843 0.0
C956 C 0.00403 0.53954 0.8078 0.0
C957 C 0.9989 0.57198 0.83557 0.0
C958 C 0.99695 0.5655 0.88279 0.0
C959 C 0.99847 0.54589 0.89203 0.0
C960 C 0.002 0.53308 0.85504 0.0
C961 C 0.99419 0.57929 0.92267 0.0
C962 C 0.00641 0.57902 0.96217 0.0
C963 C 0.98027 0.59323 0.92098 0.0
C964 C 0.96573 0.59319 0.8828 0.0
C965 C 0.95448 0.57658 0.87329 0.0
C966 C 0.94092 0.57653 0.83704 0.0
C967 C 0.93838 0.59304 0.81022 0.0
C968 C 0.94938 0.60965 0.81967 0.0
C969 C 0.96298 0.60978 0.85584 0.0
H970 H 0.92787 0.59297 0.78217 0.0
H971 H 0.05248 0.58806 0.14891 0.0
H972 H 0.05236 0.1822 0.40453 0.0
H973 H 0.03074 0.16106 0.44909 0.0
H974 H 0.0648 0.11312 0.41691 0.0
H975 H 0.08725 0.13426 0.37453 0.0
H976 H 0.01928 0.11655 0.3873 0.0
H977 H 0.06887 0.11638 0.51192 0.0
H978 H 0.09025 0.1328 0.56976 0.0
H979 H 0.04317 0.15908 0.63513 0.0
H980 H 0.02156 0.14301 0.5771 0.0
H981 H 0.00066 0.02935 0.49661 0.0
H982 H 0.0065 0.05892 0.45382 0.0
H983 H 0.98332 0.09069 0.57038 0.0
H984 H 0.97814 0.06098 0.6146 0.0
H985 H 0.01756 0.10173 0.55988 0.0
H986 H 0.96723 0.09501 0.45077 0.0
H987 H 0.94487 0.0793 0.39422 0.0
H988 H 0.99037 0.06772 0.29948 0.0
H989 H 0.01306 0.0831 0.35572 0.0
C990 C 0.05575 0.16732 0.40837 0.0
C991 C 0.07156 0.15993 0.38553 0.0
C992 C 0.04321 0.15526 0.43344 0.0
C993 C 0.04618 0.13563 0.4357 0.0
C994 C 0.06233 0.12829 0.41515 0.0
C995 C 0.07507 0.14038 0.39081 0.0
C996 C 0.0317 0.12246 0.45606 0.0
C997 C 0.01881 0.11316 0.42498 0.0
C998 C 0.03066 0.11896 0.50535 0.0
C999 C 0.04367 0.12878 0.5397 0.0
C1000 C 0.06312 0.12589 0.53817 0.0
C1001 C 0.07527 0.13506 0.57111 0.0
C1002 C 0.06808 0.14705 0.60596 0.0
C1003 C 0.04873 0.14984 0.60801 0.0
C1004 C 0.03653 0.14071 0.57511 0.0
C1005 C 0.99599 0.04248 0.51247 0.0
C1006 C 0.98961 0.04287 0.5598 0.0
C1007 C 0.99927 0.05952 0.48766 0.0
C1008 C 0.9957 0.07716 0.50921 0.0
C1009 C 0.98649 0.07727 0.55337 0.0
C1010 C 0.98344 0.06022 0.57854 0.0
C1011 C 0.00533 0.09487 0.49088 0.0
C1012 C 0.01744 0.10526 0.52227 0.0
C1013 C 0.00546 0.09948 0.44181 0.0
C1014 C 0.99188 0.09019 0.40765 0.0
C1015 C 0.9725 0.08901 0.41803 0.0
C1016 C 0.95976 0.08017 0.38599 0.0
C1017 C 0.9662 0.07251 0.3433 0.0
C1018 C 0.9854 0.07369 0.33254 0.0
C1019 C 0.9982 0.0825 0.36446 0.0
H1020 H 0.95631 0.06567 0.31855 0.0
H1021 H 0.0775 0.15411 0.63149 0.0
H1022 H 0.34046 0.97761 0.4234 0.0
H1023 H 0.36509 0.96015 0.46351 0.0
H1024 H 0.40753 0.99835 0.40248 0.0
H1025 H 0.38308 0.01662 0.36445 0.0
H1026 H 0.41182 0.95496 0.39212 0.0
H1027 H 0.40109 0.00699 0.50527 0.0
H1028 H 0.38107 0.02566 0.55814 0.0
H1029 H 0.36504 0.97462 0.63514 0.0
H1030 H 0.3848 0.9556 0.58219 0.0
H1031 H 0.49749 0.96685 0.50571 0.0
H1032 H 0.46846 0.96156 0.4616 0.0
H1033 H 0.44326 0.93263 0.58266 0.0
H1034 H 0.47225 0.9387 0.62811 0.0
H1035 H 0.42483 0.96204 0.56509 0.0
H1036 H 0.44323 0.91188 0.46614 0.0
H1037 H 0.46349 0.89307 0.41434 0.0
H1038 H 0.46498 0.93823 0.31095 0.0
H1039 H 0.44497 0.95747 0.36236 0.0
C1040 C 0.35499 0.98261 0.41931 0.0
C1041 C 0.35976 0.99853 0.39049 0.0
C1042 C 0.36902 0.97243 0.44174 0.0
C1043 C 0.38802 0.97785 0.43514 0.0
C1044 C 0.39288 0.99383 0.40715 0.0
C1045 C 0.37888 0.00422 0.38546 0.0
C1046 C 0.40299 0.96721 0.45832 0.0
C1047 C 0.4148 0.95638 0.42993 0.0
C1048 C 0.40613 0.96845 0.50785 0.0
C1049 C 0.39415 0.97984 0.53935 0.0
C1050 C 0.39311 0.99972 0.5331 0.0
C1051 C 0.38186 0.01037 0.56317 0.0
C1052 C 0.37172 0.00132 0.59986 0.0
C1053 C 0.37285 0.9816 0.60662 0.0
C1054 C 0.38407 0.97088 0.5766 0.0
C1055 C 0.48609 0.95866 0.52251 0.0
C1056 C 0.48694 0.95385 0.57105 0.0
C1057 C 0.46941 0.95546 0.4969 0.0
C1058 C 0.45347 0.94696 0.51899 0.0
C1059 C 0.45529 0.93948 0.5651 0.0
C1060 C 0.47191 0.94293 0.59104 0.0
C1061 C 0.43453 0.9502 0.4987 0.0
C1062 C 0.42176 0.9598 0.52754 0.0
C1063 C 0.4305 0.94764 0.44958 0.0
C1064 C 0.44258 0.93615 0.41828 0.0
C1065 C 0.44796 0.91787 0.4325 0.0
C1066 C 0.4594 0.90711 0.40316 0.0
C1067 C 0.46552 0.91445 0.35939 0.0
C1068 C 0.4602 0.93255 0.34483 0.0
C1069 C 0.44876 0.94337 0.37403 0.0
H1070 H 0.47438 0.90609 0.33673 0.0
H1071 H 0.36304 0.0096 0.62315 0.0
H1072 H 0.42804 0.34286 0.37791 0.0
H1073 H 0.44868 0.36689 0.41735 0.0
H1074 H 0.47801 0.32228 0.48836 0.0
H1075 H 0.45825 0.29811 0.44733 0.0
H1076 H 0.47069 0.36131 0.54137 0.0
H1077 H 0.49767 0.33161 0.40034 0.0
H1078 H 0.49439 0.32067 0.31698 0.0
H1079 H 0.48408 0.37806 0.27264 0.0
H1080 H 0.48683 0.38924 0.356 0.0
H1081 H 0.54802 0.42036 0.60025 0.0
H1082 H 0.53315 0.3911 0.56756 0.0
H1083 H 0.51125 0.42315 0.45003 0.0
H1084 H 0.52639 0.45234 0.48167 0.0
H1085 H 0.51618 0.38785 0.42237 0.0
H1086 H 0.48692 0.41841 0.55394 0.0
H1087 H 0.48251 0.43134 0.6348 0.0
H1088 H 0.49169 0.37603 0.69464 0.0
H1089 H 0.49649 0.36282 0.6141 0.0
C1090 C 0.43862 0.33813 0.40265 0.0
C1091 C 0.44178 0.31852 0.40842 0.0
C1092 C 0.4503 0.35188 0.42532 0.0
C1093 C 0.465 0.34623 0.4549 0.0
C1094 C 0.46673 0.32682 0.46545 0.0
C1095 C 0.45528 0.31303 0.44212 0.0
C1096 C 0.48009 0.36023 0.46885 0.0
C1097 C 0.48093 0.36687 0.51584 0.0
C1098 C 0.49297 0.36775 0.4348 0.0
C1099 C 0.4923 0.36123 0.38443 0.0
C1100 C 0.49459 0.34187 0.37285 0.0
C1101 C 0.49282 0.33563 0.32562 0.0
C1102 C 0.489 0.34866 0.28954 0.0
C1103 C 0.48703 0.36798 0.30063 0.0
C1104 C 0.48869 0.37428 0.34786 0.0
C1105 C 0.54073 0.4211 0.56637 0.0
C1106 C 0.53789 0.43884 0.54441 0.0
C1107 C 0.53207 0.40435 0.54798 0.0
C1108 C 0.52047 0.40512 0.50748 0.0
C1109 C 0.51988 0.42227 0.48182 0.0
C1110 C 0.52861 0.439 0.5 0.0
C1111 C 0.50702 0.38904 0.49547 0.0
C1112 C 0.50633 0.38203 0.44853 0.0
C1113 C 0.49396 0.38151 0.52943 0.0
C1114 C 0.49229 0.38968 0.57802 0.0
C1115 C 0.4883 0.40907 0.58436 0.0
C1116 C 0.48566 0.41643 0.63011 0.0
C1117 C 0.48676 0.40448 0.66974 0.0
C1118 C 0.49083 0.38524 0.66384 0.0
C1119 C 0.49354 0.37782 0.61817 0.0
H1120 H 0.48425 0.41007 0.70497 0.0
H1121 H 0.48759 0.34379 0.25301 0.0
H1122 H 0.18619 0.57684 0.42806 0.0
H1123 H 0.15848 0.57916 0.47768 0.0
H1124 H 0.13685 0.62184 0.38365 0.0
H1125 H 0.16479 0.61957 0.33332 0.0
H1126 H 0.13688 0.60299 0.52664 0.0
H1127 H 0.09096 0.60804 0.36105 0.0
H1128 H 0.09309 0.60473 0.2736 0.0
H1129 H 0.1356 0.56321 0.29007 0.0
H1130 H 0.13346 0.56607 0.37752 0.0
H1131 H 0.04631 0.56798 0.61066 0.0
H1132 H 0.06697 0.59072 0.56633 0.0
H1133 H 0.08833 0.54386 0.48504 0.0
H1134 H 0.06812 0.52132 0.5291 0.0
H1135 H 0.08349 0.57597 0.42983 0.0
H1136 H 0.10953 0.55747 0.58314 0.0
H1137 H 0.10869 0.55565 0.67063 0.0
H1138 H 0.10941 0.61702 0.67977 0.0
H1139 H 0.10953 0.61915 0.59192 0.0
C1140 C 0.17598 0.58734 0.41885 0.0
C1141 C 0.17753 0.59776 0.3762 0.0
C1142 C 0.16008 0.58865 0.4474 0.0
C1143 C 0.14541 0.60038 0.43385 0.0
C1144 C 0.14789 0.61248 0.39434 0.0
C1145 C 0.16381 0.6111 0.36552 0.0
C1146 C 0.12661 0.59691 0.45564 0.0
C1147 C 0.12499 0.59761 0.50544 0.0
C1148 C 0.11114 0.58966 0.42805 0.0
C1149 C 0.11222 0.58748 0.37563 0.0
C1150 C 0.1007 0.59817 0.34592 0.0
C1151 C 0.10191 0.59636 0.2964 0.0
C1152 C 0.11452 0.58382 0.27629 0.0
C1153 C 0.12586 0.57296 0.30566 0.0
C1154 C 0.12465 0.57465 0.35518 0.0
C1155 C 0.05516 0.56267 0.58264 0.0
C1156 C 0.05583 0.54291 0.57362 0.0
C1157 C 0.06691 0.57563 0.55742 0.0
C1158 C 0.07918 0.56894 0.52251 0.0
C1159 C 0.0789 0.54934 0.51162 0.0
C1160 C 0.06747 0.53645 0.53714 0.0
C1161 C 0.09401 0.58152 0.50079 0.0
C1162 C 0.09491 0.58242 0.45096 0.0
C1163 C 0.10901 0.5897 0.52839 0.0
C1164 C 0.10922 0.58846 0.58106 0.0
C1165 C 0.10931 0.57057 0.60379 0.0
C1166 C 0.10899 0.56948 0.65346 0.0
C1167 C 0.10902 0.58621 0.68084 0.0
C1168 C 0.10934 0.60407 0.65852 0.0
C1169 C 0.10945 0.60523 0.60878 0.0
H1170 H 0.10883 0.58534 0.71933 0.0
H1171 H 0.11547 0.58249 0.23795 0.0
H1172 H 0.0075 0.84184 0.92875 0.0
H1173 H 0.02537 0.86333 0.87532 0.0
H1174 H 0.07515 0.83115 0.89863 0.0
H1175 H 0.05711 0.8093 0.95148 0.0
H1176 H 0.07899 0.87114 0.92004 0.0
H1177 H 0.06071 0.83073 0.7914 0.0
H1178 H 0.03941 0.81028 0.74167 0.0
H1179 H 0.00581 0.85846 0.7108 0.0
H1180 H 0.02667 0.87914 0.76102 0.0
H1181 H 0.07998 0.94821 0.712 0.0
H1182 H 0.09016 0.91759 0.74375 0.0
H1183 H 0.05801 0.92678 0.87131 0.0
H1184 H 0.04737 0.95688 0.83898 0.0
H1185 H 0.06008 0.89131 0.75812 0.0
H1186 H 0.07643 0.9023 0.9614 0.0
H1187 H 0.09665 0.92357 0.01176 0.0
H1188 H 0.13355 0.93491 0.89354 0.0
H1189 H 0.11374 0.91348 0.84254 0.0
C1190 C 0.02212 0.83912 0.92144 0.0
C1191 C 0.031 0.82402 0.94393 0.0
C1192 C 0.03228 0.85129 0.89088 0.0
C1193 C 0.05152 0.8487 0.88292 0.0
C1194 C 0.06028 0.83323 0.9041 0.0
C1195 C 0.04999 0.82079 0.93404 0.0
C1196 C 0.06262 0.86371 0.85746 0.0
C1197 C 0.07522 0.87543 0.88426 0.0
C1198 C 0.05801 0.86889 0.81037 0.0
C1199 C 0.04531 0.85651 0.78008 0.0
C1200 C 0.04871 0.83695 0.77429 0.0
C1201 C 0.03671 0.82531 0.74596 0.0
C1202 C 0.02127 0.83307 0.72308 0.0
C1203 C 0.01779 0.85248 0.72849 0.0
C1204 C 0.02973 0.86417 0.75683 0.0
C1205 C 0.07591 0.94407 0.74779 0.0
C1206 C 0.06295 0.95473 0.77329 0.0
C1207 C 0.08167 0.9266 0.76577 0.0
C1208 C 0.07487 0.91997 0.80985 0.0
C1209 C 0.06365 0.93176 0.83754 0.0
C1210 C 0.05754 0.94893 0.8191 0.0
C1211 C 0.07522 0.89947 0.82216 0.0
C1212 C 0.06462 0.88668 0.79305 0.0
C1213 C 0.08148 0.89344 0.86728 0.0
C1214 C 0.09356 0.90623 0.89806 0.0
C1215 C 0.08894 0.90918 0.94617 0.0
C1216 C 0.10031 0.92131 0.97484 0.0
C1217 C 0.11637 0.93059 0.95587 0.0
C1218 C 0.12109 0.92774 0.90817 0.0
C1219 C 0.10977 0.91562 0.87934 0.0
H1220 H 0.12515 0.93998 0.97812 0.0
H1221 H 0.01201 0.82403 0.70114 0.0
H1222 H 0.70013 0.07493 0.98413 0.0
H1223 H 0.67513 0.0806 0.92543 0.0
H1224 H 0.63783 0.04076 0.99972 0.0
H1225 H 0.66255 0.03498 0.05775 0.0
H1226 H 0.63967 0.03383 0.90255 0.0
H1227 H 0.63176 0.08666 0.01213 0.0
H1228 H 0.64247 0.11573 0.05608 0.0
H1229 H 0.65441 0.14451 0.92402 0.0
H1230 H 0.64401 0.11549 0.87929 0.0
H1231 H 0.54693 0.05186 0.83332 0.0
H1232 H 0.57268 0.06486 0.88384 0.0
H1233 H 0.6096 0.06698 0.76227 0.0
H1234 H 0.58406 0.05369 0.71211 0.0
H1235 H 0.60925 0.09585 0.87792 0.0
H1236 H 0.63224 0.03329 0.78421 0.0
H1237 H 0.61971 0.0049 0.73979 0.0
H1238 H 0.57622 0.99622 0.8443 0.0
H1239 H 0.58853 0.02459 0.88907 0.0
C1240 C 0.68656 0.06746 0.98781 0.0
C1241 C 0.6832 0.05463 0.0256 0.0
C1242 C 0.67232 0.07077 0.95455 0.0
C1243 C 0.65467 0.06114 0.95853 0.0
C1244 C 0.65135 0.04836 0.99618 0.0
C1245 C 0.66544 0.04518 0.02947 0.0
C1246 C 0.63965 0.06364 0.92282 0.0
C1247 C 0.63317 0.04744 0.89709 0.0
C1248 C 0.63117 0.0814 0.91555 0.0
C1249 C 0.63731 0.09885 0.9424 0.0
C1250 C 0.63683 0.09913 0.99248 0.0
C1251 C 0.64281 0.11561 0.01753 0.0
C1252 C 0.64918 0.13193 0.99286 0.0
C1253 C 0.64951 0.13184 0.94308 0.0
C1254 C 0.64356 0.11539 0.91787 0.0
C1255 C 0.56022 0.0562 0.81704 0.0
C1256 C 0.56368 0.05186 0.76918 0.0
C1257 C 0.57489 0.06367 0.84578 0.0
C1258 C 0.59297 0.06682 0.82659 0.0
C1259 C 0.59567 0.06484 0.77744 0.0
C1260 C 0.58112 0.05719 0.74892 0.0
C1261 C 0.60944 0.06607 0.85839 0.0
C1262 C 0.6161 0.08242 0.88312 0.0
C1263 C 0.61815 0.04848 0.86516 0.0
C1264 C 0.61136 0.03087 0.83998 0.0
C1265 C 0.62014 0.02516 0.79784 0.0
C1266 C 0.61303 0.00916 0.77253 0.0
C1267 C 0.59721 0.99875 0.78928 0.0
C1268 C 0.58849 0.00428 0.83143 0.0
C1269 C 0.59552 0.0203 0.85676 0.0
H1270 H 0.59167 0.98642 0.76955 0.0
H1271 H 0.6538 0.14468 0.01232 0.0
H1272 H 0.46647 0.69216 0.92802 0.0
H1273 H 0.45315 0.66393 0.88493 0.0
H1274 H 0.50932 0.6475 0.84971 0.0
H1275 H 0.52254 0.67541 0.89259 0.0
H1276 H 0.46362 0.64385 0.78187 0.0
H1277 H 0.51064 0.6069 0.91525 0.0
H1278 H 0.52354 0.61311 0.99581 0.0
H1279 H 0.47389 0.6427 0.03346 0.0
H1280 H 0.46052 0.6363 0.95345 0.0
H1281 H 0.51305 0.56735 0.7129 0.0
H1282 H 0.4993 0.59558 0.74624 0.0
H1283 H 0.45949 0.56003 0.82524 0.0
H1284 H 0.47318 0.53121 0.79089 0.0
H1285 H 0.48073 0.58807 0.87991 0.0
H1286 H 0.44064 0.58668 0.74572 0.0
H1287 H 0.4318 0.58217 0.66129 0.0
H1288 H 0.46925 0.62918 0.62212 0.0
H1289 H 0.47856 0.63382 0.70615 0.0
C1290 C 0.47583 0.68289 0.90927 0.0
C1291 C 0.49546 0.68575 0.91338 0.0
C1292 C 0.46825 0.66684 0.88487 0.0
C1293 C 0.48032 0.65368 0.86469 0.0
C1294 C 0.49984 0.65756 0.86517 0.0
C1295 C 0.50737 0.67345 0.88954 0.0
C1296 C 0.47341 0.6344 0.85006 0.0
C1297 C 0.46681 0.63154 0.80344 0.0
C1298 C 0.47729 0.61849 0.87897 0.0
C1299 C 0.4846 0.62114 0.92832 0.0
C1300 C 0.50236 0.61449 0.94093 0.0
C1301 C 0.50979 0.61811 0.98645 0.0
C1302 C 0.49956 0.62832 0.01971 0.0
C1303 C 0.48181 0.6348 0.00765 0.0
C1304 C 0.4743 0.63117 0.96224 0.0
C1305 C 0.50132 0.56542 0.73722 0.0
C1306 C 0.49432 0.54704 0.74974 0.0
C1307 C 0.49331 0.58162 0.75574 0.0
C1308 C 0.47819 0.57988 0.78751 0.0
C1309 C 0.47101 0.5616 0.80019 0.0
C1310 C 0.47887 0.54522 0.78082 0.0
C1311 C 0.47177 0.59744 0.8107 0.0
C1312 C 0.47626 0.60011 0.85898 0.0
C1313 C 0.46595 0.61312 0.7832 0.0
C1314 C 0.46026 0.61063 0.73244 0.0
C1315 C 0.44705 0.59603 0.71911 0.0
C1316 C 0.44196 0.59344 0.67129 0.0
C1317 C 0.44995 0.60539 0.63638 0.0
C1318 C 0.46304 0.61997 0.64923 0.0
C1319 C 0.46819 0.62262 0.697 0.0
H1320 H 0.446 0.60335 0.59936 0.0
H1321 H 0.50538 0.63122 0.05482 0.0
H1322 H 0.83863 0.42376 0.90348 0.0
H1323 H 0.86677 0.42167 0.85515 0.0
H1324 H 0.89384 0.39078 0.96737 0.0
H1325 H 0.86526 0.39202 0.01547 0.0
H1326 H 0.89825 0.43973 0.88317 0.0
H1327 H 0.93078 0.3662 0.91765 0.0
H1328 H 0.92027 0.33253 0.93006 0.0
H1329 H 0.86926 0.34194 0.85242 0.0
H1330 H 0.87957 0.37558 0.83897 0.0
H1331 H 0.99309 0.45007 0.8388 0.0
H1332 H 0.96672 0.43458 0.88104 0.0
H1333 H 0.94653 0.40873 0.74991 0.0
H1334 H 0.97284 0.42418 0.70706 0.0
H1335 H 0.9387 0.38617 0.83935 0.0
H1336 H 0.93038 0.44821 0.76472 0.0
H1337 H 0.94056 0.48165 0.74777 0.0
H1338 H 0.94055 0.49459 0.89745 0.0
H1339 H 0.93059 0.46112 0.91525 0.0
C1340 C 0.85021 0.41581 0.91733 0.0
C1341 C 0.84971 0.40823 0.9637 0.0
C1342 C 0.8664 0.41479 0.88971 0.0
C1343 C 0.88245 0.40624 0.90781 0.0
C1344 C 0.88158 0.39738 0.95259 0.0
C1345 C 0.8653 0.39828 0.98023 0.0
C1346 C 0.90068 0.40905 0.88283 0.0
C1347 C 0.90698 0.42794 0.87348 0.0
C1348 C 0.91215 0.39373 0.87026 0.0
C1349 C 0.90588 0.37347 0.87774 0.0
C1350 C 0.91735 0.36107 0.90308 0.0
C1351 C 0.91142 0.34199 0.91031 0.0
C1352 C 0.89408 0.33512 0.89217 0.0
C1353 C 0.88265 0.3473 0.86663 0.0
C1354 C 0.88852 0.36638 0.85927 0.0
C1355 C 0.98345 0.44057 0.81908 0.0
C1356 C 0.9848 0.43875 0.76931 0.0
C1357 C 0.96842 0.43167 0.8434 0.0
C1358 C 0.95462 0.42076 0.81837 0.0
C1359 C 0.95709 0.4171 0.76975 0.0
C1360 C 0.97207 0.42608 0.74529 0.0
C1361 C 0.93605 0.41673 0.84038 0.0
C1362 C 0.92981 0.39779 0.84921 0.0
C1363 C 0.92437 0.43194 0.85196 0.0
C1364 C 0.92992 0.45216 0.84132 0.0
C1365 C 0.93266 0.45817 0.794 0.0
C1366 C 0.93838 0.47712 0.78424 0.0
C1367 C 0.94126 0.49022 0.82152 0.0
C1368 C 0.93834 0.48441 0.86862 0.0
C1369 C 0.93264 0.46547 0.87856 0.0
H1370 H 0.94572 0.50488 0.81392 0.0
H1371 H 0.88951 0.32034 0.89783 0.0
H1372 H 0.11255 0.18073 0.98223 0.0
H1373 H 0.10525 0.15583 0.9228 0.0
H1374 H 0.0488 0.17582 0.90944 0.0
H1375 H 0.05612 0.2008 0.96918 0.0
H1376 H 0.04919 0.13797 0.93154 0.0
H1377 H 0.07897 0.17908 0.81605 0.0
H1378 H 0.10425 0.20016 0.78272 0.0
H1379 H 0.14216 0.15385 0.78574 0.0
H1380 H 0.11719 0.13255 0.81973 0.0
H1381 H 0.01821 0.07132 0.7578 0.0
H1382 H 0.02757 0.10093 0.79867 0.0
H1383 H 0.08467 0.08251 0.80902 0.0
H1384 H 0.07544 0.05271 0.76697 0.0
H1385 H 0.08398 0.12021 0.78607 0.0
H1386 H 0.05558 0.07972 0.90495 0.0
H1387 H 0.03105 0.05824 0.94012 0.0
H1388 H 0.99151 0.10305 0.93356 0.0
H1389 H 0.01575 0.12474 0.89771 0.0
C1390 C 0.09879 0.1802 0.96537 0.0
C1391 C 0.08492 0.19272 0.9801 0.0
C1392 C 0.09461 0.16595 0.93142 0.0
C1393 C 0.07646 0.1639 0.91163 0.0
C1394 C 0.06291 0.17714 0.92421 0.0
C1395 C 0.06714 0.19153 0.95794 0.0
C1396 C 0.07108 0.14669 0.88243 0.0
C1397 C 0.05656 0.1343 0.89918 0.0
C1398 C 0.08118 0.14149 0.84126 0.0
C1399 C 0.09624 0.15426 0.82085 0.0
C1400 C 0.09275 0.17343 0.81001 0.0
C1401 C 0.10701 0.18541 0.79091 0.0
C1402 C 0.12481 0.17836 0.78223 0.0
C1403 C 0.12837 0.1593 0.79253 0.0
C1404 C 0.11416 0.14726 0.81166 0.0
C1405 C 0.03279 0.07345 0.76869 0.0
C1406 C 0.04603 0.05945 0.75939 0.0
C1407 C 0.03812 0.09045 0.79221 0.0
C1408 C 0.05677 0.09387 0.80765 0.0
C1409 C 0.07017 0.08017 0.79758 0.0
C1410 C 0.06486 0.0631 0.77372 0.0
C1411 C 0.062 0.1116 0.83507 0.0
C1412 C 0.07654 0.12399 0.81822 0.0
C1413 C 0.05204 0.11678 0.87651 0.0
C1414 C 0.03744 0.10379 0.8982 0.0
C1415 C 0.04162 0.08495 0.91066 0.0
C1416 C 0.02777 0.07274 0.93077 0.0
C1417 C 0.00972 0.07926 0.93895 0.0
C1418 C 0.00549 0.09802 0.92714 0.0
C1419 C 0.01929 0.11028 0.90696 0.0
H1420 H 0.99902 0.06979 0.95453 0.0
H1421 H 0.13583 0.18766 0.76743 0.0
H1422 H 0.34104 0.06422 0.98112 0.0
H1423 H 0.36336 0.05918 0.9167 0.0
H1424 H 0.34868 0.9987 0.91804 0.0
H1425 H 0.32638 0.00381 0.98297 0.0
H1426 H 0.38543 0.00505 0.93251 0.0
H1427 H 0.34126 0.02644 0.81813 0.0
H1428 H 0.31815 0.0478 0.78325 0.0
H1429 H 0.36053 0.09325 0.77588 0.0
H1430 H 0.38386 0.07224 0.81136 0.0
H1431 H 0.45317 0.98273 0.76026 0.0
H1432 H 0.42311 0.98721 0.79944 0.0
H1433 H 0.43498 0.04816 0.80481 0.0
H1434 H 0.46513 0.04384 0.76457 0.0
H1435 H 0.39824 0.04031 0.78228 0.0
H1436 H 0.44127 0.02023 0.9029 0.0
H1437 H 0.46458 0.99939 0.93907 0.0
H1438 H 0.42411 0.95209 0.93628 0.0
H1439 H 0.40063 0.97259 0.89947 0.0
C1440 C 0.3419 0.05 0.96597 0.0
C1441 C 0.33183 0.03443 0.98665 0.0
C1442 C 0.35476 0.04709 0.92926 0.0
C1443 C 0.35784 0.02852 0.91246 0.0
C1444 C 0.3466 0.01316 0.93037 0.0
C1445 C 0.33364 0.0161 0.96701 0.0
C1446 C 0.37451 0.02493 0.88187 0.0
C1447 C 0.38797 0.01245 0.89908 0.0
C1448 C 0.37827 0.03508 0.83909 0.0
C1449 C 0.36428 0.04779 0.8178 0.0
C1450 C 0.34563 0.04103 0.80946 0.0
C1451 C 0.33249 0.05307 0.78949 0.0
C1452 C 0.33786 0.07188 0.77745 0.0
C1453 C 0.35639 0.07868 0.78526 0.0
C1454 C 0.36958 0.0667 0.80524 0.0
C1455 C 0.44946 0.99714 0.76962 0.0
C1456 C 0.46176 0.01291 0.75956 0.0
C1457 C 0.43221 0.99966 0.79216 0.0
C1458 C 0.42683 0.01799 0.80581 0.0
C1459 C 0.4388 0.03386 0.79475 0.0
C1460 C 0.4561 0.03135 0.77192 0.0
C1461 C 0.40904 0.02044 0.833 0.0
C1462 C 0.3955 0.03276 0.81538 0.0
C1463 C 0.40519 0.01023 0.87564 0.0
C1464 C 0.41926 0.9979 0.89797 0.0
C1465 C 0.43739 0.00535 0.90967 0.0
C1466 C 0.45063 0.9936 0.93033 0.0
C1467 C 0.44585 0.97441 0.93984 0.0
C1468 C 0.4278 0.96694 0.92882 0.0
C1469 C 0.41452 0.97862 0.90809 0.0
H1470 H 0.45611 0.96534 0.95584 0.0
H1471 H 0.32767 0.08118 0.76198 0.0
H1472 H 0.47981 0.33187 0.06726 0.0
H1473 H 0.48933 0.35641 0.00961 0.0
H1474 H 0.47224 0.31836 0.89452 0.0
H1475 H 0.46226 0.29377 0.95299 0.0
H1476 H 0.51307 0.36104 0.94081 0.0
H1477 H 0.45307 0.34559 0.80513 0.0
H1478 H 0.42113 0.33033 0.80223 0.0
H1479 H 0.41374 0.34249 0.9509 0.0
H1480 H 0.44551 0.35805 0.95448 0.0
H1481 H 0.52896 0.42148 0.74467 0.0
H1482 H 0.52153 0.39356 0.79339 0.0
H1483 H 0.47125 0.41962 0.8436 0.0
H1484 H 0.47833 0.44766 0.79325 0.0
H1485 H 0.46425 0.38251 0.82819 0.0
H1486 H 0.51193 0.41953 0.91208 0.0
H1487 H 0.54237 0.43733 0.9224 0.0
H1488 H 0.57184 0.38638 0.89092 0.0
H1489 H 0.54155 0.36834 0.87977 0.0
C1490 C 0.47854 0.3286 0.02958 0.0
C1491 C 0.47044 0.31096 0.01439 0.0
C1492 C 0.48394 0.34264 0.99662 0.0
C1493 C 0.48127 0.33941 0.94763 0.0
C1494 C 0.47418 0.32131 0.93216 0.0
C1495 C 0.4687 0.30719 0.9654 0.0
C1496 C 0.48495 0.35551 0.91376 0.0
C1497 C 0.50244 0.36559 0.9159 0.0
C1498 C 0.47094 0.36186 0.88201 0.0
C1499 C 0.45174 0.35275 0.88016 0.0
C1500 C 0.4446 0.34504 0.83714 0.0
C1501 C 0.42653 0.33634 0.83539 0.0
C1502 C 0.41544 0.33538 0.8764 0.0
C1503 C 0.42237 0.34318 0.9192 0.0
C1504 C 0.44041 0.35193 0.92112 0.0
C1505 C 0.51632 0.42142 0.76614 0.0
C1506 C 0.50436 0.43701 0.76545 0.0
C1507 C 0.5121 0.40535 0.79406 0.0
C1508 C 0.49603 0.40458 0.82296 0.0
C1509 C 0.48379 0.41991 0.82172 0.0
C1510 C 0.48789 0.43598 0.79315 0.0
C1511 C 0.49239 0.38794 0.85521 0.0
C1512 C 0.47494 0.3778 0.85273 0.0
C1513 C 0.50623 0.38185 0.88772 0.0
C1514 C 0.52447 0.39263 0.89465 0.0
C1515 C 0.5249 0.41216 0.90704 0.0
C1516 C 0.54213 0.42228 0.91308 0.0
C1517 C 0.55903 0.413 0.9072 0.0
C1518 C 0.55874 0.39356 0.8954 0.0
C1519 C 0.54155 0.38337 0.88925 0.0
H1520 H 0.57235 0.42087 0.91189 0.0
H1521 H 0.40147 0.32862 0.87498 0.0
H1522 H 0.20243 0.54267 0.99695 0.0
H1523 H 0.18001 0.53262 0.93529 0.0
H1524 H 0.19364 0.47369 0.95767 0.0
H1525 H 0.21541 0.48372 0.022 0.0
H1526 H 0.17811 0.51634 0.85526 0.0
H1527 H 0.15415 0.44497 0.94194 0.0
H1528 H 0.15402 0.42935 0.02072 0.0
H1529 H 0.15384 0.48431 0.08947 0.0
H1530 H 0.15374 0.50021 0.01113 0.0
H1531 H 0.10265 0.48033 0.70901 0.0
H1532 H 0.1321 0.48207 0.7547 0.0
H1533 H 0.10077 0.49115 0.88366 0.0
H1534 H 0.07137 0.48873 0.83866 0.0
H1535 H 0.12759 0.46956 0.90434 0.0
H1536 H 0.1244 0.52925 0.82072 0.0
H1537 H 0.12183 0.55061 0.75155 0.0
H1538 H 0.17119 0.52712 0.69015 0.0
H1539 H 0.17406 0.50562 0.75924 0.0
C1540 C 0.20077 0.52755 0.98863 0.0
C1541 C 0.21038 0.51396 0.01523 0.0
C1542 C 0.18802 0.52181 0.95292 0.0
C1543 C 0.18471 0.50232 0.94235 0.0
C1544 C 0.19556 0.48879 0.96589 0.0
C1545 C 0.2082 0.49454 0.00229 0.0
C1546 C 0.16884 0.49647 0.90967 0.0
C1547 C 0.1672 0.50591 0.8658 0.0
C1548 C 0.1543 0.48316 0.92351 0.0
C1549 C 0.15419 0.47375 0.97074 0.0
C1550 C 0.15405 0.4537 0.9739 0.0
C1551 C 0.15401 0.4448 0.01845 0.0
C1552 C 0.154 0.45583 0.06007 0.0
C1553 C 0.15393 0.47578 0.05722 0.0
C1554 C 0.15392 0.48474 0.01277 0.0
C1555 C 0.10203 0.48252 0.74717 0.0
C1556 C 0.0846 0.48446 0.77006 0.0
C1557 C 0.11891 0.48362 0.77327 0.0
C1558 C 0.11877 0.48703 0.82268 0.0
C1559 C 0.10135 0.48846 0.84567 0.0
C1560 C 0.08448 0.48712 0.81977 0.0
C1561 C 0.13665 0.48979 0.85052 0.0
C1562 C 0.1387 0.47968 0.89331 0.0
C1563 C 0.15116 0.50312 0.83675 0.0
C1564 C 0.14929 0.51567 0.79474 0.0
C1565 C 0.1346 0.52853 0.79224 0.0
C1566 C 0.13312 0.54069 0.75311 0.0
C1567 C 0.14627 0.54015 0.71627 0.0
C1568 C 0.16098 0.52748 0.71863 0.0
C1569 C 0.16256 0.51534 0.75781 0.0
H1570 H 0.14513 0.5496 0.68602 0.0
H1571 H 0.154 0.44892 0.09452 0.0
H1572 H 0.01529 0.81907 0.32328 0.0
H1573 H 0.01645 0.84202 0.38808 0.0
H1574 H 0.9707 0.81091 0.4578 0.0
H1575 H 0.96877 0.78818 0.39046 0.0
H1576 H 0.96425 0.84707 0.46186 0.0
H1577 H 0.01745 0.81281 0.50414 0.0
H1578 H 0.04705 0.79602 0.49407 0.0
H1579 H 0.07511 0.84829 0.44843 0.0
H1580 H 0.04563 0.86536 0.45752 0.0
H1581 H 0.98791 0.91901 0.64942 0.0
H1582 H 0.98356 0.88758 0.61032 0.0
H1583 H 0.01041 0.9102 0.48395 0.0
H1584 H 0.0144 0.94157 0.52191 0.0
H1585 H 0.02486 0.87353 0.52744 0.0
H1586 H 0.96774 0.90495 0.47449 0.0
H1587 H 0.93783 0.92053 0.49017 0.0
H1588 H 0.91727 0.87087 0.56653 0.0
H1589 H 0.9472 0.85511 0.55185 0.0
C1590 C 0.00547 0.81699 0.35242 0.0
C1591 C 0.99175 0.80191 0.3513 0.0
C1592 C 0.00633 0.83005 0.39001 0.0
C1593 C 0.99387 0.82817 0.42856 0.0
C1594 C 0.98053 0.81268 0.42862 0.0
C1595 C 0.97953 0.79959 0.39036 0.0
C1596 C 0.99422 0.8433 0.46636 0.0
C1597 C 0.97748 0.85249 0.47709 0.0
C1598 C 0.0114 0.85052 0.48677 0.0
C1599 C 0.02927 0.84036 0.48138 0.0
C1600 C 0.0299 0.82072 0.49169 0.0
C1601 C 0.04667 0.81115 0.48618 0.0
C1602 C 0.06294 0.82108 0.47058 0.0
C1603 C 0.0625 0.84062 0.46054 0.0
C1604 C 0.04576 0.85026 0.46597 0.0
C1605 C 0.9927 0.91733 0.61312 0.0
C1606 C 0.00145 0.93286 0.58877 0.0
C1607 C 0.99022 0.89937 0.59091 0.0
C1608 C 0.99673 0.89659 0.54433 0.0
C1609 C 0.00532 0.91206 0.51995 0.0
C1610 C 0.00749 0.93003 0.54167 0.0
C1611 C 0.99513 0.87754 0.52078 0.0
C1612 C 0.01165 0.86769 0.51297 0.0
C1613 C 0.97775 0.8695 0.5041 0.0
C1614 C 0.95978 0.87897 0.51264 0.0
C1615 C 0.95692 0.89744 0.49505 0.0
C1616 C 0.93995 0.90628 0.50365 0.0
C1617 C 0.92568 0.89673 0.52948 0.0
C1618 C 0.92834 0.87828 0.54663 0.0
C1619 C 0.9453 0.86938 0.53816 0.0
H1620 H 0.91255 0.90359 0.53609 0.0
H1621 H 0.07591 0.81364 0.46632 0.0
H1622 H 0.72662 0.96057 0.38397 0.0
H1623 H 0.70131 0.95482 0.44214 0.0
H1624 H 0.70336 0.01491 0.47811 0.0
H1625 H 0.72882 0.02051 0.42104 0.0
H1626 H 0.69206 0.99497 0.55343 0.0
H1627 H 0.6758 0.99789 0.38764 0.0
H1628 H 0.67743 0.9882 0.30327 0.0
H1629 H 0.6566 0.93158 0.33937 0.0
H1630 H 0.65521 0.94087 0.4242 0.0
H1631 H 0.58257 0.9977 0.52741 0.0
H1632 H 0.61378 0.99541 0.4923 0.0
H1633 H 0.63379 0.96935 0.62121 0.0
H1634 H 0.60282 0.97261 0.65742 0.0
H1635 H 0.63519 0.96962 0.46728 0.0
H1636 H 0.68056 0.97947 0.63806 0.0
H1637 H 0.6788 0.99443 0.7176 0.0
H1638 H 0.6397 0.03449 0.66398 0.0
H1639 H 0.64146 0.01997 0.58395 0.0
C1640 C 0.7223 0.97232 0.4061 0.0
C1641 C 0.72962 0.99098 0.39806 0.0
C1642 C 0.70767 0.96909 0.43892 0.0
C1643 C 0.70007 0.98452 0.46368 0.0
C1644 C 0.70887 0.00278 0.45941 0.0
C1645 C 0.72348 0.00597 0.42686 0.0
C1646 C 0.68146 0.98247 0.48798 0.0
C1647 C 0.67966 0.98919 0.53488 0.0
C1648 C 0.6651 0.97555 0.46331 0.0
C1649 C 0.66561 0.97 0.41229 0.0
C1650 C 0.67168 0.98334 0.37761 0.0
C1651 C 0.67256 0.97792 0.32972 0.0
C1652 C 0.66716 0.95927 0.31598 0.0
C1653 C 0.66082 0.94601 0.3501 0.0
C1654 C 0.65999 0.95134 0.3981 0.0
C1655 C 0.59359 0.99139 0.54823 0.0
C1656 C 0.59021 0.98545 0.59534 0.0
C1657 C 0.61148 0.99005 0.52806 0.0
C1658 C 0.62638 0.98249 0.5542 0.0
C1659 C 0.62277 0.97573 0.60057 0.0
C1660 C 0.60498 0.97746 0.62116 0.0
C1661 C 0.64566 0.98214 0.53302 0.0
C1662 C 0.64759 0.97503 0.48645 0.0
C1663 C 0.66199 0.98945 0.55739 0.0
C1664 C 0.66099 0.99848 0.60518 0.0
C1665 C 0.67164 0.99152 0.64322 0.0
C1666 C 0.67064 0.99992 0.68836 0.0
C1667 C 0.65912 0.01537 0.69583 0.0
C1668 C 0.64859 0.0225 0.65814 0.0
C1669 C 0.64958 0.01418 0.61289 0.0
H1670 H 0.65838 0.02185 0.7308 0.0
H1671 H 0.66785 0.95509 0.27888 0.0
H1672 H 0.528 0.66455 0.29422 0.0
H1673 H 0.5296 0.64232 0.36006 0.0
H1674 H 0.58365 0.66767 0.40165 0.0
H1675 H 0.5824 0.68968 0.33324 0.0
H1676 H 0.58587 0.63074 0.40156 0.0
H1677 H 0.54284 0.67127 0.47331 0.0
H1678 H 0.5155 0.69169 0.48073 0.0
H1679 H 0.47799 0.64319 0.45306 0.0
H1680 H 0.5051 0.62251 0.44471 0.0
H1681 H 0.57012 0.56261 0.60156 0.0
H1682 H 0.57565 0.59266 0.55772 0.0
H1683 H 0.53637 0.57286 0.44921 0.0
H1684 H 0.5311 0.54272 0.49182 0.0
H1685 H 0.53055 0.6114 0.50016 0.0
H1686 H 0.57642 0.57322 0.41564 0.0
H1687 H 0.60465 0.55383 0.4131 0.0
H1688 H 0.63785 0.60037 0.47459 0.0
H1689 H 0.60972 0.61995 0.47811 0.0
C1690 C 0.54011 0.66564 0.31786 0.0
C1691 C 0.55512 0.67877 0.30849 0.0
C1692 C 0.54094 0.653 0.35592 0.0
C1693 C 0.55663 0.65338 0.38655 0.0
C1694 C 0.57135 0.66711 0.37867 0.0
C1695 C 0.57057 0.6798 0.33995 0.0
C1696 C 0.558 0.6382 0.42353 0.0
C1697 C 0.57393 0.62686 0.42401 0.0
C1698 C 0.54249 0.63298 0.45313 0.0
C1699 C 0.52606 0.64533 0.45823 0.0
C1700 C 0.52877 0.66497 0.46851 0.0
C1701 C 0.51331 0.67659 0.47291 0.0
C1702 C 0.49502 0.66874 0.46734 0.0
C1703 C 0.49217 0.64925 0.45741 0.0
C1704 C 0.50758 0.63756 0.45293 0.0
C1705 C 0.56293 0.56451 0.5679 0.0
C1706 C 0.55016 0.55023 0.5502 0.0
C1707 C 0.5661 0.58169 0.543 0.0
C1708 C 0.55634 0.58496 0.50045 0.0
C1709 C 0.54402 0.57057 0.48206 0.0
C1710 C 0.54111 0.5533 0.50636 0.0
C1711 C 0.55794 0.60375 0.47618 0.0
C1712 C 0.54258 0.61568 0.47843 0.0
C1713 C 0.57408 0.6097 0.45004 0.0
C1714 C 0.59094 0.59794 0.44776 0.0
C1715 C 0.5897 0.57924 0.42911 0.0
C1716 C 0.60569 0.56823 0.42737 0.0
C1717 C 0.62302 0.57583 0.44384 0.0
C1718 C 0.62441 0.59448 0.46195 0.0
C1719 C 0.60845 0.60554 0.4638 0.0
H1720 H 0.63539 0.56729 0.44245 0.0
H1721 H 0.48307 0.67777 0.47075 0.0
H1722 H 0.83569 0.51602 0.3185 0.0
H1723 H 0.85699 0.52701 0.38316 0.0
H1724 H 0.85572 0.46981 0.44076 0.0
H1725 H 0.83423 0.45905 0.37724 0.0
H1726 H 0.85973 0.49478 0.51126 0.0
H1727 H 0.88872 0.48527 0.35694 0.0
H1728 H 0.89324 0.4916 0.27125 0.0
H1729 H 0.90755 0.55064 0.30191 0.0
H1730 H 0.90284 0.54469 0.3878 0.0
H1731 H 0.94971 0.47236 0.59123 0.0
H1732 H 0.9202 0.47586 0.54827 0.0
H1733 H 0.93319 0.5362 0.53079 0.0
H1734 H 0.963 0.53284 0.57427 0.0
H1735 H 0.92146 0.51767 0.44626 0.0
H1736 H 0.89929 0.52336 0.60536 0.0
H1737 H 0.89635 0.51438 0.68995 0.0
H1738 H 0.87042 0.46013 0.64986 0.0
H1739 H 0.87348 0.46864 0.56496 0.0
C1740 C 0.83938 0.50605 0.34616 0.0
C1741 C 0.83345 0.48668 0.34282 0.0
C1742 C 0.8517 0.51227 0.38279 0.0
C1743 C 0.85835 0.49914 0.41626 0.0
C1744 C 0.85092 0.48023 0.41539 0.0
C1745 C 0.83863 0.47406 0.37903 0.0
C1746 C 0.87465 0.50408 0.44828 0.0
C1747 C 0.8732 0.49987 0.49709 0.0
C1748 C 0.89223 0.51105 0.43013 0.0
C1749 C 0.89519 0.5146 0.37863 0.0
C1750 C 0.89271 0.49962 0.34534 0.0
C1751 C 0.89531 0.50314 0.29677 0.0
C1752 C 0.90062 0.52152 0.28113 0.0
C1753 C 0.90339 0.53642 0.31407 0.0
C1754 C 0.90075 0.53299 0.36269 0.0
C1755 C 0.94634 0.48644 0.57851 0.0
C1756 C 0.9588 0.50233 0.58618 0.0
C1757 C 0.92936 0.48842 0.55417 0.0
C1758 C 0.92437 0.50632 0.53673 0.0
C1759 C 0.93672 0.52227 0.54419 0.0
C1760 C 0.95372 0.52033 0.56911 0.0
C1761 C 0.90662 0.50788 0.50888 0.0
C1762 C 0.90786 0.51319 0.46081 0.0
C1763 C 0.88894 0.50167 0.52761 0.0
C1764 C 0.88669 0.49662 0.57871 0.0
C1765 C 0.89304 0.50947 0.61454 0.0
C1766 C 0.89135 0.50446 0.66257 0.0
C1767 C 0.88323 0.48669 0.67527 0.0
C1768 C 0.87671 0.4739 0.63997 0.0
C1769 C 0.87839 0.47882 0.59187 0.0
H1770 H 0.88196 0.48282 0.71247 0.0
H1771 H 0.90264 0.52422 0.24351 0.0
loop_
_geom_bond_atom_site_label_1
_geom_bond_atom_site_label_2
_geom_bond_distance
_geom_bond_site_symmetry_2
_ccdc_geom_bond_type
C0 C1 1.391 . S
C0 C4 1.391 . S
C0 H42 0.948 . S
C1 C0 1.391 . S
C1 C2 1.391 . S
C2 C1 1.391 . S
C2 H58 0.947 . S
C2 C59 1.392 . S
C3 C4 1.391 . S
C3 C7 1.397 . S
C3 C59 1.419 . S
C4 C0 1.391 . S
C4 C3 1.391 . S
C4 C5 1.399 . S
C5 C4 1.399 . S
C5 C8 1.396 . S
C5 C17 1.453 . S
C5 C18 1.684 . S
H6 C30 0.948 . S
C7 C3 1.397 . S
C7 C8 1.394 . S
C7 C26 1.723 . S
C8 C5 1.396 . S
C8 C7 1.394 . S
C8 C38 1.723 . S
H9 C32 0.947 . S
H10 C33 0.948 . S
H11 C39 0.982 . S
H12 C40 0.979 . S
H13 C40 0.980 . S
H14 C40 0.983 . S
H15 C39 0.979 . S
H16 C39 0.977 . S
C17 C5 1.453 . S
C17 H46 0.982 . S
C17 H47 0.979 . S
C17 H48 0.977 . S
C18 C5 1.684 . S
C18 H43 0.979 . S
C18 H44 0.980 . S
C18 H45 0.983 . S
C19 C20 1.391 . S
C19 C24 1.391 . S
C19 H49 0.948 . S
C20 C19 1.391 . S
C20 C21 1.391 . S
C21 C20 1.391 . S
C21 C22 1.392 . S
C21 H50 0.947 . S
C22 C21 1.392 . S
C22 C23 1.419 . S
C22 H51 0.948 . S
C23 C22 1.419 . S
C23 C24 1.391 . S
C23 C27 1.397 . S
C24 C19 1.391 . S
C24 C23 1.391 . S
C24 C25 1.399 1_556 S
C25 C24 1.399 1_554 S
C25 C26 1.396 . S
C25 C28 1.453 . S
C25 C29 1.684 . S
C26 C7 1.723 . S
C26 C25 1.396 . S
C26 C27 1.394 1_554 S
C27 C23 1.397 . S
C27 C26 1.394 1_556 S
C27 C37 1.723 . S
C28 C25 1.453 . S
C28 H52 0.982 . S
C28 H53 0.979 . S
C28 H54 0.977 . S
C29 C25 1.684 . S
C29 H55 0.979 . S
C29 H56 0.980 . S
C29 H57 0.983 . S
C30 H6 0.948 . S
C30 C31 1.391 . S
C30 C35 1.391 . S
C31 C30 1.391 . S
C31 C32 1.391 1_556 S
C32 H9 0.947 . S
C32 C31 1.391 1_554 S
C32 C33 1.392 . S
C33 H10 0.948 . S
C33 C32 1.392 . S
C33 C34 1.419 . S
C34 C33 1.419 . S
C34 C35 1.391 1_554 S
C34 C38 1.397 . S
C35 C30 1.391 . S
C35 C34 1.391 1_556 S
C35 C36 1.399 . S
C36 C35 1.399 . S
C36 C37 1.396 . S
C36 C39 1.453 . S
C36 C40 1.684 . S
C37 C27 1.723 . S
C37 C36 1.396 . S
C37 C38 1.394 1_556 S
C38 C8 1.723 . S
C38 C34 1.397 . S
C38 C37 1.394 1_554 S
C39 H11 0.982 . S
C39 H15 0.979 . S
C39 H16 0.977 . S
C39 C36 1.453 . S
C40 H12 0.979 . S
C40 H13 0.980 . S
C40 H14 0.983 . S
C40 C36 1.684 . S
H41 C59 0.948 . S
H42 C0 0.948 . S
H43 C18 0.979 . S
H44 C18 0.980 . S
H45 C18 0.983 . S
H46 C17 0.982 . S
H47 C17 0.979 . S
H48 C17 0.977 . S
H49 C19 0.948 . S
H50 C21 0.947 . S
H51 C22 0.948 . S
H52 C28 0.982 . S
H53 C28 0.979 . S
H54 C28 0.977 . S
H55 C29 0.979 . S
H56 C29 0.980 . S
H57 C29 0.983 . S
H58 C2 0.947 . S
C59 C2 1.392 . S
C59 C3 1.419 . S
C59 H41 0.948 . S
C60 C61 1.391 . S
C60 C64 1.391 . S
C60 H102 0.948 . S
C61 C60 1.391 . S
C61 C62 1.391 1_556 S
C62 C61 1.391 1_554 S
C62 H118 0.947 . S
C62 C119 1.392 . S
C63 C64 1.391 1_554 S
C63 C67 1.397 . S
C63 C119 1.419 . S
C64 C60 1.391 . S
C64 C63 1.391 1_556 S
C64 C65 1.399 . S
C65 C64 1.399 . S
C65 C68 1.396 1_556 S
C65 C77 1.453 1_655 S
C65 C78 1.684 . S
H66 C90 0.948 . S
C67 C63 1.397 . S
C67 C68 1.394 . S
C67 C86 1.723 . S
C68 C65 1.396 1_554 S
C68 C67 1.394 . S
C68 C98 1.723 . S
H69 C92 0.947 1_556 S
H70 C93 0.948 1_556 S
H71 C99 0.982 . S
H72 C100 0.979 . S
H73 C100 0.980 . S
H74 C100 0.983 . S
H75 C99 0.979 . S
H76 C99 0.977 . S
C77 C65 1.453 1_455 S
C77 H106 0.982 . S
C77 H107 0.979 . S
C77 H108 0.977 . S
C78 C65 1.684 . S
C78 H103 0.979 . S
C78 H104 0.980 . S
C78 H105 0.983 . S
C79 C80 1.391 . S
C79 C84 1.391 . S
C79 H109 0.948 . S
C80 C79 1.391 . S
C80 C81 1.391 . S
C81 C80 1.391 . S
C81 C82 1.392 . S
C81 H110 0.947 . S
C82 C81 1.392 . S
C82 C83 1.419 . S
C82 H111 0.948 . S
C83 C82 1.419 . S
C83 C84 1.391 . S
C83 C87 1.397 . S
C84 C79 1.391 . S
C84 C83 1.391 . S
C84 C85 1.399 . S
C85 C84 1.399 . S
C85 C86 1.396 . S
C85 C88 1.453 1_655 S
C85 C89 1.684 . S
C86 C67 1.723 . S
C86 C85 1.396 . S
C86 C87 1.394 . S
C87 C83 1.397 . S
C87 C86 1.394 . S
C87 C97 1.723 . S
C88 C85 1.453 1_455 S
C88 H112 0.982 . S
C88 H113 0.979 . S
C88 H114 0.977 . S
C89 C85 1.684 . S
C89 H115 0.979 . S
C89 H116 0.980 . S
C89 H117 0.983 . S
C90 H66 0.948 . S
C90 C91 1.391 . S
C90 C95 1.391 . S
C91 C90 1.391 . S
C91 C92 1.391 . S
C92 H69 0.947 1_554 S
C92 C91 1.391 . S
C92 C93 1.392 . S
C93 H70 0.948 1_554 S
C93 C92 1.392 . S
C93 C94 1.419 . S
C94 C93 1.419 . S
C94 C95 1.391 . S
C94 C98 1.397 . S
C95 C90 1.391 . S
C95 C94 1.391 . S
C95 C96 1.399 . S
C96 C95 1.399 . S
C96 C97 1.396 . S
C96 C99 1.453 1_655 S
C96 C100 1.684 . S
C97 C87 1.723 . S
C97 C96 1.396 . S
C97 C98 1.394 . S
C98 C68 1.723 . S
C98 C94 1.397 . S
C98 C97 1.394 . S
C99 H71 0.982 . S
C99 H75 0.979 . S
C99 H76 0.977 . S
C99 C96 1.453 1_455 S
C100 H72 0.979 . S
C100 H73 0.980 . S
C100 H74 0.983 . S
C100 C96 1.684 . S
H101 C119 0.948 . S
H102 C60 0.948 . S
H103 C78 0.979 . S
H104 C78 0.980 . S
H105 C78 0.983 . S
H106 C77 0.982 . S
H107 C77 0.979 . S
H108 C77 0.977 . S
H109 C79 0.948 . S
H110 C81 0.947 . S
H111 C82 0.948 . S
H112 C88 0.982 . S
H113 C88 0.979 . S
H114 C88 0.977 . S
H115 C89 0.979 . S
H116 C89 0.980 . S
H117 C89 0.983 . S
H118 C62 0.947 . S
C119 C62 1.392 . S
C119 C63 1.419 . S
C119 H101 0.948 . S
C120 C121 1.391 . S
C120 C124 1.391 . S
C120 H162 0.948 . S
C121 C120 1.391 . S
C121 C122 1.391 1_554 S
C122 C121 1.391 1_556 S
C122 H178 0.947 . S
C122 C179 1.392 . S
C123 C124 1.391 . S
C123 C127 1.396 . S
C123 C179 1.419 1_554 S
C124 C120 1.391 . S
C124 C123 1.391 . S
C124 C125 1.399 . S
C125 C124 1.399 . S
C125 C128 1.387 1_565 S
C125 C137 1.453 1_565 S
C125 C138 1.684 . S
H126 C150 0.948 . S
C127 C123 1.396 . S
C127 C128 1.393 1_565 S
C127 C146 1.720 1_565 S
C128 C125 1.387 1_545 S
C128 C127 1.393 1_545 S
C128 C158 1.724 . S
H129 C152 0.947 . S
H130 C153 0.948 . S
H131 C159 0.982 . S
H132 C160 0.979 . S
H133 C160 0.980 . S
H134 C160 0.983 . S
H135 C159 0.979 . S
H136 C159 0.977 . S
C137 C125 1.453 1_545 S
C137 H166 0.982 . S
C137 H167 0.979 . S
C137 H168 0.977 . S
C138 C125 1.684 . S
C138 H163 0.979 . S
C138 H164 0.980 . S
C138 H165 0.983 . S
C139 C140 1.391 . S
C139 C144 1.391 . S
C139 H169 0.948 . S
C140 C139 1.391 . S
C140 C141 1.391 . S
C141 C140 1.391 . S
C141 C142 1.392 1_556 S
C141 H170 0.947 . S
C142 C141 1.392 1_554 S
C142 C143 1.422 . S
C142 H171 0.948 . S
C143 C142 1.422 . S
C143 C144 1.400 1_554 S
C143 C147 1.397 1_565 S
C144 C139 1.391 . S
C144 C143 1.400 1_556 S
C144 C145 1.399 . S
C145 C144 1.399 . S
C145 C146 1.389 1_566 S
C145 C148 1.453 1_565 S
C145 C149 1.684 . S
C146 C127 1.720 1_545 S
C146 C145 1.389 1_544 S
C146 C147 1.395 . S
C147 C143 1.397 1_545 S
C147 C146 1.395 . S
C147 C157 1.722 . S
C148 C145 1.453 1_545 S
C148 H172 0.982 . S
C148 H173 0.979 . S
C148 H174 0.977 . S
C149 C145 1.684 . S
C149 H175 0.979 . S
C149 H176 0.980 . S
C149 H177 0.983 . S
C150 H126 0.948 . S
C150 C151 1.391 . S
C150 C155 1.391 . S
C151 C150 1.391 . S
C151 C152 1.391 . S
C152 H129 0.947 . S
C152 C151 1.391 . S
C152 C153 1.392 . S
C153 H130 0.948 . S
C153 C152 1.392 . S
C153 C154 1.419 . S
C154 C153 1.419 . S
C154 C155 1.391 . S
C154 C158 1.397 1_565 S
C155 C150 1.391 . S
C155 C154 1.391 . S
C155 C156 1.399 . S
C156 C155 1.399 . S
C156 C157 1.389 1_565 S
C156 C159 1.453 1_565 S
C156 C160 1.684 . S
C157 C147 1.722 . S
C157 C156 1.389 1_545 S
C157 C158 1.390 . S
C158 C128 1.724 . S
C158 C154 1.397 1_545 S
C158 C157 1.390 . S
C159 H131 0.982 . S
C159 H135 0.979 . S
C159 H136 0.977 . S
C159 C156 1.453 1_545 S
C160 H132 0.979 . S
C160 H133 0.980 . S
C160 H134 0.983 . S
C160 C156 1.684 . S
H161 C179 0.948 . S
H162 C120 0.948 . S
H163 C138 0.979 . S
H164 C138 0.980 . S
H165 C138 0.983 . S
H166 C137 0.982 . S
H167 C137 0.979 . S
H168 C137 0.977 . S
H169 C139 0.948 . S
H170 C141 0.947 . S
H171 C142 0.948 . S
H172 C148 0.982 . S
H173 C148 0.979 . S
H174 C148 0.977 . S
H175 C149 0.979 . S
H176 C149 0.980 . S
H177 C149 0.983 . S
H178 C122 0.947 . S
C179 C122 1.392 . S
C179 C123 1.419 1_556 S
C179 H161 0.948 . S
C180 C181 1.391 . S
C180 C184 1.391 . S
C180 H222 0.948 . S
C181 C180 1.391 . S
C181 C182 1.391 . S
C182 C181 1.391 . S
C182 H238 0.947 . S
C182 C239 1.392 . S
C183 C184 1.391 . S
C183 C187 1.397 . S
C183 C239 1.419 . S
C184 C180 1.391 . S
C184 C183 1.391 . S
C184 C185 1.399 . S
C185 C184 1.399 . S
C185 C188 1.396 . S
C185 C197 1.453 . S
C185 C198 1.684 . S
H186 C210 0.948 . S
C187 C183 1.397 . S
C187 C188 1.394 . S
C187 C206 1.723 . S
C188 C185 1.396 . S
C188 C187 1.394 . S
C188 C218 1.723 . S
H189 C212 0.947 . S
H190 C213 0.948 . S
H191 C219 0.982 . S
H192 C220 0.979 . S
H193 C220 0.980 . S
H194 C220 0.983 . S
H195 C219 0.979 . S
H196 C219 0.977 . S
C197 C185 1.453 . S
C197 H226 0.982 . S
C197 H227 0.979 . S
C197 H228 0.977 . S
C198 C185 1.684 . S
C198 H223 0.979 . S
C198 H224 0.980 . S
C198 H225 0.983 . S
C199 C200 1.391 . S
C199 C204 1.391 . S
C199 H229 0.948 . S
C200 C199 1.391 . S
C200 C201 1.391 . S
C201 C200 1.391 . S
C201 C202 1.392 . S
C201 H230 0.947 . S
C202 C201 1.392 . S
C202 C203 1.419 . S
C202 H231 0.948 . S
C203 C202 1.419 . S
C203 C204 1.391 . S
C203 C207 1.397 1_556 S
C204 C199 1.391 . S
C204 C203 1.391 . S
C204 C205 1.399 1_556 S
C205 C204 1.399 1_554 S
C205 C206 1.396 . S
C205 C208 1.453 . S
C205 C209 1.684 . S
C206 C187 1.723 . S
C206 C205 1.396 . S
C206 C207 1.394 . S
C207 C203 1.397 1_554 S
C207 C206 1.394 . S
C207 C217 1.723 . S
C208 C205 1.453 . S
C208 H232 0.982 . S
C208 H233 0.979 . S
C208 H234 0.977 . S
C209 C205 1.684 . S
C209 H235 0.979 . S
C209 H236 0.980 . S
C209 H237 0.983 . S
C210 H186 0.948 . S
C210 C211 1.391 1_556 S
C210 C215 1.391 . S
C211 C210 1.391 1_554 S
C211 C212 1.391 . S
C212 H189 0.947 . S
C212 C211 1.391 . S
C212 C213 1.392 . S
C213 H190 0.948 . S
C213 C212 1.392 . S
C213 C214 1.419 . S
C214 C213 1.419 . S
C214 C215 1.391 1_554 S
C214 C218 1.397 . S
C215 C210 1.391 . S
C215 C214 1.391 1_556 S
C215 C216 1.399 . S
C216 C215 1.399 . S
C216 C217 1.396 1_556 S
C216 C219 1.453 . S
C216 C220 1.684 . S
C217 C207 1.723 . S
C217 C216 1.396 1_554 S
C217 C218 1.394 . S
C218 C188 1.723 . S
C218 C214 1.397 . S
C218 C217 1.394 . S
C219 H191 0.982 . S
C219 H195 0.979 . S
C219 H196 0.977 . S
C219 C216 1.453 . S
C220 H192 0.979 . S
C220 H193 0.980 . S
C220 H194 0.983 . S
C220 C216 1.684 . S
H221 C239 0.948 . S
H222 C180 0.948 . S
H223 C198 0.979 . S
H224 C198 0.980 . S
H225 C198 0.983 . S
H226 C197 0.982 . S
H227 C197 0.979 . S
H228 C197 0.977 . S
H229 C199 0.948 . S
H230 C201 0.947 . S
H231 C202 0.948 . S
H232 C208 0.982 . S
H233 C208 0.979 . S
H234 C208 0.977 . S
H235 C209 0.979 . S
H236 C209 0.980 . S
H237 C209 0.983 . S
H238 C182 0.947 . S
C239 C182 1.392 . S
C239 C183 1.419 . S
C239 H221 0.948 . S
C240 C241 1.391 . S
C240 C244 1.391 . S
C240 H282 0.948 . S
C241 C240 1.391 . S
C241 C242 1.391 . S
C242 C241 1.391 . S
C242 H298 0.947 . S
C242 C299 1.392 . S
C243 C244 1.391 . S
C243 C247 1.397 . S
C243 C299 1.419 . S
C244 C240 1.391 . S
C244 C243 1.391 . S
C244 C245 1.399 . S
C245 C244 1.399 . S
C245 C248 1.396 . S
C245 C257 1.453 . S
C245 C258 1.684 . S
H246 C270 0.948 . S
C247 C243 1.397 . S
C247 C248 1.394 . S
C247 C266 1.723 . S
C248 C245 1.396 . S
C248 C247 1.394 . S
C248 C278 1.723 . S
H249 C272 0.947 . S
H250 C273 0.948 . S
H251 C279 0.982 . S
H252 C280 0.979 . S
H253 C280 0.980 . S
H254 C280 0.983 . S
H255 C279 0.979 . S
H256 C279 0.977 . S
C257 C245 1.453 . S
C257 H286 0.982 . S
C257 H287 0.979 . S
C257 H288 0.977 . S
C258 C245 1.684 . S
C258 H283 0.979 . S
C258 H284 0.980 . S
C258 H285 0.983 . S
C259 C260 1.391 . S
C259 C264 1.391 . S
C259 H289 0.948 . S
C260 C259 1.391 . S
C260 C261 1.391 . S
C261 C260 1.391 . S
C261 C262 1.392 . S
C261 H290 0.947 . S
C262 C261 1.392 . S
C262 C263 1.419 . S
C262 H291 0.948 . S
C263 C262 1.419 . S
C263 C264 1.391 . S
C263 C267 1.397 . S
C264 C259 1.391 . S
C264 C263 1.391 . S
C264 C265 1.399 . S
C265 C264 1.399 . S
C265 C266 1.396 . S
C265 C268 1.453 . S
C265 C269 1.684 . S
C266 C247 1.723 . S
C266 C265 1.396 . S
C266 C267 1.394 . S
C267 C263 1.397 . S
C267 C266 1.394 . S
C267 C277 1.723 . S
C268 C265 1.453 . S
C268 H292 0.982 . S
C268 H293 0.979 . S
C268 H294 0.977 . S
C269 C265 1.684 . S
C269 H295 0.979 . S
C269 H296 0.980 . S
C269 H297 0.983 . S
C270 H246 0.948 . S
C270 C271 1.391 . S
C270 C275 1.391 . S
C271 C270 1.391 . S
C271 C272 1.391 . S
C272 H249 0.947 . S
C272 C271 1.391 . S
C272 C273 1.392 . S
C273 H250 0.948 . S
C273 C272 1.392 . S
C273 C274 1.419 . S
C274 C273 1.419 . S
C274 C275 1.391 . S
C274 C278 1.397 . S
C275 C270 1.391 . S
C275 C274 1.391 . S
C275 C276 1.399 . S
C276 C275 1.399 . S
C276 C277 1.396 . S
C276 C279 1.453 . S
C276 C280 1.684 . S
C277 C267 1.723 . S
C277 C276 1.396 . S
C277 C278 1.394 . S
C278 C248 1.723 . S
C278 C274 1.397 . S
C278 C277 1.394 . S
C279 H251 0.982 . S
C279 H255 0.979 . S
C279 H256 0.977 . S
C279 C276 1.453 . S
C280 H252 0.979 . S
C280 H253 0.980 . S
C280 H254 0.983 . S
C280 C276 1.684 . S
H281 C299 0.948 . S
H282 C240 0.948 . S
H283 C258 0.979 . S
H284 C258 0.980 . S
H285 C258 0.983 . S
H286 C257 0.982 . S
H287 C257 0.979 . S
H288 C257 0.977 . S
H289 C259 0.948 . S
H290 C261 0.947 . S
H291 C262 0.948 . S
H292 C268 0.982 . S
H293 C268 0.979 . S
H294 C268 0.977 . S
H295 C269 0.979 . S
H296 C269 0.980 . S
H297 C269 0.983 . S
H298 C242 0.947 . S
C299 C242 1.392 . S
C299 C243 1.419 . S
C299 H281 0.948 . S
C300 C301 1.391 . S
C300 C304 1.391 . S
C300 H342 0.948 . S
C301 C300 1.391 . S
C301 C302 1.391 . S
C302 C301 1.391 . S
C302 H358 0.947 . S
C302 C359 1.392 . S
C303 C304 1.391 . S
C303 C307 1.397 . S
C303 C359 1.419 . S
C304 C300 1.391 . S
C304 C303 1.391 . S
C304 C305 1.399 . S
C305 C304 1.399 . S
C305 C308 1.396 . S
C305 C317 1.453 . S
C305 C318 1.684 . S
H306 C330 0.948 . S
C307 C303 1.397 . S
C307 C308 1.394 . S
C307 C326 1.723 . S
C308 C305 1.396 . S
C308 C307 1.394 . S
C308 C338 1.723 . S
H309 C332 0.947 . S
H310 C333 0.948 . S
H311 C339 0.982 . S
H312 C340 0.979 . S
H313 C340 0.980 . S
H314 C340 0.983 . S
H315 C339 0.979 . S
H316 C339 0.977 . S
C317 C305 1.453 . S
C317 H346 0.982 . S
C317 H347 0.979 . S
C317 H348 0.977 . S
C318 C305 1.684 . S
C318 H343 0.979 . S
C318 H344 0.980 . S
C318 H345 0.983 . S
C319 C320 1.391 . S
C319 C324 1.391 . S
C319 H349 0.948 . S
C320 C319 1.391 . S
C320 C321 1.391 . S
C321 C320 1.391 . S
C321 C322 1.392 . S
C321 H350 0.947 . S
C322 C321 1.392 . S
C322 C323 1.419 . S
C322 H351 0.948 . S
C323 C322 1.419 . S
C323 C324 1.391 . S
C323 C327 1.397 . S
C324 C319 1.391 . S
C324 C323 1.391 . S
C324 C325 1.399 . S
C325 C324 1.399 . S
C325 C326 1.396 . S
C325 C328 1.453 . S
C325 C329 1.684 . S
C326 C307 1.723 . S
C326 C325 1.396 . S
C326 C327 1.394 . S
C327 C323 1.397 . S
C327 C326 1.394 . S
C327 C337 1.723 . S
C328 C325 1.453 . S
C328 H352 0.982 . S
C328 H353 0.979 . S
C328 H354 0.977 . S
C329 C325 1.684 . S
C329 H355 0.979 . S
C329 H356 0.980 . S
C329 H357 0.983 . S
C330 H306 0.948 . S
C330 C331 1.391 . S
C330 C335 1.391 . S
C331 C330 1.391 . S
C331 C332 1.391 . S
C332 H309 0.947 . S
C332 C331 1.391 . S
C332 C333 1.392 . S
C333 H310 0.948 . S
C333 C332 1.392 . S
C333 C334 1.419 . S
C334 C333 1.419 . S
C334 C335 1.391 . S
C334 C338 1.397 . S
C335 C330 1.391 . S
C335 C334 1.391 . S
C335 C336 1.399 . S
C336 C335 1.399 . S
C336 C337 1.396 . S
C336 C339 1.453 . S
C336 C340 1.684 . S
C337 C327 1.723 . S
C337 C336 1.396 . S
C337 C338 1.394 . S
C338 C308 1.723 . S
C338 C334 1.397 . S
C338 C337 1.394 . S
C339 H311 0.982 . S
C339 H315 0.979 . S
C339 H316 0.977 . S
C339 C336 1.453 . S
C340 H312 0.979 . S
C340 H313 0.980 . S
C340 H314 0.983 . S
C340 C336 1.684 . S
H341 C359 0.948 . S
H342 C300 0.948 . S
H343 C318 0.979 . S
H344 C318 0.980 . S
H345 C318 0.983 . S
H346 C317 0.982 . S
H347 C317 0.979 . S
H348 C317 0.977 . S
H349 C319 0.948 . S
H350 C321 0.947 . S
H351 C322 0.948 . S
H352 C328 0.982 . S
H353 C328 0.979 . S
H354 C328 0.977 . S
H355 C329 0.979 . S
H356 C329 0.980 . S
H357 C329 0.983 . S
H358 C302 0.947 . S
C359 C302 1.392 . S
C359 C303 1.419 . S
C359 H341 0.948 . S
C360 C361 1.391 . S
C360 C364 1.391 . S
C360 H402 0.948 . S
C361 C360 1.391 . S
C361 C362 1.391 . S
C362 C361 1.391 . S
C362 H418 0.947 . S
C362 C419 1.392 . S
C363 C364 1.391 . S
C363 C367 1.397 . S
C363 C419 1.419 . S
C364 C360 1.391 . S
C364 C363 1.391 . S
C364 C365 1.399 . S
C365 C364 1.399 . S
C365 C368 1.387 1_545 S
C365 C377 1.453 1_545 S
C365 C378 1.684 . S
H366 C390 0.948 . S
C367 C363 1.397 . S
C367 C368 1.395 1_545 S
C367 C386 1.721 1_545 S
C368 C365 1.387 1_565 S
C368 C367 1.395 1_565 S
C368 C398 1.721 . S
H369 C392 0.947 . S
H370 C393 0.948 . S
H371 C399 0.982 . S
H372 C400 0.979 . S
H373 C400 0.980 . S
H374 C400 0.983 . S
H375 C399 0.979 . S
H376 C399 0.977 . S
C377 C365 1.453 1_565 S
C377 H406 0.982 . S
C377 H407 0.979 . S
C377 H408 0.977 . S
C378 C365 1.684 . S
C378 H403 0.979 . S
C378 H404 0.980 . S
C378 H405 0.983 . S
C379 C380 1.391 . S
C379 C384 1.391 . S
C379 H409 0.948 . S
C380 C379 1.391 . S
C380 C381 1.391 . S
C381 C380 1.391 . S
C381 C382 1.392 . S
C381 H410 0.947 . S
C382 C381 1.392 . S
C382 C383 1.419 . S
C382 H411 0.948 . S
C383 C382 1.419 . S
C383 C384 1.391 . S
C383 C387 1.397 . S
C384 C379 1.391 . S
C384 C383 1.391 . S
C384 C385 1.399 . S
C385 C384 1.399 . S
C385 C386 1.391 1_545 S
C385 C388 1.453 1_545 S
C385 C389 1.684 . S
C386 C367 1.721 1_565 S
C386 C385 1.391 1_565 S
C386 C387 1.392 1_565 S
C387 C383 1.397 . S
C387 C386 1.392 1_545 S
C387 C397 1.724 1_545 S
C388 C385 1.453 1_565 S
C388 H412 0.982 . S
C388 H413 0.979 . S
C388 H414 0.977 . S
C389 C385 1.684 . S
C389 H415 0.979 . S
C389 H416 0.980 . S
C389 H417 0.983 . S
C390 H366 0.948 . S
C390 C391 1.391 . S
C390 C395 1.391 . S
C391 C390 1.391 . S
C391 C392 1.391 . S
C392 H369 0.947 . S
C392 C391 1.391 . S
C392 C393 1.392 . S
C393 H370 0.948 . S
C393 C392 1.392 . S
C393 C394 1.426 . S
C394 C393 1.426 . S
C394 C395 1.399 . S
C394 C398 1.393 1_545 S
C395 C390 1.391 . S
C395 C394 1.399 . S
C395 C396 1.399 . S
C396 C395 1.399 . S
C396 C397 1.386 1_545 S
C396 C399 1.453 1_545 S
C396 C400 1.684 . S
C397 C387 1.724 1_565 S
C397 C396 1.386 1_565 S
C397 C398 1.392 . S
C398 C368 1.721 . S
C398 C394 1.393 1_565 S
C398 C397 1.392 . S
C399 H371 0.982 . S
C399 H375 0.979 . S
C399 H376 0.977 . S
C399 C396 1.453 1_565 S
C400 H372 0.979 . S
C400 H373 0.980 . S
C400 H374 0.983 . S
C400 C396 1.684 . S
H401 C419 0.948 . S
H402 C360 0.948 . S
H403 C378 0.979 . S
H404 C378 0.980 . S
H405 C378 0.983 . S
H406 C377 0.982 . S
H407 C377 0.979 . S
H408 C377 0.977 . S
H409 C379 0.948 . S
H410 C381 0.947 . S
H411 C382 0.948 . S
H412 C388 0.982 . S
H413 C388 0.979 . S
H414 C388 0.977 . S
H415 C389 0.979 . S
H416 C389 0.980 . S
H417 C389 0.983 . S
H418 C362 0.947 . S
C419 C362 1.392 . S
C419 C363 1.419 . S
C419 H401 0.948 . S
C420 C421 1.391 . S
C420 C424 1.391 . S
C420 H462 0.948 . S
C421 C420 1.391 . S
C421 C422 1.391 . S
C422 C421 1.391 . S
C422 H478 0.947 . S
C422 C479 1.392 . S
C423 C424 1.391 . S
C423 C427 1.397 . S
C423 C479 1.419 . S
C424 C420 1.391 . S
C424 C423 1.391 . S
C424 C425 1.399 . S
C425 C424 1.399 . S
C425 C428 1.396 . S
C425 C437 1.453 . S
C425 C438 1.684 . S
H426 C450 0.948 . S
C427 C423 1.397 . S
C427 C428 1.394 . S
C427 C446 1.723 . S
C428 C425 1.396 . S
C428 C427 1.394 . S
C428 C458 1.723 . S
H429 C452 0.947 . S
H430 C453 0.948 . S
H431 C459 0.982 . S
H432 C460 0.979 . S
H433 C460 0.980 . S
H434 C460 0.983 . S
H435 C459 0.979 . S
H436 C459 0.977 . S
C437 C425 1.453 . S
C437 H466 0.982 . S
C437 H467 0.979 . S
C437 H468 0.977 . S
C438 C425 1.684 . S
C438 H463 0.979 . S
C438 H464 0.980 . S
C438 H465 0.983 . S
C439 C440 1.391 . S
C439 C444 1.391 . S
C439 H469 0.948 . S
C440 C439 1.391 . S
C440 C441 1.391 . S
C441 C440 1.391 . S
C441 C442 1.392 . S
C441 H470 0.947 . S
C442 C441 1.392 . S
C442 C443 1.419 . S
C442 H471 0.948 . S
C443 C442 1.419 . S
C443 C444 1.391 . S
C443 C447 1.397 . S
C444 C439 1.391 . S
C444 C443 1.391 . S
C444 C445 1.399 . S
C445 C444 1.399 . S
C445 C446 1.396 . S
C445 C448 1.453 . S
C445 C449 1.684 . S
C446 C427 1.723 . S
C446 C445 1.396 . S
C446 C447 1.394 . S
C447 C443 1.397 . S
C447 C446 1.394 . S
C447 C457 1.723 . S
C448 C445 1.453 . S
C448 H472 0.982 . S
C448 H473 0.979 . S
C448 H474 0.977 . S
C449 C445 1.684 . S
C449 H475 0.979 . S
C449 H476 0.980 . S
C449 H477 0.983 . S
C450 H426 0.948 . S
C450 C451 1.391 . S
C450 C455 1.391 . S
C451 C450 1.391 . S
C451 C452 1.391 . S
C452 H429 0.947 . S
C452 C451 1.391 . S
C452 C453 1.392 . S
C453 H430 0.948 . S
C453 C452 1.392 . S
C453 C454 1.419 . S
C454 C453 1.419 . S
C454 C455 1.391 . S
C454 C458 1.397 . S
C455 C450 1.391 . S
C455 C454 1.391 . S
C455 C456 1.399 . S
C456 C455 1.399 . S
C456 C457 1.396 . S
C456 C459 1.453 . S
C456 C460 1.684 . S
C457 C447 1.723 . S
C457 C456 1.396 . S
C457 C458 1.394 . S
C458 C428 1.723 . S
C458 C454 1.397 . S
C458 C457 1.394 . S
C459 H431 0.982 . S
C459 H435 0.979 . S
C459 H436 0.977 . S
C459 C456 1.453 . S
C460 H432 0.979 . S
C460 H433 0.980 . S
C460 H434 0.983 . S
C460 C456 1.684 . S
H461 C479 0.948 . S
H462 C420 0.948 . S
H463 C438 0.979 . S
H464 C438 0.980 . S
H465 C438 0.983 . S
H466 C437 0.982 . S
H467 C437 0.979 . S
H468 C437 0.977 . S
H469 C439 0.948 . S
H470 C441 0.947 . S
H471 C442 0.948 . S
H472 C448 0.982 . S
H473 C448 0.979 . S
H474 C448 0.977 . S
H475 C449 0.979 . S
H476 C449 0.980 . S
H477 C449 0.983 . S
H478 C422 0.947 . S
C479 C422 1.392 . S
C479 C423 1.419 . S
C479 H461 0.948 . S
O480 Zn481 1.953 . S
O480 C496 1.236 . S
Zn481 O480 1.953 . S
Zn481 O482 1.947 . S
Zn481 O488 1.879 1_565 S
Zn481 O493 1.972 . S
O482 Zn481 1.947 . S
O482 Zn483 1.904 1_565 S
O482 Zn484 1.952 . S
O482 Zn485 1.960 . S
Zn483 O482 1.904 1_545 S
Zn483 O486 1.933 1_455 S
Zn483 O489 1.941 . S
Zn483 O490 1.965 . S
Zn484 O482 1.952 . S
Zn484 O491 1.938 1_565 S
Zn484 O492 1.906 . S
Zn484 O502 1.953 . S
Zn485 O482 1.960 . S
Zn485 O487 1.932 1_455 S
Zn485 O494 1.977 . S
Zn485 O495 1.910 . S
O486 Zn483 1.933 1_655 S
O486 C497 1.226 . S
O487 Zn485 1.932 1_655 S
O487 C497 1.307 1_565 S
O488 Zn481 1.879 1_545 S
O488 C499 1.253 . S
O489 Zn483 1.941 . S
O489 C499 1.283 . S
O490 Zn483 1.965 . S
O490 C498 1.303 . S
O491 Zn484 1.938 1_545 S
O491 C498 1.247 . S
O492 Zn484 1.906 . S
O492 C500 1.304 . S
O493 Zn481 1.972 . S
O493 C501 1.311 . S
O494 Zn485 1.977 . S
O494 C500 1.272 . S
O495 Zn485 1.910 . S
O495 C501 1.231 . S
C496 O480 1.236 . S
C496 O502 1.298 . S
C497 O486 1.226 . S
C497 O487 1.307 1_545 S
C498 O490 1.303 . S
C498 O491 1.247 . S
C499 O488 1.253 . S
C499 O489 1.283 . S
C500 O492 1.304 . S
C500 O494 1.272 . S
C501 O493 1.311 . S
C501 O495 1.231 . S
O502 Zn484 1.953 . S
O502 C496 1.298 . S
O503 Zn504 1.953 . S
O503 C519 1.225 . S
Zn504 O503 1.953 . S
Zn504 O505 1.949 . S
Zn504 O511 1.919 . S
Zn504 O516 1.924 . S
O505 Zn504 1.949 . S
O505 Zn506 1.923 1_545 S
O505 Zn507 1.950 . S
O505 Zn508 1.945 1_545 S
Zn506 O505 1.923 1_565 S
Zn506 O509 1.933 . S
Zn506 O512 1.941 . S
Zn506 O513 1.965 . S
Zn507 O505 1.950 . S
Zn507 O514 1.938 . S
Zn507 O515 1.894 1_545 S
Zn507 O525 1.953 . S
Zn508 O505 1.945 1_565 S
Zn508 O510 1.932 . S
Zn508 O517 1.977 . S
Zn508 O518 1.910 1_565 S
O509 Zn506 1.933 . S
O509 C520 1.226 . S
O510 Zn508 1.932 . S
O510 C520 1.307 . S
O511 Zn504 1.919 . S
O511 C522 1.253 . S
O512 Zn506 1.941 . S
O512 C522 1.283 1_565 S
O513 Zn506 1.965 . S
O513 C521 1.303 . S
O514 Zn507 1.938 . S
O514 C521 1.247 1_545 S
O515 Zn507 1.894 1_565 S
O515 C523 1.321 . S
O516 Zn504 1.924 . S
O516 C524 1.311 . S
O517 Zn508 1.977 . S
O517 C523 1.272 . S
O518 Zn508 1.910 1_545 S
O518 C524 1.231 . S
C519 O503 1.225 . S
C519 O525 1.298 . S
C520 O509 1.226 . S
C520 O510 1.307 . S
C521 O513 1.303 . S
C521 O514 1.247 1_565 S
C522 O511 1.253 . S
C522 O512 1.283 1_545 S
C523 O515 1.321 . S
C523 O517 1.272 . S
C524 O516 1.311 . S
C524 O518 1.231 . S
O525 Zn507 1.953 . S
O525 C519 1.298 . S
O526 Zn527 1.953 . S
O526 C542 1.225 . S
Zn527 O526 1.953 . S
Zn527 O528 1.949 . S
Zn527 O534 1.919 . S
Zn527 O539 1.924 . S
O528 Zn527 1.949 . S
O528 Zn529 1.923 . S
O528 Zn530 1.950 . S
O528 Zn531 1.945 . S
Zn529 O528 1.923 . S
Zn529 O532 1.933 . S
Zn529 O535 1.941 . S
Zn529 O536 1.965 . S
Zn530 O528 1.950 . S
Zn530 O537 1.938 . S
Zn530 O538 1.906 . S
Zn530 O548 1.953 . S
Zn531 O528 1.945 . S
Zn531 O533 1.932 . S
Zn531 O540 1.977 . S
Zn531 O541 1.910 . S
O532 Zn529 1.933 . S
O532 C543 1.226 . S
O533 Zn531 1.932 . S
O533 C543 1.307 . S
O534 Zn527 1.919 . S
O534 C545 1.253 . S
O535 Zn529 1.941 . S
O535 C545 1.283 . S
O536 Zn529 1.965 . S
O536 C544 1.303 . S
O537 Zn530 1.938 . S
O537 C544 1.247 . S
O538 Zn530 1.906 . S
O538 C546 1.304 . S
O539 Zn527 1.924 . S
O539 C547 1.311 . S
O540 Zn531 1.977 . S
O540 C546 1.272 . S
O541 Zn531 1.910 . S
O541 C547 1.231 . S
C542 O526 1.225 . S
C542 O548 1.298 . S
C543 O532 1.226 . S
C543 O533 1.307 . S
C544 O536 1.303 . S
C544 O537 1.247 . S
C545 O534 1.253 . S
C545 O535 1.283 . S
C546 O538 1.304 . S
C546 O540 1.272 . S
C547 O539 1.311 . S
C547 O541 1.231 . S
O548 Zn530 1.953 . S
O548 C542 1.298 . S
O549 Zn550 1.953 1_655 S
O549 C565 1.225 . S
Zn550 O549 1.953 1_455 S
Zn550 O551 1.949 . S
Zn550 O557 1.919 . S
Zn550 O562 1.924 . S
O551 Zn550 1.949 . S
O551 Zn552 1.923 . S
O551 Zn553 1.950 1_455 S
O551 Zn554 1.945 . S
Zn552 O551 1.923 . S
Zn552 O555 1.933 . S
Zn552 O558 1.941 . S
Zn552 O559 1.965 1_455 S
Zn553 O551 1.950 1_655 S
Zn553 O560 1.938 . S
Zn553 O561 1.906 1_655 S
Zn553 O571 1.953 . S
Zn554 O551 1.945 . S
Zn554 O556 1.932 . S
Zn554 O563 1.977 . S
Zn554 O564 1.910 . S
O555 Zn552 1.933 . S
O555 C566 1.226 . S
O556 Zn554 1.932 . S
O556 C566 1.307 . S
O557 Zn550 1.919 . S
O557 C568 1.253 . S
O558 Zn552 1.941 . S
O558 C568 1.283 . S
O559 Zn552 1.965 1_655 S
O559 C567 1.303 . S
O560 Zn553 1.938 . S
O560 C567 1.247 . S
O561 Zn553 1.906 1_455 S
O561 C569 1.304 . S
O562 Zn550 1.924 . S
O562 C570 1.311 . S
O563 Zn554 1.977 . S
O563 C569 1.272 . S
O564 Zn554 1.910 . S
O564 C570 1.231 . S
C565 O549 1.225 . S
C565 O571 1.298 . S
C566 O555 1.226 . S
C566 O556 1.307 . S
C567 O559 1.303 . S
C567 O560 1.247 . S
C568 O557 1.253 . S
C568 O558 1.283 . S
C569 O561 1.304 . S
C569 O563 1.272 . S
C570 O562 1.311 . S
C570 O564 1.231 . S
O571 Zn553 1.953 . S
O571 C565 1.298 . S
H572 C590 0.951 . S
H573 C592 0.951 . S
H574 C594 0.950 . S
H575 C595 0.950 . S
H576 C597 0.950 . S
H577 C600 0.950 . S
H578 C601 0.950 . S
H579 C603 0.950 . S
H580 C604 0.950 . S
H581 C605 0.951 . S
H582 C607 0.951 . S
H583 C609 0.950 . S
H584 C610 0.950 . S
H585 C612 0.950 . S
H586 C615 0.950 . S
H587 C616 0.950 . S
H588 C618 0.950 . S
H589 C619 0.950 . S
C590 H572 0.951 . S
C590 C591 1.355 1_545 S
C590 C592 1.388 . S
C591 C590 1.355 1_565 S
C591 C595 1.396 . S
C592 H573 0.951 . S
C592 C590 1.388 . S
C592 C593 1.350 1_545 S
C593 C592 1.350 1_565 S
C593 C594 1.433 . S
C593 C596 1.500 . S
C594 H574 0.950 . S
C594 C593 1.433 . S
C594 C595 1.374 . S
C595 H575 0.950 . S
C595 C591 1.396 . S
C595 C594 1.374 . S
C596 C593 1.500 . S
C596 C597 1.373 . S
C596 C598 1.389 1_565 S
C597 H576 0.950 . S
C597 C596 1.373 . S
C597 C613 1.377 . S
C598 C596 1.389 1_545 S
C598 C599 1.524 . S
C598 C612 1.377 . S
C599 C598 1.524 . S
C599 C600 1.397 . S
C599 C604 1.363 . S
C600 H577 0.950 . S
C600 C599 1.397 . S
C600 C601 1.334 . S
C601 H578 0.950 . S
C601 C600 1.334 . S
C601 C602 1.287 . S
C602 C601 1.287 . S
C602 C603 1.524 . S
C602 H621 0.913 . S
C603 H579 0.950 . S
C603 C602 1.524 . S
C603 C604 1.415 . S
C604 H580 0.950 . S
C604 C599 1.363 . S
C604 C603 1.415 . S
C605 H581 0.951 . S
C605 C606 1.366 . S
C605 C607 1.388 . S
C606 C605 1.366 . S
C606 C610 1.385 1_565 S
C607 H582 0.951 . S
C607 C605 1.388 . S
C607 C608 1.366 . S
C608 C607 1.366 . S
C608 C609 1.414 1_565 S
C608 C611 1.499 . S
C609 H583 0.950 . S
C609 C608 1.414 1_545 S
C609 C610 1.374 . S
C610 H584 0.950 . S
C610 C606 1.385 1_545 S
C610 C609 1.374 . S
C611 C608 1.499 . S
C611 C612 1.373 1_565 S
C611 C613 1.389 . S
C612 H585 0.950 . S
C612 C598 1.377 . S
C612 C611 1.373 1_545 S
C613 C597 1.377 . S
C613 C611 1.389 . S
C613 C614 1.524 . S
C614 C613 1.524 . S
C614 C615 1.397 . S
C614 C619 1.363 . S
C615 H586 0.950 . S
C615 C614 1.397 . S
C615 C616 1.334 . S
C616 H587 0.950 . S
C616 C615 1.334 . S
C616 C617 1.287 . S
C617 C616 1.287 . S
C617 C618 1.524 . S
C617 H620 0.999 . S
C618 H588 0.950 . S
C618 C617 1.524 . S
C618 C619 1.415 . S
C619 H589 0.950 . S
C619 C614 1.363 . S
C619 C618 1.415 . S
H620 C617 0.999 . S
H621 C602 0.913 . S
H622 C640 0.951 . S
H623 C642 0.951 . S
H624 C644 0.950 . S
H625 C645 0.950 . S
H626 C647 0.950 . S
H627 C650 0.950 . S
H628 C651 0.950 . S
H629 C653 0.950 . S
H630 C654 0.950 . S
H631 C655 0.951 . S
H632 C657 0.951 . S
H633 C659 0.950 . S
H634 C660 0.950 . S
H635 C662 0.950 . S
H636 C665 0.950 . S
H637 C666 0.950 . S
H638 C668 0.950 . S
H639 C669 0.950 . S
C640 H622 0.951 . S
C640 C641 1.366 . S
C640 C642 1.388 . S
C641 C640 1.366 . S
C641 C645 1.385 . S
C642 H623 0.951 . S
C642 C640 1.388 . S
C642 C643 1.366 . S
C643 C642 1.366 . S
C643 C644 1.414 . S
C643 C646 1.499 . S
C644 H624 0.950 . S
C644 C643 1.414 . S
C644 C645 1.374 . S
C645 H625 0.950 . S
C645 C641 1.385 . S
C645 C644 1.374 . S
C646 C643 1.499 . S
C646 C647 1.373 . S
C646 C648 1.389 . S
C647 H626 0.950 . S
C647 C646 1.373 . S
C647 C663 1.377 . S
C648 C646 1.389 . S
C648 C649 1.524 . S
C648 C662 1.377 . S
C649 C648 1.524 . S
C649 C650 1.397 . S
C649 C654 1.363 . S
C650 H627 0.950 . S
C650 C649 1.397 . S
C650 C651 1.334 . S
C651 H628 0.950 . S
C651 C650 1.334 . S
C651 C652 1.287 . S
C652 C651 1.287 . S
C652 C653 1.524 . S
C652 H671 0.913 . S
C653 H629 0.950 . S
C653 C652 1.524 . S
C653 C654 1.415 . S
C654 H630 0.950 . S
C654 C649 1.363 . S
C654 C653 1.415 . S
C655 H631 0.951 . S
C655 C656 1.366 . S
C655 C657 1.388 . S
C656 C655 1.366 . S
C656 C660 1.385 . S
C657 H632 0.951 . S
C657 C655 1.388 . S
C657 C658 1.366 . S
C658 C657 1.366 . S
C658 C659 1.414 . S
C658 C661 1.499 . S
C659 H633 0.950 . S
C659 C658 1.414 . S
C659 C660 1.374 . S
C660 H634 0.950 . S
C660 C656 1.385 . S
C660 C659 1.374 . S
C661 C658 1.499 . S
C661 C662 1.373 . S
C661 C663 1.389 . S
C662 H635 0.950 . S
C662 C648 1.377 . S
C662 C661 1.373 . S
C663 C647 1.377 . S
C663 C661 1.389 . S
C663 C664 1.524 . S
C664 C663 1.524 . S
C664 C665 1.397 . S
C664 C669 1.363 . S
C665 H636 0.950 . S
C665 C664 1.397 . S
C665 C666 1.334 . S
C666 H637 0.950 . S
C666 C665 1.334 . S
C666 C667 1.287 . S
C667 C666 1.287 . S
C667 C668 1.524 . S
C667 H670 0.999 . S
C668 H638 0.950 . S
C668 C667 1.524 . S
C668 C669 1.415 . S
C669 H639 0.950 . S
C669 C664 1.363 . S
C669 C668 1.415 . S
H670 C667 0.999 . S
H671 C652 0.913 . S
H672 C690 0.951 . S
H673 C692 0.951 . S
H674 C694 0.950 . S
H675 C695 0.950 . S
H676 C697 0.950 . S
H677 C700 0.950 . S
H678 C701 0.950 . S
H679 C703 0.950 . S
H680 C704 0.950 . S
H681 C705 0.951 . S
H682 C707 0.951 . S
H683 C709 0.950 . S
H684 C710 0.950 . S
H685 C712 0.950 . S
H686 C715 0.950 . S
H687 C716 0.950 . S
H688 C718 0.950 . S
H689 C719 0.950 . S
C690 H672 0.951 . S
C690 C691 1.366 . S
C690 C692 1.388 . S
C691 C690 1.366 . S
C691 C695 1.385 . S
C692 H673 0.951 . S
C692 C690 1.388 . S
C692 C693 1.366 . S
C693 C692 1.366 . S
C693 C694 1.414 . S
C693 C696 1.499 . S
C694 H674 0.950 . S
C694 C693 1.414 . S
C694 C695 1.374 . S
C695 H675 0.950 . S
C695 C691 1.385 . S
C695 C694 1.374 . S
C696 C693 1.499 . S
C696 C697 1.373 . S
C696 C698 1.389 . S
C697 H676 0.950 . S
C697 C696 1.373 . S
C697 C713 1.377 . S
C698 C696 1.389 . S
C698 C699 1.524 . S
C698 C712 1.377 . S
C699 C698 1.524 . S
C699 C700 1.397 . S
C699 C704 1.363 . S
C700 H677 0.950 . S
C700 C699 1.397 . S
C700 C701 1.334 . S
C701 H678 0.950 . S
C701 C700 1.334 . S
C701 C702 1.287 . S
C702 C701 1.287 . S
C702 C703 1.524 . S
C702 H721 0.913 . S
C703 H679 0.950 . S
C703 C702 1.524 . S
C703 C704 1.415 . S
C704 H680 0.950 . S
C704 C699 1.363 . S
C704 C703 1.415 . S
C705 H681 0.951 . S
C705 C706 1.366 . S
C705 C707 1.388 . S
C706 C705 1.366 . S
C706 C710 1.385 . S
C707 H682 0.951 . S
C707 C705 1.388 . S
C707 C708 1.366 . S
C708 C707 1.366 . S
C708 C709 1.414 . S
C708 C711 1.499 . S
C709 H683 0.950 . S
C709 C708 1.414 . S
C709 C710 1.374 . S
C710 H684 0.950 . S
C710 C706 1.385 . S
C710 C709 1.374 . S
C711 C708 1.499 . S
C711 C712 1.373 . S
C711 C713 1.389 . S
C712 H685 0.950 . S
C712 C698 1.377 . S
C712 C711 1.373 . S
C713 C697 1.377 . S
C713 C711 1.389 . S
C713 C714 1.524 . S
C714 C713 1.524 . S
C714 C715 1.397 . S
C714 C719 1.363 . S
C715 H686 0.950 . S
C715 C714 1.397 . S
C715 C716 1.334 . S
C716 H687 0.950 . S
C716 C715 1.334 . S
C716 C717 1.287 . S
C717 C716 1.287 . S
C717 C718 1.524 . S
C717 H720 0.999 . S
C718 H688 0.950 . S
C718 C717 1.524 . S
C718 C719 1.415 . S
C719 H689 0.950 . S
C719 C714 1.363 . S
C719 C718 1.415 . S
H720 C717 0.999 . S
H721 C702 0.913 . S
H722 C740 0.951 . S
H723 C742 0.951 . S
H724 C744 0.950 . S
H725 C745 0.950 . S
H726 C747 0.950 . S
H727 C750 0.950 . S
H728 C751 0.950 . S
H729 C753 0.950 . S
H730 C754 0.950 . S
H731 C755 0.951 . S
H732 C757 0.951 . S
H733 C759 0.950 . S
H734 C760 0.950 . S
H735 C762 0.950 . S
H736 C765 0.950 . S
H737 C766 0.950 1_655 S
H738 C768 0.950 . S
H739 C769 0.950 . S
C740 H722 0.951 . S
C740 C741 1.366 . S
C740 C742 1.388 . S
C741 C740 1.366 . S
C741 C745 1.385 . S
C742 H723 0.951 . S
C742 C740 1.388 . S
C742 C743 1.366 . S
C743 C742 1.366 . S
C743 C744 1.414 . S
C743 C746 1.499 . S
C744 H724 0.950 . S
C744 C743 1.414 . S
C744 C745 1.374 . S
C745 H725 0.950 . S
C745 C741 1.385 . S
C745 C744 1.374 . S
C746 C743 1.499 . S
C746 C747 1.373 . S
C746 C748 1.389 . S
C747 H726 0.950 . S
C747 C746 1.373 . S
C747 C763 1.377 . S
C748 C746 1.389 . S
C748 C749 1.524 . S
C748 C762 1.377 . S
C749 C748 1.524 . S
C749 C750 1.397 . S
C749 C754 1.363 . S
C750 H727 0.950 . S
C750 C749 1.397 . S
C750 C751 1.334 . S
C751 H728 0.950 . S
C751 C750 1.334 . S
C751 C752 1.287 . S
C752 C751 1.287 . S
C752 C753 1.524 . S
C752 H771 0.913 . S
C753 H729 0.950 . S
C753 C752 1.524 . S
C753 C754 1.415 . S
C754 H730 0.950 . S
C754 C749 1.363 . S
C754 C753 1.415 . S
C755 H731 0.951 . S
C755 C756 1.366 . S
C755 C757 1.388 . S
C756 C755 1.366 . S
C756 C760 1.385 . S
C757 H732 0.951 . S
C757 C755 1.388 . S
C757 C758 1.366 . S
C758 C757 1.366 . S
C758 C759 1.414 . S
C758 C761 1.499 . S
C759 H733 0.950 . S
C759 C758 1.414 . S
C759 C760 1.374 . S
C760 H734 0.950 . S
C760 C756 1.385 . S
C760 C759 1.374 . S
C761 C758 1.499 . S
C761 C762 1.373 . S
C761 C763 1.389 . S
C762 H735 0.950 . S
C762 C748 1.377 . S
C762 C761 1.373 . S
C763 C747 1.377 . S
C763 C761 1.389 . S
C763 C764 1.524 . S
C764 C763 1.524 . S
C764 C765 1.397 . S
C764 C769 1.363 . S
C765 H736 0.950 . S
C765 C764 1.397 . S
C765 C766 1.334 . S
C766 H737 0.950 1_455 S
C766 C765 1.334 . S
C766 C767 1.287 . S
C767 C766 1.287 . S
C767 C768 1.524 . S
C767 H770 0.999 . S
C768 H738 0.950 . S
C768 C767 1.524 . S
C768 C769 1.415 . S
C769 H739 0.950 . S
C769 C764 1.363 . S
C769 C768 1.415 . S
H770 C767 0.999 . S
H771 C752 0.913 . S
H772 C790 0.951 . S
H773 C792 0.951 . S
H774 C794 0.950 . S
H775 C795 0.950 . S
H776 C797 0.957 . S
H777 C800 0.950 . S
H778 C801 0.950 . S
H779 C803 0.950 . S
H780 C804 0.950 1_566 S
H781 C805 0.951 . S
H782 C807 0.951 . S
H783 C809 0.950 . S
H784 C810 0.950 . S
H785 C812 0.950 . S
H786 C815 0.950 . S
H787 C816 0.950 . S
H788 C818 0.954 . S
H789 C819 0.979 . S
C790 H772 0.951 . S
C790 C791 1.362 1_565 S
C790 C792 1.388 1_554 S
C791 C790 1.362 1_545 S
C791 C795 1.389 1_554 S
C792 H773 0.951 . S
C792 C790 1.388 1_556 S
C792 C793 1.366 1_565 S
C793 C792 1.366 1_545 S
C793 C794 1.414 . S
C793 C796 1.499 . S
C794 H774 0.950 . S
C794 C793 1.414 . S
C794 C795 1.374 . S
C795 H775 0.950 . S
C795 C791 1.389 1_556 S
C795 C794 1.374 . S
C796 C793 1.499 . S
C796 C797 1.366 1_545 S
C796 C798 1.389 . S
C797 H776 0.957 . S
C797 C796 1.366 1_565 S
C797 C813 1.380 . S
C798 C796 1.389 . S
C798 C799 1.524 . S
C798 C812 1.377 . S
C799 C798 1.524 . S
C799 C800 1.397 . S
C799 C804 1.363 1_556 S
C800 H777 0.950 . S
C800 C799 1.397 . S
C800 C801 1.334 1_556 S
C801 H778 0.950 . S
C801 C800 1.334 1_554 S
C801 C802 1.287 . S
C802 C801 1.287 . S
C802 C803 1.524 . S
C802 H821 0.913 . S
C803 H779 0.950 . S
C803 C802 1.524 . S
C803 C804 1.415 . S
C804 H780 0.950 1_544 S
C804 C799 1.363 1_554 S
C804 C803 1.415 . S
C805 H781 0.951 . S
C805 C806 1.366 . S
C805 C807 1.388 . S
C806 C805 1.366 . S
C806 C810 1.385 1_545 S
C807 H782 0.951 . S
C807 C805 1.388 . S
C807 C808 1.366 . S
C808 C807 1.366 . S
C808 C809 1.414 1_545 S
C808 C811 1.499 . S
C809 H783 0.950 . S
C809 C808 1.414 1_565 S
C809 C810 1.374 . S
C810 H784 0.950 . S
C810 C806 1.385 1_565 S
C810 C809 1.374 . S
C811 C808 1.499 . S
C811 C812 1.373 . S
C811 C813 1.389 1_545 S
C812 H785 0.950 . S
C812 C798 1.377 . S
C812 C811 1.373 . S
C813 C797 1.380 . S
C813 C811 1.389 1_565 S
C813 C814 1.524 . S
C814 C813 1.524 . S
C814 C815 1.397 . S
C814 C819 1.346 1_565 S
C815 H786 0.950 . S
C815 C814 1.397 . S
C815 C816 1.334 . S
C816 H787 0.950 . S
C816 C815 1.334 . S
C816 C817 1.287 . S
C817 C816 1.287 . S
C817 C818 1.524 . S
C817 H820 0.999 . S
C818 H788 0.954 . S
C818 C817 1.524 . S
C818 C819 1.404 1_565 S
C819 H789 0.979 . S
C819 C814 1.346 1_545 S
C819 C818 1.404 1_545 S
H820 C817 0.999 . S
H821 C802 0.913 . S
H822 C840 0.951 . S
H823 C842 0.951 . S
H824 C844 0.950 . S
H825 C845 0.950 . S
H826 C847 0.950 . S
H827 C850 0.950 . S
H828 C851 0.950 . S
H829 C853 0.950 . S
H830 C854 0.950 . S
H831 C855 0.951 . S
H832 C857 0.951 . S
H833 C859 0.950 . S
H834 C860 0.950 . S
H835 C862 0.950 . S
H836 C865 0.950 . S
H837 C866 0.950 . S
H838 C868 0.950 . S
H839 C869 0.950 . S
C840 H822 0.951 . S
C840 C841 1.366 . S
C840 C842 1.388 . S
C841 C840 1.366 . S
C841 C845 1.385 . S
C842 H823 0.951 . S
C842 C840 1.388 . S
C842 C843 1.366 . S
C843 C842 1.366 . S
C843 C844 1.414 . S
C843 C846 1.499 . S
C844 H824 0.950 . S
C844 C843 1.414 . S
C844 C845 1.374 . S
C845 H825 0.950 . S
C845 C841 1.385 . S
C845 C844 1.374 . S
C846 C843 1.499 . S
C846 C847 1.373 . S
C846 C848 1.389 . S
C847 H826 0.950 . S
C847 C846 1.373 . S
C847 C863 1.377 . S
C848 C846 1.389 . S
C848 C849 1.524 . S
C848 C862 1.377 . S
C849 C848 1.524 . S
C849 C850 1.397 . S
C849 C854 1.363 . S
C850 H827 0.950 . S
C850 C849 1.397 . S
C850 C851 1.334 . S
C851 H828 0.950 . S
C851 C850 1.334 . S
C851 C852 1.287 . S
C852 C851 1.287 . S
C852 C853 1.524 . S
C852 H871 0.913 . S
C853 H829 0.950 . S
C853 C852 1.524 . S
C853 C854 1.415 . S
C854 H830 0.950 . S
C854 C849 1.363 . S
C854 C853 1.415 . S
C855 H831 0.951 . S
C855 C856 1.366 . S
C855 C857 1.388 . S
C856 C855 1.366 . S
C856 C860 1.385 . S
C857 H832 0.951 . S
C857 C855 1.388 . S
C857 C858 1.366 . S
C858 C857 1.366 . S
C858 C859 1.414 . S
C858 C861 1.499 . S
C859 H833 0.950 . S
C859 C858 1.414 . S
C859 C860 1.374 . S
C860 H834 0.950 . S
C860 C856 1.385 . S
C860 C859 1.374 . S
C861 C858 1.499 . S
C861 C862 1.373 . S
C861 C863 1.389 . S
C862 H835 0.950 . S
C862 C848 1.377 . S
C862 C861 1.373 . S
C863 C847 1.377 . S
C863 C861 1.389 . S
C863 C864 1.524 . S
C864 C863 1.524 . S
C864 C865 1.397 . S
C864 C869 1.363 . S
C865 H836 0.950 . S
C865 C864 1.397 . S
C865 C866 1.334 . S
C866 H837 0.950 . S
C866 C865 1.334 . S
C866 C867 1.287 . S
C867 C866 1.287 . S
C867 C868 1.524 . S
C867 H870 0.999 . S
C868 H838 0.950 . S
C868 C867 1.524 . S
C868 C869 1.415 . S
C869 H839 0.950 . S
C869 C864 1.363 . S
C869 C868 1.415 . S
H870 C867 0.999 . S
H871 C852 0.913 . S
H872 C890 0.951 1_554 S
H873 C892 0.951 . S
H874 C894 0.950 . S
H875 C895 0.950 . S
H876 C897 0.950 . S
H877 C900 0.950 . S
H878 C901 0.950 . S
H879 C903 0.950 . S
H880 C904 0.950 . S
H881 C905 0.951 . S
H882 C907 0.951 . S
H883 C909 0.950 . S
H884 C910 0.950 . S
H885 C912 0.950 . S
H886 C915 0.950 . S
H887 C916 0.950 . S
H888 C918 0.950 . S
H889 C919 0.950 . S
C890 H872 0.951 1_556 S
C890 C891 1.366 . S
C890 C892 1.388 . S
C891 C890 1.366 . S
C891 C895 1.385 . S
C892 H873 0.951 . S
C892 C890 1.388 . S
C892 C893 1.366 . S
C893 C892 1.366 . S
C893 C894 1.414 . S
C893 C896 1.499 . S
C894 H874 0.950 . S
C894 C893 1.414 . S
C894 C895 1.374 . S
C895 H875 0.950 . S
C895 C891 1.385 . S
C895 C894 1.374 . S
C896 C893 1.499 . S
C896 C897 1.373 . S
C896 C898 1.389 . S
C897 H876 0.950 . S
C897 C896 1.373 . S
C897 C913 1.377 . S
C898 C896 1.389 . S
C898 C899 1.524 . S
C898 C912 1.377 . S
C899 C898 1.524 . S
C899 C900 1.397 . S
C899 C904 1.363 . S
C900 H877 0.950 . S
C900 C899 1.397 . S
C900 C901 1.334 . S
C901 H878 0.950 . S
C901 C900 1.334 . S
C901 C902 1.287 . S
C902 C901 1.287 . S
C902 C903 1.524 . S
C902 H921 0.913 . S
C903 H879 0.950 . S
C903 C902 1.524 . S
C903 C904 1.415 . S
C904 H880 0.950 . S
C904 C899 1.363 . S
C904 C903 1.415 . S
C905 H881 0.951 . S
C905 C906 1.366 . S
C905 C907 1.388 . S
C906 C905 1.366 . S
C906 C910 1.385 . S
C907 H882 0.951 . S
C907 C905 1.388 . S
C907 C908 1.366 . S
C908 C907 1.366 . S
C908 C909 1.414 . S
C908 C911 1.499 . S
C909 H883 0.950 . S
C909 C908 1.414 . S
C909 C910 1.374 . S
C910 H884 0.950 . S
C910 C906 1.385 . S
C910 C909 1.374 . S
C911 C908 1.499 . S
C911 C912 1.373 . S
C911 C913 1.389 . S
C912 H885 0.950 . S
C912 C898 1.377 . S
C912 C911 1.373 . S
C913 C897 1.377 . S
C913 C911 1.389 . S
C913 C914 1.524 . S
C914 C913 1.524 . S
C914 C915 1.397 . S
C914 C919 1.363 . S
C915 H886 0.950 . S
C915 C914 1.397 . S
C915 C916 1.334 . S
C916 H887 0.950 . S
C916 C915 1.334 . S
C916 C917 1.287 . S
C917 C916 1.287 . S
C917 C918 1.524 . S
C917 H920 0.999 . S
C918 H888 0.950 . S
C918 C917 1.524 . S
C918 C919 1.415 . S
C919 H889 0.950 . S
C919 C914 1.363 . S
C919 C918 1.415 . S
H920 C917 0.999 . S
H921 C902 0.913 . S
H922 C940 0.951 . S
H923 C942 0.951 . S
H924 C944 0.950 . S
H925 C945 0.950 . S
H926 C947 0.950 . S
H927 C950 0.950 1_556 S
H928 C951 0.950 . S
H929 C953 0.950 . S
H930 C954 0.950 . S
H931 C955 0.951 . S
H932 C957 0.951 . S
H933 C959 0.950 . S
H934 C960 0.950 . S
H935 C962 0.957 . S
H936 C965 0.950 . S
H937 C966 0.950 . S
H938 C968 0.950 . S
H939 C969 0.950 . S
C940 H922 0.951 . S
C940 C941 1.366 . S
C940 C942 1.388 1_554 S
C941 C940 1.366 . S
C941 C945 1.385 1_654 S
C942 H923 0.951 . S
C942 C940 1.388 1_556 S
C942 C943 1.366 . S
C943 C942 1.366 . S
C943 C944 1.414 1_655 S
C943 C946 1.499 . S
C944 H924 0.950 . S
C944 C943 1.414 1_455 S
C944 C945 1.374 . S
C945 H925 0.950 . S
C945 C941 1.385 1_456 S
C945 C944 1.374 . S
C946 C943 1.499 . S
C946 C947 1.373 . S
C946 C948 1.391 . S
C947 H926 0.950 . S
C947 C946 1.373 . S
C947 C963 1.377 . S
C948 C946 1.391 . S
C948 C949 1.523 1_655 S
C948 C962 1.372 1_655 S
C949 C948 1.523 1_455 S
C949 C950 1.397 1_556 S
C949 C954 1.363 1_455 S
C950 H927 0.950 1_554 S
C950 C949 1.397 1_554 S
C950 C951 1.334 . S
C951 H928 0.950 . S
C951 C950 1.334 . S
C951 C952 1.287 . S
C952 C951 1.287 . S
C952 C953 1.524 1_455 S
C952 H971 0.913 . S
C953 H929 0.950 . S
C953 C952 1.524 1_655 S
C953 C954 1.415 1_554 S
C954 H930 0.950 . S
C954 C949 1.363 1_655 S
C954 C953 1.415 1_556 S
C955 H931 0.951 . S
C955 C956 1.366 . S
C955 C957 1.388 . S
C956 C955 1.366 . S
C956 C960 1.385 1_455 S
C957 H932 0.951 . S
C957 C955 1.388 . S
C957 C958 1.366 . S
C958 C957 1.366 . S
C958 C959 1.414 1_455 S
C958 C961 1.504 . S
C959 H933 0.950 . S
C959 C958 1.414 1_655 S
C959 C960 1.374 . S
C960 H934 0.950 . S
C960 C956 1.385 1_655 S
C960 C959 1.374 . S
C961 C958 1.504 . S
C961 C962 1.373 . S
C961 C963 1.386 1_455 S
C962 H935 0.957 . S
C962 C948 1.372 1_455 S
C962 C961 1.373 . S
C963 C947 1.377 . S
C963 C961 1.386 1_655 S
C963 C964 1.524 . S
C964 C963 1.524 . S
C964 C965 1.397 . S
C964 C969 1.363 1_655 S
C965 H936 0.950 . S
C965 C964 1.397 . S
C965 C966 1.334 . S
C966 H937 0.950 . S
C966 C965 1.334 . S
C966 C967 1.287 . S
C967 C966 1.287 . S
C967 C968 1.524 1_655 S
C967 H970 0.999 . S
C968 H938 0.950 . S
C968 C967 1.524 1_455 S
C968 C969 1.415 . S
C969 H939 0.950 . S
C969 C964 1.363 1_455 S
C969 C968 1.415 . S
H970 C967 0.999 . S
H971 C952 0.913 . S
H972 C990 0.951 . S
H973 C992 0.951 . S
H974 C994 0.950 . S
H975 C995 0.950 . S
H976 C997 0.950 . S
H977 C1000 0.950 . S
H978 C1001 0.950 . S
H979 C1003 0.950 . S
H980 C1004 0.950 . S
H981 C1005 0.951 . S
H982 C1007 0.951 . S
H983 C1009 0.950 . S
H984 C1010 0.950 . S
H985 C1012 0.950 . S
H986 C1015 0.950 . S
H987 C1016 0.950 . S
H988 C1018 0.950 . S
H989 C1019 0.950 . S
C990 H972 0.951 . S
C990 C991 1.366 . S
C990 C992 1.388 . S
C991 C990 1.366 . S
C991 C995 1.385 . S
C992 H973 0.951 . S
C992 C990 1.388 . S
C992 C993 1.366 . S
C993 C992 1.366 . S
C993 C994 1.414 . S
C993 C996 1.499 . S
C994 H974 0.950 . S
C994 C993 1.414 . S
C994 C995 1.374 . S
C995 H975 0.950 . S
C995 C991 1.385 . S
C995 C994 1.374 . S
C996 C993 1.499 . S
C996 C997 1.373 . S
C996 C998 1.389 . S
C997 H976 0.950 . S
C997 C996 1.373 . S
C997 C1013 1.377 . S
C998 C996 1.389 . S
C998 C999 1.524 . S
C998 C1012 1.377 . S
C999 C998 1.524 . S
C999 C1000 1.397 . S
C999 C1004 1.363 . S
C1000 H977 0.950 . S
C1000 C999 1.397 . S
C1000 C1001 1.334 . S
C1001 H978 0.950 . S
C1001 C1000 1.334 . S
C1001 C1002 1.287 . S
C1002 C1001 1.287 . S
C1002 C1003 1.524 . S
C1002 H1021 0.913 . S
C1003 H979 0.950 . S
C1003 C1002 1.524 . S
C1003 C1004 1.415 . S
C1004 H980 0.950 . S
C1004 C999 1.363 . S
C1004 C1003 1.415 . S
C1005 H981 0.951 . S
C1005 C1006 1.366 . S
C1005 C1007 1.388 . S
C1006 C1005 1.366 . S
C1006 C1010 1.385 . S
C1007 H982 0.951 . S
C1007 C1005 1.388 . S
C1007 C1008 1.366 . S
C1008 C1007 1.366 . S
C1008 C1009 1.414 . S
C1008 C1011 1.499 . S
C1009 H983 0.950 . S
C1009 C1008 1.414 . S
C1009 C1010 1.374 . S
C1010 H984 0.950 . S
C1010 C1006 1.385 . S
C1010 C1009 1.374 . S
C1011 C1008 1.499 . S
C1011 C1012 1.373 . S
C1011 C1013 1.389 . S
C1012 H985 0.950 . S
C1012 C998 1.377 . S
C1012 C1011 1.373 . S
C1013 C997 1.377 . S
C1013 C1011 1.389 . S
C1013 C1014 1.524 . S
C1014 C1013 1.524 . S
C1014 C1015 1.397 . S
C1014 C1019 1.363 . S
C1015 H986 0.950 . S
C1015 C1014 1.397 . S
C1015 C1016 1.334 . S
C1016 H987 0.950 . S
C1016 C1015 1.334 . S
C1016 C1017 1.287 . S
C1017 C1016 1.287 . S
C1017 C1018 1.524 . S
C1017 H1020 0.999 . S
C1018 H988 0.950 . S
C1018 C1017 1.524 . S
C1018 C1019 1.415 . S
C1019 H989 0.950 . S
C1019 C1014 1.363 . S
C1019 C1018 1.415 . S
H1020 C1017 0.999 . S
H1021 C1002 0.913 . S
H1022 C1040 0.951 . S
H1023 C1042 0.951 . S
H1024 C1044 0.950 . S
H1025 C1045 0.950 . S
H1026 C1047 0.950 . S
H1027 C1050 0.950 . S
H1028 C1051 0.950 . S
H1029 C1053 0.950 . S
H1030 C1054 0.950 . S
H1031 C1055 0.951 . S
H1032 C1057 0.951 . S
H1033 C1059 0.950 . S
H1034 C1060 0.950 . S
H1035 C1062 0.950 . S
H1036 C1065 0.950 . S
H1037 C1066 0.950 . S
H1038 C1068 0.950 . S
H1039 C1069 0.950 . S
C1040 H1022 0.951 . S
C1040 C1041 1.339 1_565 S
C1040 C1042 1.388 . S
C1041 C1040 1.339 1_545 S
C1041 C1045 1.410 . S
C1042 H1023 0.951 . S
C1042 C1040 1.388 . S
C1042 C1043 1.358 1_565 S
C1043 C1042 1.358 1_545 S
C1043 C1044 1.422 . S
C1043 C1046 1.499 . S
C1044 H1024 0.950 . S
C1044 C1043 1.422 . S
C1044 C1045 1.374 . S
C1045 H1025 0.950 . S
C1045 C1041 1.410 . S
C1045 C1044 1.374 . S
C1046 C1043 1.499 . S
C1046 C1047 1.379 . S
C1046 C1048 1.382 1_545 S
C1047 H1026 0.950 . S
C1047 C1046 1.379 . S
C1047 C1063 1.377 . S
C1048 C1046 1.382 1_565 S
C1048 C1049 1.524 . S
C1048 C1062 1.377 . S
C1049 C1048 1.524 . S
C1049 C1050 1.397 1_565 S
C1049 C1054 1.363 . S
C1050 H1027 0.950 . S
C1050 C1049 1.397 1_545 S
C1050 C1051 1.334 . S
C1051 H1028 0.950 . S
C1051 C1050 1.334 . S
C1051 C1052 1.287 1_545 S
C1052 C1051 1.287 1_565 S
C1052 C1053 1.524 . S
C1052 H1071 0.913 . S
C1053 H1029 0.950 . S
C1053 C1052 1.524 . S
C1053 C1054 1.415 . S
C1054 H1030 0.950 . S
C1054 C1049 1.363 . S
C1054 C1053 1.415 . S
C1055 H1031 0.951 . S
C1055 C1056 1.366 1_545 S
C1055 C1057 1.388 . S
C1056 C1055 1.366 1_565 S
C1056 C1060 1.385 . S
C1057 H1032 0.951 . S
C1057 C1055 1.388 . S
C1057 C1058 1.366 1_545 S
C1058 C1057 1.366 1_565 S
C1058 C1059 1.414 . S
C1058 C1061 1.499 . S
C1059 H1033 0.950 . S
C1059 C1058 1.414 . S
C1059 C1060 1.374 . S
C1060 H1034 0.950 . S
C1060 C1056 1.385 . S
C1060 C1059 1.374 . S
C1061 C1058 1.499 . S
C1061 C1062 1.373 . S
C1061 C1063 1.389 1_565 S
C1062 H1035 0.950 . S
C1062 C1048 1.377 . S
C1062 C1061 1.373 . S
C1063 C1047 1.377 . S
C1063 C1061 1.389 1_545 S
C1063 C1064 1.524 . S
C1064 C1063 1.524 . S
C1064 C1065 1.397 1_545 S
C1064 C1069 1.363 . S
C1065 H1036 0.950 . S
C1065 C1064 1.397 1_565 S
C1065 C1066 1.334 . S
C1066 H1037 0.950 . S
C1066 C1065 1.334 . S
C1066 C1067 1.287 1_565 S
C1067 C1066 1.287 1_545 S
C1067 C1068 1.524 . S
C1067 H1070 0.999 . S
C1068 H1038 0.950 . S
C1068 C1067 1.524 . S
C1068 C1069 1.415 . S
C1069 H1039 0.950 . S
C1069 C1064 1.363 . S
C1069 C1068 1.415 . S
H1070 C1067 0.999 . S
H1071 C1052 0.913 . S
H1072 C1090 0.951 . S
H1073 C1092 0.951 . S
H1074 C1094 0.950 . S
H1075 C1095 0.950 . S
H1076 C1097 0.950 . S
H1077 C1100 0.950 . S
H1078 C1101 0.950 . S
H1079 C1103 0.950 . S
H1080 C1104 0.950 . S
H1081 C1105 0.951 . S
H1082 C1107 0.951 . S
H1083 C1109 0.950 . S
H1084 C1110 0.950 . S
H1085 C1112 0.950 . S
H1086 C1115 0.950 . S
H1087 C1116 0.950 . S
H1088 C1118 0.950 . S
H1089 C1119 0.950 . S
C1090 H1072 0.951 . S
C1090 C1091 1.366 . S
C1090 C1092 1.388 . S
C1091 C1090 1.366 . S
C1091 C1095 1.385 . S
C1092 H1073 0.951 . S
C1092 C1090 1.388 . S
C1092 C1093 1.366 . S
C1093 C1092 1.366 . S
C1093 C1094 1.414 . S
C1093 C1096 1.499 . S
C1094 H1074 0.950 . S
C1094 C1093 1.414 . S
C1094 C1095 1.374 . S
C1095 H1075 0.950 . S
C1095 C1091 1.385 . S
C1095 C1094 1.374 . S
C1096 C1093 1.499 . S
C1096 C1097 1.373 . S
C1096 C1098 1.389 . S
C1097 H1076 0.950 . S
C1097 C1096 1.373 . S
C1097 C1113 1.377 . S
C1098 C1096 1.389 . S
C1098 C1099 1.524 . S
C1098 C1112 1.377 . S
C1099 C1098 1.524 . S
C1099 C1100 1.397 . S
C1099 C1104 1.363 . S
C1100 H1077 0.950 . S
C1100 C1099 1.397 . S
C1100 C1101 1.334 . S
C1101 H1078 0.950 . S
C1101 C1100 1.334 . S
C1101 C1102 1.287 . S
C1102 C1101 1.287 . S
C1102 C1103 1.524 . S
C1102 H1121 0.913 . S
C1103 H1079 0.950 . S
C1103 C1102 1.524 . S
C1103 C1104 1.415 . S
C1104 H1080 0.950 . S
C1104 C1099 1.363 . S
C1104 C1103 1.415 . S
C1105 H1081 0.951 . S
C1105 C1106 1.366 . S
C1105 C1107 1.388 . S
C1106 C1105 1.366 . S
C1106 C1110 1.385 . S
C1107 H1082 0.951 . S
C1107 C1105 1.388 . S
C1107 C1108 1.366 . S
C1108 C1107 1.366 . S
C1108 C1109 1.414 . S
C1108 C1111 1.499 . S
C1109 H1083 0.950 . S
C1109 C1108 1.414 . S
C1109 C1110 1.374 . S
C1110 H1084 0.950 . S
C1110 C1106 1.385 . S
C1110 C1109 1.374 . S
C1111 C1108 1.499 . S
C1111 C1112 1.373 . S
C1111 C1113 1.389 . S
C1112 H1085 0.950 . S
C1112 C1098 1.377 . S
C1112 C1111 1.373 . S
C1113 C1097 1.377 . S
C1113 C1111 1.389 . S
C1113 C1114 1.524 . S
C1114 C1113 1.524 . S
C1114 C1115 1.397 . S
C1114 C1119 1.363 . S
C1115 H1086 0.950 . S
C1115 C1114 1.397 . S
C1115 C1116 1.334 . S
C1116 H1087 0.950 . S
C1116 C1115 1.334 . S
C1116 C1117 1.287 . S
C1117 C1116 1.287 . S
C1117 C1118 1.524 . S
C1117 H1120 0.999 . S
C1118 H1088 0.950 . S
C1118 C1117 1.524 . S
C1118 C1119 1.415 . S
C1119 H1089 0.950 . S
C1119 C1114 1.363 . S
C1119 C1118 1.415 . S
H1120 C1117 0.999 . S
H1121 C1102 0.913 . S
H1122 C1140 0.951 . S
H1123 C1142 0.951 . S
H1124 C1144 0.950 . S
H1125 C1145 0.950 . S
H1126 C1147 0.950 . S
H1127 C1150 0.950 . S
H1128 C1151 0.950 . S
H1129 C1153 0.950 . S
H1130 C1154 0.950 . S
H1131 C1155 0.951 . S
H1132 C1157 0.951 . S
H1133 C1159 0.950 . S
H1134 C1160 0.950 . S
H1135 C1162 0.950 . S
H1136 C1165 0.950 . S
H1137 C1166 0.950 . S
H1138 C1168 0.950 . S
H1139 C1169 0.950 . S
C1140 H1122 0.951 . S
C1140 C1141 1.366 . S
C1140 C1142 1.388 . S
C1141 C1140 1.366 . S
C1141 C1145 1.385 . S
C1142 H1123 0.951 . S
C1142 C1140 1.388 . S
C1142 C1143 1.366 . S
C1143 C1142 1.366 . S
C1143 C1144 1.414 . S
C1143 C1146 1.499 . S
C1144 H1124 0.950 . S
C1144 C1143 1.414 . S
C1144 C1145 1.374 . S
C1145 H1125 0.950 . S
C1145 C1141 1.385 . S
C1145 C1144 1.374 . S
C1146 C1143 1.499 . S
C1146 C1147 1.373 . S
C1146 C1148 1.389 . S
C1147 H1126 0.950 . S
C1147 C1146 1.373 . S
C1147 C1163 1.377 . S
C1148 C1146 1.389 . S
C1148 C1149 1.524 . S
C1148 C1162 1.377 . S
C1149 C1148 1.524 . S
C1149 C1150 1.397 . S
C1149 C1154 1.363 . S
C1150 H1127 0.950 . S
C1150 C1149 1.397 . S
C1150 C1151 1.334 . S
C1151 H1128 0.950 . S
C1151 C1150 1.334 . S
C1151 C1152 1.287 . S
C1152 C1151 1.287 . S
C1152 C1153 1.524 . S
C1152 H1171 0.913 . S
C1153 H1129 0.950 . S
C1153 C1152 1.524 . S
C1153 C1154 1.415 . S
C1154 H1130 0.950 . S
C1154 C1149 1.363 . S
C1154 C1153 1.415 . S
C1155 H1131 0.951 . S
C1155 C1156 1.366 . S
C1155 C1157 1.388 . S
C1156 C1155 1.366 . S
C1156 C1160 1.385 . S
C1157 H1132 0.951 . S
C1157 C1155 1.388 . S
C1157 C1158 1.366 . S
C1158 C1157 1.366 . S
C1158 C1159 1.414 . S
C1158 C1161 1.499 . S
C1159 H1133 0.950 . S
C1159 C1158 1.414 . S
C1159 C1160 1.374 . S
C1160 H1134 0.950 . S
C1160 C1156 1.385 . S
C1160 C1159 1.374 . S
C1161 C1158 1.499 . S
C1161 C1162 1.373 . S
C1161 C1163 1.389 . S
C1162 H1135 0.950 . S
C1162 C1148 1.377 . S
C1162 C1161 1.373 . S
C1163 C1147 1.377 . S
C1163 C1161 1.389 . S
C1163 C1164 1.524 . S
C1164 C1163 1.524 . S
C1164 C1165 1.397 . S
C1164 C1169 1.363 . S
C1165 H1136 0.950 . S
C1165 C1164 1.397 . S
C1165 C1166 1.334 . S
C1166 H1137 0.950 . S
C1166 C1165 1.334 . S
C1166 C1167 1.287 . S
C1167 C1166 1.287 . S
C1167 C1168 1.524 . S
C1167 H1170 0.999 . S
C1168 H1138 0.950 . S
C1168 C1167 1.524 . S
C1168 C1169 1.415 . S
C1169 H1139 0.950 . S
C1169 C1164 1.363 . S
C1169 C1168 1.415 . S
H1170 C1167 0.999 . S
H1171 C1152 0.913 . S
H1172 C1190 0.951 . S
H1173 C1192 0.951 . S
H1174 C1194 0.950 . S
H1175 C1195 0.950 . S
H1176 C1197 0.950 . S
H1177 C1200 0.950 1_455 S
H1178 C1201 0.950 . S
H1179 C1203 0.950 . S
H1180 C1204 0.950 . S
H1181 C1205 0.951 . S
H1182 C1207 0.951 . S
H1183 C1209 0.950 . S
H1184 C1210 0.950 . S
H1185 C1212 0.950 . S
H1186 C1215 0.950 . S
H1187 C1216 0.950 . S
H1188 C1218 0.950 . S
H1189 C1219 0.950 . S
C1190 H1172 0.951 . S
C1190 C1191 1.366 . S
C1190 C1192 1.388 . S
C1191 C1190 1.366 . S
C1191 C1195 1.385 1_655 S
C1192 H1173 0.951 . S
C1192 C1190 1.388 . S
C1192 C1193 1.366 1_655 S
C1193 C1192 1.366 1_455 S
C1193 C1194 1.414 . S
C1193 C1196 1.499 . S
C1194 H1174 0.950 . S
C1194 C1193 1.414 . S
C1194 C1195 1.374 . S
C1195 H1175 0.950 . S
C1195 C1191 1.385 1_455 S
C1195 C1194 1.374 . S
C1196 C1193 1.499 . S
C1196 C1197 1.373 . S
C1196 C1198 1.389 . S
C1197 H1176 0.950 . S
C1197 C1196 1.373 . S
C1197 C1213 1.377 . S
C1198 C1196 1.389 . S
C1198 C1199 1.524 1_455 S
C1198 C1212 1.377 . S
C1199 C1198 1.524 1_655 S
C1199 C1200 1.397 . S
C1199 C1204 1.363 . S
C1200 H1177 0.950 1_655 S
C1200 C1199 1.397 . S
C1200 C1201 1.334 . S
C1201 H1178 0.950 . S
C1201 C1200 1.334 . S
C1201 C1202 1.287 . S
C1202 C1201 1.287 . S
C1202 C1203 1.524 . S
C1202 H1221 0.913 . S
C1203 H1179 0.950 . S
C1203 C1202 1.524 . S
C1203 C1204 1.415 . S
C1204 H1180 0.950 . S
C1204 C1199 1.363 . S
C1204 C1203 1.415 . S
C1205 H1181 0.951 . S
C1205 C1206 1.366 . S
C1205 C1207 1.388 . S
C1206 C1205 1.366 . S
C1206 C1210 1.385 . S
C1207 H1182 0.951 . S
C1207 C1205 1.388 . S
C1207 C1208 1.366 . S
C1208 C1207 1.366 . S
C1208 C1209 1.414 . S
C1208 C1211 1.499 . S
C1209 H1183 0.950 . S
C1209 C1208 1.414 . S
C1209 C1210 1.374 . S
C1210 H1184 0.950 . S
C1210 C1206 1.385 . S
C1210 C1209 1.374 . S
C1211 C1208 1.499 . S
C1211 C1212 1.373 . S
C1211 C1213 1.389 . S
C1212 H1185 0.950 . S
C1212 C1198 1.377 . S
C1212 C1211 1.373 . S
C1213 C1197 1.377 . S
C1213 C1211 1.389 . S
C1213 C1214 1.524 . S
C1214 C1213 1.524 . S
C1214 C1215 1.397 . S
C1214 C1219 1.363 . S
C1215 H1186 0.950 . S
C1215 C1214 1.397 . S
C1215 C1216 1.334 . S
C1216 H1187 0.950 . S
C1216 C1215 1.334 . S
C1216 C1217 1.287 . S
C1217 C1216 1.287 . S
C1217 C1218 1.524 . S
C1217 H1220 0.999 . S
C1218 H1188 0.950 . S
C1218 C1217 1.524 . S
C1218 C1219 1.415 . S
C1219 H1189 0.950 . S
C1219 C1214 1.363 . S
C1219 C1218 1.415 . S
H1220 C1217 0.999 . S
H1221 C1202 0.913 . S
H1222 C1240 0.951 . S
H1223 C1242 0.951 . S
H1224 C1244 0.950 . S
H1225 C1245 0.950 . S
H1226 C1247 0.950 . S
H1227 C1250 0.950 . S
H1228 C1251 0.950 . S
H1229 C1253 0.950 . S
H1230 C1254 0.950 . S
H1231 C1255 0.951 . S
H1232 C1257 0.951 . S
H1233 C1259 0.950 . S
H1234 C1260 0.950 . S
H1235 C1262 0.950 . S
H1236 C1265 0.950 . S
H1237 C1266 0.950 . S
H1238 C1268 0.950 . S
H1239 C1269 0.950 . S
C1240 H1222 0.951 . S
C1240 C1241 1.366 1_545 S
C1240 C1242 1.388 . S
C1241 C1240 1.366 1_565 S
C1241 C1245 1.385 . S
C1242 H1223 0.951 . S
C1242 C1240 1.388 . S
C1242 C1243 1.366 . S
C1243 C1242 1.366 . S
C1243 C1244 1.414 1_545 S
C1243 C1246 1.499 . S
C1244 H1224 0.950 . S
C1244 C1243 1.414 1_565 S
C1244 C1245 1.374 . S
C1245 H1225 0.950 . S
C1245 C1241 1.385 . S
C1245 C1244 1.374 . S
C1246 C1243 1.499 . S
C1246 C1247 1.373 1_545 S
C1246 C1248 1.389 . S
C1247 H1226 0.950 . S
C1247 C1246 1.373 1_565 S
C1247 C1263 1.377 . S
C1248 C1246 1.389 . S
C1248 C1249 1.524 . S
C1248 C1262 1.377 . S
C1249 C1248 1.524 . S
C1249 C1250 1.397 . S
C1249 C1254 1.363 . S
C1250 H1227 0.950 . S
C1250 C1249 1.397 . S
C1250 C1251 1.334 . S
C1251 H1228 0.950 . S
C1251 C1250 1.334 . S
C1251 C1252 1.287 . S
C1252 C1251 1.287 . S
C1252 C1253 1.524 . S
C1252 H1271 0.913 . S
C1253 H1229 0.950 . S
C1253 C1252 1.524 . S
C1253 C1254 1.415 . S
C1254 H1230 0.950 . S
C1254 C1249 1.363 . S
C1254 C1253 1.415 . S
C1255 H1231 0.951 . S
C1255 C1256 1.366 . S
C1255 C1257 1.388 . S
C1256 C1255 1.366 . S
C1256 C1260 1.385 . S
C1257 H1232 0.951 . S
C1257 C1255 1.388 . S
C1257 C1258 1.366 . S
C1258 C1257 1.366 . S
C1258 C1259 1.414 . S
C1258 C1261 1.499 . S
C1259 H1233 0.950 . S
C1259 C1258 1.414 . S
C1259 C1260 1.374 . S
C1260 H1234 0.950 . S
C1260 C1256 1.385 . S
C1260 C1259 1.374 . S
C1261 C1258 1.499 . S
C1261 C1262 1.373 . S
C1261 C1263 1.389 1_545 S
C1262 H1235 0.950 . S
C1262 C1248 1.377 . S
C1262 C1261 1.373 . S
C1263 C1247 1.377 . S
C1263 C1261 1.389 1_565 S
C1263 C1264 1.524 . S
C1264 C1263 1.524 . S
C1264 C1265 1.397 . S
C1264 C1269 1.363 . S
C1265 H1236 0.950 . S
C1265 C1264 1.397 . S
C1265 C1266 1.334 . S
C1266 H1237 0.950 . S
C1266 C1265 1.334 . S
C1266 C1267 1.287 . S
C1267 C1266 1.287 . S
C1267 C1268 1.524 . S
C1267 H1270 0.999 . S
C1268 H1238 0.950 . S
C1268 C1267 1.524 . S
C1268 C1269 1.415 . S
C1269 H1239 0.950 . S
C1269 C1264 1.363 . S
C1269 C1268 1.415 . S
H1270 C1267 0.999 . S
H1271 C1252 0.913 . S
H1272 C1290 0.951 . S
H1273 C1292 0.951 . S
H1274 C1294 0.950 . S
H1275 C1295 0.950 . S
H1276 C1297 0.950 . S
H1277 C1300 0.950 . S
H1278 C1301 0.944 1_554 S
H1279 C1303 0.950 1_554 S
H1280 C1304 0.950 . S
H1281 C1305 0.951 . S
H1282 C1307 0.951 . S
H1283 C1309 0.950 . S
H1284 C1310 0.950 . S
H1285 C1312 0.950 . S
H1286 C1315 0.950 . S
H1287 C1316 0.950 . S
H1288 C1318 0.950 . S
H1289 C1319 0.950 . S
C1290 H1272 0.951 . S
C1290 C1291 1.366 . S
C1290 C1292 1.388 . S
C1291 C1290 1.366 . S
C1291 C1295 1.385 . S
C1292 H1273 0.951 . S
C1292 C1290 1.388 . S
C1292 C1293 1.366 . S
C1293 C1292 1.366 . S
C1293 C1294 1.414 . S
C1293 C1296 1.499 . S
C1294 H1274 0.950 . S
C1294 C1293 1.414 . S
C1294 C1295 1.374 . S
C1295 H1275 0.950 . S
C1295 C1291 1.385 . S
C1295 C1294 1.374 . S
C1296 C1293 1.499 . S
C1296 C1297 1.373 . S
C1296 C1298 1.389 . S
C1297 H1276 0.950 . S
C1297 C1296 1.373 . S
C1297 C1313 1.377 . S
C1298 C1296 1.389 . S
C1298 C1299 1.524 . S
C1298 C1312 1.377 . S
C1299 C1298 1.524 . S
C1299 C1300 1.397 . S
C1299 C1304 1.363 . S
C1300 H1277 0.950 . S
C1300 C1299 1.397 . S
C1300 C1301 1.334 . S
C1301 H1278 0.944 1_556 S
C1301 C1300 1.334 . S
C1301 C1302 1.287 1_556 S
C1302 C1301 1.287 1_554 S
C1302 C1303 1.524 1_554 S
C1302 H1321 0.913 . S
C1303 H1279 0.950 1_556 S
C1303 C1302 1.524 1_556 S
C1303 C1304 1.415 . S
C1304 H1280 0.950 . S
C1304 C1299 1.363 . S
C1304 C1303 1.415 . S
C1305 H1281 0.951 . S
C1305 C1306 1.366 . S
C1305 C1307 1.388 . S
C1306 C1305 1.366 . S
C1306 C1310 1.385 . S
C1307 H1282 0.951 . S
C1307 C1305 1.388 . S
C1307 C1308 1.366 . S
C1308 C1307 1.366 . S
C1308 C1309 1.414 . S
C1308 C1311 1.499 . S
C1309 H1283 0.950 . S
C1309 C1308 1.414 . S
C1309 C1310 1.374 . S
C1310 H1284 0.950 . S
C1310 C1306 1.385 . S
C1310 C1309 1.374 . S
C1311 C1308 1.499 . S
C1311 C1312 1.373 . S
C1311 C1313 1.389 . S
C1312 H1285 0.950 . S
C1312 C1298 1.377 . S
C1312 C1311 1.373 . S
C1313 C1297 1.377 . S
C1313 C1311 1.389 . S
C1313 C1314 1.524 . S
C1314 C1313 1.524 . S
C1314 C1315 1.397 . S
C1314 C1319 1.363 . S
C1315 H1286 0.950 . S
C1315 C1314 1.397 . S
C1315 C1316 1.334 . S
C1316 H1287 0.950 . S
C1316 C1315 1.334 . S
C1316 C1317 1.287 . S
C1317 C1316 1.287 . S
C1317 C1318 1.524 . S
C1317 H1320 0.999 . S
C1318 H1288 0.950 . S
C1318 C1317 1.524 . S
C1318 C1319 1.415 . S
C1319 H1289 0.950 . S
C1319 C1314 1.363 . S
C1319 C1318 1.415 . S
H1320 C1317 0.999 . S
H1321 C1302 0.913 . S
H1322 C1340 0.951 . S
H1323 C1342 0.951 . S
H1324 C1344 0.950 . S
H1325 C1345 0.950 . S
H1326 C1347 0.950 . S
H1327 C1350 0.950 . S
H1328 C1351 0.950 . S
H1329 C1353 0.950 . S
H1330 C1354 0.950 . S
H1331 C1355 0.951 . S
H1332 C1357 0.951 . S
H1333 C1359 0.950 . S
H1334 C1360 0.950 . S
H1335 C1362 0.950 . S
H1336 C1365 0.950 . S
H1337 C1366 0.950 . S
H1338 C1368 0.950 . S
H1339 C1369 0.950 . S
C1340 H1322 0.951 . S
C1340 C1341 1.366 . S
C1340 C1342 1.388 . S
C1341 C1340 1.366 . S
C1341 C1345 1.385 . S
C1342 H1323 0.951 . S
C1342 C1340 1.388 . S
C1342 C1343 1.366 . S
C1343 C1342 1.366 . S
C1343 C1344 1.414 . S
C1343 C1346 1.499 . S
C1344 H1324 0.950 . S
C1344 C1343 1.414 . S
C1344 C1345 1.374 . S
C1345 H1325 0.950 . S
C1345 C1341 1.385 . S
C1345 C1344 1.374 . S
C1346 C1343 1.499 . S
C1346 C1347 1.373 . S
C1346 C1348 1.389 . S
C1347 H1326 0.950 . S
C1347 C1346 1.373 . S
C1347 C1363 1.377 . S
C1348 C1346 1.389 . S
C1348 C1349 1.524 . S
C1348 C1362 1.377 . S
C1349 C1348 1.524 . S
C1349 C1350 1.397 . S
C1349 C1354 1.363 . S
C1350 H1327 0.950 . S
C1350 C1349 1.397 . S
C1350 C1351 1.334 . S
C1351 H1328 0.950 . S
C1351 C1350 1.334 . S
C1351 C1352 1.287 . S
C1352 C1351 1.287 . S
C1352 C1353 1.524 . S
C1352 H1371 0.913 . S
C1353 H1329 0.950 . S
C1353 C1352 1.524 . S
C1353 C1354 1.415 . S
C1354 H1330 0.950 . S
C1354 C1349 1.363 . S
C1354 C1353 1.415 . S
C1355 H1331 0.951 . S
C1355 C1356 1.366 . S
C1355 C1357 1.388 . S
C1356 C1355 1.366 . S
C1356 C1360 1.385 . S
C1357 H1332 0.951 . S
C1357 C1355 1.388 . S
C1357 C1358 1.366 . S
C1358 C1357 1.366 . S
C1358 C1359 1.414 . S
C1358 C1361 1.499 . S
C1359 H1333 0.950 . S
C1359 C1358 1.414 . S
C1359 C1360 1.374 . S
C1360 H1334 0.950 . S
C1360 C1356 1.385 . S
C1360 C1359 1.374 . S
C1361 C1358 1.499 . S
C1361 C1362 1.373 . S
C1361 C1363 1.389 . S
C1362 H1335 0.950 . S
C1362 C1348 1.377 . S
C1362 C1361 1.373 . S
C1363 C1347 1.377 . S
C1363 C1361 1.389 . S
C1363 C1364 1.524 . S
C1364 C1363 1.524 . S
C1364 C1365 1.397 . S
C1364 C1369 1.363 . S
C1365 H1336 0.950 . S
C1365 C1364 1.397 . S
C1365 C1366 1.334 . S
C1366 H1337 0.950 . S
C1366 C1365 1.334 . S
C1366 C1367 1.287 . S
C1367 C1366 1.287 . S
C1367 C1368 1.524 . S
C1367 H1370 0.999 . S
C1368 H1338 0.950 . S
C1368 C1367 1.524 . S
C1368 C1369 1.415 . S
C1369 H1339 0.950 . S
C1369 C1364 1.363 . S
C1369 C1368 1.415 . S
H1370 C1367 0.999 . S
H1371 C1352 0.913 . S
H1372 C1390 0.951 . S
H1373 C1392 0.951 . S
H1374 C1394 0.950 . S
H1375 C1395 0.950 . S
H1376 C1397 0.950 . S
H1377 C1400 0.950 . S
H1378 C1401 0.950 . S
H1379 C1403 0.950 . S
H1380 C1404 0.950 . S
H1381 C1405 0.951 . S
H1382 C1407 0.951 . S
H1383 C1409 0.950 . S
H1384 C1410 0.950 . S
H1385 C1412 0.950 . S
H1386 C1415 0.950 . S
H1387 C1416 0.950 . S
H1388 C1418 0.950 1_655 S
H1389 C1419 0.950 . S
C1390 H1372 0.951 . S
C1390 C1391 1.366 . S
C1390 C1392 1.388 . S
C1391 C1390 1.366 . S
C1391 C1395 1.385 . S
C1392 H1373 0.951 . S
C1392 C1390 1.388 . S
C1392 C1393 1.366 . S
C1393 C1392 1.366 . S
C1393 C1394 1.414 . S
C1393 C1396 1.499 1_554 S
C1394 H1374 0.950 . S
C1394 C1393 1.414 . S
C1394 C1395 1.374 . S
C1395 H1375 0.950 . S
C1395 C1391 1.385 . S
C1395 C1394 1.374 . S
C1396 C1393 1.499 1_556 S
C1396 C1397 1.373 1_556 S
C1396 C1398 1.389 . S
C1397 H1376 0.950 . S
C1397 C1396 1.373 1_554 S
C1397 C1413 1.377 1_554 S
C1398 C1396 1.389 . S
C1398 C1399 1.524 . S
C1398 C1412 1.377 . S
C1399 C1398 1.524 . S
C1399 C1400 1.397 . S
C1399 C1404 1.363 . S
C1400 H1377 0.950 . S
C1400 C1399 1.397 . S
C1400 C1401 1.334 . S
C1401 H1378 0.950 . S
C1401 C1400 1.334 . S
C1401 C1402 1.287 . S
C1402 C1401 1.287 . S
C1402 C1403 1.524 . S
C1402 H1421 0.913 . S
C1403 H1379 0.950 . S
C1403 C1402 1.524 . S
C1403 C1404 1.415 . S
C1404 H1380 0.950 . S
C1404 C1399 1.363 . S
C1404 C1403 1.415 . S
C1405 H1381 0.951 . S
C1405 C1406 1.366 . S
C1405 C1407 1.388 . S
C1406 C1405 1.366 . S
C1406 C1410 1.385 . S
C1407 H1382 0.951 . S
C1407 C1405 1.388 . S
C1407 C1408 1.366 . S
C1408 C1407 1.366 . S
C1408 C1409 1.414 . S
C1408 C1411 1.499 . S
C1409 H1383 0.950 . S
C1409 C1408 1.414 . S
C1409 C1410 1.374 . S
C1410 H1384 0.950 . S
C1410 C1406 1.385 . S
C1410 C1409 1.374 . S
C1411 C1408 1.499 . S
C1411 C1412 1.373 . S
C1411 C1413 1.389 . S
C1412 H1385 0.950 . S
C1412 C1398 1.377 . S
C1412 C1411 1.373 . S
C1413 C1397 1.377 1_556 S
C1413 C1411 1.389 . S
C1413 C1414 1.524 . S
C1414 C1413 1.524 . S
C1414 C1415 1.397 1_556 S
C1414 C1419 1.363 1_556 S
C1415 H1386 0.950 . S
C1415 C1414 1.397 1_554 S
C1415 C1416 1.334 . S
C1416 H1387 0.950 . S
C1416 C1415 1.334 . S
C1416 C1417 1.287 . S
C1417 C1416 1.287 . S
C1417 C1418 1.524 . S
C1417 H1420 0.999 1_455 S
C1418 H1388 0.950 1_455 S
C1418 C1417 1.524 . S
C1418 C1419 1.415 . S
C1419 H1389 0.950 . S
C1419 C1414 1.363 1_554 S
C1419 C1418 1.415 . S
H1420 C1417 0.999 1_655 S
H1421 C1402 0.913 . S
H1422 C1440 0.951 . S
H1423 C1442 0.951 . S
H1424 C1444 0.950 . S
H1425 C1445 0.950 . S
H1426 C1447 0.950 . S
H1427 C1450 0.950 . S
H1428 C1451 0.951 . S
H1429 C1453 0.950 . S
H1430 C1454 0.950 . S
H1431 C1455 0.951 . S
H1432 C1457 0.951 . S
H1433 C1459 0.950 . S
H1434 C1460 0.950 . S
H1435 C1462 0.950 . S
H1436 C1465 0.950 . S
H1437 C1466 0.950 . S
H1438 C1468 0.950 . S
H1439 C1469 0.950 . S
C1440 H1422 0.951 . S
C1440 C1441 1.366 . S
C1440 C1442 1.388 . S
C1441 C1440 1.366 . S
C1441 C1445 1.384 1_544 S
C1442 H1423 0.951 . S
C1442 C1440 1.388 . S
C1442 C1443 1.366 1_554 S
C1443 C1442 1.366 1_556 S
C1443 C1444 1.414 1_545 S
C1443 C1446 1.499 . S
C1444 H1424 0.950 . S
C1444 C1443 1.414 1_565 S
C1444 C1445 1.374 . S
C1445 H1425 0.950 . S
C1445 C1441 1.384 1_566 S
C1445 C1444 1.374 . S
C1446 C1443 1.499 . S
C1446 C1447 1.373 1_545 S
C1446 C1448 1.389 . S
C1447 H1426 0.950 . S
C1447 C1446 1.373 1_565 S
C1447 C1463 1.377 . S
C1448 C1446 1.389 . S
C1448 C1449 1.524 . S
C1448 C1462 1.377 . S
C1449 C1448 1.524 . S
C1449 C1450 1.397 . S
C1449 C1454 1.363 1_556 S
C1450 H1427 0.950 . S
C1450 C1449 1.397 . S
C1450 C1451 1.339 . S
C1451 H1428 0.951 . S
C1451 C1450 1.339 . S
C1451 C1452 1.281 1_556 S
C1452 C1451 1.281 1_554 S
C1452 C1453 1.524 . S
C1452 H1471 0.913 . S
C1453 H1429 0.950 . S
C1453 C1452 1.524 . S
C1453 C1454 1.415 . S
C1454 H1430 0.950 . S
C1454 C1449 1.363 1_554 S
C1454 C1453 1.415 . S
C1455 H1431 0.951 . S
C1455 C1456 1.366 . S
C1455 C1457 1.388 . S
C1456 C1455 1.366 . S
C1456 C1460 1.385 1_565 S
C1457 H1432 0.951 . S
C1457 C1455 1.388 . S
C1457 C1458 1.366 . S
C1458 C1457 1.366 . S
C1458 C1459 1.414 1_565 S
C1458 C1461 1.502 . S
C1459 H1433 0.950 . S
C1459 C1458 1.414 1_545 S
C1459 C1460 1.374 . S
C1460 H1434 0.950 . S
C1460 C1456 1.385 1_545 S
C1460 C1459 1.374 . S
C1461 C1458 1.502 . S
C1461 C1462 1.326 1_565 S
C1461 C1463 1.432 . S
C1462 H1435 0.950 . S
C1462 C1448 1.377 . S
C1462 C1461 1.326 1_545 S
C1463 C1447 1.377 . S
C1463 C1461 1.432 . S
C1463 C1464 1.524 . S
C1464 C1463 1.524 . S
C1464 C1465 1.397 . S
C1464 C1469 1.363 . S
C1465 H1436 0.950 . S
C1465 C1464 1.397 . S
C1465 C1466 1.334 . S
C1466 H1437 0.950 . S
C1466 C1465 1.334 . S
C1466 C1467 1.287 . S
C1467 C1466 1.287 . S
C1467 C1468 1.524 . S
C1467 H1470 0.999 . S
C1468 H1438 0.950 . S
C1468 C1467 1.524 . S
C1468 C1469 1.415 . S
C1469 H1439 0.950 . S
C1469 C1464 1.363 . S
C1469 C1468 1.415 . S
H1470 C1467 0.999 . S
H1471 C1452 0.913 . S
H1472 C1490 0.951 . S
H1473 C1492 0.951 . S
H1474 C1494 0.950 . S
H1475 C1495 0.950 . S
H1476 C1497 0.950 . S
H1477 C1500 0.950 . S
H1478 C1501 0.950 . S
H1479 C1503 0.950 . S
H1480 C1504 0.950 . S
H1481 C1505 0.951 . S
H1482 C1507 0.951 . S
H1483 C1509 0.950 . S
H1484 C1510 0.950 . S
H1485 C1512 0.950 . S
H1486 C1515 0.950 . S
H1487 C1516 0.950 . S
H1488 C1518 0.950 . S
H1489 C1519 0.950 . S
C1490 H1472 0.951 . S
C1490 C1491 1.366 . S
C1490 C1492 1.388 . S
C1491 C1490 1.366 . S
C1491 C1495 1.385 1_554 S
C1492 H1473 0.951 . S
C1492 C1490 1.388 . S
C1492 C1493 1.366 1_554 S
C1493 C1492 1.366 1_556 S
C1493 C1494 1.414 . S
C1493 C1496 1.499 . S
C1494 H1474 0.950 . S
C1494 C1493 1.414 . S
C1494 C1495 1.374 . S
C1495 H1475 0.950 . S
C1495 C1491 1.385 1_556 S
C1495 C1494 1.374 . S
C1496 C1493 1.499 . S
C1496 C1497 1.373 . S
C1496 C1498 1.389 . S
C1497 H1476 0.950 . S
C1497 C1496 1.373 . S
C1497 C1513 1.377 . S
C1498 C1496 1.389 . S
C1498 C1499 1.524 . S
C1498 C1512 1.377 . S
C1499 C1498 1.524 . S
C1499 C1500 1.397 . S
C1499 C1504 1.363 . S
C1500 H1477 0.950 . S
C1500 C1499 1.397 . S
C1500 C1501 1.334 . S
C1501 H1478 0.950 . S
C1501 C1500 1.334 . S
C1501 C1502 1.287 . S
C1502 C1501 1.287 . S
C1502 C1503 1.524 1_556 S
C1502 H1521 0.913 1_556 S
C1503 H1479 0.950 . S
C1503 C1502 1.524 1_554 S
C1503 C1504 1.415 1_554 S
C1504 H1480 0.950 . S
C1504 C1499 1.363 . S
C1504 C1503 1.415 1_556 S
C1505 H1481 0.951 . S
C1505 C1506 1.366 . S
C1505 C1507 1.388 . S
C1506 C1505 1.366 . S
C1506 C1510 1.385 . S
C1507 H1482 0.951 . S
C1507 C1505 1.388 . S
C1507 C1508 1.366 . S
C1508 C1507 1.366 . S
C1508 C1509 1.414 . S
C1508 C1511 1.499 . S
C1509 H1483 0.950 . S
C1509 C1508 1.414 . S
C1509 C1510 1.374 . S
C1510 H1484 0.950 . S
C1510 C1506 1.385 . S
C1510 C1509 1.374 . S
C1511 C1508 1.499 . S
C1511 C1512 1.373 . S
C1511 C1513 1.389 . S
C1512 H1485 0.950 . S
C1512 C1498 1.377 . S
C1512 C1511 1.373 . S
C1513 C1497 1.377 . S
C1513 C1511 1.389 . S
C1513 C1514 1.524 . S
C1514 C1513 1.524 . S
C1514 C1515 1.397 . S
C1514 C1519 1.363 . S
C1515 H1486 0.950 . S
C1515 C1514 1.397 . S
C1515 C1516 1.334 . S
C1516 H1487 0.950 . S
C1516 C1515 1.334 . S
C1516 C1517 1.287 . S
C1517 C1516 1.287 . S
C1517 C1518 1.524 . S
C1517 H1520 0.999 . S
C1518 H1488 0.950 . S
C1518 C1517 1.524 . S
C1518 C1519 1.415 . S
C1519 H1489 0.950 . S
C1519 C1514 1.363 . S
C1519 C1518 1.415 . S
H1520 C1517 0.999 . S
H1521 C1502 0.913 1_554 S
H1522 C1540 0.951 . S
H1523 C1542 0.951 . S
H1524 C1544 0.950 . S
H1525 C1545 0.950 . S
H1526 C1547 0.950 . S
H1527 C1550 0.950 . S
H1528 C1551 0.950 . S
H1529 C1553 0.950 . S
H1530 C1554 0.950 . S
H1531 C1555 0.951 . S
H1532 C1557 0.951 . S
H1533 C1559 0.950 . S
H1534 C1560 0.950 . S
H1535 C1562 0.950 . S
H1536 C1565 0.950 . S
H1537 C1566 0.950 . S
H1538 C1568 0.950 . S
H1539 C1569 0.950 . S
C1540 H1522 0.951 . S
C1540 C1541 1.366 . S
C1540 C1542 1.388 . S
C1541 C1540 1.366 . S
C1541 C1545 1.385 1_554 S
C1542 H1523 0.951 . S
C1542 C1540 1.388 . S
C1542 C1543 1.366 1_554 S
C1543 C1542 1.366 1_556 S
C1543 C1544 1.414 . S
C1543 C1546 1.499 . S
C1544 H1524 0.950 . S
C1544 C1543 1.414 . S
C1544 C1545 1.374 . S
C1545 H1525 0.950 . S
C1545 C1541 1.385 1_556 S
C1545 C1544 1.374 . S
C1546 C1543 1.499 . S
C1546 C1547 1.373 . S
C1546 C1548 1.389 . S
C1547 H1526 0.950 . S
C1547 C1546 1.373 . S
C1547 C1563 1.377 . S
C1548 C1546 1.389 . S
C1548 C1549 1.524 1_556 S
C1548 C1562 1.377 . S
C1549 C1548 1.524 1_554 S
C1549 C1550 1.397 . S
C1549 C1554 1.363 . S
C1550 H1527 0.950 . S
C1550 C1549 1.397 . S
C1550 C1551 1.334 . S
C1551 H1528 0.950 . S
C1551 C1550 1.334 . S
C1551 C1552 1.287 . S
C1552 C1551 1.287 . S
C1552 C1553 1.524 . S
C1552 H1571 0.913 . S
C1553 H1529 0.950 . S
C1553 C1552 1.524 . S
C1553 C1554 1.415 . S
C1554 H1530 0.950 . S
C1554 C1549 1.363 . S
C1554 C1553 1.415 . S
C1555 H1531 0.951 . S
C1555 C1556 1.366 . S
C1555 C1557 1.388 . S
C1556 C1555 1.366 . S
C1556 C1560 1.385 . S
C1557 H1532 0.951 . S
C1557 C1555 1.388 . S
C1557 C1558 1.366 . S
C1558 C1557 1.366 . S
C1558 C1559 1.414 . S
C1558 C1561 1.499 . S
C1559 H1533 0.950 . S
C1559 C1558 1.414 . S
C1559 C1560 1.374 . S
C1560 H1534 0.950 . S
C1560 C1556 1.385 . S
C1560 C1559 1.374 . S
C1561 C1558 1.499 . S
C1561 C1562 1.373 . S
C1561 C1563 1.389 . S
C1562 H1535 0.950 . S
C1562 C1548 1.377 . S
C1562 C1561 1.373 . S
C1563 C1547 1.377 . S
C1563 C1561 1.389 . S
C1563 C1564 1.524 . S
C1564 C1563 1.524 . S
C1564 C1565 1.397 . S
C1564 C1569 1.363 . S
C1565 H1536 0.950 . S
C1565 C1564 1.397 . S
C1565 C1566 1.334 . S
C1566 H1537 0.950 . S
C1566 C1565 1.334 . S
C1566 C1567 1.287 . S
C1567 C1566 1.287 . S
C1567 C1568 1.524 . S
C1567 H1570 0.999 . S
C1568 H1538 0.950 . S
C1568 C1567 1.524 . S
C1568 C1569 1.415 . S
C1569 H1539 0.950 . S
C1569 C1564 1.363 . S
C1569 C1568 1.415 . S
H1570 C1567 0.999 . S
H1571 C1552 0.913 . S
H1572 C1590 0.951 . S
H1573 C1592 0.951 . S
H1574 C1594 0.950 . S
H1575 C1595 0.950 . S
H1576 C1597 0.950 . S
H1577 C1600 0.950 . S
H1578 C1601 0.950 . S
H1579 C1603 0.950 . S
H1580 C1604 0.950 . S
H1581 C1605 0.951 . S
H1582 C1607 0.951 1_655 S
H1583 C1609 0.950 . S
H1584 C1610 0.950 . S
H1585 C1612 0.950 . S
H1586 C1615 0.950 . S
H1587 C1616 0.950 . S
H1588 C1618 0.950 . S
H1589 C1619 0.950 . S
C1590 H1572 0.951 . S
C1590 C1591 1.366 . S
C1590 C1592 1.388 . S
C1591 C1590 1.366 . S
C1591 C1595 1.385 . S
C1592 H1573 0.951 . S
C1592 C1590 1.388 . S
C1592 C1593 1.366 . S
C1593 C1592 1.366 . S
C1593 C1594 1.414 . S
C1593 C1596 1.499 . S
C1594 H1574 0.950 . S
C1594 C1593 1.414 . S
C1594 C1595 1.374 . S
C1595 H1575 0.950 . S
C1595 C1591 1.385 . S
C1595 C1594 1.374 . S
C1596 C1593 1.499 . S
C1596 C1597 1.373 . S
C1596 C1598 1.389 1_655 S
C1597 H1576 0.950 . S
C1597 C1596 1.373 . S
C1597 C1613 1.377 . S
C1598 C1596 1.389 1_455 S
C1598 C1599 1.524 . S
C1598 C1612 1.377 . S
C1599 C1598 1.524 . S
C1599 C1600 1.397 . S
C1599 C1604 1.363 . S
C1600 H1577 0.950 . S
C1600 C1599 1.397 . S
C1600 C1601 1.334 . S
C1601 H1578 0.950 . S
C1601 C1600 1.334 . S
C1601 C1602 1.287 . S
C1602 C1601 1.287 . S
C1602 C1603 1.524 . S
C1602 H1621 0.913 . S
C1603 H1579 0.950 . S
C1603 C1602 1.524 . S
C1603 C1604 1.415 . S
C1604 H1580 0.950 . S
C1604 C1599 1.363 . S
C1604 C1603 1.415 . S
C1605 H1581 0.951 . S
C1605 C1606 1.366 . S
C1605 C1607 1.391 . S
C1606 C1605 1.366 . S
C1606 C1610 1.385 . S
C1607 H1582 0.951 1_455 S
C1607 C1605 1.391 . S
C1607 C1608 1.365 . S
C1608 C1607 1.365 . S
C1608 C1609 1.414 . S
C1608 C1611 1.499 1_455 S
C1609 H1583 0.950 . S
C1609 C1608 1.414 . S
C1609 C1610 1.374 . S
C1610 H1584 0.950 . S
C1610 C1606 1.385 . S
C1610 C1609 1.374 . S
C1611 C1608 1.499 1_655 S
C1611 C1612 1.373 1_655 S
C1611 C1613 1.389 . S
C1612 H1585 0.950 . S
C1612 C1598 1.377 . S
C1612 C1611 1.373 1_455 S
C1613 C1597 1.377 . S
C1613 C1611 1.389 . S
C1613 C1614 1.524 . S
C1614 C1613 1.524 . S
C1614 C1615 1.397 . S
C1614 C1619 1.363 . S
C1615 H1586 0.950 . S
C1615 C1614 1.397 . S
C1615 C1616 1.334 . S
C1616 H1587 0.950 . S
C1616 C1615 1.334 . S
C1616 C1617 1.287 . S
C1617 C1616 1.287 . S
C1617 C1618 1.524 . S
C1617 H1620 0.999 . S
C1618 H1588 0.950 . S
C1618 C1617 1.524 . S
C1618 C1619 1.415 . S
C1619 H1589 0.950 . S
C1619 C1614 1.363 . S
C1619 C1618 1.415 . S
H1620 C1617 0.999 . S
H1621 C1602 0.913 . S
H1622 C1640 0.951 . S
H1623 C1642 0.951 . S
H1624 C1644 0.950 . S
H1625 C1645 0.950 . S
H1626 C1647 0.950 . S
H1627 C1650 0.950 . S
H1628 C1651 0.950 . S
H1629 C1653 0.950 . S
H1630 C1654 0.950 . S
H1631 C1655 0.951 1_545 S
H1632 C1657 0.951 1_545 S
H1633 C1659 0.950 . S
H1634 C1660 0.950 . S
H1635 C1662 0.950 . S
H1636 C1665 0.950 . S
H1637 C1666 0.950 . S
H1638 C1668 0.950 . S
H1639 C1669 0.950 . S
C1640 H1622 0.951 . S
C1640 C1641 1.366 . S
C1640 C1642 1.388 . S
C1641 C1640 1.366 . S
C1641 C1645 1.385 1_565 S
C1642 H1623 0.951 . S
C1642 C1640 1.388 . S
C1642 C1643 1.366 . S
C1643 C1642 1.366 . S
C1643 C1644 1.414 1_565 S
C1643 C1646 1.499 . S
C1644 H1624 0.950 . S
C1644 C1643 1.414 1_545 S
C1644 C1645 1.374 . S
C1645 H1625 0.950 . S
C1645 C1641 1.385 1_545 S
C1645 C1644 1.374 . S
C1646 C1643 1.499 . S
C1646 C1647 1.373 1_565 S
C1646 C1648 1.389 . S
C1647 H1626 0.950 . S
C1647 C1646 1.373 1_545 S
C1647 C1663 1.377 . S
C1648 C1646 1.389 . S
C1648 C1649 1.524 . S
C1648 C1662 1.377 . S
C1649 C1648 1.524 . S
C1649 C1650 1.397 . S
C1649 C1654 1.363 . S
C1650 H1627 0.950 . S
C1650 C1649 1.397 . S
C1650 C1651 1.334 . S
C1651 H1628 0.950 . S
C1651 C1650 1.334 . S
C1651 C1652 1.287 . S
C1652 C1651 1.287 . S
C1652 C1653 1.524 . S
C1652 H1671 0.913 . S
C1653 H1629 0.950 . S
C1653 C1652 1.524 . S
C1653 C1654 1.415 . S
C1654 H1630 0.950 . S
C1654 C1649 1.363 . S
C1654 C1653 1.415 . S
C1655 H1631 0.951 1_565 S
C1655 C1656 1.366 . S
C1655 C1657 1.388 . S
C1656 C1655 1.366 . S
C1656 C1660 1.385 . S
C1657 H1632 0.951 1_565 S
C1657 C1655 1.388 . S
C1657 C1658 1.366 . S
C1658 C1657 1.366 . S
C1658 C1659 1.414 . S
C1658 C1661 1.499 . S
C1659 H1633 0.950 . S
C1659 C1658 1.414 . S
C1659 C1660 1.374 . S
C1660 H1634 0.950 . S
C1660 C1656 1.385 . S
C1660 C1659 1.374 . S
C1661 C1658 1.499 . S
C1661 C1662 1.373 . S
C1661 C1663 1.389 1_565 S
C1662 H1635 0.950 . S
C1662 C1648 1.377 . S
C1662 C1661 1.373 . S
C1663 C1647 1.377 . S
C1663 C1661 1.389 1_545 S
C1663 C1664 1.524 . S
C1664 C1663 1.524 . S
C1664 C1665 1.397 . S
C1664 C1669 1.363 . S
C1665 H1636 0.950 . S
C1665 C1664 1.397 . S
C1665 C1666 1.334 . S
C1666 H1637 0.950 . S
C1666 C1665 1.334 . S
C1666 C1667 1.287 . S
C1667 C1666 1.287 . S
C1667 C1668 1.524 . S
C1667 H1670 0.999 . S
C1668 H1638 0.950 . S
C1668 C1667 1.524 . S
C1668 C1669 1.415 . S
C1669 H1639 0.950 . S
C1669 C1664 1.363 . S
C1669 C1668 1.415 . S
H1670 C1667 0.999 . S
H1671 C1652 0.913 . S
H1672 C1690 0.951 . S
H1673 C1692 0.951 . S
H1674 C1694 0.950 . S
H1675 C1695 0.950 . S
H1676 C1697 0.950 . S
H1677 C1700 0.950 . S
H1678 C1701 0.950 . S
H1679 C1703 0.950 . S
H1680 C1704 0.950 . S
H1681 C1705 0.951 . S
H1682 C1707 0.951 . S
H1683 C1709 0.950 . S
H1684 C1710 0.950 . S
H1685 C1712 0.950 . S
H1686 C1715 0.950 . S
H1687 C1716 0.950 . S
H1688 C1718 0.950 . S
H1689 C1719 0.950 . S
C1690 H1672 0.951 . S
C1690 C1691 1.366 . S
C1690 C1692 1.388 . S
C1691 C1690 1.366 . S
C1691 C1695 1.385 . S
C1692 H1673 0.951 . S
C1692 C1690 1.388 . S
C1692 C1693 1.366 . S
C1693 C1692 1.366 . S
C1693 C1694 1.414 . S
C1693 C1696 1.499 . S
C1694 H1674 0.950 . S
C1694 C1693 1.414 . S
C1694 C1695 1.374 . S
C1695 H1675 0.950 . S
C1695 C1691 1.385 . S
C1695 C1694 1.374 . S
C1696 C1693 1.499 . S
C1696 C1697 1.373 . S
C1696 C1698 1.389 . S
C1697 H1676 0.950 . S
C1697 C1696 1.373 . S
C1697 C1713 1.377 . S
C1698 C1696 1.389 . S
C1698 C1699 1.524 . S
C1698 C1712 1.377 . S
C1699 C1698 1.524 . S
C1699 C1700 1.397 . S
C1699 C1704 1.363 . S
C1700 H1677 0.950 . S
C1700 C1699 1.397 . S
C1700 C1701 1.334 . S
C1701 H1678 0.950 . S
C1701 C1700 1.334 . S
C1701 C1702 1.287 . S
C1702 C1701 1.287 . S
C1702 C1703 1.524 . S
C1702 H1721 0.913 . S
C1703 H1679 0.950 . S
C1703 C1702 1.524 . S
C1703 C1704 1.415 . S
C1704 H1680 0.950 . S
C1704 C1699 1.363 . S
C1704 C1703 1.415 . S
C1705 H1681 0.951 . S
C1705 C1706 1.366 . S
C1705 C1707 1.388 . S
C1706 C1705 1.366 . S
C1706 C1710 1.385 . S
C1707 H1682 0.951 . S
C1707 C1705 1.388 . S
C1707 C1708 1.366 . S
C1708 C1707 1.366 . S
C1708 C1709 1.414 . S
C1708 C1711 1.499 . S
C1709 H1683 0.950 . S
C1709 C1708 1.414 . S
C1709 C1710 1.374 . S
C1710 H1684 0.950 . S
C1710 C1706 1.385 . S
C1710 C1709 1.374 . S
C1711 C1708 1.499 . S
C1711 C1712 1.373 . S
C1711 C1713 1.389 . S
C1712 H1685 0.950 . S
C1712 C1698 1.377 . S
C1712 C1711 1.373 . S
C1713 C1697 1.377 . S
C1713 C1711 1.389 . S
C1713 C1714 1.524 . S
C1714 C1713 1.524 . S
C1714 C1715 1.397 . S
C1714 C1719 1.363 . S
C1715 H1686 0.950 . S
C1715 C1714 1.397 . S
C1715 C1716 1.334 . S
C1716 H1687 0.950 . S
C1716 C1715 1.334 . S
C1716 C1717 1.287 . S
C1717 C1716 1.287 . S
C1717 C1718 1.524 . S
C1717 H1720 0.999 . S
C1718 H1688 0.950 . S
C1718 C1717 1.524 . S
C1718 C1719 1.415 . S
C1719 H1689 0.950 . S
C1719 C1714 1.363 . S
C1719 C1718 1.415 . S
H1720 C1717 0.999 . S
H1721 C1702 0.913 . S
H1722 C1740 0.951 . S
H1723 C1742 0.951 . S
H1724 C1744 0.950 . S
H1725 C1745 0.950 . S
H1726 C1747 0.950 . S
H1727 C1750 0.950 . S
H1728 C1751 0.950 . S
H1729 C1753 0.950 . S
H1730 C1754 0.950 . S
H1731 C1755 0.951 . S
H1732 C1757 0.951 . S
H1733 C1759 0.950 . S
H1734 C1760 0.950 . S
H1735 C1762 0.950 . S
H1736 C1765 0.950 . S
H1737 C1766 0.950 . S
H1738 C1768 0.950 . S
H1739 C1769 0.950 . S
C1740 H1722 0.951 . S
C1740 C1741 1.366 . S
C1740 C1742 1.388 . S
C1741 C1740 1.366 . S
C1741 C1745 1.385 . S
C1742 H1723 0.951 . S
C1742 C1740 1.388 . S
C1742 C1743 1.366 . S
C1743 C1742 1.366 . S
C1743 C1744 1.414 . S
C1743 C1746 1.499 . S
C1744 H1724 0.950 . S
C1744 C1743 1.414 . S
C1744 C1745 1.374 . S
C1745 H1725 0.950 . S
C1745 C1741 1.385 . S
C1745 C1744 1.374 . S
C1746 C1743 1.499 . S
C1746 C1747 1.373 . S
C1746 C1748 1.389 . S
C1747 H1726 0.950 . S
C1747 C1746 1.373 . S
C1747 C1763 1.377 . S
C1748 C1746 1.389 . S
C1748 C1749 1.524 . S
C1748 C1762 1.377 . S
C1749 C1748 1.524 . S
C1749 C1750 1.397 . S
C1749 C1754 1.363 . S
C1750 H1727 0.950 . S
C1750 C1749 1.397 . S
C1750 C1751 1.334 . S
C1751 H1728 0.950 . S
C1751 C1750 1.334 . S
C1751 C1752 1.287 . S
C1752 C1751 1.287 . S
C1752 C1753 1.524 . S
C1752 H1771 0.913 . S
C1753 H1729 0.950 . S
C1753 C1752 1.524 . S
C1753 C1754 1.415 . S
C1754 H1730 0.950 . S
C1754 C1749 1.363 . S
C1754 C1753 1.415 . S
C1755 H1731 0.951 . S
C1755 C1756 1.366 . S
C1755 C1757 1.388 . S
C1756 C1755 1.366 . S
C1756 C1760 1.385 . S
C1757 H1732 0.951 . S
C1757 C1755 1.388 . S
C1757 C1758 1.366 . S
C1758 C1757 1.366 . S
C1758 C1759 1.414 . S
C1758 C1761 1.499 . S
C1759 H1733 0.950 . S
C1759 C1758 1.414 . S
C1759 C1760 1.374 . S
C1760 H1734 0.950 . S
C1760 C1756 1.385 . S
C1760 C1759 1.374 . S
C1761 C1758 1.499 . S
C1761 C1762 1.373 . S
C1761 C1763 1.389 . S
C1762 H1735 0.950 . S
C1762 C1748 1.377 . S
C1762 C1761 1.373 . S
C1763 C1747 1.377 . S
C1763 C1761 1.389 . S
C1763 C1764 1.524 . S
C1764 C1763 1.524 . S
C1764 C1765 1.397 . S
C1764 C1769 1.363 . S
C1765 H1736 0.950 . S
C1765 C1764 1.397 . S
C1765 C1766 1.334 . S
C1766 H1737 0.950 . S
C1766 C1765 1.334 . S
C1766 C1767 1.287 . S
C1767 C1766 1.287 . S
C1767 C1768 1.524 . S
C1767 H1770 0.999 . S
C1768 H1738 0.950 . S
C1768 C1767 1.524 . S
C1768 C1769 1.415 . S
C1769 H1739 0.950 . S
C1769 C1764 1.363 . S
C1769 C1768 1.415 . S
H1770 C1767 0.999 . S
H1771 C1752 0.913 . S
C591 C391 1.611 1_565 S
C606 C496 1.579 . S
C656 C519 1.794 . S
C641 C451 1.841 . S
C706 C542 1.691 . S
C691 C241 1.597 . S
C756 C569 1.568 . S
C741 C331 1.535 . S
C806 C497 1.546 . S
C791 C121 1.463 1_545 S
C841 C211 1.561 1_556 S
C856 C520 1.573 . S
C891 C31 1.411 . S
C906 C543 1.394 . S
C941 C91 1.562 . S
C956 C568 1.652 . S
C1006 C498 0.439 . S
C991 C301 0.979 . S
C1056 C521 0.723 . S
C1041 C380 0.724 . S
C1106 C544 0.418 . S
C1091 C440 0.422 . S
C1141 C260 0.747 . S
C1156 C570 0.749 . S
C1191 C61 0.514 . S
C1206 C501 0.707 . S
C1256 C524 0.815 . S
C1241 C140 0.666 . S
C1306 C547 0.729 . S
C1291 C200 0.565 . S
C1341 C20 0.522 . S
C1356 C567 0.560 . S
C1391 C320 1.935 . S
C1406 C499 1.922 . S
C1441 C361 1.675 . S
C1456 C522 1.825 1_565 S
C1506 C545 1.851 . S
C1491 C421 1.713 . S
C1556 C566 1.505 . S
C1541 C271 1.497 . S
C1591 C80 1.927 . S
C1606 C500 1.838 . S
C1656 C523 1.714 . S
C1641 C151 1.787 . S
C1706 C546 1.703 . S
C1691 C181 1.598 . S
C1741 C1 1.816 . S
C1756 C565 2.003 . S
