# Generated by pormake.
# Topology zzz, (3,6)-cn, num edge types: 1
# Building blocks:
#     Node 0, Type 0, BuildingBlock: ESEHIV_clean_linker_0, # of connection points: 3
#     Node 1, Type 0, BuildingBlock: ESEHIV_clean_linker_0, # of connection points: 3
#     Node 2, Type 0, BuildingBlock: ESEHIV_clean_linker_0, # of connection points: 3
#     Node 3, Type 0, BuildingBlock: ESEHIV_clean_linker_0, # of connection points: 3
#     Node 4, Type 0, BuildingBlock: ESEHIV_clean_linker_0, # of connection points: 3
#     Node 5, Type 0, BuildingBlock: ESEHIV_clean_linker_0, # of connection points: 3
#     Node 6, Type 0, BuildingBlock: ESEHIV_clean_linker_0, # of connection points: 3
#     Node 7, Type 0, BuildingBlock: ESEHIV_clean_linker_0, # of connection points: 3
#     Node 8, Type 1, BuildingBlock: HISSIN_clean_sbu_0, # of connection points: 6
#     Node 9, Type 1, BuildingBlock: HISSIN_clean_sbu_0, # of connection points: 6
#     Node 10, Type 1, BuildingBlock: HISSIN_clean_sbu_0, # of connection points: 6
#     Node 11, Type 1, BuildingBlock: HISSIN_clean_sbu_0, # of connection points: 6
#     Edge 12, Type (0, 1), BuildingBlock: ZUJKAS_clean_linker_0, # of connection points: 2
#     Edge 13, Type (0, 1), BuildingBlock: ZUJKAS_clean_linker_0, # of connection points: 2
#     Edge 14, Type (0, 1), BuildingBlock: ZUJKAS_clean_linker_0, # of connection points: 2
#     Edge 15, Type (0, 1), BuildingBlock: ZUJKAS_clean_linker_0, # of connection points: 2
#     Edge 16, Type (0, 1), BuildingBlock: ZUJKAS_clean_linker_0, # of connection points: 2
#     Edge 17, Type (0, 1), BuildingBlock: ZUJKAS_clean_linker_0, # of connection points: 2
#     Edge 18, Type (0, 1), BuildingBlock: ZUJKAS_clean_linker_0, # of connection points: 2
#     Edge 19, Type (0, 1), BuildingBlock: ZUJKAS_clean_linker_0, # of connection points: 2
#     Edge 20, Type (0, 1), BuildingBlock: ZUJKAS_clean_linker_0, # of connection points: 2
#     Edge 21, Type (0, 1), BuildingBlock: ZUJKAS_clean_linker_0, # of connection points: 2
#     Edge 22, Type (0, 1), BuildingBlock: ZUJKAS_clean_linker_0, # of connection points: 2
#     Edge 23, Type (0, 1), BuildingBlock: ZUJKAS_clean_linker_0, # of connection points: 2
#     Edge 24, Type (0, 1), BuildingBlock: ZUJKAS_clean_linker_0, # of connection points: 2
#     Edge 25, Type (0, 1), BuildingBlock: ZUJKAS_clean_linker_0, # of connection points: 2
#     Edge 26, Type (0, 1), BuildingBlock: ZUJKAS_clean_linker_0, # of connection points: 2
#     Edge 27, Type (0, 1), BuildingBlock: ZUJKAS_clean_linker_0, # of connection points: 2
#     Edge 28, Type (0, 1), BuildingBlock: ZUJKAS_clean_linker_0, # of connection points: 2
#     Edge 29, Type (0, 1), BuildingBlock: ZUJKAS_clean_linker_0, # of connection points: 2
#     Edge 30, Type (0, 1), BuildingBlock: ZUJKAS_clean_linker_0, # of connection points: 2
#     Edge 31, Type (0, 1), BuildingBlock: ZUJKAS_clean_linker_0, # of connection points: 2
#     Edge 32, Type (0, 1), BuildingBlock: ZUJKAS_clean_linker_0, # of connection points: 2
#     Edge 33, Type (0, 1), BuildingBlock: ZUJKAS_clean_linker_0, # of connection points: 2
#     Edge 34, Type (0, 1), BuildingBlock: ZUJKAS_clean_linker_0, # of connection points: 2
#     Edge 35, Type (0, 1), BuildingBlock: ZUJKAS_clean_linker_0, # of connection points: 2
# Relax obj value: 0.391
# Max RMSD: 0.222
# Mean RMSD: 0.191
data_MOF--net-zzz--node1-HISSIN_clean_sbu_0--node2-ESEHIV_clean_linker_0--edge1-ZUJKAS_clean_linker_0
_symmetry_space_group_name_H-M    P1
_symmetry_Int_Tables_number       1
_symmetry_cell_setting            triclinic
loop_
_symmetry_equiv_pos_as_xyz
'x, y, z'
_cell_length_a     56.8518
_cell_length_b     57.073679
_cell_length_c     21.804146
_cell_angle_alpha  89.813189
_cell_angle_beta   91.66143
_cell_angle_gamma 91.776729
loop_
_atom_site_label
_atom_site_type_symbol
_atom_site_fract_x
_atom_site_fract_y
_atom_site_fract_z
_atom_type_partial_charge
H0 H 0.78656 0.57472 0.25186 0.0
H1 H 0.72692 0.56495 0.1278 0.0
H2 H 0.72314 0.54006 0.31347 0.0
C3 C 0.76845 0.56892 0.24287 0.0
C4 C 0.75616 0.55742 0.28965 0.0
C5 C 0.75844 0.57118 0.18365 0.0
C6 C 0.73491 0.56384 0.17342 0.0
C7 C 0.72184 0.55321 0.21998 0.0
C8 C 0.73266 0.54941 0.27819 0.0
H9 H 0.96236 0.78547 0.28277 0.0
H10 H 0.95461 0.73053 0.14936 0.0
H11 H 1.00991 0.72843 0.28918 0.0
C12 C 0.96724 0.76844 0.26608 0.0
C13 C 0.98663 0.75776 0.29375 0.0
C14 C 0.95593 0.75911 0.21338 0.0
C15 C 0.96309 0.73762 0.19078 0.0
C16 C 0.98227 0.72611 0.21814 0.0
C17 C 0.99454 0.73658 0.26915 0.0
H18 H 0.72522 0.96114 0.16929 0.0
H19 H 0.78873 0.96357 0.06756 0.0
H20 H 0.7892 0.99172 0.25011 0.0
C21 C 0.74393 0.96523 0.16689 0.0
C22 C 0.75577 0.97624 0.21701 0.0
C23 C 0.75564 0.96059 0.11272 0.0
C24 C 0.77971 0.96612 0.1101 0.0
C25 C 0.79209 0.97714 0.15884 0.0
C26 C 0.78003 0.98251 0.21275 0.0
H27 H 0.48438 0.73831 0.22697 0.0
H28 H 0.5361 0.79295 0.26841 0.0
H29 H 0.48516 0.80188 0.1208 0.0
C30 C 0.4914 0.75583 0.21821 0.0
C31 C 0.48243 0.7689 0.16868 0.0
C32 C 0.51027 0.76448 0.25535 0.0
C33 C 0.52102 0.78644 0.24136 0.0
C34 C 0.51171 0.80008 0.19271 0.0
C35 C 0.49219 0.79134 0.15806 0.0
H36 H 0.24331 0.44908 0.0903 0.0
H37 H 0.30537 0.46002 0.20494 0.0
H38 H 0.30862 0.47187 1.01065 0.0
C39 C 0.26194 0.4535 0.09558 0.0
C40 C 0.27447 0.46033 0.0436 0.0
C41 C 0.27258 0.45401 0.1544 0.0
C42 C 0.29678 0.45915 0.15994 0.0
C43 C 0.31008 0.46487 0.10858 0.0
C44 C 0.29875 0.46632 0.05017 0.0
H45 H 0.07695 0.238 0.08416 0.0
H46 H 0.08534 0.29111 0.22216 0.0
H47 H 0.03299 0.29789 0.07596 0.0
C48 C 0.07272 0.25518 0.10129 0.0
C49 C 0.05429 0.26709 0.07275 0.0
C50 C 0.08364 0.26342 0.15558 0.0
C51 C 0.07732 0.28507 0.17909 0.0
C52 C 0.05955 0.29813 0.14991 0.0
C53 C 0.04753 0.28871 0.09713 0.0
H54 H 0.29595 0.08457 0.08437 0.0
H55 H 0.23982 0.08693 0.21101 0.0
H56 H 0.23939 0.03281 0.07311 0.0
C57 C 0.27882 0.07823 0.09908 0.0
C58 C 0.26842 0.05842 0.07027 0.0
C59 C 0.269 0.08826 0.15055 0.0
C60 C 0.24736 0.07933 0.17078 0.0
C61 C 0.23634 0.05949 0.14322 0.0
C62 C 0.24727 0.04856 0.09353 0.0
H63 H 0.56278 0.28791 0.11542 0.0
H64 H 0.51201 0.23274 0.07038 0.0
H65 H 0.55975 0.22547 0.2257 0.0
C66 C 0.55555 0.27049 0.12435 0.0
C67 C 0.56348 0.25792 0.17598 0.0
C68 C 0.53744 0.26144 0.08519 0.0
C69 C 0.52642 0.2396 0.09928 0.0
C70 C 0.53473 0.22641 0.15 0.0
C71 C 0.55344 0.23562 0.18687 0.0
Eu72 Eu 0.99893 0.02588 0.61172 0.0
Eu73 Eu 0.0359 1.00754 0.71578 0.0
C74 C 0.02432 0.0616 0.709 0.0
C75 C 0.97912 0.04801 0.45973 0.0
C76 C 0.97392 0.07046 0.43822 0.0
C77 C 1.0076 0.04455 0.37951 0.0
C78 C 0.98652 0.08046 0.39026 0.0
C79 C 0.99524 0.03468 0.42815 0.0
C80 C 1.00443 0.06807 0.3625 0.0
C81 C 0.97234 0.04131 0.52212 0.0
O82 O 1.00218 0.01428 0.76425 0.0
O83 O 0.97527 0.01033 0.68483 0.0
C84 C 0.98035 0.01114 0.74407 0.0
O85 O 1.01067 0.99052 0.58069 0.0
O86 O 0.05305 0.01112 0.80633 0.0
O87 O 0.05886 0.98043 0.75196 0.0
O88 O 0.01603 0.97566 0.67635 0.0
C89 C 0.01269 0.97238 0.61715 0.0
O90 O 0.03485 0.03483 0.57339 0.0
O91 O 0.05837 0.01091 0.63202 0.0
O92 O 0.04161 0.0469 0.71483 0.0
O93 O 0.97323 0.01914 0.53668 0.0
O94 O 0.98185 0.05475 0.56481 0.0
O95 O 1.00441 0.05523 0.68077 0.0
C96 C 0.04877 0.97486 0.85408 0.0
C97 C 0.02481 0.96872 0.8459 0.0
C98 C 0.04903 0.95501 0.95271 0.0
C99 C 0.01296 0.95625 0.89076 0.0
C100 C 0.06093 0.96799 0.90769 0.0
C101 C 0.02486 0.94933 0.9447 0.0
C102 C 0.05974 0.98949 0.80685 0.0
C103 C 0.0549 0.02428 0.58348 0.0
H104 H 0.96171 0.08109 0.46227 0.0
H105 H 0.02078 0.03426 0.35816 0.0
H106 H 0.9836 0.09865 0.37908 0.0
H107 H 0.99969 0.01731 0.44394 0.0
H108 H 0.01517 0.97365 0.8046 0.0
H109 H 0.05857 0.94966 0.99388 0.0
H110 H 0.99449 0.95163 0.88269 0.0
H111 H 0.0794 0.9727 0.91475 0.0
Eu112 Eu 0.52768 0.03001 0.69719 0.0
Eu113 Eu 0.50129 0.98921 0.61495 0.0
C114 C 0.52563 0.97567 0.74463 0.0
C115 C 0.5821 0.05694 0.74864 0.0
C116 C 0.58978 0.03492 0.73095 0.0
C117 C 0.62252 0.07203 0.74694 0.0
C118 C 0.61334 0.03145 0.72079 0.0
C119 C 0.59853 0.07563 0.75612 0.0
C120 C 0.63002 0.04989 0.72853 0.0
C121 C 0.55661 0.05996 0.75067 0.0
O122 O 0.47205 1.00735 0.66327 0.0
O123 O 0.49219 0.02714 0.74132 0.0
C124 C 0.47242 0.0186 0.71604 0.0
O125 O 0.50426 0.04993 0.63187 0.0
O126 O 0.4741 0.96181 0.59888 0.0
O127 O 0.49726 0.97193 0.52592 0.0
O128 O 0.50292 0.02214 0.5569 0.0
C129 C 0.50061 0.0439 0.57435 0.0
O130 O 0.55124 0.02069 0.61951 0.0
O131 O 0.54011 0.9825 0.60541 0.0
O132 O 0.50892 0.97049 0.70368 0.0
O133 O 0.54682 0.06379 0.697 0.0
O134 O 0.54505 0.04377 0.78101 0.0
O135 O 0.53767 0.99574 0.74299 0.0
C136 C 0.45692 0.97108 0.50208 0.0
C137 C 0.45938 0.97408 0.43861 0.0
C138 C 0.42508 0.99852 0.49903 0.0
C139 C 0.44567 0.99018 0.40634 0.0
C140 C 0.43862 0.98237 0.53103 0.0
C141 C 0.42928 1.00352 0.4371 0.0
C142 C 0.47689 0.96248 0.53964 0.0
C143 C 0.55579 0.99969 0.59981 0.0
H144 H 0.57744 0.02028 0.72429 0.0
H145 H 0.63517 0.08639 0.75427 0.0
H146 H 0.61857 0.014 0.70865 0.0
H147 H 0.59284 0.09286 0.76866 0.0
H148 H 0.47334 0.96561 0.41515 0.0
H149 H 0.41269 1.00841 0.52445 0.0
H150 H 0.44885 0.99312 0.35816 0.0
H151 H 0.43613 0.98052 0.57989 0.0
Eu152 Eu 0.49511 0.51492 0.68988 0.0
Eu153 Eu 0.54314 0.50294 0.61825 0.0
C154 C 0.54535 0.51764 0.76001 0.0
C155 C 0.44445 0.54648 0.76027 0.0
C156 C 0.4534 0.56841 0.74149 0.0
C157 C 0.41457 0.5656 0.81752 0.0
C158 C 0.44314 0.58885 0.76111 0.0
C159 C 0.42483 0.54512 0.79763 0.0
C160 C 0.42382 0.58769 0.80004 0.0
C161 C 0.4558 0.52504 0.74186 0.0
O162 O 0.52999 0.46729 0.65232 0.0
O163 O 0.50338 0.47869 0.72332 0.0
C164 C 0.51609 0.46257 0.6985 0.0
O165 O 0.48479 0.49323 0.6064 0.0
O166 O 0.58128 0.50668 0.60907 0.0
O167 O 0.56006 0.4873 0.54102 0.0
O168 O 0.51395 0.50745 0.54682 0.0
C169 C 0.49267 0.49828 0.55191 0.0
O170 O 0.503 0.54737 0.6333 0.0
O171 O 0.54216 0.5425 0.61587 0.0
O172 O 0.55262 0.50286 0.71921 0.0
O173 O 0.45779 0.52225 0.68299 0.0
O174 O 0.47502 0.51995 0.77246 0.0
O175 O 0.52561 0.52875 0.7505 0.0
C176 C 0.59834 0.47466 0.56077 0.0
C177 C 0.59308 0.45315 0.5891 0.0
C178 C 0.63288 0.45815 0.51716 0.0
C179 C 0.60703 0.43391 0.57915 0.0
C180 C 0.61878 0.47735 0.52681 0.0
C181 C 0.62653 0.43594 0.54083 0.0
C182 C 0.5813 0.49339 0.56052 0.0
C183 C 0.52347 0.55551 0.6145 0.0
H184 H 0.46861 0.56972 0.71272 0.0
H185 H 0.39969 0.56419 0.84736 0.0
H186 H 0.451 0.60558 0.74787 0.0
H187 H 0.41769 0.52825 0.81224 0.0
H188 H 0.57737 0.45085 0.61571 0.0
H189 H 0.64797 0.46037 0.48825 0.0
H190 H 0.60137 0.41709 0.59757 0.0
H191 H 0.62315 0.49395 0.50505 0.0
Eu192 Eu 0.02732 0.5356 0.63124 0.0
Eu193 Eu 1.00361 0.49461 0.71368 0.0
C194 C 0.05948 0.50264 0.71935 0.0
C195 C 0.07575 0.56779 0.55722 0.0
C196 C 0.09143 0.55795 0.60029 0.0
C197 C 0.1063 0.56794 0.48204 0.0
C198 C 0.11385 0.55188 0.58345 0.0
C199 C 0.08364 0.57369 0.49879 0.0
C200 C 0.12115 0.55573 0.52317 0.0
C201 C 0.0505 0.56741 0.56974 0.0
O202 O 0.01277 0.52496 0.7778 0.0
O203 O 1.00904 0.55409 0.70705 0.0
C204 C 1.00987 0.54717 0.76451 0.0
O205 O 0.98994 0.53159 0.59315 0.0
O206 O 0.99199 0.48076 0.80164 0.0
O207 O 0.98529 0.46046 0.71936 0.0
O208 O 0.97353 0.51686 0.68024 0.0
C209 C 0.97131 0.52634 0.62545 0.0
O210 O 0.03666 0.50137 0.58668 0.0
O211 O 1.00393 0.48106 0.6165 0.0
O212 O 0.04234 0.48663 0.71993 0.0
O213 O 0.03831 0.55027 0.54352 0.0
O214 O 0.04525 0.56989 0.62714 0.0
O215 O 0.05584 0.52385 0.6981 0.0
C216 C 0.95415 0.46458 0.787 0.0
C217 C 0.939 0.47347 0.74103 0.0
C218 C 0.92423 0.47055 0.86177 0.0
C219 C 0.91726 0.48211 0.75601 0.0
C220 C 0.9461 0.462 0.8468 0.0
C221 C 0.91031 0.48211 0.81727 0.0
C222 C 0.97949 0.46377 0.77598 0.0
C223 C 0.02164 0.48357 0.57964 0.0
H224 H 0.0858 0.55327 0.64577 0.0
H225 H 0.11162 0.57173 0.43567 0.0
H226 H 0.12456 0.5424 0.6164 0.0
H227 H 0.0718 0.58131 0.46494 0.0
H228 H 0.94477 0.47573 0.6944 0.0
H229 H 0.91901 0.4696 0.90911 0.0
H230 H 0.90699 0.49071 0.72045 0.0
H231 H 0.9575 0.45521 0.8829 0.0
H232 H 0.19472 0.0811 0.15272 0.0
H233 H 0.16308 0.07107 0.223 0.0
H234 H 0.19782 1.00749 0.27367 0.0
H235 H 0.22964 0.0176 0.20309 0.0
H236 H 0.13151 0.03157 0.23889 0.0
H237 H 0.1943 0.04367 0.43738 0.0
H238 H 0.20124 0.0533 0.36089 0.0
H239 H 0.20228 0.02278 0.38069 0.0
C240 C 0.1952 0.0646 0.17735 0.0
C241 C 0.21452 0.05 0.17186 0.0
C242 C 0.17718 0.05895 0.2179 0.0
C243 C 0.17821 0.03874 0.25467 0.0
C244 C 0.19677 0.02337 0.24655 0.0
H245 H 0.09392 0.99761 0.57173 0.0
H246 H 0.12334 0.99996 0.49191 0.0
C247 C 0.21477 0.02895 0.2055 0.0
C248 C 0.16065 0.03477 0.30378 0.0
H249 H 0.15499 0.03375 0.45975 0.0
C250 C 0.13667 0.03192 0.28717 0.0
C251 C 0.16727 0.03528 0.36695 0.0
C252 C 0.19263 0.0391 0.38792 0.0
C253 C 0.11925 0.02944 0.33168 0.0
C254 C 0.1258 0.03052 0.39494 0.0
C255 C 0.14984 0.033 0.4115 0.0
C256 C 0.10803 0.02943 0.44449 0.0
C257 C 0.094 0.02533 0.31018 0.0
C258 C 0.08985 0.04554 0.44587 0.0
C259 C 0.07273 0.04404 0.49101 0.0
C260 C 0.07375 0.02674 0.53718 0.0
C261 C 0.09252 0.01118 0.53712 0.0
C262 C 0.10939 0.01248 0.49131 0.0
H263 H 0.09289 0.01705 0.2641 0.0
H264 H 0.0841 0.01401 0.34262 0.0
H265 H 0.08534 0.04242 0.30647 0.0
H266 H 0.08895 0.05938 0.41194 0.0
H267 H 0.05872 0.05648 0.48972 0.0
H268 H 0.55718 0.18592 0.17279 0.0
H269 H 0.54295 0.15276 0.23281 0.0
H270 H 0.47364 0.18153 0.23208 0.0
H271 H 0.48843 0.21574 0.17428 0.0
H272 H 0.485 0.17065 0.34266 0.0
H273 H 0.50661 0.09411 0.20616 0.0
H274 H 0.53278 0.1121 0.21567 0.0
H275 H 0.50753 0.12329 0.17416 0.0
C276 C 0.53871 0.18485 0.18376 0.0
C277 C 0.52393 0.20346 0.16875 0.0
C278 C 0.53049 0.16571 0.21793 0.0
C279 C 0.50706 0.16426 0.23676 0.0
C280 C 0.49178 0.1821 0.21814 0.0
H281 H 0.47979 0.03826 0.4604 0.0
H282 H 0.47657 0.06751 0.3784 0.0
C283 C 0.50013 0.20152 0.18435 0.0
C284 C 0.49971 0.14569 0.28162 0.0
H285 H 0.50715 0.08802 0.31731 0.0
C286 C 0.4894 0.15247 0.33643 0.0
C287 C 0.50477 0.12174 0.27367 0.0
C288 C 0.51326 0.11241 0.21382 0.0
C289 C 0.48545 0.13642 0.38453 0.0
C290 C 0.49297 0.11307 0.3791 0.0
C291 C 0.50186 0.10597 0.32277 0.0
C292 C 0.49269 0.09597 0.43143 0.0
C293 C 0.47314 0.14478 0.44041 0.0
C294 C 0.50273 0.10208 0.4892 0.0
C295 C 0.50421 0.08548 0.5366 0.0
C296 C 0.4963 0.06216 0.5269 0.0
C297 C 0.48605 0.05607 0.46942 0.0
C298 C 0.48419 0.0728 0.42243 0.0
H299 H 0.46074 0.15883 0.42811 0.0
H300 H 0.46315 0.13028 0.46295 0.0
H301 H 0.48639 0.15231 0.47375 0.0
H302 H 0.51027 0.11948 0.49718 0.0
H303 H 0.51256 0.09067 0.57995 0.0
H304 H 0.33204 0.50791 0.11722 0.0
H305 H 0.36879 0.51667 0.17579 0.0
H306 H 0.38019 0.4426 0.19494 0.0
H307 H 0.34395 0.43403 0.13541 0.0
H308 H 0.37321 0.50516 0.29238 0.0
H309 H 0.44662 0.46544 0.17438 0.0
H310 H 0.41858 0.47029 0.1362 0.0
H311 H 0.42274 0.44457 0.183 0.0
C312 C 0.34317 0.49362 0.13086 0.0
C313 C 0.33547 0.47031 0.1205 0.0
C314 C 0.364 0.49858 0.16518 0.0
C315 C 0.37749 0.48033 0.1898 0.0
C316 C 0.37061 0.45708 0.17545 0.0
H317 H 0.44828 0.47809 0.54513 0.0
H318 H 0.42163 0.47471 0.45543 0.0
C319 C 0.34988 0.45214 0.14105 0.0
C320 C 0.39637 0.48522 0.2377 0.0
H321 H 0.45223 0.4711 0.28396 0.0
C322 C 0.3906 0.49799 0.28991 0.0
C323 C 0.41922 0.4761 0.23485 0.0
C324 C 0.42723 0.46356 0.17874 0.0
C325 C 0.40655 0.50109 0.33995 0.0
C326 C 0.42882 0.49064 0.3388 0.0
C327 C 0.43503 0.47875 0.28556 0.0
C328 C 0.44565 0.49165 0.39274 0.0
C329 C 0.39934 0.51561 0.39359 0.0
C330 C 0.46849 0.50141 0.38723 0.0
C331 C 0.48394 0.50313 0.43852 0.0
C332 C 0.47692 0.49506 0.49651 0.0
C333 C 0.45427 0.48468 0.50145 0.0
C334 C 0.4389 0.48288 0.45015 0.0
H335 H 0.38548 0.52805 0.37979 0.0
H336 H 0.39203 0.50383 0.42937 0.0
H337 H 0.41459 0.52574 0.41403 0.0
H338 H 0.47422 0.50816 0.34345 0.0
H339 H 0.50124 0.51119 0.43288 0.0
H340 H 0.01611 0.31072 0.18833 0.0
H341 H 1.00739 0.34432 0.25357 0.0
H342 H 0.0797 0.36885 0.24537 0.0
H343 H 0.08845 0.33538 0.18081 0.0
H344 H 0.0318 0.353 0.37136 0.0
H345 H 0.04139 0.42893 0.21336 0.0
H346 H 0.03573 0.39933 0.18631 0.0
H347 H 0.06482 0.4085 0.2124 0.0
C348 C 0.02994 0.32367 0.19904 0.0
C349 C 0.05293 0.32051 0.17906 0.0
C350 C 0.025 0.34276 0.2367 0.0
C351 C 0.04285 0.35927 0.25411 0.0
C352 C 0.06555 0.35662 0.23196 0.0
H353 H 0.05912 0.47851 0.50374 0.0
H354 H 0.06375 0.44848 0.42503 0.0
C355 C 0.07054 0.33745 0.19509 0.0
C356 C 0.03844 0.37805 0.29957 0.0
H357 H 0.0396 0.43753 0.31963 0.0
C358 C 0.03325 0.37149 0.35992 0.0
C359 C 0.04071 0.40218 0.28496 0.0
C360 C 0.04579 0.41027 0.22065 0.0
C361 C 0.0308 0.38831 0.40627 0.0
C362 C 0.03289 0.41252 0.3917 0.0
C363 C 0.03797 0.41906 0.33111 0.0
C364 C 0.02984 0.43123 0.43862 0.0
C365 C 0.02686 0.37985 0.47094 0.0
C366 C 1.00908 0.43199 0.47189 0.0
C367 C 1.00649 0.44898 0.51726 0.0
C368 C 0.02444 0.46598 0.53003 0.0
C369 C 0.04496 0.46568 0.49541 0.0
C370 C 0.04762 0.4485 0.45025 0.0
H371 H 0.03291 0.36168 0.47789 0.0
H372 H 0.03622 0.39143 0.50509 0.0
H373 H 1.00775 0.37982 0.47996 0.0
H374 H 0.99477 0.4194 0.4628 0.0
H375 H 0.9903 0.44878 0.54229 0.0
H376 H 0.80996 0.02129 0.13651 0.0
H377 H 0.84451 0.03032 0.07453 0.0
H378 H 0.86267 0.95753 0.08124 0.0
H379 H 0.82891 0.94884 0.14506 0.0
H380 H 0.90109 0.98261 0.07782 0.0
H381 H 0.84092 0.01607 0.89566 0.0
H382 H 0.84069 0.03288 0.96497 0.0
H383 H 0.83031 1.00274 0.965 0.0
C384 C 0.82208 1.00752 0.12745 0.0
C385 C 0.81689 0.98441 0.14649 0.0
C386 C 0.84149 0.01253 0.09046 0.0
C387 C 0.85581 0.99446 0.07077 0.0
C388 C 0.85189 0.97183 0.09487 0.0
H389 H 0.93479 0.99298 0.73038 0.0
H390 H 0.90495 0.98907 0.80952 0.0
C391 C 0.83272 0.96689 0.13227 0.0
C392 C 0.87391 0.99844 0.02259 0.0
H393 H 0.8816 0.0181 0.87551 0.0
C394 C 0.89678 0.99046 0.03371 0.0
C395 C 0.86831 1.00805 0.96395 0.0
C396 C 0.84368 0.0152 0.94627 0.0
C397 C 0.91404 0.99181 0.98861 0.0
C398 C 0.9088 1.00236 0.93095 0.0
C399 C 0.88589 0.01027 0.91965 0.0
C400 C 0.92676 1.00515 0.88191 0.0
C401 C 0.93738 0.98085 1.00251 0.0
C402 C 0.94889 0.01591 0.89515 0.0
C403 C 0.96605 0.01771 0.8504 0.0
C404 C 0.96144 0.00944 0.7903 0.0
C405 C 0.93899 0.99949 0.77612 0.0
C406 C 0.92189 0.99728 0.82147 0.0
H407 H 0.93595 0.96743 0.03933 0.0
H408 H 0.94419 0.97245 0.96103 0.0
H409 H 0.95034 0.99454 0.01878 0.0
H410 H 0.95297 0.02302 0.94029 0.0
H411 H 0.98296 0.02586 0.86298 0.0
H412 H 0.55563 0.8084 0.14815 0.0
H413 H 0.56761 0.84187 0.08381 0.0
H414 H 0.50242 0.8751 0.12094 0.0
H415 H 0.49089 0.84216 0.18608 0.0
H416 H 0.54538 0.85192 0.98056 0.0
H417 H 0.54528 0.93153 0.1224 0.0
H418 H 0.54563 0.90257 0.15587 0.0
H419 H 0.51822 0.91509 0.13089 0.0
C420 C 0.54449 0.82344 0.14505 0.0
C421 C 0.52246 0.82282 0.17269 0.0
C422 C 0.55119 0.84245 0.10763 0.0
C423 C 0.53602 0.86123 0.09747 0.0
C424 C 0.51478 0.86128 0.12886 0.0
H425 H 0.5026 0.93378 0.76638 0.0
H426 H 0.50878 0.90671 0.85147 0.0
C427 C 0.50815 0.84238 0.16623 0.0
C428 C 0.54043 0.87881 0.04775 0.0
H429 H 0.53681 0.93713 1.01316 0.0
C430 C 0.54397 0.87059 0.9881 0.0
C431 C 0.53897 0.90329 0.05703 0.0
C432 C 0.53708 0.91362 0.12021 0.0
C433 C 0.54466 0.88588 0.93742 0.0
C434 C 0.54112 0.9101 0.94603 0.0
C435 C 0.53907 0.91855 1.00608 0.0
C436 C 0.53805 0.92659 0.8932 0.0
C437 C 0.54896 0.87582 0.87497 0.0
C438 C 0.55202 0.94725 0.88866 0.0
C439 C 0.54837 0.96302 0.83993 0.0
C440 C 0.53056 0.95853 0.79484 0.0
C441 C 0.51665 0.9378 0.79966 0.0
C442 C 0.52026 0.92214 0.84831 0.0
H443 H 0.55924 0.85961 0.87871 0.0
H444 H 0.53181 0.87112 0.85196 0.0
H445 H 0.55856 0.88862 0.84563 0.0
H446 H 0.56575 0.9512 0.92288 0.0
H447 H 0.55937 0.97883 0.838 0.0
H448 H 0.68127 0.57672 0.22987 0.0
H449 H 0.64493 0.56944 0.16839 0.0
H450 H 0.67308 0.50546 0.10074 0.0
H451 H 0.70896 0.5125 0.1633 0.0
H452 H 0.64451 0.56944 0.04715 0.0
H453 H 0.60607 0.48419 0.11997 0.0
H454 H 0.62801 0.50011 0.16619 0.0
H455 H 0.63665 0.48188 0.10389 0.0
C456 C 0.67906 0.56047 0.20451 0.0
C457 C 0.69761 0.54481 0.20274 0.0
C458 C 0.65844 0.55646 0.16863 0.0
C459 C 0.65601 0.53677 0.13001 0.0
C460 C 0.67405 0.52043 0.13116 0.0
H461 H 0.58424 0.49396 0.7978 0.0
H462 H 0.60844 0.49966 0.89099 0.0
C463 C 0.69458 0.52439 0.16724 0.0
C464 C 0.63645 0.53493 0.08263 0.0
H465 H 0.59551 0.49679 0.01707 0.0
C466 C 0.63348 0.55371 0.04142 0.0
C467 C 0.62203 0.51442 0.0746 0.0
C468 C 0.62318 0.49412 0.11896 0.0
C469 C 0.6174 0.55213 0.99113 0.0
C470 C 0.60367 0.53128 0.98182 0.0
C471 C 0.60607 0.51277 0.02401 0.0
C472 C 0.58805 0.52771 0.9262 0.0
C473 C 0.61605 0.57237 0.94661 0.0
C474 C 0.56825 0.54146 0.91491 0.0
C475 C 0.55421 0.53823 0.86125 0.0
C476 C 0.55974 0.52122 0.81775 0.0
C477 C 0.57943 0.50734 0.82983 0.0
C478 C 0.59331 0.51049 0.88338 0.0
H479 H 0.63072 0.58545 0.95419 0.0
H480 H 0.61641 0.56601 0.89858 0.0
H481 H 0.59922 0.58135 0.95231 0.0
H482 H 0.56364 0.55467 0.94762 0.0
H483 H 0.53915 0.54915 0.85371 0.0
H484 H 0.95692 0.6853 0.20529 0.0
H485 H 0.96426 0.65291 0.13581 0.0
H486 H 0.03039 0.68624 0.08819 0.0
H487 H 0.02325 0.71842 0.15928 0.0
H488 H 0.96686 0.65725 0.01519 0.0
H489 H 0.04971 0.61905 0.10301 0.0
H490 H 0.03298 0.63874 0.14808 0.0
H491 H 0.05221 0.6501 0.09023 0.0
C492 C 0.97343 0.68524 0.18169 0.0
C493 C 0.9897 0.70417 0.18851 0.0
C494 C 0.97753 0.66683 0.14148 0.0
C495 C 0.99795 0.66691 0.10661 0.0
C496 C 0.01475 0.68536 0.11534 0.0
H497 H 1.00538 0.59482 0.75437 0.0
H498 H 1.00299 0.62353 0.83679 0.0
C499 C 1.01071 0.70376 0.15616 0.0
C500 C 1.00032 0.64895 0.05732 0.0
H501 H 0.03626 0.60717 1.00287 0.0
C502 C 0.98203 0.64626 1.01282 0.0
C503 C 0.01999 0.63438 0.05402 0.0
C504 C 0.03974 0.6355 0.10169 0.0
C505 C 0.98288 0.6297 0.96528 0.0
C506 C 1.00284 0.61562 0.96088 0.0
C507 C 0.02105 0.61807 1.00571 0.0
C508 C 1.00494 0.59812 0.9105 0.0
C509 C 0.96209 0.62713 0.9209 0.0
C510 C 1.00743 0.57421 0.92408 0.0
C511 C 1.00891 0.55769 0.87687 0.0
C512 C 1.00807 0.56468 0.81483 0.0
C513 C 1.00588 0.58869 0.80144 0.0
C514 C 1.00442 0.60518 0.84865 0.0
H515 H 0.94591 0.63429 0.94006 0.0
H516 H 0.96599 0.63697 0.87822 0.0
H517 H 0.9585 0.60846 0.90868 0.0
H518 H 1.00796 0.56827 0.97132 0.0
H519 H 1.01069 0.53941 0.88911 0.0
H520 H 0.12146 0.23769 0.12457 0.0
H521 H 0.12717 0.1977 0.16207 0.0
H522 H 0.07832 0.20933 0.3058 0.0
H523 H 0.07335 0.24925 0.27013 0.0
H524 H 0.10782 0.17428 0.33581 0.0
H525 H 0.06922 0.16146 0.09952 0.0
H526 H 0.09856 0.1739 0.10604 0.0
H527 H 0.07416 0.19023 0.13177 0.0
C528 C 0.11313 0.23211 0.16647 0.0
C529 C 0.09649 0.24626 0.19359 0.0
C530 C 0.11615 0.20917 0.18735 0.0
C531 C 0.10224 0.20023 0.2347 0.0
C532 C 0.08894 0.21573 0.26842 0.0
H533 H 0.99715 0.10398 0.28019 0.0
H534 H 0.02703 0.13133 0.24197 0.0
C535 C 0.08621 0.2387 0.24821 0.0
C536 C 0.09691 0.17475 0.24066 0.0
H537 H 0.06404 0.13118 0.16918 0.0
C538 C 0.09881 0.1645 0.29908 0.0
C539 C 0.08497 0.16215 0.19245 0.0
C540 C 0.08141 0.17243 0.12898 0.0
C541 C 0.08722 0.14307 0.31225 0.0
C542 C 0.07401 0.13125 0.26494 0.0
C543 C 0.07412 0.14036 0.20519 0.0
C544 C 0.05663 0.11217 0.27857 0.0
C545 C 0.08745 0.13447 0.37785 0.0
C546 C 0.0633 0.0916 0.30874 0.0
C547 C 0.04616 0.07621 0.33205 0.0
C548 C 0.02205 0.08089 0.32466 0.0
C549 C 0.01551 0.10017 0.28845 0.0
C550 C 0.03263 0.11574 0.26605 0.0
H551 H 0.09536 0.1477 0.41024 0.0
H552 H 0.06931 0.12997 0.3924 0.0
H553 H 0.09797 0.11845 0.3817 0.0
H554 H 0.08172 0.08809 0.31718 0.0
H555 H 0.05189 0.06153 0.35942 0.0
H556 H 0.29746 0.12604 0.11798 0.0
H557 H 0.33453 0.13659 0.17255 0.0
H558 H 0.31274 0.09452 0.32669 0.0
H559 H 0.27598 0.08444 0.2737 0.0
H560 H 0.3479 0.12678 0.36027 0.0
H561 H 0.37146 0.07805 0.14952 0.0
H562 H 0.36031 0.10702 0.14182 0.0
H563 H 0.34112 0.08309 0.16472 0.0
C564 C 0.30014 0.12008 0.16481 0.0
C565 C 0.2843 0.10361 0.19058 0.0
C566 C 0.32136 0.12606 0.19583 0.0
C567 C 0.32686 0.1153 0.25219 0.0
C568 C 0.30908 0.10269 0.28263 0.0
H569 H 0.3846 0.01914 0.45011 0.0
H570 H 0.36794 0.05466 0.40764 0.0
C571 C 0.28788 0.09691 0.25208 0.0
C572 C 0.35151 0.11092 0.27163 0.0
H573 H 0.39246 0.07063 0.23931 0.0
C574 C 0.35826 0.11527 0.33311 0.0
C575 C 0.36533 0.0961 0.23595 0.0
C576 C 0.3593 0.09068 0.1694 0.0
C577 C 0.37623 0.10261 0.36199 0.0
C578 C 0.38752 0.08531 0.32841 0.0
C579 C 0.38338 0.08367 0.26499 0.0
C580 C 0.39918 0.06552 0.35922 0.0
C581 C 0.38162 0.10642 0.42936 0.0
C582 C 0.42197 0.05935 0.34416 0.0
C583 C 0.43153 0.03887 0.36818 0.0
C584 C 0.4184 0.02415 0.40731 0.0
C585 C 0.39541 0.03027 0.42127 0.0
C586 C 0.38594 0.05073 0.39751 0.0
H587 H 0.37878 0.12491 0.44232 0.0
H588 H 0.36955 0.0951 0.4565 0.0
H589 H 0.40004 0.10196 0.44176 0.0
H590 H 0.43226 0.07029 0.31359 0.0
H591 H 0.44934 0.03479 0.35683 0.0
H592 H 0.60057 0.28905 0.15453 0.0
H593 H 0.62354 0.31183 0.23047 0.0
H594 H 0.59036 0.27282 0.37588 0.0
H595 H 0.56552 0.25189 0.30119 0.0
H596 H 0.58513 0.31583 0.39294 0.0
H597 H 0.67889 0.30689 0.34325 0.0
H598 H 0.66302 0.31563 0.27527 0.0
H599 H 0.65625 0.28757 0.30995 0.0
C600 C 0.5981 0.28525 0.20262 0.0
C601 C 0.58077 0.26876 0.2212 0.0
C602 C 0.61177 0.29794 0.24614 0.0
C603 C 0.60896 0.29389 0.30912 0.0
C604 C 0.59297 0.27622 0.32759 0.0
H605 H 0.63674 0.3952 0.60287 0.0
H606 H 0.64033 0.35669 0.5554 0.0
C607 C 0.57884 0.26404 0.28437 0.0
C608 C 0.61922 0.31067 0.35518 0.0
H609 H 0.66879 0.34321 0.3949 0.0
C610 C 0.6036 0.32124 0.39459 0.0
C611 C 0.64329 0.31791 0.35732 0.0
C612 C 0.66132 0.30618 0.31954 0.0
C613 C 0.61095 0.33973 0.43309 0.0
C614 C 0.63467 0.34792 0.43246 0.0
C615 C 0.65065 0.33677 0.39534 0.0
C616 C 0.64163 0.37024 0.46281 0.0
C617 C 0.59287 0.35143 0.47112 0.0
C618 C 0.64295 0.39055 0.42672 0.0
C619 C 0.64062 0.41248 0.45345 0.0
C620 C 0.637 0.41439 0.51681 0.0
C621 C 0.63893 0.39423 0.55377 0.0
C622 C 0.6412 0.37225 0.52685 0.0
H623 H 0.5747 0.34449 0.46107 0.0
H624 H 0.597 0.34851 0.52055 0.0
H625 H 0.5933 0.37064 0.46272 0.0
H626 H 0.64322 0.3893 0.37716 0.0
H627 H 0.63917 0.42753 0.42337 0.0
H628 H 0.2843 0.43675 0.26997 0.0
H629 H 0.26378 0.44419 0.36496 0.0
H630 H 0.20705 0.47477 0.26021 0.0
H631 H 0.22783 0.46944 0.16659 0.0
H632 H 0.24967 0.4968 0.383 0.0
H633 H 0.17747 0.43 0.40191 0.0
H634 H 0.20526 0.42407 0.36744 0.0
H635 H 0.183 0.4394 0.32469 0.0
C636 C 0.26738 0.44493 0.26698 0.0
C637 C 0.25802 0.45279 0.21014 0.0
C638 C 0.2556 0.44886 0.3213 0.0
C639 C 0.23395 0.45987 0.31913 0.0
C640 C 0.22365 0.4659 0.26243 0.0
H641 H 0.12598 0.53493 0.41212 0.0
H642 H 0.15728 0.51015 0.38068 0.0
C643 C 0.2356 0.46262 0.2086 0.0
C644 C 0.22343 0.46894 0.37473 0.0
H645 H 0.16982 0.46877 0.43988 0.0
C646 C 0.2326 0.49035 0.39778 0.0
C647 C 0.20129 0.46031 0.39345 0.0
C648 C 0.19121 0.43705 0.37103 0.0
C649 C 0.21876 0.50489 0.43276 0.0
C650 C 0.19552 0.49734 0.44573 0.0
C651 C 0.18758 0.47461 0.42912 0.0
C652 C 0.17783 0.51394 0.46538 0.0
C653 C 0.22817 0.52907 0.44988 0.0
C654 C 0.17946 0.525 0.52271 0.0
C655 C 0.1618 0.53992 0.54028 0.0
C656 C 0.14208 0.54366 0.50115 0.0
C657 C 0.14103 0.53301 0.44306 0.0
C658 C 0.15875 0.51843 0.42537 0.0
H659 H 0.2457 0.53306 0.43039 0.0
H660 H 0.21578 0.54255 0.43351 0.0
H661 H 0.22993 0.53047 0.50055 0.0
H662 H 0.194 0.52166 0.55436 0.0
H663 H 0.16328 0.548 0.58514 0.0
H664 H 0.96024 0.76838 0.09212 0.0
H665 H 0.95433 0.80696 0.04878 0.0
H666 H 0.91418 0.82567 0.205 0.0
H667 H 0.91998 0.78672 0.24895 0.0
H668 H 0.92306 0.84556 0.02756 0.0
H669 H 0.98164 0.8548 0.23688 0.0
H670 H 0.97211 0.82644 0.20799 0.0
H671 H 0.95178 0.84446 0.24629 0.0
C672 C 0.94881 0.78004 0.11554 0.0
C673 C 0.94143 0.77496 0.17517 0.0
C674 C 0.94552 0.80226 0.09069 0.0
C675 C 0.93473 0.8194 0.12513 0.0
C676 C 0.92307 0.81277 0.17856 0.0
H677 H 0.98265 0.95847 0.99308 0.0
H678 H 0.95677 0.93067 0.04758 0.0
C679 C 0.92635 0.79048 0.2035 0.0
C680 C 0.9419 0.84412 0.11434 0.0
H681 H 0.98453 0.88394 0.16255 0.0
C682 C 0.93591 0.85443 0.05782 0.0
C683 C 0.95899 0.85536 0.15384 0.0
C684 C 0.96669 0.84477 0.21454 0.0
C685 C 0.94772 0.87489 0.03784 0.0
C686 C 0.96583 0.8852 0.0757 0.0
C687 C 0.97061 0.87588 0.13397 0.0
C688 C 0.98221 0.90337 0.05199 0.0
C689 C 0.94209 0.88431 0.97452 0.0
C690 C 1.00541 0.8975 0.03968 0.0
C691 C 0.02015 0.91327 1.00872 0.0
C692 C 0.0118 0.93506 0.98976 0.0
C693 C 0.98921 0.94156 1.00651 0.0
C694 C 0.97448 0.92579 0.03737 0.0
H695 H 0.92924 0.87281 0.94854 0.0
H696 H 0.93453 0.90192 0.97841 0.0
H697 H 0.95839 0.88625 0.94788 0.0
H698 H 0.01168 0.88023 0.05102 0.0
H699 H 0.03743 0.90781 0.99603 0.0
H700 H 0.76854 0.93122 0.02022 0.0
H701 H 0.75526 0.93444 0.91266 0.0
H702 H 0.69992 0.9794 0.96623 0.0
H703 H 0.71352 0.97724 0.07245 0.0
H704 H 0.69027 0.94649 0.85777 0.0
H705 H 0.77116 1.00412 0.84854 0.0
H706 H 0.7726 0.97416 0.87454 0.0
H707 H 0.75964 0.99563 0.92184 0.0
C708 C 0.75309 0.94123 1.00921 0.0
C709 C 0.74254 0.95458 0.05469 0.0
C710 C 0.74553 0.94295 0.94782 0.0
C711 C 0.72699 0.95754 0.93176 0.0
C712 C 0.71437 0.96811 0.97797 0.0
H713 H 0.66419 0.05976 0.81463 0.0
H714 H 0.69761 0.03508 0.83505 0.0
C715 C 0.7221 0.96671 0.03899 0.0
C716 C 0.72312 0.9658 0.86828 0.0
H717 H 0.73894 0.01403 0.78463 0.0
C718 C 0.70132 0.96053 0.83945 0.0
C719 C 0.73778 0.98399 0.84475 0.0
C720 C 0.76166 0.98993 0.87367 0.0
C721 C 0.69234 0.97504 0.79298 0.0
C722 C 0.70568 0.99525 0.77539 0.0
C723 C 0.72881 0.99857 0.79838 0.0
C724 C 0.69353 0.01575 0.74987 0.0
C725 C 0.66743 0.97034 0.76906 0.0
C726 C 0.68187 0.01472 0.69241 0.0
C727 C 0.66271 0.02898 0.68058 0.0
C728 C 0.65516 0.0442 0.72629 0.0
C729 C 0.66951 0.04809 0.77883 0.0
C730 C 0.68862 0.03387 0.79059 0.0
H731 H 0.65943 0.95405 0.78853 0.0
H732 H 0.65623 0.98522 0.7805 0.0
H733 H 0.66729 0.96859 0.71839 0.0
H734 H 0.68574 1.00115 0.65991 0.0
H735 H 0.65211 0.02602 0.63909 0.0
H736 H 0.47876 0.77582 0.04403 0.0
H737 H 0.45475 0.75362 0.97006 0.0
H738 H 0.42393 0.71328 0.11661 0.0
H739 H 0.44607 0.73715 0.19181 0.0
H740 H 0.46354 0.71064 0.95696 0.0
H741 H 0.36871 0.71379 1.0013 0.0
H742 H 0.38981 0.73487 0.03402 0.0
H743 H 0.3848 0.70681 0.07045 0.0
C744 C 0.46605 0.76312 0.06126 0.0
C745 C 0.46474 0.75817 0.12444 0.0
C746 C 0.45239 0.75024 0.01847 0.0
C747 C 0.43752 0.73171 0.0375 0.0
C748 C 0.43492 0.72772 0.10055 0.0
H749 H 0.41335 0.59511 0.91948 0.0
H750 H 0.40952 0.63298 0.96914 0.0
C751 C 0.4481 0.74108 0.14362 0.0
C752 C 0.42874 0.71395 0.99219 0.0
H753 H 0.38158 0.67815 0.95157 0.0
C754 C 0.44543 0.70406 0.95461 0.0
C755 C 0.40517 0.70514 0.98938 0.0
C756 C 0.38609 0.71592 0.02559 0.0
C757 C 0.43961 0.68488 0.91696 0.0
C758 C 0.41639 0.67532 0.91651 0.0
C759 C 0.39936 0.68564 0.95208 0.0
C760 C 0.4108 0.65297 0.88484 0.0
C761 C 0.45875 0.67409 0.8806 0.0
C762 C 0.41146 0.65171 0.82072 0.0
C763 C 0.41374 0.63008 0.79214 0.0
C764 C 0.41533 0.60948 0.82742 0.0
C765 C 0.41211 0.61064 0.89101 0.0
C766 C 0.40987 0.63227 0.91951 0.0
H767 H 0.47647 0.68186 0.89224 0.0
H768 H 0.45911 0.6549 0.88892 0.0
H769 H 0.45511 0.67689 0.83088 0.0
H770 H 0.41213 0.66758 0.79334 0.0
H771 H 0.41575 0.62962 0.74291 0.0
H772 H 0.74658 0.59457 0.07612 0.0
H773 H 0.76777 0.59312 0.97991 0.0
H774 H 0.82559 0.56025 0.07473 0.0
H775 H 0.8044 0.56009 0.16905 0.0
H776 H 0.83542 0.59699 0.96775 0.0
H777 H 0.77403 0.52064 0.92004 0.0
H778 H 0.76338 0.54868 0.94272 0.0
H779 H 0.77835 0.53071 0.99799 0.0
C780 C 0.76396 0.58735 0.07674 0.0
C781 C 0.77346 0.57698 0.13047 0.0
C782 C 0.77611 0.58681 0.02184 0.0
C783 C 0.79808 0.57644 0.02054 0.0
C784 C 0.80865 0.56846 0.07515 0.0
H785 H 0.9093 0.50923 0.91954 0.0
H786 H 0.87959 0.53638 0.94768 0.0
C787 C 0.79644 0.56855 0.12945 0.0
C788 C 0.80857 0.56958 0.96261 0.0
H789 H 0.81185 0.51948 0.87941 0.0
C790 C 0.82987 0.58053 0.94628 0.0
C791 C 0.80106 0.54833 0.93404 0.0
C792 C 0.77793 0.5363 0.94915 0.0
C793 C 0.84515 0.56934 0.90734 0.0
C794 C 0.83921 0.54638 0.88654 0.0
C795 C 0.81657 0.5369 0.89629 0.0
C796 C 0.85742 0.53034 0.86643 0.0
C797 C 0.86818 0.58156 0.89237 0.0
C798 C 0.8542 0.51679 0.81306 0.0
C799 C 0.87091 0.50044 0.79777 0.0
C800 C 0.89103 0.49732 0.83584 0.0
C801 C 0.89386 0.51071 0.88968 0.0
C802 C 0.87716 0.52681 0.90504 0.0
H803 H 0.86587 0.60073 0.8872 0.0
H804 H 0.8811 0.57899 0.93076 0.0
H805 H 0.87549 0.57468 0.84955 0.0
H806 H 0.8388 0.51886 0.78335 0.0
H807 H 0.8681 0.4903 0.75617 0.0
H808 H 0.02099 0.23286 0.08541 0.0
H809 H 0.0129 0.20078 1.01317 0.0
H810 H 0.05179 0.23855 0.87541 0.0
H811 H 0.0609 0.27018 0.94925 0.0
H812 H 0.99377 0.19101 0.90564 0.0
H813 H 0.0901 0.18143 0.89046 0.0
H814 H 0.07747 0.20161 0.9426 0.0
H815 H 0.08048 0.20927 0.86293 0.0
C816 C 0.02689 0.23478 0.0388 0.0
C817 C 0.04127 0.25421 0.02269 0.0
C818 C 0.02253 0.21625 0.99762 0.0
C819 C 0.03238 0.21674 0.9392 0.0
C820 C 0.04463 0.2373 0.9208 0.0
H821 H 0.99938 0.10067 0.68074 0.0
H822 H 1.00137 0.13872 0.73219 0.0
C823 C 0.04934 0.25571 0.96247 0.0
C824 C 0.03141 0.19503 0.90044 0.0
H825 H 0.06601 0.15598 0.82909 0.0
C826 C 1.00958 0.18342 0.88871 0.0
C827 C 0.05206 0.18459 0.87961 0.0
C828 C 0.07637 0.1947 0.89503 0.0
C829 C 1.00779 0.16188 0.85712 0.0
C830 C 0.02835 0.15192 0.83417 0.0
C831 C 0.05017 0.16358 0.84578 0.0
C832 C 0.02786 0.12903 0.80027 0.0
C833 C 0.98393 0.1496 0.85123 0.0
C834 C 0.04297 0.11106 0.81867 0.0
C835 C 0.04237 0.08945 0.78796 0.0
C836 C 0.02644 0.08515 0.73843 0.0
C837 C 0.01168 0.10327 0.71917 0.0
C838 C 0.01262 0.12503 0.7491 0.0
H839 H 0.97196 0.15542 0.88719 0.0
H840 H 0.9757 0.15391 0.80601 0.0
H841 H 0.98536 0.13029 0.85472 0.0
H842 H 0.05502 0.11357 0.85766 0.0
H843 H 0.05393 0.07588 0.80421 0.0
H844 H 0.28805 0.01503 0.06592 0.0
H845 H 0.32009 1.00386 0.99943 0.0
H846 H 0.31334 0.06868 0.89913 0.0
H847 H 0.28099 0.07931 0.96375 0.0
H848 H 0.3248 0.03574 0.82311 0.0
H849 H 0.38494 0.03197 0.02748 0.0
H850 H 0.3607 0.01113 0.0296 0.0
H851 H 0.35529 0.04202 0.03156 0.0
C852 C 0.29279 0.02637 0.02803 0.0
C853 C 0.28186 0.04798 0.01983 0.0
C854 C 0.31148 0.02025 0.99081 0.0
C855 C 0.31982 0.03577 0.94527 0.0
C856 C 0.30756 0.05642 0.93404 0.0
H857 H 0.46296 0.04804 0.81161 0.0
H858 H 0.42582 0.05167 0.86457 0.0
C859 C 0.28887 0.06243 0.97077 0.0
C860 C 0.34198 0.03153 0.91152 0.0
H861 H 0.40111 0.02317 0.93216 0.0
C862 C 0.34145 0.03289 0.84706 0.0
C863 C 0.36398 0.02837 0.9424 0.0
C864 C 0.36642 0.02852 1.01154 0.0
C865 C 0.36205 0.03128 0.81292 0.0
C866 C 0.38395 0.02739 0.84369 0.0
C867 C 0.38445 0.02595 0.90815 0.0
C868 C 0.40658 0.02534 0.81028 0.0
C869 C 0.36015 0.03475 0.74433 0.0
C870 C 0.40852 0.00923 0.76211 0.0
C871 C 0.42966 1.00744 0.73098 0.0
C872 C 0.44972 0.02132 0.748 0.0
C873 C 0.44793 0.03713 0.79697 0.0
C874 C 0.42664 0.03916 0.8275 0.0
H875 H 0.3444 0.04483 0.73084 0.0
H876 H 0.37598 0.04416 0.72681 0.0
H877 H 0.35837 0.0174 0.72161 0.0
H878 H 0.39375 0.99774 0.74891 0.0
H879 H 0.43039 0.99478 0.69427 0.0
H880 H 0.56503 0.27547 0.99178 0.0
H881 H 0.55725 0.30622 0.91591 0.0
H882 H 0.48699 0.31196 0.98238 0.0
H883 H 0.49479 0.281 0.05865 0.0
H884 H 0.5208 0.31341 0.82059 0.0
H885 H 0.51983 0.37774 1.0116 0.0
H886 H 0.53109 0.34871 0.0217 0.0
H887 H 0.49991 0.35277 0.01697 0.0
C888 C 0.5477 0.28284 0.989 0.0
C889 C 0.53047 0.27579 0.0309 0.0
C890 C 0.54329 0.30046 0.94575 0.0
C891 C 0.52166 0.31166 0.94392 0.0
C892 C 0.5039 0.30372 0.98333 0.0
H893 H 0.48316 0.4441 0.77519 0.0
H894 H 0.48329 0.4066 0.82896 0.0
C895 C 0.50825 0.28588 0.02644 0.0
C896 C 0.51868 0.33285 0.90451 0.0
H897 H 0.51445 0.39239 0.91167 0.0
C898 C 0.51926 0.33069 0.84039 0.0
C899 C 0.51685 0.35542 0.93032 0.0
C900 C 0.51705 0.359 0.9989 0.0
C901 C 0.51775 0.35042 0.80146 0.0
C902 C 0.51627 0.37306 0.82735 0.0
C903 C 0.51555 0.37512 0.89154 0.0
C904 C 0.51537 0.39496 0.78941 0.0
C905 C 0.51733 0.3467 0.73298 0.0
C906 C 0.53323 0.40106 0.74831 0.0
C907 C 0.53308 0.42258 0.71672 0.0
C908 C 0.51527 0.43865 0.72633 0.0
C909 C 0.49724 0.43228 0.76667 0.0
C910 C 0.49728 0.41076 0.79764 0.0
H911 H 0.51137 0.32855 0.72071 0.0
H912 H 0.50558 0.35918 0.70907 0.0
H913 H 0.53539 0.34954 0.71586 0.0
H914 H 0.54774 0.38953 0.74207 0.0
H915 H 0.54738 0.42696 0.68656 0.0
H916 H 0.24963 0.42655 0.9799 0.0
H917 H 0.21613 0.43277 0.90931 0.0
H918 H 0.23204 0.50712 0.91078 0.0
H919 H 0.26575 0.50083 0.98123 0.0
H920 H 0.17952 0.45946 0.94976 0.0
H921 H 0.21223 0.49523 0.73003 0.0
H922 H 0.23071 0.47933 0.78348 0.0
H923 H 0.22438 0.50943 0.79778 0.0
C924 C 0.24665 0.44408 0.96277 0.0
C925 C 0.2605 0.46317 0.98543 0.0
C926 C 0.22734 0.44767 0.92291 0.0
C927 C 0.22146 0.47042 0.90457 0.0
C928 C 0.23637 0.48936 0.92332 0.0
H929 H 0.09695 0.53311 0.74183 0.0
H930 H 0.13595 0.52448 0.78405 0.0
C931 C 0.25577 0.48575 0.9633 0.0
C932 C 0.19811 0.47445 0.87374 0.0
H933 H 0.17114 0.49753 0.74593 0.0
C934 C 0.17771 0.46758 0.90489 0.0
C935 C 0.19567 0.48533 0.8156 0.0
C936 C 0.21688 0.49262 0.77937 0.0
C937 C 0.15505 0.47164 0.88027 0.0
C938 C 0.15254 0.48234 0.82181 0.0
C939 C 0.17296 0.4892 0.79052 0.0
C940 C 0.12889 0.4872 0.79346 0.0
C941 C 0.13405 0.46515 0.91833 0.0
C942 C 0.11184 0.4691 0.78347 0.0
C943 C 0.08932 0.47402 0.75955 0.0
C944 C 0.08342 0.49712 0.74424 0.0
C945 C 0.10076 0.5151 0.75286 0.0
C946 C 0.12318 0.51019 0.77705 0.0
H947 H 0.13904 0.46343 0.96776 0.0
H948 H 0.12024 0.47843 0.9135 0.0
H949 H 0.12642 0.44801 0.90262 0.0
H950 H 0.11591 0.45112 0.79425 0.0
H951 H 0.07657 0.45969 0.75291 0.0
H952 H 0.02472 0.78742 0.28521 0.0
H953 H 0.0333 0.82126 0.35203 0.0
H954 H 0.98214 0.7948 0.47907 0.0
H955 H 0.97343 0.76115 0.41182 0.0
H956 H 0.97259 0.83893 0.43739 0.0
H957 H 0.06598 0.83692 0.51711 0.0
H958 H 0.06161 0.83297 0.43584 0.0
H959 H 0.05004 0.81127 0.48774 0.0
C960 C 0.01637 0.78812 0.32919 0.0
C961 C 0.99889 0.77124 0.3441 0.0
C962 C 0.0211 0.80765 0.3672 0.0
C963 C 1.00844 0.81068 0.42098 0.0
C964 C 0.99225 0.79289 0.43812 0.0
H965 H 0.02109 0.93041 0.6756 0.0
H966 H 0.02025 0.89099 0.63047 0.0
C967 C 0.98754 0.77341 0.40016 0.0
C968 C 1.00955 0.83362 0.45436 0.0
H969 H 0.04673 0.87324 0.5287 0.0
C970 C 0.9888 0.84628 0.4578 0.0
C971 C 0.03063 0.84336 0.48117 0.0
C972 C 0.05331 0.83037 0.4809 0.0
C973 C 0.98862 0.86843 0.48601 0.0
C974 C 1.00981 0.8785 0.5112 0.0
C975 C 0.03049 0.86565 0.50912 0.0
C976 C 1.01078 0.90252 0.53869 0.0
C977 C 0.96564 0.88088 0.48879 0.0
C978 C 1.00594 0.92222 0.50221 0.0
C979 C 1.00645 0.94475 0.5278 0.0
C980 C 0.01178 0.94822 0.59069 0.0
C981 C 0.01676 0.92845 0.62715 0.0
C982 C 0.01639 0.90588 0.60134 0.0
H983 H 0.95025 0.86863 0.48139 0.0
H984 H 0.96404 0.8897 0.53373 0.0
H985 H 0.96501 0.89447 0.45232 0.0
H986 H 1.00187 0.92019 0.45365 0.0
H987 H 1.00265 0.95948 0.49807 0.0
H988 H 0.72538 0.01172 0.22356 0.0
H989 H 0.69425 0.01617 0.29774 0.0
H990 H 0.72039 0.95741 0.401 0.0
H991 H 0.75177 0.95317 0.3268 0.0
H992 H 0.65991 0.98275 0.31713 0.0
H993 H 0.70675 1.00345 0.53805 0.0
H994 H 0.72077 1.00641 0.46502 0.0
H995 H 0.7169 0.97801 0.49971 0.0
C996 C 0.72502 1.00036 0.26345 0.0
C997 C 0.74136 0.98248 0.27024 0.0
C998 C 0.70706 1.00273 0.30555 0.0
C999 C 0.7049 0.98725 0.35553 0.0
C1000 C 0.72184 0.96992 0.36378 0.0
H1001 H 0.57033 0.96043 0.53924 0.0
H1002 H 0.60674 0.95613 0.48289 0.0
C1003 C 0.73987 0.96755 0.3215 0.0
C1004 C 0.68369 0.98794 0.39486 0.0
H1005 H 0.66569 0.99485 0.54223 0.0
C1006 C 0.66124 0.98538 0.36636 0.0
C1007 C 0.68524 0.99149 0.45919 0.0
C1008 C 0.70868 0.99521 0.49243 0.0
C1009 C 0.64048 0.98623 0.39999 0.0
C1010 C 0.64201 0.98942 0.4644 0.0
C1011 C 0.66444 0.99211 0.49302 0.0
C1012 C 0.62049 0.99122 0.50204 0.0
C1013 C 0.61702 0.98436 0.36588 0.0
C1014 C 0.61625 0.01209 0.53318 0.0
C1015 C 0.59547 0.0146 0.56534 0.0
C1016 C 0.57836 0.9962 0.56781 0.0
C1017 C 0.58296 0.97501 0.53817 0.0
C1018 C 0.60377 0.97257 0.50565 0.0
H1019 H 0.6188 0.9873 0.3158 0.0
H1020 H 0.60915 0.96654 0.37261 0.0
H1021 H 0.60467 0.99725 0.3836 0.0
H1022 H 0.62879 0.02674 0.53137 0.0
H1023 H 0.59272 0.03116 0.58768 0.0
H1024 H 0.55007 0.73872 0.26598 0.0
H1025 H 0.55618 0.70551 0.33661 0.0
H1026 H 0.49281 0.72195 0.42919 0.0
H1027 H 0.48666 0.75487 0.35874 0.0
H1028 H 0.55676 0.69936 0.47521 0.0
H1029 H 0.48101 0.65503 0.35191 0.0
H1030 H 0.49656 0.68024 0.32087 0.0
H1031 H 0.47568 0.68389 0.38006 0.0
C1032 C 0.53803 0.73576 0.30302 0.0
C1033 C 0.51807 0.74952 0.3075 0.0
C1034 C 0.5414 0.71669 0.34301 0.0
C1035 C 0.52476 0.71104 0.38767 0.0
C1036 C 0.50576 0.72583 0.39481 0.0
H1037 H 0.48983 0.58906 0.61064 0.0
H1038 H 0.4916 0.62726 0.55965 0.0
C1039 C 0.50239 0.74478 0.35498 0.0
C1040 C 0.52575 0.68856 0.42263 0.0
H1041 H 0.49638 0.63584 0.43957 0.0
C1042 C 0.54364 0.68541 0.46736 0.0
C1043 C 0.50863 0.67034 0.41233 0.0
C1044 C 0.48946 0.67234 0.36338 0.0
C1045 C 0.54449 0.66478 0.50316 0.0
C1046 C 0.52725 0.64658 0.49305 0.0
C1047 C 0.50953 0.64974 0.44779 0.0
C1048 C 0.52713 0.62403 0.52834 0.0
C1049 C 0.56345 0.66299 0.55264 0.0
C1050 C 0.54652 0.60934 0.52822 0.0
C1051 C 0.54562 0.58746 0.55778 0.0
C1052 C 0.52517 0.57958 0.58759 0.0
C1053 C 0.50588 0.59446 0.58827 0.0
C1054 C 0.50686 0.61637 0.55899 0.0
H1055 H 0.57068 0.68055 0.56656 0.0
H1056 H 0.55667 0.65384 0.59385 0.0
H1057 H 0.57814 0.65286 0.53495 0.0
H1058 H 0.56217 0.61446 0.50372 0.0
H1059 H 0.56075 0.57646 0.55571 0.0
H1060 H 0.77607 0.51614 0.31818 0.0
H1061 H 0.80942 0.51064 0.38964 0.0
H1062 H 0.80251 0.58103 0.45687 0.0
H1063 H 0.76974 0.58675 0.38325 0.0
H1064 H 0.84528 0.57571 0.42572 0.0
H1065 H 0.82188 0.49848 0.56669 0.0
H1066 H 0.81857 0.49177 0.48663 0.0
H1067 H 0.80029 0.51335 0.51987 0.0
C1068 C 0.78099 0.53001 0.35031 0.0
C1069 C 0.76994 0.55166 0.3463 0.0
C1070 C 0.80017 0.5269 0.39118 0.0
C1071 C 0.80855 0.54531 0.42957 0.0
C1072 C 0.79646 0.56648 0.42813 0.0
H1073 H 0.92961 0.52724 0.68569 0.0
H1074 H 0.89002 0.53276 0.64168 0.0
C1075 C 0.77749 0.56968 0.38667 0.0
C1076 C 0.83147 0.54359 0.46486 0.0
H1077 H 0.86337 0.50827 0.56101 0.0
C1078 C 0.84903 0.56108 0.45592 0.0
C1079 C 0.83659 0.5247 0.50502 0.0
C1080 C 0.81822 0.50617 0.52064 0.0
C1081 C 0.87154 0.5599 0.48419 0.0
C1082 C 0.87713 0.54026 0.52116 0.0
C1083 C 0.85936 0.52316 0.53192 0.0
C1084 C 0.90134 0.53704 0.54823 0.0
C1085 C 0.88897 0.57997 0.47456 0.0
C1086 C 0.92106 0.53731 0.51066 0.0
C1087 C 0.94375 0.53434 0.53584 0.0
C1088 C 0.9473 0.53056 0.59918 0.0
C1089 C 0.92754 0.53001 0.6367 0.0
C1090 C 0.90484 0.53318 0.61154 0.0
H1091 H 0.8799 0.59649 0.46348 0.0
H1092 H 0.90057 0.58297 0.51581 0.0
H1093 H 0.90012 0.57589 0.43528 0.0
H1094 H 0.9189 0.53955 0.46152 0.0
H1095 H 0.95847 0.53454 0.50538 0.0
loop_
_geom_bond_atom_site_label_1
_geom_bond_atom_site_label_2
_geom_bond_distance
_geom_bond_site_symmetry_2
_ccdc_geom_bond_type
H0 C3 0.931 . S
H1 C6 0.928 . S
H2 C8 0.930 . S
C3 H0 0.931 . S
C3 C4 1.413 . S
C3 C5 1.360 . S
C4 C3 1.413 . S
C4 C8 1.429 . S
C5 C3 1.360 . S
C5 C6 1.372 . S
C6 H1 0.928 . S
C6 C5 1.372 . S
C6 C7 1.404 . S
C7 C6 1.404 . S
C7 C8 1.391 . S
C8 H2 0.930 . S
C8 C4 1.429 . S
C8 C7 1.391 . S
H9 C12 0.931 . S
H10 C15 0.928 . S
H11 C17 0.930 . S
C12 H9 0.931 . S
C12 C13 1.413 . S
C12 C14 1.360 . S
C13 C12 1.413 . S
C13 C17 1.429 . S
C14 C12 1.360 . S
C14 C15 1.372 . S
C15 H10 0.928 . S
C15 C14 1.372 . S
C15 C16 1.404 . S
C16 C15 1.404 . S
C16 C17 1.391 . S
C17 H11 0.930 . S
C17 C13 1.429 . S
C17 C16 1.391 . S
H18 C21 0.931 . S
H19 C24 0.928 . S
H20 C26 0.930 . S
C21 H18 0.931 . S
C21 C22 1.413 . S
C21 C23 1.360 . S
C22 C21 1.413 . S
C22 C26 1.429 . S
C23 C21 1.360 . S
C23 C24 1.372 . S
C24 H19 0.928 . S
C24 C23 1.372 . S
C24 C25 1.404 . S
C25 C24 1.404 . S
C25 C26 1.391 . S
C26 H20 0.930 . S
C26 C22 1.429 . S
C26 C25 1.391 . S
H27 C30 0.931 . S
H28 C33 0.928 . S
H29 C35 0.930 . S
C30 H27 0.931 . S
C30 C31 1.413 . S
C30 C32 1.360 . S
C31 C30 1.413 . S
C31 C35 1.429 . S
C32 C30 1.360 . S
C32 C33 1.372 . S
C33 H28 0.928 . S
C33 C32 1.372 . S
C33 C34 1.404 . S
C34 C33 1.404 . S
C34 C35 1.391 . S
C35 H29 0.930 . S
C35 C31 1.429 . S
C35 C34 1.391 . S
H36 C39 0.931 . S
H37 C42 0.928 . S
H38 C44 0.930 . S
C39 H36 0.931 . S
C39 C40 1.413 . S
C39 C41 1.360 . S
C40 C39 1.413 . S
C40 C44 1.429 . S
C41 C39 1.360 . S
C41 C42 1.372 . S
C42 H37 0.928 . S
C42 C41 1.372 . S
C42 C43 1.404 . S
C43 C42 1.404 . S
C43 C44 1.391 . S
C44 H38 0.930 . S
C44 C40 1.429 . S
C44 C43 1.391 . S
H45 C48 0.931 . S
H46 C51 0.928 . S
H47 C53 0.930 . S
C48 H45 0.931 . S
C48 C49 1.413 1_554 S
C48 C50 1.360 . S
C49 C48 1.413 1_556 S
C49 C53 1.429 . S
C50 C48 1.360 . S
C50 C51 1.372 . S
C51 H46 0.928 . S
C51 C50 1.372 . S
C51 C52 1.404 . S
C52 C51 1.404 . S
C52 C53 1.391 1_554 S
C53 H47 0.930 . S
C53 C49 1.429 . S
C53 C52 1.391 1_556 S
H54 C57 0.931 1_556 S
H55 C60 0.928 . S
H56 C62 0.930 . S
C57 H54 0.931 1_554 S
C57 C58 1.413 1_554 S
C57 C59 1.360 . S
C58 C57 1.413 1_556 S
C58 C62 1.429 . S
C59 C57 1.360 . S
C59 C60 1.372 . S
C60 H55 0.928 . S
C60 C59 1.372 . S
C60 C61 1.404 . S
C61 C60 1.404 . S
C61 C62 1.391 1_554 S
C62 H56 0.930 . S
C62 C58 1.429 . S
C62 C61 1.391 1_556 S
H63 C66 0.931 . S
H64 C69 0.928 1_556 S
H65 C71 0.930 . S
C66 H63 0.931 . S
C66 C67 1.413 . S
C66 C68 1.360 . S
C67 C66 1.413 . S
C67 C71 1.429 . S
C68 C66 1.360 . S
C68 C69 1.372 . S
C69 H64 0.928 1_554 S
C69 C68 1.372 . S
C69 C70 1.404 . S
C70 C69 1.404 . S
C70 C71 1.391 . S
C71 H65 0.930 . S
C71 C67 1.429 . S
C71 C70 1.391 . S
Eu72 C81 2.828 . S
Eu72 O83 2.392 . S
Eu72 O85 2.418 1_545 S
Eu72 O90 2.373 1_655 S
Eu72 O93 2.488 . S
Eu72 O94 2.471 . S
Eu72 O95 2.349 1_655 S
Eu73 O82 2.373 1_455 S
Eu73 O86 2.488 . S
Eu73 O87 2.471 . S
Eu73 O88 2.349 . S
Eu73 O91 2.392 1_565 S
Eu73 O92 2.418 1_565 S
Eu73 C102 2.828 . S
C74 O92 1.244 . S
C74 O95 1.265 . S
C75 C76 1.379 1_655 S
C75 C79 1.373 . S
C75 C81 1.505 . S
C76 C75 1.379 1_455 S
C76 C78 1.369 . S
C76 H104 0.930 . S
C77 C79 1.383 . S
C77 C80 1.382 1_655 S
C77 H105 0.930 . S
C78 C76 1.369 . S
C78 C80 1.392 . S
C78 H106 0.930 . S
C79 C75 1.373 . S
C79 C77 1.383 . S
C79 H107 0.931 . S
C80 C77 1.382 1_455 S
C80 C78 1.392 . S
C81 Eu72 2.828 . S
C81 C75 1.505 . S
C81 O93 1.249 . S
C81 O94 1.244 . S
O82 Eu73 2.373 1_655 S
O82 C84 1.258 . S
O83 Eu72 2.392 . S
O83 C84 1.242 1_545 S
C84 O82 1.258 . S
C84 O83 1.242 1_565 S
O85 Eu72 2.418 1_565 S
O85 C89 1.244 . S
O86 Eu73 2.488 . S
O86 C102 1.249 . S
O87 Eu73 2.471 . S
O87 C102 1.244 . S
O88 Eu73 2.349 . S
O88 C89 1.265 1_455 S
C89 O85 1.244 . S
C89 O88 1.265 1_655 S
O90 Eu72 2.373 1_455 S
O90 C103 1.258 . S
O91 Eu73 2.392 1_545 S
O91 C103 1.242 . S
O92 Eu73 2.418 1_545 S
O92 C74 1.244 . S
O93 Eu72 2.488 . S
O93 C81 1.249 . S
O94 Eu72 2.471 . S
O94 C81 1.244 . S
O95 Eu72 2.349 1_455 S
O95 C74 1.265 . S
C96 C97 1.379 . S
C96 C100 1.373 . S
C96 C102 1.505 . S
C97 C96 1.379 . S
C97 C99 1.369 . S
C97 H108 0.930 1_455 S
C98 C100 1.383 . S
C98 C101 1.382 . S
C98 H109 0.930 . S
C99 C97 1.369 . S
C99 C101 1.392 . S
C99 H110 0.930 1_455 S
C100 C96 1.373 . S
C100 C98 1.383 . S
C100 H111 0.931 . S
C101 C98 1.382 . S
C101 C99 1.392 . S
C102 Eu73 2.828 . S
C102 O86 1.249 . S
C102 O87 1.244 . S
C102 C96 1.505 . S
C103 O90 1.258 . S
C103 O91 1.242 . S
H104 C76 0.930 . S
H105 C77 0.930 . S
H106 C78 0.930 . S
H107 C79 0.931 . S
H108 C97 0.930 1_655 S
H109 C98 0.930 . S
H110 C99 0.930 1_655 S
H111 C100 0.931 . S
Eu112 C121 2.828 . S
Eu112 O123 2.392 . S
Eu112 O125 2.418 . S
Eu112 O130 2.373 . S
Eu112 O133 2.488 . S
Eu112 O134 2.471 . S
Eu112 O135 2.349 1_545 S
Eu113 O122 2.373 1_565 S
Eu113 O126 2.488 . S
Eu113 O127 2.471 1_565 S
Eu113 O128 2.349 1_565 S
Eu113 O131 2.392 . S
Eu113 O132 2.418 . S
Eu113 C142 2.828 . S
C114 O132 1.244 . S
C114 O135 1.265 . S
C115 C116 1.379 1_545 S
C115 C119 1.373 . S
C115 C121 1.505 . S
C116 C115 1.379 1_565 S
C116 C118 1.369 . S
C116 H144 0.930 . S
C117 C119 1.383 . S
C117 C120 1.382 . S
C117 H145 0.930 . S
C118 C116 1.369 . S
C118 C120 1.392 1_565 S
C118 H146 0.930 . S
C119 C115 1.373 . S
C119 C117 1.383 . S
C119 H147 0.931 . S
C120 C117 1.382 . S
C120 C118 1.392 1_545 S
C121 Eu112 2.828 . S
C121 C115 1.505 . S
C121 O133 1.249 . S
C121 O134 1.244 . S
O122 Eu113 2.373 1_545 S
O122 C124 1.258 . S
O123 Eu112 2.392 . S
O123 C124 1.242 . S
C124 O122 1.258 . S
C124 O123 1.242 . S
O125 Eu112 2.418 . S
O125 C129 1.244 . S
O126 Eu113 2.488 . S
O126 C142 1.249 . S
O127 Eu113 2.471 1_545 S
O127 C142 1.244 1_545 S
O128 Eu113 2.349 1_545 S
O128 C129 1.265 . S
C129 O125 1.244 . S
C129 O128 1.265 . S
O130 Eu112 2.373 . S
O130 C143 1.258 1_545 S
O131 Eu113 2.392 . S
O131 C143 1.242 . S
O132 Eu113 2.418 . S
O132 C114 1.244 . S
O133 Eu112 2.488 . S
O133 C121 1.249 . S
O134 Eu112 2.471 . S
O134 C121 1.244 . S
O135 Eu112 2.349 1_565 S
O135 C114 1.265 . S
C136 C137 1.379 1_565 S
C136 C140 1.373 . S
C136 C142 1.505 . S
C137 C136 1.379 1_545 S
C137 C139 1.369 . S
C137 H148 0.930 . S
C138 C140 1.383 . S
C138 C141 1.382 . S
C138 H149 0.930 . S
C139 C137 1.369 . S
C139 C141 1.392 1_545 S
C139 H150 0.930 . S
C140 C136 1.373 . S
C140 C138 1.383 . S
C140 H151 0.931 . S
C141 C138 1.382 . S
C141 C139 1.392 1_565 S
C142 Eu113 2.828 . S
C142 O126 1.249 . S
C142 O127 1.244 1_565 S
C142 C136 1.505 . S
C143 O130 1.258 1_565 S
C143 O131 1.242 . S
H144 C116 0.930 . S
H145 C117 0.930 . S
H146 C118 0.930 . S
H147 C119 0.931 . S
H148 C137 0.930 . S
H149 C138 0.930 . S
H150 C139 0.930 . S
H151 C140 0.931 . S
Eu152 C161 2.828 . S
Eu152 O163 2.392 . S
Eu152 O165 2.418 . S
Eu152 O170 2.373 . S
Eu152 O173 2.488 . S
Eu152 O174 2.471 . S
Eu152 O175 2.349 . S
Eu153 O162 2.373 . S
Eu153 O166 2.488 . S
Eu153 O167 2.471 . S
Eu153 O168 2.349 . S
Eu153 O171 2.392 . S
Eu153 O172 2.418 . S
Eu153 C182 2.828 . S
C154 O172 1.244 . S
C154 O175 1.265 . S
C155 C156 1.379 . S
C155 C159 1.373 . S
C155 C161 1.505 . S
C156 C155 1.379 . S
C156 C158 1.369 . S
C156 H184 0.930 . S
C157 C159 1.383 . S
C157 C160 1.382 . S
C157 H185 0.930 . S
C158 C156 1.369 . S
C158 C160 1.392 . S
C158 H186 0.930 . S
C159 C155 1.373 . S
C159 C157 1.383 . S
C159 H187 0.931 . S
C160 C157 1.382 . S
C160 C158 1.392 . S
C161 Eu152 2.828 . S
C161 C155 1.505 . S
C161 O173 1.249 . S
C161 O174 1.244 . S
O162 Eu153 2.373 . S
O162 C164 1.258 . S
O163 Eu152 2.392 . S
O163 C164 1.242 . S
C164 O162 1.258 . S
C164 O163 1.242 . S
O165 Eu152 2.418 . S
O165 C169 1.244 . S
O166 Eu153 2.488 . S
O166 C182 1.249 . S
O167 Eu153 2.471 . S
O167 C182 1.244 . S
O168 Eu153 2.349 . S
O168 C169 1.265 . S
C169 O165 1.244 . S
C169 O168 1.265 . S
O170 Eu152 2.373 . S
O170 C183 1.258 . S
O171 Eu153 2.392 . S
O171 C183 1.242 . S
O172 Eu153 2.418 . S
O172 C154 1.244 . S
O173 Eu152 2.488 . S
O173 C161 1.249 . S
O174 Eu152 2.471 . S
O174 C161 1.244 . S
O175 Eu152 2.349 . S
O175 C154 1.265 . S
C176 C177 1.379 . S
C176 C180 1.373 . S
C176 C182 1.505 . S
C177 C176 1.379 . S
C177 C179 1.369 . S
C177 H188 0.930 . S
C178 C180 1.383 . S
C178 C181 1.382 . S
C178 H189 0.930 . S
C179 C177 1.369 . S
C179 C181 1.392 . S
C179 H190 0.930 . S
C180 C176 1.373 . S
C180 C178 1.383 . S
C180 H191 0.931 . S
C181 C178 1.382 . S
C181 C179 1.392 . S
C182 Eu153 2.828 . S
C182 O166 1.249 . S
C182 O167 1.244 . S
C182 C176 1.505 . S
C183 O170 1.258 . S
C183 O171 1.242 . S
H184 C156 0.930 . S
H185 C157 0.930 . S
H186 C158 0.930 . S
H187 C159 0.931 . S
H188 C177 0.930 . S
H189 C178 0.930 . S
H190 C179 0.930 . S
H191 C180 0.931 . S
Eu192 C201 2.828 . S
Eu192 O203 2.392 . S
Eu192 O205 2.418 1_455 S
Eu192 O210 2.373 . S
Eu192 O213 2.488 . S
Eu192 O214 2.471 . S
Eu192 O215 2.349 . S
Eu193 O202 2.373 . S
Eu193 O206 2.488 . S
Eu193 O207 2.471 . S
Eu193 O208 2.349 . S
Eu193 O211 2.392 1_655 S
Eu193 O212 2.418 1_655 S
Eu193 C222 2.828 . S
C194 O212 1.244 . S
C194 O215 1.265 . S
C195 C196 1.379 . S
C195 C199 1.373 . S
C195 C201 1.505 . S
C196 C195 1.379 . S
C196 C198 1.369 . S
C196 H224 0.930 . S
C197 C199 1.383 . S
C197 C200 1.382 . S
C197 H225 0.930 . S
C198 C196 1.369 . S
C198 C200 1.392 . S
C198 H226 0.930 . S
C199 C195 1.373 . S
C199 C197 1.383 . S
C199 H227 0.931 . S
C200 C197 1.382 . S
C200 C198 1.392 . S
C201 Eu192 2.828 . S
C201 C195 1.505 . S
C201 O213 1.249 . S
C201 O214 1.244 . S
O202 Eu193 2.373 . S
O202 C204 1.258 1_655 S
O203 Eu192 2.392 . S
O203 C204 1.242 . S
C204 O202 1.258 1_455 S
C204 O203 1.242 . S
O205 Eu192 2.418 1_655 S
O205 C209 1.244 . S
O206 Eu193 2.488 . S
O206 C222 1.249 . S
O207 Eu193 2.471 . S
O207 C222 1.244 . S
O208 Eu193 2.349 . S
O208 C209 1.265 . S
C209 O205 1.244 . S
C209 O208 1.265 . S
O210 Eu192 2.373 . S
O210 C223 1.258 . S
O211 Eu193 2.392 1_455 S
O211 C223 1.242 . S
O212 Eu193 2.418 1_455 S
O212 C194 1.244 . S
O213 Eu192 2.488 . S
O213 C201 1.249 . S
O214 Eu192 2.471 . S
O214 C201 1.244 . S
O215 Eu192 2.349 . S
O215 C194 1.265 . S
C216 C217 1.379 . S
C216 C220 1.373 . S
C216 C222 1.505 . S
C217 C216 1.379 . S
C217 C219 1.369 . S
C217 H228 0.930 . S
C218 C220 1.383 . S
C218 C221 1.382 . S
C218 H229 0.930 . S
C219 C217 1.369 . S
C219 C221 1.392 . S
C219 H230 0.930 . S
C220 C216 1.373 . S
C220 C218 1.383 . S
C220 H231 0.931 . S
C221 C218 1.382 . S
C221 C219 1.392 . S
C222 Eu193 2.828 . S
C222 O206 1.249 . S
C222 O207 1.244 . S
C222 C216 1.505 . S
C223 O210 1.258 . S
C223 O211 1.242 . S
H224 C196 0.930 . S
H225 C197 0.930 . S
H226 C198 0.930 . S
H227 C199 0.931 . S
H228 C217 0.930 . S
H229 C218 0.930 . S
H230 C219 0.930 . S
H231 C220 0.931 . S
H232 C240 0.929 . S
H233 C242 0.930 . S
H234 C244 0.930 . S
H235 C247 0.929 . S
H236 C250 0.930 . S
H237 C252 0.960 1_565 S
H238 C252 0.960 . S
H239 C252 0.961 1_565 S
C240 H232 0.929 . S
C240 C241 1.377 . S
C240 C242 1.384 . S
C241 C240 1.377 . S
C241 C247 1.390 . S
C242 H233 0.930 . S
C242 C240 1.384 . S
C242 C243 1.372 . S
C243 C242 1.372 . S
C243 C244 1.400 . S
C243 C248 1.490 . S
C244 H234 0.930 . S
C244 C243 1.400 . S
C244 C247 1.386 . S
H245 C261 0.930 1_565 S
H246 C262 0.931 . S
C247 H235 0.929 . S
C247 C241 1.390 . S
C247 C244 1.386 . S
C248 C243 1.490 . S
C248 C250 1.395 . S
C248 C251 1.403 . S
H249 C255 0.930 . S
C250 H236 0.930 . S
C250 C248 1.395 . S
C250 C253 1.403 . S
C251 C248 1.403 . S
C251 C252 1.524 . S
C251 C255 1.400 . S
C252 H237 0.960 1_545 S
C252 H238 0.960 . S
C252 H239 0.961 1_545 S
C252 C251 1.524 . S
C253 C250 1.403 . S
C253 C254 1.392 . S
C253 C257 1.495 . S
C254 C253 1.392 . S
C254 C255 1.385 . S
C254 C256 1.478 . S
C255 H249 0.930 . S
C255 C251 1.400 . S
C255 C254 1.385 . S
C256 C254 1.478 . S
C256 C258 1.381 . S
C256 C262 1.383 . S
C257 C253 1.495 . S
C257 H263 0.959 . S
C257 H264 0.961 . S
C257 H265 0.960 . S
C258 C256 1.381 . S
C258 C259 1.394 . S
C258 H266 0.930 . S
C259 C258 1.394 . S
C259 C260 1.383 . S
C259 H267 0.929 . S
C260 C259 1.383 . S
C260 C261 1.377 . S
C261 H245 0.930 1_545 S
C261 C260 1.377 . S
C261 C262 1.379 . S
C262 H246 0.931 . S
C262 C256 1.383 . S
C262 C261 1.379 . S
H263 C257 0.959 . S
H264 C257 0.961 . S
H265 C257 0.960 . S
H266 C258 0.930 . S
H267 C259 0.929 . S
H268 C276 0.929 . S
H269 C278 0.930 . S
H270 C280 0.930 . S
H271 C283 0.929 . S
H272 C286 0.930 . S
H273 C288 0.960 . S
H274 C288 0.960 . S
H275 C288 0.960 . S
C276 H268 0.929 . S
C276 C277 1.377 . S
C276 C278 1.384 . S
C277 C276 1.377 . S
C277 C283 1.390 . S
C278 H269 0.930 . S
C278 C276 1.384 . S
C278 C279 1.372 . S
C279 C278 1.372 . S
C279 C280 1.400 . S
C279 C284 1.490 . S
C280 H270 0.930 . S
C280 C279 1.400 . S
C280 C283 1.386 . S
H281 C297 0.930 . S
H282 C298 0.931 . S
C283 H271 0.929 . S
C283 C277 1.390 . S
C283 C280 1.386 . S
C284 C279 1.490 . S
C284 C286 1.395 . S
C284 C287 1.403 . S
H285 C291 0.930 . S
C286 H272 0.930 . S
C286 C284 1.395 . S
C286 C289 1.403 . S
C287 C284 1.403 . S
C287 C288 1.524 . S
C287 C291 1.400 . S
C288 H273 0.960 . S
C288 H274 0.960 . S
C288 H275 0.960 . S
C288 C287 1.524 . S
C289 C286 1.403 . S
C289 C290 1.392 . S
C289 C293 1.495 . S
C290 C289 1.392 . S
C290 C291 1.385 . S
C290 C292 1.478 . S
C291 H285 0.930 . S
C291 C287 1.400 . S
C291 C290 1.385 . S
C292 C290 1.478 . S
C292 C294 1.381 . S
C292 C298 1.383 . S
C293 C289 1.495 . S
C293 H299 0.959 . S
C293 H300 0.961 . S
C293 H301 0.960 . S
C294 C292 1.381 . S
C294 C295 1.394 . S
C294 H302 0.930 . S
C295 C294 1.394 . S
C295 C296 1.383 . S
C295 H303 0.929 . S
C296 C295 1.383 . S
C296 C297 1.377 . S
C297 H281 0.930 . S
C297 C296 1.377 . S
C297 C298 1.379 . S
C298 H282 0.931 . S
C298 C292 1.383 . S
C298 C297 1.379 . S
H299 C293 0.959 . S
H300 C293 0.961 . S
H301 C293 0.960 . S
H302 C294 0.930 . S
H303 C295 0.929 . S
H304 C312 0.929 . S
H305 C314 0.930 . S
H306 C316 0.930 . S
H307 C319 0.929 . S
H308 C322 0.930 . S
H309 C324 0.960 . S
H310 C324 0.960 . S
H311 C324 0.960 . S
C312 H304 0.929 . S
C312 C313 1.377 . S
C312 C314 1.384 . S
C313 C312 1.377 . S
C313 C319 1.390 . S
C314 H305 0.930 . S
C314 C312 1.384 . S
C314 C315 1.372 . S
C315 C314 1.372 . S
C315 C316 1.400 . S
C315 C320 1.490 . S
C316 H306 0.930 . S
C316 C315 1.400 . S
C316 C319 1.386 . S
H317 C333 0.930 . S
H318 C334 0.931 . S
C319 H307 0.929 . S
C319 C313 1.390 . S
C319 C316 1.386 . S
C320 C315 1.490 . S
C320 C322 1.395 . S
C320 C323 1.403 . S
H321 C327 0.930 . S
C322 H308 0.930 . S
C322 C320 1.395 . S
C322 C325 1.403 . S
C323 C320 1.403 . S
C323 C324 1.524 . S
C323 C327 1.400 . S
C324 H309 0.960 . S
C324 H310 0.960 . S
C324 H311 0.960 . S
C324 C323 1.524 . S
C325 C322 1.403 . S
C325 C326 1.392 . S
C325 C329 1.495 . S
C326 C325 1.392 . S
C326 C327 1.385 . S
C326 C328 1.478 . S
C327 H321 0.930 . S
C327 C323 1.400 . S
C327 C326 1.385 . S
C328 C326 1.478 . S
C328 C330 1.381 . S
C328 C334 1.383 . S
C329 C325 1.495 . S
C329 H335 0.959 . S
C329 H336 0.961 . S
C329 H337 0.960 . S
C330 C328 1.381 . S
C330 C331 1.394 . S
C330 H338 0.930 . S
C331 C330 1.394 . S
C331 C332 1.383 . S
C331 H339 0.929 . S
C332 C331 1.383 . S
C332 C333 1.377 . S
C333 H317 0.930 . S
C333 C332 1.377 . S
C333 C334 1.379 . S
C334 H318 0.931 . S
C334 C328 1.383 . S
C334 C333 1.379 . S
H335 C329 0.959 . S
H336 C329 0.961 . S
H337 C329 0.960 . S
H338 C330 0.930 . S
H339 C331 0.929 . S
H340 C348 0.929 . S
H341 C350 0.930 . S
H342 C352 0.930 . S
H343 C355 0.929 . S
H344 C358 0.930 . S
H345 C360 0.960 . S
H346 C360 0.960 . S
H347 C360 0.960 . S
C348 H340 0.929 . S
C348 C349 1.377 . S
C348 C350 1.384 . S
C349 C348 1.377 . S
C349 C355 1.390 . S
C350 H341 0.930 . S
C350 C348 1.384 . S
C350 C351 1.372 . S
C351 C350 1.372 . S
C351 C352 1.400 . S
C351 C356 1.490 . S
C352 H342 0.930 . S
C352 C351 1.400 . S
C352 C355 1.386 . S
H353 C369 0.930 . S
H354 C370 0.931 . S
C355 H343 0.929 . S
C355 C349 1.390 . S
C355 C352 1.386 . S
C356 C351 1.490 . S
C356 C358 1.395 . S
C356 C359 1.403 . S
H357 C363 0.930 . S
C358 H344 0.930 . S
C358 C356 1.395 . S
C358 C361 1.403 . S
C359 C356 1.403 . S
C359 C360 1.524 . S
C359 C363 1.400 . S
C360 H345 0.960 . S
C360 H346 0.960 . S
C360 H347 0.960 . S
C360 C359 1.524 . S
C361 C358 1.403 . S
C361 C362 1.392 . S
C361 C365 1.495 . S
C362 C361 1.392 . S
C362 C363 1.385 . S
C362 C364 1.478 . S
C363 H357 0.930 . S
C363 C359 1.400 . S
C363 C362 1.385 . S
C364 C362 1.478 . S
C364 C366 1.381 . S
C364 C370 1.383 . S
C365 C361 1.495 . S
C365 H371 0.959 . S
C365 H372 0.961 . S
C365 H373 0.960 . S
C366 C364 1.381 . S
C366 C367 1.394 . S
C366 H374 0.930 . S
C367 C366 1.394 . S
C367 C368 1.383 . S
C367 H375 0.929 . S
C368 C367 1.383 . S
C368 C369 1.377 . S
C369 H353 0.930 . S
C369 C368 1.377 . S
C369 C370 1.379 . S
C370 H354 0.931 . S
C370 C364 1.383 . S
C370 C369 1.379 . S
H371 C365 0.959 . S
H372 C365 0.961 . S
H373 C365 0.960 . S
H374 C366 0.930 . S
H375 C367 0.929 . S
H376 C384 0.929 . S
H377 C386 0.930 . S
H378 C388 0.930 . S
H379 C391 0.929 . S
H380 C394 0.930 . S
H381 C396 0.960 . S
H382 C396 0.960 . S
H383 C396 0.960 . S
C384 H376 0.929 . S
C384 C385 1.377 . S
C384 C386 1.384 . S
C385 C384 1.377 . S
C385 C391 1.390 . S
C386 H377 0.930 . S
C386 C384 1.384 . S
C386 C387 1.372 . S
C387 C386 1.372 . S
C387 C388 1.400 . S
C387 C392 1.490 . S
C388 H378 0.930 . S
C388 C387 1.400 . S
C388 C391 1.386 . S
H389 C405 0.930 . S
H390 C406 0.931 . S
C391 H379 0.929 . S
C391 C385 1.390 . S
C391 C388 1.386 . S
C392 C387 1.490 . S
C392 C394 1.395 . S
C392 C395 1.403 1_554 S
H393 C399 0.930 . S
C394 H380 0.930 . S
C394 C392 1.395 . S
C394 C397 1.403 . S
C395 C392 1.403 1_556 S
C395 C396 1.524 . S
C395 C399 1.400 . S
C396 H381 0.960 . S
C396 H382 0.960 . S
C396 H383 0.960 . S
C396 C395 1.524 . S
C397 C394 1.403 . S
C397 C398 1.392 1_554 S
C397 C401 1.495 . S
C398 C397 1.392 1_556 S
C398 C399 1.385 . S
C398 C400 1.478 . S
C399 H393 0.930 . S
C399 C395 1.400 . S
C399 C398 1.385 . S
C400 C398 1.478 . S
C400 C402 1.381 1_565 S
C400 C406 1.383 . S
C401 C397 1.495 . S
C401 H407 0.959 . S
C401 H408 0.961 . S
C401 H409 0.960 . S
C402 C400 1.381 1_545 S
C402 C403 1.394 . S
C402 H410 0.930 . S
C403 C402 1.394 . S
C403 C404 1.383 1_545 S
C403 H411 0.929 . S
C404 C403 1.383 1_565 S
C404 C405 1.377 . S
C405 H389 0.930 . S
C405 C404 1.377 . S
C405 C406 1.379 . S
C406 H390 0.931 . S
C406 C400 1.383 . S
C406 C405 1.379 . S
H407 C401 0.959 . S
H408 C401 0.961 . S
H409 C401 0.960 . S
H410 C402 0.930 . S
H411 C403 0.929 . S
H412 C420 0.929 . S
H413 C422 0.930 . S
H414 C424 0.930 . S
H415 C427 0.929 . S
H416 C430 0.930 . S
H417 C432 0.960 . S
H418 C432 0.960 1_554 S
H419 C432 0.960 . S
C420 H412 0.929 . S
C420 C421 1.377 . S
C420 C422 1.384 . S
C421 C420 1.377 . S
C421 C427 1.390 . S
C422 H413 0.930 . S
C422 C420 1.384 . S
C422 C423 1.372 . S
C423 C422 1.372 . S
C423 C424 1.400 . S
C423 C428 1.490 . S
C424 H414 0.930 . S
C424 C423 1.400 . S
C424 C427 1.386 . S
H425 C441 0.930 . S
H426 C442 0.931 . S
C427 H415 0.929 . S
C427 C421 1.390 . S
C427 C424 1.386 . S
C428 C423 1.490 . S
C428 C430 1.395 . S
C428 C431 1.403 1_554 S
H429 C435 0.930 . S
C430 H416 0.930 . S
C430 C428 1.395 . S
C430 C433 1.403 1_554 S
C431 C428 1.403 1_556 S
C431 C432 1.524 . S
C431 C435 1.400 . S
C432 H417 0.960 . S
C432 H418 0.960 1_556 S
C432 H419 0.960 . S
C432 C431 1.524 . S
C433 C430 1.403 1_556 S
C433 C434 1.392 . S
C433 C437 1.495 . S
C434 C433 1.392 . S
C434 C435 1.385 . S
C434 C436 1.478 . S
C435 H429 0.930 . S
C435 C431 1.400 . S
C435 C434 1.385 . S
C436 C434 1.478 . S
C436 C438 1.381 . S
C436 C442 1.383 . S
C437 C433 1.495 . S
C437 H443 0.959 . S
C437 H444 0.961 . S
C437 H445 0.960 . S
C438 C436 1.381 . S
C438 C439 1.394 . S
C438 H446 0.930 . S
C439 C438 1.394 . S
C439 C440 1.383 . S
C439 H447 0.929 . S
C440 C439 1.383 . S
C440 C441 1.377 . S
C441 H425 0.930 . S
C441 C440 1.377 . S
C441 C442 1.379 . S
C442 H426 0.931 . S
C442 C436 1.383 . S
C442 C441 1.379 . S
H443 C437 0.959 . S
H444 C437 0.961 . S
H445 C437 0.960 . S
H446 C438 0.930 . S
H447 C439 0.929 . S
H448 C456 0.929 . S
H449 C458 0.930 . S
H450 C460 0.930 . S
H451 C463 0.929 . S
H452 C466 0.930 . S
H453 C468 0.960 1_556 S
H454 C468 0.960 . S
H455 C468 0.960 . S
C456 H448 0.929 . S
C456 C457 1.377 . S
C456 C458 1.384 . S
C457 C456 1.377 . S
C457 C463 1.390 . S
C458 H449 0.930 . S
C458 C456 1.384 . S
C458 C459 1.372 . S
C459 C458 1.372 . S
C459 C460 1.400 . S
C459 C464 1.490 . S
C460 H450 0.930 . S
C460 C459 1.400 . S
C460 C463 1.386 . S
H461 C477 0.930 . S
H462 C478 0.931 . S
C463 H451 0.929 . S
C463 C457 1.390 . S
C463 C460 1.386 . S
C464 C459 1.490 . S
C464 C466 1.395 1_554 S
C464 C467 1.403 1_554 S
H465 C471 0.930 . S
C466 H452 0.930 . S
C466 C464 1.395 1_556 S
C466 C469 1.403 . S
C467 C464 1.403 1_556 S
C467 C468 1.524 1_556 S
C467 C471 1.400 . S
C468 H453 0.960 1_554 S
C468 H454 0.960 . S
C468 H455 0.960 . S
C468 C467 1.524 1_554 S
C469 C466 1.403 . S
C469 C470 1.392 . S
C469 C473 1.495 . S
C470 C469 1.392 . S
C470 C471 1.385 . S
C470 C472 1.478 . S
C471 H465 0.930 . S
C471 C467 1.400 . S
C471 C470 1.385 . S
C472 C470 1.478 . S
C472 C474 1.381 . S
C472 C478 1.383 . S
C473 C469 1.495 . S
C473 H479 0.959 . S
C473 H480 0.961 . S
C473 H481 0.960 . S
C474 C472 1.381 . S
C474 C475 1.394 . S
C474 H482 0.930 . S
C475 C474 1.394 . S
C475 C476 1.383 . S
C475 H483 0.929 . S
C476 C475 1.383 . S
C476 C477 1.377 . S
C477 H461 0.930 . S
C477 C476 1.377 . S
C477 C478 1.379 . S
C478 H462 0.931 . S
C478 C472 1.383 . S
C478 C477 1.379 . S
H479 C473 0.959 . S
H480 C473 0.961 . S
H481 C473 0.960 . S
H482 C474 0.930 . S
H483 C475 0.929 . S
H484 C492 0.929 . S
H485 C494 0.930 . S
H486 C496 0.914 1_455 S
H487 C499 0.929 . S
H488 C502 0.930 . S
H489 C504 0.960 . S
H490 C504 0.960 . S
H491 C504 0.960 . S
C492 H484 0.929 . S
C492 C493 1.377 . S
C492 C494 1.384 . S
C493 C492 1.377 . S
C493 C499 1.390 . S
C494 H485 0.930 . S
C494 C492 1.384 . S
C494 C495 1.372 . S
C495 C494 1.372 . S
C495 C496 1.400 . S
C495 C500 1.490 . S
C496 H486 0.914 1_655 S
C496 C495 1.400 . S
C496 C499 1.386 . S
H497 C513 0.930 . S
H498 C514 0.931 . S
C499 H487 0.929 . S
C499 C493 1.390 . S
C499 C496 1.386 . S
C500 C495 1.490 . S
C500 C502 1.395 1_554 S
C500 C503 1.403 . S
H501 C507 0.930 1_455 S
C502 H488 0.930 . S
C502 C500 1.395 1_556 S
C502 C505 1.403 . S
C503 C500 1.403 . S
C503 C504 1.524 1_655 S
C503 C507 1.400 1_554 S
C504 H489 0.960 . S
C504 H490 0.960 . S
C504 H491 0.960 . S
C504 C503 1.524 1_455 S
C505 C502 1.403 . S
C505 C506 1.392 . S
C505 C509 1.495 . S
C506 C505 1.392 . S
C506 C507 1.385 . S
C506 C508 1.478 . S
C507 H501 0.930 1_655 S
C507 C503 1.400 1_556 S
C507 C506 1.385 . S
C508 C506 1.478 . S
C508 C510 1.381 . S
C508 C514 1.383 1_655 S
C509 C505 1.495 . S
C509 H515 0.959 . S
C509 H516 0.961 . S
C509 H517 0.960 . S
C510 C508 1.381 . S
C510 C511 1.394 . S
C510 H518 0.930 . S
C511 C510 1.394 . S
C511 C512 1.383 . S
C511 H519 0.929 . S
C512 C511 1.383 . S
C512 C513 1.377 1_655 S
C513 H497 0.930 . S
C513 C512 1.377 1_455 S
C513 C514 1.379 . S
C514 H498 0.931 . S
C514 C508 1.383 1_455 S
C514 C513 1.379 . S
H515 C509 0.959 . S
H516 C509 0.961 . S
H517 C509 0.960 . S
H518 C510 0.930 . S
H519 C511 0.929 . S
H520 C528 0.929 . S
H521 C530 0.930 . S
H522 C532 0.930 . S
H523 C535 0.929 . S
H524 C538 0.930 . S
H525 C540 0.960 . S
H526 C540 0.960 . S
H527 C540 0.960 . S
C528 H520 0.929 . S
C528 C529 1.377 . S
C528 C530 1.384 . S
C529 C528 1.377 . S
C529 C535 1.390 . S
C530 H521 0.930 . S
C530 C528 1.384 . S
C530 C531 1.372 . S
C531 C530 1.372 . S
C531 C532 1.400 . S
C531 C536 1.490 . S
C532 H522 0.930 . S
C532 C531 1.400 . S
C532 C535 1.386 . S
H533 C549 0.930 . S
H534 C550 0.931 . S
C535 H523 0.929 . S
C535 C529 1.390 . S
C535 C532 1.386 . S
C536 C531 1.490 . S
C536 C538 1.395 . S
C536 C539 1.403 . S
H537 C543 0.930 . S
C538 H524 0.930 . S
C538 C536 1.395 . S
C538 C541 1.403 . S
C539 C536 1.403 . S
C539 C540 1.524 . S
C539 C543 1.400 . S
C540 H525 0.960 . S
C540 H526 0.960 . S
C540 H527 0.960 . S
C540 C539 1.524 . S
C541 C538 1.403 . S
C541 C542 1.392 . S
C541 C545 1.495 . S
C542 C541 1.392 . S
C542 C543 1.385 . S
C542 C544 1.478 . S
C543 H537 0.930 . S
C543 C539 1.400 . S
C543 C542 1.385 . S
C544 C542 1.478 . S
C544 C546 1.381 . S
C544 C550 1.383 1_455 S
C545 C541 1.495 . S
C545 H551 0.959 . S
C545 H552 0.961 . S
C545 H553 0.960 . S
C546 C544 1.381 . S
C546 C547 1.394 . S
C546 H554 0.930 . S
C547 C546 1.394 . S
C547 C548 1.386 1_455 S
C547 H555 0.929 . S
C548 C547 1.386 1_655 S
C548 C549 1.375 . S
C549 H533 0.930 . S
C549 C548 1.375 . S
C549 C550 1.379 . S
C550 H534 0.931 . S
C550 C544 1.383 1_655 S
C550 C549 1.379 . S
H551 C545 0.959 . S
H552 C545 0.961 . S
H553 C545 0.960 . S
H554 C546 0.930 . S
H555 C547 0.929 . S
H556 C564 0.929 . S
H557 C566 0.930 . S
H558 C568 0.930 . S
H559 C571 0.929 . S
H560 C574 0.930 . S
H561 C576 0.960 1_565 S
H562 C576 0.960 . S
H563 C576 0.960 . S
C564 H556 0.929 . S
C564 C565 1.377 . S
C564 C566 1.384 . S
C565 C564 1.377 . S
C565 C571 1.390 . S
C566 H557 0.930 . S
C566 C564 1.384 . S
C566 C567 1.372 . S
C567 C566 1.372 . S
C567 C568 1.400 . S
C567 C572 1.490 . S
C568 H558 0.930 . S
C568 C567 1.400 . S
C568 C571 1.386 . S
H569 C585 0.930 . S
H570 C586 0.931 . S
C571 H559 0.929 . S
C571 C565 1.390 . S
C571 C568 1.386 . S
C572 C567 1.490 . S
C572 C574 1.395 . S
C572 C575 1.403 . S
H573 C579 0.930 . S
C574 H560 0.930 . S
C574 C572 1.395 . S
C574 C577 1.403 . S
C575 C572 1.403 . S
C575 C576 1.524 . S
C575 C579 1.400 . S
C576 H561 0.960 1_545 S
C576 H562 0.960 . S
C576 H563 0.960 . S
C576 C575 1.524 . S
C577 C574 1.403 . S
C577 C578 1.392 . S
C577 C581 1.495 . S
C578 C577 1.392 . S
C578 C579 1.385 . S
C578 C580 1.478 . S
C579 H573 0.930 . S
C579 C575 1.400 . S
C579 C578 1.385 . S
C580 C578 1.478 . S
C580 C582 1.381 . S
C580 C586 1.383 1_545 S
C581 C577 1.495 . S
C581 H587 0.959 . S
C581 H588 0.961 . S
C581 H589 0.960 . S
C582 C580 1.381 . S
C582 C583 1.394 . S
C582 H590 0.930 . S
C583 C582 1.394 . S
C583 C584 1.383 1_545 S
C583 H591 0.929 . S
C584 C583 1.383 1_565 S
C584 C585 1.377 . S
C585 H569 0.930 . S
C585 C584 1.377 . S
C585 C586 1.379 . S
C586 H570 0.931 . S
C586 C580 1.383 1_565 S
C586 C585 1.379 . S
H587 C581 0.959 . S
H588 C581 0.961 . S
H589 C581 0.960 . S
H590 C582 0.930 . S
H591 C583 0.929 . S
H592 C600 0.929 . S
H593 C602 0.930 . S
H594 C604 0.930 . S
H595 C607 0.929 . S
H596 C610 0.930 . S
H597 C612 0.960 . S
H598 C612 0.960 . S
H599 C612 0.960 . S
C600 H592 0.929 . S
C600 C601 1.377 . S
C600 C602 1.384 . S
C601 C600 1.377 . S
C601 C607 1.390 . S
C602 H593 0.930 . S
C602 C600 1.384 . S
C602 C603 1.372 . S
C603 C602 1.372 . S
C603 C604 1.400 . S
C603 C608 1.490 . S
C604 H594 0.930 . S
C604 C603 1.400 . S
C604 C607 1.386 . S
H605 C621 0.930 . S
H606 C622 0.931 . S
C607 H595 0.929 . S
C607 C601 1.390 . S
C607 C604 1.386 . S
C608 C603 1.490 . S
C608 C610 1.395 . S
C608 C611 1.403 . S
H609 C615 0.930 . S
C610 H596 0.930 . S
C610 C608 1.395 . S
C610 C613 1.403 . S
C611 C608 1.403 . S
C611 C612 1.524 . S
C611 C615 1.400 . S
C612 H597 0.960 . S
C612 H598 0.960 . S
C612 H599 0.960 . S
C612 C611 1.524 . S
C613 C610 1.403 . S
C613 C614 1.392 . S
C613 C617 1.495 . S
C614 C613 1.392 . S
C614 C615 1.385 . S
C614 C616 1.478 . S
C615 H609 0.930 . S
C615 C611 1.400 . S
C615 C614 1.385 . S
C616 C614 1.478 . S
C616 C618 1.381 . S
C616 C622 1.383 . S
C617 C613 1.495 . S
C617 H623 0.959 . S
C617 H624 0.961 . S
C617 H625 0.960 . S
C618 C616 1.381 . S
C618 C619 1.394 . S
C618 H626 0.930 . S
C619 C618 1.394 . S
C619 C620 1.383 . S
C619 H627 0.929 . S
C620 C619 1.383 . S
C620 C621 1.377 . S
C621 H605 0.930 . S
C621 C620 1.377 . S
C621 C622 1.379 . S
C622 H606 0.931 . S
C622 C616 1.383 . S
C622 C621 1.379 . S
H623 C617 0.959 . S
H624 C617 0.961 . S
H625 C617 0.960 . S
H626 C618 0.930 . S
H627 C619 0.929 . S
H628 C636 0.929 . S
H629 C638 0.930 . S
H630 C640 0.930 . S
H631 C643 0.929 . S
H632 C646 0.930 . S
H633 C648 0.960 . S
H634 C648 0.960 . S
H635 C648 0.960 . S
C636 H628 0.929 . S
C636 C637 1.377 . S
C636 C638 1.384 . S
C637 C636 1.377 . S
C637 C643 1.390 . S
C638 H629 0.930 . S
C638 C636 1.384 . S
C638 C639 1.372 . S
C639 C638 1.372 . S
C639 C640 1.400 . S
C639 C644 1.490 . S
C640 H630 0.930 . S
C640 C639 1.400 . S
C640 C643 1.386 . S
H641 C657 0.930 . S
H642 C658 0.931 . S
C643 H631 0.929 . S
C643 C637 1.390 . S
C643 C640 1.386 . S
C644 C639 1.490 . S
C644 C646 1.395 . S
C644 C647 1.403 . S
H645 C651 0.930 . S
C646 H632 0.930 . S
C646 C644 1.395 . S
C646 C649 1.403 . S
C647 C644 1.403 . S
C647 C648 1.524 . S
C647 C651 1.400 . S
C648 H633 0.960 . S
C648 H634 0.960 . S
C648 H635 0.960 . S
C648 C647 1.524 . S
C649 C646 1.403 . S
C649 C650 1.392 . S
C649 C653 1.495 . S
C650 C649 1.392 . S
C650 C651 1.385 . S
C650 C652 1.478 . S
C651 H645 0.930 . S
C651 C647 1.400 . S
C651 C650 1.385 . S
C652 C650 1.478 . S
C652 C654 1.381 . S
C652 C658 1.383 . S
C653 C649 1.495 . S
C653 H659 0.959 . S
C653 H660 0.961 . S
C653 H661 0.960 . S
C654 C652 1.381 . S
C654 C655 1.394 . S
C654 H662 0.930 . S
C655 C654 1.394 . S
C655 C656 1.383 . S
C655 H663 0.929 . S
C656 C655 1.383 . S
C656 C657 1.377 . S
C657 H641 0.930 . S
C657 C656 1.377 . S
C657 C658 1.379 . S
C658 H642 0.931 . S
C658 C652 1.383 . S
C658 C657 1.379 . S
H659 C653 0.959 . S
H660 C653 0.961 . S
H661 C653 0.960 . S
H662 C654 0.930 . S
H663 C655 0.929 . S
H664 C672 0.929 . S
H665 C674 0.930 . S
H666 C676 0.930 . S
H667 C679 0.929 . S
H668 C682 0.930 . S
H669 C684 0.942 1_455 S
H670 C684 0.931 1_455 S
H671 C684 1.000 . S
C672 H664 0.929 . S
C672 C673 1.377 . S
C672 C674 1.384 . S
C673 C672 1.377 . S
C673 C679 1.390 . S
C674 H665 0.930 . S
C674 C672 1.384 . S
C674 C675 1.372 . S
C675 C674 1.372 . S
C675 C676 1.400 . S
C675 C680 1.490 . S
C676 H666 0.930 . S
C676 C675 1.400 . S
C676 C679 1.386 . S
H677 C693 0.930 . S
H678 C694 0.931 . S
C679 H667 0.929 . S
C679 C673 1.390 . S
C679 C676 1.386 . S
C680 C675 1.490 . S
C680 C682 1.395 . S
C680 C683 1.403 . S
H681 C687 0.930 1_455 S
C682 H668 0.930 . S
C682 C680 1.395 . S
C682 C685 1.403 . S
C683 C680 1.403 . S
C683 C684 1.533 . S
C683 C687 1.400 . S
C684 H669 0.942 1_655 S
C684 H670 0.931 1_655 S
C684 H671 1.000 . S
C684 C683 1.533 . S
C685 C682 1.403 . S
C685 C686 1.392 . S
C685 C689 1.495 1_554 S
C686 C685 1.392 . S
C686 C687 1.385 . S
C686 C688 1.469 1_654 S
C687 H681 0.930 1_655 S
C687 C683 1.400 . S
C687 C686 1.385 . S
C688 C686 1.469 1_456 S
C688 C690 1.404 . S
C688 C694 1.370 1_456 S
C689 C685 1.495 1_556 S
C689 H695 0.959 . S
C689 H696 0.961 . S
C689 H697 0.960 . S
C690 C688 1.404 . S
C690 C691 1.394 . S
C690 H698 0.930 . S
C691 C690 1.394 . S
C691 C692 1.383 . S
C691 H699 0.929 . S
C692 C691 1.383 . S
C692 C693 1.377 1_455 S
C693 H677 0.930 . S
C693 C692 1.377 1_655 S
C693 C694 1.379 1_556 S
C694 H678 0.931 . S
C694 C688 1.370 1_654 S
C694 C693 1.379 1_554 S
H695 C689 0.959 . S
H696 C689 0.961 . S
H697 C689 0.960 . S
H698 C690 0.930 . S
H699 C691 0.929 . S
H700 C708 0.929 . S
H701 C710 0.930 . S
H702 C712 0.930 . S
H703 C715 0.929 . S
H704 C718 0.930 . S
H705 C720 0.960 . S
H706 C720 0.960 . S
H707 C720 0.960 . S
C708 H700 0.929 . S
C708 C709 1.377 . S
C708 C710 1.384 . S
C709 C708 1.377 . S
C709 C715 1.390 . S
C710 H701 0.930 . S
C710 C708 1.384 . S
C710 C711 1.372 . S
C711 C710 1.372 . S
C711 C712 1.400 . S
C711 C716 1.490 . S
C712 H702 0.930 . S
C712 C711 1.400 . S
C712 C715 1.386 . S
H713 C729 0.930 . S
H714 C730 0.931 1_554 S
C715 H703 0.929 . S
C715 C709 1.390 . S
C715 C712 1.386 . S
C716 C711 1.490 . S
C716 C718 1.395 . S
C716 C719 1.403 . S
H717 C723 0.930 . S
C718 H704 0.930 . S
C718 C716 1.395 . S
C718 C721 1.403 . S
C719 C716 1.403 . S
C719 C720 1.524 1_565 S
C719 C723 1.400 1_565 S
C720 H705 0.960 . S
C720 H706 0.960 . S
C720 H707 0.960 . S
C720 C719 1.524 1_545 S
C721 C718 1.403 . S
C721 C722 1.392 1_554 S
C721 C725 1.495 1_554 S
C722 C721 1.392 1_556 S
C722 C723 1.385 1_566 S
C722 C724 1.478 . S
C723 H717 0.930 . S
C723 C719 1.400 1_545 S
C723 C722 1.385 1_544 S
C724 C722 1.478 . S
C724 C726 1.381 . S
C724 C730 1.383 1_565 S
C725 C721 1.495 1_556 S
C725 H731 0.959 . S
C725 H732 0.961 . S
C725 H733 0.960 . S
C726 C724 1.381 . S
C726 C727 1.379 1_565 S
C726 H734 0.930 . S
C727 C726 1.379 1_545 S
C727 C728 1.404 . S
C727 H735 0.923 1_545 S
C728 C727 1.404 . S
C728 C729 1.377 . S
C729 H713 0.930 . S
C729 C728 1.377 . S
C729 C730 1.379 . S
C730 H714 0.931 1_556 S
C730 C724 1.383 1_545 S
C730 C729 1.379 . S
H731 C725 0.959 . S
H732 C725 0.961 . S
H733 C725 0.960 . S
H734 C726 0.930 . S
H735 C727 0.923 1_565 S
H736 C744 0.929 . S
H737 C746 0.930 . S
H738 C748 0.930 . S
H739 C751 0.929 . S
H740 C754 0.930 . S
H741 C756 0.960 . S
H742 C756 0.960 . S
H743 C756 0.960 1_554 S
C744 H736 0.929 . S
C744 C745 1.377 . S
C744 C746 1.384 . S
C745 C744 1.377 . S
C745 C751 1.390 . S
C746 H737 0.930 . S
C746 C744 1.384 . S
C746 C747 1.372 . S
C747 C746 1.372 . S
C747 C748 1.400 . S
C747 C752 1.490 . S
C748 H738 0.930 . S
C748 C747 1.400 . S
C748 C751 1.386 . S
H749 C765 0.930 . S
H750 C766 0.931 . S
C751 H739 0.929 . S
C751 C745 1.390 . S
C751 C748 1.386 . S
C752 C747 1.490 . S
C752 C754 1.395 . S
C752 C755 1.403 1_554 S
H753 C759 0.930 . S
C754 H740 0.930 . S
C754 C752 1.395 . S
C754 C757 1.403 . S
C755 C752 1.403 1_556 S
C755 C756 1.524 . S
C755 C759 1.400 . S
C756 H741 0.960 . S
C756 H742 0.960 . S
C756 H743 0.960 1_556 S
C756 C755 1.524 . S
C757 C754 1.403 . S
C757 C758 1.392 1_554 S
C757 C761 1.495 . S
C758 C757 1.392 1_556 S
C758 C759 1.385 . S
C758 C760 1.478 . S
C759 H753 0.930 . S
C759 C755 1.400 . S
C759 C758 1.385 . S
C760 C758 1.478 . S
C760 C762 1.381 . S
C760 C766 1.383 . S
C761 C757 1.495 . S
C761 H767 0.959 . S
C761 H768 0.961 . S
C761 H769 0.960 1_554 S
C762 C760 1.381 . S
C762 C763 1.394 . S
C762 H770 0.930 . S
C763 C762 1.394 . S
C763 C764 1.383 . S
C763 H771 0.929 . S
C764 C763 1.383 . S
C764 C765 1.377 . S
C765 H749 0.930 . S
C765 C764 1.377 . S
C765 C766 1.379 . S
C766 H750 0.931 . S
C766 C760 1.383 . S
C766 C765 1.379 . S
H767 C761 0.959 . S
H768 C761 0.961 . S
H769 C761 0.960 1_556 S
H770 C762 0.930 . S
H771 C763 0.929 . S
H772 C780 0.929 . S
H773 C782 0.930 . S
H774 C784 0.930 . S
H775 C787 0.929 . S
H776 C790 0.930 . S
H777 C792 0.960 . S
H778 C792 0.960 . S
H779 C792 0.960 . S
C780 H772 0.929 . S
C780 C781 1.377 . S
C780 C782 1.384 . S
C781 C780 1.377 . S
C781 C787 1.390 . S
C782 H773 0.930 . S
C782 C780 1.384 . S
C782 C783 1.372 . S
C783 C782 1.372 . S
C783 C784 1.400 . S
C783 C788 1.490 . S
C784 H774 0.930 . S
C784 C783 1.400 . S
C784 C787 1.386 . S
H785 C801 0.930 . S
H786 C802 0.931 . S
C787 H775 0.929 . S
C787 C781 1.390 . S
C787 C784 1.386 . S
C788 C783 1.490 . S
C788 C790 1.395 . S
C788 C791 1.403 . S
H789 C795 0.930 . S
C790 H776 0.930 . S
C790 C788 1.395 . S
C790 C793 1.403 . S
C791 C788 1.403 . S
C791 C792 1.524 . S
C791 C795 1.400 . S
C792 H777 0.960 . S
C792 H778 0.960 . S
C792 H779 0.960 . S
C792 C791 1.524 . S
C793 C790 1.403 . S
C793 C794 1.392 . S
C793 C797 1.495 1_554 S
C794 C793 1.392 . S
C794 C795 1.385 . S
C794 C796 1.478 1_554 S
C795 H789 0.930 . S
C795 C791 1.400 . S
C795 C794 1.385 . S
C796 C794 1.478 1_556 S
C796 C798 1.381 . S
C796 C802 1.383 1_556 S
C797 C793 1.495 1_556 S
C797 H803 0.959 . S
C797 H804 0.961 . S
C797 H805 0.960 . S
C798 C796 1.381 . S
C798 C799 1.394 . S
C798 H806 0.930 . S
C799 C798 1.394 . S
C799 C800 1.383 . S
C799 H807 0.929 . S
C800 C799 1.383 . S
C800 C801 1.377 . S
C801 H785 0.930 . S
C801 C800 1.377 . S
C801 C802 1.379 1_556 S
C802 H786 0.931 . S
C802 C796 1.383 1_554 S
C802 C801 1.379 1_554 S
H803 C797 0.959 . S
H804 C797 0.961 . S
H805 C797 0.960 . S
H806 C798 0.930 . S
H807 C799 0.929 . S
H808 C816 0.929 1_554 S
H809 C818 0.930 . S
H810 C820 0.930 . S
H811 C823 0.929 . S
H812 C826 0.930 . S
H813 C828 0.960 . S
H814 C828 0.960 . S
H815 C828 0.960 . S
C816 H808 0.929 1_556 S
C816 C817 1.377 . S
C816 C818 1.384 . S
C817 C816 1.377 . S
C817 C823 1.390 . S
C818 H809 0.930 . S
C818 C816 1.384 . S
C818 C819 1.372 . S
C819 C818 1.372 . S
C819 C820 1.400 . S
C819 C824 1.490 . S
C820 H810 0.930 . S
C820 C819 1.400 . S
C820 C823 1.386 . S
H821 C837 0.930 . S
H822 C838 0.931 . S
C823 H811 0.929 . S
C823 C817 1.390 . S
C823 C820 1.386 . S
C824 C819 1.490 . S
C824 C826 1.395 . S
C824 C827 1.403 . S
H825 C831 0.930 . S
C826 H812 0.930 . S
C826 C824 1.395 . S
C826 C829 1.403 . S
C827 C824 1.403 . S
C827 C828 1.524 . S
C827 C831 1.400 . S
C828 H813 0.960 . S
C828 H814 0.960 . S
C828 H815 0.960 . S
C828 C827 1.524 . S
C829 C826 1.403 . S
C829 C830 1.392 . S
C829 C833 1.495 1_455 S
C830 C829 1.392 . S
C830 C831 1.385 . S
C830 C832 1.478 . S
C831 H825 0.930 . S
C831 C827 1.400 . S
C831 C830 1.385 . S
C832 C830 1.478 . S
C832 C834 1.381 . S
C832 C838 1.383 . S
C833 C829 1.495 1_655 S
C833 H839 0.959 . S
C833 H840 0.961 . S
C833 H841 0.960 . S
C834 C832 1.381 . S
C834 C835 1.394 . S
C834 H842 0.930 . S
C835 C834 1.394 . S
C835 C836 1.383 . S
C835 H843 0.929 . S
C836 C835 1.383 . S
C836 C837 1.377 . S
C837 H821 0.930 . S
C837 C836 1.377 . S
C837 C838 1.379 . S
C838 H822 0.931 . S
C838 C832 1.383 . S
C838 C837 1.379 . S
H839 C833 0.959 . S
H840 C833 0.961 . S
H841 C833 0.960 . S
H842 C834 0.930 . S
H843 C835 0.929 . S
H844 C852 0.929 . S
H845 C854 0.930 . S
H846 C856 0.930 . S
H847 C859 0.929 . S
H848 C862 0.930 . S
H849 C864 0.960 . S
H850 C864 0.960 . S
H851 C864 0.960 . S
C852 H844 0.929 . S
C852 C853 1.377 . S
C852 C854 1.384 . S
C853 C852 1.377 . S
C853 C859 1.390 . S
C854 H845 0.930 . S
C854 C852 1.384 . S
C854 C855 1.372 . S
C855 C854 1.372 . S
C855 C856 1.400 . S
C855 C860 1.490 . S
C856 H846 0.930 . S
C856 C855 1.400 . S
C856 C859 1.386 . S
H857 C873 0.930 . S
H858 C874 0.931 . S
C859 H847 0.929 . S
C859 C853 1.390 . S
C859 C856 1.386 . S
C860 C855 1.490 . S
C860 C862 1.395 . S
C860 C863 1.403 . S
H861 C867 0.930 . S
C862 H848 0.930 . S
C862 C860 1.395 . S
C862 C865 1.403 . S
C863 C860 1.403 . S
C863 C864 1.524 . S
C863 C867 1.400 . S
C864 H849 0.960 . S
C864 H850 0.960 . S
C864 H851 0.960 . S
C864 C863 1.524 . S
C865 C862 1.403 . S
C865 C866 1.392 . S
C865 C869 1.495 . S
C866 C865 1.392 . S
C866 C867 1.385 . S
C866 C868 1.478 . S
C867 H861 0.930 . S
C867 C863 1.400 . S
C867 C866 1.385 . S
C868 C866 1.478 . S
C868 C870 1.381 . S
C868 C874 1.383 . S
C869 C865 1.495 . S
C869 H875 0.959 . S
C869 H876 0.961 . S
C869 H877 0.960 . S
C870 C868 1.381 . S
C870 C871 1.394 . S
C870 H878 0.930 . S
C871 C870 1.394 . S
C871 C872 1.383 . S
C871 H879 0.929 . S
C872 C871 1.383 . S
C872 C873 1.377 . S
C873 H857 0.930 . S
C873 C872 1.377 . S
C873 C874 1.379 . S
C874 H858 0.931 . S
C874 C868 1.383 . S
C874 C873 1.379 . S
H875 C869 0.959 . S
H876 C869 0.961 . S
H877 C869 0.960 . S
H878 C870 0.930 . S
H879 C871 0.929 . S
H880 C888 0.929 . S
H881 C890 0.930 . S
H882 C892 0.930 . S
H883 C895 0.929 . S
H884 C898 0.930 . S
H885 C900 0.960 . S
H886 C900 0.960 . S
H887 C900 0.960 . S
C888 H880 0.929 . S
C888 C889 1.377 . S
C888 C890 1.384 . S
C889 C888 1.377 . S
C889 C895 1.390 . S
C890 H881 0.930 . S
C890 C888 1.384 . S
C890 C891 1.372 . S
C891 C890 1.372 . S
C891 C892 1.400 . S
C891 C896 1.490 . S
C892 H882 0.930 . S
C892 C891 1.400 . S
C892 C895 1.386 . S
H893 C909 0.930 . S
H894 C910 0.931 . S
C895 H883 0.929 . S
C895 C889 1.390 . S
C895 C892 1.386 . S
C896 C891 1.490 . S
C896 C898 1.395 . S
C896 C899 1.403 . S
H897 C903 0.930 . S
C898 H884 0.930 . S
C898 C896 1.395 . S
C898 C901 1.403 . S
C899 C896 1.403 . S
C899 C900 1.524 . S
C899 C903 1.400 . S
C900 H885 0.960 . S
C900 H886 0.960 . S
C900 H887 0.960 . S
C900 C899 1.524 . S
C901 C898 1.403 . S
C901 C902 1.392 . S
C901 C905 1.495 . S
C902 C901 1.392 . S
C902 C903 1.385 . S
C902 C904 1.478 . S
C903 H897 0.930 . S
C903 C899 1.400 . S
C903 C902 1.385 . S
C904 C902 1.478 . S
C904 C906 1.381 . S
C904 C910 1.383 . S
C905 C901 1.495 . S
C905 H911 0.959 . S
C905 H912 0.961 . S
C905 H913 0.960 . S
C906 C904 1.381 . S
C906 C907 1.394 . S
C906 H914 0.930 . S
C907 C906 1.394 . S
C907 C908 1.383 . S
C907 H915 0.929 . S
C908 C907 1.383 . S
C908 C909 1.377 . S
C909 H893 0.930 . S
C909 C908 1.377 . S
C909 C910 1.379 . S
C910 H894 0.931 . S
C910 C904 1.383 . S
C910 C909 1.379 . S
H911 C905 0.959 . S
H912 C905 0.961 . S
H913 C905 0.960 . S
H914 C906 0.930 . S
H915 C907 0.929 . S
H916 C924 0.929 . S
H917 C926 0.930 . S
H918 C928 0.930 . S
H919 C931 0.929 1_554 S
H920 C934 0.930 . S
H921 C936 0.960 . S
H922 C936 0.960 . S
H923 C936 0.960 . S
C924 H916 0.929 . S
C924 C925 1.377 . S
C924 C926 1.384 . S
C925 C924 1.377 . S
C925 C931 1.390 . S
C926 H917 0.930 . S
C926 C924 1.384 . S
C926 C927 1.372 . S
C927 C926 1.372 . S
C927 C928 1.400 . S
C927 C932 1.490 . S
C928 H918 0.930 . S
C928 C927 1.400 . S
C928 C931 1.386 . S
H929 C945 0.930 . S
H930 C946 0.931 . S
C931 H919 0.929 1_556 S
C931 C925 1.390 . S
C931 C928 1.386 . S
C932 C927 1.490 . S
C932 C934 1.395 . S
C932 C935 1.403 . S
H933 C939 0.930 . S
C934 H920 0.930 . S
C934 C932 1.395 . S
C934 C937 1.403 . S
C935 C932 1.403 . S
C935 C936 1.524 . S
C935 C939 1.400 . S
C936 H921 0.960 . S
C936 H922 0.960 . S
C936 H923 0.960 . S
C936 C935 1.524 . S
C937 C934 1.403 . S
C937 C938 1.392 . S
C937 C941 1.495 . S
C938 C937 1.392 . S
C938 C939 1.385 . S
C938 C940 1.478 . S
C939 H933 0.930 . S
C939 C935 1.400 . S
C939 C938 1.385 . S
C940 C938 1.478 . S
C940 C942 1.381 . S
C940 C946 1.383 . S
C941 C937 1.495 . S
C941 H947 0.959 . S
C941 H948 0.961 . S
C941 H949 0.960 . S
C942 C940 1.381 . S
C942 C943 1.394 . S
C942 H950 0.930 . S
C943 C942 1.394 . S
C943 C944 1.383 . S
C943 H951 0.929 . S
C944 C943 1.383 . S
C944 C945 1.377 . S
C945 H929 0.930 . S
C945 C944 1.377 . S
C945 C946 1.379 . S
C946 H930 0.931 . S
C946 C940 1.383 . S
C946 C945 1.379 . S
H947 C941 0.959 . S
H948 C941 0.961 . S
H949 C941 0.960 . S
H950 C942 0.930 . S
H951 C943 0.929 . S
H952 C960 0.929 . S
H953 C962 0.930 . S
H954 C964 0.930 . S
H955 C967 0.929 . S
H956 C970 0.930 . S
H957 C972 0.960 . S
H958 C972 0.960 . S
H959 C972 0.977 . S
C960 H952 0.929 . S
C960 C961 1.377 . S
C960 C962 1.384 . S
C961 C960 1.377 . S
C961 C967 1.390 . S
C962 H953 0.930 . S
C962 C960 1.384 . S
C962 C963 1.372 . S
C963 C962 1.372 . S
C963 C964 1.400 . S
C963 C968 1.490 . S
C964 H954 0.930 . S
C964 C963 1.400 . S
C964 C967 1.386 . S
H965 C981 0.930 . S
H966 C982 0.931 . S
C967 H955 0.929 . S
C967 C961 1.390 . S
C967 C964 1.386 . S
C968 C963 1.490 . S
C968 C970 1.395 . S
C968 C971 1.403 . S
H969 C975 0.930 1_455 S
C970 H956 0.930 . S
C970 C968 1.395 . S
C970 C973 1.403 . S
C971 C968 1.403 . S
C971 C972 1.524 1_655 S
C971 C975 1.400 . S
C972 H957 0.960 . S
C972 H958 0.960 . S
C972 H959 0.977 . S
C972 C971 1.524 1_455 S
C973 C970 1.403 . S
C973 C974 1.392 . S
C973 C977 1.495 . S
C974 C973 1.392 . S
C974 C975 1.385 . S
C974 C976 1.478 . S
C975 H969 0.930 1_655 S
C975 C971 1.400 . S
C975 C974 1.385 . S
C976 C974 1.478 . S
C976 C978 1.381 . S
C976 C982 1.383 . S
C977 C973 1.495 . S
C977 H983 0.959 . S
C977 H984 0.961 . S
C977 H985 0.960 . S
C978 C976 1.381 . S
C978 C979 1.394 . S
C978 H986 0.930 . S
C979 C978 1.394 . S
C979 C980 1.383 . S
C979 H987 0.945 . S
C980 C979 1.383 . S
C980 C981 1.377 . S
C981 H965 0.930 . S
C981 C980 1.377 . S
C981 C982 1.379 . S
C982 H966 0.931 . S
C982 C976 1.383 . S
C982 C981 1.379 . S
H983 C977 0.959 . S
H984 C977 0.961 . S
H985 C977 0.960 . S
H986 C978 0.930 . S
H987 C979 0.945 . S
H988 C996 0.929 . S
H989 C998 0.930 . S
H990 C1000 0.930 . S
H991 C1003 0.929 . S
H992 C1006 0.930 . S
H993 C1008 0.960 . S
H994 C1008 0.960 . S
H995 C1008 0.960 . S
C996 H988 0.929 . S
C996 C997 1.377 . S
C996 C998 1.384 . S
C997 C996 1.377 . S
C997 C1003 1.390 . S
C998 H989 0.930 . S
C998 C996 1.384 . S
C998 C999 1.372 . S
C999 C998 1.372 . S
C999 C1000 1.400 . S
C999 C1004 1.490 . S
C1000 H990 0.930 . S
C1000 C999 1.400 . S
C1000 C1003 1.386 . S
H1001 C1017 0.930 . S
H1002 C1018 0.931 . S
C1003 H991 0.929 . S
C1003 C997 1.390 . S
C1003 C1000 1.386 . S
C1004 C999 1.490 . S
C1004 C1006 1.395 . S
C1004 C1007 1.403 . S
H1005 C1011 0.930 . S
C1006 H992 0.930 . S
C1006 C1004 1.395 . S
C1006 C1009 1.403 . S
C1007 C1004 1.403 . S
C1007 C1008 1.524 . S
C1007 C1011 1.400 . S
C1008 H993 0.960 . S
C1008 H994 0.960 . S
C1008 H995 0.960 . S
C1008 C1007 1.524 . S
C1009 C1006 1.403 . S
C1009 C1010 1.392 . S
C1009 C1013 1.495 . S
C1010 C1009 1.392 . S
C1010 C1011 1.385 . S
C1010 C1012 1.478 . S
C1011 H1005 0.930 . S
C1011 C1007 1.400 . S
C1011 C1010 1.385 . S
C1012 C1010 1.478 . S
C1012 C1014 1.381 . S
C1012 C1018 1.383 . S
C1013 C1009 1.495 . S
C1013 H1019 0.959 . S
C1013 H1020 0.961 . S
C1013 H1021 0.960 . S
C1014 C1012 1.381 . S
C1014 C1015 1.394 . S
C1014 H1022 0.930 1_565 S
C1015 C1014 1.394 . S
C1015 C1016 1.383 . S
C1015 H1023 0.929 1_565 S
C1016 C1015 1.383 . S
C1016 C1017 1.377 . S
C1017 H1001 0.930 . S
C1017 C1016 1.377 . S
C1017 C1018 1.379 . S
C1018 H1002 0.931 . S
C1018 C1012 1.383 . S
C1018 C1017 1.379 . S
H1019 C1013 0.959 . S
H1020 C1013 0.961 . S
H1021 C1013 0.960 . S
H1022 C1014 0.930 1_545 S
H1023 C1015 0.929 1_545 S
H1024 C1032 0.929 . S
H1025 C1034 0.930 . S
H1026 C1036 0.930 . S
H1027 C1039 0.929 . S
H1028 C1042 0.930 . S
H1029 C1044 0.960 . S
H1030 C1044 0.960 . S
H1031 C1044 0.960 . S
C1032 H1024 0.929 . S
C1032 C1033 1.377 . S
C1032 C1034 1.384 . S
C1033 C1032 1.377 . S
C1033 C1039 1.390 . S
C1034 H1025 0.930 . S
C1034 C1032 1.384 . S
C1034 C1035 1.372 . S
C1035 C1034 1.372 . S
C1035 C1036 1.400 . S
C1035 C1040 1.490 . S
C1036 H1026 0.930 . S
C1036 C1035 1.400 . S
C1036 C1039 1.386 . S
H1037 C1053 0.930 . S
H1038 C1054 0.931 . S
C1039 H1027 0.929 . S
C1039 C1033 1.390 . S
C1039 C1036 1.386 . S
C1040 C1035 1.490 . S
C1040 C1042 1.395 . S
C1040 C1043 1.403 . S
H1041 C1047 0.930 . S
C1042 H1028 0.930 . S
C1042 C1040 1.395 . S
C1042 C1045 1.403 . S
C1043 C1040 1.403 . S
C1043 C1044 1.524 . S
C1043 C1047 1.400 . S
C1044 H1029 0.960 . S
C1044 H1030 0.960 . S
C1044 H1031 0.960 . S
C1044 C1043 1.524 . S
C1045 C1042 1.403 . S
C1045 C1046 1.392 . S
C1045 C1049 1.495 . S
C1046 C1045 1.392 . S
C1046 C1047 1.385 . S
C1046 C1048 1.478 . S
C1047 H1041 0.930 . S
C1047 C1043 1.400 . S
C1047 C1046 1.385 . S
C1048 C1046 1.478 . S
C1048 C1050 1.381 . S
C1048 C1054 1.383 . S
C1049 C1045 1.495 . S
C1049 H1055 0.959 . S
C1049 H1056 0.961 . S
C1049 H1057 0.960 . S
C1050 C1048 1.381 . S
C1050 C1051 1.394 . S
C1050 H1058 0.930 . S
C1051 C1050 1.394 . S
C1051 C1052 1.383 . S
C1051 H1059 0.929 . S
C1052 C1051 1.383 . S
C1052 C1053 1.377 . S
C1053 H1037 0.930 . S
C1053 C1052 1.377 . S
C1053 C1054 1.379 . S
C1054 H1038 0.931 . S
C1054 C1048 1.383 . S
C1054 C1053 1.379 . S
H1055 C1049 0.959 . S
H1056 C1049 0.961 . S
H1057 C1049 0.960 . S
H1058 C1050 0.930 . S
H1059 C1051 0.929 . S
H1060 C1068 0.929 . S
H1061 C1070 0.930 . S
H1062 C1072 0.930 . S
H1063 C1075 0.929 . S
H1064 C1078 0.930 . S
H1065 C1080 0.960 . S
H1066 C1080 0.960 . S
H1067 C1080 0.960 . S
C1068 H1060 0.929 . S
C1068 C1069 1.377 . S
C1068 C1070 1.384 . S
C1069 C1068 1.377 . S
C1069 C1075 1.390 . S
C1070 H1061 0.930 . S
C1070 C1068 1.384 . S
C1070 C1071 1.372 . S
C1071 C1070 1.372 . S
C1071 C1072 1.400 . S
C1071 C1076 1.490 . S
C1072 H1062 0.930 . S
C1072 C1071 1.400 . S
C1072 C1075 1.386 . S
H1073 C1089 0.930 . S
H1074 C1090 0.931 . S
C1075 H1063 0.929 . S
C1075 C1069 1.390 . S
C1075 C1072 1.386 . S
C1076 C1071 1.490 . S
C1076 C1078 1.395 . S
C1076 C1079 1.403 . S
H1077 C1083 0.930 . S
C1078 H1064 0.930 . S
C1078 C1076 1.395 . S
C1078 C1081 1.403 . S
C1079 C1076 1.403 . S
C1079 C1080 1.524 . S
C1079 C1083 1.400 . S
C1080 H1065 0.960 . S
C1080 H1066 0.960 . S
C1080 H1067 0.960 . S
C1080 C1079 1.524 . S
C1081 C1078 1.403 . S
C1081 C1082 1.392 . S
C1081 C1085 1.495 . S
C1082 C1081 1.392 . S
C1082 C1083 1.385 . S
C1082 C1084 1.478 . S
C1083 H1077 0.930 . S
C1083 C1079 1.400 . S
C1083 C1082 1.385 . S
C1084 C1082 1.478 . S
C1084 C1086 1.381 . S
C1084 C1090 1.383 . S
C1085 C1081 1.495 . S
C1085 H1091 0.959 . S
C1085 H1092 0.961 . S
C1085 H1093 0.960 . S
C1086 C1084 1.381 . S
C1086 C1087 1.394 . S
C1086 H1094 0.930 . S
C1087 C1086 1.394 . S
C1087 C1088 1.383 . S
C1087 H1095 0.929 . S
C1088 C1087 1.383 . S
C1088 C1089 1.377 . S
C1089 H1073 0.930 . S
C1089 C1088 1.377 . S
C1089 C1090 1.379 . S
C1090 H1074 0.931 . S
C1090 C1084 1.383 . S
C1090 C1089 1.379 . S
H1091 C1085 0.959 . S
H1092 C1085 0.961 . S
H1093 C1085 0.960 . S
H1094 C1086 0.930 . S
H1095 C1087 0.929 . S
C241 C61 2.063 . S
C260 C103 2.192 . S
C296 C129 1.619 . S
C277 C70 1.517 . S
C332 C169 1.731 . S
C313 C43 1.660 . S
C368 C223 2.259 . S
C349 C52 2.142 . S
C404 C84 2.188 . S
C385 C25 2.068 . S
C421 C34 1.527 . S
C440 C114 1.621 . S
C457 C7 1.662 . S
C476 C154 1.746 . S
C493 C16 2.152 . S
C512 C204 2.258 1_655 S
C548 C80 0.110 1_655 S
C529 C50 0.289 . S
C584 C141 0.512 . S
C565 C59 0.472 . S
C620 C181 0.306 . S
C601 C67 0.300 . S
C637 C41 0.368 . S
C656 C200 0.233 . S
C673 C14 0.237 . S
C692 C101 0.107 . S
C728 C120 0.450 . S
C709 C23 0.454 . S
C764 C160 0.310 . S
C745 C31 0.306 . S
C781 C5 0.328 . S
C800 C221 0.245 . S
C817 C49 1.646 . S
C836 C74 1.814 . S
C853 C58 2.303 . S
C872 C124 2.489 . S
C908 C164 2.277 . S
C889 C68 2.109 1_556 S
C944 C194 1.603 . S
C925 C40 1.492 1_556 S
C961 C13 1.648 . S
C980 C89 1.803 . S
C1016 C143 2.483 . S
C997 C22 2.307 . S
C1052 C183 2.278 . S
C1033 C32 2.111 . S
C1069 C4 1.482 . S
C1088 C209 1.602 . S
