# Generated by pormake.
# Topology pyr, (3,6)-cn, num edge types: 1
# Building blocks:
#     Node 0, Type 0, BuildingBlock: BETDIP_clean_linker_0, # of connection points: 3
#     Node 1, Type 0, BuildingBlock: BETDIP_clean_linker_0, # of connection points: 3
#     Node 2, Type 0, BuildingBlock: BETDIP_clean_linker_0, # of connection points: 3
#     Node 3, Type 0, BuildingBlock: BETDIP_clean_linker_0, # of connection points: 3
#     Node 4, Type 0, BuildingBlock: BETDIP_clean_linker_0, # of connection points: 3
#     Node 5, Type 0, BuildingBlock: BETDIP_clean_linker_0, # of connection points: 3
#     Node 6, Type 0, BuildingBlock: BETDIP_clean_linker_0, # of connection points: 3
#     Node 7, Type 0, BuildingBlock: BETDIP_clean_linker_0, # of connection points: 3
#     Node 8, Type 1, BuildingBlock: PAMTOO_clean_sbu_0, # of connection points: 6
#     Node 9, Type 1, BuildingBlock: PAMTOO_clean_sbu_0, # of connection points: 6
#     Node 10, Type 1, BuildingBlock: PAMTOO_clean_sbu_0, # of connection points: 6
#     Node 11, Type 1, BuildingBlock: PAMTOO_clean_sbu_0, # of connection points: 6
#     Edge 12, Type (0, 1), BuildingBlock: XIVTED_clean_linker_0, # of connection points: 2
#     Edge 13, Type (0, 1), BuildingBlock: XIVTED_clean_linker_0, # of connection points: 2
#     Edge 14, Type (0, 1), BuildingBlock: XIVTED_clean_linker_0, # of connection points: 2
#     Edge 15, Type (0, 1), BuildingBlock: XIVTED_clean_linker_0, # of connection points: 2
#     Edge 16, Type (0, 1), BuildingBlock: XIVTED_clean_linker_0, # of connection points: 2
#     Edge 17, Type (0, 1), BuildingBlock: XIVTED_clean_linker_0, # of connection points: 2
#     Edge 18, Type (0, 1), BuildingBlock: XIVTED_clean_linker_0, # of connection points: 2
#     Edge 19, Type (0, 1), BuildingBlock: XIVTED_clean_linker_0, # of connection points: 2
#     Edge 20, Type (0, 1), BuildingBlock: XIVTED_clean_linker_0, # of connection points: 2
#     Edge 21, Type (0, 1), BuildingBlock: XIVTED_clean_linker_0, # of connection points: 2
#     Edge 22, Type (0, 1), BuildingBlock: XIVTED_clean_linker_0, # of connection points: 2
#     Edge 23, Type (0, 1), BuildingBlock: XIVTED_clean_linker_0, # of connection points: 2
#     Edge 24, Type (0, 1), BuildingBlock: XIVTED_clean_linker_0, # of connection points: 2
#     Edge 25, Type (0, 1), BuildingBlock: XIVTED_clean_linker_0, # of connection points: 2
#     Edge 26, Type (0, 1), BuildingBlock: XIVTED_clean_linker_0, # of connection points: 2
#     Edge 27, Type (0, 1), BuildingBlock: XIVTED_clean_linker_0, # of connection points: 2
#     Edge 28, Type (0, 1), BuildingBlock: XIVTED_clean_linker_0, # of connection points: 2
#     Edge 29, Type (0, 1), BuildingBlock: XIVTED_clean_linker_0, # of connection points: 2
#     Edge 30, Type (0, 1), BuildingBlock: XIVTED_clean_linker_0, # of connection points: 2
#     Edge 31, Type (0, 1), BuildingBlock: XIVTED_clean_linker_0, # of connection points: 2
#     Edge 32, Type (0, 1), BuildingBlock: XIVTED_clean_linker_0, # of connection points: 2
#     Edge 33, Type (0, 1), BuildingBlock: XIVTED_clean_linker_0, # of connection points: 2
#     Edge 34, Type (0, 1), BuildingBlock: XIVTED_clean_linker_0, # of connection points: 2
#     Edge 35, Type (0, 1), BuildingBlock: XIVTED_clean_linker_0, # of connection points: 2
# Relax obj value: 0.121
# Max RMSD: 0.198
# Mean RMSD: 0.129
data_MOF--net-pyr--node1-PAMTOO_clean_sbu_0--node2-BETDIP_clean_linker_0--edge1-XIVTED_clean_linker_0
_symmetry_space_group_name_H-M    P1
_symmetry_Int_Tables_number       1
_symmetry_cell_setting            triclinic
loop_
_symmetry_equiv_pos_as_xyz
'x, y, z'
_cell_length_a     37.587625
_cell_length_b     38.714187
_cell_length_c     39.591632
_cell_angle_alpha  90.350647
_cell_angle_beta   89.069697
_cell_angle_gamma 108.5759
loop_
_atom_site_label
_atom_site_type_symbol
_atom_site_fract_x
_atom_site_fract_y
_atom_site_fract_z
_atom_type_partial_charge
H0 H 0.31368 0.29115 0.26215 0.0
H1 H 0.36341 0.28059 0.16621 0.0
H2 H 0.38688 0.22566 0.25283 0.0
H3 H 0.31966 0.30107 0.1454 0.0
C4 C 0.30599 0.31176 0.16533 0.0
C5 C 0.33295 0.28112 0.24754 0.0
C6 C 0.35035 0.25788 0.26233 0.0
C7 C 0.33709 0.28918 0.21308 0.0
C8 C 0.35986 0.27451 0.19289 0.0
C9 C 0.37778 0.25125 0.20707 0.0
C10 C 0.37361 0.24393 0.24194 0.0
N11 N 0.31533 0.30978 0.19974 0.0
H12 H 0.12073 0.76451 0.76891 0.0
H13 H 0.15846 0.72302 0.67906 0.0
H14 H 0.22073 0.7332 0.7703 0.0
H15 H 0.12372 0.74968 0.65212 0.0
C16 C 0.10752 0.76082 0.6694 0.0
C17 C 0.14049 0.75327 0.75651 0.0
C18 C 0.17101 0.74943 0.77432 0.0
C19 C 0.13637 0.74516 0.72203 0.0
C20 C 0.16169 0.73036 0.70546 0.0
C21 C 0.19153 0.72481 0.72321 0.0
C22 C 0.19611 0.73482 0.75742 0.0
N23 N 0.10835 0.75532 0.70477 0.0
H24 H 0.69937 0.42376 0.83777 0.0
H25 H 0.59914 0.33038 0.83415 0.0
H26 H 0.68115 0.3377 0.9105 0.0
H27 H 0.60481 0.3462 0.77688 0.0
C28 C 0.61286 0.37574 0.77771 0.0
C29 C 0.68222 0.39773 0.8479 0.0
C30 C 0.69471 0.38271 0.87582 0.0
C31 C 0.64833 0.37873 0.83203 0.0
C32 C 0.62592 0.34475 0.84527 0.0
C33 C 0.63736 0.33014 0.87411 0.0
C34 C 0.67193 0.34914 0.88867 0.0
N35 N 0.63722 0.39513 0.80355 0.0
H36 H 0.81024 0.61824 0.358 0.0
H37 H 0.908 0.71352 0.34926 0.0
H38 H 0.82861 0.70546 0.43016 0.0
H39 H 0.9047 0.69692 0.29425 0.0
C40 C 0.89407 0.66735 0.29379 0.0
C41 C 0.82689 0.64474 0.36732 0.0
C42 C 0.81536 0.65929 0.39655 0.0
C43 C 0.85966 0.66425 0.34955 0.0
C44 C 0.88194 0.69852 0.36184 0.0
C45 C 0.87115 0.71292 0.39151 0.0
C46 C 0.83771 0.69339 0.40825 0.0
N47 N 0.86947 0.6481 0.31992 0.0
H48 H 0.6129 0.7598 0.94608 0.0
H49 H 0.6738 0.72655 0.86617 0.0
H50 H 0.64058 0.822 0.85417 0.0
H51 H 0.64232 0.66675 0.89534 0.0
C52 C 0.65664 0.68124 0.91737 0.0
C53 C 0.6248 0.76351 0.92072 0.0
C54 C 0.62376 0.79338 0.90121 0.0
C55 C 0.64255 0.73915 0.9082 0.0
C56 C 0.65931 0.74474 0.87579 0.0
C57 C 0.65881 0.7746 0.85613 0.0
C58 C 0.6406 0.79852 0.86892 0.0
N59 N 0.64631 0.71128 0.92969 0.0
H60 H 0.85242 0.2549 0.34459 0.0
H61 H 0.82144 0.29839 0.43641 0.0
H62 H 0.7658 0.30547 0.34405 0.0
H63 H 0.87317 0.28408 0.45853 0.0
C64 C 0.87318 0.2608 0.4431 0.0
C65 C 0.83574 0.26938 0.35739 0.0
C66 C 0.80831 0.27909 0.33976 0.0
C67 C 0.84047 0.2757 0.39203 0.0
C68 C 0.8188 0.29402 0.40941 0.0
C69 C 0.7929 0.30613 0.39159 0.0
C70 C 0.78774 0.29842 0.35695 0.0
N71 N 0.86422 0.25925 0.40839 0.0
H72 H 0.30087 0.63579 0.22715 0.0
H73 H 0.3962 0.73293 0.23862 0.0
H74 H 0.31697 0.72699 0.1605 0.0
H75 H 0.39943 0.71045 0.28955 0.0
C76 C 0.38714 0.68101 0.28925 0.0
C77 C 0.31698 0.663 0.21894 0.0
C78 C 0.30427 0.67927 0.19194 0.0
C79 C 0.34985 0.68194 0.23637 0.0
C80 C 0.37064 0.71781 0.22603 0.0
C81 C 0.35813 0.73448 0.19915 0.0
C82 C 0.32552 0.71468 0.18213 0.0
N83 N 0.36072 0.6639 0.26393 0.0
H84 H 0.1024 0.3072 0.74691 0.0
H85 H 0.19436 0.40752 0.73997 0.0
H86 H 0.18651 0.32153 0.66863 0.0
H87 H 0.18387 0.39997 0.80024 0.0
C88 C 0.15384 0.39559 0.79989 0.0
C89 C 0.12784 0.32378 0.73428 0.0
C90 C 0.14274 0.30963 0.70665 0.0
C91 C 0.14662 0.35877 0.74678 0.0
C92 C 0.17993 0.38036 0.73071 0.0
C93 C 0.1947 0.36683 0.70269 0.0
C94 C 0.17574 0.33166 0.69082 0.0
N95 N 0.13139 0.37173 0.77543 0.0
Dy96 Dy 0.03593 0.02519 0.52173 0.0
Dy97 Dy 0.96063 1.00105 0.57108 0.0
C98 C 0.03098 0.07081 0.58821 0.0
O99 O 0.0358 0.97425 0.54744 0.0
O100 O -0.0002 0.97522 0.59457 0.0
O101 O 0.09431 0.03083 0.51352 0.0
O102 O 0.06138 0.04166 0.47262 0.0
O103 O 0.95694 0.9528 0.53901 0.0
O104 O 0.99055 0.98339 0.49363 0.0
O105 O 0.94982 0.03258 0.52746 0.0
O106 O 0.00984 0.06918 0.51682 0.0
O107 O 0.90019 0.97957 0.57508 0.0
O108 O 0.93352 0.99886 0.61975 0.0
C109 C 0.02391 0.96292 0.578 0.0
O110 O 0.05279 0.05782 0.56915 0.0
O111 O 0.99428 0.05678 0.5877 0.0
C112 C 0.12741 0.06898 0.4694 0.0
C113 C 0.19271 0.12117 0.44378 0.0
C114 C 0.17022 0.13105 0.4684 0.0
C115 C 0.13774 0.105 0.48126 0.0
C116 C 0.14964 0.05917 0.44494 0.0
C117 C 0.18189 0.08494 0.43221 0.0
C118 C 0.09411 0.04053 0.48206 0.0
C119 C 0.96723 0.95369 0.50715 0.0
C120 C 0.97352 0.06313 0.51598 0.0
C121 C 0.87604 0.9504 0.62703 0.0
C122 C 0.82587 0.89451 0.66607 0.0
C123 C 0.81624 0.90215 0.63343 0.0
C124 C 0.841 0.92991 0.61419 0.0
C125 C 0.88623 0.94195 0.65918 0.0
C126 C 0.86143 0.91431 0.67846 0.0
C127 C 0.90017 0.98217 0.60796 0.0
H128 H 0.17782 0.15875 0.47777 0.0
H129 H 0.12076 0.11288 0.5003 0.0
H130 H 0.14193 0.03146 0.43549 0.0
H131 H 0.1979 0.07655 0.41266 0.0
H132 H 0.78925 0.88714 0.62298 0.0
H133 H 0.83231 0.93595 0.58956 0.0
H134 H 0.91289 0.95739 0.66997 0.0
H135 H 0.86956 0.90959 0.7037 0.0
Dy136 Dy 0.4599 0.02044 1.01461 0.0
Dy137 Dy 0.5391 0.04159 0.05538 0.0
C138 C 0.47043 0.97142 0.07631 0.0
O139 O 0.46208 0.06956 0.04498 0.0
O140 O 0.50309 0.06647 0.08634 0.0
O141 O 0.40042 0.01227 1.01404 0.0
O142 O 0.43022 1.00785 0.96761 0.0
O143 O 0.54066 0.09198 1.0277 0.0
O144 O 0.50205 0.06451 0.98455 0.0
O145 O 0.54555 0.0136 1.00731 0.0
O146 O 0.4851 0.97697 1.00183 0.0
O147 O 0.59966 0.06172 0.05231 0.0
O148 O 0.57127 0.04195 0.09998 0.0
C149 C 0.47707 0.07912 0.0747 0.0
O150 O 0.44746 0.98575 0.06129 0.0
O151 O 0.50694 0.9849 0.07182 0.0
C152 C 0.36647 0.97277 0.97192 0.0
C153 C 0.30729 0.91245 0.94945 0.0
C154 C 0.3332 0.90776 0.97285 0.0
C155 C 0.36265 0.93777 0.98402 0.0
C156 C 0.34044 0.97765 0.94918 0.0
C157 C 0.31117 0.94783 0.93798 0.0
C158 C 0.39778 1.00454 0.98189 0.0
C159 C 0.52763 0.09303 0.99731 0.0
C160 C 0.52107 0.98362 0.99611 0.0
C161 C 0.62965 0.08884 0.10201 0.0
C162 C 0.68126 0.14395 0.13931 0.0
C163 C 0.64268 0.13974 0.14107 0.0
C164 C 0.61705 0.11243 0.12247 0.0
C165 C 0.66816 0.09405 0.09893 0.0
C166 C 0.69379 0.12144 0.11732 0.0
C167 C 0.60327 0.05787 0.08462 0.0
H168 H 0.33089 0.88093 0.98229 0.0
H169 H 0.38264 0.93366 1.00169 0.0
H170 H 0.34317 1.00454 0.93954 0.0
H171 H 0.29235 0.95244 0.91939 0.0
H172 H 0.63206 0.15639 0.15798 0.0
H173 H 0.58737 0.10904 0.12488 0.0
H174 H 0.67836 0.07632 0.08292 0.0
H175 H 0.72337 0.1244 0.11496 0.0
Dy176 Dy 0.48865 0.49149 0.51508 0.0
Dy177 Dy 0.49873 0.56544 0.56045 0.0
C178 C 0.52708 0.5011 0.58754 0.0
O179 O 0.44145 0.47694 0.55234 0.0
O180 O 0.43756 0.53377 0.56347 0.0
O181 O 0.47914 0.43342 0.51298 0.0
O182 O 0.49045 0.4652 0.46707 0.0
O183 O 0.48455 0.57716 0.50797 0.0
O184 O 0.45289 0.5197 0.48894 0.0
O185 O 0.55691 0.5701 0.54231 0.0
O186 O 0.53874 0.53466 0.49523 0.0
O187 O 0.51141 0.62392 0.56379 0.0
O188 O 0.49558 0.5907 0.60867 0.0
C189 C 0.42356 0.49813 0.56517 0.0
O190 O 0.52894 0.49063 0.5561 0.0
O191 O 0.5108 0.52551 0.59537 0.0
C192 C 0.52093 0.42144 0.4738 0.0
C193 C 0.58322 0.39698 0.46268 0.0
C194 C 0.58835 0.43298 0.47311 0.0
C195 C 0.55752 0.44502 0.47873 0.0
C196 C 0.5155 0.38543 0.46361 0.0
C197 C 0.54645 0.37323 0.45811 0.0
C198 C 0.48889 0.4344 0.48119 0.0
C199 C 0.46177 0.55538 0.48639 0.0
C200 C 0.56448 0.55878 0.51249 0.0
C201 C 0.47161 0.63913 0.60391 0.0
C202 C 0.4105 0.66167 0.62504 0.0
C203 C 0.41017 0.64484 0.59343 0.0
C204 C 0.44037 0.63344 0.58306 0.0
C205 C 0.47264 0.65709 0.63488 0.0
C206 C 0.44233 0.66825 0.64539 0.0
C207 C 0.50087 0.62267 0.59543 0.0
H208 H 0.61622 0.45176 0.47736 0.0
H209 H 0.56227 0.47277 0.4872 0.0
H210 H 0.48741 0.36678 0.46003 0.0
H211 H 0.54166 0.34541 0.44986 0.0
H212 H 0.38589 0.63904 0.57739 0.0
H213 H 0.43875 0.61905 0.55927 0.0
H214 H 0.49636 0.66139 0.65142 0.0
H215 H 0.4435 0.68148 0.66972 0.0
Dy216 Dy 0.00435 0.56427 1.01364 0.0
Dy217 Dy 0.99451 0.48841 0.05568 0.0
C218 C 0.96593 0.55073 0.08768 0.0
O219 O 0.0619 0.57212 1.03369 0.0
O220 O 0.04554 0.52942 0.07634 0.0
O221 O 0.01777 0.62281 1.01062 0.0
O222 O -0.0016 0.58945 0.96643 0.0
O223 O 0.03887 0.49299 1.01617 0.0
O224 O 0.01788 0.52532 0.97773 0.0
O225 O 0.94914 0.47571 1.01718 0.0
O226 O 0.94329 0.53241 1.01301 0.0
O227 O 0.98407 0.43027 0.0543 0.0
O228 O 0.99462 0.45907 0.10196 0.0
C229 C 0.0697 0.55777 0.06161 0.0
O230 O 0.98794 0.5738 0.0662 0.0
O231 O 0.95857 0.51529 0.08445 0.0
C232 C 0.97393 0.63711 0.97587 0.0
C233 C 0.90883 0.65607 0.96362 0.0
C234 C 0.91447 0.64295 0.99543 0.0
C235 C 0.94659 0.63333 1.00144 0.0
C236 C 0.96917 0.65158 0.94455 0.0
C237 C 0.93686 0.66096 0.93843 0.0
C238 C 0.00438 0.62136 0.98026 0.0
C239 C 0.03669 0.50314 0.98499 0.0
C240 C 0.93024 0.49718 1.00771 0.0
C241 C 0.02275 0.41378 0.0926 0.0
C242 C 0.08267 0.38724 0.10632 0.0
C243 C 0.0873 0.41557 0.08297 0.0
C244 C 0.05769 0.42881 0.0763 0.0
C245 C 0.01779 0.38537 0.11577 0.0
C246 C 0.04759 0.37222 0.12267 0.0
C247 C 0.99229 0.42887 0.08603 0.0
H248 H 0.89319 0.63839 1.01518 0.0
H249 H 0.94927 0.62153 1.02563 0.0
H250 H 0.98974 0.65429 0.9244 0.0
H251 H 0.93339 0.67129 0.91375 0.0
H252 H 0.1141 0.42814 0.07041 0.0
H253 H 0.06222 0.4511 0.05866 0.0
H254 H 0.99105 0.37358 0.12868 0.0
H255 H 0.04316 0.35023 0.14066 0.0
H256 H 0.33214 0.29393 0.31734 0.0
H257 H 0.26049 0.11267 0.4276 0.0
H258 H 0.34297 0.1899 0.2879 0.0
H259 H 0.20127 0.19154 0.42451 0.0
H260 H 0.30923 0.15188 0.39067 0.0
H261 H 0.30163 0.26618 0.3701 0.0
C262 C 0.32871 0.26551 0.32196 0.0
C263 C 0.33959 0.24418 0.29744 0.0
C264 C 0.28591 0.16086 0.39868 0.0
C265 C 0.30611 0.21296 0.35839 0.0
C266 C 0.25802 0.1385 0.41959 0.0
C267 C 0.22618 0.14835 0.42833 0.0
C268 C 0.2822 0.19349 0.38667 0.0
C269 C 0.22512 0.1827 0.41816 0.0
C270 C 0.31155 0.24988 0.35222 0.0
C271 C 0.33551 0.20781 0.30571 0.0
N272 N 0.25247 0.20386 0.39734 0.0
N273 N 0.31885 0.19336 0.3353 0.0
H274 H 0.2032 0.7242 0.82704 0.0
H275 H 0.23475 0.90667 0.93377 0.0
H276 H 0.15949 0.81095 0.8006 0.0
H277 H 0.31322 0.84592 0.93115 0.0
H278 H 0.19221 0.85979 0.89871 0.0
H279 H 0.22895 0.75759 0.87849 0.0
C280 C 0.1985 0.74992 0.83216 0.0
C281 C 0.17976 0.76504 0.80886 0.0
C282 C 0.21847 0.85647 0.90638 0.0
C283 C 0.20825 0.80268 0.86814 0.0
C284 C 0.24285 0.88326 0.92623 0.0
C285 C 0.27809 0.88075 0.93468 0.0
C286 C 0.22924 0.82681 0.8951 0.0
C287 C 0.28648 0.84916 0.92513 0.0
C288 C 0.21302 0.76878 0.86163 0.0
C289 C 0.17353 0.79793 0.81758 0.0
N290 N 0.26245 0.82365 0.90539 0.0
N291 N 0.1881 0.81579 0.8463 0.0
H292 H 0.58215 0.34677 0.71813 0.0
H293 H 0.54364 0.52598 0.65235 0.0
H294 H 0.61825 0.44847 0.7726 0.0
H295 H 0.54569 0.43786 0.58589 0.0
H296 H 0.5661 0.49653 0.69822 0.0
H297 H 0.56343 0.37787 0.67113 0.0
C298 C 0.58616 0.37568 0.72016 0.0
C299 C 0.6019 0.39504 0.74926 0.0
C300 C 0.56184 0.48374 0.67355 0.0
C301 C 0.58014 0.43082 0.69568 0.0
C302 C 0.54892 0.5005 0.64732 0.0
C303 C 0.54272 0.48443 0.61509 0.0
C304 C 0.56805 0.45026 0.66784 0.0
C305 C 0.55018 0.45138 0.6102 0.0
C306 C 0.57559 0.39344 0.69328 0.0
C307 C 0.60641 0.43248 0.75058 0.0
N308 N 0.5621 0.43527 0.63632 0.0
N309 N 0.59535 0.44908 0.72429 0.0
H310 H 0.87523 0.5932 0.28223 0.0
H311 H 0.96848 0.62125 0.09695 0.0
H312 H 0.93151 0.69777 0.23685 0.0
H313 H 0.92933 0.51587 0.1453 0.0
H314 H 0.94911 0.64827 0.14648 0.0
H315 H 0.8897 0.56328 0.23137 0.0
C316 C 0.89057 0.60986 0.26155 0.0
C317 C 0.90224 0.64808 0.26368 0.0
C318 C 0.94463 0.61922 0.14638 0.0
C319 C 0.91865 0.61404 0.20552 0.0
C320 C 0.95567 0.60364 0.11797 0.0
C321 C 0.95089 0.56615 0.11696 0.0
C322 C 0.92857 0.59734 0.17429 0.0
C323 C 0.93366 0.54488 0.14497 0.0
C324 C 0.89883 0.59275 0.23256 0.0
C325 C 0.92206 0.66827 0.23622 0.0
N326 N 0.92327 0.56081 0.17261 0.0
N327 N 0.92956 0.65104 0.20833 0.0
H328 H 0.35611 0.22123 0.14497 0.0
H329 H 0.5045 0.11208 0.13517 0.0
H330 H 0.44208 0.23365 0.21937 0.0
H331 H 0.42263 0.10864 0.05882 0.0
H332 H 0.48374 0.15753 0.16617 0.0
H333 H 0.38278 0.18208 0.1121 0.0
C334 C 0.38105 0.21633 0.15416 0.0
C335 C 0.39679 0.23089 0.1851 0.0
C336 C 0.47047 0.14683 0.14257 0.0
C337 C 0.42699 0.18482 0.14781 0.0
C338 C 0.48219 0.12079 0.12494 0.0
C339 C 0.4652 0.10633 0.09439 0.0
C340 C 0.44154 0.15836 0.12956 0.0
C341 C 0.43658 0.11883 0.08226 0.0
C342 C 0.39608 0.19354 0.13548 0.0
C343 C 0.42865 0.22266 0.19592 0.0
N344 N 0.42567 0.14396 0.09988 0.0
N345 N 0.44255 0.19997 0.17743 0.0
H346 H 0.06555 0.7969 0.70379 0.0
H347 H 0.06838 0.92773 0.54793 0.0
H348 H 0.11224 0.78662 0.60541 0.0
H349 H 0.00609 0.92946 0.64024 0.0
H350 H 0.08587 0.87711 0.56983 0.0
H351 H 0.04382 0.8456 0.68194 0.0
C352 C 0.07099 0.80469 0.67751 0.0
C353 C 0.09089 0.78785 0.65631 0.0
C354 C 0.06835 0.88846 0.58537 0.0
C355 C 0.0664 0.8437 0.63135 0.0
C356 C 0.05843 0.9176 0.57293 0.0
C357 C 0.03571 0.93306 0.59229 0.0
C358 C 0.05573 0.87453 0.61757 0.0
C359 C 0.0237 0.91848 0.62446 0.0
C360 C 0.05859 0.83252 0.66509 0.0
C361 C 0.09703 0.79896 0.62254 0.0
N362 N 0.03393 0.89004 0.63615 0.0
N363 N 0.08507 0.82633 0.61117 0.0
H364 H 0.74737 0.35229 0.89532 0.0
H365 H 0.88368 0.53276 0.982 0.0
H366 H 0.72575 0.45519 0.89352 0.0
H367 H 0.89631 0.42606 0.98947 0.0
H368 H 0.82747 0.50644 0.94802 0.0
H369 H 0.80417 0.38062 0.92715 0.0
C370 C 0.75463 0.38095 0.9016 0.0
C371 C 0.73144 0.40126 0.89204 0.0
C372 C 0.84253 0.48883 0.95719 0.0
C373 C 0.79695 0.43415 0.92866 0.0
C374 C 0.87458 0.50379 0.97671 0.0
C375 C 0.89484 0.4816 0.98877 0.0
C376 C 0.83069 0.45143 0.94952 0.0
C377 C 0.8817 0.4443 0.98088 0.0
C378 C 0.78716 0.39716 0.9198 0.0
C379 C 0.74281 0.43851 0.90031 0.0
N380 N 0.85063 0.43051 0.96178 0.0
N381 N 0.77465 0.45373 0.91834 0.0
H382 H 0.748 0.62071 0.36858 0.0
H383 H 0.62983 0.60344 0.54073 0.0
H384 H 0.80014 0.65468 0.46491 0.0
H385 H 0.58575 0.54614 0.44881 0.0
H386 H 0.69214 0.62537 0.51338 0.0
H387 H 0.68779 0.59474 0.3977 0.0
C388 C 0.74696 0.62228 0.39588 0.0
C389 C 0.77926 0.64016 0.41422 0.0
C390 C 0.66872 0.6079 0.49935 0.0
C391 C 0.71004 0.61124 0.44775 0.0
C392 C 0.63318 0.59555 0.51488 0.0
C393 C 0.60245 0.57307 0.49704 0.0
C394 C 0.67334 0.5979 0.46574 0.0
C395 C 0.60849 0.56349 0.46363 0.0
C396 C 0.71245 0.6077 0.41251 0.0
C397 C 0.77588 0.64182 0.44961 0.0
N398 N 0.64309 0.57606 0.4491 0.0
N399 N 0.74185 0.62785 0.4652 0.0
H400 H 0.25987 0.33436 0.20854 0.0
H401 H 0.13346 0.3733 0.06224 0.0
H402 H 0.27879 0.31716 0.10287 0.0
H403 H 0.10537 0.3724 0.16841 0.0
H404 H 0.1884 0.35553 0.07617 0.0
H405 H 0.20523 0.35177 0.19387 0.0
C406 C 0.25265 0.33439 0.18218 0.0
C407 C 0.27391 0.32427 0.1568 0.0
C408 C 0.17013 0.35908 0.0964 0.0
C409 C 0.21113 0.34413 0.13986 0.0
C410 C 0.13886 0.36934 0.08849 0.0
C411 C 0.11482 0.37439 0.11422 0.0
C412 C 0.17764 0.3541 0.13033 0.0
C413 C 0.12291 0.36846 0.14775 0.0
C414 C 0.22129 0.34422 0.17384 0.0
C415 C 0.26311 0.32483 0.12314 0.0
N416 N 0.15372 0.35883 0.15484 0.0
N417 N 0.23244 0.3346 0.1156 0.0
H418 H 0.60092 0.26383 0.84399 0.0
H419 H 0.56752 0.16015 1.02118 0.0
H420 H 0.62074 0.31723 0.94101 0.0
H421 H 0.51811 0.10553 0.9298 0.0
H422 H 0.58927 0.21737 0.99047 0.0
H423 H 0.57079 0.20536 0.87299 0.0
C424 C 0.59841 0.26336 0.87129 0.0
C425 C 0.61389 0.29539 0.89012 0.0
C426 C 0.57358 0.19297 0.97701 0.0
C427 C 0.58015 0.22879 0.92335 0.0
C428 C 0.56129 0.1601 0.99456 0.0
C429 C 0.54101 0.12779 0.97809 0.0
C430 C 0.56603 0.19387 0.94245 0.0
C431 C 0.53365 0.12975 0.94353 0.0
C432 C 0.58144 0.23 0.88781 0.0
C433 C 0.60995 0.29316 0.92545 0.0
N434 N 0.54637 0.16221 0.92677 0.0
N435 N 0.59392 0.26054 0.94082 0.0
H436 H 0.89435 0.72661 0.45609 0.0
H437 H 0.97445 0.94358 0.43852 0.0
H438 H 0.89882 0.77961 0.35993 0.0
H439 H 0.93356 0.88522 0.53125 0.0
H440 H 0.95666 0.88502 0.40808 0.0
H441 H 0.92117 0.78593 0.48273 0.0
C442 C 0.90148 0.75086 0.44053 0.0
C443 C 0.89394 0.74833 0.40589 0.0
C444 C 0.95163 0.88526 0.43508 0.0
C445 C 0.92427 0.81651 0.43627 0.0
C446 C 0.96166 0.91858 0.45244 0.0
C447 C 0.95527 0.91937 0.48748 0.0
C448 C 0.93575 0.85266 0.45306 0.0
C449 C 0.93878 0.88614 0.50425 0.0
C450 C 0.9166 0.78473 0.45575 0.0
C451 C 0.9042 0.78052 0.38675 0.0
N452 N 0.92979 0.85429 0.48694 0.0
N453 N 0.91852 0.81349 0.40229 0.0
H454 H 0.22321 0.67548 0.7471 0.0
H455 H 0.36622 0.69393 0.59101 0.0
H456 H 0.22458 0.74295 0.66039 0.0
H457 H 0.37776 0.64804 0.68766 0.0
H458 H 0.30992 0.70631 0.61268 0.0
H459 H 0.275 0.65861 0.72196 0.0
C460 C 0.23432 0.68663 0.72266 0.0
C461 C 0.21978 0.71099 0.70602 0.0
C462 C 0.32484 0.69357 0.6291 0.0
C463 C 0.27914 0.69165 0.67696 0.0
C464 C 0.35687 0.68644 0.61675 0.0
C465 C 0.37685 0.6702 0.63767 0.0
C466 C 0.31251 0.68399 0.66246 0.0
C467 C 0.3636 0.66115 0.67084 0.0
C468 C 0.2639 0.67698 0.70831 0.0
C469 C 0.23479 0.72397 0.67406 0.0
N470 N 0.33227 0.66809 0.68215 0.0
N471 N 0.26385 0.71433 0.66065 0.0
H472 H 0.72853 0.76965 0.84144 0.0
H473 H 0.75045 0.88415 0.67218 0.0
H474 H 0.63808 0.79912 0.79704 0.0
H475 H 0.83762 0.8456 0.71113 0.0
H476 H 0.7067 0.84695 0.71382 0.0
H477 H 0.76641 0.79082 0.79055 0.0
C478 C 0.71632 0.77992 0.82073 0.0
C479 C 0.68014 0.78293 0.82367 0.0
C480 C 0.73527 0.84625 0.71303 0.0
C481 C 0.72378 0.80801 0.76554 0.0
C482 C 0.76028 0.86733 0.68904 0.0
C483 C 0.79797 0.86834 0.68832 0.0
C484 C 0.74803 0.82623 0.73672 0.0
C485 C 0.80906 0.8463 0.71122 0.0
C486 C 0.73811 0.79225 0.79173 0.0
C487 C 0.66609 0.79697 0.79614 0.0
N488 N 0.78432 0.82647 0.73472 0.0
N489 N 0.68809 0.80935 0.76839 0.0
H490 H 0.7837 0.31137 0.28665 0.0
H491 H 0.73807 0.13125 0.17379 0.0
H492 H 0.80749 0.21309 0.31396 0.0
H493 H 0.68434 0.21327 0.15902 0.0
H494 H 0.77648 0.16895 0.21739 0.0
H495 H 0.75858 0.28264 0.23296 0.0
C496 C 0.78406 0.28401 0.28134 0.0
C497 C 0.79773 0.2647 0.30513 0.0
C498 C 0.75657 0.17892 0.2044 0.0
C499 C 0.76969 0.23212 0.24362 0.0
C500 C 0.73482 0.15754 0.17922 0.0
C501 C 0.70771 0.16899 0.16282 0.0
C502 C 0.75117 0.212 0.21349 0.0
C503 C 0.70446 0.20313 0.17144 0.0
C504 C 0.76987 0.26776 0.25064 0.0
C505 C 0.79803 0.22954 0.29645 0.0
N506 N 0.72572 0.22336 0.19646 0.0
N507 N 0.78407 0.21442 0.26657 0.0
H508 H 0.36375 0.60614 0.30049 0.0
H509 H 0.47356 0.62783 0.47573 0.0
H510 H 0.43116 0.70847 0.3428 0.0
H511 H 0.41858 0.52248 0.43148 0.0
H512 H 0.4544 0.65673 0.42826 0.0
H513 H 0.38004 0.57422 0.34855 0.0
C514 C 0.38193 0.62191 0.31985 0.0
C515 C 0.39612 0.66013 0.31763 0.0
C516 C 0.44639 0.62728 0.42877 0.0
C517 C 0.41472 0.62376 0.37271 0.0
C518 C 0.45733 0.61059 0.45607 0.0
C519 C 0.4479 0.57246 0.4578 0.0
C520 C 0.42562 0.60595 0.40256 0.0
C521 C 0.42657 0.55192 0.43134 0.0
C522 C 0.39123 0.60364 0.34727 0.0
C523 C 0.41957 0.67904 0.34345 0.0
N524 N 0.41622 0.5689 0.4048 0.0
N525 N 0.42802 0.66076 0.36978 0.0
H526 H 0.18515 0.42347 0.85945 0.0
H527 H 0.02096 0.49992 0.91765 0.0
H528 H 0.08375 0.40364 0.80251 0.0
H529 H 0.09271 0.47219 0.98942 0.0
H530 H 0.04927 0.47342 0.87247 0.0
H531 H 0.15704 0.44993 0.90504 0.0
C532 C 0.15696 0.42471 0.85661 0.0
C533 C 0.13662 0.41121 0.82737 0.0
C534 C 0.05878 0.47318 0.89812 0.0
C535 C 0.10466 0.44188 0.87892 0.0
C536 C 0.04284 0.48848 0.92389 0.0
C537 C 0.05452 0.48828 0.95737 0.0
C538 C 0.08711 0.45819 0.90575 0.0
C539 C 0.0828 0.47283 0.96398 0.0
C540 C 0.14095 0.43967 0.88259 0.0
C541 C 0.10026 0.41349 0.82479 0.0
N542 N 0.09833 0.45861 0.93836 0.0
N543 N 0.08551 0.4288 0.85016 0.0
H544 H 0.55598 0.78151 0.93407 0.0
H545 H 0.5911 0.9931 0.96992 0.0
H546 H 0.65435 0.86738 0.89995 0.0
H547 H 0.48275 0.91148 0.98419 0.0
H548 H 0.61529 0.9466 0.9463 0.0
H549 H 0.52936 0.82783 0.95556 0.0
C550 C 0.57196 0.81008 0.93121 0.0
C551 C 0.60729 0.82067 0.91506 0.0
C552 C 0.58615 0.93883 0.95437 0.0
C553 C 0.57717 0.8736 0.93941 0.0
C554 C 0.5723 0.9654 0.96788 0.0
C555 C 0.53484 0.95617 0.97905 0.0
C556 C 0.56254 0.90257 0.95233 0.0
C557 C 0.51178 0.91982 0.97573 0.0
C558 C 0.5567 0.83646 0.94324 0.0
C559 C 0.62679 0.85803 0.91182 0.0
N560 N 0.52608 0.89424 0.96289 0.0
N561 N 0.61154 0.88308 0.92395 0.0
H562 H 0.92395 0.266 0.49342 0.0
H563 H 0.90449 0.05519 0.49026 0.0
H564 H 0.85368 0.19021 0.42282 0.0
H565 H 0.00871 0.13681 0.51657 0.0
H566 H 0.87924 0.1037 0.47432 0.0
H567 H 0.94927 0.21776 0.5118 0.0
C568 C 0.91372 0.23918 0.48206 0.0
C569 C 0.88707 0.23203 0.45643 0.0
C570 C 0.90768 0.11093 0.48348 0.0
C571 C 0.91518 0.17717 0.47739 0.0
C572 C 0.92208 0.08333 0.49255 0.0
C573 C 0.95883 0.09205 0.50441 0.0
C574 C 0.92988 0.14752 0.48703 0.0
C575 C 0.98039 0.12897 0.50707 0.0
C576 C 0.92826 0.21188 0.49233 0.0
C577 C 0.87458 0.19693 0.44239 0.0
N578 N 0.96549 0.15545 0.49869 0.0
N579 N 0.8886 0.17076 0.45316 0.0
H580 H 0.25242 0.70872 0.1672 0.0
H581 H 0.10633 0.52434 0.10272 0.0
H582 H 0.2744 0.60617 0.17529 0.0
H583 H 0.11593 0.62879 0.059 0.0
H584 H 0.16373 0.55285 0.13441 0.0
H585 H 0.19768 0.67894 0.13331 0.0
C586 C 0.24601 0.67996 0.16172 0.0
C587 C 0.26879 0.66018 0.17374 0.0
C588 C 0.15342 0.56944 0.11769 0.0
C589 C 0.20501 0.62564 0.13545 0.0
C590 C 0.12065 0.55326 0.09964 0.0
C591 C 0.10628 0.57429 0.07821 0.0
C592 C 0.17158 0.60707 0.11489 0.0
C593 C 0.1261 0.61156 0.07508 0.0
C594 C 0.21456 0.66298 0.14239 0.0
C595 C 0.25781 0.62261 0.16675 0.0
N596 N 0.15749 0.62685 0.09354 0.0
N597 N 0.22668 0.60655 0.14809 0.0
H598 H 0.25275 0.3437 0.68218 0.0
H599 H 0.37776 0.53118 0.5984 0.0
H600 H 0.21737 0.43936 0.68432 0.0
H601 H 0.38893 0.4257 0.57607 0.0
H602 H 0.32238 0.50106 0.6339 0.0
H603 H 0.30763 0.37689 0.64871 0.0
C604 C 0.25657 0.37178 0.67557 0.0
C605 C 0.23011 0.3886 0.68558 0.0
C606 C 0.33697 0.48467 0.62101 0.0
C607 C 0.29328 0.42702 0.64723 0.0
C608 C 0.36847 0.50177 0.60069 0.0
C609 C 0.38814 0.48097 0.58424 0.0
C610 C 0.32547 0.44666 0.6251 0.0
C611 C 0.37487 0.44298 0.58823 0.0
C612 C 0.28795 0.39075 0.65643 0.0
C613 C 0.23709 0.42538 0.67707 0.0
N614 N 0.34462 0.42718 0.60835 0.0
N615 N 0.26799 0.4434 0.65815 0.0
H616 H 0.70362 0.71396 0.96916 0.0
H617 H 0.86617 0.63492 0.90735 0.0
H618 H 0.69239 0.6392 0.88579 0.0
H619 H 0.86862 0.68958 1.00301 0.0
H620 H 0.80462 0.64096 0.89673 0.0
H621 H 0.76571 0.70895 0.98042 0.0
C622 C 0.71415 0.69634 0.95336 0.0
C623 C 0.69295 0.67691 0.92649 0.0
C624 C 0.81862 0.65171 0.92002 0.0
C625 C 0.76394 0.6714 0.93895 0.0
C626 C 0.85394 0.6486 0.92595 0.0
C627 C 0.8726 0.66186 0.95608 0.0
C628 C 0.80182 0.66841 0.9443 0.0
C629 C 0.85507 0.67875 0.97956 0.0
C630 C 0.74958 0.69352 0.95977 0.0
C631 C 0.70789 0.65451 0.9068 0.0
N632 N 0.82067 0.6816 0.97316 0.0
N633 N 0.74255 0.65252 0.91329 0.0
H634 H 0.43364 0.76755 0.18513 0.0
H635 H 0.39724 0.9387 0.09656 0.0
H636 H 0.32743 0.78808 0.18709 0.0
H637 H 0.50789 0.92876 0.10524 0.0
H638 H 0.37193 0.88383 0.13075 0.0
H639 H 0.46262 0.82728 0.15813 0.0
C640 C 0.41661 0.78486 0.18045 0.0
C641 C 0.37799 0.77263 0.18804 0.0
C642 C 0.4018 0.8937 0.12536 0.0
C643 C 0.41065 0.84058 0.15671 0.0
C644 C 0.41629 0.92508 0.1057 0.0
C645 C 0.4548 0.93849 0.09787 0.0
C646 C 0.42584 0.87518 0.13719 0.0
C647 C 0.47802 0.91951 0.1106 0.0
C648 C 0.43305 0.81882 0.16481 0.0
C649 C 0.35718 0.79613 0.18119 0.0
N650 N 0.46317 0.88877 0.12943 0.0
N651 N 0.37363 0.82865 0.1657 0.0
H652 H 0.06754 0.27313 0.69771 0.0
H653 H 0.10563 0.10691 0.59933 0.0
H654 H 0.17698 0.26006 0.68687 0.0
H655 H 0.99448 0.11014 0.62445 0.0
H656 H 0.1322 0.16301 0.63163 0.0
H657 H 0.03979 0.21297 0.67196 0.0
C658 C 0.08567 0.25747 0.69028 0.0
C659 C 0.12469 0.2719 0.69405 0.0
C660 C 0.10198 0.1513 0.63025 0.0
C661 C 0.09327 0.20333 0.66418 0.0
C662 C 0.08679 0.11926 0.61175 0.0
C663 C 0.04775 0.10375 0.60907 0.0
C664 C 0.078 0.16816 0.64598 0.0
C665 C 0.02476 0.12104 0.62578 0.0
C666 C 0.06987 0.22322 0.67541 0.0
C667 C 0.14685 0.25043 0.68375 0.0
N668 N 0.04021 0.15239 0.64332 0.0
N669 N 0.13089 0.21744 0.66908 0.0
H670 H 0.78499 0.37154 0.37645 0.0
H671 H 0.59338 0.3324 0.48094 0.0
H672 H 0.74389 0.28047 0.4444 0.0
H673 H 0.6485 0.43374 0.42947 0.0
H674 H 0.64823 0.31284 0.46878 0.0
H675 H 0.73621 0.39576 0.39749 0.0
C676 C 0.76603 0.35707 0.39633 0.0
C677 C 0.76837 0.32411 0.40883 0.0
C678 C 0.6484 0.33947 0.4604 0.0
C679 C 0.71183 0.35098 0.43242 0.0
C680 C 0.61699 0.35049 0.46706 0.0
C681 C 0.61631 0.3847 0.4561 0.0
C682 C 0.67916 0.36266 0.44233 0.0
C683 C 0.6479 0.40727 0.43864 0.0
C684 C 0.7381 0.37077 0.40825 0.0
C685 C 0.74308 0.30617 0.43439 0.0
N686 N 0.67786 0.39576 0.43212 0.0
N687 N 0.71545 0.31958 0.44505 0.0
loop_
_geom_bond_atom_site_label_1
_geom_bond_atom_site_label_2
_geom_bond_distance
_geom_bond_site_symmetry_2
_ccdc_geom_bond_type
H0 C5 0.930 . S
H1 C8 0.930 . S
H2 C10 0.930 . S
H3 C4 1.016 . S
C4 H3 1.016 . S
C4 N11 1.286 . S
C5 H0 0.930 . S
C5 C6 1.397 . S
C5 C7 1.361 . S
C6 C5 1.397 . S
C6 C10 1.390 . S
C7 C5 1.361 . S
C7 C8 1.393 . S
C7 N11 1.413 . S
C8 H1 0.930 . S
C8 C7 1.393 . S
C8 C9 1.399 . S
C9 C8 1.399 . S
C9 C10 1.381 . S
C10 H2 0.930 . S
C10 C6 1.390 . S
C10 C9 1.381 . S
N11 C4 1.286 . S
N11 C7 1.413 . S
H12 C17 0.930 . S
H13 C20 0.930 . S
H14 C22 0.930 . S
H15 C16 1.016 . S
C16 H15 1.016 . S
C16 N23 1.286 . S
C17 H12 0.930 . S
C17 C18 1.397 . S
C17 C19 1.361 . S
C18 C17 1.397 . S
C18 C22 1.390 . S
C19 C17 1.361 . S
C19 C20 1.393 . S
C19 N23 1.413 . S
C20 H13 0.930 . S
C20 C19 1.393 . S
C20 C21 1.399 . S
C21 C20 1.399 . S
C21 C22 1.381 . S
C22 H14 0.930 . S
C22 C18 1.390 . S
C22 C21 1.381 . S
N23 C16 1.286 . S
N23 C19 1.413 . S
H24 C29 0.930 . S
H25 C32 0.930 . S
H26 C34 0.930 . S
H27 C28 1.016 . S
C28 H27 1.016 . S
C28 N35 1.286 . S
C29 H24 0.930 . S
C29 C30 1.397 . S
C29 C31 1.361 . S
C30 C29 1.397 . S
C30 C34 1.390 . S
C31 C29 1.361 . S
C31 C32 1.393 . S
C31 N35 1.413 . S
C32 H25 0.930 . S
C32 C31 1.393 . S
C32 C33 1.399 . S
C33 C32 1.399 . S
C33 C34 1.381 . S
C34 H26 0.930 . S
C34 C30 1.390 . S
C34 C33 1.381 . S
N35 C28 1.286 . S
N35 C31 1.413 . S
H36 C41 0.930 . S
H37 C44 0.930 . S
H38 C46 0.930 . S
H39 C40 1.016 . S
C40 H39 1.016 . S
C40 N47 1.286 . S
C41 H36 0.930 . S
C41 C42 1.397 . S
C41 C43 1.361 . S
C42 C41 1.397 . S
C42 C46 1.390 . S
C43 C41 1.361 . S
C43 C44 1.393 . S
C43 N47 1.413 . S
C44 H37 0.930 . S
C44 C43 1.393 . S
C44 C45 1.399 . S
C45 C44 1.399 . S
C45 C46 1.381 . S
C46 H38 0.930 . S
C46 C42 1.390 . S
C46 C45 1.381 . S
N47 C40 1.286 . S
N47 C43 1.413 . S
H48 C53 0.930 . S
H49 C56 0.930 . S
H50 C58 0.930 . S
H51 C52 1.016 . S
C52 H51 1.016 . S
C52 N59 1.286 . S
C53 H48 0.930 . S
C53 C54 1.397 . S
C53 C55 1.361 . S
C54 C53 1.397 . S
C54 C58 1.390 . S
C55 C53 1.361 . S
C55 C56 1.393 . S
C55 N59 1.413 . S
C56 H49 0.930 . S
C56 C55 1.393 . S
C56 C57 1.399 . S
C57 C56 1.399 . S
C57 C58 1.381 . S
C58 H50 0.930 . S
C58 C54 1.390 . S
C58 C57 1.381 . S
N59 C52 1.286 . S
N59 C55 1.413 . S
H60 C65 0.930 . S
H61 C68 0.930 . S
H62 C70 0.930 . S
H63 C64 1.016 . S
C64 H63 1.016 . S
C64 N71 1.286 . S
C65 H60 0.930 . S
C65 C66 1.397 . S
C65 C67 1.361 . S
C66 C65 1.397 . S
C66 C70 1.390 . S
C67 C65 1.361 . S
C67 C68 1.393 . S
C67 N71 1.413 . S
C68 H61 0.930 . S
C68 C67 1.393 . S
C68 C69 1.399 . S
C69 C68 1.399 . S
C69 C70 1.381 . S
C70 H62 0.930 . S
C70 C66 1.390 . S
C70 C69 1.381 . S
N71 C64 1.286 . S
N71 C67 1.413 . S
H72 C77 0.930 . S
H73 C80 0.930 . S
H74 C82 0.930 . S
H75 C76 1.016 . S
C76 H75 1.016 . S
C76 N83 1.286 . S
C77 H72 0.930 . S
C77 C78 1.397 . S
C77 C79 1.361 . S
C78 C77 1.397 . S
C78 C82 1.390 . S
C79 C77 1.361 . S
C79 C80 1.393 . S
C79 N83 1.413 . S
C80 H73 0.930 . S
C80 C79 1.393 . S
C80 C81 1.399 . S
C81 C80 1.399 . S
C81 C82 1.381 . S
C82 H74 0.930 . S
C82 C78 1.390 . S
C82 C81 1.381 . S
N83 C76 1.286 . S
N83 C79 1.413 . S
H84 C89 0.930 . S
H85 C92 0.930 . S
H86 C94 0.930 . S
H87 C88 1.016 . S
C88 H87 1.016 . S
C88 N95 1.286 . S
C89 H84 0.930 . S
C89 C90 1.397 . S
C89 C91 1.361 . S
C90 C89 1.397 . S
C90 C94 1.390 . S
C91 C89 1.361 . S
C91 C92 1.393 . S
C91 N95 1.413 . S
C92 H85 0.930 . S
C92 C91 1.393 . S
C92 C93 1.399 . S
C93 C92 1.399 . S
C93 C94 1.381 . S
C94 H86 0.930 . S
C94 C90 1.390 . S
C94 C93 1.381 . S
N95 C88 1.286 . S
N95 C91 1.413 . S
Dy96 O99 2.307 1_545 S
Dy96 O101 2.395 . S
Dy96 O102 2.379 . S
Dy96 O104 2.339 1_545 S
Dy96 O106 2.318 . S
Dy96 O110 2.275 . S
Dy96 C118 2.738 . S
Dy97 O100 2.303 . S
Dy97 O103 2.275 . S
Dy97 O105 2.307 1_565 S
Dy97 O107 2.395 . S
Dy97 O108 2.379 . S
Dy97 O111 2.339 1_565 S
Dy97 C127 2.738 . S
C98 O110 1.254 . S
C98 O111 1.257 1_455 S
O99 Dy96 2.307 1_565 S
O99 C109 1.266 . S
O100 Dy97 2.303 . S
O100 C109 1.231 1_655 S
O101 Dy96 2.395 . S
O101 C118 1.255 . S
O102 Dy96 2.379 . S
O102 C118 1.249 . S
O103 Dy97 2.275 . S
O103 C119 1.254 . S
O104 Dy96 2.339 1_565 S
O104 C119 1.257 1_455 S
O105 Dy97 2.307 1_545 S
O105 C120 1.266 . S
O106 Dy96 2.318 . S
O106 C120 1.216 1_455 S
O107 Dy97 2.395 . S
O107 C127 1.255 . S
O108 Dy97 2.379 . S
O108 C127 1.249 . S
C109 O99 1.266 . S
C109 O100 1.231 1_455 S
O110 Dy96 2.275 . S
O110 C98 1.254 . S
O111 Dy97 2.339 1_545 S
O111 C98 1.257 1_655 S
C112 C115 1.344 . S
C112 C116 1.328 . S
C112 C118 1.516 . S
C113 C114 1.304 . S
C113 C117 1.323 . S
C114 C113 1.304 . S
C114 C115 1.371 . S
C114 H128 0.930 . S
C115 C112 1.344 . S
C115 C114 1.371 . S
C115 H129 0.931 . S
C116 C112 1.328 . S
C116 C117 1.433 . S
C116 H130 0.931 . S
C117 C113 1.323 . S
C117 C116 1.433 . S
C117 H131 0.933 . S
C118 Dy96 2.738 . S
C118 O101 1.255 . S
C118 O102 1.249 . S
C118 C112 1.516 . S
C119 O103 1.254 . S
C119 O104 1.257 1_655 S
C120 O105 1.266 . S
C120 O106 1.216 1_655 S
C121 C124 1.344 . S
C121 C125 1.328 . S
C121 C127 1.516 . S
C122 C123 1.304 . S
C122 C126 1.323 . S
C123 C122 1.304 . S
C123 C124 1.371 . S
C123 H132 0.930 . S
C124 C121 1.344 . S
C124 C123 1.371 . S
C124 H133 0.931 . S
C125 C121 1.328 . S
C125 C126 1.433 . S
C125 H134 0.931 . S
C126 C122 1.323 . S
C126 C125 1.433 . S
C126 H135 0.933 . S
C127 Dy97 2.738 . S
C127 O107 1.255 . S
C127 O108 1.249 . S
C127 C121 1.516 . S
H128 C114 0.930 . S
H129 C115 0.931 . S
H130 C116 0.931 . S
H131 C117 0.933 . S
H132 C123 0.930 . S
H133 C124 0.931 . S
H134 C125 0.931 . S
H135 C126 0.933 . S
Dy136 O139 2.307 1_556 S
Dy136 O141 2.395 1_545 S
Dy136 O142 2.379 1_545 S
Dy136 O144 2.339 . S
Dy136 O146 2.298 1_545 S
Dy136 O150 2.275 1_546 S
Dy136 C158 2.738 1_545 S
Dy137 O140 2.298 . S
Dy137 O143 2.275 1_554 S
Dy137 O145 2.307 1_544 S
Dy137 O147 2.395 . S
Dy137 O148 2.379 . S
Dy137 O151 2.339 1_545 S
Dy137 C167 2.738 . S
C138 O150 1.254 . S
C138 O151 1.257 . S
O139 Dy136 2.307 1_554 S
O139 C149 1.266 . S
O140 Dy137 2.298 . S
O140 C149 1.236 . S
O141 Dy136 2.395 1_565 S
O141 C158 1.255 . S
O142 Dy136 2.379 1_565 S
O142 C158 1.249 . S
O143 Dy137 2.275 1_556 S
O143 C159 1.254 . S
O144 Dy136 2.339 . S
O144 C159 1.257 . S
O145 Dy137 2.307 1_566 S
O145 C160 1.266 . S
O146 Dy136 2.298 1_565 S
O146 C160 1.236 . S
O147 Dy137 2.395 . S
O147 C167 1.255 . S
O148 Dy137 2.379 . S
O148 C167 1.249 . S
C149 O139 1.266 . S
C149 O140 1.236 . S
O150 Dy136 2.275 1_564 S
O150 C138 1.254 . S
O151 Dy137 2.339 1_565 S
O151 C138 1.257 . S
C152 C155 1.344 . S
C152 C156 1.328 . S
C152 C158 1.516 . S
C153 C154 1.304 . S
C153 C157 1.323 . S
C154 C153 1.304 . S
C154 C155 1.371 . S
C154 H168 0.930 . S
C155 C152 1.344 . S
C155 C154 1.371 . S
C155 H169 0.931 . S
C156 C152 1.328 . S
C156 C157 1.433 . S
C156 H170 0.931 . S
C157 C153 1.323 . S
C157 C156 1.433 . S
C157 H171 0.933 . S
C158 Dy136 2.738 1_565 S
C158 O141 1.255 . S
C158 O142 1.249 . S
C158 C152 1.516 . S
C159 O143 1.254 . S
C159 O144 1.257 . S
C160 O145 1.266 . S
C160 O146 1.236 . S
C161 C164 1.344 . S
C161 C165 1.328 . S
C161 C167 1.516 . S
C162 C163 1.304 . S
C162 C166 1.323 . S
C163 C162 1.304 . S
C163 C164 1.371 . S
C163 H172 0.930 . S
C164 C161 1.344 . S
C164 C163 1.371 . S
C164 H173 0.931 . S
C165 C161 1.328 . S
C165 C166 1.433 . S
C165 H174 0.931 . S
C166 C162 1.323 . S
C166 C165 1.433 . S
C166 H175 0.933 . S
C167 Dy137 2.738 . S
C167 O147 1.255 . S
C167 O148 1.249 . S
C167 C161 1.516 . S
H168 C154 0.930 . S
H169 C155 0.931 . S
H170 C156 0.931 . S
H171 C157 0.933 . S
H172 C163 0.930 . S
H173 C164 0.931 . S
H174 C165 0.931 . S
H175 C166 0.933 . S
Dy176 O179 2.307 . S
Dy176 O181 2.395 . S
Dy176 O182 2.379 . S
Dy176 O184 2.339 . S
Dy176 O186 2.298 . S
Dy176 O190 2.275 . S
Dy176 C198 2.738 . S
Dy177 O180 2.298 . S
Dy177 O183 2.275 . S
Dy177 O185 2.307 . S
Dy177 O187 2.395 . S
Dy177 O188 2.379 . S
Dy177 O191 2.339 . S
Dy177 C207 2.738 . S
C178 O190 1.254 . S
C178 O191 1.257 . S
O179 Dy176 2.307 . S
O179 C189 1.266 . S
O180 Dy177 2.298 . S
O180 C189 1.236 . S
O181 Dy176 2.395 . S
O181 C198 1.255 . S
O182 Dy176 2.379 . S
O182 C198 1.249 . S
O183 Dy177 2.275 . S
O183 C199 1.254 . S
O184 Dy176 2.339 . S
O184 C199 1.257 . S
O185 Dy177 2.307 . S
O185 C200 1.266 . S
O186 Dy176 2.298 . S
O186 C200 1.236 . S
O187 Dy177 2.395 . S
O187 C207 1.255 . S
O188 Dy177 2.379 . S
O188 C207 1.249 . S
C189 O179 1.266 . S
C189 O180 1.236 . S
O190 Dy176 2.275 . S
O190 C178 1.254 . S
O191 Dy177 2.339 . S
O191 C178 1.257 . S
C192 C195 1.344 . S
C192 C196 1.328 . S
C192 C198 1.516 . S
C193 C194 1.304 . S
C193 C197 1.323 . S
C194 C193 1.304 . S
C194 C195 1.371 . S
C194 H208 0.930 . S
C195 C192 1.344 . S
C195 C194 1.371 . S
C195 H209 0.931 . S
C196 C192 1.328 . S
C196 C197 1.433 . S
C196 H210 0.931 . S
C197 C193 1.323 . S
C197 C196 1.433 . S
C197 H211 0.933 . S
C198 Dy176 2.738 . S
C198 O181 1.255 . S
C198 O182 1.249 . S
C198 C192 1.516 . S
C199 O183 1.254 . S
C199 O184 1.257 . S
C200 O185 1.266 . S
C200 O186 1.236 . S
C201 C204 1.344 . S
C201 C205 1.328 . S
C201 C207 1.516 . S
C202 C203 1.304 . S
C202 C206 1.323 . S
C203 C202 1.304 . S
C203 C204 1.371 . S
C203 H212 0.930 . S
C204 C201 1.344 . S
C204 C203 1.371 . S
C204 H213 0.931 . S
C205 C201 1.328 . S
C205 C206 1.433 . S
C205 H214 0.931 . S
C206 C202 1.323 . S
C206 C205 1.433 . S
C206 H215 0.933 . S
C207 Dy177 2.738 . S
C207 O187 1.255 . S
C207 O188 1.249 . S
C207 C201 1.516 . S
H208 C194 0.930 . S
H209 C195 0.931 . S
H210 C196 0.931 . S
H211 C197 0.933 . S
H212 C203 0.930 . S
H213 C204 0.931 . S
H214 C205 0.931 . S
H215 C206 0.933 . S
Dy216 O219 2.307 1_556 S
Dy216 O221 2.395 1_455 S
Dy216 O222 2.379 1_455 S
Dy216 O224 2.339 . S
Dy216 O226 2.298 1_455 S
Dy216 O230 2.275 1_456 S
Dy216 C238 2.738 1_455 S
Dy217 O220 2.298 . S
Dy217 O223 2.275 1_554 S
Dy217 O225 2.307 1_455 S
Dy217 O227 2.395 . S
Dy217 O228 2.379 . S
Dy217 O231 2.339 1_455 S
Dy217 C247 2.738 . S
C218 O230 1.254 . S
C218 O231 1.257 . S
O219 Dy216 2.307 1_554 S
O219 C229 1.266 . S
O220 Dy217 2.298 . S
O220 C229 1.236 . S
O221 Dy216 2.395 1_655 S
O221 C238 1.255 . S
O222 Dy216 2.379 1_655 S
O222 C238 1.249 . S
O223 Dy217 2.275 1_556 S
O223 C239 1.254 . S
O224 Dy216 2.339 . S
O224 C239 1.257 . S
O225 Dy217 2.307 1_655 S
O225 C240 1.266 1_554 S
O226 Dy216 2.298 1_655 S
O226 C240 1.236 . S
O227 Dy217 2.395 . S
O227 C247 1.255 . S
O228 Dy217 2.379 . S
O228 C247 1.249 . S
C229 O219 1.266 . S
C229 O220 1.236 . S
O230 Dy216 2.275 1_654 S
O230 C218 1.254 . S
O231 Dy217 2.339 1_655 S
O231 C218 1.257 . S
C232 C235 1.344 . S
C232 C236 1.328 . S
C232 C238 1.516 . S
C233 C234 1.304 . S
C233 C237 1.323 . S
C234 C233 1.304 . S
C234 C235 1.371 . S
C234 H248 0.930 . S
C235 C232 1.344 . S
C235 C234 1.371 . S
C235 H249 0.931 . S
C236 C232 1.328 . S
C236 C237 1.433 . S
C236 H250 0.931 . S
C237 C233 1.323 . S
C237 C236 1.433 . S
C237 H251 0.933 . S
C238 Dy216 2.738 1_655 S
C238 O221 1.255 . S
C238 O222 1.249 . S
C238 C232 1.516 . S
C239 O223 1.254 . S
C239 O224 1.257 . S
C240 O225 1.266 1_556 S
C240 O226 1.236 . S
C241 C244 1.344 . S
C241 C245 1.328 . S
C241 C247 1.516 . S
C242 C243 1.304 . S
C242 C246 1.323 . S
C243 C242 1.304 . S
C243 C244 1.371 . S
C243 H252 0.930 . S
C244 C241 1.344 . S
C244 C243 1.371 . S
C244 H253 0.931 . S
C245 C241 1.328 . S
C245 C246 1.433 . S
C245 H254 0.931 . S
C246 C242 1.323 . S
C246 C245 1.433 . S
C246 H255 0.933 . S
C247 Dy217 2.738 . S
C247 O227 1.255 . S
C247 O228 1.249 . S
C247 C241 1.516 . S
H248 C234 0.930 . S
H249 C235 0.931 . S
H250 C236 0.931 . S
H251 C237 0.933 . S
H252 C243 0.930 . S
H253 C244 0.931 . S
H254 C245 0.931 . S
H255 C246 0.933 . S
H256 C262 0.930 . S
H257 C266 0.930 . S
H258 C271 0.929 . S
H259 C269 0.929 . S
H260 C264 0.929 . S
H261 C270 0.929 . S
C262 H256 0.930 . S
C262 C263 1.367 . S
C262 C270 1.378 . S
C263 C262 1.367 . S
C263 C271 1.433 . S
C264 H260 0.929 . S
C264 C266 1.378 . S
C264 C268 1.350 . S
C265 C268 1.463 . S
C265 C270 1.350 . S
C265 N273 1.427 . S
C266 H257 0.930 . S
C266 C264 1.378 . S
C266 C267 1.367 . S
C267 C266 1.367 . S
C267 C269 1.433 . S
C268 C264 1.350 . S
C268 C265 1.463 . S
C268 N272 1.427 . S
C269 H259 0.929 . S
C269 C267 1.433 . S
C269 N272 1.384 . S
C270 H261 0.929 . S
C270 C262 1.378 . S
C270 C265 1.350 . S
C271 H258 0.929 . S
C271 C263 1.433 . S
C271 N273 1.384 . S
N272 C268 1.427 . S
N272 C269 1.384 . S
N273 C265 1.427 . S
N273 C271 1.384 . S
H274 C280 0.930 . S
H275 C284 0.930 . S
H276 C289 0.929 . S
H277 C287 0.929 . S
H278 C282 0.929 . S
H279 C288 0.929 . S
C280 H274 0.930 . S
C280 C281 1.367 . S
C280 C288 1.378 . S
C281 C280 1.367 . S
C281 C289 1.433 . S
C282 H278 0.929 . S
C282 C284 1.378 . S
C282 C286 1.350 . S
C283 C286 1.463 . S
C283 C288 1.350 . S
C283 N291 1.427 . S
C284 H275 0.930 . S
C284 C282 1.378 . S
C284 C285 1.367 . S
C285 C284 1.367 . S
C285 C287 1.433 . S
C286 C282 1.350 . S
C286 C283 1.463 . S
C286 N290 1.427 . S
C287 H277 0.929 . S
C287 C285 1.433 . S
C287 N290 1.384 . S
C288 H279 0.929 . S
C288 C280 1.378 . S
C288 C283 1.350 . S
C289 H276 0.929 . S
C289 C281 1.433 . S
C289 N291 1.384 . S
N290 C286 1.427 . S
N290 C287 1.384 . S
N291 C283 1.427 . S
N291 C289 1.384 . S
H292 C298 0.930 . S
H293 C302 0.930 . S
H294 C307 0.929 . S
H295 C305 0.929 . S
H296 C300 0.929 . S
H297 C306 0.929 . S
C298 H292 0.930 . S
C298 C299 1.367 . S
C298 C306 1.378 . S
C299 C298 1.367 . S
C299 C307 1.433 . S
C300 H296 0.929 . S
C300 C302 1.378 . S
C300 C304 1.350 . S
C301 C304 1.463 . S
C301 C306 1.350 . S
C301 N309 1.427 . S
C302 H293 0.930 . S
C302 C300 1.378 . S
C302 C303 1.367 . S
C303 C302 1.367 . S
C303 C305 1.433 . S
C304 C300 1.350 . S
C304 C301 1.463 . S
C304 N308 1.427 . S
C305 H295 0.929 . S
C305 C303 1.433 . S
C305 N308 1.384 . S
C306 H297 0.929 . S
C306 C298 1.378 . S
C306 C301 1.350 . S
C307 H294 0.929 . S
C307 C299 1.433 . S
C307 N309 1.384 . S
N308 C304 1.427 . S
N308 C305 1.384 . S
N309 C301 1.427 . S
N309 C307 1.384 . S
H310 C316 0.930 . S
H311 C320 0.930 . S
H312 C325 0.929 . S
H313 C323 0.929 . S
H314 C318 0.929 . S
H315 C324 0.929 . S
C316 H310 0.930 . S
C316 C317 1.367 . S
C316 C324 1.378 . S
C317 C316 1.367 . S
C317 C325 1.433 . S
C318 H314 0.929 . S
C318 C320 1.378 . S
C318 C322 1.350 . S
C319 C322 1.463 . S
C319 C324 1.350 . S
C319 N327 1.427 . S
C320 H311 0.930 . S
C320 C318 1.378 . S
C320 C321 1.367 . S
C321 C320 1.367 . S
C321 C323 1.433 . S
C322 C318 1.350 . S
C322 C319 1.463 . S
C322 N326 1.427 . S
C323 H313 0.929 . S
C323 C321 1.433 . S
C323 N326 1.384 . S
C324 H315 0.929 . S
C324 C316 1.378 . S
C324 C319 1.350 . S
C325 H312 0.929 . S
C325 C317 1.433 . S
C325 N327 1.384 . S
N326 C322 1.427 . S
N326 C323 1.384 . S
N327 C319 1.427 . S
N327 C325 1.384 . S
H328 C334 0.930 . S
H329 C338 0.930 . S
H330 C343 0.929 . S
H331 C341 0.929 . S
H332 C336 0.929 . S
H333 C342 0.929 . S
C334 H328 0.930 . S
C334 C335 1.367 . S
C334 C342 1.378 . S
C335 C334 1.367 . S
C335 C343 1.433 . S
C336 H332 0.929 . S
C336 C338 1.378 . S
C336 C340 1.350 . S
C337 C340 1.463 . S
C337 C342 1.350 . S
C337 N345 1.427 . S
C338 H329 0.930 . S
C338 C336 1.378 . S
C338 C339 1.367 . S
C339 C338 1.367 . S
C339 C341 1.433 . S
C340 C336 1.350 . S
C340 C337 1.463 . S
C340 N344 1.427 . S
C341 H331 0.929 . S
C341 C339 1.433 . S
C341 N344 1.384 . S
C342 H333 0.929 . S
C342 C334 1.378 . S
C342 C337 1.350 . S
C343 H330 0.929 . S
C343 C335 1.433 . S
C343 N345 1.384 . S
N344 C340 1.427 . S
N344 C341 1.384 . S
N345 C337 1.427 . S
N345 C343 1.384 . S
H346 C352 0.930 . S
H347 C356 0.930 . S
H348 C361 0.929 . S
H349 C359 0.929 . S
H350 C354 0.929 . S
H351 C360 0.929 . S
C352 H346 0.930 . S
C352 C353 1.367 . S
C352 C360 1.378 . S
C353 C352 1.367 . S
C353 C361 1.433 . S
C354 H350 0.929 . S
C354 C356 1.378 . S
C354 C358 1.350 . S
C355 C358 1.463 . S
C355 C360 1.350 . S
C355 N363 1.427 . S
C356 H347 0.930 . S
C356 C354 1.378 . S
C356 C357 1.367 . S
C357 C356 1.367 . S
C357 C359 1.433 . S
C358 C354 1.350 . S
C358 C355 1.463 . S
C358 N362 1.427 . S
C359 H349 0.929 . S
C359 C357 1.433 . S
C359 N362 1.384 . S
C360 H351 0.929 . S
C360 C352 1.378 . S
C360 C355 1.350 . S
C361 H348 0.929 . S
C361 C353 1.433 . S
C361 N363 1.384 . S
N362 C358 1.427 . S
N362 C359 1.384 . S
N363 C355 1.427 . S
N363 C361 1.384 . S
H364 C370 0.930 . S
H365 C374 0.930 . S
H366 C379 0.929 . S
H367 C377 0.929 . S
H368 C372 0.929 . S
H369 C378 0.929 . S
C370 H364 0.930 . S
C370 C371 1.367 . S
C370 C378 1.378 . S
C371 C370 1.367 . S
C371 C379 1.433 . S
C372 H368 0.929 . S
C372 C374 1.378 . S
C372 C376 1.350 . S
C373 C376 1.463 . S
C373 C378 1.350 . S
C373 N381 1.427 . S
C374 H365 0.930 . S
C374 C372 1.378 . S
C374 C375 1.367 . S
C375 C374 1.367 . S
C375 C377 1.433 . S
C376 C372 1.350 . S
C376 C373 1.463 . S
C376 N380 1.427 . S
C377 H367 0.929 . S
C377 C375 1.433 . S
C377 N380 1.384 . S
C378 H369 0.929 . S
C378 C370 1.378 . S
C378 C373 1.350 . S
C379 H366 0.929 . S
C379 C371 1.433 . S
C379 N381 1.384 . S
N380 C376 1.427 . S
N380 C377 1.384 . S
N381 C373 1.427 . S
N381 C379 1.384 . S
H382 C388 0.930 . S
H383 C392 0.930 . S
H384 C397 0.929 . S
H385 C395 0.929 . S
H386 C390 0.929 . S
H387 C396 0.929 . S
C388 H382 0.930 . S
C388 C389 1.367 . S
C388 C396 1.378 . S
C389 C388 1.367 . S
C389 C397 1.433 . S
C390 H386 0.929 . S
C390 C392 1.378 . S
C390 C394 1.350 . S
C391 C394 1.463 . S
C391 C396 1.350 . S
C391 N399 1.427 . S
C392 H383 0.930 . S
C392 C390 1.378 . S
C392 C393 1.367 . S
C393 C392 1.367 . S
C393 C395 1.433 . S
C394 C390 1.350 . S
C394 C391 1.463 . S
C394 N398 1.427 . S
C395 H385 0.929 . S
C395 C393 1.433 . S
C395 N398 1.384 . S
C396 H387 0.929 . S
C396 C388 1.378 . S
C396 C391 1.350 . S
C397 H384 0.929 . S
C397 C389 1.433 . S
C397 N399 1.384 . S
N398 C394 1.427 . S
N398 C395 1.384 . S
N399 C391 1.427 . S
N399 C397 1.384 . S
H400 C406 0.930 . S
H401 C410 0.930 . S
H402 C415 0.929 . S
H403 C413 0.929 . S
H404 C408 0.929 . S
H405 C414 0.929 . S
C406 H400 0.930 . S
C406 C407 1.367 . S
C406 C414 1.378 . S
C407 C406 1.367 . S
C407 C415 1.433 . S
C408 H404 0.929 . S
C408 C410 1.378 . S
C408 C412 1.350 . S
C409 C412 1.463 . S
C409 C414 1.350 . S
C409 N417 1.427 . S
C410 H401 0.930 . S
C410 C408 1.378 . S
C410 C411 1.367 . S
C411 C410 1.367 . S
C411 C413 1.433 . S
C412 C408 1.350 . S
C412 C409 1.463 . S
C412 N416 1.427 . S
C413 H403 0.929 . S
C413 C411 1.433 . S
C413 N416 1.384 . S
C414 H405 0.929 . S
C414 C406 1.378 . S
C414 C409 1.350 . S
C415 H402 0.929 . S
C415 C407 1.433 . S
C415 N417 1.384 . S
N416 C412 1.427 . S
N416 C413 1.384 . S
N417 C409 1.427 . S
N417 C415 1.384 . S
H418 C424 0.930 . S
H419 C428 0.930 . S
H420 C433 0.929 . S
H421 C431 0.929 . S
H422 C426 0.929 . S
H423 C432 0.929 . S
C424 H418 0.930 . S
C424 C425 1.367 . S
C424 C432 1.378 . S
C425 C424 1.367 . S
C425 C433 1.433 . S
C426 H422 0.929 . S
C426 C428 1.378 . S
C426 C430 1.350 . S
C427 C430 1.463 . S
C427 C432 1.350 . S
C427 N435 1.427 . S
C428 H419 0.930 . S
C428 C426 1.378 . S
C428 C429 1.367 . S
C429 C428 1.367 . S
C429 C431 1.433 . S
C430 C426 1.350 . S
C430 C427 1.463 . S
C430 N434 1.427 . S
C431 H421 0.929 . S
C431 C429 1.433 . S
C431 N434 1.384 . S
C432 H423 0.929 . S
C432 C424 1.378 . S
C432 C427 1.350 . S
C433 H420 0.929 . S
C433 C425 1.433 . S
C433 N435 1.384 . S
N434 C430 1.427 . S
N434 C431 1.384 . S
N435 C427 1.427 . S
N435 C433 1.384 . S
H436 C442 0.930 . S
H437 C446 0.930 . S
H438 C451 0.929 . S
H439 C449 0.929 . S
H440 C444 0.929 . S
H441 C450 0.929 . S
C442 H436 0.930 . S
C442 C443 1.367 . S
C442 C450 1.378 . S
C443 C442 1.367 . S
C443 C451 1.433 . S
C444 H440 0.929 . S
C444 C446 1.378 . S
C444 C448 1.350 . S
C445 C448 1.463 . S
C445 C450 1.350 . S
C445 N453 1.427 . S
C446 H437 0.930 . S
C446 C444 1.378 . S
C446 C447 1.367 . S
C447 C446 1.367 . S
C447 C449 1.433 . S
C448 C444 1.350 . S
C448 C445 1.463 . S
C448 N452 1.427 . S
C449 H439 0.929 . S
C449 C447 1.433 . S
C449 N452 1.384 . S
C450 H441 0.929 . S
C450 C442 1.378 . S
C450 C445 1.350 . S
C451 H438 0.929 . S
C451 C443 1.433 . S
C451 N453 1.384 . S
N452 C448 1.427 . S
N452 C449 1.384 . S
N453 C445 1.427 . S
N453 C451 1.384 . S
H454 C460 0.930 . S
H455 C464 0.930 . S
H456 C469 0.929 . S
H457 C467 0.929 . S
H458 C462 0.929 . S
H459 C468 0.929 . S
C460 H454 0.930 . S
C460 C461 1.367 . S
C460 C468 1.378 . S
C461 C460 1.367 . S
C461 C469 1.433 . S
C462 H458 0.929 . S
C462 C464 1.378 . S
C462 C466 1.350 . S
C463 C466 1.463 . S
C463 C468 1.350 . S
C463 N471 1.427 . S
C464 H455 0.930 . S
C464 C462 1.378 . S
C464 C465 1.367 . S
C465 C464 1.367 . S
C465 C467 1.433 . S
C466 C462 1.350 . S
C466 C463 1.463 . S
C466 N470 1.427 . S
C467 H457 0.929 . S
C467 C465 1.433 . S
C467 N470 1.384 . S
C468 H459 0.929 . S
C468 C460 1.378 . S
C468 C463 1.350 . S
C469 H456 0.929 . S
C469 C461 1.433 . S
C469 N471 1.384 . S
N470 C466 1.427 . S
N470 C467 1.384 . S
N471 C463 1.427 . S
N471 C469 1.384 . S
H472 C478 0.930 . S
H473 C482 0.930 . S
H474 C487 0.929 . S
H475 C485 0.929 . S
H476 C480 0.929 . S
H477 C486 0.929 . S
C478 H472 0.930 . S
C478 C479 1.367 . S
C478 C486 1.378 . S
C479 C478 1.367 . S
C479 C487 1.433 . S
C480 H476 0.929 . S
C480 C482 1.378 . S
C480 C484 1.350 . S
C481 C484 1.463 . S
C481 C486 1.350 . S
C481 N489 1.427 . S
C482 H473 0.930 . S
C482 C480 1.378 . S
C482 C483 1.367 . S
C483 C482 1.367 . S
C483 C485 1.433 . S
C484 C480 1.350 . S
C484 C481 1.463 . S
C484 N488 1.427 . S
C485 H475 0.929 . S
C485 C483 1.433 . S
C485 N488 1.384 . S
C486 H477 0.929 . S
C486 C478 1.378 . S
C486 C481 1.350 . S
C487 H474 0.929 . S
C487 C479 1.433 . S
C487 N489 1.384 . S
N488 C484 1.427 . S
N488 C485 1.384 . S
N489 C481 1.427 . S
N489 C487 1.384 . S
H490 C496 0.930 . S
H491 C500 0.930 . S
H492 C505 0.929 . S
H493 C503 0.929 . S
H494 C498 0.929 . S
H495 C504 0.929 . S
C496 H490 0.930 . S
C496 C497 1.367 . S
C496 C504 1.378 . S
C497 C496 1.367 . S
C497 C505 1.433 . S
C498 H494 0.929 . S
C498 C500 1.378 . S
C498 C502 1.350 . S
C499 C502 1.463 . S
C499 C504 1.350 . S
C499 N507 1.427 . S
C500 H491 0.930 . S
C500 C498 1.378 . S
C500 C501 1.367 . S
C501 C500 1.367 . S
C501 C503 1.433 . S
C502 C498 1.350 . S
C502 C499 1.463 . S
C502 N506 1.427 . S
C503 H493 0.929 . S
C503 C501 1.433 . S
C503 N506 1.384 . S
C504 H495 0.929 . S
C504 C496 1.378 . S
C504 C499 1.350 . S
C505 H492 0.929 . S
C505 C497 1.433 . S
C505 N507 1.384 . S
N506 C502 1.427 . S
N506 C503 1.384 . S
N507 C499 1.427 . S
N507 C505 1.384 . S
H508 C514 0.930 . S
H509 C518 0.930 . S
H510 C523 0.929 . S
H511 C521 0.929 . S
H512 C516 0.929 . S
H513 C522 0.929 . S
C514 H508 0.930 . S
C514 C515 1.367 . S
C514 C522 1.378 . S
C515 C514 1.367 . S
C515 C523 1.433 . S
C516 H512 0.929 . S
C516 C518 1.378 . S
C516 C520 1.350 . S
C517 C520 1.463 . S
C517 C522 1.350 . S
C517 N525 1.427 . S
C518 H509 0.930 . S
C518 C516 1.378 . S
C518 C519 1.367 . S
C519 C518 1.367 . S
C519 C521 1.433 . S
C520 C516 1.350 . S
C520 C517 1.463 . S
C520 N524 1.427 . S
C521 H511 0.929 . S
C521 C519 1.433 . S
C521 N524 1.384 . S
C522 H513 0.929 . S
C522 C514 1.378 . S
C522 C517 1.350 . S
C523 H510 0.929 . S
C523 C515 1.433 . S
C523 N525 1.384 . S
N524 C520 1.427 . S
N524 C521 1.384 . S
N525 C517 1.427 . S
N525 C523 1.384 . S
H526 C532 0.930 . S
H527 C536 0.930 . S
H528 C541 0.929 . S
H529 C539 0.929 . S
H530 C534 0.929 . S
H531 C540 0.929 . S
C532 H526 0.930 . S
C532 C533 1.367 . S
C532 C540 1.378 . S
C533 C532 1.367 . S
C533 C541 1.433 . S
C534 H530 0.929 . S
C534 C536 1.378 . S
C534 C538 1.350 . S
C535 C538 1.463 . S
C535 C540 1.350 . S
C535 N543 1.427 . S
C536 H527 0.930 . S
C536 C534 1.378 . S
C536 C537 1.367 . S
C537 C536 1.367 . S
C537 C539 1.433 . S
C538 C534 1.350 . S
C538 C535 1.463 . S
C538 N542 1.427 . S
C539 H529 0.929 . S
C539 C537 1.433 . S
C539 N542 1.384 . S
C540 H531 0.929 . S
C540 C532 1.378 . S
C540 C535 1.350 . S
C541 H528 0.929 . S
C541 C533 1.433 . S
C541 N543 1.384 . S
N542 C538 1.427 . S
N542 C539 1.384 . S
N543 C535 1.427 . S
N543 C541 1.384 . S
H544 C550 0.930 . S
H545 C554 0.930 . S
H546 C559 0.929 . S
H547 C557 0.929 . S
H548 C552 0.929 . S
H549 C558 0.929 . S
C550 H544 0.930 . S
C550 C551 1.367 . S
C550 C558 1.378 . S
C551 C550 1.367 . S
C551 C559 1.433 . S
C552 H548 0.929 . S
C552 C554 1.378 . S
C552 C556 1.350 . S
C553 C556 1.463 . S
C553 C558 1.350 . S
C553 N561 1.427 . S
C554 H545 0.930 . S
C554 C552 1.378 . S
C554 C555 1.367 . S
C555 C554 1.367 . S
C555 C557 1.433 . S
C556 C552 1.350 . S
C556 C553 1.463 . S
C556 N560 1.427 . S
C557 H547 0.929 . S
C557 C555 1.433 . S
C557 N560 1.384 . S
C558 H549 0.929 . S
C558 C550 1.378 . S
C558 C553 1.350 . S
C559 H546 0.929 . S
C559 C551 1.433 . S
C559 N561 1.384 . S
N560 C556 1.427 . S
N560 C557 1.384 . S
N561 C553 1.427 . S
N561 C559 1.384 . S
H562 C568 0.930 . S
H563 C572 0.930 . S
H564 C577 0.929 . S
H565 C575 0.929 . S
H566 C570 0.929 . S
H567 C576 0.929 . S
C568 H562 0.930 . S
C568 C569 1.367 . S
C568 C576 1.378 . S
C569 C568 1.367 . S
C569 C577 1.433 . S
C570 H566 0.929 . S
C570 C572 1.378 . S
C570 C574 1.350 . S
C571 C574 1.463 . S
C571 C576 1.350 . S
C571 N579 1.427 . S
C572 H563 0.930 . S
C572 C570 1.378 . S
C572 C573 1.367 . S
C573 C572 1.367 . S
C573 C575 1.433 . S
C574 C570 1.350 . S
C574 C571 1.463 . S
C574 N578 1.427 . S
C575 H565 0.929 . S
C575 C573 1.433 . S
C575 N578 1.384 . S
C576 H567 0.929 . S
C576 C568 1.378 . S
C576 C571 1.350 . S
C577 H564 0.929 . S
C577 C569 1.433 . S
C577 N579 1.384 . S
N578 C574 1.427 . S
N578 C575 1.384 . S
N579 C571 1.427 . S
N579 C577 1.384 . S
H580 C586 0.930 . S
H581 C590 0.930 . S
H582 C595 0.929 . S
H583 C593 0.929 . S
H584 C588 0.929 . S
H585 C594 0.929 . S
C586 H580 0.930 . S
C586 C587 1.367 . S
C586 C594 1.378 . S
C587 C586 1.367 . S
C587 C595 1.433 . S
C588 H584 0.929 . S
C588 C590 1.378 . S
C588 C592 1.350 . S
C589 C592 1.463 . S
C589 C594 1.350 . S
C589 N597 1.427 . S
C590 H581 0.930 . S
C590 C588 1.378 . S
C590 C591 1.367 . S
C591 C590 1.367 . S
C591 C593 1.433 . S
C592 C588 1.350 . S
C592 C589 1.463 . S
C592 N596 1.427 . S
C593 H583 0.929 . S
C593 C591 1.433 . S
C593 N596 1.384 . S
C594 H585 0.929 . S
C594 C586 1.378 . S
C594 C589 1.350 . S
C595 H582 0.929 . S
C595 C587 1.433 . S
C595 N597 1.384 . S
N596 C592 1.427 . S
N596 C593 1.384 . S
N597 C589 1.427 . S
N597 C595 1.384 . S
H598 C604 0.930 . S
H599 C608 0.930 . S
H600 C613 0.929 . S
H601 C611 0.929 . S
H602 C606 0.929 . S
H603 C612 0.929 . S
C604 H598 0.930 . S
C604 C605 1.367 . S
C604 C612 1.378 . S
C605 C604 1.367 . S
C605 C613 1.433 . S
C606 H602 0.929 . S
C606 C608 1.378 . S
C606 C610 1.350 . S
C607 C610 1.463 . S
C607 C612 1.350 . S
C607 N615 1.427 . S
C608 H599 0.930 . S
C608 C606 1.378 . S
C608 C609 1.367 . S
C609 C608 1.367 . S
C609 C611 1.433 . S
C610 C606 1.350 . S
C610 C607 1.463 . S
C610 N614 1.427 . S
C611 H601 0.929 . S
C611 C609 1.433 . S
C611 N614 1.384 . S
C612 H603 0.929 . S
C612 C604 1.378 . S
C612 C607 1.350 . S
C613 H600 0.929 . S
C613 C605 1.433 . S
C613 N615 1.384 . S
N614 C610 1.427 . S
N614 C611 1.384 . S
N615 C607 1.427 . S
N615 C613 1.384 . S
H616 C622 0.930 . S
H617 C626 0.930 . S
H618 C631 0.929 . S
H619 C629 0.929 . S
H620 C624 0.929 . S
H621 C630 0.929 . S
C622 H616 0.930 . S
C622 C623 1.367 . S
C622 C630 1.378 . S
C623 C622 1.367 . S
C623 C631 1.433 . S
C624 H620 0.929 . S
C624 C626 1.378 . S
C624 C628 1.350 . S
C625 C628 1.463 . S
C625 C630 1.350 . S
C625 N633 1.427 . S
C626 H617 0.930 . S
C626 C624 1.378 . S
C626 C627 1.367 . S
C627 C626 1.367 . S
C627 C629 1.433 . S
C628 C624 1.350 . S
C628 C625 1.463 . S
C628 N632 1.427 . S
C629 H619 0.929 . S
C629 C627 1.433 . S
C629 N632 1.384 . S
C630 H621 0.929 . S
C630 C622 1.378 . S
C630 C625 1.350 . S
C631 H618 0.929 . S
C631 C623 1.433 . S
C631 N633 1.384 . S
N632 C628 1.427 . S
N632 C629 1.384 . S
N633 C625 1.427 . S
N633 C631 1.384 . S
H634 C640 0.930 . S
H635 C644 0.930 . S
H636 C649 0.929 . S
H637 C647 0.929 . S
H638 C642 0.929 . S
H639 C648 0.929 . S
C640 H634 0.930 . S
C640 C641 1.367 . S
C640 C648 1.378 . S
C641 C640 1.367 . S
C641 C649 1.433 . S
C642 H638 0.929 . S
C642 C644 1.378 . S
C642 C646 1.350 . S
C643 C646 1.463 . S
C643 C648 1.350 . S
C643 N651 1.427 . S
C644 H635 0.930 . S
C644 C642 1.378 . S
C644 C645 1.367 . S
C645 C644 1.367 . S
C645 C647 1.433 . S
C646 C642 1.350 . S
C646 C643 1.463 . S
C646 N650 1.427 . S
C647 H637 0.929 . S
C647 C645 1.433 . S
C647 N650 1.384 . S
C648 H639 0.929 . S
C648 C640 1.378 . S
C648 C643 1.350 . S
C649 H636 0.929 . S
C649 C641 1.433 . S
C649 N651 1.384 . S
N650 C646 1.427 . S
N650 C647 1.384 . S
N651 C643 1.427 . S
N651 C649 1.384 . S
H652 C658 0.930 . S
H653 C662 0.930 . S
H654 C667 0.929 . S
H655 C665 0.929 . S
H656 C660 0.929 . S
H657 C666 0.929 . S
C658 H652 0.930 . S
C658 C659 1.367 . S
C658 C666 1.378 . S
C659 C658 1.367 . S
C659 C667 1.433 . S
C660 H656 0.929 . S
C660 C662 1.378 . S
C660 C664 1.350 . S
C661 C664 1.463 . S
C661 C666 1.350 . S
C661 N669 1.427 . S
C662 H653 0.930 . S
C662 C660 1.378 . S
C662 C663 1.367 . S
C663 C662 1.367 . S
C663 C665 1.433 . S
C664 C660 1.350 . S
C664 C661 1.463 . S
C664 N668 1.427 . S
C665 H655 0.929 . S
C665 C663 1.433 . S
C665 N668 1.384 . S
C666 H657 0.929 . S
C666 C658 1.378 . S
C666 C661 1.350 . S
C667 H654 0.929 . S
C667 C659 1.433 . S
C667 N669 1.384 . S
N668 C664 1.427 . S
N668 C665 1.384 . S
N669 C661 1.427 . S
N669 C667 1.384 . S
H670 C676 0.930 . S
H671 C680 0.930 . S
H672 C685 0.929 . S
H673 C683 0.929 . S
H674 C678 0.929 . S
H675 C684 0.929 . S
C676 H670 0.930 . S
C676 C677 1.367 . S
C676 C684 1.378 . S
C677 C676 1.367 . S
C677 C685 1.433 . S
C678 H674 0.929 . S
C678 C680 1.378 . S
C678 C682 1.350 . S
C679 C682 1.463 . S
C679 C684 1.350 . S
C679 N687 1.427 . S
C680 H671 0.930 . S
C680 C678 1.378 . S
C680 C681 1.367 . S
C681 C680 1.367 . S
C681 C683 1.433 . S
C682 C678 1.350 . S
C682 C679 1.463 . S
C682 N686 1.427 . S
C683 H673 0.929 . S
C683 C681 1.433 . S
C683 N686 1.384 . S
C684 H675 0.929 . S
C684 C676 1.378 . S
C684 C679 1.350 . S
C685 H672 0.929 . S
C685 C677 1.433 . S
C685 N687 1.384 . S
N686 C682 1.427 . S
N686 C683 1.384 . S
N687 C679 1.427 . S
N687 C685 1.384 . S
C263 C6 1.046 . S
C267 C113 1.078 . S
C281 C18 1.269 . S
C285 C153 1.284 . S
C303 C178 2.533 . S
C299 C28 2.577 . S
C317 C40 1.831 . S
C321 C218 1.784 . S
C339 C149 1.843 . S
C335 C9 1.767 . S
C357 C109 1.685 . S
C353 C16 1.610 . S
C375 C240 1.698 . S
C371 C30 1.716 . S
C393 C200 1.346 . S
C389 C42 1.365 . S
C407 C4 1.255 . S
C411 C242 1.248 . S
C429 C159 2.365 . S
C425 C33 2.397 . S
C443 C45 1.893 . S
C447 C119 1.866 . S
C461 C21 1.420 . S
C465 C202 1.458 . S
C483 C122 1.098 . S
C479 C57 1.074 . S
C497 C66 1.258 . S
C501 C162 1.284 . S
C515 C76 2.630 . S
C519 C199 2.583 . S
C533 C88 1.742 . S
C537 C239 1.707 . S
C551 C54 1.773 . S
C555 C160 1.839 . S
C573 C120 1.776 . S
C569 C64 1.729 . S
C591 C229 1.596 . S
C587 C78 1.620 . S
C609 C189 1.401 . S
C605 C93 1.414 . S
C623 C52 1.261 . S
C627 C233 1.292 . S
C645 C138 2.354 . S
C641 C81 2.382 . S
C663 C98 1.835 . S
C659 C90 1.864 . S
C677 C69 1.428 . S
C681 C193 1.479 . S
