# Generated by pormake.
# Topology anh, (6,3)-cn, num edge types: 1
# Building blocks:
#     Node 0, Type 0, BuildingBlock: VOLQOD_clean_sbu_1, # of connection points: 6
#     Node 1, Type 0, BuildingBlock: VOLQOD_clean_sbu_1, # of connection points: 6
#     Node 2, Type 0, BuildingBlock: VOLQOD_clean_sbu_1, # of connection points: 6
#     Node 3, Type 1, BuildingBlock: ESEHIV_clean_linker_0, # of connection points: 3
#     Node 4, Type 1, BuildingBlock: ESEHIV_clean_linker_0, # of connection points: 3
#     Node 5, Type 1, BuildingBlock: ESEHIV_clean_linker_0, # of connection points: 3
#     Node 6, Type 1, BuildingBlock: ESEHIV_clean_linker_0, # of connection points: 3
#     Node 7, Type 1, BuildingBlock: ESEHIV_clean_linker_0, # of connection points: 3
#     Node 8, Type 1, BuildingBlock: ESEHIV_clean_linker_0, # of connection points: 3
#     Edge 9, Type (0, 1), BuildingBlock: ZUJKAS_clean_linker_0, # of connection points: 2
#     Edge 10, Type (0, 1), BuildingBlock: ZUJKAS_clean_linker_0, # of connection points: 2
#     Edge 11, Type (0, 1), BuildingBlock: ZUJKAS_clean_linker_0, # of connection points: 2
#     Edge 12, Type (0, 1), BuildingBlock: ZUJKAS_clean_linker_0, # of connection points: 2
#     Edge 13, Type (0, 1), BuildingBlock: ZUJKAS_clean_linker_0, # of connection points: 2
#     Edge 14, Type (0, 1), BuildingBlock: ZUJKAS_clean_linker_0, # of connection points: 2
#     Edge 15, Type (0, 1), BuildingBlock: ZUJKAS_clean_linker_0, # of connection points: 2
#     Edge 16, Type (0, 1), BuildingBlock: ZUJKAS_clean_linker_0, # of connection points: 2
#     Edge 17, Type (0, 1), BuildingBlock: ZUJKAS_clean_linker_0, # of connection points: 2
#     Edge 18, Type (0, 1), BuildingBlock: ZUJKAS_clean_linker_0, # of connection points: 2
#     Edge 19, Type (0, 1), BuildingBlock: ZUJKAS_clean_linker_0, # of connection points: 2
#     Edge 20, Type (0, 1), BuildingBlock: ZUJKAS_clean_linker_0, # of connection points: 2
#     Edge 21, Type (0, 1), BuildingBlock: ZUJKAS_clean_linker_0, # of connection points: 2
#     Edge 22, Type (0, 1), BuildingBlock: ZUJKAS_clean_linker_0, # of connection points: 2
#     Edge 23, Type (0, 1), BuildingBlock: ZUJKAS_clean_linker_0, # of connection points: 2
#     Edge 24, Type (0, 1), BuildingBlock: ZUJKAS_clean_linker_0, # of connection points: 2
#     Edge 25, Type (0, 1), BuildingBlock: ZUJKAS_clean_linker_0, # of connection points: 2
#     Edge 26, Type (0, 1), BuildingBlock: ZUJKAS_clean_linker_0, # of connection points: 2
# Relax obj value: 0.167
# Max RMSD: 0.230
# Mean RMSD: 0.114
data_MOF--net-anh--node1-VOLQOD_clean_sbu_1--node2-ESEHIV_clean_linker_0--edge1-ZUJKAS_clean_linker_0
_symmetry_space_group_name_H-M    P1
_symmetry_Int_Tables_number       1
_symmetry_cell_setting            triclinic
loop_
_symmetry_equiv_pos_as_xyz
'x, y, z'
_cell_length_a     35.21921
_cell_length_b     35.031777
_cell_length_c     75.527051
_cell_angle_alpha  89.927868
_cell_angle_beta   89.89904
_cell_angle_gamma 120.14161
loop_
_atom_site_label
_atom_site_type_symbol
_atom_site_fract_x
_atom_site_fract_y
_atom_site_fract_z
_atom_type_partial_charge
O0 O -0.00769 0.55265 0.19739 0.0
Zn1 Zn -0.00264 0.56889 0.17158 0.0
O2 O 0.00643 0.52804 0.15693 0.0
Zn3 Zn 0.96069 0.50129 0.13901 0.0
Zn4 Zn 0.00476 0.48219 0.17208 0.0
Zn5 Zn 0.063 0.5592 0.14501 0.0
O6 O 0.98505 0.51263 0.1142 0.0
O7 O 0.05638 0.55705 0.11857 0.0
O8 O 0.94267 0.56985 0.16444 0.0
O9 O 0.92154 0.52701 0.14059 0.0
O10 O 0.92165 0.43589 0.14327 0.0
O11 O 0.95108 0.4243 0.16716 0.0
O12 O 0.05676 0.47463 0.16797 0.0
O13 O 0.0493 0.63027 0.16972 0.0
O14 O 0.09925 0.53111 0.15042 0.0
O15 O 0.09592 0.62274 0.15222 0.0
C16 C -0.00363 0.5235 0.20589 0.0
C17 C 0.02385 0.53659 0.10821 0.0
C18 C 0.92153 0.41032 0.1553 0.0
C19 C 0.91696 0.55234 0.15134 0.0
C20 C 0.09217 0.49719 0.15928 0.0
C21 C 0.08619 0.64646 0.16183 0.0
O22 O 0.00269 0.49523 0.19787 0.0
O23 O 0.47204 0.00878 0.45904 0.0
Zn24 Zn 0.45401 0.00436 0.48456 0.0
O25 O 0.4946 -0.00322 0.49978 0.0
Zn26 Zn 0.52547 0.04754 0.51532 0.0
Zn27 Zn 0.53728 0.99067 0.48523 0.0
Zn28 Zn 0.46146 0.94433 0.51423 0.0
O29 O 0.51715 0.02993 0.54106 0.0
O30 O 0.46714 0.95868 0.54017 0.0
O31 O 0.45133 0.05872 0.49102 0.0
O32 O 0.50197 0.08837 0.51203 0.0
O33 O 0.58987 0.08237 0.50959 0.0
O34 O 0.59781 0.04225 0.48879 0.0
O35 O 0.53892 0.93541 0.49122 0.0
O36 O 0.39292 0.95229 0.48639 0.0
O37 O 0.48491 0.90353 0.51091 0.0
O38 O 0.39776 0.91109 0.50759 0.0
C39 C 0.49928 0.0012 0.4509 0.0
C40 C 0.49166 0.99363 0.54889 0.0
C41 C 0.61385 0.07616 0.49869 0.0
C42 C 0.47301 0.08911 0.50222 0.0
C43 C 0.51537 0.90377 0.50175 0.0
C44 C 0.37537 0.91801 0.49616 0.0
O45 O 0.52469 0.99148 0.45926 0.0
O46 O 0.46129 0.45675 0.79701 0.0
Zn47 Zn 0.44222 0.43871 0.82227 0.0
O48 O 0.48927 0.47552 0.83879 0.0
Zn49 Zn 0.46907 0.50346 0.85562 0.0
Zn50 Zn 0.53897 0.52063 0.82546 0.0
Zn51 Zn 0.50753 0.4399 0.85195 0.0
O52 O 0.47454 0.48889 0.88098 0.0
O53 O 0.49344 0.43768 0.8778 0.0
O54 O 0.38779 0.44267 0.82672 0.0
O55 O 0.40569 0.48192 0.85154 0.0
O56 O 0.49932 0.56927 0.85167 0.0
O57 O 0.54518 0.57997 0.82952 0.0
O58 O 0.59506 0.5239 0.8327 0.0
O59 O 0.42732 0.37528 0.82421 0.0
O60 O 0.57289 0.46622 0.85063 0.0
O61 O 0.47746 0.37786 0.84277 0.0
C62 C 0.49795 0.48394 0.78992 0.0
C63 C 0.48255 0.4602 0.88758 0.0
C64 C 0.52796 0.59461 0.84042 0.0
C65 C 0.37811 0.45989 0.83951 0.0
C66 C 0.60335 0.49984 0.84274 0.0
C67 C 0.44525 0.35649 0.83231 0.0
O68 O 0.53118 0.50919 0.79931 0.0
H69 H 0.4386 0.98765 0.26158 0.0
H70 H 0.57484 0.08731 0.25725 0.0
H71 H 0.49739 0.03245 0.21029 0.0
C72 C 0.46692 0.00887 0.25347 0.0
C73 C 0.46297 0.00728 0.23497 0.0
C74 C 0.50732 0.03719 0.2616 0.0
C75 C 0.54391 0.06457 0.25101 0.0
C76 C 0.54035 0.06368 0.23246 0.0
C77 C 0.49988 0.03463 0.2246 0.0
H78 H 0.54202 0.57234 0.5974 0.0
H79 H 0.48682 0.43154 0.59837 0.0
H80 H 0.50602 0.49924 0.54871 0.0
C81 C 0.52904 0.54122 0.59044 0.0
C82 C 0.52522 0.54023 0.57193 0.0
C83 C 0.51557 0.50213 0.60004 0.0
C84 C 0.49823 0.46189 0.59095 0.0
C85 C 0.49424 0.46044 0.57243 0.0
C86 C 0.50797 0.49982 0.56304 0.0
H87 H 0.01644 0.61601 0.9214 0.0
H88 H 0.13162 0.60465 0.91533 0.0
H89 H 0.06898 0.62034 0.86951 0.0
C90 C 0.042 0.61731 0.91299 0.0
C91 C 0.03863 0.61926 0.8945 0.0
C92 C 0.0761 0.61319 0.9207 0.0
C93 C 0.10651 0.61002 0.9096 0.0
C94 C 0.10303 0.61106 0.89111 0.0
C95 C 0.07061 0.61816 0.88378 0.0
H96 H 0.92771 0.4409 0.39717 0.0
H97 H 0.02478 0.57885 0.39932 0.0
H98 H 0.97387 0.50437 0.44749 0.0
C99 C 0.94874 0.47025 0.40479 0.0
C100 C 0.94795 0.46791 0.42335 0.0
C101 C 0.97582 0.51035 0.39603 0.0
C102 C 0.00245 0.5483 0.40605 0.0
C103 C 0.00218 0.54644 0.42465 0.0
C104 C 0.97436 0.50618 0.43316 0.0
H105 H 0.44558 0.01017 0.74044 0.0
H106 H 0.49635 0.92142 0.74144 0.0
H107 H 0.46111 0.95966 0.79014 0.0
C108 C 0.4549 0.98962 0.74784 0.0
C109 C 0.4509 0.98734 0.76636 0.0
C110 C 0.47136 0.96605 0.73877 0.0
C111 C 0.48376 0.93979 0.74841 0.0
C112 C 0.48029 0.93736 0.76698 0.0
C113 C 0.46371 0.96118 0.77583 0.0
H114 H 0.37863 0.37989 0.07891 0.0
H115 H 0.51577 0.42011 0.07701 0.0
H116 H 0.45423 0.41414 0.12688 0.0
C117 C 0.40921 0.38932 0.08568 0.0
C118 C 0.41183 0.39543 0.1041 0.0
C119 C 0.4465 0.39786 0.07578 0.0
C120 C 0.48638 0.41157 0.08459 0.0
C121 C 0.4894 0.41791 0.10299 0.0
C122 C 0.45191 0.40917 0.11266 0.0
H123 H 0.08267 0.41923 0.17159 0.0
H124 H 0.13162 0.38983 0.16609 0.0
H125 H 0.2223 0.51013 0.13896 0.0
H126 H 0.17359 0.53963 0.14415 0.0
H127 H 0.19409 0.43119 0.11938 0.0
H128 H 0.25373 0.42271 0.18673 0.0
H129 H 0.19542 0.39884 0.18389 0.0
H130 H 0.23071 0.45739 0.18175 0.0
C131 C 0.1134 0.43976 0.16472 0.0
C132 C 0.12411 0.48167 0.15818 0.0
C133 C 0.14133 0.42292 0.16165 0.0
C134 C 0.18048 0.44791 0.15217 0.0
C135 C 0.1921 0.49039 0.14629 0.0
H136 H 0.41448 0.45411 0.12826 0.0
H137 H 0.35265 0.45628 0.14164 0.0
C138 C 0.16423 0.50718 0.14928 0.0
C139 C 0.20788 0.42891 0.14698 0.0
H140 H 0.28009 0.39933 0.16283 0.0
C141 C 0.21256 0.42368 0.12886 0.0
C142 C 0.23161 0.41913 0.15946 0.0
C143 C 0.22802 0.42496 0.17906 0.0
C144 C 0.24203 0.41088 0.12275 0.0
C145 C 0.26673 0.40218 0.13519 0.0
C146 C 0.2607 0.40563 0.15338 0.0
C147 C 0.30319 0.39576 0.12943 0.0
C148 C 0.24836 0.40937 0.10303 0.0
C149 C 0.29576 0.36015 0.1186 0.0
C150 C 0.33117 0.35889 0.11084 0.0
C151 C 0.37439 0.39296 0.11401 0.0
C152 C 0.38161 0.4271 0.12573 0.0
C153 C 0.34631 0.42843 0.13337 0.0
H154 H 0.23223 0.42438 0.09537 0.0
H155 H 0.28383 0.42696 0.0996 0.0
H156 H 0.23393 0.3745 0.09879 0.0
H157 H 0.26261 0.3343 0.11563 0.0
H158 H 0.32477 0.33193 0.10204 0.0
H159 H 0.67572 0.07373 0.47754 0.0
H160 H 0.74509 0.13666 0.46774 0.0
H161 H 0.72439 0.22202 0.50258 0.0
H162 H 0.65546 0.15934 0.5127 0.0
H163 H 0.74296 0.20349 0.45043 0.0
H164 H 0.85551 0.27109 0.50759 0.0
H165 H 0.80871 0.21576 0.50746 0.0
H166 H 0.80176 0.26211 0.51248 0.0
C167 C 0.6865 0.10564 0.48352 0.0
C168 C 0.65974 0.11162 0.49573 0.0
C169 C 0.72622 0.14154 0.47791 0.0
C170 C 0.73995 0.18394 0.48447 0.0
C171 C 0.71487 0.18946 0.49759 0.0
H172 H 0.89488 0.45212 0.45208 0.0
H173 H 0.84845 0.38145 0.46699 0.0
C174 C 0.67523 0.15355 0.50328 0.0
C175 C 0.77598 0.22303 0.47559 0.0
H176 H 0.86972 0.32102 0.48317 0.0
C177 C 0.77117 0.22882 0.4575 0.0
C178 C 0.81244 0.25611 0.4849 0.0
C179 C 0.82018 0.2508 0.50415 0.0
C180 C 0.80074 0.2677 0.44863 0.0
C181 C 0.83651 0.30135 0.45806 0.0
C182 C 0.84215 0.2951 0.47602 0.0
C183 C 0.86685 0.3442 0.44968 0.0
C184 C 0.79222 0.2733 0.42948 0.0
C185 C 0.89289 0.34656 0.43519 0.0
C186 C 0.91921 0.38678 0.4266 0.0
C187 C 0.9202 0.42531 0.4325 0.0
C188 C 0.89489 0.42298 0.44731 0.0
C189 C 0.86844 0.38273 0.45583 0.0
H190 H 0.7584 0.24848 0.42534 0.0
H191 H 0.79717 0.30679 0.42708 0.0
H192 H 0.81563 0.26923 0.42095 0.0
H193 H 0.8926 0.31725 0.43045 0.0
H194 H 0.93904 0.38782 0.41543 0.0
H195 H 0.48001 0.6304 0.85318 0.0
H196 H 0.48516 0.69953 0.84367 0.0
H197 H 0.60117 0.73164 0.81322 0.0
H198 H 0.5957 0.66203 0.82228 0.0
H199 H 0.54794 0.7903 0.8437 0.0
H200 H 0.51237 0.71993 0.77573 0.0
H201 H 0.50781 0.68742 0.79498 0.0
H202 H 0.56083 0.7247 0.78566 0.0
C203 C 0.50725 0.65261 0.8448 0.0
C204 C 0.53695 0.64035 0.83819 0.0
C205 C 0.51012 0.69212 0.83938 0.0
C206 C 0.54287 0.72003 0.82739 0.0
C207 C 0.57503 0.70994 0.82214 0.0
H208 H 0.55346 0.93033 0.76184 0.0
H209 H 0.57408 0.88245 0.77767 0.0
C210 C 0.57193 0.67024 0.82738 0.0
C211 C 0.54032 0.75679 0.81895 0.0
H212 H 0.52111 0.79045 0.77923 0.0
C213 C 0.5424 0.79059 0.8296 0.0
C214 C 0.53276 0.7568 0.80054 0.0
C215 C 0.52789 0.72013 0.78854 0.0
C216 C 0.53696 0.82443 0.82229 0.0
C217 C 0.52876 0.82396 0.80395 0.0
C218 C 0.52767 0.79075 0.79327 0.0
C219 C 0.51859 0.85594 0.7956 0.0
C220 C 0.53995 0.86032 0.83422 0.0
C221 C 0.48046 0.85661 0.8004 0.0
C222 C 0.46833 0.88352 0.79128 0.0
C223 C 0.49406 0.91007 0.77711 0.0
C224 C 0.53264 0.90979 0.77252 0.0
C225 C 0.54468 0.88281 0.78164 0.0
H226 H 0.55805 0.86286 0.84661 0.0
H227 H 0.55648 0.89281 0.82738 0.0
H228 H 0.50632 0.85263 0.83792 0.0
H229 H 0.45929 0.83526 0.81084 0.0
H230 H 0.43811 0.88251 0.79496 0.0
H231 H 0.87437 0.54726 0.12081 0.0
H232 H 0.80282 0.54153 0.11778 0.0
H233 H 0.79975 0.56217 0.17393 0.0
H234 H 0.87201 0.56835 0.17708 0.0
H235 H 0.72918 0.48144 0.16044 0.0
H236 H 0.75173 0.62487 0.12113 0.0
H237 H 0.78177 0.60023 0.11232 0.0
H238 H 0.79554 0.62554 0.13384 0.0
C239 C 0.85904 0.5518 0.13245 0.0
C240 C 0.87849 0.55792 0.14919 0.0
C241 C 0.81833 0.54888 0.13067 0.0
C242 C 0.79629 0.55182 0.14561 0.0
C243 C 0.81661 0.56031 0.16224 0.0
H244 H 0.52456 0.48729 0.12584 0.0
H245 H 0.59745 0.52244 0.13951 0.0
C246 C 0.8578 0.56387 0.164 0.0
C247 C 0.74963 0.53885 0.14398 0.0
H248 H 0.68065 0.55827 0.11892 0.0
C249 C 0.7184 0.49881 0.15175 0.0
C250 C 0.73579 0.56166 0.13269 0.0
C251 C 0.76798 0.60571 0.12464 0.0
C252 C 0.67385 0.47927 0.14742 0.0
C253 C 0.66056 0.50035 0.13501 0.0
C254 C 0.69123 0.54202 0.12829 0.0
C255 C 0.61585 0.47793 0.12764 0.0
C256 C 0.64155 0.43535 0.15554 0.0
C257 C 0.60251 0.4415 0.11642 0.0
C258 C 0.56114 0.42154 0.10854 0.0
C259 C 0.53248 0.43761 0.11188 0.0
C260 C 0.54583 0.47387 0.12328 0.0
C261 C 0.58738 0.49408 0.13101 0.0
H262 H 0.65467 0.4288 0.16783 0.0
H263 H 0.61004 0.43395 0.15867 0.0
H264 H 0.63464 0.40868 0.14594 0.0
H265 H 0.62445 0.42904 0.11352 0.0
H266 H 0.55157 0.39365 0.09982 0.0
H267 H 0.3276 0.83927 0.51354 0.0
H268 H 0.25605 0.77768 0.50503 0.0
H269 H 0.24719 0.85641 0.46311 0.0
H270 H 0.31865 0.91845 0.47151 0.0
H271 H 0.1639 0.7961 0.48345 0.0
H272 H 0.25539 0.71758 0.45639 0.0
H273 H 0.26668 0.73575 0.47902 0.0
H274 H 0.28192 0.77566 0.46155 0.0
C275 C 0.31016 0.84388 0.50272 0.0
C276 C 0.32921 0.88356 0.49301 0.0
C277 C 0.26927 0.80866 0.49791 0.0
C278 C 0.24686 0.81254 0.48334 0.0
C279 C 0.2642 0.85295 0.47439 0.0
H280 H 0.02527 0.63296 0.41917 0.0
H281 H 0.08156 0.69788 0.43481 0.0
C282 C 0.3051 0.88826 0.47918 0.0
C283 C 0.20813 0.77314 0.47617 0.0
H284 H 0.17851 0.67715 0.45437 0.0
C285 C 0.16685 0.76992 0.47713 0.0
C286 C 0.21248 0.73941 0.46788 0.0
C287 C 0.25648 0.74216 0.46597 0.0
C288 C 0.12938 0.73313 0.47018 0.0
C289 C 0.13382 0.69947 0.46181 0.0
C290 C 0.1752 0.7029 0.4609 0.0
C291 C 0.09643 0.66047 0.45358 0.0
C292 C 0.08539 0.7303 0.47209 0.0
C293 C 0.08652 0.61804 0.45881 0.0
C294 C 0.05519 0.58105 0.44968 0.0
C295 C 0.03298 0.58573 0.43513 0.0
C296 C 0.04208 0.62827 0.43022 0.0
C297 C 0.07374 0.66536 0.43931 0.0
H298 H 0.08557 0.75176 0.48295 0.0
H299 H 0.07749 0.74146 0.45959 0.0
H300 H 0.05899 0.69584 0.47473 0.0
H301 H 0.10402 0.61362 0.46968 0.0
H302 H 0.04962 0.54891 0.45364 0.0
H303 H 0.48145 0.30816 0.84417 0.0
H304 H 0.46341 0.23438 0.83482 0.0
H305 H 0.35735 0.22429 0.8029 0.0
H306 H 0.3757 0.2987 0.81188 0.0
H307 H 0.38752 0.15027 0.83597 0.0
H308 H 0.43729 0.21165 0.76691 0.0
H309 H 0.44848 0.24846 0.78534 0.0
H310 H 0.39409 0.21835 0.77628 0.0
C311 C 0.45394 0.29017 0.83532 0.0
C312 C 0.4305 0.30967 0.82853 0.0
C313 C 0.44359 0.2479 0.83004 0.0
C314 C 0.40958 0.2243 0.81794 0.0
C315 C 0.38427 0.24241 0.81199 0.0
H316 H 0.38182 -0.00131 0.75761 0.0
H317 H 0.36162 0.04942 0.77126 0.0
C318 C 0.39477 0.28487 0.81718 0.0
C319 C 0.4035 0.18258 0.81053 0.0
H320 H 0.41906 0.13885 0.77277 0.0
C321 C 0.3938 0.14744 0.8221 0.0
C322 C 0.41172 0.1791 0.79243 0.0
C323 C 0.4238 0.21642 0.77949 0.0
C324 C 0.39345 0.10935 0.81614 0.0
C325 C 0.40362 0.10679 0.79823 0.0
C326 C 0.41118 0.14096 0.7865 0.0
C327 C 0.41121 0.07145 0.79166 0.0
C328 C 0.38298 0.07256 0.82911 0.0
C329 C 0.44558 0.06691 0.79871 0.0
C330 C 0.45741 0.03832 0.79087 0.0
C331 C 0.43525 0.01398 0.77577 0.0
C332 C 0.39983 0.01746 0.76911 0.0
C333 C 0.38804 0.0461 0.77695 0.0
H334 H 0.36249 0.07285 0.84026 0.0
H335 H 0.36553 0.03983 0.82255 0.0
H336 H 0.41404 0.07705 0.83475 0.0
H337 H 0.46466 0.08706 0.80976 0.0
H338 H 0.48524 0.03688 0.79615 0.0
H339 H 0.5899 0.90184 0.49253 0.0
H340 H 0.60862 0.84557 0.50106 0.0
H341 H 0.48161 0.76893 0.52576 0.0
H342 H 0.46278 0.82456 0.51751 0.0
H343 H 0.5593 0.79343 0.54779 0.0
H344 H 0.55727 0.71317 0.4838 0.0
H345 H 0.5857 0.77257 0.48519 0.0
H346 H 0.527 0.7418 0.48667 0.0
C347 C 0.56572 0.87258 0.49949 0.0
C348 C 0.52502 0.86778 0.5045 0.0
C349 C 0.57647 0.84057 0.50433 0.0
C350 C 0.54647 0.80337 0.51405 0.0
C351 C 0.50519 0.79762 0.51831 0.0
H352 H 0.47757 0.55154 0.54639 0.0
H353 H 0.49451 0.61985 0.53122 0.0
C354 C 0.49453 0.82947 0.51359 0.0
C355 C 0.55833 0.77154 0.52112 0.0
H356 H 0.56339 0.68 0.50991 0.0
C357 C 0.56117 0.76907 0.53955 0.0
C358 C 0.56069 0.74014 0.51021 0.0
C359 C 0.55743 0.74163 0.49034 0.0
C360 C 0.56322 0.73407 0.54752 0.0
C361 C 0.56342 0.70129 0.53666 0.0
C362 C 0.56341 0.70535 0.51815 0.0
C363 C 0.55695 0.6596 0.5443 0.0
C364 C 0.56183 0.7308 0.56748 0.0
C365 C 0.58693 0.6592 0.55641 0.0
C366 C 0.57705 0.62022 0.56527 0.0
C367 C 0.53739 0.58105 0.56189 0.0
C368 C 0.50848 0.58121 0.54916 0.0
C369 C 0.51816 0.62016 0.54046 0.0
H370 H 0.55412 0.75482 0.57373 0.0
H371 H 0.53686 0.69707 0.57185 0.0
H372 H 0.5943 0.73767 0.57243 0.0
H373 H 0.61738 0.68921 0.55931 0.0
H374 H 0.60017 0.62072 0.57483 0.0
H375 H 0.67533 0.55466 0.82285 0.0
H376 H 0.75209 0.57813 0.82919 0.0
H377 H 0.71226 0.49983 0.877 0.0
H378 H 0.63555 0.47494 0.87043 0.0
H379 H 0.80258 0.62381 0.85637 0.0
H380 H 0.78909 0.45959 0.8546 0.0
H381 H 0.74574 0.4685 0.84687 0.0
H382 H 0.75122 0.46087 0.87013 0.0
C383 C 0.68295 0.54208 0.83461 0.0
C384 C 0.64945 0.51262 0.84606 0.0
C385 C 0.72677 0.5556 0.83823 0.0
C386 C 0.73776 0.54013 0.8534 0.0
C387 C 0.70439 0.51116 0.86495 0.0
H388 H 0.98892 0.65493 0.9063 0.0
H389 H 0.91744 0.63913 0.89517 0.0
C390 C 0.66058 0.49708 0.86121 0.0
C391 C 0.78419 0.55514 0.85745 0.0
H392 H 0.85345 0.51751 0.86824 0.0
C393 C 0.81394 0.60065 0.85877 0.0
C394 C 0.79902 0.52489 0.86029 0.0
C395 C 0.76967 0.4758 0.85771 0.0
C396 C 0.85802 0.61671 0.86329 0.0
C397 C 0.87217 0.58631 0.86712 0.0
C398 C 0.84254 0.54086 0.86544 0.0
C399 C 0.91744 0.60027 0.87288 0.0
C400 C 0.88892 0.66596 0.86366 0.0
C401 C 0.94098 0.58334 0.8642 0.0
C402 C 0.98084 0.59071 0.87093 0.0
C403 C -0.00128 0.6161 0.88634 0.0
C404 C 0.97602 0.63485 0.89454 0.0
C405 C 0.93544 0.6265 0.88801 0.0
H406 H 0.87716 0.68349 0.85497 0.0
H407 H 0.89068 0.67814 0.87736 0.0
H408 H 0.92251 0.67467 0.8594 0.0
H409 H 0.92763 0.56284 0.85256 0.0
H410 H -0.00359 0.57461 0.86442 0.0
H411 H 0.08983 0.69877 0.18925 0.0
H412 H 0.15205 0.76991 0.19762 0.0
H413 H 0.2211 0.77038 0.15028 0.0
H414 H 0.15951 0.69828 0.14215 0.0
H415 H 0.26829 0.78058 0.1783 0.0
H416 H 0.20605 0.89673 0.18358 0.0
H417 H 0.17238 0.84753 0.1961 0.0
H418 H 0.17583 0.84434 0.17239 0.0
C419 C 0.1178 0.71451 0.18039 0.0
C420 C 0.12004 0.69276 0.16514 0.0
C421 C 0.15324 0.75543 0.18512 0.0
C422 C 0.19108 0.77572 0.17448 0.0
C423 C 0.19217 0.75532 0.15866 0.0
H424 H 0.42471 0.0221 0.20626 0.0
H425 H 0.35896 0.96802 0.1904 0.0
C426 C 0.15703 0.71411 0.15405 0.0
C427 C 0.23158 0.81434 0.18121 0.0
H428 H 0.27134 0.91515 0.20068 0.0
C429 C 0.26911 0.81031 0.18289 0.0
C430 C 0.23286 0.85331 0.18706 0.0
C431 C 0.1947 0.86092 0.1845 0.0
C432 C 0.30721 0.84329 0.19096 0.0
C433 C 0.30735 0.88071 0.19799 0.0
C434 C 0.27071 0.8859 0.19558 0.0
C435 C 0.34507 0.91415 0.20823 0.0
C436 C 0.34687 0.83754 0.19197 0.0
C437 C 0.35814 0.90189 0.22374 0.0
C438 C 0.39588 0.93241 0.23267 0.0
C439 C 0.42092 0.97591 0.22635 0.0
C440 C 0.40653 0.98859 0.21125 0.0
C441 C 0.36886 0.95791 0.20226 0.0
H442 H 0.34599 0.81464 0.1816 0.0
H443 H 0.3778 0.86965 0.19048 0.0
H444 H 0.34732 0.82331 0.20505 0.0
H445 H 0.33962 0.86839 0.22872 0.0
H446 H 0.40618 0.92151 0.24418 0.0
H447 H 0.5249 0.16763 0.51838 0.0
H448 H 0.50858 0.22626 0.52412 0.0
H449 H 0.38498 0.1529 0.49691 0.0
H450 H 0.40113 0.09346 0.49093 0.0
H451 H 0.4795 0.27357 0.49663 0.0
H452 H 0.36406 0.17916 0.55163 0.0
H453 H 0.40602 0.16677 0.54509 0.0
H454 H 0.36091 0.1535 0.53055 0.0
C455 C 0.49435 0.16393 0.51347 0.0
C456 C 0.46412 0.12576 0.50433 0.0
C457 C 0.48521 0.19756 0.51669 0.0
C458 C 0.44563 0.19363 0.51095 0.0
C459 C 0.41571 0.15627 0.5014 0.0
H460 H 0.43778 0.4313 0.54418 0.0
H461 H 0.41421 0.36388 0.52688 0.0
C462 C 0.42502 0.12253 0.49801 0.0
C463 C 0.43563 0.22806 0.51619 0.0
H464 H 0.39463 0.25636 0.55151 0.0
C465 C 0.45968 0.26973 0.50824 0.0
C466 C 0.40992 0.22255 0.53138 0.0
C467 C 0.38358 0.17815 0.54026 0.0
C468 C 0.46158 0.30697 0.51599 0.0
C469 C 0.43882 0.302 0.53203 0.0
C470 C 0.41191 0.25979 0.53918 0.0
C471 C 0.44898 0.34056 0.54308 0.0
C472 C 0.49088 0.35185 0.50789 0.0
C473 C 0.4756 0.34902 0.55802 0.0
C474 C 0.48947 0.38748 0.56778 0.0
C475 C 0.47674 0.41808 0.5628 0.0
C476 C 0.44873 0.40869 0.54815 0.0
C477 C 0.435 0.37018 0.53833 0.0
H478 H 0.50772 0.35009 0.49573 0.0
H479 H 0.47105 0.36734 0.50444 0.0
H480 H 0.51611 0.37362 0.51761 0.0
H481 H 0.48686 0.3265 0.56177 0.0
H482 H 0.51141 0.39395 0.57884 0.0
H483 H 0.33168 0.45756 0.86843 0.0
H484 H 0.27136 0.4728 0.86947 0.0
H485 H 0.27037 0.4778 0.81241 0.0
H486 H 0.33081 0.46187 0.81127 0.0
H487 H 0.28543 0.55656 0.83085 0.0
H488 H 0.13902 0.40688 0.85656 0.0
H489 H 0.18832 0.41982 0.86832 0.0
H490 H 0.18345 0.40506 0.84529 0.0
C491 C 0.31767 0.4605 0.8561 0.0
C492 C 0.33583 0.45871 0.83978 0.0
C493 C 0.28311 0.46897 0.8567 0.0
C494 C 0.26636 0.47611 0.84101 0.0
C495 C 0.28272 0.47192 0.82462 0.0
H496 H 0.07202 0.55421 0.86332 0.0
H497 H 0.11015 0.52416 0.84653 0.0
C498 C 0.317 0.46268 0.824 0.0
C499 C 0.23688 0.49447 0.84221 0.0
H500 H 0.14341 0.47664 0.86291 0.0
C501 C 0.25376 0.53883 0.83742 0.0
C502 C 0.19563 0.47114 0.85067 0.0
C503 C 0.1753 0.42293 0.85536 0.0
C504 C 0.2319 0.56149 0.84215 0.0
C505 C 0.19255 0.53914 0.85201 0.0
C506 C 0.17395 0.49385 0.85554 0.0
C507 C 0.17192 0.56258 0.86013 0.0
C508 C 0.25186 0.60948 0.83714 0.0
C509 C 0.19437 0.59467 0.87318 0.0
C510 C 0.17275 0.6122 0.88279 0.0
C511 C 0.12833 0.59776 0.87949 0.0
C512 C 0.10651 0.56673 0.86596 0.0
C513 C 0.1281 0.54925 0.8564 0.0
H514 H 0.2736 0.61777 0.82537 0.0
H515 H 0.22604 0.61797 0.8343 0.0
H516 H 0.27204 0.63026 0.84832 0.0
H517 H 0.22802 0.60471 0.87648 0.0
H518 H 0.19036 0.63605 0.8931 0.0
H519 H 0.84454 0.37249 0.13655 0.0
H520 H 0.77701 0.30393 0.14391 0.0
H521 H 0.84482 0.27786 0.18545 0.0
H522 H 0.91247 0.34574 0.17811 0.0
H523 H 0.77954 0.20034 0.16654 0.0
H524 H 0.71876 0.31014 0.19096 0.0
H525 H 0.73595 0.31701 0.1682 0.0
H526 H 0.77566 0.33072 0.18548 0.0
C527 C 0.84541 0.35163 0.14695 0.0
C528 C 0.88366 0.36503 0.15699 0.0
C529 C 0.80678 0.31256 0.15115 0.0
C530 C 0.80593 0.2865 0.16543 0.0
C531 C 0.84488 0.29776 0.17444 0.0
H532 H 0.62628 0.08527 0.23639 0.0
H533 H 0.6891 0.13613 0.21818 0.0
C534 C 0.88346 0.3367 0.17026 0.0
C535 C 0.76389 0.25093 0.17256 0.0
H536 H 0.67342 0.23424 0.19557 0.0
C537 C 0.756 0.2075 0.17272 0.0
C538 C 0.73358 0.26069 0.18071 0.0
C539 C 0.74133 0.30715 0.18151 0.0
C540 C 0.71847 0.17342 0.18097 0.0
C541 C 0.68881 0.18346 0.18954 0.0
C542 C 0.69625 0.2267 0.18896 0.0
C543 C 0.65062 0.1503 0.19981 0.0
C544 C 0.71094 0.12708 0.18044 0.0
C545 C 0.60842 0.14232 0.19577 0.0
C546 C 0.57271 0.11411 0.20634 0.0
C547 C 0.5785 0.09327 0.22119 0.0
C548 C 0.62081 0.1011 0.22514 0.0
C549 C 0.65661 0.12955 0.21458 0.0
H550 H 0.72857 0.12256 0.16915 0.0
H551 H 0.72356 0.12048 0.19283 0.0
H552 H 0.67543 0.10237 0.17937 0.0
H553 H 0.60324 0.15848 0.18456 0.0
H554 H 0.54068 0.10937 0.2031 0.0
H555 H 0.96273 0.51536 0.08211 0.0
H556 H 0.97584 0.52773 0.0503 0.0
H557 H 0.11462 0.58129 0.05866 0.0
H558 H 0.10199 0.57033 0.09055 0.0
H559 H 0.10027 0.63248 0.03701 0.0
H560 H 0.00188 0.45934 0.01449 0.0
H561 H 0.97007 0.47588 0.02756 0.0
H562 H 0.01538 0.47365 0.03747 0.0
C563 C -0.004 0.52939 0.07717 0.0
C564 C 0.03131 0.54178 0.08886 0.0
C565 C 0.00341 0.5362 0.05896 0.0
C566 C 0.04612 0.55471 0.05206 0.0
C567 C 0.08137 0.56679 0.06369 0.0
H568 H 0.09431 0.5564 0.93889 0.0
H569 H 0.09212 0.54506 0.97083 0.0
C570 C 0.07408 0.56048 0.08191 0.0
C571 C 0.0543 0.56342 0.03281 0.0
H572 H 0.02323 0.51505 0.9922 0.0
C573 C 0.08372 0.60672 0.0272 0.0
C574 C 0.03329 0.52969 0.02004 0.0
C575 C 0.00377 0.48197 0.02519 0.0
C576 C 0.09184 0.61744 0.00917 0.0
C577 C 0.06893 0.58418 0.99639 0.0
C578 C 0.0404 0.54066 0.002 0.0
C579 C 0.07354 0.59373 0.97713 0.0
C580 C 0.12528 0.66417 0.00403 0.0
C581 C 0.06404 0.62504 0.97003 0.0
C582 C 0.06616 0.6323 0.95178 0.0
C583 C 0.07709 0.60783 0.9402 0.0
C584 C 0.08673 0.57656 0.94738 0.0
C585 C 0.08503 0.56967 0.96565 0.0
H586 H 0.14941 0.68119 0.01481 0.0
H587 H 0.14338 0.66503 0.99185 0.0
H588 H 0.10823 0.68303 0.00151 0.0
H589 H 0.05407 0.64326 0.97858 0.0
H590 H 0.05877 0.65677 0.94671 0.0
H591 H 0.55831 -0.00471 0.42903 0.0
H592 H 0.56477 0.00479 0.39686 0.0
H593 H 0.45342 0.0246 0.39636 0.0
H594 H 0.44704 0.0159 0.42847 0.0
H595 H 0.50441 0.95711 0.37069 0.0
H596 H 0.54623 0.13223 0.36943 0.0
H597 H 0.54824 0.10501 0.38943 0.0
H598 H 0.49665 0.09699 0.38143 0.0
C599 C 0.53518 0.0017 0.42209 0.0
C600 C 0.50233 0.00513 0.43136 0.0
C601 C 0.53898 0.00715 0.40372 0.0
C602 C 0.51013 0.01626 0.39431 0.0
C603 C 0.47671 0.01869 0.40344 0.0
H604 H 0.45126 0.03912 0.28611 0.0
H605 H 0.45513 0.03504 0.31836 0.0
C606 C 0.47295 0.01341 0.4218 0.0
C607 C 0.51425 0.02226 0.37486 0.0
H608 H 0.52657 0.09416 0.34179 0.0
C609 C 0.50974 0.98722 0.36435 0.0
C610 C 0.52135 0.06168 0.36668 0.0
C611 C 0.52884 0.1013 0.37732 0.0
C612 C 0.51055 0.98997 0.34581 0.0
C613 C 0.51651 0.02895 0.33766 0.0
C614 C 0.52188 0.0643 0.34815 0.0
C615 C 0.51548 0.03296 0.31822 0.0
C616 C 0.50362 0.95071 0.33505 0.0
C617 C 0.54861 0.03393 0.30757 0.0
C618 C 0.54649 0.03624 0.28915 0.0
C619 C 0.51113 0.03753 0.28114 0.0
C620 C 0.47856 0.03756 0.29191 0.0
C621 C 0.48083 0.03546 0.3103 0.0
H622 H 0.49165 0.92053 0.34331 0.0
H623 H 0.47966 0.94387 0.32427 0.0
H624 H 0.5352 0.95807 0.32887 0.0
H625 H 0.57588 0.03255 0.3135 0.0
H626 H 0.5719 0.03593 0.28116 0.0
H627 H 0.43196 0.44797 0.76548 0.0
H628 H 0.43895 0.4522 0.73326 0.0
H629 H 0.57997 0.52822 0.73794 0.0
H630 H 0.57328 0.5253 0.77019 0.0
H631 H 0.5509 0.56323 0.71375 0.0
H632 H 0.47538 0.38382 0.7016 0.0
H633 H 0.43983 0.39697 0.71388 0.0
H634 H 0.49098 0.40741 0.72344 0.0
C635 C 0.46449 0.46543 0.75967 0.0
C636 C 0.50208 0.48613 0.77041 0.0
C637 C 0.46843 0.46757 0.74124 0.0
C638 C 0.51001 0.48974 0.7332 0.0
C639 C 0.54757 0.51072 0.74388 0.0
H640 H 0.5485 0.46217 0.62098 0.0
H641 H 0.55093 0.46157 0.65338 0.0
C642 C 0.54366 0.50901 0.76231 0.0
C643 C 0.51428 0.49213 0.71366 0.0
H644 H 0.48455 0.42887 0.67636 0.0
C645 C 0.5367 0.53386 0.70557 0.0
C646 C 0.49643 0.45377 0.70303 0.0
C647 C 0.47472 0.40799 0.71094 0.0
C648 C 0.54077 0.53831 0.6871 0.0
C649 C 0.52081 0.49999 0.67644 0.0
C650 C 0.49939 0.45825 0.68455 0.0
C651 C 0.52128 0.50228 0.65685 0.0
C652 C 0.56691 0.584 0.67924 0.0
C653 C 0.50366 0.5252 0.64806 0.0
C654 C 0.50261 0.5259 0.62958 0.0
C655 C 0.51845 0.503 0.61959 0.0
C656 C 0.53589 0.47991 0.62839 0.0
C657 C 0.53736 0.47962 0.64687 0.0
H658 H 0.59102 0.60769 0.68887 0.0
H659 H 0.58483 0.58394 0.66714 0.0
H660 H 0.54424 0.59608 0.67561 0.0
H661 H 0.4899 0.54185 0.65548 0.0
H662 H 0.48833 0.54334 0.62311 0.0
H663 H 0.45 0.92042 0.57002 0.0
H664 H 0.44857 0.91741 0.60237 0.0
H665 H 0.52947 0.05909 0.60453 0.0
H666 H 0.53126 0.06263 0.57215 0.0
H667 H 0.52659 0.95441 0.62596 0.0
H668 H 0.41807 0.02562 0.63618 0.0
H669 H 0.42049 0.00131 0.61543 0.0
H670 H 0.46412 0.05511 0.62148 0.0
C671 C 0.46742 0.95101 0.57734 0.0
C672 C 0.49065 0.99181 0.56848 0.0
C673 C 0.46661 0.94916 0.59581 0.0
C674 C 0.4886 0.98803 0.60575 0.0
C675 C 0.51193 0.02879 0.59703 0.0
H676 H 0.50615 0.04065 0.71849 0.0
H677 H 0.51228 0.04609 0.68619 0.0
C678 C 0.51302 0.0307 0.57854 0.0
C679 C 0.48746 0.98578 0.62528 0.0
H680 H 0.44682 0.01066 0.66173 0.0
C681 C 0.50916 0.96663 0.63383 0.0
C682 C 0.46483 0.00198 0.6354 0.0
C683 C 0.44024 0.02194 0.62673 0.0
C684 C 0.50923 0.96367 0.65236 0.0
C685 C 0.48605 0.97931 0.66251 0.0
C686 C 0.46453 -0.00134 0.65391 0.0
C687 C 0.48346 0.9758 0.68206 0.0
C688 C 0.5349 0.9447 0.66088 0.0
C689 C 0.46496 0.93445 0.69043 0.0
C690 C 0.46154 0.93127 0.70887 0.0
C691 C 0.476 0.96937 0.71924 0.0
C692 C 0.49435 0.01071 0.71081 0.0
C693 C 0.49801 0.01388 0.6924 0.0
H694 H 0.56055 0.94624 0.65183 0.0
H695 H 0.5509 0.96248 0.67328 0.0
H696 H 0.51221 0.9095 0.66421 0.0
H697 H 0.4525 0.90454 0.68269 0.0
H698 H 0.44668 0.89895 0.71501 0.0
H699 H 0.45053 0.49384 0.91241 0.0
H700 H 0.44294 0.47924 0.94431 0.0
H701 H 0.49742 0.39389 0.9384 0.0
H702 H 0.50524 0.40817 0.90655 0.0
H703 H 0.39451 0.39121 0.96131 0.0
H704 H 0.57244 0.48499 0.9778 0.0
H705 H 0.55075 0.49439 0.95765 0.0
H706 H 0.55681 0.44667 0.95972 0.0
C707 C 0.46111 0.47213 0.91789 0.0
C708 C 0.47862 0.45228 0.90692 0.0
C709 C 0.45663 0.46376 0.93609 0.0
C710 C 0.46998 0.43583 0.94365 0.0
C711 C 0.48742 0.41595 0.9328 0.0
H712 H 0.48239 0.36376 0.053 0.0
H713 H 0.4852 0.36873 0.02059 0.0
C714 C 0.49171 0.42408 0.9146 0.0
C715 C 0.46505 0.4269 0.96287 0.0
H716 H 0.52347 0.44456 0.00094 0.0
C717 C 0.42262 0.40284 0.97002 0.0
C718 C 0.50189 0.44189 0.97408 0.0
C719 C 0.54812 0.46871 0.96703 0.0
C720 C 0.41599 0.39311 0.98817 0.0
C721 C 0.45284 0.4088 -0.00054 0.0
C722 C 0.49529 0.43248 0.99224 0.0
C723 C 0.44825 0.40273 0.01891 0.0
C724 C 0.36965 0.3656 0.99503 0.0
C725 C 0.42657 0.42018 0.02866 0.0
C726 C 0.42482 0.41727 0.0471 0.0
C727 C 0.44514 0.39725 0.05616 0.0
C728 C 0.46653 0.37943 0.04636 0.0
C729 C 0.46808 0.38218 0.02788 0.0
H730 H 0.34675 0.34517 0.98437 0.0
H731 H 0.36785 0.34349 0.00595 0.0
H732 H 0.35823 0.38779 0.00018 0.0
H733 H 0.41212 0.43727 0.02204 0.0
H734 H 0.40899 0.43223 0.05429 0.0
H735 H 0.98775 0.58109 0.22773 0.0
H736 H 0.98507 0.58017 0.26008 0.0
H737 H -0.0039 0.46302 0.26078 0.0
H738 H -0.00053 0.46393 0.22847 0.0
H739 H 0.92512 0.51463 0.28268 0.0
H740 H 0.09395 0.54587 0.29423 0.0
H741 H 0.07603 0.55436 0.27296 0.0
H742 H 0.06164 0.49967 0.28003 0.0
C743 C 0.98974 0.55517 0.23474 0.0
C744 C -0.0059 0.52272 0.22548 0.0
C745 C 0.98818 0.55471 0.25323 0.0
C746 C -0.00888 0.52197 0.2628 0.0
C747 C -0.00523 0.48916 0.25363 0.0
H748 H 0.97924 0.45186 0.37311 0.0
H749 H 0.98166 0.45519 0.34074 0.0
C750 C -0.00355 0.48961 0.23515 0.0
C751 C 0.98944 0.52159 0.28238 0.0
H752 H 0.04683 0.52525 0.31934 0.0
C753 C 0.95181 0.51724 0.29071 0.0
C754 C 0.02439 0.52506 0.29279 0.0
C755 C 0.06648 0.53192 0.28458 0.0
C756 C 0.94776 0.51522 0.30923 0.0
C757 C 0.98249 0.51818 0.3196 0.0
C758 C 0.02023 0.52284 0.31129 0.0
C759 C 0.98018 0.51608 0.33915 0.0
C760 C 0.90597 0.50889 0.31753 0.0
C761 C 0.9789 0.54945 0.34891 0.0
C762 C 0.97738 0.54758 0.3674 0.0
C763 C 0.97718 0.51232 0.3764 0.0
C764 C 0.97869 0.47908 0.36654 0.0
C765 C 0.98034 0.48106 0.34808 0.0
H766 H 0.87895 0.49759 0.30774 0.0
H767 H 0.89515 0.4845 0.32852 0.0
H768 H 0.91204 0.54076 0.32311 0.0
H769 H 0.97939 0.57708 0.34224 0.0
H770 H 0.97603 0.57354 0.37464 0.0
loop_
_geom_bond_atom_site_label_1
_geom_bond_atom_site_label_2
_geom_bond_distance
_geom_bond_site_symmetry_2
_ccdc_geom_bond_type
O0 Zn1 1.953 . S
O0 C16 1.225 1_655 S
Zn1 O0 1.953 . S
Zn1 O2 1.949 1_655 S
Zn1 O8 1.919 . S
Zn1 O13 1.924 1_655 S
O2 Zn1 1.949 1_455 S
O2 Zn3 1.923 1_455 S
O2 Zn4 1.950 . S
O2 Zn5 1.945 . S
Zn3 O2 1.923 1_655 S
Zn3 O6 1.933 . S
Zn3 O9 1.941 . S
Zn3 O10 1.965 . S
Zn4 O2 1.950 . S
Zn4 O11 1.938 1_455 S
Zn4 O12 1.906 . S
Zn4 O22 1.953 . S
Zn5 O2 1.945 . S
Zn5 O7 1.932 . S
Zn5 O14 1.977 . S
Zn5 O15 1.910 . S
O6 Zn3 1.933 . S
O6 C17 1.226 1_655 S
O7 Zn5 1.932 . S
O7 C17 1.307 . S
O8 Zn1 1.919 . S
O8 C19 1.253 . S
O9 Zn3 1.941 . S
O9 C19 1.283 . S
O10 Zn3 1.965 . S
O10 C18 1.303 . S
O11 Zn4 1.938 1_655 S
O11 C18 1.247 . S
O12 Zn4 1.906 . S
O12 C20 1.304 . S
O13 Zn1 1.924 1_455 S
O13 C21 1.311 . S
O14 Zn5 1.977 . S
O14 C20 1.272 . S
O15 Zn5 1.910 . S
O15 C21 1.231 . S
C16 O0 1.225 1_455 S
C16 O22 1.298 . S
C17 O6 1.226 1_455 S
C17 O7 1.307 . S
C18 O10 1.303 . S
C18 O11 1.247 . S
C19 O8 1.253 . S
C19 O9 1.283 . S
C20 O12 1.304 . S
C20 O14 1.272 . S
C21 O13 1.311 . S
C21 O15 1.231 . S
O22 Zn4 1.953 . S
O22 C16 1.298 . S
O23 Zn24 1.953 . S
O23 C39 1.225 . S
Zn24 O23 1.953 . S
Zn24 O25 1.949 . S
Zn24 O31 1.919 . S
Zn24 O36 1.924 1_545 S
O25 Zn24 1.949 . S
O25 Zn26 1.923 . S
O25 Zn27 1.950 1_545 S
O25 Zn28 1.945 1_545 S
Zn26 O25 1.923 . S
Zn26 O29 1.933 . S
Zn26 O32 1.941 . S
Zn26 O33 1.965 . S
Zn27 O25 1.950 1_565 S
Zn27 O34 1.938 1_565 S
Zn27 O35 1.906 . S
Zn27 O45 1.953 . S
Zn28 O25 1.945 1_565 S
Zn28 O30 1.932 . S
Zn28 O37 1.977 . S
Zn28 O38 1.910 . S
O29 Zn26 1.933 . S
O29 C40 1.226 . S
O30 Zn28 1.932 . S
O30 C40 1.307 1_565 S
O31 Zn24 1.919 . S
O31 C42 1.253 . S
O32 Zn26 1.941 . S
O32 C42 1.283 . S
O33 Zn26 1.965 . S
O33 C41 1.303 . S
O34 Zn27 1.938 1_545 S
O34 C41 1.247 . S
O35 Zn27 1.906 . S
O35 C43 1.304 . S
O36 Zn24 1.924 1_565 S
O36 C44 1.311 . S
O37 Zn28 1.977 . S
O37 C43 1.272 . S
O38 Zn28 1.910 . S
O38 C44 1.231 . S
C39 O23 1.225 . S
C39 O45 1.298 1_545 S
C40 O29 1.226 . S
C40 O30 1.307 1_545 S
C41 O33 1.303 . S
C41 O34 1.247 . S
C42 O31 1.253 . S
C42 O32 1.283 . S
C43 O35 1.304 . S
C43 O37 1.272 . S
C44 O36 1.311 . S
C44 O38 1.231 . S
O45 Zn27 1.953 . S
O45 C39 1.298 1_565 S
O46 Zn47 1.953 . S
O46 C62 1.225 . S
Zn47 O46 1.953 . S
Zn47 O48 1.949 . S
Zn47 O54 1.919 . S
Zn47 O59 1.924 . S
O48 Zn47 1.949 . S
O48 Zn49 1.923 . S
O48 Zn50 1.950 . S
O48 Zn51 1.945 . S
Zn49 O48 1.923 . S
Zn49 O52 1.933 . S
Zn49 O55 1.941 . S
Zn49 O56 1.965 . S
Zn50 O48 1.950 . S
Zn50 O57 1.938 . S
Zn50 O58 1.906 . S
Zn50 O68 1.953 . S
Zn51 O48 1.945 . S
Zn51 O53 1.932 . S
Zn51 O60 1.977 . S
Zn51 O61 1.910 . S
O52 Zn49 1.933 . S
O52 C63 1.226 . S
O53 Zn51 1.932 . S
O53 C63 1.307 . S
O54 Zn47 1.919 . S
O54 C65 1.253 . S
O55 Zn49 1.941 . S
O55 C65 1.283 . S
O56 Zn49 1.965 . S
O56 C64 1.303 . S
O57 Zn50 1.938 . S
O57 C64 1.247 . S
O58 Zn50 1.906 . S
O58 C66 1.304 . S
O59 Zn47 1.924 . S
O59 C67 1.311 . S
O60 Zn51 1.977 . S
O60 C66 1.272 . S
O61 Zn51 1.910 . S
O61 C67 1.231 . S
C62 O46 1.225 . S
C62 O68 1.298 . S
C63 O52 1.226 . S
C63 O53 1.307 . S
C64 O56 1.303 . S
C64 O57 1.247 . S
C65 O54 1.253 . S
C65 O55 1.283 . S
C66 O58 1.304 . S
C66 O60 1.272 . S
C67 O59 1.311 . S
C67 O61 1.231 . S
O68 Zn50 1.953 . S
O68 C62 1.298 . S
H69 C72 0.931 . S
H70 C75 0.928 . S
H71 C77 0.930 . S
C72 H69 0.931 . S
C72 C73 1.413 . S
C72 C74 1.360 1_565 S
C73 C72 1.413 . S
C73 C77 1.429 1_565 S
C74 C72 1.360 1_545 S
C74 C75 1.372 . S
C75 H70 0.928 . S
C75 C74 1.372 . S
C75 C76 1.404 . S
C76 C75 1.404 . S
C76 C77 1.391 . S
C77 H71 0.930 . S
C77 C73 1.429 1_545 S
C77 C76 1.391 . S
H78 C81 0.931 . S
H79 C84 0.928 . S
H80 C86 0.930 . S
C81 H78 0.931 . S
C81 C82 1.413 . S
C81 C83 1.360 . S
C82 C81 1.413 . S
C82 C86 1.429 . S
C83 C81 1.360 . S
C83 C84 1.372 . S
C84 H79 0.928 . S
C84 C83 1.372 . S
C84 C85 1.404 . S
C85 C84 1.404 . S
C85 C86 1.391 . S
C86 H80 0.930 . S
C86 C82 1.429 . S
C86 C85 1.391 . S
H87 C90 0.931 . S
H88 C93 0.928 . S
H89 C95 0.930 . S
C90 H87 0.931 . S
C90 C91 1.413 . S
C90 C92 1.360 1_655 S
C91 C90 1.413 . S
C91 C95 1.429 1_655 S
C92 C90 1.360 1_455 S
C92 C93 1.372 . S
C93 H88 0.928 . S
C93 C92 1.372 . S
C93 C94 1.404 . S
C94 C93 1.404 . S
C94 C95 1.391 . S
C95 H89 0.930 . S
C95 C91 1.429 1_455 S
C95 C94 1.391 . S
H96 C99 0.931 . S
H97 C102 0.928 . S
H98 C104 0.930 . S
C99 H96 0.931 . S
C99 C100 1.413 . S
C99 C101 1.360 1_655 S
C100 C99 1.413 . S
C100 C104 1.429 1_655 S
C101 C99 1.360 1_455 S
C101 C102 1.372 . S
C102 H97 0.928 . S
C102 C101 1.372 . S
C102 C103 1.404 . S
C103 C102 1.404 . S
C103 C104 1.391 . S
C104 H98 0.930 . S
C104 C100 1.429 1_455 S
C104 C103 1.391 . S
H105 C108 0.931 . S
H106 C111 0.928 . S
H107 C113 0.930 . S
C108 H105 0.931 . S
C108 C109 1.413 . S
C108 C110 1.354 1_545 S
C109 C108 1.413 . S
C109 C113 1.412 1_545 S
C110 C108 1.354 1_565 S
C110 C111 1.378 . S
C111 H106 0.928 . S
C111 C110 1.378 . S
C111 C112 1.404 . S
C112 C111 1.404 . S
C112 C113 1.408 . S
C113 H107 0.930 . S
C113 C109 1.412 1_565 S
C113 C112 1.408 . S
H114 C117 0.931 . S
H115 C120 0.928 . S
H116 C122 0.930 . S
C117 H114 0.931 . S
C117 C118 1.413 . S
C117 C119 1.360 . S
C118 C117 1.413 . S
C118 C122 1.429 . S
C119 C117 1.360 . S
C119 C120 1.372 . S
C120 H115 0.928 . S
C120 C119 1.372 . S
C120 C121 1.404 . S
C121 C120 1.404 . S
C121 C122 1.391 . S
C122 H116 0.930 . S
C122 C118 1.429 . S
C122 C121 1.391 . S
H123 C131 0.929 . S
H124 C133 0.930 . S
H125 C135 0.930 . S
H126 C138 0.929 . S
H127 C141 0.930 . S
H128 C143 0.960 . S
H129 C143 0.960 . S
H130 C143 0.960 . S
C131 H123 0.929 . S
C131 C132 1.377 . S
C131 C133 1.384 . S
C132 C131 1.377 . S
C132 C138 1.390 . S
C133 H124 0.930 . S
C133 C131 1.384 . S
C133 C134 1.372 . S
C134 C133 1.372 . S
C134 C135 1.400 . S
C134 C139 1.490 . S
C135 H125 0.930 . S
C135 C134 1.400 . S
C135 C138 1.386 . S
H136 C152 0.930 . S
H137 C153 0.931 . S
C138 H126 0.929 . S
C138 C132 1.390 . S
C138 C135 1.386 . S
C139 C134 1.490 . S
C139 C141 1.395 . S
C139 C142 1.403 . S
H140 C146 0.930 . S
C141 H127 0.930 . S
C141 C139 1.395 . S
C141 C144 1.403 . S
C142 C139 1.403 . S
C142 C143 1.524 . S
C142 C146 1.400 . S
C143 H128 0.960 . S
C143 H129 0.960 . S
C143 H130 0.960 . S
C143 C142 1.524 . S
C144 C141 1.403 . S
C144 C145 1.392 . S
C144 C148 1.495 . S
C145 C144 1.392 . S
C145 C146 1.385 . S
C145 C147 1.478 . S
C146 H140 0.930 . S
C146 C142 1.400 . S
C146 C145 1.385 . S
C147 C145 1.478 . S
C147 C149 1.381 . S
C147 C153 1.383 . S
C148 C144 1.495 . S
C148 H154 0.959 . S
C148 H155 0.961 . S
C148 H156 0.960 . S
C149 C147 1.381 . S
C149 C150 1.394 . S
C149 H157 0.930 . S
C150 C149 1.394 . S
C150 C151 1.383 . S
C150 H158 0.929 . S
C151 C150 1.383 . S
C151 C152 1.377 . S
C152 H136 0.930 . S
C152 C151 1.377 . S
C152 C153 1.379 . S
C153 H137 0.931 . S
C153 C147 1.383 . S
C153 C152 1.379 . S
H154 C148 0.959 . S
H155 C148 0.961 . S
H156 C148 0.960 . S
H157 C149 0.930 . S
H158 C150 0.929 . S
H159 C167 0.929 . S
H160 C169 0.930 . S
H161 C171 0.930 . S
H162 C174 0.929 . S
H163 C177 0.930 . S
H164 C179 0.960 . S
H165 C179 0.960 . S
H166 C179 0.960 . S
C167 H159 0.929 . S
C167 C168 1.377 . S
C167 C169 1.384 . S
C168 C167 1.377 . S
C168 C174 1.390 . S
C169 H160 0.930 . S
C169 C167 1.384 . S
C169 C170 1.372 . S
C170 C169 1.372 . S
C170 C171 1.400 . S
C170 C175 1.490 . S
C171 H161 0.930 . S
C171 C170 1.400 . S
C171 C174 1.386 . S
H172 C188 0.930 . S
H173 C189 0.931 . S
C174 H162 0.929 . S
C174 C168 1.390 . S
C174 C171 1.386 . S
C175 C170 1.490 . S
C175 C177 1.395 . S
C175 C178 1.403 . S
H176 C182 0.930 . S
C177 H163 0.930 . S
C177 C175 1.395 . S
C177 C180 1.403 . S
C178 C175 1.403 . S
C178 C179 1.524 . S
C178 C182 1.400 . S
C179 H164 0.960 . S
C179 H165 0.960 . S
C179 H166 0.960 . S
C179 C178 1.524 . S
C180 C177 1.403 . S
C180 C181 1.392 . S
C180 C184 1.495 . S
C181 C180 1.392 . S
C181 C182 1.385 . S
C181 C183 1.478 . S
C182 H176 0.930 . S
C182 C178 1.400 . S
C182 C181 1.385 . S
C183 C181 1.478 . S
C183 C185 1.381 . S
C183 C189 1.383 . S
C184 C180 1.495 . S
C184 H190 0.959 . S
C184 H191 0.961 . S
C184 H192 0.960 . S
C185 C183 1.381 . S
C185 C186 1.394 . S
C185 H193 0.930 . S
C186 C185 1.394 . S
C186 C187 1.383 . S
C186 H194 0.929 . S
C187 C186 1.383 . S
C187 C188 1.377 . S
C188 H172 0.930 . S
C188 C187 1.377 . S
C188 C189 1.379 . S
C189 H173 0.931 . S
C189 C183 1.383 . S
C189 C188 1.379 . S
H190 C184 0.959 . S
H191 C184 0.961 . S
H192 C184 0.960 . S
H193 C185 0.930 . S
H194 C186 0.929 . S
H195 C203 0.929 . S
H196 C205 0.930 . S
H197 C207 0.930 . S
H198 C210 0.929 . S
H199 C213 0.930 . S
H200 C215 0.960 . S
H201 C215 0.960 . S
H202 C215 0.960 . S
C203 H195 0.929 . S
C203 C204 1.377 . S
C203 C205 1.384 . S
C204 C203 1.377 . S
C204 C210 1.390 . S
C205 H196 0.930 . S
C205 C203 1.384 . S
C205 C206 1.372 . S
C206 C205 1.372 . S
C206 C207 1.400 . S
C206 C211 1.490 . S
C207 H197 0.930 . S
C207 C206 1.400 . S
C207 C210 1.386 . S
H208 C224 0.930 . S
H209 C225 0.931 . S
C210 H198 0.929 . S
C210 C204 1.390 . S
C210 C207 1.386 . S
C211 C206 1.490 . S
C211 C213 1.395 . S
C211 C214 1.403 . S
H212 C218 0.930 . S
C213 H199 0.930 . S
C213 C211 1.395 . S
C213 C216 1.403 . S
C214 C211 1.403 . S
C214 C215 1.524 . S
C214 C218 1.400 . S
C215 H200 0.960 . S
C215 H201 0.960 . S
C215 H202 0.960 . S
C215 C214 1.524 . S
C216 C213 1.403 . S
C216 C217 1.392 . S
C216 C220 1.495 . S
C217 C216 1.392 . S
C217 C218 1.385 . S
C217 C219 1.478 . S
C218 H212 0.930 . S
C218 C214 1.400 . S
C218 C217 1.385 . S
C219 C217 1.478 . S
C219 C221 1.381 . S
C219 C225 1.383 . S
C220 C216 1.495 . S
C220 H226 0.959 . S
C220 H227 0.961 . S
C220 H228 0.960 . S
C221 C219 1.381 . S
C221 C222 1.394 . S
C221 H229 0.930 . S
C222 C221 1.394 . S
C222 C223 1.383 . S
C222 H230 0.929 . S
C223 C222 1.383 . S
C223 C224 1.377 . S
C224 H208 0.930 . S
C224 C223 1.377 . S
C224 C225 1.379 . S
C225 H209 0.931 . S
C225 C219 1.383 . S
C225 C224 1.379 . S
H226 C220 0.959 . S
H227 C220 0.961 . S
H228 C220 0.960 . S
H229 C221 0.930 . S
H230 C222 0.929 . S
H231 C239 0.929 . S
H232 C241 0.930 . S
H233 C243 0.930 . S
H234 C246 0.929 . S
H235 C249 0.930 . S
H236 C251 0.960 . S
H237 C251 0.960 . S
H238 C251 0.960 . S
C239 H231 0.929 . S
C239 C240 1.377 . S
C239 C241 1.384 . S
C240 C239 1.377 . S
C240 C246 1.390 . S
C241 H232 0.930 . S
C241 C239 1.384 . S
C241 C242 1.372 . S
C242 C241 1.372 . S
C242 C243 1.400 . S
C242 C247 1.490 . S
C243 H233 0.930 . S
C243 C242 1.400 . S
C243 C246 1.386 . S
H244 C260 0.930 . S
H245 C261 0.931 . S
C246 H234 0.929 . S
C246 C240 1.390 . S
C246 C243 1.386 . S
C247 C242 1.490 . S
C247 C249 1.395 . S
C247 C250 1.403 . S
H248 C254 0.930 . S
C249 H235 0.930 . S
C249 C247 1.395 . S
C249 C252 1.403 . S
C250 C247 1.403 . S
C250 C251 1.524 . S
C250 C254 1.400 . S
C251 H236 0.960 . S
C251 H237 0.960 . S
C251 H238 0.960 . S
C251 C250 1.524 . S
C252 C249 1.403 . S
C252 C253 1.392 . S
C252 C256 1.495 . S
C253 C252 1.392 . S
C253 C254 1.385 . S
C253 C255 1.478 . S
C254 H248 0.930 . S
C254 C250 1.400 . S
C254 C253 1.385 . S
C255 C253 1.478 . S
C255 C257 1.381 . S
C255 C261 1.383 . S
C256 C252 1.495 . S
C256 H262 0.959 . S
C256 H263 0.961 . S
C256 H264 0.960 . S
C257 C255 1.381 . S
C257 C258 1.394 . S
C257 H265 0.930 . S
C258 C257 1.394 . S
C258 C259 1.383 . S
C258 H266 0.929 . S
C259 C258 1.383 . S
C259 C260 1.377 . S
C260 H244 0.930 . S
C260 C259 1.377 . S
C260 C261 1.379 . S
C261 H245 0.931 . S
C261 C255 1.383 . S
C261 C260 1.379 . S
H262 C256 0.959 . S
H263 C256 0.961 . S
H264 C256 0.960 . S
H265 C257 0.930 . S
H266 C258 0.929 . S
H267 C275 0.929 . S
H268 C277 0.930 . S
H269 C279 0.930 . S
H270 C282 0.929 . S
H271 C285 0.930 . S
H272 C287 0.960 . S
H273 C287 0.960 . S
H274 C287 0.960 . S
C275 H267 0.929 . S
C275 C276 1.377 . S
C275 C277 1.384 . S
C276 C275 1.377 . S
C276 C282 1.390 . S
C277 H268 0.930 . S
C277 C275 1.384 . S
C277 C278 1.372 . S
C278 C277 1.372 . S
C278 C279 1.400 . S
C278 C283 1.490 . S
C279 H269 0.930 . S
C279 C278 1.400 . S
C279 C282 1.386 . S
H280 C296 0.930 . S
H281 C297 0.931 . S
C282 H270 0.929 . S
C282 C276 1.390 . S
C282 C279 1.386 . S
C283 C278 1.490 . S
C283 C285 1.395 . S
C283 C286 1.403 . S
H284 C290 0.930 . S
C285 H271 0.930 . S
C285 C283 1.395 . S
C285 C288 1.403 . S
C286 C283 1.403 . S
C286 C287 1.524 . S
C286 C290 1.400 . S
C287 H272 0.960 . S
C287 H273 0.960 . S
C287 H274 0.960 . S
C287 C286 1.524 . S
C288 C285 1.403 . S
C288 C289 1.392 . S
C288 C292 1.495 . S
C289 C288 1.392 . S
C289 C290 1.385 . S
C289 C291 1.478 . S
C290 H284 0.930 . S
C290 C286 1.400 . S
C290 C289 1.385 . S
C291 C289 1.478 . S
C291 C293 1.381 . S
C291 C297 1.383 . S
C292 C288 1.495 . S
C292 H298 0.959 . S
C292 H299 0.961 . S
C292 H300 0.960 . S
C293 C291 1.381 . S
C293 C294 1.394 . S
C293 H301 0.930 . S
C294 C293 1.394 . S
C294 C295 1.383 . S
C294 H302 0.929 . S
C295 C294 1.383 . S
C295 C296 1.377 . S
C296 H280 0.930 . S
C296 C295 1.377 . S
C296 C297 1.379 . S
C297 H281 0.931 . S
C297 C291 1.383 . S
C297 C296 1.379 . S
H298 C292 0.959 . S
H299 C292 0.961 . S
H300 C292 0.960 . S
H301 C293 0.930 . S
H302 C294 0.929 . S
H303 C311 0.929 . S
H304 C313 0.930 . S
H305 C315 0.930 . S
H306 C318 0.929 . S
H307 C321 0.930 . S
H308 C323 0.960 . S
H309 C323 0.960 . S
H310 C323 0.960 . S
C311 H303 0.929 . S
C311 C312 1.377 . S
C311 C313 1.384 . S
C312 C311 1.377 . S
C312 C318 1.390 . S
C313 H304 0.930 . S
C313 C311 1.384 . S
C313 C314 1.372 . S
C314 C313 1.372 . S
C314 C315 1.400 . S
C314 C319 1.490 . S
C315 H305 0.930 . S
C315 C314 1.400 . S
C315 C318 1.386 . S
H316 C332 0.930 . S
H317 C333 0.931 . S
C318 H306 0.929 . S
C318 C312 1.390 . S
C318 C315 1.386 . S
C319 C314 1.490 . S
C319 C321 1.395 . S
C319 C322 1.403 . S
H320 C326 0.930 . S
C321 H307 0.930 . S
C321 C319 1.395 . S
C321 C324 1.403 . S
C322 C319 1.403 . S
C322 C323 1.524 . S
C322 C326 1.400 . S
C323 H308 0.960 . S
C323 H309 0.960 . S
C323 H310 0.960 . S
C323 C322 1.524 . S
C324 C321 1.403 . S
C324 C325 1.392 . S
C324 C328 1.495 . S
C325 C324 1.392 . S
C325 C326 1.385 . S
C325 C327 1.478 . S
C326 H320 0.930 . S
C326 C322 1.400 . S
C326 C325 1.385 . S
C327 C325 1.478 . S
C327 C329 1.381 . S
C327 C333 1.383 . S
C328 C324 1.495 . S
C328 H334 0.959 . S
C328 H335 0.961 . S
C328 H336 0.960 . S
C329 C327 1.381 . S
C329 C330 1.394 . S
C329 H337 0.930 . S
C330 C329 1.394 . S
C330 C331 1.383 . S
C330 H338 0.929 . S
C331 C330 1.383 . S
C331 C332 1.377 . S
C332 H316 0.930 . S
C332 C331 1.377 . S
C332 C333 1.379 . S
C333 H317 0.931 . S
C333 C327 1.383 . S
C333 C332 1.379 . S
H334 C328 0.959 . S
H335 C328 0.961 . S
H336 C328 0.960 . S
H337 C329 0.930 . S
H338 C330 0.929 . S
H339 C347 0.929 . S
H340 C349 0.930 . S
H341 C351 0.930 . S
H342 C354 0.929 . S
H343 C357 0.930 . S
H344 C359 0.960 . S
H345 C359 0.960 . S
H346 C359 0.960 . S
C347 H339 0.929 . S
C347 C348 1.377 . S
C347 C349 1.384 . S
C348 C347 1.377 . S
C348 C354 1.390 . S
C349 H340 0.930 . S
C349 C347 1.384 . S
C349 C350 1.372 . S
C350 C349 1.372 . S
C350 C351 1.400 . S
C350 C355 1.490 . S
C351 H341 0.930 . S
C351 C350 1.400 . S
C351 C354 1.386 . S
H352 C368 0.930 . S
H353 C369 0.931 . S
C354 H342 0.929 . S
C354 C348 1.390 . S
C354 C351 1.386 . S
C355 C350 1.490 . S
C355 C357 1.395 . S
C355 C358 1.403 . S
H356 C362 0.930 . S
C357 H343 0.930 . S
C357 C355 1.395 . S
C357 C360 1.403 . S
C358 C355 1.403 . S
C358 C359 1.524 . S
C358 C362 1.400 . S
C359 H344 0.960 . S
C359 H345 0.960 . S
C359 H346 0.960 . S
C359 C358 1.524 . S
C360 C357 1.403 . S
C360 C361 1.392 . S
C360 C364 1.495 . S
C361 C360 1.392 . S
C361 C362 1.385 . S
C361 C363 1.478 . S
C362 H356 0.930 . S
C362 C358 1.400 . S
C362 C361 1.385 . S
C363 C361 1.478 . S
C363 C365 1.381 . S
C363 C369 1.383 . S
C364 C360 1.495 . S
C364 H370 0.959 . S
C364 H371 0.961 . S
C364 H372 0.960 . S
C365 C363 1.381 . S
C365 C366 1.394 . S
C365 H373 0.930 . S
C366 C365 1.394 . S
C366 C367 1.383 . S
C366 H374 0.929 . S
C367 C366 1.383 . S
C367 C368 1.377 . S
C368 H352 0.930 . S
C368 C367 1.377 . S
C368 C369 1.379 . S
C369 H353 0.931 . S
C369 C363 1.383 . S
C369 C368 1.379 . S
H370 C364 0.959 . S
H371 C364 0.961 . S
H372 C364 0.960 . S
H373 C365 0.930 . S
H374 C366 0.929 . S
H375 C383 0.929 . S
H376 C385 0.930 . S
H377 C387 0.930 . S
H378 C390 0.929 . S
H379 C393 0.930 . S
H380 C395 0.960 . S
H381 C395 0.960 . S
H382 C395 0.960 . S
C383 H375 0.929 . S
C383 C384 1.377 . S
C383 C385 1.384 . S
C384 C383 1.377 . S
C384 C390 1.390 . S
C385 H376 0.930 . S
C385 C383 1.384 . S
C385 C386 1.372 . S
C386 C385 1.372 . S
C386 C387 1.400 . S
C386 C391 1.490 . S
C387 H377 0.930 . S
C387 C386 1.400 . S
C387 C390 1.386 . S
H388 C404 0.930 . S
H389 C405 0.931 . S
C390 H378 0.929 . S
C390 C384 1.390 . S
C390 C387 1.386 . S
C391 C386 1.490 . S
C391 C393 1.395 . S
C391 C394 1.403 . S
H392 C398 0.930 . S
C393 H379 0.930 . S
C393 C391 1.395 . S
C393 C396 1.403 . S
C394 C391 1.403 . S
C394 C395 1.524 . S
C394 C398 1.400 . S
C395 H380 0.960 . S
C395 H381 0.960 . S
C395 H382 0.960 . S
C395 C394 1.524 . S
C396 C393 1.403 . S
C396 C397 1.392 . S
C396 C400 1.495 . S
C397 C396 1.392 . S
C397 C398 1.385 . S
C397 C399 1.478 . S
C398 H392 0.930 . S
C398 C394 1.400 . S
C398 C397 1.385 . S
C399 C397 1.478 . S
C399 C401 1.381 . S
C399 C405 1.383 . S
C400 C396 1.495 . S
C400 H406 0.959 . S
C400 H407 0.961 . S
C400 H408 0.960 . S
C401 C399 1.381 . S
C401 C402 1.394 . S
C401 H409 0.930 . S
C402 C401 1.394 . S
C402 C403 1.383 . S
C402 H410 0.929 . S
C403 C402 1.383 . S
C403 C404 1.377 . S
C404 H388 0.930 . S
C404 C403 1.377 . S
C404 C405 1.379 . S
C405 H389 0.931 . S
C405 C399 1.383 . S
C405 C404 1.379 . S
H406 C400 0.959 . S
H407 C400 0.961 . S
H408 C400 0.960 . S
H409 C401 0.930 . S
H410 C402 0.929 . S
H411 C419 0.929 . S
H412 C421 0.930 . S
H413 C423 0.930 . S
H414 C426 0.929 . S
H415 C429 0.930 . S
H416 C431 0.960 . S
H417 C431 0.960 . S
H418 C431 0.960 . S
C419 H411 0.929 . S
C419 C420 1.377 . S
C419 C421 1.384 . S
C420 C419 1.377 . S
C420 C426 1.390 . S
C421 H412 0.930 . S
C421 C419 1.384 . S
C421 C422 1.372 . S
C422 C421 1.372 . S
C422 C423 1.400 . S
C422 C427 1.490 . S
C423 H413 0.930 . S
C423 C422 1.400 . S
C423 C426 1.386 . S
H424 C440 0.930 . S
H425 C441 0.931 . S
C426 H414 0.929 . S
C426 C420 1.390 . S
C426 C423 1.386 . S
C427 C422 1.490 . S
C427 C429 1.395 . S
C427 C430 1.403 . S
H428 C434 0.930 . S
C429 H415 0.930 . S
C429 C427 1.395 . S
C429 C432 1.403 . S
C430 C427 1.403 . S
C430 C431 1.524 . S
C430 C434 1.400 . S
C431 H416 0.960 . S
C431 H417 0.960 . S
C431 H418 0.960 . S
C431 C430 1.524 . S
C432 C429 1.403 . S
C432 C433 1.392 . S
C432 C436 1.495 . S
C433 C432 1.392 . S
C433 C434 1.385 . S
C433 C435 1.478 . S
C434 H428 0.930 . S
C434 C430 1.400 . S
C434 C433 1.385 . S
C435 C433 1.478 . S
C435 C437 1.381 . S
C435 C441 1.383 . S
C436 C432 1.495 . S
C436 H442 0.959 . S
C436 H443 0.961 . S
C436 H444 0.960 . S
C437 C435 1.381 . S
C437 C438 1.394 . S
C437 H445 0.930 . S
C438 C437 1.394 . S
C438 C439 1.383 . S
C438 H446 0.929 . S
C439 C438 1.383 . S
C439 C440 1.377 . S
C440 H424 0.930 . S
C440 C439 1.377 . S
C440 C441 1.379 . S
C441 H425 0.931 . S
C441 C435 1.383 . S
C441 C440 1.379 . S
H442 C436 0.959 . S
H443 C436 0.961 . S
H444 C436 0.960 . S
H445 C437 0.930 . S
H446 C438 0.929 . S
H447 C455 0.929 . S
H448 C457 0.930 . S
H449 C459 0.930 . S
H450 C462 0.929 . S
H451 C465 0.930 . S
H452 C467 0.960 . S
H453 C467 0.960 . S
H454 C467 0.960 . S
C455 H447 0.929 . S
C455 C456 1.377 . S
C455 C457 1.384 . S
C456 C455 1.377 . S
C456 C462 1.390 . S
C457 H448 0.930 . S
C457 C455 1.384 . S
C457 C458 1.372 . S
C458 C457 1.372 . S
C458 C459 1.400 . S
C458 C463 1.490 . S
C459 H449 0.930 . S
C459 C458 1.400 . S
C459 C462 1.386 . S
H460 C476 0.930 . S
H461 C477 0.931 . S
C462 H450 0.929 . S
C462 C456 1.390 . S
C462 C459 1.386 . S
C463 C458 1.490 . S
C463 C465 1.395 . S
C463 C466 1.403 . S
H464 C470 0.930 . S
C465 H451 0.930 . S
C465 C463 1.395 . S
C465 C468 1.403 . S
C466 C463 1.403 . S
C466 C467 1.524 . S
C466 C470 1.400 . S
C467 H452 0.960 . S
C467 H453 0.960 . S
C467 H454 0.960 . S
C467 C466 1.524 . S
C468 C465 1.403 . S
C468 C469 1.392 . S
C468 C472 1.495 . S
C469 C468 1.392 . S
C469 C470 1.385 . S
C469 C471 1.478 . S
C470 H464 0.930 . S
C470 C466 1.400 . S
C470 C469 1.385 . S
C471 C469 1.478 . S
C471 C473 1.381 . S
C471 C477 1.383 . S
C472 C468 1.495 . S
C472 H478 0.959 . S
C472 H479 0.961 . S
C472 H480 0.960 . S
C473 C471 1.381 . S
C473 C474 1.394 . S
C473 H481 0.930 . S
C474 C473 1.394 . S
C474 C475 1.383 . S
C474 H482 0.929 . S
C475 C474 1.383 . S
C475 C476 1.377 . S
C476 H460 0.930 . S
C476 C475 1.377 . S
C476 C477 1.379 . S
C477 H461 0.931 . S
C477 C471 1.383 . S
C477 C476 1.379 . S
H478 C472 0.959 . S
H479 C472 0.961 . S
H480 C472 0.960 . S
H481 C473 0.930 . S
H482 C474 0.929 . S
H483 C491 0.929 . S
H484 C493 0.930 . S
H485 C495 0.930 . S
H486 C498 0.929 . S
H487 C501 0.930 . S
H488 C503 0.960 . S
H489 C503 0.960 . S
H490 C503 0.960 . S
C491 H483 0.929 . S
C491 C492 1.377 . S
C491 C493 1.384 . S
C492 C491 1.377 . S
C492 C498 1.390 . S
C493 H484 0.930 . S
C493 C491 1.384 . S
C493 C494 1.372 . S
C494 C493 1.372 . S
C494 C495 1.400 . S
C494 C499 1.490 . S
C495 H485 0.930 . S
C495 C494 1.400 . S
C495 C498 1.386 . S
H496 C512 0.930 . S
H497 C513 0.931 . S
C498 H486 0.929 . S
C498 C492 1.390 . S
C498 C495 1.386 . S
C499 C494 1.490 . S
C499 C501 1.395 . S
C499 C502 1.403 . S
H500 C506 0.930 . S
C501 H487 0.930 . S
C501 C499 1.395 . S
C501 C504 1.403 . S
C502 C499 1.403 . S
C502 C503 1.524 . S
C502 C506 1.400 . S
C503 H488 0.960 . S
C503 H489 0.960 . S
C503 H490 0.960 . S
C503 C502 1.524 . S
C504 C501 1.403 . S
C504 C505 1.392 . S
C504 C508 1.495 . S
C505 C504 1.392 . S
C505 C506 1.385 . S
C505 C507 1.478 . S
C506 H500 0.930 . S
C506 C502 1.400 . S
C506 C505 1.385 . S
C507 C505 1.478 . S
C507 C509 1.381 . S
C507 C513 1.383 . S
C508 C504 1.495 . S
C508 H514 0.959 . S
C508 H515 0.961 . S
C508 H516 0.960 . S
C509 C507 1.381 . S
C509 C510 1.394 . S
C509 H517 0.930 . S
C510 C509 1.394 . S
C510 C511 1.383 . S
C510 H518 0.929 . S
C511 C510 1.383 . S
C511 C512 1.377 . S
C512 H496 0.930 . S
C512 C511 1.377 . S
C512 C513 1.379 . S
C513 H497 0.931 . S
C513 C507 1.383 . S
C513 C512 1.379 . S
H514 C508 0.959 . S
H515 C508 0.961 . S
H516 C508 0.960 . S
H517 C509 0.930 . S
H518 C510 0.929 . S
H519 C527 0.929 . S
H520 C529 0.930 . S
H521 C531 0.930 . S
H522 C534 0.929 . S
H523 C537 0.930 . S
H524 C539 0.960 . S
H525 C539 0.960 . S
H526 C539 0.960 . S
C527 H519 0.929 . S
C527 C528 1.377 . S
C527 C529 1.384 . S
C528 C527 1.377 . S
C528 C534 1.390 . S
C529 H520 0.930 . S
C529 C527 1.384 . S
C529 C530 1.372 . S
C530 C529 1.372 . S
C530 C531 1.400 . S
C530 C535 1.490 . S
C531 H521 0.930 . S
C531 C530 1.400 . S
C531 C534 1.386 . S
H532 C548 0.930 . S
H533 C549 0.931 . S
C534 H522 0.929 . S
C534 C528 1.390 . S
C534 C531 1.386 . S
C535 C530 1.490 . S
C535 C537 1.395 . S
C535 C538 1.403 . S
H536 C542 0.930 . S
C537 H523 0.930 . S
C537 C535 1.395 . S
C537 C540 1.403 . S
C538 C535 1.403 . S
C538 C539 1.524 . S
C538 C542 1.400 . S
C539 H524 0.960 . S
C539 H525 0.960 . S
C539 H526 0.960 . S
C539 C538 1.524 . S
C540 C537 1.403 . S
C540 C541 1.392 . S
C540 C544 1.495 . S
C541 C540 1.392 . S
C541 C542 1.385 . S
C541 C543 1.478 . S
C542 H536 0.930 . S
C542 C538 1.400 . S
C542 C541 1.385 . S
C543 C541 1.478 . S
C543 C545 1.381 . S
C543 C549 1.383 . S
C544 C540 1.495 . S
C544 H550 0.959 . S
C544 H551 0.961 . S
C544 H552 0.960 . S
C545 C543 1.381 . S
C545 C546 1.394 . S
C545 H553 0.930 . S
C546 C545 1.394 . S
C546 C547 1.383 . S
C546 H554 0.929 . S
C547 C546 1.383 . S
C547 C548 1.377 . S
C548 H532 0.930 . S
C548 C547 1.377 . S
C548 C549 1.379 . S
C549 H533 0.931 . S
C549 C543 1.383 . S
C549 C548 1.379 . S
H550 C544 0.959 . S
H551 C544 0.961 . S
H552 C544 0.960 . S
H553 C545 0.930 . S
H554 C546 0.929 . S
H555 C563 0.929 . S
H556 C565 0.930 . S
H557 C567 0.930 . S
H558 C570 0.929 . S
H559 C573 0.930 . S
H560 C575 0.960 . S
H561 C575 0.960 . S
H562 C575 0.960 1_455 S
C563 H555 0.929 . S
C563 C564 1.377 1_655 S
C563 C565 1.384 . S
C564 C563 1.377 1_455 S
C564 C570 1.390 . S
C565 H556 0.930 . S
C565 C563 1.384 . S
C565 C566 1.372 1_655 S
C566 C565 1.372 1_455 S
C566 C567 1.400 . S
C566 C571 1.490 . S
C567 H557 0.930 . S
C567 C566 1.400 . S
C567 C570 1.386 . S
H568 C584 0.930 . S
H569 C585 0.931 . S
C570 H558 0.929 . S
C570 C564 1.390 . S
C570 C567 1.386 . S
C571 C566 1.490 . S
C571 C573 1.395 . S
C571 C574 1.403 . S
H572 C578 0.930 . S
C573 H559 0.930 . S
C573 C571 1.395 . S
C573 C576 1.403 . S
C574 C571 1.403 . S
C574 C575 1.524 1_455 S
C574 C578 1.400 . S
C575 H560 0.960 . S
C575 H561 0.960 . S
C575 H562 0.960 1_655 S
C575 C574 1.524 1_655 S
C576 C573 1.403 . S
C576 C577 1.392 . S
C576 C580 1.495 . S
C577 C576 1.392 . S
C577 C578 1.385 . S
C577 C579 1.478 1_554 S
C578 H572 0.930 . S
C578 C574 1.400 . S
C578 C577 1.385 . S
C579 C577 1.478 1_556 S
C579 C581 1.381 1_455 S
C579 C585 1.383 . S
C580 C576 1.495 . S
C580 H586 0.959 . S
C580 H587 0.961 . S
C580 H588 0.972 1_455 S
C581 C579 1.381 1_655 S
C581 C582 1.394 . S
C581 H589 0.930 . S
C582 C581 1.394 . S
C582 C583 1.383 1_655 S
C582 H590 0.929 . S
C583 C582 1.383 1_455 S
C583 C584 1.377 . S
C584 H568 0.930 . S
C584 C583 1.377 . S
C584 C585 1.379 . S
C585 H569 0.931 . S
C585 C579 1.383 . S
C585 C584 1.379 . S
H586 C580 0.959 . S
H587 C580 0.961 . S
H588 C580 0.972 1_655 S
H589 C581 0.930 . S
H590 C582 0.929 . S
H591 C599 0.929 . S
H592 C601 0.930 . S
H593 C603 0.930 . S
H594 C606 0.929 . S
H595 C609 0.930 . S
H596 C611 0.960 . S
H597 C611 0.960 . S
H598 C611 0.960 . S
C599 H591 0.929 . S
C599 C600 1.377 1_565 S
C599 C601 1.384 . S
C600 C599 1.377 1_545 S
C600 C606 1.390 . S
C601 H592 0.930 . S
C601 C599 1.384 . S
C601 C602 1.372 1_565 S
C602 C601 1.372 1_545 S
C602 C603 1.400 . S
C602 C607 1.490 . S
C603 H593 0.930 . S
C603 C602 1.400 . S
C603 C606 1.386 . S
H604 C620 0.930 . S
H605 C621 0.931 . S
C606 H594 0.929 . S
C606 C600 1.390 . S
C606 C603 1.386 . S
C607 C602 1.490 . S
C607 C609 1.395 1_545 S
C607 C610 1.403 . S
H608 C614 0.930 . S
C609 H595 0.930 . S
C609 C607 1.395 1_565 S
C609 C612 1.403 . S
C610 C607 1.403 . S
C610 C611 1.524 . S
C610 C614 1.400 . S
C611 H596 0.960 . S
C611 H597 0.960 . S
C611 H598 0.960 . S
C611 C610 1.524 . S
C612 C609 1.403 . S
C612 C613 1.376 1_565 S
C612 C616 1.495 . S
C613 C612 1.376 1_545 S
C613 C614 1.403 . S
C613 C615 1.478 . S
C614 H608 0.930 . S
C614 C610 1.400 . S
C614 C613 1.403 . S
C615 C613 1.478 . S
C615 C617 1.373 1_545 S
C615 C621 1.392 . S
C616 C612 1.495 . S
C616 H622 0.959 . S
C616 H623 0.961 . S
C616 H624 0.960 . S
C617 C615 1.373 1_565 S
C617 C618 1.394 . S
C617 H625 0.930 . S
C618 C617 1.394 . S
C618 C619 1.383 1_565 S
C618 H626 0.929 . S
C619 C618 1.383 1_545 S
C619 C620 1.377 . S
C620 H604 0.930 . S
C620 C619 1.377 . S
C620 C621 1.379 . S
C621 H605 0.931 . S
C621 C615 1.392 . S
C621 C620 1.379 . S
H622 C616 0.959 . S
H623 C616 0.961 . S
H624 C616 0.960 . S
H625 C617 0.930 . S
H626 C618 0.929 . S
H627 C635 0.929 . S
H628 C637 0.930 . S
H629 C639 0.930 . S
H630 C642 0.929 . S
H631 C645 0.930 . S
H632 C647 0.960 . S
H633 C647 0.960 . S
H634 C647 0.960 . S
C635 H627 0.929 . S
C635 C636 1.377 . S
C635 C637 1.384 . S
C636 C635 1.377 . S
C636 C642 1.390 . S
C637 H628 0.930 . S
C637 C635 1.384 . S
C637 C638 1.372 . S
C638 C637 1.372 . S
C638 C639 1.400 . S
C638 C643 1.490 . S
C639 H629 0.930 . S
C639 C638 1.400 . S
C639 C642 1.386 . S
H640 C656 0.930 . S
H641 C657 0.931 . S
C642 H630 0.929 . S
C642 C636 1.390 . S
C642 C639 1.386 . S
C643 C638 1.490 . S
C643 C645 1.395 . S
C643 C646 1.403 . S
H644 C650 0.930 . S
C645 H631 0.930 . S
C645 C643 1.395 . S
C645 C648 1.403 . S
C646 C643 1.403 . S
C646 C647 1.524 . S
C646 C650 1.400 . S
C647 H632 0.960 . S
C647 H633 0.960 . S
C647 H634 0.960 . S
C647 C646 1.524 . S
C648 C645 1.403 . S
C648 C649 1.392 . S
C648 C652 1.495 . S
C649 C648 1.392 . S
C649 C650 1.385 . S
C649 C651 1.478 . S
C650 H644 0.930 . S
C650 C646 1.400 . S
C650 C649 1.385 . S
C651 C649 1.478 . S
C651 C653 1.381 . S
C651 C657 1.383 . S
C652 C648 1.495 . S
C652 H658 0.959 . S
C652 H659 0.961 . S
C652 H660 0.960 . S
C653 C651 1.381 . S
C653 C654 1.394 . S
C653 H661 0.930 . S
C654 C653 1.394 . S
C654 C655 1.383 . S
C654 H662 0.929 . S
C655 C654 1.383 . S
C655 C656 1.377 . S
C656 H640 0.930 . S
C656 C655 1.377 . S
C656 C657 1.379 . S
C657 H641 0.931 . S
C657 C651 1.383 . S
C657 C656 1.379 . S
H658 C652 0.959 . S
H659 C652 0.961 . S
H660 C652 0.960 . S
H661 C653 0.930 . S
H662 C654 0.929 . S
H663 C671 0.929 . S
H664 C673 0.930 . S
H665 C675 0.930 . S
H666 C678 0.929 . S
H667 C681 0.930 . S
H668 C683 0.960 . S
H669 C683 0.960 1_565 S
H670 C683 0.960 . S
C671 H663 0.929 . S
C671 C672 1.377 1_565 S
C671 C673 1.384 . S
C672 C671 1.377 1_545 S
C672 C678 1.390 . S
C673 H664 0.930 . S
C673 C671 1.384 . S
C673 C674 1.372 1_565 S
C674 C673 1.372 1_545 S
C674 C675 1.400 . S
C674 C679 1.490 . S
C675 H665 0.930 . S
C675 C674 1.400 . S
C675 C678 1.386 . S
H676 C692 0.930 . S
H677 C693 0.931 . S
C678 H666 0.929 . S
C678 C672 1.390 . S
C678 C675 1.386 . S
C679 C674 1.490 . S
C679 C681 1.395 1_545 S
C679 C682 1.402 . S
H680 C686 0.930 . S
C681 H667 0.930 . S
C681 C679 1.395 1_565 S
C681 C684 1.403 . S
C682 C679 1.402 . S
C682 C683 1.524 . S
C682 C686 1.400 . S
C683 H668 0.960 . S
C683 H669 0.960 1_545 S
C683 H670 0.960 . S
C683 C682 1.524 . S
C684 C681 1.403 . S
C684 C685 1.392 . S
C684 C688 1.495 . S
C685 C684 1.392 . S
C685 C686 1.385 1_565 S
C685 C687 1.478 . S
C686 H680 0.930 . S
C686 C682 1.400 . S
C686 C685 1.385 1_545 S
C687 C685 1.478 . S
C687 C689 1.381 . S
C687 C693 1.383 1_565 S
C688 C684 1.495 . S
C688 H694 0.959 . S
C688 H695 0.960 . S
C688 H696 0.960 . S
C689 C687 1.381 . S
C689 C690 1.394 . S
C689 H697 0.930 . S
C690 C689 1.394 . S
C690 C691 1.382 . S
C690 H698 0.929 . S
C691 C690 1.382 . S
C691 C692 1.378 1_565 S
C692 H676 0.930 . S
C692 C691 1.378 1_545 S
C692 C693 1.379 . S
C693 H677 0.931 . S
C693 C687 1.383 1_545 S
C693 C692 1.379 . S
H694 C688 0.959 . S
H695 C688 0.960 . S
H696 C688 0.960 . S
H697 C689 0.930 . S
H698 C690 0.929 . S
H699 C707 0.929 . S
H700 C709 0.930 . S
H701 C711 0.930 . S
H702 C714 0.929 . S
H703 C717 0.930 . S
H704 C719 0.960 . S
H705 C719 0.960 . S
H706 C719 0.960 . S
C707 H699 0.929 . S
C707 C708 1.377 . S
C707 C709 1.384 . S
C708 C707 1.377 . S
C708 C714 1.390 . S
C709 H700 0.930 . S
C709 C707 1.384 . S
C709 C710 1.372 . S
C710 C709 1.372 . S
C710 C711 1.400 . S
C710 C715 1.490 . S
C711 H701 0.930 . S
C711 C710 1.400 . S
C711 C714 1.386 . S
H712 C728 0.930 . S
H713 C729 0.931 . S
C714 H702 0.929 . S
C714 C708 1.390 . S
C714 C711 1.386 . S
C715 C710 1.490 . S
C715 C717 1.395 . S
C715 C718 1.403 . S
H716 C722 0.930 . S
C717 H703 0.930 . S
C717 C715 1.395 . S
C717 C720 1.403 . S
C718 C715 1.403 . S
C718 C719 1.524 . S
C718 C722 1.400 . S
C719 H704 0.960 . S
C719 H705 0.960 . S
C719 H706 0.960 . S
C719 C718 1.524 . S
C720 C717 1.403 . S
C720 C721 1.392 . S
C720 C724 1.495 . S
C721 C720 1.392 . S
C721 C722 1.385 . S
C721 C723 1.478 1_556 S
C722 H716 0.930 . S
C722 C718 1.400 . S
C722 C721 1.385 . S
C723 C721 1.478 1_554 S
C723 C725 1.381 . S
C723 C729 1.383 . S
C724 C720 1.495 . S
C724 H730 0.959 . S
C724 H731 0.982 . S
C724 H732 0.938 1_556 S
C725 C723 1.381 . S
C725 C726 1.394 . S
C725 H733 0.930 . S
C726 C725 1.394 . S
C726 C727 1.383 . S
C726 H734 0.929 . S
C727 C726 1.383 . S
C727 C728 1.377 . S
C728 H712 0.930 . S
C728 C727 1.377 . S
C728 C729 1.379 . S
C729 H713 0.931 . S
C729 C723 1.383 . S
C729 C728 1.379 . S
H730 C724 0.959 . S
H731 C724 0.982 . S
H732 C724 0.938 1_554 S
H733 C725 0.930 . S
H734 C726 0.929 . S
H735 C743 0.929 . S
H736 C745 0.930 . S
H737 C747 0.930 . S
H738 C750 0.929 . S
H739 C753 0.930 . S
H740 C755 0.960 . S
H741 C755 0.960 . S
H742 C755 0.960 . S
C743 H735 0.929 . S
C743 C744 1.377 1_655 S
C743 C745 1.384 . S
C744 C743 1.377 1_455 S
C744 C750 1.390 . S
C745 H736 0.930 . S
C745 C743 1.384 . S
C745 C746 1.372 1_655 S
C746 C745 1.372 1_455 S
C746 C747 1.400 . S
C746 C751 1.491 . S
C747 H737 0.930 . S
C747 C746 1.400 . S
C747 C750 1.386 . S
H748 C764 0.930 . S
H749 C765 0.931 . S
C750 H738 0.929 . S
C750 C744 1.390 . S
C750 C747 1.386 . S
C751 C746 1.491 . S
C751 C753 1.372 1_455 S
C751 C754 1.424 . S
H752 C758 0.930 . S
C753 H739 0.930 . S
C753 C751 1.372 1_655 S
C753 C756 1.403 . S
C754 C751 1.424 . S
C754 C755 1.524 . S
C754 C758 1.400 . S
C755 H740 0.960 . S
C755 H741 0.960 . S
C755 H742 0.960 . S
C755 C754 1.524 . S
C756 C753 1.403 . S
C756 C757 1.392 . S
C756 C760 1.495 . S
C757 C756 1.392 . S
C757 C758 1.385 1_655 S
C757 C759 1.478 . S
C758 H752 0.930 . S
C758 C754 1.400 . S
C758 C757 1.385 1_455 S
C759 C757 1.478 . S
C759 C761 1.381 . S
C759 C765 1.383 1_655 S
C760 C756 1.495 . S
C760 H766 0.959 . S
C760 H767 0.961 . S
C760 H768 0.960 . S
C761 C759 1.381 . S
C761 C762 1.394 . S
C761 H769 0.930 . S
C762 C761 1.394 . S
C762 C763 1.383 . S
C762 H770 0.929 . S
C763 C762 1.383 . S
C763 C764 1.377 1_655 S
C764 H748 0.930 . S
C764 C763 1.377 1_455 S
C764 C765 1.379 . S
C765 H749 0.931 . S
C765 C759 1.383 1_455 S
C765 C764 1.379 . S
H766 C760 0.959 . S
H767 C760 0.961 . S
H768 C760 0.960 . S
H769 C761 0.930 . S
H770 C762 0.929 . S
C132 C20 1.135 . S
C151 C118 1.143 . S
C168 C41 1.184 . S
C187 C100 1.173 . S
C204 C64 1.183 . S
C223 C112 1.188 . S
C240 C19 1.155 . S
C259 C121 1.178 . S
C295 C103 1.162 . S
C276 C44 1.158 . S
C331 C109 1.174 . S
C312 C67 1.164 . S
C348 C43 1.133 . S
C367 C82 1.146 . S
C384 C66 1.121 . S
C403 C91 1.155 . S
C420 C21 1.179 . S
C439 C73 1.188 . S
C475 C85 1.179 . S
C456 C42 1.145 . S
C511 C94 1.188 . S
C492 C65 1.153 . S
C528 C18 1.166 . S
C547 C76 1.159 . S
C583 C92 1.457 . S
C564 C17 1.459 . S
C600 C39 1.457 . S
C619 C74 1.455 . S
C636 C62 1.474 . S
C655 C83 1.472 . S
C691 C110 1.439 . S
C672 C40 1.442 . S
C727 C119 1.458 . S
C708 C63 1.459 . S
C744 C16 1.456 . S
C763 C101 1.455 1_655 S
