# Generated by pormake.
# Topology pyr, (3,6)-cn, num edge types: 1
# Building blocks:
#     Node 0, Type 0, BuildingBlock: ESEHIV_clean_linker_0, # of connection points: 3
#     Node 1, Type 0, BuildingBlock: ESEHIV_clean_linker_0, # of connection points: 3
#     Node 2, Type 0, BuildingBlock: ESEHIV_clean_linker_0, # of connection points: 3
#     Node 3, Type 0, BuildingBlock: ESEHIV_clean_linker_0, # of connection points: 3
#     Node 4, Type 0, BuildingBlock: ESEHIV_clean_linker_0, # of connection points: 3
#     Node 5, Type 0, BuildingBlock: ESEHIV_clean_linker_0, # of connection points: 3
#     Node 6, Type 0, BuildingBlock: ESEHIV_clean_linker_0, # of connection points: 3
#     Node 7, Type 0, BuildingBlock: ESEHIV_clean_linker_0, # of connection points: 3
#     Node 8, Type 1, BuildingBlock: BETDAH_clean_sbu_0, # of connection points: 6
#     Node 9, Type 1, BuildingBlock: BETDAH_clean_sbu_0, # of connection points: 6
#     Node 10, Type 1, BuildingBlock: BETDAH_clean_sbu_0, # of connection points: 6
#     Node 11, Type 1, BuildingBlock: BETDAH_clean_sbu_0, # of connection points: 6
#     Edge 12, Type (0, 1), BuildingBlock: XIVTED_clean_linker_0, # of connection points: 2
#     Edge 13, Type (0, 1), BuildingBlock: XIVTED_clean_linker_0, # of connection points: 2
#     Edge 14, Type (0, 1), BuildingBlock: XIVTED_clean_linker_0, # of connection points: 2
#     Edge 15, Type (0, 1), BuildingBlock: XIVTED_clean_linker_0, # of connection points: 2
#     Edge 16, Type (0, 1), BuildingBlock: XIVTED_clean_linker_0, # of connection points: 2
#     Edge 17, Type (0, 1), BuildingBlock: XIVTED_clean_linker_0, # of connection points: 2
#     Edge 18, Type (0, 1), BuildingBlock: XIVTED_clean_linker_0, # of connection points: 2
#     Edge 19, Type (0, 1), BuildingBlock: XIVTED_clean_linker_0, # of connection points: 2
#     Edge 20, Type (0, 1), BuildingBlock: XIVTED_clean_linker_0, # of connection points: 2
#     Edge 21, Type (0, 1), BuildingBlock: XIVTED_clean_linker_0, # of connection points: 2
#     Edge 22, Type (0, 1), BuildingBlock: XIVTED_clean_linker_0, # of connection points: 2
#     Edge 23, Type (0, 1), BuildingBlock: XIVTED_clean_linker_0, # of connection points: 2
#     Edge 24, Type (0, 1), BuildingBlock: XIVTED_clean_linker_0, # of connection points: 2
#     Edge 25, Type (0, 1), BuildingBlock: XIVTED_clean_linker_0, # of connection points: 2
#     Edge 26, Type (0, 1), BuildingBlock: XIVTED_clean_linker_0, # of connection points: 2
#     Edge 27, Type (0, 1), BuildingBlock: XIVTED_clean_linker_0, # of connection points: 2
#     Edge 28, Type (0, 1), BuildingBlock: XIVTED_clean_linker_0, # of connection points: 2
#     Edge 29, Type (0, 1), BuildingBlock: XIVTED_clean_linker_0, # of connection points: 2
#     Edge 30, Type (0, 1), BuildingBlock: XIVTED_clean_linker_0, # of connection points: 2
#     Edge 31, Type (0, 1), BuildingBlock: XIVTED_clean_linker_0, # of connection points: 2
#     Edge 32, Type (0, 1), BuildingBlock: XIVTED_clean_linker_0, # of connection points: 2
#     Edge 33, Type (0, 1), BuildingBlock: XIVTED_clean_linker_0, # of connection points: 2
#     Edge 34, Type (0, 1), BuildingBlock: XIVTED_clean_linker_0, # of connection points: 2
#     Edge 35, Type (0, 1), BuildingBlock: XIVTED_clean_linker_0, # of connection points: 2
# Relax obj value: 0.135
# Max RMSD: 0.136
# Mean RMSD: 0.064
data_MOF--net-pyr--node1-BETDAH_clean_sbu_0--node2-ESEHIV_clean_linker_0--edge1-XIVTED_clean_linker_0
_symmetry_space_group_name_H-M    P1
_symmetry_Int_Tables_number       1
_symmetry_cell_setting            triclinic
loop_
_symmetry_equiv_pos_as_xyz
'x, y, z'
_cell_length_a     37.303929
_cell_length_b     38.436048
_cell_length_c     33.605819
_cell_angle_alpha  90.726515
_cell_angle_beta   88.010586
_cell_angle_gamma 102.75568
loop_
_atom_site_label
_atom_site_type_symbol
_atom_site_fract_x
_atom_site_fract_y
_atom_site_fract_z
_atom_type_partial_charge
H0 H 0.31111 0.33164 0.30408 0.0
H1 H 0.3913 0.26718 0.29749 0.0
H2 H 0.36567 0.31816 0.19234 0.0
C3 C 0.33282 0.32256 0.28768 0.0
C4 C 0.3384 0.33074 0.24698 0.0
C5 C 0.35087 0.29889 0.30597 0.0
C6 C 0.37731 0.28547 0.28359 0.0
C7 C 0.38161 0.29074 0.24229 0.0
C8 C 0.36254 0.31404 0.22419 0.0
H9 H 0.19387 0.90498 0.68984 0.0
H10 H 0.29336 0.87129 0.66009 0.0
H11 H 0.194 0.82106 0.60313 0.0
C12 C 0.20792 0.88741 0.67305 0.0
C13 C 0.1892 0.86265 0.64546 0.0
C14 C 0.2455 0.89101 0.67769 0.0
C15 C 0.26446 0.86979 0.6551 0.0
C16 C 0.24594 0.84436 0.62876 0.0
C17 C 0.2082 0.84039 0.62426 0.0
H18 H 0.6834 0.33691 0.92884 0.0
H19 H 0.68683 0.42883 0.85556 0.0
H20 H 0.596 0.33762 0.84947 0.0
C21 C 0.67079 0.35112 0.90777 0.0
C22 C 0.63687 0.3335 0.89218 0.0
C23 C 0.68922 0.38585 0.89592 0.0
C24 C 0.67326 0.40242 0.86549 0.0
C25 C 0.64 0.38507 0.84734 0.0
C26 C 0.62209 0.35069 0.86157 0.0
H27 H 0.81941 0.72635 0.44294 0.0
H28 H 0.90633 0.72525 0.3565 0.0
H29 H 0.81007 0.6389 0.35955 0.0
C30 C 0.82991 0.71336 0.41778 0.0
C31 C 0.80972 0.68019 0.40377 0.0
C32 C 0.86423 0.73023 0.40064 0.0
C33 C 0.87964 0.71265 0.36926 0.0
C34 C 0.86065 0.67906 0.35432 0.0
C35 C 0.82555 0.6636 0.37179 0.0
H36 H 0.60466 0.81174 0.82441 0.0
H37 H 0.68468 0.74713 0.81781 0.0
H38 H 0.62813 0.7585 0.92897 0.0
C39 C 0.61824 0.79304 0.83818 0.0
C40 C 0.61295 0.78675 0.87926 0.0
C41 C 0.64503 0.77996 0.81599 0.0
C42 C 0.66271 0.75591 0.83408 0.0
C43 C 0.65652 0.74713 0.87457 0.0
C44 C 0.63184 0.76326 0.89725 0.0
H45 H 0.70121 0.22142 0.45403 0.0
H46 H 0.78733 0.16588 0.43314 0.0
H47 H 0.80529 0.26015 0.50805 0.0
C48 C 0.72908 0.21883 0.45923 0.0
C49 C 0.7521 0.24438 0.48215 0.0
C50 C 0.74197 0.19092 0.44144 0.0
C51 C 0.77793 0.18813 0.44681 0.0
C52 C 0.80088 0.21276 0.47127 0.0
C53 C 0.7879 0.24112 0.48896 0.0
H54 H 0.31506 0.73753 0.18804 0.0
H55 H 0.30639 0.64886 0.26754 0.0
H56 H 0.39712 0.7399 0.27559 0.0
C57 C 0.32504 0.72553 0.21314 0.0
C58 C 0.35795 0.7437 0.23043 0.0
C59 C 0.30537 0.69172 0.22639 0.0
C60 C 0.32075 0.67486 0.25694 0.0
C61 C 0.35404 0.69188 0.27503 0.0
C62 C 0.37199 0.72651 0.26169 0.0
H63 H 0.09235 0.35278 0.76712 0.0
H64 H 0.18107 0.35629 0.68073 0.0
H65 H 0.18554 0.44214 0.76535 0.0
C66 C 0.11885 0.36607 0.7544 0.0
C67 C 0.13716 0.39924 0.77065 0.0
C68 C 0.13437 0.35022 0.72166 0.0
C69 C 0.16856 0.36853 0.70515 0.0
C70 C 0.18751 0.40175 0.72021 0.0
C71 C 0.17167 0.41654 0.75352 0.0
Ho72 Ho 0.01541 0.05551 0.52243 0.0
Ho73 Ho 0.98439 1.02186 0.60337 0.0
C74 C 0.02998 0.10527 0.60055 0.0
C75 C 0.03435 0.08496 0.45493 0.0
C76 C 0.07003 0.10917 0.44585 0.0
C77 C 0.07204 0.14266 0.42862 0.0
C78 C 0.10603 0.16692 0.42431 0.0
C79 C 0.13816 0.15782 0.43737 0.0
C80 C 0.13577 0.1247 0.4554 0.0
C81 C 0.10224 0.10059 0.45932 0.0
C82 C 0.0631 1.03373 0.56922 0.0
C83 C 0.9701 0.97258 0.5252 0.0
C84 C 0.96493 0.99181 0.67046 0.0
C85 C 0.92909 0.96775 0.67919 0.0
C86 C 0.92698 0.93299 0.69298 0.0
C87 C 0.89283 0.90897 0.69683 0.0
C88 C 0.86064 0.91967 0.68692 0.0
C89 C 0.86296 0.95407 0.67234 0.0
C90 C 0.89674 0.97786 0.66853 0.0
C91 C 0.93662 0.04526 0.55762 0.0
O92 O 0.02637 0.1045 0.56142 0.0
O93 O 0.02049 0.07557 0.62221 0.0
O94 O 0.0356 0.05176 0.46192 0.0
O95 O 0.01317 0.09744 0.48074 0.0
O96 O 0.07325 0.059 0.54351 0.0
O97 O 0.0304 1.01896 0.56408 0.0
O98 O 0.97546 0.97286 0.56396 0.0
O99 O 0.97767 1.00264 0.50421 0.0
O100 O 0.96416 1.02519 0.66395 0.0
O101 O 0.986 0.97939 0.64455 0.0
O102 O 0.92697 1.0188 0.58197 0.0
O103 O 0.96967 0.05918 0.56238 0.0
H104 H 0.0474 0.15007 0.41883 0.0
H105 H 0.10734 0.1923 0.41004 0.0
H106 H 0.16008 0.11725 0.46613 0.0
H107 H 0.1017 0.07527 0.47329 0.0
H108 H 0.95169 0.9244 0.70043 0.0
H109 H 0.89144 0.88254 0.70847 0.0
H110 H 0.8384 0.96273 0.6644 0.0
H111 H 0.89736 1.00412 0.65685 0.0
Ho112 Ho 0.53106 0.04493 0.08089 0.0
Ho113 Ho 0.46441 1.03481 1.0363 0.0
C114 C 0.46996 0.08554 0.1144 0.0
C115 C 0.59436 0.07215 0.10705 0.0
C116 C 0.59923 0.09209 0.14454 0.0
C117 C 0.58974 0.12552 0.14814 0.0
C118 C 0.5864 0.14064 0.18554 0.0
C119 C 0.59215 0.12239 0.21971 0.0
C120 C 0.60154 0.08906 0.21603 0.0
C121 C 0.6055 0.07428 0.17883 0.0
C122 C 0.48663 0.98504 0.11305 0.0
C123 C 0.52196 0.9895 1.00873 0.0
C124 C 0.40191 1.01903 1.00473 0.0
C125 C 0.39518 0.9961 0.96956 0.0
C126 C 0.39854 0.96034 0.97107 0.0
C127 C 0.39943 0.9407 0.93615 0.0
C128 C 0.39731 0.95665 0.89937 0.0
C129 C 0.39468 0.99252 0.8979 0.0
C130 C 0.39324 1.01193 0.93267 0.0
C131 C 0.51987 0.08733 1.00598 0.0
O132 O 0.50301 0.07968 0.11998 0.0
O133 O 0.44948 0.06958 0.0854 0.0
O134 O 0.57905 1.03838 0.11119 0.0
O135 O 0.58039 0.08692 0.07832 0.0
O136 O 0.5184 1.00073 0.12584 0.0
O137 O 0.47843 1.00329 0.08485 0.0
O138 O 0.48671 0.98965 1.01016 0.0
O139 O 0.54561 1.01391 1.02795 0.0
O140 O 0.42491 0.04948 0.99822 0.0
O141 O 0.40857 1.00364 1.03726 0.0
O142 O 0.49981 0.06248 0.98478 0.0
O143 O 0.51028 0.08161 1.04222 0.0
H144 H 0.58409 0.13967 0.12223 0.0
H145 H 0.58006 0.1668 0.18783 0.0
H146 H 0.60751 0.07502 0.2419 0.0
H147 H 0.61234 0.04831 0.17695 0.0
H148 H 0.40102 0.94759 0.9991 0.0
H149 H 0.40063 0.91284 0.93785 0.0
H150 H 0.39176 1.00516 0.86992 0.0
H151 H 0.39145 0.03962 0.93069 0.0
Ho152 Ho 0.49618 0.50925 0.53516 0.0
Ho153 Ho 0.50068 0.5682 0.58512 0.0
C154 C 0.53086 0.50623 0.62388 0.0
C155 C 0.50948 0.45495 0.49729 0.0
C156 C 0.53031 0.42947 0.51084 0.0
C157 C 0.56611 0.44149 0.52458 0.0
C158 C 0.58524 0.41733 0.53882 0.0
C159 C 0.5689 0.38076 0.53974 0.0
C160 C 0.53232 0.36904 0.52826 0.0
C161 C 0.51323 0.39325 0.51368 0.0
C162 C 0.43071 0.50718 0.57443 0.0
C163 C 0.46612 0.57115 0.49641 0.0
C164 C 0.488 0.62208 0.62468 0.0
C165 C 0.4633 0.645 0.61499 0.0
C166 C 0.43097 0.63057 0.59491 0.0
C167 C 0.4084 0.6525 0.58322 0.0
C168 C 0.41759 0.68908 0.59178 0.0
C169 C 0.45056 0.70379 0.61067 0.0
C170 C 0.4734 0.68174 0.6222 0.0
C171 C 0.56607 0.57026 0.54563 0.0
O172 O 0.52744 0.49276 0.58729 0.0
O173 O 0.51945 0.53566 0.6321 0.0
O174 O 0.47862 0.45413 0.51703 0.0
O175 O 0.52832 0.48741 0.49076 0.0
O176 O 0.43464 0.50064 0.53681 0.0
O177 O 0.46218 0.51546 0.58964 0.0
O178 O 0.46765 0.58321 0.53366 0.0
O179 O 0.47943 0.54285 0.48759 0.0
O180 O 0.51597 0.62428 0.59982 0.0
O181 O 0.47205 0.58916 0.63346 0.0
O182 O 0.56227 0.57764 0.58301 0.0
O183 O 0.53453 0.56185 0.53069 0.0
H184 H 0.57968 0.46948 0.52382 0.0
H185 H 0.61358 0.42714 0.54685 0.0
H186 H 0.51905 0.34097 0.52898 0.0
H187 H 0.48525 0.38367 0.50432 0.0
H188 H 0.42302 0.60231 0.58833 0.0
H189 H 0.38329 0.64074 0.56824 0.0
H190 H 0.45794 0.73197 0.61782 0.0
H191 H 0.49873 0.69324 0.63689 0.0
Ho192 Ho 0.00101 0.50365 0.08355 0.0
Ho193 Ho 0.99243 0.5739 1.0412 0.0
C194 C 0.0668 0.57761 0.0891 0.0
C195 C 0.02885 0.45261 0.11027 0.0
C196 C 0.06466 0.44824 0.12537 0.0
C197 C 0.09796 0.45967 0.10345 0.0
C198 C 0.13086 0.45276 0.11711 0.0
C199 C 0.13135 0.4345 0.15312 0.0
C200 C 0.09824 0.42435 0.17567 0.0
C201 C 0.06535 0.43101 0.16187 0.0
C202 C 0.96223 0.54494 0.12625 0.0
C203 C 0.93 0.49866 1.03029 0.0
C204 C 0.96036 0.62562 1.02755 0.0
C205 C 0.92672 0.62971 1.00675 0.0
C206 C 0.89161 0.61795 1.02504 0.0
C207 C 0.86028 0.62515 1.00819 0.0
C208 C 0.86289 0.64431 0.97249 0.0
C209 C 0.89761 0.65452 0.95295 0.0
C210 C 0.92921 0.64751 0.97004 0.0
C211 C 0.02216 0.53191 0.98804 0.0
O212 O 0.0553 0.54258 0.09396 0.0
O213 O 0.04676 0.59687 0.07061 0.0
O214 O 0.01023 0.47086 0.13268 0.0
O215 O 0.02737 0.45942 0.07234 0.0
O216 O 0.95486 0.51021 0.12634 0.0
O217 O 0.99061 0.55585 0.10389 0.0
O218 O 0.93927 0.534 1.02877 0.0
O219 O 0.95082 0.47975 1.04784 0.0
O220 O 0.98887 0.62044 1.00613 0.0
O221 O 0.95458 0.6062 1.05981 0.0
O222 O 0.01601 0.56299 0.97982 0.0
O223 O 0.01256 0.52609 1.0243 0.0
H224 H 0.09854 0.47344 0.07544 0.0
H225 H 0.15592 0.4615 0.09929 0.0
H226 H 0.09744 0.41004 0.20336 0.0
H227 H 0.04016 0.42197 0.17942 0.0
H228 H 0.88825 0.60397 1.05316 0.0
H229 H 0.83393 0.6163 1.02367 0.0
H230 H 0.9006 0.66936 0.9254 0.0
H231 H 0.95572 0.65694 0.95511 0.0
H232 H 0.34478 0.22886 0.32703 0.0
H233 H 0.1627 0.22987 0.45209 0.0
H234 H 0.3185 0.32677 0.37127 0.0
H235 H 0.19683 0.13732 0.40384 0.0
H236 H 0.22467 0.26603 0.43595 0.0
H237 H 0.29987 0.19574 0.37287 0.0
C238 C 0.3306 0.24387 0.34714 0.0
C239 C 0.33462 0.28095 0.34361 0.0
C240 C 0.2186 0.2377 0.42952 0.0
C241 C 0.28065 0.24209 0.395 0.0
C242 C 0.18328 0.21725 0.43828 0.0
C243 C 0.17484 0.1807 0.42909 0.0
C244 C 0.24515 0.22128 0.41125 0.0
C245 C 0.20234 0.16536 0.41173 0.0
C246 C 0.30414 0.22455 0.37313 0.0
C247 C 0.31496 0.29805 0.37128 0.0
N248 N 0.23605 0.18574 0.40317 0.0
N249 N 0.28774 0.27839 0.39484 0.0
H250 H 0.22444 0.88706 0.75539 0.0
H251 H 0.42718 0.9679 0.82378 0.0
H252 H 0.31047 0.94032 0.67401 0.0
H253 H 0.34364 0.89729 0.89419 0.0
H254 H 0.38742 0.95652 0.76662 0.0
H255 H 0.26771 0.89781 0.80904 0.0
C256 C 0.25214 0.90229 0.74924 0.0
C257 C 0.26452 0.91191 0.71035 0.0
C258 C 0.3782 0.94287 0.79436 0.0
C259 C 0.31428 0.92252 0.77045 0.0
C260 C 0.40121 0.94862 0.82655 0.0
C261 C 0.38768 0.93477 0.86385 0.0
C262 C 0.34213 0.92286 0.80012 0.0
C263 C 0.35451 0.90932 0.86607 0.0
C264 C 0.27709 0.90754 0.77953 0.0
C265 C 0.30046 0.93182 0.70374 0.0
N266 N 0.33209 0.90512 0.83487 0.0
N267 N 0.32459 0.93576 0.73348 0.0
H268 H 0.60323 0.35392 0.7806 0.0
H269 H 0.5578 0.53443 0.69567 0.0
H270 H 0.6395 0.45693 0.83596 0.0
H271 H 0.54312 0.43723 0.62688 0.0
H272 H 0.58434 0.50569 0.74858 0.0
H273 H 0.57758 0.38251 0.72684 0.0
C274 C 0.60577 0.38251 0.78184 0.0
C275 C 0.62391 0.40267 0.81364 0.0
C276 C 0.57535 0.49052 0.72199 0.0
C277 C 0.59415 0.4361 0.75083 0.0
C278 C 0.56001 0.50698 0.69155 0.0
C279 C 0.54791 0.48849 0.65626 0.0
C280 C 0.57839 0.45475 0.71803 0.0
C281 C 0.55198 0.45286 0.6532 0.0
C282 C 0.59121 0.39892 0.75067 0.0
C283 C 0.62638 0.43989 0.81236 0.0
N284 N 0.5665 0.43725 0.68354 0.0
N285 N 0.61167 0.45513 0.78194 0.0
H286 H 0.85533 0.60652 0.34334 0.0
H287 H 0.97548 0.61888 0.13698 0.0
H288 H 0.90364 0.7071 0.28739 0.0
H289 H 0.91594 0.52061 0.18993 0.0
H290 H 0.95153 0.65216 0.19132 0.0
H291 H 0.87942 0.57559 0.28819 0.0
C292 C 0.87076 0.62232 0.31942 0.0
C293 C 0.87688 0.65987 0.32054 0.0
C294 C 0.94368 0.62331 0.19103 0.0
C295 C 0.90553 0.62381 0.25625 0.0
C296 C 0.95729 0.60422 0.1598 0.0
C297 C 0.9476 0.56665 0.1583 0.0
C298 C 0.92051 0.60484 0.22162 0.0
C299 C 0.92413 0.54943 0.18929 0.0
C300 C 0.8848 0.60444 0.28776 0.0
C301 C 0.89819 0.67829 0.28853 0.0
N302 N 0.91169 0.56846 0.21937 0.0
N303 N 0.91153 0.66021 0.25793 0.0
H304 H 0.35662 0.25307 0.17548 0.0
H305 H 0.50355 0.1284 0.17546 0.0
H306 H 0.44636 0.2698 0.25617 0.0
H307 H 0.40724 0.10955 0.10379 0.0
H308 H 0.48491 0.1809 0.20474 0.0
H309 H 0.3784 0.20303 0.14567 0.0
C310 C 0.38151 0.24688 0.18627 0.0
C311 C 0.39965 0.2659 0.21838 0.0
C312 C 0.46786 0.16513 0.18268 0.0
C313 C 0.42425 0.20746 0.18508 0.0
C314 C 0.47837 0.135 0.16614 0.0
C315 C 0.45708 0.11439 0.13695 0.0
C316 C 0.43601 0.17494 0.16969 0.0
C317 C 0.42469 0.12441 0.12611 0.0
C318 C 0.39364 0.21782 0.16963 0.0
C319 C 0.43134 0.25583 0.23161 0.0
N320 N 0.41538 0.15393 0.14221 0.0
N321 N 0.44246 0.22721 0.21513 0.0
H322 H 0.16767 0.86473 0.56953 0.0
H323 H 0.05879 1.00888 0.64359 0.0
H324 H 0.12921 0.87113 0.69142 0.0
H325 H 0.11685 1.00912 0.5305 0.0
H326 H 0.07482 0.95255 0.66011 0.0
H327 H 0.13069 0.90567 0.55043 0.0
C328 C 0.15001 0.87332 0.5921 0.0
C329 C 0.15317 0.86654 0.63256 0.0
C330 C 0.0845 0.96518 0.63194 0.0
C331 C 0.11253 0.9144 0.6112 0.0
C332 C 0.07624 0.99761 0.62303 0.0
C333 C 0.08684 1.01323 0.58589 0.0
C334 C 0.10344 0.94871 0.60328 0.0
C335 C 0.10884 0.99791 0.55973 0.0
C336 C 0.12955 0.89745 0.58125 0.0
C337 C 0.12882 0.87749 0.66015 0.0
N338 N 0.11606 0.96601 0.56874 0.0
N339 N 0.11056 0.90243 0.6493 0.0
H340 H 0.7481 0.43903 0.86645 0.0
H341 H 0.88506 0.43132 1.04372 0.0
H342 H 0.71371 0.37514 0.97166 0.0
H343 H 0.89449 0.52481 0.97116 0.0
H344 H 0.8269 0.40451 1.01144 0.0
H345 H 0.80563 0.46587 0.89867 0.0
C346 C 0.75212 0.43043 0.89616 0.0
C347 C 0.7251 0.40391 0.91552 0.0
C348 C 0.84179 0.43088 1.00258 0.0
C349 C 0.79273 0.43431 0.95241 0.0
C350 C 0.87515 0.44616 1.02093 0.0
C351 C 0.89497 0.48058 1.01049 0.0
C352 C 0.82833 0.44965 0.97274 0.0
C353 C 0.88033 0.49837 0.98061 0.0
C354 C 0.78545 0.44576 0.91449 0.0
C355 C 0.7334 0.39424 0.95417 0.0
N356 N 0.84833 0.48273 0.96276 0.0
N357 N 0.76623 0.40901 0.97089 0.0
H358 H 0.7589 0.71331 0.44286 0.0
H359 H 0.59441 0.54399 0.47724 0.0
H360 H 0.77284 0.60825 0.40811 0.0
H361 H 0.61736 0.63096 0.56134 0.0
H362 H 0.65331 0.56947 0.44153 0.0
H363 H 0.70108 0.68608 0.4766 0.0
C364 C 0.75045 0.68454 0.44236 0.0
C365 C 0.77225 0.66342 0.42269 0.0
C366 C 0.64533 0.58291 0.46779 0.0
C367 C 0.70357 0.63193 0.46035 0.0
C368 C 0.61167 0.56848 0.48804 0.0
C369 C 0.60093 0.58524 0.52245 0.0
C370 C 0.66787 0.61494 0.48131 0.0
C371 C 0.62455 0.61693 0.53516 0.0
C372 C 0.71684 0.66902 0.46151 0.0
C373 C 0.75761 0.62616 0.42221 0.0
N374 N 0.6565 0.63085 0.51447 0.0
N375 N 0.72434 0.61175 0.44049 0.0
H376 H 0.30658 0.32212 0.17326 0.0
H377 H 0.159 0.43689 0.22854 0.0
H378 H 0.31406 0.3883 0.27881 0.0
H379 H 0.18177 0.40813 0.10728 0.0
H380 H 0.21312 0.41605 0.24913 0.0
H381 H 0.25962 0.35131 0.14909 0.0
C382 C 0.29902 0.34318 0.1911 0.0
C383 C 0.31433 0.35228 0.22848 0.0
C384 C 0.20645 0.41465 0.21795 0.0
C385 C 0.25926 0.38501 0.20137 0.0
C386 C 0.17541 0.42634 0.20619 0.0
C387 C 0.16565 0.42429 0.16603 0.0
C388 C 0.22767 0.40017 0.18952 0.0
C389 C 0.1883 0.41059 0.13845 0.0
C390 C 0.27183 0.35963 0.17739 0.0
C391 C 0.30258 0.37958 0.25028 0.0
N392 N 0.2179 0.39874 0.15074 0.0
N393 N 0.27544 0.39448 0.23677 0.0
H394 H 0.59473 0.27485 0.85286 0.0
H395 H 0.55883 0.14644 1.04566 0.0
H396 H 0.6342 0.30831 0.96948 0.0
H397 H 0.52278 0.11109 0.92858 0.0
H398 H 0.58618 0.20578 1.01837 0.0
H399 H 0.56665 0.21573 0.88009 0.0
C400 C 0.59746 0.27008 0.88417 0.0
C401 C 0.61755 0.29715 0.90847 0.0
C402 C 0.57235 0.18508 0.99855 0.0
C403 C 0.58543 0.22847 0.9401 0.0
C404 C 0.5568 0.15101 1.01417 0.0
C405 C 0.53854 0.12333 0.98948 0.0
C406 C 0.56949 0.19205 0.9578 0.0
C407 C 0.53672 0.1313 0.94886 0.0
C408 C 0.58156 0.236 0.89971 0.0
C409 C 0.61995 0.28853 0.94894 0.0
N410 N 0.55176 0.16469 0.93445 0.0
N411 N 0.60434 0.25529 0.96324 0.0
H412 H 0.93355 0.75287 0.4318 0.0
H413 H 0.91803 0.95663 0.46763 0.0
H414 H 0.83652 0.79054 0.40565 0.0
H415 H 0.98849 0.90804 0.53706 0.0
H416 H 0.89331 0.89827 0.43657 0.0
H417 H 0.95997 0.81151 0.46195 0.0
C418 C 0.91804 0.77359 0.43184 0.0
C419 C 0.88278 0.76667 0.41585 0.0
C420 C 0.91435 0.90037 0.45843 0.0
C421 C 0.91298 0.83415 0.45024 0.0
C422 C 0.92859 0.93379 0.47605 0.0
C423 C 0.95546 0.93743 0.50502 0.0
C424 C 0.92772 0.87026 0.4688 0.0
C425 C 0.96771 0.90657 0.51501 0.0
C426 C 0.93299 0.807 0.44937 0.0
C427 C 0.86378 0.79456 0.41743 0.0
N428 N 0.9541 0.87454 0.49675 0.0
N429 N 0.8791 0.82687 0.43395 0.0
H430 H 0.22712 0.77243 0.62868 0.0
H431 H 0.4285 0.75565 0.55871 0.0
H432 H 0.31094 0.86161 0.58658 0.0
H433 H 0.34543 0.67152 0.61232 0.0
H434 H 0.38283 0.79274 0.55617 0.0
H435 H 0.26678 0.73235 0.6089 0.0
C436 C 0.25349 0.78332 0.61405 0.0
C437 C 0.26603 0.82005 0.60911 0.0
C438 C 0.3746 0.76594 0.5679 0.0
C439 C 0.31184 0.7749 0.58749 0.0
C440 C 0.40057 0.74497 0.56947 0.0
C441 C 0.39048 0.71068 0.58571 0.0
C442 C 0.33869 0.75234 0.58297 0.0
C443 C 0.35409 0.6977 0.59907 0.0
C444 C 0.27629 0.76059 0.60314 0.0
C445 C 0.30065 0.83324 0.59091 0.0
N446 N 0.32958 0.71869 0.59772 0.0
N447 N 0.32273 0.81061 0.58116 0.0
H448 H 0.65312 0.85069 0.79763 0.0
H449 H 0.83047 0.85149 0.66055 0.0
H450 H 0.67732 0.75299 0.75007 0.0
H451 H 0.80804 0.93756 0.73391 0.0
H452 H 0.76782 0.81655 0.67715 0.0
H453 H 0.69928 0.88427 0.75316 0.0
C454 C 0.66707 0.8359 0.77699 0.0
C455 C 0.66205 0.79863 0.77909 0.0
C456 C 0.77669 0.84322 0.68918 0.0
C457 C 0.71722 0.83785 0.72938 0.0
C458 C 0.81232 0.86287 0.68009 0.0
C459 C 0.82406 0.89724 0.69608 0.0
C460 C 0.75323 0.85834 0.7143 0.0
C461 C 0.79978 0.91123 0.72079 0.0
C462 C 0.69419 0.85543 0.75188 0.0
C463 C 0.6815 0.78176 0.75096 0.0
N464 N 0.76567 0.8917 0.72924 0.0
N465 N 0.70928 0.80154 0.72815 0.0
H466 H 0.67449 0.14695 0.45396 0.0
H467 H 0.63572 0.18687 0.23259 0.0
H468 H 0.75701 0.18781 0.36315 0.0
H469 H 0.56404 0.09867 0.29341 0.0
H470 H 0.67189 0.19952 0.2917 0.0
H471 H 0.6282 0.13296 0.40239 0.0
C472 C 0.68293 0.15165 0.42296 0.0
C473 C 0.71911 0.16888 0.41234 0.0
C474 C 0.64769 0.1779 0.29244 0.0
C475 C 0.66693 0.1553 0.35483 0.0
C476 C 0.62643 0.1713 0.25913 0.0
C477 C 0.59792 0.14086 0.25797 0.0
C478 C 0.63969 0.15421 0.32453 0.0
C479 C 0.58674 0.12177 0.29323 0.0
C480 C 0.65661 0.14432 0.3939 0.0
C481 C 0.72922 0.17463 0.37221 0.0
N482 N 0.60853 0.12802 0.32514 0.0
N483 N 0.70293 0.16868 0.34479 0.0
H484 H 0.37306 0.62622 0.27342 0.0
H485 H 0.43576 0.63109 0.50214 0.0
H486 H 0.37202 0.71544 0.35175 0.0
H487 H 0.45698 0.55311 0.4165 0.0
H488 H 0.40862 0.65995 0.44952 0.0
H489 H 0.40003 0.59731 0.32629 0.0
C490 C 0.37824 0.63969 0.30183 0.0
C491 C 0.3701 0.67352 0.30777 0.0
C492 C 0.41924 0.63655 0.44213 0.0
C493 C 0.40089 0.63998 0.36949 0.0
C494 C 0.43478 0.61988 0.47239 0.0
C495 C 0.44897 0.5893 0.46432 0.0
C496 C 0.41741 0.62275 0.40297 0.0
C497 C 0.44658 0.57645 0.42468 0.0
C498 C 0.39381 0.62315 0.33212 0.0
C499 C 0.37792 0.68956 0.34543 0.0
N500 N 0.43122 0.59302 0.39589 0.0
N501 N 0.39248 0.67269 0.37464 0.0
H502 H 0.15809 0.40974 0.84888 0.0
H503 H 0.01394 0.53039 0.90814 0.0
H504 H 0.07624 0.4285 0.76968 0.0
H505 H 0.06506 0.48126 0.99839 0.0
H506 H 0.04043 0.49687 0.85697 0.0
H507 H 0.12904 0.43886 0.90325 0.0
C508 C 0.13401 0.41998 0.84291 0.0
C509 C 0.1196 0.41651 0.80451 0.0
C510 C 0.04582 0.49312 0.88789 0.0
C511 C 0.08637 0.45061 0.86673 0.0
C512 C 0.03065 0.51235 0.91732 0.0
C513 C 0.03689 0.50866 0.95796 0.0
C514 C 0.06854 0.47025 0.89852 0.0
C515 C 0.059 0.48478 0.96764 0.0
C516 C 0.11734 0.43653 0.87404 0.0
C517 C 0.08827 0.43035 0.7987 0.0
N518 N 0.0743 0.46687 0.93823 0.0
N519 N 0.07308 0.44694 0.82911 0.0
H520 H 0.54798 0.80638 0.864 0.0
H521 H 0.58469 0.96675 1.02234 0.0
H522 H 0.63519 0.82321 0.94784 0.0
H523 H 0.4884 0.9433 0.95078 0.0
H524 H 0.6037 0.91465 0.99408 0.0
H525 H 0.52496 0.8555 0.89518 0.0
C526 C 0.56188 0.81993 0.88947 0.0
C527 C 0.59363 0.81049 0.90329 0.0
C528 C 0.57848 0.92089 0.98434 0.0
C529 C 0.56764 0.86725 0.93883 0.0
C530 C 0.56774 0.95091 1.00024 0.0
C531 C 0.53495 0.9596 0.9888 0.0
C532 C 0.55656 0.89936 0.95635 0.0
C533 C 0.51387 0.93761 0.9605 0.0
C534 C 0.5488 0.8481 0.90714 0.0
C535 C 0.61041 0.82908 0.93642 0.0
N536 N 0.5251 0.9086 0.94512 0.0
N537 N 0.59748 0.85671 0.95271 0.0
H538 H 0.85381 0.19235 0.42412 0.0
H539 H 0.92306 0.09722 0.6047 0.0
H540 H 0.82416 0.21163 0.54643 0.0
H541 H 0.90096 0.0483 0.48942 0.0
H542 H 0.90084 0.14878 0.58271 0.0
H543 H 0.89038 0.15139 0.44701 0.0
C544 C 0.85634 0.1891 0.45582 0.0
C545 C 0.83512 0.20417 0.48351 0.0
C546 C 0.90012 0.12642 0.56256 0.0
C547 C 0.8761 0.15795 0.50941 0.0
C548 C 0.91194 0.09688 0.57527 0.0
C549 C 0.91254 0.06852 0.54895 0.0
C550 C 0.88916 0.12738 0.52331 0.0
C551 C 0.89984 0.06957 0.51056 0.0
C552 C 0.87663 0.16545 0.46872 0.0
C553 C 0.83976 0.20003 0.52418 0.0
N554 N 0.88859 0.09886 0.49865 0.0
N555 N 0.85919 0.17644 0.53603 0.0
H556 H 0.25246 0.72478 0.19754 0.0
H557 H 0.11468 0.54503 0.12686 0.0
H558 H 0.2737 0.61982 0.21213 0.0
H559 H 0.10148 0.64983 0.09525 0.0
H560 H 0.17094 0.57211 0.16044 0.0
H561 H 0.19637 0.69822 0.16315 0.0
C562 C 0.24575 0.69613 0.1934 0.0
C563 C 0.26899 0.67484 0.2076 0.0
C564 C 0.15598 0.58931 0.14605 0.0
C565 C 0.20296 0.64383 0.16839 0.0
C566 C 0.12356 0.57382 0.12663 0.0
C567 C 0.10276 0.59497 0.10771 0.0
C568 C 0.16833 0.62656 0.14714 0.0
C569 C 0.1163 0.63222 0.10908 0.0
C570 C 0.21326 0.68094 0.17379 0.0
C571 C 0.25718 0.63767 0.20214 0.0
N572 N 0.14798 0.64672 0.12844 0.0
N573 N 0.2253 0.62353 0.18307 0.0
H574 H 0.25158 0.43996 0.7542 0.0
H575 H 0.36416 0.47645 0.54407 0.0
H576 H 0.20614 0.40681 0.64001 0.0
H577 H 0.41499 0.50759 0.65606 0.0
H578 H 0.30592 0.45278 0.57964 0.0
H579 H 0.31051 0.46706 0.72017 0.0
C580 C 0.25375 0.43852 0.72204 0.0
C581 C 0.22349 0.42055 0.70024 0.0
C582 C 0.32963 0.46488 0.59666 0.0
C583 C 0.29146 0.45162 0.66084 0.0
C584 C 0.3631 0.47854 0.57625 0.0
C585 C 0.39481 0.49422 0.59694 0.0
C586 C 0.32723 0.4668 0.63847 0.0
C587 C 0.39136 0.49585 0.63876 0.0
C588 C 0.2876 0.45387 0.7026 0.0
C589 C 0.22853 0.41959 0.65848 0.0
N590 N 0.35831 0.48235 0.65808 0.0
N591 N 0.26153 0.4347 0.64041 0.0
H592 H 0.68774 0.75597 0.9484 0.0
H593 H 0.83775 0.64268 0.89572 0.0
H594 H 0.68183 0.69008 0.84273 0.0
H595 H 0.81297 0.67266 1.01596 0.0
H596 H 0.78374 0.66328 0.87355 0.0
H597 H 0.7353 0.72778 0.97271 0.0
C598 C 0.69576 0.73513 0.93057 0.0
C599 C 0.68071 0.72583 0.89315 0.0
C600 C 0.79005 0.66505 0.90482 0.0
C601 C 0.73655 0.69427 0.92037 0.0
C602 C 0.82099 0.65353 0.91743 0.0
C603 C 0.82991 0.65579 0.95783 0.0
C604 C 0.7683 0.67962 0.93267 0.0
C605 C 0.80701 0.66996 0.98464 0.0
C606 C 0.72333 0.71928 0.94433 0.0
C607 C 0.69309 0.69888 0.87133 0.0
N608 N 0.77759 0.68156 0.97158 0.0
N609 N 0.7206 0.68451 0.88491 0.0
H610 H 0.43292 0.77403 0.22285 0.0
H611 H 0.41254 0.95076 0.1058 0.0
H612 H 0.32749 0.79783 0.2014 0.0
H613 H 0.51338 0.93764 0.15611 0.0
H614 H 0.38099 0.89272 0.13482 0.0
H615 H 0.46296 0.83178 0.19389 0.0
C616 C 0.41591 0.79129 0.21245 0.0
C617 C 0.37729 0.78025 0.21471 0.0
C618 C 0.41005 0.90259 0.13943 0.0
C619 C 0.41204 0.84705 0.18026 0.0
C620 C 0.42809 0.93573 0.12272 0.0
C621 C 0.46574 0.94947 0.12863 0.0
C622 C 0.42987 0.88259 0.16164 0.0
C623 C 0.48432 0.92852 0.15094 0.0
C624 C 0.43321 0.82437 0.19552 0.0
C625 C 0.35724 0.80426 0.19979 0.0
N626 N 0.46642 0.89642 0.1663 0.0
N627 N 0.37469 0.83611 0.1832 0.0
H628 H 0.12801 0.33046 0.64255 0.0
H629 H 0.03493 0.12288 0.6811 0.0
H630 H 0.09787 0.2881 0.76016 0.0
H631 H 0.05827 0.16997 0.56463 0.0
H632 H 0.05781 0.18212 0.71103 0.0
H633 H 0.10239 0.27173 0.61425 0.0
C634 C 0.11603 0.30884 0.66259 0.0
C635 C 0.11559 0.31462 0.70408 0.0
C636 C 0.05792 0.17946 0.67892 0.0
C637 C 0.08573 0.24626 0.67134 0.0
C638 C 0.04493 0.14549 0.66173 0.0
C639 C 0.04459 0.14095 0.62008 0.0
C640 C 0.07097 0.2094 0.65444 0.0
C641 C 0.05783 0.1717 0.59681 0.0
C642 C 0.10121 0.27512 0.64627 0.0
C643 C 0.09885 0.28528 0.72809 0.0
N644 N 0.07041 0.20424 0.61418 0.0
N645 N 0.08493 0.25252 0.71148 0.0
H646 H 0.7408 0.26025 0.5603 0.0
H647 H 0.56969 0.32256 0.49401 0.0
H648 H 0.72677 0.2924 0.44041 0.0
H649 H 0.62284 0.38167 0.59409 0.0
H650 H 0.62009 0.29222 0.48694 0.0
H651 H 0.69439 0.29326 0.58418 0.0
C652 C 0.72908 0.27552 0.53941 0.0
C653 C 0.73704 0.2737 0.49848 0.0
C654 C 0.62023 0.31134 0.51095 0.0
C655 C 0.68384 0.30911 0.52485 0.0
C656 C 0.59124 0.32825 0.51548 0.0
C657 C 0.59248 0.35511 0.54427 0.0
C658 C 0.65042 0.32122 0.53545 0.0
C659 C 0.62145 0.36157 0.57098 0.0
C660 C 0.70248 0.29378 0.55289 0.0
C661 C 0.72104 0.29328 0.4722 0.0
N662 N 0.64993 0.34505 0.56556 0.0
N663 N 0.69433 0.30943 0.48572 0.0
loop_
_geom_bond_atom_site_label_1
_geom_bond_atom_site_label_2
_geom_bond_distance
_geom_bond_site_symmetry_2
_ccdc_geom_bond_type
H0 C3 0.931 . S
H1 C6 0.928 . S
H2 C8 0.930 . S
C3 H0 0.931 . S
C3 C4 1.413 . S
C3 C5 1.360 . S
C4 C3 1.413 . S
C4 C8 1.429 . S
C5 C3 1.360 . S
C5 C6 1.372 . S
C6 H1 0.928 . S
C6 C5 1.372 . S
C6 C7 1.404 . S
C7 C6 1.404 . S
C7 C8 1.391 . S
C8 H2 0.930 . S
C8 C4 1.429 . S
C8 C7 1.391 . S
H9 C12 0.931 . S
H10 C15 0.928 . S
H11 C17 0.930 . S
C12 H9 0.931 . S
C12 C13 1.413 . S
C12 C14 1.360 . S
C13 C12 1.413 . S
C13 C17 1.429 . S
C14 C12 1.360 . S
C14 C15 1.372 . S
C15 H10 0.928 . S
C15 C14 1.372 . S
C15 C16 1.404 . S
C16 C15 1.404 . S
C16 C17 1.391 . S
C17 H11 0.930 . S
C17 C13 1.429 . S
C17 C16 1.391 . S
H18 C21 0.931 . S
H19 C24 0.928 . S
H20 C26 0.930 . S
C21 H18 0.931 . S
C21 C22 1.413 . S
C21 C23 1.360 . S
C22 C21 1.413 . S
C22 C26 1.429 . S
C23 C21 1.360 . S
C23 C24 1.372 . S
C24 H19 0.928 . S
C24 C23 1.372 . S
C24 C25 1.404 . S
C25 C24 1.404 . S
C25 C26 1.391 . S
C26 H20 0.930 . S
C26 C22 1.429 . S
C26 C25 1.391 . S
H27 C30 0.931 . S
H28 C33 0.928 . S
H29 C35 0.930 . S
C30 H27 0.931 . S
C30 C31 1.413 . S
C30 C32 1.360 . S
C31 C30 1.413 . S
C31 C35 1.429 . S
C32 C30 1.360 . S
C32 C33 1.372 . S
C33 H28 0.928 . S
C33 C32 1.372 . S
C33 C34 1.404 . S
C34 C33 1.404 . S
C34 C35 1.391 . S
C35 H29 0.930 . S
C35 C31 1.429 . S
C35 C34 1.391 . S
H36 C39 0.931 . S
H37 C42 0.928 . S
H38 C44 0.930 . S
C39 H36 0.931 . S
C39 C40 1.413 . S
C39 C41 1.360 . S
C40 C39 1.413 . S
C40 C44 1.429 . S
C41 C39 1.360 . S
C41 C42 1.372 . S
C42 H37 0.928 . S
C42 C41 1.372 . S
C42 C43 1.404 . S
C43 C42 1.404 . S
C43 C44 1.391 . S
C44 H38 0.930 . S
C44 C40 1.429 . S
C44 C43 1.391 . S
H45 C48 0.931 . S
H46 C51 0.928 . S
H47 C53 0.930 . S
C48 H45 0.931 . S
C48 C49 1.413 . S
C48 C50 1.360 . S
C49 C48 1.413 . S
C49 C53 1.429 . S
C50 C48 1.360 . S
C50 C51 1.372 . S
C51 H46 0.928 . S
C51 C50 1.372 . S
C51 C52 1.404 . S
C52 C51 1.404 . S
C52 C53 1.391 . S
C53 H47 0.930 . S
C53 C49 1.429 . S
C53 C52 1.391 . S
H54 C57 0.931 . S
H55 C60 0.928 . S
H56 C62 0.930 . S
C57 H54 0.931 . S
C57 C58 1.413 . S
C57 C59 1.360 . S
C58 C57 1.413 . S
C58 C62 1.429 . S
C59 C57 1.360 . S
C59 C60 1.372 . S
C60 H55 0.928 . S
C60 C59 1.372 . S
C60 C61 1.404 . S
C61 C60 1.404 . S
C61 C62 1.391 . S
C62 H56 0.930 . S
C62 C58 1.429 . S
C62 C61 1.391 . S
H63 C66 0.931 . S
H64 C69 0.928 . S
H65 C71 0.930 . S
C66 H63 0.931 . S
C66 C67 1.413 . S
C66 C68 1.360 . S
C67 C66 1.413 . S
C67 C71 1.429 . S
C68 C66 1.360 . S
C68 C69 1.372 . S
C69 H64 0.928 . S
C69 C68 1.372 . S
C69 C70 1.404 . S
C70 C69 1.404 . S
C70 C71 1.391 . S
C71 H65 0.930 . S
C71 C67 1.429 . S
C71 C70 1.391 . S
Ho72 C75 2.811 . S
Ho72 O92 2.322 . S
Ho72 O94 2.378 . S
Ho72 O95 2.524 . S
Ho72 O96 2.381 1_545 S
Ho72 O97 2.669 1_545 S
Ho72 O99 2.346 1_445 S
Ho72 O103 2.305 1_455 S
Ho73 C84 2.811 . S
Ho73 O93 2.346 1_665 S
Ho73 O97 2.305 1_655 S
Ho73 O98 2.322 . S
Ho73 O100 2.378 . S
Ho73 O101 2.524 . S
Ho73 O102 2.381 1_565 S
Ho73 O103 2.669 1_565 S
C74 O92 1.259 . S
C74 O93 1.268 . S
C75 Ho72 2.811 . S
C75 C76 1.488 . S
C75 O94 1.215 . S
C75 O95 1.289 . S
C76 C75 1.488 . S
C76 C77 1.348 . S
C76 C81 1.413 . S
C77 C76 1.348 . S
C77 C78 1.442 . S
C77 H104 0.930 . S
C78 C77 1.442 . S
C78 C79 1.381 . S
C78 H105 0.931 . S
C79 C78 1.381 . S
C79 C80 1.321 . S
C80 C79 1.321 . S
C80 C81 1.403 . S
C80 H106 0.934 . S
C81 C76 1.413 . S
C81 C80 1.403 . S
C81 H107 0.930 . S
C82 O96 1.275 . S
C82 O97 1.256 . S
C83 O98 1.259 . S
C83 O99 1.268 . S
C84 Ho73 2.811 . S
C84 C85 1.488 . S
C84 O100 1.215 . S
C84 O101 1.289 . S
C85 C84 1.488 . S
C85 C86 1.348 . S
C85 C90 1.413 . S
C86 C85 1.348 . S
C86 C87 1.442 . S
C86 H108 0.930 . S
C87 C86 1.442 . S
C87 C88 1.381 . S
C87 H109 0.931 . S
C88 C87 1.381 . S
C88 C89 1.321 . S
C89 C88 1.321 . S
C89 C90 1.403 . S
C89 H110 0.934 . S
C90 C85 1.413 . S
C90 C89 1.403 . S
C90 H111 0.930 . S
C91 O102 1.275 . S
C91 O103 1.256 . S
O92 Ho72 2.322 . S
O92 C74 1.259 . S
O93 Ho73 2.346 1_445 S
O93 C74 1.268 . S
O94 Ho72 2.378 . S
O94 C75 1.215 . S
O95 Ho72 2.524 . S
O95 C75 1.289 . S
O96 Ho72 2.381 1_565 S
O96 C82 1.275 . S
O97 Ho72 2.669 1_565 S
O97 Ho73 2.305 1_455 S
O97 C82 1.256 . S
O98 Ho73 2.322 . S
O98 C83 1.259 . S
O99 Ho72 2.346 1_665 S
O99 C83 1.268 . S
O100 Ho73 2.378 . S
O100 C84 1.215 . S
O101 Ho73 2.524 . S
O101 C84 1.289 . S
O102 Ho73 2.381 1_545 S
O102 C91 1.275 . S
O103 Ho72 2.305 1_655 S
O103 Ho73 2.669 1_545 S
O103 C91 1.256 . S
H104 C77 0.930 . S
H105 C78 0.931 . S
H106 C80 0.934 . S
H107 C81 0.930 . S
H108 C86 0.930 . S
H109 C87 0.931 . S
H110 C89 0.934 . S
H111 C90 0.930 . S
Ho112 C115 2.796 1_565 S
Ho112 O132 2.305 1_565 S
Ho112 O134 2.376 1_565 S
Ho112 O135 2.498 1_565 S
Ho112 O136 2.403 . S
Ho112 O137 2.680 . S
Ho112 O139 2.364 1_554 S
Ho112 O143 2.283 1_564 S
Ho113 C124 2.811 1_545 S
Ho113 O133 2.346 1_556 S
Ho113 O137 2.305 1_546 S
Ho113 O138 2.322 1_545 S
Ho113 O140 2.378 1_545 S
Ho113 O141 2.524 1_545 S
Ho113 O142 2.381 . S
Ho113 O143 2.669 . S
C114 O132 1.259 . S
C114 O133 1.268 . S
C115 Ho112 2.796 1_545 S
C115 C116 1.488 . S
C115 O134 1.215 . S
C115 O135 1.289 . S
C116 C115 1.488 . S
C116 C117 1.348 . S
C116 C121 1.413 . S
C117 C116 1.348 . S
C117 C118 1.442 . S
C117 H144 0.930 . S
C118 C117 1.442 . S
C118 C119 1.381 . S
C118 H145 0.931 . S
C119 C118 1.381 . S
C119 C120 1.321 . S
C120 C119 1.321 . S
C120 C121 1.403 . S
C120 H146 0.934 . S
C121 C116 1.413 . S
C121 C120 1.403 . S
C121 H147 0.930 . S
C122 O136 1.275 . S
C122 O137 1.256 . S
C123 O138 1.259 . S
C123 O139 1.268 . S
C124 Ho113 2.811 1_565 S
C124 C125 1.488 . S
C124 O140 1.215 . S
C124 O141 1.289 . S
C125 C124 1.488 . S
C125 C126 1.348 . S
C125 C130 1.413 . S
C126 C125 1.348 . S
C126 C127 1.442 . S
C126 H148 0.930 . S
C127 C126 1.442 . S
C127 C128 1.381 . S
C127 H149 0.931 . S
C128 C127 1.381 . S
C128 C129 1.321 . S
C129 C128 1.321 . S
C129 C130 1.403 . S
C129 H150 0.934 . S
C130 C125 1.413 . S
C130 C129 1.403 . S
C130 H151 0.930 . S
C131 O142 1.275 . S
C131 O143 1.256 . S
O132 Ho112 2.305 1_545 S
O132 C114 1.259 . S
O133 Ho113 2.346 1_554 S
O133 C114 1.268 . S
O134 Ho112 2.376 1_545 S
O134 C115 1.215 . S
O135 Ho112 2.498 1_545 S
O135 C115 1.289 . S
O136 Ho112 2.403 . S
O136 C122 1.275 . S
O137 Ho112 2.680 . S
O137 Ho113 2.305 1_564 S
O137 C122 1.256 . S
O138 Ho113 2.322 1_565 S
O138 C123 1.259 . S
O139 Ho112 2.364 1_556 S
O139 C123 1.268 . S
O140 Ho113 2.378 1_565 S
O140 C124 1.215 . S
O141 Ho113 2.524 1_565 S
O141 C124 1.289 . S
O142 Ho113 2.381 . S
O142 C131 1.275 . S
O143 Ho112 2.283 1_546 S
O143 Ho113 2.669 . S
O143 C131 1.256 . S
H144 C117 0.930 . S
H145 C118 0.931 . S
H146 C120 0.934 . S
H147 C121 0.930 . S
H148 C126 0.930 . S
H149 C127 0.931 . S
H150 C129 0.934 . S
H151 C130 0.930 . S
Ho152 C155 2.811 . S
Ho152 O172 2.322 . S
Ho152 O174 2.378 . S
Ho152 O175 2.524 . S
Ho152 O176 2.381 . S
Ho152 O177 2.669 . S
Ho152 O179 2.346 . S
Ho152 O183 2.305 . S
Ho153 C164 2.811 . S
Ho153 O173 2.346 . S
Ho153 O177 2.305 . S
Ho153 O178 2.322 . S
Ho153 O180 2.378 . S
Ho153 O181 2.524 . S
Ho153 O182 2.381 . S
Ho153 O183 2.669 . S
C154 O172 1.259 . S
C154 O173 1.268 . S
C155 Ho152 2.811 . S
C155 C156 1.488 . S
C155 O174 1.215 . S
C155 O175 1.289 . S
C156 C155 1.488 . S
C156 C157 1.348 . S
C156 C161 1.413 . S
C157 C156 1.348 . S
C157 C158 1.442 . S
C157 H184 0.930 . S
C158 C157 1.442 . S
C158 C159 1.381 . S
C158 H185 0.931 . S
C159 C158 1.381 . S
C159 C160 1.321 . S
C160 C159 1.321 . S
C160 C161 1.403 . S
C160 H186 0.934 . S
C161 C156 1.413 . S
C161 C160 1.403 . S
C161 H187 0.930 . S
C162 O176 1.275 . S
C162 O177 1.256 . S
C163 O178 1.259 . S
C163 O179 1.268 . S
C164 Ho153 2.811 . S
C164 C165 1.488 . S
C164 O180 1.215 . S
C164 O181 1.289 . S
C165 C164 1.488 . S
C165 C166 1.348 . S
C165 C170 1.413 . S
C166 C165 1.348 . S
C166 C167 1.442 . S
C166 H188 0.930 . S
C167 C166 1.442 . S
C167 C168 1.381 . S
C167 H189 0.931 . S
C168 C167 1.381 . S
C168 C169 1.321 . S
C169 C168 1.321 . S
C169 C170 1.403 . S
C169 H190 0.934 . S
C170 C165 1.413 . S
C170 C169 1.403 . S
C170 H191 0.930 . S
C171 O182 1.275 . S
C171 O183 1.256 . S
O172 Ho152 2.322 . S
O172 C154 1.259 . S
O173 Ho153 2.346 . S
O173 C154 1.268 . S
O174 Ho152 2.378 . S
O174 C155 1.215 . S
O175 Ho152 2.524 . S
O175 C155 1.289 . S
O176 Ho152 2.381 . S
O176 C162 1.275 . S
O177 Ho152 2.669 . S
O177 Ho153 2.305 . S
O177 C162 1.256 . S
O178 Ho153 2.322 . S
O178 C163 1.259 . S
O179 Ho152 2.346 . S
O179 C163 1.268 . S
O180 Ho153 2.378 . S
O180 C164 1.215 . S
O181 Ho153 2.524 . S
O181 C164 1.289 . S
O182 Ho153 2.381 . S
O182 C171 1.275 . S
O183 Ho152 2.305 . S
O183 Ho153 2.669 . S
O183 C171 1.256 . S
H184 C157 0.930 . S
H185 C158 0.931 . S
H186 C160 0.934 . S
H187 C161 0.930 . S
H188 C166 0.930 . S
H189 C167 0.931 . S
H190 C169 0.934 . S
H191 C170 0.930 . S
Ho192 C195 2.811 . S
Ho192 O212 2.322 . S
Ho192 O214 2.378 . S
Ho192 O215 2.524 . S
Ho192 O216 2.381 1_455 S
Ho192 O217 2.669 1_455 S
Ho192 O219 2.346 1_454 S
Ho192 O223 2.305 1_554 S
Ho193 C204 2.811 . S
Ho193 O213 2.346 1_656 S
Ho193 O217 2.305 1_556 S
Ho193 O218 2.322 . S
Ho193 O220 2.378 . S
Ho193 O221 2.524 . S
Ho193 O222 2.381 1_655 S
Ho193 O223 2.669 1_655 S
C194 O212 1.259 . S
C194 O213 1.268 . S
C195 Ho192 2.811 . S
C195 C196 1.488 . S
C195 O214 1.215 . S
C195 O215 1.289 . S
C196 C195 1.488 . S
C196 C197 1.348 . S
C196 C201 1.413 . S
C197 C196 1.348 . S
C197 C198 1.442 . S
C197 H224 0.930 . S
C198 C197 1.442 . S
C198 C199 1.381 . S
C198 H225 0.931 . S
C199 C198 1.381 . S
C199 C200 1.321 . S
C200 C199 1.321 . S
C200 C201 1.403 . S
C200 H226 0.934 . S
C201 C196 1.413 . S
C201 C200 1.403 . S
C201 H227 0.930 . S
C202 O216 1.275 . S
C202 O217 1.256 . S
C203 O218 1.259 . S
C203 O219 1.268 . S
C204 Ho193 2.811 . S
C204 C205 1.488 . S
C204 O220 1.215 . S
C204 O221 1.289 . S
C205 C204 1.488 . S
C205 C206 1.348 . S
C205 C210 1.413 . S
C206 C205 1.348 . S
C206 C207 1.442 . S
C206 H228 0.930 . S
C207 C206 1.442 . S
C207 C208 1.381 . S
C207 H229 0.931 . S
C208 C207 1.381 . S
C208 C209 1.321 . S
C209 C208 1.321 . S
C209 C210 1.403 . S
C209 H230 0.934 . S
C210 C205 1.413 . S
C210 C209 1.403 . S
C210 H231 0.930 . S
C211 O222 1.275 . S
C211 O223 1.256 . S
O212 Ho192 2.322 . S
O212 C194 1.259 . S
O213 Ho193 2.346 1_454 S
O213 C194 1.268 . S
O214 Ho192 2.378 . S
O214 C195 1.215 . S
O215 Ho192 2.524 . S
O215 C195 1.289 . S
O216 Ho192 2.381 1_655 S
O216 C202 1.275 . S
O217 Ho192 2.669 1_655 S
O217 Ho193 2.305 1_554 S
O217 C202 1.256 . S
O218 Ho193 2.322 . S
O218 C203 1.259 . S
O219 Ho192 2.346 1_656 S
O219 C203 1.268 . S
O220 Ho193 2.378 . S
O220 C204 1.215 . S
O221 Ho193 2.524 . S
O221 C204 1.289 . S
O222 Ho193 2.381 1_455 S
O222 C211 1.275 . S
O223 Ho192 2.305 1_556 S
O223 Ho193 2.669 1_455 S
O223 C211 1.256 . S
H224 C197 0.930 . S
H225 C198 0.931 . S
H226 C200 0.934 . S
H227 C201 0.930 . S
H228 C206 0.930 . S
H229 C207 0.931 . S
H230 C209 0.934 . S
H231 C210 0.930 . S
H232 C238 0.930 . S
H233 C242 0.930 . S
H234 C247 0.929 . S
H235 C245 0.929 . S
H236 C240 0.929 . S
H237 C246 0.929 . S
C238 H232 0.930 . S
C238 C239 1.367 . S
C238 C246 1.378 . S
C239 C238 1.367 . S
C239 C247 1.433 . S
C240 H236 0.929 . S
C240 C242 1.378 . S
C240 C244 1.350 . S
C241 C244 1.463 . S
C241 C246 1.350 . S
C241 N249 1.427 . S
C242 H233 0.930 . S
C242 C240 1.378 . S
C242 C243 1.367 . S
C243 C242 1.367 . S
C243 C245 1.433 . S
C244 C240 1.350 . S
C244 C241 1.463 . S
C244 N248 1.427 . S
C245 H235 0.929 . S
C245 C243 1.433 . S
C245 N248 1.384 . S
C246 H237 0.929 . S
C246 C238 1.378 . S
C246 C241 1.350 . S
C247 H234 0.929 . S
C247 C239 1.433 . S
C247 N249 1.384 . S
N248 C244 1.427 . S
N248 C245 1.384 . S
N249 C241 1.427 . S
N249 C247 1.384 . S
H250 C256 0.930 . S
H251 C260 0.930 . S
H252 C265 0.929 . S
H253 C263 0.929 . S
H254 C258 0.929 . S
H255 C264 0.929 . S
C256 H250 0.930 . S
C256 C257 1.367 . S
C256 C264 1.378 . S
C257 C256 1.367 . S
C257 C265 1.433 . S
C258 H254 0.929 . S
C258 C260 1.378 . S
C258 C262 1.350 . S
C259 C262 1.463 . S
C259 C264 1.350 . S
C259 N267 1.427 . S
C260 H251 0.930 . S
C260 C258 1.378 . S
C260 C261 1.367 . S
C261 C260 1.367 . S
C261 C263 1.433 . S
C262 C258 1.350 . S
C262 C259 1.463 . S
C262 N266 1.427 . S
C263 H253 0.929 . S
C263 C261 1.433 . S
C263 N266 1.384 . S
C264 H255 0.929 . S
C264 C256 1.378 . S
C264 C259 1.350 . S
C265 H252 0.929 . S
C265 C257 1.433 . S
C265 N267 1.384 . S
N266 C262 1.427 . S
N266 C263 1.384 . S
N267 C259 1.427 . S
N267 C265 1.384 . S
H268 C274 0.930 . S
H269 C278 0.930 . S
H270 C283 0.929 . S
H271 C281 0.929 . S
H272 C276 0.929 . S
H273 C282 0.929 . S
C274 H268 0.930 . S
C274 C275 1.367 . S
C274 C282 1.378 . S
C275 C274 1.367 . S
C275 C283 1.433 . S
C276 H272 0.929 . S
C276 C278 1.378 . S
C276 C280 1.350 . S
C277 C280 1.463 . S
C277 C282 1.350 . S
C277 N285 1.427 . S
C278 H269 0.930 . S
C278 C276 1.378 . S
C278 C279 1.367 . S
C279 C278 1.367 . S
C279 C281 1.433 . S
C280 C276 1.350 . S
C280 C277 1.463 . S
C280 N284 1.427 . S
C281 H271 0.929 . S
C281 C279 1.433 . S
C281 N284 1.384 . S
C282 H273 0.929 . S
C282 C274 1.378 . S
C282 C277 1.350 . S
C283 H270 0.929 . S
C283 C275 1.433 . S
C283 N285 1.384 . S
N284 C280 1.427 . S
N284 C281 1.384 . S
N285 C277 1.427 . S
N285 C283 1.384 . S
H286 C292 0.930 . S
H287 C296 0.930 . S
H288 C301 0.929 . S
H289 C299 0.929 . S
H290 C294 0.929 . S
H291 C300 0.929 . S
C292 H286 0.930 . S
C292 C293 1.367 . S
C292 C300 1.378 . S
C293 C292 1.367 . S
C293 C301 1.433 . S
C294 H290 0.929 . S
C294 C296 1.378 . S
C294 C298 1.350 . S
C295 C298 1.463 . S
C295 C300 1.350 . S
C295 N303 1.427 . S
C296 H287 0.930 . S
C296 C294 1.378 . S
C296 C297 1.367 . S
C297 C296 1.367 . S
C297 C299 1.433 . S
C298 C294 1.350 . S
C298 C295 1.463 . S
C298 N302 1.427 . S
C299 H289 0.929 . S
C299 C297 1.433 . S
C299 N302 1.384 . S
C300 H291 0.929 . S
C300 C292 1.378 . S
C300 C295 1.350 . S
C301 H288 0.929 . S
C301 C293 1.433 . S
C301 N303 1.384 . S
N302 C298 1.427 . S
N302 C299 1.384 . S
N303 C295 1.427 . S
N303 C301 1.384 . S
H304 C310 0.930 . S
H305 C314 0.930 . S
H306 C319 0.929 . S
H307 C317 0.929 . S
H308 C312 0.929 . S
H309 C318 0.929 . S
C310 H304 0.930 . S
C310 C311 1.367 . S
C310 C318 1.378 . S
C311 C310 1.367 . S
C311 C319 1.433 . S
C312 H308 0.929 . S
C312 C314 1.378 . S
C312 C316 1.350 . S
C313 C316 1.463 . S
C313 C318 1.350 . S
C313 N321 1.427 . S
C314 H305 0.930 . S
C314 C312 1.378 . S
C314 C315 1.367 . S
C315 C314 1.367 . S
C315 C317 1.433 . S
C316 C312 1.350 . S
C316 C313 1.463 . S
C316 N320 1.427 . S
C317 H307 0.929 . S
C317 C315 1.433 . S
C317 N320 1.384 . S
C318 H309 0.929 . S
C318 C310 1.378 . S
C318 C313 1.350 . S
C319 H306 0.929 . S
C319 C311 1.433 . S
C319 N321 1.384 . S
N320 C316 1.427 . S
N320 C317 1.384 . S
N321 C313 1.427 . S
N321 C319 1.384 . S
H322 C328 0.930 . S
H323 C332 0.930 . S
H324 C337 0.929 . S
H325 C335 0.929 . S
H326 C330 0.929 . S
H327 C336 0.929 . S
C328 H322 0.930 . S
C328 C329 1.367 . S
C328 C336 1.378 . S
C329 C328 1.367 . S
C329 C337 1.433 . S
C330 H326 0.929 . S
C330 C332 1.378 . S
C330 C334 1.350 . S
C331 C334 1.463 . S
C331 C336 1.350 . S
C331 N339 1.427 . S
C332 H323 0.930 . S
C332 C330 1.378 . S
C332 C333 1.367 . S
C333 C332 1.367 . S
C333 C335 1.433 . S
C334 C330 1.350 . S
C334 C331 1.463 . S
C334 N338 1.427 . S
C335 H325 0.929 . S
C335 C333 1.433 . S
C335 N338 1.384 . S
C336 H327 0.929 . S
C336 C328 1.378 . S
C336 C331 1.350 . S
C337 H324 0.929 . S
C337 C329 1.433 . S
C337 N339 1.384 . S
N338 C334 1.427 . S
N338 C335 1.384 . S
N339 C331 1.427 . S
N339 C337 1.384 . S
H340 C346 0.930 . S
H341 C350 0.930 . S
H342 C355 0.929 . S
H343 C353 0.929 . S
H344 C348 0.929 . S
H345 C354 0.929 . S
C346 H340 0.930 . S
C346 C347 1.367 . S
C346 C354 1.378 . S
C347 C346 1.367 . S
C347 C355 1.433 . S
C348 H344 0.929 . S
C348 C350 1.378 . S
C348 C352 1.350 . S
C349 C352 1.463 . S
C349 C354 1.350 . S
C349 N357 1.427 . S
C350 H341 0.930 . S
C350 C348 1.378 . S
C350 C351 1.367 . S
C351 C350 1.367 . S
C351 C353 1.433 . S
C352 C348 1.350 . S
C352 C349 1.463 . S
C352 N356 1.427 . S
C353 H343 0.929 . S
C353 C351 1.433 . S
C353 N356 1.384 . S
C354 H345 0.929 . S
C354 C346 1.378 . S
C354 C349 1.350 . S
C355 H342 0.929 . S
C355 C347 1.433 . S
C355 N357 1.384 . S
N356 C352 1.427 . S
N356 C353 1.384 . S
N357 C349 1.427 . S
N357 C355 1.384 . S
H358 C364 0.930 . S
H359 C368 0.930 . S
H360 C373 0.929 . S
H361 C371 0.929 . S
H362 C366 0.929 . S
H363 C372 0.929 . S
C364 H358 0.930 . S
C364 C365 1.367 . S
C364 C372 1.378 . S
C365 C364 1.367 . S
C365 C373 1.433 . S
C366 H362 0.929 . S
C366 C368 1.378 . S
C366 C370 1.350 . S
C367 C370 1.463 . S
C367 C372 1.350 . S
C367 N375 1.427 . S
C368 H359 0.930 . S
C368 C366 1.378 . S
C368 C369 1.367 . S
C369 C368 1.367 . S
C369 C371 1.433 . S
C370 C366 1.350 . S
C370 C367 1.463 . S
C370 N374 1.427 . S
C371 H361 0.929 . S
C371 C369 1.433 . S
C371 N374 1.384 . S
C372 H363 0.929 . S
C372 C364 1.378 . S
C372 C367 1.350 . S
C373 H360 0.929 . S
C373 C365 1.433 . S
C373 N375 1.384 . S
N374 C370 1.427 . S
N374 C371 1.384 . S
N375 C367 1.427 . S
N375 C373 1.384 . S
H376 C382 0.930 . S
H377 C386 0.930 . S
H378 C391 0.929 . S
H379 C389 0.929 . S
H380 C384 0.929 . S
H381 C390 0.929 . S
C382 H376 0.930 . S
C382 C383 1.367 . S
C382 C390 1.378 . S
C383 C382 1.367 . S
C383 C391 1.433 . S
C384 H380 0.929 . S
C384 C386 1.378 . S
C384 C388 1.350 . S
C385 C388 1.463 . S
C385 C390 1.350 . S
C385 N393 1.427 . S
C386 H377 0.930 . S
C386 C384 1.378 . S
C386 C387 1.367 . S
C387 C386 1.367 . S
C387 C389 1.433 . S
C388 C384 1.350 . S
C388 C385 1.463 . S
C388 N392 1.427 . S
C389 H379 0.929 . S
C389 C387 1.433 . S
C389 N392 1.384 . S
C390 H381 0.929 . S
C390 C382 1.378 . S
C390 C385 1.350 . S
C391 H378 0.929 . S
C391 C383 1.433 . S
C391 N393 1.384 . S
N392 C388 1.427 . S
N392 C389 1.384 . S
N393 C385 1.427 . S
N393 C391 1.384 . S
H394 C400 0.930 . S
H395 C404 0.930 . S
H396 C409 0.929 . S
H397 C407 0.929 . S
H398 C402 0.929 . S
H399 C408 0.929 . S
C400 H394 0.930 . S
C400 C401 1.367 . S
C400 C408 1.378 . S
C401 C400 1.367 . S
C401 C409 1.433 . S
C402 H398 0.929 . S
C402 C404 1.378 . S
C402 C406 1.350 . S
C403 C406 1.463 . S
C403 C408 1.350 . S
C403 N411 1.427 . S
C404 H395 0.930 . S
C404 C402 1.378 . S
C404 C405 1.367 . S
C405 C404 1.367 . S
C405 C407 1.433 . S
C406 C402 1.350 . S
C406 C403 1.463 . S
C406 N410 1.427 . S
C407 H397 0.929 . S
C407 C405 1.433 . S
C407 N410 1.384 . S
C408 H399 0.929 . S
C408 C400 1.378 . S
C408 C403 1.350 . S
C409 H396 0.929 . S
C409 C401 1.433 . S
C409 N411 1.384 . S
N410 C406 1.427 . S
N410 C407 1.384 . S
N411 C403 1.427 . S
N411 C409 1.384 . S
H412 C418 0.930 . S
H413 C422 0.930 . S
H414 C427 0.929 . S
H415 C425 0.929 . S
H416 C420 0.929 . S
H417 C426 0.929 . S
C418 H412 0.930 . S
C418 C419 1.367 . S
C418 C426 1.378 . S
C419 C418 1.367 . S
C419 C427 1.433 . S
C420 H416 0.929 . S
C420 C422 1.378 . S
C420 C424 1.350 . S
C421 C424 1.463 . S
C421 C426 1.350 . S
C421 N429 1.427 . S
C422 H413 0.930 . S
C422 C420 1.378 . S
C422 C423 1.367 . S
C423 C422 1.367 . S
C423 C425 1.433 . S
C424 C420 1.350 . S
C424 C421 1.463 . S
C424 N428 1.427 . S
C425 H415 0.929 . S
C425 C423 1.433 . S
C425 N428 1.384 . S
C426 H417 0.929 . S
C426 C418 1.378 . S
C426 C421 1.350 . S
C427 H414 0.929 . S
C427 C419 1.433 . S
C427 N429 1.384 . S
N428 C424 1.427 . S
N428 C425 1.384 . S
N429 C421 1.427 . S
N429 C427 1.384 . S
H430 C436 0.930 . S
H431 C440 0.930 . S
H432 C445 0.929 . S
H433 C443 0.929 . S
H434 C438 0.929 . S
H435 C444 0.929 . S
C436 H430 0.930 . S
C436 C437 1.367 . S
C436 C444 1.378 . S
C437 C436 1.367 . S
C437 C445 1.433 . S
C438 H434 0.929 . S
C438 C440 1.378 . S
C438 C442 1.350 . S
C439 C442 1.463 . S
C439 C444 1.350 . S
C439 N447 1.427 . S
C440 H431 0.930 . S
C440 C438 1.378 . S
C440 C441 1.367 . S
C441 C440 1.367 . S
C441 C443 1.433 . S
C442 C438 1.350 . S
C442 C439 1.463 . S
C442 N446 1.427 . S
C443 H433 0.929 . S
C443 C441 1.433 . S
C443 N446 1.384 . S
C444 H435 0.929 . S
C444 C436 1.378 . S
C444 C439 1.350 . S
C445 H432 0.929 . S
C445 C437 1.433 . S
C445 N447 1.384 . S
N446 C442 1.427 . S
N446 C443 1.384 . S
N447 C439 1.427 . S
N447 C445 1.384 . S
H448 C454 0.930 . S
H449 C458 0.930 . S
H450 C463 0.929 . S
H451 C461 0.929 . S
H452 C456 0.929 . S
H453 C462 0.929 . S
C454 H448 0.930 . S
C454 C455 1.367 . S
C454 C462 1.378 . S
C455 C454 1.367 . S
C455 C463 1.433 . S
C456 H452 0.929 . S
C456 C458 1.378 . S
C456 C460 1.350 . S
C457 C460 1.463 . S
C457 C462 1.350 . S
C457 N465 1.427 . S
C458 H449 0.930 . S
C458 C456 1.378 . S
C458 C459 1.367 . S
C459 C458 1.367 . S
C459 C461 1.433 . S
C460 C456 1.350 . S
C460 C457 1.463 . S
C460 N464 1.427 . S
C461 H451 0.929 . S
C461 C459 1.433 . S
C461 N464 1.384 . S
C462 H453 0.929 . S
C462 C454 1.378 . S
C462 C457 1.350 . S
C463 H450 0.929 . S
C463 C455 1.433 . S
C463 N465 1.384 . S
N464 C460 1.427 . S
N464 C461 1.384 . S
N465 C457 1.427 . S
N465 C463 1.384 . S
H466 C472 0.930 . S
H467 C476 0.930 . S
H468 C481 0.929 . S
H469 C479 0.929 . S
H470 C474 0.929 . S
H471 C480 0.929 . S
C472 H466 0.930 . S
C472 C473 1.367 . S
C472 C480 1.378 . S
C473 C472 1.367 . S
C473 C481 1.433 . S
C474 H470 0.929 . S
C474 C476 1.378 . S
C474 C478 1.350 . S
C475 C478 1.463 . S
C475 C480 1.350 . S
C475 N483 1.427 . S
C476 H467 0.930 . S
C476 C474 1.378 . S
C476 C477 1.367 . S
C477 C476 1.367 . S
C477 C479 1.433 . S
C478 C474 1.350 . S
C478 C475 1.463 . S
C478 N482 1.427 . S
C479 H469 0.929 . S
C479 C477 1.433 . S
C479 N482 1.384 . S
C480 H471 0.929 . S
C480 C472 1.378 . S
C480 C475 1.350 . S
C481 H468 0.929 . S
C481 C473 1.433 . S
C481 N483 1.384 . S
N482 C478 1.427 . S
N482 C479 1.384 . S
N483 C475 1.427 . S
N483 C481 1.384 . S
H484 C490 0.930 . S
H485 C494 0.930 . S
H486 C499 0.929 . S
H487 C497 0.929 . S
H488 C492 0.929 . S
H489 C498 0.929 . S
C490 H484 0.930 . S
C490 C491 1.367 . S
C490 C498 1.378 . S
C491 C490 1.367 . S
C491 C499 1.433 . S
C492 H488 0.929 . S
C492 C494 1.378 . S
C492 C496 1.350 . S
C493 C496 1.463 . S
C493 C498 1.350 . S
C493 N501 1.427 . S
C494 H485 0.930 . S
C494 C492 1.378 . S
C494 C495 1.367 . S
C495 C494 1.367 . S
C495 C497 1.433 . S
C496 C492 1.350 . S
C496 C493 1.463 . S
C496 N500 1.427 . S
C497 H487 0.929 . S
C497 C495 1.433 . S
C497 N500 1.384 . S
C498 H489 0.929 . S
C498 C490 1.378 . S
C498 C493 1.350 . S
C499 H486 0.929 . S
C499 C491 1.433 . S
C499 N501 1.384 . S
N500 C496 1.427 . S
N500 C497 1.384 . S
N501 C493 1.427 . S
N501 C499 1.384 . S
H502 C508 0.930 . S
H503 C512 0.930 . S
H504 C517 0.929 . S
H505 C515 0.929 . S
H506 C510 0.929 . S
H507 C516 0.929 . S
C508 H502 0.930 . S
C508 C509 1.367 . S
C508 C516 1.378 . S
C509 C508 1.367 . S
C509 C517 1.433 . S
C510 H506 0.929 . S
C510 C512 1.378 . S
C510 C514 1.350 . S
C511 C514 1.463 . S
C511 C516 1.350 . S
C511 N519 1.427 . S
C512 H503 0.930 . S
C512 C510 1.378 . S
C512 C513 1.367 . S
C513 C512 1.367 . S
C513 C515 1.433 . S
C514 C510 1.350 . S
C514 C511 1.463 . S
C514 N518 1.427 . S
C515 H505 0.929 . S
C515 C513 1.433 . S
C515 N518 1.384 . S
C516 H507 0.929 . S
C516 C508 1.378 . S
C516 C511 1.350 . S
C517 H504 0.929 . S
C517 C509 1.433 . S
C517 N519 1.384 . S
N518 C514 1.427 . S
N518 C515 1.384 . S
N519 C511 1.427 . S
N519 C517 1.384 . S
H520 C526 0.930 . S
H521 C530 0.930 . S
H522 C535 0.929 . S
H523 C533 0.929 . S
H524 C528 0.929 . S
H525 C534 0.929 . S
C526 H520 0.930 . S
C526 C527 1.367 . S
C526 C534 1.378 . S
C527 C526 1.367 . S
C527 C535 1.433 . S
C528 H524 0.929 . S
C528 C530 1.378 . S
C528 C532 1.350 . S
C529 C532 1.463 . S
C529 C534 1.350 . S
C529 N537 1.427 . S
C530 H521 0.930 . S
C530 C528 1.378 . S
C530 C531 1.367 . S
C531 C530 1.367 . S
C531 C533 1.433 . S
C532 C528 1.350 . S
C532 C529 1.463 . S
C532 N536 1.427 . S
C533 H523 0.929 . S
C533 C531 1.433 . S
C533 N536 1.384 . S
C534 H525 0.929 . S
C534 C526 1.378 . S
C534 C529 1.350 . S
C535 H522 0.929 . S
C535 C527 1.433 . S
C535 N537 1.384 . S
N536 C532 1.427 . S
N536 C533 1.384 . S
N537 C529 1.427 . S
N537 C535 1.384 . S
H538 C544 0.930 . S
H539 C548 0.930 . S
H540 C553 0.929 . S
H541 C551 0.929 . S
H542 C546 0.929 . S
H543 C552 0.929 . S
C544 H538 0.930 . S
C544 C545 1.367 . S
C544 C552 1.378 . S
C545 C544 1.367 . S
C545 C553 1.433 . S
C546 H542 0.929 . S
C546 C548 1.378 . S
C546 C550 1.350 . S
C547 C550 1.463 . S
C547 C552 1.350 . S
C547 N555 1.427 . S
C548 H539 0.930 . S
C548 C546 1.378 . S
C548 C549 1.367 . S
C549 C548 1.367 . S
C549 C551 1.433 . S
C550 C546 1.350 . S
C550 C547 1.463 . S
C550 N554 1.427 . S
C551 H541 0.929 . S
C551 C549 1.433 . S
C551 N554 1.384 . S
C552 H543 0.929 . S
C552 C544 1.378 . S
C552 C547 1.350 . S
C553 H540 0.929 . S
C553 C545 1.433 . S
C553 N555 1.384 . S
N554 C550 1.427 . S
N554 C551 1.384 . S
N555 C547 1.427 . S
N555 C553 1.384 . S
H556 C562 0.930 . S
H557 C566 0.930 . S
H558 C571 0.929 . S
H559 C569 0.929 . S
H560 C564 0.929 . S
H561 C570 0.929 . S
C562 H556 0.930 . S
C562 C563 1.367 . S
C562 C570 1.378 . S
C563 C562 1.367 . S
C563 C571 1.433 . S
C564 H560 0.929 . S
C564 C566 1.378 . S
C564 C568 1.350 . S
C565 C568 1.463 . S
C565 C570 1.350 . S
C565 N573 1.427 . S
C566 H557 0.930 . S
C566 C564 1.378 . S
C566 C567 1.367 . S
C567 C566 1.367 . S
C567 C569 1.433 . S
C568 C564 1.350 . S
C568 C565 1.463 . S
C568 N572 1.427 . S
C569 H559 0.929 . S
C569 C567 1.433 . S
C569 N572 1.384 . S
C570 H561 0.929 . S
C570 C562 1.378 . S
C570 C565 1.350 . S
C571 H558 0.929 . S
C571 C563 1.433 . S
C571 N573 1.384 . S
N572 C568 1.427 . S
N572 C569 1.384 . S
N573 C565 1.427 . S
N573 C571 1.384 . S
H574 C580 0.930 . S
H575 C584 0.930 . S
H576 C589 0.929 . S
H577 C587 0.929 . S
H578 C582 0.929 . S
H579 C588 0.929 . S
C580 H574 0.930 . S
C580 C581 1.367 . S
C580 C588 1.378 . S
C581 C580 1.367 . S
C581 C589 1.433 . S
C582 H578 0.929 . S
C582 C584 1.378 . S
C582 C586 1.350 . S
C583 C586 1.463 . S
C583 C588 1.350 . S
C583 N591 1.427 . S
C584 H575 0.930 . S
C584 C582 1.378 . S
C584 C585 1.367 . S
C585 C584 1.367 . S
C585 C587 1.433 . S
C586 C582 1.350 . S
C586 C583 1.463 . S
C586 N590 1.427 . S
C587 H577 0.929 . S
C587 C585 1.433 . S
C587 N590 1.384 . S
C588 H579 0.929 . S
C588 C580 1.378 . S
C588 C583 1.350 . S
C589 H576 0.929 . S
C589 C581 1.433 . S
C589 N591 1.384 . S
N590 C586 1.427 . S
N590 C587 1.384 . S
N591 C583 1.427 . S
N591 C589 1.384 . S
H592 C598 0.930 . S
H593 C602 0.930 . S
H594 C607 0.929 . S
H595 C605 0.929 . S
H596 C600 0.929 . S
H597 C606 0.929 . S
C598 H592 0.930 . S
C598 C599 1.367 . S
C598 C606 1.378 . S
C599 C598 1.367 . S
C599 C607 1.433 . S
C600 H596 0.929 . S
C600 C602 1.378 . S
C600 C604 1.350 . S
C601 C604 1.463 . S
C601 C606 1.350 . S
C601 N609 1.427 . S
C602 H593 0.930 . S
C602 C600 1.378 . S
C602 C603 1.367 . S
C603 C602 1.367 . S
C603 C605 1.433 . S
C604 C600 1.350 . S
C604 C601 1.463 . S
C604 N608 1.427 . S
C605 H595 0.929 . S
C605 C603 1.433 . S
C605 N608 1.384 . S
C606 H597 0.929 . S
C606 C598 1.378 . S
C606 C601 1.350 . S
C607 H594 0.929 . S
C607 C599 1.433 . S
C607 N609 1.384 . S
N608 C604 1.427 . S
N608 C605 1.384 . S
N609 C601 1.427 . S
N609 C607 1.384 . S
H610 C616 0.930 . S
H611 C620 0.930 . S
H612 C625 0.929 . S
H613 C623 0.929 . S
H614 C618 0.929 . S
H615 C624 0.929 . S
C616 H610 0.930 . S
C616 C617 1.367 . S
C616 C624 1.378 . S
C617 C616 1.367 . S
C617 C625 1.433 . S
C618 H614 0.929 . S
C618 C620 1.378 . S
C618 C622 1.350 . S
C619 C622 1.463 . S
C619 C624 1.350 . S
C619 N627 1.427 . S
C620 H611 0.930 . S
C620 C618 1.378 . S
C620 C621 1.367 . S
C621 C620 1.367 . S
C621 C623 1.433 . S
C622 C618 1.350 . S
C622 C619 1.463 . S
C622 N626 1.427 . S
C623 H613 0.929 . S
C623 C621 1.433 . S
C623 N626 1.384 . S
C624 H615 0.929 . S
C624 C616 1.378 . S
C624 C619 1.350 . S
C625 H612 0.929 . S
C625 C617 1.433 . S
C625 N627 1.384 . S
N626 C622 1.427 . S
N626 C623 1.384 . S
N627 C619 1.427 . S
N627 C625 1.384 . S
H628 C634 0.930 . S
H629 C638 0.930 . S
H630 C643 0.929 . S
H631 C641 0.929 . S
H632 C636 0.929 . S
H633 C642 0.929 . S
C634 H628 0.930 . S
C634 C635 1.367 . S
C634 C642 1.378 . S
C635 C634 1.367 . S
C635 C643 1.433 . S
C636 H632 0.929 . S
C636 C638 1.378 . S
C636 C640 1.350 . S
C637 C640 1.463 . S
C637 C642 1.350 . S
C637 N645 1.427 . S
C638 H629 0.930 . S
C638 C636 1.378 . S
C638 C639 1.367 . S
C639 C638 1.367 . S
C639 C641 1.433 . S
C640 C636 1.350 . S
C640 C637 1.463 . S
C640 N644 1.427 . S
C641 H631 0.929 . S
C641 C639 1.433 . S
C641 N644 1.384 . S
C642 H633 0.929 . S
C642 C634 1.378 . S
C642 C637 1.350 . S
C643 H630 0.929 . S
C643 C635 1.433 . S
C643 N645 1.384 . S
N644 C640 1.427 . S
N644 C641 1.384 . S
N645 C637 1.427 . S
N645 C643 1.384 . S
H646 C652 0.930 . S
H647 C656 0.930 . S
H648 C661 0.929 . S
H649 C659 0.929 . S
H650 C654 0.929 . S
H651 C660 0.929 . S
C652 H646 0.930 . S
C652 C653 1.367 . S
C652 C660 1.378 . S
C653 C652 1.367 . S
C653 C661 1.433 . S
C654 H650 0.929 . S
C654 C656 1.378 . S
C654 C658 1.350 . S
C655 C658 1.463 . S
C655 C660 1.350 . S
C655 N663 1.427 . S
C656 H647 0.930 . S
C656 C654 1.378 . S
C656 C657 1.367 . S
C657 C656 1.367 . S
C657 C659 1.433 . S
C658 C654 1.350 . S
C658 C655 1.463 . S
C658 N662 1.427 . S
C659 H649 0.929 . S
C659 C657 1.433 . S
C659 N662 1.384 . S
C660 H651 0.929 . S
C660 C652 1.378 . S
C660 C655 1.350 . S
C661 H648 0.929 . S
C661 C653 1.433 . S
C661 N663 1.384 . S
N662 C658 1.427 . S
N662 C659 1.384 . S
N663 C655 1.427 . S
N663 C661 1.384 . S
C239 C5 1.012 . S
C243 C79 1.029 . S
C257 C14 0.933 . S
C261 C128 0.931 . S
C279 C154 2.487 . S
C275 C25 2.533 . S
C293 C34 2.445 . S
C297 C202 2.401 . S
C315 C114 2.044 . S
C311 C7 1.957 . S
C333 C82 0.768 . S
C329 C13 0.757 . S
C351 C203 1.920 . S
C347 C23 1.964 . S
C369 C171 1.685 . S
C365 C31 1.705 . S
C383 C4 1.417 . S
C387 C199 1.452 . S
C405 C131 2.341 . S
C401 C22 2.409 . S
C419 C32 2.358 . S
C423 C83 2.345 . S
C437 C16 0.855 . S
C441 C168 0.861 . S
C459 C88 1.017 . S
C455 C41 0.997 . S
C473 C50 0.942 . S
C477 C119 0.942 . S
C491 C61 2.525 . S
C495 C163 2.482 . S
C509 C67 2.454 . S
C513 C211 2.404 . S
C527 C40 1.984 . S
C531 C123 2.060 . S
C549 C91 0.716 . S
C545 C52 0.716 . S
C567 C194 1.928 . S
C563 C59 1.973 . S
C585 C162 1.677 . S
C581 C70 1.702 . S
C599 C43 1.412 . S
C603 C208 1.449 . S
C621 C122 2.353 . S
C617 C58 2.421 . S
C639 C74 2.324 . S
C635 C68 2.336 . S
C653 C49 0.863 . S
C657 C159 0.858 . S
