# Generated by pormake.
# Topology ctn, (3,4)-cn, num edge types: 1
# Building blocks:
#     Node 0, Type 0, BuildingBlock: KAKCAD_clean_linker_0, # of connection points: 3
#     Node 1, Type 0, BuildingBlock: KAKCAD_clean_linker_0, # of connection points: 3
#     Node 2, Type 0, BuildingBlock: KAKCAD_clean_linker_0, # of connection points: 3
#     Node 3, Type 0, BuildingBlock: KAKCAD_clean_linker_0, # of connection points: 3
#     Node 4, Type 0, BuildingBlock: KAKCAD_clean_linker_0, # of connection points: 3
#     Node 5, Type 0, BuildingBlock: KAKCAD_clean_linker_0, # of connection points: 3
#     Node 6, Type 0, BuildingBlock: KAKCAD_clean_linker_0, # of connection points: 3
#     Node 7, Type 0, BuildingBlock: KAKCAD_clean_linker_0, # of connection points: 3
#     Node 8, Type 0, BuildingBlock: KAKCAD_clean_linker_0, # of connection points: 3
#     Node 9, Type 0, BuildingBlock: KAKCAD_clean_linker_0, # of connection points: 3
#     Node 10, Type 0, BuildingBlock: KAKCAD_clean_linker_0, # of connection points: 3
#     Node 11, Type 0, BuildingBlock: KAKCAD_clean_linker_0, # of connection points: 3
#     Node 12, Type 0, BuildingBlock: KAKCAD_clean_linker_0, # of connection points: 3
#     Node 13, Type 0, BuildingBlock: KAKCAD_clean_linker_0, # of connection points: 3
#     Node 14, Type 0, BuildingBlock: KAKCAD_clean_linker_0, # of connection points: 3
#     Node 15, Type 0, BuildingBlock: KAKCAD_clean_linker_0, # of connection points: 3
#     Node 16, Type 1, BuildingBlock: TATPOV_clean_sbu_0, # of connection points: 4
#     Node 17, Type 1, BuildingBlock: TATPOV_clean_sbu_0, # of connection points: 4
#     Node 18, Type 1, BuildingBlock: TATPOV_clean_sbu_0, # of connection points: 4
#     Node 19, Type 1, BuildingBlock: TATPOV_clean_sbu_0, # of connection points: 4
#     Node 20, Type 1, BuildingBlock: TATPOV_clean_sbu_0, # of connection points: 4
#     Node 21, Type 1, BuildingBlock: TATPOV_clean_sbu_0, # of connection points: 4
#     Node 22, Type 1, BuildingBlock: TATPOV_clean_sbu_0, # of connection points: 4
#     Node 23, Type 1, BuildingBlock: TATPOV_clean_sbu_0, # of connection points: 4
#     Node 24, Type 1, BuildingBlock: TATPOV_clean_sbu_0, # of connection points: 4
#     Node 25, Type 1, BuildingBlock: TATPOV_clean_sbu_0, # of connection points: 4
#     Node 26, Type 1, BuildingBlock: TATPOV_clean_sbu_0, # of connection points: 4
#     Node 27, Type 1, BuildingBlock: TATPOV_clean_sbu_0, # of connection points: 4
#     Edge 28, Type (0, 1), BuildingBlock: MIFKUJ_clean_linker_0, # of connection points: 2
#     Edge 29, Type (0, 1), BuildingBlock: MIFKUJ_clean_linker_0, # of connection points: 2
#     Edge 30, Type (0, 1), BuildingBlock: MIFKUJ_clean_linker_0, # of connection points: 2
#     Edge 31, Type (0, 1), BuildingBlock: MIFKUJ_clean_linker_0, # of connection points: 2
#     Edge 32, Type (0, 1), BuildingBlock: MIFKUJ_clean_linker_0, # of connection points: 2
#     Edge 33, Type (0, 1), BuildingBlock: MIFKUJ_clean_linker_0, # of connection points: 2
#     Edge 34, Type (0, 1), BuildingBlock: MIFKUJ_clean_linker_0, # of connection points: 2
#     Edge 35, Type (0, 1), BuildingBlock: MIFKUJ_clean_linker_0, # of connection points: 2
#     Edge 36, Type (0, 1), BuildingBlock: MIFKUJ_clean_linker_0, # of connection points: 2
#     Edge 37, Type (0, 1), BuildingBlock: MIFKUJ_clean_linker_0, # of connection points: 2
#     Edge 38, Type (0, 1), BuildingBlock: MIFKUJ_clean_linker_0, # of connection points: 2
#     Edge 39, Type (0, 1), BuildingBlock: MIFKUJ_clean_linker_0, # of connection points: 2
#     Edge 40, Type (0, 1), BuildingBlock: MIFKUJ_clean_linker_0, # of connection points: 2
#     Edge 41, Type (0, 1), BuildingBlock: MIFKUJ_clean_linker_0, # of connection points: 2
#     Edge 42, Type (0, 1), BuildingBlock: MIFKUJ_clean_linker_0, # of connection points: 2
#     Edge 43, Type (0, 1), BuildingBlock: MIFKUJ_clean_linker_0, # of connection points: 2
#     Edge 44, Type (0, 1), BuildingBlock: MIFKUJ_clean_linker_0, # of connection points: 2
#     Edge 45, Type (0, 1), BuildingBlock: MIFKUJ_clean_linker_0, # of connection points: 2
#     Edge 46, Type (0, 1), BuildingBlock: MIFKUJ_clean_linker_0, # of connection points: 2
#     Edge 47, Type (0, 1), BuildingBlock: MIFKUJ_clean_linker_0, # of connection points: 2
#     Edge 48, Type (0, 1), BuildingBlock: MIFKUJ_clean_linker_0, # of connection points: 2
#     Edge 49, Type (0, 1), BuildingBlock: MIFKUJ_clean_linker_0, # of connection points: 2
#     Edge 50, Type (0, 1), BuildingBlock: MIFKUJ_clean_linker_0, # of connection points: 2
#     Edge 51, Type (0, 1), BuildingBlock: MIFKUJ_clean_linker_0, # of connection points: 2
#     Edge 52, Type (0, 1), BuildingBlock: MIFKUJ_clean_linker_0, # of connection points: 2
#     Edge 53, Type (0, 1), BuildingBlock: MIFKUJ_clean_linker_0, # of connection points: 2
#     Edge 54, Type (0, 1), BuildingBlock: MIFKUJ_clean_linker_0, # of connection points: 2
#     Edge 55, Type (0, 1), BuildingBlock: MIFKUJ_clean_linker_0, # of connection points: 2
#     Edge 56, Type (0, 1), BuildingBlock: MIFKUJ_clean_linker_0, # of connection points: 2
#     Edge 57, Type (0, 1), BuildingBlock: MIFKUJ_clean_linker_0, # of connection points: 2
#     Edge 58, Type (0, 1), BuildingBlock: MIFKUJ_clean_linker_0, # of connection points: 2
#     Edge 59, Type (0, 1), BuildingBlock: MIFKUJ_clean_linker_0, # of connection points: 2
#     Edge 60, Type (0, 1), BuildingBlock: MIFKUJ_clean_linker_0, # of connection points: 2
#     Edge 61, Type (0, 1), BuildingBlock: MIFKUJ_clean_linker_0, # of connection points: 2
#     Edge 62, Type (0, 1), BuildingBlock: MIFKUJ_clean_linker_0, # of connection points: 2
#     Edge 63, Type (0, 1), BuildingBlock: MIFKUJ_clean_linker_0, # of connection points: 2
#     Edge 64, Type (0, 1), BuildingBlock: MIFKUJ_clean_linker_0, # of connection points: 2
#     Edge 65, Type (0, 1), BuildingBlock: MIFKUJ_clean_linker_0, # of connection points: 2
#     Edge 66, Type (0, 1), BuildingBlock: MIFKUJ_clean_linker_0, # of connection points: 2
#     Edge 67, Type (0, 1), BuildingBlock: MIFKUJ_clean_linker_0, # of connection points: 2
#     Edge 68, Type (0, 1), BuildingBlock: MIFKUJ_clean_linker_0, # of connection points: 2
#     Edge 69, Type (0, 1), BuildingBlock: MIFKUJ_clean_linker_0, # of connection points: 2
#     Edge 70, Type (0, 1), BuildingBlock: MIFKUJ_clean_linker_0, # of connection points: 2
#     Edge 71, Type (0, 1), BuildingBlock: MIFKUJ_clean_linker_0, # of connection points: 2
#     Edge 72, Type (0, 1), BuildingBlock: MIFKUJ_clean_linker_0, # of connection points: 2
#     Edge 73, Type (0, 1), BuildingBlock: MIFKUJ_clean_linker_0, # of connection points: 2
#     Edge 74, Type (0, 1), BuildingBlock: MIFKUJ_clean_linker_0, # of connection points: 2
#     Edge 75, Type (0, 1), BuildingBlock: MIFKUJ_clean_linker_0, # of connection points: 2
# Relax obj value: 0.002
# Max RMSD: 0.048
# Mean RMSD: 0.020
data_MOF--net-ctn--node1-TATPOV_clean_sbu_0--node2-KAKCAD_clean_linker_0--edge1-MIFKUJ_clean_linker_0
_symmetry_space_group_name_H-M    P1
_symmetry_Int_Tables_number       1
_symmetry_cell_setting            triclinic
loop_
_symmetry_equiv_pos_as_xyz
'x, y, z'
_cell_length_a     84.138373
_cell_length_b     84.082887
_cell_length_c     83.997483
_cell_angle_alpha  91.023034
_cell_angle_beta   91.24463
_cell_angle_gamma 91.161313
loop_
_atom_site_label
_atom_site_type_symbol
_atom_site_fract_x
_atom_site_fract_y
_atom_site_fract_z
_atom_type_partial_charge
C0 C 0.03711 0.07772 0.99156 0.0
C1 C 0.03354 0.09296 0.99749 0.0
C2 C 0.03906 0.06501 0.00188 0.0
C3 C 0.0374 0.06718 0.01839 0.0
C4 C 0.03372 0.08236 0.02433 0.0
C5 C 0.03186 0.09511 0.01402 0.0
C6 C 0.03958 0.05364 0.02935 0.0
C7 C 0.05226 0.04321 0.02733 0.0
C8 C 0.05438 0.03025 0.03747 0.0
C9 C 0.04362 0.0279 0.04985 0.0
C10 C 0.03087 0.03822 0.05213 0.0
C11 C 0.02897 0.05106 0.04179 0.0
C12 C 0.01948 0.03552 0.06524 0.0
C13 C 0.01455 0.02001 0.06917 0.0
C14 C 0.01346 0.04841 0.07397 0.0
C15 C 0.00282 0.04587 0.08628 0.0
C16 C 0.99797 0.03036 0.09028 0.0
C17 C 0.06779 0.01916 0.03507 0.0
C18 C 0.07237 0.01474 0.01963 0.0
C19 C 0.07609 0.01286 0.04816 0.0
C20 C 0.08856 0.00236 0.04587 0.0
C21 C 0.09317 0.99796 0.03042 0.0
C22 C 0.08492 0.00435 0.01734 0.0
C23 C 0.004 0.01747 0.08155 0.0
H24 H 0.03821 0.07553 0.97889 0.0
H25 H 0.04166 0.0534 0.9969 0.0
H26 H 0.03256 0.08446 0.03701 0.0
H27 H 0.02936 0.10672 0.01905 0.0
H28 H 0.0607 0.04543 0.01803 0.0
H29 H 0.01895 0.05883 0.04312 0.0
H30 H 0.04516 0.01796 0.05772 0.0
H31 H 0.01874 0.00979 0.06259 0.0
H32 H 0.01711 0.06051 0.07142 0.0
H33 H 0.99829 0.05612 0.09257 0.0
H34 H 0.06616 0.01917 0.00925 0.0
H35 H 0.07306 0.01613 0.06023 0.0
H36 H 0.00072 0.00534 0.08438 0.0
H37 H 0.08824 0.00145 0.00526 0.0
H38 H 0.09447 0.99756 0.05625 0.0
C39 C 0.33463 0.73071 0.2548 0.0
C40 C 0.34302 0.71682 0.25815 0.0
C41 C 0.32093 0.73003 0.24507 0.0
C42 C 0.31532 0.71545 0.23845 0.0
C43 C 0.32365 0.70155 0.24192 0.0
C44 C 0.33731 0.70222 0.25169 0.0
C45 C 0.30098 0.71472 0.22776 0.0
C46 C 0.29852 0.72643 0.21626 0.0
C47 C 0.28537 0.72536 0.20568 0.0
C48 C 0.27459 0.71248 0.20668 0.0
C49 C 0.27667 0.70081 0.21826 0.0
C50 C 0.28988 0.70209 0.22878 0.0
C51 C 0.26508 0.68729 0.2194 0.0
C52 C 0.24869 0.68966 0.21719 0.0
C53 C 0.27031 0.67192 0.22283 0.0
C54 C 0.25942 0.6593 0.22425 0.0
C55 C 0.24302 0.66168 0.22213 0.0
C56 C 0.28307 0.73751 0.19332 0.0
C57 C 0.28398 0.75381 0.19733 0.0
C58 C 0.27991 0.73286 0.1774 0.0
C59 C 0.27787 0.74426 0.16569 0.0
C60 C 0.27875 0.76056 0.16968 0.0
C61 C 0.28171 0.76524 0.18563 0.0
C62 C 0.2378 0.677 0.21848 0.0
H63 H 0.33859 0.74211 0.2598 0.0
H64 H 0.31466 0.74092 0.24284 0.0
H65 H 0.3198 0.69015 0.23681 0.0
H66 H 0.34363 0.69135 0.25386 0.0
H67 H 0.30712 0.7361 0.21515 0.0
H68 H 0.2914 0.69337 0.238 0.0
H69 H 0.26457 0.71156 0.19837 0.0
H70 H 0.2442 0.70136 0.2147 0.0
H71 H 0.28286 0.6696 0.22438 0.0
H72 H 0.26387 0.64772 0.22728 0.0
H73 H 0.2863 0.7577 0.20954 0.0
H74 H 0.27925 0.72037 0.17397 0.0
H75 H 0.22528 0.67925 0.21656 0.0
H76 H 0.28255 0.77773 0.189 0.0
H77 H 0.27549 0.74034 0.1535 0.0
C78 C 0.9767 0.45924 0.11927 0.0
C79 C 0.99291 0.45935 0.11558 0.0
C80 C 0.96514 0.45558 0.10755 0.0
C81 C 0.96954 0.45191 0.0919 0.0
C82 C 0.98575 0.45195 0.0882 0.0
C83 C 0.99732 0.45567 0.09992 0.0
C84 C 0.95719 0.44838 0.07942 0.0
C85 C 0.94373 0.45787 0.07824 0.0
C86 C 0.932 0.45491 0.06633 0.0
C87 C 0.93386 0.44211 0.05554 0.0
C88 C 0.94743 0.43265 0.05644 0.0
C89 C 0.95899 0.43583 0.06844 0.0
C90 C 0.94998 0.41986 0.04448 0.0
C91 C 0.938 0.40844 0.04072 0.0
C92 C 0.96463 0.41897 0.03684 0.0
C93 C 0.96726 0.40693 0.02563 0.0
C94 C 0.95535 0.39543 0.02193 0.0
C95 C 0.91857 0.46602 0.06462 0.0
C96 C 0.91148 0.47261 0.07818 0.0
C97 C 0.91373 0.47123 0.04951 0.0
C98 C 0.90265 0.48329 0.04804 0.0
C99 C 0.89626 0.49053 0.06164 0.0
C100 C 0.90051 0.48477 0.07671 0.0
C101 C 0.94071 0.39623 0.02963 0.0
H102 H 0.97293 0.46218 0.1312 0.0
H103 H 0.95274 0.45553 0.11077 0.0
H104 H 0.98947 0.44932 0.07619 0.0
H105 H 0.00974 0.45551 0.09677 0.0
H106 H 0.94275 0.46804 0.08624 0.0
H107 H 0.96934 0.42839 0.06931 0.0
H108 H 0.92498 0.43974 0.04622 0.0
H109 H 0.92664 0.40884 0.04652 0.0
H110 H 0.97402 0.42769 0.03944 0.0
H111 H 0.97868 0.40651 0.01995 0.0
H112 H 0.91475 0.46867 0.08999 0.0
H113 H 0.919 0.46649 0.03882 0.0
H114 H 0.93132 0.38754 0.02691 0.0
H115 H 0.89588 0.49007 0.08745 0.0
H116 H 0.89937 0.4872 0.03622 0.0
C117 C 0.70761 0.74676 0.17022 0.0
C118 C 0.72239 0.74361 0.1635 0.0
C119 C 0.70661 0.75701 0.18342 0.0
C120 C 0.7204 0.76427 0.19029 0.0
C121 C 0.73519 0.76105 0.18357 0.0
C122 C 0.73617 0.75088 0.17031 0.0
C123 C 0.71938 0.77517 0.20437 0.0
C124 C 0.70875 0.77181 0.2166 0.0
C125 C 0.70769 0.78208 0.22988 0.0
C126 C 0.71743 0.79582 0.23094 0.0
C127 C 0.72804 0.79947 0.21877 0.0
C128 C 0.72895 0.78906 0.20556 0.0
C129 C 0.73784 0.81438 0.21958 0.0
C130 C 0.73109 0.82882 0.22427 0.0
C131 C 0.75394 0.81432 0.21542 0.0
C132 C 0.76309 0.8284 0.21598 0.0
C133 C 0.75634 0.84287 0.22065 0.0
C134 C 0.69602 0.77867 0.24241 0.0
C135 C 0.68008 0.77514 0.23821 0.0
C136 C 0.70063 0.77923 0.2586 0.0
C137 C 0.68945 0.77637 0.27037 0.0
C138 C 0.67344 0.77319 0.26615 0.0
C139 C 0.66888 0.77254 0.24996 0.0
C140 C 0.74021 0.8429 0.22476 0.0
H141 H 0.69677 0.74147 0.16511 0.0
H142 H 0.695 0.75943 0.18811 0.0
H143 H 0.74608 0.76621 0.18871 0.0
H144 H 0.74775 0.74849 0.16554 0.0
H145 H 0.70144 0.76104 0.21596 0.0
H146 H 0.73679 0.79206 0.19594 0.0
H147 H 0.7166 0.80379 0.24117 0.0
H148 H 0.71866 0.82931 0.22728 0.0
H149 H 0.75952 0.80334 0.21192 0.0
H150 H 0.77552 0.82789 0.21297 0.0
H151 H 0.67621 0.77473 0.22582 0.0
H152 H 0.71288 0.78185 0.26214 0.0
H153 H 0.73455 0.85387 0.22815 0.0
H154 H 0.65662 0.77004 0.2464 0.0
H155 H 0.69324 0.77703 0.28278 0.0
C156 C 0.0093 0.94924 0.40576 0.0
C157 C 0.01516 0.95624 0.39192 0.0
C158 C 0.01932 0.94679 0.4189 0.0
C159 C 0.03556 0.95103 0.4185 0.0
C160 C 0.04154 0.9576 0.40448 0.0
C161 C 0.03145 0.96023 0.39138 0.0
C162 C 0.04603 0.94907 0.43282 0.0
C163 C 0.0439 0.93599 0.44282 0.0
C164 C 0.05317 0.93453 0.45679 0.0
C165 C 0.0649 0.94613 0.46062 0.0
C166 C 0.06723 0.95928 0.45082 0.0
C167 C 0.05777 0.96066 0.43695 0.0
C168 C 0.07936 0.9717 0.45527 0.0
C169 C 0.08102 0.97724 0.47112 0.0
C170 C 0.08952 0.97791 0.44377 0.0
C171 C 0.10134 0.98916 0.4481 0.0
C172 C 0.1032 0.99447 0.46402 0.0
C173 C 0.05009 0.92136 0.46787 0.0
C174 C 0.03448 0.91769 0.47232 0.0
C175 C 0.06271 0.91291 0.47464 0.0
C176 C 0.05977 0.90111 0.48579 0.0
C177 C 0.04415 0.89762 0.49048 0.0
C178 C 0.03154 0.90601 0.48355 0.0
C179 C 0.09281 0.98851 0.47545 0.0
H180 H 0.99689 0.94573 0.40653 0.0
H181 H 0.01421 0.94189 0.42952 0.0
H182 H 0.05402 0.96079 0.40364 0.0
H183 H 0.03637 0.96575 0.38098 0.0
H184 H 0.03507 0.92683 0.43972 0.0
H185 H 0.05918 0.9711 0.4297 0.0
H186 H 0.07207 0.94505 0.47141 0.0
H187 H 0.07321 0.97283 0.48021 0.0
H188 H 0.08856 0.97381 0.43148 0.0
H189 H 0.10906 0.99367 0.43899 0.0
H190 H 0.02455 0.92419 0.46749 0.0
H191 H 0.07485 0.91542 0.4713 0.0
H192 H 0.09403 0.99228 0.48782 0.0
H193 H 0.0194 0.90387 0.48708 0.0
H194 H 0.06973 0.89471 0.49069 0.0
C195 C 0.16877 0.71244 0.74311 0.0
C196 C 0.1654 0.72782 0.73789 0.0
C197 C 0.18104 0.71008 0.75424 0.0
C198 C 0.19004 0.72308 0.76052 0.0
C199 C 0.18676 0.73844 0.7552 0.0
C200 C 0.17461 0.74078 0.74393 0.0
C201 C 0.20251 0.72063 0.77293 0.0
C202 C 0.21362 0.70853 0.77111 0.0
C203 C 0.22522 0.70583 0.78304 0.0
C204 C 0.22539 0.71538 0.797 0.0
C205 C 0.21451 0.7277 0.79884 0.0
C206 C 0.20316 0.73028 0.78673 0.0
C207 C 0.21506 0.73804 0.81331 0.0
C208 C 0.21556 0.73141 0.82855 0.0
C209 C 0.21512 0.75467 0.81194 0.0
C210 C 0.21592 0.7645 0.82553 0.0
C211 C 0.21643 0.75788 0.84076 0.0
C212 C 0.23729 0.6933 0.78074 0.0
C213 C 0.23318 0.67885 0.77282 0.0
C214 C 0.25312 0.6958 0.78615 0.0
C215 C 0.2645 0.68417 0.7837 0.0
C216 C 0.26039 0.66988 0.7756 0.0
C217 C 0.24462 0.66733 0.77019 0.0
C218 C 0.21611 0.74125 0.84216 0.0
H219 H 0.16192 0.70223 0.73856 0.0
H220 H 0.18326 0.69812 0.75822 0.0
H221 H 0.19359 0.74865 0.75977 0.0
H222 H 0.17219 0.75277 0.74019 0.0
H223 H 0.21344 0.70151 0.76017 0.0
H224 H 0.19453 0.73955 0.78827 0.0
H225 H 0.23408 0.71336 0.80641 0.0
H226 H 0.21542 0.71863 0.82992 0.0
H227 H 0.21482 0.76007 0.80032 0.0
H228 H 0.21611 0.77728 0.82414 0.0
H229 H 0.22108 0.67634 0.76876 0.0
H230 H 0.25683 0.70687 0.79202 0.0
H231 H 0.21663 0.73588 0.85378 0.0
H232 H 0.24109 0.6563 0.76411 0.0
H233 H 0.27662 0.68649 0.78788 0.0
C234 C 0.97698 0.59837 0.485 0.0
C235 C 0.97583 0.59217 0.50035 0.0
C236 C 0.97108 0.58968 0.47177 0.0
C237 C 0.96402 0.57454 0.4736 0.0
C238 C 0.96333 0.56815 0.48894 0.0
C239 C 0.9691 0.57692 0.50219 0.0
C240 C 0.95728 0.56553 0.45956 0.0
C241 C 0.96515 0.56563 0.44502 0.0
C242 C 0.95906 0.55696 0.43172 0.0
C243 C 0.94487 0.54801 0.4331 0.0
C244 C 0.93692 0.54764 0.44764 0.0
C245 C 0.9431 0.55659 0.46071 0.0
C246 C 0.92267 0.53725 0.44959 0.0
C247 C 0.91012 0.5369 0.43826 0.0
C248 C 0.92164 0.52752 0.46296 0.0
C249 C 0.9084 0.51759 0.46496 0.0
C250 C 0.89583 0.5172 0.45368 0.0
C251 C 0.96842 0.55633 0.41696 0.0
C252 C 0.97607 0.57012 0.41143 0.0
C253 C 0.97118 0.54168 0.40933 0.0
C254 C 0.98217 0.54069 0.39715 0.0
C255 C 0.99063 0.55432 0.39236 0.0
C256 C 0.98707 0.56914 0.39925 0.0
C257 C 0.89674 0.52703 0.44035 0.0
H258 H 0.98186 0.61022 0.48327 0.0
H259 H 0.97163 0.59504 0.46016 0.0
H260 H 0.95829 0.55639 0.49074 0.0
H261 H 0.96817 0.57184 0.51391 0.0
H262 H 0.97646 0.57194 0.44424 0.0
H263 H 0.93676 0.55662 0.47181 0.0
H264 H 0.94025 0.541 0.42301 0.0
H265 H 0.91059 0.54435 0.42789 0.0
H266 H 0.9312 0.52743 0.47181 0.0
H267 H 0.90796 0.51025 0.47542 0.0
H268 H 0.97401 0.58162 0.41695 0.0
H269 H 0.96553 0.53083 0.41336 0.0
H270 H 0.88725 0.52688 0.43143 0.0
H271 H 0.99341 0.57985 0.39587 0.0
H272 H 0.98447 0.52914 0.39187 0.0
C273 C 0.79555 0.75522 0.84394 0.0
C274 C 0.77945 0.75225 0.84704 0.0
C275 C 0.79992 0.76573 0.83207 0.0
C276 C 0.78827 0.77337 0.8229 0.0
C277 C 0.77212 0.77032 0.826 0.0
C278 C 0.76776 0.75993 0.83803 0.0
C279 C 0.793 0.78461 0.81031 0.0
C280 C 0.80617 0.78151 0.80082 0.0
C281 C 0.81106 0.79231 0.78924 0.0
C282 C 0.80242 0.80625 0.787 0.0
C283 C 0.78903 0.80936 0.79613 0.0
C284 C 0.78451 0.79858 0.80785 0.0
C285 C 0.77958 0.82377 0.79342 0.0
C286 C 0.78704 0.83875 0.79185 0.0
C287 C 0.76292 0.82257 0.79259 0.0
C288 C 0.75387 0.8361 0.79053 0.0
C289 C 0.76125 0.85117 0.78934 0.0
C290 C 0.82509 0.78888 0.77942 0.0
C291 C 0.83875 0.78223 0.78631 0.0
C292 C 0.82486 0.79205 0.76305 0.0
C293 C 0.83795 0.78854 0.75377 0.0
C294 C 0.85153 0.78171 0.76062 0.0
C295 C 0.8518 0.77865 0.77701 0.0
C296 C 0.77794 0.85234 0.78985 0.0
H297 H 0.8048 0.74961 0.85089 0.0
H298 H 0.81245 0.76805 0.83026 0.0
H299 H 0.76283 0.7758 0.81901 0.0
H300 H 0.75526 0.75771 0.84012 0.0
H301 H 0.81245 0.77048 0.80221 0.0
H302 H 0.77453 0.80129 0.81531 0.0
H303 H 0.80603 0.81466 0.77807 0.0
H304 H 0.79987 0.84001 0.79255 0.0
H305 H 0.75688 0.81113 0.79345 0.0
H306 H 0.74104 0.83473 0.78978 0.0
H307 H 0.83938 0.77982 0.79893 0.0
H308 H 0.81448 0.79702 0.75733 0.0
H309 H 0.78397 0.8638 0.78907 0.0
H310 H 0.86202 0.77326 0.78264 0.0
H311 H 0.83743 0.79127 0.74122 0.0
C312 C 0.29005 0.24842 0.34083 0.0
C313 C 0.27414 0.24686 0.34534 0.0
C314 C 0.29411 0.25769 0.32788 0.0
C315 C 0.28231 0.26544 0.319 0.0
C316 C 0.26636 0.26384 0.32355 0.0
C317 C 0.26233 0.25472 0.33667 0.0
C318 C 0.28674 0.2753 0.3052 0.0
C319 C 0.29892 0.27057 0.29507 0.0
C320 C 0.30379 0.28021 0.28252 0.0
C321 C 0.29599 0.29459 0.27988 0.0
C322 C 0.2835 0.29927 0.28958 0.0
C323 C 0.27906 0.28966 0.3023 0.0
C324 C 0.275 0.3142 0.28653 0.0
C325 C 0.28339 0.32842 0.28353 0.0
C326 C 0.25833 0.31429 0.28683 0.0
C327 C 0.25021 0.32837 0.28451 0.0
C328 C 0.25856 0.34271 0.28194 0.0
C329 C 0.31715 0.27538 0.27234 0.0
C330 C 0.33057 0.26811 0.27905 0.0
C331 C 0.31674 0.27822 0.2559 0.0
C332 C 0.32957 0.2742 0.24647 0.0
C333 C 0.34305 0.26707 0.2532 0.0
C334 C 0.34332 0.26393 0.26958 0.0
C335 C 0.27524 0.34257 0.28128 0.0
H336 H 0.2994 0.24263 0.34749 0.0
H337 H 0.30654 0.25893 0.32496 0.0
H338 H 0.25694 0.26946 0.31686 0.0
H339 H 0.24996 0.25356 0.33986 0.0
H340 H 0.30451 0.25922 0.29685 0.0
H341 H 0.26987 0.29362 0.3102 0.0
H342 H 0.29963 0.30218 0.27027 0.0
H343 H 0.29626 0.32869 0.28334 0.0
H344 H 0.25156 0.30344 0.2888 0.0
H345 H 0.23734 0.328 0.28471 0.0
H346 H 0.33138 0.2659 0.2917 0.0
H347 H 0.30651 0.28358 0.25028 0.0
H348 H 0.282 0.35345 0.27943 0.0
H349 H 0.35341 0.25827 0.27514 0.0
H350 H 0.32901 0.27701 0.23394 0.0
C351 C 0.49284 0.97207 0.59708 0.0
C352 C 0.50806 0.9697 0.59106 0.0
C353 C 0.4793 0.96764 0.58805 0.0
C354 C 0.48069 0.96089 0.57271 0.0
C355 C 0.49597 0.95891 0.56655 0.0
C356 C 0.50951 0.96317 0.57568 0.0
C357 C 0.46626 0.95576 0.56331 0.0
C358 C 0.45245 0.96482 0.56371 0.0
C359 C 0.43869 0.96008 0.55493 0.0
C360 C 0.43891 0.9461 0.54549 0.0
C361 C 0.45274 0.93706 0.54474 0.0
C362 C 0.46625 0.94185 0.55382 0.0
C363 C 0.4535 0.92301 0.5339 0.0
C364 C 0.44152 0.9111 0.53364 0.0
C365 C 0.46644 0.92145 0.52376 0.0
C366 C 0.46742 0.90828 0.51354 0.0
C367 C 0.45554 0.89631 0.51331 0.0
C368 C 0.42461 0.97044 0.55495 0.0
C369 C 0.41992 0.97802 0.56911 0.0
C370 C 0.41656 0.97387 0.54063 0.0
C371 C 0.40465 0.9852 0.54036 0.0
C372 C 0.40056 0.99339 0.55439 0.0
C373 C 0.40805 0.98938 0.56883 0.0
C374 C 0.44261 0.89777 0.52351 0.0
H375 H 0.4914 0.97684 0.60902 0.0
H376 H 0.46776 0.96911 0.59328 0.0
H377 H 0.49748 0.95406 0.55466 0.0
H378 H 0.52113 0.96132 0.57075 0.0
H379 H 0.45258 0.97594 0.57043 0.0
H380 H 0.47675 0.9346 0.55357 0.0
H381 H 0.42847 0.94245 0.53847 0.0
H382 H 0.43146 0.912 0.54141 0.0
H383 H 0.47577 0.93052 0.52363 0.0
H384 H 0.47759 0.90739 0.5059 0.0
H385 H 0.42575 0.97545 0.58038 0.0
H386 H 0.41992 0.96832 0.5295 0.0
H387 H 0.43325 0.88873 0.52348 0.0
H388 H 0.40523 0.99549 0.57984 0.0
H389 H 0.39889 0.98781 0.52908 0.0
C390 C 0.20421 0.24689 0.66976 0.0
C391 C 0.21907 0.24283 0.66373 0.0
C392 C 0.20323 0.25731 0.68284 0.0
C393 C 0.2171 0.26385 0.69022 0.0
C394 C 0.23196 0.25972 0.68421 0.0
C395 C 0.23293 0.24936 0.6711 0.0
C396 C 0.2161 0.27497 0.70412 0.0
C397 C 0.20493 0.27225 0.71601 0.0
C398 C 0.20389 0.28273 0.72914 0.0
C399 C 0.21428 0.29601 0.7304 0.0
C400 C 0.22547 0.29902 0.71856 0.0
C401 C 0.22626 0.28843 0.70547 0.0
C402 C 0.23609 0.31338 0.71959 0.0
C403 C 0.23022 0.32814 0.72459 0.0
C404 C 0.25212 0.3125 0.71531 0.0
C405 C 0.26202 0.32606 0.71595 0.0
C406 C 0.25614 0.34083 0.72091 0.0
C407 C 0.19162 0.28 0.74128 0.0
C408 C 0.17583 0.27638 0.73651 0.0
C409 C 0.1955 0.28116 0.75763 0.0
C410 C 0.18378 0.27881 0.76898 0.0
C411 C 0.16794 0.27547 0.76417 0.0
C412 C 0.16411 0.27422 0.74783 0.0
C413 C 0.24013 0.3417 0.72525 0.0
H414 H 0.19332 0.2422 0.66421 0.0
H415 H 0.19159 0.26044 0.687 0.0
H416 H 0.24288 0.26432 0.68977 0.0
H417 H 0.24456 0.24626 0.66688 0.0
H418 H 0.19719 0.2618 0.71522 0.0
H419 H 0.2345 0.29093 0.69606 0.0
H420 H 0.21353 0.3041 0.74053 0.0
H421 H 0.21789 0.32929 0.7278 0.0
H422 H 0.25707 0.30128 0.71155 0.0
H423 H 0.27426 0.32498 0.7124 0.0
H424 H 0.17248 0.27552 0.72399 0.0
H425 H 0.2076 0.28383 0.76163 0.0
H426 H 0.23526 0.35283 0.72934 0.0
H427 H 0.15202 0.27153 0.74379 0.0
H428 H 0.18703 0.27994 0.7815 0.0
C429 C 0.82889 0.23454 0.75532 0.0
C430 C 0.83652 0.22077 0.76053 0.0
C431 C 0.81564 0.23344 0.74501 0.0
C432 C 0.80975 0.21854 0.73948 0.0
C433 C 0.81747 0.20476 0.74456 0.0
C434 C 0.83062 0.20586 0.75501 0.0
C435 C 0.79562 0.21732 0.72846 0.0
C436 C 0.7933 0.22856 0.71646 0.0
C437 C 0.78014 0.22726 0.7059 0.0
C438 C 0.76928 0.21448 0.70729 0.0
C439 C 0.77128 0.20321 0.71929 0.0
C440 C 0.78441 0.20483 0.72988 0.0
C441 C 0.75969 0.18975 0.72085 0.0
C442 C 0.74328 0.19205 0.71866 0.0
C443 C 0.76495 0.17451 0.72476 0.0
C444 C 0.75409 0.16195 0.72666 0.0
C445 C 0.73767 0.16425 0.72457 0.0
C446 C 0.77779 0.23922 0.69333 0.0
C447 C 0.77896 0.25557 0.69707 0.0
C448 C 0.77436 0.23435 0.67752 0.0
C449 C 0.77232 0.24561 0.66565 0.0
C450 C 0.77348 0.26196 0.66938 0.0
C451 C 0.77671 0.26683 0.68522 0.0
C452 C 0.73241 0.17944 0.72046 0.0
H453 H 0.83324 0.24626 0.75906 0.0
H454 H 0.80993 0.2443 0.74152 0.0
H455 H 0.81345 0.19308 0.74037 0.0
H456 H 0.83605 0.19498 0.75887 0.0
H457 H 0.80195 0.23811 0.71501 0.0
H458 H 0.78571 0.19651 0.73949 0.0
H459 H 0.75925 0.21335 0.69901 0.0
H460 H 0.73878 0.20365 0.7158 0.0
H461 H 0.77751 0.17225 0.72632 0.0
H462 H 0.75858 0.15048 0.73003 0.0
H463 H 0.78149 0.25963 0.70919 0.0
H464 H 0.77348 0.22183 0.6743 0.0
H465 H 0.71987 0.18161 0.71856 0.0
H466 H 0.77779 0.27936 0.6884 0.0
H467 H 0.76975 0.24153 0.65354 0.0
C468 C 0.54244 0.57992 0.49606 0.0
C469 C 0.5367 0.59447 0.50176 0.0
C470 C 0.54372 0.56691 0.50613 0.0
C471 C 0.53944 0.56819 0.52221 0.0
C472 C 0.5338 0.58283 0.52791 0.0
C473 C 0.53236 0.59578 0.51778 0.0
C474 C 0.54077 0.55428 0.53294 0.0
C475 C 0.55348 0.54373 0.53156 0.0
C476 C 0.55468 0.53041 0.54139 0.0
C477 C 0.54304 0.52782 0.55289 0.0
C478 C 0.53039 0.53833 0.55465 0.0
C479 C 0.52931 0.55145 0.54457 0.0
C480 C 0.51836 0.53567 0.56709 0.0
C481 C 0.5119 0.52038 0.56958 0.0
C482 C 0.51338 0.5484 0.57671 0.0
C483 C 0.50231 0.54589 0.58865 0.0
C484 C 0.49588 0.5306 0.59117 0.0
C485 C 0.5681 0.51923 0.53966 0.0
C486 C 0.57353 0.51492 0.52448 0.0
C487 C 0.57556 0.51272 0.55314 0.0
C488 C 0.58805 0.50213 0.55148 0.0
C489 C 0.59346 0.49785 0.53631 0.0
C490 C 0.58607 0.5044 0.52283 0.0
C491 C 0.50074 0.51788 0.58145 0.0
H492 H 0.54569 0.57849 0.48372 0.0
H493 H 0.54782 0.55577 0.50121 0.0
H494 H 0.53067 0.58439 0.54026 0.0
H495 H 0.52809 0.60692 0.52255 0.0
H496 H 0.56267 0.54609 0.52304 0.0
H497 H 0.51927 0.55924 0.54556 0.0
H498 H 0.54384 0.51762 0.56054 0.0
H499 H 0.51539 0.51035 0.56228 0.0
H500 H 0.51822 0.56029 0.57517 0.0
H501 H 0.49871 0.55595 0.59584 0.0
H502 H 0.56791 0.51949 0.51383 0.0
H503 H 0.57189 0.51597 0.56502 0.0
H504 H 0.49611 0.50594 0.58317 0.0
H505 H 0.5898 0.50116 0.51097 0.0
H506 H 0.59364 0.49747 0.56211 0.0
C507 C 0.51183 0.4529 0.90588 0.0
C508 C 0.5187 0.45549 0.89098 0.0
C509 C 0.52137 0.4514 0.91956 0.0
C510 C 0.53798 0.45268 0.91872 0.0
C511 C 0.54491 0.45495 0.90385 0.0
C512 C 0.53539 0.45623 0.89011 0.0
C513 C 0.54794 0.45262 0.93346 0.0
C514 C 0.54566 0.44083 0.9449 0.0
C515 C 0.55459 0.44124 0.95926 0.0
C516 C 0.56567 0.45374 0.9621 0.0
C517 C 0.5681 0.46556 0.95078 0.0
C518 C 0.55929 0.46484 0.93642 0.0
C519 C 0.57988 0.47861 0.9541 0.0
C520 C 0.58093 0.48599 0.96924 0.0
C521 C 0.59057 0.48332 0.94238 0.0
C522 C 0.60244 0.49478 0.94593 0.0
C523 C 0.60382 0.50176 0.96125 0.0
C524 C 0.55222 0.42893 0.97155 0.0
C525 C 0.53692 0.42298 0.97481 0.0
C526 C 0.56522 0.42355 0.98063 0.0
C527 C 0.56294 0.41301 0.99305 0.0
C528 C 0.54761 0.40733 0.99658 0.0
C529 C 0.53466 0.41225 0.98711 0.0
C530 C 0.59278 0.49743 0.97278 0.0
H531 H 0.49905 0.45257 0.90712 0.0
H532 H 0.51572 0.44986 0.93091 0.0
H533 H 0.55772 0.45583 0.90289 0.0
H534 H 0.54113 0.4579 0.87883 0.0
H535 H 0.53709 0.43126 0.94247 0.0
H536 H 0.56084 0.47414 0.92777 0.0
H537 H 0.57244 0.45434 0.97322 0.0
H538 H 0.5727 0.48277 0.97844 0.0
H539 H 0.59008 0.47781 0.93062 0.0
H540 H 0.61065 0.49803 0.93672 0.0
H541 H 0.52662 0.42693 0.96815 0.0
H542 H 0.57722 0.42761 0.97826 0.0
H543 H 0.5936 0.5025 0.98473 0.0
H544 H 0.52271 0.40788 0.98924 0.0
H545 H 0.5732 0.40963 0.00013 0.0
C546 C 0.6646 0.21078 0.24541 0.0
C547 C 0.66119 0.22615 0.2402 0.0
C548 C 0.6769 0.20845 0.25652 0.0
C549 C 0.68587 0.22148 0.26278 0.0
C550 C 0.68249 0.23684 0.25753 0.0
C551 C 0.67033 0.23914 0.24628 0.0
C552 C 0.69852 0.21907 0.27498 0.0
C553 C 0.70985 0.20724 0.27281 0.0
C554 C 0.72181 0.20475 0.28443 0.0
C555 C 0.72212 0.2142 0.29845 0.0
C556 C 0.711 0.22625 0.30064 0.0
C557 C 0.69928 0.22863 0.28884 0.0
C558 C 0.71176 0.23662 0.31509 0.0
C559 C 0.71292 0.23005 0.33033 0.0
C560 C 0.71135 0.25323 0.31368 0.0
C561 C 0.71232 0.26311 0.32723 0.0
C562 C 0.71349 0.25656 0.34246 0.0
C563 C 0.73419 0.19263 0.28165 0.0
C564 C 0.7303 0.17816 0.27365 0.0
C565 C 0.7501 0.19559 0.28657 0.0
C566 C 0.76178 0.18441 0.28354 0.0
C567 C 0.75789 0.17013 0.27533 0.0
C568 C 0.74204 0.1671 0.27044 0.0
C569 C 0.71365 0.23994 0.34391 0.0
H570 H 0.65779 0.20056 0.24083 0.0
H571 H 0.67921 0.1965 0.26045 0.0
H572 H 0.68931 0.24706 0.26209 0.0
H573 H 0.66787 0.25113 0.24255 0.0
H574 H 0.70958 0.20032 0.2618 0.0
H575 H 0.69051 0.23772 0.29062 0.0
H576 H 0.73112 0.21236 0.30761 0.0
H577 H 0.71316 0.21728 0.33172 0.0
H578 H 0.71054 0.25859 0.30207 0.0
H579 H 0.71212 0.27588 0.32581 0.0
H580 H 0.71816 0.1753 0.26995 0.0
H581 H 0.75362 0.20669 0.29248 0.0
H582 H 0.71469 0.23461 0.35553 0.0
H583 H 0.73868 0.15606 0.26429 0.0
H584 H 0.77395 0.18708 0.28734 0.0
C585 C 0.47075 0.11154 0.97412 0.0
C586 C 0.47094 0.10893 0.9906 0.0
C587 C 0.46487 0.09982 0.96347 0.0
C588 C 0.45909 0.0852 0.96905 0.0
C589 C 0.45938 0.08253 0.98553 0.0
C590 C 0.46525 0.09428 0.9962 0.0
C591 C 0.45302 0.07271 0.95766 0.0
C592 C 0.46109 0.06967 0.94352 0.0
C593 C 0.45568 0.05774 0.93272 0.0
C594 C 0.44192 0.0488 0.93614 0.0
C595 C 0.43372 0.05165 0.95027 0.0
C596 C 0.43933 0.06363 0.96095 0.0
C597 C 0.41964 0.04171 0.95421 0.0
C598 C 0.40749 0.03849 0.9428 0.0
C599 C 0.41846 0.03514 0.96941 0.0
C600 C 0.40557 0.02525 0.97303 0.0
C601 C 0.3935 0.02186 0.96157 0.0
C602 C 0.46504 0.05413 0.9184 0.0
C603 C 0.47127 0.0665 0.90923 0.0
C604 C 0.46873 0.03835 0.91447 0.0
C605 C 0.47889 0.03505 0.90196 0.0
C606 C 0.48552 0.04745 0.89306 0.0
C607 C 0.48138 0.0632 0.89667 0.0
C608 C 0.39447 0.02873 0.94649 0.0
H609 H 0.47522 0.12264 0.96942 0.0
H610 H 0.4647 0.10229 0.95086 0.0
H611 H 0.45519 0.07131 0.99018 0.0
H612 H 0.46509 0.09197 0.00884 0.0
H613 H 0.472 0.07622 0.9412 0.0
H614 H 0.43288 0.06603 0.97174 0.0
H615 H 0.43776 0.03944 0.92794 0.0
H616 H 0.40806 0.04351 0.93104 0.0
H617 H 0.42772 0.03734 0.9784 0.0
H618 H 0.40506 0.02018 0.98478 0.0
H619 H 0.46846 0.07877 0.91188 0.0
H620 H 0.46428 0.02859 0.92147 0.0
H621 H 0.38537 0.02621 0.93742 0.0
H622 H 0.48604 0.073 0.88987 0.0
H623 H 0.482 0.0228 0.89965 0.0
Zn624 Zn 0.28072 0.86304 0.00106 0.0
Zn625 Zn 0.25391 0.87806 0.00627 0.0
O626 O 0.25781 0.8658 0.02723 0.0
O627 O 0.27907 0.85202 0.02191 0.0
O628 O 0.23406 0.89058 0.01075 0.0
O629 O 0.29299 0.88353 -0.00016 0.0
O630 O 0.27039 0.89608 0.00171 0.0
C631 C 0.26815 0.85567 0.03135 0.0
C632 C 0.25653 0.85481 0.9778 0.0
O633 O 0.24802 0.86349 0.9867 0.0
O634 O 0.27114 0.85317 0.98108 0.0
C635 C 0.22301 0.8928 0.00049 0.0
O636 O 0.22404 0.88641 0.98618 0.0
C637 C 0.28541 0.89637 -0.00014 0.0
Zn638 Zn 0.11451 0.47388 0.27726 0.0
Zn639 Zn 0.13117 0.49799 0.26468 0.0
O640 O 0.12011 0.50809 0.28395 0.0
O641 O 0.10764 0.48807 0.29514 0.0
O642 O 0.14402 0.51625 0.25616 0.0
O643 O 0.13441 0.46143 0.27965 0.0
O644 O 0.14805 0.48104 0.26906 0.0
C645 C 0.11138 0.50271 0.29491 0.0
C646 C 0.10433 0.48176 0.24525 0.0
O647 O 0.11559 0.49208 0.24645 0.0
O648 O 0.10147 0.47263 0.25673 0.0
C649 C 0.13812 0.53002 0.25529 0.0
O650 O 0.12341 0.53209 0.2597 0.0
C651 C 0.14749 0.46722 0.27503 0.0
Zn652 Zn 0.77492 0.6074 0.98019 0.0
Zn653 Zn 0.76356 0.62605 0.00341 0.0
O654 O 0.78337 0.6159 0.01359 0.0
O655 O 0.79391 0.60239 0.99389 0.0
O656 O 0.75625 0.64072 0.02087 0.0
O657 O 0.77577 0.62589 0.96551 0.0
O658 O 0.76672 0.64121 0.98467 0.0
C659 C 0.79433 0.60716 0.00827 0.0
C660 C 0.74352 0.59797 0.99047 0.0
O661 O 0.74504 0.61025 -0.00048 0.0
O662 O 0.7547 0.59405 0.98141 0.0
C663 C 0.74827 0.63577 0.03253 0.0
O664 O 0.74441 0.62058 0.03321 0.0
C665 C 0.77144 0.6394 0.97044 0.0
Zn666 Zn 0.86047 0.00655 0.27715 0.0
Zn667 Zn 0.87649 0.00884 0.25015 0.0
O668 O 0.86587 0.0308 0.25292 0.0
O669 O 0.85428 0.02937 0.27613 0.0
O670 O 0.88971 0.01186 0.23047 0.0
O671 O 0.88023 0.00081 0.28922 0.0
O672 O 0.8936 0.00304 0.26712 0.0
C673 C 0.85782 0.0372 0.26394 0.0
C674 C 0.8493 0.98423 0.25266 0.0
O675 O 0.86054 0.99038 0.24471 0.0
O676 O 0.84669 0.98932 0.26663 0.0
C677 C 0.89088 0.00174 0.21914 0.0
O678 O 0.88283 0.98821 0.21964 0.0
C679 C 0.89323 0.00016 0.28197 0.0
Zn680 Zn 0.27031 0.10561 0.48072 0.0
Zn681 Zn 0.25943 0.12383 0.50439 0.0
O682 O 0.27957 0.11375 0.51403 0.0
O683 O 0.28964 0.10054 0.49387 0.0
O684 O 0.25246 0.13836 0.52213 0.0
O685 O 0.27076 0.12421 0.46622 0.0
O686 O 0.26218 0.1393 0.48578 0.0
C687 C 0.29044 0.10515 0.50829 0.0
C688 C 0.2393 0.09572 0.49153 0.0
O689 O 0.24092 0.10787 0.50074 0.0
O690 O 0.25028 0.09207 0.48213 0.0
C691 C 0.2436 0.13383 0.53332 0.0
O692 O 0.23844 0.11899 0.53347 0.0
C693 C 0.26658 0.13768 0.47142 0.0
Zn694 Zn 0.36193 0.50384 0.77943 0.0
Zn695 Zn 0.37714 0.50664 0.75208 0.0
O696 O 0.36632 0.52838 0.75516 0.0
O697 O 0.35639 0.52699 0.77915 0.0
O698 O 0.39004 0.50973 0.73223 0.0
O699 O 0.38179 0.49672 0.79065 0.0
O700 O 0.39471 0.50118 0.76861 0.0
C701 C 0.35904 0.5348 0.76671 0.0
C702 C 0.34999 0.48209 0.75486 0.0
O703 O 0.36144 0.48788 0.74694 0.0
O704 O 0.34735 0.48743 0.76873 0.0
C705 C 0.38626 0.50469 0.71826 0.0
O706 O 0.37276 0.4968 0.71586 0.0
C707 C 0.39466 0.49705 0.78314 0.0
Zn708 Zn 0.77984 0.36373 0.50031 0.0
Zn709 Zn 0.7536 0.37961 0.50527 0.0
O710 O 0.75717 0.3679 0.52665 0.0
O711 O 0.77815 0.35361 0.52161 0.0
O712 O 0.7342 0.39302 0.50872 0.0
O713 O 0.79278 0.38364 0.49786 0.0
O714 O 0.7706 0.39686 0.49977 0.0
C715 C 0.76734 0.3577 0.531 0.0
C716 C 0.75509 0.35542 0.4776 0.0
O717 O 0.74693 0.36469 0.48624 0.0
O718 O 0.76966 0.3534 0.48085 0.0
C719 C 0.7227 0.38929 0.5176 0.0
O720 O 0.72298 0.37575 0.52516 0.0
C721 C 0.78554 0.39666 0.49747 0.0
Zn722 Zn 0.60947 0.96981 0.75866 0.0
Zn723 Zn 0.62566 0.99705 0.75595 0.0
O724 O 0.60944 0.00256 0.77318 0.0
O725 O 0.59444 0.98081 0.77331 0.0
O726 O 0.6387 0.01713 0.75328 0.0
O727 O 0.6287 0.95927 0.76765 0.0
O728 O 0.6427 0.98087 0.76238 0.0
C729 C 0.5974 0.99489 0.77826 0.0
C730 C 0.60856 0.98145 0.72698 0.0
O731 O 0.61565 0.99342 0.73361 0.0
O732 O 0.60528 0.96923 0.73496 0.0
C733 C 0.63316 0.03102 0.75468 0.0
O734 O 0.61819 0.0327 0.75839 0.0
C735 C 0.64196 0.96659 0.7672 0.0
Zn736 Zn 0.99894 0.28141 0.8645 0.0
Zn737 Zn 0.00337 0.255 0.88041 0.0
O738 O 0.02449 0.25785 0.8682 0.0
O739 O 0.01959 0.27864 0.85348 0.0
O740 O 0.00645 0.23539 0.89375 0.0
O741 O 0.99812 0.29453 0.88451 0.0
O742 O 0.9991 0.27223 0.89776 0.0
C743 C 0.02878 0.26766 0.85761 0.0
C744 C 0.97491 0.2577 0.85722 0.0
O745 O 0.98363 0.24914 0.86608 0.0
O746 O 0.97861 0.27216 0.8551 0.0
C747 C 0.01561 0.22404 0.8903 0.0
O748 O 0.02372 0.22463 0.87712 0.0
C749 C 0.99771 0.28731 0.89758 0.0
Zn750 Zn 0.50378 0.77839 0.36129 0.0
Zn751 Zn 0.50762 0.75238 0.37851 0.0
O752 O 0.52961 0.75614 0.36801 0.0
O753 O 0.5263 0.77795 0.35435 0.0
O754 O 0.51036 0.73294 0.39234 0.0
O755 O 0.49798 0.791 0.38068 0.0
O756 O 0.50097 0.76955 0.39497 0.0
C757 C 0.5351 0.76679 0.35885 0.0
C758 C 0.48262 0.75284 0.3512 0.0
O759 O 0.48943 0.74557 0.36259 0.0
O760 O 0.48677 0.76699 0.34816 0.0
C761 C 0.52368 0.7267 0.3956 0.0
O762 O 0.53668 0.73278 0.38959 0.0
C763 C 0.49753 0.78422 0.39399 0.0
Zn764 Zn 0.97054 0.75522 0.60744 0.0
Zn765 Zn 0.99765 0.75359 0.6247 0.0
O766 O 0.00202 0.77269 0.61033 0.0
O767 O 0.98027 0.77332 0.59532 0.0
O768 O 0.01753 0.75175 0.63829 0.0
O769 O 0.95826 0.7593 0.62715 0.0
O770 O 0.9803 0.75684 0.64143 0.0
C771 C 0.994 0.77882 0.59904 0.0
C772 C 0.98575 0.72527 0.60395 0.0
O773 O 0.99651 0.73198 0.61277 0.0
O774 O 0.97322 0.73255 0.60027 0.0
C775 C 0.03134 0.75534 0.63349 0.0
O776 O 0.03298 0.76082 0.61906 0.0
C777 C 0.96535 0.75899 0.64058 0.0
Zn778 Zn 0.47242 0.27009 0.10552 0.0
Zn779 Zn 0.49739 0.2623 0.12416 0.0
O780 O 0.50403 0.28386 0.11493 0.0
O781 O 0.48272 0.2915 0.10171 0.0
O782 O 0.51595 0.25677 0.13836 0.0
O783 O 0.45787 0.26694 0.12393 0.0
O784 O 0.47863 0.26229 0.13945 0.0
C785 C 0.49688 0.29414 0.1066 0.0
C786 C 0.48816 0.24173 0.09499 0.0
O787 O 0.49655 0.24413 0.10764 0.0
O788 O 0.4774 0.25136 0.09118 0.0
C789 C 0.53014 0.25905 0.13392 0.0
O790 O 0.53262 0.26512 0.11986 0.0
C791 C 0.46368 0.26388 0.13754 0.0
H792 H 0.23764 0.78229 0.84619 0.0
H793 H 0.24117 0.79879 0.87037 0.0
H794 H 0.20218 0.77369 0.89187 0.0
H795 H 0.19873 0.75691 0.86769 0.0
H796 H 0.2042 0.8107 0.89487 0.0
H797 H 0.23263 0.76227 0.9048 0.0
H798 H 0.25113 0.74103 0.89774 0.0
H799 H 0.28896 0.77568 0.89365 0.0
H800 H 0.27059 0.79716 0.90043 0.0
H801 H 0.22601 0.84325 0.97282 0.0
H802 H 0.2161 0.82671 0.95017 0.0
H803 H 0.2617 0.83169 0.92795 0.0
H804 H 0.27174 0.84741 0.95074 0.0
H805 H 0.25351 0.8025 0.92688 0.0
H806 H 0.22626 0.85102 0.91502 0.0
H807 H 0.20847 0.87333 0.92046 0.0
H808 H 0.16949 0.84043 0.92668 0.0
H809 H 0.18711 0.8179 0.92146 0.0
C810 C 0.22971 0.78041 0.856 0.0
C811 C 0.21794 0.76833 0.85512 0.0
C812 C 0.23174 0.78981 0.86978 0.0
C813 C 0.22191 0.78743 0.88283 0.0
C814 C 0.20982 0.77571 0.88185 0.0
C815 C 0.20795 0.76609 0.86814 0.0
C816 C 0.22509 0.7966 0.89777 0.0
C817 C 0.21482 0.8088 0.90209 0.0
C818 C 0.23909 0.79424 0.9069 0.0
C819 C 0.2502 0.78133 0.90298 0.0
C820 C 0.24485 0.76537 0.90225 0.0
C821 C 0.25533 0.75329 0.89833 0.0
C822 C 0.2712 0.75701 0.89521 0.0
C823 C 0.27665 0.77282 0.89605 0.0
C824 C 0.26622 0.78495 0.89994 0.0
C825 C 0.2338 0.84091 0.96299 0.0
C826 C 0.24967 0.84647 0.96356 0.0
C827 C 0.22813 0.83151 0.95003 0.0
C828 C 0.23814 0.82792 0.9373 0.0
C829 C 0.25378 0.8341 0.93767 0.0
C830 C 0.2595 0.84314 0.95069 0.0
C831 C 0.23289 0.81711 0.92391 0.0
C832 C 0.24277 0.80444 0.91986 0.0
C833 C 0.21865 0.81925 0.91494 0.0
C834 C 0.20804 0.83278 0.91804 0.0
C835 C 0.21392 0.84854 0.91767 0.0
C836 C 0.20387 0.86123 0.92069 0.0
C837 C 0.18787 0.8583 0.92397 0.0
C838 C 0.18189 0.84268 0.92417 0.0
C839 C 0.1919 0.82995 0.92118 0.0
H840 H 0.1801 0.86814 0.9263 0.0
H841 H 0.27929 0.74763 0.89218 0.0
H842 H 0.01335 0.53178 0.39267 0.0
H843 H 0.03648 0.52987 0.3759 0.0
H844 H 0.02239 0.57197 0.35108 0.0
H845 H 0.99878 0.57375 0.36769 0.0
H846 H 0.0319 0.54826 0.33071 0.0
H847 H 0.05305 0.57514 0.37658 0.0
H848 H 0.05765 0.58073 0.40523 0.0
H849 H 0.08031 0.53576 0.41032 0.0
H850 H 0.07563 0.52977 0.38175 0.0
H851 H 0.10457 0.53411 0.29112 0.0
H852 H 0.08719 0.55011 0.30787 0.0
H853 H 0.08397 0.51167 0.34105 0.0
H854 H 0.10109 0.49565 0.32439 0.0
H855 H 0.08526 0.54195 0.35592 0.0
H856 H 0.05735 0.51323 0.31187 0.0
H857 H 0.05229 0.50714 0.28334 0.0
H858 H 0.04242 0.55626 0.27509 0.0
H859 H 0.04764 0.56265 0.30356 0.0
C860 C 0.01499 0.54052 0.3835 0.0
C861 C 0.00418 0.55287 0.38145 0.0
C862 C 0.02836 0.53955 0.37407 0.0
C863 C 0.0313 0.55096 0.36246 0.0
C864 C 0.02039 0.56314 0.36009 0.0
C865 C 0.00697 0.56416 0.3696 0.0
C866 C 0.04564 0.54967 0.35265 0.0
C867 C 0.04365 0.54734 0.33615 0.0
C868 C 0.06096 0.54843 0.35978 0.0
C869 C 0.06393 0.55199 0.377 0.0
C870 C 0.05893 0.5664 0.38382 0.0
C871 C 0.06156 0.56964 0.40005 0.0
C872 C 0.06926 0.5586 0.40959 0.0
C873 C 0.07436 0.5443 0.40291 0.0
C874 C 0.07174 0.54099 0.38669 0.0
C875 C 0.10051 0.52928 0.30222 0.0
C876 C 0.10401 0.51359 0.30641 0.0
C877 C 0.09056 0.53839 0.31172 0.0
C878 C 0.0842 0.53197 0.32558 0.0
C879 C 0.08876 0.51682 0.3304 0.0
C880 C 0.09849 0.50766 0.32084 0.0
C881 C 0.07135 0.53993 0.33417 0.0
C882 C 0.07361 0.54346 0.35044 0.0
C883 C 0.0563 0.54232 0.32683 0.0
C884 C 0.05308 0.53845 0.30977 0.0
C885 C 0.05423 0.52274 0.30394 0.0
C886 C 0.05131 0.51924 0.28779 0.0
C887 C 0.04709 0.53132 0.2774 0.0
C888 C 0.04573 0.54692 0.28314 0.0
C889 C 0.04867 0.55049 0.29928 0.0
H890 H 0.04484 0.52858 0.2649 0.0
H891 H 0.07128 0.56113 0.42216 0.0
H892 H 0.79051 0.72252 0.85168 0.0
H893 H 0.78453 0.7047 0.87352 0.0
H894 H 0.75249 0.73908 0.89291 0.0
H895 H 0.75848 0.75705 0.87097 0.0
H896 H 0.77442 0.72756 0.91533 0.0
H897 H 0.73654 0.70679 0.87731 0.0
H898 H 0.72651 0.69684 0.85112 0.0
H899 H 0.75874 0.65795 0.85321 0.0
H900 H 0.76914 0.66779 0.87931 0.0
H901 H 0.75668 0.66806 0.97389 0.0
H902 H 0.7541 0.6888 0.95389 0.0
H903 H 0.78272 0.66149 0.92179 0.0
H904 H 0.78508 0.64072 0.94144 0.0
H905 H 0.75661 0.67138 0.90696 0.0
H906 H 0.79738 0.69482 0.9425 0.0
H907 H 0.80807 0.70496 0.9684 0.0
H908 H 0.77066 0.73886 0.9707 0.0
H909 H 0.75964 0.72877 0.94489 0.0
C910 C 0.78214 0.72624 0.86056 0.0
C911 C 0.77499 0.74114 0.85971 0.0
C912 C 0.77865 0.71603 0.87295 0.0
C913 C 0.76799 0.72056 0.88473 0.0
C914 C 0.7607 0.73538 0.88386 0.0
C915 C 0.76406 0.74556 0.87133 0.0
C916 C 0.76528 0.71001 0.89833 0.0
C917 C 0.77017 0.71537 0.91361 0.0
C918 C 0.75991 0.69409 0.89597 0.0
C919 C 0.75369 0.6881 0.88025 0.0
C920 C 0.74159 0.69618 0.87213 0.0
C921 C 0.73581 0.69055 0.85731 0.0
C922 C 0.742 0.67678 0.8505 0.0
C923 C 0.75395 0.66861 0.8585 0.0
C924 C 0.75978 0.6742 0.87333 0.0
C925 C 0.76255 0.66658 0.96262 0.0
C926 C 0.77104 0.65273 0.95922 0.0
C927 C 0.76105 0.67842 0.95122 0.0
C928 C 0.76819 0.67666 0.93635 0.0
C929 C 0.77699 0.66303 0.93313 0.0
C930 C 0.77839 0.65119 0.94442 0.0
C931 C 0.7664 0.68873 0.92384 0.0
C932 C 0.76057 0.68365 0.90877 0.0
C933 C 0.77096 0.70488 0.92639 0.0
C934 C 0.77758 0.71091 0.94189 0.0
C935 C 0.79136 0.70434 0.9486 0.0
C936 C 0.7975 0.7101 0.96325 0.0
C937 C 0.79002 0.72251 0.97122 0.0
C938 C 0.77642 0.72922 0.96453 0.0
C939 C 0.77023 0.7235 0.9499 0.0
H940 H 0.79479 0.72695 0.98255 0.0
H941 H 0.73751 0.67243 0.83902 0.0
H942 H 0.02069 0.95392 0.35975 0.0
H943 H 0.00235 0.96007 0.33772 0.0
H944 H 0.96645 0.97236 0.37139 0.0
H945 H 0.98473 0.96688 0.39339 0.0
H946 H 0.95566 0.95136 0.3466 0.0
H947 H 0.98618 0.0009 0.35429 0.0
H948 H 0.01103 0.01699 0.35535 0.0
H949 H 0.02038 0.00346 0.30697 0.0
H950 H 0.99568 0.98709 0.30571 0.0
H951 H 0.8966 0.99678 0.31398 0.0
H952 H 0.91961 0.98767 0.32889 0.0
H953 H 0.94586 0.98372 0.28551 0.0
H954 H 0.92269 0.99313 0.2703 0.0
H955 H 0.96412 0.99669 0.31048 0.0
H956 H 0.93179 0.95054 0.30119 0.0
H957 H 0.90708 0.93427 0.29973 0.0
H958 H 0.90158 0.94027 0.35017 0.0
H959 H 0.92613 0.95678 0.35191 0.0
C960 C 0.00895 0.9581 0.36248 0.0
C961 C 0.00418 0.9598 0.37838 0.0
C962 C 0.99849 0.96153 0.34987 0.0
C963 C 0.98307 0.96661 0.35297 0.0
C964 C 0.97827 0.9683 0.36877 0.0
C965 C 0.98873 0.96506 0.38134 0.0
C966 C 0.97171 0.97021 0.3399 0.0
C967 C 0.95747 0.96128 0.33871 0.0
C968 C 0.97441 0.98274 0.32922 0.0
C969 C 0.98921 0.99261 0.32997 0.0
C970 C 0.99362 0.00123 0.34393 0.0
C971 C 0.00765 0.01043 0.34456 0.0
C972 C 0.01731 0.0112 0.33126 0.0
C973 C 0.01291 0.00282 0.31728 0.0
C974 C 0.99889 0.99359 0.3166 0.0
C975 C 0.90724 0.99404 0.30753 0.0
C976 C 0.90774 0.99554 0.2909 0.0
C977 C 0.92039 0.98877 0.3161 0.0
C978 C 0.93432 0.9847 0.30827 0.0
C979 C 0.93515 0.98669 0.29174 0.0
C980 C 0.92192 0.99205 0.28309 0.0
C981 C 0.94778 0.97823 0.31762 0.0
C982 C 0.96242 0.98655 0.31811 0.0
C983 C 0.94553 0.96501 0.32759 0.0
C984 C 0.93078 0.95498 0.32666 0.0
C985 C 0.92526 0.94848 0.31196 0.0
C986 C 0.91128 0.9392 0.31108 0.0
C987 C 0.90275 0.93625 0.32485 0.0
C988 C 0.9082 0.94256 0.33952 0.0
C989 C 0.92217 0.95186 0.34046 0.0
H990 H 0.89193 0.92907 0.32414 0.0
H991 H 0.02817 0.01833 0.33176 0.0
H992 H 0.20245 0.21492 0.65809 0.0
H993 H 0.20476 0.19644 0.63543 0.0
H994 H 0.24056 0.22717 0.6155 0.0
H995 H 0.2381 0.24583 0.63796 0.0
H996 H 0.21861 0.21605 0.59294 0.0
H997 H 0.25144 0.19474 0.63493 0.0
H998 H 0.25693 0.18496 0.66196 0.0
H999 H 0.22138 0.14801 0.65477 0.0
H1000 H 0.21552 0.15773 0.62776 0.0
H1001 H 0.2549 0.16426 0.53822 0.0
H1002 H 0.24877 0.18262 0.55994 0.0
H1003 H 0.21675 0.14756 0.57926 0.0
H1004 H 0.22313 0.12893 0.55773 0.0
H1005 H 0.23486 0.1605 0.60216 0.0
H1006 H 0.20285 0.18059 0.55973 0.0
H1007 H 0.19696 0.19031 0.53276 0.0
H1008 H 0.23005 0.22935 0.54063 0.0
H1009 H 0.23631 0.21974 0.56758 0.0
C1010 C 0.21069 0.21781 0.6488 0.0
C1011 C 0.22015 0.23179 0.64984 0.0
C1012 C 0.21208 0.2072 0.63593 0.0
C1013 C 0.22294 0.21038 0.62388 0.0
C1014 C 0.23214 0.22448 0.6247 0.0
C1015 C 0.23081 0.23506 0.6376 0.0
C1016 C 0.22497 0.19887 0.61055 0.0
C1017 C 0.22231 0.20394 0.59491 0.0
C1018 C 0.22936 0.18296 0.6132 0.0
C1019 C 0.23293 0.17707 0.6294 0.0
C1020 C 0.2447 0.18461 0.63916 0.0
C1021 C 0.2479 0.17906 0.65447 0.0
C1022 C 0.23948 0.1659 0.6601 0.0
C1023 C 0.22787 0.15822 0.65041 0.0
C1024 C 0.22462 0.16374 0.6351 0.0
C1025 C 0.24649 0.16046 0.54704 0.0
C1026 C 0.23948 0.14513 0.54623 0.0
C1027 C 0.24293 0.17102 0.55941 0.0
C1028 C 0.23212 0.16656 0.57112 0.0
C1029 C 0.22509 0.15127 0.57034 0.0
C1030 C 0.22873 0.14065 0.55801 0.0
C1031 C 0.22862 0.17768 0.58446 0.0
C1032 C 0.23103 0.17256 0.60013 0.0
C1033 C 0.22391 0.19352 0.58183 0.0
C1034 C 0.22015 0.19936 0.56564 0.0
C1035 C 0.20896 0.19118 0.55567 0.0
C1036 C 0.20554 0.19668 0.54039 0.0
C1037 C 0.21315 0.21041 0.53497 0.0
C1038 C 0.22418 0.2187 0.54484 0.0
C1039 C 0.22765 0.21324 0.56013 0.0
H1040 H 0.21049 0.21465 0.52314 0.0
H1041 H 0.24197 0.16162 0.67195 0.0
H1042 H 0.49718 0.54249 0.62171 0.0
H1043 H 0.47819 0.53793 0.64288 0.0
H1044 H 0.44951 0.5079 0.611 0.0
H1045 H 0.46835 0.51262 0.58966 0.0
H1046 H 0.43151 0.52886 0.62824 0.0
H1047 H 0.4725 0.49129 0.63857 0.0
H1048 H 0.50003 0.48266 0.64314 0.0
H1049 H 0.50435 0.5131 0.68466 0.0
H1050 H 0.4769 0.5221 0.68021 0.0
H1051 H 0.38278 0.49431 0.68723 0.0
H1052 H 0.40106 0.49866 0.66542 0.0
H1053 H 0.43257 0.52594 0.69712 0.0
H1054 H 0.41452 0.52141 0.71904 0.0
H1055 H 0.44902 0.50594 0.67958 0.0
H1056 H 0.40855 0.54398 0.66932 0.0
H1057 H 0.38122 0.55322 0.66484 0.0
H1058 H 0.37605 0.5227 0.62344 0.0
H1059 H 0.4033 0.51311 0.6278 0.0
C1060 C 0.48677 0.53501 0.61916 0.0
C1061 C 0.48428 0.52789 0.60401 0.0
C1062 C 0.47599 0.53232 0.63131 0.0
C1063 C 0.46251 0.52246 0.62856 0.0
C1064 C 0.45986 0.51552 0.61339 0.0
C1065 C 0.47069 0.51813 0.60125 0.0
C1066 C 0.4512 0.51938 0.64154 0.0
C1067 C 0.43527 0.52364 0.63939 0.0
C1068 C 0.45621 0.51292 0.65622 0.0
C1069 C 0.4727 0.50749 0.65896 0.0
C1070 C 0.47936 0.49625 0.6486 0.0
C1071 C 0.49494 0.49127 0.65118 0.0
C1072 C 0.50395 0.49736 0.66416 0.0
C1073 C 0.49737 0.50841 0.6746 0.0
C1074 C 0.48179 0.51344 0.67206 0.0
C1075 C 0.39357 0.50128 0.68956 0.0
C1076 C 0.39715 0.50754 0.7049 0.0
C1077 C 0.40399 0.50381 0.67705 0.0
C1078 C 0.41813 0.51277 0.67957 0.0
C1079 C 0.42174 0.51898 0.69488 0.0
C1080 C 0.41137 0.51642 0.7074 0.0
C1081 C 0.42929 0.51549 0.66635 0.0
C1082 C 0.44522 0.51115 0.66844 0.0
C1083 C 0.42429 0.52195 0.65165 0.0
C1084 C 0.40791 0.5277 0.64899 0.0
C1085 C 0.40154 0.53914 0.65934 0.0
C1086 C 0.38607 0.54446 0.65681 0.0
C1087 C 0.37689 0.53851 0.64389 0.0
C1088 C 0.38317 0.52727 0.63345 0.0
C1089 C 0.39863 0.5219 0.63594 0.0
H1090 H 0.36491 0.54265 0.64195 0.0
H1091 H 0.51601 0.49349 0.66614 0.0
H1092 H 0.7875 0.26203 0.64047 0.0
H1093 H 0.78488 0.28171 0.61954 0.0
H1094 H 0.75286 0.30847 0.64856 0.0
H1095 H 0.75548 0.28875 0.66966 0.0
H1096 H 0.7426 0.30374 0.61569 0.0
H1097 H 0.78764 0.32327 0.6462 0.0
H1098 H 0.81346 0.32145 0.66043 0.0
H1099 H 0.83557 0.30731 0.61696 0.0
H1100 H 0.80982 0.3088 0.60251 0.0
H1101 H 0.74729 0.36424 0.55577 0.0
H1102 H 0.7468 0.35144 0.58183 0.0
H1103 H 0.78524 0.3214 0.56778 0.0
H1104 H 0.78605 0.33421 0.54216 0.0
H1105 H 0.79062 0.33229 0.59684 0.0
H1106 H 0.74555 0.3084 0.56746 0.0
H1107 H 0.71987 0.3089 0.55277 0.0
H1108 H 0.69805 0.3302 0.59345 0.0
H1109 H 0.72368 0.32999 0.60832 0.0
C1110 C 0.77983 0.27205 0.64236 0.0
C1111 C 0.77169 0.27387 0.65668 0.0
C1112 C 0.77842 0.28332 0.63044 0.0
C1113 C 0.76876 0.29658 0.63257 0.0
C1114 C 0.7604 0.29833 0.64673 0.0
C1115 C 0.76197 0.28713 0.65878 0.0
C1116 C 0.76759 0.30853 0.61987 0.0
C1117 C 0.753 0.31027 0.61174 0.0
C1118 C 0.78121 0.31687 0.61467 0.0
C1119 C 0.79676 0.31605 0.62329 0.0
C1120 C 0.79798 0.31965 0.6397 0.0
C1121 C 0.81261 0.3187 0.6478 0.0
C1122 C 0.82614 0.31424 0.63961 0.0
C1123 C 0.82507 0.31076 0.62329 0.0
C1124 C 0.81047 0.31168 0.61513 0.0
C1125 C 0.75564 0.35493 0.55829 0.0
C1126 C 0.7667 0.35027 0.54686 0.0
C1127 C 0.75532 0.3476 0.57316 0.0
C1128 C 0.76595 0.3354 0.57675 0.0
C1129 C 0.77699 0.33084 0.56536 0.0
C1130 C 0.77738 0.33817 0.55064 0.0
C1131 C 0.76575 0.32707 0.5922 0.0
C1132 C 0.78011 0.32603 0.60093 0.0
C1133 C 0.75194 0.31928 0.59783 0.0
C1134 C 0.73656 0.31937 0.58892 0.0
C1135 C 0.7353 0.3133 0.57322 0.0
C1136 C 0.72075 0.31351 0.56487 0.0
C1137 C 0.70735 0.31963 0.57215 0.0
C1138 C 0.70845 0.3255 0.58781 0.0
C1139 C 0.72298 0.32534 0.59621 0.0
H1140 H 0.69609 0.31978 0.56567 0.0
H1141 H 0.83746 0.31351 0.6459 0.0
H1142 H 0.51512 0.99649 0.60894 0.0
H1143 H 0.53677 0.00017 0.62878 0.0
H1144 H 0.55431 0.9538 0.61649 0.0
H1145 H 0.53279 0.95009 0.5966 0.0
H1146 H 0.54623 0.95896 0.64917 0.0
H1147 H 0.57644 0.98364 0.60792 0.0
H1148 H 0.5811 0.00295 0.5867 0.0
H1149 H 0.57652 0.04157 0.62032 0.0
H1150 H 0.57158 0.02248 0.64171 0.0
H1151 H 0.60692 0.95684 0.7057 0.0
H1152 H 0.5943 0.9565 0.67924 0.0
H1153 H 0.58452 0.00651 0.68443 0.0
H1154 H 0.59801 0.00706 0.71062 0.0
H1155 H 0.58952 -0.00018 0.65428 0.0
H1156 H 0.55684 0.97758 0.69438 0.0
H1157 H 0.54996 0.95996 0.71647 0.0
H1158 H 0.55605 0.91898 0.68615 0.0
H1159 H 0.56319 0.93636 0.66393 0.0
C1160 C 0.52379 0.98723 0.61029 0.0
C1161 C 0.52229 0.97298 0.60133 0.0
C1162 C 0.53617 0.98938 0.62152 0.0
C1163 C 0.54711 0.97726 0.62401 0.0
C1164 C 0.54601 0.96331 0.61462 0.0
C1165 C 0.53376 0.96123 0.60326 0.0
C1166 C 0.55837 0.97826 0.63772 0.0
C1167 C 0.55591 0.96768 0.65016 0.0
C1168 C 0.57047 0.99012 0.63923 0.0
C1169 C 0.57349 0.00162 0.62639 0.0
C1170 C 0.57627 0.99625 0.61076 0.0
C1171 C 0.579 0.00716 0.59871 0.0
C1172 C 0.57907 0.02348 0.60215 0.0
C1173 C 0.57645 0.02892 0.61767 0.0
C1174 C 0.5737 0.01806 0.62977 0.0
C1175 C 0.60236 0.96782 0.70103 0.0
C1176 C 0.6032 0.98193 0.71022 0.0
C1177 C 0.59511 0.96762 0.68596 0.0
C1178 C 0.58803 0.98137 0.68007 0.0
C1179 C 0.58981 0.99574 0.68878 0.0
C1180 C 0.59747 0.99604 0.70374 0.0
C1181 C 0.57754 0.98033 0.66566 0.0
C1182 C 0.57999 0.99097 0.6532 0.0
C1183 C 0.56507 0.96877 0.66424 0.0
C1184 C 0.56071 0.95827 0.67755 0.0
C1185 C 0.55682 0.96481 0.69246 0.0
C1186 C 0.55286 0.95487 0.70499 0.0
C1187 C 0.55261 0.93836 0.70272 0.0
C1188 C 0.55627 0.93176 0.68789 0.0
C1189 C 0.56027 0.94166 0.67532 0.0
H1190 H 0.54954 0.93068 0.71244 0.0
H1191 H 0.58118 0.03191 0.5928 0.0
H1192 H 0.8418 0.24191 0.78542 0.0
H1193 H 0.86568 0.24519 0.80226 0.0
H1194 H 0.88681 0.2054 0.77829 0.0
H1195 H 0.86324 0.20239 0.76082 0.0
H1196 H 0.89036 0.20715 0.81416 0.0
H1197 H 0.89923 0.23733 0.76662 0.0
H1198 H 0.89183 0.25658 0.74606 0.0
H1199 H 0.8884 0.29328 0.78196 0.0
H1200 H 0.89554 0.27417 0.80276 0.0
H1201 H 0.96918 0.22751 0.84512 0.0
H1202 H 0.94581 0.21827 0.82923 0.0
H1203 H 0.92425 0.26395 0.83643 0.0
H1204 H 0.94776 0.27335 0.85145 0.0
H1205 H 0.92202 0.25684 0.80712 0.0
H1206 H 0.91166 0.22772 0.85491 0.0
H1207 H 0.91771 0.20904 0.87641 0.0
H1208 H 0.92267 0.17125 0.84191 0.0
H1209 H 0.91684 0.18977 0.82019 0.0
C1210 C 0.85153 0.2339 0.78359 0.0
C1211 C 0.85061 0.22201 0.77158 0.0
C1212 C 0.8651 0.23569 0.79336 0.0
C1213 C 0.87796 0.22555 0.79147 0.0
C1214 C 0.87693 0.21327 0.77998 0.0
C1215 C 0.86341 0.21157 0.77003 0.0
C1216 C 0.89287 0.2286 0.80078 0.0
C1217 C 0.89747 0.21788 0.81254 0.0
C1218 C 0.90189 0.24273 0.79876 0.0
C1219 C 0.89778 0.25428 0.78625 0.0
C1220 C 0.89677 0.24947 0.77014 0.0
C1221 C 0.89265 0.26036 0.75844 0.0
C1222 C 0.88961 0.27613 0.7627 0.0
C1223 C 0.89074 0.28105 0.77867 0.0
C1224 C 0.89484 0.2702 0.79042 0.0
C1225 C 0.95933 0.23545 0.84342 0.0
C1226 C 0.96028 0.25116 0.84937 0.0
C1227 C 0.94596 0.23016 0.8344 0.0
C1228 C 0.9332 0.24041 0.83161 0.0
C1229 C 0.93396 0.25586 0.83822 0.0
C1230 C 0.94739 0.26122 0.84686 0.0
C1231 C 0.91943 0.23565 0.82104 0.0
C1232 C 0.91505 0.24604 0.80885 0.0
C1233 C 0.91053 0.22132 0.82287 0.0
C1234 C 0.91399 0.21017 0.83592 0.0
C1235 C 0.91416 0.21546 0.8519 0.0
C1236 C 0.91753 0.20489 0.86413 0.0
C1237 C 0.92063 0.18898 0.86052 0.0
C1238 C 0.9203 0.18359 0.84469 0.0
C1239 C 0.91695 0.19411 0.83241 0.0
H1240 H 0.92324 0.18082 0.87001 0.0
H1241 H 0.88642 0.28454 0.75363 0.0
H1242 H 0.46212 0.89675 0.48179 0.0
H1243 H 0.46602 0.87407 0.46386 0.0
H1244 H 0.45578 0.84187 0.50189 0.0
H1245 H 0.45192 0.86469 0.52003 0.0
H1246 H 0.48335 0.83435 0.48537 0.0
H1247 H 0.42908 0.84425 0.47321 0.0
H1248 H 0.40574 0.86038 0.46678 0.0
H1249 H 0.4271 0.87485 0.42325 0.0
H1250 H 0.45069 0.859 0.42952 0.0
H1251 H 0.49073 0.77332 0.42388 0.0
H1252 H 0.48077 0.78887 0.44646 0.0
H1253 H 0.48307 0.83137 0.41849 0.0
H1254 H 0.49271 0.81605 0.39602 0.0
H1255 H 0.45527 0.82894 0.43295 0.0
H1256 H 0.51113 0.82323 0.44767 0.0
H1257 H 0.53503 0.80792 0.4542 0.0
H1258 H 0.51081 0.78598 0.49285 0.0
H1259 H 0.48669 0.80104 0.48642 0.0
C1260 C 0.46063 0.88484 0.48632 0.0
C1261 C 0.45676 0.88246 0.50229 0.0
C1262 C 0.46277 0.8719 0.47605 0.0
C1263 C 0.46107 0.8563 0.48153 0.0
C1264 C 0.45708 0.85383 0.49744 0.0
C1265 C 0.45479 0.86683 0.50773 0.0
C1266 C 0.46416 0.84276 0.47058 0.0
C1267 C 0.47698 0.83288 0.47405 0.0
C1268 C 0.45592 0.84098 0.45578 0.0
C1269 C 0.4417 0.85048 0.45189 0.0
C1270 C 0.42886 0.85095 0.46231 0.0
C1271 C 0.41557 0.86004 0.45869 0.0
C1272 C 0.41495 0.86865 0.44463 0.0
C1273 C 0.4276 0.86817 0.43414 0.0
C1274 C 0.44092 0.85911 0.43771 0.0
C1275 C 0.4892 0.78599 0.42261 0.0
C1276 C 0.49247 0.79343 0.40813 0.0
C1277 C 0.48351 0.79486 0.43551 0.0
C1278 C 0.48115 0.81128 0.43414 0.0
C1279 C 0.48466 0.81869 0.41978 0.0
C1280 C 0.49024 0.8099 0.40694 0.0
C1281 C 0.47491 0.821 0.44743 0.0
C1282 C 0.46142 0.83014 0.44441 0.0
C1283 C 0.48257 0.82212 0.46259 0.0
C1284 C 0.49706 0.81309 0.46644 0.0
C1285 C 0.51086 0.81503 0.45748 0.0
C1286 C 0.52445 0.80643 0.46118 0.0
C1287 C 0.52442 0.79594 0.4739 0.0
C1288 C 0.51081 0.79408 0.48298 0.0
C1289 C 0.49718 0.80265 0.47931 0.0
H1290 H 0.53496 0.78929 0.47675 0.0
H1291 H 0.40465 0.87568 0.44184 0.0
H1292 H 0.16835 0.25782 0.79132 0.0
H1293 H 0.14702 0.25487 0.81066 0.0
H1294 H 0.11785 0.28637 0.78318 0.0
H1295 H 0.13902 0.28936 0.76392 0.0
H1296 H 0.11865 0.29349 0.81591 0.0
H1297 H 0.11131 0.24759 0.78012 0.0
H1298 H 0.11996 0.22288 0.76696 0.0
H1299 H 0.1279 0.20178 0.81256 0.0
H1300 H 0.11949 0.22647 0.826 0.0
H1301 H 0.0392 0.28447 0.83243 0.0
H1302 H 0.06512 0.28402 0.82036 0.0
H1303 H 0.08029 0.24837 0.85339 0.0
H1304 H 0.05394 0.24854 0.86555 0.0
H1305 H 0.09016 0.24194 0.82313 0.0
H1306 H 0.09362 0.28608 0.85897 0.0
H1307 H 0.08503 0.31062 0.87246 0.0
H1308 H 0.08522 0.33504 0.82801 0.0
H1309 H 0.09359 0.31058 0.81419 0.0
C1310 C 0.1574 0.26416 0.78949 0.0
C1311 C 0.15529 0.27376 0.77609 0.0
C1312 C 0.14523 0.26241 0.80048 0.0
C1313 C 0.13086 0.27036 0.79829 0.0
C1314 C 0.12886 0.28013 0.78507 0.0
C1315 C 0.14091 0.28174 0.77403 0.0
C1316 C 0.11771 0.26857 0.80962 0.0
C1317 C 0.11239 0.28223 0.81749 0.0
C1318 C 0.10997 0.25375 0.81214 0.0
C1319 C 0.11497 0.23893 0.80406 0.0
C1320 C 0.11504 0.23773 0.78734 0.0
C1321 C 0.11987 0.22372 0.77983 0.0
C1322 C 0.12453 0.21079 0.78892 0.0
C1323 C 0.12432 0.21182 0.80553 0.0
C1324 C 0.11952 0.22581 0.8131 0.0
C1325 C 0.04798 0.2765 0.83721 0.0
C1326 C 0.04452 0.26664 0.85009 0.0
C1327 C 0.06286 0.27631 0.8303 0.0
C1328 C 0.07477 0.26644 0.83619 0.0
C1329 C 0.0713 0.2562 0.84875 0.0
C1330 C 0.05627 0.25631 0.85569 0.0
C1331 C 0.09071 0.26701 0.82896 0.0
C1332 C 0.0966 0.25314 0.82188 0.0
C1333 C 0.0991 0.28163 0.82726 0.0
C1334 C 0.09417 0.29645 0.83553 0.0
C1335 C 0.09174 0.29665 0.85205 0.0
C1336 C 0.08692 0.31055 0.85976 0.0
C1337 C 0.08457 0.32437 0.8511 0.0
C1338 C 0.08706 0.32432 0.8347 0.0
C1339 C 0.09187 0.31045 0.82693 0.0
H1340 H 0.08083 0.33512 0.85709 0.0
H1341 H 0.12826 0.19995 0.78308 0.0
H1342 H 0.5115 0.61425 0.49832 0.0
H1343 H 0.509 0.63678 0.48037 0.0
H1344 H 0.556 0.6283 0.46302 0.0
H1345 H 0.55857 0.60576 0.48095 0.0
H1346 H 0.55042 0.66054 0.47036 0.0
H1347 H 0.5255 0.61689 0.44066 0.0
H1348 H 0.50655 0.59438 0.43645 0.0
H1349 H 0.46745 0.62569 0.44309 0.0
H1350 H 0.48619 0.64836 0.44757 0.0
H1351 H 0.54959 0.70876 0.40243 0.0
H1352 H 0.55135 0.68649 0.42058 0.0
H1353 H 0.50185 0.69145 0.43172 0.0
H1354 H 0.4999 0.71352 0.41323 0.0
H1355 H 0.50824 0.66119 0.42817 0.0
H1356 H 0.53212 0.70479 0.45768 0.0
H1357 H 0.55039 0.72769 0.46281 0.0
H1358 H 0.59048 0.69733 0.4579 0.0
H1359 H 0.57244 0.67427 0.45252 0.0
C1360 C 0.52132 0.61725 0.49073 0.0
C1361 C 0.53522 0.60823 0.491 0.0
C1362 C 0.51985 0.63005 0.48043 0.0
C1363 C 0.53228 0.63414 0.4703 0.0
C1364 C 0.54626 0.62532 0.47072 0.0
C1365 C 0.54767 0.6124 0.48088 0.0
C1366 C 0.53071 0.64761 0.45924 0.0
C1367 C 0.54133 0.66062 0.461 0.0
C1368 C 0.51854 0.64789 0.44736 0.0
C1369 C 0.50725 0.63429 0.44462 0.0
C1370 C 0.51286 0.61895 0.44136 0.0
C1371 C 0.50216 0.60617 0.4389 0.0
C1372 C 0.4858 0.60859 0.43955 0.0
C1373 C 0.48012 0.62382 0.44262 0.0
C1374 C 0.49078 0.63664 0.44511 0.0
C1375 C 0.53906 0.70512 0.40872 0.0
C1376 C 0.52462 0.71298 0.40642 0.0
C1377 C 0.54011 0.69242 0.41918 0.0
C1378 C 0.5268 0.68744 0.42775 0.0
C1379 C 0.5123 0.6951 0.42529 0.0
C1380 C 0.5112 0.70774 0.41472 0.0
C1381 C 0.52803 0.67417 0.4392 0.0
C1382 C 0.51733 0.66118 0.43754 0.0
C1383 C 0.54003 0.67399 0.4513 0.0
C1384 C 0.55092 0.68783 0.45454 0.0
C1385 C 0.54483 0.70302 0.45757 0.0
C1386 C 0.55515 0.71603 0.46054 0.0
C1387 C 0.57159 0.71398 0.46064 0.0
C1388 C 0.57775 0.6989 0.4578 0.0
C1389 C 0.56748 0.68586 0.4548 0.0
H1390 H 0.57956 0.72406 0.46295 0.0
H1391 H 0.47754 0.59868 0.43763 0.0
H1392 H 0.85087 0.76882 0.73051 0.0
H1393 H 0.87332 0.76316 0.71367 0.0
H1394 H 0.90584 0.779 0.75139 0.0
H1395 H 0.88331 0.78548 0.76811 0.0
H1396 H 0.91456 0.79103 0.72423 0.0
H1397 H 0.90144 0.7391 0.74136 0.0
H1398 H 0.88431 0.71588 0.74717 0.0
H1399 H 0.87118 0.71093 0.69763 0.0
H1400 H 0.88804 0.73427 0.69153 0.0
H1401 H 0.97612 0.76378 0.67149 0.0
H1402 H 0.95992 0.76587 0.69542 0.0
H1403 H 0.91729 0.75931 0.66639 0.0
H1404 H 0.93319 0.75736 0.64262 0.0
H1405 H 0.91811 0.74026 0.69363 0.0
H1406 H 0.9278 0.79529 0.67826 0.0
H1407 H 0.94508 0.81851 0.67275 0.0
H1408 H 0.96539 0.81678 0.72002 0.0
H1409 H 0.94835 0.7934 0.72573 0.0
C1410 C 0.86278 0.77122 0.73522 0.0
C1411 C 0.86528 0.77767 0.75064 0.0
C1412 C 0.87563 0.76775 0.72565 0.0
C1413 C 0.89128 0.77039 0.73137 0.0
C1414 C 0.89386 0.77675 0.74679 0.0
C1415 C 0.88098 0.78034 0.75636 0.0
C1416 C 0.90481 0.76726 0.72083 0.0
C1417 C 0.91556 0.77979 0.71784 0.0
C1418 C 0.90611 0.75261 0.71243 0.0
C1419 C 0.89596 0.73851 0.71601 0.0
C1420 C 0.89482 0.73314 0.73172 0.0
C1421 C 0.88517 0.71994 0.73506 0.0
C1422 C 0.87665 0.71195 0.72278 0.0
C1423 C 0.87779 0.71713 0.70713 0.0
C1424 C 0.88741 0.73033 0.70372 0.0
C1425 C 0.96329 0.7628 0.67025 0.0
C1426 C 0.95593 0.76047 0.65516 0.0
C1427 C 0.95409 0.76399 0.68389 0.0
C1428 C 0.93744 0.7627 0.68261 0.0
C1429 C 0.93013 0.76025 0.66761 0.0
C1430 C 0.93925 0.75924 0.65402 0.0
C1431 C 0.92735 0.76419 0.69671 0.0
C1432 C 0.91729 0.75133 0.70037 0.0
C1433 C 0.92677 0.77846 0.70579 0.0
C1434 C 0.93698 0.79249 0.70235 0.0
C1435 C 0.93606 0.79977 0.68743 0.0
C1436 C 0.94578 0.81298 0.68428 0.0
C1437 C 0.95637 0.81908 0.69601 0.0
C1438 C 0.95722 0.81201 0.71093 0.0
C1439 C 0.94753 0.7988 0.71413 0.0
H1440 H 0.96388 0.8293 0.69356 0.0
H1441 H 0.86918 0.70173 0.72539 0.0
H1442 H 0.06164 0.89177 0.51768 0.0
H1443 H 0.05557 0.87257 0.53837 0.0
H1444 H 0.01318 0.85735 0.51213 0.0
H1445 H 0.01938 0.87605 0.49117 0.0
H1446 H 0.00828 0.86496 0.54458 0.0
H1447 H 0.04415 0.83449 0.51182 0.0
H1448 H 0.06964 0.82978 0.49876 0.0
H1449 H 0.09413 0.83255 0.54415 0.0
H1450 H 0.06878 0.8375 0.55746 0.0
H1451 H 0.98061 0.79301 0.5733 0.0
H1452 H 0.9915 0.81458 0.55778 0.0
H1453 H 0.03336 0.81681 0.5884 0.0
H1454 H 0.02261 0.79479 0.60397 0.0
H1455 H 0.04123 0.8185 0.5577 0.0
H1456 H 0.00581 0.84568 0.59111 0.0
H1457 H 0.98084 0.85086 0.60494 0.0
H1458 H 0.95631 0.8556 0.55997 0.0
H1459 H 0.98108 0.85021 0.54585 0.0
C1460 C 0.05117 0.88415 0.51616 0.0
C1461 C 0.04095 0.88552 0.50277 0.0
C1462 C 0.04769 0.87326 0.52805 0.0
C1463 C 0.03391 0.86362 0.52676 0.0
C1464 C 0.02381 0.86481 0.51337 0.0
C1465 C 0.02734 0.87556 0.50144 0.0
C1466 C 0.0297 0.85246 0.53948 0.0
C1467 C 0.01541 0.85474 0.54741 0.0
C1468 C 0.0394 0.83957 0.54361 0.0
C1469 C 0.05461 0.83656 0.53561 0.0
C1470 C 0.05499 0.83425 0.519 0.0
C1471 C 0.0694 0.8315 0.51156 0.0
C1472 C 0.0835 0.83092 0.52062 0.0
C1473 C 0.0832 0.83304 0.53714 0.0
C1474 C 0.06882 0.8358 0.54464 0.0
C1475 C 0.99209 0.79809 0.57684 0.0
C1476 C 0.00069 0.79221 0.58995 0.0
C1477 C 0.99829 0.8105 0.56798 0.0
C1478 C 0.01312 0.8175 0.5721 0.0
C1479 C 0.02185 0.81163 0.58509 0.0
C1480 C 0.01566 0.79909 0.59397 0.0
C1481 C 0.01948 0.83066 0.56243 0.0
C1482 C 0.03419 0.82884 0.55511 0.0
C1483 C 0.01026 0.84413 0.55899 0.0
C1484 C 0.99531 0.84744 0.56741 0.0
C1485 C 0.99507 0.84771 0.58416 0.0
C1486 C 0.98095 0.85071 0.59205 0.0
C1487 C 0.96699 0.85354 0.58333 0.0
C1488 C 0.96713 0.85341 0.5667 0.0
C1489 C 0.98122 0.85041 0.55875 0.0
H1490 H 0.95608 0.85585 0.58947 0.0
H1491 H 0.09465 0.82879 0.51483 0.0
H1492 H 0.16549 0.74588 0.71117 0.0
H1493 H 0.14322 0.75053 0.69272 0.0
H1494 H 0.11285 0.72053 0.72072 0.0
H1495 H 0.13519 0.71556 0.73895 0.0
H1496 H 0.10733 0.71434 0.69063 0.0
H1497 H 0.11174 0.76209 0.72264 0.0
H1498 H 0.12531 0.78565 0.73495 0.0
H1499 H 0.13547 0.80358 0.68864 0.0
H1500 H 0.12214 0.78001 0.67604 0.0
H1501 H 0.03247 0.74033 0.66207 0.0
H1502 H 0.05584 0.73572 0.67899 0.0
H1503 H 0.08549 0.76013 0.64562 0.0
H1504 H 0.06214 0.7648 0.62854 0.0
H1505 H 0.09175 0.76926 0.67748 0.0
H1506 H 0.08593 0.72114 0.64586 0.0
H1507 H 0.0714 0.69771 0.63443 0.0
H1508 H 0.06273 0.6807 0.68141 0.0
H1509 H 0.07702 0.70415 0.69314 0.0
C1510 C 0.15404 0.74032 0.71338 0.0
C1511 C 0.15204 0.7304 0.7265 0.0
C1512 C 0.14132 0.743 0.70286 0.0
C1513 C 0.12628 0.73608 0.70546 0.0
C1514 C 0.12434 0.726 0.71846 0.0
C1515 C 0.1371 0.72315 0.72886 0.0
C1516 C 0.11254 0.73931 0.69467 0.0
C1517 C 0.10383 0.72636 0.68792 0.0
C1518 C 0.10812 0.75499 0.69086 0.0
C1519 C 0.11608 0.76921 0.6984 0.0
C1520 C 0.11697 0.771 0.71508 0.0
C1521 C 0.1246 0.78436 0.72211 0.0
C1522 C 0.13129 0.79608 0.71259 0.0
C1523 C 0.13031 0.79448 0.696 0.0
C1524 C 0.12271 0.78113 0.68891 0.0
C1525 C 0.04394 0.74476 0.65832 0.0
C1526 C 0.04545 0.75289 0.64392 0.0
C1527 C 0.05729 0.74206 0.66798 0.0
C1528 C 0.07239 0.74746 0.66347 0.0
C1529 C 0.07392 0.75584 0.64927 0.0
C1530 C 0.06058 0.75845 0.63952 0.0
C1531 C 0.08657 0.7443 0.67359 0.0
C1532 C 0.09533 0.75726 0.68019 0.0
C1533 C 0.09093 0.72865 0.67741 0.0
C1534 C 0.08242 0.71448 0.67038 0.0
C1535 C 0.08082 0.71247 0.65376 0.0
C1536 C 0.07264 0.69917 0.64722 0.0
C1537 C 0.06611 0.68775 0.65718 0.0
C1538 C 0.06778 0.68957 0.67371 0.0
C1539 C 0.07593 0.70285 0.68031 0.0
H1540 H 0.05979 0.67746 0.6521 0.0
H1541 H 0.13719 0.80642 0.71805 0.0
H1542 H 0.00304 0.61016 0.50535 0.0
H1543 H 0.00823 0.63002 0.52672 0.0
H1544 H 0.96376 0.61703 0.54802 0.0
H1545 H 0.95853 0.59719 0.52684 0.0
H1546 H 0.96829 0.65004 0.53789 0.0
H1547 H 0.9941 0.60897 0.56802 0.0
H1548 H 0.01392 0.58818 0.57223 0.0
H1549 H 0.05172 0.62254 0.56651 0.0
H1550 H 0.03211 0.64351 0.56202 0.0
H1551 H 0.96306 0.70222 0.60098 0.0
H1552 H 0.9648 0.67673 0.58687 0.0
H1553 H 0.01426 0.68662 0.57763 0.0
H1554 H 0.01273 0.71193 0.59261 0.0
H1555 H 0.00935 0.65523 0.5811 0.0
H1556 H 0.9858 0.69576 0.55018 0.0
H1557 H 0.96751 0.71749 0.54411 0.0
H1558 H 0.9275 0.68542 0.54826 0.0
H1559 H 0.94556 0.66354 0.5546 0.0
C1560 C 0.99455 0.61135 0.51479 0.0
C1561 C 0.98034 0.60223 0.51442 0.0
C1562 C 0.99758 0.62258 0.52701 0.0
C1563 C 0.98638 0.6249 0.53889 0.0
C1564 C 0.97258 0.61528 0.53897 0.0
C1565 C 0.96963 0.60395 0.5269 0.0
C1566 C 0.98782 0.63879 0.54983 0.0
C1567 C 0.97711 0.65109 0.5475 0.0
C1568 C -0.00015 0.64038 0.56179 0.0
C1569 C 0.01163 0.62778 0.5645 0.0
C1570 C 0.00664 0.61207 0.56749 0.0
C1571 C 0.01783 0.60025 0.56997 0.0
C1572 C 0.03407 0.60402 0.56959 0.0
C1573 C 0.03914 0.61963 0.56678 0.0
C1574 C 0.02799 0.63149 0.56428 0.0
C1575 C 0.97438 0.69879 0.59622 0.0
C1576 C 0.98771 0.70905 0.59762 0.0
C1577 C 0.97537 0.68427 0.58814 0.0
C1578 C 0.98953 0.68002 0.58078 0.0
C1579 C 0.00319 0.68974 0.58311 0.0
C1580 C 0.00231 0.70417 0.59161 0.0
C1581 C 0.98944 0.66629 0.56948 0.0
C1582 C 0.00049 0.65415 0.57155 0.0
C1583 C 0.97795 0.66495 0.55693 0.0
C1584 C 0.96703 0.67805 0.553 0.0
C1585 C 0.9731 0.69337 0.5499 0.0
C1586 C 0.96277 0.70571 0.5464 0.0
C1587 C 0.94635 0.70285 0.54583 0.0
C1588 C 0.94023 0.68763 0.54872 0.0
C1589 C 0.9505 0.67525 0.55225 0.0
H1590 H 0.93838 0.71242 0.54312 0.0
H1591 H 0.04272 0.59486 0.57152 0.0
H1592 H 0.75588 0.86667 0.24327 0.0
H1593 H 0.77158 0.89138 0.24438 0.0
H1594 H 0.79483 0.87772 0.20113 0.0
H1595 H 0.77893 0.85298 0.19976 0.0
H1596 H 0.81596 0.8893 0.22398 0.0
H1597 H 0.76757 0.90593 0.19965 0.0
H1598 H 0.73854 0.90844 0.19644 0.0
H1599 H 0.73693 0.93352 0.24133 0.0
H1600 H 0.76593 0.93096 0.24494 0.0
H1601 H 0.85341 0.96695 0.22494 0.0
H1602 H 0.83766 0.94371 0.21526 0.0
H1603 H 0.80739 0.94789 0.25585 0.0
H1604 H 0.8228 0.97101 0.26545 0.0
H1605 H 0.79017 0.94164 0.22908 0.0
H1606 H 0.83754 0.92139 0.25505 0.0
H1607 H 0.86649 0.91852 0.25886 0.0
H1608 H 0.86982 0.90014 0.21105 0.0
H1609 H 0.8409 0.9031 0.2069 0.0
C1610 C 0.76417 0.86898 0.23386 0.0
C1611 C 0.76606 0.85786 0.22137 0.0
C1612 C 0.77317 0.88311 0.23454 0.0
C1613 C 0.78422 0.88648 0.22272 0.0
C1614 C 0.78633 0.87535 0.21035 0.0
C1615 C 0.77729 0.8612 0.20963 0.0
C1616 C 0.79372 0.90155 0.22359 0.0
C1617 C 0.81035 0.90078 0.22476 0.0
C1618 C 0.78638 0.9165 0.22476 0.0
C1619 C 0.76893 0.91816 0.22261 0.0
C1620 C 0.76102 0.91189 0.2089 0.0
C1621 C 0.74456 0.91333 0.207 0.0
C1622 C 0.73589 0.92112 0.21869 0.0
C1623 C 0.74366 0.92749 0.23229 0.0
C1624 C 0.76011 0.92606 0.23426 0.0
C1625 C 0.84331 0.96298 0.23171 0.0
C1626 C 0.83943 0.97079 0.24602 0.0
C1627 C 0.83437 0.94968 0.22619 0.0
C1628 C 0.82143 0.94399 0.23491 0.0
C1629 C 0.8173 0.95206 0.24892 0.0
C1630 C 0.8262 0.96527 0.25443 0.0
C1631 C 0.81236 0.92934 0.22996 0.0
C1632 C 0.7958 0.93018 0.228 0.0
C1633 C 0.81976 0.91447 0.2281 0.0
C1634 C 0.83711 0.91266 0.2306 0.0
C1635 C 0.84448 0.91686 0.24531 0.0
C1636 C 0.86087 0.9152 0.24754 0.0
C1637 C 0.87 0.9092 0.23519 0.0
C1638 C 0.86274 0.90482 0.22059 0.0
C1639 C 0.84635 0.90648 0.2183 0.0
H1640 H 0.88269 0.90792 0.23693 0.0
H1641 H 0.72316 0.92222 0.21719 0.0
H1642 H 0.76367 0.15518 0.24699 0.0
H1643 H 0.78362 0.13511 0.24161 0.0
H1644 H 0.79968 0.13815 0.29075 0.0
H1645 H 0.78009 0.1586 0.29601 0.0
H1646 H 0.82424 0.13545 0.27278 0.0
H1647 H 0.77369 0.10788 0.2757 0.0
H1648 H 0.74561 0.10195 0.26841 0.0
H1649 H 0.75865 0.09138 0.22029 0.0
H1650 H 0.7868 0.09745 0.22725 0.0
H1651 H 0.8514 0.05792 0.28795 0.0
H1652 H 0.83793 0.08327 0.28602 0.0
H1653 H 0.83631 0.07841 0.23481 0.0
H1654 H 0.85015 0.05299 0.23665 0.0
H1655 H 0.80627 0.08332 0.24953 0.0
H1656 H 0.85827 0.10703 0.24934 0.0
H1657 H 0.886 0.11165 0.25864 0.0
H1658 H 0.86977 0.12803 0.30406 0.0
H1659 H 0.84194 0.12328 0.29513 0.0
C1660 C 0.77149 0.15156 0.25661 0.0
C1661 C 0.77028 0.15834 0.27194 0.0
C1662 C 0.78288 0.14009 0.25354 0.0
C1663 C 0.79301 0.1349 0.26583 0.0
C1664 C 0.79203 0.14196 0.28106 0.0
C1665 C 0.78082 0.15361 0.28407 0.0
C1666 C 0.80426 0.12178 0.26304 0.0
C1667 C 0.82028 0.12403 0.26776 0.0
C1668 C 0.79922 0.10697 0.25615 0.0
C1669 C 0.78231 0.10331 0.25194 0.0
C1670 C 0.77055 0.10441 0.26353 0.0
C1671 C 0.75463 0.10101 0.25947 0.0
C1672 C 0.75034 0.09634 0.24389 0.0
C1673 C 0.76198 0.09503 0.23234 0.0
C1674 C 0.77792 0.09845 0.23634 0.0
C1675 C 0.84845 0.06238 0.27625 0.0
C1676 C 0.85176 0.05348 0.26244 0.0
C1677 C 0.84082 0.0769 0.27517 0.0
C1678 C 0.83617 0.08271 0.26028 0.0
C1679 C 0.83988 0.07412 0.2464 0.0
C1680 C 0.84782 0.05967 0.24747 0.0
C1681 C 0.82611 0.09693 0.25954 0.0
C1682 C 0.81028 0.09486 0.25422 0.0
C1683 C 0.83126 0.11178 0.26616 0.0
C1684 C 0.848 0.1147 0.27158 0.0
C1685 C 0.86061 0.1115 0.26136 0.0
C1686 C 0.87635 0.11416 0.26655 0.0
C1687 C 0.87965 0.12011 0.28194 0.0
C1688 C 0.8672 0.12342 0.29215 0.0
C1689 C 0.85144 0.12077 0.28701 0.0
H1690 H 0.89184 0.12216 0.28594 0.0
H1691 H 0.73801 0.09371 0.24076 0.0
H1692 H 0.36152 0.02544 0.9563 0.0
H1693 H 0.34002 0.00626 0.96203 0.0
H1694 H 0.37458 0.97372 0.9804 0.0
H1695 H 0.39598 0.99275 0.97479 0.0
H1696 H 0.3524 0.96009 0.95789 0.0
H1697 H 0.35383 0.99378 0.00562 0.0
H1698 H 0.35209 0.01944 0.02008 0.0
H1699 H 0.30458 0.02508 0.00163 0.0
H1700 H 0.30614 -0.00047 0.98687 0.0
H1701 H 0.31735 0.90145 0.00187 0.0
H1702 H 0.33238 0.92507 0.99446 0.0
H1703 H 0.28875 0.94908 0.98363 0.0
H1704 H 0.27342 0.92532 0.99132 0.0
H1705 H 0.31153 0.96906 0.99866 0.0
H1706 H 0.30848 0.9342 0.95359 0.0
H1707 H 0.30977 0.90869 0.9388 0.0
H1708 H 0.35945 0.90571 0.95087 0.0
H1709 H 0.35842 0.93109 0.96595 0.0
C1710 C 0.36447 0.01418 0.96157 0.0
C1711 C 0.38038 0.01057 0.96517 0.0
C1712 C 0.35221 0.00331 0.96489 0.0
C1713 C 0.35576 0.98863 0.97167 0.0
C1714 C 0.37163 0.985 0.97518 0.0
C1715 C 0.38382 0.99591 0.97206 0.0
C1716 C 0.34309 0.97674 0.97488 0.0
C1717 C 0.34348 0.96202 0.96683 0.0
C1718 C 0.33111 0.97954 0.98609 0.0
C1719 C 0.33018 0.99486 0.99498 0.0
C1720 C 0.34308 0.00057 0.00452 0.0
C1721 C 0.34211 0.01507 0.0128 0.0
C1722 C 0.32826 0.02391 0.01173 0.0
C1723 C 0.31532 0.01824 0.00242 0.0
C1724 C 0.31623 0.00375 0.9941 0.0
C1725 C 0.31088 0.91177 0.99803 0.0
C1726 C 0.29418 0.91144 0.99698 0.0
C1727 C 0.31951 0.92526 0.99377 0.0
C1728 C 0.31169 0.93868 0.98815 0.0
C1729 C 0.295 0.93877 0.98782 0.0
C1730 C 0.28627 0.92521 0.99221 0.0
C1731 C 0.32123 0.9522 0.98209 0.0
C1732 C 0.32023 0.96722 0.98951 0.0
C1733 C 0.3326 0.94976 0.97015 0.0
C1734 C 0.33334 0.93453 0.96098 0.0
C1735 C 0.31966 0.92806 0.95318 0.0
C1736 C 0.32035 0.91362 0.94474 0.0
C1737 C 0.33468 0.90557 0.94392 0.0
C1738 C 0.34836 0.91196 0.95152 0.0
C1739 C 0.34773 0.92639 0.96 0.0
H1740 H 0.33519 0.8944 0.93737 0.0
H1741 H 0.32753 0.03514 0.01816 0.0
H1742 H 0.23359 0.35254 0.2994 0.0
H1743 H 0.21769 0.37612 0.29559 0.0
H1744 H 0.24787 0.39084 0.25749 0.0
H1745 H 0.26378 0.36692 0.26099 0.0
H1746 H 0.23868 0.41619 0.27978 0.0
H1747 H 0.21548 0.37535 0.24594 0.0
H1748 H 0.20541 0.34829 0.23909 0.0
H1749 H 0.16979 0.35234 0.2747 0.0
H1750 H 0.17982 0.37933 0.28195 0.0
H1751 H 0.17545 0.47095 0.25905 0.0
H1752 H 0.19744 0.4522 0.25815 0.0
H1753 H 0.17364 0.42262 0.29208 0.0
H1754 H 0.1517 0.44098 0.29284 0.0
H1755 H 0.18167 0.4059 0.26619 0.0
H1756 H 0.20689 0.4452 0.30216 0.0
H1757 H 0.21722 0.472 0.30971 0.0
H1758 H 0.24888 0.47094 0.27031 0.0
H1759 H 0.23858 0.44419 0.2624 0.0
C1760 C 0.23684 0.36072 0.29015 0.0
C1761 C 0.24978 0.35773 0.28031 0.0
C1762 C 0.22781 0.37424 0.28807 0.0
C1763 C 0.23153 0.38507 0.27615 0.0
C1764 C 0.24485 0.38257 0.26674 0.0
C1765 C 0.2539 0.36894 0.26877 0.0
C1766 C 0.22082 0.39844 0.27318 0.0
C1767 C 0.22628 0.41405 0.27648 0.0
C1768 C 0.20466 0.39553 0.26897 0.0
C1769 C 0.19847 0.37934 0.26455 0.0
C1770 C 0.20557 0.37043 0.25239 0.0
C1771 C 0.19986 0.35511 0.24843 0.0
C1772 C 0.18698 0.34859 0.25647 0.0
C1773 C 0.17977 0.3574 0.26848 0.0
C1774 C 0.18545 0.37272 0.27251 0.0
C1775 C 0.17506 0.46056 0.26648 0.0
C1776 C 0.16178 0.45734 0.27588 0.0
C1777 C 0.18762 0.44989 0.26596 0.0
C1778 C 0.1871 0.43598 0.27498 0.0
C1779 C 0.17419 0.4332 0.2849 0.0
C1780 C 0.16167 0.44373 0.28534 0.0
C1781 C 0.19931 0.42365 0.2735 0.0
C1782 C 0.19412 0.40817 0.26922 0.0
C1783 C 0.21566 0.42673 0.27682 0.0
C1784 C 0.22182 0.44279 0.28157 0.0
C1785 C 0.21595 0.45074 0.29502 0.0
C1786 C 0.22182 0.46591 0.29938 0.0
C1787 C 0.23366 0.47319 0.29046 0.0
C1788 C 0.23969 0.4653 0.27719 0.0
C1789 C 0.23384 0.45013 0.27276 0.0
H1790 H 0.2382 0.48493 0.29386 0.0
H1791 H 0.18257 0.33673 0.25339 0.0
H1792 H 0.10206 0.02029 0.48432 0.0
H1793 H 0.12405 0.03836 0.49261 0.0
H1794 H 0.15574 0.01223 0.46261 0.0
H1795 H 0.13399 0.99394 0.45463 0.0
H1796 H 0.16878 0.01838 0.49195 0.0
H1797 H 0.14072 0.04743 0.45106 0.0
H1798 H 0.1173 0.06002 0.43891 0.0
H1799 H 0.11355 0.09067 0.48004 0.0
H1800 H 0.13684 0.0781 0.49253 0.0
H1801 H 0.23333 0.06794 0.47514 0.0
H1802 H 0.20903 0.05176 0.47451 0.0
H1803 H 0.18749 0.08462 0.5072 0.0
H1804 H 0.21192 0.10109 0.50786 0.0
H1805 H 0.16775 0.07626 0.48153 0.0
H1806 H 0.19826 0.04964 0.52073 0.0
H1807 H 0.22201 0.03732 0.53249 0.0
H1808 H 0.2213 0.0022 0.49472 0.0
H1809 H 0.19768 0.01445 0.48259 0.0
C1810 C 0.11374 0.01837 0.47957 0.0
C1811 C 0.1163 0.00574 0.46877 0.0
C1812 C 0.12625 0.02875 0.48423 0.0
C1813 C 0.14148 0.02666 0.47814 0.0
C1814 C 0.14406 0.01403 0.46744 0.0
C1815 C 0.13159 0.0037 0.46276 0.0
C1816 C 0.15487 0.03756 0.48284 0.0
C1817 C 0.16859 0.03103 0.48961 0.0
C1818 C 0.15437 0.05414 0.48032 0.0
C1819 C 0.14039 0.06169 0.47281 0.0
C1820 C 0.13481 0.05676 0.45757 0.0
C1821 C 0.12158 0.06391 0.45061 0.0
C1822 C 0.11391 0.0761 0.45872 0.0
C1823 C 0.11948 0.0812 0.47379 0.0
C1824 C 0.1327 0.07407 0.48081 0.0
C1825 C 0.22349 0.07175 0.48227 0.0
C1826 C 0.22458 0.08581 0.49157 0.0
C1827 C 0.20962 0.06243 0.48195 0.0
C1828 C 0.19655 0.0669 0.49096 0.0
C1829 C 0.1975 0.08095 0.50022 0.0
C1830 C 0.21146 0.09031 0.50061 0.0
C1831 C 0.18183 0.05697 0.49015 0.0
C1832 C 0.16784 0.06368 0.48416 0.0
C1833 C 0.18206 0.04053 0.4934 0.0
C1834 C 0.19623 0.03303 0.5007 0.0
C1835 C 0.20322 0.03936 0.51487 0.0
C1836 C 0.21666 0.03238 0.52161 0.0
C1837 C 0.22317 0.019 0.51435 0.0
C1838 C 0.21624 0.01256 0.50034 0.0
C1839 C 0.20281 0.01951 0.49354 0.0
H1840 H 0.23358 0.01362 0.51958 0.0
H1841 H 0.10367 0.08163 0.45331 0.0
H1842 H 0.70853 0.1654 0.73854 0.0
H1843 H 0.6899 0.14338 0.74296 0.0
H1844 H 0.72228 0.11076 0.72123 0.0
H1845 H 0.74058 0.13284 0.71597 0.0
H1846 H 0.6931 0.10365 0.71169 0.0
H1847 H 0.71891 0.11448 0.7623 0.0
H1848 H 0.72799 0.13101 0.78541 0.0
H1849 H 0.6796 0.14173 0.79588 0.0
H1850 H 0.67024 0.12542 0.77269 0.0
H1851 H 0.66321 0.03152 0.74297 0.0
H1852 H 0.67995 0.05476 0.73749 0.0
H1853 H 0.64326 0.08565 0.75409 0.0
H1854 H 0.62636 0.06242 0.75962 0.0
H1855 H 0.67359 0.09408 0.76609 0.0
H1856 H 0.64816 0.08173 0.71546 0.0
H1857 H 0.6399 0.06433 0.6927 0.0
H1858 H 0.6888 0.05545 0.68273 0.0
H1859 H 0.69736 0.07263 0.70558 0.0
C1860 C 0.7116 0.15359 0.73447 0.0
C1861 C 0.72612 0.15091 0.72696 0.0
C1862 C 0.70101 0.14097 0.73718 0.0
C1863 C 0.70481 0.12536 0.73268 0.0
C1864 C 0.71912 0.12268 0.7249 0.0
C1865 C 0.72966 0.13531 0.72205 0.0
C1866 C 0.69393 0.11179 0.73617 0.0
C1867 C 0.68899 0.10147 0.72362 0.0
C1868 C 0.6883 0.10909 0.75169 0.0
C1869 C 0.69389 0.11886 0.76567 0.0
C1870 C 0.71021 0.12046 0.76946 0.0
C1871 C 0.71541 0.12977 0.78259 0.0
C1872 C 0.70438 0.13746 0.79208 0.0
C1873 C 0.68813 0.1358 0.7885 0.0
C1874 C 0.68287 0.12651 0.77538 0.0
C1875 C 0.65868 0.04324 0.74549 0.0
C1876 C 0.64342 0.04512 0.75169 0.0
C1877 C 0.66825 0.05651 0.74229 0.0
C1878 C 0.66277 0.07191 0.74524 0.0
C1879 C 0.64767 0.07385 0.75169 0.0
C1880 C 0.63803 0.06057 0.7548 0.0
C1881 C 0.67288 0.08596 0.74163 0.0
C1882 C 0.67767 0.09634 0.75416 0.0
C1883 C 0.67851 0.08862 0.72613 0.0
C1884 C 0.67339 0.07836 0.71232 0.0
C1885 C 0.65715 0.07597 0.70849 0.0
C1886 C 0.65242 0.06616 0.69556 0.0
C1887 C 0.66382 0.05876 0.6863 0.0
C1888 C 0.67998 0.06118 0.68993 0.0
C1889 C 0.68478 0.07096 0.70286 0.0
H1890 H 0.66013 0.05117 0.67629 0.0
H1891 H 0.70843 0.14466 0.80224 0.0
H1892 H 0.37725 0.00089 0.57555 0.0
H1893 H 0.3593 0.02346 0.57456 0.0
H1894 H 0.38037 0.03844 0.53077 0.0
H1895 H 0.39867 0.01639 0.532 0.0
H1896 H 0.37596 0.06344 0.55016 0.0
H1897 H 0.34497 0.01704 0.53133 0.0
H1898 H 0.33287 0.99026 0.53382 0.0
H1899 H 0.30727 0.00611 0.57462 0.0
H1900 H 0.31938 0.03296 0.57248 0.0
H1901 H 0.32009 0.09738 0.49939 0.0
H1902 H 0.33968 0.08276 0.51474 0.0
H1903 H 0.30937 0.08399 0.5555 0.0
H1904 H 0.28967 0.09893 0.54014 0.0
H1905 H 0.31771 0.05343 0.5459 0.0
H1906 H 0.34427 0.10198 0.5595 0.0
H1907 H 0.35582 0.12872 0.55534 0.0
H1908 H 0.38944 0.10905 0.52309 0.0
H1909 H 0.37794 0.08222 0.52685 0.0
C1910 C 0.37813 0.00908 0.56579 0.0
C1911 C 0.38929 0.00675 0.55377 0.0
C1912 C 0.36782 0.02192 0.56521 0.0
C1913 C 0.36845 0.03258 0.55255 0.0
C1914 C 0.3797 0.03038 0.54067 0.0
C1915 C 0.39 0.01762 0.54127 0.0
C1916 C 0.35712 0.04578 0.55116 0.0
C1917 C 0.36321 0.06128 0.54924 0.0
C1918 C 0.34046 0.04305 0.55057 0.0
C1919 C 0.33324 0.02692 0.55188 0.0
C1920 C 0.33687 0.01477 0.54092 0.0
C1921 C 0.32999 -0.00041 0.54224 0.0
C1922 C 0.31935 0.99647 0.55441 0.0
C1923 C 0.31554 0.00854 0.56524 0.0
C1924 C 0.3224 0.02373 0.56397 0.0
C1925 C 0.31777 0.09491 0.51175 0.0
C1926 C 0.30335 0.0992 0.51857 0.0
C1927 C 0.32901 0.08663 0.52054 0.0
C1928 C 0.32599 0.08235 0.53627 0.0
C1929 C 0.31193 0.08728 0.5434 0.0
C1930 C 0.30075 0.09585 0.53465 0.0
C1931 C 0.33661 0.07095 0.54419 0.0
C1932 C 0.3304 0.05574 0.54733 0.0
C1933 C 0.35316 0.07393 0.54575 0.0
C1934 C 0.36019 0.09006 0.54343 0.0
C1935 C 0.35406 0.10336 0.55143 0.0
C1936 C 0.36061 0.11854 0.54916 0.0
C1937 C 0.37335 0.12058 0.53895 0.0
C1938 C 0.37958 0.10744 0.53101 0.0
C1939 C 0.37306 0.09224 0.53323 0.0
H1940 H 0.37841 0.13234 0.5372 0.0
H1941 H 0.31403 0.98471 0.55541 0.0
H1942 H 0.61874 0.50006 0.51643 0.0
H1943 H 0.64041 0.4814 0.51336 0.0
H1944 H 0.6199 0.45143 0.54901 0.0
H1945 H 0.59825 0.47015 0.55224 0.0
H1946 H 0.65104 0.45408 0.5537 0.0
H1947 H 0.61654 0.44192 0.5088 0.0
H1948 H 0.60058 0.4477 0.4847 0.0
H1949 H 0.64253 0.46452 0.46154 0.0
H1950 H 0.65871 0.45904 0.48559 0.0
H1951 H 0.69692 0.38578 0.53671 0.0
H1952 H 0.67488 0.40402 0.53997 0.0
H1953 H 0.69593 0.43579 0.50622 0.0
H1954 H 0.71792 0.41758 0.50278 0.0
H1955 H 0.66427 0.43181 0.50063 0.0
H1956 H 0.69864 0.44408 0.54585 0.0
H1957 H 0.71444 0.43807 0.56999 0.0
H1958 H 0.6724 0.4206 0.59255 0.0
H1959 H 0.65638 0.42631 0.56844 0.0
C1960 C 0.61878 0.48944 0.52353 0.0
C1961 C 0.60673 0.48656 0.53453 0.0
C1962 C 0.63118 0.47877 0.52177 0.0
C1963 C 0.63169 0.46487 0.53079 0.0
C1964 C 0.61977 0.46206 0.54192 0.0
C1965 C 0.60742 0.47279 0.54377 0.0
C1966 C 0.64469 0.45332 0.52871 0.0
C1967 C 0.65378 0.44904 0.54212 0.0
C1968 C 0.6485 0.44696 0.51356 0.0
C1969 C 0.63881 0.45021 0.49905 0.0
C1970 C 0.62234 0.44696 0.49861 0.0
C1971 C 0.61326 0.45016 0.48495 0.0
C1972 C 0.62053 0.45651 0.47161 0.0
C1973 C 0.63691 0.45962 0.47189 0.0
C1974 C 0.64605 0.45646 0.48553 0.0
C1975 C 0.69687 0.39664 0.52996 0.0
C1976 C 0.70922 0.40023 0.51951 0.0
C1977 C 0.68429 0.40709 0.53189 0.0
C1978 C 0.68383 0.42136 0.52346 0.0
C1979 C 0.69603 0.42486 0.51287 0.0
C1980 C 0.70863 0.41445 0.51095 0.0
C1981 C 0.67061 0.43261 0.52561 0.0
C1982 C 0.6615 0.43684 0.51221 0.0
C1983 C 0.66674 0.43887 0.54077 0.0
C1984 C 0.67634 0.43547 0.55529 0.0
C1985 C 0.69279 0.43884 0.55591 0.0
C1986 C 0.70178 0.43551 0.5696 0.0
C1987 C 0.69444 0.42891 0.58278 0.0
C1988 C 0.67808 0.42568 0.58232 0.0
C1989 C 0.66903 0.42897 0.56865 0.0
H1990 H 0.70142 0.42635 0.59336 0.0
H1991 H 0.61347 0.45898 0.46105 0.0
H1992 H 0.73413 0.28157 0.3471 0.0
H1993 H 0.73791 0.29832 0.37109 0.0
H1994 H 0.70046 0.27219 0.39398 0.0
H1995 H 0.69675 0.25517 0.37 0.0
H1996 H 0.70131 0.30916 0.3967 0.0
H1997 H 0.73184 0.26189 0.40594 0.0
H1998 H 0.75089 0.24132 0.39837 0.0
H1999 H 0.78722 0.27728 0.39283 0.0
H2000 H 0.7683 0.29809 0.40013 0.0
H2001 H 0.72472 0.34315 0.47367 0.0
H2002 H 0.71452 0.32621 0.45143 0.0
H2003 H 0.75919 0.33231 0.42767 0.0
H2004 H 0.76955 0.34839 0.45008 0.0
H2005 H 0.75196 0.30299 0.4271 0.0
H2006 H 0.7226 0.35037 0.41572 0.0
H2007 H 0.7042 0.3721 0.4215 0.0
H2008 H 0.66666 0.33797 0.42936 0.0
H2009 H 0.6849 0.31603 0.42381 0.0
C2010 C 0.72659 0.27951 0.35718 0.0
C2011 C 0.71518 0.26708 0.35675 0.0
C2012 C 0.72876 0.28906 0.37084 0.0
C2013 C 0.71944 0.28647 0.38422 0.0
C2014 C 0.7077 0.27438 0.3837 0.0
C2015 C 0.70569 0.26462 0.3701 0.0
C2016 C 0.72278 0.29584 0.399 0.0
C2017 C 0.71224 0.3077 0.40358 0.0
C2018 C 0.73717 0.29406 0.40767 0.0
C2019 C 0.74861 0.28155 0.40344 0.0
C2020 C 0.74385 0.26542 0.40297 0.0
C2021 C 0.75463 0.25372 0.39876 0.0
C2022 C 0.77025 0.25799 0.39509 0.0
C2023 C 0.77512 0.27398 0.39566 0.0
C2024 C 0.76438 0.28574 0.39985 0.0
C2025 C 0.73222 0.34098 0.46358 0.0
C2026 C 0.74794 0.34694 0.4636 0.0
C2027 C 0.7264 0.33135 0.45086 0.0
C2028 C 0.73608 0.32795 0.43782 0.0
C2029 C 0.75153 0.33456 0.43763 0.0
C2030 C 0.75743 0.34381 0.45042 0.0
C2031 C 0.73074 0.31684 0.4247 0.0
C2032 C 0.74092 0.30449 0.42043 0.0
C2033 C 0.71612 0.3184 0.41621 0.0
C2034 C 0.70516 0.33157 0.41954 0.0
C2035 C 0.71045 0.3475 0.41881 0.0
C2036 C 0.70005 0.35985 0.42202 0.0
C2037 C 0.68428 0.35641 0.42585 0.0
C2038 C 0.67888 0.34061 0.42643 0.0
C2039 C 0.68924 0.32822 0.42324 0.0
H2040 H 0.67625 0.36599 0.42832 0.0
H2041 H 0.77857 0.24891 0.39183 0.0
H2042 H 0.51293 0.06407 0.88669 0.0
H2043 H 0.53296 0.05739 0.86713 0.0
H2044 H 0.50495 0.01612 0.85194 0.0
H2045 H 0.48471 0.02286 0.87122 0.0
H2046 H 0.5363 0.00934 0.85866 0.0
H2047 H 0.50675 0.04823 0.82896 0.0
H2048 H 0.49521 0.07459 0.8247 0.0
H2049 H 0.54167 0.09652 0.82912 0.0
H2050 H 0.55346 0.07031 0.83363 0.0
H2051 H 0.56905 0.98302 0.78814 0.0
H2052 H 0.55166 0.99424 0.80794 0.0
H2053 H 0.58398 0.03435 0.81504 0.0
H2054 H 0.60149 0.02328 0.7948 0.0
H2055 H 0.55324 0.04358 0.81434 0.0
H2056 H 0.5833 0.00526 0.84215 0.0
H2057 H 0.59548 0.9793 0.84688 0.0
H2058 H 0.5492 0.95684 0.84718 0.0
H2059 H 0.53674 0.98264 0.84221 0.0
C2060 C 0.51087 0.05374 0.87898 0.0
C2061 C 0.49722 0.04398 0.88054 0.0
C2062 C 0.52237 0.04991 0.86786 0.0
C2063 C 0.52041 0.03628 0.85809 0.0
C2064 C 0.5067 0.02666 0.85944 0.0
C2065 C 0.49519 0.0305 0.8705 0.0
C2066 C 0.5329 0.03159 0.8469 0.0
C2067 C 0.5399 0.01675 0.84887 0.0
C2068 C 0.53805 0.04159 0.83457 0.0
C2069 C 0.53096 0.05733 0.83181 0.0
C2070 C 0.51449 0.05869 0.82917 0.0
C2071 C 0.5079 0.0736 0.82668 0.0
C2072 C 0.51769 0.08723 0.82669 0.0
C2073 C 0.53409 0.08596 0.82914 0.0
C2074 C 0.54073 0.07108 0.83165 0.0
C2075 C 0.57253 0.99423 0.79387 0.0
C2076 C 0.58676 0.00218 0.79 0.0
C2077 C 0.56257 0.00061 0.80524 0.0
C2078 C 0.56669 0.01496 0.8132 0.0
C2079 C 0.58066 0.02319 0.8091 0.0
C2080 C 0.59064 0.01684 0.79758 0.0
C2081 C 0.55629 0.0211 0.82582 0.0
C2082 C 0.54975 0.03623 0.82421 0.0
C2083 C 0.55166 0.01144 0.83862 0.0
C2084 C 0.55909 0.99589 0.8417 0.0
C2085 C 0.57572 0.99477 0.84311 0.0
C2086 C 0.58267 0.98009 0.84586 0.0
C2087 C 0.57312 0.96643 0.84731 0.0
C2088 C 0.55658 0.96743 0.84605 0.0
C2089 C 0.54957 0.98209 0.84329 0.0
H2090 H 0.57853 0.95506 0.84943 0.0
H2091 H 0.51257 0.09876 0.82475 0.0
H2092 H 0.25573 0.25457 0.37066 0.0
H2093 H 0.2502 0.23818 0.39394 0.0
H2094 H 0.27768 0.20034 0.37379 0.0
H2095 H 0.28326 0.21661 0.35065 0.0
H2096 H 0.24834 0.19015 0.38635 0.0
H2097 H 0.29447 0.22406 0.40075 0.0
H2098 H 0.30799 0.25012 0.40516 0.0
H2099 H 0.27351 0.26281 0.43988 0.0
H2100 H 0.25966 0.23688 0.4355 0.0
H2101 H 0.27819 0.13863 0.4415 0.0
H2102 H 0.27528 0.15957 0.42216 0.0
H2103 H 0.25066 0.18818 0.45648 0.0
H2104 H 0.25366 0.16714 0.4762 0.0
H2105 H 0.27225 0.20578 0.43902 0.0
H2106 H 0.22903 0.16998 0.42835 0.0
H2107 H 0.21538 0.14398 0.42416 0.0
H2108 H 0.24305 0.13512 0.38269 0.0
H2109 H 0.25705 0.16097 0.38676 0.0
C2110 C 0.26043 0.24269 0.37119 0.0
C2111 C 0.26999 0.23684 0.35897 0.0
C2112 C 0.25732 0.2334 0.38446 0.0
C2113 C 0.2636 0.21811 0.38555 0.0
C2114 C 0.27273 0.21211 0.37313 0.0
C2115 C 0.27599 0.22143 0.36 0.0
C2116 C 0.26127 0.20838 0.39981 0.0
C2117 C 0.25353 0.19354 0.39788 0.0
C2118 C 0.26754 0.21313 0.41496 0.0
C2119 C 0.27592 0.22864 0.41765 0.0
C2120 C 0.2897 0.23247 0.40922 0.0
C2121 C 0.29744 0.2472 0.41173 0.0
C2122 C 0.29158 0.25814 0.42275 0.0
C2123 C 0.27801 0.25434 0.43132 0.0
C2124 C 0.27022 0.23963 0.42883 0.0
C2125 C 0.27222 0.14938 0.44504 0.0
C2126 C 0.26601 0.15115 0.46036 0.0
C2127 C 0.27051 0.16132 0.43392 0.0
C2128 C 0.26244 0.17524 0.43779 0.0
C2129 C 0.2568 0.17743 0.45326 0.0
C2130 C 0.25854 0.16542 0.46449 0.0
C2131 C 0.2599 0.18725 0.42537 0.0
C2132 C 0.26667 0.20252 0.42763 0.0
C2133 C 0.25261 0.18295 0.41052 0.0
C2134 C 0.24415 0.16741 0.40791 0.0
C2135 C 0.23228 0.16245 0.41839 0.0
C2136 C 0.22447 0.14774 0.41603 0.0
C2137 C 0.22836 0.13789 0.40318 0.0
C2138 C 0.24005 0.14276 0.39264 0.0
C2139 C 0.24791 0.15746 0.39496 0.0
H2140 H 0.2223 0.1265 0.40137 0.0
H2141 H 0.29759 0.26954 0.42468 0.0
H2142 H 0.52413 0.47598 0.86645 0.0
H2143 H 0.50638 0.4818 0.84408 0.0
H2144 H 0.47183 0.44792 0.86115 0.0
H2145 H 0.48997 0.44115 0.88287 0.0
H2146 H 0.47148 0.44643 0.83041 0.0
H2147 H 0.47047 0.48928 0.86937 0.0
H2148 H 0.48209 0.51077 0.88658 0.0
H2149 H 0.49922 0.53477 0.84543 0.0
H2150 H 0.48787 0.51329 0.82798 0.0
H2151 H 0.39728 0.47857 0.80922 0.0
H2152 H 0.42151 0.47067 0.82319 0.0
H2153 H 0.44982 0.49678 0.78993 0.0
H2154 H 0.42547 0.50453 0.77555 0.0
H2155 H 0.45634 0.50281 0.82466 0.0
H2156 H 0.45232 0.46049 0.7858 0.0
H2157 H 0.43856 0.43909 0.77012 0.0
H2158 H 0.42851 0.41415 0.81303 0.0
H2159 H 0.442 0.43553 0.82901 0.0
C2160 C 0.51294 0.46945 0.86526 0.0
C2161 C 0.50845 0.45819 0.87664 0.0
C2162 C 0.5027 0.47296 0.85255 0.0
C2163 C 0.4876 0.46558 0.85112 0.0
C2164 C 0.48336 0.45387 0.86204 0.0
C2165 C 0.49369 0.45016 0.87461 0.0
C2166 C 0.47585 0.47053 0.8388 0.0
C2167 C 0.46816 0.45876 0.8292 0.0
C2168 C 0.47171 0.48667 0.83694 0.0
C2169 C 0.4785 0.4996 0.8474 0.0
C2170 C 0.47682 0.49909 0.864 0.0
C2171 C 0.48334 0.51127 0.8738 0.0
C2172 C 0.49143 0.5241 0.8671 0.0
C2173 C 0.49298 0.5248 0.8506 0.0
C2174 C 0.4865 0.51263 0.84075 0.0
C2175 C 0.40864 0.48261 0.80481 0.0
C2176 C 0.40948 0.49221 0.79131 0.0
C2177 C 0.42247 0.47802 0.81277 0.0
C2178 C 0.4374 0.48308 0.80751 0.0
C2179 C 0.43836 0.49272 0.79409 0.0
C2180 C 0.42448 0.4971 0.7859 0.0
C2181 C 0.45183 0.47868 0.81661 0.0
C2182 C 0.45996 0.49055 0.82565 0.0
C2183 C 0.45614 0.46262 0.81818 0.0
C2184 C 0.44809 0.44968 0.80861 0.0
C2185 C 0.44706 0.45051 0.79191 0.0
C2186 C 0.43933 0.43837 0.78297 0.0
C2187 C 0.43264 0.42528 0.79058 0.0
C2188 C 0.4337 0.4243 0.80715 0.0
C2189 C 0.44141 0.43641 0.81616 0.0
H2190 H 0.42666 0.41589 0.78363 0.0
H2191 H 0.49647 0.53352 0.8747 0.0
H2192 H 0.70751 0.71466 0.15867 0.0
H2193 H 0.70999 0.69635 0.1359 0.0
H2194 H 0.74232 0.72949 0.11411 0.0
H2195 H 0.73974 0.74794 0.13674 0.0
H2196 H 0.71974 0.71644 0.09269 0.0
H2197 H 0.75687 0.69858 0.13279 0.0
H2198 H 0.76485 0.68967 0.15956 0.0
H2199 H 0.73223 0.64983 0.15486 0.0
H2200 H 0.72389 0.65865 0.12814 0.0
H2201 H 0.75696 0.66714 0.03622 0.0
H2202 H 0.75051 0.68527 0.05802 0.0
H2203 H 0.72296 0.64801 0.07976 0.0
H2204 H 0.72968 0.62964 0.05813 0.0
H2205 H 0.74131 0.66272 0.10133 0.0
H2206 H 0.70501 0.67937 0.06082 0.0
H2207 H 0.69652 0.68815 0.03416 0.0
H2208 H 0.72651 0.72991 0.03953 0.0
H2209 H 0.73535 0.72128 0.06615 0.0
C2210 C 0.71502 0.71811 0.14895 0.0
C2211 C 0.72349 0.7327 0.14951 0.0
C2212 C 0.71649 0.7076 0.13601 0.0
C2213 C 0.72644 0.71152 0.1234 0.0
C2214 C 0.73461 0.72624 0.12374 0.0
C2215 C 0.73322 0.7367 0.13673 0.0
C2216 C 0.72866 0.70012 0.11002 0.0
C2217 C 0.72459 0.70475 0.09452 0.0
C2218 C 0.73458 0.68472 0.11252 0.0
C2219 C 0.73964 0.67937 0.12855 0.0
C2220 C 0.7513 0.68799 0.13752 0.0
C2221 C 0.75591 0.68295 0.15268 0.0
C2222 C 0.74902 0.66922 0.15893 0.0
C2223 C 0.73754 0.66048 0.15002 0.0
C2224 C 0.73288 0.66549 0.13487 0.0
C2225 C 0.74945 0.6628 0.04558 0.0
C2226 C 0.74383 0.64694 0.04543 0.0
C2227 C 0.7457 0.67323 0.05801 0.0
C2228 C 0.73607 0.66807 0.07044 0.0
C2229 C 0.73038 0.65226 0.07028 0.0
C2230 C 0.73421 0.64178 0.05789 0.0
C2231 C 0.73249 0.67903 0.08389 0.0
C2232 C 0.73632 0.67435 0.09944 0.0
C2233 C 0.72626 0.69434 0.08143 0.0
C2234 C 0.72095 0.6996 0.06543 0.0
C2235 C 0.70989 0.69037 0.05627 0.0
C2236 C 0.705 0.69533 0.04117 0.0
C2237 C 0.711 0.70956 0.03514 0.0
C2238 C 0.72188 0.71888 0.04421 0.0
C2239 C 0.72682 0.71397 0.05931 0.0
H2240 H 0.7072 0.71338 0.02345 0.0
H2241 H 0.7526 0.66533 0.17066 0.0
H2242 H 0.99649 0.04659 0.11888 0.0
H2243 H 0.978 0.04214 0.1404 0.0
H2244 H 0.95597 0.00302 0.11366 0.0
H2245 H 0.97383 0.00796 0.09169 0.0
H2246 H 0.93395 0.01988 0.12684 0.0
H2247 H 0.9826 0.99739 0.14555 0.0
H2248 H 0.01125 0.99695 0.15236 0.0
H2249 H 0.0056 0.03474 0.1867 0.0
H2250 H 0.97694 0.03555 0.17994 0.0
H2251 H 0.89397 0.98422 0.19163 0.0
H2252 H 0.91188 0.98947 0.16968 0.0
H2253 H 0.92988 0.0318 0.19423 0.0
H2254 H 0.91202 0.02665 0.21624 0.0
H2255 H 0.95381 0.01335 0.18233 0.0
H2256 H 0.90468 0.0352 0.16339 0.0
H2257 H 0.876 0.03471 0.15664 0.0
H2258 H 0.8827 0.99675 0.12272 0.0
H2259 H 0.9114 0.99687 0.12943 0.0
C2260 C 0.98759 0.03716 0.11745 0.0
C2261 C 0.98673 0.02761 0.1035 0.0
C2262 C 0.97713 0.03449 0.12989 0.0
C2263 C 0.96573 0.02206 0.1288 0.0
C2264 C 0.96471 0.01263 0.11484 0.0
C2265 C 0.97507 0.01538 0.10233 0.0
C2266 C 0.95479 0.01896 0.14215 0.0
C2267 C 0.93833 0.01824 0.13893 0.0
C2268 C 0.96043 0.01711 0.15802 0.0
C2269 C 0.97765 0.01663 0.16213 0.0
C2270 C 0.98749 0.00569 0.15447 0.0
C2271 C 0.00372 0.00536 0.15833 0.0
C2272 C 0.01025 0.01584 0.16992 0.0
C2273 C 0.00053 0.02665 0.17771 0.0
C2274 C 0.98429 0.02703 0.17387 0.0
C2275 C 0.9017 0.99467 0.19236 0.0
C2276 C 0.90153 0.00503 0.20569 0.0
C2277 C 0.9119 0.99768 0.17977 0.0
C2278 C 0.92214 0.01109 0.18027 0.0
C2279 C 0.92207 0.02139 0.1936 0.0
C2280 C 0.91181 0.01845 0.20614 0.0
C2281 C 0.93305 0.01427 0.16698 0.0
C2282 C 0.94948 0.01499 0.17023 0.0
C2283 C 0.9274 0.01598 0.15113 0.0
C2284 C 0.91016 0.01594 0.14703 0.0
C2285 C 0.90001 0.02666 0.15458 0.0
C2286 C 0.88376 0.02647 0.15075 0.0
C2287 C 0.87752 0.01568 0.13929 0.0
C2288 C 0.88754 0.00509 0.13161 0.0
C2289 C 0.9038 0.00522 0.13541 0.0
H2290 H 0.86494 0.01555 0.13633 0.0
H2291 H 0.02282 0.01557 0.1729 0.0
H2292 H 0.26001 0.78681 0.16999 0.0
H2293 H 0.25668 0.80632 0.14879 0.0
H2294 H 0.29001 0.78089 0.12008 0.0
H2295 H 0.29333 0.76141 0.14112 0.0
H2296 H 0.29545 0.81425 0.12162 0.0
H2297 H 0.25208 0.77578 0.11229 0.0
H2298 H 0.22801 0.76082 0.11995 0.0
H2299 H 0.20381 0.80462 0.12797 0.0
H2300 H 0.22784 0.81985 0.12056 0.0
H2301 H 0.28707 0.83211 0.04202 0.0
H2302 H 0.28722 0.8197 0.06787 0.0
H2303 H 0.2488 0.84937 0.08265 0.0
H2304 H 0.24837 0.86186 0.0564 0.0
H2305 H 0.24426 0.81876 0.0917 0.0
H2306 H 0.28591 0.8573 0.09717 0.0
H2307 H 0.30977 0.87267 0.08968 0.0
H2308 H 0.33711 0.83011 0.08984 0.0
H2309 H 0.31335 0.81442 0.0971 0.0
C2310 C 0.26667 0.78547 0.15918 0.0
C2311 C 0.27687 0.77258 0.15714 0.0
C2312 C 0.26471 0.79655 0.14708 0.0
C2313 C 0.27307 0.79499 0.13288 0.0
C2314 C 0.28346 0.7823 0.13097 0.0
C2315 C 0.28527 0.77113 0.14293 0.0
C2316 C 0.27098 0.80639 0.1198 0.0
C2317 C 0.28429 0.81524 0.11503 0.0
C2318 C 0.25624 0.80811 0.11166 0.0
C2319 C 0.24181 0.79895 0.11608 0.0
C2320 C 0.24167 0.78222 0.11583 0.0
C2321 C 0.22803 0.77369 0.1201 0.0
C2322 C 0.2144 0.78176 0.1245 0.0
C2323 C 0.21438 0.79838 0.1246 0.0
C2324 C 0.22801 0.80697 0.12036 0.0
C2325 C 0.27863 0.83609 0.05071 0.0
C2326 C 0.26777 0.84809 0.04714 0.0
C2327 C 0.2788 0.82901 0.06556 0.0
C2328 C 0.26826 0.83383 0.07732 0.0
C2329 C 0.25713 0.84557 0.07377 0.0
C2330 C 0.25691 0.85269 0.05879 0.0
C2331 C 0.26892 0.82623 0.09312 0.0
C2332 C 0.25536 0.8181 0.09846 0.0
C2333 C 0.28342 0.82528 0.10191 0.0
C2334 C 0.2978 0.83467 0.09761 0.0
C2335 C 0.29698 0.85119 0.09551 0.0
C2336 C 0.31049 0.85997 0.09131 0.0
C2337 C 0.32494 0.85237 0.08927 0.0
C2338 C 0.32591 0.83598 0.09144 0.0
C2339 C 0.31242 0.82714 0.09562 0.0
H2340 H 0.33539 0.85918 0.08602 0.0
H2341 H 0.20385 0.77514 0.12779 0.0
H2342 H 0.01936 0.4786 0.11334 0.0
H2343 H 0.03941 0.48496 0.13419 0.0
H2344 H 0.01405 0.45515 0.1668 0.0
H2345 H 0.99403 0.44877 0.14607 0.0
H2346 H 0.02295 0.48304 0.18068 0.0
H2347 H 0.04748 0.44249 0.14836 0.0
H2348 H 0.05735 0.43091 0.12336 0.0
H2349 H 0.0894 0.47086 0.11861 0.0
H2350 H 0.07956 0.48278 0.14349 0.0
H2351 H 0.07762 0.46332 0.24031 0.0
H2352 H 0.05996 0.46238 0.21694 0.0
H2353 H 0.08995 0.49677 0.19388 0.0
H2354 H 0.10784 0.49784 0.21735 0.0
H2355 H 0.07989 0.47073 0.17398 0.0
H2356 H 0.05738 0.50969 0.20813 0.0
H2357 H 0.04794 0.52061 0.23359 0.0
H2358 H 0.01225 0.48347 0.2351 0.0
H2359 H 0.02164 0.47217 0.20977 0.0
C2360 C 0.01815 0.47332 0.12492 0.0
C2361 C 0.00514 0.46318 0.12808 0.0
C2362 C 0.02957 0.47699 0.13682 0.0
C2363 C 0.02825 0.47045 0.152 0.0
C2364 C 0.01524 0.46039 0.15518 0.0
C2365 C 0.00381 0.45677 0.14334 0.0
C2366 C 0.04039 0.47394 0.16466 0.0
C2367 C 0.03538 0.48026 0.17924 0.0
C2368 C 0.05669 0.47079 0.16259 0.0
C2369 C 0.06265 0.46361 0.14767 0.0
C2370 C 0.05654 0.44887 0.14191 0.0
C2371 C 0.06214 0.44223 0.12778 0.0
C2372 C 0.07396 0.45017 0.11937 0.0
C2373 C 0.08023 0.46474 0.12511 0.0
C2374 C 0.07464 0.47144 0.13923 0.0
C2375 C 0.08055 0.47066 0.23027 0.0
C2376 C 0.09411 0.48072 0.23072 0.0
C2377 C 0.0704 0.47014 0.21695 0.0
C2378 C 0.07358 0.47965 0.20382 0.0
C2379 C 0.08731 0.4894 0.20398 0.0
C2380 C 0.09747 0.49001 0.21739 0.0
C2381 C 0.06233 0.47939 0.19007 0.0
C2382 C 0.0675 0.47373 0.17531 0.0
C2383 C 0.04616 0.48312 0.19196 0.0
C2384 C 0.04029 0.49002 0.20709 0.0
C2385 C 0.04758 0.50379 0.21394 0.0
C2386 C 0.04223 0.51005 0.22835 0.0
C2387 C 0.02952 0.50272 0.23598 0.0
C2388 C 0.0221 0.48914 0.22918 0.0
C2389 C 0.02742 0.4828 0.21479 0.0
H2390 H 0.02541 0.50758 0.24714 0.0
H2391 H 0.07829 0.44502 0.10843 0.0
H2392 H 0.35235 0.69665 0.28174 0.0
H2393 H 0.377 0.69804 0.29784 0.0
H2394 H 0.39169 0.74024 0.27317 0.0
H2395 H 0.36732 0.73872 0.25683 0.0
H2396 H 0.41578 0.71925 0.27624 0.0
H2397 H 0.37599 0.74267 0.30994 0.0
H2398 H 0.35084 0.74262 0.32449 0.0
H2399 H 0.36625 0.70271 0.35159 0.0
H2400 H 0.39142 0.70241 0.33703 0.0
H2401 H 0.46923 0.7637 0.32386 0.0
H2402 H 0.44677 0.75242 0.30859 0.0
H2403 H 0.44365 0.71337 0.34108 0.0
H2404 H 0.4663 0.72478 0.35671 0.0
H2405 H 0.41462 0.72662 0.33495 0.0
H2406 H 0.45644 0.70626 0.3042 0.0
H2407 H 0.48173 0.70681 0.28992 0.0
H2408 H 0.46283 0.74076 0.25735 0.0
H2409 H 0.4375 0.7406 0.27157 0.0
C2410 C 0.3609 0.70615 0.27968 0.0
C2411 C 0.35786 0.71762 0.26806 0.0
C2412 C 0.37492 0.70698 0.28895 0.0
C2413 C 0.38613 0.7193 0.28676 0.0
C2414 C 0.3832 0.73064 0.27505 0.0
C2415 C 0.36919 0.72984 0.26584 0.0
C2416 C 0.40089 0.72063 0.29671 0.0
C2417 C 0.41555 0.72091 0.28907 0.0
C2418 C 0.40059 0.72218 0.31351 0.0
C2419 C 0.38548 0.72239 0.32226 0.0
C2420 C 0.37395 0.7338 0.3189 0.0
C2421 C 0.35971 0.73386 0.32717 0.0
C2422 C 0.35693 0.72264 0.33892 0.0
C2423 C 0.3684 0.71137 0.34246 0.0
C2424 C 0.38266 0.71125 0.33421 0.0
C2425 C 0.4639 0.75264 0.32777 0.0
C2426 C 0.46957 0.74515 0.34154 0.0
C2427 C 0.45109 0.74615 0.31893 0.0
C2428 C 0.44365 0.73195 0.32357 0.0
C2429 C 0.44929 0.72431 0.33725 0.0
C2430 C 0.46225 0.7308 0.34612 0.0
C2431 C 0.42949 0.7258 0.31441 0.0
C2432 C 0.41493 0.7246 0.32217 0.0
C2433 C 0.42988 0.72338 0.2977 0.0
C2434 C 0.44507 0.72346 0.28901 0.0
C2435 C 0.4577 0.71392 0.29405 0.0
C2436 C 0.47204 0.71416 0.28596 0.0
C2437 C 0.47389 0.72383 0.27274 0.0
C2438 C 0.46138 0.73327 0.26758 0.0
C2439 C 0.44701 0.73309 0.27564 0.0
H2440 H 0.485 0.72399 0.26649 0.0
H2441 H 0.3459 0.7227 0.34531 0.0
H2442 H 0.94998 0.36337 0.02451 0.0
H2443 H 0.95604 0.34243 0.00491 0.0
H2444 H 0.9734 0.37807 0.97294 0.0
H2445 H 0.9674 0.39896 0.99241 0.0
H2446 H 0.95298 0.35519 0.95824 0.0
H2447 H 0.99913 0.35801 0.99391 0.0
H2448 H 0.01273 0.35685 0.02015 0.0
H2449 H 0.99564 0.30882 0.02554 0.0
H2450 H 0.98173 0.30978 0.9994 0.0
H2451 H 0.99951 0.31943 0.90177 0.0
H2452 H 0.99127 0.33506 0.92468 0.0
H2453 H 0.98011 0.29202 0.94966 0.0
H2454 H 0.98861 0.27611 0.92666 0.0
H2455 H 0.99425 0.31528 0.96943 0.0
H2456 H 0.95051 0.31119 0.93267 0.0
H2457 H 0.93679 0.31208 0.90647 0.0
H2458 H 0.94839 0.36188 0.90339 0.0
H2459 H 0.9624 0.36124 0.92947 0.0
C2460 C 0.95497 0.3667 0.01323 0.0
C2461 C 0.95829 0.38275 0.00996 0.0
C2462 C 0.9585 0.35475 0.00212 0.0
C2463 C 0.96525 0.35873 0.98755 0.0
C2464 C 0.96821 0.37477 0.98414 0.0
C2465 C 0.96487 0.38667 0.99528 0.0
C2466 C 0.96941 0.34629 0.97576 0.0
C2467 C 0.96204 0.3465 0.96065 0.0
C2468 C 0.98084 0.33463 0.97913 0.0
C2469 C 0.98923 0.33404 0.9948 0.0
C2470 C 0.99815 0.34725 0.00076 0.0
C2471 C 0.00594 0.34662 0.01559 0.0
C2472 C 0.00501 0.33279 0.02453 0.0
C2473 C 0.99632 0.31954 0.01862 0.0
C2474 C 0.98849 0.32012 0.0038 0.0
C2475 C 0.99545 0.31322 0.91216 0.0
C2476 C 0.99453 0.29651 0.91232 0.0
C2477 C 0.9907 0.3222 0.92524 0.0
C2478 C 0.98473 0.3147 0.93871 0.0
C2479 C 0.98456 0.29802 0.93931 0.0
C2480 C 0.98943 0.28896 0.92618 0.0
C2481 C 0.97815 0.3245 0.95174 0.0
C2482 C 0.985 0.32378 0.96708 0.0
C2483 C 0.96613 0.33565 0.94864 0.0
C2484 C 0.9576 0.33614 0.93299 0.0
C2485 C 0.95023 0.32231 0.92636 0.0
C2486 C 0.94239 0.32277 0.91154 0.0
C2487 C 0.94174 0.33702 0.90326 0.0
C2488 C 0.94891 0.35085 0.90981 0.0
C2489 C 0.95679 0.35045 0.92463 0.0
H2490 H 0.93567 0.33735 0.89179 0.0
H2491 H 0.01105 0.33232 0.03601 0.0
H2492 H 0.6454 0.78839 0.26843 0.0
H2493 H 0.62524 0.78522 0.28876 0.0
H2494 H 0.65385 0.75018 0.31206 0.0
H2495 H 0.67428 0.75349 0.29176 0.0
H2496 H 0.61953 0.74189 0.30638 0.0
H2497 H 0.65351 0.78206 0.33054 0.0
H2498 H 0.6697 0.80684 0.33136 0.0
H2499 H 0.62823 0.83382 0.3203 0.0
H2500 H 0.61182 0.80916 0.31916 0.0
H2501 H 0.55807 0.74454 0.36491 0.0
H2502 H 0.58481 0.74359 0.35378 0.0
H2503 H 0.57566 0.78648 0.32796 0.0
H2504 H 0.54941 0.78773 0.33917 0.0
H2505 H 0.60453 0.78793 0.34021 0.0
H2506 H 0.57213 0.74845 0.31054 0.0
H2507 H 0.55527 0.72417 0.30778 0.0
H2508 H 0.59293 0.69649 0.32761 0.0
H2509 H 0.60995 0.72067 0.33066 0.0
C2510 C 0.64738 0.77999 0.27787 0.0
C2511 C 0.66136 0.77116 0.27855 0.0
C2512 C 0.63591 0.77824 0.28949 0.0
C2513 C 0.63812 0.76752 0.30191 0.0
C2514 C 0.65198 0.75853 0.30256 0.0
C2515 C 0.66362 0.76048 0.29105 0.0
C2516 C 0.62573 0.76583 0.31403 0.0
C2517 C 0.61645 0.75179 0.31411 0.0
C2518 C 0.62165 0.77884 0.32389 0.0
C2519 C 0.63145 0.79374 0.32468 0.0
C2520 C 0.64785 0.79326 0.32816 0.0
C2521 C 0.65707 0.80729 0.3287 0.0
C2522 C 0.65 0.82189 0.32586 0.0
C2523 C 0.63369 0.8225 0.3225 0.0
C2524 C 0.62442 0.8085 0.32193 0.0
C2525 C 0.56184 0.75382 0.35696 0.0
C2526 C 0.55155 0.76617 0.3529 0.0
C2527 C 0.57709 0.75323 0.35056 0.0
C2528 C 0.58222 0.76491 0.33994 0.0
C2529 C 0.57205 0.77737 0.33618 0.0
C2530 C 0.55695 0.77801 0.34257 0.0
C2531 C 0.59788 0.76421 0.33213 0.0
C2532 C 0.60782 0.77784 0.33286 0.0
C2533 C 0.60243 0.75088 0.32286 0.0
C2534 C 0.59222 0.73638 0.32102 0.0
C2535 C 0.57676 0.7372 0.31443 0.0
C2536 C 0.56719 0.72346 0.31279 0.0
C2537 C 0.57301 0.70881 0.31757 0.0
C2538 C 0.58843 0.70786 0.32395 0.0
C2539 C 0.59804 0.72157 0.32564 0.0
H2540 H 0.56558 0.69818 0.31629 0.0
H2541 H 0.65716 0.83274 0.32629 0.0
H2542 H 0.05076 0.09972 0.97097 0.0
H2543 H 0.04741 0.12176 0.95277 0.0
H2544 H 0.00921 0.13947 0.98109 0.0
H2545 H 0.01197 0.11701 0.99894 0.0
H2546 H 0.00148 0.14104 0.95057 0.0
H2547 H 0.04697 0.15686 0.98274 0.0
H2548 H 0.07348 0.15401 0.99535 0.0
H2549 H 0.09427 0.14959 0.94929 0.0
H2550 H 0.06785 0.1522 0.9364 0.0
H2551 H 0.9995 0.21842 0.91769 0.0
H2552 H 0.00247 0.19612 0.9357 0.0
H2553 H 0.03838 0.17651 0.90565 0.0
H2554 H 0.03557 0.19885 0.8876 0.0
H2555 H 0.04722 0.17606 0.93706 0.0
H2556 H 0.00126 0.16045 0.90508 0.0
H2557 H 0.97465 0.16384 0.89288 0.0
H2558 H 0.95463 0.16854 0.93927 0.0
H2559 H 0.98117 0.1654 0.95176 0.0
C2560 C 0.04152 0.10819 0.97326 0.0
C2561 C 0.03165 0.10656 0.98648 0.0
C2562 C 0.03975 0.12091 0.96292 0.0
C2563 C 0.02821 0.13244 0.96566 0.0
C2564 C 0.01825 0.13078 0.97875 0.0
C2565 C 0.01995 0.118 0.98905 0.0
C2566 C 0.02644 0.14611 0.9548 0.0
C2567 C 0.01145 0.14883 0.9478 0.0
C2568 C 0.03949 0.1561 0.95089 0.0
C2569 C 0.05541 0.15457 0.95861 0.0
C2570 C 0.05718 0.15516 0.9753 0.0
C2571 C 0.07219 0.1536 0.9825 0.0
C2572 C 0.08555 0.15157 0.97312 0.0
C2573 C 0.08392 0.15114 0.95653 0.0
C2574 C 0.06893 0.15267 0.94927 0.0
C2575 C 0.00802 0.20936 0.91487 0.0
C2576 C 0.01727 0.21042 0.90116 0.0
C2577 C 0.00965 0.19658 0.92516 0.0
C2578 C 0.02054 0.18456 0.92195 0.0
C2579 C 0.02989 0.18564 0.90835 0.0
C2580 C 0.02822 0.1984 0.89802 0.0
C2581 C 0.02229 0.17095 0.93286 0.0
C2582 C 0.03727 0.16826 0.93985 0.0
C2583 C 0.00922 0.16104 0.93683 0.0
C2584 C 0.99323 0.16284 0.92935 0.0
C2585 C 0.9912 0.16233 0.91268 0.0
C2586 C 0.97613 0.16419 0.90571 0.0
C2587 C 0.96297 0.16645 0.91529 0.0
C2588 C 0.96484 0.16681 0.93186 0.0
C2589 C 0.97989 0.16498 0.93889 0.0
H2590 H 0.95131 0.16788 0.90987 0.0
H2591 H 0.09716 0.15038 0.97872 0.0
H2592 H 0.34297 0.25582 0.22236 0.0
H2593 H 0.36573 0.25229 0.20534 0.0
H2594 H 0.39747 0.26564 0.24459 0.0
H2595 H 0.37469 0.27026 0.26142 0.0
H2596 H 0.40584 0.28083 0.21983 0.0
H2597 H 0.39421 0.22639 0.22933 0.0
H2598 H 0.37779 0.20191 0.23132 0.0
H2599 H 0.36622 0.20347 0.18135 0.0
H2600 H 0.38239 0.22809 0.17909 0.0
H2601 H 0.47149 0.26351 0.1694 0.0
H2602 H 0.45322 0.26094 0.19163 0.0
H2603 H 0.41349 0.25705 0.15838 0.0
H2604 H 0.43152 0.25971 0.1362 0.0
H2605 H 0.4124 0.23467 0.18313 0.0
H2606 H 0.42119 0.29143 0.17549 0.0
H2607 H 0.43791 0.31576 0.1739 0.0
H2608 H 0.45561 0.30881 0.22155 0.0
H2609 H 0.43913 0.28431 0.22334 0.0
C2610 C 0.35478 0.25807 0.22738 0.0
C2611 C 0.35696 0.26343 0.24325 0.0
C2612 C 0.36782 0.25579 0.21769 0.0
C2613 C 0.38335 0.25847 0.22374 0.0
C2614 C 0.3856 0.26342 0.23968 0.0
C2615 C 0.37255 0.26591 0.24934 0.0
C2616 C 0.39711 0.25732 0.21305 0.0
C2617 C 0.40747 0.27055 0.21209 0.0
C2618 C 0.39917 0.244 0.20279 0.0
C2619 C 0.38945 0.22916 0.20407 0.0
C2620 C 0.38807 0.22158 0.21879 0.0
C2621 C 0.37882 0.20767 0.21996 0.0
C2622 C 0.37095 0.20116 0.20648 0.0
C2623 C 0.37233 0.20853 0.19178 0.0
C2624 C 0.38156 0.22245 0.19054 0.0
C2625 C 0.45887 0.26203 0.16685 0.0
C2626 C 0.45293 0.26193 0.15107 0.0
C2627 C 0.44848 0.26057 0.17954 0.0
C2628 C 0.43204 0.25883 0.17659 0.0
C2629 C 0.42615 0.25833 0.16086 0.0
C2630 C 0.43647 0.25997 0.14822 0.0
C2631 C 0.42076 0.25825 0.18981 0.0
C2632 C 0.41089 0.24474 0.19117 0.0
C2633 C 0.41922 0.27122 0.20055 0.0
C2634 C 0.4291 0.28594 0.19947 0.0
C2635 C 0.42876 0.29501 0.18557 0.0
C2636 C 0.43817 0.30885 0.18464 0.0
C2637 C 0.44786 0.31379 0.19759 0.0
C2638 C 0.44813 0.30494 0.21152 0.0
C2639 C 0.43875 0.29109 0.2125 0.0
H2640 H 0.45513 0.32451 0.19685 0.0
H2641 H 0.36379 0.19039 0.20741 0.0
H2642 H 0.56693 0.3836 0.00732 0.0
H2643 H 0.56288 0.36644 0.03002 0.0
H2644 H 0.51823 0.38892 0.03905 0.0
H2645 H 0.52275 0.40693 0.01715 0.0
H2646 H 0.53254 0.38373 0.06606 0.0
H2647 H 0.52123 0.35216 0.01836 0.0
H2648 H 0.52712 0.34002 0.99226 0.0
H2649 H 0.56631 0.31537 0.01329 0.0
H2650 H 0.56076 0.32753 0.0395 0.0
H2651 H 0.48427 0.32199 0.0969 0.0
H2652 H 0.49786 0.34332 0.08288 0.0
H2653 H 0.54243 0.31945 0.08885 0.0
H2654 H 0.52892 0.29811 0.10319 0.0
H2655 H 0.53315 0.32531 0.0569 0.0
H2656 H 0.54004 0.35386 0.10603 0.0
H2657 H 0.53204 0.36538 0.13176 0.0
H2658 H 0.49873 0.39512 0.10763 0.0
H2659 H 0.50635 0.38362 0.08176 0.0
C2660 C 0.55636 0.38511 0.01427 0.0
C2661 C 0.5451 0.39662 0.01027 0.0
C2662 C 0.55399 0.37514 0.02717 0.0
C2663 C 0.54012 0.3762 0.0361 0.0
C2664 C 0.529 0.38783 0.03231 0.0
C2665 C 0.53149 0.39798 0.0196 0.0
C2666 C 0.53684 0.36489 0.04905 0.0
C2667 C 0.5326 0.37096 0.06404 0.0
C2668 C 0.53735 0.3482 0.04657 0.0
C2669 C 0.54071 0.34091 0.03083 0.0
C2670 C 0.53118 0.34425 0.01739 0.0
C2671 C 0.53445 0.33735 0.00258 0.0
C2672 C 0.54712 0.32698 0.0011 0.0
C2673 C 0.55652 0.32344 0.01444 0.0
C2674 C 0.55332 0.33033 0.02927 0.0
C2675 C 0.49703 0.32148 0.0956 0.0
C2676 C 0.50553 0.30835 0.10102 0.0
C2677 C 0.50479 0.33371 0.08765 0.0
C2678 C 0.52113 0.33293 0.08485 0.0
C2679 C 0.52981 0.32026 0.09098 0.0
C2680 C 0.52209 0.30813 0.09919 0.0
C2681 C 0.52847 0.34417 0.07371 0.0
C2682 C 0.53343 0.33808 0.05903 0.0
C2683 C 0.52834 0.3608 0.0764 0.0
C2684 C 0.52371 0.36779 0.09194 0.0
C2685 C 0.53091 0.36276 0.10621 0.0
C2686 C 0.52646 0.36931 0.12082 0.0
C2687 C 0.51486 0.38095 0.12133 0.0
C2688 C 0.50771 0.3861 0.10722 0.0
C2689 C 0.51211 0.37958 0.09257 0.0
H2690 H 0.51143 0.38601 0.13266 0.0
H2691 H 0.54962 0.32164 0.98963 0.0
H2692 H 0.63089 0.21407 0.24104 0.0
H2693 H 0.6088 0.21903 0.22251 0.0
H2694 H 0.63964 0.24875 0.19471 0.0
H2695 H 0.66165 0.24413 0.21348 0.0
H2696 H 0.61271 0.2627 0.19836 0.0
H2697 H 0.62749 0.21014 0.18244 0.0
H2698 H 0.63356 0.18186 0.18612 0.0
H2699 H 0.58635 0.17303 0.20272 0.0
H2700 H 0.58005 0.20132 0.19935 0.0
H2701 H 0.5616 0.26637 0.13003 0.0
H2702 H 0.58393 0.26018 0.14782 0.0
H2703 H 0.55181 0.23657 0.17947 0.0
H2704 H 0.52937 0.24273 0.16178 0.0
H2705 H 0.57929 0.21934 0.17349 0.0
H2706 H 0.56501 0.27238 0.18935 0.0
H2707 H 0.55925 0.30063 0.18502 0.0
H2708 H 0.60628 0.30832 0.16746 0.0
H2709 H 0.61225 0.28004 0.17148 0.0
C2710 C 0.63297 0.22154 0.23088 0.0
C2711 C 0.64797 0.22869 0.22866 0.0
C2712 C 0.62036 0.22434 0.22028 0.0
C2713 C 0.6226 0.23409 0.20707 0.0
C2714 C 0.63761 0.24119 0.20481 0.0
C2715 C 0.65017 0.23856 0.21553 0.0
C2716 C 0.60918 0.2373 0.19588 0.0
C2717 C 0.60557 0.25319 0.19274 0.0
C2718 C 0.59961 0.22492 0.1888 0.0
C2719 C 0.60335 0.20789 0.19079 0.0
C2720 C 0.61844 0.2022 0.18699 0.0
C2721 C 0.62191 0.18616 0.189 0.0
C2722 C 0.61036 0.17566 0.19469 0.0
C2723 C 0.59529 0.18118 0.19834 0.0
C2724 C 0.59176 0.19721 0.19637 0.0
C2725 C 0.55927 0.25983 0.14076 0.0
C2726 C 0.5437 0.25509 0.14453 0.0
C2727 C 0.57204 0.25634 0.15092 0.0
C2728 C 0.56948 0.24802 0.165 0.0
C2729 C 0.55401 0.24301 0.16866 0.0
C2730 C 0.54121 0.2466 0.15857 0.0
C2731 C 0.58295 0.24468 0.17599 0.0
C2732 C 0.58651 0.22879 0.1791 0.0
C2733 C 0.59256 0.25704 0.18294 0.0
C2734 C 0.58901 0.27406 0.18057 0.0
C2735 C 0.57408 0.28006 0.18444 0.0
C2736 C 0.57078 0.29608 0.18206 0.0
C2737 C 0.58237 0.30625 0.17592 0.0
C2738 C 0.5973 0.30043 0.17219 0.0
C2739 C 0.60065 0.2844 0.17453 0.0
H2740 H 0.5798 0.31866 0.17409 0.0
H2741 H 0.61308 0.16325 0.19623 0.0
H2742 H 0.46499 0.14063 0.9893 0.0
H2743 H 0.47394 0.16162 0.00794 0.0
H2744 H 0.49844 0.12717 0.03636 0.0
H2745 H 0.48961 0.10599 0.01756 0.0
H2746 H 0.48101 0.14676 0.05449 0.0
H2747 H 0.51995 0.15314 0.01525 0.0
H2748 H 0.53064 0.15546 0.98828 0.0
H2749 H 0.50483 0.19842 0.98138 0.0
H2750 H 0.49378 0.19624 0.00822 0.0
H2751 H 0.50574 0.21548 0.10183 0.0
H2752 H 0.50854 0.1915 0.08513 0.0
H2753 H 0.47922 0.21215 0.04848 0.0
H2754 H 0.47635 0.236 0.06497 0.0
H2755 H 0.50582 0.19721 0.03657 0.0
H2756 H 0.4631 0.18689 0.07376 0.0
H2757 H 0.45226 0.18428 0.10066 0.0
H2758 H 0.48619 0.14831 0.11137 0.0
H2759 H 0.49736 0.15086 0.08457 0.0
C2760 C 0.47251 0.13752 0.99935 0.0
C2761 C 0.47667 0.12166 0.00189 0.0
C2762 C 0.47761 0.14954 0.01001 0.0
C2763 C 0.48707 0.14598 0.02339 0.0
C2764 C 0.49122 0.13016 0.02605 0.0
C2765 C 0.4861 0.11808 0.01536 0.0
C2766 C 0.49181 0.15883 0.03491 0.0
C2767 C 0.48682 0.15764 0.05068 0.0
C2768 C 0.49932 0.17304 0.02991 0.0
C2769 C 0.50597 0.17448 0.01375 0.0
C2770 C 0.51646 0.16303 0.00795 0.0
C2771 C 0.5226 0.16433 0.99268 0.0
C2772 C 0.51841 0.17707 0.98312 0.0
C2773 C 0.50808 0.18856 0.98881 0.0
C2774 C 0.50189 0.18731 0.00406 0.0
C2775 C 0.50001 0.21494 0.09016 0.0
C2776 C 0.49072 0.22758 0.08476 0.0
C2777 C 0.50161 0.20125 0.08066 0.0
C2778 C 0.49403 0.20008 0.06563 0.0
C2779 C 0.4852 0.21287 0.06004 0.0
C2780 C 0.48349 0.22645 0.06953 0.0
C2781 C 0.49445 0.18531 0.05587 0.0
C2782 C 0.50043 0.18615 0.04045 0.0
C2783 C 0.48793 0.17076 0.0612 0.0
C2784 C 0.48119 0.16921 0.07726 0.0
C2785 C 0.46833 0.17852 0.0819 0.0
C2786 C 0.46211 0.17704 0.09712 0.0
C2787 C 0.46857 0.16618 0.10774 0.0
C2788 C 0.48123 0.15675 0.10314 0.0
C2789 C 0.4875 0.1582 0.08795 0.0
H2790 H 0.46374 0.16504 0.11951 0.0
H2791 H 0.52317 0.17805 0.9713 0.0
H2792 H 0.28718 0.34307 0.73142 0.0
H2793 H 0.30405 0.367 0.73413 0.0
H2794 H 0.2658 0.39521 0.71569 0.0
H2795 H 0.24904 0.37123 0.71236 0.0
H2796 H 0.2941 0.40538 0.70441 0.0
H2797 H 0.27226 0.39286 0.75532 0.0
H2798 H 0.26653 0.37574 0.77812 0.0
H2799 H 0.31656 0.37074 0.78738 0.0
H2800 H 0.32258 0.38766 0.76447 0.0
H2801 H 0.32164 0.47155 0.76594 0.0
H2802 H 0.30623 0.44803 0.75739 0.0
H2803 H 0.3404 0.43815 0.72113 0.0
H2804 H 0.35584 0.46207 0.72947 0.0
H2805 H 0.31478 0.41845 0.75894 0.0
H2806 H 0.321 0.41643 0.69064 0.0
H2807 H 0.32451 0.4349 0.66842 0.0
H2808 H 0.30181 0.47173 0.6951 0.0
H2809 H 0.29799 0.45343 0.71737 0.0
C2810 C 0.28244 0.35431 0.72765 0.0
C2811 C 0.2667 0.35525 0.7218 0.0
C2812 C 0.29207 0.368 0.72931 0.0
C2813 C 0.28612 0.38292 0.72529 0.0
C2814 C 0.27063 0.38383 0.71889 0.0
C2815 C 0.261 0.37013 0.71718 0.0
C2816 C 0.29564 0.39768 0.72872 0.0
C2817 C 0.2987 0.40822 0.71631 0.0
C2818 C 0.30145 0.4015 0.74428 0.0
C2819 C 0.29786 0.39138 0.75809 0.0
C2820 C 0.28203 0.38801 0.76214 0.0
C2821 C 0.27874 0.37836 0.7751 0.0
C2822 C 0.29117 0.37212 0.78417 0.0
C2823 C 0.30694 0.37556 0.78033 0.0
C2824 C 0.3103 0.38518 0.76737 0.0
C2825 C 0.32584 0.4645 0.75603 0.0
C2826 C 0.34004 0.46863 0.74845 0.0
C2827 C 0.31702 0.45101 0.75118 0.0
C2828 C 0.32217 0.44127 0.73867 0.0
C2829 C 0.33611 0.44556 0.73073 0.0
C2830 C 0.34494 0.45921 0.73552 0.0
C2831 C 0.31324 0.42626 0.73466 0.0
C2832 C 0.31033 0.41559 0.74699 0.0
C2833 C 0.30731 0.42254 0.71911 0.0
C2834 C 0.30939 0.43361 0.70573 0.0
C2835 C 0.31672 0.42846 0.69173 0.0
C2836 C 0.31877 0.4389 0.67913 0.0
C2837 C 0.31344 0.4545 0.68037 0.0
C2838 C 0.306 0.45967 0.69418 0.0
C2839 C 0.30391 0.44928 0.70681 0.0
H2840 H 0.31505 0.46256 0.67061 0.0
H2841 H 0.2886 0.36466 0.79419 0.0
H2842 H 0.26659 0.65413 0.7478 0.0
H2843 H 0.28605 0.63332 0.74348 0.0
H2844 H 0.30057 0.63686 0.79305 0.0
H2845 H 0.28148 0.65802 0.79725 0.0
H2846 H 0.32562 0.63318 0.77599 0.0
H2847 H 0.2744 0.60689 0.77768 0.0
H2848 H 0.2464 0.6015 0.76967 0.0
H2849 H 0.26056 0.58989 0.72212 0.0
H2850 H 0.28864 0.59541 0.7298 0.0
H2851 H 0.35228 0.55517 0.79101 0.0
H2852 H 0.3387 0.58049 0.78936 0.0
H2853 H 0.33722 0.57624 0.73811 0.0
H2854 H 0.35112 0.55087 0.73966 0.0
H2855 H 0.30721 0.58127 0.75255 0.0
H2856 H 0.35961 0.60433 0.75334 0.0
H2857 H 0.38721 0.60856 0.76319 0.0
H2858 H 0.37031 0.6249 0.80836 0.0
H2859 H 0.34259 0.62056 0.79887 0.0
C2860 C 0.27396 0.65045 0.75775 0.0
C2861 C 0.27247 0.65759 0.77288 0.0
C2862 C 0.28506 0.63855 0.75529 0.0
C2863 C 0.29462 0.63331 0.768 0.0
C2864 C 0.29336 0.64069 0.78305 0.0
C2865 C 0.28243 0.65276 0.78545 0.0
C2866 C 0.30562 0.61986 0.7658 0.0
C2867 C 0.32155 0.62181 0.77096 0.0
C2868 C 0.30045 0.60508 0.7589 0.0
C2869 C 0.28359 0.60175 0.75426 0.0
C2870 C 0.27152 0.6033 0.76548 0.0
C2871 C 0.25564 0.60021 0.76101 0.0
C2872 C 0.2517 0.5954 0.74539 0.0
C2873 C 0.26363 0.59364 0.73421 0.0
C2874 C 0.27953 0.59675 0.73862 0.0
C2875 C 0.34931 0.55974 0.77937 0.0
C2876 C 0.35271 0.55102 0.76546 0.0
C2877 C 0.34161 0.57424 0.77845 0.0
C2878 C 0.337 0.58023 0.76362 0.0
C2879 C 0.34075 0.5718 0.74966 0.0
C2880 C 0.34873 0.55738 0.75056 0.0
C2881 C 0.32707 0.59456 0.76295 0.0
C2882 C 0.31132 0.59275 0.75732 0.0
C2883 C 0.33234 0.60934 0.76967 0.0
C2884 C 0.349 0.61201 0.77542 0.0
C2885 C 0.36177 0.60871 0.76542 0.0
C2886 C 0.37744 0.61115 0.77093 0.0
C2887 C 0.38051 0.61697 0.7864 0.0
C2888 C 0.36791 0.62039 0.79638 0.0
C2889 C 0.35221 0.61796 0.79093 0.0
H2890 H 0.39265 0.61885 0.79064 0.0
H2891 H 0.2394 0.593 0.74195 0.0
H2892 H 0.89651 0.486 0.46149 0.0
H2893 H 0.87403 0.46813 0.46645 0.0
H2894 H 0.84147 0.50562 0.45566 0.0
H2895 H 0.8641 0.52375 0.4508 0.0
H2896 H 0.83415 0.48946 0.48359 0.0
H2897 H 0.8438 0.47662 0.42946 0.0
H2898 H 0.85977 0.47012 0.40606 0.0
H2899 H 0.87508 0.42722 0.42814 0.0
H2900 H 0.85939 0.43357 0.4518 0.0
H2901 H 0.77394 0.42624 0.49053 0.0
H2902 H 0.78914 0.44935 0.48109 0.0
H2903 H 0.83247 0.42309 0.48561 0.0
H2904 H 0.81755 0.40015 0.49486 0.0
H2905 H 0.82939 0.43656 0.45661 0.0
H2906 H 0.8234 0.45211 0.51226 0.0
H2907 H 0.80794 0.45884 0.53598 0.0
H2908 H 0.78567 0.4967 0.51077 0.0
H2909 H 0.80087 0.49006 0.48682 0.0
C2910 C 0.88457 0.49046 0.46017 0.0
C2911 C 0.88204 0.50627 0.4558 0.0
C2912 C 0.87174 0.48021 0.4629 0.0
C2913 C 0.85609 0.48553 0.46129 0.0
C2914 C 0.85346 0.5013 0.4569 0.0
C2915 C 0.86636 0.51158 0.45403 0.0
C2916 C 0.84269 0.47449 0.46466 0.0
C2917 C 0.83282 0.47803 0.47746 0.0
C2918 C 0.84105 0.45957 0.45671 0.0
C2919 C 0.85045 0.45562 0.44245 0.0
C2920 C 0.85065 0.46585 0.42938 0.0
C2921 C 0.85965 0.46218 0.41606 0.0
C2922 C 0.86845 0.44828 0.41562 0.0
C2923 C 0.86825 0.43799 0.4285 0.0
C2924 C 0.85928 0.4416 0.44186 0.0
C2925 C 0.78672 0.42549 0.48967 0.0
C2926 C 0.79451 0.41131 0.49335 0.0
C2927 C 0.79538 0.43868 0.48427 0.0
C2928 C 0.81192 0.43788 0.48255 0.0
C2929 C 0.8197 0.42391 0.48669 0.0
C2930 C 0.81113 0.41081 0.49204 0.0
C2931 C 0.82136 0.45122 0.476 0.0
C2932 C 0.83045 0.44812 0.46252 0.0
C2933 C 0.82223 0.4665 0.48333 0.0
C2934 C 0.8131 0.47046 0.4977 0.0
C2935 C 0.8151 0.46178 0.51173 0.0
C2936 C 0.80641 0.46559 0.52522 0.0
C2937 C 0.79579 0.47815 0.52486 0.0
C2938 C 0.79387 0.48695 0.51102 0.0
C2939 C 0.80252 0.48317 0.49749 0.0
H2940 H 0.78908 0.48109 0.53532 0.0
H2941 H 0.87541 0.44546 0.4053 0.0
H2942 H 0.73417 0.85802 0.80507 0.0
H2943 H 0.71659 0.88032 0.80083 0.0
H2944 H 0.74854 0.89943 0.76622 0.0
H2945 H 0.76615 0.87683 0.77011 0.0
H2946 H 0.73508 0.92279 0.78838 0.0
H2947 H 0.71902 0.88099 0.7515 0.0
H2948 H 0.71194 0.85338 0.74339 0.0
H2949 H 0.6726 0.85359 0.77511 0.0
H2950 H 0.6796 0.88113 0.7836 0.0
H2951 H 0.67241 0.97265 0.7576 0.0
H2952 H 0.69547 0.95562 0.76148 0.0
H2953 H 0.6673 0.92429 0.79028 0.0
H2954 H 0.64426 0.94089 0.78608 0.0
H2955 H 0.68099 0.90812 0.76766 0.0
H2956 H 0.69778 0.949 0.80598 0.0
H2957 H 0.70497 0.97636 0.8149 0.0
H2958 H 0.7426 0.97796 0.78119 0.0
H2959 H 0.73549 0.95067 0.77193 0.0
C2960 C 0.73747 0.86692 0.79652 0.0
C2961 C 0.75142 0.86552 0.78773 0.0
C2962 C 0.72748 0.87971 0.79421 0.0
C2963 C 0.73123 0.89138 0.78312 0.0
C2964 C 0.7455 0.8905 0.77485 0.0
C2965 C 0.75551 0.87761 0.7771 0.0
C2966 C 0.71959 0.90379 0.77953 0.0
C2967 C 0.72332 0.9197 0.7836 0.0
C2968 C 0.70425 0.89962 0.77346 0.0
C2969 C 0.69992 0.88309 0.76828 0.0
C2970 C 0.70894 0.87511 0.75684 0.0
C2971 C 0.70493 0.85948 0.75216 0.0
C2972 C 0.69185 0.85173 0.75875 0.0
C2973 C 0.68274 0.85961 0.77002 0.0
C2974 C 0.68671 0.87524 0.77476 0.0
C2975 C 0.67126 0.96228 0.76499 0.0
C2976 C 0.65652 0.95798 0.7714 0.0
C2977 C 0.68444 0.95258 0.76722 0.0
C2978 C 0.68308 0.93865 0.77612 0.0
C2979 C 0.66858 0.93489 0.78323 0.0
C2980 C 0.65543 0.94441 0.78084 0.0
C2981 C 0.69618 0.92716 0.77707 0.0
C2982 C 0.69276 0.91135 0.77234 0.0
C2983 C 0.71173 0.93147 0.78258 0.0
C2984 C 0.71598 0.94787 0.78813 0.0
C2985 C 0.70749 0.95524 0.80037 0.0
C2986 C 0.71158 0.97073 0.80551 0.0
C2987 C 0.7242 0.97891 0.79858 0.0
C2988 C 0.7328 0.97162 0.78653 0.0
C2989 C 0.72876 0.95614 0.78134 0.0
H2990 H 0.72734 0.9909 0.80258 0.0
H2991 H 0.68876 0.83962 0.75511 0.0
H2992 H 0.63486 0.49905 0.95311 0.0
H2993 H 0.65726 0.51649 0.96103 0.0
H2994 H 0.62585 0.54655 0.98742 0.0
H2995 H 0.60319 0.52938 0.97908 0.0
H2996 H 0.64698 0.56387 0.97055 0.0
H2997 H 0.64915 0.52142 0.00717 0.0
H2998 H 0.64912 0.49354 0.01575 0.0
H2999 H 0.69182 0.48545 0.98999 0.0
H3000 H 0.69198 0.51323 0.98104 0.0
H3001 H 0.71552 0.60466 0.00508 0.0
H3002 H 0.69054 0.58916 0.00326 0.0
H3003 H 0.71286 0.55428 0.97335 0.0
H3004 H 0.73778 0.56955 0.97513 0.0
H3005 H 0.69461 0.54059 0.99624 0.0
H3006 H 0.69009 0.58219 0.9571 0.0
H3007 H 0.68994 0.61007 0.94846 0.0
H3008 H 0.6514 0.61975 0.97966 0.0
H3009 H 0.65148 0.59195 0.98863 0.0
C3010 C 0.63265 0.5095 0.9604 0.0
C3011 C 0.61725 0.51283 0.96548 0.0
C3012 C 0.6455 0.51934 0.96508 0.0
C3013 C 0.64324 0.53264 0.97504 0.0
C3014 C 0.62784 0.53627 0.97983 0.0
C3015 C 0.61495 0.5264 0.97513 0.0
C3016 C 0.65705 0.54271 0.98033 0.0
C3017 C 0.65728 0.55887 0.97646 0.0
C3018 C 0.67051 0.53612 0.98793 0.0
C3019 C 0.67051 0.5194 0.99334 0.0
C3020 C 0.65847 0.51367 0.00323 0.0
C3021 C 0.65844 0.49788 0.00818 0.0
C3022 C 0.67044 0.48772 0.00339 0.0
C3023 C 0.68252 0.49333 0.99368 0.0
C3024 C 0.6826 0.50911 0.98868 0.0
C3025 C 0.71512 0.59364 0.9982 0.0
C3026 C 0.7286 0.58838 0.99016 0.0
C3027 C 0.70085 0.58483 0.99715 0.0
C3028 C 0.69986 0.57066 0.98807 0.0
C3029 C 0.7134 0.56519 0.98042 0.0
C3030 C 0.72761 0.57398 0.9814 0.0
C3031 C 0.68469 0.56161 0.98604 0.0
C3032 C 0.6842 0.54564 0.99057 0.0
C3033 C 0.67099 0.56839 0.97911 0.0
C3034 C 0.67092 0.58507 0.97368 0.0
C3035 C 0.68168 0.59031 0.96221 0.0
C3036 C 0.68159 0.60608 0.95724 0.0
C3037 C 0.6707 0.61669 0.96355 0.0
C3038 C 0.65985 0.61153 0.97481 0.0
C3039 C 0.65991 0.59577 0.97984 0.0
H3040 H 0.67065 0.6289 0.95968 0.0
H3041 H 0.6704 0.4755 0.00724 0.0
H3042 H 0.21376 0.66261 0.23584 0.0
H3043 H 0.19506 0.64057 0.23969 0.0
H3044 H 0.2275 0.60825 0.21761 0.0
H3045 H 0.24589 0.63042 0.21285 0.0
H3046 H 0.19824 0.60101 0.20814 0.0
H3047 H 0.22432 0.61136 0.25859 0.0
H3048 H 0.23375 0.6276 0.28178 0.0
H3049 H 0.18558 0.63875 0.29274 0.0
H3050 H 0.17587 0.62275 0.26948 0.0
H3051 H 0.16728 0.52937 0.24154 0.0
H3052 H 0.18404 0.5521 0.23427 0.0
H3053 H 0.14817 0.58422 0.25032 0.0
H3054 H 0.13127 0.56157 0.25755 0.0
H3055 H 0.17868 0.59157 0.26254 0.0
H3056 H 0.15303 0.57966 0.21188 0.0
H3057 H 0.14455 0.56243 0.18907 0.0
H3058 H 0.19332 0.55288 0.17911 0.0
H3059 H 0.20209 0.56988 0.20201 0.0
C3060 C 0.21683 0.65088 0.23153 0.0
C3061 C 0.23141 0.64831 0.2241 0.0
C3062 C 0.20619 0.63824 0.23393 0.0
C3063 C 0.21 0.6227 0.22921 0.0
C3064 C 0.22435 0.62013 0.22144 0.0
C3065 C 0.23493 0.6328 0.21889 0.0
C3066 C 0.19917 0.6091 0.23265 0.0
C3067 C 0.19412 0.59885 0.22007 0.0
C3068 C 0.19358 0.60639 0.24817 0.0
C3069 C 0.19938 0.61599 0.2622 0.0
C3070 C 0.21574 0.61737 0.26588 0.0
C3071 C 0.22114 0.62652 0.27904 0.0
C3072 C 0.21027 0.63424 0.2887 0.0
C3073 C 0.19398 0.63279 0.28523 0.0
C3074 C 0.18852 0.62367 0.27207 0.0
C3075 C 0.1629 0.54126 0.24343 0.0
C3076 C 0.14795 0.54368 0.25014 0.0
C3077 C 0.17247 0.55423 0.23921 0.0
C3078 C 0.16729 0.56981 0.2417 0.0
C3079 C 0.15234 0.57227 0.24829 0.0
C3080 C 0.1427 0.55931 0.25237 0.0
C3081 C 0.17775 0.58357 0.23804 0.0
C3082 C 0.18277 0.5938 0.25061 0.0
C3083 C 0.18346 0.58612 0.22257 0.0
C3084 C 0.17821 0.57592 0.20876 0.0
C3085 C 0.16194 0.57378 0.20491 0.0
C3086 C 0.15709 0.56407 0.19195 0.0
C3087 C 0.16839 0.55653 0.18267 0.0
C3088 C 0.18457 0.55871 0.18632 0.0
C3089 C 0.1895 0.5684 0.19928 0.0
H3090 H 0.1646 0.54902 0.17263 0.0
H3091 H 0.21447 0.64131 0.29889 0.0
H3092 H 0.89929 0.5151 0.04099 0.0
H3093 H 0.88252 0.53815 0.03833 0.0
H3094 H 0.85373 0.52172 0.07687 0.0
H3095 H 0.86999 0.49802 0.07901 0.0
H3096 H 0.83542 0.53114 0.05388 0.0
H3097 H 0.87952 0.55457 0.08169 0.0
H3098 H 0.90767 0.56082 0.08827 0.0
H3099 H 0.91285 0.5836 0.04328 0.0
H3100 H 0.88479 0.57728 0.0363 0.0
H3101 H 0.79226 0.6014 0.04009 0.0
H3102 H 0.81063 0.58556 0.0561 0.0
H3103 H 0.84247 0.58303 0.01661 0.0
H3104 H 0.82414 0.59856 0.00055 0.0
H3105 H 0.85814 0.58553 0.0475 0.0
H3106 H 0.81556 0.55537 0.01855 0.0
H3107 H 0.78725 0.54927 0.01243 0.0
H3108 H 0.7794 0.53969 0.06172 0.0
H3109 H 0.80765 0.54596 0.06815 0.0
C3110 C 0.88928 0.51624 0.0488 0.0
C3111 C 0.88595 0.50461 0.06015 0.0
C3112 C 0.87987 0.52962 0.04746 0.0
C3113 C 0.86706 0.53188 0.05764 0.0
C3114 C 0.86365 0.52031 0.06899 0.0
C3115 C 0.87301 0.50681 0.07025 0.0
C3116 C 0.85673 0.54583 0.05559 0.0
C3117 C 0.84036 0.5431 0.05296 0.0
C3118 C 0.86312 0.56147 0.05432 0.0
C3119 C 0.88003 0.56537 0.05844 0.0
C3120 C 0.88668 0.56082 0.07314 0.0
C3121 C 0.90263 0.56439 0.07695 0.0
C3122 C 0.91205 0.57259 0.06619 0.0
C3123 C 0.90553 0.57726 0.05161 0.0
C3124 C 0.88959 0.5737 0.04773 0.0
C3125 C 0.80341 0.59787 0.03502 0.0
C3126 C 0.80674 0.60102 0.01904 0.0
C3127 C 0.81385 0.58882 0.04415 0.0
C3128 C 0.8278 0.58304 0.03745 0.0
C3129 C 0.83177 0.58741 0.02199 0.0
C3130 C 0.82126 0.5962 0.0128 0.0
C3131 C 0.83712 0.57062 0.04537 0.0
C3132 C 0.85324 0.57364 0.04902 0.0
C3133 C 0.83051 0.55527 0.04776 0.0
C3134 C 0.81362 0.55132 0.04385 0.0
C3135 C 0.80776 0.55208 0.02809 0.0
C3136 C 0.79174 0.54858 0.02456 0.0
C3137 C 0.78152 0.54415 0.03668 0.0
C3138 C 0.78732 0.54316 0.05235 0.0
C3139 C 0.80333 0.54668 0.05594 0.0
H3140 H 0.76912 0.54144 0.03393 0.0
H3141 H 0.92439 0.57534 0.06916 0.0
H3142 H 0.12105 0.99587 0.04788 0.0
H3143 H 0.14272 0.97749 0.04382 0.0
H3144 H 0.11766 0.95687 0.00286 0.0
H3145 H 0.09551 0.97456 0.0074 0.0
H3146 H 0.13018 0.93424 0.01935 0.0
H3147 H 0.1497 0.98398 -0.00028 0.0
H3148 H 0.15648 0.01266 0.00083 0.0
H3149 H 0.18925 0.0052 0.03977 0.0
H3150 H 0.1825 0.9765 0.03902 0.0
H3151 H 0.19578 0.897 0.98282 0.0
H3152 H 0.17366 0.91434 0.98895 0.0
H3153 H 0.19724 0.92907 0.03303 0.0
H3154 H 0.21943 0.91171 0.02702 0.0
H3155 H 0.18577 0.95444 0.01572 0.0
H3156 H 0.16642 0.90405 0.0342 0.0
H3157 H 0.15975 0.8754 0.03195 0.0
H3158 H 0.12672 0.88427 0.9936 0.0
H3159 H 0.13336 0.91297 0.99547 0.0
C3160 C 0.12001 0.9873 0.03813 0.0
C3161 C 0.10649 0.98679 0.02794 0.0
C3162 C 0.13254 0.97691 0.03569 0.0
C3163 C 0.13198 0.96595 0.02286 0.0
C3164 C 0.11844 0.96527 0.0128 0.0
C3165 C 0.10583 0.97554 0.01531 0.0
C3166 C 0.14546 0.95514 0.01994 0.0
C3167 C 0.1423 0.93871 0.01836 0.0
C3168 C 0.16137 0.96087 0.01896 0.0
C3169 C 0.16547 0.97812 0.01942 0.0
C3170 C 0.15826 0.98848 0.0086 0.0
C3171 C 0.16211 0.00473 0.00915 0.0
C3172 C 0.17325 0.01075 0.02039 0.0
C3173 C 0.1806 0.00052 0.03108 0.0
C3174 C 0.17677 0.98426 0.03059 0.0
C3175 C 0.19625 0.90387 0.99386 0.0
C3176 C 0.20938 0.90295 0.00444 0.0
C3177 C 0.18357 0.91374 0.99736 0.0
C3178 C 0.18376 0.92292 0.0115 0.0
C3179 C 0.19685 0.92207 0.02207 0.0
C3180 C 0.20949 0.9121 0.01864 0.0
C3181 C 0.17043 0.93363 0.01507 0.0
C3182 C 0.17364 0.95002 0.01676 0.0
C3183 C 0.15456 0.92789 0.01598 0.0
C3184 C 0.1505 0.91064 0.01488 0.0
C3185 C 0.15783 0.89988 0.0252 0.0
C3186 C 0.15403 0.88363 0.02401 0.0
C3187 C 0.14284 0.87801 0.01261 0.0
C3188 C 0.1354 0.88864 0.00241 0.0
C3189 C 0.13916 0.9049 0.00354 0.0
H3190 H 0.13992 0.86543 0.01171 0.0
H3191 H 0.17622 0.02334 0.0208 0.0
loop_
_geom_bond_atom_site_label_1
_geom_bond_atom_site_label_2
_geom_bond_distance
_geom_bond_site_symmetry_2
_ccdc_geom_bond_type
C0 C1 1.386 1_556 S
C0 C2 1.397 1_556 S
C0 H24 0.931 . S
C1 C0 1.386 1_554 S
C1 C5 1.397 . S
C2 C0 1.397 1_554 S
C2 C3 1.384 . S
C2 H25 0.930 . S
C3 C2 1.384 . S
C3 C4 1.377 . S
C3 C6 1.481 . S
C4 C3 1.377 . S
C4 C5 1.389 . S
C4 H26 0.929 . S
C5 C1 1.397 . S
C5 C4 1.389 . S
C5 H27 0.931 . S
C6 C3 1.481 . S
C6 C7 1.387 . S
C6 C11 1.390 . S
C7 C6 1.387 . S
C7 C8 1.401 . S
C7 H28 0.930 . S
C8 C7 1.401 . S
C8 C9 1.376 . S
C8 C17 1.511 . S
C9 C8 1.376 . S
C9 C10 1.392 . S
C9 H30 0.931 . S
C10 C9 1.392 . S
C10 C11 1.361 . S
C10 C12 1.500 . S
C11 C6 1.390 . S
C11 C10 1.361 . S
C11 H29 0.931 . S
C12 C10 1.500 . S
C12 C13 1.371 . S
C12 C14 1.365 . S
C13 C12 1.371 . S
C13 C23 1.386 . S
C13 H31 0.931 . S
C14 C12 1.365 . S
C14 C15 1.409 . S
C14 H32 0.929 . S
C15 C14 1.409 . S
C15 C16 1.380 . S
C15 H33 0.916 1_455 S
C16 C15 1.380 . S
C16 C23 1.357 . S
C17 C8 1.511 . S
C17 C18 1.341 . S
C17 C19 1.371 . S
C18 C17 1.341 . S
C18 C22 1.394 . S
C18 H34 0.930 . S
C19 C17 1.371 . S
C19 C20 1.392 . S
C19 H35 0.931 . S
C20 C19 1.392 . S
C20 C21 1.333 . S
C20 H38 0.932 1_545 S
C21 C20 1.333 . S
C21 C22 1.371 . S
C22 C18 1.394 . S
C22 C21 1.371 . S
C22 H37 0.929 . S
C23 C13 1.386 . S
C23 C16 1.357 . S
C23 H36 0.928 . S
H24 C0 0.931 . S
H25 C2 0.930 . S
H26 C4 0.929 . S
H27 C5 0.931 . S
H28 C7 0.930 . S
H29 C11 0.931 . S
H30 C9 0.931 . S
H31 C13 0.931 . S
H32 C14 0.929 . S
H33 C15 0.916 1_655 S
H34 C18 0.930 . S
H35 C19 0.931 . S
H36 C23 0.928 . S
H37 C22 0.929 . S
H38 C20 0.932 1_565 S
C39 C40 1.386 . S
C39 C41 1.397 . S
C39 H63 0.931 . S
C40 C39 1.386 . S
C40 C44 1.397 . S
C41 C39 1.397 . S
C41 C42 1.384 . S
C41 H64 0.930 . S
C42 C41 1.384 . S
C42 C43 1.377 . S
C42 C45 1.481 . S
C43 C42 1.377 . S
C43 C44 1.389 . S
C43 H65 0.929 . S
C44 C40 1.397 . S
C44 C43 1.389 . S
C44 H66 0.931 . S
C45 C42 1.481 . S
C45 C46 1.387 . S
C45 C50 1.390 . S
C46 C45 1.387 . S
C46 C47 1.401 . S
C46 H67 0.930 . S
C47 C46 1.401 . S
C47 C48 1.376 . S
C47 C56 1.511 . S
C48 C47 1.376 . S
C48 C49 1.392 . S
C48 H69 0.931 . S
C49 C48 1.392 . S
C49 C50 1.361 . S
C49 C51 1.500 . S
C50 C45 1.390 . S
C50 C49 1.361 . S
C50 H68 0.931 . S
C51 C49 1.500 . S
C51 C52 1.371 . S
C51 C53 1.365 . S
C52 C51 1.371 . S
C52 C62 1.386 . S
C52 H70 0.931 . S
C53 C51 1.365 . S
C53 C54 1.409 . S
C53 H71 0.929 . S
C54 C53 1.409 . S
C54 C55 1.380 . S
C54 H72 0.930 . S
C55 C54 1.380 . S
C55 C62 1.357 . S
C56 C47 1.511 . S
C56 C57 1.341 . S
C56 C58 1.371 . S
C57 C56 1.341 . S
C57 C61 1.394 . S
C57 H73 0.930 . S
C58 C56 1.371 . S
C58 C59 1.392 . S
C58 H74 0.931 . S
C59 C58 1.392 . S
C59 C60 1.331 . S
C59 H77 0.932 . S
C60 C59 1.331 . S
C60 C61 1.336 . S
C61 C57 1.394 . S
C61 C60 1.336 . S
C61 H76 0.929 . S
C62 C52 1.386 . S
C62 C55 1.357 . S
C62 H75 0.928 . S
H63 C39 0.931 . S
H64 C41 0.930 . S
H65 C43 0.929 . S
H66 C44 0.931 . S
H67 C46 0.930 . S
H68 C50 0.931 . S
H69 C48 0.931 . S
H70 C52 0.931 . S
H71 C53 0.929 . S
H72 C54 0.930 . S
H73 C57 0.930 . S
H74 C58 0.931 . S
H75 C62 0.928 . S
H76 C61 0.929 . S
H77 C59 0.932 . S
C78 C79 1.386 . S
C78 C80 1.397 . S
C78 H102 0.931 . S
C79 C78 1.386 . S
C79 C83 1.397 . S
C80 C78 1.397 . S
C80 C81 1.384 . S
C80 H103 0.930 . S
C81 C80 1.384 . S
C81 C82 1.377 . S
C81 C84 1.481 . S
C82 C81 1.377 . S
C82 C83 1.389 . S
C82 H104 0.929 . S
C83 C79 1.397 . S
C83 C82 1.389 . S
C83 H105 0.931 1_655 S
C84 C81 1.481 . S
C84 C85 1.387 . S
C84 C89 1.390 . S
C85 C84 1.387 . S
C85 C86 1.401 . S
C85 H106 0.930 . S
C86 C85 1.401 . S
C86 C87 1.376 . S
C86 C95 1.511 . S
C87 C86 1.376 . S
C87 C88 1.392 . S
C87 H108 0.931 . S
C88 C87 1.392 . S
C88 C89 1.361 . S
C88 C90 1.500 . S
C89 C84 1.390 . S
C89 C88 1.361 . S
C89 H107 0.931 . S
C90 C88 1.500 . S
C90 C91 1.371 . S
C90 C92 1.365 . S
C91 C90 1.371 . S
C91 C101 1.386 . S
C91 H109 0.931 . S
C92 C90 1.365 . S
C92 C93 1.409 . S
C92 H110 0.929 . S
C93 C92 1.409 . S
C93 C94 1.380 . S
C93 H111 0.930 . S
C94 C93 1.380 . S
C94 C101 1.357 . S
C95 C86 1.511 . S
C95 C96 1.341 . S
C95 C97 1.371 . S
C96 C95 1.341 . S
C96 C100 1.394 . S
C96 H112 0.930 . S
C97 C95 1.371 . S
C97 C98 1.392 . S
C97 H113 0.931 . S
C98 C97 1.392 . S
C98 C99 1.331 . S
C98 H116 0.932 . S
C99 C98 1.331 . S
C99 C100 1.336 . S
C100 C96 1.394 . S
C100 C99 1.336 . S
C100 H115 0.929 . S
C101 C91 1.386 . S
C101 C94 1.357 . S
C101 H114 0.928 . S
H102 C78 0.931 . S
H103 C80 0.930 . S
H104 C82 0.929 . S
H105 C83 0.931 1_455 S
H106 C85 0.930 . S
H107 C89 0.931 . S
H108 C87 0.931 . S
H109 C91 0.931 . S
H110 C92 0.929 . S
H111 C93 0.930 . S
H112 C96 0.930 . S
H113 C97 0.931 . S
H114 C101 0.928 . S
H115 C100 0.929 . S
H116 C98 0.932 . S
C117 C118 1.386 . S
C117 C119 1.397 . S
C117 H141 0.931 . S
C118 C117 1.386 . S
C118 C122 1.397 . S
C119 C117 1.397 . S
C119 C120 1.384 . S
C119 H142 0.930 . S
C120 C119 1.384 . S
C120 C121 1.377 . S
C120 C123 1.481 . S
C121 C120 1.377 . S
C121 C122 1.389 . S
C121 H143 0.929 . S
C122 C118 1.397 . S
C122 C121 1.389 . S
C122 H144 0.931 . S
C123 C120 1.481 . S
C123 C124 1.387 . S
C123 C128 1.390 . S
C124 C123 1.387 . S
C124 C125 1.401 . S
C124 H145 0.930 . S
C125 C124 1.401 . S
C125 C126 1.376 . S
C125 C134 1.511 . S
C126 C125 1.376 . S
C126 C127 1.392 . S
C126 H147 0.931 . S
C127 C126 1.392 . S
C127 C128 1.361 . S
C127 C129 1.500 . S
C128 C123 1.390 . S
C128 C127 1.361 . S
C128 H146 0.931 . S
C129 C127 1.500 . S
C129 C130 1.371 . S
C129 C131 1.365 . S
C130 C129 1.371 . S
C130 C140 1.386 . S
C130 H148 0.931 . S
C131 C129 1.365 . S
C131 C132 1.409 . S
C131 H149 0.929 . S
C132 C131 1.409 . S
C132 C133 1.380 . S
C132 H150 0.930 . S
C133 C132 1.380 . S
C133 C140 1.357 . S
C134 C125 1.511 . S
C134 C135 1.341 . S
C134 C136 1.371 . S
C135 C134 1.341 . S
C135 C139 1.394 . S
C135 H151 0.930 . S
C136 C134 1.371 . S
C136 C137 1.392 . S
C136 H152 0.931 . S
C137 C136 1.392 . S
C137 C138 1.331 . S
C137 H155 0.932 . S
C138 C137 1.331 . S
C138 C139 1.336 . S
C139 C135 1.394 . S
C139 C138 1.336 . S
C139 H154 0.929 . S
C140 C130 1.386 . S
C140 C133 1.357 . S
C140 H153 0.928 . S
H141 C117 0.931 . S
H142 C119 0.930 . S
H143 C121 0.929 . S
H144 C122 0.931 . S
H145 C124 0.930 . S
H146 C128 0.931 . S
H147 C126 0.931 . S
H148 C130 0.931 . S
H149 C131 0.929 . S
H150 C132 0.930 . S
H151 C135 0.930 . S
H152 C136 0.931 . S
H153 C140 0.928 . S
H154 C139 0.929 . S
H155 C137 0.932 . S
C156 C157 1.386 . S
C156 C158 1.397 . S
C156 H180 0.931 1_455 S
C157 C156 1.386 . S
C157 C161 1.397 . S
C158 C156 1.397 . S
C158 C159 1.384 . S
C158 H181 0.930 . S
C159 C158 1.384 . S
C159 C160 1.377 . S
C159 C162 1.481 . S
C160 C159 1.377 . S
C160 C161 1.389 . S
C160 H182 0.929 . S
C161 C157 1.397 . S
C161 C160 1.389 . S
C161 H183 0.931 . S
C162 C159 1.481 . S
C162 C163 1.387 . S
C162 C167 1.390 . S
C163 C162 1.387 . S
C163 C164 1.401 . S
C163 H184 0.930 . S
C164 C163 1.401 . S
C164 C165 1.376 . S
C164 C173 1.511 . S
C165 C164 1.376 . S
C165 C166 1.392 . S
C165 H186 0.931 . S
C166 C165 1.392 . S
C166 C167 1.361 . S
C166 C168 1.500 . S
C167 C162 1.390 . S
C167 C166 1.361 . S
C167 H185 0.931 . S
C168 C166 1.500 . S
C168 C169 1.371 . S
C168 C170 1.365 . S
C169 C168 1.371 . S
C169 C179 1.386 . S
C169 H187 0.931 . S
C170 C168 1.365 . S
C170 C171 1.409 . S
C170 H188 0.929 . S
C171 C170 1.409 . S
C171 C172 1.380 . S
C171 H189 0.930 . S
C172 C171 1.380 . S
C172 C179 1.357 . S
C173 C164 1.511 . S
C173 C174 1.341 . S
C173 C175 1.371 . S
C174 C173 1.341 . S
C174 C178 1.394 . S
C174 H190 0.930 . S
C175 C173 1.371 . S
C175 C176 1.392 . S
C175 H191 0.931 . S
C176 C175 1.392 . S
C176 C177 1.331 . S
C176 H194 0.932 . S
C177 C176 1.331 . S
C177 C178 1.336 . S
C178 C174 1.394 . S
C178 C177 1.336 . S
C178 H193 0.929 . S
C179 C169 1.386 . S
C179 C172 1.357 . S
C179 H192 0.928 . S
H180 C156 0.931 1_655 S
H181 C158 0.930 . S
H182 C160 0.929 . S
H183 C161 0.931 . S
H184 C163 0.930 . S
H185 C167 0.931 . S
H186 C165 0.931 . S
H187 C169 0.931 . S
H188 C170 0.929 . S
H189 C171 0.930 . S
H190 C174 0.930 . S
H191 C175 0.931 . S
H192 C179 0.928 . S
H193 C178 0.929 . S
H194 C176 0.932 . S
C195 C196 1.386 . S
C195 C197 1.397 . S
C195 H219 0.931 . S
C196 C195 1.386 . S
C196 C200 1.397 . S
C197 C195 1.397 . S
C197 C198 1.384 . S
C197 H220 0.930 . S
C198 C197 1.384 . S
C198 C199 1.377 . S
C198 C201 1.481 . S
C199 C198 1.377 . S
C199 C200 1.389 . S
C199 H221 0.929 . S
C200 C196 1.397 . S
C200 C199 1.389 . S
C200 H222 0.931 . S
C201 C198 1.481 . S
C201 C202 1.387 . S
C201 C206 1.390 . S
C202 C201 1.387 . S
C202 C203 1.401 . S
C202 H223 0.930 . S
C203 C202 1.401 . S
C203 C204 1.376 . S
C203 C212 1.511 . S
C204 C203 1.376 . S
C204 C205 1.392 . S
C204 H225 0.931 . S
C205 C204 1.392 . S
C205 C206 1.361 . S
C205 C207 1.500 . S
C206 C201 1.390 . S
C206 C205 1.361 . S
C206 H224 0.931 . S
C207 C205 1.500 . S
C207 C208 1.371 . S
C207 C209 1.365 . S
C208 C207 1.371 . S
C208 C218 1.386 . S
C208 H226 0.931 . S
C209 C207 1.365 . S
C209 C210 1.409 . S
C209 H227 0.929 . S
C210 C209 1.409 . S
C210 C211 1.380 . S
C210 H228 0.930 . S
C211 C210 1.380 . S
C211 C218 1.357 . S
C212 C203 1.511 . S
C212 C213 1.341 . S
C212 C214 1.371 . S
C213 C212 1.341 . S
C213 C217 1.394 . S
C213 H229 0.930 . S
C214 C212 1.371 . S
C214 C215 1.392 . S
C214 H230 0.931 . S
C215 C214 1.392 . S
C215 C216 1.331 . S
C215 H233 0.932 . S
C216 C215 1.331 . S
C216 C217 1.336 . S
C217 C213 1.394 . S
C217 C216 1.336 . S
C217 H232 0.929 . S
C218 C208 1.386 . S
C218 C211 1.357 . S
C218 H231 0.928 . S
H219 C195 0.931 . S
H220 C197 0.930 . S
H221 C199 0.929 . S
H222 C200 0.931 . S
H223 C202 0.930 . S
H224 C206 0.931 . S
H225 C204 0.931 . S
H226 C208 0.931 . S
H227 C209 0.929 . S
H228 C210 0.930 . S
H229 C213 0.930 . S
H230 C214 0.931 . S
H231 C218 0.928 . S
H232 C217 0.929 . S
H233 C215 0.932 . S
C234 C235 1.386 . S
C234 C236 1.397 . S
C234 H258 0.931 . S
C235 C234 1.386 . S
C235 C239 1.397 . S
C236 C234 1.397 . S
C236 C237 1.384 . S
C236 H259 0.930 . S
C237 C236 1.384 . S
C237 C238 1.377 . S
C237 C240 1.481 . S
C238 C237 1.377 . S
C238 C239 1.389 . S
C238 H260 0.929 . S
C239 C235 1.397 . S
C239 C238 1.389 . S
C239 H261 0.931 . S
C240 C237 1.481 . S
C240 C241 1.387 . S
C240 C245 1.390 . S
C241 C240 1.387 . S
C241 C242 1.401 . S
C241 H262 0.930 . S
C242 C241 1.401 . S
C242 C243 1.376 . S
C242 C251 1.511 . S
C243 C242 1.376 . S
C243 C244 1.392 . S
C243 H264 0.931 . S
C244 C243 1.392 . S
C244 C245 1.361 . S
C244 C246 1.500 . S
C245 C240 1.390 . S
C245 C244 1.361 . S
C245 H263 0.931 . S
C246 C244 1.500 . S
C246 C247 1.371 . S
C246 C248 1.365 . S
C247 C246 1.371 . S
C247 C257 1.386 . S
C247 H265 0.931 . S
C248 C246 1.365 . S
C248 C249 1.409 . S
C248 H266 0.929 . S
C249 C248 1.409 . S
C249 C250 1.380 . S
C249 H267 0.930 . S
C250 C249 1.380 . S
C250 C257 1.357 . S
C251 C242 1.511 . S
C251 C252 1.341 . S
C251 C253 1.371 . S
C252 C251 1.341 . S
C252 C256 1.394 . S
C252 H268 0.930 . S
C253 C251 1.371 . S
C253 C254 1.392 . S
C253 H269 0.931 . S
C254 C253 1.392 . S
C254 C255 1.351 . S
C254 H272 0.932 . S
C255 C254 1.351 . S
C255 C256 1.339 . S
C256 C252 1.394 . S
C256 C255 1.339 . S
C256 H271 0.929 1_655 S
C257 C247 1.386 . S
C257 C250 1.357 . S
C257 H270 0.928 . S
H258 C234 0.931 . S
H259 C236 0.930 . S
H260 C238 0.929 . S
H261 C239 0.931 . S
H262 C241 0.930 . S
H263 C245 0.931 . S
H264 C243 0.931 . S
H265 C247 0.931 . S
H266 C248 0.929 . S
H267 C249 0.930 . S
H268 C252 0.930 . S
H269 C253 0.931 . S
H270 C257 0.928 . S
H271 C256 0.929 1_455 S
H272 C254 0.932 . S
C273 C274 1.386 . S
C273 C275 1.397 . S
C273 H297 0.931 . S
C274 C273 1.386 . S
C274 C278 1.397 . S
C275 C273 1.397 . S
C275 C276 1.384 . S
C275 H298 0.930 . S
C276 C275 1.384 . S
C276 C277 1.377 . S
C276 C279 1.481 . S
C277 C276 1.377 . S
C277 C278 1.389 . S
C277 H299 0.929 . S
C278 C274 1.397 . S
C278 C277 1.389 . S
C278 H300 0.931 . S
C279 C276 1.481 . S
C279 C280 1.387 . S
C279 C284 1.390 . S
C280 C279 1.387 . S
C280 C281 1.401 . S
C280 H301 0.930 . S
C281 C280 1.401 . S
C281 C282 1.376 . S
C281 C290 1.511 . S
C282 C281 1.376 . S
C282 C283 1.392 . S
C282 H303 0.931 . S
C283 C282 1.392 . S
C283 C284 1.361 . S
C283 C285 1.500 . S
C284 C279 1.390 . S
C284 C283 1.361 . S
C284 H302 0.931 . S
C285 C283 1.500 . S
C285 C286 1.371 . S
C285 C287 1.365 . S
C286 C285 1.371 . S
C286 C296 1.386 . S
C286 H304 0.931 . S
C287 C285 1.365 . S
C287 C288 1.409 . S
C287 H305 0.929 . S
C288 C287 1.409 . S
C288 C289 1.380 . S
C288 H306 0.930 . S
C289 C288 1.380 . S
C289 C296 1.357 . S
C290 C281 1.511 . S
C290 C291 1.341 . S
C290 C292 1.371 . S
C291 C290 1.341 . S
C291 C295 1.394 . S
C291 H307 0.930 . S
C292 C290 1.371 . S
C292 C293 1.392 . S
C292 H308 0.931 . S
C293 C292 1.392 . S
C293 C294 1.331 . S
C293 H311 0.932 . S
C294 C293 1.331 . S
C294 C295 1.336 . S
C295 C291 1.394 . S
C295 C294 1.336 . S
C295 H310 0.929 . S
C296 C286 1.386 . S
C296 C289 1.357 . S
C296 H309 0.928 . S
H297 C273 0.931 . S
H298 C275 0.930 . S
H299 C277 0.929 . S
H300 C278 0.931 . S
H301 C280 0.930 . S
H302 C284 0.931 . S
H303 C282 0.931 . S
H304 C286 0.931 . S
H305 C287 0.929 . S
H306 C288 0.930 . S
H307 C291 0.930 . S
H308 C292 0.931 . S
H309 C296 0.928 . S
H310 C295 0.929 . S
H311 C293 0.932 . S
C312 C313 1.386 . S
C312 C314 1.397 . S
C312 H336 0.931 . S
C313 C312 1.386 . S
C313 C317 1.397 . S
C314 C312 1.397 . S
C314 C315 1.384 . S
C314 H337 0.930 . S
C315 C314 1.384 . S
C315 C316 1.377 . S
C315 C318 1.481 . S
C316 C315 1.377 . S
C316 C317 1.389 . S
C316 H338 0.929 . S
C317 C313 1.397 . S
C317 C316 1.389 . S
C317 H339 0.931 . S
C318 C315 1.481 . S
C318 C319 1.387 . S
C318 C323 1.390 . S
C319 C318 1.387 . S
C319 C320 1.401 . S
C319 H340 0.930 . S
C320 C319 1.401 . S
C320 C321 1.376 . S
C320 C329 1.511 . S
C321 C320 1.376 . S
C321 C322 1.392 . S
C321 H342 0.931 . S
C322 C321 1.392 . S
C322 C323 1.361 . S
C322 C324 1.500 . S
C323 C318 1.390 . S
C323 C322 1.361 . S
C323 H341 0.931 . S
C324 C322 1.500 . S
C324 C325 1.371 . S
C324 C326 1.365 . S
C325 C324 1.371 . S
C325 C335 1.386 . S
C325 H343 0.931 . S
C326 C324 1.365 . S
C326 C327 1.409 . S
C326 H344 0.929 . S
C327 C326 1.409 . S
C327 C328 1.380 . S
C327 H345 0.930 . S
C328 C327 1.380 . S
C328 C335 1.357 . S
C329 C320 1.511 . S
C329 C330 1.341 . S
C329 C331 1.371 . S
C330 C329 1.341 . S
C330 C334 1.394 . S
C330 H346 0.930 . S
C331 C329 1.371 . S
C331 C332 1.392 . S
C331 H347 0.931 . S
C332 C331 1.392 . S
C332 C333 1.331 . S
C332 H350 0.932 . S
C333 C332 1.331 . S
C333 C334 1.336 . S
C334 C330 1.394 . S
C334 C333 1.336 . S
C334 H349 0.929 . S
C335 C325 1.386 . S
C335 C328 1.357 . S
C335 H348 0.928 . S
H336 C312 0.931 . S
H337 C314 0.930 . S
H338 C316 0.929 . S
H339 C317 0.931 . S
H340 C319 0.930 . S
H341 C323 0.931 . S
H342 C321 0.931 . S
H343 C325 0.931 . S
H344 C326 0.929 . S
H345 C327 0.930 . S
H346 C330 0.930 . S
H347 C331 0.931 . S
H348 C335 0.928 . S
H349 C334 0.929 . S
H350 C332 0.932 . S
C351 C352 1.386 . S
C351 C353 1.397 . S
C351 H375 0.931 . S
C352 C351 1.386 . S
C352 C356 1.397 . S
C353 C351 1.397 . S
C353 C354 1.384 . S
C353 H376 0.930 . S
C354 C353 1.384 . S
C354 C355 1.377 . S
C354 C357 1.481 . S
C355 C354 1.377 . S
C355 C356 1.389 . S
C355 H377 0.929 . S
C356 C352 1.397 . S
C356 C355 1.389 . S
C356 H378 0.931 . S
C357 C354 1.481 . S
C357 C358 1.387 . S
C357 C362 1.390 . S
C358 C357 1.387 . S
C358 C359 1.401 . S
C358 H379 0.930 . S
C359 C358 1.401 . S
C359 C360 1.376 . S
C359 C368 1.511 . S
C360 C359 1.376 . S
C360 C361 1.392 . S
C360 H381 0.931 . S
C361 C360 1.392 . S
C361 C362 1.361 . S
C361 C363 1.500 . S
C362 C357 1.390 . S
C362 C361 1.361 . S
C362 H380 0.931 . S
C363 C361 1.500 . S
C363 C364 1.371 . S
C363 C365 1.365 . S
C364 C363 1.371 . S
C364 C374 1.386 . S
C364 H382 0.931 . S
C365 C363 1.365 . S
C365 C366 1.409 . S
C365 H383 0.929 . S
C366 C365 1.409 . S
C366 C367 1.380 . S
C366 H384 0.930 . S
C367 C366 1.380 . S
C367 C374 1.357 . S
C368 C359 1.511 . S
C368 C369 1.341 . S
C368 C370 1.371 . S
C369 C368 1.341 . S
C369 C373 1.394 . S
C369 H385 0.930 . S
C370 C368 1.371 . S
C370 C371 1.392 . S
C370 H386 0.931 . S
C371 C370 1.392 . S
C371 C372 1.374 . S
C371 H389 0.932 . S
C372 C371 1.374 . S
C372 C373 1.343 . S
C373 C369 1.394 . S
C373 C372 1.343 . S
C373 H388 0.929 1_565 S
C374 C364 1.386 . S
C374 C367 1.357 . S
C374 H387 0.928 . S
H375 C351 0.931 . S
H376 C353 0.930 . S
H377 C355 0.929 . S
H378 C356 0.931 . S
H379 C358 0.930 . S
H380 C362 0.931 . S
H381 C360 0.931 . S
H382 C364 0.931 . S
H383 C365 0.929 . S
H384 C366 0.930 . S
H385 C369 0.930 . S
H386 C370 0.931 . S
H387 C374 0.928 . S
H388 C373 0.929 1_545 S
H389 C371 0.932 . S
C390 C391 1.386 . S
C390 C392 1.397 . S
C390 H414 0.931 . S
C391 C390 1.386 . S
C391 C395 1.397 . S
C392 C390 1.397 . S
C392 C393 1.384 . S
C392 H415 0.930 . S
C393 C392 1.384 . S
C393 C394 1.377 . S
C393 C396 1.481 . S
C394 C393 1.377 . S
C394 C395 1.389 . S
C394 H416 0.929 . S
C395 C391 1.397 . S
C395 C394 1.389 . S
C395 H417 0.931 . S
C396 C393 1.481 . S
C396 C397 1.387 . S
C396 C401 1.390 . S
C397 C396 1.387 . S
C397 C398 1.401 . S
C397 H418 0.930 . S
C398 C397 1.401 . S
C398 C399 1.376 . S
C398 C407 1.511 . S
C399 C398 1.376 . S
C399 C400 1.392 . S
C399 H420 0.931 . S
C400 C399 1.392 . S
C400 C401 1.361 . S
C400 C402 1.500 . S
C401 C396 1.390 . S
C401 C400 1.361 . S
C401 H419 0.931 . S
C402 C400 1.500 . S
C402 C403 1.371 . S
C402 C404 1.365 . S
C403 C402 1.371 . S
C403 C413 1.386 . S
C403 H421 0.931 . S
C404 C402 1.365 . S
C404 C405 1.409 . S
C404 H422 0.929 . S
C405 C404 1.409 . S
C405 C406 1.380 . S
C405 H423 0.930 . S
C406 C405 1.380 . S
C406 C413 1.357 . S
C407 C398 1.511 . S
C407 C408 1.341 . S
C407 C409 1.371 . S
C408 C407 1.341 . S
C408 C412 1.394 . S
C408 H424 0.930 . S
C409 C407 1.371 . S
C409 C410 1.392 . S
C409 H425 0.931 . S
C410 C409 1.392 . S
C410 C411 1.331 . S
C410 H428 0.932 . S
C411 C410 1.331 . S
C411 C412 1.336 . S
C412 C408 1.394 . S
C412 C411 1.336 . S
C412 H427 0.929 . S
C413 C403 1.386 . S
C413 C406 1.357 . S
C413 H426 0.928 . S
H414 C390 0.931 . S
H415 C392 0.930 . S
H416 C394 0.929 . S
H417 C395 0.931 . S
H418 C397 0.930 . S
H419 C401 0.931 . S
H420 C399 0.931 . S
H421 C403 0.931 . S
H422 C404 0.929 . S
H423 C405 0.930 . S
H424 C408 0.930 . S
H425 C409 0.931 . S
H426 C413 0.928 . S
H427 C412 0.929 . S
H428 C410 0.932 . S
C429 C430 1.386 . S
C429 C431 1.397 . S
C429 H453 0.931 . S
C430 C429 1.386 . S
C430 C434 1.397 . S
C431 C429 1.397 . S
C431 C432 1.384 . S
C431 H454 0.930 . S
C432 C431 1.384 . S
C432 C433 1.377 . S
C432 C435 1.481 . S
C433 C432 1.377 . S
C433 C434 1.389 . S
C433 H455 0.929 . S
C434 C430 1.397 . S
C434 C433 1.389 . S
C434 H456 0.931 . S
C435 C432 1.481 . S
C435 C436 1.387 . S
C435 C440 1.390 . S
C436 C435 1.387 . S
C436 C437 1.401 . S
C436 H457 0.930 . S
C437 C436 1.401 . S
C437 C438 1.376 . S
C437 C446 1.511 . S
C438 C437 1.376 . S
C438 C439 1.392 . S
C438 H459 0.931 . S
C439 C438 1.392 . S
C439 C440 1.361 . S
C439 C441 1.500 . S
C440 C435 1.390 . S
C440 C439 1.361 . S
C440 H458 0.931 . S
C441 C439 1.500 . S
C441 C442 1.371 . S
C441 C443 1.365 . S
C442 C441 1.371 . S
C442 C452 1.386 . S
C442 H460 0.931 . S
C443 C441 1.365 . S
C443 C444 1.409 . S
C443 H461 0.929 . S
C444 C443 1.409 . S
C444 C445 1.380 . S
C444 H462 0.930 . S
C445 C444 1.380 . S
C445 C452 1.357 . S
C446 C437 1.511 . S
C446 C447 1.341 . S
C446 C448 1.371 . S
C447 C446 1.341 . S
C447 C451 1.394 . S
C447 H463 0.930 . S
C448 C446 1.371 . S
C448 C449 1.392 . S
C448 H464 0.931 . S
C449 C448 1.392 . S
C449 C450 1.331 . S
C449 H467 0.932 . S
C450 C449 1.331 . S
C450 C451 1.336 . S
C451 C447 1.394 . S
C451 C450 1.336 . S
C451 H466 0.929 . S
C452 C442 1.386 . S
C452 C445 1.357 . S
C452 H465 0.928 . S
H453 C429 0.931 . S
H454 C431 0.930 . S
H455 C433 0.929 . S
H456 C434 0.931 . S
H457 C436 0.930 . S
H458 C440 0.931 . S
H459 C438 0.931 . S
H460 C442 0.931 . S
H461 C443 0.929 . S
H462 C444 0.930 . S
H463 C447 0.930 . S
H464 C448 0.931 . S
H465 C452 0.928 . S
H466 C451 0.929 . S
H467 C449 0.932 . S
C468 C469 1.386 . S
C468 C470 1.397 . S
C468 H492 0.931 . S
C469 C468 1.386 . S
C469 C473 1.397 . S
C470 C468 1.397 . S
C470 C471 1.384 . S
C470 H493 0.930 . S
C471 C470 1.384 . S
C471 C472 1.377 . S
C471 C474 1.481 . S
C472 C471 1.377 . S
C472 C473 1.389 . S
C472 H494 0.929 . S
C473 C469 1.397 . S
C473 C472 1.389 . S
C473 H495 0.931 . S
C474 C471 1.481 . S
C474 C475 1.387 . S
C474 C479 1.390 . S
C475 C474 1.387 . S
C475 C476 1.401 . S
C475 H496 0.930 . S
C476 C475 1.401 . S
C476 C477 1.376 . S
C476 C485 1.511 . S
C477 C476 1.376 . S
C477 C478 1.392 . S
C477 H498 0.931 . S
C478 C477 1.392 . S
C478 C479 1.361 . S
C478 C480 1.500 . S
C479 C474 1.390 . S
C479 C478 1.361 . S
C479 H497 0.931 . S
C480 C478 1.500 . S
C480 C481 1.371 . S
C480 C482 1.365 . S
C481 C480 1.371 . S
C481 C491 1.386 . S
C481 H499 0.931 . S
C482 C480 1.365 . S
C482 C483 1.409 . S
C482 H500 0.929 . S
C483 C482 1.409 . S
C483 C484 1.380 . S
C483 H501 0.930 . S
C484 C483 1.380 . S
C484 C491 1.357 . S
C485 C476 1.511 . S
C485 C486 1.341 . S
C485 C487 1.371 . S
C486 C485 1.341 . S
C486 C490 1.394 . S
C486 H502 0.930 . S
C487 C485 1.371 . S
C487 C488 1.392 . S
C487 H503 0.931 . S
C488 C487 1.392 . S
C488 C489 1.331 . S
C488 H506 0.932 . S
C489 C488 1.331 . S
C489 C490 1.336 . S
C490 C486 1.394 . S
C490 C489 1.336 . S
C490 H505 0.929 . S
C491 C481 1.386 . S
C491 C484 1.357 . S
C491 H504 0.928 . S
H492 C468 0.931 . S
H493 C470 0.930 . S
H494 C472 0.929 . S
H495 C473 0.931 . S
H496 C475 0.930 . S
H497 C479 0.931 . S
H498 C477 0.931 . S
H499 C481 0.931 . S
H500 C482 0.929 . S
H501 C483 0.930 . S
H502 C486 0.930 . S
H503 C487 0.931 . S
H504 C491 0.928 . S
H505 C490 0.929 . S
H506 C488 0.932 . S
C507 C508 1.386 . S
C507 C509 1.397 . S
C507 H531 0.931 . S
C508 C507 1.386 . S
C508 C512 1.397 . S
C509 C507 1.397 . S
C509 C510 1.384 . S
C509 H532 0.930 . S
C510 C509 1.384 . S
C510 C511 1.377 . S
C510 C513 1.481 . S
C511 C510 1.377 . S
C511 C512 1.389 . S
C511 H533 0.929 . S
C512 C508 1.397 . S
C512 C511 1.389 . S
C512 H534 0.931 . S
C513 C510 1.481 . S
C513 C514 1.387 . S
C513 C518 1.390 . S
C514 C513 1.387 . S
C514 C515 1.401 . S
C514 H535 0.930 . S
C515 C514 1.401 . S
C515 C516 1.376 . S
C515 C524 1.511 . S
C516 C515 1.376 . S
C516 C517 1.392 . S
C516 H537 0.931 . S
C517 C516 1.392 . S
C517 C518 1.361 . S
C517 C519 1.500 . S
C518 C513 1.390 . S
C518 C517 1.361 . S
C518 H536 0.931 . S
C519 C517 1.500 . S
C519 C520 1.371 . S
C519 C521 1.365 . S
C520 C519 1.371 . S
C520 C530 1.386 . S
C520 H538 0.931 . S
C521 C519 1.365 . S
C521 C522 1.409 . S
C521 H539 0.929 . S
C522 C521 1.409 . S
C522 C523 1.380 . S
C522 H540 0.930 . S
C523 C522 1.380 . S
C523 C530 1.357 . S
C524 C515 1.511 . S
C524 C525 1.341 . S
C524 C526 1.371 . S
C525 C524 1.341 . S
C525 C529 1.394 . S
C525 H541 0.930 . S
C526 C524 1.371 . S
C526 C527 1.403 . S
C526 H542 0.931 . S
C527 C526 1.403 . S
C527 C528 1.330 1_556 S
C527 H545 0.922 1_556 S
C528 C527 1.330 1_554 S
C528 C529 1.340 1_554 S
C529 C525 1.394 . S
C529 C528 1.340 1_556 S
C529 H544 0.929 . S
C530 C520 1.386 . S
C530 C523 1.357 . S
C530 H543 0.928 . S
H531 C507 0.931 . S
H532 C509 0.930 . S
H533 C511 0.929 . S
H534 C512 0.931 . S
H535 C514 0.930 . S
H536 C518 0.931 . S
H537 C516 0.931 . S
H538 C520 0.931 . S
H539 C521 0.929 . S
H540 C522 0.930 . S
H541 C525 0.930 . S
H542 C526 0.931 . S
H543 C530 0.928 . S
H544 C529 0.929 . S
H545 C527 0.922 1_554 S
C546 C547 1.386 . S
C546 C548 1.397 . S
C546 H570 0.931 . S
C547 C546 1.386 . S
C547 C551 1.397 . S
C548 C546 1.397 . S
C548 C549 1.384 . S
C548 H571 0.930 . S
C549 C548 1.384 . S
C549 C550 1.377 . S
C549 C552 1.481 . S
C550 C549 1.377 . S
C550 C551 1.389 . S
C550 H572 0.929 . S
C551 C547 1.397 . S
C551 C550 1.389 . S
C551 H573 0.931 . S
C552 C549 1.481 . S
C552 C553 1.387 . S
C552 C557 1.390 . S
C553 C552 1.387 . S
C553 C554 1.401 . S
C553 H574 0.930 . S
C554 C553 1.401 . S
C554 C555 1.376 . S
C554 C563 1.511 . S
C555 C554 1.376 . S
C555 C556 1.392 . S
C555 H576 0.931 . S
C556 C555 1.392 . S
C556 C557 1.361 . S
C556 C558 1.500 . S
C557 C552 1.390 . S
C557 C556 1.361 . S
C557 H575 0.931 . S
C558 C556 1.500 . S
C558 C559 1.371 . S
C558 C560 1.365 . S
C559 C558 1.371 . S
C559 C569 1.386 . S
C559 H577 0.931 . S
C560 C558 1.365 . S
C560 C561 1.409 . S
C560 H578 0.929 . S
C561 C560 1.409 . S
C561 C562 1.380 . S
C561 H579 0.930 . S
C562 C561 1.380 . S
C562 C569 1.357 . S
C563 C554 1.511 . S
C563 C564 1.341 . S
C563 C565 1.371 . S
C564 C563 1.341 . S
C564 C568 1.394 . S
C564 H580 0.930 . S
C565 C563 1.371 . S
C565 C566 1.392 . S
C565 H581 0.931 . S
C566 C565 1.392 . S
C566 C567 1.331 . S
C566 H584 0.932 . S
C567 C566 1.331 . S
C567 C568 1.336 . S
C568 C564 1.394 . S
C568 C567 1.336 . S
C568 H583 0.929 . S
C569 C559 1.386 . S
C569 C562 1.357 . S
C569 H582 0.928 . S
H570 C546 0.931 . S
H571 C548 0.930 . S
H572 C550 0.929 . S
H573 C551 0.931 . S
H574 C553 0.930 . S
H575 C557 0.931 . S
H576 C555 0.931 . S
H577 C559 0.931 . S
H578 C560 0.929 . S
H579 C561 0.930 . S
H580 C564 0.930 . S
H581 C565 0.931 . S
H582 C569 0.928 . S
H583 C568 0.929 . S
H584 C566 0.932 . S
C585 C586 1.386 . S
C585 C587 1.397 . S
C585 H609 0.931 . S
C586 C585 1.386 . S
C586 C590 1.397 . S
C587 C585 1.397 . S
C587 C588 1.384 . S
C587 H610 0.930 . S
C588 C587 1.384 . S
C588 C589 1.377 . S
C588 C591 1.481 . S
C589 C588 1.377 . S
C589 C590 1.389 . S
C589 H611 0.929 . S
C590 C586 1.397 . S
C590 C589 1.389 . S
C590 H612 0.931 1_556 S
C591 C588 1.481 . S
C591 C592 1.387 . S
C591 C596 1.390 . S
C592 C591 1.387 . S
C592 C593 1.401 . S
C592 H613 0.930 . S
C593 C592 1.401 . S
C593 C594 1.376 . S
C593 C602 1.511 . S
C594 C593 1.376 . S
C594 C595 1.392 . S
C594 H615 0.931 . S
C595 C594 1.392 . S
C595 C596 1.361 . S
C595 C597 1.500 . S
C596 C591 1.390 . S
C596 C595 1.361 . S
C596 H614 0.931 . S
C597 C595 1.500 . S
C597 C598 1.371 . S
C597 C599 1.365 . S
C598 C597 1.371 . S
C598 C608 1.386 . S
C598 H616 0.931 . S
C599 C597 1.365 . S
C599 C600 1.409 . S
C599 H617 0.929 . S
C600 C599 1.409 . S
C600 C601 1.380 . S
C600 H618 0.930 . S
C601 C600 1.380 . S
C601 C608 1.357 . S
C602 C593 1.511 . S
C602 C603 1.341 . S
C602 C604 1.371 . S
C603 C602 1.341 . S
C603 C607 1.394 . S
C603 H619 0.930 . S
C604 C602 1.371 . S
C604 C605 1.392 . S
C604 H620 0.931 . S
C605 C604 1.392 . S
C605 C606 1.331 . S
C605 H623 0.932 . S
C606 C605 1.331 . S
C606 C607 1.336 . S
C607 C603 1.394 . S
C607 C606 1.336 . S
C607 H622 0.929 . S
C608 C598 1.386 . S
C608 C601 1.357 . S
C608 H621 0.928 . S
H609 C585 0.931 . S
H610 C587 0.930 . S
H611 C589 0.929 . S
H612 C590 0.931 1_554 S
H613 C592 0.930 . S
H614 C596 0.931 . S
H615 C594 0.931 . S
H616 C598 0.931 . S
H617 C599 0.929 . S
H618 C600 0.930 . S
H619 C603 0.930 . S
H620 C604 0.931 . S
H621 C608 0.928 . S
H622 C607 0.929 . S
H623 C605 0.932 . S
Zn624 O627 2.031 . S
Zn624 O629 2.049 1_554 S
Zn624 O634 2.067 1_554 S
Zn625 O626 1.962 . S
Zn625 O628 1.986 . S
Zn625 O630 1.996 . S
Zn625 O633 1.943 1_554 S
O626 Zn625 1.962 . S
O626 C631 1.254 . S
O627 Zn624 2.031 . S
O627 C631 1.269 . S
O628 Zn625 1.986 . S
O628 C635 1.262 . S
O629 Zn624 2.049 1_556 S
O629 C637 1.260 . S
O630 Zn625 1.996 . S
O630 C637 1.257 1_554 S
C631 O626 1.254 . S
C631 O627 1.269 . S
C632 O633 1.249 . S
C632 O634 1.270 . S
O633 Zn625 1.943 1_556 S
O633 C632 1.249 . S
O634 Zn624 2.067 1_556 S
O634 C632 1.270 . S
C635 O628 1.262 . S
C635 O636 1.232 . S
O636 C635 1.232 . S
C637 O629 1.260 . S
C637 O630 1.257 1_556 S
Zn638 O641 2.031 . S
Zn638 O643 2.049 . S
Zn638 O648 2.067 . S
Zn639 O640 1.962 . S
Zn639 O642 1.986 . S
Zn639 O644 1.996 . S
Zn639 O647 1.943 . S
O640 Zn639 1.962 . S
O640 C645 1.254 . S
O641 Zn638 2.031 . S
O641 C645 1.269 . S
O642 Zn639 1.986 . S
O642 C649 1.262 . S
O643 Zn638 2.049 . S
O643 C651 1.260 . S
O644 Zn639 1.996 . S
O644 C651 1.257 . S
C645 O640 1.254 . S
C645 O641 1.269 . S
C646 O647 1.249 . S
C646 O648 1.270 . S
O647 Zn639 1.943 . S
O647 C646 1.249 . S
O648 Zn638 2.067 . S
O648 C646 1.270 . S
C649 O642 1.262 . S
C649 O650 1.232 . S
O650 C649 1.232 . S
C651 O643 1.260 . S
C651 O644 1.257 . S
Zn652 O655 2.031 . S
Zn652 O657 2.049 . S
Zn652 O662 2.067 . S
Zn653 O654 1.962 . S
Zn653 O656 1.986 . S
Zn653 O658 1.996 1_554 S
Zn653 O661 1.943 . S
O654 Zn653 1.962 . S
O654 C659 1.254 . S
O655 Zn652 2.031 . S
O655 C659 1.269 1_556 S
O656 Zn653 1.986 . S
O656 C663 1.262 . S
O657 Zn652 2.049 . S
O657 C665 1.260 . S
O658 Zn653 1.996 1_556 S
O658 C665 1.257 . S
C659 O654 1.254 . S
C659 O655 1.269 1_554 S
C660 O661 1.249 1_556 S
C660 O662 1.270 . S
O661 Zn653 1.943 . S
O661 C660 1.249 1_554 S
O662 Zn652 2.067 . S
O662 C660 1.270 . S
C663 O656 1.262 . S
C663 O664 1.232 . S
O664 C663 1.232 . S
C665 O657 1.260 . S
C665 O658 1.257 . S
Zn666 O669 2.031 . S
Zn666 O671 2.049 1_545 S
Zn666 O676 2.067 1_545 S
Zn667 O668 1.962 . S
Zn667 O670 1.986 . S
Zn667 O672 1.996 . S
Zn667 O675 1.943 1_545 S
O668 Zn667 1.962 . S
O668 C673 1.254 . S
O669 Zn666 2.031 . S
O669 C673 1.269 . S
O670 Zn667 1.986 . S
O670 C677 1.262 . S
O671 Zn666 2.049 1_565 S
O671 C679 1.260 . S
O672 Zn667 1.996 . S
O672 C679 1.257 1_545 S
C673 O668 1.254 . S
C673 O669 1.269 . S
C674 O675 1.249 . S
C674 O676 1.270 . S
O675 Zn667 1.943 1_565 S
O675 C674 1.249 . S
O676 Zn666 2.067 1_565 S
O676 C674 1.270 . S
C677 O670 1.262 . S
C677 O678 1.232 . S
O678 C677 1.232 . S
C679 O671 1.260 . S
C679 O672 1.257 1_565 S
Zn680 O683 2.031 . S
Zn680 O685 2.049 . S
Zn680 O690 2.067 . S
Zn681 O682 1.962 . S
Zn681 O684 1.986 . S
Zn681 O686 1.996 . S
Zn681 O689 1.943 . S
O682 Zn681 1.962 . S
O682 C687 1.254 . S
O683 Zn680 2.031 . S
O683 C687 1.269 . S
O684 Zn681 1.986 . S
O684 C691 1.262 . S
O685 Zn680 2.049 . S
O685 C693 1.260 . S
O686 Zn681 1.996 . S
O686 C693 1.257 . S
C687 O682 1.254 . S
C687 O683 1.269 . S
C688 O689 1.249 . S
C688 O690 1.270 . S
O689 Zn681 1.943 . S
O689 C688 1.249 . S
O690 Zn680 2.067 . S
O690 C688 1.270 . S
C691 O684 1.262 . S
C691 O692 1.232 . S
O692 C691 1.232 . S
C693 O685 1.260 . S
C693 O686 1.257 . S
Zn694 O697 2.031 . S
Zn694 O699 2.049 . S
Zn694 O704 2.067 . S
Zn695 O696 1.962 . S
Zn695 O698 1.986 . S
Zn695 O700 1.996 . S
Zn695 O703 1.943 . S
O696 Zn695 1.962 . S
O696 C701 1.254 . S
O697 Zn694 2.031 . S
O697 C701 1.269 . S
O698 Zn695 1.986 . S
O698 C705 1.262 . S
O699 Zn694 2.049 . S
O699 C707 1.260 . S
O700 Zn695 1.996 . S
O700 C707 1.257 . S
C701 O696 1.254 . S
C701 O697 1.269 . S
C702 O703 1.249 . S
C702 O704 1.270 . S
O703 Zn695 1.943 . S
O703 C702 1.249 . S
O704 Zn694 2.067 . S
O704 C702 1.270 . S
C705 O698 1.262 . S
C705 O706 1.232 . S
O706 C705 1.232 . S
C707 O699 1.260 . S
C707 O700 1.257 . S
Zn708 O711 2.031 . S
Zn708 O713 2.049 . S
Zn708 O718 2.067 . S
Zn709 O710 1.962 . S
Zn709 O712 1.986 . S
Zn709 O714 1.996 . S
Zn709 O717 1.943 . S
O710 Zn709 1.962 . S
O710 C715 1.254 . S
O711 Zn708 2.031 . S
O711 C715 1.269 . S
O712 Zn709 1.986 . S
O712 C719 1.262 . S
O713 Zn708 2.049 . S
O713 C721 1.260 . S
O714 Zn709 1.996 . S
O714 C721 1.257 . S
C715 O710 1.254 . S
C715 O711 1.269 . S
C716 O717 1.249 . S
C716 O718 1.270 . S
O717 Zn709 1.943 . S
O717 C716 1.249 . S
O718 Zn708 2.067 . S
O718 C716 1.270 . S
C719 O712 1.262 . S
C719 O720 1.232 . S
O720 C719 1.232 . S
C721 O713 1.260 . S
C721 O714 1.257 . S
Zn722 O725 2.031 . S
Zn722 O727 2.049 . S
Zn722 O732 2.067 . S
Zn723 O724 1.962 . S
Zn723 O726 1.986 . S
Zn723 O728 1.996 1_545 S
Zn723 O731 1.943 . S
O724 Zn723 1.962 . S
O724 C729 1.254 . S
O725 Zn722 2.031 . S
O725 C729 1.269 1_565 S
O726 Zn723 1.986 . S
O726 C733 1.262 . S
O727 Zn722 2.049 . S
O727 C735 1.260 . S
O728 Zn723 1.996 1_565 S
O728 C735 1.257 . S
C729 O724 1.254 . S
C729 O725 1.269 1_545 S
C730 O731 1.249 1_565 S
C730 O732 1.270 . S
O731 Zn723 1.943 . S
O731 C730 1.249 1_545 S
O732 Zn722 2.067 . S
O732 C730 1.270 . S
C733 O726 1.262 . S
C733 O734 1.232 . S
O734 C733 1.232 . S
C735 O727 1.260 . S
C735 O728 1.257 . S
Zn736 O739 2.031 . S
Zn736 O741 2.049 1_455 S
Zn736 O746 2.067 1_455 S
Zn737 O738 1.962 . S
Zn737 O740 1.986 . S
Zn737 O742 1.996 . S
Zn737 O745 1.943 1_455 S
O738 Zn737 1.962 . S
O738 C743 1.254 . S
O739 Zn736 2.031 . S
O739 C743 1.269 . S
O740 Zn737 1.986 . S
O740 C747 1.262 . S
O741 Zn736 2.049 1_655 S
O741 C749 1.260 . S
O742 Zn737 1.996 . S
O742 C749 1.257 1_455 S
C743 O738 1.254 . S
C743 O739 1.269 . S
C744 O745 1.249 . S
C744 O746 1.270 . S
O745 Zn737 1.943 1_655 S
O745 C744 1.249 . S
O746 Zn736 2.067 1_655 S
O746 C744 1.270 . S
C747 O740 1.262 . S
C747 O748 1.232 . S
O748 C747 1.232 . S
C749 O741 1.260 . S
C749 O742 1.257 1_655 S
Zn750 O753 2.031 . S
Zn750 O755 2.049 . S
Zn750 O760 2.067 . S
Zn751 O752 1.962 . S
Zn751 O754 1.986 . S
Zn751 O756 1.996 . S
Zn751 O759 1.943 . S
O752 Zn751 1.962 . S
O752 C757 1.254 . S
O753 Zn750 2.031 . S
O753 C757 1.269 . S
O754 Zn751 1.986 . S
O754 C761 1.262 . S
O755 Zn750 2.049 . S
O755 C763 1.260 . S
O756 Zn751 1.996 . S
O756 C763 1.257 . S
C757 O752 1.254 . S
C757 O753 1.269 . S
C758 O759 1.249 . S
C758 O760 1.270 . S
O759 Zn751 1.943 . S
O759 C758 1.249 . S
O760 Zn750 2.067 . S
O760 C758 1.270 . S
C761 O754 1.262 . S
C761 O762 1.232 . S
O762 C761 1.232 . S
C763 O755 1.260 . S
C763 O756 1.257 . S
Zn764 O767 2.031 . S
Zn764 O769 2.049 . S
Zn764 O774 2.067 . S
Zn765 O766 1.962 . S
Zn765 O768 1.986 . S
Zn765 O770 1.996 1_455 S
Zn765 O773 1.943 . S
O766 Zn765 1.962 . S
O766 C771 1.254 . S
O767 Zn764 2.031 . S
O767 C771 1.269 1_655 S
O768 Zn765 1.986 . S
O768 C775 1.262 . S
O769 Zn764 2.049 . S
O769 C777 1.260 . S
O770 Zn765 1.996 1_655 S
O770 C777 1.257 . S
C771 O766 1.254 . S
C771 O767 1.269 1_455 S
C772 O773 1.249 1_655 S
C772 O774 1.270 . S
O773 Zn765 1.943 . S
O773 C772 1.249 1_455 S
O774 Zn764 2.067 . S
O774 C772 1.270 . S
C775 O768 1.262 . S
C775 O776 1.232 . S
O776 C775 1.232 . S
C777 O769 1.260 . S
C777 O770 1.257 . S
Zn778 O781 2.031 . S
Zn778 O783 2.049 . S
Zn778 O788 2.067 . S
Zn779 O780 1.962 . S
Zn779 O782 1.986 . S
Zn779 O784 1.996 . S
Zn779 O787 1.943 . S
O780 Zn779 1.962 . S
O780 C785 1.254 . S
O781 Zn778 2.031 . S
O781 C785 1.269 . S
O782 Zn779 1.986 . S
O782 C789 1.262 . S
O783 Zn778 2.049 . S
O783 C791 1.260 . S
O784 Zn779 1.996 . S
O784 C791 1.257 . S
C785 O780 1.254 . S
C785 O781 1.269 . S
C786 O787 1.249 . S
C786 O788 1.270 . S
O787 Zn779 1.943 . S
O787 C786 1.249 . S
O788 Zn778 2.067 . S
O788 C786 1.270 . S
C789 O782 1.262 . S
C789 O790 1.232 . S
O790 C789 1.232 . S
C791 O783 1.260 . S
C791 O784 1.257 . S
H792 C810 0.951 . S
H793 C812 0.951 . S
H794 C814 0.950 . S
H795 C815 0.950 . S
H796 C817 0.950 . S
H797 C820 0.950 . S
H798 C821 0.950 . S
H799 C823 0.950 . S
H800 C824 0.950 . S
H801 C825 0.951 . S
H802 C827 0.951 . S
H803 C829 0.950 . S
H804 C830 0.950 . S
H805 C832 0.950 . S
H806 C835 0.950 . S
H807 C836 0.950 . S
H808 C838 0.950 . S
H809 C839 0.950 . S
C810 H792 0.951 . S
C810 C811 1.366 . S
C810 C812 1.388 . S
C811 C810 1.366 . S
C811 C815 1.385 . S
C812 H793 0.951 . S
C812 C810 1.388 . S
C812 C813 1.366 . S
C813 C812 1.366 . S
C813 C814 1.414 . S
C813 C816 1.499 . S
C814 H794 0.950 . S
C814 C813 1.414 . S
C814 C815 1.374 . S
C815 H795 0.950 . S
C815 C811 1.385 . S
C815 C814 1.374 . S
C816 C813 1.499 . S
C816 C817 1.373 . S
C816 C818 1.389 . S
C817 H796 0.950 . S
C817 C816 1.373 . S
C817 C833 1.377 . S
C818 C816 1.389 . S
C818 C819 1.524 . S
C818 C832 1.377 . S
C819 C818 1.524 . S
C819 C820 1.397 . S
C819 C824 1.363 . S
C820 H797 0.950 . S
C820 C819 1.397 . S
C820 C821 1.334 . S
C821 H798 0.950 . S
C821 C820 1.334 . S
C821 C822 1.287 . S
C822 C821 1.287 . S
C822 C823 1.524 . S
C822 H841 0.913 . S
C823 H799 0.950 . S
C823 C822 1.524 . S
C823 C824 1.415 . S
C824 H800 0.950 . S
C824 C819 1.363 . S
C824 C823 1.415 . S
C825 H801 0.951 . S
C825 C826 1.366 . S
C825 C827 1.388 . S
C826 C825 1.366 . S
C826 C830 1.385 . S
C827 H802 0.951 . S
C827 C825 1.388 . S
C827 C828 1.366 . S
C828 C827 1.366 . S
C828 C829 1.414 . S
C828 C831 1.499 . S
C829 H803 0.950 . S
C829 C828 1.414 . S
C829 C830 1.374 . S
C830 H804 0.950 . S
C830 C826 1.385 . S
C830 C829 1.374 . S
C831 C828 1.499 . S
C831 C832 1.373 . S
C831 C833 1.389 . S
C832 H805 0.950 . S
C832 C818 1.377 . S
C832 C831 1.373 . S
C833 C817 1.377 . S
C833 C831 1.389 . S
C833 C834 1.524 . S
C834 C833 1.524 . S
C834 C835 1.397 . S
C834 C839 1.363 . S
C835 H806 0.950 . S
C835 C834 1.397 . S
C835 C836 1.334 . S
C836 H807 0.950 . S
C836 C835 1.334 . S
C836 C837 1.287 . S
C837 C836 1.287 . S
C837 C838 1.524 . S
C837 H840 0.999 . S
C838 H808 0.950 . S
C838 C837 1.524 . S
C838 C839 1.415 . S
C839 H809 0.950 . S
C839 C834 1.363 . S
C839 C838 1.415 . S
H840 C837 0.999 . S
H841 C822 0.913 . S
H842 C860 0.951 . S
H843 C862 0.951 . S
H844 C864 0.950 . S
H845 C865 0.950 1_655 S
H846 C867 0.950 . S
H847 C870 0.950 . S
H848 C871 0.950 . S
H849 C873 0.950 . S
H850 C874 0.950 . S
H851 C875 0.951 . S
H852 C877 0.951 . S
H853 C879 0.950 . S
H854 C880 0.950 . S
H855 C882 0.950 . S
H856 C885 0.950 . S
H857 C886 0.950 . S
H858 C888 0.950 . S
H859 C889 0.950 . S
C860 H842 0.951 . S
C860 C861 1.366 . S
C860 C862 1.388 . S
C861 C860 1.366 . S
C861 C865 1.385 . S
C862 H843 0.951 . S
C862 C860 1.388 . S
C862 C863 1.366 . S
C863 C862 1.366 . S
C863 C864 1.414 . S
C863 C866 1.499 . S
C864 H844 0.950 . S
C864 C863 1.414 . S
C864 C865 1.374 . S
C865 H845 0.950 1_455 S
C865 C861 1.385 . S
C865 C864 1.374 . S
C866 C863 1.499 . S
C866 C867 1.373 . S
C866 C868 1.389 . S
C867 H846 0.950 . S
C867 C866 1.373 . S
C867 C883 1.377 . S
C868 C866 1.389 . S
C868 C869 1.524 . S
C868 C882 1.377 . S
C869 C868 1.524 . S
C869 C870 1.397 . S
C869 C874 1.363 . S
C870 H847 0.950 . S
C870 C869 1.397 . S
C870 C871 1.334 . S
C871 H848 0.950 . S
C871 C870 1.334 . S
C871 C872 1.287 . S
C872 C871 1.287 . S
C872 C873 1.524 . S
C872 H891 0.913 . S
C873 H849 0.950 . S
C873 C872 1.524 . S
C873 C874 1.415 . S
C874 H850 0.950 . S
C874 C869 1.363 . S
C874 C873 1.415 . S
C875 H851 0.951 . S
C875 C876 1.366 . S
C875 C877 1.388 . S
C876 C875 1.366 . S
C876 C880 1.385 . S
C877 H852 0.951 . S
C877 C875 1.388 . S
C877 C878 1.366 . S
C878 C877 1.366 . S
C878 C879 1.414 . S
C878 C881 1.499 . S
C879 H853 0.950 . S
C879 C878 1.414 . S
C879 C880 1.374 . S
C880 H854 0.950 . S
C880 C876 1.385 . S
C880 C879 1.374 . S
C881 C878 1.499 . S
C881 C882 1.373 . S
C881 C883 1.389 . S
C882 H855 0.950 . S
C882 C868 1.377 . S
C882 C881 1.373 . S
C883 C867 1.377 . S
C883 C881 1.389 . S
C883 C884 1.524 . S
C884 C883 1.524 . S
C884 C885 1.397 . S
C884 C889 1.363 . S
C885 H856 0.950 . S
C885 C884 1.397 . S
C885 C886 1.334 . S
C886 H857 0.950 . S
C886 C885 1.334 . S
C886 C887 1.287 . S
C887 C886 1.287 . S
C887 C888 1.524 . S
C887 H890 0.999 . S
C888 H858 0.950 . S
C888 C887 1.524 . S
C888 C889 1.415 . S
C889 H859 0.950 . S
C889 C884 1.363 . S
C889 C888 1.415 . S
H890 C887 0.999 . S
H891 C872 0.913 . S
H892 C910 0.951 . S
H893 C912 0.951 . S
H894 C914 0.950 . S
H895 C915 0.950 . S
H896 C917 0.950 . S
H897 C920 0.950 . S
H898 C921 0.950 . S
H899 C923 0.950 . S
H900 C924 0.950 . S
H901 C925 0.951 . S
H902 C927 0.951 . S
H903 C929 0.950 . S
H904 C930 0.950 . S
H905 C932 0.950 . S
H906 C935 0.950 . S
H907 C936 0.950 . S
H908 C938 0.950 . S
H909 C939 0.950 . S
C910 H892 0.951 . S
C910 C911 1.366 . S
C910 C912 1.388 . S
C911 C910 1.366 . S
C911 C915 1.385 . S
C912 H893 0.951 . S
C912 C910 1.388 . S
C912 C913 1.366 . S
C913 C912 1.366 . S
C913 C914 1.414 . S
C913 C916 1.499 . S
C914 H894 0.950 . S
C914 C913 1.414 . S
C914 C915 1.374 . S
C915 H895 0.950 . S
C915 C911 1.385 . S
C915 C914 1.374 . S
C916 C913 1.499 . S
C916 C917 1.373 . S
C916 C918 1.389 . S
C917 H896 0.950 . S
C917 C916 1.373 . S
C917 C933 1.377 . S
C918 C916 1.389 . S
C918 C919 1.524 . S
C918 C932 1.377 . S
C919 C918 1.524 . S
C919 C920 1.397 . S
C919 C924 1.363 . S
C920 H897 0.950 . S
C920 C919 1.397 . S
C920 C921 1.334 . S
C921 H898 0.950 . S
C921 C920 1.334 . S
C921 C922 1.287 . S
C922 C921 1.287 . S
C922 C923 1.524 . S
C922 H941 0.913 . S
C923 H899 0.950 . S
C923 C922 1.524 . S
C923 C924 1.415 . S
C924 H900 0.950 . S
C924 C919 1.363 . S
C924 C923 1.415 . S
C925 H901 0.951 . S
C925 C926 1.366 . S
C925 C927 1.388 . S
C926 C925 1.366 . S
C926 C930 1.385 . S
C927 H902 0.951 . S
C927 C925 1.388 . S
C927 C928 1.366 . S
C928 C927 1.366 . S
C928 C929 1.414 . S
C928 C931 1.499 . S
C929 H903 0.950 . S
C929 C928 1.414 . S
C929 C930 1.374 . S
C930 H904 0.950 . S
C930 C926 1.385 . S
C930 C929 1.374 . S
C931 C928 1.499 . S
C931 C932 1.373 . S
C931 C933 1.389 . S
C932 H905 0.950 . S
C932 C918 1.377 . S
C932 C931 1.373 . S
C933 C917 1.377 . S
C933 C931 1.389 . S
C933 C934 1.524 . S
C934 C933 1.524 . S
C934 C935 1.397 . S
C934 C939 1.363 . S
C935 H906 0.950 . S
C935 C934 1.397 . S
C935 C936 1.334 . S
C936 H907 0.950 . S
C936 C935 1.334 . S
C936 C937 1.287 . S
C937 C936 1.287 . S
C937 C938 1.524 . S
C937 H940 0.999 . S
C938 H908 0.950 . S
C938 C937 1.524 . S
C938 C939 1.415 . S
C939 H909 0.950 . S
C939 C934 1.363 . S
C939 C938 1.415 . S
H940 C937 0.999 . S
H941 C922 0.913 . S
H942 C960 0.951 . S
H943 C962 0.951 . S
H944 C964 0.950 . S
H945 C965 0.950 . S
H946 C967 0.950 . S
H947 C970 0.959 . S
H948 C971 0.950 . S
H949 C973 0.950 . S
H950 C974 0.950 . S
H951 C975 0.951 1_545 S
H952 C977 0.951 . S
H953 C979 0.950 . S
H954 C980 0.950 . S
H955 C982 0.950 . S
H956 C985 0.950 . S
H957 C986 0.950 . S
H958 C988 0.950 . S
H959 C989 0.950 . S
C960 H942 0.951 . S
C960 C961 1.366 . S
C960 C962 1.388 1_455 S
C961 C960 1.366 . S
C961 C965 1.385 1_455 S
C962 H943 0.951 . S
C962 C960 1.388 1_655 S
C962 C963 1.366 . S
C963 C962 1.366 . S
C963 C964 1.414 . S
C963 C966 1.499 . S
C964 H944 0.950 . S
C964 C963 1.414 . S
C964 C965 1.374 . S
C965 H945 0.950 . S
C965 C961 1.385 1_655 S
C965 C964 1.374 . S
C966 C963 1.499 . S
C966 C967 1.373 . S
C966 C968 1.389 . S
C967 H946 0.950 . S
C967 C966 1.373 . S
C967 C983 1.377 . S
C968 C966 1.389 . S
C968 C969 1.524 . S
C968 C982 1.377 . S
C969 C968 1.524 . S
C969 C970 1.369 1_565 S
C969 C974 1.363 . S
C970 H947 0.959 . S
C970 C969 1.369 1_545 S
C970 C971 1.354 1_655 S
C971 H948 0.950 . S
C971 C970 1.354 1_455 S
C971 C972 1.287 . S
C972 C971 1.287 . S
C972 C973 1.524 1_545 S
C972 H991 0.913 . S
C973 H949 0.950 . S
C973 C972 1.524 1_565 S
C973 C974 1.415 1_455 S
C974 H950 0.950 . S
C974 C969 1.363 . S
C974 C973 1.415 1_655 S
C975 H951 0.951 1_565 S
C975 C976 1.366 . S
C975 C977 1.388 . S
C976 C975 1.366 . S
C976 C980 1.385 . S
C977 H952 0.951 . S
C977 C975 1.388 . S
C977 C978 1.366 . S
C978 C977 1.366 . S
C978 C979 1.414 . S
C978 C981 1.499 . S
C979 H953 0.950 . S
C979 C978 1.414 . S
C979 C980 1.374 . S
C980 H954 0.950 . S
C980 C976 1.385 . S
C980 C979 1.374 . S
C981 C978 1.499 . S
C981 C982 1.373 . S
C981 C983 1.389 . S
C982 H955 0.950 . S
C982 C968 1.377 . S
C982 C981 1.373 . S
C983 C967 1.377 . S
C983 C981 1.389 . S
C983 C984 1.524 . S
C984 C983 1.524 . S
C984 C985 1.397 . S
C984 C989 1.363 . S
C985 H956 0.950 . S
C985 C984 1.397 . S
C985 C986 1.334 . S
C986 H957 0.950 . S
C986 C985 1.334 . S
C986 C987 1.287 . S
C987 C986 1.287 . S
C987 C988 1.524 . S
C987 H990 0.999 . S
C988 H958 0.950 . S
C988 C987 1.524 . S
C988 C989 1.415 . S
C989 H959 0.950 . S
C989 C984 1.363 . S
C989 C988 1.415 . S
H990 C987 0.999 . S
H991 C972 0.913 . S
H992 C1010 0.951 . S
H993 C1012 0.951 . S
H994 C1014 0.950 . S
H995 C1015 0.950 . S
H996 C1017 0.950 . S
H997 C1020 0.950 . S
H998 C1021 0.950 . S
H999 C1023 0.950 . S
H1000 C1024 0.950 . S
H1001 C1025 0.951 . S
H1002 C1027 0.951 . S
H1003 C1029 0.950 . S
H1004 C1030 0.950 . S
H1005 C1032 0.950 . S
H1006 C1035 0.950 . S
H1007 C1036 0.950 . S
H1008 C1038 0.950 . S
H1009 C1039 0.950 . S
C1010 H992 0.951 . S
C1010 C1011 1.366 . S
C1010 C1012 1.388 . S
C1011 C1010 1.366 . S
C1011 C1015 1.385 . S
C1012 H993 0.951 . S
C1012 C1010 1.388 . S
C1012 C1013 1.366 . S
C1013 C1012 1.366 . S
C1013 C1014 1.414 . S
C1013 C1016 1.499 . S
C1014 H994 0.950 . S
C1014 C1013 1.414 . S
C1014 C1015 1.374 . S
C1015 H995 0.950 . S
C1015 C1011 1.385 . S
C1015 C1014 1.374 . S
C1016 C1013 1.499 . S
C1016 C1017 1.373 . S
C1016 C1018 1.389 . S
C1017 H996 0.950 . S
C1017 C1016 1.373 . S
C1017 C1033 1.377 . S
C1018 C1016 1.389 . S
C1018 C1019 1.524 . S
C1018 C1032 1.377 . S
C1019 C1018 1.524 . S
C1019 C1020 1.397 . S
C1019 C1024 1.363 . S
C1020 H997 0.950 . S
C1020 C1019 1.397 . S
C1020 C1021 1.334 . S
C1021 H998 0.950 . S
C1021 C1020 1.334 . S
C1021 C1022 1.287 . S
C1022 C1021 1.287 . S
C1022 C1023 1.524 . S
C1022 H1041 0.913 . S
C1023 H999 0.950 . S
C1023 C1022 1.524 . S
C1023 C1024 1.415 . S
C1024 H1000 0.950 . S
C1024 C1019 1.363 . S
C1024 C1023 1.415 . S
C1025 H1001 0.951 . S
C1025 C1026 1.366 . S
C1025 C1027 1.388 . S
C1026 C1025 1.366 . S
C1026 C1030 1.385 . S
C1027 H1002 0.951 . S
C1027 C1025 1.388 . S
C1027 C1028 1.366 . S
C1028 C1027 1.366 . S
C1028 C1029 1.414 . S
C1028 C1031 1.499 . S
C1029 H1003 0.950 . S
C1029 C1028 1.414 . S
C1029 C1030 1.374 . S
C1030 H1004 0.950 . S
C1030 C1026 1.385 . S
C1030 C1029 1.374 . S
C1031 C1028 1.499 . S
C1031 C1032 1.373 . S
C1031 C1033 1.389 . S
C1032 H1005 0.950 . S
C1032 C1018 1.377 . S
C1032 C1031 1.373 . S
C1033 C1017 1.377 . S
C1033 C1031 1.389 . S
C1033 C1034 1.524 . S
C1034 C1033 1.524 . S
C1034 C1035 1.397 . S
C1034 C1039 1.363 . S
C1035 H1006 0.950 . S
C1035 C1034 1.397 . S
C1035 C1036 1.334 . S
C1036 H1007 0.950 . S
C1036 C1035 1.334 . S
C1036 C1037 1.287 . S
C1037 C1036 1.287 . S
C1037 C1038 1.524 . S
C1037 H1040 0.999 . S
C1038 H1008 0.950 . S
C1038 C1037 1.524 . S
C1038 C1039 1.415 . S
C1039 H1009 0.950 . S
C1039 C1034 1.363 . S
C1039 C1038 1.415 . S
H1040 C1037 0.999 . S
H1041 C1022 0.913 . S
H1042 C1060 0.951 . S
H1043 C1062 0.951 . S
H1044 C1064 0.950 . S
H1045 C1065 0.950 . S
H1046 C1067 0.950 . S
H1047 C1070 0.950 . S
H1048 C1071 0.950 . S
H1049 C1073 0.950 . S
H1050 C1074 0.950 . S
H1051 C1075 0.951 . S
H1052 C1077 0.951 . S
H1053 C1079 0.950 . S
H1054 C1080 0.950 . S
H1055 C1082 0.950 . S
H1056 C1085 0.950 . S
H1057 C1086 0.950 . S
H1058 C1088 0.950 . S
H1059 C1089 0.950 . S
C1060 H1042 0.951 . S
C1060 C1061 1.366 . S
C1060 C1062 1.388 . S
C1061 C1060 1.366 . S
C1061 C1065 1.385 . S
C1062 H1043 0.951 . S
C1062 C1060 1.388 . S
C1062 C1063 1.366 . S
C1063 C1062 1.366 . S
C1063 C1064 1.414 . S
C1063 C1066 1.499 . S
C1064 H1044 0.950 . S
C1064 C1063 1.414 . S
C1064 C1065 1.374 . S
C1065 H1045 0.950 . S
C1065 C1061 1.385 . S
C1065 C1064 1.374 . S
C1066 C1063 1.499 . S
C1066 C1067 1.373 . S
C1066 C1068 1.389 . S
C1067 H1046 0.950 . S
C1067 C1066 1.373 . S
C1067 C1083 1.377 . S
C1068 C1066 1.389 . S
C1068 C1069 1.524 . S
C1068 C1082 1.377 . S
C1069 C1068 1.524 . S
C1069 C1070 1.397 . S
C1069 C1074 1.363 . S
C1070 H1047 0.950 . S
C1070 C1069 1.397 . S
C1070 C1071 1.334 . S
C1071 H1048 0.950 . S
C1071 C1070 1.334 . S
C1071 C1072 1.287 . S
C1072 C1071 1.287 . S
C1072 C1073 1.524 . S
C1072 H1091 0.913 . S
C1073 H1049 0.950 . S
C1073 C1072 1.524 . S
C1073 C1074 1.415 . S
C1074 H1050 0.950 . S
C1074 C1069 1.363 . S
C1074 C1073 1.415 . S
C1075 H1051 0.951 . S
C1075 C1076 1.366 . S
C1075 C1077 1.388 . S
C1076 C1075 1.366 . S
C1076 C1080 1.385 . S
C1077 H1052 0.951 . S
C1077 C1075 1.388 . S
C1077 C1078 1.366 . S
C1078 C1077 1.366 . S
C1078 C1079 1.414 . S
C1078 C1081 1.499 . S
C1079 H1053 0.950 . S
C1079 C1078 1.414 . S
C1079 C1080 1.374 . S
C1080 H1054 0.950 . S
C1080 C1076 1.385 . S
C1080 C1079 1.374 . S
C1081 C1078 1.499 . S
C1081 C1082 1.373 . S
C1081 C1083 1.389 . S
C1082 H1055 0.950 . S
C1082 C1068 1.377 . S
C1082 C1081 1.373 . S
C1083 C1067 1.377 . S
C1083 C1081 1.389 . S
C1083 C1084 1.524 . S
C1084 C1083 1.524 . S
C1084 C1085 1.397 . S
C1084 C1089 1.363 . S
C1085 H1056 0.950 . S
C1085 C1084 1.397 . S
C1085 C1086 1.334 . S
C1086 H1057 0.950 . S
C1086 C1085 1.334 . S
C1086 C1087 1.287 . S
C1087 C1086 1.287 . S
C1087 C1088 1.524 . S
C1087 H1090 0.999 . S
C1088 H1058 0.950 . S
C1088 C1087 1.524 . S
C1088 C1089 1.415 . S
C1089 H1059 0.950 . S
C1089 C1084 1.363 . S
C1089 C1088 1.415 . S
H1090 C1087 0.999 . S
H1091 C1072 0.913 . S
H1092 C1110 0.951 . S
H1093 C1112 0.951 . S
H1094 C1114 0.950 . S
H1095 C1115 0.950 . S
H1096 C1117 0.950 . S
H1097 C1120 0.950 . S
H1098 C1121 0.950 . S
H1099 C1123 0.950 . S
H1100 C1124 0.950 . S
H1101 C1125 0.951 . S
H1102 C1127 0.951 . S
H1103 C1129 0.950 . S
H1104 C1130 0.950 . S
H1105 C1132 0.950 . S
H1106 C1135 0.950 . S
H1107 C1136 0.950 . S
H1108 C1138 0.950 . S
H1109 C1139 0.950 . S
C1110 H1092 0.951 . S
C1110 C1111 1.366 . S
C1110 C1112 1.388 . S
C1111 C1110 1.366 . S
C1111 C1115 1.385 . S
C1112 H1093 0.951 . S
C1112 C1110 1.388 . S
C1112 C1113 1.366 . S
C1113 C1112 1.366 . S
C1113 C1114 1.414 . S
C1113 C1116 1.499 . S
C1114 H1094 0.950 . S
C1114 C1113 1.414 . S
C1114 C1115 1.374 . S
C1115 H1095 0.950 . S
C1115 C1111 1.385 . S
C1115 C1114 1.374 . S
C1116 C1113 1.499 . S
C1116 C1117 1.373 . S
C1116 C1118 1.389 . S
C1117 H1096 0.950 . S
C1117 C1116 1.373 . S
C1117 C1133 1.377 . S
C1118 C1116 1.389 . S
C1118 C1119 1.524 . S
C1118 C1132 1.377 . S
C1119 C1118 1.524 . S
C1119 C1120 1.397 . S
C1119 C1124 1.363 . S
C1120 H1097 0.950 . S
C1120 C1119 1.397 . S
C1120 C1121 1.334 . S
C1121 H1098 0.950 . S
C1121 C1120 1.334 . S
C1121 C1122 1.287 . S
C1122 C1121 1.287 . S
C1122 C1123 1.524 . S
C1122 H1141 0.913 . S
C1123 H1099 0.950 . S
C1123 C1122 1.524 . S
C1123 C1124 1.415 . S
C1124 H1100 0.950 . S
C1124 C1119 1.363 . S
C1124 C1123 1.415 . S
C1125 H1101 0.951 . S
C1125 C1126 1.366 . S
C1125 C1127 1.388 . S
C1126 C1125 1.366 . S
C1126 C1130 1.385 . S
C1127 H1102 0.951 . S
C1127 C1125 1.388 . S
C1127 C1128 1.366 . S
C1128 C1127 1.366 . S
C1128 C1129 1.414 . S
C1128 C1131 1.499 . S
C1129 H1103 0.950 . S
C1129 C1128 1.414 . S
C1129 C1130 1.374 . S
C1130 H1104 0.950 . S
C1130 C1126 1.385 . S
C1130 C1129 1.374 . S
C1131 C1128 1.499 . S
C1131 C1132 1.373 . S
C1131 C1133 1.389 . S
C1132 H1105 0.950 . S
C1132 C1118 1.377 . S
C1132 C1131 1.373 . S
C1133 C1117 1.377 . S
C1133 C1131 1.389 . S
C1133 C1134 1.524 . S
C1134 C1133 1.524 . S
C1134 C1135 1.397 . S
C1134 C1139 1.363 . S
C1135 H1106 0.950 . S
C1135 C1134 1.397 . S
C1135 C1136 1.334 . S
C1136 H1107 0.950 . S
C1136 C1135 1.334 . S
C1136 C1137 1.287 . S
C1137 C1136 1.287 . S
C1137 C1138 1.524 . S
C1137 H1140 0.999 . S
C1138 H1108 0.950 . S
C1138 C1137 1.524 . S
C1138 C1139 1.415 . S
C1139 H1109 0.950 . S
C1139 C1134 1.363 . S
C1139 C1138 1.415 . S
H1140 C1137 0.999 . S
H1141 C1122 0.913 . S
H1142 C1160 0.951 . S
H1143 C1162 0.951 . S
H1144 C1164 0.950 . S
H1145 C1165 0.950 . S
H1146 C1167 0.950 . S
H1147 C1170 0.950 1_565 S
H1148 C1171 0.950 . S
H1149 C1173 0.950 . S
H1150 C1174 0.950 . S
H1151 C1175 0.951 . S
H1152 C1177 0.951 . S
H1153 C1179 0.950 . S
H1154 C1180 0.950 . S
H1155 C1182 0.950 1_545 S
H1156 C1185 0.950 . S
H1157 C1186 0.950 . S
H1158 C1188 0.950 . S
H1159 C1189 0.950 . S
C1160 H1142 0.951 . S
C1160 C1161 1.366 . S
C1160 C1162 1.388 . S
C1161 C1160 1.366 . S
C1161 C1165 1.385 . S
C1162 H1143 0.951 . S
C1162 C1160 1.388 . S
C1162 C1163 1.366 . S
C1163 C1162 1.366 . S
C1163 C1164 1.414 . S
C1163 C1166 1.499 . S
C1164 H1144 0.950 . S
C1164 C1163 1.414 . S
C1164 C1165 1.374 . S
C1165 H1145 0.950 . S
C1165 C1161 1.385 . S
C1165 C1164 1.374 . S
C1166 C1163 1.499 . S
C1166 C1167 1.373 . S
C1166 C1168 1.389 . S
C1167 H1146 0.950 . S
C1167 C1166 1.373 . S
C1167 C1183 1.377 . S
C1168 C1166 1.389 . S
C1168 C1169 1.524 1_565 S
C1168 C1182 1.377 . S
C1169 C1168 1.524 1_545 S
C1169 C1170 1.397 . S
C1169 C1174 1.363 . S
C1170 H1147 0.950 1_545 S
C1170 C1169 1.397 . S
C1170 C1171 1.334 . S
C1171 H1148 0.950 . S
C1171 C1170 1.334 . S
C1171 C1172 1.287 . S
C1172 C1171 1.287 . S
C1172 C1173 1.524 . S
C1172 H1191 0.913 . S
C1173 H1149 0.950 . S
C1173 C1172 1.524 . S
C1173 C1174 1.415 . S
C1174 H1150 0.950 . S
C1174 C1169 1.363 . S
C1174 C1173 1.415 . S
C1175 H1151 0.951 . S
C1175 C1176 1.366 . S
C1175 C1177 1.388 . S
C1176 C1175 1.366 . S
C1176 C1180 1.385 1_565 S
C1177 H1152 0.951 . S
C1177 C1175 1.388 . S
C1177 C1178 1.366 . S
C1178 C1177 1.366 . S
C1178 C1179 1.414 1_565 S
C1178 C1181 1.499 . S
C1179 H1153 0.950 . S
C1179 C1178 1.414 1_545 S
C1179 C1180 1.374 . S
C1180 H1154 0.950 . S
C1180 C1176 1.385 1_545 S
C1180 C1179 1.374 . S
C1181 C1178 1.499 . S
C1181 C1182 1.373 . S
C1181 C1183 1.389 . S
C1182 H1155 0.950 1_565 S
C1182 C1168 1.377 . S
C1182 C1181 1.373 . S
C1183 C1167 1.377 . S
C1183 C1181 1.389 . S
C1183 C1184 1.524 . S
C1184 C1183 1.524 . S
C1184 C1185 1.397 . S
C1184 C1189 1.363 . S
C1185 H1156 0.950 . S
C1185 C1184 1.397 . S
C1185 C1186 1.334 . S
C1186 H1157 0.950 . S
C1186 C1185 1.334 . S
C1186 C1187 1.287 . S
C1187 C1186 1.287 . S
C1187 C1188 1.524 . S
C1187 H1190 0.999 . S
C1188 H1158 0.950 . S
C1188 C1187 1.524 . S
C1188 C1189 1.415 . S
C1189 H1159 0.950 . S
C1189 C1184 1.363 . S
C1189 C1188 1.415 . S
H1190 C1187 0.999 . S
H1191 C1172 0.913 . S
H1192 C1210 0.951 . S
H1193 C1212 0.951 . S
H1194 C1214 0.950 . S
H1195 C1215 0.950 . S
H1196 C1217 0.950 . S
H1197 C1220 0.950 . S
H1198 C1221 0.950 . S
H1199 C1223 0.950 . S
H1200 C1224 0.950 . S
H1201 C1225 0.951 . S
H1202 C1227 0.951 . S
H1203 C1229 0.950 . S
H1204 C1230 0.950 . S
H1205 C1232 0.950 . S
H1206 C1235 0.950 . S
H1207 C1236 0.950 . S
H1208 C1238 0.950 . S
H1209 C1239 0.950 . S
C1210 H1192 0.951 . S
C1210 C1211 1.366 . S
C1210 C1212 1.388 . S
C1211 C1210 1.366 . S
C1211 C1215 1.385 . S
C1212 H1193 0.951 . S
C1212 C1210 1.388 . S
C1212 C1213 1.366 . S
C1213 C1212 1.366 . S
C1213 C1214 1.414 . S
C1213 C1216 1.499 . S
C1214 H1194 0.950 . S
C1214 C1213 1.414 . S
C1214 C1215 1.374 . S
C1215 H1195 0.950 . S
C1215 C1211 1.385 . S
C1215 C1214 1.374 . S
C1216 C1213 1.499 . S
C1216 C1217 1.373 . S
C1216 C1218 1.389 . S
C1217 H1196 0.950 . S
C1217 C1216 1.373 . S
C1217 C1233 1.377 . S
C1218 C1216 1.389 . S
C1218 C1219 1.524 . S
C1218 C1232 1.377 . S
C1219 C1218 1.524 . S
C1219 C1220 1.397 . S
C1219 C1224 1.363 . S
C1220 H1197 0.950 . S
C1220 C1219 1.397 . S
C1220 C1221 1.334 . S
C1221 H1198 0.950 . S
C1221 C1220 1.334 . S
C1221 C1222 1.287 . S
C1222 C1221 1.287 . S
C1222 C1223 1.524 . S
C1222 H1241 0.913 . S
C1223 H1199 0.950 . S
C1223 C1222 1.524 . S
C1223 C1224 1.415 . S
C1224 H1200 0.950 . S
C1224 C1219 1.363 . S
C1224 C1223 1.415 . S
C1225 H1201 0.951 . S
C1225 C1226 1.366 . S
C1225 C1227 1.388 . S
C1226 C1225 1.366 . S
C1226 C1230 1.385 . S
C1227 H1202 0.951 . S
C1227 C1225 1.388 . S
C1227 C1228 1.366 . S
C1228 C1227 1.366 . S
C1228 C1229 1.414 . S
C1228 C1231 1.499 . S
C1229 H1203 0.950 . S
C1229 C1228 1.414 . S
C1229 C1230 1.374 . S
C1230 H1204 0.950 . S
C1230 C1226 1.385 . S
C1230 C1229 1.374 . S
C1231 C1228 1.499 . S
C1231 C1232 1.373 . S
C1231 C1233 1.389 . S
C1232 H1205 0.950 . S
C1232 C1218 1.377 . S
C1232 C1231 1.373 . S
C1233 C1217 1.377 . S
C1233 C1231 1.389 . S
C1233 C1234 1.524 . S
C1234 C1233 1.524 . S
C1234 C1235 1.397 . S
C1234 C1239 1.363 . S
C1235 H1206 0.950 . S
C1235 C1234 1.397 . S
C1235 C1236 1.334 . S
C1236 H1207 0.950 . S
C1236 C1235 1.334 . S
C1236 C1237 1.287 . S
C1237 C1236 1.287 . S
C1237 C1238 1.524 . S
C1237 H1240 0.999 . S
C1238 H1208 0.950 . S
C1238 C1237 1.524 . S
C1238 C1239 1.415 . S
C1239 H1209 0.950 . S
C1239 C1234 1.363 . S
C1239 C1238 1.415 . S
H1240 C1237 0.999 . S
H1241 C1222 0.913 . S
H1242 C1260 0.951 . S
H1243 C1262 0.951 . S
H1244 C1264 0.950 . S
H1245 C1265 0.950 . S
H1246 C1267 0.950 . S
H1247 C1270 0.950 . S
H1248 C1271 0.950 . S
H1249 C1273 0.950 . S
H1250 C1274 0.950 . S
H1251 C1275 0.951 . S
H1252 C1277 0.951 . S
H1253 C1279 0.950 . S
H1254 C1280 0.950 . S
H1255 C1282 0.950 . S
H1256 C1285 0.950 . S
H1257 C1286 0.950 . S
H1258 C1288 0.950 . S
H1259 C1289 0.950 . S
C1260 H1242 0.951 . S
C1260 C1261 1.366 . S
C1260 C1262 1.388 . S
C1261 C1260 1.366 . S
C1261 C1265 1.385 . S
C1262 H1243 0.951 . S
C1262 C1260 1.388 . S
C1262 C1263 1.366 . S
C1263 C1262 1.366 . S
C1263 C1264 1.414 . S
C1263 C1266 1.499 . S
C1264 H1244 0.950 . S
C1264 C1263 1.414 . S
C1264 C1265 1.374 . S
C1265 H1245 0.950 . S
C1265 C1261 1.385 . S
C1265 C1264 1.374 . S
C1266 C1263 1.499 . S
C1266 C1267 1.373 . S
C1266 C1268 1.389 . S
C1267 H1246 0.950 . S
C1267 C1266 1.373 . S
C1267 C1283 1.377 . S
C1268 C1266 1.389 . S
C1268 C1269 1.524 . S
C1268 C1282 1.377 . S
C1269 C1268 1.524 . S
C1269 C1270 1.397 . S
C1269 C1274 1.363 . S
C1270 H1247 0.950 . S
C1270 C1269 1.397 . S
C1270 C1271 1.334 . S
C1271 H1248 0.950 . S
C1271 C1270 1.334 . S
C1271 C1272 1.287 . S
C1272 C1271 1.287 . S
C1272 C1273 1.524 . S
C1272 H1291 0.913 . S
C1273 H1249 0.950 . S
C1273 C1272 1.524 . S
C1273 C1274 1.415 . S
C1274 H1250 0.950 . S
C1274 C1269 1.363 . S
C1274 C1273 1.415 . S
C1275 H1251 0.951 . S
C1275 C1276 1.366 . S
C1275 C1277 1.388 . S
C1276 C1275 1.366 . S
C1276 C1280 1.385 . S
C1277 H1252 0.951 . S
C1277 C1275 1.388 . S
C1277 C1278 1.366 . S
C1278 C1277 1.366 . S
C1278 C1279 1.414 . S
C1278 C1281 1.499 . S
C1279 H1253 0.950 . S
C1279 C1278 1.414 . S
C1279 C1280 1.374 . S
C1280 H1254 0.950 . S
C1280 C1276 1.385 . S
C1280 C1279 1.374 . S
C1281 C1278 1.499 . S
C1281 C1282 1.373 . S
C1281 C1283 1.389 . S
C1282 H1255 0.950 . S
C1282 C1268 1.377 . S
C1282 C1281 1.373 . S
C1283 C1267 1.377 . S
C1283 C1281 1.389 . S
C1283 C1284 1.524 . S
C1284 C1283 1.524 . S
C1284 C1285 1.397 . S
C1284 C1289 1.363 . S
C1285 H1256 0.950 . S
C1285 C1284 1.397 . S
C1285 C1286 1.334 . S
C1286 H1257 0.950 . S
C1286 C1285 1.334 . S
C1286 C1287 1.287 . S
C1287 C1286 1.287 . S
C1287 C1288 1.524 . S
C1287 H1290 0.999 . S
C1288 H1258 0.950 . S
C1288 C1287 1.524 . S
C1288 C1289 1.415 . S
C1289 H1259 0.950 . S
C1289 C1284 1.363 . S
C1289 C1288 1.415 . S
H1290 C1287 0.999 . S
H1291 C1272 0.913 . S
H1292 C1310 0.951 . S
H1293 C1312 0.951 . S
H1294 C1314 0.950 . S
H1295 C1315 0.950 . S
H1296 C1317 0.950 . S
H1297 C1320 0.950 . S
H1298 C1321 0.950 . S
H1299 C1323 0.950 . S
H1300 C1324 0.950 . S
H1301 C1325 0.951 . S
H1302 C1327 0.951 . S
H1303 C1329 0.950 . S
H1304 C1330 0.950 . S
H1305 C1332 0.950 . S
H1306 C1335 0.950 . S
H1307 C1336 0.950 . S
H1308 C1338 0.950 . S
H1309 C1339 0.950 . S
C1310 H1292 0.951 . S
C1310 C1311 1.366 . S
C1310 C1312 1.388 . S
C1311 C1310 1.366 . S
C1311 C1315 1.385 . S
C1312 H1293 0.951 . S
C1312 C1310 1.388 . S
C1312 C1313 1.366 . S
C1313 C1312 1.366 . S
C1313 C1314 1.414 . S
C1313 C1316 1.499 . S
C1314 H1294 0.950 . S
C1314 C1313 1.414 . S
C1314 C1315 1.374 . S
C1315 H1295 0.950 . S
C1315 C1311 1.385 . S
C1315 C1314 1.374 . S
C1316 C1313 1.499 . S
C1316 C1317 1.373 . S
C1316 C1318 1.389 . S
C1317 H1296 0.950 . S
C1317 C1316 1.373 . S
C1317 C1333 1.377 . S
C1318 C1316 1.389 . S
C1318 C1319 1.524 . S
C1318 C1332 1.377 . S
C1319 C1318 1.524 . S
C1319 C1320 1.397 . S
C1319 C1324 1.363 . S
C1320 H1297 0.950 . S
C1320 C1319 1.397 . S
C1320 C1321 1.334 . S
C1321 H1298 0.950 . S
C1321 C1320 1.334 . S
C1321 C1322 1.287 . S
C1322 C1321 1.287 . S
C1322 C1323 1.524 . S
C1322 H1341 0.913 . S
C1323 H1299 0.950 . S
C1323 C1322 1.524 . S
C1323 C1324 1.415 . S
C1324 H1300 0.950 . S
C1324 C1319 1.363 . S
C1324 C1323 1.415 . S
C1325 H1301 0.951 . S
C1325 C1326 1.366 . S
C1325 C1327 1.388 . S
C1326 C1325 1.366 . S
C1326 C1330 1.385 . S
C1327 H1302 0.951 . S
C1327 C1325 1.388 . S
C1327 C1328 1.366 . S
C1328 C1327 1.366 . S
C1328 C1329 1.414 . S
C1328 C1331 1.499 . S
C1329 H1303 0.950 . S
C1329 C1328 1.414 . S
C1329 C1330 1.374 . S
C1330 H1304 0.950 . S
C1330 C1326 1.385 . S
C1330 C1329 1.374 . S
C1331 C1328 1.499 . S
C1331 C1332 1.373 . S
C1331 C1333 1.389 . S
C1332 H1305 0.950 . S
C1332 C1318 1.377 . S
C1332 C1331 1.373 . S
C1333 C1317 1.377 . S
C1333 C1331 1.389 . S
C1333 C1334 1.524 . S
C1334 C1333 1.524 . S
C1334 C1335 1.397 . S
C1334 C1339 1.363 . S
C1335 H1306 0.950 . S
C1335 C1334 1.397 . S
C1335 C1336 1.334 . S
C1336 H1307 0.950 . S
C1336 C1335 1.334 . S
C1336 C1337 1.287 . S
C1337 C1336 1.287 . S
C1337 C1338 1.524 . S
C1337 H1340 0.999 . S
C1338 H1308 0.950 . S
C1338 C1337 1.524 . S
C1338 C1339 1.415 . S
C1339 H1309 0.950 . S
C1339 C1334 1.363 . S
C1339 C1338 1.415 . S
H1340 C1337 0.999 . S
H1341 C1322 0.913 . S
H1342 C1360 0.951 . S
H1343 C1362 0.951 . S
H1344 C1364 0.950 . S
H1345 C1365 0.950 . S
H1346 C1367 0.950 . S
H1347 C1370 0.950 . S
H1348 C1371 0.950 . S
H1349 C1373 0.950 . S
H1350 C1374 0.950 . S
H1351 C1375 0.951 . S
H1352 C1377 0.951 . S
H1353 C1379 0.950 . S
H1354 C1380 0.950 . S
H1355 C1382 0.950 . S
H1356 C1385 0.950 . S
H1357 C1386 0.950 . S
H1358 C1388 0.950 . S
H1359 C1389 0.950 . S
C1360 H1342 0.951 . S
C1360 C1361 1.366 . S
C1360 C1362 1.388 . S
C1361 C1360 1.366 . S
C1361 C1365 1.385 . S
C1362 H1343 0.951 . S
C1362 C1360 1.388 . S
C1362 C1363 1.366 . S
C1363 C1362 1.366 . S
C1363 C1364 1.414 . S
C1363 C1366 1.499 . S
C1364 H1344 0.950 . S
C1364 C1363 1.414 . S
C1364 C1365 1.374 . S
C1365 H1345 0.950 . S
C1365 C1361 1.385 . S
C1365 C1364 1.374 . S
C1366 C1363 1.499 . S
C1366 C1367 1.373 . S
C1366 C1368 1.389 . S
C1367 H1346 0.950 . S
C1367 C1366 1.373 . S
C1367 C1383 1.377 . S
C1368 C1366 1.389 . S
C1368 C1369 1.524 . S
C1368 C1382 1.377 . S
C1369 C1368 1.524 . S
C1369 C1370 1.397 . S
C1369 C1374 1.363 . S
C1370 H1347 0.950 . S
C1370 C1369 1.397 . S
C1370 C1371 1.334 . S
C1371 H1348 0.950 . S
C1371 C1370 1.334 . S
C1371 C1372 1.287 . S
C1372 C1371 1.287 . S
C1372 C1373 1.524 . S
C1372 H1391 0.913 . S
C1373 H1349 0.950 . S
C1373 C1372 1.524 . S
C1373 C1374 1.415 . S
C1374 H1350 0.950 . S
C1374 C1369 1.363 . S
C1374 C1373 1.415 . S
C1375 H1351 0.951 . S
C1375 C1376 1.366 . S
C1375 C1377 1.388 . S
C1376 C1375 1.366 . S
C1376 C1380 1.385 . S
C1377 H1352 0.951 . S
C1377 C1375 1.388 . S
C1377 C1378 1.366 . S
C1378 C1377 1.366 . S
C1378 C1379 1.414 . S
C1378 C1381 1.499 . S
C1379 H1353 0.950 . S
C1379 C1378 1.414 . S
C1379 C1380 1.374 . S
C1380 H1354 0.950 . S
C1380 C1376 1.385 . S
C1380 C1379 1.374 . S
C1381 C1378 1.499 . S
C1381 C1382 1.373 . S
C1381 C1383 1.389 . S
C1382 H1355 0.950 . S
C1382 C1368 1.377 . S
C1382 C1381 1.373 . S
C1383 C1367 1.377 . S
C1383 C1381 1.389 . S
C1383 C1384 1.524 . S
C1384 C1383 1.524 . S
C1384 C1385 1.397 . S
C1384 C1389 1.363 . S
C1385 H1356 0.950 . S
C1385 C1384 1.397 . S
C1385 C1386 1.334 . S
C1386 H1357 0.950 . S
C1386 C1385 1.334 . S
C1386 C1387 1.287 . S
C1387 C1386 1.287 . S
C1387 C1388 1.524 . S
C1387 H1390 0.999 . S
C1388 H1358 0.950 . S
C1388 C1387 1.524 . S
C1388 C1389 1.415 . S
C1389 H1359 0.950 . S
C1389 C1384 1.363 . S
C1389 C1388 1.415 . S
H1390 C1387 0.999 . S
H1391 C1372 0.913 . S
H1392 C1410 0.951 . S
H1393 C1412 0.951 . S
H1394 C1414 0.950 . S
H1395 C1415 0.950 . S
H1396 C1417 0.950 . S
H1397 C1420 0.950 . S
H1398 C1421 0.950 . S
H1399 C1423 0.950 . S
H1400 C1424 0.950 . S
H1401 C1425 0.951 . S
H1402 C1427 0.951 . S
H1403 C1429 0.950 . S
H1404 C1430 0.950 . S
H1405 C1432 0.950 . S
H1406 C1435 0.950 . S
H1407 C1436 0.950 . S
H1408 C1438 0.950 . S
H1409 C1439 0.950 . S
C1410 H1392 0.951 . S
C1410 C1411 1.366 . S
C1410 C1412 1.388 . S
C1411 C1410 1.366 . S
C1411 C1415 1.385 . S
C1412 H1393 0.951 . S
C1412 C1410 1.388 . S
C1412 C1413 1.366 . S
C1413 C1412 1.366 . S
C1413 C1414 1.414 . S
C1413 C1416 1.499 . S
C1414 H1394 0.950 . S
C1414 C1413 1.414 . S
C1414 C1415 1.374 . S
C1415 H1395 0.950 . S
C1415 C1411 1.385 . S
C1415 C1414 1.374 . S
C1416 C1413 1.499 . S
C1416 C1417 1.373 . S
C1416 C1418 1.389 . S
C1417 H1396 0.950 . S
C1417 C1416 1.373 . S
C1417 C1433 1.377 . S
C1418 C1416 1.389 . S
C1418 C1419 1.524 . S
C1418 C1432 1.377 . S
C1419 C1418 1.524 . S
C1419 C1420 1.397 . S
C1419 C1424 1.363 . S
C1420 H1397 0.950 . S
C1420 C1419 1.397 . S
C1420 C1421 1.334 . S
C1421 H1398 0.950 . S
C1421 C1420 1.334 . S
C1421 C1422 1.287 . S
C1422 C1421 1.287 . S
C1422 C1423 1.524 . S
C1422 H1441 0.913 . S
C1423 H1399 0.950 . S
C1423 C1422 1.524 . S
C1423 C1424 1.415 . S
C1424 H1400 0.950 . S
C1424 C1419 1.363 . S
C1424 C1423 1.415 . S
C1425 H1401 0.951 . S
C1425 C1426 1.366 . S
C1425 C1427 1.388 . S
C1426 C1425 1.366 . S
C1426 C1430 1.385 . S
C1427 H1402 0.951 . S
C1427 C1425 1.388 . S
C1427 C1428 1.366 . S
C1428 C1427 1.366 . S
C1428 C1429 1.414 . S
C1428 C1431 1.499 . S
C1429 H1403 0.950 . S
C1429 C1428 1.414 . S
C1429 C1430 1.374 . S
C1430 H1404 0.950 . S
C1430 C1426 1.385 . S
C1430 C1429 1.374 . S
C1431 C1428 1.499 . S
C1431 C1432 1.373 . S
C1431 C1433 1.389 . S
C1432 H1405 0.950 . S
C1432 C1418 1.377 . S
C1432 C1431 1.373 . S
C1433 C1417 1.377 . S
C1433 C1431 1.389 . S
C1433 C1434 1.524 . S
C1434 C1433 1.524 . S
C1434 C1435 1.397 . S
C1434 C1439 1.363 . S
C1435 H1406 0.950 . S
C1435 C1434 1.397 . S
C1435 C1436 1.334 . S
C1436 H1407 0.950 . S
C1436 C1435 1.334 . S
C1436 C1437 1.287 . S
C1437 C1436 1.287 . S
C1437 C1438 1.524 . S
C1437 H1440 0.999 . S
C1438 H1408 0.950 . S
C1438 C1437 1.524 . S
C1438 C1439 1.415 . S
C1439 H1409 0.950 . S
C1439 C1434 1.363 . S
C1439 C1438 1.415 . S
H1440 C1437 0.999 . S
H1441 C1422 0.913 . S
H1442 C1460 0.951 . S
H1443 C1462 0.951 . S
H1444 C1464 0.950 . S
H1445 C1465 0.950 . S
H1446 C1467 0.950 . S
H1447 C1470 0.950 . S
H1448 C1471 0.950 . S
H1449 C1473 0.950 . S
H1450 C1474 0.950 . S
H1451 C1475 0.951 1_655 S
H1452 C1477 0.964 . S
H1453 C1479 0.950 . S
H1454 C1480 0.950 . S
H1455 C1482 0.950 . S
H1456 C1485 0.950 1_455 S
H1457 C1486 0.950 . S
H1458 C1488 0.950 . S
H1459 C1489 0.950 . S
C1460 H1442 0.951 . S
C1460 C1461 1.366 . S
C1460 C1462 1.388 . S
C1461 C1460 1.366 . S
C1461 C1465 1.385 . S
C1462 H1443 0.951 . S
C1462 C1460 1.388 . S
C1462 C1463 1.366 . S
C1463 C1462 1.366 . S
C1463 C1464 1.414 . S
C1463 C1466 1.499 . S
C1464 H1444 0.950 . S
C1464 C1463 1.414 . S
C1464 C1465 1.374 . S
C1465 H1445 0.950 . S
C1465 C1461 1.385 . S
C1465 C1464 1.374 . S
C1466 C1463 1.499 . S
C1466 C1467 1.373 . S
C1466 C1468 1.389 . S
C1467 H1446 0.950 . S
C1467 C1466 1.373 . S
C1467 C1483 1.377 . S
C1468 C1466 1.389 . S
C1468 C1469 1.524 . S
C1468 C1482 1.377 . S
C1469 C1468 1.524 . S
C1469 C1470 1.397 . S
C1469 C1474 1.363 . S
C1470 H1447 0.950 . S
C1470 C1469 1.397 . S
C1470 C1471 1.334 . S
C1471 H1448 0.950 . S
C1471 C1470 1.334 . S
C1471 C1472 1.287 . S
C1472 C1471 1.287 . S
C1472 C1473 1.524 . S
C1472 H1491 0.913 . S
C1473 H1449 0.950 . S
C1473 C1472 1.524 . S
C1473 C1474 1.415 . S
C1474 H1450 0.950 . S
C1474 C1469 1.363 . S
C1474 C1473 1.415 . S
C1475 H1451 0.951 1_455 S
C1475 C1476 1.366 . S
C1475 C1477 1.388 . S
C1476 C1475 1.366 . S
C1476 C1480 1.385 . S
C1477 H1452 0.964 . S
C1477 C1475 1.388 . S
C1477 C1478 1.366 . S
C1478 C1477 1.366 . S
C1478 C1479 1.414 . S
C1478 C1481 1.499 . S
C1479 H1453 0.950 . S
C1479 C1478 1.414 . S
C1479 C1480 1.374 . S
C1480 H1454 0.950 . S
C1480 C1476 1.385 . S
C1480 C1479 1.374 . S
C1481 C1478 1.499 . S
C1481 C1482 1.373 . S
C1481 C1483 1.389 . S
C1482 H1455 0.950 . S
C1482 C1468 1.377 . S
C1482 C1481 1.373 . S
C1483 C1467 1.377 . S
C1483 C1481 1.389 . S
C1483 C1484 1.524 1_455 S
C1484 C1483 1.524 1_655 S
C1484 C1485 1.397 . S
C1484 C1489 1.363 . S
C1485 H1456 0.950 1_655 S
C1485 C1484 1.397 . S
C1485 C1486 1.334 . S
C1486 H1457 0.950 . S
C1486 C1485 1.334 . S
C1486 C1487 1.287 . S
C1487 C1486 1.287 . S
C1487 C1488 1.524 . S
C1487 H1490 0.999 . S
C1488 H1458 0.950 . S
C1488 C1487 1.524 . S
C1488 C1489 1.415 . S
C1489 H1459 0.950 . S
C1489 C1484 1.363 . S
C1489 C1488 1.415 . S
H1490 C1487 0.999 . S
H1491 C1472 0.913 . S
H1492 C1510 0.951 . S
H1493 C1512 0.951 . S
H1494 C1514 0.950 . S
H1495 C1515 0.950 . S
H1496 C1517 0.950 . S
H1497 C1520 0.950 . S
H1498 C1521 0.950 . S
H1499 C1523 0.950 . S
H1500 C1524 0.950 . S
H1501 C1525 0.951 . S
H1502 C1527 0.951 . S
H1503 C1529 0.950 . S
H1504 C1530 0.950 . S
H1505 C1532 0.950 . S
H1506 C1535 0.950 . S
H1507 C1536 0.950 . S
H1508 C1538 0.950 . S
H1509 C1539 0.950 . S
C1510 H1492 0.951 . S
C1510 C1511 1.366 . S
C1510 C1512 1.388 . S
C1511 C1510 1.366 . S
C1511 C1515 1.385 . S
C1512 H1493 0.951 . S
C1512 C1510 1.388 . S
C1512 C1513 1.366 . S
C1513 C1512 1.366 . S
C1513 C1514 1.414 . S
C1513 C1516 1.499 . S
C1514 H1494 0.950 . S
C1514 C1513 1.414 . S
C1514 C1515 1.374 . S
C1515 H1495 0.950 . S
C1515 C1511 1.385 . S
C1515 C1514 1.374 . S
C1516 C1513 1.499 . S
C1516 C1517 1.373 . S
C1516 C1518 1.389 . S
C1517 H1496 0.950 . S
C1517 C1516 1.373 . S
C1517 C1533 1.377 . S
C1518 C1516 1.389 . S
C1518 C1519 1.524 . S
C1518 C1532 1.377 . S
C1519 C1518 1.524 . S
C1519 C1520 1.397 . S
C1519 C1524 1.363 . S
C1520 H1497 0.950 . S
C1520 C1519 1.397 . S
C1520 C1521 1.334 . S
C1521 H1498 0.950 . S
C1521 C1520 1.334 . S
C1521 C1522 1.287 . S
C1522 C1521 1.287 . S
C1522 C1523 1.524 . S
C1522 H1541 0.913 . S
C1523 H1499 0.950 . S
C1523 C1522 1.524 . S
C1523 C1524 1.415 . S
C1524 H1500 0.950 . S
C1524 C1519 1.363 . S
C1524 C1523 1.415 . S
C1525 H1501 0.951 . S
C1525 C1526 1.366 . S
C1525 C1527 1.388 . S
C1526 C1525 1.366 . S
C1526 C1530 1.385 . S
C1527 H1502 0.951 . S
C1527 C1525 1.388 . S
C1527 C1528 1.366 . S
C1528 C1527 1.366 . S
C1528 C1529 1.414 . S
C1528 C1531 1.499 . S
C1529 H1503 0.950 . S
C1529 C1528 1.414 . S
C1529 C1530 1.374 . S
C1530 H1504 0.950 . S
C1530 C1526 1.385 . S
C1530 C1529 1.374 . S
C1531 C1528 1.499 . S
C1531 C1532 1.373 . S
C1531 C1533 1.389 . S
C1532 H1505 0.950 . S
C1532 C1518 1.377 . S
C1532 C1531 1.373 . S
C1533 C1517 1.377 . S
C1533 C1531 1.389 . S
C1533 C1534 1.524 . S
C1534 C1533 1.524 . S
C1534 C1535 1.397 . S
C1534 C1539 1.363 . S
C1535 H1506 0.950 . S
C1535 C1534 1.397 . S
C1535 C1536 1.334 . S
C1536 H1507 0.950 . S
C1536 C1535 1.334 . S
C1536 C1537 1.287 . S
C1537 C1536 1.287 . S
C1537 C1538 1.524 . S
C1537 H1540 0.999 . S
C1538 H1508 0.950 . S
C1538 C1537 1.524 . S
C1538 C1539 1.415 . S
C1539 H1509 0.950 . S
C1539 C1534 1.363 . S
C1539 C1538 1.415 . S
H1540 C1537 0.999 . S
H1541 C1522 0.913 . S
H1542 C1560 0.951 . S
H1543 C1562 0.951 . S
H1544 C1564 0.950 . S
H1545 C1565 0.950 . S
H1546 C1567 0.950 . S
H1547 C1570 0.950 1_655 S
H1548 C1571 0.950 . S
H1549 C1573 0.950 . S
H1550 C1574 0.950 . S
H1551 C1575 0.951 . S
H1552 C1577 0.951 . S
H1553 C1579 0.950 . S
H1554 C1580 0.950 . S
H1555 C1582 0.892 1_455 S
H1556 C1585 0.950 . S
H1557 C1586 0.950 . S
H1558 C1588 0.950 . S
H1559 C1589 0.950 . S
C1560 H1542 0.951 . S
C1560 C1561 1.366 . S
C1560 C1562 1.388 . S
C1561 C1560 1.366 . S
C1561 C1565 1.385 . S
C1562 H1543 0.951 . S
C1562 C1560 1.388 . S
C1562 C1563 1.366 . S
C1563 C1562 1.366 . S
C1563 C1564 1.414 . S
C1563 C1566 1.499 . S
C1564 H1544 0.950 . S
C1564 C1563 1.414 . S
C1564 C1565 1.374 . S
C1565 H1545 0.950 . S
C1565 C1561 1.385 . S
C1565 C1564 1.374 . S
C1566 C1563 1.499 . S
C1566 C1567 1.373 . S
C1566 C1568 1.389 . S
C1567 H1546 0.950 . S
C1567 C1566 1.373 . S
C1567 C1583 1.377 . S
C1568 C1566 1.389 . S
C1568 C1569 1.524 1_655 S
C1568 C1582 1.388 . S
C1569 C1568 1.524 1_455 S
C1569 C1570 1.397 . S
C1569 C1574 1.363 . S
C1570 H1547 0.950 1_455 S
C1570 C1569 1.397 . S
C1570 C1571 1.334 . S
C1571 H1548 0.950 . S
C1571 C1570 1.334 . S
C1571 C1572 1.287 . S
C1572 C1571 1.287 . S
C1572 C1573 1.524 . S
C1572 H1591 0.913 . S
C1573 H1549 0.950 . S
C1573 C1572 1.524 . S
C1573 C1574 1.415 . S
C1574 H1550 0.950 . S
C1574 C1569 1.363 . S
C1574 C1573 1.415 . S
C1575 H1551 0.951 . S
C1575 C1576 1.366 . S
C1575 C1577 1.388 . S
C1576 C1575 1.366 . S
C1576 C1580 1.385 1_655 S
C1577 H1552 0.951 . S
C1577 C1575 1.388 . S
C1577 C1578 1.366 . S
C1578 C1577 1.366 . S
C1578 C1579 1.414 1_655 S
C1578 C1581 1.499 . S
C1579 H1553 0.950 . S
C1579 C1578 1.414 1_455 S
C1579 C1580 1.374 . S
C1580 H1554 0.950 . S
C1580 C1576 1.385 1_455 S
C1580 C1579 1.374 . S
C1581 C1578 1.499 . S
C1581 C1582 1.423 . S
C1581 C1583 1.389 . S
C1582 H1555 0.892 1_655 S
C1582 C1568 1.388 . S
C1582 C1581 1.423 . S
C1583 C1567 1.377 . S
C1583 C1581 1.389 . S
C1583 C1584 1.524 . S
C1584 C1583 1.524 . S
C1584 C1585 1.397 . S
C1584 C1589 1.363 . S
C1585 H1556 0.950 . S
C1585 C1584 1.397 . S
C1585 C1586 1.334 . S
C1586 H1557 0.950 . S
C1586 C1585 1.334 . S
C1586 C1587 1.287 . S
C1587 C1586 1.287 . S
C1587 C1588 1.524 . S
C1587 H1590 0.999 . S
C1588 H1558 0.950 . S
C1588 C1587 1.524 . S
C1588 C1589 1.415 . S
C1589 H1559 0.950 . S
C1589 C1584 1.363 . S
C1589 C1588 1.415 . S
H1590 C1587 0.999 . S
H1591 C1572 0.913 . S
H1592 C1610 0.951 . S
H1593 C1612 0.951 . S
H1594 C1614 0.950 . S
H1595 C1615 0.950 . S
H1596 C1617 0.950 . S
H1597 C1620 0.950 . S
H1598 C1621 0.950 . S
H1599 C1623 0.950 . S
H1600 C1624 0.950 . S
H1601 C1625 0.951 . S
H1602 C1627 0.951 . S
H1603 C1629 0.950 . S
H1604 C1630 0.950 . S
H1605 C1632 0.950 . S
H1606 C1635 0.950 . S
H1607 C1636 0.950 . S
H1608 C1638 0.950 . S
H1609 C1639 0.950 . S
C1610 H1592 0.951 . S
C1610 C1611 1.366 . S
C1610 C1612 1.388 . S
C1611 C1610 1.366 . S
C1611 C1615 1.385 . S
C1612 H1593 0.951 . S
C1612 C1610 1.388 . S
C1612 C1613 1.366 . S
C1613 C1612 1.366 . S
C1613 C1614 1.414 . S
C1613 C1616 1.499 . S
C1614 H1594 0.950 . S
C1614 C1613 1.414 . S
C1614 C1615 1.374 . S
C1615 H1595 0.950 . S
C1615 C1611 1.385 . S
C1615 C1614 1.374 . S
C1616 C1613 1.499 . S
C1616 C1617 1.373 . S
C1616 C1618 1.389 . S
C1617 H1596 0.950 . S
C1617 C1616 1.373 . S
C1617 C1633 1.377 . S
C1618 C1616 1.389 . S
C1618 C1619 1.524 . S
C1618 C1632 1.377 . S
C1619 C1618 1.524 . S
C1619 C1620 1.397 . S
C1619 C1624 1.363 . S
C1620 H1597 0.950 . S
C1620 C1619 1.397 . S
C1620 C1621 1.334 . S
C1621 H1598 0.950 . S
C1621 C1620 1.334 . S
C1621 C1622 1.287 . S
C1622 C1621 1.287 . S
C1622 C1623 1.524 . S
C1622 H1641 0.913 . S
C1623 H1599 0.950 . S
C1623 C1622 1.524 . S
C1623 C1624 1.415 . S
C1624 H1600 0.950 . S
C1624 C1619 1.363 . S
C1624 C1623 1.415 . S
C1625 H1601 0.951 . S
C1625 C1626 1.366 . S
C1625 C1627 1.388 . S
C1626 C1625 1.366 . S
C1626 C1630 1.385 . S
C1627 H1602 0.951 . S
C1627 C1625 1.388 . S
C1627 C1628 1.366 . S
C1628 C1627 1.366 . S
C1628 C1629 1.414 . S
C1628 C1631 1.499 . S
C1629 H1603 0.950 . S
C1629 C1628 1.414 . S
C1629 C1630 1.374 . S
C1630 H1604 0.950 . S
C1630 C1626 1.385 . S
C1630 C1629 1.374 . S
C1631 C1628 1.499 . S
C1631 C1632 1.373 . S
C1631 C1633 1.389 . S
C1632 H1605 0.950 . S
C1632 C1618 1.377 . S
C1632 C1631 1.373 . S
C1633 C1617 1.377 . S
C1633 C1631 1.389 . S
C1633 C1634 1.524 . S
C1634 C1633 1.524 . S
C1634 C1635 1.397 . S
C1634 C1639 1.363 . S
C1635 H1606 0.950 . S
C1635 C1634 1.397 . S
C1635 C1636 1.334 . S
C1636 H1607 0.950 . S
C1636 C1635 1.334 . S
C1636 C1637 1.287 . S
C1637 C1636 1.287 . S
C1637 C1638 1.524 . S
C1637 H1640 0.999 . S
C1638 H1608 0.950 . S
C1638 C1637 1.524 . S
C1638 C1639 1.415 . S
C1639 H1609 0.950 . S
C1639 C1634 1.363 . S
C1639 C1638 1.415 . S
H1640 C1637 0.999 . S
H1641 C1622 0.913 . S
H1642 C1660 0.951 . S
H1643 C1662 0.951 . S
H1644 C1664 0.950 . S
H1645 C1665 0.950 . S
H1646 C1667 0.950 . S
H1647 C1670 0.950 . S
H1648 C1671 0.950 . S
H1649 C1673 0.950 . S
H1650 C1674 0.950 . S
H1651 C1675 0.951 . S
H1652 C1677 0.951 . S
H1653 C1679 0.950 . S
H1654 C1680 0.950 . S
H1655 C1682 0.950 . S
H1656 C1685 0.950 . S
H1657 C1686 0.950 . S
H1658 C1688 0.950 . S
H1659 C1689 0.950 . S
C1660 H1642 0.951 . S
C1660 C1661 1.366 . S
C1660 C1662 1.388 . S
C1661 C1660 1.366 . S
C1661 C1665 1.385 . S
C1662 H1643 0.951 . S
C1662 C1660 1.388 . S
C1662 C1663 1.366 . S
C1663 C1662 1.366 . S
C1663 C1664 1.414 . S
C1663 C1666 1.499 . S
C1664 H1644 0.950 . S
C1664 C1663 1.414 . S
C1664 C1665 1.374 . S
C1665 H1645 0.950 . S
C1665 C1661 1.385 . S
C1665 C1664 1.374 . S
C1666 C1663 1.499 . S
C1666 C1667 1.373 . S
C1666 C1668 1.389 . S
C1667 H1646 0.950 . S
C1667 C1666 1.373 . S
C1667 C1683 1.377 . S
C1668 C1666 1.389 . S
C1668 C1669 1.524 . S
C1668 C1682 1.377 . S
C1669 C1668 1.524 . S
C1669 C1670 1.397 . S
C1669 C1674 1.363 . S
C1670 H1647 0.950 . S
C1670 C1669 1.397 . S
C1670 C1671 1.334 . S
C1671 H1648 0.950 . S
C1671 C1670 1.334 . S
C1671 C1672 1.287 . S
C1672 C1671 1.287 . S
C1672 C1673 1.524 . S
C1672 H1691 0.913 . S
C1673 H1649 0.950 . S
C1673 C1672 1.524 . S
C1673 C1674 1.415 . S
C1674 H1650 0.950 . S
C1674 C1669 1.363 . S
C1674 C1673 1.415 . S
C1675 H1651 0.951 . S
C1675 C1676 1.366 . S
C1675 C1677 1.388 . S
C1676 C1675 1.366 . S
C1676 C1680 1.385 . S
C1677 H1652 0.951 . S
C1677 C1675 1.388 . S
C1677 C1678 1.366 . S
C1678 C1677 1.366 . S
C1678 C1679 1.414 . S
C1678 C1681 1.499 . S
C1679 H1653 0.950 . S
C1679 C1678 1.414 . S
C1679 C1680 1.374 . S
C1680 H1654 0.950 . S
C1680 C1676 1.385 . S
C1680 C1679 1.374 . S
C1681 C1678 1.499 . S
C1681 C1682 1.373 . S
C1681 C1683 1.389 . S
C1682 H1655 0.950 . S
C1682 C1668 1.377 . S
C1682 C1681 1.373 . S
C1683 C1667 1.377 . S
C1683 C1681 1.389 . S
C1683 C1684 1.524 . S
C1684 C1683 1.524 . S
C1684 C1685 1.397 . S
C1684 C1689 1.363 . S
C1685 H1656 0.950 . S
C1685 C1684 1.397 . S
C1685 C1686 1.334 . S
C1686 H1657 0.950 . S
C1686 C1685 1.334 . S
C1686 C1687 1.287 . S
C1687 C1686 1.287 . S
C1687 C1688 1.524 . S
C1687 H1690 0.999 . S
C1688 H1658 0.950 . S
C1688 C1687 1.524 . S
C1688 C1689 1.415 . S
C1689 H1659 0.950 . S
C1689 C1684 1.363 . S
C1689 C1688 1.415 . S
H1690 C1687 0.999 . S
H1691 C1672 0.913 . S
H1692 C1710 0.951 . S
H1693 C1712 0.951 . S
H1694 C1714 0.950 . S
H1695 C1715 0.950 . S
H1696 C1717 0.950 . S
H1697 C1720 0.950 . S
H1698 C1721 0.950 . S
H1699 C1723 0.950 . S
H1700 C1724 0.950 . S
H1701 C1725 0.951 . S
H1702 C1727 0.951 . S
H1703 C1729 0.950 . S
H1704 C1730 0.950 . S
H1705 C1732 0.950 . S
H1706 C1735 0.950 . S
H1707 C1736 0.950 . S
H1708 C1738 0.950 . S
H1709 C1739 0.950 . S
C1710 H1692 0.951 . S
C1710 C1711 1.366 . S
C1710 C1712 1.388 1_545 S
C1711 C1710 1.366 . S
C1711 C1715 1.385 1_545 S
C1712 H1693 0.951 . S
C1712 C1710 1.388 1_565 S
C1712 C1713 1.366 . S
C1713 C1712 1.366 . S
C1713 C1714 1.414 . S
C1713 C1716 1.499 . S
C1714 H1694 0.950 . S
C1714 C1713 1.414 . S
C1714 C1715 1.374 . S
C1715 H1695 0.950 . S
C1715 C1711 1.385 1_565 S
C1715 C1714 1.374 . S
C1716 C1713 1.499 . S
C1716 C1717 1.373 . S
C1716 C1718 1.389 . S
C1717 H1696 0.950 . S
C1717 C1716 1.373 . S
C1717 C1733 1.377 . S
C1718 C1716 1.389 . S
C1718 C1719 1.524 . S
C1718 C1732 1.377 . S
C1719 C1718 1.524 . S
C1719 C1720 1.397 1_556 S
C1719 C1724 1.363 . S
C1720 H1697 0.950 . S
C1720 C1719 1.397 1_554 S
C1720 C1721 1.334 1_565 S
C1721 H1698 0.950 . S
C1721 C1720 1.334 1_545 S
C1721 C1722 1.287 . S
C1722 C1721 1.287 . S
C1722 C1723 1.524 . S
C1722 H1741 0.913 . S
C1723 H1699 0.950 . S
C1723 C1722 1.524 . S
C1723 C1724 1.415 1_544 S
C1724 H1700 0.950 . S
C1724 C1719 1.363 . S
C1724 C1723 1.415 1_566 S
C1725 H1701 0.951 . S
C1725 C1726 1.366 . S
C1725 C1727 1.388 . S
C1726 C1725 1.366 . S
C1726 C1730 1.385 . S
C1727 H1702 0.951 . S
C1727 C1725 1.388 . S
C1727 C1728 1.366 . S
C1728 C1727 1.366 . S
C1728 C1729 1.414 . S
C1728 C1731 1.499 . S
C1729 H1703 0.950 . S
C1729 C1728 1.414 . S
C1729 C1730 1.374 . S
C1730 H1704 0.950 . S
C1730 C1726 1.385 . S
C1730 C1729 1.374 . S
C1731 C1728 1.499 . S
C1731 C1732 1.373 . S
C1731 C1733 1.389 . S
C1732 H1705 0.950 . S
C1732 C1718 1.377 . S
C1732 C1731 1.373 . S
C1733 C1717 1.377 . S
C1733 C1731 1.389 . S
C1733 C1734 1.524 . S
C1734 C1733 1.524 . S
C1734 C1735 1.397 . S
C1734 C1739 1.363 . S
C1735 H1706 0.950 . S
C1735 C1734 1.397 . S
C1735 C1736 1.334 . S
C1736 H1707 0.950 . S
C1736 C1735 1.334 . S
C1736 C1737 1.287 . S
C1737 C1736 1.287 . S
C1737 C1738 1.524 . S
C1737 H1740 0.999 . S
C1738 H1708 0.950 . S
C1738 C1737 1.524 . S
C1738 C1739 1.415 . S
C1739 H1709 0.950 . S
C1739 C1734 1.363 . S
C1739 C1738 1.415 . S
H1740 C1737 0.999 . S
H1741 C1722 0.913 . S
H1742 C1760 0.951 . S
H1743 C1762 0.951 . S
H1744 C1764 0.950 . S
H1745 C1765 0.950 . S
H1746 C1767 0.950 . S
H1747 C1770 0.950 . S
H1748 C1771 0.950 . S
H1749 C1773 0.950 . S
H1750 C1774 0.950 . S
H1751 C1775 0.951 . S
H1752 C1777 0.951 . S
H1753 C1779 0.950 . S
H1754 C1780 0.950 . S
H1755 C1782 0.950 . S
H1756 C1785 0.950 . S
H1757 C1786 0.950 . S
H1758 C1788 0.950 . S
H1759 C1789 0.950 . S
C1760 H1742 0.951 . S
C1760 C1761 1.366 . S
C1760 C1762 1.388 . S
C1761 C1760 1.366 . S
C1761 C1765 1.385 . S
C1762 H1743 0.951 . S
C1762 C1760 1.388 . S
C1762 C1763 1.366 . S
C1763 C1762 1.366 . S
C1763 C1764 1.414 . S
C1763 C1766 1.499 . S
C1764 H1744 0.950 . S
C1764 C1763 1.414 . S
C1764 C1765 1.374 . S
C1765 H1745 0.950 . S
C1765 C1761 1.385 . S
C1765 C1764 1.374 . S
C1766 C1763 1.499 . S
C1766 C1767 1.373 . S
C1766 C1768 1.389 . S
C1767 H1746 0.950 . S
C1767 C1766 1.373 . S
C1767 C1783 1.377 . S
C1768 C1766 1.389 . S
C1768 C1769 1.524 . S
C1768 C1782 1.377 . S
C1769 C1768 1.524 . S
C1769 C1770 1.397 . S
C1769 C1774 1.363 . S
C1770 H1747 0.950 . S
C1770 C1769 1.397 . S
C1770 C1771 1.334 . S
C1771 H1748 0.950 . S
C1771 C1770 1.334 . S
C1771 C1772 1.287 . S
C1772 C1771 1.287 . S
C1772 C1773 1.524 . S
C1772 H1791 0.913 . S
C1773 H1749 0.950 . S
C1773 C1772 1.524 . S
C1773 C1774 1.415 . S
C1774 H1750 0.950 . S
C1774 C1769 1.363 . S
C1774 C1773 1.415 . S
C1775 H1751 0.951 . S
C1775 C1776 1.366 . S
C1775 C1777 1.388 . S
C1776 C1775 1.366 . S
C1776 C1780 1.385 . S
C1777 H1752 0.951 . S
C1777 C1775 1.388 . S
C1777 C1778 1.366 . S
C1778 C1777 1.366 . S
C1778 C1779 1.414 . S
C1778 C1781 1.499 . S
C1779 H1753 0.950 . S
C1779 C1778 1.414 . S
C1779 C1780 1.374 . S
C1780 H1754 0.950 . S
C1780 C1776 1.385 . S
C1780 C1779 1.374 . S
C1781 C1778 1.499 . S
C1781 C1782 1.373 . S
C1781 C1783 1.389 . S
C1782 H1755 0.950 . S
C1782 C1768 1.377 . S
C1782 C1781 1.373 . S
C1783 C1767 1.377 . S
C1783 C1781 1.389 . S
C1783 C1784 1.524 . S
C1784 C1783 1.524 . S
C1784 C1785 1.397 . S
C1784 C1789 1.363 . S
C1785 H1756 0.950 . S
C1785 C1784 1.397 . S
C1785 C1786 1.334 . S
C1786 H1757 0.950 . S
C1786 C1785 1.334 . S
C1786 C1787 1.287 . S
C1787 C1786 1.287 . S
C1787 C1788 1.524 . S
C1787 H1790 0.999 . S
C1788 H1758 0.950 . S
C1788 C1787 1.524 . S
C1788 C1789 1.415 . S
C1789 H1759 0.950 . S
C1789 C1784 1.363 . S
C1789 C1788 1.415 . S
H1790 C1787 0.999 . S
H1791 C1772 0.913 . S
H1792 C1810 0.951 . S
H1793 C1812 0.951 . S
H1794 C1814 0.950 . S
H1795 C1815 0.966 . S
H1796 C1817 0.950 . S
H1797 C1820 0.950 . S
H1798 C1821 0.950 . S
H1799 C1823 0.950 . S
H1800 C1824 0.950 . S
H1801 C1825 0.951 . S
H1802 C1827 0.951 . S
H1803 C1829 0.950 . S
H1804 C1830 0.950 . S
H1805 C1832 0.950 . S
H1806 C1835 0.950 . S
H1807 C1836 0.950 . S
H1808 C1838 0.950 . S
H1809 C1839 0.950 . S
C1810 H1792 0.951 . S
C1810 C1811 1.366 . S
C1810 C1812 1.388 . S
C1811 C1810 1.366 . S
C1811 C1815 1.385 . S
C1812 H1793 0.951 . S
C1812 C1810 1.388 . S
C1812 C1813 1.366 . S
C1813 C1812 1.366 . S
C1813 C1814 1.414 . S
C1813 C1816 1.499 . S
C1814 H1794 0.950 . S
C1814 C1813 1.414 . S
C1814 C1815 1.374 . S
C1815 H1795 0.966 . S
C1815 C1811 1.385 . S
C1815 C1814 1.374 . S
C1816 C1813 1.499 . S
C1816 C1817 1.373 . S
C1816 C1818 1.389 . S
C1817 H1796 0.950 . S
C1817 C1816 1.373 . S
C1817 C1833 1.377 . S
C1818 C1816 1.389 . S
C1818 C1819 1.524 . S
C1818 C1832 1.377 . S
C1819 C1818 1.524 . S
C1819 C1820 1.397 . S
C1819 C1824 1.363 . S
C1820 H1797 0.950 . S
C1820 C1819 1.397 . S
C1820 C1821 1.334 . S
C1821 H1798 0.950 . S
C1821 C1820 1.334 . S
C1821 C1822 1.287 . S
C1822 C1821 1.287 . S
C1822 C1823 1.524 . S
C1822 H1841 0.913 . S
C1823 H1799 0.950 . S
C1823 C1822 1.524 . S
C1823 C1824 1.415 . S
C1824 H1800 0.950 . S
C1824 C1819 1.363 . S
C1824 C1823 1.415 . S
C1825 H1801 0.951 . S
C1825 C1826 1.366 . S
C1825 C1827 1.388 . S
C1826 C1825 1.366 . S
C1826 C1830 1.385 . S
C1827 H1802 0.951 . S
C1827 C1825 1.388 . S
C1827 C1828 1.366 . S
C1828 C1827 1.366 . S
C1828 C1829 1.414 . S
C1828 C1831 1.499 . S
C1829 H1803 0.950 . S
C1829 C1828 1.414 . S
C1829 C1830 1.374 . S
C1830 H1804 0.950 . S
C1830 C1826 1.385 . S
C1830 C1829 1.374 . S
C1831 C1828 1.499 . S
C1831 C1832 1.373 . S
C1831 C1833 1.389 . S
C1832 H1805 0.950 . S
C1832 C1818 1.377 . S
C1832 C1831 1.373 . S
C1833 C1817 1.377 . S
C1833 C1831 1.389 . S
C1833 C1834 1.524 . S
C1834 C1833 1.524 . S
C1834 C1835 1.397 . S
C1834 C1839 1.363 . S
C1835 H1806 0.950 . S
C1835 C1834 1.397 . S
C1835 C1836 1.334 . S
C1836 H1807 0.950 . S
C1836 C1835 1.334 . S
C1836 C1837 1.287 . S
C1837 C1836 1.287 . S
C1837 C1838 1.524 . S
C1837 H1840 0.999 . S
C1838 H1808 0.950 . S
C1838 C1837 1.524 . S
C1838 C1839 1.415 . S
C1839 H1809 0.950 . S
C1839 C1834 1.363 . S
C1839 C1838 1.415 . S
H1840 C1837 0.999 . S
H1841 C1822 0.913 . S
H1842 C1860 0.951 . S
H1843 C1862 0.951 . S
H1844 C1864 0.950 . S
H1845 C1865 0.950 . S
H1846 C1867 0.950 . S
H1847 C1870 0.950 . S
H1848 C1871 0.950 . S
H1849 C1873 0.950 . S
H1850 C1874 0.950 . S
H1851 C1875 0.951 . S
H1852 C1877 0.951 . S
H1853 C1879 0.950 . S
H1854 C1880 0.950 . S
H1855 C1882 0.950 . S
H1856 C1885 0.950 . S
H1857 C1886 0.950 . S
H1858 C1888 0.950 . S
H1859 C1889 0.950 . S
C1860 H1842 0.951 . S
C1860 C1861 1.366 . S
C1860 C1862 1.388 . S
C1861 C1860 1.366 . S
C1861 C1865 1.385 . S
C1862 H1843 0.951 . S
C1862 C1860 1.388 . S
C1862 C1863 1.366 . S
C1863 C1862 1.366 . S
C1863 C1864 1.414 . S
C1863 C1866 1.499 . S
C1864 H1844 0.950 . S
C1864 C1863 1.414 . S
C1864 C1865 1.374 . S
C1865 H1845 0.950 . S
C1865 C1861 1.385 . S
C1865 C1864 1.374 . S
C1866 C1863 1.499 . S
C1866 C1867 1.373 . S
C1866 C1868 1.389 . S
C1867 H1846 0.950 . S
C1867 C1866 1.373 . S
C1867 C1883 1.377 . S
C1868 C1866 1.389 . S
C1868 C1869 1.524 . S
C1868 C1882 1.377 . S
C1869 C1868 1.524 . S
C1869 C1870 1.397 . S
C1869 C1874 1.363 . S
C1870 H1847 0.950 . S
C1870 C1869 1.397 . S
C1870 C1871 1.334 . S
C1871 H1848 0.950 . S
C1871 C1870 1.334 . S
C1871 C1872 1.287 . S
C1872 C1871 1.287 . S
C1872 C1873 1.524 . S
C1872 H1891 0.913 . S
C1873 H1849 0.950 . S
C1873 C1872 1.524 . S
C1873 C1874 1.415 . S
C1874 H1850 0.950 . S
C1874 C1869 1.363 . S
C1874 C1873 1.415 . S
C1875 H1851 0.951 . S
C1875 C1876 1.366 . S
C1875 C1877 1.388 . S
C1876 C1875 1.366 . S
C1876 C1880 1.385 . S
C1877 H1852 0.951 . S
C1877 C1875 1.388 . S
C1877 C1878 1.366 . S
C1878 C1877 1.366 . S
C1878 C1879 1.414 . S
C1878 C1881 1.499 . S
C1879 H1853 0.950 . S
C1879 C1878 1.414 . S
C1879 C1880 1.374 . S
C1880 H1854 0.950 . S
C1880 C1876 1.385 . S
C1880 C1879 1.374 . S
C1881 C1878 1.499 . S
C1881 C1882 1.373 . S
C1881 C1883 1.389 . S
C1882 H1855 0.950 . S
C1882 C1868 1.377 . S
C1882 C1881 1.373 . S
C1883 C1867 1.377 . S
C1883 C1881 1.389 . S
C1883 C1884 1.524 . S
C1884 C1883 1.524 . S
C1884 C1885 1.397 . S
C1884 C1889 1.363 . S
C1885 H1856 0.950 . S
C1885 C1884 1.397 . S
C1885 C1886 1.334 . S
C1886 H1857 0.950 . S
C1886 C1885 1.334 . S
C1886 C1887 1.287 . S
C1887 C1886 1.287 . S
C1887 C1888 1.524 . S
C1887 H1890 0.999 . S
C1888 H1858 0.950 . S
C1888 C1887 1.524 . S
C1888 C1889 1.415 . S
C1889 H1859 0.950 . S
C1889 C1884 1.363 . S
C1889 C1888 1.415 . S
H1890 C1887 0.999 . S
H1891 C1872 0.913 . S
H1892 C1910 0.951 1_565 S
H1893 C1912 0.951 . S
H1894 C1914 0.950 . S
H1895 C1915 0.950 . S
H1896 C1917 0.950 . S
H1897 C1920 0.950 . S
H1898 C1921 0.950 . S
H1899 C1923 0.950 1_565 S
H1900 C1924 0.950 . S
H1901 C1925 0.951 . S
H1902 C1927 0.951 . S
H1903 C1929 0.950 . S
H1904 C1930 0.950 . S
H1905 C1932 0.950 . S
H1906 C1935 0.950 . S
H1907 C1936 0.950 . S
H1908 C1938 0.950 . S
H1909 C1939 0.950 . S
C1910 H1892 0.951 1_545 S
C1910 C1911 1.366 . S
C1910 C1912 1.388 . S
C1911 C1910 1.366 . S
C1911 C1915 1.385 . S
C1912 H1893 0.951 . S
C1912 C1910 1.388 . S
C1912 C1913 1.366 . S
C1913 C1912 1.366 . S
C1913 C1914 1.414 . S
C1913 C1916 1.499 . S
C1914 H1894 0.950 . S
C1914 C1913 1.414 . S
C1914 C1915 1.374 . S
C1915 H1895 0.950 . S
C1915 C1911 1.385 . S
C1915 C1914 1.374 . S
C1916 C1913 1.499 . S
C1916 C1917 1.373 . S
C1916 C1918 1.389 . S
C1917 H1896 0.950 . S
C1917 C1916 1.373 . S
C1917 C1933 1.377 . S
C1918 C1916 1.389 . S
C1918 C1919 1.524 . S
C1918 C1932 1.377 . S
C1919 C1918 1.524 . S
C1919 C1920 1.397 . S
C1919 C1924 1.363 . S
C1920 H1897 0.950 . S
C1920 C1919 1.397 . S
C1920 C1921 1.334 . S
C1921 H1898 0.950 . S
C1921 C1920 1.334 . S
C1921 C1922 1.287 . S
C1922 C1921 1.287 . S
C1922 C1923 1.524 . S
C1922 H1941 0.913 1_545 S
C1923 H1899 0.950 1_545 S
C1923 C1922 1.524 . S
C1923 C1924 1.415 . S
C1924 H1900 0.950 . S
C1924 C1919 1.363 . S
C1924 C1923 1.415 . S
C1925 H1901 0.951 . S
C1925 C1926 1.366 . S
C1925 C1927 1.388 . S
C1926 C1925 1.366 . S
C1926 C1930 1.385 . S
C1927 H1902 0.951 . S
C1927 C1925 1.388 . S
C1927 C1928 1.366 . S
C1928 C1927 1.366 . S
C1928 C1929 1.414 . S
C1928 C1931 1.499 . S
C1929 H1903 0.950 . S
C1929 C1928 1.414 . S
C1929 C1930 1.374 . S
C1930 H1904 0.950 . S
C1930 C1926 1.385 . S
C1930 C1929 1.374 . S
C1931 C1928 1.499 . S
C1931 C1932 1.373 . S
C1931 C1933 1.389 . S
C1932 H1905 0.950 . S
C1932 C1918 1.377 . S
C1932 C1931 1.373 . S
C1933 C1917 1.377 . S
C1933 C1931 1.389 . S
C1933 C1934 1.524 . S
C1934 C1933 1.524 . S
C1934 C1935 1.397 . S
C1934 C1939 1.363 . S
C1935 H1906 0.950 . S
C1935 C1934 1.397 . S
C1935 C1936 1.334 . S
C1936 H1907 0.950 . S
C1936 C1935 1.334 . S
C1936 C1937 1.287 . S
C1937 C1936 1.287 . S
C1937 C1938 1.524 . S
C1937 H1940 0.999 . S
C1938 H1908 0.950 . S
C1938 C1937 1.524 . S
C1938 C1939 1.415 . S
C1939 H1909 0.950 . S
C1939 C1934 1.363 . S
C1939 C1938 1.415 . S
H1940 C1937 0.999 . S
H1941 C1922 0.913 1_565 S
H1942 C1960 0.951 . S
H1943 C1962 0.951 . S
H1944 C1964 0.950 . S
H1945 C1965 0.950 . S
H1946 C1967 0.950 . S
H1947 C1970 0.950 . S
H1948 C1971 0.950 . S
H1949 C1973 0.950 . S
H1950 C1974 0.950 . S
H1951 C1975 0.951 . S
H1952 C1977 0.951 . S
H1953 C1979 0.950 . S
H1954 C1980 0.950 . S
H1955 C1982 0.950 . S
H1956 C1985 0.950 . S
H1957 C1986 0.950 . S
H1958 C1988 0.950 . S
H1959 C1989 0.950 . S
C1960 H1942 0.951 . S
C1960 C1961 1.366 . S
C1960 C1962 1.388 . S
C1961 C1960 1.366 . S
C1961 C1965 1.385 . S
C1962 H1943 0.951 . S
C1962 C1960 1.388 . S
C1962 C1963 1.366 . S
C1963 C1962 1.366 . S
C1963 C1964 1.414 . S
C1963 C1966 1.499 . S
C1964 H1944 0.950 . S
C1964 C1963 1.414 . S
C1964 C1965 1.374 . S
C1965 H1945 0.950 . S
C1965 C1961 1.385 . S
C1965 C1964 1.374 . S
C1966 C1963 1.499 . S
C1966 C1967 1.373 . S
C1966 C1968 1.389 . S
C1967 H1946 0.950 . S
C1967 C1966 1.373 . S
C1967 C1983 1.377 . S
C1968 C1966 1.389 . S
C1968 C1969 1.524 . S
C1968 C1982 1.377 . S
C1969 C1968 1.524 . S
C1969 C1970 1.397 . S
C1969 C1974 1.363 . S
C1970 H1947 0.950 . S
C1970 C1969 1.397 . S
C1970 C1971 1.334 . S
C1971 H1948 0.950 . S
C1971 C1970 1.334 . S
C1971 C1972 1.287 . S
C1972 C1971 1.287 . S
C1972 C1973 1.524 . S
C1972 H1991 0.913 . S
C1973 H1949 0.950 . S
C1973 C1972 1.524 . S
C1973 C1974 1.415 . S
C1974 H1950 0.950 . S
C1974 C1969 1.363 . S
C1974 C1973 1.415 . S
C1975 H1951 0.951 . S
C1975 C1976 1.366 . S
C1975 C1977 1.388 . S
C1976 C1975 1.366 . S
C1976 C1980 1.385 . S
C1977 H1952 0.951 . S
C1977 C1975 1.388 . S
C1977 C1978 1.366 . S
C1978 C1977 1.366 . S
C1978 C1979 1.414 . S
C1978 C1981 1.499 . S
C1979 H1953 0.950 . S
C1979 C1978 1.414 . S
C1979 C1980 1.374 . S
C1980 H1954 0.950 . S
C1980 C1976 1.385 . S
C1980 C1979 1.374 . S
C1981 C1978 1.499 . S
C1981 C1982 1.373 . S
C1981 C1983 1.389 . S
C1982 H1955 0.950 . S
C1982 C1968 1.377 . S
C1982 C1981 1.373 . S
C1983 C1967 1.377 . S
C1983 C1981 1.389 . S
C1983 C1984 1.524 . S
C1984 C1983 1.524 . S
C1984 C1985 1.397 . S
C1984 C1989 1.363 . S
C1985 H1956 0.950 . S
C1985 C1984 1.397 . S
C1985 C1986 1.334 . S
C1986 H1957 0.950 . S
C1986 C1985 1.334 . S
C1986 C1987 1.287 . S
C1987 C1986 1.287 . S
C1987 C1988 1.524 . S
C1987 H1990 0.999 . S
C1988 H1958 0.950 . S
C1988 C1987 1.524 . S
C1988 C1989 1.415 . S
C1989 H1959 0.950 . S
C1989 C1984 1.363 . S
C1989 C1988 1.415 . S
H1990 C1987 0.999 . S
H1991 C1972 0.913 . S
H1992 C2010 0.951 . S
H1993 C2012 0.951 . S
H1994 C2014 0.950 . S
H1995 C2015 0.950 . S
H1996 C2017 0.950 . S
H1997 C2020 0.950 . S
H1998 C2021 0.950 . S
H1999 C2023 0.950 . S
H2000 C2024 0.950 . S
H2001 C2025 0.951 . S
H2002 C2027 0.951 . S
H2003 C2029 0.950 . S
H2004 C2030 0.950 . S
H2005 C2032 0.950 . S
H2006 C2035 0.950 . S
H2007 C2036 0.950 . S
H2008 C2038 0.950 . S
H2009 C2039 0.950 . S
C2010 H1992 0.951 . S
C2010 C2011 1.366 . S
C2010 C2012 1.388 . S
C2011 C2010 1.366 . S
C2011 C2015 1.385 . S
C2012 H1993 0.951 . S
C2012 C2010 1.388 . S
C2012 C2013 1.366 . S
C2013 C2012 1.366 . S
C2013 C2014 1.414 . S
C2013 C2016 1.499 . S
C2014 H1994 0.950 . S
C2014 C2013 1.414 . S
C2014 C2015 1.374 . S
C2015 H1995 0.950 . S
C2015 C2011 1.385 . S
C2015 C2014 1.374 . S
C2016 C2013 1.499 . S
C2016 C2017 1.373 . S
C2016 C2018 1.389 . S
C2017 H1996 0.950 . S
C2017 C2016 1.373 . S
C2017 C2033 1.377 . S
C2018 C2016 1.389 . S
C2018 C2019 1.524 . S
C2018 C2032 1.377 . S
C2019 C2018 1.524 . S
C2019 C2020 1.397 . S
C2019 C2024 1.363 . S
C2020 H1997 0.950 . S
C2020 C2019 1.397 . S
C2020 C2021 1.334 . S
C2021 H1998 0.950 . S
C2021 C2020 1.334 . S
C2021 C2022 1.287 . S
C2022 C2021 1.287 . S
C2022 C2023 1.524 . S
C2022 H2041 0.913 . S
C2023 H1999 0.950 . S
C2023 C2022 1.524 . S
C2023 C2024 1.415 . S
C2024 H2000 0.950 . S
C2024 C2019 1.363 . S
C2024 C2023 1.415 . S
C2025 H2001 0.951 . S
C2025 C2026 1.366 . S
C2025 C2027 1.388 . S
C2026 C2025 1.366 . S
C2026 C2030 1.385 . S
C2027 H2002 0.951 . S
C2027 C2025 1.388 . S
C2027 C2028 1.366 . S
C2028 C2027 1.366 . S
C2028 C2029 1.414 . S
C2028 C2031 1.499 . S
C2029 H2003 0.950 . S
C2029 C2028 1.414 . S
C2029 C2030 1.374 . S
C2030 H2004 0.950 . S
C2030 C2026 1.385 . S
C2030 C2029 1.374 . S
C2031 C2028 1.499 . S
C2031 C2032 1.373 . S
C2031 C2033 1.389 . S
C2032 H2005 0.950 . S
C2032 C2018 1.377 . S
C2032 C2031 1.373 . S
C2033 C2017 1.377 . S
C2033 C2031 1.389 . S
C2033 C2034 1.524 . S
C2034 C2033 1.524 . S
C2034 C2035 1.397 . S
C2034 C2039 1.363 . S
C2035 H2006 0.950 . S
C2035 C2034 1.397 . S
C2035 C2036 1.334 . S
C2036 H2007 0.950 . S
C2036 C2035 1.334 . S
C2036 C2037 1.287 . S
C2037 C2036 1.287 . S
C2037 C2038 1.524 . S
C2037 H2040 0.999 . S
C2038 H2008 0.950 . S
C2038 C2037 1.524 . S
C2038 C2039 1.415 . S
C2039 H2009 0.950 . S
C2039 C2034 1.363 . S
C2039 C2038 1.415 . S
H2040 C2037 0.999 . S
H2041 C2022 0.913 . S
H2042 C2060 0.951 . S
H2043 C2062 0.951 . S
H2044 C2064 0.950 . S
H2045 C2065 0.950 . S
H2046 C2067 0.950 . S
H2047 C2070 0.950 . S
H2048 C2071 0.950 . S
H2049 C2073 0.950 . S
H2050 C2074 0.950 . S
H2051 C2075 0.951 . S
H2052 C2077 0.951 . S
H2053 C2079 0.950 . S
H2054 C2080 0.950 . S
H2055 C2082 0.950 . S
H2056 C2085 0.950 . S
H2057 C2086 0.950 . S
H2058 C2088 0.950 . S
H2059 C2089 0.950 . S
C2060 H2042 0.951 . S
C2060 C2061 1.366 . S
C2060 C2062 1.388 . S
C2061 C2060 1.366 . S
C2061 C2065 1.385 . S
C2062 H2043 0.951 . S
C2062 C2060 1.388 . S
C2062 C2063 1.366 . S
C2063 C2062 1.366 . S
C2063 C2064 1.414 . S
C2063 C2066 1.499 . S
C2064 H2044 0.950 . S
C2064 C2063 1.414 . S
C2064 C2065 1.374 . S
C2065 H2045 0.950 . S
C2065 C2061 1.385 . S
C2065 C2064 1.374 . S
C2066 C2063 1.499 . S
C2066 C2067 1.373 . S
C2066 C2068 1.389 . S
C2067 H2046 0.950 . S
C2067 C2066 1.373 . S
C2067 C2083 1.377 . S
C2068 C2066 1.389 . S
C2068 C2069 1.524 . S
C2068 C2082 1.377 . S
C2069 C2068 1.524 . S
C2069 C2070 1.397 . S
C2069 C2074 1.363 . S
C2070 H2047 0.950 . S
C2070 C2069 1.397 . S
C2070 C2071 1.334 . S
C2071 H2048 0.950 . S
C2071 C2070 1.334 . S
C2071 C2072 1.287 . S
C2072 C2071 1.287 . S
C2072 C2073 1.524 . S
C2072 H2091 0.913 . S
C2073 H2049 0.950 . S
C2073 C2072 1.524 . S
C2073 C2074 1.415 . S
C2074 H2050 0.950 . S
C2074 C2069 1.363 . S
C2074 C2073 1.415 . S
C2075 H2051 0.951 . S
C2075 C2076 1.366 . S
C2075 C2077 1.388 . S
C2076 C2075 1.366 . S
C2076 C2080 1.385 . S
C2077 H2052 0.951 . S
C2077 C2075 1.388 . S
C2077 C2078 1.366 . S
C2078 C2077 1.366 . S
C2078 C2079 1.414 . S
C2078 C2081 1.499 . S
C2079 H2053 0.950 . S
C2079 C2078 1.414 . S
C2079 C2080 1.374 . S
C2080 H2054 0.950 . S
C2080 C2076 1.385 . S
C2080 C2079 1.374 . S
C2081 C2078 1.499 . S
C2081 C2082 1.373 . S
C2081 C2083 1.389 . S
C2082 H2055 0.950 . S
C2082 C2068 1.377 . S
C2082 C2081 1.373 . S
C2083 C2067 1.377 . S
C2083 C2081 1.389 . S
C2083 C2084 1.524 1_545 S
C2084 C2083 1.524 1_565 S
C2084 C2085 1.397 . S
C2084 C2089 1.363 . S
C2085 H2056 0.950 . S
C2085 C2084 1.397 . S
C2085 C2086 1.334 . S
C2086 H2057 0.950 . S
C2086 C2085 1.334 . S
C2086 C2087 1.287 . S
C2087 C2086 1.287 . S
C2087 C2088 1.524 . S
C2087 H2090 0.999 . S
C2088 H2058 0.950 . S
C2088 C2087 1.524 . S
C2088 C2089 1.415 . S
C2089 H2059 0.950 . S
C2089 C2084 1.363 . S
C2089 C2088 1.415 . S
H2090 C2087 0.999 . S
H2091 C2072 0.913 . S
H2092 C2110 0.951 . S
H2093 C2112 0.951 . S
H2094 C2114 0.950 . S
H2095 C2115 0.950 . S
H2096 C2117 0.950 . S
H2097 C2120 0.950 . S
H2098 C2121 0.950 . S
H2099 C2123 0.950 . S
H2100 C2124 0.950 . S
H2101 C2125 0.951 . S
H2102 C2127 0.951 . S
H2103 C2129 0.950 . S
H2104 C2130 0.950 . S
H2105 C2132 0.950 . S
H2106 C2135 0.950 . S
H2107 C2136 0.950 . S
H2108 C2138 0.950 . S
H2109 C2139 0.950 . S
C2110 H2092 0.951 . S
C2110 C2111 1.366 . S
C2110 C2112 1.388 . S
C2111 C2110 1.366 . S
C2111 C2115 1.385 . S
C2112 H2093 0.951 . S
C2112 C2110 1.388 . S
C2112 C2113 1.366 . S
C2113 C2112 1.366 . S
C2113 C2114 1.414 . S
C2113 C2116 1.499 . S
C2114 H2094 0.950 . S
C2114 C2113 1.414 . S
C2114 C2115 1.374 . S
C2115 H2095 0.950 . S
C2115 C2111 1.385 . S
C2115 C2114 1.374 . S
C2116 C2113 1.499 . S
C2116 C2117 1.373 . S
C2116 C2118 1.389 . S
C2117 H2096 0.950 . S
C2117 C2116 1.373 . S
C2117 C2133 1.377 . S
C2118 C2116 1.389 . S
C2118 C2119 1.524 . S
C2118 C2132 1.377 . S
C2119 C2118 1.524 . S
C2119 C2120 1.397 . S
C2119 C2124 1.363 . S
C2120 H2097 0.950 . S
C2120 C2119 1.397 . S
C2120 C2121 1.334 . S
C2121 H2098 0.950 . S
C2121 C2120 1.334 . S
C2121 C2122 1.287 . S
C2122 C2121 1.287 . S
C2122 C2123 1.524 . S
C2122 H2141 0.913 . S
C2123 H2099 0.950 . S
C2123 C2122 1.524 . S
C2123 C2124 1.415 . S
C2124 H2100 0.950 . S
C2124 C2119 1.363 . S
C2124 C2123 1.415 . S
C2125 H2101 0.951 . S
C2125 C2126 1.366 . S
C2125 C2127 1.388 . S
C2126 C2125 1.366 . S
C2126 C2130 1.385 . S
C2127 H2102 0.951 . S
C2127 C2125 1.388 . S
C2127 C2128 1.366 . S
C2128 C2127 1.366 . S
C2128 C2129 1.414 . S
C2128 C2131 1.499 . S
C2129 H2103 0.950 . S
C2129 C2128 1.414 . S
C2129 C2130 1.374 . S
C2130 H2104 0.950 . S
C2130 C2126 1.385 . S
C2130 C2129 1.374 . S
C2131 C2128 1.499 . S
C2131 C2132 1.373 . S
C2131 C2133 1.389 . S
C2132 H2105 0.950 . S
C2132 C2118 1.377 . S
C2132 C2131 1.373 . S
C2133 C2117 1.377 . S
C2133 C2131 1.389 . S
C2133 C2134 1.524 . S
C2134 C2133 1.524 . S
C2134 C2135 1.397 . S
C2134 C2139 1.363 . S
C2135 H2106 0.950 . S
C2135 C2134 1.397 . S
C2135 C2136 1.334 . S
C2136 H2107 0.950 . S
C2136 C2135 1.334 . S
C2136 C2137 1.287 . S
C2137 C2136 1.287 . S
C2137 C2138 1.524 . S
C2137 H2140 0.999 . S
C2138 H2108 0.950 . S
C2138 C2137 1.524 . S
C2138 C2139 1.415 . S
C2139 H2109 0.950 . S
C2139 C2134 1.363 . S
C2139 C2138 1.415 . S
H2140 C2137 0.999 . S
H2141 C2122 0.913 . S
H2142 C2160 0.951 . S
H2143 C2162 0.951 . S
H2144 C2164 0.950 . S
H2145 C2165 0.950 . S
H2146 C2167 0.950 . S
H2147 C2170 0.950 . S
H2148 C2171 0.950 . S
H2149 C2173 0.950 . S
H2150 C2174 0.950 . S
H2151 C2175 0.951 . S
H2152 C2177 0.951 . S
H2153 C2179 0.950 . S
H2154 C2180 0.950 . S
H2155 C2182 0.950 . S
H2156 C2185 0.950 . S
H2157 C2186 0.950 . S
H2158 C2188 0.950 . S
H2159 C2189 0.950 . S
C2160 H2142 0.951 . S
C2160 C2161 1.366 . S
C2160 C2162 1.388 . S
C2161 C2160 1.366 . S
C2161 C2165 1.385 . S
C2162 H2143 0.951 . S
C2162 C2160 1.388 . S
C2162 C2163 1.366 . S
C2163 C2162 1.366 . S
C2163 C2164 1.414 . S
C2163 C2166 1.499 . S
C2164 H2144 0.950 . S
C2164 C2163 1.414 . S
C2164 C2165 1.374 . S
C2165 H2145 0.950 . S
C2165 C2161 1.385 . S
C2165 C2164 1.374 . S
C2166 C2163 1.499 . S
C2166 C2167 1.373 . S
C2166 C2168 1.389 . S
C2167 H2146 0.950 . S
C2167 C2166 1.373 . S
C2167 C2183 1.377 . S
C2168 C2166 1.389 . S
C2168 C2169 1.524 . S
C2168 C2182 1.377 . S
C2169 C2168 1.524 . S
C2169 C2170 1.397 . S
C2169 C2174 1.363 . S
C2170 H2147 0.950 . S
C2170 C2169 1.397 . S
C2170 C2171 1.334 . S
C2171 H2148 0.950 . S
C2171 C2170 1.334 . S
C2171 C2172 1.287 . S
C2172 C2171 1.287 . S
C2172 C2173 1.524 . S
C2172 H2191 0.913 . S
C2173 H2149 0.950 . S
C2173 C2172 1.524 . S
C2173 C2174 1.415 . S
C2174 H2150 0.950 . S
C2174 C2169 1.363 . S
C2174 C2173 1.415 . S
C2175 H2151 0.951 . S
C2175 C2176 1.366 . S
C2175 C2177 1.388 . S
C2176 C2175 1.366 . S
C2176 C2180 1.385 . S
C2177 H2152 0.951 . S
C2177 C2175 1.388 . S
C2177 C2178 1.366 . S
C2178 C2177 1.366 . S
C2178 C2179 1.414 . S
C2178 C2181 1.499 . S
C2179 H2153 0.950 . S
C2179 C2178 1.414 . S
C2179 C2180 1.374 . S
C2180 H2154 0.950 . S
C2180 C2176 1.385 . S
C2180 C2179 1.374 . S
C2181 C2178 1.499 . S
C2181 C2182 1.373 . S
C2181 C2183 1.389 . S
C2182 H2155 0.950 . S
C2182 C2168 1.377 . S
C2182 C2181 1.373 . S
C2183 C2167 1.377 . S
C2183 C2181 1.389 . S
C2183 C2184 1.524 . S
C2184 C2183 1.524 . S
C2184 C2185 1.397 . S
C2184 C2189 1.363 . S
C2185 H2156 0.950 . S
C2185 C2184 1.397 . S
C2185 C2186 1.334 . S
C2186 H2157 0.950 . S
C2186 C2185 1.334 . S
C2186 C2187 1.287 . S
C2187 C2186 1.287 . S
C2187 C2188 1.524 . S
C2187 H2190 0.999 . S
C2188 H2158 0.950 . S
C2188 C2187 1.524 . S
C2188 C2189 1.415 . S
C2189 H2159 0.950 . S
C2189 C2184 1.363 . S
C2189 C2188 1.415 . S
H2190 C2187 0.999 . S
H2191 C2172 0.913 . S
H2192 C2210 0.951 . S
H2193 C2212 0.951 . S
H2194 C2214 0.950 . S
H2195 C2215 0.950 . S
H2196 C2217 0.950 . S
H2197 C2220 0.950 . S
H2198 C2221 0.950 . S
H2199 C2223 0.950 . S
H2200 C2224 0.950 . S
H2201 C2225 0.951 . S
H2202 C2227 0.951 . S
H2203 C2229 0.950 . S
H2204 C2230 0.950 . S
H2205 C2232 0.950 . S
H2206 C2235 0.950 . S
H2207 C2236 0.950 . S
H2208 C2238 0.950 . S
H2209 C2239 0.950 . S
C2210 H2192 0.951 . S
C2210 C2211 1.366 . S
C2210 C2212 1.388 . S
C2211 C2210 1.366 . S
C2211 C2215 1.385 . S
C2212 H2193 0.951 . S
C2212 C2210 1.388 . S
C2212 C2213 1.366 . S
C2213 C2212 1.366 . S
C2213 C2214 1.414 . S
C2213 C2216 1.499 . S
C2214 H2194 0.950 . S
C2214 C2213 1.414 . S
C2214 C2215 1.374 . S
C2215 H2195 0.950 . S
C2215 C2211 1.385 . S
C2215 C2214 1.374 . S
C2216 C2213 1.499 . S
C2216 C2217 1.373 . S
C2216 C2218 1.389 . S
C2217 H2196 0.950 . S
C2217 C2216 1.373 . S
C2217 C2233 1.377 . S
C2218 C2216 1.389 . S
C2218 C2219 1.524 . S
C2218 C2232 1.377 . S
C2219 C2218 1.524 . S
C2219 C2220 1.397 . S
C2219 C2224 1.363 . S
C2220 H2197 0.950 . S
C2220 C2219 1.397 . S
C2220 C2221 1.334 . S
C2221 H2198 0.950 . S
C2221 C2220 1.334 . S
C2221 C2222 1.287 . S
C2222 C2221 1.287 . S
C2222 C2223 1.524 . S
C2222 H2241 0.913 . S
C2223 H2199 0.950 . S
C2223 C2222 1.524 . S
C2223 C2224 1.415 . S
C2224 H2200 0.950 . S
C2224 C2219 1.363 . S
C2224 C2223 1.415 . S
C2225 H2201 0.951 . S
C2225 C2226 1.366 . S
C2225 C2227 1.388 . S
C2226 C2225 1.366 . S
C2226 C2230 1.385 . S
C2227 H2202 0.951 . S
C2227 C2225 1.388 . S
C2227 C2228 1.366 . S
C2228 C2227 1.366 . S
C2228 C2229 1.414 . S
C2228 C2231 1.499 . S
C2229 H2203 0.950 . S
C2229 C2228 1.414 . S
C2229 C2230 1.374 . S
C2230 H2204 0.950 . S
C2230 C2226 1.385 . S
C2230 C2229 1.374 . S
C2231 C2228 1.499 . S
C2231 C2232 1.373 . S
C2231 C2233 1.389 . S
C2232 H2205 0.950 . S
C2232 C2218 1.377 . S
C2232 C2231 1.373 . S
C2233 C2217 1.377 . S
C2233 C2231 1.389 . S
C2233 C2234 1.524 . S
C2234 C2233 1.524 . S
C2234 C2235 1.397 . S
C2234 C2239 1.363 . S
C2235 H2206 0.950 . S
C2235 C2234 1.397 . S
C2235 C2236 1.334 . S
C2236 H2207 0.950 . S
C2236 C2235 1.334 . S
C2236 C2237 1.287 . S
C2237 C2236 1.287 . S
C2237 C2238 1.524 . S
C2237 H2240 0.999 . S
C2238 H2208 0.950 . S
C2238 C2237 1.524 . S
C2238 C2239 1.415 . S
C2239 H2209 0.950 . S
C2239 C2234 1.363 . S
C2239 C2238 1.415 . S
H2240 C2237 0.999 . S
H2241 C2222 0.913 . S
H2242 C2260 0.951 . S
H2243 C2262 0.951 . S
H2244 C2264 0.950 . S
H2245 C2265 0.950 . S
H2246 C2267 0.950 . S
H2247 C2270 0.950 . S
H2248 C2271 0.950 . S
H2249 C2273 0.950 . S
H2250 C2274 0.950 . S
H2251 C2275 0.943 1_565 S
H2252 C2277 0.951 1_565 S
H2253 C2279 0.950 . S
H2254 C2280 0.950 . S
H2255 C2282 0.950 . S
H2256 C2285 0.950 . S
H2257 C2286 0.950 . S
H2258 C2288 0.950 . S
H2259 C2289 0.950 . S
C2260 H2242 0.951 . S
C2260 C2261 1.366 . S
C2260 C2262 1.388 . S
C2261 C2260 1.366 . S
C2261 C2265 1.385 . S
C2262 H2243 0.951 . S
C2262 C2260 1.388 . S
C2262 C2263 1.366 . S
C2263 C2262 1.366 . S
C2263 C2264 1.414 . S
C2263 C2266 1.499 . S
C2264 H2244 0.950 . S
C2264 C2263 1.414 . S
C2264 C2265 1.374 . S
C2265 H2245 0.950 . S
C2265 C2261 1.385 . S
C2265 C2264 1.374 . S
C2266 C2263 1.499 . S
C2266 C2267 1.373 . S
C2266 C2268 1.389 . S
C2267 H2246 0.950 . S
C2267 C2266 1.373 . S
C2267 C2283 1.377 . S
C2268 C2266 1.389 . S
C2268 C2269 1.524 . S
C2268 C2282 1.377 . S
C2269 C2268 1.524 . S
C2269 C2270 1.397 . S
C2269 C2274 1.363 . S
C2270 H2247 0.950 . S
C2270 C2269 1.397 . S
C2270 C2271 1.334 1_655 S
C2271 H2248 0.950 . S
C2271 C2270 1.334 1_455 S
C2271 C2272 1.287 . S
C2272 C2271 1.287 . S
C2272 C2273 1.524 . S
C2272 H2291 0.913 . S
C2273 H2249 0.950 . S
C2273 C2272 1.524 . S
C2273 C2274 1.415 1_455 S
C2274 H2250 0.950 . S
C2274 C2269 1.363 . S
C2274 C2273 1.415 1_655 S
C2275 H2251 0.943 1_545 S
C2275 C2276 1.372 . S
C2275 C2277 1.389 . S
C2276 C2275 1.372 . S
C2276 C2280 1.385 . S
C2277 H2252 0.951 1_545 S
C2277 C2275 1.389 . S
C2277 C2278 1.366 . S
C2278 C2277 1.366 . S
C2278 C2279 1.414 . S
C2278 C2281 1.499 . S
C2279 H2253 0.950 . S
C2279 C2278 1.414 . S
C2279 C2280 1.374 . S
C2280 H2254 0.950 . S
C2280 C2276 1.385 . S
C2280 C2279 1.374 . S
C2281 C2278 1.499 . S
C2281 C2282 1.373 . S
C2281 C2283 1.389 . S
C2282 H2255 0.950 . S
C2282 C2268 1.377 . S
C2282 C2281 1.373 . S
C2283 C2267 1.377 . S
C2283 C2281 1.389 . S
C2283 C2284 1.524 . S
C2284 C2283 1.524 . S
C2284 C2285 1.397 . S
C2284 C2289 1.363 1_545 S
C2285 H2256 0.950 . S
C2285 C2284 1.397 . S
C2285 C2286 1.334 . S
C2286 H2257 0.950 . S
C2286 C2285 1.334 . S
C2286 C2287 1.335 . S
C2287 C2286 1.335 . S
C2287 C2288 1.486 1_545 S
C2287 H2290 0.983 1_545 S
C2288 H2258 0.950 . S
C2288 C2287 1.486 1_565 S
C2288 C2289 1.415 . S
C2289 H2259 0.950 . S
C2289 C2284 1.363 1_565 S
C2289 C2288 1.415 . S
H2290 C2287 0.983 1_565 S
H2291 C2272 0.913 . S
H2292 C2310 0.951 . S
H2293 C2312 0.951 . S
H2294 C2314 0.950 . S
H2295 C2315 0.950 . S
H2296 C2317 0.950 . S
H2297 C2320 0.950 . S
H2298 C2321 0.950 . S
H2299 C2323 0.950 . S
H2300 C2324 0.950 . S
H2301 C2325 0.951 . S
H2302 C2327 0.951 . S
H2303 C2329 0.950 . S
H2304 C2330 0.950 . S
H2305 C2332 0.950 . S
H2306 C2335 0.950 . S
H2307 C2336 0.950 . S
H2308 C2338 0.950 . S
H2309 C2339 0.950 . S
C2310 H2292 0.951 . S
C2310 C2311 1.366 . S
C2310 C2312 1.388 . S
C2311 C2310 1.366 . S
C2311 C2315 1.385 . S
C2312 H2293 0.951 . S
C2312 C2310 1.388 . S
C2312 C2313 1.366 . S
C2313 C2312 1.366 . S
C2313 C2314 1.414 . S
C2313 C2316 1.499 . S
C2314 H2294 0.950 . S
C2314 C2313 1.414 . S
C2314 C2315 1.374 . S
C2315 H2295 0.950 . S
C2315 C2311 1.385 . S
C2315 C2314 1.374 . S
C2316 C2313 1.499 . S
C2316 C2317 1.373 . S
C2316 C2318 1.389 . S
C2317 H2296 0.950 . S
C2317 C2316 1.373 . S
C2317 C2333 1.377 . S
C2318 C2316 1.389 . S
C2318 C2319 1.524 . S
C2318 C2332 1.377 . S
C2319 C2318 1.524 . S
C2319 C2320 1.397 . S
C2319 C2324 1.363 . S
C2320 H2297 0.950 . S
C2320 C2319 1.397 . S
C2320 C2321 1.334 . S
C2321 H2298 0.950 . S
C2321 C2320 1.334 . S
C2321 C2322 1.287 . S
C2322 C2321 1.287 . S
C2322 C2323 1.524 . S
C2322 H2341 0.913 . S
C2323 H2299 0.950 . S
C2323 C2322 1.524 . S
C2323 C2324 1.415 . S
C2324 H2300 0.950 . S
C2324 C2319 1.363 . S
C2324 C2323 1.415 . S
C2325 H2301 0.951 . S
C2325 C2326 1.366 . S
C2325 C2327 1.388 . S
C2326 C2325 1.366 . S
C2326 C2330 1.385 . S
C2327 H2302 0.951 . S
C2327 C2325 1.388 . S
C2327 C2328 1.366 . S
C2328 C2327 1.366 . S
C2328 C2329 1.414 . S
C2328 C2331 1.499 . S
C2329 H2303 0.950 . S
C2329 C2328 1.414 . S
C2329 C2330 1.374 . S
C2330 H2304 0.950 . S
C2330 C2326 1.385 . S
C2330 C2329 1.374 . S
C2331 C2328 1.499 . S
C2331 C2332 1.373 . S
C2331 C2333 1.389 . S
C2332 H2305 0.950 . S
C2332 C2318 1.377 . S
C2332 C2331 1.373 . S
C2333 C2317 1.377 . S
C2333 C2331 1.389 . S
C2333 C2334 1.524 . S
C2334 C2333 1.524 . S
C2334 C2335 1.397 . S
C2334 C2339 1.363 . S
C2335 H2306 0.950 . S
C2335 C2334 1.397 . S
C2335 C2336 1.334 . S
C2336 H2307 0.950 . S
C2336 C2335 1.334 . S
C2336 C2337 1.287 . S
C2337 C2336 1.287 . S
C2337 C2338 1.524 . S
C2337 H2340 0.999 . S
C2338 H2308 0.950 . S
C2338 C2337 1.524 . S
C2338 C2339 1.415 . S
C2339 H2309 0.950 . S
C2339 C2334 1.363 . S
C2339 C2338 1.415 . S
H2340 C2337 0.999 . S
H2341 C2322 0.913 . S
H2342 C2360 0.951 . S
H2343 C2362 0.951 . S
H2344 C2364 0.950 . S
H2345 C2365 0.950 1_655 S
H2346 C2367 0.950 . S
H2347 C2370 0.950 . S
H2348 C2371 0.950 . S
H2349 C2373 0.950 . S
H2350 C2374 0.950 . S
H2351 C2375 0.951 . S
H2352 C2377 0.951 . S
H2353 C2379 0.950 . S
H2354 C2380 0.950 . S
H2355 C2382 0.950 . S
H2356 C2385 0.950 . S
H2357 C2386 0.950 . S
H2358 C2388 0.950 . S
H2359 C2389 0.950 . S
C2360 H2342 0.951 . S
C2360 C2361 1.366 . S
C2360 C2362 1.388 . S
C2361 C2360 1.366 . S
C2361 C2365 1.385 . S
C2362 H2343 0.951 . S
C2362 C2360 1.388 . S
C2362 C2363 1.366 . S
C2363 C2362 1.366 . S
C2363 C2364 1.414 . S
C2363 C2366 1.499 . S
C2364 H2344 0.950 . S
C2364 C2363 1.414 . S
C2364 C2365 1.374 . S
C2365 H2345 0.950 1_455 S
C2365 C2361 1.385 . S
C2365 C2364 1.374 . S
C2366 C2363 1.499 . S
C2366 C2367 1.373 . S
C2366 C2368 1.389 . S
C2367 H2346 0.950 . S
C2367 C2366 1.373 . S
C2367 C2383 1.377 . S
C2368 C2366 1.389 . S
C2368 C2369 1.524 . S
C2368 C2382 1.377 . S
C2369 C2368 1.524 . S
C2369 C2370 1.397 . S
C2369 C2374 1.363 . S
C2370 H2347 0.950 . S
C2370 C2369 1.397 . S
C2370 C2371 1.334 . S
C2371 H2348 0.950 . S
C2371 C2370 1.334 . S
C2371 C2372 1.287 . S
C2372 C2371 1.287 . S
C2372 C2373 1.524 . S
C2372 H2391 0.913 . S
C2373 H2349 0.950 . S
C2373 C2372 1.524 . S
C2373 C2374 1.415 . S
C2374 H2350 0.950 . S
C2374 C2369 1.363 . S
C2374 C2373 1.415 . S
C2375 H2351 0.951 . S
C2375 C2376 1.366 . S
C2375 C2377 1.388 . S
C2376 C2375 1.366 . S
C2376 C2380 1.385 . S
C2377 H2352 0.951 . S
C2377 C2375 1.388 . S
C2377 C2378 1.366 . S
C2378 C2377 1.366 . S
C2378 C2379 1.414 . S
C2378 C2381 1.499 . S
C2379 H2353 0.950 . S
C2379 C2378 1.414 . S
C2379 C2380 1.374 . S
C2380 H2354 0.950 . S
C2380 C2376 1.385 . S
C2380 C2379 1.374 . S
C2381 C2378 1.499 . S
C2381 C2382 1.373 . S
C2381 C2383 1.389 . S
C2382 H2355 0.950 . S
C2382 C2368 1.377 . S
C2382 C2381 1.373 . S
C2383 C2367 1.377 . S
C2383 C2381 1.389 . S
C2383 C2384 1.524 . S
C2384 C2383 1.524 . S
C2384 C2385 1.397 . S
C2384 C2389 1.363 . S
C2385 H2356 0.950 . S
C2385 C2384 1.397 . S
C2385 C2386 1.334 . S
C2386 H2357 0.950 . S
C2386 C2385 1.334 . S
C2386 C2387 1.287 . S
C2387 C2386 1.287 . S
C2387 C2388 1.524 . S
C2387 H2390 0.999 . S
C2388 H2358 0.950 . S
C2388 C2387 1.524 . S
C2388 C2389 1.415 . S
C2389 H2359 0.950 . S
C2389 C2384 1.363 . S
C2389 C2388 1.415 . S
H2390 C2387 0.999 . S
H2391 C2372 0.913 . S
H2392 C2410 0.951 . S
H2393 C2412 0.951 . S
H2394 C2414 0.950 . S
H2395 C2415 0.950 . S
H2396 C2417 0.950 . S
H2397 C2420 0.950 . S
H2398 C2421 0.950 . S
H2399 C2423 0.950 . S
H2400 C2424 0.950 . S
H2401 C2425 0.951 . S
H2402 C2427 0.951 . S
H2403 C2429 0.950 . S
H2404 C2430 0.950 . S
H2405 C2432 0.950 . S
H2406 C2435 0.950 . S
H2407 C2436 0.950 . S
H2408 C2438 0.950 . S
H2409 C2439 0.950 . S
C2410 H2392 0.951 . S
C2410 C2411 1.366 . S
C2410 C2412 1.388 . S
C2411 C2410 1.366 . S
C2411 C2415 1.385 . S
C2412 H2393 0.951 . S
C2412 C2410 1.388 . S
C2412 C2413 1.366 . S
C2413 C2412 1.366 . S
C2413 C2414 1.414 . S
C2413 C2416 1.499 . S
C2414 H2394 0.950 . S
C2414 C2413 1.414 . S
C2414 C2415 1.374 . S
C2415 H2395 0.950 . S
C2415 C2411 1.385 . S
C2415 C2414 1.374 . S
C2416 C2413 1.499 . S
C2416 C2417 1.373 . S
C2416 C2418 1.389 . S
C2417 H2396 0.950 . S
C2417 C2416 1.373 . S
C2417 C2433 1.377 . S
C2418 C2416 1.389 . S
C2418 C2419 1.524 . S
C2418 C2432 1.377 . S
C2419 C2418 1.524 . S
C2419 C2420 1.397 . S
C2419 C2424 1.363 . S
C2420 H2397 0.950 . S
C2420 C2419 1.397 . S
C2420 C2421 1.334 . S
C2421 H2398 0.950 . S
C2421 C2420 1.334 . S
C2421 C2422 1.287 . S
C2422 C2421 1.287 . S
C2422 C2423 1.524 . S
C2422 H2441 0.913 . S
C2423 H2399 0.950 . S
C2423 C2422 1.524 . S
C2423 C2424 1.415 . S
C2424 H2400 0.950 . S
C2424 C2419 1.363 . S
C2424 C2423 1.415 . S
C2425 H2401 0.951 . S
C2425 C2426 1.366 . S
C2425 C2427 1.388 . S
C2426 C2425 1.366 . S
C2426 C2430 1.385 . S
C2427 H2402 0.951 . S
C2427 C2425 1.388 . S
C2427 C2428 1.366 . S
C2428 C2427 1.366 . S
C2428 C2429 1.414 . S
C2428 C2431 1.499 . S
C2429 H2403 0.950 . S
C2429 C2428 1.414 . S
C2429 C2430 1.374 . S
C2430 H2404 0.950 . S
C2430 C2426 1.385 . S
C2430 C2429 1.374 . S
C2431 C2428 1.499 . S
C2431 C2432 1.373 . S
C2431 C2433 1.389 . S
C2432 H2405 0.950 . S
C2432 C2418 1.377 . S
C2432 C2431 1.373 . S
C2433 C2417 1.377 . S
C2433 C2431 1.389 . S
C2433 C2434 1.524 . S
C2434 C2433 1.524 . S
C2434 C2435 1.397 . S
C2434 C2439 1.363 . S
C2435 H2406 0.950 . S
C2435 C2434 1.397 . S
C2435 C2436 1.334 . S
C2436 H2407 0.950 . S
C2436 C2435 1.334 . S
C2436 C2437 1.287 . S
C2437 C2436 1.287 . S
C2437 C2438 1.524 . S
C2437 H2440 0.999 . S
C2438 H2408 0.950 . S
C2438 C2437 1.524 . S
C2438 C2439 1.415 . S
C2439 H2409 0.950 . S
C2439 C2434 1.363 . S
C2439 C2438 1.415 . S
H2440 C2437 0.999 . S
H2441 C2422 0.913 . S
H2442 C2460 0.951 . S
H2443 C2462 0.951 1_554 S
H2444 C2464 0.950 . S
H2445 C2465 0.950 . S
H2446 C2467 0.950 . S
H2447 C2470 0.950 . S
H2448 C2471 0.950 . S
H2449 C2473 0.950 . S
H2450 C2474 0.950 . S
H2451 C2475 0.951 . S
H2452 C2477 0.951 . S
H2453 C2479 0.950 . S
H2454 C2480 0.950 . S
H2455 C2482 0.922 1_455 S
H2456 C2485 0.950 . S
H2457 C2486 0.950 . S
H2458 C2488 0.950 . S
H2459 C2489 0.950 . S
C2460 H2442 0.951 . S
C2460 C2461 1.366 . S
C2460 C2462 1.388 1_554 S
C2461 C2460 1.366 . S
C2461 C2465 1.385 1_554 S
C2462 H2443 0.951 1_556 S
C2462 C2460 1.388 1_556 S
C2462 C2463 1.366 . S
C2463 C2462 1.366 . S
C2463 C2464 1.414 . S
C2463 C2466 1.499 . S
C2464 H2444 0.950 . S
C2464 C2463 1.414 . S
C2464 C2465 1.374 . S
C2465 H2445 0.950 . S
C2465 C2461 1.385 1_556 S
C2465 C2464 1.374 . S
C2466 C2463 1.499 . S
C2466 C2467 1.373 . S
C2466 C2468 1.389 . S
C2467 H2446 0.950 . S
C2467 C2466 1.373 . S
C2467 C2483 1.377 . S
C2468 C2466 1.389 . S
C2468 C2469 1.524 1_655 S
C2468 C2482 1.377 . S
C2469 C2468 1.524 1_455 S
C2469 C2470 1.397 . S
C2469 C2474 1.363 . S
C2470 H2447 0.950 . S
C2470 C2469 1.397 . S
C2470 C2471 1.334 . S
C2471 H2448 0.950 . S
C2471 C2470 1.334 . S
C2471 C2472 1.287 1_556 S
C2472 C2471 1.287 1_554 S
C2472 C2473 1.524 . S
C2472 H2491 0.913 . S
C2473 H2449 0.950 . S
C2473 C2472 1.524 . S
C2473 C2474 1.415 1_554 S
C2474 H2450 0.950 . S
C2474 C2469 1.363 . S
C2474 C2473 1.415 1_556 S
C2475 H2451 0.951 . S
C2475 C2476 1.366 . S
C2475 C2477 1.388 . S
C2476 C2475 1.366 . S
C2476 C2480 1.385 . S
C2477 H2452 0.951 . S
C2477 C2475 1.388 . S
C2477 C2478 1.366 . S
C2478 C2477 1.366 . S
C2478 C2479 1.414 . S
C2478 C2481 1.499 . S
C2479 H2453 0.950 . S
C2479 C2478 1.414 . S
C2479 C2480 1.374 . S
C2480 H2454 0.950 . S
C2480 C2476 1.385 . S
C2480 C2479 1.374 . S
C2481 C2478 1.499 . S
C2481 C2482 1.373 . S
C2481 C2483 1.389 . S
C2482 H2455 0.922 1_655 S
C2482 C2468 1.377 . S
C2482 C2481 1.373 . S
C2483 C2467 1.377 . S
C2483 C2481 1.389 . S
C2483 C2484 1.524 . S
C2484 C2483 1.524 . S
C2484 C2485 1.397 . S
C2484 C2489 1.363 . S
C2485 H2456 0.950 . S
C2485 C2484 1.397 . S
C2485 C2486 1.334 . S
C2486 H2457 0.950 . S
C2486 C2485 1.334 . S
C2486 C2487 1.287 . S
C2487 C2486 1.287 . S
C2487 C2488 1.524 . S
C2487 H2490 0.999 . S
C2488 H2458 0.950 . S
C2488 C2487 1.524 . S
C2488 C2489 1.415 . S
C2489 H2459 0.950 . S
C2489 C2484 1.363 . S
C2489 C2488 1.415 . S
H2490 C2487 0.999 . S
H2491 C2472 0.913 . S
H2492 C2510 0.951 . S
H2493 C2512 0.951 . S
H2494 C2514 0.950 . S
H2495 C2515 0.950 . S
H2496 C2517 0.950 . S
H2497 C2520 0.950 . S
H2498 C2521 0.950 . S
H2499 C2523 0.950 . S
H2500 C2524 0.950 . S
H2501 C2525 0.951 . S
H2502 C2527 0.951 . S
H2503 C2529 0.950 . S
H2504 C2530 0.950 . S
H2505 C2532 0.950 . S
H2506 C2535 0.950 . S
H2507 C2536 0.950 . S
H2508 C2538 0.950 . S
H2509 C2539 0.950 . S
C2510 H2492 0.951 . S
C2510 C2511 1.366 . S
C2510 C2512 1.388 . S
C2511 C2510 1.366 . S
C2511 C2515 1.385 . S
C2512 H2493 0.951 . S
C2512 C2510 1.388 . S
C2512 C2513 1.366 . S
C2513 C2512 1.366 . S
C2513 C2514 1.414 . S
C2513 C2516 1.499 . S
C2514 H2494 0.950 . S
C2514 C2513 1.414 . S
C2514 C2515 1.374 . S
C2515 H2495 0.950 . S
C2515 C2511 1.385 . S
C2515 C2514 1.374 . S
C2516 C2513 1.499 . S
C2516 C2517 1.373 . S
C2516 C2518 1.389 . S
C2517 H2496 0.950 . S
C2517 C2516 1.373 . S
C2517 C2533 1.377 . S
C2518 C2516 1.389 . S
C2518 C2519 1.524 . S
C2518 C2532 1.377 . S
C2519 C2518 1.524 . S
C2519 C2520 1.397 . S
C2519 C2524 1.363 . S
C2520 H2497 0.950 . S
C2520 C2519 1.397 . S
C2520 C2521 1.334 . S
C2521 H2498 0.950 . S
C2521 C2520 1.334 . S
C2521 C2522 1.287 . S
C2522 C2521 1.287 . S
C2522 C2523 1.524 . S
C2522 H2541 0.913 . S
C2523 H2499 0.950 . S
C2523 C2522 1.524 . S
C2523 C2524 1.415 . S
C2524 H2500 0.950 . S
C2524 C2519 1.363 . S
C2524 C2523 1.415 . S
C2525 H2501 0.951 . S
C2525 C2526 1.366 . S
C2525 C2527 1.388 . S
C2526 C2525 1.366 . S
C2526 C2530 1.385 . S
C2527 H2502 0.951 . S
C2527 C2525 1.388 . S
C2527 C2528 1.366 . S
C2528 C2527 1.366 . S
C2528 C2529 1.414 . S
C2528 C2531 1.499 . S
C2529 H2503 0.950 . S
C2529 C2528 1.414 . S
C2529 C2530 1.374 . S
C2530 H2504 0.950 . S
C2530 C2526 1.385 . S
C2530 C2529 1.374 . S
C2531 C2528 1.499 . S
C2531 C2532 1.373 . S
C2531 C2533 1.389 . S
C2532 H2505 0.950 . S
C2532 C2518 1.377 . S
C2532 C2531 1.373 . S
C2533 C2517 1.377 . S
C2533 C2531 1.389 . S
C2533 C2534 1.524 . S
C2534 C2533 1.524 . S
C2534 C2535 1.397 . S
C2534 C2539 1.363 . S
C2535 H2506 0.950 . S
C2535 C2534 1.397 . S
C2535 C2536 1.334 . S
C2536 H2507 0.950 . S
C2536 C2535 1.334 . S
C2536 C2537 1.287 . S
C2537 C2536 1.287 . S
C2537 C2538 1.524 . S
C2537 H2540 0.999 . S
C2538 H2508 0.950 . S
C2538 C2537 1.524 . S
C2538 C2539 1.415 . S
C2539 H2509 0.950 . S
C2539 C2534 1.363 . S
C2539 C2538 1.415 . S
H2540 C2537 0.999 . S
H2541 C2522 0.913 . S
H2542 C2560 0.951 . S
H2543 C2562 0.951 . S
H2544 C2564 0.950 . S
H2545 C2565 0.909 1_554 S
H2546 C2567 1.002 . S
H2547 C2570 0.950 . S
H2548 C2571 0.950 . S
H2549 C2573 0.950 . S
H2550 C2574 0.950 . S
H2551 C2575 0.951 . S
H2552 C2577 0.951 . S
H2553 C2579 0.950 . S
H2554 C2580 0.950 . S
H2555 C2582 0.950 . S
H2556 C2585 0.950 . S
H2557 C2586 0.950 . S
H2558 C2588 0.950 . S
H2559 C2589 0.950 . S
C2560 H2542 0.951 . S
C2560 C2561 1.366 . S
C2560 C2562 1.388 . S
C2561 C2560 1.366 . S
C2561 C2565 1.401 . S
C2562 H2543 0.951 . S
C2562 C2560 1.388 . S
C2562 C2563 1.366 . S
C2563 C2562 1.366 . S
C2563 C2564 1.414 . S
C2563 C2566 1.499 . S
C2564 H2544 0.950 . S
C2564 C2563 1.414 . S
C2564 C2565 1.399 . S
C2565 H2545 0.909 1_556 S
C2565 C2561 1.401 . S
C2565 C2564 1.399 . S
C2566 C2563 1.499 . S
C2566 C2567 1.373 . S
C2566 C2568 1.389 . S
C2567 H2546 1.002 . S
C2567 C2566 1.373 . S
C2567 C2583 1.377 . S
C2568 C2566 1.389 . S
C2568 C2569 1.524 . S
C2568 C2582 1.377 . S
C2569 C2568 1.524 . S
C2569 C2570 1.397 . S
C2569 C2574 1.363 . S
C2570 H2547 0.950 . S
C2570 C2569 1.397 . S
C2570 C2571 1.334 . S
C2571 H2548 0.950 . S
C2571 C2570 1.334 . S
C2571 C2572 1.287 . S
C2572 C2571 1.287 . S
C2572 C2573 1.524 . S
C2572 H2591 0.913 . S
C2573 H2549 0.950 . S
C2573 C2572 1.524 . S
C2573 C2574 1.415 . S
C2574 H2550 0.950 . S
C2574 C2569 1.363 . S
C2574 C2573 1.415 . S
C2575 H2551 0.951 . S
C2575 C2576 1.366 . S
C2575 C2577 1.388 . S
C2576 C2575 1.366 . S
C2576 C2580 1.385 . S
C2577 H2552 0.951 . S
C2577 C2575 1.388 . S
C2577 C2578 1.366 . S
C2578 C2577 1.366 . S
C2578 C2579 1.414 . S
C2578 C2581 1.499 . S
C2579 H2553 0.950 . S
C2579 C2578 1.414 . S
C2579 C2580 1.374 . S
C2580 H2554 0.950 . S
C2580 C2576 1.385 . S
C2580 C2579 1.374 . S
C2581 C2578 1.499 . S
C2581 C2582 1.373 . S
C2581 C2583 1.389 . S
C2582 H2555 0.950 . S
C2582 C2568 1.377 . S
C2582 C2581 1.373 . S
C2583 C2567 1.377 . S
C2583 C2581 1.389 . S
C2583 C2584 1.524 1_455 S
C2584 C2583 1.524 1_655 S
C2584 C2585 1.397 . S
C2584 C2589 1.363 . S
C2585 H2556 0.950 . S
C2585 C2584 1.397 . S
C2585 C2586 1.334 . S
C2586 H2557 0.950 . S
C2586 C2585 1.334 . S
C2586 C2587 1.287 . S
C2587 C2586 1.287 . S
C2587 C2588 1.524 . S
C2587 H2590 0.999 . S
C2588 H2558 0.950 . S
C2588 C2587 1.524 . S
C2588 C2589 1.415 . S
C2589 H2559 0.950 . S
C2589 C2584 1.363 . S
C2589 C2588 1.415 . S
H2590 C2587 0.999 . S
H2591 C2572 0.913 . S
H2592 C2610 0.951 . S
H2593 C2612 0.951 . S
H2594 C2614 0.950 . S
H2595 C2615 0.950 . S
H2596 C2617 0.950 . S
H2597 C2620 0.950 . S
H2598 C2621 0.950 . S
H2599 C2623 0.950 . S
H2600 C2624 0.950 . S
H2601 C2625 0.951 . S
H2602 C2627 0.951 . S
H2603 C2629 0.950 . S
H2604 C2630 0.950 . S
H2605 C2632 0.950 . S
H2606 C2635 0.950 . S
H2607 C2636 0.950 . S
H2608 C2638 0.950 . S
H2609 C2639 0.950 . S
C2610 H2592 0.951 . S
C2610 C2611 1.366 . S
C2610 C2612 1.388 . S
C2611 C2610 1.366 . S
C2611 C2615 1.385 . S
C2612 H2593 0.951 . S
C2612 C2610 1.388 . S
C2612 C2613 1.366 . S
C2613 C2612 1.366 . S
C2613 C2614 1.414 . S
C2613 C2616 1.499 . S
C2614 H2594 0.950 . S
C2614 C2613 1.414 . S
C2614 C2615 1.374 . S
C2615 H2595 0.950 . S
C2615 C2611 1.385 . S
C2615 C2614 1.374 . S
C2616 C2613 1.499 . S
C2616 C2617 1.373 . S
C2616 C2618 1.389 . S
C2617 H2596 0.950 . S
C2617 C2616 1.373 . S
C2617 C2633 1.377 . S
C2618 C2616 1.389 . S
C2618 C2619 1.524 . S
C2618 C2632 1.377 . S
C2619 C2618 1.524 . S
C2619 C2620 1.397 . S
C2619 C2624 1.363 . S
C2620 H2597 0.950 . S
C2620 C2619 1.397 . S
C2620 C2621 1.334 . S
C2621 H2598 0.950 . S
C2621 C2620 1.334 . S
C2621 C2622 1.287 . S
C2622 C2621 1.287 . S
C2622 C2623 1.524 . S
C2622 H2641 0.913 . S
C2623 H2599 0.950 . S
C2623 C2622 1.524 . S
C2623 C2624 1.415 . S
C2624 H2600 0.950 . S
C2624 C2619 1.363 . S
C2624 C2623 1.415 . S
C2625 H2601 0.951 . S
C2625 C2626 1.366 . S
C2625 C2627 1.388 . S
C2626 C2625 1.366 . S
C2626 C2630 1.385 . S
C2627 H2602 0.951 . S
C2627 C2625 1.388 . S
C2627 C2628 1.366 . S
C2628 C2627 1.366 . S
C2628 C2629 1.414 . S
C2628 C2631 1.499 . S
C2629 H2603 0.950 . S
C2629 C2628 1.414 . S
C2629 C2630 1.374 . S
C2630 H2604 0.950 . S
C2630 C2626 1.385 . S
C2630 C2629 1.374 . S
C2631 C2628 1.499 . S
C2631 C2632 1.373 . S
C2631 C2633 1.389 . S
C2632 H2605 0.950 . S
C2632 C2618 1.377 . S
C2632 C2631 1.373 . S
C2633 C2617 1.377 . S
C2633 C2631 1.389 . S
C2633 C2634 1.524 . S
C2634 C2633 1.524 . S
C2634 C2635 1.397 . S
C2634 C2639 1.363 . S
C2635 H2606 0.950 . S
C2635 C2634 1.397 . S
C2635 C2636 1.334 . S
C2636 H2607 0.950 . S
C2636 C2635 1.334 . S
C2636 C2637 1.287 . S
C2637 C2636 1.287 . S
C2637 C2638 1.524 . S
C2637 H2640 0.999 . S
C2638 H2608 0.950 . S
C2638 C2637 1.524 . S
C2638 C2639 1.415 . S
C2639 H2609 0.950 . S
C2639 C2634 1.363 . S
C2639 C2638 1.415 . S
H2640 C2637 0.999 . S
H2641 C2622 0.913 . S
H2642 C2660 0.951 . S
H2643 C2662 0.951 . S
H2644 C2664 0.950 . S
H2645 C2665 0.950 . S
H2646 C2667 0.950 . S
H2647 C2670 0.950 . S
H2648 C2671 0.950 . S
H2649 C2673 0.947 . S
H2650 C2674 0.950 . S
H2651 C2675 0.951 . S
H2652 C2677 0.951 . S
H2653 C2679 0.950 . S
H2654 C2680 0.950 . S
H2655 C2682 0.950 . S
H2656 C2685 0.950 . S
H2657 C2686 0.950 . S
H2658 C2688 0.950 . S
H2659 C2689 0.950 . S
C2660 H2642 0.951 . S
C2660 C2661 1.366 . S
C2660 C2662 1.388 . S
C2661 C2660 1.366 . S
C2661 C2665 1.385 . S
C2662 H2643 0.951 . S
C2662 C2660 1.388 . S
C2662 C2663 1.366 . S
C2663 C2662 1.366 . S
C2663 C2664 1.414 . S
C2663 C2666 1.499 . S
C2664 H2644 0.950 . S
C2664 C2663 1.414 . S
C2664 C2665 1.374 . S
C2665 H2645 0.950 . S
C2665 C2661 1.385 . S
C2665 C2664 1.374 . S
C2666 C2663 1.499 . S
C2666 C2667 1.373 . S
C2666 C2668 1.389 . S
C2667 H2646 0.950 . S
C2667 C2666 1.373 . S
C2667 C2683 1.377 . S
C2668 C2666 1.389 . S
C2668 C2669 1.524 . S
C2668 C2682 1.377 . S
C2669 C2668 1.524 . S
C2669 C2670 1.397 . S
C2669 C2674 1.363 . S
C2670 H2647 0.950 . S
C2670 C2669 1.397 . S
C2670 C2671 1.334 1_554 S
C2671 H2648 0.950 . S
C2671 C2670 1.334 1_556 S
C2671 C2672 1.287 . S
C2672 C2671 1.287 . S
C2672 C2673 1.521 . S
C2672 H2691 0.913 . S
C2673 H2649 0.947 . S
C2673 C2672 1.521 . S
C2673 C2674 1.422 1_556 S
C2674 H2650 0.950 . S
C2674 C2669 1.363 . S
C2674 C2673 1.422 1_554 S
C2675 H2651 0.951 . S
C2675 C2676 1.366 . S
C2675 C2677 1.388 . S
C2676 C2675 1.366 . S
C2676 C2680 1.385 . S
C2677 H2652 0.951 . S
C2677 C2675 1.388 . S
C2677 C2678 1.366 . S
C2678 C2677 1.366 . S
C2678 C2679 1.414 . S
C2678 C2681 1.499 . S
C2679 H2653 0.950 . S
C2679 C2678 1.414 . S
C2679 C2680 1.374 . S
C2680 H2654 0.950 . S
C2680 C2676 1.385 . S
C2680 C2679 1.374 . S
C2681 C2678 1.499 . S
C2681 C2682 1.373 . S
C2681 C2683 1.389 . S
C2682 H2655 0.950 . S
C2682 C2668 1.377 . S
C2682 C2681 1.373 . S
C2683 C2667 1.377 . S
C2683 C2681 1.389 . S
C2683 C2684 1.524 . S
C2684 C2683 1.524 . S
C2684 C2685 1.397 . S
C2684 C2689 1.363 . S
C2685 H2656 0.950 . S
C2685 C2684 1.397 . S
C2685 C2686 1.334 . S
C2686 H2657 0.950 . S
C2686 C2685 1.334 . S
C2686 C2687 1.287 . S
C2687 C2686 1.287 . S
C2687 C2688 1.524 . S
C2687 H2690 0.999 . S
C2688 H2658 0.950 . S
C2688 C2687 1.524 . S
C2688 C2689 1.415 . S
C2689 H2659 0.950 . S
C2689 C2684 1.363 . S
C2689 C2688 1.415 . S
H2690 C2687 0.999 . S
H2691 C2672 0.913 . S
H2692 C2710 0.951 . S
H2693 C2712 0.951 . S
H2694 C2714 0.950 . S
H2695 C2715 0.950 . S
H2696 C2717 0.950 . S
H2697 C2720 0.950 . S
H2698 C2721 0.950 . S
H2699 C2723 0.950 . S
H2700 C2724 0.950 . S
H2701 C2725 0.951 . S
H2702 C2727 0.951 . S
H2703 C2729 0.950 . S
H2704 C2730 0.950 . S
H2705 C2732 0.950 . S
H2706 C2735 0.950 . S
H2707 C2736 0.950 . S
H2708 C2738 0.950 . S
H2709 C2739 0.950 . S
C2710 H2692 0.951 . S
C2710 C2711 1.366 . S
C2710 C2712 1.388 . S
C2711 C2710 1.366 . S
C2711 C2715 1.385 . S
C2712 H2693 0.951 . S
C2712 C2710 1.388 . S
C2712 C2713 1.366 . S
C2713 C2712 1.366 . S
C2713 C2714 1.414 . S
C2713 C2716 1.499 . S
C2714 H2694 0.950 . S
C2714 C2713 1.414 . S
C2714 C2715 1.374 . S
C2715 H2695 0.950 . S
C2715 C2711 1.385 . S
C2715 C2714 1.374 . S
C2716 C2713 1.499 . S
C2716 C2717 1.373 . S
C2716 C2718 1.389 . S
C2717 H2696 0.950 . S
C2717 C2716 1.373 . S
C2717 C2733 1.377 . S
C2718 C2716 1.389 . S
C2718 C2719 1.524 . S
C2718 C2732 1.377 . S
C2719 C2718 1.524 . S
C2719 C2720 1.397 . S
C2719 C2724 1.363 . S
C2720 H2697 0.950 . S
C2720 C2719 1.397 . S
C2720 C2721 1.334 . S
C2721 H2698 0.950 . S
C2721 C2720 1.334 . S
C2721 C2722 1.287 . S
C2722 C2721 1.287 . S
C2722 C2723 1.524 . S
C2722 H2741 0.913 . S
C2723 H2699 0.950 . S
C2723 C2722 1.524 . S
C2723 C2724 1.415 . S
C2724 H2700 0.950 . S
C2724 C2719 1.363 . S
C2724 C2723 1.415 . S
C2725 H2701 0.951 . S
C2725 C2726 1.366 . S
C2725 C2727 1.388 . S
C2726 C2725 1.366 . S
C2726 C2730 1.385 . S
C2727 H2702 0.951 . S
C2727 C2725 1.388 . S
C2727 C2728 1.366 . S
C2728 C2727 1.366 . S
C2728 C2729 1.414 . S
C2728 C2731 1.499 . S
C2729 H2703 0.950 . S
C2729 C2728 1.414 . S
C2729 C2730 1.374 . S
C2730 H2704 0.950 . S
C2730 C2726 1.385 . S
C2730 C2729 1.374 . S
C2731 C2728 1.499 . S
C2731 C2732 1.373 . S
C2731 C2733 1.389 . S
C2732 H2705 0.950 . S
C2732 C2718 1.377 . S
C2732 C2731 1.373 . S
C2733 C2717 1.377 . S
C2733 C2731 1.389 . S
C2733 C2734 1.524 . S
C2734 C2733 1.524 . S
C2734 C2735 1.397 . S
C2734 C2739 1.363 . S
C2735 H2706 0.950 . S
C2735 C2734 1.397 . S
C2735 C2736 1.334 . S
C2736 H2707 0.950 . S
C2736 C2735 1.334 . S
C2736 C2737 1.287 . S
C2737 C2736 1.287 . S
C2737 C2738 1.524 . S
C2737 H2740 0.999 . S
C2738 H2708 0.950 . S
C2738 C2737 1.524 . S
C2738 C2739 1.415 . S
C2739 H2709 0.950 . S
C2739 C2734 1.363 . S
C2739 C2738 1.415 . S
H2740 C2737 0.999 . S
H2741 C2722 0.913 . S
H2742 C2760 0.951 1_556 S
H2743 C2762 0.951 . S
H2744 C2764 0.950 . S
H2745 C2765 0.950 . S
H2746 C2767 0.950 . S
H2747 C2770 0.950 . S
H2748 C2771 0.927 1_556 S
H2749 C2773 0.950 . S
H2750 C2774 0.950 . S
H2751 C2775 0.951 . S
H2752 C2777 0.951 . S
H2753 C2779 0.950 . S
H2754 C2780 0.950 . S
H2755 C2782 0.950 . S
H2756 C2785 0.950 . S
H2757 C2786 0.950 . S
H2758 C2788 0.950 . S
H2759 C2789 0.950 . S
C2760 H2742 0.951 1_554 S
C2760 C2761 1.366 . S
C2760 C2762 1.388 . S
C2761 C2760 1.366 . S
C2761 C2765 1.385 . S
C2762 H2743 0.951 . S
C2762 C2760 1.388 . S
C2762 C2763 1.366 . S
C2763 C2762 1.366 . S
C2763 C2764 1.414 . S
C2763 C2766 1.499 . S
C2764 H2744 0.950 . S
C2764 C2763 1.414 . S
C2764 C2765 1.374 . S
C2765 H2745 0.950 . S
C2765 C2761 1.385 . S
C2765 C2764 1.374 . S
C2766 C2763 1.499 . S
C2766 C2767 1.373 . S
C2766 C2768 1.389 . S
C2767 H2746 0.950 . S
C2767 C2766 1.373 . S
C2767 C2783 1.377 . S
C2768 C2766 1.389 . S
C2768 C2769 1.524 . S
C2768 C2782 1.377 . S
C2769 C2768 1.524 . S
C2769 C2770 1.397 . S
C2769 C2774 1.363 . S
C2770 H2747 0.950 . S
C2770 C2769 1.397 . S
C2770 C2771 1.391 . S
C2771 H2748 0.927 1_554 S
C2771 C2770 1.391 . S
C2771 C2772 1.257 1_554 S
C2772 C2771 1.257 1_556 S
C2772 C2773 1.524 . S
C2772 H2791 0.913 . S
C2773 H2749 0.950 . S
C2773 C2772 1.524 . S
C2773 C2774 1.415 1_556 S
C2774 H2750 0.950 . S
C2774 C2769 1.363 . S
C2774 C2773 1.415 1_554 S
C2775 H2751 0.951 . S
C2775 C2776 1.366 . S
C2775 C2777 1.388 . S
C2776 C2775 1.366 . S
C2776 C2780 1.385 . S
C2777 H2752 0.951 . S
C2777 C2775 1.388 . S
C2777 C2778 1.366 . S
C2778 C2777 1.366 . S
C2778 C2779 1.414 . S
C2778 C2781 1.499 . S
C2779 H2753 0.950 . S
C2779 C2778 1.414 . S
C2779 C2780 1.374 . S
C2780 H2754 0.950 . S
C2780 C2776 1.385 . S
C2780 C2779 1.374 . S
C2781 C2778 1.499 . S
C2781 C2782 1.373 . S
C2781 C2783 1.389 . S
C2782 H2755 0.950 . S
C2782 C2768 1.377 . S
C2782 C2781 1.373 . S
C2783 C2767 1.377 . S
C2783 C2781 1.389 . S
C2783 C2784 1.524 . S
C2784 C2783 1.524 . S
C2784 C2785 1.397 . S
C2784 C2789 1.363 . S
C2785 H2756 0.950 . S
C2785 C2784 1.397 . S
C2785 C2786 1.334 . S
C2786 H2757 0.950 . S
C2786 C2785 1.334 . S
C2786 C2787 1.287 . S
C2787 C2786 1.287 . S
C2787 C2788 1.524 . S
C2787 H2790 0.999 . S
C2788 H2758 0.950 . S
C2788 C2787 1.524 . S
C2788 C2789 1.415 . S
C2789 H2759 0.950 . S
C2789 C2784 1.363 . S
C2789 C2788 1.415 . S
H2790 C2787 0.999 . S
H2791 C2772 0.913 . S
H2792 C2810 0.951 . S
H2793 C2812 0.951 . S
H2794 C2814 0.950 . S
H2795 C2815 0.950 . S
H2796 C2817 0.950 . S
H2797 C2820 0.950 . S
H2798 C2821 0.950 . S
H2799 C2823 0.950 . S
H2800 C2824 0.950 . S
H2801 C2825 0.951 . S
H2802 C2827 0.951 . S
H2803 C2829 0.950 . S
H2804 C2830 0.950 . S
H2805 C2832 0.950 . S
H2806 C2835 0.950 . S
H2807 C2836 0.950 . S
H2808 C2838 0.950 . S
H2809 C2839 0.950 . S
C2810 H2792 0.951 . S
C2810 C2811 1.366 . S
C2810 C2812 1.388 . S
C2811 C2810 1.366 . S
C2811 C2815 1.385 . S
C2812 H2793 0.951 . S
C2812 C2810 1.388 . S
C2812 C2813 1.366 . S
C2813 C2812 1.366 . S
C2813 C2814 1.414 . S
C2813 C2816 1.499 . S
C2814 H2794 0.950 . S
C2814 C2813 1.414 . S
C2814 C2815 1.374 . S
C2815 H2795 0.950 . S
C2815 C2811 1.385 . S
C2815 C2814 1.374 . S
C2816 C2813 1.499 . S
C2816 C2817 1.373 . S
C2816 C2818 1.389 . S
C2817 H2796 0.950 . S
C2817 C2816 1.373 . S
C2817 C2833 1.377 . S
C2818 C2816 1.389 . S
C2818 C2819 1.524 . S
C2818 C2832 1.377 . S
C2819 C2818 1.524 . S
C2819 C2820 1.397 . S
C2819 C2824 1.363 . S
C2820 H2797 0.950 . S
C2820 C2819 1.397 . S
C2820 C2821 1.334 . S
C2821 H2798 0.950 . S
C2821 C2820 1.334 . S
C2821 C2822 1.287 . S
C2822 C2821 1.287 . S
C2822 C2823 1.524 . S
C2822 H2841 0.913 . S
C2823 H2799 0.950 . S
C2823 C2822 1.524 . S
C2823 C2824 1.415 . S
C2824 H2800 0.950 . S
C2824 C2819 1.363 . S
C2824 C2823 1.415 . S
C2825 H2801 0.951 . S
C2825 C2826 1.366 . S
C2825 C2827 1.388 . S
C2826 C2825 1.366 . S
C2826 C2830 1.385 . S
C2827 H2802 0.951 . S
C2827 C2825 1.388 . S
C2827 C2828 1.366 . S
C2828 C2827 1.366 . S
C2828 C2829 1.414 . S
C2828 C2831 1.499 . S
C2829 H2803 0.950 . S
C2829 C2828 1.414 . S
C2829 C2830 1.374 . S
C2830 H2804 0.950 . S
C2830 C2826 1.385 . S
C2830 C2829 1.374 . S
C2831 C2828 1.499 . S
C2831 C2832 1.373 . S
C2831 C2833 1.389 . S
C2832 H2805 0.950 . S
C2832 C2818 1.377 . S
C2832 C2831 1.373 . S
C2833 C2817 1.377 . S
C2833 C2831 1.389 . S
C2833 C2834 1.524 . S
C2834 C2833 1.524 . S
C2834 C2835 1.397 . S
C2834 C2839 1.363 . S
C2835 H2806 0.950 . S
C2835 C2834 1.397 . S
C2835 C2836 1.334 . S
C2836 H2807 0.950 . S
C2836 C2835 1.334 . S
C2836 C2837 1.287 . S
C2837 C2836 1.287 . S
C2837 C2838 1.524 . S
C2837 H2840 0.999 . S
C2838 H2808 0.950 . S
C2838 C2837 1.524 . S
C2838 C2839 1.415 . S
C2839 H2809 0.950 . S
C2839 C2834 1.363 . S
C2839 C2838 1.415 . S
H2840 C2837 0.999 . S
H2841 C2822 0.913 . S
H2842 C2860 0.951 . S
H2843 C2862 0.951 . S
H2844 C2864 0.950 . S
H2845 C2865 0.950 . S
H2846 C2867 0.950 . S
H2847 C2870 0.950 . S
H2848 C2871 0.950 . S
H2849 C2873 0.950 . S
H2850 C2874 0.950 . S
H2851 C2875 0.951 . S
H2852 C2877 0.951 . S
H2853 C2879 0.950 . S
H2854 C2880 0.950 . S
H2855 C2882 0.950 . S
H2856 C2885 0.950 . S
H2857 C2886 0.950 . S
H2858 C2888 0.950 . S
H2859 C2889 0.950 . S
C2860 H2842 0.951 . S
C2860 C2861 1.366 . S
C2860 C2862 1.388 . S
C2861 C2860 1.366 . S
C2861 C2865 1.385 . S
C2862 H2843 0.951 . S
C2862 C2860 1.388 . S
C2862 C2863 1.366 . S
C2863 C2862 1.366 . S
C2863 C2864 1.414 . S
C2863 C2866 1.499 . S
C2864 H2844 0.950 . S
C2864 C2863 1.414 . S
C2864 C2865 1.374 . S
C2865 H2845 0.950 . S
C2865 C2861 1.385 . S
C2865 C2864 1.374 . S
C2866 C2863 1.499 . S
C2866 C2867 1.373 . S
C2866 C2868 1.389 . S
C2867 H2846 0.950 . S
C2867 C2866 1.373 . S
C2867 C2883 1.377 . S
C2868 C2866 1.389 . S
C2868 C2869 1.524 . S
C2868 C2882 1.377 . S
C2869 C2868 1.524 . S
C2869 C2870 1.397 . S
C2869 C2874 1.363 . S
C2870 H2847 0.950 . S
C2870 C2869 1.397 . S
C2870 C2871 1.334 . S
C2871 H2848 0.950 . S
C2871 C2870 1.334 . S
C2871 C2872 1.287 . S
C2872 C2871 1.287 . S
C2872 C2873 1.524 . S
C2872 H2891 0.913 . S
C2873 H2849 0.950 . S
C2873 C2872 1.524 . S
C2873 C2874 1.415 . S
C2874 H2850 0.950 . S
C2874 C2869 1.363 . S
C2874 C2873 1.415 . S
C2875 H2851 0.951 . S
C2875 C2876 1.366 . S
C2875 C2877 1.388 . S
C2876 C2875 1.366 . S
C2876 C2880 1.385 . S
C2877 H2852 0.951 . S
C2877 C2875 1.388 . S
C2877 C2878 1.366 . S
C2878 C2877 1.366 . S
C2878 C2879 1.414 . S
C2878 C2881 1.499 . S
C2879 H2853 0.950 . S
C2879 C2878 1.414 . S
C2879 C2880 1.374 . S
C2880 H2854 0.950 . S
C2880 C2876 1.385 . S
C2880 C2879 1.374 . S
C2881 C2878 1.499 . S
C2881 C2882 1.373 . S
C2881 C2883 1.389 . S
C2882 H2855 0.950 . S
C2882 C2868 1.377 . S
C2882 C2881 1.373 . S
C2883 C2867 1.377 . S
C2883 C2881 1.389 . S
C2883 C2884 1.524 . S
C2884 C2883 1.524 . S
C2884 C2885 1.397 . S
C2884 C2889 1.363 . S
C2885 H2856 0.950 . S
C2885 C2884 1.397 . S
C2885 C2886 1.334 . S
C2886 H2857 0.950 . S
C2886 C2885 1.334 . S
C2886 C2887 1.287 . S
C2887 C2886 1.287 . S
C2887 C2888 1.524 . S
C2887 H2890 0.999 . S
C2888 H2858 0.950 . S
C2888 C2887 1.524 . S
C2888 C2889 1.415 . S
C2889 H2859 0.950 . S
C2889 C2884 1.363 . S
C2889 C2888 1.415 . S
H2890 C2887 0.999 . S
H2891 C2872 0.913 . S
H2892 C2910 0.951 . S
H2893 C2912 0.951 . S
H2894 C2914 0.950 . S
H2895 C2915 0.950 . S
H2896 C2917 0.950 . S
H2897 C2920 0.950 . S
H2898 C2921 0.950 . S
H2899 C2923 0.950 . S
H2900 C2924 0.950 . S
H2901 C2925 0.951 . S
H2902 C2927 0.951 . S
H2903 C2929 0.950 . S
H2904 C2930 0.950 . S
H2905 C2932 0.950 . S
H2906 C2935 0.950 . S
H2907 C2936 0.950 . S
H2908 C2938 0.950 . S
H2909 C2939 0.950 . S
C2910 H2892 0.951 . S
C2910 C2911 1.366 . S
C2910 C2912 1.388 . S
C2911 C2910 1.366 . S
C2911 C2915 1.385 . S
C2912 H2893 0.951 . S
C2912 C2910 1.388 . S
C2912 C2913 1.366 . S
C2913 C2912 1.366 . S
C2913 C2914 1.414 . S
C2913 C2916 1.499 . S
C2914 H2894 0.950 . S
C2914 C2913 1.414 . S
C2914 C2915 1.374 . S
C2915 H2895 0.950 . S
C2915 C2911 1.385 . S
C2915 C2914 1.374 . S
C2916 C2913 1.499 . S
C2916 C2917 1.373 . S
C2916 C2918 1.389 . S
C2917 H2896 0.950 . S
C2917 C2916 1.373 . S
C2917 C2933 1.377 . S
C2918 C2916 1.389 . S
C2918 C2919 1.524 . S
C2918 C2932 1.377 . S
C2919 C2918 1.524 . S
C2919 C2920 1.397 . S
C2919 C2924 1.363 . S
C2920 H2897 0.950 . S
C2920 C2919 1.397 . S
C2920 C2921 1.334 . S
C2921 H2898 0.950 . S
C2921 C2920 1.334 . S
C2921 C2922 1.287 . S
C2922 C2921 1.287 . S
C2922 C2923 1.524 . S
C2922 H2941 0.913 . S
C2923 H2899 0.950 . S
C2923 C2922 1.524 . S
C2923 C2924 1.415 . S
C2924 H2900 0.950 . S
C2924 C2919 1.363 . S
C2924 C2923 1.415 . S
C2925 H2901 0.951 . S
C2925 C2926 1.366 . S
C2925 C2927 1.388 . S
C2926 C2925 1.366 . S
C2926 C2930 1.385 . S
C2927 H2902 0.951 . S
C2927 C2925 1.388 . S
C2927 C2928 1.366 . S
C2928 C2927 1.366 . S
C2928 C2929 1.414 . S
C2928 C2931 1.499 . S
C2929 H2903 0.950 . S
C2929 C2928 1.414 . S
C2929 C2930 1.374 . S
C2930 H2904 0.950 . S
C2930 C2926 1.385 . S
C2930 C2929 1.374 . S
C2931 C2928 1.499 . S
C2931 C2932 1.373 . S
C2931 C2933 1.389 . S
C2932 H2905 0.950 . S
C2932 C2918 1.377 . S
C2932 C2931 1.373 . S
C2933 C2917 1.377 . S
C2933 C2931 1.389 . S
C2933 C2934 1.524 . S
C2934 C2933 1.524 . S
C2934 C2935 1.397 . S
C2934 C2939 1.363 . S
C2935 H2906 0.950 . S
C2935 C2934 1.397 . S
C2935 C2936 1.334 . S
C2936 H2907 0.950 . S
C2936 C2935 1.334 . S
C2936 C2937 1.287 . S
C2937 C2936 1.287 . S
C2937 C2938 1.524 . S
C2937 H2940 0.999 . S
C2938 H2908 0.950 . S
C2938 C2937 1.524 . S
C2938 C2939 1.415 . S
C2939 H2909 0.950 . S
C2939 C2934 1.363 . S
C2939 C2938 1.415 . S
H2940 C2937 0.999 . S
H2941 C2922 0.913 . S
H2942 C2960 0.951 . S
H2943 C2962 0.951 . S
H2944 C2964 0.950 . S
H2945 C2965 0.950 . S
H2946 C2967 0.950 . S
H2947 C2970 0.950 . S
H2948 C2971 0.950 . S
H2949 C2973 0.950 . S
H2950 C2974 0.950 . S
H2951 C2975 0.951 . S
H2952 C2977 0.951 . S
H2953 C2979 0.950 . S
H2954 C2980 0.950 . S
H2955 C2982 0.950 . S
H2956 C2985 0.950 . S
H2957 C2986 0.950 . S
H2958 C2988 0.950 . S
H2959 C2989 0.950 . S
C2960 H2942 0.951 . S
C2960 C2961 1.366 . S
C2960 C2962 1.388 . S
C2961 C2960 1.366 . S
C2961 C2965 1.385 . S
C2962 H2943 0.951 . S
C2962 C2960 1.388 . S
C2962 C2963 1.366 . S
C2963 C2962 1.366 . S
C2963 C2964 1.414 . S
C2963 C2966 1.499 . S
C2964 H2944 0.950 . S
C2964 C2963 1.414 . S
C2964 C2965 1.374 . S
C2965 H2945 0.950 . S
C2965 C2961 1.385 . S
C2965 C2964 1.374 . S
C2966 C2963 1.499 . S
C2966 C2967 1.373 . S
C2966 C2968 1.389 . S
C2967 H2946 0.950 . S
C2967 C2966 1.373 . S
C2967 C2983 1.377 . S
C2968 C2966 1.389 . S
C2968 C2969 1.524 . S
C2968 C2982 1.377 . S
C2969 C2968 1.524 . S
C2969 C2970 1.397 . S
C2969 C2974 1.363 . S
C2970 H2947 0.950 . S
C2970 C2969 1.397 . S
C2970 C2971 1.334 . S
C2971 H2948 0.950 . S
C2971 C2970 1.334 . S
C2971 C2972 1.287 . S
C2972 C2971 1.287 . S
C2972 C2973 1.524 . S
C2972 H2991 0.913 . S
C2973 H2949 0.950 . S
C2973 C2972 1.524 . S
C2973 C2974 1.415 . S
C2974 H2950 0.950 . S
C2974 C2969 1.363 . S
C2974 C2973 1.415 . S
C2975 H2951 0.951 . S
C2975 C2976 1.366 . S
C2975 C2977 1.388 . S
C2976 C2975 1.366 . S
C2976 C2980 1.385 . S
C2977 H2952 0.951 . S
C2977 C2975 1.388 . S
C2977 C2978 1.366 . S
C2978 C2977 1.366 . S
C2978 C2979 1.414 . S
C2978 C2981 1.499 . S
C2979 H2953 0.950 . S
C2979 C2978 1.414 . S
C2979 C2980 1.374 . S
C2980 H2954 0.950 . S
C2980 C2976 1.385 . S
C2980 C2979 1.374 . S
C2981 C2978 1.499 . S
C2981 C2982 1.373 . S
C2981 C2983 1.389 . S
C2982 H2955 0.950 . S
C2982 C2968 1.377 . S
C2982 C2981 1.373 . S
C2983 C2967 1.377 . S
C2983 C2981 1.389 . S
C2983 C2984 1.524 . S
C2984 C2983 1.524 . S
C2984 C2985 1.397 . S
C2984 C2989 1.363 . S
C2985 H2956 0.950 . S
C2985 C2984 1.397 . S
C2985 C2986 1.334 . S
C2986 H2957 0.950 . S
C2986 C2985 1.334 . S
C2986 C2987 1.287 . S
C2987 C2986 1.287 . S
C2987 C2988 1.524 . S
C2987 H2990 0.999 . S
C2988 H2958 0.950 . S
C2988 C2987 1.524 . S
C2988 C2989 1.415 . S
C2989 H2959 0.950 . S
C2989 C2984 1.363 . S
C2989 C2988 1.415 . S
H2990 C2987 0.999 . S
H2991 C2972 0.913 . S
H2992 C3010 0.951 . S
H2993 C3012 0.951 . S
H2994 C3014 0.950 . S
H2995 C3015 0.950 . S
H2996 C3017 0.950 . S
H2997 C3020 0.950 . S
H2998 C3021 0.950 . S
H2999 C3023 0.950 . S
H3000 C3024 0.950 1_556 S
H3001 C3025 0.951 1_554 S
H3002 C3027 0.951 . S
H3003 C3029 0.950 . S
H3004 C3030 0.950 . S
H3005 C3032 0.947 1_554 S
H3006 C3035 0.950 . S
H3007 C3036 0.950 . S
H3008 C3038 0.950 . S
H3009 C3039 0.950 . S
C3010 H2992 0.951 . S
C3010 C3011 1.366 . S
C3010 C3012 1.388 . S
C3011 C3010 1.366 . S
C3011 C3015 1.385 . S
C3012 H2993 0.951 . S
C3012 C3010 1.388 . S
C3012 C3013 1.366 . S
C3013 C3012 1.366 . S
C3013 C3014 1.414 . S
C3013 C3016 1.499 . S
C3014 H2994 0.950 . S
C3014 C3013 1.414 . S
C3014 C3015 1.374 . S
C3015 H2995 0.950 . S
C3015 C3011 1.385 . S
C3015 C3014 1.374 . S
C3016 C3013 1.499 . S
C3016 C3017 1.373 . S
C3016 C3018 1.389 . S
C3017 H2996 0.950 . S
C3017 C3016 1.373 . S
C3017 C3033 1.377 . S
C3018 C3016 1.389 . S
C3018 C3019 1.524 1_556 S
C3018 C3032 1.377 . S
C3019 C3018 1.524 1_554 S
C3019 C3020 1.397 . S
C3019 C3024 1.363 . S
C3020 H2997 0.950 . S
C3020 C3019 1.397 . S
C3020 C3021 1.334 . S
C3021 H2998 0.950 . S
C3021 C3020 1.334 . S
C3021 C3022 1.287 . S
C3022 C3021 1.287 . S
C3022 C3023 1.524 . S
C3022 H3041 0.913 . S
C3023 H2999 0.950 . S
C3023 C3022 1.524 . S
C3023 C3024 1.415 . S
C3024 H3000 0.950 1_554 S
C3024 C3019 1.363 . S
C3024 C3023 1.415 . S
C3025 H3001 0.951 1_556 S
C3025 C3026 1.366 . S
C3025 C3027 1.388 . S
C3026 C3025 1.366 . S
C3026 C3030 1.385 . S
C3027 H3002 0.951 . S
C3027 C3025 1.388 . S
C3027 C3028 1.366 . S
C3028 C3027 1.366 . S
C3028 C3029 1.414 . S
C3028 C3031 1.499 . S
C3029 H3003 0.950 . S
C3029 C3028 1.414 . S
C3029 C3030 1.374 . S
C3030 H3004 0.950 . S
C3030 C3026 1.385 . S
C3030 C3029 1.374 . S
C3031 C3028 1.499 . S
C3031 C3032 1.373 . S
C3031 C3033 1.389 . S
C3032 H3005 0.947 1_556 S
C3032 C3018 1.377 . S
C3032 C3031 1.373 . S
C3033 C3017 1.377 . S
C3033 C3031 1.389 . S
C3033 C3034 1.524 . S
C3034 C3033 1.524 . S
C3034 C3035 1.397 . S
C3034 C3039 1.363 . S
C3035 H3006 0.950 . S
C3035 C3034 1.397 . S
C3035 C3036 1.334 . S
C3036 H3007 0.950 . S
C3036 C3035 1.334 . S
C3036 C3037 1.287 . S
C3037 C3036 1.287 . S
C3037 C3038 1.524 . S
C3037 H3040 0.999 . S
C3038 H3008 0.950 . S
C3038 C3037 1.524 . S
C3038 C3039 1.415 . S
C3039 H3009 0.950 . S
C3039 C3034 1.363 . S
C3039 C3038 1.415 . S
H3040 C3037 0.999 . S
H3041 C3022 0.913 . S
H3042 C3060 0.951 . S
H3043 C3062 0.951 . S
H3044 C3064 0.950 . S
H3045 C3065 0.950 . S
H3046 C3067 0.950 . S
H3047 C3070 0.950 . S
H3048 C3071 0.950 . S
H3049 C3073 0.950 . S
H3050 C3074 0.950 . S
H3051 C3075 0.951 . S
H3052 C3077 0.951 . S
H3053 C3079 0.950 . S
H3054 C3080 0.950 . S
H3055 C3082 0.950 . S
H3056 C3085 0.950 . S
H3057 C3086 0.950 . S
H3058 C3088 0.950 . S
H3059 C3089 0.950 . S
C3060 H3042 0.951 . S
C3060 C3061 1.366 . S
C3060 C3062 1.388 . S
C3061 C3060 1.366 . S
C3061 C3065 1.385 . S
C3062 H3043 0.951 . S
C3062 C3060 1.388 . S
C3062 C3063 1.366 . S
C3063 C3062 1.366 . S
C3063 C3064 1.414 . S
C3063 C3066 1.499 . S
C3064 H3044 0.950 . S
C3064 C3063 1.414 . S
C3064 C3065 1.374 . S
C3065 H3045 0.950 . S
C3065 C3061 1.385 . S
C3065 C3064 1.374 . S
C3066 C3063 1.499 . S
C3066 C3067 1.373 . S
C3066 C3068 1.389 . S
C3067 H3046 0.950 . S
C3067 C3066 1.373 . S
C3067 C3083 1.377 . S
C3068 C3066 1.389 . S
C3068 C3069 1.524 . S
C3068 C3082 1.377 . S
C3069 C3068 1.524 . S
C3069 C3070 1.397 . S
C3069 C3074 1.363 . S
C3070 H3047 0.950 . S
C3070 C3069 1.397 . S
C3070 C3071 1.334 . S
C3071 H3048 0.950 . S
C3071 C3070 1.334 . S
C3071 C3072 1.287 . S
C3072 C3071 1.287 . S
C3072 C3073 1.524 . S
C3072 H3091 0.913 . S
C3073 H3049 0.950 . S
C3073 C3072 1.524 . S
C3073 C3074 1.415 . S
C3074 H3050 0.950 . S
C3074 C3069 1.363 . S
C3074 C3073 1.415 . S
C3075 H3051 0.951 . S
C3075 C3076 1.366 . S
C3075 C3077 1.388 . S
C3076 C3075 1.366 . S
C3076 C3080 1.385 . S
C3077 H3052 0.951 . S
C3077 C3075 1.388 . S
C3077 C3078 1.366 . S
C3078 C3077 1.366 . S
C3078 C3079 1.414 . S
C3078 C3081 1.499 . S
C3079 H3053 0.950 . S
C3079 C3078 1.414 . S
C3079 C3080 1.374 . S
C3080 H3054 0.950 . S
C3080 C3076 1.385 . S
C3080 C3079 1.374 . S
C3081 C3078 1.499 . S
C3081 C3082 1.373 . S
C3081 C3083 1.389 . S
C3082 H3055 0.950 . S
C3082 C3068 1.377 . S
C3082 C3081 1.373 . S
C3083 C3067 1.377 . S
C3083 C3081 1.389 . S
C3083 C3084 1.524 . S
C3084 C3083 1.524 . S
C3084 C3085 1.397 . S
C3084 C3089 1.363 . S
C3085 H3056 0.950 . S
C3085 C3084 1.397 . S
C3085 C3086 1.334 . S
C3086 H3057 0.950 . S
C3086 C3085 1.334 . S
C3086 C3087 1.287 . S
C3087 C3086 1.287 . S
C3087 C3088 1.524 . S
C3087 H3090 0.999 . S
C3088 H3058 0.950 . S
C3088 C3087 1.524 . S
C3088 C3089 1.415 . S
C3089 H3059 0.950 . S
C3089 C3084 1.363 . S
C3089 C3088 1.415 . S
H3090 C3087 0.999 . S
H3091 C3072 0.913 . S
H3092 C3110 0.951 . S
H3093 C3112 0.951 . S
H3094 C3114 0.950 . S
H3095 C3115 0.950 . S
H3096 C3117 0.950 . S
H3097 C3120 0.950 . S
H3098 C3121 0.950 . S
H3099 C3123 0.950 . S
H3100 C3124 0.950 . S
H3101 C3125 0.951 . S
H3102 C3127 0.951 . S
H3103 C3129 0.950 . S
H3104 C3130 0.950 . S
H3105 C3132 0.950 . S
H3106 C3135 0.950 . S
H3107 C3136 0.950 . S
H3108 C3138 0.950 . S
H3109 C3139 0.950 . S
C3110 H3092 0.951 . S
C3110 C3111 1.366 . S
C3110 C3112 1.388 . S
C3111 C3110 1.366 . S
C3111 C3115 1.385 . S
C3112 H3093 0.951 . S
C3112 C3110 1.388 . S
C3112 C3113 1.366 . S
C3113 C3112 1.366 . S
C3113 C3114 1.414 . S
C3113 C3116 1.499 . S
C3114 H3094 0.950 . S
C3114 C3113 1.414 . S
C3114 C3115 1.374 . S
C3115 H3095 0.950 . S
C3115 C3111 1.385 . S
C3115 C3114 1.374 . S
C3116 C3113 1.499 . S
C3116 C3117 1.373 . S
C3116 C3118 1.389 . S
C3117 H3096 0.950 . S
C3117 C3116 1.373 . S
C3117 C3133 1.377 . S
C3118 C3116 1.389 . S
C3118 C3119 1.524 . S
C3118 C3132 1.377 . S
C3119 C3118 1.524 . S
C3119 C3120 1.397 . S
C3119 C3124 1.363 . S
C3120 H3097 0.950 . S
C3120 C3119 1.397 . S
C3120 C3121 1.334 . S
C3121 H3098 0.950 . S
C3121 C3120 1.334 . S
C3121 C3122 1.287 . S
C3122 C3121 1.287 . S
C3122 C3123 1.524 . S
C3122 H3141 0.913 . S
C3123 H3099 0.950 . S
C3123 C3122 1.524 . S
C3123 C3124 1.415 . S
C3124 H3100 0.950 . S
C3124 C3119 1.363 . S
C3124 C3123 1.415 . S
C3125 H3101 0.951 . S
C3125 C3126 1.366 . S
C3125 C3127 1.388 . S
C3126 C3125 1.366 . S
C3126 C3130 1.385 . S
C3127 H3102 0.951 . S
C3127 C3125 1.388 . S
C3127 C3128 1.366 . S
C3128 C3127 1.366 . S
C3128 C3129 1.414 . S
C3128 C3131 1.499 . S
C3129 H3103 0.950 . S
C3129 C3128 1.414 . S
C3129 C3130 1.374 . S
C3130 H3104 0.950 . S
C3130 C3126 1.385 . S
C3130 C3129 1.374 . S
C3131 C3128 1.499 . S
C3131 C3132 1.373 . S
C3131 C3133 1.389 . S
C3132 H3105 0.950 . S
C3132 C3118 1.377 . S
C3132 C3131 1.373 . S
C3133 C3117 1.377 . S
C3133 C3131 1.389 . S
C3133 C3134 1.524 . S
C3134 C3133 1.524 . S
C3134 C3135 1.397 1_554 S
C3134 C3139 1.363 . S
C3135 H3106 0.950 . S
C3135 C3134 1.397 1_556 S
C3135 C3136 1.334 . S
C3136 H3107 0.950 . S
C3136 C3135 1.334 . S
C3136 C3137 1.287 . S
C3137 C3136 1.287 . S
C3137 C3138 1.524 . S
C3137 H3140 0.999 . S
C3138 H3108 0.950 . S
C3138 C3137 1.524 . S
C3138 C3139 1.415 1_556 S
C3139 H3109 0.950 . S
C3139 C3134 1.363 . S
C3139 C3138 1.415 1_554 S
H3140 C3137 0.999 . S
H3141 C3122 0.913 . S
H3142 C3160 0.951 . S
H3143 C3162 0.951 . S
H3144 C3164 0.950 . S
H3145 C3165 0.950 . S
H3146 C3167 0.950 . S
H3147 C3170 0.950 . S
H3148 C3171 0.950 . S
H3149 C3173 0.950 . S
H3150 C3174 0.950 . S
H3151 C3175 0.904 1_556 S
H3152 C3177 0.951 1_556 S
H3153 C3179 0.950 . S
H3154 C3180 0.950 . S
H3155 C3182 0.950 . S
H3156 C3185 0.950 . S
H3157 C3186 0.950 . S
H3158 C3188 0.950 . S
H3159 C3189 0.950 . S
C3160 H3142 0.951 . S
C3160 C3161 1.366 . S
C3160 C3162 1.388 . S
C3161 C3160 1.366 . S
C3161 C3165 1.385 . S
C3162 H3143 0.951 . S
C3162 C3160 1.388 . S
C3162 C3163 1.366 . S
C3163 C3162 1.366 . S
C3163 C3164 1.414 . S
C3163 C3166 1.499 . S
C3164 H3144 0.950 . S
C3164 C3163 1.414 . S
C3164 C3165 1.374 . S
C3165 H3145 0.950 . S
C3165 C3161 1.385 . S
C3165 C3164 1.374 . S
C3166 C3163 1.499 . S
C3166 C3167 1.373 . S
C3166 C3168 1.389 . S
C3167 H3146 0.950 . S
C3167 C3166 1.373 . S
C3167 C3183 1.377 . S
C3168 C3166 1.389 . S
C3168 C3169 1.524 . S
C3168 C3182 1.377 . S
C3169 C3168 1.524 . S
C3169 C3170 1.397 . S
C3169 C3174 1.363 . S
C3170 H3147 0.950 . S
C3170 C3169 1.397 . S
C3170 C3171 1.334 1_565 S
C3171 H3148 0.950 . S
C3171 C3170 1.334 1_545 S
C3171 C3172 1.287 . S
C3172 C3171 1.287 . S
C3172 C3173 1.524 . S
C3172 H3191 0.913 . S
C3173 H3149 0.950 . S
C3173 C3172 1.524 . S
C3173 C3174 1.415 1_545 S
C3174 H3150 0.950 . S
C3174 C3169 1.363 . S
C3174 C3173 1.415 1_565 S
C3175 H3151 0.904 1_554 S
C3175 C3176 1.405 . S
C3175 C3177 1.397 . S
C3176 C3175 1.405 . S
C3176 C3180 1.385 . S
C3177 H3152 0.951 1_554 S
C3177 C3175 1.397 . S
C3177 C3178 1.366 . S
C3178 C3177 1.366 . S
C3178 C3179 1.414 . S
C3178 C3181 1.499 . S
C3179 H3153 0.950 . S
C3179 C3178 1.414 . S
C3179 C3180 1.374 . S
C3180 H3154 0.950 . S
C3180 C3176 1.385 . S
C3180 C3179 1.374 . S
C3181 C3178 1.499 . S
C3181 C3182 1.373 . S
C3181 C3183 1.389 . S
C3182 H3155 0.950 . S
C3182 C3168 1.377 . S
C3182 C3181 1.373 . S
C3183 C3167 1.377 . S
C3183 C3181 1.389 . S
C3183 C3184 1.524 . S
C3184 C3183 1.524 . S
C3184 C3185 1.397 . S
C3184 C3189 1.363 1_554 S
C3185 H3156 0.950 . S
C3185 C3184 1.397 . S
C3185 C3186 1.334 . S
C3186 H3157 0.950 . S
C3186 C3185 1.334 . S
C3186 C3187 1.287 . S
C3187 C3186 1.287 . S
C3187 C3188 1.524 1_554 S
C3187 H3190 0.999 . S
C3188 H3158 0.950 . S
C3188 C3187 1.524 1_556 S
C3188 C3189 1.415 . S
C3189 H3159 0.950 . S
C3189 C3184 1.363 1_556 S
C3189 C3188 1.415 . S
H3190 C3187 0.999 . S
H3191 C3172 0.913 . S
C826 C632 1.485 . S
C811 C211 1.514 . S
C876 C645 1.466 . S
C861 C255 1.450 1_455 S
C911 C274 1.677 . S
C926 C665 1.566 . S
C976 C679 1.359 . S
C961 C157 1.433 . S
C1026 C691 1.532 . S
C1011 C391 1.538 . S
C1076 C705 1.407 . S
C1061 C484 1.409 . S
C1111 C450 1.486 . S
C1126 C715 1.477 . S
C1176 C730 1.517 . S
C1161 C352 1.551 . S
C1211 C430 1.517 . S
C1226 C744 1.488 . S
C1276 C763 1.365 . S
C1261 C367 1.441 . S
C1311 C411 1.514 . S
C1326 C743 1.504 . S
C1376 C761 1.405 . S
C1361 C469 1.408 . S
C1411 C294 1.670 . S
C1426 C777 1.561 . S
C1461 C177 1.481 . S
C1476 C771 1.476 . S
C1511 C196 1.526 . S
C1526 C775 1.520 . S
C1561 C235 1.540 . S
C1576 C772 1.506 . S
C1611 C133 1.524 . S
C1626 C674 1.496 . S
C1661 C567 1.487 . S
C1676 C673 1.477 . S
C1726 C637 1.348 . S
C1711 C601 1.423 . S
C1776 C651 1.565 . S
C1761 C328 1.678 . S
C1811 C172 1.544 1_545 S
C1826 C688 1.509 . S
C1876 C733 1.523 . S
C1861 C445 1.528 . S
C1926 C687 1.492 . S
C1911 C372 1.452 1_545 S
C1976 C719 1.396 . S
C1961 C489 1.399 . S
C2026 C716 1.485 . S
C2011 C562 1.514 . S
C2061 C606 1.473 . S
C2076 C729 1.466 . S
C2111 C313 1.678 . S
C2126 C693 1.566 . S
C2176 C707 1.358 . S
C2161 C508 1.433 . S
C2211 C118 1.538 . S
C2226 C663 1.532 . S
C2276 C677 1.407 . S
C2261 C16 1.410 1_655 S
C2326 C631 1.478 . S
C2311 C60 1.486 . S
C2376 C646 1.516 . S
C2361 C79 1.551 1_455 S
C2411 C40 1.518 . S
C2426 C758 1.489 . S
C2461 C94 1.441 . S
C2476 C749 1.365 . S
C2511 C138 1.514 . S
C2526 C757 1.504 . S
C2561 C1 1.408 1_556 S
C2576 C747 1.405 . S
C2626 C791 1.561 . S
C2611 C333 1.670 . S
C2676 C785 1.476 . S
C2661 C528 1.478 . S
C2726 C789 1.520 . S
C2711 C547 1.526 . S
C2761 C586 1.540 1_554 S
C2776 C786 1.506 . S
C2811 C406 1.525 . S
C2826 C702 1.495 . S
C2876 C701 1.477 . S
C2861 C216 1.487 . S
C2926 C721 1.348 . S
C2911 C250 1.423 . S
C2976 C735 1.565 . S
C2961 C289 1.679 . S
C3011 C523 1.544 . S
C3026 C660 1.510 . S
C3076 C649 1.523 . S
C3061 C55 1.528 . S
C3111 C99 1.501 . S
C3126 C659 1.493 . S
C3176 C635 1.396 . S
C3161 C21 1.366 1_565 S
