# Generated by pormake.
# Topology anh, (6,3)-cn, num edge types: 1
# Building blocks:
#     Node 0, Type 0, BuildingBlock: BETFAJ_clean_sbu_0, # of connection points: 6
#     Node 1, Type 0, BuildingBlock: BETFAJ_clean_sbu_0, # of connection points: 6
#     Node 2, Type 0, BuildingBlock: BETFAJ_clean_sbu_0, # of connection points: 6
#     Node 3, Type 1, BuildingBlock: CUQRIR_clean_linker_1, # of connection points: 3
#     Node 4, Type 1, BuildingBlock: CUQRIR_clean_linker_1, # of connection points: 3
#     Node 5, Type 1, BuildingBlock: CUQRIR_clean_linker_1, # of connection points: 3
#     Node 6, Type 1, BuildingBlock: CUQRIR_clean_linker_1, # of connection points: 3
#     Node 7, Type 1, BuildingBlock: CUQRIR_clean_linker_1, # of connection points: 3
#     Node 8, Type 1, BuildingBlock: CUQRIR_clean_linker_1, # of connection points: 3
#     Edge 9, Type (0, 1), BuildingBlock: MIFKUJ_clean_linker_0, # of connection points: 2
#     Edge 10, Type (0, 1), BuildingBlock: MIFKUJ_clean_linker_0, # of connection points: 2
#     Edge 11, Type (0, 1), BuildingBlock: MIFKUJ_clean_linker_0, # of connection points: 2
#     Edge 12, Type (0, 1), BuildingBlock: MIFKUJ_clean_linker_0, # of connection points: 2
#     Edge 13, Type (0, 1), BuildingBlock: MIFKUJ_clean_linker_0, # of connection points: 2
#     Edge 14, Type (0, 1), BuildingBlock: MIFKUJ_clean_linker_0, # of connection points: 2
#     Edge 15, Type (0, 1), BuildingBlock: MIFKUJ_clean_linker_0, # of connection points: 2
#     Edge 16, Type (0, 1), BuildingBlock: MIFKUJ_clean_linker_0, # of connection points: 2
#     Edge 17, Type (0, 1), BuildingBlock: MIFKUJ_clean_linker_0, # of connection points: 2
#     Edge 18, Type (0, 1), BuildingBlock: MIFKUJ_clean_linker_0, # of connection points: 2
#     Edge 19, Type (0, 1), BuildingBlock: MIFKUJ_clean_linker_0, # of connection points: 2
#     Edge 20, Type (0, 1), BuildingBlock: MIFKUJ_clean_linker_0, # of connection points: 2
#     Edge 21, Type (0, 1), BuildingBlock: MIFKUJ_clean_linker_0, # of connection points: 2
#     Edge 22, Type (0, 1), BuildingBlock: MIFKUJ_clean_linker_0, # of connection points: 2
#     Edge 23, Type (0, 1), BuildingBlock: MIFKUJ_clean_linker_0, # of connection points: 2
#     Edge 24, Type (0, 1), BuildingBlock: MIFKUJ_clean_linker_0, # of connection points: 2
#     Edge 25, Type (0, 1), BuildingBlock: MIFKUJ_clean_linker_0, # of connection points: 2
#     Edge 26, Type (0, 1), BuildingBlock: MIFKUJ_clean_linker_0, # of connection points: 2
# Relax obj value: 0.167
# Max RMSD: 0.211
# Mean RMSD: 0.159
data_MOF--net-anh--node1-BETFAJ_clean_sbu_0--node2-CUQRIR_clean_linker_1--edge1-MIFKUJ_clean_linker_0
_symmetry_space_group_name_H-M    P1
_symmetry_Int_Tables_number       1
_symmetry_cell_setting            triclinic
loop_
_symmetry_equiv_pos_as_xyz
'x, y, z'
_cell_length_a     38.040718
_cell_length_b     44.933862
_cell_length_c     61.315593
_cell_angle_alpha  88.22406
_cell_angle_beta   89.975065
_cell_angle_gamma 128.80763
loop_
_atom_site_label
_atom_site_type_symbol
_atom_site_fract_x
_atom_site_fract_y
_atom_site_fract_z
_atom_type_partial_charge
Sm0 Sm 0.07472 0.4767 0.15884 0.0
Sm1 Sm 1.02995 0.50929 0.16498 0.0
C2 C 0.12672 0.46667 0.14133 0.0
C3 C 0.1706 0.49103 0.15121 0.0
C4 C 0.20615 0.52467 0.13979 0.0
C5 C 0.24464 0.55283 0.15082 0.0
C6 C 0.24867 0.54542 0.17265 0.0
C7 C 0.2097 0.51801 0.185 0.0
C8 C 0.17254 0.48839 0.17409 0.0
C9 C 0.07136 0.48174 0.20397 0.0
C10 C 0.13601 0.56865 0.16869 0.0
C11 C 0.97677 0.5244 0.17542 0.0
C12 C 0.93182 0.49458 0.1841 0.0
C13 C 0.91473 0.50069 0.20201 0.0
C14 C 0.87065 0.4716 0.20934 0.0
C15 C 0.84419 0.43716 0.1983 0.0
C16 C 0.86533 0.42822 0.1845 0.0
C17 C 0.90765 0.45779 0.17598 0.0
C18 C 1.05692 0.51369 0.12246 0.0
C19 C 0.97047 0.41449 0.1666 0.0
O20 O 0.1175 0.48661 0.13059 0.0
O21 O 0.09355 0.43931 0.15431 0.0
O22 O 1.05631 0.49176 0.18982 0.0
O23 O 0.08739 0.46702 0.19458 0.0
O24 O 0.1356 0.54222 0.15944 0.0
O25 O 0.09831 0.56093 0.17532 0.0
O26 O 1.00844 0.53192 0.18836 0.0
O27 O 0.98341 0.52068 0.15507 0.0
O28 O 1.0358 0.48429 0.13509 0.0
O29 O 0.06648 0.54278 0.13258 0.0
O30 O 0.97326 0.44366 0.17326 0.0
O31 O 1.00515 0.42036 0.15708 0.0
H32 H 0.20415 0.52903 0.1225 0.0
H33 H 0.274 0.5762 0.14142 0.0
H34 H 0.21185 0.51353 0.20228 0.0
H35 H 0.14581 0.46334 0.18364 0.0
H36 H 0.93412 0.5284 0.20924 0.0
H37 H 0.85525 0.47849 0.22081 0.0
H38 H 0.84553 0.40147 0.17617 0.0
H39 H 0.91989 0.45225 0.16202 0.0
Sm40 Sm 0.65463 0.02601 0.49027 0.0
Sm41 Sm 0.59569 0.05208 0.4843 0.0
C42 C 0.68569 0.98943 0.50187 0.0
C43 C 0.66743 0.94912 0.50372 0.0
C44 C 0.66066 0.93201 0.52447 0.0
C45 C 0.64651 0.89495 0.52663 0.0
C46 C 0.63907 0.87425 0.5081 0.0
C47 C 0.64374 0.89056 0.48731 0.0
C48 C 0.65791 0.92776 0.48512 0.0
C49 C 0.64493 0.04153 0.4482 0.0
C50 C 0.54213 0.96079 0.48755 0.0
C51 C 0.56505 0.08528 0.46639 0.0
C52 C 0.57648 0.12242 0.47042 0.0
C53 C 0.57976 0.1448 0.45289 0.0
C54 C 0.59264 0.18093 0.45639 0.0
C55 C 0.60247 0.19521 0.4775 0.0
C56 C 0.60067 0.17325 0.49493 0.0
C57 C 0.58791 0.13715 0.4914 0.0
C58 C 0.61286 0.05342 0.52823 0.0
C59 C 0.70716 0.11656 0.48784 0.0
O60 O 0.67009 1.00013 0.51599 0.0
O61 O 0.69141 1.00422 0.48221 0.0
O62 O 0.61397 0.02382 0.46273 0.0
O63 O 0.68264 0.05098 0.45554 0.0
O64 O 0.58162 0.9686 0.49057 0.0
O65 O 0.53808 0.98767 0.48403 0.0
O66 O 0.59788 0.08735 0.45749 0.0
O67 O 0.54296 0.05894 0.48218 0.0
O68 O 0.6263 0.04418 0.51307 0.0
O69 O 0.58918 0.06261 0.5202 0.0
O70 O 0.66903 0.10761 0.48057 0.0
O71 O 0.70986 0.0902 0.49548 0.0
H72 H 0.66733 0.94764 0.53906 0.0
H73 H 0.64249 0.88277 0.54286 0.0
H74 H 0.63839 0.87525 0.47276 0.0
H75 H 0.66247 0.94001 0.46887 0.0
H76 H 0.57241 0.13434 0.4365 0.0
H77 H 0.59458 0.19763 0.44261 0.0
H78 H 0.60786 0.18347 0.51138 0.0
H79 H 0.5868 0.12074 0.50509 0.0
Sm80 Sm 0.65245 0.62016 0.83406 0.0
Sm81 Sm 0.58973 0.53555 0.83908 0.0
C82 C 0.69167 0.69126 0.8207 0.0
C83 C 0.68022 0.71711 0.82134 0.0
C84 C 0.64346 0.70945 0.80991 0.0
C85 C 0.6337 0.73465 0.81048 0.0
C86 C 0.66041 0.76792 0.82251 0.0
C87 C 0.69646 0.77503 0.83434 0.0
C88 C 0.70632 0.74992 0.8337 0.0
C89 C 0.63806 0.59415 0.87603 0.0
C90 C 0.53944 0.57412 0.84214 0.0
C91 C 0.55157 0.4635 0.8494 0.0
C92 C 0.56355 0.43845 0.84554 0.0
C93 C 0.59826 0.44242 0.85703 0.0
C94 C 0.60859 0.41807 0.85332 0.0
C95 C 0.58428 0.38922 0.83815 0.0
C96 C 0.55055 0.38603 0.82627 0.0
C97 C 0.54019 0.41025 0.82998 0.0
C98 C 0.605 0.56278 0.79663 0.0
C99 C 0.70246 0.58112 0.8384 0.0
O100 O 0.66819 0.6623 0.80787 0.0
O101 O 0.69986 0.68239 0.83949 0.0
O102 O 0.60794 0.58049 0.86199 0.0
O103 O 0.67712 0.62422 0.86862 0.0
O104 O 0.58033 0.60625 0.83604 0.0
O105 O 0.53449 0.54241 0.84627 0.0
O106 O 0.57656 0.49116 0.86285 0.0
O107 O 0.54063 0.4739 0.83225 0.0
O108 O 0.63515 0.57554 0.81066 0.0
O109 O 0.56602 0.53348 0.80444 0.0
O110 O 0.66062 0.54927 0.84268 0.0
O111 O 0.70884 0.613 0.83245 0.0
H112 H 0.62246 0.68424 0.80034 0.0
H113 H 0.60598 0.7286 0.80101 0.0
H114 H 0.7172 0.80013 0.84401 0.0
H115 H 0.73457 0.75627 0.8428 0.0
H116 H 0.61719 0.46404 0.86905 0.0
H117 H 0.63467 0.42112 0.86277 0.0
H118 H 0.53187 0.36454 0.81416 0.0
H119 H 0.51362 0.40674 0.82074 0.0
C120 C 0.55263 0.99245 0.18749 0.0
N121 N 0.57797 0.01972 0.20238 0.0
N122 N 0.51862 0.95871 0.1976 0.0
C123 C 0.55873 0.99913 0.16315 0.0
C124 C 0.52398 0.96618 0.219 0.0
N125 N 0.55952 1.00317 0.22193 0.0
C126 C 0.49577 0.93659 0.23711 0.0
H127 H 0.52615 0.9788 0.15497 0.0
H128 H 0.58248 0.99441 0.15738 0.0
H129 H 0.57292 0.02887 0.15847 0.0
H130 H 0.48105 0.90752 0.23189 0.0
H131 H 0.46771 0.93684 0.24161 0.0
H132 H 0.51617 0.94295 0.25178 0.0
C133 C 0.60145 0.5214 0.53342 0.0
N134 N 0.60233 0.542 0.54935 0.0
N135 N 0.5948 0.49029 0.54209 0.0
C136 C 0.61022 0.53305 0.50952 0.0
C137 C 0.59149 0.49246 0.5638 0.0
N138 N 0.597 0.52448 0.56845 0.0
C139 C 0.57917 0.46127 0.58007 0.0
H140 H 0.57742 0.51905 0.50149 0.0
H141 H 0.62786 0.5237 0.50156 0.0
H142 H 0.63065 0.56447 0.50705 0.0
H143 H 0.60999 0.46516 0.58464 0.0
H144 H 0.55599 0.43299 0.57263 0.0
H145 H 0.56269 0.46142 0.59496 0.0
C146 C 0.11714 0.5704 0.85854 0.0
N147 N 0.14128 0.56588 0.87315 0.0
N148 N 0.0827 0.56769 0.86864 0.0
C149 C 0.12732 0.57767 0.83451 0.0
C150 C 0.08707 0.56136 0.88984 0.0
N151 N 0.12181 0.56033 0.89261 0.0
C152 C 1.05643 0.5555 0.90809 0.0
H153 H 0.1566 0.60826 0.83139 0.0
H154 H 0.09803 0.57109 0.8255 0.0
H155 H 0.13665 0.56035 0.8285 0.0
H156 H 1.02774 0.52451 0.91022 0.0
H157 H 1.04272 0.5707 0.90427 0.0
H158 H 0.07417 0.56551 0.92376 0.0
C159 C 0.11747 0.54178 0.46808 0.0
N160 N 0.08775 0.51575 0.45355 0.0
N161 N 0.14753 0.57664 0.45799 0.0
C162 C 0.11795 0.53334 0.49194 0.0
C163 C 0.13478 0.57102 0.43696 0.0
N164 N 0.09834 0.53423 0.43426 0.0
C165 C 0.15956 0.60113 0.4188 0.0
H166 H 0.12731 0.55765 0.50168 0.0
H167 H 0.1438 0.52952 0.49451 0.0
H168 H 0.08467 0.50701 0.49787 0.0
H169 H 0.18389 0.59885 0.41076 0.0
H170 H 0.17846 0.63019 0.42517 0.0
H171 H 0.1359 0.59699 0.40633 0.0
C172 C 0.60899 0.07159 0.79149 0.0
N173 N 0.60751 0.05014 0.776 0.0
N174 N 0.6079 0.09864 0.78224 0.0
C175 C 0.61162 0.06603 0.81555 0.0
C176 C 0.60574 0.09295 0.76059 0.0
N177 N 0.60522 0.06317 0.75675 0.0
C178 C 0.6059 0.11742 0.74323 0.0
H179 H 0.58057 0.03751 0.82118 0.0
H180 H 0.61519 0.08837 0.82505 0.0
H181 H 0.64063 0.0664 0.81865 0.0
H182 H 0.62107 0.1462 0.74912 0.0
H183 H 0.57059 0.10354 0.73872 0.0
H184 H 0.62475 0.12035 0.7284 0.0
C185 C 0.62305 0.544 0.13294 0.0
N186 N 0.62934 0.53746 0.11258 0.0
N187 N 0.60406 0.56115 0.1324 0.0
C188 C 0.62599 0.52642 0.15348 0.0
C189 C 0.60366 0.56846 0.11083 0.0
N190 N 0.61851 0.55362 0.09894 0.0
C191 C 0.57738 0.58025 0.10143 0.0
H192 H 0.5929 0.49806 0.15721 0.0
H193 H 0.63405 0.54473 0.16746 0.0
H194 H 0.65202 0.52269 0.15157 0.0
H195 H 0.57567 0.5977 0.1131 0.0
H196 H 0.54259 0.55419 0.09823 0.0
H197 H 0.59299 0.5966 0.0857 0.0
H198 H 0.24013 0.48709 0.15649 0.0
H199 H 0.29207 0.4739 0.15868 0.0
H200 H 0.38138 0.5741 0.19654 0.0
H201 H 0.32788 0.58779 0.19451 0.0
H202 H 0.4081 0.57046 0.15278 0.0
H203 H 0.32922 0.48255 0.21845 0.0
H204 H 0.25761 0.42546 0.23483 0.0
H205 H 0.24585 0.35807 0.18283 0.0
H206 H 0.31714 0.41483 0.16604 0.0
H207 H 0.59526 0.59728 0.16309 0.0
H208 H 0.52243 0.57643 0.17743 0.0
H209 H 0.45356 0.47091 0.1437 0.0
H210 H 0.52621 0.49107 0.1303 0.0
H211 H 0.40564 0.46432 0.18104 0.0
H212 H 0.44303 0.52889 0.1109 0.0
H213 H 0.4892 0.57409 0.07994 0.0
H214 H 0.55506 0.66785 0.12295 0.0
H215 H 0.50814 0.62319 0.154 0.0
C216 C 0.27045 0.50609 0.16566 0.0
C217 C 0.28109 0.53897 0.1751 0.0
C218 C 0.29937 0.49788 0.16728 0.0
C219 C 0.33924 0.52244 0.17829 0.0
C220 C 0.34955 0.55455 0.18852 0.0
C221 C 0.31999 0.56277 0.18704 0.0
C222 C 0.37427 0.51988 0.17402 0.0
C223 C 0.40847 0.54802 0.15957 0.0
C224 C 0.3702 0.48733 0.18024 0.0
C225 C 0.32874 0.4529 0.19111 0.0
C226 C 0.31145 0.45553 0.21057 0.0
C227 C 0.27086 0.42324 0.21989 0.0
C228 C 0.24727 0.38814 0.20991 0.0
C229 C 0.26427 0.38523 0.1906 0.0
C230 C 0.30485 0.41742 0.18123 0.0
C231 C 0.56464 0.56901 0.15983 0.0
C232 C 0.56528 0.54578 0.14568 0.0
C233 C 0.52347 0.5571 0.16785 0.0
C234 C 0.4835 0.52272 0.161 0.0
C235 C 0.48442 0.49744 0.14902 0.0
C236 C 0.52557 0.50897 0.14142 0.0
C237 C 0.44242 0.51787 0.16239 0.0
C238 C 0.40583 0.48736 0.17497 0.0
C239 C 0.44151 0.54619 0.15276 0.0
C240 C 0.47281 0.57276 0.13477 0.0
C241 C 0.46776 0.55911 0.11376 0.0
C242 C 0.49357 0.58466 0.09615 0.0
C243 C 0.52513 0.62382 0.09948 0.0
C244 C 0.53069 0.63751 0.1204 0.0
C245 C 0.50431 0.61215 0.13797 0.0
H246 H 0.54531 0.64353 0.08587 0.0
H247 H 0.21581 0.36322 0.21713 0.0
H248 H 0.71003 0.17765 0.47794 0.0
H249 H 0.77576 0.24456 0.47301 0.0
H250 H 0.86274 0.21652 0.48856 0.0
H251 H 0.79645 0.14888 0.49397 0.0
H252 H 0.88977 0.28059 0.50794 0.0
H253 H 0.84582 0.2342 0.43466 0.0
H254 H 0.79371 0.20437 0.40401 0.0
H255 H 0.77566 0.28955 0.40507 0.0
H256 H 0.82705 0.31953 0.43593 0.0
H257 H 0.09241 0.46214 0.47063 0.0
H258 H 1.02932 0.39401 0.47788 0.0
H259 H 0.93667 0.41178 0.45402 0.0
H260 H 1.00017 0.47939 0.44607 0.0
H261 H 0.91363 0.35146 0.43861 0.0
H262 H 0.95119 0.39731 0.51091 0.0
H263 H 0.99717 0.42746 0.54346 0.0
H264 H 1.02058 0.34558 0.54696 0.0
H265 H 0.97546 0.31536 0.51418 0.0
C266 C 0.74305 0.18548 0.48037 0.0
C267 C 0.74783 0.15761 0.4862 0.0
C268 C 0.78076 0.22393 0.4774 0.0
C269 C 0.82442 0.23565 0.47988 0.0
C270 C 0.82942 0.20816 0.48635 0.0
C271 C 0.79149 0.16949 0.48946 0.0
C272 C 0.86459 0.2766 0.47589 0.0
C273 C 0.89548 0.29601 0.49266 0.0
C274 C 0.87111 0.29719 0.45625 0.0
C275 C 0.84002 0.27891 0.43774 0.0
C276 C 0.83045 0.24638 0.42848 0.0
C277 C 0.80108 0.22947 0.41104 0.0
C278 C 0.78133 0.24501 0.40263 0.0
C279 C 0.79093 0.27751 0.41161 0.0
C280 C 0.82019 0.29447 0.42906 0.0
C281 C 0.05844 0.45123 0.46703 0.0
C282 C 1.05084 0.47572 0.45783 0.0
C283 C 1.02232 0.41242 0.47132 0.0
C284 C 0.97779 0.3975 0.46686 0.0
C285 C 0.9705 0.42227 0.45763 0.0
C286 C 1.00666 0.46087 0.45305 0.0
C287 C 0.93893 0.35593 0.47079 0.0
C288 C 0.90824 0.33627 0.45395 0.0
C289 C 0.93203 0.33543 0.49058 0.0
C290 C 0.96045 0.35441 0.50987 0.0
C291 C 0.96665 0.38605 0.51843 0.0
C292 C 0.99246 0.40309 0.53697 0.0
C293 C 1.01192 0.38853 0.54722 0.0
C294 C 1.00562 0.35691 0.53896 0.0
C295 C 0.97997 0.33984 0.52039 0.0
H296 H 1.03175 0.40168 0.56162 0.0
H297 H 0.75864 0.2319 0.38912 0.0
H298 H 0.72299 0.84548 0.81802 0.0
H299 H 0.70963 0.89176 0.81383 0.0
H300 H 0.5661 0.8006 0.82083 0.0
H301 H 0.5793 0.75399 0.82492 0.0
H302 H 0.58348 0.84362 0.7867 0.0
H303 H 0.62855 0.86757 0.86057 0.0
H304 H 0.67559 0.88302 0.89261 0.0
H305 H 0.78316 0.9917 0.86228 0.0
H306 H 0.73716 0.97663 0.82985 0.0
H307 H 0.5375 0.97609 0.7836 0.0
H308 H 0.54164 0.92516 0.79444 0.0
H309 H 0.68705 0.00629 0.78818 0.0
H310 H 0.68235 0.05706 0.77835 0.0
H311 H 0.66266 0.96539 0.82467 0.0
H312 H 0.61477 0.93759 0.74964 0.0
H313 H 0.56333 0.92128 0.71953 0.0
H314 H 0.45675 0.81708 0.75415 0.0
H315 H 0.50709 0.83343 0.78482 0.0
C316 C 0.68863 0.83535 0.81914 0.0
C317 C 0.65219 0.79609 0.82179 0.0
C318 C 0.68104 0.86186 0.81678 0.0
C319 C 0.63689 0.84971 0.81726 0.0
C320 C 0.60046 0.8106 0.82043 0.0
C321 C 0.60802 0.78401 0.82268 0.0
C322 C 0.6287 0.87739 0.81248 0.0
C323 C 0.60018 0.86995 0.79529 0.0
C324 C 0.65119 0.91208 0.8234 0.0
C325 C 0.67948 0.92076 0.84265 0.0
C326 C 0.66244 0.89456 0.86059 0.0
C327 C 0.6889 0.9033 0.87886 0.0
C328 C 0.73237 0.93828 0.87946 0.0
C329 C 0.74951 0.96458 0.86178 0.0
C330 C 0.72325 0.95594 0.84345 0.0
C331 C 0.57004 0.98246 0.78426 0.0
C332 C 0.6096 0.01973 0.77972 0.0
C333 C 0.57251 0.95363 0.79044 0.0
C334 C 0.61467 0.96182 0.79182 0.0
C335 C 0.65418 0.99928 0.78713 0.0
C336 C 0.65161 0.02807 0.7813 0.0
C337 C 0.61812 0.93184 0.79867 0.0
C338 C 0.64579 0.93891 0.81622 0.0
C339 C 0.59455 0.89664 0.78822 0.0
C340 C 0.56456 0.88699 0.76965 0.0
C341 C 0.58024 0.9114 0.75093 0.0
C342 C 0.55125 0.90211 0.73375 0.0
C343 C 0.50677 0.86814 0.73495 0.0
C344 C 0.49117 0.84341 0.75329 0.0
C345 C 0.51987 0.85274 0.7706 0.0
H346 H 0.48426 0.86085 0.72171 0.0
H347 H 0.75274 0.94504 0.89365 0.0
H348 H 0.82649 0.44287 0.15681 0.0
H349 H 0.77064 0.44825 0.14501 0.0
H350 H 0.71066 0.41624 0.2099 0.0
H351 H 0.769 0.41182 0.22257 0.0
H352 H 0.65631 0.37981 0.16501 0.0
H353 H 0.7556 0.49308 0.20413 0.0
H354 H 0.82744 0.55097 0.21683 0.0
H355 H 0.86303 0.60035 0.15166 0.0
H356 H 0.7928 0.54221 0.13825 0.0
H357 H 0.56205 0.46313 0.12197 0.0
H358 H 0.57853 0.4208 0.13273 0.0
H359 H 0.708 0.49682 0.09904 0.0
H360 H 0.69313 0.54144 0.09068 0.0
H361 H 0.71404 0.5098 0.1411 0.0
H362 H 0.63411 0.39636 0.09935 0.0
H363 H 0.56793 0.33844 0.08306 0.0
H364 H 0.50787 0.29074 0.14683 0.0
H365 H 0.57283 0.34897 0.16349 0.0
C366 C 0.80056 0.43532 0.1686 0.0
C367 C 0.80148 0.42632 0.1907 0.0
C368 C 0.76937 0.43935 0.16185 0.0
C369 C 0.73815 0.43381 0.17688 0.0
C370 C 0.73577 0.42138 0.19844 0.0
C371 C 0.76812 0.41815 0.20549 0.0
C372 C 0.70762 0.44012 0.16873 0.0
C373 C 0.66794 0.40816 0.16009 0.0
C374 C 0.72487 0.4775 0.16207 0.0
C375 C 0.76835 0.51265 0.17012 0.0
C376 C 0.77894 0.51584 0.19236 0.0
C377 C 0.81955 0.54886 0.19971 0.0
C378 C 0.84977 0.57931 0.18507 0.0
C379 C 0.83962 0.57673 0.16301 0.0
C380 C 0.79939 0.54362 0.15552 0.0
C381 C 0.5931 0.46969 0.11603 0.0
C382 C 0.62818 0.50625 0.10725 0.0
C383 C 0.60219 0.44512 0.12181 0.0
C384 C 0.64563 0.45712 0.11778 0.0
C385 C 0.67489 0.48812 0.10297 0.0
C386 C 0.66674 0.51372 0.09828 0.0
C387 C 0.66589 0.44948 0.13509 0.0
C388 C 0.70232 0.48138 0.14584 0.0
C389 C 0.64728 0.41229 0.14281 0.0
C390 C 0.60808 0.37742 0.13266 0.0
C391 C 0.60647 0.37386 0.1099 0.0
C392 C 0.56917 0.34089 0.10059 0.0
C393 C 0.53362 0.311 0.11389 0.0
C394 C 0.53531 0.31399 0.13653 0.0
C395 C 0.5723 0.34702 0.14591 0.0
H396 H 0.50482 0.28545 0.10665 0.0
H397 H 0.88101 0.60491 0.19083 0.0
H398 H 0.45614 0.92872 0.50102 0.0
H399 H 0.38857 0.86137 0.49931 0.0
H400 H 0.46842 0.83478 0.4699 0.0
H401 H 0.53624 0.90162 0.47229 0.0
H402 H 0.38334 0.80822 0.44778 0.0
H403 H 0.44199 0.80516 0.51656 0.0
H404 H 0.4704 0.82603 0.55362 0.0
H405 H 0.34482 0.79913 0.57354 0.0
H406 H 0.31588 0.7786 0.53645 0.0
H407 H 0.23311 0.60889 0.4471 0.0
H408 H 0.30044 0.67343 0.45544 0.0
H409 H 0.21876 0.68744 0.49546 0.0
H410 H 0.15126 0.62256 0.48697 0.0
H411 H 0.30321 0.72132 0.51305 0.0
H412 H 0.2437 0.72328 0.44466 0.0
H413 H 0.21492 0.70238 0.40763 0.0
H414 H 0.34155 0.73208 0.38686 0.0
H415 H 0.37097 0.75286 0.42385 0.0
C416 C 0.45922 0.90842 0.4943 0.0
C417 C 0.50137 0.92029 0.48686 0.0
C418 C 0.42072 0.87004 0.49338 0.0
C419 C 0.42362 0.84319 0.48452 0.0
C420 C 0.46557 0.85509 0.47685 0.0
C421 C 0.50424 0.89319 0.4783 0.0
C422 C 0.38274 0.80279 0.48279 0.0
C423 C 0.36609 0.78908 0.46202 0.0
C424 C 0.35966 0.77823 0.50142 0.0
C425 C 0.377 0.79082 0.52366 0.0
C426 C 0.42063 0.80413 0.52877 0.0
C427 C 0.43678 0.81578 0.5498 0.0
C428 C 0.40949 0.81403 0.56591 0.0
C429 C 0.36595 0.80054 0.56103 0.0
C430 C 0.34965 0.78887 0.54001 0.0
C431 C 0.22995 0.62555 0.45809 0.0
C432 C 0.18738 0.61105 0.46646 0.0
C433 C 0.2682 0.6624 0.46274 0.0
C434 C 0.26452 0.68554 0.47577 0.0
C435 C 0.22236 0.67014 0.48532 0.0
C436 C 0.18395 0.63315 0.48059 0.0
C437 C 0.30403 0.72651 0.47797 0.0
C438 C 0.32034 0.74043 0.49881 0.0
C439 C 0.32678 0.75144 0.45938 0.0
C440 C 0.30939 0.73931 0.43706 0.0
C441 C 0.26532 0.72514 0.43222 0.0
C442 C 0.24892 0.71339 0.41124 0.0
C443 C 0.27634 0.7158 0.39492 0.0
C444 C 0.32032 0.73017 0.39953 0.0
C445 C 0.33691 0.74202 0.42049 0.0
H446 H 0.26355 0.7066 0.37869 0.0
H447 H 0.42202 0.82301 0.5822 0.0
H448 H 0.66531 0.40274 0.83465 0.0
H449 H 0.67692 0.35546 0.82932 0.0
H450 H 0.53278 0.26554 0.83014 0.0
H451 H 0.52098 0.31223 0.83576 0.0
H452 H 0.57683 0.24609 0.85468 0.0
H453 H 0.58889 0.30008 0.78276 0.0
H454 H 0.62066 0.35214 0.75478 0.0
H455 H 0.75155 0.38202 0.76187 0.0
H456 H 0.72062 0.33041 0.79012 0.0
H457 H 0.53858 0.09315 0.79833 0.0
H458 H 0.54201 0.14527 0.81285 0.0
H459 H 0.68701 0.22193 0.8038 0.0
H460 H 0.68291 0.16959 0.78896 0.0
H461 H 0.652 0.25243 0.78654 0.0
H462 H 0.63797 0.19328 0.85551 0.0
H463 H 0.60557 0.14031 0.88291 0.0
H464 H 0.47894 0.11946 0.8814 0.0
H465 H 0.51043 0.17205 0.8538 0.0
C466 C 0.63618 0.37284 0.83386 0.0
C467 C 0.59221 0.36118 0.83539 0.0
C468 C 0.64284 0.34595 0.83073 0.0
C469 C 0.60565 0.30709 0.82923 0.0
C470 C 0.56189 0.29539 0.83127 0.0
C471 C 0.55522 0.32215 0.83425 0.0
C472 C 0.61173 0.27837 0.82482 0.0
C473 C 0.59317 0.24734 0.83977 0.0
C474 C 0.63398 0.28061 0.80562 0.0
C475 C 0.6526 0.31177 0.78876 0.0
C476 C 0.62454 0.31801 0.77852 0.0
C477 C 0.64237 0.34738 0.76257 0.0
C478 C 0.68813 0.37047 0.75661 0.0
C479 C 0.71614 0.36418 0.76654 0.0
C480 C 0.69848 0.33488 0.78252 0.0
C481 C 0.571 0.12109 0.79985 0.0
C482 C 0.61049 0.12792 0.79272 0.0
C483 C 0.5731 0.15071 0.80819 0.0
C484 C 0.61487 0.18744 0.8096 0.0
C485 C 0.6545 0.19383 0.80292 0.0
C486 C 0.65229 0.16417 0.79455 0.0
C487 C 0.61664 0.21975 0.81628 0.0
C488 C 0.63649 0.25143 0.80169 0.0
C489 C 0.5956 0.21808 0.83583 0.0
C490 C 0.57651 0.18647 0.85248 0.0
C491 C 0.60312 0.17724 0.86091 0.0
C492 C 0.58494 0.14732 0.87651 0.0
C493 C 0.54021 0.1265 0.88387 0.0
C494 C 0.51359 0.13562 0.87568 0.0
C495 C 0.53162 0.16553 0.86009 0.0
H496 H 0.52619 0.10333 0.89593 0.0
H497 H 0.70187 0.39317 0.74425 0.0
H498 H 0.68553 0.8595 0.53302 0.0
H499 H 0.67411 0.79983 0.53733 0.0
H500 H 0.56358 0.74623 0.49298 0.0
H501 H 0.57502 0.80653 0.48847 0.0
H502 H 0.54933 0.70311 0.53561 0.0
H503 H 0.64501 0.76062 0.47166 0.0
H504 H 0.70931 0.81396 0.44913 0.0
H505 H 0.80152 0.82902 0.49673 0.0
H506 H 0.73766 0.77593 0.51966 0.0
H507 H 0.54138 0.54209 0.52818 0.0
H508 H 0.54532 0.59745 0.5187 0.0
H509 H 0.67059 0.67008 0.55271 0.0
H510 H 0.66711 0.61429 0.56153 0.0
H511 H 0.67275 0.701 0.51213 0.0
H512 H 0.57539 0.64394 0.57656 0.0
H513 H 0.51096 0.58781 0.59759 0.0
H514 H 0.42074 0.57004 0.54784 0.0
H515 H 0.48483 0.62582 0.52636 0.0
C516 C 0.65847 0.83494 0.52434 0.0
C517 C 0.63086 0.83748 0.51058 0.0
C518 C 0.65216 0.80099 0.52673 0.0
C519 C 0.61803 0.76882 0.5155 0.0
C520 C 0.58999 0.77089 0.50183 0.0
C521 C 0.59668 0.80523 0.49919 0.0
C522 C 0.61297 0.73355 0.51808 0.0
C523 C 0.57579 0.70225 0.53012 0.0
C524 C 0.64798 0.73293 0.51125 0.0
C525 C 0.68657 0.76451 0.49743 0.0
C526 C 0.679 0.77547 0.47738 0.0
C527 C 0.71535 0.8056 0.46452 0.0
C528 C 0.75947 0.82492 0.47151 0.0
C529 C 0.76732 0.81402 0.49134 0.0
C530 C 0.73107 0.78385 0.50425 0.0
C531 C 0.56952 0.56995 0.53367 0.0
C532 C 0.60369 0.57433 0.54571 0.0
C533 C 0.5718 0.60141 0.52829 0.0
C534 C 0.60802 0.63771 0.53519 0.0
C535 C 0.64237 0.6422 0.54727 0.0
C536 C 0.64023 0.61057 0.55249 0.0
C537 C 0.60946 0.67075 0.52993 0.0
C538 C 0.64605 0.70167 0.51745 0.0
C539 C 0.57378 0.67088 0.53628 0.0
C540 C 0.53487 0.63901 0.54985 0.0
C541 C 0.54178 0.62813 0.57015 0.0
C542 C 0.50535 0.59633 0.58212 0.0
C543 C 0.46176 0.57538 0.57407 0.0
C544 C 0.45451 0.58635 0.55408 0.0
C545 C 0.49086 0.61811 0.54201 0.0
H546 H 0.43362 0.55065 0.58331 0.0
H547 H 0.78759 0.84829 0.46155 0.0
H548 H 0.70111 0.51893 0.84585 0.0
H549 H 0.763 0.51644 0.8489 0.0
H550 H 0.85865 0.63913 0.84046 0.0
H551 H 0.7961 0.64119 0.83594 0.0
H552 H 0.89883 0.62069 0.82321 0.0
H553 H 0.82856 0.56546 0.89845 0.0
H554 H 0.76944 0.51748 0.92535 0.0
H555 H 0.74125 0.42675 0.8872 0.0
H556 H 0.802 0.47393 0.86084 0.0
H557 H 0.09108 0.63023 0.85353 0.0
H558 H 1.03061 0.63469 0.84774 0.0
H559 H 0.9316 0.5129 0.86011 0.0
H560 H 0.9923 0.50957 0.8673 0.0
H561 H 0.89389 0.53231 0.8757 0.0
H562 H 0.96452 0.5798 0.80407 0.0
H563 H 1.02443 0.62164 0.7761 0.0
H564 H 1.04716 0.71982 0.80228 0.0
H565 H 0.98751 0.67855 0.83043 0.0
C566 C 0.73525 0.54562 0.84465 0.0
C567 C 0.74242 0.58032 0.84061 0.0
C568 C 0.77154 0.54427 0.84686 0.0
C569 C 0.81748 0.57766 0.84578 0.0
C570 C 0.82456 0.6124 0.84159 0.0
C571 C 0.78817 0.61369 0.83902 0.0
C572 C 0.85764 0.5766 0.84812 0.0
C573 C 0.89748 0.60154 0.83503 0.0
C574 C 0.85755 0.551 0.86264 0.0
C575 C 0.81897 0.52312 0.87749 0.0
C576 C 0.80929 0.53527 0.89568 0.0
C577 C 0.7757 0.50828 0.91086 0.0
C578 C 0.75087 0.46924 0.9077 0.0
C579 C 0.76015 0.45699 0.88954 0.0
C580 C 0.79442 0.48379 0.8746 0.0
C581 C 1.05641 0.60425 0.85441 0.0
C582 C 1.0473 0.56928 0.86026 0.0
C583 C 1.02105 0.60667 0.851 0.0
C584 C 0.97455 0.57409 0.85293 0.0
C585 C 0.966 0.53908 0.85839 0.0
C586 C 1.00122 0.53686 0.86217 0.0
C587 C 0.93503 0.576 0.85058 0.0
C588 C 0.89543 0.55146 0.86379 0.0
C589 C 0.93497 0.60122 0.83574 0.0
C590 C 0.97203 0.62617 0.81948 0.0
C591 C 0.98265 0.61036 0.80397 0.0
C592 C 1.01643 0.63395 0.78806 0.0
C593 C 1.03969 0.67337 0.78746 0.0
C594 C 1.02921 0.6893 0.80279 0.0
C595 C 0.99541 0.66583 0.81871 0.0
H596 H 0.06573 0.69157 0.77509 0.0
H597 H 0.72484 0.4485 0.91948 0.0
H598 H 0.14358 0.62926 0.18278 0.0
H599 H 0.21079 0.69551 0.18435 0.0
H600 H 0.29188 0.6663 0.16037 0.0
H601 H 0.22384 0.59915 0.1586 0.0
H602 H 0.33053 0.7147 0.1948 0.0
H603 H 0.26406 0.7101 0.12686 0.0
H604 H 0.20416 0.69686 0.1028 0.0
H605 H 0.19358 0.77116 0.13921 0.0
H606 H 0.25286 0.78434 0.16372 0.0
H607 H 0.52564 0.90935 0.17862 0.0
H608 H 0.46254 0.8425 0.17071 0.0
H609 H 0.36805 0.86027 0.19017 0.0
H610 H 0.43117 0.92683 0.19782 0.0
H611 H 0.33819 0.81713 0.15584 0.0
H612 H 0.39865 0.82002 0.22462 0.0
H613 H 0.45539 0.83303 0.25088 0.0
H614 H 0.47333 0.7617 0.21615 0.0
H615 H 0.41743 0.74895 0.18937 0.0
C616 C 0.17559 0.63661 0.17784 0.0
C617 C 0.1782 0.60862 0.17047 0.0
C618 C 0.21408 0.67476 0.17865 0.0
C619 C 0.25632 0.6861 0.17211 0.0
C620 C 0.25951 0.65823 0.16532 0.0
C621 C 0.22069 0.61985 0.16434 0.0
C622 C 0.29692 0.72705 0.17269 0.0
C623 C 0.33271 0.73708 0.18591 0.0
C624 C 0.2989 0.75637 0.16178 0.0
C625 C 0.26267 0.74794 0.14725 0.0
C626 C 0.24864 0.72331 0.12988 0.0
C627 C 0.21485 0.71587 0.11613 0.0
C628 C 0.19502 0.7331 0.1195 0.0
C629 C 0.20892 0.75779 0.13663 0.0
C630 C 0.24263 0.76526 0.15045 0.0
C631 C 0.49129 0.89901 0.1805 0.0
C632 C 0.48283 0.92292 0.1885 0.0
C633 C 0.45534 0.86085 0.17631 0.0
C634 C 0.41049 0.84615 0.18017 0.0
C635 C 0.40225 0.87084 0.18708 0.0
C636 C 0.43812 0.90881 0.19131 0.0
C637 C 0.37206 0.80486 0.17784 0.0
C638 C 0.33644 0.79477 0.16447 0.0
C639 C 0.36988 0.77556 0.18894 0.0
C640 C 0.40433 0.78401 0.20476 0.0
C641 C 0.41514 0.80754 0.22238 0.0
C642 C 0.44709 0.81479 0.2374 0.0
C643 C 0.46808 0.79831 0.23514 0.0
C644 C 0.45718 0.77456 0.21784 0.0
C645 C 0.42542 0.76736 0.20272 0.0
H646 H 0.49268 0.80384 0.24683 0.0
H647 H 0.16894 0.72737 0.1088 0.0
H648 H 0.66761 0.25385 0.50271 0.0
H649 H 0.67699 0.31147 0.5111 0.0
H650 H 0.56444 0.27451 0.47048 0.0
H651 H 0.55572 0.21781 0.46172 0.0
H652 H 0.62637 0.34712 0.46432 0.0
H653 H 0.55794 0.25992 0.52768 0.0
H654 H 0.55291 0.22147 0.55896 0.0
H655 H 0.67084 0.32256 0.58599 0.0
H656 H 0.67722 0.3615 0.55461 0.0
H657 H 0.54495 0.43884 0.51143 0.0
H658 H 0.55653 0.39514 0.49656 0.0
H659 H 0.67617 0.44774 0.53478 0.0
H660 H 0.66391 0.49059 0.54969 0.0
H661 H 0.61912 0.37247 0.54163 0.0
H662 H 0.68169 0.46039 0.47979 0.0
H663 H 0.68238 0.4983 0.44962 0.0
H664 H 0.57151 0.39533 0.42054 0.0
H665 H 0.5694 0.35678 0.45081 0.0
C666 C 0.64517 0.25831 0.49549 0.0
C667 C 0.61094 0.23144 0.48156 0.0
C668 C 0.65048 0.29111 0.50031 0.0
C669 C 0.62101 0.297 0.49163 0.0
C670 C 0.58768 0.27065 0.47729 0.0
C671 C 0.58276 0.23827 0.47227 0.0
C672 C 0.62324 0.32966 0.4979 0.0
C673 C 0.62456 0.35257 0.48123 0.0
C674 C 0.62187 0.33726 0.51999 0.0
C675 C 0.61852 0.31354 0.53857 0.0
C676 C 0.58317 0.27389 0.54012 0.0
C677 C 0.58003 0.25201 0.55791 0.0
C678 C 0.61166 0.26953 0.5744 0.0
C679 C 0.64649 0.30898 0.57315 0.0
C680 C 0.64995 0.33095 0.55535 0.0
C681 C 0.57383 0.44103 0.51629 0.0
C682 C 0.60327 0.46719 0.53179 0.0
C683 C 0.58064 0.41645 0.50779 0.0
C684 C 0.61727 0.41835 0.51461 0.0
C685 C 0.64767 0.44578 0.52941 0.0
C686 C 0.64068 0.47003 0.53793 0.0
C687 C 0.62172 0.38953 0.50808 0.0
C688 C 0.62156 0.36734 0.52471 0.0
C689 C 0.62373 0.38244 0.48602 0.0
C690 C 0.62511 0.40567 0.46773 0.0
C691 C 0.65714 0.4458 0.4671 0.0
C692 C 0.65781 0.46742 0.44995 0.0
C693 C 0.62694 0.44924 0.4332 0.0
C694 C 0.59536 0.40939 0.43355 0.0
C695 C 0.5944 0.38764 0.4507 0.0
H696 H 0.62756 0.46603 0.41993 0.0
H697 H 0.60907 0.25257 0.58818 0.0
H698 H 0.53736 0.63519 0.84547 0.0
H699 H 0.47258 0.63423 0.85046 0.0
H700 H 0.3826 0.51126 0.85073 0.0
H701 H 0.44734 0.51227 0.84569 0.0
H702 H 0.34157 0.53087 0.82975 0.0
H703 H 0.41353 0.57451 0.89997 0.0
H704 H 0.47541 0.61775 0.92485 0.0
H705 H 0.48592 0.71264 0.89817 0.0
H706 H 0.4243 0.67 0.8731 0.0
H707 H 0.14097 0.50882 0.85804 0.0
H708 H 0.2042 0.50798 0.85359 0.0
H709 H 0.29555 0.62497 0.87313 0.0
H710 H 0.23105 0.62361 0.87973 0.0
H711 H 0.33744 0.60759 0.88419 0.0
H712 H 0.2736 0.56985 0.81156 0.0
H713 H 0.21702 0.53052 0.78366 0.0
H714 H 0.19612 0.43085 0.81033 0.0
H715 H 0.25248 0.46958 0.83835 0.0
C716 C 0.50387 0.60778 0.84662 0.0
C717 C 0.49876 0.57382 0.84516 0.0
C718 C 0.46618 0.60718 0.84974 0.0
C719 C 0.42106 0.57257 0.85149 0.0
C720 C 0.41606 0.5387 0.84967 0.0
C721 C 0.45373 0.53928 0.8468 0.0
C722 C 0.37945 0.57136 0.85464 0.0
C723 C 0.34084 0.54758 0.84186 0.0
C724 C 0.37707 0.59357 0.86981 0.0
C725 C 0.41466 0.61916 0.88455 0.0
C726 C 0.42931 0.60465 0.89932 0.0
C727 C 0.46424 0.62903 0.91349 0.0
C728 C 0.48465 0.66793 0.91306 0.0
C729 C 0.47013 0.68252 0.89848 0.0
C730 C 0.43518 0.65827 0.88432 0.0
C731 C 0.17463 0.53443 0.86132 0.0
C732 C 0.18022 0.56645 0.86903 0.0
C733 C 0.21188 0.53438 0.85833 0.0
C734 C 0.25736 0.56692 0.86205 0.0
C735 C 0.26232 0.59891 0.86985 0.0
C736 C 0.2249 0.59848 0.8735 0.0
C737 C 0.29904 0.56775 0.85879 0.0
C738 C 0.33778 0.59119 0.87176 0.0
C739 C 0.302 0.54596 0.84332 0.0
C740 C 0.26667 0.52248 0.8272 0.0
C741 C 0.25655 0.53948 0.81158 0.0
C742 C 0.22467 0.51732 0.79571 0.0
C743 C 0.20286 0.47819 0.79528 0.0
C744 C 0.21291 0.46113 0.81071 0.0
C745 C 0.24483 0.48315 0.82657 0.0
H746 H 0.17829 0.46112 0.78296 0.0
H747 H 0.51164 0.68674 0.92405 0.0
H748 H 0.89528 0.38641 0.19237 0.0
H749 H 0.82788 0.3194 0.19836 0.0
H750 H 0.88665 0.28421 0.15702 0.0
H751 H 0.95264 0.35068 0.15026 0.0
H752 H 0.80018 0.24725 0.14739 0.0
H753 H 0.88323 0.2713 0.2127 0.0
H754 H 0.92321 0.30493 0.24604 0.0
H755 H 0.80398 0.28416 0.2713 0.0
H756 H 0.76352 0.25087 0.23795 0.0
H757 H 0.65168 0.04769 0.17697 0.0
H758 H 0.71767 0.11498 0.17033 0.0
H759 H 0.65834 0.14878 0.21248 0.0
H760 H 0.59186 0.08161 0.21854 0.0
H761 H 0.74515 0.18648 0.22161 0.0
H762 H 0.66201 0.16268 0.1567 0.0
H763 H 0.62153 0.12975 0.12333 0.0
H764 H 0.74022 0.1507 0.09706 0.0
H765 H 0.78133 0.18353 0.13039 0.0
C766 C 0.89334 0.36447 0.1842 0.0
C767 C 0.92898 0.37418 0.17044 0.0
C768 C 0.85513 0.32608 0.1879 0.0
C769 C 0.85217 0.29662 0.17819 0.0
C770 C 0.88788 0.30631 0.16459 0.0
C771 C 0.92575 0.34451 0.16079 0.0
C772 C 0.81182 0.25569 0.18183 0.0
C773 C 0.7885 0.23386 0.16362 0.0
C774 C 0.79593 0.23825 0.20298 0.0
C775 C 0.82045 0.25882 0.22282 0.0
C776 C 0.86568 0.2742 0.2253 0.0
C777 C 0.8884 0.29314 0.2442 0.0
C778 C 0.86617 0.29672 0.26077 0.0
C779 C 0.82118 0.2814 0.25845 0.0
C780 C 0.79833 0.26247 0.23957 0.0
C781 C 0.65253 0.06958 0.18452 0.0
C782 C 0.61663 0.05944 0.19823 0.0
C783 C 0.69027 0.10801 0.18079 0.0
C784 C 0.69295 0.13712 0.19077 0.0
C785 C 0.65718 0.12694 0.2046 0.0
C786 C 0.61929 0.08855 0.20815 0.0
C787 C 0.73329 0.17809 0.18717 0.0
C788 C 0.75677 0.19987 0.20537 0.0
C789 C 0.74931 0.19551 0.166 0.0
C790 C 0.72456 0.17517 0.14613 0.0
C791 C 0.67933 0.15993 0.1439 0.0
C792 C 0.65632 0.14139 0.12497 0.0
C793 C 0.67825 0.13804 0.10811 0.0
C794 C 0.72327 0.15328 0.11015 0.0
C795 C 0.74646 0.17189 0.12904 0.0
H796 H 0.66039 0.12373 0.09346 0.0
H797 H 0.88378 0.31133 0.27541 0.0
H798 H 0.10648 0.57641 0.09499 0.0
H799 H 0.12233 0.57985 0.05609 0.0
H800 H 1.04759 0.45777 0.05717 0.0
H801 H 1.03286 0.45444 0.09664 0.0
H802 H 0.11656 0.48932 0.02978 0.0
H803 H 1.00071 0.49882 0.03644 0.0
H804 H 0.96078 0.52117 0.05099 0.0
H805 H 0.0679 0.63531 0.02678 0.0
H806 H 0.10873 0.61369 0.01227 0.0
H807 H 0.0864 0.49219 0.91203 0.0
H808 H 0.0803 0.47995 0.95173 0.0
H809 H 0.17188 0.60136 0.96091 0.0
H810 H 0.17803 0.6132 0.9212 0.0
H811 H 0.08813 0.56352 0.98248 0.0
H812 H 0.20119 0.54579 0.97477 0.0
H813 H 0.23011 0.51517 0.95849 0.0
H814 H 0.11258 0.40517 0.98255 0.0
H815 H 0.08266 0.4351 0.99872 0.0
C816 C 0.09349 0.55024 0.08702 0.0
C817 C 0.06782 0.51509 0.09891 0.0
C818 C 0.10241 0.5522 0.06465 0.0
C819 C 0.08525 0.51897 0.05333 0.0
C820 C 0.06096 0.48385 0.06534 0.0
C821 C 1.05235 0.48193 0.08791 0.0
C822 C 0.0919 0.52139 0.02897 0.0
C823 C 0.10984 0.5052 0.01946 0.0
C824 C 0.08268 0.54157 0.01516 0.0
C825 C 0.05794 0.55469 0.02342 0.0
C826 C 1.01584 0.52872 0.0343 0.0
C827 C 0.99304 0.54125 0.04253 0.0
C828 C 1.01184 0.57965 0.03985 0.0
C829 C 1.05339 0.60557 0.02884 0.0
C830 C 0.07635 0.59318 0.02057 0.0
C831 C 0.10722 0.51608 0.92253 0.0
C832 C 0.13349 0.55362 0.91355 0.0
C833 C 0.10321 0.50916 0.94525 0.0
C834 C 0.12531 0.53973 0.95945 0.0
C835 C 0.15441 0.57725 0.95038 0.0
C836 C 0.15872 0.58408 0.92768 0.0
C837 C 0.11456 0.53293 0.98349 0.0
C838 C 0.09514 0.54789 0.99286 0.0
C839 C 0.1209 0.51046 0.99691 0.0
C840 C 0.13958 0.49266 0.98783 0.0
C841 C 0.18144 0.51505 0.97652 0.0
C842 C 0.19801 0.49782 0.96731 0.0
C843 C 0.17317 0.45824 0.96945 0.0
C844 C 0.13179 0.43582 0.9809 0.0
C845 C 0.11504 0.45291 0.99012 0.0
H846 H 0.18601 0.44494 0.96227 0.0
H847 H 0.99418 0.58932 0.04628 0.0
H848 H 0.56534 0.01318 0.42867 0.0
H849 H 0.55273 0.01372 0.38949 0.0
H850 H 0.69488 0.07626 0.37603 0.0
H851 H 0.70767 0.07629 0.4151 0.0
H852 H 0.66419 0.10342 0.35045 0.0
H853 H 0.61793 0.97954 0.37094 0.0
H854 H 0.5756 0.91733 0.3911 0.0
H855 H 0.45083 0.88748 0.36823 0.0
H856 H 0.49237 0.94984 0.34824 0.0
H857 H 0.64045 0.03519 0.23973 0.0
H858 H 0.65871 0.05105 0.27836 0.0
H859 H 0.52882 0.02288 0.28966 0.0
H860 H 0.51143 0.00833 0.25108 0.0
H861 H 0.55311 0.9796 0.31575 0.0
H862 H 0.60195 0.10459 0.29456 0.0
H863 H 0.64653 0.16473 0.27227 0.0
H864 H 0.76925 0.19019 0.29488 0.0
H865 H 0.72532 0.12969 0.317 0.0
C866 C 0.5939 0.02733 0.41734 0.0
C867 C 0.63743 0.0444 0.42487 0.0
C868 C 0.58665 0.02748 0.39497 0.0
C869 C 0.62278 0.04453 0.37978 0.0
C870 C 0.66648 0.06285 0.38741 0.0
C871 C 0.67373 0.06272 0.40973 0.0
C872 C 0.61506 0.0423 0.35593 0.0
C873 C 0.64013 0.07628 0.34288 0.0
C874 C 0.58339 0.00692 0.34599 0.0
C875 C 0.55826 0.96966 0.35836 0.0
C876 C 0.58143 0.95994 0.37043 0.0
C877 C 0.55758 0.92459 0.38178 0.0
C878 C 0.51054 0.89854 0.38102 0.0
C879 C 0.48726 0.90775 0.36887 0.0
C880 C 0.51094 0.94311 0.35754 0.0
C881 C 0.61674 0.03382 0.2504 0.0
C882 C 0.57456 0.02047 0.24274 0.0
C883 C 0.62693 0.04256 0.27237 0.0
C884 C 0.59483 0.03772 0.28678 0.0
C885 C 0.55383 0.02657 0.27877 0.0
C886 C 0.54402 0.01844 0.25684 0.0
C887 C 0.60191 0.04057 0.31054 0.0
C888 C 0.57688 0.00666 0.32347 0.0
C889 C 0.63384 0.07582 0.32028 0.0
C890 C 0.66035 0.11239 0.30724 0.0
C891 C 0.63844 0.12278 0.2946 0.0
C892 C 0.66357 0.15696 0.28203 0.0
C893 C 0.71066 0.18119 0.28213 0.0
C894 C 0.73274 0.17133 0.29481 0.0
C895 C 0.70774 0.1371 0.30738 0.0
H896 H 0.72998 0.20766 0.27247 0.0
H897 H 0.49215 0.87116 0.38979 0.0
H898 H 0.61847 0.52425 0.76971 0.0
H899 H 0.62509 0.53036 0.72974 0.0
H900 H 0.617 0.62192 0.73064 0.0
H901 H 0.61015 0.61558 0.77078 0.0
H902 H 0.55761 0.5636 0.70114 0.0
H903 H 0.71731 0.64368 0.71888 0.0
H904 H 0.78109 0.65443 0.73821 0.0
H905 H 0.75634 0.55845 0.70753 0.0
H906 H 0.69225 0.54696 0.68818 0.0
H907 H 0.56772 0.56133 0.58594 0.0
H908 H 0.58285 0.58668 0.62232 0.0
H909 H 0.65246 0.54099 0.63695 0.0
H910 H 0.64789 0.5256 0.59935 0.0
H911 H 0.68729 0.59119 0.6594 0.0
H912 H 0.52154 0.49673 0.65067 0.0
H913 H 0.45207 0.4753 0.632 0.0
H914 H 0.47795 0.58026 0.64649 0.0
H915 H 0.54756 0.60226 0.6652 0.0
C916 C 0.61896 0.54609 0.76131 0.0
C917 C 0.61447 0.56983 0.77307 0.0
C918 C 0.62264 0.54954 0.73856 0.0
C919 C 0.62184 0.57679 0.72725 0.0
C920 C 0.61779 0.60081 0.73908 0.0
C921 C 0.61423 0.59741 0.7619 0.0
C922 C 0.62366 0.57904 0.70305 0.0
C923 C 0.58605 0.56989 0.69189 0.0
C924 C 0.66032 0.58651 0.6911 0.0
C925 C 0.70003 0.5945 0.70209 0.0
C926 C 0.72551 0.6249 0.71627 0.0
C927 C 0.76169 0.6311 0.72723 0.0
C928 C 0.77276 0.60714 0.7241 0.0
C929 C 0.74781 0.57704 0.70991 0.0
C930 C 0.71166 0.57075 0.69889 0.0
C931 C 0.58775 0.55813 0.59671 0.0
C932 C 0.60545 0.54025 0.58982 0.0
C933 C 0.59516 0.57151 0.61793 0.0
C934 C 0.61676 0.56415 0.6333 0.0
C935 C 0.63539 0.54724 0.62597 0.0
C936 C 0.63146 0.53709 0.60441 0.0
C937 C 0.61935 0.57241 0.65706 0.0
C938 C 0.65833 0.58441 0.66833 0.0
C939 C 0.5828 0.56539 0.66921 0.0
C940 C 0.53972 0.55117 0.65917 0.0
C941 C 0.51217 0.51507 0.64996 0.0
C942 C 0.47289 0.50289 0.63933 0.0
C943 C 0.46066 0.52644 0.63802 0.0
C944 C 0.48744 0.56205 0.64753 0.0
C945 C 0.52672 0.57434 0.65819 0.0
H946 H 0.43044 0.51711 0.62963 0.0
H947 H 0.80067 0.61191 0.73267 0.0
H948 H 0.60109 0.08778 0.55926 0.0
H949 H 0.60565 0.08312 0.59868 0.0
H950 H 0.64326 0.01125 0.59065 0.0
H951 H 0.63861 0.01588 0.55071 0.0
H952 H 0.57467 0.98257 0.62263 0.0
H953 H 0.72206 0.10149 0.60575 0.0
H954 H 0.77573 0.16597 0.58844 0.0
H955 H 0.71295 0.20357 0.62344 0.0
H956 H 0.65854 0.13919 0.64074 0.0
H957 H 0.66809 0.06111 0.73831 0.0
H958 H 0.67194 0.04868 0.7 0.0
H959 H 0.54489 0.02519 0.68896 0.0
H960 H 0.54022 0.03591 0.72742 0.0
H961 H 0.66746 0.09751 0.66715 0.0
H962 H 0.50271 0.97134 0.6662 0.0
H963 H 0.44333 0.90517 0.68006 0.0
H964 H 0.53754 0.88264 0.67808 0.0
H965 H 0.59785 0.94918 0.66485 0.0
C966 C 0.61079 0.07126 0.56582 0.0
C967 C 0.61973 0.05235 0.5519 0.0
C968 C 0.61353 0.06873 0.58839 0.0
C969 C 0.62526 0.04719 0.59765 0.0
C970 C 0.63441 0.02824 0.58382 0.0
C971 C 0.63206 0.03108 0.56105 0.0
C972 C 0.62619 0.0438 0.62181 0.0
C973 C 0.59562 0.00768 0.63233 0.0
C974 C 0.65295 0.07653 0.63458 0.0
C975 C 0.68612 0.11545 0.62447 0.0
C976 C 0.71958 0.12346 0.60968 0.0
C977 C 0.75014 0.16 0.59988 0.0
C978 C 0.74772 0.18883 0.60482 0.0
C979 C 0.71481 0.18122 0.61963 0.0
C980 C 0.68416 0.14473 0.62947 0.0
C981 C 0.64004 0.05142 0.72792 0.0
C982 C 0.6036 0.04897 0.73574 0.0
C983 C 0.64234 0.04457 0.70604 0.0
C984 C 0.60817 0.0351 0.69172 0.0
C985 C 0.5708 0.03103 0.69982 0.0
C986 C 0.56838 0.03759 0.72169 0.0
C987 C 0.61533 0.03649 0.66782 0.0
C988 C 0.64741 0.07237 0.6574 0.0
C989 C 0.58946 1.00377 0.65514 0.0
C990 C 0.55482 0.96526 0.66502 0.0
C991 C 0.51097 0.95252 0.66925 0.0
C992 C 0.47712 0.91493 0.67686 0.0
C993 C 0.48663 0.8897 0.67986 0.0
C994 C 0.53024 0.90222 0.6757 0.0
C995 C 0.56434 0.93994 0.66833 0.0
H996 H 0.46013 0.8604 0.68532 0.0
H997 H 0.77138 0.21709 0.59719 0.0
H998 H 0.69333 0.6281 0.91014 0.0
H999 H 0.67841 0.6027 0.94766 0.0
H1000 H 0.54954 0.49934 0.92932 0.0
H1001 H 0.56303 0.52588 0.89198 0.0
H1002 H 0.54387 0.52828 0.96554 0.0
H1003 H 0.64257 0.5029 0.93897 0.0
H1004 H 0.71219 0.52554 0.91924 0.0
H1005 H 0.792 0.60787 0.96799 0.0
H1006 H 0.72286 0.58696 0.98747 0.0
H1007 H 0.54498 0.49157 0.08117 0.0
H1008 H 0.53561 0.47745 0.04202 0.0
H1009 H 0.66799 0.58518 0.0282 0.0
H1010 H 0.67693 0.59846 0.06708 0.0
H1011 H 0.65509 0.52744 0.00712 0.0
H1012 H 0.57737 0.57757 0.02381 0.0
H1013 H 0.51944 0.57784 0.04149 0.0
H1014 H 0.41514 0.4726 0.01179 0.0
H1015 H 0.47261 0.47124 0.99434 0.0
C1016 C 0.66193 0.59994 0.91413 0.0
C1017 C 0.62945 0.57866 0.89833 0.0
C1018 C 0.65363 0.58531 0.93545 0.0
C1019 C 0.61348 0.54869 0.94096 0.0
C1020 C 0.58095 0.52741 0.92517 0.0
C1021 C 0.58874 0.5425 0.90395 0.0
C1022 C 0.60446 0.53401 0.96365 0.0
C1023 C 0.56733 0.52685 0.97458 0.0
C1024 C 0.63593 0.53321 0.97532 0.0
C1025 C 0.67739 0.54322 0.9647 0.0
C1026 C 0.67495 0.52572 0.94553 0.0
C1027 C 0.71441 0.53845 0.93432 0.0
C1028 C 0.75657 0.5681 0.94239 0.0
C1029 C 0.75935 0.58489 0.96177 0.0
C1030 C 0.72001 0.57264 0.97288 0.0
C1031 C 0.57158 0.51191 0.06947 0.0
C1032 C 0.61143 0.5462 0.07639 0.0
C1033 C 0.56647 0.50384 0.04742 0.0
C1034 C 0.6013 0.53021 0.03248 0.0
C1035 C 0.64107 0.56435 0.03965 0.0
C1036 C 0.64606 0.57223 0.06157 0.0
C1037 C 0.59638 0.52436 0.00903 0.0
C1038 C 0.6304 0.52697 0.9979 0.0
C1039 C 0.56377 0.52342 0.99732 0.0
C1040 C 0.52921 0.52377 0.00822 0.0
C1041 C 0.54207 0.55411 0.02137 0.0
C1042 C 0.50932 0.55452 0.0313 0.0
C1043 C 0.4636 0.52509 0.02791 0.0
C1044 C 0.45056 0.49523 0.01453 0.0
C1045 C 0.4832 0.49455 0.00467 0.0
H1046 H 0.43829 0.52555 0.03555 0.0
H1047 H 0.78713 0.57821 0.9336 0.0
H1048 H 1.03389 0.50812 0.22636 0.0
H1049 H 1.03041 0.51272 0.26592 0.0
H1050 H 0.10311 0.46894 0.27554 0.0
H1051 H 0.10551 0.46338 0.23606 0.0
H1052 H 1.03814 0.43586 0.30448 0.0
H1053 H 0.15083 0.56821 0.27962 0.0
H1054 H 0.18165 0.62857 0.25928 0.0
H1055 H 0.07983 0.62964 0.28845 0.0
H1056 H 1.04802 0.56904 0.30871 0.0
H1057 H 0.11832 0.49609 0.4119 0.0
H1058 H 0.10489 0.4819 0.37306 0.0
H1059 H 1.02807 0.52276 0.37058 0.0
H1060 H 1.04277 0.53766 0.40939 0.0
H1061 H 0.08797 0.55496 0.33852 0.0
H1062 H 0.9788 0.42706 0.36568 0.0
H1063 H 0.95127 0.3703 0.38904 0.0
H1064 H 1.04499 0.36164 0.35727 0.0
H1065 H 0.07379 0.41886 0.33402 0.0
C1066 C 1.04915 0.4995 0.23692 0.0
C1067 C 0.06988 0.48529 0.22801 0.0
C1068 C 1.04742 0.50237 0.2596 0.0
C1069 C 0.06693 0.4916 0.27396 0.0
C1070 C 0.08768 0.47742 0.265 0.0
C1071 C 0.08916 0.47433 0.24235 0.0
C1072 C 0.06517 0.49431 0.29826 0.0
C1073 C 1.04949 0.46209 0.31186 0.0
C1074 C 0.07834 0.52799 0.30818 0.0
C1075 C 0.09663 0.56376 0.29541 0.0
C1076 C 0.13466 0.58106 0.28147 0.0
C1077 C 0.1524 0.61538 0.27001 0.0
C1078 C 0.1326 0.63284 0.2725 0.0
C1079 C 0.09504 0.61603 0.28647 0.0
C1080 C 0.07714 0.58169 0.29793 0.0
C1081 C 0.0973 0.50069 0.40312 0.0
C1082 C 0.08094 0.51733 0.41347 0.0
C1083 C 0.08975 0.4928 0.38093 0.0
C1084 C 0.06524 0.50108 0.36875 0.0
C1085 C 1.04708 0.5161 0.37951 0.0
C1086 C 1.0549 0.52416 0.40168 0.0
C1087 C 0.0616 0.4968 0.34458 0.0
C1088 C 0.07619 0.52864 0.33107 0.0
C1089 C 1.04709 0.46276 0.33478 0.0
C1090 C 1.02864 0.42742 0.34815 0.0
C1091 C 0.99367 0.41315 0.36371 0.0
C1092 C 0.97787 0.38091 0.37696 0.0
C1093 C 0.9964 0.3624 0.37465 0.0
C1094 C 1.03067 0.37601 0.35904 0.0
C1095 C 1.04672 0.40834 0.3458 0.0
H1096 H 0.98418 0.33749 0.38495 0.0
H1097 H 0.14646 0.65946 0.26366 0.0
loop_
_geom_bond_atom_site_label_1
_geom_bond_atom_site_label_2
_geom_bond_distance
_geom_bond_site_symmetry_2
_ccdc_geom_bond_type
Sm0 C2 2.846 . S
Sm0 O20 2.543 . S
Sm0 O21 2.450 . S
Sm0 O22 2.681 1_455 S
Sm0 O23 2.464 . S
Sm0 O24 2.396 . S
Sm0 O28 2.386 . S
Sm0 O31 2.408 1_455 S
Sm1 C11 2.846 . S
Sm1 O22 2.386 . S
Sm1 O25 2.408 1_655 S
Sm1 O26 2.543 . S
Sm1 O27 2.450 . S
Sm1 O28 2.681 1_655 S
Sm1 O29 2.464 . S
Sm1 O30 2.396 . S
C2 Sm0 2.846 . S
C2 C3 1.506 . S
C2 O20 1.261 . S
C2 O21 1.242 . S
C3 C2 1.506 . S
C3 C4 1.358 . S
C3 C8 1.382 . S
C4 C3 1.358 . S
C4 C5 1.385 . S
C4 H32 0.930 . S
C5 C4 1.385 . S
C5 C6 1.395 . S
C5 H33 0.929 . S
C6 C5 1.395 . S
C6 C7 1.335 . S
C7 C6 1.335 . S
C7 C8 1.398 . S
C7 H34 0.930 . S
C8 C3 1.382 . S
C8 C7 1.398 . S
C8 H35 0.929 . S
C9 O22 1.272 1_455 S
C9 O23 1.250 . S
C10 O24 1.252 . S
C10 O25 1.272 . S
C11 Sm1 2.846 . S
C11 C12 1.506 . S
C11 O26 1.261 . S
C11 O27 1.242 . S
C12 C11 1.506 . S
C12 C13 1.358 . S
C12 C17 1.382 . S
C13 C12 1.358 . S
C13 C14 1.385 . S
C13 H36 0.930 . S
C14 C13 1.385 . S
C14 C15 1.395 . S
C14 H37 0.929 . S
C15 C14 1.395 . S
C15 C16 1.335 . S
C16 C15 1.335 . S
C16 C17 1.398 . S
C16 H38 0.930 . S
C17 C12 1.382 . S
C17 C16 1.398 . S
C17 H39 0.929 . S
C18 O28 1.281 . S
C18 O29 1.232 1_455 S
C19 O30 1.252 . S
C19 O31 1.272 . S
O20 Sm0 2.543 . S
O20 C2 1.261 . S
O21 Sm0 2.450 . S
O21 C2 1.242 . S
O22 Sm0 2.681 1_655 S
O22 Sm1 2.386 . S
O22 C9 1.272 1_655 S
O23 Sm0 2.464 . S
O23 C9 1.250 . S
O24 Sm0 2.396 . S
O24 C10 1.252 . S
O25 Sm1 2.408 1_455 S
O25 C10 1.272 . S
O26 Sm1 2.543 . S
O26 C11 1.261 . S
O27 Sm1 2.450 . S
O27 C11 1.242 . S
O28 Sm0 2.386 . S
O28 Sm1 2.681 1_455 S
O28 C18 1.281 . S
O29 Sm1 2.464 . S
O29 C18 1.232 1_655 S
O30 Sm1 2.396 . S
O30 C19 1.252 . S
O31 Sm0 2.408 1_655 S
O31 C19 1.272 . S
H32 C4 0.930 . S
H33 C5 0.929 . S
H34 C7 0.930 . S
H35 C8 0.929 . S
H36 C13 0.930 . S
H37 C14 0.929 . S
H38 C16 0.930 . S
H39 C17 0.929 . S
Sm40 C42 2.846 1_545 S
Sm40 O60 2.543 1_545 S
Sm40 O61 2.450 1_545 S
Sm40 O62 2.681 . S
Sm40 O63 2.464 . S
Sm40 O64 2.396 1_545 S
Sm40 O68 2.386 . S
Sm40 O71 2.408 . S
Sm41 C51 2.846 . S
Sm41 O62 2.386 . S
Sm41 O65 2.408 1_545 S
Sm41 O66 2.543 . S
Sm41 O67 2.450 . S
Sm41 O68 2.681 . S
Sm41 O69 2.464 . S
Sm41 O70 2.396 . S
C42 Sm40 2.846 1_565 S
C42 C43 1.506 . S
C42 O60 1.261 . S
C42 O61 1.242 . S
C43 C42 1.506 . S
C43 C44 1.358 . S
C43 C48 1.382 . S
C44 C43 1.358 . S
C44 C45 1.385 . S
C44 H72 0.930 . S
C45 C44 1.385 . S
C45 C46 1.395 . S
C45 H73 0.929 . S
C46 C45 1.395 . S
C46 C47 1.335 . S
C47 C46 1.335 . S
C47 C48 1.398 . S
C47 H74 0.930 . S
C48 C43 1.382 . S
C48 C47 1.398 . S
C48 H75 0.929 . S
C49 O62 1.271 . S
C49 O63 1.251 . S
C50 O64 1.252 . S
C50 O65 1.272 . S
C51 Sm41 2.846 . S
C51 C52 1.506 . S
C51 O66 1.261 . S
C51 O67 1.242 . S
C52 C51 1.506 . S
C52 C53 1.358 . S
C52 C57 1.382 . S
C53 C52 1.358 . S
C53 C54 1.385 . S
C53 H76 0.930 . S
C54 C53 1.385 . S
C54 C55 1.395 . S
C54 H77 0.929 . S
C55 C54 1.395 . S
C55 C56 1.335 . S
C56 C55 1.335 . S
C56 C57 1.398 . S
C56 H78 0.930 . S
C57 C52 1.382 . S
C57 C56 1.398 . S
C57 H79 0.929 . S
C58 O68 1.271 . S
C58 O69 1.251 . S
C59 O70 1.252 . S
C59 O71 1.272 . S
O60 Sm40 2.543 1_565 S
O60 C42 1.261 . S
O61 Sm40 2.450 1_565 S
O61 C42 1.242 . S
O62 Sm40 2.681 . S
O62 Sm41 2.386 . S
O62 C49 1.271 . S
O63 Sm40 2.464 . S
O63 C49 1.251 . S
O64 Sm40 2.396 1_565 S
O64 C50 1.252 . S
O65 Sm41 2.408 1_565 S
O65 C50 1.272 . S
O66 Sm41 2.543 . S
O66 C51 1.261 . S
O67 Sm41 2.450 . S
O67 C51 1.242 . S
O68 Sm40 2.386 . S
O68 Sm41 2.681 . S
O68 C58 1.271 . S
O69 Sm41 2.464 . S
O69 C58 1.251 . S
O70 Sm41 2.396 . S
O70 C59 1.252 . S
O71 Sm40 2.408 . S
O71 C59 1.272 . S
H72 C44 0.930 . S
H73 C45 0.929 . S
H74 C47 0.930 . S
H75 C48 0.929 . S
H76 C53 0.930 . S
H77 C54 0.929 . S
H78 C56 0.930 . S
H79 C57 0.929 . S
Sm80 C82 2.846 . S
Sm80 O100 2.543 . S
Sm80 O101 2.450 . S
Sm80 O102 2.681 . S
Sm80 O103 2.464 . S
Sm80 O104 2.396 . S
Sm80 O108 2.386 . S
Sm80 O111 2.408 . S
Sm81 C91 2.846 . S
Sm81 O102 2.386 . S
Sm81 O105 2.408 . S
Sm81 O106 2.543 . S
Sm81 O107 2.450 . S
Sm81 O108 2.681 . S
Sm81 O109 2.464 . S
Sm81 O110 2.396 . S
C82 Sm80 2.846 . S
C82 C83 1.506 . S
C82 O100 1.261 . S
C82 O101 1.242 . S
C83 C82 1.506 . S
C83 C84 1.358 . S
C83 C88 1.382 . S
C84 C83 1.358 . S
C84 C85 1.385 . S
C84 H112 0.930 . S
C85 C84 1.385 . S
C85 C86 1.395 . S
C85 H113 0.929 . S
C86 C85 1.395 . S
C86 C87 1.335 . S
C87 C86 1.335 . S
C87 C88 1.398 . S
C87 H114 0.930 . S
C88 C83 1.382 . S
C88 C87 1.398 . S
C88 H115 0.929 . S
C89 O102 1.271 . S
C89 O103 1.251 . S
C90 O104 1.252 . S
C90 O105 1.272 . S
C91 Sm81 2.846 . S
C91 C92 1.506 . S
C91 O106 1.261 . S
C91 O107 1.242 . S
C92 C91 1.506 . S
C92 C93 1.358 . S
C92 C97 1.382 . S
C93 C92 1.358 . S
C93 C94 1.385 . S
C93 H116 0.930 . S
C94 C93 1.385 . S
C94 C95 1.395 . S
C94 H117 0.929 . S
C95 C94 1.395 . S
C95 C96 1.335 . S
C96 C95 1.335 . S
C96 C97 1.398 . S
C96 H118 0.930 . S
C97 C92 1.382 . S
C97 C96 1.398 . S
C97 H119 0.929 . S
C98 O108 1.271 . S
C98 O109 1.251 . S
C99 O110 1.252 . S
C99 O111 1.272 . S
O100 Sm80 2.543 . S
O100 C82 1.261 . S
O101 Sm80 2.450 . S
O101 C82 1.242 . S
O102 Sm80 2.681 . S
O102 Sm81 2.386 . S
O102 C89 1.271 . S
O103 Sm80 2.464 . S
O103 C89 1.251 . S
O104 Sm80 2.396 . S
O104 C90 1.252 . S
O105 Sm81 2.408 . S
O105 C90 1.272 . S
O106 Sm81 2.543 . S
O106 C91 1.261 . S
O107 Sm81 2.450 . S
O107 C91 1.242 . S
O108 Sm80 2.386 . S
O108 Sm81 2.681 . S
O108 C98 1.271 . S
O109 Sm81 2.464 . S
O109 C98 1.251 . S
O110 Sm81 2.396 . S
O110 C99 1.252 . S
O111 Sm80 2.408 . S
O111 C99 1.272 . S
H112 C84 0.930 . S
H113 C85 0.929 . S
H114 C87 0.930 . S
H115 C88 0.929 . S
H116 C93 0.930 . S
H117 C94 0.929 . S
H118 C96 0.930 . S
H119 C97 0.929 . S
C120 N121 1.317 1_565 S
C120 N122 1.348 . S
C120 C123 1.485 1_565 S
N121 C120 1.317 1_545 S
N121 N125 1.370 . S
N122 C120 1.348 . S
N122 C124 1.346 . S
C123 C120 1.485 1_545 S
C123 H127 0.960 . S
C123 H128 0.961 1_545 S
C123 H129 0.960 . S
C124 N122 1.346 . S
C124 N125 1.307 1_565 S
C124 C126 1.486 . S
N125 N121 1.370 . S
N125 C124 1.307 1_545 S
C126 C124 1.486 . S
C126 H130 0.960 . S
C126 H131 0.960 . S
C126 H132 0.959 . S
H127 C123 0.960 . S
H128 C123 0.961 1_565 S
H129 C123 0.960 . S
H130 C126 0.960 . S
H131 C126 0.960 . S
H132 C126 0.959 . S
C133 N134 1.317 . S
C133 N135 1.348 . S
C133 C136 1.485 . S
N134 C133 1.317 . S
N134 N138 1.370 . S
N135 C133 1.348 . S
N135 C137 1.346 . S
C136 C133 1.485 . S
C136 H140 0.960 . S
C136 H141 0.961 . S
C136 H142 0.960 . S
C137 N135 1.346 . S
C137 N138 1.307 . S
C137 C139 1.486 . S
N138 N134 1.370 . S
N138 C137 1.307 . S
C139 C137 1.486 . S
C139 H143 0.960 . S
C139 H144 0.960 . S
C139 H145 0.959 . S
H140 C136 0.960 . S
H141 C136 0.961 . S
H142 C136 0.960 . S
H143 C139 0.960 . S
H144 C139 0.960 . S
H145 C139 0.959 . S
C146 N147 1.317 . S
C146 N148 1.348 . S
C146 C149 1.485 . S
N147 C146 1.317 . S
N147 N151 1.370 . S
N148 C146 1.348 . S
N148 C150 1.346 . S
C149 C146 1.485 . S
C149 H153 0.960 . S
C149 H154 0.961 . S
C149 H155 0.960 . S
C150 N148 1.346 . S
C150 N151 1.307 . S
C150 C152 1.486 1_455 S
N151 N147 1.370 . S
N151 C150 1.307 . S
C152 C150 1.486 1_655 S
C152 H156 0.960 . S
C152 H157 0.960 . S
C152 H158 0.959 1_655 S
H153 C149 0.960 . S
H154 C149 0.961 . S
H155 C149 0.960 . S
H156 C152 0.960 . S
H157 C152 0.960 . S
H158 C152 0.959 1_455 S
C159 N160 1.317 . S
C159 N161 1.348 . S
C159 C162 1.485 . S
N160 C159 1.317 . S
N160 N164 1.370 . S
N161 C159 1.348 . S
N161 C163 1.346 . S
C162 C159 1.485 . S
C162 H166 0.960 . S
C162 H167 0.961 . S
C162 H168 0.960 . S
C163 N161 1.346 . S
C163 N164 1.307 . S
C163 C165 1.486 . S
N164 N160 1.370 . S
N164 C163 1.307 . S
C165 C163 1.486 . S
C165 H169 0.960 . S
C165 H170 0.960 . S
C165 H171 0.959 . S
H166 C162 0.960 . S
H167 C162 0.961 . S
H168 C162 0.960 . S
H169 C165 0.960 . S
H170 C165 0.960 . S
H171 C165 0.959 . S
C172 N173 1.317 . S
C172 N174 1.348 . S
C172 C175 1.485 . S
N173 C172 1.317 . S
N173 N177 1.370 . S
N174 C172 1.348 . S
N174 C176 1.346 . S
C175 C172 1.485 . S
C175 H179 0.960 . S
C175 H180 0.961 . S
C175 H181 0.960 . S
C176 N174 1.346 . S
C176 N177 1.307 . S
C176 C178 1.486 . S
N177 N173 1.370 . S
N177 C176 1.307 . S
C178 C176 1.486 . S
C178 H182 0.960 . S
C178 H183 0.960 . S
C178 H184 0.959 . S
H179 C175 0.960 . S
H180 C175 0.961 . S
H181 C175 0.960 . S
H182 C178 0.960 . S
H183 C178 0.960 . S
H184 C178 0.959 . S
C185 N186 1.317 . S
C185 N187 1.348 . S
C185 C188 1.485 . S
N186 C185 1.317 . S
N186 N190 1.370 . S
N187 C185 1.348 . S
N187 C189 1.346 . S
C188 C185 1.485 . S
C188 H192 0.960 . S
C188 H193 0.961 . S
C188 H194 0.960 . S
C189 N187 1.346 . S
C189 N190 1.307 . S
C189 C191 1.486 . S
N190 N186 1.370 . S
N190 C189 1.307 . S
C191 C189 1.486 . S
C191 H195 0.960 . S
C191 H196 0.960 . S
C191 H197 0.959 . S
H192 C188 0.960 . S
H193 C188 0.961 . S
H194 C188 0.960 . S
H195 C191 0.960 . S
H196 C191 0.960 . S
H197 C191 0.959 . S
H198 C216 0.951 . S
H199 C218 0.951 . S
H200 C220 0.950 . S
H201 C221 0.950 . S
H202 C223 0.950 . S
H203 C226 0.950 . S
H204 C227 0.950 . S
H205 C229 0.950 . S
H206 C230 0.950 . S
H207 C231 0.951 . S
H208 C233 0.951 . S
H209 C235 0.950 . S
H210 C236 0.950 . S
H211 C238 0.950 . S
H212 C241 0.950 . S
H213 C242 0.950 . S
H214 C244 0.950 . S
H215 C245 0.950 . S
C216 H198 0.951 . S
C216 C217 1.366 . S
C216 C218 1.388 . S
C217 C216 1.366 . S
C217 C221 1.385 . S
C218 H199 0.951 . S
C218 C216 1.388 . S
C218 C219 1.366 . S
C219 C218 1.366 . S
C219 C220 1.414 . S
C219 C222 1.499 . S
C220 H200 0.950 . S
C220 C219 1.414 . S
C220 C221 1.374 . S
C221 H201 0.950 . S
C221 C217 1.385 . S
C221 C220 1.374 . S
C222 C219 1.499 . S
C222 C223 1.373 . S
C222 C224 1.389 . S
C223 H202 0.950 . S
C223 C222 1.373 . S
C223 C239 1.377 . S
C224 C222 1.389 . S
C224 C225 1.524 . S
C224 C238 1.377 . S
C225 C224 1.524 . S
C225 C226 1.397 . S
C225 C230 1.363 . S
C226 H203 0.950 . S
C226 C225 1.397 . S
C226 C227 1.334 . S
C227 H204 0.950 . S
C227 C226 1.334 . S
C227 C228 1.287 . S
C228 C227 1.287 . S
C228 C229 1.524 . S
C228 H247 0.913 . S
C229 H205 0.950 . S
C229 C228 1.524 . S
C229 C230 1.415 . S
C230 H206 0.950 . S
C230 C225 1.363 . S
C230 C229 1.415 . S
C231 H207 0.951 . S
C231 C232 1.366 . S
C231 C233 1.388 . S
C232 C231 1.366 . S
C232 C236 1.385 . S
C233 H208 0.951 . S
C233 C231 1.388 . S
C233 C234 1.366 . S
C234 C233 1.366 . S
C234 C235 1.414 . S
C234 C237 1.499 . S
C235 H209 0.950 . S
C235 C234 1.414 . S
C235 C236 1.374 . S
C236 H210 0.950 . S
C236 C232 1.385 . S
C236 C235 1.374 . S
C237 C234 1.499 . S
C237 C238 1.373 . S
C237 C239 1.389 . S
C238 H211 0.950 . S
C238 C224 1.377 . S
C238 C237 1.373 . S
C239 C223 1.377 . S
C239 C237 1.389 . S
C239 C240 1.524 . S
C240 C239 1.524 . S
C240 C241 1.397 . S
C240 C245 1.363 . S
C241 H212 0.950 . S
C241 C240 1.397 . S
C241 C242 1.334 . S
C242 H213 0.950 . S
C242 C241 1.334 . S
C242 C243 1.287 . S
C243 C242 1.287 . S
C243 C244 1.524 . S
C243 H246 0.999 . S
C244 H214 0.950 . S
C244 C243 1.524 . S
C244 C245 1.415 . S
C245 H215 0.950 . S
C245 C240 1.363 . S
C245 C244 1.415 . S
H246 C243 0.999 . S
H247 C228 0.913 . S
H248 C266 0.951 . S
H249 C268 0.951 . S
H250 C270 0.950 . S
H251 C271 0.950 . S
H252 C273 0.950 . S
H253 C276 0.950 . S
H254 C277 0.950 . S
H255 C279 0.950 . S
H256 C280 0.950 . S
H257 C281 0.951 1_455 S
H258 C283 0.951 . S
H259 C285 0.950 . S
H260 C286 0.950 . S
H261 C288 0.950 . S
H262 C291 0.950 . S
H263 C292 0.950 . S
H264 C294 0.950 . S
H265 C295 0.950 . S
C266 H248 0.951 . S
C266 C267 1.366 . S
C266 C268 1.388 . S
C267 C266 1.366 . S
C267 C271 1.385 . S
C268 H249 0.951 . S
C268 C266 1.388 . S
C268 C269 1.366 . S
C269 C268 1.366 . S
C269 C270 1.414 . S
C269 C272 1.499 . S
C270 H250 0.950 . S
C270 C269 1.414 . S
C270 C271 1.374 . S
C271 H251 0.950 . S
C271 C267 1.385 . S
C271 C270 1.374 . S
C272 C269 1.499 . S
C272 C273 1.373 . S
C272 C274 1.389 . S
C273 H252 0.950 . S
C273 C272 1.373 . S
C273 C289 1.377 . S
C274 C272 1.389 . S
C274 C275 1.524 . S
C274 C288 1.377 . S
C275 C274 1.524 . S
C275 C276 1.397 . S
C275 C280 1.363 . S
C276 H253 0.950 . S
C276 C275 1.397 . S
C276 C277 1.334 . S
C277 H254 0.950 . S
C277 C276 1.334 . S
C277 C278 1.287 . S
C278 C277 1.287 . S
C278 C279 1.524 . S
C278 H297 0.913 . S
C279 H255 0.950 . S
C279 C278 1.524 . S
C279 C280 1.415 . S
C280 H256 0.950 . S
C280 C275 1.363 . S
C280 C279 1.415 . S
C281 H257 0.951 1_655 S
C281 C282 1.366 . S
C281 C283 1.388 . S
C282 C281 1.366 . S
C282 C286 1.385 . S
C283 H258 0.951 . S
C283 C281 1.388 . S
C283 C284 1.366 . S
C284 C283 1.366 . S
C284 C285 1.414 . S
C284 C287 1.499 . S
C285 H259 0.950 . S
C285 C284 1.414 . S
C285 C286 1.374 . S
C286 H260 0.950 . S
C286 C282 1.385 . S
C286 C285 1.374 . S
C287 C284 1.499 . S
C287 C288 1.373 . S
C287 C289 1.389 . S
C288 H261 0.950 . S
C288 C274 1.377 . S
C288 C287 1.373 . S
C289 C273 1.377 . S
C289 C287 1.389 . S
C289 C290 1.524 . S
C290 C289 1.524 . S
C290 C291 1.397 . S
C290 C295 1.363 . S
C291 H262 0.950 . S
C291 C290 1.397 . S
C291 C292 1.334 . S
C292 H263 0.950 . S
C292 C291 1.334 . S
C292 C293 1.287 . S
C293 C292 1.287 . S
C293 C294 1.524 . S
C293 H296 0.999 . S
C294 H264 0.950 . S
C294 C293 1.524 . S
C294 C295 1.415 . S
C295 H265 0.950 . S
C295 C290 1.363 . S
C295 C294 1.415 . S
H296 C293 0.999 . S
H297 C278 0.913 . S
H298 C316 0.951 . S
H299 C318 0.951 . S
H300 C320 0.950 . S
H301 C321 0.950 . S
H302 C323 0.950 . S
H303 C326 0.950 . S
H304 C327 0.950 . S
H305 C329 0.950 . S
H306 C330 0.950 . S
H307 C331 0.951 . S
H308 C333 0.951 . S
H309 C335 0.950 1_545 S
H310 C336 0.950 . S
H311 C338 0.950 . S
H312 C341 0.950 . S
H313 C342 0.950 . S
H314 C344 0.950 . S
H315 C345 0.950 . S
C316 H298 0.951 . S
C316 C317 1.366 . S
C316 C318 1.388 . S
C317 C316 1.366 . S
C317 C321 1.385 . S
C318 H299 0.951 . S
C318 C316 1.388 . S
C318 C319 1.366 . S
C319 C318 1.366 . S
C319 C320 1.414 . S
C319 C322 1.499 . S
C320 H300 0.950 . S
C320 C319 1.414 . S
C320 C321 1.374 . S
C321 H301 0.950 . S
C321 C317 1.385 . S
C321 C320 1.374 . S
C322 C319 1.499 . S
C322 C323 1.373 . S
C322 C324 1.389 . S
C323 H302 0.950 . S
C323 C322 1.373 . S
C323 C339 1.377 . S
C324 C322 1.389 . S
C324 C325 1.524 . S
C324 C338 1.377 . S
C325 C324 1.524 . S
C325 C326 1.397 . S
C325 C330 1.363 . S
C326 H303 0.950 . S
C326 C325 1.397 . S
C326 C327 1.334 . S
C327 H304 0.950 . S
C327 C326 1.334 . S
C327 C328 1.287 . S
C328 C327 1.287 . S
C328 C329 1.524 . S
C328 H347 0.913 . S
C329 H305 0.950 . S
C329 C328 1.524 . S
C329 C330 1.415 . S
C330 H306 0.950 . S
C330 C325 1.363 . S
C330 C329 1.415 . S
C331 H307 0.951 . S
C331 C332 1.366 1_565 S
C331 C333 1.388 . S
C332 C331 1.366 1_545 S
C332 C336 1.385 . S
C333 H308 0.951 . S
C333 C331 1.388 . S
C333 C334 1.366 . S
C334 C333 1.366 . S
C334 C335 1.414 . S
C334 C337 1.499 . S
C335 H309 0.950 1_565 S
C335 C334 1.414 . S
C335 C336 1.374 1_565 S
C336 H310 0.950 . S
C336 C332 1.385 . S
C336 C335 1.374 1_545 S
C337 C334 1.499 . S
C337 C338 1.373 . S
C337 C339 1.389 . S
C338 H311 0.950 . S
C338 C324 1.377 . S
C338 C337 1.373 . S
C339 C323 1.377 . S
C339 C337 1.389 . S
C339 C340 1.524 . S
C340 C339 1.524 . S
C340 C341 1.397 . S
C340 C345 1.363 . S
C341 H312 0.950 . S
C341 C340 1.397 . S
C341 C342 1.334 . S
C342 H313 0.950 . S
C342 C341 1.334 . S
C342 C343 1.287 . S
C343 C342 1.287 . S
C343 C344 1.524 . S
C343 H346 0.999 . S
C344 H314 0.950 . S
C344 C343 1.524 . S
C344 C345 1.415 . S
C345 H315 0.950 . S
C345 C340 1.363 . S
C345 C344 1.415 . S
H346 C343 0.999 . S
H347 C328 0.913 . S
H348 C366 0.951 . S
H349 C368 0.951 . S
H350 C370 0.950 . S
H351 C371 0.950 . S
H352 C373 0.950 . S
H353 C376 0.950 . S
H354 C377 0.950 . S
H355 C379 0.950 . S
H356 C380 0.950 . S
H357 C381 0.951 . S
H358 C383 0.951 . S
H359 C385 0.950 . S
H360 C386 0.950 . S
H361 C388 0.950 . S
H362 C391 0.950 . S
H363 C392 0.950 . S
H364 C394 0.950 . S
H365 C395 0.950 . S
C366 H348 0.951 . S
C366 C367 1.366 . S
C366 C368 1.388 . S
C367 C366 1.366 . S
C367 C371 1.385 . S
C368 H349 0.951 . S
C368 C366 1.388 . S
C368 C369 1.366 . S
C369 C368 1.366 . S
C369 C370 1.414 . S
C369 C372 1.499 . S
C370 H350 0.950 . S
C370 C369 1.414 . S
C370 C371 1.374 . S
C371 H351 0.950 . S
C371 C367 1.385 . S
C371 C370 1.374 . S
C372 C369 1.499 . S
C372 C373 1.373 . S
C372 C374 1.389 . S
C373 H352 0.950 . S
C373 C372 1.373 . S
C373 C389 1.377 . S
C374 C372 1.389 . S
C374 C375 1.524 . S
C374 C388 1.377 . S
C375 C374 1.524 . S
C375 C376 1.397 . S
C375 C380 1.363 . S
C376 H353 0.950 . S
C376 C375 1.397 . S
C376 C377 1.334 . S
C377 H354 0.950 . S
C377 C376 1.334 . S
C377 C378 1.287 . S
C378 C377 1.287 . S
C378 C379 1.524 . S
C378 H397 0.913 . S
C379 H355 0.950 . S
C379 C378 1.524 . S
C379 C380 1.415 . S
C380 H356 0.950 . S
C380 C375 1.363 . S
C380 C379 1.415 . S
C381 H357 0.951 . S
C381 C382 1.366 . S
C381 C383 1.388 . S
C382 C381 1.366 . S
C382 C386 1.385 . S
C383 H358 0.951 . S
C383 C381 1.388 . S
C383 C384 1.366 . S
C384 C383 1.366 . S
C384 C385 1.414 . S
C384 C387 1.499 . S
C385 H359 0.950 . S
C385 C384 1.414 . S
C385 C386 1.374 . S
C386 H360 0.950 . S
C386 C382 1.385 . S
C386 C385 1.374 . S
C387 C384 1.499 . S
C387 C388 1.373 . S
C387 C389 1.389 . S
C388 H361 0.950 . S
C388 C374 1.377 . S
C388 C387 1.373 . S
C389 C373 1.377 . S
C389 C387 1.389 . S
C389 C390 1.524 . S
C390 C389 1.524 . S
C390 C391 1.397 . S
C390 C395 1.363 . S
C391 H362 0.950 . S
C391 C390 1.397 . S
C391 C392 1.334 . S
C392 H363 0.950 . S
C392 C391 1.334 . S
C392 C393 1.287 . S
C393 C392 1.287 . S
C393 C394 1.524 . S
C393 H396 0.999 . S
C394 H364 0.950 . S
C394 C393 1.524 . S
C394 C395 1.415 . S
C395 H365 0.950 . S
C395 C390 1.363 . S
C395 C394 1.415 . S
H396 C393 0.999 . S
H397 C378 0.913 . S
H398 C416 0.951 . S
H399 C418 0.951 . S
H400 C420 0.950 . S
H401 C421 0.950 . S
H402 C423 0.950 . S
H403 C426 0.950 . S
H404 C427 0.950 . S
H405 C429 0.950 . S
H406 C430 0.950 . S
H407 C431 0.951 . S
H408 C433 0.951 . S
H409 C435 0.950 . S
H410 C436 0.950 . S
H411 C438 0.950 . S
H412 C441 0.950 . S
H413 C442 0.950 . S
H414 C444 0.950 . S
H415 C445 0.950 . S
C416 H398 0.951 . S
C416 C417 1.366 . S
C416 C418 1.388 . S
C417 C416 1.366 . S
C417 C421 1.385 . S
C418 H399 0.951 . S
C418 C416 1.388 . S
C418 C419 1.366 . S
C419 C418 1.366 . S
C419 C420 1.414 . S
C419 C422 1.499 . S
C420 H400 0.950 . S
C420 C419 1.414 . S
C420 C421 1.374 . S
C421 H401 0.950 . S
C421 C417 1.385 . S
C421 C420 1.374 . S
C422 C419 1.499 . S
C422 C423 1.373 . S
C422 C424 1.389 . S
C423 H402 0.950 . S
C423 C422 1.373 . S
C423 C439 1.377 . S
C424 C422 1.389 . S
C424 C425 1.524 . S
C424 C438 1.377 . S
C425 C424 1.524 . S
C425 C426 1.397 . S
C425 C430 1.363 . S
C426 H403 0.950 . S
C426 C425 1.397 . S
C426 C427 1.334 . S
C427 H404 0.950 . S
C427 C426 1.334 . S
C427 C428 1.287 . S
C428 C427 1.287 . S
C428 C429 1.524 . S
C428 H447 0.913 . S
C429 H405 0.950 . S
C429 C428 1.524 . S
C429 C430 1.415 . S
C430 H406 0.950 . S
C430 C425 1.363 . S
C430 C429 1.415 . S
C431 H407 0.951 . S
C431 C432 1.366 . S
C431 C433 1.388 . S
C432 C431 1.366 . S
C432 C436 1.385 . S
C433 H408 0.951 . S
C433 C431 1.388 . S
C433 C434 1.366 . S
C434 C433 1.366 . S
C434 C435 1.414 . S
C434 C437 1.499 . S
C435 H409 0.950 . S
C435 C434 1.414 . S
C435 C436 1.374 . S
C436 H410 0.950 . S
C436 C432 1.385 . S
C436 C435 1.374 . S
C437 C434 1.499 . S
C437 C438 1.373 . S
C437 C439 1.389 . S
C438 H411 0.950 . S
C438 C424 1.377 . S
C438 C437 1.373 . S
C439 C423 1.377 . S
C439 C437 1.389 . S
C439 C440 1.524 . S
C440 C439 1.524 . S
C440 C441 1.397 . S
C440 C445 1.363 . S
C441 H412 0.950 . S
C441 C440 1.397 . S
C441 C442 1.334 . S
C442 H413 0.950 . S
C442 C441 1.334 . S
C442 C443 1.287 . S
C443 C442 1.287 . S
C443 C444 1.524 . S
C443 H446 0.999 . S
C444 H414 0.950 . S
C444 C443 1.524 . S
C444 C445 1.415 . S
C445 H415 0.950 . S
C445 C440 1.363 . S
C445 C444 1.415 . S
H446 C443 0.999 . S
H447 C428 0.913 . S
H448 C466 0.951 . S
H449 C468 0.951 . S
H450 C470 0.950 . S
H451 C471 0.950 . S
H452 C473 0.950 . S
H453 C476 0.950 . S
H454 C477 0.950 . S
H455 C479 0.950 . S
H456 C480 0.950 . S
H457 C481 0.951 . S
H458 C483 0.951 . S
H459 C485 0.950 . S
H460 C486 0.950 . S
H461 C488 0.950 . S
H462 C491 0.950 . S
H463 C492 0.950 . S
H464 C494 0.950 . S
H465 C495 0.950 . S
C466 H448 0.951 . S
C466 C467 1.366 . S
C466 C468 1.388 . S
C467 C466 1.366 . S
C467 C471 1.385 . S
C468 H449 0.951 . S
C468 C466 1.388 . S
C468 C469 1.366 . S
C469 C468 1.366 . S
C469 C470 1.414 . S
C469 C472 1.499 . S
C470 H450 0.950 . S
C470 C469 1.414 . S
C470 C471 1.374 . S
C471 H451 0.950 . S
C471 C467 1.385 . S
C471 C470 1.374 . S
C472 C469 1.499 . S
C472 C473 1.373 . S
C472 C474 1.389 . S
C473 H452 0.950 . S
C473 C472 1.373 . S
C473 C489 1.377 . S
C474 C472 1.389 . S
C474 C475 1.524 . S
C474 C488 1.377 . S
C475 C474 1.524 . S
C475 C476 1.397 . S
C475 C480 1.363 . S
C476 H453 0.950 . S
C476 C475 1.397 . S
C476 C477 1.334 . S
C477 H454 0.950 . S
C477 C476 1.334 . S
C477 C478 1.287 . S
C478 C477 1.287 . S
C478 C479 1.524 . S
C478 H497 0.913 . S
C479 H455 0.950 . S
C479 C478 1.524 . S
C479 C480 1.415 . S
C480 H456 0.950 . S
C480 C475 1.363 . S
C480 C479 1.415 . S
C481 H457 0.951 . S
C481 C482 1.366 . S
C481 C483 1.388 . S
C482 C481 1.366 . S
C482 C486 1.385 . S
C483 H458 0.951 . S
C483 C481 1.388 . S
C483 C484 1.366 . S
C484 C483 1.366 . S
C484 C485 1.414 . S
C484 C487 1.499 . S
C485 H459 0.950 . S
C485 C484 1.414 . S
C485 C486 1.374 . S
C486 H460 0.950 . S
C486 C482 1.385 . S
C486 C485 1.374 . S
C487 C484 1.499 . S
C487 C488 1.373 . S
C487 C489 1.389 . S
C488 H461 0.950 . S
C488 C474 1.377 . S
C488 C487 1.373 . S
C489 C473 1.377 . S
C489 C487 1.389 . S
C489 C490 1.524 . S
C490 C489 1.524 . S
C490 C491 1.397 . S
C490 C495 1.363 . S
C491 H462 0.950 . S
C491 C490 1.397 . S
C491 C492 1.334 . S
C492 H463 0.950 . S
C492 C491 1.334 . S
C492 C493 1.287 . S
C493 C492 1.287 . S
C493 C494 1.524 . S
C493 H496 0.999 . S
C494 H464 0.950 . S
C494 C493 1.524 . S
C494 C495 1.415 . S
C495 H465 0.950 . S
C495 C490 1.363 . S
C495 C494 1.415 . S
H496 C493 0.999 . S
H497 C478 0.913 . S
H498 C516 0.951 . S
H499 C518 0.951 . S
H500 C520 0.950 . S
H501 C521 0.950 . S
H502 C523 0.950 . S
H503 C526 0.950 . S
H504 C527 0.950 . S
H505 C529 0.950 . S
H506 C530 0.950 . S
H507 C531 0.951 . S
H508 C533 0.951 . S
H509 C535 0.950 . S
H510 C536 0.950 . S
H511 C538 0.950 . S
H512 C541 0.950 . S
H513 C542 0.950 . S
H514 C544 0.950 . S
H515 C545 0.950 . S
C516 H498 0.951 . S
C516 C517 1.366 . S
C516 C518 1.388 . S
C517 C516 1.366 . S
C517 C521 1.385 . S
C518 H499 0.951 . S
C518 C516 1.388 . S
C518 C519 1.366 . S
C519 C518 1.366 . S
C519 C520 1.414 . S
C519 C522 1.499 . S
C520 H500 0.950 . S
C520 C519 1.414 . S
C520 C521 1.374 . S
C521 H501 0.950 . S
C521 C517 1.385 . S
C521 C520 1.374 . S
C522 C519 1.499 . S
C522 C523 1.373 . S
C522 C524 1.389 . S
C523 H502 0.950 . S
C523 C522 1.373 . S
C523 C539 1.377 . S
C524 C522 1.389 . S
C524 C525 1.524 . S
C524 C538 1.377 . S
C525 C524 1.524 . S
C525 C526 1.397 . S
C525 C530 1.363 . S
C526 H503 0.950 . S
C526 C525 1.397 . S
C526 C527 1.334 . S
C527 H504 0.950 . S
C527 C526 1.334 . S
C527 C528 1.287 . S
C528 C527 1.287 . S
C528 C529 1.524 . S
C528 H547 0.913 . S
C529 H505 0.950 . S
C529 C528 1.524 . S
C529 C530 1.415 . S
C530 H506 0.950 . S
C530 C525 1.363 . S
C530 C529 1.415 . S
C531 H507 0.951 . S
C531 C532 1.366 . S
C531 C533 1.388 . S
C532 C531 1.366 . S
C532 C536 1.385 . S
C533 H508 0.951 . S
C533 C531 1.388 . S
C533 C534 1.366 . S
C534 C533 1.366 . S
C534 C535 1.414 . S
C534 C537 1.499 . S
C535 H509 0.950 . S
C535 C534 1.414 . S
C535 C536 1.374 . S
C536 H510 0.950 . S
C536 C532 1.385 . S
C536 C535 1.374 . S
C537 C534 1.499 . S
C537 C538 1.373 . S
C537 C539 1.389 . S
C538 H511 0.950 . S
C538 C524 1.377 . S
C538 C537 1.373 . S
C539 C523 1.377 . S
C539 C537 1.389 . S
C539 C540 1.524 . S
C540 C539 1.524 . S
C540 C541 1.397 . S
C540 C545 1.363 . S
C541 H512 0.950 . S
C541 C540 1.397 . S
C541 C542 1.334 . S
C542 H513 0.950 . S
C542 C541 1.334 . S
C542 C543 1.287 . S
C543 C542 1.287 . S
C543 C544 1.524 . S
C543 H546 0.999 . S
C544 H514 0.950 . S
C544 C543 1.524 . S
C544 C545 1.415 . S
C545 H515 0.950 . S
C545 C540 1.363 . S
C545 C544 1.415 . S
H546 C543 0.999 . S
H547 C528 0.913 . S
H548 C566 0.951 . S
H549 C568 0.951 . S
H550 C570 0.950 . S
H551 C571 0.950 . S
H552 C573 0.950 . S
H553 C576 0.950 . S
H554 C577 0.950 . S
H555 C579 0.950 . S
H556 C580 0.950 . S
H557 C581 0.963 . S
H558 C583 0.951 . S
H559 C585 0.950 . S
H560 C586 0.950 . S
H561 C588 0.950 . S
H562 C591 0.950 . S
H563 C592 0.950 . S
H564 C594 0.950 . S
H565 C595 0.950 . S
C566 H548 0.951 . S
C566 C567 1.366 . S
C566 C568 1.388 . S
C567 C566 1.366 . S
C567 C571 1.385 . S
C568 H549 0.951 . S
C568 C566 1.388 . S
C568 C569 1.366 . S
C569 C568 1.366 . S
C569 C570 1.414 . S
C569 C572 1.499 . S
C570 H550 0.950 . S
C570 C569 1.414 . S
C570 C571 1.374 . S
C571 H551 0.950 . S
C571 C567 1.385 . S
C571 C570 1.374 . S
C572 C569 1.499 . S
C572 C573 1.373 . S
C572 C574 1.389 . S
C573 H552 0.950 . S
C573 C572 1.373 . S
C573 C589 1.377 . S
C574 C572 1.389 . S
C574 C575 1.524 . S
C574 C588 1.377 . S
C575 C574 1.524 . S
C575 C576 1.397 . S
C575 C580 1.363 . S
C576 H553 0.950 . S
C576 C575 1.397 . S
C576 C577 1.334 . S
C577 H554 0.950 . S
C577 C576 1.334 . S
C577 C578 1.287 . S
C578 C577 1.287 . S
C578 C579 1.524 . S
C578 H597 0.913 . S
C579 H555 0.950 . S
C579 C578 1.524 . S
C579 C580 1.415 . S
C580 H556 0.950 . S
C580 C575 1.363 . S
C580 C579 1.415 . S
C581 H557 0.963 . S
C581 C582 1.366 . S
C581 C583 1.388 . S
C582 C581 1.366 . S
C582 C586 1.385 . S
C583 H558 0.951 . S
C583 C581 1.388 . S
C583 C584 1.366 . S
C584 C583 1.366 . S
C584 C585 1.414 . S
C584 C587 1.499 . S
C585 H559 0.950 . S
C585 C584 1.414 . S
C585 C586 1.374 . S
C586 H560 0.950 . S
C586 C582 1.385 . S
C586 C585 1.374 . S
C587 C584 1.499 . S
C587 C588 1.373 . S
C587 C589 1.389 . S
C588 H561 0.950 . S
C588 C574 1.377 . S
C588 C587 1.373 . S
C589 C573 1.377 . S
C589 C587 1.389 . S
C589 C590 1.524 . S
C590 C589 1.524 . S
C590 C591 1.397 . S
C590 C595 1.363 . S
C591 H562 0.950 . S
C591 C590 1.397 . S
C591 C592 1.334 . S
C592 H563 0.950 . S
C592 C591 1.334 . S
C592 C593 1.287 . S
C593 C592 1.287 . S
C593 C594 1.524 . S
C593 H596 0.999 . S
C594 H564 0.950 . S
C594 C593 1.524 . S
C594 C595 1.415 . S
C595 H565 0.950 . S
C595 C590 1.363 . S
C595 C594 1.415 . S
H596 C593 0.999 . S
H597 C578 0.913 . S
H598 C616 0.951 . S
H599 C618 0.951 . S
H600 C620 0.950 . S
H601 C621 0.950 . S
H602 C623 0.950 . S
H603 C626 0.950 . S
H604 C627 0.950 . S
H605 C629 0.950 . S
H606 C630 0.950 . S
H607 C631 0.951 . S
H608 C633 0.951 . S
H609 C635 0.950 . S
H610 C636 0.950 . S
H611 C638 0.950 . S
H612 C641 0.950 . S
H613 C642 0.950 . S
H614 C644 0.950 . S
H615 C645 0.950 . S
C616 H598 0.951 . S
C616 C617 1.366 . S
C616 C618 1.388 . S
C617 C616 1.366 . S
C617 C621 1.385 . S
C618 H599 0.951 . S
C618 C616 1.388 . S
C618 C619 1.366 . S
C619 C618 1.366 . S
C619 C620 1.414 . S
C619 C622 1.499 . S
C620 H600 0.950 . S
C620 C619 1.414 . S
C620 C621 1.374 . S
C621 H601 0.950 . S
C621 C617 1.385 . S
C621 C620 1.374 . S
C622 C619 1.499 . S
C622 C623 1.373 . S
C622 C624 1.389 . S
C623 H602 0.950 . S
C623 C622 1.373 . S
C623 C639 1.377 . S
C624 C622 1.389 . S
C624 C625 1.524 . S
C624 C638 1.377 . S
C625 C624 1.524 . S
C625 C626 1.397 . S
C625 C630 1.363 . S
C626 H603 0.950 . S
C626 C625 1.397 . S
C626 C627 1.334 . S
C627 H604 0.950 . S
C627 C626 1.334 . S
C627 C628 1.287 . S
C628 C627 1.287 . S
C628 C629 1.524 . S
C628 H647 0.913 . S
C629 H605 0.950 . S
C629 C628 1.524 . S
C629 C630 1.415 . S
C630 H606 0.950 . S
C630 C625 1.363 . S
C630 C629 1.415 . S
C631 H607 0.951 . S
C631 C632 1.366 . S
C631 C633 1.388 . S
C632 C631 1.366 . S
C632 C636 1.385 . S
C633 H608 0.951 . S
C633 C631 1.388 . S
C633 C634 1.366 . S
C634 C633 1.366 . S
C634 C635 1.414 . S
C634 C637 1.499 . S
C635 H609 0.950 . S
C635 C634 1.414 . S
C635 C636 1.374 . S
C636 H610 0.950 . S
C636 C632 1.385 . S
C636 C635 1.374 . S
C637 C634 1.499 . S
C637 C638 1.373 . S
C637 C639 1.389 . S
C638 H611 0.950 . S
C638 C624 1.377 . S
C638 C637 1.373 . S
C639 C623 1.377 . S
C639 C637 1.389 . S
C639 C640 1.524 . S
C640 C639 1.524 . S
C640 C641 1.397 . S
C640 C645 1.363 . S
C641 H612 0.950 . S
C641 C640 1.397 . S
C641 C642 1.334 . S
C642 H613 0.950 . S
C642 C641 1.334 . S
C642 C643 1.287 . S
C643 C642 1.287 . S
C643 C644 1.524 . S
C643 H646 0.999 . S
C644 H614 0.950 . S
C644 C643 1.524 . S
C644 C645 1.415 . S
C645 H615 0.950 . S
C645 C640 1.363 . S
C645 C644 1.415 . S
H646 C643 0.999 . S
H647 C628 0.913 . S
H648 C666 0.951 . S
H649 C668 0.951 . S
H650 C670 0.950 . S
H651 C671 0.950 . S
H652 C673 0.950 . S
H653 C676 0.950 . S
H654 C677 0.950 . S
H655 C679 0.950 . S
H656 C680 0.950 . S
H657 C681 0.951 . S
H658 C683 0.951 . S
H659 C685 0.950 . S
H660 C686 0.950 . S
H661 C688 0.950 . S
H662 C691 0.950 . S
H663 C692 0.950 . S
H664 C694 0.950 . S
H665 C695 0.950 . S
C666 H648 0.951 . S
C666 C667 1.366 . S
C666 C668 1.388 . S
C667 C666 1.366 . S
C667 C671 1.385 . S
C668 H649 0.951 . S
C668 C666 1.388 . S
C668 C669 1.366 . S
C669 C668 1.366 . S
C669 C670 1.414 . S
C669 C672 1.499 . S
C670 H650 0.950 . S
C670 C669 1.414 . S
C670 C671 1.374 . S
C671 H651 0.950 . S
C671 C667 1.385 . S
C671 C670 1.374 . S
C672 C669 1.499 . S
C672 C673 1.373 . S
C672 C674 1.389 . S
C673 H652 0.950 . S
C673 C672 1.373 . S
C673 C689 1.377 . S
C674 C672 1.389 . S
C674 C675 1.524 . S
C674 C688 1.377 . S
C675 C674 1.524 . S
C675 C676 1.397 . S
C675 C680 1.363 . S
C676 H653 0.950 . S
C676 C675 1.397 . S
C676 C677 1.334 . S
C677 H654 0.950 . S
C677 C676 1.334 . S
C677 C678 1.287 . S
C678 C677 1.287 . S
C678 C679 1.524 . S
C678 H697 0.913 . S
C679 H655 0.950 . S
C679 C678 1.524 . S
C679 C680 1.415 . S
C680 H656 0.950 . S
C680 C675 1.363 . S
C680 C679 1.415 . S
C681 H657 0.951 . S
C681 C682 1.366 . S
C681 C683 1.388 . S
C682 C681 1.366 . S
C682 C686 1.385 . S
C683 H658 0.951 . S
C683 C681 1.388 . S
C683 C684 1.366 . S
C684 C683 1.366 . S
C684 C685 1.414 . S
C684 C687 1.499 . S
C685 H659 0.950 . S
C685 C684 1.414 . S
C685 C686 1.374 . S
C686 H660 0.950 . S
C686 C682 1.385 . S
C686 C685 1.374 . S
C687 C684 1.499 . S
C687 C688 1.373 . S
C687 C689 1.389 . S
C688 H661 0.950 . S
C688 C674 1.377 . S
C688 C687 1.373 . S
C689 C673 1.377 . S
C689 C687 1.389 . S
C689 C690 1.524 . S
C690 C689 1.524 . S
C690 C691 1.397 . S
C690 C695 1.363 . S
C691 H662 0.950 . S
C691 C690 1.397 . S
C691 C692 1.334 . S
C692 H663 0.950 . S
C692 C691 1.334 . S
C692 C693 1.287 . S
C693 C692 1.287 . S
C693 C694 1.524 . S
C693 H696 0.999 . S
C694 H664 0.950 . S
C694 C693 1.524 . S
C694 C695 1.415 . S
C695 H665 0.950 . S
C695 C690 1.363 . S
C695 C694 1.415 . S
H696 C693 0.999 . S
H697 C678 0.913 . S
H698 C716 0.951 . S
H699 C718 0.951 . S
H700 C720 0.950 . S
H701 C721 0.950 . S
H702 C723 0.950 . S
H703 C726 0.950 . S
H704 C727 0.950 . S
H705 C729 0.950 . S
H706 C730 0.950 . S
H707 C731 0.951 . S
H708 C733 0.951 . S
H709 C735 0.950 . S
H710 C736 0.950 . S
H711 C738 0.950 . S
H712 C741 0.950 . S
H713 C742 0.950 . S
H714 C744 0.950 . S
H715 C745 0.950 . S
C716 H698 0.951 . S
C716 C717 1.366 . S
C716 C718 1.388 . S
C717 C716 1.366 . S
C717 C721 1.385 . S
C718 H699 0.951 . S
C718 C716 1.388 . S
C718 C719 1.366 . S
C719 C718 1.366 . S
C719 C720 1.414 . S
C719 C722 1.499 . S
C720 H700 0.950 . S
C720 C719 1.414 . S
C720 C721 1.374 . S
C721 H701 0.950 . S
C721 C717 1.385 . S
C721 C720 1.374 . S
C722 C719 1.499 . S
C722 C723 1.373 . S
C722 C724 1.389 . S
C723 H702 0.950 . S
C723 C722 1.373 . S
C723 C739 1.377 . S
C724 C722 1.389 . S
C724 C725 1.524 . S
C724 C738 1.377 . S
C725 C724 1.524 . S
C725 C726 1.397 . S
C725 C730 1.363 . S
C726 H703 0.950 . S
C726 C725 1.397 . S
C726 C727 1.334 . S
C727 H704 0.950 . S
C727 C726 1.334 . S
C727 C728 1.287 . S
C728 C727 1.287 . S
C728 C729 1.524 . S
C728 H747 0.913 . S
C729 H705 0.950 . S
C729 C728 1.524 . S
C729 C730 1.415 . S
C730 H706 0.950 . S
C730 C725 1.363 . S
C730 C729 1.415 . S
C731 H707 0.951 . S
C731 C732 1.366 . S
C731 C733 1.388 . S
C732 C731 1.366 . S
C732 C736 1.385 . S
C733 H708 0.951 . S
C733 C731 1.388 . S
C733 C734 1.366 . S
C734 C733 1.366 . S
C734 C735 1.414 . S
C734 C737 1.499 . S
C735 H709 0.950 . S
C735 C734 1.414 . S
C735 C736 1.374 . S
C736 H710 0.950 . S
C736 C732 1.385 . S
C736 C735 1.374 . S
C737 C734 1.499 . S
C737 C738 1.373 . S
C737 C739 1.389 . S
C738 H711 0.950 . S
C738 C724 1.377 . S
C738 C737 1.373 . S
C739 C723 1.377 . S
C739 C737 1.389 . S
C739 C740 1.524 . S
C740 C739 1.524 . S
C740 C741 1.397 . S
C740 C745 1.363 . S
C741 H712 0.950 . S
C741 C740 1.397 . S
C741 C742 1.334 . S
C742 H713 0.950 . S
C742 C741 1.334 . S
C742 C743 1.287 . S
C743 C742 1.287 . S
C743 C744 1.524 . S
C743 H746 0.999 . S
C744 H714 0.950 . S
C744 C743 1.524 . S
C744 C745 1.415 . S
C745 H715 0.950 . S
C745 C740 1.363 . S
C745 C744 1.415 . S
H746 C743 0.999 . S
H747 C728 0.913 . S
H748 C766 0.951 . S
H749 C768 0.951 . S
H750 C770 0.950 . S
H751 C771 0.950 . S
H752 C773 0.950 . S
H753 C776 0.950 . S
H754 C777 0.950 . S
H755 C779 0.950 . S
H756 C780 0.950 . S
H757 C781 0.951 . S
H758 C783 0.951 . S
H759 C785 0.950 . S
H760 C786 0.950 . S
H761 C788 0.950 . S
H762 C791 0.950 . S
H763 C792 0.950 . S
H764 C794 0.950 . S
H765 C795 0.950 . S
C766 H748 0.951 . S
C766 C767 1.366 . S
C766 C768 1.388 . S
C767 C766 1.366 . S
C767 C771 1.385 . S
C768 H749 0.951 . S
C768 C766 1.388 . S
C768 C769 1.366 . S
C769 C768 1.366 . S
C769 C770 1.414 . S
C769 C772 1.499 . S
C770 H750 0.950 . S
C770 C769 1.414 . S
C770 C771 1.374 . S
C771 H751 0.950 . S
C771 C767 1.385 . S
C771 C770 1.374 . S
C772 C769 1.499 . S
C772 C773 1.373 . S
C772 C774 1.389 . S
C773 H752 0.950 . S
C773 C772 1.373 . S
C773 C789 1.377 . S
C774 C772 1.389 . S
C774 C775 1.524 . S
C774 C788 1.377 . S
C775 C774 1.524 . S
C775 C776 1.397 . S
C775 C780 1.363 . S
C776 H753 0.950 . S
C776 C775 1.397 . S
C776 C777 1.334 . S
C777 H754 0.950 . S
C777 C776 1.334 . S
C777 C778 1.287 . S
C778 C777 1.287 . S
C778 C779 1.524 . S
C778 H797 0.913 . S
C779 H755 0.950 . S
C779 C778 1.524 . S
C779 C780 1.415 . S
C780 H756 0.950 . S
C780 C775 1.363 . S
C780 C779 1.415 . S
C781 H757 0.951 . S
C781 C782 1.366 . S
C781 C783 1.388 . S
C782 C781 1.366 . S
C782 C786 1.385 . S
C783 H758 0.951 . S
C783 C781 1.388 . S
C783 C784 1.366 . S
C784 C783 1.366 . S
C784 C785 1.414 . S
C784 C787 1.499 . S
C785 H759 0.950 . S
C785 C784 1.414 . S
C785 C786 1.374 . S
C786 H760 0.950 . S
C786 C782 1.385 . S
C786 C785 1.374 . S
C787 C784 1.499 . S
C787 C788 1.373 . S
C787 C789 1.389 . S
C788 H761 0.950 . S
C788 C774 1.377 . S
C788 C787 1.373 . S
C789 C773 1.377 . S
C789 C787 1.389 . S
C789 C790 1.524 . S
C790 C789 1.524 . S
C790 C791 1.397 . S
C790 C795 1.363 . S
C791 H762 0.950 . S
C791 C790 1.397 . S
C791 C792 1.334 . S
C792 H763 0.950 . S
C792 C791 1.334 . S
C792 C793 1.287 . S
C793 C792 1.287 . S
C793 C794 1.524 . S
C793 H796 0.999 . S
C794 H764 0.950 . S
C794 C793 1.524 . S
C794 C795 1.415 . S
C795 H765 0.950 . S
C795 C790 1.363 . S
C795 C794 1.415 . S
H796 C793 0.999 . S
H797 C778 0.913 . S
H798 C816 0.951 . S
H799 C818 0.951 . S
H800 C820 0.950 . S
H801 C821 0.950 . S
H802 C823 0.950 . S
H803 C826 0.950 . S
H804 C827 0.950 . S
H805 C829 0.950 1_455 S
H806 C830 0.950 . S
H807 C831 0.951 . S
H808 C833 0.951 . S
H809 C835 0.950 . S
H810 C836 0.950 . S
H811 C838 0.950 . S
H812 C841 0.950 . S
H813 C842 0.950 . S
H814 C844 0.950 . S
H815 C845 0.950 . S
C816 H798 0.951 . S
C816 C817 1.366 . S
C816 C818 1.388 . S
C817 C816 1.366 . S
C817 C821 1.385 1_455 S
C818 H799 0.951 . S
C818 C816 1.388 . S
C818 C819 1.366 . S
C819 C818 1.366 . S
C819 C820 1.414 1_455 S
C819 C822 1.499 . S
C820 H800 0.950 . S
C820 C819 1.414 1_655 S
C820 C821 1.374 . S
C821 H801 0.950 . S
C821 C817 1.385 1_655 S
C821 C820 1.374 . S
C822 C819 1.499 . S
C822 C823 1.373 . S
C822 C824 1.389 . S
C823 H802 0.950 . S
C823 C822 1.373 . S
C823 C839 1.377 1_554 S
C824 C822 1.389 . S
C824 C825 1.524 1_455 S
C824 C838 1.377 1_554 S
C825 C824 1.524 1_655 S
C825 C826 1.397 . S
C825 C830 1.363 1_655 S
C826 H803 0.950 . S
C826 C825 1.397 . S
C826 C827 1.334 . S
C827 H804 0.950 . S
C827 C826 1.334 . S
C827 C828 1.287 . S
C828 C827 1.287 . S
C828 C829 1.524 . S
C828 H847 0.913 . S
C829 H805 0.950 1_655 S
C829 C828 1.524 . S
C829 C830 1.415 1_655 S
C830 H806 0.950 . S
C830 C825 1.363 1_455 S
C830 C829 1.415 1_455 S
C831 H807 0.951 . S
C831 C832 1.366 . S
C831 C833 1.388 . S
C832 C831 1.366 . S
C832 C836 1.385 . S
C833 H808 0.951 . S
C833 C831 1.388 . S
C833 C834 1.366 . S
C834 C833 1.366 . S
C834 C835 1.414 . S
C834 C837 1.499 . S
C835 H809 0.950 . S
C835 C834 1.414 . S
C835 C836 1.374 . S
C836 H810 0.950 . S
C836 C832 1.385 . S
C836 C835 1.374 . S
C837 C834 1.499 . S
C837 C838 1.373 . S
C837 C839 1.389 . S
C838 H811 0.950 . S
C838 C824 1.377 1_556 S
C838 C837 1.373 . S
C839 C823 1.377 1_556 S
C839 C837 1.389 . S
C839 C840 1.524 . S
C840 C839 1.524 . S
C840 C841 1.397 . S
C840 C845 1.363 . S
C841 H812 0.950 . S
C841 C840 1.397 . S
C841 C842 1.334 . S
C842 H813 0.950 . S
C842 C841 1.334 . S
C842 C843 1.287 . S
C843 C842 1.287 . S
C843 C844 1.524 . S
C843 H846 0.999 . S
C844 H814 0.950 . S
C844 C843 1.524 . S
C844 C845 1.415 . S
C845 H815 0.950 . S
C845 C840 1.363 . S
C845 C844 1.415 . S
H846 C843 0.999 . S
H847 C828 0.913 . S
H848 C866 0.951 . S
H849 C868 0.948 . S
H850 C870 0.950 . S
H851 C871 0.950 . S
H852 C873 0.950 . S
H853 C876 0.950 . S
H854 C877 0.950 . S
H855 C879 0.950 . S
H856 C880 0.950 . S
H857 C881 0.951 . S
H858 C883 0.951 . S
H859 C885 0.950 1_565 S
H860 C886 0.950 . S
H861 C888 0.950 . S
H862 C891 0.950 . S
H863 C892 0.950 . S
H864 C894 0.950 . S
H865 C895 0.950 . S
C866 H848 0.951 . S
C866 C867 1.366 . S
C866 C868 1.388 . S
C867 C866 1.366 . S
C867 C871 1.385 . S
C868 H849 0.948 . S
C868 C866 1.388 . S
C868 C869 1.366 . S
C869 C868 1.366 . S
C869 C870 1.414 . S
C869 C872 1.499 . S
C870 H850 0.950 . S
C870 C869 1.414 . S
C870 C871 1.374 . S
C871 H851 0.950 . S
C871 C867 1.385 . S
C871 C870 1.374 . S
C872 C869 1.499 . S
C872 C873 1.373 . S
C872 C874 1.389 1_545 S
C873 H852 0.950 . S
C873 C872 1.373 . S
C873 C889 1.377 . S
C874 C872 1.389 1_565 S
C874 C875 1.524 . S
C874 C888 1.377 . S
C875 C874 1.524 . S
C875 C876 1.397 . S
C875 C880 1.363 . S
C876 H853 0.950 . S
C876 C875 1.397 . S
C876 C877 1.334 . S
C877 H854 0.950 . S
C877 C876 1.334 . S
C877 C878 1.287 . S
C878 C877 1.287 . S
C878 C879 1.524 . S
C878 H897 0.913 . S
C879 H855 0.950 . S
C879 C878 1.524 . S
C879 C880 1.415 . S
C880 H856 0.950 . S
C880 C875 1.363 . S
C880 C879 1.415 . S
C881 H857 0.951 . S
C881 C882 1.366 . S
C881 C883 1.388 . S
C882 C881 1.366 . S
C882 C886 1.385 1_545 S
C883 H858 0.951 . S
C883 C881 1.388 . S
C883 C884 1.366 . S
C884 C883 1.366 . S
C884 C885 1.414 . S
C884 C887 1.499 . S
C885 H859 0.950 1_545 S
C885 C884 1.414 . S
C885 C886 1.374 1_545 S
C886 H860 0.950 . S
C886 C882 1.385 1_565 S
C886 C885 1.374 1_565 S
C887 C884 1.499 . S
C887 C888 1.373 1_545 S
C887 C889 1.389 . S
C888 H861 0.950 . S
C888 C874 1.377 . S
C888 C887 1.373 1_565 S
C889 C873 1.377 . S
C889 C887 1.389 . S
C889 C890 1.524 . S
C890 C889 1.524 . S
C890 C891 1.397 . S
C890 C895 1.363 . S
C891 H862 0.950 . S
C891 C890 1.397 . S
C891 C892 1.334 . S
C892 H863 0.950 . S
C892 C891 1.334 . S
C892 C893 1.287 . S
C893 C892 1.287 . S
C893 C894 1.524 . S
C893 H896 0.999 . S
C894 H864 0.950 . S
C894 C893 1.524 . S
C894 C895 1.415 . S
C895 H865 0.950 . S
C895 C890 1.363 . S
C895 C894 1.415 . S
H896 C893 0.999 . S
H897 C878 0.913 . S
H898 C916 0.951 . S
H899 C918 0.951 . S
H900 C920 0.950 . S
H901 C921 0.950 . S
H902 C923 0.950 . S
H903 C926 0.950 . S
H904 C927 0.950 . S
H905 C929 0.950 . S
H906 C930 0.950 . S
H907 C931 0.951 . S
H908 C933 0.951 . S
H909 C935 0.950 . S
H910 C936 0.950 . S
H911 C938 0.950 . S
H912 C941 0.950 . S
H913 C942 0.950 . S
H914 C944 0.950 . S
H915 C945 0.950 . S
C916 H898 0.951 . S
C916 C917 1.366 . S
C916 C918 1.388 . S
C917 C916 1.366 . S
C917 C921 1.385 . S
C918 H899 0.951 . S
C918 C916 1.388 . S
C918 C919 1.366 . S
C919 C918 1.366 . S
C919 C920 1.414 . S
C919 C922 1.499 . S
C920 H900 0.950 . S
C920 C919 1.414 . S
C920 C921 1.374 . S
C921 H901 0.950 . S
C921 C917 1.385 . S
C921 C920 1.374 . S
C922 C919 1.499 . S
C922 C923 1.373 . S
C922 C924 1.389 . S
C923 H902 0.950 . S
C923 C922 1.373 . S
C923 C939 1.377 . S
C924 C922 1.389 . S
C924 C925 1.524 . S
C924 C938 1.377 . S
C925 C924 1.524 . S
C925 C926 1.397 . S
C925 C930 1.363 . S
C926 H903 0.950 . S
C926 C925 1.397 . S
C926 C927 1.334 . S
C927 H904 0.950 . S
C927 C926 1.334 . S
C927 C928 1.287 . S
C928 C927 1.287 . S
C928 C929 1.524 . S
C928 H947 0.913 . S
C929 H905 0.950 . S
C929 C928 1.524 . S
C929 C930 1.415 . S
C930 H906 0.950 . S
C930 C925 1.363 . S
C930 C929 1.415 . S
C931 H907 0.951 . S
C931 C932 1.366 . S
C931 C933 1.388 . S
C932 C931 1.366 . S
C932 C936 1.385 . S
C933 H908 0.951 . S
C933 C931 1.388 . S
C933 C934 1.366 . S
C934 C933 1.366 . S
C934 C935 1.414 . S
C934 C937 1.499 . S
C935 H909 0.950 . S
C935 C934 1.414 . S
C935 C936 1.374 . S
C936 H910 0.950 . S
C936 C932 1.385 . S
C936 C935 1.374 . S
C937 C934 1.499 . S
C937 C938 1.373 . S
C937 C939 1.389 . S
C938 H911 0.950 . S
C938 C924 1.377 . S
C938 C937 1.373 . S
C939 C923 1.377 . S
C939 C937 1.389 . S
C939 C940 1.524 . S
C940 C939 1.524 . S
C940 C941 1.397 . S
C940 C945 1.363 . S
C941 H912 0.950 . S
C941 C940 1.397 . S
C941 C942 1.334 . S
C942 H913 0.950 . S
C942 C941 1.334 . S
C942 C943 1.287 . S
C943 C942 1.287 . S
C943 C944 1.524 . S
C943 H946 0.999 . S
C944 H914 0.950 . S
C944 C943 1.524 . S
C944 C945 1.415 . S
C945 H915 0.950 . S
C945 C940 1.363 . S
C945 C944 1.415 . S
H946 C943 0.999 . S
H947 C928 0.913 . S
H948 C966 0.951 . S
H949 C968 0.951 . S
H950 C970 0.950 1_565 S
H951 C971 0.950 1_565 S
H952 C973 0.950 1_565 S
H953 C976 0.950 . S
H954 C977 0.950 . S
H955 C979 0.950 . S
H956 C980 0.950 . S
H957 C981 0.951 . S
H958 C983 0.951 . S
H959 C985 0.950 . S
H960 C986 0.950 . S
H961 C988 0.950 . S
H962 C991 0.950 . S
H963 C992 0.950 . S
H964 C994 0.950 . S
H965 C995 0.950 . S
C966 H948 0.951 . S
C966 C967 1.366 . S
C966 C968 1.388 . S
C967 C966 1.366 . S
C967 C971 1.385 . S
C968 H949 0.951 . S
C968 C966 1.388 . S
C968 C969 1.366 . S
C969 C968 1.366 . S
C969 C970 1.414 . S
C969 C972 1.499 . S
C970 H950 0.950 1_545 S
C970 C969 1.414 . S
C970 C971 1.374 . S
C971 H951 0.950 1_545 S
C971 C967 1.385 . S
C971 C970 1.374 . S
C972 C969 1.499 . S
C972 C973 1.373 . S
C972 C974 1.389 . S
C973 H952 0.950 1_545 S
C973 C972 1.373 . S
C973 C989 1.377 . S
C974 C972 1.389 . S
C974 C975 1.524 . S
C974 C988 1.377 . S
C975 C974 1.524 . S
C975 C976 1.397 . S
C975 C980 1.363 . S
C976 H953 0.950 . S
C976 C975 1.397 . S
C976 C977 1.334 . S
C977 H954 0.950 . S
C977 C976 1.334 . S
C977 C978 1.287 . S
C978 C977 1.287 . S
C978 C979 1.524 . S
C978 H997 0.913 . S
C979 H955 0.950 . S
C979 C978 1.524 . S
C979 C980 1.415 . S
C980 H956 0.950 . S
C980 C975 1.363 . S
C980 C979 1.415 . S
C981 H957 0.951 . S
C981 C982 1.366 . S
C981 C983 1.388 . S
C982 C981 1.366 . S
C982 C986 1.385 . S
C983 H958 0.951 . S
C983 C981 1.388 . S
C983 C984 1.366 . S
C984 C983 1.366 . S
C984 C985 1.414 . S
C984 C987 1.499 . S
C985 H959 0.950 . S
C985 C984 1.414 . S
C985 C986 1.374 . S
C986 H960 0.950 . S
C986 C982 1.385 . S
C986 C985 1.374 . S
C987 C984 1.499 . S
C987 C988 1.373 . S
C987 C989 1.389 . S
C988 H961 0.950 . S
C988 C974 1.377 . S
C988 C987 1.373 . S
C989 C973 1.377 . S
C989 C987 1.389 . S
C989 C990 1.524 1_545 S
C990 C989 1.524 1_565 S
C990 C991 1.397 . S
C990 C995 1.363 . S
C991 H962 0.950 . S
C991 C990 1.397 . S
C991 C992 1.334 . S
C992 H963 0.950 . S
C992 C991 1.334 . S
C992 C993 1.287 . S
C993 C992 1.287 . S
C993 C994 1.524 . S
C993 H996 0.999 . S
C994 H964 0.950 . S
C994 C993 1.524 . S
C994 C995 1.415 . S
C995 H965 0.950 . S
C995 C990 1.363 . S
C995 C994 1.415 . S
H996 C993 0.999 . S
H997 C978 0.913 . S
H998 C1016 0.951 . S
H999 C1018 0.951 . S
H1000 C1020 0.950 . S
H1001 C1021 0.950 . S
H1002 C1023 0.950 . S
H1003 C1026 0.950 . S
H1004 C1027 0.950 . S
H1005 C1029 0.950 . S
H1006 C1030 0.950 . S
H1007 C1031 0.951 . S
H1008 C1033 0.951 . S
H1009 C1035 0.950 . S
H1010 C1036 0.950 . S
H1011 C1038 0.950 . S
H1012 C1041 0.950 . S
H1013 C1042 0.950 . S
H1014 C1044 0.963 . S
H1015 C1045 0.950 . S
C1016 H998 0.951 . S
C1016 C1017 1.366 . S
C1016 C1018 1.388 . S
C1017 C1016 1.366 . S
C1017 C1021 1.385 . S
C1018 H999 0.951 . S
C1018 C1016 1.388 . S
C1018 C1019 1.366 . S
C1019 C1018 1.366 . S
C1019 C1020 1.414 . S
C1019 C1022 1.499 . S
C1020 H1000 0.950 . S
C1020 C1019 1.414 . S
C1020 C1021 1.374 . S
C1021 H1001 0.950 . S
C1021 C1017 1.385 . S
C1021 C1020 1.374 . S
C1022 C1019 1.499 . S
C1022 C1023 1.373 . S
C1022 C1024 1.389 . S
C1023 H1002 0.950 . S
C1023 C1022 1.373 . S
C1023 C1039 1.377 . S
C1024 C1022 1.389 . S
C1024 C1025 1.524 . S
C1024 C1038 1.377 1_556 S
C1025 C1024 1.524 . S
C1025 C1026 1.397 . S
C1025 C1030 1.363 . S
C1026 H1003 0.950 . S
C1026 C1025 1.397 . S
C1026 C1027 1.334 . S
C1027 H1004 0.950 . S
C1027 C1026 1.334 . S
C1027 C1028 1.287 . S
C1028 C1027 1.287 . S
C1028 C1029 1.524 . S
C1028 H1047 0.913 . S
C1029 H1005 0.950 . S
C1029 C1028 1.524 . S
C1029 C1030 1.415 . S
C1030 H1006 0.950 . S
C1030 C1025 1.363 . S
C1030 C1029 1.415 . S
C1031 H1007 0.951 . S
C1031 C1032 1.366 . S
C1031 C1033 1.388 . S
C1032 C1031 1.366 . S
C1032 C1036 1.385 . S
C1033 H1008 0.951 . S
C1033 C1031 1.388 . S
C1033 C1034 1.366 . S
C1034 C1033 1.366 . S
C1034 C1035 1.414 . S
C1034 C1037 1.499 . S
C1035 H1009 0.950 . S
C1035 C1034 1.414 . S
C1035 C1036 1.374 . S
C1036 H1010 0.950 . S
C1036 C1032 1.385 . S
C1036 C1035 1.374 . S
C1037 C1034 1.499 . S
C1037 C1038 1.373 . S
C1037 C1039 1.389 1_554 S
C1038 H1011 0.950 . S
C1038 C1024 1.377 1_554 S
C1038 C1037 1.373 . S
C1039 C1023 1.377 . S
C1039 C1037 1.389 1_556 S
C1039 C1040 1.524 1_556 S
C1040 C1039 1.524 1_554 S
C1040 C1041 1.397 . S
C1040 C1045 1.363 1_554 S
C1041 H1012 0.950 . S
C1041 C1040 1.397 . S
C1041 C1042 1.334 . S
C1042 H1013 0.950 . S
C1042 C1041 1.334 . S
C1042 C1043 1.287 . S
C1043 C1042 1.287 . S
C1043 C1044 1.524 . S
C1043 H1046 0.999 . S
C1044 H1014 0.963 . S
C1044 C1043 1.524 . S
C1044 C1045 1.415 1_554 S
C1045 H1015 0.950 . S
C1045 C1040 1.363 1_556 S
C1045 C1044 1.415 1_556 S
H1046 C1043 0.999 . S
H1047 C1028 0.913 . S
H1048 C1066 0.951 . S
H1049 C1068 0.951 . S
H1050 C1070 0.950 . S
H1051 C1071 0.950 . S
H1052 C1073 0.954 1_655 S
H1053 C1076 0.950 . S
H1054 C1077 0.950 . S
H1055 C1079 0.950 . S
H1056 C1080 0.950 . S
H1057 C1081 0.951 . S
H1058 C1083 0.951 . S
H1059 C1085 0.950 1_655 S
H1060 C1086 0.950 1_655 S
H1061 C1088 0.950 . S
H1062 C1091 0.950 . S
H1063 C1092 0.950 . S
H1064 C1094 0.950 . S
H1065 C1095 0.950 1_455 S
C1066 H1048 0.951 . S
C1066 C1067 1.366 . S
C1066 C1068 1.388 . S
C1067 C1066 1.366 . S
C1067 C1071 1.385 1_655 S
C1068 H1049 0.951 . S
C1068 C1066 1.388 . S
C1068 C1069 1.366 1_655 S
C1069 C1068 1.366 1_455 S
C1069 C1070 1.414 . S
C1069 C1072 1.499 . S
C1070 H1050 0.950 . S
C1070 C1069 1.414 . S
C1070 C1071 1.374 . S
C1071 H1051 0.950 . S
C1071 C1067 1.385 1_455 S
C1071 C1070 1.374 . S
C1072 C1069 1.499 . S
C1072 C1073 1.370 . S
C1072 C1074 1.389 . S
C1073 H1052 0.954 1_455 S
C1073 C1072 1.370 . S
C1073 C1089 1.376 . S
C1074 C1072 1.389 . S
C1074 C1075 1.524 . S
C1074 C1088 1.377 . S
C1075 C1074 1.524 . S
C1075 C1076 1.397 . S
C1075 C1080 1.363 . S
C1076 H1053 0.950 . S
C1076 C1075 1.397 . S
C1076 C1077 1.334 . S
C1077 H1054 0.950 . S
C1077 C1076 1.334 . S
C1077 C1078 1.287 . S
C1078 C1077 1.287 . S
C1078 C1079 1.524 . S
C1078 H1097 0.913 . S
C1079 H1055 0.950 . S
C1079 C1078 1.524 . S
C1079 C1080 1.415 . S
C1080 H1056 0.950 . S
C1080 C1075 1.363 . S
C1080 C1079 1.415 . S
C1081 H1057 0.951 . S
C1081 C1082 1.366 . S
C1081 C1083 1.388 . S
C1082 C1081 1.366 . S
C1082 C1086 1.385 . S
C1083 H1058 0.951 . S
C1083 C1081 1.388 . S
C1083 C1084 1.366 . S
C1084 C1083 1.366 . S
C1084 C1085 1.414 . S
C1084 C1087 1.499 . S
C1085 H1059 0.950 1_455 S
C1085 C1084 1.414 . S
C1085 C1086 1.374 . S
C1086 H1060 0.950 1_455 S
C1086 C1082 1.385 . S
C1086 C1085 1.374 . S
C1087 C1084 1.499 . S
C1087 C1088 1.373 . S
C1087 C1089 1.389 . S
C1088 H1061 0.950 . S
C1088 C1074 1.377 . S
C1088 C1087 1.373 . S
C1089 C1073 1.376 . S
C1089 C1087 1.389 . S
C1089 C1090 1.524 1_455 S
C1090 C1089 1.524 1_655 S
C1090 C1091 1.397 . S
C1090 C1095 1.363 . S
C1091 H1062 0.950 . S
C1091 C1090 1.397 . S
C1091 C1092 1.334 . S
C1092 H1063 0.950 . S
C1092 C1091 1.334 . S
C1092 C1093 1.287 . S
C1093 C1092 1.287 . S
C1093 C1094 1.524 . S
C1093 H1096 0.999 . S
C1094 H1064 0.950 . S
C1094 C1093 1.524 . S
C1094 C1095 1.415 . S
C1095 H1065 0.950 1_655 S
C1095 C1090 1.363 . S
C1095 C1094 1.415 . S
H1096 C1093 0.999 . S
H1097 C1078 0.913 . S
C217 C6 0.261 . S
C232 N187 0.271 . S
C267 C59 1.760 . S
C282 N160 1.760 1_655 S
C317 C86 1.074 . S
C332 N173 1.072 . S
C367 C15 0.631 . S
C382 N186 0.610 . S
C432 N161 1.978 . S
C417 C50 1.967 . S
C482 N174 1.314 . S
C467 C95 1.304 . S
C517 C46 1.030 . S
C532 N134 1.029 . S
C567 C99 2.725 . S
C582 N148 2.685 1_655 S
C617 C10 1.980 . S
C632 N122 1.995 . S
C682 N135 1.359 . S
C667 C55 1.341 . S
C732 N147 3.309 . S
C717 C90 3.265 . S
C767 C19 1.756 . S
C782 N121 1.765 . S
C832 N151 1.726 . S
C817 C18 1.705 . S
C867 C49 1.472 . S
C882 N125 1.488 . S
C917 C98 1.502 . S
C932 N138 1.580 . S
C982 N177 1.546 . S
C967 C58 1.478 . S
C1032 N190 1.290 . S
C1017 C89 1.291 . S
C1067 C9 1.447 1_655 S
C1082 N164 1.473 . S
