# Generated by pormake.
# Topology pts, (4,4)-cn, num edge types: 1
# Building blocks:
#     Node 0, Type 0, BuildingBlock: NAHDIM_clean_linker_0, # of connection points: 4
#     Node 1, Type 0, BuildingBlock: NAHDIM_clean_linker_0, # of connection points: 4
#     Node 2, Type 1, BuildingBlock: UXUYUI_clean_sbu_0, # of connection points: 4
#     Node 3, Type 1, BuildingBlock: UXUYUI_clean_sbu_0, # of connection points: 4
#     Edge 4, Type (0, 1), BuildingBlock: UVAHIK_clean_linker_0, # of connection points: 2
#     Edge 5, Type (0, 1), BuildingBlock: UVAHIK_clean_linker_0, # of connection points: 2
#     Edge 6, Type (0, 1), BuildingBlock: UVAHIK_clean_linker_0, # of connection points: 2
#     Edge 7, Type (0, 1), BuildingBlock: UVAHIK_clean_linker_0, # of connection points: 2
#     Edge 8, Type (0, 1), BuildingBlock: UVAHIK_clean_linker_0, # of connection points: 2
#     Edge 9, Type (0, 1), BuildingBlock: UVAHIK_clean_linker_0, # of connection points: 2
#     Edge 10, Type (0, 1), BuildingBlock: UVAHIK_clean_linker_0, # of connection points: 2
#     Edge 11, Type (0, 1), BuildingBlock: UVAHIK_clean_linker_0, # of connection points: 2
# Relax obj value: 0.021
# Max RMSD: 0.066
# Mean RMSD: 0.065
data_MOF--net-pts--node1-UXUYUI_clean_sbu_0--node2-NAHDIM_clean_linker_0--edge1-UVAHIK_clean_linker_0
_symmetry_space_group_name_H-M    P1
_symmetry_Int_Tables_number       1
_symmetry_cell_setting            triclinic
loop_
_symmetry_equiv_pos_as_xyz
'x, y, z'
_cell_length_a     44.843267
_cell_length_b     44.883032
_cell_length_c     73.025817
_cell_angle_alpha  90.430692
_cell_angle_beta   89.620436
_cell_angle_gamma 89.989382
loop_
_atom_site_label
_atom_site_type_symbol
_atom_site_fract_x
_atom_site_fract_y
_atom_site_fract_z
_atom_type_partial_charge
C0 C 0.72019 0.07946 0.07388 0.0
C1 C 0.71086 0.05433 0.08689 0.0
C2 C 0.67942 0.02102 0.06821 0.0
C3 C 0.67728 0.99231 0.06082 0.0
C4 C 0.65206 0.98329 0.05097 0.0
C5 C 0.62877 0.00391 0.04797 0.0
C6 C 0.63057 0.03295 0.0556 0.0
C7 C 0.65565 0.04105 0.06588 0.0
C8 C 0.65053 0.95186 0.04354 0.0
C9 C 0.60622 0.05564 0.05264 0.0
C10 C 0.39389 0.00909 0.08528 0.0
C11 C 0.41706 0.00923 0.07056 0.0
C12 C 0.46567 0.98756 0.06323 0.0
C13 C 0.47473 0.01096 0.05176 0.0
C14 C 0.50239 0.01024 0.04278 0.0
C15 C 0.52086 0.98479 0.04442 0.0
C16 C 0.51162 0.96088 0.05564 0.0
C17 C 0.4843 0.96281 0.06512 0.0
C18 C 0.51183 0.03703 0.03172 0.0
C19 C 0.53055 0.93333 0.05761 0.0
C20 C 0.47354 0.97567 0.92839 0.0
C21 C 0.48 0.0032 0.93664 0.0
C22 C 0.50729 0.00792 0.94546 0.0
C23 C 0.52842 0.98451 0.9461 0.0
C24 C 0.52257 0.95726 0.93694 0.0
C25 C 0.49522 0.95332 0.928 0.0
C26 C 0.51323 0.03768 0.95449 0.0
C27 C 0.54478 0.93203 0.93715 0.0
C28 C 0.76257 0.05416 0.94602 0.0
C29 C 0.74441 0.03308 0.9339 0.0
C30 C 0.6899 0.0344 0.93593 0.0
C31 C 0.66723 0.05434 0.94073 0.0
C32 C 0.63978 0.04414 0.94751 0.0
C33 C 0.63489 0.01314 0.94925 0.0
C34 C 0.65702 0.99278 0.94325 0.0
C35 C 0.68432 0.00362 0.93654 0.0
C36 C 0.61645 0.06647 0.95349 0.0
C37 C 0.65212 0.9596 0.94448 0.0
C38 C 0.60302 0.9956 0.03632 0.0
C39 C 0.57571 0.98974 0.04492 0.0
C40 C 0.55008 0.98397 0.03471 0.0
C41 C 0.55197 0.9823 0.01539 0.0
C42 C 0.52702 0.97481 0.00475 0.0
C43 C 0.52836 0.97587 0.98573 0.0
C44 C 0.55466 0.98462 0.97663 0.0
C45 C 0.55562 0.98795 0.95738 0.0
C46 C 0.58216 0.99656 0.94876 0.0
C47 C 0.60788 0.00225 0.95893 0.0
C48 C 0.60726 -0.0007 0.97821 0.0
C49 C 0.6326 0.00542 0.98886 0.0
C50 C 0.6314 0.00386 0.00786 0.0
C51 C 0.60485 0.996 0.01697 0.0
C52 C 0.57923 0.98921 0.00649 0.0
C53 C 0.58048 0.9907 0.98708 0.0
C54 C 0.40945 0.94764 0.93943 0.0
C55 C 0.41938 0.97553 0.92912 0.0
O56 O 0.70491 0.0284 0.07716 0.0
O57 O 0.7167 0.0457 0.93076 0.0
O58 O 0.44667 0.97015 0.92067 0.0
O59 O 0.43951 0.98832 0.07281 0.0
H60 H 0.6906 0.06149 0.09463 0.0
H61 H 0.70164 0.08547 0.06465 0.0
H62 H 0.73949 0.07262 0.06521 0.0
H63 H 0.72633 0.09969 0.08186 0.0
H64 H 0.69558 0.97691 0.06281 0.0
H65 H 0.65659 0.06322 0.07172 0.0
H66 H 0.62841 0.94189 0.04661 0.0
H67 H 0.66818 0.93741 0.04934 0.0
H68 H 0.65332 0.9522 0.02843 0.0
H69 H 0.61253 0.07817 0.05768 0.0
H70 H 0.5857 0.04856 0.05999 0.0
H71 H 0.6008 0.05708 0.03785 0.0
H72 H 0.40837 0.00947 0.05627 0.0
H73 H 0.39853 0.05105 0.09772 0.0
H74 H 0.39676 0.9876 0.09297 0.0
H75 H 0.37279 0.00186 0.07826 0.0
H76 H 0.4606 0.03022 0.04994 0.0
H77 H 0.4772 0.94482 0.07396 0.0
H78 H 0.50852 0.03226 0.01695 0.0
H79 H 0.53578 0.0422 0.03384 0.0
H80 H 0.49854 0.05715 0.03534 0.0
H81 H 0.51841 0.91512 0.0647 0.0
H82 H 0.55076 0.93889 0.06564 0.0
H83 H 0.53804 0.92516 0.04394 0.0
H84 H 0.4212 0.99396 0.93934 0.0
H85 H 0.46373 0.02101 0.93619 0.0
H86 H 0.49017 0.93235 0.92125 0.0
H87 H 0.51261 0.0351 0.9696 0.0
H88 H 0.49648 0.05473 0.95065 0.0
H89 H 0.53578 0.04586 0.95068 0.0
H90 H 0.53678 0.91215 0.92947 0.0
H91 H 0.54931 0.92553 0.95151 0.0
H92 H 0.5662 0.9395 0.93101 0.0
H93 H 0.74233 0.01185 0.94158 0.0
H94 H 0.78495 0.04456 0.9487 0.0
H95 H 0.75093 0.05749 0.95936 0.0
H96 H 0.76532 0.07622 0.9394 0.0
H97 H 0.67156 0.07805 0.93981 0.0
H98 H 0.70123 0.98803 0.93191 0.0
H99 H 0.61284 0.06486 0.96851 0.0
H100 H 0.5949 0.06135 0.94676 0.0
H101 H 0.62295 0.08971 0.95018 0.0
H102 H 0.67069 0.94668 0.93816 0.0
H103 H 0.63097 0.95344 0.93759 0.0
H104 H 0.64997 0.95318 0.95908 0.0
H105 H 0.57409 0.99122 0.05973 0.0
H106 H 0.50608 0.96843 0.01106 0.0
H107 H 0.50832 0.97024 0.97828 0.0
H108 H 0.58263 -0.00046 0.93403 0.0
H109 H 0.6536 0.01186 0.98266 0.0
H110 H 0.65148 0.00933 0.0153 0.0
H111 H 0.40752 0.92831 0.9299 0.0
H112 H 0.38755 0.95152 0.94625 0.0
H113 H 0.42603 0.94213 0.95011 0.0
C114 C 0.12587 0.42151 0.61882 0.0
C115 C 0.10598 0.40391 0.60568 0.0
C116 C 0.10902 0.42298 0.57481 0.0
C117 C 0.07885 0.42484 0.57005 0.0
C118 C 0.06919 0.44583 0.55725 0.0
C119 C 0.09019 0.46535 0.54918 0.0
C120 C 0.12087 0.46242 0.55329 0.0
C121 C 0.12994 0.44085 0.5659 0.0
C122 C 0.03645 0.4478 0.5528 0.0
C123 C 0.14386 0.48293 0.545 0.0
C124 C 0.99657 0.62464 0.61817 0.0
C125 C 0.02245 0.6301 0.60487 0.0
C126 C 0.02431 0.60841 0.5743 0.0
C127 C 0.05527 0.6053 0.57225 0.0
C128 C 0.06727 0.58452 0.55978 0.0
C129 C 0.04783 0.56626 0.5494 0.0
C130 C 0.01657 0.5702 0.55101 0.0
C131 C 0.00526 0.59175 0.56321 0.0
C132 C 0.10069 0.58156 0.55806 0.0
C133 C 0.99505 0.55087 0.54043 0.0
C134 C 0.04247 0.62584 0.43613 0.0
C135 C 0.07254 0.61799 0.43835 0.0
C136 C 0.08034 0.5902 0.44555 0.0
C137 C 0.05763 0.56972 0.45025 0.0
C138 C 0.02748 0.57667 0.44663 0.0
C139 C 0.0203 0.60472 0.43954 0.0
C140 C 0.11278 0.58308 0.44871 0.0
C141 C 0.00278 0.55501 0.45103 0.0
C142 C 0.14438 0.34332 0.44206 0.0
C143 C 0.1167 0.35724 0.4335 0.0
C144 C 0.11274 0.41139 0.43364 0.0
C145 C 0.13204 0.43554 0.43575 0.0
C146 C 0.12221 0.4622 0.44393 0.0
C147 C 0.09213 0.4648 0.44969 0.0
C148 C 0.07198 0.44113 0.44637 0.0
C149 C 0.08254 0.41457 0.4384 0.0
C150 C 0.14418 0.48717 0.44699 0.0
C151 C 0.03953 0.44359 0.45175 0.0
C152 C 0.07978 0.49078 0.53807 0.0
C153 C 0.06926 0.51585 0.54751 0.0
C154 C 0.06004 0.54128 0.53823 0.0
C155 C 0.06178 0.54204 0.51892 0.0
C156 C 0.05409 0.56776 0.50918 0.0
C157 C 0.05534 0.56807 0.49015 0.0
C158 C 0.06418 0.54261 0.48011 0.0
C159 C 0.06516 0.54261 0.46074 0.0
C160 C 0.07402 0.51697 0.45118 0.0
C161 C 0.08237 0.49121 0.46051 0.0
C162 C 0.08183 0.49086 0.47989 0.0
C163 C 0.09054 0.46547 0.48972 0.0
C164 C 0.08985 0.46533 0.50877 0.0
C165 C 0.0805 0.49059 0.51873 0.0
C166 C 0.07158 0.51641 0.50912 0.0
C167 C 0.07248 0.51661 0.48969 0.0
C168 C 0.02769 0.69629 0.44973 0.0
C169 C 0.04747 0.68008 0.4357 0.0
O170 O 0.11833 0.40457 0.58823 0.0
O171 O 0.12394 0.38534 0.42706 0.0
O172 O 0.03404 0.65342 0.4307 0.0
O173 O 0.01219 0.62686 0.5871 0.0
H174 H 0.08369 0.41489 0.60594 0.0
H175 H 0.12722 0.4451 0.61439 0.0
H176 H 0.14879 0.41212 0.61899 0.0
H177 H 0.11642 0.42104 0.63292 0.0
H178 H 0.06286 0.41015 0.57654 0.0
H179 H 0.15324 0.43884 0.56954 0.0
H180 H 0.02703 0.46847 0.55895 0.0
H181 H 0.0237 0.42846 0.55814 0.0
H182 H 0.03333 0.44903 0.53774 0.0
H183 H 0.16674 0.4781 0.54991 0.0
H184 H 0.13829 0.50643 0.54844 0.0
H185 H 0.14363 0.48069 0.52986 0.0
H186 H 0.03973 0.61298 0.60788 0.0
H187 H 0.00426 0.62676 0.63255 0.0
H188 H 0.98769 0.60177 0.6161 0.0
H189 H 0.97825 0.64084 0.61585 0.0
H190 H 0.07001 0.61895 0.58048 0.0
H191 H 0.98139 0.59468 0.5648 0.0
H192 H 0.10743 0.58004 0.54342 0.0
H193 H 0.10794 0.56075 0.56484 0.0
H194 H 0.11253 0.60061 0.56455 0.0
H195 H 0.97152 0.55474 0.54467 0.0
H196 H 0.00045 0.52696 0.54239 0.0
H197 H 0.99713 0.55566 0.5256 0.0
H198 H 0.0692 0.67633 0.44254 0.0
H199 H 0.08996 0.63352 0.43462 0.0
H200 H 0.9972 0.61072 0.43731 0.0
H201 H 0.11655 0.5791 0.46351 0.0
H202 H 0.12781 0.60129 0.44414 0.0
H203 H 0.11887 0.56234 0.44121 0.0
H204 H 0.98102 0.5622 0.44537 0.0
H205 H 0.00046 0.55305 0.46612 0.0
H206 H 0.00833 0.53255 0.4455 0.0
H207 H 0.09949 0.35863 0.44455 0.0
H208 H 0.13913 0.32077 0.44738 0.0
H209 H 0.1521 0.35742 0.45366 0.0
H210 H 0.16278 0.34149 0.43184 0.0
H211 H 0.15518 0.43299 0.43165 0.0
H212 H 0.06727 0.39627 0.436 0.0
H213 H 0.14529 0.49271 0.46182 0.0
H214 H 0.13651 0.50741 0.43977 0.0
H215 H 0.16694 0.48141 0.44201 0.0
H216 H 0.02608 0.42478 0.44627 0.0
H217 H 0.03007 0.46485 0.44671 0.0
H218 H 0.0375 0.44376 0.46691 0.0
H219 H 0.06819 0.51555 0.56236 0.0
H220 H 0.04705 0.58794 0.51618 0.0
H221 H 0.04913 0.58855 0.48343 0.0
H222 H 0.0747 0.51715 0.43633 0.0
H223 H 0.09802 0.44537 0.48281 0.0
H224 H 0.09669 0.44516 0.51562 0.0
H225 H 0.03781 0.71802 0.45362 0.0
H226 H 0.02547 0.68257 0.46226 0.0
H227 H 0.00504 0.70025 0.44417 0.0
Li228 Li 0.08193 0.04343 0.26135 0.0
Li229 Li 0.08139 0.98872 0.26188 0.0
Li230 Li 0.10843 0.01744 0.23718 0.0
Li231 Li 0.0537 0.01497 0.23756 0.0
C232 C 0.13221 0.02857 0.2778 0.0
N233 N 0.16295 0.05548 0.30608 0.0
C234 C 0.12939 0.01778 0.29562 0.0
C235 C 0.15089 0.05281 0.2743 0.0
C236 C 0.14507 0.03175 0.30975 0.0
C237 C 0.16616 0.06618 0.2888 0.0
C238 C 0.02094 0.00671 0.27164 0.0
C239 C 0.97937 0.97266 0.27107 0.0
N240 N 0.96766 0.98649 0.28611 0.0
C241 C 0.0084 0.02074 0.28701 0.0
C242 C 0.00626 0.98259 0.26354 0.0
C243 C 0.98149 0.01011 0.29416 0.0
C244 C 0.08189 0.10533 0.26964 0.0
N245 N 0.08041 0.07756 0.27688 0.0
C246 C 0.07496 0.09781 0.30705 0.0
C247 C 0.07678 0.07339 0.29516 0.0
C248 C 0.07661 0.12683 0.30002 0.0
C249 C 0.08009 0.13041 0.28102 0.0
H250 H 0.0841 0.10804 0.25502 0.0
H251 H 0.0752 0.05104 0.30051 0.0
C252 C 0.09961 0.93099 0.27214 0.0
N253 N 0.08191 0.95446 0.27689 0.0
C254 C 0.09927 0.90504 0.28262 0.0
C255 C 0.06278 0.92818 0.3027 0.0
C256 C 0.06421 0.95376 0.29206 0.0
C257 C 0.08026 0.90337 0.29791 0.0
H258 H 0.11366 0.93232 0.26008 0.0
H259 H 0.05111 0.973 0.2959 0.0
C260 C 0.08908 0.06874 0.22106 0.0
N261 N 0.10938 0.10472 0.19311 0.0
C262 C 0.07358 0.06998 0.20454 0.0
C263 C 0.11474 0.08598 0.22343 0.0
C264 C 0.08424 0.08828 0.19056 0.0
C265 C 0.1247 0.10396 0.20911 0.0
C266 C 0.07616 0.9574 0.22441 0.0
C267 C 0.08738 0.95528 0.20655 0.0
C268 C 0.05879 0.93423 0.23144 0.0
C269 C 0.08059 0.93023 0.19589 0.0
C270 C 0.0525 0.90955 0.22036 0.0
N271 N 0.06342 0.90809 0.20296 0.0
C272 C 0.16974 0.0112 0.22887 0.0
C273 C 0.1394 0.02294 0.20343 0.0
C274 C 0.19525 0.01125 0.21776 0.0
N275 N 0.14258 0.01725 0.22158 0.0
C276 C 0.16432 0.02391 0.19195 0.0
C277 C 0.19257 0.01806 0.19914 0.0
H278 H 0.17157 0.00641 0.24331 0.0
H279 H 0.11751 0.02678 0.19786 0.0
C280 C 0.9968 0.0348 0.22907 0.0
N281 N 0.01816 0.01517 0.22353 0.0
C282 C 0.96991 0.03672 0.21965 0.0
C283 C 0.98747 0.99815 0.19897 0.0
C284 C 0.0141 0.9971 0.20873 0.0
C285 C 0.965 0.0182 0.20439 0.0
H286 H 0.00072 0.04898 0.24086 0.0
H287 H 0.03149 0.98207 0.20434 0.0
O288 O 0.11676 0.01544 0.26383 0.0
O289 O 0.04742 0.01672 0.2646 0.0
O290 O 0.07899 0.05089 0.23487 0.0
O291 O 0.08277 0.98171 0.23506 0.0
H292 H 0.11506 0.99898 0.29853 0.0
H293 H 0.15349 0.06123 0.26054 0.0
H294 H 0.14299 0.02376 0.32364 0.0
H295 H 0.18059 0.08506 0.28632 0.0
H296 H 0.96777 0.954 0.26493 0.0
H297 H 0.01939 0.03954 0.2934 0.0
H298 H 0.01537 0.97184 0.25147 0.0
H299 H 0.9716 0.02066 0.30611 0.0
H300 H 0.07262 0.09397 0.32161 0.0
H301 H 0.08097 0.15235 0.27497 0.0
H302 H 0.1131 0.88628 0.2786 0.0
H303 H 0.04829 0.92782 0.31462 0.0
H304 H 0.05363 0.05684 0.20251 0.0
H305 H 0.12693 0.08531 0.23615 0.0
H306 H 0.07255 0.08939 0.17767 0.0
H307 H 0.14462 0.11729 0.21072 0.0
H308 H 0.10101 0.97286 0.20091 0.0
H309 H 0.0504 0.93511 0.24534 0.0
H310 H 0.08899 0.92839 0.18201 0.0
H311 H 0.03903 0.89151 0.22562 0.0
H312 H 0.21684 0.00661 0.22367 0.0
H313 H 0.16157 0.02896 0.17757 0.0
H314 H 0.95305 0.05235 0.22434 0.0
H315 H 0.98472 0.98383 0.18709 0.0
Li316 Li 0.04754 0.00986 0.75582 0.0
Li317 Li 0.10174 0.01057 0.75894 0.0
Li318 Li 0.07679 0.03881 0.7349 0.0
Li319 Li 0.07991 0.98468 0.73342 0.0
C320 C 0.07681 0.07407 0.76345 0.0
N321 N 0.08484 0.13506 0.76521 0.0
C322 C 0.10391 0.0859 0.76943 0.0
C323 C 0.05375 0.09328 0.75842 0.0
C324 C 0.10753 0.1168 0.77023 0.0
C325 C 0.05828 0.12404 0.75937 0.0
C326 C 0.08466 0.96029 0.7743 0.0
C327 C 0.12169 0.92931 0.78855 0.0
N328 N 0.10647 0.93138 0.80468 0.0
C329 C 0.06932 0.96204 0.791 0.0
C330 C 0.11097 0.94368 0.77302 0.0
C331 C 0.08072 0.94727 0.8062 0.0
C332 C 0.99484 0.98228 0.76965 0.0
N333 N 0.01091 0.00796 0.76908 0.0
C334 C 0.97508 0.03281 0.78806 0.0
C335 C 0.00167 0.0329 0.77809 0.0
C336 C 0.95791 0.00669 0.78892 0.0
C337 C 0.96809 0.98113 0.77957 0.0
H338 H 0.0029 0.96268 0.76246 0.0
H339 H 0.01512 0.05282 0.77771 0.0
C340 C 0.1621 0.00987 0.77008 0.0
N341 N 0.13341 0.01121 0.77613 0.0
C342 C 0.18555 0.01039 0.78254 0.0
C343 C 0.14949 0.01404 0.80722 0.0
C344 C 0.12674 0.01367 0.79426 0.0
C345 C 0.17937 0.01234 0.8014 0.0
H346 H 0.16679 0.00848 0.75557 0.0
H347 H 0.10372 0.0154 0.79864 0.0
C348 C 0.0155 0.00464 0.72635 0.0
N349 N 0.95543 0.99202 0.72327 0.0
C350 C 0.00614 0.9758 0.72186 0.0
C351 C 0.9943 0.02708 0.72922 0.0
C352 C 0.97567 0.96988 0.72036 0.0
C353 C 0.96404 0.02023 0.72763 0.0
C354 C 0.13073 0.00334 0.71922 0.0
C355 C 0.1302 0.0168 0.70203 0.0
C356 C 0.1487 0.97833 0.72197 0.0
C357 C 0.14759 0.00489 0.68782 0.0
C358 C 0.16571 0.96707 0.7074 0.0
N359 N 0.16481 0.98047 0.69077 0.0
C360 C 0.10397 0.0904 0.72092 0.0
C361 C 0.05534 0.08112 0.70967 0.0
C362 C 0.10641 0.11588 0.7102 0.0
N363 N 0.07869 0.07374 0.7205 0.0
C364 C 0.05679 0.10645 0.69874 0.0
C365 C 0.08262 0.12415 0.69888 0.0
H366 H 0.12228 0.08377 0.72956 0.0
H367 H 0.03573 0.06717 0.70938 0.0
C368 C 0.08691 0.92394 0.7228 0.0
N369 N 0.08327 0.95223 0.71674 0.0
C370 C 0.0882 0.90023 0.71032 0.0
C371 C 0.08243 0.93535 0.68566 0.0
C372 C 0.08096 0.9583 0.69861 0.0
C373 C 0.08574 0.90575 0.69145 0.0
H374 H 0.08819 0.91972 0.73732 0.0
H375 H 0.0777 0.98103 0.69423 0.0
O376 O 0.07296 0.04387 0.76232 0.0
O377 O 0.07406 0.97489 0.75931 0.0
O378 O 0.0452 0.01077 0.72823 0.0
O379 O 0.11358 0.01444 0.73326 0.0
H380 H 0.12205 0.07143 0.7733 0.0
H381 H 0.03277 0.08452 0.7535 0.0
H382 H 0.1284 0.12626 0.7748 0.0
H383 H 0.04072 0.13914 0.75539 0.0
H384 H 0.14213 0.91654 0.78778 0.0
H385 H 0.049 0.97489 0.79227 0.0
H386 H 0.12317 0.94219 0.76022 0.0
H387 H 0.06916 0.94852 0.81923 0.0
H388 H 0.9684 0.05282 0.79539 0.0
H389 H 0.95548 0.96056 0.77986 0.0
H390 H 0.20826 0.00886 0.77749 0.0
H391 H 0.14377 0.01601 0.82161 0.0
H392 H 0.02218 0.95811 0.71972 0.0
H393 H 0.00113 0.04943 0.73293 0.0
H394 H 0.9681 0.94765 0.71694 0.0
H395 H 0.94739 0.03732 0.72995 0.0
H396 H 0.1163 0.03604 0.69961 0.0
H397 H 0.14924 0.96754 0.73515 0.0
H398 H 0.14732 0.01501 0.67442 0.0
H399 H 0.17959 0.94763 0.7093 0.0
H400 H 0.1266 0.12908 0.71085 0.0
H401 H 0.03812 0.11181 0.69003 0.0
H402 H 0.09018 0.87776 0.71547 0.0
H403 H 0.08076 0.94076 0.67128 0.0
C404 C 0.43368 0.0271 0.10213 0.0
C405 C 0.42383 0.03719 0.07824 0.0
C406 C 0.40219 0.02194 0.11721 0.0
C407 C 0.31408 0.04639 0.12147 0.0
H408 H 0.32049 0.99114 0.16175 0.0
C409 C 0.22698 0.04686 0.1792 0.0
C410 C 0.2191 0.0197 0.1872 0.0
C411 C 0.25123 0.04845 0.16719 0.0
C412 C 0.31809 0.00642 0.15046 0.0
H413 H 0.38393 0.06349 0.05848 0.0
H414 H 0.33596 0.0561 0.08422 0.0
H415 H 0.36048 0.99406 0.13924 0.0
H416 H 0.22997 0.97292 0.18919 0.0
H417 H 0.2717 0.97517 0.16749 0.0
H418 H 0.27109 0.05766 0.13202 0.0
C419 C 0.35818 0.04956 0.08813 0.0
C420 C 0.34136 0.00846 0.13766 0.0
C421 C 0.38821 0.05564 0.07219 0.0
C422 C 0.23592 0.99413 0.18319 0.0
C423 C 0.25987 0.99554 0.17085 0.0
C424 C 0.29066 0.04397 0.13402 0.0
C425 C 0.36493 0.03211 0.11004 0.0
C426 C 0.33975 0.02871 0.12311 0.0
C427 C 0.26771 0.02271 0.16256 0.0
C428 C 0.29246 0.02429 0.14886 0.0
H429 H 0.45567 0.01924 0.10572 0.0
H430 H 0.40597 0.01322 0.13074 0.0
H431 H 0.31199 0.06271 0.11077 0.0
H432 H 0.21434 0.06689 0.18228 0.0
H433 H 0.25701 0.06994 0.16156 0.0
C434 C 0.12669 0.35199 0.61035 0.0
C435 C 0.10276 0.37209 0.61198 0.0
C436 C 0.12445 0.32336 0.61761 0.0
C437 C 0.07049 0.26746 0.63456 0.0
H438 H 0.13708 0.2404 0.66369 0.0
C439 C 0.0605 0.17051 0.68563 0.0
C440 C 0.08483 0.15098 0.68722 0.0
C441 C 0.06277 0.19605 0.67489 0.0
C442 C 0.11846 0.24736 0.65537 0.0
H443 H 0.05775 0.37797 0.62235 0.0
H444 H 0.05381 0.32797 0.63504 0.0
H445 H 0.14087 0.28723 0.64724 0.0
H446 H 0.13029 0.14243 0.67835 0.0
H447 H 0.13424 0.18695 0.65955 0.0
H448 H 0.04795 0.22771 0.64287 0.0
C449 C 0.07412 0.33417 0.62793 0.0
C450 C 0.12065 0.27422 0.64594 0.0
C451 C 0.0764 0.36282 0.62074 0.0
C452 C 0.11134 0.15733 0.67765 0.0
C453 C 0.11358 0.18282 0.66687 0.0
C454 C 0.06832 0.24054 0.64397 0.0
C455 C 0.09826 0.31426 0.62666 0.0
C456 C 0.09658 0.28473 0.63559 0.0
C457 C 0.08939 0.20258 0.66546 0.0
C458 C 0.09217 0.23035 0.65465 0.0
H459 H 0.14731 0.35868 0.60377 0.0
H460 H 0.14332 0.30842 0.61628 0.0
H461 H 0.05172 0.27479 0.6265 0.0
H462 H 0.0399 0.16641 0.69301 0.0
H463 H 0.04388 0.21104 0.67433 0.0
C464 C 0.76322 0.03709 0.0941 0.0
C465 C 0.73557 0.04804 0.10032 0.0
C466 C 0.78638 0.03207 0.10637 0.0
C467 C 0.81171 0.0527 0.15297 0.0
H468 H 0.86819 0.98871 0.14413 0.0
C469 C 0.92504 0.04817 0.18938 0.0
C470 C 0.93687 0.02024 0.19393 0.0
C471 C 0.89906 0.05018 0.17903 0.0
C472 C 0.85243 0.00645 0.14699 0.0
H473 H 0.71018 0.06134 0.12437 0.0
H474 H 0.75027 0.05161 0.14594 0.0
H475 H 0.82498 0.99355 0.12448 0.0
H476 H 0.93037 0.97252 0.19168 0.0
H477 H 0.88465 0.97596 0.17389 0.0
H478 H 0.83872 0.06507 0.17581 0.0
C479 C 0.7544 0.04776 0.13149 0.0
C480 C 0.82783 0.00951 0.13552 0.0
C481 C 0.73134 0.05315 0.11916 0.0
C482 C 0.92194 0.99435 0.18816 0.0
C483 C 0.89579 0.99635 0.17794 0.0
C484 C 0.83615 0.04946 0.16455 0.0
C485 C 0.78232 0.03741 0.12523 0.0
C486 C 0.8074 0.03295 0.13819 0.0
C487 C 0.88414 0.0243 0.17312 0.0
C488 C 0.85707 0.02657 0.16154 0.0
H489 H 0.76704 0.03274 0.07967 0.0
H490 H 0.80766 0.02456 0.10098 0.0
H491 H 0.79664 0.07119 0.15538 0.0
H492 H 0.93629 0.0685 0.19343 0.0
H493 H 0.89111 0.07208 0.1753 0.0
C494 C 0.02108 0.68614 0.60066 0.0
C495 C 0.03516 0.66092 0.60793 0.0
C496 C 0.03046 0.71474 0.60563 0.0
C497 C 0.09049 0.75727 0.62924 0.0
H498 H 0.02519 0.8094 0.64332 0.0
C499 C 0.10262 0.85518 0.68044 0.0
C500 C 0.08489 0.88068 0.67803 0.0
C501 C 0.09971 0.83056 0.66875 0.0
C502 C 0.04377 0.79546 0.63913 0.0
H503 H 0.07023 0.64582 0.62585 0.0
H504 H 0.08641 0.69572 0.63475 0.0
H505 H 0.01463 0.76245 0.62805 0.0
H506 H 0.05094 0.90058 0.66093 0.0
H507 H 0.04657 0.85812 0.64029 0.0
H508 H 0.11956 0.79014 0.64088 0.0
C509 C 0.06862 0.69348 0.62487 0.0
C510 C 0.0377 0.76847 0.63034 0.0
C511 C 0.05929 0.66489 0.61986 0.0
C512 C 0.06514 0.88145 0.66316 0.0
C513 C 0.06235 0.85693 0.65143 0.0
C514 C 0.09659 0.78437 0.63805 0.0
C515 C 0.05385 0.71873 0.61815 0.0
C516 C 0.06092 0.74881 0.62557 0.0
C517 C 0.07906 0.83092 0.65434 0.0
C518 C 0.07323 0.80354 0.64337 0.0
H519 H 0.00219 0.68373 0.5916 0.0
H520 H 0.01884 0.73375 0.60005 0.0
H521 H 0.1089 0.74277 0.62552 0.0
H522 H 0.11843 0.85402 0.69156 0.0
H523 H 0.11281 0.81083 0.67146 0.0
C524 C 0.3746 0.00545 0.91924 0.0
C525 C 0.39632 0.98385 0.91503 0.0
C526 C 0.35186 0.01172 0.90687 0.0
C527 C 0.3302 0.00303 0.8583 0.0
H528 H 0.2497 0.01027 0.87757 0.0
C529 C 0.23 0.02899 0.81177 0.0
C530 C 0.20395 0.01232 0.8149 0.0
C531 C 0.25351 0.02823 0.82423 0.0
C532 C 0.27204 0.0082 0.87196 0.0
H533 H 0.41091 0.95142 0.89475 0.0
H534 H 0.3712 0.96235 0.87308 0.0
H535 H 0.29119 0.00366 0.89855 0.0
H536 H 0.18215 0.98178 0.83355 0.0
H537 H 0.22321 0.98026 0.85522 0.0
H538 H 0.31096 0.00663 0.83168 0.0
C539 C 0.37212 0.97493 0.88578 0.0
C540 C 0.29586 0.00477 0.884 0.0
C541 C 0.39482 0.96861 0.89818 0.0
C542 C 0.20177 0.99517 0.83088 0.0
C543 C 0.22529 0.99435 0.84331 0.0
C544 C 0.30638 0.00651 0.84626 0.0
C545 C 0.35023 0.99638 0.89005 0.0
C546 C 0.32518 0.00181 0.8773 0.0
C547 C 0.25152 0.01072 0.84008 0.0
C548 C 0.27698 0.00879 0.85294 0.0
H549 H 0.37501 0.01723 0.93224 0.0
H550 H 0.33547 0.02851 0.9105 0.0
H551 H 0.35257 0.00116 0.85272 0.0
H552 H 0.23214 0.04279 0.79973 0.0
H553 H 0.2732 0.04148 0.82149 0.0
C554 C 0.08212 0.31755 0.42118 0.0
C555 C 0.10548 0.33775 0.41805 0.0
C556 C 0.07378 0.29716 0.4076 0.0
C557 C 0.08177 0.27924 0.35809 0.0
H558 H 0.07229 0.19771 0.37434 0.0
C559 C 0.09364 0.17785 0.30964 0.0
C560 C 0.07495 0.15314 0.31246 0.0
C561 C 0.09306 0.20202 0.32181 0.0
C562 C 0.07434 0.22041 0.36957 0.0
H563 H 0.13842 0.35252 0.39827 0.0
H564 H 0.12397 0.31688 0.37454 0.0
H565 H 0.07853 0.23739 0.39685 0.0
H566 H 0.04005 0.13507 0.32983 0.0
H567 H 0.03917 0.17721 0.35112 0.0
H568 H 0.07825 0.26204 0.33075 0.0
C569 C 0.11165 0.31717 0.38735 0.0
C570 C 0.07791 0.24319 0.38249 0.0
C571 C 0.12 0.33752 0.40093 0.0
C572 C 0.05516 0.15349 0.32747 0.0
C573 C 0.0546 0.17766 0.33964 0.0
C574 C 0.0782 0.25642 0.34515 0.0
C575 C 0.08878 0.29642 0.39063 0.0
C576 C 0.08214 0.2728 0.3769 0.0
C577 C 0.07379 0.20205 0.33707 0.0
C578 C 0.07493 0.22668 0.35074 0.0
H579 H 0.07075 0.31707 0.43431 0.0
H580 H 0.05588 0.28165 0.41049 0.0
H581 H 0.08453 0.30189 0.35337 0.0
H582 H 0.1094 0.17816 0.29835 0.0
H583 H 0.10845 0.22026 0.31957 0.0
C584 C 0.7609 0.04963 0.90234 0.0
C585 C 0.7605 0.02764 0.91593 0.0
C586 C 0.7781 0.0458 0.88648 0.0
C587 C 0.81969 0.98986 0.8587 0.0
H588 H 0.86711 0.05825 0.84456 0.0
C589 C 0.92438 0.98234 0.81205 0.0
C590 C 0.93023 0.00615 0.80016 0.0
C591 C 0.90015 0.98356 0.82419 0.0
C592 C 0.85366 0.03906 0.84808 0.0
H593 H 0.77764 0.98441 0.92358 0.0
H594 H 0.80791 0.97772 0.89592 0.0
H595 H 0.83115 0.06305 0.86943 0.0
H596 H 0.9141 0.04886 0.79073 0.0
H597 H 0.87174 0.05091 0.8118 0.0
H598 H 0.84281 0.96575 0.8375 0.0
C599 C 0.79448 0.99767 0.89734 0.0
C600 C 0.83302 0.04182 0.86236 0.0
C601 C 0.77727 0.00153 0.91321 0.0
C602 C 0.91049 0.03046 0.8 0.0
C603 C 0.88626 0.03164 0.81207 0.0
C604 C 0.84039 0.98709 0.84436 0.0
C605 C 0.79546 0.01998 0.88393 0.0
C606 C 0.81597 0.01721 0.86796 0.0
C607 C 0.88124 0.00857 0.82464 0.0
C608 C 0.85778 0.01163 0.839 0.0
H609 H 0.7484 0.0701 0.90417 0.0
H610 H 0.77813 0.06326 0.87633 0.0
H611 H 0.80663 0.97058 0.86256 0.0
H612 H 0.93932 0.96341 0.81258 0.0
H613 H 0.89707 0.96553 0.83379 0.0
C614 C 0.08015 0.7118 0.41523 0.0
C615 C 0.05216 0.69902 0.41891 0.0
C616 C 0.084 0.73077 0.40031 0.0
C617 C 0.04182 0.78246 0.3724 0.0
H618 H 0.10959 0.77912 0.33918 0.0
C619 C 0.05015 0.86338 0.31254 0.0
C620 C 0.07816 0.87595 0.30888 0.0
C621 C 0.04754 0.83905 0.3242 0.0
C622 C 0.09069 0.78053 0.34845 0.0
H623 H 0.00648 0.6954 0.40967 0.0
H624 H 0.0131 0.72884 0.38369 0.0
H625 H 0.10424 0.74158 0.3631 0.0
H626 H 0.12554 0.87262 0.31394 0.0
H627 H 0.12101 0.83057 0.3349 0.0
H628 H 0.02864 0.82179 0.35842 0.0
C629 C 0.03202 0.72422 0.39237 0.0
C630 C 0.08761 0.75899 0.36209 0.0
C631 C 0.02825 0.70508 0.40717 0.0
C632 C 0.10371 0.86316 0.31655 0.0
C633 C 0.10107 0.83904 0.32848 0.0
C634 C 0.04504 0.80411 0.35895 0.0
C635 C 0.05983 0.73754 0.38893 0.0
C636 C 0.06308 0.75975 0.37416 0.0
C637 C 0.07285 0.82708 0.33273 0.0
C638 C 0.06945 0.80342 0.34675 0.0
H639 H 0.09894 0.70752 0.42408 0.0
H640 H 0.1056 0.74094 0.39805 0.0
H641 H 0.023 0.78393 0.38175 0.0
H642 H 0.03019 0.87263 0.30652 0.0
H643 H 0.02556 0.82992 0.32672 0.0
loop_
_geom_bond_atom_site_label_1
_geom_bond_atom_site_label_2
_geom_bond_distance
_geom_bond_site_symmetry_2
_ccdc_geom_bond_type
C0 C1 1.560 . S
C0 H61 0.959 . S
C0 H62 0.959 . S
C0 H63 0.960 . S
C1 C0 1.560 . S
C1 O56 1.426 . S
C1 H60 0.980 . S
C2 C3 1.407 . S
C2 C7 1.418 . S
C2 O56 1.334 . S
C3 C2 1.407 . S
C3 C4 1.360 1_545 S
C3 H64 0.929 1_545 S
C4 C3 1.360 1_565 S
C4 C5 1.401 1_565 S
C4 C8 1.527 . S
C5 C4 1.401 1_545 S
C5 C6 1.405 . S
C5 C38 1.587 . S
C6 C5 1.405 . S
C6 C7 1.332 . S
C6 C9 1.496 . S
C7 C2 1.418 . S
C7 C6 1.332 . S
C7 H65 0.929 . S
C8 C4 1.527 . S
C8 H66 0.959 . S
C8 H67 0.961 . S
C8 H68 0.961 . S
C9 C6 1.496 . S
C9 H69 0.960 . S
C9 H70 0.960 . S
C9 H71 0.961 . S
C10 C11 1.521 . S
C10 H73 0.961 1_565 S
C10 H74 0.960 . S
C10 H75 0.959 . S
C11 C10 1.521 . S
C11 O59 1.479 . S
C11 H72 0.973 1_565 S
C12 C13 1.349 1_565 S
C12 C17 1.367 . S
C12 O59 1.408 . S
C13 C12 1.349 1_545 S
C13 C14 1.407 . S
C13 H76 0.930 . S
C14 C13 1.407 . S
C14 C15 1.449 1_545 S
C14 C18 1.535 . S
C15 C14 1.449 1_565 S
C15 C16 1.384 . S
C15 C40 1.553 . S
C16 C15 1.384 . S
C16 C17 1.364 . S
C16 C19 1.450 . S
C17 C12 1.367 . S
C17 C16 1.364 . S
C17 H77 0.931 . S
C18 C14 1.535 . S
C18 H78 0.959 . S
C18 H79 0.961 . S
C18 H80 0.959 . S
C19 C16 1.450 . S
C19 H81 0.960 . S
C19 H82 0.960 . S
C19 H83 0.960 . S
C20 C21 1.309 1_565 S
C20 C25 1.304 . S
C20 O58 1.435 . S
C21 C20 1.309 1_545 S
C21 C22 1.476 . S
C21 H85 0.930 . S
C22 C21 1.476 . S
C22 C23 1.400 1_545 S
C22 C26 1.567 . S
C23 C22 1.400 1_565 S
C23 C24 1.373 . S
C23 C45 1.432 . S
C24 C23 1.373 . S
C24 C25 1.339 . S
C24 C27 1.530 . S
C25 C20 1.304 . S
C25 C24 1.339 . S
C25 H86 0.930 . S
C26 C22 1.567 . S
C26 H87 0.961 . S
C26 H88 0.960 . S
C26 H89 0.958 . S
C27 C24 1.530 . S
C27 H90 0.961 . S
C27 H91 0.960 . S
C27 H92 0.960 . S
C28 C29 1.530 . S
C28 H94 0.961 . S
C28 H95 0.961 . S
C28 H96 0.959 . S
C29 C28 1.530 . S
C29 O57 1.412 . S
C29 H93 0.980 . S
C30 C31 1.288 . S
C30 C35 1.377 . S
C30 O57 1.393 . S
C31 C30 1.288 . S
C31 C32 1.369 . S
C31 H97 0.932 . S
C32 C31 1.369 . S
C32 C33 1.398 . S
C32 C36 1.527 . S
C33 C32 1.398 . S
C33 C34 1.380 1_545 S
C33 C47 1.497 . S
C34 C33 1.380 1_565 S
C34 C35 1.383 1_565 S
C34 C37 1.603 . S
C35 C30 1.377 . S
C35 C34 1.383 1_545 S
C35 H98 0.929 1_545 S
C36 C32 1.527 . S
C36 H99 0.961 . S
C36 H100 0.959 . S
C36 H101 0.959 . S
C37 C34 1.603 . S
C37 H102 0.960 . S
C37 H103 0.962 . S
C37 H104 0.961 . S
C38 C5 1.587 . S
C38 C39 1.360 1_545 S
C38 C51 1.412 . S
C39 C38 1.360 1_565 S
C39 C40 1.365 . S
C39 H105 0.929 . S
C40 C15 1.553 . S
C40 C39 1.365 . S
C40 C41 1.404 . S
C41 C40 1.404 . S
C41 C42 1.395 . S
C41 C52 1.451 . S
C42 C41 1.395 . S
C42 C43 1.322 1_554 S
C42 H106 0.930 . S
C43 C42 1.322 1_556 S
C43 C44 1.459 . S
C43 H107 0.929 . S
C44 C43 1.459 . S
C44 C45 1.445 . S
C44 C53 1.395 . S
C45 C23 1.432 . S
C45 C44 1.445 . S
C45 C46 1.370 1_565 S
C46 C45 1.370 1_545 S
C46 C47 1.438 . S
C46 H108 0.930 . S
C47 C33 1.497 . S
C47 C46 1.438 . S
C47 C48 1.360 . S
C48 C47 1.360 . S
C48 C49 1.401 . S
C48 C53 1.446 1_545 S
C49 C48 1.401 . S
C49 C50 1.347 1_556 S
C49 H109 0.929 . S
C50 C49 1.347 1_554 S
C50 C51 1.455 . S
C50 H110 0.930 . S
C51 C38 1.412 . S
C51 C50 1.455 . S
C51 C52 1.331 1_545 S
C52 C41 1.451 . S
C52 C51 1.331 1_565 S
C52 C53 1.497 1_554 S
C53 C44 1.395 . S
C53 C48 1.446 1_565 S
C53 C52 1.497 1_556 S
C54 C55 1.582 1_565 S
C54 H111 0.962 1_565 S
C54 H112 0.959 . S
C54 H113 0.958 . S
C55 C54 1.582 1_545 S
C55 O58 1.458 1_545 S
C55 H84 0.980 . S
O56 C1 1.426 . S
O56 C2 1.334 . S
O57 C29 1.412 . S
O57 C30 1.393 . S
O58 C20 1.435 . S
O58 C55 1.458 1_565 S
O59 C11 1.479 . S
O59 C12 1.408 . S
H60 C1 0.980 . S
H61 C0 0.959 . S
H62 C0 0.959 . S
H63 C0 0.960 . S
H64 C3 0.929 1_565 S
H65 C7 0.929 . S
H66 C8 0.959 . S
H67 C8 0.961 . S
H68 C8 0.961 . S
H69 C9 0.960 . S
H70 C9 0.960 . S
H71 C9 0.961 . S
H72 C11 0.973 1_545 S
H73 C10 0.961 1_545 S
H74 C10 0.960 . S
H75 C10 0.959 . S
H76 C13 0.930 . S
H77 C17 0.931 . S
H78 C18 0.959 . S
H79 C18 0.961 . S
H80 C18 0.959 . S
H81 C19 0.960 . S
H82 C19 0.960 . S
H83 C19 0.960 . S
H84 C55 0.980 . S
H85 C21 0.930 . S
H86 C25 0.930 . S
H87 C26 0.961 . S
H88 C26 0.960 . S
H89 C26 0.958 . S
H90 C27 0.961 . S
H91 C27 0.960 . S
H92 C27 0.960 . S
H93 C29 0.980 . S
H94 C28 0.961 . S
H95 C28 0.961 . S
H96 C28 0.959 . S
H97 C31 0.932 . S
H98 C35 0.929 1_565 S
H99 C36 0.961 . S
H100 C36 0.959 . S
H101 C36 0.959 . S
H102 C37 0.960 . S
H103 C37 0.962 . S
H104 C37 0.961 . S
H105 C39 0.929 . S
H106 C42 0.930 . S
H107 C43 0.929 . S
H108 C46 0.930 . S
H109 C49 0.929 . S
H110 C50 0.930 . S
H111 C54 0.962 1_545 S
H112 C54 0.959 . S
H113 C54 0.958 . S
C114 C115 1.560 . S
C114 H175 0.959 . S
C114 H176 0.959 . S
C114 H177 0.960 . S
C115 C114 1.560 . S
C115 O170 1.426 . S
C115 H174 0.980 . S
C116 C117 1.407 . S
C116 C121 1.418 . S
C116 O170 1.334 . S
C117 C116 1.407 . S
C117 C118 1.360 . S
C117 H178 0.929 . S
C118 C117 1.360 . S
C118 C119 1.401 . S
C118 C122 1.527 . S
C119 C118 1.401 . S
C119 C120 1.405 . S
C119 C152 1.587 . S
C120 C119 1.405 . S
C120 C121 1.332 . S
C120 C123 1.496 . S
C121 C116 1.418 . S
C121 C120 1.332 . S
C121 H179 0.929 . S
C122 C118 1.527 . S
C122 H180 0.959 . S
C122 H181 0.961 . S
C122 H182 0.961 . S
C123 C120 1.496 . S
C123 H183 0.960 . S
C123 H184 0.960 . S
C123 H185 0.961 . S
C124 C125 1.517 . S
C124 H187 0.961 . S
C124 H188 0.960 . S
C124 H189 0.959 . S
C125 C124 1.517 . S
C125 O173 1.468 . S
C125 H186 0.980 . S
C126 C127 1.349 . S
C126 C131 1.367 . S
C126 O173 1.408 . S
C127 C126 1.349 . S
C127 C128 1.407 . S
C127 H190 0.930 . S
C128 C127 1.407 . S
C128 C129 1.449 . S
C128 C132 1.535 . S
C129 C128 1.449 . S
C129 C130 1.384 . S
C129 C154 1.553 . S
C130 C129 1.384 . S
C130 C131 1.364 . S
C130 C133 1.450 1_455 S
C131 C126 1.367 . S
C131 C130 1.364 . S
C131 H191 0.910 1_455 S
C132 C128 1.535 . S
C132 H192 0.959 . S
C132 H193 0.961 . S
C132 H194 0.959 . S
C133 C130 1.450 1_655 S
C133 H195 0.960 . S
C133 H196 0.960 . S
C133 H197 0.960 . S
C134 C135 1.309 . S
C134 C139 1.304 . S
C134 O172 1.435 . S
C135 C134 1.309 . S
C135 C136 1.476 . S
C135 H199 0.930 . S
C136 C135 1.476 . S
C136 C137 1.400 . S
C136 C140 1.567 . S
C137 C136 1.400 . S
C137 C138 1.373 . S
C137 C159 1.432 . S
C138 C137 1.373 . S
C138 C139 1.339 . S
C138 C141 1.530 . S
C139 C134 1.304 . S
C139 C138 1.339 . S
C139 H200 0.930 . S
C140 C136 1.567 . S
C140 H201 0.961 . S
C140 H202 0.960 . S
C140 H203 0.958 . S
C141 C138 1.530 . S
C141 H204 0.961 1_455 S
C141 H205 0.960 . S
C141 H206 0.960 . S
C142 C143 1.530 . S
C142 H208 0.961 . S
C142 H209 0.961 . S
C142 H210 0.959 . S
C143 C142 1.530 . S
C143 O171 1.412 . S
C143 H207 0.980 . S
C144 C145 1.288 . S
C144 C149 1.377 . S
C144 O171 1.393 . S
C145 C144 1.288 . S
C145 C146 1.369 . S
C145 H211 0.932 . S
C146 C145 1.369 . S
C146 C147 1.398 . S
C146 C150 1.527 . S
C147 C146 1.398 . S
C147 C148 1.380 . S
C147 C161 1.497 . S
C148 C147 1.380 . S
C148 C149 1.383 . S
C148 C151 1.603 . S
C149 C144 1.377 . S
C149 C148 1.383 . S
C149 H212 0.929 . S
C150 C146 1.527 . S
C150 H213 0.961 . S
C150 H214 0.959 . S
C150 H215 0.959 . S
C151 C148 1.603 . S
C151 H216 0.960 . S
C151 H217 0.962 . S
C151 H218 0.961 . S
C152 C119 1.587 . S
C152 C153 1.360 . S
C152 C165 1.412 . S
C153 C152 1.360 . S
C153 C154 1.365 . S
C153 H219 0.929 . S
C154 C129 1.553 . S
C154 C153 1.365 . S
C154 C155 1.404 . S
C155 C154 1.404 . S
C155 C156 1.395 . S
C155 C166 1.451 . S
C156 C155 1.395 . S
C156 C157 1.322 . S
C156 H220 0.930 . S
C157 C156 1.322 . S
C157 C158 1.459 . S
C157 H221 0.929 . S
C158 C157 1.459 . S
C158 C159 1.445 . S
C158 C167 1.395 . S
C159 C137 1.432 . S
C159 C158 1.445 . S
C159 C160 1.370 . S
C160 C159 1.370 . S
C160 C161 1.438 . S
C160 H222 0.930 . S
C161 C147 1.497 . S
C161 C160 1.438 . S
C161 C162 1.360 . S
C162 C161 1.360 . S
C162 C163 1.401 . S
C162 C167 1.446 . S
C163 C162 1.401 . S
C163 C164 1.347 . S
C163 H223 0.929 . S
C164 C163 1.347 . S
C164 C165 1.455 . S
C164 H224 0.930 . S
C165 C152 1.412 . S
C165 C164 1.455 . S
C165 C166 1.331 . S
C166 C155 1.451 . S
C166 C165 1.331 . S
C166 C167 1.497 . S
C167 C158 1.395 . S
C167 C162 1.446 . S
C167 C166 1.497 . S
C168 C169 1.582 . S
C168 H225 0.962 . S
C168 H226 0.959 . S
C168 H227 0.958 . S
C169 C168 1.582 . S
C169 O172 1.458 . S
C169 H198 0.980 . S
O170 C115 1.426 . S
O170 C116 1.334 . S
O171 C143 1.412 . S
O171 C144 1.393 . S
O172 C134 1.435 . S
O172 C169 1.458 . S
O173 C125 1.468 . S
O173 C126 1.408 . S
H174 C115 0.980 . S
H175 C114 0.959 . S
H176 C114 0.959 . S
H177 C114 0.960 . S
H178 C117 0.929 . S
H179 C121 0.929 . S
H180 C122 0.959 . S
H181 C122 0.961 . S
H182 C122 0.961 . S
H183 C123 0.960 . S
H184 C123 0.960 . S
H185 C123 0.961 . S
H186 C125 0.980 . S
H187 C124 0.961 . S
H188 C124 0.960 . S
H189 C124 0.959 . S
H190 C127 0.930 . S
H191 C131 0.910 1_655 S
H192 C132 0.959 . S
H193 C132 0.961 . S
H194 C132 0.959 . S
H195 C133 0.960 . S
H196 C133 0.960 . S
H197 C133 0.960 . S
H198 C169 0.980 . S
H199 C135 0.930 . S
H200 C139 0.930 . S
H201 C140 0.961 . S
H202 C140 0.960 . S
H203 C140 0.958 . S
H204 C141 0.961 1_655 S
H205 C141 0.960 . S
H206 C141 0.960 . S
H207 C143 0.980 . S
H208 C142 0.961 . S
H209 C142 0.961 . S
H210 C142 0.959 . S
H211 C145 0.932 . S
H212 C149 0.929 . S
H213 C150 0.961 . S
H214 C150 0.959 . S
H215 C150 0.959 . S
H216 C151 0.960 . S
H217 C151 0.962 . S
H218 C151 0.961 . S
H219 C153 0.929 . S
H220 C156 0.930 . S
H221 C157 0.929 . S
H222 C160 0.930 . S
H223 C163 0.929 . S
H224 C164 0.930 . S
H225 C168 0.962 . S
H226 C168 0.959 . S
H227 C168 0.958 . S
Li228 N245 1.990 . S
Li228 O288 1.956 . S
Li228 O289 1.970 . S
Li228 O290 1.961 . S
Li229 N253 1.990 . S
Li229 O288 1.970 1_565 S
Li229 O289 1.956 1_565 S
Li229 O291 1.961 . S
Li230 N275 1.990 . S
Li230 O288 1.961 . S
Li230 O290 1.956 . S
Li230 O291 1.970 1_545 S
Li231 N281 1.990 . S
Li231 O289 1.961 . S
Li231 O290 1.970 . S
Li231 O291 1.956 1_545 S
C232 C234 1.348 . S
C232 C235 1.356 . S
C232 O288 1.325 . S
N233 C236 1.314 . S
N233 C237 1.279 . S
C234 C232 1.348 . S
C234 C236 1.353 . S
C234 H292 0.929 1_545 S
C235 C232 1.356 . S
C235 C237 1.358 . S
C235 H293 0.930 . S
C236 N233 1.314 . S
C236 C234 1.353 . S
C236 H294 0.930 1_545 S
C237 N233 1.279 . S
C237 C235 1.358 . S
C237 H295 0.930 . S
C238 C241 1.348 . S
C238 C242 1.326 1_445 S
C238 O289 1.325 . S
C239 N240 1.279 1_565 S
C239 C242 1.364 . S
C239 H296 0.930 . S
N240 C239 1.279 1_545 S
N240 C243 1.314 . S
C241 C238 1.348 . S
C241 C243 1.353 1_455 S
C241 H297 0.929 . S
C242 C238 1.326 1_665 S
C242 C239 1.364 . S
C242 H298 0.955 1_655 S
C243 N240 1.314 . S
C243 C241 1.353 1_655 S
C243 H299 0.930 . S
C244 N245 1.314 . S
C244 C249 1.353 . S
C244 H250 0.930 . S
N245 Li228 1.990 . S
N245 C244 1.314 . S
N245 C247 1.279 . S
C246 C247 1.358 . S
C246 C248 1.356 . S
C246 H300 0.930 . S
C247 N245 1.279 . S
C247 C246 1.358 . S
C247 H251 0.930 . S
C248 C246 1.356 . S
C248 C249 1.348 . S
C249 C244 1.353 . S
C249 C248 1.348 . S
C249 H301 0.929 . S
H250 C244 0.930 . S
H251 C247 0.930 . S
C252 N253 1.314 . S
C252 C254 1.353 . S
C252 H258 0.930 . S
N253 Li229 1.990 . S
N253 C252 1.314 . S
N253 C256 1.279 . S
C254 C252 1.353 . S
C254 C257 1.348 . S
C254 H302 0.929 . S
C255 C256 1.358 . S
C255 C257 1.356 . S
C255 H303 0.930 . S
C256 N253 1.279 . S
C256 C255 1.358 . S
C256 H259 0.930 . S
C257 C254 1.348 . S
C257 C255 1.356 . S
H258 C252 0.930 . S
H259 C256 0.930 . S
C260 C262 1.348 . S
C260 C263 1.356 . S
C260 O290 1.325 . S
N261 C264 1.314 . S
N261 C265 1.279 . S
C262 C260 1.348 . S
C262 C264 1.353 . S
C262 H304 0.929 . S
C263 C260 1.356 . S
C263 C265 1.358 . S
C263 H305 0.930 . S
C264 N261 1.314 . S
C264 C262 1.353 . S
C264 H306 0.930 . S
C265 N261 1.279 . S
C265 C263 1.358 . S
C265 H307 0.930 . S
C266 C267 1.348 . S
C266 C268 1.356 . S
C266 O291 1.325 . S
C267 C266 1.348 . S
C267 C269 1.353 . S
C267 H308 0.929 . S
C268 C266 1.356 . S
C268 C270 1.358 . S
C268 H309 0.930 . S
C269 C267 1.353 . S
C269 N271 1.314 . S
C269 H310 0.930 . S
C270 C268 1.358 . S
C270 N271 1.279 . S
C270 H311 0.930 . S
N271 C269 1.314 . S
N271 C270 1.279 . S
C272 C274 1.353 . S
C272 N275 1.314 . S
C272 H278 0.930 1_545 S
C273 N275 1.279 . S
C273 C276 1.358 . S
C273 H279 0.930 . S
C274 C272 1.353 . S
C274 C277 1.348 . S
C274 H312 0.929 1_545 S
N275 Li230 1.990 . S
N275 C272 1.314 . S
N275 C273 1.279 . S
C276 C273 1.358 . S
C276 C277 1.356 . S
C276 H313 0.930 . S
C277 C274 1.348 . S
C277 C276 1.356 . S
H278 C272 0.930 1_565 S
H279 C273 0.930 . S
C280 N281 1.314 1_655 S
C280 C282 1.353 . S
C280 H286 0.930 . S
N281 Li231 1.990 . S
N281 C280 1.314 1_455 S
N281 C284 1.279 1_545 S
C282 C280 1.353 . S
C282 C285 1.348 . S
C282 H314 0.929 . S
C283 C284 1.358 1_655 S
C283 C285 1.356 1_565 S
C283 H315 0.930 . S
C284 N281 1.279 1_565 S
C284 C283 1.358 1_455 S
C284 H287 0.930 . S
C285 C282 1.348 . S
C285 C283 1.356 1_545 S
H286 C280 0.930 . S
H287 C284 0.930 . S
O288 Li228 1.956 . S
O288 Li229 1.970 1_545 S
O288 Li230 1.961 . S
O288 C232 1.325 . S
O289 Li228 1.970 . S
O289 Li229 1.956 1_545 S
O289 Li231 1.961 . S
O289 C238 1.325 . S
O290 Li228 1.961 . S
O290 Li230 1.956 . S
O290 Li231 1.970 . S
O290 C260 1.325 . S
O291 Li229 1.961 . S
O291 Li230 1.970 1_565 S
O291 Li231 1.956 1_565 S
O291 C266 1.325 . S
H292 C234 0.929 1_565 S
H293 C235 0.930 . S
H294 C236 0.930 1_565 S
H295 C237 0.930 . S
H296 C239 0.930 . S
H297 C241 0.929 . S
H298 C242 0.955 1_455 S
H299 C243 0.930 . S
H300 C246 0.930 . S
H301 C249 0.929 . S
H302 C254 0.929 . S
H303 C255 0.930 . S
H304 C262 0.929 . S
H305 C263 0.930 . S
H306 C264 0.930 . S
H307 C265 0.930 . S
H308 C267 0.929 . S
H309 C268 0.930 . S
H310 C269 0.930 . S
H311 C270 0.930 . S
H312 C274 0.929 1_565 S
H313 C276 0.930 . S
H314 C282 0.929 . S
H315 C283 0.930 . S
Li316 N333 1.990 . S
Li316 O376 1.956 . S
Li316 O377 1.970 1_545 S
Li316 O378 1.961 . S
Li317 N341 1.990 . S
Li317 O376 1.970 . S
Li317 O377 1.956 1_545 S
Li317 O379 1.961 . S
Li318 N363 1.990 . S
Li318 O376 1.961 . S
Li318 O378 1.956 . S
Li318 O379 1.970 . S
Li319 N369 1.990 . S
Li319 O377 1.961 . S
Li319 O378 1.970 1_565 S
Li319 O379 1.956 1_565 S
C320 C322 1.348 . S
C320 C323 1.356 . S
C320 O376 1.325 . S
N321 C324 1.314 . S
N321 C325 1.279 . S
C322 C320 1.348 . S
C322 C324 1.353 . S
C322 H380 0.929 . S
C323 C320 1.356 . S
C323 C325 1.358 . S
C323 H381 0.930 . S
C324 N321 1.314 . S
C324 C322 1.353 . S
C324 H382 0.930 . S
C325 N321 1.279 . S
C325 C323 1.358 . S
C325 H383 0.930 . S
C326 C329 1.348 . S
C326 C330 1.356 . S
C326 O377 1.325 . S
C327 N328 1.279 . S
C327 C330 1.358 . S
C327 H384 0.930 . S
N328 C327 1.279 . S
N328 C331 1.314 . S
C329 C326 1.348 . S
C329 C331 1.353 . S
C329 H385 0.929 . S
C330 C326 1.356 . S
C330 C327 1.358 . S
C330 H386 0.930 . S
C331 N328 1.314 . S
C331 C329 1.353 . S
C331 H387 0.930 . S
C332 N333 1.314 1_655 S
C332 C337 1.351 1_545 S
C332 H338 0.930 1_545 S
N333 Li316 1.990 . S
N333 C332 1.314 1_455 S
N333 C335 1.279 . S
C334 C335 1.358 1_655 S
C334 C336 1.356 . S
C334 H388 0.930 . S
C335 N333 1.279 . S
C335 C334 1.358 1_455 S
C335 H339 0.930 . S
C336 C334 1.356 . S
C336 C337 1.328 1_545 S
C337 C332 1.351 1_565 S
C337 C336 1.328 1_565 S
C337 H389 0.953 . S
H338 C332 0.930 1_565 S
H339 C335 0.930 . S
C340 N341 1.314 . S
C340 C342 1.353 . S
C340 H346 0.930 . S
N341 Li317 1.990 . S
N341 C340 1.314 . S
N341 C344 1.279 1_545 S
C342 C340 1.353 . S
C342 C345 1.348 . S
C342 H390 0.929 . S
C343 C344 1.358 . S
C343 C345 1.356 1_565 S
C343 H391 0.930 . S
C344 N341 1.279 1_565 S
C344 C343 1.358 . S
C344 H347 0.930 . S
C345 C342 1.348 . S
C345 C343 1.356 1_545 S
H346 C340 0.930 . S
H347 C344 0.930 . S
C348 C350 1.348 1_545 S
C348 C351 1.356 1_455 S
C348 O378 1.325 . S
N349 C352 1.314 . S
N349 C353 1.279 . S
C350 C348 1.348 1_565 S
C350 C352 1.353 1_465 S
C350 H392 0.929 . S
C351 C348 1.356 1_655 S
C351 C353 1.358 . S
C351 H393 0.930 . S
C352 N349 1.314 . S
C352 C350 1.353 1_645 S
C352 H394 0.930 1_545 S
C353 N349 1.279 . S
C353 C351 1.358 . S
C353 H395 0.930 . S
C354 C355 1.348 . S
C354 C356 1.356 1_545 S
C354 O379 1.325 . S
C355 C354 1.348 . S
C355 C357 1.353 . S
C355 H396 0.929 . S
C356 C354 1.356 1_565 S
C356 C358 1.358 . S
C356 H397 0.930 . S
C357 C355 1.353 . S
C357 N359 1.314 . S
C357 H398 0.930 . S
C358 C356 1.358 . S
C358 N359 1.279 1_565 S
C358 H399 0.930 . S
N359 C357 1.314 . S
N359 C358 1.279 1_545 S
C360 C362 1.353 . S
C360 N363 1.314 . S
C360 H366 0.930 . S
C361 N363 1.279 . S
C361 C364 1.358 . S
C361 H367 0.930 . S
C362 C360 1.353 . S
C362 C365 1.348 . S
C362 H400 0.929 . S
N363 Li318 1.990 . S
N363 C360 1.314 . S
N363 C361 1.279 . S
C364 C361 1.358 . S
C364 C365 1.356 . S
C364 H401 0.930 . S
C365 C362 1.348 . S
C365 C364 1.356 . S
H366 C360 0.930 . S
H367 C361 0.930 . S
C368 N369 1.314 . S
C368 C370 1.353 . S
C368 H374 0.930 . S
N369 Li319 1.990 . S
N369 C368 1.314 . S
N369 C372 1.279 . S
C370 C368 1.353 . S
C370 C373 1.348 . S
C370 H402 0.929 . S
C371 C372 1.358 . S
C371 C373 1.356 . S
C371 H403 0.930 . S
C372 N369 1.279 . S
C372 C371 1.358 . S
C372 H375 0.930 . S
C373 C370 1.348 . S
C373 C371 1.356 . S
H374 C368 0.930 . S
H375 C372 0.930 . S
O376 Li316 1.956 . S
O376 Li317 1.970 . S
O376 Li318 1.961 . S
O376 C320 1.325 . S
O377 Li316 1.970 1_565 S
O377 Li317 1.956 1_565 S
O377 Li319 1.961 . S
O377 C326 1.325 . S
O378 Li316 1.961 . S
O378 Li318 1.956 . S
O378 Li319 1.970 1_545 S
O378 C348 1.325 . S
O379 Li317 1.961 . S
O379 Li318 1.970 . S
O379 Li319 1.956 1_545 S
O379 C354 1.325 . S
H380 C322 0.929 . S
H381 C323 0.930 . S
H382 C324 0.930 . S
H383 C325 0.930 . S
H384 C327 0.930 . S
H385 C329 0.929 . S
H386 C330 0.930 . S
H387 C331 0.930 . S
H388 C334 0.930 . S
H389 C337 0.953 . S
H390 C342 0.929 . S
H391 C343 0.930 . S
H392 C350 0.929 . S
H393 C351 0.930 . S
H394 C352 0.930 1_565 S
H395 C353 0.930 . S
H396 C355 0.929 . S
H397 C356 0.930 . S
H398 C357 0.930 . S
H399 C358 0.930 . S
H400 C362 0.929 . S
H401 C364 0.930 . S
H402 C370 0.929 . S
H403 C371 0.930 . S
C404 C405 1.349 1_565 S
C404 C406 1.327 . S
C404 H429 0.950 . S
C405 C404 1.349 1_545 S
C405 C421 1.349 . S
C406 C404 1.327 . S
C406 C425 1.429 1_565 S
C406 H430 0.950 . S
C407 C424 1.574 . S
C407 C426 1.368 . S
C407 H431 0.949 . S
H408 C412 0.949 . S
C409 C410 1.349 . S
C409 C411 1.327 . S
C409 H432 0.950 . S
C410 C409 1.349 . S
C410 C422 1.349 1_545 S
C411 C409 1.327 . S
C411 C427 1.429 . S
C411 H433 0.950 . S
C412 H408 0.949 . S
C412 C420 1.574 . S
C412 C428 1.368 1_565 S
H413 C421 0.950 . S
H414 C419 0.950 . S
H415 C420 0.949 . S
H416 C422 0.950 . S
H417 C423 0.950 . S
H418 C424 0.949 . S
C419 H414 0.950 . S
C419 C421 1.327 . S
C419 C425 1.429 . S
C420 C412 1.574 . S
C420 H415 0.949 . S
C420 C426 1.368 1_565 S
C421 C405 1.349 . S
C421 H413 0.950 . S
C421 C419 1.327 . S
C422 C410 1.349 1_565 S
C422 H416 0.950 . S
C422 C423 1.327 . S
C423 H417 0.950 . S
C423 C422 1.327 . S
C423 C427 1.429 1_565 S
C424 C407 1.574 . S
C424 H418 0.949 . S
C424 C428 1.368 . S
C425 C406 1.429 1_545 S
C425 C419 1.429 . S
C425 C426 1.523 . S
C426 C407 1.368 . S
C426 C420 1.368 1_545 S
C426 C425 1.523 . S
C427 C411 1.429 . S
C427 C423 1.429 1_545 S
C427 C428 1.523 . S
C428 C412 1.368 1_545 S
C428 C424 1.368 . S
C428 C427 1.523 . S
H429 C404 0.950 . S
H430 C406 0.950 . S
H431 C407 0.949 . S
H432 C409 0.950 . S
H433 C411 0.950 . S
C434 C435 1.349 . S
C434 C436 1.327 . S
C434 H459 0.950 . S
C435 C434 1.349 . S
C435 C451 1.349 . S
C436 C434 1.327 . S
C436 C455 1.429 . S
C436 H460 0.950 . S
C437 C454 1.574 . S
C437 C456 1.368 . S
C437 H461 0.949 . S
H438 C442 0.949 . S
C439 C440 1.349 . S
C439 C441 1.327 . S
C439 H462 0.950 . S
C440 C439 1.349 . S
C440 C452 1.349 . S
C441 C439 1.327 . S
C441 C457 1.429 . S
C441 H463 0.950 . S
C442 H438 0.949 . S
C442 C450 1.574 . S
C442 C458 1.368 . S
H443 C451 0.950 . S
H444 C449 0.950 . S
H445 C450 0.949 . S
H446 C452 0.950 . S
H447 C453 0.950 . S
H448 C454 0.949 . S
C449 H444 0.950 . S
C449 C451 1.327 . S
C449 C455 1.429 . S
C450 C442 1.574 . S
C450 H445 0.949 . S
C450 C456 1.368 . S
C451 C435 1.349 . S
C451 H443 0.950 . S
C451 C449 1.327 . S
C452 C440 1.349 . S
C452 H446 0.950 . S
C452 C453 1.327 . S
C453 H447 0.950 . S
C453 C452 1.327 . S
C453 C457 1.429 . S
C454 C437 1.574 . S
C454 H448 0.949 . S
C454 C458 1.368 . S
C455 C436 1.429 . S
C455 C449 1.429 . S
C455 C456 1.523 . S
C456 C437 1.368 . S
C456 C450 1.368 . S
C456 C455 1.523 . S
C457 C441 1.429 . S
C457 C453 1.429 . S
C457 C458 1.523 . S
C458 C442 1.368 . S
C458 C454 1.368 . S
C458 C457 1.523 . S
H459 C434 0.950 . S
H460 C436 0.950 . S
H461 C437 0.949 . S
H462 C439 0.950 . S
H463 C441 0.950 . S
C464 C465 1.333 1_565 S
C464 C466 1.328 . S
C464 H489 0.966 . S
C465 C464 1.333 1_545 S
C465 C481 1.349 . S
C466 C464 1.328 . S
C466 C485 1.429 1_565 S
C466 H490 0.950 . S
C467 C484 1.574 . S
C467 C486 1.368 . S
C467 H491 0.949 . S
H468 C472 0.949 . S
C469 C470 1.349 . S
C469 C471 1.327 . S
C469 H492 0.950 . S
C470 C469 1.349 . S
C470 C482 1.349 1_545 S
C471 C469 1.327 . S
C471 C487 1.429 . S
C471 H493 0.950 . S
C472 H468 0.949 . S
C472 C480 1.574 . S
C472 C488 1.368 1_565 S
H473 C481 0.950 . S
H474 C479 0.950 . S
H475 C480 0.949 . S
H476 C482 0.950 . S
H477 C483 0.950 . S
H478 C484 0.949 . S
C479 H474 0.950 . S
C479 C481 1.327 . S
C479 C485 1.429 . S
C480 C472 1.574 . S
C480 H475 0.949 . S
C480 C486 1.368 1_565 S
C481 C465 1.349 . S
C481 H473 0.950 . S
C481 C479 1.327 . S
C482 C470 1.349 1_565 S
C482 H476 0.950 . S
C482 C483 1.327 . S
C483 H477 0.950 . S
C483 C482 1.327 . S
C483 C487 1.429 1_565 S
C484 C467 1.574 . S
C484 H478 0.949 . S
C484 C488 1.368 . S
C485 C466 1.429 1_545 S
C485 C479 1.429 . S
C485 C486 1.523 . S
C486 C467 1.368 . S
C486 C480 1.368 1_545 S
C486 C485 1.523 . S
C487 C471 1.429 . S
C487 C483 1.429 1_545 S
C487 C488 1.523 . S
C488 C472 1.368 1_545 S
C488 C484 1.368 . S
C488 C487 1.523 . S
H489 C464 0.966 . S
H490 C466 0.950 . S
H491 C467 0.949 . S
H492 C469 0.950 . S
H493 C471 0.950 . S
C494 C495 1.349 . S
C494 C496 1.327 . S
C494 H519 0.950 . S
C495 C494 1.349 . S
C495 C511 1.349 . S
C496 C494 1.327 . S
C496 C515 1.429 . S
C496 H520 0.950 . S
C497 C514 1.574 . S
C497 C516 1.368 . S
C497 H521 0.949 . S
H498 C502 0.949 . S
C499 C500 1.349 . S
C499 C501 1.327 . S
C499 H522 0.950 . S
C500 C499 1.349 . S
C500 C512 1.349 . S
C501 C499 1.327 . S
C501 C517 1.429 . S
C501 H523 0.950 . S
C502 H498 0.949 . S
C502 C510 1.574 . S
C502 C518 1.368 . S
H503 C511 0.950 . S
H504 C509 0.950 . S
H505 C510 0.949 . S
H506 C512 0.950 . S
H507 C513 0.950 . S
H508 C514 0.949 . S
C509 H504 0.950 . S
C509 C511 1.327 . S
C509 C515 1.429 . S
C510 C502 1.574 . S
C510 H505 0.949 . S
C510 C516 1.368 . S
C511 C495 1.349 . S
C511 H503 0.950 . S
C511 C509 1.327 . S
C512 C500 1.349 . S
C512 H506 0.950 . S
C512 C513 1.327 . S
C513 H507 0.950 . S
C513 C512 1.327 . S
C513 C517 1.429 . S
C514 C497 1.574 . S
C514 H508 0.949 . S
C514 C518 1.368 . S
C515 C496 1.429 . S
C515 C509 1.429 . S
C515 C516 1.523 . S
C516 C497 1.368 . S
C516 C510 1.368 . S
C516 C515 1.523 . S
C517 C501 1.429 . S
C517 C513 1.429 . S
C517 C518 1.523 . S
C518 C502 1.368 . S
C518 C514 1.368 . S
C518 C517 1.523 . S
H519 C494 0.950 . S
H520 C496 0.950 . S
H521 C497 0.949 . S
H522 C499 0.950 . S
H523 C501 0.950 . S
C524 C525 1.349 1_565 S
C524 C526 1.327 . S
C524 H549 0.950 . S
C525 C524 1.349 1_545 S
C525 C541 1.349 . S
C526 C524 1.327 . S
C526 C545 1.429 1_565 S
C526 H550 0.950 . S
C527 C544 1.574 . S
C527 C546 1.368 . S
C527 H551 0.949 . S
H528 C532 0.949 . S
C529 C530 1.349 . S
C529 C531 1.327 . S
C529 H552 0.950 . S
C530 C529 1.349 . S
C530 C542 1.349 1_545 S
C531 C529 1.327 . S
C531 C547 1.429 . S
C531 H553 0.950 . S
C532 H528 0.949 . S
C532 C540 1.574 . S
C532 C548 1.368 1_565 S
H533 C541 0.950 . S
H534 C539 0.950 . S
H535 C540 0.949 . S
H536 C542 0.950 . S
H537 C543 0.950 . S
H538 C544 0.949 . S
C539 H534 0.950 . S
C539 C541 1.327 . S
C539 C545 1.429 . S
C540 C532 1.574 . S
C540 H535 0.949 . S
C540 C546 1.368 1_565 S
C541 C525 1.349 . S
C541 H533 0.950 . S
C541 C539 1.327 . S
C542 C530 1.349 1_565 S
C542 H536 0.950 . S
C542 C543 1.327 . S
C543 H537 0.950 . S
C543 C542 1.327 . S
C543 C547 1.429 1_565 S
C544 C527 1.574 . S
C544 H538 0.949 . S
C544 C548 1.368 . S
C545 C526 1.429 1_545 S
C545 C539 1.429 . S
C545 C546 1.523 . S
C546 C527 1.368 . S
C546 C540 1.368 1_545 S
C546 C545 1.523 . S
C547 C531 1.429 . S
C547 C543 1.429 1_545 S
C547 C548 1.523 . S
C548 C532 1.368 1_545 S
C548 C544 1.368 . S
C548 C547 1.523 . S
H549 C524 0.950 . S
H550 C526 0.950 . S
H551 C527 0.949 . S
H552 C529 0.950 . S
H553 C531 0.950 . S
C554 C555 1.349 . S
C554 C556 1.327 . S
C554 H579 0.950 . S
C555 C554 1.349 . S
C555 C571 1.349 . S
C556 C554 1.327 . S
C556 C575 1.429 . S
C556 H580 0.950 . S
C557 C574 1.574 . S
C557 C576 1.368 . S
C557 H581 0.949 . S
H558 C562 0.949 . S
C559 C560 1.349 . S
C559 C561 1.327 . S
C559 H582 0.950 . S
C560 C559 1.349 . S
C560 C572 1.349 . S
C561 C559 1.327 . S
C561 C577 1.429 . S
C561 H583 0.950 . S
C562 H558 0.949 . S
C562 C570 1.574 . S
C562 C578 1.368 . S
H563 C571 0.950 . S
H564 C569 0.950 . S
H565 C570 0.949 . S
H566 C572 0.950 . S
H567 C573 0.950 . S
H568 C574 0.949 . S
C569 H564 0.950 . S
C569 C571 1.327 . S
C569 C575 1.429 . S
C570 C562 1.574 . S
C570 H565 0.949 . S
C570 C576 1.368 . S
C571 C555 1.349 . S
C571 H563 0.950 . S
C571 C569 1.327 . S
C572 C560 1.349 . S
C572 H566 0.950 . S
C572 C573 1.327 . S
C573 H567 0.950 . S
C573 C572 1.327 . S
C573 C577 1.429 . S
C574 C557 1.574 . S
C574 H568 0.949 . S
C574 C578 1.368 . S
C575 C556 1.429 . S
C575 C569 1.429 . S
C575 C576 1.523 . S
C576 C557 1.368 . S
C576 C570 1.368 . S
C576 C575 1.523 . S
C577 C561 1.429 . S
C577 C573 1.429 . S
C577 C578 1.523 . S
C578 C562 1.368 . S
C578 C574 1.368 . S
C578 C577 1.523 . S
H579 C554 0.950 . S
H580 C556 0.950 . S
H581 C557 0.949 . S
H582 C559 0.950 . S
H583 C561 0.950 . S
C584 C585 1.349 . S
C584 C586 1.327 . S
C584 H609 0.950 . S
C585 C584 1.349 . S
C585 C601 1.349 1_545 S
C586 C584 1.327 . S
C586 C605 1.429 . S
C586 H610 0.950 . S
C587 C604 1.574 . S
C587 C606 1.368 1_565 S
C587 H611 0.949 . S
H588 C592 0.949 . S
C589 C590 1.349 1_565 S
C589 C591 1.327 . S
C589 H612 0.950 . S
C590 C589 1.349 1_545 S
C590 C602 1.349 . S
C591 C589 1.327 . S
C591 C607 1.429 1_565 S
C591 H613 0.950 . S
C592 H588 0.949 . S
C592 C600 1.574 . S
C592 C608 1.368 . S
H593 C601 0.950 . S
H594 C599 0.950 . S
H595 C600 0.949 . S
H596 C602 0.950 . S
H597 C603 0.950 . S
H598 C604 0.949 . S
C599 H594 0.950 . S
C599 C601 1.327 . S
C599 C605 1.429 1_565 S
C600 C592 1.574 . S
C600 H595 0.949 . S
C600 C606 1.368 . S
C601 C585 1.349 1_565 S
C601 H593 0.950 . S
C601 C599 1.327 . S
C602 C590 1.349 . S
C602 H596 0.950 . S
C602 C603 1.327 . S
C603 H597 0.950 . S
C603 C602 1.327 . S
C603 C607 1.429 . S
C604 C587 1.574 . S
C604 H598 0.949 . S
C604 C608 1.368 1_565 S
C605 C586 1.429 . S
C605 C599 1.429 1_545 S
C605 C606 1.523 . S
C606 C587 1.368 1_545 S
C606 C600 1.368 . S
C606 C605 1.523 . S
C607 C591 1.429 1_545 S
C607 C603 1.429 . S
C607 C608 1.523 . S
C608 C592 1.368 . S
C608 C604 1.368 1_545 S
C608 C607 1.523 . S
H609 C584 0.950 . S
H610 C586 0.950 . S
H611 C587 0.949 . S
H612 C589 0.950 . S
H613 C591 0.950 . S
C614 C615 1.349 . S
C614 C616 1.327 . S
C614 H639 0.950 . S
C615 C614 1.349 . S
C615 C631 1.349 . S
C616 C614 1.327 . S
C616 C635 1.429 . S
C616 H640 0.950 . S
C617 C634 1.574 . S
C617 C636 1.368 . S
C617 H641 0.949 . S
H618 C622 0.949 . S
C619 C620 1.349 . S
C619 C621 1.327 . S
C619 H642 0.950 . S
C620 C619 1.349 . S
C620 C632 1.349 . S
C621 C619 1.327 . S
C621 C637 1.429 . S
C621 H643 0.950 . S
C622 H618 0.949 . S
C622 C630 1.574 . S
C622 C638 1.368 . S
H623 C631 0.950 . S
H624 C629 0.950 . S
H625 C630 0.949 . S
H626 C632 0.950 . S
H627 C633 0.950 . S
H628 C634 0.949 . S
C629 H624 0.950 . S
C629 C631 1.327 . S
C629 C635 1.429 . S
C630 C622 1.574 . S
C630 H625 0.949 . S
C630 C636 1.368 . S
C631 C615 1.349 . S
C631 H623 0.950 . S
C631 C629 1.327 . S
C632 C620 1.349 . S
C632 H626 0.950 . S
C632 C633 1.327 . S
C633 H627 0.950 . S
C633 C632 1.327 . S
C633 C637 1.429 . S
C634 C617 1.574 . S
C634 H628 0.949 . S
C634 C638 1.368 . S
C635 C616 1.429 . S
C635 C629 1.429 . S
C635 C636 1.523 . S
C636 C617 1.368 . S
C636 C630 1.368 . S
C636 C635 1.523 . S
C637 C621 1.429 . S
C637 C633 1.429 . S
C637 C638 1.523 . S
C638 C622 1.368 . S
C638 C634 1.368 . S
C638 C637 1.523 . S
H639 C614 0.950 . S
H640 C616 0.950 . S
H641 C617 0.949 . S
H642 C619 0.950 . S
H643 C621 0.950 . S
C410 C277 1.472 . S
C405 C11 0.907 1_545 S
C440 C365 1.285 . S
C435 C115 1.028 . S
C470 C285 1.283 . S
C465 C1 1.025 . S
C500 C373 1.471 . S
C495 C125 0.908 . S
C530 C345 1.576 . S
C525 C55 1.152 . S
C560 C248 1.384 . S
C555 C143 1.108 . S
C590 C336 1.386 . S
C585 C29 1.106 . S
C615 C169 1.148 . S
C620 C257 1.577 . S
