# Generated by pormake.
# Topology zzz, (3,6)-cn, num edge types: 1
# Building blocks:
#     Node 0, Type 0, BuildingBlock: BETDAH_clean_linker_0, # of connection points: 3
#     Node 1, Type 0, BuildingBlock: BETDAH_clean_linker_0, # of connection points: 3
#     Node 2, Type 0, BuildingBlock: BETDAH_clean_linker_0, # of connection points: 3
#     Node 3, Type 0, BuildingBlock: BETDAH_clean_linker_0, # of connection points: 3
#     Node 4, Type 0, BuildingBlock: BETDAH_clean_linker_0, # of connection points: 3
#     Node 5, Type 0, BuildingBlock: BETDAH_clean_linker_0, # of connection points: 3
#     Node 6, Type 0, BuildingBlock: BETDAH_clean_linker_0, # of connection points: 3
#     Node 7, Type 0, BuildingBlock: BETDAH_clean_linker_0, # of connection points: 3
#     Node 8, Type 1, BuildingBlock: KUMBUR_clean_sbu_1, # of connection points: 6
#     Node 9, Type 1, BuildingBlock: KUMBUR_clean_sbu_1, # of connection points: 6
#     Node 10, Type 1, BuildingBlock: KUMBUR_clean_sbu_1, # of connection points: 6
#     Node 11, Type 1, BuildingBlock: KUMBUR_clean_sbu_1, # of connection points: 6
#     Edge 12, Type (0, 1), BuildingBlock: TEMPAE_clean_linker_10, # of connection points: 2
#     Edge 13, Type (0, 1), BuildingBlock: TEMPAE_clean_linker_10, # of connection points: 2
#     Edge 14, Type (0, 1), BuildingBlock: TEMPAE_clean_linker_10, # of connection points: 2
#     Edge 15, Type (0, 1), BuildingBlock: TEMPAE_clean_linker_10, # of connection points: 2
#     Edge 16, Type (0, 1), BuildingBlock: TEMPAE_clean_linker_10, # of connection points: 2
#     Edge 17, Type (0, 1), BuildingBlock: TEMPAE_clean_linker_10, # of connection points: 2
#     Edge 18, Type (0, 1), BuildingBlock: TEMPAE_clean_linker_10, # of connection points: 2
#     Edge 19, Type (0, 1), BuildingBlock: TEMPAE_clean_linker_10, # of connection points: 2
#     Edge 20, Type (0, 1), BuildingBlock: TEMPAE_clean_linker_10, # of connection points: 2
#     Edge 21, Type (0, 1), BuildingBlock: TEMPAE_clean_linker_10, # of connection points: 2
#     Edge 22, Type (0, 1), BuildingBlock: TEMPAE_clean_linker_10, # of connection points: 2
#     Edge 23, Type (0, 1), BuildingBlock: TEMPAE_clean_linker_10, # of connection points: 2
#     Edge 24, Type (0, 1), BuildingBlock: TEMPAE_clean_linker_10, # of connection points: 2
#     Edge 25, Type (0, 1), BuildingBlock: TEMPAE_clean_linker_10, # of connection points: 2
#     Edge 26, Type (0, 1), BuildingBlock: TEMPAE_clean_linker_10, # of connection points: 2
#     Edge 27, Type (0, 1), BuildingBlock: TEMPAE_clean_linker_10, # of connection points: 2
#     Edge 28, Type (0, 1), BuildingBlock: TEMPAE_clean_linker_10, # of connection points: 2
#     Edge 29, Type (0, 1), BuildingBlock: TEMPAE_clean_linker_10, # of connection points: 2
#     Edge 30, Type (0, 1), BuildingBlock: TEMPAE_clean_linker_10, # of connection points: 2
#     Edge 31, Type (0, 1), BuildingBlock: TEMPAE_clean_linker_10, # of connection points: 2
#     Edge 32, Type (0, 1), BuildingBlock: TEMPAE_clean_linker_10, # of connection points: 2
#     Edge 33, Type (0, 1), BuildingBlock: TEMPAE_clean_linker_10, # of connection points: 2
#     Edge 34, Type (0, 1), BuildingBlock: TEMPAE_clean_linker_10, # of connection points: 2
#     Edge 35, Type (0, 1), BuildingBlock: TEMPAE_clean_linker_10, # of connection points: 2
# Relax obj value: 0.179
# Max RMSD: 0.104
# Mean RMSD: 0.081
data_MOF--net-zzz--node1-KUMBUR_clean_sbu_1--node2-BETDAH_clean_linker_0--edge1-TEMPAE_clean_linker_10
_symmetry_space_group_name_H-M    P1
_symmetry_Int_Tables_number       1
_symmetry_cell_setting            triclinic
loop_
_symmetry_equiv_pos_as_xyz
'x, y, z'
_cell_length_a     50.253384
_cell_length_b     50.312322
_cell_length_c     15.975152
_cell_angle_alpha  89.908537
_cell_angle_beta   89.761267
_cell_angle_gamma 90.310278
loop_
_atom_site_label
_atom_site_type_symbol
_atom_site_fract_x
_atom_site_fract_y
_atom_site_fract_z
_atom_type_partial_charge
H0 H 0.83788 0.57192 0.18171 0.0
H1 H 0.7593 0.55375 0.10053 0.0
H2 H 0.77706 0.55202 0.36341 0.0
C3 C 0.8179 0.56582 0.19851 0.0
C4 C 0.81121 0.55997 0.28216 0.0
C5 C 0.8001 0.56106 0.13293 0.0
C6 C 0.77314 0.55707 0.15117 0.0
C7 C 0.76439 0.55562 0.23471 0.0
C8 C 0.78368 0.55573 0.29996 0.0
N9 N 0.73668 0.55242 0.25406 0.0
C10 C 0.71592 0.55296 0.19518 0.0
H11 H 0.98783 0.83577 0.2509 0.0
H12 H 0.98205 0.75419 0.17413 0.0
H13 H 1.01567 0.77433 0.41434 0.0
C14 C 0.99017 0.8148 0.26443 0.0
C15 C 1.00193 0.80765 0.34032 0.0
C16 C 0.983 0.7958 0.20403 0.0
C17 C 0.98737 0.76881 0.2208 0.0
C18 C 0.99939 0.76073 0.29595 0.0
C19 C 1.0062 0.7803 0.35657 0.0
N20 N 1.0057 0.73336 0.31011 0.0
C21 C 1.00393 0.71314 0.24956 0.0
H22 H 0.71927 0.02445 0.26721 0.0
H23 H 0.79796 0.02026 0.16328 0.0
H24 H 0.78522 1.0093 0.42974 0.0
C25 C 0.74047 0.02168 0.27617 0.0
C26 C 0.74982 1.01667 0.35647 0.0
C27 C 0.75764 0.02319 0.20709 0.0
C28 C 0.78496 1.01923 0.21745 0.0
C29 C 0.79531 1.01434 0.29795 0.0
C30 C 0.77753 1.01312 0.36768 0.0
N31 N 0.82325 1.01064 0.31042 0.0
C32 C 0.84281 1.01155 0.2473 0.0
H33 H 0.57054 0.72542 0.25237 0.0
H34 H 0.56941 0.80411 0.14575 0.0
H35 H 0.53427 0.78883 0.38832 0.0
C36 C 0.56641 0.74648 0.25752 0.0
C37 C 0.55297 0.75506 0.32903 0.0
C38 C 0.57215 0.7637 0.19027 0.0
C39 C 0.56504 0.79065 0.19696 0.0
C40 C 0.55135 0.80002 0.2681 0.0
C41 C 0.5452 0.78197 0.33398 0.0
N42 N 0.54284 0.82707 0.27398 0.0
C43 C 0.5451 0.84644 0.21076 0.0
H44 H 0.21777 0.50494 0.1738 0.0
H45 H 0.30004 0.49926 0.24151 0.0
H46 H 0.2777 0.50436 0.9814 0.0
C47 C 0.23846 0.50298 0.15556 0.0
C48 C 0.24488 0.50356 0.07015 0.0
C49 C 0.25815 0.50158 0.21757 0.0
C50 C 0.28496 0.50057 0.19364 0.0
C51 C 0.29243 0.50182 0.10891 0.0
C52 C 0.27219 0.50339 0.04695 0.0
N53 N 0.31999 0.50192 0.08543 0.0
C54 C 0.34134 0.50219 0.14232 0.0
H55 H 0.0385 0.2283 0.17977 0.0
H56 H 0.04805 0.31021 0.2472 0.0
H57 H 0.04216 0.28794 0.98737 0.0
C58 C 0.04136 0.24888 0.16164 0.0
C59 C 0.04148 0.2552 0.07617 0.0
C60 C 0.04362 0.26853 0.22367 0.0
C61 C 0.04581 0.2952 0.19957 0.0
C62 C 0.04477 0.30268 0.11503 0.0
C63 C 0.04266 0.28247 0.05293 0.0
N64 N 0.04558 0.33026 0.09217 0.0
C65 C 0.04568 0.35145 0.14986 0.0
H66 H 0.3241 1.01673 0.10391 0.0
H67 H 0.24736 0.02818 0.21597 0.0
H68 H 0.26122 0.05085 0.95784 0.0
C69 C 0.30371 0.02351 0.09844 0.0
C70 C 0.29497 0.03367 0.02188 0.0
C71 C 0.28681 0.02178 0.16822 0.0
C72 C 0.26029 0.0299 0.1618 0.0
C73 C 0.25077 0.04063 0.0862 0.0
C74 C 0.26837 0.04272 0.01634 0.0
N75 N 0.22381 0.04936 0.07885 0.0
C76 C 0.2044 0.04782 0.14237 0.0
H77 H 0.55732 0.33039 0.08546 0.0
H78 H 0.54435 0.25393 0.19697 0.0
H79 H 0.49262 0.2815 0.9993 0.0
C80 C 0.5463 0.31178 0.087 0.0
C81 C 0.52426 0.30862 0.03502 0.0
C82 C 0.55349 0.29218 0.14472 0.0
C83 C 0.53892 0.26851 0.15025 0.0
C84 C 0.51711 0.26408 0.09689 0.0
C85 C 0.50982 0.28435 0.03898 0.0
N86 N 0.50184 0.24002 0.10213 0.0
C87 C 0.50627 0.21918 0.15915 0.0
Tb88 Tb 0.99489 0.04449 0.62657 0.0
C89 C 0.10794 0.05704 0.76758 0.0
N90 N 0.09748 0.03532 0.72905 0.0
C91 C 0.13805 0.02979 0.65101 0.0
C92 C 0.1335 0.06669 0.74645 0.0
C93 C 0.11285 0.02069 0.6754 0.0
C94 C 0.1482 0.05323 0.68531 0.0
C95 C 0.10513 0.08906 0.88063 0.0
C96 C 0.09395 0.06812 0.8338 0.0
C97 C 0.12993 0.09971 0.85689 0.0
C98 C 0.14405 0.08861 0.78974 0.0
Tb99 Tb 0.05505 0.02413 0.77011 0.0
N100 N 0.06999 0.05734 0.85512 0.0
C101 C 0.09149 0.09797 0.95167 0.0
C102 C 0.05715 0.06517 0.9264 0.0
C103 C 0.06753 0.08582 0.97506 0.0
H104 H 0.1057 1.00188 0.65149 0.0
H105 H 0.05713 0.09222 0.0309 0.0
H106 H 0.93861 0.04175 0.73844 0.0
H107 H 1.01494 0.02066 0.30269 0.0
H108 H 0.03882 0.05574 0.94572 0.0
H109 H 0.09974 0.11361 0.99031 0.0
H110 H 0.02397 0.04178 0.43859 0.0
H111 H 0.14977 1.01848 0.60684 0.0
H112 H 0.13871 0.11603 0.89153 0.0
H113 H 0.16354 0.09648 0.77385 0.0
H114 H 0.89462 0.01991 0.72634 0.0
H115 H 0.16789 0.06004 0.66712 0.0
H116 H 0.97327 0.99518 0.28174 0.0
N117 N 0.95283 0.02697 0.62183 0.0
C118 C 0.94665 1.01392 0.54998 0.0
C119 C 0.90915 1.01789 0.67655 0.0
C120 C 0.92157 1.00171 0.53947 0.0
C121 C 0.93415 0.03001 0.68357 0.0
C122 C 0.90294 1.0034 0.60463 0.0
N123 N 0.98859 0.02704 0.49638 0.0
C124 C 1.00605 0.0302 0.43133 0.0
C125 C 0.95877 1.00226 0.40752 0.0
C126 C 0.96496 1.01428 0.48473 0.0
C127 C 0.97727 1.00415 0.34202 0.0
C128 C 1.00085 1.01847 0.35369 0.0
H129 H 0.88346 0.99424 0.59906 0.0
H130 H 0.89655 0.97927 0.45448 0.0
H131 H 0.92914 0.97971 0.3391 0.0
O132 O 1.00299 0.08337 0.58447 0.0
O133 O 1.00876 1.00464 0.59263 0.0
O134 O 0.0364 0.9904 0.70058 0.0
O135 O 0.9628 0.06804 0.58841 0.0
O136 O 0.03615 0.05292 0.58289 0.0
O137 O 0.06054 1.01854 0.6359 0.0
O138 O 0.04736 0.99532 0.86283 0.0
O139 O 0.04577 0.06671 0.7475 0.0
O140 O 1.00049 0.0673 0.74256 0.0
O141 O 0.0874 1.00493 0.82653 0.0
O142 O 1.01748 0.02873 0.83978 0.0
O143 O 0.98439 0.02204 0.74162 0.0
C144 C 0.02058 0.98564 0.63561 0.0
C145 C 0.96936 0.11242 0.62936 0.0
C146 C 0.97137 0.16011 0.64952 0.0
C147 C 0.95459 0.15792 0.71939 0.0
C148 C 0.95309 0.11016 0.70103 0.0
C149 C 0.94573 0.13288 0.74563 0.0
C150 C 0.97859 0.1374 0.60464 0.0
C151 C 0.05666 0.03673 0.57859 0.0
C152 C 0.97771 0.08906 0.58117 0.0
C153 C 0.91565 0.98892 0.46358 0.0
C154 C 0.93419 0.98922 0.39776 0.0
C155 C 0.02311 0.07903 0.7611 0.0
C156 C 0.07744 0.95963 0.84745 0.0
C157 C 0.06248 0.91359 0.84784 0.0
C158 C 0.08646 0.90584 0.81039 0.0
C159 C 0.1014 0.95164 0.8091 0.0
C160 C 0.05806 0.94036 0.86655 0.0
C161 C 0.10576 0.9249 0.79048 0.0
C162 C 0.99305 0.02161 0.81953 0.0
C163 C 0.07216 0.98794 0.86479 0.0
H164 H 0.94823 0.17547 0.75297 0.0
H165 H 0.94609 0.09094 0.72259 0.0
H166 H 0.93304 0.13108 0.80028 0.0
H167 H 0.9914 0.13924 0.55 0.0
H168 H 0.0903 0.88508 0.79744 0.0
H169 H 0.11675 0.966 0.79325 0.0
H170 H 0.03967 0.94604 0.89734 0.0
H171 H 0.12424 0.9189 0.76123 0.0
Tb172 Tb 0.5313 0.05772 0.75896 0.0
C173 C 0.53361 0.94588 0.64939 0.0
N174 N 0.54193 0.96818 0.60834 0.0
C175 C 0.58354 0.94691 0.5768 0.0
C176 C 0.55043 0.92373 0.65908 0.0
C177 C 0.56581 0.968 0.5668 0.0
C178 C 0.57602 0.92488 0.62462 0.0
C179 C 0.49729 0.92114 0.71374 0.0
C180 C 0.50748 0.94453 0.67677 0.0
C181 C 0.5142 0.8994 0.72611 0.0
C182 C 0.54078 0.90075 0.69941 0.0
Tb183 Tb 0.51089 1.0016 0.59921 0.0
N184 N 0.49187 0.96617 0.66572 0.0
C185 C 0.47033 0.92024 0.73608 0.0
C186 C 0.46529 0.96504 0.68388 0.0
C187 C 0.4542 0.9422 0.72022 0.0
H188 H 0.57112 0.9835 0.52319 0.0
H189 H 0.4332 0.94149 0.73547 0.0
H190 H 0.47777 0.09466 0.77484 0.0
H191 H 0.63444 0.08722 0.71676 0.0
H192 H 0.45259 0.98165 0.66975 0.0
H193 H 0.46172 0.90259 0.76442 0.0
H194 H 0.598 0.05891 0.77024 0.0
H195 H 0.60269 0.94733 0.54552 0.0
H196 H 0.50681 0.8813 0.75502 0.0
H197 H 0.55347 0.88363 0.7079 0.0
H198 H 0.46411 0.14037 0.73633 0.0
H199 H 0.58958 0.90833 0.63085 0.0
H200 H 0.62427 0.12999 0.64749 0.0
N201 N 0.51685 0.09921 0.72531 0.0
C202 C 0.53532 0.11615 0.69314 0.0
C203 C 0.48413 0.13372 0.72317 0.0
C204 C 0.52857 0.14232 0.6705 0.0
C205 C 0.49185 0.10792 0.74471 0.0
C206 C 0.50244 0.15086 0.68448 0.0
N207 N 0.56728 0.08349 0.72154 0.0
C208 C 0.5932 0.07683 0.73638 0.0
C209 C 0.58163 0.12527 0.66181 0.0
C210 C 0.56143 0.10777 0.68953 0.0
C211 C 0.60815 0.11719 0.66833 0.0
C212 C 0.61397 0.09308 0.70748 0.0
H213 H 0.49645 0.17084 0.66801 0.0
H214 H 0.54359 0.17956 0.62048 0.0
H215 H 0.59001 0.16445 0.61106 0.0
O216 O 0.54553 0.08062 0.85897 0.0
O217 O 0.50854 0.06793 0.64521 0.0
O218 O 0.52282 0.03987 0.54238 0.0
O219 O 0.51459 0.05175 0.87861 0.0
O220 O 0.56347 0.03252 0.70756 0.0
O221 O 0.54952 0.02163 0.57502 0.0
O222 O 0.47791 1.00146 0.51841 0.0
O223 O 0.50968 0.99556 0.73652 0.0
O224 O 0.54617 1.01749 0.78358 0.0
O225 O 0.51252 0.97834 0.49015 0.0
O226 O 0.47668 0.02534 0.64427 0.0
O227 O 0.49021 0.04292 0.77183 0.0
C228 C 0.51581 0.06377 0.56724 0.0
C229 C 0.54577 0.05735 0.98524 0.0
C230 C 0.58631 0.03743 0.03925 0.0
C231 C 0.57669 0.04177 0.12133 0.0
C232 C 0.53644 0.06135 0.06681 0.0
C233 C 0.55173 0.05316 0.13467 0.0
C234 C 0.56999 0.04437 0.97169 0.0
C235 C 0.5687 0.02747 0.62824 0.0
C236 C 0.53115 0.06804 0.91405 0.0
C237 C 0.54835 0.15937 0.63839 0.0
C238 C 0.57481 0.15078 0.6333 0.0
C239 C 0.53017 0.99682 0.7872 0.0
C240 C 0.47065 0.95803 0.46711 0.0
C241 C 0.42645 0.93817 0.45739 0.0
C242 C 0.4376 0.91274 0.46106 0.0
C243 C 0.48161 0.93234 0.47153 0.0
C244 C 0.44299 0.96068 0.46035 0.0
C245 C 0.46511 0.9099 0.46883 0.0
C246 C 0.47145 0.03486 0.71987 0.0
C247 C 0.48754 0.98211 0.47386 0.0
H248 H 0.58871 0.03742 0.17563 0.0
H249 H 0.51763 0.07119 0.07794 0.0
H250 H 0.54465 0.05649 0.19785 0.0
H251 H 0.57644 0.0407 0.90803 0.0
H252 H 0.42506 0.89521 0.45719 0.0
H253 H 0.50287 0.92952 0.47766 0.0
H254 H 0.43426 0.98031 0.45599 0.0
H255 H 0.47371 0.89025 0.47211 0.0
Tb256 Tb 0.55563 0.51942 0.59139 0.0
C257 C 0.47458 0.49998 0.86881 0.0
N258 N 0.47103 0.51055 0.79139 0.0
C259 C 0.43191 0.48378 0.77233 0.0
C260 C 0.45755 0.47986 0.89959 0.0
C261 C 0.44938 0.50371 0.74448 0.0
C262 C 0.43623 0.47153 0.84971 0.0
C263 C 0.49824 0.5007 1.00048 0.0
C264 C 0.49467 0.51031 0.91829 0.0
C265 C 0.48233 0.47958 0.02993 0.0
C266 C 0.46195 0.46925 0.97968 0.0
Tb267 Tb 0.50013 0.54322 0.75244 0.0
N268 N 0.509 0.53135 0.88859 0.0
C269 C 0.5167 0.51352 0.05203 0.0
C270 C 0.52463 0.54571 0.94224 0.0
C271 C 0.5295 0.5365 0.02339 0.0
H272 H 0.44589 0.51334 0.68505 0.0
H273 H 0.54264 0.54749 0.0644 0.0
H274 H 0.60144 0.55669 0.69458 0.0
H275 H 0.52766 0.51669 0.26623 0.0
H276 H 0.53311 0.56456 0.92349 0.0
H277 H 0.52011 0.50669 0.11538 0.0
H278 H 0.52745 0.50143 0.41267 0.0
H279 H 0.41512 0.47792 0.73423 0.0
H280 H 0.48496 0.47177 0.09261 0.0
H281 H 0.44928 0.45355 1.00416 0.0
H282 H 0.62863 0.59595 0.66513 0.0
H283 H 0.42268 0.45611 0.8711 0.0
H284 H 0.55536 0.55532 0.22418 0.0
N285 N 0.58358 0.55529 0.57393 0.0
C286 C 0.5848 0.56495 0.49413 0.0
C287 C 0.61607 0.58768 0.61673 0.0
C288 C 0.60113 0.58691 0.47346 0.0
C289 C 0.59988 0.56563 0.63401 0.0
C290 C 0.61646 0.59858 0.53642 0.0
N291 N 0.55354 0.53202 0.45477 0.0
C292 C 0.53899 0.51879 0.39596 0.0
C293 C 0.57055 0.56191 0.34914 0.0
C294 C 0.56957 0.55271 0.43255 0.0
C295 C 0.55511 0.54889 0.28894 0.0
C296 C 0.53937 0.52715 0.31245 0.0
H297 H 0.62917 0.61555 0.52319 0.0
H298 H 0.61424 0.61326 0.37384 0.0
H299 H 0.58766 0.59125 0.26498 0.0
O300 O 0.56208 0.48337 0.52711 0.0
O301 O 0.53401 0.55689 0.56718 0.0
O302 O 0.52703 0.5734 0.69841 0.0
O303 O 0.59484 0.50671 0.57496 0.0
O304 O 0.51459 0.50609 0.56059 0.0
O305 O 0.4872 0.53793 0.62171 0.0
O306 O 0.47776 0.56412 0.84134 0.0
O307 O 0.50318 0.50054 0.72104 0.0
O308 O 0.54751 0.49381 0.70054 0.0
O309 O 0.47083 0.5699 0.71031 0.0
O310 O 0.54169 0.55494 0.78043 0.0
O311 O 0.56802 0.52224 0.72309 0.0
C312 C 0.52983 0.57721 0.61729 0.0
C313 C 0.60349 0.48065 0.4556 0.0
C314 C 0.62194 0.44801 0.35995 0.0
C315 C 0.6341 0.46842 0.31354 0.0
C316 C 0.61639 0.50097 0.41023 0.0
C317 C 0.63154 0.4948 0.33935 0.0
C318 C 0.60664 0.45424 0.43067 0.0
C319 C 0.49219 0.52001 0.56314 0.0
C320 C 0.58788 0.48599 0.53162 0.0
C321 C 0.60188 0.59636 0.39067 0.0
C322 C 0.58675 0.58381 0.32863 0.0
C323 C 0.52435 0.48561 0.72898 0.0
C324 C 0.46583 0.60689 0.79849 0.0
C325 C 0.48731 0.64682 0.85176 0.0
C326 C 0.46469 0.66156 0.8298 0.0
C327 C 0.44352 0.62185 0.77622 0.0
C328 C 0.48791 0.61949 0.83528 0.0
C329 C 0.44302 0.64913 0.79161 0.0
C330 C 0.56276 0.53942 0.78298 0.0
C331 C 0.46546 0.57808 0.7855 0.0
H332 H 0.64561 0.46393 0.25789 0.0
H333 H 0.61506 0.52147 0.42976 0.0
H334 H 0.64136 0.51047 0.30453 0.0
H335 H 0.59683 0.43846 0.4657 0.0
H336 H 0.46392 0.68274 0.84156 0.0
H337 H 0.42641 0.61238 0.74762 0.0
H338 H 0.50529 0.60804 0.85244 0.0
H339 H 0.42573 0.66064 0.77452 0.0
Tb340 Tb 0.03679 0.56199 0.62611 0.0
C341 C 0.05456 0.47362 0.8752 0.0
N342 N 0.04347 0.47278 0.79769 0.0
C343 C 0.07057 0.43536 0.76151 0.0
C344 C 0.07456 0.45554 0.89827 0.0
C345 C 0.05061 0.45353 0.74158 0.0
C346 C 0.08272 0.43647 0.83996 0.0
C347 C 0.05626 0.49363 0.01302 0.0
C348 C 0.04576 0.49278 0.9312 0.0
C349 C 0.07643 0.47587 0.03602 0.0
C350 C 0.08553 0.45686 0.97883 0.0
Tb351 Tb 1.01125 0.5036 0.77228 0.0
N352 N 0.0259 0.50945 0.90722 0.0
C353 C 0.0454 0.51154 0.07045 0.0
C354 C 1.0135 0.52485 0.96605 0.0
C355 C 0.02358 0.52685 0.04727 0.0
H356 H 0.04106 0.45245 0.68125 0.0
H357 H 1.01405 0.53967 0.09263 0.0
H358 H 1.0143 0.61532 0.7249 0.0
H359 H 0.02307 0.52738 0.30685 0.0
H360 H 0.99529 0.53513 0.95209 0.0
H361 H 0.05286 0.51276 0.13389 0.0
H362 H 0.04498 0.52917 0.44308 0.0
H363 H 0.07649 0.42043 0.71652 0.0
H364 H 0.08473 0.47629 0.09852 0.0
H365 H 0.10079 0.44303 0.99794 0.0
H366 H 0.98323 0.65201 0.69614 0.0
H367 H 0.09812 0.4223 0.85528 0.0
H368 H 0.98765 0.55947 0.27276 0.0
N369 N 1.00848 0.59678 0.60674 0.0
C370 C 0.99651 0.5981 0.53067 0.0
C371 C 0.98671 0.63691 0.64921 0.0
C372 C 0.97879 0.61883 0.51131 0.0
C373 C 1.0041 0.61595 0.66566 0.0
C374 C 0.97396 0.63834 0.5718 0.0
N375 N 0.01919 0.5587 0.49372 0.0
C376 C 0.02809 0.54176 0.43294 0.0
C377 C 0.98948 0.57886 0.3935 0.0
C378 C 1.00159 0.57814 0.47307 0.0
C379 C 0.99648 0.55961 0.33453 0.0
C380 C 1.01631 0.54134 0.35377 0.0
H381 H 0.96042 0.65456 0.5594 0.0
H382 H 0.95242 0.63489 0.4171 0.0
H383 H 0.96194 0.60002 0.31369 0.0
O384 O 0.07199 0.56454 0.55493 0.0
O385 O 0.99329 0.5592 0.64832 0.0
O386 O 0.98488 0.51481 0.66845 0.0
O387 O 0.05536 0.59928 0.61211 0.0
O388 O 0.0458 0.52036 0.58725 0.0
O389 O 1.01132 0.49458 0.63861 0.0
O390 O 0.97667 0.49616 0.84345 0.0
O391 O 0.05446 0.50754 0.74436 0.0
O392 O 0.06184 0.55213 0.73465 0.0
O393 O 0.99593 0.46463 0.77777 0.0
O394 O 1.00077 0.54508 0.80885 0.0
O395 O 0.03569 0.57078 0.76009 0.0
C396 C 0.97737 0.53845 0.64295 0.0
C397 C 0.10181 0.59384 0.62044 0.0
C398 C 0.14911 0.58441 0.62908 0.0
C399 C 0.15013 0.59643 0.70807 0.0
C400 C 0.10296 0.60576 0.70013 0.0
C401 C 0.12708 0.60716 0.74327 0.0
C402 C 0.12505 0.58355 0.58518 0.0
C403 C 0.03022 0.49908 0.5832 0.0
C404 C 0.0763 0.58902 0.5777 0.0
C405 C 0.96622 0.61922 0.43298 0.0
C406 C 0.9715 0.59925 0.37431 0.0
C407 C 0.06969 0.52838 0.75737 0.0
C408 C 0.9492 0.46525 0.77166 0.0
C409 C 0.90441 0.47771 0.72718 0.0
C410 C 0.90281 0.45435 0.67946 0.0
C411 C 0.94721 0.44202 0.72328 0.0
C412 C 0.9276 0.48281 0.77367 0.0
C413 C 0.92416 0.43668 0.67744 0.0
C414 C 1.0163 0.56636 0.81403 0.0
C415 C 0.97431 0.47201 0.81523 0.0
H416 H 0.1687 0.59765 0.74194 0.0
H417 H 0.08522 0.61349 0.72994 0.0
H418 H 0.12783 0.61626 0.80458 0.0
H419 H 0.1242 0.57377 0.52473 0.0
H420 H 0.88514 0.4498 0.64353 0.0
H421 H 0.96357 0.42812 0.72014 0.0
H422 H 0.92868 0.50041 0.81253 0.0
H423 H 0.92286 0.41879 0.64011 0.0
C424 C 0.1877 0.05009 0.28939 0.0
C425 C 0.18269 0.04691 0.20376 0.0
C426 C 0.16676 0.04944 0.34883 0.0
C427 C 0.14009 0.04532 0.32225 0.0
C428 C 0.13506 0.04229 0.23534 0.0
C429 C 0.15637 0.04316 0.17737 0.0
C430 C 0.17333 0.05265 0.44036 0.0
C431 C 0.10715 0.03785 0.20354 0.0
C432 C 0.0905 1.01646 0.48174 0.0
C433 C 0.07654 0.03903 0.50873 0.0
C434 C 0.11089 1.01822 0.42105 0.0
C435 C 0.11768 0.04318 0.38535 0.0
C436 C 0.10319 0.06599 0.41083 0.0
C437 C 0.08275 0.06363 0.47171 0.0
C438 C 0.12547 0.99329 0.39608 0.0
C439 C 0.10973 0.09304 0.37523 0.0
H440 H 0.20803 0.05304 0.31001 0.0
H441 H 0.15243 0.04079 0.11109 0.0
H442 H 0.15948 0.06678 0.47088 0.0
H443 H 0.171 0.03319 0.47233 0.0
H444 H 0.19406 0.05976 0.44989 0.0
H445 H 0.10638 0.03672 0.13414 0.0
H446 H 0.09896 1.01909 0.22993 0.0
H447 H 0.09401 0.05419 0.2247 0.0
H448 H 0.0856 0.99728 0.50889 0.0
H449 H 0.07217 0.08119 0.49214 0.0
H450 H 0.14679 0.99517 0.41288 0.0
H451 H 0.12445 0.99052 0.32728 0.0
H452 H 0.11719 0.97526 0.42713 0.0
H453 H 0.13053 0.09849 0.39118 0.0
H454 H 0.09625 0.1087 0.39946 0.0
H455 H 0.10835 0.09262 0.30596 0.0
C456 C 0.52544 0.19767 0.28612 0.0
C457 C 0.50886 0.19643 0.21591 0.0
C458 C 0.52751 0.17595 0.34202 0.0
C459 C 0.5124 0.15241 0.32814 0.0
C460 C 0.4958 0.15112 0.25651 0.0
C461 C 0.49426 0.17308 0.20145 0.0
C462 C 0.54526 0.17865 0.41738 0.0
C463 C 0.47933 0.12663 0.23857 0.0
C464 C 0.53216 0.08705 0.43629 0.0
C465 C 0.51462 0.08605 0.50494 0.0
C466 C 0.53183 0.10849 0.37888 0.0
C467 C 0.51331 0.12947 0.38939 0.0
C468 C 0.49541 0.12835 0.45826 0.0
C469 C 0.49622 0.10671 0.51459 0.0
C470 C 0.55154 0.10884 0.3074 0.0
C471 C 0.47535 0.15008 0.47272 0.0
H472 H 0.53667 0.21573 0.29789 0.0
H473 H 0.48139 0.17205 0.14722 0.0
H474 H 0.5327 0.18266 0.47306 0.0
H475 H 0.55641 0.16005 0.42929 0.0
H476 H 0.55971 0.1953 0.41028 0.0
H477 H 0.46761 0.12857 0.18009 0.0
H478 H 0.49243 0.10904 0.23293 0.0
H479 H 0.46541 0.12277 0.29138 0.0
H480 H 0.54654 0.07126 0.42824 0.0
H481 H 0.48215 0.10584 0.566 0.0
H482 H 0.56377 0.12725 0.31008 0.0
H483 H 0.54082 0.10901 0.24684 0.0
H484 H 0.56502 0.09141 0.3086 0.0
H485 H 0.48586 0.16918 0.48402 0.0
H486 H 0.46215 0.14585 0.52715 0.0
H487 H 0.46286 0.15271 0.41623 0.0
C488 C 0.36162 0.49297 0.28156 0.0
C489 C 0.36403 0.5029 0.19982 0.0
C490 C 0.38313 0.49422 0.33827 0.0
C491 C 0.40779 0.5057 0.31299 0.0
C492 C 0.41039 0.51523 0.22955 0.0
C493 C 0.38852 0.51374 0.17422 0.0
C494 C 0.3793 0.48361 0.42593 0.0
C495 C 0.43613 0.52756 0.19914 0.0
C496 C 0.45151 0.53545 0.48566 0.0
C497 C 0.47121 0.51603 0.49729 0.0
C498 C 0.43123 0.53245 0.42561 0.0
C499 C 0.43011 0.50929 0.37532 0.0
C500 C 0.45001 0.4896 0.38619 0.0
C501 C 0.47028 0.49322 0.44664 0.0
C502 C 0.41085 0.55419 0.41621 0.0
C503 C 0.44969 0.46453 0.33455 0.0
H504 H 0.34281 0.4844 0.30157 0.0
H505 H 0.39052 0.52134 0.11093 0.0
H506 H 0.39503 0.46897 0.44067 0.0
H507 H 0.38115 0.50008 0.47167 0.0
H508 H 0.35955 0.47395 0.43467 0.0
H509 H 0.43547 0.5328 0.13159 0.0
H510 H 0.44043 0.54585 0.23553 0.0
H511 H 0.4529 0.51371 0.20946 0.0
H512 H 0.45194 0.55331 0.52348 0.0
H513 H 0.48515 0.47795 0.45508 0.0
H514 H 0.39069 0.54623 0.43016 0.0
H515 H 0.41071 0.5615 0.35064 0.0
H516 H 0.41478 0.57129 0.45841 0.0
H517 H 0.43076 0.45358 0.34527 0.0
H518 H 0.46654 0.4512 0.34978 0.0
H519 H 0.45067 0.46957 0.26697 0.0
C520 C 0.05219 0.36984 0.2934 0.0
C521 C 0.04534 0.37371 0.20927 0.0
C522 C 0.05107 0.39086 0.35191 0.0
C523 C 0.04297 0.4166 0.32605 0.0
C524 C 0.03662 0.42069 0.24038 0.0
C525 C 0.03783 0.39924 0.18327 0.0
C526 C 0.05817 0.38538 0.44199 0.0
C527 C 0.02804 0.44765 0.20924 0.0
C528 C 1.01266 0.46148 0.4949 0.0
C529 C 0.03376 0.47879 0.51501 0.0
C530 C 1.01529 0.44169 0.433 0.0
C531 C 0.03975 0.43866 0.38955 0.0
C532 C 0.06113 0.45618 0.40901 0.0
C533 C 0.05789 0.47597 0.4712 0.0
C534 C 0.9918 0.42382 0.41463 0.0
C535 C 0.0876 0.45376 0.36492 0.0
H536 H 0.05827 0.35028 0.31398 0.0
H537 H 0.03264 0.4024 0.11821 0.0
H538 H 0.07394 0.39937 0.46284 0.0
H539 H 0.04054 0.38866 0.48261 0.0
H540 H 0.06523 0.36471 0.45161 0.0
H541 H 0.02508 0.448 0.14036 0.0
H542 H 1.00913 0.45338 0.24025 0.0
H543 H 0.04313 0.46292 0.22574 0.0
H544 H 0.99383 0.46342 0.52763 0.0
H545 H 0.07441 0.489 0.48636 0.0
H546 H 0.997 0.40287 0.42839 0.0
H547 H 0.98671 0.42499 0.34722 0.0
H548 H 0.97392 0.42915 0.45204 0.0
H549 H 0.09614 0.43383 0.37693 0.0
H550 H 0.10211 0.46911 0.38569 0.0
H551 H 0.08489 0.45563 0.29628 0.0
C552 C 0.86625 0.03196 0.12518 0.0
C553 C 0.8647 1.01207 0.18651 0.0
C554 C 0.88765 0.03296 0.06749 0.0
C555 C 0.90806 1.01355 0.07089 0.0
C556 C 0.90645 0.9934 0.1331 0.0
C557 C 0.88487 0.99297 0.19014 0.0
C558 C 0.88845 0.05486 1.00285 0.0
C559 C 0.92749 0.97221 0.13921 0.0
C560 C 0.94948 1.00261 0.87162 0.0
C561 C 0.97263 1.01756 0.88723 0.0
C562 C 0.92863 1.00085 0.93087 0.0
C563 C 0.93082 1.01418 1.00876 0.0
C564 C 0.95456 0.02857 0.02613 0.0
C565 C 0.9751 0.03006 0.96546 0.0
C566 C 0.90397 0.98509 0.90922 0.0
C567 C 0.95797 0.04306 0.10806 0.0
H568 H 0.85073 0.04683 0.12248 0.0
H569 H 0.88379 0.97763 0.23784 0.0
H570 H 0.9071 0.06657 1.00933 0.0
H571 H 0.88846 0.04618 0.93904 0.0
H572 H 0.87126 0.06854 1.0086 0.0
H573 H 0.92352 0.958 0.19113 0.0
H574 H 0.92856 0.96095 0.07965 0.0
H575 H 0.94729 0.98153 0.14904 0.0
H576 H 0.94751 0.99244 0.81222 0.0
H577 H 0.99273 0.04179 0.9784 0.0
H578 H 0.88649 0.99846 0.90773 0.0
H579 H 0.90003 0.96982 0.95795 0.0
H580 H 0.90568 0.97508 0.8475 0.0
H581 H 0.94291 0.05903 0.1131 0.0
H582 H 0.97809 0.05211 0.11418 0.0
H583 H 0.95461 0.02927 0.16135 0.0
C584 C 0.55093 0.86448 0.06605 0.0
C585 C 0.54551 0.8686 0.15112 0.0
C586 C 0.55018 0.88571 1.00793 0.0
C587 C 0.54357 0.91176 0.03518 0.0
C588 C 0.53854 0.91595 0.1217 0.0
C589 C 0.53957 0.89439 0.17836 0.0
C590 C 0.55548 0.87991 0.91683 0.0
C591 C 0.53138 0.94315 0.15424 0.0
C592 C 0.55844 0.97169 0.89154 0.0
C593 C 0.53368 0.97596 0.8534 0.0
C594 C 0.56198 0.9511 0.95093 0.0
C595 C 0.54028 0.9342 0.97301 0.0
C596 C 0.51516 0.93887 0.9358 0.0
C597 C 0.51216 0.95973 0.87762 0.0
C598 C 0.58907 0.94719 0.98916 0.0
C599 C 0.4914 0.92157 0.9565 0.0
H600 H 0.55541 0.84455 0.0446 0.0
H601 H 0.53531 0.89765 0.24415 0.0
H602 H 0.53621 0.8786 0.8836 0.0
H603 H 0.5674 0.89601 0.88711 0.0
H604 H 0.56605 0.86076 0.90827 0.0
H605 H 0.52939 0.9435 0.22352 0.0
H606 H 0.54675 0.95791 0.13519 0.0
H607 H 0.51226 0.94958 0.12646 0.0
H608 H 0.5752 0.98417 0.87397 0.0
H609 H 0.49276 0.96329 0.85072 0.0
H610 H 0.59655 0.92709 0.97333 0.0
H611 H 0.58766 0.94837 0.05838 0.0
H612 H 0.60376 0.96225 0.96701 0.0
H613 H 0.49506 0.90104 0.93413 0.0
H614 H 0.47283 0.92893 0.92716 0.0
H615 H 0.48834 0.92055 0.02525 0.0
C616 C 0.66722 0.54926 0.16964 0.0
C617 C 0.69308 0.55304 0.13832 0.0
C618 C 0.64496 0.54834 0.1158 0.0
C619 C 0.64855 0.55142 0.02806 0.0
C620 C 0.67469 0.55591 0.9966 0.0
C621 C 0.69659 0.55658 0.05194 0.0
C622 C 0.61771 0.54327 0.15281 0.0
C623 C 0.67962 0.55962 0.90406 0.0
C624 C 0.59856 0.52077 0.87489 0.0
C625 C 0.58332 0.54272 0.85004 0.0
C626 C 0.61919 0.52325 0.93398 0.0
C627 C 0.62535 0.54846 0.96876 0.0
C628 C 0.60976 0.5707 0.94482 0.0
C629 C 0.58891 0.56755 0.88623 0.0
C630 C 0.63465 0.49881 0.95843 0.0
C631 C 0.61545 0.59796 0.97985 0.0
H632 H 0.66442 0.54679 0.2365 0.0
H633 H 0.7165 0.55968 0.02736 0.0
H634 H 0.60292 0.55726 0.12657 0.0
H635 H 0.61109 0.52286 0.13655 0.0
H636 H 0.61762 0.5452 0.22203 0.0
H637 H 0.70076 0.56443 0.88981 0.0
H638 H 0.67408 0.54119 0.8701 0.0
H639 H 0.66693 0.57582 0.87955 0.0
H640 H 0.59432 0.50146 0.84784 0.0
H641 H 0.57746 0.58469 0.86696 0.0
H642 H 0.63412 0.49619 0.0274 0.0
H643 H 0.65581 0.50125 0.93977 0.0
H644 H 0.62669 0.48048 0.92875 0.0
H645 H 0.61463 0.59741 0.04925 0.0
H646 H 0.60113 0.61308 0.95715 0.0
H647 H 0.63586 0.60431 0.9618 0.0
C648 C 0.99868 0.69596 0.10417 0.0
C649 C 1.00335 0.6912 0.1893 0.0
C650 C 0.99909 0.67505 0.04514 0.0
C651 C 1.00453 0.64864 0.07148 0.0
C652 C 1.00893 0.64379 0.15795 0.0
C653 C 1.00819 0.66506 0.21565 0.0
C654 C 0.99421 0.68132 0.9541 0.0
C655 C 1.01493 0.61616 0.18941 0.0
C656 C 0.98826 0.59062 0.92245 0.0
C657 C 1.0129 0.58628 0.8831 0.0
C658 C 0.98521 0.61057 0.98423 0.0
C659 C 1.00734 0.62656 1.00797 0.0
C660 C 0.03233 0.6218 0.96943 0.0
C661 C 0.03473 0.60198 0.90768 0.0
C662 C 0.95818 0.61487 0.02306 0.0
C663 C 0.05664 0.63785 0.99294 0.0
H664 H 0.99498 0.71612 0.0834 0.0
H665 H 1.01177 0.66129 0.2815 0.0
H666 H 1.01237 0.67703 0.9169 0.0
H667 H 0.97802 0.66849 0.92947 0.0
H668 H 0.98875 0.70246 0.94416 0.0
H669 H 0.01866 0.61575 0.25789 0.0
H670 H 0.99801 0.60267 0.1754 0.0
H671 H 0.03267 0.60816 0.15666 0.0
H672 H 0.97121 0.5788 0.90369 0.0
H673 H 0.05395 0.59877 0.87844 0.0
H674 H 0.95141 0.63542 1.00995 0.0
H675 H 0.95937 0.61269 0.09205 0.0
H676 H 0.94304 0.60067 0.999 0.0
H677 H 0.05336 0.65914 0.97835 0.0
H678 H 0.07481 0.63117 0.95931 0.0
H679 H 0.0602 0.63632 0.06128 0.0
C680 C 0.02703 0.27698 0.37003 0.0
C681 C 0.0413 0.26102 0.31348 0.0
C682 C 0.0192 0.26703 0.44834 0.0
C683 C 0.02437 0.24017 0.46775 0.0
C684 C 0.04158 0.2252 0.41591 0.0
C685 C 0.05051 0.23619 0.34045 0.0
C686 C 1.00331 0.28446 0.50654 0.0
C687 C 0.04821 0.19656 0.43521 0.0
C688 C 1.00454 0.19672 0.64904 0.0
C689 C 0.98082 0.18587 0.61865 0.0
C690 C 1.01733 0.21753 0.60642 0.0
C691 C 1.00717 0.22585 0.52828 0.0
C692 C 0.98233 0.21585 0.49991 0.0
C693 C 0.9692 0.19627 0.54668 0.0
C694 C 0.04264 0.22891 0.64241 0.0
C695 C 0.97097 0.22356 0.41585 0.0
H696 H 0.02024 0.29651 0.3515 0.0
H697 H 0.06299 0.22441 0.29949 0.0
H698 H 0.9818 0.28224 0.49279 0.0
H699 H 1.00656 0.27885 0.57296 0.0
H700 H 1.00872 0.30573 0.49787 0.0
H701 H 0.0617 0.18771 0.38768 0.0
H702 H 0.05793 0.19515 0.49714 0.0
H703 H 0.02969 0.18445 0.4379 0.0
H704 H 1.01398 0.18793 0.70304 0.0
H705 H 0.95104 0.18732 0.52306 0.0
H706 H 0.04068 0.23101 0.7114 0.0
H707 H 0.04775 0.24859 0.61512 0.0
H708 H 0.05931 0.21505 0.63059 0.0
H709 H 0.96819 0.24536 0.41245 0.0
H710 H 0.95149 0.21381 0.40352 0.0
H711 H 0.98502 0.21791 0.36516 0.0
C712 C 0.28761 0.98711 0.28031 0.0
C713 C 0.29774 1.01081 0.24649 0.0
C714 C 0.30278 0.97223 0.33717 0.0
C715 C 0.32863 0.98122 0.3585 0.0
C716 C 0.33736 1.00675 0.33214 0.0
C717 C 0.32162 0.02132 0.27693 0.0
C718 C 0.2921 0.94584 0.36737 0.0
C719 C 0.36469 1.01736 0.35374 0.0
C720 C 0.38155 0.95413 0.4999 0.0
C721 C 0.39798 0.94182 0.44067 0.0
C722 C 0.35655 0.96397 0.47665 0.0
C723 C 0.34878 0.96257 0.39177 0.0
C724 C 0.36432 0.94788 0.33397 0.0
C725 C 0.3887 0.93739 0.35963 0.0
C726 C 0.33943 0.97766 0.541 0.0
C727 C 0.3568 0.94582 0.24273 0.0
H728 H 0.26895 0.97912 0.25724 0.0
H729 H 0.32912 0.03992 0.25147 0.0
H730 H 0.297 0.93026 0.32081 0.0
H731 H 0.30084 0.94003 0.42834 0.0
H732 H 0.27009 0.94643 0.37377 0.0
H733 H 0.36755 0.03829 0.33316 0.0
H734 H 0.36808 1.01632 0.42217 0.0
H735 H 0.38011 1.005 0.32289 0.0
H736 H 0.38885 0.95728 0.56293 0.0
H737 H 0.40162 0.92786 0.31426 0.0
H738 H 0.31834 0.97142 0.5341 0.0
H739 H 0.34026 0.99947 0.5312 0.0
H740 H 0.34602 0.97321 0.60579 0.0
H741 H 0.33593 0.9389 0.23647 0.0
H742 H 0.36989 0.93196 0.20778 0.0
H743 H 0.3583 0.96574 0.21296 0.0
C744 C 0.56449 0.31164 0.2803 0.0
C745 C 0.57359 0.29952 0.207 0.0
C746 C 0.57962 0.33163 0.31845 0.0
C747 C 0.6045 0.33885 0.2829 0.0
C748 C 0.61581 0.32289 0.21943 0.0
C749 C 0.5999 0.30357 0.18066 0.0
C750 C 0.56704 0.34775 0.38756 0.0
C751 C 0.64312 0.32876 0.18447 0.0
C752 C 0.60956 0.41324 0.25855 0.0
C753 C 0.6229 0.42028 0.33169 0.0
C754 C 0.60475 0.38653 0.23965 0.0
C755 C 0.61425 0.36646 0.29444 0.0
C756 C 0.62986 0.37354 0.36451 0.0
C757 C 0.63354 0.40053 0.38338 0.0
C758 C 0.58764 0.38002 0.16464 0.0
C759 C 0.64137 0.35295 0.42256 0.0
H760 H 0.54408 0.30834 0.30034 0.0
H761 H 0.60691 0.29398 0.12403 0.0
H762 H 0.5816 0.35173 0.43798 0.0
H763 H 0.56058 0.36721 0.36205 0.0
H764 H 0.54941 0.33755 0.41518 0.0
H765 H 0.65166 0.311 0.1533 0.0
H766 H 0.64177 0.34491 0.13735 0.0
H767 H 0.65682 0.33547 0.23463 0.0
H768 H 0.60123 0.42871 0.21938 0.0
H769 H 0.64393 0.4062 0.44005 0.0
H770 H 0.56888 0.37032 0.18574 0.0
H771 H 0.59807 0.36593 0.12271 0.0
H772 H 0.58244 0.39797 0.12768 0.0
H773 H 0.64472 0.33369 0.3905 0.0
H774 H 0.62744 0.34955 0.47562 0.0
H775 H 0.66052 0.36001 0.4492 0.0
C776 C 0.2649 0.52123 0.3601 0.0
C777 C 0.25038 0.50437 0.30692 0.0
C778 C 0.25364 0.53045 0.43491 0.0
C779 C 0.22705 0.52353 0.45436 0.0
C780 C 0.21391 0.50358 0.40754 0.0
C781 C 0.22607 0.49378 0.33511 0.0
C782 C 0.26898 0.55007 0.48751 0.0
C783 C 0.18563 0.49525 0.42704 0.0
C784 C 0.18454 0.54997 0.63125 0.0
C785 C 0.17261 0.57171 0.59188 0.0
C786 C 0.20426 0.53522 0.5902 0.0
C787 C 0.21089 0.54166 0.50643 0.0
C788 C 0.19941 0.56421 0.46759 0.0
C789 C 0.18067 0.57917 0.51145 0.0
C790 C 0.2167 0.51204 0.63517 0.0
C791 C 0.20554 0.57161 0.37771 0.0
H792 H 0.28398 0.52918 0.34026 0.0
H793 H 0.21538 0.47966 0.29639 0.0
H794 H 0.26348 0.5706 0.46924 0.0
H795 H 0.26417 0.5475 0.55494 0.0
H796 H 0.29079 0.54785 0.47832 0.0
H797 H 0.17931 0.47767 0.38994 0.0
H798 H 0.18336 0.49048 0.49441 0.0
H799 H 0.17199 0.51192 0.41268 0.0
H800 H 0.17742 0.54356 0.69198 0.0
H801 H 0.17119 0.59595 0.48128 0.0
H802 H 0.23717 0.50809 0.61221 0.0
H803 H 0.20447 0.49394 0.6249 0.0
H804 H 0.21741 0.51563 0.70371 0.0
H805 H 0.22715 0.57541 0.36979 0.0
H806 H 0.19464 0.58961 0.35712 0.0
H807 H 0.20007 0.55493 0.33566 0.0
C808 C 0.96281 0.82956 0.1094 0.0
C809 C 0.97599 0.8052 0.11869 0.0
C810 C 0.96931 0.84645 0.04261 0.0
C811 C 0.98784 0.83763 0.98198 0.0
C812 C 0.99482 0.81047 0.9793 0.0
C813 C 0.9893 0.79449 0.0492 0.0
C814 C 0.96064 0.87508 0.0472 0.0
C815 C 1.01249 0.79974 0.91092 0.0
C816 C 0.02002 0.88793 0.83449 0.0
C817 C 0.04351 0.89353 0.87802 0.0
C818 C 1.0014 0.86965 0.86708 0.0
C819 C 1.00656 0.85722 0.9448 0.0
C820 C 0.03023 0.8634 0.9892 0.0
C821 C 0.04852 0.88128 0.95455 0.0
C822 C 0.9766 0.86336 0.81792 0.0
C823 C 0.03628 0.85139 0.0739 0.0
H824 H 0.95098 0.83721 0.16084 0.0
H825 H 0.99866 0.77519 0.05347 0.0
H826 H 0.97557 0.88655 0.08352 0.0
H827 H 0.95916 0.88424 0.9843 0.0
H828 H 0.94113 0.87688 0.07966 0.0
H829 H 1.01005 0.77787 0.90457 0.0
H830 H 1.00805 0.80936 0.85003 0.0
H831 H 0.0336 0.80396 0.92652 0.0
H832 H 1.01627 0.89783 0.77541 0.0
H833 H 0.06663 0.88616 0.98808 0.0
H834 H 0.95903 0.86058 0.85923 0.0
H835 H 0.97958 0.8444 0.78395 0.0
H836 H 0.97213 0.87924 0.77177 0.0
H837 H 0.01943 0.85462 0.11773 0.0
H838 H 0.05452 0.86001 0.10237 0.0
H839 H 0.03918 0.82965 0.06762 0.0
C840 C 0.73013 0.05163 0.11906 0.0
C841 C 0.74541 0.02858 0.12535 0.0
C842 C 0.70626 0.05134 0.07454 0.0
C843 C 0.69876 0.02794 0.03108 0.0
C844 C 0.71733 1.00708 0.02179 0.0
C845 C 0.74041 1.00731 0.07114 0.0
C846 C 0.68721 0.07417 0.08706 0.0
C847 C 0.71122 0.98293 0.96943 0.0
C848 C 0.62731 1.01313 0.08414 0.0
C849 C 0.61428 0.02871 0.02443 0.0
C850 C 0.65503 1.01072 0.08322 0.0
C851 C 0.66997 0.02286 0.01782 0.0
C852 C 0.65661 0.03486 0.95019 0.0
C853 C 0.629 0.03838 0.9554 0.0
C854 C 0.66828 0.99779 0.15755 0.0
C855 C 0.6716 0.04589 0.87567 0.0
H856 H 0.73443 0.06816 0.16053 0.0
H857 H 0.75256 0.98961 0.07492 0.0
H858 H 0.67852 0.08052 0.02678 0.0
H859 H 0.67058 0.06766 0.1284 0.0
H860 H 0.69702 0.09166 0.11629 0.0
H861 H 0.72981 0.97449 0.94292 0.0
H862 H 0.70181 0.9674 1.00921 0.0
H863 H 0.69741 0.98771 0.91753 0.0
H864 H 0.61607 1.00426 0.13512 0.0
H865 H 0.61953 0.05031 0.90782 0.0
H866 H 0.6789 1.01319 0.19431 0.0
H867 H 0.6831 0.98296 0.13678 0.0
H868 H 0.65376 0.9877 0.19971 0.0
H869 H 0.68022 0.06558 0.89123 0.0
H870 H 0.65831 0.04852 0.82089 0.0
H871 H 0.68826 0.03261 0.85798 0.0
C872 C 0.59413 0.72744 0.10872 0.0
C873 C 0.5803 0.75169 0.10886 0.0
C874 C 0.58776 0.7078 0.04986 0.0
C875 C 0.56913 0.71383 0.98684 0.0
C876 C 0.56213 0.74064 0.97255 0.0
C877 C 0.56716 0.75937 0.03539 0.0
C878 C 0.59728 0.67977 0.06367 0.0
C879 C 0.54504 0.74839 0.89924 0.0
C880 C 0.53547 0.66007 0.85727 0.0
C881 C 0.50993 0.66025 0.89292 0.0
C882 C 0.55557 0.677 0.88732 0.0
C883 C 0.55032 0.69294 0.95832 0.0
C884 C 0.52545 0.69053 1.00046 0.0
C885 C 0.50534 0.67484 0.96567 0.0
C886 C 0.58183 0.67787 0.84121 0.0
C887 C 0.51949 0.70536 0.08063 0.0
H888 H 0.60631 0.72221 0.16207 0.0
H889 H 0.55754 0.77855 0.03145 0.0
H890 H 0.58047 0.66724 0.08637 0.0
H891 H 0.60449 0.67115 1.00399 0.0
H892 H 0.61357 0.67886 0.1104 0.0
H893 H 0.54797 0.76968 0.88287 0.0
H894 H 0.54963 0.73596 0.84368 0.0
H895 H 0.52377 0.74537 0.91586 0.0
H896 H 0.53944 0.64789 0.8031 0.0
H897 H 0.4858 0.67424 0.99477 0.0
H898 H 0.59353 0.66003 0.8584 0.0
H899 H 0.59381 0.69585 0.85563 0.0
H900 H 0.57862 0.67698 0.77254 0.0
H901 H 0.53653 0.70419 0.12441 0.0
H902 H 0.50153 0.69736 0.11297 0.0
H903 H 0.5159 0.72662 0.06634 0.0
C904 C 0.8337 0.53845 0.04524 0.0
C905 C 0.81114 0.55466 0.04902 0.0
C906 C 0.84437 0.53022 0.96918 0.0
C907 C 0.832 0.53806 0.89361 0.0
C908 C 0.8093 0.55466 0.89612 0.0
C909 C 0.79892 0.56261 0.97427 0.0
C910 C 0.86868 0.51253 0.97057 0.0
C911 C 0.79548 0.56348 0.81729 0.0
C912 C 0.88563 0.52334 0.74348 0.0
C913 C 0.88139 0.49585 0.73593 0.0
C914 C 0.86659 0.53945 0.78212 0.0
C915 C 0.84312 0.52758 0.81418 0.0
C916 C 0.83656 0.50122 0.79107 0.0
C917 C 0.85598 0.48544 0.75256 0.0
C918 C 0.87352 0.56804 0.8004 0.0
C919 C 0.81099 0.48831 0.82002 0.0
H920 H 0.84277 0.53142 0.10258 0.0
H921 H 0.78131 0.57494 0.97681 0.0
H922 H 0.86411 0.4932 0.94049 0.0
H923 H 0.88524 0.52199 0.93516 0.0
H924 H 0.87578 0.5085 0.0351 0.0
H925 H 0.78547 0.5829 0.82657 0.0
H926 H 0.80947 0.5652 0.7636 0.0
H927 H 0.77996 0.54864 0.8009 0.0
H928 H 0.90482 0.5318 0.72703 0.0
H929 H 0.85223 0.46435 0.74492 0.0
H930 H 0.88254 0.56938 0.86359 0.0
H931 H 0.85546 0.58063 0.79978 0.0
H932 H 0.88814 0.576 0.7542 0.0
H933 H 0.81311 0.482 0.88628 0.0
H934 H 0.80611 0.47048 0.782 0.0
H935 H 0.79424 0.50252 0.81651 0.0
C936 C 0.05638 0.21022 0.02601 0.0
C937 C 0.03977 0.23237 0.01522 0.0
C938 C 0.05225 0.18623 0.98213 0.0
C939 C 0.03124 0.18393 0.92335 0.0
C940 C 1.01448 0.20648 0.91171 0.0
C941 C 0.01911 0.23031 0.95689 0.0
C942 C 0.06978 0.16287 1.0022 0.0
C943 C 0.99073 0.20589 0.85488 0.0
C944 C 0.04312 0.12502 0.77334 0.0
C945 C 0.02356 0.10654 0.79799 0.0
C946 C 0.04475 0.15064 0.80946 0.0
C947 C 0.02728 0.15791 0.87589 0.0
C948 C 1.00745 0.13914 0.90103 0.0
C949 C 1.00543 0.11413 0.86052 0.0
C950 C 0.06569 0.16947 0.77578 0.0
C951 C 0.98869 0.1451 0.97241 0.0
H952 H 0.07222 0.21136 0.07175 0.0
H953 H 1.00563 0.2469 0.94946 0.0
H954 H 0.05748 0.14476 0.01248 0.0
H955 H 0.08335 0.15906 0.94878 0.0
H956 H 0.0821 0.16631 0.05879 0.0
H957 H 0.99276 0.22179 0.80697 0.0
H958 H 0.98799 0.18654 0.82374 0.0
H959 H 0.97249 0.21031 0.89167 0.0
H960 H 0.05718 0.11953 0.72477 0.0
H961 H 0.99031 0.09999 0.88045 0.0
H962 H 0.08548 0.16343 0.79949 0.0
H963 H 0.06207 0.19045 0.79341 0.0
H964 H 0.06657 0.16819 0.7064 0.0
H965 H 0.99974 0.15349 0.02638 0.0
H966 H 0.97767 0.1271 0.99367 0.0
H967 H 0.97397 0.16008 0.952 0.0
C968 C 0.32367 0.05822 0.91583 0.0
C969 C 0.3147 0.03417 0.95092 0.0
C970 C 0.34711 0.0593 0.86623 0.0
C971 C 0.36212 0.03586 0.85169 0.0
C972 C 0.35195 1.01131 0.88199 0.0
C973 C 0.32852 1.01079 0.93076 0.0
C974 C 0.35676 0.08585 0.83404 0.0
C975 C 0.3669 0.98572 0.86823 0.0
C976 C 0.42129 0.03239 0.69752 0.0
C977 C 0.44317 0.0361 0.75094 0.0
C978 C 0.39481 0.033 0.72843 0.0
C979 C 0.3899 0.03719 0.8151 0.0
C980 C 0.41194 0.0411 0.8689 0.0
C981 C 0.43804 0.04067 0.83637 0.0
C982 C 0.37211 0.02929 0.66815 0.0
C983 C 0.40803 0.04513 0.96183 0.0
H984 H 0.31338 0.07642 0.93165 0.0
H985 H 0.32179 0.99211 0.95768 0.0
H986 H 0.3744 0.0923 0.87046 0.0
H987 H 0.36302 0.08425 0.76755 0.0
H988 H 0.34124 0.10139 0.83948 0.0
H989 H 0.35522 0.96803 0.88865 0.0
H990 H 0.37215 0.98339 0.80113 0.0
H991 H 0.38578 0.98625 0.90399 0.0
H992 H 0.42482 0.02901 0.63143 0.0
H993 H 0.45455 0.04344 0.87892 0.0
H994 H 0.36093 0.04817 0.66271 0.0
H995 H 0.35799 1.014 0.69181 0.0
H996 H 0.37912 0.02341 0.60481 0.0
H997 H 0.39492 0.06242 0.97324 0.0
H998 H 0.42712 0.0485 0.99511 0.0
H999 H 0.39808 0.02741 0.98944 0.0
C1000 C 0.52104 0.33272 0.89626 0.0
C1001 C 0.51652 0.33218 0.98297 0.0
C1002 C 0.52043 0.35692 0.85073 0.0
C1003 C 0.51529 0.38128 0.89273 0.0
C1004 C 0.50947 0.38054 0.97964 0.0
C1005 C 0.51022 0.35617 0.02336 0.0
C1006 C 0.52668 0.35659 0.75833 0.0
C1007 C 0.50363 0.4057 0.02747 0.0
C1008 C 0.54428 0.44665 0.806 0.0
C1009 C 0.5221 0.45859 0.76852 0.0
C1010 C 0.54238 0.42154 0.84545 0.0
C1011 C 0.51769 0.40766 0.8476 0.0
C1012 C 0.4953 0.4195 0.80886 0.0
C1013 C 0.49783 0.44461 0.76963 0.0
C1014 C 0.56682 0.41001 0.88608 0.0
C1015 C 0.46849 0.40588 0.80998 0.0
H1016 H 0.52654 0.31446 0.86487 0.0
H1017 H 0.50716 0.35601 0.0906 0.0
H1018 H 0.51119 0.36749 0.72309 0.0
H1019 H 0.54592 0.36691 0.74678 0.0
H1020 H 0.52804 0.33605 0.73331 0.0
H1021 H 0.49877 0.40178 0.09427 0.0
H1022 H 0.52107 0.4193 0.0245 0.0
H1023 H 0.48666 0.41618 0.99839 0.0
H1024 H 0.56316 0.45718 0.80577 0.0
H1025 H 0.48072 0.45326 0.73925 0.0
H1026 H 0.57103 0.39009 0.85963 0.0
H1027 H 0.56326 0.40738 0.9542 0.0
H1028 H 0.58468 0.42285 0.87727 0.0
H1029 H 0.47033 0.38497 0.78887 0.0
H1030 H 0.45382 0.41616 0.76962 0.0
H1031 H 0.46063 0.40548 0.87497 0.0
C1032 C 0.20009 0.48828 0.0182 0.0
C1033 C 0.22215 0.50539 1.00913 0.0
C1034 C 0.17609 0.49253 0.97471 0.0
C1035 C 0.1737 0.51434 0.91882 0.0
C1036 C 0.19614 0.53158 0.90868 0.0
C1037 C 0.22003 0.5267 0.95294 0.0
C1038 C 0.15264 0.47458 0.99305 0.0
C1039 C 0.19529 0.55609 0.85465 0.0
C1040 C 0.1146 0.50632 0.76712 0.0
C1041 C 0.09646 0.5252 0.79693 0.0
C1042 C 0.14017 0.50359 0.80283 0.0
C1043 C 0.14751 0.51903 0.87382 0.0
C1044 C 0.12889 0.53786 0.90477 0.0
C1045 C 0.10404 0.54118 0.86474 0.0
C1046 C 0.15896 0.48384 0.76382 0.0
C1047 C 0.13499 0.55431 0.98126 0.0
H1048 H 0.20128 0.47197 0.06246 0.0
H1049 H 0.23656 0.54052 0.94689 0.0
H1050 H 0.13545 0.48671 0.01368 0.0
H1051 H 0.14667 0.46385 0.93552 0.0
H1052 H 0.157 0.45968 0.04247 0.0
H1053 H 0.21015 0.55429 0.80343 0.0
H1054 H 0.17544 0.55979 0.82769 0.0
H1055 H 0.20114 0.57371 0.89225 0.0
H1056 H 0.10902 0.49398 0.71436 0.0
H1057 H 0.09011 0.55578 0.88832 0.0
H1058 H 0.1537 0.46357 0.78603 0.0
H1059 H 0.18007 0.48792 0.7794 0.0
H1060 H 0.15687 0.48389 0.6946 0.0
H1061 H 0.142 0.54136 0.03291 0.0
H1062 H 0.11738 0.5656 1.00344 0.0
H1063 H 0.15116 0.56867 0.96653 0.0
C1064 C 0.0261 0.85081 0.3651 0.0
C1065 C 1.01043 0.82986 0.3974 0.0
C1066 C 0.02945 0.87493 0.40886 0.0
C1067 C 1.01681 0.87858 0.48746 0.0
C1068 C 1.00229 0.85693 0.5226 0.0
C1069 C 0.99928 0.83288 0.47741 0.0
C1070 C 0.04569 0.89694 0.36923 0.0
C1071 C 0.98921 0.85952 0.60695 0.0
C1072 C 0.0383 0.93849 0.62238 0.0
C1073 C 0.01927 0.95778 0.60121 0.0
C1074 C 0.03779 0.91274 0.58656 0.0
C1075 C 1.01737 0.90558 0.52945 0.0
C1076 C 0.9978 0.92479 0.50955 0.0
C1077 C 0.99905 0.95044 0.54515 0.0
C1078 C 0.05926 0.89333 0.61028 0.0
C1079 C 0.97555 0.91839 0.44949 0.0
H1080 H 0.03484 0.84872 0.30328 0.0
H1081 H 0.98698 0.817 0.5027 0.0
H1082 H 0.03263 0.91404 0.35466 0.0
H1083 H 0.06107 0.90407 0.41367 0.0
H1084 H 0.05566 0.89049 0.31054 0.0
H1085 H 0.97841 0.84113 0.62579 0.0
H1086 H 1.00462 0.86404 0.65443 0.0
H1087 H 0.97499 0.87632 0.60647 0.0
H1088 H 0.05404 0.94364 0.66567 0.0
H1089 H 0.98394 0.96475 0.52916 0.0
H1090 H 0.07751 0.90382 0.63158 0.0
H1091 H 0.06471 0.88018 0.55734 0.0
H1092 H 0.05192 0.88061 0.66235 0.0
H1093 H 0.98395 0.91383 0.38683 0.0
H1094 H 0.96127 0.93504 0.44295 0.0
H1095 H 0.96453 0.90048 0.47117 0.0
C1096 C 0.71203 0.9933 0.42821 0.0
C1097 C 0.72924 1.01538 0.42446 0.0
C1098 C 0.68713 0.99457 0.46935 0.0
C1099 C 0.67883 1.01864 0.50734 0.0
C1100 C 0.69678 0.04055 0.50779 0.0
C1101 C 0.72162 0.0387 0.46611 0.0
C1102 C 0.66894 0.97062 0.46696 0.0
C1103 C 0.68898 0.06662 0.54723 0.0
C1104 C 0.60361 0.03171 0.51502 0.0
C1105 C 0.59707 0.02607 0.59876 0.0
C1106 C 0.63002 0.02973 0.48512 0.0
C1107 C 0.65066 0.02155 0.53977 0.0
C1108 C 0.64412 1.01573 0.62443 0.0
C1109 C 0.61757 1.01825 0.65295 0.0
C1110 C 0.63578 0.03623 0.39449 0.0
C1111 C 0.66515 1.00639 0.68463 0.0
H1112 H 0.71731 0.97552 0.39381 0.0
H1113 H 0.7343 0.05614 0.46108 0.0
H1114 H 0.66029 0.96666 0.5298 0.0
H1115 H 0.65217 0.97456 0.42379 0.0
H1116 H 0.67944 0.95251 0.44517 0.0
H1117 H 0.70594 0.08083 0.55004 0.0
H1118 H 0.67277 0.07579 0.51031 0.0
H1119 H 0.68123 0.06332 0.61157 0.0
H1120 H 0.58799 0.03778 0.47259 0.0
H1121 H 0.61274 1.01348 0.71746 0.0
H1122 H 0.64375 1.01846 0.36216 0.0
H1123 H 0.65122 0.05203 0.39029 0.0
H1124 H 0.61778 0.04302 0.3606 0.0
H1125 H 0.67498 0.98833 0.65977 0.0
H1126 H 0.65683 1.00174 0.74753 0.0
H1127 H 0.68077 0.0219 0.69122 0.0
C1128 C 0.52014 0.72395 0.39824 0.0
C1129 C 0.54611 0.73426 0.39288 0.0
C1130 C 0.51484 0.69945 0.43886 0.0
C1131 C 0.536 0.68475 0.47482 0.0
C1132 C 0.56198 0.69587 0.4734 0.0
C1133 C 0.56671 0.72027 0.43223 0.0
C1134 C 0.48678 0.68866 0.43983 0.0
C1135 C 0.58508 0.68131 0.51202 0.0
C1136 C 0.52509 0.62738 0.6306 0.0
C1137 C 0.52911 0.60483 0.58045 0.0
C1138 C 0.52581 0.6534 0.59655 0.0
C1139 C 0.53148 0.65723 0.51034 0.0
C1140 C 0.53426 0.63453 0.45865 0.0
C1141 C 0.53251 0.60884 0.49388 0.0
C1142 C 0.52112 0.67676 0.6536 0.0
C1143 C 0.53988 0.6373 0.36613 0.0
H1144 H 0.50425 0.73422 0.36615 0.0
H1145 H 0.5869 0.72781 0.42684 0.0
H1146 H 0.4857 0.67046 0.40082 0.0
H1147 H 0.48091 0.68295 0.50447 0.0
H1148 H 0.47223 0.70328 0.41551 0.0
H1149 H 0.60386 0.69303 0.50895 0.0
H1150 H 0.58062 0.67663 0.57856 0.0
H1151 H 0.58818 0.66215 0.47908 0.0
H1152 H 0.52139 0.62467 0.69661 0.0
H1153 H 0.53405 0.59185 0.45304 0.0
H1154 H 0.51245 0.69396 0.62015 0.0
H1155 H 0.54036 0.68323 0.68066 0.0
H1156 H 0.50745 0.67128 0.70539 0.0
H1157 H 0.52615 0.65181 0.33718 0.0
H1158 H 0.53795 0.61807 0.33258 0.0
H1159 H 0.56044 0.64496 0.35696 0.0
C1160 C 0.85998 0.55166 0.31793 0.0
C1161 C 0.83365 0.55662 0.3457 0.0
C1162 C 0.88164 0.55001 0.37302 0.0
C1163 C 0.87729 0.55071 0.4604 0.0
C1164 C 0.85081 0.55407 0.49026 0.0
C1165 C 0.82952 0.55754 0.43301 0.0
C1166 C 0.90938 0.54724 0.3369 0.0
C1167 C 0.84475 0.55317 0.58263 0.0
C1168 C 0.93594 0.51913 0.57619 0.0
C1169 C 0.95037 0.54146 0.60384 0.0
C1170 C 0.91131 0.52177 0.53457 0.0
C1171 C 0.90075 0.54739 0.51852 0.0
C1172 C 0.91482 0.56993 0.54873 0.0
C1173 C 0.93902 0.56665 0.59216 0.0
C1174 C 0.89667 0.49704 0.50702 0.0
C1175 C 0.9051 0.59769 0.53115 0.0
H1176 H 0.86422 0.54857 0.25238 0.0
H1177 H 0.80969 0.56081 0.4573 0.0
H1178 H 0.92315 0.5617 0.36659 0.0
H1179 H 0.91709 0.52704 0.34989 0.0
H1180 H 0.90988 0.55051 0.26812 0.0
H1181 H 0.82411 0.55954 0.59699 0.0
H1182 H 0.84725 0.53248 0.60525 0.0
H1183 H 0.85881 0.56594 0.6178 0.0
H1184 H 0.94408 0.49947 0.58585 0.0
H1185 H 0.94927 0.58397 0.61611 0.0
H1186 H 0.89166 0.49808 0.43961 0.0
H1187 H 0.87762 0.49543 0.54213 0.0
H1188 H 0.90843 0.47874 0.51777 0.0
H1189 H 0.90631 0.60162 0.46282 0.0
H1190 H 0.91701 0.61305 0.56424 0.0
H1191 H 0.88396 0.59974 0.55 0.0
loop_
_geom_bond_atom_site_label_1
_geom_bond_atom_site_label_2
_geom_bond_distance
_geom_bond_site_symmetry_2
_ccdc_geom_bond_type
H0 C3 0.929 . S
H1 C6 0.929 . S
H2 C8 0.930 . S
C3 H0 0.929 . S
C3 C4 1.398 . S
C3 C5 1.396 . S
C4 C3 1.398 . S
C4 C8 1.407 . S
C5 C3 1.396 . S
C5 C6 1.394 . S
C6 H1 0.929 . S
C6 C5 1.394 . S
C6 C7 1.382 . S
C7 C6 1.382 . S
C7 C8 1.392 . S
C7 N9 1.420 . S
C8 H2 0.930 . S
C8 C4 1.407 . S
C8 C7 1.392 . S
N9 C7 1.420 . S
N9 C10 1.244 . S
C10 N9 1.244 . S
H11 C14 0.929 . S
H12 C17 0.929 . S
H13 C19 0.930 . S
C14 H11 0.929 . S
C14 C15 1.398 . S
C14 C16 1.396 . S
C15 C14 1.398 . S
C15 C19 1.407 . S
C16 C14 1.396 . S
C16 C17 1.394 . S
C17 H12 0.929 . S
C17 C16 1.394 . S
C17 C18 1.382 . S
C18 C17 1.382 . S
C18 C19 1.392 . S
C18 N20 1.420 . S
C19 H13 0.930 . S
C19 C15 1.407 . S
C19 C18 1.392 . S
N20 C18 1.420 . S
N20 C21 1.244 . S
C21 N20 1.244 . S
H22 C25 0.929 . S
H23 C28 0.929 . S
H24 C30 0.930 . S
C25 H22 0.929 . S
C25 C26 1.398 . S
C25 C27 1.396 . S
C26 C25 1.398 . S
C26 C30 1.407 . S
C27 C25 1.396 . S
C27 C28 1.394 . S
C28 H23 0.929 . S
C28 C27 1.394 . S
C28 C29 1.382 . S
C29 C28 1.382 . S
C29 C30 1.392 . S
C29 N31 1.420 . S
C30 H24 0.930 . S
C30 C26 1.407 . S
C30 C29 1.392 . S
N31 C29 1.420 . S
N31 C32 1.244 . S
C32 N31 1.244 . S
H33 C36 0.929 . S
H34 C39 0.929 . S
H35 C41 0.930 . S
C36 H33 0.929 . S
C36 C37 1.398 . S
C36 C38 1.396 . S
C37 C36 1.398 . S
C37 C41 1.407 . S
C38 C36 1.396 . S
C38 C39 1.394 . S
C39 H34 0.929 . S
C39 C38 1.394 . S
C39 C40 1.382 . S
C40 C39 1.382 . S
C40 C41 1.392 . S
C40 N42 1.420 . S
C41 H35 0.930 . S
C41 C37 1.407 . S
C41 C40 1.392 . S
N42 C40 1.420 . S
N42 C43 1.244 . S
C43 N42 1.244 . S
H44 C47 0.929 . S
H45 C50 0.929 . S
H46 C52 0.930 . S
C47 H44 0.929 . S
C47 C48 1.398 1_554 S
C47 C49 1.396 . S
C48 C47 1.398 1_556 S
C48 C52 1.407 . S
C49 C47 1.396 . S
C49 C50 1.394 . S
C50 H45 0.929 . S
C50 C49 1.394 . S
C50 C51 1.382 . S
C51 C50 1.382 . S
C51 C52 1.392 1_554 S
C51 N53 1.420 . S
C52 H46 0.930 . S
C52 C48 1.407 . S
C52 C51 1.392 1_556 S
N53 C51 1.420 . S
N53 C54 1.244 . S
C54 N53 1.244 . S
H55 C58 0.929 . S
H56 C61 0.929 . S
H57 C63 0.930 . S
C58 H55 0.929 . S
C58 C59 1.398 1_554 S
C58 C60 1.396 . S
C59 C58 1.398 1_556 S
C59 C63 1.407 . S
C60 C58 1.396 . S
C60 C61 1.394 . S
C61 H56 0.929 . S
C61 C60 1.394 . S
C61 C62 1.382 . S
C62 C61 1.382 . S
C62 C63 1.392 1_554 S
C62 N64 1.420 . S
C63 H57 0.930 . S
C63 C59 1.407 . S
C63 C62 1.392 1_556 S
N64 C62 1.420 . S
N64 C65 1.244 . S
C65 N64 1.244 . S
H66 C69 0.929 . S
H67 C72 0.929 . S
H68 C74 0.930 . S
C69 H66 0.929 . S
C69 C70 1.398 1_554 S
C69 C71 1.396 . S
C70 C69 1.398 1_556 S
C70 C74 1.407 . S
C71 C69 1.396 . S
C71 C72 1.394 . S
C72 H67 0.929 . S
C72 C71 1.394 . S
C72 C73 1.382 . S
C73 C72 1.382 . S
C73 C74 1.392 1_554 S
C73 N75 1.420 . S
C74 H68 0.930 . S
C74 C70 1.407 . S
C74 C73 1.392 1_556 S
N75 C73 1.420 . S
N75 C76 1.244 . S
C76 N75 1.244 . S
H77 C80 0.929 . S
H78 C83 0.929 . S
H79 C85 0.930 . S
C80 H77 0.929 . S
C80 C81 1.398 1_554 S
C80 C82 1.396 . S
C81 C80 1.398 1_556 S
C81 C85 1.407 . S
C82 C80 1.396 . S
C82 C83 1.394 . S
C83 H78 0.929 . S
C83 C82 1.394 . S
C83 C84 1.382 . S
C84 C83 1.382 . S
C84 C85 1.392 1_554 S
C84 N86 1.420 . S
C85 H79 0.930 . S
C85 C81 1.407 . S
C85 C84 1.392 1_556 S
N86 C84 1.420 . S
N86 C87 1.244 . S
C87 N86 1.244 . S
Tb88 N117 2.617 . S
Tb88 N123 2.572 . S
Tb88 O132 2.465 1_655 S
Tb88 O133 2.387 1_545 S
Tb88 O135 2.428 . S
Tb88 O136 2.308 1_655 S
Tb88 O140 2.349 1_655 S
Tb88 O143 2.393 . S
Tb88 C152 2.802 . S
C89 N90 1.379 . S
C89 C92 1.416 . S
C89 C96 1.424 . S
N90 C89 1.379 . S
N90 C93 1.334 . S
N90 Tb99 2.617 1_545 S
C91 C93 1.390 . S
C91 C94 1.339 . S
C91 H111 0.930 . S
C92 C89 1.416 . S
C92 C94 1.416 . S
C92 C98 1.439 1_556 S
C93 N90 1.334 . S
C93 C91 1.390 . S
C93 H104 0.930 1_545 S
C94 C91 1.339 . S
C94 C92 1.416 . S
C94 H115 0.930 . S
C95 C96 1.413 1_554 S
C95 C97 1.427 . S
C95 C101 1.416 . S
C96 C89 1.424 . S
C96 C95 1.413 1_556 S
C96 N100 1.361 . S
C97 C95 1.427 . S
C97 C98 1.334 . S
C97 H112 0.929 . S
C98 C92 1.439 1_554 S
C98 C97 1.334 . S
C98 H113 0.934 . S
Tb99 N90 2.617 1_565 S
Tb99 N100 2.572 1_565 S
Tb99 O134 2.349 . S
Tb99 O137 2.393 . S
Tb99 O138 2.465 . S
Tb99 O139 2.387 1_565 S
Tb99 O141 2.428 . S
Tb99 O142 2.308 1_465 S
Tb99 C163 2.802 . S
N100 C96 1.361 . S
N100 Tb99 2.572 1_545 S
N100 C102 1.340 . S
C101 C95 1.416 . S
C101 C103 1.332 . S
C101 H109 0.931 . S
C102 N100 1.340 . S
C102 C103 1.407 1_556 S
C102 H108 0.930 1_455 S
C103 C101 1.332 . S
C103 C102 1.407 1_554 S
C103 H105 0.916 1_455 S
H104 C93 0.930 1_565 S
H105 C103 0.916 1_655 S
H106 C121 0.930 . S
H107 C128 0.929 . S
H108 C102 0.930 1_655 S
H109 C101 0.931 . S
H110 C124 0.930 . S
H111 C91 0.930 . S
H112 C97 0.929 . S
H113 C98 0.934 . S
H114 C119 0.930 . S
H115 C94 0.930 . S
H116 C127 0.931 . S
N117 Tb88 2.617 . S
N117 C118 1.379 . S
N117 C121 1.334 . S
C118 N117 1.379 . S
C118 C120 1.416 1_545 S
C118 C126 1.429 . S
C119 H114 0.930 . S
C119 C121 1.390 . S
C119 C122 1.339 1_545 S
C120 C118 1.416 1_565 S
C120 C122 1.416 . S
C120 C153 1.448 . S
C121 H106 0.930 . S
C121 N117 1.334 . S
C121 C119 1.390 . S
C122 C119 1.339 1_565 S
C122 C120 1.416 . S
C122 H129 0.930 . S
N123 Tb88 2.572 . S
N123 C124 1.340 1_655 S
N123 C126 1.378 . S
C124 H110 0.930 . S
C124 N123 1.340 1_455 S
C124 C128 1.407 1_545 S
C125 C126 1.393 1_565 S
C125 C127 1.416 . S
C125 C154 1.427 . S
C126 C118 1.429 . S
C126 N123 1.378 . S
C126 C125 1.393 1_545 S
C127 H116 0.931 . S
C127 C125 1.416 . S
C127 C128 1.332 1_655 S
C128 H107 0.929 . S
C128 C124 1.407 1_565 S
C128 C127 1.332 1_455 S
H129 C122 0.930 . S
H130 C153 0.930 . S
H131 C154 0.929 . S
O132 Tb88 2.465 1_455 S
O132 C152 1.264 1_455 S
O133 Tb88 2.387 1_565 S
O133 C144 1.264 . S
O134 Tb99 2.349 . S
O134 C144 1.243 1_455 S
O135 Tb88 2.428 . S
O135 C152 1.256 . S
O136 Tb88 2.308 1_455 S
O136 C151 1.266 . S
O137 Tb99 2.393 . S
O137 C151 1.248 1_565 S
O138 Tb99 2.465 . S
O138 C163 1.264 . S
O139 Tb99 2.387 1_545 S
O139 C155 1.264 . S
O140 Tb88 2.349 1_455 S
O140 C155 1.243 . S
O141 Tb99 2.428 . S
O141 C163 1.256 . S
O142 Tb99 2.308 1_645 S
O142 C162 1.266 . S
O143 Tb88 2.393 . S
O143 C162 1.248 . S
C144 O133 1.264 . S
C144 O134 1.243 1_655 S
C145 C148 1.399 . S
C145 C150 1.383 . S
C145 C152 1.496 . S
C146 C147 1.399 . S
C146 C150 1.389 . S
C147 C146 1.399 . S
C147 C149 1.380 . S
C147 H164 0.929 . S
C148 C145 1.399 . S
C148 C149 1.392 . S
C148 H165 0.929 . S
C149 C147 1.380 . S
C149 C148 1.392 . S
C149 H166 0.929 . S
C150 C145 1.383 . S
C150 C146 1.389 . S
C150 H167 0.931 1_655 S
C151 O136 1.266 . S
C151 O137 1.248 1_545 S
C152 Tb88 2.802 . S
C152 O132 1.264 1_655 S
C152 O135 1.256 . S
C152 C145 1.496 . S
C153 C120 1.448 . S
C153 H130 0.930 . S
C153 C154 1.328 . S
C154 C125 1.427 . S
C154 H131 0.929 . S
C154 C153 1.328 . S
C155 O139 1.264 . S
C155 O140 1.243 . S
C156 C159 1.399 . S
C156 C160 1.383 . S
C156 C163 1.496 . S
C157 C158 1.399 . S
C157 C160 1.389 . S
C158 C157 1.399 . S
C158 C161 1.380 . S
C158 H168 0.923 1_556 S
C159 C156 1.399 . S
C159 C161 1.392 . S
C159 H169 0.929 . S
C160 C156 1.383 . S
C160 C157 1.389 . S
C160 H170 0.931 . S
C161 C158 1.380 . S
C161 C159 1.392 . S
C161 H171 0.929 . S
C162 O142 1.266 . S
C162 O143 1.248 . S
C163 Tb99 2.802 . S
C163 O138 1.264 . S
C163 O141 1.256 . S
C163 C156 1.496 . S
H164 C147 0.929 . S
H165 C148 0.929 . S
H166 C149 0.929 . S
H167 C150 0.931 1_455 S
H168 C158 0.923 1_554 S
H169 C159 0.929 . S
H170 C160 0.931 . S
H171 C161 0.929 . S
Tb172 N201 2.617 . S
Tb172 N207 2.572 . S
Tb172 O216 2.465 . S
Tb172 O217 2.387 . S
Tb172 O219 2.428 . S
Tb172 O220 2.308 . S
Tb172 O224 2.349 1_545 S
Tb172 O227 2.393 . S
Tb172 C236 2.802 . S
C173 N174 1.379 . S
C173 C176 1.416 . S
C173 C180 1.424 . S
N174 C173 1.379 . S
N174 C177 1.334 . S
N174 Tb183 2.617 . S
C175 C177 1.390 . S
C175 C178 1.339 . S
C175 H195 0.930 . S
C176 C173 1.416 . S
C176 C178 1.416 . S
C176 C182 1.448 . S
C177 N174 1.334 . S
C177 C175 1.390 . S
C177 H188 0.930 . S
C178 C175 1.339 . S
C178 C176 1.416 . S
C178 H199 0.930 . S
C179 C180 1.413 . S
C179 C181 1.427 . S
C179 C185 1.416 . S
C180 C173 1.424 . S
C180 C179 1.413 . S
C180 N184 1.361 . S
C181 C179 1.427 . S
C181 C182 1.328 . S
C181 H196 0.929 . S
C182 C176 1.448 . S
C182 C181 1.328 . S
C182 H197 0.930 . S
Tb183 N174 2.617 . S
Tb183 N184 2.572 . S
Tb183 O218 2.349 1_565 S
Tb183 O221 2.393 . S
Tb183 O222 2.465 . S
Tb183 O223 2.387 . S
Tb183 O225 2.428 . S
Tb183 O226 2.308 1_565 S
Tb183 C247 2.802 . S
N184 C180 1.361 . S
N184 Tb183 2.572 . S
N184 C186 1.340 . S
C185 C179 1.416 . S
C185 C187 1.332 . S
C185 H193 0.931 . S
C186 N184 1.340 . S
C186 C187 1.407 . S
C186 H192 0.930 . S
C187 C185 1.332 . S
C187 C186 1.407 . S
C187 H189 0.929 . S
H188 C177 0.930 . S
H189 C187 0.929 . S
H190 C205 0.930 . S
H191 C212 0.929 . S
H192 C186 0.930 . S
H193 C185 0.931 . S
H194 C208 0.930 . S
H195 C175 0.930 . S
H196 C181 0.929 . S
H197 C182 0.930 . S
H198 C203 0.930 . S
H199 C178 0.930 . S
H200 C211 0.931 . S
N201 Tb172 2.617 . S
N201 C202 1.379 . S
N201 C205 1.334 . S
C202 N201 1.379 . S
C202 C204 1.416 . S
C202 C210 1.424 . S
C203 H198 0.930 . S
C203 C205 1.390 . S
C203 C206 1.339 . S
C204 C202 1.416 . S
C204 C206 1.416 . S
C204 C237 1.448 . S
C205 H190 0.930 . S
C205 N201 1.334 . S
C205 C203 1.390 . S
C206 C203 1.339 . S
C206 C204 1.416 . S
C206 H213 0.930 . S
N207 Tb172 2.572 . S
N207 C208 1.340 . S
N207 C210 1.361 . S
C208 H194 0.930 . S
C208 N207 1.340 . S
C208 C212 1.407 . S
C209 C210 1.413 . S
C209 C211 1.416 . S
C209 C238 1.427 . S
C210 C202 1.424 . S
C210 N207 1.361 . S
C210 C209 1.413 . S
C211 H200 0.931 . S
C211 C209 1.416 . S
C211 C212 1.332 . S
C212 H191 0.929 . S
C212 C208 1.407 . S
C212 C211 1.332 . S
H213 C206 0.930 . S
H214 C237 0.930 . S
H215 C238 0.929 . S
O216 Tb172 2.465 . S
O216 C236 1.264 . S
O217 Tb172 2.387 . S
O217 C228 1.264 . S
O218 Tb183 2.349 1_545 S
O218 C228 1.243 . S
O219 Tb172 2.428 . S
O219 C236 1.256 . S
O220 Tb172 2.308 . S
O220 C235 1.266 . S
O221 Tb183 2.393 . S
O221 C235 1.248 1_565 S
O222 Tb183 2.465 . S
O222 C247 1.264 . S
O223 Tb183 2.387 . S
O223 C239 1.264 . S
O224 Tb172 2.349 1_565 S
O224 C239 1.243 . S
O225 Tb183 2.428 . S
O225 C247 1.256 . S
O226 Tb183 2.308 1_545 S
O226 C246 1.266 . S
O227 Tb172 2.393 . S
O227 C246 1.248 . S
C228 O217 1.264 . S
C228 O218 1.243 . S
C229 C232 1.399 1_556 S
C229 C234 1.383 . S
C229 C236 1.496 . S
C230 C231 1.399 . S
C230 C234 1.389 1_554 S
C231 C230 1.399 . S
C231 C233 1.380 . S
C231 H248 0.929 . S
C232 C229 1.399 1_554 S
C232 C233 1.392 . S
C232 H249 0.929 . S
C233 C231 1.380 . S
C233 C232 1.392 . S
C233 H250 0.929 . S
C234 C229 1.383 . S
C234 C230 1.389 1_556 S
C234 H251 0.931 . S
C235 O220 1.266 . S
C235 O221 1.248 1_545 S
C236 Tb172 2.802 . S
C236 O216 1.264 . S
C236 O219 1.256 . S
C236 C229 1.496 . S
C237 C204 1.448 . S
C237 H214 0.930 . S
C237 C238 1.328 . S
C238 C209 1.427 . S
C238 H215 0.929 . S
C238 C237 1.328 . S
C239 O223 1.264 . S
C239 O224 1.243 . S
C240 C243 1.399 . S
C240 C244 1.383 1_565 S
C240 C247 1.496 . S
C241 C242 1.399 1_545 S
C241 C244 1.389 . S
C242 C241 1.399 1_565 S
C242 C245 1.380 . S
C242 H252 0.929 . S
C243 C240 1.399 . S
C243 C245 1.392 . S
C243 H253 0.929 . S
C244 C240 1.383 1_545 S
C244 C241 1.389 . S
C244 H254 0.931 . S
C245 C242 1.380 . S
C245 C243 1.392 . S
C245 H255 0.929 . S
C246 O226 1.266 . S
C246 O227 1.248 . S
C247 Tb183 2.802 . S
C247 O222 1.264 . S
C247 O225 1.256 . S
C247 C240 1.496 . S
H248 C231 0.929 . S
H249 C232 0.929 . S
H250 C233 0.929 . S
H251 C234 0.931 . S
H252 C242 0.929 . S
H253 C243 0.929 . S
H254 C244 0.931 . S
H255 C245 0.929 . S
Tb256 N285 2.617 . S
Tb256 N291 2.572 . S
Tb256 O300 2.465 . S
Tb256 O301 2.387 . S
Tb256 O303 2.428 . S
Tb256 O304 2.308 . S
Tb256 O308 2.349 . S
Tb256 O311 2.393 . S
Tb256 C320 2.802 . S
C257 N258 1.379 . S
C257 C260 1.416 . S
C257 C264 1.424 . S
N258 C257 1.379 . S
N258 C261 1.334 . S
N258 Tb267 2.617 . S
C259 C261 1.390 . S
C259 C262 1.339 . S
C259 H279 0.930 . S
C260 C257 1.416 . S
C260 C262 1.416 . S
C260 C266 1.442 1_556 S
C261 N258 1.334 . S
C261 C259 1.390 . S
C261 H272 0.930 . S
C262 C259 1.339 . S
C262 C260 1.416 . S
C262 H283 0.930 . S
C263 C264 1.413 1_554 S
C263 C265 1.427 . S
C263 C269 1.416 . S
C264 C257 1.424 . S
C264 C263 1.413 1_556 S
C264 N268 1.361 . S
C265 C263 1.427 . S
C265 C266 1.333 . S
C265 H280 0.929 . S
C266 C260 1.442 1_554 S
C266 C265 1.333 . S
C266 H281 0.933 . S
Tb267 N258 2.617 . S
Tb267 N268 2.572 . S
Tb267 O302 2.349 . S
Tb267 O305 2.393 . S
Tb267 O306 2.465 . S
Tb267 O307 2.387 . S
Tb267 O309 2.428 . S
Tb267 O310 2.308 . S
Tb267 C331 2.802 . S
N268 C264 1.361 . S
N268 Tb267 2.572 . S
N268 C270 1.340 . S
C269 C263 1.416 . S
C269 C271 1.332 . S
C269 H277 0.931 . S
C270 N268 1.340 . S
C270 C271 1.407 1_556 S
C270 H276 0.930 . S
C271 C269 1.332 . S
C271 C270 1.407 1_554 S
C271 H273 0.929 . S
H272 C261 0.930 . S
H273 C271 0.929 . S
H274 C289 0.930 . S
H275 C296 0.929 . S
H276 C270 0.930 . S
H277 C269 0.931 . S
H278 C292 0.930 . S
H279 C259 0.930 . S
H280 C265 0.929 . S
H281 C266 0.933 . S
H282 C287 0.930 . S
H283 C262 0.930 . S
H284 C295 0.931 . S
N285 Tb256 2.617 . S
N285 C286 1.379 . S
N285 C289 1.334 . S
C286 N285 1.379 . S
C286 C288 1.416 . S
C286 C294 1.424 . S
C287 H282 0.930 . S
C287 C289 1.390 . S
C287 C290 1.339 . S
C288 C286 1.416 . S
C288 C290 1.416 . S
C288 C321 1.448 . S
C289 H274 0.930 . S
C289 N285 1.334 . S
C289 C287 1.390 . S
C290 C287 1.339 . S
C290 C288 1.416 . S
C290 H297 0.930 . S
N291 Tb256 2.572 . S
N291 C292 1.340 . S
N291 C294 1.361 . S
C292 H278 0.930 . S
C292 N291 1.340 . S
C292 C296 1.407 . S
C293 C294 1.413 . S
C293 C295 1.416 . S
C293 C322 1.427 . S
C294 C286 1.424 . S
C294 N291 1.361 . S
C294 C293 1.413 . S
C295 H284 0.931 . S
C295 C293 1.416 . S
C295 C296 1.332 . S
C296 H275 0.929 . S
C296 C292 1.407 . S
C296 C295 1.332 . S
H297 C290 0.930 . S
H298 C321 0.930 . S
H299 C322 0.929 . S
O300 Tb256 2.465 . S
O300 C320 1.264 . S
O301 Tb256 2.387 . S
O301 C312 1.264 . S
O302 Tb267 2.349 . S
O302 C312 1.243 . S
O303 Tb256 2.428 . S
O303 C320 1.256 . S
O304 Tb256 2.308 . S
O304 C319 1.266 . S
O305 Tb267 2.393 . S
O305 C319 1.248 . S
O306 Tb267 2.465 . S
O306 C331 1.264 . S
O307 Tb267 2.387 . S
O307 C323 1.264 . S
O308 Tb256 2.349 . S
O308 C323 1.243 . S
O309 Tb267 2.428 . S
O309 C331 1.256 . S
O310 Tb267 2.308 . S
O310 C330 1.266 . S
O311 Tb256 2.393 . S
O311 C330 1.248 . S
C312 O301 1.264 . S
C312 O302 1.243 . S
C313 C316 1.399 . S
C313 C318 1.383 . S
C313 C320 1.496 . S
C314 C315 1.399 . S
C314 C318 1.389 . S
C315 C314 1.399 . S
C315 C317 1.380 . S
C315 H332 0.929 . S
C316 C313 1.399 . S
C316 C317 1.392 . S
C316 H333 0.929 . S
C317 C315 1.380 . S
C317 C316 1.392 . S
C317 H334 0.929 . S
C318 C313 1.383 . S
C318 C314 1.389 . S
C318 H335 0.931 . S
C319 O304 1.266 . S
C319 O305 1.248 . S
C320 Tb256 2.802 . S
C320 O300 1.264 . S
C320 O303 1.256 . S
C320 C313 1.496 . S
C321 C288 1.448 . S
C321 H298 0.930 . S
C321 C322 1.328 . S
C322 C293 1.427 . S
C322 H299 0.929 . S
C322 C321 1.328 . S
C323 O307 1.264 . S
C323 O308 1.243 . S
C324 C327 1.399 . S
C324 C328 1.383 . S
C324 C331 1.496 . S
C325 C326 1.399 . S
C325 C328 1.389 . S
C326 C325 1.399 . S
C326 C329 1.380 . S
C326 H336 0.929 1_556 S
C327 C324 1.399 . S
C327 C329 1.392 . S
C327 H337 0.929 . S
C328 C324 1.383 . S
C328 C325 1.389 . S
C328 H338 0.931 . S
C329 C326 1.380 . S
C329 C327 1.392 . S
C329 H339 0.929 . S
C330 O310 1.266 . S
C330 O311 1.248 . S
C331 Tb267 2.802 . S
C331 O306 1.264 . S
C331 O309 1.256 . S
C331 C324 1.496 . S
H332 C315 0.929 . S
H333 C316 0.929 . S
H334 C317 0.929 . S
H335 C318 0.931 . S
H336 C326 0.929 1_554 S
H337 C327 0.929 . S
H338 C328 0.931 . S
H339 C329 0.929 . S
Tb340 N369 2.617 . S
Tb340 N375 2.572 . S
Tb340 O384 2.465 . S
Tb340 O385 2.387 1_455 S
Tb340 O387 2.428 . S
Tb340 O388 2.308 . S
Tb340 O392 2.349 . S
Tb340 O395 2.393 . S
Tb340 C404 2.802 . S
C341 N342 1.379 . S
C341 C344 1.416 . S
C341 C348 1.424 . S
N342 C341 1.379 . S
N342 C345 1.332 1_455 S
N342 Tb351 2.617 1_455 S
C343 C345 1.379 1_455 S
C343 C346 1.339 . S
C343 H363 0.930 . S
C344 C341 1.416 . S
C344 C346 1.416 . S
C344 C350 1.446 1_556 S
C345 N342 1.332 1_655 S
C345 C343 1.379 1_655 S
C345 H356 0.946 . S
C346 C343 1.339 . S
C346 C344 1.416 . S
C346 H367 0.930 . S
C347 C348 1.413 1_554 S
C347 C349 1.427 . S
C347 C353 1.416 . S
C348 C341 1.424 . S
C348 C347 1.413 1_556 S
C348 N352 1.361 . S
C349 C347 1.427 . S
C349 C350 1.330 . S
C349 H364 0.929 . S
C350 C344 1.446 1_554 S
C350 C349 1.330 . S
C350 H365 0.931 . S
Tb351 N342 2.617 1_655 S
Tb351 N352 2.572 1_655 S
Tb351 O386 2.349 . S
Tb351 O389 2.393 . S
Tb351 O390 2.465 . S
Tb351 O391 2.387 1_655 S
Tb351 O393 2.428 . S
Tb351 O394 2.308 1_655 S
Tb351 C415 2.802 . S
N352 C348 1.361 . S
N352 Tb351 2.572 1_455 S
N352 C354 1.340 . S
C353 C347 1.416 . S
C353 C355 1.332 . S
C353 H361 0.931 . S
C354 N352 1.340 . S
C354 C355 1.407 1_556 S
C354 H360 0.930 . S
C355 C353 1.332 . S
C355 C354 1.407 1_554 S
C355 H357 0.929 . S
H356 C345 0.946 . S
H357 C355 0.929 . S
H358 C373 0.930 . S
H359 C380 0.929 . S
H360 C354 0.930 . S
H361 C353 0.931 . S
H362 C376 0.930 . S
H363 C343 0.930 . S
H364 C349 0.929 . S
H365 C350 0.931 . S
H366 C371 0.930 . S
H367 C346 0.930 . S
H368 C379 0.931 . S
N369 Tb340 2.617 . S
N369 C370 1.379 . S
N369 C373 1.334 . S
C370 N369 1.379 . S
C370 C372 1.416 1_455 S
C370 C378 1.425 . S
C371 H366 0.930 . S
C371 C373 1.390 . S
C371 C374 1.339 1_455 S
C372 C370 1.416 1_655 S
C372 C374 1.416 . S
C372 C405 1.448 . S
C373 H358 0.930 . S
C373 N369 1.334 . S
C373 C371 1.390 . S
C374 C371 1.339 1_655 S
C374 C372 1.416 . S
C374 H381 0.930 . S
N375 Tb340 2.572 . S
N375 C376 1.340 . S
N375 C378 1.367 . S
C376 H362 0.930 . S
C376 N375 1.340 . S
C376 C380 1.407 1_455 S
C377 C378 1.406 1_655 S
C377 C379 1.416 . S
C377 C406 1.427 . S
C378 C370 1.425 . S
C378 N375 1.367 . S
C378 C377 1.406 1_455 S
C379 H368 0.931 . S
C379 C377 1.416 . S
C379 C380 1.332 . S
C380 H359 0.929 . S
C380 C376 1.407 1_655 S
C380 C379 1.332 . S
H381 C374 0.930 . S
H382 C405 0.930 . S
H383 C406 0.929 . S
O384 Tb340 2.465 . S
O384 C404 1.264 . S
O385 Tb340 2.387 1_655 S
O385 C396 1.264 . S
O386 Tb351 2.349 . S
O386 C396 1.243 . S
O387 Tb340 2.428 . S
O387 C404 1.256 . S
O388 Tb340 2.308 . S
O388 C403 1.266 . S
O389 Tb351 2.393 . S
O389 C403 1.248 1_655 S
O390 Tb351 2.465 . S
O390 C415 1.264 . S
O391 Tb351 2.387 1_455 S
O391 C407 1.264 . S
O392 Tb340 2.349 . S
O392 C407 1.243 . S
O393 Tb351 2.428 . S
O393 C415 1.256 . S
O394 Tb351 2.308 1_455 S
O394 C414 1.266 . S
O395 Tb340 2.393 . S
O395 C414 1.248 . S
C396 O385 1.264 . S
C396 O386 1.243 . S
C397 C400 1.399 . S
C397 C402 1.383 . S
C397 C404 1.496 . S
C398 C399 1.399 . S
C398 C402 1.389 . S
C399 C398 1.399 . S
C399 C401 1.380 . S
C399 H416 0.929 . S
C400 C397 1.399 . S
C400 C401 1.392 . S
C400 H417 0.929 . S
C401 C399 1.380 . S
C401 C400 1.392 . S
C401 H418 0.929 . S
C402 C397 1.383 . S
C402 C398 1.389 . S
C402 H419 0.931 . S
C403 O388 1.266 . S
C403 O389 1.248 1_455 S
C404 Tb340 2.802 . S
C404 O384 1.264 . S
C404 O387 1.256 . S
C404 C397 1.496 . S
C405 C372 1.448 . S
C405 H382 0.930 . S
C405 C406 1.328 . S
C406 C377 1.427 . S
C406 H383 0.929 . S
C406 C405 1.328 . S
C407 O391 1.264 . S
C407 O392 1.243 . S
C408 C411 1.399 . S
C408 C412 1.383 . S
C408 C415 1.496 . S
C409 C410 1.399 . S
C409 C412 1.389 . S
C410 C409 1.399 . S
C410 C413 1.380 . S
C410 H420 0.929 1_556 S
C411 C408 1.399 . S
C411 C413 1.392 . S
C411 H421 0.929 . S
C412 C408 1.383 . S
C412 C409 1.389 . S
C412 H422 0.931 . S
C413 C410 1.380 . S
C413 C411 1.392 . S
C413 H423 0.929 . S
C414 O394 1.266 . S
C414 O395 1.248 . S
C415 Tb351 2.802 . S
C415 O390 1.264 . S
C415 O393 1.256 . S
C415 C408 1.496 . S
H416 C399 0.929 . S
H417 C400 0.929 . S
H418 C401 0.929 . S
H419 C402 0.931 . S
H420 C410 0.929 1_554 S
H421 C411 0.929 . S
H422 C412 0.931 . S
H423 C413 0.929 . S
C424 C425 1.391 . S
C424 C426 1.394 . S
C424 H440 0.931 . S
C425 C424 1.391 . S
C425 C429 1.376 . S
C426 C424 1.394 . S
C426 C427 1.369 . S
C426 C430 1.531 . S
C427 C426 1.369 . S
C427 C428 1.410 . S
C427 C435 1.503 . S
C428 C427 1.410 . S
C428 C429 1.392 . S
C428 C431 1.511 1_545 S
C429 C425 1.376 . S
C429 C428 1.392 . S
C429 H441 0.929 . S
C430 C426 1.531 . S
C430 H442 0.960 . S
C430 H443 0.962 . S
C430 H444 0.960 . S
C431 C428 1.511 1_565 S
C431 H445 0.961 . S
C431 H446 0.961 . S
C431 H447 0.961 . S
C432 C433 1.370 . S
C432 C434 1.363 . S
C432 H448 0.931 . S
C433 C432 1.370 . S
C433 C437 1.408 . S
C434 C432 1.363 . S
C434 C435 1.370 . S
C434 C438 1.524 . S
C435 C427 1.503 . S
C435 C434 1.370 . S
C435 C436 1.403 . S
C436 C435 1.403 . S
C436 C437 1.404 . S
C436 C439 1.539 . S
C437 C433 1.408 . S
C437 C436 1.404 . S
C437 H449 0.930 . S
C438 C434 1.524 . S
C438 H450 0.956 . S
C438 H451 0.961 1_545 S
C438 H452 0.966 . S
C439 C436 1.539 . S
C439 H453 0.958 . S
C439 H454 0.961 . S
C439 H455 0.960 . S
H440 C424 0.931 . S
H441 C429 0.929 . S
H442 C430 0.960 . S
H443 C430 0.962 . S
H444 C430 0.960 . S
H445 C431 0.961 . S
H446 C431 0.961 . S
H447 C431 0.961 . S
H448 C432 0.931 . S
H449 C437 0.930 . S
H450 C438 0.956 . S
H451 C438 0.961 1_565 S
H452 C438 0.966 . S
H453 C439 0.958 . S
H454 C439 0.961 . S
H455 C439 0.960 . S
C456 C457 1.391 . S
C456 C458 1.394 . S
C456 H472 0.931 . S
C457 C456 1.391 . S
C457 C461 1.376 . S
C458 C456 1.394 . S
C458 C459 1.369 . S
C458 C462 1.531 . S
C459 C458 1.369 . S
C459 C460 1.410 . S
C459 C467 1.503 . S
C460 C459 1.410 . S
C460 C461 1.392 . S
C460 C463 1.511 . S
C461 C457 1.376 . S
C461 C460 1.392 . S
C461 H473 0.929 . S
C462 C458 1.531 . S
C462 H474 0.960 . S
C462 H475 0.962 . S
C462 H476 0.960 . S
C463 C460 1.511 . S
C463 H477 0.961 . S
C463 H478 0.961 . S
C463 H479 0.961 . S
C464 C465 1.370 . S
C464 C466 1.363 . S
C464 H480 0.931 . S
C465 C464 1.370 . S
C465 C469 1.408 . S
C466 C464 1.363 . S
C466 C467 1.370 . S
C466 C470 1.524 . S
C467 C459 1.503 . S
C467 C466 1.370 . S
C467 C468 1.403 . S
C468 C467 1.403 . S
C468 C469 1.404 . S
C468 C471 1.539 . S
C469 C465 1.408 . S
C469 C468 1.404 . S
C469 H481 0.930 . S
C470 C466 1.524 . S
C470 H482 0.956 . S
C470 H483 0.961 . S
C470 H484 0.961 . S
C471 C468 1.539 . S
C471 H485 0.958 . S
C471 H486 0.961 . S
C471 H487 0.960 . S
H472 C456 0.931 . S
H473 C461 0.929 . S
H474 C462 0.960 . S
H475 C462 0.962 . S
H476 C462 0.960 . S
H477 C463 0.961 . S
H478 C463 0.961 . S
H479 C463 0.961 . S
H480 C464 0.931 . S
H481 C469 0.930 . S
H482 C470 0.956 . S
H483 C470 0.961 . S
H484 C470 0.961 . S
H485 C471 0.958 . S
H486 C471 0.961 . S
H487 C471 0.960 . S
C488 C489 1.391 . S
C488 C490 1.394 . S
C488 H504 0.931 . S
C489 C488 1.391 . S
C489 C493 1.376 . S
C490 C488 1.394 . S
C490 C491 1.369 . S
C490 C494 1.531 . S
C491 C490 1.369 . S
C491 C492 1.410 . S
C491 C499 1.503 . S
C492 C491 1.410 . S
C492 C493 1.392 . S
C492 C495 1.511 . S
C493 C489 1.376 . S
C493 C492 1.392 . S
C493 H505 0.929 . S
C494 C490 1.531 . S
C494 H506 0.960 . S
C494 H507 0.962 . S
C494 H508 0.960 . S
C495 C492 1.511 . S
C495 H509 0.961 . S
C495 H510 0.961 . S
C495 H511 0.961 . S
C496 C497 1.370 . S
C496 C498 1.363 . S
C496 H512 0.931 . S
C497 C496 1.370 . S
C497 C501 1.408 . S
C498 C496 1.363 . S
C498 C499 1.370 . S
C498 C502 1.524 . S
C499 C491 1.503 . S
C499 C498 1.370 . S
C499 C500 1.403 . S
C500 C499 1.403 . S
C500 C501 1.404 . S
C500 C503 1.539 . S
C501 C497 1.408 . S
C501 C500 1.404 . S
C501 H513 0.930 . S
C502 C498 1.524 . S
C502 H514 0.956 . S
C502 H515 0.961 . S
C502 H516 0.961 . S
C503 C500 1.539 . S
C503 H517 0.958 . S
C503 H518 0.961 . S
C503 H519 0.960 . S
H504 C488 0.931 . S
H505 C493 0.929 . S
H506 C494 0.960 . S
H507 C494 0.962 . S
H508 C494 0.960 . S
H509 C495 0.961 . S
H510 C495 0.961 . S
H511 C495 0.961 . S
H512 C496 0.931 . S
H513 C501 0.930 . S
H514 C502 0.956 . S
H515 C502 0.961 . S
H516 C502 0.961 . S
H517 C503 0.958 . S
H518 C503 0.961 . S
H519 C503 0.960 . S
C520 C521 1.391 . S
C520 C522 1.394 . S
C520 H536 0.931 . S
C521 C520 1.391 . S
C521 C525 1.376 . S
C522 C520 1.394 . S
C522 C523 1.369 . S
C522 C526 1.531 . S
C523 C522 1.369 . S
C523 C524 1.410 . S
C523 C531 1.503 . S
C524 C523 1.410 . S
C524 C525 1.392 . S
C524 C527 1.511 1_455 S
C525 C521 1.376 . S
C525 C524 1.392 . S
C525 H537 0.929 1_455 S
C526 C522 1.531 . S
C526 H538 0.960 . S
C526 H539 0.962 . S
C526 H540 0.960 . S
C527 C524 1.511 1_655 S
C527 H541 0.961 . S
C527 H542 0.961 . S
C527 H543 0.961 . S
C528 C529 1.370 . S
C528 C530 1.363 . S
C528 H544 0.931 . S
C529 C528 1.370 . S
C529 C533 1.408 . S
C530 C528 1.363 . S
C530 C531 1.370 . S
C530 C534 1.524 . S
C531 C523 1.503 . S
C531 C530 1.370 . S
C531 C532 1.403 . S
C532 C531 1.403 . S
C532 C533 1.404 . S
C532 C535 1.539 . S
C533 C529 1.408 . S
C533 C532 1.404 . S
C533 H545 0.930 . S
C534 C530 1.524 . S
C534 H546 0.956 . S
C534 H547 0.961 . S
C534 H548 0.961 . S
C535 C532 1.539 . S
C535 H549 0.958 . S
C535 H550 0.961 . S
C535 H551 0.960 . S
H536 C520 0.931 . S
H537 C525 0.929 1_655 S
H538 C526 0.960 . S
H539 C526 0.962 . S
H540 C526 0.960 . S
H541 C527 0.961 . S
H542 C527 0.961 . S
H543 C527 0.961 . S
H544 C528 0.931 . S
H545 C533 0.930 . S
H546 C534 0.956 . S
H547 C534 0.961 . S
H548 C534 0.961 . S
H549 C535 0.958 . S
H550 C535 0.961 . S
H551 C535 0.960 . S
C552 C553 1.391 1_545 S
C552 C554 1.394 . S
C552 H568 0.931 . S
C553 C552 1.391 1_565 S
C553 C557 1.376 . S
C554 C552 1.394 . S
C554 C555 1.369 1_545 S
C554 C558 1.531 . S
C555 C554 1.369 1_565 S
C555 C556 1.410 . S
C555 C563 1.503 1_554 S
C556 C555 1.410 . S
C556 C557 1.392 . S
C556 C559 1.511 . S
C557 C553 1.376 . S
C557 C556 1.392 . S
C557 H569 0.929 . S
C558 C554 1.531 . S
C558 H570 0.960 . S
C558 H571 0.962 1_554 S
C558 H572 0.960 . S
C559 C556 1.511 . S
C559 H573 0.961 . S
C559 H574 0.961 . S
C559 H575 0.961 . S
C560 C561 1.368 1_565 S
C560 C562 1.363 . S
C560 H576 0.931 . S
C561 C560 1.368 1_545 S
C561 C565 1.410 . S
C562 C560 1.363 . S
C562 C563 1.370 . S
C562 C566 1.524 . S
C563 C555 1.503 1_556 S
C563 C562 1.370 . S
C563 C564 1.403 1_566 S
C564 C563 1.403 1_544 S
C564 C565 1.404 1_554 S
C564 C567 1.539 . S
C565 C561 1.410 . S
C565 C564 1.404 1_556 S
C565 H577 0.930 . S
C566 C562 1.524 . S
C566 H578 0.956 . S
C566 H579 0.961 . S
C566 H580 0.961 . S
C567 C564 1.539 . S
C567 H581 0.958 . S
C567 H582 0.961 . S
C567 H583 0.960 . S
H568 C552 0.931 . S
H569 C557 0.929 . S
H570 C558 0.960 . S
H571 C558 0.962 1_556 S
H572 C558 0.960 . S
H573 C559 0.961 . S
H574 C559 0.961 . S
H575 C559 0.961 . S
H576 C560 0.931 . S
H577 C565 0.930 . S
H578 C566 0.956 . S
H579 C566 0.961 . S
H580 C566 0.961 . S
H581 C567 0.958 . S
H582 C567 0.961 . S
H583 C567 0.960 . S
C584 C585 1.391 . S
C584 C586 1.394 . S
C584 H600 0.931 . S
C585 C584 1.391 . S
C585 C589 1.376 . S
C586 C584 1.394 . S
C586 C587 1.369 . S
C586 C590 1.537 . S
C587 C586 1.369 . S
C587 C588 1.410 . S
C587 C595 1.503 1_554 S
C588 C587 1.410 . S
C588 C589 1.392 . S
C588 C591 1.511 . S
C589 C585 1.376 . S
C589 C588 1.392 . S
C589 H601 0.929 . S
C590 C586 1.537 . S
C590 H602 0.951 1_554 S
C590 H603 0.964 . S
C590 H604 0.960 . S
C591 C588 1.511 . S
C591 H605 0.961 . S
C591 H606 0.961 . S
C591 H607 0.961 . S
C592 C593 1.370 . S
C592 C594 1.363 . S
C592 H608 0.931 . S
C593 C592 1.370 . S
C593 C597 1.408 . S
C594 C592 1.363 . S
C594 C595 1.370 . S
C594 C598 1.524 1_556 S
C595 C587 1.503 1_556 S
C595 C594 1.370 . S
C595 C596 1.403 . S
C596 C595 1.403 . S
C596 C597 1.404 . S
C596 C599 1.539 . S
C597 C593 1.408 . S
C597 C596 1.404 . S
C597 H609 0.930 . S
C598 C594 1.524 1_554 S
C598 H610 0.956 . S
C598 H611 0.961 . S
C598 H612 0.961 . S
C599 C596 1.539 . S
C599 H613 0.958 . S
C599 H614 0.961 . S
C599 H615 0.960 . S
H600 C584 0.931 . S
H601 C589 0.929 . S
H602 C590 0.951 1_556 S
H603 C590 0.964 . S
H604 C590 0.960 . S
H605 C591 0.961 . S
H606 C591 0.961 . S
H607 C591 0.961 . S
H608 C592 0.931 . S
H609 C597 0.930 . S
H610 C598 0.956 . S
H611 C598 0.961 . S
H612 C598 0.961 . S
H613 C599 0.958 . S
H614 C599 0.961 . S
H615 C599 0.960 . S
C616 C617 1.391 . S
C616 C618 1.394 . S
C616 H632 0.931 . S
C617 C616 1.391 . S
C617 C621 1.376 . S
C618 C616 1.394 . S
C618 C619 1.369 . S
C618 C622 1.531 . S
C619 C618 1.369 . S
C619 C620 1.410 . S
C619 C627 1.503 1_554 S
C620 C619 1.410 . S
C620 C621 1.392 . S
C620 C623 1.511 1_554 S
C621 C617 1.376 . S
C621 C620 1.392 . S
C621 H633 0.929 . S
C622 C618 1.531 . S
C622 H634 0.960 . S
C622 H635 0.962 . S
C622 H636 0.960 . S
C623 C620 1.511 1_556 S
C623 H637 0.961 1_556 S
C623 H638 0.961 . S
C623 H639 0.961 . S
C624 C625 1.370 . S
C624 C626 1.363 . S
C624 H640 0.931 . S
C625 C624 1.370 . S
C625 C629 1.408 . S
C626 C624 1.363 . S
C626 C627 1.370 . S
C626 C630 1.524 1_556 S
C627 C619 1.503 1_556 S
C627 C626 1.370 . S
C627 C628 1.403 . S
C628 C627 1.403 . S
C628 C629 1.404 . S
C628 C631 1.539 . S
C629 C625 1.408 . S
C629 C628 1.404 . S
C629 H641 0.930 . S
C630 C626 1.524 1_554 S
C630 H642 0.956 . S
C630 H643 0.961 . S
C630 H644 0.961 . S
C631 C628 1.539 . S
C631 H645 0.958 . S
C631 H646 0.961 . S
C631 H647 0.960 . S
H632 C616 0.931 . S
H633 C621 0.929 . S
H634 C622 0.960 . S
H635 C622 0.962 . S
H636 C622 0.960 . S
H637 C623 0.961 1_554 S
H638 C623 0.961 . S
H639 C623 0.961 . S
H640 C624 0.931 . S
H641 C629 0.930 . S
H642 C630 0.956 . S
H643 C630 0.961 . S
H644 C630 0.961 . S
H645 C631 0.958 . S
H646 C631 0.961 . S
H647 C631 0.960 . S
C648 C649 1.391 1_455 S
C648 C650 1.394 . S
C648 H664 0.931 . S
C649 C648 1.391 1_655 S
C649 C653 1.376 . S
C650 C648 1.394 . S
C650 C651 1.369 1_455 S
C650 C654 1.531 1_554 S
C651 C650 1.369 1_655 S
C651 C652 1.410 . S
C651 C659 1.503 1_554 S
C652 C651 1.410 . S
C652 C653 1.392 . S
C652 C655 1.511 . S
C653 C649 1.376 . S
C653 C652 1.392 . S
C653 H665 0.929 . S
C654 C650 1.531 1_556 S
C654 H666 0.960 . S
C654 H667 0.962 . S
C654 H668 0.960 1_556 S
C655 C652 1.511 . S
C655 H669 0.961 . S
C655 H670 0.961 . S
C655 H671 0.961 . S
C656 C657 1.379 . S
C656 C658 1.363 . S
C656 H672 0.931 . S
C657 C656 1.379 . S
C657 C661 1.400 1_655 S
C658 C656 1.363 . S
C658 C659 1.370 . S
C658 C662 1.524 . S
C659 C651 1.503 1_556 S
C659 C658 1.370 . S
C659 C660 1.403 1_655 S
C660 C659 1.403 1_455 S
C660 C661 1.404 . S
C660 C663 1.539 1_556 S
C661 C657 1.400 1_455 S
C661 C660 1.404 . S
C661 H673 0.930 . S
C662 C658 1.524 . S
C662 H674 0.956 . S
C662 H675 0.961 . S
C662 H676 0.961 . S
C663 C660 1.539 1_554 S
C663 H677 0.958 . S
C663 H678 0.961 . S
C663 H679 0.960 . S
H664 C648 0.931 . S
H665 C653 0.929 . S
H666 C654 0.960 . S
H667 C654 0.962 . S
H668 C654 0.960 1_554 S
H669 C655 0.961 . S
H670 C655 0.961 . S
H671 C655 0.961 . S
H672 C656 0.931 . S
H673 C661 0.930 . S
H674 C662 0.956 . S
H675 C662 0.961 . S
H676 C662 0.961 . S
H677 C663 0.958 . S
H678 C663 0.961 . S
H679 C663 0.960 . S
C680 C681 1.391 . S
C680 C682 1.394 . S
C680 H696 0.931 . S
C681 C680 1.391 . S
C681 C685 1.376 . S
C682 C680 1.394 . S
C682 C683 1.369 . S
C682 C686 1.531 1_455 S
C683 C682 1.369 . S
C683 C684 1.410 . S
C683 C691 1.503 . S
C684 C683 1.410 . S
C684 C685 1.392 . S
C684 C687 1.511 . S
C685 C681 1.376 . S
C685 C684 1.392 . S
C685 H697 0.929 . S
C686 C682 1.531 1_655 S
C686 H698 0.960 . S
C686 H699 0.962 . S
C686 H700 0.960 . S
C687 C684 1.511 . S
C687 H701 0.961 . S
C687 H702 0.961 . S
C687 H703 0.961 . S
C688 C689 1.370 . S
C688 C690 1.363 . S
C688 H704 0.931 . S
C689 C688 1.370 . S
C689 C693 1.408 1_455 S
C690 C688 1.363 . S
C690 C691 1.370 . S
C690 C694 1.524 . S
C691 C683 1.503 . S
C691 C690 1.370 . S
C691 C692 1.403 . S
C692 C691 1.403 . S
C692 C693 1.404 1_455 S
C692 C695 1.539 1_455 S
C693 C689 1.408 1_655 S
C693 C692 1.404 1_655 S
C693 H705 0.930 . S
C694 C690 1.524 . S
C694 H706 0.956 . S
C694 H707 0.961 . S
C694 H708 0.961 . S
C695 C692 1.539 1_655 S
C695 H709 0.958 . S
C695 H710 0.961 . S
C695 H711 0.960 1_655 S
H696 C680 0.931 . S
H697 C685 0.929 . S
H698 C686 0.960 . S
H699 C686 0.962 . S
H700 C686 0.960 . S
H701 C687 0.961 . S
H702 C687 0.961 . S
H703 C687 0.961 . S
H704 C688 0.931 . S
H705 C693 0.930 . S
H706 C694 0.956 . S
H707 C694 0.961 . S
H708 C694 0.961 . S
H709 C695 0.958 . S
H710 C695 0.961 . S
H711 C695 0.960 1_455 S
C712 C713 1.391 . S
C712 C714 1.394 . S
C712 H728 0.931 . S
C713 C712 1.391 . S
C713 C717 1.376 . S
C714 C712 1.394 . S
C714 C715 1.369 . S
C714 C718 1.531 1_545 S
C715 C714 1.369 . S
C715 C716 1.410 . S
C715 C723 1.503 . S
C716 C715 1.410 . S
C716 C717 1.392 . S
C716 C719 1.511 . S
C717 C713 1.376 . S
C717 C716 1.392 . S
C717 H729 0.929 . S
C718 C714 1.531 1_565 S
C718 H730 0.960 . S
C718 H731 0.962 . S
C718 H732 0.960 . S
C719 C716 1.511 . S
C719 H733 0.961 . S
C719 H734 0.961 . S
C719 H735 0.961 . S
C720 C721 1.370 . S
C720 C722 1.363 . S
C720 H736 0.931 . S
C721 C720 1.370 . S
C721 C725 1.408 . S
C722 C720 1.363 . S
C722 C723 1.370 . S
C722 C726 1.524 . S
C723 C715 1.503 . S
C723 C722 1.370 . S
C723 C724 1.403 . S
C724 C723 1.403 . S
C724 C725 1.404 . S
C724 C727 1.539 . S
C725 C721 1.408 . S
C725 C724 1.404 . S
C725 H737 0.930 1_545 S
C726 C722 1.524 . S
C726 H738 0.956 . S
C726 H739 0.961 . S
C726 H740 0.961 . S
C727 C724 1.539 . S
C727 H741 0.958 1_545 S
C727 H742 0.961 . S
C727 H743 0.960 . S
H728 C712 0.931 . S
H729 C717 0.929 . S
H730 C718 0.960 . S
H731 C718 0.962 . S
H732 C718 0.960 . S
H733 C719 0.961 . S
H734 C719 0.961 . S
H735 C719 0.961 . S
H736 C720 0.931 . S
H737 C725 0.930 1_565 S
H738 C726 0.956 . S
H739 C726 0.961 . S
H740 C726 0.961 . S
H741 C727 0.958 1_565 S
H742 C727 0.961 . S
H743 C727 0.960 . S
C744 C745 1.391 . S
C744 C746 1.394 . S
C744 H760 0.931 . S
C745 C744 1.391 . S
C745 C749 1.376 . S
C746 C744 1.394 . S
C746 C747 1.369 . S
C746 C750 1.531 . S
C747 C746 1.369 . S
C747 C748 1.410 . S
C747 C755 1.503 . S
C748 C747 1.410 . S
C748 C749 1.392 . S
C748 C751 1.511 . S
C749 C745 1.376 . S
C749 C748 1.392 . S
C749 H761 0.929 . S
C750 C746 1.531 . S
C750 H762 0.960 . S
C750 H763 0.962 . S
C750 H764 0.960 . S
C751 C748 1.511 . S
C751 H765 0.961 . S
C751 H766 0.961 . S
C751 H767 0.961 . S
C752 C753 1.370 . S
C752 C754 1.363 . S
C752 H768 0.931 . S
C753 C752 1.370 . S
C753 C757 1.408 . S
C754 C752 1.363 . S
C754 C755 1.370 . S
C754 C758 1.524 . S
C755 C747 1.503 . S
C755 C754 1.370 . S
C755 C756 1.403 . S
C756 C755 1.403 . S
C756 C757 1.404 . S
C756 C759 1.539 . S
C757 C753 1.408 . S
C757 C756 1.404 . S
C757 H769 0.930 . S
C758 C754 1.524 . S
C758 H770 0.956 . S
C758 H771 0.961 . S
C758 H772 0.961 . S
C759 C756 1.539 . S
C759 H773 0.958 . S
C759 H774 0.961 . S
C759 H775 0.960 . S
H760 C744 0.931 . S
H761 C749 0.929 . S
H762 C750 0.960 . S
H763 C750 0.962 . S
H764 C750 0.960 . S
H765 C751 0.961 . S
H766 C751 0.961 . S
H767 C751 0.961 . S
H768 C752 0.931 . S
H769 C757 0.930 . S
H770 C758 0.956 . S
H771 C758 0.961 . S
H772 C758 0.961 . S
H773 C759 0.958 . S
H774 C759 0.961 . S
H775 C759 0.960 . S
C776 C777 1.391 . S
C776 C778 1.394 . S
C776 H792 0.931 . S
C777 C776 1.391 . S
C777 C781 1.376 . S
C778 C776 1.394 . S
C778 C779 1.369 . S
C778 C782 1.531 . S
C779 C778 1.369 . S
C779 C780 1.410 . S
C779 C787 1.503 . S
C780 C779 1.410 . S
C780 C781 1.392 . S
C780 C783 1.511 . S
C781 C777 1.376 . S
C781 C780 1.392 . S
C781 H793 0.929 . S
C782 C778 1.531 . S
C782 H794 0.960 . S
C782 H795 0.962 . S
C782 H796 0.960 . S
C783 C780 1.511 . S
C783 H797 0.961 . S
C783 H798 0.961 . S
C783 H799 0.961 . S
C784 C785 1.370 . S
C784 C786 1.363 . S
C784 H800 0.931 . S
C785 C784 1.370 . S
C785 C789 1.408 . S
C786 C784 1.363 . S
C786 C787 1.370 . S
C786 C790 1.524 . S
C787 C779 1.503 . S
C787 C786 1.370 . S
C787 C788 1.403 . S
C788 C787 1.403 . S
C788 C789 1.404 . S
C788 C791 1.539 . S
C789 C785 1.408 . S
C789 C788 1.404 . S
C789 H801 0.930 . S
C790 C786 1.524 . S
C790 H802 0.956 . S
C790 H803 0.961 . S
C790 H804 0.961 . S
C791 C788 1.539 . S
C791 H805 0.958 . S
C791 H806 0.961 . S
C791 H807 0.960 . S
H792 C776 0.931 . S
H793 C781 0.929 . S
H794 C782 0.960 . S
H795 C782 0.962 . S
H796 C782 0.960 . S
H797 C783 0.961 . S
H798 C783 0.961 . S
H799 C783 0.961 . S
H800 C784 0.931 . S
H801 C789 0.930 . S
H802 C790 0.956 . S
H803 C790 0.961 . S
H804 C790 0.961 . S
H805 C791 0.958 . S
H806 C791 0.961 . S
H807 C791 0.960 . S
C808 C809 1.391 . S
C808 C810 1.394 . S
C808 H824 0.931 . S
C809 C808 1.391 . S
C809 C813 1.376 . S
C810 C808 1.394 . S
C810 C811 1.369 . S
C810 C814 1.530 1_655 S
C811 C810 1.369 . S
C811 C812 1.410 . S
C811 C819 1.503 1_655 S
C812 C811 1.410 . S
C812 C813 1.392 . S
C812 C815 1.511 . S
C813 C809 1.376 . S
C813 C812 1.392 . S
C813 H825 0.929 . S
C814 C810 1.530 1_455 S
C814 H826 0.960 . S
C814 H827 0.962 1_455 S
C814 H828 0.960 . S
C815 C812 1.511 . S
C815 H829 0.961 1_554 S
C815 H830 0.961 1_554 S
C815 H831 0.961 1_654 S
C816 C817 1.370 1_654 S
C816 C818 1.363 . S
C816 H832 0.931 . S
C817 C816 1.370 1_456 S
C817 C821 1.408 1_556 S
C818 C816 1.363 . S
C818 C819 1.370 1_655 S
C818 C822 1.524 . S
C819 C811 1.503 1_455 S
C819 C818 1.370 1_455 S
C819 C820 1.403 . S
C820 C819 1.403 . S
C820 C821 1.404 . S
C820 C823 1.539 . S
C821 C817 1.408 1_554 S
C821 C820 1.404 . S
C821 H833 0.930 1_554 S
C822 C818 1.524 . S
C822 H834 0.956 . S
C822 H835 0.961 . S
C822 H836 0.961 . S
C823 C820 1.539 . S
C823 H837 0.958 . S
C823 H838 0.961 . S
C823 H839 0.960 . S
H824 C808 0.931 . S
H825 C813 0.929 . S
H826 C814 0.960 . S
H827 C814 0.962 1_655 S
H828 C814 0.960 . S
H829 C815 0.961 1_556 S
H830 C815 0.961 1_556 S
H831 C815 0.961 1_456 S
H832 C816 0.931 . S
H833 C821 0.930 1_556 S
H834 C822 0.956 . S
H835 C822 0.961 . S
H836 C822 0.961 . S
H837 C823 0.958 . S
H838 C823 0.961 . S
H839 C823 0.960 . S
C840 C841 1.391 1_545 S
C840 C842 1.394 . S
C840 H856 0.931 . S
C841 C840 1.391 1_565 S
C841 C845 1.376 . S
C842 C840 1.394 . S
C842 C843 1.369 1_545 S
C842 C846 1.531 . S
C843 C842 1.369 1_565 S
C843 C844 1.410 . S
C843 C851 1.503 1_565 S
C844 C843 1.410 . S
C844 C845 1.392 . S
C844 C847 1.511 . S
C845 C841 1.376 . S
C845 C844 1.392 . S
C845 H857 0.929 . S
C846 C842 1.531 . S
C846 H858 0.960 . S
C846 H859 0.962 . S
C846 H860 0.960 . S
C847 C844 1.511 . S
C847 H861 0.961 . S
C847 H862 0.961 . S
C847 H863 0.961 . S
C848 C849 1.370 . S
C848 C850 1.363 1_545 S
C848 H864 0.931 1_545 S
C849 C848 1.370 . S
C849 C853 1.408 1_554 S
C850 C848 1.363 1_565 S
C850 C851 1.370 1_565 S
C850 C854 1.524 . S
C851 C843 1.503 1_545 S
C851 C850 1.370 1_545 S
C851 C852 1.403 . S
C852 C851 1.403 . S
C852 C853 1.404 1_554 S
C852 C855 1.539 1_554 S
C853 C849 1.408 1_556 S
C853 C852 1.404 1_556 S
C853 H865 0.930 . S
C854 C850 1.524 . S
C854 H866 0.956 . S
C854 H867 0.961 . S
C854 H868 0.961 . S
C855 C852 1.539 1_556 S
C855 H869 0.958 . S
C855 H870 0.961 . S
C855 H871 0.960 . S
H856 C840 0.931 . S
H857 C845 0.929 . S
H858 C846 0.960 . S
H859 C846 0.962 . S
H860 C846 0.960 . S
H861 C847 0.961 . S
H862 C847 0.961 . S
H863 C847 0.961 . S
H864 C848 0.931 1_565 S
H865 C853 0.930 . S
H866 C854 0.956 . S
H867 C854 0.961 . S
H868 C854 0.961 . S
H869 C855 0.958 . S
H870 C855 0.961 . S
H871 C855 0.960 . S
C872 C873 1.391 . S
C872 C874 1.394 . S
C872 H888 0.931 . S
C873 C872 1.391 . S
C873 C877 1.376 . S
C874 C872 1.394 . S
C874 C875 1.369 . S
C874 C878 1.531 . S
C875 C874 1.369 . S
C875 C876 1.410 . S
C875 C883 1.503 . S
C876 C875 1.410 . S
C876 C877 1.392 . S
C876 C879 1.511 . S
C877 C873 1.376 . S
C877 C876 1.392 . S
C877 H889 0.929 . S
C878 C874 1.531 . S
C878 H890 0.960 . S
C878 H891 0.962 . S
C878 H892 0.960 . S
C879 C876 1.511 . S
C879 H893 0.961 1_554 S
C879 H894 0.961 1_554 S
C879 H895 0.961 . S
C880 C881 1.370 1_554 S
C880 C882 1.363 . S
C880 H896 0.931 . S
C881 C880 1.370 1_556 S
C881 C885 1.408 1_556 S
C882 C880 1.363 . S
C882 C883 1.370 . S
C882 C886 1.524 . S
C883 C875 1.503 . S
C883 C882 1.370 . S
C883 C884 1.403 . S
C884 C883 1.403 . S
C884 C885 1.404 . S
C884 C887 1.539 . S
C885 C881 1.408 1_554 S
C885 C884 1.404 . S
C885 H897 0.930 . S
C886 C882 1.524 . S
C886 H898 0.956 . S
C886 H899 0.961 . S
C886 H900 0.961 . S
C887 C884 1.539 . S
C887 H901 0.958 . S
C887 H902 0.961 . S
C887 H903 0.960 . S
H888 C872 0.931 . S
H889 C877 0.929 . S
H890 C878 0.960 . S
H891 C878 0.962 . S
H892 C878 0.960 . S
H893 C879 0.961 1_556 S
H894 C879 0.961 1_556 S
H895 C879 0.961 . S
H896 C880 0.931 . S
H897 C885 0.930 . S
H898 C886 0.956 . S
H899 C886 0.961 . S
H900 C886 0.961 . S
H901 C887 0.958 . S
H902 C887 0.961 . S
H903 C887 0.960 . S
C904 C905 1.391 . S
C904 C906 1.394 . S
C904 H920 0.931 . S
C905 C904 1.391 . S
C905 C909 1.376 . S
C906 C904 1.394 . S
C906 C907 1.369 . S
C906 C910 1.531 . S
C907 C906 1.369 . S
C907 C908 1.410 . S
C907 C915 1.503 . S
C908 C907 1.410 . S
C908 C909 1.392 . S
C908 C911 1.511 . S
C909 C905 1.376 . S
C909 C908 1.392 . S
C909 H921 0.929 . S
C910 C906 1.531 . S
C910 H922 0.960 . S
C910 H923 0.962 . S
C910 H924 0.960 . S
C911 C908 1.511 . S
C911 H925 0.961 1_554 S
C911 H926 0.961 1_554 S
C911 H927 0.961 1_554 S
C912 C913 1.370 1_554 S
C912 C914 1.363 . S
C912 H928 0.931 . S
C913 C912 1.370 1_556 S
C913 C917 1.408 1_556 S
C914 C912 1.363 . S
C914 C915 1.370 . S
C914 C918 1.524 . S
C915 C907 1.503 . S
C915 C914 1.370 . S
C915 C916 1.403 . S
C916 C915 1.403 . S
C916 C917 1.404 . S
C916 C919 1.539 . S
C917 C913 1.408 1_554 S
C917 C916 1.404 . S
C917 H929 0.930 1_554 S
C918 C914 1.524 . S
C918 H930 0.956 . S
C918 H931 0.961 . S
C918 H932 0.961 . S
C919 C916 1.539 . S
C919 H933 0.958 . S
C919 H934 0.961 . S
C919 H935 0.960 . S
H920 C904 0.931 . S
H921 C909 0.929 . S
H922 C910 0.960 . S
H923 C910 0.962 . S
H924 C910 0.960 . S
H925 C911 0.961 1_556 S
H926 C911 0.961 1_556 S
H927 C911 0.961 1_556 S
H928 C912 0.931 . S
H929 C917 0.930 1_556 S
H930 C918 0.956 . S
H931 C918 0.961 . S
H932 C918 0.961 . S
H933 C919 0.958 . S
H934 C919 0.961 . S
H935 C919 0.960 . S
C936 C937 1.391 . S
C936 C938 1.394 . S
C936 H952 0.931 . S
C937 C936 1.391 . S
C937 C941 1.376 . S
C938 C936 1.394 . S
C938 C939 1.369 . S
C938 C942 1.531 . S
C939 C938 1.369 . S
C939 C940 1.410 . S
C939 C947 1.503 . S
C940 C939 1.410 . S
C940 C941 1.392 . S
C940 C943 1.511 1_455 S
C941 C937 1.376 . S
C941 C940 1.392 . S
C941 H953 0.950 . S
C942 C938 1.531 . S
C942 H954 0.960 . S
C942 H955 0.962 . S
C942 H956 0.960 . S
C943 C940 1.511 1_655 S
C943 H957 0.961 . S
C943 H958 0.961 . S
C943 H959 0.961 . S
C944 C945 1.370 . S
C944 C946 1.363 . S
C944 H960 0.931 . S
C945 C944 1.370 . S
C945 C949 1.408 . S
C946 C944 1.363 . S
C946 C947 1.370 . S
C946 C950 1.524 . S
C947 C939 1.503 . S
C947 C946 1.370 . S
C947 C948 1.403 . S
C948 C947 1.403 . S
C948 C949 1.404 . S
C948 C951 1.539 1_455 S
C949 C945 1.408 . S
C949 C948 1.404 . S
C949 H961 0.930 . S
C950 C946 1.524 . S
C950 H962 0.956 . S
C950 H963 0.961 . S
C950 H964 0.961 . S
C951 C948 1.539 1_655 S
C951 H965 0.958 1_656 S
C951 H966 0.961 . S
C951 H967 0.960 . S
H952 C936 0.931 . S
H953 C941 0.950 . S
H954 C942 0.960 . S
H955 C942 0.962 . S
H956 C942 0.960 . S
H957 C943 0.961 . S
H958 C943 0.961 . S
H959 C943 0.961 . S
H960 C944 0.931 . S
H961 C949 0.930 . S
H962 C950 0.956 . S
H963 C950 0.961 . S
H964 C950 0.961 . S
H965 C951 0.958 1_454 S
H966 C951 0.961 . S
H967 C951 0.960 . S
C968 C969 1.391 . S
C968 C970 1.394 . S
C968 H984 0.931 1_556 S
C969 C968 1.391 . S
C969 C973 1.376 . S
C970 C968 1.394 . S
C970 C971 1.369 . S
C970 C974 1.531 . S
C971 C970 1.369 . S
C971 C972 1.410 . S
C971 C979 1.503 . S
C972 C971 1.410 . S
C972 C973 1.392 . S
C972 C975 1.511 . S
C973 C969 1.376 . S
C973 C972 1.392 . S
C973 H985 0.929 . S
C974 C970 1.531 . S
C974 H986 0.960 . S
C974 H987 0.962 1_556 S
C974 H988 0.960 1_556 S
C975 C972 1.511 . S
C975 H989 0.961 . S
C975 H990 0.961 . S
C975 H991 0.961 . S
C976 C977 1.370 . S
C976 C978 1.363 . S
C976 H992 0.931 . S
C977 C976 1.370 . S
C977 C981 1.445 . S
C978 C976 1.363 . S
C978 C979 1.370 . S
C978 C982 1.524 . S
C979 C971 1.503 . S
C979 C978 1.370 . S
C979 C980 1.403 . S
C980 C979 1.403 . S
C980 C981 1.407 . S
C980 C983 1.539 1_545 S
C981 C977 1.445 . S
C981 C980 1.407 . S
C981 H993 0.893 1_545 S
C982 C978 1.524 . S
C982 H994 0.956 . S
C982 H995 0.961 . S
C982 H996 0.961 . S
C983 C980 1.539 1_565 S
C983 H997 0.958 . S
C983 H998 0.961 . S
C983 H999 0.960 . S
H984 C968 0.931 1_554 S
H985 C973 0.929 . S
H986 C974 0.960 . S
H987 C974 0.962 1_554 S
H988 C974 0.960 1_554 S
H989 C975 0.961 . S
H990 C975 0.961 . S
H991 C975 0.961 . S
H992 C976 0.931 . S
H993 C981 0.893 1_565 S
H994 C982 0.956 . S
H995 C982 0.961 . S
H996 C982 0.961 . S
H997 C983 0.958 . S
H998 C983 0.961 . S
H999 C983 0.960 . S
C1000 C1001 1.391 . S
C1000 C1002 1.394 . S
C1000 H1016 0.931 . S
C1001 C1000 1.391 . S
C1001 C1005 1.376 . S
C1002 C1000 1.394 . S
C1002 C1003 1.369 . S
C1002 C1006 1.531 . S
C1003 C1002 1.369 . S
C1003 C1004 1.410 . S
C1003 C1011 1.503 . S
C1004 C1003 1.410 . S
C1004 C1005 1.392 . S
C1004 C1007 1.511 . S
C1005 C1001 1.376 . S
C1005 C1004 1.392 . S
C1005 H1017 0.929 . S
C1006 C1002 1.531 . S
C1006 H1018 0.960 . S
C1006 H1019 0.962 . S
C1006 H1020 0.960 . S
C1007 C1004 1.511 . S
C1007 H1021 0.961 . S
C1007 H1022 0.961 . S
C1007 H1023 0.961 . S
C1008 C1009 1.370 . S
C1008 C1010 1.363 . S
C1008 H1024 0.931 . S
C1009 C1008 1.370 . S
C1009 C1013 1.408 . S
C1010 C1008 1.363 . S
C1010 C1011 1.370 . S
C1010 C1014 1.524 . S
C1011 C1003 1.503 . S
C1011 C1010 1.370 . S
C1011 C1012 1.403 . S
C1012 C1011 1.403 . S
C1012 C1013 1.404 . S
C1012 C1015 1.539 . S
C1013 C1009 1.408 . S
C1013 C1012 1.404 . S
C1013 H1025 0.930 . S
C1014 C1010 1.524 . S
C1014 H1026 0.956 . S
C1014 H1027 0.961 . S
C1014 H1028 0.961 . S
C1015 C1012 1.539 . S
C1015 H1029 0.958 . S
C1015 H1030 0.961 . S
C1015 H1031 0.960 . S
H1016 C1000 0.931 . S
H1017 C1005 0.929 . S
H1018 C1006 0.960 . S
H1019 C1006 0.962 . S
H1020 C1006 0.960 . S
H1021 C1007 0.961 . S
H1022 C1007 0.961 . S
H1023 C1007 0.961 . S
H1024 C1008 0.931 . S
H1025 C1013 0.930 . S
H1026 C1014 0.956 . S
H1027 C1014 0.961 . S
H1028 C1014 0.961 . S
H1029 C1015 0.958 . S
H1030 C1015 0.961 . S
H1031 C1015 0.960 . S
C1032 C1033 1.391 . S
C1032 C1034 1.394 . S
C1032 H1048 0.931 1_556 S
C1033 C1032 1.391 . S
C1033 C1037 1.376 . S
C1034 C1032 1.394 . S
C1034 C1035 1.369 . S
C1034 C1038 1.531 . S
C1035 C1034 1.369 . S
C1035 C1036 1.410 . S
C1035 C1043 1.503 . S
C1036 C1035 1.410 . S
C1036 C1037 1.392 . S
C1036 C1039 1.511 . S
C1037 C1033 1.376 . S
C1037 C1036 1.392 . S
C1037 H1049 0.929 . S
C1038 C1034 1.531 . S
C1038 H1050 0.960 . S
C1038 H1051 0.962 1_556 S
C1038 H1052 0.960 1_556 S
C1039 C1036 1.511 . S
C1039 H1053 0.961 . S
C1039 H1054 0.961 . S
C1039 H1055 0.961 . S
C1040 C1041 1.370 . S
C1040 C1042 1.363 . S
C1040 H1056 0.931 . S
C1041 C1040 1.370 . S
C1041 C1045 1.408 . S
C1042 C1040 1.363 . S
C1042 C1043 1.370 . S
C1042 C1046 1.524 . S
C1043 C1035 1.503 . S
C1043 C1042 1.370 . S
C1043 C1044 1.403 . S
C1044 C1043 1.403 . S
C1044 C1045 1.404 . S
C1044 C1047 1.539 . S
C1045 C1041 1.408 . S
C1045 C1044 1.404 . S
C1045 H1057 0.930 . S
C1046 C1042 1.524 . S
C1046 H1058 0.956 . S
C1046 H1059 0.961 . S
C1046 H1060 0.961 . S
C1047 C1044 1.539 . S
C1047 H1061 0.958 . S
C1047 H1062 0.961 . S
C1047 H1063 0.960 . S
H1048 C1032 0.931 1_554 S
H1049 C1037 0.929 . S
H1050 C1038 0.960 . S
H1051 C1038 0.962 1_554 S
H1052 C1038 0.960 1_554 S
H1053 C1039 0.961 . S
H1054 C1039 0.961 . S
H1055 C1039 0.961 . S
H1056 C1040 0.931 . S
H1057 C1045 0.930 . S
H1058 C1046 0.956 . S
H1059 C1046 0.961 . S
H1060 C1046 0.961 . S
H1061 C1047 0.958 . S
H1062 C1047 0.961 . S
H1063 C1047 0.960 . S
C1064 C1065 1.391 1_455 S
C1064 C1066 1.394 . S
C1064 H1080 0.931 . S
C1065 C1064 1.391 1_655 S
C1065 C1069 1.376 . S
C1066 C1064 1.394 . S
C1066 C1067 1.369 1_455 S
C1066 C1070 1.531 . S
C1067 C1066 1.369 1_655 S
C1067 C1068 1.410 . S
C1067 C1075 1.503 . S
C1068 C1067 1.410 . S
C1068 C1069 1.392 . S
C1068 C1071 1.511 . S
C1069 C1065 1.376 . S
C1069 C1068 1.392 . S
C1069 H1081 0.929 . S
C1070 C1066 1.531 . S
C1070 H1082 0.960 . S
C1070 H1083 0.962 . S
C1070 H1084 0.960 . S
C1071 C1068 1.511 . S
C1071 H1085 0.961 . S
C1071 H1086 0.961 . S
C1071 H1087 0.961 . S
C1072 C1073 1.370 . S
C1072 C1074 1.363 . S
C1072 H1088 0.925 1_655 S
C1073 C1072 1.370 . S
C1073 C1077 1.408 . S
C1074 C1072 1.363 . S
C1074 C1075 1.370 . S
C1074 C1078 1.524 . S
C1075 C1067 1.503 . S
C1075 C1074 1.370 . S
C1075 C1076 1.403 . S
C1076 C1075 1.403 . S
C1076 C1077 1.404 . S
C1076 C1079 1.539 . S
C1077 C1073 1.408 . S
C1077 C1076 1.404 . S
C1077 H1089 0.930 . S
C1078 C1074 1.524 . S
C1078 H1090 0.956 1_655 S
C1078 H1091 0.961 . S
C1078 H1092 0.961 . S
C1079 C1076 1.539 . S
C1079 H1093 0.958 . S
C1079 H1094 0.961 . S
C1079 H1095 0.960 . S
H1080 C1064 0.931 . S
H1081 C1069 0.929 . S
H1082 C1070 0.960 . S
H1083 C1070 0.962 . S
H1084 C1070 0.960 . S
H1085 C1071 0.961 . S
H1086 C1071 0.961 . S
H1087 C1071 0.961 . S
H1088 C1072 0.925 1_455 S
H1089 C1077 0.930 . S
H1090 C1078 0.956 1_455 S
H1091 C1078 0.961 . S
H1092 C1078 0.961 . S
H1093 C1079 0.958 . S
H1094 C1079 0.961 . S
H1095 C1079 0.960 . S
C1096 C1097 1.391 . S
C1096 C1098 1.394 . S
C1096 H1112 0.931 . S
C1097 C1096 1.391 . S
C1097 C1101 1.376 1_565 S
C1098 C1096 1.394 . S
C1098 C1099 1.369 . S
C1098 C1102 1.531 . S
C1099 C1098 1.369 . S
C1099 C1100 1.410 1_565 S
C1099 C1107 1.503 . S
C1100 C1099 1.410 1_545 S
C1100 C1101 1.392 . S
C1100 C1103 1.511 . S
C1101 C1097 1.376 1_545 S
C1101 C1100 1.392 . S
C1101 H1113 0.929 . S
C1102 C1098 1.531 . S
C1102 H1114 0.960 . S
C1102 H1115 0.962 . S
C1102 H1116 0.960 . S
C1103 C1100 1.511 . S
C1103 H1117 0.961 . S
C1103 H1118 0.961 . S
C1103 H1119 0.961 . S
C1104 C1105 1.370 1_545 S
C1104 C1106 1.363 . S
C1104 H1120 0.931 . S
C1105 C1104 1.370 1_565 S
C1105 C1109 1.408 . S
C1106 C1104 1.363 . S
C1106 C1107 1.370 1_545 S
C1106 C1110 1.524 . S
C1107 C1099 1.503 . S
C1107 C1106 1.370 1_565 S
C1107 C1108 1.403 . S
C1108 C1107 1.403 . S
C1108 C1109 1.404 . S
C1108 C1111 1.539 . S
C1109 C1105 1.408 . S
C1109 C1108 1.404 . S
C1109 H1121 0.930 . S
C1110 C1106 1.524 . S
C1110 H1122 0.925 1_545 S
C1110 H1123 0.961 . S
C1110 H1124 0.961 . S
C1111 C1108 1.539 . S
C1111 H1125 0.958 . S
C1111 H1126 0.961 . S
C1111 H1127 0.960 . S
H1112 C1096 0.931 . S
H1113 C1101 0.929 . S
H1114 C1102 0.960 . S
H1115 C1102 0.962 . S
H1116 C1102 0.960 . S
H1117 C1103 0.961 . S
H1118 C1103 0.961 . S
H1119 C1103 0.961 . S
H1120 C1104 0.931 . S
H1121 C1109 0.930 . S
H1122 C1110 0.925 1_565 S
H1123 C1110 0.961 . S
H1124 C1110 0.961 . S
H1125 C1111 0.958 . S
H1126 C1111 0.961 . S
H1127 C1111 0.960 . S
C1128 C1129 1.391 . S
C1128 C1130 1.394 . S
C1128 H1144 0.931 . S
C1129 C1128 1.391 . S
C1129 C1133 1.376 . S
C1130 C1128 1.394 . S
C1130 C1131 1.369 . S
C1130 C1134 1.531 . S
C1131 C1130 1.369 . S
C1131 C1132 1.410 . S
C1131 C1139 1.503 . S
C1132 C1131 1.410 . S
C1132 C1133 1.392 . S
C1132 C1135 1.511 . S
C1133 C1129 1.376 . S
C1133 C1132 1.392 . S
C1133 H1145 0.929 . S
C1134 C1130 1.531 . S
C1134 H1146 0.960 . S
C1134 H1147 0.962 . S
C1134 H1148 0.960 . S
C1135 C1132 1.511 . S
C1135 H1149 0.961 . S
C1135 H1150 0.961 . S
C1135 H1151 0.961 . S
C1136 C1137 1.370 . S
C1136 C1138 1.363 . S
C1136 H1152 0.931 . S
C1137 C1136 1.370 . S
C1137 C1141 1.408 . S
C1138 C1136 1.363 . S
C1138 C1139 1.370 . S
C1138 C1142 1.524 . S
C1139 C1131 1.503 . S
C1139 C1138 1.370 . S
C1139 C1140 1.403 . S
C1140 C1139 1.403 . S
C1140 C1141 1.404 . S
C1140 C1143 1.539 . S
C1141 C1137 1.408 . S
C1141 C1140 1.404 . S
C1141 H1153 0.930 . S
C1142 C1138 1.524 . S
C1142 H1154 0.956 . S
C1142 H1155 0.961 . S
C1142 H1156 0.961 . S
C1143 C1140 1.539 . S
C1143 H1157 0.958 . S
C1143 H1158 0.961 . S
C1143 H1159 0.960 . S
H1144 C1128 0.931 . S
H1145 C1133 0.929 . S
H1146 C1134 0.960 . S
H1147 C1134 0.962 . S
H1148 C1134 0.960 . S
H1149 C1135 0.961 . S
H1150 C1135 0.961 . S
H1151 C1135 0.961 . S
H1152 C1136 0.931 . S
H1153 C1141 0.930 . S
H1154 C1142 0.956 . S
H1155 C1142 0.961 . S
H1156 C1142 0.961 . S
H1157 C1143 0.958 . S
H1158 C1143 0.961 . S
H1159 C1143 0.960 . S
C1160 C1161 1.391 . S
C1160 C1162 1.394 . S
C1160 H1176 0.931 . S
C1161 C1160 1.391 . S
C1161 C1165 1.376 . S
C1162 C1160 1.394 . S
C1162 C1163 1.369 . S
C1162 C1166 1.531 . S
C1163 C1162 1.369 . S
C1163 C1164 1.410 . S
C1163 C1171 1.503 . S
C1164 C1163 1.410 . S
C1164 C1165 1.392 . S
C1164 C1167 1.511 . S
C1165 C1161 1.376 . S
C1165 C1164 1.392 . S
C1165 H1177 0.929 . S
C1166 C1162 1.531 . S
C1166 H1178 0.960 . S
C1166 H1179 0.962 . S
C1166 H1180 0.960 . S
C1167 C1164 1.511 . S
C1167 H1181 0.961 . S
C1167 H1182 0.961 . S
C1167 H1183 0.961 . S
C1168 C1169 1.370 . S
C1168 C1170 1.363 . S
C1168 H1184 0.931 . S
C1169 C1168 1.370 . S
C1169 C1173 1.408 . S
C1170 C1168 1.363 . S
C1170 C1171 1.370 . S
C1170 C1174 1.524 . S
C1171 C1163 1.503 . S
C1171 C1170 1.370 . S
C1171 C1172 1.403 . S
C1172 C1171 1.403 . S
C1172 C1173 1.404 . S
C1172 C1175 1.539 . S
C1173 C1169 1.408 . S
C1173 C1172 1.404 . S
C1173 H1185 0.930 . S
C1174 C1170 1.524 . S
C1174 H1186 0.956 . S
C1174 H1187 0.961 . S
C1174 H1188 0.961 . S
C1175 C1172 1.539 . S
C1175 H1189 0.958 . S
C1175 H1190 0.961 . S
C1175 H1191 0.960 . S
H1176 C1160 0.931 . S
H1177 C1165 0.929 . S
H1178 C1166 0.960 . S
H1179 C1166 0.962 . S
H1180 C1166 0.960 . S
H1181 C1167 0.961 . S
H1182 C1167 0.961 . S
H1183 C1167 0.961 . S
H1184 C1168 0.931 . S
H1185 C1173 0.930 . S
H1186 C1174 0.956 . S
H1187 C1174 0.961 . S
H1188 C1174 0.961 . S
H1189 C1175 0.958 . S
H1190 C1175 0.961 . S
H1191 C1175 0.960 . S
C425 C76 1.916 . S
C433 C151 2.011 . S
C465 C228 2.029 . S
C457 C87 1.857 . S
C497 C319 2.008 . S
C489 C54 1.904 . S
C529 C403 1.993 . S
C521 C65 1.902 . S
C561 C162 2.011 . S
C553 C32 1.918 . S
C585 C43 1.859 . S
C593 C239 2.032 . S
C617 C10 1.855 . S
C625 C330 2.012 . S
C649 C21 1.892 . S
C657 C414 1.988 1_655 S
C689 C146 0.621 1_455 S
C681 C60 0.527 . S
C721 C241 0.565 . S
C713 C71 0.503 . S
C753 C314 0.579 . S
C745 C82 0.607 . S
C777 C49 0.524 . S
C785 C398 0.583 . S
C809 C16 0.571 . S
C817 C157 0.578 . S
C849 C230 0.642 . S
C841 C27 0.610 . S
C881 C325 0.581 . S
C873 C38 0.557 . S
C905 C5 0.554 . S
C913 C409 0.565 . S
C937 C59 1.883 . S
C945 C155 2.113 . S
C969 C70 1.911 . S
C977 C246 2.119 . S
C1009 C323 2.123 . S
C1001 C81 1.962 . S
C1041 C407 2.131 . S
C1033 C48 1.938 . S
C1065 C15 1.874 . S
C1073 C144 2.115 . S
C1105 C235 2.124 1_565 S
C1097 C26 1.944 . S
C1137 C312 2.131 . S
C1129 C37 1.892 . S
C1161 C4 1.938 . S
C1169 C396 2.130 . S
