# Generated by pormake.
# Topology ctn, (3,4)-cn, num edge types: 1
# Building blocks:
#     Node 0, Type 0, BuildingBlock: QEWDON_clean_linker_0, # of connection points: 3
#     Node 1, Type 0, BuildingBlock: QEWDON_clean_linker_0, # of connection points: 3
#     Node 2, Type 0, BuildingBlock: QEWDON_clean_linker_0, # of connection points: 3
#     Node 3, Type 0, BuildingBlock: QEWDON_clean_linker_0, # of connection points: 3
#     Node 4, Type 0, BuildingBlock: QEWDON_clean_linker_0, # of connection points: 3
#     Node 5, Type 0, BuildingBlock: QEWDON_clean_linker_0, # of connection points: 3
#     Node 6, Type 0, BuildingBlock: QEWDON_clean_linker_0, # of connection points: 3
#     Node 7, Type 0, BuildingBlock: QEWDON_clean_linker_0, # of connection points: 3
#     Node 8, Type 0, BuildingBlock: QEWDON_clean_linker_0, # of connection points: 3
#     Node 9, Type 0, BuildingBlock: QEWDON_clean_linker_0, # of connection points: 3
#     Node 10, Type 0, BuildingBlock: QEWDON_clean_linker_0, # of connection points: 3
#     Node 11, Type 0, BuildingBlock: QEWDON_clean_linker_0, # of connection points: 3
#     Node 12, Type 0, BuildingBlock: QEWDON_clean_linker_0, # of connection points: 3
#     Node 13, Type 0, BuildingBlock: QEWDON_clean_linker_0, # of connection points: 3
#     Node 14, Type 0, BuildingBlock: QEWDON_clean_linker_0, # of connection points: 3
#     Node 15, Type 0, BuildingBlock: QEWDON_clean_linker_0, # of connection points: 3
#     Node 16, Type 1, BuildingBlock: AZAVOO_clean_sbu_0, # of connection points: 4
#     Node 17, Type 1, BuildingBlock: AZAVOO_clean_sbu_0, # of connection points: 4
#     Node 18, Type 1, BuildingBlock: AZAVOO_clean_sbu_0, # of connection points: 4
#     Node 19, Type 1, BuildingBlock: AZAVOO_clean_sbu_0, # of connection points: 4
#     Node 20, Type 1, BuildingBlock: AZAVOO_clean_sbu_0, # of connection points: 4
#     Node 21, Type 1, BuildingBlock: AZAVOO_clean_sbu_0, # of connection points: 4
#     Node 22, Type 1, BuildingBlock: AZAVOO_clean_sbu_0, # of connection points: 4
#     Node 23, Type 1, BuildingBlock: AZAVOO_clean_sbu_0, # of connection points: 4
#     Node 24, Type 1, BuildingBlock: AZAVOO_clean_sbu_0, # of connection points: 4
#     Node 25, Type 1, BuildingBlock: AZAVOO_clean_sbu_0, # of connection points: 4
#     Node 26, Type 1, BuildingBlock: AZAVOO_clean_sbu_0, # of connection points: 4
#     Node 27, Type 1, BuildingBlock: AZAVOO_clean_sbu_0, # of connection points: 4
#     Edge 28, Type (0, 1), BuildingBlock: OJICUG_clean_linker_0, # of connection points: 2
#     Edge 29, Type (0, 1), BuildingBlock: OJICUG_clean_linker_0, # of connection points: 2
#     Edge 30, Type (0, 1), BuildingBlock: OJICUG_clean_linker_0, # of connection points: 2
#     Edge 31, Type (0, 1), BuildingBlock: OJICUG_clean_linker_0, # of connection points: 2
#     Edge 32, Type (0, 1), BuildingBlock: OJICUG_clean_linker_0, # of connection points: 2
#     Edge 33, Type (0, 1), BuildingBlock: OJICUG_clean_linker_0, # of connection points: 2
#     Edge 34, Type (0, 1), BuildingBlock: OJICUG_clean_linker_0, # of connection points: 2
#     Edge 35, Type (0, 1), BuildingBlock: OJICUG_clean_linker_0, # of connection points: 2
#     Edge 36, Type (0, 1), BuildingBlock: OJICUG_clean_linker_0, # of connection points: 2
#     Edge 37, Type (0, 1), BuildingBlock: OJICUG_clean_linker_0, # of connection points: 2
#     Edge 38, Type (0, 1), BuildingBlock: OJICUG_clean_linker_0, # of connection points: 2
#     Edge 39, Type (0, 1), BuildingBlock: OJICUG_clean_linker_0, # of connection points: 2
#     Edge 40, Type (0, 1), BuildingBlock: OJICUG_clean_linker_0, # of connection points: 2
#     Edge 41, Type (0, 1), BuildingBlock: OJICUG_clean_linker_0, # of connection points: 2
#     Edge 42, Type (0, 1), BuildingBlock: OJICUG_clean_linker_0, # of connection points: 2
#     Edge 43, Type (0, 1), BuildingBlock: OJICUG_clean_linker_0, # of connection points: 2
#     Edge 44, Type (0, 1), BuildingBlock: OJICUG_clean_linker_0, # of connection points: 2
#     Edge 45, Type (0, 1), BuildingBlock: OJICUG_clean_linker_0, # of connection points: 2
#     Edge 46, Type (0, 1), BuildingBlock: OJICUG_clean_linker_0, # of connection points: 2
#     Edge 47, Type (0, 1), BuildingBlock: OJICUG_clean_linker_0, # of connection points: 2
#     Edge 48, Type (0, 1), BuildingBlock: OJICUG_clean_linker_0, # of connection points: 2
#     Edge 49, Type (0, 1), BuildingBlock: OJICUG_clean_linker_0, # of connection points: 2
#     Edge 50, Type (0, 1), BuildingBlock: OJICUG_clean_linker_0, # of connection points: 2
#     Edge 51, Type (0, 1), BuildingBlock: OJICUG_clean_linker_0, # of connection points: 2
#     Edge 52, Type (0, 1), BuildingBlock: OJICUG_clean_linker_0, # of connection points: 2
#     Edge 53, Type (0, 1), BuildingBlock: OJICUG_clean_linker_0, # of connection points: 2
#     Edge 54, Type (0, 1), BuildingBlock: OJICUG_clean_linker_0, # of connection points: 2
#     Edge 55, Type (0, 1), BuildingBlock: OJICUG_clean_linker_0, # of connection points: 2
#     Edge 56, Type (0, 1), BuildingBlock: OJICUG_clean_linker_0, # of connection points: 2
#     Edge 57, Type (0, 1), BuildingBlock: OJICUG_clean_linker_0, # of connection points: 2
#     Edge 58, Type (0, 1), BuildingBlock: OJICUG_clean_linker_0, # of connection points: 2
#     Edge 59, Type (0, 1), BuildingBlock: OJICUG_clean_linker_0, # of connection points: 2
#     Edge 60, Type (0, 1), BuildingBlock: OJICUG_clean_linker_0, # of connection points: 2
#     Edge 61, Type (0, 1), BuildingBlock: OJICUG_clean_linker_0, # of connection points: 2
#     Edge 62, Type (0, 1), BuildingBlock: OJICUG_clean_linker_0, # of connection points: 2
#     Edge 63, Type (0, 1), BuildingBlock: OJICUG_clean_linker_0, # of connection points: 2
#     Edge 64, Type (0, 1), BuildingBlock: OJICUG_clean_linker_0, # of connection points: 2
#     Edge 65, Type (0, 1), BuildingBlock: OJICUG_clean_linker_0, # of connection points: 2
#     Edge 66, Type (0, 1), BuildingBlock: OJICUG_clean_linker_0, # of connection points: 2
#     Edge 67, Type (0, 1), BuildingBlock: OJICUG_clean_linker_0, # of connection points: 2
#     Edge 68, Type (0, 1), BuildingBlock: OJICUG_clean_linker_0, # of connection points: 2
#     Edge 69, Type (0, 1), BuildingBlock: OJICUG_clean_linker_0, # of connection points: 2
#     Edge 70, Type (0, 1), BuildingBlock: OJICUG_clean_linker_0, # of connection points: 2
#     Edge 71, Type (0, 1), BuildingBlock: OJICUG_clean_linker_0, # of connection points: 2
#     Edge 72, Type (0, 1), BuildingBlock: OJICUG_clean_linker_0, # of connection points: 2
#     Edge 73, Type (0, 1), BuildingBlock: OJICUG_clean_linker_0, # of connection points: 2
#     Edge 74, Type (0, 1), BuildingBlock: OJICUG_clean_linker_0, # of connection points: 2
#     Edge 75, Type (0, 1), BuildingBlock: OJICUG_clean_linker_0, # of connection points: 2
# Relax obj value: 0.122
# Max RMSD: 0.296
# Mean RMSD: 0.155
data_MOF--net-ctn--node1-AZAVOO_clean_sbu_0--node2-QEWDON_clean_linker_0--edge1-OJICUG_clean_linker_0
_symmetry_space_group_name_H-M    P1
_symmetry_Int_Tables_number       1
_symmetry_cell_setting            triclinic
loop_
_symmetry_equiv_pos_as_xyz
'x, y, z'
_cell_length_a     37.16502
_cell_length_b     40.521586
_cell_length_c     42.851048
_cell_angle_alpha  98.843725
_cell_angle_beta   94.797841
_cell_angle_gamma 98.447162
loop_
_atom_site_label
_atom_site_type_symbol
_atom_site_fract_x
_atom_site_fract_y
_atom_site_fract_z
_atom_type_partial_charge
H0 H 0.13657 0.99451 0.04228 0.0
C1 C 0.11627 0.99409 0.059 0.0
C2 C 0.10349 0.96396 0.07004 0.0
C3 C 0.10446 0.02445 0.07053 0.0
H4 H 0.06932 0.94287 0.10331 0.0
C5 C 0.07925 0.96539 0.09387 0.0
C6 C 0.06795 0.99612 0.10607 0.0
C7 C 0.08003 0.02527 0.09357 0.0
C8 C 0.12108 0.05636 0.06157 0.0
H9 H 0.07249 0.0493 0.10338 0.0
C10 C 0.10063 0.0735 0.04228 0.0
C11 C 0.11616 0.10503 0.03568 0.0
C12 C 0.15713 0.07064 0.07389 0.0
H13 H 0.17311 0.05771 0.08893 0.0
C14 C 0.17249 0.10208 0.06745 0.0
H15 H 0.07281 0.06247 0.0326 0.0
C16 C 0.15207 0.11932 0.04855 0.0
H17 H 0.16448 0.14359 0.04352 0.0
H18 H 0.20023 0.11312 0.07715 0.0
H19 H 0.4064 0.76487 0.28747 0.0
C20 C 0.38114 0.74705 0.28116 0.0
C21 C 0.37682 0.71714 0.29415 0.0
C22 C 0.35289 0.75442 0.26067 0.0
H23 H 0.34098 0.67061 0.29544 0.0
C24 C 0.34439 0.69388 0.28566 0.0
C25 C 0.31612 0.70053 0.26489 0.0
C26 C 0.3202 0.73098 0.25284 0.0
C27 C 0.35743 0.78678 0.24796 0.0
H28 H 0.29789 0.73631 0.23744 0.0
C29 C 0.3439 0.78777 0.21649 0.0
C30 C 0.34742 0.81848 0.20466 0.0
C31 C 0.37506 0.81702 0.26736 0.0
H32 H 0.38524 0.81734 0.29185 0.0
C33 C 0.37911 0.84743 0.25557 0.0
H34 H 0.33019 0.76473 0.20127 0.0
C35 C 0.36532 0.84826 0.22447 0.0
H36 H 0.36864 0.8722 0.21588 0.0
H37 H 0.3927 0.87053 0.27071 0.0
H38 H 0.06774 0.50715 0.04128 0.0
C39 C 0.04429 0.5201 0.04006 0.0
C40 C 0.03196 0.53543 0.06807 0.0
C41 C 0.02708 0.52158 0.01009 0.0
H42 H 0.99227 0.56536 0.0865 0.0
C43 C 1.00224 0.55331 0.06533 0.0
C44 C 0.98537 0.55576 0.03517 0.0
C45 C 0.99793 0.53956 0.00781 0.0
C46 C 0.03792 0.50235 0.98116 0.0
H47 H 0.98413 0.53989 0.98458 0.0
C48 C 0.04076 0.46808 0.98007 0.0
C49 C 0.04852 0.44851 0.95221 0.0
C50 C 0.04365 0.51736 0.95418 0.0
H51 H 0.04157 0.54379 0.9545 0.0
C52 C 0.05224 0.49828 0.9266 0.0
H53 H 0.03626 0.4565 1.0009 0.0
C54 C 0.05456 0.46402 0.9255 0.0
H55 H 0.06032 0.44955 0.90358 0.0
H56 H 0.05665 0.50998 0.90586 0.0
H57 H 0.81845 0.84369 0.26421 0.0
C58 C 0.80856 0.83148 0.24005 0.0
C59 C 0.82029 0.84646 0.21451 0.0
C60 C 0.78719 0.79926 0.23469 0.0
H61 H 0.82098 0.83977 0.1638 0.0
C62 C 0.80988 0.8291 0.18334 0.0
C63 C 0.78853 0.79667 0.1776 0.0
C64 C 0.77616 0.78249 0.20351 0.0
C65 C 0.78271 0.78041 0.26128 0.0
H66 H 0.76063 0.75711 0.19962 0.0
C67 C 0.74785 0.76695 0.26815 0.0
C68 C 0.74429 0.74752 0.29255 0.0
C69 C 0.81398 0.77432 0.27886 0.0
H70 H 0.84111 0.78422 0.27363 0.0
C71 C 0.81051 0.75474 0.30281 0.0
H72 H 0.72367 0.77165 0.25465 0.0
C73 C 0.7759 0.74132 0.30962 0.0
H74 H 0.77381 0.72676 0.32878 0.0
H75 H 0.83472 0.75003 0.31618 0.0
H76 H 0.1666 0.01976 0.52247 0.0
C77 C 0.14461 0.0156 0.50334 0.0
C78 C 0.14279 0.04052 0.48421 0.0
C79 C 0.11905 0.98532 0.49778 0.0
H80 H 0.11254 0.05492 0.44493 0.0
C81 C 0.11346 0.03619 0.46041 0.0
C82 C 0.08685 0.00683 0.45468 0.0
C83 C 0.08996 0.98121 0.47331 0.0
C84 C 0.1253 0.95771 0.51631 0.0
H85 H 0.07051 0.95788 0.4681 0.0
C86 C 0.09638 0.93635 0.52645 0.0
C87 C 0.1042 0.91244 0.5459 0.0
C88 C 0.16159 0.95315 0.52458 0.0
H89 H 0.18449 0.96768 0.51614 0.0
C90 C 0.16915 0.92974 0.54377 0.0
H91 H 0.06818 0.93866 0.51989 0.0
C92 C 0.14078 0.9098 0.55463 0.0
H93 H 0.14741 0.89133 0.56907 0.0
H94 H 0.19721 0.92685 0.55004 0.0
H95 H 0.2856 0.66903 0.75032 0.0
C96 C 0.28102 0.67783 0.77464 0.0
C97 C 0.29823 0.66499 0.79969 0.0
C98 C 0.25964 0.70348 0.78068 0.0
H99 H 0.30626 0.66844 0.85054 0.0
C100 C 0.29267 0.67773 0.8311 0.0
C101 C 0.27177 0.70397 0.8377 0.0
C102 C 0.25497 0.71628 0.81214 0.0
C103 C 0.2498 0.72213 0.75497 0.0
H104 H 0.24058 0.73764 0.81666 0.0
C105 C 0.2145 0.71616 0.73814 0.0
C106 C 0.20721 0.73371 0.71284 0.0
C107 C 0.27713 0.74616 0.74695 0.0
H108 H 0.30433 0.7511 0.7597 0.0
C109 C 0.26975 0.76394 0.72246 0.0
H110 H 0.19336 0.69741 0.74401 0.0
C111 C 0.23516 0.75769 0.70542 0.0
H112 H 0.23019 0.77165 0.68628 0.0
H113 H 0.29101 0.78245 0.71647 0.0
H114 H 0.95063 0.57135 0.46308 0.0
C115 C 0.93795 0.54881 0.47114 0.0
C116 C 0.93557 0.54865 0.50383 0.0
C117 C 0.92187 0.52067 0.44833 0.0
H118 H 0.91641 0.51792 0.5382 0.0
C119 C 0.91794 0.51906 0.51324 0.0
C120 C 0.90108 0.4911 0.49057 0.0
C121 C 0.90301 0.49218 0.45821 0.0
C122 C 0.92292 0.5215 0.41396 0.0
H123 H 0.89018 0.47054 0.44064 0.0
C124 C 0.95644 0.52774 0.4011 0.0
C125 C 0.95718 0.52692 0.3681 0.0
C126 C 0.89008 0.51503 0.39371 0.0
H127 H 0.864 0.51026 0.40312 0.0
C128 C 0.89058 0.51494 0.36121 0.0
H129 H 0.98182 0.53198 0.41665 0.0
C130 C 0.92379 0.5208 0.34844 0.0
H131 H 0.92328 0.52075 0.32313 0.0
H132 H 0.86511 0.51022 0.34581 0.0
H133 H 0.85661 0.83341 0.76945 0.0
C134 C 0.85052 0.81624 0.78606 0.0
C135 C 0.86352 0.78501 0.78282 0.0
C136 C 0.82982 0.82549 0.81092 0.0
H137 H 0.86517 0.73911 0.80283 0.0
C138 C 0.85519 0.76309 0.80487 0.0
C139 C 0.83397 0.77212 0.82958 0.0
C140 C 0.82173 0.80344 0.83235 0.0
C141 C 0.81858 0.85915 0.81681 0.0
H142 H 0.80641 0.81126 0.8519 0.0
C143 C 0.78973 0.86739 0.79754 0.0
C144 C 0.77591 0.89764 0.80659 0.0
C145 C 0.83418 0.88169 0.84444 0.0
H146 H 0.85615 0.87555 0.85968 0.0
C147 C 0.82111 0.91192 0.85304 0.0
H148 H 0.77728 0.84985 0.7764 0.0
C149 C 0.79204 0.91978 0.83442 0.0
H150 H 0.78247 0.94353 0.84155 0.0
H151 H 0.8333 0.92917 0.87439 0.0
H152 H 0.33921 0.33431 0.26426 0.0
C153 C 0.33637 0.31507 0.27928 0.0
C154 C 0.35511 0.28714 0.27396 0.0
C155 C 0.31558 0.31921 0.30506 0.0
H156 H 0.36632 0.24146 0.29087 0.0
C157 C 0.35225 0.26311 0.29469 0.0
C158 C 0.33034 0.26652 0.31986 0.0
C159 C 0.31239 0.29467 0.32474 0.0
C160 C 0.29943 0.35025 0.31387 0.0
H161 H 0.29654 0.29818 0.3448 0.0
C162 C 0.27385 0.36065 0.2928 0.0
C163 C 0.2561 0.38819 0.30334 0.0
C164 C 0.30802 0.36831 0.345 0.0
H165 H 0.32777 0.3609 0.36154 0.0
C166 C 0.29105 0.3958 0.35526 0.0
H167 H 0.26697 0.34678 0.2688 0.0
C168 C 0.26516 0.4056 0.33471 0.0
H169 H 0.25276 0.42739 0.34324 0.0
H170 H 0.29792 0.40954 0.37927 0.0
H171 H 0.57991 0.99844 0.54147 0.0
C172 C 0.55673 0.01156 0.53895 0.0
C173 C 0.54339 0.02799 0.56599 0.0
C174 C 0.54106 0.01242 0.50828 0.0
H175 H 0.50314 0.05866 0.58184 0.0
C176 C 0.51394 0.04586 0.56147 0.0
C177 C 0.49848 0.04744 0.53058 0.0
C178 C 0.51223 0.03045 0.50428 0.0
C179 C 0.55334 0.99286 0.48026 0.0
H180 H 0.49964 0.03028 0.48048 0.0
C181 C 0.55425 0.95823 0.47911 0.0
C182 C 0.5626 0.93839 0.45158 0.0
C183 C 0.56192 0.00803 0.45391 0.0
H184 H 0.56131 0.03474 0.45431 0.0
C185 C 0.5713 0.98874 0.42682 0.0
H186 H 0.54758 0.94661 0.4995 0.0
C187 C 0.57146 0.9541 0.42551 0.0
H188 H 0.57766 0.93952 0.40382 0.0
H189 H 0.57785 1.00055 0.40655 0.0
H190 H 0.2953 0.31381 0.75722 0.0
C191 C 0.29322 0.30546 0.73175 0.0
C192 C 0.3104 0.3266 0.71235 0.0
C193 C 0.27616 0.2725 0.7187 0.0
H194 H 0.3256 0.32967 0.66519 0.0
C195 C 0.30994 0.31448 0.67969 0.0
C196 C 0.2935 0.2812 0.66673 0.0
C197 C 0.27537 0.26099 0.68619 0.0
C198 C 0.26502 0.24772 0.73921 0.0
H199 H 0.26305 0.23507 0.67651 0.0
C200 C 0.23421 0.24961 0.75574 0.0
C201 C 0.22222 0.22396 0.77296 0.0
C202 C 0.28438 0.22061 0.74058 0.0
H203 H 0.30822 0.21881 0.72786 0.0
C204 C 0.27301 0.19552 0.75813 0.0
H205 H 0.21899 0.27028 0.75427 0.0
C206 C 0.24201 0.19704 0.77414 0.0
H207 H 0.2337 0.17732 0.78773 0.0
H208 H 0.2881 0.17475 0.75917 0.0
H209 H 0.90981 0.26889 0.79019 0.0
C210 C 0.88492 0.25059 0.78383 0.0
C211 C 0.8812 0.22089 0.79719 0.0
C212 C 0.85653 0.25717 0.76298 0.0
H213 H 0.84626 0.17391 0.79872 0.0
C214 C 0.84922 0.19701 0.78865 0.0
C215 C 0.82083 0.20286 0.7675 0.0
C216 C 0.82433 0.23313 0.75512 0.0
C217 C 0.86036 0.2894 0.75002 0.0
H218 H 0.80191 0.23785 0.73946 0.0
C219 C 0.84667 0.28998 0.71848 0.0
C220 C 0.84936 0.32057 0.70649 0.0
C221 C 0.87735 0.31996 0.76928 0.0
H222 H 0.8876 0.32062 0.79381 0.0
C223 C 0.88064 0.35026 0.7573 0.0
H224 H 0.83344 0.2667 0.70336 0.0
C225 C 0.86665 0.35067 0.72615 0.0
H226 H 0.86934 0.37453 0.71744 0.0
H227 H 0.89374 0.3736 0.77234 0.0
H228 H 0.62614 0.48726 0.54362 0.0
C229 C 0.60507 0.48529 0.55955 0.0
C230 C 0.5933 0.45433 0.56958 0.0
C231 C 0.59142 0.51457 0.57136 0.0
H232 H 0.55855 0.43049 0.60095 0.0
C233 C 0.56786 0.45374 0.59244 0.0
C234 C 0.55459 0.48338 0.60486 0.0
C235 C 0.56606 0.51347 0.59359 0.0
C236 C 0.60728 0.54749 0.56397 0.0
H237 H 0.55713 0.53674 0.60368 0.0
C238 C 0.58879 0.5626 0.54147 0.0
C239 C 0.60301 0.59522 0.53656 0.0
C240 C 0.64022 0.5648 0.58109 0.0
H241 H 0.65461 0.55342 0.59861 0.0
C242 C 0.65439 0.59717 0.57615 0.0
H243 H 0.56331 0.54928 0.52824 0.0
C244 C 0.63581 0.61245 0.55414 0.0
H245 H 0.64726 0.63757 0.5505 0.0
H246 H 0.67973 0.61052 0.58951 0.0
H247 H 0.6539 0.52106 0.02329 0.0
C248 C 0.63212 0.51592 1.0039 0.0
C249 C 0.62902 0.54049 0.9846 0.0
C250 C 0.60836 0.48462 0.99805 0.0
H251 H 0.59814 0.55326 0.9448 0.0
C252 C 0.59992 0.53477 0.96042 0.0
C253 C 0.57483 0.50435 0.95451 0.0
C254 C 0.57938 0.47913 0.97334 0.0
C255 C 0.61669 0.45747 0.01639 0.0
H256 H 0.56125 0.45502 0.96805 0.0
C257 C 0.5891 0.43485 0.02668 0.0
C258 C 0.59882 0.41148 0.04602 0.0
C259 C 0.65363 0.45471 0.02435 0.0
H260 H 0.6756 0.47035 0.01578 0.0
C261 C 0.66304 0.43178 0.04341 0.0
H262 H 0.56049 0.4358 0.02035 0.0
C263 C 0.63592 0.41058 0.05445 0.0
H264 H 0.64396 0.39252 0.06881 0.0
H265 H 0.69156 0.43027 0.04945 0.0
H266 H 0.79175 0.173 0.25193 0.0
C267 C 0.78673 0.18135 0.27622 0.0
C268 C 0.80487 0.16929 0.30131 0.0
C269 C 0.76381 0.20574 0.28219 0.0
H270 H 0.81298 0.17277 0.35214 0.0
C271 C 0.7987 0.18146 0.33267 0.0
C272 C 0.77632 0.2065 0.33923 0.0
C273 C 0.75857 0.21805 0.31363 0.0
C274 C 0.75284 0.22395 0.25645 0.0
H275 H 0.74297 0.23855 0.31813 0.0
C276 C 0.71733 0.21707 0.2399 0.0
C277 C 0.70907 0.23421 0.21452 0.0
C278 C 0.77935 0.24849 0.24806 0.0
H279 H 0.80668 0.25413 0.26057 0.0
C280 C 0.77097 0.26586 0.2235 0.0
H281 H 0.69683 0.19793 0.24604 0.0
C282 C 0.73621 0.25871 0.20674 0.0
H283 H 0.73047 0.27233 0.1875 0.0
H284 H 0.79162 0.28475 0.21723 0.0
H285 H 0.4551 0.06983 0.96462 0.0
C286 C 0.44209 0.04711 0.97217 0.0
C287 C 0.43875 0.04649 1.00468 0.0
C288 C 0.42646 0.01922 0.9489 0.0
H289 H 0.41839 0.01531 0.03827 0.0
C290 C 0.4207 0.01674 0.01346 0.0
C291 C 0.40437 0.98901 0.99031 0.0
C292 C 0.40719 0.99052 0.95814 0.0
C293 C 0.42806 0.02066 0.91468 0.0
H294 H 0.39463 0.96911 0.94021 0.0
C295 C 0.46181 0.0267 0.90212 0.0
C296 C 0.46293 0.02646 0.86921 0.0
C297 C 0.39541 0.015 0.89425 0.0
H298 H 0.36917 0.01041 0.90343 0.0
C299 C 0.3963 0.01552 0.86188 0.0
H300 H 0.48702 0.03035 0.91779 0.0
C301 C 0.42971 0.02117 0.8494 0.0
H302 H 0.42948 0.02162 0.82418 0.0
H303 H 0.37097 0.01144 0.84636 0.0
Mg304 Mg 0.24323 0.81977 0.0258 0.0
O305 O 0.28923 0.8622 0.01907 0.0
O306 O 0.34285 0.84459 0.02825 0.0
Mg307 Mg 0.33127 0.78997 0.03703 0.0
C308 C 0.32422 0.8671 0.02145 0.0
C309 C 0.17529 0.84855 0.03156 0.0
O310 O 0.17596 0.82549 0.04998 0.0
O311 O 0.24828 0.79138 0.97561 0.0
O312 O 0.30173 0.77401 0.98629 0.0
O313 O 0.25013 0.83853 0.07772 0.0
O314 O 0.27996 0.79978 0.05513 0.0
C315 C 0.27402 0.77531 0.96694 0.0
C316 C 0.27446 0.81919 0.08044 0.0
O317 O 0.19915 0.85064 0.01191 0.0
Mg318 Mg 0.14887 0.54422 0.26042 0.0
O319 O 0.11697 0.53938 0.21096 0.0
O320 O 0.15712 0.53077 0.17564 0.0
Mg321 Mg 0.21485 0.53775 0.20161 0.0
C322 C 0.12477 0.53346 0.18239 0.0
C323 C 0.09262 0.54897 0.31022 0.0
O324 O 0.12056 0.57113 0.32499 0.0
O325 O 0.15675 0.48832 0.25317 0.0
O326 O 0.20218 0.48897 0.22208 0.0
O327 O 0.16202 0.60099 0.26442 0.0
O328 O 0.19647 0.56519 0.24413 0.0
C329 C 0.18105 0.47395 0.23937 0.0
C330 C 0.1915 0.59596 0.25154 0.0
O331 O 0.09538 0.53325 0.28265 0.0
Mg332 Mg 0.83074 0.6921 0.00817 0.0
O333 O 0.77546 0.65555 0.99945 0.0
O334 O 0.73147 0.68764 0.99796 0.0
Mg335 Mg 0.75757 0.74315 1.00434 0.0
C336 C 0.74162 0.65875 0.99675 0.0
C337 C 0.86423 0.62912 0.01957 0.0
O338 O 0.84125 0.63075 0.04122 0.0
O339 O 0.82668 0.70053 0.95637 0.0
O340 O 0.78287 0.73293 0.95703 0.0
O341 O 0.82826 0.69662 0.05976 0.0
O342 O 0.80555 0.73098 0.03096 0.0
C343 C 0.80624 0.71791 0.94257 0.0
C344 C 0.81018 0.7213 0.05811 0.0
O345 O 0.86385 0.64898 0.99924 0.0
Mg346 Mg 0.97484 0.03785 0.27533 0.0
O347 O 0.93646 0.98674 0.25991 0.0
O348 O 0.97229 0.94793 0.24718 0.0
Mg349 Mg 0.03213 0.97171 0.25767 0.0
C350 C 0.94076 0.95644 0.24943 0.0
C351 C 0.92151 0.0895 0.27811 0.0
O352 O 0.94434 0.09834 0.25792 0.0
O353 O 0.99061 0.02379 0.32469 0.0
O354 O 0.02549 0.98459 0.3107 0.0
O355 O 0.97503 0.04366 0.2239 0.0
O356 O 1.01521 0.01917 0.24867 0.0
C357 C 1.01088 1.00241 0.33183 0.0
C358 C 1.00213 0.027 0.22252 0.0
O359 O 0.9263 0.06421 0.2915 0.0
Mg360 Mg 0.34941 0.18561 0.49708 0.0
O361 O 0.29306 0.15056 0.49294 0.0
O362 O 0.25051 0.1843 0.49389 0.0
Mg363 Mg 0.27794 0.23902 0.49735 0.0
C364 C 0.25958 0.15497 0.49249 0.0
C365 C 0.37916 0.12132 0.50839 0.0
O366 O 0.35569 0.12413 0.52954 0.0
O367 O 0.34082 0.19203 0.4449 0.0
O368 O 0.29816 0.22571 0.4482 0.0
O369 O 0.35229 0.19249 0.54904 0.0
O370 O 0.32745 0.22626 0.52087 0.0
C371 C 0.31946 0.20942 0.43221 0.0
C372 C 0.33442 0.21741 0.5481 0.0
O373 O 0.38018 0.14086 0.48773 0.0
Mg374 Mg 0.45802 0.52338 0.77214 0.0
O375 O 0.41856 0.47241 0.76027 0.0
O376 O 0.45404 0.43222 0.75313 0.0
Mg377 Mg 0.51401 0.45576 0.75721 0.0
C378 C 0.4227 0.44136 0.75446 0.0
C379 C 0.40829 0.57794 0.77527 0.0
O380 O 0.43148 0.58549 0.75493 0.0
O381 O 0.47591 0.51264 0.82253 0.0
O382 O 0.51127 0.47341 0.81014 0.0
O383 O 0.45656 0.5262 0.71997 0.0
O384 O 0.49665 0.50213 0.74534 0.0
C385 C 0.49725 0.49252 0.83067 0.0
C386 C 0.4834 0.50918 0.71889 0.0
O387 O 0.41135 0.55224 0.78856 0.0
Mg388 Mg 0.74396 0.31935 0.52751 0.0
O389 O 0.78871 0.36298 0.52082 0.0
O390 O 0.84312 0.34681 0.53009 0.0
Mg391 Mg 0.83337 0.29214 0.53886 0.0
C392 C 0.82371 0.36876 0.52326 0.0
C393 C 0.67416 0.34496 0.53265 0.0
O394 O 0.676 0.32197 0.55102 0.0
O395 O 0.74981 0.29148 0.47734 0.0
O396 O 0.80413 0.27571 0.48804 0.0
O397 O 0.75037 0.33804 0.57945 0.0
O398 O 0.78163 0.30048 0.55688 0.0
C399 C 0.7762 0.27634 0.46866 0.0
C400 C 0.7755 0.31951 0.58219 0.0
O401 O 0.69829 0.34846 0.5134 0.0
Mg402 Mg 0.65518 0.04481 0.76212 0.0
O403 O 0.62406 0.03789 0.7119 0.0
O404 O 0.66542 0.02963 0.67764 0.0
Mg405 Mg 0.72275 0.03853 0.70458 0.0
C406 C 0.63267 0.03155 0.68361 0.0
C407 C 0.59879 0.04842 0.81183 0.0
O408 O 0.62695 0.07 0.82703 0.0
O409 O 0.66494 0.98944 0.75682 0.0
O410 O 0.71077 0.99041 0.72612 0.0
O411 O 0.66719 0.10157 0.76492 0.0
O412 O 0.70282 0.06619 0.74614 0.0
C413 C 0.68985 0.97546 0.74359 0.0
C414 C 0.69721 0.09683 0.75285 0.0
O415 O 0.6014 0.0334 0.78394 0.0
Mg416 Mg 0.08338 0.23801 0.92093 0.0
O417 O 0.02723 0.22321 0.89213 0.0
O418 O 0.98454 0.22131 0.92572 0.0
Mg419 Mg 1.01437 0.23507 0.97618 0.0
C420 C 0.99379 0.21859 0.89752 0.0
C421 C 0.10672 0.22298 0.85367 0.0
O422 O 0.08566 0.1943 0.85497 0.0
O423 O 0.07293 0.29165 0.93078 0.0
O424 O 0.03163 0.28931 0.96578 0.0
O425 O 0.08746 0.1847 0.92384 0.0
O426 O 0.06469 0.21867 0.9598 0.0
C427 C 0.0522 0.30581 0.94898 0.0
C428 C 0.07304 0.18925 0.95034 0.0
O429 O 0.10965 0.24723 0.87678 0.0
Mg430 Mg 0.57945 0.72303 0.41434 0.0
O431 O 0.52289 0.71141 0.38617 0.0
O432 O 0.48114 0.71289 0.4207 0.0
Mg433 Mg 0.51151 0.72443 0.47095 0.0
C434 C 0.48969 0.70925 0.39226 0.0
C435 C 0.61773 0.70782 0.35319 0.0
O436 O 0.61065 0.67713 0.35991 0.0
O437 O 0.57284 0.77796 0.42515 0.0
O438 O 0.53275 0.77813 0.4613 0.0
O439 O 0.58012 0.66885 0.41783 0.0
O440 O 0.55963 0.70499 0.45329 0.0
C441 C 0.55397 0.79354 0.44424 0.0
C442 C 0.56626 0.67485 0.44446 0.0
O443 O 0.60619 0.73185 0.37006 0.0
Mg444 Mg 0.98657 0.738 0.61892 0.0
O445 O 0.04348 0.73129 0.64185 0.0
O446 O 0.07462 0.71713 0.6007 0.0
Mg447 Mg 0.03924 0.7119 0.55312 0.0
C448 C 0.07266 0.72372 0.63062 0.0
C449 C 0.93915 0.74642 0.67297 0.0
O450 O 0.92241 0.72033 0.65216 0.0
O451 O 1.012 0.78896 0.60476 0.0
O452 O 0.03735 0.76891 0.56158 0.0
O453 O 0.96437 0.6827 0.61659 0.0
O454 O 0.99118 0.70297 0.57825 0.0
C455 C 0.02825 0.79343 0.58011 0.0
C456 C 0.97573 0.67712 0.5889 0.0
O457 O 0.96931 0.76232 0.66682 0.0
Mg458 Mg 0.48776 0.23517 0.12025 0.0
O459 O 0.54467 0.22877 0.14347 0.0
O460 O 0.57613 0.21503 0.10244 0.0
Mg461 Mg 0.54064 0.20917 0.0548 0.0
C462 C 0.57405 0.22156 0.13234 0.0
C463 C 0.43763 0.26536 0.1654 0.0
O464 O 0.41928 0.26021 0.13704 0.0
O465 O 0.51282 0.28595 0.10597 0.0
O466 O 0.53796 0.26603 0.06264 0.0
O467 O 0.465 0.18012 0.11818 0.0
O468 O 0.49269 0.20015 0.08006 0.0
C469 C 0.52868 0.29046 0.08116 0.0
C470 C 0.4769 0.1744 0.09067 0.0
O471 O 0.4705 0.2597 0.16758 0.0
C472 C 0.30313 0.7273 0.89258 0.0
C473 C 0.27127 0.72136 0.87107 0.0
H474 H 0.32898 0.74883 0.939 0.0
C475 C 0.23997 0.73381 0.88131 0.0
H476 H 0.32813 0.7191 0.88548 0.0
C477 C 0.24062 0.75163 0.91226 0.0
C478 C 0.27255 0.75727 0.93371 0.0
H479 H 0.21487 0.72965 0.86545 0.0
H480 H 0.21608 0.76071 0.91943 0.0
C481 C 0.30372 0.7448 0.92337 0.0
C482 C 0.99657 0.51251 0.3246 0.0
C483 C 0.99245 0.53194 0.35389 0.0
H484 H 0.03115 0.50258 0.28789 0.0
C485 C 0.02198 0.5565 0.36903 0.0
H486 H 0.97468 0.49293 0.31253 0.0
C487 C 0.05455 0.56184 0.35496 0.0
C488 C 0.05837 0.54277 0.32542 0.0
H489 H 0.01967 0.57212 0.39143 0.0
H490 H 0.0766 0.58121 0.36713 0.0
C491 C 0.02906 0.51791 0.31051 0.0
C492 C 0.78998 0.74652 0.86365 0.0
C493 C 0.82533 0.7504 0.85388 0.0
H494 H 0.75625 0.73298 0.89921 0.0
C495 C 0.85303 0.73797 0.87077 0.0
H496 H 0.7679 0.75529 0.85078 0.0
C497 C 0.84622 0.72475 0.89855 0.0
C498 C 0.81168 0.72404 0.9099 0.0
H499 H 0.88054 0.74069 0.86385 0.0
H500 H 0.86864 0.71744 0.91228 0.0
C501 C 0.7833 0.73373 0.8914 0.0
C502 C 0.05526 0.97302 0.40318 0.0
C503 C 0.05912 1.0021 0.42644 0.0
H504 H 0.03656 0.95021 0.35504 0.0
C505 C 0.04122 0.02903 0.41991 0.0
H506 H 0.06883 0.95194 0.40735 0.0
C507 C 0.02262 0.0281 0.38984 0.0
C508 C 0.02186 1.00034 0.36559 0.0
H509 H 0.04351 0.05172 0.4375 0.0
H510 H 1.01125 0.05014 0.38497 0.0
C511 C 0.03698 0.9722 0.37307 0.0
C512 C 0.29881 0.28036 0.60821 0.0
C513 C 0.30167 0.26491 0.63533 0.0
H514 H 0.30645 0.27706 0.55869 0.0
C515 C 0.31435 0.23374 0.63304 0.0
H516 H 0.28927 0.30449 0.60944 0.0
C517 C 0.32407 0.2183 0.60449 0.0
C518 C 0.32154 0.23361 0.57736 0.0
H519 H 0.31773 0.22154 0.65366 0.0
H520 H 0.33408 0.19444 0.6039 0.0
C521 C 0.30846 0.26465 0.57927 0.0
C522 C 0.54417 0.47285 0.65982 0.0
C523 C 0.53231 0.48464 0.63218 0.0
H524 H 0.53858 0.47178 0.70892 0.0
C525 C 0.50213 0.50192 0.63256 0.0
H526 H 0.56768 0.45992 0.6604 0.0
C527 C 0.48526 0.50861 0.66036 0.0
C528 C 0.49841 0.49847 0.68853 0.0
H529 H 0.49237 0.51128 0.61159 0.0
H530 H 0.4628 0.52286 0.66004 0.0
C531 C 0.52756 0.47986 0.68772 0.0
C532 C 0.83672 0.29679 0.64817 0.0
C533 C 0.83252 0.32133 0.67404 0.0
H534 H 0.82229 0.27716 0.5986 0.0
C535 C 0.81087 0.34606 0.66903 0.0
H536 H 0.85351 0.2776 0.65132 0.0
C537 C 0.79304 0.34578 0.63901 0.0
C538 C 0.79664 0.32091 0.61326 0.0
H539 H 0.80682 0.36507 0.68856 0.0
H540 H 0.77597 0.36483 0.63614 0.0
C541 C 0.81907 0.29668 0.61799 0.0
C542 C 0.5655 0.05519 0.62303 0.0
C543 C 0.56139 0.02705 0.59842 0.0
H544 H 0.5908 0.07826 0.66981 0.0
C545 C 0.57732 0.99876 0.60429 0.0
H546 H 0.55403 0.07758 0.61955 0.0
C547 C 0.59929 0.99973 0.63263 0.0
C548 C 0.60467 0.02841 0.65638 0.0
H549 H 0.57381 0.97606 0.5866 0.0
H550 H 0.61281 0.97833 0.63572 0.0
C551 C 0.58666 0.0557 0.65185 0.0
C552 C 0.90055 0.20724 0.8505 0.0
C553 C 0.90994 0.21585 0.82135 0.0
H554 H 0.91967 0.20118 0.89748 0.0
C555 C 0.94702 0.22188 0.81637 0.0
H556 H 0.87215 0.2026 0.855 0.0
C557 C 0.97425 0.22078 0.84056 0.0
C558 C 0.96497 0.21409 0.87042 0.0
H559 H 0.95496 0.2282 0.79399 0.0
H560 H 1.0026 0.22669 0.83625 0.0
C561 C 0.92778 0.20653 0.87485 0.0
C562 C 0.53282 0.88255 0.4632 0.0
C563 C 0.56069 0.90127 0.44982 0.0
H564 H 0.50892 0.83406 0.47208 0.0
C565 C 0.58639 0.8842 0.43462 0.0
H566 H 0.51208 0.89473 0.4745 0.0
C567 C 0.58422 0.84924 0.43281 0.0
C568 C 0.55646 0.8306 0.44637 0.0
H569 H 0.60845 0.8979 0.4244 0.0
H570 H 0.60451 0.83688 0.42097 0.0
C571 C 0.53085 0.84767 0.46166 0.0
C572 C 0.16368 0.19572 0.78862 0.0
C573 C 0.18941 0.22515 0.79008 0.0
H574 H 0.11674 0.17212 0.80717 0.0
C575 C 0.18487 0.25505 0.80964 0.0
H576 H 0.16619 0.17251 0.77324 0.0
C577 C 0.15651 0.25489 0.82904 0.0
C578 C 0.13215 0.22485 0.82911 0.0
H579 H 0.20432 0.27809 0.81117 0.0
H580 H 0.1547 0.27792 0.84501 0.0
C581 C 0.13522 0.19559 0.80788 0.0
C582 C 0.57329 0.64267 0.52199 0.0
C583 C 0.58471 0.61151 0.51266 0.0
H584 H 0.5569 0.68677 0.50733 0.0
C585 C 0.5834 0.59854 0.48023 0.0
H586 H 0.57401 0.65298 0.54696 0.0
C587 C 0.57412 0.61803 0.45745 0.0
C588 C 0.56564 0.65055 0.46688 0.0
H589 H 0.59219 0.57452 0.47263 0.0
H590 H 0.57596 0.60859 0.43267 0.0
C591 C 0.56339 0.66188 0.49926 0.0
C592 C 0.91287 0.79812 0.74722 0.0
C593 C 0.88487 0.77498 0.75594 0.0
H594 H 0.9526 0.80726 0.71446 0.0
C595 C 0.87636 0.74227 0.73802 0.0
H596 H 0.92029 0.82346 0.76074 0.0
C597 C 0.89459 0.73317 0.71158 0.0
C598 C 0.92214 0.75636 0.70245 0.0
H599 H 0.8548 0.72393 0.74387 0.0
H600 H 0.88673 0.70786 0.69806 0.0
C601 C 0.93154 0.78882 0.72087 0.0
C602 C 0.07458 0.88427 0.58758 0.0
C603 C 0.07542 0.88757 0.55536 0.0
H604 H 0.05798 0.85192 0.62093 0.0
C605 C 0.05513 0.86203 0.53206 0.0
H606 H 0.09043 0.90349 0.60597 0.0
C607 C 0.03737 0.83231 0.54056 0.0
C608 C 0.03895 0.82781 0.57257 0.0
H609 H 0.05577 0.86367 0.50711 0.0
H610 H 0.0242 0.81194 0.52188 0.0
C611 C 0.05611 0.85477 0.59615 0.0
C612 C 0.17078 0.71901 0.65968 0.0
C613 C 0.17143 0.72681 0.6928 0.0
H614 H 0.13957 0.71171 0.61441 0.0
C615 C 0.13868 0.73147 0.7058 0.0
H616 H 0.19561 0.71518 0.64903 0.0
C617 C 0.10622 0.72987 0.68582 0.0
C618 C 0.10594 0.72328 0.6525 0.0
H619 H 0.13855 0.73776 0.73129 0.0
H620 H 0.08161 0.73454 0.69644 0.0
C621 C 0.13854 0.71713 0.63983 0.0
C622 C 0.97905 0.6036 0.52319 0.0
C623 C 0.94884 0.58007 0.5277 0.0
H624 H 1.01129 0.65256 0.53882 0.0
C625 C 0.92985 0.58792 0.55429 0.0
H626 H 0.99501 0.59829 0.50355 0.0
C627 C 0.93997 0.61871 0.57505 0.0
C628 C 0.96883 0.64283 0.56945 0.0
H629 H 0.90604 0.571 0.55848 0.0
H630 H 0.92395 0.62428 0.59462 0.0
C631 C 0.98865 0.63473 0.5436 0.0
C632 C 0.88202 0.87545 0.20729 0.0
C633 C 0.84906 0.87672 0.22083 0.0
H634 H 0.93676 0.89958 0.20591 0.0
C635 C 0.84559 0.90538 0.24274 0.0
H636 H 0.88563 0.85343 0.19073 0.0
C637 C 0.87497 0.93208 0.25139 0.0
C638 C 0.90844 0.93004 0.23877 0.0
H639 H 0.82043 0.90679 0.25359 0.0
H640 H 0.87194 0.95366 0.26874 0.0
C641 C 0.91143 0.90171 0.21629 0.0
C642 C 0.85815 0.15437 0.27267 0.0
C643 C 0.83362 0.14747 0.29499 0.0
H644 H 0.90455 0.1419 0.25008 0.0
C645 C 0.83813 0.12087 0.31193 0.0
H646 H 0.85626 0.17507 0.25968 0.0
C647 C 0.86638 0.10171 0.30654 0.0
C648 C 0.89092 0.1089 0.28425 0.0
H649 H 0.81972 0.11478 0.32927 0.0
H650 H 0.86911 0.08145 0.31992 0.0
C651 C 0.88625 0.13543 0.26739 0.0
C652 C 0.39988 0.94071 0.02065 0.0
C653 C 0.38337 0.95872 0.99955 0.0
H654 H 0.39416 0.89731 0.04387 0.0
C655 C 0.34683 0.94726 0.98671 0.0
H656 H 0.42804 0.94908 0.03079 0.0
C657 C 0.32719 0.91808 0.99463 0.0
C658 C 0.34401 0.89939 0.01497 0.0
H659 H 0.33349 0.96091 0.97052 0.0
H660 H 0.29918 0.90964 0.9841 0.0
C661 C 0.38052 0.9111 0.02801 0.0
C662 C 0.23899 0.40744 0.25207 0.0
C663 C 0.22976 0.40078 0.28182 0.0
H664 H 0.22977 0.43526 0.21446 0.0
C665 C 0.19819 0.41156 0.2931 0.0
H666 H 0.26298 0.39927 0.24263 0.0
C667 C 0.1791 0.43232 0.27704 0.0
C668 C 0.19137 0.4428 0.24944 0.0
H669 H 0.18989 0.40606 0.31565 0.0
H670 H 0.15698 0.44262 0.28793 0.0
C671 C 0.21992 0.42821 0.23598 0.0
C672 C 0.20974 0.06558 0.4912 0.0
C673 C 0.17282 0.07 0.48756 0.0
H674 H 0.2661 0.08865 0.49532 0.0
C675 C 0.16485 0.1025 0.48574 0.0
H676 H 0.21681 0.04075 0.49222 0.0
C677 C 0.193 0.12988 0.48738 0.0
C678 C 0.22997 0.1255 0.4907 0.0
H679 H 0.13675 0.10682 0.48316 0.0
H680 H 0.18566 0.1545 0.48587 0.0
C681 C 0.23799 0.09299 0.49267 0.0
C682 C 0.75292 0.18483 0.76476 0.0
C683 C 0.78758 0.17705 0.75876 0.0
H684 H 0.69656 0.16527 0.76746 0.0
C685 C 0.791 0.14362 0.7468 0.0
H686 H 0.74975 0.21053 0.77402 0.0
C687 C 0.76077 0.11798 0.74264 0.0
C688 C 0.7265 0.12514 0.75078 0.0
H689 H 0.81743 0.13715 0.74174 0.0
H690 H 0.7649 0.09227 0.73472 0.0
C691 C 0.72257 0.15898 0.76097 0.0
C692 C 0.43798 0.06409 0.54328 0.0
C693 C 0.46771 0.06632 0.5251 0.0
H694 H 0.38629 0.07903 0.55177 0.0
C695 C 0.46724 0.08566 0.50048 0.0
H696 H 0.43724 0.049 0.56207 0.0
C697 C 0.43786 0.10244 0.49422 0.0
C698 C 0.40828 0.1005 0.51257 0.0
H699 H 0.4899 0.08822 0.48622 0.0
H700 H 0.43878 0.11756 0.47545 0.0
C701 C 0.40858 0.08097 0.53706 0.0
C702 C 0.62281 0.41896 0.52786 0.0
C703 C 0.61021 0.42386 0.5582 0.0
H704 H 0.65318 0.39053 0.49594 0.0
C705 C 0.61637 0.40059 0.57847 0.0
H706 H 0.61788 0.43566 0.5111 0.0
C707 C 0.63544 0.37411 0.56923 0.0
C708 C 0.64973 0.37042 0.53972 0.0
H709 H 0.60797 0.40351 0.60218 0.0
H710 H 0.64048 0.35746 0.58604 0.0
C711 C 0.64277 0.39285 0.51891 0.0
C712 C 0.80721 0.2307 0.39408 0.0
C713 C 0.77525 0.22359 0.3726 0.0
H714 H 0.83255 0.25274 0.44054 0.0
C715 C 0.74324 0.23453 0.38292 0.0
H716 H 0.83271 0.22373 0.38692 0.0
C717 C 0.74329 0.25197 0.41394 0.0
C718 C 0.77532 0.2587 0.43537 0.0
H719 H 0.71807 0.22946 0.36708 0.0
H720 H 0.71822 0.25986 0.42119 0.0
C721 C 0.80719 0.24779 0.42493 0.0
C722 C 0.50234 0.01237 0.82562 0.0
C723 C 0.49837 0.03129 0.85521 0.0
H724 H 0.53685 0.00287 0.78876 0.0
C725 C 0.52817 0.05528 0.87078 0.0
H726 H 0.48025 0.99321 0.8132 0.0
C727 C 0.56083 0.06061 0.85682 0.0
C728 C 0.56447 0.04212 0.82695 0.0
H729 H 0.52601 0.07051 0.89343 0.0
H730 H 0.58306 0.07957 0.86931 0.0
C731 C 0.53491 0.01777 0.81164 0.0
C732 C 0.35837 0.23477 0.35914 0.0
C733 C 0.32706 0.24254 0.34289 0.0
H734 H 0.38041 0.21737 0.4005 0.0
C735 C 0.29268 0.23258 0.35298 0.0
H736 H 0.38522 0.24224 0.35196 0.0
C737 C 0.29001 0.21903 0.38086 0.0
C738 C 0.32159 0.21442 0.39892 0.0
H739 H 0.268 0.23772 0.3406 0.0
H740 H 0.26341 0.21413 0.38936 0.0
C741 C 0.35561 0.2206 0.38695 0.0
C742 C 0.52861 0.52408 0.91811 0.0
C743 C 0.54739 0.49812 0.9259 0.0
H744 H 0.49747 0.54263 0.882 0.0
C745 C 0.54422 0.46827 0.90369 0.0
H746 H 0.53023 0.5473 0.93489 0.0
C747 C 0.52555 0.46566 0.87345 0.0
C748 C 0.5094 0.49275 0.8647 0.0
H749 H 0.55843 0.44788 0.90877 0.0
H750 H 0.52548 0.443 0.85632 0.0
C751 C 0.50969 0.52139 0.88786 0.0
C752 C 0.78176 0.78899 0.11771 0.0
C753 C 0.78607 0.77527 0.1458 0.0
H754 H 0.78561 0.78241 0.06749 0.0
C755 C 0.79336 0.74197 0.14366 0.0
H756 H 0.77582 0.81447 0.11856 0.0
C757 C 0.79879 0.72375 0.11463 0.0
C758 C 0.79719 0.73834 0.08699 0.0
H759 H 0.79745 0.73065 0.16472 0.0
H760 H 0.80614 0.69879 0.11421 0.0
C761 C 0.78719 0.77061 0.08848 0.0
C762 C 0.01778 0.01743 0.13529 0.0
C763 C 0.04739 0.99944 0.1344 0.0
H764 H 0.98005 0.03993 0.16364 0.0
C765 C 0.06051 0.98878 0.16225 0.0
H766 H 1.00721 0.02607 0.11418 0.0
C767 C 0.04547 0.99727 0.19071 0.0
C768 C 0.01653 0.01612 0.1919 0.0
H769 H 0.08374 0.97546 0.16244 0.0
H770 H 0.05744 0.98993 0.21193 0.0
C771 C 1.00236 0.02549 0.16366 0.0
C772 C 0.3345 0.79496 0.14631 0.0
C773 C 0.33087 0.81968 0.17223 0.0
H774 H 0.3198 0.77559 0.09673 0.0
C775 C 0.31004 0.84502 0.16728 0.0
H776 H 0.35067 0.7753 0.14941 0.0
C777 C 0.29242 0.84517 0.13728 0.0
C778 C 0.29542 0.82011 0.11148 0.0
H779 H 0.30643 0.86419 0.18685 0.0
H780 H 0.27597 0.86469 0.13445 0.0
C781 C 0.31705 0.79526 0.11615 0.0
C782 C 0.05608 0.56027 0.12526 0.0
C783 C 0.05113 0.53308 0.09965 0.0
H784 H 0.08286 0.58127 0.17203 0.0
C785 C 0.06721 0.50434 0.10365 0.0
H786 H 0.04449 0.58293 0.12321 0.0
C787 C 0.09011 0.50401 0.13111 0.0
C788 C 0.09628 0.53176 0.15587 0.0
H789 H 0.06304 0.48229 0.08514 0.0
H790 H 0.10362 0.4823 0.13277 0.0
C791 C 0.07817 0.55943 0.15324 0.0
C792 C 0.44244 0.71604 0.3123 0.0
C793 C 0.40549 0.71111 0.31781 0.0
H794 H 0.49802 0.71854 0.33124 0.0
C795 C 0.39619 0.70233 0.34692 0.0
H796 H 0.45028 0.72249 0.28993 0.0
C797 C 0.42348 0.70024 0.37071 0.0
C798 C 0.4606 0.70651 0.36572 0.0
H799 H 0.36789 0.69854 0.35182 0.0
H800 H 0.41551 0.69471 0.39333 0.0
C801 C 0.46971 0.71352 0.33592 0.0
C802 C 0.02357 0.39209 0.96561 0.0
C803 C 0.0494 0.41186 0.95107 0.0
H804 H 1.00428 0.3433 0.97654 0.0
C805 C 0.07615 0.39644 0.93582 0.0
H806 H 1.00215 0.40305 0.97705 0.0
C807 C 0.07712 0.36203 0.93524 0.0
C808 C 0.05146 0.34234 0.95002 0.0
H809 H 0.09667 0.41104 0.92472 0.0
H810 H 0.09819 0.35095 0.92334 0.0
C811 C 0.02468 0.35777 0.96522 0.0
C812 C 0.68368 0.75818 0.30914 0.0
C813 C 0.70796 0.73536 0.30187 0.0
H814 H 0.63557 0.7672 0.33103 0.0
C815 C 0.69917 0.70192 0.30715 0.0
H816 H 0.68992 0.78412 0.30531 0.0
C817 C 0.66796 0.69211 0.3216 0.0
C818 C 0.64534 0.71576 0.33145 0.0
H819 H 0.71733 0.6838 0.30137 0.0
H820 H 0.66295 0.66664 0.32686 0.0
C821 C 0.65268 0.7485 0.32395 0.0
C822 C 0.08681 0.15439 0.02591 0.0
C823 C 0.09605 0.12282 0.0143 0.0
H824 H 0.07057 0.19994 0.0144 0.0
C825 C 0.09109 0.11074 0.98153 0.0
H826 H 0.09054 0.16405 0.05118 0.0
C827 C 0.08024 0.13139 0.9604 0.0
C828 C 0.0738 0.16418 0.97188 0.0
H829 H 0.09824 0.08643 0.9722 0.0
H830 H 0.07923 0.12255 0.93512 0.0
C831 C 0.07527 0.17479 1.00484 0.0
C832 C 0.36376 0.28859 0.21666 0.0
C833 C 0.37746 0.28315 0.24669 0.0
H834 H 0.37201 0.28748 0.16774 0.0
C835 C 0.41233 0.27362 0.25023 0.0
H836 H 0.33694 0.29571 0.21302 0.0
C837 C 0.43271 0.26912 0.22419 0.0
C838 C 0.41844 0.27367 0.19398 0.0
H839 H 0.42386 0.26962 0.27315 0.0
H840 H 0.45915 0.26119 0.22755 0.0
C841 C 0.38389 0.28378 0.19065 0.0
C842 C 0.57119 0.38233 0.08793 0.0
C843 C 0.57154 0.38548 0.05565 0.0
H844 H 0.55638 0.34976 0.12156 0.0
C845 C 0.5524 0.35915 0.03248 0.0
H846 H 0.5862 0.40219 0.10621 0.0
C847 C 0.53623 0.32898 0.04119 0.0
C848 C 0.53826 0.32479 0.07328 0.0
H849 H 0.55273 0.36072 0.00749 0.0
H850 H 0.52385 0.30816 0.02264 0.0
C851 C 0.55427 0.35234 0.09671 0.0
C852 C 0.64043 0.23115 0.20762 0.0
C853 C 0.67316 0.22633 0.19465 0.0
H854 H 0.58326 0.2338 0.19819 0.0
C855 C 0.67235 0.21768 0.16159 0.0
H856 H 0.64043 0.23813 0.23306 0.0
C857 C 0.63999 0.21519 0.14172 0.0
C858 C 0.60741 0.22156 0.15431 0.0
H859 H 0.69718 0.21376 0.15098 0.0
H860 H 0.64091 0.20916 0.11633 0.0
C861 C 0.60783 0.22892 0.18761 0.0
C862 C 0.43139 0.08538 0.05491 0.0
C863 C 0.45143 0.07765 0.02898 0.0
H864 H 0.42419 0.12162 0.09493 0.0
C865 C 0.48218 0.10106 0.02547 0.0
H866 H 0.40717 0.06848 0.05829 0.0
C867 C 0.49133 0.13202 0.04617 0.0
C868 C 0.47045 0.1401 0.07128 0.0
H869 H 0.4989 0.09579 1.00637 0.0
H870 H 0.51449 0.14975 0.04216 0.0
C871 C 0.44102 0.11605 0.07595 0.0
C872 C 0.33342 0.38863 0.71553 0.0
C873 C 0.33524 0.35813 0.72691 0.0
H874 H 0.35955 0.43978 0.71632 0.0
C875 C 0.36391 0.35661 0.74988 0.0
H876 H 0.31164 0.39023 0.69765 0.0
C877 C 0.39147 0.38442 0.75993 0.0
C878 C 0.39045 0.41452 0.74774 0.0
H879 H 0.36619 0.33325 0.7587 0.0
H880 H 0.41427 0.38205 0.77647 0.0
C881 C 0.36063 0.41688 0.72626 0.0
C882 C 0.35008 0.647 0.7707 0.0
C883 C 0.32537 0.6415 0.79321 0.0
H884 H 0.39507 0.63169 0.74762 0.0
C885 C 0.32807 0.6145 0.81004 0.0
H886 H 0.34957 0.66792 0.75778 0.0
C887 C 0.3547 0.59355 0.80431 0.0
C888 C 0.37939 0.5993 0.78179 0.0
H889 H 0.30948 0.60946 0.82753 0.0
H890 H 0.35605 0.57301 0.8176 0.0
C891 C 0.37657 0.62628 0.76509 0.0
C892 C 0.89781 0.44343 0.52168 0.0
C893 C 0.88065 0.46091 0.50047 0.0
H894 H 0.8933 0.40032 0.54531 0.0
C895 C 0.84408 0.44886 0.48799 0.0
H896 H 0.926 0.45223 0.53154 0.0
C897 C 0.82511 0.41957 0.49628 0.0
C898 C 0.84263 0.40136 0.51666 0.0
H899 H 0.83023 0.46208 0.47172 0.0
H900 H 0.7971 0.41062 0.48595 0.0
C901 C 0.87911 0.41372 0.52943 0.0
C902 C 0.71716 0.92063 0.80134 0.0
C903 C 0.74591 0.90766 0.78688 0.0
H904 H 0.67539 0.95147 0.79831 0.0
C905 C 0.74918 0.9099 0.75488 0.0
H906 H 0.71369 0.91871 0.82589 0.0
C907 C 0.72721 0.92869 0.73899 0.0
C908 C 0.70156 0.94544 0.75486 0.0
H909 H 0.77096 0.89996 0.7431 0.0
H910 H 0.7327 0.9327 0.71531 0.0
C911 C 0.69497 0.93916 0.7854 0.0
C912 C 0.64846 0.60287 0.98595 0.0
C913 C 0.65783 0.57091 0.98812 0.0
H914 H 0.66733 0.65545 0.9869 0.0
C915 C 0.6951 0.56793 0.99269 0.0
H916 H 0.62002 0.60605 0.98258 0.0
C917 C 0.72233 0.59627 0.99513 0.0
C918 C 0.71297 0.6283 0.99315 0.0
H919 H 0.70327 0.54355 0.99391 0.0
H920 H 0.75075 0.59304 0.99872 0.0
C921 C 0.67565 0.63122 0.9885 0.0
C922 C 0.24825 0.68345 0.26333 0.0
C923 C 0.28244 0.67529 0.25623 0.0
H924 H 0.19206 0.66447 0.26731 0.0
C925 C 0.28508 0.64186 0.24356 0.0
H926 H 0.24571 0.70917 0.27318 0.0
C927 C 0.2546 0.61654 0.23982 0.0
C928 C 0.22088 0.62403 0.2491 0.0
H929 H 0.31115 0.6351 0.23769 0.0
H930 H 0.25817 0.59077 0.23136 0.0
C931 C 0.21766 0.65792 0.25996 0.0
C932 C 0.92555 0.57168 0.05078 0.0
C933 C 0.95426 0.57465 0.03154 0.0
H934 H 0.8742 0.58595 0.06164 0.0
C935 C 0.95238 0.59476 0.0076 0.0
H936 H 0.9259 0.55601 0.06908 0.0
C937 C 0.92258 0.61148 1.00298 0.0
C938 C 0.89398 0.60872 0.02233 0.0
H939 H 0.97424 0.5979 0.99257 0.0
H940 H 0.92237 0.62712 0.98464 0.0
C941 C 0.89572 0.58852 0.04621 0.0
C942 C 0.12901 0.92578 0.0276 0.0
C943 C 0.11804 0.93215 0.05848 0.0
H944 H 0.15603 0.89473 0.99484 0.0
C945 C 0.12346 0.90889 0.07893 0.0
H946 H 0.12451 0.94243 0.0107 0.0
C947 C 0.14029 0.88094 0.0693 0.0
C948 C 0.15303 0.87572 0.03919 0.0
H949 H 0.11625 0.91285 0.10301 0.0
H950 H 0.14488 0.8643 0.08622 0.0
C951 C 0.14678 0.89819 0.01825 0.0
loop_
_geom_bond_atom_site_label_1
_geom_bond_atom_site_label_2
_geom_bond_distance
_geom_bond_site_symmetry_2
_ccdc_geom_bond_type
H0 C1 0.949 . S
C1 H0 0.949 . S
C1 C2 1.395 1_545 S
C1 C3 1.391 . S
C2 C1 1.395 1_565 S
C2 C5 1.390 . S
C3 C1 1.391 . S
C3 C7 1.387 . S
C3 C8 1.491 . S
H4 C5 0.950 . S
C5 C2 1.390 . S
C5 H4 0.950 . S
C5 C6 1.378 1_565 S
C6 C5 1.378 1_545 S
C6 C7 1.409 . S
C7 C3 1.387 . S
C7 C6 1.409 . S
C7 H9 0.951 . S
C8 C3 1.491 . S
C8 C10 1.382 1_554 S
C8 C12 1.404 . S
H9 C7 0.951 . S
C10 C8 1.382 1_556 S
C10 C11 1.390 . S
C10 H15 0.949 . S
C11 C10 1.390 . S
C11 C16 1.399 . S
C12 C8 1.404 . S
C12 H13 0.950 . S
C12 C14 1.375 . S
H13 C12 0.950 . S
C14 C12 1.375 . S
C14 C16 1.382 1_554 S
C14 H18 0.950 . S
H15 C10 0.949 . S
C16 C11 1.399 . S
C16 C14 1.382 1_556 S
C16 H17 0.952 . S
H17 C16 0.952 . S
H18 C14 0.950 . S
H19 C20 0.949 . S
C20 H19 0.949 . S
C20 C21 1.395 . S
C20 C22 1.391 . S
C21 C20 1.395 . S
C21 C24 1.390 . S
C22 C20 1.391 . S
C22 C26 1.387 . S
C22 C27 1.491 . S
H23 C24 0.950 . S
C24 C21 1.390 . S
C24 H23 0.950 . S
C24 C25 1.378 . S
C25 C24 1.378 . S
C25 C26 1.409 . S
C26 C22 1.387 . S
C26 C25 1.409 . S
C26 H28 0.951 . S
C27 C22 1.491 . S
C27 C29 1.382 . S
C27 C31 1.404 . S
H28 C26 0.951 . S
C29 C27 1.382 . S
C29 C30 1.390 . S
C29 H34 0.949 . S
C30 C29 1.390 . S
C30 C35 1.399 . S
C31 C27 1.404 . S
C31 H32 0.950 . S
C31 C33 1.375 . S
H32 C31 0.950 . S
C33 C31 1.375 . S
C33 C35 1.382 . S
C33 H37 0.950 . S
H34 C29 0.949 . S
C35 C30 1.399 . S
C35 C33 1.382 . S
C35 H36 0.952 . S
H36 C35 0.952 . S
H37 C33 0.950 . S
H38 C39 0.949 . S
C39 H38 0.949 . S
C39 C40 1.395 . S
C39 C41 1.391 1_455 S
C40 C39 1.395 . S
C40 C43 1.390 1_455 S
C41 C39 1.391 1_655 S
C41 C45 1.387 . S
C41 C46 1.491 1_654 S
H42 C43 0.950 . S
C43 C40 1.390 1_655 S
C43 H42 0.950 . S
C43 C44 1.378 . S
C44 C43 1.378 . S
C44 C45 1.409 . S
C45 C41 1.387 . S
C45 C44 1.409 . S
C45 H47 0.963 . S
C46 C41 1.491 1_456 S
C46 C48 1.382 . S
C46 C50 1.404 . S
H47 C45 0.963 . S
C48 C46 1.382 . S
C48 C49 1.390 . S
C48 H53 0.949 1_556 S
C49 C48 1.390 . S
C49 C54 1.399 . S
C50 C46 1.404 . S
C50 H51 0.950 . S
C50 C52 1.375 . S
H51 C50 0.950 . S
C52 C50 1.375 . S
C52 C54 1.382 . S
C52 H56 0.950 . S
H53 C48 0.949 1_554 S
C54 C49 1.399 . S
C54 C52 1.382 . S
C54 H55 0.952 . S
H55 C54 0.952 . S
H56 C52 0.950 . S
H57 C58 0.949 . S
C58 H57 0.949 . S
C58 C59 1.395 . S
C58 C60 1.391 . S
C59 C58 1.395 . S
C59 C62 1.390 . S
C60 C58 1.391 . S
C60 C64 1.387 . S
C60 C65 1.491 . S
H61 C62 0.950 . S
C62 C59 1.390 . S
C62 H61 0.950 . S
C62 C63 1.378 . S
C63 C62 1.378 . S
C63 C64 1.409 . S
C64 C60 1.387 . S
C64 C63 1.409 . S
C64 H66 0.951 . S
C65 C60 1.491 . S
C65 C67 1.382 . S
C65 C69 1.404 . S
H66 C64 0.951 . S
C67 C65 1.382 . S
C67 C68 1.390 . S
C67 H72 0.949 . S
C68 C67 1.390 . S
C68 C73 1.399 . S
C69 C65 1.404 . S
C69 H70 0.950 . S
C69 C71 1.375 . S
H70 C69 0.950 . S
C71 C69 1.375 . S
C71 C73 1.382 . S
C71 H75 0.950 . S
H72 C67 0.949 . S
C73 C68 1.399 . S
C73 C71 1.382 . S
C73 H74 0.952 . S
H74 C73 0.952 . S
H75 C71 0.950 . S
H76 C77 0.949 . S
C77 H76 0.949 . S
C77 C78 1.395 1_565 S
C77 C79 1.391 . S
C78 C77 1.395 1_545 S
C78 C81 1.390 . S
C79 C77 1.391 . S
C79 C83 1.387 . S
C79 C84 1.491 . S
H80 C81 0.950 . S
C81 C78 1.390 . S
C81 H80 0.950 . S
C81 C82 1.389 . S
C82 C81 1.389 . S
C82 C83 1.384 1_545 S
C83 C79 1.387 . S
C83 C82 1.384 1_565 S
C83 H85 0.951 . S
C84 C79 1.491 . S
C84 C86 1.382 . S
C84 C88 1.404 . S
H85 C83 0.951 . S
C86 C84 1.382 . S
C86 C87 1.390 . S
C86 H91 0.949 . S
C87 C86 1.390 . S
C87 C92 1.399 . S
C88 C84 1.404 . S
C88 H89 0.950 . S
C88 C90 1.375 . S
H89 C88 0.950 . S
C90 C88 1.375 . S
C90 C92 1.382 . S
C90 H94 0.950 . S
H91 C86 0.949 . S
C92 C87 1.399 . S
C92 C90 1.382 . S
C92 H93 0.952 . S
H93 C92 0.952 . S
H94 C90 0.950 . S
H95 C96 0.949 . S
C96 H95 0.949 . S
C96 C97 1.395 . S
C96 C98 1.391 . S
C97 C96 1.395 . S
C97 C100 1.390 . S
C98 C96 1.391 . S
C98 C102 1.387 . S
C98 C103 1.491 . S
H99 C100 0.950 . S
C100 C97 1.390 . S
C100 H99 0.950 . S
C100 C101 1.378 . S
C101 C100 1.378 . S
C101 C102 1.409 . S
C102 C98 1.387 . S
C102 C101 1.409 . S
C102 H104 0.951 . S
C103 C98 1.491 . S
C103 C105 1.382 . S
C103 C107 1.404 . S
H104 C102 0.951 . S
C105 C103 1.382 . S
C105 C106 1.390 . S
C105 H110 0.949 . S
C106 C105 1.390 . S
C106 C111 1.399 . S
C107 C103 1.404 . S
C107 H108 0.950 . S
C107 C109 1.375 . S
H108 C107 0.950 . S
C109 C107 1.375 . S
C109 C111 1.382 . S
C109 H113 0.950 . S
H110 C105 0.949 . S
C111 C106 1.399 . S
C111 C109 1.382 . S
C111 H112 0.952 . S
H112 C111 0.952 . S
H113 C109 0.950 . S
H114 C115 0.949 . S
C115 H114 0.949 . S
C115 C116 1.395 . S
C115 C117 1.391 . S
C116 C115 1.395 . S
C116 C119 1.390 . S
C117 C115 1.391 . S
C117 C121 1.387 . S
C117 C122 1.491 . S
H118 C119 0.950 . S
C119 C116 1.390 . S
C119 H118 0.950 . S
C119 C120 1.378 . S
C120 C119 1.378 . S
C120 C121 1.409 . S
C121 C117 1.387 . S
C121 C120 1.409 . S
C121 H123 0.951 . S
C122 C117 1.491 . S
C122 C124 1.382 1_655 S
C122 C126 1.404 . S
H123 C121 0.951 . S
C124 C122 1.382 1_455 S
C124 C125 1.390 . S
C124 H129 0.949 . S
C125 C124 1.390 . S
C125 C130 1.399 1_455 S
C126 C122 1.404 . S
C126 H127 0.950 . S
C126 C128 1.375 . S
H127 C126 0.950 . S
C128 C126 1.375 . S
C128 C130 1.382 . S
C128 H132 0.950 . S
H129 C124 0.949 . S
C130 C125 1.399 1_655 S
C130 C128 1.382 . S
C130 H131 0.952 . S
H131 C130 0.952 . S
H132 C128 0.950 . S
H133 C134 0.949 . S
C134 H133 0.949 . S
C134 C135 1.395 . S
C134 C136 1.391 . S
C135 C134 1.395 . S
C135 C138 1.390 . S
C136 C134 1.391 . S
C136 C140 1.387 . S
C136 C141 1.491 . S
H137 C138 0.950 . S
C138 C135 1.390 . S
C138 H137 0.950 . S
C138 C139 1.378 . S
C139 C138 1.378 . S
C139 C140 1.409 . S
C140 C136 1.387 . S
C140 C139 1.409 . S
C140 H142 0.951 . S
C141 C136 1.491 . S
C141 C143 1.382 . S
C141 C145 1.404 . S
H142 C140 0.951 . S
C143 C141 1.382 . S
C143 C144 1.390 . S
C143 H148 0.949 . S
C144 C143 1.390 . S
C144 C149 1.399 . S
C145 C141 1.404 . S
C145 H146 0.950 . S
C145 C147 1.375 . S
H146 C145 0.950 . S
C147 C145 1.375 . S
C147 C149 1.382 . S
C147 H151 0.950 . S
H148 C143 0.949 . S
C149 C144 1.399 . S
C149 C147 1.382 . S
C149 H150 0.952 . S
H150 C149 0.952 . S
H151 C147 0.950 . S
H152 C153 0.949 . S
C153 H152 0.949 . S
C153 C154 1.395 . S
C153 C155 1.391 . S
C154 C153 1.395 . S
C154 C157 1.390 . S
C155 C153 1.391 . S
C155 C159 1.387 . S
C155 C160 1.491 . S
H156 C157 0.950 . S
C157 C154 1.390 . S
C157 H156 0.950 . S
C157 C158 1.378 . S
C158 C157 1.378 . S
C158 C159 1.409 . S
C159 C155 1.387 . S
C159 C158 1.409 . S
C159 H161 0.951 . S
C160 C155 1.491 . S
C160 C162 1.382 . S
C160 C164 1.404 . S
H161 C159 0.951 . S
C162 C160 1.382 . S
C162 C163 1.390 . S
C162 H167 0.949 . S
C163 C162 1.390 . S
C163 C168 1.399 . S
C164 C160 1.404 . S
C164 H165 0.950 . S
C164 C166 1.375 . S
H165 C164 0.950 . S
C166 C164 1.375 . S
C166 C168 1.382 . S
C166 H170 0.950 . S
H167 C162 0.949 . S
C168 C163 1.399 . S
C168 C166 1.382 . S
C168 H169 0.952 . S
H169 C168 0.952 . S
H170 C166 0.950 . S
H171 C172 0.949 . S
C172 H171 0.949 . S
C172 C173 1.395 . S
C172 C174 1.391 . S
C173 C172 1.395 . S
C173 C176 1.390 1_565 S
C174 C172 1.391 . S
C174 C178 1.387 . S
C174 C179 1.491 . S
H175 C176 0.950 . S
C176 C173 1.390 1_545 S
C176 H175 0.950 . S
C176 C177 1.378 . S
C177 C176 1.378 . S
C177 C178 1.409 1_545 S
C178 C174 1.387 . S
C178 C177 1.409 1_565 S
C178 H180 0.951 . S
C179 C174 1.491 . S
C179 C181 1.382 . S
C179 C183 1.404 . S
H180 C178 0.951 . S
C181 C179 1.382 . S
C181 C182 1.390 . S
C181 H186 0.949 . S
C182 C181 1.390 . S
C182 C187 1.399 . S
C183 C179 1.404 . S
C183 H184 0.950 . S
C183 C185 1.375 . S
H184 C183 0.950 . S
C185 C183 1.375 . S
C185 C187 1.382 . S
C185 H189 0.950 . S
H186 C181 0.949 . S
C187 C182 1.399 . S
C187 C185 1.382 . S
C187 H188 0.952 . S
H188 C187 0.952 . S
H189 C185 0.950 . S
H190 C191 0.949 . S
C191 H190 0.949 . S
C191 C192 1.395 . S
C191 C193 1.391 . S
C192 C191 1.395 . S
C192 C195 1.390 . S
C193 C191 1.391 . S
C193 C197 1.387 . S
C193 C198 1.491 . S
H194 C195 0.950 . S
C195 C192 1.390 . S
C195 H194 0.950 . S
C195 C196 1.378 . S
C196 C195 1.378 . S
C196 C197 1.409 . S
C197 C193 1.387 . S
C197 C196 1.409 . S
C197 H199 0.951 . S
C198 C193 1.491 . S
C198 C200 1.382 . S
C198 C202 1.404 . S
H199 C197 0.951 . S
C200 C198 1.382 . S
C200 C201 1.390 . S
C200 H205 0.949 . S
C201 C200 1.390 . S
C201 C206 1.399 . S
C202 C198 1.404 . S
C202 H203 0.950 . S
C202 C204 1.375 . S
H203 C202 0.950 . S
C204 C202 1.375 . S
C204 C206 1.382 . S
C204 H208 0.950 . S
H205 C200 0.949 . S
C206 C201 1.399 . S
C206 C204 1.382 . S
C206 H207 0.952 . S
H207 C206 0.952 . S
H208 C204 0.950 . S
H209 C210 0.949 . S
C210 H209 0.949 . S
C210 C211 1.395 . S
C210 C212 1.391 . S
C211 C210 1.395 . S
C211 C214 1.390 . S
C212 C210 1.391 . S
C212 C216 1.387 . S
C212 C217 1.491 . S
H213 C214 0.950 . S
C214 C211 1.390 . S
C214 H213 0.950 . S
C214 C215 1.378 . S
C215 C214 1.378 . S
C215 C216 1.409 . S
C216 C212 1.387 . S
C216 C215 1.409 . S
C216 H218 0.951 . S
C217 C212 1.491 . S
C217 C219 1.382 . S
C217 C221 1.404 . S
H218 C216 0.951 . S
C219 C217 1.382 . S
C219 C220 1.390 . S
C219 H224 0.949 . S
C220 C219 1.390 . S
C220 C225 1.399 . S
C221 C217 1.404 . S
C221 H222 0.950 . S
C221 C223 1.375 . S
H222 C221 0.950 . S
C223 C221 1.375 . S
C223 C225 1.382 . S
C223 H227 0.950 . S
H224 C219 0.949 . S
C225 C220 1.399 . S
C225 C223 1.382 . S
C225 H226 0.952 . S
H226 C225 0.952 . S
H227 C223 0.950 . S
H228 C229 0.949 . S
C229 H228 0.949 . S
C229 C230 1.395 . S
C229 C231 1.391 . S
C230 C229 1.395 . S
C230 C233 1.390 . S
C231 C229 1.391 . S
C231 C235 1.387 . S
C231 C236 1.491 . S
H232 C233 0.950 . S
C233 C230 1.390 . S
C233 H232 0.950 . S
C233 C234 1.378 . S
C234 C233 1.378 . S
C234 C235 1.409 . S
C235 C231 1.387 . S
C235 C234 1.409 . S
C235 H237 0.951 . S
C236 C231 1.491 . S
C236 C238 1.382 . S
C236 C240 1.404 . S
H237 C235 0.951 . S
C238 C236 1.382 . S
C238 C239 1.390 . S
C238 H243 0.949 . S
C239 C238 1.390 . S
C239 C244 1.399 . S
C240 C236 1.404 . S
C240 H241 0.950 . S
C240 C242 1.375 . S
H241 C240 0.950 . S
C242 C240 1.375 . S
C242 C244 1.382 . S
C242 H246 0.950 . S
H243 C238 0.949 . S
C244 C239 1.399 . S
C244 C242 1.382 . S
C244 H245 0.952 . S
H245 C244 0.952 . S
H246 C242 0.950 . S
H247 C248 0.949 1_554 S
C248 H247 0.949 1_556 S
C248 C249 1.395 . S
C248 C250 1.391 . S
C249 C248 1.395 . S
C249 C252 1.390 . S
C250 C248 1.391 . S
C250 C254 1.387 . S
C250 C255 1.491 . S
H251 C252 0.950 . S
C252 C249 1.390 . S
C252 H251 0.950 . S
C252 C253 1.378 . S
C253 C252 1.378 . S
C253 C254 1.409 . S
C254 C250 1.387 . S
C254 C253 1.409 . S
C254 H256 0.951 . S
C255 C250 1.491 . S
C255 C257 1.382 1_556 S
C255 C259 1.404 . S
H256 C254 0.951 . S
C257 C255 1.382 1_554 S
C257 C258 1.390 . S
C257 H262 0.949 . S
C258 C257 1.390 . S
C258 C263 1.399 . S
C259 C255 1.404 . S
C259 H260 0.950 . S
C259 C261 1.375 . S
H260 C259 0.950 . S
C261 C259 1.375 . S
C261 C263 1.382 1_556 S
C261 H265 0.950 . S
H262 C257 0.949 . S
C263 C258 1.399 . S
C263 C261 1.382 1_554 S
C263 H264 0.952 . S
H264 C263 0.952 . S
H265 C261 0.950 . S
H266 C267 0.949 . S
C267 H266 0.949 . S
C267 C268 1.395 . S
C267 C269 1.391 . S
C268 C267 1.395 . S
C268 C271 1.390 . S
C269 C267 1.391 . S
C269 C273 1.387 . S
C269 C274 1.491 . S
H270 C271 0.950 . S
C271 C268 1.390 . S
C271 H270 0.950 . S
C271 C272 1.378 . S
C272 C271 1.378 . S
C272 C273 1.409 . S
C273 C269 1.387 . S
C273 C272 1.409 . S
C273 H275 0.951 . S
C274 C269 1.491 . S
C274 C276 1.382 . S
C274 C278 1.404 . S
H275 C273 0.951 . S
C276 C274 1.382 . S
C276 C277 1.390 . S
C276 H281 0.949 . S
C277 C276 1.390 . S
C277 C282 1.399 . S
C278 C274 1.404 . S
C278 H279 0.950 . S
C278 C280 1.375 . S
H279 C278 0.950 . S
C280 C278 1.375 . S
C280 C282 1.382 . S
C280 H284 0.950 . S
H281 C276 0.949 . S
C282 C277 1.399 . S
C282 C280 1.382 . S
C282 H283 0.952 . S
H283 C282 0.952 . S
H284 C280 0.950 . S
H285 C286 0.949 . S
C286 H285 0.949 . S
C286 C287 1.381 1_556 S
C286 C288 1.391 . S
C287 C286 1.381 1_554 S
C287 C290 1.397 . S
C288 C286 1.391 . S
C288 C292 1.387 . S
C288 C293 1.491 . S
H289 C290 0.950 . S
C290 C287 1.397 . S
C290 H289 0.950 . S
C290 C291 1.378 1_554 S
C291 C290 1.378 1_556 S
C291 C292 1.409 . S
C292 C288 1.387 . S
C292 C291 1.409 . S
C292 H294 0.951 1_545 S
C293 C288 1.491 . S
C293 C295 1.382 . S
C293 C297 1.404 . S
H294 C292 0.951 1_565 S
C295 C293 1.382 . S
C295 C296 1.390 . S
C295 H300 0.949 . S
C296 C295 1.390 . S
C296 C301 1.399 . S
C297 C293 1.404 . S
C297 H298 0.950 . S
C297 C299 1.375 . S
H298 C297 0.950 . S
C299 C297 1.375 . S
C299 C301 1.382 . S
C299 H303 0.950 1_545 S
H300 C295 0.949 . S
C301 C296 1.399 . S
C301 C299 1.382 . S
C301 H302 0.952 . S
H302 C301 0.952 . S
H303 C299 0.950 1_565 S
Mg304 O305 2.028 . S
Mg304 O311 1.986 1_554 S
Mg304 O313 2.114 . S
Mg304 O314 2.251 . S
Mg304 O317 2.010 . S
O305 Mg304 2.028 . S
O305 C308 1.250 . S
O306 Mg307 2.028 . S
O306 C308 1.248 . S
Mg307 O306 2.028 . S
Mg307 O312 2.032 1_554 S
Mg307 O314 2.079 . S
C308 O305 1.250 . S
C308 O306 1.248 . S
C309 O310 1.264 . S
C309 O317 1.249 . S
O310 C309 1.264 . S
O311 Mg304 1.986 1_556 S
O311 C315 1.246 . S
O312 Mg307 2.032 1_556 S
O312 C315 1.259 . S
O313 Mg304 2.114 . S
O313 C316 1.252 . S
O314 Mg304 2.251 . S
O314 Mg307 2.079 . S
O314 C316 1.273 . S
C315 O311 1.246 . S
C315 O312 1.259 . S
C316 O313 1.252 . S
C316 O314 1.273 . S
O317 Mg304 2.010 . S
O317 C309 1.249 . S
Mg318 O319 2.028 . S
Mg318 O325 1.986 . S
Mg318 O327 2.114 . S
Mg318 O328 2.251 . S
Mg318 O331 2.010 . S
O319 Mg318 2.028 . S
O319 C322 1.250 . S
O320 Mg321 2.028 . S
O320 C322 1.248 . S
Mg321 O320 2.028 . S
Mg321 O326 2.032 . S
Mg321 O328 2.079 . S
C322 O319 1.250 . S
C322 O320 1.248 . S
C323 O324 1.264 . S
C323 O331 1.249 . S
O324 C323 1.264 . S
O325 Mg318 1.986 . S
O325 C329 1.246 . S
O326 Mg321 2.032 . S
O326 C329 1.259 . S
O327 Mg318 2.114 . S
O327 C330 1.252 . S
O328 Mg318 2.251 . S
O328 Mg321 2.079 . S
O328 C330 1.273 . S
C329 O325 1.246 . S
C329 O326 1.259 . S
C330 O327 1.252 . S
C330 O328 1.273 . S
O331 Mg318 2.010 . S
O331 C323 1.249 . S
Mg332 O333 2.029 1_554 S
Mg332 O339 1.986 1_554 S
Mg332 O341 2.114 . S
Mg332 O342 2.251 . S
Mg332 O345 2.010 . S
O333 Mg332 2.029 1_556 S
O333 C336 1.251 . S
O334 Mg335 2.028 . S
O334 C336 1.248 . S
Mg335 O334 2.028 . S
Mg335 O340 2.032 . S
Mg335 O342 2.079 1_556 S
C336 O333 1.251 . S
C336 O334 1.248 . S
C337 O338 1.264 . S
C337 O345 1.249 . S
O338 C337 1.264 . S
O339 Mg332 1.986 1_556 S
O339 C343 1.246 . S
O340 Mg335 2.032 . S
O340 C343 1.259 . S
O341 Mg332 2.114 . S
O341 C344 1.252 . S
O342 Mg332 2.251 . S
O342 Mg335 2.079 1_554 S
O342 C344 1.273 . S
C343 O339 1.246 . S
C343 O340 1.259 . S
C344 O341 1.252 . S
C344 O342 1.273 . S
O345 Mg332 2.010 . S
O345 C337 1.249 . S
Mg346 O347 2.028 . S
Mg346 O353 1.986 . S
Mg346 O355 2.114 . S
Mg346 O356 2.251 . S
Mg346 O359 2.010 . S
O347 Mg346 2.028 . S
O347 C350 1.250 1_545 S
O348 Mg349 2.038 . S
O348 C350 1.248 . S
Mg349 O348 2.038 . S
Mg349 O354 2.042 1_655 S
Mg349 O356 2.081 1_565 S
C350 O347 1.250 1_565 S
C350 O348 1.248 . S
C351 O352 1.264 . S
C351 O359 1.249 . S
O352 C351 1.264 . S
O353 Mg346 1.986 . S
O353 C357 1.246 1_655 S
O354 Mg349 2.042 1_455 S
O354 C357 1.233 1_565 S
O355 Mg346 2.114 . S
O355 C358 1.252 . S
O356 Mg346 2.251 . S
O356 Mg349 2.081 1_545 S
O356 C358 1.273 . S
C357 O353 1.246 1_455 S
C357 O354 1.233 1_545 S
C358 O355 1.252 . S
C358 O356 1.273 . S
O359 Mg346 2.010 . S
O359 C351 1.249 . S
Mg360 O361 2.028 . S
Mg360 O367 1.986 . S
Mg360 O369 2.114 . S
Mg360 O370 2.251 . S
Mg360 O373 2.010 . S
O361 Mg360 2.028 . S
O361 C364 1.250 . S
O362 Mg363 2.028 . S
O362 C364 1.248 . S
Mg363 O362 2.028 . S
Mg363 O368 2.032 . S
Mg363 O370 2.079 . S
C364 O361 1.250 . S
C364 O362 1.248 . S
C365 O366 1.264 . S
C365 O373 1.249 . S
O366 C365 1.264 . S
O367 Mg360 1.986 . S
O367 C371 1.246 . S
O368 Mg363 2.032 . S
O368 C371 1.259 . S
O369 Mg360 2.114 . S
O369 C372 1.252 . S
O370 Mg360 2.251 . S
O370 Mg363 2.079 . S
O370 C372 1.273 . S
C371 O367 1.246 . S
C371 O368 1.259 . S
C372 O369 1.252 . S
C372 O370 1.273 . S
O373 Mg360 2.010 . S
O373 C365 1.249 . S
Mg374 O375 2.028 . S
Mg374 O381 1.986 . S
Mg374 O383 2.114 . S
Mg374 O384 2.251 . S
Mg374 O387 2.010 . S
O375 Mg374 2.028 . S
O375 C378 1.250 . S
O376 Mg377 2.028 . S
O376 C378 1.248 . S
Mg377 O376 2.028 . S
Mg377 O382 2.032 . S
Mg377 O384 2.079 . S
C378 O375 1.250 . S
C378 O376 1.248 . S
C379 O380 1.264 . S
C379 O387 1.249 . S
O380 C379 1.264 . S
O381 Mg374 1.986 . S
O381 C385 1.246 . S
O382 Mg377 2.032 . S
O382 C385 1.259 . S
O383 Mg374 2.114 . S
O383 C386 1.252 . S
O384 Mg374 2.251 . S
O384 Mg377 2.079 . S
O384 C386 1.273 . S
C385 O381 1.246 . S
C385 O382 1.259 . S
C386 O383 1.252 . S
C386 O384 1.273 . S
O387 Mg374 2.010 . S
O387 C379 1.249 . S
Mg388 O389 2.028 . S
Mg388 O395 1.986 . S
Mg388 O397 2.114 . S
Mg388 O398 2.251 . S
Mg388 O401 2.010 . S
O389 Mg388 2.028 . S
O389 C392 1.250 . S
O390 Mg391 2.028 . S
O390 C392 1.248 . S
Mg391 O390 2.028 . S
Mg391 O396 2.032 . S
Mg391 O398 2.079 . S
C392 O389 1.250 . S
C392 O390 1.248 . S
C393 O394 1.264 . S
C393 O401 1.249 . S
O394 C393 1.264 . S
O395 Mg388 1.986 . S
O395 C399 1.246 . S
O396 Mg391 2.032 . S
O396 C399 1.259 . S
O397 Mg388 2.114 . S
O397 C400 1.252 . S
O398 Mg388 2.251 . S
O398 Mg391 2.079 . S
O398 C400 1.273 . S
C399 O395 1.246 . S
C399 O396 1.259 . S
C400 O397 1.252 . S
C400 O398 1.273 . S
O401 Mg388 2.010 . S
O401 C393 1.249 . S
Mg402 O403 2.028 . S
Mg402 O409 1.986 1_545 S
Mg402 O411 2.114 . S
Mg402 O412 2.251 . S
Mg402 O415 2.010 . S
O403 Mg402 2.028 . S
O403 C406 1.250 . S
O404 Mg405 2.028 . S
O404 C406 1.248 . S
Mg405 O404 2.028 . S
Mg405 O410 2.032 1_545 S
Mg405 O412 2.079 . S
C406 O403 1.250 . S
C406 O404 1.248 . S
C407 O408 1.264 . S
C407 O415 1.249 . S
O408 C407 1.264 . S
O409 Mg402 1.986 1_565 S
O409 C413 1.246 . S
O410 Mg405 2.032 1_565 S
O410 C413 1.259 . S
O411 Mg402 2.114 . S
O411 C414 1.252 . S
O412 Mg402 2.251 . S
O412 Mg405 2.079 . S
O412 C414 1.273 . S
C413 O409 1.246 . S
C413 O410 1.259 . S
C414 O411 1.252 . S
C414 O412 1.273 . S
O415 Mg402 2.010 . S
O415 C407 1.249 . S
Mg416 O417 2.028 1_455 S
Mg416 O423 1.986 . S
Mg416 O425 2.114 . S
Mg416 O426 2.251 1_455 S
Mg416 O429 2.010 . S
O417 Mg416 2.028 1_655 S
O417 C420 1.250 . S
O418 Mg419 2.028 . S
O418 C420 1.248 . S
Mg419 O418 2.028 . S
Mg419 O424 2.032 . S
Mg419 O426 2.079 . S
C420 O417 1.250 . S
C420 O418 1.248 . S
C421 O422 1.264 . S
C421 O429 1.249 . S
O422 C421 1.264 . S
O423 Mg416 1.986 . S
O423 C427 1.246 . S
O424 Mg419 2.032 . S
O424 C427 1.259 1_655 S
O425 Mg416 2.114 . S
O425 C428 1.252 . S
O426 Mg416 2.251 1_655 S
O426 Mg419 2.079 . S
O426 C428 1.273 1_655 S
C427 O423 1.246 . S
C427 O424 1.259 1_455 S
C428 O425 1.252 . S
C428 O426 1.273 1_455 S
O429 Mg416 2.010 . S
O429 C421 1.249 . S
Mg430 O431 2.028 . S
Mg430 O437 1.986 . S
Mg430 O439 2.114 . S
Mg430 O440 2.251 . S
Mg430 O443 2.010 . S
O431 Mg430 2.028 . S
O431 C434 1.250 . S
O432 Mg433 2.028 . S
O432 C434 1.248 . S
Mg433 O432 2.028 . S
Mg433 O438 2.032 . S
Mg433 O440 2.079 . S
C434 O431 1.250 . S
C434 O432 1.248 . S
C435 O436 1.264 . S
C435 O443 1.249 . S
O436 C435 1.264 . S
O437 Mg430 1.986 . S
O437 C441 1.246 . S
O438 Mg433 2.032 . S
O438 C441 1.259 . S
O439 Mg430 2.114 . S
O439 C442 1.252 . S
O440 Mg430 2.251 . S
O440 Mg433 2.079 . S
O440 C442 1.273 . S
C441 O437 1.246 . S
C441 O438 1.259 . S
C442 O439 1.252 . S
C442 O440 1.273 . S
O443 Mg430 2.010 . S
O443 C435 1.249 . S
Mg444 O445 2.028 1_655 S
Mg444 O451 1.986 1_655 S
Mg444 O453 2.114 . S
Mg444 O454 2.251 1_655 S
Mg444 O457 2.010 . S
O445 Mg444 2.028 1_455 S
O445 C448 1.250 . S
O446 Mg447 2.028 . S
O446 C448 1.248 . S
Mg447 O446 2.028 . S
Mg447 O452 2.032 . S
Mg447 O454 2.079 . S
C448 O445 1.250 . S
C448 O446 1.248 . S
C449 O450 1.264 . S
C449 O457 1.249 . S
O450 C449 1.264 . S
O451 Mg444 1.986 1_455 S
O451 C455 1.246 . S
O452 Mg447 2.032 . S
O452 C455 1.259 . S
O453 Mg444 2.114 . S
O453 C456 1.252 . S
O454 Mg444 2.251 1_455 S
O454 Mg447 2.079 . S
O454 C456 1.273 1_455 S
C455 O451 1.246 . S
C455 O452 1.259 . S
C456 O453 1.252 . S
C456 O454 1.273 1_655 S
O457 Mg444 2.010 . S
O457 C449 1.249 . S
Mg458 O459 2.028 . S
Mg458 O465 1.986 . S
Mg458 O467 2.114 . S
Mg458 O468 2.251 . S
Mg458 O471 2.010 . S
O459 Mg458 2.028 . S
O459 C462 1.250 . S
O460 Mg461 2.028 . S
O460 C462 1.248 . S
Mg461 O460 2.028 . S
Mg461 O466 2.032 . S
Mg461 O468 2.079 . S
C462 O459 1.250 . S
C462 O460 1.248 . S
C463 O464 1.264 . S
C463 O471 1.249 . S
O464 C463 1.264 . S
O465 Mg458 1.986 . S
O465 C469 1.246 . S
O466 Mg461 2.032 . S
O466 C469 1.259 . S
O467 Mg458 2.114 . S
O467 C470 1.252 . S
O468 Mg458 2.251 . S
O468 Mg461 2.079 . S
O468 C470 1.273 . S
C469 O465 1.246 . S
C469 O466 1.259 . S
C470 O467 1.252 . S
C470 O468 1.273 . S
O471 Mg458 2.010 . S
O471 C463 1.249 . S
C472 C473 1.387 . S
C472 H476 0.950 . S
C472 C481 1.390 . S
C473 C472 1.387 . S
C473 C475 1.387 . S
H474 C481 0.950 . S
C475 C473 1.387 . S
C475 C477 1.390 . S
C475 H479 0.950 . S
H476 C472 0.950 . S
C477 C475 1.390 . S
C477 C478 1.387 . S
C477 H480 0.950 . S
C478 C477 1.387 . S
C478 C481 1.387 . S
H479 C475 0.950 . S
H480 C477 0.950 . S
C481 C472 1.390 . S
C481 H474 0.950 . S
C481 C478 1.387 . S
C482 C483 1.387 . S
C482 H486 0.950 . S
C482 C491 1.390 . S
C483 C482 1.387 . S
C483 C485 1.387 . S
H484 C491 0.950 . S
C485 C483 1.387 . S
C485 C487 1.390 . S
C485 H489 0.950 . S
H486 C482 0.950 . S
C487 C485 1.390 . S
C487 C488 1.387 . S
C487 H490 0.950 . S
C488 C487 1.387 . S
C488 C491 1.387 . S
H489 C485 0.950 . S
H490 C487 0.950 . S
C491 C482 1.390 . S
C491 H484 0.950 . S
C491 C488 1.387 . S
C492 C493 1.387 . S
C492 H496 0.950 . S
C492 C501 1.390 . S
C493 C492 1.387 . S
C493 C495 1.387 . S
H494 C501 0.950 . S
C495 C493 1.387 . S
C495 C497 1.390 . S
C495 H499 0.950 . S
H496 C492 0.950 . S
C497 C495 1.390 . S
C497 C498 1.387 . S
C497 H500 0.950 . S
C498 C497 1.387 . S
C498 C501 1.387 . S
H499 C495 0.950 . S
H500 C497 0.950 . S
C501 C492 1.390 . S
C501 H494 0.950 . S
C501 C498 1.387 . S
C502 C503 1.387 1_565 S
C502 H506 0.950 . S
C502 C511 1.390 . S
C503 C502 1.387 1_545 S
C503 C505 1.387 . S
H504 C511 0.950 . S
C505 C503 1.387 . S
C505 C507 1.390 . S
C505 H509 0.950 . S
H506 C502 0.950 . S
C507 C505 1.390 . S
C507 C508 1.387 . S
C507 H510 0.950 . S
C508 C507 1.387 . S
C508 C511 1.387 1_545 S
H509 C505 0.950 . S
H510 C507 0.950 . S
C511 C502 1.390 . S
C511 H504 0.950 . S
C511 C508 1.387 1_565 S
C512 C513 1.387 . S
C512 H516 0.950 . S
C512 C521 1.390 . S
C513 C512 1.387 . S
C513 C515 1.387 . S
H514 C521 0.950 . S
C515 C513 1.387 . S
C515 C517 1.390 . S
C515 H519 0.950 . S
H516 C512 0.950 . S
C517 C515 1.390 . S
C517 C518 1.387 . S
C517 H520 0.950 . S
C518 C517 1.387 . S
C518 C521 1.387 . S
H519 C515 0.950 . S
H520 C517 0.950 . S
C521 C512 1.390 . S
C521 H514 0.950 . S
C521 C518 1.387 . S
C522 C523 1.387 . S
C522 H526 0.950 . S
C522 C531 1.390 . S
C523 C522 1.387 . S
C523 C525 1.387 . S
H524 C531 0.950 . S
C525 C523 1.387 . S
C525 C527 1.390 . S
C525 H529 0.950 . S
H526 C522 0.950 . S
C527 C525 1.390 . S
C527 C528 1.387 . S
C527 H530 0.950 . S
C528 C527 1.387 . S
C528 C531 1.387 . S
H529 C525 0.950 . S
H530 C527 0.950 . S
C531 C522 1.390 . S
C531 H524 0.950 . S
C531 C528 1.387 . S
C532 C533 1.387 . S
C532 H536 0.950 . S
C532 C541 1.390 . S
C533 C532 1.387 . S
C533 C535 1.387 . S
H534 C541 0.950 . S
C535 C533 1.387 . S
C535 C537 1.390 . S
C535 H539 0.950 . S
H536 C532 0.950 . S
C537 C535 1.390 . S
C537 C538 1.387 . S
C537 H540 0.950 . S
C538 C537 1.387 . S
C538 C541 1.387 . S
H539 C535 0.950 . S
H540 C537 0.950 . S
C541 C532 1.390 . S
C541 H534 0.950 . S
C541 C538 1.387 . S
C542 C543 1.387 1_545 S
C542 H546 0.950 . S
C542 C551 1.390 . S
C543 C542 1.387 1_565 S
C543 C545 1.387 . S
H544 C551 0.950 . S
C545 C543 1.387 . S
C545 C547 1.390 . S
C545 H549 0.950 . S
H546 C542 0.950 . S
C547 C545 1.390 . S
C547 C548 1.387 1_565 S
C547 H550 0.950 . S
C548 C547 1.387 1_545 S
C548 C551 1.387 . S
H549 C545 0.950 . S
H550 C547 0.950 . S
C551 C542 1.390 . S
C551 H544 0.950 . S
C551 C548 1.387 . S
C552 C553 1.387 . S
C552 H556 0.950 . S
C552 C561 1.390 . S
C553 C552 1.387 . S
C553 C555 1.387 . S
H554 C561 0.950 . S
C555 C553 1.387 . S
C555 C557 1.390 . S
C555 H559 0.950 . S
H556 C552 0.950 . S
C557 C555 1.390 . S
C557 C558 1.387 . S
C557 H560 0.950 . S
C558 C557 1.387 . S
C558 C561 1.387 . S
H559 C555 0.950 . S
H560 C557 0.950 . S
C561 C552 1.390 . S
C561 H554 0.950 . S
C561 C558 1.387 . S
C562 C563 1.387 . S
C562 H566 0.950 . S
C562 C571 1.390 . S
C563 C562 1.387 . S
C563 C565 1.387 . S
H564 C571 0.950 . S
C565 C563 1.387 . S
C565 C567 1.390 . S
C565 H569 0.950 . S
H566 C562 0.950 . S
C567 C565 1.390 . S
C567 C568 1.387 . S
C567 H570 0.950 . S
C568 C567 1.387 . S
C568 C571 1.387 . S
H569 C565 0.950 . S
H570 C567 0.950 . S
C571 C562 1.390 . S
C571 H564 0.950 . S
C571 C568 1.387 . S
C572 C573 1.387 . S
C572 H576 0.950 . S
C572 C581 1.390 . S
C573 C572 1.387 . S
C573 C575 1.387 . S
H574 C581 0.950 . S
C575 C573 1.387 . S
C575 C577 1.390 . S
C575 H579 0.950 . S
H576 C572 0.950 . S
C577 C575 1.390 . S
C577 C578 1.387 . S
C577 H580 0.950 . S
C578 C577 1.387 . S
C578 C581 1.387 . S
H579 C575 0.950 . S
H580 C577 0.950 . S
C581 C572 1.390 . S
C581 H574 0.950 . S
C581 C578 1.387 . S
C582 C583 1.387 . S
C582 H586 0.950 . S
C582 C591 1.390 . S
C583 C582 1.387 . S
C583 C585 1.387 . S
H584 C591 0.950 . S
C585 C583 1.387 . S
C585 C587 1.390 . S
C585 H589 0.950 . S
H586 C582 0.950 . S
C587 C585 1.390 . S
C587 C588 1.387 . S
C587 H590 0.950 . S
C588 C587 1.387 . S
C588 C591 1.387 . S
H589 C585 0.950 . S
H590 C587 0.950 . S
C591 C582 1.390 . S
C591 H584 0.950 . S
C591 C588 1.387 . S
C592 C593 1.387 . S
C592 H596 0.950 . S
C592 C601 1.390 . S
C593 C592 1.387 . S
C593 C595 1.387 . S
H594 C601 0.950 . S
C595 C593 1.387 . S
C595 C597 1.390 . S
C595 H599 0.950 . S
H596 C592 0.950 . S
C597 C595 1.390 . S
C597 C598 1.387 . S
C597 H600 0.950 . S
C598 C597 1.387 . S
C598 C601 1.387 . S
H599 C595 0.950 . S
H600 C597 0.950 . S
C601 C592 1.390 . S
C601 H594 0.950 . S
C601 C598 1.387 . S
C602 C603 1.387 . S
C602 H606 0.950 . S
C602 C611 1.390 . S
C603 C602 1.387 . S
C603 C605 1.387 . S
H604 C611 0.950 . S
C605 C603 1.387 . S
C605 C607 1.390 . S
C605 H609 0.950 . S
H606 C602 0.950 . S
C607 C605 1.390 . S
C607 C608 1.387 . S
C607 H610 0.950 . S
C608 C607 1.387 . S
C608 C611 1.387 . S
H609 C605 0.950 . S
H610 C607 0.950 . S
C611 C602 1.390 . S
C611 H604 0.950 . S
C611 C608 1.387 . S
C612 C613 1.387 . S
C612 H616 0.950 . S
C612 C621 1.390 . S
C613 C612 1.387 . S
C613 C615 1.387 . S
H614 C621 0.950 . S
C615 C613 1.387 . S
C615 C617 1.390 . S
C615 H619 0.950 . S
H616 C612 0.950 . S
C617 C615 1.390 . S
C617 C618 1.387 . S
C617 H620 0.950 . S
C618 C617 1.387 . S
C618 C621 1.387 . S
H619 C615 0.950 . S
H620 C617 0.950 . S
C621 C612 1.390 . S
C621 H614 0.950 . S
C621 C618 1.387 . S
C622 C623 1.387 1_455 S
C622 H626 0.950 . S
C622 C631 1.390 . S
C623 C622 1.387 1_655 S
C623 C625 1.387 . S
H624 C631 0.950 . S
C625 C623 1.387 . S
C625 C627 1.390 . S
C625 H629 0.950 . S
H626 C622 0.950 . S
C627 C625 1.390 . S
C627 C628 1.387 . S
C627 H630 0.950 . S
C628 C627 1.387 . S
C628 C631 1.387 1_655 S
H629 C625 0.950 . S
H630 C627 0.950 . S
C631 C622 1.390 . S
C631 H624 0.950 . S
C631 C628 1.387 1_455 S
C632 C633 1.387 . S
C632 H636 0.950 . S
C632 C641 1.390 . S
C633 C632 1.387 . S
C633 C635 1.387 . S
H634 C641 0.950 . S
C635 C633 1.387 . S
C635 C637 1.390 . S
C635 H639 0.950 . S
H636 C632 0.950 . S
C637 C635 1.390 . S
C637 C638 1.387 . S
C637 H640 0.950 . S
C638 C637 1.387 . S
C638 C641 1.387 . S
H639 C635 0.950 . S
H640 C637 0.950 . S
C641 C632 1.390 . S
C641 H634 0.950 . S
C641 C638 1.387 . S
C642 C643 1.387 . S
C642 H646 0.950 . S
C642 C651 1.390 . S
C643 C642 1.387 . S
C643 C645 1.387 . S
H644 C651 0.950 . S
C645 C643 1.387 . S
C645 C647 1.390 . S
C645 H649 0.950 . S
H646 C642 0.950 . S
C647 C645 1.390 . S
C647 C648 1.387 . S
C647 H650 0.950 . S
C648 C647 1.387 . S
C648 C651 1.387 . S
H649 C645 0.950 . S
H650 C647 0.950 . S
C651 C642 1.390 . S
C651 H644 0.950 . S
C651 C648 1.387 . S
C652 C653 1.387 1_554 S
C652 H656 0.950 1_565 S
C652 C661 1.390 . S
C653 C652 1.387 1_556 S
C653 C655 1.387 . S
H654 C661 0.950 . S
C655 C653 1.387 . S
C655 C657 1.390 . S
C655 H659 0.950 . S
H656 C652 0.950 1_545 S
C657 C655 1.390 . S
C657 C658 1.387 1_556 S
C657 H660 0.950 . S
C658 C657 1.387 1_554 S
C658 C661 1.387 . S
H659 C655 0.950 . S
H660 C657 0.950 . S
C661 C652 1.390 . S
C661 H654 0.950 . S
C661 C658 1.387 . S
C662 C663 1.387 . S
C662 H666 0.950 . S
C662 C671 1.390 . S
C663 C662 1.387 . S
C663 C665 1.387 . S
H664 C671 0.950 . S
C665 C663 1.387 . S
C665 C667 1.390 . S
C665 H669 0.950 . S
H666 C662 0.950 . S
C667 C665 1.390 . S
C667 C668 1.387 . S
C667 H670 0.950 . S
C668 C667 1.387 . S
C668 C671 1.387 . S
H669 C665 0.950 . S
H670 C667 0.950 . S
C671 C662 1.390 . S
C671 H664 0.950 . S
C671 C668 1.387 . S
C672 C673 1.387 . S
C672 H676 0.950 . S
C672 C681 1.390 . S
C673 C672 1.387 . S
C673 C675 1.387 . S
H674 C681 0.950 . S
C675 C673 1.387 . S
C675 C677 1.390 . S
C675 H679 0.950 . S
H676 C672 0.950 . S
C677 C675 1.390 . S
C677 C678 1.387 . S
C677 H680 0.950 . S
C678 C677 1.387 . S
C678 C681 1.387 . S
H679 C675 0.950 . S
H680 C677 0.950 . S
C681 C672 1.390 . S
C681 H674 0.950 . S
C681 C678 1.387 . S
C682 C683 1.387 . S
C682 H686 0.950 . S
C682 C691 1.390 . S
C683 C682 1.387 . S
C683 C685 1.387 . S
H684 C691 0.950 . S
C685 C683 1.387 . S
C685 C687 1.390 . S
C685 H689 0.950 . S
H686 C682 0.950 . S
C687 C685 1.390 . S
C687 C688 1.387 . S
C687 H690 0.950 . S
C688 C687 1.387 . S
C688 C691 1.387 . S
H689 C685 0.950 . S
H690 C687 0.950 . S
C691 C682 1.390 . S
C691 H684 0.950 . S
C691 C688 1.387 . S
C692 C693 1.387 . S
C692 H696 0.950 . S
C692 C701 1.390 . S
C693 C692 1.387 . S
C693 C695 1.387 . S
H694 C701 0.950 . S
C695 C693 1.387 . S
C695 C697 1.390 . S
C695 H699 0.950 . S
H696 C692 0.950 . S
C697 C695 1.390 . S
C697 C698 1.387 . S
C697 H700 0.950 . S
C698 C697 1.387 . S
C698 C701 1.387 . S
H699 C695 0.950 . S
H700 C697 0.950 . S
C701 C692 1.390 . S
C701 H694 0.950 . S
C701 C698 1.387 . S
C702 C703 1.387 . S
C702 H706 0.950 . S
C702 C711 1.390 . S
C703 C702 1.387 . S
C703 C705 1.387 . S
H704 C711 0.950 . S
C705 C703 1.387 . S
C705 C707 1.390 . S
C705 H709 0.950 . S
H706 C702 0.950 . S
C707 C705 1.390 . S
C707 C708 1.387 . S
C707 H710 0.950 . S
C708 C707 1.387 . S
C708 C711 1.387 . S
H709 C705 0.950 . S
H710 C707 0.950 . S
C711 C702 1.390 . S
C711 H704 0.950 . S
C711 C708 1.387 . S
C712 C713 1.387 . S
C712 H716 0.950 . S
C712 C721 1.390 . S
C713 C712 1.387 . S
C713 C715 1.387 . S
H714 C721 0.950 . S
C715 C713 1.387 . S
C715 C717 1.390 . S
C715 H719 0.950 . S
H716 C712 0.950 . S
C717 C715 1.390 . S
C717 C718 1.387 . S
C717 H720 0.950 . S
C718 C717 1.387 . S
C718 C721 1.387 . S
H719 C715 0.950 . S
H720 C717 0.950 . S
C721 C712 1.390 . S
C721 H714 0.950 . S
C721 C718 1.387 . S
C722 C723 1.387 . S
C722 H726 0.950 1_545 S
C722 C731 1.390 . S
C723 C722 1.387 . S
C723 C725 1.387 . S
H724 C731 0.950 1_565 S
C725 C723 1.387 . S
C725 C727 1.390 . S
C725 H729 0.950 . S
H726 C722 0.950 1_565 S
C727 C725 1.390 . S
C727 C728 1.387 . S
C727 H730 0.950 . S
C728 C727 1.387 . S
C728 C731 1.387 . S
H729 C725 0.950 . S
H730 C727 0.950 . S
C731 C722 1.390 . S
C731 H724 0.950 1_545 S
C731 C728 1.387 . S
C732 C733 1.387 . S
C732 H736 0.950 . S
C732 C741 1.390 . S
C733 C732 1.387 . S
C733 C735 1.387 . S
H734 C741 0.950 . S
C735 C733 1.387 . S
C735 C737 1.390 . S
C735 H739 0.950 . S
H736 C732 0.950 . S
C737 C735 1.390 . S
C737 C738 1.387 . S
C737 H740 0.950 . S
C738 C737 1.387 . S
C738 C741 1.387 . S
H739 C735 0.950 . S
H740 C737 0.950 . S
C741 C732 1.390 . S
C741 H734 0.950 . S
C741 C738 1.387 . S
C742 C743 1.387 . S
C742 H746 0.950 . S
C742 C751 1.390 . S
C743 C742 1.387 . S
C743 C745 1.387 . S
H744 C751 0.950 . S
C745 C743 1.387 . S
C745 C747 1.390 . S
C745 H749 0.950 . S
H746 C742 0.950 . S
C747 C745 1.390 . S
C747 C748 1.387 . S
C747 H750 0.950 . S
C748 C747 1.387 . S
C748 C751 1.387 . S
H749 C745 0.950 . S
H750 C747 0.950 . S
C751 C742 1.390 . S
C751 H744 0.950 . S
C751 C748 1.387 . S
C752 C753 1.387 . S
C752 H756 0.950 . S
C752 C761 1.390 . S
C753 C752 1.387 . S
C753 C755 1.387 . S
H754 C761 0.950 . S
C755 C753 1.387 . S
C755 C757 1.390 . S
C755 H759 0.950 . S
H756 C752 0.950 . S
C757 C755 1.390 . S
C757 C758 1.387 . S
C757 H760 0.950 . S
C758 C757 1.387 . S
C758 C761 1.387 . S
H759 C755 0.950 . S
H760 C757 0.950 . S
C761 C752 1.390 . S
C761 H754 0.950 . S
C761 C758 1.387 . S
C762 C763 1.387 1_565 S
C762 H766 0.950 . S
C762 C771 1.390 1_455 S
C763 C762 1.387 1_545 S
C763 C765 1.387 . S
H764 C771 0.950 . S
C765 C763 1.387 . S
C765 C767 1.390 . S
C765 H769 0.950 . S
H766 C762 0.950 . S
C767 C765 1.390 . S
C767 C768 1.387 . S
C767 H770 0.950 . S
C768 C767 1.387 . S
C768 C771 1.387 1_445 S
H769 C765 0.950 . S
H770 C767 0.950 . S
C771 C762 1.390 1_655 S
C771 H764 0.950 . S
C771 C768 1.387 1_665 S
C772 C773 1.387 . S
C772 H776 0.950 . S
C772 C781 1.390 . S
C773 C772 1.387 . S
C773 C775 1.387 . S
H774 C781 0.950 . S
C775 C773 1.387 . S
C775 C777 1.390 . S
C775 H779 0.950 . S
H776 C772 0.950 . S
C777 C775 1.390 . S
C777 C778 1.387 . S
C777 H780 0.950 . S
C778 C777 1.387 . S
C778 C781 1.387 . S
H779 C775 0.950 . S
H780 C777 0.950 . S
C781 C772 1.390 . S
C781 H774 0.950 . S
C781 C778 1.387 . S
C782 C783 1.387 . S
C782 H786 0.950 . S
C782 C791 1.390 . S
C783 C782 1.387 . S
C783 C785 1.387 . S
H784 C791 0.950 . S
C785 C783 1.387 . S
C785 C787 1.390 . S
C785 H789 0.950 . S
H786 C782 0.950 . S
C787 C785 1.390 . S
C787 C788 1.387 . S
C787 H790 0.950 . S
C788 C787 1.387 . S
C788 C791 1.387 . S
H789 C785 0.950 . S
H790 C787 0.950 . S
C791 C782 1.390 . S
C791 H784 0.950 . S
C791 C788 1.387 . S
C792 C793 1.387 . S
C792 H796 0.950 . S
C792 C801 1.390 . S
C793 C792 1.387 . S
C793 C795 1.387 . S
H794 C801 0.950 . S
C795 C793 1.387 . S
C795 C797 1.390 . S
C795 H799 0.950 . S
H796 C792 0.950 . S
C797 C795 1.390 . S
C797 C798 1.387 . S
C797 H800 0.950 . S
C798 C797 1.387 . S
C798 C801 1.387 . S
H799 C795 0.950 . S
H800 C797 0.950 . S
C801 C792 1.390 . S
C801 H794 0.950 . S
C801 C798 1.387 . S
C802 C803 1.387 1_655 S
C802 H806 0.950 . S
C802 C811 1.390 . S
C803 C802 1.387 1_455 S
C803 C805 1.387 . S
H804 C811 0.950 . S
C805 C803 1.387 . S
C805 C807 1.390 . S
C805 H809 0.950 . S
H806 C802 0.950 . S
C807 C805 1.390 . S
C807 C808 1.387 . S
C807 H810 0.950 . S
C808 C807 1.387 . S
C808 C811 1.387 1_455 S
H809 C805 0.950 . S
H810 C807 0.950 . S
C811 C802 1.390 . S
C811 H804 0.950 . S
C811 C808 1.387 1_655 S
C812 C813 1.387 . S
C812 H816 0.950 . S
C812 C821 1.390 . S
C813 C812 1.387 . S
C813 C815 1.387 . S
H814 C821 0.950 . S
C815 C813 1.387 . S
C815 C817 1.390 . S
C815 H819 0.950 . S
H816 C812 0.950 . S
C817 C815 1.390 . S
C817 C818 1.387 . S
C817 H820 0.950 . S
C818 C817 1.387 . S
C818 C821 1.387 . S
H819 C815 0.950 . S
H820 C817 0.950 . S
C821 C812 1.390 . S
C821 H814 0.950 . S
C821 C818 1.387 . S
C822 C823 1.387 1_655 S
C822 H826 0.950 . S
C822 C831 1.390 . S
C823 C822 1.387 1_455 S
C823 C825 1.387 . S
H824 C831 0.950 . S
C825 C823 1.387 . S
C825 C827 1.390 . S
C825 H829 0.950 . S
H826 C822 0.950 . S
C827 C825 1.390 . S
C827 C828 1.387 . S
C827 H830 0.950 . S
C828 C827 1.387 . S
C828 C831 1.387 1_455 S
H829 C825 0.950 . S
H830 C827 0.950 . S
C831 C822 1.390 . S
C831 H824 0.950 . S
C831 C828 1.387 1_655 S
C832 C833 1.387 . S
C832 H836 0.950 . S
C832 C841 1.390 . S
C833 C832 1.387 . S
C833 C835 1.387 . S
H834 C841 0.950 . S
C835 C833 1.387 . S
C835 C837 1.390 . S
C835 H839 0.950 . S
H836 C832 0.950 . S
C837 C835 1.390 . S
C837 C838 1.387 . S
C837 H840 0.950 . S
C838 C837 1.387 . S
C838 C841 1.387 . S
H839 C835 0.950 . S
H840 C837 0.950 . S
C841 C832 1.390 . S
C841 H834 0.950 . S
C841 C838 1.387 . S
C842 C843 1.387 . S
C842 H846 0.950 . S
C842 C851 1.390 . S
C843 C842 1.387 . S
C843 C845 1.387 . S
H844 C851 0.950 . S
C845 C843 1.387 . S
C845 C847 1.390 . S
C845 H849 0.950 . S
H846 C842 0.950 . S
C847 C845 1.390 . S
C847 C848 1.387 . S
C847 H850 0.950 . S
C848 C847 1.387 . S
C848 C851 1.387 . S
H849 C845 0.950 . S
H850 C847 0.950 . S
C851 C842 1.390 . S
C851 H844 0.950 . S
C851 C848 1.387 . S
C852 C853 1.387 . S
C852 H856 0.950 . S
C852 C861 1.390 . S
C853 C852 1.387 . S
C853 C855 1.387 . S
H854 C861 0.950 . S
C855 C853 1.387 . S
C855 C857 1.390 . S
C855 H859 0.950 . S
H856 C852 0.950 . S
C857 C855 1.390 . S
C857 C858 1.387 . S
C857 H860 0.950 . S
C858 C857 1.387 . S
C858 C861 1.387 . S
H859 C855 0.950 . S
H860 C857 0.950 . S
C861 C852 1.390 . S
C861 H854 0.950 . S
C861 C858 1.387 . S
C862 C863 1.387 . S
C862 H866 0.950 . S
C862 C871 1.390 . S
C863 C862 1.387 . S
C863 C865 1.387 . S
H864 C871 0.950 . S
C865 C863 1.387 . S
C865 C867 1.390 . S
C865 H869 0.950 . S
H866 C862 0.950 . S
C867 C865 1.390 . S
C867 C868 1.387 . S
C867 H870 0.950 . S
C868 C867 1.387 . S
C868 C871 1.387 . S
H869 C865 0.950 . S
H870 C867 0.950 . S
C871 C862 1.390 . S
C871 H864 0.950 . S
C871 C868 1.387 . S
C872 C873 1.387 . S
C872 H876 0.950 . S
C872 C881 1.390 . S
C873 C872 1.387 . S
C873 C875 1.387 . S
H874 C881 0.950 . S
C875 C873 1.387 . S
C875 C877 1.390 . S
C875 H879 0.950 . S
H876 C872 0.950 . S
C877 C875 1.390 . S
C877 C878 1.387 . S
C877 H880 0.950 . S
C878 C877 1.387 . S
C878 C881 1.387 . S
H879 C875 0.950 . S
H880 C877 0.950 . S
C881 C872 1.390 . S
C881 H874 0.950 . S
C881 C878 1.387 . S
C882 C883 1.387 . S
C882 H886 0.950 . S
C882 C891 1.390 . S
C883 C882 1.387 . S
C883 C885 1.387 . S
H884 C891 0.950 . S
C885 C883 1.387 . S
C885 C887 1.390 . S
C885 H889 0.950 . S
H886 C882 0.950 . S
C887 C885 1.390 . S
C887 C888 1.387 . S
C887 H890 0.950 . S
C888 C887 1.387 . S
C888 C891 1.387 . S
H889 C885 0.950 . S
H890 C887 0.950 . S
C891 C882 1.390 . S
C891 H884 0.950 . S
C891 C888 1.387 . S
C892 C893 1.387 . S
C892 H896 0.950 . S
C892 C901 1.390 . S
C893 C892 1.387 . S
C893 C895 1.387 . S
H894 C901 0.950 . S
C895 C893 1.387 . S
C895 C897 1.390 . S
C895 H899 0.950 . S
H896 C892 0.950 . S
C897 C895 1.390 . S
C897 C898 1.387 . S
C897 H900 0.950 . S
C898 C897 1.387 . S
C898 C901 1.387 . S
H899 C895 0.950 . S
H900 C897 0.950 . S
C901 C892 1.390 . S
C901 H894 0.950 . S
C901 C898 1.387 . S
C902 C903 1.387 . S
C902 H906 0.950 . S
C902 C911 1.390 . S
C903 C902 1.387 . S
C903 C905 1.387 . S
H904 C911 0.950 . S
C905 C903 1.387 . S
C905 C907 1.390 . S
C905 H909 0.950 . S
H906 C902 0.950 . S
C907 C905 1.390 . S
C907 C908 1.387 . S
C907 H910 0.950 . S
C908 C907 1.387 . S
C908 C911 1.387 . S
H909 C905 0.950 . S
H910 C907 0.950 . S
C911 C902 1.390 . S
C911 H904 0.950 . S
C911 C908 1.387 . S
C912 C913 1.387 1_554 S
C912 H916 0.950 . S
C912 C921 1.390 . S
C913 C912 1.387 1_556 S
C913 C915 1.387 . S
H914 C921 0.950 . S
C915 C913 1.387 . S
C915 C917 1.390 . S
C915 H919 0.950 . S
H916 C912 0.950 . S
C917 C915 1.390 . S
C917 C918 1.387 . S
C917 H920 0.950 . S
C918 C917 1.387 . S
C918 C921 1.387 1_556 S
H919 C915 0.950 . S
H920 C917 0.950 . S
C921 C912 1.390 . S
C921 H914 0.950 . S
C921 C918 1.387 1_554 S
C922 C923 1.387 . S
C922 H926 0.950 . S
C922 C931 1.390 . S
C923 C922 1.387 . S
C923 C925 1.387 . S
H924 C931 0.950 . S
C925 C923 1.387 . S
C925 C927 1.390 . S
C925 H929 0.950 . S
H926 C922 0.950 . S
C927 C925 1.390 . S
C927 C928 1.387 . S
C927 H930 0.950 . S
C928 C927 1.387 . S
C928 C931 1.387 . S
H929 C925 0.950 . S
H930 C927 0.950 . S
C931 C922 1.390 . S
C931 H924 0.950 . S
C931 C928 1.387 . S
C932 C933 1.387 . S
C932 H936 0.950 . S
C932 C941 1.390 . S
C933 C932 1.387 . S
C933 C935 1.387 . S
H934 C941 0.950 . S
C935 C933 1.387 . S
C935 C937 1.390 1_554 S
C935 H939 0.950 1_554 S
H936 C932 0.950 . S
C937 C935 1.390 1_556 S
C937 C938 1.387 1_556 S
C937 H940 0.950 . S
C938 C937 1.387 1_554 S
C938 C941 1.387 . S
H939 C935 0.950 1_556 S
H940 C937 0.950 . S
C941 C932 1.390 . S
C941 H934 0.950 . S
C941 C938 1.387 . S
C942 C943 1.387 . S
C942 H946 0.950 1_554 S
C942 C951 1.390 . S
C943 C942 1.387 . S
C943 C945 1.387 . S
H944 C951 0.950 1_556 S
C945 C943 1.387 . S
C945 C947 1.390 . S
C945 H949 0.950 . S
H946 C942 0.950 1_556 S
C947 C945 1.390 . S
C947 C948 1.387 . S
C947 H950 0.950 . S
C948 C947 1.387 . S
C948 C951 1.387 . S
H949 C945 0.950 . S
H950 C947 0.950 . S
C951 C942 1.390 . S
C951 H944 0.950 1_554 S
C951 C948 1.387 . S
C478 C315 1.779 . S
C473 C101 1.819 . S
C488 C323 1.004 . S
C483 C125 1.147 . S
C493 C139 1.892 . S
C498 C343 1.862 . S
C508 C357 1.702 . S
C503 C82 1.756 . S
C518 C372 1.604 . S
C513 C196 1.605 . S
C528 C386 1.853 . S
C523 C234 1.850 . S
C533 C220 1.031 . S
C538 C400 1.115 . S
C548 C406 1.606 . S
C543 C173 1.666 . S
C553 C211 1.260 . S
C558 C420 1.235 . S
C568 C441 1.201 . S
C563 C182 1.133 . S
C573 C201 1.289 . S
C578 C421 1.141 . S
C588 C442 1.416 . S
C583 C239 1.317 . S
C593 C135 1.653 . S
C598 C449 1.435 . S
C603 C87 1.654 . S
C608 C455 1.794 . S
C613 C106 1.161 . S
C618 C448 1.299 . S
C623 C116 1.256 . S
C628 C456 1.268 . S
C633 C59 1.850 . S
C638 C350 1.795 . S
C643 C268 2.074 . S
C648 C351 1.883 . S
C658 C308 1.269 . S
C653 C291 1.292 1_565 S
C668 C329 1.461 . S
C663 C163 1.333 . S
C673 C78 1.940 . S
C678 C364 1.922 . S
C688 C414 1.311 . S
C683 C215 1.308 . S
C698 C365 1.455 . S
C693 C177 1.601 . S
C708 C393 1.490 . S
C703 C230 1.815 . S
C718 C399 1.787 . S
C713 C272 1.827 . S
C723 C296 1.152 . S
C728 C407 1.008 . S
C733 C158 1.893 . S
C738 C371 1.860 . S
C748 C385 1.692 . S
C743 C253 1.732 . S
C753 C63 1.598 . S
C758 C344 1.597 . S
C768 C358 1.857 1_455 S
C763 C6 1.854 . S
C778 C316 1.114 . S
C773 C30 1.030 . S
C788 C322 1.624 . S
C783 C40 1.681 . S
C793 C21 1.276 . S
C798 C434 1.255 . S
C803 C49 1.121 . S
C808 C427 1.190 . S
C813 C68 1.280 . S
C818 C435 1.138 . S
C823 C11 1.316 . S
C828 C428 1.414 . S
C838 C463 1.423 . S
C833 C154 1.640 . S
C848 C469 1.800 . S
C843 C258 1.657 . S
C858 C462 1.321 . S
C853 C277 1.185 . S
C863 C287 1.263 . S
C868 C470 1.267 . S
C873 C192 1.847 . S
C878 C378 1.796 . S
C888 C379 1.871 . S
C883 C97 2.063 . S
C898 C392 1.271 . S
C893 C120 1.294 . S
C908 C413 1.463 . S
C903 C144 1.336 . S
C913 C249 1.937 . S
C918 C336 1.925 . S
C928 C330 1.325 . S
C923 C25 1.322 . S
C933 C44 1.586 . S
C938 C337 1.451 . S
C948 C309 1.490 . S
C943 C2 1.814 . S
