# Generated by pormake.
# Topology anh, (6,3)-cn, num edge types: 1
# Building blocks:
#     Node 0, Type 0, BuildingBlock: BETFAJ_clean_sbu_0, # of connection points: 6
#     Node 1, Type 0, BuildingBlock: BETFAJ_clean_sbu_0, # of connection points: 6
#     Node 2, Type 0, BuildingBlock: BETFAJ_clean_sbu_0, # of connection points: 6
#     Node 3, Type 1, BuildingBlock: BELTOD_clean_linker_0, # of connection points: 3
#     Node 4, Type 1, BuildingBlock: BELTOD_clean_linker_0, # of connection points: 3
#     Node 5, Type 1, BuildingBlock: BELTOD_clean_linker_0, # of connection points: 3
#     Node 6, Type 1, BuildingBlock: BELTOD_clean_linker_0, # of connection points: 3
#     Node 7, Type 1, BuildingBlock: BELTOD_clean_linker_0, # of connection points: 3
#     Node 8, Type 1, BuildingBlock: BELTOD_clean_linker_0, # of connection points: 3
#     Edge 9, Type (0, 1), BuildingBlock: MIFKUJ_clean_linker_0, # of connection points: 2
#     Edge 10, Type (0, 1), BuildingBlock: MIFKUJ_clean_linker_0, # of connection points: 2
#     Edge 11, Type (0, 1), BuildingBlock: MIFKUJ_clean_linker_0, # of connection points: 2
#     Edge 12, Type (0, 1), BuildingBlock: MIFKUJ_clean_linker_0, # of connection points: 2
#     Edge 13, Type (0, 1), BuildingBlock: MIFKUJ_clean_linker_0, # of connection points: 2
#     Edge 14, Type (0, 1), BuildingBlock: MIFKUJ_clean_linker_0, # of connection points: 2
#     Edge 15, Type (0, 1), BuildingBlock: MIFKUJ_clean_linker_0, # of connection points: 2
#     Edge 16, Type (0, 1), BuildingBlock: MIFKUJ_clean_linker_0, # of connection points: 2
#     Edge 17, Type (0, 1), BuildingBlock: MIFKUJ_clean_linker_0, # of connection points: 2
#     Edge 18, Type (0, 1), BuildingBlock: MIFKUJ_clean_linker_0, # of connection points: 2
#     Edge 19, Type (0, 1), BuildingBlock: MIFKUJ_clean_linker_0, # of connection points: 2
#     Edge 20, Type (0, 1), BuildingBlock: MIFKUJ_clean_linker_0, # of connection points: 2
#     Edge 21, Type (0, 1), BuildingBlock: MIFKUJ_clean_linker_0, # of connection points: 2
#     Edge 22, Type (0, 1), BuildingBlock: MIFKUJ_clean_linker_0, # of connection points: 2
#     Edge 23, Type (0, 1), BuildingBlock: MIFKUJ_clean_linker_0, # of connection points: 2
#     Edge 24, Type (0, 1), BuildingBlock: MIFKUJ_clean_linker_0, # of connection points: 2
#     Edge 25, Type (0, 1), BuildingBlock: MIFKUJ_clean_linker_0, # of connection points: 2
#     Edge 26, Type (0, 1), BuildingBlock: MIFKUJ_clean_linker_0, # of connection points: 2
# Relax obj value: 0.158
# Max RMSD: 0.195
# Mean RMSD: 0.142
data_MOF--net-anh--node1-BETFAJ_clean_sbu_0--node2-BELTOD_clean_linker_0--edge1-MIFKUJ_clean_linker_0
_symmetry_space_group_name_H-M    P1
_symmetry_Int_Tables_number       1
_symmetry_cell_setting            triclinic
loop_
_symmetry_equiv_pos_as_xyz
'x, y, z'
_cell_length_a     44.928437
_cell_length_b     50.255868
_cell_length_c     76.706573
_cell_angle_alpha  92.472215
_cell_angle_beta   89.559895
_cell_angle_gamma 127.29996
loop_
_atom_site_label
_atom_site_type_symbol
_atom_site_fract_x
_atom_site_fract_y
_atom_site_fract_z
_atom_type_partial_charge
Sm0 Sm 0.07418 0.52396 0.14997 0.0
Sm1 Sm 0.03411 0.55225 0.16248 0.0
C2 C 0.11556 0.51002 0.13362 0.0
C3 C 0.15324 0.51902 0.13547 0.0
C4 C 0.18525 0.55246 0.1381 0.0
C5 C 0.22036 0.55982 0.14087 0.0
C6 C 0.22371 0.53382 0.14128 0.0
C7 C 0.1917 0.50053 0.13836 0.0
C8 C 0.15685 0.49324 0.13545 0.0
C9 C 0.06708 0.52471 0.18552 0.0
C10 C 0.12323 0.60617 0.15866 0.0
C11 C 0.9911 0.56364 0.17948 0.0
C12 C 0.95065 0.54267 0.18211 0.0
C13 C 0.93579 0.55002 0.19596 0.0
C14 C 0.89721 0.52899 0.19873 0.0
C15 C 0.87325 0.50015 0.18782 0.0
C16 C 0.88843 0.49294 0.17401 0.0
C17 C 0.92675 0.51408 0.17115 0.0
C18 C 0.04133 0.55093 0.12681 0.0
C19 C 0.98569 0.4704 0.15462 0.0
O20 O 0.11288 0.53316 0.12875 0.0
O21 O 0.09239 0.49196 0.14591 0.0
O22 O 0.07518 0.54786 0.17589 0.0
O23 O 0.06539 0.50128 0.17666 0.0
O24 O 0.12177 0.58139 0.1508 0.0
O25 O 0.09357 0.60094 0.16603 0.0
O26 O 1.00854 0.55367 0.18703 0.0
O27 O 1.00178 0.57243 0.16348 0.0
O28 O 0.03296 0.52792 0.13662 0.0
O29 O 0.04385 0.57496 0.13557 0.0
O30 O 0.98813 0.49482 0.16348 0.0
O31 O 1.01403 0.47635 0.14553 0.0
H32 H 0.18311 0.57279 0.13825 0.0
H33 H 0.24469 0.58567 0.14304 0.0
H34 H 0.19365 0.48006 0.13827 0.0
H35 H 0.13253 0.46732 0.13341 0.0
H36 H 0.95398 0.57192 0.20459 0.0
H37 H 0.8861 0.53513 0.20941 0.0
H38 H 0.87054 0.47134 0.16515 0.0
H39 H 0.93778 0.50819 0.16033 0.0
Sm40 Sm 0.56849 0.01502 0.48838 0.0
Sm41 Sm 0.52288 0.03737 0.47756 0.0
C42 C 0.59518 0.98735 0.50423 0.0
C43 C 0.58611 0.95416 0.50599 0.0
C44 C 0.6124 0.95192 0.51394 0.0
C45 C 0.60492 0.92081 0.51548 0.0
C46 C 0.57093 0.89122 0.50905 0.0
C47 C 0.54434 0.89354 0.50126 0.0
C48 C 0.55194 0.92481 0.49968 0.0
C49 C 0.56739 0.02093 0.45302 0.0
C50 C 0.47842 0.95828 0.47894 0.0
C51 C 0.49544 0.06719 0.46527 0.0
C52 C 0.49789 0.09719 0.47057 0.0
C53 C 0.51294 0.12346 0.45917 0.0
C54 C 0.51642 0.15238 0.4642 0.0
C55 C 0.50464 0.15552 0.4807 0.0
C56 C 0.48926 0.12905 0.49202 0.0
C57 C 0.48602 0.10028 0.48705 0.0
C58 C 0.52784 0.03377 0.51311 0.0
C59 C 0.61474 0.09351 0.48296 0.0
O60 O 0.57259 0.99246 0.51162 0.0
O61 O 0.60579 0.99991 0.48886 0.0
O62 O 0.53936 0.00876 0.46263 0.0
O63 O 0.5962 0.02797 0.4617 0.0
O64 O 0.50719 0.96645 0.48873 0.0
O65 O 0.48007 0.98121 0.47021 0.0
O66 O 0.52606 0.07257 0.4595 0.0
O67 O 0.47685 0.0418 0.47538 0.0
O68 O 0.55428 0.04566 0.50267 0.0
O69 O 0.49754 0.02456 0.50508 0.0
O70 O 0.58401 0.08487 0.47482 0.0
O71 O 0.61474 0.07169 0.49196 0.0
H72 H 0.63884 0.97431 0.51895 0.0
H73 H 0.62572 0.91993 0.52185 0.0
H74 H 0.518 0.87132 0.49612 0.0
H75 H 0.53132 0.92609 0.49345 0.0
H76 H 0.52224 0.1217 0.44639 0.0
H77 H 0.5281 0.17219 0.45512 0.0
H78 H 0.48041 0.13086 0.50491 0.0
H79 H 0.47454 0.08064 0.49622 0.0
Sm80 Sm 0.58082 0.55892 0.85266 0.0
Sm81 Sm 0.52698 0.47883 0.85318 0.0
C82 C 0.61473 0.62253 0.84622 0.0
C83 C 0.60526 0.644 0.84 0.0
C84 C 0.57986 0.63362 0.826 0.0
C85 C 0.57161 0.65472 0.8204 0.0
C86 C 0.58831 0.68638 0.82881 0.0
C87 C 0.61349 0.69645 0.84289 0.0
C88 C 0.62189 0.6755 0.84839 0.0
C89 C 0.56756 0.53118 0.88441 0.0
C90 C 0.48663 0.51707 0.85302 0.0
C91 C 0.49188 0.41696 0.86301 0.0
C92 C 0.49402 0.38935 0.85822 0.0
C93 C 0.52862 0.39475 0.85792 0.0
C94 C 0.53033 0.36851 0.85328 0.0
C95 C 0.49761 0.33648 0.84855 0.0
C96 C 0.46307 0.33116 0.84866 0.0
C97 C 0.46129 0.35733 0.85357 0.0
C98 C 0.54561 0.49846 0.81916 0.0
C99 C 0.62153 0.52166 0.85319 0.0
O100 O 0.61226 0.60096 0.83488 0.0
O101 O 0.60264 0.61051 0.86165 0.0
O102 O 0.54396 0.52097 0.87219 0.0
O103 O 0.59994 0.55839 0.88051 0.0
O104 O 0.52051 0.54535 0.8501 0.0
O105 O 0.48223 0.48883 0.85582 0.0
O106 O 0.5209 0.44316 0.87157 0.0
O107 O 0.47812 0.42486 0.85101 0.0
O108 O 0.55584 0.51685 0.83284 0.0
O109 O 0.52402 0.4674 0.8233 0.0
O110 O 0.58777 0.49359 0.85649 0.0
O111 O 0.6257 0.54942 0.84944 0.0
H112 H 0.5664 0.60927 0.81941 0.0
H113 H 0.55187 0.64611 0.80962 0.0
H114 H 0.62724 0.72084 0.84948 0.0
H115 H 0.64155 0.68397 0.8592 0.0
H116 H 0.55442 0.41923 0.86129 0.0
H117 H 0.55736 0.3734 0.85314 0.0
H118 H 0.43741 0.30667 0.84514 0.0
H119 H 0.43434 0.3526 0.85367 0.0
P120 P 0.59005 0.02462 0.20648 0.0
H121 H 0.56801 0.98153 0.17494 0.0
H122 H 0.50734 0.93235 0.1637 0.0
H123 H 0.45236 0.95013 0.20383 0.0
H124 H 0.51301 1.00008 0.2144 0.0
H125 H 0.65274 0.05365 0.18285 0.0
H126 H 0.69624 0.10916 0.17185 0.0
H127 H 0.63317 0.13933 0.19625 0.0
H128 H 0.588 0.08247 0.20617 0.0
H129 H 0.549 0.97456 0.23223 0.0
H130 H 0.62064 0.08241 0.23218 0.0
O131 O 0.61344 0.00855 0.20513 0.0
H132 H 0.54284 0.97732 0.26365 0.0
H133 H 0.6124 0.08542 0.26333 0.0
C134 C 0.54514 0.99405 0.19574 0.0
C135 C 0.54281 0.97526 0.18105 0.0
C136 C 0.50804 0.94686 0.17476 0.0
C137 C 0.47479 0.93658 0.18311 0.0
C138 C 0.47718 0.9571 0.19702 0.0
C139 C 0.51201 0.98569 0.20318 0.0
C140 C 0.61785 0.06421 0.19595 0.0
C141 C 0.64792 0.07202 0.1857 0.0
C142 C 0.67317 0.10411 0.17954 0.0
C143 C 0.66932 0.12947 0.18365 0.0
C144 C 0.63744 0.12076 0.19285 0.0
C145 C 0.61162 0.08824 0.19869 0.0
C146 C 0.58412 0.02815 0.22961 0.0
C147 C 0.56261 0.99886 0.2389 0.0
C148 C 0.5589 1.00051 0.25693 0.0
C149 C 0.57662 0.03161 0.26616 0.0
C150 C 0.59841 0.06099 0.25678 0.0
C151 C 0.60258 0.05927 0.23875 0.0
P152 P 0.60878 0.55866 0.57625 0.0
H153 H 0.62086 0.54271 0.54133 0.0
H154 H 0.60057 0.49028 0.52616 0.0
H155 H 0.53178 0.43546 0.56985 0.0
H156 H 0.55094 0.48784 0.58453 0.0
H157 H 0.6486 0.6304 0.57534 0.0
H158 H 0.63328 0.66498 0.56338 0.0
H159 H 0.52595 0.57581 0.54507 0.0
H160 H 0.54146 0.54116 0.55744 0.0
H161 H 0.6207 0.52557 0.60231 0.0
H162 H 0.57697 0.5818 0.60097 0.0
O163 O 0.65502 0.58018 0.57469 0.0
H164 H 0.61256 0.52175 0.63389 0.0
H165 H 0.56911 0.5783 0.63259 0.0
C166 C 0.58804 0.51929 0.56419 0.0
C167 C 0.60092 0.51931 0.5475 0.0
C168 C 0.58954 0.4893 0.53892 0.0
C169 C 0.56511 0.45856 0.5469 0.0
C170 C 0.55057 0.45854 0.56325 0.0
C171 C 0.56179 0.48863 0.57176 0.0
C172 C 0.59654 0.58326 0.56691 0.0
C173 C 0.6219 0.61824 0.56861 0.0
C174 C 0.61311 0.63801 0.56171 0.0
C175 C 0.57859 0.62322 0.55301 0.0
C176 C 0.55277 0.58801 0.55168 0.0
C177 C 0.56168 0.56817 0.55862 0.0
C178 C 0.59903 0.55356 0.59923 0.0
C179 C 0.60889 0.53671 0.60878 0.0
C180 C 0.60421 0.53453 0.62682 0.0
C181 C 0.59012 0.54968 0.63572 0.0
C182 C 0.58023 0.56656 0.6261 0.0
C183 C 0.58452 0.56839 0.60799 0.0
P184 P 0.07338 0.54755 0.87826 0.0
H185 H 0.13216 0.57298 0.85155 0.0
H186 H 0.1806 0.566 0.84619 0.0
H187 H 0.12752 0.48549 0.88172 0.0
H188 H 0.07809 0.49173 0.88625 0.0
H189 H 0.05526 0.5905 0.86447 0.0
H190 H 0.99831 0.58429 0.86017 0.0
H191 H 0.93381 0.47848 0.86831 0.0
H192 H 0.99224 0.48558 0.87356 0.0
H193 H 0.12124 0.55076 0.90556 0.0
H194 H 1.01586 0.53544 0.90327 0.0
O195 O 0.10463 0.58909 0.87764 0.0
H196 H 0.11672 0.54658 0.93701 0.0
H197 H 1.01243 0.53352 0.93471 0.0
C198 C 0.10062 0.53307 0.86941 0.0
C199 C 0.13003 0.55302 0.85783 0.0
C200 C 0.15873 0.54941 0.85506 0.0
C201 C 0.15985 0.52574 0.86384 0.0
C202 C 0.1288 0.50419 0.87454 0.0
C203 C 0.0998 0.50761 0.87713 0.0
C204 C 0.02932 0.53852 0.86913 0.0
C205 C 0.02917 0.56556 0.86496 0.0
C206 C 0.99566 0.56188 0.86244 0.0
C207 C 0.9599 0.53076 0.8638 0.0
C208 C 0.95999 0.5032 0.8673 0.0
C209 C 0.99388 0.50702 0.86996 0.0
C210 C 0.06785 0.54139 0.90162 0.0
C211 C 0.09655 0.54558 0.91167 0.0
C212 C 0.09435 0.54398 0.92985 0.0
C213 C 0.06402 0.53945 0.93862 0.0
C214 C 0.03569 0.53599 0.92854 0.0
C215 C 0.03764 0.53704 0.91032 0.0
P216 P 0.07797 0.50243 0.42938 0.0
H217 H 0.14477 0.53522 0.45192 0.0
H218 H 0.19034 0.59312 0.46256 0.0
H219 H 0.11866 0.61671 0.44385 0.0
H220 H 0.07329 0.55845 0.43288 0.0
H221 H 0.05291 0.43876 0.44318 0.0
H222 H 0.99309 0.3912 0.45329 0.0
H223 H 0.94817 0.44622 0.4489 0.0
H224 H 1.0086 0.49388 0.43817 0.0
H225 H 0.12134 0.55666 0.40545 0.0
H226 H 1.01488 0.45842 0.40454 0.0
O227 O 0.10448 0.48959 0.427 0.0
H228 H 0.1121 0.56173 0.37484 0.0
H229 H 1.00533 0.46348 0.3739 0.0
C230 C 0.10583 0.54256 0.44136 0.0
C231 C 0.13841 0.55261 0.4504 0.0
C232 C 0.16453 0.58589 0.45655 0.0
C233 C 0.15859 0.60989 0.45385 0.0
C234 C 0.12457 0.59911 0.44584 0.0
C235 C 0.09836 0.5657 0.43973 0.0
C236 C 0.0354 0.47004 0.43994 0.0
C237 C 0.0305 0.44097 0.44462 0.0
C238 C 0.99606 0.41363 0.45052 0.0
C239 C 0.96549 0.41461 0.45195 0.0
C240 C 0.97086 0.44431 0.44777 0.0
C241 C 1.00552 0.47177 0.44182 0.0
C242 C 0.06827 0.50763 0.40752 0.0
C243 C 0.09547 0.53654 0.39883 0.0
C244 C 0.09017 0.53941 0.38128 0.0
C245 C 0.05786 0.5131 0.37194 0.0
C246 C 0.03058 0.48416 0.3807 0.0
C247 C 0.03584 0.48139 0.3983 0.0
P248 P 0.60621 0.05043 0.75769 0.0
H249 H 0.63498 0.09998 0.78678 0.0
H250 H 0.61156 0.12791 0.8011 0.0
H251 H 0.50821 0.06382 0.77089 0.0
H252 H 0.53256 0.03658 0.7562 0.0
H253 H 0.6296 0.01081 0.74548 0.0
H254 H 0.61605 0.95861 0.75437 0.0
H255 H 0.5403 0.94986 0.79298 0.0
H256 H 0.5549 0.00294 0.78418 0.0
H257 H 0.64186 0.09885 0.73051 0.0
H258 H 0.54512 0.99612 0.73484 0.0
O259 O 0.65266 0.07775 0.76014 0.0
H260 H 0.62838 0.09508 0.69932 0.0
H261 H 0.53168 0.99194 0.70354 0.0
C262 C 0.58577 0.0666 0.77021 0.0
C263 C 0.60713 0.09167 0.78334 0.0
C264 C 0.59352 0.10751 0.79164 0.0
C265 C 0.55803 0.09837 0.78709 0.0
C266 C 0.53593 0.07196 0.7745 0.0
C267 C 0.54968 0.05619 0.76616 0.0
C268 C 0.59328 0.0107 0.76415 0.0
C269 C 0.6099 0.99756 0.7558 0.0
C270 C 0.60188 0.96752 0.76082 0.0
C271 C 0.57685 0.9498 0.77433 0.0
C272 C 0.55991 0.96297 0.78263 0.0
C273 C 0.56806 0.99322 0.77755 0.0
C274 C 0.59496 0.04756 0.73487 0.0
C275 C 0.61779 0.07542 0.72471 0.0
C276 C 0.61013 0.07318 0.70687 0.0
C277 C 0.57921 0.04308 0.69889 0.0
C278 C 0.55564 0.01551 0.70928 0.0
C279 C 0.56343 0.01777 0.72715 0.0
P280 P 0.41319 0.32843 0.10018 0.0
H281 H 0.41381 0.29889 0.13182 0.0
H282 H 0.46402 0.30325 0.14758 0.0
H283 H 0.5395 0.35957 0.10599 0.0
H284 H 0.48971 0.35538 0.0905 0.0
H285 H 0.35346 0.33055 0.11373 0.0
H286 H 0.35452 0.37619 0.12712 0.0
H287 H 0.47538 0.4411 0.12724 0.0
H288 H 0.47416 0.39529 0.11394 0.0
H289 H 0.42353 0.29921 0.0691 0.0
H290 H 0.42603 0.38501 0.08202 0.0
O291 O 0.37127 0.29122 0.10076 0.0
H292 H 0.44208 0.31798 0.03927 0.0
H293 H 0.44583 0.40436 0.05293 0.0
C294 C 0.44778 0.32609 0.10982 0.0
C295 C 0.44095 0.31139 0.12592 0.0
C296 C 0.46964 0.31409 0.13496 0.0
C297 C 0.50555 0.33152 0.12795 0.0
C298 C 0.5119 0.34535 0.11155 0.0
C299 C 0.48336 0.34292 0.10264 0.0
C300 C 0.41369 0.35945 0.11306 0.0
C301 C 0.38016 0.35429 0.11708 0.0
C302 C 0.38084 0.38037 0.12475 0.0
C303 C 0.41508 0.41214 0.12823 0.0
C304 C 0.44865 0.41688 0.12468 0.0
C305 C 0.44795 0.39067 0.11721 0.0
C306 C 0.42377 0.34079 0.0779 0.0
C307 C 0.42795 0.32196 0.06553 0.0
C308 C 0.43883 0.33287 0.04855 0.0
C309 C 0.44554 0.36274 0.04369 0.0
C310 C 0.44039 0.38099 0.05608 0.0
C311 C 0.42941 0.37003 0.07293 0.0
H312 H 0.29024 0.57894 0.12557 0.0
H313 H 0.34661 0.58164 0.12696 0.0
H314 H 0.29494 0.5062 0.16535 0.0
H315 H 0.23925 0.50397 0.16425 0.0
H316 H 0.37062 0.54975 0.17076 0.0
H317 H 0.28095 0.48376 0.12209 0.0
H318 H 0.24566 0.47754 0.09575 0.0
H319 H 0.34858 0.55087 0.07079 0.0
H320 H 0.38443 0.5578 0.09712 0.0
H321 H 0.37543 0.41486 0.15442 0.0
H322 H 0.3673 0.45831 0.16011 0.0
H323 H 0.44634 0.51711 0.12019 0.0
H324 H 0.45446 0.47357 0.1144 0.0
H325 H 0.37873 0.50288 0.11424 0.0
H326 H 0.46649 0.55079 0.16086 0.0
H327 H 0.49882 0.55297 0.18731 0.0
H328 H 0.39873 0.511 0.21647 0.0
H329 H 0.36556 0.50805 0.19014 0.0
C330 C 0.29153 0.56379 0.1347 0.0
C331 C 0.26024 0.54073 0.14454 0.0
C332 C 0.32365 0.56532 0.13547 0.0
C333 C 0.32467 0.54372 0.14606 0.0
C334 C 0.29476 0.52305 0.15708 0.0
C335 C 0.26279 0.5215 0.1563 0.0
C336 C 0.35314 0.53798 0.14369 0.0
C337 C 0.37282 0.5398 0.1584 0.0
C338 C 0.35676 0.5259 0.12743 0.0
C339 C 0.33529 0.52163 0.11161 0.0
C340 C 0.296 0.4987 0.11101 0.0
C341 C 0.27591 0.49503 0.0961 0.0
C342 C 0.29486 0.51388 0.08162 0.0
C343 C 0.33394 0.53637 0.08203 0.0
C344 C 0.35416 0.54019 0.09694 0.0
C345 C 0.3917 0.43742 0.14716 0.0
C346 C 0.41535 0.4408 0.13391 0.0
C347 C 0.38736 0.46239 0.15052 0.0
C348 C 0.40643 0.49105 0.14064 0.0
C349 C 0.43164 0.49532 0.12805 0.0
C350 C 0.43628 0.47048 0.1248 0.0
C351 C 0.39494 0.51314 0.14151 0.0
C352 C 0.37818 0.51423 0.12648 0.0
C353 C 0.39379 0.52751 0.15751 0.0
C354 C 0.41348 0.52912 0.17346 0.0
C355 C 0.45126 0.54179 0.17287 0.0
C356 C 0.46976 0.5432 0.18786 0.0
C357 C 0.45083 0.53212 0.20356 0.0
C358 C 0.41336 0.51962 0.2043 0.0
C359 C 0.39471 0.51813 0.18935 0.0
H360 H 0.46521 0.53324 0.21515 0.0
H361 H 0.27927 0.511 0.07008 0.0
H362 H 0.6247 0.14441 0.46523 0.0
H363 H 0.68272 0.20024 0.46133 0.0
H364 H 0.74269 0.17721 0.49291 0.0
H365 H 0.68451 0.12121 0.49707 0.0
H366 H 0.76477 0.24049 0.50068 0.0
H367 H 0.74638 0.17447 0.44856 0.0
H368 H 0.71053 0.1371 0.42281 0.0
H369 H 0.70279 0.21123 0.40278 0.0
H370 H 0.73818 0.2489 0.42854 0.0
H371 H 0.94993 0.36895 0.47604 0.0
H372 H 0.88966 0.31647 0.48209 0.0
H373 H 0.83516 0.33874 0.44601 0.0
H374 H 0.89579 0.39057 0.43915 0.0
H375 H 0.80871 0.27649 0.44066 0.0
H376 H 0.82788 0.34332 0.49174 0.0
H377 H 0.86168 0.38082 0.51771 0.0
H378 H 0.86592 0.30617 0.53993 0.0
H379 H 0.83257 0.26837 0.51398 0.0
C380 C 0.65013 0.15116 0.47145 0.0
C381 C 0.64986 0.12811 0.48141 0.0
C382 C 0.68339 0.18315 0.46913 0.0
C383 C 0.71727 0.19286 0.47661 0.0
C384 C 0.71695 0.17029 0.48697 0.0
C385 C 0.68364 0.13822 0.4893 0.0
C386 C 0.75308 0.22625 0.4733 0.0
C387 C 0.77464 0.24822 0.48757 0.0
C388 C 0.76546 0.23681 0.45618 0.0
C389 C 0.7447 0.21441 0.44054 0.0
C390 C 0.73686 0.18274 0.43871 0.0
C391 C 0.71665 0.16151 0.42411 0.0
C392 C 0.70441 0.1718 0.41117 0.0
C393 C 0.71235 0.20333 0.41281 0.0
C394 C 0.73251 0.22464 0.42739 0.0
C395 C 0.92522 0.36274 0.46931 0.0
C396 C 0.92801 0.38416 0.45701 0.0
C397 C 0.89054 0.33277 0.47297 0.0
C398 C 0.85754 0.32358 0.46468 0.0
C399 C 0.86009 0.34517 0.45264 0.0
C400 C 0.89485 0.37508 0.44886 0.0
C401 C 0.82072 0.2909 0.46807 0.0
C402 C 0.7989 0.26895 0.4538 0.0
C403 C 0.80797 0.28048 0.4852 0.0
C404 C 0.82802 0.30313 0.50084 0.0
C405 C 0.83627 0.335 0.5021 0.0
C406 C 0.85531 0.35629 0.51683 0.0
C407 C 0.86602 0.34591 0.53044 0.0
C408 C 0.85764 0.31419 0.52937 0.0
C409 C 0.83864 0.2928 0.51466 0.0
H410 H 0.88075 0.36243 0.54184 0.0
H411 H 0.6888 0.15535 0.39987 0.0
H412 H 0.5753 0.72461 0.84888 0.0
H413 H 0.56675 0.76532 0.83916 0.0
H414 H 0.57417 0.74052 0.78557 0.0
H415 H 0.58351 0.70019 0.79523 0.0
H416 H 0.61876 0.80736 0.7924 0.0
H417 H 0.49116 0.7158 0.80178 0.0
H418 H 0.43786 0.67058 0.81814 0.0
H419 H 0.45487 0.74265 0.85722 0.0
H420 H 0.50867 0.78832 0.84122 0.0
H421 H 0.56797 0.89947 0.75368 0.0
H422 H 0.56381 0.85144 0.7629 0.0
H423 H 0.56466 0.88015 0.81678 0.0
H424 H 0.56965 0.92884 0.80768 0.0
H425 H 0.51394 0.81025 0.80949 0.0
H426 H 0.64307 0.90115 0.80072 0.0
H427 H 0.69657 0.94633 0.78443 0.0
H428 H 0.6764 0.87468 0.7442 0.0
H429 H 0.62237 0.8291 0.76014 0.0
C430 C 0.57506 0.72778 0.83502 0.0
C431 C 0.58025 0.70925 0.82283 0.0
C432 C 0.56982 0.75085 0.82947 0.0
C433 C 0.56956 0.75584 0.81162 0.0
C434 C 0.57418 0.73703 0.7994 0.0
C435 C 0.57925 0.71382 0.80494 0.0
C436 C 0.5665 0.78195 0.80579 0.0
C437 C 0.59548 0.80762 0.79589 0.0
C438 C 0.53665 0.78284 0.81074 0.0
C439 C 0.5042 0.75547 0.82038 0.0
C440 C 0.48375 0.722 0.81394 0.0
C441 C 0.45341 0.69628 0.82313 0.0
C442 C 0.44305 0.70373 0.83873 0.0
C443 C 0.46296 0.73692 0.84514 0.0
C444 C 0.49336 0.76274 0.83601 0.0
C445 C 0.56727 0.89565 0.7675 0.0
C446 C 0.56971 0.91837 0.77994 0.0
C447 C 0.56469 0.86804 0.77274 0.0
C448 C 0.56441 0.86246 0.79053 0.0
C449 C 0.56483 0.88401 0.80298 0.0
C450 C 0.56759 0.91179 0.79775 0.0
C451 C 0.56608 0.83541 0.79606 0.0
C452 C 0.53702 0.80975 0.80594 0.0
C453 C 0.59585 0.83444 0.79111 0.0
C454 C 0.62843 0.86177 0.78153 0.0
C455 C 0.64984 0.89507 0.78833 0.0
C456 C 0.68029 0.92074 0.77917 0.0
C457 C 0.68981 0.9134 0.76326 0.0
C458 C 0.66895 0.88034 0.75651 0.0
C459 C 0.63842 0.85457 0.7656 0.0
H460 H 0.71341 0.93331 0.7562 0.0
H461 H 0.41953 0.68377 0.84582 0.0
H462 H 0.82506 0.4319 0.18766 0.0
H463 H 0.75691 0.39671 0.18378 0.0
H464 H 0.76087 0.48465 0.18815 0.0
H465 H 0.82898 0.51999 0.19193 0.0
H466 H 0.69117 0.38674 0.19992 0.0
H467 H 0.71832 0.48064 0.15045 0.0
H468 H 0.77039 0.52567 0.1334 0.0
H469 H 0.82072 0.4753 0.13184 0.0
H470 H 0.76861 0.42972 0.14857 0.0
H471 H 0.52359 0.35241 0.16227 0.0
H472 H 0.58206 0.37326 0.17758 0.0
H473 H 0.6182 0.34743 0.13202 0.0
H474 H 0.55983 0.32659 0.11664 0.0
H475 H 0.66746 0.41195 0.14203 0.0
H476 H 0.59934 0.30679 0.16961 0.0
H477 H 0.54814 0.26071 0.18646 0.0
H478 H 0.57902 0.32906 0.23051 0.0
H479 H 0.63011 0.37565 0.21385 0.0
C480 C 0.81121 0.44359 0.18828 0.0
C481 C 0.83221 0.47865 0.18979 0.0
C482 C 0.77233 0.42346 0.18624 0.0
C483 C 0.7541 0.4382 0.18551 0.0
C484 C 0.77461 0.47292 0.18868 0.0
C485 C 0.81346 0.49304 0.19083 0.0
C486 C 0.71567 0.41851 0.17811 0.0
C487 C 0.68575 0.39222 0.18733 0.0
C488 C 0.70901 0.42535 0.16151 0.0
C489 C 0.73981 0.45202 0.15092 0.0
C490 C 0.74041 0.47912 0.14637 0.0
C491 C 0.76992 0.50473 0.13677 0.0
C492 C 0.79891 0.5034 0.13159 0.0
C493 C 0.79832 0.47635 0.1359 0.0
C494 C 0.76881 0.45064 0.14544 0.0
C495 C 0.54352 0.35025 0.15571 0.0
C496 C 0.53738 0.33817 0.13822 0.0
C497 C 0.57692 0.36218 0.16448 0.0
C498 C 0.60448 0.36196 0.15591 0.0
C499 C 0.59733 0.34796 0.13882 0.0
C500 C 0.56408 0.33615 0.13005 0.0
C501 C 0.64239 0.38 0.16383 0.0
C502 C 0.67249 0.40626 0.15467 0.0
C503 C 0.649 0.37276 0.18036 0.0
C504 C 0.61835 0.34477 0.19042 0.0
C505 C 0.59502 0.31205 0.18284 0.0
C506 C 0.56606 0.28583 0.19237 0.0
C507 C 0.56027 0.29197 0.20953 0.0
C508 C 0.58351 0.32434 0.21722 0.0
C509 C 0.61251 0.35066 0.20774 0.0
H510 H 0.53783 0.27163 0.21689 0.0
H511 H 0.82178 0.5233 0.1242 0.0
H512 H 0.4591 0.90728 0.49969 0.0
H513 H 0.40401 0.84871 0.49693 0.0
H514 H 0.36696 0.86959 0.45134 0.0
H515 H 0.4213 0.92859 0.4545 0.0
H516 H 0.30976 0.83027 0.47011 0.0
H517 H 0.41089 0.82867 0.45019 0.0
H518 H 0.47215 0.8395 0.4525 0.0
H519 H 0.43597 0.77975 0.49744 0.0
H520 H 0.37459 0.76886 0.49551 0.0
H521 H 0.18002 0.66369 0.43485 0.0
H522 H 0.23268 0.72251 0.44062 0.0
H523 H 0.25979 0.69754 0.48802 0.0
H524 H 0.20687 0.63854 0.48241 0.0
H525 H 0.32154 0.7383 0.46969 0.0
H526 H 0.22013 0.73833 0.4891 0.0
H527 H 0.15871 0.72716 0.48693 0.0
H528 H 0.1956 0.78978 0.44314 0.0
H529 H 0.25711 0.80097 0.4449 0.0
C530 C 0.43923 0.89944 0.48906 0.0
C531 C 0.44472 0.92267 0.47727 0.0
C532 C 0.40777 0.86578 0.48743 0.0
C533 C 0.38147 0.85432 0.4737 0.0
C534 C 0.38676 0.87762 0.46203 0.0
C535 C 0.41793 0.91141 0.46382 0.0
C536 C 0.34826 0.81826 0.47159 0.0
C537 C 0.3125 0.81024 0.46977 0.0
C538 C 0.35141 0.79182 0.47169 0.0
C539 C 0.38824 0.79818 0.47278 0.0
C540 C 0.41606 0.818 0.46062 0.0
C541 C 0.45079 0.82411 0.46185 0.0
C542 C 0.45793 0.81031 0.47511 0.0
C543 C 0.43036 0.79038 0.48717 0.0
C544 C 0.39559 0.7842 0.486 0.0
C545 C 0.19664 0.6707 0.44671 0.0
C546 C 0.18894 0.64621 0.45819 0.0
C547 C 0.22695 0.70444 0.44996 0.0
C548 C 0.25021 0.71464 0.46483 0.0
C549 C 0.2424 0.69035 0.47643 0.0
C550 C 0.21208 0.65657 0.47318 0.0
C551 C 0.28324 0.75046 0.46799 0.0
C552 C 0.3189 0.75839 0.47004 0.0
C553 C 0.28005 0.77683 0.4681 0.0
C554 C 0.24312 0.77024 0.46704 0.0
C555 C 0.21506 0.74952 0.47892 0.0
C556 C 0.18024 0.74321 0.47778 0.0
C557 C 0.17323 0.75769 0.46488 0.0
C558 C 0.20106 0.77856 0.45312 0.0
C559 C 0.23592 0.78492 0.45419 0.0
H560 H 0.14625 0.75278 0.46402 0.0
H561 H 0.48482 0.81506 0.47604 0.0
H562 H 0.46622 0.29397 0.81963 0.0
H563 H 0.47249 0.25043 0.81028 0.0
H564 H 0.5394 0.27276 0.85657 0.0
H565 H 0.53426 0.31713 0.86559 0.0
H566 H 0.57067 0.2663 0.83056 0.0
H567 H 0.44467 0.19973 0.85031 0.0
H568 H 0.37945 0.18013 0.8521 0.0
H569 H 0.36151 0.15052 0.79754 0.0
H570 H 0.42679 0.17036 0.79537 0.0
H571 H 0.56806 0.12405 0.82074 0.0
H572 H 0.55375 0.16123 0.83215 0.0
H573 H 0.50476 0.15366 0.78233 0.0
H574 H 0.51975 0.11713 0.77064 0.0
H575 H 0.46332 0.15104 0.81076 0.0
H576 H 0.59112 0.2197 0.79165 0.0
H577 H 0.65604 0.23833 0.79077 0.0
H578 H 0.66962 0.26274 0.84589 0.0
H579 H 0.60455 0.24378 0.84714 0.0
C580 C 0.48195 0.28931 0.82787 0.0
C581 C 0.49973 0.30888 0.84333 0.0
C582 C 0.48542 0.26432 0.82256 0.0
C583 C 0.50599 0.25784 0.83282 0.0
C584 C 0.52342 0.27721 0.84839 0.0
C585 C 0.52047 0.30255 0.85355 0.0
C586 C 0.51068 0.23188 0.82702 0.0
C587 C 0.54703 0.24096 0.82653 0.0
C588 C 0.48005 0.19889 0.82138 0.0
C589 C 0.44073 0.18681 0.82265 0.0
C590 C 0.42689 0.18925 0.83867 0.0
C591 C 0.3899 0.17807 0.83975 0.0
C592 C 0.36638 0.16416 0.82493 0.0
C593 C 0.37977 0.16133 0.809 0.0
C594 C 0.41675 0.17251 0.80784 0.0
C595 C 0.55425 0.13026 0.81218 0.0
C596 C 0.54542 0.11777 0.79469 0.0
C597 C 0.54594 0.15141 0.81876 0.0
C598 C 0.52858 0.16051 0.80803 0.0
C599 C 0.51813 0.14691 0.79084 0.0
C600 C 0.52661 0.12589 0.78421 0.0
C601 C 0.52312 0.18558 0.81444 0.0
C602 C 0.48675 0.17636 0.81495 0.0
C603 C 0.55365 0.21834 0.82029 0.0
C604 C 0.59286 0.23001 0.81952 0.0
C605 C 0.60786 0.2288 0.80361 0.0
C606 C 0.64469 0.23945 0.80304 0.0
C607 C 0.66691 0.25163 0.81827 0.0
C608 C 0.65236 0.25326 0.8341 0.0
C609 C 0.61552 0.24258 0.83475 0.0
H610 H 0.69542 0.25987 0.8178 0.0
H611 H 0.33775 0.15552 0.8258 0.0
H612 H 0.61993 0.87676 0.50342 0.0
H613 H 0.61029 0.82437 0.50793 0.0
H614 H 0.49597 0.77821 0.52195 0.0
H615 H 0.50578 0.83118 0.5179 0.0
H616 H 0.53087 0.76576 0.54515 0.0
H617 H 0.51433 0.75571 0.48359 0.0
H618 H 0.52892 0.7738 0.45334 0.0
H619 H 0.63198 0.78617 0.45735 0.0
H620 H 0.61832 0.76867 0.48773 0.0
H621 H 0.51236 0.61524 0.55378 0.0
H622 H 0.5003 0.65328 0.54312 0.0
H623 H 0.6136 0.71837 0.52516 0.0
H624 H 0.62537 0.68006 0.53519 0.0
H625 H 0.56638 0.7136 0.50199 0.0
H626 H 0.58725 0.73313 0.56483 0.0
H627 H 0.57372 0.71643 0.59535 0.0
H628 H 0.46232 0.68662 0.5887 0.0
H629 H 0.47508 0.70278 0.55805 0.0
C630 C 0.59271 0.85552 0.50749 0.0
C631 C 0.56375 0.85831 0.51047 0.0
C632 C 0.5871 0.82541 0.50987 0.0
C633 C 0.55231 0.79721 0.51515 0.0
C634 C 0.52303 0.79963 0.51783 0.0
C635 C 0.52861 0.82985 0.51541 0.0
C636 C 0.54764 0.76603 0.51873 0.0
C637 C 0.53776 0.75384 0.53557 0.0
C638 C 0.55711 0.75072 0.50633 0.0
C639 C 0.56536 0.76102 0.48799 0.0
C640 C 0.54022 0.76249 0.47807 0.0
C641 C 0.54832 0.77262 0.46089 0.0
C642 C 0.58137 0.78116 0.45344 0.0
C643 C 0.60637 0.77954 0.46314 0.0
C644 C 0.59844 0.76946 0.48034 0.0
C645 C 0.53449 0.63738 0.5473 0.0
C646 C 0.56998 0.64479 0.54552 0.0
C647 C 0.52765 0.65924 0.54134 0.0
C648 C 0.55622 0.68897 0.53356 0.0
C649 C 0.59115 0.69569 0.53117 0.0
C650 C 0.59796 0.67389 0.53708 0.0
C651 C 0.55073 0.71405 0.52854 0.0
C652 C 0.55872 0.72508 0.51143 0.0
C653 C 0.53955 0.72833 0.54069 0.0
C654 C 0.53196 0.71877 0.55911 0.0
C655 C 0.55979 0.72278 0.56985 0.0
C656 C 0.55227 0.71346 0.58717 0.0
C657 C 0.51714 0.70037 0.59394 0.0
C658 C 0.48949 0.69669 0.58342 0.0
C659 C 0.49685 0.70594 0.56608 0.0
H660 H 0.51138 0.69317 0.60736 0.0
H661 H 0.58759 0.789 0.44013 0.0
H662 H 0.69523 0.5713 0.84399 0.0
H663 H 0.75008 0.57178 0.84555 0.0
H664 H 0.68208 0.47343 0.86605 0.0
H665 H 0.62713 0.47286 0.86452 0.0
H666 H 0.74782 0.5096 0.88342 0.0
H667 H 0.71524 0.48962 0.82231 0.0
H668 H 0.70132 0.50116 0.79379 0.0
H669 H 0.81028 0.59628 0.79448 0.0
H670 H 0.82466 0.58549 0.82312 0.0
H671 H 0.88771 0.48282 0.87658 0.0
H672 H 0.83138 0.47941 0.87427 0.0
H673 H 0.89182 0.56961 0.84581 0.0
H674 H 0.94722 0.57174 0.8468 0.0
H675 H 0.82856 0.53657 0.83249 0.0
H676 H 0.86151 0.55922 0.89347 0.0
H677 H 0.87635 0.55014 0.92249 0.0
H678 H 0.76886 0.45378 0.92284 0.0
H679 H 0.75355 0.46213 0.89373 0.0
C680 C 0.69165 0.54961 0.8488 0.0
C681 C 0.6559 0.52197 0.85402 0.0
C682 C 0.72342 0.54984 0.84962 0.0
C683 C 0.72112 0.52248 0.85576 0.0
C684 C 0.68551 0.49505 0.86121 0.0
C685 C 0.65367 0.49469 0.86025 0.0
C686 C 0.75542 0.52246 0.85654 0.0
C687 C 0.76506 0.5151 0.87214 0.0
C688 C 0.77939 0.53041 0.84218 0.0
C689 C 0.77088 0.53688 0.82494 0.0
C690 C 0.73613 0.5131 0.81643 0.0
C691 C 0.72817 0.51949 0.80024 0.0
C692 C 0.75486 0.54947 0.79235 0.0
C693 C 0.78961 0.57309 0.80062 0.0
C694 C 0.79769 0.56683 0.81683 0.0
C695 C 0.8894 0.5019 0.86958 0.0
C696 C 0.9236 0.52785 0.86211 0.0
C697 C 0.85666 0.50023 0.86853 0.0
C698 C 0.85637 0.52476 0.86026 0.0
C699 C 0.89019 0.55022 0.85247 0.0
C700 C 0.92271 0.55166 0.8533 0.0
C701 C 0.82139 0.52396 0.85946 0.0
C702 C 0.81151 0.53113 0.84383 0.0
C703 C 0.79747 0.51625 0.87387 0.0
C704 C 0.80657 0.51115 0.89135 0.0
C705 C 0.84115 0.536 0.89969 0.0
C706 C 0.84962 0.531 0.91616 0.0
C707 C 0.82361 0.50136 0.92448 0.0
C708 C 0.78901 0.4767 0.91637 0.0
C709 C 0.78041 0.48156 0.89989 0.0
H710 H 0.83023 0.49753 0.93723 0.0
H711 H 0.74865 0.55438 0.77981 0.0
H712 H 0.13496 0.6653 0.16746 0.0
H713 H 0.19465 0.72152 0.16988 0.0
H714 H 0.25314 0.68094 0.15519 0.0
H715 H 0.19353 0.62461 0.15261 0.0
H716 H 0.28513 0.72542 0.18444 0.0
H717 H 0.24449 0.72182 0.12644 0.0
H718 H 0.20004 0.71239 0.10379 0.0
H719 H 0.19785 0.7896 0.12833 0.0
H720 H 0.24186 0.7991 0.15134 0.0
H721 H 0.46297 0.87764 0.17334 0.0
H722 H 0.40369 0.82268 0.16736 0.0
H723 H 0.34425 0.86414 0.17692 0.0
H724 H 0.40381 0.91982 0.18213 0.0
H725 H 0.31244 0.81889 0.14988 0.0
H726 H 0.3522 0.82163 0.20828 0.0
H727 H 0.39586 0.8302 0.23118 0.0
H728 H 0.39901 0.75395 0.20604 0.0
H729 H 0.35575 0.74524 0.18284 0.0
C730 C 0.16048 0.66829 0.16469 0.0
C731 C 0.1594 0.64039 0.15981 0.0
C732 C 0.19459 0.7005 0.16602 0.0
C733 C 0.22836 0.70548 0.16263 0.0
C734 C 0.22742 0.67769 0.15785 0.0
C735 C 0.19328 0.64551 0.15631 0.0
C736 C 0.26469 0.73962 0.16439 0.0
C737 C 0.29134 0.74575 0.17671 0.0
C738 C 0.27241 0.76634 0.1546 0.0
C739 C 0.24618 0.76093 0.14072 0.0
C740 C 0.23429 0.7366 0.1271 0.0
C741 C 0.20921 0.73127 0.11417 0.0
C742 C 0.19605 0.75033 0.11463 0.0
C743 C 0.20803 0.77482 0.128 0.0
C744 C 0.23307 0.7802 0.14099 0.0
C745 C 0.43746 0.8754 0.17382 0.0
C746 C 0.43842 0.90342 0.17828 0.0
C747 C 0.40341 0.84372 0.17061 0.0
C748 C 0.36934 0.83902 0.17201 0.0
C749 C 0.37012 0.86703 0.17587 0.0
C750 C 0.40425 0.89885 0.179 0.0
C751 C 0.33303 0.80476 0.16996 0.0
C752 C 0.30631 0.79859 0.15761 0.0
C753 C 0.32516 0.77795 0.17975 0.0
C754 C 0.35102 0.78302 0.19374 0.0
C755 C 0.36241 0.80686 0.20757 0.0
C756 C 0.38706 0.81172 0.22061 0.0
C757 C 0.40027 0.7927 0.22004 0.0
C758 C 0.38879 0.7687 0.20645 0.0
C759 C 0.36419 0.76377 0.19336 0.0
H760 H 0.41935 0.7965 0.23015 0.0
H761 H 0.17663 0.74616 0.1046 0.0
H762 H 0.565 0.22066 0.47636 0.0
H763 H 0.57314 0.27153 0.48665 0.0
H764 H 0.46281 0.21151 0.50824 0.0
H765 H 0.45423 0.16048 0.49774 0.0
H766 H 0.47706 0.26541 0.49124 0.0
H767 H 0.53702 0.2454 0.53464 0.0
H768 H 0.58028 0.23465 0.54535 0.0
H769 H 0.67362 0.32792 0.52602 0.0
H770 H 0.63083 0.33901 0.51496 0.0
H771 H 0.49863 0.39464 0.54631 0.0
H772 H 0.48677 0.34298 0.53442 0.0
H773 H 0.60034 0.39952 0.51673 0.0
H774 H 0.61292 0.4509 0.52927 0.0
H775 H 0.58314 0.34638 0.53187 0.0
H776 H 0.52391 0.36675 0.48831 0.0
H777 H 0.48101 0.37753 0.47708 0.0
H778 H 0.38699 0.28424 0.49607 0.0
H779 H 0.4294 0.27311 0.50763 0.0
C780 C 0.54228 0.21827 0.48312 0.0
C781 C 0.50902 0.18649 0.4863 0.0
C782 C 0.54708 0.24737 0.4891 0.0
C783 C 0.51873 0.24533 0.49838 0.0
C784 C 0.4851 0.21368 0.50116 0.0
C785 C 0.48036 0.18456 0.49527 0.0
C786 C 0.52455 0.27618 0.50554 0.0
C787 C 0.49997 0.28295 0.50029 0.0
C788 C 0.55487 0.29937 0.51708 0.0
C789 C 0.58068 0.29288 0.52382 0.0
C790 C 0.56674 0.2635 0.53255 0.0
C791 C 0.59118 0.25736 0.53871 0.0
C792 C 0.62966 0.28055 0.53633 0.0
C793 C 0.6438 0.30996 0.52783 0.0
C794 C 0.61947 0.3162 0.52163 0.0
C795 C 0.52115 0.3961 0.53995 0.0
C796 C 0.55673 0.4271 0.53872 0.0
C797 C 0.5142 0.36653 0.53298 0.0
C798 C 0.54254 0.36731 0.52449 0.0
C799 C 0.57796 0.39821 0.52316 0.0
C800 C 0.58498 0.4277 0.53019 0.0
C801 C 0.53585 0.33593 0.51746 0.0
C802 C 0.56023 0.32896 0.52279 0.0
C803 C 0.50542 0.31265 0.50594 0.0
C804 C 0.47987 0.31927 0.499 0.0
C805 C 0.49411 0.34867 0.49022 0.0
C806 C 0.46988 0.35481 0.48377 0.0
C807 C 0.43131 0.33163 0.4859 0.0
C808 C 0.41688 0.3022 0.49445 0.0
C809 C 0.441 0.29595 0.50094 0.0
H810 H 0.4126 0.33643 0.48089 0.0
H811 H 0.64854 0.27575 0.5411 0.0
H812 H 0.41274 0.4664 0.86143 0.0
H813 H 0.35908 0.46756 0.86319 0.0
H814 H 0.42843 0.56966 0.84765 0.0
H815 H 0.48242 0.56883 0.84635 0.0
H816 H 0.38526 0.56701 0.87037 0.0
H817 H 0.35507 0.49457 0.82005 0.0
H818 H 0.34404 0.4463 0.80321 0.0
H819 H 0.25548 0.37888 0.83736 0.0
H820 H 0.26629 0.4268 0.85454 0.0
H821 H 0.23442 0.57597 0.85508 0.0
H822 H 0.28704 0.57407 0.85248 0.0
H823 H 0.21739 0.47169 0.86743 0.0
H824 H 0.16368 0.47259 0.86896 0.0
H825 H 0.26086 0.47456 0.84493 0.0
H826 H 0.29185 0.54812 0.89528 0.0
H827 H 0.30347 0.59699 0.91173 0.0
H828 H 0.39125 0.66308 0.87693 0.0
H829 H 0.37983 0.61458 0.86013 0.0
C830 C 0.41679 0.48917 0.85828 0.0
C831 C 0.45267 0.51744 0.85364 0.0
C832 C 0.38557 0.48978 0.85918 0.0
C833 C 0.38843 0.51854 0.85527 0.0
C834 C 0.42441 0.54688 0.85076 0.0
C835 C 0.45568 0.54634 0.84994 0.0
C836 C 0.35458 0.51935 0.85612 0.0
C837 C 0.35831 0.54685 0.86453 0.0
C838 C 0.31836 0.49312 0.84898 0.0
C839 C 0.31175 0.46428 0.83868 0.0
C840 C 0.33341 0.46946 0.82403 0.0
C841 C 0.32718 0.44216 0.81442 0.0
C842 C 0.29915 0.40955 0.81924 0.0
C843 C 0.27722 0.40416 0.83366 0.0
C844 C 0.28337 0.43137 0.84333 0.0
C845 C 0.22952 0.55263 0.85762 0.0
C846 C 0.19341 0.52443 0.86227 0.0
C847 C 0.26052 0.5518 0.85642 0.0
C848 C 0.25759 0.52296 0.86013 0.0
C849 C 0.22155 0.49462 0.86455 0.0
C850 C 0.19037 0.49532 0.86562 0.0
C851 C 0.29148 0.52219 0.85924 0.0
C852 C 0.28779 0.49471 0.85079 0.0
C853 C 0.3278 0.54852 0.86629 0.0
C854 C 0.33472 0.5777 0.87636 0.0
C855 C 0.31346 0.57307 0.89107 0.0
C856 C 0.32003 0.6007 0.90046 0.0
C857 C 0.348 0.63311 0.89534 0.0
C858 C 0.36954 0.63796 0.88085 0.0
C859 C 0.36305 0.61041 0.8714 0.0
H860 H 0.35305 0.65447 0.90263 0.0
H861 H 0.29436 0.38845 0.81178 0.0
H862 H 0.97832 0.41242 0.151 0.0
H863 H 0.92202 0.35534 0.15436 0.0
H864 H 0.85759 0.39237 0.16271 0.0
H865 H 0.9145 0.44967 0.16048 0.0
H866 H 0.83479 0.34814 0.18389 0.0
H867 H 0.85362 0.34743 0.12291 0.0
H868 H 0.8877 0.356 0.09581 0.0
H869 H 0.90634 0.28585 0.111 0.0
H870 H 0.8728 0.27718 0.13831 0.0
H871 H 0.66268 0.17852 0.1746 0.0
H872 H 0.71301 0.23679 0.16824 0.0
H873 H 0.79453 0.21905 0.17556 0.0
H874 H 0.74513 0.16165 0.18278 0.0
H875 H 0.8034 0.25317 0.14442 0.0
H876 H 0.7847 0.25795 0.20678 0.0
H877 H 0.74689 0.24939 0.23244 0.0
H878 H 0.72251 0.31247 0.21173 0.0
H879 H 0.75976 0.321 0.18581 0.0
C880 C 0.95207 0.40835 0.15339 0.0
C881 C 0.95085 0.43559 0.15536 0.0
C882 C 0.91971 0.37558 0.15521 0.0
C883 C 0.885 0.36909 0.15842 0.0
C884 C 0.88379 0.3964 0.16022 0.0
C885 C 0.91638 0.42925 0.15887 0.0
C886 C 0.85046 0.33407 0.16061 0.0
C887 C 0.82769 0.32759 0.175 0.0
C888 C 0.84083 0.30683 0.14917 0.0
C889 C 0.86093 0.31186 0.13273 0.0
C890 C 0.86519 0.33399 0.12053 0.0
C891 C 0.88439 0.33885 0.10512 0.0
C892 C 0.89924 0.32154 0.1017 0.0
C893 C 0.89484 0.29926 0.11367 0.0
C894 C 0.8757 0.29434 0.1291 0.0
C895 C 0.69129 0.18699 0.17505 0.0
C896 C 0.69948 0.16492 0.17912 0.0
C897 C 0.72004 0.22032 0.17129 0.0
C898 C 0.75753 0.23223 0.17138 0.0
C899 C 0.76578 0.21032 0.17525 0.0
C900 C 0.73727 0.17727 0.17924 0.0
C901 C 0.78851 0.2676 0.16771 0.0
C902 C 0.8105 0.274 0.15308 0.0
C903 C 0.79685 0.29482 0.17865 0.0
C904 C 0.77461 0.28976 0.19426 0.0
C905 C 0.77098 0.26973 0.20762 0.0
C906 C 0.74971 0.26494 0.22222 0.0
C907 C 0.7322 0.28028 0.22369 0.0
C908 C 0.73602 0.30054 0.21056 0.0
C909 C 0.75721 0.30537 0.19592 0.0
H910 H 0.71576 0.27655 0.23501 0.0
H911 H 0.9141 0.32533 0.08977 0.0
H912 H 0.05165 0.5105 0.10735 0.0
H913 H 0.05858 0.50913 0.07573 0.0
H914 H 0.04047 0.58375 0.07128 0.0
H915 H 0.03649 0.58694 0.10299 0.0
H916 H 1.01787 0.49184 0.04952 0.0
H917 H 0.07989 0.62947 0.03648 0.0
H918 H 0.12027 0.68548 0.05137 0.0
H919 H 0.1712 0.6534 0.08254 0.0
H920 H 0.13149 0.59733 0.06766 0.0
H921 H 1.00202 0.50374 0.95928 0.0
H922 H 0.9997 0.50598 0.99099 0.0
H923 H 0.12022 0.57567 0.99427 0.0
H924 H 0.12267 0.57574 0.96256 0.0
H925 H 0.09586 0.59544 0.01675 0.0
H926 H 0.06779 0.4891 0.00353 0.0
H927 H 0.03539 0.43291 0.98916 0.0
H928 H 0.93165 0.40246 0.01141 0.0
H929 H 0.96334 0.45863 0.02573 0.0
C930 C 0.04961 0.52687 0.0996 0.0
C931 C 0.04408 0.54917 0.10763 0.0
C932 C 0.05333 0.52595 0.08149 0.0
C933 C 0.05081 0.54679 0.07096 0.0
C934 C 0.04387 0.5682 0.07901 0.0
C935 C 0.04126 0.56983 0.09717 0.0
C936 C 0.05495 0.54581 0.05162 0.0
C937 C 0.03504 0.51456 0.04241 0.0
C938 C 0.078 0.5753 0.04219 0.0
C939 C 0.10245 0.6091 0.05105 0.0
C940 C 0.09983 0.63441 0.04645 0.0
C941 C 0.12258 0.66616 0.0549 0.0
C942 C 0.14821 0.67296 0.06792 0.0
C943 C 0.15125 0.64806 0.07248 0.0
C944 C 0.12861 0.61629 0.06405 0.0
C945 C 0.0281 0.51993 0.96667 0.0
C946 C 0.06256 0.53951 0.95815 0.0
C947 C 1.02674 0.52077 0.98491 0.0
C948 C 0.05982 0.54056 0.99518 0.0
C949 C 0.09424 0.56007 0.98674 0.0
C950 C 0.0956 0.5597 0.9685 0.0
C951 C 0.05853 0.5415 0.01467 0.0
C952 C 0.07887 0.57274 0.02389 0.0
C953 C 0.03712 0.51199 0.02417 0.0
C954 C 1.01789 0.47818 0.01557 0.0
C955 C 0.03801 0.4705 0.00525 0.0
C956 C 1.01978 0.43864 0.99713 0.0
C957 C 0.98147 0.41416 -0.00067 0.0
C958 C 0.96132 0.42147 0.0097 0.0
C959 C 0.97941 0.4533 0.01783 0.0
H960 H 0.96741 0.38951 0.99304 0.0
H961 H 0.16575 0.69755 0.07444 0.0
H962 H 0.62017 0.03229 0.43035 0.0
H963 H 0.61951 0.03529 0.39865 0.0
H964 H 0.51278 0.01738 0.40076 0.0
H965 H 0.51297 0.01379 0.43264 0.0
H966 H 0.565 0.98541 0.37386 0.0
H967 H 0.51989 0.07024 0.36868 0.0
H968 H 0.52164 0.11308 0.3867 0.0
H969 H 0.62084 0.14056 0.41349 0.0
H970 H 0.62008 0.09833 0.39543 0.0
H971 H 0.51595 0.98797 0.28618 0.0
H972 H 0.51288 0.98784 0.31797 0.0
H973 H 0.62558 0.07932 0.32203 0.0
H974 H 0.62992 0.07886 0.29028 0.0
H975 H 0.57016 0.07532 0.34583 0.0
H976 H 0.62064 0.01682 0.32725 0.0
H977 H 0.62032 0.97431 0.30976 0.0
H978 H 0.51504 0.89623 0.33128 0.0
H979 H 0.51447 0.93838 0.3487 0.0
C980 C 0.59648 0.02888 0.42407 0.0
C981 C 0.56653 0.02267 0.43391 0.0
C982 C 0.59612 0.03051 0.40597 0.0
C983 C 0.56614 0.02657 0.39741 0.0
C984 C 0.53621 0.02056 0.40718 0.0
C985 C 0.53631 0.01845 0.42533 0.0
C986 C 0.56651 0.02884 0.37821 0.0
C987 C 0.56591 0.00495 0.36773 0.0
C988 C 0.56811 0.05457 0.37028 0.0
C989 C 0.56965 0.08086 0.38082 0.0
C990 C 0.54219 0.08556 0.37834 0.0
C991 C 0.54301 0.10973 0.38857 0.0
C992 C 0.57127 0.12946 0.40126 0.0
C993 C 0.59892 0.12521 0.40368 0.0
C994 C 0.59829 0.10114 0.39347 0.0
C995 C 0.54028 0.00801 0.29375 0.0
C996 C 0.57337 0.03323 0.28552 0.0
C997 C 0.53825 0.00805 0.31195 0.0
C998 C 0.56899 0.03356 0.3223 0.0
C999 C 0.60145 0.05956 0.31422 0.0
C1000 C 0.60377 0.05927 0.29602 0.0
C1001 C 0.56828 0.03168 0.34152 0.0
C1002 C 0.56886 0.05562 0.35198 0.0
C1003 C 0.56692 0.00612 0.3495 0.0
C1004 C 0.5673 0.98076 0.33911 0.0
C1005 C 0.59725 0.99061 0.32812 0.0
C1006 C 0.59726 0.96658 0.31825 0.0
C1007 C 0.56762 0.93259 0.31937 0.0
C1008 C 0.53795 0.92256 0.3304 0.0
C1009 C 0.53777 0.94651 0.34028 0.0
H1010 H 0.56769 0.91402 0.31172 0.0
H1011 H 0.57177 0.14806 0.40921 0.0
H1012 H 0.5839 0.56207 0.80722 0.0
H1013 H 0.59804 0.57828 0.77675 0.0
H1014 H 0.54204 0.47486 0.76 0.0
H1015 H 0.52859 0.45885 0.79021 0.0
H1016 H 0.60762 0.51569 0.74376 0.0
H1017 H 0.49921 0.51321 0.75712 0.0
H1018 H 0.46806 0.53206 0.77443 0.0
H1019 H 0.55299 0.63353 0.76096 0.0
H1020 H 0.58482 0.61527 0.74369 0.0
H1021 H 0.56073 0.49536 0.65544 0.0
H1022 H 0.55836 0.4936 0.68721 0.0
H1023 H 0.6098 0.59923 0.69145 0.0
H1024 H 0.61158 0.60094 0.65953 0.0
H1025 H 0.55692 0.56754 0.71498 0.0
H1026 H 0.66129 0.57089 0.69883 0.0
H1027 H 0.69601 0.5548 0.68245 0.0
H1028 H 0.62462 0.45617 0.70212 0.0
H1029 H 0.58908 0.4715 0.71842 0.0
C1030 C 0.57498 0.54297 0.79702 0.0
C1031 C 0.55528 0.50927 0.80107 0.0
C1032 C 0.58284 0.55218 0.77962 0.0
C1033 C 0.5709 0.52772 0.76607 0.0
C1034 C 0.55163 0.49417 0.77021 0.0
C1035 C 0.54383 0.48504 0.7875 0.0
C1036 C 0.57768 0.53637 0.74745 0.0
C1037 C 0.59636 0.52686 0.73744 0.0
C1038 C 0.56433 0.55219 0.73935 0.0
C1039 C 0.54454 0.56293 0.74925 0.0
C1040 C 0.51128 0.53955 0.7579 0.0
C1041 C 0.49351 0.55012 0.76769 0.0
C1042 C 0.50859 0.58399 0.76883 0.0
C1043 C 0.54136 0.60731 0.76008 0.0
C1044 C 0.55924 0.59686 0.75027 0.0
C1045 C 0.57153 0.51821 0.66314 0.0
C1046 C 0.58665 0.54834 0.655 0.0
C1047 C 0.57024 0.51722 0.68131 0.0
C1048 C 0.58467 0.54645 0.69177 0.0
C1049 C 0.59867 0.57639 0.68367 0.0
C1050 C 0.59962 0.57732 0.66544 0.0
C1051 C 0.58554 0.54555 0.71112 0.0
C1052 C 0.56857 0.55671 0.72129 0.0
C1053 C 0.60092 0.53162 0.71946 0.0
C1054 C 0.62235 0.5223 0.70976 0.0
C1055 C 0.65283 0.5457 0.69957 0.0
C1056 C 0.67268 0.53672 0.69031 0.0
C1057 C 0.66249 0.50446 0.69122 0.0
C1058 C 0.63247 0.48114 0.70142 0.0
C1059 C 0.61249 0.48998 0.71069 0.0
H1060 H 0.67789 0.49756 0.68404 0.0
H1061 H 0.49486 0.59214 0.77646 0.0
H1062 H 0.47295 0.00797 0.53715 0.0
H1063 H 0.47944 0.00711 0.56875 0.0
H1064 H 0.59788 0.05727 0.56355 0.0
H1065 H 0.59132 0.0575 0.53191 0.0
H1066 H 0.56919 0.00824 0.58549 0.0
H1067 H 0.56322 0.09948 0.57819 0.0
H1068 H 0.53589 0.12634 0.56781 0.0
H1069 H 0.43694 0.05963 0.59698 0.0
H1070 H 0.4635 0.03207 0.60735 0.0
H1071 H 0.63038 0.06697 0.67298 0.0
H1072 H 0.61908 0.063 0.64154 0.0
H1073 H 0.50083 0.00853 0.64992 0.0
H1074 H 0.51206 0.01312 0.68151 0.0
H1075 H 0.52649 0.05716 0.62659 0.0
H1076 H 0.53429 0.96765 0.6349 0.0
H1077 H 0.56243 0.94154 0.64534 0.0
H1078 H 0.65893 0.00591 0.6143 0.0
H1079 H 0.63159 0.03275 0.60386 0.0
C1080 C 0.50034 0.01879 0.54277 0.0
C1081 C 0.53168 0.033 0.53213 0.0
C1082 C 0.50406 0.01841 0.56082 0.0
C1083 C 0.53926 0.03257 0.56857 0.0
C1084 C 0.57047 0.04628 0.55788 0.0
C1085 C 0.56673 0.0465 0.53983 0.0
C1086 C 0.54365 0.03318 0.5878 0.0
C1087 C 0.56025 0.0193 0.59446 0.0
C1088 C 0.53113 0.04684 0.59956 0.0
C1089 C 0.51519 0.06349 0.5934 0.0
C1090 C 0.53552 0.09038 0.58229 0.0
C1091 C 0.52019 0.10576 0.57642 0.0
C1092 C 0.48466 0.09464 0.58169 0.0
C1093 C 0.46444 0.06818 0.59289 0.0
C1094 C 0.47963 0.05269 0.59877 0.0
C1095 C 0.60199 0.05437 0.66816 0.0
C1096 C 0.57211 0.04038 0.67976 0.0
C1097 C 0.59553 0.05184 0.65017 0.0
C1098 C 0.55906 0.03515 0.64337 0.0
C1099 C 0.52918 0.0214 0.65489 0.0
C1100 C 0.53561 0.02383 0.67292 0.0
C1101 C 0.55232 0.03251 0.62423 0.0
C1102 C 0.53527 0.04599 0.61761 0.0
C1103 C 0.56455 0.01859 0.6125 0.0
C1104 C 0.58102 0.00242 0.61872 0.0
C1105 C 0.56164 0.97643 0.63041 0.0
C1106 C 0.57743 0.96146 0.63631 0.0
C1107 C 0.61248 0.97212 0.63052 0.0
C1108 C 0.63179 0.99771 0.61879 0.0
C1109 C 0.61615 0.01279 0.61286 0.0
H1110 H 0.62466 0.96049 0.6351 0.0
H1111 H 0.47283 0.10658 0.57714 0.0
H1112 H 0.61667 0.54526 0.91066 0.0
H1113 H 0.60261 0.51426 0.93721 0.0
H1114 H 0.48665 0.44521 0.9206 0.0
H1115 H 0.50044 0.47604 0.89425 0.0
H1116 H 0.55587 0.50401 0.96304 0.0
H1117 H 0.4503 0.3674 0.93419 0.0
H1118 H 0.44052 0.33345 0.90756 0.0
H1119 H 0.55746 0.40182 0.89656 0.0
H1120 H 0.5681 0.43599 0.92324 0.0
H1121 H 0.42545 0.39322 0.02339 0.0
H1122 H 0.45307 0.42061 0.99611 0.0
H1123 H 0.52292 0.38854 0.99627 0.0
H1124 H 0.49642 0.36198 0.02401 0.0
H1125 H 0.48841 0.38109 0.9628 0.0
H1126 H 0.56398 0.46355 0.00839 0.0
H1127 H 0.57585 0.49633 0.03581 0.0
H1128 H 0.52444 0.53674 0.01349 0.0
H1129 H 0.5117 0.50375 0.98601 0.0
C1130 C 0.58825 0.52342 0.91271 0.0
C1131 C 0.55966 0.51293 0.90042 0.0
C1132 C 0.58028 0.50572 0.92781 0.0
C1133 C 0.54371 0.47716 0.93073 0.0
C1134 C 0.5152 0.46677 0.91844 0.0
C1135 C 0.52308 0.48452 0.90345 0.0
C1136 C 0.53456 0.45926 0.94708 0.0
C1137 C 0.54142 0.47719 0.96298 0.0
C1138 C 0.51614 0.42432 0.94701 0.0
C1139 C 0.50995 0.40434 0.93071 0.0
C1140 C 0.47397 0.37517 0.92612 0.0
C1141 C 0.46826 0.35588 0.91102 0.0
C1142 C 0.49836 0.36542 0.90042 0.0
C1143 C 0.53418 0.39446 0.9048 0.0
C1144 C 0.54004 0.41385 0.91989 0.0
C1145 C 0.44679 0.39205 0.01771 0.0
C1146 C 0.45908 0.37578 0.02605 0.0
C1147 C 0.46238 0.40757 0.00207 0.0
C1148 C 0.4903 0.4069 0.99435 0.0
C1149 C 0.5014 0.38932 0.00209 0.0
C1150 C 0.48608 0.37403 0.01789 0.0
C1151 C 0.5086 0.42572 0.97852 0.0
C1152 C 0.50333 0.40797 0.96279 0.0
C1153 C 0.52878 0.46087 0.97872 0.0
C1154 C 0.53664 0.48097 0.99518 0.0
C1155 C 0.55493 0.47921 0.00937 0.0
C1156 C 0.56186 0.49787 0.02492 0.0
C1157 C 0.55084 0.51856 0.0264 0.0
C1158 C 0.53294 0.52069 0.01232 0.0
C1159 C 0.52589 0.50204 0.99675 0.0
H1160 H 0.55624 0.53299 0.03845 0.0
H1161 H 0.4939 0.35021 0.88886 0.0
H1162 H 0.07858 0.57531 0.20701 0.0
H1163 H 0.07305 0.57574 0.23888 0.0
H1164 H 0.04135 0.47573 0.23883 0.0
H1165 H 0.04663 0.47512 0.20711 0.0
H1166 H 0.99729 0.4829 0.26005 0.0
H1167 H 0.1295 0.54247 0.24979 0.0
H1168 H 0.19014 0.5869 0.23739 0.0
H1169 H 0.18725 0.66199 0.26431 0.0
H1170 H 0.12631 0.61796 0.2767 0.0
H1171 H 0.03368 0.46433 0.34621 0.0
H1172 H 0.03091 0.46871 0.3148 0.0
H1173 H 0.07066 0.57097 0.32305 0.0
H1174 H 0.07371 0.56678 0.35458 0.0
H1175 H 0.10788 0.56675 0.29777 0.0
H1176 H 0.97884 0.50757 0.31047 0.0
H1177 H 0.91803 0.46351 0.32285 0.0
H1178 H 0.91384 0.38842 0.29145 0.0
H1179 H 0.97491 0.43199 0.27906 0.0
C1180 C 0.07036 0.55344 0.21383 0.0
C1181 C 0.06326 0.52526 0.20464 0.0
C1182 C 0.06727 0.55372 0.23201 0.0
C1183 C 0.05704 0.52583 0.24124 0.0
C1184 C 0.04925 0.49749 0.23199 0.0
C1185 C 0.05246 0.49725 0.21387 0.0
C1186 C 0.05518 0.52617 0.26058 0.0
C1187 C 1.02151 0.50108 0.26832 0.0
C1188 C 0.08647 0.5505 0.27136 0.0
C1189 C 0.12317 0.57695 0.264 0.0
C1190 C 0.14166 0.56846 0.25295 0.0
C1191 C 0.1761 0.59356 0.24595 0.0
C1192 C 0.19248 0.62725 0.25002 0.0
C1193 C 0.1745 0.63589 0.26115 0.0
C1194 C 0.14002 0.61088 0.26817 0.0
C1195 C 0.04119 0.48757 0.34139 0.0
C1196 C 0.05379 0.51517 0.35292 0.0
C1197 C 0.03961 0.49006 0.32339 0.0
C1198 C 0.05016 0.52006 0.31653 0.0
C1199 C 0.06238 0.54757 0.32802 0.0
C1200 C 0.06415 0.54515 0.34604 0.0
C1201 C 0.0501 0.52307 0.29732 0.0
C1202 C 0.08344 0.54878 0.28957 0.0
C1203 C 1.01842 0.49938 0.28654 0.0
C1204 C 0.98163 0.47306 0.29394 0.0
C1205 C 0.9651 0.48164 0.3063 0.0
C1206 C 0.93055 0.45675 0.3133 0.0
C1207 C 0.91212 0.42318 0.30797 0.0
C1208 C 0.92816 0.41444 0.29559 0.0
C1209 C 0.96273 0.43923 0.28855 0.0
H1210 H 0.88537 0.40395 0.3134 0.0
H1211 H 0.21915 0.64665 0.24458 0.0
loop_
_geom_bond_atom_site_label_1
_geom_bond_atom_site_label_2
_geom_bond_distance
_geom_bond_site_symmetry_2
_ccdc_geom_bond_type
Sm0 C2 2.846 . S
Sm0 O20 2.543 . S
Sm0 O21 2.450 . S
Sm0 O22 2.681 . S
Sm0 O23 2.464 . S
Sm0 O24 2.396 . S
Sm0 O28 2.386 . S
Sm0 O31 2.408 1_455 S
Sm1 C11 2.846 . S
Sm1 O22 2.386 1_655 S
Sm1 O25 2.408 1_655 S
Sm1 O26 2.543 . S
Sm1 O27 2.450 . S
Sm1 O28 2.681 1_655 S
Sm1 O29 2.464 1_655 S
Sm1 O30 2.396 . S
C2 Sm0 2.846 . S
C2 C3 1.506 . S
C2 O20 1.261 . S
C2 O21 1.242 . S
C3 C2 1.506 . S
C3 C4 1.358 . S
C3 C8 1.382 . S
C4 C3 1.358 . S
C4 C5 1.385 . S
C4 H32 0.930 . S
C5 C4 1.385 . S
C5 C6 1.395 . S
C5 H33 0.929 . S
C6 C5 1.395 . S
C6 C7 1.335 . S
C7 C6 1.335 . S
C7 C8 1.398 . S
C7 H34 0.930 . S
C8 C3 1.382 . S
C8 C7 1.398 . S
C8 H35 0.929 . S
C9 O22 1.271 . S
C9 O23 1.251 . S
C10 O24 1.252 . S
C10 O25 1.272 . S
C11 Sm1 2.846 . S
C11 C12 1.506 . S
C11 O26 1.261 . S
C11 O27 1.242 . S
C12 C11 1.506 . S
C12 C13 1.358 . S
C12 C17 1.382 . S
C13 C12 1.358 . S
C13 C14 1.385 . S
C13 H36 0.930 . S
C14 C13 1.385 . S
C14 C15 1.395 . S
C14 H37 0.929 . S
C15 C14 1.395 . S
C15 C16 1.335 . S
C16 C15 1.335 . S
C16 C17 1.398 . S
C16 H38 0.930 . S
C17 C12 1.382 . S
C17 C16 1.398 . S
C17 H39 0.929 . S
C18 O28 1.271 . S
C18 O29 1.251 . S
C19 O30 1.252 . S
C19 O31 1.272 . S
O20 Sm0 2.543 . S
O20 C2 1.261 . S
O21 Sm0 2.450 . S
O21 C2 1.242 . S
O22 Sm0 2.681 . S
O22 Sm1 2.386 1_455 S
O22 C9 1.271 . S
O23 Sm0 2.464 . S
O23 C9 1.251 . S
O24 Sm0 2.396 . S
O24 C10 1.252 . S
O25 Sm1 2.408 1_455 S
O25 C10 1.272 . S
O26 Sm1 2.543 . S
O26 C11 1.261 . S
O27 Sm1 2.450 . S
O27 C11 1.242 . S
O28 Sm0 2.386 . S
O28 Sm1 2.681 1_455 S
O28 C18 1.271 . S
O29 Sm1 2.464 1_455 S
O29 C18 1.251 . S
O30 Sm1 2.396 . S
O30 C19 1.252 . S
O31 Sm0 2.408 1_655 S
O31 C19 1.272 . S
H32 C4 0.930 . S
H33 C5 0.929 . S
H34 C7 0.930 . S
H35 C8 0.929 . S
H36 C13 0.930 . S
H37 C14 0.929 . S
H38 C16 0.930 . S
H39 C17 0.929 . S
Sm40 C42 2.846 . S
Sm40 O60 2.543 . S
Sm40 O61 2.450 . S
Sm40 O62 2.681 1_565 S
Sm40 O63 2.464 . S
Sm40 O64 2.396 . S
Sm40 O68 2.386 1_565 S
Sm40 O71 2.408 1_565 S
Sm41 C51 2.846 . S
Sm41 O62 2.386 . S
Sm41 O65 2.408 1_545 S
Sm41 O66 2.543 . S
Sm41 O67 2.450 . S
Sm41 O68 2.681 . S
Sm41 O69 2.464 . S
Sm41 O70 2.396 . S
C42 Sm40 2.846 . S
C42 C43 1.506 . S
C42 O60 1.261 . S
C42 O61 1.242 . S
C43 C42 1.506 . S
C43 C44 1.358 . S
C43 C48 1.382 . S
C44 C43 1.358 . S
C44 C45 1.385 . S
C44 H72 0.930 . S
C45 C44 1.385 . S
C45 C46 1.395 . S
C45 H73 0.929 . S
C46 C45 1.395 . S
C46 C47 1.335 . S
C47 C46 1.335 . S
C47 C48 1.398 . S
C47 H74 0.930 . S
C48 C43 1.382 . S
C48 C47 1.398 . S
C48 H75 0.929 . S
C49 O62 1.271 . S
C49 O63 1.251 1_545 S
C50 O64 1.252 . S
C50 O65 1.272 . S
C51 Sm41 2.846 . S
C51 C52 1.506 . S
C51 O66 1.261 . S
C51 O67 1.242 . S
C52 C51 1.506 . S
C52 C53 1.358 . S
C52 C57 1.382 . S
C53 C52 1.358 . S
C53 C54 1.385 . S
C53 H76 0.930 . S
C54 C53 1.385 . S
C54 C55 1.395 . S
C54 H77 0.929 . S
C55 C54 1.395 . S
C55 C56 1.335 . S
C56 C55 1.335 . S
C56 C57 1.398 . S
C56 H78 0.930 . S
C57 C52 1.382 . S
C57 C56 1.398 . S
C57 H79 0.929 . S
C58 O68 1.271 . S
C58 O69 1.251 . S
C59 O70 1.252 . S
C59 O71 1.272 . S
O60 Sm40 2.543 . S
O60 C42 1.261 . S
O61 Sm40 2.450 . S
O61 C42 1.242 . S
O62 Sm40 2.681 1_545 S
O62 Sm41 2.386 . S
O62 C49 1.271 . S
O63 Sm40 2.464 . S
O63 C49 1.251 1_565 S
O64 Sm40 2.396 . S
O64 C50 1.252 . S
O65 Sm41 2.408 1_565 S
O65 C50 1.272 . S
O66 Sm41 2.543 . S
O66 C51 1.261 . S
O67 Sm41 2.450 . S
O67 C51 1.242 . S
O68 Sm40 2.386 1_545 S
O68 Sm41 2.681 . S
O68 C58 1.271 . S
O69 Sm41 2.464 . S
O69 C58 1.251 . S
O70 Sm41 2.396 . S
O70 C59 1.252 . S
O71 Sm40 2.408 1_545 S
O71 C59 1.272 . S
H72 C44 0.930 . S
H73 C45 0.929 . S
H74 C47 0.930 . S
H75 C48 0.929 . S
H76 C53 0.930 . S
H77 C54 0.929 . S
H78 C56 0.930 . S
H79 C57 0.929 . S
Sm80 C82 2.846 . S
Sm80 O100 2.543 . S
Sm80 O101 2.450 . S
Sm80 O102 2.681 . S
Sm80 O103 2.464 . S
Sm80 O104 2.396 . S
Sm80 O108 2.386 . S
Sm80 O111 2.408 . S
Sm81 C91 2.846 . S
Sm81 O102 2.386 . S
Sm81 O105 2.408 . S
Sm81 O106 2.543 . S
Sm81 O107 2.450 . S
Sm81 O108 2.681 . S
Sm81 O109 2.464 . S
Sm81 O110 2.396 . S
C82 Sm80 2.846 . S
C82 C83 1.506 . S
C82 O100 1.261 . S
C82 O101 1.242 . S
C83 C82 1.506 . S
C83 C84 1.358 . S
C83 C88 1.382 . S
C84 C83 1.358 . S
C84 C85 1.385 . S
C84 H112 0.930 . S
C85 C84 1.385 . S
C85 C86 1.395 . S
C85 H113 0.929 . S
C86 C85 1.395 . S
C86 C87 1.335 . S
C87 C86 1.335 . S
C87 C88 1.398 . S
C87 H114 0.930 . S
C88 C83 1.382 . S
C88 C87 1.398 . S
C88 H115 0.929 . S
C89 O102 1.271 . S
C89 O103 1.251 . S
C90 O104 1.252 . S
C90 O105 1.272 . S
C91 Sm81 2.846 . S
C91 C92 1.506 . S
C91 O106 1.261 . S
C91 O107 1.242 . S
C92 C91 1.506 . S
C92 C93 1.358 . S
C92 C97 1.382 . S
C93 C92 1.358 . S
C93 C94 1.385 . S
C93 H116 0.930 . S
C94 C93 1.385 . S
C94 C95 1.395 . S
C94 H117 0.929 . S
C95 C94 1.395 . S
C95 C96 1.335 . S
C96 C95 1.335 . S
C96 C97 1.398 . S
C96 H118 0.930 . S
C97 C92 1.382 . S
C97 C96 1.398 . S
C97 H119 0.929 . S
C98 O108 1.271 . S
C98 O109 1.251 . S
C99 O110 1.252 . S
C99 O111 1.272 . S
O100 Sm80 2.543 . S
O100 C82 1.261 . S
O101 Sm80 2.450 . S
O101 C82 1.242 . S
O102 Sm80 2.681 . S
O102 Sm81 2.386 . S
O102 C89 1.271 . S
O103 Sm80 2.464 . S
O103 C89 1.251 . S
O104 Sm80 2.396 . S
O104 C90 1.252 . S
O105 Sm81 2.408 . S
O105 C90 1.272 . S
O106 Sm81 2.543 . S
O106 C91 1.261 . S
O107 Sm81 2.450 . S
O107 C91 1.242 . S
O108 Sm80 2.386 . S
O108 Sm81 2.681 . S
O108 C98 1.271 . S
O109 Sm81 2.464 . S
O109 C98 1.251 . S
O110 Sm81 2.396 . S
O110 C99 1.252 . S
O111 Sm80 2.408 . S
O111 C99 1.272 . S
H112 C84 0.930 . S
H113 C85 0.929 . S
H114 C87 0.930 . S
H115 C88 0.929 . S
H116 C93 0.930 . S
H117 C94 0.929 . S
H118 C96 0.930 . S
H119 C97 0.929 . S
P120 O131 1.470 1_545 S
P120 C134 1.810 1_545 S
P120 C140 1.820 . S
P120 C146 1.826 . S
H121 C135 0.941 . S
H122 C136 0.939 . S
H123 C138 0.940 . S
H124 C139 0.940 . S
H125 C141 0.939 . S
H126 C142 0.942 . S
H127 C144 0.940 . S
H128 C145 0.939 . S
H129 C147 0.941 . S
H130 C151 0.939 . S
O131 P120 1.470 1_565 S
H132 C148 0.939 . S
H133 C150 0.940 . S
C134 P120 1.810 1_565 S
C134 C135 1.389 . S
C134 C139 1.391 . S
C135 H121 0.941 . S
C135 C134 1.389 . S
C135 C136 1.397 . S
C136 H122 0.939 . S
C136 C135 1.397 . S
C136 C137 1.378 . S
C137 C136 1.378 . S
C137 C138 1.378 . S
C138 H123 0.940 . S
C138 C137 1.378 . S
C138 C139 1.396 . S
C139 H124 0.940 . S
C139 C134 1.391 . S
C139 C138 1.396 . S
C140 P120 1.820 . S
C140 C141 1.378 . S
C140 C145 1.400 . S
C141 H125 0.939 . S
C141 C140 1.378 . S
C141 C142 1.361 . S
C142 H126 0.942 . S
C142 C141 1.361 . S
C142 C143 1.369 . S
C143 C142 1.369 . S
C143 C144 1.404 . S
C144 H127 0.940 . S
C144 C143 1.404 . S
C144 C145 1.389 . S
C145 H128 0.939 . S
C145 C140 1.400 . S
C145 C144 1.389 . S
C146 P120 1.826 . S
C146 C147 1.391 1_545 S
C146 C151 1.391 . S
C147 H129 0.941 . S
C147 C146 1.391 1_565 S
C147 C148 1.396 . S
C148 H132 0.939 . S
C148 C147 1.396 . S
C148 C149 1.397 1_565 S
C149 C148 1.397 1_545 S
C149 C150 1.385 . S
C150 H133 0.940 . S
C150 C149 1.385 . S
C150 C151 1.388 . S
C151 H130 0.939 . S
C151 C146 1.391 . S
C151 C150 1.388 . S
P152 O163 1.490 . S
P152 C166 1.812 . S
P152 C172 1.803 . S
P152 C178 1.819 . S
H153 C167 0.941 . S
H154 C168 0.939 . S
H155 C170 0.940 . S
H156 C171 0.940 . S
H157 C173 0.939 . S
H158 C174 0.942 . S
H159 C176 0.940 . S
H160 C177 0.939 . S
H161 C179 0.941 . S
H162 C183 0.939 . S
O163 P152 1.490 . S
H164 C180 0.939 . S
H165 C182 0.940 . S
C166 P152 1.812 . S
C166 C167 1.389 . S
C166 C171 1.391 . S
C167 H153 0.941 . S
C167 C166 1.389 . S
C167 C168 1.397 . S
C168 H154 0.939 . S
C168 C167 1.397 . S
C168 C169 1.378 . S
C169 C168 1.378 . S
C169 C170 1.378 . S
C170 H155 0.940 . S
C170 C169 1.378 . S
C170 C171 1.396 . S
C171 H156 0.940 . S
C171 C166 1.391 . S
C171 C170 1.396 . S
C172 P152 1.803 . S
C172 C173 1.378 . S
C172 C177 1.400 . S
C173 H157 0.939 . S
C173 C172 1.378 . S
C173 C174 1.361 . S
C174 H158 0.942 . S
C174 C173 1.361 . S
C174 C175 1.369 . S
C175 C174 1.369 . S
C175 C176 1.404 . S
C176 H159 0.940 . S
C176 C175 1.404 . S
C176 C177 1.389 . S
C177 H160 0.939 . S
C177 C172 1.400 . S
C177 C176 1.389 . S
C178 P152 1.819 . S
C178 C179 1.391 . S
C178 C183 1.391 . S
C179 H161 0.941 . S
C179 C178 1.391 . S
C179 C180 1.396 . S
C180 H164 0.939 . S
C180 C179 1.396 . S
C180 C181 1.397 . S
C181 C180 1.397 . S
C181 C182 1.385 . S
C182 H165 0.940 . S
C182 C181 1.385 . S
C182 C183 1.388 . S
C183 H162 0.939 . S
C183 C178 1.391 . S
C183 C182 1.388 . S
P184 O195 1.490 . S
P184 C198 1.812 . S
P184 C204 1.803 . S
P184 C210 1.819 . S
H185 C199 0.941 . S
H186 C200 0.939 . S
H187 C202 0.940 . S
H188 C203 0.940 . S
H189 C205 0.939 . S
H190 C206 0.942 . S
H191 C208 0.940 . S
H192 C209 0.939 . S
H193 C211 0.941 . S
H194 C215 0.939 . S
O195 P184 1.490 . S
H196 C212 0.939 . S
H197 C214 0.940 1_655 S
C198 P184 1.812 . S
C198 C199 1.389 . S
C198 C203 1.391 . S
C199 H185 0.941 . S
C199 C198 1.389 . S
C199 C200 1.397 . S
C200 H186 0.939 . S
C200 C199 1.397 . S
C200 C201 1.378 . S
C201 C200 1.378 . S
C201 C202 1.378 . S
C202 H187 0.940 . S
C202 C201 1.378 . S
C202 C203 1.396 . S
C203 H188 0.940 . S
C203 C198 1.391 . S
C203 C202 1.396 . S
C204 P184 1.803 . S
C204 C205 1.378 . S
C204 C209 1.400 . S
C205 H189 0.939 . S
C205 C204 1.378 . S
C205 C206 1.361 1_455 S
C206 H190 0.942 . S
C206 C205 1.361 1_655 S
C206 C207 1.369 . S
C207 C206 1.369 . S
C207 C208 1.404 . S
C208 H191 0.940 . S
C208 C207 1.404 . S
C208 C209 1.389 1_655 S
C209 H192 0.939 . S
C209 C204 1.400 . S
C209 C208 1.389 1_455 S
C210 P184 1.819 . S
C210 C211 1.391 . S
C210 C215 1.391 . S
C211 H193 0.941 . S
C211 C210 1.391 . S
C211 C212 1.396 . S
C212 H196 0.939 . S
C212 C211 1.396 . S
C212 C213 1.397 . S
C213 C212 1.397 . S
C213 C214 1.385 . S
C214 H197 0.940 1_455 S
C214 C213 1.385 . S
C214 C215 1.388 . S
C215 H194 0.939 . S
C215 C210 1.391 . S
C215 C214 1.388 . S
P216 O227 1.490 . S
P216 C230 1.812 . S
P216 C236 1.803 1_455 S
P216 C242 1.819 . S
H217 C231 0.941 . S
H218 C232 0.939 . S
H219 C234 0.940 . S
H220 C235 0.940 . S
H221 C237 0.939 . S
H222 C238 0.942 . S
H223 C240 0.940 . S
H224 C241 0.939 . S
H225 C243 0.941 . S
H226 C247 0.939 . S
O227 P216 1.490 . S
H228 C244 0.939 . S
H229 C246 0.940 . S
C230 P216 1.812 . S
C230 C231 1.389 . S
C230 C235 1.391 . S
C231 H217 0.941 . S
C231 C230 1.389 . S
C231 C232 1.397 . S
C232 H218 0.939 . S
C232 C231 1.397 . S
C232 C233 1.378 . S
C233 C232 1.378 . S
C233 C234 1.378 . S
C234 H219 0.940 . S
C234 C233 1.378 . S
C234 C235 1.396 . S
C235 H220 0.940 . S
C235 C230 1.391 . S
C235 C234 1.396 . S
C236 P216 1.803 1_655 S
C236 C237 1.378 . S
C236 C241 1.400 . S
C237 H221 0.939 . S
C237 C236 1.378 . S
C237 C238 1.361 . S
C238 H222 0.942 . S
C238 C237 1.361 . S
C238 C239 1.369 . S
C239 C238 1.369 . S
C239 C240 1.404 . S
C240 H223 0.940 . S
C240 C239 1.404 . S
C240 C241 1.389 . S
C241 H224 0.939 . S
C241 C236 1.400 . S
C241 C240 1.389 . S
C242 P216 1.819 . S
C242 C243 1.391 . S
C242 C247 1.391 1_455 S
C243 H225 0.941 . S
C243 C242 1.391 . S
C243 C244 1.396 . S
C244 H228 0.939 . S
C244 C243 1.396 . S
C244 C245 1.397 . S
C245 C244 1.397 . S
C245 C246 1.385 1_455 S
C246 H229 0.940 . S
C246 C245 1.385 1_655 S
C246 C247 1.388 . S
C247 H226 0.939 . S
C247 C242 1.391 1_655 S
C247 C246 1.388 . S
P248 O259 1.490 . S
P248 C262 1.812 . S
P248 C268 1.803 1_545 S
P248 C274 1.819 . S
H249 C263 0.941 . S
H250 C264 0.939 . S
H251 C266 0.940 . S
H252 C267 0.940 . S
H253 C269 0.939 . S
H254 C270 0.942 . S
H255 C272 0.940 . S
H256 C273 0.939 . S
H257 C275 0.941 . S
H258 C279 0.939 . S
O259 P248 1.490 . S
H260 C276 0.939 . S
H261 C278 0.940 . S
C262 P248 1.812 . S
C262 C263 1.389 . S
C262 C267 1.391 . S
C263 H249 0.941 . S
C263 C262 1.389 . S
C263 C264 1.397 . S
C264 H250 0.939 . S
C264 C263 1.397 . S
C264 C265 1.378 . S
C265 C264 1.378 . S
C265 C266 1.378 . S
C266 H251 0.940 . S
C266 C265 1.378 . S
C266 C267 1.396 . S
C267 H252 0.940 . S
C267 C262 1.391 . S
C267 C266 1.396 . S
C268 P248 1.803 1_565 S
C268 C269 1.378 . S
C268 C273 1.400 . S
C269 H253 0.939 . S
C269 C268 1.378 . S
C269 C270 1.361 . S
C270 H254 0.942 . S
C270 C269 1.361 . S
C270 C271 1.369 . S
C271 C270 1.369 . S
C271 C272 1.404 . S
C272 H255 0.940 . S
C272 C271 1.404 . S
C272 C273 1.389 . S
C273 H256 0.939 . S
C273 C268 1.400 . S
C273 C272 1.389 . S
C274 P248 1.819 . S
C274 C275 1.391 . S
C274 C279 1.391 1_545 S
C275 H257 0.941 . S
C275 C274 1.391 . S
C275 C276 1.396 . S
C276 H260 0.939 . S
C276 C275 1.396 . S
C276 C277 1.397 . S
C277 C276 1.397 . S
C277 C278 1.385 1_545 S
C278 H261 0.940 . S
C278 C277 1.385 1_565 S
C278 C279 1.388 . S
C279 H258 0.939 . S
C279 C274 1.391 1_565 S
C279 C278 1.388 . S
P280 O291 1.490 . S
P280 C294 1.812 . S
P280 C300 1.803 . S
P280 C306 1.819 . S
H281 C295 0.941 . S
H282 C296 0.939 . S
H283 C298 0.940 . S
H284 C299 0.940 . S
H285 C301 0.939 . S
H286 C302 0.942 . S
H287 C304 0.940 . S
H288 C305 0.939 . S
H289 C307 0.941 . S
H290 C311 0.939 . S
O291 P280 1.490 . S
H292 C308 0.939 . S
H293 C310 0.940 . S
C294 P280 1.812 . S
C294 C295 1.389 . S
C294 C299 1.391 . S
C295 H281 0.941 . S
C295 C294 1.389 . S
C295 C296 1.397 . S
C296 H282 0.939 . S
C296 C295 1.397 . S
C296 C297 1.378 . S
C297 C296 1.378 . S
C297 C298 1.378 . S
C298 H283 0.940 . S
C298 C297 1.378 . S
C298 C299 1.396 . S
C299 H284 0.940 . S
C299 C294 1.391 . S
C299 C298 1.396 . S
C300 P280 1.803 . S
C300 C301 1.378 . S
C300 C305 1.400 . S
C301 H285 0.939 . S
C301 C300 1.378 . S
C301 C302 1.361 . S
C302 H286 0.942 . S
C302 C301 1.361 . S
C302 C303 1.369 . S
C303 C302 1.369 . S
C303 C304 1.404 . S
C304 H287 0.940 . S
C304 C303 1.404 . S
C304 C305 1.389 . S
C305 H288 0.939 . S
C305 C300 1.400 . S
C305 C304 1.389 . S
C306 P280 1.819 . S
C306 C307 1.391 . S
C306 C311 1.391 . S
C307 H289 0.941 . S
C307 C306 1.391 . S
C307 C308 1.396 . S
C308 H292 0.939 . S
C308 C307 1.396 . S
C308 C309 1.397 . S
C309 C308 1.397 . S
C309 C310 1.385 . S
C310 H293 0.940 . S
C310 C309 1.385 . S
C310 C311 1.388 . S
C311 H290 0.939 . S
C311 C306 1.391 . S
C311 C310 1.388 . S
H312 C330 0.951 . S
H313 C332 0.951 . S
H314 C334 0.950 . S
H315 C335 0.950 . S
H316 C337 0.950 . S
H317 C340 0.950 . S
H318 C341 0.950 . S
H319 C343 0.950 . S
H320 C344 0.950 . S
H321 C345 0.951 . S
H322 C347 0.951 . S
H323 C349 0.950 . S
H324 C350 0.950 . S
H325 C352 0.950 . S
H326 C355 0.950 . S
H327 C356 0.950 . S
H328 C358 0.950 . S
H329 C359 0.950 . S
C330 H312 0.951 . S
C330 C331 1.366 . S
C330 C332 1.388 . S
C331 C330 1.366 . S
C331 C335 1.385 . S
C332 H313 0.951 . S
C332 C330 1.388 . S
C332 C333 1.366 . S
C333 C332 1.366 . S
C333 C334 1.414 . S
C333 C336 1.499 . S
C334 H314 0.950 . S
C334 C333 1.414 . S
C334 C335 1.374 . S
C335 H315 0.950 . S
C335 C331 1.385 . S
C335 C334 1.374 . S
C336 C333 1.499 . S
C336 C337 1.373 . S
C336 C338 1.389 . S
C337 H316 0.950 . S
C337 C336 1.373 . S
C337 C353 1.377 . S
C338 C336 1.389 . S
C338 C339 1.524 . S
C338 C352 1.377 . S
C339 C338 1.524 . S
C339 C340 1.397 . S
C339 C344 1.363 . S
C340 H317 0.950 . S
C340 C339 1.397 . S
C340 C341 1.334 . S
C341 H318 0.950 . S
C341 C340 1.334 . S
C341 C342 1.287 . S
C342 C341 1.287 . S
C342 C343 1.524 . S
C342 H361 0.913 . S
C343 H319 0.950 . S
C343 C342 1.524 . S
C343 C344 1.415 . S
C344 H320 0.950 . S
C344 C339 1.363 . S
C344 C343 1.415 . S
C345 H321 0.951 . S
C345 C346 1.366 . S
C345 C347 1.388 . S
C346 C345 1.366 . S
C346 C350 1.385 . S
C347 H322 0.951 . S
C347 C345 1.388 . S
C347 C348 1.366 . S
C348 C347 1.366 . S
C348 C349 1.414 . S
C348 C351 1.499 . S
C349 H323 0.950 . S
C349 C348 1.414 . S
C349 C350 1.374 . S
C350 H324 0.950 . S
C350 C346 1.385 . S
C350 C349 1.374 . S
C351 C348 1.499 . S
C351 C352 1.373 . S
C351 C353 1.389 . S
C352 H325 0.950 . S
C352 C338 1.377 . S
C352 C351 1.373 . S
C353 C337 1.377 . S
C353 C351 1.389 . S
C353 C354 1.524 . S
C354 C353 1.524 . S
C354 C355 1.397 . S
C354 C359 1.363 . S
C355 H326 0.950 . S
C355 C354 1.397 . S
C355 C356 1.334 . S
C356 H327 0.950 . S
C356 C355 1.334 . S
C356 C357 1.287 . S
C357 C356 1.287 . S
C357 C358 1.524 . S
C357 H360 0.999 . S
C358 H328 0.950 . S
C358 C357 1.524 . S
C358 C359 1.415 . S
C359 H329 0.950 . S
C359 C354 1.363 . S
C359 C358 1.415 . S
H360 C357 0.999 . S
H361 C342 0.913 . S
H362 C380 0.951 . S
H363 C382 0.951 . S
H364 C384 0.950 . S
H365 C385 0.950 . S
H366 C387 0.950 . S
H367 C390 0.950 . S
H368 C391 0.950 . S
H369 C393 0.950 . S
H370 C394 0.950 . S
H371 C395 0.951 . S
H372 C397 0.951 . S
H373 C399 0.950 . S
H374 C400 0.950 . S
H375 C402 0.950 . S
H376 C405 0.950 . S
H377 C406 0.950 . S
H378 C408 0.950 . S
H379 C409 0.950 . S
C380 H362 0.951 . S
C380 C381 1.366 . S
C380 C382 1.388 . S
C381 C380 1.366 . S
C381 C385 1.385 . S
C382 H363 0.951 . S
C382 C380 1.388 . S
C382 C383 1.366 . S
C383 C382 1.366 . S
C383 C384 1.414 . S
C383 C386 1.499 . S
C384 H364 0.950 . S
C384 C383 1.414 . S
C384 C385 1.374 . S
C385 H365 0.950 . S
C385 C381 1.385 . S
C385 C384 1.374 . S
C386 C383 1.499 . S
C386 C387 1.373 . S
C386 C388 1.389 . S
C387 H366 0.950 . S
C387 C386 1.373 . S
C387 C403 1.377 . S
C388 C386 1.389 . S
C388 C389 1.524 . S
C388 C402 1.377 . S
C389 C388 1.524 . S
C389 C390 1.397 . S
C389 C394 1.363 . S
C390 H367 0.950 . S
C390 C389 1.397 . S
C390 C391 1.334 . S
C391 H368 0.950 . S
C391 C390 1.334 . S
C391 C392 1.287 . S
C392 C391 1.287 . S
C392 C393 1.524 . S
C392 H411 0.913 . S
C393 H369 0.950 . S
C393 C392 1.524 . S
C393 C394 1.415 . S
C394 H370 0.950 . S
C394 C389 1.363 . S
C394 C393 1.415 . S
C395 H371 0.951 . S
C395 C396 1.366 . S
C395 C397 1.388 . S
C396 C395 1.366 . S
C396 C400 1.385 . S
C397 H372 0.951 . S
C397 C395 1.388 . S
C397 C398 1.366 . S
C398 C397 1.366 . S
C398 C399 1.414 . S
C398 C401 1.499 . S
C399 H373 0.950 . S
C399 C398 1.414 . S
C399 C400 1.374 . S
C400 H374 0.950 . S
C400 C396 1.385 . S
C400 C399 1.374 . S
C401 C398 1.499 . S
C401 C402 1.373 . S
C401 C403 1.389 . S
C402 H375 0.950 . S
C402 C388 1.377 . S
C402 C401 1.373 . S
C403 C387 1.377 . S
C403 C401 1.389 . S
C403 C404 1.524 . S
C404 C403 1.524 . S
C404 C405 1.397 . S
C404 C409 1.363 . S
C405 H376 0.950 . S
C405 C404 1.397 . S
C405 C406 1.334 . S
C406 H377 0.950 . S
C406 C405 1.334 . S
C406 C407 1.287 . S
C407 C406 1.287 . S
C407 C408 1.524 . S
C407 H410 0.999 . S
C408 H378 0.950 . S
C408 C407 1.524 . S
C408 C409 1.415 . S
C409 H379 0.950 . S
C409 C404 1.363 . S
C409 C408 1.415 . S
H410 C407 0.999 . S
H411 C392 0.913 . S
H412 C430 0.951 . S
H413 C432 0.951 . S
H414 C434 0.950 . S
H415 C435 0.950 . S
H416 C437 0.950 . S
H417 C440 0.950 . S
H418 C441 0.950 . S
H419 C443 0.950 . S
H420 C444 0.950 . S
H421 C445 0.951 . S
H422 C447 0.951 . S
H423 C449 0.950 . S
H424 C450 0.950 . S
H425 C452 0.950 . S
H426 C455 0.950 . S
H427 C456 0.950 . S
H428 C458 0.950 . S
H429 C459 0.950 . S
C430 H412 0.951 . S
C430 C431 1.366 . S
C430 C432 1.388 . S
C431 C430 1.366 . S
C431 C435 1.385 . S
C432 H413 0.951 . S
C432 C430 1.388 . S
C432 C433 1.366 . S
C433 C432 1.366 . S
C433 C434 1.414 . S
C433 C436 1.499 . S
C434 H414 0.950 . S
C434 C433 1.414 . S
C434 C435 1.374 . S
C435 H415 0.950 . S
C435 C431 1.385 . S
C435 C434 1.374 . S
C436 C433 1.499 . S
C436 C437 1.373 . S
C436 C438 1.389 . S
C437 H416 0.950 . S
C437 C436 1.373 . S
C437 C453 1.377 . S
C438 C436 1.389 . S
C438 C439 1.524 . S
C438 C452 1.377 . S
C439 C438 1.524 . S
C439 C440 1.397 . S
C439 C444 1.363 . S
C440 H417 0.950 . S
C440 C439 1.397 . S
C440 C441 1.334 . S
C441 H418 0.950 . S
C441 C440 1.334 . S
C441 C442 1.287 . S
C442 C441 1.287 . S
C442 C443 1.524 . S
C442 H461 0.913 . S
C443 H419 0.950 . S
C443 C442 1.524 . S
C443 C444 1.415 . S
C444 H420 0.950 . S
C444 C439 1.363 . S
C444 C443 1.415 . S
C445 H421 0.951 . S
C445 C446 1.366 . S
C445 C447 1.388 . S
C446 C445 1.366 . S
C446 C450 1.385 . S
C447 H422 0.951 . S
C447 C445 1.388 . S
C447 C448 1.366 . S
C448 C447 1.366 . S
C448 C449 1.414 . S
C448 C451 1.499 . S
C449 H423 0.950 . S
C449 C448 1.414 . S
C449 C450 1.374 . S
C450 H424 0.950 . S
C450 C446 1.385 . S
C450 C449 1.374 . S
C451 C448 1.499 . S
C451 C452 1.373 . S
C451 C453 1.389 . S
C452 H425 0.950 . S
C452 C438 1.377 . S
C452 C451 1.373 . S
C453 C437 1.377 . S
C453 C451 1.389 . S
C453 C454 1.524 . S
C454 C453 1.524 . S
C454 C455 1.397 . S
C454 C459 1.363 . S
C455 H426 0.950 . S
C455 C454 1.397 . S
C455 C456 1.334 . S
C456 H427 0.950 . S
C456 C455 1.334 . S
C456 C457 1.287 . S
C457 C456 1.287 . S
C457 C458 1.524 . S
C457 H460 0.999 . S
C458 H428 0.950 . S
C458 C457 1.524 . S
C458 C459 1.415 . S
C459 H429 0.950 . S
C459 C454 1.363 . S
C459 C458 1.415 . S
H460 C457 0.999 . S
H461 C442 0.913 . S
H462 C480 0.951 . S
H463 C482 0.951 . S
H464 C484 0.950 . S
H465 C485 0.950 . S
H466 C487 0.950 . S
H467 C490 0.950 . S
H468 C491 0.950 . S
H469 C493 0.950 . S
H470 C494 0.950 . S
H471 C495 0.951 . S
H472 C497 0.951 . S
H473 C499 0.950 . S
H474 C500 0.950 . S
H475 C502 0.950 . S
H476 C505 0.950 . S
H477 C506 0.950 . S
H478 C508 0.950 . S
H479 C509 0.950 . S
C480 H462 0.951 . S
C480 C481 1.366 . S
C480 C482 1.388 . S
C481 C480 1.366 . S
C481 C485 1.385 . S
C482 H463 0.951 . S
C482 C480 1.388 . S
C482 C483 1.366 . S
C483 C482 1.366 . S
C483 C484 1.414 . S
C483 C486 1.499 . S
C484 H464 0.950 . S
C484 C483 1.414 . S
C484 C485 1.374 . S
C485 H465 0.950 . S
C485 C481 1.385 . S
C485 C484 1.374 . S
C486 C483 1.499 . S
C486 C487 1.373 . S
C486 C488 1.389 . S
C487 H466 0.950 . S
C487 C486 1.373 . S
C487 C503 1.377 . S
C488 C486 1.389 . S
C488 C489 1.524 . S
C488 C502 1.377 . S
C489 C488 1.524 . S
C489 C490 1.397 . S
C489 C494 1.363 . S
C490 H467 0.950 . S
C490 C489 1.397 . S
C490 C491 1.334 . S
C491 H468 0.950 . S
C491 C490 1.334 . S
C491 C492 1.287 . S
C492 C491 1.287 . S
C492 C493 1.524 . S
C492 H511 0.913 . S
C493 H469 0.950 . S
C493 C492 1.524 . S
C493 C494 1.415 . S
C494 H470 0.950 . S
C494 C489 1.363 . S
C494 C493 1.415 . S
C495 H471 0.951 . S
C495 C496 1.366 . S
C495 C497 1.388 . S
C496 C495 1.366 . S
C496 C500 1.385 . S
C497 H472 0.951 . S
C497 C495 1.388 . S
C497 C498 1.366 . S
C498 C497 1.366 . S
C498 C499 1.414 . S
C498 C501 1.499 . S
C499 H473 0.950 . S
C499 C498 1.414 . S
C499 C500 1.374 . S
C500 H474 0.950 . S
C500 C496 1.385 . S
C500 C499 1.374 . S
C501 C498 1.499 . S
C501 C502 1.373 . S
C501 C503 1.389 . S
C502 H475 0.950 . S
C502 C488 1.377 . S
C502 C501 1.373 . S
C503 C487 1.377 . S
C503 C501 1.389 . S
C503 C504 1.524 . S
C504 C503 1.524 . S
C504 C505 1.397 . S
C504 C509 1.363 . S
C505 H476 0.950 . S
C505 C504 1.397 . S
C505 C506 1.334 . S
C506 H477 0.950 . S
C506 C505 1.334 . S
C506 C507 1.287 . S
C507 C506 1.287 . S
C507 C508 1.524 . S
C507 H510 0.999 . S
C508 H478 0.950 . S
C508 C507 1.524 . S
C508 C509 1.415 . S
C509 H479 0.950 . S
C509 C504 1.363 . S
C509 C508 1.415 . S
H510 C507 0.999 . S
H511 C492 0.913 . S
H512 C530 0.951 . S
H513 C532 0.951 . S
H514 C534 0.950 . S
H515 C535 0.950 . S
H516 C537 0.950 . S
H517 C540 0.950 . S
H518 C541 0.950 . S
H519 C543 0.950 . S
H520 C544 0.950 . S
H521 C545 0.951 . S
H522 C547 0.951 . S
H523 C549 0.950 . S
H524 C550 0.950 . S
H525 C552 0.950 . S
H526 C555 0.950 . S
H527 C556 0.950 . S
H528 C558 0.950 . S
H529 C559 0.950 . S
C530 H512 0.951 . S
C530 C531 1.366 . S
C530 C532 1.388 . S
C531 C530 1.366 . S
C531 C535 1.385 . S
C532 H513 0.951 . S
C532 C530 1.388 . S
C532 C533 1.366 . S
C533 C532 1.366 . S
C533 C534 1.414 . S
C533 C536 1.499 . S
C534 H514 0.950 . S
C534 C533 1.414 . S
C534 C535 1.374 . S
C535 H515 0.950 . S
C535 C531 1.385 . S
C535 C534 1.374 . S
C536 C533 1.499 . S
C536 C537 1.373 . S
C536 C538 1.389 . S
C537 H516 0.950 . S
C537 C536 1.373 . S
C537 C553 1.377 . S
C538 C536 1.389 . S
C538 C539 1.524 . S
C538 C552 1.377 . S
C539 C538 1.524 . S
C539 C540 1.397 . S
C539 C544 1.363 . S
C540 H517 0.950 . S
C540 C539 1.397 . S
C540 C541 1.334 . S
C541 H518 0.950 . S
C541 C540 1.334 . S
C541 C542 1.287 . S
C542 C541 1.287 . S
C542 C543 1.524 . S
C542 H561 0.913 . S
C543 H519 0.950 . S
C543 C542 1.524 . S
C543 C544 1.415 . S
C544 H520 0.950 . S
C544 C539 1.363 . S
C544 C543 1.415 . S
C545 H521 0.951 . S
C545 C546 1.366 . S
C545 C547 1.388 . S
C546 C545 1.366 . S
C546 C550 1.385 . S
C547 H522 0.951 . S
C547 C545 1.388 . S
C547 C548 1.366 . S
C548 C547 1.366 . S
C548 C549 1.414 . S
C548 C551 1.499 . S
C549 H523 0.950 . S
C549 C548 1.414 . S
C549 C550 1.374 . S
C550 H524 0.950 . S
C550 C546 1.385 . S
C550 C549 1.374 . S
C551 C548 1.499 . S
C551 C552 1.373 . S
C551 C553 1.389 . S
C552 H525 0.950 . S
C552 C538 1.377 . S
C552 C551 1.373 . S
C553 C537 1.377 . S
C553 C551 1.389 . S
C553 C554 1.524 . S
C554 C553 1.524 . S
C554 C555 1.397 . S
C554 C559 1.363 . S
C555 H526 0.950 . S
C555 C554 1.397 . S
C555 C556 1.334 . S
C556 H527 0.950 . S
C556 C555 1.334 . S
C556 C557 1.287 . S
C557 C556 1.287 . S
C557 C558 1.524 . S
C557 H560 0.999 . S
C558 H528 0.950 . S
C558 C557 1.524 . S
C558 C559 1.415 . S
C559 H529 0.950 . S
C559 C554 1.363 . S
C559 C558 1.415 . S
H560 C557 0.999 . S
H561 C542 0.913 . S
H562 C580 0.951 . S
H563 C582 0.951 . S
H564 C584 0.950 . S
H565 C585 0.950 . S
H566 C587 0.950 . S
H567 C590 0.950 . S
H568 C591 0.950 . S
H569 C593 0.950 . S
H570 C594 0.950 . S
H571 C595 0.951 . S
H572 C597 0.951 . S
H573 C599 0.950 . S
H574 C600 0.950 . S
H575 C602 0.950 . S
H576 C605 0.950 . S
H577 C606 0.950 . S
H578 C608 0.950 . S
H579 C609 0.950 . S
C580 H562 0.951 . S
C580 C581 1.366 . S
C580 C582 1.388 . S
C581 C580 1.366 . S
C581 C585 1.385 . S
C582 H563 0.951 . S
C582 C580 1.388 . S
C582 C583 1.366 . S
C583 C582 1.366 . S
C583 C584 1.414 . S
C583 C586 1.499 . S
C584 H564 0.950 . S
C584 C583 1.414 . S
C584 C585 1.374 . S
C585 H565 0.950 . S
C585 C581 1.385 . S
C585 C584 1.374 . S
C586 C583 1.499 . S
C586 C587 1.373 . S
C586 C588 1.389 . S
C587 H566 0.950 . S
C587 C586 1.373 . S
C587 C603 1.377 . S
C588 C586 1.389 . S
C588 C589 1.524 . S
C588 C602 1.377 . S
C589 C588 1.524 . S
C589 C590 1.397 . S
C589 C594 1.363 . S
C590 H567 0.950 . S
C590 C589 1.397 . S
C590 C591 1.334 . S
C591 H568 0.950 . S
C591 C590 1.334 . S
C591 C592 1.287 . S
C592 C591 1.287 . S
C592 C593 1.524 . S
C592 H611 0.913 . S
C593 H569 0.950 . S
C593 C592 1.524 . S
C593 C594 1.415 . S
C594 H570 0.950 . S
C594 C589 1.363 . S
C594 C593 1.415 . S
C595 H571 0.951 . S
C595 C596 1.366 . S
C595 C597 1.388 . S
C596 C595 1.366 . S
C596 C600 1.385 . S
C597 H572 0.951 . S
C597 C595 1.388 . S
C597 C598 1.366 . S
C598 C597 1.366 . S
C598 C599 1.414 . S
C598 C601 1.499 . S
C599 H573 0.950 . S
C599 C598 1.414 . S
C599 C600 1.374 . S
C600 H574 0.950 . S
C600 C596 1.385 . S
C600 C599 1.374 . S
C601 C598 1.499 . S
C601 C602 1.373 . S
C601 C603 1.389 . S
C602 H575 0.950 . S
C602 C588 1.377 . S
C602 C601 1.373 . S
C603 C587 1.377 . S
C603 C601 1.389 . S
C603 C604 1.524 . S
C604 C603 1.524 . S
C604 C605 1.397 . S
C604 C609 1.363 . S
C605 H576 0.950 . S
C605 C604 1.397 . S
C605 C606 1.334 . S
C606 H577 0.950 . S
C606 C605 1.334 . S
C606 C607 1.287 . S
C607 C606 1.287 . S
C607 C608 1.524 . S
C607 H610 0.999 . S
C608 H578 0.950 . S
C608 C607 1.524 . S
C608 C609 1.415 . S
C609 H579 0.950 . S
C609 C604 1.363 . S
C609 C608 1.415 . S
H610 C607 0.999 . S
H611 C592 0.913 . S
H612 C630 0.951 . S
H613 C632 0.951 . S
H614 C634 0.950 . S
H615 C635 0.950 . S
H616 C637 0.950 . S
H617 C640 0.950 . S
H618 C641 0.950 . S
H619 C643 0.950 . S
H620 C644 0.950 . S
H621 C645 0.951 . S
H622 C647 0.951 . S
H623 C649 0.950 . S
H624 C650 0.950 . S
H625 C652 0.950 . S
H626 C655 0.950 . S
H627 C656 0.950 . S
H628 C658 0.950 . S
H629 C659 0.950 . S
C630 H612 0.951 . S
C630 C631 1.366 . S
C630 C632 1.388 . S
C631 C630 1.366 . S
C631 C635 1.385 . S
C632 H613 0.951 . S
C632 C630 1.388 . S
C632 C633 1.366 . S
C633 C632 1.366 . S
C633 C634 1.414 . S
C633 C636 1.499 . S
C634 H614 0.950 . S
C634 C633 1.414 . S
C634 C635 1.374 . S
C635 H615 0.950 . S
C635 C631 1.385 . S
C635 C634 1.374 . S
C636 C633 1.499 . S
C636 C637 1.373 . S
C636 C638 1.389 . S
C637 H616 0.950 . S
C637 C636 1.373 . S
C637 C653 1.377 . S
C638 C636 1.389 . S
C638 C639 1.524 . S
C638 C652 1.377 . S
C639 C638 1.524 . S
C639 C640 1.397 . S
C639 C644 1.363 . S
C640 H617 0.950 . S
C640 C639 1.397 . S
C640 C641 1.334 . S
C641 H618 0.950 . S
C641 C640 1.334 . S
C641 C642 1.287 . S
C642 C641 1.287 . S
C642 C643 1.524 . S
C642 H661 0.913 . S
C643 H619 0.950 . S
C643 C642 1.524 . S
C643 C644 1.415 . S
C644 H620 0.950 . S
C644 C639 1.363 . S
C644 C643 1.415 . S
C645 H621 0.951 . S
C645 C646 1.366 . S
C645 C647 1.388 . S
C646 C645 1.366 . S
C646 C650 1.385 . S
C647 H622 0.951 . S
C647 C645 1.388 . S
C647 C648 1.366 . S
C648 C647 1.366 . S
C648 C649 1.414 . S
C648 C651 1.499 . S
C649 H623 0.950 . S
C649 C648 1.414 . S
C649 C650 1.374 . S
C650 H624 0.950 . S
C650 C646 1.385 . S
C650 C649 1.374 . S
C651 C648 1.499 . S
C651 C652 1.373 . S
C651 C653 1.389 . S
C652 H625 0.950 . S
C652 C638 1.377 . S
C652 C651 1.373 . S
C653 C637 1.377 . S
C653 C651 1.389 . S
C653 C654 1.524 . S
C654 C653 1.524 . S
C654 C655 1.397 . S
C654 C659 1.363 . S
C655 H626 0.950 . S
C655 C654 1.397 . S
C655 C656 1.334 . S
C656 H627 0.950 . S
C656 C655 1.334 . S
C656 C657 1.287 . S
C657 C656 1.287 . S
C657 C658 1.524 . S
C657 H660 0.999 . S
C658 H628 0.950 . S
C658 C657 1.524 . S
C658 C659 1.415 . S
C659 H629 0.950 . S
C659 C654 1.363 . S
C659 C658 1.415 . S
H660 C657 0.999 . S
H661 C642 0.913 . S
H662 C680 0.951 . S
H663 C682 0.951 . S
H664 C684 0.950 . S
H665 C685 0.950 . S
H666 C687 0.950 . S
H667 C690 0.950 . S
H668 C691 0.950 . S
H669 C693 0.950 . S
H670 C694 0.950 . S
H671 C695 0.951 . S
H672 C697 0.951 . S
H673 C699 0.950 . S
H674 C700 0.950 . S
H675 C702 0.950 . S
H676 C705 0.950 . S
H677 C706 0.950 . S
H678 C708 0.950 . S
H679 C709 0.950 . S
C680 H662 0.951 . S
C680 C681 1.366 . S
C680 C682 1.388 . S
C681 C680 1.366 . S
C681 C685 1.385 . S
C682 H663 0.951 . S
C682 C680 1.388 . S
C682 C683 1.366 . S
C683 C682 1.366 . S
C683 C684 1.414 . S
C683 C686 1.499 . S
C684 H664 0.950 . S
C684 C683 1.414 . S
C684 C685 1.374 . S
C685 H665 0.950 . S
C685 C681 1.385 . S
C685 C684 1.374 . S
C686 C683 1.499 . S
C686 C687 1.373 . S
C686 C688 1.389 . S
C687 H666 0.950 . S
C687 C686 1.373 . S
C687 C703 1.377 . S
C688 C686 1.389 . S
C688 C689 1.524 . S
C688 C702 1.377 . S
C689 C688 1.524 . S
C689 C690 1.397 . S
C689 C694 1.363 . S
C690 H667 0.950 . S
C690 C689 1.397 . S
C690 C691 1.334 . S
C691 H668 0.950 . S
C691 C690 1.334 . S
C691 C692 1.287 . S
C692 C691 1.287 . S
C692 C693 1.524 . S
C692 H711 0.913 . S
C693 H669 0.950 . S
C693 C692 1.524 . S
C693 C694 1.415 . S
C694 H670 0.950 . S
C694 C689 1.363 . S
C694 C693 1.415 . S
C695 H671 0.951 . S
C695 C696 1.366 . S
C695 C697 1.388 . S
C696 C695 1.366 . S
C696 C700 1.385 . S
C697 H672 0.951 . S
C697 C695 1.388 . S
C697 C698 1.366 . S
C698 C697 1.366 . S
C698 C699 1.414 . S
C698 C701 1.499 . S
C699 H673 0.950 . S
C699 C698 1.414 . S
C699 C700 1.374 . S
C700 H674 0.950 . S
C700 C696 1.385 . S
C700 C699 1.374 . S
C701 C698 1.499 . S
C701 C702 1.373 . S
C701 C703 1.389 . S
C702 H675 0.950 . S
C702 C688 1.377 . S
C702 C701 1.373 . S
C703 C687 1.377 . S
C703 C701 1.389 . S
C703 C704 1.524 . S
C704 C703 1.524 . S
C704 C705 1.397 . S
C704 C709 1.363 . S
C705 H676 0.950 . S
C705 C704 1.397 . S
C705 C706 1.334 . S
C706 H677 0.950 . S
C706 C705 1.334 . S
C706 C707 1.287 . S
C707 C706 1.287 . S
C707 C708 1.524 . S
C707 H710 0.999 . S
C708 H678 0.950 . S
C708 C707 1.524 . S
C708 C709 1.415 . S
C709 H679 0.950 . S
C709 C704 1.363 . S
C709 C708 1.415 . S
H710 C707 0.999 . S
H711 C692 0.913 . S
H712 C730 0.951 . S
H713 C732 0.951 . S
H714 C734 0.950 . S
H715 C735 0.950 . S
H716 C737 0.950 . S
H717 C740 0.950 . S
H718 C741 0.950 . S
H719 C743 0.950 . S
H720 C744 0.950 . S
H721 C745 0.951 . S
H722 C747 0.951 . S
H723 C749 0.950 . S
H724 C750 0.950 . S
H725 C752 0.950 . S
H726 C755 0.950 . S
H727 C756 0.950 . S
H728 C758 0.950 . S
H729 C759 0.950 . S
C730 H712 0.951 . S
C730 C731 1.366 . S
C730 C732 1.388 . S
C731 C730 1.366 . S
C731 C735 1.385 . S
C732 H713 0.951 . S
C732 C730 1.388 . S
C732 C733 1.366 . S
C733 C732 1.366 . S
C733 C734 1.414 . S
C733 C736 1.499 . S
C734 H714 0.950 . S
C734 C733 1.414 . S
C734 C735 1.374 . S
C735 H715 0.950 . S
C735 C731 1.385 . S
C735 C734 1.374 . S
C736 C733 1.499 . S
C736 C737 1.373 . S
C736 C738 1.389 . S
C737 H716 0.950 . S
C737 C736 1.373 . S
C737 C753 1.377 . S
C738 C736 1.389 . S
C738 C739 1.524 . S
C738 C752 1.377 . S
C739 C738 1.524 . S
C739 C740 1.397 . S
C739 C744 1.363 . S
C740 H717 0.950 . S
C740 C739 1.397 . S
C740 C741 1.334 . S
C741 H718 0.950 . S
C741 C740 1.334 . S
C741 C742 1.287 . S
C742 C741 1.287 . S
C742 C743 1.524 . S
C742 H761 0.913 . S
C743 H719 0.950 . S
C743 C742 1.524 . S
C743 C744 1.415 . S
C744 H720 0.950 . S
C744 C739 1.363 . S
C744 C743 1.415 . S
C745 H721 0.951 . S
C745 C746 1.366 . S
C745 C747 1.388 . S
C746 C745 1.366 . S
C746 C750 1.385 . S
C747 H722 0.951 . S
C747 C745 1.388 . S
C747 C748 1.366 . S
C748 C747 1.366 . S
C748 C749 1.414 . S
C748 C751 1.499 . S
C749 H723 0.950 . S
C749 C748 1.414 . S
C749 C750 1.374 . S
C750 H724 0.950 . S
C750 C746 1.385 . S
C750 C749 1.374 . S
C751 C748 1.499 . S
C751 C752 1.373 . S
C751 C753 1.389 . S
C752 H725 0.950 . S
C752 C738 1.377 . S
C752 C751 1.373 . S
C753 C737 1.377 . S
C753 C751 1.389 . S
C753 C754 1.524 . S
C754 C753 1.524 . S
C754 C755 1.397 . S
C754 C759 1.363 . S
C755 H726 0.950 . S
C755 C754 1.397 . S
C755 C756 1.334 . S
C756 H727 0.950 . S
C756 C755 1.334 . S
C756 C757 1.287 . S
C757 C756 1.287 . S
C757 C758 1.524 . S
C757 H760 0.999 . S
C758 H728 0.950 . S
C758 C757 1.524 . S
C758 C759 1.415 . S
C759 H729 0.950 . S
C759 C754 1.363 . S
C759 C758 1.415 . S
H760 C757 0.999 . S
H761 C742 0.913 . S
H762 C780 0.951 . S
H763 C782 0.951 . S
H764 C784 0.950 . S
H765 C785 0.950 . S
H766 C787 0.950 . S
H767 C790 0.950 . S
H768 C791 0.950 . S
H769 C793 0.950 . S
H770 C794 0.950 . S
H771 C795 0.951 . S
H772 C797 0.951 . S
H773 C799 0.950 . S
H774 C800 0.950 . S
H775 C802 0.950 . S
H776 C805 0.950 . S
H777 C806 0.950 . S
H778 C808 0.950 . S
H779 C809 0.950 . S
C780 H762 0.951 . S
C780 C781 1.366 . S
C780 C782 1.388 . S
C781 C780 1.366 . S
C781 C785 1.385 . S
C782 H763 0.951 . S
C782 C780 1.388 . S
C782 C783 1.366 . S
C783 C782 1.366 . S
C783 C784 1.414 . S
C783 C786 1.499 . S
C784 H764 0.950 . S
C784 C783 1.414 . S
C784 C785 1.374 . S
C785 H765 0.950 . S
C785 C781 1.385 . S
C785 C784 1.374 . S
C786 C783 1.499 . S
C786 C787 1.373 . S
C786 C788 1.389 . S
C787 H766 0.950 . S
C787 C786 1.373 . S
C787 C803 1.377 . S
C788 C786 1.389 . S
C788 C789 1.524 . S
C788 C802 1.377 . S
C789 C788 1.524 . S
C789 C790 1.397 . S
C789 C794 1.363 . S
C790 H767 0.950 . S
C790 C789 1.397 . S
C790 C791 1.334 . S
C791 H768 0.950 . S
C791 C790 1.334 . S
C791 C792 1.287 . S
C792 C791 1.287 . S
C792 C793 1.524 . S
C792 H811 0.913 . S
C793 H769 0.950 . S
C793 C792 1.524 . S
C793 C794 1.415 . S
C794 H770 0.950 . S
C794 C789 1.363 . S
C794 C793 1.415 . S
C795 H771 0.951 . S
C795 C796 1.366 . S
C795 C797 1.388 . S
C796 C795 1.366 . S
C796 C800 1.385 . S
C797 H772 0.951 . S
C797 C795 1.388 . S
C797 C798 1.366 . S
C798 C797 1.366 . S
C798 C799 1.414 . S
C798 C801 1.499 . S
C799 H773 0.950 . S
C799 C798 1.414 . S
C799 C800 1.374 . S
C800 H774 0.950 . S
C800 C796 1.385 . S
C800 C799 1.374 . S
C801 C798 1.499 . S
C801 C802 1.373 . S
C801 C803 1.389 . S
C802 H775 0.950 . S
C802 C788 1.377 . S
C802 C801 1.373 . S
C803 C787 1.377 . S
C803 C801 1.389 . S
C803 C804 1.524 . S
C804 C803 1.524 . S
C804 C805 1.397 . S
C804 C809 1.363 . S
C805 H776 0.950 . S
C805 C804 1.397 . S
C805 C806 1.334 . S
C806 H777 0.950 . S
C806 C805 1.334 . S
C806 C807 1.287 . S
C807 C806 1.287 . S
C807 C808 1.524 . S
C807 H810 0.999 . S
C808 H778 0.950 . S
C808 C807 1.524 . S
C808 C809 1.415 . S
C809 H779 0.950 . S
C809 C804 1.363 . S
C809 C808 1.415 . S
H810 C807 0.999 . S
H811 C792 0.913 . S
H812 C830 0.951 . S
H813 C832 0.951 . S
H814 C834 0.950 . S
H815 C835 0.950 . S
H816 C837 0.950 . S
H817 C840 0.950 . S
H818 C841 0.950 . S
H819 C843 0.950 . S
H820 C844 0.950 . S
H821 C845 0.951 . S
H822 C847 0.951 . S
H823 C849 0.950 . S
H824 C850 0.950 . S
H825 C852 0.950 . S
H826 C855 0.950 . S
H827 C856 0.950 . S
H828 C858 0.950 . S
H829 C859 0.950 . S
C830 H812 0.951 . S
C830 C831 1.366 . S
C830 C832 1.388 . S
C831 C830 1.366 . S
C831 C835 1.385 . S
C832 H813 0.951 . S
C832 C830 1.388 . S
C832 C833 1.366 . S
C833 C832 1.366 . S
C833 C834 1.414 . S
C833 C836 1.499 . S
C834 H814 0.950 . S
C834 C833 1.414 . S
C834 C835 1.374 . S
C835 H815 0.950 . S
C835 C831 1.385 . S
C835 C834 1.374 . S
C836 C833 1.499 . S
C836 C837 1.373 . S
C836 C838 1.389 . S
C837 H816 0.950 . S
C837 C836 1.373 . S
C837 C853 1.377 . S
C838 C836 1.389 . S
C838 C839 1.524 . S
C838 C852 1.377 . S
C839 C838 1.524 . S
C839 C840 1.397 . S
C839 C844 1.363 . S
C840 H817 0.950 . S
C840 C839 1.397 . S
C840 C841 1.334 . S
C841 H818 0.950 . S
C841 C840 1.334 . S
C841 C842 1.287 . S
C842 C841 1.287 . S
C842 C843 1.524 . S
C842 H861 0.913 . S
C843 H819 0.950 . S
C843 C842 1.524 . S
C843 C844 1.415 . S
C844 H820 0.950 . S
C844 C839 1.363 . S
C844 C843 1.415 . S
C845 H821 0.951 . S
C845 C846 1.366 . S
C845 C847 1.388 . S
C846 C845 1.366 . S
C846 C850 1.385 . S
C847 H822 0.951 . S
C847 C845 1.388 . S
C847 C848 1.366 . S
C848 C847 1.366 . S
C848 C849 1.414 . S
C848 C851 1.499 . S
C849 H823 0.950 . S
C849 C848 1.414 . S
C849 C850 1.374 . S
C850 H824 0.950 . S
C850 C846 1.385 . S
C850 C849 1.374 . S
C851 C848 1.499 . S
C851 C852 1.373 . S
C851 C853 1.389 . S
C852 H825 0.950 . S
C852 C838 1.377 . S
C852 C851 1.373 . S
C853 C837 1.377 . S
C853 C851 1.389 . S
C853 C854 1.524 . S
C854 C853 1.524 . S
C854 C855 1.397 . S
C854 C859 1.363 . S
C855 H826 0.950 . S
C855 C854 1.397 . S
C855 C856 1.334 . S
C856 H827 0.950 . S
C856 C855 1.334 . S
C856 C857 1.287 . S
C857 C856 1.287 . S
C857 C858 1.524 . S
C857 H860 0.999 . S
C858 H828 0.950 . S
C858 C857 1.524 . S
C858 C859 1.415 . S
C859 H829 0.950 . S
C859 C854 1.363 . S
C859 C858 1.415 . S
H860 C857 0.999 . S
H861 C842 0.913 . S
H862 C880 0.951 . S
H863 C882 0.951 . S
H864 C884 0.950 . S
H865 C885 0.950 . S
H866 C887 0.950 . S
H867 C890 0.950 . S
H868 C891 0.950 . S
H869 C893 0.950 . S
H870 C894 0.950 . S
H871 C895 0.951 . S
H872 C897 0.951 . S
H873 C899 0.950 . S
H874 C900 0.950 . S
H875 C902 0.950 . S
H876 C905 0.950 . S
H877 C906 0.950 . S
H878 C908 0.950 . S
H879 C909 0.950 . S
C880 H862 0.951 . S
C880 C881 1.366 . S
C880 C882 1.388 . S
C881 C880 1.366 . S
C881 C885 1.385 . S
C882 H863 0.951 . S
C882 C880 1.388 . S
C882 C883 1.366 . S
C883 C882 1.366 . S
C883 C884 1.414 . S
C883 C886 1.499 . S
C884 H864 0.950 . S
C884 C883 1.414 . S
C884 C885 1.374 . S
C885 H865 0.950 . S
C885 C881 1.385 . S
C885 C884 1.374 . S
C886 C883 1.499 . S
C886 C887 1.373 . S
C886 C888 1.389 . S
C887 H866 0.950 . S
C887 C886 1.373 . S
C887 C903 1.377 . S
C888 C886 1.389 . S
C888 C889 1.524 . S
C888 C902 1.377 . S
C889 C888 1.524 . S
C889 C890 1.397 . S
C889 C894 1.363 . S
C890 H867 0.950 . S
C890 C889 1.397 . S
C890 C891 1.334 . S
C891 H868 0.950 . S
C891 C890 1.334 . S
C891 C892 1.287 . S
C892 C891 1.287 . S
C892 C893 1.524 . S
C892 H911 0.913 . S
C893 H869 0.950 . S
C893 C892 1.524 . S
C893 C894 1.415 . S
C894 H870 0.950 . S
C894 C889 1.363 . S
C894 C893 1.415 . S
C895 H871 0.951 . S
C895 C896 1.366 . S
C895 C897 1.388 . S
C896 C895 1.366 . S
C896 C900 1.385 . S
C897 H872 0.951 . S
C897 C895 1.388 . S
C897 C898 1.366 . S
C898 C897 1.366 . S
C898 C899 1.414 . S
C898 C901 1.499 . S
C899 H873 0.950 . S
C899 C898 1.414 . S
C899 C900 1.374 . S
C900 H874 0.950 . S
C900 C896 1.385 . S
C900 C899 1.374 . S
C901 C898 1.499 . S
C901 C902 1.373 . S
C901 C903 1.389 . S
C902 H875 0.950 . S
C902 C888 1.377 . S
C902 C901 1.373 . S
C903 C887 1.377 . S
C903 C901 1.389 . S
C903 C904 1.524 . S
C904 C903 1.524 . S
C904 C905 1.397 . S
C904 C909 1.363 . S
C905 H876 0.950 . S
C905 C904 1.397 . S
C905 C906 1.334 . S
C906 H877 0.950 . S
C906 C905 1.334 . S
C906 C907 1.287 . S
C907 C906 1.287 . S
C907 C908 1.524 . S
C907 H910 0.999 . S
C908 H878 0.950 . S
C908 C907 1.524 . S
C908 C909 1.415 . S
C909 H879 0.950 . S
C909 C904 1.363 . S
C909 C908 1.415 . S
H910 C907 0.999 . S
H911 C892 0.913 . S
H912 C930 0.951 . S
H913 C932 0.951 . S
H914 C934 0.950 . S
H915 C935 0.950 . S
H916 C937 0.950 . S
H917 C940 0.950 . S
H918 C941 0.950 . S
H919 C943 0.950 . S
H920 C944 0.950 . S
H921 C945 0.951 1_655 S
H922 C947 0.951 1_655 S
H923 C949 0.950 1_554 S
H924 C950 0.950 . S
H925 C952 0.950 . S
H926 C955 0.950 . S
H927 C956 0.950 1_556 S
H928 C958 0.950 . S
H929 C959 0.950 . S
C930 H912 0.951 . S
C930 C931 1.366 . S
C930 C932 1.388 . S
C931 C930 1.366 . S
C931 C935 1.385 1_455 S
C932 H913 0.951 . S
C932 C930 1.388 . S
C932 C933 1.366 . S
C933 C932 1.366 . S
C933 C934 1.414 1_455 S
C933 C936 1.499 . S
C934 H914 0.950 . S
C934 C933 1.414 1_655 S
C934 C935 1.374 . S
C935 H915 0.950 . S
C935 C931 1.385 1_655 S
C935 C934 1.374 . S
C936 C933 1.499 . S
C936 C937 1.373 . S
C936 C938 1.389 . S
C937 H916 0.950 . S
C937 C936 1.373 . S
C937 C953 1.377 . S
C938 C936 1.389 . S
C938 C939 1.524 . S
C938 C952 1.377 . S
C939 C938 1.524 . S
C939 C940 1.397 . S
C939 C944 1.363 . S
C940 H917 0.950 . S
C940 C939 1.397 . S
C940 C941 1.334 . S
C941 H918 0.950 . S
C941 C940 1.334 . S
C941 C942 1.287 . S
C942 C941 1.287 . S
C942 C943 1.524 . S
C942 H961 0.913 . S
C943 H919 0.950 . S
C943 C942 1.524 . S
C943 C944 1.415 . S
C944 H920 0.950 . S
C944 C939 1.363 . S
C944 C943 1.415 . S
C945 H921 0.951 1_455 S
C945 C946 1.366 . S
C945 C947 1.388 . S
C946 C945 1.366 . S
C946 C950 1.385 . S
C947 H922 0.951 1_455 S
C947 C945 1.388 . S
C947 C948 1.366 1_556 S
C948 C947 1.366 1_554 S
C948 C949 1.414 1_554 S
C948 C951 1.499 . S
C949 H923 0.950 1_556 S
C949 C948 1.414 1_556 S
C949 C950 1.374 . S
C950 H924 0.950 . S
C950 C946 1.385 . S
C950 C949 1.374 . S
C951 C948 1.499 . S
C951 C952 1.373 . S
C951 C953 1.389 . S
C952 H925 0.950 . S
C952 C938 1.377 . S
C952 C951 1.373 . S
C953 C937 1.377 . S
C953 C951 1.389 . S
C953 C954 1.524 . S
C954 C953 1.524 . S
C954 C955 1.397 . S
C954 C959 1.363 1_455 S
C955 H926 0.950 . S
C955 C954 1.397 . S
C955 C956 1.334 . S
C956 H927 0.950 1_554 S
C956 C955 1.334 . S
C956 C957 1.287 1_455 S
C957 C956 1.287 1_655 S
C957 C958 1.524 . S
C957 H960 0.973 1_554 S
C958 H928 0.950 . S
C958 C957 1.524 . S
C958 C959 1.415 . S
C959 H929 0.950 . S
C959 C954 1.363 1_655 S
C959 C958 1.415 . S
H960 C957 0.973 1_556 S
H961 C942 0.913 . S
H962 C980 0.951 . S
H963 C982 0.951 . S
H964 C984 0.950 . S
H965 C985 0.950 . S
H966 C987 0.950 1_565 S
H967 C990 0.950 1_565 S
H968 C991 0.950 . S
H969 C993 0.950 . S
H970 C994 0.950 . S
H971 C995 0.951 . S
H972 C997 0.951 . S
H973 C999 0.950 . S
H974 C1000 0.950 . S
H975 C1002 0.950 . S
H976 C1005 0.950 . S
H977 C1006 0.950 . S
H978 C1008 0.950 . S
H979 C1009 0.950 . S
C980 H962 0.951 . S
C980 C981 1.366 . S
C980 C982 1.388 . S
C981 C980 1.366 . S
C981 C985 1.385 1_545 S
C982 H963 0.951 . S
C982 C980 1.388 . S
C982 C983 1.366 . S
C983 C982 1.366 . S
C983 C984 1.414 1_545 S
C983 C986 1.499 . S
C984 H964 0.950 . S
C984 C983 1.414 1_565 S
C984 C985 1.374 . S
C985 H965 0.950 . S
C985 C981 1.385 1_565 S
C985 C984 1.374 . S
C986 C983 1.499 . S
C986 C987 1.373 . S
C986 C988 1.389 . S
C987 H966 0.950 1_545 S
C987 C986 1.373 . S
C987 C1003 1.377 . S
C988 C986 1.389 . S
C988 C989 1.524 . S
C988 C1002 1.377 . S
C989 C988 1.524 . S
C989 C990 1.397 . S
C989 C994 1.363 . S
C990 H967 0.950 1_545 S
C990 C989 1.397 . S
C990 C991 1.334 . S
C991 H968 0.950 . S
C991 C990 1.334 . S
C991 C992 1.287 . S
C992 C991 1.287 . S
C992 C993 1.524 . S
C992 H1011 0.913 . S
C993 H969 0.950 . S
C993 C992 1.524 . S
C993 C994 1.415 . S
C994 H970 0.950 . S
C994 C989 1.363 . S
C994 C993 1.415 . S
C995 H971 0.951 . S
C995 C996 1.366 1_565 S
C995 C997 1.388 . S
C996 C995 1.366 1_545 S
C996 C1000 1.385 . S
C997 H972 0.951 . S
C997 C995 1.388 . S
C997 C998 1.366 1_565 S
C998 C997 1.366 1_545 S
C998 C999 1.414 . S
C998 C1001 1.499 . S
C999 H973 0.950 . S
C999 C998 1.414 . S
C999 C1000 1.374 . S
C1000 H974 0.950 . S
C1000 C996 1.385 . S
C1000 C999 1.374 . S
C1001 C998 1.499 . S
C1001 C1002 1.373 . S
C1001 C1003 1.389 . S
C1002 H975 0.950 . S
C1002 C988 1.377 . S
C1002 C1001 1.373 . S
C1003 C987 1.377 . S
C1003 C1001 1.389 . S
C1003 C1004 1.524 1_545 S
C1004 C1003 1.524 1_565 S
C1004 C1005 1.397 1_565 S
C1004 C1009 1.363 . S
C1005 H976 0.950 . S
C1005 C1004 1.397 1_545 S
C1005 C1006 1.334 . S
C1006 H977 0.950 . S
C1006 C1005 1.334 . S
C1006 C1007 1.287 1_545 S
C1007 C1006 1.287 1_565 S
C1007 C1008 1.524 . S
C1007 H1010 0.999 . S
C1008 H978 0.950 . S
C1008 C1007 1.524 . S
C1008 C1009 1.415 . S
C1009 H979 0.950 . S
C1009 C1004 1.363 . S
C1009 C1008 1.415 . S
H1010 C1007 0.999 . S
H1011 C992 0.913 . S
H1012 C1030 0.951 . S
H1013 C1032 0.951 . S
H1014 C1034 0.950 . S
H1015 C1035 0.950 . S
H1016 C1037 0.950 . S
H1017 C1040 0.950 . S
H1018 C1041 0.950 . S
H1019 C1043 0.950 . S
H1020 C1044 0.950 . S
H1021 C1045 0.951 . S
H1022 C1047 0.951 . S
H1023 C1049 0.950 . S
H1024 C1050 0.950 . S
H1025 C1052 0.950 . S
H1026 C1055 0.950 . S
H1027 C1056 0.950 . S
H1028 C1058 0.950 . S
H1029 C1059 0.950 . S
C1030 H1012 0.951 . S
C1030 C1031 1.366 . S
C1030 C1032 1.388 . S
C1031 C1030 1.366 . S
C1031 C1035 1.385 . S
C1032 H1013 0.951 . S
C1032 C1030 1.388 . S
C1032 C1033 1.366 . S
C1033 C1032 1.366 . S
C1033 C1034 1.414 . S
C1033 C1036 1.499 . S
C1034 H1014 0.950 . S
C1034 C1033 1.414 . S
C1034 C1035 1.374 . S
C1035 H1015 0.950 . S
C1035 C1031 1.385 . S
C1035 C1034 1.374 . S
C1036 C1033 1.499 . S
C1036 C1037 1.373 . S
C1036 C1038 1.389 . S
C1037 H1016 0.950 . S
C1037 C1036 1.373 . S
C1037 C1053 1.377 . S
C1038 C1036 1.389 . S
C1038 C1039 1.524 . S
C1038 C1052 1.377 . S
C1039 C1038 1.524 . S
C1039 C1040 1.397 . S
C1039 C1044 1.363 . S
C1040 H1017 0.950 . S
C1040 C1039 1.397 . S
C1040 C1041 1.334 . S
C1041 H1018 0.950 . S
C1041 C1040 1.334 . S
C1041 C1042 1.287 . S
C1042 C1041 1.287 . S
C1042 C1043 1.524 . S
C1042 H1061 0.913 . S
C1043 H1019 0.950 . S
C1043 C1042 1.524 . S
C1043 C1044 1.415 . S
C1044 H1020 0.950 . S
C1044 C1039 1.363 . S
C1044 C1043 1.415 . S
C1045 H1021 0.951 . S
C1045 C1046 1.366 . S
C1045 C1047 1.388 . S
C1046 C1045 1.366 . S
C1046 C1050 1.385 . S
C1047 H1022 0.951 . S
C1047 C1045 1.388 . S
C1047 C1048 1.366 . S
C1048 C1047 1.366 . S
C1048 C1049 1.414 . S
C1048 C1051 1.499 . S
C1049 H1023 0.950 . S
C1049 C1048 1.414 . S
C1049 C1050 1.374 . S
C1050 H1024 0.950 . S
C1050 C1046 1.385 . S
C1050 C1049 1.374 . S
C1051 C1048 1.499 . S
C1051 C1052 1.373 . S
C1051 C1053 1.389 . S
C1052 H1025 0.950 . S
C1052 C1038 1.377 . S
C1052 C1051 1.373 . S
C1053 C1037 1.377 . S
C1053 C1051 1.389 . S
C1053 C1054 1.524 . S
C1054 C1053 1.524 . S
C1054 C1055 1.397 . S
C1054 C1059 1.363 . S
C1055 H1026 0.950 . S
C1055 C1054 1.397 . S
C1055 C1056 1.334 . S
C1056 H1027 0.950 . S
C1056 C1055 1.334 . S
C1056 C1057 1.287 . S
C1057 C1056 1.287 . S
C1057 C1058 1.524 . S
C1057 H1060 0.999 . S
C1058 H1028 0.950 . S
C1058 C1057 1.524 . S
C1058 C1059 1.415 . S
C1059 H1029 0.950 . S
C1059 C1054 1.363 . S
C1059 C1058 1.415 . S
H1060 C1057 0.999 . S
H1061 C1042 0.913 . S
H1062 C1080 0.951 . S
H1063 C1082 0.951 . S
H1064 C1084 0.950 . S
H1065 C1085 0.950 . S
H1066 C1087 0.950 . S
H1067 C1090 0.950 . S
H1068 C1091 0.950 . S
H1069 C1093 0.950 . S
H1070 C1094 0.950 . S
H1071 C1095 0.951 . S
H1072 C1097 0.951 . S
H1073 C1099 0.950 . S
H1074 C1100 0.950 . S
H1075 C1102 0.950 . S
H1076 C1105 0.950 . S
H1077 C1106 0.950 . S
H1078 C1108 0.950 . S
H1079 C1109 0.950 . S
C1080 H1062 0.951 . S
C1080 C1081 1.366 1_565 S
C1080 C1082 1.388 . S
C1081 C1080 1.366 1_545 S
C1081 C1085 1.385 . S
C1082 H1063 0.951 . S
C1082 C1080 1.388 . S
C1082 C1083 1.366 1_565 S
C1083 C1082 1.366 1_545 S
C1083 C1084 1.414 . S
C1083 C1086 1.499 . S
C1084 H1064 0.950 . S
C1084 C1083 1.414 . S
C1084 C1085 1.374 . S
C1085 H1065 0.950 . S
C1085 C1081 1.385 . S
C1085 C1084 1.374 . S
C1086 C1083 1.499 . S
C1086 C1087 1.373 . S
C1086 C1088 1.398 1_545 S
C1087 H1066 0.950 . S
C1087 C1086 1.373 . S
C1087 C1103 1.377 . S
C1088 C1086 1.398 1_565 S
C1088 C1089 1.511 . S
C1088 C1102 1.381 . S
C1089 C1088 1.511 . S
C1089 C1090 1.397 1_565 S
C1089 C1094 1.363 . S
C1090 H1067 0.950 . S
C1090 C1089 1.397 1_545 S
C1090 C1091 1.334 . S
C1091 H1068 0.950 . S
C1091 C1090 1.334 . S
C1091 C1092 1.287 1_545 S
C1092 C1091 1.287 1_565 S
C1092 C1093 1.524 . S
C1092 H1111 0.913 . S
C1093 H1069 0.950 . S
C1093 C1092 1.524 . S
C1093 C1094 1.415 . S
C1094 H1070 0.950 . S
C1094 C1089 1.363 . S
C1094 C1093 1.415 . S
C1095 H1071 0.951 . S
C1095 C1096 1.366 . S
C1095 C1097 1.388 . S
C1096 C1095 1.366 . S
C1096 C1100 1.385 1_545 S
C1097 H1072 0.951 . S
C1097 C1095 1.388 . S
C1097 C1098 1.366 . S
C1098 C1097 1.366 . S
C1098 C1099 1.414 1_545 S
C1098 C1101 1.499 . S
C1099 H1073 0.950 . S
C1099 C1098 1.414 1_565 S
C1099 C1100 1.374 . S
C1100 H1074 0.950 . S
C1100 C1096 1.385 1_565 S
C1100 C1099 1.374 . S
C1101 C1098 1.499 . S
C1101 C1102 1.373 1_545 S
C1101 C1103 1.389 . S
C1102 H1075 0.950 . S
C1102 C1088 1.381 . S
C1102 C1101 1.373 1_565 S
C1103 C1087 1.377 . S
C1103 C1101 1.389 . S
C1103 C1104 1.524 . S
C1104 C1103 1.524 . S
C1104 C1105 1.397 1_545 S
C1104 C1109 1.363 . S
C1105 H1076 0.950 . S
C1105 C1104 1.397 1_565 S
C1105 C1106 1.334 . S
C1106 H1077 0.950 . S
C1106 C1105 1.334 . S
C1106 C1107 1.287 1_565 S
C1107 C1106 1.287 1_545 S
C1107 C1108 1.524 . S
C1107 H1110 0.999 . S
C1108 H1078 0.950 . S
C1108 C1107 1.524 . S
C1108 C1109 1.415 . S
C1109 H1079 0.950 . S
C1109 C1104 1.363 . S
C1109 C1108 1.415 . S
H1110 C1107 0.999 . S
H1111 C1092 0.913 . S
H1112 C1130 0.951 . S
H1113 C1132 0.951 . S
H1114 C1134 0.950 . S
H1115 C1135 0.950 . S
H1116 C1137 0.950 . S
H1117 C1140 0.950 . S
H1118 C1141 0.950 . S
H1119 C1143 0.950 . S
H1120 C1144 0.950 . S
H1121 C1145 0.951 . S
H1122 C1147 0.951 1_556 S
H1123 C1149 0.949 1_556 S
H1124 C1150 0.950 . S
H1125 C1152 0.950 . S
H1126 C1155 0.950 . S
H1127 C1156 0.920 1_554 S
H1128 C1158 0.950 . S
H1129 C1159 0.950 . S
C1130 H1112 0.951 . S
C1130 C1131 1.366 . S
C1130 C1132 1.388 . S
C1131 C1130 1.366 . S
C1131 C1135 1.385 . S
C1132 H1113 0.951 . S
C1132 C1130 1.388 . S
C1132 C1133 1.366 . S
C1133 C1132 1.366 . S
C1133 C1134 1.414 . S
C1133 C1136 1.499 . S
C1134 H1114 0.950 . S
C1134 C1133 1.414 . S
C1134 C1135 1.374 . S
C1135 H1115 0.950 . S
C1135 C1131 1.385 . S
C1135 C1134 1.374 . S
C1136 C1133 1.499 . S
C1136 C1137 1.373 . S
C1136 C1138 1.389 . S
C1137 H1116 0.950 . S
C1137 C1136 1.373 . S
C1137 C1153 1.377 . S
C1138 C1136 1.389 . S
C1138 C1139 1.524 . S
C1138 C1152 1.377 . S
C1139 C1138 1.524 . S
C1139 C1140 1.397 . S
C1139 C1144 1.363 . S
C1140 H1117 0.950 . S
C1140 C1139 1.397 . S
C1140 C1141 1.334 . S
C1141 H1118 0.950 . S
C1141 C1140 1.334 . S
C1141 C1142 1.287 . S
C1142 C1141 1.287 . S
C1142 C1143 1.524 . S
C1142 H1161 0.913 . S
C1143 H1119 0.950 . S
C1143 C1142 1.524 . S
C1143 C1144 1.415 . S
C1144 H1120 0.950 . S
C1144 C1139 1.363 . S
C1144 C1143 1.415 . S
C1145 H1121 0.951 . S
C1145 C1146 1.366 . S
C1145 C1147 1.388 . S
C1146 C1145 1.366 . S
C1146 C1150 1.385 . S
C1147 H1122 0.951 1_554 S
C1147 C1145 1.388 . S
C1147 C1148 1.366 1_554 S
C1148 C1147 1.366 1_556 S
C1148 C1149 1.414 1_556 S
C1148 C1151 1.499 . S
C1149 H1123 0.949 1_554 S
C1149 C1148 1.414 1_554 S
C1149 C1150 1.374 . S
C1150 H1124 0.950 . S
C1150 C1146 1.385 . S
C1150 C1149 1.374 . S
C1151 C1148 1.499 . S
C1151 C1152 1.373 . S
C1151 C1153 1.389 . S
C1152 H1125 0.950 . S
C1152 C1138 1.377 . S
C1152 C1151 1.373 . S
C1153 C1137 1.377 . S
C1153 C1151 1.389 . S
C1153 C1154 1.524 . S
C1154 C1153 1.524 . S
C1154 C1155 1.397 . S
C1154 C1159 1.363 . S
C1155 H1126 0.950 . S
C1155 C1154 1.397 . S
C1155 C1156 1.356 . S
C1156 H1127 0.920 1_556 S
C1156 C1155 1.356 . S
C1156 C1157 1.298 . S
C1157 C1156 1.298 . S
C1157 C1158 1.524 . S
C1157 H1160 0.999 1_556 S
C1158 H1128 0.950 . S
C1158 C1157 1.524 . S
C1158 C1159 1.415 . S
C1159 H1129 0.950 . S
C1159 C1154 1.363 . S
C1159 C1158 1.415 . S
H1160 C1157 0.999 1_554 S
H1161 C1142 0.913 . S
H1162 C1180 0.951 . S
H1163 C1182 0.951 . S
H1164 C1184 0.950 1_655 S
H1165 C1185 0.947 . S
H1166 C1187 0.950 . S
H1167 C1190 0.950 . S
H1168 C1191 0.950 . S
H1169 C1193 0.950 . S
H1170 C1194 0.950 . S
H1171 C1195 0.951 . S
H1172 C1197 0.951 . S
H1173 C1199 0.950 . S
H1174 C1200 0.950 . S
H1175 C1202 0.950 . S
H1176 C1205 0.950 . S
H1177 C1206 0.950 . S
H1178 C1208 0.950 . S
H1179 C1209 0.950 . S
C1180 H1162 0.951 . S
C1180 C1181 1.366 . S
C1180 C1182 1.388 . S
C1181 C1180 1.366 . S
C1181 C1185 1.385 . S
C1182 H1163 0.951 . S
C1182 C1180 1.388 . S
C1182 C1183 1.366 . S
C1183 C1182 1.366 . S
C1183 C1184 1.414 . S
C1183 C1186 1.499 . S
C1184 H1164 0.950 1_455 S
C1184 C1183 1.414 . S
C1184 C1185 1.374 . S
C1185 H1165 0.947 . S
C1185 C1181 1.385 . S
C1185 C1184 1.374 . S
C1186 C1183 1.499 . S
C1186 C1187 1.373 1_455 S
C1186 C1188 1.389 . S
C1187 H1166 0.950 . S
C1187 C1186 1.373 1_655 S
C1187 C1203 1.377 . S
C1188 C1186 1.389 . S
C1188 C1189 1.524 . S
C1188 C1202 1.377 . S
C1189 C1188 1.524 . S
C1189 C1190 1.397 . S
C1189 C1194 1.363 . S
C1190 H1167 0.950 . S
C1190 C1189 1.397 . S
C1190 C1191 1.334 . S
C1191 H1168 0.950 . S
C1191 C1190 1.334 . S
C1191 C1192 1.287 . S
C1192 C1191 1.287 . S
C1192 C1193 1.524 . S
C1192 H1211 0.913 . S
C1193 H1169 0.950 . S
C1193 C1192 1.524 . S
C1193 C1194 1.415 . S
C1194 H1170 0.950 . S
C1194 C1189 1.363 . S
C1194 C1193 1.415 . S
C1195 H1171 0.951 . S
C1195 C1196 1.366 1_655 S
C1195 C1197 1.388 . S
C1196 C1195 1.366 1_455 S
C1196 C1200 1.385 . S
C1197 H1172 0.951 . S
C1197 C1195 1.388 . S
C1197 C1198 1.366 1_655 S
C1198 C1197 1.366 1_455 S
C1198 C1199 1.414 . S
C1198 C1201 1.499 . S
C1199 H1173 0.950 . S
C1199 C1198 1.414 . S
C1199 C1200 1.374 . S
C1200 H1174 0.950 . S
C1200 C1196 1.385 . S
C1200 C1199 1.374 . S
C1201 C1198 1.499 . S
C1201 C1202 1.373 . S
C1201 C1203 1.389 1_455 S
C1202 H1175 0.950 . S
C1202 C1188 1.377 . S
C1202 C1201 1.373 . S
C1203 C1187 1.377 . S
C1203 C1201 1.389 1_655 S
C1203 C1204 1.524 . S
C1204 C1203 1.524 . S
C1204 C1205 1.397 . S
C1204 C1209 1.363 . S
C1205 H1176 0.950 . S
C1205 C1204 1.397 . S
C1205 C1206 1.334 . S
C1206 H1177 0.950 . S
C1206 C1205 1.334 . S
C1206 C1207 1.287 . S
C1207 C1206 1.287 . S
C1207 C1208 1.524 . S
C1207 H1210 0.999 . S
C1208 H1178 0.950 . S
C1208 C1207 1.524 . S
C1208 C1209 1.415 . S
C1209 H1179 0.950 . S
C1209 C1204 1.363 . S
C1209 C1208 1.415 . S
H1210 C1207 0.999 . S
H1211 C1192 0.913 . S
C331 C6 0.426 . S
C346 C303 0.379 . S
C381 C59 1.842 . S
C396 C239 1.793 . S
C431 C86 1.160 . S
C446 C271 1.140 . S
C481 C15 0.366 . S
C496 C297 0.331 . S
C546 C233 1.861 . S
C531 C50 1.893 . S
C596 C265 1.220 . S
C581 C95 1.229 . S
C631 C46 1.161 . S
C646 C175 1.153 . S
C681 C99 2.999 . S
C696 C207 2.935 . S
C731 C10 1.919 . S
C746 C137 1.891 . S
C796 C169 1.209 . S
C781 C55 1.214 . S
C846 C201 2.903 . S
C831 C90 2.920 . S
C881 C19 1.835 . S
C896 C143 1.793 . S
C946 C213 1.723 . S
C931 C18 1.694 . S
C981 C49 1.342 . S
C996 C149 1.359 . S
C1031 C98 1.457 . S
C1046 C181 1.480 . S
C1096 C277 1.456 . S
C1081 C58 1.447 . S
C1146 C309 1.109 . S
C1131 C89 1.100 . S
C1181 C9 1.338 . S
C1196 C245 1.347 . S
