# Generated by pormake.
# Topology tsx, (6,3)-cn, num edge types: 1
# Building blocks:
#     Node 0, Type 0, BuildingBlock: FUNLAD_clean_sbu_0, # of connection points: 6
#     Node 1, Type 0, BuildingBlock: FUNLAD_clean_sbu_0, # of connection points: 6
#     Node 2, Type 1, BuildingBlock: ESEHIV_clean_linker_0, # of connection points: 3
#     Node 3, Type 1, BuildingBlock: ESEHIV_clean_linker_0, # of connection points: 3
#     Node 4, Type 1, BuildingBlock: ESEHIV_clean_linker_0, # of connection points: 3
#     Node 5, Type 1, BuildingBlock: ESEHIV_clean_linker_0, # of connection points: 3
#     Edge 6, Type (0, 1), BuildingBlock: EZIPEK_clean_linker_0, # of connection points: 2
#     Edge 7, Type (0, 1), BuildingBlock: EZIPEK_clean_linker_0, # of connection points: 2
#     Edge 8, Type (0, 1), BuildingBlock: EZIPEK_clean_linker_0, # of connection points: 2
#     Edge 9, Type (0, 1), BuildingBlock: EZIPEK_clean_linker_0, # of connection points: 2
#     Edge 10, Type (0, 1), BuildingBlock: EZIPEK_clean_linker_0, # of connection points: 2
#     Edge 11, Type (0, 1), BuildingBlock: EZIPEK_clean_linker_0, # of connection points: 2
#     Edge 12, Type (0, 1), BuildingBlock: EZIPEK_clean_linker_0, # of connection points: 2
#     Edge 13, Type (0, 1), BuildingBlock: EZIPEK_clean_linker_0, # of connection points: 2
#     Edge 14, Type (0, 1), BuildingBlock: EZIPEK_clean_linker_0, # of connection points: 2
#     Edge 15, Type (0, 1), BuildingBlock: EZIPEK_clean_linker_0, # of connection points: 2
#     Edge 16, Type (0, 1), BuildingBlock: EZIPEK_clean_linker_0, # of connection points: 2
#     Edge 17, Type (0, 1), BuildingBlock: EZIPEK_clean_linker_0, # of connection points: 2
# Relax obj value: 0.162
# Max RMSD: 0.152
# Mean RMSD: 0.063
data_MOF--net-tsx--node1-FUNLAD_clean_sbu_0--node2-ESEHIV_clean_linker_0--edge1-EZIPEK_clean_linker_0
_symmetry_space_group_name_H-M    P1
_symmetry_Int_Tables_number       1
_symmetry_cell_setting            triclinic
loop_
_symmetry_equiv_pos_as_xyz
'x, y, z'
_cell_length_a     12.310884
_cell_length_b     13.401784
_cell_length_c     31.499227
_cell_angle_alpha  91.127177
_cell_angle_beta   91.476426
_cell_angle_gamma 89.760209
loop_
_atom_site_label
_atom_site_type_symbol
_atom_site_fract_x
_atom_site_fract_y
_atom_site_fract_z
_atom_type_partial_charge
C0 C 0.94951 0.84801 -0.00569 0.0
N1 N 0.04029 0.05063 0.07985 0.0
C2 C 0.93725 0.0787 0.08961 0.0
C3 C 0.90726 0.08834 0.13177 0.0
C4 C 0.98338 0.06649 0.16399 0.0
C5 C 0.0901 0.04121 0.15341 0.0
C6 C 0.11731 0.03426 0.11071 0.0
Zn7 Zn 0.0713 0.0213 0.01771 0.0
C8 C 0.25127 0.85932 0.00446 0.0
N9 N 0.13664 0.95244 0.89171 0.0
C10 C 0.0482 0.92447 0.86769 0.0
C11 C 0.23352 0.97246 0.87382 0.0
C12 C 0.24166 0.97216 0.8297 0.0
C13 C 0.14907 0.95111 0.80443 0.0
C14 C 0.05268 0.92346 0.82359 0.0
Zn15 Zn 0.11467 0.98402 0.95401 0.0
O16 O 0.93939 0.92641 0.01645 0.0
C17 C 0.93245 0.13709 0.95916 0.0
O18 O 0.0141 0.84948 0.96312 0.0
H19 H 0.30269 0.99446 0.89365 0.0
H20 H 0.87658 0.08971 0.06474 0.0
H21 H 0.97213 0.90942 0.8827 0.0
O22 O 0.96239 0.14201 -0.00185 0.0
O23 O 0.97751 0.07341 0.93509 0.0
H24 H 0.19848 1.01186 0.10215 0.0
O25 O 0.22305 0.11255 0.95294 0.0
O26 O 0.20053 0.11763 0.02193 0.0
O27 O 0.2465 0.89721 0.9682 0.0
O28 O 0.18564 0.89149 0.03269 0.0
C29 C 0.24949 0.14731 -0.01016 0.0
H30 H 0.82434 0.10809 0.13918 0.0
H31 H 0.15046 0.02424 0.17787 0.0
H32 H 0.31681 0.99441 0.81552 0.0
H33 H 0.97992 0.90752 0.80462 0.0
C34 C 0.27 0.43678 0.48093 0.0
N35 N 0.41123 0.56563 0.58336 0.0
C36 C 0.3178 0.58436 0.60441 0.0
C37 C 0.31651 0.57792 0.64861 0.0
C38 C 0.41225 0.55196 0.67079 0.0
C39 C 0.507 0.53253 0.6484 0.0
C40 C 0.5047 0.53973 0.60437 0.0
Zn41 Zn 0.41622 0.57725 0.51932 0.0
C42 C 0.56906 0.42528 0.47876 0.0
N43 N 0.45539 0.59377 0.38762 0.0
C44 C 0.37144 0.56784 0.3607 0.0
C45 C 0.55586 0.61355 0.37278 0.0
C46 C 0.57609 0.60431 0.32966 0.0
C47 C 0.49253 0.57356 0.30161 0.0
C48 C 0.38849 0.55694 0.3171 0.0
Zn49 Zn 0.442 0.58873 0.45205 0.0
O50 O 0.28509 0.48775 0.51454 0.0
C51 C 0.27403 0.72871 0.48174 0.0
O52 O 0.32419 0.4588 0.44818 0.0
H53 H 0.62232 0.63186 0.39456 0.0
H54 H 0.24447 0.6047 0.58696 0.0
H55 H 0.2926 0.55165 0.37322 0.0
O56 O 0.30818 0.70569 0.51896 0.0
O57 O 0.31499 0.68742 0.44947 0.0
H58 H 0.57789 0.52555 0.58694 0.0
O59 O 0.55935 0.71044 0.46147 0.0
O60 O 0.55242 0.67035 0.52822 0.0
O61 O 0.56814 0.49202 0.45144 0.0
O62 O 0.51673 0.43976 0.51291 0.0
C63 C 0.59517 0.72111 0.49965 0.0
H64 H 0.24235 0.59358 0.66531 0.0
H65 H 0.58207 0.51268 0.66492 0.0
H66 H 0.65734 0.61685 0.3185 0.0
H67 H 0.32269 0.53245 0.29596 0.0
H68 H 0.76566 0.15897 0.34569 0.0
H69 H 1.00095 0.92191 0.34536 0.0
H70 H 0.84826 1.00809 0.46111 0.0
C71 C 0.80852 0.10016 0.36243 0.0
C72 C 0.79579 0.08916 0.40628 0.0
C73 C 0.87981 0.03776 0.34034 0.0
C74 C 0.94088 0.96598 0.36207 0.0
C75 C 0.93082 0.95641 0.40591 0.0
C76 C 0.8545 1.01447 0.42737 0.0
H77 H 0.93988 0.91173 0.6303 0.0
H78 H 0.18837 0.13164 0.6155 0.0
H79 H 0.9829 0.04583 0.50881 0.0
C80 C 0.98265 0.9621 0.61007 0.0
C81 C 0.95197 0.96868 0.56698 0.0
C82 C 0.07058 0.01726 0.62694 0.0
C83 C 0.12378 0.08565 0.60173 0.0
C84 C 0.08986 0.09859 0.55945 0.0
C85 C 0.00666 0.03754 0.54174 0.0
H86 H 0.39108 0.62795 0.87403 0.0
H87 H 0.60051 0.38729 0.83499 0.0
H88 H 0.56767 0.46048 0.96748 0.0
C89 C 0.4479 0.56888 0.88221 0.0
C90 C 0.47611 0.5527 0.9249 0.0
C91 C 0.49123 0.50845 0.84999 0.0
C92 C 0.56566 0.43253 0.86015 0.0
C93 C 0.59779 0.41656 0.90249 0.0
C94 C 0.54911 0.47466 0.93481 0.0
H95 H 0.4914 0.3784 0.11917 0.0
H96 H 0.73243 0.60486 0.12859 0.0
H97 H 0.69151 0.42827 0.01299 0.0
C98 C 0.55904 0.41657 0.10527 0.0
C99 C 0.5834 0.39869 0.06278 0.0
C100 C 0.615 0.48953 0.12884 0.0
C101 C 0.69795 0.54318 0.11025 0.0
C102 C 0.73339 0.51936 0.06877 0.0
C103 C 0.67283 0.44668 0.04522 0.0
C104 C 0.4453 0.17751 0.00676 0.0
C105 C 0.3405 0.21743 -0.00205 0.0
C106 C 0.3988 0.37946 0.02831 0.0
C107 C 0.50469 0.33941 0.03607 0.0
N108 N 0.62783 0.19779 0.0325 0.0
N109 N 0.2131 0.35325 0.00183 0.0
C110 C 0.52805 0.23894 0.02482 0.0
C111 C 0.31631 0.31804 0.00895 0.0
N112 N 0.46553 0.07844 -0.00031 0.0
N113 N 0.37675 0.4753 0.04122 0.0
H114 H 0.15192 0.30989 -0.01252 0.0
H115 H 0.18661 0.42483 0.00944 0.0
H116 H 0.43715 0.52585 0.05084 0.0
H117 H 0.29917 0.50521 0.04352 0.0
H118 H 0.53879 0.04485 0.00891 0.0
H119 H 0.40953 0.03052 -0.01535 0.0
H120 H 0.69408 0.23651 0.04588 0.0
H121 H 0.69408 0.23651 0.04588 0.0
C122 C 0.42858 0.76805 0.00477 0.0
C123 C 0.31427 0.76407 0.00715 0.0
C124 C 0.3114 0.60801 0.96517 0.0
C125 C 0.42467 0.61681 0.95857 0.0
N126 N 0.59493 0.69824 0.97583 0.0
N127 N 0.15707 0.66134 0.00639 0.0
C128 C 0.4851 0.69357 0.98045 0.0
C129 C 0.25927 0.67734 -0.00728 0.0
N130 N 0.48115 0.84484 0.02547 0.0
N131 N 0.25293 0.53505 0.94418 0.0
H132 H 0.12443 0.70861 0.02937 0.0
H133 H 0.11218 0.59711 -0.00049 0.0
H134 H 0.28904 0.47763 0.92663 0.0
H135 H 0.16832 0.53331 0.94308 0.0
H136 H 0.5646 0.85626 0.02572 0.0
H137 H 0.43875 0.89598 0.04434 0.0
H138 H 0.64486 0.75227 -0.00999 0.0
H139 H 0.63732 0.64683 0.95733 0.0
C140 C 0.92475 0.73537 0.05768 0.0
C141 C 0.91071 0.7525 0.01278 0.0
C142 C 0.84189 0.58213 0.0055 0.0
C143 C 0.82234 0.5809 0.04939 0.0
N144 N 0.92788 0.61157 0.11287 0.0
N145 N 0.85865 0.68306 0.94369 0.0
C146 C 0.88775 0.64492 0.07485 0.0
C147 C 0.87092 0.67307 -0.01348 0.0
N148 N 0.97705 0.80234 0.08406 0.0
N149 N 0.86222 0.4949 -0.01533 0.0
H150 H 0.87397 0.74929 0.92817 0.0
H151 H 0.82379 0.62687 0.92451 0.0
H152 H 0.86315 0.42675 0.0002 0.0
H153 H 0.90088 0.49503 0.95571 0.0
H154 H 0.97328 0.80019 0.11702 0.0
H155 H 0.02666 0.85818 0.07353 0.0
H156 H 0.98656 0.64907 0.1314 0.0
H157 H 0.91172 0.53952 0.12304 0.0
C158 C 0.7364 0.17361 0.93857 0.0
C159 C 0.84674 0.2046 0.94092 0.0
C160 C 0.79493 0.36115 0.9059 0.0
C161 C 0.6837 0.33977 0.91247 0.0
N162 N 0.54764 0.214 0.91946 0.0
N163 N 0.98492 0.31814 0.91952 0.0
C164 C 0.65399 0.24202 0.92416 0.0
C165 C 0.87715 0.29504 0.92184 0.0
N166 N 0.71149 0.07845 0.94971 0.0
N167 N 0.82176 0.44307 0.8832 0.0
H168 H 0.04667 0.26811 0.92771 0.0
H169 H 0.01403 0.38716 0.91055 0.0
H170 H 0.76494 0.49541 0.87264 0.0
H171 H 0.89964 0.45743 0.87289 0.0
H172 H 0.63473 0.04713 0.94668 0.0
H173 H 0.76967 0.02794 0.96092 0.0
H174 H 0.51966 0.14174 0.92286 0.0
H175 H 0.48631 0.26287 0.90953 0.0
C176 C 0.68858 0.88886 0.50828 0.0
C177 C 0.69212 0.7836 0.51203 0.0
C178 C 0.86821 0.79821 0.55134 0.0
C179 C 0.86145 0.90418 0.5489 0.0
N180 N 0.74763 0.04855 0.53765 0.0
N181 N 0.78479 0.63596 0.53665 0.0
C182 C 0.7664 0.94891 0.53109 0.0
C183 C 0.78121 0.7379 0.53417 0.0
N184 N 0.61201 0.93199 0.4824 0.0
N185 N 0.95899 0.75544 0.56937 0.0
H186 H 0.73092 0.58918 0.51977 0.0
H187 H 0.84116 0.59592 0.5546 0.0
H188 H 0.03018 0.79481 0.57638 0.0
H189 H 0.96827 0.68002 0.57551 0.0
H190 H 0.61086 1.00778 0.47573 0.0
H191 H 0.55695 0.89052 0.46386 0.0
H192 H 0.67427 0.08315 0.52954 0.0
H193 H 0.80076 0.09476 0.55518 0.0
C194 C 0.57835 0.27889 0.42701 0.0
C195 C 0.61513 0.32724 0.4657 0.0
C196 C 0.77457 0.21997 0.46464 0.0
C197 C 0.72908 0.16261 0.43036 0.0
N198 N 0.56816 0.12134 0.38873 0.0
N199 N 0.73985 0.32598 0.52588 0.0
C200 C 0.62385 0.18603 0.41518 0.0
C201 C 0.70883 0.29017 0.48663 0.0
N202 N 0.50679 0.32317 0.39943 0.0
N203 N 0.88324 0.21851 0.47291 0.0
H204 H 0.69642 0.38087 0.54219 0.0
H205 H 0.80329 0.29361 0.54336 0.0
H206 H 0.9388 0.17646 0.45565 0.0
H207 H 0.91745 0.27317 0.49245 0.0
H208 H 0.48948 0.29348 0.36914 0.0
H209 H 0.46874 0.39093 0.4052 0.0
H210 H 0.48767 0.13399 0.37901 0.0
H211 H 0.59869 0.05097 0.3805 0.0
C212 C 0.11145 0.35521 0.5111 0.0
C213 C 0.20349 0.34455 0.48566 0.0
C214 C 0.2232 0.17083 0.5086 0.0
C215 C 0.13309 0.18374 0.53528 0.0
N216 N 0.00916 0.29664 0.57009 0.0
N217 N 0.32404 0.23409 0.44972 0.0
C218 C 0.08328 0.27877 0.53929 0.0
C219 C 0.2533 0.24978 0.48154 0.0
N220 N 0.04735 0.43732 0.50592 0.0
N221 N 0.28403 0.08579 0.51115 0.0
H222 H 0.32642 0.28432 0.42504 0.0
H223 H 0.36513 0.16727 0.4442 0.0
H224 H 0.26317 0.02631 0.53019 0.0
H225 H 0.36006 0.07845 0.49769 0.0
H226 H 0.97396 0.44863 0.52108 0.0
H227 H 0.06217 0.48643 0.48148 0.0
H228 H 0.97994 0.36778 0.57749 0.0
H229 H 0.98146 0.24144 0.58993 0.0
C230 C 0.20655 0.88855 0.45253 0.0
C231 C 0.18341 0.79888 0.47356 0.0
C232 C 0.99226 0.80931 0.44923 0.0
C233 C 0.01519 0.90129 0.43034 0.0
N234 N 0.13343 0.03482 0.41643 0.0
N235 N 0.05592 0.67562 0.49459 0.0
C236 C 0.12012 0.94279 0.43311 0.0
C237 C 0.07605 0.76062 0.47315 0.0
N238 N 0.31203 0.91785 0.4492 0.0
N239 N 0.89245 0.76677 0.44231 0.0
H240 H 0.11471 0.64154 0.51389 0.0
H241 H 0.97991 0.64285 0.49609 0.0
H242 H 0.82982 0.80194 0.42531 0.0
H243 H 0.87286 0.69464 0.45084 0.0
H244 H 0.33782 0.9724 0.42872 0.0
H245 H 0.37497 0.88436 0.46653 0.0
H246 H 0.20577 0.07471 0.41732 0.0
H247 H 0.20577 0.07471 0.41732 0.0
C248 C 0.8816 0.98604 0.22205 0.0
C249 C 0.94961 0.06426 0.20868 0.0
C250 C 0.96963 0.12729 0.28184 0.0
C251 C 0.89762 0.05197 0.29475 0.0
N252 N 0.76768 0.92287 0.27705 0.0
N253 N 0.03929 0.22116 0.22352 0.0
C254 C 0.84797 0.98551 0.26474 0.0
C255 C 0.98791 0.13863 0.23792 0.0
N256 N 0.85311 0.90989 0.19449 0.0
N257 N 0.02353 0.1854 0.31163 0.0
H258 H 0.05352 0.23199 0.19143 0.0
H259 H 0.05913 0.2828 0.24277 0.0
H260 H 0.01105 0.18042 0.34415 0.0
H261 H 0.08635 0.23351 0.30443 0.0
H262 H 0.81462 0.84508 0.20374 0.0
H263 H 0.87519 0.90755 0.1628 0.0
H264 H 0.72029 0.88008 0.2558 0.0
H265 H 0.74177 0.92009 0.30829 0.0
C266 C 0.17737 0.89946 0.72843 0.0
C267 C 0.14645 0.97318 0.75867 0.0
C268 C 0.07181 0.07846 0.70247 0.0
C269 C 0.10381 1.00559 0.67201 0.0
N270 N 0.20635 0.85755 0.65421 0.0
N271 N 0.09067 0.14232 0.77467 0.0
C272 C 0.16291 0.91929 0.68446 0.0
C273 C 0.10247 0.06597 0.74567 0.0
N274 N 0.21721 0.80973 0.74184 0.0
N275 N 0.00721 0.1568 0.69047 0.0
H276 H 0.11107 0.13557 0.80684 0.0
H277 H 0.07031 0.21497 0.76632 0.0
H278 H 0.98218 0.1684 0.6591 0.0
H279 H 0.97095 0.2058 0.71196 0.0
H280 H 0.23002 0.74861 0.72165 0.0
H281 H 0.23235 0.79459 0.77382 0.0
H282 H 0.25905 0.79885 0.66116 0.0
H283 H 0.1969 0.87011 0.62173 0.0
C284 C 0.37869 0.46136 0.73816 0.0
C285 C 0.41603 0.54754 0.71767 0.0
C286 C 0.4991 0.61035 0.78422 0.0
C287 C 0.45962 0.5254 0.80505 0.0
N288 N 0.34108 0.38255 0.80486 0.0
N289 N 0.48597 0.7151 0.72244 0.0
C290 C 0.39267 0.45472 0.78292 0.0
C291 C 0.46781 0.62578 0.74121 0.0
N292 N 0.33392 0.38434 0.71469 0.0
N293 N 0.57085 0.67344 0.8048 0.0
H294 H 0.46358 0.7287 0.69089 0.0
H295 H 0.51325 0.7784 0.73913 0.0
H296 H 0.59694 0.66428 0.83624 0.0
H297 H 0.61152 0.73017 0.7897 0.0
H298 H 0.31667 0.31496 0.72717 0.0
H299 H 0.32022 0.38746 0.68193 0.0
H300 H 0.28287 0.33491 0.79116 0.0
H301 H 0.34928 0.37598 0.83775 0.0
C302 C 0.49128 0.61984 0.2247 0.0
C303 C 0.51801 0.55049 0.25679 0.0
C304 C 0.6166 0.44664 0.2057 0.0
C305 C 0.58312 0.51205 0.173 0.0
N306 N 0.47535 0.652 0.14927 0.0
N307 N 0.58922 0.38984 0.27716 0.0
C308 C 0.5166 0.59628 0.18188 0.0
C309 C 0.57577 0.46139 0.24706 0.0
N310 N 0.44497 0.70946 0.2354 0.0
N311 N 0.69001 0.37225 0.19745 0.0
H312 H 0.56048 0.39804 0.3079 0.0
H313 H 0.62047 0.31897 0.27078 0.0
H314 H 0.72139 0.35881 0.16741 0.0
H315 H 0.72678 0.32909 0.22093 0.0
H316 H 0.43488 0.76779 0.21429 0.0
H317 H 0.42352 0.72842 0.26636 0.0
H318 H 0.41689 0.70754 0.15322 0.0
H319 H 0.49339 0.63781 0.11753 0.0
loop_
_geom_bond_atom_site_label_1
_geom_bond_atom_site_label_2
_geom_bond_distance
_geom_bond_site_symmetry_2
_ccdc_geom_bond_type
C0 O16 1.251 . S
C0 O18 1.254 1_554 S
N1 C2 1.333 1_445 S
N1 C6 1.307 . S
N1 Zn7 2.020 . S
C2 N1 1.333 1_665 S
C2 C3 1.379 . S
C2 H20 0.952 . S
C3 C2 1.379 . S
C3 C4 1.390 1_665 S
C3 H30 0.949 . S
C4 C3 1.390 1_445 S
C4 C5 1.357 . S
C5 C4 1.357 . S
C5 C6 1.370 . S
C5 H31 0.950 . S
C6 N1 1.307 . S
C6 C5 1.370 . S
C6 H24 0.948 . S
Zn7 N1 2.020 . S
Zn7 O16 2.039 1_445 S
Zn7 O22 2.034 1_455 S
Zn7 O26 2.025 . S
Zn7 O28 2.024 1_545 S
C8 O27 1.246 1_554 S
C8 O28 1.249 . S
N9 C10 1.306 1_445 S
N9 C11 1.335 . S
N9 Zn15 2.020 . S
C10 N9 1.306 1_665 S
C10 C14 1.370 . S
C10 H21 0.948 . S
C11 N9 1.335 . S
C11 C12 1.379 . S
C11 H19 0.952 . S
C12 C11 1.379 . S
C12 C13 1.390 . S
C12 H32 0.949 . S
C13 C12 1.390 . S
C13 C14 1.357 1_445 S
C14 C10 1.370 . S
C14 C13 1.357 1_665 S
C14 H33 0.950 . S
Zn15 N9 2.020 . S
Zn15 O18 2.025 1_445 S
Zn15 O23 2.024 1_455 S
Zn15 O25 2.039 . S
Zn15 O27 2.034 1_545 S
O16 C0 1.251 . S
O16 Zn7 2.039 1_665 S
C17 O22 1.246 . S
C17 O23 1.249 1_554 S
O18 C0 1.254 1_556 S
O18 Zn15 2.025 1_665 S
H19 C11 0.952 . S
H20 C2 0.952 . S
H21 C10 0.948 . S
O22 Zn7 2.034 1_655 S
O22 C17 1.246 . S
O23 Zn15 2.024 1_655 S
O23 C17 1.249 1_556 S
H24 C6 0.948 . S
O25 Zn15 2.039 . S
O25 C29 1.251 1_556 S
O26 Zn7 2.025 . S
O26 C29 1.254 . S
O27 C8 1.246 1_556 S
O27 Zn15 2.034 1_565 S
O28 Zn7 2.024 1_565 S
O28 C8 1.249 . S
C29 O25 1.251 1_554 S
C29 O26 1.254 . S
H30 C3 0.949 . S
H31 C5 0.950 . S
H32 C12 0.949 . S
H33 C14 0.950 . S
C34 O50 1.251 . S
C34 O52 1.254 . S
N35 C36 1.333 . S
N35 C40 1.307 . S
N35 Zn41 2.020 . S
C36 N35 1.333 . S
C36 C37 1.379 . S
C36 H54 0.952 . S
C37 C36 1.379 . S
C37 C38 1.390 . S
C37 H64 0.949 . S
C38 C37 1.390 . S
C38 C39 1.357 . S
C39 C38 1.357 . S
C39 C40 1.370 . S
C39 H65 0.950 . S
C40 N35 1.307 . S
C40 C39 1.370 . S
C40 H58 0.948 . S
Zn41 N35 2.020 . S
Zn41 O50 2.039 . S
Zn41 O56 2.034 . S
Zn41 O60 2.025 . S
Zn41 O62 2.024 . S
C42 O61 1.246 . S
C42 O62 1.249 . S
N43 C44 1.307 . S
N43 C45 1.333 . S
N43 Zn49 2.020 . S
C44 N43 1.307 . S
C44 C48 1.370 . S
C44 H55 0.948 . S
C45 N43 1.333 . S
C45 C46 1.379 . S
C45 H53 0.952 . S
C46 C45 1.379 . S
C46 C47 1.390 . S
C46 H66 0.949 . S
C47 C46 1.390 . S
C47 C48 1.357 . S
C48 C44 1.370 . S
C48 C47 1.357 . S
C48 H67 0.950 . S
Zn49 N43 2.020 . S
Zn49 O52 2.025 . S
Zn49 O57 2.024 . S
Zn49 O59 2.039 . S
Zn49 O61 2.034 . S
O50 C34 1.251 . S
O50 Zn41 2.039 . S
C51 O56 1.246 . S
C51 O57 1.249 . S
O52 C34 1.254 . S
O52 Zn49 2.025 . S
H53 C45 0.952 . S
H54 C36 0.952 . S
H55 C44 0.948 . S
O56 Zn41 2.034 . S
O56 C51 1.246 . S
O57 Zn49 2.024 . S
O57 C51 1.249 . S
H58 C40 0.948 . S
O59 Zn49 2.039 . S
O59 C63 1.251 . S
O60 Zn41 2.025 . S
O60 C63 1.254 . S
O61 C42 1.246 . S
O61 Zn49 2.034 . S
O62 Zn41 2.024 . S
O62 C42 1.249 . S
C63 O59 1.251 . S
C63 O60 1.254 . S
H64 C37 0.949 . S
H65 C39 0.950 . S
H66 C46 0.949 . S
H67 C48 0.950 . S
H68 C71 0.931 . S
H69 C74 0.928 . S
H70 C76 0.930 . S
C71 H68 0.931 . S
C71 C72 1.413 . S
C71 C73 1.357 1_545 S
C72 C71 1.413 . S
C72 C76 1.429 1_645 S
C73 C71 1.357 1_565 S
C73 C74 1.375 1_655 S
C74 H69 0.928 . S
C74 C73 1.375 1_455 S
C74 C75 1.404 . S
C75 C74 1.404 . S
C75 C76 1.391 . S
C76 H70 0.930 . S
C76 C72 1.429 1_465 S
C76 C75 1.391 . S
H77 C80 0.931 . S
H78 C83 0.928 . S
H79 C85 0.930 . S
C80 H77 0.931 . S
C80 C81 1.413 . S
C80 C82 1.360 1_665 S
C81 C80 1.413 . S
C81 C85 1.429 1_665 S
C82 C80 1.360 1_445 S
C82 C83 1.372 . S
C83 H78 0.928 . S
C83 C82 1.372 . S
C83 C84 1.404 . S
C84 C83 1.404 . S
C84 C85 1.391 . S
C85 H79 0.930 . S
C85 C81 1.429 1_445 S
C85 C84 1.391 . S
H86 C89 0.931 . S
H87 C92 0.928 . S
H88 C94 0.930 1_554 S
C89 H86 0.931 . S
C89 C90 1.413 . S
C89 C91 1.360 . S
C90 C89 1.413 . S
C90 C94 1.429 . S
C91 C89 1.360 . S
C91 C92 1.372 . S
C92 H87 0.928 . S
C92 C91 1.372 . S
C92 C93 1.404 . S
C93 C92 1.404 . S
C93 C94 1.391 . S
C94 H88 0.930 1_556 S
C94 C90 1.429 . S
C94 C93 1.391 . S
H95 C98 0.931 . S
H96 C101 0.928 . S
H97 C103 0.930 1_556 S
C98 H95 0.931 . S
C98 C99 1.413 . S
C98 C100 1.360 . S
C99 C98 1.413 . S
C99 C103 1.429 . S
C100 C98 1.360 . S
C100 C101 1.372 . S
C101 H96 0.928 . S
C101 C100 1.372 . S
C101 C102 1.404 . S
C102 C101 1.404 . S
C102 C103 1.391 . S
C103 H97 0.930 1_554 S
C103 C99 1.429 . S
C103 C102 1.391 . S
C104 C105 1.363 . S
C104 C110 1.379 . S
C104 N112 1.356 . S
C105 C104 1.363 . S
C105 C111 1.363 . S
C106 C107 1.363 . S
C106 C111 1.379 . S
C106 N113 1.356 . S
C107 C106 1.363 . S
C107 C110 1.363 . S
N108 C110 1.356 . S
N108 H120 0.984 . S
N108 H121 0.985 . S
N109 C111 1.356 1_556 S
N109 H114 0.984 . S
N109 H115 0.985 . S
C110 C104 1.379 . S
C110 C107 1.363 . S
C110 N108 1.356 . S
C111 C105 1.363 . S
C111 C106 1.379 . S
C111 N109 1.356 1_554 S
N112 C104 1.356 . S
N112 H118 0.984 . S
N112 H119 0.984 . S
N113 C106 1.356 . S
N113 H116 0.984 . S
N113 H117 0.979 1_554 S
H114 N109 0.984 . S
H115 N109 0.985 . S
H116 N113 0.984 . S
H117 N113 0.979 1_556 S
H118 N112 0.984 . S
H119 N112 0.984 . S
H120 N108 0.984 . S
H121 N108 0.985 . S
C122 C123 1.369 . S
C122 C128 1.379 . S
C122 N130 1.356 . S
C123 C122 1.369 . S
C123 C129 1.353 1_554 S
C124 C125 1.363 . S
C124 C129 1.379 . S
C124 N131 1.356 . S
C125 C124 1.363 . S
C125 C128 1.363 1_556 S
N126 C128 1.356 . S
N126 H138 0.984 . S
N126 H139 0.985 . S
N127 C129 1.356 . S
N127 H132 0.984 . S
N127 H133 0.985 . S
C128 C122 1.379 . S
C128 C125 1.363 1_554 S
C128 N126 1.356 . S
C129 C123 1.353 1_556 S
C129 C124 1.379 . S
C129 N127 1.356 . S
N130 C122 1.356 . S
N130 H136 0.984 . S
N130 H137 0.984 . S
N131 C124 1.356 . S
N131 H134 0.984 . S
N131 H135 0.985 . S
H132 N127 0.984 . S
H133 N127 0.985 . S
H134 N131 0.984 . S
H135 N131 0.985 . S
H136 N130 0.984 . S
H137 N130 0.984 . S
H138 N126 0.984 . S
H139 N126 0.985 . S
C140 C141 1.363 . S
C140 C146 1.379 . S
C140 N148 1.356 . S
C141 C140 1.363 . S
C141 C147 1.363 1_554 S
C142 C143 1.363 1_556 S
C142 C147 1.379 . S
C142 N149 1.356 . S
C143 C142 1.363 1_554 S
C143 C146 1.363 . S
N144 C146 1.356 . S
N144 H156 0.984 . S
N144 H157 0.985 . S
N145 C147 1.356 . S
N145 H150 0.984 . S
N145 H151 0.985 . S
C146 C140 1.379 . S
C146 C143 1.363 . S
C146 N144 1.356 . S
C147 C141 1.363 1_556 S
C147 C142 1.379 . S
C147 N145 1.356 . S
N148 C140 1.356 . S
N148 H154 0.984 . S
N148 H155 0.984 . S
N149 C142 1.356 . S
N149 H152 0.984 . S
N149 H153 0.985 . S
H150 N145 0.984 . S
H151 N145 0.985 . S
H152 N149 0.984 . S
H153 N149 0.985 . S
H154 N148 0.984 . S
H155 N148 0.984 . S
H156 N144 0.984 . S
H157 N144 0.985 . S
C158 C159 1.363 . S
C158 C164 1.379 . S
C158 N166 1.356 . S
C159 C158 1.363 . S
C159 C165 1.363 1_554 S
C160 C161 1.363 . S
C160 C165 1.379 . S
C160 N167 1.356 . S
C161 C160 1.363 . S
C161 C164 1.363 1_556 S
N162 C164 1.356 . S
N162 H174 0.984 . S
N162 H175 0.985 . S
N163 C165 1.356 . S
N163 H168 0.984 . S
N163 H169 0.985 . S
C164 C158 1.379 . S
C164 C161 1.363 1_554 S
C164 N162 1.356 . S
C165 C159 1.363 1_556 S
C165 C160 1.379 . S
C165 N163 1.356 . S
N166 C158 1.356 . S
N166 H172 0.984 . S
N166 H173 0.984 . S
N167 C160 1.356 . S
N167 H170 0.984 . S
N167 H171 0.985 . S
H168 N163 0.984 . S
H169 N163 0.985 . S
H170 N167 0.984 . S
H171 N167 0.985 . S
H172 N166 0.984 . S
H173 N166 0.984 . S
H174 N162 0.984 . S
H175 N162 0.985 . S
C176 C177 1.363 . S
C176 C182 1.379 . S
C176 N184 1.356 . S
C177 C176 1.363 . S
C177 C183 1.363 . S
C178 C179 1.363 . S
C178 C183 1.379 . S
C178 N185 1.356 . S
C179 C178 1.363 . S
C179 C182 1.363 . S
N180 C182 1.356 . S
N180 H192 0.984 . S
N180 H193 0.985 . S
N181 C183 1.356 . S
N181 H186 0.984 . S
N181 H187 0.985 . S
C182 C176 1.379 . S
C182 C179 1.363 . S
C182 N180 1.356 . S
C183 C177 1.363 . S
C183 C178 1.379 . S
C183 N181 1.356 . S
N184 C176 1.356 . S
N184 H190 0.984 . S
N184 H191 0.984 . S
N185 C178 1.356 . S
N185 H188 0.984 . S
N185 H189 0.985 . S
H186 N181 0.984 . S
H187 N181 0.985 . S
H188 N185 0.984 . S
H189 N185 0.985 . S
H190 N184 0.984 . S
H191 N184 0.984 . S
H192 N180 0.984 . S
H193 N180 0.985 . S
C194 C195 1.363 . S
C194 C200 1.379 . S
C194 N202 1.356 . S
C195 C194 1.363 . S
C195 C201 1.363 . S
C196 C197 1.363 . S
C196 C201 1.379 . S
C196 N203 1.356 . S
C197 C196 1.363 . S
C197 C200 1.363 . S
N198 C200 1.356 . S
N198 H210 0.984 . S
N198 H211 0.985 . S
N199 C201 1.356 . S
N199 H204 0.984 . S
N199 H205 0.985 . S
C200 C194 1.379 . S
C200 C197 1.363 . S
C200 N198 1.356 . S
C201 C195 1.363 . S
C201 C196 1.379 . S
C201 N199 1.356 . S
N202 C194 1.356 . S
N202 H208 0.984 . S
N202 H209 0.984 . S
N203 C196 1.356 . S
N203 H206 0.984 . S
N203 H207 0.985 . S
H204 N199 0.984 . S
H205 N199 0.985 . S
H206 N203 0.984 . S
H207 N203 0.985 . S
H208 N202 0.984 . S
H209 N202 0.984 . S
H210 N198 0.984 . S
H211 N198 0.985 . S
C212 C213 1.363 . S
C212 C218 1.379 . S
C212 N220 1.356 . S
C213 C212 1.363 . S
C213 C219 1.363 . S
C214 C215 1.363 . S
C214 C219 1.379 . S
C214 N221 1.356 . S
C215 C214 1.363 . S
C215 C218 1.363 . S
N216 C218 1.356 . S
N216 H228 0.984 . S
N216 H229 0.985 . S
N217 C219 1.356 . S
N217 H222 0.984 . S
N217 H223 0.985 . S
C218 C212 1.379 . S
C218 C215 1.363 . S
C218 N216 1.356 . S
C219 C213 1.363 . S
C219 C214 1.379 . S
C219 N217 1.356 . S
N220 C212 1.356 . S
N220 H226 0.984 . S
N220 H227 0.984 . S
N221 C214 1.356 . S
N221 H224 0.984 . S
N221 H225 0.985 . S
H222 N217 0.984 . S
H223 N217 0.985 . S
H224 N221 0.984 . S
H225 N221 0.985 . S
H226 N220 0.984 . S
H227 N220 0.984 . S
H228 N216 0.984 . S
H229 N216 0.985 . S
C230 C231 1.363 . S
C230 C236 1.379 . S
C230 N238 1.356 . S
C231 C230 1.363 . S
C231 C237 1.363 . S
C232 C233 1.363 . S
C232 C237 1.379 . S
C232 N239 1.356 . S
C233 C232 1.363 . S
C233 C236 1.363 . S
N234 C236 1.356 . S
N234 H246 0.984 . S
N234 H247 0.985 . S
N235 C237 1.356 . S
N235 H240 0.984 . S
N235 H241 0.985 . S
C236 C230 1.379 . S
C236 C233 1.363 . S
C236 N234 1.356 . S
C237 C231 1.363 . S
C237 C232 1.379 . S
C237 N235 1.356 . S
N238 C230 1.356 . S
N238 H244 0.984 . S
N238 H245 0.984 . S
N239 C232 1.356 . S
N239 H242 0.984 . S
N239 H243 0.985 . S
H240 N235 0.984 . S
H241 N235 0.985 . S
H242 N239 0.984 . S
H243 N239 0.985 . S
H244 N238 0.984 . S
H245 N238 0.984 . S
H246 N234 0.984 . S
H247 N234 0.985 . S
C248 C249 1.363 1_665 S
C248 C254 1.379 . S
C248 N256 1.356 . S
C249 C248 1.363 1_445 S
C249 C255 1.363 . S
C250 C251 1.360 1_455 S
C250 C255 1.379 . S
C250 N257 1.356 . S
C251 C250 1.360 1_655 S
C251 C254 1.366 1_545 S
N252 C254 1.356 . S
N252 H264 0.984 . S
N252 H265 0.985 . S
N253 C255 1.356 . S
N253 H258 0.984 . S
N253 H259 0.985 . S
C254 C248 1.379 . S
C254 C251 1.366 1_565 S
C254 N252 1.356 . S
C255 C249 1.363 . S
C255 C250 1.379 . S
C255 N253 1.356 . S
N256 C248 1.356 . S
N256 H262 0.984 . S
N256 H263 0.984 . S
N257 C250 1.356 . S
N257 H260 0.984 . S
N257 H261 0.985 . S
H258 N253 0.984 . S
H259 N253 0.985 . S
H260 N257 0.984 . S
H261 N257 0.985 . S
H262 N256 0.984 . S
H263 N256 0.984 . S
H264 N252 0.984 . S
H265 N252 0.985 . S
C266 C267 1.363 1_565 S
C266 C272 1.379 . S
C266 N274 1.356 . S
C267 C266 1.363 1_545 S
C267 C273 1.363 1_455 S
C268 C269 1.363 1_655 S
C268 C273 1.379 . S
C268 N275 1.356 . S
C269 C268 1.363 1_455 S
C269 C272 1.363 1_545 S
N270 C272 1.356 . S
N270 H282 0.984 . S
N270 H283 0.985 . S
N271 C273 1.356 . S
N271 H276 0.984 . S
N271 H277 0.985 . S
C272 C266 1.379 . S
C272 C269 1.363 1_565 S
C272 N270 1.356 . S
C273 C267 1.363 1_655 S
C273 C268 1.379 . S
C273 N271 1.356 . S
N274 C266 1.356 . S
N274 H280 0.984 . S
N274 H281 0.984 . S
N275 C268 1.356 . S
N275 H278 0.984 . S
N275 H279 0.985 . S
H276 N271 0.984 . S
H277 N271 0.985 . S
H278 N275 0.984 . S
H279 N275 0.985 . S
H280 N274 0.984 . S
H281 N274 0.984 . S
H282 N270 0.984 . S
H283 N270 0.985 . S
C284 C285 1.363 . S
C284 C290 1.379 . S
C284 N292 1.356 . S
C285 C284 1.363 . S
C285 C291 1.363 . S
C286 C287 1.363 . S
C286 C291 1.379 . S
C286 N293 1.356 . S
C287 C286 1.363 . S
C287 C290 1.363 . S
N288 C290 1.356 . S
N288 H300 0.984 . S
N288 H301 0.985 . S
N289 C291 1.356 . S
N289 H294 0.984 . S
N289 H295 0.985 . S
C290 C284 1.379 . S
C290 C287 1.363 . S
C290 N288 1.356 . S
C291 C285 1.363 . S
C291 C286 1.379 . S
C291 N289 1.356 . S
N292 C284 1.356 . S
N292 H298 0.984 . S
N292 H299 0.984 . S
N293 C286 1.356 . S
N293 H296 0.984 . S
N293 H297 0.985 . S
H294 N289 0.984 . S
H295 N289 0.985 . S
H296 N293 0.984 . S
H297 N293 0.985 . S
H298 N292 0.984 . S
H299 N292 0.984 . S
H300 N288 0.984 . S
H301 N288 0.985 . S
C302 C303 1.363 . S
C302 C308 1.379 . S
C302 N310 1.356 . S
C303 C302 1.363 . S
C303 C309 1.363 . S
C304 C305 1.363 . S
C304 C309 1.379 . S
C304 N311 1.356 . S
C305 C304 1.363 . S
C305 C308 1.363 . S
N306 C308 1.356 . S
N306 H318 0.984 . S
N306 H319 0.985 . S
N307 C309 1.356 . S
N307 H312 0.984 . S
N307 H313 0.985 . S
C308 C302 1.379 . S
C308 C305 1.363 . S
C308 N306 1.356 . S
C309 C303 1.363 . S
C309 C304 1.379 . S
C309 N307 1.356 . S
N310 C302 1.356 . S
N310 H316 0.984 . S
N310 H317 0.984 . S
N311 C304 1.356 . S
N311 H314 0.984 . S
N311 H315 0.985 . S
H312 N307 0.984 . S
H313 N307 0.985 . S
H314 N311 0.984 . S
H315 N311 0.985 . S
H316 N310 0.984 . S
H317 N310 0.984 . S
H318 N306 0.984 . S
H319 N306 0.985 . S
C107 C99 1.417 . S
C105 C29 1.434 . S
C123 C8 1.439 . S
C125 C90 1.419 . S
C141 C0 1.432 . S
C143 C102 1.413 . S
C159 C17 1.428 . S
C161 C93 1.414 . S
C177 C63 1.434 . S
C179 C81 1.417 . S
C195 C42 1.436 . S
C197 C72 1.418 . S
C215 C84 1.413 . S
C213 C34 1.432 . S
C233 C75 1.414 . S
C231 C51 1.429 . S
C249 C4 1.494 . S
C251 C73 1.496 1_545 S
C267 C13 1.492 . S
C269 C82 1.495 . S
C287 C91 1.496 . S
C285 C38 1.494 . S
C303 C47 1.492 . S
C305 C100 1.495 . S
